# Generated by pormake.
# Topology nom, (4,4)-cn, num edge types: 1
# Building blocks:
#     Node 0, Type 0, BuildingBlock: AZAVOO_clean_linker_0, # of connection points: 4
#     Node 1, Type 0, BuildingBlock: AZAVOO_clean_linker_0, # of connection points: 4
#     Node 2, Type 0, BuildingBlock: AZAVOO_clean_linker_0, # of connection points: 4
#     Node 3, Type 0, BuildingBlock: AZAVOO_clean_linker_0, # of connection points: 4
#     Node 4, Type 0, BuildingBlock: AZAVOO_clean_linker_0, # of connection points: 4
#     Node 5, Type 0, BuildingBlock: AZAVOO_clean_linker_0, # of connection points: 4
#     Node 6, Type 1, BuildingBlock: CEKHIL_clean_sbu_0, # of connection points: 4
#     Node 7, Type 1, BuildingBlock: CEKHIL_clean_sbu_0, # of connection points: 4
#     Node 8, Type 1, BuildingBlock: CEKHIL_clean_sbu_0, # of connection points: 4
#     Node 9, Type 1, BuildingBlock: CEKHIL_clean_sbu_0, # of connection points: 4
#     Node 10, Type 1, BuildingBlock: CEKHIL_clean_sbu_0, # of connection points: 4
#     Node 11, Type 1, BuildingBlock: CEKHIL_clean_sbu_0, # of connection points: 4
#     Edge 12, Type (0, 1), BuildingBlock: OJICUG_clean_linker_0, # of connection points: 2
#     Edge 13, Type (0, 1), BuildingBlock: OJICUG_clean_linker_0, # of connection points: 2
#     Edge 14, Type (0, 1), BuildingBlock: OJICUG_clean_linker_0, # of connection points: 2
#     Edge 15, Type (0, 1), BuildingBlock: OJICUG_clean_linker_0, # of connection points: 2
#     Edge 16, Type (0, 1), BuildingBlock: OJICUG_clean_linker_0, # of connection points: 2
#     Edge 17, Type (0, 1), BuildingBlock: OJICUG_clean_linker_0, # of connection points: 2
#     Edge 18, Type (0, 1), BuildingBlock: OJICUG_clean_linker_0, # of connection points: 2
#     Edge 19, Type (0, 1), BuildingBlock: OJICUG_clean_linker_0, # of connection points: 2
#     Edge 20, Type (0, 1), BuildingBlock: OJICUG_clean_linker_0, # of connection points: 2
#     Edge 21, Type (0, 1), BuildingBlock: OJICUG_clean_linker_0, # of connection points: 2
#     Edge 22, Type (0, 1), BuildingBlock: OJICUG_clean_linker_0, # of connection points: 2
#     Edge 23, Type (0, 1), BuildingBlock: OJICUG_clean_linker_0, # of connection points: 2
#     Edge 24, Type (0, 1), BuildingBlock: OJICUG_clean_linker_0, # of connection points: 2
#     Edge 25, Type (0, 1), BuildingBlock: OJICUG_clean_linker_0, # of connection points: 2
#     Edge 26, Type (0, 1), BuildingBlock: OJICUG_clean_linker_0, # of connection points: 2
#     Edge 27, Type (0, 1), BuildingBlock: OJICUG_clean_linker_0, # of connection points: 2
#     Edge 28, Type (0, 1), BuildingBlock: OJICUG_clean_linker_0, # of connection points: 2
#     Edge 29, Type (0, 1), BuildingBlock: OJICUG_clean_linker_0, # of connection points: 2
#     Edge 30, Type (0, 1), BuildingBlock: OJICUG_clean_linker_0, # of connection points: 2
#     Edge 31, Type (0, 1), BuildingBlock: OJICUG_clean_linker_0, # of connection points: 2
#     Edge 32, Type (0, 1), BuildingBlock: OJICUG_clean_linker_0, # of connection points: 2
#     Edge 33, Type (0, 1), BuildingBlock: OJICUG_clean_linker_0, # of connection points: 2
#     Edge 34, Type (0, 1), BuildingBlock: OJICUG_clean_linker_0, # of connection points: 2
#     Edge 35, Type (0, 1), BuildingBlock: OJICUG_clean_linker_0, # of connection points: 2
# Relax obj value: 0.151
# Max RMSD: 0.228
# Mean RMSD: 0.145
data_MOF--net-nom--node1-CEKHIL_clean_sbu_0--node2-AZAVOO_clean_linker_0--edge1-OJICUG_clean_linker_0
_symmetry_space_group_name_H-M    P1
_symmetry_Int_Tables_number       1
_symmetry_cell_setting            triclinic
loop_
_symmetry_equiv_pos_as_xyz
'x, y, z'
_cell_length_a     38.151965
_cell_length_b     38.185356
_cell_length_c     45.924601
_cell_angle_alpha  90.10297
_cell_angle_beta   90.029382
_cell_angle_gamma 123.75221
loop_
_atom_site_label
_atom_site_type_symbol
_atom_site_fract_x
_atom_site_fract_y
_atom_site_fract_z
_atom_type_partial_charge
H0 H 0.06343 0.56757 0.12105 0.0
H1 H 0.28218 0.75573 0.43268 0.0
H2 H 0.97329 0.52043 0.29113 0.0
H3 H 0.92982 0.47886 0.2496 0.0
H4 H 0.95836 0.59268 0.20709 0.0
H5 H 0.00085 0.63392 0.24916 0.0
H6 H 0.0495 0.55377 0.24785 0.0
H7 H 0.05178 0.54729 0.19501 0.0
H8 H 0.10047 0.67952 0.18587 0.0
H9 H 0.09725 0.68535 0.23879 0.0
H10 H 0.14136 0.60472 0.27391 0.0
H11 H 0.21322 0.63851 0.25503 0.0
H12 H 0.23552 0.76079 0.27173 0.0
H13 H 0.16343 0.72665 0.2902 0.0
H14 H 0.14502 0.6069 0.34019 0.0
H15 H 0.20512 0.6343 0.37336 0.0
H16 H 0.2032 0.74503 0.38856 0.0
H17 H 0.14326 0.7173 0.35523 0.0
H18 H 0.05865 0.55878 0.36782 0.0
H19 H 0.09075 0.56567 0.41496 0.0
H20 H 0.09318 0.67847 0.4318 0.0
H21 H 0.06303 0.67231 0.38358 0.0
H22 H 0.97443 0.54497 0.36309 0.0
H23 H 0.90555 0.52644 0.38125 0.0
H24 H 0.91382 0.6232 0.32734 0.0
H25 H 0.98304 0.64268 0.31011 0.0
O26 O 0.06332 0.57099 0.14193 0.0
O27 O 0.08978 0.63944 0.13844 0.0
O28 O 0.25977 0.68783 0.40959 0.0
O29 O 0.25934 0.74479 0.41876 0.0
C30 C 0.02859 0.60494 0.29189 0.0
C31 C 0.06886 0.62299 0.27902 0.0
C32 C 0.10517 0.64302 0.29658 0.0
C33 C 0.10137 0.64186 0.32705 0.0
C34 C 0.06111 0.62208 0.34018 0.0
C35 C 0.02478 0.60618 0.32256 0.0
C36 C 0.99071 0.58025 0.27301 0.0
C37 C 0.96852 0.5362 0.2735 0.0
C38 C 0.9443 0.51259 0.24951 0.0
C39 C 0.9418 0.53267 0.22469 0.0
C40 C 0.95983 0.57629 0.22579 0.0
C41 C 0.98396 0.59991 0.24988 0.0
C42 C 0.07298 0.61996 0.24708 0.0
C43 C 0.06071 0.5813 0.23439 0.0
C44 C 0.06206 0.5777 0.2042 0.0
C45 C 0.0762 0.61287 0.1862 0.0
C46 C 0.08933 0.65181 0.19911 0.0
C47 C 0.08771 0.65529 0.22931 0.0
C48 C 0.14742 0.66336 0.28328 0.0
C49 C 0.16169 0.63878 0.27312 0.0
C50 C 0.20271 0.65809 0.26258 0.0
C51 C 0.22994 0.70226 0.26202 0.0
C52 C 0.21508 0.72673 0.27162 0.0
C53 C 0.17411 0.70737 0.28227 0.0
C54 C 0.13978 0.66007 0.34548 0.0
C55 C 0.15795 0.63726 0.35049 0.0
C56 C 0.19214 0.65291 0.36952 0.0
C57 C 0.20882 0.69178 0.38375 0.0
C58 C 0.19107 0.71497 0.37805 0.0
C59 C 0.15691 0.69927 0.359 0.0
C60 C 0.0588 0.61522 0.37211 0.0
C61 C 0.06404 0.58376 0.38231 0.0
C62 C 0.0829 0.58804 0.40933 0.0
C63 C 0.0961 0.62352 0.42692 0.0
C64 C 0.08491 0.65157 0.41838 0.0
C65 C 0.0666 0.64758 0.39109 0.0
C66 C 0.984 0.59527 0.33524 0.0
C67 C 0.96192 0.56287 0.35573 0.0
C68 C 0.9226 0.5523 0.36607 0.0
C69 C 0.90451 0.57351 0.3557 0.0
C70 C 0.92701 0.60634 0.33563 0.0
C71 C 0.96644 0.61731 0.32572 0.0
C72 C 0.07695 0.60876 0.15409 0.0
C73 C 0.24422 0.7079 0.40473 0.0
H74 H 0.63575 0.12646 0.29596 0.0
H75 H 0.58673 0.23779 0.61377 0.0
H76 H 0.57716 0.98818 0.4358 0.0
H77 H 0.55848 0.94193 0.3935 0.0
H78 H 0.44099 0.93378 0.38573 0.0
H79 H 0.45897 0.97739 0.42902 0.0
H80 H 0.62808 0.09281 0.42083 0.0
H81 H 0.64365 0.11082 0.36922 0.0
H82 H 0.51503 0.07312 0.35518 0.0
H83 H 0.50007 0.05557 0.40689 0.0
H84 H 0.64468 0.16516 0.46981 0.0
H85 H 0.6654 0.23621 0.45566 0.0
H86 H 0.53545 0.18751 0.43471 0.0
H87 H 0.51547 0.11693 0.44831 0.0
H88 H 0.63281 0.12578 0.52981 0.0
H89 H 0.65265 0.17732 0.56889 0.0
H90 H 0.53526 0.16791 0.55681 0.0
H91 H 0.51572 0.11613 0.51794 0.0
H92 H 0.59405 0.03583 0.54185 0.0
H93 H 0.60679 0.055 0.5929 0.0
H94 H 0.48945 0.0475 0.59722 0.0
H95 H 0.47854 0.03074 0.54532 0.0
H96 H 0.53999 0.94649 0.48964 0.0
H97 H 0.48983 0.87245 0.50342 0.0
H98 H 0.39409 0.89805 0.51765 0.0
H99 H 0.44425 0.97147 0.50425 0.0
O100 O 0.62895 0.11926 0.31629 0.0
O101 O 0.5624 0.09911 0.31017 0.0
O102 O 0.64002 0.22193 0.60333 0.0
O103 O 0.58007 0.21817 0.59801 0.0
C104 C 0.53346 0.01916 0.45765 0.0
C105 C 0.55381 0.06152 0.44866 0.0
C106 C 0.56516 0.09338 0.46936 0.0
C107 C 0.55945 0.08354 0.49919 0.0
C108 C 0.53945 0.04122 0.50825 0.0
C109 C 0.52481 0.00877 0.48743 0.0
C110 C 0.51932 0.98592 0.43535 0.0
C111 C 0.54688 0.97522 0.42534 0.0
C112 C 0.53633 0.94926 0.40093 0.0
C113 C 0.49838 0.93433 0.38578 0.0
C114 C 0.47013 0.94384 0.3969 0.0
C115 C 0.48038 0.96904 0.42161 0.0
C116 C 0.56293 0.07263 0.41743 0.0
C117 C 0.60337 0.08851 0.40653 0.0
C118 C 0.61214 0.09873 0.37706 0.0
C119 C 0.58054 0.09329 0.35804 0.0
C120 C 0.54005 0.07759 0.3692 0.0
C121 C 0.53138 0.06746 0.39868 0.0
C122 C 0.57872 0.13607 0.45975 0.0
C123 C 0.62092 0.17001 0.46193 0.0
C124 C 0.63255 0.21049 0.45408 0.0
C125 C 0.60206 0.21747 0.444 0.0
C126 C 0.55981 0.18314 0.4419 0.0
C127 C 0.5483 0.14284 0.44969 0.0
C128 C 0.57289 0.11735 0.52113 0.0
C129 C 0.61163 0.13521 0.53551 0.0
C130 C 0.62281 0.16453 0.55784 0.0
C131 C 0.59548 0.17667 0.56602 0.0
C132 C 0.55701 0.15924 0.55109 0.0
C133 C 0.54584 0.12983 0.52881 0.0
C134 C 0.53568 0.03238 0.53986 0.0
C135 C 0.57005 0.03622 0.55417 0.0
C136 C 0.5773 0.0474 0.58355 0.0
C137 C 0.54982 0.05424 0.59918 0.0
C138 C 0.51205 0.04398 0.58567 0.0
C139 C 0.50522 0.03349 0.55611 0.0
C140 C 0.4958 0.96432 0.49634 0.0
C141 C 0.50819 0.93595 0.49585 0.0
C142 C 0.47947 0.89372 0.50352 0.0
C143 C 0.43807 0.87947 0.51181 0.0
C144 C 0.42592 0.90814 0.51192 0.0
C145 C 0.4545 0.95009 0.50427 0.0
C146 C 0.58991 0.10401 0.32673 0.0
C147 C 0.60672 0.20701 0.59021 0.0
H148 H 0.45694 0.42069 0.82708 0.0
H149 H 0.55219 0.33457 0.50763 0.0
H150 H 0.44989 0.51667 0.66357 0.0
H151 H 0.43885 0.5444 0.70794 0.0
H152 H 0.33933 0.41855 0.73333 0.0
H153 H 0.34867 0.39101 0.68777 0.0
H154 H 0.48135 0.4717 0.705 0.0
H155 H 0.48075 0.46247 0.75768 0.0
H156 H 0.38628 0.32929 0.74722 0.0
H157 H 0.38705 0.33905 0.69444 0.0
H158 H 0.51799 0.42358 0.68446 0.0
H159 H 0.54481 0.38242 0.70282 0.0
H160 H 0.45401 0.27687 0.64984 0.0
H161 H 0.42552 0.31726 0.63274 0.0
H162 H 0.54514 0.4476 0.61576 0.0
H163 H 0.58623 0.43213 0.58375 0.0
H164 H 0.47093 0.33232 0.54308 0.0
H165 H 0.43031 0.34851 0.57499 0.0
H166 H 0.52122 0.50207 0.5879 0.0
H167 H 0.55504 0.50477 0.54242 0.0
H168 H 0.43412 0.40599 0.50756 0.0
H169 H 0.4012 0.40163 0.55419 0.0
H170 H 0.45977 0.52529 0.60204 0.0
H171 H 0.42496 0.56097 0.58849 0.0
H172 H 0.30345 0.44541 0.60237 0.0
H173 H 0.33848 0.41002 0.61582 0.0
O174 O 0.45701 0.42345 0.80613 0.0
O175 O 0.40999 0.35484 0.79957 0.0
O176 O 0.59509 0.3934 0.54191 0.0
O177 O 0.53667 0.34069 0.52102 0.0
C178 C 0.4176 0.43453 0.65224 0.0
C179 C 0.43431 0.41234 0.664 0.0
C180 C 0.45384 0.39849 0.64563 0.0
C181 C 0.46031 0.41026 0.6161 0.0
C182 C 0.44586 0.43456 0.60456 0.0
C183 C 0.42223 0.4446 0.62219 0.0
C184 C 0.40043 0.45174 0.67256 0.0
C185 C 0.42392 0.4953 0.67771 0.0
C186 C 0.41782 0.51108 0.70322 0.0
C187 C 0.38871 0.48342 0.7241 0.0
C188 C 0.36206 0.44036 0.71751 0.0
C189 C 0.36731 0.42471 0.69152 0.0
C190 C 0.43401 0.4061 0.69597 0.0
C191 C 0.46046 0.44058 0.71415 0.0
C192 C 0.46015 0.43519 0.74422 0.0
C193 C 0.43337 0.39516 0.75668 0.0
C194 C 0.4072 0.36055 0.73832 0.0
C195 C 0.40757 0.366 0.7082 0.0
C196 C 0.46949 0.3733 0.65747 0.0
C197 C 0.50316 0.39125 0.67735 0.0
C198 C 0.51846 0.36783 0.68777 0.0
C199 C 0.5011 0.32654 0.67784 0.0
C200 C 0.46758 0.3086 0.65788 0.0
C201 C 0.45153 0.33165 0.64805 0.0
C202 C 0.48484 0.39933 0.59752 0.0
C203 C 0.52886 0.42231 0.59999 0.0
C204 C 0.55222 0.41346 0.58165 0.0
C205 C 0.53186 0.38113 0.56072 0.0
C206 C 0.48761 0.35754 0.55884 0.0
C207 C 0.46432 0.36668 0.57703 0.0
C208 C 0.45893 0.45103 0.57456 0.0
C209 C 0.50164 0.48255 0.56991 0.0
C210 C 0.52108 0.48381 0.54379 0.0
C211 C 0.49769 0.45424 0.52168 0.0
C212 C 0.45345 0.42796 0.52464 0.0
C213 C 0.43424 0.42607 0.55105 0.0
C214 C 0.40172 0.46497 0.60979 0.0
C215 C 0.42566 0.50746 0.60152 0.0
C216 C 0.40569 0.52787 0.59408 0.0
C217 C 0.36138 0.50608 0.59454 0.0
C218 C 0.33753 0.46302 0.60157 0.0
C219 C 0.35752 0.44278 0.60929 0.0
C220 C 0.43266 0.38974 0.78872 0.0
C221 C 0.55658 0.3722 0.54075 0.0
H222 H 0.07086 0.58612 0.0078 0.0
H223 H 0.26881 0.62075 0.70386 0.0
H224 H 0.98061 0.55816 0.86619 0.0
H225 H 0.94008 0.53028 0.91107 0.0
H226 H 0.91113 0.40673 0.8892 0.0
H227 H 0.95301 0.43531 0.84484 0.0
H228 H 0.07832 0.60763 0.88134 0.0
H229 H 0.081 0.61144 0.9346 0.0
H230 H 0.02811 0.4778 0.9385 0.0
H231 H 0.02627 0.47462 0.88527 0.0
H232 H 0.15899 0.63126 0.83755 0.0
H233 H 0.22616 0.6435 0.85416 0.0
H234 H 0.16402 0.50978 0.86899 0.0
H235 H 0.09761 0.49823 0.85299 0.0
H236 H 0.11851 0.62842 0.7716 0.0
H237 H 0.17906 0.66041 0.7387 0.0
H238 H 0.1925 0.55683 0.7546 0.0
H239 H 0.1318 0.52513 0.7874 0.0
H240 H 0.02759 0.57614 0.747 0.0
H241 H 0.05762 0.59431 0.6981 0.0
H242 H 0.08872 0.50168 0.70502 0.0
H243 H 0.05622 0.48205 0.75302 0.0
H244 H 0.9426 0.52813 0.79785 0.0
H245 H 0.87107 0.4793 0.779 0.0
H246 H 0.9021 0.38858 0.75993 0.0
H247 H 0.97346 0.43794 0.778 0.0
O248 O 0.07022 0.58407 0.98677 0.0
O249 O 0.04185 0.51507 0.98755 0.0
O250 O 0.23794 0.66245 0.7106 0.0
O251 O 0.24564 0.60945 0.71749 0.0
C252 C 0.00804 0.51854 0.83357 0.0
C253 C 0.04798 0.53838 0.84723 0.0
C254 C 0.08448 0.55447 0.83031 0.0
C255 C 0.08183 0.55371 0.79976 0.0
C256 C 0.04191 0.53203 0.78598 0.0
C257 C 0.00488 0.51381 0.80292 0.0
C258 C 0.97015 0.49888 0.85244 0.0
C259 C 0.96384 0.52467 0.87041 0.0
C260 C 0.94084 0.50869 0.89618 0.0
C261 C 0.92345 0.46656 0.90408 0.0
C262 C 0.92514 0.4396 0.88404 0.0
C263 C 0.94836 0.45568 0.85837 0.0
C264 C 0.05165 0.54079 0.87952 0.0
C265 C 0.06762 0.57931 0.89377 0.0
C266 C 0.06897 0.58134 0.92417 0.0
C267 C 0.05448 0.54485 0.94082 0.0
C268 C 0.03931 0.50644 0.92636 0.0
C269 C 0.03815 0.50451 0.89597 0.0
C270 C 0.12369 0.56394 0.84423 0.0
C271 C 0.15997 0.60494 0.84505 0.0
C272 C 0.19817 0.61173 0.85432 0.0
C273 C 0.20034 0.57753 0.86276 0.0
C274 C 0.16333 0.53684 0.86311 0.0
C275 C 0.12537 0.53015 0.85391 0.0
C276 C 0.12089 0.57458 0.78191 0.0
C277 C 0.13488 0.61294 0.76818 0.0
C278 C 0.16937 0.63105 0.74933 0.0
C279 C 0.19048 0.61103 0.74388 0.0
C280 C 0.1769 0.57301 0.75824 0.0
C281 C 0.14242 0.55496 0.77713 0.0
C282 C 0.04051 0.52841 0.75375 0.0
C283 C 0.03852 0.55803 0.73723 0.0
C284 C 0.05653 0.56892 0.70949 0.0
C285 C 0.07736 0.55079 0.6982 0.0
C286 C 0.07339 0.5166 0.71304 0.0
C287 C 0.05457 0.50515 0.74052 0.0
C288 C 0.96312 0.48657 0.78907 0.0
C289 C 0.93396 0.49793 0.78915 0.0
C290 C 0.8931 0.46989 0.77861 0.0
C291 C 0.88081 0.42996 0.76803 0.0
C292 C 0.91064 0.41928 0.76743 0.0
C293 C 0.95142 0.44738 0.7778 0.0
C294 C 0.0551 0.54693 0.9731 0.0
C295 C 0.22613 0.62936 0.72302 0.0
H296 H 0.55806 0.93513 0.78228 0.0
H297 H 0.59519 0.80353 0.08933 0.0
H298 H 0.58766 0.04835 0.92743 0.0
H299 H 0.59385 0.09687 0.89018 0.0
H300 H 0.72598 0.14432 0.8801 0.0
H301 H 0.71976 0.09791 0.91917 0.0
H302 H 0.55854 0.95602 0.90851 0.0
H303 H 0.54555 0.94098 0.85635 0.0
H304 H 0.67954 0.00331 0.84215 0.0
H305 H 0.69198 0.01786 0.89444 0.0
H306 H 0.54337 0.90017 0.95894 0.0
H307 H 0.51393 0.8266 0.94675 0.0
H308 H 0.63661 0.85967 0.9181 0.0
H309 H 0.66613 0.93388 0.93067 0.0
H310 H 0.55705 0.93222 0.01954 0.0
H311 H 0.5362 0.87691 0.0556 0.0
H312 H 0.64805 0.87885 0.03567 0.0
H313 H 0.66896 0.93482 4e-05 0.0
H314 H 0.5884 0.02674 0.02421 0.0
H315 H 0.56666 0.01116 0.07481 0.0
H316 H 0.66904 0.99621 0.09233 0.0
H317 H 0.69014 0.01126 0.04115 0.0
H318 H 0.62243 0.09571 0.97369 0.0
H319 H 0.65483 0.16735 0.99093 0.0
H320 H 0.75631 0.16306 0.02912 0.0
H321 H 0.72635 0.09356 0.00807 0.0
O322 O 0.5639 0.94124 0.80284 0.0
O323 O 0.63305 0.97359 0.79668 0.0
O324 O 0.54636 0.82656 0.08516 0.0
O325 O 0.60256 0.82515 0.07502 0.0
C326 C 0.64808 0.03805 0.94716 0.0
C327 C 0.63379 0.99741 0.93672 0.0
C328 C 0.62461 0.96521 0.95645 0.0
C329 C 0.62836 0.973 0.98666 0.0
C330 C 0.64295 0.0137 0.9972 0.0
C331 C 0.65395 0.04658 0.97742 0.0
C332 C 0.65341 0.07017 0.92624 0.0
C333 C 0.61812 0.07004 0.91756 0.0
C334 C 0.62168 0.09746 0.89594 0.0
C335 C 0.66038 0.12463 0.88173 0.0
C336 C 0.69582 0.12475 0.89081 0.0
C337 C 0.6924 0.09802 0.91304 0.0
C338 C 0.62616 0.98792 0.90514 0.0
C339 C 0.58498 0.96621 0.89407 0.0
C340 C 0.57769 0.95776 0.86428 0.0
C341 C 0.61151 0.97096 0.84506 0.0
C342 C 0.65279 0.9927 0.85634 0.0
C343 C 0.66001 0.00107 0.88616 0.0
C344 C 0.60679 0.92196 0.94588 0.0
C345 C 0.56381 0.89156 0.94988 0.0
C346 C 0.54722 0.84968 0.94313 0.0
C347 C 0.57332 0.83759 0.93207 0.0
C348 C 0.61607 0.86837 0.92679 0.0
C349 C 0.63282 0.9105 0.93383 0.0
C350 C 0.61471 0.93776 0.0074 0.0
C351 C 0.57703 0.9207 0.02304 0.0
C352 C 0.56517 0.88907 0.04358 0.0
C353 C 0.59055 0.87356 0.0486 0.0
C354 C 0.62785 0.89017 0.03241 0.0
C355 C 0.63983 0.92203 0.01199 0.0
C356 C 0.64042 0.01952 0.02893 0.0
C357 C 0.6073 0.02199 0.03923 0.0
C358 C 0.59486 0.01293 0.06828 0.0
C359 C 0.61555 0.00148 0.08756 0.0
C360 C 0.65187 0.00396 0.07789 0.0
C361 C 0.66428 0.01303 0.04875 0.0
C362 C 0.6727 0.08987 0.98871 0.0
C363 C 0.65246 0.11087 0.98481 0.0
C364 C 0.67063 0.15163 0.9955 0.0
C365 C 0.70847 0.17157 0.01163 0.0
C366 C 0.72792 0.14967 0.0162 0.0
C367 C 0.71053 0.10955 0.00448 0.0
C368 C 0.60365 0.96209 0.8134 0.0
C369 C 0.57834 0.84034 0.07069 0.0
H370 H 0.45256 0.39337 0.97341 0.0
H371 H 0.6797 0.45244 0.26786 0.0
H372 H 0.4463 0.49312 0.10373 0.0
H373 H 0.42723 0.50897 0.05708 0.0
H374 H 0.55199 0.62377 0.05175 0.0
H375 H 0.5695 0.60852 0.09877 0.0
H376 H 0.47431 0.4269 0.09872 0.0
H377 H 0.45592 0.4008 0.04861 0.0
H378 H 0.55896 0.52162 0.01713 0.0
H379 H 0.57742 0.54701 0.06734 0.0
H380 H 0.54155 0.41445 0.14157 0.0
H381 H 0.59011 0.39416 0.12742 0.0
H382 H 0.6756 0.51878 0.09189 0.0
H383 H 0.62685 0.5379 0.10521 0.0
H384 H 0.51726 0.44314 0.20447 0.0
H385 H 0.54402 0.41655 0.24065 0.0
H386 H 0.67089 0.50462 0.20965 0.0
H387 H 0.64364 0.53067 0.17341 0.0
H388 H 0.49548 0.51317 0.21773 0.0
H389 H 0.50884 0.50593 0.26857 0.0
H390 H 0.64265 0.57694 0.25086 0.0
H391 H 0.62898 0.587 0.20095 0.0
H392 H 0.46437 0.55016 0.1584 0.0
H393 H 0.45937 0.61028 0.16836 0.0
H394 H 0.59453 0.69015 0.1796 0.0
H395 H 0.59927 0.62994 0.16944 0.0
O396 O 0.46092 0.40403 0.99307 0.0
O397 O 0.51367 0.46706 0.97801 0.0
O398 O 0.60214 0.41511 0.26715 0.0
O399 O 0.6682 0.46161 0.25325 0.0
C400 C 0.52553 0.53373 0.12636 0.0
C401 C 0.53584 0.50522 0.11696 0.0
C402 C 0.55617 0.49333 0.13607 0.0
C403 C 0.562 0.5059 0.16541 0.0
C404 C 0.55285 0.53535 0.17475 0.0
C405 C 0.53589 0.5504 0.15495 0.0
C406 C 0.50928 0.54968 0.10448 0.0
C407 C 0.46865 0.52263 0.09301 0.0
C408 C 0.45817 0.53138 0.06608 0.0
C409 C 0.48839 0.5671 0.05015 0.0
C410 C 0.52765 0.59611 0.06328 0.0
C411 C 0.53782 0.5876 0.09034 0.0
C412 C 0.52687 0.48892 0.08659 0.0
C413 C 0.49306 0.44752 0.08096 0.0
C414 C 0.48254 0.43278 0.05232 0.0
C415 C 0.50578 0.45923 0.02884 0.0
C416 C 0.54028 0.50049 0.03468 0.0
C417 C 0.55086 0.51509 0.06333 0.0
C418 C 0.58063 0.47741 0.12405 0.0
C419 C 0.57033 0.43677 0.13006 0.0
C420 C 0.59827 0.42551 0.12228 0.0
C421 C 0.63674 0.45489 0.10854 0.0
C422 C 0.64597 0.49507 0.10187 0.0
C423 C 0.61813 0.5061 0.10946 0.0
C424 C 0.5785 0.48875 0.18635 0.0
C425 C 0.55078 0.45641 0.20541 0.0
C426 C 0.56617 0.44137 0.22608 0.0
C427 C 0.60965 0.45867 0.22817 0.0
C428 C 0.63726 0.49071 0.20871 0.0
C429 C 0.6218 0.50554 0.18791 0.0
C430 C 0.5612 0.5493 0.20555 0.0
C431 C 0.52777 0.52951 0.22534 0.0
C432 C 0.53553 0.52476 0.25429 0.0
C433 C 0.57664 0.53869 0.26335 0.0
C434 C 0.61052 0.56515 0.2447 0.0
C435 C 0.60277 0.571 0.216 0.0
C436 C 0.53213 0.58568 0.16327 0.0
C437 C 0.49283 0.58059 0.16314 0.0
C438 C 0.4901 0.61498 0.16865 0.0
C439 C 0.52665 0.65496 0.17453 0.0
C440 C 0.56587 0.65968 0.17533 0.0
C441 C 0.56858 0.62534 0.16961 0.0
C442 C 0.49387 0.44383 -0.00158 0.0
C443 C 0.62625 0.44367 0.2507 0.0
Co444 Co 0.66256 0.44719 0.39671 0.0
O445 O 0.70814 0.4593 0.37163 0.0
O446 O 0.71138 0.50394 0.40414 0.0
C447 C 0.64777 0.38364 0.41065 0.0
O448 O 0.62092 0.44431 0.42638 0.0
Co449 Co 0.57235 0.36896 0.3829 0.0
O450 O 0.5589 0.3817 0.42143 0.0
C451 C 0.60669 0.44857 0.35014 0.0
C452 C 0.7302 0.49563 0.38432 0.0
C453 C 0.58263 0.4169 0.43439 0.0
O454 O 0.64009 0.46774 0.36613 0.0
O455 O 0.5783 0.40908 0.35218 0.0
O456 O 0.67721 0.41766 0.42369 0.0
O457 O 0.63064 0.38934 0.38856 0.0
Co458 Co 0.26344 0.64262 0.56218 0.0
O459 O 0.29899 0.63456 0.58709 0.0
O460 O 0.25333 0.58722 0.55568 0.0
C461 C 0.31604 0.70785 0.5477 0.0
O462 O 0.22278 0.64098 0.53202 0.0
Co463 Co 0.25229 0.71653 0.57345 0.0
O464 O 0.22797 0.70267 0.53372 0.0
C465 C 0.20573 0.63901 0.60946 0.0
C466 C 0.28299 0.59816 0.57479 0.0
C467 C 0.21437 0.66708 0.5219 0.0
O468 O 0.21827 0.62028 0.59333 0.0
O469 O 0.2186 0.67771 0.60621 0.0
O470 O 0.31059 0.67478 0.53495 0.0
O471 O 0.29167 0.70038 0.56953 0.0
Co472 Co 0.64326 0.24537 0.7287 0.0
O473 O 0.62925 0.27094 0.69897 0.0
O474 O 0.5882 0.23473 0.73633 0.0
C475 C 0.70891 0.30198 0.73646 0.0
O476 O 0.64801 0.21574 0.76407 0.0
Co477 Co 0.71589 0.23234 0.72046 0.0
O478 O 0.7124 0.2269 0.76341 0.0
C479 C 0.63354 0.1741 0.69187 0.0
C480 C 0.59441 0.25682 0.71303 0.0
C481 C 0.67809 0.21521 0.77639 0.0
O482 O 0.61796 0.19271 0.70438 0.0
O483 O 0.6721 0.18606 0.69456 0.0
O484 O 0.67688 0.29904 0.749 0.0
O485 O 0.70006 0.27244 0.71809 0.0
Co486 Co 0.41952 0.60046 0.8878 0.0
O487 O 0.391 0.62076 0.8667 0.0
O488 O 0.36044 0.5666 0.8972 0.0
C489 C 0.47217 0.66403 0.90289 0.0
O490 O 0.43903 0.57239 0.91483 0.0
Co491 Co 0.50773 0.62317 0.872 0.0
O492 O 0.50932 0.61473 0.9145 0.0
C493 C 0.43541 0.56249 0.83567 0.0
C494 C 0.3571 0.59151 0.87984 0.0
C495 C 0.47492 0.58859 0.92739 0.0
O496 O 0.4103 0.56253 0.85419 0.0
O497 O 0.47559 0.58567 0.83794 0.0
O498 O 0.43662 0.64338 0.91683 0.0
O499 O 0.47437 0.64688 0.87912 0.0
Co500 Co 0.80959 0.40627 0.07045 0.0
O501 O 0.76606 0.39392 0.09793 0.0
O502 O 0.79374 0.44538 0.06525 0.0
C503 C 0.78059 0.33994 0.05561 0.0
O504 O 0.85165 0.42725 0.0371 0.0
Co505 Co 0.8663 0.3728 0.07639 0.0
O506 O 0.87924 0.38862 0.03477 0.0
C507 C 0.877 0.43817 0.11686 0.0
C508 C 0.76607 0.42451 0.08554 0.0
C509 C 0.87205 0.41449 0.02351 0.0
O510 O 0.8538 0.44417 0.10008 0.0
O511 O 0.88343 0.40907 0.11228 0.0
O512 O 0.76765 0.36237 0.04505 0.0
O513 O 0.80818 0.35683 0.07639 0.0
Co514 Co 0.47326 0.82137 0.21842 0.0
O515 O 0.47016 0.78594 0.18743 0.0
O516 O 0.51585 0.80948 0.22394 0.0
C517 C 0.4037 0.78354 0.2274 0.0
O518 O 0.48427 0.8562 0.25518 0.0
Co519 Co 0.42973 0.86953 0.21448 0.0
O520 O 0.43344 0.86883 0.25752 0.0
C521 C 0.50968 0.90172 0.183 0.0
C522 C 0.50035 0.7862 0.20067 0.0
C523 C 0.46234 0.86667 0.26938 0.0
O524 O 0.51296 0.87307 0.19475 0.0
O525 O 0.47807 0.90448 0.18709 0.0
O526 O 0.42741 0.7723 0.2383 0.0
O527 O 0.42203 0.81519 0.20972 0.0
C528 C 0.29305 0.75803 0.23414 0.0
C529 C 0.27422 0.72275 0.25255 0.0
H530 H 0.34888 0.80486 0.21157 0.0
C531 C 0.29826 0.70761 0.26247 0.0
H532 H 0.27513 0.77015 0.22602 0.0
C533 C 0.34035 0.72744 0.25426 0.0
C534 C 0.35918 0.7627 0.23588 0.0
H535 H 0.28473 0.68085 0.27701 0.0
H536 H 0.35814 0.71517 0.2624 0.0
C537 C 0.33516 0.77776 0.2258 0.0
C538 C 0.64308 0.2957 0.45232 0.0
C539 C 0.61396 0.26026 0.43563 0.0
H540 H 0.6764 0.36261 0.45763 0.0
C541 C 0.59575 0.26585 0.41097 0.0
H542 H 0.65721 0.29235 0.47167 0.0
C543 C 0.60633 0.30589 0.40317 0.0
C544 C 0.63554 0.34127 0.41975 0.0
H545 H 0.57368 0.23931 0.39741 0.0
H546 H 0.59196 0.30913 0.38391 0.0
C547 C 0.6538 0.33585 0.44443 0.0
C548 C 0.35627 0.56804 0.60284 0.0
C549 C 0.34031 0.52881 0.58952 0.0
H550 H 0.35036 0.61997 0.6091 0.0
C551 C 0.30387 0.51141 0.57209 0.0
H552 H 0.38376 0.58199 0.61683 0.0
C553 C 0.28452 0.53333 0.56758 0.0
C554 C 0.30091 0.57283 0.58072 0.0
H555 H 0.29079 0.48122 0.5615 0.0
H556 H 0.25706 0.51959 0.55358 0.0
C557 C 0.33678 0.58963 0.59861 0.0
C558 C 0.82786 0.37178 0.73508 0.0
C559 C 0.83663 0.39868 0.75891 0.0
H560 H 0.78059 0.31999 0.70941 0.0
C561 C 0.80283 0.39412 0.7748 0.0
H562 H 0.85313 0.37486 0.72211 0.0
C563 C 0.76127 0.363 0.76728 0.0
C564 C 0.75269 0.33562 0.74388 0.0
H565 H 0.80844 0.41384 0.79355 0.0
H566 H 0.73591 0.35992 0.78015 0.0
C567 C 0.78632 0.34045 0.72773 0.0
C568 C 0.52892 0.76278 0.94733 0.0
C569 C 0.55505 0.79265 0.92631 0.0
H570 H 0.4825 0.6981 0.95631 0.0
C571 C 0.55931 0.77903 0.89892 0.0
H572 H 0.5259 0.77258 0.96882 0.0
C573 C 0.53457 0.73619 0.89177 0.0
C574 C 0.5054 0.70688 0.91196 0.0
H575 H 0.57944 0.80162 0.88244 0.0
H576 H 0.53609 0.72649 0.86988 0.0
C577 C 0.50422 0.72025 0.94019 0.0
C578 C 0.67648 0.42259 0.12236 0.0
C579 C 0.66843 0.44505 0.10225 0.0
H580 H 0.71419 0.39869 0.13294 0.0
C581 C 0.69281 0.46051 0.07679 0.0
H582 H 0.65868 0.41083 0.1424 0.0
C583 C 0.72522 0.45469 0.07188 0.0
C584 C 0.73343 0.43253 0.09201 0.0
H585 H 0.68689 0.4772 0.06058 0.0
H586 H 0.74335 0.46695 0.052 0.0
C587 C 0.70857 0.41612 0.11717 0.0
C588 C 0.38129 0.82664 0.54505 0.0
C589 C 0.40754 0.8352 0.52096 0.0
H590 H 0.33198 0.78 0.57218 0.0
C591 C 0.40372 0.80129 0.50562 0.0
H592 H 0.3839 0.85202 0.55763 0.0
C593 C 0.37384 0.75967 0.51409 0.0
C594 C 0.34743 0.75136 0.53806 0.0
H595 H 0.4233 0.80689 0.48682 0.0
H596 H 0.37137 0.7341 0.50186 0.0
C597 C 0.3516 0.78529 0.55346 0.0
C598 C 0.52099 0.29387 0.71601 0.0
C599 C 0.52025 0.30363 0.68665 0.0
H600 H 0.54419 0.26979 0.74738 0.0
C601 C 0.54075 0.29429 0.66581 0.0
H602 H 0.50539 0.30099 0.73239 0.0
C603 C 0.56355 0.27743 0.67437 0.0
C604 C 0.56532 0.26864 0.70382 0.0
H605 H 0.54072 0.30184 0.64307 0.0
H606 H 0.58071 0.27227 0.65806 0.0
C607 C 0.54291 0.27588 0.7245 0.0
C608 C 0.27604 0.60951 0.85065 0.0
C609 C 0.24132 0.58327 0.86865 0.0
H610 H 0.33975 0.63231 0.83996 0.0
C611 C 0.24513 0.56003 0.89067 0.0
H612 H 0.27383 0.62714 0.83313 0.0
C613 C 0.28268 0.56232 0.8942 0.0
C614 C 0.31712 0.58818 0.87594 0.0
H615 H 0.219 0.53985 0.90505 0.0
H616 H 0.28475 0.54401 0.91127 0.0
C617 C 0.31363 0.61205 0.85434 0.0
C618 C 0.70145 0.22898 0.03131 0.0
C619 C 0.7273 0.21473 0.02376 0.0
H620 H 0.69851 0.28025 0.04668 0.0
C621 C 0.77125 0.24229 0.02776 0.0
H622 H 0.66748 0.20864 0.0296 0.0
C623 C 0.78867 0.28271 0.03907 0.0
C624 C 0.76269 0.29687 0.04548 0.0
H625 H 0.79251 0.23317 0.0217 0.0
H626 H 0.82249 0.3033 0.04189 0.0
C627 C 0.71908 0.26989 0.04147 0.0
C628 C 0.49786 0.6979 0.16165 0.0
C629 C 0.52368 0.69157 0.17956 0.0
H630 H 0.47106 0.73346 0.15389 0.0
C631 C 0.54545 0.71959 0.20275 0.0
H632 H 0.48141 0.67733 0.14325 0.0
C633 C 0.5397 0.75199 0.20881 0.0
C634 C 0.51222 0.75697 0.19171 0.0
H635 H 0.56556 0.71541 0.21692 0.0
H636 H 0.55544 0.772 0.22757 0.0
C637 C 0.49226 0.73031 0.16761 0.0
C638 C 0.83091 0.54843 0.34164 0.0
C639 C 0.8608 0.55908 0.36369 0.0
H640 H 0.76571 0.51995 0.33115 0.0
C641 C 0.84796 0.55357 0.39296 0.0
H642 H 0.83992 0.55212 0.31892 0.0
C643 C 0.80559 0.53637 0.39996 0.0
C644 C 0.77546 0.52352 0.37776 0.0
H645 H 0.87047 0.56163 0.41032 0.0
H646 H 0.79596 0.53055 0.42257 0.0
C647 C 0.78857 0.53027 0.34861 0.0
C648 C 0.12377 0.60235 0.46891 0.0
C649 C 0.12583 0.63401 0.45172 0.0
H650 H 0.15053 0.58779 0.50426 0.0
C651 C 0.15869 0.67619 0.45707 0.0
H652 H 0.09892 0.56953 0.46558 0.0
C653 C 0.18786 0.68653 0.47932 0.0
C654 C 0.18551 0.65502 0.49668 0.0
H655 H 0.1625 0.70145 0.44376 0.0
H656 H 0.21244 0.71941 0.48291 0.0
C657 C 0.15345 0.61274 0.49103 0.0
C658 C 0.5556 0.1097 0.63232 0.0
C659 C 0.56432 0.07891 0.62685 0.0
H660 H 0.57037 0.1636 0.65741 0.0
C661 C 0.59209 0.07666 0.64572 0.0
H662 H 0.5351 0.11319 0.6181 0.0
C663 C 0.61341 0.10666 0.6677 0.0
C664 C 0.60651 0.13881 0.67184 0.0
H665 H 0.59884 0.05285 0.64275 0.0
H666 H 0.6362 0.10542 0.68095 0.0
C667 C 0.57615 0.13902 0.65476 0.0
C668 C 0.39139 0.53426 0.75984 0.0
C669 C 0.39232 0.49867 0.75418 0.0
H670 H 0.40363 0.58182 0.79092 0.0
C671 C 0.40367 0.48174 0.77659 0.0
H672 H 0.38305 0.54796 0.74279 0.0
C673 C 0.41668 0.50177 0.80366 0.0
C674 C 0.41722 0.5382 0.80884 0.0
H675 H 0.40494 0.45452 0.7726 0.0
H676 H 0.42741 0.48959 0.8202 0.0
C677 C 0.40327 0.55359 0.78717 0.0
C678 C 0.88553 0.46482 0.9495 0.0
C679 C 0.90897 0.45244 0.9344 0.0
H680 H 0.85564 0.46281 0.98947 0.0
C681 C 0.92122 0.42862 0.94914 0.0
H682 H 0.87568 0.48323 0.93876 0.0
C683 C 0.9099 0.417 0.97815 0.0
C684 C 0.88617 0.42905 0.99325 0.0
H685 H 0.94031 0.41955 0.93841 0.0
H686 H 0.91979 0.39849 0.98869 0.0
C687 C 0.8742 0.45321 0.9786 0.0
C688 C 0.57304 0.99376 0.13183 0.0
C689 C 0.59526 0.98085 0.11567 0.0
H690 H 0.52857 0.9789 0.16588 0.0
C691 C 0.59298 0.94428 0.12433 0.0
H692 H 0.57466 0.02211 0.12608 0.0
C693 C 0.56707 0.91986 0.14742 0.0
C694 C 0.54242 0.93115 0.1621 0.0
H695 H 0.60905 0.93292 0.11213 0.0
H696 H 0.56443 0.8908 0.15256 0.0
C697 C 0.54668 0.96903 0.15467 0.0
C698 C 0.62021 0.53884 0.30501 0.0
C699 C 0.58296 0.51792 0.28829 0.0
H700 H 0.65733 0.53346 0.33758 0.0
C701 C 0.55365 0.47459 0.29279 0.0
H702 H 0.64346 0.57221 0.30218 0.0
C703 C 0.5616 0.45255 0.31279 0.0
C704 C 0.59917 0.47303 0.32902 0.0
H705 H 0.52517 0.45686 0.27986 0.0
H706 H 0.53831 0.41907 0.31507 0.0
C707 C 0.62823 0.51661 0.32522 0.0
C708 C 0.44794 0.88234 0.34834 0.0
C709 C 0.48966 0.91213 0.35728 0.0
H710 H 0.40675 0.84509 0.3133 0.0
C711 C 0.52267 0.92323 0.33762 0.0
H712 H 0.42173 0.87193 0.36301 0.0
C713 C 0.51399 0.9065 0.30942 0.0
C714 C 0.47217 0.87925 0.30013 0.0
H715 H 0.55518 0.94644 0.3434 0.0
H716 H 0.53982 0.91678 0.29439 0.0
C717 C 0.43928 0.86664 0.31995 0.0
C718 C 0.50318 0.40416 0.48983 0.0
C719 C 0.51961 0.44589 0.49849 0.0
H720 H 0.51047 0.36239 0.4638 0.0
C721 C 0.55854 0.47826 0.48676 0.0
H722 H 0.4741 0.37808 0.49891 0.0
C723 C 0.5801 0.46901 0.46671 0.0
C724 C 0.56309 0.42722 0.4579 0.0
H725 H 0.57222 0.5108 0.49282 0.0
H726 H 0.6095 0.49465 0.45761 0.0
C727 C 0.5245 0.39501 0.46988 0.0
C728 C 0.13488 0.61642 0.67404 0.0
C729 C 0.10889 0.57221 0.67442 0.0
H730 H 0.1858 0.67166 0.65403 0.0
C731 C 0.11611 0.54962 0.65371 0.0
H732 H 0.13149 0.63503 0.69019 0.0
C733 C 0.14821 0.57096 0.63287 0.0
C734 C 0.17362 0.61525 0.6324 0.0
H735 H 0.09682 0.51552 0.65347 0.0
H736 H 0.15262 0.55283 0.6169 0.0
C737 C 0.1666 0.63755 0.65339 0.0
C738 C 0.62883 0.13621 0.83739 0.0
C739 C 0.66326 0.15082 0.85652 0.0
H740 H 0.6063 0.14584 0.79739 0.0
C741 C 0.70115 0.18951 0.85031 0.0
H742 H 0.5993 0.10632 0.84094 0.0
C743 C 0.70536 0.21141 0.8248 0.0
C744 C 0.67145 0.19583 0.80532 0.0
H745 H 0.72801 0.2026 0.8648 0.0
H746 H 0.73548 0.24017 0.81997 0.0
C747 C 0.63276 0.15877 0.81227 0.0
C748 C 0.49979 0.6124 0.0069 0.0
C749 C 0.48112 0.57203 0.01902 0.0
H750 H 0.5132 0.64885 0.96819 0.0
C751 C 0.45864 0.5366 0.00053 0.0
H752 H 0.51639 0.64036 0.0204 0.0
C753 C 0.45567 0.5416 0.97064 0.0
C754 C 0.47626 0.58205 0.95869 0.0
H755 H 0.44454 0.50501 0.00887 0.0
H756 H 0.43859 0.51403 0.95676 0.0
C757 C 0.49793 0.61733 0.97701 0.0
C758 C 0.93646 0.48138 0.18804 0.0
C759 C 0.9251 0.50907 0.19684 0.0
H760 H 0.93091 0.43801 0.156 0.0
C761 C 0.8995 0.51505 0.17834 0.0
H762 H 0.95717 0.477 0.20136 0.0
C763 C 0.88463 0.49286 0.15199 0.0
C764 C 0.89529 0.46442 0.14353 0.0
H765 H 0.89039 0.53632 0.18447 0.0
H766 H 0.8642 0.49748 0.13854 0.0
C767 C 0.92174 0.45935 0.16179 0.0
loop_
_geom_bond_atom_site_label_1
_geom_bond_atom_site_label_2
_geom_bond_distance
_geom_bond_site_symmetry_2
_ccdc_geom_bond_type
H0 O26 0.856 . S
H1 O29 0.854 . S
H2 C37 0.930 1_455 S
H3 C38 0.930 . S
H4 C40 0.930 . S
H5 C41 0.930 . S
H6 C43 0.931 . S
H7 C44 0.930 . S
H8 C46 0.930 . S
H9 C47 0.929 . S
H10 C49 0.930 . S
H11 C50 0.931 . S
H12 C52 0.930 . S
H13 C53 0.929 . S
H14 C55 0.931 . S
H15 C56 0.930 . S
H16 C58 0.930 . S
H17 C59 0.932 . S
H18 C61 0.930 . S
H19 C62 0.929 . S
H20 C64 0.931 . S
H21 C65 0.930 . S
H22 C67 0.929 . S
H23 C68 0.931 . S
H24 C70 0.930 . S
H25 C71 0.929 1_455 S
O26 H0 0.856 . S
O26 C72 1.300 . S
O27 C72 1.209 . S
O28 C73 1.199 . S
O29 H1 0.854 . S
O29 C73 1.297 . S
C30 C31 1.404 . S
C30 C35 1.397 . S
C30 C36 1.492 . S
C31 C30 1.404 . S
C31 C32 1.396 . S
C31 C42 1.492 . S
C32 C31 1.396 . S
C32 C33 1.397 . S
C32 C48 1.509 . S
C33 C32 1.397 . S
C33 C34 1.412 . S
C33 C54 1.485 . S
C34 C33 1.412 . S
C34 C35 1.388 . S
C34 C60 1.490 . S
C35 C30 1.397 . S
C35 C34 1.388 . S
C35 C66 1.519 1_455 S
C36 C30 1.492 . S
C36 C37 1.363 1_455 S
C36 C41 1.390 1_455 S
C37 H2 0.930 1_655 S
C37 C36 1.363 1_655 S
C37 C38 1.372 . S
C38 H3 0.930 . S
C38 C37 1.372 . S
C38 C39 1.383 . S
C39 C38 1.383 . S
C39 C40 1.395 . S
C40 H4 0.930 . S
C40 C39 1.395 . S
C40 C41 1.362 . S
C41 H5 0.930 . S
C41 C36 1.390 1_655 S
C41 C40 1.362 . S
C42 C31 1.492 . S
C42 C43 1.377 . S
C42 C47 1.397 . S
C43 H6 0.931 . S
C43 C42 1.377 . S
C43 C44 1.376 . S
C44 H7 0.930 . S
C44 C43 1.376 . S
C44 C45 1.376 . S
C45 C44 1.376 . S
C45 C46 1.378 . S
C45 C72 1.486 . S
C46 H8 0.930 . S
C46 C45 1.378 . S
C46 C47 1.376 . S
C47 H9 0.929 . S
C47 C42 1.397 . S
C47 C46 1.376 . S
C48 C32 1.509 . S
C48 C49 1.391 . S
C48 C53 1.386 . S
C49 H10 0.930 . S
C49 C48 1.391 . S
C49 C50 1.375 . S
C50 H11 0.931 . S
C50 C49 1.375 . S
C50 C51 1.375 . S
C51 C50 1.375 . S
C51 C52 1.361 . S
C52 H12 0.930 . S
C52 C51 1.361 . S
C52 C53 1.399 . S
C53 H13 0.929 . S
C53 C48 1.386 . S
C53 C52 1.399 . S
C54 C33 1.485 . S
C54 C55 1.394 . S
C54 C59 1.360 . S
C55 H14 0.931 . S
C55 C54 1.394 . S
C55 C56 1.372 . S
C56 H15 0.930 . S
C56 C55 1.372 . S
C56 C57 1.397 . S
C57 C56 1.397 . S
C57 C58 1.390 . S
C57 C73 1.476 . S
C58 H16 0.930 . S
C58 C57 1.390 . S
C58 C59 1.366 . S
C59 H17 0.932 . S
C59 C54 1.360 . S
C59 C58 1.366 . S
C60 C34 1.490 . S
C60 C61 1.380 . S
C60 C65 1.386 . S
C61 H18 0.930 . S
C61 C60 1.380 . S
C61 C62 1.381 . S
C62 H19 0.929 . S
C62 C61 1.381 . S
C62 C63 1.371 . S
C63 C62 1.371 . S
C63 C64 1.380 . S
C64 H20 0.931 . S
C64 C63 1.380 . S
C64 C65 1.387 . S
C65 H21 0.930 . S
C65 C60 1.386 . S
C65 C64 1.387 . S
C66 C35 1.519 1_655 S
C66 C67 1.377 . S
C66 C71 1.361 . S
C67 H22 0.929 . S
C67 C66 1.377 . S
C67 C68 1.386 . S
C68 H23 0.931 . S
C68 C67 1.386 . S
C68 C69 1.363 . S
C69 C68 1.363 . S
C69 C70 1.385 . S
C70 H24 0.930 . S
C70 C69 1.385 . S
C70 C71 1.396 . S
C71 H25 0.929 1_655 S
C71 C66 1.361 . S
C71 C70 1.396 . S
C72 O26 1.300 . S
C72 O27 1.209 . S
C72 C45 1.486 . S
C73 O28 1.199 . S
C73 O29 1.297 . S
C73 C57 1.476 . S
H74 O100 0.856 . S
H75 O103 0.854 . S
H76 C111 0.930 . S
H77 C112 0.930 . S
H78 C114 0.930 . S
H79 C115 0.930 . S
H80 C117 0.931 . S
H81 C118 0.930 . S
H82 C120 0.930 . S
H83 C121 0.929 . S
H84 C123 0.930 . S
H85 C124 0.931 . S
H86 C126 0.930 . S
H87 C127 0.929 . S
H88 C129 0.931 . S
H89 C130 0.930 . S
H90 C132 0.930 . S
H91 C133 0.932 . S
H92 C135 0.930 . S
H93 C136 0.929 . S
H94 C138 0.931 . S
H95 C139 0.930 . S
H96 C141 0.929 . S
H97 C142 0.931 . S
H98 C144 0.930 . S
H99 C145 0.929 1_545 S
O100 H74 0.856 . S
O100 C146 1.300 . S
O101 C146 1.209 . S
O102 C147 1.199 . S
O103 H75 0.854 . S
O103 C147 1.297 . S
C104 C105 1.404 . S
C104 C109 1.397 . S
C104 C110 1.492 . S
C105 C104 1.404 . S
C105 C106 1.396 . S
C105 C116 1.492 . S
C106 C105 1.396 . S
C106 C107 1.397 . S
C106 C122 1.509 . S
C107 C106 1.397 . S
C107 C108 1.412 . S
C107 C128 1.485 . S
C108 C107 1.412 . S
C108 C109 1.388 . S
C108 C134 1.490 . S
C109 C104 1.397 . S
C109 C108 1.388 . S
C109 C140 1.519 . S
C110 C104 1.492 . S
C110 C111 1.363 . S
C110 C115 1.390 1_545 S
C111 H76 0.930 . S
C111 C110 1.363 . S
C111 C112 1.372 1_545 S
C112 H77 0.930 . S
C112 C111 1.372 1_565 S
C112 C113 1.383 . S
C113 C112 1.383 . S
C113 C114 1.395 . S
C114 H78 0.930 . S
C114 C113 1.395 . S
C114 C115 1.362 . S
C115 H79 0.930 . S
C115 C110 1.390 1_565 S
C115 C114 1.362 . S
C116 C105 1.492 . S
C116 C117 1.377 . S
C116 C121 1.397 . S
C117 H80 0.931 . S
C117 C116 1.377 . S
C117 C118 1.376 . S
C118 H81 0.930 . S
C118 C117 1.376 . S
C118 C119 1.376 . S
C119 C118 1.376 . S
C119 C120 1.378 . S
C119 C146 1.486 . S
C120 H82 0.930 . S
C120 C119 1.378 . S
C120 C121 1.376 . S
C121 H83 0.929 . S
C121 C116 1.397 . S
C121 C120 1.376 . S
C122 C106 1.509 . S
C122 C123 1.391 . S
C122 C127 1.386 . S
C123 H84 0.930 . S
C123 C122 1.391 . S
C123 C124 1.375 . S
C124 H85 0.931 . S
C124 C123 1.375 . S
C124 C125 1.375 . S
C125 C124 1.375 . S
C125 C126 1.361 . S
C126 H86 0.930 . S
C126 C125 1.361 . S
C126 C127 1.399 . S
C127 H87 0.929 . S
C127 C122 1.386 . S
C127 C126 1.399 . S
C128 C107 1.485 . S
C128 C129 1.394 . S
C128 C133 1.360 . S
C129 H88 0.931 . S
C129 C128 1.394 . S
C129 C130 1.372 . S
C130 H89 0.930 . S
C130 C129 1.372 . S
C130 C131 1.397 . S
C131 C130 1.397 . S
C131 C132 1.390 . S
C131 C147 1.476 . S
C132 H90 0.930 . S
C132 C131 1.390 . S
C132 C133 1.366 . S
C133 H91 0.932 . S
C133 C128 1.360 . S
C133 C132 1.366 . S
C134 C108 1.490 . S
C134 C135 1.380 . S
C134 C139 1.386 . S
C135 H92 0.930 . S
C135 C134 1.380 . S
C135 C136 1.381 . S
C136 H93 0.929 . S
C136 C135 1.381 . S
C136 C137 1.371 . S
C137 C136 1.371 . S
C137 C138 1.380 . S
C138 H94 0.931 . S
C138 C137 1.380 . S
C138 C139 1.387 . S
C139 H95 0.930 . S
C139 C134 1.386 . S
C139 C138 1.387 . S
C140 C109 1.519 . S
C140 C141 1.377 1_545 S
C140 C145 1.361 1_545 S
C141 H96 0.929 . S
C141 C140 1.377 1_565 S
C141 C142 1.386 . S
C142 H97 0.931 . S
C142 C141 1.386 . S
C142 C143 1.363 . S
C143 C142 1.363 . S
C143 C144 1.385 . S
C144 H98 0.930 . S
C144 C143 1.385 . S
C144 C145 1.396 . S
C145 H99 0.929 1_565 S
C145 C140 1.361 1_565 S
C145 C144 1.396 . S
C146 O100 1.300 . S
C146 O101 1.209 . S
C146 C119 1.486 . S
C147 O102 1.199 . S
C147 O103 1.297 . S
C147 C131 1.476 . S
H148 O174 0.856 . S
H149 O177 0.854 . S
H150 C185 0.930 . S
H151 C186 0.930 . S
H152 C188 0.930 . S
H153 C189 0.930 . S
H154 C191 0.931 . S
H155 C192 0.930 . S
H156 C194 0.930 . S
H157 C195 0.929 . S
H158 C197 0.930 . S
H159 C198 0.931 . S
H160 C200 0.930 . S
H161 C201 0.929 . S
H162 C203 0.931 . S
H163 C204 0.930 . S
H164 C206 0.930 . S
H165 C207 0.932 . S
H166 C209 0.930 . S
H167 C210 0.929 . S
H168 C212 0.931 . S
H169 C213 0.930 . S
H170 C215 0.929 . S
H171 C216 0.931 . S
H172 C218 0.930 . S
H173 C219 0.929 . S
O174 H148 0.856 . S
O174 C220 1.300 . S
O175 C220 1.209 . S
O176 C221 1.199 . S
O177 H149 0.854 . S
O177 C221 1.297 . S
C178 C179 1.404 . S
C178 C183 1.397 . S
C178 C184 1.492 . S
C179 C178 1.404 . S
C179 C180 1.396 . S
C179 C190 1.492 . S
C180 C179 1.396 . S
C180 C181 1.397 . S
C180 C196 1.509 . S
C181 C180 1.397 . S
C181 C182 1.412 . S
C181 C202 1.485 . S
C182 C181 1.412 . S
C182 C183 1.388 . S
C182 C208 1.490 . S
C183 C178 1.397 . S
C183 C182 1.388 . S
C183 C214 1.519 . S
C184 C178 1.492 . S
C184 C185 1.363 . S
C184 C189 1.390 . S
C185 H150 0.930 . S
C185 C184 1.363 . S
C185 C186 1.372 . S
C186 H151 0.930 . S
C186 C185 1.372 . S
C186 C187 1.383 . S
C187 C186 1.383 . S
C187 C188 1.395 . S
C188 H152 0.930 . S
C188 C187 1.395 . S
C188 C189 1.362 . S
C189 H153 0.930 . S
C189 C184 1.390 . S
C189 C188 1.362 . S
C190 C179 1.492 . S
C190 C191 1.377 . S
C190 C195 1.397 . S
C191 H154 0.931 . S
C191 C190 1.377 . S
C191 C192 1.376 . S
C192 H155 0.930 . S
C192 C191 1.376 . S
C192 C193 1.376 . S
C193 C192 1.376 . S
C193 C194 1.378 . S
C193 C220 1.486 . S
C194 H156 0.930 . S
C194 C193 1.378 . S
C194 C195 1.376 . S
C195 H157 0.929 . S
C195 C190 1.397 . S
C195 C194 1.376 . S
C196 C180 1.509 . S
C196 C197 1.391 . S
C196 C201 1.386 . S
C197 H158 0.930 . S
C197 C196 1.391 . S
C197 C198 1.375 . S
C198 H159 0.931 . S
C198 C197 1.375 . S
C198 C199 1.375 . S
C199 C198 1.375 . S
C199 C200 1.361 . S
C200 H160 0.930 . S
C200 C199 1.361 . S
C200 C201 1.399 . S
C201 H161 0.929 . S
C201 C196 1.386 . S
C201 C200 1.399 . S
C202 C181 1.485 . S
C202 C203 1.394 . S
C202 C207 1.360 . S
C203 H162 0.931 . S
C203 C202 1.394 . S
C203 C204 1.372 . S
C204 H163 0.930 . S
C204 C203 1.372 . S
C204 C205 1.397 . S
C205 C204 1.397 . S
C205 C206 1.390 . S
C205 C221 1.476 . S
C206 H164 0.930 . S
C206 C205 1.390 . S
C206 C207 1.366 . S
C207 H165 0.932 . S
C207 C202 1.360 . S
C207 C206 1.366 . S
C208 C182 1.490 . S
C208 C209 1.380 . S
C208 C213 1.386 . S
C209 H166 0.930 . S
C209 C208 1.380 . S
C209 C210 1.381 . S
C210 H167 0.929 . S
C210 C209 1.381 . S
C210 C211 1.371 . S
C211 C210 1.371 . S
C211 C212 1.380 . S
C212 H168 0.931 . S
C212 C211 1.380 . S
C212 C213 1.387 . S
C213 H169 0.930 . S
C213 C208 1.386 . S
C213 C212 1.387 . S
C214 C183 1.519 . S
C214 C215 1.377 . S
C214 C219 1.361 . S
C215 H170 0.929 . S
C215 C214 1.377 . S
C215 C216 1.386 . S
C216 H171 0.931 . S
C216 C215 1.386 . S
C216 C217 1.363 . S
C217 C216 1.363 . S
C217 C218 1.385 . S
C218 H172 0.930 . S
C218 C217 1.385 . S
C218 C219 1.396 . S
C219 H173 0.929 . S
C219 C214 1.361 . S
C219 C218 1.396 . S
C220 O174 1.300 . S
C220 O175 1.209 . S
C220 C193 1.486 . S
C221 O176 1.199 . S
C221 O177 1.297 . S
C221 C205 1.476 . S
H222 O248 0.856 1_554 S
H223 O251 0.854 . S
H224 C259 0.930 1_455 S
H225 C260 0.930 . S
H226 C262 0.930 . S
H227 C263 0.930 . S
H228 C265 0.931 . S
H229 C266 0.930 . S
H230 C268 0.930 . S
H231 C269 0.929 . S
H232 C271 0.930 . S
H233 C272 0.931 . S
H234 C274 0.930 . S
H235 C275 0.929 . S
H236 C277 0.931 . S
H237 C278 0.930 . S
H238 C280 0.930 . S
H239 C281 0.932 . S
H240 C283 0.930 . S
H241 C284 0.929 . S
H242 C286 0.931 . S
H243 C287 0.930 . S
H244 C289 0.929 . S
H245 C290 0.931 . S
H246 C292 0.930 . S
H247 C293 0.929 . S
O248 H222 0.856 1_556 S
O248 C294 1.300 . S
O249 C294 1.209 . S
O250 C295 1.199 . S
O251 H223 0.854 . S
O251 C295 1.297 . S
C252 C253 1.404 . S
C252 C257 1.397 . S
C252 C258 1.492 1_455 S
C253 C252 1.404 . S
C253 C254 1.396 . S
C253 C264 1.492 . S
C254 C253 1.396 . S
C254 C255 1.397 . S
C254 C270 1.509 . S
C255 C254 1.397 . S
C255 C256 1.412 . S
C255 C276 1.485 . S
C256 C255 1.412 . S
C256 C257 1.388 . S
C256 C282 1.490 . S
C257 C252 1.397 . S
C257 C256 1.388 . S
C257 C288 1.519 1_455 S
C258 C252 1.492 1_655 S
C258 C259 1.363 . S
C258 C263 1.390 . S
C259 H224 0.930 1_655 S
C259 C258 1.363 . S
C259 C260 1.372 . S
C260 H225 0.930 . S
C260 C259 1.372 . S
C260 C261 1.383 . S
C261 C260 1.383 . S
C261 C262 1.395 . S
C262 H226 0.930 . S
C262 C261 1.395 . S
C262 C263 1.362 . S
C263 H227 0.930 . S
C263 C258 1.390 . S
C263 C262 1.362 . S
C264 C253 1.492 . S
C264 C265 1.377 . S
C264 C269 1.397 . S
C265 H228 0.931 . S
C265 C264 1.377 . S
C265 C266 1.376 . S
C266 H229 0.930 . S
C266 C265 1.376 . S
C266 C267 1.376 . S
C267 C266 1.376 . S
C267 C268 1.378 . S
C267 C294 1.486 . S
C268 H230 0.930 . S
C268 C267 1.378 . S
C268 C269 1.376 . S
C269 H231 0.929 . S
C269 C264 1.397 . S
C269 C268 1.376 . S
C270 C254 1.509 . S
C270 C271 1.391 . S
C270 C275 1.386 . S
C271 H232 0.930 . S
C271 C270 1.391 . S
C271 C272 1.375 . S
C272 H233 0.931 . S
C272 C271 1.375 . S
C272 C273 1.375 . S
C273 C272 1.375 . S
C273 C274 1.361 . S
C274 H234 0.930 . S
C274 C273 1.361 . S
C274 C275 1.399 . S
C275 H235 0.929 . S
C275 C270 1.386 . S
C275 C274 1.399 . S
C276 C255 1.485 . S
C276 C277 1.394 . S
C276 C281 1.360 . S
C277 H236 0.931 . S
C277 C276 1.394 . S
C277 C278 1.372 . S
C278 H237 0.930 . S
C278 C277 1.372 . S
C278 C279 1.397 . S
C279 C278 1.397 . S
C279 C280 1.390 . S
C279 C295 1.476 . S
C280 H238 0.930 . S
C280 C279 1.390 . S
C280 C281 1.366 . S
C281 H239 0.932 . S
C281 C276 1.360 . S
C281 C280 1.366 . S
C282 C256 1.490 . S
C282 C283 1.380 . S
C282 C287 1.386 . S
C283 H240 0.930 . S
C283 C282 1.380 . S
C283 C284 1.381 . S
C284 H241 0.929 . S
C284 C283 1.381 . S
C284 C285 1.371 . S
C285 C284 1.371 . S
C285 C286 1.380 . S
C286 H242 0.931 . S
C286 C285 1.380 . S
C286 C287 1.387 . S
C287 H243 0.930 . S
C287 C282 1.386 . S
C287 C286 1.387 . S
C288 C257 1.519 1_655 S
C288 C289 1.377 . S
C288 C293 1.361 . S
C289 H244 0.929 . S
C289 C288 1.377 . S
C289 C290 1.386 . S
C290 H245 0.931 . S
C290 C289 1.386 . S
C290 C291 1.363 . S
C291 C290 1.363 . S
C291 C292 1.385 . S
C292 H246 0.930 . S
C292 C291 1.385 . S
C292 C293 1.396 . S
C293 H247 0.929 . S
C293 C288 1.361 . S
C293 C292 1.396 . S
C294 O248 1.300 . S
C294 O249 1.209 . S
C294 C267 1.486 . S
C295 O250 1.199 . S
C295 O251 1.297 . S
C295 C279 1.476 . S
H296 O322 0.856 . S
H297 O325 0.854 . S
H298 C333 0.930 . S
H299 C334 0.930 . S
H300 C336 0.930 . S
H301 C337 0.930 . S
H302 C339 0.931 . S
H303 C340 0.930 . S
H304 C342 0.930 . S
H305 C343 0.929 1_545 S
H306 C345 0.930 . S
H307 C346 0.931 . S
H308 C348 0.930 . S
H309 C349 0.929 . S
H310 C351 0.931 . S
H311 C352 0.930 . S
H312 C354 0.930 . S
H313 C355 0.932 . S
H314 C357 0.930 . S
H315 C358 0.929 . S
H316 C360 0.931 . S
H317 C361 0.930 . S
H318 C363 0.929 . S
H319 C364 0.931 . S
H320 C366 0.930 . S
H321 C367 0.929 . S
O322 H296 0.856 . S
O322 C368 1.300 . S
O323 C368 1.209 . S
O324 C369 1.199 . S
O325 H297 0.854 . S
O325 C369 1.297 . S
C326 C327 1.404 1_545 S
C326 C331 1.397 . S
C326 C332 1.492 . S
C327 C326 1.404 1_565 S
C327 C328 1.396 . S
C327 C338 1.492 . S
C328 C327 1.396 . S
C328 C329 1.397 . S
C328 C344 1.509 . S
C329 C328 1.397 . S
C329 C330 1.412 1_556 S
C329 C350 1.485 1_556 S
C330 C329 1.412 1_554 S
C330 C331 1.388 1_564 S
C330 C356 1.490 . S
C331 C326 1.397 . S
C331 C330 1.388 1_546 S
C331 C362 1.520 1_556 S
C332 C326 1.492 . S
C332 C333 1.363 . S
C332 C337 1.390 . S
C333 H298 0.930 . S
C333 C332 1.363 . S
C333 C334 1.372 . S
C334 H299 0.930 . S
C334 C333 1.372 . S
C334 C335 1.383 . S
C335 C334 1.383 . S
C335 C336 1.395 . S
C336 H300 0.930 . S
C336 C335 1.395 . S
C336 C337 1.362 . S
C337 H301 0.930 . S
C337 C332 1.390 . S
C337 C336 1.362 . S
C338 C327 1.492 . S
C338 C339 1.377 . S
C338 C343 1.397 . S
C339 H302 0.931 . S
C339 C338 1.377 . S
C339 C340 1.376 . S
C340 H303 0.930 . S
C340 C339 1.376 . S
C340 C341 1.376 . S
C341 C340 1.376 . S
C341 C342 1.378 . S
C341 C368 1.486 . S
C342 H304 0.930 . S
C342 C341 1.378 . S
C342 C343 1.376 . S
C343 H305 0.929 1_565 S
C343 C338 1.397 . S
C343 C342 1.376 . S
C344 C328 1.509 . S
C344 C345 1.391 . S
C344 C349 1.386 . S
C345 H306 0.930 . S
C345 C344 1.391 . S
C345 C346 1.375 . S
C346 H307 0.931 . S
C346 C345 1.375 . S
C346 C347 1.375 . S
C347 C346 1.375 . S
C347 C348 1.361 . S
C348 H308 0.930 . S
C348 C347 1.361 . S
C348 C349 1.399 . S
C349 H309 0.929 . S
C349 C344 1.386 . S
C349 C348 1.399 . S
C350 C329 1.485 1_554 S
C350 C351 1.394 . S
C350 C355 1.360 . S
C351 H310 0.931 . S
C351 C350 1.394 . S
C351 C352 1.372 . S
C352 H311 0.930 . S
C352 C351 1.372 . S
C352 C353 1.397 . S
C353 C352 1.397 . S
C353 C354 1.390 . S
C353 C369 1.476 . S
C354 H312 0.930 . S
C354 C353 1.390 . S
C354 C355 1.366 . S
C355 H313 0.932 . S
C355 C350 1.360 . S
C355 C354 1.366 . S
C356 C330 1.490 . S
C356 C357 1.380 1_565 S
C356 C361 1.386 . S
C357 H314 0.930 . S
C357 C356 1.380 1_545 S
C357 C358 1.381 . S
C358 H315 0.929 . S
C358 C357 1.381 . S
C358 C359 1.371 . S
C359 C358 1.371 . S
C359 C360 1.380 1_545 S
C360 H316 0.931 . S
C360 C359 1.380 1_565 S
C360 C361 1.387 . S
C361 H317 0.930 . S
C361 C356 1.386 . S
C361 C360 1.387 . S
C362 C331 1.520 1_554 S
C362 C363 1.377 1_554 S
C362 C367 1.360 . S
C363 H318 0.929 . S
C363 C362 1.377 1_556 S
C363 C364 1.386 1_556 S
C364 H319 0.931 . S
C364 C363 1.386 1_554 S
C364 C365 1.363 . S
C365 C364 1.363 . S
C365 C366 1.385 . S
C366 H320 0.930 . S
C366 C365 1.385 . S
C366 C367 1.396 . S
C367 H321 0.929 . S
C367 C362 1.360 . S
C367 C366 1.396 . S
C368 O322 1.300 . S
C368 O323 1.209 . S
C368 C341 1.486 . S
C369 O324 1.199 . S
C369 O325 1.297 . S
C369 C353 1.476 . S
H370 O396 0.856 . S
H371 O399 0.854 . S
H372 C407 0.930 . S
H373 C408 0.930 . S
H374 C410 0.930 . S
H375 C411 0.930 . S
H376 C413 0.931 . S
H377 C414 0.930 . S
H378 C416 0.930 . S
H379 C417 0.929 . S
H380 C419 0.930 . S
H381 C420 0.931 . S
H382 C422 0.930 . S
H383 C423 0.929 . S
H384 C425 0.931 . S
H385 C426 0.930 . S
H386 C428 0.930 . S
H387 C429 0.932 . S
H388 C431 0.930 . S
H389 C432 0.929 . S
H390 C434 0.931 . S
H391 C435 0.930 . S
H392 C437 0.929 . S
H393 C438 0.931 . S
H394 C440 0.930 . S
H395 C441 0.929 . S
O396 H370 0.856 . S
O396 C442 1.300 . S
O397 C442 1.209 . S
O398 C443 1.199 . S
O399 H371 0.854 . S
O399 C443 1.297 . S
C400 C401 1.404 . S
C400 C405 1.397 . S
C400 C406 1.492 . S
C401 C400 1.404 . S
C401 C402 1.396 . S
C401 C412 1.492 . S
C402 C401 1.396 . S
C402 C403 1.397 . S
C402 C418 1.509 . S
C403 C402 1.397 . S
C403 C404 1.412 . S
C403 C424 1.485 . S
C404 C403 1.412 . S
C404 C405 1.388 . S
C404 C430 1.490 . S
C405 C400 1.397 . S
C405 C404 1.388 . S
C405 C436 1.519 . S
C406 C400 1.492 . S
C406 C407 1.363 . S
C406 C411 1.390 . S
C407 H372 0.930 . S
C407 C406 1.363 . S
C407 C408 1.372 . S
C408 H373 0.930 . S
C408 C407 1.372 . S
C408 C409 1.383 . S
C409 C408 1.383 . S
C409 C410 1.395 . S
C410 H374 0.930 . S
C410 C409 1.395 . S
C410 C411 1.362 . S
C411 H375 0.930 . S
C411 C406 1.390 . S
C411 C410 1.362 . S
C412 C401 1.492 . S
C412 C413 1.377 . S
C412 C417 1.397 . S
C413 H376 0.931 . S
C413 C412 1.377 . S
C413 C414 1.376 . S
C414 H377 0.930 . S
C414 C413 1.376 . S
C414 C415 1.376 . S
C415 C414 1.376 . S
C415 C416 1.378 . S
C415 C442 1.486 1_554 S
C416 H378 0.930 . S
C416 C415 1.378 . S
C416 C417 1.376 . S
C417 H379 0.929 . S
C417 C412 1.397 . S
C417 C416 1.376 . S
C418 C402 1.509 . S
C418 C419 1.391 . S
C418 C423 1.386 . S
C419 H380 0.930 . S
C419 C418 1.391 . S
C419 C420 1.375 . S
C420 H381 0.931 . S
C420 C419 1.375 . S
C420 C421 1.375 . S
C421 C420 1.375 . S
C421 C422 1.361 . S
C422 H382 0.930 . S
C422 C421 1.361 . S
C422 C423 1.399 . S
C423 H383 0.929 . S
C423 C418 1.386 . S
C423 C422 1.399 . S
C424 C403 1.485 . S
C424 C425 1.394 . S
C424 C429 1.360 . S
C425 H384 0.931 . S
C425 C424 1.394 . S
C425 C426 1.372 . S
C426 H385 0.930 . S
C426 C425 1.372 . S
C426 C427 1.397 . S
C427 C426 1.397 . S
C427 C428 1.390 . S
C427 C443 1.476 . S
C428 H386 0.930 . S
C428 C427 1.390 . S
C428 C429 1.366 . S
C429 H387 0.932 . S
C429 C424 1.360 . S
C429 C428 1.366 . S
C430 C404 1.490 . S
C430 C431 1.380 . S
C430 C435 1.386 . S
C431 H388 0.930 . S
C431 C430 1.380 . S
C431 C432 1.381 . S
C432 H389 0.929 . S
C432 C431 1.381 . S
C432 C433 1.371 . S
C433 C432 1.371 . S
C433 C434 1.380 . S
C434 H390 0.931 . S
C434 C433 1.380 . S
C434 C435 1.387 . S
C435 H391 0.930 . S
C435 C430 1.386 . S
C435 C434 1.387 . S
C436 C405 1.519 . S
C436 C437 1.377 . S
C436 C441 1.361 . S
C437 H392 0.929 . S
C437 C436 1.377 . S
C437 C438 1.386 . S
C438 H393 0.931 . S
C438 C437 1.386 . S
C438 C439 1.363 . S
C439 C438 1.363 . S
C439 C440 1.385 . S
C440 H394 0.930 . S
C440 C439 1.385 . S
C440 C441 1.396 . S
C441 H395 0.929 . S
C441 C436 1.361 . S
C441 C440 1.396 . S
C442 O396 1.300 . S
C442 O397 1.209 . S
C442 C415 1.486 1_556 S
C443 O398 1.199 . S
C443 O399 1.297 . S
C443 C427 1.476 . S
Co444 O445 2.216 . S
Co444 O446 2.091 . S
Co444 O448 2.004 . S
Co444 O454 2.021 . S
Co444 O456 2.137 . S
Co444 O457 2.244 . S
O445 Co444 2.216 . S
O445 C452 1.247 . S
O446 Co444 2.091 . S
O446 C452 1.261 . S
C447 O456 1.247 . S
C447 O457 1.272 . S
O448 Co444 2.004 . S
O448 C453 1.259 . S
Co449 O450 2.061 . S
Co449 O455 2.052 . S
Co449 O457 2.135 . S
O450 Co449 2.061 . S
O450 C453 1.235 . S
C451 O454 1.238 . S
C451 O455 1.241 . S
C452 O445 1.247 . S
C452 O446 1.261 . S
C453 O448 1.259 . S
C453 O450 1.235 . S
O454 Co444 2.021 . S
O454 C451 1.238 . S
O455 Co449 2.052 . S
O455 C451 1.241 . S
O456 Co444 2.137 . S
O456 C447 1.247 . S
O457 Co444 2.244 . S
O457 C447 1.272 . S
O457 Co449 2.135 . S
Co458 O459 2.216 . S
Co458 O460 2.091 . S
Co458 O462 2.004 . S
Co458 O468 2.021 . S
Co458 O470 2.137 . S
Co458 O471 2.244 . S
O459 Co458 2.216 . S
O459 C466 1.247 . S
O460 Co458 2.091 . S
O460 C466 1.261 . S
C461 O470 1.247 . S
C461 O471 1.272 . S
O462 Co458 2.004 . S
O462 C467 1.259 . S
Co463 O464 2.061 . S
Co463 O469 2.052 . S
Co463 O471 2.135 . S
O464 Co463 2.061 . S
O464 C467 1.235 . S
C465 O468 1.238 . S
C465 O469 1.241 . S
C466 O459 1.247 . S
C466 O460 1.261 . S
C467 O462 1.259 . S
C467 O464 1.235 . S
O468 Co458 2.021 . S
O468 C465 1.238 . S
O469 Co463 2.052 . S
O469 C465 1.241 . S
O470 Co458 2.137 . S
O470 C461 1.247 . S
O471 Co458 2.244 . S
O471 C461 1.272 . S
O471 Co463 2.135 . S
Co472 O473 2.216 . S
Co472 O474 2.091 . S
Co472 O476 2.004 . S
Co472 O482 2.021 . S
Co472 O484 2.137 . S
Co472 O485 2.244 . S
O473 Co472 2.216 . S
O473 C480 1.247 . S
O474 Co472 2.091 . S
O474 C480 1.261 . S
C475 O484 1.247 . S
C475 O485 1.272 . S
O476 Co472 2.004 . S
O476 C481 1.259 . S
Co477 O478 2.061 . S
Co477 O483 2.052 . S
Co477 O485 2.135 . S
O478 Co477 2.061 . S
O478 C481 1.235 . S
C479 O482 1.238 . S
C479 O483 1.241 . S
C480 O473 1.247 . S
C480 O474 1.261 . S
C481 O476 1.259 . S
C481 O478 1.235 . S
O482 Co472 2.021 . S
O482 C479 1.238 . S
O483 Co477 2.052 . S
O483 C479 1.241 . S
O484 Co472 2.137 . S
O484 C475 1.247 . S
O485 Co472 2.244 . S
O485 C475 1.272 . S
O485 Co477 2.135 . S
Co486 O487 2.216 . S
Co486 O488 2.091 . S
Co486 O490 2.004 . S
Co486 O496 2.021 . S
Co486 O498 2.137 . S
Co486 O499 2.244 . S
O487 Co486 2.216 . S
O487 C494 1.247 . S
O488 Co486 2.091 . S
O488 C494 1.261 . S
C489 O498 1.247 . S
C489 O499 1.272 . S
O490 Co486 2.004 . S
O490 C495 1.259 . S
Co491 O492 2.061 . S
Co491 O497 2.052 . S
Co491 O499 2.135 . S
O492 Co491 2.061 . S
O492 C495 1.235 . S
C493 O496 1.238 . S
C493 O497 1.241 . S
C494 O487 1.247 . S
C494 O488 1.261 . S
C495 O490 1.259 . S
C495 O492 1.235 . S
O496 Co486 2.021 . S
O496 C493 1.238 . S
O497 Co491 2.052 . S
O497 C493 1.241 . S
O498 Co486 2.137 . S
O498 C489 1.247 . S
O499 Co486 2.244 . S
O499 C489 1.272 . S
O499 Co491 2.135 . S
Co500 O501 2.216 . S
Co500 O502 2.091 . S
Co500 O504 2.004 . S
Co500 O510 2.021 . S
Co500 O512 2.137 . S
Co500 O513 2.244 . S
O501 Co500 2.216 . S
O501 C508 1.247 . S
O502 Co500 2.091 . S
O502 C508 1.261 . S
C503 O512 1.247 . S
C503 O513 1.272 . S
O504 Co500 2.004 . S
O504 C509 1.259 . S
Co505 O506 2.061 . S
Co505 O511 2.052 . S
Co505 O513 2.135 . S
O506 Co505 2.061 . S
O506 C509 1.235 . S
C507 O510 1.238 . S
C507 O511 1.241 . S
C508 O501 1.247 . S
C508 O502 1.261 . S
C509 O504 1.259 . S
C509 O506 1.235 . S
O510 Co500 2.021 . S
O510 C507 1.238 . S
O511 Co505 2.052 . S
O511 C507 1.241 . S
O512 Co500 2.137 . S
O512 C503 1.247 . S
O513 Co500 2.244 . S
O513 C503 1.272 . S
O513 Co505 2.135 . S
Co514 O515 2.216 . S
Co514 O516 2.091 . S
Co514 O518 2.004 . S
Co514 O524 2.021 . S
Co514 O526 2.137 . S
Co514 O527 2.244 . S
O515 Co514 2.216 . S
O515 C522 1.247 . S
O516 Co514 2.091 . S
O516 C522 1.261 . S
C517 O526 1.247 . S
C517 O527 1.272 . S
O518 Co514 2.004 . S
O518 C523 1.259 . S
Co519 O520 2.061 . S
Co519 O525 2.052 . S
Co519 O527 2.135 . S
O520 Co519 2.061 . S
O520 C523 1.235 . S
C521 O524 1.238 . S
C521 O525 1.241 . S
C522 O515 1.247 . S
C522 O516 1.261 . S
C523 O518 1.259 . S
C523 O520 1.235 . S
O524 Co514 2.021 . S
O524 C521 1.238 . S
O525 Co519 2.052 . S
O525 C521 1.241 . S
O526 Co514 2.137 . S
O526 C517 1.247 . S
O527 Co514 2.244 . S
O527 C517 1.272 . S
O527 Co519 2.135 . S
C528 C529 1.387 . S
C528 H532 0.950 . S
C528 C537 1.390 . S
C529 C528 1.387 . S
C529 C531 1.387 . S
H530 C537 0.950 . S
C531 C529 1.387 . S
C531 C533 1.390 . S
C531 H535 0.950 . S
H532 C528 0.950 . S
C533 C531 1.390 . S
C533 C534 1.387 . S
C533 H536 0.950 . S
C534 C533 1.387 . S
C534 C537 1.387 . S
H535 C531 0.950 . S
H536 C533 0.950 . S
C537 C528 1.390 . S
C537 H530 0.950 . S
C537 C534 1.387 . S
C538 C539 1.387 . S
C538 H542 0.950 . S
C538 C547 1.390 . S
C539 C538 1.387 . S
C539 C541 1.387 . S
H540 C547 0.950 . S
C541 C539 1.387 . S
C541 C543 1.390 . S
C541 H545 0.950 . S
H542 C538 0.950 . S
C543 C541 1.390 . S
C543 C544 1.387 . S
C543 H546 0.950 . S
C544 C543 1.387 . S
C544 C547 1.387 . S
H545 C541 0.950 . S
H546 C543 0.950 . S
C547 C538 1.390 . S
C547 H540 0.950 . S
C547 C544 1.387 . S
C548 C549 1.387 . S
C548 H552 0.950 . S
C548 C557 1.390 . S
C549 C548 1.387 . S
C549 C551 1.387 . S
H550 C557 0.950 . S
C551 C549 1.387 . S
C551 C553 1.390 . S
C551 H555 0.950 . S
H552 C548 0.950 . S
C553 C551 1.390 . S
C553 C554 1.387 . S
C553 H556 0.950 . S
C554 C553 1.387 . S
C554 C557 1.387 . S
H555 C551 0.950 . S
H556 C553 0.950 . S
C557 C548 1.390 . S
C557 H550 0.950 . S
C557 C554 1.387 . S
C558 C559 1.387 . S
C558 H562 0.950 . S
C558 C567 1.390 . S
C559 C558 1.387 . S
C559 C561 1.387 . S
H560 C567 0.950 . S
C561 C559 1.387 . S
C561 C563 1.390 . S
C561 H565 0.950 . S
H562 C558 0.950 . S
C563 C561 1.390 . S
C563 C564 1.387 . S
C563 H566 0.950 . S
C564 C563 1.387 . S
C564 C567 1.387 . S
H565 C561 0.950 . S
H566 C563 0.950 . S
C567 C558 1.390 . S
C567 H560 0.950 . S
C567 C564 1.387 . S
C568 C569 1.387 . S
C568 H572 0.950 . S
C568 C577 1.390 . S
C569 C568 1.387 . S
C569 C571 1.387 . S
H570 C577 0.950 . S
C571 C569 1.387 . S
C571 C573 1.390 . S
C571 H575 0.950 . S
H572 C568 0.950 . S
C573 C571 1.390 . S
C573 C574 1.387 . S
C573 H576 0.950 . S
C574 C573 1.387 . S
C574 C577 1.387 . S
H575 C571 0.950 . S
H576 C573 0.950 . S
C577 C568 1.390 . S
C577 H570 0.950 . S
C577 C574 1.387 . S
C578 C579 1.387 . S
C578 H582 0.950 . S
C578 C587 1.390 . S
C579 C578 1.387 . S
C579 C581 1.387 . S
H580 C587 0.950 . S
C581 C579 1.387 . S
C581 C583 1.390 . S
C581 H585 0.950 . S
H582 C578 0.950 . S
C583 C581 1.390 . S
C583 C584 1.387 . S
C583 H586 0.950 . S
C584 C583 1.387 . S
C584 C587 1.387 . S
H585 C581 0.950 . S
H586 C583 0.950 . S
C587 C578 1.390 . S
C587 H580 0.950 . S
C587 C584 1.387 . S
C588 C589 1.387 . S
C588 H592 0.950 . S
C588 C597 1.390 . S
C589 C588 1.387 . S
C589 C591 1.387 . S
H590 C597 0.950 . S
C591 C589 1.387 . S
C591 C593 1.390 . S
C591 H595 0.950 . S
H592 C588 0.950 . S
C593 C591 1.390 . S
C593 C594 1.387 . S
C593 H596 0.950 . S
C594 C593 1.387 . S
C594 C597 1.387 . S
H595 C591 0.950 . S
H596 C593 0.950 . S
C597 C588 1.390 . S
C597 H590 0.950 . S
C597 C594 1.387 . S
C598 C599 1.387 . S
C598 H602 0.950 . S
C598 C607 1.390 . S
C599 C598 1.387 . S
C599 C601 1.387 . S
H600 C607 0.950 . S
C601 C599 1.387 . S
C601 C603 1.390 . S
C601 H605 0.950 . S
H602 C598 0.950 . S
C603 C601 1.390 . S
C603 C604 1.387 . S
C603 H606 0.950 . S
C604 C603 1.387 . S
C604 C607 1.387 . S
H605 C601 0.950 . S
H606 C603 0.950 . S
C607 C598 1.390 . S
C607 H600 0.950 . S
C607 C604 1.387 . S
C608 C609 1.387 . S
C608 H612 0.950 . S
C608 C617 1.390 . S
C609 C608 1.387 . S
C609 C611 1.387 . S
H610 C617 0.950 . S
C611 C609 1.387 . S
C611 C613 1.390 . S
C611 H615 0.950 . S
H612 C608 0.950 . S
C613 C611 1.390 . S
C613 C614 1.387 . S
C613 H616 0.950 . S
C614 C613 1.387 . S
C614 C617 1.387 . S
H615 C611 0.950 . S
H616 C613 0.950 . S
C617 C608 1.390 . S
C617 H610 0.950 . S
C617 C614 1.387 . S
C618 C619 1.387 . S
C618 H622 0.950 . S
C618 C627 1.390 . S
C619 C618 1.387 . S
C619 C621 1.387 . S
H620 C627 0.950 . S
C621 C619 1.387 . S
C621 C623 1.390 . S
C621 H625 0.950 1_554 S
H622 C618 0.950 . S
C623 C621 1.390 . S
C623 C624 1.387 . S
C623 H626 0.950 . S
C624 C623 1.387 . S
C624 C627 1.387 . S
H625 C621 0.950 1_556 S
H626 C623 0.950 . S
C627 C618 1.390 . S
C627 H620 0.950 . S
C627 C624 1.387 . S
C628 C629 1.387 . S
C628 H632 0.950 . S
C628 C637 1.390 . S
C629 C628 1.387 . S
C629 C631 1.387 . S
H630 C637 0.950 . S
C631 C629 1.387 . S
C631 C633 1.390 . S
C631 H635 0.950 . S
H632 C628 0.950 . S
C633 C631 1.390 . S
C633 C634 1.387 . S
C633 H636 0.950 . S
C634 C633 1.387 . S
C634 C637 1.387 . S
H635 C631 0.950 . S
H636 C633 0.950 . S
C637 C628 1.390 . S
C637 H630 0.950 . S
C637 C634 1.387 . S
C638 C639 1.387 . S
C638 H642 0.950 . S
C638 C647 1.390 . S
C639 C638 1.387 . S
C639 C641 1.387 . S
H640 C647 0.950 . S
C641 C639 1.387 . S
C641 C643 1.390 . S
C641 H645 0.950 . S
H642 C638 0.950 . S
C643 C641 1.390 . S
C643 C644 1.387 . S
C643 H646 0.950 . S
C644 C643 1.387 . S
C644 C647 1.387 . S
H645 C641 0.950 . S
H646 C643 0.950 . S
C647 C638 1.390 . S
C647 H640 0.950 . S
C647 C644 1.387 . S
C648 C649 1.387 . S
C648 H652 0.950 . S
C648 C657 1.390 . S
C649 C648 1.387 . S
C649 C651 1.387 . S
H650 C657 0.950 . S
C651 C649 1.387 . S
C651 C653 1.390 . S
C651 H655 0.950 . S
H652 C648 0.950 . S
C653 C651 1.390 . S
C653 C654 1.387 . S
C653 H656 0.950 . S
C654 C653 1.387 . S
C654 C657 1.387 . S
H655 C651 0.950 . S
H656 C653 0.950 . S
C657 C648 1.390 . S
C657 H650 0.950 . S
C657 C654 1.387 . S
C658 C659 1.387 . S
C658 H662 0.950 . S
C658 C667 1.390 . S
C659 C658 1.387 . S
C659 C661 1.387 . S
H660 C667 0.950 . S
C661 C659 1.387 . S
C661 C663 1.390 . S
C661 H665 0.950 . S
H662 C658 0.950 . S
C663 C661 1.390 . S
C663 C664 1.387 . S
C663 H666 0.950 . S
C664 C663 1.387 . S
C664 C667 1.387 . S
H665 C661 0.950 . S
H666 C663 0.950 . S
C667 C658 1.390 . S
C667 H660 0.950 . S
C667 C664 1.387 . S
C668 C669 1.387 . S
C668 H672 0.950 . S
C668 C677 1.390 . S
C669 C668 1.387 . S
C669 C671 1.387 . S
H670 C677 0.950 . S
C671 C669 1.387 . S
C671 C673 1.390 . S
C671 H675 0.950 . S
H672 C668 0.950 . S
C673 C671 1.390 . S
C673 C674 1.387 . S
C673 H676 0.950 . S
C674 C673 1.387 . S
C674 C677 1.387 . S
H675 C671 0.950 . S
H676 C673 0.950 . S
C677 C668 1.390 . S
C677 H670 0.950 . S
C677 C674 1.387 . S
C678 C679 1.387 . S
C678 H682 0.950 . S
C678 C687 1.390 . S
C679 C678 1.387 . S
C679 C681 1.387 . S
H680 C687 0.950 . S
C681 C679 1.387 . S
C681 C683 1.390 . S
C681 H685 0.950 . S
H682 C678 0.950 . S
C683 C681 1.390 . S
C683 C684 1.387 . S
C683 H686 0.950 . S
C684 C683 1.387 . S
C684 C687 1.387 . S
H685 C681 0.950 . S
H686 C683 0.950 . S
C687 C678 1.390 . S
C687 H680 0.950 . S
C687 C684 1.387 . S
C688 C689 1.387 . S
C688 H692 0.950 1_565 S
C688 C697 1.390 . S
C689 C688 1.387 . S
C689 C691 1.387 . S
H690 C697 0.950 . S
C691 C689 1.387 . S
C691 C693 1.390 . S
C691 H695 0.950 . S
H692 C688 0.950 1_545 S
C693 C691 1.390 . S
C693 C694 1.387 . S
C693 H696 0.950 . S
C694 C693 1.387 . S
C694 C697 1.387 . S
H695 C691 0.950 . S
H696 C693 0.950 . S
C697 C688 1.390 . S
C697 H690 0.950 . S
C697 C694 1.387 . S
C698 C699 1.387 . S
C698 H702 0.950 . S
C698 C707 1.390 . S
C699 C698 1.387 . S
C699 C701 1.387 . S
H700 C707 0.950 . S
C701 C699 1.387 . S
C701 C703 1.390 . S
C701 H705 0.950 . S
H702 C698 0.950 . S
C703 C701 1.390 . S
C703 C704 1.387 . S
C703 H706 0.950 . S
C704 C703 1.387 . S
C704 C707 1.387 . S
H705 C701 0.950 . S
H706 C703 0.950 . S
C707 C698 1.390 . S
C707 H700 0.950 . S
C707 C704 1.387 . S
C708 C709 1.387 . S
C708 H712 0.950 . S
C708 C717 1.390 . S
C709 C708 1.387 . S
C709 C711 1.387 . S
H710 C717 0.950 . S
C711 C709 1.387 . S
C711 C713 1.390 . S
C711 H715 0.950 . S
H712 C708 0.950 . S
C713 C711 1.390 . S
C713 C714 1.387 . S
C713 H716 0.950 . S
C714 C713 1.387 . S
C714 C717 1.387 . S
H715 C711 0.950 . S
H716 C713 0.950 . S
C717 C708 1.390 . S
C717 H710 0.950 . S
C717 C714 1.387 . S
C718 C719 1.387 . S
C718 H722 0.950 . S
C718 C727 1.390 . S
C719 C718 1.387 . S
C719 C721 1.387 . S
H720 C727 0.950 . S
C721 C719 1.387 . S
C721 C723 1.390 . S
C721 H725 0.950 . S
H722 C718 0.950 . S
C723 C721 1.390 . S
C723 C724 1.387 . S
C723 H726 0.950 . S
C724 C723 1.387 . S
C724 C727 1.387 . S
H725 C721 0.950 . S
H726 C723 0.950 . S
C727 C718 1.390 . S
C727 H720 0.950 . S
C727 C724 1.387 . S
C728 C729 1.387 . S
C728 H732 0.950 . S
C728 C737 1.390 . S
C729 C728 1.387 . S
C729 C731 1.387 . S
H730 C737 0.950 . S
C731 C729 1.387 . S
C731 C733 1.390 . S
C731 H735 0.950 . S
H732 C728 0.950 . S
C733 C731 1.390 . S
C733 C734 1.387 . S
C733 H736 0.950 . S
C734 C733 1.387 . S
C734 C737 1.387 . S
H735 C731 0.950 . S
H736 C733 0.950 . S
C737 C728 1.390 . S
C737 H730 0.950 . S
C737 C734 1.387 . S
C738 C739 1.387 . S
C738 H742 0.950 . S
C738 C747 1.390 . S
C739 C738 1.387 . S
C739 C741 1.387 . S
H740 C747 0.950 . S
C741 C739 1.387 . S
C741 C743 1.390 . S
C741 H745 0.950 . S
H742 C738 0.950 . S
C743 C741 1.390 . S
C743 C744 1.387 . S
C743 H746 0.950 . S
C744 C743 1.387 . S
C744 C747 1.387 . S
H745 C741 0.950 . S
H746 C743 0.950 . S
C747 C738 1.390 . S
C747 H740 0.950 . S
C747 C744 1.387 . S
C748 C749 1.387 . S
C748 H752 0.950 . S
C748 C757 1.390 1_554 S
C749 C748 1.387 . S
C749 C751 1.387 . S
H750 C757 0.950 . S
C751 C749 1.387 . S
C751 C753 1.390 1_554 S
C751 H755 0.950 . S
H752 C748 0.950 . S
C753 C751 1.390 1_556 S
C753 C754 1.387 . S
C753 H756 0.950 . S
C754 C753 1.387 . S
C754 C757 1.387 . S
H755 C751 0.950 . S
H756 C753 0.950 . S
C757 C748 1.390 1_556 S
C757 H750 0.950 . S
C757 C754 1.387 . S
C758 C759 1.387 . S
C758 H762 0.950 . S
C758 C767 1.390 . S
C759 C758 1.387 . S
C759 C761 1.387 . S
H760 C767 0.950 . S
C761 C759 1.387 . S
C761 C763 1.390 . S
C761 H765 0.950 . S
H762 C758 0.950 . S
C763 C761 1.390 . S
C763 C764 1.387 . S
C763 H766 0.950 . S
C764 C763 1.387 . S
C764 C767 1.387 . S
H765 C761 0.950 . S
H766 C763 0.950 . S
C767 C758 1.390 . S
C767 H760 0.950 . S
C767 C764 1.387 . S
C534 C517 1.245 . S
C529 C51 1.211 . S
C539 C125 1.760 . S
C544 C447 1.783 . S
C549 C217 2.242 . S
C554 C466 2.237 . S
C559 C291 1.985 . S
C564 C475 2.039 . S
C574 C489 0.831 . S
C569 C347 0.824 . S
C579 C421 1.268 . S
C584 C508 1.306 . S
C589 C143 2.472 . S
C594 C461 2.510 . S
C599 C199 1.251 . S
C604 C480 1.254 . S
C609 C273 1.133 . S
C614 C494 1.158 . S
C624 C503 1.344 . S
C619 C365 1.335 . S
C634 C522 2.194 . S
C629 C439 2.163 . S
C644 C452 2.031 . S
C639 C69 2.060 . S
C649 C63 1.619 . S
C654 C467 1.735 . S
C659 C137 1.480 . S
C664 C479 1.577 . S
C674 C493 1.565 . S
C669 C187 1.469 . S
C679 C261 1.557 . S
C684 C509 1.681 1_556 S
C694 C521 1.520 . S
C689 C359 1.415 1_565 S
C704 C451 1.476 . S
C699 C433 1.396 . S
C714 C523 1.603 . S
C709 C113 1.570 . S
C719 C211 1.544 . S
C724 C453 1.619 . S
C734 C465 1.714 . S
C729 C285 1.569 . S
C739 C335 1.434 . S
C744 C481 1.459 . S
C749 C409 1.534 . S
C754 C495 1.663 . S
C759 C39 1.732 . S
C764 C507 1.824 . S
