# Generated by pormake.
# Topology zzz, (3,6)-cn, num edge types: 1
# Building blocks:
#     Node 0, Type 0, BuildingBlock: MIDCAF_clean_linker_0, # of connection points: 3
#     Node 1, Type 0, BuildingBlock: MIDCAF_clean_linker_0, # of connection points: 3
#     Node 2, Type 0, BuildingBlock: MIDCAF_clean_linker_0, # of connection points: 3
#     Node 3, Type 0, BuildingBlock: MIDCAF_clean_linker_0, # of connection points: 3
#     Node 4, Type 0, BuildingBlock: MIDCAF_clean_linker_0, # of connection points: 3
#     Node 5, Type 0, BuildingBlock: MIDCAF_clean_linker_0, # of connection points: 3
#     Node 6, Type 0, BuildingBlock: MIDCAF_clean_linker_0, # of connection points: 3
#     Node 7, Type 0, BuildingBlock: MIDCAF_clean_linker_0, # of connection points: 3
#     Node 8, Type 1, BuildingBlock: NUHQIS_clean_sbu_0, # of connection points: 6
#     Node 9, Type 1, BuildingBlock: NUHQIS_clean_sbu_0, # of connection points: 6
#     Node 10, Type 1, BuildingBlock: NUHQIS_clean_sbu_0, # of connection points: 6
#     Node 11, Type 1, BuildingBlock: NUHQIS_clean_sbu_0, # of connection points: 6
#     Edge 12, Type (0, 1), BuildingBlock: KIFKEQ_clean_linker_1, # of connection points: 2
#     Edge 13, Type (0, 1), BuildingBlock: KIFKEQ_clean_linker_1, # of connection points: 2
#     Edge 14, Type (0, 1), BuildingBlock: KIFKEQ_clean_linker_1, # of connection points: 2
#     Edge 15, Type (0, 1), BuildingBlock: KIFKEQ_clean_linker_1, # of connection points: 2
#     Edge 16, Type (0, 1), BuildingBlock: KIFKEQ_clean_linker_1, # of connection points: 2
#     Edge 17, Type (0, 1), BuildingBlock: KIFKEQ_clean_linker_1, # of connection points: 2
#     Edge 18, Type (0, 1), BuildingBlock: KIFKEQ_clean_linker_1, # of connection points: 2
#     Edge 19, Type (0, 1), BuildingBlock: KIFKEQ_clean_linker_1, # of connection points: 2
#     Edge 20, Type (0, 1), BuildingBlock: KIFKEQ_clean_linker_1, # of connection points: 2
#     Edge 21, Type (0, 1), BuildingBlock: KIFKEQ_clean_linker_1, # of connection points: 2
#     Edge 22, Type (0, 1), BuildingBlock: KIFKEQ_clean_linker_1, # of connection points: 2
#     Edge 23, Type (0, 1), BuildingBlock: KIFKEQ_clean_linker_1, # of connection points: 2
#     Edge 24, Type (0, 1), BuildingBlock: KIFKEQ_clean_linker_1, # of connection points: 2
#     Edge 25, Type (0, 1), BuildingBlock: KIFKEQ_clean_linker_1, # of connection points: 2
#     Edge 26, Type (0, 1), BuildingBlock: KIFKEQ_clean_linker_1, # of connection points: 2
#     Edge 27, Type (0, 1), BuildingBlock: KIFKEQ_clean_linker_1, # of connection points: 2
#     Edge 28, Type (0, 1), BuildingBlock: KIFKEQ_clean_linker_1, # of connection points: 2
#     Edge 29, Type (0, 1), BuildingBlock: KIFKEQ_clean_linker_1, # of connection points: 2
#     Edge 30, Type (0, 1), BuildingBlock: KIFKEQ_clean_linker_1, # of connection points: 2
#     Edge 31, Type (0, 1), BuildingBlock: KIFKEQ_clean_linker_1, # of connection points: 2
#     Edge 32, Type (0, 1), BuildingBlock: KIFKEQ_clean_linker_1, # of connection points: 2
#     Edge 33, Type (0, 1), BuildingBlock: KIFKEQ_clean_linker_1, # of connection points: 2
#     Edge 34, Type (0, 1), BuildingBlock: KIFKEQ_clean_linker_1, # of connection points: 2
#     Edge 35, Type (0, 1), BuildingBlock: KIFKEQ_clean_linker_1, # of connection points: 2
# Relax obj value: 0.421
# Max RMSD: 0.257
# Mean RMSD: 0.233
data_MOF--net-zzz--node1-NUHQIS_clean_sbu_0--node2-MIDCAF_clean_linker_0--edge1-KIFKEQ_clean_linker_1
_symmetry_space_group_name_H-M    P1
_symmetry_Int_Tables_number       1
_symmetry_cell_setting            triclinic
loop_
_symmetry_equiv_pos_as_xyz
'x, y, z'
_cell_length_a     60.221477
_cell_length_b     60.237273
_cell_length_c     19.302016
_cell_angle_alpha  89.811261
_cell_angle_beta   89.921286
_cell_angle_gamma 89.927698
loop_
_atom_site_label
_atom_site_type_symbol
_atom_site_fract_x
_atom_site_fract_y
_atom_site_fract_z
_atom_type_partial_charge
C0 C 0.79473 0.50924 0.37369 0.0
C1 C 0.80276 0.49618 0.42913 0.0
C2 C 0.79194 0.47602 0.44392 0.0
C3 C 0.77481 0.46835 0.40155 0.0
H4 H 0.69742 0.43909 0.13612 0.0
H5 H 0.66537 0.45029 0.06924 0.0
H6 H 0.67326 0.5178 0.13894 0.0
H7 H 0.70598 0.50651 0.20716 0.0
H8 H 0.74069 0.41093 0.10784 0.0
H9 H 0.76332 0.38551 0.03956 0.0
H10 H 0.8196 0.39954 0.17141 0.0
H11 H 0.79694 0.42375 0.24072 0.0
H12 H 0.77259 0.51116 0.28625 0.0
H13 H 0.80248 0.52496 0.36119 0.0
H14 H 0.79771 0.46532 0.48534 0.0
H15 H 0.76802 0.45197 0.41134 0.0
N16 N 0.7361 0.47669 0.26055 0.0
N17 N 0.73572 0.44599 0.1852 0.0
N18 N 0.76477 0.45008 0.26361 0.0
C19 C 0.7259 0.46481 0.20925 0.0
C20 C 0.75514 0.43856 0.21176 0.0
C21 C 0.75552 0.46896 0.28852 0.0
C22 C 0.70465 0.47198 0.17633 0.0
C23 C 0.69246 0.45639 0.13781 0.0
C24 C 0.67401 0.46278 0.0991 0.0
C25 C 0.66702 0.48499 0.09754 0.0
C26 C 0.67832 0.50054 0.13896 0.0
C27 C 0.69704 0.49409 0.17802 0.0
C28 C 0.76714 0.41984 0.17884 0.0
C29 C 0.75778 0.40811 0.1232 0.0
C30 C 0.77079 0.39358 0.08376 0.0
C31 C 0.79349 0.39069 0.09871 0.0
C32 C 0.8022 0.401 0.15811 0.0
C33 C 0.78918 0.41524 0.19786 0.0
C34 C 0.7678 0.48066 0.34368 0.0
C35 C 0.77735 0.50156 0.33144 0.0
C36 C 0.98209 0.80376 0.39997 0.0
C37 C 0.99857 0.8115 0.44577 0.0
C38 C 0.01785 0.79856 0.45455 0.0
C39 C 0.02151 0.7797 0.41413 0.0
H40 H 0.01665 0.68583 0.2872 0.0
H41 H 0.00901 0.65072 0.22806 0.0
H42 H 0.97331 0.68639 0.06884 0.0
H43 H 0.98106 0.72136 0.12829 0.0
H44 H 0.05081 0.73961 0.08577 0.0
H45 H 0.07463 0.76001 1.00552 0.0
H46 H 0.09084 0.80636 0.16816 0.0
H47 H 0.06762 0.78586 0.24825 0.0
H48 H 0.97358 0.78008 0.32096 0.0
H49 H 0.96706 0.81329 0.39162 0.0
H50 H 0.03067 0.8036 0.49049 0.0
H51 H 0.03728 0.77112 0.4185 0.0
N52 N 1.0021 0.73928 0.28979 0.0
N53 N 0.02766 0.73394 0.19853 0.0
N54 N 0.03141 0.76444 0.27176 0.0
C55 C 0.00963 0.72703 0.23497 0.0
C56 C 0.03869 0.75259 0.21675 0.0
C57 C 0.01326 0.7581 0.30833 0.0
C58 C 0.99899 0.70617 0.21306 0.0
C59 C 0.00635 0.68597 0.24121 0.0
C60 C 1.00226 0.66594 0.20672 0.0
C61 C 0.99072 0.66574 0.14329 0.0
C62 C 0.98204 0.68588 0.11784 0.0
C63 C 0.98634 0.70591 0.15204 0.0
C64 C 0.05682 0.76148 0.17292 0.0
C65 C 0.05999 0.75376 0.10492 0.0
C66 C 0.0736 0.76547 0.05884 0.0
C67 C 0.08433 0.78502 0.08002 0.0
C68 C 0.08294 0.79132 0.14996 0.0
C69 C 0.06935 0.77969 0.19586 0.0
C70 C 0.00585 0.77295 0.36475 0.0
C71 C 0.9857 0.78463 0.35979 0.0
C72 C 0.70089 0.99756 0.36972 0.0
C73 C 0.70013 1.0054 0.43838 0.0
C74 C 0.71873 0.01686 0.46425 0.0
C75 C 0.73686 0.02173 0.42114 0.0
H76 H 0.79723 0.98573 0.21124 0.0
H77 H 0.83119 0.97344 0.15153 0.0
H78 H 0.85442 0.0412 0.14516 0.0
H79 H 0.82073 0.05333 0.20362 0.0
H80 H 0.76967 0.07324 0.09765 0.0
H81 H 0.74849 0.0982 0.02281 0.0
H82 H 0.69872 0.10491 0.18282 0.0
H83 H 0.71987 0.08039 0.25758 0.0
H84 H 0.71836 0.99772 0.2727 0.0
H85 H 0.68684 0.98897 0.3475 0.0
H86 H 0.71889 0.0229 0.51703 0.0
H87 H 0.75019 0.03196 0.44088 0.0
N88 N 0.77188 0.0179 0.28335 0.0
N89 N 0.77639 0.04762 0.2049 0.0
N90 N 0.74391 0.04491 0.27054 0.0
C91 C 0.78447 0.02889 0.23529 0.0
C92 C 0.75613 0.05571 0.22213 0.0
C93 C 0.75161 0.02622 0.30156 0.0
C94 C 0.80635 0.02048 0.21193 0.0
C95 C 0.8099 0.99783 0.19856 0.0
C96 C 0.82922 0.99085 0.1639 0.0
C97 C 0.84548 0.00636 0.14345 0.0
C98 C 0.84239 0.02879 0.16072 0.0
C99 C 0.82302 0.03576 0.19399 0.0
C100 C 0.74619 0.07442 0.18302 0.0
C101 C 0.75453 0.08056 0.1176 0.0
C102 C 0.74238 0.09481 0.07459 0.0
C103 C 0.7218 0.10332 0.09648 0.0
C104 C 0.71457 0.09881 0.16437 0.0
C105 C 0.72661 0.0845 0.20709 0.0
C106 C 0.73686 0.01506 0.3516 0.0
C107 C 0.71901 1.00246 0.32677 0.0
C108 C 0.40609 0.71763 0.1124 0.0
C109 C 0.40538 0.72459 0.04283 0.0
C110 C 0.41547 0.74481 0.02449 0.0
C111 C 0.42755 0.75686 0.0735 0.0
H112 H 0.44698 0.82236 0.18397 0.0
H113 H 0.45911 0.85749 0.13573 0.0
H114 H 0.52756 0.83785 0.1638 0.0
H115 H 0.5151 0.80208 0.21225 0.0
H116 H 0.44482 0.73027 0.3697 0.0
H117 H 0.45519 0.69801 0.43852 0.0
H118 H 0.52427 0.70984 0.39229 0.0
H119 H 0.51376 0.74251 0.32199 0.0
H120 H 0.41941 0.72302 0.21333 0.0
H121 H 0.39872 0.70204 0.12838 0.0
H122 H 0.415 0.75072 0.97144 0.0
H123 H 0.4362 0.7717 0.05685 0.0
N124 N 0.45519 0.77878 0.17711 0.0
N125 N 0.48018 0.77406 0.27015 0.0
N126 N 0.45418 0.74631 0.24288 0.0
C127 C 0.47187 0.78681 0.21727 0.0
C128 C 0.47093 0.75375 0.2835 0.0
C129 C 0.44634 0.75852 0.18938 0.0
C130 C 0.48009 0.80946 0.20172 0.0
C131 C 0.46464 0.82569 0.18127 0.0
C132 C 0.47163 0.84595 0.1539 0.0
C133 C 0.49434 0.85059 0.14558 0.0
C134 C 0.50992 0.83474 0.16903 0.0
C135 C 0.50284 0.81438 0.19742 0.0
C136 C 0.47847 0.73884 0.34008 0.0
C137 C 0.4623 0.72643 0.37569 0.0
C138 C 0.46821 0.70787 0.41488 0.0
C139 C 0.49047 0.7012 0.41976 0.0
C140 C 0.50696 0.71466 0.38932 0.0
C141 C 0.50098 0.7334 0.34951 0.0
C142 C 0.42989 0.74876 0.14153 0.0
C143 C 0.41822 0.72956 0.16111 0.0
C144 C 0.19731 0.52909 0.99364 0.0
C145 C 0.19227 0.5078 0.96856 0.0
C146 C 0.20631 0.49002 0.98764 0.0
C147 C 0.22433 0.49337 0.03294 0.0
H148 H 0.31513 0.52161 0.12056 0.0
H149 H 0.35235 0.51535 0.16812 0.0
H150 H 0.32453 0.47153 0.32291 0.0
H151 H 0.28752 0.47795 0.27526 0.0
H152 H 0.26152 0.53396 0.36476 0.0
H153 H 0.24421 0.55458 0.45957 0.0
H154 H 0.20342 0.58993 0.31204 0.0
H155 H 0.22046 0.56933 0.21761 0.0
H156 H 0.2177 0.54887 0.05956 0.0
H157 H 0.18685 0.54317 0.98107 0.0
H158 H 0.20307 0.47342 0.96883 0.0
H159 H 0.2342 0.47924 0.04915 0.0
N160 N 0.26368 0.50678 0.12621 0.0
N161 N 0.26945 0.52412 0.23408 0.0
N162 N 0.2375 0.53211 0.17049 0.0
C163 C 0.27651 0.51013 0.18373 0.0
C164 C 0.25007 0.53525 0.22768 0.0
C165 C 0.24392 0.51789 0.1198 0.0
C166 C 0.29855 0.49987 0.19333 0.0
C167 C 0.3172 0.50979 0.16248 0.0
C168 C 0.33844 0.50649 0.19057 0.0
C169 C 0.34142 0.49315 0.24996 0.0
C170 C 0.32294 0.48175 0.2769 0.0
C171 C 0.30172 0.48526 0.2493 0.0
C172 C 0.24209 0.54981 0.28387 0.0
C173 C 0.2492 0.54648 0.3525 0.0
C174 C 0.23935 0.55827 0.40675 0.0
C175 C 0.22255 0.57386 0.39307 0.0
C176 C 0.21655 0.57823 0.32404 0.0
C177 C 0.22611 0.56622 0.27003 0.0
C178 C 0.22844 0.51451 0.06075 0.0
C179 C 0.21503 0.53235 0.03909 0.0
C180 C 0.99698 0.2194 0.96167 0.0
C181 C 0.01369 0.21061 0.91842 0.0
C182 C 0.03378 0.22235 0.91231 0.0
C183 C 0.03797 0.2409 0.95364 0.0
H184 H 0.02244 0.33148 0.10017 0.0
H185 H 0.01392 0.36431 0.17116 0.0
H186 H 0.99786 0.32143 0.34377 0.0
H187 H 0.0067 0.28907 0.27362 0.0
H188 H 0.06402 0.26829 0.29706 0.0
H189 H 0.07317 0.23963 0.38137 0.0
H190 H 0.08233 0.19263 0.21489 0.0
H191 H 0.07431 0.22127 0.13132 0.0
H192 H 0.98885 0.24321 0.04067 0.0
H193 H 0.98133 0.21078 0.96785 0.0
H194 H 0.04685 0.21641 0.87848 0.0
H195 H 0.05436 0.24831 0.95212 0.0
N196 N 0.01939 0.27957 0.0873 0.0
N197 N 0.04278 0.27865 0.18516 0.0
N198 N 0.04666 0.25181 0.09948 0.0
C199 C 0.02629 0.28864 0.14859 0.0
C200 C 0.05316 0.26031 0.16095 0.0
C201 C 0.02999 0.26113 0.06229 0.0
C202 C 0.01511 0.30779 0.1814 0.0
C203 C 0.0163 0.32918 0.15246 0.0
C204 C 0.01157 0.34794 0.19332 0.0
C205 C 1.00568 0.34551 0.26371 0.0
C206 C 1.00285 0.32396 0.29038 0.0
C207 C 0.00763 0.30539 0.24993 0.0
C208 C 0.0672 0.24671 0.20766 0.0
C209 C 0.06892 0.25208 0.27831 0.0
C210 C 0.07409 0.23559 0.3268 0.0
C211 C 0.07729 0.21351 0.3053 0.0
C212 C 0.07955 0.20928 0.23398 0.0
C213 C 0.07467 0.22579 0.18558 0.0
C214 C 0.02211 0.24843 1.00158 0.0
C215 C 1.00117 0.23815 1.00296 0.0
C216 C 0.2985 0.99809 0.98511 0.0
C217 C 0.31057 0.01809 0.9855 0.0
C218 C 0.3031 0.0354 0.02874 0.0
C219 C 0.28494 0.03226 0.07349 0.0
H220 H 0.20713 0.04592 0.20597 0.0
H221 H 0.17037 0.05436 0.25521 0.0
H222 H 0.15645 0.98413 0.26884 0.0
H223 H 0.19277 0.97597 0.22005 0.0
H224 H 0.23811 0.95943 0.34032 0.0
H225 H 0.25662 0.94011 0.43667 0.0
H226 H 0.31996 0.96425 0.36434 0.0
H227 H 0.30188 0.98313 0.26805 0.0
H228 H 0.2726 0.9788 0.03213 0.0
H229 H 0.30384 0.98426 0.95348 0.0
H230 H 0.31181 0.05111 0.02996 0.0
H231 H 0.28051 0.04528 0.10953 0.0
N232 N 0.23831 0.01202 0.1425 0.0
N233 N 0.23603 0.99147 0.24641 0.0
N234 N 0.26949 0.99278 0.18544 0.0
C235 C 0.22624 1.00461 0.19801 0.0
C236 C 0.25766 0.98569 0.24093 0.0
C237 C 0.26005 1.00575 0.13604 0.0
C238 C 0.20262 0.01031 0.20862 0.0
C239 C 0.19579 0.03243 0.21717 0.0
C240 C 0.1749 0.0372 0.24627 0.0
C241 C 0.16046 0.01992 0.26646 0.0
C242 C 0.16691 0.99789 0.2533 0.0
C243 C 0.18775 0.99317 0.22523 0.0
C244 C 0.26855 0.97284 0.29666 0.0
C245 C 0.25601 0.96047 0.34482 0.0
C246 C 0.26649 0.94941 0.39971 0.0
C247 C 0.28955 0.95098 0.40771 0.0
C248 C 0.30208 0.96301 0.35918 0.0
C249 C 0.29173 0.9737 0.30393 0.0
C250 C 0.27387 0.01178 0.07567 0.0
C251 C 0.28049 0.99495 0.02999 0.0
C252 C 0.53835 0.30443 0.39803 0.0
C253 C 0.55026 0.2912 0.44515 0.0
C254 C 0.55241 0.26836 0.43286 0.0
C255 C 0.54266 0.25891 0.3741 0.0
H256 H 0.47064 0.21716 0.26924 0.0
H257 H 0.46683 0.17964 0.31497 0.0
H258 H 0.52338 0.15888 0.19324 0.0
H259 H 0.52722 0.1968 0.14835 0.0
H260 H 0.48278 0.26843 0.03399 0.0
H261 H 0.48039 0.29716 0.94315 0.0
H262 H 0.53855 0.32901 0.02769 0.0
H263 H 0.54112 0.30057 0.11576 0.0
H264 H 0.52032 0.30584 0.30291 0.0
H265 H 0.53678 0.32216 0.40592 0.0
H266 H 0.56169 0.25793 0.46835 0.0
H267 H 0.54462 0.24127 0.36517 0.0
N268 N 0.51485 0.24172 0.26013 0.0
N269 N 0.50506 0.24577 0.14238 0.0
N270 N 0.52079 0.27551 0.20387 0.0
C271 C 0.50629 0.23305 0.2012 0.0
C272 C 0.51248 0.26724 0.1439 0.0
C273 C 0.52206 0.26293 0.26187 0.0
C274 C 0.49896 0.20974 0.20437 0.0
C275 C 0.48153 0.20428 0.24963 0.0
C276 C 0.47947 0.18275 0.27618 0.0
C277 C 0.49501 0.16622 0.25872 0.0
C278 C 0.51132 0.17127 0.20864 0.0
C279 C 0.51329 0.19287 0.1818 0.0
C280 C 0.51207 0.28222 0.08235 0.0
C281 C 0.49527 0.28134 0.03193 0.0
C282 C 0.49379 0.29793 0.98041 0.0
C283 C 0.50928 0.3155 0.97786 0.0
C284 C 0.5265 0.31569 0.0269 0.0
C285 C 0.52786 0.29937 0.0781 0.0
C286 C 0.53125 0.27234 0.32607 0.0
C287 C 0.52911 0.29513 0.33883 0.0
Tb288 Tb 0.0175 1.00357 0.7443 0.0
Eu289 Eu 0.9792 0.01696 0.63215 0.0
C290 C 0.03051 0.01991 0.59626 0.0
C291 C 1.00144 0.05311 0.73368 0.0
C292 C 0.0589 0.97006 0.83986 0.0
C293 C 0.08896 0.94863 0.89029 0.0
C294 C 0.0789 0.96911 0.87668 0.0
C295 C 0.0491 0.95042 0.81615 0.0
C296 C 0.05916 0.92997 0.82942 0.0
C297 C 0.07919 0.92884 0.86675 0.0
C298 C 0.04902 0.9916 0.82265 0.0
O299 O 0.98666 0.99296 0.79478 0.0
O300 O 0.9605 0.01224 0.73141 0.0
O301 O 0.97699 0.97978 0.64105 0.0
O302 O 0.01272 0.9744 0.6785 0.0
C303 C 0.96632 1.00061 0.78611 0.0
O304 O 0.95172 0.03828 0.60002 0.0
O305 O 0.96429 0.01342 0.52962 0.0
O306 O 0.01127 0.01291 0.57407 0.0
O307 O 0.03385 0.02282 0.66273 0.0
O308 O 0.00765 0.03692 0.77521 0.0
O309 O 0.99446 0.04902 0.67048 0.0
C310 C 0.99422 0.96678 0.65106 0.0
O311 O 0.05149 0.99765 0.75847 0.0
O312 O 0.02878 0.99494 0.844 0.0
C313 C 0.9609 0.05023 0.48783 0.0
C314 C 0.98724 0.086 0.44249 0.0
C315 C 0.96753 0.08992 0.47962 0.0
C316 C 0.95439 0.07218 0.50177 0.0
C317 C 0.97896 0.04661 0.44278 0.0
C318 C 0.99208 0.06433 0.42067 0.0
C319 C 0.95374 0.03229 0.53534 0.0
H320 H 0.10442 0.94827 0.91888 0.0
H321 H 0.08678 0.9842 0.89459 0.0
H322 H 0.03367 0.95092 0.78743 0.0
H323 H 0.051 0.91502 0.81172 0.0
H324 H 0.96305 0.10658 0.49537 0.0
H325 H 0.94045 0.07552 0.53574 0.0
H326 H 0.98437 0.02994 0.43019 0.0
H327 H 0.00706 0.06076 0.3916 0.0
Tb328 Tb 0.51234 0.02716 0.76054 0.0
Eu329 Eu 0.49655 0.98899 0.65117 0.0
C330 C 0.50151 0.04001 0.60633 0.0
C331 C 0.46211 0.01204 0.75469 0.0
C332 C 0.54385 0.07229 0.84684 0.0
C333 C 0.56112 0.10452 0.89888 0.0
C334 C 0.54242 0.09123 0.88845 0.0
C335 C 0.56379 0.06744 0.81246 0.0
C336 C 0.58254 0.08059 0.82329 0.0
C337 C 0.58161 0.09892 0.8683 0.0
C338 C 0.52491 0.05704 0.84304 0.0
O339 O 0.5048 0.99794 0.82377 0.0
O340 O 0.51206 0.9716 0.74227 0.0
O341 O 0.53092 0.99839 0.61707 0.0
O342 O 0.54328 0.01285 0.72012 0.0
C343 C 0.50949 0.97733 0.80718 0.0
O344 O 0.49965 0.95538 0.61019 0.0
O345 O 0.47524 0.97788 0.56713 0.0
O346 O 0.48925 0.0221 0.60083 0.0
O347 O 0.5152 0.04257 0.6586 0.0
O348 O 0.47603 0.02879 0.75932 0.0
O349 O 0.46812 0.99325 0.7259 0.0
C350 C 0.54714 1.00495 0.65754 0.0
O351 O 0.51094 0.06048 0.79269 0.0
O352 O 0.52963 0.03603 0.8503 0.0
C353 C 0.46472 0.94087 0.57927 0.0
C354 C 0.42447 0.91772 0.5955 0.0
C355 C 0.4371 0.92366 0.65383 0.0
C356 C 0.45699 0.93532 0.64577 0.0
C357 C 0.45327 0.9333 0.52107 0.0
C358 C 0.43332 0.92182 0.52899 0.0
C359 C 0.48229 0.95745 0.5704 0.0
H360 H 0.55972 0.11873 0.93285 0.0
H361 H 0.52705 0.09533 0.91472 0.0
H362 H 0.56511 0.05296 0.77958 0.0
H363 H 0.59804 0.07559 0.79945 0.0
H364 H 0.43096 0.92053 0.7057 0.0
H365 H 0.46561 0.94116 0.69146 0.0
H366 H 0.45892 0.93762 0.46943 0.0
H367 H 0.42402 0.91788 0.4827 0.0
Tb368 Tb 0.48909 0.51205 0.72551 0.0
Eu369 Eu 0.5253 0.49646 0.60959 0.0
C370 C 0.4736 0.50023 0.57405 0.0
C371 C 0.50441 0.46174 0.71797 0.0
C372 C 0.4456 0.54519 0.812 0.0
C373 C 0.41238 0.56317 0.85577 0.0
C374 C 0.42571 0.54426 0.84951 0.0
C375 C 0.45151 0.56492 0.77784 0.0
C376 C 0.43835 0.58387 0.78463 0.0
C377 C 0.41888 0.5834 0.82508 0.0
C378 C 0.46039 0.52581 0.81042 0.0
O379 O 0.5189 0.50384 0.78474 0.0
O380 O 0.54398 0.51125 0.69927 0.0
O381 O 0.51425 0.5304 0.5759 0.0
O382 O 0.50353 0.5427 0.68313 0.0
C383 C 0.53931 0.50815 0.76492 0.0
O384 O 0.5579 0.50087 0.56169 0.0
O385 O 0.53629 0.47449 0.5269 0.0
O386 O 0.49164 0.48833 0.56498 0.0
O387 O 0.47187 0.51409 0.62621 0.0
O388 O 0.48791 0.47571 0.72856 0.0
O389 O 0.52226 0.4677 0.68361 0.0
C390 C 0.50909 0.54664 0.61815 0.0
O391 O 0.45624 0.51116 0.76267 0.0
O392 O 0.48156 0.53008 0.8151 0.0
C393 C 0.57361 0.46565 0.54112 0.0
C394 C 0.59554 0.42579 0.57494 0.0
C395 C 0.5913 0.44171 0.62638 0.0
C396 C 0.58027 0.46141 0.60968 0.0
C397 C 0.57985 0.45094 0.48869 0.0
C398 C 0.59076 0.43118 0.50536 0.0
C399 C 0.55645 0.48236 0.5271 0.0
H400 H 0.3973 0.56209 0.88621 0.0
H401 H 0.42075 0.52906 0.87536 0.0
H402 H 0.4667 0.56589 0.74785 0.0
H403 H 0.44409 0.59915 0.76095 0.0
H404 H 0.59502 0.43824 0.68023 0.0
H405 H 0.57546 0.47251 0.65118 0.0
H406 H 0.57465 0.45383 0.43569 0.0
H407 H 0.59347 0.41929 0.46427 0.0
Tb408 Tb 0.9888 0.48814 0.76144 0.0
Eu409 Eu 1.00435 0.5247 0.64575 0.0
C410 C 0.99828 0.4736 0.60531 0.0
C411 C 0.03931 0.50175 0.74924 0.0
C412 C 0.96108 0.44059 0.84698 0.0
C413 C 0.94127 0.41168 0.90885 0.0
C414 C 0.95834 0.42733 0.90603 0.0
C415 C 0.94756 0.43708 0.78891 0.0
C416 C 0.9304 0.42151 0.79179 0.0
C417 C 0.92661 0.4092 0.85271 0.0
C418 C 0.97648 0.45938 0.84887 0.0
O419 O 0.98142 0.52077 0.80594 0.0
O420 O 0.00821 0.54065 0.75009 0.0
O421 O 0.96683 0.52542 0.6465 0.0
O422 O 0.96039 0.49078 0.69191 0.0
C423 C 0.99419 0.53839 0.80149 0.0
O424 O 1.00275 0.55884 0.60819 0.0
O425 O 0.02312 0.53468 0.55424 0.0
O426 O 0.99652 0.49419 0.58358 0.0
O427 O 0.99953 0.4687 0.67177 0.0
O428 O 0.02265 0.49704 0.79087 0.0
O429 O 0.03582 0.50863 0.68547 0.0
C430 C 0.95354 0.50851 0.65813 0.0
O431 O 0.99439 0.45756 0.81145 0.0
O432 O 0.96727 0.47883 0.84167 0.0
C433 C 0.03752 0.57048 0.56543 0.0
C434 C 0.07908 0.59175 0.57165 0.0
C435 C 0.06729 0.5869 0.6328 0.0
C436 C 0.04675 0.57621 0.62972 0.0
C437 C 0.04848 0.57652 0.50436 0.0
C438 C 0.06908 0.58704 0.50734 0.0
C439 C 0.01826 0.55565 0.56192 0.0
H440 H 0.93861 0.40267 0.95681 0.0
H441 H 0.96867 0.42987 0.95124 0.0
H442 H 0.94958 0.44713 0.74268 0.0
H443 H 0.91945 0.41985 0.74765 0.0
H444 H 0.07436 0.5905 0.68308 0.0
H445 H 0.03859 0.57151 0.67764 0.0
H446 H 0.04169 0.572 0.45439 0.0
H447 H 0.07777 0.5901 0.45911 0.0
H448 H 0.11983 0.99989 0.25324 0.0
H449 H 0.15436 0.04946 0.3728 0.0
H450 H 0.08812 1.00259 0.331 0.0
H451 H 0.1222 0.05284 0.44931 0.0
H452 H 0.07458 0.02775 0.62261 0.0
H453 H 0.10482 0.03089 0.53892 0.0
H454 H 0.0578 0.02474 0.37123 0.0
H455 H 0.0277 0.02104 0.45484 0.0
C456 C 0.12052 0.01163 0.29555 0.0
C457 C 0.13976 0.02433 0.30691 0.0
C458 C 0.10221 0.01334 0.33993 0.0
C459 C 0.10257 0.02783 0.397 0.0
C460 C 0.12143 0.04126 0.40659 0.0
C461 C 0.13978 0.03955 0.36206 0.0
C462 C 0.07066 0.02728 0.56788 0.0
C463 C 0.04871 0.02391 0.5456 0.0
C464 C 0.08802 0.02921 0.51974 0.0
C465 C 0.08385 0.02791 0.44806 0.0
C466 C 0.06175 0.02539 0.42591 0.0
C467 C 0.04443 0.02336 0.47398 0.0
H468 H 0.46025 0.14025 0.30442 0.0
H469 H 0.53182 0.14461 0.30771 0.0
H470 H 0.46183 0.10904 0.38542 0.0
H471 H 0.53342 0.11303 0.38647 0.0
H472 H 0.52625 0.07799 0.59636 0.0
H473 H 0.52459 0.10665 0.50744 0.0
H474 H 0.47301 0.0703 0.40201 0.0
H475 H 0.47442 0.04163 0.4918 0.0
C476 C 0.47633 0.13437 0.32158 0.0
C477 C 0.49589 0.14507 0.29946 0.0
C478 C 0.47725 0.11635 0.36771 0.0
C479 C 0.49775 0.10862 0.39318 0.0
C480 C 0.51732 0.11875 0.36889 0.0
C481 C 0.51641 0.13669 0.32272 0.0
C482 C 0.51454 0.07602 0.55427 0.0
C483 C 0.50047 0.05743 0.55148 0.0
C484 C 0.51371 0.09244 0.50284 0.0
C485 C 0.49875 0.09078 0.44714 0.0
C486 C 0.48462 0.07222 0.44437 0.0
C487 C 0.4855 0.05572 0.49578 0.0
H488 H 0.36765 0.52887 0.27945 0.0
H489 H 0.36338 0.45801 0.31088 0.0
H490 H 0.40034 0.53023 0.35369 0.0
H491 H 0.39607 0.45943 0.38613 0.0
H492 H 0.46772 0.46966 0.4701 0.0
H493 H 0.43709 0.46745 0.3871 0.0
H494 H 0.40698 0.52527 0.4797 0.0
H495 H 0.43742 0.52752 0.56237 0.0
C496 C 0.37391 0.5135 0.30117 0.0
C497 C 0.36287 0.49331 0.28891 0.0
C498 C 0.39252 0.51433 0.34451 0.0
C499 C 0.40075 0.49497 0.37641 0.0
C500 C 0.39023 0.47464 0.36219 0.0
C501 C 0.37143 0.47384 0.31935 0.0
C502 C 0.45458 0.48193 0.47268 0.0
C503 C 0.4551 0.49877 0.52305 0.0
C504 C 0.43698 0.48059 0.42527 0.0
C505 C 0.41961 0.49624 0.42648 0.0
C506 C 0.42021 0.51312 0.47664 0.0
C507 C 0.43764 0.51431 0.52443 0.0
H508 H 0.02309 0.34892 0.39342 0.0
H509 H 0.98598 0.3864 0.24173 0.0
H510 H 0.02114 0.37988 0.47323 0.0
H511 H 0.9836 0.41757 0.3227 0.0
H512 H 1.00243 0.47659 0.46363 0.0
H513 H 1.00407 0.44634 0.37986 0.0
H514 H 0.99616 0.39883 0.54623 0.0
H515 H 0.99523 0.42892 0.62976 0.0
C516 C 0.01421 0.36371 0.3774 0.0
C517 C 1.00441 0.36499 0.31137 0.0
C518 C 0.01305 0.38154 0.42342 0.0
C519 C 1.00195 0.40127 0.4052 0.0
C520 C 0.99243 0.40275 0.33858 0.0
C521 C 0.99373 0.38486 0.29212 0.0
C522 C 1.00106 0.45968 0.48234 0.0
C523 C 0.99889 0.45525 0.5537 0.0
C524 C 1.00186 0.44229 0.43412 0.0
C525 C 1.00039 0.42001 0.45593 0.0
C526 C 0.99784 0.41568 0.52729 0.0
C527 C 0.9972 0.43301 0.57541 0.0
H528 H 0.88908 0.0187 0.15615 0.0
H529 H 0.84501 0.97998 0.02842 0.0
H530 H 0.91895 0.01336 0.07201 0.0
H531 H 0.87497 0.9744 0.94462 0.0
H532 H 0.92132 1.00355 0.7727 0.0
H533 H 0.89325 1.00069 0.86305 0.0
H534 H 0.94423 0.986 0.01348 0.0
H535 H 0.97254 0.98886 0.92252 0.0
C536 C 0.8859 0.00871 0.11068 0.0
C537 C 0.86462 0.99989 0.09879 0.0
C538 C 0.90306 1.00552 0.06268 0.0
C539 C 0.8993 0.99361 1.00128 0.0
C540 C 0.87834 0.98386 0.99106 0.0
C541 C 0.86123 0.98687 0.03941 0.0
C542 C 0.92659 0.99947 0.82484 0.0
C543 C 0.94923 0.99655 0.84034 0.0
C544 C 0.91044 0.99766 0.87663 0.0
C545 C 0.91647 0.99312 0.94556 0.0
C546 C 0.93906 0.98964 0.96093 0.0
C547 C 0.95525 0.99116 0.90876 0.0
H548 H 0.52697 0.85482 0.04697 0.0
H549 H 0.47687 0.89257 0.15529 0.0
H550 H 0.53392 0.8865 0.97094 0.0
H551 H 0.48302 0.92381 0.07742 0.0
H552 H 0.50629 0.98218 0.94853 0.0
H553 H 0.50645 0.953 0.03673 0.0
H554 H 0.51475 0.90362 0.87688 0.0
H555 H 0.51519 0.93267 0.78945 0.0
C556 C 0.51771 0.86999 0.05544 0.0
C557 C 0.5012 0.87101 0.10694 0.0
C558 C 0.52146 0.88809 0.0111 0.0
C559 C 0.50879 0.90768 0.01703 0.0
C560 C 0.49319 0.90911 0.07118 0.0
C561 C 0.48949 0.89106 0.11556 0.0
C562 C 0.50834 0.96511 0.93231 0.0
C563 C 0.51067 0.95984 0.86173 0.0
C564 C 0.50834 0.94833 0.98292 0.0
C565 C 0.51061 0.92584 0.96422 0.0
C566 C 0.51336 0.9207 0.89367 0.0
C567 C 0.51343 0.93743 0.84325 0.0
H568 H 0.6623 0.47352 0.96235 0.0
H569 H 0.63033 0.51115 0.1242 0.0
H570 H 0.63142 0.48122 0.88497 0.0
H571 H 0.59922 0.51928 0.04563 0.0
H572 H 0.5371 0.50189 0.90624 0.0
H573 H 0.56806 0.49892 0.98783 0.0
H574 H 0.61426 0.5115 0.82107 0.0
H575 H 0.58358 0.51417 0.73976 0.0
C576 C 0.64866 0.48357 0.98132 0.0
C577 C 0.64871 0.49158 0.04966 0.0
C578 C 0.63101 0.48816 0.93665 0.0
C579 C 0.61279 0.5009 0.9589 0.0
C580 C 0.61292 0.50927 0.027 0.0
C581 C 0.6308 0.5048 0.07179 0.0
C582 C 0.55385 0.50421 0.88711 0.0
C583 C 0.55778 0.50812 0.81619 0.0
C584 C 0.5716 0.50263 0.93401 0.0
C585 C 0.59369 0.5048 0.911 0.0
C586 C 0.5975 0.5094 0.84049 0.0
C587 C 0.57983 0.51104 0.79382 0.0
H588 H 0.9555 0.64878 0.06953 0.0
H589 H 0.02447 0.63659 0.11738 0.0
H590 H 0.95574 0.6171 0.99002 0.0
H591 H 0.02463 0.60501 0.03867 0.0
H592 H 0.02376 0.57195 0.82339 0.0
H593 H 0.02205 0.60134 0.90956 0.0
H594 H 0.96026 0.57482 0.98716 0.0
H595 H 0.96198 0.54511 0.9007 0.0
C596 C 0.97063 0.63923 0.06361 0.0
C597 C 0.98994 0.64522 0.10003 0.0
C598 C 0.97073 0.62102 0.01838 0.0
C599 C 0.99025 0.6086 0.00771 0.0
C600 C 0.00939 0.61434 0.04522 0.0
C601 C 0.00921 0.63232 0.09096 0.0
C602 C 0.00979 0.57228 0.85879 0.0
C603 C 0.99301 0.5561 0.85503 0.0
C604 C 0.00889 0.5891 0.90853 0.0
C605 C 0.99106 0.5904 0.95546 0.0
C606 C 0.97416 0.57434 0.95154 0.0
C607 C 0.97521 0.55726 0.90224 0.0
H608 H 0.04637 0.21264 0.40882 0.0
H609 H 0.09553 0.17139 0.30804 0.0
H610 H 0.02854 0.18003 0.45518 0.0
H611 H 0.07701 0.13839 0.35384 0.0
H612 H 0.0124 0.09523 0.32766 0.0
H613 H 0.04017 0.12434 0.31417 0.0
H614 H 0.02801 0.14578 0.52422 0.0
H615 H 1.0003 0.11659 0.53788 0.0
C616 C 0.05407 0.19672 0.39888 0.0
C617 C 0.07215 0.19472 0.35294 0.0
C618 C 0.04364 0.17789 0.42537 0.0
C619 C 0.051 0.15665 0.40646 0.0
C620 C 0.07065 0.15461 0.36766 0.0
C621 C 0.08127 0.17352 0.34161 0.0
C622 C 0.0158 0.10603 0.3711 0.0
C623 C 1.00386 0.10389 0.43329 0.0
C624 C 0.03187 0.12255 0.36369 0.0
C625 C 0.03636 0.13726 0.41834 0.0
C626 C 0.0248 0.13478 0.4811 0.0
C627 C 0.00875 0.11825 0.48855 0.0
H628 H 0.31207 0.97206 0.50813 0.0
H629 H 0.29356 0.90685 0.43772 0.0
H630 H 0.33972 0.95598 0.58417 0.0
H631 H 0.32125 0.89024 0.51539 0.0
H632 H 0.40037 0.88853 0.51624 0.0
H633 H 0.36063 0.89072 0.49781 0.0
H634 H 0.35433 0.93385 0.67521 0.0
H635 H 0.39423 0.93306 0.6904 0.0
C636 C 0.31342 0.95414 0.51129 0.0
C637 C 0.30108 0.94065 0.46677 0.0
C638 C 0.32914 0.9448 0.55537 0.0
C639 C 0.333 0.92173 0.55535 0.0
C640 C 0.3189 0.90807 0.51592 0.0
C641 C 0.30301 0.9175 0.47181 0.0
C642 C 0.39046 0.89806 0.55236 0.0
C643 C 0.40067 0.91146 0.60255 0.0
C644 C 0.36752 0.89907 0.54245 0.0
C645 C 0.35438 0.91324 0.58339 0.0
C646 C 0.36412 0.9234 0.6413 0.0
C647 C 0.3871 0.92273 0.65042 0.0
H648 H 0.53176 0.31731 0.54341 0.0
H649 H 0.59444 0.29031 0.47566 0.0
H650 H 0.55096 0.34522 0.61016 0.0
H651 H 0.6141 0.31813 0.54426 0.0
H652 H 0.62222 0.39581 0.50732 0.0
H653 H 0.61696 0.35597 0.50947 0.0
H654 H 0.57507 0.36224 0.69042 0.0
H655 H 0.57906 0.40222 0.68523 0.0
C656 C 0.54974 0.3168 0.54553 0.0
C657 C 0.56166 0.30212 0.50338 0.0
C658 C 0.56088 0.33273 0.58433 0.0
C659 C 0.5842 0.33435 0.58127 0.0
C660 C 0.59614 0.31763 0.54651 0.0
C661 C 0.58492 0.30161 0.50764 0.0
C662 C 0.61239 0.38864 0.54875 0.0
C663 C 0.60027 0.4023 0.59394 0.0
C664 C 0.60958 0.36565 0.5507 0.0
C665 C 0.59479 0.35594 0.59851 0.0
C666 C 0.58597 0.36929 0.65145 0.0
C667 C 0.58848 0.39231 0.64881 0.0
H668 H 0.2037 0.55077 0.4983 0.0
H669 H 0.20937 0.6169 0.4136 0.0
H670 H 0.17223 0.56226 0.56709 0.0
H671 H 0.17818 0.62897 0.48527 0.0
H672 H 0.10093 0.62059 0.48514 0.0
H673 H 0.14062 0.62213 0.46649 0.0
H674 H 0.15102 0.58127 0.6483 0.0
H675 H 0.11115 0.5782 0.66338 0.0
C676 C 0.19884 0.56809 0.49697 0.0
C677 C 0.20865 0.58284 0.44965 0.0
C678 C 0.18073 0.5748 0.5368 0.0
C679 C 0.17218 0.5965 0.53062 0.0
C680 C 0.18387 0.61197 0.48974 0.0
C681 C 0.2018 0.60513 0.449 0.0
C682 C 0.11169 0.61217 0.52172 0.0
C683 C 0.10278 0.59859 0.57405 0.0
C684 C 0.1346 0.61335 0.51177 0.0
C685 C 0.14915 0.60124 0.55471 0.0
C686 C 0.1403 0.59021 0.61285 0.0
C687 C 0.11735 0.5887 0.62205 0.0
H688 H 0.06616 0.796 0.95554 0.0
H689 H 0.12169 0.8111 0.08875 0.0
H690 H 0.0729 0.82956 0.89006 0.0
H691 H 0.12853 0.84505 0.02249 0.0
H692 H 0.09606 0.91567 0.9912 0.0
H693 H 0.10574 0.87824 0.02689 0.0
H694 H 0.09396 0.85484 0.81871 0.0
H695 H 0.08405 0.89252 0.78308 0.0
C696 C 0.08047 0.80596 0.96904 0.0
C697 C 0.0931 0.8011 0.02837 0.0
C698 C 0.08434 0.82534 0.9313 0.0
C699 C 0.10095 0.84027 0.95203 0.0
C700 C 0.11526 0.83411 0.00631 0.0
C701 C 0.11137 0.81467 0.04416 0.0
C702 C 0.09618 0.90269 0.9525 0.0
C703 C 0.08892 0.90695 0.88467 0.0
C704 C 0.10186 0.88118 0.97286 0.0
C705 C 0.10044 0.86347 0.92576 0.0
C706 C 0.09488 0.86807 0.85646 0.0
C707 C 0.08913 0.8896 0.83615 0.0
H708 H 0.69403 0.13906 0.11497 0.0
H709 H 0.71329 0.08954 0.96504 0.0
H710 H 0.6609 0.14738 0.04673 0.0
H711 H 0.6804 0.09766 0.89761 0.0
H712 H 0.61801 0.10991 0.78876 0.0
H713 H 0.65478 0.12035 0.83101 0.0
H714 H 0.62892 0.12323 0.03972 0.0
H715 H 0.59263 0.11275 0.99812 0.0
C716 C 0.69153 0.13042 0.06647 0.0
C717 C 0.70603 0.11332 0.04619 0.0
C718 C 0.67257 0.13517 0.02743 0.0
C719 C 0.66774 0.12283 0.96758 0.0
C720 C 0.6836 0.10758 0.94321 0.0
C721 C 0.70255 0.10289 0.98209 0.0
C722 C 0.62014 0.1132 0.84348 0.0
C723 C 0.60243 0.11013 0.89015 0.0
C724 C 0.64117 0.11926 0.8676 0.0
C725 C 0.64487 0.12241 0.93882 0.0
C726 C 0.62668 0.12125 0.98442 0.0
C727 C 0.60575 0.11516 0.96043 0.0
H728 H 0.42519 0.71526 0.91932 0.0
H729 H 0.36864 0.69759 0.04583 0.0
H730 H 0.41989 0.68212 0.85062 0.0
H731 H 0.36338 0.66411 0.97675 0.0
H732 H 0.40062 0.59546 0.94892 0.0
H733 H 0.38859 0.63205 0.98377 0.0
H734 H 0.39913 0.65639 0.7756 0.0
H735 H 0.41086 0.6193 0.73977 0.0
C736 C 0.411 0.70483 0.93064 0.0
C737 C 0.39764 0.70881 0.98909 0.0
C738 C 0.40795 0.68574 0.89106 0.0
C739 C 0.39151 0.67023 0.90923 0.0
C740 C 0.37649 0.67555 0.96247 0.0
C741 C 0.37951 0.69469 1.00202 0.0
C742 C 0.39957 0.60828 0.90961 0.0
C743 C 0.40708 0.60444 0.84171 0.0
C744 C 0.3926 0.62938 0.92972 0.0
C745 C 0.39309 0.6472 0.88258 0.0
C746 C 0.39885 0.64302 0.81326 0.0
C747 C 0.40569 0.62181 0.79294 0.0
H748 H 0.79066 0.39122 0.95646 0.0
H749 H 0.83161 0.36662 0.12382 0.0
H750 H 0.82086 0.38524 0.87591 0.0
H751 H 0.86253 0.36299 0.04475 0.0
H752 H 0.92028 0.36807 0.91179 0.0
H753 H 0.88507 0.35285 0.95314 0.0
H754 H 0.85055 0.40869 0.86117 0.0
H755 H 0.88523 0.42304 0.81831 0.0
C756 C 0.80587 0.38399 0.97617 0.0
C757 C 0.80893 0.38035 0.04759 0.0
C758 C 0.82342 0.38091 0.9298 0.0
C759 C 0.84459 0.37477 0.95403 0.0
C760 C 0.84668 0.36811 0.0237 0.0
C761 C 0.82895 0.37058 0.0697 0.0
C762 C 0.905 0.37662 0.89885 0.0
C763 C 0.90553 0.39689 0.86266 0.0
C764 C 0.88481 0.36799 0.92278 0.0
C765 C 0.86484 0.3797 0.91209 0.0
C766 C 0.86534 0.39889 0.87017 0.0
C767 C 0.8854 0.40729 0.84554 0.0
H768 H 0.04484 0.17771 0.91355 0.0
H769 H 0.97737 0.1921 0.8526 0.0
H770 H 0.04151 0.14049 0.8665 0.0
H771 H 0.97391 0.15436 0.80608 0.0
H772 H 0.98653 0.09118 0.66906 0.0
H773 H 0.98884 0.12944 0.71103 0.0
H774 H 0.02137 0.10624 0.89681 0.0
H775 H 0.01917 0.0682 0.85524 0.0
C776 C 0.02933 0.17305 0.88933 0.0
C777 C 0.01143 0.18809 0.88645 0.0
C778 C 0.02734 0.15153 0.86305 0.0
C779 C 0.00741 0.14432 0.83274 0.0
C780 C 0.98955 0.15941 0.82871 0.0
C781 C 0.99148 0.18098 0.85577 0.0
C782 C 0.99418 0.09423 0.7189 0.0
C783 C 1.00272 0.0765 0.75861 0.0
C784 C 0.99537 0.11618 0.74311 0.0
C785 C 1.00535 0.12098 0.80724 0.0
C786 C 0.01382 0.10323 0.84683 0.0
C787 C 0.01246 0.08134 0.82302 0.0
H788 H 0.34964 0.03726 0.0271 0.0
H789 H 0.32021 1.00253 0.85481 0.0
H790 H 0.38544 0.03687 0.96838 0.0
H791 H 0.3561 1.00214 0.79594 0.0
H792 H 0.42858 0.9812 0.75428 0.0
H793 H 0.39178 0.98421 0.80603 0.0
H794 H 0.40675 0.05096 0.87222 0.0
H795 H 0.44374 0.04781 0.82161 0.0
C796 C 0.35066 0.02994 0.97603 0.0
C797 C 0.33192 0.01991 0.94592 0.0
C798 C 0.37129 0.02966 0.9423 0.0
C799 C 0.37382 0.01934 0.87741 0.0
C800 C 0.35494 0.00987 0.84639 0.0
C801 C 0.3343 0.01015 0.88013 0.0
C802 C 0.42404 0.99658 0.77963 0.0
C803 C 0.43926 0.01424 0.78382 0.0
C804 C 0.40281 0.99836 0.80901 0.0
C805 C 0.39617 0.01784 0.84352 0.0
C806 C 0.41131 0.03559 0.84694 0.0
C807 C 0.43254 0.03383 0.81747 0.0
H808 H 0.54263 0.3371 0.90813 0.0
H809 H 0.4714 0.33702 0.93374 0.0
H810 H 0.54028 0.3712 0.84153 0.0
H811 H 0.46883 0.37061 0.86309 0.0
H812 H 0.47555 0.4455 0.81603 0.0
H813 H 0.47572 0.40897 0.87057 0.0
H814 H 0.53059 0.38932 0.7396 0.0
H815 H 0.53099 0.42613 0.6875 0.0
C816 C 0.52638 0.34421 0.89881 0.0
C817 C 0.50724 0.33436 0.92744 0.0
C818 C 0.52498 0.36374 0.85961 0.0
C819 C 0.50435 0.37401 0.84696 0.0
C820 C 0.48507 0.36355 0.87271 0.0
C821 C 0.4865 0.34402 0.91245 0.0
C822 C 0.48756 0.43333 0.79859 0.0
C823 C 0.50335 0.43889 0.74767 0.0
C824 C 0.48758 0.41223 0.82961 0.0
C825 C 0.50323 0.39598 0.81009 0.0
C826 C 0.51855 0.40139 0.7574 0.0
C827 C 0.5187 0.42256 0.72703 0.0
H828 H 0.1749 0.53441 0.86599 0.0
H829 H 0.16227 0.47352 0.97783 0.0
H830 H 0.13873 0.5316 0.81052 0.0
H831 H 0.1264 0.4702 0.92012 0.0
H832 H 0.05314 0.48792 0.87767 0.0
H833 H 0.09065 0.48769 0.92444 0.0
H834 H 0.11586 0.51235 0.72926 0.0
H835 H 0.07818 0.51306 0.68288 0.0
C836 C 0.16452 0.52025 0.87823 0.0
C837 C 0.17154 0.50431 0.92707 0.0
C838 C 0.14379 0.51852 0.84577 0.0
C839 C 0.1294 0.50076 0.86104 0.0
C840 C 0.1368 0.48432 0.90779 0.0
C841 C 0.15757 0.48606 0.94026 0.0
C842 C 0.06666 0.49321 0.84445 0.0
C843 C 0.0625 0.50055 0.77639 0.0
C844 C 0.08829 0.49291 0.87123 0.0
C845 C 0.10646 0.49997 0.83082 0.0
C846 C 0.10233 0.50703 0.76236 0.0
C847 C 0.08067 0.50731 0.73552 0.0
H848 H 0.03148 0.84223 0.46183 0.0
H849 H 0.96181 0.83189 0.50395 0.0
H850 H 0.02945 0.87868 0.51429 0.0
H851 H 0.95976 0.8687 0.55722 0.0
H852 H 0.96106 0.94577 0.57834 0.0
H853 H 0.96126 0.90813 0.53168 0.0
H854 H 0.02572 0.89677 0.62311 0.0
H855 H 0.0258 0.93443 0.66789 0.0
C856 C 0.01575 0.84755 0.4834 0.0
C857 C 0.99688 0.83383 0.47938 0.0
C858 C 0.01458 0.86859 0.5136 0.0
C859 C 0.9945 0.8767 0.5409 0.0
C860 C 0.9755 0.86313 0.53637 0.0
C861 C 0.97667 0.84197 0.5059 0.0
C862 C 0.97523 0.93521 0.58883 0.0
C863 C 0.99348 0.94331 0.62662 0.0
C864 C 0.97529 0.91352 0.5623 0.0
C865 C 0.99359 0.89933 0.57293 0.0
C866 C 0.01152 0.90728 0.61249 0.0
C867 C 0.0115 0.92892 0.63872 0.0
H868 H 0.68138 0.0366 0.52373 0.0
H869 H 0.67105 0.97024 0.4461 0.0
H870 H 0.64545 0.03529 0.58152 0.0
H871 H 0.63499 0.96899 0.50381 0.0
H872 H 0.56144 0.98737 0.53481 0.0
H873 H 0.59898 0.98631 0.48858 0.0
H874 H 0.62334 0.01828 0.67337 0.0
H875 H 0.58555 0.01966 0.71956 0.0
C876 C 0.67169 0.02151 0.52013 0.0
C877 C 0.67921 1.00353 0.47991 0.0
C878 C 0.65099 0.0208 0.55327 0.0
C879 C 0.63717 1.00211 0.54701 0.0
C880 C 0.64499 0.98383 0.50873 0.0
C881 C 0.66571 0.98453 0.47567 0.0
C882 C 0.57475 0.99413 0.56594 0.0
C883 C 0.57035 1.00366 0.63101 0.0
C884 C 0.59638 0.99335 0.53951 0.0
C885 C 0.61429 1.00214 0.57721 0.0
C886 C 0.60995 0.01153 0.64259 0.0
C887 C 0.58826 0.01223 0.66925 0.0
H888 H 0.47265 0.66196 0.38144 0.0
H889 H 0.51977 0.69017 0.52429 0.0
H890 H 0.47906 0.62522 0.4308 0.0
H891 H 0.52612 0.65304 0.57482 0.0
H892 H 0.50453 0.58573 0.69073 0.0
H893 H 0.50241 0.62354 0.64359 0.0
H894 H 0.5109 0.5977 0.43704 0.0
H895 H 0.51317 0.56015 0.48351 0.0
C896 C 0.48443 0.66025 0.42351 0.0
C897 C 0.49566 0.67893 0.4492 0.0
C898 C 0.48819 0.63919 0.45155 0.0
C899 C 0.5031 0.63621 0.50669 0.0
C900 C 0.51445 0.65486 0.53255 0.0
C901 C 0.51094 0.67603 0.50347 0.0
C902 C 0.50613 0.58814 0.63532 0.0
C903 C 0.50893 0.56982 0.59098 0.0
C904 C 0.50505 0.60981 0.60843 0.0
C905 C 0.50642 0.61359 0.53659 0.0
C906 C 0.50962 0.59533 0.49257 0.0
C907 C 0.51098 0.57377 0.51936 0.0
H908 H 0.81199 0.49106 0.56793 0.0
H909 H 0.84115 0.51416 0.37631 0.0
H910 H 0.84762 0.49569 0.62604 0.0
H911 H 0.8767 0.51894 0.43461 0.0
H912 H 0.93447 0.53995 0.57339 0.0
H913 H 0.89744 0.53955 0.52203 0.0
H914 H 0.88366 0.47726 0.62466 0.0
H915 H 0.92049 0.47775 0.67663 0.0
C916 C 0.82594 0.49726 0.53819 0.0
C917 C 0.8236 0.50209 0.46712 0.0
C918 C 0.84642 0.49987 0.57156 0.0
C919 C 0.86518 0.50747 0.53498 0.0
C920 C 0.86262 0.51324 0.4647 0.0
C921 C 0.84214 0.51057 0.43123 0.0
C922 C 0.9235 0.52623 0.58547 0.0
C923 C 0.93058 0.50887 0.62925 0.0
C924 C 0.90228 0.52595 0.55561 0.0
C925 C 0.88748 0.50838 0.56904 0.0
C926 C 0.89444 0.49123 0.61377 0.0
C927 C 0.91568 0.49144 0.64331 0.0
loop_
_geom_bond_atom_site_label_1
_geom_bond_atom_site_label_2
_geom_bond_distance
_geom_bond_site_symmetry_2
_ccdc_geom_bond_type
C0 C1 1.384 . S
C0 H13 0.947 . S
C0 C35 1.382 . S
C1 C0 1.384 . S
C1 C2 1.378 . S
C2 C1 1.378 . S
C2 C3 1.378 . S
C2 H14 0.952 . S
C3 C2 1.378 . S
C3 H15 0.950 . S
C3 C34 1.383 . S
H4 C23 0.947 . S
H5 C24 0.946 . S
H6 C26 0.953 . S
H7 C27 0.945 . S
H8 C29 0.952 . S
H9 C30 0.949 . S
H10 C32 0.950 . S
H11 C33 0.948 . S
H12 C35 0.951 . S
H13 C0 0.947 . S
H14 C2 0.952 . S
H15 C3 0.950 . S
N16 C19 1.382 . S
N16 C21 1.363 . S
N17 C19 1.371 . S
N17 C20 1.372 . S
N18 C20 1.361 . S
N18 C21 1.377 . S
C19 N16 1.382 . S
C19 N17 1.371 . S
C19 C22 1.480 . S
C20 N17 1.372 . S
C20 N18 1.361 . S
C20 C28 1.457 . S
C21 N16 1.363 . S
C21 N18 1.377 . S
C21 C34 1.479 . S
C22 C19 1.480 . S
C22 C23 1.383 . S
C22 C27 1.385 . S
C23 H4 0.947 . S
C23 C22 1.383 . S
C23 C24 1.388 . S
C24 H5 0.946 . S
C24 C23 1.388 . S
C24 C25 1.384 . S
C25 C24 1.384 . S
C25 C26 1.377 . S
C26 H6 0.953 . S
C26 C25 1.377 . S
C26 C27 1.369 . S
C27 H7 0.945 . S
C27 C22 1.385 . S
C27 C26 1.369 . S
C28 C20 1.457 . S
C28 C29 1.372 . S
C28 C33 1.364 . S
C29 H8 0.952 . S
C29 C28 1.372 . S
C29 C30 1.389 . S
C30 H9 0.949 . S
C30 C29 1.389 . S
C30 C31 1.387 . S
C31 C30 1.387 . S
C31 C32 1.372 . S
C32 H10 0.950 . S
C32 C31 1.372 . S
C32 C33 1.379 . S
C33 H11 0.948 . S
C33 C28 1.364 . S
C33 C32 1.379 . S
C34 C3 1.383 . S
C34 C21 1.479 . S
C34 C35 1.398 . S
C35 C0 1.382 . S
C35 H12 0.951 . S
C35 C34 1.398 . S
C36 C37 1.384 1_655 S
C36 H49 0.948 . S
C36 C71 1.382 1_655 S
C37 C36 1.384 1_455 S
C37 C38 1.378 . S
C38 C37 1.378 . S
C38 C39 1.378 . S
C38 H50 0.952 . S
C39 C38 1.378 . S
C39 H51 0.950 . S
C39 C70 1.383 . S
H40 C59 0.947 . S
H41 C60 0.952 . S
H42 C62 0.953 . S
H43 C63 0.945 . S
H44 C65 0.949 1_655 S
H45 C66 0.956 . S
H46 C68 0.950 . S
H47 C69 0.948 . S
H48 C71 0.951 1_655 S
H49 C36 0.948 . S
H50 C38 0.952 . S
H51 C39 0.950 . S
N52 C55 1.382 . S
N52 C57 1.363 . S
N53 C55 1.371 . S
N53 C56 1.372 . S
N54 C56 1.361 . S
N54 C57 1.377 . S
C55 N52 1.382 . S
C55 N53 1.371 . S
C55 C58 1.480 . S
C56 N53 1.372 . S
C56 N54 1.361 . S
C56 C64 1.457 . S
C57 N52 1.363 . S
C57 N54 1.377 . S
C57 C70 1.479 . S
C58 C55 1.480 . S
C58 C59 1.383 . S
C58 C63 1.385 . S
C59 H40 0.947 . S
C59 C58 1.383 . S
C59 C60 1.386 1_455 S
C60 H41 0.952 . S
C60 C59 1.386 1_655 S
C60 C61 1.381 1_655 S
C61 C60 1.381 1_455 S
C61 C62 1.377 . S
C62 H42 0.953 . S
C62 C61 1.377 . S
C62 C63 1.369 . S
C63 H43 0.945 . S
C63 C58 1.385 . S
C63 C62 1.369 . S
C64 C56 1.457 . S
C64 C65 1.376 . S
C64 C69 1.364 . S
C65 H44 0.949 1_455 S
C65 C64 1.376 . S
C65 C66 1.386 1_455 S
C66 H45 0.956 . S
C66 C65 1.386 1_655 S
C66 C67 1.383 1_655 S
C67 C66 1.383 1_455 S
C67 C68 1.372 . S
C68 H46 0.950 . S
C68 C67 1.372 . S
C68 C69 1.379 . S
C69 H47 0.948 . S
C69 C64 1.364 . S
C69 C68 1.379 . S
C70 C39 1.383 . S
C70 C57 1.479 . S
C70 C71 1.398 . S
C71 C36 1.382 1_455 S
C71 H48 0.951 1_455 S
C71 C70 1.398 . S
C72 C73 1.384 1_565 S
C72 H85 0.948 . S
C72 C107 1.382 1_565 S
C73 C72 1.384 1_545 S
C73 C74 1.378 . S
C74 C73 1.378 . S
C74 C75 1.378 . S
C74 H86 0.952 . S
C75 C74 1.378 . S
C75 H87 0.950 . S
C75 C106 1.383 . S
H76 C95 0.947 . S
H77 C96 0.952 . S
H78 C98 0.953 . S
H79 C99 0.945 . S
H80 C101 0.949 1_565 S
H81 C102 0.957 . S
H82 C104 0.950 . S
H83 C105 0.948 . S
H84 C107 0.951 1_565 S
H85 C72 0.948 . S
H86 C74 0.952 . S
H87 C75 0.950 . S
N88 C91 1.382 . S
N88 C93 1.363 . S
N89 C91 1.371 . S
N89 C92 1.372 . S
N90 C92 1.361 . S
N90 C93 1.377 . S
C91 N88 1.382 . S
C91 N89 1.371 . S
C91 C94 1.480 . S
C92 N89 1.372 . S
C92 N90 1.361 . S
C92 C100 1.457 . S
C93 N88 1.363 . S
C93 N90 1.377 . S
C93 C106 1.479 . S
C94 C91 1.480 . S
C94 C95 1.383 . S
C94 C99 1.385 . S
C95 H76 0.947 . S
C95 C94 1.383 . S
C95 C96 1.386 1_545 S
C96 H77 0.952 . S
C96 C95 1.386 1_565 S
C96 C97 1.382 1_565 S
C97 C96 1.382 1_545 S
C97 C98 1.377 . S
C98 H78 0.953 . S
C98 C97 1.377 . S
C98 C99 1.369 . S
C99 H79 0.945 . S
C99 C94 1.385 . S
C99 C98 1.369 . S
C100 C92 1.457 . S
C100 C101 1.376 . S
C100 C105 1.364 . S
C101 H80 0.949 1_545 S
C101 C100 1.376 . S
C101 C102 1.386 1_545 S
C102 H81 0.957 . S
C102 C101 1.386 1_565 S
C102 C103 1.383 1_565 S
C103 C102 1.383 1_545 S
C103 C104 1.372 . S
C104 H82 0.950 . S
C104 C103 1.372 . S
C104 C105 1.379 . S
C105 H83 0.948 . S
C105 C100 1.364 . S
C105 C104 1.379 . S
C106 C75 1.383 . S
C106 C93 1.479 . S
C106 C107 1.398 . S
C107 C72 1.382 1_545 S
C107 H84 0.951 1_545 S
C107 C106 1.398 . S
C108 C109 1.384 . S
C108 H121 0.947 . S
C108 C143 1.382 . S
C109 C108 1.384 . S
C109 C110 1.378 . S
C110 C109 1.378 . S
C110 C111 1.378 . S
C110 H122 0.952 . S
C111 C110 1.378 . S
C111 H123 0.950 . S
C111 C142 1.383 . S
H112 C131 0.947 . S
H113 C132 0.946 . S
H114 C134 0.953 . S
H115 C135 0.945 . S
H116 C137 0.952 . S
H117 C138 0.949 . S
H118 C140 0.950 . S
H119 C141 0.948 . S
H120 C143 0.951 . S
H121 C108 0.947 . S
H122 C110 0.952 . S
H123 C111 0.950 . S
N124 C127 1.382 . S
N124 C129 1.363 . S
N125 C127 1.371 . S
N125 C128 1.372 . S
N126 C128 1.361 . S
N126 C129 1.377 . S
C127 N124 1.382 . S
C127 N125 1.371 . S
C127 C130 1.480 . S
C128 N125 1.372 . S
C128 N126 1.361 . S
C128 C136 1.457 . S
C129 N124 1.363 . S
C129 N126 1.377 . S
C129 C142 1.479 . S
C130 C127 1.480 . S
C130 C131 1.383 . S
C130 C135 1.385 . S
C131 H112 0.947 . S
C131 C130 1.383 . S
C131 C132 1.388 . S
C132 H113 0.946 . S
C132 C131 1.388 . S
C132 C133 1.384 . S
C133 C132 1.384 . S
C133 C134 1.377 . S
C134 H114 0.953 . S
C134 C133 1.377 . S
C134 C135 1.369 . S
C135 H115 0.945 . S
C135 C130 1.385 . S
C135 C134 1.369 . S
C136 C128 1.457 . S
C136 C137 1.372 . S
C136 C141 1.364 . S
C137 H116 0.952 . S
C137 C136 1.372 . S
C137 C138 1.389 . S
C138 H117 0.949 . S
C138 C137 1.389 . S
C138 C139 1.387 . S
C139 C138 1.387 . S
C139 C140 1.372 . S
C140 H118 0.950 . S
C140 C139 1.372 . S
C140 C141 1.379 . S
C141 H119 0.948 . S
C141 C136 1.364 . S
C141 C140 1.379 . S
C142 C111 1.383 . S
C142 C129 1.479 . S
C142 C143 1.398 . S
C143 C108 1.382 . S
C143 H120 0.951 . S
C143 C142 1.398 . S
C144 C145 1.384 . S
C144 H157 0.947 . S
C144 C179 1.382 . S
C145 C144 1.384 . S
C145 C146 1.378 . S
C146 C145 1.378 . S
C146 C147 1.378 . S
C146 H158 0.952 . S
C147 C146 1.378 . S
C147 H159 0.950 . S
C147 C178 1.383 . S
H148 C167 0.947 1_556 S
H149 C168 0.946 . S
H150 C170 0.953 . S
H151 C171 0.945 . S
H152 C173 0.952 . S
H153 C174 0.949 . S
H154 C176 0.950 . S
H155 C177 0.948 . S
H156 C179 0.951 . S
H157 C144 0.947 . S
H158 C146 0.952 . S
H159 C147 0.950 . S
N160 C163 1.382 . S
N160 C165 1.363 1_554 S
N161 C163 1.371 . S
N161 C164 1.372 . S
N162 C164 1.361 . S
N162 C165 1.377 1_554 S
C163 N160 1.382 . S
C163 N161 1.371 . S
C163 C166 1.480 . S
C164 N161 1.372 . S
C164 N162 1.361 . S
C164 C172 1.457 . S
C165 N160 1.363 1_556 S
C165 N162 1.377 1_556 S
C165 C178 1.479 . S
C166 C163 1.480 . S
C166 C167 1.383 . S
C166 C171 1.385 . S
C167 H148 0.947 1_554 S
C167 C166 1.383 . S
C167 C168 1.388 . S
C168 H149 0.946 . S
C168 C167 1.388 . S
C168 C169 1.384 . S
C169 C168 1.384 . S
C169 C170 1.377 . S
C170 H150 0.953 . S
C170 C169 1.377 . S
C170 C171 1.369 . S
C171 H151 0.945 . S
C171 C166 1.385 . S
C171 C170 1.369 . S
C172 C164 1.457 . S
C172 C173 1.372 . S
C172 C177 1.364 . S
C173 H152 0.952 . S
C173 C172 1.372 . S
C173 C174 1.389 . S
C174 H153 0.949 . S
C174 C173 1.389 . S
C174 C175 1.387 . S
C175 C174 1.387 . S
C175 C176 1.372 . S
C176 H154 0.950 . S
C176 C175 1.372 . S
C176 C177 1.379 . S
C177 H155 0.948 . S
C177 C172 1.364 . S
C177 C176 1.379 . S
C178 C147 1.383 . S
C178 C165 1.479 . S
C178 C179 1.398 . S
C179 C144 1.382 . S
C179 H156 0.951 . S
C179 C178 1.398 . S
C180 C181 1.384 . S
C180 H193 0.948 1_455 S
C180 C215 1.382 . S
C181 C180 1.384 . S
C181 C182 1.378 . S
C182 C181 1.378 . S
C182 C183 1.378 . S
C182 H194 0.952 . S
C183 C182 1.378 . S
C183 H195 0.950 . S
C183 C214 1.383 . S
H184 C203 0.947 1_556 S
H185 C204 0.949 . S
H186 C206 0.953 . S
H187 C207 0.945 . S
H188 C209 0.947 1_655 S
H189 C210 0.954 . S
H190 C212 0.950 . S
H191 C213 0.948 . S
H192 C215 0.950 1_655 S
H193 C180 0.948 1_655 S
H194 C182 0.952 . S
H195 C183 0.950 . S
N196 C199 1.382 . S
N196 C201 1.363 1_554 S
N197 C199 1.371 . S
N197 C200 1.372 . S
N198 C200 1.361 . S
N198 C201 1.377 1_554 S
C199 N196 1.382 . S
C199 N197 1.371 . S
C199 C202 1.480 . S
C200 N197 1.372 . S
C200 N198 1.361 . S
C200 C208 1.457 . S
C201 N196 1.363 1_556 S
C201 N198 1.377 1_556 S
C201 C214 1.479 . S
C202 C199 1.480 . S
C202 C203 1.383 . S
C202 C207 1.385 . S
C203 H184 0.947 1_554 S
C203 C202 1.383 . S
C203 C204 1.387 1_455 S
C204 H185 0.949 . S
C204 C203 1.387 1_655 S
C204 C205 1.382 1_655 S
C205 C204 1.382 1_455 S
C205 C206 1.377 . S
C206 H186 0.953 . S
C206 C205 1.377 . S
C206 C207 1.369 . S
C207 H187 0.945 . S
C207 C202 1.385 . S
C207 C206 1.369 . S
C208 C200 1.457 . S
C208 C209 1.379 . S
C208 C213 1.364 . S
C209 H188 0.947 1_455 S
C209 C208 1.379 . S
C209 C210 1.387 1_455 S
C210 H189 0.954 . S
C210 C209 1.387 1_655 S
C210 C211 1.384 1_655 S
C211 C210 1.384 1_455 S
C211 C212 1.372 . S
C212 H190 0.950 . S
C212 C211 1.372 . S
C212 C213 1.379 . S
C213 H191 0.948 . S
C213 C208 1.364 . S
C213 C212 1.379 . S
C214 C183 1.383 . S
C214 C201 1.479 . S
C214 C215 1.399 . S
C215 C180 1.382 . S
C215 H192 0.950 1_455 S
C215 C214 1.399 . S
C216 C217 1.384 . S
C216 H229 0.948 1_545 S
C216 C251 1.382 . S
C217 C216 1.384 . S
C217 C218 1.378 . S
C218 C217 1.378 . S
C218 C219 1.378 . S
C218 H230 0.952 . S
C219 C218 1.378 . S
C219 H231 0.950 . S
C219 C250 1.383 . S
H220 C239 0.947 1_556 S
H221 C240 0.949 . S
H222 C242 0.953 . S
H223 C243 0.945 . S
H224 C245 0.947 1_565 S
H225 C246 0.954 . S
H226 C248 0.950 . S
H227 C249 0.948 . S
H228 C251 0.950 1_565 S
H229 C216 0.948 1_565 S
H230 C218 0.952 . S
H231 C219 0.950 . S
N232 C235 1.382 . S
N232 C237 1.363 1_554 S
N233 C235 1.371 . S
N233 C236 1.372 . S
N234 C236 1.361 . S
N234 C237 1.377 1_554 S
C235 N232 1.382 . S
C235 N233 1.371 . S
C235 C238 1.480 . S
C236 N233 1.372 . S
C236 N234 1.361 . S
C236 C244 1.457 . S
C237 N232 1.363 1_556 S
C237 N234 1.377 1_556 S
C237 C250 1.479 . S
C238 C235 1.480 . S
C238 C239 1.383 . S
C238 C243 1.385 . S
C239 H220 0.947 1_554 S
C239 C238 1.383 . S
C239 C240 1.387 1_545 S
C240 H221 0.949 . S
C240 C239 1.387 1_565 S
C240 C241 1.382 1_565 S
C241 C240 1.382 1_545 S
C241 C242 1.377 . S
C242 H222 0.953 . S
C242 C241 1.377 . S
C242 C243 1.369 . S
C243 H223 0.945 . S
C243 C238 1.385 . S
C243 C242 1.369 . S
C244 C236 1.457 . S
C244 C245 1.379 . S
C244 C249 1.364 . S
C245 H224 0.947 1_545 S
C245 C244 1.379 . S
C245 C246 1.387 1_545 S
C246 H225 0.954 . S
C246 C245 1.387 1_565 S
C246 C247 1.384 1_565 S
C247 C246 1.384 1_545 S
C247 C248 1.372 . S
C248 H226 0.950 . S
C248 C247 1.372 . S
C248 C249 1.379 . S
C249 H227 0.948 . S
C249 C244 1.364 . S
C249 C248 1.379 . S
C250 C219 1.383 . S
C250 C237 1.479 . S
C250 C251 1.399 . S
C251 C216 1.382 . S
C251 H228 0.950 1_545 S
C251 C250 1.399 . S
C252 C253 1.384 . S
C252 H265 0.947 . S
C252 C287 1.382 . S
C253 C252 1.384 . S
C253 C254 1.378 . S
C254 C253 1.378 . S
C254 C255 1.378 . S
C254 H266 0.952 . S
C255 C254 1.378 . S
C255 H267 0.950 . S
C255 C286 1.383 . S
H256 C275 0.947 . S
H257 C276 0.946 . S
H258 C278 0.953 . S
H259 C279 0.945 1_556 S
H260 C281 0.952 . S
H261 C282 0.949 . S
H262 C284 0.950 . S
H263 C285 0.948 . S
H264 C287 0.951 . S
H265 C252 0.947 . S
H266 C254 0.952 . S
H267 C255 0.950 . S
N268 C271 1.382 . S
N268 C273 1.363 . S
N269 C271 1.371 1_556 S
N269 C272 1.372 . S
N270 C272 1.361 1_554 S
N270 C273 1.377 . S
C271 N268 1.382 . S
C271 N269 1.371 1_554 S
C271 C274 1.480 . S
C272 N269 1.372 . S
C272 N270 1.361 1_556 S
C272 C280 1.457 . S
C273 N268 1.363 . S
C273 N270 1.377 . S
C273 C286 1.479 . S
C274 C271 1.480 . S
C274 C275 1.383 . S
C274 C279 1.385 . S
C275 H256 0.947 . S
C275 C274 1.383 . S
C275 C276 1.388 . S
C276 H257 0.946 . S
C276 C275 1.388 . S
C276 C277 1.384 . S
C277 C276 1.384 . S
C277 C278 1.377 . S
C278 H258 0.953 . S
C278 C277 1.377 . S
C278 C279 1.369 . S
C279 H259 0.945 1_554 S
C279 C274 1.385 . S
C279 C278 1.369 . S
C280 C272 1.457 . S
C280 C281 1.372 . S
C280 C285 1.364 . S
C281 H260 0.952 . S
C281 C280 1.372 . S
C281 C282 1.389 . S
C282 H261 0.949 . S
C282 C281 1.389 . S
C282 C283 1.387 . S
C283 C282 1.387 . S
C283 C284 1.372 . S
C284 H262 0.950 . S
C284 C283 1.372 . S
C284 C285 1.379 . S
C285 H263 0.948 . S
C285 C280 1.364 . S
C285 C284 1.379 . S
C286 C255 1.383 . S
C286 C273 1.479 . S
C286 C287 1.398 . S
C287 C252 1.382 . S
C287 H264 0.951 . S
C287 C286 1.398 . S
Tb288 C298 2.825 . S
Tb288 O299 2.347 1_455 S
Tb288 O302 2.366 . S
Tb288 O307 2.418 . S
Tb288 O308 2.384 1_565 S
Tb288 O311 2.479 . S
Tb288 O312 2.471 . S
Eu289 O300 2.418 . S
Eu289 O301 2.384 1_545 S
Eu289 O304 2.479 . S
Eu289 O305 2.471 . S
Eu289 O306 2.347 1_655 S
Eu289 O309 2.366 . S
Eu289 C319 2.825 . S
C290 O306 1.259 1_565 S
C290 O307 1.265 . S
C291 O308 1.255 . S
C291 O309 1.265 1_455 S
C292 C294 1.380 . S
C292 C295 1.374 . S
C292 C298 1.507 . S
C293 C294 1.384 . S
C293 C297 1.387 . S
C293 H320 0.930 . S
C294 C292 1.380 . S
C294 C293 1.384 . S
C294 H321 0.931 . S
C295 C292 1.374 . S
C295 C296 1.390 . S
C295 H322 0.930 1_455 S
C296 C295 1.390 . S
C296 C297 1.391 . S
C296 H323 0.930 1_455 S
C297 C293 1.387 . S
C297 C296 1.391 . S
C298 Tb288 2.825 . S
C298 C292 1.507 . S
C298 O311 1.238 . S
C298 O312 1.247 . S
O299 Tb288 2.347 1_655 S
O299 C303 1.259 1_565 S
O300 Eu289 2.418 . S
O300 C303 1.265 . S
O301 Eu289 2.384 1_565 S
O301 C310 1.255 . S
O302 Tb288 2.366 . S
O302 C310 1.265 1_455 S
C303 O299 1.259 1_545 S
C303 O300 1.265 . S
O304 Eu289 2.479 . S
O304 C319 1.238 . S
O305 Eu289 2.471 . S
O305 C319 1.247 . S
O306 Eu289 2.347 1_455 S
O306 C290 1.259 1_545 S
O307 Tb288 2.418 . S
O307 C290 1.265 . S
O308 Tb288 2.384 1_545 S
O308 C291 1.255 . S
O309 Eu289 2.366 . S
O309 C291 1.265 1_655 S
C310 O301 1.255 . S
C310 O302 1.265 1_655 S
O311 Tb288 2.479 . S
O311 C298 1.238 . S
O312 Tb288 2.471 . S
O312 C298 1.247 . S
C313 C316 1.380 . S
C313 C317 1.374 . S
C313 C319 1.507 . S
C314 C315 1.387 . S
C314 C318 1.391 . S
C315 C314 1.387 . S
C315 C316 1.384 . S
C315 H324 0.930 . S
C316 C313 1.380 . S
C316 C315 1.384 . S
C316 H325 0.931 . S
C317 C313 1.374 . S
C317 C318 1.390 . S
C317 H326 0.930 1_655 S
C318 C314 1.391 . S
C318 C317 1.390 . S
C318 H327 0.930 1_655 S
C319 Eu289 2.825 . S
C319 O304 1.238 . S
C319 O305 1.247 . S
C319 C313 1.507 . S
H320 C293 0.930 . S
H321 C294 0.931 . S
H322 C295 0.930 1_655 S
H323 C296 0.930 1_655 S
H324 C315 0.930 . S
H325 C316 0.931 . S
H326 C317 0.930 1_455 S
H327 C318 0.930 1_455 S
Tb328 C338 2.825 . S
Tb328 O339 2.347 1_545 S
Tb328 O342 2.366 . S
Tb328 O347 2.418 . S
Tb328 O348 2.384 . S
Tb328 O351 2.479 . S
Tb328 O352 2.471 . S
Eu329 O340 2.418 . S
Eu329 O341 2.384 . S
Eu329 O344 2.479 . S
Eu329 O345 2.471 . S
Eu329 O346 2.347 1_565 S
Eu329 O349 2.366 . S
Eu329 C359 2.825 . S
C330 O346 1.259 . S
C330 O347 1.265 . S
C331 O348 1.255 . S
C331 O349 1.265 1_545 S
C332 C334 1.380 . S
C332 C335 1.374 . S
C332 C338 1.507 . S
C333 C334 1.384 . S
C333 C337 1.387 . S
C333 H360 0.930 . S
C334 C332 1.380 . S
C334 C333 1.384 . S
C334 H361 0.931 . S
C335 C332 1.374 . S
C335 C336 1.390 . S
C335 H362 0.930 1_545 S
C336 C335 1.390 . S
C336 C337 1.391 . S
C336 H363 0.930 1_545 S
C337 C333 1.387 . S
C337 C336 1.391 . S
C338 Tb328 2.825 . S
C338 C332 1.507 . S
C338 O351 1.238 . S
C338 O352 1.247 . S
O339 Tb328 2.347 1_565 S
O339 C343 1.259 . S
O340 Eu329 2.418 . S
O340 C343 1.265 . S
O341 Eu329 2.384 . S
O341 C350 1.255 . S
O342 Tb328 2.366 . S
O342 C350 1.265 1_545 S
C343 O339 1.259 . S
C343 O340 1.265 . S
O344 Eu329 2.479 . S
O344 C359 1.238 . S
O345 Eu329 2.471 . S
O345 C359 1.247 . S
O346 Eu329 2.347 1_545 S
O346 C330 1.259 . S
O347 Tb328 2.418 . S
O347 C330 1.265 . S
O348 Tb328 2.384 . S
O348 C331 1.255 . S
O349 Eu329 2.366 . S
O349 C331 1.265 1_565 S
C350 O341 1.255 . S
C350 O342 1.265 1_565 S
O351 Tb328 2.479 . S
O351 C338 1.238 . S
O352 Tb328 2.471 . S
O352 C338 1.247 . S
C353 C356 1.380 . S
C353 C357 1.374 . S
C353 C359 1.507 . S
C354 C355 1.387 . S
C354 C358 1.391 . S
C355 C354 1.387 . S
C355 C356 1.384 . S
C355 H364 0.930 . S
C356 C353 1.380 . S
C356 C355 1.384 . S
C356 H365 0.931 . S
C357 C353 1.374 . S
C357 C358 1.390 . S
C357 H366 0.930 1_565 S
C358 C354 1.391 . S
C358 C357 1.390 . S
C358 H367 0.930 1_565 S
C359 Eu329 2.825 . S
C359 O344 1.238 . S
C359 O345 1.247 . S
C359 C353 1.507 . S
H360 C333 0.930 . S
H361 C334 0.931 . S
H362 C335 0.930 1_565 S
H363 C336 0.930 1_565 S
H364 C355 0.930 . S
H365 C356 0.931 . S
H366 C357 0.930 1_545 S
H367 C358 0.930 1_545 S
Tb368 C378 2.825 . S
Tb368 O379 2.347 . S
Tb368 O382 2.366 . S
Tb368 O387 2.418 . S
Tb368 O388 2.384 . S
Tb368 O391 2.479 . S
Tb368 O392 2.471 . S
Eu369 O380 2.418 . S
Eu369 O381 2.384 . S
Eu369 O384 2.479 . S
Eu369 O385 2.471 . S
Eu369 O386 2.347 . S
Eu369 O389 2.366 . S
Eu369 C399 2.825 . S
C370 O386 1.259 . S
C370 O387 1.265 . S
C371 O388 1.255 . S
C371 O389 1.265 . S
C372 C374 1.380 . S
C372 C375 1.374 . S
C372 C378 1.507 . S
C373 C374 1.384 . S
C373 C377 1.387 . S
C373 H400 0.930 . S
C374 C372 1.380 . S
C374 C373 1.384 . S
C374 H401 0.931 . S
C375 C372 1.374 . S
C375 C376 1.390 . S
C375 H402 0.930 . S
C376 C375 1.390 . S
C376 C377 1.391 . S
C376 H403 0.930 . S
C377 C373 1.387 . S
C377 C376 1.391 . S
C378 Tb368 2.825 . S
C378 C372 1.507 . S
C378 O391 1.238 . S
C378 O392 1.247 . S
O379 Tb368 2.347 . S
O379 C383 1.259 . S
O380 Eu369 2.418 . S
O380 C383 1.265 . S
O381 Eu369 2.384 . S
O381 C390 1.255 . S
O382 Tb368 2.366 . S
O382 C390 1.265 . S
C383 O379 1.259 . S
C383 O380 1.265 . S
O384 Eu369 2.479 . S
O384 C399 1.238 . S
O385 Eu369 2.471 . S
O385 C399 1.247 . S
O386 Eu369 2.347 . S
O386 C370 1.259 . S
O387 Tb368 2.418 . S
O387 C370 1.265 . S
O388 Tb368 2.384 . S
O388 C371 1.255 . S
O389 Eu369 2.366 . S
O389 C371 1.265 . S
C390 O381 1.255 . S
C390 O382 1.265 . S
O391 Tb368 2.479 . S
O391 C378 1.238 . S
O392 Tb368 2.471 . S
O392 C378 1.247 . S
C393 C396 1.380 . S
C393 C397 1.374 . S
C393 C399 1.507 . S
C394 C395 1.387 . S
C394 C398 1.391 . S
C395 C394 1.387 . S
C395 C396 1.384 . S
C395 H404 0.930 . S
C396 C393 1.380 . S
C396 C395 1.384 . S
C396 H405 0.931 . S
C397 C393 1.374 . S
C397 C398 1.390 . S
C397 H406 0.930 . S
C398 C394 1.391 . S
C398 C397 1.390 . S
C398 H407 0.930 . S
C399 Eu369 2.825 . S
C399 O384 1.238 . S
C399 O385 1.247 . S
C399 C393 1.507 . S
H400 C373 0.930 . S
H401 C374 0.931 . S
H402 C375 0.930 . S
H403 C376 0.930 . S
H404 C395 0.930 . S
H405 C396 0.931 . S
H406 C397 0.930 . S
H407 C398 0.930 . S
Tb408 C418 2.825 . S
Tb408 O419 2.347 . S
Tb408 O422 2.366 . S
Tb408 O427 2.418 . S
Tb408 O428 2.384 1_655 S
Tb408 O431 2.479 . S
Tb408 O432 2.471 . S
Eu409 O420 2.418 . S
Eu409 O421 2.384 1_455 S
Eu409 O424 2.479 . S
Eu409 O425 2.471 . S
Eu409 O426 2.347 . S
Eu409 O429 2.366 . S
Eu409 C439 2.825 . S
C410 O426 1.259 1_655 S
C410 O427 1.265 . S
C411 O428 1.255 . S
C411 O429 1.265 . S
C412 C414 1.380 . S
C412 C415 1.374 . S
C412 C418 1.507 . S
C413 C414 1.384 . S
C413 C417 1.387 . S
C413 H440 0.930 . S
C414 C412 1.380 . S
C414 C413 1.384 . S
C414 H441 0.931 . S
C415 C412 1.374 . S
C415 C416 1.390 . S
C415 H442 0.930 . S
C416 C415 1.390 . S
C416 C417 1.391 . S
C416 H443 0.930 . S
C417 C413 1.387 . S
C417 C416 1.391 . S
C418 Tb408 2.825 . S
C418 C412 1.507 . S
C418 O431 1.238 . S
C418 O432 1.247 . S
O419 Tb408 2.347 . S
O419 C423 1.259 1_655 S
O420 Eu409 2.418 . S
O420 C423 1.265 . S
O421 Eu409 2.384 1_655 S
O421 C430 1.255 . S
O422 Tb408 2.366 . S
O422 C430 1.265 . S
C423 O419 1.259 1_455 S
C423 O420 1.265 . S
O424 Eu409 2.479 . S
O424 C439 1.238 . S
O425 Eu409 2.471 . S
O425 C439 1.247 . S
O426 Eu409 2.347 . S
O426 C410 1.259 1_455 S
O427 Tb408 2.418 . S
O427 C410 1.265 . S
O428 Tb408 2.384 1_455 S
O428 C411 1.255 . S
O429 Eu409 2.366 . S
O429 C411 1.265 . S
C430 O421 1.255 . S
C430 O422 1.265 . S
O431 Tb408 2.479 . S
O431 C418 1.238 . S
O432 Tb408 2.471 . S
O432 C418 1.247 . S
C433 C436 1.380 . S
C433 C437 1.374 . S
C433 C439 1.507 . S
C434 C435 1.387 . S
C434 C438 1.391 . S
C435 C434 1.387 . S
C435 C436 1.384 . S
C435 H444 0.930 . S
C436 C433 1.380 . S
C436 C435 1.384 . S
C436 H445 0.931 . S
C437 C433 1.374 . S
C437 C438 1.390 . S
C437 H446 0.930 . S
C438 C434 1.391 . S
C438 C437 1.390 . S
C438 H447 0.930 . S
C439 Eu409 2.825 . S
C439 O424 1.238 . S
C439 O425 1.247 . S
C439 C433 1.507 . S
H440 C413 0.930 . S
H441 C414 0.931 . S
H442 C415 0.930 . S
H443 C416 0.930 . S
H444 C435 0.930 . S
H445 C436 0.931 . S
H446 C437 0.930 . S
H447 C438 0.930 . S
H448 C456 0.950 . S
H449 C461 0.950 . S
H450 C458 0.950 . S
H451 C460 0.950 . S
H452 C462 0.950 . S
H453 C464 0.950 . S
H454 C466 0.950 . S
H455 C467 0.950 . S
C456 H448 0.950 . S
C456 C457 1.385 1_565 S
C456 C458 1.391 . S
C457 C456 1.385 1_545 S
C457 C461 1.394 . S
C458 H450 0.950 . S
C458 C456 1.391 . S
C458 C459 1.391 1_565 S
C459 C458 1.391 1_545 S
C459 C460 1.407 . S
C459 C465 1.491 . S
C460 H451 0.950 . S
C460 C459 1.407 . S
C460 C461 1.391 . S
C461 H449 0.950 . S
C461 C457 1.394 . S
C461 C460 1.391 . S
C462 H452 0.950 . S
C462 C463 1.411 . S
C462 C464 1.391 . S
C463 C462 1.411 . S
C463 C467 1.368 1_545 S
C464 H453 0.950 . S
C464 C462 1.391 . S
C464 C465 1.417 . S
C465 C459 1.491 . S
C465 C464 1.417 . S
C465 C466 1.382 1_545 S
C466 H454 0.950 . S
C466 C465 1.382 1_565 S
C466 C467 1.391 . S
C467 H455 0.950 . S
C467 C463 1.368 1_565 S
C467 C466 1.391 . S
H468 C476 0.950 . S
H469 C481 0.950 . S
H470 C478 0.950 . S
H471 C480 0.950 . S
H472 C482 0.950 . S
H473 C484 0.950 . S
H474 C486 0.950 . S
H475 C487 0.950 . S
C476 H468 0.950 . S
C476 C477 1.386 . S
C476 C478 1.391 . S
C477 C476 1.386 . S
C477 C481 1.393 . S
C478 H470 0.950 . S
C478 C476 1.391 . S
C478 C479 1.400 . S
C479 C478 1.400 . S
C479 C480 1.398 . S
C479 C485 1.491 . S
C480 H471 0.950 . S
C480 C479 1.398 . S
C480 C481 1.391 . S
C481 H469 0.950 . S
C481 C477 1.393 . S
C481 C480 1.391 . S
C482 H472 0.950 . S
C482 C483 1.386 . S
C482 C484 1.391 . S
C483 C482 1.386 . S
C483 C487 1.393 . S
C484 H473 0.950 . S
C484 C482 1.391 . S
C484 C485 1.400 . S
C485 C479 1.491 . S
C485 C484 1.400 . S
C485 C486 1.398 . S
C486 H474 0.950 . S
C486 C485 1.398 . S
C486 C487 1.391 . S
C487 H475 0.950 . S
C487 C483 1.393 . S
C487 C486 1.391 . S
H488 C496 0.950 . S
H489 C501 0.950 . S
H490 C498 0.950 . S
H491 C500 0.950 . S
H492 C502 0.950 . S
H493 C504 0.950 . S
H494 C506 0.950 . S
H495 C507 0.950 . S
C496 H488 0.950 . S
C496 C497 1.386 . S
C496 C498 1.391 . S
C497 C496 1.386 . S
C497 C501 1.393 . S
C498 H490 0.950 . S
C498 C496 1.391 . S
C498 C499 1.400 . S
C499 C498 1.400 . S
C499 C500 1.398 . S
C499 C505 1.491 . S
C500 H491 0.950 . S
C500 C499 1.398 . S
C500 C501 1.391 . S
C501 H489 0.950 . S
C501 C497 1.393 . S
C501 C500 1.391 . S
C502 H492 0.950 . S
C502 C503 1.386 . S
C502 C504 1.391 . S
C503 C502 1.386 . S
C503 C507 1.393 . S
C504 H493 0.950 . S
C504 C502 1.391 . S
C504 C505 1.400 . S
C505 C499 1.491 . S
C505 C504 1.400 . S
C505 C506 1.398 . S
C506 H494 0.950 . S
C506 C505 1.398 . S
C506 C507 1.391 . S
C507 H495 0.950 . S
C507 C503 1.393 . S
C507 C506 1.391 . S
H508 C516 0.950 . S
H509 C521 0.950 . S
H510 C518 0.950 . S
H511 C520 0.950 . S
H512 C522 0.950 . S
H513 C524 0.950 . S
H514 C526 0.950 . S
H515 C527 0.950 . S
C516 H508 0.950 . S
C516 C517 1.386 . S
C516 C518 1.391 . S
C517 C516 1.386 . S
C517 C521 1.393 1_455 S
C518 H510 0.950 . S
C518 C516 1.391 . S
C518 C519 1.408 . S
C519 C518 1.408 . S
C519 C520 1.394 1_455 S
C519 C525 1.490 . S
C520 H511 0.950 . S
C520 C519 1.394 1_655 S
C520 C521 1.391 . S
C521 H509 0.950 . S
C521 C517 1.393 1_655 S
C521 C520 1.391 . S
C522 H512 0.950 . S
C522 C523 1.385 1_655 S
C522 C524 1.391 . S
C523 C522 1.385 1_455 S
C523 C527 1.394 . S
C524 H513 0.950 . S
C524 C522 1.391 . S
C524 C525 1.399 1_655 S
C525 C519 1.490 . S
C525 C524 1.399 1_455 S
C525 C526 1.400 . S
C526 H514 0.950 . S
C526 C525 1.400 . S
C526 C527 1.391 . S
C527 H515 0.950 . S
C527 C523 1.394 . S
C527 C526 1.391 . S
H528 C536 0.950 . S
H529 C541 0.950 . S
H530 C538 0.950 . S
H531 C540 0.950 . S
H532 C542 0.950 . S
H533 C544 0.950 . S
H534 C546 0.950 1_554 S
H535 C547 0.950 . S
C536 H528 0.950 . S
C536 C537 1.369 1_545 S
C536 C538 1.391 . S
C537 C536 1.369 1_565 S
C537 C541 1.411 . S
C538 H530 0.950 . S
C538 C536 1.391 . S
C538 C539 1.389 1_545 S
C539 C538 1.389 1_565 S
C539 C540 1.410 . S
C539 C545 1.490 1_564 S
C540 H531 0.950 . S
C540 C539 1.410 . S
C540 C541 1.391 . S
C541 H529 0.950 . S
C541 C537 1.411 . S
C541 C540 1.391 . S
C542 H532 0.950 . S
C542 C543 1.377 1_565 S
C542 C544 1.391 . S
C543 C542 1.377 1_545 S
C543 C547 1.402 . S
C544 H533 0.950 . S
C544 C542 1.391 . S
C544 C545 1.398 1_565 S
C545 C539 1.490 1_546 S
C545 C544 1.398 1_545 S
C545 C546 1.401 . S
C546 H534 0.950 1_556 S
C546 C545 1.401 . S
C546 C547 1.391 . S
C547 H535 0.950 . S
C547 C543 1.402 . S
C547 C546 1.391 . S
H548 C556 0.950 . S
H549 C561 0.950 . S
H550 C558 0.950 . S
H551 C560 0.950 . S
H552 C562 0.950 . S
H553 C564 0.950 1_554 S
H554 C566 0.950 . S
H555 C567 0.950 . S
C556 H548 0.950 . S
C556 C557 1.386 . S
C556 C558 1.391 . S
C557 C556 1.386 . S
C557 C561 1.393 . S
C558 H550 0.950 . S
C558 C556 1.391 . S
C558 C559 1.400 . S
C559 C558 1.400 . S
C559 C560 1.398 . S
C559 C565 1.493 . S
C560 H551 0.950 . S
C560 C559 1.398 . S
C560 C561 1.391 . S
C561 H549 0.950 . S
C561 C557 1.393 . S
C561 C560 1.391 . S
C562 H552 0.950 . S
C562 C563 1.386 . S
C562 C564 1.391 . S
C563 C562 1.386 . S
C563 C567 1.393 . S
C564 H553 0.950 1_556 S
C564 C562 1.391 . S
C564 C565 1.399 1_556 S
C565 C559 1.493 . S
C565 C564 1.399 1_554 S
C565 C566 1.397 1_554 S
C566 H554 0.950 . S
C566 C565 1.397 1_556 S
C566 C567 1.391 . S
C567 H555 0.950 . S
C567 C563 1.393 . S
C567 C566 1.391 . S
H568 C576 0.950 . S
H569 C581 0.950 . S
H570 C578 0.950 . S
H571 C580 0.950 . S
H572 C582 0.950 . S
H573 C584 0.950 1_554 S
H574 C586 0.950 . S
H575 C587 0.950 . S
C576 H568 0.950 . S
C576 C577 1.386 . S
C576 C578 1.391 . S
C577 C576 1.386 . S
C577 C581 1.393 . S
C578 H570 0.950 . S
C578 C576 1.391 . S
C578 C579 1.400 . S
C579 C578 1.400 . S
C579 C580 1.398 . S
C579 C585 1.491 1_554 S
C580 H571 0.950 . S
C580 C579 1.398 . S
C580 C581 1.391 . S
C581 H569 0.950 . S
C581 C577 1.393 . S
C581 C580 1.391 . S
C582 H572 0.950 . S
C582 C583 1.386 . S
C582 C584 1.391 . S
C583 C582 1.386 . S
C583 C587 1.393 . S
C584 H573 0.950 1_556 S
C584 C582 1.391 . S
C584 C585 1.400 . S
C585 C579 1.491 1_556 S
C585 C584 1.400 . S
C585 C586 1.398 . S
C586 H574 0.950 . S
C586 C585 1.398 . S
C586 C587 1.391 . S
C587 H575 0.950 . S
C587 C583 1.393 . S
C587 C586 1.391 . S
H588 C596 0.950 . S
H589 C601 0.950 . S
H590 C598 0.950 . S
H591 C600 0.950 . S
H592 C602 0.950 . S
H593 C604 0.950 . S
H594 C606 0.950 1_554 S
H595 C607 0.950 . S
C596 H588 0.950 . S
C596 C597 1.407 . S
C596 C598 1.391 . S
C597 C596 1.407 . S
C597 C601 1.372 1_655 S
C598 H590 0.950 . S
C598 C596 1.391 . S
C598 C599 1.429 . S
C599 C598 1.429 . S
C599 C600 1.371 1_655 S
C599 C605 1.491 1_554 S
C600 H591 0.950 . S
C600 C599 1.371 1_455 S
C600 C601 1.391 . S
C601 H589 0.950 . S
C601 C597 1.372 1_455 S
C601 C600 1.391 . S
C602 H592 0.950 . S
C602 C603 1.358 1_455 S
C602 C604 1.391 . S
C603 C602 1.358 1_655 S
C603 C607 1.421 . S
C604 H593 0.950 . S
C604 C602 1.391 . S
C604 C605 1.380 1_455 S
C605 C599 1.491 1_556 S
C605 C604 1.380 1_655 S
C605 C606 1.419 . S
C606 H594 0.950 1_556 S
C606 C605 1.419 . S
C606 C607 1.391 . S
C607 H595 0.950 . S
C607 C603 1.421 . S
C607 C606 1.391 . S
H608 C616 0.950 . S
H609 C621 0.950 . S
H610 C618 0.950 . S
H611 C620 0.950 . S
H612 C622 0.950 . S
H613 C624 0.950 1_455 S
H614 C626 0.950 . S
H615 C627 0.950 . S
C616 H608 0.950 . S
C616 C617 1.386 1_655 S
C616 C618 1.391 . S
C617 C616 1.386 1_455 S
C617 C621 1.393 . S
C618 H610 0.950 . S
C618 C616 1.391 . S
C618 C619 1.400 . S
C619 C618 1.400 . S
C619 C620 1.398 1_655 S
C619 C625 1.491 . S
C620 H611 0.950 . S
C620 C619 1.398 1_455 S
C620 C621 1.391 . S
C621 H609 0.950 . S
C621 C617 1.393 . S
C621 C620 1.391 . S
C622 H612 0.950 . S
C622 C623 1.386 . S
C622 C624 1.391 . S
C623 C622 1.386 . S
C623 C627 1.393 . S
C624 H613 0.950 1_655 S
C624 C622 1.391 . S
C624 C625 1.400 . S
C625 C619 1.491 . S
C625 C624 1.400 . S
C625 C626 1.398 . S
C626 H614 0.950 . S
C626 C625 1.398 . S
C626 C627 1.391 . S
C627 H615 0.950 . S
C627 C623 1.393 . S
C627 C626 1.391 . S
H628 C636 0.950 . S
H629 C641 0.950 . S
H630 C638 0.950 . S
H631 C640 0.950 . S
H632 C642 0.950 . S
H633 C644 0.950 . S
H634 C646 0.950 1_545 S
H635 C647 0.950 . S
C636 H628 0.950 . S
C636 C637 1.386 . S
C636 C638 1.391 . S
C637 C636 1.386 . S
C637 C641 1.393 1_545 S
C638 H630 0.950 . S
C638 C636 1.391 . S
C638 C639 1.400 1_545 S
C639 C638 1.400 1_565 S
C639 C640 1.398 . S
C639 C645 1.491 . S
C640 H631 0.950 . S
C640 C639 1.398 . S
C640 C641 1.391 . S
C641 H629 0.950 . S
C641 C637 1.393 1_565 S
C641 C640 1.391 . S
C642 H632 0.950 . S
C642 C643 1.386 . S
C642 C644 1.391 . S
C643 C642 1.386 . S
C643 C647 1.393 . S
C644 H633 0.950 . S
C644 C642 1.391 . S
C644 C645 1.400 . S
C645 C639 1.491 . S
C645 C644 1.400 . S
C645 C646 1.398 . S
C646 H634 0.950 1_565 S
C646 C645 1.398 . S
C646 C647 1.391 . S
C647 H635 0.950 . S
C647 C643 1.393 . S
C647 C646 1.391 . S
H648 C656 0.950 . S
H649 C661 0.950 . S
H650 C658 0.950 . S
H651 C660 0.950 . S
H652 C662 0.950 . S
H653 C664 0.950 . S
H654 C666 0.950 . S
H655 C667 0.950 . S
C656 H648 0.950 . S
C656 C657 1.386 . S
C656 C658 1.391 . S
C657 C656 1.386 . S
C657 C661 1.393 . S
C658 H650 0.950 . S
C658 C656 1.391 . S
C658 C659 1.400 . S
C659 C658 1.400 . S
C659 C660 1.398 . S
C659 C665 1.491 . S
C660 H651 0.950 . S
C660 C659 1.398 . S
C660 C661 1.391 . S
C661 H649 0.950 . S
C661 C657 1.393 . S
C661 C660 1.391 . S
C662 H652 0.950 . S
C662 C663 1.386 . S
C662 C664 1.391 . S
C663 C662 1.386 . S
C663 C667 1.393 . S
C664 H653 0.950 . S
C664 C662 1.391 . S
C664 C665 1.400 . S
C665 C659 1.491 . S
C665 C664 1.400 . S
C665 C666 1.398 . S
C666 H654 0.950 . S
C666 C665 1.398 . S
C666 C667 1.391 . S
C667 H655 0.950 . S
C667 C663 1.393 . S
C667 C666 1.391 . S
H668 C676 0.950 . S
H669 C681 0.950 . S
H670 C678 0.950 . S
H671 C680 0.950 . S
H672 C682 0.950 . S
H673 C684 0.950 . S
H674 C686 0.950 . S
H675 C687 0.950 . S
C676 H668 0.950 . S
C676 C677 1.386 . S
C676 C678 1.391 . S
C677 C676 1.386 . S
C677 C681 1.393 . S
C678 H670 0.950 . S
C678 C676 1.391 . S
C678 C679 1.400 . S
C679 C678 1.400 . S
C679 C680 1.398 . S
C679 C685 1.491 . S
C680 H671 0.950 . S
C680 C679 1.398 . S
C680 C681 1.391 . S
C681 H669 0.950 . S
C681 C677 1.393 . S
C681 C680 1.391 . S
C682 H672 0.950 . S
C682 C683 1.386 . S
C682 C684 1.391 . S
C683 C682 1.386 . S
C683 C687 1.393 . S
C684 H673 0.950 . S
C684 C682 1.391 . S
C684 C685 1.400 . S
C685 C679 1.491 . S
C685 C684 1.400 . S
C685 C686 1.398 . S
C686 H674 0.950 . S
C686 C685 1.398 . S
C686 C687 1.391 . S
C687 H675 0.950 . S
C687 C683 1.393 . S
C687 C686 1.391 . S
H688 C696 0.950 . S
H689 C701 0.950 . S
H690 C698 0.945 1_656 S
H691 C700 0.950 . S
H692 C702 0.950 . S
H693 C704 0.950 . S
H694 C706 0.950 . S
H695 C707 0.950 . S
C696 H688 0.950 . S
C696 C697 1.386 . S
C696 C698 1.391 1_655 S
C697 C696 1.386 . S
C697 C701 1.393 1_655 S
C698 H690 0.945 1_454 S
C698 C696 1.391 1_455 S
C698 C699 1.400 . S
C699 C698 1.400 . S
C699 C700 1.398 . S
C699 C705 1.491 . S
C700 H691 0.950 . S
C700 C699 1.398 . S
C700 C701 1.391 . S
C701 H689 0.950 . S
C701 C697 1.393 1_455 S
C701 C700 1.391 . S
C702 H692 0.950 . S
C702 C703 1.386 1_554 S
C702 C704 1.391 . S
C703 C702 1.386 1_556 S
C703 C707 1.393 . S
C704 H693 0.950 . S
C704 C702 1.391 . S
C704 C705 1.400 . S
C705 C699 1.491 . S
C705 C704 1.400 . S
C705 C706 1.398 1_554 S
C706 H694 0.950 . S
C706 C705 1.398 1_556 S
C706 C707 1.391 . S
C707 H695 0.950 . S
C707 C703 1.393 . S
C707 C706 1.391 . S
H708 C716 0.950 . S
H709 C721 0.950 . S
H710 C718 0.950 . S
H711 C720 0.950 1_556 S
H712 C722 0.950 . S
H713 C724 0.950 1_565 S
H714 C726 0.950 . S
H715 C727 0.950 . S
C716 H708 0.950 . S
C716 C717 1.386 1_545 S
C716 C718 1.391 . S
C717 C716 1.386 1_565 S
C717 C721 1.393 . S
C718 H710 0.950 . S
C718 C716 1.391 . S
C718 C719 1.400 . S
C719 C718 1.400 . S
C719 C720 1.398 1_545 S
C719 C725 1.491 . S
C720 H711 0.950 1_554 S
C720 C719 1.398 1_565 S
C720 C721 1.391 . S
C721 H709 0.950 . S
C721 C717 1.393 . S
C721 C720 1.391 . S
C722 H712 0.950 . S
C722 C723 1.386 . S
C722 C724 1.391 . S
C723 C722 1.386 . S
C723 C727 1.393 1_556 S
C724 H713 0.950 1_545 S
C724 C722 1.391 . S
C724 C725 1.400 1_556 S
C725 C719 1.491 . S
C725 C724 1.400 1_554 S
C725 C726 1.398 . S
C726 H714 0.950 . S
C726 C725 1.398 . S
C726 C727 1.391 . S
C727 H715 0.950 . S
C727 C723 1.393 1_554 S
C727 C726 1.391 . S
H728 C736 0.950 . S
H729 C741 0.950 . S
H730 C738 0.950 1_556 S
H731 C740 0.950 . S
H732 C742 0.950 . S
H733 C744 0.950 . S
H734 C746 0.950 . S
H735 C747 0.950 . S
C736 H728 0.950 . S
C736 C737 1.386 . S
C736 C738 1.391 . S
C737 C736 1.386 . S
C737 C741 1.393 . S
C738 H730 0.950 1_554 S
C738 C736 1.391 . S
C738 C739 1.400 . S
C739 C738 1.400 . S
C739 C740 1.398 . S
C739 C745 1.491 . S
C740 H731 0.950 . S
C740 C739 1.398 . S
C740 C741 1.391 . S
C741 H729 0.950 . S
C741 C737 1.393 . S
C741 C740 1.391 . S
C742 H732 0.950 . S
C742 C743 1.386 1_554 S
C742 C744 1.391 . S
C743 C742 1.386 1_556 S
C743 C747 1.393 . S
C744 H733 0.950 . S
C744 C742 1.391 . S
C744 C745 1.400 . S
C745 C739 1.491 . S
C745 C744 1.400 . S
C745 C746 1.398 1_554 S
C746 H734 0.950 . S
C746 C745 1.398 1_556 S
C746 C747 1.391 . S
C747 H735 0.950 . S
C747 C743 1.393 . S
C747 C746 1.391 . S
H748 C756 0.950 . S
H749 C761 0.950 . S
H750 C758 0.950 . S
H751 C760 0.950 1_556 S
H752 C762 0.950 . S
H753 C764 0.950 . S
H754 C766 0.950 . S
H755 C767 0.950 . S
C756 H748 0.950 . S
C756 C757 1.386 . S
C756 C758 1.391 . S
C757 C756 1.386 . S
C757 C761 1.393 . S
C758 H750 0.950 . S
C758 C756 1.391 . S
C758 C759 1.400 . S
C759 C758 1.400 . S
C759 C760 1.398 . S
C759 C765 1.491 . S
C760 H751 0.950 1_554 S
C760 C759 1.398 . S
C760 C761 1.391 . S
C761 H749 0.950 . S
C761 C757 1.393 . S
C761 C760 1.391 . S
C762 H752 0.950 . S
C762 C763 1.386 . S
C762 C764 1.391 . S
C763 C762 1.386 . S
C763 C767 1.393 1_556 S
C764 H753 0.950 . S
C764 C762 1.391 . S
C764 C765 1.400 1_556 S
C765 C759 1.491 . S
C765 C764 1.400 1_554 S
C765 C766 1.398 . S
C766 H754 0.950 . S
C766 C765 1.398 . S
C766 C767 1.391 . S
C767 H755 0.950 . S
C767 C763 1.393 1_554 S
C767 C766 1.391 . S
H768 C776 0.950 . S
H769 C781 0.950 . S
H770 C778 0.950 . S
H771 C780 0.950 . S
H772 C782 0.950 . S
H773 C784 0.950 . S
H774 C786 0.950 . S
H775 C787 0.950 . S
C776 H768 0.950 . S
C776 C777 1.386 . S
C776 C778 1.391 . S
C777 C776 1.386 . S
C777 C781 1.393 1_455 S
C778 H770 0.950 . S
C778 C776 1.391 . S
C778 C779 1.400 . S
C779 C778 1.400 . S
C779 C780 1.398 1_455 S
C779 C785 1.491 . S
C780 H771 0.950 . S
C780 C779 1.398 1_655 S
C780 C781 1.391 . S
C781 H769 0.950 . S
C781 C777 1.393 1_655 S
C781 C780 1.391 . S
C782 H772 0.950 . S
C782 C783 1.386 1_655 S
C782 C784 1.391 . S
C783 C782 1.386 1_455 S
C783 C787 1.393 . S
C784 H773 0.950 . S
C784 C782 1.391 . S
C784 C785 1.400 1_655 S
C785 C779 1.491 . S
C785 C784 1.400 1_455 S
C785 C786 1.398 . S
C786 H774 0.950 . S
C786 C785 1.398 . S
C786 C787 1.391 . S
C787 H775 0.950 . S
C787 C783 1.393 . S
C787 C786 1.391 . S
H788 C796 0.950 . S
H789 C801 0.950 . S
H790 C798 0.950 . S
H791 C800 0.950 . S
H792 C802 0.950 1_565 S
H793 C804 0.945 1_565 S
H794 C806 0.950 . S
H795 C807 0.950 . S
C796 H788 0.950 . S
C796 C797 1.386 . S
C796 C798 1.391 . S
C797 C796 1.386 . S
C797 C801 1.393 1_545 S
C798 H790 0.950 . S
C798 C796 1.391 . S
C798 C799 1.400 . S
C799 C798 1.400 . S
C799 C800 1.398 1_545 S
C799 C805 1.491 . S
C800 H791 0.950 . S
C800 C799 1.398 1_565 S
C800 C801 1.391 . S
C801 H789 0.950 . S
C801 C797 1.393 1_565 S
C801 C800 1.391 . S
C802 H792 0.950 1_545 S
C802 C803 1.386 . S
C802 C804 1.392 . S
C803 C802 1.386 . S
C803 C807 1.393 . S
C804 H793 0.945 1_545 S
C804 C802 1.392 . S
C804 C805 1.404 . S
C805 C799 1.491 . S
C805 C804 1.404 . S
C805 C806 1.398 . S
C806 H794 0.950 . S
C806 C805 1.398 . S
C806 C807 1.391 . S
C807 H795 0.950 . S
C807 C803 1.393 . S
C807 C806 1.391 . S
H808 C816 0.950 . S
H809 C821 0.950 . S
H810 C818 0.950 . S
H811 C820 0.950 . S
H812 C822 0.950 . S
H813 C824 0.950 . S
H814 C826 0.950 . S
H815 C827 0.950 . S
C816 H808 0.950 . S
C816 C817 1.386 . S
C816 C818 1.391 . S
C817 C816 1.386 . S
C817 C821 1.393 . S
C818 H810 0.950 . S
C818 C816 1.391 . S
C818 C819 1.400 . S
C819 C818 1.400 . S
C819 C820 1.398 . S
C819 C825 1.491 . S
C820 H811 0.950 . S
C820 C819 1.398 . S
C820 C821 1.391 . S
C821 H809 0.950 . S
C821 C817 1.393 . S
C821 C820 1.391 . S
C822 H812 0.950 . S
C822 C823 1.386 . S
C822 C824 1.391 . S
C823 C822 1.386 . S
C823 C827 1.393 . S
C824 H813 0.950 . S
C824 C822 1.391 . S
C824 C825 1.400 . S
C825 C819 1.491 . S
C825 C824 1.400 . S
C825 C826 1.398 . S
C826 H814 0.950 . S
C826 C825 1.398 . S
C826 C827 1.391 . S
C827 H815 0.950 . S
C827 C823 1.393 . S
C827 C826 1.391 . S
H828 C836 0.950 . S
H829 C841 0.950 . S
H830 C838 0.950 . S
H831 C840 0.950 . S
H832 C842 0.950 . S
H833 C844 0.950 . S
H834 C846 0.950 . S
H835 C847 0.950 . S
C836 H828 0.950 . S
C836 C837 1.386 . S
C836 C838 1.391 . S
C837 C836 1.386 . S
C837 C841 1.393 . S
C838 H830 0.950 . S
C838 C836 1.391 . S
C838 C839 1.400 . S
C839 C838 1.400 . S
C839 C840 1.398 . S
C839 C845 1.491 . S
C840 H831 0.950 . S
C840 C839 1.398 . S
C840 C841 1.391 . S
C841 H829 0.950 . S
C841 C837 1.393 . S
C841 C840 1.391 . S
C842 H832 0.950 . S
C842 C843 1.386 . S
C842 C844 1.391 . S
C843 C842 1.386 . S
C843 C847 1.393 . S
C844 H833 0.950 . S
C844 C842 1.391 . S
C844 C845 1.400 . S
C845 C839 1.491 . S
C845 C844 1.400 . S
C845 C846 1.398 . S
C846 H834 0.950 . S
C846 C845 1.398 . S
C846 C847 1.391 . S
C847 H835 0.950 . S
C847 C843 1.393 . S
C847 C846 1.391 . S
H848 C856 0.950 . S
H849 C861 0.950 . S
H850 C858 0.950 . S
H851 C860 0.950 . S
H852 C862 0.950 . S
H853 C864 0.950 . S
H854 C866 0.950 . S
H855 C867 0.950 . S
C856 H848 0.950 . S
C856 C857 1.386 1_455 S
C856 C858 1.391 . S
C857 C856 1.386 1_655 S
C857 C861 1.393 . S
C858 H850 0.950 . S
C858 C856 1.391 . S
C858 C859 1.400 1_455 S
C859 C858 1.400 1_655 S
C859 C860 1.398 . S
C859 C865 1.491 . S
C860 H851 0.950 . S
C860 C859 1.398 . S
C860 C861 1.391 . S
C861 H849 0.950 . S
C861 C857 1.393 . S
C861 C860 1.391 . S
C862 H852 0.950 . S
C862 C863 1.386 . S
C862 C864 1.391 . S
C863 C862 1.386 . S
C863 C867 1.393 1_655 S
C864 H853 0.950 . S
C864 C862 1.391 . S
C864 C865 1.400 . S
C865 C859 1.491 . S
C865 C864 1.400 . S
C865 C866 1.398 1_655 S
C866 H854 0.950 . S
C866 C865 1.398 1_455 S
C866 C867 1.391 . S
C867 H855 0.950 . S
C867 C863 1.393 1_455 S
C867 C866 1.391 . S
H868 C876 0.950 . S
H869 C881 0.950 . S
H870 C878 0.950 . S
H871 C880 0.950 . S
H872 C882 0.950 . S
H873 C884 0.950 . S
H874 C886 0.950 . S
H875 C887 0.950 . S
C876 H868 0.950 . S
C876 C877 1.386 1_545 S
C876 C878 1.391 . S
C877 C876 1.386 1_565 S
C877 C881 1.393 . S
C878 H870 0.950 . S
C878 C876 1.391 . S
C878 C879 1.400 1_545 S
C879 C878 1.400 1_565 S
C879 C880 1.398 . S
C879 C885 1.491 . S
C880 H871 0.950 . S
C880 C879 1.398 . S
C880 C881 1.391 . S
C881 H869 0.950 . S
C881 C877 1.393 . S
C881 C880 1.391 . S
C882 H872 0.950 . S
C882 C883 1.386 . S
C882 C884 1.391 . S
C883 C882 1.386 . S
C883 C887 1.393 1_565 S
C884 H873 0.950 . S
C884 C882 1.391 . S
C884 C885 1.400 . S
C885 C879 1.491 . S
C885 C884 1.400 . S
C885 C886 1.398 1_565 S
C886 H874 0.950 . S
C886 C885 1.398 1_545 S
C886 C887 1.391 . S
C887 H875 0.950 . S
C887 C883 1.393 1_545 S
C887 C886 1.391 . S
H888 C896 0.950 . S
H889 C901 0.950 . S
H890 C898 0.950 . S
H891 C900 0.950 . S
H892 C902 0.950 . S
H893 C904 0.950 . S
H894 C906 0.950 . S
H895 C907 0.950 . S
C896 H888 0.950 . S
C896 C897 1.386 . S
C896 C898 1.391 . S
C897 C896 1.386 . S
C897 C901 1.393 . S
C898 H890 0.950 . S
C898 C896 1.391 . S
C898 C899 1.400 . S
C899 C898 1.400 . S
C899 C900 1.398 . S
C899 C905 1.491 . S
C900 H891 0.950 . S
C900 C899 1.398 . S
C900 C901 1.391 . S
C901 H889 0.950 . S
C901 C897 1.393 . S
C901 C900 1.391 . S
C902 H892 0.950 . S
C902 C903 1.386 . S
C902 C904 1.391 . S
C903 C902 1.386 . S
C903 C907 1.393 . S
C904 H893 0.950 . S
C904 C902 1.391 . S
C904 C905 1.400 . S
C905 C899 1.491 . S
C905 C904 1.400 . S
C905 C906 1.398 . S
C906 H894 0.950 . S
C906 C905 1.398 . S
C906 C907 1.391 . S
C907 H895 0.950 . S
C907 C903 1.393 . S
C907 C906 1.391 . S
H908 C916 0.950 . S
H909 C921 0.950 . S
H910 C918 0.950 . S
H911 C920 0.950 . S
H912 C922 0.950 . S
H913 C924 0.950 . S
H914 C926 0.950 . S
H915 C927 0.950 . S
C916 H908 0.950 . S
C916 C917 1.386 . S
C916 C918 1.391 . S
C917 C916 1.386 . S
C917 C921 1.393 . S
C918 H910 0.950 . S
C918 C916 1.391 . S
C918 C919 1.400 . S
C919 C918 1.400 . S
C919 C920 1.398 . S
C919 C925 1.491 . S
C920 H911 0.950 . S
C920 C919 1.398 . S
C920 C921 1.391 . S
C921 H909 0.950 . S
C921 C917 1.393 . S
C921 C920 1.391 . S
C922 H912 0.950 . S
C922 C923 1.386 . S
C922 C924 1.391 . S
C923 C922 1.386 . S
C923 C927 1.393 . S
C924 H913 0.950 . S
C924 C922 1.391 . S
C924 C925 1.400 . S
C925 C919 1.491 . S
C925 C924 1.400 . S
C925 C926 1.398 . S
C926 H914 0.950 . S
C926 C925 1.398 . S
C926 C927 1.391 . S
C927 H915 0.950 . S
C927 C923 1.393 . S
C927 C926 1.391 . S
C457 C241 2.099 . S
C463 C290 2.335 1_545 S
C483 C330 2.373 . S
C477 C277 2.204 . S
C503 C370 2.352 . S
C497 C169 2.121 . S
C523 C410 2.353 1_455 S
C517 C205 2.129 . S
C543 C303 2.342 . S
C537 C97 2.123 1_565 S
C557 C133 2.188 . S
C563 C343 2.371 . S
C577 C25 2.142 . S
C583 C383 2.360 . S
C597 C61 2.113 1_655 S
C603 C423 2.349 1_655 S
C623 C314 0.360 . S
C617 C211 0.331 . S
C643 C354 0.339 . S
C637 C247 0.389 . S
C663 C394 0.324 . S
C657 C253 0.373 . S
C677 C175 0.382 . S
C683 C434 0.323 . S
C697 C67 0.454 1_655 S
C703 C297 0.395 . S
C723 C337 0.347 . S
C717 C103 0.443 1_565 S
C743 C377 0.382 . S
C737 C109 0.332 . S
C757 C31 0.400 . S
C763 C417 0.330 . S
C777 C181 2.811 . S
C783 C291 3.172 . S
C797 C217 2.787 . S
C803 C331 3.149 . S
C823 C371 3.151 . S
C817 C283 2.735 . S
C843 C411 3.162 . S
C837 C145 2.805 . S
C857 C37 2.818 1_655 S
C863 C310 3.183 . S
C883 C350 3.144 . S
C877 C73 2.787 1_565 S
C903 C390 3.145 . S
C897 C139 2.704 . S
C917 C1 2.809 . S
C923 C430 3.168 . S
