# Generated by pormake.
# Topology ptr, (4,4)-cn, num edge types: 1
# Building blocks:
#     Node 0, Type 0, BuildingBlock: UXUYUI_clean_sbu_0, # of connection points: 4
#     Node 1, Type 0, BuildingBlock: UXUYUI_clean_sbu_0, # of connection points: 4
#     Node 2, Type 0, BuildingBlock: UXUYUI_clean_sbu_0, # of connection points: 4
#     Node 3, Type 0, BuildingBlock: UXUYUI_clean_sbu_0, # of connection points: 4
#     Node 4, Type 0, BuildingBlock: UXUYUI_clean_sbu_0, # of connection points: 4
#     Node 5, Type 0, BuildingBlock: UXUYUI_clean_sbu_0, # of connection points: 4
#     Node 6, Type 0, BuildingBlock: UXUYUI_clean_sbu_0, # of connection points: 4
#     Node 7, Type 0, BuildingBlock: UXUYUI_clean_sbu_0, # of connection points: 4
#     Node 8, Type 0, BuildingBlock: UXUYUI_clean_sbu_0, # of connection points: 4
#     Node 9, Type 0, BuildingBlock: UXUYUI_clean_sbu_0, # of connection points: 4
#     Node 10, Type 0, BuildingBlock: UXUYUI_clean_sbu_0, # of connection points: 4
#     Node 11, Type 0, BuildingBlock: UXUYUI_clean_sbu_0, # of connection points: 4
#     Node 12, Type 0, BuildingBlock: UXUYUI_clean_sbu_0, # of connection points: 4
#     Node 13, Type 0, BuildingBlock: UXUYUI_clean_sbu_0, # of connection points: 4
#     Node 14, Type 0, BuildingBlock: UXUYUI_clean_sbu_0, # of connection points: 4
#     Node 15, Type 0, BuildingBlock: UXUYUI_clean_sbu_0, # of connection points: 4
#     Node 16, Type 0, BuildingBlock: UXUYUI_clean_sbu_0, # of connection points: 4
#     Node 17, Type 0, BuildingBlock: UXUYUI_clean_sbu_0, # of connection points: 4
#     Node 18, Type 1, BuildingBlock: NAHDIM_clean_linker_0, # of connection points: 4
#     Node 19, Type 1, BuildingBlock: NAHDIM_clean_linker_0, # of connection points: 4
#     Node 20, Type 1, BuildingBlock: NAHDIM_clean_linker_0, # of connection points: 4
#     Node 21, Type 1, BuildingBlock: NAHDIM_clean_linker_0, # of connection points: 4
#     Node 22, Type 1, BuildingBlock: NAHDIM_clean_linker_0, # of connection points: 4
#     Node 23, Type 1, BuildingBlock: NAHDIM_clean_linker_0, # of connection points: 4
#     Node 24, Type 1, BuildingBlock: NAHDIM_clean_linker_0, # of connection points: 4
#     Node 25, Type 1, BuildingBlock: NAHDIM_clean_linker_0, # of connection points: 4
#     Node 26, Type 1, BuildingBlock: NAHDIM_clean_linker_0, # of connection points: 4
#     Node 27, Type 1, BuildingBlock: NAHDIM_clean_linker_0, # of connection points: 4
#     Node 28, Type 1, BuildingBlock: NAHDIM_clean_linker_0, # of connection points: 4
#     Node 29, Type 1, BuildingBlock: NAHDIM_clean_linker_0, # of connection points: 4
#     Node 30, Type 1, BuildingBlock: NAHDIM_clean_linker_0, # of connection points: 4
#     Node 31, Type 1, BuildingBlock: NAHDIM_clean_linker_0, # of connection points: 4
#     Node 32, Type 1, BuildingBlock: NAHDIM_clean_linker_0, # of connection points: 4
#     Node 33, Type 1, BuildingBlock: NAHDIM_clean_linker_0, # of connection points: 4
#     Node 34, Type 1, BuildingBlock: NAHDIM_clean_linker_0, # of connection points: 4
#     Node 35, Type 1, BuildingBlock: NAHDIM_clean_linker_0, # of connection points: 4
#     Edge 36, Type (0, 1), BuildingBlock: KIFKEQ_clean_linker_1, # of connection points: 2
#     Edge 37, Type (0, 1), BuildingBlock: KIFKEQ_clean_linker_1, # of connection points: 2
#     Edge 38, Type (0, 1), BuildingBlock: KIFKEQ_clean_linker_1, # of connection points: 2
#     Edge 39, Type (0, 1), BuildingBlock: KIFKEQ_clean_linker_1, # of connection points: 2
#     Edge 40, Type (0, 1), BuildingBlock: KIFKEQ_clean_linker_1, # of connection points: 2
#     Edge 41, Type (0, 1), BuildingBlock: KIFKEQ_clean_linker_1, # of connection points: 2
#     Edge 42, Type (0, 1), BuildingBlock: KIFKEQ_clean_linker_1, # of connection points: 2
#     Edge 43, Type (0, 1), BuildingBlock: KIFKEQ_clean_linker_1, # of connection points: 2
#     Edge 44, Type (0, 1), BuildingBlock: KIFKEQ_clean_linker_1, # of connection points: 2
#     Edge 45, Type (0, 1), BuildingBlock: KIFKEQ_clean_linker_1, # of connection points: 2
#     Edge 46, Type (0, 1), BuildingBlock: KIFKEQ_clean_linker_1, # of connection points: 2
#     Edge 47, Type (0, 1), BuildingBlock: KIFKEQ_clean_linker_1, # of connection points: 2
#     Edge 48, Type (0, 1), BuildingBlock: KIFKEQ_clean_linker_1, # of connection points: 2
#     Edge 49, Type (0, 1), BuildingBlock: KIFKEQ_clean_linker_1, # of connection points: 2
#     Edge 50, Type (0, 1), BuildingBlock: KIFKEQ_clean_linker_1, # of connection points: 2
#     Edge 51, Type (0, 1), BuildingBlock: KIFKEQ_clean_linker_1, # of connection points: 2
#     Edge 52, Type (0, 1), BuildingBlock: KIFKEQ_clean_linker_1, # of connection points: 2
#     Edge 53, Type (0, 1), BuildingBlock: KIFKEQ_clean_linker_1, # of connection points: 2
#     Edge 54, Type (0, 1), BuildingBlock: KIFKEQ_clean_linker_1, # of connection points: 2
#     Edge 55, Type (0, 1), BuildingBlock: KIFKEQ_clean_linker_1, # of connection points: 2
#     Edge 56, Type (0, 1), BuildingBlock: KIFKEQ_clean_linker_1, # of connection points: 2
#     Edge 57, Type (0, 1), BuildingBlock: KIFKEQ_clean_linker_1, # of connection points: 2
#     Edge 58, Type (0, 1), BuildingBlock: KIFKEQ_clean_linker_1, # of connection points: 2
#     Edge 59, Type (0, 1), BuildingBlock: KIFKEQ_clean_linker_1, # of connection points: 2
#     Edge 60, Type (0, 1), BuildingBlock: KIFKEQ_clean_linker_1, # of connection points: 2
#     Edge 61, Type (0, 1), BuildingBlock: KIFKEQ_clean_linker_1, # of connection points: 2
#     Edge 62, Type (0, 1), BuildingBlock: KIFKEQ_clean_linker_1, # of connection points: 2
#     Edge 63, Type (0, 1), BuildingBlock: KIFKEQ_clean_linker_1, # of connection points: 2
#     Edge 64, Type (0, 1), BuildingBlock: KIFKEQ_clean_linker_1, # of connection points: 2
#     Edge 65, Type (0, 1), BuildingBlock: KIFKEQ_clean_linker_1, # of connection points: 2
#     Edge 66, Type (0, 1), BuildingBlock: KIFKEQ_clean_linker_1, # of connection points: 2
#     Edge 67, Type (0, 1), BuildingBlock: KIFKEQ_clean_linker_1, # of connection points: 2
#     Edge 68, Type (0, 1), BuildingBlock: KIFKEQ_clean_linker_1, # of connection points: 2
#     Edge 69, Type (0, 1), BuildingBlock: KIFKEQ_clean_linker_1, # of connection points: 2
#     Edge 70, Type (0, 1), BuildingBlock: KIFKEQ_clean_linker_1, # of connection points: 2
#     Edge 71, Type (0, 1), BuildingBlock: KIFKEQ_clean_linker_1, # of connection points: 2
#     Edge 72, Type (0, 1), BuildingBlock: KIFKEQ_clean_linker_1, # of connection points: 2
#     Edge 73, Type (0, 1), BuildingBlock: KIFKEQ_clean_linker_1, # of connection points: 2
#     Edge 74, Type (0, 1), BuildingBlock: KIFKEQ_clean_linker_1, # of connection points: 2
#     Edge 75, Type (0, 1), BuildingBlock: KIFKEQ_clean_linker_1, # of connection points: 2
#     Edge 76, Type (0, 1), BuildingBlock: KIFKEQ_clean_linker_1, # of connection points: 2
#     Edge 77, Type (0, 1), BuildingBlock: KIFKEQ_clean_linker_1, # of connection points: 2
#     Edge 78, Type (0, 1), BuildingBlock: KIFKEQ_clean_linker_1, # of connection points: 2
#     Edge 79, Type (0, 1), BuildingBlock: KIFKEQ_clean_linker_1, # of connection points: 2
#     Edge 80, Type (0, 1), BuildingBlock: KIFKEQ_clean_linker_1, # of connection points: 2
#     Edge 81, Type (0, 1), BuildingBlock: KIFKEQ_clean_linker_1, # of connection points: 2
#     Edge 82, Type (0, 1), BuildingBlock: KIFKEQ_clean_linker_1, # of connection points: 2
#     Edge 83, Type (0, 1), BuildingBlock: KIFKEQ_clean_linker_1, # of connection points: 2
#     Edge 84, Type (0, 1), BuildingBlock: KIFKEQ_clean_linker_1, # of connection points: 2
#     Edge 85, Type (0, 1), BuildingBlock: KIFKEQ_clean_linker_1, # of connection points: 2
#     Edge 86, Type (0, 1), BuildingBlock: KIFKEQ_clean_linker_1, # of connection points: 2
#     Edge 87, Type (0, 1), BuildingBlock: KIFKEQ_clean_linker_1, # of connection points: 2
#     Edge 88, Type (0, 1), BuildingBlock: KIFKEQ_clean_linker_1, # of connection points: 2
#     Edge 89, Type (0, 1), BuildingBlock: KIFKEQ_clean_linker_1, # of connection points: 2
#     Edge 90, Type (0, 1), BuildingBlock: KIFKEQ_clean_linker_1, # of connection points: 2
#     Edge 91, Type (0, 1), BuildingBlock: KIFKEQ_clean_linker_1, # of connection points: 2
#     Edge 92, Type (0, 1), BuildingBlock: KIFKEQ_clean_linker_1, # of connection points: 2
#     Edge 93, Type (0, 1), BuildingBlock: KIFKEQ_clean_linker_1, # of connection points: 2
#     Edge 94, Type (0, 1), BuildingBlock: KIFKEQ_clean_linker_1, # of connection points: 2
#     Edge 95, Type (0, 1), BuildingBlock: KIFKEQ_clean_linker_1, # of connection points: 2
#     Edge 96, Type (0, 1), BuildingBlock: KIFKEQ_clean_linker_1, # of connection points: 2
#     Edge 97, Type (0, 1), BuildingBlock: KIFKEQ_clean_linker_1, # of connection points: 2
#     Edge 98, Type (0, 1), BuildingBlock: KIFKEQ_clean_linker_1, # of connection points: 2
#     Edge 99, Type (0, 1), BuildingBlock: KIFKEQ_clean_linker_1, # of connection points: 2
#     Edge 100, Type (0, 1), BuildingBlock: KIFKEQ_clean_linker_1, # of connection points: 2
#     Edge 101, Type (0, 1), BuildingBlock: KIFKEQ_clean_linker_1, # of connection points: 2
#     Edge 102, Type (0, 1), BuildingBlock: KIFKEQ_clean_linker_1, # of connection points: 2
#     Edge 103, Type (0, 1), BuildingBlock: KIFKEQ_clean_linker_1, # of connection points: 2
#     Edge 104, Type (0, 1), BuildingBlock: KIFKEQ_clean_linker_1, # of connection points: 2
#     Edge 105, Type (0, 1), BuildingBlock: KIFKEQ_clean_linker_1, # of connection points: 2
#     Edge 106, Type (0, 1), BuildingBlock: KIFKEQ_clean_linker_1, # of connection points: 2
#     Edge 107, Type (0, 1), BuildingBlock: KIFKEQ_clean_linker_1, # of connection points: 2
# Relax obj value: 0.120
# Max RMSD: 0.338
# Mean RMSD: 0.137
data_MOF--net-ptr--node1-UXUYUI_clean_sbu_0--node2-NAHDIM_clean_linker_0--edge1-KIFKEQ_clean_linker_1
_symmetry_space_group_name_H-M    P1
_symmetry_Int_Tables_number       1
_symmetry_cell_setting            triclinic
loop_
_symmetry_equiv_pos_as_xyz
'x, y, z'
_cell_length_a     112.14388
_cell_length_b     111.9445
_cell_length_c     91.987678
_cell_angle_alpha  90.835306
_cell_angle_beta   90.225013
_cell_angle_gamma 120.44233
loop_
_atom_site_label
_atom_site_type_symbol
_atom_site_fract_x
_atom_site_fract_y
_atom_site_fract_z
_atom_type_partial_charge
Li0 Li 0.99467 0.32722 0.00238 0.0
Li1 Li 0.01795 0.33904 0.01213 0.0
Li2 Li 0.00184 0.34601 0.02137 0.0
Li3 Li 0.01124 0.35204 0.99706 0.0
C4 C 0.98926 0.31896 0.03118 0.0
N5 N 0.96663 0.30181 0.04778 0.0
C6 C 0.99025 0.3105 0.04157 0.0
C7 C 0.97676 0.31871 0.02925 0.0
C8 C 0.97869 0.3019 0.04984 0.0
C9 C 0.96544 0.30997 0.03775 0.0
C10 C 0.02143 0.33246 0.98575 0.0
C11 C 0.04399 0.33991 0.97598 0.0
N12 N 0.04094 0.3265 0.97535 0.0
C13 C 0.01843 0.31874 0.98487 0.0
C14 C 0.03424 0.34313 0.98115 0.0
C15 C 0.02847 0.31594 0.97964 0.0
C16 C 0.97667 0.31199 0.98003 0.0
N17 N 0.98053 0.31059 0.99362 0.0
C18 C 0.96542 0.28603 0.9922 0.0
C19 C 0.97523 0.29795 0.99978 0.0
C20 C 0.96123 0.28717 0.97812 0.0
C21 C 0.96695 0.30038 0.97208 0.0
H22 H 0.98131 0.32215 0.97532 0.0
H23 H 0.97878 0.29707 0.01043 0.0
C24 C 0.04532 0.34477 0.02026 0.0
N25 N 0.03184 0.33498 0.01779 0.0
C26 C 0.05478 0.34084 0.02471 0.0
C27 C 0.03625 0.31693 0.024 0.0
C28 C 0.02719 0.32131 0.01965 0.0
C29 C 0.05026 0.32674 0.02659 0.0
H30 H 0.04872 0.35559 0.0189 0.0
H31 H 0.01636 0.31378 0.01779 0.0
C32 C 0.98504 0.34993 0.99844 0.0
N33 N 0.97185 0.36371 0.98916 0.0
C34 C 0.99059 0.36397 0.0019 0.0
C35 C 0.97272 0.34286 0.99036 0.0
C36 C 0.9838 0.37077 0.99706 0.0
C37 C 0.96621 0.35001 0.98577 0.0
C38 C 0.03075 0.37184 0.01574 0.0
C39 C 0.02809 0.38117 0.02331 0.0
C40 C 0.043 0.37683 0.00797 0.0
C41 C 0.03774 0.39534 0.0229 0.0
C42 C 0.05238 0.39108 0.00782 0.0
N43 N 0.04957 0.39996 0.01523 0.0
C44 C 0.00518 0.35616 0.04976 0.0
C45 C 0.98576 0.35465 0.03763 0.0
C46 C 0.0035 0.36316 0.06152 0.0
N47 N 0.99661 0.35245 0.03798 0.0
C48 C 0.98379 0.36178 0.04908 0.0
C49 C 0.99296 0.36642 0.06105 0.0
H50 H 0.01375 0.3543 0.04967 0.0
H51 H 0.97892 0.35134 0.02826 0.0
C52 C 0.01084 0.35872 0.96823 0.0
N53 N 0.01509 0.36477 0.98163 0.0
C54 C 0.0109 0.36647 0.95643 0.0
C55 C 0.02017 0.38667 0.9723 0.0
C56 C 0.01983 0.37851 0.9838 0.0
C57 C 0.01539 0.38059 0.95846 0.0
H58 H 0.00686 0.34772 0.96683 0.0
H59 H 0.02264 0.38307 0.99455 0.0
O60 O 0.00053 0.32738 0.02301 0.0
O61 O 0.01191 0.33544 0.99125 0.0
O62 O 0.99148 0.34305 0.00309 0.0
O63 O 0.0215 0.35791 0.01615 0.0
H64 H 0.99985 0.31057 0.04318 0.0
H65 H 0.97573 0.32512 0.02126 0.0
H66 H 0.9793 0.29529 0.05791 0.0
H67 H 0.9557 0.30966 0.03635 0.0
H68 H 0.05399 0.34808 0.97246 0.0
H69 H 0.00853 0.31036 0.98838 0.0
H70 H 0.03662 0.35378 0.98161 0.0
H71 H 0.02636 0.30539 0.97901 0.0
H72 H 0.96141 0.27602 0.99717 0.0
H73 H 0.96393 0.30176 0.96132 0.0
H74 H 0.0655 0.34873 0.02657 0.0
H75 H 0.03226 0.30598 0.02557 0.0
H76 H 1.00001 0.36953 0.00832 0.0
H77 H 0.96816 0.33194 0.98779 0.0
H78 H 0.98801 0.38165 0.99961 0.0
H79 H 0.95665 0.34466 0.97955 0.0
H80 H 0.01865 0.37755 0.02931 0.0
H81 H 0.04522 0.36979 0.00204 0.0
H82 H 0.03579 0.40267 0.02865 0.0
H83 H 0.06188 0.39508 0.00181 0.0
H84 H 0.01084 0.36665 0.07051 0.0
H85 H 0.97542 0.36393 0.04843 0.0
H86 H 0.00719 0.3614 0.94591 0.0
H87 H 0.02347 0.39746 0.97441 0.0
Li88 Li 0.66942 0.65792 0.00667 0.0
Li89 Li 0.65785 0.66741 0.02121 0.0
Li90 Li 0.65171 0.64242 0.02306 0.0
Li91 Li 0.64453 0.65006 0.00168 0.0
C92 C 0.68287 0.66522 0.03197 0.0
N93 N 0.7106 0.67672 0.03884 0.0
C94 C 0.69124 0.67955 0.03402 0.0
C95 C 0.68855 0.65672 0.03359 0.0
C96 C 0.70525 0.68517 0.03744 0.0
C97 C 0.70261 0.66274 0.03701 0.0
C98 C 0.65991 0.67934 0.99348 0.0
C99 C 0.64618 0.68955 0.98709 0.0
N100 N 0.65737 0.70012 0.98062 0.0
C101 C 0.67123 0.69022 0.98662 0.0
C102 C 0.64726 0.67894 0.99361 0.0
C103 C 0.66975 0.70065 0.98024 0.0
C104 C 0.69 0.65407 0.99236 0.0
N105 N 0.68689 0.66337 0.99824 0.0
C106 C 0.70923 0.68219 0.99236 0.0
C107 C 0.69617 0.67718 0.99831 0.0
C108 C 0.71282 0.67289 0.98623 0.0
C109 C 0.70299 0.65863 0.98628 0.0
H110 H 0.6824 0.64314 0.99236 0.0
H111 H 0.69341 0.68433 0.00304 0.0
C112 C 0.65673 0.68032 0.0467 0.0
N113 N 0.66057 0.68296 0.03258 0.0
C114 C 0.65963 0.69117 0.05642 0.0
C115 C 0.67002 0.70725 0.03679 0.0
C116 C 0.66703 0.69609 0.02747 0.0
C117 C 0.66653 0.70487 0.05153 0.0
H118 H 0.65173 0.66978 0.05048 0.0
H119 H 0.67032 0.698 0.01632 0.0
C120 C 0.65065 0.62545 0.0017 0.0
N121 N 0.6438 0.59801 0.00133 0.0
C122 C 0.63855 0.61539 0.99464 0.0
C123 C 0.65935 0.62158 0.00841 0.0
C124 C 0.63525 0.60157 0.99461 0.0
C125 C 0.65568 0.60764 0.00816 0.0
C126 C 0.62692 0.64909 0.02537 0.0
C127 C 0.61572 0.63624 0.02917 0.0
C128 C 0.62537 0.66072 0.02535 0.0
C129 C 0.60306 0.63517 0.03244 0.0
C130 C 0.61255 0.65923 0.0287 0.0
N131 N 0.60175 0.64659 0.03212 0.0
C132 C 0.65263 0.62947 0.04895 0.0
C133 C 0.63375 0.61537 0.03312 0.0
C134 C 0.6477 0.61899 0.05921 0.0
N135 N 0.64558 0.62751 0.03624 0.0
C136 C 0.62849 0.6046 0.04301 0.0
C137 C 0.63541 0.60638 0.05634 0.0
H138 H 0.66193 0.63929 0.05123 0.0
H139 H 0.62819 0.61417 0.02307 0.0
C140 C 0.63321 0.64969 0.97382 0.0
N141 N 0.6303 0.64395 0.98721 0.0
C142 C 0.6229 0.64491 0.96306 0.0
C143 C 0.6069 0.62818 0.97993 0.0
C144 C 0.6175 0.63331 0.99036 0.0
C145 C 0.60952 0.63398 0.96605 0.0
H146 H 0.64357 0.65793 0.97146 0.0
H147 H 0.6156 0.62853 0.00085 0.0
O148 O 0.66918 0.65956 0.02835 0.0
O149 O 0.66123 0.66908 0.99985 0.0
O150 O 0.65396 0.63901 0.00199 0.0
O151 O 0.63946 0.65034 0.02233 0.0
H152 H 0.68702 0.68629 0.0328 0.0
H153 H 0.6822 0.64561 0.03221 0.0
H154 H 0.71187 0.69625 0.03895 0.0
H155 H 0.70717 0.65629 0.03823 0.0
H156 H 0.63644 0.68936 0.98712 0.0
H157 H 0.68107 0.69064 0.98623 0.0
H158 H 0.6383 0.67041 0.99845 0.0
H159 H 0.67845 0.70917 0.97496 0.0
H160 H 0.71634 0.69327 0.99235 0.0
H161 H 0.70534 0.65108 0.98179 0.0
H162 H 0.6567 0.6889 0.06769 0.0
H163 H 0.67554 0.71768 0.03266 0.0
H164 H 0.63177 0.61822 0.98927 0.0
H165 H 0.66876 0.62923 0.01386 0.0
H166 H 0.62589 0.59367 0.98925 0.0
H167 H 0.66227 0.60449 0.01341 0.0
H168 H 0.61674 0.62716 0.02948 0.0
H169 H 0.63398 0.67084 0.02293 0.0
H170 H 0.59429 0.62526 0.03525 0.0
H171 H 0.61122 0.66815 0.02865 0.0
H172 H 0.65341 0.62076 0.06931 0.0
H173 H 0.61888 0.59515 0.04045 0.0
H174 H 0.62538 0.64973 0.95253 0.0
H175 H 0.59685 0.61951 0.98262 0.0
Li176 Li 0.34844 0.9967 0.99435 0.0
Li177 Li 0.35382 0.0071 0.01874 0.0
Li178 Li 0.32923 0.99027 0.01078 0.0
Li179 Li 0.34108 0.01369 0.00165 0.0
C180 C 0.34912 0.97757 0.01175 0.0
N181 N 0.35765 0.95843 0.00871 0.0
C182 C 0.3626 0.98115 0.01567 0.0
C183 C 0.3399 0.96416 0.00654 0.0
C184 C 0.36674 0.97136 0.01398 0.0
C185 C 0.34443 0.95466 0.00501 0.0
C186 C 0.37192 0.0295 0.00074 0.0
C187 C 0.38399 0.05335 0.00909 0.0
N188 N 0.39568 0.05527 0.00258 0.0
C189 C 0.38402 0.03177 0.99397 0.0
C190 C 0.37187 0.04042 0.00823 0.0
C191 C 0.39594 0.04485 0.99509 0.0
C192 C 0.35033 0.98635 0.96617 0.0
N193 N 0.35657 0.99146 0.97933 0.0
C194 C 0.37736 0.99277 0.97112 0.0
C195 C 0.36974 0.9945 0.982 0.0
C196 C 0.37139 0.98786 0.95726 0.0
C197 C 0.35757 0.98437 0.95494 0.0
H198 H 0.33994 0.98427 0.96421 0.0
H199 H 0.37456 0.99889 0.99243 0.0
C200 C 0.36113 0.00738 0.0478 0.0
N201 N 0.36657 0.01198 0.03447 0.0
C202 C 0.36969 0.00855 0.05945 0.0
C203 C 0.38935 0.01954 0.04354 0.0
C204 C 0.3804 0.01816 0.03219 0.0
C205 C 0.38397 0.01441 0.05731 0.0
H206 H 0.35006 0.00226 0.0492 0.0
H207 H 0.38445 0.02136 0.02143 0.0
C208 C 0.31852 0.98638 0.98382 0.0
N209 N 0.29351 0.96657 0.97165 0.0
C210 C 0.30876 0.98995 0.97959 0.0
C211 C 0.31565 0.97279 0.98165 0.0
C212 C 0.29615 0.97977 0.97352 0.0
C213 C 0.30293 0.96291 0.97554 0.0
C214 C 0.33521 0.01702 0.03092 0.0
C215 C 0.32203 0.01493 0.03366 0.0
C216 C 0.34675 0.02823 0.03763 0.0
C217 C 0.32067 0.02434 0.04261 0.0
C218 C 0.34496 0.0374 0.04653 0.0
N219 N 0.33207 0.03531 0.0488 0.0
C220 C 0.30947 0.96529 0.02474 0.0
C221 C 0.30114 0.97935 0.01535 0.0
C222 C 0.29653 0.95631 0.03068 0.0
N223 N 0.3115 0.97658 0.01732 0.0
C224 C 0.28813 0.97072 0.02113 0.0
C225 C 0.28568 0.95908 0.02907 0.0
H226 H 0.31796 0.96348 0.02638 0.0
H227 H 0.30314 0.98856 0.00969 0.0
C228 C 0.34611 0.03825 0.98676 0.0
N229 N 0.33723 0.02745 0.99507 0.0
C230 C 0.34221 0.04737 0.98127 0.0
C231 C 0.32001 0.03388 0.99267 0.0
C232 C 0.32438 0.02514 0.99804 0.0
C233 C 0.32893 0.04518 0.9841 0.0
H234 H 0.3561 0.03962 0.98411 0.0
H235 H 0.31731 0.01614 0.0041 0.0
O236 O 0.34488 0.98703 0.01333 0.0
O237 O 0.36018 0.0167 0.99982 0.0
O238 O 0.33082 0.99613 0.99006 0.0
O239 O 0.33672 0.00782 0.02226 0.0
H240 H 0.36985 0.99142 0.01982 0.0
H241 H 0.32934 0.96107 0.00379 0.0
H242 H 0.37718 0.97405 0.01685 0.0
H243 H 0.33741 0.94427 0.00094 0.0
H244 H 0.38407 0.06188 0.01486 0.0
H245 H 0.38425 0.02354 0.98793 0.0
H246 H 0.36251 0.03903 0.01305 0.0
H247 H 0.40539 0.04671 0.98997 0.0
H248 H 0.38805 0.99593 0.97338 0.0
H249 H 0.3525 0.98046 0.94448 0.0
H250 H 0.36507 0.00426 0.06981 0.0
H251 H 0.40029 0.02421 0.04143 0.0
H252 H 0.31085 0.00044 0.98103 0.0
H253 H 0.32318 0.96993 0.98462 0.0
H254 H 0.28847 0.98236 0.97029 0.0
H255 H 0.30055 0.95234 0.97387 0.0
H256 H 0.31293 0.00615 0.02889 0.0
H257 H 0.35699 0.02981 0.03609 0.0
H258 H 0.31054 0.02289 0.04469 0.0
H259 H 0.35383 0.04616 0.0517 0.0
H260 H 0.29511 0.94741 0.03663 0.0
H261 H 0.28024 0.9735 0.01986 0.0
H262 H 0.34947 0.05595 0.97476 0.0
H263 H 0.30954 0.03147 0.9948 0.0
Li264 Li 0.01103 0.67382 0.01882 0.0
Li265 Li 0.99482 0.64967 0.02396 0.0
Li266 Li 0.00493 0.65653 0.99998 0.0
Li267 Li 0.98741 0.66194 0.00735 0.0
C268 C 0.0271 0.66337 0.02541 0.0
N269 N 0.05251 0.67422 0.03927 0.0
C270 C 0.02795 0.65945 0.03957 0.0
C271 C 0.03918 0.6727 0.01826 0.0
C272 C 0.04089 0.66507 0.04639 0.0
C273 C 0.05192 0.67811 0.02547 0.0
C274 C 0.99084 0.66817 0.04235 0.0
C275 C 0.97784 0.67198 0.06079 0.0
N276 N 0.98681 0.67247 0.07111 0.0
C277 C 0.99988 0.66864 0.05312 0.0
C278 C 0.9797 0.6698 0.04618 0.0
C279 C 0.99769 0.67086 0.0676 0.0
C280 C 0.02439 0.70238 0.01924 0.0
N281 N 0.02409 0.69178 0.02658 0.0
C282 C 0.03916 0.70757 0.04505 0.0
C283 C 0.03139 0.69413 0.03921 0.0
C284 C 0.03928 0.71864 0.03791 0.0
C285 C 0.03198 0.71593 0.02468 0.0
H286 H 0.01835 0.70025 0.00936 0.0
H287 H 0.03083 0.68559 0.04506 0.0
C288 C 0.99489 0.62736 0.03607 0.0
N289 N 0.98919 0.63548 0.03785 0.0
C290 C 0.99258 0.61731 0.04621 0.0
C291 C 0.978 0.62366 0.05951 0.0
C292 C 0.98059 0.63362 0.04907 0.0
C293 C 0.98426 0.61553 0.0583 0.0
H294 H 0.00155 0.62898 0.02692 0.0
H295 H 0.97597 0.64002 0.0501 0.0
C296 C 0.01066 0.67852 0.98497 0.0
N297 N 0.0211 0.68631 0.95738 0.0
C298 C 0.00168 0.6754 0.9731 0.0
C299 C 0.02494 0.68575 0.98285 0.0
C300 C 0.00717 0.67939 0.95922 0.0
C301 C 0.03002 0.68955 0.9688 0.0
C302 C 0.97161 0.63329 0.00642 0.0
C303 C 0.96562 0.62132 0.99762 0.0
C304 C 0.96368 0.635 0.01703 0.0
C305 C 0.95177 0.61123 0.99962 0.0
C306 C 0.94988 0.62467 0.0187 0.0
N307 N 0.94426 0.61309 0.01003 0.0
C308 C 0.02219 0.64945 0.98355 0.0
C309 C 0.00129 0.64508 0.97223 0.0
C310 C 0.02497 0.64316 0.97184 0.0
N311 N 0.01045 0.65017 0.98355 0.0
C312 C 0.0037 0.63883 0.96028 0.0
C313 C 0.01557 0.63761 0.96007 0.0
H314 H 0.02916 0.65334 0.99283 0.0
H315 H 0.99187 0.6455 0.97271 0.0
C316 C 0.97538 0.67795 0.0062 0.0
N317 N 0.97363 0.66571 0.00112 0.0
C318 C 0.96721 0.68302 0.00082 0.0
C319 C 0.95524 0.66255 0.98535 0.0
C320 C 0.96372 0.65788 0.99102 0.0
C321 C 0.95713 0.67543 0.99004 0.0
H322 H 0.98358 0.68407 0.01399 0.0
H323 H 0.96275 0.64831 0.98697 0.0
O324 O 0.01453 0.65795 0.01852 0.0
O325 O 0.99264 0.6658 0.02813 0.0
O326 O 0.0055 0.6745 0.9986 0.0
O327 O 0.98513 0.64326 0.00447 0.0
H328 H 0.01874 0.65223 0.04529 0.0
H329 H 0.03872 0.67577 0.00728 0.0
H330 H 0.04169 0.66219 0.05737 0.0
H331 H 0.06135 0.6854 0.02008 0.0
H332 H 0.96926 0.67325 0.06392 0.0
H333 H 0.00834 0.66708 0.05036 0.0
H334 H 0.97251 0.6693 0.03797 0.0
H335 H 0.0046 0.67122 0.07607 0.0
H336 H 0.04453 0.70919 0.05535 0.0
H337 H 0.03194 0.72417 0.0187 0.0
H338 H 0.99738 0.61109 0.04468 0.0
H339 H 0.97153 0.62266 0.06867 0.0
H340 H 0.9906 0.66983 0.97457 0.0
H341 H 0.03202 0.6884 0.99196 0.0
H342 H 0.00034 0.67696 0.94991 0.0
H343 H 0.04106 0.6951 0.96699 0.0
H344 H 0.97162 0.61988 0.98932 0.0
H345 H 0.96809 0.64421 0.02389 0.0
H346 H 0.947 0.60192 0.99288 0.0
H347 H 0.94362 0.62586 0.02687 0.0
H348 H 0.03426 0.64247 0.97208 0.0
H349 H 0.99605 0.63447 0.95159 0.0
H350 H 0.96928 0.69312 0.00455 0.0
H351 H 0.94755 0.65632 0.97713 0.0
Li352 Li 0.33615 0.34683 0.01049 0.0
Li353 Li 0.36029 0.35288 0.01545 0.0
Li354 Li 0.3534 0.35949 0.99243 0.0
Li355 Li 0.34676 0.33542 0.99602 0.0
C356 C 0.34864 0.3724 0.02185 0.0
N357 N 0.33971 0.38579 0.04044 0.0
C358 C 0.35343 0.37532 0.03625 0.0
C359 C 0.33943 0.37641 0.01686 0.0
C360 C 0.34877 0.38207 0.04549 0.0
C361 C 0.33499 0.38312 0.02644 0.0
C362 C 0.34221 0.32536 0.02708 0.0
C363 C 0.34776 0.30823 0.03485 0.0
N364 N 0.3402 0.30622 0.04705 0.0
C365 C 0.33438 0.32302 0.03962 0.0
C366 C 0.34887 0.31783 0.02462 0.0
C367 C 0.33354 0.31335 0.04961 0.0
C368 C 0.30754 0.33512 0.01077 0.0
N369 N 0.31907 0.34255 0.01918 0.0
C370 C 0.3053 0.34036 0.03987 0.0
C371 C 0.31821 0.34533 0.03346 0.0
C372 C 0.29321 0.33228 0.03154 0.0
C373 C 0.29445 0.32987 0.01675 0.0
H374 H 0.30849 0.33284 0.99952 0.0
H375 H 0.3275 0.35087 0.04004 0.0
C376 C 0.38714 0.36944 0.02717 0.0
N377 N 0.37425 0.35888 0.03023 0.0
C378 C 0.39753 0.3748 0.0379 0.0
C379 C 0.3812 0.35816 0.05462 0.0
C380 C 0.37114 0.35322 0.04363 0.0
C381 C 0.39459 0.36921 0.05191 0.0
H382 H 0.38928 0.37385 0.01645 0.0
H383 H 0.36078 0.34507 0.04594 0.0
C384 C 0.33077 0.34534 0.97643 0.0
N385 N 0.32299 0.35117 0.95017 0.0
C386 C 0.33233 0.33956 0.96352 0.0
C387 C 0.32513 0.35396 0.97601 0.0
C388 C 0.32836 0.34266 0.95034 0.0
C389 C 0.3213 0.35682 0.96262 0.0
C390 C 0.37517 0.34766 0.99161 0.0
C391 C 0.38076 0.34977 0.97769 0.0
C392 C 0.37933 0.34157 0.00211 0.0
C393 C 0.3902 0.34549 0.97442 0.0
C394 C 0.38879 0.33744 0.99843 0.0
N395 N 0.39398 0.33945 0.98477 0.0
C396 C 0.36094 0.38601 0.98162 0.0
C397 C 0.36246 0.37073 0.96465 0.0
C398 C 0.36567 0.39642 0.97128 0.0
N399 N 0.35944 0.37348 0.97813 0.0
C400 C 0.36724 0.38082 0.95399 0.0
C401 C 0.36897 0.39391 0.95727 0.0
H402 H 0.35862 0.38799 0.99247 0.0
H403 H 0.36114 0.36066 0.96216 0.0
C404 C 0.33062 0.30707 0.9934 0.0
N405 N 0.34179 0.31795 0.98732 0.0
C406 C 0.32534 0.2937 0.98775 0.0
C407 C 0.34284 0.30293 0.96923 0.0
C408 C 0.34792 0.31618 0.9754 0.0
C409 C 0.33142 0.29149 0.97549 0.0
H410 H 0.32564 0.30882 0.00256 0.0
H411 H 0.35651 0.32503 0.97047 0.0
O412 O 0.35306 0.36576 0.01265 0.0
O413 O 0.34307 0.33477 0.01716 0.0
O414 O 0.3348 0.34261 0.9894 0.0
O415 O 0.36592 0.35181 0.99497 0.0
H416 H 0.36062 0.37237 0.04028 0.0
H417 H 0.33567 0.37429 0.00574 0.0
H418 H 0.35234 0.38435 0.05668 0.0
H419 H 0.32779 0.38621 0.02275 0.0
H420 H 0.35287 0.30234 0.03307 0.0
H421 H 0.32908 0.32866 0.04169 0.0
H422 H 0.35465 0.31919 0.01481 0.0
H423 H 0.32758 0.3115 0.0594 0.0
H424 H 0.30478 0.3423 0.05136 0.0
H425 H 0.28537 0.32379 0.00992 0.0
H426 H 0.40762 0.38344 0.03534 0.0
H427 H 0.37847 0.35336 0.06516 0.0
H428 H 0.33667 0.33286 0.96366 0.0
H429 H 0.32375 0.35841 0.98592 0.0
H430 H 0.32958 0.33833 0.94025 0.0
H431 H 0.31698 0.36353 0.96212 0.0
H432 H 0.3778 0.3546 0.96945 0.0
H433 H 0.37537 0.34011 0.01302 0.0
H434 H 0.39453 0.34698 0.96366 0.0
H435 H 0.39205 0.33266 0.00646 0.0
H436 H 0.367 0.40641 0.97432 0.0
H437 H 0.36946 0.37837 0.94328 0.0
H438 H 0.31633 0.28522 0.9927 0.0
H439 H 0.34774 0.30164 0.9597 0.0
Li440 Li 0.66348 0.98913 0.01665 0.0
Li441 Li 0.65725 0.00655 0.02327 0.0
Li442 Li 0.65153 0.99542 0.99844 0.0
Li443 Li 0.67547 0.01257 0.00504 0.0
C444 C 0.63581 0.97326 0.02149 0.0
N445 N 0.61827 0.94609 0.02923 0.0
C446 C 0.63 0.97026 0.03532 0.0
C447 C 0.63254 0.96246 0.01153 0.0
C448 C 0.6212 0.95645 0.03905 0.0
C449 C 0.6237 0.94879 0.01566 0.0
C450 C 0.68158 0.01406 0.03861 0.0
C451 C 0.69658 0.03472 0.05274 0.0
N452 N 0.69422 0.02686 0.06471 0.0
C453 C 0.67948 0.00618 0.05099 0.0
C454 C 0.69034 0.02844 0.03944 0.0
C455 C 0.68589 0.01284 0.0641 0.0
C456 C 0.67793 0.97514 0.01716 0.0
N457 N 0.66753 0.97575 0.024 0.0
C458 C 0.66696 0.96064 0.04247 0.0
C459 C 0.66191 0.96862 0.03637 0.0
C460 C 0.678 0.96018 0.03586 0.0
C461 C 0.68328 0.96733 0.02287 0.0
H462 H 0.68242 0.98116 0.00753 0.0
H463 H 0.654 0.96965 0.04191 0.0
C464 C 0.64515 0.02111 0.03613 0.0
N465 N 0.6502 0.01258 0.0388 0.0
C466 C 0.6385 0.02424 0.04708 0.0
C467 C 0.64232 0.0097 0.06331 0.0
C468 C 0.64895 0.00692 0.05208 0.0
C469 C 0.63683 0.01834 0.06085 0.0
H470 H 0.64588 0.02516 0.02537 0.0
H471 H 0.65255 0.99974 0.05378 0.0
C472 C 0.6674 0.98721 0.98319 0.0
N473 N 0.66568 0.97361 0.95726 0.0
C474 C 0.67294 0.99473 0.97055 0.0
C475 C 0.66123 0.97278 0.98271 0.0
C476 C 0.67189 0.98766 0.95752 0.0
C477 C 0.6604 0.96609 0.96948 0.0
C478 C 0.66435 0.02899 0.00087 0.0
C479 C 0.66196 0.03273 0.98722 0.0
C480 C 0.67195 0.03926 0.01138 0.0
C481 C 0.66742 0.04675 0.98422 0.0
C482 C 0.67723 0.05316 0.00798 0.0
N483 N 0.67489 0.05659 0.99457 0.0
C484 C 0.6248 0.98059 0.98498 0.0
C485 C 0.64304 0.99592 0.96981 0.0
C486 C 0.61513 0.97756 0.97383 0.0
N487 N 0.63846 0.98963 0.98279 0.0
C488 C 0.63374 0.99324 0.95839 0.0
C489 C 0.61953 0.98406 0.96035 0.0
H490 H 0.62135 0.97603 0.99552 0.0
H491 H 0.65387 0.00343 0.9685 0.0
C492 C 0.70418 0.02661 0.00436 0.0
N493 N 0.693 0.02574 0.99752 0.0
C494 C 0.71728 0.03416 0.99832 0.0
C495 C 0.70723 0.04006 0.9784 0.0
C496 C 0.69428 0.03238 0.98485 0.0
C497 C 0.7189 0.04075 0.98499 0.0
H498 H 0.70282 0.02095 0.01423 0.0
H499 H 0.68518 0.03112 0.97934 0.0
O500 O 0.64456 0.98671 0.01769 0.0
O501 O 0.67546 0.0077 0.02565 0.0
O502 O 0.66836 0.99396 0.99605 0.0
O503 O 0.65923 0.01533 0.00396 0.0
H504 H 0.63229 0.97848 0.04313 0.0
H505 H 0.63668 0.96462 0.00069 0.0
H506 H 0.61669 0.95398 0.04975 0.0
H507 H 0.62111 0.94033 0.00807 0.0
H508 H 0.70334 0.04584 0.05355 0.0
H509 H 0.67287 0.99503 0.05052 0.0
H510 H 0.69243 0.03468 0.02988 0.0
H511 H 0.68424 0.00686 0.0738 0.0
H512 H 0.66272 0.95545 0.05261 0.0
H513 H 0.69168 0.96714 0.01731 0.0
H514 H 0.63452 0.03103 0.04469 0.0
H515 H 0.64101 0.00464 0.07361 0.0
H516 H 0.6779 0.0059 0.97075 0.0
H517 H 0.65726 0.96681 0.99246 0.0
H518 H 0.67603 0.99336 0.94763 0.0
H519 H 0.65561 0.95493 0.96894 0.0
H520 H 0.656 0.02492 0.97899 0.0
H521 H 0.67362 0.03652 0.02209 0.0
H522 H 0.66571 0.0498 0.97367 0.0
H523 H 0.68315 0.06122 0.01601 0.0
H524 H 0.6043 0.97036 0.97582 0.0
H525 H 0.63761 0.99875 0.94834 0.0
H526 H 0.72601 0.03454 0.00386 0.0
H527 H 0.70796 0.04482 0.96802 0.0
Li528 Li 0.65639 0.66549 0.3352 0.0
Li529 Li 0.67823 0.67762 0.34903 0.0
Li530 Li 0.65944 0.68345 0.35238 0.0
Li531 Li 0.67349 0.6907 0.33052 0.0
C532 C 0.65106 0.65272 0.36114 0.0
N533 N 0.63449 0.62567 0.36978 0.0
C534 C 0.65699 0.64483 0.36505 0.0
C535 C 0.63673 0.64692 0.36183 0.0
C536 C 0.64843 0.63116 0.36934 0.0
C537 C 0.62852 0.63321 0.36616 0.0
C538 C 0.68551 0.67314 0.32019 0.0
C539 C 0.70828 0.68369 0.3098 0.0
N540 N 0.70555 0.67103 0.30487 0.0
C541 C 0.68287 0.66026 0.31483 0.0
C542 C 0.69826 0.68498 0.31751 0.0
C543 C 0.69316 0.6594 0.30719 0.0
C544 C 0.63382 0.64665 0.317 0.0
N545 N 0.64403 0.64808 0.32616 0.0
C546 C 0.63823 0.62472 0.32126 0.0
C547 C 0.64634 0.63745 0.32839 0.0
C548 C 0.62775 0.62296 0.31155 0.0
C549 C 0.6255 0.6341 0.30952 0.0
H550 H 0.63234 0.65535 0.31525 0.0
H551 H 0.65478 0.63898 0.33538 0.0
C552 C 0.69733 0.68243 0.37148 0.0
N553 N 0.69201 0.67538 0.35873 0.0
C554 C 0.70738 0.68109 0.37909 0.0
C555 C 0.70611 0.66505 0.36044 0.0
C556 C 0.69604 0.66666 0.35323 0.0
C557 C 0.71197 0.67236 0.37354 0.0
H558 H 0.69373 0.68909 0.37575 0.0
H559 H 0.69139 0.66085 0.34331 0.0
C560 C 0.64256 0.68395 0.33203 0.0
N561 N 0.62168 0.69018 0.33312 0.0
C562 C 0.64493 0.69677 0.32728 0.0
C563 C 0.62951 0.67422 0.33712 0.0
C564 C 0.63426 0.69974 0.32797 0.0
C565 C 0.61911 0.67759 0.33765 0.0
C566 C 0.69186 0.70845 0.35288 0.0
C567 C 0.69175 0.72001 0.35867 0.0
C568 C 0.70446 0.70951 0.34933 0.0
C569 C 0.70422 0.73253 0.36045 0.0
C570 C 0.71671 0.72219 0.35129 0.0
N571 N 0.71634 0.73335 0.35674 0.0
C572 C 0.64461 0.68192 0.37799 0.0
C573 C 0.65191 0.70203 0.36402 0.0
C574 C 0.63896 0.68679 0.38839 0.0
N575 N 0.65092 0.68957 0.36611 0.0
C576 C 0.64632 0.70725 0.37406 0.0
C577 C 0.63982 0.69964 0.38651 0.0
H578 H 0.64413 0.67213 0.3795 0.0
H579 H 0.65724 0.70803 0.35463 0.0
C580 C 0.68266 0.7013 0.30236 0.0
N581 N 0.68112 0.70469 0.31619 0.0
C582 C 0.68773 0.71136 0.29162 0.0
C583 C 0.68931 0.72813 0.30952 0.0
C584 C 0.68423 0.71777 0.31989 0.0
C585 C 0.69111 0.72499 0.29514 0.0
H586 H 0.67983 0.69076 0.29962 0.0
H587 H 0.6824 0.72008 0.33081 0.0
O588 O 0.65927 0.6661 0.35682 0.0
O589 O 0.6755 0.67415 0.32765 0.0
O590 O 0.65293 0.68091 0.33159 0.0
O591 O 0.67972 0.69611 0.35111 0.0
H592 H 0.66807 0.64919 0.36469 0.0
H593 H 0.63199 0.65293 0.35904 0.0
H594 H 0.65287 0.6249 0.37231 0.0
H595 H 0.61741 0.62856 0.36667 0.0
H596 H 0.71819 0.69278 0.30768 0.0
H597 H 0.67303 0.65101 0.31661 0.0
H598 H 0.70035 0.69509 0.32111 0.0
H599 H 0.69128 0.64948 0.30308 0.0
H600 H 0.64051 0.61652 0.32292 0.0
H601 H 0.6175 0.63315 0.30215 0.0
H602 H 0.71139 0.68673 0.38929 0.0
H603 H 0.70937 0.65828 0.35568 0.0
H604 H 0.65493 0.70438 0.3232 0.0
H605 H 0.62744 0.66418 0.34061 0.0
H606 H 0.63598 0.70966 0.32442 0.0
H607 H 0.60898 0.67018 0.34164 0.0
H608 H 0.68213 0.71936 0.36167 0.0
H609 H 0.70482 0.7006 0.34528 0.0
H610 H 0.70427 0.74158 0.36481 0.0
H611 H 0.72653 0.72314 0.34855 0.0
H612 H 0.63396 0.68056 0.39779 0.0
H613 H 0.64742 0.7173 0.3723 0.0
H614 H 0.68902 0.70848 0.2807 0.0
H615 H 0.69145 0.7384 0.31266 0.0
Li616 Li 0.3034 0.97857 0.34319 0.0
Li617 Li 0.31097 0.9716 0.36519 0.0
Li618 Li 0.31884 0.99641 0.36111 0.0
Li619 Li 0.32737 0.98354 0.34621 0.0
C620 C 0.28749 0.98027 0.3647 0.0
N621 N 0.26217 0.97879 0.36545 0.0
C622 C 0.27575 0.96813 0.36911 0.0
C623 C 0.28641 0.9917 0.36083 0.0
C624 C 0.26302 0.96757 0.36937 0.0
C625 C 0.2735 0.99074 0.36124 0.0
C626 C 0.31289 0.95798 0.33478 0.0
C627 C 0.3251 0.94626 0.32767 0.0
N628 N 0.31952 0.94421 0.31406 0.0
C629 C 0.30724 0.9557 0.32074 0.0
C630 C 0.32184 0.95315 0.3383 0.0
C631 C 0.31073 0.94874 0.31042 0.0
C632 C 0.29122 0.98055 0.31708 0.0
N633 N 0.28869 0.97327 0.32951 0.0
C634 C 0.26568 0.95706 0.32133 0.0
C635 C 0.27625 0.9617 0.33178 0.0
C636 C 0.26802 0.96432 0.30832 0.0
C637 C 0.28097 0.97628 0.30632 0.0
H638 H 0.30131 0.98947 0.31532 0.0
H639 H 0.27466 0.95584 0.34154 0.0
C640 C 0.30046 0.95992 0.39267 0.0
N641 N 0.30482 0.95776 0.37964 0.0
C642 C 0.29505 0.94945 0.40299 0.0
C643 C 0.29902 0.93492 0.38639 0.0
C644 C 0.30422 0.94559 0.37637 0.0
C645 C 0.29423 0.93672 0.39987 0.0
H646 H 0.30099 0.96969 0.39493 0.0
H647 H 0.30753 0.94406 0.36586 0.0
C648 C 0.32593 0.00864 0.33344 0.0
N649 N 0.33658 0.03448 0.32135 0.0
C650 C 0.33974 0.01599 0.32915 0.0
C651 C 0.31752 0.01439 0.33151 0.0
C652 C 0.34493 0.02905 0.32307 0.0
C653 C 0.3231 0.02748 0.32541 0.0
C654 C 0.33536 0.98593 0.37958 0.0
C655 C 0.33829 0.99469 0.39171 0.0
C656 C 0.33817 0.97513 0.38011 0.0
C657 C 0.34395 0.99245 0.40421 0.0
C658 C 0.34375 0.97317 0.39283 0.0
N659 N 0.34652 0.98182 0.40452 0.0
C660 C 0.31717 0.01192 0.38417 0.0
C661 C 0.33317 0.02597 0.36635 0.0
C662 C 0.32077 0.02354 0.393 0.0
N663 N 0.32346 0.0133 0.37117 0.0
C664 C 0.33683 0.03791 0.37467 0.0
C665 C 0.33074 0.03671 0.38826 0.0
H666 H 0.30966 0.0017 0.38786 0.0
H667 H 0.3384 0.02686 0.35627 0.0
C668 C 0.34231 0.98337 0.32152 0.0
N669 N 0.343 0.98537 0.33618 0.0
C670 C 0.35337 0.98378 0.31414 0.0
C671 C 0.36596 0.98917 0.33695 0.0
C672 C 0.35459 0.98845 0.34392 0.0
C673 C 0.36539 0.98658 0.32188 0.0
H674 H 0.33305 0.98118 0.31561 0.0
H675 H 0.35498 0.99028 0.35551 0.0
O676 O 0.29999 0.98094 0.36422 0.0
O677 O 0.30969 0.96489 0.345 0.0
O678 O 0.32067 0.99582 0.33934 0.0
O679 O 0.33018 0.98821 0.36711 0.0
H680 H 0.27646 0.95921 0.37219 0.0
H681 H 0.29544 0.00122 0.35757 0.0
H682 H 0.25382 0.95822 0.37268 0.0
H683 H 0.27249 0.9995 0.35823 0.0
H684 H 0.33209 0.94257 0.33022 0.0
H685 H 0.30029 0.95932 0.31778 0.0
H686 H 0.3264 0.95489 0.34905 0.0
H687 H 0.30647 0.94695 0.29951 0.0
H688 H 0.25595 0.94765 0.32321 0.0
H689 H 0.28321 0.98222 0.2965 0.0
H690 H 0.29154 0.95129 0.41329 0.0
H691 H 0.29837 0.92521 0.38344 0.0
H692 H 0.34641 0.0117 0.33057 0.0
H693 H 0.30678 0.00879 0.33467 0.0
H694 H 0.35561 0.03488 0.31974 0.0
H695 H 0.31671 0.03206 0.32387 0.0
H696 H 0.33641 0.00325 0.39142 0.0
H697 H 0.33606 0.96833 0.37078 0.0
H698 H 0.34636 0.9992 0.41365 0.0
H699 H 0.34593 0.96482 0.3934 0.0
H700 H 0.31592 0.02225 0.40347 0.0
H701 H 0.34471 0.04791 0.3708 0.0
H702 H 0.35233 0.98158 0.30256 0.0
H703 H 0.37511 0.99175 0.34335 0.0
Li704 Li 0.02357 0.32476 0.33162 0.0
Li705 Li 0.03016 0.33783 0.35537 0.0
Li706 Li 0.00557 0.32148 0.34844 0.0
Li707 Li 0.01871 0.34322 0.33618 0.0
C708 C 0.01529 0.3032 0.35134 0.0
N709 N 0.00447 0.27487 0.35052 0.0
C710 C 0.01908 0.29693 0.36199 0.0
C711 C 0.006 0.29508 0.34027 0.0
C712 C 0.01349 0.28259 0.36139 0.0
C713 C 0.00064 0.28077 0.34005 0.0
C714 C 0.04593 0.35566 0.32783 0.0
C715 C 0.06098 0.38035 0.32566 0.0
N716 N 0.06362 0.3784 0.31168 0.0
C717 C 0.04892 0.35389 0.31349 0.0
C718 C 0.05212 0.36898 0.33403 0.0
C719 C 0.05785 0.36552 0.30549 0.0
C720 C 0.02387 0.31348 0.30411 0.0
N721 N 0.02951 0.31633 0.31771 0.0
C722 C 0.04492 0.30836 0.31111 0.0
C723 C 0.03977 0.31382 0.32142 0.0
C724 C 0.03946 0.3055 0.29686 0.0
C725 C 0.0287 0.30802 0.29346 0.0
H726 H 0.0158 0.31569 0.30147 0.0
H727 H 0.0441 0.3163 0.33232 0.0
C728 C 0.0401 0.34588 0.38439 0.0
N729 N 0.04361 0.34491 0.37048 0.0
C730 C 0.05022 0.35129 0.39538 0.0
C731 C 0.06725 0.35424 0.37755 0.0
C732 C 0.05685 0.34894 0.36689 0.0
C733 C 0.06398 0.35549 0.392 0.0
H734 H 0.02945 0.34247 0.38694 0.0
H735 H 0.0593 0.34802 0.35571 0.0
C736 C 0.99424 0.32394 0.32244 0.0
N737 N 0.96992 0.32226 0.31325 0.0
C738 C 0.98809 0.32976 0.33093 0.0
C739 C 0.98801 0.31727 0.30926 0.0
C740 C 0.97581 0.3288 0.3261 0.0
C741 C 0.97572 0.31652 0.30481 0.0
C742 C 0.01358 0.35016 0.36551 0.0
C743 C 0.00096 0.34779 0.371 0.0
C744 C 0.02566 0.36275 0.3686 0.0
C745 C 0.00065 0.3581 0.37944 0.0
C746 C 0.02492 0.37279 0.37709 0.0
N747 N 0.01253 0.37029 0.38228 0.0
C748 C 0.98641 0.30979 0.37087 0.0
C749 C 0.97749 0.29937 0.34773 0.0
C750 C 0.97346 0.30166 0.37712 0.0
N751 N 0.9881 0.3087 0.35638 0.0
C752 C 0.96434 0.29114 0.35349 0.0
C753 C 0.96216 0.29241 0.36832 0.0
H754 H 0.99507 0.31727 0.37748 0.0
H755 H 0.97914 0.29852 0.33629 0.0
C756 C 0.02156 0.36003 0.31246 0.0
N757 N 0.01773 0.35788 0.32664 0.0
C758 C 0.02144 0.37067 0.30484 0.0
C759 C 0.01244 0.37606 0.32618 0.0
C760 C 0.01297 0.36549 0.33345 0.0
C761 C 0.01688 0.37886 0.31175 0.0
H762 H 0.02468 0.35345 0.30704 0.0
H763 H 0.00944 0.36336 0.34448 0.0
O764 O 0.02068 0.31724 0.35182 0.0
O765 O 0.03715 0.34439 0.3358 0.0
O766 O 0.00624 0.32467 0.32694 0.0
O767 O 0.01402 0.34018 0.35717 0.0
H768 H 0.02627 0.3031 0.37062 0.0
H769 H 0.00296 0.29975 0.33193 0.0
H770 H 0.01633 0.27759 0.36956 0.0
H771 H 0.99344 0.27435 0.33155 0.0
H772 H 0.06576 0.39072 0.3303 0.0
H773 H 0.0443 0.34366 0.30854 0.0
H774 H 0.05011 0.37054 0.34515 0.0
H775 H 0.06018 0.3643 0.29436 0.0
H776 H 0.05334 0.30676 0.31417 0.0
H777 H 0.02407 0.30582 0.28268 0.0
H778 H 0.04728 0.35197 0.40643 0.0
H779 H 0.07776 0.35747 0.3745 0.0
H780 H 0.99269 0.33491 0.34117 0.0
H781 H 0.99258 0.31265 0.30257 0.0
H782 H 0.97094 0.33325 0.33259 0.0
H783 H 0.97078 0.31136 0.29464 0.0
H784 H 0.99149 0.33812 0.36869 0.0
H785 H 0.0355 0.36472 0.36454 0.0
H786 H 0.99095 0.35642 0.38371 0.0
H787 H 0.03419 0.38258 0.37956 0.0
H788 H 0.97219 0.30299 0.38858 0.0
H789 H 0.95592 0.28396 0.34639 0.0
H790 H 0.02471 0.37237 0.29362 0.0
H791 H 0.00882 0.38214 0.33186 0.0
Li792 Li 0.67722 0.99182 0.34962 0.0
Li793 Li 0.66148 0.96689 0.35425 0.0
Li794 Li 0.67519 0.97407 0.33312 0.0
Li795 Li 0.65642 0.97809 0.33471 0.0
C796 C 0.6948 0.9789 0.3515 0.0
N797 N 0.72026 0.98163 0.34597 0.0
C798 C 0.69696 0.96784 0.35391 0.0
C799 C 0.7056 0.99135 0.34627 0.0
C800 C 0.7099 0.96942 0.35105 0.0
C801 C 0.71839 0.99253 0.34355 0.0
C802 C 0.65672 0.98639 0.36955 0.0
C803 C 0.64646 0.99457 0.38713 0.0
N804 N 0.65516 0.99469 0.39756 0.0
C805 C 0.66557 0.98661 0.38044 0.0
C806 C 0.6471 0.99041 0.3729 0.0
C807 C 0.66461 0.99083 0.39453 0.0
C808 C 0.68348 0.01872 0.35368 0.0
N809 N 0.68774 0.00989 0.35784 0.0
C810 C 0.70513 0.02731 0.37344 0.0
C811 C 0.69828 0.01382 0.36759 0.0
C812 C 0.70092 0.03672 0.36937 0.0
C813 C 0.68989 0.0322 0.35937 0.0
H814 H 0.6749 0.01518 0.34608 0.0
H815 H 0.70131 0.00649 0.37087 0.0
C816 C 0.65763 0.9437 0.36978 0.0
N817 N 0.65322 0.95295 0.36867 0.0
C818 C 0.65195 0.93329 0.38012 0.0
C819 C 0.63696 0.94182 0.38767 0.0
C820 C 0.64293 0.95205 0.3772 0.0
C821 C 0.64152 0.9323 0.3893 0.0
H822 H 0.66546 0.94432 0.36253 0.0
H823 H 0.63926 0.95922 0.37587 0.0
C824 C 0.67549 0.99329 0.31368 0.0
N825 N 0.67586 0.9973 0.28409 0.0
C826 C 0.66816 0.98197 0.30416 0.0
C827 C 0.68299 0.00664 0.30816 0.0
C828 C 0.66847 0.98421 0.28924 0.0
C829 C 0.68306 0.00846 0.29316 0.0
C830 C 0.64177 0.94947 0.33422 0.0
C831 C 0.63749 0.93709 0.32648 0.0
C832 C 0.63209 0.95121 0.34209 0.0
C833 C 0.62359 0.92663 0.32676 0.0
C834 C 0.61829 0.9405 0.3421 0.0
N835 N 0.61436 0.92854 0.3345 0.0
C836 C 0.68061 0.95538 0.31786 0.0
C837 C 0.69584 0.97895 0.3123 0.0
C838 C 0.68681 0.95112 0.30747 0.0
N839 N 0.68507 0.96906 0.31991 0.0
C840 C 0.7023 0.97516 0.30178 0.0
C841 C 0.69765 0.96107 0.29909 0.0
H842 H 0.67202 0.94776 0.3241 0.0
H843 H 0.69925 0.98977 0.31422 0.0
C844 C 0.64172 0.99117 0.32935 0.0
N845 N 0.64277 0.98016 0.32475 0.0
C846 C 0.63247 0.9942 0.32257 0.0
C847 C 0.62551 0.97451 0.30635 0.0
C848 C 0.63492 0.97183 0.3135 0.0
C849 C 0.62426 0.98589 0.31083 0.0
H850 H 0.64819 0.99766 0.33825 0.0
H851 H 0.63607 0.96322 0.30996 0.0
O852 O 0.68212 0.97751 0.35394 0.0
O853 O 0.65755 0.98246 0.35562 0.0
O854 O 0.67547 0.9914 0.32834 0.0
O855 O 0.65537 0.95974 0.33399 0.0
H856 H 0.68875 0.95812 0.35791 0.0
H857 H 0.70404 0.99993 0.34405 0.0
H858 H 0.71171 0.96093 0.35284 0.0
H859 H 0.72681 0.00209 0.33943 0.0
H860 H 0.63906 0.99769 0.38988 0.0
H861 H 0.67309 0.98355 0.37805 0.0
H862 H 0.64019 0.99031 0.36458 0.0
H863 H 0.67138 0.99105 0.40307 0.0
H864 H 0.71364 0.03032 0.38101 0.0
H865 H 0.68602 0.03889 0.35616 0.0
H866 H 0.65557 0.92599 0.38077 0.0
H867 H 0.62899 0.9415 0.39455 0.0
H868 H 0.66234 0.97155 0.30822 0.0
H869 H 0.68873 0.0155 0.3154 0.0
H870 H 0.66287 0.97555 0.28175 0.0
H871 H 0.68884 0.01874 0.28873 0.0
H872 H 0.64484 0.93559 0.32031 0.0
H873 H 0.63512 0.9607 0.3481 0.0
H874 H 0.62014 0.917 0.32081 0.0
H875 H 0.61071 0.94172 0.34815 0.0
H876 H 0.68283 0.94016 0.30568 0.0
H877 H 0.71077 0.98318 0.29572 0.0
H878 H 0.63169 0.00292 0.32658 0.0
H879 H 0.61949 0.96791 0.29726 0.0
Li880 Li 0.03107 0.69543 0.35462 0.0
Li881 Li 0.00658 0.68697 0.35067 0.0
Li882 Li 0.01949 0.6793 0.33498 0.0
Li883 Li 0.02383 0.70269 0.33288 0.0
C884 C 0.01818 0.67201 0.36863 0.0
N885 N 0.02455 0.66434 0.39462 0.0
C886 C 0.0131 0.6741 0.38168 0.0
C887 C 0.02634 0.66586 0.36877 0.0
C888 C 0.01648 0.6702 0.39472 0.0
C889 C 0.02949 0.6621 0.38203 0.0
C890 C 0.01628 0.71512 0.35455 0.0
C891 C 0.99952 0.72122 0.34678 0.0
N892 N 0.00546 0.73246 0.35593 0.0
C893 C 0.02222 0.72671 0.36388 0.0
C894 C 0.00482 0.71232 0.34593 0.0
C895 C 0.0166 0.73536 0.36442 0.0
C896 C 0.05703 0.70226 0.36762 0.0
N897 N 0.0447 0.70156 0.36974 0.0
C898 C 0.05104 0.70962 0.39433 0.0
C899 C 0.04164 0.70528 0.3827 0.0
C900 C 0.06381 0.71029 0.39253 0.0
C901 C 0.06678 0.70662 0.37893 0.0
H902 H 0.05932 0.69946 0.35717 0.0
H903 H 0.03182 0.7048 0.38402 0.0
C904 C 0.97857 0.66846 0.35375 0.0
N905 N 0.98909 0.68048 0.35945 0.0
C906 C 0.9654 0.66241 0.35973 0.0
C907 C 0.97414 0.68116 0.3775 0.0
C908 C 0.98717 0.68689 0.37112 0.0
C909 C 0.96304 0.66871 0.37183 0.0
H910 H 0.98047 0.66349 0.34462 0.0
H911 H 0.9958 0.69631 0.37562 0.0
C912 C 0.04578 0.69348 0.32621 0.0
N913 N 0.06177 0.6865 0.30934 0.0
C914 C 0.05046 0.69955 0.31267 0.0
C915 C 0.04934 0.68396 0.3312 0.0
C916 C 0.05851 0.69587 0.3043 0.0
C917 C 0.0574 0.68053 0.3225 0.0
C918 C 0.0018 0.68197 0.31491 0.0
C919 C 0.01143 0.6861 0.30375 0.0
C920 C 0.98767 0.67471 0.31149 0.0
C921 C 0.00678 0.68277 0.28935 0.0
C922 C 0.98342 0.67159 0.29695 0.0
N923 N 0.99299 0.67564 0.28627 0.0
C924 C 0.00909 0.651 0.33198 0.0
C925 C 0.02145 0.66307 0.31116 0.0
C926 C 0.00591 0.63836 0.32552 0.0
N927 N 0.01676 0.66303 0.3248 0.0
C928 C 0.01855 0.65065 0.3043 0.0
C929 C 0.01061 0.63806 0.31147 0.0
H930 H 0.00532 0.6512 0.34272 0.0
H931 H 0.02735 0.67269 0.30551 0.0
C932 C 0.04249 0.72749 0.31962 0.0
N933 N 0.02885 0.71772 0.32011 0.0
C934 C 0.04721 0.73813 0.30957 0.0
C935 C 0.02363 0.72884 0.30119 0.0
C936 C 0.01937 0.71837 0.3114 0.0
C937 C 0.03776 0.73876 0.3 0.0
H938 H 0.04977 0.72678 0.32679 0.0
H939 H 0.00855 0.71054 0.31209 0.0
O940 O 0.01525 0.67606 0.3558 0.0
O941 O 0.0217 0.70659 0.35397 0.0
O942 O 0.03786 0.69696 0.33456 0.0
O943 O 0.00611 0.68525 0.32909 0.0
H944 H 0.00679 0.67887 0.38177 0.0
H945 H 0.0302 0.66398 0.35876 0.0
H946 H 0.01271 0.67186 0.40492 0.0
H947 H 0.03586 0.65738 0.38231 0.0
H948 H 0.99065 0.71918 0.34017 0.0
H949 H 0.03108 0.729 0.37064 0.0
H950 H 1.00002 0.70337 0.3387 0.0
H951 H 0.0211 0.74437 0.37159 0.0
H952 H 0.04841 0.71255 0.40456 0.0
H953 H 0.07645 0.7069 0.3771 0.0
H954 H 0.95715 0.65294 0.35483 0.0
H955 H 0.97286 0.68628 0.38694 0.0
H956 H 0.04786 0.70698 0.30861 0.0
H957 H 0.04581 0.67915 0.34161 0.0
H958 H 0.06214 0.70044 0.29378 0.0
H959 H 0.06015 0.67311 0.32621 0.0
H960 H 0.02238 0.69188 0.3062 0.0
H961 H 0.98006 0.67158 0.31998 0.0
H962 H 0.01415 0.6859 0.28061 0.0
H963 H 0.97252 0.66597 0.29415 0.0
H964 H 0.99989 0.62893 0.33151 0.0
H965 H 0.02226 0.65086 0.29339 0.0
H966 H 0.05816 0.74568 0.30922 0.0
H967 H 0.01599 0.72887 0.29398 0.0
Li968 Li 0.3139 0.34081 0.35812 0.0
Li969 Li 0.32094 0.32275 0.35421 0.0
Li970 Li 0.3302 0.34319 0.33929 0.0
Li971 Li 0.30633 0.32533 0.33578 0.0
C972 C 0.34482 0.3539 0.3632 0.0
N973 N 0.37062 0.37731 0.36663 0.0
C974 C 0.3567 0.35282 0.36289 0.0
C975 C 0.34604 0.36686 0.36534 0.0
C976 C 0.36966 0.36479 0.36461 0.0
C977 C 0.35919 0.37858 0.36705 0.0
C978 C 0.29247 0.30675 0.36009 0.0
C979 C 0.28104 0.28218 0.35501 0.0
N980 N 0.27368 0.2798 0.36743 0.0
C981 C 0.28481 0.30408 0.3728 0.0
C982 C 0.29059 0.29574 0.35112 0.0
C983 C 0.27535 0.29038 0.37632 0.0
C984 C 0.30312 0.35739 0.36876 0.0
N985 N 0.30833 0.34922 0.37249 0.0
C986 C 0.30522 0.3521 0.39771 0.0
C987 C 0.30944 0.34648 0.3866 0.0
C988 C 0.29987 0.36069 0.39426 0.0
C989 C 0.29886 0.36332 0.37953 0.0
H990 H 0.3022 0.35925 0.35742 0.0
H991 H 0.31349 0.33981 0.3892 0.0
C992 C 0.33781 0.31188 0.35755 0.0
N993 N 0.32628 0.31105 0.36328 0.0
C994 C 0.34361 0.30467 0.36371 0.0
C995 C 0.32549 0.29571 0.38158 0.0
C996 C 0.32002 0.30316 0.37505 0.0
C997 C 0.33756 0.29657 0.37599 0.0
H998 H 0.34261 0.31834 0.34826 0.0
H999 H 0.31099 0.30288 0.37955 0.0
C1000 C 0.31636 0.35459 0.32631 0.0
N1001 N 0.32135 0.37242 0.30367 0.0
C1002 C 0.31534 0.34995 0.31193 0.0
C1003 C 0.31979 0.36827 0.32918 0.0
C1004 C 0.31793 0.35913 0.30063 0.0
C1005 C 0.32232 0.37714 0.31758 0.0
C1006 C 0.32322 0.31633 0.3215 0.0
C1007 C 0.32659 0.32218 0.30772 0.0
C1008 C 0.3203 0.30273 0.32332 0.0
C1009 C 0.32674 0.31424 0.29595 0.0
C1010 C 0.32055 0.29513 0.31127 0.0
N1011 N 0.32372 0.30099 0.29795 0.0
C1012 C 0.3546 0.34975 0.32536 0.0
C1013 C 0.3521 0.3694 0.32845 0.0
C1014 C 0.36743 0.35775 0.31892 0.0
N1015 N 0.34715 0.3556 0.32984 0.0
C1016 C 0.36495 0.37784 0.32207 0.0
C1017 C 0.37282 0.37201 0.31724 0.0
H1018 H 0.35069 0.33885 0.32703 0.0
H1019 H 0.34631 0.37396 0.33264 0.0
C1020 C 0.2831 0.322 0.32085 0.0
N1021 N 0.29129 0.31634 0.32207 0.0
C1022 C 0.27265 0.31709 0.31024 0.0
C1023 C 0.27893 0.3003 0.3026 0.0
C1024 C 0.28923 0.3055 0.31339 0.0
C1025 C 0.27059 0.30623 0.30075 0.0
H1026 H 0.28491 0.33057 0.32794 0.0
H1027 H 0.29569 0.30101 0.31458 0.0
O1028 O 0.33208 0.34239 0.36103 0.0
O1029 O 0.30192 0.32008 0.35662 0.0
O1030 O 0.31388 0.34577 0.33753 0.0
O1031 O 0.32313 0.32397 0.33321 0.0
H1032 H 0.35592 0.34286 0.36117 0.0
H1033 H 0.33694 0.36788 0.36548 0.0
H1034 H 0.37895 0.36413 0.3643 0.0
H1035 H 0.3603 0.3887 0.36863 0.0
H1036 H 0.27949 0.27355 0.34818 0.0
H1037 H 0.28621 0.31252 0.37988 0.0
H1038 H 0.29651 0.29764 0.34132 0.0
H1039 H 0.26936 0.28815 0.38614 0.0
H1040 H 0.30595 0.34953 0.40885 0.0
H1041 H 0.29495 0.36999 0.37633 0.0
H1042 H 0.35277 0.30545 0.35888 0.0
H1043 H 0.32056 0.28967 0.3911 0.0
H1044 H 0.31252 0.33936 0.3095 0.0
H1045 H 0.32071 0.37207 0.34025 0.0
H1046 H 0.31721 0.35567 0.28945 0.0
H1047 H 0.32508 0.38778 0.31964 0.0
H1048 H 0.32919 0.33278 0.30615 0.0
H1049 H 0.31778 0.29805 0.33391 0.0
H1050 H 0.3293 0.31863 0.28523 0.0
H1051 H 0.31823 0.28457 0.31252 0.0
H1052 H 0.37306 0.35277 0.31529 0.0
H1053 H 0.36884 0.38885 0.32128 0.0
H1054 H 0.26633 0.32184 0.3094 0.0
H1055 H 0.27785 0.29201 0.29548 0.0
Li1056 Li 0.32334 0.00376 0.6655 0.0
Li1057 Li 0.34431 0.01566 0.68039 0.0
Li1058 Li 0.32496 0.02076 0.68365 0.0
Li1059 Li 0.33974 0.02851 0.66214 0.0
C1060 C 0.31953 0.98986 0.69139 0.0
N1061 N 0.30812 0.96261 0.69961 0.0
C1062 C 0.3249 0.98181 0.68609 0.0
C1063 C 0.30832 0.98404 0.70084 0.0
C1064 C 0.31899 0.96806 0.69038 0.0
C1065 C 0.30271 0.97025 0.70488 0.0
C1066 C 0.35283 0.01029 0.6542 0.0
C1067 C 0.37652 0.01854 0.64761 0.0
N1068 N 0.37325 0.00529 0.64459 0.0
C1069 C 0.34969 0.99675 0.65092 0.0
C1070 C 0.36633 0.02128 0.65244 0.0
C1071 C 0.36017 0.99444 0.64611 0.0
C1072 C 0.31541 0.98645 0.64119 0.0
N1073 N 0.31143 0.987 0.65499 0.0
C1074 C 0.29272 0.96359 0.65283 0.0
C1075 C 0.30007 0.97603 0.66077 0.0
C1076 C 0.29714 0.9625 0.63886 0.0
C1077 C 0.30846 0.97422 0.63293 0.0
H1078 H 0.32429 0.99543 0.63675 0.0
H1079 H 0.29688 0.9768 0.67164 0.0
C1080 C 0.36477 0.02415 0.70201 0.0
N1081 N 0.35861 0.01476 0.69093 0.0
C1082 C 0.37585 0.02488 0.70977 0.0
C1083 C 0.3737 0.00584 0.69502 0.0
C1084 C 0.36268 0.0055 0.68754 0.0
C1085 C 0.38057 0.01575 0.70618 0.0
H1086 H 0.36118 0.03122 0.70473 0.0
H1087 H 0.35754 0.99794 0.67893 0.0
C1088 C 0.30514 0.01349 0.6617 0.0
N1089 N 0.27688 0.00237 0.65923 0.0
C1090 C 0.29962 0.01743 0.65036 0.0
C1091 C 0.29631 0.00391 0.6718 0.0
C1092 C 0.2853 0.01168 0.64929 0.0
C1093 C 0.28205 0.9984 0.67035 0.0
C1094 C 0.35537 0.04728 0.68363 0.0
C1095 C 0.35237 0.05739 0.68835 0.0
C1096 C 0.3689 0.05114 0.67991 0.0
C1097 C 0.36295 0.07126 0.68898 0.0
C1098 C 0.37919 0.06511 0.68068 0.0
N1099 N 0.37603 0.0748 0.68515 0.0
C1100 C 0.31443 0.02147 0.71121 0.0
C1101 C 0.31184 0.03513 0.69341 0.0
C1102 C 0.30868 0.02606 0.72177 0.0
N1103 N 0.31593 0.0261 0.69739 0.0
C1104 C 0.30612 0.04006 0.70364 0.0
C1105 C 0.30458 0.03562 0.71809 0.0
H1106 H 0.31795 0.01442 0.71407 0.0
H1107 H 0.31336 0.03877 0.68236 0.0
C1108 C 0.35285 0.04095 0.63579 0.0
N1109 N 0.34748 0.04284 0.64825 0.0
C1110 C 0.35808 0.05117 0.62525 0.0
C1111 C 0.35201 0.06502 0.64049 0.0
C1112 C 0.3468 0.05448 0.65067 0.0
C1113 C 0.35771 0.06341 0.62756 0.0
H1114 H 0.35288 0.03141 0.63392 0.0
H1115 H 0.34198 0.05548 0.66039 0.0
O1116 O 0.32499 0.00326 0.68711 0.0
O1117 O 0.34268 0.01278 0.65885 0.0
O1118 O 0.31914 0.01906 0.66286 0.0
O1119 O 0.34513 0.03365 0.68292 0.0
H1120 H 0.33334 0.98607 0.67855 0.0
H1121 H 0.30393 0.99007 0.70492 0.0
H1122 H 0.32302 0.96169 0.6863 0.0
H1123 H 0.29403 0.9656 0.71216 0.0
H1124 H 0.38701 0.02696 0.64623 0.0
H1125 H 0.33934 0.98808 0.65227 0.0
H1126 H 0.36891 0.03183 0.65465 0.0
H1127 H 0.35789 0.98401 0.64364 0.0
H1128 H 0.284 0.95478 0.65776 0.0
H1129 H 0.31202 0.97388 0.62209 0.0
H1130 H 0.38069 0.03253 0.71846 0.0
H1131 H 0.37703 0.99865 0.69183 0.0
H1132 H 0.30634 0.02485 0.64247 0.0
H1133 H 0.30039 0.00077 0.68066 0.0
H1134 H 0.28087 0.01463 0.64057 0.0
H1135 H 0.2751 0.99097 0.67809 0.0
H1136 H 0.34197 0.05456 0.6914 0.0
H1137 H 0.37145 0.04342 0.67656 0.0
H1138 H 0.36077 0.07921 0.69252 0.0
H1139 H 0.38971 0.06824 0.67779 0.0
H1140 H 0.30753 0.0222 0.7327 0.0
H1141 H 0.30334 0.04758 0.70034 0.0
H1142 H 0.36237 0.04952 0.61542 0.0
H1143 H 0.35125 0.07416 0.64255 0.0
Li1144 Li 0.99912 0.31552 0.67071 0.0
Li1145 Li 0.98573 0.32336 0.68445 0.0
Li1146 Li 0.98175 0.2998 0.68819 0.0
Li1147 Li 0.97375 0.30539 0.66618 0.0
C1148 C 0.00865 0.31588 0.69875 0.0
N1149 N 0.02823 0.31159 0.71211 0.0
C1150 C 0.01615 0.32403 0.71078 0.0
C1151 C 0.01112 0.30556 0.69348 0.0
C1152 C 0.02601 0.3217 0.7174 0.0
C1153 C 0.02105 0.30355 0.7004 0.0
C1154 C 0.99077 0.33689 0.65901 0.0
C1155 C 0.98111 0.3511 0.65263 0.0
N1156 N 0.9941 0.36207 0.65092 0.0
C1157 C 0.00402 0.34825 0.65697 0.0
C1158 C 0.97922 0.33827 0.65664 0.0
C1159 C 0.00549 0.36092 0.65297 0.0
C1160 C 0.01894 0.31514 0.65156 0.0
N1161 N 0.01689 0.32204 0.66262 0.0
C1162 C 0.04071 0.33979 0.6626 0.0
C1163 C 0.02744 0.33409 0.66824 0.0
C1164 C 0.04326 0.33292 0.65116 0.0
C1165 C 0.03212 0.32036 0.6457 0.0
H1166 H 0.01034 0.30563 0.64723 0.0
H1167 H 0.02546 0.3394 0.67698 0.0
C1168 C 0.97752 0.33974 0.70131 0.0
N1169 N 0.98784 0.33957 0.69379 0.0
C1170 C 0.97989 0.3519 0.70841 0.0
C1171 C 0.00339 0.36339 0.69979 0.0
C1172 C 0.00062 0.35101 0.69305 0.0
C1173 C 0.99301 0.36395 0.70776 0.0
H1174 H 0.96755 0.3304 0.70207 0.0
H1175 H 0.00872 0.35047 0.68728 0.0
C1176 C 0.9772 0.28181 0.66385 0.0
N1177 N 0.96251 0.25387 0.65668 0.0
C1178 C 0.96377 0.27346 0.66887 0.0
C1179 C 0.98322 0.27592 0.65527 0.0
C1180 C 0.95648 0.25938 0.6651 0.0
C1181 C 0.97562 0.26179 0.65174 0.0
C1182 C 0.95419 0.30123 0.68712 0.0
C1183 C 0.94512 0.28825 0.6929 0.0
C1184 C 0.949 0.30941 0.682 0.0
C1185 C 0.93097 0.28357 0.69315 0.0
C1186 C 0.93478 0.30436 0.68244 0.0
N1187 N 0.92613 0.29165 0.68794 0.0
C1188 C 0.97183 0.28743 0.7151 0.0
C1189 C 0.97916 0.27504 0.70006 0.0
C1190 C 0.9671 0.27709 0.72551 0.0
N1191 N 0.97742 0.28607 0.70254 0.0
C1192 C 0.97441 0.26438 0.71008 0.0
C1193 C 0.96808 0.26524 0.72289 0.0
H1194 H 0.97065 0.29636 0.7168 0.0
H1195 H 0.98393 0.27434 0.69016 0.0
C1196 C 0.96372 0.3056 0.63826 0.0
N1197 N 0.9599 0.29883 0.65108 0.0
C1198 C 0.95413 0.30191 0.62689 0.0
C1199 C 0.93689 0.28404 0.64192 0.0
C1200 C 0.9468 0.28811 0.653 0.0
C1201 C 0.94046 0.29104 0.62867 0.0
H1202 H 0.97422 0.31401 0.63692 0.0
H1203 H 0.94394 0.28268 0.66313 0.0
O1204 O 0.99903 0.31813 0.69214 0.0
O1205 O 0.98914 0.32444 0.6631 0.0
O1206 O 0.98464 0.29557 0.66771 0.0
O1207 O 0.96809 0.30594 0.68669 0.0
H1208 H 0.01438 0.33209 0.71495 0.0
H1209 H 0.00547 0.2992 0.68413 0.0
H1210 H 0.03189 0.32793 0.72673 0.0
H1211 H 0.02307 0.2956 0.69644 0.0
H1212 H 0.97225 0.35232 0.65083 0.0
H1213 H 0.01308 0.34735 0.65858 0.0
H1214 H 0.9689 0.32951 0.65776 0.0
H1215 H 0.01568 0.36983 0.65148 0.0
H1216 H 0.04881 0.34962 0.667 0.0
H1217 H 0.03355 0.31456 0.63706 0.0
H1218 H 0.97164 0.35175 0.71464 0.0
H1219 H 0.0136 0.37242 0.69877 0.0
H1220 H 0.95913 0.27777 0.67584 0.0
H1221 H 0.9937 0.28216 0.65147 0.0
H1222 H 0.94607 0.2528 0.66895 0.0
H1223 H 0.98017 0.2571 0.64512 0.0
H1224 H 0.94891 0.28179 0.69704 0.0
H1225 H 0.95586 0.31958 0.67779 0.0
H1226 H 0.92383 0.27351 0.69748 0.0
H1227 H 0.93062 0.31057 0.67843 0.0
H1228 H 0.96224 0.27811 0.73523 0.0
H1229 H 0.97556 0.2555 0.70779 0.0
H1230 H 0.95733 0.30768 0.61692 0.0
H1231 H 0.92656 0.27542 0.64369 0.0
Li1232 Li 0.67964 0.67727 0.66709 0.0
Li1233 Li 0.6691 0.65541 0.68012 0.0
Li1234 Li 0.69402 0.67311 0.68463 0.0
Li1235 Li 0.68636 0.65908 0.66235 0.0
C1236 C 0.6787 0.68513 0.69714 0.0
N1237 N 0.68179 0.70655 0.71512 0.0
C1238 C 0.66835 0.68296 0.70698 0.0
C1239 C 0.69069 0.69815 0.6966 0.0
C1240 C 0.67007 0.69393 0.71593 0.0
C1241 C 0.69205 0.70885 0.70574 0.0
C1242 C 0.65472 0.64926 0.65561 0.0
C1243 C 0.63564 0.62621 0.65052 0.0
N1244 N 0.62693 0.63132 0.64992 0.0
C1245 C 0.64561 0.6543 0.65481 0.0
C1246 C 0.64974 0.63513 0.65332 0.0
C1247 C 0.63158 0.64505 0.65197 0.0
C1248 C 0.67932 0.69456 0.64501 0.0
N1249 N 0.67527 0.69005 0.65874 0.0
C1250 C 0.66205 0.70133 0.65991 0.0
C1251 C 0.66689 0.69333 0.66626 0.0
C1252 C 0.6657 0.70583 0.64558 0.0
C1253 C 0.67467 0.70257 0.63819 0.0
H1254 H 0.68579 0.69157 0.6392 0.0
H1255 H 0.66347 0.6893 0.67698 0.0
C1256 C 0.64865 0.63024 0.69378 0.0
N1257 N 0.65203 0.643 0.68898 0.0
C1258 C 0.63601 0.62201 0.70068 0.0
C1259 C 0.6307 0.64023 0.69746 0.0
C1260 C 0.64332 0.64801 0.69058 0.0
C1261 C 0.62695 0.6271 0.70274 0.0
H1262 H 0.65581 0.62654 0.69244 0.0
H1263 H 0.64626 0.65816 0.68655 0.0
C1264 C 0.71056 0.69131 0.66126 0.0
N1265 N 0.73526 0.7149 0.6547 0.0
C1266 C 0.72182 0.69027 0.65645 0.0
C1267 C 0.71179 0.70436 0.66235 0.0
C1268 C 0.73424 0.70231 0.65331 0.0
C1269 C 0.72438 0.71616 0.6591 0.0
C1270 C 0.6888 0.64279 0.68199 0.0
C1271 C 0.70152 0.64558 0.6878 0.0
C1272 C 0.68002 0.62993 0.67532 0.0
C1273 C 0.70534 0.63552 0.6866 0.0
C1274 C 0.68422 0.62014 0.67432 0.0
N1275 N 0.69669 0.62312 0.67992 0.0
C1276 C 0.70498 0.68214 0.71298 0.0
C1277 C 0.72164 0.6854 0.69534 0.0
C1278 C 0.71517 0.68777 0.72386 0.0
N1279 N 0.70839 0.68125 0.699 0.0
C1280 C 0.73216 0.691 0.70588 0.0
C1281 C 0.729 0.69228 0.72038 0.0
H1282 H 0.69432 0.67841 0.71572 0.0
H1283 H 0.72401 0.68403 0.68431 0.0
C1284 C 0.68477 0.64541 0.63542 0.0
N1285 N 0.69233 0.65096 0.64785 0.0
C1286 C 0.68942 0.6399 0.6246 0.0
C1287 C 0.70947 0.64584 0.63962 0.0
C1288 C 0.70448 0.65129 0.65008 0.0
C1289 C 0.70195 0.64009 0.62664 0.0
H1290 H 0.6752 0.64539 0.63385 0.0
H1291 H 0.71042 0.65597 0.65993 0.0
O1292 O 0.67718 0.67445 0.68834 0.0
O1293 O 0.66844 0.65811 0.65868 0.0
O1294 O 0.69824 0.67958 0.66416 0.0
O1295 O 0.68497 0.65259 0.68291 0.0
H1296 H 0.65909 0.67291 0.70776 0.0
H1297 H 0.699 0.69987 0.68947 0.0
H1298 H 0.66212 0.6924 0.72356 0.0
H1299 H 0.7013 0.71897 0.70544 0.0
H1300 H 0.63163 0.61524 0.64882 0.0
H1301 H 0.64928 0.6652 0.6565 0.0
H1302 H 0.65667 0.63108 0.65374 0.0
H1303 H 0.6244 0.6488 0.65142 0.0
H1304 H 0.65529 0.70372 0.66608 0.0
H1305 H 0.67761 0.7057 0.62708 0.0
H1306 H 0.6335 0.61195 0.70466 0.0
H1307 H 0.62391 0.64443 0.69861 0.0
H1308 H 0.72105 0.68029 0.65528 0.0
H1309 H 0.70311 0.70542 0.66553 0.0
H1310 H 0.74306 0.70163 0.64973 0.0
H1311 H 0.72546 0.72631 0.65998 0.0
H1312 H 0.7084 0.65544 0.6931 0.0
H1313 H 0.67012 0.62757 0.67086 0.0
H1314 H 0.71518 0.63756 0.69097 0.0
H1315 H 0.67757 0.61019 0.66908 0.0
H1316 H 0.71224 0.6886 0.73486 0.0
H1317 H 0.74259 0.69399 0.70275 0.0
H1318 H 0.68326 0.63549 0.61478 0.0
H1319 H 0.71929 0.64642 0.64155 0.0
Li1320 Li 0.34534 0.33136 0.68463 0.0
Li1321 Li 0.32751 0.30714 0.68867 0.0
Li1322 Li 0.34093 0.314 0.66541 0.0
Li1323 Li 0.32307 0.31998 0.6701 0.0
C1324 C 0.36062 0.31957 0.69177 0.0
N1325 N 0.38657 0.32927 0.70393 0.0
C1326 C 0.36199 0.31561 0.70573 0.0
C1327 C 0.37246 0.32828 0.68391 0.0
C1328 C 0.3752 0.32067 0.71171 0.0
C1329 C 0.38548 0.33313 0.69027 0.0
C1330 C 0.31962 0.32314 0.70409 0.0
C1331 C 0.29877 0.31589 0.7177 0.0
N1332 N 0.30651 0.32144 0.73002 0.0
C1333 C 0.32737 0.32893 0.71685 0.0
C1334 C 0.3052 0.3167 0.70448 0.0
C1335 C 0.32056 0.3279 0.72986 0.0
C1336 C 0.35823 0.35975 0.68687 0.0
N1337 N 0.35805 0.34885 0.69341 0.0
C1338 C 0.37312 0.36378 0.71239 0.0
C1339 C 0.36534 0.3506 0.7059 0.0
C1340 C 0.37322 0.37517 0.70601 0.0
C1341 C 0.36583 0.37304 0.69295 0.0
H1342 H 0.35215 0.35803 0.67709 0.0
H1343 H 0.36471 0.34175 0.71117 0.0
C1344 C 0.30967 0.28005 0.69919 0.0
N1345 N 0.3194 0.29324 0.70312 0.0
C1346 C 0.30369 0.26979 0.70966 0.0
C1347 C 0.3181 0.28678 0.72797 0.0
C1348 C 0.32376 0.2967 0.71716 0.0
C1349 C 0.30787 0.2731 0.72431 0.0
H1350 H 0.30656 0.27746 0.68792 0.0
H1351 H 0.33175 0.30715 0.71998 0.0
C1352 C 0.34994 0.33891 0.6517 0.0
N1353 N 0.36549 0.35248 0.62777 0.0
C1354 C 0.34348 0.3375 0.63825 0.0
C1355 C 0.36428 0.34745 0.65305 0.0
C1356 C 0.35152 0.34437 0.62626 0.0
C1357 C 0.37197 0.35416 0.64081 0.0
C1358 C 0.30785 0.29326 0.66197 0.0
C1359 C 0.30643 0.28806 0.64776 0.0
C1360 C 0.29606 0.29043 0.66977 0.0
C1361 C 0.29322 0.28031 0.64151 0.0
C1362 C 0.28304 0.28265 0.66314 0.0
N1363 N 0.2819 0.27781 0.64926 0.0
C1364 C 0.35827 0.30444 0.6539 0.0
C1365 C 0.3444 0.30747 0.63655 0.0
C1366 C 0.3637 0.29978 0.64304 0.0
N1367 N 0.34887 0.30826 0.65048 0.0
C1368 C 0.34946 0.30277 0.62537 0.0
C1369 C 0.35923 0.29883 0.62855 0.0
H1370 H 0.36139 0.30479 0.66509 0.0
H1371 H 0.33672 0.31029 0.63414 0.0
C1372 C 0.3075 0.3329 0.6696 0.0
N1373 N 0.31012 0.3242 0.66162 0.0
C1374 C 0.29924 0.33775 0.66392 0.0
C1375 C 0.2965 0.32466 0.64178 0.0
C1376 C 0.3048 0.31999 0.64795 0.0
C1377 C 0.29371 0.33375 0.64978 0.0
H1378 H 0.3122 0.33643 0.68026 0.0
H1379 H 0.3073 0.31335 0.64166 0.0
O1380 O 0.34777 0.31484 0.68579 0.0
O1381 O 0.32613 0.32406 0.69124 0.0
O1382 O 0.34221 0.33227 0.66357 0.0
O1383 O 0.3207 0.30103 0.66823 0.0
H1384 H 0.35297 0.30872 0.7119 0.0
H1385 H 0.37159 0.33119 0.67299 0.0
H1386 H 0.3764 0.31775 0.72254 0.0
H1387 H 0.39473 0.33993 0.68432 0.0
H1388 H 0.28762 0.31089 0.71815 0.0
H1389 H 0.33852 0.334 0.71677 0.0
H1390 H 0.29904 0.31248 0.69466 0.0
H1391 H 0.32643 0.33223 0.73984 0.0
H1392 H 0.37853 0.36494 0.72256 0.0
H1393 H 0.36578 0.38154 0.68754 0.0
H1394 H 0.29578 0.25943 0.70632 0.0
H1395 H 0.32187 0.28976 0.73905 0.0
H1396 H 0.33238 0.33106 0.63704 0.0
H1397 H 0.36942 0.34901 0.66345 0.0
H1398 H 0.34666 0.34326 0.61575 0.0
H1399 H 0.38308 0.36076 0.64169 0.0
H1400 H 0.3154 0.28997 0.64162 0.0
H1401 H 0.29697 0.29416 0.68084 0.0
H1402 H 0.29198 0.27628 0.63051 0.0
H1403 H 0.27384 0.28044 0.66905 0.0
H1404 H 0.37106 0.29665 0.64598 0.0
H1405 H 0.3458 0.30228 0.61434 0.0
H1406 H 0.29763 0.34498 0.67036 0.0
H1407 H 0.29243 0.32132 0.63085 0.0
Li1408 Li 0.67863 0.02032 0.67407 0.0
Li1409 Li 0.70219 0.02481 0.677 0.0
Li1410 Li 0.69519 0.03116 0.65387 0.0
Li1411 Li 0.68731 0.00685 0.65978 0.0
C1412 C 0.69425 0.04955 0.67637 0.0
N1413 N 0.69051 0.07188 0.68098 0.0
C1414 C 0.69977 0.05794 0.68884 0.0
C1415 C 0.68699 0.05263 0.66617 0.0
C1416 C 0.69771 0.06914 0.691 0.0
C1417 C 0.68517 0.06394 0.66871 0.0
C1418 C 0.68754 0.0037 0.69398 0.0
C1419 C 0.69889 0.99408 0.70781 0.0
N1420 N 0.69423 0.99687 0.7203 0.0
C1421 C 0.68277 0.00638 0.70693 0.0
C1422 C 0.69558 0.99741 0.69439 0.0
C1423 C 0.68629 0.00287 0.72014 0.0
C1424 C 0.65033 0.00832 0.67897 0.0
N1425 N 0.66292 0.01866 0.68368 0.0
C1426 C 0.65244 0.02536 0.70219 0.0
C1427 C 0.66421 0.02707 0.69514 0.0
C1428 C 0.63928 0.01494 0.69734 0.0
C1429 C 0.63831 0.00635 0.68558 0.0
H1430 H 0.64964 0.00156 0.67007 0.0
H1431 H 0.67435 0.03497 0.69892 0.0
C1432 C 0.72832 0.03044 0.68857 0.0
N1433 N 0.71654 0.03069 0.69127 0.0
C1434 C 0.73865 0.03485 0.69931 0.0
C1435 C 0.7245 0.03969 0.7153 0.0
C1436 C 0.7145 0.03522 0.70428 0.0
C1437 C 0.73682 0.03959 0.71289 0.0
H1438 H 0.72972 0.02687 0.67808 0.0
H1439 H 0.705 0.03525 0.70613 0.0
C1440 C 0.66662 0.01393 0.64304 0.0
N1441 N 0.64739 0.01176 0.62267 0.0
C1442 C 0.6639 0.00566 0.63053 0.0
C1443 C 0.65942 0.02097 0.64525 0.0
C1444 C 0.65418 0.00474 0.62034 0.0
C1445 C 0.64978 0.01978 0.63481 0.0
C1446 C 0.712 0.01673 0.64735 0.0
C1447 C 0.71376 0.02034 0.63271 0.0
C1448 C 0.71567 0.00729 0.65237 0.0
C1449 C 0.71904 0.01431 0.62327 0.0
C1450 C 0.72089 0.00147 0.64259 0.0
N1451 N 0.72245 0.00506 0.62836 0.0
C1452 C 0.71328 0.05686 0.64159 0.0
C1453 C 0.69381 0.04253 0.62656 0.0
C1454 C 0.71814 0.06748 0.63148 0.0
N1455 N 0.70126 0.04473 0.63902 0.0
C1456 C 0.69819 0.05291 0.61626 0.0
C1457 C 0.71046 0.0656 0.6187 0.0
H1458 H 0.71901 0.05832 0.65159 0.0
H1459 H 0.68445 0.03278 0.62455 0.0
C1460 C 0.67443 0.97793 0.661 0.0
N1461 N 0.68135 0.98873 0.65191 0.0
C1462 C 0.66875 0.96432 0.65583 0.0
C1463 C 0.6775 0.97312 0.63201 0.0
C1464 C 0.68301 0.98658 0.63765 0.0
C1465 C 0.67013 0.96175 0.64111 0.0
H1466 H 0.67301 0.97988 0.67222 0.0
H1467 H 0.68831 0.99529 0.63055 0.0
O1468 O 0.69617 0.03852 0.67413 0.0
O1469 O 0.68444 0.00731 0.68097 0.0
O1470 O 0.6761 0.0149 0.65315 0.0
O1471 O 0.70682 0.0225 0.65674 0.0
H1472 H 0.70554 0.05581 0.69679 0.0
H1473 H 0.68291 0.04647 0.65634 0.0
H1474 H 0.70186 0.07567 0.70064 0.0
H1475 H 0.67955 0.06642 0.6609 0.0
H1476 H 0.70518 0.98929 0.7083 0.0
H1477 H 0.67652 0.01122 0.7068 0.0
H1478 H 0.69929 0.99522 0.68445 0.0
H1479 H 0.68274 0.00496 0.73026 0.0
H1480 H 0.65361 0.03218 0.71124 0.0
H1481 H 0.62837 0.99803 0.68169 0.0
H1482 H 0.74803 0.03472 0.69692 0.0
H1483 H 0.72252 0.04302 0.72566 0.0
H1484 H 0.66931 0.00011 0.62862 0.0
H1485 H 0.66113 0.0272 0.65496 0.0
H1486 H 0.65205 0.99844 0.61057 0.0
H1487 H 0.64416 0.02519 0.63639 0.0
H1488 H 0.711 0.02766 0.62865 0.0
H1489 H 0.71441 0.00442 0.66367 0.0
H1490 H 0.7204 0.01696 0.6119 0.0
H1491 H 0.7237 0.99408 0.6463 0.0
H1492 H 0.72764 0.07714 0.63377 0.0
H1493 H 0.69208 0.05099 0.60642 0.0
H1494 H 0.66295 0.95589 0.6632 0.0
H1495 H 0.67891 0.97164 0.62062 0.0
Li1496 Li 0.97473 0.67679 0.6865 0.0
Li1497 Li 0.9776 0.65667 0.68222 0.0
Li1498 Li 0.99182 0.67911 0.66901 0.0
Li1499 Li 0.96734 0.66395 0.66258 0.0
C1500 C 0.99569 0.68085 0.70369 0.0
N1501 N 0.0039 0.69203 0.7314 0.0
C1502 C 0.99199 0.67217 0.71565 0.0
C1503 C 0.00368 0.6952 0.7058 0.0
C1504 C 0.99622 0.67802 0.72958 0.0
C1505 C 0.00769 0.70066 0.7199 0.0
C1506 C 0.94845 0.64464 0.68496 0.0
C1507 C 0.93176 0.62129 0.67719 0.0
N1508 N 0.92497 0.61937 0.68994 0.0
C1509 C 0.94125 0.64246 0.69795 0.0
C1510 C 0.94363 0.63398 0.67447 0.0
C1511 C 0.92943 0.6296 0.70028 0.0
C1512 C 0.97025 0.69782 0.69854 0.0
N1513 N 0.96997 0.68577 0.70124 0.0
C1514 C 0.96203 0.68547 0.72538 0.0
C1515 C 0.96595 0.67955 0.71432 0.0
C1516 C 0.96214 0.69789 0.72294 0.0
C1517 C 0.96639 0.70411 0.7093 0.0
H1518 H 0.9733 0.70246 0.68798 0.0
H1519 H 0.96576 0.66995 0.71616 0.0
C1520 C 0.99219 0.64442 0.69199 0.0
N1521 N 0.97909 0.64211 0.69103 0.0
C1522 C 0.99477 0.63472 0.69844 0.0
C1523 C 0.97028 0.62031 0.70265 0.0
C1524 C 0.9682 0.63036 0.69628 0.0
C1525 C 0.98372 0.62241 0.70386 0.0
H1526 H 0.00068 0.65391 0.68784 0.0
H1527 H 0.95789 0.62869 0.69559 0.0
C1528 C 0.98409 0.69636 0.65906 0.0
N1529 N 0.9982 0.72063 0.64379 0.0
C1530 C 0.98079 0.69667 0.64446 0.0
C1531 C 0.99445 0.70842 0.66595 0.0
C1532 C 0.98807 0.70904 0.63692 0.0
C1533 C 0.0015 0.72058 0.65803 0.0
C1534 C 0.98131 0.65048 0.65086 0.0
C1535 C 0.98836 0.6551 0.63777 0.0
C1536 C 0.97333 0.63626 0.65329 0.0
C1537 C 0.98699 0.64541 0.62716 0.0
C1538 C 0.97223 0.62689 0.64242 0.0
N1539 N 0.97901 0.63162 0.62968 0.0
C1540 C 0.02088 0.69392 0.67006 0.0
C1541 C 0.01151 0.69426 0.64704 0.0
C1542 C 0.03429 0.70122 0.66466 0.0
N1543 N 0.00983 0.69055 0.66123 0.0
C1544 C 0.02476 0.70169 0.64121 0.0
C1545 C 0.03636 0.70511 0.65002 0.0
H1546 H 0.01926 0.69066 0.68124 0.0
H1547 H 0.00256 0.69115 0.64013 0.0
C1548 C 0.94055 0.65312 0.65015 0.0
N1549 N 0.95402 0.65773 0.64702 0.0
C1550 C 0.93049 0.64785 0.63911 0.0
C1551 C 0.94848 0.65314 0.62167 0.0
C1552 C 0.95816 0.65808 0.63308 0.0
C1553 C 0.93442 0.64774 0.62467 0.0
H1554 H 0.93756 0.65337 0.66126 0.0
H1555 H 0.96898 0.66224 0.6308 0.0
O1556 O 0.99153 0.67532 0.68999 0.0
O1557 O 0.96005 0.65719 0.68254 0.0
O1558 O 0.97718 0.68431 0.66659 0.0
O1559 O 0.98264 0.65984 0.66141 0.0
H1560 H 0.98579 0.66104 0.71423 0.0
H1561 H 0.00674 0.70205 0.69665 0.0
H1562 H 0.99336 0.67144 0.73895 0.0
H1563 H 0.01382 0.71175 0.7217 0.0
H1564 H 0.92793 0.61297 0.66916 0.0
H1565 H 0.94474 0.65059 0.70615 0.0
H1566 H 0.94894 0.63551 0.6643 0.0
H1567 H 0.92379 0.62776 0.7103 0.0
H1568 H 0.95904 0.68041 0.73577 0.0
H1569 H 0.96647 0.71358 0.70687 0.0
H1570 H 0.00534 0.63695 0.69933 0.0
H1571 H 0.96139 0.61091 0.70644 0.0
H1572 H 0.97274 0.68747 0.639 0.0
H1573 H 0.99706 0.70837 0.67726 0.0
H1574 H 0.98567 0.70942 0.62559 0.0
H1575 H 0.0096 0.72996 0.66319 0.0
H1576 H 0.99472 0.66606 0.63576 0.0
H1577 H 0.96812 0.63246 0.66349 0.0
H1578 H 0.9923 0.64885 0.61693 0.0
H1579 H 0.96604 0.61586 0.64415 0.0
H1580 H 0.04296 0.70376 0.67186 0.0
H1581 H 0.02589 0.70433 0.62982 0.0
H1582 H 0.91976 0.64398 0.64181 0.0
H1583 H 0.95192 0.65326 0.61065 0.0
C1584 C 0.18735 0.27532 0.05652 0.0
C1585 C 0.1955 0.28593 0.06863 0.0
C1586 C 0.18572 0.28066 0.09274 0.0
C1587 C 0.18863 0.29378 0.09768 0.0
C1588 C 0.18039 0.29513 0.10826 0.0
C1589 C 0.16893 0.28308 0.11386 0.0
C1590 C 0.16635 0.26982 0.10931 0.0
C1591 C 0.17497 0.2688 0.09896 0.0
C1592 C 0.18367 0.30942 0.11312 0.0
C1593 C 0.15414 0.25674 0.11489 0.0
C1594 C 0.08838 0.29702 0.07102 0.0
C1595 C 0.09431 0.29015 0.07978 0.0
C1596 C 0.11125 0.29533 0.09923 0.0
C1597 C 0.1096 0.28201 0.09939 0.0
C1598 C 0.11831 0.27928 0.10793 0.0
C1599 C 0.12911 0.29015 0.11623 0.0
C1600 C 0.13083 0.30358 0.11607 0.0
C1601 C 0.12172 0.30592 0.10773 0.0
C1602 C 0.11607 0.2648 0.10793 0.0
C1603 C 0.14246 0.31553 0.12445 0.0
C1604 C 0.10499 0.2817 0.21015 0.0
C1605 C 0.10264 0.269 0.20428 0.0
C1606 C 0.11298 0.26829 0.19641 0.0
C1607 C 0.12589 0.28049 0.19438 0.0
C1608 C 0.12838 0.2932 0.20055 0.0
C1609 C 0.11789 0.29362 0.20838 0.0
C1610 C 0.11005 0.25455 0.19004 0.0
C1611 C 0.14205 0.30639 0.19865 0.0
C1612 C 0.21334 0.26371 0.20367 0.0
C1613 C 0.20939 0.27365 0.21072 0.0
C1614 C 0.18608 0.26961 0.20637 0.0
C1615 C 0.17304 0.25862 0.20232 0.0
C1616 C 0.16336 0.26098 0.19518 0.0
C1617 C 0.16676 0.27473 0.19233 0.0
C1618 C 0.17972 0.28595 0.197 0.0
C1619 C 0.18927 0.28327 0.20398 0.0
C1620 C 0.14959 0.24878 0.19049 0.0
C1621 C 0.18349 0.30075 0.19454 0.0
C1622 C 0.1589 0.28434 0.12331 0.0
C1623 C 0.14927 0.28688 0.11651 0.0
C1624 C 0.13904 0.2876 0.12442 0.0
C1625 C 0.13829 0.28565 0.13962 0.0
C1626 C 0.12789 0.28587 0.14787 0.0
C1627 C 0.12733 0.28408 0.16284 0.0
C1628 C 0.13709 0.28188 0.17012 0.0
C1629 C 0.1366 0.28006 0.18533 0.0
C1630 C 0.14642 0.27784 0.19223 0.0
C1631 C 0.1568 0.27735 0.18432 0.0
C1632 C 0.15747 0.27916 0.16909 0.0
C1633 C 0.16774 0.2787 0.16078 0.0
C1634 C 0.16831 0.2805 0.1458 0.0
C1635 C 0.15856 0.28271 0.13854 0.0
C1636 C 0.14817 0.28331 0.14671 0.0
C1637 C 0.14759 0.28147 0.16199 0.0
C1638 C 0.07313 0.27076 0.2052 0.0
C1639 C 0.0814 0.27311 0.21934 0.0
O1640 O 0.19292 0.27917 0.08176 0.0
O1641 O 0.19519 0.26665 0.21275 0.0
O1642 O 0.09518 0.28306 0.21744 0.0
O1643 O 0.10309 0.2984 0.09096 0.0
H1644 H 0.19177 0.29346 0.06878 0.0
H1645 H 0.1761 0.27022 0.05872 0.0
H1646 H 0.19026 0.2672 0.05589 0.0
H1647 H 0.18933 0.28051 0.04586 0.0
H1648 H 0.19726 0.30295 0.09312 0.0
H1649 H 0.17295 0.25873 0.09516 0.0
H1650 H 0.17577 0.31156 0.10856 0.0
H1651 H 0.19402 0.3176 0.10946 0.0
H1652 H 0.18328 0.31001 0.12516 0.0
H1653 H 0.15312 0.24726 0.10962 0.0
H1654 H 0.14444 0.2569 0.11294 0.0
H1655 H 0.15528 0.25613 0.12679 0.0
H1656 H 0.08657 0.27948 0.08326 0.0
H1657 H 0.07691 0.29083 0.07292 0.0
H1658 H 0.09696 0.29865 0.05046 0.0
H1659 H 0.09 0.30631 0.0776 0.0
H1660 H 0.10153 0.27366 0.09292 0.0
H1661 H 0.12294 0.31616 0.10754 0.0
H1662 H 0.12459 0.26465 0.10198 0.0
H1663 H 0.1061 0.25713 0.10264 0.0
H1664 H 0.11624 0.26153 0.11924 0.0
H1665 H 0.14319 0.32557 0.12204 0.0
H1666 H 0.15247 0.31628 0.12184 0.0
H1667 H 0.14079 0.3137 0.13629 0.0
H1668 H 0.08057 0.2632 0.22265 0.0
H1669 H 0.09279 0.25963 0.20564 0.0
H1670 H 0.11964 0.30335 0.21301 0.0
H1671 H 0.11062 0.25514 0.178 0.0
H1672 H 0.09969 0.2459 0.19305 0.0
H1673 H 0.11804 0.2522 0.19384 0.0
H1674 H 0.14244 0.31541 0.20432 0.0
H1675 H 0.14392 0.30866 0.18689 0.0
H1676 H 0.15057 0.30504 0.20291 0.0
H1677 H 0.21259 0.28235 0.20307 0.0
H1678 H 0.22467 0.26908 0.20182 0.0
H1679 H 0.20794 0.25993 0.19299 0.0
H1680 H 0.21033 0.25462 0.21066 0.0
H1681 H 0.1706 0.24813 0.20445 0.0
H1682 H 0.19913 0.29185 0.20768 0.0
H1683 H 0.14806 0.24911 0.1786 0.0
H1684 H 0.14113 0.2494 0.19602 0.0
H1685 H 0.14872 0.23871 0.19307 0.0
H1686 H 0.19361 0.30832 0.1996 0.0
H1687 H 0.17537 0.30259 0.19907 0.0
H1688 H 0.18397 0.30265 0.18268 0.0
H1689 H 0.14965 0.28819 0.10482 0.0
H1690 H 0.12006 0.28746 0.14285 0.0
H1691 H 0.11911 0.28442 0.16862 0.0
H1692 H 0.14597 0.27644 0.2039 0.0
H1693 H 0.17548 0.27696 0.16576 0.0
H1694 H 0.17647 0.28009 0.13996 0.0
H1695 H 0.06204 0.263 0.20685 0.0
H1696 H 0.07702 0.2668 0.19641 0.0
H1697 H 0.07401 0.28061 0.2016 0.0
C1698 C 0.73813 0.91589 0.06208 0.0
C1699 C 0.72658 0.91135 0.07318 0.0
C1700 C 0.72968 0.90539 0.09755 0.0
C1701 C 0.71607 0.89544 0.10099 0.0
C1702 C 0.71341 0.88517 0.11115 0.0
C1703 C 0.72461 0.88473 0.11775 0.0
C1704 C 0.73836 0.89509 0.11463 0.0
C1705 C 0.7407 0.90549 0.10475 0.0
C1706 C 0.69861 0.87457 0.1145 0.0
C1707 C 0.75059 0.89488 0.12126 0.0
C1708 C 0.70061 0.77665 0.09278 0.0
C1709 C 0.70792 0.79027 0.10063 0.0
C1710 C 0.70723 0.81154 0.10331 0.0
C1711 C 0.72026 0.81992 0.10991 0.0
C1712 C 0.72341 0.83225 0.11731 0.0
C1713 C 0.71314 0.83601 0.11857 0.0
C1714 C 0.70008 0.82767 0.11171 0.0
C1715 C 0.69741 0.81567 0.10392 0.0
C1716 C 0.73772 0.84121 0.12379 0.0
C1717 C 0.68888 0.83134 0.11267 0.0
C1718 C 0.71594 0.81616 0.2116 0.0
C1719 C 0.72869 0.82593 0.20564 0.0
C1720 C 0.73016 0.83757 0.19845 0.0
C1721 C 0.71866 0.83948 0.19713 0.0
C1722 C 0.70592 0.82987 0.20339 0.0
C1723 C 0.70475 0.81835 0.21059 0.0
C1724 C 0.74395 0.8477 0.192 0.0
C1725 C 0.69347 0.83161 0.20217 0.0
C1726 C 0.7516 0.94948 0.21131 0.0
C1727 C 0.73903 0.93555 0.21517 0.0
C1728 C 0.73867 0.91372 0.21154 0.0
C1729 C 0.74806 0.90928 0.20882 0.0
C1730 C 0.74394 0.89675 0.20133 0.0
C1731 C 0.72995 0.8883 0.19684 0.0
C1732 C 0.72024 0.89241 0.20025 0.0
C1733 C 0.72472 0.90515 0.2075 0.0
C1734 C 0.75458 0.89266 0.19803 0.0
C1735 C 0.70515 0.8834 0.19614 0.0
C1736 C 0.72191 0.87274 0.12679 0.0
C1737 C 0.7188 0.86043 0.1195 0.0
C1738 C 0.71606 0.84861 0.1271 0.0
C1739 C 0.71644 0.84902 0.14248 0.0
C1740 C 0.71348 0.83725 0.1505 0.0
C1741 C 0.7145 0.83791 0.16559 0.0
C1742 C 0.71832 0.85031 0.17328 0.0
C1743 C 0.71986 0.8512 0.18859 0.0
C1744 C 0.72335 0.86358 0.19594 0.0
C1745 C 0.7256 0.87529 0.18838 0.0
C1746 C 0.72438 0.87468 0.17301 0.0
C1747 C 0.72681 0.88631 0.165 0.0
C1748 C 0.72577 0.88564 0.14989 0.0
C1749 C 0.72253 0.87341 0.14217 0.0
C1750 C 0.71987 0.86152 0.15003 0.0
C1751 C 0.72077 0.86215 0.16546 0.0
C1752 C 0.72363 0.79315 0.20455 0.0
C1753 C 0.72296 0.79953 0.21918 0.0
O1754 O 0.73239 0.91477 0.08704 0.0
O1755 O 0.74341 0.92626 0.21817 0.0
O1756 O 0.71387 0.80448 0.21825 0.0
O1757 O 0.70385 0.79948 0.09623 0.0
H1758 H 0.71984 0.89989 0.07183 0.0
H1759 H 0.74399 0.9105 0.0641 0.0
H1760 H 0.74543 0.92725 0.06292 0.0
H1761 H 0.73372 0.91317 0.05086 0.0
H1762 H 0.70756 0.89564 0.09561 0.0
H1763 H 0.75117 0.91334 0.10207 0.0
H1764 H 0.6959 0.86457 0.10908 0.0
H1765 H 0.69127 0.87776 0.11059 0.0
H1766 H 0.6973 0.87282 0.12638 0.0
H1767 H 0.76058 0.90309 0.11688 0.0
H1768 H 0.74966 0.88464 0.11917 0.0
H1769 H 0.75073 0.8964 0.13321 0.0
H1770 H 0.71935 0.79494 0.10149 0.0
H1771 H 0.69581 0.77818 0.08271 0.0
H1772 H 0.68888 0.76269 0.10898 0.0
H1773 H 0.70894 0.77594 0.0867 0.0
H1774 H 0.72809 0.81702 0.10911 0.0
H1775 H 0.68745 0.80921 0.09863 0.0
H1776 H 0.73731 0.83999 0.13576 0.0
H1777 H 0.74167 0.85231 0.12158 0.0
H1778 H 0.74519 0.83834 0.11945 0.0
H1779 H 0.6787 0.82272 0.10877 0.0
H1780 H 0.69174 0.84049 0.10586 0.0
H1781 H 0.68784 0.83413 0.12404 0.0
H1782 H 0.73346 0.80817 0.22226 0.0
H1783 H 0.73752 0.82453 0.20638 0.0
H1784 H 0.69498 0.81083 0.21527 0.0
H1785 H 0.74294 0.84742 0.17997 0.0
H1786 H 0.75216 0.84535 0.19491 0.0
H1787 H 0.74724 0.8584 0.19581 0.0
H1788 H 0.68429 0.82323 0.20766 0.0
H1789 H 0.69083 0.83164 0.19052 0.0
H1790 H 0.69592 0.84174 0.20706 0.0
H1791 H 0.73201 0.932 0.20546 0.0
H1792 H 0.74836 0.9571 0.20871 0.0
H1793 H 0.75673 0.94815 0.20163 0.0
H1794 H 0.7592 0.95363 0.22049 0.0
H1795 H 0.75875 0.91589 0.21222 0.0
H1796 H 0.71733 0.90835 0.2101 0.0
H1797 H 0.75429 0.89016 0.18626 0.0
H1798 H 0.75211 0.88321 0.20412 0.0
H1799 H 0.76523 0.90096 0.20109 0.0
H1800 H 0.69868 0.88732 0.20096 0.0
H1801 H 0.70123 0.87263 0.19977 0.0
H1802 H 0.70396 0.88303 0.18414 0.0
H1803 H 0.71857 0.86006 0.1077 0.0
H1804 H 0.71048 0.82741 0.1452 0.0
H1805 H 0.71228 0.82856 0.17115 0.0
H1806 H 0.72459 0.8642 0.20768 0.0
H1807 H 0.72957 0.89608 0.17033 0.0
H1808 H 0.7277 0.89489 0.1443 0.0
H1809 H 0.73072 0.78898 0.2054 0.0
H1810 H 0.72758 0.80107 0.19597 0.0
H1811 H 0.71319 0.78463 0.20114 0.0
C1812 C 0.18315 0.90167 0.06979 0.0
C1813 C 0.19414 0.91116 0.08108 0.0
C1814 C 0.18357 0.89711 0.10268 0.0
C1815 C 0.17335 0.9007 0.1048 0.0
C1816 C 0.16226 0.89309 0.11416 0.0
C1817 C 0.16129 0.8816 0.12146 0.0
C1818 C 0.17183 0.87828 0.11977 0.0
C1819 C 0.18294 0.88623 0.11054 0.0
C1820 C 0.15134 0.89708 0.11593 0.0
C1821 C 0.17108 0.86602 0.12726 0.0
C1822 C 0.08255 0.82489 0.06099 0.0
C1823 C 0.08721 0.81847 0.07265 0.0
C1824 C 0.09285 0.8279 0.09728 0.0
C1825 C 0.10297 0.82459 0.10094 0.0
C1826 C 0.11298 0.83225 0.11172 0.0
C1827 C 0.11297 0.84358 0.11877 0.0
C1828 C 0.10243 0.84658 0.11544 0.0
C1829 C 0.09231 0.83847 0.10492 0.0
C1830 C 0.12382 0.8285 0.11523 0.0
C1831 C 0.1022 0.85874 0.12247 0.0
C1832 C 0.08417 0.82563 0.21125 0.0
C1833 C 0.09411 0.82192 0.208 0.0
C1834 C 0.10656 0.83133 0.20129 0.0
C1835 C 0.10906 0.84466 0.19775 0.0
C1836 C 0.09927 0.84858 0.20152 0.0
C1837 C 0.08701 0.83903 0.20838 0.0
C1838 C 0.11697 0.82698 0.19783 0.0
C1839 C 0.10167 0.86276 0.19807 0.0
C1840 C 0.20113 0.93714 0.21507 0.0
C1841 C 0.19494 0.92771 0.22819 0.0
C1842 C 0.17974 0.90472 0.21673 0.0
C1843 C 0.17838 0.89183 0.21367 0.0
C1844 C 0.16712 0.88164 0.20548 0.0
C1845 C 0.15696 0.88447 0.20022 0.0
C1846 C 0.15812 0.89742 0.20344 0.0
C1847 C 0.16948 0.90742 0.21167 0.0
C1848 C 0.16617 0.86793 0.20228 0.0
C1849 C 0.14742 0.90073 0.19801 0.0
C1850 C 0.14862 0.87227 0.12965 0.0
C1851 C 0.13708 0.86255 0.1216 0.0
C1852 C 0.12479 0.85315 0.12835 0.0
C1853 C 0.12397 0.85326 0.14369 0.0
C1854 C 0.11192 0.8437 0.1509 0.0
C1855 C 0.11114 0.84406 0.16599 0.0
C1856 C 0.12244 0.85393 0.17445 0.0
C1857 C 0.12174 0.85441 0.1898 0.0
C1858 C 0.13315 0.86441 0.19785 0.0
C1859 C 0.14531 0.87403 0.19101 0.0
C1860 C 0.14623 0.87368 0.17569 0.0
C1861 C 0.15833 0.88319 0.16845 0.0
C1862 C 0.15914 0.88277 0.15338 0.0
C1863 C 0.14789 0.87283 0.14496 0.0
C1864 C 0.13554 0.86322 0.15201 0.0
C1865 C 0.13474 0.8636 0.1674 0.0
C1866 C 0.05003 0.79923 0.20781 0.0
C1867 C 0.06399 0.80252 0.21423 0.0
O1868 O 0.19397 0.9036 0.09299 0.0
O1869 O 0.19112 0.91418 0.22443 0.0
O1870 O 0.07184 0.81663 0.21727 0.0
O1871 O 0.08372 0.82128 0.0862 0.0
H1872 H 0.19206 0.91945 0.08471 0.0
H1873 H 0.17263 0.89706 0.07439 0.0
H1874 H 0.1849 0.89315 0.06628 0.0
H1875 H 0.18352 0.90768 0.06011 0.0
H1876 H 0.17381 0.90928 0.09906 0.0
H1877 H 0.19093 0.88362 0.10896 0.0
H1878 H 0.14165 0.88918 0.11039 0.0
H1879 H 0.15455 0.90735 0.11124 0.0
H1880 H 0.14903 0.89733 0.12762 0.0
H1881 H 0.17991 0.86458 0.12447 0.0
H1882 H 0.1613 0.85643 0.12415 0.0
H1883 H 0.17103 0.86743 0.13922 0.0
H1884 H 0.09866 0.82344 0.07174 0.0
H1885 H 0.08533 0.82287 0.05001 0.0
H1886 H 0.0878 0.83628 0.06282 0.0
H1887 H 0.07119 0.82057 0.06136 0.0
H1888 H 0.10311 0.81611 0.09526 0.0
H1889 H 0.08433 0.84081 0.10207 0.0
H1890 H 0.1254 0.82871 0.12718 0.0
H1891 H 0.13381 0.83626 0.11043 0.0
H1892 H 0.12099 0.81809 0.11082 0.0
H1893 H 0.09399 0.86035 0.11776 0.0
H1894 H 0.11236 0.86835 0.12117 0.0
H1895 H 0.10036 0.85699 0.13429 0.0
H1896 H 0.069 0.79935 0.20579 0.0
H1897 H 0.09223 0.81175 0.21079 0.0
H1898 H 0.07936 0.84185 0.21117 0.0
H1899 H 0.118 0.82658 0.18587 0.0
H1900 H 0.11397 0.81666 0.20225 0.0
H1901 H 0.12728 0.83475 0.20237 0.0
H1902 H 0.09282 0.86403 0.20125 0.0
H1903 H 0.10341 0.8646 0.18623 0.0
H1904 H 0.11112 0.87079 0.20387 0.0
H1905 H 0.18574 0.9281 0.232 0.0
H1906 H 0.20441 0.94802 0.21819 0.0
H1907 H 0.19338 0.93385 0.20612 0.0
H1908 H 0.21023 0.93675 0.21094 0.0
H1909 H 0.18629 0.88981 0.21763 0.0
H1910 H 0.17027 0.91729 0.21397 0.0
H1911 H 0.16638 0.86642 0.19034 0.0
H1912 H 0.15619 0.85935 0.20626 0.0
H1913 H 0.17477 0.86722 0.20742 0.0
H1914 H 0.14967 0.91119 0.20162 0.0
H1915 H 0.13705 0.8929 0.20196 0.0
H1916 H 0.14699 0.90018 0.18594 0.0
H1917 H 0.13767 0.86234 0.10982 0.0
H1918 H 0.10293 0.83584 0.14494 0.0
H1919 H 0.10156 0.8365 0.17093 0.0
H1920 H 0.13252 0.86475 0.20961 0.0
H1921 H 0.16733 0.89107 0.17437 0.0
H1922 H 0.1687 0.89035 0.14839 0.0
H1923 H 0.04353 0.78796 0.20528 0.0
H1924 H 0.05166 0.80497 0.19757 0.0
H1925 H 0.04443 0.80233 0.21552 0.0
C1926 C 0.28605 0.10647 0.94972 0.0
C1927 C 0.28708 0.09728 0.93784 0.0
C1928 C 0.29079 0.11199 0.91672 0.0
C1929 C 0.27698 0.10865 0.91476 0.0
C1930 C 0.27362 0.1163 0.90536 0.0
C1931 C 0.28428 0.12762 0.89791 0.0
C1932 C 0.29815 0.13082 0.89962 0.0
C1933 C 0.30117 0.12281 0.90885 0.0
C1934 C 0.2587 0.11246 0.9036 0.0
C1935 C 0.30982 0.14296 0.89203 0.0
C1936 C 0.26086 0.18838 0.95284 0.0
C1937 C 0.27269 0.19243 0.94219 0.0
C1938 C 0.26987 0.18252 0.91799 0.0
C1939 C 0.28332 0.1853 0.91532 0.0
C1940 C 0.28566 0.17707 0.90543 0.0
C1941 C 0.27425 0.16562 0.89837 0.0
C1942 C 0.26067 0.16298 0.9009 0.0
C1943 C 0.25871 0.17173 0.91043 0.0
C1944 C 0.3003 0.18042 0.9028 0.0
C1945 C 0.24817 0.15064 0.894 0.0
C1946 C 0.26223 0.1799 0.80521 0.0
C1947 C 0.27593 0.18445 0.80944 0.0
C1948 C 0.27933 0.17546 0.81639 0.0
C1949 C 0.26876 0.16176 0.81938 0.0
C1950 C 0.25503 0.15704 0.81464 0.0
C1951 C 0.252 0.16615 0.80739 0.0
C1952 C 0.29419 0.18067 0.82072 0.0
C1953 C 0.2435 0.14247 0.81748 0.0
C1954 C 0.26906 0.06967 0.80883 0.0
C1955 C 0.27104 0.07757 0.79472 0.0
C1956 C 0.2789 0.10128 0.80393 0.0
C1957 C 0.29052 0.11446 0.806 0.0
C1958 C 0.28966 0.12496 0.81358 0.0
C1959 C 0.2768 0.12219 0.81916 0.0
C1960 C 0.26491 0.10897 0.81686 0.0
C1961 C 0.26607 0.09863 0.80929 0.0
C1962 C 0.30253 0.13894 0.81584 0.0
C1963 C 0.25101 0.10573 0.8226 0.0
C1964 C 0.28105 0.13672 0.8892 0.0
C1965 C 0.27927 0.14662 0.89672 0.0
C1966 C 0.27643 0.15576 0.88939 0.0
C1967 C 0.27548 0.15516 0.87404 0.0
C1968 C 0.27298 0.16441 0.86627 0.0
C1969 C 0.27171 0.1635 0.85118 0.0
C1970 C 0.27316 0.15348 0.84324 0.0
C1971 C 0.27193 0.15249 0.82788 0.0
C1972 C 0.27331 0.14232 0.82037 0.0
C1973 C 0.27584 0.13299 0.82778 0.0
C1974 C 0.2772 0.13387 0.84311 0.0
C1975 C 0.27982 0.12468 0.85089 0.0
C1976 C 0.28105 0.12557 0.86598 0.0
C1977 C 0.27976 0.13569 0.87387 0.0
C1978 C 0.27705 0.14501 0.86626 0.0
C1979 C 0.27584 0.14415 0.85086 0.0
C1980 C 0.25096 0.20353 0.8077 0.0
C1981 C 0.26332 0.20212 0.80324 0.0
O1982 O 0.2946 0.10526 0.9262 0.0
O1983 O 0.28065 0.09152 0.79685 0.0
O1984 O 0.25857 0.1885 0.79894 0.0
O1985 O 0.26739 0.18987 0.92812 0.0
H1986 H 0.27652 0.08931 0.93406 0.0
H1987 H 0.28049 0.11159 0.94553 0.0
H1988 H 0.29653 0.11461 0.95349 0.0
H1989 H 0.28021 0.10013 0.95914 0.0
H1990 H 0.26876 0.10017 0.92058 0.0
H1991 H 0.31177 0.12525 0.91036 0.0
H1992 H 0.25719 0.12057 0.90888 0.0
H1993 H 0.25149 0.10235 0.90857 0.0
H1994 H 0.25598 0.11194 0.8919 0.0
H1995 H 0.32011 0.14453 0.89516 0.0
H1996 H 0.30964 0.15258 0.89468 0.0
H1997 H 0.30845 0.14124 0.88008 0.0
H1998 H 0.27719 0.18577 0.94459 0.0
H1999 H 0.26482 0.19018 0.96423 0.0
H2000 H 0.25306 0.1772 0.95136 0.0
H2001 H 0.25571 0.1945 0.95094 0.0
H2002 H 0.29196 0.19386 0.92104 0.0
H2003 H 0.24838 0.16976 0.91258 0.0
H2004 H 0.30199 0.1797 0.89101 0.0
H2005 H 0.30213 0.17277 0.90844 0.0
H2006 H 0.30803 0.19095 0.90694 0.0
H2007 H 0.23834 0.14896 0.89871 0.0
H2008 H 0.24872 0.1411 0.8954 0.0
H2009 H 0.24793 0.15228 0.88217 0.0
H2010 H 0.27021 0.20498 0.81301 0.0
H2011 H 0.28395 0.19498 0.80725 0.0
H2012 H 0.2415 0.16271 0.80384 0.0
H2013 H 0.29529 0.18188 0.83273 0.0
H2014 H 0.30139 0.19083 0.81584 0.0
H2015 H 0.29726 0.17306 0.81734 0.0
H2016 H 0.23322 0.14078 0.81413 0.0
H2017 H 0.24326 0.1402 0.82922 0.0
H2018 H 0.24541 0.13499 0.81138 0.0
H2019 H 0.26097 0.07631 0.79113 0.0
H2020 H 0.26151 0.05846 0.80705 0.0
H2021 H 0.26502 0.0736 0.81751 0.0
H2022 H 0.27905 0.07093 0.81267 0.0
H2023 H 0.30036 0.11643 0.80179 0.0
H2024 H 0.25692 0.08854 0.80773 0.0
H2025 H 0.30461 0.14127 0.82766 0.0
H2026 H 0.30093 0.14711 0.81113 0.0
H2027 H 0.31176 0.13946 0.81077 0.0
H2028 H 0.24262 0.09515 0.81938 0.0
H2029 H 0.24834 0.11338 0.81852 0.0
H2030 H 0.25151 0.10661 0.83465 0.0
H2031 H 0.28006 0.14718 0.9085 0.0
H2032 H 0.27189 0.17241 0.87178 0.0
H2033 H 0.2696 0.17079 0.84583 0.0
H2034 H 0.27226 0.14155 0.80861 0.0
H2035 H 0.28093 0.11669 0.8454 0.0
H2036 H 0.28302 0.1182 0.8714 0.0
H2037 H 0.24354 0.20072 0.79845 0.0
H2038 H 0.25448 0.21433 0.81136 0.0
H2039 H 0.24551 0.19651 0.81683 0.0
C2040 C 0.82242 0.08253 0.95301 0.0
C2041 C 0.81465 0.08649 0.94221 0.0
C2042 C 0.82284 0.09124 0.91756 0.0
C2043 C 0.81917 0.10088 0.91317 0.0
C2044 C 0.82711 0.11096 0.90296 0.0
C2045 C 0.83914 0.11157 0.89732 0.0
C2046 C 0.84251 0.10145 0.90133 0.0
C2047 C 0.83412 0.09122 0.91125 0.0
C2048 C 0.82293 0.1213 0.8987 0.0
C2049 C 0.85531 0.10183 0.89569 0.0
C2050 C 0.90591 0.21548 0.94023 0.0
C2051 C 0.89458 0.20273 0.93304 0.0
C2052 C 0.89125 0.18387 0.91665 0.0
C2053 C 0.89697 0.17614 0.91134 0.0
C2054 C 0.88929 0.16449 0.90221 0.0
C2055 C 0.87564 0.1607 0.89805 0.0
C2056 C 0.8699 0.16867 0.9031 0.0
C2057 C 0.87769 0.18007 0.91246 0.0
C2058 C 0.89568 0.15612 0.89718 0.0
C2059 C 0.85542 0.16503 0.89881 0.0
C2060 C 0.89948 0.18194 0.80332 0.0
C2061 C 0.90385 0.17415 0.81123 0.0
C2062 C 0.89433 0.16248 0.81898 0.0
C2063 C 0.88024 0.1588 0.81925 0.0
C2064 C 0.87586 0.16672 0.81142 0.0
C2065 C 0.88553 0.17808 0.80341 0.0
C2066 C 0.89935 0.15405 0.82681 0.0
C2067 C 0.86098 0.16323 0.81154 0.0
C2068 C 0.8002 0.04978 0.8032 0.0
C2069 C 0.80255 0.06386 0.79853 0.0
C2070 C 0.82488 0.08491 0.80289 0.0
C2071 C 0.83855 0.08859 0.80595 0.0
C2072 C 0.84746 0.10083 0.81376 0.0
C2073 C 0.84262 0.10974 0.81829 0.0
C2074 C 0.82899 0.10642 0.81457 0.0
C2075 C 0.82024 0.094 0.80693 0.0
C2076 C 0.86195 0.10411 0.8174 0.0
C2077 C 0.82366 0.11593 0.81878 0.0
C2078 C 0.84895 0.12366 0.88865 0.0
C2079 C 0.85777 0.13595 0.89629 0.0
C2080 C 0.86706 0.14798 0.88907 0.0
C2081 C 0.86774 0.1478 0.87373 0.0
C2082 C 0.87681 0.15977 0.86609 0.0
C2083 C 0.87752 0.15945 0.85101 0.0
C2084 C 0.8692 0.14714 0.84296 0.0
C2085 C 0.87009 0.14663 0.82764 0.0
C2086 C 0.86132 0.13432 0.81997 0.0
C2087 C 0.8517 0.1224 0.82717 0.0
C2088 C 0.8509 0.12262 0.84252 0.0
C2089 C 0.84151 0.11075 0.85015 0.0
C2090 C 0.84077 0.11108 0.86524 0.0
C2091 C 0.8495 0.12324 0.8733 0.0
C2092 C 0.859 0.13535 0.86583 0.0
C2093 C 0.8597 0.13503 0.85042 0.0
C2094 C 0.92927 0.21005 0.78397 0.0
C2095 C 0.92263 0.19968 0.79565 0.0
O2096 O 0.81592 0.08228 0.92833 0.0
O2097 O 0.81652 0.0726 0.79596 0.0
O2098 O 0.9083 0.19309 0.79538 0.0
O2099 O 0.89909 0.19485 0.92574 0.0
H2100 H 0.81959 0.098 0.94288 0.0
H2101 H 0.83354 0.08775 0.95014 0.0
H2102 H 0.81817 0.07115 0.95277 0.0
H2103 H 0.82161 0.08588 0.96421 0.0
H2104 H 0.81024 0.10064 0.91796 0.0
H2105 H 0.83676 0.08362 0.9147 0.0
H2106 H 0.82959 0.13121 0.90466 0.0
H2107 H 0.81198 0.11767 0.90141 0.0
H2108 H 0.82437 0.12335 0.88687 0.0
H2109 H 0.85666 0.09342 0.90015 0.0
H2110 H 0.8646 0.11196 0.89857 0.0
H2111 H 0.85473 0.10081 0.88365 0.0
H2112 H 0.8854 0.19636 0.93994 0.0
H2113 H 0.90378 0.21389 0.95221 0.0
H2114 H 0.90577 0.23157 0.92902 0.0
H2115 H 0.91522 0.21416 0.9407 0.0
H2116 H 0.90744 0.17915 0.91459 0.0
H2117 H 0.87307 0.18592 0.91646 0.0
H2118 H 0.88898 0.14512 0.90022 0.0
H2119 H 0.90618 0.16006 0.90193 0.0
H2120 H 0.89645 0.15639 0.88515 0.0
H2121 H 0.85329 0.17344 0.90169 0.0
H2122 H 0.84789 0.15554 0.90453 0.0
H2123 H 0.85369 0.16282 0.88694 0.0
H2124 H 0.92712 0.20329 0.80678 0.0
H2125 H 0.91461 0.17699 0.81128 0.0
H2126 H 0.88225 0.18413 0.79727 0.0
H2127 H 0.89923 0.15571 0.83871 0.0
H2128 H 0.91004 0.15697 0.82372 0.0
H2129 H 0.89238 0.14283 0.82442 0.0
H2130 H 0.85956 0.17131 0.80631 0.0
H2131 H 0.85724 0.16196 0.82289 0.0
H2132 H 0.85445 0.15323 0.80564 0.0
H2133 H 0.79908 0.06788 0.80775 0.0
H2134 H 0.78906 0.04257 0.80532 0.0
H2135 H 0.80615 0.05106 0.81336 0.0
H2136 H 0.80369 0.04514 0.79467 0.0
H2137 H 0.84209 0.0816 0.80256 0.0
H2138 H 0.80983 0.09145 0.80404 0.0
H2139 H 0.86373 0.10556 0.82935 0.0
H2140 H 0.86954 0.11398 0.81228 0.0
H2141 H 0.86395 0.09583 0.81361 0.0
H2142 H 0.81329 0.11249 0.81397 0.0
H2143 H 0.83098 0.12663 0.81523 0.0
H2144 H 0.82295 0.11628 0.8308 0.0
H2145 H 0.85728 0.13621 0.90807 0.0
H2146 H 0.88351 0.16953 0.87171 0.0
H2147 H 0.88472 0.16899 0.84572 0.0
H2148 H 0.862 0.134 0.80822 0.0
H2149 H 0.83462 0.10106 0.84454 0.0
H2150 H 0.83332 0.10167 0.87054 0.0
H2151 H 0.93882 0.20183 0.77104 0.0
H2152 H 0.93526 0.22033 0.78991 0.0
H2153 H 0.92114 0.21218 0.77959 0.0
C2154 C 0.81728 0.7173 0.95189 0.0
C2155 C 0.80704 0.71524 0.93964 0.0
C2156 C 0.81846 0.71107 0.91898 0.0
C2157 C 0.82894 0.72495 0.91718 0.0
C2158 C 0.84007 0.72833 0.9079 0.0
C2159 C 0.84084 0.71764 0.90036 0.0
C2160 C 0.83014 0.70371 0.90183 0.0
C2161 C 0.819 0.70064 0.91102 0.0
C2162 C 0.85118 0.74332 0.90638 0.0
C2163 C 0.83065 0.69206 0.89397 0.0
C2164 C 0.93836 0.74882 0.93866 0.0
C2165 C 0.92574 0.73413 0.93901 0.0
C2166 C 0.91075 0.7285 0.9175 0.0
C2167 C 0.90356 0.71767 0.90744 0.0
C2168 C 0.89233 0.71648 0.89944 0.0
C2169 C 0.88875 0.72688 0.90096 0.0
C2170 C 0.89619 0.73804 0.91096 0.0
C2171 C 0.90697 0.7386 0.91931 0.0
C2172 C 0.88433 0.70404 0.88943 0.0
C2173 C 0.8928 0.74941 0.91286 0.0
C2174 C 0.91782 0.74371 0.80919 0.0
C2175 C 0.90835 0.72997 0.81288 0.0
C2176 C 0.89589 0.7266 0.81973 0.0
C2177 C 0.89292 0.73721 0.82307 0.0
C2178 C 0.90221 0.75096 0.81884 0.0
C2179 C 0.91448 0.75399 0.81178 0.0
C2180 C 0.88598 0.71173 0.82358 0.0
C2181 C 0.89934 0.76251 0.82208 0.0
C2182 C 0.79792 0.73137 0.81258 0.0
C2183 C 0.80418 0.72996 0.79831 0.0
C2184 C 0.82102 0.72356 0.80699 0.0
C2185 C 0.82328 0.71247 0.80856 0.0
C2186 C 0.83492 0.71409 0.81611 0.0
C2187 C 0.84458 0.7272 0.82216 0.0
C2188 C 0.84257 0.73859 0.82032 0.0
C2189 C 0.8308 0.73666 0.81277 0.0
C2190 C 0.83677 0.70174 0.81786 0.0
C2191 C 0.85277 0.75273 0.82655 0.0
C2192 C 0.85333 0.72101 0.8918 0.0
C2193 C 0.86477 0.72225 0.89932 0.0
C2194 C 0.87714 0.726 0.89223 0.0
C2195 C 0.87821 0.72858 0.87715 0.0
C2196 C 0.89065 0.73288 0.86975 0.0
C2197 C 0.8914 0.73475 0.85479 0.0
C2198 C 0.87979 0.73255 0.84667 0.0
C2199 C 0.88032 0.73399 0.83139 0.0
C2200 C 0.86871 0.73217 0.82373 0.0
C2201 C 0.85648 0.72888 0.83092 0.0
C2202 C 0.85565 0.72712 0.84615 0.0
C2203 C 0.84345 0.72364 0.8537 0.0
C2204 C 0.84269 0.72176 0.86866 0.0
C2205 C 0.85406 0.72317 0.87664 0.0
C2206 C 0.86653 0.72688 0.86928 0.0
C2207 C 0.86733 0.72887 0.85403 0.0
C2208 C 0.95263 0.75371 0.81176 0.0
C2209 C 0.93854 0.74194 0.80644 0.0
O2210 O 0.80782 0.70726 0.92839 0.0
O2211 O 0.80925 0.72104 0.79998 0.0
O2212 O 0.93018 0.74737 0.80306 0.0
O2213 O 0.92142 0.72896 0.92501 0.0
H2214 H 0.80949 0.7255 0.93547 0.0
H2215 H 0.82806 0.72297 0.94792 0.0
H2216 H 0.81512 0.70712 0.95604 0.0
H2217 H 0.81649 0.72348 0.961 0.0
H2218 H 0.82864 0.73322 0.92305 0.0
H2219 H 0.81085 0.68998 0.91236 0.0
H2220 H 0.86096 0.74501 0.91136 0.0
H2221 H 0.84839 0.75051 0.91174 0.0
H2222 H 0.85316 0.74594 0.89471 0.0
H2223 H 0.82154 0.68176 0.89632 0.0
H2224 H 0.84019 0.69204 0.8972 0.0
H2225 H 0.83107 0.69368 0.88206 0.0
H2226 H 0.91732 0.73461 0.94491 0.0
H2227 H 0.94213 0.75271 0.9499 0.0
H2228 H 0.93561 0.756 0.9335 0.0
H2229 H 0.94689 0.74901 0.93236 0.0
H2230 H 0.90658 0.70993 0.90615 0.0
H2231 H 0.91254 0.74708 0.92701 0.0
H2232 H 0.88753 0.70708 0.87805 0.0
H2233 H 0.87305 0.70004 0.89006 0.0
H2234 H 0.88628 0.69552 0.89207 0.0
H2235 H 0.90114 0.75858 0.91881 0.0
H2236 H 0.88314 0.74542 0.91916 0.0
H2237 H 0.89106 0.75277 0.90215 0.0
H2238 H 0.93415 0.73458 0.81559 0.0
H2239 H 0.91065 0.72188 0.81034 0.0
H2240 H 0.92176 0.76451 0.80865 0.0
H2241 H 0.8858 0.71068 0.83557 0.0
H2242 H 0.88894 0.7045 0.81865 0.0
H2243 H 0.87533 0.7086 0.8199 0.0
H2244 H 0.90797 0.77278 0.81881 0.0
H2245 H 0.89752 0.76292 0.83389 0.0
H2246 H 0.88979 0.76045 0.8162 0.0
H2247 H 0.81269 0.74033 0.79505 0.0
H2248 H 0.79367 0.73834 0.81115 0.0
H2249 H 0.7895 0.72108 0.8161 0.0
H2250 H 0.80592 0.73587 0.82133 0.0
H2251 H 0.81573 0.70242 0.80402 0.0
H2252 H 0.82932 0.74541 0.81158 0.0
H2253 H 0.8369 0.69961 0.82959 0.0
H2254 H 0.84688 0.70406 0.81333 0.0
H2255 H 0.82842 0.69227 0.81233 0.0
H2256 H 0.85008 0.76069 0.82363 0.0
H2257 H 0.86331 0.75604 0.82257 0.0
H2258 H 0.85307 0.75224 0.83859 0.0
H2259 H 0.86404 0.72033 0.9109 0.0
H2260 H 0.89993 0.73474 0.87541 0.0
H2261 H 0.90121 0.73792 0.84968 0.0
H2262 H 0.86918 0.73331 0.81202 0.0
H2263 H 0.83432 0.72228 0.84812 0.0
H2264 H 0.83303 0.71905 0.87389 0.0
H2265 H 0.95952 0.74961 0.81458 0.0
H2266 H 0.95131 0.75872 0.82164 0.0
H2267 H 0.95763 0.76168 0.80328 0.0
C2268 C 0.85621 0.61063 0.39112 0.0
C2269 C 0.86325 0.62161 0.4032 0.0
C2270 C 0.85124 0.61599 0.42614 0.0
C2271 C 0.85341 0.62884 0.43108 0.0
C2272 C 0.84409 0.62962 0.44063 0.0
C2273 C 0.83223 0.61726 0.44511 0.0
C2274 C 0.83016 0.60426 0.44026 0.0
C2275 C 0.83989 0.60381 0.43105 0.0
C2276 C 0.84682 0.64366 0.44576 0.0
C2277 C 0.81752 0.59086 0.44451 0.0
C2278 C 0.76131 0.65648 0.42134 0.0
C2279 C 0.77121 0.65445 0.4303 0.0
C2280 C 0.77795 0.63725 0.43503 0.0
C2281 C 0.77414 0.62329 0.43381 0.0
C2282 C 0.78223 0.6184 0.44018 0.0
C2283 C 0.79451 0.62778 0.44785 0.0
C2284 C 0.79864 0.64199 0.44878 0.0
C2285 C 0.7903 0.64657 0.44245 0.0
C2286 C 0.77756 0.6032 0.43896 0.0
C2287 C 0.81181 0.65234 0.45666 0.0
C2288 C 0.76685 0.6156 0.54003 0.0
C2289 C 0.76451 0.60281 0.53441 0.0
C2290 C 0.77489 0.60193 0.52683 0.0
C2291 C 0.7879 0.61404 0.5249 0.0
C2292 C 0.79041 0.62684 0.53086 0.0
C2293 C 0.77983 0.62743 0.53834 0.0
C2294 C 0.77189 0.58812 0.52062 0.0
C2295 C 0.80418 0.63993 0.52904 0.0
C2296 C 0.86928 0.58745 0.53803 0.0
C2297 C 0.86712 0.59969 0.54102 0.0
C2298 C 0.84497 0.59853 0.53734 0.0
C2299 C 0.83122 0.58849 0.5344 0.0
C2300 C 0.82232 0.59185 0.52712 0.0
C2301 C 0.82724 0.60575 0.52316 0.0
C2302 C 0.841 0.61611 0.5268 0.0
C2303 C 0.84978 0.61236 0.53371 0.0
C2304 C 0.80772 0.58052 0.52357 0.0
C2305 C 0.84643 0.63113 0.52335 0.0
C2306 C 0.82172 0.618 0.45428 0.0
C2307 C 0.81273 0.6215 0.44751 0.0
C2308 C 0.80281 0.62275 0.45543 0.0
C2309 C 0.80151 0.62012 0.4705 0.0
C2310 C 0.79137 0.62093 0.4787 0.0
C2311 C 0.79036 0.61867 0.49357 0.0
C2312 C 0.79948 0.61556 0.50086 0.0
C2313 C 0.79862 0.61341 0.51602 0.0
C2314 C 0.80791 0.61044 0.52296 0.0
C2315 C 0.818 0.60936 0.51512 0.0
C2316 C 0.81894 0.61136 0.4999 0.0
C2317 C 0.82886 0.61023 0.49161 0.0
C2318 C 0.82986 0.61248 0.47671 0.0
C2319 C 0.82081 0.61569 0.46944 0.0
C2320 C 0.81063 0.61673 0.47755 0.0
C2321 C 0.80969 0.61455 0.49278 0.0
C2322 C 0.73478 0.60418 0.53502 0.0
C2323 C 0.74324 0.60704 0.54912 0.0
O2324 O 0.85994 0.61514 0.41654 0.0
O2325 O 0.85324 0.59455 0.54386 0.0
O2326 O 0.75695 0.61709 0.54696 0.0
O2327 O 0.76949 0.6413 0.42899 0.0
H2328 H 0.85923 0.62887 0.40234 0.0
H2329 H 0.84482 0.60503 0.39254 0.0
H2330 H 0.85976 0.60299 0.39143 0.0
H2331 H 0.85858 0.61557 0.3803 0.0
H2332 H 0.86241 0.63824 0.42744 0.0
H2333 H 0.8384 0.59394 0.42721 0.0
H2334 H 0.83934 0.64595 0.44039 0.0
H2335 H 0.85745 0.65205 0.44317 0.0
H2336 H 0.84533 0.64373 0.45769 0.0
H2337 H 0.81669 0.58176 0.43854 0.0
H2338 H 0.80801 0.59133 0.44235 0.0
H2339 H 0.81796 0.58928 0.45633 0.0
H2340 H 0.77235 0.65813 0.44184 0.0
H2341 H 0.7527 0.64583 0.41796 0.0
H2342 H 0.77404 0.67137 0.40636 0.0
H2343 H 0.75489 0.65835 0.42943 0.0
H2344 H 0.76466 0.61618 0.428 0.0
H2345 H 0.7935 0.65743 0.4434 0.0
H2346 H 0.78559 0.60187 0.43338 0.0
H2347 H 0.76763 0.59719 0.43285 0.0
H2348 H 0.7763 0.59884 0.45 0.0
H2349 H 0.8143 0.6632 0.45516 0.0
H2350 H 0.82062 0.65133 0.45275 0.0
H2351 H 0.81073 0.65017 0.46847 0.0
H2352 H 0.74262 0.59729 0.55267 0.0
H2353 H 0.75459 0.59349 0.53569 0.0
H2354 H 0.78159 0.63723 0.54275 0.0
H2355 H 0.77297 0.58874 0.50862 0.0
H2356 H 0.76133 0.57961 0.52323 0.0
H2357 H 0.77954 0.58551 0.52495 0.0
H2358 H 0.80472 0.64894 0.5349 0.0
H2359 H 0.806 0.64235 0.51731 0.0
H2360 H 0.81263 0.63839 0.53312 0.0
H2361 H 0.8702 0.60602 0.53102 0.0
H2362 H 0.88023 0.59117 0.53525 0.0
H2363 H 0.86265 0.58114 0.5287 0.0
H2364 H 0.86649 0.58074 0.5477 0.0
H2365 H 0.82758 0.57789 0.53747 0.0
H2366 H 0.86033 0.62023 0.53644 0.0
H2367 H 0.80522 0.5809 0.51195 0.0
H2368 H 0.80039 0.58211 0.53023 0.0
H2369 H 0.80604 0.57005 0.52579 0.0
H2370 H 0.85656 0.63811 0.52877 0.0
H2371 H 0.83892 0.63429 0.52676 0.0
H2372 H 0.84776 0.63253 0.51143 0.0
H2373 H 0.81366 0.62354 0.43595 0.0
H2374 H 0.78409 0.62332 0.47371 0.0
H2375 H 0.78237 0.61946 0.4993 0.0
H2376 H 0.80718 0.60882 0.5346 0.0
H2377 H 0.83603 0.60767 0.49657 0.0
H2378 H 0.83782 0.61166 0.47094 0.0
H2379 H 0.72374 0.59638 0.5369 0.0
H2380 H 0.73863 0.60002 0.52638 0.0
H2381 H 0.73549 0.61384 0.53104 0.0
C2382 C 0.39775 0.25169 0.39235 0.0
C2383 C 0.38694 0.24627 0.40433 0.0
C2384 C 0.39126 0.23931 0.42775 0.0
C2385 C 0.3778 0.2289 0.43112 0.0
C2386 C 0.37555 0.21855 0.44101 0.0
C2387 C 0.38703 0.21852 0.44744 0.0
C2388 C 0.40062 0.22926 0.44434 0.0
C2389 C 0.40253 0.23969 0.43473 0.0
C2390 C 0.36092 0.2075 0.44435 0.0
C2391 C 0.41312 0.22951 0.45084 0.0
C2392 C 0.36538 0.11039 0.42617 0.0
C2393 C 0.37244 0.1242 0.43368 0.0
C2394 C 0.37191 0.1456 0.43485 0.0
C2395 C 0.38494 0.15441 0.44122 0.0
C2396 C 0.38788 0.16688 0.44815 0.0
C2397 C 0.37738 0.17034 0.4492 0.0
C2398 C 0.36431 0.16157 0.44252 0.0
C2399 C 0.36186 0.14945 0.43517 0.0
C2400 C 0.4022 0.17629 0.4544 0.0
C2401 C 0.35286 0.16491 0.44324 0.0
C2402 C 0.38148 0.15266 0.54248 0.0
C2403 C 0.39419 0.16309 0.53704 0.0
C2404 C 0.39508 0.17441 0.52969 0.0
C2405 C 0.38306 0.17535 0.52774 0.0
C2406 C 0.37036 0.16509 0.53352 0.0
C2407 C 0.36975 0.15387 0.54083 0.0
C2408 C 0.40882 0.18522 0.52369 0.0
C2409 C 0.35737 0.16581 0.53166 0.0
C2410 C 0.40995 0.28309 0.53988 0.0
C2411 C 0.39769 0.26941 0.54485 0.0
C2412 C 0.39855 0.24819 0.54134 0.0
C2413 C 0.40863 0.24462 0.53885 0.0
C2414 C 0.40542 0.23235 0.5313 0.0
C2415 C 0.39165 0.22324 0.52651 0.0
C2416 C 0.38124 0.2265 0.52962 0.0
C2417 C 0.38482 0.239 0.53694 0.0
C2418 C 0.41678 0.22919 0.52833 0.0
C2419 C 0.36637 0.21678 0.52518 0.0
C2420 C 0.38482 0.20679 0.45666 0.0
C2421 C 0.38222 0.19453 0.44961 0.0
C2422 C 0.37999 0.183 0.45746 0.0
C2423 C 0.3804 0.18367 0.47284 0.0
C2424 C 0.378 0.17222 0.48111 0.0
C2425 C 0.37903 0.17316 0.4962 0.0
C2426 C 0.38224 0.18552 0.50364 0.0
C2427 C 0.38369 0.18667 0.51895 0.0
C2428 C 0.3865 0.19896 0.52606 0.0
C2429 C 0.38818 0.21034 0.51825 0.0
C2430 C 0.38709 0.20948 0.50288 0.0
C2431 C 0.38901 0.2208 0.49462 0.0
C2432 C 0.38807 0.21988 0.4795 0.0
C2433 C 0.3854 0.20771 0.47203 0.0
C2434 C 0.38329 0.19613 0.48013 0.0
C2435 C 0.38413 0.19702 0.49556 0.0
C2436 C 0.39226 0.13165 0.53702 0.0
C2437 C 0.3899 0.13747 0.55123 0.0
O2438 O 0.39367 0.249 0.4177 0.0
O2439 O 0.40235 0.26042 0.54825 0.0
O2440 O 0.37997 0.14121 0.54918 0.0
O2441 O 0.36874 0.13339 0.42827 0.0
H2442 H 0.38029 0.23488 0.40238 0.0
H2443 H 0.40394 0.24648 0.39285 0.0
H2444 H 0.40488 0.26305 0.39368 0.0
H2445 H 0.39263 0.24948 0.38148 0.0
H2446 H 0.36907 0.22887 0.42599 0.0
H2447 H 0.41287 0.24789 0.43214 0.0
H2448 H 0.35868 0.19757 0.43913 0.0
H2449 H 0.35322 0.21017 0.44029 0.0
H2450 H 0.35964 0.20588 0.45626 0.0
H2451 H 0.42297 0.23796 0.44643 0.0
H2452 H 0.41257 0.21945 0.44868 0.0
H2453 H 0.41328 0.23098 0.46281 0.0
H2454 H 0.3838 0.12881 0.4353 0.0
H2455 H 0.36116 0.11174 0.41557 0.0
H2456 H 0.35271 0.09689 0.44226 0.0
H2457 H 0.37393 0.10943 0.42096 0.0
H2458 H 0.39293 0.15171 0.44058 0.0
H2459 H 0.3519 0.14266 0.43002 0.0
H2460 H 0.40196 0.17529 0.4664 0.0
H2461 H 0.4058 0.18729 0.45197 0.0
H2462 H 0.40983 0.17364 0.45008 0.0
H2463 H 0.34275 0.15603 0.43953 0.0
H2464 H 0.35546 0.17382 0.43616 0.0
H2465 H 0.35179 0.16791 0.45451 0.0
H2466 H 0.39981 0.14668 0.55491 0.0
H2467 H 0.40343 0.16245 0.5383 0.0
H2468 H 0.36001 0.14584 0.54511 0.0
H2469 H 0.40812 0.18514 0.51164 0.0
H2470 H 0.41736 0.18343 0.52681 0.0
H2471 H 0.4114 0.19568 0.52767 0.0
H2472 H 0.34835 0.15718 0.5371 0.0
H2473 H 0.3549 0.16543 0.5199 0.0
H2474 H 0.35905 0.17581 0.53619 0.0
H2475 H 0.39014 0.26521 0.5356 0.0
H2476 H 0.40648 0.29045 0.53692 0.0
H2477 H 0.41465 0.2812 0.53015 0.0
H2478 H 0.41797 0.28787 0.54862 0.0
H2479 H 0.41915 0.2517 0.54253 0.0
H2480 H 0.37689 0.2415 0.53938 0.0
H2481 H 0.41679 0.22664 0.51662 0.0
H2482 H 0.41487 0.22 0.53461 0.0
H2483 H 0.42716 0.23799 0.53144 0.0
H2484 H 0.35932 0.22012 0.52968 0.0
H2485 H 0.36296 0.20614 0.52891 0.0
H2486 H 0.36541 0.2163 0.51314 0.0
H2487 H 0.38197 0.19397 0.43781 0.0
H2488 H 0.37543 0.16241 0.47602 0.0
H2489 H 0.37727 0.16405 0.50195 0.0
H2490 H 0.38763 0.19977 0.53781 0.0
H2491 H 0.39129 0.2305 0.49975 0.0
H2492 H 0.38959 0.2289 0.47373 0.0
H2493 H 0.39996 0.12834 0.53881 0.0
H2494 H 0.3963 0.13964 0.52851 0.0
H2495 H 0.38243 0.12262 0.53292 0.0
C2496 C 0.85582 0.23404 0.39508 0.0
C2497 C 0.86515 0.24171 0.40827 0.0
C2498 C 0.85222 0.2253 0.42768 0.0
C2499 C 0.84148 0.22829 0.42868 0.0
C2500 C 0.82997 0.22037 0.43744 0.0
C2501 C 0.82913 0.20922 0.4453 0.0
C2502 C 0.84 0.2063 0.44449 0.0
C2503 C 0.85146 0.21447 0.43577 0.0
C2504 C 0.81861 0.22384 0.4382 0.0
C2505 C 0.83941 0.19443 0.45267 0.0
C2506 C 0.72832 0.13505 0.4193 0.0
C2507 C 0.74022 0.13288 0.41459 0.0
C2508 C 0.75935 0.1454 0.4323 0.0
C2509 C 0.76794 0.14359 0.4419 0.0
C2510 C 0.77938 0.15496 0.44863 0.0
C2511 C 0.78187 0.1685 0.44621 0.0
C2512 C 0.7733 0.17045 0.43636 0.0
C2513 C 0.76225 0.15889 0.42931 0.0
C2514 C 0.78865 0.15239 0.45844 0.0
C2515 C 0.77565 0.18472 0.43345 0.0
C2516 C 0.75433 0.15787 0.53666 0.0
C2517 C 0.76493 0.15502 0.53372 0.0
C2518 C 0.77724 0.16496 0.52723 0.0
C2519 C 0.77896 0.178 0.52366 0.0
C2520 C 0.76863 0.18117 0.52739 0.0
C2521 C 0.75647 0.17106 0.534 0.0
C2522 C 0.78824 0.1614 0.52382 0.0
C2523 C 0.77023 0.19502 0.52391 0.0
C2524 C 0.87373 0.2699 0.53546 0.0
C2525 C 0.86764 0.26086 0.54886 0.0
C2526 C 0.851 0.23781 0.53839 0.0
C2527 C 0.84875 0.2245 0.53573 0.0
C2528 C 0.83685 0.21441 0.52832 0.0
C2529 C 0.82694 0.21775 0.52343 0.0
C2530 C 0.82899 0.23112 0.52627 0.0
C2531 C 0.84101 0.24104 0.53373 0.0
C2532 C 0.83495 0.20022 0.52553 0.0
C2533 C 0.81857 0.23495 0.52121 0.0
C2534 C 0.81668 0.20033 0.454 0.0
C2535 C 0.80533 0.18932 0.44684 0.0
C2536 C 0.79322 0.18052 0.45428 0.0
C2537 C 0.79233 0.1828 0.4693 0.0
C2538 C 0.78016 0.17446 0.47704 0.0
C2539 C 0.77965 0.17621 0.49198 0.0
C2540 C 0.79127 0.18646 0.49975 0.0
C2541 C 0.79108 0.18786 0.51504 0.0
C2542 C 0.80273 0.19829 0.52241 0.0
C2543 C 0.81469 0.20738 0.51489 0.0
C2544 C 0.81511 0.20606 0.4996 0.0
C2545 C 0.827 0.21498 0.49171 0.0
C2546 C 0.82747 0.21328 0.47674 0.0
C2547 C 0.81613 0.20252 0.46911 0.0
C2548 C 0.80393 0.19364 0.47679 0.0
C2549 C 0.80341 0.19545 0.49204 0.0
C2550 C 0.72096 0.13016 0.53133 0.0
C2551 C 0.735 0.13413 0.53813 0.0
O2552 O 0.86339 0.2324 0.41901 0.0
O2553 O 0.86297 0.2471 0.54532 0.0
O2554 O 0.74193 0.14811 0.54194 0.0
O2555 O 0.74829 0.13384 0.42648 0.0
H2556 H 0.86256 0.24943 0.41264 0.0
H2557 H 0.84476 0.22868 0.39814 0.0
H2558 H 0.8582 0.22619 0.39067 0.0
H2559 H 0.85736 0.24148 0.3864 0.0
H2560 H 0.84193 0.23671 0.42264 0.0
H2561 H 0.8598 0.21227 0.435 0.0
H2562 H 0.80891 0.21509 0.43351 0.0
H2563 H 0.8212 0.23338 0.4322 0.0
H2564 H 0.81659 0.22526 0.44972 0.0
H2565 H 0.8485 0.19324 0.45051 0.0
H2566 H 0.82985 0.18461 0.44958 0.0
H2567 H 0.839 0.19615 0.46453 0.0
H2568 H 0.74662 0.14093 0.40658 0.0
H2569 H 0.72147 0.13351 0.40983 0.0
H2570 H 0.73236 0.14571 0.42366 0.0
H2571 H 0.72208 0.12772 0.42792 0.0
H2572 H 0.76571 0.13316 0.44403 0.0
H2573 H 0.75581 0.1605 0.42177 0.0
H2574 H 0.78608 0.15303 0.46995 0.0
H2575 H 0.79969 0.16033 0.45688 0.0
H2576 H 0.78731 0.14197 0.45644 0.0
H2577 H 0.76706 0.18434 0.427 0.0
H2578 H 0.78538 0.19071 0.42733 0.0
H2579 H 0.7768 0.1904 0.44385 0.0
H2580 H 0.74066 0.13193 0.52957 0.0
H2581 H 0.76356 0.14501 0.53639 0.0
H2582 H 0.74833 0.17323 0.53658 0.0
H2583 H 0.78893 0.16052 0.51185 0.0
H2584 H 0.78601 0.15146 0.5287 0.0
H2585 H 0.79848 0.16978 0.52787 0.0
H2586 H 0.76134 0.19595 0.52771 0.0
H2587 H 0.77119 0.19654 0.51197 0.0
H2588 H 0.77986 0.20346 0.52906 0.0
H2589 H 0.85892 0.26194 0.55302 0.0
H2590 H 0.87767 0.28096 0.53839 0.0
H2591 H 0.86571 0.26679 0.52682 0.0
H2592 H 0.88236 0.26884 0.53101 0.0
H2593 H 0.85647 0.22209 0.5394 0.0
H2594 H 0.84252 0.25126 0.53572 0.0
H2595 H 0.83453 0.19818 0.51364 0.0
H2596 H 0.82498 0.19218 0.5301 0.0
H2597 H 0.84345 0.19915 0.53038 0.0
H2598 H 0.82149 0.24568 0.52456 0.0
H2599 H 0.80826 0.22764 0.52571 0.0
H2600 H 0.8176 0.23402 0.50918 0.0
H2601 H 0.80598 0.18748 0.43533 0.0
H2602 H 0.77091 0.16637 0.47167 0.0
H2603 H 0.77006 0.16934 0.49736 0.0
H2604 H 0.80258 0.1992 0.53416 0.0
H2605 H 0.83611 0.22332 0.49703 0.0
H2606 H 0.83692 0.22039 0.47125 0.0
H2607 H 0.71512 0.11893 0.52842 0.0
H2608 H 0.72254 0.13611 0.52126 0.0
H2609 H 0.71471 0.13252 0.53892 0.0
C2610 C 0.03672 0.47699 0.27935 0.0
C2611 C 0.02397 0.46558 0.2713 0.0
C2612 C 0.02004 0.47273 0.24787 0.0
C2613 C 0.0057 0.46724 0.24769 0.0
C2614 C 0.99974 0.47314 0.23906 0.0
C2615 C 0.00836 0.48484 0.23063 0.0
C2616 C 0.02283 0.4902 0.23062 0.0
C2617 C 0.02845 0.48386 0.23905 0.0
C2618 C 0.98425 0.46695 0.23909 0.0
C2619 C 0.03241 0.50283 0.22202 0.0
C2620 C 0.97747 0.53358 0.28878 0.0
C2621 C 0.987 0.5426 0.27673 0.0
C2622 C 0.98366 0.53148 0.253 0.0
C2623 C 0.99742 0.53684 0.24876 0.0
C2624 C 0.00089 0.52966 0.23859 0.0
C2625 C 0.99038 0.51684 0.23267 0.0
C2626 C 0.97642 0.51171 0.23654 0.0
C2627 C 0.97323 0.51926 0.24649 0.0
C2628 C 0.01582 0.53563 0.23442 0.0
C2629 C 0.96494 0.49801 0.23057 0.0
C2630 C 0.97508 0.53034 0.14109 0.0
C2631 C 0.98915 0.5353 0.14388 0.0
C2632 C 0.99347 0.52678 0.15026 0.0
C2633 C 0.98349 0.51304 0.15389 0.0
C2634 C 0.96937 0.50782 0.15042 0.0
C2635 C 0.96537 0.51653 0.1439 0.0
C2636 C 0.00865 0.53252 0.15337 0.0
C2637 C 0.9585 0.49317 0.15397 0.0
C2638 C 0.014 0.43811 0.14755 0.0
C2639 C 0.00169 0.43569 0.13809 0.0
C2640 C 0.00153 0.45736 0.13849 0.0
C2641 C 0.01178 0.47136 0.13896 0.0
C2642 C 0.00953 0.48121 0.14607 0.0
C2643 C 0.99658 0.47692 0.15255 0.0
C2644 C 0.98591 0.46287 0.15137 0.0
C2645 C 0.98851 0.45322 0.14436 0.0
C2646 C 0.02109 0.49612 0.14705 0.0
C2647 C 0.97185 0.45804 0.15776 0.0
C2648 C 0.00237 0.49196 0.22247 0.0
C2649 C 0.99911 0.50067 0.23032 0.0
C2650 C 0.99409 0.50828 0.22337 0.0
C2651 C 0.99253 0.50746 0.20807 0.0
C2652 C 0.9881 0.51544 0.20066 0.0
C2653 C 0.98652 0.51448 0.1856 0.0
C2654 C 0.98929 0.50548 0.17737 0.0
C2655 C 0.98773 0.50442 0.16205 0.0
C2656 C 0.99025 0.49513 0.15424 0.0
C2657 C 0.99446 0.48689 0.16134 0.0
C2658 C 0.99642 0.48805 0.17661 0.0
C2659 C 0.00096 0.48015 0.18405 0.0
C2660 C 0.00286 0.48136 0.19906 0.0
C2661 C 0.00029 0.49051 0.20723 0.0
C2662 C 0.99552 0.49843 0.19999 0.0
C2663 C 0.99375 0.49732 0.18465 0.0
C2664 C 0.96421 0.5517 0.15084 0.0
C2665 C 0.97483 0.55196 0.14027 0.0
O2666 O 0.026 0.46742 0.25646 0.0
O2667 O 0.00444 0.44814 0.13213 0.0
O2668 O 0.97057 0.53854 0.13554 0.0
O2669 O 0.98021 0.53782 0.26343 0.0
H2670 H 0.01493 0.46651 0.2747 0.0
H2671 H 0.03839 0.4873 0.27637 0.0
H2672 H 0.04609 0.47652 0.27642 0.0
H2673 H 0.03527 0.47589 0.2913 0.0
H2674 H 0.9992 0.45835 0.25426 0.0
H2675 H 0.03951 0.48788 0.23921 0.0
H2676 H 0.98172 0.47417 0.24481 0.0
H2677 H 0.97888 0.45681 0.2446 0.0
H2678 H 0.9802 0.46552 0.22777 0.0
H2679 H 0.04348 0.50655 0.22442 0.0
H2680 H 0.03037 0.51138 0.22444 0.0
H2681 H 0.03049 0.50033 0.21023 0.0
H2682 H 0.99639 0.5416 0.27721 0.0
H2683 H 0.9827 0.53721 0.29956 0.0
H2684 H 0.97483 0.52267 0.287 0.0
H2685 H 0.96772 0.53389 0.28884 0.0
H2686 H 0.00543 0.54658 0.25346 0.0
H2687 H 0.96262 0.51536 0.24973 0.0
H2688 H 0.0167 0.53523 0.22242 0.0
H2689 H 0.01987 0.52931 0.2392 0.0
H2690 H 0.02241 0.54652 0.23833 0.0
H2691 H 0.95477 0.49507 0.2354 0.0
H2692 H 0.96733 0.4897 0.23273 0.0
H2693 H 0.96411 0.49861 0.21861 0.0
H2694 H 0.98486 0.55656 0.14632 0.0
H2695 H 0.99677 0.5458 0.14104 0.0
H2696 H 0.95457 0.51273 0.14141 0.0
H2697 H 0.01047 0.53331 0.16531 0.0
H2698 H 0.01522 0.54294 0.1487 0.0
H2699 H 0.01194 0.52539 0.14888 0.0
H2700 H 0.94795 0.4907 0.15063 0.0
H2701 H 0.95861 0.4916 0.16585 0.0
H2702 H 0.96088 0.48577 0.14841 0.0
H2703 H 0.99244 0.43146 0.14514 0.0
H2704 H 0.01198 0.42825 0.15244 0.0
H2705 H 0.0157 0.4456 0.15651 0.0
H2706 H 0.02356 0.44239 0.14099 0.0
H2707 H 0.02171 0.47446 0.13414 0.0
H2708 H 0.98034 0.44248 0.1434 0.0
H2709 H 0.02374 0.49934 0.15864 0.0
H2710 H 0.01764 0.5029 0.14218 0.0
H2711 H 0.03054 0.49779 0.1414 0.0
H2712 H 0.96429 0.44707 0.15478 0.0
H2713 H 0.96776 0.46467 0.15399 0.0
H2714 H 0.97278 0.45904 0.16979 0.0
H2715 H 0.00054 0.50157 0.24205 0.0
H2716 H 0.98584 0.52255 0.20642 0.0
H2717 H 0.98306 0.52086 0.18049 0.0
H2718 H 0.98888 0.49427 0.14252 0.0
H2719 H 0.00316 0.47297 0.17834 0.0
H2720 H 0.00635 0.47501 0.2042 0.0
H2721 H 0.96741 0.56238 0.15466 0.0
H2722 H 0.96347 0.54548 0.16046 0.0
H2723 H 0.95383 0.54698 0.14557 0.0
C2724 C 0.47838 0.43097 0.28709 0.0
C2725 C 0.4684 0.43046 0.27536 0.0
C2726 C 0.47857 0.43327 0.25163 0.0
C2727 C 0.47628 0.4433 0.24543 0.0
C2728 C 0.48544 0.45247 0.23516 0.0
C2729 C 0.49715 0.4516 0.23114 0.0
C2730 C 0.49906 0.44099 0.23683 0.0
C2731 C 0.48958 0.43179 0.24689 0.0
C2732 C 0.4829 0.46343 0.22905 0.0
C2733 C 0.51144 0.43978 0.23282 0.0
C2734 C 0.58216 0.54895 0.27309 0.0
C2735 C 0.57449 0.53504 0.26627 0.0
C2736 C 0.55508 0.52155 0.24954 0.0
C2737 C 0.55804 0.51086 0.24729 0.0
C2738 C 0.54953 0.49938 0.23829 0.0
C2739 C 0.53783 0.49856 0.2314 0.0
C2740 C 0.53491 0.50936 0.23349 0.0
C2741 C 0.54362 0.52074 0.24253 0.0
C2742 C 0.55292 0.48803 0.23625 0.0
C2743 C 0.52249 0.50877 0.22633 0.0
C2744 C 0.56652 0.51594 0.13929 0.0
C2745 C 0.56837 0.5053 0.14478 0.0
C2746 C 0.55758 0.49398 0.15187 0.0
C2747 C 0.54468 0.49324 0.15348 0.0
C2748 C 0.54267 0.50372 0.14766 0.0
C2749 C 0.55364 0.51494 0.14065 0.0
C2750 C 0.56002 0.48293 0.15791 0.0
C2751 C 0.52902 0.5032 0.14912 0.0
C2752 C 0.45879 0.38636 0.14373 0.0
C2753 C 0.46203 0.40003 0.13684 0.0
C2754 C 0.48513 0.42028 0.13938 0.0
C2755 C 0.49838 0.4231 0.1432 0.0
C2756 C 0.50786 0.43564 0.15019 0.0
C2757 C 0.50403 0.4457 0.15307 0.0
C2758 C 0.49093 0.44324 0.14837 0.0
C2759 C 0.48158 0.43052 0.14161 0.0
C2760 C 0.52182 0.43799 0.15485 0.0
C2761 C 0.4867 0.45394 0.15079 0.0
C2762 C 0.50819 0.46276 0.22244 0.0
C2763 C 0.51762 0.47494 0.22987 0.0
C2764 C 0.52827 0.48606 0.22261 0.0
C2765 C 0.52965 0.48511 0.20745 0.0
C2766 C 0.54028 0.49611 0.19981 0.0
C2767 C 0.54155 0.49507 0.18488 0.0
C2768 C 0.53226 0.48297 0.177 0.0
C2769 C 0.5335 0.48182 0.16181 0.0
C2770 C 0.52411 0.46963 0.15432 0.0
C2771 C 0.51347 0.45846 0.1616 0.0
C2772 C 0.51204 0.45943 0.17679 0.0
C2773 C 0.50145 0.44839 0.18449 0.0
C2774 C 0.50008 0.44948 0.19941 0.0
C2775 C 0.50937 0.46157 0.20726 0.0
C2776 C 0.52016 0.47281 0.19974 0.0
C2777 C 0.52147 0.47174 0.18449 0.0
C2778 C 0.59851 0.53653 0.14554 0.0
C2779 C 0.5905 0.53098 0.13112 0.0
O2780 O 0.47052 0.42521 0.2625 0.0
O2781 O 0.476 0.40758 0.13368 0.0
O2782 O 0.57679 0.52738 0.13281 0.0
O2783 O 0.56293 0.53271 0.25839 0.0
H2784 H 0.47068 0.44128 0.27394 0.0
H2785 H 0.48922 0.43795 0.28369 0.0
H2786 H 0.47688 0.4205 0.28883 0.0
H2787 H 0.47675 0.43505 0.29751 0.0
H2788 H 0.46747 0.44409 0.24883 0.0
H2789 H 0.49111 0.42386 0.25165 0.0
H2790 H 0.49062 0.4737 0.23375 0.0
H2791 H 0.47238 0.46147 0.23157 0.0
H2792 H 0.4842 0.46392 0.21707 0.0
H2793 H 0.51137 0.43089 0.23812 0.0
H2794 H 0.52109 0.44945 0.23607 0.0
H2795 H 0.51167 0.43848 0.22086 0.0
H2796 H 0.57253 0.52651 0.27374 0.0
H2797 H 0.60119 0.55919 0.26258 0.0
H2798 H 0.57527 0.55295 0.2767 0.0
H2799 H 0.57527 0.55295 0.2767 0.0
H2800 H 0.56692 0.51136 0.25259 0.0
H2801 H 0.54143 0.52904 0.24428 0.0
H2802 H 0.54442 0.47821 0.24063 0.0
H2803 H 0.56274 0.4905 0.24181 0.0
H2804 H 0.55375 0.48626 0.22449 0.0
H2805 H 0.52177 0.51811 0.22887 0.0
H2806 H 0.5129 0.49947 0.22999 0.0
H2807 H 0.52303 0.50778 0.21435 0.0
H2808 H 0.59101 0.52175 0.12742 0.0
H2809 H 0.5782 0.50578 0.14374 0.0
H2810 H 0.55226 0.52312 0.13634 0.0
H2811 H 0.55869 0.4825 0.16988 0.0
H2812 H 0.57054 0.48483 0.1555 0.0
H2813 H 0.55225 0.47264 0.15328 0.0
H2814 H 0.52895 0.5119 0.14354 0.0
H2815 H 0.52679 0.50362 0.16081 0.0
H2816 H 0.52056 0.49326 0.14449 0.0
H2817 H 0.45929 0.40555 0.14515 0.0
H2818 H 0.44756 0.38 0.14606 0.0
H2819 H 0.46464 0.38852 0.15414 0.0
H2820 H 0.46179 0.38033 0.13647 0.0
H2821 H 0.50109 0.41521 0.14118 0.0
H2822 H 0.47151 0.42856 0.13809 0.0
H2823 H 0.52331 0.44013 0.16674 0.0
H2824 H 0.53009 0.44722 0.14933 0.0
H2825 H 0.52303 0.42895 0.15222 0.0
H2826 H 0.47682 0.45109 0.14513 0.0
H2827 H 0.49491 0.46418 0.14691 0.0
H2828 H 0.48545 0.45506 0.16261 0.0
H2829 H 0.51665 0.47577 0.24153 0.0
H2830 H 0.54774 0.50565 0.20531 0.0
H2831 H 0.54994 0.50388 0.17959 0.0
H2832 H 0.52516 0.46881 0.14268 0.0
H2833 H 0.49405 0.43879 0.17906 0.0
H2834 H 0.4917 0.44071 0.20476 0.0
H2835 H 0.60956 0.53972 0.14405 0.0
H2836 H 0.59422 0.52843 0.15392 0.0
H2837 H 0.59789 0.54559 0.14963 0.0
C2838 C 0.442 0.96797 0.27812 0.0
C2839 C 0.4432 0.98135 0.27253 0.0
C2840 C 0.45336 0.98532 0.24878 0.0
C2841 C 0.46327 0.99944 0.24841 0.0
C2842 C 0.47505 0.00418 0.23976 0.0
C2843 C 0.477 0.99451 0.23154 0.0
C2844 C 0.46685 0.98023 0.23181 0.0
C2845 C 0.45499 0.97585 0.24025 0.0
C2846 C 0.4855 0.01949 0.23955 0.0
C2847 C 0.46869 0.96955 0.22351 0.0
C2848 C 0.55801 0.02345 0.28986 0.0
C2849 C 0.55574 0.01306 0.27766 0.0
C2850 C 0.5479 0.01616 0.25409 0.0
C2851 C 0.53873 0.00234 0.24994 0.0
C2852 C 0.52809 0.99902 0.23977 0.0
C2853 C 0.52656 0.00976 0.23378 0.0
C2854 C 0.53611 0.02375 0.23765 0.0
C2855 C 0.54684 0.02676 0.24757 0.0
C2856 C 0.51831 0.98403 0.23563 0.0
C2857 C 0.5347 0.03547 0.23169 0.0
C2858 C 0.55541 0.02325 0.14119 0.0
C2859 C 0.54674 0.00939 0.14504 0.0
C2860 C 0.53406 0.00519 0.15184 0.0
C2861 C 0.5301 0.01511 0.155 0.0
C2862 C 0.53866 0.02901 0.1507 0.0
C2863 C 0.55114 0.03284 0.14364 0.0
C2864 C 0.52494 0.99018 0.15574 0.0
C2865 C 0.53473 0.03984 0.15376 0.0
C2866 C 0.42409 0.98797 0.14785 0.0
C2867 C 0.43544 0.99924 0.13866 0.0
C2868 C 0.45632 0.99759 0.13958 0.0
C2869 C 0.45934 0.98696 0.14062 0.0
C2870 C 0.47151 0.98926 0.14755 0.0
C2871 C 0.48096 0.0026 0.1533 0.0
C2872 C 0.47835 0.0136 0.15147 0.0
C2873 C 0.46605 0.01099 0.14458 0.0
C2874 C 0.47407 0.97735 0.14917 0.0
C2875 C 0.4884 0.02803 0.15713 0.0
C2876 C 0.48998 0.99922 0.22337 0.0
C2877 C 0.50183 0.00211 0.23129 0.0
C2878 C 0.5144 0.00633 0.22441 0.0
C2879 C 0.5152 0.00747 0.20911 0.0
C2880 C 0.52758 0.01132 0.20179 0.0
C2881 C 0.52829 0.01257 0.18674 0.0
C2882 C 0.5166 0.00989 0.17841 0.0
C2883 C 0.51719 0.01105 0.16309 0.0
C2884 C 0.50541 0.0085 0.15519 0.0
C2885 C 0.493 0.00481 0.16219 0.0
C2886 C 0.49218 0.00344 0.17747 0.0
C2887 C 0.47981 0.99966 0.18482 0.0
C2888 C 0.47908 0.99835 0.19985 0.0
C2889 C 0.49067 0.0007 0.20811 0.0
C2890 C 0.50329 0.0047 0.20095 0.0
C2891 C 0.50402 0.00599 0.18559 0.0
C2892 C 0.58742 0.03696 0.15075 0.0
C2893 C 0.57797 0.02517 0.14021 0.0
O2894 O 0.44223 0.98067 0.25748 0.0
O2895 O 0.44404 0.99462 0.13351 0.0
O2896 O 0.5678 0.02756 0.13484 0.0
O2897 O 0.55782 0.01955 0.26442 0.0
H2898 H 0.45344 0.9902 0.27613 0.0
H2899 H 0.45045 0.96667 0.27362 0.0
H2900 H 0.43192 0.95886 0.27474 0.0
H2901 H 0.4429 0.96836 0.29017 0.0
H2902 H 0.46177 0.0067 0.25493 0.0
H2903 H 0.44718 0.96496 0.24063 0.0
H2904 H 0.49504 0.02154 0.24543 0.0
H2905 H 0.48154 0.02578 0.24481 0.0
H2906 H 0.48837 0.02294 0.22819 0.0
H2907 H 0.4606 0.95879 0.22613 0.0
H2908 H 0.479 0.97089 0.22598 0.0
H2909 H 0.46818 0.97098 0.21166 0.0
H2910 H 0.54488 0.00431 0.2785 0.0
H2911 H 0.55621 0.01846 0.30062 0.0
H2912 H 0.55064 0.02723 0.2885 0.0
H2913 H 0.56872 0.03248 0.28963 0.0
H2914 H 0.53988 0.99417 0.25468 0.0
H2915 H 0.55413 0.03741 0.25076 0.0
H2916 H 0.51696 0.98279 0.22363 0.0
H2917 H 0.50801 0.98063 0.24037 0.0
H2918 H 0.52202 0.97714 0.23962 0.0
H2919 H 0.54235 0.04566 0.23663 0.0
H2920 H 0.52413 0.0336 0.2337 0.0
H2921 H 0.5362 0.03598 0.21976 0.0
H2922 H 0.57326 0.01533 0.14632 0.0
H2923 H 0.5498 0.00184 0.14259 0.0
H2924 H 0.55783 0.04346 0.14038 0.0
H2925 H 0.52468 0.98923 0.16775 0.0
H2926 H 0.52867 0.9835 0.15102 0.0
H2927 H 0.51417 0.9863 0.15187 0.0
H2928 H 0.54299 0.05038 0.15067 0.0
H2929 H 0.53253 0.04 0.16549 0.0
H2930 H 0.52515 0.03719 0.14758 0.0
H2931 H 0.44121 0.00858 0.14581 0.0
H2932 H 0.41702 0.99144 0.152 0.0
H2933 H 0.42882 0.98577 0.15732 0.0
H2934 H 0.41798 0.97823 0.14136 0.0
H2935 H 0.45188 0.97673 0.13643 0.0
H2936 H 0.4641 0.01942 0.14308 0.0
H2937 H 0.47434 0.97523 0.16089 0.0
H2938 H 0.4843 0.98015 0.14461 0.0
H2939 H 0.46598 0.96773 0.14362 0.0
H2940 H 0.48535 0.03566 0.15394 0.0
H2941 H 0.49891 0.03146 0.15296 0.0
H2942 H 0.48898 0.02797 0.16918 0.0
H2943 H 0.50127 0.00111 0.24302 0.0
H2944 H 0.53687 0.01342 0.20763 0.0
H2945 H 0.53813 0.01567 0.18173 0.0
H2946 H 0.50593 0.00949 0.14346 0.0
H2947 H 0.47052 0.99764 0.17906 0.0
H2948 H 0.46931 0.99546 0.20492 0.0
H2949 H 0.59234 0.04707 0.14517 0.0
H2950 H 0.59562 0.03521 0.15519 0.0
H2951 H 0.58129 0.03742 0.15997 0.0
C2952 C 0.53792 0.98069 0.73347 0.0
C2953 C 0.54865 0.99294 0.74272 0.0
C2954 C 0.54031 0.9921 0.76698 0.0
C2955 C 0.54494 0.00584 0.77116 0.0
C2956 C 0.53726 0.00903 0.78083 0.0
C2957 C 0.52457 0.99821 0.78614 0.0
C2958 C 0.52001 0.98428 0.78205 0.0
C2959 C 0.52813 0.98139 0.7727 0.0
C2960 C 0.54256 0.02397 0.78512 0.0
C2961 C 0.50639 0.97249 0.78717 0.0
C2962 C 0.48068 0.03794 0.73544 0.0
C2963 C 0.46993 0.02642 0.7449 0.0
C2964 C 0.47863 0.02498 0.76866 0.0
C2965 C 0.4732 0.01066 0.76963 0.0
C2966 C 0.47944 0.00539 0.77876 0.0
C2967 C 0.49137 0.01467 0.787 0.0
C2968 C 0.49655 0.02911 0.78639 0.0
C2969 C 0.48994 0.03406 0.77738 0.0
C2970 C 0.47344 0.98992 0.77942 0.0
C2971 C 0.5093 0.03933 0.79494 0.0
C2972 C 0.4633 0.00773 0.8787 0.0
C2973 C 0.45905 0.99494 0.87172 0.0
C2974 C 0.46867 0.99241 0.86472 0.0
C2975 C 0.4828 0.00292 0.86467 0.0
C2976 C 0.48716 0.01562 0.87219 0.0
C2977 C 0.47733 0.01778 0.87928 0.0
C2978 C 0.46374 0.97859 0.85721 0.0
C2979 C 0.50214 0.027 0.87245 0.0
C2980 C 0.55214 0.96516 0.86914 0.0
C2981 C 0.55449 0.977 0.87949 0.0
C2982 C 0.53428 0.97959 0.8783 0.0
C2983 C 0.52039 0.9704 0.87489 0.0
C2984 C 0.51235 0.97495 0.86777 0.0
C2985 C 0.51834 0.98914 0.8644 0.0
C2986 C 0.53221 0.99862 0.86859 0.0
C2987 C 0.54008 0.99372 0.87543 0.0
C2988 C 0.49757 0.96457 0.86358 0.0
C2989 C 0.53877 0.0139 0.86568 0.0
C2990 C 0.51562 0.00154 0.79512 0.0
C2991 C 0.50791 0.00636 0.78794 0.0
C2992 C 0.49893 0.00935 0.79548 0.0
C2993 C 0.49738 0.00732 0.81064 0.0
C2994 C 0.48815 0.00987 0.81851 0.0
C2995 C 0.48671 0.00784 0.83343 0.0
C2996 C 0.4944 0.00312 0.84105 0.0
C2997 C 0.49287 0.00086 0.8562 0.0
C2998 C 0.50084 0.99641 0.86349 0.0
C2999 C 0.51026 0.99395 0.85602 0.0
C3000 C 0.51175 0.99592 0.84083 0.0
C3001 C 0.52094 0.99331 0.83291 0.0
C3002 C 0.52234 0.99528 0.81798 0.0
C3003 C 0.51449 0.99978 0.81034 0.0
C3004 C 0.50524 0.00257 0.8181 0.0
C3005 C 0.50381 0.00056 0.83334 0.0
C3006 C 0.44322 0.02108 0.87316 0.0
C3007 C 0.44156 0.00777 0.8795 0.0
O3008 O 0.54737 0.98907 0.75713 0.0
O3009 O 0.54183 0.97461 0.88452 0.0
O3010 O 0.45418 0.01055 0.88528 0.0
O3011 O 0.47314 0.03031 0.75942 0.0
H3012 H 0.5466 0.00165 0.7415 0.0
H3013 H 0.52735 0.97756 0.73724 0.0
H3014 H 0.53948 0.97168 0.73437 0.0
H3015 H 0.53869 0.98362 0.72187 0.0
H3016 H 0.55452 0.01404 0.76676 0.0
H3017 H 0.52473 0.97081 0.76936 0.0
H3018 H 0.53606 0.02756 0.77982 0.0
H3019 H 0.55346 0.03085 0.78184 0.0
H3020 H 0.54183 0.02499 0.79707 0.0
H3021 H 0.5037 0.96247 0.78179 0.0
H3022 H 0.49795 0.9747 0.78498 0.0
H3023 H 0.50691 0.97139 0.79908 0.0
H3024 H 0.4704 0.01691 0.74235 0.0
H3025 H 0.49112 0.03959 0.73795 0.0
H3026 H 0.48084 0.04782 0.73753 0.0
H3027 H 0.47835 0.03503 0.72373 0.0
H3028 H 0.4641 0.00361 0.76326 0.0
H3029 H 0.4939 0.0451 0.77667 0.0
H3030 H 0.47214 0.98663 0.79091 0.0
H3031 H 0.4807 0.98715 0.77433 0.0
H3032 H 0.46328 0.98406 0.77368 0.0
H3033 H 0.51236 0.05025 0.79276 0.0
H3034 H 0.51806 0.03778 0.7922 0.0
H3035 H 0.50737 0.03751 0.80675 0.0
H3036 H 0.43809 0.99992 0.8705 0.0
H3037 H 0.44826 0.98689 0.87186 0.0
H3038 H 0.48051 0.02751 0.88496 0.0
H3039 H 0.46494 0.98004 0.84528 0.0
H3040 H 0.45271 0.97104 0.85947 0.0
H3041 H 0.47015 0.97415 0.86074 0.0
H3042 H 0.50381 0.03639 0.87852 0.0
H3043 H 0.50582 0.02991 0.86115 0.0
H3044 H 0.50855 0.0232 0.87759 0.0
H3045 H 0.55977 0.98678 0.87328 0.0
H3046 H 0.56217 0.96691 0.86494 0.0
H3047 H 0.54563 0.96463 0.85973 0.0
H3048 H 0.54679 0.95508 0.87477 0.0
H3049 H 0.51598 0.95954 0.8774 0.0
H3050 H 0.55071 0.00091 0.87861 0.0
H3051 H 0.49596 0.96503 0.85173 0.0
H3052 H 0.4905 0.9672 0.86936 0.0
H3053 H 0.4947 0.9538 0.86629 0.0
H3054 H 0.54902 0.0201 0.87116 0.0
H3055 H 0.5319 0.01776 0.86943 0.0
H3056 H 0.54015 0.01559 0.8538 0.0
H3057 H 0.5089 0.00777 0.77627 0.0
H3058 H 0.48192 0.01344 0.8132 0.0
H3059 H 0.47947 0.01001 0.8389 0.0
H3060 H 0.49965 0.99475 0.87511 0.0
H3061 H 0.52716 0.98971 0.83817 0.0
H3062 H 0.52962 0.99319 0.81247 0.0
H3063 H 0.44657 0.02928 0.88174 0.0
H3064 H 0.43329 0.01911 0.86826 0.0
H3065 H 0.45113 0.02487 0.86451 0.0
C3066 C 0.00362 0.54188 0.73215 0.0
C3067 C 0.99607 0.54549 0.74368 0.0
C3068 C 0.00139 0.53956 0.76721 0.0
C3069 C 0.98812 0.52981 0.77196 0.0
C3070 C 0.98629 0.51982 0.78214 0.0
C3071 C 0.99799 0.51966 0.78772 0.0
C3072 C 0.01142 0.52991 0.78346 0.0
C3073 C 0.01294 0.53986 0.77337 0.0
C3074 C 0.97187 0.50925 0.78672 0.0
C3075 C 0.02412 0.53009 0.78923 0.0
C3076 C 0.00066 0.42553 0.75856 0.0
C3077 C 0.00322 0.43742 0.76817 0.0
C3078 C 0.99273 0.45094 0.77576 0.0
C3079 C 0.00504 0.46192 0.78182 0.0
C3080 C 0.00518 0.47315 0.7889 0.0
C3081 C 0.99272 0.47335 0.79022 0.0
C3082 C 0.98033 0.46242 0.78405 0.0
C3083 C 0.98052 0.45137 0.77681 0.0
C3084 C 0.01869 0.48479 0.79504 0.0
C3085 C 0.96689 0.46235 0.78528 0.0
C3086 C 0.99905 0.45672 0.88145 0.0
C3087 C 0.01103 0.46724 0.87495 0.0
C3088 C 0.01098 0.47842 0.86832 0.0
C3089 C 0.99872 0.4791 0.86819 0.0
C3090 C 0.98687 0.46892 0.8754 0.0
C3091 C 0.98724 0.4579 0.88207 0.0
C3092 C 0.02396 0.48932 0.86109 0.0
C3093 C 0.97368 0.46941 0.87557 0.0
C3094 C 0.02553 0.5833 0.86778 0.0
C3095 C 0.01559 0.57484 0.87985 0.0
C3096 C 0.01464 0.55267 0.8793 0.0
C3097 C 0.02436 0.54872 0.87628 0.0
C3098 C 0.02036 0.53585 0.86963 0.0
C3099 C 0.0062 0.52657 0.86635 0.0
C3100 C 0.99623 0.53023 0.87014 0.0
C3101 C 0.00057 0.54331 0.87651 0.0
C3102 C 0.03129 0.53227 0.86594 0.0
C3103 C 0.98101 0.5204 0.8673 0.0
C3104 C 0.99611 0.50819 0.79712 0.0
C3105 C 0.99407 0.49607 0.79022 0.0
C3106 C 0.99279 0.48499 0.79823 0.0
C3107 C 0.99319 0.4858 0.81359 0.0
C3108 C 0.99157 0.47469 0.82196 0.0
C3109 C 0.99286 0.47588 0.83701 0.0
C3110 C 0.99586 0.48826 0.84429 0.0
C3111 C 0.99808 0.48985 0.85951 0.0
C3112 C 0.00096 0.50225 0.86644 0.0
C3113 C 0.00196 0.51329 0.8585 0.0
C3114 C 0.99994 0.51194 0.84322 0.0
C3115 C 0.00113 0.5229 0.83483 0.0
C3116 C 0.99957 0.5216 0.81976 0.0
C3117 C 0.99701 0.50939 0.81247 0.0
C3118 C 0.99556 0.49814 0.82072 0.0
C3119 C 0.99695 0.49939 0.83611 0.0
C3120 C 0.99524 0.42857 0.8689 0.0
C3121 C 0.00444 0.43811 0.8813 0.0
O3122 O 0.00336 0.5488 0.75675 0.0
O3123 O 0.01912 0.56548 0.8851 0.0
O3124 O 0.99855 0.44537 0.88725 0.0
O3125 O 0.99228 0.43987 0.76886 0.0
H3126 H 0.98562 0.53618 0.74474 0.0
H3127 H 0.00392 0.53253 0.73543 0.0
H3128 H 0.01442 0.55052 0.73089 0.0
H3129 H 0.9981 0.53962 0.7215 0.0
H3130 H 0.97918 0.52998 0.76774 0.0
H3131 H 0.02314 0.54761 0.76981 0.0
H3132 H 0.96937 0.49879 0.78279 0.0
H3133 H 0.96395 0.51146 0.78236 0.0
H3134 H 0.97128 0.50898 0.79877 0.0
H3135 H 0.03383 0.53878 0.78488 0.0
H3136 H 0.0236 0.52018 0.7863 0.0
H3137 H 0.02449 0.53101 0.80128 0.0
H3138 H 0.00761 0.43758 0.77913 0.0
H3139 H 0.01512 0.43485 0.74203 0.0
H3140 H 0.98916 0.41935 0.7564 0.0
H3141 H 0.00073 0.4177 0.76606 0.0
H3142 H 0.01462 0.46184 0.78105 0.0
H3143 H 0.97108 0.44292 0.77208 0.0
H3144 H 0.01834 0.48467 0.8071 0.0
H3145 H 0.02032 0.49496 0.79155 0.0
H3146 H 0.02769 0.48389 0.79159 0.0
H3147 H 0.95802 0.45278 0.78048 0.0
H3148 H 0.96776 0.47145 0.77963 0.0
H3149 H 0.96473 0.46327 0.79689 0.0
H3150 H 0.01473 0.44532 0.87672 0.0
H3151 H 0.02047 0.46687 0.87506 0.0
H3152 H 0.97813 0.44987 0.88736 0.0
H3153 H 0.0223 0.48852 0.84913 0.0
H3154 H 0.03303 0.48818 0.86356 0.0
H3155 H 0.02634 0.49983 0.86465 0.0
H3156 H 0.96544 0.46087 0.88191 0.0
H3157 H 0.96986 0.46871 0.86425 0.0
H3158 H 0.97574 0.47947 0.88032 0.0
H3159 H 0.00495 0.5693 0.87509 0.0
H3160 H 0.0229 0.59095 0.86355 0.0
H3161 H 0.02469 0.57631 0.85864 0.0
H3162 H 0.03639 0.58889 0.87188 0.0
H3163 H 0.03517 0.55596 0.87875 0.0
H3164 H 0.99297 0.54614 0.87943 0.0
H3165 H 0.03027 0.52891 0.85435 0.0
H3166 H 0.02982 0.52349 0.87268 0.0
H3167 H 0.04193 0.54113 0.86792 0.0
H3168 H 0.97447 0.52412 0.87237 0.0
H3169 H 0.97792 0.51 0.87155 0.0
H3170 H 0.97894 0.51921 0.85541 0.0
H3171 H 0.99391 0.49542 0.77843 0.0
H3172 H 0.98942 0.46497 0.81694 0.0
H3173 H 0.99164 0.46701 0.84286 0.0
H3174 H 0.00289 0.50348 0.87809 0.0
H3175 H 0.00337 0.53266 0.8398 0.0
H3176 H 0.00063 0.53039 0.81386 0.0
H3177 H 0.99971 0.42248 0.86429 0.0
H3178 H 0.99451 0.43485 0.86008 0.0
H3179 H 0.98463 0.42132 0.8728 0.0
C3180 C 0.52238 0.56721 0.73581 0.0
C3181 C 0.53245 0.57484 0.74852 0.0
C3182 C 0.52051 0.55846 0.76823 0.0
C3183 C 0.51003 0.56169 0.77034 0.0
C3184 C 0.49883 0.55367 0.77943 0.0
C3185 C 0.49802 0.54214 0.78647 0.0
C3186 C 0.50871 0.53906 0.78467 0.0
C3187 C 0.51989 0.54737 0.77568 0.0
C3188 C 0.48768 0.55734 0.78128 0.0
C3189 C 0.50812 0.52677 0.79191 0.0
C3190 C 0.41916 0.48124 0.72797 0.0
C3191 C 0.42366 0.47503 0.74002 0.0
C3192 C 0.42971 0.48593 0.764 0.0
C3193 C 0.44009 0.48313 0.76809 0.0
C3194 C 0.45025 0.49157 0.77842 0.0
C3195 C 0.45008 0.50315 0.78461 0.0
C3196 C 0.43932 0.50569 0.78083 0.0
C3197 C 0.42909 0.49683 0.77076 0.0
C3198 C 0.46136 0.48834 0.78243 0.0
C3199 C 0.43892 0.51806 0.78697 0.0
C3200 C 0.42131 0.4877 0.87667 0.0
C3201 C 0.43086 0.48361 0.87301 0.0
C3202 C 0.44346 0.49292 0.86649 0.0
C3203 C 0.44642 0.50651 0.86343 0.0
C3204 C 0.43701 0.51079 0.86765 0.0
C3205 C 0.42464 0.50135 0.87442 0.0
C3206 C 0.4535 0.48817 0.8627 0.0
C3207 C 0.43987 0.52523 0.86472 0.0
C3208 C 0.53868 0.59966 0.8753 0.0
C3209 C 0.53313 0.59171 0.88946 0.0
C3210 C 0.51732 0.56788 0.88032 0.0
C3211 C 0.51592 0.55484 0.87819 0.0
C3212 C 0.50451 0.54419 0.8706 0.0
C3213 C 0.4942 0.54667 0.86503 0.0
C3214 C 0.49534 0.55972 0.86745 0.0
C3215 C 0.50687 0.5702 0.87507 0.0
C3216 C 0.50359 0.53038 0.86825 0.0
C3217 C 0.48446 0.56266 0.86173 0.0
C3218 C 0.4855 0.53271 0.79482 0.0
C3219 C 0.47401 0.52265 0.78697 0.0
C3220 C 0.46184 0.51327 0.79393 0.0
C3221 C 0.46107 0.5138 0.80925 0.0
C3222 C 0.44907 0.50439 0.81665 0.0
C3223 C 0.44835 0.50517 0.8317 0.0
C3224 C 0.45968 0.51525 0.83998 0.0
C3225 C 0.45907 0.51608 0.85531 0.0
C3226 C 0.4705 0.52632 0.86316 0.0
C3227 C 0.48257 0.53585 0.85611 0.0
C3228 C 0.48341 0.53513 0.84081 0.0
C3229 C 0.49542 0.54453 0.83338 0.0
C3230 C 0.49614 0.54378 0.81832 0.0
C3231 C 0.48487 0.53359 0.81011 0.0
C3232 C 0.47262 0.52405 0.81735 0.0
C3233 C 0.47191 0.52479 0.83273 0.0
C3234 C 0.38678 0.46354 0.87192 0.0
C3235 C 0.40024 0.46512 0.87796 0.0
O3236 O 0.53124 0.56554 0.75903 0.0
O3237 O 0.52894 0.57783 0.8873 0.0
O3238 O 0.40886 0.47877 0.88249 0.0
O3239 O 0.42036 0.47843 0.75337 0.0
H3240 H 0.53015 0.5826 0.75339 0.0
H3241 H 0.51152 0.562 0.73955 0.0
H3242 H 0.52436 0.55923 0.73097 0.0
H3243 H 0.52356 0.57465 0.72728 0.0
H3244 H 0.51038 0.57033 0.76485 0.0
H3245 H 0.52805 0.545 0.77408 0.0
H3246 H 0.47796 0.54917 0.77601 0.0
H3247 H 0.49054 0.56745 0.7764 0.0
H3248 H 0.48557 0.55775 0.79301 0.0
H3249 H 0.51711 0.5256 0.78914 0.0
H3250 H 0.49847 0.51714 0.78858 0.0
H3251 H 0.50788 0.52793 0.80389 0.0
H3252 H 0.43507 0.4797 0.73907 0.0
H3253 H 0.42179 0.47876 0.71714 0.0
H3254 H 0.42462 0.49269 0.72938 0.0
H3255 H 0.40783 0.47715 0.72834 0.0
H3256 H 0.4403 0.47441 0.7631 0.0
H3257 H 0.42091 0.49877 0.7676 0.0
H3258 H 0.46293 0.48901 0.79441 0.0
H3259 H 0.47128 0.49611 0.77752 0.0
H3260 H 0.45881 0.47787 0.77851 0.0
H3261 H 0.43047 0.51917 0.78204 0.0
H3262 H 0.44893 0.5277 0.7851 0.0
H3263 H 0.43736 0.51701 0.79889 0.0
H3264 H 0.40498 0.4623 0.86891 0.0
H3265 H 0.42851 0.47317 0.87529 0.0
H3266 H 0.41728 0.50445 0.87755 0.0
H3267 H 0.45385 0.48719 0.8507 0.0
H3268 H 0.45054 0.478 0.8675 0.0
H3269 H 0.46408 0.49595 0.86656 0.0
H3270 H 0.43107 0.52663 0.86777 0.0
H3271 H 0.44207 0.52756 0.85301 0.0
H3272 H 0.44918 0.53287 0.871 0.0
H3273 H 0.52423 0.59267 0.89322 0.0
H3274 H 0.54228 0.61082 0.87715 0.0
H3275 H 0.53047 0.59559 0.86677 0.0
H3276 H 0.54745 0.59863 0.87123 0.0
H3277 H 0.52396 0.5531 0.88233 0.0
H3278 H 0.50767 0.58016 0.8767 0.0
H3279 H 0.50366 0.52831 0.85642 0.0
H3280 H 0.49368 0.52199 0.87258 0.0
H3281 H 0.51227 0.52998 0.87359 0.0
H3282 H 0.48655 0.57315 0.86499 0.0
H3283 H 0.47414 0.55483 0.8658 0.0
H3284 H 0.48402 0.56181 0.84968 0.0
H3285 H 0.47454 0.52214 0.77521 0.0
H3286 H 0.44008 0.49636 0.81086 0.0
H3287 H 0.43878 0.49773 0.83677 0.0
H3288 H 0.46994 0.52695 0.87489 0.0
H3289 H 0.50443 0.55259 0.83912 0.0
H3290 H 0.50563 0.55129 0.81319 0.0
H3291 H 0.37971 0.45269 0.86812 0.0
H3292 H 0.38906 0.47048 0.86253 0.0
H3293 H 0.3815 0.46634 0.88035 0.0
C3294 C 0.6163 0.76089 0.61471 0.0
C3295 C 0.62097 0.75607 0.60133 0.0
C3296 C 0.62638 0.77477 0.58412 0.0
C3297 C 0.61262 0.77121 0.58119 0.0
C3298 C 0.60967 0.77956 0.5724 0.0
C3299 C 0.62067 0.79167 0.56637 0.0
C3300 C 0.63449 0.79514 0.56904 0.0
C3301 C 0.63715 0.7866 0.57786 0.0
C3302 C 0.59481 0.77555 0.56968 0.0
C3303 C 0.64645 0.80797 0.56274 0.0
C3304 C 0.60478 0.85473 0.62216 0.0
C3305 C 0.61586 0.86067 0.61045 0.0
C3306 C 0.61077 0.84951 0.58665 0.0
C3307 C 0.62379 0.85175 0.58269 0.0
C3308 C 0.62497 0.84275 0.5728 0.0
C3309 C 0.61284 0.83116 0.56696 0.0
C3310 C 0.5997 0.82913 0.57066 0.0
C3311 C 0.59886 0.83854 0.58025 0.0
C3312 C 0.63917 0.84544 0.5689 0.0
C3313 C 0.58652 0.81675 0.56494 0.0
C3314 C 0.59713 0.84363 0.47511 0.0
C3315 C 0.61102 0.84772 0.47789 0.0
C3316 C 0.61452 0.83862 0.4844 0.0
C3317 C 0.60389 0.82523 0.4883 0.0
C3318 C 0.58994 0.82089 0.48488 0.0
C3319 C 0.58677 0.83012 0.47814 0.0
C3320 C 0.62953 0.84339 0.48741 0.0
C3321 C 0.57836 0.80663 0.48872 0.0
C3322 C 0.60195 0.73212 0.47641 0.0
C3323 C 0.60536 0.74091 0.46274 0.0
C3324 C 0.61376 0.76445 0.4728 0.0
C3325 C 0.62555 0.77743 0.47528 0.0
C3326 C 0.62479 0.78806 0.48274 0.0
C3327 C 0.61188 0.78559 0.48787 0.0
C3328 C 0.59984 0.77256 0.48519 0.0
C3329 C 0.60088 0.76213 0.47766 0.0
C3330 C 0.63781 0.80185 0.48534 0.0
C3331 C 0.58591 0.76961 0.49052 0.0
C3332 C 0.61772 0.80101 0.55777 0.0
C3333 C 0.61656 0.81129 0.5653 0.0
C3334 C 0.61392 0.82059 0.55801 0.0
C3335 C 0.61238 0.81964 0.54269 0.0
C3336 C 0.60985 0.82888 0.53495 0.0
C3337 C 0.60808 0.82768 0.51991 0.0
C3338 C 0.60903 0.81734 0.51198 0.0
C3339 C 0.60725 0.81605 0.49668 0.0
C3340 C 0.60832 0.80569 0.48914 0.0
C3341 C 0.61104 0.79646 0.4965 0.0
C3342 C 0.61276 0.79754 0.5118 0.0
C3343 C 0.61542 0.78837 0.51954 0.0
C3344 C 0.61706 0.78949 0.53459 0.0
C3345 C 0.6161 0.79981 0.54248 0.0
C3346 C 0.61342 0.80917 0.53492 0.0
C3347 C 0.61176 0.80804 0.51955 0.0
C3348 C 0.58871 0.8697 0.47826 0.0
C3349 C 0.59965 0.86649 0.47276 0.0
O3350 O 0.6298 0.7673 0.59299 0.0
O3351 O 0.61539 0.75455 0.46586 0.0
O3352 O 0.59337 0.85242 0.46955 0.0
O3353 O 0.60946 0.85761 0.59687 0.0
H3354 H 0.61175 0.7487 0.5947 0.0
H3355 H 0.61037 0.76591 0.61141 0.0
H3356 H 0.62537 0.76849 0.62136 0.0
H3357 H 0.60948 0.7519 0.62154 0.0
H3358 H 0.60411 0.76203 0.5858 0.0
H3359 H 0.64772 0.78925 0.58009 0.0
H3360 H 0.59298 0.78371 0.57425 0.0
H3361 H 0.5874 0.7655 0.57465 0.0
H3362 H 0.59268 0.77479 0.5578 0.0
H3363 H 0.65661 0.80915 0.56571 0.0
H3364 H 0.64624 0.81728 0.56669 0.0
H3365 H 0.64544 0.80756 0.55071 0.0
H3366 H 0.62211 0.85554 0.6117 0.0
H3367 H 0.60967 0.85705 0.63315 0.0
H3368 H 0.59838 0.84329 0.6207 0.0
H3369 H 0.59788 0.85914 0.62142 0.0
H3370 H 0.633 0.86048 0.58745 0.0
H3371 H 0.58887 0.83701 0.58334 0.0
H3372 H 0.63984 0.84419 0.55698 0.0
H3373 H 0.64107 0.83777 0.57434 0.0
H3374 H 0.64744 0.856 0.57235 0.0
H3375 H 0.57716 0.816 0.56993 0.0
H3376 H 0.58661 0.80705 0.56708 0.0
H3377 H 0.58577 0.81749 0.55299 0.0
H3378 H 0.60737 0.86947 0.48178 0.0
H3379 H 0.61912 0.85801 0.47499 0.0
H3380 H 0.57611 0.82701 0.4757 0.0
H3381 H 0.6315 0.84459 0.49933 0.0
H3382 H 0.6366 0.85345 0.48227 0.0
H3383 H 0.63199 0.8355 0.48336 0.0
H3384 H 0.56802 0.80502 0.48576 0.0
H3385 H 0.57865 0.80502 0.50057 0.0
H3386 H 0.57977 0.79867 0.48295 0.0
H3387 H 0.59581 0.74048 0.45862 0.0
H3388 H 0.59415 0.72114 0.47378 0.0
H3389 H 0.5976 0.73589 0.48492 0.0
H3390 H 0.6114 0.73262 0.48095 0.0
H3391 H 0.63542 0.77917 0.47147 0.0
H3392 H 0.5916 0.75221 0.47578 0.0
H3393 H 0.63985 0.80381 0.49721 0.0
H3394 H 0.63645 0.81029 0.48098 0.0
H3395 H 0.64697 0.80231 0.48019 0.0
H3396 H 0.57749 0.75899 0.48747 0.0
H3397 H 0.58342 0.77722 0.48592 0.0
H3398 H 0.58624 0.77083 0.50254 0.0
H3399 H 0.61773 0.81206 0.57706 0.0
H3400 H 0.60913 0.8371 0.54045 0.0
H3401 H 0.60599 0.835 0.51458 0.0
H3402 H 0.60693 0.80474 0.47742 0.0
H3403 H 0.61625 0.78021 0.51406 0.0
H3404 H 0.61907 0.78214 0.53997 0.0
H3405 H 0.5935 0.88093 0.48094 0.0
H3406 H 0.58395 0.86378 0.48827 0.0
H3407 H 0.58041 0.86675 0.46995 0.0
C3408 C 0.14338 0.75387 0.6298 0.0
C3409 C 0.13585 0.75685 0.61775 0.0
C3410 C 0.14717 0.76249 0.59442 0.0
C3411 C 0.14488 0.77305 0.58985 0.0
C3412 C 0.15407 0.78323 0.58036 0.0
C3413 C 0.16587 0.78289 0.5755 0.0
C3414 C 0.16787 0.77189 0.57965 0.0
C3415 C 0.15833 0.76167 0.58891 0.0
C3416 C 0.15139 0.79457 0.57586 0.0
C3417 C 0.18034 0.77122 0.57473 0.0
C3418 C 0.25542 0.88548 0.60879 0.0
C3419 C 0.2481 0.87094 0.60308 0.0
C3420 C 0.22505 0.85358 0.59418 0.0
C3421 C 0.22897 0.84435 0.58853 0.0
C3422 C 0.21963 0.83265 0.58023 0.0
C3423 C 0.2062 0.83031 0.57726 0.0
C3424 C 0.20221 0.83953 0.58303 0.0
C3425 C 0.21167 0.85098 0.59155 0.0
C3426 C 0.22412 0.82282 0.5746 0.0
C3427 C 0.18798 0.83735 0.58015 0.0
C3428 C 0.22943 0.85345 0.4831 0.0
C3429 C 0.23232 0.84324 0.48772 0.0
C3430 C 0.22247 0.83167 0.49536 0.0
C3431 C 0.20947 0.83026 0.49844 0.0
C3432 C 0.20653 0.84052 0.49383 0.0
C3433 C 0.21658 0.85199 0.48623 0.0
C3434 C 0.22595 0.82096 0.50018 0.0
C3435 C 0.1928 0.83936 0.49698 0.0
C3436 C 0.12858 0.72181 0.48223 0.0
C3437 C 0.13048 0.73573 0.47761 0.0
C3438 C 0.15275 0.75695 0.48129 0.0
C3439 C 0.16644 0.76062 0.48415 0.0
C3440 C 0.17542 0.77284 0.49195 0.0
C3441 C 0.17063 0.78177 0.49662 0.0
C3442 C 0.157 0.77849 0.49301 0.0
C3443 C 0.14816 0.76605 0.48544 0.0
C3444 C 0.18993 0.77606 0.49543 0.0
C3445 C 0.15173 0.78802 0.49732 0.0
C3446 C 0.17664 0.79467 0.56717 0.0
C3447 C 0.18623 0.80646 0.57507 0.0
C3448 C 0.19636 0.81822 0.56809 0.0
C3449 C 0.19698 0.81834 0.55274 0.0
C3450 C 0.20681 0.83013 0.54534 0.0
C3451 C 0.20747 0.8301 0.53025 0.0
C3452 C 0.1983 0.81828 0.52194 0.0
C3453 C 0.19898 0.81811 0.50659 0.0
C3454 C 0.18973 0.80616 0.49867 0.0
C3455 C 0.17976 0.79428 0.50566 0.0
C3456 C 0.17886 0.79428 0.52101 0.0
C3457 C 0.16891 0.78255 0.52842 0.0
C3458 C 0.16805 0.78269 0.54352 0.0
C3459 C 0.17731 0.79446 0.55181 0.0
C3460 C 0.1875 0.80637 0.54458 0.0
C3461 C 0.1882 0.80632 0.52917 0.0
C3462 C 0.25821 0.87917 0.46059 0.0
C3463 C 0.25158 0.86756 0.471 0.0
O3464 O 0.13892 0.75319 0.6044 0.0
O3465 O 0.1443 0.74462 0.47447 0.0
O3466 O 0.23866 0.86476 0.4756 0.0
O3467 O 0.23387 0.86513 0.60207 0.0
H3468 H 0.13976 0.7682 0.61838 0.0
H3469 H 0.15473 0.76017 0.6282 0.0
H3470 H 0.14032 0.74274 0.62965 0.0
H3471 H 0.14098 0.75664 0.64061 0.0
H3472 H 0.13598 0.77339 0.59385 0.0
H3473 H 0.15988 0.75335 0.59241 0.0
H3474 H 0.15909 0.80446 0.58128 0.0
H3475 H 0.14087 0.79231 0.57887 0.0
H3476 H 0.1526 0.79606 0.56394 0.0
H3477 H 0.18048 0.76208 0.57907 0.0
H3478 H 0.18994 0.78077 0.57836 0.0
H3479 H 0.18045 0.77073 0.56268 0.0
H3480 H 0.25124 0.86398 0.60822 0.0
H3481 H 0.26025 0.8851 0.6194 0.0
H3482 H 0.24736 0.88723 0.61406 0.0
H3483 H 0.26718 0.89701 0.59115 0.0
H3484 H 0.23927 0.84616 0.59063 0.0
H3485 H 0.20873 0.85812 0.596 0.0
H3486 H 0.21628 0.81198 0.57724 0.0
H3487 H 0.23428 0.82522 0.57923 0.0
H3488 H 0.22495 0.82347 0.56259 0.0
H3489 H 0.18705 0.8463 0.58395 0.0
H3490 H 0.18021 0.82797 0.58588 0.0
H3491 H 0.18545 0.83557 0.56834 0.0
H3492 H 0.25839 0.86802 0.48012 0.0
H3493 H 0.24223 0.84421 0.48542 0.0
H3494 H 0.21442 0.85989 0.48265 0.0
H3495 H 0.22506 0.81995 0.51218 0.0
H3496 H 0.23656 0.8236 0.49706 0.0
H3497 H 0.21844 0.81071 0.49527 0.0
H3498 H 0.19205 0.84813 0.49252 0.0
H3499 H 0.19125 0.83908 0.50892 0.0
H3500 H 0.18429 0.8295 0.49224 0.0
H3501 H 0.12726 0.73978 0.48702 0.0
H3502 H 0.11758 0.71449 0.48484 0.0
H3503 H 0.13498 0.72333 0.4921 0.0
H3504 H 0.13184 0.71718 0.47347 0.0
H3505 H 0.16993 0.75362 0.48066 0.0
H3506 H 0.13771 0.76348 0.48271 0.0
H3507 H 0.19198 0.77788 0.50731 0.0
H3508 H 0.19746 0.78571 0.48992 0.0
H3509 H 0.19174 0.76759 0.49188 0.0
H3510 H 0.1415 0.78482 0.49227 0.0
H3511 H 0.15923 0.7988 0.49413 0.0
H3512 H 0.1507 0.78805 0.50932 0.0
H3513 H 0.18575 0.80651 0.58685 0.0
H3514 H 0.21413 0.83954 0.55115 0.0
H3515 H 0.2153 0.83946 0.52517 0.0
H3516 H 0.19038 0.80606 0.48691 0.0
H3517 H 0.16162 0.77312 0.52264 0.0
H3518 H 0.16011 0.77341 0.54862 0.0
H3519 H 0.26774 0.88744 0.46644 0.0
H3520 H 0.25247 0.885 0.4614 0.0
H3521 H 0.25912 0.86951 0.44132 0.0
C3522 C 0.14931 0.37715 0.62292 0.0
C3523 C 0.14011 0.37705 0.61048 0.0
C3524 C 0.15227 0.37396 0.58982 0.0
C3525 C 0.16326 0.38775 0.58923 0.0
C3526 C 0.17479 0.39128 0.58048 0.0
C3527 C 0.17544 0.38081 0.57232 0.0
C3528 C 0.16433 0.36696 0.5728 0.0
C3529 C 0.1528 0.36378 0.58136 0.0
C3530 C 0.18635 0.40619 0.58009 0.0
C3531 C 0.16476 0.35545 0.5645 0.0
C3532 C 0.25577 0.3997 0.62835 0.0
C3533 C 0.24973 0.38812 0.61677 0.0
C3534 C 0.24375 0.39242 0.59291 0.0
C3535 C 0.23288 0.37928 0.58875 0.0
C3536 C 0.22266 0.37785 0.57884 0.0
C3537 C 0.22324 0.38985 0.57324 0.0
C3538 C 0.23443 0.40313 0.57721 0.0
C3539 C 0.24474 0.40421 0.58677 0.0
C3540 C 0.21109 0.36351 0.57464 0.0
C3541 C 0.23525 0.4162 0.5718 0.0
C3542 C 0.2506 0.40343 0.47928 0.0
C3543 C 0.24136 0.38983 0.48353 0.0
C3544 C 0.22923 0.38666 0.49101 0.0
C3545 C 0.22649 0.3974 0.49455 0.0
C3546 C 0.23568 0.41106 0.48996 0.0
C3547 C 0.24752 0.41385 0.48216 0.0
C3548 C 0.21937 0.37186 0.49514 0.0
C3549 C 0.23307 0.42276 0.49341 0.0
C3550 C 0.13199 0.39288 0.48492 0.0
C3551 C 0.13832 0.39197 0.4705 0.0
C3552 C 0.15528 0.38555 0.4788 0.0
C3553 C 0.15746 0.3744 0.48024 0.0
C3554 C 0.16901 0.37585 0.48782 0.0
C3555 C 0.17871 0.38889 0.494 0.0
C3556 C 0.17682 0.40036 0.49226 0.0
C3557 C 0.16508 0.39858 0.48473 0.0
C3558 C 0.17071 0.36341 0.48946 0.0
C3559 C 0.18709 0.41445 0.49857 0.0
C3560 C 0.188 0.38425 0.56385 0.0
C3561 C 0.19947 0.38564 0.57143 0.0
C3562 C 0.21158 0.38851 0.56424 0.0
C3563 C 0.21231 0.39 0.54897 0.0
C3564 C 0.22422 0.39267 0.54133 0.0
C3565 C 0.22489 0.39428 0.52632 0.0
C3566 C 0.21355 0.39298 0.51832 0.0
C3567 C 0.21403 0.39437 0.50302 0.0
C3568 C 0.20256 0.39303 0.49545 0.0
C3569 C 0.19057 0.39037 0.50273 0.0
C3570 C 0.18989 0.38895 0.518 0.0
C3571 C 0.17797 0.38627 0.52566 0.0
C3572 C 0.17737 0.38485 0.54067 0.0
C3573 C 0.18861 0.38592 0.54861 0.0
C3574 C 0.20079 0.38873 0.54114 0.0
C3575 C 0.20141 0.39023 0.52581 0.0
C3576 C 0.28529 0.41525 0.48103 0.0
C3577 C 0.27168 0.40254 0.47607 0.0
O3578 O 0.14108 0.36998 0.59844 0.0
O3579 O 0.14358 0.38317 0.47174 0.0
O3580 O 0.26244 0.40676 0.47218 0.0
O3581 O 0.25318 0.39396 0.60313 0.0
H3582 H 0.14339 0.38788 0.60754 0.0
H3583 H 0.16032 0.38254 0.61964 0.0
H3584 H 0.14619 0.36637 0.62593 0.0
H3585 H 0.14851 0.38271 0.63263 0.0
H3586 H 0.16298 0.39582 0.59554 0.0
H3587 H 0.14426 0.3532 0.58184 0.0
H3588 H 0.19569 0.40722 0.58554 0.0
H3589 H 0.18359 0.41333 0.58563 0.0
H3590 H 0.18909 0.40946 0.56865 0.0
H3591 H 0.15587 0.34508 0.56705 0.0
H3592 H 0.17451 0.35558 0.56706 0.0
H3593 H 0.16458 0.35708 0.55265 0.0
H3594 H 0.23828 0.38242 0.61814 0.0
H3595 H 0.25307 0.39527 0.6394 0.0
H3596 H 0.25144 0.4066 0.62686 0.0
H3597 H 0.26721 0.40602 0.62751 0.0
H3598 H 0.23235 0.37017 0.59336 0.0
H3599 H 0.25326 0.41431 0.59004 0.0
H3600 H 0.20921 0.36266 0.56271 0.0
H3601 H 0.20142 0.36156 0.58001 0.0
H3602 H 0.21334 0.35534 0.57796 0.0
H3603 H 0.24381 0.42567 0.57711 0.0
H3604 H 0.22536 0.41593 0.57381 0.0
H3605 H 0.23694 0.41692 0.55989 0.0
H3606 H 0.26774 0.39541 0.48545 0.0
H3607 H 0.24354 0.38168 0.48082 0.0
H3608 H 0.25465 0.42427 0.47862 0.0
H3609 H 0.21962 0.37093 0.50711 0.0
H3610 H 0.22206 0.36452 0.48998 0.0
H3611 H 0.20863 0.3688 0.49191 0.0
H3612 H 0.24187 0.433 0.49029 0.0
H3613 H 0.2312 0.42306 0.50522 0.0
H3614 H 0.22365 0.42098 0.48749 0.0
H3615 H 0.14673 0.40247 0.46746 0.0
H3616 H 0.12763 0.3998 0.48388 0.0
H3617 H 0.13997 0.39719 0.49369 0.0
H3618 H 0.12363 0.38244 0.48815 0.0
H3619 H 0.14989 0.36442 0.47558 0.0
H3620 H 0.16366 0.40738 0.48363 0.0
H3621 H 0.17114 0.36138 0.50118 0.0
H3622 H 0.18064 0.36555 0.48461 0.0
H3623 H 0.16215 0.35394 0.48416 0.0
H3624 H 0.18467 0.42254 0.49544 0.0
H3625 H 0.19767 0.41756 0.49486 0.0
H3626 H 0.18713 0.41395 0.51061 0.0
H3627 H 0.19895 0.38442 0.58314 0.0
H3628 H 0.23319 0.39361 0.54688 0.0
H3629 H 0.23438 0.39648 0.52105 0.0
H3630 H 0.20297 0.39406 0.48373 0.0
H3631 H 0.16895 0.38524 0.52012 0.0
H3632 H 0.16795 0.38286 0.54598 0.0
H3633 H 0.2898 0.42282 0.47211 0.0
H3634 H 0.29285 0.41216 0.48444 0.0
H3635 H 0.28343 0.42039 0.49045 0.0
H3636 H 0.99454 0.36474 0.09057 0.0
H3637 H 0.99025 0.38899 0.05707 0.0
H3638 H 0.99567 0.38124 0.10906 0.0
H3639 H 0.99127 0.40541 0.07554 0.0
H3640 H 0.01367 0.44 0.11105 0.0
H3641 H 0.01019 0.42268 0.09247 0.0
H3642 H 0.981 0.39022 0.12006 0.0
H3643 H 0.98442 0.40758 0.13865 0.0
C3644 C 0.99371 0.37353 0.0872 0.0
C3645 C 0.99229 0.37558 0.07241 0.0
C3646 C 0.99427 0.38291 0.09776 0.0
C3647 C 0.99361 0.39462 0.09371 0.0
C3648 C 0.99192 0.39652 0.07895 0.0
C3649 C 0.99119 0.38706 0.06841 0.0
C3650 C 0.00633 0.42919 0.11304 0.0
C3651 C 0.99905 0.42515 0.12616 0.0
C3652 C 0.00434 0.41928 0.10241 0.0
C3653 C 0.99525 0.40512 0.10479 0.0
C3654 C 0.98808 0.40106 0.11795 0.0
C3655 C 0.98996 0.41098 0.12853 0.0
H3656 H 0.62377 0.5784 0.05193 0.0
H3657 H 0.63355 0.60938 0.08566 0.0
H3658 H 0.61289 0.56019 0.06986 0.0
H3659 H 0.62303 0.5912 0.10365 0.0
H3660 H 0.58866 0.55441 0.128 0.0
H3661 H 0.59981 0.57256 0.11001 0.0
H3662 H 0.61883 0.55088 0.09097 0.0
H3663 H 0.60752 0.53265 0.10887 0.0
C3664 C 0.62364 0.58132 0.06318 0.0
C3665 C 0.6295 0.59533 0.06737 0.0
C3666 C 0.61751 0.57089 0.07347 0.0
C3667 C 0.61706 0.57424 0.08817 0.0
C3668 C 0.62307 0.58827 0.09238 0.0
C3669 C 0.62925 0.59869 0.0821 0.0
C3670 C 0.59513 0.55349 0.11988 0.0
C3671 C 0.59703 0.542 0.11967 0.0
C3672 C 0.60162 0.56393 0.10967 0.0
C3673 C 0.61019 0.56315 0.09904 0.0
C3674 C 0.61213 0.55168 0.09888 0.0
C3675 C 0.60568 0.54127 0.10913 0.0
H3676 H 0.40437 0.00802 0.05461 0.0
H3677 H 0.38373 0.01971 0.08648 0.0
H3678 H 0.41792 0.00565 0.07389 0.0
H3679 H 0.39694 0.01681 0.10584 0.0
H3680 H 0.43147 0.02138 0.13611 0.0
H3681 H 0.42021 0.02639 0.11625 0.0
H3682 H 0.41313 0.98933 0.09338 0.0
H3683 H 0.42457 0.98448 0.11312 0.0
C3684 C 0.40285 0.01026 0.06571 0.0
C3685 C 0.39296 0.01406 0.069 0.0
C3686 C 0.41049 0.00872 0.07678 0.0
C3687 C 0.40843 0.01093 0.0914 0.0
C3688 C 0.39884 0.01512 0.09468 0.0
C3689 C 0.39118 0.01665 0.0836 0.0
C3690 C 0.42764 0.01442 0.12674 0.0
C3691 C 0.4291 0.00268 0.12603 0.0
C3692 C 0.42111 0.01722 0.11543 0.0
C3693 C 0.41583 0.0083 0.10321 0.0
C3694 C 0.41731 0.99655 0.10251 0.0
C3695 C 0.42382 0.99375 0.11382 0.0
H3696 H 0.39149 0.98074 0.95819 0.0
H3697 H 0.37103 0.99467 0.92881 0.0
H3698 H 0.40791 0.98381 0.93922 0.0
H3699 H 0.38719 0.99728 0.9098 0.0
H3700 H 0.41361 0.99111 0.87585 0.0
H3701 H 0.39551 0.98397 0.89411 0.0
H3702 H 0.42675 0.00585 0.92738 0.0
H3703 H 0.44477 0.01314 0.90918 0.0
C3704 C 0.39039 0.98433 0.94767 0.0
C3705 C 0.38001 0.98761 0.94511 0.0
C3706 C 0.39978 0.98604 0.93681 0.0
C3707 C 0.39887 0.99088 0.9231 0.0
C3708 C 0.38805 0.99342 0.92024 0.0
C3709 C 0.37875 0.99186 0.93115 0.0
C3710 C 0.41658 0.9942 0.88711 0.0
C3711 C 0.43061 0.00243 0.89112 0.0
C3712 C 0.40624 0.99018 0.89752 0.0
C3713 C 0.40975 0.99426 0.91216 0.0
C3714 C 0.42377 0.00234 0.91621 0.0
C3715 C 0.43409 0.00652 0.90578 0.0
H3716 H 0.0343 0.40704 0.95064 0.0
H3717 H 0.99374 0.37266 0.93952 0.0
H3718 H 0.03167 0.42094 0.93207 0.0
H3719 H 0.99124 0.38645 0.92075 0.0
H3720 H 0.98551 0.42095 0.90131 0.0
H3721 H 0.98834 0.40691 0.91962 0.0
H3722 H 0.03016 0.42197 0.90533 0.0
H3723 H 0.02733 0.43605 0.88714 0.0
C3724 C 0.02486 0.40244 0.94418 0.0
C3725 C 0.01424 0.38875 0.94653 0.0
C3726 C 0.02339 0.41036 0.93348 0.0
C3727 C 0.01122 0.4048 0.92498 0.0
C3728 C 0.00067 0.39107 0.92723 0.0
C3729 C 0.00218 0.38312 0.93785 0.0
C3730 C 0.99531 0.4213 0.90217 0.0
C3731 C 0.00626 0.42972 0.89294 0.0
C3732 C 0.99691 0.4132 0.91255 0.0
C3733 C 0.00949 0.41336 0.91392 0.0
C3734 C 0.02041 0.42177 0.90467 0.0
C3735 C 0.01879 0.4298 0.89425 0.0
H3736 H 0.61179 0.62959 0.93707 0.0
H3737 H 0.58213 0.62561 0.9693 0.0
H3738 H 0.59352 0.61991 0.91857 0.0
H3739 H 0.56375 0.61536 0.95094 0.0
H3740 H 0.53684 0.6104 0.91116 0.0
H3741 H 0.55542 0.62115 0.92938 0.0
H3742 H 0.57346 0.59795 0.91183 0.0
H3743 H 0.55508 0.58751 0.89343 0.0
C3744 C 0.60139 0.62672 0.9402 0.0
C3745 C 0.59843 0.62838 0.95468 0.0
C3746 C 0.59087 0.621 0.92963 0.0
C3747 C 0.57715 0.61678 0.93328 0.0
C3748 C 0.57422 0.6186 0.94772 0.0
C3749 C 0.58474 0.62433 0.95829 0.0
C3750 C 0.54474 0.60754 0.91131 0.0
C3751 C 0.54435 0.5979 0.90109 0.0
C3752 C 0.55535 0.61366 0.92174 0.0
C3753 C 0.56589 0.61036 0.92212 0.0
C3754 C 0.56558 0.60082 0.91178 0.0
C3755 C 0.55498 0.59472 0.90134 0.0
H3756 H 0.01151 0.63884 0.93093 0.0
H3757 H 0.02384 0.61853 0.96211 0.0
H3758 H 0.01237 0.62424 0.91151 0.0
H3759 H 0.02463 0.60387 0.9427 0.0
H3760 H 0.03531 0.58753 0.90159 0.0
H3761 H 0.03664 0.60366 0.92064 0.0
H3762 H 0.99875 0.6 0.9042 0.0
H3763 H 0.9976 0.5841 0.88509 0.0
C3764 C 0.01444 0.63128 0.93362 0.0
C3765 C 0.01753 0.62978 0.94806 0.0
C3766 C 0.0149 0.62289 0.92251 0.0
C3767 C 0.01842 0.61278 0.92558 0.0
C3768 C 0.022 0.61163 0.93994 0.0
C3769 C 0.02157 0.62005 0.95107 0.0
C3770 C 0.02723 0.59012 0.90216 0.0
C3771 C 0.01621 0.58437 0.89204 0.0
C3772 C 0.02798 0.59934 0.91305 0.0
C3773 C 0.01781 0.60312 0.91394 0.0
C3774 C 0.00686 0.59744 0.90372 0.0
C3775 C 0.0061 0.58823 0.89287 0.0
H3776 H 0.35998 0.41197 0.95125 0.0
H3777 H 0.39001 0.40072 0.93818 0.0
H3778 H 0.36843 0.42967 0.93268 0.0
H3779 H 0.39852 0.41846 0.91968 0.0
H3780 H 0.39806 0.43965 0.87734 0.0
H3781 H 0.39102 0.42287 0.89676 0.0
H3782 H 0.38806 0.45174 0.92611 0.0
H3783 H 0.39478 0.46837 0.9065 0.0
C3784 C 0.36849 0.41338 0.94452 0.0
C3785 C 0.37428 0.40489 0.94615 0.0
C3786 C 0.37335 0.42355 0.93389 0.0
C3787 C 0.38415 0.42548 0.92467 0.0
C3788 C 0.39004 0.41709 0.92643 0.0
C3789 C 0.38516 0.40692 0.93703 0.0
C3790 C 0.39609 0.44246 0.88801 0.0
C3791 C 0.39719 0.4554 0.89048 0.0
C3792 C 0.39208 0.43287 0.89915 0.0
C3793 C 0.389 0.43597 0.91302 0.0
C3794 C 0.39023 0.44898 0.91552 0.0
C3795 C 0.39422 0.45856 0.90436 0.0
H3796 H 0.59407 0.98165 0.9632 0.0
H3797 H 0.62205 0.98173 0.93096 0.0
H3798 H 0.57809 0.97954 0.94392 0.0
H3799 H 0.60614 0.97984 0.91171 0.0
H3800 H 0.58255 0.99367 0.88199 0.0
H3801 H 0.59789 0.99475 0.90153 0.0
H3802 H 0.56271 0.96319 0.92446 0.0
H3803 H 0.54736 0.96216 0.90489 0.0
C3804 C 0.59674 0.98101 0.95202 0.0
C3805 C 0.60939 0.9819 0.94864 0.0
C3806 C 0.58758 0.97985 0.94098 0.0
C3807 C 0.5909 0.97962 0.9263 0.0
C3808 C 0.6034 0.98023 0.92292 0.0
C3809 C 0.61252 0.98132 0.93395 0.0
C3810 C 0.5781 0.98708 0.89129 0.0
C3811 C 0.56374 0.97808 0.89208 0.0
C3812 C 0.58688 0.98759 0.9024 0.0
C3813 C 0.5815 0.97906 0.91454 0.0
C3814 C 0.56713 0.97002 0.91533 0.0
C3815 C 0.55835 0.96945 0.90416 0.0
H3816 H 0.61324 0.01973 0.05752 0.0
H3817 H 0.64197 0.02169 0.09026 0.0
H3818 H 0.59926 0.02188 0.07645 0.0
H3819 H 0.62779 0.02356 0.10918 0.0
H3820 H 0.58993 0.00916 0.13856 0.0
H3821 H 0.60447 0.0082 0.11942 0.0
H3822 H 0.60019 0.03869 0.09535 0.0
H3823 H 0.58564 0.03964 0.11453 0.0
C3824 C 0.6167 0.02083 0.06872 0.0
C3825 C 0.62875 0.02051 0.07234 0.0
C3826 C 0.60864 0.02201 0.07957 0.0
C3827 C 0.61237 0.0228 0.0943 0.0
C3828 C 0.62453 0.02273 0.09793 0.0
C3829 C 0.63264 0.02165 0.08708 0.0
C3830 C 0.592 0.01554 0.12911 0.0
C3831 C 0.58637 0.0242 0.12788 0.0
C3832 C 0.60042 0.0151 0.11822 0.0
C3833 C 0.60345 0.02335 0.10587 0.0
C3834 C 0.59788 0.03207 0.10465 0.0
C3835 C 0.58954 0.0326 0.11561 0.0
H3836 H 0.00418 0.61113 0.06972 0.0
H3837 H 0.96078 0.59778 0.07306 0.0
H3838 H 0.00182 0.59525 0.08878 0.0
H3839 H 0.95853 0.5822 0.09257 0.0
H3840 H 0.95699 0.54596 0.11704 0.0
H3841 H 0.95913 0.56089 0.09686 0.0
H3842 H 0.99802 0.59328 0.11493 0.0
H3843 H 0.99594 0.57827 0.13491 0.0
C3844 C 0.99411 0.60474 0.07446 0.0
C3845 C 0.98265 0.60569 0.06983 0.0
C3846 C 0.99279 0.59576 0.08552 0.0
C3847 C 0.98 0.5875 0.09223 0.0
C3848 C 0.9685 0.58834 0.08752 0.0
C3849 C 0.96982 0.59736 0.07646 0.0
C3850 C 0.96604 0.55622 0.11657 0.0
C3851 C 0.9764 0.56089 0.12741 0.0
C3852 C 0.96722 0.56481 0.10511 0.0
C3853 C 0.97876 0.57826 0.10428 0.0
C3854 C 0.98911 0.5829 0.11513 0.0
C3855 C 0.98791 0.57433 0.12659 0.0
H3856 H 0.4225 0.37894 0.05002 0.0
H3857 H 0.39086 0.37279 0.08069 0.0
H3858 H 0.43976 0.38825 0.06958 0.0
H3859 H 0.40785 0.38116 0.10029 0.0
H3860 H 0.44215 0.40689 0.13174 0.0
H3861 H 0.42693 0.4011 0.11059 0.0
H3862 H 0.44694 0.38091 0.09023 0.0
H3863 H 0.46261 0.38738 0.11114 0.0
C3864 C 0.41921 0.37959 0.06091 0.0
C3865 C 0.40524 0.37502 0.06375 0.0
C3866 C 0.42909 0.38477 0.07217 0.0
C3867 C 0.42523 0.38545 0.08656 0.0
C3868 C 0.41129 0.38101 0.08935 0.0
C3869 C 0.40146 0.37595 0.0781 0.0
C3870 C 0.44338 0.40136 0.12266 0.0
C3871 C 0.45343 0.39742 0.12316 0.0
C3872 C 0.43459 0.39793 0.11057 0.0
C3873 C 0.43553 0.39033 0.09876 0.0
C3874 C 0.44595 0.38685 0.09905 0.0
C3875 C 0.45486 0.39044 0.11108 0.0
H3876 H 0.62492 0.71251 0.38206 0.0
H3877 H 0.64245 0.69969 0.41607 0.0
H3878 H 0.61674 0.72266 0.4003 0.0
H3879 H 0.63399 0.70956 0.43433 0.0
H3880 H 0.63075 0.74279 0.46108 0.0
H3881 H 0.63887 0.7327 0.44265 0.0
H3882 H 0.59959 0.71532 0.41999 0.0
H3883 H 0.59154 0.72551 0.43837 0.0
C3884 C 0.62701 0.71185 0.39343 0.0
C3885 C 0.63434 0.70531 0.39762 0.0
C3886 C 0.62222 0.71755 0.40388 0.0
C3887 C 0.62474 0.71693 0.41876 0.0
C3888 C 0.63201 0.71033 0.42295 0.0
C3889 C 0.63672 0.70454 0.4125 0.0
C3890 C 0.62392 0.73689 0.45209 0.0
C3891 C 0.61059 0.73511 0.45104 0.0
C3892 C 0.62851 0.73103 0.44161 0.0
C3893 C 0.61988 0.72322 0.42986 0.0
C3894 C 0.60655 0.72143 0.42881 0.0
C3895 C 0.60194 0.72724 0.43933 0.0
H3896 H 0.27056 0.92768 0.41556 0.0
H3897 H 0.30374 0.91953 0.40763 0.0
H3898 H 0.25953 0.90764 0.43138 0.0
H3899 H 0.29258 0.89937 0.4231 0.0
H3900 H 0.27585 0.86429 0.46311 0.0
H3901 H 0.28933 0.88918 0.44626 0.0
H3902 H 0.24353 0.88261 0.4301 0.0
H3903 H 0.22886 0.85747 0.4466 0.0
C3904 C 0.27557 0.9217 0.41732 0.0
C3905 C 0.28801 0.92517 0.41031 0.0
C3906 C 0.26917 0.91014 0.42626 0.0
C3907 C 0.27516 0.90191 0.42847 0.0
C3908 C 0.28778 0.90559 0.4218 0.0
C3909 C 0.29411 0.91707 0.41279 0.0
C3910 C 0.26988 0.86732 0.45645 0.0
C3911 C 0.25093 0.85964 0.45872 0.0
C3912 C 0.27816 0.88319 0.4465 0.0
C3913 C 0.268 0.88919 0.43712 0.0
C3914 C 0.24928 0.87913 0.43648 0.0
C3915 C 0.24003 0.86309 0.44608 0.0
H3916 H 0.06899 0.37504 0.41304 0.0
H3917 H 0.0835 0.3483 0.39686 0.0
H3918 H 0.08697 0.384 0.43204 0.0
H3919 H 0.10147 0.35728 0.41579 0.0
H3920 H 0.11989 0.3648 0.46235 0.0
H3921 H 0.10202 0.35623 0.44338 0.0
H3922 H 0.11336 0.39827 0.43359 0.0
H3923 H 0.13142 0.40689 0.45251 0.0
C3924 C 0.076 0.37106 0.41359 0.0
C3925 C 0.07486 0.36098 0.4035 0.0
C3926 C 0.08633 0.37626 0.42437 0.0
C3927 C 0.09559 0.37132 0.42538 0.0
C3928 C 0.09441 0.3612 0.41532 0.0
C3929 C 0.0842 0.35614 0.40444 0.0
C3930 C 0.11871 0.37223 0.45601 0.0
C3931 C 0.12734 0.38655 0.45861 0.0
C3932 C 0.10847 0.36732 0.44518 0.0
C3933 C 0.1064 0.37659 0.43694 0.0
C3934 C 0.11474 0.39089 0.43979 0.0
C3935 C 0.12511 0.39582 0.45052 0.0
H3936 H 0.04761 0.2863 0.2996 0.0
H3937 H 0.04454 0.31315 0.26843 0.0
H3938 H 0.05794 0.2786 0.28115 0.0
H3939 H 0.05426 0.305 0.24985 0.0
H3940 H 0.08608 0.29941 0.22484 0.0
H3941 H 0.07598 0.30699 0.24365 0.0
H3942 H 0.0523 0.26498 0.2588 0.0
H3943 H 0.06277 0.25751 0.2402 0.0
C3944 C 0.04911 0.29054 0.28881 0.0
C3945 C 0.04526 0.30036 0.28551 0.0
C3946 C 0.05489 0.28601 0.27819 0.0
C3947 C 0.05696 0.2912 0.26402 0.0
C3948 C 0.05298 0.30092 0.2607 0.0
C3949 C 0.04723 0.30546 0.27131 0.0
C3950 C 0.07885 0.29184 0.23232 0.0
C3951 C 0.07546 0.27792 0.23128 0.0
C3952 C 0.07294 0.29615 0.243 0.0
C3953 C 0.06335 0.2866 0.25277 0.0
C3954 C 0.05984 0.27264 0.25162 0.0
C3955 C 0.06579 0.26835 0.24096 0.0
H3956 H 0.68203 0.72228 0.26693 0.0
H3957 H 0.71152 0.75223 0.29783 0.0
H3958 H 0.68994 0.74015 0.24861 0.0
H3959 H 0.71902 0.77022 0.2797 0.0
H3960 H 0.73886 0.79546 0.23895 0.0
H3961 H 0.73146 0.77735 0.25701 0.0
H3962 H 0.68895 0.76077 0.24332 0.0
H3963 H 0.69644 0.7787 0.22504 0.0
C3964 C 0.69024 0.73266 0.2698 0.0
C3965 C 0.69614 0.73581 0.28386 0.0
C3966 C 0.69466 0.74295 0.25935 0.0
C3967 C 0.70507 0.75664 0.2627 0.0
C3968 C 0.71106 0.75976 0.27671 0.0
C3969 C 0.70665 0.74948 0.28716 0.0
C3970 C 0.72793 0.78801 0.23992 0.0
C3971 C 0.7182 0.78868 0.23081 0.0
C3972 C 0.72368 0.77765 0.25027 0.0
C3973 C 0.7096 0.76765 0.25167 0.0
C3974 C 0.69988 0.76824 0.24245 0.0
C3975 C 0.70414 0.77859 0.23209 0.0
H3976 H 0.24012 0.95363 0.31125 0.0
H3977 H 0.27149 0.96323 0.27902 0.0
H3978 H 0.22238 0.94455 0.29212 0.0
H3979 H 0.25385 0.95462 0.25988 0.0
H3980 H 0.21728 0.92402 0.23137 0.0
H3981 H 0.2347 0.93278 0.25081 0.0
H3982 H 0.21438 0.95241 0.2716 0.0
H3983 H 0.19679 0.94338 0.25226 0.0
C3984 C 0.24323 0.95382 0.30009 0.0
C3985 C 0.25722 0.95916 0.29667 0.0
C3986 C 0.23309 0.94874 0.28911 0.0
C3987 C 0.2367 0.94884 0.27447 0.0
C3988 C 0.25069 0.95424 0.27106 0.0
C3989 C 0.26083 0.95934 0.28202 0.0
C3990 C 0.21647 0.93008 0.24019 0.0
C3991 C 0.20552 0.93278 0.24047 0.0
C3992 C 0.22652 0.93521 0.25125 0.0
C3993 C 0.22591 0.94327 0.26279 0.0
C3994 C 0.21501 0.94605 0.263 0.0
C3995 C 0.20496 0.94092 0.25193 0.0
H3996 H 0.70461 0.94084 0.29933 0.0
H3997 H 0.70408 0.97151 0.2718 0.0
H3998 H 0.71381 0.93344 0.27927 0.0
H3999 H 0.71356 0.96438 0.25197 0.0
H4000 H 0.71652 0.93889 0.21503 0.0
H4001 H 0.70613 0.94428 0.2355 0.0
H4002 H 0.73536 0.94257 0.26485 0.0
H4003 H 0.74568 0.93706 0.24433 0.0
C4004 C 0.70646 0.946 0.28901 0.0
C4005 C 0.70364 0.95678 0.28715 0.0
C4006 C 0.71182 0.94183 0.27757 0.0
C4007 C 0.71434 0.94828 0.26402 0.0
C4008 C 0.71156 0.95907 0.26221 0.0
C4009 C 0.70629 0.96329 0.27364 0.0
C4010 C 0.72056 0.93944 0.22589 0.0
C4011 C 0.73176 0.93735 0.22812 0.0
C4012 C 0.7147 0.94265 0.23759 0.0
C4013 C 0.71996 0.9439 0.25178 0.0
C4014 C 0.73098 0.94151 0.25407 0.0
C4015 C 0.73688 0.93836 0.24234 0.0
H4016 H 0.06057 0.74757 0.28301 0.0
H4017 H 0.02602 0.75368 0.29062 0.0
H4018 H 0.06817 0.76406 0.26331 0.0
H4019 H 0.03335 0.76982 0.27054 0.0
H4020 H 0.05692 0.80716 0.24151 0.0
H4021 H 0.05157 0.79273 0.26298 0.0
H4022 H 0.06014 0.76459 0.23881 0.0
H4023 H 0.06567 0.77913 0.2175 0.0
C4024 C 0.05466 0.75252 0.28058 0.0
C4025 C 0.04268 0.74929 0.28841 0.0
C4026 C 0.05893 0.76186 0.26916 0.0
C4027 C 0.05134 0.76821 0.2653 0.0
C4028 C 0.03951 0.7652 0.27332 0.0
C4029 C 0.03522 0.75583 0.28472 0.0
C4030 C 0.05785 0.798 0.24091 0.0
C4031 C 0.06188 0.79435 0.22791 0.0
C4032 C 0.05468 0.78967 0.25313 0.0
C4033 C 0.05543 0.77751 0.25261 0.0
C4034 C 0.05966 0.774 0.23966 0.0
C4035 C 0.0628 0.7823 0.22744 0.0
H4036 H 0.25354 0.27968 0.29043 0.0
H4037 H 0.26425 0.32207 0.28351 0.0
H4038 H 0.23804 0.27224 0.26938 0.0
H4039 H 0.24821 0.31452 0.26292 0.0
H4040 H 0.23331 0.29821 0.21613 0.0
H4041 H 0.24712 0.30615 0.23849 0.0
H4042 H 0.21663 0.26917 0.25997 0.0
H4043 H 0.20305 0.26109 0.23741 0.0
C4044 C 0.25252 0.28741 0.28449 0.0
C4045 C 0.26024 0.30149 0.28864 0.0
C4046 C 0.24348 0.28311 0.27252 0.0
C4047 C 0.24188 0.29278 0.26441 0.0
C4048 C 0.24931 0.30681 0.2688 0.0
C4049 C 0.25839 0.31112 0.28074 0.0
C4050 C 0.22948 0.2919 0.22571 0.0
C4051 C 0.21701 0.27915 0.22509 0.0
C4052 C 0.23736 0.29646 0.23855 0.0
C4053 C 0.23298 0.28832 0.25107 0.0
C4054 C 0.22038 0.27564 0.2505 0.0
C4055 C 0.21252 0.27107 0.23764 0.0
H4056 H 0.31182 0.37058 0.42112 0.0
H4057 H 0.27761 0.36469 0.39401 0.0
H4058 H 0.30408 0.37996 0.44053 0.0
H4059 H 0.27011 0.37445 0.41338 0.0
H4060 H 0.27236 0.40773 0.44665 0.0
H4061 H 0.27865 0.39736 0.42671 0.0
H4062 H 0.28396 0.37143 0.45725 0.0
H4063 H 0.27762 0.38175 0.47714 0.0
C4064 C 0.30259 0.37118 0.41931 0.0
C4065 C 0.29531 0.36678 0.40598 0.0
C4066 C 0.29818 0.37659 0.43044 0.0
C4067 C 0.28645 0.37787 0.4285 0.0
C4068 C 0.27926 0.37369 0.41514 0.0
C4069 C 0.2836 0.36815 0.40403 0.0
C4070 C 0.2746 0.39962 0.44904 0.0
C4071 C 0.27422 0.39533 0.46342 0.0
C4072 C 0.27822 0.3937 0.43764 0.0
C4073 C 0.28181 0.38359 0.44043 0.0
C4074 C 0.28135 0.37927 0.45478 0.0
C4075 C 0.27761 0.38508 0.46614 0.0
H4076 H 0.65505 0.92352 0.40713 0.0
H4077 H 0.61437 0.91669 0.39709 0.0
H4078 H 0.64529 0.90644 0.42629 0.0
H4079 H 0.60471 0.90002 0.41658 0.0
H4080 H 0.58946 0.86223 0.44471 0.0
H4081 H 0.5998 0.8771 0.42377 0.0
H4082 H 0.63539 0.90496 0.45024 0.0
H4083 H 0.62513 0.88995 0.47103 0.0
C4084 C 0.64401 0.9183 0.40893 0.0
C4085 C 0.6355 0.92151 0.40061 0.0
C4086 C 0.63844 0.90862 0.42001 0.0
C4087 C 0.62423 0.9019 0.423 0.0
C4088 C 0.61568 0.9049 0.41448 0.0
C4089 C 0.62124 0.91459 0.40342 0.0
C4090 C 0.59959 0.87142 0.44594 0.0
C4091 C 0.60657 0.87488 0.45944 0.0
C4092 C 0.60546 0.87999 0.43401 0.0
C4093 C 0.61841 0.89223 0.43534 0.0
C4094 C 0.6255 0.89551 0.44878 0.0
C4095 C 0.61961 0.88695 0.4607 0.0
H4096 H 0.05853 0.70292 0.42099 0.0
H4097 H 0.09191 0.72763 0.39184 0.0
H4098 H 0.07501 0.71004 0.44117 0.0
H4099 H 0.10843 0.73485 0.41207 0.0
H4100 H 0.13445 0.73102 0.44904 0.0
H4101 H 0.11862 0.72545 0.42838 0.0
H4102 H 0.09014 0.73006 0.45613 0.0
H4103 H 0.10586 0.73532 0.4768 0.0
C4104 C 0.06938 0.71001 0.41893 0.0
C4105 C 0.0739 0.71473 0.40482 0.0
C4106 C 0.07883 0.71411 0.4305 0.0
C4107 C 0.09305 0.72308 0.42826 0.0
C4108 C 0.09758 0.72781 0.41414 0.0
C4109 C 0.08811 0.72367 0.40255 0.0
C4110 C 0.12489 0.73102 0.45063 0.0
C4111 C 0.12143 0.73373 0.46448 0.0
C4112 C 0.11582 0.72786 0.43881 0.0
C4113 C 0.10308 0.72726 0.4406 0.0
C4114 C 0.09978 0.73024 0.45441 0.0
C4115 C 0.10883 0.73338 0.46622 0.0
H4116 H 0.2838 0.04164 0.71534 0.0
H4117 H 0.31334 0.04267 0.7464 0.0
H4118 H 0.27588 0.05201 0.73352 0.0
H4119 H 0.3049 0.05229 0.76478 0.0
H4120 H 0.29765 0.08349 0.78935 0.0
H4121 H 0.30548 0.07337 0.77077 0.0
H4122 H 0.26325 0.04711 0.7558 0.0
H4123 H 0.25553 0.05765 0.77411 0.0
C4124 C 0.28858 0.04403 0.72605 0.0
C4125 C 0.29924 0.04133 0.72937 0.0
C4126 C 0.28392 0.04983 0.73654 0.0
C4127 C 0.28976 0.05302 0.75063 0.0
C4128 C 0.30029 0.05016 0.75399 0.0
C4129 C 0.305 0.04443 0.74349 0.0
C4130 C 0.29008 0.0757 0.78194 0.0
C4131 C 0.27601 0.07161 0.78292 0.0
C4132 C 0.29453 0.06977 0.7714 0.0
C4133 C 0.285 0.05943 0.76174 0.0
C4134 C 0.27091 0.05522 0.76286 0.0
C4135 C 0.26646 0.06122 0.77336 0.0
H4136 H 0.95136 0.23781 0.7163 0.0
H4137 H 0.97087 0.26631 0.75254 0.0
H4138 H 0.94096 0.21849 0.733 0.0
H4139 H 0.96035 0.24692 0.76932 0.0
H4140 H 0.95196 0.20619 0.80058 0.0
H4141 H 0.96381 0.22855 0.78011 0.0
H4142 H 0.9213 0.20462 0.74834 0.0
H4143 H 0.90845 0.18153 0.76784 0.0
C4144 C 0.95346 0.23992 0.72785 0.0
C4145 C 0.96198 0.25355 0.73312 0.0
C4146 C 0.94737 0.22888 0.73743 0.0
C4147 C 0.9498 0.23122 0.75246 0.0
C4148 C 0.95839 0.24482 0.75777 0.0
C4149 C 0.96433 0.25591 0.74819 0.0
C4150 C 0.94658 0.2056 0.79056 0.0
C4151 C 0.92791 0.19266 0.78762 0.0
C4152 C 0.95353 0.21981 0.77817 0.0
C4153 C 0.94357 0.2195 0.76251 0.0
C4154 C 0.92677 0.20468 0.75806 0.0
C4155 C 0.91891 0.18996 0.76978 0.0
H4156 H 0.72729 0.68354 0.74837 0.0
H4157 H 0.75563 0.71394 0.71836 0.0
H4158 H 0.74524 0.69293 0.76715 0.0
H4159 H 0.77382 0.72284 0.73693 0.0
H4160 H 0.79886 0.74454 0.77819 0.0
H4161 H 0.78062 0.73569 0.75958 0.0
H4162 H 0.7664 0.69387 0.77336 0.0
H4163 H 0.78431 0.70281 0.79225 0.0
C4164 C 0.73734 0.69225 0.74577 0.0
C4165 C 0.73999 0.698 0.73184 0.0
C4166 C 0.7477 0.69752 0.7565 0.0
C4167 C 0.761 0.70861 0.75354 0.0
C4168 C 0.76365 0.71438 0.73963 0.0
C4169 C 0.75327 0.70916 0.72892 0.0
C4170 C 0.79187 0.73346 0.77714 0.0
C4171 C 0.7932 0.72435 0.78643 0.0
C4172 C 0.78146 0.72837 0.76646 0.0
C4173 C 0.77209 0.71405 0.7649 0.0
C4174 C 0.77335 0.70496 0.77433 0.0
C4175 C 0.78371 0.71006 0.78504 0.0
H4176 H 0.70241 0.6438 0.59726 0.0
H4177 H 0.71389 0.62422 0.63019 0.0
H4178 H 0.71212 0.63559 0.57859 0.0
H4179 H 0.72392 0.61632 0.61158 0.0
H4180 H 0.72721 0.59244 0.57215 0.0
H4181 H 0.71681 0.60002 0.5907 0.0
H4182 H 0.7351 0.64021 0.57096 0.0
H4183 H 0.74539 0.63255 0.55234 0.0
C4184 C 0.70692 0.63767 0.6005 0.0
C4185 C 0.70739 0.63467 0.6152 0.0
C4186 C 0.71263 0.6331 0.58983 0.0
C4187 C 0.71884 0.62536 0.59361 0.0
C4188 C 0.71911 0.62218 0.60829 0.0
C4189 C 0.71348 0.62681 0.61897 0.0
C4190 C 0.72909 0.60293 0.57187 0.0
C4191 C 0.73728 0.61197 0.56094 0.0
C4192 C 0.72316 0.60728 0.58249 0.0
C4193 C 0.72515 0.62073 0.58232 0.0
C4194 C 0.73326 0.62975 0.57131 0.0
C4195 C 0.73925 0.62541 0.56074 0.0
H4196 H 0.35328 0.05989 0.59817 0.0
H4197 H 0.37366 0.09147 0.63168 0.0
H4198 H 0.36131 0.07778 0.5798 0.0
H4199 H 0.38143 0.10938 0.61333 0.0
H4200 H 0.4049 0.13613 0.57418 0.0
H4201 H 0.39744 0.11823 0.59254 0.0
H4202 H 0.35678 0.09629 0.57253 0.0
H4203 H 0.36431 0.11413 0.55412 0.0
C4204 C 0.35955 0.07065 0.6016 0.0
C4205 C 0.36285 0.07428 0.61637 0.0
C4206 C 0.36402 0.0809 0.5911 0.0
C4207 C 0.37196 0.09499 0.59513 0.0
C4208 C 0.37541 0.09861 0.60988 0.0
C4209 C 0.37086 0.08837 0.62039 0.0
C4210 C 0.39434 0.12753 0.5738 0.0
C4211 C 0.38512 0.12663 0.56287 0.0
C4212 C 0.39007 0.11731 0.58431 0.0
C4213 C 0.37651 0.10588 0.584 0.0
C4214 C 0.36732 0.10491 0.57299 0.0
C4215 C 0.37158 0.11516 0.56253 0.0
H4216 H 0.91324 0.28358 0.63119 0.0
H4217 H 0.94392 0.2895 0.59935 0.0
H4218 H 0.89588 0.27643 0.61191 0.0
H4219 H 0.9267 0.283 0.58 0.0
H4220 H 0.88878 0.25526 0.55134 0.0
H4221 H 0.90636 0.26276 0.57049 0.0
H4222 H 0.88938 0.2855 0.59164 0.0
H4223 H 0.87155 0.27762 0.57265 0.0
C4224 C 0.91629 0.28336 0.62008 0.0
C4225 C 0.92997 0.28705 0.61684 0.0
C4226 C 0.90637 0.27944 0.609 0.0
C4227 C 0.90989 0.27915 0.5944 0.0
C4228 C 0.9236 0.28295 0.59114 0.0
C4229 C 0.93351 0.28684 0.60223 0.0
C4230 C 0.88875 0.26176 0.56016 0.0
C4231 C 0.8786 0.26559 0.5607 0.0
C4232 C 0.8989 0.26619 0.57105 0.0
C4233 C 0.89924 0.27468 0.58265 0.0
C4234 C 0.88926 0.27875 0.58301 0.0
C4235 C 0.87907 0.27428 0.57213 0.0
H4236 H 0.34448 0.28028 0.60669 0.0
H4237 H 0.38597 0.30542 0.62399 0.0
H4238 H 0.35318 0.27197 0.58714 0.0
H4239 H 0.39476 0.29735 0.60427 0.0
H4240 H 0.40518 0.27177 0.57388 0.0
H4241 H 0.39547 0.2778 0.5945 0.0
H4242 H 0.36636 0.2802 0.5655 0.0
H4243 H 0.37579 0.2737 0.54505 0.0
C4244 C 0.35549 0.28411 0.60624 0.0
C4245 C 0.36455 0.29356 0.61684 0.0
C4246 C 0.36049 0.27936 0.59502 0.0
C4247 C 0.3747 0.28402 0.59406 0.0
C4248 C 0.38374 0.29336 0.60478 0.0
C4249 C 0.37871 0.29804 0.61607 0.0
C4250 C 0.39652 0.27332 0.572 0.0
C4251 C 0.39103 0.27196 0.5579 0.0
C4252 C 0.39106 0.27694 0.58377 0.0
C4253 C 0.3801 0.27948 0.58169 0.0
C4254 C 0.3746 0.27806 0.56758 0.0
C4255 C 0.38001 0.27437 0.55584 0.0
H4256 H 0.69501 0.07507 0.60579 0.0
H4257 H 0.73629 0.08135 0.6074 0.0
H4258 H 0.70223 0.09282 0.58734 0.0
H4259 H 0.74355 0.09919 0.58891 0.0
H4260 H 0.7425 0.1145 0.54164 0.0
H4261 H 0.73765 0.09903 0.56209 0.0
H4262 H 0.71832 0.11871 0.58474 0.0
H4263 H 0.7233 0.13429 0.56433 0.0
C4264 C 0.70564 0.08028 0.60221 0.0
C4265 C 0.71508 0.0768 0.60797 0.0
C4266 C 0.7098 0.09052 0.59175 0.0
C4267 C 0.72346 0.09739 0.58671 0.0
C4268 C 0.73295 0.09401 0.59256 0.0
C4269 C 0.72882 0.08388 0.60318 0.0
C4270 C 0.73738 0.11563 0.55108 0.0
C4271 C 0.73318 0.12551 0.55136 0.0
C4272 C 0.73465 0.10682 0.56279 0.0
C4273 C 0.72754 0.10762 0.57495 0.0
C4274 C 0.72369 0.11777 0.57543 0.0
C4275 C 0.72656 0.12669 0.56379 0.0
H4276 H 0.9346 0.65911 0.59856 0.0
H4277 H 0.91058 0.6227 0.62413 0.0
H4278 H 0.91763 0.64879 0.57877 0.0
H4279 H 0.89391 0.61202 0.60421 0.0
H4280 H 0.86062 0.59892 0.57027 0.0
H4281 H 0.87618 0.61167 0.59052 0.0
H4282 H 0.91018 0.63162 0.56065 0.0
H4283 H 0.89438 0.61946 0.54038 0.0
C4284 C 0.92569 0.64886 0.59989 0.0
C4285 C 0.92389 0.64169 0.61284 0.0
C4286 C 0.91599 0.64289 0.58854 0.0
C4287 C 0.90436 0.6295 0.58978 0.0
C4288 C 0.90254 0.62244 0.60288 0.0
C4289 C 0.91213 0.62851 0.6143 0.0
C4290 C 0.87135 0.60628 0.56801 0.0
C4291 C 0.87624 0.60839 0.55368 0.0
C4292 C 0.88034 0.61347 0.57966 0.0
C4293 C 0.89451 0.62269 0.57731 0.0
C4294 C 0.89933 0.62486 0.56293 0.0
C4295 C 0.8903 0.61784 0.55129 0.0
H4296 H 0.94057 0.68473 0.74171 0.0
H4297 H 0.97378 0.7254 0.73042 0.0
H4298 H 0.93383 0.69498 0.76121 0.0
H4299 H 0.96699 0.73566 0.74991 0.0
H4300 H 0.94378 0.75078 0.77815 0.0
H4301 H 0.94859 0.73997 0.75745 0.0
H4302 H 0.94288 0.70643 0.78476 0.0
H4303 H 0.93787 0.71715 0.80531 0.0
C4304 C 0.94649 0.69585 0.74344 0.0
C4305 C 0.95777 0.70423 0.73454 0.0
C4306 C 0.9426 0.70173 0.7546 0.0
C4307 C 0.94988 0.71614 0.75715 0.0
C4308 C 0.96103 0.72455 0.74811 0.0
C4309 C 0.96494 0.71866 0.73694 0.0
C4310 C 0.94335 0.74099 0.77962 0.0
C4311 C 0.94026 0.7347 0.79328 0.0
C4312 C 0.94623 0.73486 0.76782 0.0
C4313 C 0.94613 0.72234 0.76945 0.0
C4314 C 0.94284 0.71597 0.78307 0.0
C4315 C 0.94 0.72211 0.79486 0.0
H4316 H 0.30081 0.24578 0.72243 0.0
H4317 H 0.30081 0.27614 0.752 0.0
H4318 H 0.29063 0.2283 0.74119 0.0
H4319 H 0.29084 0.25873 0.77075 0.0
H4320 H 0.28604 0.22812 0.8054 0.0
H4321 H 0.29726 0.24501 0.78625 0.0
H4322 H 0.26854 0.21541 0.7546 0.0
H4323 H 0.25738 0.1985 0.77379 0.0
C4324 C 0.29856 0.24871 0.73288 0.0
C4325 C 0.30166 0.26239 0.73569 0.0
C4326 C 0.29276 0.2387 0.74363 0.0
C4327 C 0.29 0.24215 0.75747 0.0
C4328 C 0.29308 0.2558 0.76028 0.0
C4329 C 0.29881 0.26579 0.74952 0.0
C4330 C 0.28228 0.22517 0.79431 0.0
C4331 C 0.27101 0.21192 0.79104 0.0
C4332 C 0.28861 0.23487 0.78337 0.0
C4333 C 0.28377 0.23155 0.76892 0.0
C4334 C 0.27262 0.21821 0.7656 0.0
C4335 C 0.26624 0.20853 0.77657 0.0
H4336 H 0.75254 0.0282 0.72053 0.0
H4337 H 0.74548 0.06172 0.73171 0.0
H4338 H 0.76933 0.03533 0.74046 0.0
H4339 H 0.7622 0.06878 0.75166 0.0
H4340 H 0.77854 0.06458 0.79648 0.0
H4341 H 0.76353 0.05963 0.77524 0.0
H4342 H 0.79218 0.05396 0.74893 0.0
H4343 H 0.80712 0.05877 0.7703 0.0
C4344 C 0.7547 0.0372 0.72711 0.0
C4345 C 0.74758 0.04433 0.72457 0.0
C4346 C 0.76434 0.04129 0.73853 0.0
C4347 C 0.76707 0.05259 0.74769 0.0
C4348 C 0.76017 0.05989 0.74496 0.0
C4349 C 0.75057 0.05583 0.73353 0.0
C4350 C 0.78171 0.06247 0.78611 0.0
C4351 C 0.79405 0.06218 0.785 0.0
C4352 C 0.77314 0.05967 0.77393 0.0
C4353 C 0.77666 0.0564 0.76039 0.0
C4354 C 0.78912 0.05631 0.75924 0.0
C4355 C 0.79772 0.05918 0.77142 0.0
H4356 H 0.07043 0.33844 0.04782 0.0
H4357 H 0.05192 0.30461 0.01642 0.0
H4358 H 0.08485 0.32957 0.05714 0.0
H4359 H 0.06632 0.29583 0.02565 0.0
H4360 H 0.08097 0.26817 0.05633 0.0
H4361 H 0.06694 0.28074 0.04277 0.0
H4362 H 0.106 0.32842 0.05598 0.0
H4363 H 0.12106 0.31695 0.06998 0.0
C4364 C 0.06959 0.32924 0.04277 0.0
C4365 C 0.05992 0.32213 0.03149 0.0
C4366 C 0.07785 0.32415 0.0481 0.0
C4367 C 0.07658 0.31189 0.04227 0.0
C4368 C 0.06727 0.30508 0.03068 0.0
C4369 C 0.05904 0.31014 0.02534 0.0
C4370 C 0.08593 0.27932 0.05558 0.0
C4371 C 0.10137 0.29118 0.06685 0.0
C4372 C 0.07701 0.28728 0.04773 0.0
C4373 C 0.0845 0.30591 0.04853 0.0
C4374 C 0.10156 0.31731 0.05624 0.0
C4375 C 0.11133 0.31032 0.06439 0.0
H4376 H 0.66409 0.72785 0.04844 0.0
H4377 H 0.67894 0.70851 0.07802 0.0
H4378 H 0.67223 0.74766 0.06533 0.0
H4379 H 0.68691 0.72817 0.09488 0.0
H4380 H 0.71842 0.77532 0.11895 0.0
H4381 H 0.70661 0.75092 0.10037 0.0
H4382 H 0.66624 0.75663 0.0877 0.0
H4383 H 0.67702 0.78124 0.10609 0.0
C4384 C 0.66905 0.72783 0.05856 0.0
C4385 C 0.67086 0.71664 0.06193 0.0
C4386 C 0.67361 0.7391 0.06826 0.0
C4387 C 0.68026 0.73946 0.08136 0.0
C4388 C 0.682 0.72826 0.08476 0.0
C4389 C 0.67729 0.71693 0.07519 0.0
C4390 C 0.70842 0.77146 0.11379 0.0
C4391 C 0.70021 0.78225 0.11239 0.0
C4392 C 0.70128 0.75664 0.10164 0.0
C4393 C 0.68559 0.75154 0.09134 0.0
C4394 C 0.6759 0.76034 0.09355 0.0
C4395 C 0.68217 0.77528 0.10547 0.0
H4396 H 0.25984 0.95147 0.01853 0.0
H4397 H 0.28076 0.94722 0.05596 0.0
H4398 H 0.23796 0.93962 0.03134 0.0
H4399 H 0.25873 0.93499 0.06855 0.0
H4400 H 0.21291 0.90198 0.07937 0.0
H4401 H 0.23498 0.9127 0.06664 0.0
H4402 H 0.22866 0.94594 0.05339 0.0
H4403 H 0.2067 0.93534 0.06624 0.0
C4404 C 0.2598 0.94799 0.02946 0.0
C4405 C 0.27213 0.95045 0.03625 0.0
C4406 C 0.24725 0.94118 0.03678 0.0
C4407 C 0.24669 0.93651 0.05098 0.0
C4408 C 0.25887 0.93842 0.05757 0.0
C4409 C 0.27147 0.94537 0.05031 0.0
C4410 C 0.21636 0.91171 0.07396 0.0
C4411 C 0.20825 0.91803 0.07411 0.0
C4412 C 0.22895 0.9178 0.06664 0.0
C4413 C 0.23351 0.93013 0.05904 0.0
C4414 C 0.22535 0.93638 0.05908 0.0
C4415 C 0.21287 0.9304 0.06653 0.0
H4416 H 0.3122 0.05372 0.99642 0.0
H4417 H 0.33454 0.05687 0.95709 0.0
H4418 H 0.30249 0.06649 0.98505 0.0
H4419 H 0.32516 0.0701 0.94598 0.0
H4420 H 0.31491 0.10528 0.93836 0.0
H4421 H 0.32571 0.09336 0.94963 0.0
H4422 H 0.28567 0.0611 0.96372 0.0
H4423 H 0.27484 0.07287 0.95226 0.0
C4424 C 0.31506 0.05713 0.98537 0.0
C4425 C 0.32407 0.05412 0.97765 0.0
C4426 C 0.30953 0.06449 0.97889 0.0
C4427 C 0.31301 0.06918 0.96461 0.0
C4428 C 0.32238 0.06666 0.95704 0.0
C4429 C 0.3278 0.05914 0.96346 0.0
C4430 C 0.30839 0.09552 0.94364 0.0
C4431 C 0.29396 0.0898 0.94411 0.0
C4432 C 0.31458 0.08874 0.95013 0.0
C4433 C 0.30651 0.07632 0.95751 0.0
C4434 C 0.29214 0.07071 0.95816 0.0
C4435 C 0.28593 0.07737 0.95151 0.0
H4436 H 0.96208 0.28131 0.94934 0.0
H4437 H 0.93733 0.26486 0.98775 0.0
H4438 H 0.94459 0.26181 0.93498 0.0
H4439 H 0.92003 0.24501 0.97344 0.0
H4440 H 0.8776 0.2155 0.94205 0.0
H4441 H 0.89966 0.23789 0.95874 0.0
H4442 H 0.93523 0.2394 0.92463 0.0
H4443 H 0.914 0.21726 0.90689 0.0
C4444 C 0.95292 0.27347 0.95473 0.0
C4445 C 0.95102 0.27471 0.96965 0.0
C4446 C 0.94298 0.26217 0.94653 0.0
C4447 C 0.9309 0.25187 0.95306 0.0
C4448 C 0.92913 0.2529 0.96805 0.0
C4449 C 0.93912 0.26419 0.97628 0.0
C4450 C 0.8882 0.22037 0.93847 0.0
C4451 C 0.89375 0.21239 0.92416 0.0
C4452 C 0.90209 0.23377 0.94925 0.0
C4453 C 0.91993 0.2405 0.94417 0.0
C4454 C 0.92451 0.23484 0.92766 0.0
C4455 C 0.91135 0.22148 0.91615 0.0
H4456 H 0.73778 0.69402 0.99629 0.0
H4457 H 0.71929 0.66369 0.96129 0.0
H4458 H 0.76023 0.70375 0.98473 0.0
H4459 H 0.74188 0.67333 0.94987 0.0
H4460 H 0.78832 0.68722 0.94269 0.0
H4461 H 0.76555 0.67641 0.95401 0.0
H4462 H 0.77077 0.71688 0.96226 0.0
H4463 H 0.79346 0.72764 0.95096 0.0
C4464 C 0.73848 0.68944 0.98611 0.0
C4465 C 0.72668 0.67815 0.97965 0.0
C4466 C 0.75136 0.69502 0.9795 0.0
C4467 C 0.75279 0.68938 0.96633 0.0
C4468 C 0.7411 0.67783 0.96007 0.0
C4469 C 0.72817 0.6723 0.96664 0.0
C4470 C 0.78448 0.69377 0.94671 0.0
C4471 C 0.79252 0.70827 0.94563 0.0
C4472 C 0.77147 0.68759 0.9532 0.0
C4473 C 0.76638 0.6958 0.95902 0.0
C4474 C 0.77446 0.71028 0.95799 0.0
C4475 C 0.78738 0.71644 0.9514 0.0
H4476 H 0.95056 0.6743 0.96116 0.0
H4477 H 0.94706 0.69087 0.00261 0.0
H4478 H 0.94119 0.68694 0.94898 0.0
H4479 H 0.93851 0.70422 0.99033 0.0
H4480 H 0.91504 0.7203 0.96454 0.0
H4481 H 0.92037 0.70428 0.97673 0.0
H4482 H 0.94986 0.71051 0.94327 0.0
H4483 H 0.94405 0.72596 0.93086 0.0
C4484 C 0.94761 0.68047 0.96772 0.0
C4485 C 0.94969 0.68165 0.98287 0.0
C4486 C 0.94244 0.68791 0.96069 0.0
C4487 C 0.93934 0.69682 0.96863 0.0
C4488 C 0.94075 0.69745 0.98386 0.0
C4489 C 0.94581 0.68991 0.9909 0.0
C4490 C 0.92264 0.71819 0.95982 0.0
C4491 C 0.92922 0.72447 0.94682 0.0
C4492 C 0.92573 0.70906 0.96681 0.0
C4493 C 0.93552 0.70605 0.96098 0.0
C4494 C 0.94207 0.71235 0.94795 0.0
C4495 C 0.9389 0.72136 0.94093 0.0
H4496 H 0.32523 0.28343 0.9469 0.0
H4497 H 0.32381 0.2676 0.98977 0.0
H4498 H 0.31285 0.2597 0.93696 0.0
H4499 H 0.3113 0.24399 0.97996 0.0
H4500 H 0.297 0.20317 0.95752 0.0
H4501 H 0.31328 0.22738 0.96398 0.0
H4502 H 0.28876 0.23985 0.93914 0.0
H4503 H 0.27257 0.2156 0.93256 0.0
C4504 C 0.32247 0.27489 0.95414 0.0
C4505 C 0.32541 0.27733 0.96911 0.0
C4506 C 0.31529 0.26132 0.94848 0.0
C4507 C 0.31106 0.24997 0.95768 0.0
C4508 C 0.31452 0.2525 0.97255 0.0
C4509 C 0.32159 0.26601 0.9782 0.0
C4510 C 0.29527 0.21112 0.95321 0.0
C4511 C 0.28361 0.20753 0.94444 0.0
C4512 C 0.30453 0.22496 0.95697 0.0
C4513 C 0.30228 0.23552 0.95212 0.0
C4514 C 0.29088 0.23197 0.9429 0.0
C4515 C 0.28159 0.21811 0.93916 0.0
H4516 H 0.73144 0.06536 0.97049 0.0
H4517 H 0.73703 0.03137 0.98266 0.0
H4518 H 0.75382 0.07631 0.95839 0.0
H4519 H 0.75948 0.04248 0.97104 0.0
H4520 H 0.79375 0.05938 0.93817 0.0
H4521 H 0.77008 0.04837 0.94718 0.0
H4522 H 0.77836 0.08769 0.96537 0.0
H4523 H 0.80189 0.09867 0.95615 0.0
C4524 C 0.73742 0.06022 0.97056 0.0
C4525 C 0.7325 0.04755 0.97764 0.0
C4526 C 0.75028 0.06653 0.96373 0.0
C4527 C 0.75843 0.06026 0.96374 0.0
C4528 C 0.75341 0.04751 0.97067 0.0
C4529 C 0.74061 0.04124 0.97753 0.0
C4530 C 0.79039 0.06568 0.94387 0.0
C4531 C 0.79959 0.0799 0.94633 0.0
C4532 C 0.7769 0.05937 0.94914 0.0
C4533 C 0.77235 0.06715 0.95704 0.0
C4534 C 0.78146 0.08144 0.95917 0.0
C4535 C 0.79495 0.08773 0.95393 0.0
H4536 H 0.70555 0.96934 0.03869 0.0
H4537 H 0.66528 0.93484 0.04892 0.0
H4538 H 0.71645 0.9574 0.04927 0.0
H4539 H 0.67627 0.92302 0.05999 0.0
H4540 H 0.70145 0.90021 0.0593 0.0
H4541 H 0.68916 0.91192 0.0517 0.0
H4542 H 0.72079 0.94986 0.07234 0.0
H4543 H 0.73319 0.93814 0.0797 0.0
C4544 C 0.69901 0.95919 0.0432 0.0
C4545 C 0.68453 0.95296 0.04281 0.0
C4546 C 0.70528 0.95243 0.04947 0.0
C4547 C 0.69724 0.93927 0.05551 0.0
C4548 C 0.68275 0.93311 0.05532 0.0
C4549 C 0.67646 0.93991 0.04908 0.0
C4550 C 0.70563 0.91099 0.06242 0.0
C4551 C 0.7182 0.91824 0.0702 0.0
C4552 C 0.69857 0.91768 0.05812 0.0
C4553 C 0.704 0.93183 0.06138 0.0
C4554 C 0.7164 0.93899 0.06952 0.0
C4555 C 0.72345 0.93227 0.07384 0.0
H4556 H 0.02977 0.73673 0.03934 0.0
H4557 H 0.06475 0.73259 0.05142 0.0
H4558 H 0.04153 0.76028 0.04921 0.0
H4559 H 0.0764 0.75612 0.06178 0.0
H4560 H 0.09851 0.80433 0.05984 0.0
H4561 H 0.08705 0.77984 0.0528 0.0
H4562 H 0.04917 0.77339 0.07199 0.0
H4563 H 0.06063 0.79798 0.07876 0.0
C4564 C 0.03999 0.74086 0.04411 0.0
C4565 C 0.04639 0.73283 0.04445 0.0
C4566 C 0.04665 0.7543 0.04996 0.0
C4567 C 0.05989 0.76008 0.05632 0.0
C4568 C 0.06624 0.752 0.05685 0.0
C4569 C 0.05953 0.7385 0.05102 0.0
C4570 C 0.08781 0.79761 0.06276 0.0
C4571 C 0.0805 0.80301 0.06997 0.0
C4572 C 0.08125 0.78358 0.05877 0.0
C4573 C 0.06719 0.77467 0.06181 0.0
C4574 C 0.05997 0.78002 0.06936 0.0
C4575 C 0.06654 0.79405 0.07335 0.0
H4576 H 0.27213 0.30561 0.02812 0.0
H4577 H 0.28316 0.34414 0.0504 0.0
H4578 H 0.24917 0.29484 0.0387 0.0
H4579 H 0.26016 0.33326 0.06122 0.0
H4580 H 0.21185 0.31265 0.05964 0.0
H4581 H 0.23597 0.32412 0.05208 0.0
H4582 H 0.23763 0.2875 0.06256 0.0
H4583 H 0.21345 0.27601 0.07007 0.0
C4584 C 0.26962 0.31178 0.03528 0.0
C4585 C 0.27939 0.32576 0.03833 0.0
C4586 C 0.25653 0.30556 0.04147 0.0
C4587 C 0.25287 0.31319 0.05081 0.0
C4588 C 0.26267 0.32715 0.05399 0.0
C4589 C 0.27584 0.33335 0.04788 0.0
C4590 C 0.21745 0.30714 0.06053 0.0
C4591 C 0.21081 0.29346 0.06547 0.0
C4592 C 0.23126 0.31372 0.05625 0.0
C4593 C 0.23867 0.30669 0.05668 0.0
C4594 C 0.23213 0.29312 0.06197 0.0
C4595 C 0.21835 0.28658 0.06634 0.0
H4596 H 0.73508 0.69277 0.3876 0.0
H4597 H 0.71376 0.64897 0.37692 0.0
H4598 H 0.75327 0.69081 0.39973 0.0
H4599 H 0.73211 0.64706 0.38903 0.0
H4600 H 0.77642 0.64649 0.39919 0.0
H4601 H 0.75464 0.64924 0.38556 0.0
H4602 H 0.76221 0.6869 0.42125 0.0
H4603 H 0.7841 0.68511 0.43567 0.0
C4604 C 0.73416 0.68268 0.38801 0.0
C4605 C 0.72292 0.67103 0.38126 0.0
C4606 C 0.74461 0.68154 0.395 0.0
C4607 C 0.74411 0.66876 0.39538 0.0
C4608 C 0.73289 0.6571 0.38872 0.0
C4609 C 0.72238 0.6582 0.38178 0.0
C4610 C 0.77411 0.6543 0.40288 0.0
C4611 C 0.78086 0.66387 0.42053 0.0
C4612 C 0.76012 0.65563 0.39496 0.0
C4613 C 0.7554 0.66772 0.40241 0.0
C4614 C 0.76501 0.67952 0.4173 0.0
C4615 C 0.77913 0.67897 0.42595 0.0
H4616 H 0.34088 0.04058 0.41586 0.0
H4617 H 0.33109 0.06065 0.38202 0.0
H4618 H 0.34926 0.06125 0.43148 0.0
H4619 H 0.33924 0.0813 0.39779 0.0
H4620 H 0.34143 0.11565 0.43696 0.0
H4621 H 0.33123 0.09059 0.4194 0.0
H4622 H 0.37036 0.08447 0.43616 0.0
H4623 H 0.38168 0.10938 0.454 0.0
C4624 C 0.34045 0.0494 0.41184 0.0
C4625 C 0.33534 0.04907 0.39779 0.0
C4626 C 0.34534 0.06125 0.4207 0.0
C4627 C 0.34492 0.07283 0.41578 0.0
C4628 C 0.33958 0.07244 0.40184 0.0
C4629 C 0.33499 0.06069 0.39283 0.0
C4630 C 0.34647 0.10958 0.43723 0.0
C4631 C 0.36411 0.11649 0.44528 0.0
C4632 C 0.34058 0.09435 0.42583 0.0
C4633 C 0.3501 0.08529 0.42516 0.0
C4634 C 0.36521 0.09043 0.43649 0.0
C4635 C 0.37197 0.10553 0.44819 0.0
H4636 H 0.93837 0.28939 0.35676 0.0
H4637 H 0.95418 0.27806 0.39369 0.0
H4638 H 0.91521 0.2772 0.36699 0.0
H4639 H 0.93095 0.26591 0.404 0.0
H4640 H 0.88384 0.23247 0.40688 0.0
H4641 H 0.90744 0.24473 0.39766 0.0
H4642 H 0.90339 0.28029 0.38881 0.0
H4643 H 0.87983 0.26808 0.39815 0.0
C4644 C 0.93686 0.2842 0.36702 0.0
C4645 C 0.94806 0.28463 0.37442 0.0
C4646 C 0.92364 0.27735 0.37294 0.0
C4647 C 0.9213 0.27066 0.38631 0.0
C4648 C 0.93246 0.27093 0.39364 0.0
C4649 C 0.94574 0.27793 0.38779 0.0
C4650 C 0.88808 0.243 0.40322 0.0
C4651 C 0.8801 0.24946 0.40356 0.0
C4652 C 0.90158 0.24999 0.39793 0.0
C4653 C 0.90724 0.26346 0.39256 0.0
C4654 C 0.89925 0.26989 0.39282 0.0
C4655 C 0.88583 0.26296 0.39826 0.0
H4656 H 0.03797 0.39925 0.29651 0.0
H4657 H 0.99603 0.3846 0.30989 0.0
H4658 H 0.03887 0.41941 0.28565 0.0
H4659 H 0.99663 0.40446 0.29855 0.0
H4660 H 0.00904 0.45001 0.29411 0.0
H4661 H 0.00671 0.42849 0.3028 0.0
H4662 H 0.03114 0.42798 0.2668 0.0
H4663 H 0.03401 0.44988 0.2586 0.0
C4664 C 0.02886 0.40024 0.29687 0.0
C4665 C 0.01697 0.39045 0.30411 0.0
C4666 C 0.02932 0.41176 0.29059 0.0
C4667 C 0.01784 0.41365 0.29126 0.0
C4668 C 0.00578 0.40354 0.29809 0.0
C4669 C 0.00539 0.39212 0.30453 0.0
C4670 C 0.01374 0.44517 0.28798 0.0
C4671 C 0.02147 0.45149 0.27554 0.0
C4672 C 0.01236 0.43279 0.29289 0.0
C4673 C 0.01867 0.4264 0.28547 0.0
C4674 C 0.02626 0.43266 0.27289 0.0
C4675 C 0.02777 0.44513 0.26807 0.0
H4676 H 0.61669 0.59648 0.32121 0.0
H4677 H 0.6211 0.61978 0.28258 0.0
H4678 H 0.60569 0.57505 0.30676 0.0
H4679 H 0.61031 0.5984 0.26809 0.0
H4680 H 0.57994 0.5539 0.23958 0.0
H4681 H 0.59132 0.57903 0.25693 0.0
H4682 H 0.61098 0.56028 0.29309 0.0
H4683 H 0.60005 0.53464 0.27679 0.0
C4684 C 0.61529 0.59701 0.30963 0.0
C4685 C 0.61983 0.60983 0.30302 0.0
C4686 C 0.60905 0.58474 0.30132 0.0
C4687 C 0.60725 0.58502 0.28625 0.0
C4688 C 0.61135 0.59777 0.27971 0.0
C4689 C 0.61756 0.61005 0.28802 0.0
C4690 C 0.58627 0.55538 0.2491 0.0
C4691 C 0.58666 0.54068 0.25792 0.0
C4692 C 0.59285 0.5707 0.26037 0.0
C4693 C 0.60174 0.57218 0.27734 0.0
C4694 C 0.60507 0.5588 0.28324 0.0
C4695 C 0.59909 0.54313 0.27273 0.0
H4696 H 0.38237 0.97759 0.33236 0.0
H4697 H 0.37501 0.99532 0.29429 0.0
H4698 H 0.40148 0.9774 0.32015 0.0
H4699 H 0.39383 0.99453 0.28193 0.0
H4700 H 0.41702 0.97308 0.26148 0.0
H4701 H 0.39859 0.97518 0.27317 0.0
H4702 H 0.42526 0.99533 0.31041 0.0
H4703 H 0.44379 0.99346 0.29864 0.0
C4704 C 0.38487 0.98158 0.32146 0.0
C4705 C 0.37712 0.98653 0.31438 0.0
C4706 C 0.3958 0.9814 0.31445 0.0
C4707 C 0.39912 0.98597 0.30012 0.0
C4708 C 0.39139 0.99084 0.29295 0.0
C4709 C 0.38057 0.99122 0.30003 0.0
C4710 C 0.41904 0.97821 0.27203 0.0
C4711 C 0.43197 0.9834 0.27903 0.0
C4712 C 0.4085 0.97939 0.27871 0.0
C4713 C 0.41054 0.98545 0.29266 0.0
C4714 C 0.42341 0.99058 0.29967 0.0
C4715 C 0.43402 0.98959 0.29291 0.0
H4716 H 0.59793 0.96778 0.30082 0.0
H4717 H 0.62842 0.01141 0.30411 0.0
H4718 H 0.58141 0.97338 0.29023 0.0
H4719 H 0.61175 0.01703 0.29432 0.0
H4720 H 0.58254 0.02416 0.26796 0.0
H4721 H 0.59897 0.01662 0.2735 0.0
H4722 H 0.56783 0.98302 0.29862 0.0
H4723 H 0.55129 0.99027 0.29254 0.0
C4724 C 0.60115 0.97855 0.29918 0.0
C4725 C 0.61445 0.98915 0.30346 0.0
C4726 C 0.59163 0.98177 0.29326 0.0
C4727 C 0.5952 0.99566 0.29151 0.0
C4728 C 0.60866 0.00622 0.29535 0.0
C4729 C 0.61817 0.003 0.30119 0.0
C4730 C 0.57913 0.01497 0.27436 0.0
C4731 C 0.56556 0.00765 0.27962 0.0
C4732 C 0.58858 0.01072 0.27768 0.0
C4733 C 0.58475 0.99923 0.28656 0.0
C4734 C 0.57108 0.99176 0.29155 0.0
C4735 C 0.56161 0.99594 0.28813 0.0
H4736 H 0.02761 0.63201 0.29567 0.0
H4737 H 0.98581 0.61381 0.31134 0.0
H4738 H 0.02214 0.6096 0.28516 0.0
H4739 H 0.98048 0.59138 0.30127 0.0
H4740 H 0.97154 0.55501 0.27198 0.0
H4741 H 0.97742 0.57865 0.27848 0.0
H4742 H 0.01727 0.58722 0.29467 0.0
H4743 H 0.01144 0.56368 0.28794 0.0
C4744 C 0.01723 0.62326 0.29676 0.0
C4745 C 0.00717 0.62466 0.30442 0.0
C4746 C 0.01413 0.6104 0.29086 0.0
C4747 C 0.00089 0.5987 0.29242 0.0
C4748 C 0.99074 0.6002 0.29974 0.0
C4749 C 0.99385 0.61302 0.30568 0.0
C4750 C 0.98163 0.56205 0.27669 0.0
C4751 C 0.99109 0.55757 0.27932 0.0
C4752 C 0.98497 0.57554 0.28051 0.0
C4753 C 0.9978 0.5848 0.28711 0.0
C4754 C 0.00738 0.58041 0.28941 0.0
C4755 C 0.00403 0.56692 0.28562 0.0
H4756 H 0.38087 0.39326 0.29811 0.0
H4757 H 0.39614 0.37051 0.32167 0.0
H4758 H 0.40355 0.4072 0.28713 0.0
H4759 H 0.41869 0.38431 0.31061 0.0
H4760 H 0.453 0.40204 0.27712 0.0
H4761 H 0.42965 0.38789 0.28664 0.0
H4762 H 0.42743 0.42485 0.29452 0.0
H4763 H 0.45069 0.43893 0.2849 0.0
C4764 C 0.38907 0.39129 0.30102 0.0
C4765 C 0.38666 0.38072 0.31072 0.0
C4766 C 0.40205 0.39925 0.29471 0.0
C4767 C 0.41288 0.39679 0.29793 0.0
C4768 C 0.41049 0.38628 0.30768 0.0
C4769 C 0.39755 0.37837 0.31402 0.0
C4770 C 0.44742 0.40709 0.28074 0.0
C4771 C 0.45359 0.42156 0.28016 0.0
C4772 C 0.43413 0.39902 0.28628 0.0
C4773 C 0.42672 0.40526 0.29135 0.0
C4774 C 0.4328 0.41972 0.29053 0.0
C4775 C 0.44612 0.42778 0.28506 0.0
H4776 H 0.36502 0.3065 0.38107 0.0
H4777 H 0.32475 0.27016 0.38655 0.0
H4778 H 0.37594 0.29402 0.39009 0.0
H4779 H 0.33571 0.25775 0.39619 0.0
H4780 H 0.36182 0.23622 0.39083 0.0
H4781 H 0.34915 0.24821 0.38622 0.0
H4782 H 0.37998 0.28378 0.41088 0.0
H4783 H 0.39283 0.27186 0.4151 0.0
C4784 C 0.35848 0.29585 0.38431 0.0
C4785 C 0.34402 0.28926 0.38289 0.0
C4786 C 0.36475 0.28874 0.38969 0.0
C4787 C 0.35671 0.27486 0.39385 0.0
C4788 C 0.34221 0.2684 0.39293 0.0
C4789 C 0.33592 0.27553 0.38753 0.0
C4790 C 0.36572 0.24649 0.3955 0.0
C4791 C 0.37822 0.25304 0.40345 0.0
C4792 C 0.35844 0.25336 0.39291 0.0
C4793 C 0.36355 0.26698 0.39816 0.0
C4794 C 0.37583 0.27335 0.40654 0.0
C4795 C 0.38313 0.2665 0.40909 0.0
H4796 H 0.71101 0.04534 0.39717 0.0
H4797 H 0.70623 0.06065 0.35597 0.0
H4798 H 0.72136 0.06857 0.40766 0.0
H4799 H 0.71557 0.08363 0.36677 0.0
H4800 H 0.74403 0.12631 0.38669 0.0
H4801 H 0.73565 0.10339 0.37574 0.0
H4802 H 0.71509 0.08456 0.4158 0.0
H4803 H 0.72416 0.10744 0.42689 0.0
C4804 C 0.7122 0.05364 0.39031 0.0
C4805 C 0.7077 0.05104 0.3757 0.0
C4806 C 0.71794 0.06696 0.39641 0.0
C4807 C 0.7192 0.07801 0.38813 0.0
C4808 C 0.71491 0.07545 0.37347 0.0
C4809 C 0.70933 0.06217 0.36732 0.0
C4810 C 0.73772 0.11724 0.39312 0.0
C4811 C 0.73462 0.11867 0.40759 0.0
C4812 C 0.73284 0.10409 0.38683 0.0
C4813 C 0.72465 0.09206 0.39485 0.0
C4814 C 0.72155 0.09354 0.40933 0.0
C4815 C 0.72657 0.10667 0.41565 0.0
H4816 H 0.94963 0.68165 0.38274 0.0
H4817 H 0.94473 0.64112 0.37589 0.0
H4818 H 0.92633 0.67094 0.39248 0.0
H4819 H 0.92124 0.63041 0.38487 0.0
H4820 H 0.8826 0.61455 0.41142 0.0
H4821 H 0.90722 0.62649 0.40577 0.0
H4822 H 0.90307 0.65787 0.3833 0.0
H4823 H 0.87863 0.64615 0.38939 0.0
C4824 C 0.94364 0.67046 0.38339 0.0
C4825 C 0.94905 0.66226 0.37841 0.0
C4826 C 0.9302 0.66431 0.38882 0.0
C4827 C 0.92184 0.64979 0.38938 0.0
C4828 C 0.92739 0.64162 0.38475 0.0
C4829 C 0.94083 0.64776 0.37938 0.0
C4830 C 0.88705 0.62416 0.40555 0.0
C4831 C 0.87876 0.62957 0.40108 0.0
C4832 C 0.90112 0.63093 0.40217 0.0
C4833 C 0.90717 0.64317 0.39407 0.0
C4834 C 0.89887 0.64864 0.38979 0.0
C4835 C 0.88484 0.64191 0.39323 0.0
H4836 H 0.38432 0.99474 0.71552 0.0
H4837 H 0.40473 0.03935 0.71354 0.0
H4838 H 0.40512 0.99668 0.72646 0.0
H4839 H 0.42549 0.0413 0.72437 0.0
H4840 H 0.4576 0.04114 0.75401 0.0
H4841 H 0.43528 0.03797 0.74631 0.0
H4842 H 0.42829 0.00327 0.71888 0.0
H4843 H 0.45041 0.00626 0.7269 0.0
C4844 C 0.39325 0.00495 0.71741 0.0
C4845 C 0.39289 0.01689 0.71363 0.0
C4846 C 0.40516 0.00607 0.72368 0.0
C4847 C 0.41699 0.01914 0.72627 0.0
C4848 C 0.41651 0.03108 0.72275 0.0
C4849 C 0.4046 0.02996 0.71653 0.0
C4850 C 0.45114 0.03268 0.74656 0.0
C4851 C 0.45562 0.02379 0.74124 0.0
C4852 C 0.43844 0.03094 0.74203 0.0
C4853 C 0.42999 0.02037 0.73197 0.0
C4854 C 0.43441 0.01137 0.72682 0.0
C4855 C 0.4471 0.0131 0.73137 0.0
H4856 H 0.01696 0.38247 0.72199 0.0
H4857 H 0.97602 0.37484 0.7116 0.0
H4858 H 0.02252 0.40405 0.73396 0.0
H4859 H 0.98129 0.3961 0.72467 0.0
H4860 H 0.99572 0.44564 0.73849 0.0
H4861 H 0.98951 0.42008 0.72373 0.0
H4862 H 0.02485 0.41665 0.75439 0.0
H4863 H 0.03193 0.44202 0.76962 0.0
C4864 C 0.0091 0.38538 0.72228 0.0
C4865 C 0.99607 0.37692 0.71567 0.0
C4866 C 0.01222 0.3977 0.72945 0.0
C4867 C 0.00233 0.40183 0.73042 0.0
C4868 C 0.98923 0.39334 0.72398 0.0
C4869 C 0.98613 0.38103 0.71665 0.0
C4870 C 0.00143 0.4405 0.74098 0.0
C4871 C 0.0128 0.44516 0.75743 0.0
C4872 C 0.99717 0.42421 0.73239 0.0
C4873 C 0.00581 0.41499 0.73794 0.0
C4874 C 0.01961 0.42215 0.75148 0.0
C4875 C 0.02459 0.43833 0.76064 0.0
H4876 H 0.60763 0.59954 0.69926 0.0
H4877 H 0.61644 0.63635 0.72382 0.0
H4878 H 0.58513 0.58672 0.71094 0.0
H4879 H 0.59417 0.62355 0.73569 0.0
H4880 H 0.54729 0.60176 0.73999 0.0
H4881 H 0.57027 0.61397 0.72947 0.0
H4882 H 0.57346 0.57725 0.73345 0.0
H4883 H 0.55021 0.56492 0.74354 0.0
C4884 C 0.60483 0.60482 0.70731 0.0
C4885 C 0.61372 0.61897 0.71052 0.0
C4886 C 0.59196 0.59749 0.71403 0.0
C4887 C 0.58778 0.60414 0.72417 0.0
C4888 C 0.59691 0.61818 0.72769 0.0
C4889 C 0.60969 0.62551 0.72092 0.0
C4890 C 0.55299 0.59637 0.73877 0.0
C4891 C 0.5471 0.58251 0.74293 0.0
C4892 C 0.56618 0.60336 0.73278 0.0
C4893 C 0.5738 0.59664 0.73075 0.0
C4894 C 0.56786 0.58272 0.7348 0.0
C4895 C 0.55461 0.5757 0.74074 0.0
H4896 H 0.63906 0.70022 0.64704 0.0
H4897 H 0.6783 0.72802 0.62738 0.0
H4898 H 0.62887 0.71243 0.63559 0.0
H4899 H 0.66789 0.73996 0.61537 0.0
H4900 H 0.64763 0.76729 0.6119 0.0
H4901 H 0.65876 0.75514 0.62174 0.0
H4902 H 0.62185 0.71589 0.61192 0.0
H4903 H 0.61069 0.72808 0.60239 0.0
C4904 C 0.64553 0.70897 0.64029 0.0
C4905 C 0.65954 0.71322 0.63824 0.0
C4906 C 0.63963 0.71585 0.63354 0.0
C4907 C 0.64754 0.72713 0.62451 0.0
C4908 C 0.66154 0.73136 0.62236 0.0
C4909 C 0.66747 0.72445 0.62913 0.0
C4910 C 0.642 0.75607 0.61167 0.0
C4911 C 0.62836 0.74861 0.6062 0.0
C4912 C 0.64837 0.7491 0.61726 0.0
C4913 C 0.64119 0.73455 0.61763 0.0
C4914 C 0.62762 0.72712 0.61196 0.0
C4915 C 0.62126 0.73407 0.60638 0.0
H4916 H 0.26944 0.94415 0.63479 0.0
H4917 H 0.30982 0.95056 0.62469 0.0
H4918 H 0.25866 0.92198 0.62139 0.0
H4919 H 0.2991 0.92861 0.61118 0.0
H4920 H 0.27734 0.87751 0.59783 0.0
H4921 H 0.28994 0.90408 0.61271 0.0
H4922 H 0.25132 0.91141 0.59672 0.0
H4923 H 0.23772 0.88497 0.58135 0.0
C4924 C 0.27598 0.94081 0.62972 0.0
C4925 C 0.29046 0.94909 0.63073 0.0
C4926 C 0.26983 0.92819 0.62196 0.0
C4927 C 0.27805 0.92358 0.61528 0.0
C4928 C 0.29249 0.9318 0.61638 0.0
C4929 C 0.29864 0.94445 0.62398 0.0
C4930 C 0.27291 0.88409 0.59699 0.0
C4931 C 0.25493 0.87736 0.59023 0.0
C4932 C 0.28031 0.90037 0.6068 0.0
C4933 C 0.27164 0.91029 0.60712 0.0
C4934 C 0.25587 0.9049 0.59685 0.0
C4935 C 0.24765 0.88878 0.58668 0.0
H4936 H 0.05033 0.33201 0.6227 0.0
H4937 H 0.06835 0.34753 0.66541 0.0
H4938 H 0.07348 0.34222 0.61256 0.0
H4939 H 0.09138 0.35825 0.65504 0.0
H4940 H 0.12829 0.38879 0.62667 0.0
H4941 H 0.10487 0.37792 0.6364 0.0
H4942 H 0.09514 0.33909 0.61581 0.0
H4943 H 0.11863 0.3498 0.60638 0.0
C4944 C 0.05916 0.33747 0.62997 0.0
C4945 C 0.05738 0.33893 0.64492 0.0
C4946 C 0.07242 0.34339 0.62412 0.0
C4947 C 0.08417 0.35108 0.63301 0.0
C4948 C 0.08246 0.35252 0.64791 0.0
C4949 C 0.06924 0.34643 0.65382 0.0
C4950 C 0.1211 0.37796 0.62413 0.0
C4951 C 0.12525 0.37026 0.61552 0.0
C4952 C 0.10776 0.37174 0.62976 0.0
C4953 C 0.09822 0.3577 0.62679 0.0
C4954 C 0.10227 0.34998 0.6181 0.0
C4955 C 0.11571 0.35614 0.61268 0.0
H4956 H 0.29554 0.34357 0.62227 0.0
H4957 H 0.27394 0.3375 0.66272 0.0
H4958 H 0.28383 0.35515 0.61244 0.0
H4959 H 0.26263 0.34945 0.65312 0.0
H4960 H 0.23642 0.36255 0.6291 0.0
H4961 H 0.2458 0.3478 0.63542 0.0
H4962 H 0.28492 0.37734 0.61669 0.0
H4963 H 0.27537 0.39194 0.61013 0.0
C4964 C 0.28816 0.34454 0.62899 0.0
C4965 C 0.2857 0.33966 0.6433 0.0
C4966 C 0.28157 0.35132 0.62342 0.0
C4967 C 0.27234 0.35328 0.63201 0.0
C4968 C 0.26956 0.34799 0.64614 0.0
C4969 C 0.27616 0.34127 0.65171 0.0
C4970 C 0.24693 0.36574 0.6261 0.0
C4971 C 0.25513 0.37832 0.61902 0.0
C4972 C 0.25235 0.35736 0.62981 0.0
C4973 C 0.26613 0.36142 0.62663 0.0
C4974 C 0.27421 0.37381 0.61914 0.0
C4975 C 0.26878 0.3822 0.61541 0.0
H4976 H 0.66858 0.93911 0.65396 0.0
H4977 H 0.65641 0.95159 0.61505 0.0
H4978 H 0.65618 0.91514 0.64526 0.0
H4979 H 0.64449 0.92766 0.60604 0.0
H4980 H 0.6099 0.88126 0.60513 0.0
H4981 H 0.62385 0.90591 0.61146 0.0
H4982 H 0.6565 0.89951 0.6273 0.0
H4983 H 0.64236 0.87485 0.62132 0.0
C4984 C 0.66333 0.93675 0.6435 0.0
C4985 C 0.66345 0.94728 0.63525 0.0
C4986 C 0.65635 0.92302 0.63842 0.0
C4987 C 0.64933 0.91945 0.62493 0.0
C4988 C 0.64967 0.93002 0.61654 0.0
C4989 C 0.65666 0.94377 0.62163 0.0
C4990 C 0.62014 0.8852 0.60977 0.0
C4991 C 0.62508 0.87617 0.61267 0.0
C4992 C 0.62816 0.89932 0.61336 0.0
C4993 C 0.64128 0.9047 0.61996 0.0
C4994 C 0.64636 0.89569 0.62245 0.0
C4995 C 0.63832 0.88159 0.6189 0.0
H4996 H 0.0478 0.72741 0.63206 0.0
H4997 H 0.05685 0.69907 0.65413 0.0
H4998 H 0.07127 0.73952 0.62244 0.0
H4999 H 0.08032 0.71128 0.64474 0.0
H5000 H 0.11761 0.72874 0.61505 0.0
H5001 H 0.09312 0.71589 0.62151 0.0
H5002 H 0.095 0.75439 0.63283 0.0
H5003 H 0.1194 0.76717 0.62637 0.0
C5004 C 0.05478 0.72373 0.63478 0.0
C5005 C 0.05051 0.71235 0.64392 0.0
C5006 C 0.06823 0.73071 0.62936 0.0
C5007 C 0.07765 0.72635 0.63283 0.0
C5008 C 0.07328 0.71481 0.64175 0.0
C5009 C 0.05988 0.70792 0.64727 0.0
C5010 C 0.11271 0.73443 0.61875 0.0
C5011 C 0.12039 0.74895 0.62019 0.0
C5012 C 0.09874 0.72709 0.62252 0.0
C5013 C 0.09215 0.73413 0.62772 0.0
C5014 C 0.09974 0.74868 0.62871 0.0
C5015 C 0.11372 0.756 0.62506 0.0
H5016 H 0.97042 0.60601 0.72713 0.0
H5017 H 0.00253 0.61472 0.69602 0.0
H5018 H 0.97366 0.58791 0.73747 0.0
H5019 H 0.00602 0.59692 0.70675 0.0
H5020 H 0.01651 0.57259 0.73957 0.0
H5021 H 0.014 0.59172 0.73064 0.0
H5022 H 0.96968 0.56463 0.72841 0.0
H5023 H 0.97219 0.54552 0.73715 0.0
C5024 C 0.97814 0.60407 0.72244 0.0
C5025 C 0.98614 0.6118 0.71064 0.0
C5026 C 0.98003 0.59374 0.72844 0.0
C5027 C 0.99007 0.59101 0.7229 0.0
C5028 C 0.9983 0.59892 0.71134 0.0
C5029 C 0.99631 0.60915 0.70523 0.0
C5030 C 0.00625 0.57076 0.73717 0.0
C5031 C 0.99455 0.55755 0.73896 0.0
C5032 C 0.00482 0.58168 0.73205 0.0
C5033 C 0.99165 0.57964 0.72882 0.0
C5034 C 0.97994 0.56652 0.73094 0.0
C5035 C 0.98138 0.55558 0.73589 0.0
H5036 H 0.39884 0.38842 0.71927 0.0
H5037 H 0.36406 0.39346 0.7089 0.0
H5038 H 0.41109 0.41184 0.72992 0.0
H5039 H 0.37642 0.41691 0.71899 0.0
H5040 H 0.39715 0.45512 0.7473 0.0
H5041 H 0.38505 0.43037 0.74127 0.0
H5042 H 0.42198 0.43542 0.72095 0.0
H5043 H 0.4341 0.46007 0.72732 0.0
C5044 C 0.39378 0.39449 0.71934 0.0
C5045 C 0.38054 0.38914 0.7131 0.0
C5046 C 0.40083 0.40793 0.72534 0.0
C5047 C 0.39475 0.41626 0.72528 0.0
C5048 C 0.38136 0.41074 0.71937 0.0
C5049 C 0.37435 0.39735 0.71339 0.0
C5050 C 0.40273 0.45085 0.74183 0.0
C5051 C 0.41661 0.45947 0.73793 0.0
C5052 C 0.39579 0.43671 0.73826 0.0
C5053 C 0.40253 0.43091 0.73057 0.0
C5054 C 0.41653 0.43949 0.72705 0.0
C5055 C 0.42347 0.45362 0.73065 0.0
H5056 H 0.6156 0.011 0.68444 0.0
H5057 H 0.63431 0.01412 0.7265 0.0
H5058 H 0.59428 0.00654 0.69617 0.0
H5059 H 0.61297 0.00979 0.73828 0.0
H5060 H 0.56604 0.98314 0.75016 0.0
H5061 H 0.58848 0.98948 0.73977 0.0
H5062 H 0.5857 0.01883 0.7121 0.0
H5063 H 0.56329 0.01252 0.72253 0.0
C5064 C 0.61515 0.01076 0.6962 0.0
C5065 C 0.62659 0.01287 0.70456 0.0
C5066 C 0.603 0.00833 0.70292 0.0
C5067 C 0.60198 0.00783 0.71814 0.0
C5068 C 0.61345 0.01004 0.72652 0.0
C5069 C 0.62568 0.01262 0.7198 0.0
C5070 C 0.57036 0.99114 0.74207 0.0
C5071 C 0.56306 0.99756 0.73735 0.0
C5072 C 0.58319 0.99476 0.73613 0.0
C5073 C 0.58884 0.00468 0.72516 0.0
C5074 C 0.58156 0.01111 0.72049 0.0
C5075 C 0.56881 0.00758 0.72652 0.0
loop_
_geom_bond_atom_site_label_1
_geom_bond_atom_site_label_2
_geom_bond_distance
_geom_bond_site_symmetry_2
_ccdc_geom_bond_type
Li0 N17 1.973 1_554 S
Li0 O60 2.016 . S
Li0 O61 1.943 1_654 S
Li0 O62 1.955 1_554 S
Li1 N25 1.990 . S
Li1 O60 1.970 1_455 S
Li1 O61 1.956 1_554 S
Li1 O63 1.961 . S
Li2 N47 1.990 . S
Li2 O60 1.961 . S
Li2 O62 1.908 1_554 S
Li2 O63 1.970 1_655 S
Li3 N53 1.990 . S
Li3 O61 1.961 . S
Li3 O62 1.986 1_455 S
Li3 O63 1.956 1_556 S
C4 C6 1.320 1_655 S
C4 C7 1.356 . S
C4 O60 1.325 . S
N5 C8 1.314 . S
N5 C9 1.279 . S
C6 C4 1.320 1_455 S
C6 C8 1.351 1_455 S
C6 H64 0.959 . S
C7 C4 1.356 . S
C7 C9 1.358 . S
C7 H65 0.930 . S
C8 N5 1.314 . S
C8 C6 1.351 1_655 S
C8 H66 0.923 . S
C9 N5 1.279 . S
C9 C7 1.358 . S
C9 H67 0.930 . S
C10 C13 1.348 . S
C10 C14 1.356 . S
C10 O61 1.325 . S
C11 N12 1.279 . S
C11 C14 1.358 . S
C11 H68 0.930 . S
N12 C11 1.279 . S
N12 C15 1.314 . S
C13 C10 1.348 . S
C13 C15 1.353 . S
C13 H69 0.942 . S
C14 C10 1.356 . S
C14 C11 1.358 . S
C14 H70 0.930 . S
C15 N12 1.314 . S
C15 C13 1.353 . S
C15 H71 0.930 . S
C16 N17 1.314 . S
C16 C21 1.353 . S
C16 H22 0.930 . S
N17 Li0 1.973 1_556 S
N17 C16 1.314 . S
N17 C19 1.259 1_556 S
C18 C19 1.345 1_556 S
C18 C20 1.356 . S
C18 H72 0.930 1_556 S
C19 N17 1.259 1_554 S
C19 C18 1.345 1_554 S
C19 H23 0.970 . S
C20 C18 1.356 . S
C20 C21 1.348 . S
C21 C16 1.353 . S
C21 C20 1.348 . S
C21 H73 0.929 . S
H22 C16 0.930 . S
H23 C19 0.970 . S
C24 N25 1.314 . S
C24 C26 1.353 . S
C24 H30 0.930 . S
N25 Li1 1.990 . S
N25 C24 1.314 . S
N25 C28 1.279 . S
C26 C24 1.353 . S
C26 C29 1.348 . S
C26 H74 0.929 . S
C27 C28 1.358 . S
C27 C29 1.356 . S
C27 H75 0.930 . S
C28 N25 1.279 . S
C28 C27 1.358 . S
C28 H31 0.930 . S
C29 C26 1.348 . S
C29 C27 1.356 . S
H30 C24 0.930 . S
H31 C28 0.930 . S
C32 C34 1.348 . S
C32 C35 1.379 . S
C32 O62 1.341 . S
N33 C36 1.314 . S
N33 C37 1.279 . S
C34 C32 1.348 . S
C34 C36 1.353 . S
C34 H76 0.929 . S
C35 C32 1.379 . S
C35 C37 1.384 . S
C35 H77 0.887 1_556 S
C36 N33 1.314 . S
C36 C34 1.353 . S
C36 H78 0.930 . S
C37 N33 1.279 . S
C37 C35 1.384 . S
C37 H79 0.930 . S
C38 C39 1.348 . S
C38 C40 1.356 . S
C38 O63 1.325 . S
C39 C38 1.348 . S
C39 C41 1.353 . S
C39 H80 0.929 . S
C40 C38 1.356 . S
C40 C42 1.358 . S
C40 H81 0.930 . S
C41 C39 1.353 . S
C41 N43 1.314 . S
C41 H82 0.930 . S
C42 C40 1.358 . S
C42 N43 1.279 . S
C42 H83 0.930 . S
N43 C41 1.314 . S
N43 C42 1.279 . S
C44 C46 1.353 . S
C44 N47 1.314 . S
C44 H50 1.019 . S
C45 N47 1.279 . S
C45 C48 1.358 . S
C45 H51 0.930 . S
C46 C44 1.353 . S
C46 C49 1.348 . S
C46 H84 0.929 . S
N47 Li2 1.990 . S
N47 C44 1.314 . S
N47 C45 1.279 . S
C48 C45 1.358 . S
C48 C49 1.356 . S
C48 H85 0.930 . S
C49 C46 1.348 . S
C49 C48 1.356 . S
H50 C44 1.019 . S
H51 C45 0.930 . S
C52 N53 1.314 . S
C52 C54 1.353 . S
C52 H58 0.930 . S
N53 Li3 1.990 . S
N53 C52 1.314 . S
N53 C56 1.279 . S
C54 C52 1.353 . S
C54 C57 1.348 . S
C54 H86 0.929 . S
C55 C56 1.358 . S
C55 C57 1.356 . S
C55 H87 0.930 . S
C56 N53 1.279 . S
C56 C55 1.358 . S
C56 H59 0.930 . S
C57 C54 1.348 . S
C57 C55 1.356 . S
H58 C52 0.930 . S
H59 C56 0.930 . S
O60 Li0 2.016 . S
O60 Li1 1.970 1_655 S
O60 Li2 1.961 . S
O60 C4 1.325 . S
O61 Li0 1.943 1_456 S
O61 Li1 1.956 1_556 S
O61 Li3 1.961 . S
O61 C10 1.325 . S
O62 Li0 1.955 1_556 S
O62 Li2 1.908 1_556 S
O62 Li3 1.986 1_655 S
O62 C32 1.341 . S
O63 Li1 1.961 . S
O63 Li2 1.970 1_455 S
O63 Li3 1.956 1_554 S
O63 C38 1.325 . S
H64 C6 0.959 . S
H65 C7 0.930 . S
H66 C8 0.923 . S
H67 C9 0.930 . S
H68 C11 0.930 . S
H69 C13 0.942 . S
H70 C14 0.930 . S
H71 C15 0.930 . S
H72 C18 0.930 1_554 S
H73 C21 0.929 . S
H74 C26 0.929 . S
H75 C27 0.930 . S
H76 C34 0.929 . S
H77 C35 0.887 1_554 S
H78 C36 0.930 . S
H79 C37 0.930 . S
H80 C39 0.929 . S
H81 C40 0.930 . S
H82 C41 0.930 . S
H83 C42 0.930 . S
H84 C46 0.929 . S
H85 C48 0.930 . S
H86 C54 0.929 . S
H87 C55 0.930 . S
Li88 N105 1.978 1_554 S
Li88 O148 1.956 . S
Li88 O149 1.970 . S
Li88 O150 1.961 . S
Li89 N113 1.990 . S
Li89 O148 1.970 . S
Li89 O149 1.956 . S
Li89 O151 1.961 . S
Li90 N135 1.990 . S
Li90 O148 1.961 . S
Li90 O150 1.956 . S
Li90 O151 1.970 . S
Li91 N141 1.990 1_554 S
Li91 O149 1.961 . S
Li91 O150 1.970 . S
Li91 O151 1.956 . S
C92 C94 1.348 . S
C92 C95 1.356 . S
C92 O148 1.325 . S
N93 C96 1.314 . S
N93 C97 1.279 . S
C94 C92 1.348 . S
C94 C96 1.353 . S
C94 H152 0.929 . S
C95 C92 1.356 . S
C95 C97 1.358 . S
C95 H153 0.930 . S
C96 N93 1.314 . S
C96 C94 1.353 . S
C96 H154 0.930 . S
C97 N93 1.279 . S
C97 C95 1.358 . S
C97 H155 0.930 . S
C98 C101 1.348 . S
C98 C102 1.356 . S
C98 O149 1.325 1_556 S
C99 N100 1.279 . S
C99 C102 1.358 . S
C99 H156 0.930 . S
N100 C99 1.279 . S
N100 C103 1.314 . S
C101 C98 1.348 . S
C101 C103 1.353 . S
C101 H157 0.929 . S
C102 C98 1.356 . S
C102 C99 1.358 . S
C102 H158 0.930 . S
C103 N100 1.314 . S
C103 C101 1.353 . S
C103 H159 0.930 . S
C104 N105 1.343 . S
C104 C109 1.353 . S
C104 H110 0.930 . S
N105 Li88 1.978 1_556 S
N105 C104 1.343 . S
N105 C107 1.267 1_556 S
C106 C107 1.327 1_556 S
C106 C108 1.429 . S
C106 H160 0.892 1_556 S
C107 N105 1.267 1_554 S
C107 C106 1.327 1_554 S
C107 H111 0.930 . S
C108 C106 1.429 . S
C108 C109 1.348 . S
C109 C104 1.353 . S
C109 C108 1.348 . S
C109 H161 0.929 . S
H110 C104 0.930 . S
H111 C107 0.930 . S
C112 N113 1.314 . S
C112 C114 1.353 . S
C112 H118 0.930 . S
N113 Li89 1.990 . S
N113 C112 1.314 . S
N113 C116 1.279 . S
C114 C112 1.353 . S
C114 C117 1.348 . S
C114 H162 0.929 . S
C115 C116 1.358 . S
C115 C117 1.356 . S
C115 H163 0.930 . S
C116 N113 1.279 . S
C116 C115 1.358 . S
C116 H119 0.930 . S
C117 C114 1.348 . S
C117 C115 1.356 . S
H118 C112 0.930 . S
H119 C116 0.930 . S
C120 C122 1.347 1_554 S
C120 C123 1.356 . S
C120 O150 1.325 . S
N121 C124 1.314 . S
N121 C125 1.279 . S
C122 C120 1.347 1_556 S
C122 C124 1.353 . S
C122 H164 0.929 . S
C123 C120 1.356 . S
C123 C125 1.358 1_554 S
C123 H165 0.930 . S
C124 N121 1.314 . S
C124 C122 1.353 . S
C124 H166 0.930 . S
C125 N121 1.279 . S
C125 C123 1.358 1_556 S
C125 H167 0.930 . S
C126 C127 1.348 . S
C126 C128 1.356 . S
C126 O151 1.325 . S
C127 C126 1.348 . S
C127 C129 1.353 . S
C127 H168 0.929 . S
C128 C126 1.356 . S
C128 C130 1.358 . S
C128 H169 0.930 . S
C129 C127 1.353 . S
C129 N131 1.314 . S
C129 H170 0.930 . S
C130 C128 1.358 . S
C130 N131 1.279 . S
C130 H171 0.930 . S
N131 C129 1.314 . S
N131 C130 1.279 . S
C132 C134 1.353 . S
C132 N135 1.314 . S
C132 H138 0.930 . S
C133 N135 1.279 . S
C133 C136 1.358 . S
C133 H139 0.930 . S
C134 C132 1.353 . S
C134 C137 1.348 . S
C134 H172 0.929 . S
N135 Li90 1.990 . S
N135 C132 1.314 . S
N135 C133 1.279 . S
C136 C133 1.358 . S
C136 C137 1.356 . S
C136 H173 0.930 . S
C137 C134 1.348 . S
C137 C136 1.356 . S
H138 C132 0.930 . S
H139 C133 0.930 . S
C140 N141 1.314 . S
C140 C142 1.353 . S
C140 H146 0.930 . S
N141 Li91 1.990 1_556 S
N141 C140 1.314 . S
N141 C144 1.279 . S
C142 C140 1.353 . S
C142 C145 1.348 . S
C142 H174 0.929 . S
C143 C144 1.358 . S
C143 C145 1.356 . S
C143 H175 0.930 . S
C144 N141 1.279 . S
C144 C143 1.358 . S
C144 H147 0.927 1_556 S
C145 C142 1.348 . S
C145 C143 1.356 . S
H146 C140 0.930 . S
H147 C144 0.927 1_554 S
O148 Li88 1.956 . S
O148 Li89 1.970 . S
O148 Li90 1.961 . S
O148 C92 1.325 . S
O149 Li88 1.970 . S
O149 Li89 1.956 . S
O149 Li91 1.961 . S
O149 C98 1.325 1_554 S
O150 Li88 1.961 . S
O150 Li90 1.956 . S
O150 Li91 1.970 . S
O150 C120 1.325 . S
O151 Li89 1.961 . S
O151 Li90 1.970 . S
O151 Li91 1.956 . S
O151 C126 1.325 . S
H152 C94 0.929 . S
H153 C95 0.930 . S
H154 C96 0.930 . S
H155 C97 0.930 . S
H156 C99 0.930 . S
H157 C101 0.929 . S
H158 C102 0.930 . S
H159 C103 0.930 . S
H160 C106 0.892 1_554 S
H161 C109 0.929 . S
H162 C114 0.929 . S
H163 C115 0.930 . S
H164 C122 0.929 . S
H165 C123 0.930 . S
H166 C124 0.930 . S
H167 C125 0.930 . S
H168 C127 0.929 . S
H169 C128 0.930 . S
H170 C129 0.930 . S
H171 C130 0.930 . S
H172 C134 0.929 . S
H173 C136 0.930 . S
H174 C142 0.929 . S
H175 C143 0.930 . S
Li176 N193 1.990 . S
Li176 O236 1.956 1_556 S
Li176 O237 1.955 1_566 S
Li176 O238 1.961 . S
Li177 N201 1.990 . S
Li177 O236 1.970 1_545 S
Li177 O237 2.011 . S
Li177 O239 1.961 . S
Li178 N223 1.990 . S
Li178 O236 1.961 . S
Li178 O238 1.956 1_554 S
Li178 O239 1.970 1_565 S
Li179 N229 1.990 1_554 S
Li179 O237 1.966 . S
Li179 O238 1.970 1_544 S
Li179 O239 1.956 . S
C180 C182 1.348 . S
C180 C183 1.356 . S
C180 O236 1.325 . S
N181 C184 1.314 . S
N181 C185 1.279 . S
C182 C180 1.348 . S
C182 C184 1.353 . S
C182 H240 0.929 . S
C183 C180 1.356 . S
C183 C185 1.358 . S
C183 H241 0.930 . S
C184 N181 1.314 . S
C184 C182 1.353 . S
C184 H242 0.930 . S
C185 N181 1.279 . S
C185 C183 1.358 . S
C185 H243 0.930 . S
C186 C189 1.348 . S
C186 C190 1.338 1_556 S
C186 O237 1.309 1_556 S
C187 N188 1.279 . S
C187 C190 1.336 1_556 S
C187 H244 0.947 . S
N188 C187 1.279 . S
N188 C191 1.314 . S
C189 C186 1.348 . S
C189 C191 1.353 . S
C189 H245 0.929 . S
C190 C186 1.338 1_554 S
C190 C187 1.336 1_554 S
C190 H246 0.977 . S
C191 N188 1.314 . S
C191 C189 1.353 . S
C191 H247 0.930 . S
C192 N193 1.314 . S
C192 C197 1.353 . S
C192 H198 0.930 . S
N193 Li176 1.990 . S
N193 C192 1.314 . S
N193 C195 1.279 . S
C194 C195 1.358 . S
C194 C196 1.356 . S
C194 H248 0.930 . S
C195 N193 1.279 . S
C195 C194 1.358 . S
C195 H199 0.930 . S
C196 C194 1.356 . S
C196 C197 1.348 . S
C197 C192 1.353 . S
C197 C196 1.348 . S
C197 H249 0.929 . S
H198 C192 0.930 . S
H199 C195 0.930 . S
C200 N201 1.314 . S
C200 C202 1.353 . S
C200 H206 0.930 . S
N201 Li177 1.990 . S
N201 C200 1.314 . S
N201 C204 1.279 . S
C202 C200 1.353 . S
C202 C205 1.348 . S
C202 H250 0.929 . S
C203 C204 1.358 . S
C203 C205 1.356 . S
C203 H251 0.930 . S
C204 N201 1.279 . S
C204 C203 1.358 . S
C204 H207 0.930 . S
C205 C202 1.348 . S
C205 C203 1.356 . S
H206 C200 0.930 . S
H207 C204 0.930 . S
C208 C210 1.348 . S
C208 C211 1.356 . S
C208 O238 1.325 . S
N209 C212 1.314 . S
N209 C213 1.279 . S
C210 C208 1.348 . S
C210 C212 1.353 . S
C210 H252 0.929 1_565 S
C211 C208 1.356 . S
C211 C213 1.358 . S
C211 H253 0.930 . S
C212 N209 1.314 . S
C212 C210 1.353 . S
C212 H254 0.930 . S
C213 N209 1.279 . S
C213 C211 1.358 . S
C213 H255 0.930 . S
C214 C215 1.348 . S
C214 C216 1.356 . S
C214 O239 1.325 . S
C215 C214 1.348 . S
C215 C217 1.353 . S
C215 H256 0.929 1_545 S
C216 C214 1.356 . S
C216 C218 1.358 . S
C216 H257 0.930 . S
C217 C215 1.353 . S
C217 N219 1.314 . S
C217 H258 0.930 . S
C218 C216 1.358 . S
C218 N219 1.279 . S
C218 H259 0.930 . S
N219 C217 1.314 . S
N219 C218 1.279 . S
C220 C222 1.353 . S
C220 N223 1.314 . S
C220 H226 0.930 . S
C221 N223 1.279 . S
C221 C224 1.358 . S
C221 H227 0.930 . S
C222 C220 1.353 . S
C222 C225 1.348 . S
C222 H260 0.929 . S
N223 Li178 1.990 . S
N223 C220 1.314 . S
N223 C221 1.279 . S
C224 C221 1.358 . S
C224 C225 1.356 . S
C224 H261 0.930 . S
C225 C222 1.348 . S
C225 C224 1.356 . S
H226 C220 0.930 . S
H227 C221 0.930 . S
C228 N229 1.314 . S
C228 C230 1.353 . S
C228 H234 0.930 . S
N229 Li179 1.990 1_556 S
N229 C228 1.314 . S
N229 C232 1.279 1_556 S
C230 C228 1.353 . S
C230 C233 1.348 . S
C230 H262 0.929 . S
C231 C232 1.358 1_556 S
C231 C233 1.356 . S
C231 H263 0.930 1_556 S
C232 N229 1.279 1_554 S
C232 C231 1.358 1_554 S
C232 H235 0.930 . S
C233 C230 1.348 . S
C233 C231 1.356 . S
H234 C228 0.930 . S
H235 C232 0.930 . S
O236 Li176 1.956 1_554 S
O236 Li177 1.970 1_565 S
O236 Li178 1.961 . S
O236 C180 1.325 . S
O237 Li176 1.955 1_544 S
O237 Li177 2.011 . S
O237 Li179 1.966 . S
O237 C186 1.309 1_554 S
O238 Li176 1.961 . S
O238 Li178 1.956 1_556 S
O238 Li179 1.970 1_566 S
O238 C208 1.325 . S
O239 Li177 1.961 . S
O239 Li178 1.970 1_545 S
O239 Li179 1.956 . S
O239 C214 1.325 . S
H240 C182 0.929 . S
H241 C183 0.930 . S
H242 C184 0.930 . S
H243 C185 0.930 . S
H244 C187 0.947 . S
H245 C189 0.929 . S
H246 C190 0.977 . S
H247 C191 0.930 . S
H248 C194 0.930 . S
H249 C197 0.929 . S
H250 C202 0.929 . S
H251 C203 0.930 . S
H252 C210 0.929 1_545 S
H253 C211 0.930 . S
H254 C212 0.930 . S
H255 C213 0.930 . S
H256 C215 0.929 1_565 S
H257 C216 0.930 . S
H258 C217 0.930 . S
H259 C218 0.930 . S
H260 C222 0.929 . S
H261 C224 0.930 . S
H262 C230 0.929 . S
H263 C231 0.930 1_554 S
Li264 N281 1.990 . S
Li264 O324 1.956 . S
Li264 O325 1.970 1_455 S
Li264 O326 1.961 1_554 S
Li265 N289 1.990 . S
Li265 O324 1.970 1_655 S
Li265 O325 1.956 . S
Li265 O327 1.961 . S
Li266 N311 1.990 . S
Li266 O324 1.961 1_556 S
Li266 O326 1.956 . S
Li266 O327 1.970 1_456 S
Li267 N317 1.990 1_554 S
Li267 O325 1.961 . S
Li267 O326 1.970 1_654 S
Li267 O327 1.956 . S
C268 C270 1.348 . S
C268 C271 1.356 . S
C268 O324 1.325 . S
N269 C272 1.314 . S
N269 C273 1.279 . S
C270 C268 1.348 . S
C270 C272 1.353 . S
C270 H328 0.929 . S
C271 C268 1.356 . S
C271 C273 1.358 . S
C271 H329 0.930 . S
C272 N269 1.314 . S
C272 C270 1.353 . S
C272 H330 0.930 . S
C273 N269 1.279 . S
C273 C271 1.358 . S
C273 H331 0.930 . S
C274 C277 1.348 . S
C274 C278 1.356 . S
C274 O325 1.325 . S
C275 N276 1.279 . S
C275 C278 1.358 . S
C275 H332 0.930 . S
N276 C275 1.279 . S
N276 C279 1.314 . S
C277 C274 1.348 . S
C277 C279 1.353 . S
C277 H333 0.929 1_655 S
C278 C274 1.356 . S
C278 C275 1.358 . S
C278 H334 0.930 . S
C279 N276 1.314 . S
C279 C277 1.353 . S
C279 H335 0.930 . S
C280 N281 1.314 . S
C280 C285 1.353 . S
C280 H286 0.930 . S
N281 Li264 1.990 . S
N281 C280 1.314 . S
N281 C283 1.279 . S
C282 C283 1.358 . S
C282 C284 1.356 . S
C282 H336 0.930 . S
C283 N281 1.279 . S
C283 C282 1.358 . S
C283 H287 0.930 . S
C284 C282 1.356 . S
C284 C285 1.348 . S
C285 C280 1.353 . S
C285 C284 1.348 . S
C285 H337 0.929 . S
H286 C280 0.930 . S
H287 C283 0.930 . S
C288 N289 1.314 . S
C288 C290 1.353 . S
C288 H294 0.930 . S
N289 Li265 1.990 . S
N289 C288 1.314 . S
N289 C292 1.279 . S
C290 C288 1.353 . S
C290 C293 1.348 . S
C290 H338 0.929 . S
C291 C292 1.358 . S
C291 C293 1.356 . S
C291 H339 0.930 . S
C292 N289 1.279 . S
C292 C291 1.358 . S
C292 H295 0.930 . S
C293 C290 1.348 . S
C293 C291 1.356 . S
H294 C288 0.930 . S
H295 C292 0.930 . S
C296 C298 1.348 . S
C296 C299 1.356 . S
C296 O326 1.325 . S
N297 C300 1.314 . S
N297 C301 1.279 . S
C298 C296 1.348 . S
C298 C300 1.353 . S
C298 H340 0.929 1_455 S
C299 C296 1.356 . S
C299 C301 1.358 . S
C299 H341 0.930 . S
C300 N297 1.314 . S
C300 C298 1.353 . S
C300 H342 0.930 . S
C301 N297 1.279 . S
C301 C299 1.358 . S
C301 H343 0.930 . S
C302 C303 1.362 . S
C302 C304 1.348 1_556 S
C302 O327 1.320 1_556 S
C303 C302 1.362 . S
C303 C305 1.353 . S
C303 H344 0.929 . S
C304 C302 1.348 1_554 S
C304 C306 1.358 . S
C304 H345 0.930 . S
C305 C303 1.353 . S
C305 N307 1.314 . S
C305 H346 0.930 . S
C306 C304 1.358 . S
C306 N307 1.279 1_554 S
C306 H347 0.930 . S
N307 C305 1.314 . S
N307 C306 1.279 1_556 S
C308 C310 1.353 . S
C308 N311 1.314 . S
C308 H314 0.930 . S
C309 N311 1.279 . S
C309 C312 1.358 . S
C309 H315 0.930 . S
C310 C308 1.353 . S
C310 C313 1.348 . S
C310 H348 0.929 . S
N311 Li266 1.990 . S
N311 C308 1.314 . S
N311 C309 1.279 . S
C312 C309 1.358 . S
C312 C313 1.356 . S
C312 H349 0.930 . S
C313 C310 1.348 . S
C313 C312 1.356 . S
H314 C308 0.930 . S
H315 C309 0.930 . S
C316 N317 1.314 1_554 S
C316 C318 1.353 1_554 S
C316 H322 0.930 . S
N317 Li267 1.990 1_556 S
N317 C316 1.314 1_556 S
N317 C320 1.279 . S
C318 C316 1.353 1_556 S
C318 C321 1.348 . S
C318 H350 0.918 1_556 S
C319 C320 1.358 . S
C319 C321 1.356 . S
C319 H351 0.930 . S
C320 N317 1.279 . S
C320 C319 1.358 . S
C320 H323 0.930 . S
C321 C318 1.348 . S
C321 C319 1.356 . S
H322 C316 0.930 . S
H323 C320 0.930 . S
O324 Li264 1.956 . S
O324 Li265 1.970 1_455 S
O324 Li266 1.961 1_554 S
O324 C268 1.325 . S
O325 Li264 1.970 1_655 S
O325 Li265 1.956 . S
O325 Li267 1.961 . S
O325 C274 1.325 . S
O326 Li264 1.961 1_556 S
O326 Li266 1.956 . S
O326 Li267 1.970 1_456 S
O326 C296 1.325 . S
O327 Li265 1.961 . S
O327 Li266 1.970 1_654 S
O327 Li267 1.956 . S
O327 C302 1.320 1_554 S
H328 C270 0.929 . S
H329 C271 0.930 . S
H330 C272 0.930 . S
H331 C273 0.930 . S
H332 C275 0.930 . S
H333 C277 0.929 1_455 S
H334 C278 0.930 . S
H335 C279 0.930 . S
H336 C282 0.930 . S
H337 C285 0.929 . S
H338 C290 0.929 . S
H339 C291 0.930 . S
H340 C298 0.929 1_655 S
H341 C299 0.930 . S
H342 C300 0.930 . S
H343 C301 0.930 . S
H344 C303 0.929 . S
H345 C304 0.930 . S
H346 C305 0.930 . S
H347 C306 0.930 . S
H348 C310 0.929 . S
H349 C312 0.930 . S
H350 C318 0.918 1_554 S
H351 C319 0.930 . S
Li352 N369 1.990 . S
Li352 O412 1.956 . S
Li352 O413 1.970 . S
Li352 O414 1.961 1_554 S
Li353 N377 1.990 . S
Li353 O412 1.970 . S
Li353 O413 1.956 . S
Li353 O415 1.961 1_554 S
Li354 N399 1.990 . S
Li354 O412 1.961 1_556 S
Li354 O414 1.956 . S
Li354 O415 1.970 . S
Li355 N405 1.990 . S
Li355 O413 1.961 1_556 S
Li355 O414 1.970 . S
Li355 O415 1.956 . S
C356 C358 1.348 . S
C356 C359 1.356 . S
C356 O412 1.325 . S
N357 C360 1.314 . S
N357 C361 1.279 . S
C358 C356 1.348 . S
C358 C360 1.353 . S
C358 H416 0.929 . S
C359 C356 1.356 . S
C359 C361 1.358 . S
C359 H417 0.930 . S
C360 N357 1.314 . S
C360 C358 1.353 . S
C360 H418 0.930 . S
C361 N357 1.279 . S
C361 C359 1.358 . S
C361 H419 0.930 . S
C362 C365 1.348 . S
C362 C366 1.356 . S
C362 O413 1.325 . S
C363 N364 1.279 . S
C363 C366 1.358 . S
C363 H420 0.930 . S
N364 C363 1.279 . S
N364 C367 1.314 . S
C365 C362 1.348 . S
C365 C367 1.353 . S
C365 H421 0.929 . S
C366 C362 1.356 . S
C366 C363 1.358 . S
C366 H422 0.930 . S
C367 N364 1.314 . S
C367 C365 1.353 . S
C367 H423 0.930 . S
C368 N369 1.314 . S
C368 C373 1.353 . S
C368 H374 0.930 . S
N369 Li352 1.990 . S
N369 C368 1.314 . S
N369 C371 1.279 . S
C370 C371 1.358 . S
C370 C372 1.356 . S
C370 H424 0.930 . S
C371 N369 1.279 . S
C371 C370 1.358 . S
C371 H375 0.930 . S
C372 C370 1.356 . S
C372 C373 1.348 . S
C373 C368 1.353 . S
C373 C372 1.348 . S
C373 H425 0.929 . S
H374 C368 0.930 . S
H375 C371 0.930 . S
C376 N377 1.314 . S
C376 C378 1.353 . S
C376 H382 0.930 . S
N377 Li353 1.990 . S
N377 C376 1.314 . S
N377 C380 1.279 . S
C378 C376 1.353 . S
C378 C381 1.348 . S
C378 H426 0.929 . S
C379 C380 1.358 . S
C379 C381 1.356 . S
C379 H427 0.930 . S
C380 N377 1.279 . S
C380 C379 1.358 . S
C380 H383 0.930 . S
C381 C378 1.348 . S
C381 C379 1.356 . S
H382 C376 0.930 . S
H383 C380 0.930 . S
C384 C386 1.348 . S
C384 C387 1.356 . S
C384 O414 1.325 . S
N385 C388 1.314 . S
N385 C389 1.279 . S
C386 C384 1.348 . S
C386 C388 1.353 . S
C386 H428 0.929 . S
C387 C384 1.356 . S
C387 C389 1.358 . S
C387 H429 0.930 . S
C388 N385 1.314 . S
C388 C386 1.353 . S
C388 H430 0.930 . S
C389 N385 1.279 . S
C389 C387 1.358 . S
C389 H431 0.930 . S
C390 C391 1.348 . S
C390 C392 1.356 . S
C390 O415 1.325 . S
C391 C390 1.348 . S
C391 C393 1.353 . S
C391 H432 0.929 . S
C392 C390 1.356 . S
C392 C394 1.358 . S
C392 H433 0.930 1_556 S
C393 C391 1.353 . S
C393 N395 1.314 . S
C393 H434 0.930 . S
C394 C392 1.358 . S
C394 N395 1.279 . S
C394 H435 0.930 . S
N395 C393 1.314 . S
N395 C394 1.279 . S
C396 C398 1.353 . S
C396 N399 1.314 . S
C396 H402 0.930 . S
C397 N399 1.279 . S
C397 C400 1.358 . S
C397 H403 0.930 . S
C398 C396 1.353 . S
C398 C401 1.348 . S
C398 H436 0.929 . S
N399 Li354 1.990 . S
N399 C396 1.314 . S
N399 C397 1.279 . S
C400 C397 1.358 . S
C400 C401 1.356 . S
C400 H437 0.930 . S
C401 C398 1.348 . S
C401 C400 1.356 . S
H402 C396 0.930 . S
H403 C397 0.930 . S
C404 N405 1.314 . S
C404 C406 1.353 . S
C404 H410 0.930 . S
N405 Li355 1.990 . S
N405 C404 1.314 . S
N405 C408 1.279 . S
C406 C404 1.353 . S
C406 C409 1.348 . S
C406 H438 0.929 . S
C407 C408 1.358 . S
C407 C409 1.356 . S
C407 H439 0.930 . S
C408 N405 1.279 . S
C408 C407 1.358 . S
C408 H411 0.930 . S
C409 C406 1.348 . S
C409 C407 1.356 . S
H410 C404 0.930 . S
H411 C408 0.930 . S
O412 Li352 1.956 . S
O412 Li353 1.970 . S
O412 Li354 1.961 1_554 S
O412 C356 1.325 . S
O413 Li352 1.970 . S
O413 Li353 1.956 . S
O413 Li355 1.961 1_554 S
O413 C362 1.325 . S
O414 Li352 1.961 1_556 S
O414 Li354 1.956 . S
O414 Li355 1.970 . S
O414 C384 1.325 . S
O415 Li353 1.961 1_556 S
O415 Li354 1.970 . S
O415 Li355 1.956 . S
O415 C390 1.325 . S
H416 C358 0.929 . S
H417 C359 0.930 . S
H418 C360 0.930 . S
H419 C361 0.930 . S
H420 C363 0.930 . S
H421 C365 0.929 . S
H422 C366 0.930 . S
H423 C367 0.930 . S
H424 C370 0.930 . S
H425 C373 0.929 . S
H426 C378 0.929 . S
H427 C379 0.930 . S
H428 C386 0.929 . S
H429 C387 0.930 . S
H430 C388 0.930 . S
H431 C389 0.930 . S
H432 C391 0.929 . S
H433 C392 0.930 1_554 S
H434 C393 0.930 . S
H435 C394 0.930 . S
H436 C398 0.929 . S
H437 C400 0.930 . S
H438 C406 0.929 . S
H439 C407 0.930 . S
Li440 N457 1.990 . S
Li440 O500 1.956 . S
Li440 O501 1.970 1_565 S
Li440 O502 1.961 1_554 S
Li441 N465 1.990 . S
Li441 O500 1.970 1_545 S
Li441 O501 1.956 . S
Li441 O503 1.961 . S
Li442 N487 1.990 . S
Li442 O500 1.961 1_556 S
Li442 O502 1.956 . S
Li442 O503 1.970 1_566 S
Li443 N493 1.976 1_554 S
Li443 O501 1.961 . S
Li443 O502 1.970 1_544 S
Li443 O503 1.956 . S
C444 C446 1.348 . S
C444 C447 1.356 . S
C444 O500 1.325 . S
N445 C448 1.314 . S
N445 C449 1.279 . S
C446 C444 1.348 . S
C446 C448 1.353 . S
C446 H504 0.929 . S
C447 C444 1.356 . S
C447 C449 1.358 . S
C447 H505 0.930 . S
C448 N445 1.314 . S
C448 C446 1.353 . S
C448 H506 0.930 . S
C449 N445 1.279 . S
C449 C447 1.358 . S
C449 H507 0.930 . S
C450 C453 1.348 . S
C450 C454 1.356 . S
C450 O501 1.325 . S
C451 N452 1.279 . S
C451 C454 1.358 . S
C451 H508 0.930 . S
N452 C451 1.279 . S
N452 C455 1.314 . S
C453 C450 1.348 . S
C453 C455 1.353 . S
C453 H509 0.929 1_545 S
C454 C450 1.356 . S
C454 C451 1.358 . S
C454 H510 0.930 . S
C455 N452 1.314 . S
C455 C453 1.353 . S
C455 H511 0.930 . S
C456 N457 1.314 . S
C456 C461 1.353 . S
C456 H462 0.930 . S
N457 Li440 1.990 . S
N457 C456 1.314 . S
N457 C459 1.279 . S
C458 C459 1.358 . S
C458 C460 1.356 . S
C458 H512 0.930 . S
C459 N457 1.279 . S
C459 C458 1.358 . S
C459 H463 0.930 . S
C460 C458 1.356 . S
C460 C461 1.348 . S
C461 C456 1.353 . S
C461 C460 1.348 . S
C461 H513 0.929 . S
H462 C456 0.930 . S
H463 C459 0.930 . S
C464 N465 1.314 . S
C464 C466 1.353 . S
C464 H470 0.930 . S
N465 Li441 1.990 . S
N465 C464 1.314 . S
N465 C468 1.279 . S
C466 C464 1.353 . S
C466 C469 1.348 . S
C466 H514 0.929 . S
C467 C468 1.358 . S
C467 C469 1.356 . S
C467 H515 0.930 . S
C468 N465 1.279 . S
C468 C467 1.358 . S
C468 H471 0.930 . S
C469 C466 1.348 . S
C469 C467 1.356 . S
H470 C464 0.930 . S
H471 C468 0.930 . S
C472 C474 1.348 . S
C472 C475 1.356 . S
C472 O502 1.325 . S
N473 C476 1.314 . S
N473 C477 1.279 . S
C474 C472 1.348 . S
C474 C476 1.353 . S
C474 H516 0.929 1_565 S
C475 C472 1.356 . S
C475 C477 1.358 . S
C475 H517 0.930 . S
C476 N473 1.314 . S
C476 C474 1.353 . S
C476 H518 0.930 . S
C477 N473 1.279 . S
C477 C475 1.358 . S
C477 H519 0.930 . S
C478 C479 1.321 1_554 S
C478 C480 1.371 . S
C478 O503 1.335 . S
C479 C478 1.321 1_556 S
C479 C481 1.353 . S
C479 H520 0.929 . S
C480 C478 1.371 . S
C480 C482 1.358 . S
C480 H521 0.930 . S
C481 C479 1.353 . S
C481 N483 1.314 . S
C481 H522 0.930 . S
C482 C480 1.358 . S
C482 N483 1.279 1_554 S
C482 H523 0.930 . S
N483 C481 1.314 . S
N483 C482 1.279 1_556 S
C484 C486 1.353 . S
C484 N487 1.314 . S
C484 H490 0.930 . S
C485 N487 1.279 . S
C485 C488 1.358 . S
C485 H491 0.930 . S
C486 C484 1.353 . S
C486 C489 1.348 . S
C486 H524 0.929 . S
N487 Li442 1.990 . S
N487 C484 1.314 . S
N487 C485 1.279 . S
C488 C485 1.358 . S
C488 C489 1.356 . S
C488 H525 0.930 . S
C489 C486 1.348 . S
C489 C488 1.356 . S
H490 C484 0.930 . S
H491 C485 0.930 . S
C492 N493 1.305 1_554 S
C492 C494 1.353 1_554 S
C492 H498 0.930 . S
N493 Li443 1.976 1_556 S
N493 C492 1.305 1_556 S
N493 C496 1.309 . S
C494 C492 1.353 1_556 S
C494 C497 1.348 . S
C494 H526 0.929 1_556 S
C495 C496 1.358 . S
C495 C497 1.356 . S
C495 H527 0.930 . S
C496 N493 1.309 . S
C496 C495 1.358 . S
C496 H499 0.930 . S
C497 C494 1.348 . S
C497 C495 1.356 . S
H498 C492 0.930 . S
H499 C496 0.930 . S
O500 Li440 1.956 . S
O500 Li441 1.970 1_565 S
O500 Li442 1.961 1_554 S
O500 C444 1.325 . S
O501 Li440 1.970 1_545 S
O501 Li441 1.956 . S
O501 Li443 1.961 . S
O501 C450 1.325 . S
O502 Li440 1.961 1_556 S
O502 Li442 1.956 . S
O502 Li443 1.970 1_566 S
O502 C472 1.325 . S
O503 Li441 1.961 . S
O503 Li442 1.970 1_544 S
O503 Li443 1.956 . S
O503 C478 1.335 . S
H504 C446 0.929 . S
H505 C447 0.930 . S
H506 C448 0.930 . S
H507 C449 0.930 . S
H508 C451 0.930 . S
H509 C453 0.929 1_565 S
H510 C454 0.930 . S
H511 C455 0.930 . S
H512 C458 0.930 . S
H513 C461 0.929 . S
H514 C466 0.929 . S
H515 C467 0.930 . S
H516 C474 0.929 1_545 S
H517 C475 0.930 . S
H518 C476 0.930 . S
H519 C477 0.930 . S
H520 C479 0.929 . S
H521 C480 0.930 . S
H522 C481 0.930 . S
H523 C482 0.930 . S
H524 C486 0.929 . S
H525 C488 0.930 . S
H526 C494 0.929 1_554 S
H527 C495 0.930 . S
Li528 N545 1.990 . S
Li528 O588 1.956 . S
Li528 O589 1.970 . S
Li528 O590 1.961 . S
Li529 N553 1.990 . S
Li529 O588 1.970 . S
Li529 O589 1.956 . S
Li529 O591 1.961 . S
Li530 N575 1.990 . S
Li530 O588 1.961 . S
Li530 O590 1.956 . S
Li530 O591 1.970 . S
Li531 N581 1.990 . S
Li531 O589 1.961 . S
Li531 O590 1.970 . S
Li531 O591 1.956 . S
C532 C534 1.348 . S
C532 C535 1.356 . S
C532 O588 1.325 . S
N533 C536 1.314 . S
N533 C537 1.279 . S
C534 C532 1.348 . S
C534 C536 1.353 . S
C534 H592 0.929 . S
C535 C532 1.356 . S
C535 C537 1.358 . S
C535 H593 0.930 . S
C536 N533 1.314 . S
C536 C534 1.353 . S
C536 H594 0.930 . S
C537 N533 1.279 . S
C537 C535 1.358 . S
C537 H595 0.930 . S
C538 C541 1.348 . S
C538 C542 1.356 . S
C538 O589 1.325 . S
C539 N540 1.279 . S
C539 C542 1.358 . S
C539 H596 0.930 . S
N540 C539 1.279 . S
N540 C543 1.314 . S
C541 C538 1.348 . S
C541 C543 1.353 . S
C541 H597 0.929 . S
C542 C538 1.356 . S
C542 C539 1.358 . S
C542 H598 0.930 . S
C543 N540 1.314 . S
C543 C541 1.353 . S
C543 H599 0.930 . S
C544 N545 1.314 . S
C544 C549 1.353 . S
C544 H550 0.930 . S
N545 Li528 1.990 . S
N545 C544 1.314 . S
N545 C547 1.279 . S
C546 C547 1.358 . S
C546 C548 1.356 . S
C546 H600 0.930 . S
C547 N545 1.279 . S
C547 C546 1.358 . S
C547 H551 0.930 . S
C548 C546 1.356 . S
C548 C549 1.348 . S
C549 C544 1.353 . S
C549 C548 1.348 . S
C549 H601 0.929 . S
H550 C544 0.930 . S
H551 C547 0.930 . S
C552 N553 1.314 . S
C552 C554 1.353 . S
C552 H558 0.930 . S
N553 Li529 1.990 . S
N553 C552 1.314 . S
N553 C556 1.279 . S
C554 C552 1.353 . S
C554 C557 1.348 . S
C554 H602 0.929 . S
C555 C556 1.358 . S
C555 C557 1.356 . S
C555 H603 0.930 . S
C556 N553 1.279 . S
C556 C555 1.358 . S
C556 H559 0.930 . S
C557 C554 1.348 . S
C557 C555 1.356 . S
H558 C552 0.930 . S
H559 C556 0.930 . S
C560 C562 1.348 . S
C560 C563 1.356 . S
C560 O590 1.325 . S
N561 C564 1.314 . S
N561 C565 1.279 . S
C562 C560 1.348 . S
C562 C564 1.353 . S
C562 H604 0.929 . S
C563 C560 1.356 . S
C563 C565 1.358 . S
C563 H605 0.930 . S
C564 N561 1.314 . S
C564 C562 1.353 . S
C564 H606 0.930 . S
C565 N561 1.279 . S
C565 C563 1.358 . S
C565 H607 0.930 . S
C566 C567 1.348 . S
C566 C568 1.356 . S
C566 O591 1.325 . S
C567 C566 1.348 . S
C567 C569 1.353 . S
C567 H608 0.929 . S
C568 C566 1.356 . S
C568 C570 1.358 . S
C568 H609 0.930 . S
C569 C567 1.353 . S
C569 N571 1.314 . S
C569 H610 0.930 . S
C570 C568 1.358 . S
C570 N571 1.279 . S
C570 H611 0.930 . S
N571 C569 1.314 . S
N571 C570 1.279 . S
C572 C574 1.353 . S
C572 N575 1.314 . S
C572 H578 0.930 . S
C573 N575 1.279 . S
C573 C576 1.358 . S
C573 H579 0.930 . S
C574 C572 1.353 . S
C574 C577 1.348 . S
C574 H612 0.929 . S
N575 Li530 1.990 . S
N575 C572 1.314 . S
N575 C573 1.279 . S
C576 C573 1.358 . S
C576 C577 1.356 . S
C576 H613 0.930 . S
C577 C574 1.348 . S
C577 C576 1.356 . S
H578 C572 0.930 . S
H579 C573 0.930 . S
C580 N581 1.314 . S
C580 C582 1.353 . S
C580 H586 0.930 . S
N581 Li531 1.990 . S
N581 C580 1.314 . S
N581 C584 1.279 . S
C582 C580 1.353 . S
C582 C585 1.348 . S
C582 H614 0.929 . S
C583 C584 1.358 . S
C583 C585 1.356 . S
C583 H615 0.930 . S
C584 N581 1.279 . S
C584 C583 1.358 . S
C584 H587 0.930 . S
C585 C582 1.348 . S
C585 C583 1.356 . S
H586 C580 0.930 . S
H587 C584 0.930 . S
O588 Li528 1.956 . S
O588 Li529 1.970 . S
O588 Li530 1.961 . S
O588 C532 1.325 . S
O589 Li528 1.970 . S
O589 Li529 1.956 . S
O589 Li531 1.961 . S
O589 C538 1.325 . S
O590 Li528 1.961 . S
O590 Li530 1.956 . S
O590 Li531 1.970 . S
O590 C560 1.325 . S
O591 Li529 1.961 . S
O591 Li530 1.970 . S
O591 Li531 1.956 . S
O591 C566 1.325 . S
H592 C534 0.929 . S
H593 C535 0.930 . S
H594 C536 0.930 . S
H595 C537 0.930 . S
H596 C539 0.930 . S
H597 C541 0.929 . S
H598 C542 0.930 . S
H599 C543 0.930 . S
H600 C546 0.930 . S
H601 C549 0.929 . S
H602 C554 0.929 . S
H603 C555 0.930 . S
H604 C562 0.929 . S
H605 C563 0.930 . S
H606 C564 0.930 . S
H607 C565 0.930 . S
H608 C567 0.929 . S
H609 C568 0.930 . S
H610 C569 0.930 . S
H611 C570 0.930 . S
H612 C574 0.929 . S
H613 C576 0.930 . S
H614 C582 0.929 . S
H615 C583 0.930 . S
Li616 N633 1.990 . S
Li616 O676 1.956 . S
Li616 O677 1.970 . S
Li616 O678 1.961 . S
Li617 N641 1.990 . S
Li617 O676 1.970 . S
Li617 O677 1.956 . S
Li617 O679 1.961 . S
Li618 N663 1.990 1_565 S
Li618 O676 1.961 . S
Li618 O678 1.956 . S
Li618 O679 1.970 . S
Li619 N669 1.990 . S
Li619 O677 1.961 . S
Li619 O678 1.970 . S
Li619 O679 1.956 . S
C620 C622 1.348 . S
C620 C623 1.356 . S
C620 O676 1.325 . S
N621 C624 1.314 . S
N621 C625 1.279 . S
C622 C620 1.348 . S
C622 C624 1.353 . S
C622 H680 0.929 . S
C623 C620 1.356 . S
C623 C625 1.358 . S
C623 H681 0.930 . S
C624 N621 1.314 . S
C624 C622 1.353 . S
C624 H682 0.930 . S
C625 N621 1.279 . S
C625 C623 1.358 . S
C625 H683 0.930 . S
C626 C629 1.348 . S
C626 C630 1.356 . S
C626 O677 1.325 . S
C627 N628 1.279 . S
C627 C630 1.358 . S
C627 H684 0.930 . S
N628 C627 1.279 . S
N628 C631 1.314 . S
C629 C626 1.348 . S
C629 C631 1.353 . S
C629 H685 0.929 . S
C630 C626 1.356 . S
C630 C627 1.358 . S
C630 H686 0.930 . S
C631 N628 1.314 . S
C631 C629 1.353 . S
C631 H687 0.930 . S
C632 N633 1.314 . S
C632 C637 1.353 . S
C632 H638 0.930 . S
N633 Li616 1.990 . S
N633 C632 1.314 . S
N633 C635 1.279 . S
C634 C635 1.358 . S
C634 C636 1.356 . S
C634 H688 0.930 . S
C635 N633 1.279 . S
C635 C634 1.358 . S
C635 H639 0.930 . S
C636 C634 1.356 . S
C636 C637 1.348 . S
C637 C632 1.353 . S
C637 C636 1.348 . S
C637 H689 0.929 . S
H638 C632 0.930 . S
H639 C635 0.930 . S
C640 N641 1.314 . S
C640 C642 1.353 . S
C640 H646 0.930 . S
N641 Li617 1.990 . S
N641 C640 1.314 . S
N641 C644 1.279 . S
C642 C640 1.353 . S
C642 C645 1.348 . S
C642 H690 0.929 . S
C643 C644 1.358 . S
C643 C645 1.356 . S
C643 H691 0.930 . S
C644 N641 1.279 . S
C644 C643 1.358 . S
C644 H647 0.930 . S
C645 C642 1.348 . S
C645 C643 1.356 . S
H646 C640 0.930 . S
H647 C644 0.930 . S
C648 C650 1.348 . S
C648 C651 1.356 . S
C648 O678 1.325 1_545 S
N649 C652 1.314 . S
N649 C653 1.279 . S
C650 C648 1.348 . S
C650 C652 1.353 . S
C650 H692 0.929 . S
C651 C648 1.356 . S
C651 C653 1.358 . S
C651 H693 0.930 . S
C652 N649 1.314 . S
C652 C650 1.353 . S
C652 H694 0.930 . S
C653 N649 1.279 . S
C653 C651 1.358 . S
C653 H695 0.930 . S
C654 C655 1.348 1_565 S
C654 C656 1.356 . S
C654 O679 1.325 . S
C655 C654 1.348 1_545 S
C655 C657 1.353 . S
C655 H696 0.929 . S
C656 C654 1.356 . S
C656 C658 1.358 . S
C656 H697 0.930 . S
C657 C655 1.353 . S
C657 N659 1.314 1_545 S
C657 H698 0.930 . S
C658 C656 1.358 . S
C658 N659 1.279 . S
C658 H699 0.930 . S
N659 C657 1.314 1_565 S
N659 C658 1.279 . S
C660 C662 1.353 . S
C660 N663 1.314 . S
C660 H666 0.930 . S
C661 N663 1.279 . S
C661 C664 1.358 . S
C661 H667 0.930 . S
C662 C660 1.353 . S
C662 C665 1.348 . S
C662 H700 0.929 . S
N663 Li618 1.990 1_545 S
N663 C660 1.314 . S
N663 C661 1.279 . S
C664 C661 1.358 . S
C664 C665 1.356 . S
C664 H701 0.930 . S
C665 C662 1.348 . S
C665 C664 1.356 . S
H666 C660 0.930 . S
H667 C661 0.930 . S
C668 N669 1.314 . S
C668 C670 1.353 . S
C668 H674 0.930 . S
N669 Li619 1.990 . S
N669 C668 1.314 . S
N669 C672 1.279 . S
C670 C668 1.353 . S
C670 C673 1.348 . S
C670 H702 0.929 . S
C671 C672 1.358 . S
C671 C673 1.356 . S
C671 H703 0.930 . S
C672 N669 1.279 . S
C672 C671 1.358 . S
C672 H675 0.930 . S
C673 C670 1.348 . S
C673 C671 1.356 . S
H674 C668 0.930 . S
H675 C672 0.930 . S
O676 Li616 1.956 . S
O676 Li617 1.970 . S
O676 Li618 1.961 . S
O676 C620 1.325 . S
O677 Li616 1.970 . S
O677 Li617 1.956 . S
O677 Li619 1.961 . S
O677 C626 1.325 . S
O678 Li616 1.961 . S
O678 Li618 1.956 . S
O678 Li619 1.970 . S
O678 C648 1.325 1_565 S
O679 Li617 1.961 . S
O679 Li618 1.970 . S
O679 Li619 1.956 . S
O679 C654 1.325 . S
H680 C622 0.929 . S
H681 C623 0.930 . S
H682 C624 0.930 . S
H683 C625 0.930 . S
H684 C627 0.930 . S
H685 C629 0.929 . S
H686 C630 0.930 . S
H687 C631 0.930 . S
H688 C634 0.930 . S
H689 C637 0.929 . S
H690 C642 0.929 . S
H691 C643 0.930 . S
H692 C650 0.929 . S
H693 C651 0.930 . S
H694 C652 0.930 . S
H695 C653 0.930 . S
H696 C655 0.929 . S
H697 C656 0.930 . S
H698 C657 0.930 . S
H699 C658 0.930 . S
H700 C662 0.929 . S
H701 C664 0.930 . S
H702 C670 0.929 . S
H703 C671 0.930 . S
Li704 N721 1.990 . S
Li704 O764 1.956 . S
Li704 O765 1.970 . S
Li704 O766 1.961 . S
Li705 N729 1.990 . S
Li705 O764 1.970 . S
Li705 O765 1.956 . S
Li705 O767 1.961 . S
Li706 N751 1.990 1_455 S
Li706 O764 1.961 . S
Li706 O766 1.956 . S
Li706 O767 1.970 . S
Li707 N757 1.990 . S
Li707 O765 1.961 . S
Li707 O766 1.970 . S
Li707 O767 1.956 . S
C708 C710 1.348 . S
C708 C711 1.356 . S
C708 O764 1.325 . S
N709 C712 1.314 . S
N709 C713 1.279 . S
C710 C708 1.348 . S
C710 C712 1.353 . S
C710 H768 0.929 . S
C711 C708 1.356 . S
C711 C713 1.358 . S
C711 H769 0.930 . S
C712 N709 1.314 . S
C712 C710 1.353 . S
C712 H770 0.930 . S
C713 N709 1.279 . S
C713 C711 1.358 . S
C713 H771 0.930 . S
C714 C717 1.348 . S
C714 C718 1.356 . S
C714 O765 1.325 . S
C715 N716 1.279 . S
C715 C718 1.358 . S
C715 H772 0.930 . S
N716 C715 1.279 . S
N716 C719 1.314 . S
C717 C714 1.348 . S
C717 C719 1.353 . S
C717 H773 0.929 . S
C718 C714 1.356 . S
C718 C715 1.358 . S
C718 H774 0.930 . S
C719 N716 1.314 . S
C719 C717 1.353 . S
C719 H775 0.930 . S
C720 N721 1.314 . S
C720 C725 1.353 . S
C720 H726 0.930 . S
N721 Li704 1.990 . S
N721 C720 1.314 . S
N721 C723 1.279 . S
C722 C723 1.358 . S
C722 C724 1.356 . S
C722 H776 0.930 . S
C723 N721 1.279 . S
C723 C722 1.358 . S
C723 H727 0.930 . S
C724 C722 1.356 . S
C724 C725 1.348 . S
C725 C720 1.353 . S
C725 C724 1.348 . S
C725 H777 0.929 . S
H726 C720 0.930 . S
H727 C723 0.930 . S
C728 N729 1.314 . S
C728 C730 1.353 . S
C728 H734 0.930 . S
N729 Li705 1.990 . S
N729 C728 1.314 . S
N729 C732 1.279 . S
C730 C728 1.353 . S
C730 C733 1.348 . S
C730 H778 0.929 . S
C731 C732 1.358 . S
C731 C733 1.356 . S
C731 H779 0.930 . S
C732 N729 1.279 . S
C732 C731 1.358 . S
C732 H735 0.930 . S
C733 C730 1.348 . S
C733 C731 1.356 . S
H734 C728 0.930 . S
H735 C732 0.930 . S
C736 C738 1.310 1_455 S
C736 C739 1.362 1_455 S
C736 O766 1.354 . S
N737 C740 1.314 . S
N737 C741 1.279 . S
C738 C736 1.310 1_655 S
C738 C740 1.353 . S
C738 H780 0.929 . S
C739 C736 1.362 1_655 S
C739 C741 1.358 . S
C739 H781 0.930 . S
C740 N737 1.314 . S
C740 C738 1.353 . S
C740 H782 0.930 . S
C741 N737 1.279 . S
C741 C739 1.358 . S
C741 H783 0.930 . S
C742 C743 1.348 . S
C742 C744 1.356 . S
C742 O767 1.325 . S
C743 C742 1.348 . S
C743 C745 1.303 1_455 S
C743 H784 0.929 1_455 S
C744 C742 1.356 . S
C744 C746 1.358 . S
C744 H785 0.930 . S
C745 C743 1.303 1_655 S
C745 N747 1.296 1_655 S
C745 H786 1.015 . S
C746 C744 1.358 . S
C746 N747 1.279 . S
C746 H787 0.930 . S
N747 C745 1.296 1_455 S
N747 C746 1.279 . S
C748 C750 1.353 . S
C748 N751 1.314 . S
C748 H754 0.930 . S
C749 N751 1.279 . S
C749 C752 1.358 . S
C749 H755 0.930 . S
C750 C748 1.353 . S
C750 C753 1.348 . S
C750 H788 0.929 . S
N751 Li706 1.990 1_655 S
N751 C748 1.314 . S
N751 C749 1.279 . S
C752 C749 1.358 . S
C752 C753 1.356 . S
C752 H789 0.930 . S
C753 C750 1.348 . S
C753 C752 1.356 . S
H754 C748 0.930 . S
H755 C749 0.930 . S
C756 N757 1.314 . S
C756 C758 1.353 . S
C756 H762 0.930 . S
N757 Li707 1.990 . S
N757 C756 1.314 . S
N757 C760 1.279 . S
C758 C756 1.353 . S
C758 C761 1.348 . S
C758 H790 0.929 . S
C759 C760 1.358 . S
C759 C761 1.356 . S
C759 H791 0.930 . S
C760 N757 1.279 . S
C760 C759 1.358 . S
C760 H763 0.930 . S
C761 C758 1.348 . S
C761 C759 1.356 . S
H762 C756 0.930 . S
H763 C760 0.930 . S
O764 Li704 1.956 . S
O764 Li705 1.970 . S
O764 Li706 1.961 . S
O764 C708 1.325 . S
O765 Li704 1.970 . S
O765 Li705 1.956 . S
O765 Li707 1.961 . S
O765 C714 1.325 . S
O766 Li704 1.961 . S
O766 Li706 1.956 . S
O766 Li707 1.970 . S
O766 C736 1.354 . S
O767 Li705 1.961 . S
O767 Li706 1.970 . S
O767 Li707 1.956 . S
O767 C742 1.325 . S
H768 C710 0.929 . S
H769 C711 0.930 . S
H770 C712 0.930 . S
H771 C713 0.930 . S
H772 C715 0.930 . S
H773 C717 0.929 . S
H774 C718 0.930 . S
H775 C719 0.930 . S
H776 C722 0.930 . S
H777 C725 0.929 . S
H778 C730 0.929 . S
H779 C731 0.930 . S
H780 C738 0.929 . S
H781 C739 0.930 . S
H782 C740 0.930 . S
H783 C741 0.930 . S
H784 C743 0.929 1_655 S
H785 C744 0.930 . S
H786 C745 1.015 . S
H787 C746 0.930 . S
H788 C750 0.929 . S
H789 C752 0.930 . S
H790 C758 0.929 . S
H791 C759 0.930 . S
Li792 N809 1.990 1_565 S
Li792 O852 1.956 . S
Li792 O853 1.970 . S
Li792 O854 1.961 . S
Li793 N817 1.990 . S
Li793 O852 1.970 . S
Li793 O853 1.956 . S
Li793 O855 1.961 . S
Li794 N839 1.990 . S
Li794 O852 1.961 . S
Li794 O854 1.956 . S
Li794 O855 1.970 . S
Li795 N845 1.990 . S
Li795 O853 1.961 . S
Li795 O854 1.970 . S
Li795 O855 1.956 . S
C796 C798 1.348 . S
C796 C799 1.356 . S
C796 O852 1.325 . S
N797 C800 1.314 . S
N797 C801 1.279 . S
C798 C796 1.348 . S
C798 C800 1.353 . S
C798 H856 0.929 . S
C799 C796 1.356 . S
C799 C801 1.358 . S
C799 H857 0.930 . S
C800 N797 1.314 . S
C800 C798 1.353 . S
C800 H858 0.930 . S
C801 N797 1.279 . S
C801 C799 1.358 . S
C801 H859 0.930 . S
C802 C805 1.348 . S
C802 C806 1.356 . S
C802 O853 1.325 . S
C803 N804 1.279 . S
C803 C806 1.358 . S
C803 H860 0.930 . S
N804 C803 1.279 . S
N804 C807 1.322 1_565 S
C805 C802 1.348 . S
C805 C807 1.315 1_565 S
C805 H861 0.929 1_565 S
C806 C802 1.356 . S
C806 C803 1.358 . S
C806 H862 0.930 . S
C807 N804 1.322 1_545 S
C807 C805 1.315 1_545 S
C807 H863 0.971 . S
C808 N809 1.314 . S
C808 C813 1.353 . S
C808 H814 0.930 . S
N809 Li792 1.990 1_545 S
N809 C808 1.314 . S
N809 C811 1.279 . S
C810 C811 1.358 . S
C810 C812 1.356 . S
C810 H864 0.930 . S
C811 N809 1.279 . S
C811 C810 1.358 . S
C811 H815 0.930 . S
C812 C810 1.356 . S
C812 C813 1.348 . S
C813 C808 1.353 . S
C813 C812 1.348 . S
C813 H865 0.929 . S
H814 C808 0.930 . S
H815 C811 0.930 . S
C816 N817 1.314 . S
C816 C818 1.353 . S
C816 H822 0.930 . S
N817 Li793 1.990 . S
N817 C816 1.314 . S
N817 C820 1.279 . S
C818 C816 1.353 . S
C818 C821 1.348 . S
C818 H866 0.929 . S
C819 C820 1.358 . S
C819 C821 1.356 . S
C819 H867 0.930 . S
C820 N817 1.279 . S
C820 C819 1.358 . S
C820 H823 0.930 . S
C821 C818 1.348 . S
C821 C819 1.356 . S
H822 C816 0.930 . S
H823 C820 0.930 . S
C824 C826 1.348 . S
C824 C827 1.356 . S
C824 O854 1.325 1_545 S
N825 C828 1.314 . S
N825 C829 1.279 . S
C826 C824 1.348 . S
C826 C828 1.353 . S
C826 H868 0.929 1_545 S
C827 C824 1.356 . S
C827 C829 1.358 . S
C827 H869 0.930 . S
C828 N825 1.314 . S
C828 C826 1.353 . S
C828 H870 0.930 . S
C829 N825 1.279 . S
C829 C827 1.358 . S
C829 H871 0.930 . S
C830 C831 1.348 . S
C830 C832 1.356 . S
C830 O855 1.325 . S
C831 C830 1.348 . S
C831 C833 1.353 . S
C831 H872 0.929 . S
C832 C830 1.356 . S
C832 C834 1.358 . S
C832 H873 0.930 . S
C833 C831 1.353 . S
C833 N835 1.314 . S
C833 H874 0.930 . S
C834 C832 1.358 . S
C834 N835 1.279 . S
C834 H875 0.930 . S
N835 C833 1.314 . S
N835 C834 1.279 . S
C836 C838 1.353 . S
C836 N839 1.314 . S
C836 H842 0.930 . S
C837 N839 1.279 . S
C837 C840 1.358 . S
C837 H843 0.930 . S
C838 C836 1.353 . S
C838 C841 1.348 . S
C838 H876 0.929 . S
N839 Li794 1.990 . S
N839 C836 1.314 . S
N839 C837 1.279 . S
C840 C837 1.358 . S
C840 C841 1.356 . S
C840 H877 0.930 . S
C841 C838 1.348 . S
C841 C840 1.356 . S
H842 C836 0.930 . S
H843 C837 0.930 . S
C844 N845 1.314 . S
C844 C846 1.353 . S
C844 H850 0.930 . S
N845 Li795 1.990 . S
N845 C844 1.314 . S
N845 C848 1.279 . S
C846 C844 1.353 . S
C846 C849 1.348 . S
C846 H878 0.877 1_565 S
C847 C848 1.358 . S
C847 C849 1.356 . S
C847 H879 0.930 . S
C848 N845 1.279 . S
C848 C847 1.358 . S
C848 H851 0.930 . S
C849 C846 1.348 . S
C849 C847 1.356 . S
H850 C844 0.930 . S
H851 C848 0.930 . S
O852 Li792 1.956 . S
O852 Li793 1.970 . S
O852 Li794 1.961 . S
O852 C796 1.325 . S
O853 Li792 1.970 . S
O853 Li793 1.956 . S
O853 Li795 1.961 . S
O853 C802 1.325 . S
O854 Li792 1.961 . S
O854 Li794 1.956 . S
O854 Li795 1.970 . S
O854 C824 1.325 1_565 S
O855 Li793 1.961 . S
O855 Li794 1.970 . S
O855 Li795 1.956 . S
O855 C830 1.325 . S
H856 C798 0.929 . S
H857 C799 0.930 . S
H858 C800 0.930 . S
H859 C801 0.930 . S
H860 C803 0.930 . S
H861 C805 0.929 1_545 S
H862 C806 0.930 . S
H863 C807 0.971 . S
H864 C810 0.930 . S
H865 C813 0.929 . S
H866 C818 0.929 . S
H867 C819 0.930 . S
H868 C826 0.929 1_565 S
H869 C827 0.930 . S
H870 C828 0.930 . S
H871 C829 0.930 . S
H872 C831 0.929 . S
H873 C832 0.930 . S
H874 C833 0.930 . S
H875 C834 0.930 . S
H876 C838 0.929 . S
H877 C840 0.930 . S
H878 C846 0.877 1_545 S
H879 C847 0.930 . S
Li880 N897 1.990 . S
Li880 O940 1.956 . S
Li880 O941 1.970 . S
Li880 O942 1.961 . S
Li881 N905 1.990 1_455 S
Li881 O940 1.970 . S
Li881 O941 1.956 . S
Li881 O943 1.961 . S
Li882 N927 1.990 . S
Li882 O940 1.961 . S
Li882 O942 1.956 . S
Li882 O943 1.970 . S
Li883 N933 1.990 . S
Li883 O941 1.961 . S
Li883 O942 1.970 . S
Li883 O943 1.956 . S
C884 C886 1.348 . S
C884 C887 1.356 . S
C884 O940 1.325 . S
N885 C888 1.235 1_455 S
N885 C889 1.279 . S
C886 C884 1.348 . S
C886 C888 1.376 1_455 S
C886 H944 0.929 1_455 S
C887 C884 1.356 . S
C887 C889 1.358 . S
C887 H945 0.930 . S
C888 N885 1.235 1_655 S
C888 C886 1.376 1_655 S
C888 H946 1.001 . S
C889 N885 1.279 . S
C889 C887 1.358 . S
C889 H947 0.930 . S
C890 C893 1.348 . S
C890 C894 1.356 . S
C890 O941 1.325 . S
C891 N892 1.279 . S
C891 C894 1.358 . S
C891 H948 0.930 . S
N892 C891 1.279 . S
N892 C895 1.314 . S
C893 C890 1.348 . S
C893 C895 1.353 . S
C893 H949 0.929 . S
C894 C890 1.356 . S
C894 C891 1.358 . S
C894 H950 0.930 . S
C895 N892 1.314 . S
C895 C893 1.353 . S
C895 H951 0.930 . S
C896 N897 1.314 . S
C896 C901 1.353 . S
C896 H902 0.930 . S
N897 Li880 1.990 . S
N897 C896 1.314 . S
N897 C899 1.279 . S
C898 C899 1.358 . S
C898 C900 1.356 . S
C898 H952 0.930 . S
C899 N897 1.279 . S
C899 C898 1.358 . S
C899 H903 0.930 . S
C900 C898 1.356 . S
C900 C901 1.348 . S
C901 C896 1.353 . S
C901 C900 1.348 . S
C901 H953 0.929 . S
H902 C896 0.930 . S
H903 C899 0.930 . S
C904 N905 1.314 . S
C904 C906 1.353 . S
C904 H910 0.930 . S
N905 Li881 1.990 1_655 S
N905 C904 1.314 . S
N905 C908 1.279 . S
C906 C904 1.353 . S
C906 C909 1.348 . S
C906 H954 0.929 . S
C907 C908 1.358 . S
C907 C909 1.356 . S
C907 H955 0.930 . S
C908 N905 1.279 . S
C908 C907 1.358 . S
C908 H911 0.930 . S
C909 C906 1.348 . S
C909 C907 1.356 . S
H910 C904 0.930 . S
H911 C908 0.930 . S
C912 C914 1.348 . S
C912 C915 1.356 . S
C912 O942 1.325 . S
N913 C916 1.314 . S
N913 C917 1.279 . S
C914 C912 1.348 . S
C914 C916 1.353 . S
C914 H956 0.929 . S
C915 C912 1.356 . S
C915 C917 1.358 . S
C915 H957 0.930 . S
C916 N913 1.314 . S
C916 C914 1.353 . S
C916 H958 0.930 . S
C917 N913 1.279 . S
C917 C915 1.358 . S
C917 H959 0.930 . S
C918 C919 1.348 . S
C918 C920 1.356 . S
C918 O943 1.325 1_655 S
C919 C918 1.348 . S
C919 C921 1.353 . S
C919 H960 0.929 1_655 S
C920 C918 1.356 . S
C920 C922 1.358 . S
C920 H961 0.930 . S
C921 C919 1.353 . S
C921 N923 1.314 . S
C921 H962 0.930 . S
C922 C920 1.358 . S
C922 N923 1.279 . S
C922 H963 0.930 . S
N923 C921 1.314 . S
N923 C922 1.279 . S
C924 C926 1.353 . S
C924 N927 1.314 . S
C924 H930 0.930 . S
C925 N927 1.279 . S
C925 C928 1.358 . S
C925 H931 0.930 . S
C926 C924 1.353 . S
C926 C929 1.348 . S
C926 H964 0.929 1_455 S
N927 Li882 1.990 . S
N927 C924 1.314 . S
N927 C925 1.279 . S
C928 C925 1.358 . S
C928 C929 1.356 . S
C928 H965 0.930 . S
C929 C926 1.348 . S
C929 C928 1.356 . S
H930 C924 0.930 . S
H931 C925 0.930 . S
C932 N933 1.314 . S
C932 C934 1.353 . S
C932 H938 0.930 . S
N933 Li883 1.990 . S
N933 C932 1.314 . S
N933 C936 1.279 . S
C934 C932 1.353 . S
C934 C937 1.348 . S
C934 H966 0.929 . S
C935 C936 1.358 . S
C935 C937 1.356 . S
C935 H967 0.930 . S
C936 N933 1.279 . S
C936 C935 1.358 . S
C936 H939 0.930 . S
C937 C934 1.348 . S
C937 C935 1.356 . S
H938 C932 0.930 . S
H939 C936 0.930 . S
O940 Li880 1.956 . S
O940 Li881 1.970 . S
O940 Li882 1.961 . S
O940 C884 1.325 . S
O941 Li880 1.970 . S
O941 Li881 1.956 . S
O941 Li883 1.961 . S
O941 C890 1.325 . S
O942 Li880 1.961 . S
O942 Li882 1.956 . S
O942 Li883 1.970 . S
O942 C912 1.325 . S
O943 Li881 1.961 . S
O943 Li882 1.970 . S
O943 Li883 1.956 . S
O943 C918 1.325 1_455 S
H944 C886 0.929 1_655 S
H945 C887 0.930 . S
H946 C888 1.001 . S
H947 C889 0.930 . S
H948 C891 0.930 . S
H949 C893 0.929 . S
H950 C894 0.930 . S
H951 C895 0.930 . S
H952 C898 0.930 . S
H953 C901 0.929 . S
H954 C906 0.929 . S
H955 C907 0.930 . S
H956 C914 0.929 . S
H957 C915 0.930 . S
H958 C916 0.930 . S
H959 C917 0.930 . S
H960 C919 0.929 1_455 S
H961 C920 0.930 . S
H962 C921 0.930 . S
H963 C922 0.930 . S
H964 C926 0.929 1_655 S
H965 C928 0.930 . S
H966 C934 0.929 . S
H967 C935 0.930 . S
Li968 N985 1.990 . S
Li968 O1028 1.956 . S
Li968 O1029 1.970 . S
Li968 O1030 1.961 . S
Li969 N993 1.990 . S
Li969 O1028 1.970 . S
Li969 O1029 1.956 . S
Li969 O1031 1.961 . S
Li970 N1015 1.990 . S
Li970 O1028 1.961 . S
Li970 O1030 1.956 . S
Li970 O1031 1.970 . S
Li971 N1021 1.990 . S
Li971 O1029 1.961 . S
Li971 O1030 1.970 . S
Li971 O1031 1.956 . S
C972 C974 1.348 . S
C972 C975 1.356 . S
C972 O1028 1.325 . S
N973 C976 1.314 . S
N973 C977 1.279 . S
C974 C972 1.348 . S
C974 C976 1.353 . S
C974 H1032 0.929 . S
C975 C972 1.356 . S
C975 C977 1.358 . S
C975 H1033 0.930 . S
C976 N973 1.314 . S
C976 C974 1.353 . S
C976 H1034 0.930 . S
C977 N973 1.279 . S
C977 C975 1.358 . S
C977 H1035 0.930 . S
C978 C981 1.348 . S
C978 C982 1.356 . S
C978 O1029 1.325 . S
C979 N980 1.279 . S
C979 C982 1.358 . S
C979 H1036 0.930 . S
N980 C979 1.279 . S
N980 C983 1.314 . S
C981 C978 1.348 . S
C981 C983 1.353 . S
C981 H1037 0.929 . S
C982 C978 1.356 . S
C982 C979 1.358 . S
C982 H1038 0.930 . S
C983 N980 1.314 . S
C983 C981 1.353 . S
C983 H1039 0.930 . S
C984 N985 1.314 . S
C984 C989 1.353 . S
C984 H990 0.930 . S
N985 Li968 1.990 . S
N985 C984 1.314 . S
N985 C987 1.279 . S
C986 C987 1.358 . S
C986 C988 1.356 . S
C986 H1040 0.930 . S
C987 N985 1.279 . S
C987 C986 1.358 . S
C987 H991 0.930 . S
C988 C986 1.356 . S
C988 C989 1.348 . S
C989 C984 1.353 . S
C989 C988 1.348 . S
C989 H1041 0.929 . S
H990 C984 0.930 . S
H991 C987 0.930 . S
C992 N993 1.314 . S
C992 C994 1.353 . S
C992 H998 0.930 . S
N993 Li969 1.990 . S
N993 C992 1.314 . S
N993 C996 1.279 . S
C994 C992 1.353 . S
C994 C997 1.348 . S
C994 H1042 0.929 . S
C995 C996 1.358 . S
C995 C997 1.356 . S
C995 H1043 0.930 . S
C996 N993 1.279 . S
C996 C995 1.358 . S
C996 H999 0.930 . S
C997 C994 1.348 . S
C997 C995 1.356 . S
H998 C992 0.930 . S
H999 C996 0.930 . S
C1000 C1002 1.348 . S
C1000 C1003 1.356 . S
C1000 O1030 1.325 . S
N1001 C1004 1.314 . S
N1001 C1005 1.279 . S
C1002 C1000 1.348 . S
C1002 C1004 1.353 . S
C1002 H1044 0.929 . S
C1003 C1000 1.356 . S
C1003 C1005 1.358 . S
C1003 H1045 0.930 . S
C1004 N1001 1.314 . S
C1004 C1002 1.353 . S
C1004 H1046 0.930 . S
C1005 N1001 1.279 . S
C1005 C1003 1.358 . S
C1005 H1047 0.930 . S
C1006 C1007 1.348 . S
C1006 C1008 1.356 . S
C1006 O1031 1.325 . S
C1007 C1006 1.348 . S
C1007 C1009 1.353 . S
C1007 H1048 0.929 . S
C1008 C1006 1.356 . S
C1008 C1010 1.358 . S
C1008 H1049 0.930 . S
C1009 C1007 1.353 . S
C1009 N1011 1.314 . S
C1009 H1050 0.930 . S
C1010 C1008 1.358 . S
C1010 N1011 1.279 . S
C1010 H1051 0.930 . S
N1011 C1009 1.314 . S
N1011 C1010 1.279 . S
C1012 C1014 1.353 . S
C1012 N1015 1.314 . S
C1012 H1018 0.930 . S
C1013 N1015 1.279 . S
C1013 C1016 1.358 . S
C1013 H1019 0.930 . S
C1014 C1012 1.353 . S
C1014 C1017 1.348 . S
C1014 H1052 0.929 . S
N1015 Li970 1.990 . S
N1015 C1012 1.314 . S
N1015 C1013 1.279 . S
C1016 C1013 1.358 . S
C1016 C1017 1.356 . S
C1016 H1053 0.930 . S
C1017 C1014 1.348 . S
C1017 C1016 1.356 . S
H1018 C1012 0.930 . S
H1019 C1013 0.930 . S
C1020 N1021 1.314 . S
C1020 C1022 1.353 . S
C1020 H1026 0.930 . S
N1021 Li971 1.990 . S
N1021 C1020 1.314 . S
N1021 C1024 1.279 . S
C1022 C1020 1.353 . S
C1022 C1025 1.348 . S
C1022 H1054 0.929 . S
C1023 C1024 1.358 . S
C1023 C1025 1.356 . S
C1023 H1055 0.930 . S
C1024 N1021 1.279 . S
C1024 C1023 1.358 . S
C1024 H1027 0.930 . S
C1025 C1022 1.348 . S
C1025 C1023 1.356 . S
H1026 C1020 0.930 . S
H1027 C1024 0.930 . S
O1028 Li968 1.956 . S
O1028 Li969 1.970 . S
O1028 Li970 1.961 . S
O1028 C972 1.325 . S
O1029 Li968 1.970 . S
O1029 Li969 1.956 . S
O1029 Li971 1.961 . S
O1029 C978 1.325 . S
O1030 Li968 1.961 . S
O1030 Li970 1.956 . S
O1030 Li971 1.970 . S
O1030 C1000 1.325 . S
O1031 Li969 1.961 . S
O1031 Li970 1.970 . S
O1031 Li971 1.956 . S
O1031 C1006 1.325 . S
H1032 C974 0.929 . S
H1033 C975 0.930 . S
H1034 C976 0.930 . S
H1035 C977 0.930 . S
H1036 C979 0.930 . S
H1037 C981 0.929 . S
H1038 C982 0.930 . S
H1039 C983 0.930 . S
H1040 C986 0.930 . S
H1041 C989 0.929 . S
H1042 C994 0.929 . S
H1043 C995 0.930 . S
H1044 C1002 0.929 . S
H1045 C1003 0.930 . S
H1046 C1004 0.930 . S
H1047 C1005 0.930 . S
H1048 C1007 0.929 . S
H1049 C1008 0.930 . S
H1050 C1009 0.930 . S
H1051 C1010 0.930 . S
H1052 C1014 0.929 . S
H1053 C1016 0.930 . S
H1054 C1022 0.929 . S
H1055 C1023 0.930 . S
Li1056 N1073 1.990 1_545 S
Li1056 O1116 1.956 . S
Li1056 O1117 1.970 . S
Li1056 O1118 1.961 . S
Li1057 N1081 1.990 . S
Li1057 O1116 1.970 . S
Li1057 O1117 1.956 . S
Li1057 O1119 1.961 . S
Li1058 N1103 1.990 . S
Li1058 O1116 1.961 . S
Li1058 O1118 1.956 . S
Li1058 O1119 1.970 . S
Li1059 N1109 1.990 . S
Li1059 O1117 1.961 . S
Li1059 O1118 1.970 . S
Li1059 O1119 1.956 . S
C1060 C1062 1.348 . S
C1060 C1063 1.356 . S
C1060 O1116 1.325 1_565 S
N1061 C1064 1.314 . S
N1061 C1065 1.279 . S
C1062 C1060 1.348 . S
C1062 C1064 1.353 . S
C1062 H1120 0.929 . S
C1063 C1060 1.356 . S
C1063 C1065 1.358 . S
C1063 H1121 0.930 . S
C1064 N1061 1.314 . S
C1064 C1062 1.353 . S
C1064 H1122 0.930 . S
C1065 N1061 1.279 . S
C1065 C1063 1.358 . S
C1065 H1123 0.930 . S
C1066 C1069 1.348 1_545 S
C1066 C1070 1.356 . S
C1066 O1117 1.325 . S
C1067 N1068 1.279 . S
C1067 C1070 1.358 . S
C1067 H1124 0.930 . S
N1068 C1067 1.279 . S
N1068 C1071 1.314 1_545 S
C1069 C1066 1.348 1_565 S
C1069 C1071 1.353 . S
C1069 H1125 0.929 . S
C1070 C1066 1.356 . S
C1070 C1067 1.358 . S
C1070 H1126 0.930 . S
C1071 N1068 1.314 1_565 S
C1071 C1069 1.353 . S
C1071 H1127 0.930 . S
C1072 N1073 1.314 . S
C1072 C1077 1.353 . S
C1072 H1078 0.930 . S
N1073 Li1056 1.990 1_565 S
N1073 C1072 1.314 . S
N1073 C1075 1.279 . S
C1074 C1075 1.358 . S
C1074 C1076 1.356 . S
C1074 H1128 0.930 . S
C1075 N1073 1.279 . S
C1075 C1074 1.358 . S
C1075 H1079 0.930 . S
C1076 C1074 1.356 . S
C1076 C1077 1.348 . S
C1077 C1072 1.353 . S
C1077 C1076 1.348 . S
C1077 H1129 0.929 . S
H1078 C1072 0.930 . S
H1079 C1075 0.930 . S
C1080 N1081 1.314 . S
C1080 C1082 1.353 . S
C1080 H1086 0.930 . S
N1081 Li1057 1.990 . S
N1081 C1080 1.314 . S
N1081 C1084 1.279 . S
C1082 C1080 1.353 . S
C1082 C1085 1.348 . S
C1082 H1130 0.929 . S
C1083 C1084 1.358 . S
C1083 C1085 1.356 . S
C1083 H1131 0.930 . S
C1084 N1081 1.279 . S
C1084 C1083 1.358 . S
C1084 H1087 0.930 . S
C1085 C1082 1.348 . S
C1085 C1083 1.356 . S
H1086 C1080 0.930 . S
H1087 C1084 0.930 . S
C1088 C1090 1.348 . S
C1088 C1091 1.356 . S
C1088 O1118 1.325 . S
N1089 C1092 1.314 . S
N1089 C1093 1.279 . S
C1090 C1088 1.348 . S
C1090 C1092 1.353 . S
C1090 H1132 0.929 . S
C1091 C1088 1.356 . S
C1091 C1093 1.358 . S
C1091 H1133 0.930 . S
C1092 N1089 1.314 . S
C1092 C1090 1.353 . S
C1092 H1134 0.930 . S
C1093 N1089 1.279 . S
C1093 C1091 1.358 . S
C1093 H1135 0.930 . S
C1094 C1095 1.348 . S
C1094 C1096 1.356 . S
C1094 O1119 1.325 . S
C1095 C1094 1.348 . S
C1095 C1097 1.353 . S
C1095 H1136 0.929 . S
C1096 C1094 1.356 . S
C1096 C1098 1.358 . S
C1096 H1137 0.930 . S
C1097 C1095 1.353 . S
C1097 N1099 1.314 . S
C1097 H1138 0.930 . S
C1098 C1096 1.358 . S
C1098 N1099 1.279 . S
C1098 H1139 0.930 . S
N1099 C1097 1.314 . S
N1099 C1098 1.279 . S
C1100 C1102 1.353 . S
C1100 N1103 1.314 . S
C1100 H1106 0.930 . S
C1101 N1103 1.279 . S
C1101 C1104 1.358 . S
C1101 H1107 0.930 . S
C1102 C1100 1.353 . S
C1102 C1105 1.348 . S
C1102 H1140 0.929 . S
N1103 Li1058 1.990 . S
N1103 C1100 1.314 . S
N1103 C1101 1.279 . S
C1104 C1101 1.358 . S
C1104 C1105 1.356 . S
C1104 H1141 0.930 . S
C1105 C1102 1.348 . S
C1105 C1104 1.356 . S
H1106 C1100 0.930 . S
H1107 C1101 0.930 . S
C1108 N1109 1.314 . S
C1108 C1110 1.353 . S
C1108 H1114 0.930 . S
N1109 Li1059 1.990 . S
N1109 C1108 1.314 . S
N1109 C1112 1.279 . S
C1110 C1108 1.353 . S
C1110 C1113 1.348 . S
C1110 H1142 0.929 . S
C1111 C1112 1.358 . S
C1111 C1113 1.356 . S
C1111 H1143 0.930 . S
C1112 N1109 1.279 . S
C1112 C1111 1.358 . S
C1112 H1115 0.930 . S
C1113 C1110 1.348 . S
C1113 C1111 1.356 . S
H1114 C1108 0.930 . S
H1115 C1112 0.930 . S
O1116 Li1056 1.956 . S
O1116 Li1057 1.970 . S
O1116 Li1058 1.961 . S
O1116 C1060 1.325 1_545 S
O1117 Li1056 1.970 . S
O1117 Li1057 1.956 . S
O1117 Li1059 1.961 . S
O1117 C1066 1.325 . S
O1118 Li1056 1.961 . S
O1118 Li1058 1.956 . S
O1118 Li1059 1.970 . S
O1118 C1088 1.325 . S
O1119 Li1057 1.961 . S
O1119 Li1058 1.970 . S
O1119 Li1059 1.956 . S
O1119 C1094 1.325 . S
H1120 C1062 0.929 . S
H1121 C1063 0.930 . S
H1122 C1064 0.930 . S
H1123 C1065 0.930 . S
H1124 C1067 0.930 . S
H1125 C1069 0.929 . S
H1126 C1070 0.930 . S
H1127 C1071 0.930 . S
H1128 C1074 0.930 . S
H1129 C1077 0.929 . S
H1130 C1082 0.929 . S
H1131 C1083 0.930 . S
H1132 C1090 0.929 . S
H1133 C1091 0.930 . S
H1134 C1092 0.930 . S
H1135 C1093 0.930 . S
H1136 C1095 0.929 . S
H1137 C1096 0.930 . S
H1138 C1097 0.930 . S
H1139 C1098 0.930 . S
H1140 C1102 0.929 . S
H1141 C1104 0.930 . S
H1142 C1110 0.929 . S
H1143 C1111 0.930 . S
Li1144 N1161 1.990 1_655 S
Li1144 O1204 1.956 . S
Li1144 O1205 1.970 . S
Li1144 O1206 1.961 . S
Li1145 N1169 1.990 . S
Li1145 O1204 1.970 . S
Li1145 O1205 1.956 . S
Li1145 O1207 1.961 . S
Li1146 N1191 1.990 . S
Li1146 O1204 1.961 . S
Li1146 O1206 1.956 . S
Li1146 O1207 1.970 . S
Li1147 N1197 1.990 . S
Li1147 O1205 1.961 . S
Li1147 O1206 1.970 . S
Li1147 O1207 1.956 . S
C1148 C1150 1.348 . S
C1148 C1151 1.356 . S
C1148 O1204 1.325 1_455 S
N1149 C1152 1.314 . S
N1149 C1153 1.279 . S
C1150 C1148 1.348 . S
C1150 C1152 1.353 . S
C1150 H1208 0.929 . S
C1151 C1148 1.356 . S
C1151 C1153 1.358 . S
C1151 H1209 0.930 . S
C1152 N1149 1.314 . S
C1152 C1150 1.353 . S
C1152 H1210 0.930 . S
C1153 N1149 1.279 . S
C1153 C1151 1.358 . S
C1153 H1211 0.930 . S
C1154 C1157 1.348 1_655 S
C1154 C1158 1.356 . S
C1154 O1205 1.325 . S
C1155 N1156 1.279 . S
C1155 C1158 1.358 . S
C1155 H1212 0.930 . S
N1156 C1155 1.279 . S
N1156 C1159 1.314 1_655 S
C1157 C1154 1.348 1_455 S
C1157 C1159 1.353 . S
C1157 H1213 0.929 . S
C1158 C1154 1.356 . S
C1158 C1155 1.358 . S
C1158 H1214 0.930 . S
C1159 N1156 1.314 1_455 S
C1159 C1157 1.353 . S
C1159 H1215 0.930 . S
C1160 N1161 1.314 . S
C1160 C1165 1.353 . S
C1160 H1166 0.930 . S
N1161 Li1144 1.990 1_455 S
N1161 C1160 1.314 . S
N1161 C1163 1.279 . S
C1162 C1163 1.358 . S
C1162 C1164 1.356 . S
C1162 H1216 0.930 . S
C1163 N1161 1.279 . S
C1163 C1162 1.358 . S
C1163 H1167 0.930 . S
C1164 C1162 1.356 . S
C1164 C1165 1.348 . S
C1165 C1160 1.353 . S
C1165 C1164 1.348 . S
C1165 H1217 0.929 . S
H1166 C1160 0.930 . S
H1167 C1163 0.930 . S
C1168 N1169 1.314 . S
C1168 C1170 1.353 . S
C1168 H1174 0.930 . S
N1169 Li1145 1.990 . S
N1169 C1168 1.314 . S
N1169 C1172 1.279 . S
C1170 C1168 1.353 . S
C1170 C1173 1.348 . S
C1170 H1218 0.929 . S
C1171 C1172 1.358 . S
C1171 C1173 1.356 . S
C1171 H1219 0.930 . S
C1172 N1169 1.279 . S
C1172 C1171 1.358 . S
C1172 H1175 0.930 . S
C1173 C1170 1.348 . S
C1173 C1171 1.356 . S
H1174 C1168 0.930 . S
H1175 C1172 0.930 . S
C1176 C1178 1.348 . S
C1176 C1179 1.356 . S
C1176 O1206 1.325 . S
N1177 C1180 1.314 . S
N1177 C1181 1.279 . S
C1178 C1176 1.348 . S
C1178 C1180 1.353 . S
C1178 H1220 0.929 . S
C1179 C1176 1.356 . S
C1179 C1181 1.358 . S
C1179 H1221 0.930 . S
C1180 N1177 1.314 . S
C1180 C1178 1.353 . S
C1180 H1222 0.930 . S
C1181 N1177 1.279 . S
C1181 C1179 1.358 . S
C1181 H1223 0.930 . S
C1182 C1183 1.348 . S
C1182 C1184 1.356 . S
C1182 O1207 1.325 . S
C1183 C1182 1.348 . S
C1183 C1185 1.353 . S
C1183 H1224 0.929 . S
C1184 C1182 1.356 . S
C1184 C1186 1.358 . S
C1184 H1225 0.930 . S
C1185 C1183 1.353 . S
C1185 N1187 1.314 . S
C1185 H1226 0.930 . S
C1186 C1184 1.358 . S
C1186 N1187 1.279 . S
C1186 H1227 0.930 . S
N1187 C1185 1.314 . S
N1187 C1186 1.279 . S
C1188 C1190 1.353 . S
C1188 N1191 1.314 . S
C1188 H1194 0.930 . S
C1189 N1191 1.279 . S
C1189 C1192 1.358 . S
C1189 H1195 0.930 . S
C1190 C1188 1.353 . S
C1190 C1193 1.348 . S
C1190 H1228 0.929 . S
N1191 Li1146 1.990 . S
N1191 C1188 1.314 . S
N1191 C1189 1.279 . S
C1192 C1189 1.358 . S
C1192 C1193 1.356 . S
C1192 H1229 0.930 . S
C1193 C1190 1.348 . S
C1193 C1192 1.356 . S
H1194 C1188 0.930 . S
H1195 C1189 0.930 . S
C1196 N1197 1.314 . S
C1196 C1198 1.353 . S
C1196 H1202 0.930 . S
N1197 Li1147 1.990 . S
N1197 C1196 1.314 . S
N1197 C1200 1.279 . S
C1198 C1196 1.353 . S
C1198 C1201 1.348 . S
C1198 H1230 0.929 . S
C1199 C1200 1.358 . S
C1199 C1201 1.356 . S
C1199 H1231 0.930 . S
C1200 N1197 1.279 . S
C1200 C1199 1.358 . S
C1200 H1203 0.930 . S
C1201 C1198 1.348 . S
C1201 C1199 1.356 . S
H1202 C1196 0.930 . S
H1203 C1200 0.930 . S
O1204 Li1144 1.956 . S
O1204 Li1145 1.970 . S
O1204 Li1146 1.961 . S
O1204 C1148 1.325 1_655 S
O1205 Li1144 1.970 . S
O1205 Li1145 1.956 . S
O1205 Li1147 1.961 . S
O1205 C1154 1.325 . S
O1206 Li1144 1.961 . S
O1206 Li1146 1.956 . S
O1206 Li1147 1.970 . S
O1206 C1176 1.325 . S
O1207 Li1145 1.961 . S
O1207 Li1146 1.970 . S
O1207 Li1147 1.956 . S
O1207 C1182 1.325 . S
H1208 C1150 0.929 . S
H1209 C1151 0.930 . S
H1210 C1152 0.930 . S
H1211 C1153 0.930 . S
H1212 C1155 0.930 . S
H1213 C1157 0.929 . S
H1214 C1158 0.930 . S
H1215 C1159 0.930 . S
H1216 C1162 0.930 . S
H1217 C1165 0.929 . S
H1218 C1170 0.929 . S
H1219 C1171 0.930 . S
H1220 C1178 0.929 . S
H1221 C1179 0.930 . S
H1222 C1180 0.930 . S
H1223 C1181 0.930 . S
H1224 C1183 0.929 . S
H1225 C1184 0.930 . S
H1226 C1185 0.930 . S
H1227 C1186 0.930 . S
H1228 C1190 0.929 . S
H1229 C1192 0.930 . S
H1230 C1198 0.929 . S
H1231 C1199 0.930 . S
Li1232 N1249 1.990 . S
Li1232 O1292 1.956 . S
Li1232 O1293 1.970 . S
Li1232 O1294 1.961 . S
Li1233 N1257 1.990 . S
Li1233 O1292 1.970 . S
Li1233 O1293 1.956 . S
Li1233 O1295 1.961 . S
Li1234 N1279 1.990 . S
Li1234 O1292 1.961 . S
Li1234 O1294 1.956 . S
Li1234 O1295 1.970 . S
Li1235 N1285 1.990 . S
Li1235 O1293 1.961 . S
Li1235 O1294 1.970 . S
Li1235 O1295 1.956 . S
C1236 C1238 1.348 . S
C1236 C1239 1.356 . S
C1236 O1292 1.325 . S
N1237 C1240 1.314 . S
N1237 C1241 1.279 . S
C1238 C1236 1.348 . S
C1238 C1240 1.353 . S
C1238 H1296 0.929 . S
C1239 C1236 1.356 . S
C1239 C1241 1.358 . S
C1239 H1297 0.930 . S
C1240 N1237 1.314 . S
C1240 C1238 1.353 . S
C1240 H1298 0.930 . S
C1241 N1237 1.279 . S
C1241 C1239 1.358 . S
C1241 H1299 0.930 . S
C1242 C1245 1.348 . S
C1242 C1246 1.356 . S
C1242 O1293 1.325 . S
C1243 N1244 1.279 . S
C1243 C1246 1.358 . S
C1243 H1300 0.930 . S
N1244 C1243 1.279 . S
N1244 C1247 1.314 . S
C1245 C1242 1.348 . S
C1245 C1247 1.353 . S
C1245 H1301 0.929 . S
C1246 C1242 1.356 . S
C1246 C1243 1.358 . S
C1246 H1302 0.930 . S
C1247 N1244 1.314 . S
C1247 C1245 1.353 . S
C1247 H1303 0.930 . S
C1248 N1249 1.314 . S
C1248 C1253 1.353 . S
C1248 H1254 0.930 . S
N1249 Li1232 1.990 . S
N1249 C1248 1.314 . S
N1249 C1251 1.279 . S
C1250 C1251 1.358 . S
C1250 C1252 1.356 . S
C1250 H1304 0.930 . S
C1251 N1249 1.279 . S
C1251 C1250 1.358 . S
C1251 H1255 0.930 . S
C1252 C1250 1.356 . S
C1252 C1253 1.348 . S
C1253 C1248 1.353 . S
C1253 C1252 1.348 . S
C1253 H1305 0.929 . S
H1254 C1248 0.930 . S
H1255 C1251 0.930 . S
C1256 N1257 1.314 . S
C1256 C1258 1.353 . S
C1256 H1262 0.930 . S
N1257 Li1233 1.990 . S
N1257 C1256 1.314 . S
N1257 C1260 1.279 . S
C1258 C1256 1.353 . S
C1258 C1261 1.348 . S
C1258 H1306 0.929 . S
C1259 C1260 1.358 . S
C1259 C1261 1.356 . S
C1259 H1307 0.930 . S
C1260 N1257 1.279 . S
C1260 C1259 1.358 . S
C1260 H1263 0.930 . S
C1261 C1258 1.348 . S
C1261 C1259 1.356 . S
H1262 C1256 0.930 . S
H1263 C1260 0.930 . S
C1264 C1266 1.348 . S
C1264 C1267 1.356 . S
C1264 O1294 1.325 . S
N1265 C1268 1.314 . S
N1265 C1269 1.279 . S
C1266 C1264 1.348 . S
C1266 C1268 1.353 . S
C1266 H1308 0.929 . S
C1267 C1264 1.356 . S
C1267 C1269 1.358 . S
C1267 H1309 0.930 . S
C1268 N1265 1.314 . S
C1268 C1266 1.353 . S
C1268 H1310 0.930 . S
C1269 N1265 1.279 . S
C1269 C1267 1.358 . S
C1269 H1311 0.930 . S
C1270 C1271 1.348 . S
C1270 C1272 1.356 . S
C1270 O1295 1.325 . S
C1271 C1270 1.348 . S
C1271 C1273 1.353 . S
C1271 H1312 0.929 . S
C1272 C1270 1.356 . S
C1272 C1274 1.358 . S
C1272 H1313 0.930 . S
C1273 C1271 1.353 . S
C1273 N1275 1.314 . S
C1273 H1314 0.930 . S
C1274 C1272 1.358 . S
C1274 N1275 1.279 . S
C1274 H1315 0.930 . S
N1275 C1273 1.314 . S
N1275 C1274 1.279 . S
C1276 C1278 1.353 . S
C1276 N1279 1.314 . S
C1276 H1282 0.930 . S
C1277 N1279 1.279 . S
C1277 C1280 1.358 . S
C1277 H1283 0.930 . S
C1278 C1276 1.353 . S
C1278 C1281 1.348 . S
C1278 H1316 0.929 . S
N1279 Li1234 1.990 . S
N1279 C1276 1.314 . S
N1279 C1277 1.279 . S
C1280 C1277 1.358 . S
C1280 C1281 1.356 . S
C1280 H1317 0.930 . S
C1281 C1278 1.348 . S
C1281 C1280 1.356 . S
H1282 C1276 0.930 . S
H1283 C1277 0.930 . S
C1284 N1285 1.314 . S
C1284 C1286 1.353 . S
C1284 H1290 0.930 . S
N1285 Li1235 1.990 . S
N1285 C1284 1.314 . S
N1285 C1288 1.279 . S
C1286 C1284 1.353 . S
C1286 C1289 1.348 . S
C1286 H1318 0.929 . S
C1287 C1288 1.358 . S
C1287 C1289 1.356 . S
C1287 H1319 0.930 . S
C1288 N1285 1.279 . S
C1288 C1287 1.358 . S
C1288 H1291 0.930 . S
C1289 C1286 1.348 . S
C1289 C1287 1.356 . S
H1290 C1284 0.930 . S
H1291 C1288 0.930 . S
O1292 Li1232 1.956 . S
O1292 Li1233 1.970 . S
O1292 Li1234 1.961 . S
O1292 C1236 1.325 . S
O1293 Li1232 1.970 . S
O1293 Li1233 1.956 . S
O1293 Li1235 1.961 . S
O1293 C1242 1.325 . S
O1294 Li1232 1.961 . S
O1294 Li1234 1.956 . S
O1294 Li1235 1.970 . S
O1294 C1264 1.325 . S
O1295 Li1233 1.961 . S
O1295 Li1234 1.970 . S
O1295 Li1235 1.956 . S
O1295 C1270 1.325 . S
H1296 C1238 0.929 . S
H1297 C1239 0.930 . S
H1298 C1240 0.930 . S
H1299 C1241 0.930 . S
H1300 C1243 0.930 . S
H1301 C1245 0.929 . S
H1302 C1246 0.930 . S
H1303 C1247 0.930 . S
H1304 C1250 0.930 . S
H1305 C1253 0.929 . S
H1306 C1258 0.929 . S
H1307 C1259 0.930 . S
H1308 C1266 0.929 . S
H1309 C1267 0.930 . S
H1310 C1268 0.930 . S
H1311 C1269 0.930 . S
H1312 C1271 0.929 . S
H1313 C1272 0.930 . S
H1314 C1273 0.930 . S
H1315 C1274 0.930 . S
H1316 C1278 0.929 . S
H1317 C1280 0.930 . S
H1318 C1286 0.929 . S
H1319 C1287 0.930 . S
Li1320 N1337 1.990 . S
Li1320 O1380 1.956 . S
Li1320 O1381 1.970 . S
Li1320 O1382 1.961 . S
Li1321 N1345 1.990 . S
Li1321 O1380 1.970 . S
Li1321 O1381 1.956 . S
Li1321 O1383 1.961 . S
Li1322 N1367 1.990 . S
Li1322 O1380 1.961 . S
Li1322 O1382 1.956 . S
Li1322 O1383 1.970 . S
Li1323 N1373 1.990 . S
Li1323 O1381 1.961 . S
Li1323 O1382 1.970 . S
Li1323 O1383 1.956 . S
C1324 C1326 1.348 . S
C1324 C1327 1.356 . S
C1324 O1380 1.325 . S
N1325 C1328 1.314 . S
N1325 C1329 1.279 . S
C1326 C1324 1.348 . S
C1326 C1328 1.353 . S
C1326 H1384 0.929 . S
C1327 C1324 1.356 . S
C1327 C1329 1.358 . S
C1327 H1385 0.930 . S
C1328 N1325 1.314 . S
C1328 C1326 1.353 . S
C1328 H1386 0.930 . S
C1329 N1325 1.279 . S
C1329 C1327 1.358 . S
C1329 H1387 0.930 . S
C1330 C1333 1.348 . S
C1330 C1334 1.356 . S
C1330 O1381 1.325 . S
C1331 N1332 1.279 . S
C1331 C1334 1.358 . S
C1331 H1388 0.930 . S
N1332 C1331 1.279 . S
N1332 C1335 1.314 . S
C1333 C1330 1.348 . S
C1333 C1335 1.353 . S
C1333 H1389 0.929 . S
C1334 C1330 1.356 . S
C1334 C1331 1.358 . S
C1334 H1390 0.930 . S
C1335 N1332 1.314 . S
C1335 C1333 1.353 . S
C1335 H1391 0.930 . S
C1336 N1337 1.314 . S
C1336 C1341 1.353 . S
C1336 H1342 0.930 . S
N1337 Li1320 1.990 . S
N1337 C1336 1.314 . S
N1337 C1339 1.279 . S
C1338 C1339 1.358 . S
C1338 C1340 1.356 . S
C1338 H1392 0.930 . S
C1339 N1337 1.279 . S
C1339 C1338 1.358 . S
C1339 H1343 0.930 . S
C1340 C1338 1.356 . S
C1340 C1341 1.348 . S
C1341 C1336 1.353 . S
C1341 C1340 1.348 . S
C1341 H1393 0.929 . S
H1342 C1336 0.930 . S
H1343 C1339 0.930 . S
C1344 N1345 1.314 . S
C1344 C1346 1.353 . S
C1344 H1350 0.930 . S
N1345 Li1321 1.990 . S
N1345 C1344 1.314 . S
N1345 C1348 1.279 . S
C1346 C1344 1.353 . S
C1346 C1349 1.348 . S
C1346 H1394 0.929 . S
C1347 C1348 1.358 . S
C1347 C1349 1.356 . S
C1347 H1395 0.930 . S
C1348 N1345 1.279 . S
C1348 C1347 1.358 . S
C1348 H1351 0.930 . S
C1349 C1346 1.348 . S
C1349 C1347 1.356 . S
H1350 C1344 0.930 . S
H1351 C1348 0.930 . S
C1352 C1354 1.348 . S
C1352 C1355 1.356 . S
C1352 O1382 1.325 . S
N1353 C1356 1.314 . S
N1353 C1357 1.279 . S
C1354 C1352 1.348 . S
C1354 C1356 1.353 . S
C1354 H1396 0.929 . S
C1355 C1352 1.356 . S
C1355 C1357 1.358 . S
C1355 H1397 0.930 . S
C1356 N1353 1.314 . S
C1356 C1354 1.353 . S
C1356 H1398 0.930 . S
C1357 N1353 1.279 . S
C1357 C1355 1.358 . S
C1357 H1399 0.930 . S
C1358 C1359 1.348 . S
C1358 C1360 1.356 . S
C1358 O1383 1.325 . S
C1359 C1358 1.348 . S
C1359 C1361 1.353 . S
C1359 H1400 0.929 . S
C1360 C1358 1.356 . S
C1360 C1362 1.358 . S
C1360 H1401 0.930 . S
C1361 C1359 1.353 . S
C1361 N1363 1.314 . S
C1361 H1402 0.930 . S
C1362 C1360 1.358 . S
C1362 N1363 1.279 . S
C1362 H1403 0.930 . S
N1363 C1361 1.314 . S
N1363 C1362 1.279 . S
C1364 C1366 1.353 . S
C1364 N1367 1.314 . S
C1364 H1370 0.930 . S
C1365 N1367 1.279 . S
C1365 C1368 1.358 . S
C1365 H1371 0.930 . S
C1366 C1364 1.353 . S
C1366 C1369 1.348 . S
C1366 H1404 0.929 . S
N1367 Li1322 1.990 . S
N1367 C1364 1.314 . S
N1367 C1365 1.279 . S
C1368 C1365 1.358 . S
C1368 C1369 1.356 . S
C1368 H1405 0.930 . S
C1369 C1366 1.348 . S
C1369 C1368 1.356 . S
H1370 C1364 0.930 . S
H1371 C1365 0.930 . S
C1372 N1373 1.314 . S
C1372 C1374 1.353 . S
C1372 H1378 0.930 . S
N1373 Li1323 1.990 . S
N1373 C1372 1.314 . S
N1373 C1376 1.279 . S
C1374 C1372 1.353 . S
C1374 C1377 1.348 . S
C1374 H1406 0.929 . S
C1375 C1376 1.358 . S
C1375 C1377 1.356 . S
C1375 H1407 0.930 . S
C1376 N1373 1.279 . S
C1376 C1375 1.358 . S
C1376 H1379 0.930 . S
C1377 C1374 1.348 . S
C1377 C1375 1.356 . S
H1378 C1372 0.930 . S
H1379 C1376 0.930 . S
O1380 Li1320 1.956 . S
O1380 Li1321 1.970 . S
O1380 Li1322 1.961 . S
O1380 C1324 1.325 . S
O1381 Li1320 1.970 . S
O1381 Li1321 1.956 . S
O1381 Li1323 1.961 . S
O1381 C1330 1.325 . S
O1382 Li1320 1.961 . S
O1382 Li1322 1.956 . S
O1382 Li1323 1.970 . S
O1382 C1352 1.325 . S
O1383 Li1321 1.961 . S
O1383 Li1322 1.970 . S
O1383 Li1323 1.956 . S
O1383 C1358 1.325 . S
H1384 C1326 0.929 . S
H1385 C1327 0.930 . S
H1386 C1328 0.930 . S
H1387 C1329 0.930 . S
H1388 C1331 0.930 . S
H1389 C1333 0.929 . S
H1390 C1334 0.930 . S
H1391 C1335 0.930 . S
H1392 C1338 0.930 . S
H1393 C1341 0.929 . S
H1394 C1346 0.929 . S
H1395 C1347 0.930 . S
H1396 C1354 0.929 . S
H1397 C1355 0.930 . S
H1398 C1356 0.930 . S
H1399 C1357 0.930 . S
H1400 C1359 0.929 . S
H1401 C1360 0.930 . S
H1402 C1361 0.930 . S
H1403 C1362 0.930 . S
H1404 C1366 0.929 . S
H1405 C1368 0.930 . S
H1406 C1374 0.929 . S
H1407 C1375 0.930 . S
Li1408 N1425 1.990 . S
Li1408 O1468 1.956 . S
Li1408 O1469 1.970 . S
Li1408 O1470 1.961 . S
Li1409 N1433 1.990 . S
Li1409 O1468 1.970 . S
Li1409 O1469 1.956 . S
Li1409 O1471 1.961 . S
Li1410 N1455 1.990 . S
Li1410 O1468 1.961 . S
Li1410 O1470 1.956 . S
Li1410 O1471 1.970 . S
Li1411 N1461 1.990 1_545 S
Li1411 O1469 1.961 . S
Li1411 O1470 1.970 . S
Li1411 O1471 1.956 . S
C1412 C1414 1.348 . S
C1412 C1415 1.356 . S
C1412 O1468 1.325 . S
N1413 C1416 1.314 . S
N1413 C1417 1.279 . S
C1414 C1412 1.348 . S
C1414 C1416 1.353 . S
C1414 H1472 0.929 . S
C1415 C1412 1.356 . S
C1415 C1417 1.358 . S
C1415 H1473 0.930 . S
C1416 N1413 1.314 . S
C1416 C1414 1.353 . S
C1416 H1474 0.930 . S
C1417 N1413 1.279 . S
C1417 C1415 1.358 . S
C1417 H1475 0.930 . S
C1418 C1421 1.348 . S
C1418 C1422 1.356 . S
C1418 O1469 1.325 1_565 S
C1419 N1420 1.279 . S
C1419 C1422 1.358 . S
C1419 H1476 0.930 . S
N1420 C1419 1.279 . S
N1420 C1423 1.314 . S
C1421 C1418 1.348 . S
C1421 C1423 1.353 . S
C1421 H1477 0.929 1_565 S
C1422 C1418 1.356 . S
C1422 C1419 1.358 . S
C1422 H1478 0.930 . S
C1423 N1420 1.314 . S
C1423 C1421 1.353 . S
C1423 H1479 0.930 . S
C1424 N1425 1.314 . S
C1424 C1429 1.353 . S
C1424 H1430 0.993 . S
N1425 Li1408 1.990 . S
N1425 C1424 1.314 . S
N1425 C1427 1.279 . S
C1426 C1427 1.358 . S
C1426 C1428 1.356 . S
C1426 H1480 0.930 . S
C1427 N1425 1.279 . S
C1427 C1426 1.358 . S
C1427 H1431 0.930 . S
C1428 C1426 1.356 . S
C1428 C1429 1.348 . S
C1429 C1424 1.353 . S
C1429 C1428 1.348 . S
C1429 H1481 0.929 1_545 S
H1430 C1424 0.993 . S
H1431 C1427 0.930 . S
C1432 N1433 1.314 . S
C1432 C1434 1.353 . S
C1432 H1438 0.930 . S
N1433 Li1409 1.990 . S
N1433 C1432 1.314 . S
N1433 C1436 1.279 . S
C1434 C1432 1.353 . S
C1434 C1437 1.348 . S
C1434 H1482 0.929 . S
C1435 C1436 1.358 . S
C1435 C1437 1.356 . S
C1435 H1483 0.930 . S
C1436 N1433 1.279 . S
C1436 C1435 1.358 . S
C1436 H1439 0.930 . S
C1437 C1434 1.348 . S
C1437 C1435 1.356 . S
H1438 C1432 0.930 . S
H1439 C1436 0.930 . S
C1440 C1442 1.414 . S
C1440 C1443 1.356 . S
C1440 O1470 1.325 . S
N1441 C1444 1.314 1_545 S
N1441 C1445 1.279 . S
C1442 C1440 1.414 . S
C1442 C1444 1.377 1_545 S
C1442 H1484 0.846 1_545 S
C1443 C1440 1.356 . S
C1443 C1445 1.358 . S
C1443 H1485 0.930 . S
C1444 N1441 1.314 1_565 S
C1444 C1442 1.377 1_565 S
C1444 H1486 0.930 . S
C1445 N1441 1.279 . S
C1445 C1443 1.358 . S
C1445 H1487 0.930 . S
C1446 C1447 1.348 . S
C1446 C1448 1.356 . S
C1446 O1471 1.325 . S
C1447 C1446 1.348 . S
C1447 C1449 1.353 . S
C1447 H1488 0.929 . S
C1448 C1446 1.356 . S
C1448 C1450 1.358 . S
C1448 H1489 0.930 . S
C1449 C1447 1.353 . S
C1449 N1451 1.314 . S
C1449 H1490 0.930 . S
C1450 C1448 1.358 . S
C1450 N1451 1.279 . S
C1450 H1491 0.930 . S
N1451 C1449 1.314 . S
N1451 C1450 1.279 . S
C1452 C1454 1.353 . S
C1452 N1455 1.314 . S
C1452 H1458 0.930 . S
C1453 N1455 1.279 . S
C1453 C1456 1.358 . S
C1453 H1459 0.930 . S
C1454 C1452 1.353 . S
C1454 C1457 1.348 . S
C1454 H1492 0.929 . S
N1455 Li1410 1.990 . S
N1455 C1452 1.314 . S
N1455 C1453 1.279 . S
C1456 C1453 1.358 . S
C1456 C1457 1.356 . S
C1456 H1493 0.930 . S
C1457 C1454 1.348 . S
C1457 C1456 1.356 . S
H1458 C1452 0.930 . S
H1459 C1453 0.930 . S
C1460 N1461 1.314 . S
C1460 C1462 1.353 . S
C1460 H1466 0.930 . S
N1461 Li1411 1.990 1_565 S
N1461 C1460 1.314 . S
N1461 C1464 1.279 . S
C1462 C1460 1.353 . S
C1462 C1465 1.348 . S
C1462 H1494 0.929 . S
C1463 C1464 1.358 . S
C1463 C1465 1.356 . S
C1463 H1495 0.930 . S
C1464 N1461 1.279 . S
C1464 C1463 1.358 . S
C1464 H1467 0.930 . S
C1465 C1462 1.348 . S
C1465 C1463 1.356 . S
H1466 C1460 0.930 . S
H1467 C1464 0.930 . S
O1468 Li1408 1.956 . S
O1468 Li1409 1.970 . S
O1468 Li1410 1.961 . S
O1468 C1412 1.325 . S
O1469 Li1408 1.970 . S
O1469 Li1409 1.956 . S
O1469 Li1411 1.961 . S
O1469 C1418 1.325 1_545 S
O1470 Li1408 1.961 . S
O1470 Li1410 1.956 . S
O1470 Li1411 1.970 . S
O1470 C1440 1.325 . S
O1471 Li1409 1.961 . S
O1471 Li1410 1.970 . S
O1471 Li1411 1.956 . S
O1471 C1446 1.325 . S
H1472 C1414 0.929 . S
H1473 C1415 0.930 . S
H1474 C1416 0.930 . S
H1475 C1417 0.930 . S
H1476 C1419 0.930 . S
H1477 C1421 0.929 1_545 S
H1478 C1422 0.930 . S
H1479 C1423 0.930 . S
H1480 C1426 0.930 . S
H1481 C1429 0.929 1_565 S
H1482 C1434 0.929 . S
H1483 C1435 0.930 . S
H1484 C1442 0.846 1_565 S
H1485 C1443 0.930 . S
H1486 C1444 0.930 . S
H1487 C1445 0.930 . S
H1488 C1447 0.929 . S
H1489 C1448 0.930 . S
H1490 C1449 0.930 . S
H1491 C1450 0.930 . S
H1492 C1454 0.929 . S
H1493 C1456 0.930 . S
H1494 C1462 0.929 . S
H1495 C1463 0.930 . S
Li1496 N1513 1.990 . S
Li1496 O1556 1.956 . S
Li1496 O1557 1.970 . S
Li1496 O1558 1.961 . S
Li1497 N1521 1.990 . S
Li1497 O1556 1.970 . S
Li1497 O1557 1.956 . S
Li1497 O1559 1.961 . S
Li1498 N1543 1.990 1_655 S
Li1498 O1556 1.961 . S
Li1498 O1558 1.956 . S
Li1498 O1559 1.970 . S
Li1499 N1549 1.990 . S
Li1499 O1557 1.961 . S
Li1499 O1558 1.970 . S
Li1499 O1559 1.956 . S
C1500 C1502 1.348 . S
C1500 C1503 1.356 . S
C1500 O1556 1.325 1_455 S
N1501 C1504 1.314 . S
N1501 C1505 1.279 . S
C1502 C1500 1.348 . S
C1502 C1504 1.353 . S
C1502 H1560 0.929 1_455 S
C1503 C1500 1.356 . S
C1503 C1505 1.358 . S
C1503 H1561 0.930 . S
C1504 N1501 1.314 . S
C1504 C1502 1.353 . S
C1504 H1562 0.930 . S
C1505 N1501 1.279 . S
C1505 C1503 1.358 . S
C1505 H1563 0.930 . S
C1506 C1509 1.348 . S
C1506 C1510 1.356 . S
C1506 O1557 1.325 . S
C1507 N1508 1.279 . S
C1507 C1510 1.358 . S
C1507 H1564 0.930 . S
N1508 C1507 1.279 . S
N1508 C1511 1.314 . S
C1509 C1506 1.348 . S
C1509 C1511 1.353 . S
C1509 H1565 0.929 . S
C1510 C1506 1.356 . S
C1510 C1507 1.358 . S
C1510 H1566 0.930 . S
C1511 N1508 1.314 . S
C1511 C1509 1.353 . S
C1511 H1567 0.930 . S
C1512 N1513 1.314 . S
C1512 C1517 1.353 . S
C1512 H1518 0.930 . S
N1513 Li1496 1.990 . S
N1513 C1512 1.314 . S
N1513 C1515 1.279 . S
C1514 C1515 1.358 . S
C1514 C1516 1.356 . S
C1514 H1568 0.930 . S
C1515 N1513 1.279 . S
C1515 C1514 1.358 . S
C1515 H1519 0.930 . S
C1516 C1514 1.356 . S
C1516 C1517 1.348 . S
C1517 C1512 1.353 . S
C1517 C1516 1.348 . S
C1517 H1569 0.929 . S
H1518 C1512 0.930 . S
H1519 C1515 0.930 . S
C1520 N1521 1.314 . S
C1520 C1522 1.353 . S
C1520 H1526 0.930 . S
N1521 Li1497 1.990 . S
N1521 C1520 1.314 . S
N1521 C1524 1.279 . S
C1522 C1520 1.353 . S
C1522 C1525 1.348 . S
C1522 H1570 0.944 . S
C1523 C1524 1.358 . S
C1523 C1525 1.356 . S
C1523 H1571 0.930 . S
C1524 N1521 1.279 . S
C1524 C1523 1.358 . S
C1524 H1527 0.930 . S
C1525 C1522 1.348 . S
C1525 C1523 1.356 . S
H1526 C1520 0.930 . S
H1527 C1524 0.930 . S
C1528 C1530 1.348 . S
C1528 C1531 1.356 . S
C1528 O1558 1.325 . S
N1529 C1532 1.314 . S
N1529 C1533 1.279 . S
C1530 C1528 1.348 . S
C1530 C1532 1.353 . S
C1530 H1572 0.929 . S
C1531 C1528 1.356 . S
C1531 C1533 1.358 . S
C1531 H1573 0.930 . S
C1532 N1529 1.314 . S
C1532 C1530 1.353 . S
C1532 H1574 0.930 . S
C1533 N1529 1.279 . S
C1533 C1531 1.358 . S
C1533 H1575 0.930 . S
C1534 C1535 1.348 . S
C1534 C1536 1.356 . S
C1534 O1559 1.325 . S
C1535 C1534 1.348 . S
C1535 C1537 1.386 . S
C1535 H1576 0.929 1_655 S
C1536 C1534 1.356 . S
C1536 C1538 1.358 . S
C1536 H1577 0.930 . S
C1537 C1535 1.386 . S
C1537 N1539 1.312 . S
C1537 H1578 0.899 1_655 S
C1538 C1536 1.358 . S
C1538 N1539 1.279 . S
C1538 H1579 0.930 . S
N1539 C1537 1.312 . S
N1539 C1538 1.279 . S
C1540 C1542 1.353 . S
C1540 N1543 1.314 . S
C1540 H1546 0.930 . S
C1541 N1543 1.279 . S
C1541 C1544 1.358 . S
C1541 H1547 0.930 . S
C1542 C1540 1.353 . S
C1542 C1545 1.348 . S
C1542 H1580 0.929 . S
N1543 Li1498 1.990 1_455 S
N1543 C1540 1.314 . S
N1543 C1541 1.279 . S
C1544 C1541 1.358 . S
C1544 C1545 1.356 . S
C1544 H1581 0.930 . S
C1545 C1542 1.348 . S
C1545 C1544 1.356 . S
H1546 C1540 0.930 . S
H1547 C1541 0.930 . S
C1548 N1549 1.314 . S
C1548 C1550 1.353 . S
C1548 H1554 0.930 . S
N1549 Li1499 1.990 . S
N1549 C1548 1.314 . S
N1549 C1552 1.279 . S
C1550 C1548 1.353 . S
C1550 C1553 1.348 . S
C1550 H1582 0.929 . S
C1551 C1552 1.358 . S
C1551 C1553 1.356 . S
C1551 H1583 0.930 . S
C1552 N1549 1.279 . S
C1552 C1551 1.358 . S
C1552 H1555 0.930 . S
C1553 C1550 1.348 . S
C1553 C1551 1.356 . S
H1554 C1548 0.930 . S
H1555 C1552 0.930 . S
O1556 Li1496 1.956 . S
O1556 Li1497 1.970 . S
O1556 Li1498 1.961 . S
O1556 C1500 1.325 1_655 S
O1557 Li1496 1.970 . S
O1557 Li1497 1.956 . S
O1557 Li1499 1.961 . S
O1557 C1506 1.325 . S
O1558 Li1496 1.961 . S
O1558 Li1498 1.956 . S
O1558 Li1499 1.970 . S
O1558 C1528 1.325 . S
O1559 Li1497 1.961 . S
O1559 Li1498 1.970 . S
O1559 Li1499 1.956 . S
O1559 C1534 1.325 . S
H1560 C1502 0.929 1_655 S
H1561 C1503 0.930 . S
H1562 C1504 0.930 . S
H1563 C1505 0.930 . S
H1564 C1507 0.930 . S
H1565 C1509 0.929 . S
H1566 C1510 0.930 . S
H1567 C1511 0.930 . S
H1568 C1514 0.930 . S
H1569 C1517 0.929 . S
H1570 C1522 0.944 . S
H1571 C1523 0.930 . S
H1572 C1530 0.929 . S
H1573 C1531 0.930 . S
H1574 C1532 0.930 . S
H1575 C1533 0.930 . S
H1576 C1535 0.929 1_455 S
H1577 C1536 0.930 . S
H1578 C1537 0.899 1_455 S
H1579 C1538 0.930 . S
H1580 C1542 0.929 . S
H1581 C1544 0.930 . S
H1582 C1550 0.929 . S
H1583 C1551 0.930 . S
C1584 C1585 1.560 . S
C1584 H1645 0.959 . S
C1584 H1646 0.959 . S
C1584 H1647 0.960 . S
C1585 C1584 1.560 . S
C1585 O1640 1.426 . S
C1585 H1644 0.980 . S
C1586 C1587 1.407 . S
C1586 C1591 1.418 . S
C1586 O1640 1.334 . S
C1587 C1586 1.407 . S
C1587 C1588 1.360 . S
C1587 H1648 0.929 . S
C1588 C1587 1.360 . S
C1588 C1589 1.401 . S
C1588 C1592 1.527 . S
C1589 C1588 1.401 . S
C1589 C1590 1.405 . S
C1589 C1622 1.587 . S
C1590 C1589 1.405 . S
C1590 C1591 1.332 . S
C1590 C1593 1.496 . S
C1591 C1586 1.418 . S
C1591 C1590 1.332 . S
C1591 H1649 0.929 . S
C1592 C1588 1.527 . S
C1592 H1650 0.959 . S
C1592 H1651 0.961 . S
C1592 H1652 0.961 . S
C1593 C1590 1.496 . S
C1593 H1653 0.960 . S
C1593 H1654 0.960 . S
C1593 H1655 0.961 . S
C1594 C1595 1.517 . S
C1594 H1657 0.961 . S
C1594 H1658 0.960 . S
C1594 H1659 0.959 . S
C1595 C1594 1.517 . S
C1595 O1643 1.468 . S
C1595 H1656 0.980 . S
C1596 C1597 1.349 . S
C1596 C1601 1.367 . S
C1596 O1643 1.408 . S
C1597 C1596 1.349 . S
C1597 C1598 1.407 . S
C1597 H1660 0.930 . S
C1598 C1597 1.407 . S
C1598 C1599 1.449 . S
C1598 C1602 1.535 . S
C1599 C1598 1.449 . S
C1599 C1600 1.384 . S
C1599 C1624 1.553 . S
C1600 C1599 1.384 . S
C1600 C1601 1.364 . S
C1600 C1603 1.450 . S
C1601 C1596 1.367 . S
C1601 C1600 1.364 . S
C1601 H1661 0.931 . S
C1602 C1598 1.535 . S
C1602 H1662 0.959 . S
C1602 H1663 0.961 . S
C1602 H1664 0.959 . S
C1603 C1600 1.450 . S
C1603 H1665 0.960 . S
C1603 H1666 0.960 . S
C1603 H1667 0.960 . S
C1604 C1605 1.309 . S
C1604 C1609 1.304 . S
C1604 O1642 1.435 . S
C1605 C1604 1.309 . S
C1605 C1606 1.476 . S
C1605 H1669 0.930 . S
C1606 C1605 1.476 . S
C1606 C1607 1.400 . S
C1606 C1610 1.567 . S
C1607 C1606 1.400 . S
C1607 C1608 1.373 . S
C1607 C1629 1.432 . S
C1608 C1607 1.373 . S
C1608 C1609 1.339 . S
C1608 C1611 1.530 . S
C1609 C1604 1.304 . S
C1609 C1608 1.339 . S
C1609 H1670 0.930 . S
C1610 C1606 1.567 . S
C1610 H1671 0.961 . S
C1610 H1672 0.960 . S
C1610 H1673 0.958 . S
C1611 C1608 1.530 . S
C1611 H1674 0.961 . S
C1611 H1675 0.960 . S
C1611 H1676 0.960 . S
C1612 C1613 1.530 . S
C1612 H1678 0.961 . S
C1612 H1679 0.961 . S
C1612 H1680 0.959 . S
C1613 C1612 1.530 . S
C1613 O1641 1.412 . S
C1613 H1677 0.980 . S
C1614 C1615 1.288 . S
C1614 C1619 1.377 . S
C1614 O1641 1.393 . S
C1615 C1614 1.288 . S
C1615 C1616 1.369 . S
C1615 H1681 0.932 . S
C1616 C1615 1.369 . S
C1616 C1617 1.398 . S
C1616 C1620 1.527 . S
C1617 C1616 1.398 . S
C1617 C1618 1.380 . S
C1617 C1631 1.497 . S
C1618 C1617 1.380 . S
C1618 C1619 1.383 . S
C1618 C1621 1.603 . S
C1619 C1614 1.377 . S
C1619 C1618 1.383 . S
C1619 H1682 0.929 . S
C1620 C1616 1.527 . S
C1620 H1683 0.961 . S
C1620 H1684 0.959 . S
C1620 H1685 0.959 . S
C1621 C1618 1.603 . S
C1621 H1686 0.960 . S
C1621 H1687 0.962 . S
C1621 H1688 0.961 . S
C1622 C1589 1.587 . S
C1622 C1623 1.360 . S
C1622 C1635 1.412 . S
C1623 C1622 1.360 . S
C1623 C1624 1.365 . S
C1623 H1689 0.929 . S
C1624 C1599 1.553 . S
C1624 C1623 1.365 . S
C1624 C1625 1.404 . S
C1625 C1624 1.404 . S
C1625 C1626 1.395 . S
C1625 C1636 1.451 . S
C1626 C1625 1.395 . S
C1626 C1627 1.322 . S
C1626 H1690 0.930 . S
C1627 C1626 1.322 . S
C1627 C1628 1.459 . S
C1627 H1691 0.929 . S
C1628 C1627 1.459 . S
C1628 C1629 1.445 . S
C1628 C1637 1.395 . S
C1629 C1607 1.432 . S
C1629 C1628 1.445 . S
C1629 C1630 1.370 . S
C1630 C1629 1.370 . S
C1630 C1631 1.438 . S
C1630 H1692 0.930 . S
C1631 C1617 1.497 . S
C1631 C1630 1.438 . S
C1631 C1632 1.360 . S
C1632 C1631 1.360 . S
C1632 C1633 1.401 . S
C1632 C1637 1.446 . S
C1633 C1632 1.401 . S
C1633 C1634 1.347 . S
C1633 H1693 0.929 . S
C1634 C1633 1.347 . S
C1634 C1635 1.455 . S
C1634 H1694 0.930 . S
C1635 C1622 1.412 . S
C1635 C1634 1.455 . S
C1635 C1636 1.331 . S
C1636 C1625 1.451 . S
C1636 C1635 1.331 . S
C1636 C1637 1.497 . S
C1637 C1628 1.395 . S
C1637 C1632 1.446 . S
C1637 C1636 1.497 . S
C1638 C1639 1.582 . S
C1638 H1695 0.962 . S
C1638 H1696 0.959 . S
C1638 H1697 0.958 . S
C1639 C1638 1.582 . S
C1639 O1642 1.458 . S
C1639 H1668 0.980 . S
O1640 C1585 1.426 . S
O1640 C1586 1.334 . S
O1641 C1613 1.412 . S
O1641 C1614 1.393 . S
O1642 C1604 1.435 . S
O1642 C1639 1.458 . S
O1643 C1595 1.468 . S
O1643 C1596 1.408 . S
H1644 C1585 0.980 . S
H1645 C1584 0.959 . S
H1646 C1584 0.959 . S
H1647 C1584 0.960 . S
H1648 C1587 0.929 . S
H1649 C1591 0.929 . S
H1650 C1592 0.959 . S
H1651 C1592 0.961 . S
H1652 C1592 0.961 . S
H1653 C1593 0.960 . S
H1654 C1593 0.960 . S
H1655 C1593 0.961 . S
H1656 C1595 0.980 . S
H1657 C1594 0.961 . S
H1658 C1594 0.960 . S
H1659 C1594 0.959 . S
H1660 C1597 0.930 . S
H1661 C1601 0.931 . S
H1662 C1602 0.959 . S
H1663 C1602 0.961 . S
H1664 C1602 0.959 . S
H1665 C1603 0.960 . S
H1666 C1603 0.960 . S
H1667 C1603 0.960 . S
H1668 C1639 0.980 . S
H1669 C1605 0.930 . S
H1670 C1609 0.930 . S
H1671 C1610 0.961 . S
H1672 C1610 0.960 . S
H1673 C1610 0.958 . S
H1674 C1611 0.961 . S
H1675 C1611 0.960 . S
H1676 C1611 0.960 . S
H1677 C1613 0.980 . S
H1678 C1612 0.961 . S
H1679 C1612 0.961 . S
H1680 C1612 0.959 . S
H1681 C1615 0.932 . S
H1682 C1619 0.929 . S
H1683 C1620 0.961 . S
H1684 C1620 0.959 . S
H1685 C1620 0.959 . S
H1686 C1621 0.960 . S
H1687 C1621 0.962 . S
H1688 C1621 0.961 . S
H1689 C1623 0.929 . S
H1690 C1626 0.930 . S
H1691 C1627 0.929 . S
H1692 C1630 0.930 . S
H1693 C1633 0.929 . S
H1694 C1634 0.930 . S
H1695 C1638 0.962 . S
H1696 C1638 0.959 . S
H1697 C1638 0.958 . S
C1698 C1699 1.560 . S
C1698 H1759 0.959 . S
C1698 H1760 0.959 . S
C1698 H1761 0.960 . S
C1699 C1698 1.560 . S
C1699 O1754 1.426 . S
C1699 H1758 0.980 . S
C1700 C1701 1.407 . S
C1700 C1705 1.418 . S
C1700 O1754 1.334 . S
C1701 C1700 1.407 . S
C1701 C1702 1.360 . S
C1701 H1762 0.929 . S
C1702 C1701 1.360 . S
C1702 C1703 1.401 . S
C1702 C1706 1.527 . S
C1703 C1702 1.401 . S
C1703 C1704 1.405 . S
C1703 C1736 1.587 . S
C1704 C1703 1.405 . S
C1704 C1705 1.332 . S
C1704 C1707 1.496 . S
C1705 C1700 1.418 . S
C1705 C1704 1.332 . S
C1705 H1763 0.929 . S
C1706 C1702 1.527 . S
C1706 H1764 0.959 . S
C1706 H1765 0.961 . S
C1706 H1766 0.961 . S
C1707 C1704 1.496 . S
C1707 H1767 0.960 . S
C1707 H1768 0.960 . S
C1707 H1769 0.961 . S
C1708 C1709 1.517 . S
C1708 H1771 0.961 . S
C1708 H1772 0.960 . S
C1708 H1773 0.959 . S
C1709 C1708 1.517 . S
C1709 O1757 1.468 . S
C1709 H1770 0.980 . S
C1710 C1711 1.349 . S
C1710 C1715 1.367 . S
C1710 O1757 1.408 . S
C1711 C1710 1.349 . S
C1711 C1712 1.407 . S
C1711 H1774 0.930 . S
C1712 C1711 1.407 . S
C1712 C1713 1.449 . S
C1712 C1716 1.535 . S
C1713 C1712 1.449 . S
C1713 C1714 1.384 . S
C1713 C1738 1.553 . S
C1714 C1713 1.384 . S
C1714 C1715 1.364 . S
C1714 C1717 1.450 . S
C1715 C1710 1.367 . S
C1715 C1714 1.364 . S
C1715 H1775 0.931 . S
C1716 C1712 1.535 . S
C1716 H1776 0.959 . S
C1716 H1777 0.961 . S
C1716 H1778 0.959 . S
C1717 C1714 1.450 . S
C1717 H1779 0.960 . S
C1717 H1780 0.960 . S
C1717 H1781 0.960 . S
C1718 C1719 1.309 . S
C1718 C1723 1.304 . S
C1718 O1756 1.435 . S
C1719 C1718 1.309 . S
C1719 C1720 1.476 . S
C1719 H1783 0.930 . S
C1720 C1719 1.476 . S
C1720 C1721 1.400 . S
C1720 C1724 1.567 . S
C1721 C1720 1.400 . S
C1721 C1722 1.373 . S
C1721 C1743 1.432 . S
C1722 C1721 1.373 . S
C1722 C1723 1.339 . S
C1722 C1725 1.530 . S
C1723 C1718 1.304 . S
C1723 C1722 1.339 . S
C1723 H1784 0.930 . S
C1724 C1720 1.567 . S
C1724 H1785 0.961 . S
C1724 H1786 0.960 . S
C1724 H1787 0.958 . S
C1725 C1722 1.530 . S
C1725 H1788 0.961 . S
C1725 H1789 0.960 . S
C1725 H1790 0.960 . S
C1726 C1727 1.530 . S
C1726 H1792 0.961 . S
C1726 H1793 0.961 . S
C1726 H1794 0.959 . S
C1727 C1726 1.530 . S
C1727 O1755 1.412 . S
C1727 H1791 0.980 . S
C1728 C1729 1.288 . S
C1728 C1733 1.377 . S
C1728 O1755 1.393 . S
C1729 C1728 1.288 . S
C1729 C1730 1.369 . S
C1729 H1795 0.932 . S
C1730 C1729 1.369 . S
C1730 C1731 1.398 . S
C1730 C1734 1.527 . S
C1731 C1730 1.398 . S
C1731 C1732 1.380 . S
C1731 C1745 1.497 . S
C1732 C1731 1.380 . S
C1732 C1733 1.383 . S
C1732 C1735 1.603 . S
C1733 C1728 1.377 . S
C1733 C1732 1.383 . S
C1733 H1796 0.929 . S
C1734 C1730 1.527 . S
C1734 H1797 0.961 . S
C1734 H1798 0.959 . S
C1734 H1799 0.959 . S
C1735 C1732 1.603 . S
C1735 H1800 0.960 . S
C1735 H1801 0.962 . S
C1735 H1802 0.961 . S
C1736 C1703 1.587 . S
C1736 C1737 1.360 . S
C1736 C1749 1.412 . S
C1737 C1736 1.360 . S
C1737 C1738 1.365 . S
C1737 H1803 0.929 . S
C1738 C1713 1.553 . S
C1738 C1737 1.365 . S
C1738 C1739 1.404 . S
C1739 C1738 1.404 . S
C1739 C1740 1.395 . S
C1739 C1750 1.451 . S
C1740 C1739 1.395 . S
C1740 C1741 1.322 . S
C1740 H1804 0.930 . S
C1741 C1740 1.322 . S
C1741 C1742 1.459 . S
C1741 H1805 0.929 . S
C1742 C1741 1.459 . S
C1742 C1743 1.445 . S
C1742 C1751 1.395 . S
C1743 C1721 1.432 . S
C1743 C1742 1.445 . S
C1743 C1744 1.370 . S
C1744 C1743 1.370 . S
C1744 C1745 1.438 . S
C1744 H1806 0.930 . S
C1745 C1731 1.497 . S
C1745 C1744 1.438 . S
C1745 C1746 1.360 . S
C1746 C1745 1.360 . S
C1746 C1747 1.401 . S
C1746 C1751 1.446 . S
C1747 C1746 1.401 . S
C1747 C1748 1.347 . S
C1747 H1807 0.929 . S
C1748 C1747 1.347 . S
C1748 C1749 1.455 . S
C1748 H1808 0.930 . S
C1749 C1736 1.412 . S
C1749 C1748 1.455 . S
C1749 C1750 1.331 . S
C1750 C1739 1.451 . S
C1750 C1749 1.331 . S
C1750 C1751 1.497 . S
C1751 C1742 1.395 . S
C1751 C1746 1.446 . S
C1751 C1750 1.497 . S
C1752 C1753 1.582 . S
C1752 H1809 0.962 . S
C1752 H1810 0.959 . S
C1752 H1811 0.958 . S
C1753 C1752 1.582 . S
C1753 O1756 1.458 . S
C1753 H1782 0.980 . S
O1754 C1699 1.426 . S
O1754 C1700 1.334 . S
O1755 C1727 1.412 . S
O1755 C1728 1.393 . S
O1756 C1718 1.435 . S
O1756 C1753 1.458 . S
O1757 C1709 1.468 . S
O1757 C1710 1.408 . S
H1758 C1699 0.980 . S
H1759 C1698 0.959 . S
H1760 C1698 0.959 . S
H1761 C1698 0.960 . S
H1762 C1701 0.929 . S
H1763 C1705 0.929 . S
H1764 C1706 0.959 . S
H1765 C1706 0.961 . S
H1766 C1706 0.961 . S
H1767 C1707 0.960 . S
H1768 C1707 0.960 . S
H1769 C1707 0.961 . S
H1770 C1709 0.980 . S
H1771 C1708 0.961 . S
H1772 C1708 0.960 . S
H1773 C1708 0.959 . S
H1774 C1711 0.930 . S
H1775 C1715 0.931 . S
H1776 C1716 0.959 . S
H1777 C1716 0.961 . S
H1778 C1716 0.959 . S
H1779 C1717 0.960 . S
H1780 C1717 0.960 . S
H1781 C1717 0.960 . S
H1782 C1753 0.980 . S
H1783 C1719 0.930 . S
H1784 C1723 0.930 . S
H1785 C1724 0.961 . S
H1786 C1724 0.960 . S
H1787 C1724 0.958 . S
H1788 C1725 0.961 . S
H1789 C1725 0.960 . S
H1790 C1725 0.960 . S
H1791 C1727 0.980 . S
H1792 C1726 0.961 . S
H1793 C1726 0.961 . S
H1794 C1726 0.959 . S
H1795 C1729 0.932 . S
H1796 C1733 0.929 . S
H1797 C1734 0.961 . S
H1798 C1734 0.959 . S
H1799 C1734 0.959 . S
H1800 C1735 0.960 . S
H1801 C1735 0.962 . S
H1802 C1735 0.961 . S
H1803 C1737 0.929 . S
H1804 C1740 0.930 . S
H1805 C1741 0.929 . S
H1806 C1744 0.930 . S
H1807 C1747 0.929 . S
H1808 C1748 0.930 . S
H1809 C1752 0.962 . S
H1810 C1752 0.959 . S
H1811 C1752 0.958 . S
C1812 C1813 1.560 . S
C1812 H1873 0.959 . S
C1812 H1874 0.959 . S
C1812 H1875 0.960 . S
C1813 C1812 1.560 . S
C1813 O1868 1.426 . S
C1813 H1872 0.980 . S
C1814 C1815 1.407 . S
C1814 C1819 1.418 . S
C1814 O1868 1.334 . S
C1815 C1814 1.407 . S
C1815 C1816 1.360 . S
C1815 H1876 0.929 . S
C1816 C1815 1.360 . S
C1816 C1817 1.401 . S
C1816 C1820 1.527 . S
C1817 C1816 1.401 . S
C1817 C1818 1.405 . S
C1817 C1850 1.587 . S
C1818 C1817 1.405 . S
C1818 C1819 1.332 . S
C1818 C1821 1.496 . S
C1819 C1814 1.418 . S
C1819 C1818 1.332 . S
C1819 H1877 0.929 . S
C1820 C1816 1.527 . S
C1820 H1878 0.959 . S
C1820 H1879 0.961 . S
C1820 H1880 0.961 . S
C1821 C1818 1.496 . S
C1821 H1881 0.960 . S
C1821 H1882 0.960 . S
C1821 H1883 0.961 . S
C1822 C1823 1.517 . S
C1822 H1885 0.961 . S
C1822 H1886 0.960 . S
C1822 H1887 0.959 . S
C1823 C1822 1.517 . S
C1823 O1871 1.468 . S
C1823 H1884 0.980 . S
C1824 C1825 1.349 . S
C1824 C1829 1.367 . S
C1824 O1871 1.408 . S
C1825 C1824 1.349 . S
C1825 C1826 1.407 . S
C1825 H1888 0.930 . S
C1826 C1825 1.407 . S
C1826 C1827 1.449 . S
C1826 C1830 1.535 . S
C1827 C1826 1.449 . S
C1827 C1828 1.384 . S
C1827 C1852 1.553 . S
C1828 C1827 1.384 . S
C1828 C1829 1.364 . S
C1828 C1831 1.450 . S
C1829 C1824 1.367 . S
C1829 C1828 1.364 . S
C1829 H1889 0.931 . S
C1830 C1826 1.535 . S
C1830 H1890 0.959 . S
C1830 H1891 0.961 . S
C1830 H1892 0.959 . S
C1831 C1828 1.450 . S
C1831 H1893 0.960 . S
C1831 H1894 0.960 . S
C1831 H1895 0.960 . S
C1832 C1833 1.309 . S
C1832 C1837 1.304 . S
C1832 O1870 1.435 . S
C1833 C1832 1.309 . S
C1833 C1834 1.476 . S
C1833 H1897 0.930 . S
C1834 C1833 1.476 . S
C1834 C1835 1.400 . S
C1834 C1838 1.567 . S
C1835 C1834 1.400 . S
C1835 C1836 1.373 . S
C1835 C1857 1.432 . S
C1836 C1835 1.373 . S
C1836 C1837 1.339 . S
C1836 C1839 1.530 . S
C1837 C1832 1.304 . S
C1837 C1836 1.339 . S
C1837 H1898 0.930 . S
C1838 C1834 1.567 . S
C1838 H1899 0.961 . S
C1838 H1900 0.960 . S
C1838 H1901 0.958 . S
C1839 C1836 1.530 . S
C1839 H1902 0.961 . S
C1839 H1903 0.960 . S
C1839 H1904 0.960 . S
C1840 C1841 1.530 . S
C1840 H1906 0.961 . S
C1840 H1907 0.961 . S
C1840 H1908 0.959 . S
C1841 C1840 1.530 . S
C1841 O1869 1.412 . S
C1841 H1905 0.980 . S
C1842 C1843 1.288 . S
C1842 C1847 1.377 . S
C1842 O1869 1.393 . S
C1843 C1842 1.288 . S
C1843 C1844 1.369 . S
C1843 H1909 0.932 . S
C1844 C1843 1.369 . S
C1844 C1845 1.398 . S
C1844 C1848 1.527 . S
C1845 C1844 1.398 . S
C1845 C1846 1.380 . S
C1845 C1859 1.497 . S
C1846 C1845 1.380 . S
C1846 C1847 1.383 . S
C1846 C1849 1.603 . S
C1847 C1842 1.377 . S
C1847 C1846 1.383 . S
C1847 H1910 0.929 . S
C1848 C1844 1.527 . S
C1848 H1911 0.961 . S
C1848 H1912 0.959 . S
C1848 H1913 0.959 . S
C1849 C1846 1.603 . S
C1849 H1914 0.960 . S
C1849 H1915 0.962 . S
C1849 H1916 0.961 . S
C1850 C1817 1.587 . S
C1850 C1851 1.360 . S
C1850 C1863 1.412 . S
C1851 C1850 1.360 . S
C1851 C1852 1.365 . S
C1851 H1917 0.929 . S
C1852 C1827 1.553 . S
C1852 C1851 1.365 . S
C1852 C1853 1.404 . S
C1853 C1852 1.404 . S
C1853 C1854 1.395 . S
C1853 C1864 1.451 . S
C1854 C1853 1.395 . S
C1854 C1855 1.322 . S
C1854 H1918 0.930 . S
C1855 C1854 1.322 . S
C1855 C1856 1.459 . S
C1855 H1919 0.929 . S
C1856 C1855 1.459 . S
C1856 C1857 1.445 . S
C1856 C1865 1.395 . S
C1857 C1835 1.432 . S
C1857 C1856 1.445 . S
C1857 C1858 1.370 . S
C1858 C1857 1.370 . S
C1858 C1859 1.438 . S
C1858 H1920 0.930 . S
C1859 C1845 1.497 . S
C1859 C1858 1.438 . S
C1859 C1860 1.360 . S
C1860 C1859 1.360 . S
C1860 C1861 1.401 . S
C1860 C1865 1.446 . S
C1861 C1860 1.401 . S
C1861 C1862 1.347 . S
C1861 H1921 0.929 . S
C1862 C1861 1.347 . S
C1862 C1863 1.455 . S
C1862 H1922 0.930 . S
C1863 C1850 1.412 . S
C1863 C1862 1.455 . S
C1863 C1864 1.331 . S
C1864 C1853 1.451 . S
C1864 C1863 1.331 . S
C1864 C1865 1.497 . S
C1865 C1856 1.395 . S
C1865 C1860 1.446 . S
C1865 C1864 1.497 . S
C1866 C1867 1.582 . S
C1866 H1923 0.962 . S
C1866 H1924 0.959 . S
C1866 H1925 0.958 . S
C1867 C1866 1.582 . S
C1867 O1870 1.458 . S
C1867 H1896 0.980 . S
O1868 C1813 1.426 . S
O1868 C1814 1.334 . S
O1869 C1841 1.412 . S
O1869 C1842 1.393 . S
O1870 C1832 1.435 . S
O1870 C1867 1.458 . S
O1871 C1823 1.468 . S
O1871 C1824 1.408 . S
H1872 C1813 0.980 . S
H1873 C1812 0.959 . S
H1874 C1812 0.959 . S
H1875 C1812 0.960 . S
H1876 C1815 0.929 . S
H1877 C1819 0.929 . S
H1878 C1820 0.959 . S
H1879 C1820 0.961 . S
H1880 C1820 0.961 . S
H1881 C1821 0.960 . S
H1882 C1821 0.960 . S
H1883 C1821 0.961 . S
H1884 C1823 0.980 . S
H1885 C1822 0.961 . S
H1886 C1822 0.960 . S
H1887 C1822 0.959 . S
H1888 C1825 0.930 . S
H1889 C1829 0.931 . S
H1890 C1830 0.959 . S
H1891 C1830 0.961 . S
H1892 C1830 0.959 . S
H1893 C1831 0.960 . S
H1894 C1831 0.960 . S
H1895 C1831 0.960 . S
H1896 C1867 0.980 . S
H1897 C1833 0.930 . S
H1898 C1837 0.930 . S
H1899 C1838 0.961 . S
H1900 C1838 0.960 . S
H1901 C1838 0.958 . S
H1902 C1839 0.961 . S
H1903 C1839 0.960 . S
H1904 C1839 0.960 . S
H1905 C1841 0.980 . S
H1906 C1840 0.961 . S
H1907 C1840 0.961 . S
H1908 C1840 0.959 . S
H1909 C1843 0.932 . S
H1910 C1847 0.929 . S
H1911 C1848 0.961 . S
H1912 C1848 0.959 . S
H1913 C1848 0.959 . S
H1914 C1849 0.960 . S
H1915 C1849 0.962 . S
H1916 C1849 0.961 . S
H1917 C1851 0.929 . S
H1918 C1854 0.930 . S
H1919 C1855 0.929 . S
H1920 C1858 0.930 . S
H1921 C1861 0.929 . S
H1922 C1862 0.930 . S
H1923 C1866 0.962 . S
H1924 C1866 0.959 . S
H1925 C1866 0.958 . S
C1926 C1927 1.560 . S
C1926 H1987 0.959 . S
C1926 H1988 0.959 . S
C1926 H1989 0.960 . S
C1927 C1926 1.560 . S
C1927 O1982 1.426 . S
C1927 H1986 0.980 . S
C1928 C1929 1.407 . S
C1928 C1933 1.418 . S
C1928 O1982 1.334 . S
C1929 C1928 1.407 . S
C1929 C1930 1.360 . S
C1929 H1990 0.929 . S
C1930 C1929 1.360 . S
C1930 C1931 1.401 . S
C1930 C1934 1.527 . S
C1931 C1930 1.401 . S
C1931 C1932 1.405 . S
C1931 C1964 1.587 . S
C1932 C1931 1.405 . S
C1932 C1933 1.332 . S
C1932 C1935 1.496 . S
C1933 C1928 1.418 . S
C1933 C1932 1.332 . S
C1933 H1991 0.929 . S
C1934 C1930 1.527 . S
C1934 H1992 0.959 . S
C1934 H1993 0.961 . S
C1934 H1994 0.961 . S
C1935 C1932 1.496 . S
C1935 H1995 0.960 . S
C1935 H1996 0.960 . S
C1935 H1997 0.961 . S
C1936 C1937 1.517 . S
C1936 H1999 0.961 . S
C1936 H2000 0.960 . S
C1936 H2001 0.959 . S
C1937 C1936 1.517 . S
C1937 O1985 1.468 . S
C1937 H1998 0.980 . S
C1938 C1939 1.349 . S
C1938 C1943 1.367 . S
C1938 O1985 1.408 . S
C1939 C1938 1.349 . S
C1939 C1940 1.407 . S
C1939 H2002 0.930 . S
C1940 C1939 1.407 . S
C1940 C1941 1.449 . S
C1940 C1944 1.535 . S
C1941 C1940 1.449 . S
C1941 C1942 1.384 . S
C1941 C1966 1.553 . S
C1942 C1941 1.384 . S
C1942 C1943 1.364 . S
C1942 C1945 1.450 . S
C1943 C1938 1.367 . S
C1943 C1942 1.364 . S
C1943 H2003 0.931 . S
C1944 C1940 1.535 . S
C1944 H2004 0.959 . S
C1944 H2005 0.961 . S
C1944 H2006 0.959 . S
C1945 C1942 1.450 . S
C1945 H2007 0.960 . S
C1945 H2008 0.960 . S
C1945 H2009 0.960 . S
C1946 C1947 1.309 . S
C1946 C1951 1.304 . S
C1946 O1984 1.435 . S
C1947 C1946 1.309 . S
C1947 C1948 1.476 . S
C1947 H2011 0.930 . S
C1948 C1947 1.476 . S
C1948 C1949 1.400 . S
C1948 C1952 1.567 . S
C1949 C1948 1.400 . S
C1949 C1950 1.373 . S
C1949 C1971 1.432 . S
C1950 C1949 1.373 . S
C1950 C1951 1.339 . S
C1950 C1953 1.530 . S
C1951 C1946 1.304 . S
C1951 C1950 1.339 . S
C1951 H2012 0.930 . S
C1952 C1948 1.567 . S
C1952 H2013 0.961 . S
C1952 H2014 0.960 . S
C1952 H2015 0.958 . S
C1953 C1950 1.530 . S
C1953 H2016 0.961 . S
C1953 H2017 0.960 . S
C1953 H2018 0.960 . S
C1954 C1955 1.530 . S
C1954 H2020 0.961 . S
C1954 H2021 0.961 . S
C1954 H2022 0.959 . S
C1955 C1954 1.530 . S
C1955 O1983 1.412 . S
C1955 H2019 0.980 . S
C1956 C1957 1.288 . S
C1956 C1961 1.377 . S
C1956 O1983 1.393 . S
C1957 C1956 1.288 . S
C1957 C1958 1.369 . S
C1957 H2023 0.932 . S
C1958 C1957 1.369 . S
C1958 C1959 1.398 . S
C1958 C1962 1.527 . S
C1959 C1958 1.398 . S
C1959 C1960 1.380 . S
C1959 C1973 1.497 . S
C1960 C1959 1.380 . S
C1960 C1961 1.383 . S
C1960 C1963 1.603 . S
C1961 C1956 1.377 . S
C1961 C1960 1.383 . S
C1961 H2024 0.929 . S
C1962 C1958 1.527 . S
C1962 H2025 0.961 . S
C1962 H2026 0.959 . S
C1962 H2027 0.959 . S
C1963 C1960 1.603 . S
C1963 H2028 0.960 . S
C1963 H2029 0.962 . S
C1963 H2030 0.961 . S
C1964 C1931 1.587 . S
C1964 C1965 1.360 . S
C1964 C1977 1.412 . S
C1965 C1964 1.360 . S
C1965 C1966 1.365 . S
C1965 H2031 0.929 . S
C1966 C1941 1.553 . S
C1966 C1965 1.365 . S
C1966 C1967 1.404 . S
C1967 C1966 1.404 . S
C1967 C1968 1.395 . S
C1967 C1978 1.451 . S
C1968 C1967 1.395 . S
C1968 C1969 1.322 . S
C1968 H2032 0.930 . S
C1969 C1968 1.322 . S
C1969 C1970 1.459 . S
C1969 H2033 0.929 . S
C1970 C1969 1.459 . S
C1970 C1971 1.445 . S
C1970 C1979 1.395 . S
C1971 C1949 1.432 . S
C1971 C1970 1.445 . S
C1971 C1972 1.370 . S
C1972 C1971 1.370 . S
C1972 C1973 1.438 . S
C1972 H2034 0.930 . S
C1973 C1959 1.497 . S
C1973 C1972 1.438 . S
C1973 C1974 1.360 . S
C1974 C1973 1.360 . S
C1974 C1975 1.401 . S
C1974 C1979 1.446 . S
C1975 C1974 1.401 . S
C1975 C1976 1.347 . S
C1975 H2035 0.929 . S
C1976 C1975 1.347 . S
C1976 C1977 1.455 . S
C1976 H2036 0.930 . S
C1977 C1964 1.412 . S
C1977 C1976 1.455 . S
C1977 C1978 1.331 . S
C1978 C1967 1.451 . S
C1978 C1977 1.331 . S
C1978 C1979 1.497 . S
C1979 C1970 1.395 . S
C1979 C1974 1.446 . S
C1979 C1978 1.497 . S
C1980 C1981 1.582 . S
C1980 H2037 0.962 . S
C1980 H2038 0.959 . S
C1980 H2039 0.958 . S
C1981 C1980 1.582 . S
C1981 O1984 1.458 . S
C1981 H2010 0.980 . S
O1982 C1927 1.426 . S
O1982 C1928 1.334 . S
O1983 C1955 1.412 . S
O1983 C1956 1.393 . S
O1984 C1946 1.435 . S
O1984 C1981 1.458 . S
O1985 C1937 1.468 . S
O1985 C1938 1.408 . S
H1986 C1927 0.980 . S
H1987 C1926 0.959 . S
H1988 C1926 0.959 . S
H1989 C1926 0.960 . S
H1990 C1929 0.929 . S
H1991 C1933 0.929 . S
H1992 C1934 0.959 . S
H1993 C1934 0.961 . S
H1994 C1934 0.961 . S
H1995 C1935 0.960 . S
H1996 C1935 0.960 . S
H1997 C1935 0.961 . S
H1998 C1937 0.980 . S
H1999 C1936 0.961 . S
H2000 C1936 0.960 . S
H2001 C1936 0.959 . S
H2002 C1939 0.930 . S
H2003 C1943 0.931 . S
H2004 C1944 0.959 . S
H2005 C1944 0.961 . S
H2006 C1944 0.959 . S
H2007 C1945 0.960 . S
H2008 C1945 0.960 . S
H2009 C1945 0.960 . S
H2010 C1981 0.980 . S
H2011 C1947 0.930 . S
H2012 C1951 0.930 . S
H2013 C1952 0.961 . S
H2014 C1952 0.960 . S
H2015 C1952 0.958 . S
H2016 C1953 0.961 . S
H2017 C1953 0.960 . S
H2018 C1953 0.960 . S
H2019 C1955 0.980 . S
H2020 C1954 0.961 . S
H2021 C1954 0.961 . S
H2022 C1954 0.959 . S
H2023 C1957 0.932 . S
H2024 C1961 0.929 . S
H2025 C1962 0.961 . S
H2026 C1962 0.959 . S
H2027 C1962 0.959 . S
H2028 C1963 0.960 . S
H2029 C1963 0.962 . S
H2030 C1963 0.961 . S
H2031 C1965 0.929 . S
H2032 C1968 0.930 . S
H2033 C1969 0.929 . S
H2034 C1972 0.930 . S
H2035 C1975 0.929 . S
H2036 C1976 0.930 . S
H2037 C1980 0.962 . S
H2038 C1980 0.959 . S
H2039 C1980 0.958 . S
C2040 C2041 1.560 . S
C2040 H2101 0.959 . S
C2040 H2102 0.959 . S
C2040 H2103 0.960 . S
C2041 C2040 1.560 . S
C2041 O2096 1.426 . S
C2041 H2100 0.980 . S
C2042 C2043 1.407 . S
C2042 C2047 1.418 . S
C2042 O2096 1.334 . S
C2043 C2042 1.407 . S
C2043 C2044 1.360 . S
C2043 H2104 0.929 . S
C2044 C2043 1.360 . S
C2044 C2045 1.401 . S
C2044 C2048 1.527 . S
C2045 C2044 1.401 . S
C2045 C2046 1.405 . S
C2045 C2078 1.587 . S
C2046 C2045 1.405 . S
C2046 C2047 1.332 . S
C2046 C2049 1.496 . S
C2047 C2042 1.418 . S
C2047 C2046 1.332 . S
C2047 H2105 0.929 . S
C2048 C2044 1.527 . S
C2048 H2106 0.959 . S
C2048 H2107 0.961 . S
C2048 H2108 0.961 . S
C2049 C2046 1.496 . S
C2049 H2109 0.960 . S
C2049 H2110 0.960 . S
C2049 H2111 0.961 . S
C2050 C2051 1.517 . S
C2050 H2113 0.961 . S
C2050 H2114 0.960 . S
C2050 H2115 0.959 . S
C2051 C2050 1.517 . S
C2051 O2099 1.468 . S
C2051 H2112 0.980 . S
C2052 C2053 1.349 . S
C2052 C2057 1.367 . S
C2052 O2099 1.408 . S
C2053 C2052 1.349 . S
C2053 C2054 1.407 . S
C2053 H2116 0.930 . S
C2054 C2053 1.407 . S
C2054 C2055 1.449 . S
C2054 C2058 1.535 . S
C2055 C2054 1.449 . S
C2055 C2056 1.384 . S
C2055 C2080 1.553 . S
C2056 C2055 1.384 . S
C2056 C2057 1.364 . S
C2056 C2059 1.450 . S
C2057 C2052 1.367 . S
C2057 C2056 1.364 . S
C2057 H2117 0.931 . S
C2058 C2054 1.535 . S
C2058 H2118 0.959 . S
C2058 H2119 0.961 . S
C2058 H2120 0.959 . S
C2059 C2056 1.450 . S
C2059 H2121 0.960 . S
C2059 H2122 0.960 . S
C2059 H2123 0.960 . S
C2060 C2061 1.309 . S
C2060 C2065 1.304 . S
C2060 O2098 1.435 . S
C2061 C2060 1.309 . S
C2061 C2062 1.476 . S
C2061 H2125 0.930 . S
C2062 C2061 1.476 . S
C2062 C2063 1.400 . S
C2062 C2066 1.567 . S
C2063 C2062 1.400 . S
C2063 C2064 1.373 . S
C2063 C2085 1.432 . S
C2064 C2063 1.373 . S
C2064 C2065 1.339 . S
C2064 C2067 1.530 . S
C2065 C2060 1.304 . S
C2065 C2064 1.339 . S
C2065 H2126 0.930 . S
C2066 C2062 1.567 . S
C2066 H2127 0.961 . S
C2066 H2128 0.960 . S
C2066 H2129 0.958 . S
C2067 C2064 1.530 . S
C2067 H2130 0.961 . S
C2067 H2131 0.960 . S
C2067 H2132 0.960 . S
C2068 C2069 1.530 . S
C2068 H2134 0.961 . S
C2068 H2135 0.961 . S
C2068 H2136 0.959 . S
C2069 C2068 1.530 . S
C2069 O2097 1.412 . S
C2069 H2133 0.980 . S
C2070 C2071 1.288 . S
C2070 C2075 1.377 . S
C2070 O2097 1.393 . S
C2071 C2070 1.288 . S
C2071 C2072 1.369 . S
C2071 H2137 0.932 . S
C2072 C2071 1.369 . S
C2072 C2073 1.398 . S
C2072 C2076 1.527 . S
C2073 C2072 1.398 . S
C2073 C2074 1.380 . S
C2073 C2087 1.497 . S
C2074 C2073 1.380 . S
C2074 C2075 1.383 . S
C2074 C2077 1.603 . S
C2075 C2070 1.377 . S
C2075 C2074 1.383 . S
C2075 H2138 0.929 . S
C2076 C2072 1.527 . S
C2076 H2139 0.961 . S
C2076 H2140 0.959 . S
C2076 H2141 0.959 . S
C2077 C2074 1.603 . S
C2077 H2142 0.960 . S
C2077 H2143 0.962 . S
C2077 H2144 0.961 . S
C2078 C2045 1.587 . S
C2078 C2079 1.360 . S
C2078 C2091 1.412 . S
C2079 C2078 1.360 . S
C2079 C2080 1.365 . S
C2079 H2145 0.929 . S
C2080 C2055 1.553 . S
C2080 C2079 1.365 . S
C2080 C2081 1.404 . S
C2081 C2080 1.404 . S
C2081 C2082 1.395 . S
C2081 C2092 1.451 . S
C2082 C2081 1.395 . S
C2082 C2083 1.322 . S
C2082 H2146 0.930 . S
C2083 C2082 1.322 . S
C2083 C2084 1.459 . S
C2083 H2147 0.929 . S
C2084 C2083 1.459 . S
C2084 C2085 1.445 . S
C2084 C2093 1.395 . S
C2085 C2063 1.432 . S
C2085 C2084 1.445 . S
C2085 C2086 1.370 . S
C2086 C2085 1.370 . S
C2086 C2087 1.438 . S
C2086 H2148 0.930 . S
C2087 C2073 1.497 . S
C2087 C2086 1.438 . S
C2087 C2088 1.360 . S
C2088 C2087 1.360 . S
C2088 C2089 1.401 . S
C2088 C2093 1.446 . S
C2089 C2088 1.401 . S
C2089 C2090 1.347 . S
C2089 H2149 0.929 . S
C2090 C2089 1.347 . S
C2090 C2091 1.455 . S
C2090 H2150 0.930 . S
C2091 C2078 1.412 . S
C2091 C2090 1.455 . S
C2091 C2092 1.331 . S
C2092 C2081 1.451 . S
C2092 C2091 1.331 . S
C2092 C2093 1.497 . S
C2093 C2084 1.395 . S
C2093 C2088 1.446 . S
C2093 C2092 1.497 . S
C2094 C2095 1.582 . S
C2094 H2151 0.962 . S
C2094 H2152 0.959 . S
C2094 H2153 0.958 . S
C2095 C2094 1.582 . S
C2095 O2098 1.458 . S
C2095 H2124 0.980 . S
O2096 C2041 1.426 . S
O2096 C2042 1.334 . S
O2097 C2069 1.412 . S
O2097 C2070 1.393 . S
O2098 C2060 1.435 . S
O2098 C2095 1.458 . S
O2099 C2051 1.468 . S
O2099 C2052 1.408 . S
H2100 C2041 0.980 . S
H2101 C2040 0.959 . S
H2102 C2040 0.959 . S
H2103 C2040 0.960 . S
H2104 C2043 0.929 . S
H2105 C2047 0.929 . S
H2106 C2048 0.959 . S
H2107 C2048 0.961 . S
H2108 C2048 0.961 . S
H2109 C2049 0.960 . S
H2110 C2049 0.960 . S
H2111 C2049 0.961 . S
H2112 C2051 0.980 . S
H2113 C2050 0.961 . S
H2114 C2050 0.960 . S
H2115 C2050 0.959 . S
H2116 C2053 0.930 . S
H2117 C2057 0.931 . S
H2118 C2058 0.959 . S
H2119 C2058 0.961 . S
H2120 C2058 0.959 . S
H2121 C2059 0.960 . S
H2122 C2059 0.960 . S
H2123 C2059 0.960 . S
H2124 C2095 0.980 . S
H2125 C2061 0.930 . S
H2126 C2065 0.930 . S
H2127 C2066 0.961 . S
H2128 C2066 0.960 . S
H2129 C2066 0.958 . S
H2130 C2067 0.961 . S
H2131 C2067 0.960 . S
H2132 C2067 0.960 . S
H2133 C2069 0.980 . S
H2134 C2068 0.961 . S
H2135 C2068 0.961 . S
H2136 C2068 0.959 . S
H2137 C2071 0.932 . S
H2138 C2075 0.929 . S
H2139 C2076 0.961 . S
H2140 C2076 0.959 . S
H2141 C2076 0.959 . S
H2142 C2077 0.960 . S
H2143 C2077 0.962 . S
H2144 C2077 0.961 . S
H2145 C2079 0.929 . S
H2146 C2082 0.930 . S
H2147 C2083 0.929 . S
H2148 C2086 0.930 . S
H2149 C2089 0.929 . S
H2150 C2090 0.930 . S
H2151 C2094 0.962 . S
H2152 C2094 0.959 . S
H2153 C2094 0.958 . S
C2154 C2155 1.560 . S
C2154 H2215 0.959 . S
C2154 H2216 0.959 . S
C2154 H2217 0.960 . S
C2155 C2154 1.560 . S
C2155 O2210 1.426 . S
C2155 H2214 0.980 . S
C2156 C2157 1.407 . S
C2156 C2161 1.418 . S
C2156 O2210 1.334 . S
C2157 C2156 1.407 . S
C2157 C2158 1.360 . S
C2157 H2218 0.929 . S
C2158 C2157 1.360 . S
C2158 C2159 1.401 . S
C2158 C2162 1.527 . S
C2159 C2158 1.401 . S
C2159 C2160 1.405 . S
C2159 C2192 1.587 . S
C2160 C2159 1.405 . S
C2160 C2161 1.332 . S
C2160 C2163 1.496 . S
C2161 C2156 1.418 . S
C2161 C2160 1.332 . S
C2161 H2219 0.929 . S
C2162 C2158 1.527 . S
C2162 H2220 0.959 . S
C2162 H2221 0.961 . S
C2162 H2222 0.961 . S
C2163 C2160 1.496 . S
C2163 H2223 0.960 . S
C2163 H2224 0.960 . S
C2163 H2225 0.961 . S
C2164 C2165 1.517 . S
C2164 H2227 0.961 . S
C2164 H2228 0.960 . S
C2164 H2229 0.959 . S
C2165 C2164 1.517 . S
C2165 O2213 1.468 . S
C2165 H2226 0.980 . S
C2166 C2167 1.349 . S
C2166 C2171 1.367 . S
C2166 O2213 1.408 . S
C2167 C2166 1.349 . S
C2167 C2168 1.407 . S
C2167 H2230 0.930 . S
C2168 C2167 1.407 . S
C2168 C2169 1.449 . S
C2168 C2172 1.535 . S
C2169 C2168 1.449 . S
C2169 C2170 1.384 . S
C2169 C2194 1.553 . S
C2170 C2169 1.384 . S
C2170 C2171 1.364 . S
C2170 C2173 1.450 . S
C2171 C2166 1.367 . S
C2171 C2170 1.364 . S
C2171 H2231 0.931 . S
C2172 C2168 1.535 . S
C2172 H2232 0.959 . S
C2172 H2233 0.961 . S
C2172 H2234 0.959 . S
C2173 C2170 1.450 . S
C2173 H2235 0.960 . S
C2173 H2236 0.960 . S
C2173 H2237 0.960 . S
C2174 C2175 1.309 . S
C2174 C2179 1.304 . S
C2174 O2212 1.435 . S
C2175 C2174 1.309 . S
C2175 C2176 1.476 . S
C2175 H2239 0.930 . S
C2176 C2175 1.476 . S
C2176 C2177 1.400 . S
C2176 C2180 1.567 . S
C2177 C2176 1.400 . S
C2177 C2178 1.373 . S
C2177 C2199 1.432 . S
C2178 C2177 1.373 . S
C2178 C2179 1.339 . S
C2178 C2181 1.530 . S
C2179 C2174 1.304 . S
C2179 C2178 1.339 . S
C2179 H2240 0.930 . S
C2180 C2176 1.567 . S
C2180 H2241 0.961 . S
C2180 H2242 0.960 . S
C2180 H2243 0.958 . S
C2181 C2178 1.530 . S
C2181 H2244 0.961 . S
C2181 H2245 0.960 . S
C2181 H2246 0.960 . S
C2182 C2183 1.530 . S
C2182 H2248 0.961 . S
C2182 H2249 0.961 . S
C2182 H2250 0.959 . S
C2183 C2182 1.530 . S
C2183 O2211 1.412 . S
C2183 H2247 0.980 . S
C2184 C2185 1.288 . S
C2184 C2189 1.377 . S
C2184 O2211 1.393 . S
C2185 C2184 1.288 . S
C2185 C2186 1.369 . S
C2185 H2251 0.932 . S
C2186 C2185 1.369 . S
C2186 C2187 1.398 . S
C2186 C2190 1.527 . S
C2187 C2186 1.398 . S
C2187 C2188 1.380 . S
C2187 C2201 1.497 . S
C2188 C2187 1.380 . S
C2188 C2189 1.383 . S
C2188 C2191 1.603 . S
C2189 C2184 1.377 . S
C2189 C2188 1.383 . S
C2189 H2252 0.929 . S
C2190 C2186 1.527 . S
C2190 H2253 0.961 . S
C2190 H2254 0.959 . S
C2190 H2255 0.959 . S
C2191 C2188 1.603 . S
C2191 H2256 0.960 . S
C2191 H2257 0.962 . S
C2191 H2258 0.961 . S
C2192 C2159 1.587 . S
C2192 C2193 1.360 . S
C2192 C2205 1.412 . S
C2193 C2192 1.360 . S
C2193 C2194 1.365 . S
C2193 H2259 0.929 . S
C2194 C2169 1.553 . S
C2194 C2193 1.365 . S
C2194 C2195 1.404 . S
C2195 C2194 1.404 . S
C2195 C2196 1.395 . S
C2195 C2206 1.451 . S
C2196 C2195 1.395 . S
C2196 C2197 1.322 . S
C2196 H2260 0.930 . S
C2197 C2196 1.322 . S
C2197 C2198 1.459 . S
C2197 H2261 0.929 . S
C2198 C2197 1.459 . S
C2198 C2199 1.445 . S
C2198 C2207 1.395 . S
C2199 C2177 1.432 . S
C2199 C2198 1.445 . S
C2199 C2200 1.370 . S
C2200 C2199 1.370 . S
C2200 C2201 1.438 . S
C2200 H2262 0.930 . S
C2201 C2187 1.497 . S
C2201 C2200 1.438 . S
C2201 C2202 1.360 . S
C2202 C2201 1.360 . S
C2202 C2203 1.401 . S
C2202 C2207 1.446 . S
C2203 C2202 1.401 . S
C2203 C2204 1.347 . S
C2203 H2263 0.929 . S
C2204 C2203 1.347 . S
C2204 C2205 1.455 . S
C2204 H2264 0.930 . S
C2205 C2192 1.412 . S
C2205 C2204 1.455 . S
C2205 C2206 1.331 . S
C2206 C2195 1.451 . S
C2206 C2205 1.331 . S
C2206 C2207 1.497 . S
C2207 C2198 1.395 . S
C2207 C2202 1.446 . S
C2207 C2206 1.497 . S
C2208 C2209 1.582 . S
C2208 H2265 0.962 . S
C2208 H2266 0.959 . S
C2208 H2267 0.958 . S
C2209 C2208 1.582 . S
C2209 O2212 1.458 . S
C2209 H2238 0.980 . S
O2210 C2155 1.426 . S
O2210 C2156 1.334 . S
O2211 C2183 1.412 . S
O2211 C2184 1.393 . S
O2212 C2174 1.435 . S
O2212 C2209 1.458 . S
O2213 C2165 1.468 . S
O2213 C2166 1.408 . S
H2214 C2155 0.980 . S
H2215 C2154 0.959 . S
H2216 C2154 0.959 . S
H2217 C2154 0.960 . S
H2218 C2157 0.929 . S
H2219 C2161 0.929 . S
H2220 C2162 0.959 . S
H2221 C2162 0.961 . S
H2222 C2162 0.961 . S
H2223 C2163 0.960 . S
H2224 C2163 0.960 . S
H2225 C2163 0.961 . S
H2226 C2165 0.980 . S
H2227 C2164 0.961 . S
H2228 C2164 0.960 . S
H2229 C2164 0.959 . S
H2230 C2167 0.930 . S
H2231 C2171 0.931 . S
H2232 C2172 0.959 . S
H2233 C2172 0.961 . S
H2234 C2172 0.959 . S
H2235 C2173 0.960 . S
H2236 C2173 0.960 . S
H2237 C2173 0.960 . S
H2238 C2209 0.980 . S
H2239 C2175 0.930 . S
H2240 C2179 0.930 . S
H2241 C2180 0.961 . S
H2242 C2180 0.960 . S
H2243 C2180 0.958 . S
H2244 C2181 0.961 . S
H2245 C2181 0.960 . S
H2246 C2181 0.960 . S
H2247 C2183 0.980 . S
H2248 C2182 0.961 . S
H2249 C2182 0.961 . S
H2250 C2182 0.959 . S
H2251 C2185 0.932 . S
H2252 C2189 0.929 . S
H2253 C2190 0.961 . S
H2254 C2190 0.959 . S
H2255 C2190 0.959 . S
H2256 C2191 0.960 . S
H2257 C2191 0.962 . S
H2258 C2191 0.961 . S
H2259 C2193 0.929 . S
H2260 C2196 0.930 . S
H2261 C2197 0.929 . S
H2262 C2200 0.930 . S
H2263 C2203 0.929 . S
H2264 C2204 0.930 . S
H2265 C2208 0.962 . S
H2266 C2208 0.959 . S
H2267 C2208 0.958 . S
C2268 C2269 1.560 . S
C2268 H2329 0.959 . S
C2268 H2330 0.959 . S
C2268 H2331 0.960 . S
C2269 C2268 1.560 . S
C2269 O2324 1.426 . S
C2269 H2328 0.980 . S
C2270 C2271 1.407 . S
C2270 C2275 1.418 . S
C2270 O2324 1.334 . S
C2271 C2270 1.407 . S
C2271 C2272 1.360 . S
C2271 H2332 0.929 . S
C2272 C2271 1.360 . S
C2272 C2273 1.401 . S
C2272 C2276 1.527 . S
C2273 C2272 1.401 . S
C2273 C2274 1.405 . S
C2273 C2306 1.587 . S
C2274 C2273 1.405 . S
C2274 C2275 1.332 . S
C2274 C2277 1.496 . S
C2275 C2270 1.418 . S
C2275 C2274 1.332 . S
C2275 H2333 0.929 . S
C2276 C2272 1.527 . S
C2276 H2334 0.959 . S
C2276 H2335 0.961 . S
C2276 H2336 0.961 . S
C2277 C2274 1.496 . S
C2277 H2337 0.960 . S
C2277 H2338 0.960 . S
C2277 H2339 0.961 . S
C2278 C2279 1.517 . S
C2278 H2341 0.961 . S
C2278 H2342 0.960 . S
C2278 H2343 0.959 . S
C2279 C2278 1.517 . S
C2279 O2327 1.468 . S
C2279 H2340 0.980 . S
C2280 C2281 1.349 . S
C2280 C2285 1.367 . S
C2280 O2327 1.408 . S
C2281 C2280 1.349 . S
C2281 C2282 1.407 . S
C2281 H2344 0.930 . S
C2282 C2281 1.407 . S
C2282 C2283 1.449 . S
C2282 C2286 1.535 . S
C2283 C2282 1.449 . S
C2283 C2284 1.384 . S
C2283 C2308 1.553 . S
C2284 C2283 1.384 . S
C2284 C2285 1.364 . S
C2284 C2287 1.450 . S
C2285 C2280 1.367 . S
C2285 C2284 1.364 . S
C2285 H2345 0.931 . S
C2286 C2282 1.535 . S
C2286 H2346 0.959 . S
C2286 H2347 0.961 . S
C2286 H2348 0.959 . S
C2287 C2284 1.450 . S
C2287 H2349 0.960 . S
C2287 H2350 0.960 . S
C2287 H2351 0.960 . S
C2288 C2289 1.309 . S
C2288 C2293 1.304 . S
C2288 O2326 1.435 . S
C2289 C2288 1.309 . S
C2289 C2290 1.476 . S
C2289 H2353 0.930 . S
C2290 C2289 1.476 . S
C2290 C2291 1.400 . S
C2290 C2294 1.567 . S
C2291 C2290 1.400 . S
C2291 C2292 1.373 . S
C2291 C2313 1.432 . S
C2292 C2291 1.373 . S
C2292 C2293 1.339 . S
C2292 C2295 1.530 . S
C2293 C2288 1.304 . S
C2293 C2292 1.339 . S
C2293 H2354 0.930 . S
C2294 C2290 1.567 . S
C2294 H2355 0.961 . S
C2294 H2356 0.960 . S
C2294 H2357 0.958 . S
C2295 C2292 1.530 . S
C2295 H2358 0.961 . S
C2295 H2359 0.960 . S
C2295 H2360 0.960 . S
C2296 C2297 1.530 . S
C2296 H2362 0.961 . S
C2296 H2363 0.961 . S
C2296 H2364 0.959 . S
C2297 C2296 1.530 . S
C2297 O2325 1.412 . S
C2297 H2361 0.980 . S
C2298 C2299 1.288 . S
C2298 C2303 1.377 . S
C2298 O2325 1.393 . S
C2299 C2298 1.288 . S
C2299 C2300 1.369 . S
C2299 H2365 0.932 . S
C2300 C2299 1.369 . S
C2300 C2301 1.398 . S
C2300 C2304 1.527 . S
C2301 C2300 1.398 . S
C2301 C2302 1.380 . S
C2301 C2315 1.497 . S
C2302 C2301 1.380 . S
C2302 C2303 1.383 . S
C2302 C2305 1.603 . S
C2303 C2298 1.377 . S
C2303 C2302 1.383 . S
C2303 H2366 0.929 . S
C2304 C2300 1.527 . S
C2304 H2367 0.961 . S
C2304 H2368 0.959 . S
C2304 H2369 0.959 . S
C2305 C2302 1.603 . S
C2305 H2370 0.960 . S
C2305 H2371 0.962 . S
C2305 H2372 0.961 . S
C2306 C2273 1.587 . S
C2306 C2307 1.360 . S
C2306 C2319 1.412 . S
C2307 C2306 1.360 . S
C2307 C2308 1.365 . S
C2307 H2373 0.929 . S
C2308 C2283 1.553 . S
C2308 C2307 1.365 . S
C2308 C2309 1.404 . S
C2309 C2308 1.404 . S
C2309 C2310 1.395 . S
C2309 C2320 1.451 . S
C2310 C2309 1.395 . S
C2310 C2311 1.322 . S
C2310 H2374 0.930 . S
C2311 C2310 1.322 . S
C2311 C2312 1.459 . S
C2311 H2375 0.929 . S
C2312 C2311 1.459 . S
C2312 C2313 1.445 . S
C2312 C2321 1.395 . S
C2313 C2291 1.432 . S
C2313 C2312 1.445 . S
C2313 C2314 1.370 . S
C2314 C2313 1.370 . S
C2314 C2315 1.438 . S
C2314 H2376 0.930 . S
C2315 C2301 1.497 . S
C2315 C2314 1.438 . S
C2315 C2316 1.360 . S
C2316 C2315 1.360 . S
C2316 C2317 1.401 . S
C2316 C2321 1.446 . S
C2317 C2316 1.401 . S
C2317 C2318 1.347 . S
C2317 H2377 0.929 . S
C2318 C2317 1.347 . S
C2318 C2319 1.455 . S
C2318 H2378 0.930 . S
C2319 C2306 1.412 . S
C2319 C2318 1.455 . S
C2319 C2320 1.331 . S
C2320 C2309 1.451 . S
C2320 C2319 1.331 . S
C2320 C2321 1.497 . S
C2321 C2312 1.395 . S
C2321 C2316 1.446 . S
C2321 C2320 1.497 . S
C2322 C2323 1.582 . S
C2322 H2379 0.962 . S
C2322 H2380 0.959 . S
C2322 H2381 0.958 . S
C2323 C2322 1.582 . S
C2323 O2326 1.458 . S
C2323 H2352 0.980 . S
O2324 C2269 1.426 . S
O2324 C2270 1.334 . S
O2325 C2297 1.412 . S
O2325 C2298 1.393 . S
O2326 C2288 1.435 . S
O2326 C2323 1.458 . S
O2327 C2279 1.468 . S
O2327 C2280 1.408 . S
H2328 C2269 0.980 . S
H2329 C2268 0.959 . S
H2330 C2268 0.959 . S
H2331 C2268 0.960 . S
H2332 C2271 0.929 . S
H2333 C2275 0.929 . S
H2334 C2276 0.959 . S
H2335 C2276 0.961 . S
H2336 C2276 0.961 . S
H2337 C2277 0.960 . S
H2338 C2277 0.960 . S
H2339 C2277 0.961 . S
H2340 C2279 0.980 . S
H2341 C2278 0.961 . S
H2342 C2278 0.960 . S
H2343 C2278 0.959 . S
H2344 C2281 0.930 . S
H2345 C2285 0.931 . S
H2346 C2286 0.959 . S
H2347 C2286 0.961 . S
H2348 C2286 0.959 . S
H2349 C2287 0.960 . S
H2350 C2287 0.960 . S
H2351 C2287 0.960 . S
H2352 C2323 0.980 . S
H2353 C2289 0.930 . S
H2354 C2293 0.930 . S
H2355 C2294 0.961 . S
H2356 C2294 0.960 . S
H2357 C2294 0.958 . S
H2358 C2295 0.961 . S
H2359 C2295 0.960 . S
H2360 C2295 0.960 . S
H2361 C2297 0.980 . S
H2362 C2296 0.961 . S
H2363 C2296 0.961 . S
H2364 C2296 0.959 . S
H2365 C2299 0.932 . S
H2366 C2303 0.929 . S
H2367 C2304 0.961 . S
H2368 C2304 0.959 . S
H2369 C2304 0.959 . S
H2370 C2305 0.960 . S
H2371 C2305 0.962 . S
H2372 C2305 0.961 . S
H2373 C2307 0.929 . S
H2374 C2310 0.930 . S
H2375 C2311 0.929 . S
H2376 C2314 0.930 . S
H2377 C2317 0.929 . S
H2378 C2318 0.930 . S
H2379 C2322 0.962 . S
H2380 C2322 0.959 . S
H2381 C2322 0.958 . S
C2382 C2383 1.560 . S
C2382 H2443 0.959 . S
C2382 H2444 0.959 . S
C2382 H2445 0.960 . S
C2383 C2382 1.560 . S
C2383 O2438 1.426 . S
C2383 H2442 0.980 . S
C2384 C2385 1.407 . S
C2384 C2389 1.418 . S
C2384 O2438 1.334 . S
C2385 C2384 1.407 . S
C2385 C2386 1.360 . S
C2385 H2446 0.929 . S
C2386 C2385 1.360 . S
C2386 C2387 1.401 . S
C2386 C2390 1.527 . S
C2387 C2386 1.401 . S
C2387 C2388 1.405 . S
C2387 C2420 1.587 . S
C2388 C2387 1.405 . S
C2388 C2389 1.332 . S
C2388 C2391 1.496 . S
C2389 C2384 1.418 . S
C2389 C2388 1.332 . S
C2389 H2447 0.929 . S
C2390 C2386 1.527 . S
C2390 H2448 0.959 . S
C2390 H2449 0.961 . S
C2390 H2450 0.961 . S
C2391 C2388 1.496 . S
C2391 H2451 0.960 . S
C2391 H2452 0.960 . S
C2391 H2453 0.961 . S
C2392 C2393 1.517 . S
C2392 H2455 0.961 . S
C2392 H2456 0.960 . S
C2392 H2457 0.959 . S
C2393 C2392 1.517 . S
C2393 O2441 1.468 . S
C2393 H2454 0.980 . S
C2394 C2395 1.349 . S
C2394 C2399 1.367 . S
C2394 O2441 1.408 . S
C2395 C2394 1.349 . S
C2395 C2396 1.407 . S
C2395 H2458 0.930 . S
C2396 C2395 1.407 . S
C2396 C2397 1.449 . S
C2396 C2400 1.535 . S
C2397 C2396 1.449 . S
C2397 C2398 1.384 . S
C2397 C2422 1.553 . S
C2398 C2397 1.384 . S
C2398 C2399 1.364 . S
C2398 C2401 1.450 . S
C2399 C2394 1.367 . S
C2399 C2398 1.364 . S
C2399 H2459 0.931 . S
C2400 C2396 1.535 . S
C2400 H2460 0.959 . S
C2400 H2461 0.961 . S
C2400 H2462 0.959 . S
C2401 C2398 1.450 . S
C2401 H2463 0.960 . S
C2401 H2464 0.960 . S
C2401 H2465 0.960 . S
C2402 C2403 1.309 . S
C2402 C2407 1.304 . S
C2402 O2440 1.435 . S
C2403 C2402 1.309 . S
C2403 C2404 1.476 . S
C2403 H2467 0.930 . S
C2404 C2403 1.476 . S
C2404 C2405 1.400 . S
C2404 C2408 1.567 . S
C2405 C2404 1.400 . S
C2405 C2406 1.373 . S
C2405 C2427 1.432 . S
C2406 C2405 1.373 . S
C2406 C2407 1.339 . S
C2406 C2409 1.530 . S
C2407 C2402 1.304 . S
C2407 C2406 1.339 . S
C2407 H2468 0.930 . S
C2408 C2404 1.567 . S
C2408 H2469 0.961 . S
C2408 H2470 0.960 . S
C2408 H2471 0.958 . S
C2409 C2406 1.530 . S
C2409 H2472 0.961 . S
C2409 H2473 0.960 . S
C2409 H2474 0.960 . S
C2410 C2411 1.530 . S
C2410 H2476 0.961 . S
C2410 H2477 0.961 . S
C2410 H2478 0.959 . S
C2411 C2410 1.530 . S
C2411 O2439 1.412 . S
C2411 H2475 0.980 . S
C2412 C2413 1.288 . S
C2412 C2417 1.377 . S
C2412 O2439 1.393 . S
C2413 C2412 1.288 . S
C2413 C2414 1.369 . S
C2413 H2479 0.932 . S
C2414 C2413 1.369 . S
C2414 C2415 1.398 . S
C2414 C2418 1.527 . S
C2415 C2414 1.398 . S
C2415 C2416 1.380 . S
C2415 C2429 1.497 . S
C2416 C2415 1.380 . S
C2416 C2417 1.383 . S
C2416 C2419 1.603 . S
C2417 C2412 1.377 . S
C2417 C2416 1.383 . S
C2417 H2480 0.929 . S
C2418 C2414 1.527 . S
C2418 H2481 0.961 . S
C2418 H2482 0.959 . S
C2418 H2483 0.959 . S
C2419 C2416 1.603 . S
C2419 H2484 0.960 . S
C2419 H2485 0.962 . S
C2419 H2486 0.961 . S
C2420 C2387 1.587 . S
C2420 C2421 1.360 . S
C2420 C2433 1.412 . S
C2421 C2420 1.360 . S
C2421 C2422 1.365 . S
C2421 H2487 0.929 . S
C2422 C2397 1.553 . S
C2422 C2421 1.365 . S
C2422 C2423 1.404 . S
C2423 C2422 1.404 . S
C2423 C2424 1.395 . S
C2423 C2434 1.451 . S
C2424 C2423 1.395 . S
C2424 C2425 1.322 . S
C2424 H2488 0.930 . S
C2425 C2424 1.322 . S
C2425 C2426 1.459 . S
C2425 H2489 0.929 . S
C2426 C2425 1.459 . S
C2426 C2427 1.445 . S
C2426 C2435 1.395 . S
C2427 C2405 1.432 . S
C2427 C2426 1.445 . S
C2427 C2428 1.370 . S
C2428 C2427 1.370 . S
C2428 C2429 1.438 . S
C2428 H2490 0.930 . S
C2429 C2415 1.497 . S
C2429 C2428 1.438 . S
C2429 C2430 1.360 . S
C2430 C2429 1.360 . S
C2430 C2431 1.401 . S
C2430 C2435 1.446 . S
C2431 C2430 1.401 . S
C2431 C2432 1.347 . S
C2431 H2491 0.929 . S
C2432 C2431 1.347 . S
C2432 C2433 1.455 . S
C2432 H2492 0.930 . S
C2433 C2420 1.412 . S
C2433 C2432 1.455 . S
C2433 C2434 1.331 . S
C2434 C2423 1.451 . S
C2434 C2433 1.331 . S
C2434 C2435 1.497 . S
C2435 C2426 1.395 . S
C2435 C2430 1.446 . S
C2435 C2434 1.497 . S
C2436 C2437 1.582 . S
C2436 H2493 0.962 . S
C2436 H2494 0.959 . S
C2436 H2495 0.958 . S
C2437 C2436 1.582 . S
C2437 O2440 1.458 . S
C2437 H2466 0.980 . S
O2438 C2383 1.426 . S
O2438 C2384 1.334 . S
O2439 C2411 1.412 . S
O2439 C2412 1.393 . S
O2440 C2402 1.435 . S
O2440 C2437 1.458 . S
O2441 C2393 1.468 . S
O2441 C2394 1.408 . S
H2442 C2383 0.980 . S
H2443 C2382 0.959 . S
H2444 C2382 0.959 . S
H2445 C2382 0.960 . S
H2446 C2385 0.929 . S
H2447 C2389 0.929 . S
H2448 C2390 0.959 . S
H2449 C2390 0.961 . S
H2450 C2390 0.961 . S
H2451 C2391 0.960 . S
H2452 C2391 0.960 . S
H2453 C2391 0.961 . S
H2454 C2393 0.980 . S
H2455 C2392 0.961 . S
H2456 C2392 0.960 . S
H2457 C2392 0.959 . S
H2458 C2395 0.930 . S
H2459 C2399 0.931 . S
H2460 C2400 0.959 . S
H2461 C2400 0.961 . S
H2462 C2400 0.959 . S
H2463 C2401 0.960 . S
H2464 C2401 0.960 . S
H2465 C2401 0.960 . S
H2466 C2437 0.980 . S
H2467 C2403 0.930 . S
H2468 C2407 0.930 . S
H2469 C2408 0.961 . S
H2470 C2408 0.960 . S
H2471 C2408 0.958 . S
H2472 C2409 0.961 . S
H2473 C2409 0.960 . S
H2474 C2409 0.960 . S
H2475 C2411 0.980 . S
H2476 C2410 0.961 . S
H2477 C2410 0.961 . S
H2478 C2410 0.959 . S
H2479 C2413 0.932 . S
H2480 C2417 0.929 . S
H2481 C2418 0.961 . S
H2482 C2418 0.959 . S
H2483 C2418 0.959 . S
H2484 C2419 0.960 . S
H2485 C2419 0.962 . S
H2486 C2419 0.961 . S
H2487 C2421 0.929 . S
H2488 C2424 0.930 . S
H2489 C2425 0.929 . S
H2490 C2428 0.930 . S
H2491 C2431 0.929 . S
H2492 C2432 0.930 . S
H2493 C2436 0.962 . S
H2494 C2436 0.959 . S
H2495 C2436 0.958 . S
C2496 C2497 1.560 . S
C2496 H2557 0.959 . S
C2496 H2558 0.959 . S
C2496 H2559 0.960 . S
C2497 C2496 1.560 . S
C2497 O2552 1.426 . S
C2497 H2556 0.980 . S
C2498 C2499 1.407 . S
C2498 C2503 1.418 . S
C2498 O2552 1.334 . S
C2499 C2498 1.407 . S
C2499 C2500 1.360 . S
C2499 H2560 0.929 . S
C2500 C2499 1.360 . S
C2500 C2501 1.401 . S
C2500 C2504 1.527 . S
C2501 C2500 1.401 . S
C2501 C2502 1.405 . S
C2501 C2534 1.587 . S
C2502 C2501 1.405 . S
C2502 C2503 1.332 . S
C2502 C2505 1.496 . S
C2503 C2498 1.418 . S
C2503 C2502 1.332 . S
C2503 H2561 0.929 . S
C2504 C2500 1.527 . S
C2504 H2562 0.959 . S
C2504 H2563 0.961 . S
C2504 H2564 0.961 . S
C2505 C2502 1.496 . S
C2505 H2565 0.960 . S
C2505 H2566 0.960 . S
C2505 H2567 0.961 . S
C2506 C2507 1.517 . S
C2506 H2569 0.961 . S
C2506 H2570 0.960 . S
C2506 H2571 0.959 . S
C2507 C2506 1.517 . S
C2507 O2555 1.468 . S
C2507 H2568 0.980 . S
C2508 C2509 1.349 . S
C2508 C2513 1.367 . S
C2508 O2555 1.408 . S
C2509 C2508 1.349 . S
C2509 C2510 1.407 . S
C2509 H2572 0.930 . S
C2510 C2509 1.407 . S
C2510 C2511 1.449 . S
C2510 C2514 1.535 . S
C2511 C2510 1.449 . S
C2511 C2512 1.384 . S
C2511 C2536 1.553 . S
C2512 C2511 1.384 . S
C2512 C2513 1.364 . S
C2512 C2515 1.450 . S
C2513 C2508 1.367 . S
C2513 C2512 1.364 . S
C2513 H2573 0.931 . S
C2514 C2510 1.535 . S
C2514 H2574 0.959 . S
C2514 H2575 0.961 . S
C2514 H2576 0.959 . S
C2515 C2512 1.450 . S
C2515 H2577 0.960 . S
C2515 H2578 0.960 . S
C2515 H2579 0.960 . S
C2516 C2517 1.309 . S
C2516 C2521 1.304 . S
C2516 O2554 1.435 . S
C2517 C2516 1.309 . S
C2517 C2518 1.476 . S
C2517 H2581 0.930 . S
C2518 C2517 1.476 . S
C2518 C2519 1.400 . S
C2518 C2522 1.567 . S
C2519 C2518 1.400 . S
C2519 C2520 1.373 . S
C2519 C2541 1.432 . S
C2520 C2519 1.373 . S
C2520 C2521 1.339 . S
C2520 C2523 1.530 . S
C2521 C2516 1.304 . S
C2521 C2520 1.339 . S
C2521 H2582 0.930 . S
C2522 C2518 1.567 . S
C2522 H2583 0.961 . S
C2522 H2584 0.960 . S
C2522 H2585 0.958 . S
C2523 C2520 1.530 . S
C2523 H2586 0.961 . S
C2523 H2587 0.960 . S
C2523 H2588 0.960 . S
C2524 C2525 1.530 . S
C2524 H2590 0.961 . S
C2524 H2591 0.961 . S
C2524 H2592 0.959 . S
C2525 C2524 1.530 . S
C2525 O2553 1.412 . S
C2525 H2589 0.980 . S
C2526 C2527 1.288 . S
C2526 C2531 1.377 . S
C2526 O2553 1.393 . S
C2527 C2526 1.288 . S
C2527 C2528 1.369 . S
C2527 H2593 0.932 . S
C2528 C2527 1.369 . S
C2528 C2529 1.398 . S
C2528 C2532 1.527 . S
C2529 C2528 1.398 . S
C2529 C2530 1.380 . S
C2529 C2543 1.497 . S
C2530 C2529 1.380 . S
C2530 C2531 1.383 . S
C2530 C2533 1.603 . S
C2531 C2526 1.377 . S
C2531 C2530 1.383 . S
C2531 H2594 0.929 . S
C2532 C2528 1.527 . S
C2532 H2595 0.961 . S
C2532 H2596 0.959 . S
C2532 H2597 0.959 . S
C2533 C2530 1.603 . S
C2533 H2598 0.960 . S
C2533 H2599 0.962 . S
C2533 H2600 0.961 . S
C2534 C2501 1.587 . S
C2534 C2535 1.360 . S
C2534 C2547 1.412 . S
C2535 C2534 1.360 . S
C2535 C2536 1.365 . S
C2535 H2601 0.929 . S
C2536 C2511 1.553 . S
C2536 C2535 1.365 . S
C2536 C2537 1.404 . S
C2537 C2536 1.404 . S
C2537 C2538 1.395 . S
C2537 C2548 1.451 . S
C2538 C2537 1.395 . S
C2538 C2539 1.322 . S
C2538 H2602 0.930 . S
C2539 C2538 1.322 . S
C2539 C2540 1.459 . S
C2539 H2603 0.929 . S
C2540 C2539 1.459 . S
C2540 C2541 1.445 . S
C2540 C2549 1.395 . S
C2541 C2519 1.432 . S
C2541 C2540 1.445 . S
C2541 C2542 1.370 . S
C2542 C2541 1.370 . S
C2542 C2543 1.438 . S
C2542 H2604 0.930 . S
C2543 C2529 1.497 . S
C2543 C2542 1.438 . S
C2543 C2544 1.360 . S
C2544 C2543 1.360 . S
C2544 C2545 1.401 . S
C2544 C2549 1.446 . S
C2545 C2544 1.401 . S
C2545 C2546 1.347 . S
C2545 H2605 0.929 . S
C2546 C2545 1.347 . S
C2546 C2547 1.455 . S
C2546 H2606 0.930 . S
C2547 C2534 1.412 . S
C2547 C2546 1.455 . S
C2547 C2548 1.331 . S
C2548 C2537 1.451 . S
C2548 C2547 1.331 . S
C2548 C2549 1.497 . S
C2549 C2540 1.395 . S
C2549 C2544 1.446 . S
C2549 C2548 1.497 . S
C2550 C2551 1.582 . S
C2550 H2607 0.962 . S
C2550 H2608 0.959 . S
C2550 H2609 0.958 . S
C2551 C2550 1.582 . S
C2551 O2554 1.458 . S
C2551 H2580 0.980 . S
O2552 C2497 1.426 . S
O2552 C2498 1.334 . S
O2553 C2525 1.412 . S
O2553 C2526 1.393 . S
O2554 C2516 1.435 . S
O2554 C2551 1.458 . S
O2555 C2507 1.468 . S
O2555 C2508 1.408 . S
H2556 C2497 0.980 . S
H2557 C2496 0.959 . S
H2558 C2496 0.959 . S
H2559 C2496 0.960 . S
H2560 C2499 0.929 . S
H2561 C2503 0.929 . S
H2562 C2504 0.959 . S
H2563 C2504 0.961 . S
H2564 C2504 0.961 . S
H2565 C2505 0.960 . S
H2566 C2505 0.960 . S
H2567 C2505 0.961 . S
H2568 C2507 0.980 . S
H2569 C2506 0.961 . S
H2570 C2506 0.960 . S
H2571 C2506 0.959 . S
H2572 C2509 0.930 . S
H2573 C2513 0.931 . S
H2574 C2514 0.959 . S
H2575 C2514 0.961 . S
H2576 C2514 0.959 . S
H2577 C2515 0.960 . S
H2578 C2515 0.960 . S
H2579 C2515 0.960 . S
H2580 C2551 0.980 . S
H2581 C2517 0.930 . S
H2582 C2521 0.930 . S
H2583 C2522 0.961 . S
H2584 C2522 0.960 . S
H2585 C2522 0.958 . S
H2586 C2523 0.961 . S
H2587 C2523 0.960 . S
H2588 C2523 0.960 . S
H2589 C2525 0.980 . S
H2590 C2524 0.961 . S
H2591 C2524 0.961 . S
H2592 C2524 0.959 . S
H2593 C2527 0.932 . S
H2594 C2531 0.929 . S
H2595 C2532 0.961 . S
H2596 C2532 0.959 . S
H2597 C2532 0.959 . S
H2598 C2533 0.960 . S
H2599 C2533 0.962 . S
H2600 C2533 0.961 . S
H2601 C2535 0.929 . S
H2602 C2538 0.930 . S
H2603 C2539 0.929 . S
H2604 C2542 0.930 . S
H2605 C2545 0.929 . S
H2606 C2546 0.930 . S
H2607 C2550 0.962 . S
H2608 C2550 0.959 . S
H2609 C2550 0.958 . S
C2610 C2611 1.560 . S
C2610 H2671 0.959 . S
C2610 H2672 0.959 . S
C2610 H2673 0.960 . S
C2611 C2610 1.560 . S
C2611 O2666 1.426 . S
C2611 H2670 0.980 . S
C2612 C2613 1.407 1_455 S
C2612 C2617 1.418 . S
C2612 O2666 1.334 . S
C2613 C2612 1.407 1_655 S
C2613 C2614 1.360 . S
C2613 H2674 0.929 . S
C2614 C2613 1.360 . S
C2614 C2615 1.401 1_655 S
C2614 C2618 1.527 . S
C2615 C2614 1.401 1_455 S
C2615 C2616 1.405 . S
C2615 C2648 1.587 1_455 S
C2616 C2615 1.405 . S
C2616 C2617 1.332 . S
C2616 C2619 1.496 . S
C2617 C2612 1.418 . S
C2617 C2616 1.332 . S
C2617 H2675 0.929 . S
C2618 C2614 1.527 . S
C2618 H2676 0.959 . S
C2618 H2677 0.961 . S
C2618 H2678 0.961 . S
C2619 C2616 1.496 . S
C2619 H2679 0.960 . S
C2619 H2680 0.960 . S
C2619 H2681 0.961 . S
C2620 C2621 1.517 . S
C2620 H2683 0.964 . S
C2620 H2684 0.960 . S
C2620 H2685 0.959 . S
C2621 C2620 1.517 . S
C2621 O2669 1.468 . S
C2621 H2682 0.980 1_655 S
C2622 C2623 1.349 . S
C2622 C2627 1.367 . S
C2622 O2669 1.408 . S
C2623 C2622 1.349 . S
C2623 C2624 1.355 1_655 S
C2623 H2686 0.930 1_655 S
C2624 C2623 1.355 1_455 S
C2624 C2625 1.404 1_455 S
C2624 C2628 1.627 . S
C2625 C2624 1.404 1_655 S
C2625 C2626 1.384 . S
C2625 C2650 1.553 . S
C2626 C2625 1.384 . S
C2626 C2627 1.364 . S
C2626 C2629 1.450 . S
C2627 C2622 1.367 . S
C2627 C2626 1.364 . S
C2627 H2687 0.931 . S
C2628 C2624 1.627 . S
C2628 H2688 0.959 . S
C2628 H2689 0.961 . S
C2628 H2690 0.959 . S
C2629 C2626 1.450 . S
C2629 H2691 0.960 . S
C2629 H2692 0.960 . S
C2629 H2693 0.960 . S
C2630 C2631 1.309 . S
C2630 C2635 1.304 . S
C2630 O2668 1.435 . S
C2631 C2630 1.309 . S
C2631 C2632 1.478 1_655 S
C2631 H2695 0.930 1_655 S
C2632 C2631 1.478 1_455 S
C2632 C2633 1.401 1_455 S
C2632 C2636 1.564 . S
C2633 C2632 1.401 1_655 S
C2633 C2634 1.373 . S
C2633 C2655 1.432 . S
C2634 C2633 1.373 . S
C2634 C2635 1.339 . S
C2634 C2637 1.530 . S
C2635 C2630 1.304 . S
C2635 C2634 1.339 . S
C2635 H2696 0.930 . S
C2636 C2632 1.564 . S
C2636 H2697 0.961 . S
C2636 H2698 0.960 . S
C2636 H2699 0.958 . S
C2637 C2634 1.530 . S
C2637 H2700 0.961 . S
C2637 H2701 0.960 . S
C2637 H2702 0.960 . S
C2638 C2639 1.505 1_455 S
C2638 H2704 0.961 . S
C2638 H2705 0.961 . S
C2638 H2706 0.959 . S
C2639 C2638 1.505 1_655 S
C2639 O2667 1.407 1_655 S
C2639 H2703 0.987 . S
C2640 C2641 1.288 . S
C2640 C2645 1.377 1_455 S
C2640 O2667 1.393 . S
C2641 C2640 1.288 . S
C2641 C2642 1.369 . S
C2641 H2707 0.932 . S
C2642 C2641 1.369 . S
C2642 C2643 1.398 1_455 S
C2642 C2646 1.527 . S
C2643 C2642 1.398 1_655 S
C2643 C2644 1.380 . S
C2643 C2657 1.497 . S
C2644 C2643 1.380 . S
C2644 C2645 1.383 . S
C2644 C2647 1.603 . S
C2645 C2640 1.377 1_655 S
C2645 C2644 1.383 . S
C2645 H2708 0.929 . S
C2646 C2642 1.527 . S
C2646 H2709 0.961 . S
C2646 H2710 0.959 . S
C2646 H2711 0.959 . S
C2647 C2644 1.603 . S
C2647 H2712 0.960 . S
C2647 H2713 0.962 . S
C2647 H2714 0.961 . S
C2648 C2615 1.587 1_655 S
C2648 C2649 1.360 . S
C2648 C2661 1.412 . S
C2649 C2648 1.360 . S
C2649 C2650 1.365 . S
C2649 H2715 0.929 . S
C2650 C2625 1.553 . S
C2650 C2649 1.365 . S
C2650 C2651 1.404 . S
C2651 C2650 1.404 . S
C2651 C2652 1.395 . S
C2651 C2662 1.451 . S
C2652 C2651 1.395 . S
C2652 C2653 1.322 . S
C2652 H2716 0.930 . S
C2653 C2652 1.322 . S
C2653 C2654 1.459 . S
C2653 H2717 0.929 . S
C2654 C2653 1.459 . S
C2654 C2655 1.445 . S
C2654 C2663 1.395 . S
C2655 C2633 1.432 . S
C2655 C2654 1.445 . S
C2655 C2656 1.370 . S
C2656 C2655 1.370 . S
C2656 C2657 1.438 . S
C2656 H2718 0.930 . S
C2657 C2643 1.497 . S
C2657 C2656 1.438 . S
C2657 C2658 1.360 . S
C2658 C2657 1.360 . S
C2658 C2659 1.401 . S
C2658 C2663 1.446 . S
C2659 C2658 1.401 . S
C2659 C2660 1.347 . S
C2659 H2719 0.929 . S
C2660 C2659 1.347 . S
C2660 C2661 1.455 . S
C2660 H2720 0.930 . S
C2661 C2648 1.412 . S
C2661 C2660 1.455 . S
C2661 C2662 1.331 . S
C2662 C2651 1.451 . S
C2662 C2661 1.331 . S
C2662 C2663 1.497 . S
C2663 C2654 1.395 . S
C2663 C2658 1.446 . S
C2663 C2662 1.497 . S
C2664 C2665 1.582 . S
C2664 H2721 0.962 . S
C2664 H2722 0.959 . S
C2664 H2723 0.958 . S
C2665 C2664 1.582 . S
C2665 O2668 1.458 . S
C2665 H2694 0.980 . S
O2666 C2611 1.426 . S
O2666 C2612 1.334 . S
O2667 C2639 1.407 1_455 S
O2667 C2640 1.393 . S
O2668 C2630 1.435 . S
O2668 C2665 1.458 . S
O2669 C2621 1.468 . S
O2669 C2622 1.408 . S
H2670 C2611 0.980 . S
H2671 C2610 0.959 . S
H2672 C2610 0.959 . S
H2673 C2610 0.960 . S
H2674 C2613 0.929 . S
H2675 C2617 0.929 . S
H2676 C2618 0.959 . S
H2677 C2618 0.961 . S
H2678 C2618 0.961 . S
H2679 C2619 0.960 . S
H2680 C2619 0.960 . S
H2681 C2619 0.961 . S
H2682 C2621 0.980 1_455 S
H2683 C2620 0.964 . S
H2684 C2620 0.960 . S
H2685 C2620 0.959 . S
H2686 C2623 0.930 1_455 S
H2687 C2627 0.931 . S
H2688 C2628 0.959 . S
H2689 C2628 0.961 . S
H2690 C2628 0.959 . S
H2691 C2629 0.960 . S
H2692 C2629 0.960 . S
H2693 C2629 0.960 . S
H2694 C2665 0.980 . S
H2695 C2631 0.930 1_455 S
H2696 C2635 0.930 . S
H2697 C2636 0.961 . S
H2698 C2636 0.960 . S
H2699 C2636 0.958 . S
H2700 C2637 0.961 . S
H2701 C2637 0.960 . S
H2702 C2637 0.960 . S
H2703 C2639 0.987 . S
H2704 C2638 0.961 . S
H2705 C2638 0.961 . S
H2706 C2638 0.959 . S
H2707 C2641 0.932 . S
H2708 C2645 0.929 . S
H2709 C2646 0.961 . S
H2710 C2646 0.959 . S
H2711 C2646 0.959 . S
H2712 C2647 0.960 . S
H2713 C2647 0.962 . S
H2714 C2647 0.961 . S
H2715 C2649 0.929 . S
H2716 C2652 0.930 . S
H2717 C2653 0.929 . S
H2718 C2656 0.930 . S
H2719 C2659 0.929 . S
H2720 C2660 0.930 . S
H2721 C2664 0.962 . S
H2722 C2664 0.959 . S
H2723 C2664 0.958 . S
C2724 C2725 1.560 . S
C2724 H2785 0.959 . S
C2724 H2786 0.959 . S
C2724 H2787 0.960 . S
C2725 C2724 1.560 . S
C2725 O2780 1.426 . S
C2725 H2784 0.980 . S
C2726 C2727 1.407 . S
C2726 C2731 1.418 . S
C2726 O2780 1.334 . S
C2727 C2726 1.407 . S
C2727 C2728 1.360 . S
C2727 H2788 0.929 . S
C2728 C2727 1.360 . S
C2728 C2729 1.401 . S
C2728 C2732 1.527 . S
C2729 C2728 1.401 . S
C2729 C2730 1.405 . S
C2729 C2762 1.587 . S
C2730 C2729 1.405 . S
C2730 C2731 1.332 . S
C2730 C2733 1.496 . S
C2731 C2726 1.418 . S
C2731 C2730 1.332 . S
C2731 H2789 0.929 . S
C2732 C2728 1.527 . S
C2732 H2790 0.959 . S
C2732 H2791 0.961 . S
C2732 H2792 0.961 . S
C2733 C2730 1.496 . S
C2733 H2793 0.960 . S
C2733 H2794 0.960 . S
C2733 H2795 0.961 . S
C2734 C2735 1.517 . S
C2734 H2797 0.961 . S
C2734 H2798 0.960 . S
C2734 H2799 0.959 . S
C2735 C2734 1.517 . S
C2735 O2783 1.468 . S
C2735 H2796 0.980 . S
C2736 C2737 1.349 . S
C2736 C2741 1.367 . S
C2736 O2783 1.408 . S
C2737 C2736 1.349 . S
C2737 C2738 1.407 . S
C2737 H2800 0.930 . S
C2738 C2737 1.407 . S
C2738 C2739 1.449 . S
C2738 C2742 1.535 . S
C2739 C2738 1.449 . S
C2739 C2740 1.384 . S
C2739 C2764 1.553 . S
C2740 C2739 1.384 . S
C2740 C2741 1.364 . S
C2740 C2743 1.450 . S
C2741 C2736 1.367 . S
C2741 C2740 1.364 . S
C2741 H2801 0.931 . S
C2742 C2738 1.535 . S
C2742 H2802 0.959 . S
C2742 H2803 0.961 . S
C2742 H2804 0.959 . S
C2743 C2740 1.450 . S
C2743 H2805 0.960 . S
C2743 H2806 0.960 . S
C2743 H2807 0.960 . S
C2744 C2745 1.309 . S
C2744 C2749 1.304 . S
C2744 O2782 1.435 . S
C2745 C2744 1.309 . S
C2745 C2746 1.476 . S
C2745 H2809 0.930 . S
C2746 C2745 1.476 . S
C2746 C2747 1.400 . S
C2746 C2750 1.567 . S
C2747 C2746 1.400 . S
C2747 C2748 1.373 . S
C2747 C2769 1.432 . S
C2748 C2747 1.373 . S
C2748 C2749 1.339 . S
C2748 C2751 1.530 . S
C2749 C2744 1.304 . S
C2749 C2748 1.339 . S
C2749 H2810 0.930 . S
C2750 C2746 1.567 . S
C2750 H2811 0.961 . S
C2750 H2812 0.960 . S
C2750 H2813 0.958 . S
C2751 C2748 1.530 . S
C2751 H2814 0.961 . S
C2751 H2815 0.960 . S
C2751 H2816 0.960 . S
C2752 C2753 1.530 . S
C2752 H2818 0.961 . S
C2752 H2819 0.961 . S
C2752 H2820 0.959 . S
C2753 C2752 1.530 . S
C2753 O2781 1.412 . S
C2753 H2817 0.980 . S
C2754 C2755 1.288 . S
C2754 C2759 1.377 . S
C2754 O2781 1.393 . S
C2755 C2754 1.288 . S
C2755 C2756 1.369 . S
C2755 H2821 0.932 . S
C2756 C2755 1.369 . S
C2756 C2757 1.398 . S
C2756 C2760 1.527 . S
C2757 C2756 1.398 . S
C2757 C2758 1.380 . S
C2757 C2771 1.497 . S
C2758 C2757 1.380 . S
C2758 C2759 1.383 . S
C2758 C2761 1.603 . S
C2759 C2754 1.377 . S
C2759 C2758 1.383 . S
C2759 H2822 0.929 . S
C2760 C2756 1.527 . S
C2760 H2823 0.961 . S
C2760 H2824 0.959 . S
C2760 H2825 0.959 . S
C2761 C2758 1.603 . S
C2761 H2826 0.960 . S
C2761 H2827 0.962 . S
C2761 H2828 0.961 . S
C2762 C2729 1.587 . S
C2762 C2763 1.360 . S
C2762 C2775 1.412 . S
C2763 C2762 1.360 . S
C2763 C2764 1.365 . S
C2763 H2829 0.929 . S
C2764 C2739 1.553 . S
C2764 C2763 1.365 . S
C2764 C2765 1.404 . S
C2765 C2764 1.404 . S
C2765 C2766 1.395 . S
C2765 C2776 1.451 . S
C2766 C2765 1.395 . S
C2766 C2767 1.322 . S
C2766 H2830 0.930 . S
C2767 C2766 1.322 . S
C2767 C2768 1.459 . S
C2767 H2831 0.929 . S
C2768 C2767 1.459 . S
C2768 C2769 1.445 . S
C2768 C2777 1.395 . S
C2769 C2747 1.432 . S
C2769 C2768 1.445 . S
C2769 C2770 1.370 . S
C2770 C2769 1.370 . S
C2770 C2771 1.438 . S
C2770 H2832 0.930 . S
C2771 C2757 1.497 . S
C2771 C2770 1.438 . S
C2771 C2772 1.360 . S
C2772 C2771 1.360 . S
C2772 C2773 1.401 . S
C2772 C2777 1.446 . S
C2773 C2772 1.401 . S
C2773 C2774 1.347 . S
C2773 H2833 0.929 . S
C2774 C2773 1.347 . S
C2774 C2775 1.455 . S
C2774 H2834 0.930 . S
C2775 C2762 1.412 . S
C2775 C2774 1.455 . S
C2775 C2776 1.331 . S
C2776 C2765 1.451 . S
C2776 C2775 1.331 . S
C2776 C2777 1.497 . S
C2777 C2768 1.395 . S
C2777 C2772 1.446 . S
C2777 C2776 1.497 . S
C2778 C2779 1.582 . S
C2778 H2835 0.962 . S
C2778 H2836 0.959 . S
C2778 H2837 0.958 . S
C2779 C2778 1.582 . S
C2779 O2782 1.458 . S
C2779 H2808 0.980 . S
O2780 C2725 1.426 . S
O2780 C2726 1.334 . S
O2781 C2753 1.412 . S
O2781 C2754 1.393 . S
O2782 C2744 1.435 . S
O2782 C2779 1.458 . S
O2783 C2735 1.468 . S
O2783 C2736 1.408 . S
H2784 C2725 0.980 . S
H2785 C2724 0.959 . S
H2786 C2724 0.959 . S
H2787 C2724 0.960 . S
H2788 C2727 0.929 . S
H2789 C2731 0.929 . S
H2790 C2732 0.959 . S
H2791 C2732 0.961 . S
H2792 C2732 0.961 . S
H2793 C2733 0.960 . S
H2794 C2733 0.960 . S
H2795 C2733 0.961 . S
H2796 C2735 0.980 . S
H2797 C2734 0.961 . S
H2798 C2734 0.960 . S
H2799 C2734 0.959 . S
H2800 C2737 0.930 . S
H2801 C2741 0.931 . S
H2802 C2742 0.959 . S
H2803 C2742 0.961 . S
H2804 C2742 0.959 . S
H2805 C2743 0.960 . S
H2806 C2743 0.960 . S
H2807 C2743 0.960 . S
H2808 C2779 0.980 . S
H2809 C2745 0.930 . S
H2810 C2749 0.930 . S
H2811 C2750 0.961 . S
H2812 C2750 0.960 . S
H2813 C2750 0.958 . S
H2814 C2751 0.961 . S
H2815 C2751 0.960 . S
H2816 C2751 0.960 . S
H2817 C2753 0.980 . S
H2818 C2752 0.961 . S
H2819 C2752 0.961 . S
H2820 C2752 0.959 . S
H2821 C2755 0.932 . S
H2822 C2759 0.929 . S
H2823 C2760 0.961 . S
H2824 C2760 0.959 . S
H2825 C2760 0.959 . S
H2826 C2761 0.960 . S
H2827 C2761 0.962 . S
H2828 C2761 0.961 . S
H2829 C2763 0.929 . S
H2830 C2766 0.930 . S
H2831 C2767 0.929 . S
H2832 C2770 0.930 . S
H2833 C2773 0.929 . S
H2834 C2774 0.930 . S
H2835 C2778 0.962 . S
H2836 C2778 0.959 . S
H2837 C2778 0.958 . S
C2838 C2839 1.560 . S
C2838 H2899 0.959 . S
C2838 H2900 0.959 . S
C2838 H2901 0.960 . S
C2839 C2838 1.560 . S
C2839 O2894 1.426 . S
C2839 H2898 0.980 . S
C2840 C2841 1.407 1_565 S
C2840 C2845 1.418 . S
C2840 O2894 1.334 . S
C2841 C2840 1.407 1_545 S
C2841 C2842 1.360 . S
C2841 H2902 0.929 . S
C2842 C2841 1.360 . S
C2842 C2843 1.401 1_545 S
C2842 C2846 1.527 . S
C2843 C2842 1.401 1_565 S
C2843 C2844 1.405 . S
C2843 C2876 1.587 1_565 S
C2844 C2843 1.405 . S
C2844 C2845 1.332 . S
C2844 C2847 1.496 . S
C2845 C2840 1.418 . S
C2845 C2844 1.332 . S
C2845 H2903 0.929 . S
C2846 C2842 1.527 . S
C2846 H2904 0.959 . S
C2846 H2905 0.961 . S
C2846 H2906 0.961 . S
C2847 C2844 1.496 . S
C2847 H2907 0.960 . S
C2847 H2908 0.960 . S
C2847 H2909 0.961 . S
C2848 C2849 1.517 . S
C2848 H2911 0.961 1_545 S
C2848 H2912 0.960 . S
C2848 H2913 0.959 . S
C2849 C2848 1.517 . S
C2849 O2897 1.468 . S
C2849 H2910 0.980 1_545 S
C2850 C2851 1.378 . S
C2850 C2855 1.367 . S
C2850 O2897 1.408 . S
C2851 C2850 1.378 . S
C2851 C2852 1.424 1_545 S
C2851 H2914 0.884 1_545 S
C2852 C2851 1.424 1_565 S
C2852 C2853 1.449 1_565 S
C2852 C2856 1.535 . S
C2853 C2852 1.449 1_545 S
C2853 C2854 1.384 . S
C2853 C2878 1.553 . S
C2854 C2853 1.384 . S
C2854 C2855 1.364 . S
C2854 C2857 1.450 . S
C2855 C2850 1.367 . S
C2855 C2854 1.364 . S
C2855 H2915 0.931 . S
C2856 C2852 1.535 . S
C2856 H2916 0.959 . S
C2856 H2917 0.961 . S
C2856 H2918 0.959 . S
C2857 C2854 1.450 . S
C2857 H2919 0.960 . S
C2857 H2920 0.960 . S
C2857 H2921 0.960 . S
C2858 C2859 1.309 . S
C2858 C2863 1.304 . S
C2858 O2896 1.435 . S
C2859 C2858 1.309 . S
C2859 C2860 1.489 1_545 S
C2859 H2923 0.930 1_545 S
C2860 C2859 1.489 1_565 S
C2860 C2861 1.356 1_565 S
C2860 C2864 1.597 . S
C2861 C2860 1.356 1_545 S
C2861 C2862 1.373 . S
C2861 C2883 1.432 . S
C2862 C2861 1.373 . S
C2862 C2863 1.339 . S
C2862 C2865 1.530 . S
C2863 C2858 1.304 . S
C2863 C2862 1.339 . S
C2863 H2924 0.930 . S
C2864 C2860 1.597 . S
C2864 H2925 0.961 . S
C2864 H2926 0.960 . S
C2864 H2927 0.958 . S
C2865 C2862 1.530 . S
C2865 H2928 0.961 . S
C2865 H2929 0.960 . S
C2865 H2930 0.960 . S
C2866 C2867 1.530 1_565 S
C2866 H2932 0.961 . S
C2866 H2933 0.961 . S
C2866 H2934 0.959 . S
C2867 C2866 1.530 1_545 S
C2867 O2895 1.412 1_545 S
C2867 H2931 0.980 . S
C2868 C2869 1.288 . S
C2868 C2873 1.377 1_565 S
C2868 O2895 1.393 . S
C2869 C2868 1.288 . S
C2869 C2870 1.369 . S
C2869 H2935 0.932 . S
C2870 C2869 1.369 . S
C2870 C2871 1.398 1_565 S
C2870 C2874 1.527 . S
C2871 C2870 1.398 1_545 S
C2871 C2872 1.380 . S
C2871 C2885 1.497 . S
C2872 C2871 1.380 . S
C2872 C2873 1.383 . S
C2872 C2875 1.603 . S
C2873 C2868 1.377 1_545 S
C2873 C2872 1.383 . S
C2873 H2936 0.929 . S
C2874 C2870 1.527 . S
C2874 H2937 0.961 . S
C2874 H2938 0.959 . S
C2874 H2939 0.959 . S
C2875 C2872 1.603 . S
C2875 H2940 0.960 . S
C2875 H2941 0.962 . S
C2875 H2942 0.961 . S
C2876 C2843 1.587 1_545 S
C2876 C2877 1.360 . S
C2876 C2889 1.412 . S
C2877 C2876 1.360 . S
C2877 C2878 1.365 . S
C2877 H2943 0.929 . S
C2878 C2853 1.553 . S
C2878 C2877 1.365 . S
C2878 C2879 1.404 . S
C2879 C2878 1.404 . S
C2879 C2880 1.395 . S
C2879 C2890 1.451 . S
C2880 C2879 1.395 . S
C2880 C2881 1.322 . S
C2880 H2944 0.930 . S
C2881 C2880 1.322 . S
C2881 C2882 1.459 . S
C2881 H2945 0.929 . S
C2882 C2881 1.459 . S
C2882 C2883 1.445 . S
C2882 C2891 1.395 . S
C2883 C2861 1.432 . S
C2883 C2882 1.445 . S
C2883 C2884 1.370 . S
C2884 C2883 1.370 . S
C2884 C2885 1.438 . S
C2884 H2946 0.930 . S
C2885 C2871 1.497 . S
C2885 C2884 1.438 . S
C2885 C2886 1.360 . S
C2886 C2885 1.360 . S
C2886 C2887 1.401 . S
C2886 C2891 1.446 . S
C2887 C2886 1.401 . S
C2887 C2888 1.347 . S
C2887 H2947 0.929 . S
C2888 C2887 1.347 . S
C2888 C2889 1.455 . S
C2888 H2948 0.930 . S
C2889 C2876 1.412 . S
C2889 C2888 1.455 . S
C2889 C2890 1.331 . S
C2890 C2879 1.451 . S
C2890 C2889 1.331 . S
C2890 C2891 1.497 . S
C2891 C2882 1.395 . S
C2891 C2886 1.446 . S
C2891 C2890 1.497 . S
C2892 C2893 1.582 . S
C2892 H2949 0.962 . S
C2892 H2950 0.959 . S
C2892 H2951 0.958 . S
C2893 C2892 1.582 . S
C2893 O2896 1.458 . S
C2893 H2922 0.980 . S
O2894 C2839 1.426 . S
O2894 C2840 1.334 . S
O2895 C2867 1.412 1_565 S
O2895 C2868 1.393 . S
O2896 C2858 1.435 . S
O2896 C2893 1.458 . S
O2897 C2849 1.468 . S
O2897 C2850 1.408 . S
H2898 C2839 0.980 . S
H2899 C2838 0.959 . S
H2900 C2838 0.959 . S
H2901 C2838 0.960 . S
H2902 C2841 0.929 . S
H2903 C2845 0.929 . S
H2904 C2846 0.959 . S
H2905 C2846 0.961 . S
H2906 C2846 0.961 . S
H2907 C2847 0.960 . S
H2908 C2847 0.960 . S
H2909 C2847 0.961 . S
H2910 C2849 0.980 1_565 S
H2911 C2848 0.961 1_565 S
H2912 C2848 0.960 . S
H2913 C2848 0.959 . S
H2914 C2851 0.884 1_565 S
H2915 C2855 0.931 . S
H2916 C2856 0.959 . S
H2917 C2856 0.961 . S
H2918 C2856 0.959 . S
H2919 C2857 0.960 . S
H2920 C2857 0.960 . S
H2921 C2857 0.960 . S
H2922 C2893 0.980 . S
H2923 C2859 0.930 1_565 S
H2924 C2863 0.930 . S
H2925 C2864 0.961 . S
H2926 C2864 0.960 . S
H2927 C2864 0.958 . S
H2928 C2865 0.961 . S
H2929 C2865 0.960 . S
H2930 C2865 0.960 . S
H2931 C2867 0.980 . S
H2932 C2866 0.961 . S
H2933 C2866 0.961 . S
H2934 C2866 0.959 . S
H2935 C2869 0.932 . S
H2936 C2873 0.929 . S
H2937 C2874 0.961 . S
H2938 C2874 0.959 . S
H2939 C2874 0.959 . S
H2940 C2875 0.960 . S
H2941 C2875 0.962 . S
H2942 C2875 0.961 . S
H2943 C2877 0.929 . S
H2944 C2880 0.930 . S
H2945 C2881 0.929 . S
H2946 C2884 0.930 . S
H2947 C2887 0.929 . S
H2948 C2888 0.930 . S
H2949 C2892 0.962 . S
H2950 C2892 0.959 . S
H2951 C2892 0.958 . S
C2952 C2953 1.560 . S
C2952 H3013 0.959 . S
C2952 H3014 0.959 . S
C2952 H3015 0.960 . S
C2953 C2952 1.560 . S
C2953 O3008 1.426 . S
C2953 H3012 0.980 1_565 S
C2954 C2955 1.407 1_565 S
C2954 C2959 1.418 . S
C2954 O3008 1.334 . S
C2955 C2954 1.407 1_545 S
C2955 C2956 1.360 . S
C2955 H3016 0.929 . S
C2956 C2955 1.360 . S
C2956 C2957 1.401 . S
C2956 C2960 1.527 . S
C2957 C2956 1.401 . S
C2957 C2958 1.405 1_545 S
C2957 C2990 1.587 . S
C2958 C2957 1.405 1_565 S
C2958 C2959 1.332 . S
C2958 C2961 1.496 . S
C2959 C2954 1.418 . S
C2959 C2958 1.332 . S
C2959 H3017 0.929 . S
C2960 C2956 1.527 . S
C2960 H3018 0.959 . S
C2960 H3019 0.961 . S
C2960 H3020 0.961 . S
C2961 C2958 1.496 . S
C2961 H3021 0.960 . S
C2961 H3022 0.960 . S
C2961 H3023 0.961 . S
C2962 C2963 1.517 . S
C2962 H3025 0.961 . S
C2962 H3026 0.960 . S
C2962 H3027 0.959 . S
C2963 C2962 1.517 . S
C2963 O3011 1.468 . S
C2963 H3024 0.980 . S
C2964 C2965 1.349 . S
C2964 C2969 1.367 . S
C2964 O3011 1.408 . S
C2965 C2964 1.349 . S
C2965 C2966 1.407 . S
C2965 H3028 0.935 . S
C2966 C2965 1.407 . S
C2966 C2967 1.449 . S
C2966 C2970 1.535 1_545 S
C2967 C2966 1.449 . S
C2967 C2968 1.384 . S
C2967 C2992 1.553 . S
C2968 C2967 1.384 . S
C2968 C2969 1.364 . S
C2968 C2971 1.450 . S
C2969 C2964 1.367 . S
C2969 C2968 1.364 . S
C2969 H3029 0.931 . S
C2970 C2966 1.535 1_565 S
C2970 H3030 0.959 . S
C2970 H3031 0.961 . S
C2970 H3032 0.959 . S
C2971 C2968 1.450 . S
C2971 H3033 0.960 . S
C2971 H3034 0.960 . S
C2971 H3035 0.960 . S
C2972 C2973 1.309 1_545 S
C2972 C2977 1.304 . S
C2972 O3010 1.435 . S
C2973 C2972 1.309 1_565 S
C2973 C2974 1.476 . S
C2973 H3037 0.930 . S
C2974 C2973 1.476 . S
C2974 C2975 1.400 1_565 S
C2974 C2978 1.567 . S
C2975 C2974 1.400 1_545 S
C2975 C2976 1.373 . S
C2975 C2997 1.432 . S
C2976 C2975 1.373 . S
C2976 C2977 1.339 . S
C2976 C2979 1.530 . S
C2977 C2972 1.304 . S
C2977 C2976 1.339 . S
C2977 H3038 0.930 . S
C2978 C2974 1.567 . S
C2978 H3039 0.961 . S
C2978 H3040 0.960 . S
C2978 H3041 0.958 . S
C2979 C2976 1.530 . S
C2979 H3042 0.961 . S
C2979 H3043 0.960 . S
C2979 H3044 0.960 . S
C2980 C2981 1.530 . S
C2980 H3046 0.961 . S
C2980 H3047 0.961 . S
C2980 H3048 0.959 . S
C2981 C2980 1.530 . S
C2981 O3009 1.412 . S
C2981 H3045 1.011 . S
C2982 C2983 1.288 . S
C2982 C2987 1.377 1_565 S
C2982 O3009 1.393 . S
C2983 C2982 1.288 . S
C2983 C2984 1.369 . S
C2983 H3049 0.932 . S
C2984 C2983 1.369 . S
C2984 C2985 1.398 . S
C2984 C2988 1.527 . S
C2985 C2984 1.398 . S
C2985 C2986 1.380 1_565 S
C2985 C2999 1.497 1_565 S
C2986 C2985 1.380 1_545 S
C2986 C2987 1.383 . S
C2986 C2989 1.603 . S
C2987 C2982 1.377 1_545 S
C2987 C2986 1.383 . S
C2987 H3050 0.929 . S
C2988 C2984 1.527 . S
C2988 H3051 0.961 . S
C2988 H3052 0.959 . S
C2988 H3053 0.959 . S
C2989 C2986 1.603 . S
C2989 H3054 0.960 . S
C2989 H3055 0.962 . S
C2989 H3056 0.961 . S
C2990 C2957 1.587 . S
C2990 C2991 1.360 . S
C2990 C3003 1.412 . S
C2991 C2990 1.360 . S
C2991 C2992 1.365 . S
C2991 H3057 0.929 . S
C2992 C2967 1.553 . S
C2992 C2991 1.365 . S
C2992 C2993 1.404 . S
C2993 C2992 1.404 . S
C2993 C2994 1.395 . S
C2993 C3004 1.451 . S
C2994 C2993 1.395 . S
C2994 C2995 1.322 . S
C2994 H3058 0.930 . S
C2995 C2994 1.322 . S
C2995 C2996 1.459 . S
C2995 H3059 0.929 . S
C2996 C2995 1.459 . S
C2996 C2997 1.445 . S
C2996 C3005 1.395 . S
C2997 C2975 1.432 . S
C2997 C2996 1.445 . S
C2997 C2998 1.370 . S
C2998 C2997 1.370 . S
C2998 C2999 1.438 . S
C2998 H3060 0.930 . S
C2999 C2985 1.497 1_545 S
C2999 C2998 1.438 . S
C2999 C3000 1.360 . S
C3000 C2999 1.360 . S
C3000 C3001 1.401 . S
C3000 C3005 1.446 . S
C3001 C3000 1.401 . S
C3001 C3002 1.347 . S
C3001 H3061 0.959 . S
C3002 C3001 1.347 . S
C3002 C3003 1.455 . S
C3002 H3062 0.930 . S
C3003 C2990 1.412 . S
C3003 C3002 1.455 . S
C3003 C3004 1.331 . S
C3004 C2993 1.451 . S
C3004 C3003 1.331 . S
C3004 C3005 1.497 . S
C3005 C2996 1.395 . S
C3005 C3000 1.446 . S
C3005 C3004 1.497 . S
C3006 C3007 1.630 . S
C3006 H3063 0.962 . S
C3006 H3064 0.959 . S
C3006 H3065 0.958 . S
C3007 C3006 1.630 . S
C3007 O3010 1.477 . S
C3007 H3036 0.981 1_545 S
O3008 C2953 1.426 . S
O3008 C2954 1.334 . S
O3009 C2981 1.412 . S
O3009 C2982 1.393 . S
O3010 C2972 1.435 . S
O3010 C3007 1.477 . S
O3011 C2963 1.468 . S
O3011 C2964 1.408 . S
H3012 C2953 0.980 1_545 S
H3013 C2952 0.959 . S
H3014 C2952 0.959 . S
H3015 C2952 0.960 . S
H3016 C2955 0.929 . S
H3017 C2959 0.929 . S
H3018 C2960 0.959 . S
H3019 C2960 0.961 . S
H3020 C2960 0.961 . S
H3021 C2961 0.960 . S
H3022 C2961 0.960 . S
H3023 C2961 0.961 . S
H3024 C2963 0.980 . S
H3025 C2962 0.961 . S
H3026 C2962 0.960 . S
H3027 C2962 0.959 . S
H3028 C2965 0.935 . S
H3029 C2969 0.931 . S
H3030 C2970 0.959 . S
H3031 C2970 0.961 . S
H3032 C2970 0.959 . S
H3033 C2971 0.960 . S
H3034 C2971 0.960 . S
H3035 C2971 0.960 . S
H3036 C3007 0.981 1_565 S
H3037 C2973 0.930 . S
H3038 C2977 0.930 . S
H3039 C2978 0.961 . S
H3040 C2978 0.960 . S
H3041 C2978 0.958 . S
H3042 C2979 0.961 . S
H3043 C2979 0.960 . S
H3044 C2979 0.960 . S
H3045 C2981 1.011 . S
H3046 C2980 0.961 . S
H3047 C2980 0.961 . S
H3048 C2980 0.959 . S
H3049 C2983 0.932 . S
H3050 C2987 0.929 . S
H3051 C2988 0.961 . S
H3052 C2988 0.959 . S
H3053 C2988 0.959 . S
H3054 C2989 0.960 . S
H3055 C2989 0.962 . S
H3056 C2989 0.961 . S
H3057 C2991 0.929 . S
H3058 C2994 0.930 . S
H3059 C2995 0.929 . S
H3060 C2998 0.930 . S
H3061 C3001 0.959 . S
H3062 C3002 0.930 . S
H3063 C3006 0.962 . S
H3064 C3006 0.959 . S
H3065 C3006 0.958 . S
C3066 C3067 1.560 . S
C3066 H3127 0.959 . S
C3066 H3128 0.959 . S
C3066 H3129 0.960 . S
C3067 C3066 1.560 . S
C3067 O3122 1.426 . S
C3067 H3126 0.980 1_455 S
C3068 C3069 1.407 1_455 S
C3068 C3073 1.418 . S
C3068 O3122 1.334 . S
C3069 C3068 1.407 1_655 S
C3069 C3070 1.360 . S
C3069 H3130 0.929 . S
C3070 C3069 1.360 . S
C3070 C3071 1.401 . S
C3070 C3074 1.527 . S
C3071 C3070 1.401 . S
C3071 C3072 1.405 1_655 S
C3071 C3104 1.587 . S
C3072 C3071 1.405 1_455 S
C3072 C3073 1.332 . S
C3072 C3075 1.496 . S
C3073 C3068 1.418 . S
C3073 C3072 1.332 . S
C3073 H3131 0.929 . S
C3074 C3070 1.527 . S
C3074 H3132 0.959 . S
C3074 H3133 0.961 . S
C3074 H3134 0.961 . S
C3075 C3072 1.496 . S
C3075 H3135 0.960 . S
C3075 H3136 0.960 . S
C3075 H3137 0.961 . S
C3076 C3077 1.517 . S
C3076 H3139 0.961 . S
C3076 H3140 0.960 . S
C3076 H3141 0.959 . S
C3077 C3076 1.517 . S
C3077 O3125 1.468 . S
C3077 H3138 0.980 . S
C3078 C3079 1.349 . S
C3078 C3083 1.367 . S
C3078 O3125 1.408 . S
C3079 C3078 1.349 . S
C3079 C3080 1.407 . S
C3079 H3142 0.940 1_655 S
C3080 C3079 1.407 . S
C3080 C3081 1.449 . S
C3080 C3084 1.535 1_655 S
C3081 C3080 1.449 . S
C3081 C3082 1.384 . S
C3081 C3106 1.553 . S
C3082 C3081 1.384 . S
C3082 C3083 1.364 . S
C3082 C3085 1.450 . S
C3083 C3078 1.367 . S
C3083 C3082 1.364 . S
C3083 H3143 0.931 . S
C3084 C3080 1.535 1_455 S
C3084 H3144 0.959 . S
C3084 H3145 0.961 . S
C3084 H3146 0.959 . S
C3085 C3082 1.450 . S
C3085 H3147 0.960 . S
C3085 H3148 0.960 . S
C3085 H3149 0.960 . S
C3086 C3087 1.309 1_655 S
C3086 C3091 1.304 . S
C3086 O3124 1.435 . S
C3087 C3086 1.309 1_455 S
C3087 C3088 1.476 . S
C3087 H3151 0.930 . S
C3088 C3087 1.476 . S
C3088 C3089 1.400 1_455 S
C3088 C3092 1.567 . S
C3089 C3088 1.400 1_655 S
C3089 C3090 1.373 . S
C3089 C3111 1.432 . S
C3090 C3089 1.373 . S
C3090 C3091 1.339 . S
C3090 C3093 1.530 . S
C3091 C3086 1.304 . S
C3091 C3090 1.339 . S
C3091 H3152 0.930 . S
C3092 C3088 1.567 . S
C3092 H3153 0.961 . S
C3092 H3154 0.960 . S
C3092 H3155 0.958 . S
C3093 C3090 1.530 . S
C3093 H3156 0.961 . S
C3093 H3157 0.960 . S
C3093 H3158 0.960 . S
C3094 C3095 1.530 . S
C3094 H3160 0.961 . S
C3094 H3161 0.961 . S
C3094 H3162 0.959 . S
C3095 C3094 1.530 . S
C3095 O3123 1.412 . S
C3095 H3159 0.987 . S
C3096 C3097 1.288 . S
C3096 C3101 1.377 1_455 S
C3096 O3123 1.393 . S
C3097 C3096 1.288 . S
C3097 C3098 1.369 . S
C3097 H3163 0.932 . S
C3098 C3097 1.369 . S
C3098 C3099 1.398 . S
C3098 C3102 1.527 . S
C3099 C3098 1.398 . S
C3099 C3100 1.380 1_455 S
C3099 C3113 1.497 1_455 S
C3100 C3099 1.380 1_655 S
C3100 C3101 1.383 . S
C3100 C3103 1.603 . S
C3101 C3096 1.377 1_655 S
C3101 C3100 1.383 . S
C3101 H3164 0.929 . S
C3102 C3098 1.527 . S
C3102 H3165 0.961 . S
C3102 H3166 0.959 . S
C3102 H3167 0.959 . S
C3103 C3100 1.603 . S
C3103 H3168 0.960 . S
C3103 H3169 0.962 . S
C3103 H3170 0.961 . S
C3104 C3071 1.587 . S
C3104 C3105 1.360 . S
C3104 C3117 1.412 . S
C3105 C3104 1.360 . S
C3105 C3106 1.365 . S
C3105 H3171 0.929 . S
C3106 C3081 1.553 . S
C3106 C3105 1.365 . S
C3106 C3107 1.404 . S
C3107 C3106 1.404 . S
C3107 C3108 1.395 . S
C3107 C3118 1.451 . S
C3108 C3107 1.395 . S
C3108 C3109 1.322 . S
C3108 H3172 0.930 . S
C3109 C3108 1.322 . S
C3109 C3110 1.459 . S
C3109 H3173 0.929 . S
C3110 C3109 1.459 . S
C3110 C3111 1.445 . S
C3110 C3119 1.395 . S
C3111 C3089 1.432 . S
C3111 C3110 1.445 . S
C3111 C3112 1.370 . S
C3112 C3111 1.370 . S
C3112 C3113 1.438 . S
C3112 H3174 0.930 . S
C3113 C3099 1.497 1_655 S
C3113 C3112 1.438 . S
C3113 C3114 1.360 . S
C3114 C3113 1.360 . S
C3114 C3115 1.401 . S
C3114 C3119 1.446 . S
C3115 C3114 1.401 . S
C3115 C3116 1.347 . S
C3115 H3175 0.909 . S
C3116 C3115 1.347 . S
C3116 C3117 1.455 . S
C3116 H3176 0.930 . S
C3117 C3104 1.412 . S
C3117 C3116 1.455 . S
C3117 C3118 1.331 . S
C3118 C3107 1.451 . S
C3118 C3117 1.331 . S
C3118 C3119 1.497 . S
C3119 C3110 1.395 . S
C3119 C3114 1.446 . S
C3119 C3118 1.497 . S
C3120 C3121 1.582 1_655 S
C3120 H3177 0.952 1_655 S
C3120 H3178 0.959 . S
C3120 H3179 0.958 . S
C3121 C3120 1.582 1_455 S
C3121 O3124 1.377 1_455 S
C3121 H3150 1.014 . S
O3122 C3067 1.426 . S
O3122 C3068 1.334 . S
O3123 C3095 1.412 . S
O3123 C3096 1.393 . S
O3124 C3086 1.435 . S
O3124 C3121 1.377 1_655 S
O3125 C3077 1.468 . S
O3125 C3078 1.408 . S
H3126 C3067 0.980 1_655 S
H3127 C3066 0.959 . S
H3128 C3066 0.959 . S
H3129 C3066 0.960 . S
H3130 C3069 0.929 . S
H3131 C3073 0.929 . S
H3132 C3074 0.959 . S
H3133 C3074 0.961 . S
H3134 C3074 0.961 . S
H3135 C3075 0.960 . S
H3136 C3075 0.960 . S
H3137 C3075 0.961 . S
H3138 C3077 0.980 . S
H3139 C3076 0.961 . S
H3140 C3076 0.960 . S
H3141 C3076 0.959 . S
H3142 C3079 0.940 1_455 S
H3143 C3083 0.931 . S
H3144 C3084 0.959 . S
H3145 C3084 0.961 . S
H3146 C3084 0.959 . S
H3147 C3085 0.960 . S
H3148 C3085 0.960 . S
H3149 C3085 0.960 . S
H3150 C3121 1.014 . S
H3151 C3087 0.930 . S
H3152 C3091 0.930 . S
H3153 C3092 0.961 . S
H3154 C3092 0.960 . S
H3155 C3092 0.958 . S
H3156 C3093 0.961 . S
H3157 C3093 0.960 . S
H3158 C3093 0.960 . S
H3159 C3095 0.987 . S
H3160 C3094 0.961 . S
H3161 C3094 0.961 . S
H3162 C3094 0.959 . S
H3163 C3097 0.932 . S
H3164 C3101 0.929 . S
H3165 C3102 0.961 . S
H3166 C3102 0.959 . S
H3167 C3102 0.959 . S
H3168 C3103 0.960 . S
H3169 C3103 0.962 . S
H3170 C3103 0.961 . S
H3171 C3105 0.929 . S
H3172 C3108 0.930 . S
H3173 C3109 0.929 . S
H3174 C3112 0.930 . S
H3175 C3115 0.909 . S
H3176 C3116 0.930 . S
H3177 C3120 0.952 1_455 S
H3178 C3120 0.959 . S
H3179 C3120 0.958 . S
C3180 C3181 1.560 . S
C3180 H3241 0.959 . S
C3180 H3242 0.959 . S
C3180 H3243 0.960 . S
C3181 C3180 1.560 . S
C3181 O3236 1.426 . S
C3181 H3240 0.980 . S
C3182 C3183 1.407 . S
C3182 C3187 1.418 . S
C3182 O3236 1.334 . S
C3183 C3182 1.407 . S
C3183 C3184 1.360 . S
C3183 H3244 0.929 . S
C3184 C3183 1.360 . S
C3184 C3185 1.401 . S
C3184 C3188 1.527 . S
C3185 C3184 1.401 . S
C3185 C3186 1.405 . S
C3185 C3218 1.587 . S
C3186 C3185 1.405 . S
C3186 C3187 1.332 . S
C3186 C3189 1.496 . S
C3187 C3182 1.418 . S
C3187 C3186 1.332 . S
C3187 H3245 0.929 . S
C3188 C3184 1.527 . S
C3188 H3246 0.959 . S
C3188 H3247 0.961 . S
C3188 H3248 0.961 . S
C3189 C3186 1.496 . S
C3189 H3249 0.960 . S
C3189 H3250 0.960 . S
C3189 H3251 0.961 . S
C3190 C3191 1.517 . S
C3190 H3253 0.961 . S
C3190 H3254 0.960 . S
C3190 H3255 0.959 . S
C3191 C3190 1.517 . S
C3191 O3239 1.468 . S
C3191 H3252 0.980 . S
C3192 C3193 1.349 . S
C3192 C3197 1.367 . S
C3192 O3239 1.408 . S
C3193 C3192 1.349 . S
C3193 C3194 1.407 . S
C3193 H3256 0.930 . S
C3194 C3193 1.407 . S
C3194 C3195 1.449 . S
C3194 C3198 1.535 . S
C3195 C3194 1.449 . S
C3195 C3196 1.384 . S
C3195 C3220 1.553 . S
C3196 C3195 1.384 . S
C3196 C3197 1.364 . S
C3196 C3199 1.450 . S
C3197 C3192 1.367 . S
C3197 C3196 1.364 . S
C3197 H3257 0.931 . S
C3198 C3194 1.535 . S
C3198 H3258 0.959 . S
C3198 H3259 0.961 . S
C3198 H3260 0.959 . S
C3199 C3196 1.450 . S
C3199 H3261 0.960 . S
C3199 H3262 0.960 . S
C3199 H3263 0.960 . S
C3200 C3201 1.309 . S
C3200 C3205 1.304 . S
C3200 O3238 1.435 . S
C3201 C3200 1.309 . S
C3201 C3202 1.476 . S
C3201 H3265 0.930 . S
C3202 C3201 1.476 . S
C3202 C3203 1.400 . S
C3202 C3206 1.567 . S
C3203 C3202 1.400 . S
C3203 C3204 1.373 . S
C3203 C3225 1.432 . S
C3204 C3203 1.373 . S
C3204 C3205 1.339 . S
C3204 C3207 1.530 . S
C3205 C3200 1.304 . S
C3205 C3204 1.339 . S
C3205 H3266 0.930 . S
C3206 C3202 1.567 . S
C3206 H3267 0.961 . S
C3206 H3268 0.960 . S
C3206 H3269 0.958 . S
C3207 C3204 1.530 . S
C3207 H3270 0.961 . S
C3207 H3271 0.960 . S
C3207 H3272 0.960 . S
C3208 C3209 1.530 . S
C3208 H3274 0.961 . S
C3208 H3275 0.961 . S
C3208 H3276 0.959 . S
C3209 C3208 1.530 . S
C3209 O3237 1.412 . S
C3209 H3273 0.980 . S
C3210 C3211 1.288 . S
C3210 C3215 1.377 . S
C3210 O3237 1.393 . S
C3211 C3210 1.288 . S
C3211 C3212 1.369 . S
C3211 H3277 0.932 . S
C3212 C3211 1.369 . S
C3212 C3213 1.398 . S
C3212 C3216 1.527 . S
C3213 C3212 1.398 . S
C3213 C3214 1.380 . S
C3213 C3227 1.497 . S
C3214 C3213 1.380 . S
C3214 C3215 1.383 . S
C3214 C3217 1.603 . S
C3215 C3210 1.377 . S
C3215 C3214 1.383 . S
C3215 H3278 0.929 . S
C3216 C3212 1.527 . S
C3216 H3279 0.961 . S
C3216 H3280 0.959 . S
C3216 H3281 0.959 . S
C3217 C3214 1.603 . S
C3217 H3282 0.960 . S
C3217 H3283 0.962 . S
C3217 H3284 0.961 . S
C3218 C3185 1.587 . S
C3218 C3219 1.360 . S
C3218 C3231 1.412 . S
C3219 C3218 1.360 . S
C3219 C3220 1.365 . S
C3219 H3285 0.929 . S
C3220 C3195 1.553 . S
C3220 C3219 1.365 . S
C3220 C3221 1.404 . S
C3221 C3220 1.404 . S
C3221 C3222 1.395 . S
C3221 C3232 1.451 . S
C3222 C3221 1.395 . S
C3222 C3223 1.322 . S
C3222 H3286 0.930 . S
C3223 C3222 1.322 . S
C3223 C3224 1.459 . S
C3223 H3287 0.929 . S
C3224 C3223 1.459 . S
C3224 C3225 1.445 . S
C3224 C3233 1.395 . S
C3225 C3203 1.432 . S
C3225 C3224 1.445 . S
C3225 C3226 1.370 . S
C3226 C3225 1.370 . S
C3226 C3227 1.438 . S
C3226 H3288 0.930 . S
C3227 C3213 1.497 . S
C3227 C3226 1.438 . S
C3227 C3228 1.360 . S
C3228 C3227 1.360 . S
C3228 C3229 1.401 . S
C3228 C3233 1.446 . S
C3229 C3228 1.401 . S
C3229 C3230 1.347 . S
C3229 H3289 0.929 . S
C3230 C3229 1.347 . S
C3230 C3231 1.455 . S
C3230 H3290 0.930 . S
C3231 C3218 1.412 . S
C3231 C3230 1.455 . S
C3231 C3232 1.331 . S
C3232 C3221 1.451 . S
C3232 C3231 1.331 . S
C3232 C3233 1.497 . S
C3233 C3224 1.395 . S
C3233 C3228 1.446 . S
C3233 C3232 1.497 . S
C3234 C3235 1.582 . S
C3234 H3291 0.962 . S
C3234 H3292 0.959 . S
C3234 H3293 0.958 . S
C3235 C3234 1.582 . S
C3235 O3238 1.458 . S
C3235 H3264 0.980 . S
O3236 C3181 1.426 . S
O3236 C3182 1.334 . S
O3237 C3209 1.412 . S
O3237 C3210 1.393 . S
O3238 C3200 1.435 . S
O3238 C3235 1.458 . S
O3239 C3191 1.468 . S
O3239 C3192 1.408 . S
H3240 C3181 0.980 . S
H3241 C3180 0.959 . S
H3242 C3180 0.959 . S
H3243 C3180 0.960 . S
H3244 C3183 0.929 . S
H3245 C3187 0.929 . S
H3246 C3188 0.959 . S
H3247 C3188 0.961 . S
H3248 C3188 0.961 . S
H3249 C3189 0.960 . S
H3250 C3189 0.960 . S
H3251 C3189 0.961 . S
H3252 C3191 0.980 . S
H3253 C3190 0.961 . S
H3254 C3190 0.960 . S
H3255 C3190 0.959 . S
H3256 C3193 0.930 . S
H3257 C3197 0.931 . S
H3258 C3198 0.959 . S
H3259 C3198 0.961 . S
H3260 C3198 0.959 . S
H3261 C3199 0.960 . S
H3262 C3199 0.960 . S
H3263 C3199 0.960 . S
H3264 C3235 0.980 . S
H3265 C3201 0.930 . S
H3266 C3205 0.930 . S
H3267 C3206 0.961 . S
H3268 C3206 0.960 . S
H3269 C3206 0.958 . S
H3270 C3207 0.961 . S
H3271 C3207 0.960 . S
H3272 C3207 0.960 . S
H3273 C3209 0.980 . S
H3274 C3208 0.961 . S
H3275 C3208 0.961 . S
H3276 C3208 0.959 . S
H3277 C3211 0.932 . S
H3278 C3215 0.929 . S
H3279 C3216 0.961 . S
H3280 C3216 0.959 . S
H3281 C3216 0.959 . S
H3282 C3217 0.960 . S
H3283 C3217 0.962 . S
H3284 C3217 0.961 . S
H3285 C3219 0.929 . S
H3286 C3222 0.930 . S
H3287 C3223 0.929 . S
H3288 C3226 0.930 . S
H3289 C3229 0.929 . S
H3290 C3230 0.930 . S
H3291 C3234 0.962 . S
H3292 C3234 0.959 . S
H3293 C3234 0.958 . S
C3294 C3295 1.560 . S
C3294 H3355 0.959 . S
C3294 H3356 0.959 . S
C3294 H3357 0.960 . S
C3295 C3294 1.560 . S
C3295 O3350 1.426 . S
C3295 H3354 0.980 . S
C3296 C3297 1.407 . S
C3296 C3301 1.418 . S
C3296 O3350 1.334 . S
C3297 C3296 1.407 . S
C3297 C3298 1.360 . S
C3297 H3358 0.929 . S
C3298 C3297 1.360 . S
C3298 C3299 1.401 . S
C3298 C3302 1.527 . S
C3299 C3298 1.401 . S
C3299 C3300 1.405 . S
C3299 C3332 1.587 . S
C3300 C3299 1.405 . S
C3300 C3301 1.332 . S
C3300 C3303 1.496 . S
C3301 C3296 1.418 . S
C3301 C3300 1.332 . S
C3301 H3359 0.929 . S
C3302 C3298 1.527 . S
C3302 H3360 0.959 . S
C3302 H3361 0.961 . S
C3302 H3362 0.961 . S
C3303 C3300 1.496 . S
C3303 H3363 0.960 . S
C3303 H3364 0.960 . S
C3303 H3365 0.961 . S
C3304 C3305 1.517 . S
C3304 H3367 0.961 . S
C3304 H3368 0.960 . S
C3304 H3369 0.959 . S
C3305 C3304 1.517 . S
C3305 O3353 1.468 . S
C3305 H3366 0.980 . S
C3306 C3307 1.349 . S
C3306 C3311 1.367 . S
C3306 O3353 1.408 . S
C3307 C3306 1.349 . S
C3307 C3308 1.407 . S
C3307 H3370 0.930 . S
C3308 C3307 1.407 . S
C3308 C3309 1.449 . S
C3308 C3312 1.535 . S
C3309 C3308 1.449 . S
C3309 C3310 1.384 . S
C3309 C3334 1.553 . S
C3310 C3309 1.384 . S
C3310 C3311 1.364 . S
C3310 C3313 1.450 . S
C3311 C3306 1.367 . S
C3311 C3310 1.364 . S
C3311 H3371 0.931 . S
C3312 C3308 1.535 . S
C3312 H3372 0.959 . S
C3312 H3373 0.961 . S
C3312 H3374 0.959 . S
C3313 C3310 1.450 . S
C3313 H3375 0.960 . S
C3313 H3376 0.960 . S
C3313 H3377 0.960 . S
C3314 C3315 1.309 . S
C3314 C3319 1.304 . S
C3314 O3352 1.435 . S
C3315 C3314 1.309 . S
C3315 C3316 1.476 . S
C3315 H3379 0.930 . S
C3316 C3315 1.476 . S
C3316 C3317 1.400 . S
C3316 C3320 1.567 . S
C3317 C3316 1.400 . S
C3317 C3318 1.373 . S
C3317 C3339 1.432 . S
C3318 C3317 1.373 . S
C3318 C3319 1.339 . S
C3318 C3321 1.530 . S
C3319 C3314 1.304 . S
C3319 C3318 1.339 . S
C3319 H3380 0.930 . S
C3320 C3316 1.567 . S
C3320 H3381 0.961 . S
C3320 H3382 0.960 . S
C3320 H3383 0.958 . S
C3321 C3318 1.530 . S
C3321 H3384 0.961 . S
C3321 H3385 0.960 . S
C3321 H3386 0.960 . S
C3322 C3323 1.530 . S
C3322 H3388 0.961 . S
C3322 H3389 0.961 . S
C3322 H3390 0.959 . S
C3323 C3322 1.530 . S
C3323 O3351 1.412 . S
C3323 H3387 0.980 . S
C3324 C3325 1.288 . S
C3324 C3329 1.377 . S
C3324 O3351 1.393 . S
C3325 C3324 1.288 . S
C3325 C3326 1.369 . S
C3325 H3391 0.932 . S
C3326 C3325 1.369 . S
C3326 C3327 1.398 . S
C3326 C3330 1.527 . S
C3327 C3326 1.398 . S
C3327 C3328 1.380 . S
C3327 C3341 1.497 . S
C3328 C3327 1.380 . S
C3328 C3329 1.383 . S
C3328 C3331 1.603 . S
C3329 C3324 1.377 . S
C3329 C3328 1.383 . S
C3329 H3392 0.929 . S
C3330 C3326 1.527 . S
C3330 H3393 0.961 . S
C3330 H3394 0.959 . S
C3330 H3395 0.959 . S
C3331 C3328 1.603 . S
C3331 H3396 0.960 . S
C3331 H3397 0.962 . S
C3331 H3398 0.961 . S
C3332 C3299 1.587 . S
C3332 C3333 1.360 . S
C3332 C3345 1.412 . S
C3333 C3332 1.360 . S
C3333 C3334 1.365 . S
C3333 H3399 0.929 . S
C3334 C3309 1.553 . S
C3334 C3333 1.365 . S
C3334 C3335 1.404 . S
C3335 C3334 1.404 . S
C3335 C3336 1.395 . S
C3335 C3346 1.451 . S
C3336 C3335 1.395 . S
C3336 C3337 1.322 . S
C3336 H3400 0.930 . S
C3337 C3336 1.322 . S
C3337 C3338 1.459 . S
C3337 H3401 0.929 . S
C3338 C3337 1.459 . S
C3338 C3339 1.445 . S
C3338 C3347 1.395 . S
C3339 C3317 1.432 . S
C3339 C3338 1.445 . S
C3339 C3340 1.370 . S
C3340 C3339 1.370 . S
C3340 C3341 1.438 . S
C3340 H3402 0.930 . S
C3341 C3327 1.497 . S
C3341 C3340 1.438 . S
C3341 C3342 1.360 . S
C3342 C3341 1.360 . S
C3342 C3343 1.401 . S
C3342 C3347 1.446 . S
C3343 C3342 1.401 . S
C3343 C3344 1.347 . S
C3343 H3403 0.929 . S
C3344 C3343 1.347 . S
C3344 C3345 1.455 . S
C3344 H3404 0.930 . S
C3345 C3332 1.412 . S
C3345 C3344 1.455 . S
C3345 C3346 1.331 . S
C3346 C3335 1.451 . S
C3346 C3345 1.331 . S
C3346 C3347 1.497 . S
C3347 C3338 1.395 . S
C3347 C3342 1.446 . S
C3347 C3346 1.497 . S
C3348 C3349 1.582 . S
C3348 H3405 0.962 . S
C3348 H3406 0.959 . S
C3348 H3407 0.958 . S
C3349 C3348 1.582 . S
C3349 O3352 1.458 . S
C3349 H3378 0.980 . S
O3350 C3295 1.426 . S
O3350 C3296 1.334 . S
O3351 C3323 1.412 . S
O3351 C3324 1.393 . S
O3352 C3314 1.435 . S
O3352 C3349 1.458 . S
O3353 C3305 1.468 . S
O3353 C3306 1.408 . S
H3354 C3295 0.980 . S
H3355 C3294 0.959 . S
H3356 C3294 0.959 . S
H3357 C3294 0.960 . S
H3358 C3297 0.929 . S
H3359 C3301 0.929 . S
H3360 C3302 0.959 . S
H3361 C3302 0.961 . S
H3362 C3302 0.961 . S
H3363 C3303 0.960 . S
H3364 C3303 0.960 . S
H3365 C3303 0.961 . S
H3366 C3305 0.980 . S
H3367 C3304 0.961 . S
H3368 C3304 0.960 . S
H3369 C3304 0.959 . S
H3370 C3307 0.930 . S
H3371 C3311 0.931 . S
H3372 C3312 0.959 . S
H3373 C3312 0.961 . S
H3374 C3312 0.959 . S
H3375 C3313 0.960 . S
H3376 C3313 0.960 . S
H3377 C3313 0.960 . S
H3378 C3349 0.980 . S
H3379 C3315 0.930 . S
H3380 C3319 0.930 . S
H3381 C3320 0.961 . S
H3382 C3320 0.960 . S
H3383 C3320 0.958 . S
H3384 C3321 0.961 . S
H3385 C3321 0.960 . S
H3386 C3321 0.960 . S
H3387 C3323 0.980 . S
H3388 C3322 0.961 . S
H3389 C3322 0.961 . S
H3390 C3322 0.959 . S
H3391 C3325 0.932 . S
H3392 C3329 0.929 . S
H3393 C3330 0.961 . S
H3394 C3330 0.959 . S
H3395 C3330 0.959 . S
H3396 C3331 0.960 . S
H3397 C3331 0.962 . S
H3398 C3331 0.961 . S
H3399 C3333 0.929 . S
H3400 C3336 0.930 . S
H3401 C3337 0.929 . S
H3402 C3340 0.930 . S
H3403 C3343 0.929 . S
H3404 C3344 0.930 . S
H3405 C3348 0.962 . S
H3406 C3348 0.959 . S
H3407 C3348 0.958 . S
C3408 C3409 1.560 . S
C3408 H3469 0.959 . S
C3408 H3470 0.959 . S
C3408 H3471 0.960 . S
C3409 C3408 1.560 . S
C3409 O3464 1.426 . S
C3409 H3468 0.980 . S
C3410 C3411 1.407 . S
C3410 C3415 1.418 . S
C3410 O3464 1.334 . S
C3411 C3410 1.407 . S
C3411 C3412 1.360 . S
C3411 H3472 0.929 . S
C3412 C3411 1.360 . S
C3412 C3413 1.401 . S
C3412 C3416 1.527 . S
C3413 C3412 1.401 . S
C3413 C3414 1.405 . S
C3413 C3446 1.587 . S
C3414 C3413 1.405 . S
C3414 C3415 1.332 . S
C3414 C3417 1.496 . S
C3415 C3410 1.418 . S
C3415 C3414 1.332 . S
C3415 H3473 0.929 . S
C3416 C3412 1.527 . S
C3416 H3474 0.959 . S
C3416 H3475 0.961 . S
C3416 H3476 0.961 . S
C3417 C3414 1.496 . S
C3417 H3477 0.960 . S
C3417 H3478 0.960 . S
C3417 H3479 0.961 . S
C3418 C3419 1.517 . S
C3418 H3481 0.961 . S
C3418 H3482 0.960 . S
C3418 H3483 0.959 . S
C3419 C3418 1.517 . S
C3419 O3467 1.468 . S
C3419 H3480 0.980 . S
C3420 C3421 1.349 . S
C3420 C3425 1.367 . S
C3420 O3467 1.408 . S
C3421 C3420 1.349 . S
C3421 C3422 1.407 . S
C3421 H3484 0.930 . S
C3422 C3421 1.407 . S
C3422 C3423 1.449 . S
C3422 C3426 1.535 . S
C3423 C3422 1.449 . S
C3423 C3424 1.384 . S
C3423 C3448 1.553 . S
C3424 C3423 1.384 . S
C3424 C3425 1.364 . S
C3424 C3427 1.450 . S
C3425 C3420 1.367 . S
C3425 C3424 1.364 . S
C3425 H3485 0.931 . S
C3426 C3422 1.535 . S
C3426 H3486 0.959 . S
C3426 H3487 0.961 . S
C3426 H3488 0.959 . S
C3427 C3424 1.450 . S
C3427 H3489 0.960 . S
C3427 H3490 0.960 . S
C3427 H3491 0.960 . S
C3428 C3429 1.309 . S
C3428 C3433 1.304 . S
C3428 O3466 1.435 . S
C3429 C3428 1.309 . S
C3429 C3430 1.476 . S
C3429 H3493 0.930 . S
C3430 C3429 1.476 . S
C3430 C3431 1.400 . S
C3430 C3434 1.567 . S
C3431 C3430 1.400 . S
C3431 C3432 1.373 . S
C3431 C3453 1.432 . S
C3432 C3431 1.373 . S
C3432 C3433 1.339 . S
C3432 C3435 1.530 . S
C3433 C3428 1.304 . S
C3433 C3432 1.339 . S
C3433 H3494 0.930 . S
C3434 C3430 1.567 . S
C3434 H3495 0.961 . S
C3434 H3496 0.960 . S
C3434 H3497 0.958 . S
C3435 C3432 1.530 . S
C3435 H3498 0.961 . S
C3435 H3499 0.960 . S
C3435 H3500 0.960 . S
C3436 C3437 1.530 . S
C3436 H3502 0.961 . S
C3436 H3503 0.961 . S
C3436 H3504 0.959 . S
C3437 C3436 1.530 . S
C3437 O3465 1.412 . S
C3437 H3501 0.980 . S
C3438 C3439 1.288 . S
C3438 C3443 1.377 . S
C3438 O3465 1.393 . S
C3439 C3438 1.288 . S
C3439 C3440 1.369 . S
C3439 H3505 0.932 . S
C3440 C3439 1.369 . S
C3440 C3441 1.398 . S
C3440 C3444 1.527 . S
C3441 C3440 1.398 . S
C3441 C3442 1.380 . S
C3441 C3455 1.497 . S
C3442 C3441 1.380 . S
C3442 C3443 1.383 . S
C3442 C3445 1.603 . S
C3443 C3438 1.377 . S
C3443 C3442 1.383 . S
C3443 H3506 0.929 . S
C3444 C3440 1.527 . S
C3444 H3507 0.961 . S
C3444 H3508 0.959 . S
C3444 H3509 0.959 . S
C3445 C3442 1.603 . S
C3445 H3510 0.960 . S
C3445 H3511 0.962 . S
C3445 H3512 0.961 . S
C3446 C3413 1.587 . S
C3446 C3447 1.360 . S
C3446 C3459 1.412 . S
C3447 C3446 1.360 . S
C3447 C3448 1.365 . S
C3447 H3513 0.929 . S
C3448 C3423 1.553 . S
C3448 C3447 1.365 . S
C3448 C3449 1.404 . S
C3449 C3448 1.404 . S
C3449 C3450 1.395 . S
C3449 C3460 1.451 . S
C3450 C3449 1.395 . S
C3450 C3451 1.322 . S
C3450 H3514 0.930 . S
C3451 C3450 1.322 . S
C3451 C3452 1.459 . S
C3451 H3515 0.929 . S
C3452 C3451 1.459 . S
C3452 C3453 1.445 . S
C3452 C3461 1.395 . S
C3453 C3431 1.432 . S
C3453 C3452 1.445 . S
C3453 C3454 1.370 . S
C3454 C3453 1.370 . S
C3454 C3455 1.438 . S
C3454 H3516 0.930 . S
C3455 C3441 1.497 . S
C3455 C3454 1.438 . S
C3455 C3456 1.360 . S
C3456 C3455 1.360 . S
C3456 C3457 1.401 . S
C3456 C3461 1.446 . S
C3457 C3456 1.401 . S
C3457 C3458 1.347 . S
C3457 H3517 0.929 . S
C3458 C3457 1.347 . S
C3458 C3459 1.455 . S
C3458 H3518 0.930 . S
C3459 C3446 1.412 . S
C3459 C3458 1.455 . S
C3459 C3460 1.331 . S
C3460 C3449 1.451 . S
C3460 C3459 1.331 . S
C3460 C3461 1.497 . S
C3461 C3452 1.395 . S
C3461 C3456 1.446 . S
C3461 C3460 1.497 . S
C3462 C3463 1.582 . S
C3462 H3519 0.962 . S
C3462 H3520 0.959 . S
C3462 H3521 0.958 . S
C3463 C3462 1.582 . S
C3463 O3466 1.458 . S
C3463 H3492 0.980 . S
O3464 C3409 1.426 . S
O3464 C3410 1.334 . S
O3465 C3437 1.412 . S
O3465 C3438 1.393 . S
O3466 C3428 1.435 . S
O3466 C3463 1.458 . S
O3467 C3419 1.468 . S
O3467 C3420 1.408 . S
H3468 C3409 0.980 . S
H3469 C3408 0.959 . S
H3470 C3408 0.959 . S
H3471 C3408 0.960 . S
H3472 C3411 0.929 . S
H3473 C3415 0.929 . S
H3474 C3416 0.959 . S
H3475 C3416 0.961 . S
H3476 C3416 0.961 . S
H3477 C3417 0.960 . S
H3478 C3417 0.960 . S
H3479 C3417 0.961 . S
H3480 C3419 0.980 . S
H3481 C3418 0.961 . S
H3482 C3418 0.960 . S
H3483 C3418 0.959 . S
H3484 C3421 0.930 . S
H3485 C3425 0.931 . S
H3486 C3426 0.959 . S
H3487 C3426 0.961 . S
H3488 C3426 0.959 . S
H3489 C3427 0.960 . S
H3490 C3427 0.960 . S
H3491 C3427 0.960 . S
H3492 C3463 0.980 . S
H3493 C3429 0.930 . S
H3494 C3433 0.930 . S
H3495 C3434 0.961 . S
H3496 C3434 0.960 . S
H3497 C3434 0.958 . S
H3498 C3435 0.961 . S
H3499 C3435 0.960 . S
H3500 C3435 0.960 . S
H3501 C3437 0.980 . S
H3502 C3436 0.961 . S
H3503 C3436 0.961 . S
H3504 C3436 0.959 . S
H3505 C3439 0.932 . S
H3506 C3443 0.929 . S
H3507 C3444 0.961 . S
H3508 C3444 0.959 . S
H3509 C3444 0.959 . S
H3510 C3445 0.960 . S
H3511 C3445 0.962 . S
H3512 C3445 0.961 . S
H3513 C3447 0.929 . S
H3514 C3450 0.930 . S
H3515 C3451 0.929 . S
H3516 C3454 0.930 . S
H3517 C3457 0.929 . S
H3518 C3458 0.930 . S
H3519 C3462 0.962 . S
H3520 C3462 0.959 . S
H3521 C3462 0.958 . S
C3522 C3523 1.560 . S
C3522 H3583 0.959 . S
C3522 H3584 0.959 . S
C3522 H3585 0.960 . S
C3523 C3522 1.560 . S
C3523 O3578 1.426 . S
C3523 H3582 0.980 . S
C3524 C3525 1.407 . S
C3524 C3529 1.418 . S
C3524 O3578 1.334 . S
C3525 C3524 1.407 . S
C3525 C3526 1.360 . S
C3525 H3586 0.929 . S
C3526 C3525 1.360 . S
C3526 C3527 1.401 . S
C3526 C3530 1.527 . S
C3527 C3526 1.401 . S
C3527 C3528 1.405 . S
C3527 C3560 1.587 . S
C3528 C3527 1.405 . S
C3528 C3529 1.332 . S
C3528 C3531 1.496 . S
C3529 C3524 1.418 . S
C3529 C3528 1.332 . S
C3529 H3587 0.929 . S
C3530 C3526 1.527 . S
C3530 H3588 0.959 . S
C3530 H3589 0.961 . S
C3530 H3590 0.961 . S
C3531 C3528 1.496 . S
C3531 H3591 0.960 . S
C3531 H3592 0.960 . S
C3531 H3593 0.961 . S
C3532 C3533 1.517 . S
C3532 H3595 0.961 . S
C3532 H3596 0.960 . S
C3532 H3597 0.959 . S
C3533 C3532 1.517 . S
C3533 O3581 1.468 . S
C3533 H3594 0.980 . S
C3534 C3535 1.349 . S
C3534 C3539 1.367 . S
C3534 O3581 1.408 . S
C3535 C3534 1.349 . S
C3535 C3536 1.407 . S
C3535 H3598 0.930 . S
C3536 C3535 1.407 . S
C3536 C3537 1.449 . S
C3536 C3540 1.535 . S
C3537 C3536 1.449 . S
C3537 C3538 1.384 . S
C3537 C3562 1.553 . S
C3538 C3537 1.384 . S
C3538 C3539 1.364 . S
C3538 C3541 1.450 . S
C3539 C3534 1.367 . S
C3539 C3538 1.364 . S
C3539 H3599 0.931 . S
C3540 C3536 1.535 . S
C3540 H3600 0.959 . S
C3540 H3601 0.961 . S
C3540 H3602 0.959 . S
C3541 C3538 1.450 . S
C3541 H3603 0.960 . S
C3541 H3604 0.960 . S
C3541 H3605 0.960 . S
C3542 C3543 1.309 . S
C3542 C3547 1.304 . S
C3542 O3580 1.435 . S
C3543 C3542 1.309 . S
C3543 C3544 1.476 . S
C3543 H3607 0.930 . S
C3544 C3543 1.476 . S
C3544 C3545 1.400 . S
C3544 C3548 1.567 . S
C3545 C3544 1.400 . S
C3545 C3546 1.373 . S
C3545 C3567 1.432 . S
C3546 C3545 1.373 . S
C3546 C3547 1.339 . S
C3546 C3549 1.530 . S
C3547 C3542 1.304 . S
C3547 C3546 1.339 . S
C3547 H3608 0.930 . S
C3548 C3544 1.567 . S
C3548 H3609 0.961 . S
C3548 H3610 0.960 . S
C3548 H3611 0.958 . S
C3549 C3546 1.530 . S
C3549 H3612 0.961 . S
C3549 H3613 0.960 . S
C3549 H3614 0.960 . S
C3550 C3551 1.530 . S
C3550 H3616 0.961 . S
C3550 H3617 0.961 . S
C3550 H3618 0.959 . S
C3551 C3550 1.530 . S
C3551 O3579 1.412 . S
C3551 H3615 0.980 . S
C3552 C3553 1.288 . S
C3552 C3557 1.377 . S
C3552 O3579 1.393 . S
C3553 C3552 1.288 . S
C3553 C3554 1.369 . S
C3553 H3619 0.932 . S
C3554 C3553 1.369 . S
C3554 C3555 1.398 . S
C3554 C3558 1.527 . S
C3555 C3554 1.398 . S
C3555 C3556 1.380 . S
C3555 C3569 1.497 . S
C3556 C3555 1.380 . S
C3556 C3557 1.383 . S
C3556 C3559 1.603 . S
C3557 C3552 1.377 . S
C3557 C3556 1.383 . S
C3557 H3620 0.929 . S
C3558 C3554 1.527 . S
C3558 H3621 0.961 . S
C3558 H3622 0.959 . S
C3558 H3623 0.959 . S
C3559 C3556 1.603 . S
C3559 H3624 0.960 . S
C3559 H3625 0.962 . S
C3559 H3626 0.961 . S
C3560 C3527 1.587 . S
C3560 C3561 1.360 . S
C3560 C3573 1.412 . S
C3561 C3560 1.360 . S
C3561 C3562 1.365 . S
C3561 H3627 0.929 . S
C3562 C3537 1.553 . S
C3562 C3561 1.365 . S
C3562 C3563 1.404 . S
C3563 C3562 1.404 . S
C3563 C3564 1.395 . S
C3563 C3574 1.451 . S
C3564 C3563 1.395 . S
C3564 C3565 1.322 . S
C3564 H3628 0.930 . S
C3565 C3564 1.322 . S
C3565 C3566 1.459 . S
C3565 H3629 0.929 . S
C3566 C3565 1.459 . S
C3566 C3567 1.445 . S
C3566 C3575 1.395 . S
C3567 C3545 1.432 . S
C3567 C3566 1.445 . S
C3567 C3568 1.370 . S
C3568 C3567 1.370 . S
C3568 C3569 1.438 . S
C3568 H3630 0.930 . S
C3569 C3555 1.497 . S
C3569 C3568 1.438 . S
C3569 C3570 1.360 . S
C3570 C3569 1.360 . S
C3570 C3571 1.401 . S
C3570 C3575 1.446 . S
C3571 C3570 1.401 . S
C3571 C3572 1.347 . S
C3571 H3631 0.929 . S
C3572 C3571 1.347 . S
C3572 C3573 1.455 . S
C3572 H3632 0.930 . S
C3573 C3560 1.412 . S
C3573 C3572 1.455 . S
C3573 C3574 1.331 . S
C3574 C3563 1.451 . S
C3574 C3573 1.331 . S
C3574 C3575 1.497 . S
C3575 C3566 1.395 . S
C3575 C3570 1.446 . S
C3575 C3574 1.497 . S
C3576 C3577 1.582 . S
C3576 H3633 0.962 . S
C3576 H3634 0.959 . S
C3576 H3635 0.958 . S
C3577 C3576 1.582 . S
C3577 O3580 1.458 . S
C3577 H3606 0.980 . S
O3578 C3523 1.426 . S
O3578 C3524 1.334 . S
O3579 C3551 1.412 . S
O3579 C3552 1.393 . S
O3580 C3542 1.435 . S
O3580 C3577 1.458 . S
O3581 C3533 1.468 . S
O3581 C3534 1.408 . S
H3582 C3523 0.980 . S
H3583 C3522 0.959 . S
H3584 C3522 0.959 . S
H3585 C3522 0.960 . S
H3586 C3525 0.929 . S
H3587 C3529 0.929 . S
H3588 C3530 0.959 . S
H3589 C3530 0.961 . S
H3590 C3530 0.961 . S
H3591 C3531 0.960 . S
H3592 C3531 0.960 . S
H3593 C3531 0.961 . S
H3594 C3533 0.980 . S
H3595 C3532 0.961 . S
H3596 C3532 0.960 . S
H3597 C3532 0.959 . S
H3598 C3535 0.930 . S
H3599 C3539 0.931 . S
H3600 C3540 0.959 . S
H3601 C3540 0.961 . S
H3602 C3540 0.959 . S
H3603 C3541 0.960 . S
H3604 C3541 0.960 . S
H3605 C3541 0.960 . S
H3606 C3577 0.980 . S
H3607 C3543 0.930 . S
H3608 C3547 0.930 . S
H3609 C3548 0.961 . S
H3610 C3548 0.960 . S
H3611 C3548 0.958 . S
H3612 C3549 0.961 . S
H3613 C3549 0.960 . S
H3614 C3549 0.960 . S
H3615 C3551 0.980 . S
H3616 C3550 0.961 . S
H3617 C3550 0.961 . S
H3618 C3550 0.959 . S
H3619 C3553 0.932 . S
H3620 C3557 0.929 . S
H3621 C3558 0.961 . S
H3622 C3558 0.959 . S
H3623 C3558 0.959 . S
H3624 C3559 0.960 . S
H3625 C3559 0.962 . S
H3626 C3559 0.961 . S
H3627 C3561 0.929 . S
H3628 C3564 0.930 . S
H3629 C3565 0.929 . S
H3630 C3568 0.930 . S
H3631 C3571 0.929 . S
H3632 C3572 0.930 . S
H3633 C3576 0.962 . S
H3634 C3576 0.959 . S
H3635 C3576 0.958 . S
H3636 C3644 0.950 . S
H3637 C3649 0.950 . S
H3638 C3646 0.950 . S
H3639 C3648 0.950 . S
H3640 C3650 0.950 . S
H3641 C3652 0.950 . S
H3642 C3654 0.950 . S
H3643 C3655 0.950 . S
C3644 H3636 0.950 . S
C3644 C3645 1.386 . S
C3644 C3646 1.391 . S
C3645 C3644 1.386 . S
C3645 C3649 1.393 . S
C3646 H3638 0.950 . S
C3646 C3644 1.391 . S
C3646 C3647 1.400 . S
C3647 C3646 1.400 . S
C3647 C3648 1.398 . S
C3647 C3653 1.491 . S
C3648 H3639 0.950 . S
C3648 C3647 1.398 . S
C3648 C3649 1.391 . S
C3649 H3637 0.950 . S
C3649 C3645 1.393 . S
C3649 C3648 1.391 . S
C3650 H3640 0.950 . S
C3650 C3651 1.386 . S
C3650 C3652 1.391 . S
C3651 C3650 1.386 . S
C3651 C3655 1.393 . S
C3652 H3641 0.950 . S
C3652 C3650 1.391 . S
C3652 C3653 1.400 . S
C3653 C3647 1.491 . S
C3653 C3652 1.400 . S
C3653 C3654 1.398 . S
C3654 H3642 0.950 . S
C3654 C3653 1.398 . S
C3654 C3655 1.391 . S
C3655 H3643 0.950 . S
C3655 C3651 1.393 . S
C3655 C3654 1.391 . S
H3656 C3664 0.950 . S
H3657 C3669 0.950 . S
H3658 C3666 0.950 . S
H3659 C3668 0.950 . S
H3660 C3670 0.950 . S
H3661 C3672 0.950 . S
H3662 C3674 0.950 . S
H3663 C3675 0.950 . S
C3664 H3656 0.950 . S
C3664 C3665 1.386 . S
C3664 C3666 1.391 . S
C3665 C3664 1.386 . S
C3665 C3669 1.393 . S
C3666 H3658 0.950 . S
C3666 C3664 1.391 . S
C3666 C3667 1.400 . S
C3667 C3666 1.400 . S
C3667 C3668 1.398 . S
C3667 C3673 1.491 . S
C3668 H3659 0.950 . S
C3668 C3667 1.398 . S
C3668 C3669 1.391 . S
C3669 H3657 0.950 . S
C3669 C3665 1.393 . S
C3669 C3668 1.391 . S
C3670 H3660 0.950 . S
C3670 C3671 1.386 . S
C3670 C3672 1.391 . S
C3671 C3670 1.386 . S
C3671 C3675 1.393 . S
C3672 H3661 0.950 . S
C3672 C3670 1.391 . S
C3672 C3673 1.400 . S
C3673 C3667 1.491 . S
C3673 C3672 1.400 . S
C3673 C3674 1.398 . S
C3674 H3662 0.950 . S
C3674 C3673 1.398 . S
C3674 C3675 1.391 . S
C3675 H3663 0.950 . S
C3675 C3671 1.393 . S
C3675 C3674 1.391 . S
H3676 C3684 0.950 . S
H3677 C3689 0.950 . S
H3678 C3686 0.950 . S
H3679 C3688 0.950 . S
H3680 C3690 0.972 . S
H3681 C3692 0.950 . S
H3682 C3694 0.950 . S
H3683 C3695 0.950 . S
C3684 H3676 0.950 . S
C3684 C3685 1.386 . S
C3684 C3686 1.391 . S
C3685 C3684 1.386 . S
C3685 C3689 1.393 . S
C3686 H3678 0.950 . S
C3686 C3684 1.391 . S
C3686 C3687 1.400 . S
C3687 C3686 1.400 . S
C3687 C3688 1.398 . S
C3687 C3693 1.491 . S
C3688 H3679 0.950 . S
C3688 C3687 1.398 . S
C3688 C3689 1.391 . S
C3689 H3677 0.950 . S
C3689 C3685 1.393 . S
C3689 C3688 1.391 . S
C3690 H3680 0.972 . S
C3690 C3691 1.386 . S
C3690 C3692 1.391 . S
C3691 C3690 1.386 . S
C3691 C3695 1.393 . S
C3692 H3681 0.950 . S
C3692 C3690 1.391 . S
C3692 C3693 1.400 . S
C3693 C3687 1.491 . S
C3693 C3692 1.400 . S
C3693 C3694 1.398 . S
C3694 H3682 0.950 . S
C3694 C3693 1.398 . S
C3694 C3695 1.391 . S
C3695 H3683 0.950 . S
C3695 C3691 1.393 . S
C3695 C3694 1.391 . S
H3696 C3704 0.950 . S
H3697 C3709 0.950 . S
H3698 C3706 0.950 . S
H3699 C3708 0.950 1_545 S
H3700 C3710 0.950 . S
H3701 C3712 0.893 1_545 S
H3702 C3714 0.950 . S
H3703 C3715 0.950 . S
C3704 H3696 0.950 . S
C3704 C3705 1.386 . S
C3704 C3706 1.391 . S
C3705 C3704 1.386 . S
C3705 C3709 1.393 . S
C3706 H3698 0.950 . S
C3706 C3704 1.391 . S
C3706 C3707 1.400 . S
C3707 C3706 1.400 . S
C3707 C3708 1.398 . S
C3707 C3713 1.491 . S
C3708 H3699 0.950 1_565 S
C3708 C3707 1.398 . S
C3708 C3709 1.391 . S
C3709 H3697 0.950 . S
C3709 C3705 1.393 . S
C3709 C3708 1.391 . S
C3710 H3700 0.950 . S
C3710 C3711 1.386 1_545 S
C3710 C3712 1.405 1_545 S
C3711 C3710 1.386 1_565 S
C3711 C3715 1.393 . S
C3712 H3701 0.893 1_565 S
C3712 C3710 1.405 1_565 S
C3712 C3713 1.444 . S
C3713 C3707 1.491 . S
C3713 C3712 1.444 . S
C3713 C3714 1.398 . S
C3714 H3702 0.950 . S
C3714 C3713 1.398 . S
C3714 C3715 1.391 . S
C3715 H3703 0.950 . S
C3715 C3711 1.393 . S
C3715 C3714 1.391 . S
H3716 C3724 0.950 . S
H3717 C3729 0.950 . S
H3718 C3726 0.950 . S
H3719 C3728 0.943 1_655 S
H3720 C3730 1.005 . S
H3721 C3732 0.950 1_655 S
H3722 C3734 0.950 . S
H3723 C3735 0.950 . S
C3724 H3716 0.950 . S
C3724 C3725 1.386 . S
C3724 C3726 1.391 . S
C3725 C3724 1.386 . S
C3725 C3729 1.393 . S
C3726 H3718 0.950 . S
C3726 C3724 1.391 . S
C3726 C3727 1.400 . S
C3727 C3726 1.400 . S
C3727 C3728 1.398 . S
C3727 C3733 1.491 . S
C3728 H3719 0.943 1_455 S
C3728 C3727 1.398 . S
C3728 C3729 1.391 . S
C3729 H3717 0.950 . S
C3729 C3725 1.393 . S
C3729 C3728 1.391 . S
C3730 H3720 1.005 . S
C3730 C3731 1.363 1_655 S
C3730 C3732 1.360 1_655 S
C3731 C3730 1.363 1_455 S
C3731 C3735 1.393 . S
C3732 H3721 0.950 1_455 S
C3732 C3730 1.360 1_455 S
C3732 C3733 1.400 . S
C3733 C3727 1.491 . S
C3733 C3732 1.400 . S
C3733 C3734 1.398 . S
C3734 H3722 0.950 . S
C3734 C3733 1.398 . S
C3734 C3735 1.391 . S
C3735 H3723 0.950 . S
C3735 C3731 1.393 . S
C3735 C3734 1.391 . S
H3736 C3744 0.950 . S
H3737 C3749 0.950 . S
H3738 C3746 0.950 . S
H3739 C3748 0.950 . S
H3740 C3750 0.950 . S
H3741 C3752 0.950 . S
H3742 C3754 0.950 . S
H3743 C3755 0.950 . S
C3744 H3736 0.950 . S
C3744 C3745 1.386 . S
C3744 C3746 1.391 . S
C3745 C3744 1.386 . S
C3745 C3749 1.393 . S
C3746 H3738 0.950 . S
C3746 C3744 1.391 . S
C3746 C3747 1.400 . S
C3747 C3746 1.400 . S
C3747 C3748 1.398 . S
C3747 C3753 1.491 . S
C3748 H3739 0.950 . S
C3748 C3747 1.398 . S
C3748 C3749 1.391 . S
C3749 H3737 0.950 . S
C3749 C3745 1.393 . S
C3749 C3748 1.391 . S
C3750 H3740 0.950 . S
C3750 C3751 1.386 . S
C3750 C3752 1.391 . S
C3751 C3750 1.386 . S
C3751 C3755 1.393 . S
C3752 H3741 0.950 . S
C3752 C3750 1.391 . S
C3752 C3753 1.400 . S
C3753 C3747 1.491 . S
C3753 C3752 1.400 . S
C3753 C3754 1.398 . S
C3754 H3742 0.950 . S
C3754 C3753 1.398 . S
C3754 C3755 1.391 . S
C3755 H3743 0.950 . S
C3755 C3751 1.393 . S
C3755 C3754 1.391 . S
H3756 C3764 0.950 . S
H3757 C3769 0.950 . S
H3758 C3766 0.950 . S
H3759 C3768 0.950 . S
H3760 C3770 0.950 . S
H3761 C3772 0.929 1_655 S
H3762 C3774 0.950 . S
H3763 C3775 0.950 . S
C3764 H3756 0.950 . S
C3764 C3765 1.386 . S
C3764 C3766 1.391 . S
C3765 C3764 1.386 . S
C3765 C3769 1.393 . S
C3766 H3758 0.950 . S
C3766 C3764 1.391 . S
C3766 C3767 1.400 . S
C3767 C3766 1.400 . S
C3767 C3768 1.398 . S
C3767 C3773 1.491 . S
C3768 H3759 0.950 . S
C3768 C3767 1.398 . S
C3768 C3769 1.391 . S
C3769 H3757 0.950 . S
C3769 C3765 1.393 . S
C3769 C3768 1.391 . S
C3770 H3760 0.950 . S
C3770 C3771 1.386 1_655 S
C3770 C3772 1.401 1_655 S
C3771 C3770 1.386 1_455 S
C3771 C3775 1.393 . S
C3772 H3761 0.929 1_455 S
C3772 C3770 1.401 1_455 S
C3772 C3773 1.414 . S
C3773 C3767 1.491 . S
C3773 C3772 1.414 . S
C3773 C3774 1.398 . S
C3774 H3762 0.950 . S
C3774 C3773 1.398 . S
C3774 C3775 1.391 . S
C3775 H3763 0.950 . S
C3775 C3771 1.393 . S
C3775 C3774 1.391 . S
H3776 C3784 0.950 . S
H3777 C3789 0.950 . S
H3778 C3786 0.950 . S
H3779 C3788 0.950 . S
H3780 C3790 0.950 . S
H3781 C3792 0.950 . S
H3782 C3794 0.950 . S
H3783 C3795 0.950 . S
C3784 H3776 0.950 . S
C3784 C3785 1.386 . S
C3784 C3786 1.391 . S
C3785 C3784 1.386 . S
C3785 C3789 1.393 . S
C3786 H3778 0.950 . S
C3786 C3784 1.391 . S
C3786 C3787 1.400 . S
C3787 C3786 1.400 . S
C3787 C3788 1.398 . S
C3787 C3793 1.491 . S
C3788 H3779 0.950 . S
C3788 C3787 1.398 . S
C3788 C3789 1.391 . S
C3789 H3777 0.950 . S
C3789 C3785 1.393 . S
C3789 C3788 1.391 . S
C3790 H3780 0.950 . S
C3790 C3791 1.386 . S
C3790 C3792 1.391 . S
C3791 C3790 1.386 . S
C3791 C3795 1.393 . S
C3792 H3781 0.950 . S
C3792 C3790 1.391 . S
C3792 C3793 1.400 . S
C3793 C3787 1.491 . S
C3793 C3792 1.400 . S
C3793 C3794 1.398 . S
C3794 H3782 0.950 . S
C3794 C3793 1.398 . S
C3794 C3795 1.391 . S
C3795 H3783 0.950 . S
C3795 C3791 1.393 . S
C3795 C3794 1.391 . S
H3796 C3804 0.950 . S
H3797 C3809 0.950 . S
H3798 C3806 0.950 . S
H3799 C3808 0.950 . S
H3800 C3810 0.950 . S
H3801 C3812 0.950 . S
H3802 C3814 0.950 . S
H3803 C3815 0.950 . S
C3804 H3796 0.950 . S
C3804 C3805 1.386 . S
C3804 C3806 1.391 . S
C3805 C3804 1.386 . S
C3805 C3809 1.393 . S
C3806 H3798 0.950 . S
C3806 C3804 1.391 . S
C3806 C3807 1.400 . S
C3807 C3806 1.400 . S
C3807 C3808 1.398 . S
C3807 C3813 1.491 . S
C3808 H3799 0.950 . S
C3808 C3807 1.398 . S
C3808 C3809 1.391 . S
C3809 H3797 0.950 . S
C3809 C3805 1.393 . S
C3809 C3808 1.391 . S
C3810 H3800 0.950 . S
C3810 C3811 1.386 . S
C3810 C3812 1.391 . S
C3811 C3810 1.386 . S
C3811 C3815 1.393 . S
C3812 H3801 0.950 . S
C3812 C3810 1.391 . S
C3812 C3813 1.400 . S
C3813 C3807 1.491 . S
C3813 C3812 1.400 . S
C3813 C3814 1.398 . S
C3814 H3802 0.950 . S
C3814 C3813 1.398 . S
C3814 C3815 1.391 . S
C3815 H3803 0.950 . S
C3815 C3811 1.393 . S
C3815 C3814 1.391 . S
H3816 C3824 0.950 . S
H3817 C3829 0.950 . S
H3818 C3826 0.950 . S
H3819 C3828 0.950 . S
H3820 C3830 0.950 . S
H3821 C3832 0.950 . S
H3822 C3834 0.950 . S
H3823 C3835 0.951 1_565 S
C3824 H3816 0.950 . S
C3824 C3825 1.386 . S
C3824 C3826 1.391 . S
C3825 C3824 1.386 . S
C3825 C3829 1.393 . S
C3826 H3818 0.950 . S
C3826 C3824 1.391 . S
C3826 C3827 1.400 . S
C3827 C3826 1.400 . S
C3827 C3828 1.398 . S
C3827 C3833 1.491 . S
C3828 H3819 0.950 . S
C3828 C3827 1.398 . S
C3828 C3829 1.391 . S
C3829 H3817 0.950 . S
C3829 C3825 1.393 . S
C3829 C3828 1.391 . S
C3830 H3820 0.950 . S
C3830 C3831 1.386 . S
C3830 C3832 1.391 . S
C3831 C3830 1.386 . S
C3831 C3835 1.401 . S
C3832 H3821 0.950 . S
C3832 C3830 1.391 . S
C3832 C3833 1.400 . S
C3833 C3827 1.491 . S
C3833 C3832 1.400 . S
C3833 C3834 1.398 . S
C3834 H3822 0.950 . S
C3834 C3833 1.398 . S
C3834 C3835 1.385 . S
C3835 H3823 0.951 1_545 S
C3835 C3831 1.401 . S
C3835 C3834 1.385 . S
H3836 C3844 0.977 . S
H3837 C3849 0.950 . S
H3838 C3846 0.950 1_455 S
H3839 C3848 0.950 . S
H3840 C3850 0.950 . S
H3841 C3852 0.950 . S
H3842 C3854 0.950 . S
H3843 C3855 0.950 . S
C3844 H3836 0.977 . S
C3844 C3845 1.386 . S
C3844 C3846 1.391 . S
C3845 C3844 1.386 . S
C3845 C3849 1.393 . S
C3846 H3838 0.950 1_655 S
C3846 C3844 1.391 . S
C3846 C3847 1.400 . S
C3847 C3846 1.400 . S
C3847 C3848 1.398 . S
C3847 C3853 1.491 . S
C3848 H3839 0.950 . S
C3848 C3847 1.398 . S
C3848 C3849 1.391 . S
C3849 H3837 0.950 . S
C3849 C3845 1.393 . S
C3849 C3848 1.391 . S
C3850 H3840 0.950 . S
C3850 C3851 1.386 . S
C3850 C3852 1.391 . S
C3851 C3850 1.386 . S
C3851 C3855 1.393 1_655 S
C3852 H3841 0.950 . S
C3852 C3850 1.391 . S
C3852 C3853 1.400 . S
C3853 C3847 1.491 . S
C3853 C3852 1.400 . S
C3853 C3854 1.398 1_655 S
C3854 H3842 0.950 . S
C3854 C3853 1.398 1_455 S
C3854 C3855 1.391 . S
C3855 H3843 0.950 . S
C3855 C3851 1.393 1_455 S
C3855 C3854 1.391 . S
H3856 C3864 0.950 . S
H3857 C3869 0.950 . S
H3858 C3866 0.950 . S
H3859 C3868 0.950 . S
H3860 C3870 0.950 . S
H3861 C3872 0.950 . S
H3862 C3874 0.950 . S
H3863 C3875 0.950 . S
C3864 H3856 0.950 . S
C3864 C3865 1.386 . S
C3864 C3866 1.391 . S
C3865 C3864 1.386 . S
C3865 C3869 1.393 . S
C3866 H3858 0.950 . S
C3866 C3864 1.391 . S
C3866 C3867 1.400 . S
C3867 C3866 1.400 . S
C3867 C3868 1.398 . S
C3867 C3873 1.491 . S
C3868 H3859 0.950 . S
C3868 C3867 1.398 . S
C3868 C3869 1.391 . S
C3869 H3857 0.950 . S
C3869 C3865 1.393 . S
C3869 C3868 1.391 . S
C3870 H3860 0.950 . S
C3870 C3871 1.386 . S
C3870 C3872 1.391 . S
C3871 C3870 1.386 . S
C3871 C3875 1.393 . S
C3872 H3861 0.950 . S
C3872 C3870 1.391 . S
C3872 C3873 1.400 . S
C3873 C3867 1.491 . S
C3873 C3872 1.400 . S
C3873 C3874 1.398 . S
C3874 H3862 0.950 . S
C3874 C3873 1.398 . S
C3874 C3875 1.391 . S
C3875 H3863 0.950 . S
C3875 C3871 1.393 . S
C3875 C3874 1.391 . S
H3876 C3884 0.950 . S
H3877 C3889 0.950 . S
H3878 C3886 0.950 . S
H3879 C3888 0.950 . S
H3880 C3890 0.950 . S
H3881 C3892 0.950 . S
H3882 C3894 0.950 . S
H3883 C3895 0.950 . S
C3884 H3876 0.950 . S
C3884 C3885 1.386 . S
C3884 C3886 1.391 . S
C3885 C3884 1.386 . S
C3885 C3889 1.393 . S
C3886 H3878 0.950 . S
C3886 C3884 1.391 . S
C3886 C3887 1.400 . S
C3887 C3886 1.400 . S
C3887 C3888 1.398 . S
C3887 C3893 1.491 . S
C3888 H3879 0.950 . S
C3888 C3887 1.398 . S
C3888 C3889 1.391 . S
C3889 H3877 0.950 . S
C3889 C3885 1.393 . S
C3889 C3888 1.391 . S
C3890 H3880 0.950 . S
C3890 C3891 1.386 . S
C3890 C3892 1.391 . S
C3891 C3890 1.386 . S
C3891 C3895 1.393 . S
C3892 H3881 0.950 . S
C3892 C3890 1.391 . S
C3892 C3893 1.400 . S
C3893 C3887 1.491 . S
C3893 C3892 1.400 . S
C3893 C3894 1.398 . S
C3894 H3882 0.950 . S
C3894 C3893 1.398 . S
C3894 C3895 1.391 . S
C3895 H3883 0.950 . S
C3895 C3891 1.393 . S
C3895 C3894 1.391 . S
H3896 C3904 0.950 . S
H3897 C3909 0.950 . S
H3898 C3906 0.950 . S
H3899 C3908 0.950 . S
H3900 C3910 0.950 . S
H3901 C3912 0.950 . S
H3902 C3914 0.950 . S
H3903 C3915 0.950 . S
C3904 H3896 0.950 . S
C3904 C3905 1.386 . S
C3904 C3906 1.391 . S
C3905 C3904 1.386 . S
C3905 C3909 1.393 . S
C3906 H3898 0.950 . S
C3906 C3904 1.391 . S
C3906 C3907 1.400 . S
C3907 C3906 1.400 . S
C3907 C3908 1.398 . S
C3907 C3913 1.491 . S
C3908 H3899 0.950 . S
C3908 C3907 1.398 . S
C3908 C3909 1.391 . S
C3909 H3897 0.950 . S
C3909 C3905 1.393 . S
C3909 C3908 1.391 . S
C3910 H3900 0.950 . S
C3910 C3911 1.386 . S
C3910 C3912 1.391 . S
C3911 C3910 1.386 . S
C3911 C3915 1.393 . S
C3912 H3901 0.950 . S
C3912 C3910 1.391 . S
C3912 C3913 1.400 . S
C3913 C3907 1.491 . S
C3913 C3912 1.400 . S
C3913 C3914 1.398 . S
C3914 H3902 0.950 . S
C3914 C3913 1.398 . S
C3914 C3915 1.391 . S
C3915 H3903 0.950 . S
C3915 C3911 1.393 . S
C3915 C3914 1.391 . S
H3916 C3924 0.950 . S
H3917 C3929 0.950 . S
H3918 C3926 0.950 . S
H3919 C3928 0.950 . S
H3920 C3930 0.950 . S
H3921 C3932 0.950 . S
H3922 C3934 0.950 . S
H3923 C3935 0.950 . S
C3924 H3916 0.950 . S
C3924 C3925 1.386 . S
C3924 C3926 1.391 . S
C3925 C3924 1.386 . S
C3925 C3929 1.393 . S
C3926 H3918 0.950 . S
C3926 C3924 1.391 . S
C3926 C3927 1.400 . S
C3927 C3926 1.400 . S
C3927 C3928 1.398 . S
C3927 C3933 1.491 . S
C3928 H3919 0.950 . S
C3928 C3927 1.398 . S
C3928 C3929 1.391 . S
C3929 H3917 0.950 . S
C3929 C3925 1.393 . S
C3929 C3928 1.391 . S
C3930 H3920 0.950 . S
C3930 C3931 1.386 . S
C3930 C3932 1.391 . S
C3931 C3930 1.386 . S
C3931 C3935 1.393 . S
C3932 H3921 0.950 . S
C3932 C3930 1.391 . S
C3932 C3933 1.400 . S
C3933 C3927 1.491 . S
C3933 C3932 1.400 . S
C3933 C3934 1.398 . S
C3934 H3922 0.950 . S
C3934 C3933 1.398 . S
C3934 C3935 1.391 . S
C3935 H3923 0.950 . S
C3935 C3931 1.393 . S
C3935 C3934 1.391 . S
H3936 C3944 0.950 . S
H3937 C3949 0.950 . S
H3938 C3946 0.950 . S
H3939 C3948 0.950 . S
H3940 C3950 0.950 . S
H3941 C3952 0.950 . S
H3942 C3954 0.950 . S
H3943 C3955 0.950 . S
C3944 H3936 0.950 . S
C3944 C3945 1.386 . S
C3944 C3946 1.391 . S
C3945 C3944 1.386 . S
C3945 C3949 1.393 . S
C3946 H3938 0.950 . S
C3946 C3944 1.391 . S
C3946 C3947 1.400 . S
C3947 C3946 1.400 . S
C3947 C3948 1.398 . S
C3947 C3953 1.491 . S
C3948 H3939 0.950 . S
C3948 C3947 1.398 . S
C3948 C3949 1.391 . S
C3949 H3937 0.950 . S
C3949 C3945 1.393 . S
C3949 C3948 1.391 . S
C3950 H3940 0.950 . S
C3950 C3951 1.386 . S
C3950 C3952 1.391 . S
C3951 C3950 1.386 . S
C3951 C3955 1.393 . S
C3952 H3941 0.950 . S
C3952 C3950 1.391 . S
C3952 C3953 1.400 . S
C3953 C3947 1.491 . S
C3953 C3952 1.400 . S
C3953 C3954 1.398 . S
C3954 H3942 0.950 . S
C3954 C3953 1.398 . S
C3954 C3955 1.391 . S
C3955 H3943 0.950 . S
C3955 C3951 1.393 . S
C3955 C3954 1.391 . S
H3956 C3964 0.950 . S
H3957 C3969 0.950 . S
H3958 C3966 0.950 . S
H3959 C3968 0.950 . S
H3960 C3970 0.950 . S
H3961 C3972 0.950 . S
H3962 C3974 0.950 . S
H3963 C3975 0.950 . S
C3964 H3956 0.950 . S
C3964 C3965 1.386 . S
C3964 C3966 1.391 . S
C3965 C3964 1.386 . S
C3965 C3969 1.393 . S
C3966 H3958 0.950 . S
C3966 C3964 1.391 . S
C3966 C3967 1.400 . S
C3967 C3966 1.400 . S
C3967 C3968 1.398 . S
C3967 C3973 1.491 . S
C3968 H3959 0.950 . S
C3968 C3967 1.398 . S
C3968 C3969 1.391 . S
C3969 H3957 0.950 . S
C3969 C3965 1.393 . S
C3969 C3968 1.391 . S
C3970 H3960 0.950 . S
C3970 C3971 1.386 . S
C3970 C3972 1.391 . S
C3971 C3970 1.386 . S
C3971 C3975 1.393 . S
C3972 H3961 0.950 . S
C3972 C3970 1.391 . S
C3972 C3973 1.400 . S
C3973 C3967 1.491 . S
C3973 C3972 1.400 . S
C3973 C3974 1.398 . S
C3974 H3962 0.950 . S
C3974 C3973 1.398 . S
C3974 C3975 1.391 . S
C3975 H3963 0.950 . S
C3975 C3971 1.393 . S
C3975 C3974 1.391 . S
H3976 C3984 0.950 . S
H3977 C3989 0.950 . S
H3978 C3986 0.950 . S
H3979 C3988 0.950 . S
H3980 C3990 0.950 . S
H3981 C3992 0.950 . S
H3982 C3994 0.950 . S
H3983 C3995 0.950 . S
C3984 H3976 0.950 . S
C3984 C3985 1.386 . S
C3984 C3986 1.391 . S
C3985 C3984 1.386 . S
C3985 C3989 1.393 . S
C3986 H3978 0.950 . S
C3986 C3984 1.391 . S
C3986 C3987 1.400 . S
C3987 C3986 1.400 . S
C3987 C3988 1.398 . S
C3987 C3993 1.491 . S
C3988 H3979 0.950 . S
C3988 C3987 1.398 . S
C3988 C3989 1.391 . S
C3989 H3977 0.950 . S
C3989 C3985 1.393 . S
C3989 C3988 1.391 . S
C3990 H3980 0.950 . S
C3990 C3991 1.386 . S
C3990 C3992 1.391 . S
C3991 C3990 1.386 . S
C3991 C3995 1.393 . S
C3992 H3981 0.950 . S
C3992 C3990 1.391 . S
C3992 C3993 1.400 . S
C3993 C3987 1.491 . S
C3993 C3992 1.400 . S
C3993 C3994 1.398 . S
C3994 H3982 0.950 . S
C3994 C3993 1.398 . S
C3994 C3995 1.391 . S
C3995 H3983 0.950 . S
C3995 C3991 1.393 . S
C3995 C3994 1.391 . S
H3996 C4004 0.950 . S
H3997 C4009 0.950 . S
H3998 C4006 0.950 . S
H3999 C4008 0.950 . S
H4000 C4010 0.950 . S
H4001 C4012 0.950 . S
H4002 C4014 0.950 . S
H4003 C4015 0.950 . S
C4004 H3996 0.950 . S
C4004 C4005 1.386 . S
C4004 C4006 1.391 . S
C4005 C4004 1.386 . S
C4005 C4009 1.393 . S
C4006 H3998 0.950 . S
C4006 C4004 1.391 . S
C4006 C4007 1.400 . S
C4007 C4006 1.400 . S
C4007 C4008 1.398 . S
C4007 C4013 1.491 . S
C4008 H3999 0.950 . S
C4008 C4007 1.398 . S
C4008 C4009 1.391 . S
C4009 H3997 0.950 . S
C4009 C4005 1.393 . S
C4009 C4008 1.391 . S
C4010 H4000 0.950 . S
C4010 C4011 1.386 . S
C4010 C4012 1.391 . S
C4011 C4010 1.386 . S
C4011 C4015 1.393 . S
C4012 H4001 0.950 . S
C4012 C4010 1.391 . S
C4012 C4013 1.400 . S
C4013 C4007 1.491 . S
C4013 C4012 1.400 . S
C4013 C4014 1.398 . S
C4014 H4002 0.950 . S
C4014 C4013 1.398 . S
C4014 C4015 1.391 . S
C4015 H4003 0.950 . S
C4015 C4011 1.393 . S
C4015 C4014 1.391 . S
H4016 C4024 0.950 . S
H4017 C4029 0.950 . S
H4018 C4026 0.950 . S
H4019 C4028 0.950 . S
H4020 C4030 0.950 . S
H4021 C4032 0.950 . S
H4022 C4034 0.950 . S
H4023 C4035 0.950 . S
C4024 H4016 0.950 . S
C4024 C4025 1.386 . S
C4024 C4026 1.391 . S
C4025 C4024 1.386 . S
C4025 C4029 1.393 . S
C4026 H4018 0.950 . S
C4026 C4024 1.391 . S
C4026 C4027 1.400 . S
C4027 C4026 1.400 . S
C4027 C4028 1.398 . S
C4027 C4033 1.491 . S
C4028 H4019 0.950 . S
C4028 C4027 1.398 . S
C4028 C4029 1.391 . S
C4029 H4017 0.950 . S
C4029 C4025 1.393 . S
C4029 C4028 1.391 . S
C4030 H4020 0.950 . S
C4030 C4031 1.386 . S
C4030 C4032 1.391 . S
C4031 C4030 1.386 . S
C4031 C4035 1.393 . S
C4032 H4021 0.950 . S
C4032 C4030 1.391 . S
C4032 C4033 1.400 . S
C4033 C4027 1.491 . S
C4033 C4032 1.400 . S
C4033 C4034 1.398 . S
C4034 H4022 0.950 . S
C4034 C4033 1.398 . S
C4034 C4035 1.391 . S
C4035 H4023 0.950 . S
C4035 C4031 1.393 . S
C4035 C4034 1.391 . S
H4036 C4044 0.950 . S
H4037 C4049 0.950 . S
H4038 C4046 0.950 . S
H4039 C4048 0.950 . S
H4040 C4050 0.950 . S
H4041 C4052 0.950 . S
H4042 C4054 0.950 . S
H4043 C4055 0.950 . S
C4044 H4036 0.950 . S
C4044 C4045 1.386 . S
C4044 C4046 1.391 . S
C4045 C4044 1.386 . S
C4045 C4049 1.393 . S
C4046 H4038 0.950 . S
C4046 C4044 1.391 . S
C4046 C4047 1.400 . S
C4047 C4046 1.400 . S
C4047 C4048 1.398 . S
C4047 C4053 1.491 . S
C4048 H4039 0.950 . S
C4048 C4047 1.398 . S
C4048 C4049 1.391 . S
C4049 H4037 0.950 . S
C4049 C4045 1.393 . S
C4049 C4048 1.391 . S
C4050 H4040 0.950 . S
C4050 C4051 1.386 . S
C4050 C4052 1.391 . S
C4051 C4050 1.386 . S
C4051 C4055 1.393 . S
C4052 H4041 0.950 . S
C4052 C4050 1.391 . S
C4052 C4053 1.400 . S
C4053 C4047 1.491 . S
C4053 C4052 1.400 . S
C4053 C4054 1.398 . S
C4054 H4042 0.950 . S
C4054 C4053 1.398 . S
C4054 C4055 1.391 . S
C4055 H4043 0.950 . S
C4055 C4051 1.393 . S
C4055 C4054 1.391 . S
H4056 C4064 0.950 . S
H4057 C4069 0.950 . S
H4058 C4066 0.950 . S
H4059 C4068 0.950 . S
H4060 C4070 0.950 . S
H4061 C4072 0.950 . S
H4062 C4074 0.950 . S
H4063 C4075 0.950 . S
C4064 H4056 0.950 . S
C4064 C4065 1.386 . S
C4064 C4066 1.391 . S
C4065 C4064 1.386 . S
C4065 C4069 1.393 . S
C4066 H4058 0.950 . S
C4066 C4064 1.391 . S
C4066 C4067 1.400 . S
C4067 C4066 1.400 . S
C4067 C4068 1.398 . S
C4067 C4073 1.491 . S
C4068 H4059 0.950 . S
C4068 C4067 1.398 . S
C4068 C4069 1.391 . S
C4069 H4057 0.950 . S
C4069 C4065 1.393 . S
C4069 C4068 1.391 . S
C4070 H4060 0.950 . S
C4070 C4071 1.386 . S
C4070 C4072 1.391 . S
C4071 C4070 1.386 . S
C4071 C4075 1.393 . S
C4072 H4061 0.950 . S
C4072 C4070 1.391 . S
C4072 C4073 1.400 . S
C4073 C4067 1.491 . S
C4073 C4072 1.400 . S
C4073 C4074 1.398 . S
C4074 H4062 0.950 . S
C4074 C4073 1.398 . S
C4074 C4075 1.391 . S
C4075 H4063 0.950 . S
C4075 C4071 1.393 . S
C4075 C4074 1.391 . S
H4076 C4084 0.950 . S
H4077 C4089 0.950 . S
H4078 C4086 0.950 . S
H4079 C4088 0.950 . S
H4080 C4090 0.950 . S
H4081 C4092 0.950 . S
H4082 C4094 0.950 . S
H4083 C4095 0.950 . S
C4084 H4076 0.950 . S
C4084 C4085 1.386 . S
C4084 C4086 1.391 . S
C4085 C4084 1.386 . S
C4085 C4089 1.393 . S
C4086 H4078 0.950 . S
C4086 C4084 1.391 . S
C4086 C4087 1.400 . S
C4087 C4086 1.400 . S
C4087 C4088 1.398 . S
C4087 C4093 1.491 . S
C4088 H4079 0.950 . S
C4088 C4087 1.398 . S
C4088 C4089 1.391 . S
C4089 H4077 0.950 . S
C4089 C4085 1.393 . S
C4089 C4088 1.391 . S
C4090 H4080 0.950 . S
C4090 C4091 1.386 . S
C4090 C4092 1.391 . S
C4091 C4090 1.386 . S
C4091 C4095 1.393 . S
C4092 H4081 0.950 . S
C4092 C4090 1.391 . S
C4092 C4093 1.400 . S
C4093 C4087 1.491 . S
C4093 C4092 1.400 . S
C4093 C4094 1.398 . S
C4094 H4082 0.950 . S
C4094 C4093 1.398 . S
C4094 C4095 1.391 . S
C4095 H4083 0.950 . S
C4095 C4091 1.393 . S
C4095 C4094 1.391 . S
H4096 C4104 0.950 . S
H4097 C4109 0.950 . S
H4098 C4106 0.950 . S
H4099 C4108 0.950 . S
H4100 C4110 0.950 . S
H4101 C4112 0.950 . S
H4102 C4114 0.950 . S
H4103 C4115 0.950 . S
C4104 H4096 0.950 . S
C4104 C4105 1.386 . S
C4104 C4106 1.391 . S
C4105 C4104 1.386 . S
C4105 C4109 1.393 . S
C4106 H4098 0.950 . S
C4106 C4104 1.391 . S
C4106 C4107 1.400 . S
C4107 C4106 1.400 . S
C4107 C4108 1.398 . S
C4107 C4113 1.491 . S
C4108 H4099 0.950 . S
C4108 C4107 1.398 . S
C4108 C4109 1.391 . S
C4109 H4097 0.950 . S
C4109 C4105 1.393 . S
C4109 C4108 1.391 . S
C4110 H4100 0.950 . S
C4110 C4111 1.386 . S
C4110 C4112 1.391 . S
C4111 C4110 1.386 . S
C4111 C4115 1.393 . S
C4112 H4101 0.950 . S
C4112 C4110 1.391 . S
C4112 C4113 1.400 . S
C4113 C4107 1.491 . S
C4113 C4112 1.400 . S
C4113 C4114 1.398 . S
C4114 H4102 0.950 . S
C4114 C4113 1.398 . S
C4114 C4115 1.391 . S
C4115 H4103 0.950 . S
C4115 C4111 1.393 . S
C4115 C4114 1.391 . S
H4116 C4124 0.950 . S
H4117 C4129 0.950 . S
H4118 C4126 0.950 . S
H4119 C4128 0.950 . S
H4120 C4130 0.950 . S
H4121 C4132 0.950 . S
H4122 C4134 0.950 . S
H4123 C4135 0.950 . S
C4124 H4116 0.950 . S
C4124 C4125 1.386 . S
C4124 C4126 1.391 . S
C4125 C4124 1.386 . S
C4125 C4129 1.393 . S
C4126 H4118 0.950 . S
C4126 C4124 1.391 . S
C4126 C4127 1.400 . S
C4127 C4126 1.400 . S
C4127 C4128 1.398 . S
C4127 C4133 1.491 . S
C4128 H4119 0.950 . S
C4128 C4127 1.398 . S
C4128 C4129 1.391 . S
C4129 H4117 0.950 . S
C4129 C4125 1.393 . S
C4129 C4128 1.391 . S
C4130 H4120 0.950 . S
C4130 C4131 1.386 . S
C4130 C4132 1.391 . S
C4131 C4130 1.386 . S
C4131 C4135 1.393 . S
C4132 H4121 0.950 . S
C4132 C4130 1.391 . S
C4132 C4133 1.400 . S
C4133 C4127 1.491 . S
C4133 C4132 1.400 . S
C4133 C4134 1.398 . S
C4134 H4122 0.950 . S
C4134 C4133 1.398 . S
C4134 C4135 1.391 . S
C4135 H4123 0.950 . S
C4135 C4131 1.393 . S
C4135 C4134 1.391 . S
H4136 C4144 0.950 . S
H4137 C4149 0.950 . S
H4138 C4146 0.950 . S
H4139 C4148 0.950 . S
H4140 C4150 0.950 . S
H4141 C4152 0.950 . S
H4142 C4154 0.950 . S
H4143 C4155 0.950 . S
C4144 H4136 0.950 . S
C4144 C4145 1.386 . S
C4144 C4146 1.391 . S
C4145 C4144 1.386 . S
C4145 C4149 1.393 . S
C4146 H4138 0.950 . S
C4146 C4144 1.391 . S
C4146 C4147 1.400 . S
C4147 C4146 1.400 . S
C4147 C4148 1.398 . S
C4147 C4153 1.491 . S
C4148 H4139 0.950 . S
C4148 C4147 1.398 . S
C4148 C4149 1.391 . S
C4149 H4137 0.950 . S
C4149 C4145 1.393 . S
C4149 C4148 1.391 . S
C4150 H4140 0.950 . S
C4150 C4151 1.386 . S
C4150 C4152 1.391 . S
C4151 C4150 1.386 . S
C4151 C4155 1.393 . S
C4152 H4141 0.950 . S
C4152 C4150 1.391 . S
C4152 C4153 1.400 . S
C4153 C4147 1.491 . S
C4153 C4152 1.400 . S
C4153 C4154 1.398 . S
C4154 H4142 0.950 . S
C4154 C4153 1.398 . S
C4154 C4155 1.391 . S
C4155 H4143 0.950 . S
C4155 C4151 1.393 . S
C4155 C4154 1.391 . S
H4156 C4164 0.950 . S
H4157 C4169 0.950 . S
H4158 C4166 0.950 . S
H4159 C4168 0.950 . S
H4160 C4170 0.950 . S
H4161 C4172 0.950 . S
H4162 C4174 0.950 . S
H4163 C4175 0.950 . S
C4164 H4156 0.950 . S
C4164 C4165 1.386 . S
C4164 C4166 1.391 . S
C4165 C4164 1.386 . S
C4165 C4169 1.393 . S
C4166 H4158 0.950 . S
C4166 C4164 1.391 . S
C4166 C4167 1.400 . S
C4167 C4166 1.400 . S
C4167 C4168 1.398 . S
C4167 C4173 1.491 . S
C4168 H4159 0.950 . S
C4168 C4167 1.398 . S
C4168 C4169 1.391 . S
C4169 H4157 0.950 . S
C4169 C4165 1.393 . S
C4169 C4168 1.391 . S
C4170 H4160 0.950 . S
C4170 C4171 1.386 . S
C4170 C4172 1.391 . S
C4171 C4170 1.386 . S
C4171 C4175 1.393 . S
C4172 H4161 0.950 . S
C4172 C4170 1.391 . S
C4172 C4173 1.400 . S
C4173 C4167 1.491 . S
C4173 C4172 1.400 . S
C4173 C4174 1.398 . S
C4174 H4162 0.950 . S
C4174 C4173 1.398 . S
C4174 C4175 1.391 . S
C4175 H4163 0.950 . S
C4175 C4171 1.393 . S
C4175 C4174 1.391 . S
H4176 C4184 0.950 . S
H4177 C4189 0.950 . S
H4178 C4186 0.950 . S
H4179 C4188 0.950 . S
H4180 C4190 0.950 . S
H4181 C4192 0.950 . S
H4182 C4194 0.950 . S
H4183 C4195 0.950 . S
C4184 H4176 0.950 . S
C4184 C4185 1.386 . S
C4184 C4186 1.391 . S
C4185 C4184 1.386 . S
C4185 C4189 1.393 . S
C4186 H4178 0.950 . S
C4186 C4184 1.391 . S
C4186 C4187 1.400 . S
C4187 C4186 1.400 . S
C4187 C4188 1.398 . S
C4187 C4193 1.491 . S
C4188 H4179 0.950 . S
C4188 C4187 1.398 . S
C4188 C4189 1.391 . S
C4189 H4177 0.950 . S
C4189 C4185 1.393 . S
C4189 C4188 1.391 . S
C4190 H4180 0.950 . S
C4190 C4191 1.386 . S
C4190 C4192 1.391 . S
C4191 C4190 1.386 . S
C4191 C4195 1.393 . S
C4192 H4181 0.950 . S
C4192 C4190 1.391 . S
C4192 C4193 1.400 . S
C4193 C4187 1.491 . S
C4193 C4192 1.400 . S
C4193 C4194 1.398 . S
C4194 H4182 0.950 . S
C4194 C4193 1.398 . S
C4194 C4195 1.391 . S
C4195 H4183 0.950 . S
C4195 C4191 1.393 . S
C4195 C4194 1.391 . S
H4196 C4204 0.950 . S
H4197 C4209 0.950 . S
H4198 C4206 0.950 . S
H4199 C4208 0.950 . S
H4200 C4210 0.950 . S
H4201 C4212 0.950 . S
H4202 C4214 0.950 . S
H4203 C4215 0.950 . S
C4204 H4196 0.950 . S
C4204 C4205 1.386 . S
C4204 C4206 1.391 . S
C4205 C4204 1.386 . S
C4205 C4209 1.393 . S
C4206 H4198 0.950 . S
C4206 C4204 1.391 . S
C4206 C4207 1.400 . S
C4207 C4206 1.400 . S
C4207 C4208 1.398 . S
C4207 C4213 1.491 . S
C4208 H4199 0.950 . S
C4208 C4207 1.398 . S
C4208 C4209 1.391 . S
C4209 H4197 0.950 . S
C4209 C4205 1.393 . S
C4209 C4208 1.391 . S
C4210 H4200 0.950 . S
C4210 C4211 1.386 . S
C4210 C4212 1.391 . S
C4211 C4210 1.386 . S
C4211 C4215 1.393 . S
C4212 H4201 0.950 . S
C4212 C4210 1.391 . S
C4212 C4213 1.400 . S
C4213 C4207 1.491 . S
C4213 C4212 1.400 . S
C4213 C4214 1.398 . S
C4214 H4202 0.950 . S
C4214 C4213 1.398 . S
C4214 C4215 1.391 . S
C4215 H4203 0.950 . S
C4215 C4211 1.393 . S
C4215 C4214 1.391 . S
H4216 C4224 0.950 . S
H4217 C4229 0.950 . S
H4218 C4226 0.950 . S
H4219 C4228 0.950 . S
H4220 C4230 0.950 . S
H4221 C4232 0.950 . S
H4222 C4234 0.950 . S
H4223 C4235 0.950 . S
C4224 H4216 0.950 . S
C4224 C4225 1.386 . S
C4224 C4226 1.391 . S
C4225 C4224 1.386 . S
C4225 C4229 1.393 . S
C4226 H4218 0.950 . S
C4226 C4224 1.391 . S
C4226 C4227 1.400 . S
C4227 C4226 1.400 . S
C4227 C4228 1.398 . S
C4227 C4233 1.491 . S
C4228 H4219 0.950 . S
C4228 C4227 1.398 . S
C4228 C4229 1.391 . S
C4229 H4217 0.950 . S
C4229 C4225 1.393 . S
C4229 C4228 1.391 . S
C4230 H4220 0.950 . S
C4230 C4231 1.386 . S
C4230 C4232 1.391 . S
C4231 C4230 1.386 . S
C4231 C4235 1.393 . S
C4232 H4221 0.950 . S
C4232 C4230 1.391 . S
C4232 C4233 1.400 . S
C4233 C4227 1.491 . S
C4233 C4232 1.400 . S
C4233 C4234 1.398 . S
C4234 H4222 0.950 . S
C4234 C4233 1.398 . S
C4234 C4235 1.391 . S
C4235 H4223 0.950 . S
C4235 C4231 1.393 . S
C4235 C4234 1.391 . S
H4236 C4244 0.950 . S
H4237 C4249 0.950 . S
H4238 C4246 0.950 . S
H4239 C4248 0.950 . S
H4240 C4250 0.950 . S
H4241 C4252 0.950 . S
H4242 C4254 0.950 . S
H4243 C4255 0.950 . S
C4244 H4236 0.950 . S
C4244 C4245 1.386 . S
C4244 C4246 1.391 . S
C4245 C4244 1.386 . S
C4245 C4249 1.393 . S
C4246 H4238 0.950 . S
C4246 C4244 1.391 . S
C4246 C4247 1.400 . S
C4247 C4246 1.400 . S
C4247 C4248 1.398 . S
C4247 C4253 1.491 . S
C4248 H4239 0.950 . S
C4248 C4247 1.398 . S
C4248 C4249 1.391 . S
C4249 H4237 0.950 . S
C4249 C4245 1.393 . S
C4249 C4248 1.391 . S
C4250 H4240 0.950 . S
C4250 C4251 1.386 . S
C4250 C4252 1.391 . S
C4251 C4250 1.386 . S
C4251 C4255 1.393 . S
C4252 H4241 0.950 . S
C4252 C4250 1.391 . S
C4252 C4253 1.400 . S
C4253 C4247 1.491 . S
C4253 C4252 1.400 . S
C4253 C4254 1.398 . S
C4254 H4242 0.950 . S
C4254 C4253 1.398 . S
C4254 C4255 1.391 . S
C4255 H4243 0.950 . S
C4255 C4251 1.393 . S
C4255 C4254 1.391 . S
H4256 C4264 0.950 . S
H4257 C4269 0.950 . S
H4258 C4266 0.950 . S
H4259 C4268 0.950 . S
H4260 C4270 0.950 . S
H4261 C4272 0.950 . S
H4262 C4274 0.950 . S
H4263 C4275 0.950 . S
C4264 H4256 0.950 . S
C4264 C4265 1.386 . S
C4264 C4266 1.391 . S
C4265 C4264 1.386 . S
C4265 C4269 1.393 . S
C4266 H4258 0.950 . S
C4266 C4264 1.391 . S
C4266 C4267 1.400 . S
C4267 C4266 1.400 . S
C4267 C4268 1.398 . S
C4267 C4273 1.491 . S
C4268 H4259 0.950 . S
C4268 C4267 1.398 . S
C4268 C4269 1.391 . S
C4269 H4257 0.950 . S
C4269 C4265 1.393 . S
C4269 C4268 1.391 . S
C4270 H4260 0.950 . S
C4270 C4271 1.386 . S
C4270 C4272 1.391 . S
C4271 C4270 1.386 . S
C4271 C4275 1.393 . S
C4272 H4261 0.950 . S
C4272 C4270 1.391 . S
C4272 C4273 1.400 . S
C4273 C4267 1.491 . S
C4273 C4272 1.400 . S
C4273 C4274 1.398 . S
C4274 H4262 0.950 . S
C4274 C4273 1.398 . S
C4274 C4275 1.391 . S
C4275 H4263 0.950 . S
C4275 C4271 1.393 . S
C4275 C4274 1.391 . S
H4276 C4284 0.950 . S
H4277 C4289 0.950 . S
H4278 C4286 0.950 . S
H4279 C4288 0.950 . S
H4280 C4290 0.950 . S
H4281 C4292 0.950 . S
H4282 C4294 0.950 . S
H4283 C4295 0.950 . S
C4284 H4276 0.950 . S
C4284 C4285 1.386 . S
C4284 C4286 1.391 . S
C4285 C4284 1.386 . S
C4285 C4289 1.393 . S
C4286 H4278 0.950 . S
C4286 C4284 1.391 . S
C4286 C4287 1.400 . S
C4287 C4286 1.400 . S
C4287 C4288 1.398 . S
C4287 C4293 1.491 . S
C4288 H4279 0.950 . S
C4288 C4287 1.398 . S
C4288 C4289 1.391 . S
C4289 H4277 0.950 . S
C4289 C4285 1.393 . S
C4289 C4288 1.391 . S
C4290 H4280 0.950 . S
C4290 C4291 1.386 . S
C4290 C4292 1.391 . S
C4291 C4290 1.386 . S
C4291 C4295 1.393 . S
C4292 H4281 0.950 . S
C4292 C4290 1.391 . S
C4292 C4293 1.400 . S
C4293 C4287 1.491 . S
C4293 C4292 1.400 . S
C4293 C4294 1.398 . S
C4294 H4282 0.950 . S
C4294 C4293 1.398 . S
C4294 C4295 1.391 . S
C4295 H4283 0.950 . S
C4295 C4291 1.393 . S
C4295 C4294 1.391 . S
H4296 C4304 0.950 . S
H4297 C4309 0.950 . S
H4298 C4306 0.950 . S
H4299 C4308 0.950 . S
H4300 C4310 0.950 . S
H4301 C4312 0.950 . S
H4302 C4314 0.950 . S
H4303 C4315 0.950 . S
C4304 H4296 0.950 . S
C4304 C4305 1.386 . S
C4304 C4306 1.391 . S
C4305 C4304 1.386 . S
C4305 C4309 1.393 . S
C4306 H4298 0.950 . S
C4306 C4304 1.391 . S
C4306 C4307 1.400 . S
C4307 C4306 1.400 . S
C4307 C4308 1.398 . S
C4307 C4313 1.491 . S
C4308 H4299 0.950 . S
C4308 C4307 1.398 . S
C4308 C4309 1.391 . S
C4309 H4297 0.950 . S
C4309 C4305 1.393 . S
C4309 C4308 1.391 . S
C4310 H4300 0.950 . S
C4310 C4311 1.386 . S
C4310 C4312 1.391 . S
C4311 C4310 1.386 . S
C4311 C4315 1.393 . S
C4312 H4301 0.950 . S
C4312 C4310 1.391 . S
C4312 C4313 1.400 . S
C4313 C4307 1.491 . S
C4313 C4312 1.400 . S
C4313 C4314 1.398 . S
C4314 H4302 0.950 . S
C4314 C4313 1.398 . S
C4314 C4315 1.391 . S
C4315 H4303 0.950 . S
C4315 C4311 1.393 . S
C4315 C4314 1.391 . S
H4316 C4324 0.950 . S
H4317 C4329 0.950 . S
H4318 C4326 0.950 . S
H4319 C4328 0.950 . S
H4320 C4330 0.950 . S
H4321 C4332 0.950 . S
H4322 C4334 0.950 . S
H4323 C4335 0.950 . S
C4324 H4316 0.950 . S
C4324 C4325 1.386 . S
C4324 C4326 1.391 . S
C4325 C4324 1.386 . S
C4325 C4329 1.393 . S
C4326 H4318 0.950 . S
C4326 C4324 1.391 . S
C4326 C4327 1.400 . S
C4327 C4326 1.400 . S
C4327 C4328 1.398 . S
C4327 C4333 1.491 . S
C4328 H4319 0.950 . S
C4328 C4327 1.398 . S
C4328 C4329 1.391 . S
C4329 H4317 0.950 . S
C4329 C4325 1.393 . S
C4329 C4328 1.391 . S
C4330 H4320 0.950 . S
C4330 C4331 1.386 . S
C4330 C4332 1.391 . S
C4331 C4330 1.386 . S
C4331 C4335 1.393 . S
C4332 H4321 0.950 . S
C4332 C4330 1.391 . S
C4332 C4333 1.400 . S
C4333 C4327 1.491 . S
C4333 C4332 1.400 . S
C4333 C4334 1.398 . S
C4334 H4322 0.950 . S
C4334 C4333 1.398 . S
C4334 C4335 1.391 . S
C4335 H4323 0.950 . S
C4335 C4331 1.393 . S
C4335 C4334 1.391 . S
H4336 C4344 0.950 . S
H4337 C4349 0.950 . S
H4338 C4346 0.950 . S
H4339 C4348 0.950 . S
H4340 C4350 0.950 . S
H4341 C4352 0.950 . S
H4342 C4354 0.950 . S
H4343 C4355 0.950 . S
C4344 H4336 0.950 . S
C4344 C4345 1.386 . S
C4344 C4346 1.391 . S
C4345 C4344 1.386 . S
C4345 C4349 1.393 . S
C4346 H4338 0.950 . S
C4346 C4344 1.391 . S
C4346 C4347 1.400 . S
C4347 C4346 1.400 . S
C4347 C4348 1.398 . S
C4347 C4353 1.491 . S
C4348 H4339 0.950 . S
C4348 C4347 1.398 . S
C4348 C4349 1.391 . S
C4349 H4337 0.950 . S
C4349 C4345 1.393 . S
C4349 C4348 1.391 . S
C4350 H4340 0.950 . S
C4350 C4351 1.386 . S
C4350 C4352 1.391 . S
C4351 C4350 1.386 . S
C4351 C4355 1.393 . S
C4352 H4341 0.950 . S
C4352 C4350 1.391 . S
C4352 C4353 1.400 . S
C4353 C4347 1.491 . S
C4353 C4352 1.400 . S
C4353 C4354 1.398 . S
C4354 H4342 0.950 . S
C4354 C4353 1.398 . S
C4354 C4355 1.391 . S
C4355 H4343 0.950 . S
C4355 C4351 1.393 . S
C4355 C4354 1.391 . S
H4356 C4364 0.950 . S
H4357 C4369 0.950 . S
H4358 C4366 0.950 . S
H4359 C4368 0.950 . S
H4360 C4370 0.950 . S
H4361 C4372 0.950 . S
H4362 C4374 0.950 . S
H4363 C4375 0.950 . S
C4364 H4356 0.950 . S
C4364 C4365 1.386 . S
C4364 C4366 1.391 . S
C4365 C4364 1.386 . S
C4365 C4369 1.393 . S
C4366 H4358 0.950 . S
C4366 C4364 1.391 . S
C4366 C4367 1.400 . S
C4367 C4366 1.400 . S
C4367 C4368 1.398 . S
C4367 C4373 1.491 . S
C4368 H4359 0.950 . S
C4368 C4367 1.398 . S
C4368 C4369 1.391 . S
C4369 H4357 0.950 . S
C4369 C4365 1.393 . S
C4369 C4368 1.391 . S
C4370 H4360 0.950 . S
C4370 C4371 1.386 . S
C4370 C4372 1.391 . S
C4371 C4370 1.386 . S
C4371 C4375 1.393 . S
C4372 H4361 0.950 . S
C4372 C4370 1.391 . S
C4372 C4373 1.400 . S
C4373 C4367 1.491 . S
C4373 C4372 1.400 . S
C4373 C4374 1.398 . S
C4374 H4362 0.950 . S
C4374 C4373 1.398 . S
C4374 C4375 1.391 . S
C4375 H4363 0.950 . S
C4375 C4371 1.393 . S
C4375 C4374 1.391 . S
H4376 C4384 0.950 . S
H4377 C4389 0.950 . S
H4378 C4386 0.950 . S
H4379 C4388 0.950 . S
H4380 C4390 0.950 . S
H4381 C4392 0.950 . S
H4382 C4394 0.950 . S
H4383 C4395 0.950 . S
C4384 H4376 0.950 . S
C4384 C4385 1.386 . S
C4384 C4386 1.391 . S
C4385 C4384 1.386 . S
C4385 C4389 1.393 . S
C4386 H4378 0.950 . S
C4386 C4384 1.391 . S
C4386 C4387 1.400 . S
C4387 C4386 1.400 . S
C4387 C4388 1.398 . S
C4387 C4393 1.491 . S
C4388 H4379 0.950 . S
C4388 C4387 1.398 . S
C4388 C4389 1.391 . S
C4389 H4377 0.950 . S
C4389 C4385 1.393 . S
C4389 C4388 1.391 . S
C4390 H4380 0.950 . S
C4390 C4391 1.386 . S
C4390 C4392 1.391 . S
C4391 C4390 1.386 . S
C4391 C4395 1.393 . S
C4392 H4381 0.950 . S
C4392 C4390 1.391 . S
C4392 C4393 1.400 . S
C4393 C4387 1.491 . S
C4393 C4392 1.400 . S
C4393 C4394 1.398 . S
C4394 H4382 0.950 . S
C4394 C4393 1.398 . S
C4394 C4395 1.391 . S
C4395 H4383 0.950 . S
C4395 C4391 1.393 . S
C4395 C4394 1.391 . S
H4396 C4404 0.950 . S
H4397 C4409 0.950 . S
H4398 C4406 0.950 . S
H4399 C4408 0.950 . S
H4400 C4410 0.950 . S
H4401 C4412 0.950 . S
H4402 C4414 0.950 . S
H4403 C4415 0.950 . S
C4404 H4396 0.950 . S
C4404 C4405 1.386 . S
C4404 C4406 1.391 . S
C4405 C4404 1.386 . S
C4405 C4409 1.393 . S
C4406 H4398 0.950 . S
C4406 C4404 1.391 . S
C4406 C4407 1.400 . S
C4407 C4406 1.400 . S
C4407 C4408 1.398 . S
C4407 C4413 1.491 . S
C4408 H4399 0.950 . S
C4408 C4407 1.398 . S
C4408 C4409 1.391 . S
C4409 H4397 0.950 . S
C4409 C4405 1.393 . S
C4409 C4408 1.391 . S
C4410 H4400 0.950 . S
C4410 C4411 1.386 . S
C4410 C4412 1.391 . S
C4411 C4410 1.386 . S
C4411 C4415 1.393 . S
C4412 H4401 0.950 . S
C4412 C4410 1.391 . S
C4412 C4413 1.400 . S
C4413 C4407 1.491 . S
C4413 C4412 1.400 . S
C4413 C4414 1.398 . S
C4414 H4402 0.950 . S
C4414 C4413 1.398 . S
C4414 C4415 1.391 . S
C4415 H4403 0.950 . S
C4415 C4411 1.393 . S
C4415 C4414 1.391 . S
H4416 C4424 0.950 . S
H4417 C4429 0.950 . S
H4418 C4426 0.950 . S
H4419 C4428 0.950 . S
H4420 C4430 0.950 . S
H4421 C4432 0.950 . S
H4422 C4434 0.950 . S
H4423 C4435 0.950 . S
C4424 H4416 0.950 . S
C4424 C4425 1.386 . S
C4424 C4426 1.391 . S
C4425 C4424 1.386 . S
C4425 C4429 1.393 . S
C4426 H4418 0.950 . S
C4426 C4424 1.391 . S
C4426 C4427 1.400 . S
C4427 C4426 1.400 . S
C4427 C4428 1.398 . S
C4427 C4433 1.491 . S
C4428 H4419 0.950 . S
C4428 C4427 1.398 . S
C4428 C4429 1.391 . S
C4429 H4417 0.950 . S
C4429 C4425 1.393 . S
C4429 C4428 1.391 . S
C4430 H4420 0.950 . S
C4430 C4431 1.386 . S
C4430 C4432 1.391 . S
C4431 C4430 1.386 . S
C4431 C4435 1.393 . S
C4432 H4421 0.950 . S
C4432 C4430 1.391 . S
C4432 C4433 1.400 . S
C4433 C4427 1.491 . S
C4433 C4432 1.400 . S
C4433 C4434 1.398 . S
C4434 H4422 0.950 . S
C4434 C4433 1.398 . S
C4434 C4435 1.391 . S
C4435 H4423 0.950 . S
C4435 C4431 1.393 . S
C4435 C4434 1.391 . S
H4436 C4444 0.950 . S
H4437 C4449 0.950 . S
H4438 C4446 0.950 . S
H4439 C4448 0.950 . S
H4440 C4450 0.950 . S
H4441 C4452 0.950 . S
H4442 C4454 0.950 . S
H4443 C4455 0.950 . S
C4444 H4436 0.950 . S
C4444 C4445 1.386 . S
C4444 C4446 1.391 . S
C4445 C4444 1.386 . S
C4445 C4449 1.393 . S
C4446 H4438 0.950 . S
C4446 C4444 1.391 . S
C4446 C4447 1.400 . S
C4447 C4446 1.400 . S
C4447 C4448 1.398 . S
C4447 C4453 1.491 . S
C4448 H4439 0.950 . S
C4448 C4447 1.398 . S
C4448 C4449 1.391 . S
C4449 H4437 0.950 . S
C4449 C4445 1.393 . S
C4449 C4448 1.391 . S
C4450 H4440 0.950 . S
C4450 C4451 1.386 . S
C4450 C4452 1.391 . S
C4451 C4450 1.386 . S
C4451 C4455 1.393 . S
C4452 H4441 0.950 . S
C4452 C4450 1.391 . S
C4452 C4453 1.400 . S
C4453 C4447 1.491 . S
C4453 C4452 1.400 . S
C4453 C4454 1.398 . S
C4454 H4442 0.950 . S
C4454 C4453 1.398 . S
C4454 C4455 1.391 . S
C4455 H4443 0.950 . S
C4455 C4451 1.393 . S
C4455 C4454 1.391 . S
H4456 C4464 0.950 . S
H4457 C4469 0.950 . S
H4458 C4466 0.950 . S
H4459 C4468 0.950 . S
H4460 C4470 0.950 . S
H4461 C4472 0.950 . S
H4462 C4474 0.950 . S
H4463 C4475 0.950 . S
C4464 H4456 0.950 . S
C4464 C4465 1.386 . S
C4464 C4466 1.391 . S
C4465 C4464 1.386 . S
C4465 C4469 1.393 . S
C4466 H4458 0.950 . S
C4466 C4464 1.391 . S
C4466 C4467 1.400 . S
C4467 C4466 1.400 . S
C4467 C4468 1.398 . S
C4467 C4473 1.491 . S
C4468 H4459 0.950 . S
C4468 C4467 1.398 . S
C4468 C4469 1.391 . S
C4469 H4457 0.950 . S
C4469 C4465 1.393 . S
C4469 C4468 1.391 . S
C4470 H4460 0.950 . S
C4470 C4471 1.386 . S
C4470 C4472 1.391 . S
C4471 C4470 1.386 . S
C4471 C4475 1.393 . S
C4472 H4461 0.950 . S
C4472 C4470 1.391 . S
C4472 C4473 1.400 . S
C4473 C4467 1.491 . S
C4473 C4472 1.400 . S
C4473 C4474 1.398 . S
C4474 H4462 0.950 . S
C4474 C4473 1.398 . S
C4474 C4475 1.391 . S
C4475 H4463 0.950 . S
C4475 C4471 1.393 . S
C4475 C4474 1.391 . S
H4476 C4484 0.950 . S
H4477 C4489 0.950 . S
H4478 C4486 0.950 . S
H4479 C4488 0.950 . S
H4480 C4490 0.950 . S
H4481 C4492 0.950 . S
H4482 C4494 0.950 . S
H4483 C4495 0.950 . S
C4484 H4476 0.950 . S
C4484 C4485 1.386 . S
C4484 C4486 1.391 . S
C4485 C4484 1.386 . S
C4485 C4489 1.393 . S
C4486 H4478 0.950 . S
C4486 C4484 1.391 . S
C4486 C4487 1.400 . S
C4487 C4486 1.400 . S
C4487 C4488 1.398 . S
C4487 C4493 1.491 . S
C4488 H4479 0.950 . S
C4488 C4487 1.398 . S
C4488 C4489 1.391 . S
C4489 H4477 0.950 . S
C4489 C4485 1.393 . S
C4489 C4488 1.391 . S
C4490 H4480 0.950 . S
C4490 C4491 1.386 . S
C4490 C4492 1.391 . S
C4491 C4490 1.386 . S
C4491 C4495 1.393 . S
C4492 H4481 0.950 . S
C4492 C4490 1.391 . S
C4492 C4493 1.400 . S
C4493 C4487 1.491 . S
C4493 C4492 1.400 . S
C4493 C4494 1.398 . S
C4494 H4482 0.950 . S
C4494 C4493 1.398 . S
C4494 C4495 1.391 . S
C4495 H4483 0.950 . S
C4495 C4491 1.393 . S
C4495 C4494 1.391 . S
H4496 C4504 0.950 . S
H4497 C4509 0.950 . S
H4498 C4506 0.950 . S
H4499 C4508 0.950 . S
H4500 C4510 0.950 . S
H4501 C4512 0.950 . S
H4502 C4514 0.950 . S
H4503 C4515 0.950 . S
C4504 H4496 0.950 . S
C4504 C4505 1.386 . S
C4504 C4506 1.391 . S
C4505 C4504 1.386 . S
C4505 C4509 1.393 . S
C4506 H4498 0.950 . S
C4506 C4504 1.391 . S
C4506 C4507 1.400 . S
C4507 C4506 1.400 . S
C4507 C4508 1.398 . S
C4507 C4513 1.491 . S
C4508 H4499 0.950 . S
C4508 C4507 1.398 . S
C4508 C4509 1.391 . S
C4509 H4497 0.950 . S
C4509 C4505 1.393 . S
C4509 C4508 1.391 . S
C4510 H4500 0.950 . S
C4510 C4511 1.386 . S
C4510 C4512 1.391 . S
C4511 C4510 1.386 . S
C4511 C4515 1.393 . S
C4512 H4501 0.950 . S
C4512 C4510 1.391 . S
C4512 C4513 1.400 . S
C4513 C4507 1.491 . S
C4513 C4512 1.400 . S
C4513 C4514 1.398 . S
C4514 H4502 0.950 . S
C4514 C4513 1.398 . S
C4514 C4515 1.391 . S
C4515 H4503 0.950 . S
C4515 C4511 1.393 . S
C4515 C4514 1.391 . S
H4516 C4524 0.950 . S
H4517 C4529 0.950 . S
H4518 C4526 0.950 . S
H4519 C4528 0.950 . S
H4520 C4530 0.950 . S
H4521 C4532 0.950 . S
H4522 C4534 0.950 . S
H4523 C4535 0.950 . S
C4524 H4516 0.950 . S
C4524 C4525 1.386 . S
C4524 C4526 1.391 . S
C4525 C4524 1.386 . S
C4525 C4529 1.393 . S
C4526 H4518 0.950 . S
C4526 C4524 1.391 . S
C4526 C4527 1.400 . S
C4527 C4526 1.400 . S
C4527 C4528 1.398 . S
C4527 C4533 1.491 . S
C4528 H4519 0.950 . S
C4528 C4527 1.398 . S
C4528 C4529 1.391 . S
C4529 H4517 0.950 . S
C4529 C4525 1.393 . S
C4529 C4528 1.391 . S
C4530 H4520 0.950 . S
C4530 C4531 1.386 . S
C4530 C4532 1.391 . S
C4531 C4530 1.386 . S
C4531 C4535 1.393 . S
C4532 H4521 0.950 . S
C4532 C4530 1.391 . S
C4532 C4533 1.400 . S
C4533 C4527 1.491 . S
C4533 C4532 1.400 . S
C4533 C4534 1.398 . S
C4534 H4522 0.950 . S
C4534 C4533 1.398 . S
C4534 C4535 1.391 . S
C4535 H4523 0.950 . S
C4535 C4531 1.393 . S
C4535 C4534 1.391 . S
H4536 C4544 0.950 . S
H4537 C4549 0.950 . S
H4538 C4546 0.950 . S
H4539 C4548 0.950 . S
H4540 C4550 0.950 . S
H4541 C4552 0.950 . S
H4542 C4554 0.950 . S
H4543 C4555 0.950 . S
C4544 H4536 0.950 . S
C4544 C4545 1.386 . S
C4544 C4546 1.391 . S
C4545 C4544 1.386 . S
C4545 C4549 1.393 . S
C4546 H4538 0.950 . S
C4546 C4544 1.391 . S
C4546 C4547 1.400 . S
C4547 C4546 1.400 . S
C4547 C4548 1.398 . S
C4547 C4553 1.491 . S
C4548 H4539 0.950 . S
C4548 C4547 1.398 . S
C4548 C4549 1.391 . S
C4549 H4537 0.950 . S
C4549 C4545 1.393 . S
C4549 C4548 1.391 . S
C4550 H4540 0.950 . S
C4550 C4551 1.386 . S
C4550 C4552 1.391 . S
C4551 C4550 1.386 . S
C4551 C4555 1.393 . S
C4552 H4541 0.950 . S
C4552 C4550 1.391 . S
C4552 C4553 1.400 . S
C4553 C4547 1.491 . S
C4553 C4552 1.400 . S
C4553 C4554 1.398 . S
C4554 H4542 0.950 . S
C4554 C4553 1.398 . S
C4554 C4555 1.391 . S
C4555 H4543 0.950 . S
C4555 C4551 1.393 . S
C4555 C4554 1.391 . S
H4556 C4564 0.950 . S
H4557 C4569 0.950 . S
H4558 C4566 0.950 . S
H4559 C4568 0.950 . S
H4560 C4570 0.950 . S
H4561 C4572 0.950 . S
H4562 C4574 0.950 . S
H4563 C4575 0.950 . S
C4564 H4556 0.950 . S
C4564 C4565 1.386 . S
C4564 C4566 1.391 . S
C4565 C4564 1.386 . S
C4565 C4569 1.393 . S
C4566 H4558 0.950 . S
C4566 C4564 1.391 . S
C4566 C4567 1.400 . S
C4567 C4566 1.400 . S
C4567 C4568 1.398 . S
C4567 C4573 1.491 . S
C4568 H4559 0.950 . S
C4568 C4567 1.398 . S
C4568 C4569 1.391 . S
C4569 H4557 0.950 . S
C4569 C4565 1.393 . S
C4569 C4568 1.391 . S
C4570 H4560 0.950 . S
C4570 C4571 1.386 . S
C4570 C4572 1.391 . S
C4571 C4570 1.386 . S
C4571 C4575 1.393 . S
C4572 H4561 0.950 . S
C4572 C4570 1.391 . S
C4572 C4573 1.400 . S
C4573 C4567 1.491 . S
C4573 C4572 1.400 . S
C4573 C4574 1.398 . S
C4574 H4562 0.950 . S
C4574 C4573 1.398 . S
C4574 C4575 1.391 . S
C4575 H4563 0.950 . S
C4575 C4571 1.393 . S
C4575 C4574 1.391 . S
H4576 C4584 0.950 . S
H4577 C4589 0.950 . S
H4578 C4586 0.950 . S
H4579 C4588 0.950 . S
H4580 C4590 0.950 . S
H4581 C4592 0.950 . S
H4582 C4594 0.950 . S
H4583 C4595 0.950 . S
C4584 H4576 0.950 . S
C4584 C4585 1.386 . S
C4584 C4586 1.391 . S
C4585 C4584 1.386 . S
C4585 C4589 1.393 . S
C4586 H4578 0.950 . S
C4586 C4584 1.391 . S
C4586 C4587 1.400 . S
C4587 C4586 1.400 . S
C4587 C4588 1.398 . S
C4587 C4593 1.491 . S
C4588 H4579 0.950 . S
C4588 C4587 1.398 . S
C4588 C4589 1.391 . S
C4589 H4577 0.950 . S
C4589 C4585 1.393 . S
C4589 C4588 1.391 . S
C4590 H4580 0.950 . S
C4590 C4591 1.386 . S
C4590 C4592 1.391 . S
C4591 C4590 1.386 . S
C4591 C4595 1.393 . S
C4592 H4581 0.950 . S
C4592 C4590 1.391 . S
C4592 C4593 1.400 . S
C4593 C4587 1.491 . S
C4593 C4592 1.400 . S
C4593 C4594 1.398 . S
C4594 H4582 0.950 . S
C4594 C4593 1.398 . S
C4594 C4595 1.391 . S
C4595 H4583 0.950 . S
C4595 C4591 1.393 . S
C4595 C4594 1.391 . S
H4596 C4604 0.950 . S
H4597 C4609 0.950 . S
H4598 C4606 0.950 . S
H4599 C4608 0.950 . S
H4600 C4610 0.950 . S
H4601 C4612 0.950 . S
H4602 C4614 0.950 . S
H4603 C4615 0.950 . S
C4604 H4596 0.950 . S
C4604 C4605 1.386 . S
C4604 C4606 1.391 . S
C4605 C4604 1.386 . S
C4605 C4609 1.393 . S
C4606 H4598 0.950 . S
C4606 C4604 1.391 . S
C4606 C4607 1.400 . S
C4607 C4606 1.400 . S
C4607 C4608 1.398 . S
C4607 C4613 1.491 . S
C4608 H4599 0.950 . S
C4608 C4607 1.398 . S
C4608 C4609 1.391 . S
C4609 H4597 0.950 . S
C4609 C4605 1.393 . S
C4609 C4608 1.391 . S
C4610 H4600 0.950 . S
C4610 C4611 1.386 . S
C4610 C4612 1.391 . S
C4611 C4610 1.386 . S
C4611 C4615 1.393 . S
C4612 H4601 0.950 . S
C4612 C4610 1.391 . S
C4612 C4613 1.400 . S
C4613 C4607 1.491 . S
C4613 C4612 1.400 . S
C4613 C4614 1.398 . S
C4614 H4602 0.950 . S
C4614 C4613 1.398 . S
C4614 C4615 1.391 . S
C4615 H4603 0.950 . S
C4615 C4611 1.393 . S
C4615 C4614 1.391 . S
H4616 C4624 0.950 . S
H4617 C4629 0.950 . S
H4618 C4626 0.950 . S
H4619 C4628 0.950 . S
H4620 C4630 0.950 . S
H4621 C4632 0.950 . S
H4622 C4634 0.950 . S
H4623 C4635 0.950 . S
C4624 H4616 0.950 . S
C4624 C4625 1.386 . S
C4624 C4626 1.391 . S
C4625 C4624 1.386 . S
C4625 C4629 1.393 . S
C4626 H4618 0.950 . S
C4626 C4624 1.391 . S
C4626 C4627 1.400 . S
C4627 C4626 1.400 . S
C4627 C4628 1.398 . S
C4627 C4633 1.491 . S
C4628 H4619 0.950 . S
C4628 C4627 1.398 . S
C4628 C4629 1.391 . S
C4629 H4617 0.950 . S
C4629 C4625 1.393 . S
C4629 C4628 1.391 . S
C4630 H4620 0.950 . S
C4630 C4631 1.386 . S
C4630 C4632 1.391 . S
C4631 C4630 1.386 . S
C4631 C4635 1.393 . S
C4632 H4621 0.950 . S
C4632 C4630 1.391 . S
C4632 C4633 1.400 . S
C4633 C4627 1.491 . S
C4633 C4632 1.400 . S
C4633 C4634 1.398 . S
C4634 H4622 0.950 . S
C4634 C4633 1.398 . S
C4634 C4635 1.391 . S
C4635 H4623 0.950 . S
C4635 C4631 1.393 . S
C4635 C4634 1.391 . S
H4636 C4644 0.950 . S
H4637 C4649 0.950 . S
H4638 C4646 0.950 . S
H4639 C4648 0.950 . S
H4640 C4650 0.950 . S
H4641 C4652 0.950 . S
H4642 C4654 0.950 . S
H4643 C4655 0.950 . S
C4644 H4636 0.950 . S
C4644 C4645 1.386 . S
C4644 C4646 1.391 . S
C4645 C4644 1.386 . S
C4645 C4649 1.393 . S
C4646 H4638 0.950 . S
C4646 C4644 1.391 . S
C4646 C4647 1.400 . S
C4647 C4646 1.400 . S
C4647 C4648 1.398 . S
C4647 C4653 1.491 . S
C4648 H4639 0.950 . S
C4648 C4647 1.398 . S
C4648 C4649 1.391 . S
C4649 H4637 0.950 . S
C4649 C4645 1.393 . S
C4649 C4648 1.391 . S
C4650 H4640 0.950 . S
C4650 C4651 1.386 . S
C4650 C4652 1.391 . S
C4651 C4650 1.386 . S
C4651 C4655 1.393 . S
C4652 H4641 0.950 . S
C4652 C4650 1.391 . S
C4652 C4653 1.400 . S
C4653 C4647 1.491 . S
C4653 C4652 1.400 . S
C4653 C4654 1.398 . S
C4654 H4642 0.950 . S
C4654 C4653 1.398 . S
C4654 C4655 1.391 . S
C4655 H4643 0.950 . S
C4655 C4651 1.393 . S
C4655 C4654 1.391 . S
H4656 C4664 0.950 . S
H4657 C4669 0.950 1_655 S
H4658 C4666 0.950 . S
H4659 C4668 0.950 1_655 S
H4660 C4670 0.950 . S
H4661 C4672 0.945 1_655 S
H4662 C4674 0.950 . S
H4663 C4675 0.950 . S
C4664 H4656 0.950 . S
C4664 C4665 1.386 . S
C4664 C4666 1.391 . S
C4665 C4664 1.386 . S
C4665 C4669 1.393 . S
C4666 H4658 0.950 . S
C4666 C4664 1.391 . S
C4666 C4667 1.400 . S
C4667 C4666 1.400 . S
C4667 C4668 1.398 . S
C4667 C4673 1.491 . S
C4668 H4659 0.950 1_455 S
C4668 C4667 1.398 . S
C4668 C4669 1.391 . S
C4669 H4657 0.950 1_455 S
C4669 C4665 1.393 . S
C4669 C4668 1.391 . S
C4670 H4660 0.950 . S
C4670 C4671 1.386 1_655 S
C4670 C4672 1.386 1_655 S
C4671 C4670 1.386 1_455 S
C4671 C4675 1.393 . S
C4672 H4661 0.945 1_455 S
C4672 C4670 1.386 1_455 S
C4672 C4673 1.411 . S
C4673 C4667 1.491 . S
C4673 C4672 1.411 . S
C4673 C4674 1.398 . S
C4674 H4662 0.950 . S
C4674 C4673 1.398 . S
C4674 C4675 1.391 . S
C4675 H4663 0.950 . S
C4675 C4671 1.393 . S
C4675 C4674 1.391 . S
H4676 C4684 0.950 . S
H4677 C4689 0.950 . S
H4678 C4686 0.950 . S
H4679 C4688 0.950 . S
H4680 C4690 0.950 . S
H4681 C4692 0.950 . S
H4682 C4694 0.950 . S
H4683 C4695 0.950 . S
C4684 H4676 0.950 . S
C4684 C4685 1.386 . S
C4684 C4686 1.391 . S
C4685 C4684 1.386 . S
C4685 C4689 1.393 . S
C4686 H4678 0.950 . S
C4686 C4684 1.391 . S
C4686 C4687 1.400 . S
C4687 C4686 1.400 . S
C4687 C4688 1.398 . S
C4687 C4693 1.491 . S
C4688 H4679 0.950 . S
C4688 C4687 1.398 . S
C4688 C4689 1.391 . S
C4689 H4677 0.950 . S
C4689 C4685 1.393 . S
C4689 C4688 1.391 . S
C4690 H4680 0.950 . S
C4690 C4691 1.386 . S
C4690 C4692 1.391 . S
C4691 C4690 1.386 . S
C4691 C4695 1.393 . S
C4692 H4681 0.950 . S
C4692 C4690 1.391 . S
C4692 C4693 1.400 . S
C4693 C4687 1.491 . S
C4693 C4692 1.400 . S
C4693 C4694 1.398 . S
C4694 H4682 0.950 . S
C4694 C4693 1.398 . S
C4694 C4695 1.391 . S
C4695 H4683 0.950 . S
C4695 C4691 1.393 . S
C4695 C4694 1.391 . S
H4696 C4704 0.950 . S
H4697 C4709 0.950 . S
H4698 C4706 0.950 . S
H4699 C4708 0.950 . S
H4700 C4710 0.966 . S
H4701 C4712 0.950 . S
H4702 C4714 0.950 . S
H4703 C4715 0.950 . S
C4704 H4696 0.950 . S
C4704 C4705 1.386 . S
C4704 C4706 1.391 . S
C4705 C4704 1.386 . S
C4705 C4709 1.393 . S
C4706 H4698 0.950 . S
C4706 C4704 1.391 . S
C4706 C4707 1.400 . S
C4707 C4706 1.400 . S
C4707 C4708 1.398 . S
C4707 C4713 1.491 . S
C4708 H4699 0.950 . S
C4708 C4707 1.398 . S
C4708 C4709 1.391 . S
C4709 H4697 0.950 . S
C4709 C4705 1.393 . S
C4709 C4708 1.391 . S
C4710 H4700 0.966 . S
C4710 C4711 1.386 . S
C4710 C4712 1.391 . S
C4711 C4710 1.386 . S
C4711 C4715 1.393 . S
C4712 H4701 0.950 . S
C4712 C4710 1.391 . S
C4712 C4713 1.400 . S
C4713 C4707 1.491 . S
C4713 C4712 1.400 . S
C4713 C4714 1.398 . S
C4714 H4702 0.950 . S
C4714 C4713 1.398 . S
C4714 C4715 1.391 . S
C4715 H4703 0.950 . S
C4715 C4711 1.393 . S
C4715 C4714 1.391 . S
H4716 C4724 0.950 . S
H4717 C4729 0.922 1_545 S
H4718 C4726 0.950 . S
H4719 C4728 0.950 . S
H4720 C4730 0.950 . S
H4721 C4732 0.950 . S
H4722 C4734 0.950 . S
H4723 C4735 0.950 . S
C4724 H4716 0.950 . S
C4724 C4725 1.386 . S
C4724 C4726 1.391 . S
C4725 C4724 1.386 . S
C4725 C4729 1.474 . S
C4726 H4718 0.950 . S
C4726 C4724 1.391 . S
C4726 C4727 1.400 . S
C4727 C4726 1.400 . S
C4727 C4728 1.398 1_565 S
C4727 C4733 1.491 . S
C4728 H4719 0.950 . S
C4728 C4727 1.398 1_545 S
C4728 C4729 1.344 1_545 S
C4729 H4717 0.922 1_565 S
C4729 C4725 1.474 . S
C4729 C4728 1.344 1_565 S
C4730 H4720 0.950 . S
C4730 C4731 1.386 1_545 S
C4730 C4732 1.391 . S
C4731 C4730 1.386 1_565 S
C4731 C4735 1.393 . S
C4732 H4721 0.950 . S
C4732 C4730 1.391 . S
C4732 C4733 1.400 1_545 S
C4733 C4727 1.491 . S
C4733 C4732 1.400 1_565 S
C4733 C4734 1.398 . S
C4734 H4722 0.950 . S
C4734 C4733 1.398 . S
C4734 C4735 1.391 . S
C4735 H4723 0.950 . S
C4735 C4731 1.393 . S
C4735 C4734 1.391 . S
H4736 C4744 0.950 . S
H4737 C4749 0.989 . S
H4738 C4746 0.950 . S
H4739 C4748 0.950 . S
H4740 C4750 0.950 . S
H4741 C4752 0.950 . S
H4742 C4754 0.950 . S
H4743 C4755 0.950 . S
C4744 H4736 0.950 . S
C4744 C4745 1.386 . S
C4744 C4746 1.391 . S
C4745 C4744 1.386 . S
C4745 C4749 1.366 1_455 S
C4746 H4738 0.950 . S
C4746 C4744 1.391 . S
C4746 C4747 1.400 . S
C4747 C4746 1.400 . S
C4747 C4748 1.398 1_455 S
C4747 C4753 1.491 . S
C4748 H4739 0.950 . S
C4748 C4747 1.398 1_655 S
C4748 C4749 1.380 . S
C4749 H4737 0.989 . S
C4749 C4745 1.366 1_655 S
C4749 C4748 1.380 . S
C4750 H4740 0.950 . S
C4750 C4751 1.294 1_655 S
C4750 C4752 1.391 . S
C4751 C4750 1.294 1_455 S
C4751 C4755 1.460 . S
C4752 H4741 0.950 . S
C4752 C4750 1.391 . S
C4752 C4753 1.400 1_655 S
C4753 C4747 1.491 . S
C4753 C4752 1.400 1_455 S
C4753 C4754 1.398 . S
C4754 H4742 0.950 . S
C4754 C4753 1.398 . S
C4754 C4755 1.391 . S
C4755 H4743 0.950 . S
C4755 C4751 1.460 . S
C4755 C4754 1.391 . S
H4756 C4764 0.950 . S
H4757 C4769 0.950 . S
H4758 C4766 0.950 . S
H4759 C4768 0.950 . S
H4760 C4770 0.950 . S
H4761 C4772 0.950 . S
H4762 C4774 0.950 . S
H4763 C4775 0.950 . S
C4764 H4756 0.950 . S
C4764 C4765 1.386 . S
C4764 C4766 1.391 . S
C4765 C4764 1.386 . S
C4765 C4769 1.393 . S
C4766 H4758 0.950 . S
C4766 C4764 1.391 . S
C4766 C4767 1.400 . S
C4767 C4766 1.400 . S
C4767 C4768 1.398 . S
C4767 C4773 1.491 . S
C4768 H4759 0.950 . S
C4768 C4767 1.398 . S
C4768 C4769 1.391 . S
C4769 H4757 0.950 . S
C4769 C4765 1.393 . S
C4769 C4768 1.391 . S
C4770 H4760 0.950 . S
C4770 C4771 1.386 . S
C4770 C4772 1.391 . S
C4771 C4770 1.386 . S
C4771 C4775 1.393 . S
C4772 H4761 0.950 . S
C4772 C4770 1.391 . S
C4772 C4773 1.400 . S
C4773 C4767 1.491 . S
C4773 C4772 1.400 . S
C4773 C4774 1.398 . S
C4774 H4762 0.950 . S
C4774 C4773 1.398 . S
C4774 C4775 1.391 . S
C4775 H4763 0.950 . S
C4775 C4771 1.393 . S
C4775 C4774 1.391 . S
H4776 C4784 0.950 . S
H4777 C4789 0.950 . S
H4778 C4786 0.950 . S
H4779 C4788 0.950 . S
H4780 C4790 0.950 . S
H4781 C4792 0.950 . S
H4782 C4794 0.950 . S
H4783 C4795 0.950 . S
C4784 H4776 0.950 . S
C4784 C4785 1.386 . S
C4784 C4786 1.391 . S
C4785 C4784 1.386 . S
C4785 C4789 1.393 . S
C4786 H4778 0.950 . S
C4786 C4784 1.391 . S
C4786 C4787 1.400 . S
C4787 C4786 1.400 . S
C4787 C4788 1.398 . S
C4787 C4793 1.491 . S
C4788 H4779 0.950 . S
C4788 C4787 1.398 . S
C4788 C4789 1.391 . S
C4789 H4777 0.950 . S
C4789 C4785 1.393 . S
C4789 C4788 1.391 . S
C4790 H4780 0.950 . S
C4790 C4791 1.386 . S
C4790 C4792 1.391 . S
C4791 C4790 1.386 . S
C4791 C4795 1.393 . S
C4792 H4781 0.950 . S
C4792 C4790 1.391 . S
C4792 C4793 1.400 . S
C4793 C4787 1.491 . S
C4793 C4792 1.400 . S
C4793 C4794 1.398 . S
C4794 H4782 0.950 . S
C4794 C4793 1.398 . S
C4794 C4795 1.391 . S
C4795 H4783 0.950 . S
C4795 C4791 1.393 . S
C4795 C4794 1.391 . S
H4796 C4804 0.950 . S
H4797 C4809 0.950 . S
H4798 C4806 0.950 . S
H4799 C4808 0.950 . S
H4800 C4810 0.950 . S
H4801 C4812 0.950 . S
H4802 C4814 0.950 . S
H4803 C4815 0.950 . S
C4804 H4796 0.950 . S
C4804 C4805 1.386 . S
C4804 C4806 1.391 . S
C4805 C4804 1.386 . S
C4805 C4809 1.393 . S
C4806 H4798 0.950 . S
C4806 C4804 1.391 . S
C4806 C4807 1.400 . S
C4807 C4806 1.400 . S
C4807 C4808 1.398 . S
C4807 C4813 1.491 . S
C4808 H4799 0.950 . S
C4808 C4807 1.398 . S
C4808 C4809 1.391 . S
C4809 H4797 0.950 . S
C4809 C4805 1.393 . S
C4809 C4808 1.391 . S
C4810 H4800 0.950 . S
C4810 C4811 1.386 . S
C4810 C4812 1.391 . S
C4811 C4810 1.386 . S
C4811 C4815 1.393 . S
C4812 H4801 0.950 . S
C4812 C4810 1.391 . S
C4812 C4813 1.400 . S
C4813 C4807 1.491 . S
C4813 C4812 1.400 . S
C4813 C4814 1.398 . S
C4814 H4802 0.950 . S
C4814 C4813 1.398 . S
C4814 C4815 1.391 . S
C4815 H4803 0.950 . S
C4815 C4811 1.393 . S
C4815 C4814 1.391 . S
H4816 C4824 0.950 . S
H4817 C4829 0.950 . S
H4818 C4826 0.950 . S
H4819 C4828 0.950 . S
H4820 C4830 0.950 . S
H4821 C4832 0.950 . S
H4822 C4834 0.950 . S
H4823 C4835 0.950 . S
C4824 H4816 0.950 . S
C4824 C4825 1.386 . S
C4824 C4826 1.391 . S
C4825 C4824 1.386 . S
C4825 C4829 1.393 . S
C4826 H4818 0.950 . S
C4826 C4824 1.391 . S
C4826 C4827 1.400 . S
C4827 C4826 1.400 . S
C4827 C4828 1.398 . S
C4827 C4833 1.491 . S
C4828 H4819 0.950 . S
C4828 C4827 1.398 . S
C4828 C4829 1.391 . S
C4829 H4817 0.950 . S
C4829 C4825 1.393 . S
C4829 C4828 1.391 . S
C4830 H4820 0.950 . S
C4830 C4831 1.386 . S
C4830 C4832 1.391 . S
C4831 C4830 1.386 . S
C4831 C4835 1.393 . S
C4832 H4821 0.950 . S
C4832 C4830 1.391 . S
C4832 C4833 1.400 . S
C4833 C4827 1.491 . S
C4833 C4832 1.400 . S
C4833 C4834 1.398 . S
C4834 H4822 0.950 . S
C4834 C4833 1.398 . S
C4834 C4835 1.391 . S
C4835 H4823 0.950 . S
C4835 C4831 1.393 . S
C4835 C4834 1.391 . S
H4836 C4844 0.950 1_565 S
H4837 C4849 0.950 . S
H4838 C4846 0.950 1_565 S
H4839 C4848 0.950 . S
H4840 C4850 0.950 . S
H4841 C4852 0.950 . S
H4842 C4854 0.950 . S
H4843 C4855 0.950 . S
C4844 H4836 0.950 1_545 S
C4844 C4845 1.386 . S
C4844 C4846 1.391 . S
C4845 C4844 1.386 . S
C4845 C4849 1.393 . S
C4846 H4838 0.950 1_545 S
C4846 C4844 1.391 . S
C4846 C4847 1.400 . S
C4847 C4846 1.400 . S
C4847 C4848 1.398 . S
C4847 C4853 1.491 . S
C4848 H4839 0.950 . S
C4848 C4847 1.398 . S
C4848 C4849 1.391 . S
C4849 H4837 0.950 . S
C4849 C4845 1.393 . S
C4849 C4848 1.391 . S
C4850 H4840 0.950 . S
C4850 C4851 1.386 . S
C4850 C4852 1.391 . S
C4851 C4850 1.386 . S
C4851 C4855 1.393 1_545 S
C4852 H4841 0.950 . S
C4852 C4850 1.391 . S
C4852 C4853 1.400 . S
C4853 C4847 1.491 . S
C4853 C4852 1.400 . S
C4853 C4854 1.398 1_545 S
C4854 H4842 0.950 . S
C4854 C4853 1.398 1_565 S
C4854 C4855 1.391 . S
C4855 H4843 0.950 . S
C4855 C4851 1.393 1_565 S
C4855 C4854 1.391 . S
H4856 C4864 0.902 1_455 S
H4857 C4869 0.950 . S
H4858 C4866 0.977 . S
H4859 C4868 0.950 . S
H4860 C4870 0.950 . S
H4861 C4872 0.950 . S
H4862 C4874 0.950 . S
H4863 C4875 0.950 . S
C4864 H4856 0.902 1_655 S
C4864 C4865 1.416 . S
C4864 C4866 1.426 1_655 S
C4865 C4864 1.416 . S
C4865 C4869 1.393 . S
C4866 H4858 0.977 . S
C4866 C4864 1.426 1_455 S
C4866 C4867 1.360 1_455 S
C4867 C4866 1.360 1_655 S
C4867 C4868 1.398 . S
C4867 C4873 1.491 . S
C4868 H4859 0.950 . S
C4868 C4867 1.398 . S
C4868 C4869 1.391 . S
C4869 H4857 0.950 . S
C4869 C4865 1.393 . S
C4869 C4868 1.391 . S
C4870 H4860 0.950 . S
C4870 C4871 1.386 . S
C4870 C4872 1.391 . S
C4871 C4870 1.386 . S
C4871 C4875 1.393 1_655 S
C4872 H4861 0.950 . S
C4872 C4870 1.391 . S
C4872 C4873 1.400 . S
C4873 C4867 1.491 . S
C4873 C4872 1.400 . S
C4873 C4874 1.398 1_655 S
C4874 H4862 0.950 . S
C4874 C4873 1.398 1_455 S
C4874 C4875 1.391 . S
C4875 H4863 0.950 . S
C4875 C4871 1.393 1_455 S
C4875 C4874 1.391 . S
H4876 C4884 0.950 . S
H4877 C4889 0.950 . S
H4878 C4886 0.950 . S
H4879 C4888 0.950 . S
H4880 C4890 0.950 . S
H4881 C4892 0.950 . S
H4882 C4894 0.950 . S
H4883 C4895 0.950 . S
C4884 H4876 0.950 . S
C4884 C4885 1.386 . S
C4884 C4886 1.391 . S
C4885 C4884 1.386 . S
C4885 C4889 1.393 . S
C4886 H4878 0.950 . S
C4886 C4884 1.391 . S
C4886 C4887 1.400 . S
C4887 C4886 1.400 . S
C4887 C4888 1.398 . S
C4887 C4893 1.491 . S
C4888 H4879 0.950 . S
C4888 C4887 1.398 . S
C4888 C4889 1.391 . S
C4889 H4877 0.950 . S
C4889 C4885 1.393 . S
C4889 C4888 1.391 . S
C4890 H4880 0.950 . S
C4890 C4891 1.386 . S
C4890 C4892 1.391 . S
C4891 C4890 1.386 . S
C4891 C4895 1.393 . S
C4892 H4881 0.950 . S
C4892 C4890 1.391 . S
C4892 C4893 1.400 . S
C4893 C4887 1.491 . S
C4893 C4892 1.400 . S
C4893 C4894 1.398 . S
C4894 H4882 0.950 . S
C4894 C4893 1.398 . S
C4894 C4895 1.391 . S
C4895 H4883 0.950 . S
C4895 C4891 1.393 . S
C4895 C4894 1.391 . S
H4896 C4904 0.950 . S
H4897 C4909 0.950 . S
H4898 C4906 0.950 . S
H4899 C4908 0.950 . S
H4900 C4910 0.950 . S
H4901 C4912 0.950 . S
H4902 C4914 0.950 . S
H4903 C4915 0.950 . S
C4904 H4896 0.950 . S
C4904 C4905 1.386 . S
C4904 C4906 1.391 . S
C4905 C4904 1.386 . S
C4905 C4909 1.393 . S
C4906 H4898 0.950 . S
C4906 C4904 1.391 . S
C4906 C4907 1.400 . S
C4907 C4906 1.400 . S
C4907 C4908 1.398 . S
C4907 C4913 1.491 . S
C4908 H4899 0.950 . S
C4908 C4907 1.398 . S
C4908 C4909 1.391 . S
C4909 H4897 0.950 . S
C4909 C4905 1.393 . S
C4909 C4908 1.391 . S
C4910 H4900 0.950 . S
C4910 C4911 1.386 . S
C4910 C4912 1.391 . S
C4911 C4910 1.386 . S
C4911 C4915 1.393 . S
C4912 H4901 0.950 . S
C4912 C4910 1.391 . S
C4912 C4913 1.400 . S
C4913 C4907 1.491 . S
C4913 C4912 1.400 . S
C4913 C4914 1.398 . S
C4914 H4902 0.950 . S
C4914 C4913 1.398 . S
C4914 C4915 1.391 . S
C4915 H4903 0.950 . S
C4915 C4911 1.393 . S
C4915 C4914 1.391 . S
H4916 C4924 0.950 . S
H4917 C4929 0.950 . S
H4918 C4926 0.950 . S
H4919 C4928 0.950 . S
H4920 C4930 0.950 . S
H4921 C4932 0.950 . S
H4922 C4934 0.950 . S
H4923 C4935 0.950 . S
C4924 H4916 0.950 . S
C4924 C4925 1.386 . S
C4924 C4926 1.391 . S
C4925 C4924 1.386 . S
C4925 C4929 1.393 . S
C4926 H4918 0.950 . S
C4926 C4924 1.391 . S
C4926 C4927 1.400 . S
C4927 C4926 1.400 . S
C4927 C4928 1.398 . S
C4927 C4933 1.491 . S
C4928 H4919 0.950 . S
C4928 C4927 1.398 . S
C4928 C4929 1.391 . S
C4929 H4917 0.950 . S
C4929 C4925 1.393 . S
C4929 C4928 1.391 . S
C4930 H4920 0.950 . S
C4930 C4931 1.386 . S
C4930 C4932 1.391 . S
C4931 C4930 1.386 . S
C4931 C4935 1.393 . S
C4932 H4921 0.950 . S
C4932 C4930 1.391 . S
C4932 C4933 1.400 . S
C4933 C4927 1.491 . S
C4933 C4932 1.400 . S
C4933 C4934 1.398 . S
C4934 H4922 0.950 . S
C4934 C4933 1.398 . S
C4934 C4935 1.391 . S
C4935 H4923 0.950 . S
C4935 C4931 1.393 . S
C4935 C4934 1.391 . S
H4936 C4944 0.950 . S
H4937 C4949 0.950 . S
H4938 C4946 0.950 . S
H4939 C4948 0.950 . S
H4940 C4950 0.950 . S
H4941 C4952 0.950 . S
H4942 C4954 0.950 . S
H4943 C4955 0.950 . S
C4944 H4936 0.950 . S
C4944 C4945 1.386 . S
C4944 C4946 1.391 . S
C4945 C4944 1.386 . S
C4945 C4949 1.393 . S
C4946 H4938 0.950 . S
C4946 C4944 1.391 . S
C4946 C4947 1.400 . S
C4947 C4946 1.400 . S
C4947 C4948 1.398 . S
C4947 C4953 1.491 . S
C4948 H4939 0.950 . S
C4948 C4947 1.398 . S
C4948 C4949 1.391 . S
C4949 H4937 0.950 . S
C4949 C4945 1.393 . S
C4949 C4948 1.391 . S
C4950 H4940 0.950 . S
C4950 C4951 1.386 . S
C4950 C4952 1.391 . S
C4951 C4950 1.386 . S
C4951 C4955 1.393 . S
C4952 H4941 0.950 . S
C4952 C4950 1.391 . S
C4952 C4953 1.400 . S
C4953 C4947 1.491 . S
C4953 C4952 1.400 . S
C4953 C4954 1.398 . S
C4954 H4942 0.950 . S
C4954 C4953 1.398 . S
C4954 C4955 1.391 . S
C4955 H4943 0.950 . S
C4955 C4951 1.393 . S
C4955 C4954 1.391 . S
H4956 C4964 0.950 . S
H4957 C4969 0.950 . S
H4958 C4966 0.950 . S
H4959 C4968 0.950 . S
H4960 C4970 0.950 . S
H4961 C4972 0.950 . S
H4962 C4974 0.950 . S
H4963 C4975 0.950 . S
C4964 H4956 0.950 . S
C4964 C4965 1.386 . S
C4964 C4966 1.391 . S
C4965 C4964 1.386 . S
C4965 C4969 1.393 . S
C4966 H4958 0.950 . S
C4966 C4964 1.391 . S
C4966 C4967 1.400 . S
C4967 C4966 1.400 . S
C4967 C4968 1.398 . S
C4967 C4973 1.491 . S
C4968 H4959 0.950 . S
C4968 C4967 1.398 . S
C4968 C4969 1.391 . S
C4969 H4957 0.950 . S
C4969 C4965 1.393 . S
C4969 C4968 1.391 . S
C4970 H4960 0.950 . S
C4970 C4971 1.386 . S
C4970 C4972 1.391 . S
C4971 C4970 1.386 . S
C4971 C4975 1.393 . S
C4972 H4961 0.950 . S
C4972 C4970 1.391 . S
C4972 C4973 1.400 . S
C4973 C4967 1.491 . S
C4973 C4972 1.400 . S
C4973 C4974 1.398 . S
C4974 H4962 0.950 . S
C4974 C4973 1.398 . S
C4974 C4975 1.391 . S
C4975 H4963 0.950 . S
C4975 C4971 1.393 . S
C4975 C4974 1.391 . S
H4976 C4984 0.950 . S
H4977 C4989 0.950 . S
H4978 C4986 0.950 . S
H4979 C4988 0.950 . S
H4980 C4990 0.950 . S
H4981 C4992 0.950 . S
H4982 C4994 0.950 . S
H4983 C4995 0.950 . S
C4984 H4976 0.950 . S
C4984 C4985 1.386 . S
C4984 C4986 1.391 . S
C4985 C4984 1.386 . S
C4985 C4989 1.393 . S
C4986 H4978 0.950 . S
C4986 C4984 1.391 . S
C4986 C4987 1.400 . S
C4987 C4986 1.400 . S
C4987 C4988 1.398 . S
C4987 C4993 1.491 . S
C4988 H4979 0.950 . S
C4988 C4987 1.398 . S
C4988 C4989 1.391 . S
C4989 H4977 0.950 . S
C4989 C4985 1.393 . S
C4989 C4988 1.391 . S
C4990 H4980 0.950 . S
C4990 C4991 1.386 . S
C4990 C4992 1.391 . S
C4991 C4990 1.386 . S
C4991 C4995 1.393 . S
C4992 H4981 0.950 . S
C4992 C4990 1.391 . S
C4992 C4993 1.400 . S
C4993 C4987 1.491 . S
C4993 C4992 1.400 . S
C4993 C4994 1.398 . S
C4994 H4982 0.950 . S
C4994 C4993 1.398 . S
C4994 C4995 1.391 . S
C4995 H4983 0.950 . S
C4995 C4991 1.393 . S
C4995 C4994 1.391 . S
H4996 C5004 0.950 . S
H4997 C5009 0.950 . S
H4998 C5006 0.950 . S
H4999 C5008 0.950 . S
H5000 C5010 0.950 . S
H5001 C5012 0.950 . S
H5002 C5014 0.950 . S
H5003 C5015 0.950 . S
C5004 H4996 0.950 . S
C5004 C5005 1.386 . S
C5004 C5006 1.391 . S
C5005 C5004 1.386 . S
C5005 C5009 1.393 . S
C5006 H4998 0.950 . S
C5006 C5004 1.391 . S
C5006 C5007 1.400 . S
C5007 C5006 1.400 . S
C5007 C5008 1.398 . S
C5007 C5013 1.491 . S
C5008 H4999 0.950 . S
C5008 C5007 1.398 . S
C5008 C5009 1.391 . S
C5009 H4997 0.950 . S
C5009 C5005 1.393 . S
C5009 C5008 1.391 . S
C5010 H5000 0.950 . S
C5010 C5011 1.386 . S
C5010 C5012 1.391 . S
C5011 C5010 1.386 . S
C5011 C5015 1.393 . S
C5012 H5001 0.950 . S
C5012 C5010 1.391 . S
C5012 C5013 1.400 . S
C5013 C5007 1.491 . S
C5013 C5012 1.400 . S
C5013 C5014 1.398 . S
C5014 H5002 0.950 . S
C5014 C5013 1.398 . S
C5014 C5015 1.391 . S
C5015 H5003 0.950 . S
C5015 C5011 1.393 . S
C5015 C5014 1.391 . S
H5016 C5024 0.950 . S
H5017 C5029 0.934 1_455 S
H5018 C5026 0.950 . S
H5019 C5028 0.950 1_455 S
H5020 C5030 0.950 . S
H5021 C5032 0.950 . S
H5022 C5034 0.950 . S
H5023 C5035 0.950 . S
C5024 H5016 0.950 . S
C5024 C5025 1.386 . S
C5024 C5026 1.391 . S
C5025 C5024 1.386 . S
C5025 C5029 1.393 . S
C5026 H5018 0.950 . S
C5026 C5024 1.391 . S
C5026 C5027 1.400 . S
C5027 C5026 1.400 . S
C5027 C5028 1.398 . S
C5027 C5033 1.491 . S
C5028 H5019 0.950 1_655 S
C5028 C5027 1.398 . S
C5028 C5029 1.391 . S
C5029 H5017 0.934 1_655 S
C5029 C5025 1.393 . S
C5029 C5028 1.391 . S
C5030 H5020 0.950 . S
C5030 C5031 1.386 1_455 S
C5030 C5032 1.391 . S
C5031 C5030 1.386 1_655 S
C5031 C5035 1.393 . S
C5032 H5021 0.950 . S
C5032 C5030 1.391 . S
C5032 C5033 1.400 1_455 S
C5033 C5027 1.491 . S
C5033 C5032 1.400 1_655 S
C5033 C5034 1.398 . S
C5034 H5022 0.950 . S
C5034 C5033 1.398 . S
C5034 C5035 1.391 . S
C5035 H5023 0.950 . S
C5035 C5031 1.393 . S
C5035 C5034 1.391 . S
H5036 C5044 0.950 . S
H5037 C5049 0.950 . S
H5038 C5046 0.950 . S
H5039 C5048 0.950 . S
H5040 C5050 0.950 . S
H5041 C5052 0.950 . S
H5042 C5054 0.950 . S
H5043 C5055 0.950 . S
C5044 H5036 0.950 . S
C5044 C5045 1.386 . S
C5044 C5046 1.391 . S
C5045 C5044 1.386 . S
C5045 C5049 1.393 . S
C5046 H5038 0.950 . S
C5046 C5044 1.391 . S
C5046 C5047 1.400 . S
C5047 C5046 1.400 . S
C5047 C5048 1.398 . S
C5047 C5053 1.491 . S
C5048 H5039 0.950 . S
C5048 C5047 1.398 . S
C5048 C5049 1.391 . S
C5049 H5037 0.950 . S
C5049 C5045 1.393 . S
C5049 C5048 1.391 . S
C5050 H5040 0.950 . S
C5050 C5051 1.386 . S
C5050 C5052 1.391 . S
C5051 C5050 1.386 . S
C5051 C5055 1.393 . S
C5052 H5041 0.950 . S
C5052 C5050 1.391 . S
C5052 C5053 1.400 . S
C5053 C5047 1.491 . S
C5053 C5052 1.400 . S
C5053 C5054 1.398 . S
C5054 H5042 0.950 . S
C5054 C5053 1.398 . S
C5054 C5055 1.391 . S
C5055 H5043 0.950 . S
C5055 C5051 1.393 . S
C5055 C5054 1.391 . S
H5056 C5064 0.950 . S
H5057 C5069 0.950 . S
H5058 C5066 0.950 . S
H5059 C5068 0.950 . S
H5060 C5070 0.950 . S
H5061 C5072 0.950 . S
H5062 C5074 0.950 . S
H5063 C5075 0.956 1_565 S
C5064 H5056 0.950 . S
C5064 C5065 1.386 . S
C5064 C5066 1.391 . S
C5065 C5064 1.386 . S
C5065 C5069 1.393 . S
C5066 H5058 0.950 . S
C5066 C5064 1.391 . S
C5066 C5067 1.400 . S
C5067 C5066 1.400 . S
C5067 C5068 1.398 . S
C5067 C5073 1.491 . S
C5068 H5059 0.950 . S
C5068 C5067 1.398 . S
C5068 C5069 1.391 . S
C5069 H5057 0.950 . S
C5069 C5065 1.393 . S
C5069 C5068 1.391 . S
C5070 H5060 0.950 . S
C5070 C5071 1.386 . S
C5070 C5072 1.391 . S
C5071 C5070 1.386 . S
C5071 C5075 1.393 . S
C5072 H5061 0.950 . S
C5072 C5070 1.391 . S
C5072 C5073 1.400 . S
C5073 C5067 1.491 . S
C5073 C5072 1.400 . S
C5073 C5074 1.398 . S
C5074 H5062 0.950 . S
C5074 C5073 1.398 . S
C5074 C5075 1.391 . S
C5075 H5063 0.956 1_545 S
C5075 C5071 1.393 . S
C5075 C5074 1.391 . S
C3645 C49 1.390 . S
C3651 C2639 1.233 . S
C3665 C137 1.680 . S
C3671 C2779 1.105 . S
C3691 C2867 1.277 . S
C3685 C205 1.484 . S
C3705 C196 1.512 . S
C3711 C3007 1.197 1_565 S
C3725 C57 1.503 . S
C3731 C3121 1.306 . S
C3745 C145 1.676 . S
C3751 C3209 1.237 . S
C3765 C313 1.450 . S
C3771 C3095 1.123 . S
C3791 C3235 1.272 . S
C3785 C401 1.593 . S
C3811 C2981 1.181 . S
C3805 C489 1.493 . S
C3825 C469 1.539 . S
C3831 C2893 1.074 . S
C3851 C2665 1.105 . S
C3845 C293 1.538 . S
C3865 C381 1.595 . S
C3871 C2753 1.374 . S
C3885 C577 1.755 . S
C3891 C3323 1.312 . S
C3905 C645 1.771 . S
C3911 C3463 1.125 . S
C3931 C3551 1.258 . S
C3925 C733 1.681 . S
C3945 C724 1.701 . S
C3951 C1639 1.141 . S
C3965 C585 1.790 . S
C3971 C1753 1.149 . S
C3985 C636 1.776 . S
C3991 C1841 1.349 . S
C4005 C841 1.481 . S
C4011 C1727 1.294 . S
C4025 C937 1.697 . S
C4031 C1867 1.444 . S
C4051 C1613 1.458 . S
C4045 C1025 1.671 . S
C4071 C3577 1.494 . S
C4065 C988 1.791 . S
C4091 C3349 1.371 . S
C4085 C821 1.625 . S
C4111 C3437 1.516 . S
C4105 C900 1.679 . S
C4125 C1105 1.584 . S
C4131 C1955 1.174 . S
C4145 C1193 1.789 . S
C4151 C2095 1.147 . S
C4165 C1281 1.754 . S
C4171 C2183 1.310 . S
C4185 C1289 1.868 . S
C4191 C2323 1.242 . S
C4211 C2437 1.072 . S
C4205 C1113 1.716 . S
C4231 C2525 1.338 . S
C4225 C1201 1.773 . S
C4251 C2411 1.493 . S
C4245 C1369 1.669 . S
C4271 C2551 1.394 . S
C4265 C1457 1.671 . S
C4285 C1553 1.580 . S
C4291 C2297 1.418 . S
C4311 C2209 1.367 . S
C4305 C1516 1.613 . S
C4325 C1349 1.711 . S
C4331 C1981 1.399 . S
C4351 C2069 1.491 . S
C4345 C1437 1.682 . S
C4371 C1595 1.003 . S
C4365 C29 1.924 . S
C4385 C117 1.663 . S
C4391 C1709 0.898 . S
C4411 C1813 1.330 . S
C4405 C225 1.892 . S
C4431 C1927 1.233 . S
C4425 C233 1.740 . S
C4451 C2051 1.012 . S
C4445 C20 1.897 . S
C4471 C2155 1.213 . S
C4465 C108 1.705 . S
C4485 C321 2.072 . S
C4491 C2165 1.648 . S
C4505 C409 1.798 . S
C4511 C1937 1.444 . S
C4525 C497 2.042 . S
C4531 C2041 1.874 . S
C4545 C460 1.863 . S
C4551 C1699 1.685 . S
C4571 C1823 1.655 . S
C4565 C284 2.040 . S
C4585 C372 1.831 . S
C4591 C1585 1.636 . S
C4611 C2279 0.884 . S
C4605 C557 1.722 . S
C4625 C665 1.775 . S
C4631 C2393 0.965 . S
C4645 C753 1.777 . S
C4651 C2497 1.309 . S
C4671 C2611 0.786 . S
C4665 C761 0.954 . S
C4685 C548 1.640 . S
C4691 C2735 0.861 . S
C4705 C673 1.099 . S
C4711 C2839 0.916 . S
C4725 C849 1.219 . S
C4731 C2849 0.852 1_565 S
C4745 C929 1.102 . S
C4751 C2621 0.822 1_455 S
C4771 C2725 1.593 . S
C4765 C1017 1.766 . S
C4785 C997 1.695 . S
C4791 C2383 1.526 . S
C4805 C812 1.906 . S
C4811 C2507 1.530 . S
C4831 C2269 1.747 . S
C4825 C909 1.936 . S
C4851 C2963 0.808 . S
C4845 C1085 1.197 . S
C4865 C1173 1.062 . S
C4871 C3077 0.775 . S
C4885 C1261 1.619 . S
C4891 C3181 1.114 . S
C4911 C3295 1.136 . S
C4905 C1252 1.561 . S
C4931 C3419 0.997 . S
C4925 C1076 1.790 . S
C4945 C1164 1.801 . S
C4951 C3523 1.280 . S
C4965 C1377 1.880 . S
C4971 C3533 1.475 . S
C4985 C1465 1.898 . S
C4991 C3305 1.527 . S
C5011 C3409 1.729 . S
C5005 C1545 1.900 . S
C5031 C3067 0.880 1_655 S
C5025 C1525 0.980 . S
C5051 C3191 1.425 . S
C5045 C1340 1.767 . S
C5065 C1428 1.127 . S
C5071 C2953 0.952 1_545 S
