# Generated by pormake.
# Topology ant, (3,6)-cn, num edge types: 1
# Building blocks:
#     Node 0, Type 0, BuildingBlock: BETDAH_clean_linker_0, # of connection points: 3
#     Node 1, Type 0, BuildingBlock: BETDAH_clean_linker_0, # of connection points: 3
#     Node 2, Type 0, BuildingBlock: BETDAH_clean_linker_0, # of connection points: 3
#     Node 3, Type 0, BuildingBlock: BETDAH_clean_linker_0, # of connection points: 3
#     Node 4, Type 0, BuildingBlock: BETDAH_clean_linker_0, # of connection points: 3
#     Node 5, Type 0, BuildingBlock: BETDAH_clean_linker_0, # of connection points: 3
#     Node 6, Type 0, BuildingBlock: BETDAH_clean_linker_0, # of connection points: 3
#     Node 7, Type 0, BuildingBlock: BETDAH_clean_linker_0, # of connection points: 3
#     Node 8, Type 1, BuildingBlock: MIDCAF_clean_sbu_0, # of connection points: 6
#     Node 9, Type 1, BuildingBlock: MIDCAF_clean_sbu_0, # of connection points: 6
#     Node 10, Type 1, BuildingBlock: MIDCAF_clean_sbu_0, # of connection points: 6
#     Node 11, Type 1, BuildingBlock: MIDCAF_clean_sbu_0, # of connection points: 6
#     Edge 12, Type (0, 1), BuildingBlock: MIFKUJ_clean_linker_0, # of connection points: 2
#     Edge 13, Type (0, 1), BuildingBlock: MIFKUJ_clean_linker_0, # of connection points: 2
#     Edge 14, Type (0, 1), BuildingBlock: MIFKUJ_clean_linker_0, # of connection points: 2
#     Edge 15, Type (0, 1), BuildingBlock: MIFKUJ_clean_linker_0, # of connection points: 2
#     Edge 16, Type (0, 1), BuildingBlock: MIFKUJ_clean_linker_0, # of connection points: 2
#     Edge 17, Type (0, 1), BuildingBlock: MIFKUJ_clean_linker_0, # of connection points: 2
#     Edge 18, Type (0, 1), BuildingBlock: MIFKUJ_clean_linker_0, # of connection points: 2
#     Edge 19, Type (0, 1), BuildingBlock: MIFKUJ_clean_linker_0, # of connection points: 2
#     Edge 20, Type (0, 1), BuildingBlock: MIFKUJ_clean_linker_0, # of connection points: 2
#     Edge 21, Type (0, 1), BuildingBlock: MIFKUJ_clean_linker_0, # of connection points: 2
#     Edge 22, Type (0, 1), BuildingBlock: MIFKUJ_clean_linker_0, # of connection points: 2
#     Edge 23, Type (0, 1), BuildingBlock: MIFKUJ_clean_linker_0, # of connection points: 2
#     Edge 24, Type (0, 1), BuildingBlock: MIFKUJ_clean_linker_0, # of connection points: 2
#     Edge 25, Type (0, 1), BuildingBlock: MIFKUJ_clean_linker_0, # of connection points: 2
#     Edge 26, Type (0, 1), BuildingBlock: MIFKUJ_clean_linker_0, # of connection points: 2
#     Edge 27, Type (0, 1), BuildingBlock: MIFKUJ_clean_linker_0, # of connection points: 2
#     Edge 28, Type (0, 1), BuildingBlock: MIFKUJ_clean_linker_0, # of connection points: 2
#     Edge 29, Type (0, 1), BuildingBlock: MIFKUJ_clean_linker_0, # of connection points: 2
#     Edge 30, Type (0, 1), BuildingBlock: MIFKUJ_clean_linker_0, # of connection points: 2
#     Edge 31, Type (0, 1), BuildingBlock: MIFKUJ_clean_linker_0, # of connection points: 2
#     Edge 32, Type (0, 1), BuildingBlock: MIFKUJ_clean_linker_0, # of connection points: 2
#     Edge 33, Type (0, 1), BuildingBlock: MIFKUJ_clean_linker_0, # of connection points: 2
#     Edge 34, Type (0, 1), BuildingBlock: MIFKUJ_clean_linker_0, # of connection points: 2
#     Edge 35, Type (0, 1), BuildingBlock: MIFKUJ_clean_linker_0, # of connection points: 2
# Relax obj value: 0.057
# Max RMSD: 0.149
# Mean RMSD: 0.094
data_MOF--net-ant--node1-MIDCAF_clean_sbu_0--node2-BETDAH_clean_linker_0--edge1-MIFKUJ_clean_linker_0
_symmetry_space_group_name_H-M    P1
_symmetry_Int_Tables_number       1
_symmetry_cell_setting            triclinic
loop_
_symmetry_equiv_pos_as_xyz
'x, y, z'
_cell_length_a     38.075833
_cell_length_b     37.864228
_cell_length_c     91.854509
_cell_angle_alpha  94.195036
_cell_angle_beta   97.888023
_cell_angle_gamma 89.663192
loop_
_atom_site_label
_atom_site_type_symbol
_atom_site_fract_x
_atom_site_fract_y
_atom_site_fract_z
_atom_type_partial_charge
H0 H 0.15805 0.28504 0.04682 0.0
H1 H 0.18638 0.18626 0.06559 0.0
H2 H 0.19166 0.28289 0.09346 0.0
C3 C 0.16693 0.27047 0.05637 0.0
C4 C 0.17407 0.28875 0.07034 0.0
C5 C 0.17137 0.23353 0.05455 0.0
C6 C 0.18302 0.21468 0.06694 0.0
C7 C 0.19009 0.23248 0.08103 0.0
C8 C 0.18561 0.26933 0.0826 0.0
N9 N 0.20199 0.21439 0.09383 0.0
C10 C 0.20553 0.17779 0.09417 0.0
H11 H 0.1691 0.79265 0.30198 0.0
H12 H 0.06091 0.79148 0.31036 0.0
H13 H 0.14523 0.80733 0.3465 0.0
C14 C 0.15011 0.79432 0.30978 0.0
C15 C 0.1621 0.80002 0.32493 0.0
C16 C 0.11381 0.79076 0.30446 0.0
C17 C 0.08891 0.79426 0.31442 0.0
C18 C 0.1004 0.80062 0.32962 0.0
C19 C 0.13679 0.80354 0.33473 0.0
N20 N 0.0764 0.80363 0.34018 0.0
C21 C 0.04042 0.79551 0.33733 0.0
H22 H 0.6917 0.78016 0.55086 0.0
H23 H 0.70943 0.67763 0.56775 0.0
H24 H 0.70852 0.77045 0.59767 0.0
C25 C 0.69744 0.76401 0.56016 0.0
C26 C 0.69989 0.78009 0.57454 0.0
C27 C 0.70083 0.72713 0.55761 0.0
C28 C 0.70672 0.70601 0.56968 0.0
C29 C 0.70965 0.72171 0.58418 0.0
C30 C 0.7061 0.75856 0.58648 0.0
N31 N 0.71627 0.70153 0.59674 0.0
C32 C 0.71973 0.66483 0.59637 0.0
H33 H 0.66461 0.29528 0.8045 0.0
H34 H 0.55597 0.3019 0.81222 0.0
H35 H 0.63979 0.31819 0.84855 0.0
C36 C 0.64539 0.29916 0.81214 0.0
C37 C 0.65714 0.30642 0.82726 0.0
C38 C 0.60908 0.29715 0.80665 0.0
C39 C 0.58398 0.30348 0.8164 0.0
C40 C 0.59516 0.3114 0.83154 0.0
C41 C 0.63159 0.313 0.83683 0.0
N42 N 0.57066 0.31754 0.84181 0.0
C43 C 0.53464 0.30932 0.839 0.0
H44 H 0.06247 0.64032 0.93082 0.0
H45 H 0.06939 0.75378 0.93138 0.0
H46 H 0.04331 0.69118 0.89019 0.0
C47 C 0.06085 0.66423 0.92494 0.0
C48 C 0.05279 0.66167 0.90955 0.0
C49 C 0.06661 0.69722 0.93287 0.0
C50 C 0.06498 0.72827 0.92526 0.0
C51 C 0.05623 0.72614 0.90979 0.0
C52 C 0.04981 0.69281 0.90208 0.0
N53 N 0.05294 0.75663 0.90153 0.0
C54 C 0.06319 0.79103 0.90677 0.0
H55 H 0.58923 0.796 0.19438 0.0
H56 H 0.69989 0.78938 0.18928 0.0
H57 H 0.62169 0.80527 0.15181 0.0
C58 C 0.61008 0.79668 0.18746 0.0
C59 C 0.60115 0.80142 0.1724 0.0
C60 C 0.6456 0.79208 0.19362 0.0
C61 C 0.67253 0.79301 0.18459 0.0
C62 C 0.66388 0.79769 0.16944 0.0
C63 C 0.62825 0.80174 0.16348 0.0
N64 N 0.68998 0.79823 0.15978 0.0
C65 C 0.72597 0.7916 0.16354 0.0
H66 H 0.57122 0.15594 0.43787 0.0
H67 H 0.5806 0.26839 0.43583 0.0
H68 H 0.54445 0.20238 0.39641 0.0
C69 C 0.56856 0.17895 0.43144 0.0
C70 C 0.55637 0.17485 0.41629 0.0
C71 C 0.57731 0.21244 0.43847 0.0
C72 C 0.57411 0.24253 0.4303 0.0
C73 C 0.56258 0.23889 0.41501 0.0
C74 C 0.55381 0.20503 0.40813 0.0
N75 N 0.55897 0.26843 0.40618 0.0
C76 C 0.5685 0.30334 0.41092 0.0
H77 H 0.09782 0.2848 0.69648 0.0
H78 H 0.20771 0.28807 0.69028 0.0
H79 H 0.12646 0.30442 0.65408 0.0
C80 C 0.11792 0.28774 0.68936 0.0
C81 C 0.1075 0.2945 0.67454 0.0
C82 C 0.15399 0.28543 0.69518 0.0
C83 C 0.17991 0.29021 0.68595 0.0
C84 C 0.16989 0.29727 0.67113 0.0
C85 C 0.13385 0.29964 0.66559 0.0
N86 N 0.19518 0.3018 0.66139 0.0
C87 C 0.23116 0.29442 0.66446 0.0
Zn88 Zn 0.19012 0.69988 0.13656 0.0
Zn89 Zn 0.10704 0.77941 0.10574 0.0
Zn90 Zn 0.15192 0.7391 0.1214 0.0
C91 C 0.11703 0.71847 0.08779 0.0
C92 C 0.17142 0.81719 0.11285 0.0
O93 O 0.13029 0.73588 0.1426 0.0
O94 O 0.17799 0.71698 0.15618 0.0
C95 C 0.15875 0.65508 0.1143 0.0
O96 O 0.13754 0.71036 0.09943 0.0
O97 O 0.10002 0.74715 0.08773 0.0
O98 O 0.14022 0.81989 0.10631 0.0
O99 O 0.1814 0.78874 0.11914 0.0
O100 O 0.17087 0.65353 0.12773 0.0
O101 O 0.15339 0.68561 0.109 0.0
O102 O 0.20568 0.76411 0.12563 0.0
O103 O 0.23587 0.71588 0.13118 0.0
C104 C 0.23554 0.74785 0.12812 0.0
O105 O 0.10378 0.74989 0.13274 0.0
O106 O 0.06823 0.78255 0.11802 0.0
C107 C 0.14709 0.72957 0.1553 0.0
C108 C 0.07422 0.76644 0.12963 0.0
Zn109 Zn 0.58383 0.68773 0.35439 0.0
Zn110 Zn 0.64901 0.78711 0.38906 0.0
Zn111 Zn 0.61322 0.73801 0.3729 0.0
C112 C 0.5863 0.81862 0.37786 0.0
C113 C 0.69218 0.76672 0.36885 0.0
O114 O 0.61212 0.68827 0.38496 0.0
O115 O 0.59493 0.64764 0.36685 0.0
C116 C 0.53203 0.74024 0.35904 0.0
O117 O 0.57804 0.78594 0.37394 0.0
O118 O 0.61728 0.82678 0.38382 0.0
O119 O 0.6944 0.78532 0.38091 0.0
O120 O 0.66344 0.74923 0.36396 0.0
O121 O 0.53589 0.70958 0.35305 0.0
O122 O 0.55868 0.75665 0.36671 0.0
O123 O 0.64009 0.7324 0.3526 0.0
O124 O 0.60992 0.69178 0.33749 0.0
C125 C 0.63433 0.71468 0.33993 0.0
O126 O 0.62569 0.71667 0.39483 0.0
O127 O 0.64546 0.7657 0.40785 0.0
C128 C 0.60562 0.65562 0.3803 0.0
C129 C 0.63609 0.73365 0.40734 0.0
Zn130 Zn 0.61429 0.26989 0.60878 0.0
Zn131 Zn 0.69049 0.18891 0.64226 0.0
Zn132 Zn 0.65699 0.22964 0.62505 0.0
C133 C 0.73963 0.2385 0.63627 0.0
C134 C 0.66475 0.14494 0.61827 0.0
O135 O 0.60786 0.24344 0.63541 0.0
O136 O 0.57348 0.27481 0.61975 0.0
C137 C 0.67961 0.30576 0.61588 0.0
O138 O 0.71121 0.25321 0.63022 0.0
O139 O 0.73788 0.20828 0.64111 0.0
O140 O 0.67616 0.14287 0.63174 0.0
O141 O 0.65861 0.17558 0.61315 0.0
O142 O 0.64833 0.30952 0.60959 0.0
O143 O 0.68884 0.27721 0.62223 0.0
O144 O 0.64363 0.19989 0.60316 0.0
O145 O 0.6083 0.23752 0.5909 0.0
C146 C 0.62435 0.2083 0.59125 0.0
O147 O 0.63247 0.22948 0.64596 0.0
O148 O 0.67221 0.20184 0.66086 0.0
C149 C 0.57856 0.25997 0.63169 0.0
C150 C 0.64401 0.21942 0.65889 0.0
Zn151 Zn 0.07507 0.18291 0.85167 0.0
Zn152 Zn 0.14432 0.26962 0.89261 0.0
Zn153 Zn 0.10711 0.22768 0.87188 0.0
C154 C 0.13184 0.20867 0.9058 0.0
C155 C 0.08084 0.30482 0.88278 0.0
O156 O 0.13552 0.22613 0.85218 0.0
O157 O 0.10015 0.19406 0.83515 0.0
C158 C 0.09704 0.14307 0.87517 0.0
O159 O 0.11774 0.19935 0.8925 0.0
O160 O 0.14487 0.2392 0.90908 0.0
O161 O 0.10983 0.30916 0.89123 0.0
O162 O 0.07415 0.27542 0.87491 0.0
O163 O 0.08653 0.13853 0.86152 0.0
O164 O 0.10382 0.17465 0.88119 0.0
O165 O 0.05286 0.24932 0.8664 0.0
O166 O 0.02747 0.20458 0.85206 0.0
C167 C 0.0251 0.23468 0.85877 0.0
O168 O 0.1577 0.24284 0.86393 0.0
O169 O 0.18825 0.2719 0.88335 0.0
C170 C 0.12733 0.21325 0.83875 0.0
C171 C 0.18632 0.25873 0.87024 0.0
H172 H 0.19306 0.33891 0.05265 0.0
H173 H 0.18564 0.4032 0.05562 0.0
H174 H 0.13834 0.39198 0.09509 0.0
H175 H 0.14488 0.32768 0.092 0.0
H176 H 0.10179 0.43875 0.07793 0.0
H177 H 0.2248 0.41805 0.09648 0.0
H178 H 0.28528 0.39581 0.09491 0.0
H179 H 0.29357 0.46023 0.05894 0.0
H180 H 0.23291 0.4825 0.06018 0.0
H181 H 0.1317 0.59559 0.12282 0.0
H182 H 0.12871 0.53661 0.11022 0.0
H183 H 0.16818 0.57792 0.07301 0.0
H184 H 0.17097 0.63777 0.08572 0.0
H185 H 0.20611 0.51896 0.08361 0.0
H186 H 0.08642 0.54708 0.06796 0.0
H187 H 0.0267 0.57038 0.07024 0.0
H188 H 0.01212 0.49301 0.10083 0.0
H189 H 0.072 0.46957 0.09893 0.0
C190 C 0.18077 0.35008 0.0619 0.0
C191 C 0.16964 0.32802 0.07211 0.0
C192 C 0.17679 0.38692 0.06363 0.0
C193 C 0.16166 0.40258 0.07564 0.0
C194 C 0.15011 0.3806 0.08574 0.0
C195 C 0.15417 0.34381 0.08403 0.0
C196 C 0.15821 0.44183 0.0779 0.0
C197 C 0.12463 0.45625 0.07923 0.0
C198 C 0.18776 0.46497 0.07905 0.0
C199 C 0.22417 0.45157 0.07829 0.0
C200 C 0.2394 0.42722 0.08815 0.0
C201 C 0.27373 0.41466 0.08734 0.0
C202 C 0.2932 0.4265 0.0768 0.0
C203 C 0.27842 0.45101 0.06708 0.0
C204 C 0.24407 0.46362 0.06783 0.0
C205 C 0.13901 0.59232 0.11181 0.0
C206 C 0.15142 0.62129 0.10523 0.0
C207 C 0.13722 0.55855 0.10459 0.0
C208 C 0.14807 0.55274 0.09063 0.0
C209 C 0.15952 0.58181 0.08375 0.0
C210 C 0.1608 0.616 0.09095 0.0
C211 C 0.14985 0.5157 0.08406 0.0
C212 C 0.18312 0.50159 0.08196 0.0
C213 C 0.12002 0.49284 0.0822 0.0
C214 C 0.08383 0.50666 0.08335 0.0
C215 C 0.07059 0.53517 0.07525 0.0
C216 C 0.03668 0.54839 0.07647 0.0
C217 C 0.01564 0.53321 0.08569 0.0
C218 C 0.02845 0.50473 0.09369 0.0
C219 C 0.06237 0.49143 0.09253 0.0
H220 H 0.98939 0.54348 0.08661 0.0
H221 H 0.31978 0.41677 0.0762 0.0
H222 H 0.99182 0.77833 0.31325 0.0
H223 H 0.9284 0.76547 0.31332 0.0
H224 H 0.943 0.78259 0.36076 0.0
H225 H 0.00594 0.79482 0.36064 0.0
H226 H 0.90307 0.72535 0.35223 0.0
H227 H 0.90868 0.84655 0.33749 0.0
H228 H 0.92222 0.89176 0.32102 0.0
H229 H 0.85425 0.83832 0.28506 0.0
H230 H 0.84069 0.79252 0.30128 0.0
H231 H 0.73813 0.82016 0.36742 0.0
H232 H 0.79253 0.81788 0.35611 0.0
H233 H 0.77033 0.70911 0.34033 0.0
H234 H 0.71547 0.7113 0.35173 0.0
H235 H 0.81043 0.80228 0.32783 0.0
H236 H 0.85242 0.66706 0.34703 0.0
H237 H 0.83903 0.6253 0.36498 0.0
H238 H 0.81269 0.71229 0.39415 0.0
H239 H 0.82635 0.75449 0.37646 0.0
C240 C 0.98124 0.77916 0.32363 0.0
C241 C 0.0033 0.78757 0.33695 0.0
C242 C 0.94515 0.77189 0.32368 0.0
C243 C 0.93088 0.77314 0.33705 0.0
C244 C 0.95336 0.78121 0.35032 0.0
C245 C 0.98922 0.78839 0.35026 0.0
C246 C 0.8925 0.76718 0.33753 0.0
C247 C 0.88278 0.74181 0.34668 0.0
C248 C 0.86584 0.78842 0.33026 0.0
C249 C 0.8741 0.81588 0.32053 0.0
C250 C 0.89689 0.84428 0.32604 0.0
C251 C 0.90452 0.87003 0.31675 0.0
C252 C 0.88922 0.86783 0.30199 0.0
C253 C 0.86618 0.83992 0.29648 0.0
C254 C 0.85852 0.81407 0.30571 0.0
C255 C 0.74458 0.79588 0.36137 0.0
C256 C 0.72273 0.76584 0.36051 0.0
C257 C 0.7755 0.79472 0.35479 0.0
C258 C 0.78553 0.76333 0.34741 0.0
C259 C 0.76303 0.7336 0.34598 0.0
C260 C 0.73175 0.73488 0.35247 0.0
C261 C 0.8214 0.76122 0.34283 0.0
C262 C 0.8306 0.78501 0.33293 0.0
C263 C 0.84771 0.73882 0.34953 0.0
C264 C 0.83995 0.71381 0.36035 0.0
C265 C 0.84383 0.67722 0.35729 0.0
C266 C 0.83621 0.6535 0.36742 0.0
C267 C 0.82488 0.66613 0.38067 0.0
C268 C 0.82132 0.70252 0.38386 0.0
C269 C 0.82898 0.72635 0.37378 0.0
H270 H 0.81895 0.64772 0.38849 0.0
H271 H 0.89514 0.8878 0.29482 0.0
H272 H 0.71707 0.63206 0.62108 0.0
H273 H 0.7225 0.56847 0.62423 0.0
H274 H 0.7366 0.54941 0.57848 0.0
H275 H 0.73058 0.61328 0.57532 0.0
H276 H 0.69088 0.50353 0.58558 0.0
H277 H 0.80658 0.54263 0.60652 0.0
H278 H 0.85154 0.57945 0.62255 0.0
H279 H 0.81261 0.54499 0.6609 0.0
H280 H 0.76705 0.50834 0.6451 0.0
H281 H 0.7134 0.32315 0.5934 0.0
H282 H 0.73434 0.38262 0.58993 0.0
H283 H 0.71684 0.41689 0.63419 0.0
H284 H 0.69703 0.35702 0.63776 0.0
H285 H 0.77107 0.45376 0.6262 0.0
H286 H 0.6511 0.42054 0.60475 0.0
H287 H 0.60601 0.38415 0.58854 0.0
H288 H 0.65389 0.40843 0.55075 0.0
H289 H 0.69964 0.44446 0.56678 0.0
C290 C 0.72148 0.6142 0.61174 0.0
C291 C 0.72345 0.62724 0.59798 0.0
C292 C 0.72485 0.57793 0.61356 0.0
C293 C 0.73056 0.55406 0.60166 0.0
C294 C 0.73242 0.56726 0.58785 0.0
C295 C 0.72899 0.60364 0.58603 0.0
C296 C 0.73271 0.51527 0.60353 0.0
C297 C 0.70898 0.4926 0.59427 0.0
C298 C 0.75585 0.50092 0.61505 0.0
C299 C 0.7832 0.52294 0.62461 0.0
C300 C 0.80741 0.54311 0.61837 0.0
C301 C 0.83304 0.56392 0.62742 0.0
C302 C 0.83488 0.56461 0.64273 0.0
C303 C 0.81114 0.54444 0.64903 0.0
C304 C 0.78543 0.52361 0.64004 0.0
C305 C 0.71584 0.34297 0.60261 0.0
C306 C 0.70413 0.33558 0.6159 0.0
C307 C 0.72733 0.37706 0.60057 0.0
C308 C 0.72624 0.40452 0.61166 0.0
C309 C 0.71779 0.39623 0.62545 0.0
C310 C 0.70672 0.36197 0.62754 0.0
C311 C 0.72904 0.44226 0.60833 0.0
C312 C 0.75347 0.46471 0.61736 0.0
C313 C 0.70657 0.4565 0.59658 0.0
C314 C 0.67899 0.43489 0.58697 0.0
C315 C 0.65216 0.4179 0.593 0.0
C316 C 0.62648 0.39735 0.58384 0.0
C317 C 0.62712 0.39398 0.56863 0.0
C318 C 0.65347 0.41106 0.56254 0.0
C319 C 0.67927 0.43152 0.57165 0.0
H320 H 0.60712 0.37829 0.56154 0.0
H321 H 0.85475 0.58073 0.64972 0.0
H322 H 0.70726 0.26189 0.81749 0.0
H323 H 0.77003 0.25928 0.82646 0.0
H324 H 0.75852 0.3435 0.85967 0.0
H325 H 0.69535 0.34802 0.85004 0.0
H326 H 0.82053 0.35104 0.84901 0.0
H327 H 0.76537 0.25809 0.86913 0.0
H328 H 0.72551 0.20723 0.8696 0.0
H329 H 0.78254 0.14616 0.83936 0.0
H330 H 0.82243 0.19681 0.83853 0.0
H331 H -0.00082 0.28484 0.87805 0.0
H332 H 0.93772 0.3065 0.87672 0.0
H333 H 0.91008 0.24361 0.83572 0.0
H334 H 0.97069 0.22255 0.83684 0.0
H335 H 0.86765 0.23083 0.85768 0.0
H336 H 0.91777 0.3312 0.83609 0.0
H337 H 0.95873 0.38206 0.83793 0.0
H338 H 0.91235 0.42906 0.87472 0.0
H339 H 0.87137 0.37819 0.87322 0.0
C340 C 0.71791 0.2805 0.8265 0.0
C341 C 0.69589 0.30528 0.83296 0.0
C342 C 0.75395 0.2786 0.83178 0.0
C343 C 0.76903 0.30068 0.84396 0.0
C344 C 0.74749 0.32599 0.85033 0.0
C345 C 0.71126 0.32825 0.8449 0.0
C346 C 0.80705 0.29606 0.85003 0.0
C347 C 0.83075 0.32487 0.85118 0.0
C348 C 0.82056 0.26211 0.85318 0.0
C349 C 0.79683 0.23135 0.85373 0.0
C350 C 0.76931 0.23388 0.86252 0.0
C351 C 0.74671 0.20508 0.86286 0.0
C352 C 0.75147 0.1735 0.85451 0.0
C353 C 0.77889 0.17063 0.84583 0.0
C354 C 0.80155 0.19937 0.84544 0.0
C355 C 0.98016 0.27641 0.8686 0.0
C356 C 0.98981 0.25187 0.85758 0.0
C357 C 0.94504 0.28862 0.8679 0.0
C358 C 0.91928 0.27637 0.85617 0.0
C359 C 0.92941 0.25314 0.84493 0.0
C360 C 0.96415 0.24111 0.8456 0.0
C361 C 0.88111 0.28521 0.85572 0.0
C362 C 0.85731 0.25711 0.85578 0.0
C363 C 0.86774 0.31981 0.85402 0.0
C364 C 0.89172 0.35075 0.85463 0.0
C365 C 0.91643 0.35227 0.84462 0.0
C366 C 0.93962 0.38112 0.84559 0.0
C367 C 0.93816 0.40874 0.85644 0.0
C368 C 0.91344 0.40763 0.86633 0.0
C369 C 0.8902 0.37882 0.86541 0.0
H370 H 0.95612 0.43104 0.85717 0.0
H371 H 0.73393 0.15123 0.85478 0.0
H372 H -0.00323 0.63688 0.88938 0.0
H373 H 0.98703 0.57574 0.87846 0.0
H374 H 0.08854 0.54573 0.90099 0.0
H375 H 0.09815 0.60628 0.91189 0.0
H376 H 0.07611 0.51524 0.87245 0.0
H377 H 0.01483 0.53407 0.91579 0.0
H378 H 0.97039 0.56256 0.92991 0.0
H379 H 0.88723 0.52879 0.89532 0.0
H380 H 0.93131 0.50053 0.88091 0.0
H381 H 0.06175 0.34801 0.90499 0.0
H382 H 0.03858 0.40791 0.90313 0.0
H383 H 0.02493 0.39212 0.8557 0.0
H384 H 0.04767 0.33141 0.85758 0.0
H385 H 0.98141 0.4466 0.88991 0.0
H386 H 0.06551 0.46523 0.84492 0.0
H387 H 0.11316 0.43523 0.83304 0.0
H388 H 0.15467 0.39278 0.87397 0.0
H389 H 0.10755 0.42286 0.88609 0.0
C390 C 0.01716 0.61726 0.89176 0.0
C391 C 0.04811 0.62616 0.90154 0.0
C392 C 0.01155 0.58241 0.88557 0.0
C393 C 0.03702 0.55614 0.88895 0.0
C394 C 0.06858 0.56553 0.89818 0.0
C395 C 0.07397 0.60007 0.90447 0.0
C396 C 0.03038 0.51824 0.88395 0.0
C397 C 0.05486 0.50039 0.87596 0.0
C398 C 0.00275 0.49871 0.88852 0.0
C399 C 0.97637 0.51572 0.89718 0.0
C400 C 0.9871 0.53304 0.91114 0.0
C401 C 0.96198 0.54908 0.9192 0.0
C402 C 0.92602 0.54762 0.91349 0.0
C403 C 0.9151 0.53001 0.89971 0.0
C404 C 0.94014 0.514 0.89159 0.0
C405 C 0.05239 0.3568 0.89418 0.0
C406 C 0.05674 0.33536 0.88144 0.0
C407 C 0.03905 0.39102 0.89311 0.0
C408 C 0.03052 0.40468 0.87928 0.0
C409 C 0.0315 0.3821 0.86648 0.0
C410 C 0.04436 0.34744 0.86756 0.0
C411 C 0.02751 0.44367 0.87869 0.0
C412 C 0.00151 0.46171 0.88574 0.0
C413 C 0.05396 0.4634 0.8734 0.0
C414 C 0.08286 0.44594 0.86633 0.0
C415 C 0.08491 0.44958 0.85137 0.0
C416 C 0.1118 0.43256 0.8446 0.0
C417 C 0.13686 0.41203 0.85274 0.0
C418 C 0.1352 0.40861 0.86767 0.0
C419 C 0.10842 0.42563 0.87449 0.0
H420 H 0.15761 0.39882 0.84749 0.0
H421 H 0.9066 0.56003 0.91975 0.0
H422 H 0.77807 0.83044 0.18029 0.0
H423 H 0.84223 0.82353 0.17992 0.0
H424 H 0.82226 0.73204 0.14902 0.0
H425 H 0.75837 0.73867 0.14965 0.0
H426 H 0.88072 0.72199 0.16808 0.0
H427 H 0.83448 0.81465 0.13742 0.0
H428 H 0.80364 0.87075 0.13223 0.0
H429 H 0.87895 0.92719 0.16462 0.0
H430 H 0.90999 0.87129 0.17013 0.0
H431 H 0.02146 0.71847 0.12514 0.0
H432 H 0.96632 0.72058 0.13604 0.0
H433 H 0.00539 0.81188 0.16443 0.0
H434 H 0.06043 0.81019 0.1531 0.0
H435 H 0.94106 0.82387 0.15098 0.0
H436 H 0.99446 0.72984 0.17707 0.0
H437 H 0.02689 0.67357 0.17906 0.0
H438 H 0.93744 0.61775 0.15455 0.0
H439 H 0.90547 0.67409 0.15145 0.0
C440 C 0.78762 0.80849 0.17369 0.0
C441 C 0.76366 0.78501 0.16501 0.0
C442 C 0.82417 0.80464 0.17341 0.0
C443 C 0.83713 0.77752 0.16428 0.0
C444 C 0.81301 0.75311 0.15616 0.0
C445 C 0.77655 0.75692 0.15649 0.0
C446 C 0.87529 0.77597 0.16225 0.0
C447 C 0.89394 0.74419 0.16431 0.0
C448 C 0.89285 0.80519 0.15762 0.0
C449 C 0.87427 0.83878 0.15432 0.0
C450 C 0.84429 0.839 0.14352 0.0
C451 C 0.8268 0.87075 0.1405 0.0
C452 C 0.83926 0.9025 0.14812 0.0
C453 C 0.86929 0.90257 0.15875 0.0
C454 C 0.88684 0.87087 0.16182 0.0
C455 C 0.01857 0.73834 0.134 0.0
C456 C 0.04516 0.76381 0.1385 0.0
C457 C 0.98708 0.73958 0.14024 0.0
C458 C 0.98169 0.7662 0.15119 0.0
C459 C 0.00893 0.79104 0.15603 0.0
C460 C 0.04041 0.78993 0.14968 0.0
C461 C 0.94651 0.76966 0.15657 0.0
C462 C 0.92828 0.80181 0.15508 0.0
C463 C 0.92932 0.74062 0.16156 0.0
C464 C 0.94772 0.70635 0.16393 0.0
C465 C 0.98186 0.70561 0.17198 0.0
C466 C 0.00016 0.67368 0.1733 0.0
C467 C 0.98413 0.64201 0.16709 0.0
C468 C 0.94983 0.64229 0.1594 0.0
C469 C 0.93169 0.6743 0.15776 0.0
H470 H -0.00168 0.61729 0.1682 0.0
H471 H 0.82569 0.92706 0.14577 0.0
H472 H 0.62149 0.33666 0.4009 0.0
H473 H 0.63184 0.40061 0.4019 0.0
H474 H 0.54466 0.41846 0.427 0.0
H475 H 0.53395 0.35419 0.42568 0.0
H476 H 0.53876 0.46085 0.40569 0.0
H477 H 0.63307 0.43475 0.4426 0.0
H478 H 0.6855 0.40347 0.45408 0.0
H479 H 0.74499 0.43405 0.42054 0.0
H480 H 0.69277 0.46508 0.40871 0.0
H481 H 0.57379 0.64538 0.40472 0.0
H482 H 0.57156 0.58921 0.41655 0.0
H483 H 0.64526 0.54306 0.38894 0.0
H484 H 0.6472 0.59867 0.37715 0.0
H485 H 0.65671 0.51908 0.41697 0.0
H486 H 0.55824 0.53475 0.37811 0.0
H487 H 0.50579 0.56608 0.36664 0.0
H488 H 0.45434 0.55511 0.40485 0.0
H489 H 0.50676 0.52411 0.41664 0.0
C490 C 0.60506 0.35428 0.40688 0.0
C491 C 0.57722 0.34072 0.41335 0.0
C492 C 0.61102 0.39085 0.40751 0.0
C493 C 0.58936 0.41463 0.41471 0.0
C494 C 0.56187 0.40082 0.42144 0.0
C495 C 0.55586 0.36415 0.42077 0.0
C496 C 0.59382 0.45372 0.41414 0.0
C497 C 0.56444 0.47367 0.40854 0.0
C498 C 0.62734 0.47071 0.41765 0.0
C499 C 0.65888 0.45207 0.42471 0.0
C500 C 0.65725 0.43459 0.4376 0.0
C501 C 0.68695 0.41694 0.44418 0.0
C502 C 0.71854 0.41672 0.43803 0.0
C503 C 0.7205 0.43423 0.42529 0.0
C504 C 0.69087 0.4519 0.41865 0.0
C505 C 0.59035 0.62353 0.40158 0.0
C506 C 0.61084 0.62627 0.39011 0.0
C507 C 0.5889 0.59141 0.40825 0.0
C508 C 0.60796 0.56171 0.40352 0.0
C509 C 0.63039 0.56549 0.39281 0.0
C510 C 0.63151 0.59729 0.38608 0.0
C511 C 0.60188 0.52566 0.40827 0.0
C512 C 0.63094 0.5063 0.41454 0.0
C513 C 0.56809 0.50919 0.40544 0.0
C514 C 0.53654 0.52755 0.39832 0.0
C515 C 0.53584 0.53927 0.38411 0.0
C516 C 0.50612 0.55692 0.37754 0.0
C517 C 0.4768 0.56269 0.38503 0.0
C518 C 0.47711 0.5507 0.39908 0.0
C519 C 0.50681 0.53309 0.40571 0.0
H520 H 0.4538 0.57635 0.37993 0.0
H521 H 0.74151 0.40304 0.44314 0.0
H522 H 0.07292 0.33971 0.65521 0.0
H523 H 0.01007 0.33874 0.64473 0.0
H524 H 0.99269 0.24956 0.66955 0.0
H525 H 0.05532 0.24965 0.67965 0.0
H526 H 0.96145 0.23885 0.64182 0.0
H527 H 0.96913 0.33516 0.68012 0.0
H528 H 0.99111 0.3926 0.69226 0.0
H529 H 0.95203 0.4443 0.65321 0.0
H530 H 0.93022 0.38704 0.64077 0.0
H531 H 0.79298 0.22884 0.65799 0.0
H532 H 0.85407 0.2486 0.66008 0.0
H533 H 0.82854 0.30721 0.62154 0.0
H534 H 0.76627 0.28695 0.61924 0.0
H535 H 0.88093 0.34003 0.64951 0.0
H536 H 0.86451 0.24217 0.61288 0.0
H537 H 0.84015 0.18402 0.60258 0.0
H538 H 0.89492 0.1347 0.63976 0.0
H539 H 0.91914 0.19265 0.65042 0.0
C540 C 0.05572 0.31976 0.65835 0.0
C541 C 0.06919 0.29484 0.66833 0.0
C542 C 0.01974 0.31942 0.65244 0.0
C543 C -0.00345 0.2942 0.6564 0.0
C544 C 0.01002 0.26928 0.66631 0.0
C545 C 0.04583 0.2696 0.6722 0.0
C546 C 0.95823 0.29315 0.65032 0.0
C547 C 0.94396 0.26109 0.64343 0.0
C548 C 0.93538 0.32245 0.65198 0.0
C549 C 0.94849 0.35679 0.65946 0.0
C550 C 0.96552 0.35874 0.67408 0.0
C551 C 0.97788 0.39126 0.68103 0.0
C552 C 0.97309 0.42206 0.67349 0.0
C553 C 0.95581 0.42041 0.65902 0.0
C554 C 0.94344 0.38794 0.65202 0.0
C555 C 0.80004 0.24629 0.65 0.0
C556 C 0.77485 0.25596 0.63832 0.0
C557 C 0.83502 0.25767 0.65128 0.0
C558 C 0.84588 0.27898 0.64089 0.0
C559 C 0.82055 0.29072 0.62966 0.0
C560 C 0.78507 0.27923 0.62838 0.0
C561 C 0.88439 0.28552 0.64144 0.0
C562 C 0.8987 0.31833 0.64739 0.0
C563 C 0.90741 0.2569 0.63898 0.0
C564 C 0.89353 0.22182 0.63247 0.0
C565 C 0.87119 0.21896 0.61891 0.0
C566 C 0.85742 0.18603 0.613 0.0
C567 C 0.86596 0.15569 0.62052 0.0
C568 C 0.88835 0.15822 0.63395 0.0
C569 C 0.90216 0.1911 0.63991 0.0
H570 H 0.85525 0.13023 0.61594 0.0
H571 H 0.98267 0.44722 0.67889 0.0
H572 H 0.28362 0.3255 0.684 0.0
H573 H 0.34775 0.31635 0.68422 0.0
H574 H 0.32629 0.23783 0.64759 0.0
H575 H 0.26247 0.24663 0.64758 0.0
H576 H 0.38107 0.21769 0.66677 0.0
H577 H 0.34536 0.32452 0.64254 0.0
H578 H 0.31942 0.38424 0.64118 0.0
H579 H 0.39537 0.42317 0.67768 0.0
H580 H 0.42148 0.36352 0.67936 0.0
H581 H 0.5202 0.21996 0.6243 0.0
H582 H 0.46578 0.22283 0.63563 0.0
H583 H 0.5144 0.30018 0.6691 0.0
H584 H 0.56901 0.29773 0.65741 0.0
H585 H 0.45092 0.32179 0.65732 0.0
H586 H 0.49429 0.21621 0.67741 0.0
H587 H 0.52223 0.15734 0.67667 0.0
H588 H 0.43168 0.11499 0.64779 0.0
H589 H 0.4042 0.17413 0.6477 0.0
C590 C 0.29282 0.30595 0.67619 0.0
C591 C 0.26855 0.28674 0.66576 0.0
C592 C 0.32932 0.30081 0.67627 0.0
C593 C 0.34188 0.27667 0.66581 0.0
C594 C 0.31731 0.25652 0.65578 0.0
C595 C 0.28092 0.2616 0.65574 0.0
C596 C 0.38033 0.27389 0.6645 0.0
C597 C 0.39638 0.24041 0.66469 0.0
C598 C 0.40066 0.3037 0.66222 0.0
C599 C 0.38505 0.33952 0.66119 0.0
C600 C 0.35633 0.34577 0.65034 0.0
C601 C 0.34164 0.3796 0.6495 0.0
C602 C 0.35566 0.40746 0.65937 0.0
C603 C 0.38448 0.40155 0.67007 0.0
C604 C 0.39924 0.36775 0.67097 0.0
C605 C 0.51945 0.23695 0.63428 0.0
C606 C 0.5487 0.25821 0.64017 0.0
C607 C 0.48843 0.23852 0.64078 0.0
C608 C 0.48604 0.26135 0.65336 0.0
C609 C 0.51567 0.28221 0.65946 0.0
C610 C 0.54683 0.2807 0.65286 0.0
C611 C 0.45149 0.26539 0.65917 0.0
C612 C 0.43606 0.29912 0.65979 0.0
C613 C 0.43171 0.23575 0.66211 0.0
C614 C 0.44741 0.19974 0.66247 0.0
C615 C 0.48058 0.19441 0.6708 0.0
C616 C 0.4963 0.16098 0.67053 0.0
C617 C 0.47865 0.13235 0.66227 0.0
C618 C 0.44531 0.13718 0.6542 0.0
C619 C 0.42972 0.17072 0.65426 0.0
H620 H 0.49082 0.10644 0.66211 0.0
H621 H 0.34426 0.43364 0.6587 0.0
H622 H 0.5518 0.84751 0.18158 0.0
H623 H 0.48886 0.85109 0.17171 0.0
H624 H 0.50215 0.76525 0.13934 0.0
H625 H 0.5654 0.76296 0.14875 0.0
H626 H 0.4584 0.80881 0.12701 0.0
H627 H 0.46741 0.75507 0.17323 0.0
H628 H 0.48514 0.75117 0.19991 0.0
H629 H 0.42528 0.84478 0.20895 0.0
H630 H 0.40758 0.84948 0.18228 0.0
H631 H 0.2935 0.71936 0.11809 0.0
H632 H 0.35411 0.74193 0.12303 0.0
H633 H 0.31728 0.83786 0.14423 0.0
H634 H 0.25589 0.81525 0.13909 0.0
H635 H 0.3706 0.80122 0.16186 0.0
H636 H 0.35056 0.84149 0.11367 0.0
H637 H 0.33192 0.83743 0.08685 0.0
H638 H 0.41177 0.75912 0.08107 0.0
H639 H 0.43046 0.76217 0.10789 0.0
C640 C 0.54123 0.82962 0.17229 0.0
C641 C 0.56338 0.80483 0.16597 0.0
C642 C 0.50521 0.83155 0.16668 0.0
C643 C 0.49033 0.80795 0.15494 0.0
C644 C 0.51278 0.78381 0.14839 0.0
C645 C 0.54894 0.78241 0.15379 0.0
C646 C 0.45131 0.80727 0.14982 0.0
C647 C 0.43924 0.80694 0.13463 0.0
C648 C 0.426 0.80568 0.15974 0.0
C649 C 0.43655 0.80288 0.17577 0.0
C650 C 0.45825 0.77496 0.18091 0.0
C651 C 0.46826 0.77259 0.19602 0.0
C652 C 0.45644 0.79778 0.20612 0.0
C653 C 0.43449 0.82534 0.20111 0.0
C654 C 0.42445 0.82787 0.186 0.0
C655 C 0.29815 0.74571 0.12344 0.0
C656 C 0.27005 0.76558 0.12822 0.0
C657 C 0.33283 0.7586 0.12624 0.0
C658 C 0.34029 0.79155 0.13402 0.0
C659 C 0.31206 0.81236 0.13819 0.0
C660 C 0.27704 0.79962 0.13514 0.0
C661 C 0.37787 0.80185 0.13906 0.0
C662 C 0.3897 0.80386 0.15426 0.0
C663 C 0.40294 0.80386 0.12909 0.0
C664 C 0.39192 0.80211 0.11287 0.0
C665 C 0.36407 0.8233 0.10671 0.0
C666 C 0.35347 0.82115 0.09149 0.0
C667 C 0.37068 0.79807 0.08226 0.0
C668 C 0.3985 0.77705 0.08823 0.0
C669 C 0.40913 0.77901 0.10346 0.0
H670 H 0.36245 0.79646 0.07047 0.0
H671 H 0.46421 0.7959 0.21782 0.0
H672 H 0.50563 0.27229 0.85803 0.0
H673 H 0.44265 0.26011 0.85814 0.0
H674 H 0.41688 0.3146 0.8184 0.0
H675 H 0.48035 0.32735 0.8185 0.0
H676 H 0.37332 0.33466 0.83763 0.0
H677 H 0.40899 0.22373 0.81761 0.0
H678 H 0.44594 0.17047 0.81531 0.0
H679 H 0.42396 0.14074 0.85738 0.0
H680 H 0.38729 0.1941 0.86005 0.0
H681 H 0.19333 0.28108 0.84292 0.0
H682 H 0.24901 0.28612 0.83227 0.0
H683 H 0.30704 0.24496 0.871 0.0
H684 H 0.25196 0.23966 0.88151 0.0
H685 H 0.32923 0.21567 0.84576 0.0
H686 H 0.30022 0.33274 0.86649 0.0
H687 H 0.26369 0.38649 0.86817 0.0
H688 H 0.27304 0.40438 0.82324 0.0
H689 H 0.30884 0.35017 0.82116 0.0
C690 C 0.48648 0.28129 0.84925 0.0
C691 C 0.49753 0.30047 0.83821 0.0
C692 C 0.45052 0.2742 0.84926 0.0
C693 C 0.4249 0.28592 0.83814 0.0
C694 C 0.43609 0.3051 0.82704 0.0
C695 C 0.47224 0.31227 0.82706 0.0
C696 C 0.38653 0.27942 0.83871 0.0
C697 C 0.36346 0.30848 0.83905 0.0
C698 C 0.37352 0.24531 0.8406 0.0
C699 C 0.39551 0.21307 0.83906 0.0
C700 C 0.41222 0.20597 0.82642 0.0
C701 C 0.43309 0.17573 0.82504 0.0
C702 C 0.43733 0.15226 0.83619 0.0
C703 C 0.42065 0.15895 0.84874 0.0
C704 C 0.39976 0.18916 0.85018 0.0
C705 C 0.21795 0.27241 0.84894 0.0
C706 C 0.21845 0.2595 0.86292 0.0
C707 C 0.24968 0.2756 0.84293 0.0
C708 C 0.28219 0.26596 0.85083 0.0
C709 C 0.28234 0.25238 0.86465 0.0
C710 C 0.25089 0.24947 0.87067 0.0
C711 C 0.3166 0.27107 0.84528 0.0
C712 C 0.3389 0.24169 0.84398 0.0
C713 C 0.32873 0.30482 0.84238 0.0
C714 C 0.30678 0.33711 0.8436 0.0
C715 C 0.29411 0.34787 0.85691 0.0
C716 C 0.27358 0.37846 0.85794 0.0
C717 C 0.266 0.39881 0.84581 0.0
C718 C 0.27895 0.38861 0.83263 0.0
C719 C 0.29923 0.35788 0.8315 0.0
H720 H 0.2501 0.42247 0.84663 0.0
H721 H 0.4535 0.12886 0.83511 0.0
H722 H 0.21381 0.75995 0.31388 0.0
H723 H 0.27663 0.7587 0.32285 0.0
H724 H 0.262 0.8365 0.35818 0.0
H725 H 0.19879 0.83995 0.34857 0.0
H726 H 0.32352 0.84863 0.34835 0.0
H727 H 0.27091 0.74916 0.36491 0.0
H728 H 0.23275 0.69632 0.36356 0.0
H729 H 0.29285 0.6434 0.33225 0.0
H730 H 0.33107 0.69611 0.33323 0.0
H731 H 0.50202 0.78675 0.37814 0.0
H732 H 0.43958 0.80559 0.37588 0.0
H733 H 0.41915 0.74635 0.33364 0.0
H734 H 0.48091 0.72802 0.33578 0.0
H735 H 0.37454 0.72863 0.35368 0.0
H736 H 0.42338 0.83585 0.33657 0.0
H737 H 0.46278 0.88817 0.34092 0.0
H738 H 0.41047 0.92579 0.37757 0.0
H739 H 0.37112 0.87338 0.37358 0.0
C740 C 0.22378 0.77753 0.32336 0.0
C741 C 0.2009 0.80011 0.33045 0.0
C742 C 0.25984 0.77636 0.32863 0.0
C743 C 0.27401 0.79689 0.3414 0.0
C744 C 0.25163 0.82018 0.34837 0.0
C745 C 0.2154 0.8218 0.34295 0.0
C746 C 0.31197 0.79272 0.34749 0.0
C747 C 0.3346 0.82244 0.34976 0.0
C748 C 0.32651 0.75868 0.34967 0.0
C749 C 0.30378 0.7267 0.34911 0.0
C750 C 0.27588 0.72633 0.35768 0.0
C751 C 0.25424 0.69639 0.35698 0.0
C752 C 0.26035 0.66654 0.34781 0.0
C753 C 0.28816 0.66654 0.33935 0.0
C754 C 0.30986 0.69643 0.33999 0.0
C755 C 0.48434 0.77875 0.36822 0.0
C756 C 0.49627 0.75603 0.35714 0.0
C757 C 0.44869 0.78924 0.36698 0.0
C758 C 0.42472 0.77712 0.35462 0.0
C759 C 0.43713 0.75575 0.34331 0.0
C760 C 0.47245 0.74532 0.34455 0.0
C761 C 0.38615 0.78415 0.35359 0.0
C762 C 0.36335 0.75485 0.35245 0.0
C763 C 0.37164 0.81854 0.35284 0.0
C764 C 0.39451 0.85056 0.35485 0.0
C765 C 0.42039 0.85519 0.3456 0.0
C766 C 0.44271 0.88485 0.348 0.0
C767 C 0.43915 0.91023 0.35953 0.0
C768 C 0.41319 0.90608 0.36865 0.0
C769 C 0.39086 0.87643 0.36631 0.0
H770 H 0.45639 0.93317 0.36136 0.0
H771 H 0.24356 0.64339 0.34729 0.0
H772 H 0.66247 0.816 0.59437 0.0
H773 H 0.65339 0.87988 0.59781 0.0
H774 H 0.71671 0.89667 0.56342 0.0
H775 H 0.72665 0.83278 0.56017 0.0
H776 H 0.73335 0.94432 0.58649 0.0
H777 H 0.62734 0.90325 0.55675 0.0
H778 H 0.57446 0.86547 0.54937 0.0
H779 H 0.53322 0.90127 0.58909 0.0
H780 H 0.58614 0.93887 0.59683 0.0
H781 H 0.68627 0.12742 0.59131 0.0
H782 H 0.68811 0.06729 0.57921 0.0
H783 H 0.634 0.02684 0.61284 0.0
H784 H 0.63229 0.08636 0.62483 0.0
H785 H 0.6119 0.99314 0.5856 0.0
H786 H 0.72245 0.02672 0.61656 0.0
H787 H 0.77552 0.06428 0.62399 0.0
H788 H 0.80781 0.04241 0.58126 0.0
H789 H 0.7546 0.00509 0.57352 0.0
C790 C 0.67478 0.83327 0.58764 0.0
C791 C 0.69521 0.81917 0.57696 0.0
C792 C 0.66924 0.86981 0.5895 0.0
C793 C 0.6839 0.89314 0.58071 0.0
C794 C 0.70492 0.87924 0.57026 0.0
C795 C 0.71039 0.84267 0.56836 0.0
C796 C 0.67752 0.93201 0.5826 0.0
C797 C 0.70675 0.95504 0.58599 0.0
C798 C 0.64286 0.94614 0.58205 0.0
C799 C 0.61087 0.92369 0.57742 0.0
C800 C 0.60713 0.90288 0.56397 0.0
C801 C 0.57713 0.88152 0.55971 0.0
C802 C 0.55053 0.88092 0.56876 0.0
C803 C 0.55386 0.90174 0.58209 0.0
C804 C 0.58384 0.92312 0.58641 0.0
C805 C 0.67371 0.10582 0.59576 0.0
C806 C 0.65902 0.11145 0.60895 0.0
C807 C 0.67508 0.07146 0.58895 0.0
C808 C 0.66152 0.04245 0.59522 0.0
C809 C 0.6446 0.04868 0.60779 0.0
C810 C 0.64366 0.08273 0.61464 0.0
C811 C 0.66769 0.0052 0.58979 0.0
C812 C 0.63843 0.98244 0.58578 0.0
C813 C 0.7023 0.99132 0.58972 0.0
C814 C 0.73436 0.01352 0.59441 0.0
C815 C 0.74073 0.03016 0.60872 0.0
C816 C 0.77084 0.05136 0.61299 0.0
C817 C 0.79496 0.05582 0.60309 0.0
C818 C 0.78906 0.039 0.58891 0.0
C819 C 0.75894 0.01782 0.58457 0.0
H820 H 0.81827 0.07222 0.60642 0.0
H821 H 0.52732 0.86437 0.56545 0.0
H822 H 0.15913 0.12558 0.08327 0.0
H823 H 0.16384 0.06273 0.08828 0.0
H824 H 0.2652 0.08335 0.11484 0.0
H825 H 0.26056 0.14609 0.10965 0.0
H826 H 0.26694 0.0216 0.09863 0.0
H827 H 0.19119 0.07581 0.13112 0.0
H828 H 0.14056 0.11121 0.13793 0.0
H829 H 0.06815 0.03856 0.11121 0.0
H830 H 0.11839 0.00298 0.10407 0.0
H831 H 0.19374 0.86121 0.13695 0.0
H832 H 0.21261 0.92303 0.13648 0.0
H833 H 0.21704 0.90643 0.08982 0.0
H834 H 0.19742 0.8451 0.09026 0.0
H835 H 0.16875 0.96781 0.11989 0.0
H836 H 0.27701 0.9654 0.08077 0.0
H837 H 0.33159 0.93269 0.07686 0.0
H838 H 0.34458 0.90448 0.12172 0.0
H839 H 0.29007 0.93678 0.12585 0.0
C840 C 0.18252 0.11647 0.09004 0.0
C841 C 0.2095 0.14033 0.0961 0.0
C842 C 0.18515 0.08068 0.09296 0.0
C843 C 0.21469 0.06831 0.10211 0.0
C844 C 0.24218 0.09218 0.10777 0.0
C845 C 0.23951 0.12796 0.10483 0.0
C846 C 0.21629 0.03085 0.10616 0.0
C847 C 0.24546 0.00984 0.10326 0.0
C848 C 0.18886 0.01566 0.11266 0.0
C849 C 0.15857 0.0369 0.11696 0.0
C850 C 0.16448 0.06752 0.12661 0.0
C851 C 0.13585 0.0876 0.13054 0.0
C852 C 0.10117 0.07718 0.12498 0.0
C853 C 0.09503 0.04661 0.1155 0.0
C854 C 0.12357 0.02647 0.11152 0.0
C855 C 0.20038 0.8704 0.12677 0.0
C856 C 0.19464 0.84843 0.11368 0.0
C857 C 0.21079 0.90577 0.12646 0.0
C858 C 0.21615 0.91942 0.1131 0.0
C859 C 0.21344 0.89647 0.10028 0.0
C860 C 0.20242 0.86137 0.10054 0.0
C861 C 0.21888 0.95829 0.11196 0.0
C862 C 0.19036 0.97959 0.11533 0.0
C863 C 0.24719 0.97382 0.10618 0.0
C864 C 0.27931 0.95332 0.10358 0.0
C865 C 0.29147 0.95213 0.08977 0.0
C866 C 0.32237 0.93359 0.08751 0.0
C867 C 0.3415 0.91643 0.09902 0.0
C868 C 0.32963 0.91755 0.11277 0.0
C869 C 0.29863 0.93581 0.11506 0.0
H870 H 0.36557 0.90237 0.09728 0.0
H871 H 0.07904 0.09275 0.12804 0.0
H872 H 0.574 0.14353 0.39034 0.0
H873 H 0.56339 0.08198 0.38054 0.0
H874 H 0.50587 0.06339 0.4166 0.0
H875 H 0.51667 0.1246 0.42646 0.0
H876 H 0.55356 0.01442 0.41433 0.0
H877 H 0.46429 0.06438 0.38021 0.0
H878 H 0.43964 0.10487 0.3616 0.0
H879 H 0.51154 0.06376 0.33245 0.0
H880 H 0.53699 0.02336 0.35097 0.0
H881 H 0.53102 0.83688 0.39284 0.0
H882 H 0.50731 0.89695 0.39561 0.0
H883 H 0.56644 0.9289 0.36191 0.0
H884 H 0.58865 0.86862 0.3587 0.0
H885 H 0.51002 0.97068 0.36283 0.0
H886 H 0.60468 0.92913 0.39796 0.0
H887 H 0.63174 0.88909 0.41633 0.0
H888 H 0.55096 0.91594 0.44354 0.0
H889 H 0.52311 0.95574 0.4252 0.0
C890 C 0.55849 0.12649 0.396 0.0
C891 C 0.54648 0.13888 0.40925 0.0
C892 C 0.55235 0.09128 0.39037 0.0
C893 C 0.53367 0.06789 0.39778 0.0
C894 C 0.52047 0.08074 0.41069 0.0
C895 C 0.52676 0.11575 0.41635 0.0
C896 C 0.53064 0.02941 0.3929 0.0
C897 C 0.54312 0.00492 0.40315 0.0
C898 C 0.518 0.0168 0.37822 0.0
C899 C 0.50275 0.04103 0.36704 0.0
C900 C 0.47505 0.06416 0.36988 0.0
C901 C 0.46089 0.08706 0.35933 0.0
C902 C 0.47407 0.08694 0.34586 0.0
C903 C 0.50138 0.06385 0.34289 0.0
C904 C 0.51565 0.04091 0.35341 0.0
C905 C 0.537 0.85613 0.38536 0.0
C906 C 0.56121 0.84803 0.3754 0.0
C907 C 0.52398 0.89069 0.38712 0.0
C908 C 0.53598 0.9178 0.37929 0.0
C909 C 0.55691 0.90865 0.36815 0.0
C910 C 0.56951 0.87408 0.36627 0.0
C911 C 0.5324 0.95587 0.38433 0.0
C912 C 0.51932 0.98026 0.3741 0.0
C913 C 0.54465 0.96859 0.39904 0.0
C914 C 0.5616 0.94505 0.41015 0.0
C915 C 0.5926 0.92632 0.40783 0.0
C916 C 0.60807 0.90368 0.41823 0.0
C917 C 0.59302 0.89989 0.43108 0.0
C918 C 0.56253 0.91883 0.43357 0.0
C919 C 0.54688 0.94142 0.42318 0.0
H920 H 0.60504 0.88235 0.43912 0.0
H921 H 0.46308 0.10469 0.33771 0.0
H922 H 0.10547 0.82485 0.89141 0.0
H923 H 0.11697 0.88846 0.89257 0.0
H924 H 0.05406 0.90479 0.92815 0.0
H925 H 0.04177 0.84067 0.92665 0.0
H926 H 0.03609 0.95138 0.90908 0.0
H927 H 0.14657 0.91761 0.9338 0.0
H928 H 0.20129 0.88285 0.93876 0.0
H929 H 0.23477 0.91305 0.89864 0.0
H930 H 0.18001 0.94759 0.89332 0.0
H931 H 0.07914 0.13435 0.90272 0.0
H932 H 0.07982 0.07869 0.91504 0.0
H933 H 0.12408 0.02466 0.87879 0.0
H934 H 0.12366 0.07987 0.86665 0.0
H935 H 0.15419 0.00236 0.90576 0.0
H936 H 0.03593 0.02618 0.87983 0.0
H937 H 0.98145 0.06177 0.87584 0.0
H938 H 0.964 0.05119 0.92052 0.0
H939 H 0.01862 0.01579 0.9248 0.0
C940 C 0.09469 0.84199 0.89966 0.0
C941 C 0.07315 0.82807 0.90905 0.0
C942 C 0.10138 0.87838 0.90038 0.0
C943 C 0.08695 0.90164 0.91063 0.0
C944 C 0.06573 0.88749 0.92022 0.0
C945 C 0.05887 0.85092 0.91943 0.0
C946 C 0.0921 0.94071 0.91042 0.0
C947 C 0.06209 0.96263 0.90876 0.0
C948 C 0.12593 0.95576 0.91 0.0
C949 C 0.15904 0.93509 0.91313 0.0
C950 C 0.16548 0.91667 0.92598 0.0
C951 C 0.19653 0.89702 0.92887 0.0
C952 C 0.22147 0.89571 0.91901 0.0
C953 C 0.21543 0.9141 0.90627 0.0
C954 C 0.18441 0.93378 0.90333 0.0
C955 C 0.09002 0.11079 0.89767 0.0
C956 C 0.10161 0.11144 0.88381 0.0
C957 C 0.09007 0.07893 0.90462 0.0
C958 C 0.10185 0.04737 0.89781 0.0
C959 C 0.11498 0.04858 0.88431 0.0
C960 C 0.11459 0.08014 0.87734 0.0
C961 C 0.09814 0.01229 0.90381 0.0
C962 C 0.12841 0.99117 0.90654 0.0
C963 C 0.06466 -0.0019 0.9054 0.0
C964 C 0.03162 0.01888 0.90271 0.0
C965 C 0.02061 0.03169 0.88883 0.0
C966 C 0.98968 0.05177 0.88651 0.0
C967 C 0.96936 0.05888 0.89794 0.0
C968 C 0.97983 0.04577 0.9117 0.0
C969 C 0.01076 0.0257 0.91407 0.0
H970 H 0.94543 0.07444 0.89612 0.0
H971 H 0.2455 0.88048 0.92126 0.0
H972 H 0.21357 0.18499 0.04188 0.0
H973 H 0.20571 0.15976 0.01628 0.0
H974 H 0.10667 0.21536 0.00787 0.0
H975 H 0.11427 0.2405 0.03344 0.0
H976 H 0.10598 0.14539 0.99321 0.0
H977 H 0.17743 0.25362 0.00073 0.0
H978 H 0.22838 0.28997 0.01265 0.0
H979 H 0.30018 0.211 0.9984 0.0
H980 H 0.24956 0.17394 0.98658 0.0
H981 H 0.07852 0.20317 0.92187 0.0
H982 H 0.08471 0.18482 0.94699 0.0
H983 H 0.19017 0.14663 0.94274 0.0
H984 H 0.18415 0.16633 0.91767 0.0
H985 H 0.19365 0.19302 0.96439 0.0
H986 H 0.12263 0.09101 0.95173 0.0
H987 H 0.07232 0.05403 0.93974 0.0
H988 H 0.00089 0.11752 0.96283 0.0
H989 H 0.05072 0.15508 0.97491 0.0
C990 C 0.18975 0.1912 0.03465 0.0
C991 C 0.16471 0.21502 0.0396 0.0
C992 C 0.18531 0.17679 0.02005 0.0
C993 C 0.15568 0.18582 0.01017 0.0
C994 C 0.12965 0.20795 0.01532 0.0
C995 C 0.13422 0.22259 0.02987 0.0
C996 C 0.15378 0.17599 0.99415 0.0
C997 C 0.12507 0.15565 0.98683 0.0
C998 C 0.17939 0.18843 0.98596 0.0
C999 C 0.20976 0.21084 0.99295 0.0
C1000 C 0.20409 0.2439 0.00025 0.0
C1001 C 0.23289 0.26464 0.00697 0.0
C1002 C 0.26749 0.25275 0.00633 0.0
C1003 C 0.27336 0.22014 -0.00108 0.0
C1004 C 0.24463 0.19925 0.99221 0.0
C1005 C 0.10228 0.18925 0.92608 0.0
C1006 C 0.13071 0.18571 0.91789 0.0
C1007 C 0.10587 0.17869 0.94046 0.0
C1008 C 0.13797 0.16426 0.94685 0.0
C1009 C 0.16518 0.15769 0.93809 0.0
C1010 C 0.16167 0.16861 0.92374 0.0
C1011 C 0.14526 0.16286 0.96315 0.0
C1012 C 0.17497 0.1815 0.97063 0.0
C1013 C 0.12069 0.14852 0.97142 0.0
C1014 C 0.09049 0.12598 0.96421 0.0
C1015 C 0.09618 0.09725 0.9542 0.0
C1016 C 0.06772 0.07615 0.94739 0.0
C1017 C 0.03341 0.08348 0.95049 0.0
C1018 C 0.0275 0.11187 0.96044 0.0
C1019 C 0.05587 0.13301 0.96732 0.0
H1020 H 0.01141 0.06712 0.94523 0.0
H1021 H 0.28976 0.26885 0.01153 0.0
H1022 H 0.14005 0.73923 0.28694 0.0
H1023 H 0.12855 0.73004 0.26017 0.0
H1024 H 0.05092 0.81364 0.25895 0.0
H1025 H 0.06284 0.8233 0.28595 0.0
H1026 H 0.07274 0.71352 0.23942 0.0
H1027 H 0.06265 0.85979 0.22851 0.0
H1028 H 0.07785 0.91862 0.24117 0.0
H1029 H 0.16578 0.87358 0.26792 0.0
H1030 H 0.15133 0.81465 0.2553 0.0
H1031 H 0.0784 0.72174 0.16092 0.0
H1032 H 0.05625 0.73462 0.18475 0.0
H1033 H 0.16063 0.76978 0.20439 0.0
H1034 H 0.1826 0.75746 0.18086 0.0
H1035 H 0.10851 0.81395 0.21287 0.0
H1036 H 0.1329 0.68831 0.20607 0.0
H1037 H 0.12447 0.62718 0.19502 0.0
H1038 H 0.01801 0.6267 0.2055 0.0
H1039 H 0.02535 0.68838 0.21613 0.0
C1040 C 0.12025 0.75541 0.28098 0.0
C1041 C 0.10273 0.78233 0.28847 0.0
C1042 C 0.11345 0.74993 0.26569 0.0
C1043 C 0.08911 0.77134 0.25753 0.0
C1044 C 0.07 0.79698 0.26503 0.0
C1045 C 0.07672 0.8024 0.28043 0.0
C1046 C 0.08697 0.76874 0.24123 0.0
C1047 C 0.0798 0.73563 0.23351 0.0
C1048 C 0.09639 0.79754 0.23356 0.0
C1049 C 0.10559 0.83283 0.24111 0.0
C1050 C 0.08524 0.86251 0.23709 0.0
C1051 C 0.09374 0.89585 0.24425 0.0
C1052 C 0.12268 0.8998 0.25539 0.0
C1053 C 0.14329 0.87046 0.25934 0.0
C1054 C 0.13495 0.83709 0.25219 0.0
C1055 C 0.09626 0.73296 0.17027 0.0
C1056 C 0.13211 0.73891 0.16906 0.0
C1057 C 0.08368 0.73997 0.18386 0.0
C1058 C 0.10677 0.75311 0.19631 0.0
C1059 C 0.14228 0.75985 0.19493 0.0
C1060 C 0.15486 0.75258 0.18149 0.0
C1061 C 0.09527 0.75842 0.2111 0.0
C1062 C 0.09991 0.79212 0.21857 0.0
C1063 C 0.08417 0.72991 0.21858 0.0
C1064 C 0.07941 0.69333 0.21159 0.0
C1065 C 0.10743 0.6755 0.20574 0.0
C1066 C 0.10288 0.64068 0.19959 0.0
C1067 C 0.07067 0.62312 0.19949 0.0
C1068 C 0.04293 0.64035 0.20556 0.0
C1069 C 0.0472 0.67533 0.21156 0.0
H1070 H 0.06724 0.59613 0.19476 0.0
H1071 H 0.12918 0.92562 0.26093 0.0
H1072 H 0.73279 0.74879 0.53504 0.0
H1073 H 0.7201 0.729 0.50897 0.0
H1074 H 0.64838 0.64954 0.51922 0.0
H1075 H 0.66067 0.66975 0.54544 0.0
H1076 H 0.72359 0.66876 0.49118 0.0
H1077 H 0.57522 0.65097 0.4923 0.0
H1078 H 0.52916 0.66805 0.50794 0.0
H1079 H 0.58695 0.76322 0.52411 0.0
H1080 H 0.63303 0.74689 0.50842 0.0
H1081 H 0.65417 0.6656 0.41434 0.0
H1082 H 0.66018 0.64303 0.43906 0.0
H1083 H 0.62549 0.74409 0.45673 0.0
H1084 H 0.61851 0.76589 0.43231 0.0
H1085 H 0.5995 0.69304 0.47013 0.0
H1086 H 0.71533 0.72384 0.45599 0.0
H1087 H 0.76283 0.71539 0.44029 0.0
H1088 H 0.77249 0.60642 0.45029 0.0
H1089 H 0.72479 0.61423 0.46595 0.0
C1090 C 0.71467 0.72679 0.53176 0.0
C1091 C 0.69731 0.71116 0.54223 0.0
C1092 C 0.70771 0.71525 0.51687 0.0
C1093 C 0.68307 0.68799 0.51211 0.0
C1094 C 0.66735 0.67075 0.52265 0.0
C1095 C 0.67445 0.68224 0.53761 0.0
C1096 C 0.67099 0.6812 0.49608 0.0
C1097 C 0.69629 0.67328 0.48657 0.0
C1098 C 0.63541 0.68718 0.49002 0.0
C1099 C 0.60774 0.69743 0.49937 0.0
C1100 C 0.57802 0.67553 0.49919 0.0
C1101 C 0.55192 0.6851 0.50805 0.0
C1102 C 0.55521 0.71662 0.51706 0.0
C1103 C 0.58451 0.73874 0.51717 0.0
C1104 C 0.61062 0.72934 0.50831 0.0
C1105 C 0.64678 0.6824 0.42346 0.0
C1106 C 0.63582 0.71741 0.42145 0.0
C1107 C 0.65052 0.66967 0.43758 0.0
C1108 C 0.6435 0.69196 0.4498 0.0
C1109 C 0.63089 0.72627 0.44753 0.0
C1110 C 0.62719 0.73884 0.43356 0.0
C1111 C 0.65237 0.68199 0.46522 0.0
C1112 C 0.62645 0.68677 0.47468 0.0
C1113 C 0.68753 0.67404 0.47123 0.0
C1114 C 0.71634 0.6695 0.46198 0.0
C1115 C 0.72752 0.69806 0.45478 0.0
C1116 C 0.75445 0.69339 0.4459 0.0
C1117 C 0.77059 0.66036 0.44426 0.0
C1118 C 0.75991 0.63196 0.45154 0.0
C1119 C 0.73295 0.63649 0.46042 0.0
H1120 H 0.79143 0.65678 0.43738 0.0
H1121 H 0.535 0.72395 0.52393 0.0
H1122 H 0.63368 0.24315 0.78973 0.0
H1123 H 0.62197 0.2321 0.76301 0.0
H1124 H 0.54761 0.3186 0.76069 0.0
H1125 H 0.55974 0.33013 0.7876 0.0
H1126 H 0.5653 0.21632 0.74226 0.0
H1127 H 0.56163 0.36184 0.72984 0.0
H1128 H 0.57955 0.42068 0.74186 0.0
H1129 H 0.66541 0.37349 0.76902 0.0
H1130 H 0.64824 0.31452 0.75702 0.0
H1131 H 0.57501 0.21186 0.66422 0.0
H1132 H 0.55186 0.2289 0.68755 0.0
H1133 H 0.6548 0.26998 0.70634 0.0
H1134 H 0.67751 0.25385 0.68324 0.0
H1135 H 0.60519 0.31281 0.71458 0.0
H1136 H 0.62559 0.18486 0.71078 0.0
H1137 H 0.61456 0.12365 0.70003 0.0
H1138 H 0.5053 0.13212 0.70669 0.0
H1139 H 0.51556 0.19366 0.71721 0.0
C1140 C 0.61457 0.25961 0.78355 0.0
C1141 C 0.59802 0.28784 0.7907 0.0
C1142 C 0.60762 0.25305 0.76829 0.0
C1143 C 0.58413 0.27468 0.75982 0.0
C1144 C 0.56601 0.30172 0.767 0.0
C1145 C 0.57286 0.30821 0.78235 0.0
C1146 C 0.58196 0.27083 0.74352 0.0
C1147 C 0.57334 0.2376 0.73612 0.0
C1148 C 0.59253 0.29852 0.7355 0.0
C1149 C 0.60332 0.33381 0.74269 0.0
C1150 C 0.58434 0.36409 0.73837 0.0
C1151 C 0.59438 0.39744 0.74517 0.0
C1152 C 0.62351 0.4008 0.75624 0.0
C1153 C 0.64277 0.37084 0.76049 0.0
C1154 C 0.63288 0.33746 0.7537 0.0
C1155 C 0.59224 0.22534 0.67326 0.0
C1156 C 0.62786 0.23201 0.67197 0.0
C1157 C 0.57911 0.23478 0.68656 0.0
C1158 C 0.60154 0.2507 0.69869 0.0
C1159 C 0.63684 0.25805 0.69714 0.0
C1160 C 0.64987 0.24866 0.68397 0.0
C1161 C 0.58983 0.25787 0.71341 0.0
C1162 C 0.59575 0.29185 0.72053 0.0
C1163 C 0.57747 0.23063 0.72122 0.0
C1164 C 0.57122 0.19397 0.71458 0.0
C1165 C 0.59914 0.17379 0.7098 0.0
C1166 C 0.59304 0.13902 0.70377 0.0
C1167 C 0.55925 0.12401 0.70267 0.0
C1168 C 0.53147 0.14376 0.70757 0.0
C1169 C 0.53737 0.17862 0.71351 0.0
H1170 H 0.55458 0.09709 0.69801 0.0
H1171 H 0.63121 0.42663 0.7615 0.0
H1172 H 0.02333 0.67259 0.95088 0.0
H1173 H 0.03529 0.6693 0.97764 0.0
H1174 H 0.13702 0.71925 0.97825 0.0
H1175 H 0.12475 0.7232 0.95134 0.0
H1176 H 0.13436 0.65249 0.99494 0.0
H1177 H 0.08278 0.76894 0.98995 0.0
H1178 H 0.03746 0.81092 0.98004 0.0
H1179 H 0.9575 0.75493 0.99797 0.0
H1180 H 0.00228 0.71227 0.0078 0.0
H1181 H 0.17145 0.70363 0.07227 0.0
H1182 H 0.16519 0.69073 0.04555 0.0
H1183 H 0.05269 0.67469 0.0446 0.0
H1184 H 0.0589 0.68936 0.0712 0.0
H1185 H 0.06221 0.7228 0.02752 0.0
H1186 H 0.11096 0.60805 0.03367 0.0
H1187 H 0.15383 0.56388 0.04359 0.0
H1188 H 0.23564 0.61162 0.02366 0.0
H1189 H 0.19339 0.65647 0.0138 0.0
C1190 C 0.04809 0.68315 0.95676 0.0
C1191 C 0.07305 0.69838 0.94915 0.0
C1192 C 0.05496 0.68108 0.97199 0.0
C1193 C 0.08711 0.69379 0.97986 0.0
C1194 C 0.11216 0.7091 0.97231 0.0
C1195 C 0.10501 0.71171 0.95704 0.0
C1196 C 0.09367 0.69192 0.99605 0.0
C1197 C 0.11904 0.66815 0.00216 0.0
C1198 C 0.07274 0.71146 0.00531 0.0
C1199 C 0.04582 0.73721 -0.00052 0.0
C1200 C 0.05547 0.76538 0.99166 0.0
C1201 C 0.0299 0.78934 0.98608 0.0
C1202 C 0.99461 0.78554 0.98834 0.0
C1203 C 0.98484 0.75781 0.99621 0.0
C1204 C 0.01031 0.73376 0.0018 0.0
C1205 C 0.14574 0.69568 0.06641 0.0
C1206 C 0.11566 0.69723 0.0737 0.0
C1207 C 0.14209 0.68844 0.05111 0.0
C1208 C 0.10836 0.68202 0.04298 0.0
C1209 C 0.07892 0.67991 0.05058 0.0
C1210 C 0.08249 0.68784 0.06579 0.0
C1211 C 0.10288 0.68302 0.02665 0.0
C1212 C 0.07764 0.70684 0.02044 0.0
C1213 C 0.12362 0.66307 0.01735 0.0
C1214 C 0.14904 0.63585 0.0231 0.0
C1215 C 0.13816 0.60932 0.03148 0.0
C1216 C 0.16234 0.58412 0.03709 0.0
C1217 C 0.19746 0.585 0.03429 0.0
C1218 C 0.20843 0.611 0.02584 0.0
C1219 C 0.18436 0.63629 0.02022 0.0
H1220 H 0.21615 0.56548 0.03865 0.0
H1221 H 0.97484 0.80412 0.98402 0.0
H1222 H 0.69477 0.82527 0.2148 0.0
H1223 H 0.70454 0.81609 0.24126 0.0
H1224 H 0.62554 0.73302 0.23417 0.0
H1225 H 0.61511 0.74289 0.20798 0.0
H1226 H 0.61298 0.77492 0.25601 0.0
H1227 H 0.71843 0.71918 0.24146 0.0
H1228 H 0.77488 0.71599 0.23111 0.0
H1229 H 0.81914 0.79724 0.26337 0.0
H1230 H 0.76273 0.80134 0.27376 0.0
H1231 H 0.64301 0.67198 0.31563 0.0
H1232 H 0.65902 0.69029 0.29248 0.0
H1233 H 0.68296 0.79534 0.31255 0.0
H1234 H 0.66593 0.77753 0.33577 0.0
H1235 H 0.72796 0.75118 0.28617 0.0
H1236 H 0.61763 0.8086 0.29902 0.0
H1237 H 0.56203 0.80559 0.30989 0.0
H1238 H 0.52856 0.71507 0.28042 0.0
H1239 H 0.58429 0.71727 0.26956 0.0
C1240 C 0.67982 0.80486 0.21893 0.0
C1241 C 0.65395 0.785 0.2094 0.0
C1242 C 0.68547 0.79954 0.23403 0.0
C1243 C 0.66581 0.7738 0.23976 0.0
C1244 C 0.64083 0.75326 0.23009 0.0
C1245 C 0.63486 0.75889 0.21511 0.0
C1246 C 0.66938 0.76915 0.25586 0.0
C1247 C 0.63827 0.76984 0.26251 0.0
C1248 C 0.70237 0.7632 0.26458 0.0
C1249 C 0.73616 0.76094 0.25825 0.0
C1250 C 0.74006 0.73665 0.24625 0.0
C1251 C 0.77208 0.73463 0.24039 0.0
C1252 C 0.80053 0.7565 0.24654 0.0
C1253 C 0.79704 0.7804 0.25858 0.0
C1254 C 0.76505 0.78259 0.26446 0.0
C1255 C 0.65268 0.69872 0.31528 0.0
C1256 C 0.65298 0.72336 0.32751 0.0
C1257 C 0.66204 0.70904 0.30206 0.0
C1258 C 0.67206 0.74412 0.30084 0.0
C1259 C 0.67557 0.76805 0.31336 0.0
C1260 C 0.66588 0.75779 0.32662 0.0
C1261 C 0.67167 0.7567 0.28595 0.0
C1262 C 0.70306 0.75723 0.27959 0.0
C1263 C 0.63904 0.76367 0.27738 0.0
C1264 C 0.60516 0.76293 0.28359 0.0
C1265 C 0.59849 0.78794 0.29494 0.0
C1266 C 0.56696 0.7864 0.30109 0.0
C1267 C 0.54181 0.76011 0.29587 0.0
C1268 C 0.54808 0.7354 0.28446 0.0
C1269 C 0.57961 0.7368 0.2783 0.0
H1270 H 0.51744 0.75892 0.30066 0.0
H1271 H 0.82531 0.75486 0.242 0.0
H1272 H 0.64048 0.19293 0.45306 0.0
H1273 H 0.65504 0.18702 0.47963 0.0
H1274 H 0.55208 0.22847 0.48626 0.0
H1275 H 0.53836 0.23579 0.45979 0.0
H1276 H 0.59765 0.25158 0.50825 0.0
H1277 H 0.57135 0.13707 0.48298 0.0
H1278 H 0.5786 0.08747 0.4647 0.0
H1279 H 0.68587 0.07318 0.48483 0.0
H1280 H 0.67942 0.12309 0.50309 0.0
H1281 H 0.56627 0.18776 0.57245 0.0
H1282 H 0.56455 0.1785 0.54579 0.0
H1283 H 0.67874 0.17578 0.55105 0.0
H1284 H 0.68053 0.18503 0.57788 0.0
H1285 H 0.63352 0.13202 0.52363 0.0
H1286 H 0.65682 0.2501 0.549 0.0
H1287 H 0.64371 0.29554 0.56816 0.0
H1288 H 0.53548 0.29937 0.54772 0.0
H1289 H 0.54786 0.25354 0.52858 0.0
C1290 C 0.62149 0.20164 0.46032 0.0
C1291 C 0.5885 0.2151 0.45453 0.0
C1292 C 0.62958 0.19787 0.47544 0.0
C1293 C 0.60435 0.2065 0.48495 0.0
C1294 C 0.57198 0.22154 0.47919 0.0
C1295 C 0.56415 0.22585 0.4641 0.0
C1296 C 0.61079 0.19846 0.50072 0.0
C1297 C 0.60545 0.2254 0.51152 0.0
C1298 C 0.62125 0.16434 0.50515 0.0
C1299 C 0.62502 0.13404 0.4943 0.0
C1300 C 0.59655 0.12348 0.48345 0.0
C1301 C 0.60051 0.09531 0.4731 0.0
C1302 C 0.63271 0.07724 0.47358 0.0
C1303 C 0.66097 0.08724 0.48445 0.0
C1304 C 0.65718 0.11546 0.49481 0.0
C1305 C 0.59092 0.18308 0.56798 0.0
C1306 C 0.62352 0.18705 0.57716 0.0
C1307 C 0.58993 0.17795 0.55275 0.0
C1308 C 0.62152 0.17703 0.54649 0.0
C1309 C 0.6541 0.17631 0.55571 0.0
C1310 C 0.6551 0.18133 0.57104 0.0
C1311 C 0.62023 0.18506 0.53089 0.0
C1312 C 0.62636 0.15824 0.52023 0.0
C1313 C 0.61008 0.21912 0.52651 0.0
C1314 C 0.6032 0.24826 0.53744 0.0
C1315 C 0.63022 0.26061 0.54862 0.0
C1316 C 0.62292 0.28639 0.55948 0.0
C1317 C 0.58874 0.30019 0.55919 0.0
C1318 C 0.56192 0.28858 0.54794 0.0
C1319 C 0.56907 0.26276 0.53707 0.0
H1320 H 0.58304 0.31987 0.56769 0.0
H1321 H 0.63573 0.05544 0.46555 0.0
H1322 H 0.207 0.31624 0.71535 0.0
H1323 H 0.22144 0.3052 0.74148 0.0
H1324 H 0.1377 0.2272 0.73656 0.0
H1325 H 0.12401 0.23721 0.7105 0.0
H1326 H 0.18269 0.31577 0.76302 0.0
H1327 H 0.15541 0.16312 0.75885 0.0
H1328 H 0.16558 0.11082 0.74236 0.0
H1329 H 0.25105 0.16479 0.72723 0.0
H1330 H 0.24178 0.21724 0.74378 0.0
H1331 H 0.09938 0.25704 0.81889 0.0
H1332 H 0.12257 0.27238 0.79672 0.0
H1333 H 0.21736 0.21238 0.80918 0.0
H1334 H 0.1934 0.19636 0.83149 0.0
H1335 H 0.19079 0.1954 0.78124 0.0
H1336 H 0.2211 0.30167 0.80906 0.0
H1337 H 0.21225 0.3521 0.82667 0.0
H1338 H 0.1305 0.39242 0.79536 0.0
H1339 H 0.13734 0.34105 0.7779 0.0
C1340 C 0.19213 0.29628 0.7198 0.0
C1341 C 0.16425 0.2777 0.71085 0.0
C1342 C 0.20028 0.29015 0.73475 0.0
C1343 C 0.18095 0.26509 0.74098 0.0
C1344 C 0.15347 0.24621 0.73199 0.0
C1345 C 0.14534 0.25229 0.71711 0.0
C1346 C 0.18745 0.26005 0.75704 0.0
C1347 C 0.18492 0.28952 0.76704 0.0
C1348 C 0.19174 0.22592 0.76239 0.0
C1349 C 0.19778 0.19422 0.75254 0.0
C1350 C 0.17655 0.16377 0.75209 0.0
C1351 C 0.18212 0.1341 0.74271 0.0
C1352 C 0.20891 0.1345 0.73374 0.0
C1353 C 0.23025 0.16455 0.73416 0.0
C1354 C 0.22481 0.19427 0.74353 0.0
C1355 C 0.12549 0.24775 0.81703 0.0
C1356 C 0.14487 0.22593 0.82686 0.0
C1357 C 0.13883 0.25663 0.8044 0.0
C1358 C 0.17196 0.24398 0.80135 0.0
C1359 C 0.19183 0.22262 0.81136 0.0
C1360 C 0.17832 0.21363 0.82409 0.0
C1361 C 0.1836 0.25085 0.78701 0.0
C1362 C 0.18957 0.22176 0.77731 0.0
C1363 C 0.18317 0.28541 0.78201 0.0
C1364 C 0.17971 0.3173 0.79219 0.0
C1365 C 0.20105 0.32113 0.80598 0.0
C1366 C 0.19637 0.3499 0.81594 0.0
C1367 C 0.17107 0.37566 0.81209 0.0
C1368 C 0.15019 0.37251 0.79831 0.0
C1369 C 0.15437 0.34345 0.78839 0.0
H1370 H 0.16759 0.39801 0.81979 0.0
H1371 H 0.21315 0.11152 0.72648 0.0
loop_
_geom_bond_atom_site_label_1
_geom_bond_atom_site_label_2
_geom_bond_distance
_geom_bond_site_symmetry_2
_ccdc_geom_bond_type
H0 C3 0.929 . S
H1 C6 0.929 . S
H2 C8 0.930 . S
C3 H0 0.929 . S
C3 C4 1.398 . S
C3 C5 1.396 . S
C4 C3 1.398 . S
C4 C8 1.407 . S
C5 C3 1.396 . S
C5 C6 1.394 . S
C6 H1 0.929 . S
C6 C5 1.394 . S
C6 C7 1.382 . S
C7 C6 1.382 . S
C7 C8 1.392 . S
C7 N9 1.420 . S
C8 H2 0.930 . S
C8 C4 1.407 . S
C8 C7 1.392 . S
N9 C7 1.420 . S
N9 C10 1.244 . S
C10 N9 1.244 . S
H11 C14 0.929 . S
H12 C17 0.929 . S
H13 C19 0.930 . S
C14 H11 0.929 . S
C14 C15 1.398 . S
C14 C16 1.396 . S
C15 C14 1.398 . S
C15 C19 1.407 . S
C16 C14 1.396 . S
C16 C17 1.394 . S
C17 H12 0.929 . S
C17 C16 1.394 . S
C17 C18 1.382 . S
C18 C17 1.382 . S
C18 C19 1.392 . S
C18 N20 1.420 . S
C19 H13 0.930 . S
C19 C15 1.407 . S
C19 C18 1.392 . S
N20 C18 1.420 . S
N20 C21 1.244 . S
C21 N20 1.244 . S
H22 C25 0.929 . S
H23 C28 0.929 . S
H24 C30 0.930 . S
C25 H22 0.929 . S
C25 C26 1.398 . S
C25 C27 1.396 . S
C26 C25 1.398 . S
C26 C30 1.407 . S
C27 C25 1.396 . S
C27 C28 1.394 . S
C28 H23 0.929 . S
C28 C27 1.394 . S
C28 C29 1.382 . S
C29 C28 1.382 . S
C29 C30 1.392 . S
C29 N31 1.420 . S
C30 H24 0.930 . S
C30 C26 1.407 . S
C30 C29 1.392 . S
N31 C29 1.420 . S
N31 C32 1.244 . S
C32 N31 1.244 . S
H33 C36 0.929 . S
H34 C39 0.929 . S
H35 C41 0.930 . S
C36 H33 0.929 . S
C36 C37 1.398 . S
C36 C38 1.396 . S
C37 C36 1.398 . S
C37 C41 1.407 . S
C38 C36 1.396 . S
C38 C39 1.394 . S
C39 H34 0.929 . S
C39 C38 1.394 . S
C39 C40 1.382 . S
C40 C39 1.382 . S
C40 C41 1.392 . S
C40 N42 1.420 . S
C41 H35 0.930 . S
C41 C37 1.407 . S
C41 C40 1.392 . S
N42 C40 1.420 . S
N42 C43 1.244 . S
C43 N42 1.244 . S
H44 C47 0.929 . S
H45 C50 0.929 . S
H46 C52 0.930 . S
C47 H44 0.929 . S
C47 C48 1.398 . S
C47 C49 1.396 . S
C48 C47 1.398 . S
C48 C52 1.407 . S
C49 C47 1.396 . S
C49 C50 1.394 . S
C50 H45 0.929 . S
C50 C49 1.394 . S
C50 C51 1.382 . S
C51 C50 1.382 . S
C51 C52 1.392 . S
C51 N53 1.420 . S
C52 H46 0.930 . S
C52 C48 1.407 . S
C52 C51 1.392 . S
N53 C51 1.420 . S
N53 C54 1.244 . S
C54 N53 1.244 . S
H55 C58 0.929 . S
H56 C61 0.929 . S
H57 C63 0.930 . S
C58 H55 0.929 . S
C58 C59 1.398 . S
C58 C60 1.396 . S
C59 C58 1.398 . S
C59 C63 1.407 . S
C60 C58 1.396 . S
C60 C61 1.394 . S
C61 H56 0.929 . S
C61 C60 1.394 . S
C61 C62 1.382 . S
C62 C61 1.382 . S
C62 C63 1.392 . S
C62 N64 1.420 . S
C63 H57 0.930 . S
C63 C59 1.407 . S
C63 C62 1.392 . S
N64 C62 1.420 . S
N64 C65 1.244 . S
C65 N64 1.244 . S
H66 C69 0.929 . S
H67 C72 0.929 . S
H68 C74 0.930 . S
C69 H66 0.929 . S
C69 C70 1.398 . S
C69 C71 1.396 . S
C70 C69 1.398 . S
C70 C74 1.407 . S
C71 C69 1.396 . S
C71 C72 1.394 . S
C72 H67 0.929 . S
C72 C71 1.394 . S
C72 C73 1.382 . S
C73 C72 1.382 . S
C73 C74 1.392 . S
C73 N75 1.420 . S
C74 H68 0.930 . S
C74 C70 1.407 . S
C74 C73 1.392 . S
N75 C73 1.420 . S
N75 C76 1.244 . S
C76 N75 1.244 . S
H77 C80 0.929 . S
H78 C83 0.929 . S
H79 C85 0.930 . S
C80 H77 0.929 . S
C80 C81 1.398 . S
C80 C82 1.396 . S
C81 C80 1.398 . S
C81 C85 1.407 . S
C82 C80 1.396 . S
C82 C83 1.394 . S
C83 H78 0.929 . S
C83 C82 1.394 . S
C83 C84 1.382 . S
C84 C83 1.382 . S
C84 C85 1.392 . S
C84 N86 1.420 . S
C85 H79 0.930 . S
C85 C81 1.407 . S
C85 C84 1.392 . S
N86 C84 1.420 . S
N86 C87 1.244 . S
C87 N86 1.244 . S
Zn88 O94 1.920 . S
Zn88 O100 1.898 . S
Zn88 O103 1.905 . S
Zn89 O97 1.905 . S
Zn89 O98 1.898 . S
Zn89 O106 1.920 . S
Zn90 O93 2.080 . S
Zn90 O96 2.114 . S
Zn90 O99 2.120 . S
Zn90 O101 2.120 . S
Zn90 O102 2.114 . S
Zn90 O105 2.080 . S
C91 O96 1.166 . S
C91 O97 1.182 . S
C92 O98 1.167 . S
C92 O99 1.299 . S
O93 Zn90 2.080 . S
O93 C107 1.305 . S
O94 Zn88 1.920 . S
O94 C107 1.234 . S
C95 O100 1.167 . S
C95 O101 1.299 . S
O96 Zn90 2.114 . S
O96 C91 1.166 . S
O97 Zn89 1.905 . S
O97 C91 1.182 . S
O98 Zn89 1.898 . S
O98 C92 1.167 . S
O99 Zn90 2.120 . S
O99 C92 1.299 . S
O100 Zn88 1.898 . S
O100 C95 1.167 . S
O101 Zn90 2.120 . S
O101 C95 1.299 . S
O102 Zn90 2.114 . S
O102 C104 1.166 . S
O103 Zn88 1.905 . S
O103 C104 1.182 . S
C104 O102 1.166 . S
C104 O103 1.182 . S
O105 Zn90 2.080 . S
O105 C108 1.305 . S
O106 Zn89 1.920 . S
O106 C108 1.234 . S
C107 O93 1.305 . S
C107 O94 1.234 . S
C108 O105 1.305 . S
C108 O106 1.234 . S
Zn109 O115 1.920 . S
Zn109 O121 1.898 . S
Zn109 O124 1.905 . S
Zn110 O118 1.905 . S
Zn110 O119 1.898 . S
Zn110 O127 1.920 . S
Zn111 O114 2.080 . S
Zn111 O117 2.114 . S
Zn111 O120 2.120 . S
Zn111 O122 2.120 . S
Zn111 O123 2.114 . S
Zn111 O126 2.080 . S
C112 O117 1.166 . S
C112 O118 1.182 . S
C113 O119 1.167 . S
C113 O120 1.299 . S
O114 Zn111 2.080 . S
O114 C128 1.305 . S
O115 Zn109 1.920 . S
O115 C128 1.234 . S
C116 O121 1.167 . S
C116 O122 1.299 . S
O117 Zn111 2.114 . S
O117 C112 1.166 . S
O118 Zn110 1.905 . S
O118 C112 1.182 . S
O119 Zn110 1.898 . S
O119 C113 1.167 . S
O120 Zn111 2.120 . S
O120 C113 1.299 . S
O121 Zn109 1.898 . S
O121 C116 1.167 . S
O122 Zn111 2.120 . S
O122 C116 1.299 . S
O123 Zn111 2.114 . S
O123 C125 1.166 . S
O124 Zn109 1.905 . S
O124 C125 1.182 . S
C125 O123 1.166 . S
C125 O124 1.182 . S
O126 Zn111 2.080 . S
O126 C129 1.305 . S
O127 Zn110 1.920 . S
O127 C129 1.234 . S
C128 O114 1.305 . S
C128 O115 1.234 . S
C129 O126 1.305 . S
C129 O127 1.234 . S
Zn130 O136 1.920 . S
Zn130 O142 1.898 . S
Zn130 O145 1.905 . S
Zn131 O139 1.905 . S
Zn131 O140 1.898 . S
Zn131 O148 1.920 . S
Zn132 O135 2.080 . S
Zn132 O138 2.114 . S
Zn132 O141 2.120 . S
Zn132 O143 2.120 . S
Zn132 O144 2.114 . S
Zn132 O147 2.080 . S
C133 O138 1.166 . S
C133 O139 1.182 . S
C134 O140 1.167 . S
C134 O141 1.299 . S
O135 Zn132 2.080 . S
O135 C149 1.305 . S
O136 Zn130 1.920 . S
O136 C149 1.234 . S
C137 O142 1.167 . S
C137 O143 1.299 . S
O138 Zn132 2.114 . S
O138 C133 1.166 . S
O139 Zn131 1.905 . S
O139 C133 1.182 . S
O140 Zn131 1.898 . S
O140 C134 1.167 . S
O141 Zn132 2.120 . S
O141 C134 1.299 . S
O142 Zn130 1.898 . S
O142 C137 1.167 . S
O143 Zn132 2.120 . S
O143 C137 1.299 . S
O144 Zn132 2.114 . S
O144 C146 1.166 . S
O145 Zn130 1.905 . S
O145 C146 1.182 . S
C146 O144 1.166 . S
C146 O145 1.182 . S
O147 Zn132 2.080 . S
O147 C150 1.305 . S
O148 Zn131 1.920 . S
O148 C150 1.234 . S
C149 O135 1.305 . S
C149 O136 1.234 . S
C150 O147 1.305 . S
C150 O148 1.234 . S
Zn151 O157 1.920 . S
Zn151 O163 1.898 . S
Zn151 O166 1.905 . S
Zn152 O160 1.905 . S
Zn152 O161 1.898 . S
Zn152 O169 1.920 . S
Zn153 O156 2.080 . S
Zn153 O159 2.114 . S
Zn153 O162 2.120 . S
Zn153 O164 2.120 . S
Zn153 O165 2.114 . S
Zn153 O168 2.080 . S
C154 O159 1.166 . S
C154 O160 1.182 . S
C155 O161 1.167 . S
C155 O162 1.299 . S
O156 Zn153 2.080 . S
O156 C170 1.305 . S
O157 Zn151 1.920 . S
O157 C170 1.234 . S
C158 O163 1.167 . S
C158 O164 1.299 . S
O159 Zn153 2.114 . S
O159 C154 1.166 . S
O160 Zn152 1.905 . S
O160 C154 1.182 . S
O161 Zn152 1.898 . S
O161 C155 1.167 . S
O162 Zn153 2.120 . S
O162 C155 1.299 . S
O163 Zn151 1.898 . S
O163 C158 1.167 . S
O164 Zn153 2.120 . S
O164 C158 1.299 . S
O165 Zn153 2.114 . S
O165 C167 1.166 . S
O166 Zn151 1.905 . S
O166 C167 1.182 . S
C167 O165 1.166 . S
C167 O166 1.182 . S
O168 Zn153 2.080 . S
O168 C171 1.305 . S
O169 Zn152 1.920 . S
O169 C171 1.234 . S
C170 O156 1.305 . S
C170 O157 1.234 . S
C171 O168 1.305 . S
C171 O169 1.234 . S
H172 C190 0.951 . S
H173 C192 0.951 . S
H174 C194 0.950 . S
H175 C195 0.950 . S
H176 C197 0.950 . S
H177 C200 0.950 . S
H178 C201 0.950 . S
H179 C203 0.950 . S
H180 C204 0.950 . S
H181 C205 0.951 . S
H182 C207 0.951 . S
H183 C209 0.950 . S
H184 C210 0.950 . S
H185 C212 0.950 . S
H186 C215 0.950 . S
H187 C216 0.950 . S
H188 C218 0.950 . S
H189 C219 0.950 . S
C190 H172 0.951 . S
C190 C191 1.366 . S
C190 C192 1.388 . S
C191 C190 1.366 . S
C191 C195 1.385 . S
C192 H173 0.951 . S
C192 C190 1.388 . S
C192 C193 1.366 . S
C193 C192 1.366 . S
C193 C194 1.414 . S
C193 C196 1.499 . S
C194 H174 0.950 . S
C194 C193 1.414 . S
C194 C195 1.374 . S
C195 H175 0.950 . S
C195 C191 1.385 . S
C195 C194 1.374 . S
C196 C193 1.499 . S
C196 C197 1.373 . S
C196 C198 1.389 . S
C197 H176 0.950 . S
C197 C196 1.373 . S
C197 C213 1.377 . S
C198 C196 1.389 . S
C198 C199 1.524 . S
C198 C212 1.377 . S
C199 C198 1.524 . S
C199 C200 1.397 . S
C199 C204 1.363 . S
C200 H177 0.950 . S
C200 C199 1.397 . S
C200 C201 1.334 . S
C201 H178 0.950 . S
C201 C200 1.334 . S
C201 C202 1.287 . S
C202 C201 1.287 . S
C202 C203 1.524 . S
C202 H221 0.913 . S
C203 H179 0.950 . S
C203 C202 1.524 . S
C203 C204 1.415 . S
C204 H180 0.950 . S
C204 C199 1.363 . S
C204 C203 1.415 . S
C205 H181 0.951 . S
C205 C206 1.366 . S
C205 C207 1.388 . S
C206 C205 1.366 . S
C206 C210 1.385 . S
C207 H182 0.951 . S
C207 C205 1.388 . S
C207 C208 1.366 . S
C208 C207 1.366 . S
C208 C209 1.414 . S
C208 C211 1.499 . S
C209 H183 0.950 . S
C209 C208 1.414 . S
C209 C210 1.374 . S
C210 H184 0.950 . S
C210 C206 1.385 . S
C210 C209 1.374 . S
C211 C208 1.499 . S
C211 C212 1.373 . S
C211 C213 1.389 . S
C212 H185 0.950 . S
C212 C198 1.377 . S
C212 C211 1.373 . S
C213 C197 1.377 . S
C213 C211 1.389 . S
C213 C214 1.524 . S
C214 C213 1.524 . S
C214 C215 1.397 . S
C214 C219 1.363 . S
C215 H186 0.950 . S
C215 C214 1.397 . S
C215 C216 1.334 . S
C216 H187 0.950 . S
C216 C215 1.334 . S
C216 C217 1.287 . S
C217 C216 1.287 . S
C217 C218 1.524 . S
C217 H220 0.999 . S
C218 H188 0.950 . S
C218 C217 1.524 . S
C218 C219 1.415 . S
C219 H189 0.950 . S
C219 C214 1.363 . S
C219 C218 1.415 . S
H220 C217 0.999 . S
H221 C202 0.913 . S
H222 C240 0.951 . S
H223 C242 0.951 . S
H224 C244 0.950 . S
H225 C245 0.950 1_455 S
H226 C247 0.950 . S
H227 C250 0.950 . S
H228 C251 0.950 . S
H229 C253 0.950 . S
H230 C254 0.950 . S
H231 C255 0.951 . S
H232 C257 0.951 . S
H233 C259 0.950 . S
H234 C260 0.950 . S
H235 C262 0.950 . S
H236 C265 0.950 . S
H237 C266 0.950 . S
H238 C268 0.950 . S
H239 C269 0.950 . S
C240 H222 0.951 . S
C240 C241 1.366 1_655 S
C240 C242 1.388 . S
C241 C240 1.366 1_455 S
C241 C245 1.385 1_455 S
C242 H223 0.951 . S
C242 C240 1.388 . S
C242 C243 1.366 . S
C243 C242 1.366 . S
C243 C244 1.414 . S
C243 C246 1.499 . S
C244 H224 0.950 . S
C244 C243 1.414 . S
C244 C245 1.374 . S
C245 H225 0.950 1_655 S
C245 C241 1.385 1_655 S
C245 C244 1.374 . S
C246 C243 1.499 . S
C246 C247 1.373 . S
C246 C248 1.389 . S
C247 H226 0.950 . S
C247 C246 1.373 . S
C247 C263 1.377 . S
C248 C246 1.389 . S
C248 C249 1.524 . S
C248 C262 1.377 . S
C249 C248 1.524 . S
C249 C250 1.397 . S
C249 C254 1.363 . S
C250 H227 0.950 . S
C250 C249 1.397 . S
C250 C251 1.334 . S
C251 H228 0.950 . S
C251 C250 1.334 . S
C251 C252 1.287 . S
C252 C251 1.287 . S
C252 C253 1.524 . S
C252 H271 0.913 . S
C253 H229 0.950 . S
C253 C252 1.524 . S
C253 C254 1.415 . S
C254 H230 0.950 . S
C254 C249 1.363 . S
C254 C253 1.415 . S
C255 H231 0.951 . S
C255 C256 1.366 . S
C255 C257 1.388 . S
C256 C255 1.366 . S
C256 C260 1.385 . S
C257 H232 0.951 . S
C257 C255 1.388 . S
C257 C258 1.366 . S
C258 C257 1.366 . S
C258 C259 1.414 . S
C258 C261 1.499 . S
C259 H233 0.950 . S
C259 C258 1.414 . S
C259 C260 1.374 . S
C260 H234 0.950 . S
C260 C256 1.385 . S
C260 C259 1.374 . S
C261 C258 1.499 . S
C261 C262 1.373 . S
C261 C263 1.389 . S
C262 H235 0.950 . S
C262 C248 1.377 . S
C262 C261 1.373 . S
C263 C247 1.377 . S
C263 C261 1.389 . S
C263 C264 1.524 . S
C264 C263 1.524 . S
C264 C265 1.397 . S
C264 C269 1.363 . S
C265 H236 0.950 . S
C265 C264 1.397 . S
C265 C266 1.334 . S
C266 H237 0.950 . S
C266 C265 1.334 . S
C266 C267 1.287 . S
C267 C266 1.287 . S
C267 C268 1.524 . S
C267 H270 0.999 . S
C268 H238 0.950 . S
C268 C267 1.524 . S
C268 C269 1.415 . S
C269 H239 0.950 . S
C269 C264 1.363 . S
C269 C268 1.415 . S
H270 C267 0.999 . S
H271 C252 0.913 . S
H272 C290 0.951 . S
H273 C292 0.951 . S
H274 C294 0.950 . S
H275 C295 0.950 . S
H276 C297 0.950 . S
H277 C300 0.950 . S
H278 C301 0.950 . S
H279 C303 0.950 . S
H280 C304 0.950 . S
H281 C305 0.951 . S
H282 C307 0.951 . S
H283 C309 0.950 . S
H284 C310 0.950 . S
H285 C312 0.950 . S
H286 C315 0.950 . S
H287 C316 0.950 . S
H288 C318 0.950 . S
H289 C319 0.950 . S
C290 H272 0.951 . S
C290 C291 1.366 . S
C290 C292 1.388 . S
C291 C290 1.366 . S
C291 C295 1.385 . S
C292 H273 0.951 . S
C292 C290 1.388 . S
C292 C293 1.366 . S
C293 C292 1.366 . S
C293 C294 1.414 . S
C293 C296 1.499 . S
C294 H274 0.950 . S
C294 C293 1.414 . S
C294 C295 1.374 . S
C295 H275 0.950 . S
C295 C291 1.385 . S
C295 C294 1.374 . S
C296 C293 1.499 . S
C296 C297 1.373 . S
C296 C298 1.389 . S
C297 H276 0.950 . S
C297 C296 1.373 . S
C297 C313 1.377 . S
C298 C296 1.389 . S
C298 C299 1.524 . S
C298 C312 1.377 . S
C299 C298 1.524 . S
C299 C300 1.397 . S
C299 C304 1.363 . S
C300 H277 0.950 . S
C300 C299 1.397 . S
C300 C301 1.334 . S
C301 H278 0.950 . S
C301 C300 1.334 . S
C301 C302 1.287 . S
C302 C301 1.287 . S
C302 C303 1.524 . S
C302 H321 0.913 . S
C303 H279 0.950 . S
C303 C302 1.524 . S
C303 C304 1.415 . S
C304 H280 0.950 . S
C304 C299 1.363 . S
C304 C303 1.415 . S
C305 H281 0.951 . S
C305 C306 1.366 . S
C305 C307 1.388 . S
C306 C305 1.366 . S
C306 C310 1.385 . S
C307 H282 0.951 . S
C307 C305 1.388 . S
C307 C308 1.366 . S
C308 C307 1.366 . S
C308 C309 1.414 . S
C308 C311 1.499 . S
C309 H283 0.950 . S
C309 C308 1.414 . S
C309 C310 1.374 . S
C310 H284 0.950 . S
C310 C306 1.385 . S
C310 C309 1.374 . S
C311 C308 1.499 . S
C311 C312 1.373 . S
C311 C313 1.389 . S
C312 H285 0.950 . S
C312 C298 1.377 . S
C312 C311 1.373 . S
C313 C297 1.377 . S
C313 C311 1.389 . S
C313 C314 1.524 . S
C314 C313 1.524 . S
C314 C315 1.397 . S
C314 C319 1.363 . S
C315 H286 0.950 . S
C315 C314 1.397 . S
C315 C316 1.334 . S
C316 H287 0.950 . S
C316 C315 1.334 . S
C316 C317 1.287 . S
C317 C316 1.287 . S
C317 C318 1.524 . S
C317 H320 0.999 . S
C318 H288 0.950 . S
C318 C317 1.524 . S
C318 C319 1.415 . S
C319 H289 0.950 . S
C319 C314 1.363 . S
C319 C318 1.415 . S
H320 C317 0.999 . S
H321 C302 0.913 . S
H322 C340 0.951 . S
H323 C342 0.951 . S
H324 C344 0.950 . S
H325 C345 0.950 . S
H326 C347 0.950 . S
H327 C350 0.950 . S
H328 C351 0.950 . S
H329 C353 0.950 . S
H330 C354 0.950 . S
H331 C355 0.951 . S
H332 C357 0.951 . S
H333 C359 0.950 . S
H334 C360 0.950 . S
H335 C362 0.950 . S
H336 C365 0.950 . S
H337 C366 0.950 . S
H338 C368 0.950 . S
H339 C369 0.950 . S
C340 H322 0.951 . S
C340 C341 1.366 . S
C340 C342 1.388 . S
C341 C340 1.366 . S
C341 C345 1.385 . S
C342 H323 0.951 . S
C342 C340 1.388 . S
C342 C343 1.366 . S
C343 C342 1.366 . S
C343 C344 1.414 . S
C343 C346 1.499 . S
C344 H324 0.950 . S
C344 C343 1.414 . S
C344 C345 1.374 . S
C345 H325 0.950 . S
C345 C341 1.385 . S
C345 C344 1.374 . S
C346 C343 1.499 . S
C346 C347 1.373 . S
C346 C348 1.389 . S
C347 H326 0.950 . S
C347 C346 1.373 . S
C347 C363 1.377 . S
C348 C346 1.389 . S
C348 C349 1.524 . S
C348 C362 1.377 . S
C349 C348 1.524 . S
C349 C350 1.397 . S
C349 C354 1.363 . S
C350 H327 0.950 . S
C350 C349 1.397 . S
C350 C351 1.334 . S
C351 H328 0.950 . S
C351 C350 1.334 . S
C351 C352 1.287 . S
C352 C351 1.287 . S
C352 C353 1.524 . S
C352 H371 0.913 . S
C353 H329 0.950 . S
C353 C352 1.524 . S
C353 C354 1.415 . S
C354 H330 0.950 . S
C354 C349 1.363 . S
C354 C353 1.415 . S
C355 H331 0.951 . S
C355 C356 1.366 . S
C355 C357 1.388 . S
C356 C355 1.366 . S
C356 C360 1.385 . S
C357 H332 0.951 . S
C357 C355 1.388 . S
C357 C358 1.366 . S
C358 C357 1.366 . S
C358 C359 1.414 . S
C358 C361 1.499 . S
C359 H333 0.950 . S
C359 C358 1.414 . S
C359 C360 1.374 . S
C360 H334 0.950 . S
C360 C356 1.385 . S
C360 C359 1.374 . S
C361 C358 1.499 . S
C361 C362 1.373 . S
C361 C363 1.389 . S
C362 H335 0.950 . S
C362 C348 1.377 . S
C362 C361 1.373 . S
C363 C347 1.377 . S
C363 C361 1.389 . S
C363 C364 1.524 . S
C364 C363 1.524 . S
C364 C365 1.397 . S
C364 C369 1.363 . S
C365 H336 0.950 . S
C365 C364 1.397 . S
C365 C366 1.334 . S
C366 H337 0.950 . S
C366 C365 1.334 . S
C366 C367 1.287 . S
C367 C366 1.287 . S
C367 C368 1.524 . S
C367 H370 0.999 . S
C368 H338 0.950 . S
C368 C367 1.524 . S
C368 C369 1.415 . S
C369 H339 0.950 . S
C369 C364 1.363 . S
C369 C368 1.415 . S
H370 C367 0.999 . S
H371 C352 0.913 . S
H372 C390 0.951 1_655 S
H373 C392 0.951 . S
H374 C394 0.950 . S
H375 C395 0.950 . S
H376 C397 0.950 . S
H377 C400 0.950 . S
H378 C401 0.950 . S
H379 C403 0.950 . S
H380 C404 0.950 . S
H381 C405 0.951 . S
H382 C407 0.951 . S
H383 C409 0.950 . S
H384 C410 0.950 . S
H385 C412 0.950 . S
H386 C415 0.950 . S
H387 C416 0.950 . S
H388 C418 0.950 . S
H389 C419 0.950 . S
C390 H372 0.951 1_455 S
C390 C391 1.366 . S
C390 C392 1.388 . S
C391 C390 1.366 . S
C391 C395 1.385 . S
C392 H373 0.951 . S
C392 C390 1.388 . S
C392 C393 1.366 . S
C393 C392 1.366 . S
C393 C394 1.414 . S
C393 C396 1.499 . S
C394 H374 0.950 . S
C394 C393 1.414 . S
C394 C395 1.374 . S
C395 H375 0.950 . S
C395 C391 1.385 . S
C395 C394 1.374 . S
C396 C393 1.499 . S
C396 C397 1.373 . S
C396 C398 1.389 . S
C397 H376 0.950 . S
C397 C396 1.373 . S
C397 C413 1.377 . S
C398 C396 1.389 . S
C398 C399 1.524 . S
C398 C412 1.377 . S
C399 C398 1.524 . S
C399 C400 1.397 . S
C399 C404 1.363 1_455 S
C400 H377 0.950 . S
C400 C399 1.397 . S
C400 C401 1.334 . S
C401 H378 0.950 . S
C401 C400 1.334 . S
C401 C402 1.287 1_455 S
C402 C401 1.287 1_655 S
C402 C403 1.524 . S
C402 H421 0.913 . S
C403 H379 0.950 . S
C403 C402 1.524 . S
C403 C404 1.415 . S
C404 H380 0.950 . S
C404 C399 1.363 1_655 S
C404 C403 1.415 . S
C405 H381 0.951 . S
C405 C406 1.366 . S
C405 C407 1.388 . S
C406 C405 1.366 . S
C406 C410 1.385 . S
C407 H382 0.951 . S
C407 C405 1.388 . S
C407 C408 1.366 . S
C408 C407 1.366 . S
C408 C409 1.414 . S
C408 C411 1.499 . S
C409 H383 0.950 . S
C409 C408 1.414 . S
C409 C410 1.374 . S
C410 H384 0.950 . S
C410 C406 1.385 . S
C410 C409 1.374 . S
C411 C408 1.499 . S
C411 C412 1.373 . S
C411 C413 1.389 . S
C412 H385 0.950 . S
C412 C398 1.377 . S
C412 C411 1.373 . S
C413 C397 1.377 . S
C413 C411 1.389 . S
C413 C414 1.524 . S
C414 C413 1.524 . S
C414 C415 1.397 . S
C414 C419 1.363 . S
C415 H386 0.950 . S
C415 C414 1.397 . S
C415 C416 1.334 . S
C416 H387 0.950 . S
C416 C415 1.334 . S
C416 C417 1.287 . S
C417 C416 1.287 . S
C417 C418 1.524 . S
C417 H420 0.999 . S
C418 H388 0.950 . S
C418 C417 1.524 . S
C418 C419 1.415 . S
C419 H389 0.950 . S
C419 C414 1.363 . S
C419 C418 1.415 . S
H420 C417 0.999 . S
H421 C402 0.913 . S
H422 C440 0.951 . S
H423 C442 0.951 . S
H424 C444 0.950 . S
H425 C445 0.950 . S
H426 C447 0.950 . S
H427 C450 0.950 . S
H428 C451 0.950 . S
H429 C453 0.950 . S
H430 C454 0.950 . S
H431 C455 0.951 . S
H432 C457 0.951 . S
H433 C459 0.950 1_655 S
H434 C460 0.950 . S
H435 C462 0.950 . S
H436 C465 0.950 . S
H437 C466 0.950 . S
H438 C468 0.950 . S
H439 C469 0.950 . S
C440 H422 0.951 . S
C440 C441 1.366 . S
C440 C442 1.388 . S
C441 C440 1.366 . S
C441 C445 1.385 . S
C442 H423 0.951 . S
C442 C440 1.388 . S
C442 C443 1.366 . S
C443 C442 1.366 . S
C443 C444 1.414 . S
C443 C446 1.499 . S
C444 H424 0.950 . S
C444 C443 1.414 . S
C444 C445 1.374 . S
C445 H425 0.950 . S
C445 C441 1.385 . S
C445 C444 1.374 . S
C446 C443 1.499 . S
C446 C447 1.373 . S
C446 C448 1.389 . S
C447 H426 0.950 . S
C447 C446 1.373 . S
C447 C463 1.377 . S
C448 C446 1.389 . S
C448 C449 1.524 . S
C448 C462 1.377 . S
C449 C448 1.524 . S
C449 C450 1.397 . S
C449 C454 1.363 . S
C450 H427 0.950 . S
C450 C449 1.397 . S
C450 C451 1.334 . S
C451 H428 0.950 . S
C451 C450 1.334 . S
C451 C452 1.287 . S
C452 C451 1.287 . S
C452 C453 1.524 . S
C452 H471 0.913 . S
C453 H429 0.950 . S
C453 C452 1.524 . S
C453 C454 1.415 . S
C454 H430 0.950 . S
C454 C449 1.363 . S
C454 C453 1.415 . S
C455 H431 0.951 . S
C455 C456 1.366 . S
C455 C457 1.388 1_455 S
C456 C455 1.366 . S
C456 C460 1.385 . S
C457 H432 0.951 . S
C457 C455 1.388 1_655 S
C457 C458 1.366 . S
C458 C457 1.366 . S
C458 C459 1.414 1_655 S
C458 C461 1.499 . S
C459 H433 0.950 1_455 S
C459 C458 1.414 1_455 S
C459 C460 1.374 . S
C460 H434 0.950 . S
C460 C456 1.385 . S
C460 C459 1.374 . S
C461 C458 1.499 . S
C461 C462 1.373 . S
C461 C463 1.389 . S
C462 H435 0.950 . S
C462 C448 1.377 . S
C462 C461 1.373 . S
C463 C447 1.377 . S
C463 C461 1.389 . S
C463 C464 1.524 . S
C464 C463 1.524 . S
C464 C465 1.397 . S
C464 C469 1.363 . S
C465 H436 0.950 . S
C465 C464 1.397 . S
C465 C466 1.334 1_655 S
C466 H437 0.950 . S
C466 C465 1.334 1_455 S
C466 C467 1.287 1_455 S
C467 C466 1.287 1_655 S
C467 C468 1.524 . S
C467 H470 0.999 1_655 S
C468 H438 0.950 . S
C468 C467 1.524 . S
C468 C469 1.415 . S
C469 H439 0.950 . S
C469 C464 1.363 . S
C469 C468 1.415 . S
H470 C467 0.999 1_455 S
H471 C452 0.913 . S
H472 C490 0.951 . S
H473 C492 0.951 . S
H474 C494 0.950 . S
H475 C495 0.950 . S
H476 C497 0.950 . S
H477 C500 0.950 . S
H478 C501 0.950 . S
H479 C503 0.950 . S
H480 C504 0.950 . S
H481 C505 0.951 . S
H482 C507 0.951 . S
H483 C509 0.950 . S
H484 C510 0.950 . S
H485 C512 0.950 . S
H486 C515 0.950 . S
H487 C516 0.950 . S
H488 C518 0.950 . S
H489 C519 0.950 . S
C490 H472 0.951 . S
C490 C491 1.366 . S
C490 C492 1.388 . S
C491 C490 1.366 . S
C491 C495 1.385 . S
C492 H473 0.951 . S
C492 C490 1.388 . S
C492 C493 1.366 . S
C493 C492 1.366 . S
C493 C494 1.414 . S
C493 C496 1.499 . S
C494 H474 0.950 . S
C494 C493 1.414 . S
C494 C495 1.374 . S
C495 H475 0.950 . S
C495 C491 1.385 . S
C495 C494 1.374 . S
C496 C493 1.499 . S
C496 C497 1.373 . S
C496 C498 1.389 . S
C497 H476 0.950 . S
C497 C496 1.373 . S
C497 C513 1.377 . S
C498 C496 1.389 . S
C498 C499 1.524 . S
C498 C512 1.377 . S
C499 C498 1.524 . S
C499 C500 1.397 . S
C499 C504 1.363 . S
C500 H477 0.950 . S
C500 C499 1.397 . S
C500 C501 1.334 . S
C501 H478 0.950 . S
C501 C500 1.334 . S
C501 C502 1.287 . S
C502 C501 1.287 . S
C502 C503 1.524 . S
C502 H521 0.913 . S
C503 H479 0.950 . S
C503 C502 1.524 . S
C503 C504 1.415 . S
C504 H480 0.950 . S
C504 C499 1.363 . S
C504 C503 1.415 . S
C505 H481 0.951 . S
C505 C506 1.366 . S
C505 C507 1.388 . S
C506 C505 1.366 . S
C506 C510 1.385 . S
C507 H482 0.951 . S
C507 C505 1.388 . S
C507 C508 1.366 . S
C508 C507 1.366 . S
C508 C509 1.414 . S
C508 C511 1.499 . S
C509 H483 0.950 . S
C509 C508 1.414 . S
C509 C510 1.374 . S
C510 H484 0.950 . S
C510 C506 1.385 . S
C510 C509 1.374 . S
C511 C508 1.499 . S
C511 C512 1.373 . S
C511 C513 1.389 . S
C512 H485 0.950 . S
C512 C498 1.377 . S
C512 C511 1.373 . S
C513 C497 1.377 . S
C513 C511 1.389 . S
C513 C514 1.524 . S
C514 C513 1.524 . S
C514 C515 1.397 . S
C514 C519 1.363 . S
C515 H486 0.950 . S
C515 C514 1.397 . S
C515 C516 1.334 . S
C516 H487 0.950 . S
C516 C515 1.334 . S
C516 C517 1.287 . S
C517 C516 1.287 . S
C517 C518 1.524 . S
C517 H520 0.999 . S
C518 H488 0.950 . S
C518 C517 1.524 . S
C518 C519 1.415 . S
C519 H489 0.950 . S
C519 C514 1.363 . S
C519 C518 1.415 . S
H520 C517 0.999 . S
H521 C502 0.913 . S
H522 C540 0.951 . S
H523 C542 0.951 . S
H524 C544 0.950 . S
H525 C545 0.950 . S
H526 C547 0.950 . S
H527 C550 0.950 . S
H528 C551 0.950 1_455 S
H529 C553 0.950 . S
H530 C554 0.950 . S
H531 C555 0.951 . S
H532 C557 0.951 . S
H533 C559 0.950 . S
H534 C560 0.950 . S
H535 C562 0.950 . S
H536 C565 0.950 . S
H537 C566 0.950 . S
H538 C568 0.950 . S
H539 C569 0.950 . S
C540 H522 0.951 . S
C540 C541 1.366 . S
C540 C542 1.388 . S
C541 C540 1.366 . S
C541 C545 1.385 . S
C542 H523 0.951 . S
C542 C540 1.388 . S
C542 C543 1.366 . S
C543 C542 1.366 . S
C543 C544 1.414 . S
C543 C546 1.499 1_455 S
C544 H524 0.950 . S
C544 C543 1.414 . S
C544 C545 1.374 . S
C545 H525 0.950 . S
C545 C541 1.385 . S
C545 C544 1.374 . S
C546 C543 1.499 1_655 S
C546 C547 1.373 . S
C546 C548 1.389 . S
C547 H526 0.950 . S
C547 C546 1.373 . S
C547 C563 1.377 . S
C548 C546 1.389 . S
C548 C549 1.524 . S
C548 C562 1.377 . S
C549 C548 1.524 . S
C549 C550 1.397 . S
C549 C554 1.363 . S
C550 H527 0.950 . S
C550 C549 1.397 . S
C550 C551 1.334 . S
C551 H528 0.950 1_655 S
C551 C550 1.334 . S
C551 C552 1.287 . S
C552 C551 1.287 . S
C552 C553 1.524 . S
C552 H571 0.913 . S
C553 H529 0.950 . S
C553 C552 1.524 . S
C553 C554 1.415 . S
C554 H530 0.950 . S
C554 C549 1.363 . S
C554 C553 1.415 . S
C555 H531 0.951 . S
C555 C556 1.366 . S
C555 C557 1.388 . S
C556 C555 1.366 . S
C556 C560 1.385 . S
C557 H532 0.951 . S
C557 C555 1.388 . S
C557 C558 1.366 . S
C558 C557 1.366 . S
C558 C559 1.414 . S
C558 C561 1.499 . S
C559 H533 0.950 . S
C559 C558 1.414 . S
C559 C560 1.374 . S
C560 H534 0.950 . S
C560 C556 1.385 . S
C560 C559 1.374 . S
C561 C558 1.499 . S
C561 C562 1.373 . S
C561 C563 1.389 . S
C562 H535 0.950 . S
C562 C548 1.377 . S
C562 C561 1.373 . S
C563 C547 1.377 . S
C563 C561 1.389 . S
C563 C564 1.524 . S
C564 C563 1.524 . S
C564 C565 1.397 . S
C564 C569 1.363 . S
C565 H536 0.950 . S
C565 C564 1.397 . S
C565 C566 1.334 . S
C566 H537 0.950 . S
C566 C565 1.334 . S
C566 C567 1.287 . S
C567 C566 1.287 . S
C567 C568 1.524 . S
C567 H570 0.999 . S
C568 H538 0.950 . S
C568 C567 1.524 . S
C568 C569 1.415 . S
C569 H539 0.950 . S
C569 C564 1.363 . S
C569 C568 1.415 . S
H570 C567 0.999 . S
H571 C552 0.913 . S
H572 C590 0.951 . S
H573 C592 0.951 . S
H574 C594 0.950 . S
H575 C595 0.950 . S
H576 C597 0.950 . S
H577 C600 0.950 . S
H578 C601 0.950 . S
H579 C603 0.950 . S
H580 C604 0.950 . S
H581 C605 0.951 . S
H582 C607 0.951 . S
H583 C609 0.950 . S
H584 C610 0.950 . S
H585 C612 0.950 . S
H586 C615 0.950 . S
H587 C616 0.950 . S
H588 C618 0.950 . S
H589 C619 0.950 . S
C590 H572 0.951 . S
C590 C591 1.366 . S
C590 C592 1.388 . S
C591 C590 1.366 . S
C591 C595 1.385 . S
C592 H573 0.951 . S
C592 C590 1.388 . S
C592 C593 1.366 . S
C593 C592 1.366 . S
C593 C594 1.414 . S
C593 C596 1.499 . S
C594 H574 0.950 . S
C594 C593 1.414 . S
C594 C595 1.374 . S
C595 H575 0.950 . S
C595 C591 1.385 . S
C595 C594 1.374 . S
C596 C593 1.499 . S
C596 C597 1.373 . S
C596 C598 1.389 . S
C597 H576 0.950 . S
C597 C596 1.373 . S
C597 C613 1.377 . S
C598 C596 1.389 . S
C598 C599 1.524 . S
C598 C612 1.377 . S
C599 C598 1.524 . S
C599 C600 1.397 . S
C599 C604 1.363 . S
C600 H577 0.950 . S
C600 C599 1.397 . S
C600 C601 1.334 . S
C601 H578 0.950 . S
C601 C600 1.334 . S
C601 C602 1.287 . S
C602 C601 1.287 . S
C602 C603 1.524 . S
C602 H621 0.913 . S
C603 H579 0.950 . S
C603 C602 1.524 . S
C603 C604 1.415 . S
C604 H580 0.950 . S
C604 C599 1.363 . S
C604 C603 1.415 . S
C605 H581 0.951 . S
C605 C606 1.366 . S
C605 C607 1.388 . S
C606 C605 1.366 . S
C606 C610 1.385 . S
C607 H582 0.951 . S
C607 C605 1.388 . S
C607 C608 1.366 . S
C608 C607 1.366 . S
C608 C609 1.414 . S
C608 C611 1.499 . S
C609 H583 0.950 . S
C609 C608 1.414 . S
C609 C610 1.374 . S
C610 H584 0.950 . S
C610 C606 1.385 . S
C610 C609 1.374 . S
C611 C608 1.499 . S
C611 C612 1.373 . S
C611 C613 1.389 . S
C612 H585 0.950 . S
C612 C598 1.377 . S
C612 C611 1.373 . S
C613 C597 1.377 . S
C613 C611 1.389 . S
C613 C614 1.524 . S
C614 C613 1.524 . S
C614 C615 1.397 . S
C614 C619 1.363 . S
C615 H586 0.950 . S
C615 C614 1.397 . S
C615 C616 1.334 . S
C616 H587 0.950 . S
C616 C615 1.334 . S
C616 C617 1.287 . S
C617 C616 1.287 . S
C617 C618 1.524 . S
C617 H620 0.999 . S
C618 H588 0.950 . S
C618 C617 1.524 . S
C618 C619 1.415 . S
C619 H589 0.950 . S
C619 C614 1.363 . S
C619 C618 1.415 . S
H620 C617 0.999 . S
H621 C602 0.913 . S
H622 C640 0.951 . S
H623 C642 0.951 . S
H624 C644 0.950 . S
H625 C645 0.950 . S
H626 C647 0.950 . S
H627 C650 0.950 . S
H628 C651 0.950 . S
H629 C653 0.950 . S
H630 C654 0.950 . S
H631 C655 0.951 . S
H632 C657 0.951 . S
H633 C659 0.950 . S
H634 C660 0.950 . S
H635 C662 0.950 . S
H636 C665 0.950 . S
H637 C666 0.950 . S
H638 C668 0.950 . S
H639 C669 0.950 . S
C640 H622 0.951 . S
C640 C641 1.366 . S
C640 C642 1.388 . S
C641 C640 1.366 . S
C641 C645 1.385 . S
C642 H623 0.951 . S
C642 C640 1.388 . S
C642 C643 1.366 . S
C643 C642 1.366 . S
C643 C644 1.414 . S
C643 C646 1.499 . S
C644 H624 0.950 . S
C644 C643 1.414 . S
C644 C645 1.374 . S
C645 H625 0.950 . S
C645 C641 1.385 . S
C645 C644 1.374 . S
C646 C643 1.499 . S
C646 C647 1.373 . S
C646 C648 1.389 . S
C647 H626 0.950 . S
C647 C646 1.373 . S
C647 C663 1.377 . S
C648 C646 1.389 . S
C648 C649 1.524 . S
C648 C662 1.377 . S
C649 C648 1.524 . S
C649 C650 1.397 . S
C649 C654 1.363 . S
C650 H627 0.950 . S
C650 C649 1.397 . S
C650 C651 1.334 . S
C651 H628 0.950 . S
C651 C650 1.334 . S
C651 C652 1.287 . S
C652 C651 1.287 . S
C652 C653 1.524 . S
C652 H671 0.913 . S
C653 H629 0.950 . S
C653 C652 1.524 . S
C653 C654 1.415 . S
C654 H630 0.950 . S
C654 C649 1.363 . S
C654 C653 1.415 . S
C655 H631 0.951 . S
C655 C656 1.366 . S
C655 C657 1.388 . S
C656 C655 1.366 . S
C656 C660 1.385 . S
C657 H632 0.951 . S
C657 C655 1.388 . S
C657 C658 1.366 . S
C658 C657 1.366 . S
C658 C659 1.414 . S
C658 C661 1.499 . S
C659 H633 0.950 . S
C659 C658 1.414 . S
C659 C660 1.374 . S
C660 H634 0.950 . S
C660 C656 1.385 . S
C660 C659 1.374 . S
C661 C658 1.499 . S
C661 C662 1.373 . S
C661 C663 1.389 . S
C662 H635 0.950 . S
C662 C648 1.377 . S
C662 C661 1.373 . S
C663 C647 1.377 . S
C663 C661 1.389 . S
C663 C664 1.524 . S
C664 C663 1.524 . S
C664 C665 1.397 . S
C664 C669 1.363 . S
C665 H636 0.950 . S
C665 C664 1.397 . S
C665 C666 1.334 . S
C666 H637 0.950 . S
C666 C665 1.334 . S
C666 C667 1.287 . S
C667 C666 1.287 . S
C667 C668 1.524 . S
C667 H670 0.999 . S
C668 H638 0.950 . S
C668 C667 1.524 . S
C668 C669 1.415 . S
C669 H639 0.950 . S
C669 C664 1.363 . S
C669 C668 1.415 . S
H670 C667 0.999 . S
H671 C652 0.913 . S
H672 C690 0.951 . S
H673 C692 0.951 . S
H674 C694 0.950 . S
H675 C695 0.950 . S
H676 C697 0.950 . S
H677 C700 0.950 . S
H678 C701 0.950 . S
H679 C703 0.950 . S
H680 C704 0.950 . S
H681 C705 0.951 . S
H682 C707 0.951 . S
H683 C709 0.950 . S
H684 C710 0.950 . S
H685 C712 0.950 . S
H686 C715 0.950 . S
H687 C716 0.950 . S
H688 C718 0.950 . S
H689 C719 0.950 . S
C690 H672 0.951 . S
C690 C691 1.366 . S
C690 C692 1.388 . S
C691 C690 1.366 . S
C691 C695 1.385 . S
C692 H673 0.951 . S
C692 C690 1.388 . S
C692 C693 1.366 . S
C693 C692 1.366 . S
C693 C694 1.414 . S
C693 C696 1.499 . S
C694 H674 0.950 . S
C694 C693 1.414 . S
C694 C695 1.374 . S
C695 H675 0.950 . S
C695 C691 1.385 . S
C695 C694 1.374 . S
C696 C693 1.499 . S
C696 C697 1.373 . S
C696 C698 1.389 . S
C697 H676 0.950 . S
C697 C696 1.373 . S
C697 C713 1.377 . S
C698 C696 1.389 . S
C698 C699 1.524 . S
C698 C712 1.377 . S
C699 C698 1.524 . S
C699 C700 1.397 . S
C699 C704 1.363 . S
C700 H677 0.950 . S
C700 C699 1.397 . S
C700 C701 1.334 . S
C701 H678 0.950 . S
C701 C700 1.334 . S
C701 C702 1.287 . S
C702 C701 1.287 . S
C702 C703 1.524 . S
C702 H721 0.913 . S
C703 H679 0.950 . S
C703 C702 1.524 . S
C703 C704 1.415 . S
C704 H680 0.950 . S
C704 C699 1.363 . S
C704 C703 1.415 . S
C705 H681 0.951 . S
C705 C706 1.366 . S
C705 C707 1.388 . S
C706 C705 1.366 . S
C706 C710 1.385 . S
C707 H682 0.951 . S
C707 C705 1.388 . S
C707 C708 1.366 . S
C708 C707 1.366 . S
C708 C709 1.414 . S
C708 C711 1.499 . S
C709 H683 0.950 . S
C709 C708 1.414 . S
C709 C710 1.374 . S
C710 H684 0.950 . S
C710 C706 1.385 . S
C710 C709 1.374 . S
C711 C708 1.499 . S
C711 C712 1.373 . S
C711 C713 1.389 . S
C712 H685 0.950 . S
C712 C698 1.377 . S
C712 C711 1.373 . S
C713 C697 1.377 . S
C713 C711 1.389 . S
C713 C714 1.524 . S
C714 C713 1.524 . S
C714 C715 1.397 . S
C714 C719 1.363 . S
C715 H686 0.950 . S
C715 C714 1.397 . S
C715 C716 1.334 . S
C716 H687 0.950 . S
C716 C715 1.334 . S
C716 C717 1.287 . S
C717 C716 1.287 . S
C717 C718 1.524 . S
C717 H720 0.999 . S
C718 H688 0.950 . S
C718 C717 1.524 . S
C718 C719 1.415 . S
C719 H689 0.950 . S
C719 C714 1.363 . S
C719 C718 1.415 . S
H720 C717 0.999 . S
H721 C702 0.913 . S
H722 C740 0.951 . S
H723 C742 0.951 . S
H724 C744 0.950 . S
H725 C745 0.950 . S
H726 C747 0.950 . S
H727 C750 0.950 . S
H728 C751 0.950 . S
H729 C753 0.950 . S
H730 C754 0.950 . S
H731 C755 0.951 . S
H732 C757 0.951 . S
H733 C759 0.950 . S
H734 C760 0.950 . S
H735 C762 0.950 . S
H736 C765 0.950 . S
H737 C766 0.950 . S
H738 C768 0.950 . S
H739 C769 0.950 . S
C740 H722 0.951 . S
C740 C741 1.366 . S
C740 C742 1.388 . S
C741 C740 1.366 . S
C741 C745 1.385 . S
C742 H723 0.951 . S
C742 C740 1.388 . S
C742 C743 1.366 . S
C743 C742 1.366 . S
C743 C744 1.414 . S
C743 C746 1.499 . S
C744 H724 0.950 . S
C744 C743 1.414 . S
C744 C745 1.374 . S
C745 H725 0.950 . S
C745 C741 1.385 . S
C745 C744 1.374 . S
C746 C743 1.499 . S
C746 C747 1.373 . S
C746 C748 1.389 . S
C747 H726 0.950 . S
C747 C746 1.373 . S
C747 C763 1.377 . S
C748 C746 1.389 . S
C748 C749 1.524 . S
C748 C762 1.377 . S
C749 C748 1.524 . S
C749 C750 1.397 . S
C749 C754 1.363 . S
C750 H727 0.950 . S
C750 C749 1.397 . S
C750 C751 1.334 . S
C751 H728 0.950 . S
C751 C750 1.334 . S
C751 C752 1.287 . S
C752 C751 1.287 . S
C752 C753 1.524 . S
C752 H771 0.913 . S
C753 H729 0.950 . S
C753 C752 1.524 . S
C753 C754 1.415 . S
C754 H730 0.950 . S
C754 C749 1.363 . S
C754 C753 1.415 . S
C755 H731 0.951 . S
C755 C756 1.366 . S
C755 C757 1.388 . S
C756 C755 1.366 . S
C756 C760 1.385 . S
C757 H732 0.951 . S
C757 C755 1.388 . S
C757 C758 1.366 . S
C758 C757 1.366 . S
C758 C759 1.414 . S
C758 C761 1.499 . S
C759 H733 0.950 . S
C759 C758 1.414 . S
C759 C760 1.374 . S
C760 H734 0.950 . S
C760 C756 1.385 . S
C760 C759 1.374 . S
C761 C758 1.499 . S
C761 C762 1.373 . S
C761 C763 1.389 . S
C762 H735 0.950 . S
C762 C748 1.377 . S
C762 C761 1.373 . S
C763 C747 1.377 . S
C763 C761 1.389 . S
C763 C764 1.524 . S
C764 C763 1.524 . S
C764 C765 1.397 . S
C764 C769 1.363 . S
C765 H736 0.950 . S
C765 C764 1.397 . S
C765 C766 1.334 . S
C766 H737 0.950 . S
C766 C765 1.334 . S
C766 C767 1.287 . S
C767 C766 1.287 . S
C767 C768 1.524 . S
C767 H770 0.999 . S
C768 H738 0.950 . S
C768 C767 1.524 . S
C768 C769 1.415 . S
C769 H739 0.950 . S
C769 C764 1.363 . S
C769 C768 1.415 . S
H770 C767 0.999 . S
H771 C752 0.913 . S
H772 C790 0.951 . S
H773 C792 0.951 . S
H774 C794 0.950 . S
H775 C795 0.950 . S
H776 C797 0.950 . S
H777 C800 0.950 . S
H778 C801 0.950 . S
H779 C803 0.950 . S
H780 C804 0.950 . S
H781 C805 0.951 . S
H782 C807 0.951 . S
H783 C809 0.950 . S
H784 C810 0.950 . S
H785 C812 0.950 . S
H786 C815 0.950 . S
H787 C816 0.950 . S
H788 C818 0.950 . S
H789 C819 0.950 . S
C790 H772 0.951 . S
C790 C791 1.366 . S
C790 C792 1.388 . S
C791 C790 1.366 . S
C791 C795 1.385 . S
C792 H773 0.951 . S
C792 C790 1.388 . S
C792 C793 1.366 . S
C793 C792 1.366 . S
C793 C794 1.414 . S
C793 C796 1.499 . S
C794 H774 0.950 . S
C794 C793 1.414 . S
C794 C795 1.374 . S
C795 H775 0.950 . S
C795 C791 1.385 . S
C795 C794 1.374 . S
C796 C793 1.499 . S
C796 C797 1.373 . S
C796 C798 1.389 . S
C797 H776 0.950 . S
C797 C796 1.373 . S
C797 C813 1.377 . S
C798 C796 1.389 . S
C798 C799 1.524 . S
C798 C812 1.377 . S
C799 C798 1.524 . S
C799 C800 1.397 . S
C799 C804 1.363 . S
C800 H777 0.950 . S
C800 C799 1.397 . S
C800 C801 1.334 . S
C801 H778 0.950 . S
C801 C800 1.334 . S
C801 C802 1.287 . S
C802 C801 1.287 . S
C802 C803 1.524 . S
C802 H821 0.913 . S
C803 H779 0.950 . S
C803 C802 1.524 . S
C803 C804 1.415 . S
C804 H780 0.950 . S
C804 C799 1.363 . S
C804 C803 1.415 . S
C805 H781 0.951 . S
C805 C806 1.366 . S
C805 C807 1.388 . S
C806 C805 1.366 . S
C806 C810 1.385 . S
C807 H782 0.951 . S
C807 C805 1.388 . S
C807 C808 1.366 . S
C808 C807 1.366 . S
C808 C809 1.414 . S
C808 C811 1.499 1_545 S
C809 H783 0.950 . S
C809 C808 1.414 . S
C809 C810 1.374 . S
C810 H784 0.950 . S
C810 C806 1.385 . S
C810 C809 1.374 . S
C811 C808 1.499 1_565 S
C811 C812 1.373 . S
C811 C813 1.389 . S
C812 H785 0.950 . S
C812 C798 1.377 . S
C812 C811 1.373 . S
C813 C797 1.377 . S
C813 C811 1.389 . S
C813 C814 1.524 . S
C814 C813 1.524 . S
C814 C815 1.397 1_565 S
C814 C819 1.363 . S
C815 H786 0.950 . S
C815 C814 1.397 1_545 S
C815 C816 1.334 . S
C816 H787 0.950 . S
C816 C815 1.334 . S
C816 C817 1.287 . S
C817 C816 1.287 . S
C817 C818 1.524 . S
C817 H820 0.999 . S
C818 H788 0.950 . S
C818 C817 1.524 . S
C818 C819 1.415 1_545 S
C819 H789 0.950 . S
C819 C814 1.363 . S
C819 C818 1.415 1_565 S
H820 C817 0.999 . S
H821 C802 0.913 . S
H822 C840 0.951 . S
H823 C842 0.951 . S
H824 C844 0.950 . S
H825 C845 0.950 . S
H826 C847 0.950 . S
H827 C850 0.950 . S
H828 C851 0.950 . S
H829 C853 0.950 . S
H830 C854 0.950 1_565 S
H831 C855 0.951 . S
H832 C857 0.951 . S
H833 C859 0.950 . S
H834 C860 0.950 . S
H835 C862 0.950 . S
H836 C865 0.950 . S
H837 C866 0.950 . S
H838 C868 0.950 . S
H839 C869 0.950 . S
C840 H822 0.951 . S
C840 C841 1.366 . S
C840 C842 1.388 . S
C841 C840 1.366 . S
C841 C845 1.385 . S
C842 H823 0.951 . S
C842 C840 1.388 . S
C842 C843 1.366 . S
C843 C842 1.366 . S
C843 C844 1.414 . S
C843 C846 1.499 . S
C844 H824 0.950 . S
C844 C843 1.414 . S
C844 C845 1.374 . S
C845 H825 0.950 . S
C845 C841 1.385 . S
C845 C844 1.374 . S
C846 C843 1.499 . S
C846 C847 1.373 1_545 S
C846 C848 1.380 1_545 S
C847 H826 0.950 . S
C847 C846 1.373 1_565 S
C847 C863 1.377 . S
C848 C846 1.380 1_565 S
C848 C849 1.508 1_565 S
C848 C862 1.403 . S
C849 C848 1.508 1_545 S
C849 C850 1.397 . S
C849 C854 1.363 . S
C850 H827 0.950 . S
C850 C849 1.397 . S
C850 C851 1.334 . S
C851 H828 0.950 . S
C851 C850 1.334 . S
C851 C852 1.287 . S
C852 C851 1.287 . S
C852 C853 1.524 . S
C852 H871 0.913 . S
C853 H829 0.950 . S
C853 C852 1.524 . S
C853 C854 1.415 . S
C854 H830 0.950 1_545 S
C854 C849 1.363 . S
C854 C853 1.415 . S
C855 H831 0.951 . S
C855 C856 1.366 . S
C855 C857 1.388 . S
C856 C855 1.366 . S
C856 C860 1.385 . S
C857 H832 0.951 . S
C857 C855 1.388 . S
C857 C858 1.366 . S
C858 C857 1.366 . S
C858 C859 1.414 . S
C858 C861 1.499 . S
C859 H833 0.950 . S
C859 C858 1.414 . S
C859 C860 1.374 . S
C860 H834 0.950 . S
C860 C856 1.385 . S
C860 C859 1.374 . S
C861 C858 1.499 . S
C861 C862 1.373 . S
C861 C863 1.389 . S
C862 H835 0.950 . S
C862 C848 1.403 . S
C862 C861 1.373 . S
C863 C847 1.377 . S
C863 C861 1.389 . S
C863 C864 1.524 . S
C864 C863 1.524 . S
C864 C865 1.397 . S
C864 C869 1.363 . S
C865 H836 0.950 . S
C865 C864 1.397 . S
C865 C866 1.334 . S
C866 H837 0.950 . S
C866 C865 1.334 . S
C866 C867 1.287 . S
C867 C866 1.287 . S
C867 C868 1.524 . S
C867 H870 0.999 . S
C868 H838 0.950 . S
C868 C867 1.524 . S
C868 C869 1.415 . S
C869 H839 0.950 . S
C869 C864 1.363 . S
C869 C868 1.415 . S
H870 C867 0.999 . S
H871 C852 0.913 . S
H872 C890 0.951 . S
H873 C892 0.951 . S
H874 C894 0.950 . S
H875 C895 0.950 . S
H876 C897 0.950 . S
H877 C900 0.950 . S
H878 C901 0.950 . S
H879 C903 0.950 . S
H880 C904 0.950 . S
H881 C905 0.951 . S
H882 C907 0.951 . S
H883 C909 0.950 . S
H884 C910 0.950 . S
H885 C912 0.950 1_565 S
H886 C915 0.950 . S
H887 C916 0.950 . S
H888 C918 0.950 . S
H889 C919 0.950 . S
C890 H872 0.951 . S
C890 C891 1.366 . S
C890 C892 1.388 . S
C891 C890 1.366 . S
C891 C895 1.385 . S
C892 H873 0.951 . S
C892 C890 1.388 . S
C892 C893 1.366 . S
C893 C892 1.366 . S
C893 C894 1.414 . S
C893 C896 1.499 . S
C894 H874 0.950 . S
C894 C893 1.414 . S
C894 C895 1.374 . S
C895 H875 0.950 . S
C895 C891 1.385 . S
C895 C894 1.374 . S
C896 C893 1.499 . S
C896 C897 1.373 . S
C896 C898 1.389 . S
C897 H876 0.950 . S
C897 C896 1.373 . S
C897 C913 1.345 1_545 S
C898 C896 1.389 . S
C898 C899 1.524 . S
C898 C912 1.377 . S
C899 C898 1.524 . S
C899 C900 1.397 . S
C899 C904 1.363 . S
C900 H877 0.950 . S
C900 C899 1.397 . S
C900 C901 1.334 . S
C901 H878 0.950 . S
C901 C900 1.334 . S
C901 C902 1.287 . S
C902 C901 1.287 . S
C902 C903 1.524 . S
C902 H921 0.913 . S
C903 H879 0.950 . S
C903 C902 1.524 . S
C903 C904 1.415 . S
C904 H880 0.950 . S
C904 C899 1.363 . S
C904 C903 1.415 . S
C905 H881 0.951 . S
C905 C906 1.366 . S
C905 C907 1.388 . S
C906 C905 1.366 . S
C906 C910 1.385 . S
C907 H882 0.951 . S
C907 C905 1.388 . S
C907 C908 1.366 . S
C908 C907 1.366 . S
C908 C909 1.414 . S
C908 C911 1.499 . S
C909 H883 0.950 . S
C909 C908 1.414 . S
C909 C910 1.374 . S
C910 H884 0.950 . S
C910 C906 1.385 . S
C910 C909 1.374 . S
C911 C908 1.499 . S
C911 C912 1.373 1_565 S
C911 C913 1.400 . S
C912 H885 0.950 1_545 S
C912 C898 1.377 . S
C912 C911 1.373 1_545 S
C913 C897 1.345 1_565 S
C913 C911 1.400 . S
C913 C914 1.544 . S
C914 C913 1.544 . S
C914 C915 1.397 . S
C914 C919 1.363 . S
C915 H886 0.950 . S
C915 C914 1.397 . S
C915 C916 1.334 . S
C916 H887 0.950 . S
C916 C915 1.334 . S
C916 C917 1.287 . S
C917 C916 1.287 . S
C917 C918 1.524 . S
C917 H920 0.999 . S
C918 H888 0.950 . S
C918 C917 1.524 . S
C918 C919 1.415 . S
C919 H889 0.950 . S
C919 C914 1.363 . S
C919 C918 1.415 . S
H920 C917 0.999 . S
H921 C902 0.913 . S
H922 C940 0.951 . S
H923 C942 0.951 . S
H924 C944 0.950 . S
H925 C945 0.950 . S
H926 C947 0.950 . S
H927 C950 0.950 . S
H928 C951 0.950 . S
H929 C953 0.950 . S
H930 C954 0.950 . S
H931 C955 0.951 . S
H932 C957 0.951 . S
H933 C959 0.950 . S
H934 C960 0.950 . S
H935 C962 0.950 . S
H936 C965 0.939 1_455 S
H937 C966 0.950 . S
H938 C968 0.950 . S
H939 C969 0.950 . S
C940 H922 0.951 . S
C940 C941 1.366 . S
C940 C942 1.388 . S
C941 C940 1.366 . S
C941 C945 1.385 . S
C942 H923 0.951 . S
C942 C940 1.388 . S
C942 C943 1.366 . S
C943 C942 1.366 . S
C943 C944 1.414 . S
C943 C946 1.499 . S
C944 H924 0.950 . S
C944 C943 1.414 . S
C944 C945 1.374 . S
C945 H925 0.950 . S
C945 C941 1.385 . S
C945 C944 1.374 . S
C946 C943 1.499 . S
C946 C947 1.373 . S
C946 C948 1.389 . S
C947 H926 0.950 . S
C947 C946 1.373 . S
C947 C963 1.377 1_565 S
C948 C946 1.389 . S
C948 C949 1.524 . S
C948 C962 1.377 1_565 S
C949 C948 1.524 . S
C949 C950 1.397 . S
C949 C954 1.363 . S
C950 H927 0.950 . S
C950 C949 1.397 . S
C950 C951 1.334 . S
C951 H928 0.950 . S
C951 C950 1.334 . S
C951 C952 1.287 . S
C952 C951 1.287 . S
C952 C953 1.524 . S
C952 H971 0.913 . S
C953 H929 0.950 . S
C953 C952 1.524 . S
C953 C954 1.415 . S
C954 H930 0.950 . S
C954 C949 1.363 . S
C954 C953 1.415 . S
C955 H931 0.951 . S
C955 C956 1.366 . S
C955 C957 1.388 . S
C956 C955 1.366 . S
C956 C960 1.385 . S
C957 H932 0.951 . S
C957 C955 1.388 . S
C957 C958 1.366 . S
C958 C957 1.366 . S
C958 C959 1.414 . S
C958 C961 1.499 . S
C959 H933 0.950 . S
C959 C958 1.414 . S
C959 C960 1.374 . S
C960 H934 0.950 . S
C960 C956 1.385 . S
C960 C959 1.374 . S
C961 C958 1.499 . S
C961 C962 1.373 . S
C961 C963 1.389 . S
C962 H935 0.950 . S
C962 C948 1.377 1_545 S
C962 C961 1.373 . S
C963 C947 1.377 1_545 S
C963 C961 1.389 . S
C963 C964 1.524 . S
C964 C963 1.524 . S
C964 C965 1.387 1_455 S
C964 C969 1.363 . S
C965 H936 0.939 1_655 S
C965 C964 1.387 1_655 S
C965 C966 1.354 . S
C966 H937 0.950 . S
C966 C965 1.354 . S
C966 C967 1.287 . S
C967 C966 1.287 . S
C967 C968 1.524 . S
C967 H970 0.999 . S
C968 H938 0.950 . S
C968 C967 1.524 . S
C968 C969 1.415 1_655 S
C969 H939 0.950 . S
C969 C964 1.363 . S
C969 C968 1.415 1_455 S
H970 C967 0.999 . S
H971 C952 0.913 . S
H972 C990 0.951 . S
H973 C992 0.951 . S
H974 C994 0.950 . S
H975 C995 0.950 . S
H976 C997 0.950 . S
H977 C1000 0.950 . S
H978 C1001 0.950 . S
H979 C1003 0.950 . S
H980 C1004 0.950 . S
H981 C1005 0.951 . S
H982 C1007 0.951 . S
H983 C1009 0.950 . S
H984 C1010 0.950 . S
H985 C1012 0.950 . S
H986 C1015 0.950 . S
H987 C1016 0.950 . S
H988 C1018 0.950 . S
H989 C1019 0.950 . S
C990 H972 0.951 . S
C990 C991 1.366 . S
C990 C992 1.388 . S
C991 C990 1.366 . S
C991 C995 1.385 . S
C992 H973 0.951 . S
C992 C990 1.388 . S
C992 C993 1.366 . S
C993 C992 1.366 . S
C993 C994 1.414 . S
C993 C996 1.499 1_554 S
C994 H974 0.950 . S
C994 C993 1.414 . S
C994 C995 1.374 . S
C995 H975 0.950 . S
C995 C991 1.385 . S
C995 C994 1.374 . S
C996 C993 1.499 1_556 S
C996 C997 1.373 . S
C996 C998 1.389 . S
C997 H976 0.950 . S
C997 C996 1.373 . S
C997 C1013 1.377 . S
C998 C996 1.389 . S
C998 C999 1.524 . S
C998 C1012 1.377 . S
C999 C998 1.524 . S
C999 C1000 1.397 1_556 S
C999 C1004 1.363 . S
C1000 H977 0.950 . S
C1000 C999 1.397 1_554 S
C1000 C1001 1.334 . S
C1001 H978 0.950 . S
C1001 C1000 1.334 . S
C1001 C1002 1.287 . S
C1002 C1001 1.287 . S
C1002 C1003 1.524 1_554 S
C1002 H1021 0.913 . S
C1003 H979 0.950 . S
C1003 C1002 1.524 1_556 S
C1003 C1004 1.415 . S
C1004 H980 0.950 . S
C1004 C999 1.363 . S
C1004 C1003 1.415 . S
C1005 H981 0.951 . S
C1005 C1006 1.366 . S
C1005 C1007 1.388 . S
C1006 C1005 1.366 . S
C1006 C1010 1.385 . S
C1007 H982 0.951 . S
C1007 C1005 1.388 . S
C1007 C1008 1.366 . S
C1008 C1007 1.366 . S
C1008 C1009 1.414 . S
C1008 C1011 1.499 . S
C1009 H983 0.950 . S
C1009 C1008 1.414 . S
C1009 C1010 1.374 . S
C1010 H984 0.950 . S
C1010 C1006 1.385 . S
C1010 C1009 1.374 . S
C1011 C1008 1.499 . S
C1011 C1012 1.373 . S
C1011 C1013 1.389 . S
C1012 H985 0.950 . S
C1012 C998 1.377 . S
C1012 C1011 1.373 . S
C1013 C997 1.377 . S
C1013 C1011 1.389 . S
C1013 C1014 1.524 . S
C1014 C1013 1.524 . S
C1014 C1015 1.397 . S
C1014 C1019 1.363 . S
C1015 H986 0.950 . S
C1015 C1014 1.397 . S
C1015 C1016 1.334 . S
C1016 H987 0.950 . S
C1016 C1015 1.334 . S
C1016 C1017 1.287 . S
C1017 C1016 1.287 . S
C1017 C1018 1.524 . S
C1017 H1020 0.999 . S
C1018 H988 0.950 . S
C1018 C1017 1.524 . S
C1018 C1019 1.415 . S
C1019 H989 0.950 . S
C1019 C1014 1.363 . S
C1019 C1018 1.415 . S
H1020 C1017 0.999 . S
H1021 C1002 0.913 . S
H1022 C1040 0.951 . S
H1023 C1042 0.951 . S
H1024 C1044 0.950 . S
H1025 C1045 0.950 . S
H1026 C1047 0.950 . S
H1027 C1050 0.950 . S
H1028 C1051 0.950 . S
H1029 C1053 0.950 . S
H1030 C1054 0.950 . S
H1031 C1055 0.951 . S
H1032 C1057 0.951 . S
H1033 C1059 0.950 . S
H1034 C1060 0.950 . S
H1035 C1062 0.950 . S
H1036 C1065 0.950 . S
H1037 C1066 0.950 . S
H1038 C1068 0.950 . S
H1039 C1069 0.950 . S
C1040 H1022 0.951 . S
C1040 C1041 1.366 . S
C1040 C1042 1.388 . S
C1041 C1040 1.366 . S
C1041 C1045 1.385 . S
C1042 H1023 0.951 . S
C1042 C1040 1.388 . S
C1042 C1043 1.366 . S
C1043 C1042 1.366 . S
C1043 C1044 1.414 . S
C1043 C1046 1.499 . S
C1044 H1024 0.950 . S
C1044 C1043 1.414 . S
C1044 C1045 1.374 . S
C1045 H1025 0.950 . S
C1045 C1041 1.385 . S
C1045 C1044 1.374 . S
C1046 C1043 1.499 . S
C1046 C1047 1.373 . S
C1046 C1048 1.389 . S
C1047 H1026 0.950 . S
C1047 C1046 1.373 . S
C1047 C1063 1.377 . S
C1048 C1046 1.389 . S
C1048 C1049 1.524 . S
C1048 C1062 1.377 . S
C1049 C1048 1.524 . S
C1049 C1050 1.397 . S
C1049 C1054 1.363 . S
C1050 H1027 0.950 . S
C1050 C1049 1.397 . S
C1050 C1051 1.334 . S
C1051 H1028 0.950 . S
C1051 C1050 1.334 . S
C1051 C1052 1.287 . S
C1052 C1051 1.287 . S
C1052 C1053 1.524 . S
C1052 H1071 0.913 . S
C1053 H1029 0.950 . S
C1053 C1052 1.524 . S
C1053 C1054 1.415 . S
C1054 H1030 0.950 . S
C1054 C1049 1.363 . S
C1054 C1053 1.415 . S
C1055 H1031 0.951 . S
C1055 C1056 1.366 . S
C1055 C1057 1.388 . S
C1056 C1055 1.366 . S
C1056 C1060 1.385 . S
C1057 H1032 0.951 . S
C1057 C1055 1.388 . S
C1057 C1058 1.366 . S
C1058 C1057 1.366 . S
C1058 C1059 1.414 . S
C1058 C1061 1.499 . S
C1059 H1033 0.950 . S
C1059 C1058 1.414 . S
C1059 C1060 1.374 . S
C1060 H1034 0.950 . S
C1060 C1056 1.385 . S
C1060 C1059 1.374 . S
C1061 C1058 1.499 . S
C1061 C1062 1.373 . S
C1061 C1063 1.389 . S
C1062 H1035 0.950 . S
C1062 C1048 1.377 . S
C1062 C1061 1.373 . S
C1063 C1047 1.377 . S
C1063 C1061 1.389 . S
C1063 C1064 1.524 . S
C1064 C1063 1.524 . S
C1064 C1065 1.397 . S
C1064 C1069 1.363 . S
C1065 H1036 0.950 . S
C1065 C1064 1.397 . S
C1065 C1066 1.334 . S
C1066 H1037 0.950 . S
C1066 C1065 1.334 . S
C1066 C1067 1.287 . S
C1067 C1066 1.287 . S
C1067 C1068 1.524 . S
C1067 H1070 0.999 . S
C1068 H1038 0.950 . S
C1068 C1067 1.524 . S
C1068 C1069 1.415 . S
C1069 H1039 0.950 . S
C1069 C1064 1.363 . S
C1069 C1068 1.415 . S
H1070 C1067 0.999 . S
H1071 C1052 0.913 . S
H1072 C1090 0.951 . S
H1073 C1092 0.951 . S
H1074 C1094 0.950 . S
H1075 C1095 0.950 . S
H1076 C1097 0.950 . S
H1077 C1100 0.950 . S
H1078 C1101 0.950 . S
H1079 C1103 0.950 . S
H1080 C1104 0.950 . S
H1081 C1105 0.951 . S
H1082 C1107 0.951 . S
H1083 C1109 0.950 . S
H1084 C1110 0.950 . S
H1085 C1112 0.950 . S
H1086 C1115 0.950 . S
H1087 C1116 0.950 . S
H1088 C1118 0.950 . S
H1089 C1119 0.950 . S
C1090 H1072 0.951 . S
C1090 C1091 1.366 . S
C1090 C1092 1.388 . S
C1091 C1090 1.366 . S
C1091 C1095 1.385 . S
C1092 H1073 0.951 . S
C1092 C1090 1.388 . S
C1092 C1093 1.366 . S
C1093 C1092 1.366 . S
C1093 C1094 1.414 . S
C1093 C1096 1.499 . S
C1094 H1074 0.950 . S
C1094 C1093 1.414 . S
C1094 C1095 1.374 . S
C1095 H1075 0.950 . S
C1095 C1091 1.385 . S
C1095 C1094 1.374 . S
C1096 C1093 1.499 . S
C1096 C1097 1.373 . S
C1096 C1098 1.389 . S
C1097 H1076 0.950 . S
C1097 C1096 1.373 . S
C1097 C1113 1.377 . S
C1098 C1096 1.389 . S
C1098 C1099 1.524 . S
C1098 C1112 1.377 . S
C1099 C1098 1.524 . S
C1099 C1100 1.397 . S
C1099 C1104 1.363 . S
C1100 H1077 0.950 . S
C1100 C1099 1.397 . S
C1100 C1101 1.334 . S
C1101 H1078 0.950 . S
C1101 C1100 1.334 . S
C1101 C1102 1.287 . S
C1102 C1101 1.287 . S
C1102 C1103 1.524 . S
C1102 H1121 0.913 . S
C1103 H1079 0.950 . S
C1103 C1102 1.524 . S
C1103 C1104 1.415 . S
C1104 H1080 0.950 . S
C1104 C1099 1.363 . S
C1104 C1103 1.415 . S
C1105 H1081 0.951 . S
C1105 C1106 1.366 . S
C1105 C1107 1.388 . S
C1106 C1105 1.366 . S
C1106 C1110 1.385 . S
C1107 H1082 0.951 . S
C1107 C1105 1.388 . S
C1107 C1108 1.366 . S
C1108 C1107 1.366 . S
C1108 C1109 1.414 . S
C1108 C1111 1.499 . S
C1109 H1083 0.950 . S
C1109 C1108 1.414 . S
C1109 C1110 1.374 . S
C1110 H1084 0.950 . S
C1110 C1106 1.385 . S
C1110 C1109 1.374 . S
C1111 C1108 1.499 . S
C1111 C1112 1.373 . S
C1111 C1113 1.389 . S
C1112 H1085 0.950 . S
C1112 C1098 1.377 . S
C1112 C1111 1.373 . S
C1113 C1097 1.377 . S
C1113 C1111 1.389 . S
C1113 C1114 1.524 . S
C1114 C1113 1.524 . S
C1114 C1115 1.397 . S
C1114 C1119 1.363 . S
C1115 H1086 0.950 . S
C1115 C1114 1.397 . S
C1115 C1116 1.334 . S
C1116 H1087 0.950 . S
C1116 C1115 1.334 . S
C1116 C1117 1.287 . S
C1117 C1116 1.287 . S
C1117 C1118 1.524 . S
C1117 H1120 0.999 . S
C1118 H1088 0.950 . S
C1118 C1117 1.524 . S
C1118 C1119 1.415 . S
C1119 H1089 0.950 . S
C1119 C1114 1.363 . S
C1119 C1118 1.415 . S
H1120 C1117 0.999 . S
H1121 C1102 0.913 . S
H1122 C1140 0.951 . S
H1123 C1142 0.951 . S
H1124 C1144 0.950 . S
H1125 C1145 0.950 . S
H1126 C1147 0.950 . S
H1127 C1150 0.950 . S
H1128 C1151 0.950 . S
H1129 C1153 0.950 . S
H1130 C1154 0.950 . S
H1131 C1155 0.951 . S
H1132 C1157 0.951 . S
H1133 C1159 0.950 . S
H1134 C1160 0.950 . S
H1135 C1162 0.950 . S
H1136 C1165 0.950 . S
H1137 C1166 0.950 . S
H1138 C1168 0.950 . S
H1139 C1169 0.950 . S
C1140 H1122 0.951 . S
C1140 C1141 1.366 . S
C1140 C1142 1.388 . S
C1141 C1140 1.366 . S
C1141 C1145 1.385 . S
C1142 H1123 0.951 . S
C1142 C1140 1.388 . S
C1142 C1143 1.366 . S
C1143 C1142 1.366 . S
C1143 C1144 1.414 . S
C1143 C1146 1.499 . S
C1144 H1124 0.950 . S
C1144 C1143 1.414 . S
C1144 C1145 1.374 . S
C1145 H1125 0.950 . S
C1145 C1141 1.385 . S
C1145 C1144 1.374 . S
C1146 C1143 1.499 . S
C1146 C1147 1.373 . S
C1146 C1148 1.389 . S
C1147 H1126 0.950 . S
C1147 C1146 1.373 . S
C1147 C1163 1.377 . S
C1148 C1146 1.389 . S
C1148 C1149 1.524 . S
C1148 C1162 1.377 . S
C1149 C1148 1.524 . S
C1149 C1150 1.397 . S
C1149 C1154 1.363 . S
C1150 H1127 0.950 . S
C1150 C1149 1.397 . S
C1150 C1151 1.334 . S
C1151 H1128 0.950 . S
C1151 C1150 1.334 . S
C1151 C1152 1.287 . S
C1152 C1151 1.287 . S
C1152 C1153 1.524 . S
C1152 H1171 0.913 . S
C1153 H1129 0.950 . S
C1153 C1152 1.524 . S
C1153 C1154 1.415 . S
C1154 H1130 0.950 . S
C1154 C1149 1.363 . S
C1154 C1153 1.415 . S
C1155 H1131 0.951 . S
C1155 C1156 1.366 . S
C1155 C1157 1.388 . S
C1156 C1155 1.366 . S
C1156 C1160 1.385 . S
C1157 H1132 0.951 . S
C1157 C1155 1.388 . S
C1157 C1158 1.366 . S
C1158 C1157 1.366 . S
C1158 C1159 1.414 . S
C1158 C1161 1.499 . S
C1159 H1133 0.950 . S
C1159 C1158 1.414 . S
C1159 C1160 1.374 . S
C1160 H1134 0.950 . S
C1160 C1156 1.385 . S
C1160 C1159 1.374 . S
C1161 C1158 1.499 . S
C1161 C1162 1.373 . S
C1161 C1163 1.389 . S
C1162 H1135 0.950 . S
C1162 C1148 1.377 . S
C1162 C1161 1.373 . S
C1163 C1147 1.377 . S
C1163 C1161 1.389 . S
C1163 C1164 1.524 . S
C1164 C1163 1.524 . S
C1164 C1165 1.397 . S
C1164 C1169 1.363 . S
C1165 H1136 0.950 . S
C1165 C1164 1.397 . S
C1165 C1166 1.334 . S
C1166 H1137 0.950 . S
C1166 C1165 1.334 . S
C1166 C1167 1.287 . S
C1167 C1166 1.287 . S
C1167 C1168 1.524 . S
C1167 H1170 0.999 . S
C1168 H1138 0.950 . S
C1168 C1167 1.524 . S
C1168 C1169 1.415 . S
C1169 H1139 0.950 . S
C1169 C1164 1.363 . S
C1169 C1168 1.415 . S
H1170 C1167 0.999 . S
H1171 C1152 0.913 . S
H1172 C1190 0.951 . S
H1173 C1192 0.951 . S
H1174 C1194 0.950 . S
H1175 C1195 0.950 . S
H1176 C1197 0.953 1_556 S
H1177 C1200 0.942 1_556 S
H1178 C1201 0.950 . S
H1179 C1203 0.950 . S
H1180 C1204 0.947 1_455 S
H1181 C1205 0.951 . S
H1182 C1207 0.951 . S
H1183 C1209 0.950 . S
H1184 C1210 0.950 . S
H1185 C1212 0.950 . S
H1186 C1215 0.950 . S
H1187 C1216 0.950 . S
H1188 C1218 0.950 . S
H1189 C1219 0.950 . S
C1190 H1172 0.951 . S
C1190 C1191 1.366 . S
C1190 C1192 1.388 . S
C1191 C1190 1.366 . S
C1191 C1195 1.385 . S
C1192 H1173 0.951 . S
C1192 C1190 1.388 . S
C1192 C1193 1.366 . S
C1193 C1192 1.366 . S
C1193 C1194 1.414 . S
C1193 C1196 1.499 1_556 S
C1194 H1174 0.950 . S
C1194 C1193 1.414 . S
C1194 C1195 1.374 . S
C1195 H1175 0.950 . S
C1195 C1191 1.385 . S
C1195 C1194 1.374 . S
C1196 C1193 1.499 1_554 S
C1196 C1197 1.373 . S
C1196 C1198 1.389 . S
C1197 H1176 0.953 1_554 S
C1197 C1196 1.373 . S
C1197 C1213 1.377 . S
C1198 C1196 1.389 . S
C1198 C1199 1.524 . S
C1198 C1212 1.377 . S
C1199 C1198 1.524 . S
C1199 C1200 1.408 . S
C1199 C1204 1.363 1_455 S
C1200 H1177 0.942 1_554 S
C1200 C1199 1.408 . S
C1200 C1201 1.330 1_454 S
C1201 H1178 0.950 . S
C1201 C1200 1.330 1_656 S
C1201 C1202 1.285 . S
C1202 C1201 1.285 . S
C1202 C1203 1.527 1_556 S
C1202 H1221 0.912 . S
C1203 H1179 0.950 . S
C1203 C1202 1.527 1_554 S
C1203 C1204 1.415 . S
C1204 H1180 0.947 1_655 S
C1204 C1199 1.363 1_655 S
C1204 C1203 1.415 . S
C1205 H1181 0.951 . S
C1205 C1206 1.366 . S
C1205 C1207 1.388 . S
C1206 C1205 1.366 . S
C1206 C1210 1.385 . S
C1207 H1182 0.951 . S
C1207 C1205 1.388 . S
C1207 C1208 1.366 . S
C1208 C1207 1.366 . S
C1208 C1209 1.414 . S
C1208 C1211 1.499 . S
C1209 H1183 0.950 . S
C1209 C1208 1.414 . S
C1209 C1210 1.374 . S
C1210 H1184 0.950 . S
C1210 C1206 1.385 . S
C1210 C1209 1.374 . S
C1211 C1208 1.499 . S
C1211 C1212 1.373 . S
C1211 C1213 1.389 . S
C1212 H1185 0.950 . S
C1212 C1198 1.377 . S
C1212 C1211 1.373 . S
C1213 C1197 1.377 . S
C1213 C1211 1.389 . S
C1213 C1214 1.524 . S
C1214 C1213 1.524 . S
C1214 C1215 1.397 . S
C1214 C1219 1.363 . S
C1215 H1186 0.950 . S
C1215 C1214 1.397 . S
C1215 C1216 1.334 . S
C1216 H1187 0.950 . S
C1216 C1215 1.334 . S
C1216 C1217 1.287 . S
C1217 C1216 1.287 . S
C1217 C1218 1.524 . S
C1217 H1220 0.999 . S
C1218 H1188 0.950 . S
C1218 C1217 1.524 . S
C1218 C1219 1.415 . S
C1219 H1189 0.950 . S
C1219 C1214 1.363 . S
C1219 C1218 1.415 . S
H1220 C1217 0.999 . S
H1221 C1202 0.912 . S
H1222 C1240 0.951 . S
H1223 C1242 0.951 . S
H1224 C1244 0.950 . S
H1225 C1245 0.950 . S
H1226 C1247 0.950 . S
H1227 C1250 0.950 . S
H1228 C1251 0.950 . S
H1229 C1253 0.950 . S
H1230 C1254 0.950 . S
H1231 C1255 0.951 . S
H1232 C1257 0.951 . S
H1233 C1259 0.950 . S
H1234 C1260 0.950 . S
H1235 C1262 0.950 . S
H1236 C1265 0.950 . S
H1237 C1266 0.950 . S
H1238 C1268 0.950 . S
H1239 C1269 0.950 . S
C1240 H1222 0.951 . S
C1240 C1241 1.366 . S
C1240 C1242 1.388 . S
C1241 C1240 1.366 . S
C1241 C1245 1.385 . S
C1242 H1223 0.951 . S
C1242 C1240 1.388 . S
C1242 C1243 1.366 . S
C1243 C1242 1.366 . S
C1243 C1244 1.414 . S
C1243 C1246 1.499 . S
C1244 H1224 0.950 . S
C1244 C1243 1.414 . S
C1244 C1245 1.374 . S
C1245 H1225 0.950 . S
C1245 C1241 1.385 . S
C1245 C1244 1.374 . S
C1246 C1243 1.499 . S
C1246 C1247 1.373 . S
C1246 C1248 1.389 . S
C1247 H1226 0.950 . S
C1247 C1246 1.373 . S
C1247 C1263 1.377 . S
C1248 C1246 1.389 . S
C1248 C1249 1.524 . S
C1248 C1262 1.377 . S
C1249 C1248 1.524 . S
C1249 C1250 1.397 . S
C1249 C1254 1.363 . S
C1250 H1227 0.950 . S
C1250 C1249 1.397 . S
C1250 C1251 1.334 . S
C1251 H1228 0.950 . S
C1251 C1250 1.334 . S
C1251 C1252 1.287 . S
C1252 C1251 1.287 . S
C1252 C1253 1.524 . S
C1252 H1271 0.913 . S
C1253 H1229 0.950 . S
C1253 C1252 1.524 . S
C1253 C1254 1.415 . S
C1254 H1230 0.950 . S
C1254 C1249 1.363 . S
C1254 C1253 1.415 . S
C1255 H1231 0.951 . S
C1255 C1256 1.366 . S
C1255 C1257 1.388 . S
C1256 C1255 1.366 . S
C1256 C1260 1.385 . S
C1257 H1232 0.951 . S
C1257 C1255 1.388 . S
C1257 C1258 1.366 . S
C1258 C1257 1.366 . S
C1258 C1259 1.414 . S
C1258 C1261 1.499 . S
C1259 H1233 0.950 . S
C1259 C1258 1.414 . S
C1259 C1260 1.374 . S
C1260 H1234 0.950 . S
C1260 C1256 1.385 . S
C1260 C1259 1.374 . S
C1261 C1258 1.499 . S
C1261 C1262 1.373 . S
C1261 C1263 1.389 . S
C1262 H1235 0.950 . S
C1262 C1248 1.377 . S
C1262 C1261 1.373 . S
C1263 C1247 1.377 . S
C1263 C1261 1.389 . S
C1263 C1264 1.524 . S
C1264 C1263 1.524 . S
C1264 C1265 1.397 . S
C1264 C1269 1.363 . S
C1265 H1236 0.950 . S
C1265 C1264 1.397 . S
C1265 C1266 1.334 . S
C1266 H1237 0.950 . S
C1266 C1265 1.334 . S
C1266 C1267 1.287 . S
C1267 C1266 1.287 . S
C1267 C1268 1.524 . S
C1267 H1270 0.999 . S
C1268 H1238 0.950 . S
C1268 C1267 1.524 . S
C1268 C1269 1.415 . S
C1269 H1239 0.950 . S
C1269 C1264 1.363 . S
C1269 C1268 1.415 . S
H1270 C1267 0.999 . S
H1271 C1252 0.913 . S
H1272 C1290 0.951 . S
H1273 C1292 0.951 . S
H1274 C1294 0.950 . S
H1275 C1295 0.950 . S
H1276 C1297 0.950 . S
H1277 C1300 0.950 . S
H1278 C1301 0.950 . S
H1279 C1303 0.950 . S
H1280 C1304 0.950 . S
H1281 C1305 0.951 . S
H1282 C1307 0.951 . S
H1283 C1309 0.950 . S
H1284 C1310 0.950 . S
H1285 C1312 0.950 . S
H1286 C1315 0.950 . S
H1287 C1316 0.950 . S
H1288 C1318 0.950 . S
H1289 C1319 0.950 . S
C1290 H1272 0.951 . S
C1290 C1291 1.366 . S
C1290 C1292 1.388 . S
C1291 C1290 1.366 . S
C1291 C1295 1.385 . S
C1292 H1273 0.951 . S
C1292 C1290 1.388 . S
C1292 C1293 1.366 . S
C1293 C1292 1.366 . S
C1293 C1294 1.414 . S
C1293 C1296 1.499 . S
C1294 H1274 0.950 . S
C1294 C1293 1.414 . S
C1294 C1295 1.374 . S
C1295 H1275 0.950 . S
C1295 C1291 1.385 . S
C1295 C1294 1.374 . S
C1296 C1293 1.499 . S
C1296 C1297 1.373 . S
C1296 C1298 1.389 . S
C1297 H1276 0.950 . S
C1297 C1296 1.373 . S
C1297 C1313 1.377 . S
C1298 C1296 1.389 . S
C1298 C1299 1.524 . S
C1298 C1312 1.377 . S
C1299 C1298 1.524 . S
C1299 C1300 1.397 . S
C1299 C1304 1.363 . S
C1300 H1277 0.950 . S
C1300 C1299 1.397 . S
C1300 C1301 1.334 . S
C1301 H1278 0.950 . S
C1301 C1300 1.334 . S
C1301 C1302 1.287 . S
C1302 C1301 1.287 . S
C1302 C1303 1.524 . S
C1302 H1321 0.913 . S
C1303 H1279 0.950 . S
C1303 C1302 1.524 . S
C1303 C1304 1.415 . S
C1304 H1280 0.950 . S
C1304 C1299 1.363 . S
C1304 C1303 1.415 . S
C1305 H1281 0.951 . S
C1305 C1306 1.366 . S
C1305 C1307 1.388 . S
C1306 C1305 1.366 . S
C1306 C1310 1.385 . S
C1307 H1282 0.951 . S
C1307 C1305 1.388 . S
C1307 C1308 1.366 . S
C1308 C1307 1.366 . S
C1308 C1309 1.414 . S
C1308 C1311 1.499 . S
C1309 H1283 0.950 . S
C1309 C1308 1.414 . S
C1309 C1310 1.374 . S
C1310 H1284 0.950 . S
C1310 C1306 1.385 . S
C1310 C1309 1.374 . S
C1311 C1308 1.499 . S
C1311 C1312 1.373 . S
C1311 C1313 1.389 . S
C1312 H1285 0.950 . S
C1312 C1298 1.377 . S
C1312 C1311 1.373 . S
C1313 C1297 1.377 . S
C1313 C1311 1.389 . S
C1313 C1314 1.524 . S
C1314 C1313 1.524 . S
C1314 C1315 1.397 . S
C1314 C1319 1.363 . S
C1315 H1286 0.950 . S
C1315 C1314 1.397 . S
C1315 C1316 1.334 . S
C1316 H1287 0.950 . S
C1316 C1315 1.334 . S
C1316 C1317 1.287 . S
C1317 C1316 1.287 . S
C1317 C1318 1.524 . S
C1317 H1320 0.999 . S
C1318 H1288 0.950 . S
C1318 C1317 1.524 . S
C1318 C1319 1.415 . S
C1319 H1289 0.950 . S
C1319 C1314 1.363 . S
C1319 C1318 1.415 . S
H1320 C1317 0.999 . S
H1321 C1302 0.913 . S
H1322 C1340 0.951 . S
H1323 C1342 0.951 . S
H1324 C1344 0.950 . S
H1325 C1345 0.950 . S
H1326 C1347 0.950 . S
H1327 C1350 0.950 . S
H1328 C1351 0.950 . S
H1329 C1353 0.950 . S
H1330 C1354 0.950 . S
H1331 C1355 0.951 . S
H1332 C1357 0.951 . S
H1333 C1359 0.950 . S
H1334 C1360 0.950 . S
H1335 C1362 0.950 . S
H1336 C1365 0.950 . S
H1337 C1366 0.950 . S
H1338 C1368 0.950 . S
H1339 C1369 0.950 . S
C1340 H1322 0.951 . S
C1340 C1341 1.366 . S
C1340 C1342 1.388 . S
C1341 C1340 1.366 . S
C1341 C1345 1.385 . S
C1342 H1323 0.951 . S
C1342 C1340 1.388 . S
C1342 C1343 1.366 . S
C1343 C1342 1.366 . S
C1343 C1344 1.414 . S
C1343 C1346 1.499 . S
C1344 H1324 0.950 . S
C1344 C1343 1.414 . S
C1344 C1345 1.374 . S
C1345 H1325 0.950 . S
C1345 C1341 1.385 . S
C1345 C1344 1.374 . S
C1346 C1343 1.499 . S
C1346 C1347 1.373 . S
C1346 C1348 1.389 . S
C1347 H1326 0.950 . S
C1347 C1346 1.373 . S
C1347 C1363 1.377 . S
C1348 C1346 1.389 . S
C1348 C1349 1.524 . S
C1348 C1362 1.377 . S
C1349 C1348 1.524 . S
C1349 C1350 1.397 . S
C1349 C1354 1.363 . S
C1350 H1327 0.950 . S
C1350 C1349 1.397 . S
C1350 C1351 1.334 . S
C1351 H1328 0.950 . S
C1351 C1350 1.334 . S
C1351 C1352 1.287 . S
C1352 C1351 1.287 . S
C1352 C1353 1.524 . S
C1352 H1371 0.913 . S
C1353 H1329 0.950 . S
C1353 C1352 1.524 . S
C1353 C1354 1.415 . S
C1354 H1330 0.950 . S
C1354 C1349 1.363 . S
C1354 C1353 1.415 . S
C1355 H1331 0.951 . S
C1355 C1356 1.366 . S
C1355 C1357 1.388 . S
C1356 C1355 1.366 . S
C1356 C1360 1.385 . S
C1357 H1332 0.951 . S
C1357 C1355 1.388 . S
C1357 C1358 1.366 . S
C1358 C1357 1.366 . S
C1358 C1359 1.414 . S
C1358 C1361 1.499 . S
C1359 H1333 0.950 . S
C1359 C1358 1.414 . S
C1359 C1360 1.374 . S
C1360 H1334 0.950 . S
C1360 C1356 1.385 . S
C1360 C1359 1.374 . S
C1361 C1358 1.499 . S
C1361 C1362 1.373 . S
C1361 C1363 1.389 . S
C1362 H1335 0.950 . S
C1362 C1348 1.377 . S
C1362 C1361 1.373 . S
C1363 C1347 1.377 . S
C1363 C1361 1.389 . S
C1363 C1364 1.524 . S
C1364 C1363 1.524 . S
C1364 C1365 1.397 . S
C1364 C1369 1.363 . S
C1365 H1336 0.950 . S
C1365 C1364 1.397 . S
C1365 C1366 1.334 . S
C1366 H1337 0.950 . S
C1366 C1365 1.334 . S
C1366 C1367 1.287 . S
C1367 C1366 1.287 . S
C1367 C1368 1.524 . S
C1367 H1370 0.999 . S
C1368 H1338 0.950 . S
C1368 C1367 1.524 . S
C1368 C1369 1.415 . S
C1369 H1339 0.950 . S
C1369 C1364 1.363 . S
C1369 C1368 1.415 . S
H1370 C1367 0.999 . S
H1371 C1352 0.913 . S
C206 C95 1.446 . S
C191 C4 1.574 . S
C256 C113 1.351 . S
C241 C21 1.426 . S
C291 C32 1.357 . S
C306 C137 1.245 . S
C356 C167 1.247 1_655 S
C341 C37 1.387 . S
C406 C155 1.195 . S
C391 C48 1.295 . S
C441 C65 1.443 . S
C456 C108 1.371 . S
C491 C76 1.618 . S
C506 C128 1.523 . S
C541 C81 1.394 . S
C556 C133 1.269 . S
C591 C87 1.434 . S
C606 C149 1.362 . S
C641 C59 1.396 . S
C656 C104 1.266 . S
C706 C171 1.365 . S
C691 C43 1.433 . S
C756 C116 1.244 . S
C741 C15 1.392 . S
C791 C26 1.570 . S
C806 C134 1.444 . S
C841 C10 1.369 . S
C856 C92 1.254 . S
C906 C112 1.189 . S
C891 C70 1.280 . S
C956 C158 1.522 . S
C941 C54 1.624 . S
C1006 C154 1.384 . S
C991 C5 1.519 . S
C1056 C107 1.441 . S
C1041 C16 1.501 . S
C1091 C27 1.499 . S
C1106 C129 1.361 . S
C1141 C38 1.522 . S
C1156 C150 1.460 . S
C1206 C91 1.355 . S
C1191 C49 1.571 . S
C1241 C60 1.502 . S
C1256 C125 1.433 . S
C1306 C146 1.374 . S
C1291 C71 1.590 . S
C1356 C170 1.405 . S
C1341 C82 1.477 . S
