# Generated by pormake.
# Topology anh, (6,3)-cn, num edge types: 1
# Building blocks:
#     Node 0, Type 0, BuildingBlock: BETDAH_clean_sbu_0, # of connection points: 6
#     Node 1, Type 0, BuildingBlock: BETDAH_clean_sbu_0, # of connection points: 6
#     Node 2, Type 0, BuildingBlock: BETDAH_clean_sbu_0, # of connection points: 6
#     Node 3, Type 1, BuildingBlock: QEWDON_clean_linker_0, # of connection points: 3
#     Node 4, Type 1, BuildingBlock: QEWDON_clean_linker_0, # of connection points: 3
#     Node 5, Type 1, BuildingBlock: QEWDON_clean_linker_0, # of connection points: 3
#     Node 6, Type 1, BuildingBlock: QEWDON_clean_linker_0, # of connection points: 3
#     Node 7, Type 1, BuildingBlock: QEWDON_clean_linker_0, # of connection points: 3
#     Node 8, Type 1, BuildingBlock: QEWDON_clean_linker_0, # of connection points: 3
#     Edge 9, Type (0, 1), BuildingBlock: MIFKUJ_clean_linker_0, # of connection points: 2
#     Edge 10, Type (0, 1), BuildingBlock: MIFKUJ_clean_linker_0, # of connection points: 2
#     Edge 11, Type (0, 1), BuildingBlock: MIFKUJ_clean_linker_0, # of connection points: 2
#     Edge 12, Type (0, 1), BuildingBlock: MIFKUJ_clean_linker_0, # of connection points: 2
#     Edge 13, Type (0, 1), BuildingBlock: MIFKUJ_clean_linker_0, # of connection points: 2
#     Edge 14, Type (0, 1), BuildingBlock: MIFKUJ_clean_linker_0, # of connection points: 2
#     Edge 15, Type (0, 1), BuildingBlock: MIFKUJ_clean_linker_0, # of connection points: 2
#     Edge 16, Type (0, 1), BuildingBlock: MIFKUJ_clean_linker_0, # of connection points: 2
#     Edge 17, Type (0, 1), BuildingBlock: MIFKUJ_clean_linker_0, # of connection points: 2
#     Edge 18, Type (0, 1), BuildingBlock: MIFKUJ_clean_linker_0, # of connection points: 2
#     Edge 19, Type (0, 1), BuildingBlock: MIFKUJ_clean_linker_0, # of connection points: 2
#     Edge 20, Type (0, 1), BuildingBlock: MIFKUJ_clean_linker_0, # of connection points: 2
#     Edge 21, Type (0, 1), BuildingBlock: MIFKUJ_clean_linker_0, # of connection points: 2
#     Edge 22, Type (0, 1), BuildingBlock: MIFKUJ_clean_linker_0, # of connection points: 2
#     Edge 23, Type (0, 1), BuildingBlock: MIFKUJ_clean_linker_0, # of connection points: 2
#     Edge 24, Type (0, 1), BuildingBlock: MIFKUJ_clean_linker_0, # of connection points: 2
#     Edge 25, Type (0, 1), BuildingBlock: MIFKUJ_clean_linker_0, # of connection points: 2
#     Edge 26, Type (0, 1), BuildingBlock: MIFKUJ_clean_linker_0, # of connection points: 2
# Relax obj value: 0.108
# Max RMSD: 0.160
# Mean RMSD: 0.125
data_MOF--net-anh--node1-BETDAH_clean_sbu_0--node2-QEWDON_clean_linker_0--edge1-MIFKUJ_clean_linker_0
_symmetry_space_group_name_H-M    P1
_symmetry_Int_Tables_number       1
_symmetry_cell_setting            triclinic
loop_
_symmetry_equiv_pos_as_xyz
'x, y, z'
_cell_length_a     41.958701
_cell_length_b     48.604739
_cell_length_c     62.61784
_cell_angle_alpha  96.651393
_cell_angle_beta   92.348636
_cell_angle_gamma 127.82498
loop_
_atom_site_label
_atom_site_type_symbol
_atom_site_fract_x
_atom_site_fract_y
_atom_site_fract_z
_atom_type_partial_charge
Ho0 Ho 0.09596 0.53146 0.1492 0.0
Ho1 Ho 1.05216 0.56044 0.16462 0.0
C2 C 0.14557 0.61771 0.16046 0.0
C3 C 0.14191 0.5207 0.13048 0.0
C4 C 0.18626 0.54338 0.13023 0.0
C5 C 0.20754 0.57683 0.1241 0.0
C6 C 0.25011 0.59947 0.12624 0.0
C7 C 0.27193 0.5891 0.13479 0.0
C8 C 0.25057 0.55532 0.14035 0.0
C9 C 0.20812 0.53263 0.13801 0.0
C10 C 0.09247 0.53838 0.19215 0.0
C11 C 1.00297 0.47421 0.1528 0.0
C12 C 1.00906 0.57261 0.18579 0.0
C13 C 0.96733 0.54976 0.19107 0.0
C14 C 0.95297 0.5639 0.20454 0.0
C15 C 0.91262 0.54202 0.20879 0.0
C16 C 0.88624 0.50581 0.19951 0.0
C17 C 0.90133 0.49169 0.18664 0.0
C18 C 0.94134 0.51355 0.18237 0.0
C19 C 0.05684 0.55529 0.12178 0.0
O20 O 0.14347 0.59093 0.1504 0.0
O21 O 0.11502 0.61235 0.16992 0.0
O22 O 0.13043 0.51201 0.14928 0.0
O23 O 0.12189 0.52927 0.12053 0.0
O24 O 0.08936 0.5124 0.18111 0.0
O25 O 0.09926 0.56001 0.18019 0.0
O26 O 1.00564 0.501 0.16329 0.0
O27 O 1.03316 0.47932 0.14312 0.0
O28 O 1.01208 0.57431 0.16519 0.0
O29 O 1.03423 0.56873 0.19509 0.0
O30 O 0.0586 0.58039 0.13319 0.0
O31 O 1.04979 0.53293 0.13329 0.0
H32 H 0.19138 0.58578 0.11804 0.0
H33 H 0.26599 0.62534 0.12175 0.0
H34 H 0.26678 0.54648 0.14658 0.0
H35 H 0.19237 0.50697 0.1428 0.0
H36 H 0.97267 0.59185 0.21145 0.0
H37 H 0.90163 0.5537 0.21856 0.0
H38 H 0.88181 0.4639 0.17931 0.0
H39 H 0.95153 0.50228 0.17175 0.0
Ho40 Ho 0.62261 0.05865 0.48619 0.0
Ho41 Ho 0.56638 0.07763 0.47881 0.0
C42 C 0.5233 0.99661 0.47743 0.0
C43 C 0.65843 0.03439 0.5 0.0
C44 C 0.64702 1.00034 0.50406 0.0
C45 C 0.60918 0.97459 0.51036 0.0
C46 C 0.59927 0.94241 0.51399 0.0
C47 C 0.62707 0.93545 0.51145 0.0
C48 C 0.66466 0.96129 0.5048 0.0
C49 C 0.6745 0.99336 0.50121 0.0
C50 C 0.60915 0.06406 0.44512 0.0
C51 C 0.66598 0.13997 0.48606 0.0
C52 C 0.53211 0.10376 0.46616 0.0
C53 C 0.54253 0.13906 0.47029 0.0
C54 C 0.52813 0.14908 0.45484 0.0
C55 C 0.53694 0.18219 0.45885 0.0
C56 C 0.5602 0.20587 0.47849 0.0
C57 C 0.57518 0.19583 0.49377 0.0
C58 C 0.56662 0.16285 0.48965 0.0
C59 C 0.58147 0.07345 0.52008 0.0
O60 O 0.55922 0.00711 0.48629 0.0
O61 O 0.51941 0.01878 0.46974 0.0
O62 O 0.65361 0.03648 0.47966 0.0
O63 O 0.64706 0.04919 0.5129 0.0
O64 O 0.64361 0.07344 0.45414 0.0
O65 O 0.58268 0.0501 0.45777 0.0
O66 O 0.62915 0.1299 0.47985 0.0
O67 O 0.67144 0.11762 0.49183 0.0
O68 O 0.52314 0.08748 0.48279 0.0
O69 O 0.55575 0.10093 0.4548 0.0
O70 O 0.54678 0.06389 0.51141 0.0
O71 O 0.60703 0.08693 0.50701 0.0
H72 H 0.5874 0.97939 0.51259 0.0
H73 H 0.57016 0.92334 0.51919 0.0
H74 H 0.68643 0.95664 0.50207 0.0
H75 H 0.70367 0.01276 0.49612 0.0
H76 H 0.50985 0.1312 0.4397 0.0
H77 H 0.52555 0.18922 0.44652 0.0
H78 H 0.59275 0.21306 0.50916 0.0
H79 H 0.57835 0.15573 0.50174 0.0
Ho80 Ho 0.65092 0.58811 0.84151 0.0
Ho81 Ho 0.59428 0.51024 0.84384 0.0
C82 C 0.5525 0.5482 0.84402 0.0
C83 C 0.68724 0.64975 0.83066 0.0
C84 C 0.67911 0.67439 0.82694 0.0
C85 C 0.63942 0.66252 0.82087 0.0
C86 C 0.63283 0.68666 0.81722 0.0
C87 C 0.6658 0.72309 0.81963 0.0
C88 C 0.70542 0.7347 0.82586 0.0
C89 C 0.71195 0.71057 0.82946 0.0
C90 C 0.64501 0.57275 0.88183 0.0
C91 C 0.69359 0.55057 0.84273 0.0
C92 C 0.56226 0.44892 0.85379 0.0
C93 C 0.57109 0.42394 0.84929 0.0
C94 C 0.56528 0.40269 0.86443 0.0
C95 C 0.57435 0.3794 0.86048 0.0
C96 C 0.58925 0.37678 0.84121 0.0
C97 C 0.59528 0.39843 0.82615 0.0
C98 C 0.58654 0.4219 0.83021 0.0
C99 C 0.5987 0.52511 0.80355 0.0
O100 O 0.58697 0.57438 0.83747 0.0
O101 O 0.55006 0.52194 0.85062 0.0
O102 O 0.68903 0.64512 0.85068 0.0
O103 O 0.66771 0.62022 0.81659 0.0
O104 O 0.67864 0.59889 0.8761 0.0
O105 O 0.61628 0.55778 0.86646 0.0
O106 O 0.65691 0.52189 0.8454 0.0
O107 O 0.69857 0.57946 0.83939 0.0
O108 O 0.54743 0.45349 0.83698 0.0
O109 O 0.5905 0.47869 0.86689 0.0
O110 O 0.56555 0.49912 0.8097 0.0
O111 O 0.62829 0.54029 0.81855 0.0
H112 H 0.61362 0.63465 0.81884 0.0
H113 H 0.60196 0.67672 0.81222 0.0
H114 H 0.73142 0.76254 0.82823 0.0
H115 H 0.74277 0.72021 0.83424 0.0
H116 H 0.55392 0.40426 0.87938 0.0
H117 H 0.57005 0.36372 0.87266 0.0
H118 H 0.60617 0.39691 0.81103 0.0
H119 H 0.59175 0.43839 0.81839 0.0
H120 H 0.58463 0.08751 0.20768 0.0
C121 C 0.56209 0.05925 0.20208 0.0
C122 C 0.54166 0.03742 0.21742 0.0
C123 C 0.55161 0.04498 0.17966 0.0
H124 H 0.49532 0.98436 0.22243 0.0
C125 C 0.51072 1.00104 0.21044 0.0
C126 C 0.4994 0.98584 0.18835 0.0
C127 C 0.52076 0.00781 0.17309 0.0
C128 C 0.56975 0.06908 0.16316 0.0
H129 H 0.51225 0.99595 0.15606 0.0
C130 C 0.60962 0.1023 0.16744 0.0
C131 C 0.62418 0.12571 0.15233 0.0
C132 C 0.54567 0.05981 0.14324 0.0
H133 H 0.51464 0.03553 0.13943 0.0
C134 C 0.56053 0.0823 0.12807 0.0
H135 H 0.629 0.11038 0.18257 0.0
C136 C 0.59927 0.11495 0.13256 0.0
H137 H 0.60976 0.13198 0.1205 0.0
H138 H 0.54154 0.07463 0.11286 0.0
H139 H 0.56624 0.57472 0.5736 0.0
C140 C 0.57384 0.55871 0.5658 0.0
C141 C 0.5912 0.54786 0.57863 0.0
C142 C 0.56472 0.54772 0.54311 0.0
H143 H 0.6107 0.51595 0.5787 0.0
C144 C 0.59936 0.52579 0.56865 0.0
C145 C 0.5898 0.51396 0.54609 0.0
C146 C 0.5733 0.52568 0.53343 0.0
C147 C 0.54342 0.55685 0.5296 0.0
H148 H 0.56659 0.51716 0.51596 0.0
C149 C 0.55414 0.59097 0.53328 0.0
C150 C 0.53343 0.59905 0.5204 0.0
C151 C 0.5115 0.53088 0.51297 0.0
H152 H 0.50184 0.50421 0.50999 0.0
C153 C 0.49116 0.53878 0.50013 0.0
H154 H 0.57849 0.61114 0.54613 0.0
C155 C 0.50204 0.57255 0.50371 0.0
H156 H 0.48609 0.57799 0.4932 0.0
H157 H 0.4668 0.5186 0.48731 0.0
H158 H 0.13815 0.55271 0.88898 0.0
C159 C 0.11296 0.55052 0.88122 0.0
C160 C 0.08609 0.55002 0.89427 0.0
C161 C 0.10949 0.55105 0.85881 0.0
H162 H 1.03396 0.54878 0.89534 0.0
C163 C 0.05425 0.54906 0.88499 0.0
C164 C 1.04793 0.54857 0.86279 0.0
C165 C 0.07567 0.54927 0.84965 0.0
C166 C 0.14388 0.55793 0.84603 0.0
H167 H 0.07112 0.54906 0.8325 0.0
C168 C 0.17085 0.54941 0.8513 0.0
C169 C 0.20397 0.55901 0.83909 0.0
C170 C 0.15205 0.57652 0.82879 0.0
H171 H 0.13454 0.58505 0.82445 0.0
C172 C 0.18418 0.58634 0.81731 0.0
H173 H 0.16583 0.53506 0.8644 0.0
C174 C 0.20962 0.57803 0.82238 0.0
H175 H 0.23462 0.58727 0.81309 0.0
H176 H 0.18988 0.60118 0.80438 0.0
H177 H 1.05073 0.54736 0.42968 0.0
C178 C 0.08059 0.5715 0.43673 0.0
C179 C 0.10866 0.59256 0.42297 0.0
C180 C 0.08998 0.5827 0.45948 0.0
H181 H 0.16903 0.6406 0.42181 0.0
C182 C 0.14691 0.62437 0.43219 0.0
C183 C 0.15672 0.63637 0.45461 0.0
C184 C 0.12837 0.61552 0.46823 0.0
C185 C 0.05882 0.56175 0.474 0.0
H186 H 0.13638 0.62501 0.4856 0.0
C187 C 1.03191 0.52412 0.47017 0.0
C188 C 1.00344 0.50537 0.48451 0.0
C189 C 0.05557 0.57984 0.49192 0.0
H190 H 0.07448 0.60845 0.49504 0.0
C191 C 1.02736 0.56141 0.50592 0.0
H192 H 1.03377 0.50952 0.45652 0.0
C193 C 1.00167 0.52459 0.50235 0.0
H194 H 0.97981 0.51101 0.51343 0.0
H195 H 1.02525 0.57578 0.51959 0.0
H196 H 0.58572 0.00958 0.74853 0.0
C197 C 0.59497 0.03476 0.75689 0.0
C198 C 0.6043 0.06092 0.7448 0.0
C199 C 0.59478 0.04023 0.77948 0.0
H200 H 0.62069 0.11268 0.74605 0.0
C201 C 0.61442 0.0929 0.75548 0.0
C202 C 0.61488 0.09904 0.77794 0.0
C203 C 0.60566 0.07283 0.78984 0.0
C204 C 0.57998 0.01128 0.79219 0.0
H205 H 0.6064 0.07769 0.80725 0.0
C206 C 0.59019 0.98845 0.78872 0.0
C207 C 0.57614 0.96158 0.80127 0.0
C208 C 0.55491 1.00636 0.80805 0.0
H209 H 0.5454 0.02262 0.81073 0.0
C210 C 0.54141 0.98026 0.8206 0.0
H211 H 0.60901 0.99164 0.77638 0.0
C212 C 0.55214 0.95826 0.81741 0.0
H213 H 0.54184 0.9388 0.82783 0.0
H214 H 0.52257 0.97711 0.83291 0.0
H215 H 0.61947 0.57553 0.11047 0.0
C216 C 0.61409 0.55369 0.11723 0.0
C217 C 0.60387 0.52379 0.10326 0.0
C218 C 0.61985 0.5566 0.13986 0.0
H219 H 0.59067 0.47309 0.10141 0.0
C220 C 0.5986 0.49622 0.11215 0.0
C221 C 0.60424 0.49864 0.13478 0.0
C222 C 0.61475 0.52894 0.14848 0.0
C223 C 0.63241 0.58903 0.15444 0.0
H224 H 0.62015 0.53155 0.16593 0.0
C225 C 0.61345 0.60411 0.15052 0.0
C226 C 0.6243 0.63429 0.16449 0.0
C227 C 0.66303 0.60491 0.17242 0.0
H228 H 0.67866 0.59425 0.17564 0.0
C229 C 0.67408 0.63502 0.18629 0.0
H230 H 0.58909 0.59155 0.13703 0.0
C231 C 0.65468 0.64958 0.18246 0.0
H232 H 0.66344 0.67278 0.19348 0.0
H233 H 0.69766 0.64703 0.20009 0.0
H234 H 0.32227 0.624 0.10511 0.0
H235 H 0.39552 0.6533 0.10825 0.0
H236 H 0.39551 0.63666 0.17445 0.0
H237 H 0.32258 0.60737 0.17134 0.0
H238 H 0.47016 0.70066 0.16705 0.0
H239 H 0.37374 0.57397 0.13743 0.0
H240 H 0.31649 0.52258 0.11115 0.0
H241 H 0.38346 0.56794 0.05855 0.0
H242 H 0.44088 0.61994 0.08457 0.0
H243 H 0.58947 0.65004 0.19402 0.0
H244 H 0.54256 0.66278 0.18669 0.0
H245 H 0.56138 0.66237 0.11942 0.0
H246 H 0.60759 0.64864 0.12665 0.0
H247 H 0.48486 0.61927 0.12172 0.0
H248 H 0.58983 0.73885 0.15412 0.0
H249 H 0.64627 0.78871 0.18143 0.0
H250 H 0.5652 0.75741 0.22935 0.0
H251 H 0.50836 0.70702 0.20243 0.0
C252 C 0.33829 0.62763 0.1205 0.0
C253 C 0.31691 0.61291 0.13786 0.0
C254 C 0.38001 0.64439 0.1223 0.0
C255 C 0.40068 0.64677 0.14151 0.0
C256 C 0.38009 0.6351 0.1595 0.0
C257 C 0.33841 0.61804 0.15764 0.0
C258 C 0.44092 0.65494 0.1418 0.0
C259 C 0.47376 0.68317 0.15709 0.0
C260 C 0.44553 0.63238 0.12848 0.0
C261 C 0.41129 0.601 0.11288 0.0
C262 C 0.37609 0.5731 0.12025 0.0
C263 C 0.34364 0.54386 0.10541 0.0
C264 C 0.34628 0.54205 0.08318 0.0
C265 C 0.38143 0.56943 0.07577 0.0
C266 C 0.41391 0.5988 0.09054 0.0
C267 C 0.58445 0.65366 0.17781 0.0
C268 C 0.60184 0.64813 0.16085 0.0
C269 C 0.55779 0.66114 0.17364 0.0
C270 C 0.54863 0.66384 0.15251 0.0
C271 C 0.56797 0.66042 0.13583 0.0
C272 C 0.59424 0.6525 0.13995 0.0
C273 C 0.51456 0.66484 0.14733 0.0
C274 C 0.4824 0.6379 0.13119 0.0
C275 C 0.51077 0.68861 0.15995 0.0
C276 C 0.54482 0.71901 0.17623 0.0
C277 C 0.58406 0.74244 0.17051 0.0
C278 C 0.61613 0.77083 0.18593 0.0
C279 C 0.60933 0.7762 0.20711 0.0
C280 C 0.57042 0.75322 0.21292 0.0
C281 C 0.53823 0.72477 0.19757 0.0
H282 H 0.63421 0.79819 0.21903 0.0
H283 H 0.32113 0.51939 0.07172 0.0
H284 H 0.66649 0.19572 0.48189 0.0
H285 H 0.72466 0.25621 0.47933 0.0
H286 H 0.8052 0.22988 0.48671 0.0
H287 H 0.74701 0.16909 0.48931 0.0
H288 H 0.79251 0.30736 0.50743 0.0
H289 H 0.88208 0.27798 0.45426 0.0
H290 H 0.86779 0.22993 0.42654 0.0
H291 H 0.74608 0.19365 0.40922 0.0
H292 H 0.75995 0.24208 0.43635 0.0
H293 H 0.99035 0.46431 0.51446 0.0
H294 H 0.93501 0.40116 0.51227 0.0
H295 H 0.8949 0.39368 0.44584 0.0
H296 H 0.95096 0.45727 0.44794 0.0
H297 H 0.88411 0.33308 0.45188 0.0
H298 H 0.84999 0.40378 0.48538 0.0
H299 H 0.86067 0.4518 0.51141 0.0
H300 H 0.86363 0.40467 0.5646 0.0
H301 H 0.85361 0.35665 0.53888 0.0
C302 C 0.69656 0.20271 0.48307 0.0
C303 C 0.70194 0.17737 0.48583 0.0
C304 C 0.72987 0.23743 0.48162 0.0
C305 C 0.76938 0.24766 0.48261 0.0
C306 C 0.775 0.22259 0.48565 0.0
C307 C 0.74168 0.18786 0.48729 0.0
C308 C 0.80458 0.28459 0.48059 0.0
C309 C 0.81255 0.31288 0.49531 0.0
C310 C 0.83029 0.29205 0.46444 0.0
C311 C 0.82198 0.26347 0.44756 0.0
C312 C 0.85237 0.25993 0.44442 0.0
C313 C 0.84434 0.23264 0.42879 0.0
C314 C 0.80603 0.20875 0.41614 0.0
C315 C 0.77574 0.21221 0.41901 0.0
C316 C 0.78368 0.23958 0.43452 0.0
C317 C 0.9702 0.4491 0.49924 0.0
C318 C 0.97481 0.46588 0.48144 0.0
C319 C 0.93845 0.41298 0.49803 0.0
C320 C 0.9101 0.39267 0.47905 0.0
C321 C 0.91621 0.40875 0.46071 0.0
C322 C 0.94832 0.44508 0.46189 0.0
C323 C 0.87266 0.35568 0.47917 0.0
C324 C 0.86415 0.32745 0.46405 0.0
C325 C 0.84585 0.34818 0.49469 0.0
C326 C 0.85139 0.37678 0.51021 0.0
C327 C 0.85318 0.40378 0.50263 0.0
C328 C 0.8591 0.43099 0.51733 0.0
C329 C 0.86291 0.43132 0.53965 0.0
C330 C 0.86071 0.40439 0.54731 0.0
C331 C 0.85489 0.37716 0.53268 0.0
H332 H 0.86749 0.45241 0.55101 0.0
H333 H 0.79983 0.18756 0.40411 0.0
H334 H 0.60431 0.72417 0.83102 0.0
H335 H 0.59188 0.76543 0.82376 0.0
H336 H 0.70077 0.82316 0.7934 0.0
H337 H 0.71238 0.78095 0.7997 0.0
H338 H 0.69132 0.8661 0.82467 0.0
H339 H 0.61702 0.77428 0.76106 0.0
H340 H 0.56836 0.71207 0.7425 0.0
H341 H 0.47247 0.70063 0.7736 0.0
H342 H 0.52071 0.76269 0.79256 0.0
H343 H 0.64829 0.97627 0.7917 0.0
H344 H 0.66631 0.93689 0.79009 0.0
H345 H 0.54653 0.85302 0.80369 0.0
H346 H 0.52736 0.89105 0.80352 0.0
H347 H 0.56645 0.82464 0.77756 0.0
H348 H 0.6366 0.91021 0.84392 0.0
H349 H 0.68281 0.96986 0.86641 0.0
H350 H 0.7829 0.9908 0.835 0.0
H351 H 0.73713 0.93138 0.81213 0.0
C352 C 0.62517 0.7452 0.82244 0.0
C353 C 0.65897 0.74888 0.81571 0.0
C354 C 0.61827 0.76897 0.81849 0.0
C355 C 0.64531 0.7972 0.80793 0.0
C356 C 0.67959 0.80154 0.8016 0.0
C357 C 0.68623 0.77746 0.8053 0.0
C358 C 0.63741 0.82197 0.80345 0.0
C359 C 0.66444 0.85732 0.81407 0.0
C360 C 0.6018 0.81013 0.79008 0.0
C361 C 0.57252 0.77308 0.77829 0.0
C362 C 0.5856 0.75846 0.76401 0.0
C363 C 0.55809 0.72323 0.7534 0.0
C364 C 0.51735 0.70243 0.75686 0.0
C365 C 0.50402 0.71682 0.7709 0.0
C366 C 0.53142 0.75203 0.78155 0.0
C367 C 0.62548 0.94921 0.79384 0.0
C368 C 0.58656 0.93715 0.79815 0.0
C369 C 0.63603 0.92681 0.79324 0.0
C370 C 0.6082 0.89215 0.79738 0.0
C371 C 0.56879 0.87965 0.80063 0.0
C372 C 0.55802 0.9017 0.80082 0.0
C373 C 0.62001 0.86904 0.79913 0.0
C374 C 0.59369 0.83381 0.78798 0.0
C375 C 0.65584 0.88083 0.81246 0.0
C376 C 0.68336 0.91656 0.82614 0.0
C377 C 0.6684 0.92765 0.8417 0.0
C378 C 0.69452 0.96139 0.85453 0.0
C379 C 0.73573 0.98415 0.85208 0.0
C380 C 0.75095 0.97317 0.83684 0.0
C381 C 0.72494 0.93947 0.82394 0.0
H382 H 0.75591 0.01026 0.86204 0.0
H383 H 0.49611 0.67515 0.74865 0.0
H384 H 0.84863 0.50088 0.23541 0.0
H385 H 0.7757 0.4709 0.23578 0.0
H386 H 0.75276 0.43301 0.16673 0.0
H387 H 0.82435 0.4618 0.16646 0.0
H388 H 0.74023 0.4906 0.21707 0.0
H389 H 0.66282 0.36726 0.14632 0.0
H390 H 0.66435 0.31752 0.13685 0.0
H391 H 0.70546 0.3289 0.20353 0.0
H392 H 0.70358 0.37838 0.21355 0.0
H393 H 0.63591 0.46634 0.1196 0.0
H394 H 0.65401 0.43716 0.14002 0.0
H395 H 0.59326 0.44263 0.19227 0.0
H396 H 0.57405 0.47138 0.17161 0.0
H397 H 0.62586 0.38272 0.16644 0.0
H398 H 0.66129 0.4856 0.23337 0.0
H399 H 0.66498 0.53867 0.24052 0.0
H400 H 0.7138 0.56853 0.18093 0.0
H401 H 0.71031 0.5157 0.17353 0.0
C402 C 0.82763 0.48537 0.22048 0.0
C403 C 0.8421 0.48381 0.20089 0.0
C404 C 0.78602 0.46801 0.22073 0.0
C405 C 0.75841 0.44916 0.20136 0.0
C406 C 0.77285 0.44621 0.18207 0.0
C407 C 0.8141 0.46311 0.18187 0.0
C408 C 0.71701 0.43916 0.19989 0.0
C409 C 0.71446 0.46614 0.20693 0.0
C410 C 0.68314 0.40732 0.18664 0.0
C411 C 0.68286 0.37659 0.18073 0.0
C412 C 0.67162 0.35891 0.15906 0.0
C413 C 0.67273 0.33081 0.15357 0.0
C414 C 0.68493 0.32002 0.16958 0.0
C415 C 0.69593 0.33724 0.19114 0.0
C416 C 0.69492 0.36536 0.19673 0.0
C417 C 0.62455 0.45985 0.13494 0.0
C418 C 0.60448 0.47209 0.14423 0.0
C419 C 0.63481 0.44292 0.1466 0.0
C420 C 0.62552 0.43824 0.16779 0.0
C421 C 0.6009 0.44621 0.17598 0.0
C422 C 0.59046 0.46308 0.16427 0.0
C423 C 0.65101 0.435 0.18259 0.0
C424 C 0.65052 0.40579 0.17793 0.0
C425 C 0.68216 0.46462 0.1982 0.0
C426 C 0.68542 0.49684 0.20291 0.0
C427 C 0.67294 0.50364 0.22189 0.0
C428 C 0.67489 0.53359 0.22595 0.0
C429 C 0.68949 0.55692 0.21116 0.0
C430 C 0.70237 0.55044 0.19235 0.0
C431 C 0.70045 0.52055 0.18823 0.0
H432 H 0.6909 0.58004 0.21431 0.0
H433 H 0.68594 0.29837 0.16527 0.0
H434 H 0.51991 0.93925 0.48154 0.0
H435 H 0.45909 0.87787 0.48036 0.0
H436 H 0.38263 0.90789 0.4707 0.0
H437 H 0.44317 0.96916 0.47143 0.0
H438 H 0.36222 0.86339 0.50365 0.0
H439 H 0.38777 0.86791 0.42893 0.0
H440 H 0.43015 0.88002 0.39974 0.0
H441 H 0.44775 0.8066 0.41664 0.0
H442 H 0.40591 0.79443 0.44615 0.0
H443 H 0.16672 0.69631 0.46951 0.0
H444 H 0.23036 0.75719 0.47618 0.0
H445 H 0.29804 0.71812 0.46471 0.0
H446 H 0.2339 0.65732 0.45684 0.0
H447 H 0.32582 0.76787 0.44416 0.0
H448 H 0.29964 0.76014 0.51741 0.0
H449 H 0.26015 0.74805 0.54798 0.0
H450 H 0.24752 0.82658 0.5366 0.0
H451 H 0.28649 0.83882 0.50577 0.0
C452 C 0.49017 0.93282 0.47911 0.0
C453 C 0.48649 0.95918 0.47645 0.0
C454 C 0.45542 0.89769 0.47845 0.0
C455 C 0.41626 0.88825 0.47544 0.0
C456 C 0.41251 0.91456 0.47309 0.0
C457 C 0.44718 0.94955 0.47336 0.0
C458 C 0.37917 0.85084 0.47435 0.0
C459 C 0.35394 0.84247 0.49055 0.0
C460 C 0.36911 0.82338 0.45768 0.0
C461 C 0.3941 0.83056 0.43989 0.0
C462 C 0.40098 0.85459 0.42655 0.0
C463 C 0.42484 0.86142 0.40992 0.0
C464 C 0.44173 0.84417 0.40638 0.0
C465 C 0.4347 0.81999 0.41943 0.0
C466 C 0.4109 0.8131 0.43609 0.0
C467 C 0.19535 0.70082 0.469 0.0
C468 C 0.19557 0.6722 0.46306 0.0
C469 C 0.23185 0.73568 0.47283 0.0
C470 C 0.26954 0.74267 0.47128 0.0
C471 C 0.26965 0.71375 0.46605 0.0
C472 C 0.23306 0.67895 0.46178 0.0
C473 C 0.30828 0.77993 0.47353 0.0
C474 C 0.33395 0.78845 0.45746 0.0
C475 C 0.31909 0.8074 0.49059 0.0
C476 C 0.29569 0.80017 0.50915 0.0
C477 C 0.28819 0.77465 0.52132 0.0
C478 C 0.26594 0.7678 0.53871 0.0
C479 C 0.25125 0.78647 0.54419 0.0
C480 C 0.25888 0.81211 0.53232 0.0
C481 C 0.28109 0.81904 0.5149 0.0
H482 H 0.23403 0.78113 0.55766 0.0
H483 H 0.46019 0.84948 0.3935 0.0
H484 H 0.5467 0.30993 0.85088 0.0
H485 H 0.56009 0.26781 0.84284 0.0
H486 H 0.6634 0.34252 0.81242 0.0
H487 H 0.65127 0.3855 0.82109 0.0
H488 H 0.61086 0.27431 0.78724 0.0
H489 H 0.68193 0.32917 0.85949 0.0
H490 H 0.69077 0.35121 0.89847 0.0
H491 H 0.59442 0.24583 0.90797 0.0
H492 H 0.5846 0.22321 0.86895 0.0
H493 H 0.67176 0.16725 0.77161 0.0
H494 H 0.67571 0.21875 0.78501 0.0
H495 H 0.57612 0.15561 0.821 0.0
H496 H 0.57191 0.10404 0.80764 0.0
H497 H 0.6336 0.22225 0.84386 0.0
H498 H 0.55823 0.16836 0.7717 0.0
H499 H 0.54826 0.14519 0.7328 0.0
H500 H 0.6513 0.24797 0.72316 0.0
H501 H 0.66223 0.27167 0.76213 0.0
C502 C 0.57276 0.3178 0.84284 0.0
C503 C 0.5979 0.35127 0.83668 0.0
C504 C 0.58023 0.29355 0.83816 0.0
C505 C 0.61284 0.30211 0.82713 0.0
C506 C 0.638 0.33538 0.8209 0.0
C507 C 0.63082 0.35982 0.82577 0.0
C508 C 0.6198 0.27582 0.8216 0.0
C509 C 0.61661 0.2634 0.79963 0.0
C510 C 0.62645 0.26109 0.83776 0.0
C511 C 0.63229 0.27455 0.86125 0.0
C512 C 0.66238 0.31073 0.86985 0.0
C513 C 0.66762 0.32333 0.89196 0.0
C514 C 0.6431 0.29995 0.90568 0.0
C515 C 0.61336 0.26391 0.89732 0.0
C516 C 0.60798 0.25118 0.87521 0.0
C517 C 0.65095 0.16443 0.78254 0.0
C518 C 0.62129 0.13147 0.78842 0.0
C519 C 0.65328 0.19388 0.7902 0.0
C520 C 0.62579 0.19087 0.80373 0.0
C521 C 0.59765 0.15853 0.81058 0.0
C522 C 0.59536 0.12909 0.80297 0.0
C523 C 0.62431 0.22054 0.80951 0.0
C524 C 0.62836 0.23348 0.8315 0.0
C525 C 0.61824 0.23566 0.79336 0.0
C526 C 0.61127 0.2217 0.76986 0.0
C527 C 0.5789 0.18597 0.76131 0.0
C528 C 0.57306 0.17275 0.73926 0.0
C529 C 0.59917 0.19508 0.72553 0.0
C530 C 0.63112 0.23071 0.73383 0.0
C531 C 0.63713 0.24406 0.75589 0.0
H532 H 0.59454 0.18479 0.70846 0.0
H533 H 0.64721 0.30975 0.9228 0.0
H534 H 0.67887 0.92501 0.5295 0.0
H535 H 0.66388 0.86905 0.53382 0.0
H536 H 0.53785 0.81291 0.50823 0.0
H537 H 0.55275 0.86864 0.50292 0.0
H538 H 0.55142 0.79112 0.54663 0.0
H539 H 0.59271 0.81099 0.47557 0.0
H540 H 0.63874 0.84576 0.44978 0.0
H541 H 0.7344 0.85161 0.48359 0.0
H542 H 0.68907 0.8173 0.5098 0.0
H543 H 0.48197 0.61579 0.51874 0.0
H544 H 0.49975 0.67411 0.52061 0.0
H545 H 0.62744 0.72243 0.53266 0.0
H546 H 0.60984 0.66375 0.52969 0.0
H547 H 0.61599 0.75035 0.50312 0.0
H548 H 0.57559 0.72825 0.57301 0.0
H549 H 0.53156 0.69488 0.59984 0.0
H550 H 0.4373 0.69481 0.57034 0.0
H551 H 0.48055 0.72776 0.54312 0.0
C552 C 0.64799 0.90081 0.52454 0.0
C553 C 0.61717 0.90148 0.51555 0.0
C554 C 0.63945 0.86885 0.52722 0.0
C555 C 0.59985 0.83686 0.52121 0.0
C556 C 0.56863 0.83738 0.51301 0.0
C557 C 0.57722 0.86933 0.51007 0.0
C558 C 0.59146 0.80278 0.5227 0.0
C559 C 0.56512 0.78192 0.53698 0.0
C560 C 0.61043 0.79147 0.51059 0.0
C561 C 0.63765 0.81192 0.49478 0.0
C562 C 0.62367 0.81997 0.47762 0.0
C563 C 0.64961 0.83954 0.46291 0.0
C564 C 0.68951 0.85098 0.46508 0.0
C565 C 0.70351 0.84278 0.48195 0.0
C566 C 0.6777 0.82326 0.49673 0.0
C567 C 0.51389 0.63878 0.52175 0.0
C568 C 0.54448 0.63498 0.52389 0.0
C569 C 0.52401 0.67223 0.5231 0.0
C570 C 0.56496 0.70283 0.52701 0.0
C571 C 0.59561 0.69924 0.52968 0.0
C572 C 0.5855 0.66567 0.52818 0.0
C573 C 0.57561 0.73824 0.52704 0.0
C574 C 0.60241 0.75947 0.51298 0.0
C575 C 0.55734 0.75002 0.53954 0.0
C576 C 0.53121 0.73023 0.5559 0.0
C577 C 0.54535 0.72089 0.57213 0.0
C578 C 0.52055 0.70209 0.58743 0.0
C579 C 0.48162 0.69266 0.58677 0.0
C580 C 0.46745 0.7021 0.57083 0.0
C581 C 0.49211 0.72088 0.55547 0.0
H582 H 0.46247 0.67811 0.59863 0.0
H583 H 0.70955 0.86612 0.45367 0.0
H584 H 0.77683 0.60691 0.85067 0.0
H585 H 0.83471 0.60634 0.85269 0.0
H586 H 0.75213 0.49236 0.83691 0.0
H587 H 0.69414 0.49302 0.83651 0.0
H588 H 0.80697 0.50295 0.86029 0.0
H589 H 0.82437 0.56107 0.8006 0.0
H590 H 0.83154 0.60502 0.78059 0.0
H591 H 0.93876 0.68903 0.82493 0.0
H592 H 0.93195 0.6456 0.84535 0.0
H593 H 0.96978 0.49365 0.84087 0.0
H594 H 0.91052 0.49263 0.83554 0.0
H595 H 0.98605 0.60315 0.86419 0.0
H596 H 1.04502 0.60403 0.86933 0.0
H597 H 0.9344 0.59275 0.83265 0.0
H598 H 0.91307 0.5281 0.89124 0.0
H599 H 0.90293 0.48001 0.90769 0.0
H600 H 0.79917 0.40261 0.85953 0.0
H601 H 0.80887 0.45019 0.8426 0.0
C602 C 0.77076 0.5816 0.84754 0.0
C603 C 0.72995 0.55005 0.84327 0.0
C604 C 0.80445 0.58123 0.84845 0.0
C605 C 0.79939 0.54932 0.84434 0.0
C606 C 0.75839 0.51773 0.84017 0.0
C607 C 0.72465 0.51808 0.83982 0.0
C608 C 0.83609 0.54872 0.84483 0.0
C609 C 0.83435 0.52247 0.85382 0.0
C610 C 0.87322 0.5739 0.83679 0.0
C611 C 0.87738 0.60011 0.82463 0.0
C612 C 0.84931 0.58894 0.80616 0.0
C613 C 0.85334 0.61375 0.79474 0.0
C614 C 0.88552 0.6498 0.80152 0.0
C615 C 0.91381 0.66111 0.81972 0.0
C616 C 0.9099 0.63641 0.83121 0.0
C617 C 0.97413 0.51803 0.84548 0.0
C618 C 1.0132 0.54921 0.85497 0.0
C619 C 0.93968 0.51734 0.84278 0.0
C620 C 0.94249 0.54772 0.84969 0.0
C621 C 0.98188 0.57908 0.85856 0.0
C622 C 1.01614 0.57968 0.86136 0.0
C623 C 0.90508 0.54712 0.8481 0.0
C624 C 0.9068 0.57322 0.83898 0.0
C625 C 0.86753 0.52119 0.85542 0.0
C626 C 0.86198 0.49269 0.86552 0.0
C627 C 0.8883 0.50082 0.88405 0.0
C628 C 0.88261 0.47366 0.89348 0.0
C629 C 0.85058 0.4383 0.88464 0.0
C630 C 0.82405 0.43 0.86635 0.0
C631 C 0.82961 0.45705 0.85683 0.0
H632 H 0.84625 0.41735 0.892 0.0
H633 H 0.88859 0.66897 0.79266 0.0
H634 H 0.21101 0.64092 0.13852 0.0
H635 H 0.27186 0.70177 0.13918 0.0
H636 H 0.227 0.73957 0.18497 0.0
H637 H 0.16566 0.67887 0.18397 0.0
H638 H 0.25603 0.77946 0.15506 0.0
H639 H 0.30649 0.73447 0.19969 0.0
H640 H 0.31851 0.69228 0.20642 0.0
H641 H 0.387 0.71633 0.15289 0.0
H642 H 0.37519 0.7586 0.14578 0.0
H643 H 0.42643 0.94963 0.2038 0.0
H644 H 0.36911 0.88672 0.19515 0.0
H645 H 0.43237 0.87137 0.14878 0.0
H646 H 0.49099 0.9349 0.1579 0.0
H647 H 0.39606 0.81903 0.1733 0.0
H648 H 0.35321 0.86869 0.13107 0.0
H649 H 0.34097 0.91027 0.12318 0.0
H650 H 0.2572 0.87615 0.16979 0.0
H651 H 0.26939 0.83471 0.17822 0.0
C652 C 0.21411 0.66208 0.14881 0.0
C653 C 0.18331 0.65476 0.16124 0.0
C654 C 0.24914 0.69703 0.14924 0.0
C655 C 0.25453 0.72552 0.16234 0.0
C656 C 0.22374 0.71821 0.17471 0.0
C657 C 0.18863 0.68336 0.17415 0.0
C658 C 0.29172 0.76301 0.16307 0.0
C659 C 0.28657 0.78809 0.15927 0.0
C660 C 0.3319 0.77429 0.1676 0.0
C661 C 0.33971 0.74948 0.17212 0.0
C662 C 0.324 0.73067 0.18932 0.0
C663 C 0.3308 0.70678 0.1932 0.0
C664 C 0.35348 0.70163 0.18007 0.0
C665 C 0.36948 0.72041 0.16305 0.0
C666 C 0.36282 0.74438 0.15912 0.0
C667 C 0.42843 0.93297 0.19181 0.0
C668 C 0.46359 0.94744 0.18166 0.0
C669 C 0.39533 0.89691 0.18673 0.0
C670 C 0.39603 0.87413 0.17115 0.0
C671 C 0.43099 0.88835 0.16084 0.0
C672 C 0.46434 0.92472 0.16592 0.0
C673 C 0.36015 0.83559 0.16605 0.0
C674 C 0.36552 0.81033 0.16891 0.0
C675 C 0.32009 0.82399 0.16046 0.0
C676 C 0.31244 0.84874 0.15538 0.0
C677 C 0.33239 0.87022 0.13976 0.0
C678 C 0.32543 0.89374 0.13517 0.0
C679 C 0.29838 0.8959 0.146 0.0
C680 C 0.27816 0.87446 0.16142 0.0
C681 C 0.28504 0.85091 0.16608 0.0
H682 H 0.29303 0.91413 0.14243 0.0
H683 H 0.35877 0.6832 0.18315 0.0
H684 H 0.62962 0.27004 0.49983 0.0
H685 H 0.64021 0.32556 0.50958 0.0
H686 H 0.51954 0.2761 0.47744 0.0
H687 H 0.50806 0.22018 0.4682 0.0
H688 H 0.57859 0.34381 0.46826 0.0
H689 H 0.53392 0.28594 0.53043 0.0
H690 H 0.5366 0.25723 0.55967 0.0
H691 H 0.65726 0.35169 0.58562 0.0
H692 H 0.6555 0.38081 0.55632 0.0
H693 H 0.53516 0.45522 0.51521 0.0
H694 H 0.53729 0.4074 0.50155 0.0
H695 H 0.65354 0.46211 0.54124 0.0
H696 H 0.65169 0.51033 0.55498 0.0
H697 H 0.60303 0.39481 0.54608 0.0
H698 H 0.64609 0.45475 0.48576 0.0
H699 H 0.64373 0.48373 0.4566 0.0
H700 H 0.52783 0.38663 0.42706 0.0
H701 H 0.52919 0.35717 0.45623 0.0
C702 C 0.60515 0.27081 0.49494 0.0
C703 C 0.56785 0.24041 0.48331 0.0
C704 C 0.6114 0.30267 0.50043 0.0
C705 C 0.58057 0.30488 0.49434 0.0
C706 C 0.5438 0.27499 0.48221 0.0
C707 C 0.53738 0.24305 0.47687 0.0
C708 C 0.58602 0.33795 0.50122 0.0
C709 C 0.58361 0.35486 0.48526 0.0
C710 C 0.59367 0.35284 0.52341 0.0
C711 C 0.59476 0.3354 0.54104 0.0
C712 C 0.56117 0.30048 0.54226 0.0
C713 C 0.56249 0.28415 0.55886 0.0
C714 C 0.59713 0.30259 0.57445 0.0
C715 C 0.63048 0.33742 0.5735 0.0
C716 C 0.62933 0.35386 0.55691 0.0
C717 C 0.56168 0.45757 0.52067 0.0
C718 C 0.59333 0.48672 0.53616 0.0
C719 C 0.56281 0.4301 0.51286 0.0
C720 C 0.59574 0.43123 0.52022 0.0
C721 C 0.62781 0.46063 0.53534 0.0
C722 C 0.62668 0.48813 0.5432 0.0
C723 C 0.59531 0.40071 0.51312 0.0
C724 C 0.59853 0.38414 0.52905 0.0
C725 C 0.58855 0.38625 0.4909 0.0
C726 C 0.5876 0.40383 0.47329 0.0
C727 C 0.61994 0.43964 0.47314 0.0
C728 C 0.61881 0.45614 0.4566 0.0
C729 C 0.58561 0.43705 0.44002 0.0
C730 C 0.55351 0.40139 0.43993 0.0
C731 C 0.55447 0.38476 0.45645 0.0
H732 H 0.5848 0.44987 0.42722 0.0
H733 H 0.59809 0.28991 0.5873 0.0
H734 H 0.52077 0.56604 0.81366 0.0
H735 H 0.46142 0.56442 0.81346 0.0
H736 H 0.44377 0.53314 0.87634 0.0
H737 H 0.50048 0.53089 0.87515 0.0
H738 H 0.37595 0.50626 0.86257 0.0
H739 H 0.48594 0.62699 0.85837 0.0
H740 H 0.54421 0.67668 0.84395 0.0
H741 H 0.46915 0.64231 0.78279 0.0
H742 H 0.41053 0.59224 0.79682 0.0
H743 H 0.24622 0.5626 0.87741 0.0
H744 H 0.30277 0.55917 0.8803 0.0
H745 H 0.28928 0.53595 0.81066 0.0
H746 H 0.23222 0.53726 0.8077 0.0
H747 H 0.37284 0.59279 0.83001 0.0
H748 H 0.26214 0.47306 0.83762 0.0
H749 H 0.2052 0.4277 0.85511 0.0
H750 H 0.28604 0.46776 0.91479 0.0
H751 H 0.34339 0.51371 0.89773 0.0
C752 C 0.50432 0.55882 0.8275 0.0
C753 C 0.51632 0.5488 0.84446 0.0
C754 C 0.47011 0.55845 0.82762 0.0
C755 C 0.44729 0.55002 0.84531 0.0
C756 C 0.45958 0.53996 0.86228 0.0
C757 C 0.49272 0.53886 0.8617 0.0
C758 C 0.41073 0.55086 0.84602 0.0
C759 C 0.37633 0.52592 0.85574 0.0
C760 C 0.40876 0.5757 0.83708 0.0
C761 C 0.44399 0.60569 0.82858 0.0
C762 C 0.48196 0.62996 0.84181 0.0
C763 C 0.51506 0.65824 0.83369 0.0
C764 C 0.51047 0.66269 0.81242 0.0
C765 C 0.47272 0.63889 0.79925 0.0
C766 C 0.43954 0.61057 0.80728 0.0
C767 C 0.25445 0.55583 0.8627 0.0
C768 C 0.23395 0.5507 0.84228 0.0
C769 C 0.28744 0.55422 0.86434 0.0
C770 C 0.3017 0.54788 0.84566 0.0
C771 C 0.2802 0.54148 0.82546 0.0
C772 C 0.24704 0.54229 0.82384 0.0
C773 C 0.3391 0.54864 0.84662 0.0
C774 C 0.37328 0.57366 0.83707 0.0
C775 C 0.34135 0.52465 0.85625 0.0
C776 C 0.30694 0.49708 0.86648 0.0
C777 C 0.2677 0.47242 0.85454 0.0
C778 C 0.23537 0.44655 0.86435 0.0
C779 C 0.24197 0.44492 0.88607 0.0
C780 C 0.28095 0.4691 0.89799 0.0
C781 C 0.31338 0.49504 0.88825 0.0
H782 H 0.21691 0.42486 0.89364 0.0
H783 H 0.53605 0.68458 0.80612 0.0
H784 H 0.92441 0.45031 0.14748 0.0
H785 H 0.86239 0.39151 0.1497 0.0
H786 H 0.93373 0.35651 0.16024 0.0
H787 H 0.99584 0.41534 0.15725 0.0
H788 H 0.86854 0.30603 0.13573 0.0
H789 H 0.89242 0.37971 0.20194 0.0
H790 H 0.90319 0.42922 0.22619 0.0
H791 H 0.78698 0.39636 0.19865 0.0
H792 H 0.77596 0.34723 0.17371 0.0
H793 H 0.69984 0.14551 0.16655 0.0
H794 H 0.76641 0.20437 0.16924 0.0
H795 H 0.70582 0.24607 0.15031 0.0
H796 H 0.6398 0.18783 0.14788 0.0
H797 H 0.76793 0.29229 0.18183 0.0
H798 H 0.7476 0.22215 0.11366 0.0
H799 H 0.7353 0.17096 0.09054 0.0
H800 H 0.84451 0.19658 0.12352 0.0
H801 H 0.85715 0.24768 0.14704 0.0
C802 C 0.92691 0.43016 0.15042 0.0
C803 C 0.96511 0.43764 0.15252 0.0
C804 C 0.89133 0.39642 0.15176 0.0
C805 C 0.89308 0.36945 0.1558 0.0
C806 C 0.93126 0.37669 0.15727 0.0
C807 C 0.96682 0.41034 0.15552 0.0
C808 C 0.85518 0.33372 0.15815 0.0
C809 C 0.84702 0.30319 0.14615 0.0
C810 C 0.82625 0.3295 0.17141 0.0
C811 C 0.8335 0.35986 0.18584 0.0
C812 C 0.86936 0.38328 0.20085 0.0
C813 C 0.87548 0.41127 0.21474 0.0
C814 C 0.84568 0.41583 0.21401 0.0
C815 C 0.80996 0.39273 0.19919 0.0
C816 C 0.80382 0.36486 0.18514 0.0
C817 C 0.70082 0.16741 0.16333 0.0
C818 C 0.66455 0.16191 0.15683 0.0
C819 C 0.73887 0.20099 0.16467 0.0
C820 C 0.74133 0.2297 0.15962 0.0
C821 C 0.70497 0.22448 0.15417 0.0
C822 C 0.66716 0.19106 0.15271 0.0
C823 C 0.78139 0.265 0.1593 0.0
C824 C 0.78983 0.29536 0.17162 0.0
C825 C 0.81056 0.26909 0.14643 0.0
C826 C 0.80306 0.23847 0.13226 0.0
C827 C 0.76881 0.2167 0.11609 0.0
C828 C 0.76181 0.18773 0.1029 0.0
C829 C 0.78904 0.18046 0.10561 0.0
C830 C 0.8234 0.2022 0.12147 0.0
C831 C 0.8305 0.23118 0.13473 0.0
H832 H 0.78358 0.15803 0.09537 0.0
H833 H 0.85014 0.43717 0.22496 0.0
H834 H 1.05264 0.50396 0.09505 0.0
H835 H 0.06298 0.50243 0.05671 0.0
H836 H 0.08224 0.60056 0.05785 0.0
H837 H 0.07303 0.6027 0.09616 0.0
H838 H 1.02543 0.54661 0.02272 0.0
H839 H 0.16233 0.60389 0.05736 0.0
H840 H 0.21389 0.60881 0.08173 0.0
H841 H 0.17978 0.51132 0.04616 0.0
H842 H 0.12796 0.50585 0.02153 0.0
H843 H 0.0946 0.59847 0.92557 0.0
H844 H 0.09514 0.59853 0.96459 0.0
H845 H 0.0901 0.5065 0.95604 0.0
H846 H 0.09057 0.50696 0.91676 0.0
H847 H 0.13768 0.55187 -0.00539 0.0
H848 H 1.00391 0.49523 0.959 0.0
H849 H 0.95238 0.48919 0.93404 0.0
H850 H 0.97713 0.58165 0.97171 0.0
H851 H 1.02945 0.58853 -0.00321 0.0
C852 C 0.05954 0.52537 0.08716 0.0
C853 C 0.06234 0.55358 0.09861 0.0
C854 C 0.06542 0.52446 0.06529 0.0
C855 C 0.07362 0.55151 0.05449 0.0
C856 C 0.07602 0.57947 0.06589 0.0
C857 C 0.0707 0.58062 0.08776 0.0
C858 C 0.07832 0.55027 0.03111 0.0
C859 C 1.0502 0.54812 0.01662 0.0
C860 C 0.10983 0.55101 0.02305 0.0
C861 C 0.14103 0.55429 0.03775 0.0
C862 C 0.16564 0.58338 0.05483 0.0
C863 C 0.19497 0.58631 0.06866 0.0
C864 C 0.19998 0.56029 0.06557 0.0
C865 C 0.17582 0.53141 0.04855 0.0
C866 C 0.14655 0.52844 0.03461 0.0
C867 C 0.09417 0.57854 0.93206 0.0
C868 C 0.09198 0.55242 0.91816 0.0
C869 C 0.09445 0.57856 0.95435 0.0
C870 C 0.09173 0.55204 0.96321 0.0
C871 C 0.09202 0.52712 0.94956 0.0
C872 C 0.09223 0.52735 0.92716 0.0
C873 C 0.08526 0.54903 0.9863 0.0
C874 C 0.1128 0.55018 0.00069 0.0
C875 C 1.0529 0.54697 0.99434 0.0
C876 C 1.0208 0.54254 0.97967 0.0
C877 C 0.9985 0.51438 0.96191 0.0
C878 C 0.96914 0.51082 0.94772 0.0
C879 C 0.96148 0.53509 0.95122 0.0
C880 C 0.98311 0.56289 0.969 0.0
C881 C 1.01261 0.56661 0.98323 0.0
H882 H 0.93876 0.53233 0.9402 0.0
H883 H 0.22267 0.56257 0.07631 0.0
H884 H 0.66454 0.09462 0.41724 0.0
H885 H 0.65259 0.09785 0.37945 0.0
H886 H 0.52549 0.04452 0.38445 0.0
H887 H 0.53727 0.04068 0.42234 0.0
H888 H 0.53404 0.01544 0.34876 0.0
H889 H 0.59087 0.13279 0.38175 0.0
H890 H 0.64089 0.191 0.40526 0.0
H891 H 0.73377 0.21229 0.36688 0.0
H892 H 0.68448 0.15391 0.34333 0.0
H893 H 0.48888 0.02993 0.24446 0.0
H894 H 0.50108 0.04376 0.28416 0.0
H895 H 0.62753 0.09023 0.28324 0.0
H896 H 0.61548 0.07701 0.24331 0.0
H897 H 0.6167 0.12516 0.31733 0.0
H898 H 0.56101 1.00539 0.287 0.0
H899 H 0.51084 0.94724 0.26341 0.0
H900 H 0.4154 0.93095 0.29755 0.0
H901 H 0.46492 0.98934 0.3211 0.0
C902 C 0.63408 0.08374 0.41032 0.0
C903 C 0.60177 0.06726 0.42265 0.0
C904 C 0.62735 0.08585 0.38877 0.0
C905 C 0.58824 0.07179 0.37916 0.0
C906 C 0.55595 0.05564 0.39155 0.0
C907 C 0.56268 0.05349 0.41316 0.0
C908 C 0.58075 0.07206 0.35582 0.0
C909 C 0.55157 0.03956 0.342 0.0
C910 C 0.60431 0.10343 0.34688 0.0
C911 C 0.63399 0.1388 0.36084 0.0
C912 C 0.62202 0.14976 0.37839 0.0
C913 C 0.65024 0.18282 0.39172 0.0
C914 C 0.69048 0.20532 0.38756 0.0
C915 C 0.70256 0.19484 0.37004 0.0
C916 C 0.67448 0.16177 0.3567 0.0
C917 C 0.51947 0.04382 0.25275 0.0
C918 C 0.55117 0.05202 0.24093 0.0
C919 C 0.52641 0.05169 0.27539 0.0
C920 C 0.565 0.06733 0.28665 0.0
C921 C 0.59748 0.07804 0.27486 0.0
C922 C 0.59062 0.07047 0.2521 0.0
C923 C 0.5701 0.06859 0.31044 0.0
C924 C 0.59891 0.10122 0.32424 0.0
C925 C 0.54622 0.03736 0.31946 0.0
C926 C 0.51659 1.00187 0.30567 0.0
C927 C 0.52928 0.98949 0.2894 0.0
C928 C 0.50097 0.9565 0.27603 0.0
C929 C 0.45994 0.93545 0.27895 0.0
C930 C 0.44717 0.94731 0.29529 0.0
C931 C 0.47535 0.98034 0.30866 0.0
H932 H 0.43805 0.90993 0.26857 0.0
H933 H 0.71231 0.23088 0.39792 0.0
H934 H 0.53596 0.5019 0.77296 0.0
H935 H 0.53893 0.51296 0.73579 0.0
H936 H 0.67015 0.57765 0.74693 0.0
H937 H 0.66728 0.56751 0.78459 0.0
H938 H 0.64822 0.6062 0.72255 0.0
H939 H 0.61138 0.4917 0.71985 0.0
H940 H 0.57289 0.43093 0.72727 0.0
H941 H 0.46305 0.40322 0.69359 0.0
H942 H 0.50078 0.46402 0.68623 0.0
H943 H 0.65951 0.57608 0.60705 0.0
H944 H 0.66488 0.58039 0.6467 0.0
H945 H 0.53991 0.53996 0.64376 0.0
H946 H 0.53462 0.53622 0.60422 0.0
H947 H 0.56225 0.50094 0.66383 0.0
H948 H 0.60425 0.61872 0.66626 0.0
H949 H 0.64706 0.67926 0.65819 0.0
H950 H 0.75326 0.69994 0.69133 0.0
H951 H 0.71114 0.63929 0.69932 0.0
C952 C 0.56546 0.51861 0.76751 0.0
C953 C 0.60136 0.53351 0.78151 0.0
C954 C 0.56714 0.52484 0.74625 0.0
C955 C 0.60471 0.54549 0.73838 0.0
C956 C 0.64081 0.56147 0.75259 0.0
C957 C 0.63915 0.55558 0.77405 0.0
C958 C 0.6058 0.54918 0.71512 0.0
C959 C 0.62982 0.58317 0.70971 0.0
C960 C 0.5817 0.51916 0.6983 0.0
C961 C 0.55885 0.48252 0.70266 0.0
C962 C 0.57895 0.47273 0.71417 0.0
C963 C 0.55728 0.43826 0.71834 0.0
C964 C 0.51553 0.41325 0.71095 0.0
C965 C 0.49538 0.42264 0.69933 0.0
C966 C 0.5169 0.45709 0.69513 0.0
C967 C 0.63355 0.56892 0.61498 0.0
C968 C 0.59669 0.5559 0.60266 0.0
C969 C 0.63666 0.57144 0.63756 0.0
C970 C 0.60278 0.56049 0.64808 0.0
C971 C 0.56641 0.54867 0.63589 0.0
C972 C 0.5635 0.54673 0.61338 0.0
C973 C 0.60391 0.55784 0.67136 0.0
C974 C 0.58053 0.52394 0.67672 0.0
C975 C 0.62924 0.58787 0.68799 0.0
C976 C 0.65459 0.62431 0.68316 0.0
C977 C 0.63679 0.63603 0.67162 0.0
C978 C 0.66092 0.67041 0.66711 0.0
C979 C 0.70287 0.6934 0.67418 0.0
C980 C 0.72076 0.68209 0.68583 0.0
C981 C 0.69677 0.64772 0.69037 0.0
H982 H 0.7215 0.72001 0.67069 0.0
H983 H 0.49881 0.38658 0.7142 0.0
H984 H 0.65518 0.10789 0.54521 0.0
H985 H 0.66712 0.10288 0.58288 0.0
H986 H 0.53761 0.02381 0.58179 0.0
H987 H 0.52552 0.02934 0.54453 0.0
H988 H 0.63378 0.11563 0.61839 0.0
H989 H 0.52623 0.9625 0.61002 0.0
H990 H 0.50636 0.9105 0.58395 0.0
H991 H 0.62048 0.97488 0.55932 0.0
H992 H 0.64083 0.02715 0.58507 0.0
H993 H 0.56143 0.06847 0.71587 0.0
H994 H 0.56371 0.06713 0.67691 0.0
H995 H 0.64306 0.03895 0.68044 0.0
H996 H 0.64043 0.03989 0.71973 0.0
H997 H 0.58699 1.00413 0.64274 0.0
H998 H 0.68395 0.12274 0.6812 0.0
H999 H 0.7071 0.17516 0.70793 0.0
H1000 H 0.62391 0.18329 0.67283 0.0
H1001 H 0.59952 0.1304 0.64619 0.0
C1002 C 0.62938 0.08931 0.55303 0.0
C1003 C 0.58943 0.06919 0.54212 0.0
C1004 C 0.63621 0.08647 0.57447 0.0
C1005 C 0.60324 0.06283 0.58502 0.0
C1006 C 0.56346 0.04197 0.57386 0.0
C1007 C 0.55659 0.04531 0.55265 0.0
C1008 C 0.60959 0.06156 0.60823 0.0
C1009 C 0.62395 0.0914 0.62374 0.0
C1010 C 0.59738 0.0301 0.61514 0.0
C1011 C 0.58491 0.99877 0.59938 0.0
C1012 C 0.54703 0.96552 0.59901 0.0
C1013 C 0.53563 0.93602 0.58424 0.0
C1014 C 0.56201 0.93939 0.56988 0.0
C1015 C 0.59983 0.9723 0.57025 0.0
C1016 C 0.61125 1.0019 0.58488 0.0
C1017 C 0.57901 0.0616 0.7083 0.0
C1018 C 0.60126 0.05479 0.72081 0.0
C1019 C 0.58033 0.06089 0.68606 0.0
C1020 C 0.60431 0.05376 0.67588 0.0
C1021 C 0.6246 0.04476 0.68804 0.0
C1022 C 0.62306 0.04525 0.71041 0.0
C1023 C 0.60972 0.05784 0.65288 0.0
C1024 C 0.59743 0.02854 0.63742 0.0
C1025 C 0.62443 0.09005 0.64601 0.0
C1026 C 0.63973 0.12243 0.66174 0.0
C1027 C 0.6704 0.13556 0.67925 0.0
C1028 C 0.68372 0.16535 0.6944 0.0
C1029 C 0.66691 0.18249 0.69212 0.0
C1030 C 0.63685 0.16994 0.67462 0.0
C1031 C 0.62327 0.14006 0.65948 0.0
H1032 H 0.67722 0.20552 0.70388 0.0
H1033 H 0.55323 0.91648 0.55855 0.0
H1034 H 0.5751 0.52022 0.89552 0.0
H1035 H 0.56481 0.50816 0.93251 0.0
H1036 H 0.69198 0.59453 0.95497 0.0
H1037 H 0.70244 0.60679 0.91791 0.0
H1038 H 0.59731 0.49046 0.96103 0.0
H1039 H 0.69828 0.63657 0.00467 0.0
H1040 H 0.72181 0.69464 -0.00284 0.0
H1041 H 0.61586 0.64336 0.94962 0.0
H1042 H 0.59145 0.58507 0.95708 0.0
H1043 H 0.63854 0.50561 0.07502 0.0
H1044 H 0.64095 0.50957 0.03649 0.0
H1045 H 0.56778 0.54427 0.03929 0.0
H1046 H 0.56571 0.54075 0.07795 0.0
H1047 H 0.63058 0.58571 0.01977 0.0
H1048 H 0.5289 0.46041 0.01318 0.0
H1049 H 0.4993 0.40058 0.01997 0.0
H1050 H 0.59491 0.40654 0.99232 0.0
H1051 H 0.62542 0.46663 0.98562 0.0
C1052 C 0.60092 0.5365 0.90833 0.0
C1053 C 0.63954 0.56458 0.90394 0.0
C1054 C 0.59502 0.52949 0.92942 0.0
C1055 C 0.62753 0.55063 0.94649 0.0
C1056 C 0.66639 0.57816 0.94204 0.0
C1057 C 0.67235 0.5851 0.92091 0.0
C1058 C 0.62042 0.54457 0.96905 0.0
C1059 C 0.60464 0.51126 0.97391 0.0
C1060 C 0.62912 0.5715 0.9857 0.0
C1061 C 0.6433 0.60646 0.98128 0.0
C1062 C 0.67996 0.63772 0.99267 0.0
C1063 C 0.69345 0.67066 0.98842 0.0
C1064 C 0.67042 0.67268 0.97287 0.0
C1065 C 0.63376 0.64176 0.9616 0.0
C1066 C 0.62011 0.60876 0.96582 0.0
C1067 C 0.62231 0.51343 0.06731 0.0
C1068 C 0.60187 0.52283 0.07946 0.0
C1069 C 0.62374 0.51571 0.04529 0.0
C1070 C 0.60432 0.527 0.03494 0.0
C1071 C 0.5831 0.53561 0.04695 0.0
C1072 C 0.58191 0.53357 0.069 0.0
C1073 C 0.60798 0.53167 0.01193 0.0
C1074 C 0.62322 0.56482 0.00695 0.0
C1075 C 0.59797 0.50433 -0.00489 0.0
C1076 C 0.57964 0.46816 -0.00093 0.0
C1077 C 0.54379 0.44908 0.00869 0.0
C1078 C 0.52682 0.4151 0.0125 0.0
C1079 C 0.54526 0.3998 0.00663 0.0
C1080 C 0.58068 0.41843 -0.00312 0.0
C1081 C 0.5978 0.45244 0.99305 0.0
H1082 H 0.53207 0.37349 0.00959 0.0
H1083 H 0.68093 0.69821 0.96959 0.0
H1084 H 0.05486 0.48659 0.21662 0.0
H1085 H 1.05065 0.4934 0.25565 0.0
H1086 H 0.11954 0.60593 0.25923 0.0
H1087 H 0.12258 0.5991 0.22005 0.0
H1088 H 0.14902 0.58223 0.29084 0.0
H1089 H 1.03575 0.57403 0.26571 0.0
H1090 H 0.97142 0.55148 0.24418 0.0
H1091 H 0.9091 0.45394 0.26848 0.0
H1092 H 0.97347 0.47591 0.29017 0.0
H1093 H 0.125 0.63632 0.39421 0.0
H1094 H 0.11605 0.62283 0.3547 0.0
H1095 H 0.05778 0.5134 0.35723 0.0
H1096 H 0.06807 0.52694 0.39717 0.0
H1097 H 1.02138 0.53352 0.32263 0.0
H1098 H 0.14376 0.55054 0.35043 0.0
H1099 H 0.2095 0.5836 0.37421 0.0
H1100 H 0.25629 0.67526 0.34521 0.0
H1101 H 0.19054 0.64289 0.3215 0.0
C1102 C 0.06888 0.51272 0.22575 0.0
C1103 C 0.08921 0.54236 0.21546 0.0
C1104 C 0.06632 0.51654 0.24795 0.0
C1105 C 0.0848 0.55015 0.26023 0.0
C1106 C 0.10509 0.5798 0.24997 0.0
C1107 C 0.10677 0.57586 0.22766 0.0
C1108 C 0.08441 0.55443 0.28398 0.0
C1109 C 0.12114 0.57168 0.29778 0.0
C1110 C 1.04802 0.54063 0.29297 0.0
C1111 C 1.00958 0.52637 0.27926 0.0
C1112 C 1.00852 0.5475 0.26617 0.0
C1113 C 0.972 0.53489 0.25399 0.0
C1114 C 0.93622 0.50121 0.25481 0.0
C1115 C 0.93691 0.48001 0.26781 0.0
C1116 C 0.97341 0.49253 0.28006 0.0
C1117 C 0.11038 0.60935 0.38645 0.0
C1118 C 0.09812 0.58285 0.39889 0.0
C1119 C 0.10496 0.60167 0.36385 0.0
C1120 C 0.08662 0.56726 0.35315 0.0
C1121 C 0.07201 0.54015 0.36531 0.0
C1122 C 0.07787 0.54792 0.38807 0.0
C1123 C 0.08582 0.56071 0.3294 0.0
C1124 C 1.04901 0.54331 0.31562 0.0
C1125 C 0.12233 0.57515 0.3204 0.0
C1126 C 0.16213 0.59439 0.33433 0.0
C1127 C 0.16796 0.57783 0.34924 0.0
C1128 C 0.20524 0.59643 0.36269 0.0
C1129 C 0.23702 0.63154 0.36126 0.0
C1130 C 0.23163 0.64808 0.34632 0.0
C1131 C 0.19439 0.6296 0.33285 0.0
H1132 H 0.26585 0.6459 0.3717 0.0
H1133 H 0.90797 0.49176 0.24551 0.0
loop_
_geom_bond_atom_site_label_1
_geom_bond_atom_site_label_2
_geom_bond_distance
_geom_bond_site_symmetry_2
_ccdc_geom_bond_type
Ho0 C3 2.811 . S
Ho0 O20 2.322 . S
Ho0 O22 2.378 . S
Ho0 O23 2.524 . S
Ho0 O24 2.381 . S
Ho0 O25 2.669 . S
Ho0 O27 2.317 1_455 S
Ho0 O31 2.305 . S
Ho1 C12 2.811 1_455 S
Ho1 O21 2.346 . S
Ho1 O25 2.305 . S
Ho1 O26 2.322 1_455 S
Ho1 O28 2.378 1_455 S
Ho1 O29 2.524 1_455 S
Ho1 O30 2.381 . S
Ho1 O31 2.669 . S
C2 O20 1.259 . S
C2 O21 1.268 . S
C3 Ho0 2.811 . S
C3 C4 1.488 . S
C3 O22 1.215 . S
C3 O23 1.289 . S
C4 C3 1.488 . S
C4 C5 1.348 . S
C4 C9 1.413 . S
C5 C4 1.348 . S
C5 C6 1.442 . S
C5 H32 0.930 . S
C6 C5 1.442 . S
C6 C7 1.381 . S
C6 H33 0.931 . S
C7 C6 1.381 . S
C7 C8 1.321 . S
C8 C7 1.321 . S
C8 C9 1.403 . S
C8 H34 0.934 . S
C9 C4 1.413 . S
C9 C8 1.403 . S
C9 H35 0.930 . S
C10 O24 1.275 . S
C10 O25 1.256 . S
C11 O26 1.259 . S
C11 O27 1.306 . S
C12 Ho1 2.811 1_655 S
C12 C13 1.488 . S
C12 O28 1.215 . S
C12 O29 1.289 . S
C13 C12 1.488 . S
C13 C14 1.348 . S
C13 C18 1.413 . S
C14 C13 1.348 . S
C14 C15 1.442 . S
C14 H36 0.930 . S
C15 C14 1.442 . S
C15 C16 1.381 . S
C15 H37 0.931 . S
C16 C15 1.381 . S
C16 C17 1.321 . S
C17 C16 1.321 . S
C17 C18 1.403 . S
C17 H38 0.934 . S
C18 C13 1.413 . S
C18 C17 1.403 . S
C18 H39 0.930 . S
C19 O30 1.275 . S
C19 O31 1.256 . S
O20 Ho0 2.322 . S
O20 C2 1.259 . S
O21 Ho1 2.346 . S
O21 C2 1.268 . S
O22 Ho0 2.378 . S
O22 C3 1.215 . S
O23 Ho0 2.524 . S
O23 C3 1.289 . S
O24 Ho0 2.381 . S
O24 C10 1.275 . S
O25 Ho0 2.669 . S
O25 Ho1 2.305 . S
O25 C10 1.256 . S
O26 Ho1 2.322 1_655 S
O26 C11 1.259 . S
O27 Ho0 2.317 1_655 S
O27 C11 1.306 . S
O28 Ho1 2.378 1_655 S
O28 C12 1.215 . S
O29 Ho1 2.524 1_655 S
O29 C12 1.289 . S
O30 Ho1 2.381 . S
O30 C19 1.275 . S
O31 Ho0 2.305 . S
O31 Ho1 2.669 . S
O31 C19 1.256 . S
H32 C5 0.930 . S
H33 C6 0.931 . S
H34 C8 0.934 . S
H35 C9 0.930 . S
H36 C14 0.930 . S
H37 C15 0.931 . S
H38 C17 0.934 . S
H39 C18 0.930 . S
Ho40 C43 2.811 1_545 S
Ho40 O60 2.322 1_545 S
Ho40 O62 2.378 1_545 S
Ho40 O63 2.524 1_545 S
Ho40 O64 2.381 . S
Ho40 O65 2.669 . S
Ho40 O67 2.346 . S
Ho40 O71 2.305 . S
Ho41 C52 2.811 . S
Ho41 O61 2.346 . S
Ho41 O65 2.305 . S
Ho41 O66 2.322 . S
Ho41 O68 2.378 . S
Ho41 O69 2.524 . S
Ho41 O70 2.381 . S
Ho41 O71 2.669 . S
C42 O60 1.259 . S
C42 O61 1.268 1_565 S
C43 Ho40 2.811 1_565 S
C43 C44 1.488 . S
C43 O62 1.215 . S
C43 O63 1.289 . S
C44 C43 1.488 . S
C44 C45 1.348 . S
C44 C49 1.413 . S
C45 C44 1.348 . S
C45 C46 1.442 . S
C45 H72 0.930 . S
C46 C45 1.442 . S
C46 C47 1.381 . S
C46 H73 0.931 . S
C47 C46 1.381 . S
C47 C48 1.321 . S
C48 C47 1.321 . S
C48 C49 1.403 . S
C48 H74 0.934 . S
C49 C44 1.413 . S
C49 C48 1.403 . S
C49 H75 0.930 . S
C50 O64 1.275 . S
C50 O65 1.256 . S
C51 O66 1.259 . S
C51 O67 1.268 . S
C52 Ho41 2.811 . S
C52 C53 1.488 . S
C52 O68 1.215 . S
C52 O69 1.289 . S
C53 C52 1.488 . S
C53 C54 1.348 . S
C53 C58 1.413 . S
C54 C53 1.348 . S
C54 C55 1.442 . S
C54 H76 0.930 . S
C55 C54 1.442 . S
C55 C56 1.381 . S
C55 H77 0.931 . S
C56 C55 1.381 . S
C56 C57 1.321 . S
C57 C56 1.321 . S
C57 C58 1.403 . S
C57 H78 0.934 . S
C58 C53 1.413 . S
C58 C57 1.403 . S
C58 H79 0.930 . S
C59 O70 1.275 . S
C59 O71 1.256 . S
O60 Ho40 2.322 1_565 S
O60 C42 1.259 . S
O61 Ho41 2.346 . S
O61 C42 1.268 1_545 S
O62 Ho40 2.378 1_565 S
O62 C43 1.215 . S
O63 Ho40 2.524 1_565 S
O63 C43 1.289 . S
O64 Ho40 2.381 . S
O64 C50 1.275 . S
O65 Ho40 2.669 . S
O65 Ho41 2.305 . S
O65 C50 1.256 . S
O66 Ho41 2.322 . S
O66 C51 1.259 . S
O67 Ho40 2.346 . S
O67 C51 1.268 . S
O68 Ho41 2.378 . S
O68 C52 1.215 . S
O69 Ho41 2.524 . S
O69 C52 1.289 . S
O70 Ho41 2.381 . S
O70 C59 1.275 . S
O71 Ho40 2.305 . S
O71 Ho41 2.669 . S
O71 C59 1.256 . S
H72 C45 0.930 . S
H73 C46 0.931 . S
H74 C48 0.934 . S
H75 C49 0.930 . S
H76 C54 0.930 . S
H77 C55 0.931 . S
H78 C57 0.934 . S
H79 C58 0.930 . S
Ho80 C83 2.811 . S
Ho80 O100 2.322 . S
Ho80 O102 2.378 . S
Ho80 O103 2.524 . S
Ho80 O104 2.381 . S
Ho80 O105 2.669 . S
Ho80 O107 2.346 . S
Ho80 O111 2.305 . S
Ho81 C92 2.811 . S
Ho81 O101 2.346 . S
Ho81 O105 2.305 . S
Ho81 O106 2.322 . S
Ho81 O108 2.378 . S
Ho81 O109 2.524 . S
Ho81 O110 2.381 . S
Ho81 O111 2.669 . S
C82 O100 1.259 . S
C82 O101 1.268 . S
C83 Ho80 2.811 . S
C83 C84 1.488 . S
C83 O102 1.215 . S
C83 O103 1.289 . S
C84 C83 1.488 . S
C84 C85 1.348 . S
C84 C89 1.413 . S
C85 C84 1.348 . S
C85 C86 1.442 . S
C85 H112 0.930 . S
C86 C85 1.442 . S
C86 C87 1.381 . S
C86 H113 0.931 . S
C87 C86 1.381 . S
C87 C88 1.321 . S
C88 C87 1.321 . S
C88 C89 1.403 . S
C88 H114 0.934 . S
C89 C84 1.413 . S
C89 C88 1.403 . S
C89 H115 0.930 . S
C90 O104 1.275 . S
C90 O105 1.256 . S
C91 O106 1.259 . S
C91 O107 1.268 . S
C92 Ho81 2.811 . S
C92 C93 1.488 . S
C92 O108 1.215 . S
C92 O109 1.289 . S
C93 C92 1.488 . S
C93 C94 1.348 . S
C93 C98 1.413 . S
C94 C93 1.348 . S
C94 C95 1.442 . S
C94 H116 0.930 . S
C95 C94 1.442 . S
C95 C96 1.381 . S
C95 H117 0.931 . S
C96 C95 1.381 . S
C96 C97 1.321 . S
C97 C96 1.321 . S
C97 C98 1.403 . S
C97 H118 0.934 . S
C98 C93 1.413 . S
C98 C97 1.403 . S
C98 H119 0.930 . S
C99 O110 1.275 . S
C99 O111 1.256 . S
O100 Ho80 2.322 . S
O100 C82 1.259 . S
O101 Ho81 2.346 . S
O101 C82 1.268 . S
O102 Ho80 2.378 . S
O102 C83 1.215 . S
O103 Ho80 2.524 . S
O103 C83 1.289 . S
O104 Ho80 2.381 . S
O104 C90 1.275 . S
O105 Ho80 2.669 . S
O105 Ho81 2.305 . S
O105 C90 1.256 . S
O106 Ho81 2.322 . S
O106 C91 1.259 . S
O107 Ho80 2.346 . S
O107 C91 1.268 . S
O108 Ho81 2.378 . S
O108 C92 1.215 . S
O109 Ho81 2.524 . S
O109 C92 1.289 . S
O110 Ho81 2.381 . S
O110 C99 1.275 . S
O111 Ho80 2.305 . S
O111 Ho81 2.669 . S
O111 C99 1.256 . S
H112 C85 0.930 . S
H113 C86 0.931 . S
H114 C88 0.934 . S
H115 C89 0.930 . S
H116 C94 0.930 . S
H117 C95 0.931 . S
H118 C97 0.934 . S
H119 C98 0.930 . S
H120 C121 0.949 . S
C121 H120 0.949 . S
C121 C122 1.395 . S
C121 C123 1.391 . S
C122 C121 1.395 . S
C122 C125 1.390 . S
C123 C121 1.391 . S
C123 C127 1.387 . S
C123 C128 1.491 . S
H124 C125 0.943 1_565 S
C125 C122 1.390 . S
C125 H124 0.943 1_545 S
C125 C126 1.378 . S
C126 C125 1.378 . S
C126 C127 1.409 . S
C127 C123 1.387 . S
C127 C126 1.409 . S
C127 H129 0.951 . S
C128 C123 1.491 . S
C128 C130 1.382 . S
C128 C132 1.404 . S
H129 C127 0.951 . S
C130 C128 1.382 . S
C130 C131 1.390 . S
C130 H135 0.949 . S
C131 C130 1.390 . S
C131 C136 1.399 . S
C132 C128 1.404 . S
C132 H133 0.950 . S
C132 C134 1.375 . S
H133 C132 0.950 . S
C134 C132 1.375 . S
C134 C136 1.382 . S
C134 H138 0.950 . S
H135 C130 0.949 . S
C136 C131 1.399 . S
C136 C134 1.382 . S
C136 H137 0.952 . S
H137 C136 0.952 . S
H138 C134 0.950 . S
H139 C140 0.949 . S
C140 H139 0.949 . S
C140 C141 1.395 . S
C140 C142 1.391 . S
C141 C140 1.395 . S
C141 C144 1.390 . S
C142 C140 1.391 . S
C142 C146 1.387 . S
C142 C147 1.491 . S
H143 C144 0.950 . S
C144 C141 1.390 . S
C144 H143 0.950 . S
C144 C145 1.378 . S
C145 C144 1.378 . S
C145 C146 1.409 . S
C146 C142 1.387 . S
C146 C145 1.409 . S
C146 H148 0.951 . S
C147 C142 1.491 . S
C147 C149 1.382 . S
C147 C151 1.404 . S
H148 C146 0.951 . S
C149 C147 1.382 . S
C149 C150 1.390 . S
C149 H154 0.949 . S
C150 C149 1.390 . S
C150 C155 1.399 . S
C151 C147 1.404 . S
C151 H152 0.950 . S
C151 C153 1.375 . S
H152 C151 0.950 . S
C153 C151 1.375 . S
C153 C155 1.382 . S
C153 H157 0.950 . S
H154 C149 0.949 . S
C155 C150 1.399 . S
C155 C153 1.382 . S
C155 H156 0.952 . S
H156 C155 0.952 . S
H157 C153 0.950 . S
H158 C159 0.949 . S
C159 H158 0.949 . S
C159 C160 1.395 . S
C159 C161 1.391 . S
C160 C159 1.395 . S
C160 C163 1.390 . S
C161 C159 1.391 . S
C161 C165 1.387 . S
C161 C166 1.491 . S
H162 C163 0.950 . S
C163 C160 1.390 . S
C163 H162 0.950 . S
C163 C164 1.378 . S
C164 C163 1.378 . S
C164 C165 1.409 . S
C165 C161 1.387 . S
C165 C164 1.409 . S
C165 H167 0.951 . S
C166 C161 1.491 . S
C166 C168 1.382 . S
C166 C170 1.404 . S
H167 C165 0.951 . S
C168 C166 1.382 . S
C168 C169 1.390 . S
C168 H173 0.949 . S
C169 C168 1.390 . S
C169 C174 1.399 . S
C170 C166 1.404 . S
C170 H171 0.950 . S
C170 C172 1.375 . S
H171 C170 0.950 . S
C172 C170 1.375 . S
C172 C174 1.382 . S
C172 H176 0.950 . S
H173 C168 0.949 . S
C174 C169 1.399 . S
C174 C172 1.382 . S
C174 H175 0.952 . S
H175 C174 0.952 . S
H176 C172 0.950 . S
H177 C178 0.949 . S
C178 H177 0.949 . S
C178 C179 1.395 1_655 S
C178 C180 1.391 1_655 S
C179 C178 1.395 1_455 S
C179 C182 1.390 . S
C180 C178 1.391 1_455 S
C180 C184 1.387 . S
C180 C185 1.491 1_455 S
H181 C182 0.950 . S
C182 C179 1.390 . S
C182 H181 0.950 . S
C182 C183 1.378 . S
C183 C182 1.378 . S
C183 C184 1.409 . S
C184 C180 1.387 . S
C184 C183 1.409 . S
C184 H186 0.951 . S
C185 C180 1.491 1_655 S
C185 C187 1.382 . S
C185 C189 1.404 . S
H186 C184 0.951 . S
C187 C185 1.382 . S
C187 C188 1.390 . S
C187 H192 0.949 . S
C188 C187 1.390 . S
C188 C193 1.399 . S
C189 C185 1.404 . S
C189 H190 0.950 . S
C189 C191 1.375 . S
H190 C189 0.950 . S
C191 C189 1.375 . S
C191 C193 1.382 . S
C191 H195 0.950 . S
H192 C187 0.949 . S
C193 C188 1.399 . S
C193 C191 1.382 . S
C193 H194 0.952 . S
H194 C193 0.952 . S
H195 C191 0.950 . S
H196 C197 0.949 . S
C197 H196 0.949 . S
C197 C198 1.395 . S
C197 C199 1.391 . S
C198 C197 1.395 . S
C198 C201 1.390 . S
C199 C197 1.391 . S
C199 C203 1.387 . S
C199 C204 1.491 . S
H200 C201 0.950 . S
C201 C198 1.390 . S
C201 H200 0.950 . S
C201 C202 1.378 . S
C202 C201 1.378 . S
C202 C203 1.409 . S
C203 C199 1.387 . S
C203 C202 1.409 . S
C203 H205 0.951 . S
C204 C199 1.491 . S
C204 C206 1.382 1_545 S
C204 C208 1.404 1_545 S
H205 C203 0.951 . S
C206 C204 1.382 1_565 S
C206 C207 1.390 . S
C206 H211 0.949 . S
C207 C206 1.390 . S
C207 C212 1.399 . S
C208 C204 1.404 1_565 S
C208 H209 0.950 1_565 S
C208 C210 1.375 . S
H209 C208 0.950 1_545 S
C210 C208 1.375 . S
C210 C212 1.382 . S
C210 H214 0.950 . S
H211 C206 0.949 . S
C212 C207 1.399 . S
C212 C210 1.382 . S
C212 H213 0.952 . S
H213 C212 0.952 . S
H214 C210 0.950 . S
H215 C216 0.949 . S
C216 H215 0.949 . S
C216 C217 1.395 . S
C216 C218 1.391 . S
C217 C216 1.395 . S
C217 C220 1.390 . S
C218 C216 1.391 . S
C218 C222 1.387 . S
C218 C223 1.491 . S
H219 C220 0.950 . S
C220 C217 1.390 . S
C220 H219 0.950 . S
C220 C221 1.378 . S
C221 C220 1.378 . S
C221 C222 1.409 . S
C222 C218 1.387 . S
C222 C221 1.409 . S
C222 H224 0.951 . S
C223 C218 1.491 . S
C223 C225 1.382 . S
C223 C227 1.404 . S
H224 C222 0.951 . S
C225 C223 1.382 . S
C225 C226 1.390 . S
C225 H230 0.949 . S
C226 C225 1.390 . S
C226 C231 1.399 . S
C227 C223 1.404 . S
C227 H228 0.950 . S
C227 C229 1.375 . S
H228 C227 0.950 . S
C229 C227 1.375 . S
C229 C231 1.382 . S
C229 H233 0.950 . S
H230 C225 0.949 . S
C231 C226 1.399 . S
C231 C229 1.382 . S
C231 H232 0.952 . S
H232 C231 0.952 . S
H233 C229 0.950 . S
H234 C252 0.951 . S
H235 C254 0.951 . S
H236 C256 0.950 . S
H237 C257 0.950 . S
H238 C259 0.950 . S
H239 C262 0.950 . S
H240 C263 0.950 . S
H241 C265 0.950 . S
H242 C266 0.950 . S
H243 C267 0.951 . S
H244 C269 0.951 . S
H245 C271 0.950 . S
H246 C272 0.950 . S
H247 C274 0.950 . S
H248 C277 0.950 . S
H249 C278 0.950 . S
H250 C280 0.950 . S
H251 C281 0.950 . S
C252 H234 0.951 . S
C252 C253 1.366 . S
C252 C254 1.388 . S
C253 C252 1.366 . S
C253 C257 1.385 . S
C254 H235 0.951 . S
C254 C252 1.388 . S
C254 C255 1.366 . S
C255 C254 1.366 . S
C255 C256 1.414 . S
C255 C258 1.499 . S
C256 H236 0.950 . S
C256 C255 1.414 . S
C256 C257 1.374 . S
C257 H237 0.950 . S
C257 C253 1.385 . S
C257 C256 1.374 . S
C258 C255 1.499 . S
C258 C259 1.373 . S
C258 C260 1.389 . S
C259 H238 0.950 . S
C259 C258 1.373 . S
C259 C275 1.377 . S
C260 C258 1.389 . S
C260 C261 1.524 . S
C260 C274 1.377 . S
C261 C260 1.524 . S
C261 C262 1.397 . S
C261 C266 1.363 . S
C262 H239 0.950 . S
C262 C261 1.397 . S
C262 C263 1.334 . S
C263 H240 0.950 . S
C263 C262 1.334 . S
C263 C264 1.287 . S
C264 C263 1.287 . S
C264 C265 1.524 . S
C264 H283 0.913 . S
C265 H241 0.950 . S
C265 C264 1.524 . S
C265 C266 1.415 . S
C266 H242 0.950 . S
C266 C261 1.363 . S
C266 C265 1.415 . S
C267 H243 0.951 . S
C267 C268 1.366 . S
C267 C269 1.388 . S
C268 C267 1.366 . S
C268 C272 1.385 . S
C269 H244 0.951 . S
C269 C267 1.388 . S
C269 C270 1.366 . S
C270 C269 1.366 . S
C270 C271 1.414 . S
C270 C273 1.499 . S
C271 H245 0.950 . S
C271 C270 1.414 . S
C271 C272 1.374 . S
C272 H246 0.950 . S
C272 C268 1.385 . S
C272 C271 1.374 . S
C273 C270 1.499 . S
C273 C274 1.373 . S
C273 C275 1.389 . S
C274 H247 0.950 . S
C274 C260 1.377 . S
C274 C273 1.373 . S
C275 C259 1.377 . S
C275 C273 1.389 . S
C275 C276 1.524 . S
C276 C275 1.524 . S
C276 C277 1.397 . S
C276 C281 1.363 . S
C277 H248 0.950 . S
C277 C276 1.397 . S
C277 C278 1.334 . S
C278 H249 0.950 . S
C278 C277 1.334 . S
C278 C279 1.287 . S
C279 C278 1.287 . S
C279 C280 1.524 . S
C279 H282 0.999 . S
C280 H250 0.950 . S
C280 C279 1.524 . S
C280 C281 1.415 . S
C281 H251 0.950 . S
C281 C276 1.363 . S
C281 C280 1.415 . S
H282 C279 0.999 . S
H283 C264 0.913 . S
H284 C302 0.951 . S
H285 C304 0.951 . S
H286 C306 0.950 . S
H287 C307 0.950 . S
H288 C309 0.950 . S
H289 C312 0.950 . S
H290 C313 0.950 . S
H291 C315 0.950 . S
H292 C316 0.950 . S
H293 C317 0.951 . S
H294 C319 0.951 . S
H295 C321 0.950 . S
H296 C322 0.950 . S
H297 C324 0.950 . S
H298 C327 0.950 . S
H299 C328 0.950 . S
H300 C330 0.950 . S
H301 C331 0.950 . S
C302 H284 0.951 . S
C302 C303 1.366 . S
C302 C304 1.388 . S
C303 C302 1.366 . S
C303 C307 1.385 . S
C304 H285 0.951 . S
C304 C302 1.388 . S
C304 C305 1.366 . S
C305 C304 1.366 . S
C305 C306 1.414 . S
C305 C308 1.499 . S
C306 H286 0.950 . S
C306 C305 1.414 . S
C306 C307 1.374 . S
C307 H287 0.950 . S
C307 C303 1.385 . S
C307 C306 1.374 . S
C308 C305 1.499 . S
C308 C309 1.373 . S
C308 C310 1.389 . S
C309 H288 0.950 . S
C309 C308 1.373 . S
C309 C325 1.377 . S
C310 C308 1.389 . S
C310 C311 1.524 . S
C310 C324 1.377 . S
C311 C310 1.524 . S
C311 C312 1.397 . S
C311 C316 1.363 . S
C312 H289 0.950 . S
C312 C311 1.397 . S
C312 C313 1.334 . S
C313 H290 0.950 . S
C313 C312 1.334 . S
C313 C314 1.287 . S
C314 C313 1.287 . S
C314 C315 1.524 . S
C314 H333 0.913 . S
C315 H291 0.950 . S
C315 C314 1.524 . S
C315 C316 1.415 . S
C316 H292 0.950 . S
C316 C311 1.363 . S
C316 C315 1.415 . S
C317 H293 0.951 . S
C317 C318 1.366 . S
C317 C319 1.388 . S
C318 C317 1.366 . S
C318 C322 1.385 . S
C319 H294 0.951 . S
C319 C317 1.388 . S
C319 C320 1.366 . S
C320 C319 1.366 . S
C320 C321 1.414 . S
C320 C323 1.499 . S
C321 H295 0.950 . S
C321 C320 1.414 . S
C321 C322 1.374 . S
C322 H296 0.950 . S
C322 C318 1.385 . S
C322 C321 1.374 . S
C323 C320 1.499 . S
C323 C324 1.373 . S
C323 C325 1.389 . S
C324 H297 0.950 . S
C324 C310 1.377 . S
C324 C323 1.373 . S
C325 C309 1.377 . S
C325 C323 1.389 . S
C325 C326 1.524 . S
C326 C325 1.524 . S
C326 C327 1.397 . S
C326 C331 1.363 . S
C327 H298 0.950 . S
C327 C326 1.397 . S
C327 C328 1.334 . S
C328 H299 0.950 . S
C328 C327 1.334 . S
C328 C329 1.287 . S
C329 C328 1.287 . S
C329 C330 1.524 . S
C329 H332 0.999 . S
C330 H300 0.950 . S
C330 C329 1.524 . S
C330 C331 1.415 . S
C331 H301 0.950 . S
C331 C326 1.363 . S
C331 C330 1.415 . S
H332 C329 0.999 . S
H333 C314 0.913 . S
H334 C352 0.951 . S
H335 C354 0.951 . S
H336 C356 0.950 . S
H337 C357 0.950 . S
H338 C359 0.950 . S
H339 C362 0.950 . S
H340 C363 0.950 . S
H341 C365 0.950 . S
H342 C366 0.950 . S
H343 C367 0.951 . S
H344 C369 0.951 . S
H345 C371 0.950 . S
H346 C372 0.950 . S
H347 C374 0.950 . S
H348 C377 0.950 . S
H349 C378 0.950 . S
H350 C380 0.950 . S
H351 C381 0.950 . S
C352 H334 0.951 . S
C352 C353 1.366 . S
C352 C354 1.388 . S
C353 C352 1.366 . S
C353 C357 1.385 . S
C354 H335 0.951 . S
C354 C352 1.388 . S
C354 C355 1.366 . S
C355 C354 1.366 . S
C355 C356 1.414 . S
C355 C358 1.499 . S
C356 H336 0.950 . S
C356 C355 1.414 . S
C356 C357 1.374 . S
C357 H337 0.950 . S
C357 C353 1.385 . S
C357 C356 1.374 . S
C358 C355 1.499 . S
C358 C359 1.373 . S
C358 C360 1.389 . S
C359 H338 0.950 . S
C359 C358 1.373 . S
C359 C375 1.377 . S
C360 C358 1.389 . S
C360 C361 1.524 . S
C360 C374 1.377 . S
C361 C360 1.524 . S
C361 C362 1.397 . S
C361 C366 1.363 . S
C362 H339 0.950 . S
C362 C361 1.397 . S
C362 C363 1.334 . S
C363 H340 0.950 . S
C363 C362 1.334 . S
C363 C364 1.287 . S
C364 C363 1.287 . S
C364 C365 1.524 . S
C364 H383 0.913 . S
C365 H341 0.950 . S
C365 C364 1.524 . S
C365 C366 1.415 . S
C366 H342 0.950 . S
C366 C361 1.363 . S
C366 C365 1.415 . S
C367 H343 0.951 . S
C367 C368 1.366 . S
C367 C369 1.388 . S
C368 C367 1.366 . S
C368 C372 1.385 . S
C369 H344 0.951 . S
C369 C367 1.388 . S
C369 C370 1.366 . S
C370 C369 1.366 . S
C370 C371 1.414 . S
C370 C373 1.499 . S
C371 H345 0.950 . S
C371 C370 1.414 . S
C371 C372 1.374 . S
C372 H346 0.950 . S
C372 C368 1.385 . S
C372 C371 1.374 . S
C373 C370 1.499 . S
C373 C374 1.373 . S
C373 C375 1.389 . S
C374 H347 0.950 . S
C374 C360 1.377 . S
C374 C373 1.373 . S
C375 C359 1.377 . S
C375 C373 1.389 . S
C375 C376 1.524 . S
C376 C375 1.524 . S
C376 C377 1.397 . S
C376 C381 1.363 . S
C377 H348 0.950 . S
C377 C376 1.397 . S
C377 C378 1.334 . S
C378 H349 0.950 . S
C378 C377 1.334 . S
C378 C379 1.287 . S
C379 C378 1.287 . S
C379 C380 1.524 . S
C379 H382 0.999 . S
C380 H350 0.950 . S
C380 C379 1.524 . S
C380 C381 1.415 . S
C381 H351 0.950 . S
C381 C376 1.363 . S
C381 C380 1.415 . S
H382 C379 0.999 . S
H383 C364 0.913 . S
H384 C402 0.951 . S
H385 C404 0.951 . S
H386 C406 0.950 . S
H387 C407 0.950 . S
H388 C409 0.950 . S
H389 C412 0.950 . S
H390 C413 0.950 . S
H391 C415 0.950 . S
H392 C416 0.950 . S
H393 C417 0.951 . S
H394 C419 0.951 . S
H395 C421 0.950 . S
H396 C422 0.950 . S
H397 C424 0.950 . S
H398 C427 0.950 . S
H399 C428 0.950 . S
H400 C430 0.950 . S
H401 C431 0.950 . S
C402 H384 0.951 . S
C402 C403 1.366 . S
C402 C404 1.388 . S
C403 C402 1.366 . S
C403 C407 1.385 . S
C404 H385 0.951 . S
C404 C402 1.388 . S
C404 C405 1.366 . S
C405 C404 1.366 . S
C405 C406 1.414 . S
C405 C408 1.499 . S
C406 H386 0.950 . S
C406 C405 1.414 . S
C406 C407 1.374 . S
C407 H387 0.950 . S
C407 C403 1.385 . S
C407 C406 1.374 . S
C408 C405 1.499 . S
C408 C409 1.373 . S
C408 C410 1.389 . S
C409 H388 0.950 . S
C409 C408 1.373 . S
C409 C425 1.377 . S
C410 C408 1.389 . S
C410 C411 1.524 . S
C410 C424 1.377 . S
C411 C410 1.524 . S
C411 C412 1.397 . S
C411 C416 1.363 . S
C412 H389 0.950 . S
C412 C411 1.397 . S
C412 C413 1.334 . S
C413 H390 0.950 . S
C413 C412 1.334 . S
C413 C414 1.287 . S
C414 C413 1.287 . S
C414 C415 1.524 . S
C414 H433 0.913 . S
C415 H391 0.950 . S
C415 C414 1.524 . S
C415 C416 1.415 . S
C416 H392 0.950 . S
C416 C411 1.363 . S
C416 C415 1.415 . S
C417 H393 0.951 . S
C417 C418 1.366 . S
C417 C419 1.388 . S
C418 C417 1.366 . S
C418 C422 1.385 . S
C419 H394 0.951 . S
C419 C417 1.388 . S
C419 C420 1.366 . S
C420 C419 1.366 . S
C420 C421 1.414 . S
C420 C423 1.499 . S
C421 H395 0.950 . S
C421 C420 1.414 . S
C421 C422 1.374 . S
C422 H396 0.950 . S
C422 C418 1.385 . S
C422 C421 1.374 . S
C423 C420 1.499 . S
C423 C424 1.373 . S
C423 C425 1.389 . S
C424 H397 0.950 . S
C424 C410 1.377 . S
C424 C423 1.373 . S
C425 C409 1.377 . S
C425 C423 1.389 . S
C425 C426 1.524 . S
C426 C425 1.524 . S
C426 C427 1.397 . S
C426 C431 1.363 . S
C427 H398 0.950 . S
C427 C426 1.397 . S
C427 C428 1.334 . S
C428 H399 0.950 . S
C428 C427 1.334 . S
C428 C429 1.287 . S
C429 C428 1.287 . S
C429 C430 1.524 . S
C429 H432 0.999 . S
C430 H400 0.950 . S
C430 C429 1.524 . S
C430 C431 1.415 . S
C431 H401 0.950 . S
C431 C426 1.363 . S
C431 C430 1.415 . S
H432 C429 0.999 . S
H433 C414 0.913 . S
H434 C452 0.951 . S
H435 C454 0.951 . S
H436 C456 0.950 . S
H437 C457 0.950 . S
H438 C459 0.950 . S
H439 C462 0.950 . S
H440 C463 0.950 . S
H441 C465 0.950 . S
H442 C466 0.950 . S
H443 C467 0.951 . S
H444 C469 0.951 . S
H445 C471 0.950 . S
H446 C472 0.950 . S
H447 C474 0.950 . S
H448 C477 0.950 . S
H449 C478 0.950 . S
H450 C480 0.950 . S
H451 C481 0.950 . S
C452 H434 0.951 . S
C452 C453 1.366 . S
C452 C454 1.388 . S
C453 C452 1.366 . S
C453 C457 1.385 . S
C454 H435 0.951 . S
C454 C452 1.388 . S
C454 C455 1.366 . S
C455 C454 1.366 . S
C455 C456 1.414 . S
C455 C458 1.499 . S
C456 H436 0.950 . S
C456 C455 1.414 . S
C456 C457 1.374 . S
C457 H437 0.950 . S
C457 C453 1.385 . S
C457 C456 1.374 . S
C458 C455 1.499 . S
C458 C459 1.373 . S
C458 C460 1.389 . S
C459 H438 0.950 . S
C459 C458 1.373 . S
C459 C475 1.377 . S
C460 C458 1.389 . S
C460 C461 1.524 . S
C460 C474 1.377 . S
C461 C460 1.524 . S
C461 C462 1.397 . S
C461 C466 1.363 . S
C462 H439 0.950 . S
C462 C461 1.397 . S
C462 C463 1.334 . S
C463 H440 0.950 . S
C463 C462 1.334 . S
C463 C464 1.287 . S
C464 C463 1.287 . S
C464 C465 1.524 . S
C464 H483 0.913 . S
C465 H441 0.950 . S
C465 C464 1.524 . S
C465 C466 1.415 . S
C466 H442 0.950 . S
C466 C461 1.363 . S
C466 C465 1.415 . S
C467 H443 0.951 . S
C467 C468 1.366 . S
C467 C469 1.388 . S
C468 C467 1.366 . S
C468 C472 1.385 . S
C469 H444 0.951 . S
C469 C467 1.388 . S
C469 C470 1.366 . S
C470 C469 1.366 . S
C470 C471 1.414 . S
C470 C473 1.499 . S
C471 H445 0.950 . S
C471 C470 1.414 . S
C471 C472 1.374 . S
C472 H446 0.950 . S
C472 C468 1.385 . S
C472 C471 1.374 . S
C473 C470 1.499 . S
C473 C474 1.373 . S
C473 C475 1.389 . S
C474 H447 0.950 . S
C474 C460 1.377 . S
C474 C473 1.373 . S
C475 C459 1.377 . S
C475 C473 1.389 . S
C475 C476 1.524 . S
C476 C475 1.524 . S
C476 C477 1.397 . S
C476 C481 1.363 . S
C477 H448 0.950 . S
C477 C476 1.397 . S
C477 C478 1.334 . S
C478 H449 0.950 . S
C478 C477 1.334 . S
C478 C479 1.287 . S
C479 C478 1.287 . S
C479 C480 1.524 . S
C479 H482 0.999 . S
C480 H450 0.950 . S
C480 C479 1.524 . S
C480 C481 1.415 . S
C481 H451 0.950 . S
C481 C476 1.363 . S
C481 C480 1.415 . S
H482 C479 0.999 . S
H483 C464 0.913 . S
H484 C502 0.951 . S
H485 C504 0.951 . S
H486 C506 0.950 . S
H487 C507 0.950 . S
H488 C509 0.950 . S
H489 C512 0.950 . S
H490 C513 0.950 . S
H491 C515 0.950 . S
H492 C516 0.950 . S
H493 C517 0.951 . S
H494 C519 0.951 . S
H495 C521 0.950 . S
H496 C522 0.950 . S
H497 C524 0.950 . S
H498 C527 0.950 . S
H499 C528 0.950 . S
H500 C530 0.950 . S
H501 C531 0.950 . S
C502 H484 0.951 . S
C502 C503 1.366 . S
C502 C504 1.388 . S
C503 C502 1.366 . S
C503 C507 1.385 . S
C504 H485 0.951 . S
C504 C502 1.388 . S
C504 C505 1.366 . S
C505 C504 1.366 . S
C505 C506 1.414 . S
C505 C508 1.499 . S
C506 H486 0.950 . S
C506 C505 1.414 . S
C506 C507 1.374 . S
C507 H487 0.950 . S
C507 C503 1.385 . S
C507 C506 1.374 . S
C508 C505 1.499 . S
C508 C509 1.373 . S
C508 C510 1.389 . S
C509 H488 0.950 . S
C509 C508 1.373 . S
C509 C525 1.377 . S
C510 C508 1.389 . S
C510 C511 1.524 . S
C510 C524 1.377 . S
C511 C510 1.524 . S
C511 C512 1.397 . S
C511 C516 1.363 . S
C512 H489 0.950 . S
C512 C511 1.397 . S
C512 C513 1.334 . S
C513 H490 0.950 . S
C513 C512 1.334 . S
C513 C514 1.287 . S
C514 C513 1.287 . S
C514 C515 1.524 . S
C514 H533 0.913 . S
C515 H491 0.950 . S
C515 C514 1.524 . S
C515 C516 1.415 . S
C516 H492 0.950 . S
C516 C511 1.363 . S
C516 C515 1.415 . S
C517 H493 0.951 . S
C517 C518 1.366 . S
C517 C519 1.388 . S
C518 C517 1.366 . S
C518 C522 1.385 . S
C519 H494 0.951 . S
C519 C517 1.388 . S
C519 C520 1.366 . S
C520 C519 1.366 . S
C520 C521 1.414 . S
C520 C523 1.499 . S
C521 H495 0.950 . S
C521 C520 1.414 . S
C521 C522 1.374 . S
C522 H496 0.950 . S
C522 C518 1.385 . S
C522 C521 1.374 . S
C523 C520 1.499 . S
C523 C524 1.373 . S
C523 C525 1.389 . S
C524 H497 0.950 . S
C524 C510 1.377 . S
C524 C523 1.373 . S
C525 C509 1.377 . S
C525 C523 1.389 . S
C525 C526 1.524 . S
C526 C525 1.524 . S
C526 C527 1.397 . S
C526 C531 1.363 . S
C527 H498 0.950 . S
C527 C526 1.397 . S
C527 C528 1.334 . S
C528 H499 0.950 . S
C528 C527 1.334 . S
C528 C529 1.287 . S
C529 C528 1.287 . S
C529 C530 1.524 . S
C529 H532 0.999 . S
C530 H500 0.950 . S
C530 C529 1.524 . S
C530 C531 1.415 . S
C531 H501 0.950 . S
C531 C526 1.363 . S
C531 C530 1.415 . S
H532 C529 0.999 . S
H533 C514 0.913 . S
H534 C552 0.951 . S
H535 C554 0.951 . S
H536 C556 0.950 . S
H537 C557 0.950 . S
H538 C559 0.950 . S
H539 C562 0.950 . S
H540 C563 0.950 . S
H541 C565 0.950 . S
H542 C566 0.950 . S
H543 C567 0.951 . S
H544 C569 0.951 . S
H545 C571 0.950 . S
H546 C572 0.950 . S
H547 C574 0.950 . S
H548 C577 0.950 . S
H549 C578 0.950 . S
H550 C580 0.950 . S
H551 C581 0.950 . S
C552 H534 0.951 . S
C552 C553 1.366 . S
C552 C554 1.388 . S
C553 C552 1.366 . S
C553 C557 1.385 . S
C554 H535 0.951 . S
C554 C552 1.388 . S
C554 C555 1.366 . S
C555 C554 1.366 . S
C555 C556 1.414 . S
C555 C558 1.499 . S
C556 H536 0.950 . S
C556 C555 1.414 . S
C556 C557 1.374 . S
C557 H537 0.950 . S
C557 C553 1.385 . S
C557 C556 1.374 . S
C558 C555 1.499 . S
C558 C559 1.373 . S
C558 C560 1.389 . S
C559 H538 0.950 . S
C559 C558 1.373 . S
C559 C575 1.377 . S
C560 C558 1.389 . S
C560 C561 1.524 . S
C560 C574 1.377 . S
C561 C560 1.524 . S
C561 C562 1.397 . S
C561 C566 1.363 . S
C562 H539 0.950 . S
C562 C561 1.397 . S
C562 C563 1.334 . S
C563 H540 0.950 . S
C563 C562 1.334 . S
C563 C564 1.287 . S
C564 C563 1.287 . S
C564 C565 1.524 . S
C564 H583 0.913 . S
C565 H541 0.950 . S
C565 C564 1.524 . S
C565 C566 1.415 . S
C566 H542 0.950 . S
C566 C561 1.363 . S
C566 C565 1.415 . S
C567 H543 0.951 . S
C567 C568 1.366 . S
C567 C569 1.388 . S
C568 C567 1.366 . S
C568 C572 1.385 . S
C569 H544 0.951 . S
C569 C567 1.388 . S
C569 C570 1.366 . S
C570 C569 1.366 . S
C570 C571 1.414 . S
C570 C573 1.499 . S
C571 H545 0.950 . S
C571 C570 1.414 . S
C571 C572 1.374 . S
C572 H546 0.950 . S
C572 C568 1.385 . S
C572 C571 1.374 . S
C573 C570 1.499 . S
C573 C574 1.373 . S
C573 C575 1.389 . S
C574 H547 0.950 . S
C574 C560 1.377 . S
C574 C573 1.373 . S
C575 C559 1.377 . S
C575 C573 1.389 . S
C575 C576 1.524 . S
C576 C575 1.524 . S
C576 C577 1.397 . S
C576 C581 1.363 . S
C577 H548 0.950 . S
C577 C576 1.397 . S
C577 C578 1.334 . S
C578 H549 0.950 . S
C578 C577 1.334 . S
C578 C579 1.287 . S
C579 C578 1.287 . S
C579 C580 1.524 . S
C579 H582 0.999 . S
C580 H550 0.950 . S
C580 C579 1.524 . S
C580 C581 1.415 . S
C581 H551 0.950 . S
C581 C576 1.363 . S
C581 C580 1.415 . S
H582 C579 0.999 . S
H583 C564 0.913 . S
H584 C602 0.951 . S
H585 C604 0.951 . S
H586 C606 0.950 . S
H587 C607 0.950 . S
H588 C609 0.950 . S
H589 C612 0.950 . S
H590 C613 0.950 . S
H591 C615 0.950 . S
H592 C616 0.950 . S
H593 C617 0.951 . S
H594 C619 0.951 . S
H595 C621 0.950 . S
H596 C622 0.950 . S
H597 C624 0.950 . S
H598 C627 0.950 . S
H599 C628 0.950 . S
H600 C630 0.950 . S
H601 C631 0.950 . S
C602 H584 0.951 . S
C602 C603 1.366 . S
C602 C604 1.388 . S
C603 C602 1.366 . S
C603 C607 1.385 . S
C604 H585 0.951 . S
C604 C602 1.388 . S
C604 C605 1.366 . S
C605 C604 1.366 . S
C605 C606 1.414 . S
C605 C608 1.499 . S
C606 H586 0.950 . S
C606 C605 1.414 . S
C606 C607 1.374 . S
C607 H587 0.950 . S
C607 C603 1.385 . S
C607 C606 1.374 . S
C608 C605 1.499 . S
C608 C609 1.373 . S
C608 C610 1.389 . S
C609 H588 0.950 . S
C609 C608 1.373 . S
C609 C625 1.377 . S
C610 C608 1.389 . S
C610 C611 1.524 . S
C610 C624 1.377 . S
C611 C610 1.524 . S
C611 C612 1.397 . S
C611 C616 1.363 . S
C612 H589 0.950 . S
C612 C611 1.397 . S
C612 C613 1.334 . S
C613 H590 0.950 . S
C613 C612 1.334 . S
C613 C614 1.287 . S
C614 C613 1.287 . S
C614 C615 1.524 . S
C614 H633 0.913 . S
C615 H591 0.950 . S
C615 C614 1.524 . S
C615 C616 1.415 . S
C616 H592 0.950 . S
C616 C611 1.363 . S
C616 C615 1.415 . S
C617 H593 0.951 . S
C617 C618 1.366 . S
C617 C619 1.388 . S
C618 C617 1.366 . S
C618 C622 1.385 . S
C619 H594 0.951 . S
C619 C617 1.388 . S
C619 C620 1.366 . S
C620 C619 1.366 . S
C620 C621 1.414 . S
C620 C623 1.499 . S
C621 H595 0.950 . S
C621 C620 1.414 . S
C621 C622 1.374 . S
C622 H596 0.950 . S
C622 C618 1.385 . S
C622 C621 1.374 . S
C623 C620 1.499 . S
C623 C624 1.373 . S
C623 C625 1.389 . S
C624 H597 0.950 . S
C624 C610 1.377 . S
C624 C623 1.373 . S
C625 C609 1.377 . S
C625 C623 1.389 . S
C625 C626 1.524 . S
C626 C625 1.524 . S
C626 C627 1.397 . S
C626 C631 1.363 . S
C627 H598 0.950 . S
C627 C626 1.397 . S
C627 C628 1.334 . S
C628 H599 0.950 . S
C628 C627 1.334 . S
C628 C629 1.287 . S
C629 C628 1.287 . S
C629 C630 1.524 . S
C629 H632 0.999 . S
C630 H600 0.950 . S
C630 C629 1.524 . S
C630 C631 1.415 . S
C631 H601 0.950 . S
C631 C626 1.363 . S
C631 C630 1.415 . S
H632 C629 0.999 . S
H633 C614 0.913 . S
H634 C652 0.951 . S
H635 C654 0.951 . S
H636 C656 0.950 . S
H637 C657 0.950 . S
H638 C659 0.950 . S
H639 C662 0.950 . S
H640 C663 0.950 . S
H641 C665 0.950 . S
H642 C666 0.950 . S
H643 C667 0.951 . S
H644 C669 0.951 . S
H645 C671 0.950 . S
H646 C672 0.950 . S
H647 C674 0.950 . S
H648 C677 0.950 . S
H649 C678 0.950 . S
H650 C680 0.950 . S
H651 C681 0.950 . S
C652 H634 0.951 . S
C652 C653 1.366 . S
C652 C654 1.388 . S
C653 C652 1.366 . S
C653 C657 1.385 . S
C654 H635 0.951 . S
C654 C652 1.388 . S
C654 C655 1.366 . S
C655 C654 1.366 . S
C655 C656 1.414 . S
C655 C658 1.499 . S
C656 H636 0.950 . S
C656 C655 1.414 . S
C656 C657 1.374 . S
C657 H637 0.950 . S
C657 C653 1.385 . S
C657 C656 1.374 . S
C658 C655 1.499 . S
C658 C659 1.373 . S
C658 C660 1.389 . S
C659 H638 0.950 . S
C659 C658 1.373 . S
C659 C675 1.377 . S
C660 C658 1.389 . S
C660 C661 1.524 . S
C660 C674 1.377 . S
C661 C660 1.524 . S
C661 C662 1.397 . S
C661 C666 1.363 . S
C662 H639 0.950 . S
C662 C661 1.397 . S
C662 C663 1.334 . S
C663 H640 0.950 . S
C663 C662 1.334 . S
C663 C664 1.287 . S
C664 C663 1.287 . S
C664 C665 1.524 . S
C664 H683 0.913 . S
C665 H641 0.950 . S
C665 C664 1.524 . S
C665 C666 1.415 . S
C666 H642 0.950 . S
C666 C661 1.363 . S
C666 C665 1.415 . S
C667 H643 0.951 . S
C667 C668 1.366 . S
C667 C669 1.388 . S
C668 C667 1.366 . S
C668 C672 1.385 . S
C669 H644 0.951 . S
C669 C667 1.388 . S
C669 C670 1.366 . S
C670 C669 1.366 . S
C670 C671 1.414 . S
C670 C673 1.499 . S
C671 H645 0.950 . S
C671 C670 1.414 . S
C671 C672 1.374 . S
C672 H646 0.950 . S
C672 C668 1.385 . S
C672 C671 1.374 . S
C673 C670 1.499 . S
C673 C674 1.373 . S
C673 C675 1.389 . S
C674 H647 0.950 . S
C674 C660 1.377 . S
C674 C673 1.373 . S
C675 C659 1.377 . S
C675 C673 1.389 . S
C675 C676 1.524 . S
C676 C675 1.524 . S
C676 C677 1.397 . S
C676 C681 1.363 . S
C677 H648 0.950 . S
C677 C676 1.397 . S
C677 C678 1.334 . S
C678 H649 0.950 . S
C678 C677 1.334 . S
C678 C679 1.287 . S
C679 C678 1.287 . S
C679 C680 1.524 . S
C679 H682 0.999 . S
C680 H650 0.950 . S
C680 C679 1.524 . S
C680 C681 1.415 . S
C681 H651 0.950 . S
C681 C676 1.363 . S
C681 C680 1.415 . S
H682 C679 0.999 . S
H683 C664 0.913 . S
H684 C702 0.951 . S
H685 C704 0.951 . S
H686 C706 0.950 . S
H687 C707 0.950 . S
H688 C709 0.950 . S
H689 C712 0.950 . S
H690 C713 0.950 . S
H691 C715 0.950 . S
H692 C716 0.950 . S
H693 C717 0.951 . S
H694 C719 0.951 . S
H695 C721 0.950 . S
H696 C722 0.950 . S
H697 C724 0.950 . S
H698 C727 0.950 . S
H699 C728 0.950 . S
H700 C730 0.950 . S
H701 C731 0.950 . S
C702 H684 0.951 . S
C702 C703 1.366 . S
C702 C704 1.388 . S
C703 C702 1.366 . S
C703 C707 1.385 . S
C704 H685 0.951 . S
C704 C702 1.388 . S
C704 C705 1.366 . S
C705 C704 1.366 . S
C705 C706 1.414 . S
C705 C708 1.499 . S
C706 H686 0.950 . S
C706 C705 1.414 . S
C706 C707 1.374 . S
C707 H687 0.950 . S
C707 C703 1.385 . S
C707 C706 1.374 . S
C708 C705 1.499 . S
C708 C709 1.373 . S
C708 C710 1.389 . S
C709 H688 0.950 . S
C709 C708 1.373 . S
C709 C725 1.377 . S
C710 C708 1.389 . S
C710 C711 1.524 . S
C710 C724 1.377 . S
C711 C710 1.524 . S
C711 C712 1.397 . S
C711 C716 1.363 . S
C712 H689 0.950 . S
C712 C711 1.397 . S
C712 C713 1.334 . S
C713 H690 0.950 . S
C713 C712 1.334 . S
C713 C714 1.287 . S
C714 C713 1.287 . S
C714 C715 1.524 . S
C714 H733 0.913 . S
C715 H691 0.950 . S
C715 C714 1.524 . S
C715 C716 1.415 . S
C716 H692 0.950 . S
C716 C711 1.363 . S
C716 C715 1.415 . S
C717 H693 0.951 . S
C717 C718 1.366 . S
C717 C719 1.388 . S
C718 C717 1.366 . S
C718 C722 1.385 . S
C719 H694 0.951 . S
C719 C717 1.388 . S
C719 C720 1.366 . S
C720 C719 1.366 . S
C720 C721 1.414 . S
C720 C723 1.499 . S
C721 H695 0.950 . S
C721 C720 1.414 . S
C721 C722 1.374 . S
C722 H696 0.950 . S
C722 C718 1.385 . S
C722 C721 1.374 . S
C723 C720 1.499 . S
C723 C724 1.373 . S
C723 C725 1.389 . S
C724 H697 0.950 . S
C724 C710 1.377 . S
C724 C723 1.373 . S
C725 C709 1.377 . S
C725 C723 1.389 . S
C725 C726 1.524 . S
C726 C725 1.524 . S
C726 C727 1.397 . S
C726 C731 1.363 . S
C727 H698 0.950 . S
C727 C726 1.397 . S
C727 C728 1.334 . S
C728 H699 0.950 . S
C728 C727 1.334 . S
C728 C729 1.287 . S
C729 C728 1.287 . S
C729 C730 1.524 . S
C729 H732 0.999 . S
C730 H700 0.950 . S
C730 C729 1.524 . S
C730 C731 1.415 . S
C731 H701 0.950 . S
C731 C726 1.363 . S
C731 C730 1.415 . S
H732 C729 0.999 . S
H733 C714 0.913 . S
H734 C752 0.951 . S
H735 C754 0.951 . S
H736 C756 0.950 . S
H737 C757 0.950 . S
H738 C759 0.950 . S
H739 C762 0.950 . S
H740 C763 0.950 . S
H741 C765 0.950 . S
H742 C766 0.950 . S
H743 C767 0.951 . S
H744 C769 0.951 . S
H745 C771 0.950 . S
H746 C772 0.950 . S
H747 C774 0.950 . S
H748 C777 0.950 . S
H749 C778 0.950 . S
H750 C780 0.950 . S
H751 C781 0.950 . S
C752 H734 0.951 . S
C752 C753 1.366 . S
C752 C754 1.388 . S
C753 C752 1.366 . S
C753 C757 1.385 . S
C754 H735 0.951 . S
C754 C752 1.388 . S
C754 C755 1.366 . S
C755 C754 1.366 . S
C755 C756 1.414 . S
C755 C758 1.499 . S
C756 H736 0.950 . S
C756 C755 1.414 . S
C756 C757 1.374 . S
C757 H737 0.950 . S
C757 C753 1.385 . S
C757 C756 1.374 . S
C758 C755 1.499 . S
C758 C759 1.373 . S
C758 C760 1.389 . S
C759 H738 0.950 . S
C759 C758 1.373 . S
C759 C775 1.377 . S
C760 C758 1.389 . S
C760 C761 1.524 . S
C760 C774 1.377 . S
C761 C760 1.524 . S
C761 C762 1.397 . S
C761 C766 1.363 . S
C762 H739 0.950 . S
C762 C761 1.397 . S
C762 C763 1.334 . S
C763 H740 0.950 . S
C763 C762 1.334 . S
C763 C764 1.287 . S
C764 C763 1.287 . S
C764 C765 1.524 . S
C764 H783 0.913 . S
C765 H741 0.950 . S
C765 C764 1.524 . S
C765 C766 1.415 . S
C766 H742 0.950 . S
C766 C761 1.363 . S
C766 C765 1.415 . S
C767 H743 0.951 . S
C767 C768 1.366 . S
C767 C769 1.388 . S
C768 C767 1.366 . S
C768 C772 1.385 . S
C769 H744 0.951 . S
C769 C767 1.388 . S
C769 C770 1.366 . S
C770 C769 1.366 . S
C770 C771 1.414 . S
C770 C773 1.499 . S
C771 H745 0.950 . S
C771 C770 1.414 . S
C771 C772 1.374 . S
C772 H746 0.950 . S
C772 C768 1.385 . S
C772 C771 1.374 . S
C773 C770 1.499 . S
C773 C774 1.373 . S
C773 C775 1.389 . S
C774 H747 0.950 . S
C774 C760 1.377 . S
C774 C773 1.373 . S
C775 C759 1.377 . S
C775 C773 1.389 . S
C775 C776 1.524 . S
C776 C775 1.524 . S
C776 C777 1.397 . S
C776 C781 1.363 . S
C777 H748 0.950 . S
C777 C776 1.397 . S
C777 C778 1.334 . S
C778 H749 0.950 . S
C778 C777 1.334 . S
C778 C779 1.287 . S
C779 C778 1.287 . S
C779 C780 1.524 . S
C779 H782 0.999 . S
C780 H750 0.950 . S
C780 C779 1.524 . S
C780 C781 1.415 . S
C781 H751 0.950 . S
C781 C776 1.363 . S
C781 C780 1.415 . S
H782 C779 0.999 . S
H783 C764 0.913 . S
H784 C802 0.951 . S
H785 C804 0.951 . S
H786 C806 0.950 . S
H787 C807 0.950 . S
H788 C809 0.950 . S
H789 C812 0.950 . S
H790 C813 0.950 . S
H791 C815 0.950 . S
H792 C816 0.950 . S
H793 C817 0.951 . S
H794 C819 0.951 . S
H795 C821 0.950 . S
H796 C822 0.950 . S
H797 C824 0.950 . S
H798 C827 0.950 . S
H799 C828 0.950 . S
H800 C830 0.950 . S
H801 C831 0.950 . S
C802 H784 0.951 . S
C802 C803 1.366 . S
C802 C804 1.388 . S
C803 C802 1.366 . S
C803 C807 1.385 . S
C804 H785 0.951 . S
C804 C802 1.388 . S
C804 C805 1.366 . S
C805 C804 1.366 . S
C805 C806 1.414 . S
C805 C808 1.499 . S
C806 H786 0.950 . S
C806 C805 1.414 . S
C806 C807 1.374 . S
C807 H787 0.950 . S
C807 C803 1.385 . S
C807 C806 1.374 . S
C808 C805 1.499 . S
C808 C809 1.373 . S
C808 C810 1.389 . S
C809 H788 0.950 . S
C809 C808 1.373 . S
C809 C825 1.377 . S
C810 C808 1.389 . S
C810 C811 1.524 . S
C810 C824 1.377 . S
C811 C810 1.524 . S
C811 C812 1.397 . S
C811 C816 1.363 . S
C812 H789 0.950 . S
C812 C811 1.397 . S
C812 C813 1.334 . S
C813 H790 0.950 . S
C813 C812 1.334 . S
C813 C814 1.287 . S
C814 C813 1.287 . S
C814 C815 1.524 . S
C814 H833 0.913 . S
C815 H791 0.950 . S
C815 C814 1.524 . S
C815 C816 1.415 . S
C816 H792 0.950 . S
C816 C811 1.363 . S
C816 C815 1.415 . S
C817 H793 0.951 . S
C817 C818 1.366 . S
C817 C819 1.388 . S
C818 C817 1.366 . S
C818 C822 1.385 . S
C819 H794 0.951 . S
C819 C817 1.388 . S
C819 C820 1.366 . S
C820 C819 1.366 . S
C820 C821 1.414 . S
C820 C823 1.499 . S
C821 H795 0.950 . S
C821 C820 1.414 . S
C821 C822 1.374 . S
C822 H796 0.950 . S
C822 C818 1.385 . S
C822 C821 1.374 . S
C823 C820 1.499 . S
C823 C824 1.373 . S
C823 C825 1.389 . S
C824 H797 0.950 . S
C824 C810 1.377 . S
C824 C823 1.373 . S
C825 C809 1.377 . S
C825 C823 1.389 . S
C825 C826 1.524 . S
C826 C825 1.524 . S
C826 C827 1.397 . S
C826 C831 1.363 . S
C827 H798 0.950 . S
C827 C826 1.397 . S
C827 C828 1.334 . S
C828 H799 0.950 . S
C828 C827 1.334 . S
C828 C829 1.287 . S
C829 C828 1.287 . S
C829 C830 1.524 . S
C829 H832 0.999 . S
C830 H800 0.950 . S
C830 C829 1.524 . S
C830 C831 1.415 . S
C831 H801 0.950 . S
C831 C826 1.363 . S
C831 C830 1.415 . S
H832 C829 0.999 . S
H833 C814 0.913 . S
H834 C852 0.951 . S
H835 C854 0.951 . S
H836 C856 0.950 . S
H837 C857 0.950 . S
H838 C859 0.950 . S
H839 C862 0.950 . S
H840 C863 0.950 . S
H841 C865 0.950 . S
H842 C866 0.950 . S
H843 C867 0.951 . S
H844 C869 0.951 . S
H845 C871 0.950 . S
H846 C872 0.950 . S
H847 C874 0.970 . S
H848 C877 0.950 . S
H849 C878 0.950 . S
H850 C880 0.950 . S
H851 C881 0.941 1_454 S
C852 H834 0.951 . S
C852 C853 1.366 . S
C852 C854 1.388 . S
C853 C852 1.366 . S
C853 C857 1.385 . S
C854 H835 0.951 . S
C854 C852 1.388 . S
C854 C855 1.366 . S
C855 C854 1.366 . S
C855 C856 1.414 . S
C855 C858 1.499 . S
C856 H836 0.950 . S
C856 C855 1.414 . S
C856 C857 1.374 . S
C857 H837 0.950 . S
C857 C853 1.385 . S
C857 C856 1.374 . S
C858 C855 1.499 . S
C858 C859 1.373 . S
C858 C860 1.389 . S
C859 H838 0.950 . S
C859 C858 1.373 . S
C859 C875 1.371 1_554 S
C860 C858 1.389 . S
C860 C861 1.524 . S
C860 C874 1.377 . S
C861 C860 1.524 . S
C861 C862 1.397 . S
C861 C866 1.363 . S
C862 H839 0.950 . S
C862 C861 1.397 . S
C862 C863 1.334 . S
C863 H840 0.950 . S
C863 C862 1.334 . S
C863 C864 1.287 . S
C864 C863 1.287 . S
C864 C865 1.524 . S
C864 H883 0.913 . S
C865 H841 0.950 . S
C865 C864 1.524 . S
C865 C866 1.415 . S
C866 H842 0.950 . S
C866 C861 1.363 . S
C866 C865 1.415 . S
C867 H843 0.951 . S
C867 C868 1.366 . S
C867 C869 1.388 . S
C868 C867 1.366 . S
C868 C872 1.385 . S
C869 H844 0.951 . S
C869 C867 1.388 . S
C869 C870 1.366 . S
C870 C869 1.366 . S
C870 C871 1.414 . S
C870 C873 1.499 . S
C871 H845 0.950 . S
C871 C870 1.414 . S
C871 C872 1.374 . S
C872 H846 0.950 . S
C872 C868 1.385 . S
C872 C871 1.374 . S
C873 C870 1.499 . S
C873 C874 1.373 1_556 S
C873 C875 1.392 . S
C874 H847 0.970 . S
C874 C860 1.377 . S
C874 C873 1.373 1_554 S
C875 C859 1.371 1_556 S
C875 C873 1.392 . S
C875 C876 1.530 . S
C876 C875 1.530 . S
C876 C877 1.396 1_455 S
C876 C881 1.361 1_455 S
C877 H848 0.950 . S
C877 C876 1.396 1_655 S
C877 C878 1.334 . S
C878 H849 0.950 . S
C878 C877 1.334 . S
C878 C879 1.287 . S
C879 C878 1.287 . S
C879 C880 1.524 . S
C879 H882 0.999 . S
C880 H850 0.950 . S
C880 C879 1.524 . S
C880 C881 1.415 . S
C881 H851 0.941 1_656 S
C881 C876 1.361 1_655 S
C881 C880 1.415 . S
H882 C879 0.999 . S
H883 C864 0.913 . S
H884 C902 0.951 . S
H885 C904 0.951 . S
H886 C906 0.950 . S
H887 C907 0.950 . S
H888 C909 0.950 . S
H889 C912 0.950 . S
H890 C913 0.950 . S
H891 C915 0.950 . S
H892 C916 0.950 . S
H893 C917 0.951 . S
H894 C919 0.951 . S
H895 C921 0.950 . S
H896 C922 0.950 . S
H897 C924 0.950 . S
H898 C927 0.950 . S
H899 C928 0.950 . S
H900 C930 0.950 . S
H901 C931 0.950 . S
C902 H884 0.951 . S
C902 C903 1.366 . S
C902 C904 1.388 . S
C903 C902 1.366 . S
C903 C907 1.385 . S
C904 H885 0.951 . S
C904 C902 1.388 . S
C904 C905 1.366 . S
C905 C904 1.366 . S
C905 C906 1.414 . S
C905 C908 1.499 . S
C906 H886 0.950 . S
C906 C905 1.414 . S
C906 C907 1.374 . S
C907 H887 0.950 . S
C907 C903 1.385 . S
C907 C906 1.374 . S
C908 C905 1.499 . S
C908 C909 1.373 . S
C908 C910 1.389 . S
C909 H888 0.950 . S
C909 C908 1.373 . S
C909 C925 1.377 . S
C910 C908 1.389 . S
C910 C911 1.524 . S
C910 C924 1.377 . S
C911 C910 1.524 . S
C911 C912 1.397 . S
C911 C916 1.363 . S
C912 H889 0.950 . S
C912 C911 1.397 . S
C912 C913 1.334 . S
C913 H890 0.950 . S
C913 C912 1.334 . S
C913 C914 1.287 . S
C914 C913 1.287 . S
C914 C915 1.524 . S
C914 H933 0.913 . S
C915 H891 0.950 . S
C915 C914 1.524 . S
C915 C916 1.415 . S
C916 H892 0.950 . S
C916 C911 1.363 . S
C916 C915 1.415 . S
C917 H893 0.951 . S
C917 C918 1.366 . S
C917 C919 1.388 . S
C918 C917 1.366 . S
C918 C922 1.385 . S
C919 H894 0.951 . S
C919 C917 1.388 . S
C919 C920 1.366 . S
C920 C919 1.366 . S
C920 C921 1.414 . S
C920 C923 1.499 . S
C921 H895 0.950 . S
C921 C920 1.414 . S
C921 C922 1.374 . S
C922 H896 0.950 . S
C922 C918 1.385 . S
C922 C921 1.374 . S
C923 C920 1.499 . S
C923 C924 1.373 . S
C923 C925 1.389 . S
C924 H897 0.950 . S
C924 C910 1.377 . S
C924 C923 1.373 . S
C925 C909 1.377 . S
C925 C923 1.389 . S
C925 C926 1.524 1_545 S
C926 C925 1.524 1_565 S
C926 C927 1.397 . S
C926 C931 1.363 . S
C927 H898 0.950 . S
C927 C926 1.397 . S
C927 C928 1.334 . S
C928 H899 0.950 . S
C928 C927 1.334 . S
C928 C929 1.287 . S
C929 C928 1.287 . S
C929 C930 1.524 . S
C929 H932 0.999 . S
C930 H900 0.950 . S
C930 C929 1.524 . S
C930 C931 1.415 . S
C931 H901 0.950 . S
C931 C926 1.363 . S
C931 C930 1.415 . S
H932 C929 0.999 . S
H933 C914 0.913 . S
H934 C952 0.951 . S
H935 C954 0.951 . S
H936 C956 0.950 . S
H937 C957 0.950 . S
H938 C959 0.950 . S
H939 C962 0.950 . S
H940 C963 0.950 . S
H941 C965 0.950 . S
H942 C966 0.950 . S
H943 C967 0.951 . S
H944 C969 0.951 . S
H945 C971 0.950 . S
H946 C972 0.950 . S
H947 C974 0.950 . S
H948 C977 0.950 . S
H949 C978 0.950 . S
H950 C980 0.950 . S
H951 C981 0.950 . S
C952 H934 0.951 . S
C952 C953 1.366 . S
C952 C954 1.388 . S
C953 C952 1.366 . S
C953 C957 1.385 . S
C954 H935 0.951 . S
C954 C952 1.388 . S
C954 C955 1.366 . S
C955 C954 1.366 . S
C955 C956 1.414 . S
C955 C958 1.499 . S
C956 H936 0.950 . S
C956 C955 1.414 . S
C956 C957 1.374 . S
C957 H937 0.950 . S
C957 C953 1.385 . S
C957 C956 1.374 . S
C958 C955 1.499 . S
C958 C959 1.373 . S
C958 C960 1.389 . S
C959 H938 0.950 . S
C959 C958 1.373 . S
C959 C975 1.377 . S
C960 C958 1.389 . S
C960 C961 1.524 . S
C960 C974 1.377 . S
C961 C960 1.524 . S
C961 C962 1.397 . S
C961 C966 1.363 . S
C962 H939 0.950 . S
C962 C961 1.397 . S
C962 C963 1.334 . S
C963 H940 0.950 . S
C963 C962 1.334 . S
C963 C964 1.287 . S
C964 C963 1.287 . S
C964 C965 1.524 . S
C964 H983 0.913 . S
C965 H941 0.950 . S
C965 C964 1.524 . S
C965 C966 1.415 . S
C966 H942 0.950 . S
C966 C961 1.363 . S
C966 C965 1.415 . S
C967 H943 0.951 . S
C967 C968 1.366 . S
C967 C969 1.388 . S
C968 C967 1.366 . S
C968 C972 1.385 . S
C969 H944 0.951 . S
C969 C967 1.388 . S
C969 C970 1.366 . S
C970 C969 1.366 . S
C970 C971 1.414 . S
C970 C973 1.499 . S
C971 H945 0.950 . S
C971 C970 1.414 . S
C971 C972 1.374 . S
C972 H946 0.950 . S
C972 C968 1.385 . S
C972 C971 1.374 . S
C973 C970 1.499 . S
C973 C974 1.373 . S
C973 C975 1.389 . S
C974 H947 0.950 . S
C974 C960 1.377 . S
C974 C973 1.373 . S
C975 C959 1.377 . S
C975 C973 1.389 . S
C975 C976 1.524 . S
C976 C975 1.524 . S
C976 C977 1.397 . S
C976 C981 1.363 . S
C977 H948 0.950 . S
C977 C976 1.397 . S
C977 C978 1.334 . S
C978 H949 0.950 . S
C978 C977 1.334 . S
C978 C979 1.287 . S
C979 C978 1.287 . S
C979 C980 1.524 . S
C979 H982 0.999 . S
C980 H950 0.950 . S
C980 C979 1.524 . S
C980 C981 1.415 . S
C981 H951 0.950 . S
C981 C976 1.363 . S
C981 C980 1.415 . S
H982 C979 0.999 . S
H983 C964 0.913 . S
H984 C1002 0.951 . S
H985 C1004 0.951 . S
H986 C1006 0.950 . S
H987 C1007 0.950 . S
H988 C1009 0.950 . S
H989 C1012 0.950 1_545 S
H990 C1013 0.950 . S
H991 C1015 0.950 . S
H992 C1016 0.950 . S
H993 C1017 0.951 . S
H994 C1019 0.951 . S
H995 C1021 0.950 . S
H996 C1022 0.950 . S
H997 C1024 0.950 1_565 S
H998 C1027 0.950 . S
H999 C1028 0.950 . S
H1000 C1030 0.950 . S
H1001 C1031 0.950 . S
C1002 H984 0.951 . S
C1002 C1003 1.366 . S
C1002 C1004 1.388 . S
C1003 C1002 1.366 . S
C1003 C1007 1.385 . S
C1004 H985 0.951 . S
C1004 C1002 1.388 . S
C1004 C1005 1.366 . S
C1005 C1004 1.366 . S
C1005 C1006 1.414 . S
C1005 C1008 1.499 . S
C1006 H986 0.950 . S
C1006 C1005 1.414 . S
C1006 C1007 1.374 . S
C1007 H987 0.950 . S
C1007 C1003 1.385 . S
C1007 C1006 1.374 . S
C1008 C1005 1.499 . S
C1008 C1009 1.373 . S
C1008 C1010 1.389 . S
C1009 H988 0.950 . S
C1009 C1008 1.373 . S
C1009 C1025 1.377 . S
C1010 C1008 1.389 . S
C1010 C1011 1.524 1_545 S
C1010 C1024 1.377 . S
C1011 C1010 1.524 1_565 S
C1011 C1012 1.397 . S
C1011 C1016 1.363 . S
C1012 H989 0.950 1_565 S
C1012 C1011 1.397 . S
C1012 C1013 1.334 . S
C1013 H990 0.950 . S
C1013 C1012 1.334 . S
C1013 C1014 1.287 . S
C1014 C1013 1.287 . S
C1014 C1015 1.524 . S
C1014 H1033 0.913 . S
C1015 H991 0.950 . S
C1015 C1014 1.524 . S
C1015 C1016 1.415 . S
C1016 H992 0.950 . S
C1016 C1011 1.363 . S
C1016 C1015 1.415 . S
C1017 H993 0.951 . S
C1017 C1018 1.366 . S
C1017 C1019 1.388 . S
C1018 C1017 1.366 . S
C1018 C1022 1.385 . S
C1019 H994 0.951 . S
C1019 C1017 1.388 . S
C1019 C1020 1.366 . S
C1020 C1019 1.366 . S
C1020 C1021 1.414 . S
C1020 C1023 1.499 . S
C1021 H995 0.950 . S
C1021 C1020 1.414 . S
C1021 C1022 1.374 . S
C1022 H996 0.950 . S
C1022 C1018 1.385 . S
C1022 C1021 1.374 . S
C1023 C1020 1.499 . S
C1023 C1024 1.373 . S
C1023 C1025 1.389 . S
C1024 H997 0.950 1_545 S
C1024 C1010 1.377 . S
C1024 C1023 1.373 . S
C1025 C1009 1.377 . S
C1025 C1023 1.389 . S
C1025 C1026 1.524 . S
C1026 C1025 1.524 . S
C1026 C1027 1.397 . S
C1026 C1031 1.363 . S
C1027 H998 0.950 . S
C1027 C1026 1.397 . S
C1027 C1028 1.334 . S
C1028 H999 0.950 . S
C1028 C1027 1.334 . S
C1028 C1029 1.287 . S
C1029 C1028 1.287 . S
C1029 C1030 1.524 . S
C1029 H1032 0.999 . S
C1030 H1000 0.950 . S
C1030 C1029 1.524 . S
C1030 C1031 1.415 . S
C1031 H1001 0.950 . S
C1031 C1026 1.363 . S
C1031 C1030 1.415 . S
H1032 C1029 0.999 . S
H1033 C1014 0.913 . S
H1034 C1052 0.951 . S
H1035 C1054 0.951 . S
H1036 C1056 0.950 . S
H1037 C1057 0.950 . S
H1038 C1059 0.950 . S
H1039 C1062 0.950 . S
H1040 C1063 0.950 . S
H1041 C1065 0.950 . S
H1042 C1066 0.950 . S
H1043 C1067 0.951 . S
H1044 C1069 0.951 . S
H1045 C1071 0.950 . S
H1046 C1072 0.950 . S
H1047 C1074 0.950 . S
H1048 C1077 0.950 . S
H1049 C1078 0.950 . S
H1050 C1080 0.950 . S
H1051 C1081 0.958 . S
C1052 H1034 0.951 . S
C1052 C1053 1.366 . S
C1052 C1054 1.388 . S
C1053 C1052 1.366 . S
C1053 C1057 1.385 . S
C1054 H1035 0.951 . S
C1054 C1052 1.388 . S
C1054 C1055 1.366 . S
C1055 C1054 1.366 . S
C1055 C1056 1.414 . S
C1055 C1058 1.499 . S
C1056 H1036 0.950 . S
C1056 C1055 1.414 . S
C1056 C1057 1.374 . S
C1057 H1037 0.950 . S
C1057 C1053 1.385 . S
C1057 C1056 1.374 . S
C1058 C1055 1.499 . S
C1058 C1059 1.373 . S
C1058 C1060 1.389 . S
C1059 H1038 0.950 . S
C1059 C1058 1.373 . S
C1059 C1075 1.377 . S
C1060 C1058 1.389 . S
C1060 C1061 1.524 . S
C1060 C1074 1.377 1_556 S
C1061 C1060 1.524 . S
C1061 C1062 1.397 . S
C1061 C1066 1.363 . S
C1062 H1039 0.950 . S
C1062 C1061 1.397 . S
C1062 C1063 1.334 . S
C1063 H1040 0.950 . S
C1063 C1062 1.334 . S
C1063 C1064 1.287 . S
C1064 C1063 1.287 . S
C1064 C1065 1.524 . S
C1064 H1083 0.913 . S
C1065 H1041 0.950 . S
C1065 C1064 1.524 . S
C1065 C1066 1.415 . S
C1066 H1042 0.950 . S
C1066 C1061 1.363 . S
C1066 C1065 1.415 . S
C1067 H1043 0.951 . S
C1067 C1068 1.366 . S
C1067 C1069 1.388 . S
C1068 C1067 1.366 . S
C1068 C1072 1.385 . S
C1069 H1044 0.951 . S
C1069 C1067 1.388 . S
C1069 C1070 1.366 . S
C1070 C1069 1.366 . S
C1070 C1071 1.414 . S
C1070 C1073 1.499 . S
C1071 H1045 0.950 . S
C1071 C1070 1.414 . S
C1071 C1072 1.374 . S
C1072 H1046 0.950 . S
C1072 C1068 1.385 . S
C1072 C1071 1.374 . S
C1073 C1070 1.499 . S
C1073 C1074 1.373 . S
C1073 C1075 1.389 1_554 S
C1074 H1047 0.950 . S
C1074 C1060 1.377 1_554 S
C1074 C1073 1.373 . S
C1075 C1059 1.377 . S
C1075 C1073 1.389 1_556 S
C1075 C1076 1.524 1_556 S
C1076 C1075 1.524 1_554 S
C1076 C1077 1.397 . S
C1076 C1081 1.361 1_554 S
C1077 H1048 0.950 . S
C1077 C1076 1.397 . S
C1077 C1078 1.334 . S
C1078 H1049 0.950 . S
C1078 C1077 1.334 . S
C1078 C1079 1.287 . S
C1079 C1078 1.287 . S
C1079 C1080 1.524 . S
C1079 H1082 0.999 . S
C1080 H1050 0.950 . S
C1080 C1079 1.524 . S
C1080 C1081 1.409 1_554 S
C1081 H1051 0.958 . S
C1081 C1076 1.361 1_556 S
C1081 C1080 1.409 1_556 S
H1082 C1079 0.999 . S
H1083 C1064 0.913 . S
H1084 C1102 0.951 1_655 S
H1085 C1104 0.951 1_655 S
H1086 C1106 0.950 . S
H1087 C1107 0.950 . S
H1088 C1109 0.950 . S
H1089 C1112 0.950 . S
H1090 C1113 0.950 . S
H1091 C1115 0.950 . S
H1092 C1116 0.950 . S
H1093 C1117 0.951 . S
H1094 C1119 0.951 . S
H1095 C1121 0.950 . S
H1096 C1122 0.950 . S
H1097 C1124 0.950 . S
H1098 C1127 0.950 . S
H1099 C1128 0.950 . S
H1100 C1130 0.950 . S
H1101 C1131 0.950 . S
C1102 H1084 0.951 1_455 S
C1102 C1103 1.366 . S
C1102 C1104 1.388 . S
C1103 C1102 1.366 . S
C1103 C1107 1.385 . S
C1104 H1085 0.951 1_455 S
C1104 C1102 1.388 . S
C1104 C1105 1.366 . S
C1105 C1104 1.366 . S
C1105 C1106 1.414 . S
C1105 C1108 1.499 . S
C1106 H1086 0.950 . S
C1106 C1105 1.414 . S
C1106 C1107 1.374 . S
C1107 H1087 0.950 . S
C1107 C1103 1.385 . S
C1107 C1106 1.374 . S
C1108 C1105 1.499 . S
C1108 C1109 1.373 . S
C1108 C1110 1.377 1_455 S
C1109 H1088 0.950 . S
C1109 C1108 1.373 . S
C1109 C1125 1.377 . S
C1110 C1108 1.377 1_655 S
C1110 C1111 1.537 . S
C1110 C1124 1.377 . S
C1111 C1110 1.537 . S
C1111 C1112 1.397 . S
C1111 C1116 1.363 . S
C1112 H1089 0.950 . S
C1112 C1111 1.397 . S
C1112 C1113 1.334 . S
C1113 H1090 0.950 . S
C1113 C1112 1.334 . S
C1113 C1114 1.287 . S
C1114 C1113 1.287 . S
C1114 C1115 1.524 . S
C1114 H1133 0.913 . S
C1115 H1091 0.950 . S
C1115 C1114 1.524 . S
C1115 C1116 1.415 . S
C1116 H1092 0.950 . S
C1116 C1111 1.363 . S
C1116 C1115 1.415 . S
C1117 H1093 0.951 . S
C1117 C1118 1.366 . S
C1117 C1119 1.388 . S
C1118 C1117 1.366 . S
C1118 C1122 1.385 1_455 S
C1119 H1094 0.951 . S
C1119 C1117 1.388 . S
C1119 C1120 1.366 . S
C1120 C1119 1.366 . S
C1120 C1121 1.414 1_455 S
C1120 C1123 1.499 . S
C1121 H1095 0.950 . S
C1121 C1120 1.414 1_655 S
C1121 C1122 1.374 . S
C1122 H1096 0.950 . S
C1122 C1118 1.385 1_655 S
C1122 C1121 1.374 . S
C1123 C1120 1.499 . S
C1123 C1124 1.373 1_455 S
C1123 C1125 1.389 . S
C1124 H1097 0.950 . S
C1124 C1110 1.377 . S
C1124 C1123 1.373 1_655 S
C1125 C1109 1.377 . S
C1125 C1123 1.389 . S
C1125 C1126 1.524 . S
C1126 C1125 1.524 . S
C1126 C1127 1.397 . S
C1126 C1131 1.363 . S
C1127 H1098 0.950 . S
C1127 C1126 1.397 . S
C1127 C1128 1.334 . S
C1128 H1099 0.950 . S
C1128 C1127 1.334 . S
C1128 C1129 1.287 . S
C1129 C1128 1.287 . S
C1129 C1130 1.524 . S
C1129 H1132 0.999 . S
C1130 H1100 0.950 . S
C1130 C1129 1.524 . S
C1130 C1131 1.415 . S
C1131 H1101 0.950 . S
C1131 C1126 1.363 . S
C1131 C1130 1.415 . S
H1132 C1129 0.999 . S
H1133 C1114 0.913 . S
C253 C7 0.643 . S
C268 C226 0.675 . S
C303 C51 1.993 . S
C318 C188 1.926 . S
C353 C87 1.276 . S
C368 C207 1.221 . S
C403 C16 0.184 . S
C418 C221 0.210 . S
C468 C183 1.847 . S
C453 C42 1.874 . S
C518 C202 1.089 . S
C503 C96 1.101 . S
C553 C47 1.333 . S
C568 C150 1.262 . S
C603 C91 3.031 . S
C618 C164 2.999 1_655 S
C653 C2 1.884 . S
C668 C126 1.866 1_565 S
C718 C145 1.077 . S
C703 C56 1.088 . S
C768 C169 3.024 . S
C753 C82 3.084 . S
C803 C11 1.999 . S
C818 C131 1.938 . S
C868 C160 1.708 . S
C853 C19 1.696 . S
C903 C50 1.486 . S
C918 C122 1.538 . S
C953 C99 1.567 . S
C968 C141 1.576 . S
C1018 C198 1.571 . S
C1003 C59 1.578 . S
C1068 C217 1.405 . S
C1053 C90 1.382 . S
C1103 C10 1.456 . S
C1118 C179 1.495 . S
