# Generated by pormake.
# Topology zzz, (3,6)-cn, num edge types: 1
# Building blocks:
#     Node 0, Type 0, BuildingBlock: BETDAH_clean_linker_0, # of connection points: 3
#     Node 1, Type 0, BuildingBlock: BETDAH_clean_linker_0, # of connection points: 3
#     Node 2, Type 0, BuildingBlock: BETDAH_clean_linker_0, # of connection points: 3
#     Node 3, Type 0, BuildingBlock: BETDAH_clean_linker_0, # of connection points: 3
#     Node 4, Type 0, BuildingBlock: BETDAH_clean_linker_0, # of connection points: 3
#     Node 5, Type 0, BuildingBlock: BETDAH_clean_linker_0, # of connection points: 3
#     Node 6, Type 0, BuildingBlock: BETDAH_clean_linker_0, # of connection points: 3
#     Node 7, Type 0, BuildingBlock: BETDAH_clean_linker_0, # of connection points: 3
#     Node 8, Type 1, BuildingBlock: PAMTUU_clean_sbu_0, # of connection points: 6
#     Node 9, Type 1, BuildingBlock: PAMTUU_clean_sbu_0, # of connection points: 6
#     Node 10, Type 1, BuildingBlock: PAMTUU_clean_sbu_0, # of connection points: 6
#     Node 11, Type 1, BuildingBlock: PAMTUU_clean_sbu_0, # of connection points: 6
#     Edge 12, Type (0, 1), BuildingBlock: UVAHIK_clean_linker_0, # of connection points: 2
#     Edge 13, Type (0, 1), BuildingBlock: UVAHIK_clean_linker_0, # of connection points: 2
#     Edge 14, Type (0, 1), BuildingBlock: UVAHIK_clean_linker_0, # of connection points: 2
#     Edge 15, Type (0, 1), BuildingBlock: UVAHIK_clean_linker_0, # of connection points: 2
#     Edge 16, Type (0, 1), BuildingBlock: UVAHIK_clean_linker_0, # of connection points: 2
#     Edge 17, Type (0, 1), BuildingBlock: UVAHIK_clean_linker_0, # of connection points: 2
#     Edge 18, Type (0, 1), BuildingBlock: UVAHIK_clean_linker_0, # of connection points: 2
#     Edge 19, Type (0, 1), BuildingBlock: UVAHIK_clean_linker_0, # of connection points: 2
#     Edge 20, Type (0, 1), BuildingBlock: UVAHIK_clean_linker_0, # of connection points: 2
#     Edge 21, Type (0, 1), BuildingBlock: UVAHIK_clean_linker_0, # of connection points: 2
#     Edge 22, Type (0, 1), BuildingBlock: UVAHIK_clean_linker_0, # of connection points: 2
#     Edge 23, Type (0, 1), BuildingBlock: UVAHIK_clean_linker_0, # of connection points: 2
#     Edge 24, Type (0, 1), BuildingBlock: UVAHIK_clean_linker_0, # of connection points: 2
#     Edge 25, Type (0, 1), BuildingBlock: UVAHIK_clean_linker_0, # of connection points: 2
#     Edge 26, Type (0, 1), BuildingBlock: UVAHIK_clean_linker_0, # of connection points: 2
#     Edge 27, Type (0, 1), BuildingBlock: UVAHIK_clean_linker_0, # of connection points: 2
#     Edge 28, Type (0, 1), BuildingBlock: UVAHIK_clean_linker_0, # of connection points: 2
#     Edge 29, Type (0, 1), BuildingBlock: UVAHIK_clean_linker_0, # of connection points: 2
#     Edge 30, Type (0, 1), BuildingBlock: UVAHIK_clean_linker_0, # of connection points: 2
#     Edge 31, Type (0, 1), BuildingBlock: UVAHIK_clean_linker_0, # of connection points: 2
#     Edge 32, Type (0, 1), BuildingBlock: UVAHIK_clean_linker_0, # of connection points: 2
#     Edge 33, Type (0, 1), BuildingBlock: UVAHIK_clean_linker_0, # of connection points: 2
#     Edge 34, Type (0, 1), BuildingBlock: UVAHIK_clean_linker_0, # of connection points: 2
#     Edge 35, Type (0, 1), BuildingBlock: UVAHIK_clean_linker_0, # of connection points: 2
# Relax obj value: 0.186
# Max RMSD: 0.204
# Mean RMSD: 0.121
data_MOF--net-zzz--node1-PAMTUU_clean_sbu_0--node2-BETDAH_clean_linker_0--edge1-UVAHIK_clean_linker_0
_symmetry_space_group_name_H-M    P1
_symmetry_Int_Tables_number       1
_symmetry_cell_setting            triclinic
loop_
_symmetry_equiv_pos_as_xyz
'x, y, z'
_cell_length_a     66.595007
_cell_length_b     69.798225
_cell_length_c     19.745701
_cell_angle_alpha  99.035442
_cell_angle_beta   89.896074
_cell_angle_gamma 91.524319
loop_
_atom_site_label
_atom_site_type_symbol
_atom_site_fract_x
_atom_site_fract_y
_atom_site_fract_z
_atom_type_partial_charge
H0 H 0.8077 0.5287 0.37642 0.0
H1 H 0.74872 0.51516 0.29321 0.0
H2 H 0.76798 0.49097 0.46997 0.0
C3 C 0.79297 0.52192 0.38008 0.0
C4 C 0.78961 0.51012 0.43039 0.0
C5 C 0.77839 0.52356 0.33028 0.0
C6 C 0.75973 0.514 0.33256 0.0
C7 C 0.75563 0.50246 0.38359 0.0
C8 C 0.77081 0.5003 0.4318 0.0
N9 N 0.73671 0.49249 0.38589 0.0
C10 C 0.72096 0.49347 0.33974 0.0
H11 H 0.97567 0.79477 0.31337 0.0
H12 H 0.98607 0.73474 0.24046 0.0
H13 H 0.96443 0.75249 0.44625 0.0
C14 C 0.97478 0.77976 0.32152 0.0
C15 C 0.9689 0.77543 0.38568 0.0
C16 C 0.98092 0.76522 0.26907 0.0
C17 C 0.98105 0.74591 0.28077 0.0
C18 C 0.97474 0.74124 0.3447 0.0
C19 C 0.96889 0.75608 0.39683 0.0
N20 N 0.9744 0.72193 0.35896 0.0
C21 C 0.97897 0.70583 0.31125 0.0
H22 H 0.73803 0.01408 0.33305 0.0
H23 H 0.79977 0.00578 0.27868 0.0
H24 H 0.77596 0.98441 0.45688 0.0
C25 C 0.75269 0.00906 0.34489 0.0
C26 C 0.7549 0.99965 0.40225 0.0
C27 C 0.76878 0.01143 0.30068 0.0
C28 C 0.78742 0.00387 0.31293 0.0
C29 C 0.79015 0.99393 0.36876 0.0
C30 C 0.77382 0.99188 0.41343 0.0
N31 N 0.80911 0.98591 0.38049 0.0
C32 C 0.82576 0.98675 0.33748 0.0
H33 H 0.55319 0.70178 0.1238 0.0
H34 H 0.53423 0.754 0.05579 0.0
H35 H 0.55253 0.75495 0.26607 0.0
C36 C 0.55091 0.71731 0.13417 0.0
C37 C 0.55415 0.72725 0.2005 0.0
C38 C 0.54359 0.72671 0.08202 0.0
C39 C 0.54002 0.74671 0.0959 0.0
C40 C 0.54366 0.75705 0.16236 0.0
C41 C 0.5502 0.74711 0.21469 0.0
N42 N 0.54042 0.77728 0.17921 0.0
C43 C 0.53989 0.79018 0.13219 0.0
H44 H 0.23526 0.50072 0.24112 0.0
H45 H 0.29766 0.50305 0.29527 0.0
H46 H 0.2796 0.48682 0.08348 0.0
C47 C 0.25082 0.49874 0.22582 0.0
C48 C 0.25542 0.49324 0.15632 0.0
C49 C 0.266 0.50244 0.2756 0.0
C50 C 0.28611 0.50024 0.25616 0.0
C51 C 0.29123 0.49431 0.18704 0.0
C52 C 0.27579 0.49119 0.13693 0.0
N53 N 0.31167 0.4913 0.16718 0.0
C54 C 0.32763 0.49239 0.21385 0.0
H55 H 0.06848 0.20161 0.21227 0.0
H56 H 0.078 0.25929 0.32207 0.0
H57 H 0.10279 0.2434 0.11928 0.0
C58 C 0.07479 0.2162 0.21477 0.0
C59 C 0.08604 0.22089 0.15962 0.0
C60 C 0.07168 0.22999 0.27314 0.0
C61 C 0.08018 0.24874 0.27647 0.0
C62 C 0.09134 0.2537 0.22048 0.0
C63 C 0.09422 0.23967 0.1623 0.0
N64 N 0.09985 0.27258 0.22079 0.0
C65 C 0.09498 0.28863 0.26836 0.0
H66 H 0.30843 0.99811 0.23949 0.0
H67 H 0.24547 0.9949 0.28225 0.0
H68 H 0.26567 0.00759 0.08559 0.0
C69 C 0.29301 0.99928 0.22322 0.0
C70 C 0.28911 0.00324 0.15716 0.0
C71 C 0.27729 0.99603 0.26762 0.0
C72 C 0.25739 0.99729 0.24694 0.0
C73 C 0.25295 0.0018 0.18177 0.0
C74 C 0.26893 0.00438 0.13629 0.0
N75 N 0.23265 0.0039 0.16154 0.0
C76 C 0.2162 0.00318 0.20553 0.0
H77 H 0.52019 0.29177 0.43383 0.0
H78 H 0.50801 0.24032 0.52229 0.0
H79 H 0.49508 0.24101 0.30829 0.0
C80 C 0.5153 0.27663 0.42761 0.0
C81 C 0.50806 0.26749 0.36398 0.0
C82 C 0.51515 0.26704 0.48467 0.0
C83 C 0.50829 0.24764 0.47782 0.0
C84 C 0.50135 0.23803 0.41342 0.0
C85 C 0.50086 0.24821 0.35727 0.0
N86 N 0.49433 0.21839 0.40333 0.0
C87 C 0.49726 0.20541 0.44899 0.0
Tb88 Tb 1.00703 0.00815 0.72669 0.0
Tb89 Tb 0.0374 0.99031 0.83086 0.0
C90 C 0.99181 0.99817 0.86771 0.0
C91 C 0.98708 0.04499 0.63425 0.0
C92 C 0.99457 0.08249 0.60152 0.0
C93 C 0.99215 0.06637 0.54929 0.0
C94 C 0.98847 0.04779 0.56556 0.0
C95 C 0.98881 0.0612 0.68634 0.0
C96 C 0.99255 0.07972 0.67015 0.0
C97 C 0.9854 0.02513 0.65134 0.0
O98 O 0.01798 0.03209 0.80244 0.0
O99 O 0.04768 0.02023 0.83511 0.0
O100 O 0.05198 0.98716 0.73058 0.0
O101 O 0.03735 0.01202 0.68809 0.0
O102 O 0.04711 0.98773 0.93045 0.0
O103 O 0.06106 0.97178 0.84157 0.0
O104 O 0.01656 0.96704 0.79062 0.0
O105 O 1.00668 0.977 0.69054 0.0
O106 O 0.98769 0.99735 0.80224 0.0
O107 O 1.0105 0.99956 0.88999 0.0
C108 C 0.03615 0.03481 0.82857 0.0
O109 O 0.99963 0.01343 0.62768 0.0
O110 O 0.98118 0.0238 0.71495 0.0
C111 C 0.05188 0.99965 0.68726 0.0
C112 C 0.05573 0.95535 0.93402 0.0
C113 C 0.05036 0.9176 0.96554 0.0
C114 C 0.06886 0.92769 0.97871 0.0
C115 C 0.07158 0.94641 0.96237 0.0
C116 C 0.03702 0.94561 0.9237 0.0
C117 C 0.0344 0.92685 0.9388 0.0
C118 C 0.05913 0.97373 0.90781 0.0
C119 C 1.0086 0.9634 0.72912 0.0
H120 H 0.9938 0.06801 0.49591 0.0
H121 H 0.98727 0.03552 0.52455 0.0
H122 H 0.98771 0.05957 0.73986 0.0
H123 H 0.99404 0.09186 0.71151 0.0
H124 H 0.08138 0.92084 0.99935 0.0
H125 H 0.08617 0.95366 0.97011 0.0
H126 H 0.02457 0.95233 0.90222 0.0
H127 H 0.01991 0.9195 0.92915 0.0
Tb128 Tb 0.51293 0.98531 0.71197 0.0
Tb129 Tb 0.53271 0.00869 0.85193 0.0
C130 C 0.52817 0.96393 0.82857 0.0
C131 C 0.47128 0.96677 0.60406 0.0
C132 C 0.42899 0.96359 0.60416 0.0
C133 C 0.44048 0.94851 0.56894 0.0
C134 C 0.46152 0.95005 0.56935 0.0
C135 C 0.4598 0.98179 0.63873 0.0
C136 C 0.43899 0.98012 0.63964 0.0
C137 C 0.49327 0.96817 0.61039 0.0
O138 O 0.48808 0.99848 0.77377 0.0
O139 O 0.50196 0.00181 0.88124 0.0
O140 O 0.51685 0.02949 0.80207 0.0
O141 O 0.5216 0.01428 0.69312 0.0
O142 O 0.54172 0.0108 0.95492 0.0
O143 O 0.54652 0.03471 0.89892 0.0
O144 O 0.5569 0.00577 0.77624 0.0
O145 O 0.545 0.98065 0.69533 0.0
O146 O 0.51313 0.96574 0.78755 0.0
O147 O 0.54076 0.97853 0.84742 0.0
C148 C 0.48612 0.00066 0.84086 0.0
O149 O 0.50111 0.98558 0.61361 0.0
O150 O 0.50075 0.95925 0.6573 0.0
C151 C 0.5182 0.03012 0.73627 0.0
C152 C 0.57316 0.02732 0.96468 0.0
C153 C 0.61541 0.02942 0.96445 0.0
C154 C 0.60433 0.04556 0.99332 0.0
C155 C 0.58332 0.04451 0.99333 0.0
C156 C 0.58422 0.01111 0.93682 0.0
C157 C 0.60513 0.01213 0.93692 0.0
C158 C 0.55144 0.02719 0.95266 0.0
C159 C 0.55978 0.99223 0.72288 0.0
H160 H 0.43325 0.93567 0.54039 0.0
H161 H 0.47015 0.93821 0.54291 0.0
H162 H 0.46692 0.99487 0.66583 0.0
H163 H 0.43075 0.99184 0.66854 0.0
H164 H 0.6119 0.059 0.01562 0.0
H165 H 0.57502 0.05728 0.01369 0.0
H166 H 0.5767 0.99786 0.91252 0.0
H167 H 0.61324 0.99955 0.91352 0.0
Tb168 Tb 0.50859 0.49437 0.84308 0.0
Tb169 Tb 0.53967 0.50144 0.71876 0.0
C170 C 0.4931 0.49828 0.69413 0.0
C171 C 0.48825 0.46871 0.97609 0.0
C172 C 0.49093 0.43487 0.03716 0.0
C173 C 0.47301 0.44529 0.04089 0.0
C174 C 0.47167 0.46201 0.01029 0.0
C175 C 0.50629 0.4587 0.97381 0.0
C176 C 0.5076 0.44194 0.00373 0.0
C177 C 0.48621 0.48463 0.93605 0.0
O178 O 0.52508 0.46796 0.8149 0.0
O179 O 0.53284 0.47033 0.70346 0.0
O180 O 0.5583 0.49345 0.80036 0.0
O181 O 0.53759 0.50321 0.8913 0.0
O182 O 0.54716 0.49859 0.61421 0.0
O183 O 0.56724 0.51343 0.69198 0.0
O184 O 0.53352 0.5298 0.77594 0.0
O185 O 0.50402 0.52451 0.83258 0.0
O186 O 0.49116 0.48934 0.74775 0.0
O187 O 0.50998 0.50729 0.68208 0.0
C188 C 0.52997 0.45993 0.75281 0.0
O189 O 0.49976 0.49861 0.94675 0.0
O190 O 0.48323 0.47892 0.87085 0.0
C191 C 0.55546 0.49847 0.86664 0.0
C192 C 0.56386 0.52733 0.59252 0.0
C193 C 0.56631 0.5628 0.54042 0.0
C194 C 0.58366 0.55209 0.54685 0.0
C195 C 0.58243 0.53453 0.57265 0.0
C196 C 0.54648 0.53784 0.58572 0.0
C197 C 0.54767 0.55532 0.5596 0.0
C198 C 0.56297 0.51005 0.62679 0.0
C199 C 0.51724 0.53612 0.80887 0.0
H200 H 0.45997 0.44045 0.06703 0.0
H201 H 0.45757 0.46946 0.01202 0.0
H202 H 0.51921 0.46354 0.94707 0.0
H203 H 0.52154 0.4342 0.99867 0.0
H204 H 0.5983 0.55751 0.53363 0.0
H205 H 0.59605 0.52681 0.57868 0.0
H206 H 0.532 0.53271 0.60171 0.0
H207 H 0.53395 0.56295 0.55448 0.0
Tb208 Tb 0.03366 0.51018 0.71479 0.0
Tb209 Tb 0.01615 0.48463 0.82644 0.0
C210 C 0.01653 0.52966 0.85299 0.0
C211 C 0.07133 0.53594 0.62936 0.0
C212 C 0.11236 0.54672 0.63237 0.0
C213 C 0.09803 0.55864 0.60894 0.0
C214 C 0.07762 0.55332 0.6078 0.0
C215 C 0.0856 0.52391 0.65186 0.0
C216 C 0.10591 0.52922 0.65326 0.0
C217 C 0.04994 0.53163 0.63797 0.0
O218 O 0.0577 0.50895 0.78996 0.0
O219 O 0.04847 0.48113 0.83201 0.0
O220 O 0.02152 0.4638 0.73491 0.0
O221 O 0.04478 0.48124 0.68197 0.0
O222 O 0.01408 0.47905 0.92788 0.0
O223 O 0.99555 0.46308 0.84781 0.0
O224 O 0.9906 0.49723 0.78196 0.0
O225 O 1.00358 0.50044 0.67705 0.0
O226 O 0.01568 0.52922 0.78665 0.0
O227 O 0.02128 0.51417 0.87838 0.0
C228 C 0.06208 0.49449 0.82269 0.0
O229 O 0.04377 0.5138 0.61643 0.0
O230 O 0.04331 0.53794 0.69917 0.0
C231 C 0.03565 0.46477 0.68904 0.0
C232 C 0.97952 0.47625 0.94802 0.0
C233 C 0.94182 0.49101 0.98897 0.0
C234 C 0.94603 0.4715 0.99204 0.0
C235 C 0.96478 0.46409 0.97095 0.0
C236 C 0.97548 0.49587 0.94766 0.0
C237 C 0.95684 0.50317 0.9678 0.0
C238 C 0.99776 0.46843 0.91364 0.0
C239 C 0.988 0.4987 0.71706 0.0
H240 H 0.10258 0.57222 0.5927 0.0
H241 H 0.06673 0.56295 0.59169 0.0
H242 H 0.08097 0.51056 0.66975 0.0
H243 H 0.11659 0.51953 0.67026 0.0
H244 H 0.9346 0.46188 0.00832 0.0
H245 H 0.96751 0.44883 0.97029 0.0
H246 H 0.98649 0.50548 0.9292 0.0
H247 H 0.95408 0.51832 0.96603 0.0
C248 C 0.19869 0.98887 0.29751 0.0
C249 C 0.19944 0.00258 0.25264 0.0
C250 C 0.1827 0.98846 0.34376 0.0
C251 C 0.14157 0.0188 0.42865 0.0
H252 H 0.1202 0.96955 0.46806 0.0
C253 C 0.06919 0.01336 0.59069 0.0
C254 C 0.06865 0.9999 0.63687 0.0
C255 C 0.085 0.01366 0.54367 0.0
C256 C 0.1261 0.98347 0.45838 0.0
H257 H 0.18421 0.02657 0.22027 0.0
H258 H 0.15611 0.02581 0.30016 0.0
H259 H 0.14775 0.97009 0.3869 0.0
H260 H 0.08458 0.97618 0.66929 0.0
H261 H 0.11211 0.9768 0.588 0.0
H262 H 0.1199 0.03218 0.50011 0.0
C263 C 0.16793 0.01549 0.30073 0.0
C264 C 0.14197 0.98378 0.41164 0.0
C265 C 0.18395 0.01587 0.25453 0.0
C266 C 0.08438 0.98673 0.63452 0.0
C267 C 0.10017 0.98701 0.58744 0.0
C268 C 0.12568 0.01849 0.47535 0.0
C269 C 0.16705 0.00179 0.34623 0.0
C270 C 0.14999 0.00145 0.39602 0.0
C271 C 0.10075 0.00049 0.54126 0.0
C272 C 0.11769 0.00082 0.49104 0.0
H273 H 0.21053 0.9785 0.29712 0.0
H274 H 0.18279 0.97788 0.37839 0.0
H275 H 0.14748 0.03272 0.41909 0.0
H276 H 0.05736 0.02371 0.59068 0.0
H277 H 0.08471 0.02409 0.50851 0.0
C278 C 0.483 0.18011 0.51037 0.0
C279 C 0.49983 0.19006 0.48924 0.0
C280 C 0.48538 0.16383 0.54268 0.0
C281 C 0.52164 0.12552 0.55704 0.0
H282 H 0.4865 0.11404 0.70306 0.0
C283 C 0.51752 0.04975 0.64007 0.0
C284 C 0.51607 0.04885 0.71056 0.0
C285 C 0.51579 0.06743 0.61584 0.0
C286 C 0.49656 0.11708 0.6627 0.0
H287 H 0.53227 0.19139 0.48578 0.0
H288 H 0.53659 0.16308 0.54321 0.0
H289 H 0.4835 0.14464 0.6592 0.0
H290 H 0.5116 0.06595 0.81084 0.0
H291 H 0.50874 0.09678 0.76861 0.0
H292 H 0.53484 0.09808 0.56091 0.0
C293 C 0.52152 0.16761 0.53436 0.0
C294 C 0.4947 0.13456 0.63706 0.0
C295 C 0.5191 0.1839 0.50209 0.0
C296 C 0.51275 0.06607 0.7562 0.0
C297 C 0.511 0.08376 0.73193 0.0
C298 C 0.52347 0.10804 0.58257 0.0
C299 C 0.50467 0.15718 0.55413 0.0
C300 C 0.50716 0.13897 0.58366 0.0
C301 C 0.51257 0.08469 0.66145 0.0
C302 C 0.51088 0.10353 0.63545 0.0
H303 H 0.46798 0.18457 0.50016 0.0
H304 H 0.47207 0.15605 0.55638 0.0
H305 H 0.53134 0.12829 0.51537 0.0
H306 H 0.51999 0.03678 0.60338 0.0
H307 H 0.51677 0.06753 0.56115 0.0
C308 C 0.36239 0.50259 0.251 0.0
C309 C 0.34408 0.4933 0.26276 0.0
C310 C 0.37831 0.50335 0.29799 0.0
C311 C 0.39728 0.47942 0.44067 0.0
H312 H 0.43104 0.5259 0.4809 0.0
C313 C 0.45746 0.48868 0.65709 0.0
C314 C 0.47585 0.49805 0.64558 0.0
C315 C 0.44135 0.48827 0.61107 0.0
C316 C 0.42195 0.51269 0.46978 0.0
H317 H 0.32781 0.47763 0.3325 0.0
H318 H 0.35547 0.479 0.41503 0.0
H319 H 0.40327 0.52487 0.40005 0.0
H320 H 0.49151 0.51439 0.57588 0.0
H321 H 0.46361 0.51349 0.4956 0.0
H322 H 0.41598 0.4672 0.51015 0.0
C323 C 0.35777 0.48552 0.36927 0.0
C324 C 0.40595 0.51211 0.42323 0.0
C325 C 0.34187 0.48481 0.32226 0.0
C326 C 0.47761 0.50707 0.58678 0.0
C327 C 0.4615 0.50665 0.54076 0.0
C328 C 0.41329 0.47999 0.48715 0.0
C329 C 0.37628 0.49479 0.35786 0.0
C330 C 0.39335 0.49546 0.40788 0.0
C331 C 0.4431 0.49722 0.55205 0.0
C332 C 0.42591 0.49664 0.50248 0.0
H333 H 0.36445 0.50921 0.20528 0.0
H334 H 0.39234 0.5104 0.28677 0.0
H335 H 0.38818 0.46621 0.42952 0.0
H336 H 0.45545 0.48162 0.70181 0.0
H337 H 0.4274 0.48111 0.62234 0.0
C338 C 0.10078 0.32322 0.31268 0.0
C339 C 0.08985 0.3059 0.31434 0.0
C340 C 0.09529 0.34028 0.35481 0.0
C341 C 0.05198 0.36269 0.45071 0.0
H342 H 0.09231 0.39935 0.53883 0.0
C343 C 0.03177 0.42892 0.65016 0.0
C344 C 0.04187 0.44662 0.64567 0.0
C345 C 0.03776 0.41173 0.61009 0.0
C346 C 0.08088 0.38935 0.51397 0.0
H347 H 0.06488 0.29235 0.36061 0.0
H348 H 0.05537 0.32208 0.43544 0.0
H349 H 0.10272 0.36916 0.46977 0.0
H350 H 0.06622 0.4601 0.59529 0.0
H351 H 0.07659 0.43008 0.5251 0.0
H352 H 0.03015 0.38286 0.49502 0.0
C353 C 0.06801 0.32267 0.40117 0.0
C354 C 0.08684 0.37204 0.47443 0.0
C355 C 0.07351 0.30564 0.35889 0.0
C356 C 0.0581 0.44673 0.60007 0.0
C357 C 0.06414 0.42951 0.56015 0.0
C358 C 0.04603 0.37996 0.49036 0.0
C359 C 0.07875 0.34024 0.39925 0.0
C360 C 0.07246 0.35851 0.44226 0.0
C361 C 0.05403 0.41182 0.56472 0.0
C362 C 0.06041 0.39349 0.52241 0.0
H363 H 0.11339 0.32364 0.2781 0.0
H364 H 0.10372 0.35357 0.35135 0.0
H365 H 0.04052 0.35277 0.42565 0.0
H366 H 0.01923 0.42827 0.68481 0.0
H367 H 0.02982 0.39831 0.6154 0.0
C368 C 0.85265 0.00562 0.28827 0.0
C369 C 0.84276 0.9878 0.29167 0.0
C370 C 0.86891 0.00669 0.24349 0.0
C371 C 0.89268 0.97994 0.0865 0.0
H372 H 0.93833 0.01437 0.14243 0.0
C373 C 0.95485 0.99547 0.89434 0.0
C374 C 0.97493 0.99715 0.91724 0.0
C375 C 0.93896 0.9943 0.94038 0.0
C376 C 0.92579 0.00455 0.126 0.0
H377 H 0.8419 0.95716 0.25142 0.0
H378 H 0.87037 0.95887 0.17358 0.0
H379 H 0.91059 0.01212 0.22191 0.0
H380 H 0.99385 0.99888 0.0074 0.0
H381 H 0.96619 0.99672 0.08748 0.0
H382 H 0.908 0.97213 0.99103 0.0
C383 C 0.86556 0.97212 0.20473 0.0
C384 C 0.90971 0.00343 0.17145 0.0
C385 C 0.84932 0.97107 0.24962 0.0
C386 C 0.97862 0.99767 0.98771 0.0
C387 C 0.9627 0.99654 0.03384 0.0
C388 C 0.90872 0.9811 0.041 0.0
C389 C 0.87562 0.98996 0.20087 0.0
C390 C 0.89288 0.99111 0.15243 0.0
C391 C 0.94261 0.99478 0.01088 0.0
C392 C 0.92554 0.99344 0.05994 0.0
H393 H 0.84774 0.01875 0.32 0.0
H394 H 0.87601 0.02073 0.24149 0.0
H395 H 0.87995 0.97043 0.06947 0.0
H396 H 0.95134 0.99507 0.8406 0.0
H397 H 0.92375 0.99326 0.92065 0.0
C398 C 0.52423 0.80832 0.04879 0.0
C399 C 0.54023 0.80587 0.09231 0.0
C400 C 0.52384 0.82471 0.01583 0.0
C401 C 0.54397 0.87513 0.03396 0.0
H402 H 0.52555 0.87273 0.84665 0.0
C403 C 0.54686 0.94272 0.89753 0.0
C404 C 0.53049 0.94538 0.85542 0.0
C405 C 0.54876 0.92532 0.92368 0.0
C406 C 0.53054 0.87371 0.89929 0.0
H407 H 0.56849 0.81805 0.13518 0.0
H408 H 0.56801 0.84656 0.07731 0.0
H409 H 0.52752 0.84292 0.89622 0.0
H410 H 0.50332 0.93169 0.80762 0.0
H411 H 0.50645 0.9016 0.85401 0.0
H412 H 0.54673 0.90588 0.03764 0.0
C413 C 0.55564 0.83607 0.06885 0.0
C414 C 0.53169 0.85658 0.92765 0.0
C415 C 0.55602 0.81969 0.1015 0.0
C416 C 0.51616 0.93015 0.83973 0.0
C417 C 0.51803 0.9128 0.86601 0.0
C418 C 0.54276 0.89224 0.00574 0.0
C419 C 0.5394 0.83895 0.02636 0.0
C420 C 0.53841 0.85708 0.99539 0.0
C421 C 0.53432 0.91015 0.90858 0.0
C422 C 0.53599 0.89179 0.93803 0.0
H423 H 0.51181 0.79785 0.0416 0.0
H424 H 0.51103 0.82654 0.98398 0.0
H425 H 0.54888 0.87612 0.08669 0.0
H426 H 0.55824 0.95408 0.91042 0.0
H427 H 0.56167 0.92372 0.95542 0.0
C428 C 0.68508 0.49856 0.31638 0.0
C429 C 0.70451 0.49433 0.29202 0.0
C430 C 0.66912 0.49919 0.27044 0.0
C431 C 0.65788 0.50352 0.08802 0.0
H432 H 0.60523 0.48369 0.13087 0.0
C433 C 0.59214 0.49383 0.89064 0.0
C434 C 0.57267 0.49829 0.91508 0.0
C435 C 0.60824 0.49348 0.93625 0.0
C436 C 0.61976 0.48951 0.1183 0.0
H437 H 0.72269 0.48748 0.20111 0.0
H438 H 0.69489 0.48831 0.12053 0.0
H439 H 0.63303 0.48285 0.21029 0.0
H440 H 0.55507 0.50591 0.00749 0.0
H441 H 0.58304 0.50545 0.0866 0.0
H442 H 0.64458 0.51012 0.99587 0.0
C443 C 0.69186 0.49142 0.17498 0.0
C444 C 0.63578 0.48904 0.16407 0.0
C445 C 0.7078 0.49081 0.22104 0.0
C446 C 0.56979 0.5024 0.98651 0.0
C447 C 0.58587 0.502 0.03209 0.0
C448 C 0.64186 0.50397 0.04219 0.0
C449 C 0.67223 0.49557 0.19892 0.0
C450 C 0.65511 0.49606 0.14976 0.0
C451 C 0.60536 0.49751 0.00774 0.0
C452 C 0.62253 0.49699 0.05661 0.0
H453 H 0.68221 0.5014 0.37102 0.0
H454 H 0.65438 0.50274 0.29113 0.0
H455 H 0.6724 0.50936 0.07545 0.0
H456 H 0.59499 0.49054 0.83609 0.0
H457 H 0.62291 0.48973 0.91534 0.0
C458 C 0.98852 0.6717 0.28972 0.0
C459 C 0.98334 0.68853 0.2643 0.0
C460 C 0.9923 0.65468 0.24459 0.0
C461 C 0.98248 0.63054 0.06717 0.0
H462 H 0.02589 0.59772 0.10449 0.0
C463 C 1.00765 0.56475 0.87326 0.0
C464 C 0.0122 0.5478 0.89965 0.0
C465 C 1.00399 0.58199 0.91738 0.0
C466 C 0.01358 0.60663 0.09376 0.0
H467 H 0.97802 0.70124 0.1731 0.0
H468 H 0.98492 0.67153 0.09354 0.0
H469 H 0.02018 0.6279 0.18178 0.0
H470 H 0.01611 0.53559 0.99316 0.0
H471 H 1.00963 0.56566 0.07003 0.0
H472 H 0.97593 0.60925 0.979 0.0
C473 C 0.98584 0.6713 0.14816 0.0
C474 C 1.01031 0.62392 0.13803 0.0
C475 C 0.98204 0.68831 0.19344 0.0
C476 C 0.01279 0.54842 0.97111 0.0
C477 C 1.00917 0.56567 0.01521 0.0
C478 C 0.98578 0.61325 0.02281 0.0
C479 C 0.99096 0.65426 0.17324 0.0
C480 C 0.99468 0.63606 0.12538 0.0
C481 C 1.00482 0.58267 0.98884 0.0
C482 C 1.00133 0.60108 0.03574 0.0
H483 H 0.98947 0.67166 0.34449 0.0
H484 H 0.99592 0.64177 0.26564 0.0
H485 H 0.97012 0.6394 0.05652 0.0
H486 H 1.00709 0.56479 0.81846 0.0
H487 H 1.00087 0.59489 0.8955 0.0
C488 C 0.04093 0.21489 0.31597 0.0
C489 C 0.05984 0.22398 0.33001 0.0
C490 C 0.03174 0.20462 0.36321 0.0
C491 C 0.04711 0.17646 0.49398 0.0
H492 H 0.98972 0.16687 0.50732 0.0
C493 C 0.01486 0.11368 0.62296 0.0
C494 C 1.00001 0.10199 0.58474 0.0
C495 C 0.02075 0.13162 0.60529 0.0
C496 C 1.00579 0.1694 0.50409 0.0
H497 H 0.08328 0.23092 0.40629 0.0
H498 H 0.06705 0.21312 0.49003 0.0
H499 H 1.00214 0.19466 0.4567 0.0
H500 H 0.97927 0.10026 0.4994 0.0
H501 H 0.98974 0.13146 0.46791 0.0
H502 H 0.05078 0.15089 0.53932 0.0
C503 C 0.05946 0.2137 0.44197 0.0
C504 C 0.01291 0.18534 0.47526 0.0
C505 C 0.06865 0.22406 0.39453 0.0
C506 C 0.99087 0.10884 0.52942 0.0
C507 C 0.9967 0.12682 0.51195 0.0
C508 C 0.03999 0.16059 0.52305 0.0
C509 C 0.0413 0.20318 0.42557 0.0
C510 C 0.03366 0.18872 0.46797 0.0
C511 C 0.01188 0.13831 0.54918 0.0
C512 C 0.01926 0.15657 0.52664 0.0
H513 H 0.03386 0.21466 0.26644 0.0
H514 H 0.01787 0.19661 0.34842 0.0
H515 H 0.06318 0.1784 0.48825 0.0
H516 H 0.02233 0.10875 0.66549 0.0
H517 H 0.03239 0.14017 0.6352 0.0
C518 C 0.27512 0.97282 0.35165 0.0
C519 C 0.28187 0.99074 0.33511 0.0
C520 C 0.28243 0.96633 0.41016 0.0
C521 C 0.31353 0.98095 0.56676 0.0
H522 H 0.34475 0.93622 0.4947 0.0
C523 C 0.3962 0.97978 0.59785 0.0
C524 C 0.40669 0.96278 0.60181 0.0
C525 C 0.37538 0.97934 0.59353 0.0
C526 C 0.33575 0.94827 0.51717 0.0
H527 H 0.29993 0.0167 0.36855 0.0
H528 H 0.31258 0.00559 0.47091 0.0
H529 H 0.3148 0.94326 0.43411 0.0
H530 H 0.40328 0.93198 0.60615 0.0
H531 H 0.36656 0.93109 0.59519 0.0
H532 H 0.33559 0.98691 0.6464 0.0
C533 C 0.30168 0.99648 0.43929 0.0
C534 C 0.31854 0.95234 0.48237 0.0
C535 C 0.29466 0.00278 0.3804 0.0
C536 C 0.39569 0.94529 0.60227 0.0
C537 C 0.3747 0.9448 0.59689 0.0
C538 C 0.33068 0.97683 0.60174 0.0
C539 C 0.29628 0.97788 0.45331 0.0
C540 C 0.30827 0.96955 0.50394 0.0
C541 C 0.36439 0.96184 0.59192 0.0
C542 C 0.34281 0.96137 0.57396 0.0
H543 H 0.26522 0.96334 0.31711 0.0
H544 H 0.27813 0.95193 0.41975 0.0
H545 H 0.30563 0.99412 0.58503 0.0
H546 H 0.40409 0.99342 0.59545 0.0
H547 H 0.36798 0.99261 0.58746 0.0
C548 C 0.54036 0.28526 0.56337 0.0
C549 C 0.52037 0.27884 0.55115 0.0
C550 C 0.54472 0.30269 0.60678 0.0
C551 C 0.54618 0.34631 0.6309 0.0
H552 H 0.51285 0.37172 0.77733 0.0
C553 C 0.53472 0.42874 0.67226 0.0
C554 C 0.53238 0.43861 0.73933 0.0
C555 C 0.53593 0.40851 0.65989 0.0
C556 C 0.52254 0.36485 0.73711 0.0
H557 H 0.48944 0.2844 0.57904 0.0
H558 H 0.49684 0.31483 0.65421 0.0
H559 H 0.51109 0.33649 0.74752 0.0
H560 H 0.53005 0.43492 0.84633 0.0
H561 H 0.53249 0.39981 0.82479 0.0
H562 H 0.55761 0.3746 0.62031 0.0
C563 C 0.5093 0.30645 0.63164 0.0
C564 C 0.5214 0.34462 0.71962 0.0
C565 C 0.505 0.2889 0.58885 0.0
C566 C 0.5317 0.42781 0.79387 0.0
C567 C 0.533 0.40762 0.78154 0.0
C568 C 0.5474 0.36648 0.64861 0.0
C569 C 0.5291 0.31417 0.63759 0.0
C570 C 0.53282 0.33512 0.66507 0.0
C571 C 0.53494 0.39767 0.71435 0.0
C572 C 0.53521 0.37607 0.70064 0.0
H573 H 0.55241 0.27784 0.53401 0.0
H574 H 0.56018 0.30793 0.61169 0.0
H575 H 0.55502 0.33964 0.58793 0.0
H576 H 0.5352 0.43659 0.62909 0.0
H577 H 0.53709 0.40134 0.60732 0.0
C578 C 0.24566 0.49912 0.37901 0.0
C579 C 0.26054 0.50923 0.34765 0.0
C580 C 0.23765 0.50722 0.44186 0.0
C581 C 0.22538 0.55486 0.52517 0.0
H582 H 0.19804 0.52398 0.64565 0.0
C583 C 0.14266 0.55829 0.57423 0.0
C584 C 0.13409 0.55178 0.63172 0.0
C585 C 0.16347 0.55959 0.56752 0.0
C586 C 0.20586 0.53317 0.61428 0.0
H587 H 0.27996 0.53492 0.35912 0.0
H588 H 0.26571 0.54935 0.46945 0.0
H589 H 0.22791 0.51173 0.58482 0.0
H590 H 0.14048 0.54362 0.7309 0.0
H591 H 0.17695 0.54581 0.719 0.0
H592 H 0.20268 0.57583 0.55173 0.0
C593 C 0.26027 0.53515 0.4454 0.0
C594 C 0.22292 0.52603 0.5789 0.0
C595 C 0.26844 0.5269 0.38254 0.0
C596 C 0.14672 0.54824 0.6852 0.0
C597 C 0.16757 0.54958 0.67857 0.0
C598 C 0.2084 0.56208 0.56096 0.0
C599 C 0.24427 0.5257 0.47437 0.0
C600 C 0.23189 0.53613 0.53009 0.0
C601 C 0.17617 0.55443 0.61826 0.0
C602 C 0.1976 0.55063 0.60177 0.0
H603 H 0.23948 0.48539 0.35315 0.0
H604 H 0.22517 0.49963 0.4621 0.0
H605 H 0.23203 0.56311 0.48831 0.0
H606 H 0.13334 0.56103 0.53204 0.0
H607 H 0.1695 0.56311 0.51988 0.0
C608 C 0.97712 0.78366 0.17216 0.0
C609 C 0.98853 0.77117 0.20487 0.0
C610 C 0.98603 0.79414 0.12504 0.0
C611 C 0.03568 0.81503 0.09541 0.0
H612 H 1.00563 0.83754 0.96108 0.0
C613 C 0.05241 0.89244 0.0426 0.0
C614 C 0.0476 0.89738 0.97854 0.0
C615 C 0.04813 0.87373 0.05654 0.0
C616 C 0.01453 0.83124 0.99732 0.0
H617 H 0.01761 0.75832 0.20933 0.0
H618 H 0.03321 0.77629 0.12505 0.0
H619 H 0.9925 0.8086 0.00118 0.0
H620 H 0.03575 0.88648 0.87737 0.0
H621 H 0.02893 0.85364 0.90057 0.0
H622 H 0.05779 0.83758 0.09118 0.0
C623 C 0.01747 0.77834 0.13706 0.0
C624 C 1.00683 0.81471 0.02102 0.0
C625 C 1.0085 0.76784 0.18455 0.0
C626 C 0.03931 0.88308 0.92759 0.0
C627 C 0.03534 0.86429 0.94107 0.0
C628 C 0.04353 0.83141 0.07098 0.0
C629 C 1.00657 0.79232 0.10929 0.0
C630 C 0.01687 0.80687 0.07253 0.0
C631 C 0.03924 0.85946 0.00627 0.0
C632 C 0.03267 0.84021 0.02367 0.0
H633 H 0.96167 0.78644 0.18706 0.0
H634 H 0.97712 0.80482 0.10544 0.0
H635 H 0.04385 0.80952 0.1353 0.0
H636 H 0.05871 0.90327 0.08283 0.0
H637 H 0.05106 0.87075 0.10773 0.0
C638 C 0.75314 0.03703 0.24447 0.0
C639 C 0.76543 0.02086 0.23953 0.0
C640 C 0.74586 0.04312 0.18556 0.0
C641 C 0.73159 0.0185 0.01535 0.0
H642 H 0.70106 0.06539 0.0281 0.0
C643 C 0.64846 0.01497 0.98197 0.0
C644 C 0.63764 0.03037 0.96391 0.0
C645 C 0.66933 0.01606 0.98525 0.0
C646 C 0.70971 0.05231 0.02179 0.0
H647 H 0.78211 1.00014 0.16918 0.0
H648 H 0.77003 0.01127 0.06603 0.0
H649 H 0.73262 0.06602 0.08962 0.0
H650 H 0.64018 0.05859 0.93138 0.0
H651 H 0.67691 0.06057 0.93732 0.0
H652 H 0.70858 0.00477 0.94812 0.0
C653 C 0.76533 0.01878 0.11545 0.0
C654 C 0.72775 0.05261 0.05798 0.0
C655 C 0.77241 0.01249 0.17465 0.0
C656 C 0.64818 0.04665 0.94664 0.0
C657 C 0.66918 0.04772 0.94963 0.0
C658 C 0.71386 0.01834 0.97785 0.0
C659 C 0.75088 0.0333 0.1201 0.0
C660 C 0.73783 0.03526 0.06048 0.0
C661 C 0.67998 0.03257 0.97023 0.0
C662 C 0.70181 0.03475 0.98591 0.0
H663 H 0.74802 0.04416 0.29396 0.0
H664 H 0.73481 0.05435 0.19211 0.0
H665 H 0.73899 0.00485 0.01446 0.0
H666 H 0.64076 0.00235 0.99633 0.0
H667 H 0.677 0.00432 0.00322 0.0
C668 C 0.51805 0.71088 0.99784 0.0
C669 C 0.53831 0.71446 0.01608 0.0
C670 C 0.5123 0.69409 0.95265 0.0
C671 C 0.53291 0.64984 0.84332 0.0
H672 H 0.4883 0.62383 0.92063 0.0
C673 C 0.51982 0.56772 0.7659 0.0
C674 C 0.51405 0.55721 0.81815 0.0
C675 C 0.51875 0.58792 0.77572 0.0
C676 C 0.5009 0.63078 0.89861 0.0
H677 H 0.5686 0.70466 0.99648 0.0
H678 H 0.55882 0.67554 0.91881 0.0
H679 H 0.49456 0.65826 0.9578 0.0
H680 H 0.50207 0.55939 0.92081 0.0
H681 H 0.50123 0.59477 0.94004 0.0
H682 H 0.54041 0.62215 0.78893 0.0
C683 C 0.54718 0.68548 0.93807 0.0
C684 C 0.50426 0.65073 0.91894 0.0
C685 C 0.55288 0.70225 0.9827 0.0
C686 C 0.50653 0.56719 0.87969 0.0
C687 C 0.50594 0.5875 0.89031 0.0
C688 C 0.52978 0.62985 0.82399 0.0
C689 C 0.52673 0.68059 0.92542 0.0
C690 C 0.52072 0.66044 0.89322 0.0
C691 C 0.51242 0.59821 0.83887 0.0
C692 C 0.51406 0.6199 0.85281 0.0
H693 H 0.50653 0.72002 0.0234 0.0
H694 H 0.49645 0.69107 0.94272 0.0
H695 H 0.54547 0.65682 0.82117 0.0
H696 H 0.52537 0.56031 0.71742 0.0
H697 H 0.52328 0.59543 0.73397 0.0
C698 C 0.79519 0.54996 0.27754 0.0
C699 C 0.78453 0.53213 0.26945 0.0
C700 C 0.80806 0.55429 0.22584 0.0
C701 C 0.83147 0.53167 0.0597 0.0
H702 H 0.87969 0.53944 0.17156 0.0
C703 C 0.91218 0.5101 0.96449 0.0
C704 C 0.92189 0.49895 0.0075 0.0
C705 C 0.89417 0.51907 0.98467 0.0
C706 C 0.86638 0.53742 0.13946 0.0
H707 H 0.77623 0.5064 0.19773 0.0
H708 H 0.79902 0.5135 0.10886 0.0
H709 H 0.84787 0.54989 0.22142 0.0
H710 H 0.9203 0.48802 0.10412 0.0
H711 H 0.88878 0.50371 0.13962 0.0
H712 H 0.85027 0.51778 0.97922 0.0
C713 C 0.79753 0.52436 0.15407 0.0
C714 C 0.8481 0.54372 0.16759 0.0
C715 C 0.78442 0.5202 0.20529 0.0
C716 C 0.91306 0.49649 0.07009 0.0
C717 C 0.8952 0.50563 0.09059 0.0
C718 C 0.84989 0.52538 0.03143 0.0
C719 C 0.81079 0.54057 0.16645 0.0
C720 C 0.83023 0.53998 0.12927 0.0
C721 C 0.88577 0.51723 0.04856 0.0
C722 C 0.86726 0.52732 0.07242 0.0
H723 H 0.79519 0.55953 0.32637 0.0
H724 H 0.81758 0.56725 0.23586 0.0
H725 H 0.81803 0.52882 0.02856 0.0
H726 H 0.91867 0.51203 0.91556 0.0
H727 H 0.8871 0.52784 0.95132 0.0
C728 C 0.076 0.20544 0.0422 0.0
C729 C 0.08845 0.20576 0.09952 0.0
C730 C 0.07357 0.18841 0.9948 0.0
C731 C 0.09175 0.13825 0.9431 0.0
H732 H 0.03489 0.1249 0.92691 0.0
C733 C 0.06142 0.059 0.88845 0.0
C734 C 0.04386 0.05496 0.84894 0.0
C735 C 0.06852 0.07815 0.90722 0.0
C736 C 0.05083 0.12843 0.92949 0.0
H737 H 0.1092 0.18941 0.1505 0.0
H738 H 0.10526 0.15973 0.06743 0.0
H739 H 0.04559 0.15775 0.9743 0.0
H740 H 0.02046 0.06782 0.79589 0.0
H741 H 0.03295 0.10098 0.82733 0.0
H742 H 0.09693 0.10871 0.89964 0.0
C743 C 0.09745 0.17251 0.05839 0.0
C744 C 0.05697 0.14733 0.95658 0.0
C745 C 0.09974 0.18947 0.10594 0.0
C746 C 0.03382 0.07042 0.82735 0.0
C747 C 0.041 0.08948 0.84548 0.0
C748 C 0.08559 0.11931 0.91553 0.0
C749 C 0.08361 0.17153 0.0042 0.0
C750 C 0.07748 0.15237 0.965 0.0
C751 C 0.0583 0.09363 0.88632 0.0
C752 C 0.06504 0.11408 0.90975 0.0
H753 H 0.06696 0.21781 0.03705 0.0
H754 H 0.06296 0.18811 0.95312 0.0
H755 H 0.10766 0.14176 0.94863 0.0
H756 H 0.06953 0.04741 0.90575 0.0
H757 H 0.08175 0.08083 0.9395 0.0
C758 C 0.32093 0.02078 0.13234 0.0
C759 C 0.30662 0.00585 0.11189 0.0
C760 C 0.33945 0.02125 0.09861 0.0
C761 C 0.36846 0.99866 0.94355 0.0
H762 H 0.41404 0.01723 0.05948 0.0
C763 C 0.44883 0.00538 0.83113 0.0
C764 C 0.46548 0.002 0.87106 0.0
C765 C 0.42934 0.00619 0.85861 0.0
C766 C 0.4016 0.01176 0.02615 0.0
H767 H 0.3004 0.97983 0.03928 0.0
H768 H 0.33283 0.98033 0.98081 0.0
H769 H 0.3806 0.01783 0.10819 0.0
H770 H 0.47444 0.9967 0.97174 0.0
H771 H 0.44061 0.99767 0.01928 0.0
H772 H 0.38966 0.99179 0.86217 0.0
C773 C 0.32967 0.99204 0.02192 0.0
C774 C 0.38218 0.01244 0.05404 0.0
C775 C 0.31098 0.99173 0.05528 0.0
C776 C 0.46206 0.9995 0.93949 0.0
C777 C 0.44254 1.00015 0.9669 0.0
C778 C 0.38793 0.99783 0.91573 0.0
C779 C 0.34444 0.00656 0.04414 0.0
C780 C 0.36522 0.00597 0.0133 0.0
C781 C 0.42581 0.00353 0.92699 0.0
C782 C 0.40488 0.00438 0.95655 0.0
H783 H 0.31804 0.03178 0.17615 0.0
H784 H 0.35001 0.03301 0.11643 0.0
H785 H 0.35592 0.99368 0.90998 0.0
H786 H 0.45083 0.00763 0.77854 0.0
H787 H 0.4171 0.0092 0.82622 0.0
C788 C 0.52413 0.29004 0.29276 0.0
C789 C 0.50712 0.2791 0.3074 0.0
C790 C 0.52241 0.30492 0.25372 0.0
C791 C 0.49007 0.32765 0.13906 0.0
H792 H 0.51453 0.37528 0.23521 0.0
C793 C 0.4759 0.4031 0.06153 0.0
C794 C 0.49222 0.41649 0.06634 0.0
C795 C 0.4774 0.38559 0.08718 0.0
C796 C 0.50786 0.36211 0.20691 0.0
H797 H 0.47527 0.27407 0.28831 0.0
H798 H 0.47223 0.30013 0.21901 0.0
H799 H 0.51833 0.34515 0.28015 0.0
H800 H 0.52286 0.42191 0.10302 0.0
H801 H 0.52573 0.39127 0.14518 0.0
H802 H 0.47976 0.34468 0.06531 0.0
C803 C 0.4869 0.29716 0.2379 0.0
C804 C 0.51003 0.3448 0.23281 0.0
C805 C 0.48864 0.2822 0.27723 0.0
C806 C 0.51004 0.41191 0.09759 0.0
C807 C 0.5116 0.39438 0.12269 0.0
C808 C 0.48805 0.34502 0.11261 0.0
C809 C 0.50362 0.30921 0.22844 0.0
C810 C 0.50127 0.32736 0.19908 0.0
C811 C 0.4953 0.38099 0.11806 0.0
C812 C 0.49701 0.36246 0.14612 0.0
H813 H 0.53858 0.28784 0.3151 0.0
H814 H 0.53563 0.3137 0.24603 0.0
H815 H 0.48316 0.31442 0.11202 0.0
H816 H 0.46202 0.40599 0.03698 0.0
H817 H 0.46446 0.37576 0.08335 0.0
C818 C 0.22272 0.47682 0.11631 0.0
C819 C 0.2384 0.48995 0.10629 0.0
C820 C 0.20471 0.47622 0.0794 0.0
C821 C 0.17938 0.49348 0.93102 0.0
H822 H 0.1315 0.4859 0.03668 0.0
C823 C 0.09828 0.50651 0.837 0.0
C824 C 0.08283 0.49347 0.85081 0.0
C825 C 0.11767 0.50565 0.8642 0.0
C826 C 0.14466 0.48781 0.00592 0.0
H827 H 0.24768 0.51237 0.04792 0.0
H828 H 0.2161 0.51157 0.98353 0.0
H829 H 0.16436 0.48484 0.08872 0.0
H830 H 0.07603 0.46912 0.90376 0.0
H831 H 0.10963 0.46766 0.95099 0.0
H832 H 0.15941 0.4968 0.84851 0.0
C833 C 0.2178 0.50145 0.0193 0.0
C834 C 0.16365 0.48714 0.03584 0.0
C835 C 0.23598 0.5019 0.05601 0.0
C836 C 0.08742 0.47948 0.89212 0.0
C837 C 0.10675 0.4787 0.91963 0.0
C838 C 0.1603 0.49424 0.9011 0.0
C839 C 0.20164 0.48897 0.03189 0.0
C840 C 0.18137 0.48981 0.99887 0.0
C841 C 0.12217 0.49184 0.90649 0.0
C842 C 0.14264 0.4913 0.93801 0.0
H843 H 0.22413 0.46743 0.15475 0.0
H844 H 0.19298 0.466 0.08944 0.0
H845 H 0.19256 0.49546 0.90047 0.0
H846 H 0.0954 0.51747 0.80531 0.0
H847 H 0.12904 0.51611 0.85323 0.0
C848 C 0.95406 0.80765 0.42772 0.0
C849 C 0.9648 0.79164 0.44166 0.0
C850 C 0.95456 0.82501 0.47361 0.0
C851 C 0.98949 0.8509 0.60146 0.0
H852 H 0.94986 0.89101 0.61301 0.0
C853 C 1.00568 0.92837 0.74134 0.0
C854 C 1.00104 0.9434 0.70459 0.0
C855 C 0.99876 0.90941 0.71903 0.0
C856 C 0.96105 0.87992 0.61009 0.0
H857 H 0.9826 0.78057 0.51802 0.0
H858 H 0.98281 0.81069 0.59965 0.0
H859 H 0.94053 0.85769 0.56286 0.0
H860 H 0.98516 0.95031 0.61608 0.0
H861 H 0.9731 0.917 0.57677 0.0
H862 H 1.01005 0.87314 0.64783 0.0
C863 C 0.97458 0.81003 0.55205 0.0
C864 C 0.95573 0.86085 0.5815 0.0
C865 C 0.97424 0.79268 0.50572 0.0
C866 C 0.98907 0.93906 0.64536 0.0
C867 C 0.98201 0.92004 0.62324 0.0
C868 C 0.99472 0.86988 0.63057 0.0
C869 C 0.96563 0.82669 0.53491 0.0
C870 C 0.97003 0.84619 0.57534 0.0
C871 C 0.98695 0.90502 0.65961 0.0
C872 C 0.9807 0.88466 0.63385 0.0
H873 H 0.94635 0.80714 0.37916 0.0
H874 H 0.94748 0.83746 0.4584 0.0
H875 H 1.00105 0.84016 0.59639 0.0
H876 H 0.01487 0.93114 0.78718 0.0
H877 H 1.00269 0.89816 0.74833 0.0
C878 C 0.72353 0.01343 0.46042 0.0
C879 C 0.73698 0.998 0.44779 0.0
C880 C 0.70512 0.01128 0.49301 0.0
C881 C 0.67652 0.98499 0.60879 0.0
H882 H 0.63003 0.9989 0.51053 0.0
C883 C 0.59722 0.99852 0.73127 0.0
C884 C 0.58039 0.99047 0.69269 0.0
C885 C 0.61658 0.99754 0.70289 0.0
C886 C 0.64281 0.99483 0.5385 0.0
H887 H 0.74185 0.96854 0.46477 0.0
H888 H 0.70981 0.96507 0.52458 0.0
H889 H 0.66355 0.00101 0.46099 0.0
H890 H 0.57097 0.97496 0.59363 0.0
H891 H 0.60471 0.97373 0.54344 0.0
H892 H 0.65574 0.97942 0.68741 0.0
C893 C 0.71355 0.97872 0.50742 0.0
C894 C 0.66205 0.99615 0.51028 0.0
C895 C 0.73198 0.98076 0.4735 0.0
C896 C 0.58353 0.98129 0.62495 0.0
C897 C 0.60287 0.98065 0.59607 0.0
C898 C 0.65726 0.98405 0.63776 0.0
C899 C 0.69966 0.9938 0.51566 0.0
C900 C 0.67918 0.99135 0.54512 0.0
C901 C 0.61966 0.98882 0.63461 0.0
C902 C 0.64014 0.98901 0.60302 0.0
H903 H 0.72699 0.02716 0.44344 0.0
H904 H 0.69499 0.02333 0.49987 0.0
H905 H 0.6894 0.98126 0.63702 0.0
H906 H 0.59545 0.00568 0.7836 0.0
H907 H 0.62909 0.00412 0.73391 0.0
C908 C 0.54855 0.7148 0.31163 0.0
C909 C 0.56063 0.71604 0.25404 0.0
C910 C 0.55184 0.7004 0.35224 0.0
C911 C 0.57108 0.65127 0.32895 0.0
H912 H 0.56522 0.65489 0.52582 0.0
C913 C 0.58095 0.58435 0.46089 0.0
C914 C 0.56761 0.58168 0.51408 0.0
C915 C 0.58181 0.60187 0.43498 0.0
C916 C 0.56671 0.65361 0.47069 0.0
H917 H 0.58665 0.70455 0.19726 0.0
H918 H 0.59263 0.67972 0.26854 0.0
H919 H 0.56424 0.68433 0.47299 0.0
H920 H 0.54517 0.59578 0.58325 0.0
H921 H 0.5461 0.62601 0.53617 0.0
H922 H 0.57289 0.62066 0.32561 0.0
C923 C 0.58036 0.68949 0.28163 0.0
C924 C 0.56622 0.67049 0.44056 0.0
C925 C 0.57705 0.70379 0.24117 0.0
C926 C 0.55538 0.59715 0.5414 0.0
C927 C 0.55613 0.61464 0.5151 0.0
C928 C 0.57141 0.63445 0.35883 0.0
C929 C 0.56727 0.68706 0.33572 0.0
C930 C 0.56846 0.66949 0.36932 0.0
C931 C 0.56923 0.61718 0.46106 0.0
C932 C 0.56926 0.63535 0.43009 0.0
H933 H 0.53569 0.72398 0.32219 0.0
H934 H 0.54149 0.69888 0.39355 0.0
H935 H 0.57235 0.64991 0.27371 0.0
H936 H 0.59049 0.57276 0.43814 0.0
H937 H 0.59234 0.60337 0.39416 0.0
C938 C 0.81486 0.48893 0.47585 0.0
C939 C 0.80676 0.50735 0.47636 0.0
C940 C 0.83357 0.48699 0.50685 0.0
C941 C 0.87159 0.51307 0.62958 0.0
H942 H 0.90961 0.47944 0.52393 0.0
C943 C 0.95055 0.49978 0.73557 0.0
C944 C 0.96702 0.49924 0.69042 0.0
C945 C 0.93078 0.50017 0.71149 0.0
C946 C 0.89924 0.48897 0.55403 0.0
H947 H 0.81156 0.53805 0.5123 0.0
H948 H 0.84377 0.5347 0.56743 0.0
H949 H 0.87525 0.48082 0.48189 0.0
H950 H 0.9753 0.49856 0.58391 0.0
H951 H 0.9408 0.4992 0.54183 0.0
H952 H 0.89561 0.52146 0.70118 0.0
C953 C 0.83581 0.5217 0.5432 0.0
C954 C 0.8794 0.48958 0.5303 0.0
C955 C 0.8173 0.52364 0.51163 0.0
C956 C 0.96307 0.499 0.62028 0.0
C957 C 0.94323 0.49923 0.59606 0.0
C958 C 0.89135 0.51234 0.65358 0.0
C959 C 0.84452 0.50341 0.53979 0.0
C960 C 0.86531 0.50177 0.56743 0.0
C961 C 0.92677 0.49988 0.64135 0.0
C962 C 0.90555 0.50039 0.61597 0.0
H963 H 0.80728 0.47614 0.44823 0.0
H964 H 0.83966 0.47265 0.50381 0.0
H965 H 0.8612 0.52254 0.65989 0.0
H966 H 0.95287 0.49994 0.78995 0.0
H967 H 0.91858 0.50043 0.74796 0.0
loop_
_geom_bond_atom_site_label_1
_geom_bond_atom_site_label_2
_geom_bond_distance
_geom_bond_site_symmetry_2
_ccdc_geom_bond_type
H0 C3 0.929 . S
H1 C6 0.929 . S
H2 C8 0.930 . S
C3 H0 0.929 . S
C3 C4 1.398 . S
C3 C5 1.396 . S
C4 C3 1.398 . S
C4 C8 1.407 . S
C5 C3 1.396 . S
C5 C6 1.394 . S
C6 H1 0.929 . S
C6 C5 1.394 . S
C6 C7 1.382 . S
C7 C6 1.382 . S
C7 C8 1.392 . S
C7 N9 1.420 . S
C8 H2 0.930 . S
C8 C4 1.407 . S
C8 C7 1.392 . S
N9 C7 1.420 . S
N9 C10 1.244 . S
C10 N9 1.244 . S
H11 C14 0.929 . S
H12 C17 0.929 . S
H13 C19 0.930 . S
C14 H11 0.929 . S
C14 C15 1.398 . S
C14 C16 1.396 . S
C15 C14 1.398 . S
C15 C19 1.407 . S
C16 C14 1.396 . S
C16 C17 1.394 . S
C17 H12 0.929 . S
C17 C16 1.394 . S
C17 C18 1.382 . S
C18 C17 1.382 . S
C18 C19 1.392 . S
C18 N20 1.423 . S
C19 H13 0.930 . S
C19 C15 1.407 . S
C19 C18 1.392 . S
N20 C18 1.423 . S
N20 C21 1.251 . S
C21 N20 1.251 . S
H22 C25 0.929 . S
H23 C28 0.929 . S
H24 C30 0.930 . S
C25 H22 0.929 . S
C25 C26 1.400 1_565 S
C25 C27 1.393 1_565 S
C26 C25 1.400 1_545 S
C26 C30 1.413 . S
C27 C25 1.393 1_545 S
C27 C28 1.396 . S
C28 H23 0.929 . S
C28 C27 1.396 . S
C28 C29 1.382 . S
C29 C28 1.382 . S
C29 C30 1.392 . S
C29 N31 1.420 . S
C30 H24 0.930 . S
C30 C26 1.413 . S
C30 C29 1.392 . S
N31 C29 1.420 . S
N31 C32 1.235 1_545 S
C32 N31 1.235 1_565 S
H33 C36 0.929 . S
H34 C39 0.929 . S
H35 C41 0.930 . S
C36 H33 0.929 . S
C36 C37 1.398 . S
C36 C38 1.396 1_554 S
C37 C36 1.398 . S
C37 C41 1.407 . S
C38 C36 1.396 1_556 S
C38 C39 1.394 . S
C39 H34 0.929 . S
C39 C38 1.394 . S
C39 C40 1.382 1_556 S
C40 C39 1.382 1_554 S
C40 C41 1.392 . S
C40 N42 1.420 . S
C41 H35 0.930 . S
C41 C37 1.407 . S
C41 C40 1.392 . S
N42 C40 1.420 . S
N42 C43 1.244 1_554 S
C43 N42 1.244 1_556 S
H44 C47 0.929 . S
H45 C50 0.929 . S
H46 C52 0.930 . S
C47 H44 0.929 . S
C47 C48 1.398 . S
C47 C49 1.396 . S
C48 C47 1.398 . S
C48 C52 1.407 . S
C49 C47 1.396 . S
C49 C50 1.394 . S
C50 H45 0.929 . S
C50 C49 1.394 . S
C50 C51 1.382 . S
C51 C50 1.382 . S
C51 C52 1.392 . S
C51 N53 1.420 . S
C52 H46 0.930 . S
C52 C48 1.407 . S
C52 C51 1.392 . S
N53 C51 1.420 . S
N53 C54 1.244 . S
C54 N53 1.244 . S
H55 C58 0.929 . S
H56 C61 0.929 . S
H57 C63 0.930 . S
C58 H55 0.929 . S
C58 C59 1.398 . S
C58 C60 1.396 . S
C59 C58 1.398 . S
C59 C63 1.407 . S
C60 C58 1.396 . S
C60 C61 1.394 . S
C61 H56 0.929 . S
C61 C60 1.394 . S
C61 C62 1.382 . S
C62 C61 1.382 . S
C62 C63 1.392 . S
C62 N64 1.420 . S
C63 H57 0.930 . S
C63 C59 1.407 . S
C63 C62 1.392 . S
N64 C62 1.420 . S
N64 C65 1.244 . S
C65 N64 1.244 . S
H66 C69 0.929 . S
H67 C72 0.929 . S
H68 C74 0.930 . S
C69 H66 0.929 . S
C69 C70 1.388 1_565 S
C69 C71 1.397 1_565 S
C70 C69 1.388 1_545 S
C70 C74 1.416 . S
C71 C69 1.397 1_545 S
C71 C72 1.399 . S
C72 H67 0.929 . S
C72 C71 1.399 . S
C72 C73 1.382 . S
C73 C72 1.382 . S
C73 C74 1.392 . S
C73 N75 1.420 . S
C74 H68 0.930 . S
C74 C70 1.416 . S
C74 C73 1.392 . S
N75 C73 1.420 . S
N75 C76 1.236 1_545 S
C76 N75 1.236 1_565 S
H77 C80 0.929 . S
H78 C83 0.929 . S
H79 C85 0.930 . S
C80 H77 0.929 . S
C80 C81 1.398 . S
C80 C82 1.396 . S
C81 C80 1.398 . S
C81 C85 1.407 . S
C82 C80 1.396 . S
C82 C83 1.394 . S
C83 H78 0.929 . S
C83 C82 1.394 . S
C83 C84 1.382 . S
C84 C83 1.382 . S
C84 C85 1.392 . S
C84 N86 1.420 . S
C85 H79 0.930 . S
C85 C81 1.407 . S
C85 C84 1.392 . S
N86 C84 1.420 . S
N86 C87 1.244 . S
C87 N86 1.244 . S
Tb88 C97 2.762 1_455 S
Tb88 O98 2.338 . S
Tb88 O101 2.346 . S
Tb88 O105 2.319 1_445 S
Tb88 O106 2.314 1_455 S
Tb88 O109 2.433 . S
Tb88 O110 2.377 1_455 S
Tb89 O99 2.322 1_565 S
Tb89 O100 2.349 . S
Tb89 O102 2.415 . S
Tb89 O103 2.399 . S
Tb89 O104 2.325 . S
Tb89 O107 2.303 1_455 S
Tb89 C118 2.764 . S
C90 O106 1.261 . S
C90 O107 1.257 1_545 S
C91 C94 1.403 . S
C91 C95 1.291 1_655 S
C91 C97 1.502 . S
C92 C93 1.373 . S
C92 C96 1.308 1_655 S
C93 C92 1.373 . S
C93 C94 1.429 . S
C93 H120 0.932 . S
C94 C91 1.403 . S
C94 C93 1.429 . S
C94 H121 0.930 . S
C95 C91 1.291 1_455 S
C95 C96 1.394 . S
C95 H122 0.932 . S
C96 C92 1.308 1_455 S
C96 C95 1.394 . S
C96 H123 0.929 . S
C97 Tb88 2.762 1_655 S
C97 C91 1.502 . S
C97 O109 1.225 1_655 S
C97 O110 1.275 . S
O98 Tb88 2.338 . S
O98 C108 1.236 . S
O99 Tb89 2.322 1_545 S
O99 C108 1.257 . S
O100 Tb89 2.349 . S
O100 C111 1.261 . S
O101 Tb88 2.346 . S
O101 C111 1.257 1_545 S
O102 Tb89 2.415 . S
O102 C118 1.239 . S
O103 Tb89 2.399 . S
O103 C118 1.263 . S
O104 Tb89 2.325 . S
O104 C119 1.236 . S
O105 Tb88 2.319 1_665 S
O105 C119 1.257 1_655 S
O106 Tb88 2.314 1_655 S
O106 C90 1.261 . S
O107 Tb89 2.303 1_655 S
O107 C90 1.257 1_565 S
C108 O98 1.236 . S
C108 O99 1.257 . S
O109 Tb88 2.433 . S
O109 C97 1.225 1_455 S
O110 Tb88 2.377 1_655 S
O110 C97 1.275 . S
C111 O100 1.261 . S
C111 O101 1.257 1_565 S
C112 C115 1.358 . S
C112 C116 1.332 . S
C112 C118 1.504 . S
C113 C114 1.379 . S
C113 C117 1.313 . S
C114 C113 1.379 . S
C114 C115 1.429 . S
C114 H124 0.932 . S
C115 C112 1.358 . S
C115 C114 1.429 . S
C115 H125 0.930 . S
C116 C112 1.332 . S
C116 C117 1.394 . S
C116 H126 0.932 . S
C117 C113 1.313 . S
C117 C116 1.394 . S
C117 H127 0.929 . S
C118 Tb89 2.764 . S
C118 O102 1.239 . S
C118 O103 1.263 . S
C118 C112 1.504 . S
C119 O104 1.236 . S
C119 O105 1.257 1_455 S
H120 C93 0.932 . S
H121 C94 0.930 . S
H122 C95 0.932 . S
H123 C96 0.929 . S
H124 C114 0.932 . S
H125 C115 0.930 . S
H126 C116 0.932 . S
H127 C117 0.929 . S
Tb128 C137 2.764 . S
Tb128 O138 2.325 . S
Tb128 O141 2.303 1_565 S
Tb128 O145 2.322 . S
Tb128 O146 2.349 . S
Tb128 O149 2.415 1_565 S
Tb128 O150 2.399 . S
Tb129 O139 2.322 . S
Tb129 O140 2.349 . S
Tb129 O142 2.415 1_545 S
Tb129 O143 2.399 . S
Tb129 O144 2.325 . S
Tb129 O147 2.303 1_545 S
Tb129 C158 2.764 . S
C130 O146 1.261 . S
C130 O147 1.257 . S
C131 C134 1.358 . S
C131 C135 1.332 1_565 S
C131 C137 1.504 . S
C132 C133 1.373 . S
C132 C136 1.308 1_565 S
C133 C132 1.373 . S
C133 C134 1.429 . S
C133 H160 0.932 . S
C134 C131 1.358 . S
C134 C133 1.429 . S
C134 H161 0.930 . S
C135 C131 1.332 1_545 S
C135 C136 1.394 . S
C135 H162 0.932 . S
C136 C132 1.308 1_545 S
C136 C135 1.394 . S
C136 H163 0.929 . S
C137 Tb128 2.764 . S
C137 C131 1.504 . S
C137 O149 1.239 1_565 S
C137 O150 1.263 . S
O138 Tb128 2.325 . S
O138 C148 1.236 1_565 S
O139 Tb129 2.322 . S
O139 C148 1.257 . S
O140 Tb129 2.349 . S
O140 C151 1.261 . S
O141 Tb128 2.303 1_545 S
O141 C151 1.257 . S
O142 Tb129 2.415 1_565 S
O142 C158 1.239 1_565 S
O143 Tb129 2.399 . S
O143 C158 1.263 . S
O144 Tb129 2.325 . S
O144 C159 1.236 1_545 S
O145 Tb128 2.322 . S
O145 C159 1.257 . S
O146 Tb128 2.349 . S
O146 C130 1.261 . S
O147 Tb129 2.303 1_565 S
O147 C130 1.257 . S
C148 O138 1.236 1_545 S
C148 O139 1.257 . S
O149 Tb128 2.415 1_545 S
O149 C137 1.239 1_545 S
O150 Tb128 2.399 . S
O150 C137 1.263 . S
C151 O140 1.261 . S
C151 O141 1.257 . S
C152 C155 1.358 1_556 S
C152 C156 1.332 1_545 S
C152 C158 1.504 . S
C153 C154 1.373 . S
C153 C157 1.308 1_545 S
C154 C153 1.373 . S
C154 C155 1.429 . S
C154 H164 0.932 . S
C155 C152 1.358 1_554 S
C155 C154 1.429 . S
C155 H165 0.930 . S
C156 C152 1.332 1_565 S
C156 C157 1.394 1_556 S
C156 H166 0.932 . S
C157 C153 1.308 1_565 S
C157 C156 1.394 1_554 S
C157 H167 0.929 1_554 S
C158 Tb129 2.764 . S
C158 O142 1.239 1_545 S
C158 O143 1.263 . S
C158 C152 1.504 . S
C159 O144 1.236 1_565 S
C159 O145 1.257 . S
H160 C133 0.932 . S
H161 C134 0.930 . S
H162 C135 0.932 . S
H163 C136 0.929 . S
H164 C154 0.932 . S
H165 C155 0.930 . S
H166 C156 0.932 . S
H167 C157 0.929 1_556 S
Tb168 C177 2.764 . S
Tb168 O178 2.325 . S
Tb168 O181 2.303 . S
Tb168 O185 2.322 . S
Tb168 O186 2.349 . S
Tb168 O189 2.415 . S
Tb168 O190 2.399 . S
Tb169 O179 2.322 . S
Tb169 O180 2.349 . S
Tb169 O182 2.415 . S
Tb169 O183 2.399 . S
Tb169 O184 2.325 . S
Tb169 O187 2.303 . S
Tb169 C198 2.764 . S
C170 O186 1.261 . S
C170 O187 1.257 . S
C171 C174 1.358 1_556 S
C171 C175 1.332 1_556 S
C171 C177 1.504 . S
C172 C173 1.373 . S
C172 C176 1.308 . S
C173 C172 1.373 . S
C173 C174 1.429 . S
C173 H200 0.932 . S
C174 C171 1.358 1_554 S
C174 C173 1.429 . S
C174 H201 0.930 1_554 S
C175 C171 1.332 1_554 S
C175 C176 1.394 . S
C175 H202 0.932 1_554 S
C176 C172 1.308 . S
C176 C175 1.394 . S
C176 H203 0.929 . S
C177 Tb168 2.764 . S
C177 C171 1.504 . S
C177 O189 1.239 . S
C177 O190 1.263 . S
O178 Tb168 2.325 . S
O178 C188 1.236 . S
O179 Tb169 2.322 . S
O179 C188 1.257 . S
O180 Tb169 2.349 . S
O180 C191 1.261 . S
O181 Tb168 2.303 . S
O181 C191 1.257 . S
O182 Tb169 2.415 . S
O182 C198 1.239 . S
O183 Tb169 2.399 . S
O183 C198 1.263 . S
O184 Tb169 2.325 . S
O184 C199 1.236 . S
O185 Tb168 2.322 . S
O185 C199 1.257 . S
O186 Tb168 2.349 . S
O186 C170 1.261 . S
O187 Tb169 2.303 . S
O187 C170 1.257 . S
C188 O178 1.236 . S
C188 O179 1.257 . S
O189 Tb168 2.415 . S
O189 C177 1.239 . S
O190 Tb168 2.399 . S
O190 C177 1.263 . S
C191 O180 1.261 . S
C191 O181 1.257 . S
C192 C195 1.358 . S
C192 C196 1.332 . S
C192 C198 1.504 . S
C193 C194 1.373 . S
C193 C197 1.308 . S
C194 C193 1.373 . S
C194 C195 1.429 . S
C194 H204 0.932 . S
C195 C192 1.358 . S
C195 C194 1.429 . S
C195 H205 0.930 . S
C196 C192 1.332 . S
C196 C197 1.394 . S
C196 H206 0.932 . S
C197 C193 1.308 . S
C197 C196 1.394 . S
C197 H207 0.929 . S
C198 Tb169 2.764 . S
C198 O182 1.239 . S
C198 O183 1.263 . S
C198 C192 1.504 . S
C199 O184 1.236 . S
C199 O185 1.257 . S
H200 C173 0.932 . S
H201 C174 0.930 1_556 S
H202 C175 0.932 1_556 S
H203 C176 0.929 . S
H204 C194 0.932 . S
H205 C195 0.930 . S
H206 C196 0.932 . S
H207 C197 0.929 . S
Tb208 C217 2.764 . S
Tb208 O218 2.325 . S
Tb208 O221 2.303 . S
Tb208 O225 2.322 1_455 S
Tb208 O226 2.349 . S
Tb208 O229 2.415 . S
Tb208 O230 2.399 . S
Tb209 O219 2.380 . S
Tb209 O220 2.359 . S
Tb209 O222 2.369 1_455 S
Tb209 O223 2.353 1_455 S
Tb209 O224 2.289 1_455 S
Tb209 O227 2.318 . S
Tb209 C238 2.712 1_455 S
C210 O226 1.261 . S
C210 O227 1.257 . S
C211 C214 1.358 . S
C211 C215 1.332 . S
C211 C217 1.504 . S
C212 C213 1.373 . S
C212 C216 1.308 . S
C213 C212 1.373 . S
C213 C214 1.429 . S
C213 H240 0.932 . S
C214 C211 1.358 . S
C214 C213 1.429 . S
C214 H241 0.930 . S
C215 C211 1.332 . S
C215 C216 1.394 . S
C215 H242 0.932 . S
C216 C212 1.308 . S
C216 C215 1.394 . S
C216 H243 0.929 . S
C217 Tb208 2.764 . S
C217 C211 1.504 . S
C217 O229 1.239 . S
C217 O230 1.263 . S
O218 Tb208 2.325 . S
O218 C228 1.236 . S
O219 Tb209 2.380 . S
O219 C228 1.257 . S
O220 Tb209 2.359 . S
O220 C231 1.261 . S
O221 Tb208 2.303 . S
O221 C231 1.257 . S
O222 Tb209 2.369 1_655 S
O222 C238 1.239 . S
O223 Tb209 2.353 1_655 S
O223 C238 1.263 . S
O224 Tb209 2.289 1_655 S
O224 C239 1.236 . S
O225 Tb208 2.322 1_655 S
O225 C239 1.257 . S
O226 Tb208 2.349 . S
O226 C210 1.261 . S
O227 Tb209 2.318 . S
O227 C210 1.257 . S
C228 O218 1.236 . S
C228 O219 1.257 . S
O229 Tb208 2.415 . S
O229 C217 1.239 . S
O230 Tb208 2.399 . S
O230 C217 1.263 . S
C231 O220 1.261 . S
C231 O221 1.257 . S
C232 C235 1.358 . S
C232 C236 1.332 . S
C232 C238 1.504 . S
C233 C234 1.373 . S
C233 C237 1.308 . S
C234 C233 1.373 . S
C234 C235 1.429 1_554 S
C234 H244 0.932 . S
C235 C232 1.358 . S
C235 C234 1.429 1_556 S
C235 H245 0.930 . S
C236 C232 1.332 . S
C236 C237 1.394 1_556 S
C236 H246 0.932 . S
C237 C233 1.308 . S
C237 C236 1.394 1_554 S
C237 H247 0.929 . S
C238 Tb209 2.712 1_655 S
C238 O222 1.239 . S
C238 O223 1.263 . S
C238 C232 1.504 . S
C239 O224 1.236 . S
C239 O225 1.257 . S
H240 C213 0.932 . S
H241 C214 0.930 . S
H242 C215 0.932 . S
H243 C216 0.929 . S
H244 C234 0.932 . S
H245 C235 0.930 . S
H246 C236 0.932 . S
H247 C237 0.929 . S
C248 C249 1.341 1_565 S
C248 C250 1.327 . S
C248 H273 0.950 . S
C249 C248 1.341 1_545 S
C249 C265 1.356 . S
C250 C248 1.327 . S
C250 C269 1.405 1_565 S
C250 H274 0.950 . S
C251 C268 1.574 . S
C251 C270 1.406 . S
C251 H275 0.949 . S
H252 C256 0.949 . S
C253 C254 1.349 . S
C253 C255 1.327 . S
C253 H276 0.950 . S
C254 C253 1.349 . S
C254 C266 1.349 1_545 S
C255 C253 1.327 . S
C255 C271 1.429 . S
C255 H277 0.950 . S
C256 H252 0.949 . S
C256 C264 1.574 . S
C256 C272 1.368 1_565 S
H257 C265 0.950 . S
H258 C263 0.950 . S
H259 C264 0.949 . S
H260 C266 0.950 . S
H261 C267 0.950 . S
H262 C268 0.949 . S
C263 H258 0.950 . S
C263 C265 1.327 . S
C263 C269 1.456 . S
C264 C256 1.574 . S
C264 H259 0.949 . S
C264 C270 1.328 1_565 S
C265 C249 1.356 . S
C265 H257 0.950 . S
C265 C263 1.327 . S
C266 C254 1.349 1_565 S
C266 H260 0.950 . S
C266 C267 1.327 . S
C267 H261 0.950 . S
C267 C266 1.327 . S
C267 C271 1.429 1_565 S
C268 C251 1.574 . S
C268 H262 0.949 . S
C268 C272 1.368 . S
C269 C250 1.405 1_545 S
C269 C263 1.456 . S
C269 C270 1.524 . S
C270 C251 1.406 . S
C270 C264 1.328 1_545 S
C270 C269 1.524 . S
C271 C255 1.429 . S
C271 C267 1.429 1_545 S
C271 C272 1.523 . S
C272 C256 1.368 1_545 S
C272 C268 1.368 . S
C272 C271 1.523 . S
H273 C248 0.950 . S
H274 C250 0.950 . S
H275 C251 0.949 . S
H276 C253 0.950 . S
H277 C255 0.950 . S
C278 C279 1.349 . S
C278 C280 1.327 . S
C278 H303 0.950 . S
C279 C278 1.349 . S
C279 C295 1.349 . S
C280 C278 1.327 . S
C280 C299 1.429 . S
C280 H304 0.950 . S
C281 C298 1.574 . S
C281 C300 1.368 . S
C281 H305 0.949 . S
H282 C286 0.949 . S
C283 C284 1.349 . S
C283 C285 1.327 . S
C283 H306 0.950 . S
C284 C283 1.349 . S
C284 C296 1.349 . S
C285 C283 1.327 . S
C285 C301 1.429 . S
C285 H307 0.950 . S
C286 H282 0.949 . S
C286 C294 1.574 . S
C286 C302 1.368 . S
H287 C295 0.950 . S
H288 C293 0.950 . S
H289 C294 0.949 . S
H290 C296 0.950 . S
H291 C297 0.950 . S
H292 C298 0.949 . S
C293 H288 0.950 . S
C293 C295 1.327 . S
C293 C299 1.429 . S
C294 C286 1.574 . S
C294 H289 0.949 . S
C294 C300 1.368 . S
C295 C279 1.349 . S
C295 H287 0.950 . S
C295 C293 1.327 . S
C296 C284 1.349 . S
C296 H290 0.950 . S
C296 C297 1.327 . S
C297 H291 0.950 . S
C297 C296 1.327 . S
C297 C301 1.429 . S
C298 C281 1.574 . S
C298 H292 0.949 . S
C298 C302 1.368 . S
C299 C280 1.429 . S
C299 C293 1.429 . S
C299 C300 1.523 . S
C300 C281 1.368 . S
C300 C294 1.368 . S
C300 C299 1.523 . S
C301 C285 1.429 . S
C301 C297 1.429 . S
C301 C302 1.523 . S
C302 C286 1.368 . S
C302 C298 1.368 . S
C302 C301 1.523 . S
H303 C278 0.950 . S
H304 C280 0.950 . S
H305 C281 0.949 . S
H306 C283 0.950 . S
H307 C285 0.950 . S
C308 C309 1.349 . S
C308 C310 1.327 . S
C308 H333 0.950 . S
C309 C308 1.349 . S
C309 C325 1.349 . S
C310 C308 1.327 . S
C310 C329 1.429 . S
C310 H334 0.950 . S
C311 C328 1.574 . S
C311 C330 1.368 . S
C311 H335 0.949 . S
H312 C316 0.949 . S
C313 C314 1.349 . S
C313 C315 1.327 . S
C313 H336 0.950 . S
C314 C313 1.349 . S
C314 C326 1.349 . S
C315 C313 1.327 . S
C315 C331 1.429 . S
C315 H337 0.950 . S
C316 H312 0.949 . S
C316 C324 1.574 . S
C316 C332 1.368 . S
H317 C325 0.950 . S
H318 C323 0.950 . S
H319 C324 0.949 . S
H320 C326 0.950 . S
H321 C327 0.950 . S
H322 C328 0.949 . S
C323 H318 0.950 . S
C323 C325 1.327 . S
C323 C329 1.429 . S
C324 C316 1.574 . S
C324 H319 0.949 . S
C324 C330 1.368 . S
C325 C309 1.349 . S
C325 H317 0.950 . S
C325 C323 1.327 . S
C326 C314 1.349 . S
C326 H320 0.950 . S
C326 C327 1.327 . S
C327 H321 0.950 . S
C327 C326 1.327 . S
C327 C331 1.429 . S
C328 C311 1.574 . S
C328 H322 0.949 . S
C328 C332 1.368 . S
C329 C310 1.429 . S
C329 C323 1.429 . S
C329 C330 1.523 . S
C330 C311 1.368 . S
C330 C324 1.368 . S
C330 C329 1.523 . S
C331 C315 1.429 . S
C331 C327 1.429 . S
C331 C332 1.523 . S
C332 C316 1.368 . S
C332 C328 1.368 . S
C332 C331 1.523 . S
H333 C308 0.950 . S
H334 C310 0.950 . S
H335 C311 0.949 . S
H336 C313 0.950 . S
H337 C315 0.950 . S
C338 C339 1.349 . S
C338 C340 1.327 . S
C338 H363 0.950 . S
C339 C338 1.349 . S
C339 C355 1.349 . S
C340 C338 1.327 . S
C340 C359 1.429 . S
C340 H364 0.950 . S
C341 C358 1.574 . S
C341 C360 1.368 . S
C341 H365 0.949 . S
H342 C346 0.949 . S
C343 C344 1.349 . S
C343 C345 1.327 . S
C343 H366 0.950 . S
C344 C343 1.349 . S
C344 C356 1.349 . S
C345 C343 1.327 . S
C345 C361 1.429 . S
C345 H367 0.950 . S
C346 H342 0.949 . S
C346 C354 1.574 . S
C346 C362 1.368 . S
H347 C355 0.950 . S
H348 C353 0.950 . S
H349 C354 0.949 . S
H350 C356 0.950 . S
H351 C357 0.950 . S
H352 C358 0.949 . S
C353 H348 0.950 . S
C353 C355 1.327 . S
C353 C359 1.429 . S
C354 C346 1.574 . S
C354 H349 0.949 . S
C354 C360 1.368 . S
C355 C339 1.349 . S
C355 H347 0.950 . S
C355 C353 1.327 . S
C356 C344 1.349 . S
C356 H350 0.950 . S
C356 C357 1.327 . S
C357 H351 0.950 . S
C357 C356 1.327 . S
C357 C361 1.429 . S
C358 C341 1.574 . S
C358 H352 0.949 . S
C358 C362 1.368 . S
C359 C340 1.429 . S
C359 C353 1.429 . S
C359 C360 1.523 . S
C360 C341 1.368 . S
C360 C354 1.368 . S
C360 C359 1.523 . S
C361 C345 1.429 . S
C361 C357 1.429 . S
C361 C362 1.523 . S
C362 C346 1.368 . S
C362 C358 1.368 . S
C362 C361 1.523 . S
H363 C338 0.950 . S
H364 C340 0.950 . S
H365 C341 0.949 . S
H366 C343 0.950 . S
H367 C345 0.950 . S
C368 C369 1.352 1_545 S
C368 C370 1.327 . S
C368 H393 0.950 . S
C369 C368 1.352 1_565 S
C369 C385 1.346 . S
C370 C368 1.327 . S
C370 C389 1.417 1_545 S
C370 H394 0.950 . S
C371 C388 1.574 . S
C371 C390 1.390 . S
C371 H395 0.949 . S
H372 C376 0.949 . S
C373 C374 1.349 . S
C373 C375 1.327 . S
C373 H396 0.950 . S
C374 C373 1.349 . S
C374 C386 1.349 1_565 S
C375 C373 1.327 . S
C375 C391 1.429 . S
C375 H397 0.950 . S
C376 H372 0.949 . S
C376 C384 1.574 . S
C376 C392 1.332 1_545 S
H377 C385 0.950 . S
H378 C383 0.950 . S
H379 C384 0.949 . S
H380 C386 0.950 . S
H381 C387 0.950 1_554 S
H382 C388 0.949 1_556 S
C383 H378 0.950 . S
C383 C385 1.327 . S
C383 C389 1.442 . S
C384 C376 1.574 . S
C384 H379 0.949 . S
C384 C390 1.345 1_545 S
C385 C369 1.346 . S
C385 H377 0.950 . S
C385 C383 1.327 . S
C386 C374 1.349 1_545 S
C386 H380 0.950 . S
C386 C387 1.327 . S
C387 H381 0.950 1_556 S
C387 C386 1.327 . S
C387 C391 1.429 1_545 S
C388 C371 1.574 . S
C388 H382 0.949 1_554 S
C388 C392 1.409 . S
C389 C370 1.417 1_565 S
C389 C383 1.442 . S
C389 C390 1.524 . S
C390 C371 1.390 . S
C390 C384 1.345 1_565 S
C390 C389 1.524 . S
C391 C375 1.429 . S
C391 C387 1.429 1_565 S
C391 C392 1.519 1_556 S
C392 C376 1.332 1_565 S
C392 C388 1.409 . S
C392 C391 1.519 1_554 S
H393 C368 0.950 . S
H394 C370 0.950 . S
H395 C371 0.949 . S
H396 C373 0.950 . S
H397 C375 0.950 . S
C398 C399 1.349 . S
C398 C400 1.327 . S
C398 H423 0.950 . S
C399 C398 1.349 . S
C399 C415 1.349 . S
C400 C398 1.327 . S
C400 C419 1.429 . S
C400 H424 0.950 . S
C401 C418 1.574 . S
C401 C420 1.368 . S
C401 H425 0.949 . S
H402 C406 0.949 . S
C403 C404 1.349 . S
C403 C405 1.327 . S
C403 H426 0.950 . S
C404 C403 1.349 . S
C404 C416 1.349 . S
C405 C403 1.327 . S
C405 C421 1.429 . S
C405 H427 0.950 . S
C406 H402 0.949 . S
C406 C414 1.574 . S
C406 C422 1.368 . S
H407 C415 0.950 1_554 S
H408 C413 0.950 . S
H409 C414 0.949 . S
H410 C416 0.950 . S
H411 C417 0.950 . S
H412 C418 0.949 . S
C413 H408 0.950 . S
C413 C415 1.327 . S
C413 C419 1.429 . S
C414 C406 1.574 . S
C414 H409 0.949 . S
C414 C420 1.368 . S
C415 C399 1.349 . S
C415 H407 0.950 1_556 S
C415 C413 1.327 . S
C416 C404 1.349 . S
C416 H410 0.950 . S
C416 C417 1.327 . S
C417 H411 0.950 . S
C417 C416 1.327 . S
C417 C421 1.429 . S
C418 C401 1.574 . S
C418 H412 0.949 . S
C418 C422 1.368 . S
C419 C400 1.429 . S
C419 C413 1.429 . S
C419 C420 1.523 . S
C420 C401 1.368 . S
C420 C414 1.368 . S
C420 C419 1.523 . S
C421 C405 1.429 . S
C421 C417 1.429 . S
C421 C422 1.523 . S
C422 C406 1.368 . S
C422 C418 1.368 . S
C422 C421 1.523 . S
H423 C398 0.950 . S
H424 C400 0.950 . S
H425 C401 0.949 . S
H426 C403 0.950 . S
H427 C405 0.950 . S
C428 C429 1.349 . S
C428 C430 1.327 . S
C428 H453 0.950 . S
C429 C428 1.349 . S
C429 C445 1.349 . S
C430 C428 1.327 . S
C430 C449 1.429 . S
C430 H454 0.950 . S
C431 C448 1.574 . S
C431 C450 1.368 . S
C431 H455 0.949 . S
H432 C436 0.949 . S
C433 C434 1.349 . S
C433 C435 1.327 . S
C433 H456 0.950 . S
C434 C433 1.349 . S
C434 C446 1.349 . S
C435 C433 1.327 . S
C435 C451 1.429 . S
C435 H457 0.950 . S
C436 H432 0.949 . S
C436 C444 1.574 . S
C436 C452 1.368 . S
H437 C445 0.950 . S
H438 C443 0.950 . S
H439 C444 0.949 . S
H440 C446 0.950 . S
H441 C447 0.950 1_554 S
H442 C448 0.949 . S
C443 H438 0.950 . S
C443 C445 1.327 . S
C443 C449 1.429 . S
C444 C436 1.574 . S
C444 H439 0.949 . S
C444 C450 1.368 . S
C445 C429 1.349 . S
C445 H437 0.950 . S
C445 C443 1.327 . S
C446 C434 1.349 . S
C446 H440 0.950 . S
C446 C447 1.327 . S
C447 H441 0.950 1_556 S
C447 C446 1.327 . S
C447 C451 1.429 . S
C448 C431 1.574 . S
C448 H442 0.949 . S
C448 C452 1.368 . S
C449 C430 1.429 . S
C449 C443 1.429 . S
C449 C450 1.523 . S
C450 C431 1.368 . S
C450 C444 1.368 . S
C450 C449 1.523 . S
C451 C435 1.429 . S
C451 C447 1.429 . S
C451 C452 1.523 1_556 S
C452 C436 1.368 . S
C452 C448 1.368 . S
C452 C451 1.523 1_554 S
H453 C428 0.950 . S
H454 C430 0.950 . S
H455 C431 0.949 . S
H456 C433 0.950 . S
H457 C435 0.950 . S
C458 C459 1.349 . S
C458 C460 1.327 . S
C458 H483 0.950 . S
C459 C458 1.349 . S
C459 C475 1.349 . S
C460 C458 1.327 . S
C460 C479 1.429 . S
C460 H484 0.950 . S
C461 C478 1.573 1_654 S
C461 C480 1.368 . S
C461 H485 0.947 . S
H462 C466 0.949 . S
C463 C464 1.349 . S
C463 C465 1.327 . S
C463 H486 0.950 . S
C464 C463 1.349 . S
C464 C476 1.349 . S
C465 C463 1.327 . S
C465 C481 1.429 . S
C465 H487 0.950 . S
C466 H462 0.949 . S
C466 C474 1.571 1_455 S
C466 C482 1.368 . S
H467 C475 0.950 . S
H468 C473 0.950 . S
H469 C474 0.951 . S
H470 C476 0.950 . S
H471 C477 0.950 1_554 S
H472 C478 0.952 . S
C473 H468 0.950 . S
C473 C475 1.327 . S
C473 C479 1.429 . S
C474 C466 1.571 1_655 S
C474 H469 0.951 . S
C474 C480 1.370 . S
C475 C459 1.349 . S
C475 H467 0.950 . S
C475 C473 1.327 . S
C476 C464 1.349 . S
C476 H470 0.950 . S
C476 C477 1.327 . S
C477 H471 0.950 1_556 S
C477 C476 1.327 . S
C477 C481 1.429 . S
C478 C461 1.573 1_456 S
C478 H472 0.952 . S
C478 C482 1.367 1_556 S
C479 C460 1.429 . S
C479 C473 1.429 . S
C479 C480 1.523 . S
C480 C461 1.368 . S
C480 C474 1.370 . S
C480 C479 1.523 . S
C481 C465 1.429 . S
C481 C477 1.429 . S
C481 C482 1.523 1_556 S
C482 C466 1.368 . S
C482 C478 1.367 1_554 S
C482 C481 1.523 1_554 S
H483 C458 0.950 . S
H484 C460 0.950 . S
H485 C461 0.947 . S
H486 C463 0.950 . S
H487 C465 0.950 . S
C488 C489 1.349 . S
C488 C490 1.327 . S
C488 H513 0.950 . S
C489 C488 1.349 . S
C489 C505 1.349 . S
C490 C488 1.327 . S
C490 C509 1.429 . S
C490 H514 0.950 . S
C491 C508 1.574 . S
C491 C510 1.368 . S
C491 H515 0.949 . S
H492 C496 0.949 1_655 S
C493 C494 1.349 1_455 S
C493 C495 1.327 . S
C493 H516 0.950 . S
C494 C493 1.349 1_655 S
C494 C506 1.349 . S
C495 C493 1.327 . S
C495 C511 1.429 . S
C495 H517 0.950 . S
C496 H492 0.949 1_455 S
C496 C504 1.574 . S
C496 C512 1.368 . S
H497 C505 0.950 . S
H498 C503 0.950 . S
H499 C504 0.949 . S
H500 C506 0.950 . S
H501 C507 0.950 . S
H502 C508 0.949 . S
C503 H498 0.950 . S
C503 C505 1.327 . S
C503 C509 1.429 . S
C504 C496 1.574 . S
C504 H499 0.949 . S
C504 C510 1.368 . S
C505 C489 1.349 . S
C505 H497 0.950 . S
C505 C503 1.327 . S
C506 C494 1.349 . S
C506 H500 0.950 . S
C506 C507 1.327 . S
C507 H501 0.950 . S
C507 C506 1.327 . S
C507 C511 1.429 1_655 S
C508 C491 1.574 . S
C508 H502 0.949 . S
C508 C512 1.368 . S
C509 C490 1.429 . S
C509 C503 1.429 . S
C509 C510 1.523 . S
C510 C491 1.368 . S
C510 C504 1.368 . S
C510 C509 1.523 . S
C511 C495 1.429 . S
C511 C507 1.429 1_455 S
C511 C512 1.523 . S
C512 C496 1.368 . S
C512 C508 1.368 . S
C512 C511 1.523 . S
H513 C488 0.950 . S
H514 C490 0.950 . S
H515 C491 0.949 . S
H516 C493 0.950 . S
H517 C495 0.950 . S
C518 C519 1.349 1_565 S
C518 C520 1.327 . S
C518 H543 0.950 . S
C519 C518 1.349 1_545 S
C519 C535 1.349 . S
C520 C518 1.327 . S
C520 C539 1.429 . S
C520 H544 0.950 . S
C521 C538 1.574 . S
C521 C540 1.368 1_545 S
C521 H545 0.949 . S
H522 C526 0.949 . S
C523 C524 1.309 1_545 S
C523 C525 1.338 . S
C523 H546 0.980 . S
C524 C523 1.309 1_565 S
C524 C536 1.349 . S
C525 C523 1.338 . S
C525 C541 1.429 1_545 S
C525 H547 0.950 . S
C526 H522 0.949 . S
C526 C534 1.574 . S
C526 C542 1.368 . S
H527 C535 0.950 . S
H528 C533 0.950 . S
H529 C534 0.949 . S
H530 C536 0.950 . S
H531 C537 0.950 . S
H532 C538 0.949 . S
C533 H528 0.950 . S
C533 C535 1.327 . S
C533 C539 1.429 1_545 S
C534 C526 1.574 . S
C534 H529 0.949 . S
C534 C540 1.368 . S
C535 C519 1.349 . S
C535 H527 0.950 . S
C535 C533 1.327 . S
C536 C524 1.349 . S
C536 H530 0.950 . S
C536 C537 1.327 . S
C537 H531 0.950 . S
C537 C536 1.327 . S
C537 C541 1.429 . S
C538 C521 1.574 . S
C538 H532 0.949 . S
C538 C542 1.368 1_545 S
C539 C520 1.429 . S
C539 C533 1.429 1_565 S
C539 C540 1.523 . S
C540 C521 1.368 1_565 S
C540 C534 1.368 . S
C540 C539 1.523 . S
C541 C525 1.429 1_565 S
C541 C537 1.429 . S
C541 C542 1.523 . S
C542 C526 1.368 . S
C542 C538 1.368 1_565 S
C542 C541 1.523 . S
H543 C518 0.950 . S
H544 C520 0.950 . S
H545 C521 0.949 . S
H546 C523 0.980 . S
H547 C525 0.950 . S
C548 C549 1.349 . S
C548 C550 1.327 . S
C548 H573 0.950 . S
C549 C548 1.349 . S
C549 C565 1.349 . S
C550 C548 1.327 . S
C550 C569 1.429 . S
C550 H574 0.950 . S
C551 C568 1.574 . S
C551 C570 1.368 . S
C551 H575 0.949 . S
H552 C556 0.949 . S
C553 C554 1.349 . S
C553 C555 1.327 . S
C553 H576 0.950 . S
C554 C553 1.349 . S
C554 C566 1.349 . S
C555 C553 1.327 . S
C555 C571 1.429 . S
C555 H577 0.950 . S
C556 H552 0.949 . S
C556 C564 1.574 . S
C556 C572 1.368 . S
H557 C565 0.950 . S
H558 C563 0.950 . S
H559 C564 0.949 . S
H560 C566 0.950 . S
H561 C567 0.950 . S
H562 C568 0.949 . S
C563 H558 0.950 . S
C563 C565 1.327 . S
C563 C569 1.429 . S
C564 C556 1.574 . S
C564 H559 0.949 . S
C564 C570 1.368 . S
C565 C549 1.349 . S
C565 H557 0.950 . S
C565 C563 1.327 . S
C566 C554 1.349 . S
C566 H560 0.950 . S
C566 C567 1.327 . S
C567 H561 0.950 . S
C567 C566 1.327 . S
C567 C571 1.429 . S
C568 C551 1.574 . S
C568 H562 0.949 . S
C568 C572 1.368 . S
C569 C550 1.429 . S
C569 C563 1.429 . S
C569 C570 1.523 . S
C570 C551 1.368 . S
C570 C564 1.368 . S
C570 C569 1.523 . S
C571 C555 1.429 . S
C571 C567 1.429 . S
C571 C572 1.523 . S
C572 C556 1.368 . S
C572 C568 1.368 . S
C572 C571 1.523 . S
H573 C548 0.950 . S
H574 C550 0.950 . S
H575 C551 0.949 . S
H576 C553 0.950 . S
H577 C555 0.950 . S
C578 C579 1.349 . S
C578 C580 1.327 . S
C578 H603 0.950 . S
C579 C578 1.349 . S
C579 C595 1.349 . S
C580 C578 1.327 . S
C580 C599 1.429 . S
C580 H604 0.950 . S
C581 C598 1.574 . S
C581 C600 1.368 . S
C581 H605 0.949 . S
H582 C586 0.949 . S
C583 C584 1.349 . S
C583 C585 1.327 . S
C583 H606 0.950 . S
C584 C583 1.349 . S
C584 C596 1.349 . S
C585 C583 1.327 . S
C585 C601 1.429 . S
C585 H607 0.950 . S
C586 H582 0.949 . S
C586 C594 1.574 . S
C586 C602 1.368 . S
H587 C595 0.950 . S
H588 C593 0.950 . S
H589 C594 0.949 . S
H590 C596 0.950 . S
H591 C597 0.950 . S
H592 C598 0.949 . S
C593 H588 0.950 . S
C593 C595 1.327 . S
C593 C599 1.429 . S
C594 C586 1.574 . S
C594 H589 0.949 . S
C594 C600 1.368 . S
C595 C579 1.349 . S
C595 H587 0.950 . S
C595 C593 1.327 . S
C596 C584 1.349 . S
C596 H590 0.950 . S
C596 C597 1.327 . S
C597 H591 0.950 . S
C597 C596 1.327 . S
C597 C601 1.429 . S
C598 C581 1.574 . S
C598 H592 0.949 . S
C598 C602 1.368 . S
C599 C580 1.429 . S
C599 C593 1.429 . S
C599 C600 1.523 . S
C600 C581 1.368 . S
C600 C594 1.368 . S
C600 C599 1.523 . S
C601 C585 1.429 . S
C601 C597 1.429 . S
C601 C602 1.523 . S
C602 C586 1.368 . S
C602 C598 1.368 . S
C602 C601 1.523 . S
H603 C578 0.950 . S
H604 C580 0.950 . S
H605 C581 0.949 . S
H606 C583 0.950 . S
H607 C585 0.950 . S
C608 C609 1.349 . S
C608 C610 1.327 . S
C608 H633 0.950 . S
C609 C608 1.349 . S
C609 C625 1.349 1_655 S
C610 C608 1.327 . S
C610 C629 1.429 1_655 S
C610 H634 0.950 . S
C611 C628 1.574 . S
C611 C630 1.368 . S
C611 H635 0.949 . S
H612 C616 0.937 1_655 S
C613 C614 1.349 . S
C613 C615 1.327 . S
C613 H636 0.950 . S
C614 C613 1.349 . S
C614 C626 1.349 1_554 S
C615 C613 1.327 . S
C615 C631 1.429 . S
C615 H637 0.950 . S
C616 H612 0.937 1_455 S
C616 C624 1.568 1_455 S
C616 C632 1.388 . S
H617 C625 0.950 . S
H618 C623 0.950 . S
H619 C624 0.949 . S
H620 C626 0.950 . S
H621 C627 0.956 . S
H622 C628 0.949 . S
C623 H618 0.950 . S
C623 C625 1.327 . S
C623 C629 1.429 . S
C624 C616 1.568 1_655 S
C624 H619 0.949 . S
C624 C630 1.368 1_655 S
C625 C609 1.349 1_455 S
C625 H617 0.950 . S
C625 C623 1.327 . S
C626 C614 1.349 1_556 S
C626 H620 0.950 . S
C626 C627 1.327 1_556 S
C627 H621 0.956 . S
C627 C626 1.327 1_554 S
C627 C631 1.429 . S
C628 C611 1.574 . S
C628 H622 0.949 . S
C628 C632 1.368 . S
C629 C610 1.429 1_455 S
C629 C623 1.429 . S
C629 C630 1.523 . S
C630 C611 1.368 . S
C630 C624 1.368 1_455 S
C630 C629 1.523 . S
C631 C615 1.429 . S
C631 C627 1.429 . S
C631 C632 1.523 . S
C632 C616 1.388 . S
C632 C628 1.368 . S
C632 C631 1.523 . S
H633 C608 0.950 . S
H634 C610 0.950 . S
H635 C611 0.949 . S
H636 C613 0.950 . S
H637 C615 0.950 . S
C638 C639 1.296 1_545 S
C638 C640 1.327 . S
C638 H663 0.950 . S
C639 C638 1.296 1_565 S
C639 C655 1.390 . S
C640 C638 1.327 . S
C640 C659 1.429 . S
C640 H664 0.950 . S
C641 C658 1.574 . S
C641 C660 1.368 1_565 S
C641 H665 0.949 . S
H642 C646 0.949 . S
C643 C644 1.379 . S
C643 C645 1.320 1_545 S
C643 H666 0.927 1_545 S
C644 C643 1.379 . S
C644 C656 1.349 . S
C645 C643 1.320 1_565 S
C645 C661 1.429 1_565 S
C645 H667 0.950 . S
C646 H642 0.949 . S
C646 C654 1.574 . S
C646 C662 1.368 . S
H647 C655 0.950 . S
H648 C653 0.950 . S
H649 C654 0.949 . S
H650 C656 0.950 . S
H651 C657 0.950 . S
H652 C658 0.949 . S
C653 H648 0.950 . S
C653 C655 1.327 . S
C653 C659 1.429 1_565 S
C654 C646 1.574 . S
C654 H649 0.949 . S
C654 C660 1.368 . S
C655 C639 1.390 . S
C655 H647 0.950 . S
C655 C653 1.327 . S
C656 C644 1.349 . S
C656 H650 0.950 . S
C656 C657 1.327 . S
C657 H651 0.950 . S
C657 C656 1.327 . S
C657 C661 1.429 . S
C658 C641 1.574 . S
C658 H652 0.949 . S
C658 C662 1.368 1_565 S
C659 C640 1.429 . S
C659 C653 1.429 1_545 S
C659 C660 1.523 . S
C660 C641 1.368 1_545 S
C660 C654 1.368 . S
C660 C659 1.523 . S
C661 C645 1.429 1_545 S
C661 C657 1.429 . S
C661 C662 1.523 . S
C662 C646 1.368 . S
C662 C658 1.368 1_545 S
C662 C661 1.523 . S
H663 C638 0.950 . S
H664 C640 0.950 . S
H665 C641 0.949 . S
H666 C643 0.927 1_565 S
H667 C645 0.950 . S
C668 C669 1.349 . S
C668 C670 1.327 . S
C668 H693 0.950 1_556 S
C669 C668 1.349 . S
C669 C685 1.349 . S
C670 C668 1.327 . S
C670 C689 1.429 . S
C670 H694 0.951 . S
C671 C688 1.574 . S
C671 C690 1.368 . S
C671 H695 0.949 . S
H672 C676 0.949 . S
C673 C674 1.349 . S
C673 C675 1.327 . S
C673 H696 0.950 . S
C674 C673 1.349 . S
C674 C686 1.349 . S
C675 C673 1.327 . S
C675 C691 1.429 . S
C675 H697 0.950 . S
C676 H672 0.949 . S
C676 C684 1.574 . S
C676 C692 1.368 . S
H677 C685 0.950 . S
H678 C683 0.950 . S
H679 C684 0.949 . S
H680 C686 0.950 . S
H681 C687 0.950 . S
H682 C688 0.949 . S
C683 H678 0.950 . S
C683 C685 1.327 . S
C683 C689 1.429 . S
C684 C676 1.574 . S
C684 H679 0.949 . S
C684 C690 1.368 . S
C685 C669 1.349 . S
C685 H677 0.950 . S
C685 C683 1.327 . S
C686 C674 1.349 . S
C686 H680 0.950 . S
C686 C687 1.327 . S
C687 H681 0.950 . S
C687 C686 1.327 . S
C687 C691 1.429 . S
C688 C671 1.574 . S
C688 H682 0.949 . S
C688 C692 1.368 . S
C689 C670 1.429 . S
C689 C683 1.429 . S
C689 C690 1.523 . S
C690 C671 1.368 . S
C690 C684 1.368 . S
C690 C689 1.523 . S
C691 C675 1.429 . S
C691 C687 1.429 . S
C691 C692 1.523 . S
C692 C676 1.368 . S
C692 C688 1.368 . S
C692 C691 1.523 . S
H693 C668 0.950 1_554 S
H694 C670 0.951 . S
H695 C671 0.949 . S
H696 C673 0.950 . S
H697 C675 0.950 . S
C698 C699 1.349 . S
C698 C700 1.327 . S
C698 H723 0.950 . S
C699 C698 1.349 . S
C699 C715 1.349 . S
C700 C698 1.327 . S
C700 C719 1.429 . S
C700 H724 0.950 . S
C701 C718 1.574 . S
C701 C720 1.368 . S
C701 H725 0.949 . S
H702 C706 0.949 . S
C703 C704 1.349 . S
C703 C705 1.327 . S
C703 H726 0.950 1_554 S
C704 C703 1.349 . S
C704 C716 1.349 . S
C705 C703 1.327 . S
C705 C721 1.429 . S
C705 H727 0.950 . S
C706 H702 0.949 . S
C706 C714 1.574 . S
C706 C722 1.368 . S
H707 C715 0.950 . S
H708 C713 0.950 . S
H709 C714 0.949 . S
H710 C716 0.950 . S
H711 C717 0.950 . S
H712 C718 0.949 . S
C713 H708 0.950 . S
C713 C715 1.327 . S
C713 C719 1.429 . S
C714 C706 1.574 . S
C714 H709 0.949 . S
C714 C720 1.368 . S
C715 C699 1.349 . S
C715 H707 0.950 . S
C715 C713 1.327 . S
C716 C704 1.349 . S
C716 H710 0.950 . S
C716 C717 1.327 . S
C717 H711 0.950 . S
C717 C716 1.327 . S
C717 C721 1.429 . S
C718 C701 1.574 . S
C718 H712 0.949 . S
C718 C722 1.368 . S
C719 C700 1.429 . S
C719 C713 1.429 . S
C719 C720 1.523 . S
C720 C701 1.368 . S
C720 C714 1.368 . S
C720 C719 1.523 . S
C721 C705 1.429 . S
C721 C717 1.429 . S
C721 C722 1.523 . S
C722 C706 1.368 . S
C722 C718 1.368 . S
C722 C721 1.523 . S
H723 C698 0.950 . S
H724 C700 0.950 . S
H725 C701 0.949 . S
H726 C703 0.950 1_556 S
H727 C705 0.950 . S
C728 C729 1.349 . S
C728 C730 1.327 . S
C728 H753 0.950 . S
C729 C728 1.349 . S
C729 C745 1.349 . S
C730 C728 1.327 . S
C730 C749 1.429 . S
C730 H754 0.950 . S
C731 C748 1.574 . S
C731 C750 1.368 1_556 S
C731 H755 0.949 . S
H732 C736 0.949 . S
C733 C734 1.349 . S
C733 C735 1.327 . S
C733 H756 0.950 . S
C734 C733 1.349 . S
C734 C746 1.349 . S
C735 C733 1.327 . S
C735 C751 1.429 . S
C735 H757 0.950 . S
C736 H732 0.949 . S
C736 C744 1.574 . S
C736 C752 1.368 1_554 S
H737 C745 0.950 . S
H738 C743 0.950 1_556 S
H739 C744 0.949 . S
H740 C746 0.950 . S
H741 C747 0.950 1_554 S
H742 C748 0.949 . S
C743 H738 0.950 1_554 S
C743 C745 1.327 . S
C743 C749 1.429 . S
C744 C736 1.574 . S
C744 H739 0.949 . S
C744 C750 1.368 . S
C745 C729 1.349 . S
C745 H737 0.950 . S
C745 C743 1.327 . S
C746 C734 1.349 . S
C746 H740 0.950 . S
C746 C747 1.327 . S
C747 H741 0.950 1_556 S
C747 C746 1.327 . S
C747 C751 1.429 . S
C748 C731 1.574 . S
C748 H742 0.949 . S
C748 C752 1.368 . S
C749 C730 1.429 . S
C749 C743 1.429 . S
C749 C750 1.523 . S
C750 C731 1.368 1_554 S
C750 C744 1.368 . S
C750 C749 1.523 . S
C751 C735 1.429 . S
C751 C747 1.429 . S
C751 C752 1.523 . S
C752 C736 1.368 1_556 S
C752 C748 1.368 . S
C752 C751 1.523 . S
H753 C728 0.950 . S
H754 C730 0.950 . S
H755 C731 0.949 . S
H756 C733 0.950 . S
H757 C735 0.950 . S
C758 C759 1.375 . S
C758 C760 1.327 . S
C758 H783 0.950 . S
C759 C758 1.375 . S
C759 C775 1.325 1_544 S
C760 C758 1.327 . S
C760 C779 1.429 . S
C760 H784 0.950 . S
C761 C778 1.574 . S
C761 C780 1.368 1_565 S
C761 H785 0.949 . S
H762 C766 0.949 1_554 S
C763 C764 1.349 1_565 S
C763 C765 1.327 . S
C763 H786 0.950 . S
C764 C763 1.349 1_545 S
C764 C776 1.349 . S
C765 C763 1.327 . S
C765 C781 1.429 1_565 S
C765 H787 0.950 . S
C766 H762 0.949 1_556 S
C766 C774 1.574 1_556 S
C766 C782 1.368 . S
H767 C775 0.950 . S
H768 C773 0.950 . S
H769 C774 0.949 . S
H770 C776 0.950 . S
H771 C777 0.950 . S
H772 C778 0.949 . S
C773 H768 0.950 . S
C773 C775 1.327 . S
C773 C779 1.429 1_566 S
C774 C766 1.574 1_554 S
C774 H769 0.949 . S
C774 C780 1.368 1_554 S
C775 C759 1.325 1_566 S
C775 H767 0.950 . S
C775 C773 1.327 . S
C776 C764 1.349 . S
C776 H770 0.950 . S
C776 C777 1.327 . S
C777 H771 0.950 . S
C777 C776 1.327 . S
C777 C781 1.429 . S
C778 C761 1.574 . S
C778 H772 0.949 . S
C778 C782 1.368 1_565 S
C779 C760 1.429 . S
C779 C773 1.429 1_544 S
C779 C780 1.523 1_554 S
C780 C761 1.368 1_545 S
C780 C774 1.368 1_556 S
C780 C779 1.523 1_556 S
C781 C765 1.429 1_545 S
C781 C777 1.429 . S
C781 C782 1.523 . S
C782 C766 1.368 . S
C782 C778 1.368 1_545 S
C782 C781 1.523 . S
H783 C758 0.950 . S
H784 C760 0.950 . S
H785 C761 0.949 . S
H786 C763 0.950 . S
H787 C765 0.950 . S
C788 C789 1.349 . S
C788 C790 1.327 . S
C788 H813 0.950 . S
C789 C788 1.349 . S
C789 C805 1.349 . S
C790 C788 1.327 . S
C790 C809 1.429 . S
C790 H814 0.950 . S
C791 C808 1.574 . S
C791 C810 1.368 . S
C791 H815 0.949 . S
H792 C796 0.949 . S
C793 C794 1.349 . S
C793 C795 1.327 . S
C793 H816 0.950 . S
C794 C793 1.349 . S
C794 C806 1.349 . S
C795 C793 1.327 . S
C795 C811 1.429 . S
C795 H817 0.950 . S
C796 H792 0.949 . S
C796 C804 1.574 . S
C796 C812 1.368 . S
H797 C805 0.950 . S
H798 C803 0.950 . S
H799 C804 0.949 . S
H800 C806 0.950 . S
H801 C807 0.950 . S
H802 C808 0.949 . S
C803 H798 0.950 . S
C803 C805 1.327 . S
C803 C809 1.429 . S
C804 C796 1.574 . S
C804 H799 0.949 . S
C804 C810 1.368 . S
C805 C789 1.349 . S
C805 H797 0.950 . S
C805 C803 1.327 . S
C806 C794 1.349 . S
C806 H800 0.950 . S
C806 C807 1.327 . S
C807 H801 0.950 . S
C807 C806 1.327 . S
C807 C811 1.429 . S
C808 C791 1.574 . S
C808 H802 0.949 . S
C808 C812 1.368 . S
C809 C790 1.429 . S
C809 C803 1.429 . S
C809 C810 1.523 . S
C810 C791 1.368 . S
C810 C804 1.368 . S
C810 C809 1.523 . S
C811 C795 1.429 . S
C811 C807 1.429 . S
C811 C812 1.523 . S
C812 C796 1.368 . S
C812 C808 1.368 . S
C812 C811 1.523 . S
H813 C788 0.950 . S
H814 C790 0.950 . S
H815 C791 0.949 . S
H816 C793 0.950 . S
H817 C795 0.950 . S
C818 C819 1.349 . S
C818 C820 1.327 . S
C818 H843 0.950 . S
C819 C818 1.349 . S
C819 C835 1.349 1_554 S
C820 C818 1.327 . S
C820 C839 1.429 1_554 S
C820 H844 0.950 . S
C821 C838 1.574 . S
C821 C840 1.368 . S
C821 H845 0.949 . S
H822 C826 0.950 . S
C823 C824 1.349 . S
C823 C825 1.327 . S
C823 H846 0.950 . S
C824 C823 1.349 . S
C824 C836 1.349 . S
C825 C823 1.327 . S
C825 C841 1.429 . S
C825 H847 0.950 . S
C826 H822 0.950 . S
C826 C834 1.574 . S
C826 C842 1.367 1_554 S
H827 C835 0.950 . S
H828 C833 0.950 . S
H829 C834 0.949 . S
H830 C836 0.950 . S
H831 C837 0.951 1_554 S
H832 C838 0.949 . S
C833 H828 0.950 . S
C833 C835 1.327 . S
C833 C839 1.429 . S
C834 C826 1.574 . S
C834 H829 0.949 . S
C834 C840 1.368 1_554 S
C835 C819 1.349 1_556 S
C835 H827 0.950 . S
C835 C833 1.327 . S
C836 C824 1.349 . S
C836 H830 0.950 . S
C836 C837 1.327 . S
C837 H831 0.951 1_556 S
C837 C836 1.327 . S
C837 C841 1.429 . S
C838 C821 1.574 . S
C838 H832 0.949 . S
C838 C842 1.368 . S
C839 C820 1.429 1_556 S
C839 C833 1.429 . S
C839 C840 1.523 . S
C840 C821 1.368 . S
C840 C834 1.368 1_556 S
C840 C839 1.523 . S
C841 C825 1.429 . S
C841 C837 1.429 . S
C841 C842 1.523 . S
C842 C826 1.367 1_556 S
C842 C838 1.368 . S
C842 C841 1.523 . S
H843 C818 0.950 . S
H844 C820 0.950 . S
H845 C821 0.949 . S
H846 C823 0.950 . S
H847 C825 0.950 . S
C848 C849 1.349 . S
C848 C850 1.327 . S
C848 H873 0.950 . S
C849 C848 1.349 . S
C849 C865 1.349 1_655 S
C850 C848 1.327 . S
C850 C869 1.429 . S
C850 H874 0.950 . S
C851 C868 1.574 . S
C851 C870 1.368 1_455 S
C851 H875 0.949 . S
H852 C856 0.949 . S
C853 C854 1.345 . S
C853 C855 1.327 . S
C853 H876 0.950 . S
C854 C853 1.345 . S
C854 C866 1.352 1_455 S
C855 C853 1.327 . S
C855 C871 1.429 1_455 S
C855 H877 0.950 . S
C856 H852 0.949 . S
C856 C864 1.574 . S
C856 C872 1.368 . S
H857 C865 0.950 . S
H858 C863 0.950 . S
H859 C864 0.949 . S
H860 C866 0.950 . S
H861 C867 0.950 . S
H862 C868 0.949 . S
C863 H858 0.950 . S
C863 C865 1.327 . S
C863 C869 1.429 1_455 S
C864 C856 1.574 . S
C864 H859 0.949 . S
C864 C870 1.368 . S
C865 C849 1.349 1_455 S
C865 H857 0.950 . S
C865 C863 1.327 . S
C866 C854 1.352 1_655 S
C866 H860 0.950 . S
C866 C867 1.327 . S
C867 H861 0.950 . S
C867 C866 1.327 . S
C867 C871 1.429 . S
C868 C851 1.574 . S
C868 H862 0.949 . S
C868 C872 1.368 1_455 S
C869 C850 1.429 . S
C869 C863 1.429 1_655 S
C869 C870 1.523 . S
C870 C851 1.368 1_655 S
C870 C864 1.368 . S
C870 C869 1.523 . S
C871 C855 1.429 1_655 S
C871 C867 1.429 . S
C871 C872 1.523 . S
C872 C856 1.368 . S
C872 C868 1.368 1_655 S
C872 C871 1.523 . S
H873 C848 0.950 . S
H874 C850 0.950 . S
H875 C851 0.949 . S
H876 C853 0.950 . S
H877 C855 0.950 . S
C878 C879 1.330 1_545 S
C878 C880 1.327 . S
C878 H903 0.950 . S
C879 C878 1.330 1_565 S
C879 C895 1.369 . S
C880 C878 1.327 . S
C880 C899 1.429 1_545 S
C880 H904 0.950 . S
C881 C898 1.574 . S
C881 C900 1.368 . S
C881 H905 0.949 . S
H882 C886 0.949 . S
C883 C884 1.349 . S
C883 C885 1.327 . S
C883 H906 0.950 . S
C884 C883 1.349 . S
C884 C896 1.349 1_565 S
C885 C883 1.327 . S
C885 C901 1.429 . S
C885 H907 0.950 . S
C886 H882 0.949 . S
C886 C894 1.574 . S
C886 C902 1.368 1_545 S
H887 C895 0.950 . S
H888 C893 0.950 . S
H889 C894 0.949 . S
H890 C896 0.950 . S
H891 C897 0.950 . S
H892 C898 0.949 . S
C893 H888 0.950 . S
C893 C895 1.327 . S
C893 C899 1.429 . S
C894 C886 1.574 . S
C894 H889 0.949 . S
C894 C900 1.368 1_545 S
C895 C879 1.369 . S
C895 H887 0.950 . S
C895 C893 1.327 . S
C896 C884 1.349 1_545 S
C896 H890 0.950 . S
C896 C897 1.327 . S
C897 H891 0.950 . S
C897 C896 1.327 . S
C897 C901 1.429 1_545 S
C898 C881 1.574 . S
C898 H892 0.949 . S
C898 C902 1.368 . S
C899 C880 1.429 1_565 S
C899 C893 1.429 . S
C899 C900 1.523 . S
C900 C881 1.368 . S
C900 C894 1.368 1_565 S
C900 C899 1.523 . S
C901 C885 1.429 . S
C901 C897 1.429 1_565 S
C901 C902 1.523 . S
C902 C886 1.368 1_565 S
C902 C898 1.368 . S
C902 C901 1.523 . S
H903 C878 0.950 . S
H904 C880 0.950 . S
H905 C881 0.949 . S
H906 C883 0.950 . S
H907 C885 0.950 . S
C908 C909 1.349 . S
C908 C910 1.327 . S
C908 H933 0.950 . S
C909 C908 1.349 . S
C909 C925 1.349 . S
C910 C908 1.327 . S
C910 C929 1.429 . S
C910 H934 0.950 . S
C911 C928 1.574 . S
C911 C930 1.368 . S
C911 H935 0.949 . S
H912 C916 0.949 . S
C913 C914 1.349 . S
C913 C915 1.327 . S
C913 H936 0.950 . S
C914 C913 1.349 . S
C914 C926 1.349 . S
C915 C913 1.327 . S
C915 C931 1.429 . S
C915 H937 0.950 . S
C916 H912 0.949 . S
C916 C924 1.574 . S
C916 C932 1.368 . S
H917 C925 0.950 . S
H918 C923 0.950 . S
H919 C924 0.949 . S
H920 C926 0.950 . S
H921 C927 0.950 . S
H922 C928 0.949 . S
C923 H918 0.950 . S
C923 C925 1.327 . S
C923 C929 1.429 . S
C924 C916 1.574 . S
C924 H919 0.949 . S
C924 C930 1.368 . S
C925 C909 1.349 . S
C925 H917 0.950 . S
C925 C923 1.327 . S
C926 C914 1.349 . S
C926 H920 0.950 . S
C926 C927 1.327 . S
C927 H921 0.950 . S
C927 C926 1.327 . S
C927 C931 1.429 . S
C928 C911 1.574 . S
C928 H922 0.949 . S
C928 C932 1.368 . S
C929 C910 1.429 . S
C929 C923 1.429 . S
C929 C930 1.523 . S
C930 C911 1.368 . S
C930 C924 1.368 . S
C930 C929 1.523 . S
C931 C915 1.429 . S
C931 C927 1.429 . S
C931 C932 1.523 . S
C932 C916 1.368 . S
C932 C928 1.368 . S
C932 C931 1.523 . S
H933 C908 0.950 . S
H934 C910 0.950 . S
H935 C911 0.949 . S
H936 C913 0.950 . S
H937 C915 0.950 . S
C938 C939 1.349 . S
C938 C940 1.327 . S
C938 H963 0.950 . S
C939 C938 1.349 . S
C939 C955 1.349 . S
C940 C938 1.327 . S
C940 C959 1.429 . S
C940 H964 0.950 . S
C941 C958 1.574 . S
C941 C960 1.368 . S
C941 H965 0.949 . S
H942 C946 0.949 . S
C943 C944 1.349 . S
C943 C945 1.327 . S
C943 H966 0.950 . S
C944 C943 1.349 . S
C944 C956 1.349 . S
C945 C943 1.327 . S
C945 C961 1.429 . S
C945 H967 0.950 . S
C946 H942 0.949 . S
C946 C954 1.574 . S
C946 C962 1.368 . S
H947 C955 0.950 . S
H948 C953 0.950 . S
H949 C954 0.949 . S
H950 C956 0.950 . S
H951 C957 0.950 . S
H952 C958 0.949 . S
C953 H948 0.950 . S
C953 C955 1.327 . S
C953 C959 1.429 . S
C954 C946 1.574 . S
C954 H949 0.949 . S
C954 C960 1.368 . S
C955 C939 1.349 . S
C955 H947 0.950 . S
C955 C953 1.327 . S
C956 C944 1.349 . S
C956 H950 0.950 . S
C956 C957 1.327 . S
C957 H951 0.950 . S
C957 C956 1.327 . S
C957 C961 1.429 . S
C958 C941 1.574 . S
C958 H952 0.949 . S
C958 C962 1.368 . S
C959 C940 1.429 . S
C959 C953 1.429 . S
C959 C960 1.523 . S
C960 C941 1.368 . S
C960 C954 1.368 . S
C960 C959 1.523 . S
C961 C945 1.429 . S
C961 C957 1.429 . S
C961 C962 1.523 . S
C962 C946 1.368 . S
C962 C958 1.368 . S
C962 C961 1.523 . S
H963 C938 0.950 . S
H964 C940 0.950 . S
H965 C941 0.949 . S
H966 C943 0.950 . S
H967 C945 0.950 . S
C249 C76 1.767 1_545 S
C254 C111 1.853 1_545 S
C284 C151 1.669 . S
C279 C87 1.668 . S
C314 C170 1.864 . S
C309 C54 1.777 . S
C344 C231 1.349 . S
C339 C65 1.298 . S
C374 C90 1.853 1_565 S
C369 C32 1.764 . S
C399 C43 1.678 . S
C404 C130 1.676 . S
C429 C10 1.778 . S
C434 C191 1.863 . S
C459 C21 1.301 . S
C464 C210 1.349 . S
C494 C92 0.649 . S
C489 C60 0.647 . S
C524 C132 0.236 . S
C519 C71 0.311 . S
C554 C188 0.635 . S
C549 C82 0.672 . S
C579 C49 0.325 . S
C584 C212 0.279 . S
C609 C16 0.653 . S
C614 C113 0.644 1_554 S
C644 C153 0.236 . S
C639 C27 0.320 1_565 S
C674 C199 0.635 . S
C669 C38 0.676 . S
C699 C5 0.339 . S
C704 C233 0.279 . S
C729 C59 1.401 . S
C734 C108 1.509 . S
C759 C70 2.032 . S
C764 C148 2.204 . S
C794 C172 1.453 . S
C789 C81 1.428 . S
C824 C228 2.199 . S
C819 C48 2.030 . S
C849 C15 1.399 . S
C854 C119 1.521 . S
C884 C159 2.203 . S
C879 C26 2.027 1_565 S
C914 C193 1.453 . S
C909 C37 1.427 . S
C939 C4 2.030 . S
C944 C239 2.199 . S
