# Generated by pormake.
# Topology pto, (3,4)-cn, num edge types: 1
# Building blocks:
#     Node 0, Type 0, BuildingBlock: WUSLED_clean_sbu_0, # of connection points: 3
#     Node 1, Type 0, BuildingBlock: WUSLED_clean_sbu_0, # of connection points: 3
#     Node 2, Type 0, BuildingBlock: WUSLED_clean_sbu_0, # of connection points: 3
#     Node 3, Type 0, BuildingBlock: WUSLED_clean_sbu_0, # of connection points: 3
#     Node 4, Type 0, BuildingBlock: WUSLED_clean_sbu_0, # of connection points: 3
#     Node 5, Type 0, BuildingBlock: WUSLED_clean_sbu_0, # of connection points: 3
#     Node 6, Type 0, BuildingBlock: WUSLED_clean_sbu_0, # of connection points: 3
#     Node 7, Type 0, BuildingBlock: WUSLED_clean_sbu_0, # of connection points: 3
#     Node 8, Type 1, BuildingBlock: NAHDIM_clean_linker_0, # of connection points: 4
#     Node 9, Type 1, BuildingBlock: NAHDIM_clean_linker_0, # of connection points: 4
#     Node 10, Type 1, BuildingBlock: NAHDIM_clean_linker_0, # of connection points: 4
#     Node 11, Type 1, BuildingBlock: NAHDIM_clean_linker_0, # of connection points: 4
#     Node 12, Type 1, BuildingBlock: NAHDIM_clean_linker_0, # of connection points: 4
#     Node 13, Type 1, BuildingBlock: NAHDIM_clean_linker_0, # of connection points: 4
#     Edge 14, Type (0, 1), BuildingBlock: TEMPAE_clean_linker_10, # of connection points: 2
#     Edge 15, Type (0, 1), BuildingBlock: TEMPAE_clean_linker_10, # of connection points: 2
#     Edge 16, Type (0, 1), BuildingBlock: TEMPAE_clean_linker_10, # of connection points: 2
#     Edge 17, Type (0, 1), BuildingBlock: TEMPAE_clean_linker_10, # of connection points: 2
#     Edge 18, Type (0, 1), BuildingBlock: TEMPAE_clean_linker_10, # of connection points: 2
#     Edge 19, Type (0, 1), BuildingBlock: TEMPAE_clean_linker_10, # of connection points: 2
#     Edge 20, Type (0, 1), BuildingBlock: TEMPAE_clean_linker_10, # of connection points: 2
#     Edge 21, Type (0, 1), BuildingBlock: TEMPAE_clean_linker_10, # of connection points: 2
#     Edge 22, Type (0, 1), BuildingBlock: TEMPAE_clean_linker_10, # of connection points: 2
#     Edge 23, Type (0, 1), BuildingBlock: TEMPAE_clean_linker_10, # of connection points: 2
#     Edge 24, Type (0, 1), BuildingBlock: TEMPAE_clean_linker_10, # of connection points: 2
#     Edge 25, Type (0, 1), BuildingBlock: TEMPAE_clean_linker_10, # of connection points: 2
#     Edge 26, Type (0, 1), BuildingBlock: TEMPAE_clean_linker_10, # of connection points: 2
#     Edge 27, Type (0, 1), BuildingBlock: TEMPAE_clean_linker_10, # of connection points: 2
#     Edge 28, Type (0, 1), BuildingBlock: TEMPAE_clean_linker_10, # of connection points: 2
#     Edge 29, Type (0, 1), BuildingBlock: TEMPAE_clean_linker_10, # of connection points: 2
#     Edge 30, Type (0, 1), BuildingBlock: TEMPAE_clean_linker_10, # of connection points: 2
#     Edge 31, Type (0, 1), BuildingBlock: TEMPAE_clean_linker_10, # of connection points: 2
#     Edge 32, Type (0, 1), BuildingBlock: TEMPAE_clean_linker_10, # of connection points: 2
#     Edge 33, Type (0, 1), BuildingBlock: TEMPAE_clean_linker_10, # of connection points: 2
#     Edge 34, Type (0, 1), BuildingBlock: TEMPAE_clean_linker_10, # of connection points: 2
#     Edge 35, Type (0, 1), BuildingBlock: TEMPAE_clean_linker_10, # of connection points: 2
#     Edge 36, Type (0, 1), BuildingBlock: TEMPAE_clean_linker_10, # of connection points: 2
#     Edge 37, Type (0, 1), BuildingBlock: TEMPAE_clean_linker_10, # of connection points: 2
# Relax obj value: 0.001
# Max RMSD: 0.071
# Mean RMSD: 0.020
data_MOF--net-pto--node1-WUSLED_clean_sbu_0--node2-NAHDIM_clean_linker_0--edge1-TEMPAE_clean_linker_10
_symmetry_space_group_name_H-M    P1
_symmetry_Int_Tables_number       1
_symmetry_cell_setting            triclinic
loop_
_symmetry_equiv_pos_as_xyz
'x, y, z'
_cell_length_a     75.395507
_cell_length_b     71.729599
_cell_length_c     67.806486
_cell_angle_alpha  89.077442
_cell_angle_beta   90.863772
_cell_angle_gamma 90.530859
loop_
_atom_site_label
_atom_site_type_symbol
_atom_site_fract_x
_atom_site_fract_y
_atom_site_fract_z
_atom_type_partial_charge
C0 C 0.25657 0.25093 0.30212 0.0
C1 C 0.26858 0.23687 0.29748 0.0
C2 C 0.26201 0.22052 0.32833 0.0
C3 C 0.27122 0.22175 0.31045 0.0
C4 C 0.24999 0.23466 0.33286 0.0
C5 C 0.2473 0.24971 0.31985 0.0
U6 U 0.27105 0.28241 0.25933 0.0
O7 O 0.25528 0.29539 0.23533 0.0
O8 O 0.27011 0.31295 0.25616 0.0
C9 C 0.25836 0.31236 0.24165 0.0
C10 C 0.2538 0.26707 0.28884 0.0
C11 C 0.2425 0.32376 0.24425 0.0
C12 C 0.21617 0.33141 0.26258 0.0
C13 C 0.23148 0.32078 0.26051 0.0
C14 C 0.22281 0.34812 0.2322 0.0
C15 C 0.2116 0.34515 0.24839 0.0
C16 C 0.23812 0.33751 0.23017 0.0
C17 C 0.31425 0.27186 0.23284 0.0
C18 C 0.32383 0.2883 0.20319 0.0
C19 C 0.34372 0.26684 0.22014 0.0
C20 C 0.33073 0.26303 0.23415 0.0
C21 C 0.34045 0.27955 0.20452 0.0
C22 C 0.31085 0.28453 0.21729 0.0
C23 C 0.30092 0.26776 0.24793 0.0
O24 O 0.26524 0.28084 0.29102 0.0
O25 O 0.25044 0.26317 0.27027 0.0
O26 O 0.28525 0.26235 0.2413 0.0
O27 O 0.30005 0.27992 0.26216 0.0
H28 H 0.27596 0.23767 0.2839 0.0
H29 H 0.28071 0.21119 0.30666 0.0
H30 H 0.24258 0.23401 0.34642 0.0
H31 H 0.23799 0.26045 0.32365 0.0
H32 H 0.20795 0.32889 0.27533 0.0
H33 H 0.23468 0.31018 0.27153 0.0
H34 H 0.21955 0.35838 0.22085 0.0
H35 H 0.24646 0.33992 0.21748 0.0
H36 H 0.32099 0.2983 0.19145 0.0
H37 H 0.3563 0.25972 0.22144 0.0
H38 H 0.33356 0.25319 0.24605 0.0
H39 H 0.2982 0.29155 0.21613 0.0
C40 C 0.25037 0.77574 0.70436 0.0
C41 C 0.26685 0.78402 0.70002 0.0
C42 C 0.25197 0.80922 0.68203 0.0
C43 C 0.26764 0.80059 0.68883 0.0
C44 C 0.23554 0.80082 0.68643 0.0
C45 C 0.23477 0.78424 0.69747 0.0
U46 U 0.26768 0.74165 0.74412 0.0
O47 O 0.25321 0.72672 0.76748 0.0
O48 O 0.26696 0.71091 0.74494 0.0
C49 C 0.25602 0.71029 0.75986 0.0
C50 C 0.24901 0.75843 0.71622 0.0
C51 C 0.24033 0.69805 0.75747 0.0
C52 C 0.20849 0.69342 0.75323 0.0
C53 C 0.22323 0.70536 0.75464 0.0
C54 C 0.22779 0.66674 0.75688 0.0
C55 C 0.21056 0.67394 0.75446 0.0
C56 C 0.24248 0.67868 0.75844 0.0
C57 C 0.31088 0.75161 0.77204 0.0
C58 C 0.32167 0.73097 0.79824 0.0
C59 C 0.33715 0.76001 0.79115 0.0
C60 C 0.32488 0.76402 0.77605 0.0
C61 C 0.33564 0.7435 0.80253 0.0
C62 C 0.30938 0.73501 0.78313 0.0
C63 C 0.29763 0.75648 0.75676 0.0
O64 O 0.26077 0.74551 0.71271 0.0
O65 O 0.24622 0.7607 0.73511 0.0
O66 O 0.28204 0.76116 0.76342 0.0
O67 O 0.2966 0.74521 0.74168 0.0
H68 H 0.27905 0.77772 0.70534 0.0
H69 H 0.28047 0.80682 0.68578 0.0
H70 H 0.22326 0.80699 0.68118 0.0
H71 H 0.22194 0.77805 0.70067 0.0
H72 H 0.19544 0.69948 0.75156 0.0
H73 H 0.22122 0.72028 0.75374 0.0
H74 H 0.22996 0.65184 0.75748 0.0
H75 H 0.25556 0.67276 0.7605 0.0
H76 H 0.32023 0.71805 0.80657 0.0
H77 H 0.34757 0.77009 0.79423 0.0
H78 H 0.32616 0.77695 0.76769 0.0
H79 H 0.29861 0.72528 0.78021 0.0
C80 C 0.72278 0.76341 0.23037 0.0
C81 C 0.71641 0.74543 0.22605 0.0
C82 C 0.69666 0.75825 0.20064 0.0
C83 C 0.70339 0.74289 0.2114 0.0
C84 C 0.7032 0.77619 0.20484 0.0
C85 C 0.71609 0.77874 0.21963 0.0
U86 U 0.76569 0.74993 0.25744 0.0
O87 O 0.78743 0.76736 0.26911 0.0
O88 O 0.77216 0.74933 0.28923 0.0
C89 C 0.78425 0.76254 0.28752 0.0
C90 C 0.73633 0.76648 0.24594 0.0
C91 C 0.78299 0.7779 0.30158 0.0
C92 C 0.77488 0.8096 0.30966 0.0
C93 C 0.77542 0.79508 0.29612 0.0
C94 C 0.78901 0.78976 0.33438 0.0
C95 C 0.78177 0.80716 0.32894 0.0
C96 C 0.78966 0.77534 0.32082 0.0
C97 C 0.79146 0.70767 0.24031 0.0
C98 C 0.81816 0.69679 0.25719 0.0
C99 C 0.80749 0.68128 0.22776 0.0
C100 C 0.79333 0.6937 0.22632 0.0
C101 C 0.82004 0.68262 0.24325 0.0
C102 C 0.80398 0.70921 0.25573 0.0
C103 C 0.7764 0.72047 0.23861 0.0
O104 O 0.73699 0.75389 0.26025 0.0
O105 O 0.75208 0.7717 0.23976 0.0
O106 O 0.78038 0.73764 0.23313 0.0
O107 O 0.7651 0.7196 0.25318 0.0
H108 H 0.72149 0.73332 0.23397 0.0
H109 H 0.69875 0.72889 0.2083 0.0
H110 H 0.69816 0.78828 0.19687 0.0
H111 H 0.72082 0.79271 0.22272 0.0
H112 H 0.76934 0.82282 0.30488 0.0
H113 H 0.77009 0.79733 0.28136 0.0
H114 H 0.79411 0.78723 0.34919 0.0
H115 H 0.79543 0.76213 0.32535 0.0
H116 H 0.82748 0.69807 0.26942 0.0
H117 H 0.80868 0.6707 0.21665 0.0
H118 H 0.78382 0.69239 0.21427 0.0
H119 H 0.8027 0.71995 0.26667 0.0
C120 C 0.74337 0.23588 0.72149 0.0
C121 C 0.75654 0.23686 0.70709 0.0
C122 C 0.74659 0.20696 0.69408 0.0
C123 C 0.75815 0.2225 0.69347 0.0
C124 C 0.73357 0.20606 0.70873 0.0
C125 C 0.73197 0.22039 0.72226 0.0
U126 U 0.75849 0.28103 0.74651 0.0
O127 O 0.74266 0.30478 0.75597 0.0
O128 O 0.75777 0.28834 0.77789 0.0
C129 C 0.74622 0.30171 0.77477 0.0
C130 C 0.74122 0.25079 0.73586 0.0
C131 C 0.7309 0.30153 0.78792 0.0
C132 C 0.70186 0.28979 0.79747 0.0
C133 C 0.71638 0.28948 0.78482 0.0
C134 C 0.71639 0.31401 0.81647 0.0
C135 C 0.70167 0.30215 0.81341 0.0
C136 C 0.73083 0.31371 0.80382 0.0
C137 C 0.80066 0.30664 0.73218 0.0
C138 C 0.80961 0.33481 0.74923 0.0
C139 C 0.82783 0.3229 0.72321 0.0
C140 C 0.8158 0.30815 0.72053 0.0
C141 C 0.82489 0.3364 0.73763 0.0
C142 C 0.7976 0.32006 0.74653 0.0
C143 C 0.7882 0.29099 0.72945 0.0
O144 O 0.75293 0.25104 0.75041 0.0
O145 O 0.73785 0.26743 0.7284 0.0
O146 O 0.77246 0.29557 0.72242 0.0
O147 O 0.78748 0.27902 0.7443 0.0
H148 H 0.76549 0.24876 0.70633 0.0
H149 H 0.76824 0.22369 0.68231 0.0
H150 H 0.72469 0.19415 0.70988 0.0
H151 H 0.72181 0.21936 0.73337 0.0
H152 H 0.6907 0.28057 0.7946 0.0
H153 H 0.71625 0.27994 0.77259 0.0
H154 H 0.71686 0.32344 0.82879 0.0
H155 H 0.74198 0.32303 0.80648 0.0
H156 H 0.80706 0.34479 0.76064 0.0
H157 H 0.83935 0.32383 0.71388 0.0
H158 H 0.81833 0.29792 0.70936 0.0
H159 H 0.78598 0.31905 0.75571 0.0
C160 C 0.78773 0.70007 0.77133 0.0
C161 C 0.80053 0.70419 0.75706 0.0
C162 C 0.81625 0.67565 0.76583 0.0
C163 C 0.8147 0.69208 0.75434 0.0
C164 C 0.80325 0.67156 0.77999 0.0
C165 C 0.78912 0.68368 0.7827 0.0
U166 U 0.76316 0.74476 0.75871 0.0
O167 O 0.73464 0.7506 0.75664 0.0
O168 O 0.75136 0.76541 0.7782 0.0
C169 C 0.73515 0.7617 0.7719 0.0
C170 C 0.77309 0.71292 0.77472 0.0
C171 C 0.72202 0.75787 0.78741 0.0
C172 C 0.70137 0.73704 0.80427 0.0
C173 C 0.71393 0.74023 0.7896 0.0
C174 C 0.70508 0.76888 0.81506 0.0
C175 C 0.69682 0.75133 0.81715 0.0
C176 C 0.7175 0.77213 0.80027 0.0
C177 C 0.78067 0.77591 0.7166 0.0
C178 C 0.77593 0.8091 0.71112 0.0
C179 C 0.78456 0.78971 0.68402 0.0
C180 C 0.78481 0.77416 0.69666 0.0
C181 C 0.78028 0.80742 0.6911 0.0
C182 C 0.77606 0.79346 0.72375 0.0
C183 C 0.78144 0.75925 0.72955 0.0
O184 O 0.77786 0.72921 0.78176 0.0
O185 O 0.76121 0.71415 0.76038 0.0
O186 O 0.76861 0.74697 0.72695 0.0
O187 O 0.78542 0.76205 0.74823 0.0
H188 H 0.79961 0.71682 0.74813 0.0
H189 H 0.82438 0.69554 0.74319 0.0
H190 H 0.80419 0.65918 0.78928 0.0
H191 H 0.77937 0.68035 0.79382 0.0
H192 H 0.69536 0.72331 0.8057 0.0
H193 H 0.7173 0.7289 0.78001 0.0
H194 H 0.70173 0.78019 0.8247 0.0
H195 H 0.72359 0.78582 0.79885 0.0
H196 H 0.7727 0.82253 0.71711 0.0
H197 H 0.78761 0.78781 0.66863 0.0
H198 H 0.78828 0.76071 0.69084 0.0
H199 H 0.77271 0.79513 0.73909 0.0
C200 C 0.72983 0.25149 0.21413 0.0
C201 C 0.73311 0.26188 0.19681 0.0
C202 C 0.70152 0.26196 0.18887 0.0
C203 C 0.71905 0.26698 0.1842 0.0
C204 C 0.69837 0.25144 0.20616 0.0
C205 C 0.71242 0.24623 0.21866 0.0
U206 U 0.77563 0.26092 0.23624 0.0
O207 O 0.78458 0.26063 0.26723 0.0
O208 O 0.7965 0.24158 0.24627 0.0
C209 C 0.79515 0.24641 0.2648 0.0
C210 C 0.74426 0.24675 0.22807 0.0
C211 C 0.7929 0.23097 0.27902 0.0
C212 C 0.77478 0.20655 0.294 0.0
C213 C 0.77688 0.22089 0.27996 0.0
C214 C 0.80476 0.21216 0.30606 0.0
C215 C 0.78867 0.20213 0.30731 0.0
C216 C 0.80683 0.22646 0.29204 0.0
C217 C 0.80301 0.30212 0.21698 0.0
C218 C 0.82853 0.31493 0.23459 0.0
C219 C 0.82165 0.32556 0.20127 0.0
C220 C 0.80705 0.31345 0.20063 0.0
C221 C 0.83244 0.32663 0.21835 0.0
C222 C 0.81394 0.30274 0.2339 0.0
C223 C 0.78711 0.29015 0.21633 0.0
O224 O 0.75895 0.2407 0.22027 0.0
O225 O 0.74706 0.25894 0.24205 0.0
O226 O 0.77669 0.29126 0.23163 0.0
O227 O 0.7896 0.27295 0.21065 0.0
H228 H 0.74648 0.26623 0.19318 0.0
H229 H 0.72183 0.27522 0.17106 0.0
H230 H 0.68502 0.24721 0.21001 0.0
H231 H 0.70966 0.23827 0.232 0.0
H232 H 0.7622 0.19917 0.29468 0.0
H233 H 0.76597 0.22425 0.26998 0.0
H234 H 0.81581 0.20888 0.31586 0.0
H235 H 0.81931 0.23406 0.29143 0.0
H236 H 0.83647 0.3155 0.24802 0.0
H237 H 0.82448 0.33411 0.18837 0.0
H238 H 0.79881 0.31304 0.18741 0.0
H239 H 0.81103 0.29402 0.24666 0.0
C240 C 0.24179 0.23561 0.71654 0.0
C241 C 0.25902 0.23078 0.71104 0.0
C242 C 0.2474 0.20369 0.69379 0.0
C243 C 0.26178 0.21503 0.69965 0.0
C244 C 0.23018 0.20855 0.69936 0.0
C245 C 0.2274 0.22441 0.71058 0.0
U246 U 0.25635 0.2675 0.75802 0.0
O247 O 0.25486 0.29792 0.76092 0.0
O248 O 0.24109 0.27955 0.78204 0.0
C249 C 0.24376 0.29673 0.77567 0.0
C250 C 0.23867 0.25183 0.72902 0.0
C251 C 0.22777 0.30822 0.77383 0.0
C252 C 0.20296 0.32061 0.75461 0.0
C253 C 0.21827 0.30975 0.75591 0.0
C254 C 0.20639 0.32829 0.78915 0.0
C255 C 0.19683 0.32992 0.77125 0.0
C256 C 0.22175 0.31756 0.79039 0.0
C257 C 0.29983 0.25784 0.78556 0.0
C258 C 0.31643 0.28025 0.80522 0.0
C259 C 0.32053 0.24713 0.811 0.0
C260 C 0.30819 0.24327 0.796 0.0
C261 C 0.32481 0.26566 0.81572 0.0
C262 C 0.30394 0.27638 0.79035 0.0
C263 C 0.28665 0.25337 0.77006 0.0
O264 O 0.23573 0.24786 0.74768 0.0
O265 O 0.24948 0.26614 0.72646 0.0
O266 O 0.28528 0.26547 0.75534 0.0
O267 O 0.27124 0.24732 0.77645 0.0
H268 H 0.27036 0.23908 0.7157 0.0
H269 H 0.27521 0.21148 0.69579 0.0
H270 H 0.21885 0.20011 0.69494 0.0
H271 H 0.21403 0.22786 0.71476 0.0
H272 H 0.19574 0.32145 0.7407 0.0
H273 H 0.22263 0.30249 0.74299 0.0
H274 H 0.20207 0.33544 0.80216 0.0
H275 H 0.22891 0.3165 0.80434 0.0
H276 H 0.31934 0.29465 0.80872 0.0
H277 H 0.3269 0.23563 0.81875 0.0
H278 H 0.30514 0.22888 0.79256 0.0
H279 H 0.29748 0.28786 0.78266 0.0
C280 C 0.21691 0.73408 0.26394 0.0
C281 C 0.21913 0.72078 0.24927 0.0
C282 C 0.19144 0.7055 0.25863 0.0
C283 C 0.2065 0.70661 0.24663 0.0
C284 C 0.18925 0.71901 0.27321 0.0
C285 C 0.2019 0.73317 0.27584 0.0
U286 U 0.26066 0.75713 0.25052 0.0
O287 O 0.26865 0.78664 0.24884 0.0
O288 O 0.28233 0.76762 0.26958 0.0
C289 C 0.28009 0.78496 0.26359 0.0
C290 C 0.2304 0.74866 0.26719 0.0
C291 C 0.27865 0.7987 0.27936 0.0
C292 C 0.26109 0.81853 0.30009 0.0
C293 C 0.2621 0.80541 0.28513 0.0
C294 C 0.29309 0.8181 0.30396 0.0
C295 C 0.27658 0.82499 0.30968 0.0
C296 C 0.2941 0.8051 0.28889 0.0
C297 C 0.28724 0.73724 0.2082 0.0
C298 C 0.31897 0.74094 0.2033 0.0
C299 C 0.29992 0.73088 0.17634 0.0
C300 C 0.2852 0.73186 0.18853 0.0
C301 C 0.31704 0.73515 0.18364 0.0
C302 C 0.30419 0.74205 0.21546 0.0
C303 C 0.2716 0.73737 0.22093 0.0
O304 O 0.24578 0.74259 0.27386 0.0
O305 O 0.23187 0.76116 0.25291 0.0
O306 O 0.2611 0.75179 0.21862 0.0
O307 O 0.27438 0.73261 0.23953 0.0
H308 H 0.23067 0.72131 0.23994 0.0
H309 H 0.20847 0.69659 0.2351 0.0
H310 H 0.17791 0.71843 0.28283 0.0
H311 H 0.20004 0.74331 0.28728 0.0
H312 H 0.24818 0.82345 0.30437 0.0
H313 H 0.24997 0.80049 0.27809 0.0
H314 H 0.30525 0.82293 0.31098 0.0
H315 H 0.30698 0.80006 0.28465 0.0
H316 H 0.33194 0.74417 0.20948 0.0
H317 H 0.29789 0.72673 0.16118 0.0
H318 H 0.2722 0.72825 0.18263 0.0
H319 H 0.30605 0.74637 0.23059 0.0
C320 C 0.91993 0.44105 0.2079 0.0
C321 C 0.9302 0.42393 0.21547 0.0
C322 C 0.95361 0.43821 0.23616 0.0
C323 C 0.95911 0.44164 0.25556 0.0
C324 C 0.97421 0.45261 0.25964 0.0
C325 C 0.98406 0.4603 0.24386 0.0
C326 C 0.97873 0.45676 0.22418 0.0
C327 C 0.96359 0.44576 0.22052 0.0
C328 C 0.97957 0.45613 0.28079 0.0
C329 C 0.98901 0.46468 0.20699 0.0
C330 C 0.08063 0.39622 0.2572 0.0
C331 C 0.09327 0.41052 0.24776 0.0
C332 C 0.0788 0.43952 0.25584 0.0
C333 C 0.07173 0.44488 0.23736 0.0
C334 C 0.05691 0.45653 0.23591 0.0
C335 C 0.04897 0.46291 0.25331 0.0
C336 C 0.05653 0.45816 0.27193 0.0
C337 C 0.07154 0.4467 0.27293 0.0
C338 C 0.04949 0.46169 0.21578 0.0
C339 C 0.04842 0.46473 0.29077 0.0
C340 C 0.07673 0.58645 0.2505 0.0
C341 C 0.07002 0.57822 0.23319 0.0
C342 C 0.05447 0.56732 0.2335 0.0
C343 C 0.04559 0.56428 0.25151 0.0
C344 C 0.05223 0.57258 0.26893 0.0
C345 C 0.06766 0.58368 0.26814 0.0
C346 C 0.04755 0.55901 0.21452 0.0
C347 C 0.04311 0.5696 0.2884 0.0
C348 C 0.90817 0.5681 0.25942 0.0
C349 C 0.91737 0.58708 0.26199 0.0
C350 C 0.94723 0.57995 0.25004 0.0
C351 C 0.95758 0.5798 0.23313 0.0
C352 C 0.9738 0.57033 0.23291 0.0
C353 C 0.98004 0.56117 0.25028 0.0
C354 C 0.96992 0.56178 0.26767 0.0
C355 C 0.95352 0.57091 0.26731 0.0
C356 C 0.98416 0.56994 0.21405 0.0
C357 C 0.97638 0.55273 0.28669 0.0
C358 C 1.0 0.47205 0.24781 0.0
C359 C 0.01637 0.4632 0.24976 0.0
C360 C 0.03211 0.47346 0.25199 0.0
C361 C 0.03157 0.49316 0.25227 0.0
C362 C 0.04717 0.50396 0.25389 0.0
C363 C 0.04648 0.52335 0.25391 0.0
C364 C 0.03018 0.53269 0.25234 0.0
C365 C 0.02936 0.55239 0.25202 0.0
C366 C 0.01289 0.5612 0.25132 0.0
C367 C 0.99708 0.55089 0.2503 0.0
C368 C 0.99768 0.53119 0.24961 0.0
C369 C 0.98212 0.52039 0.24751 0.0
C370 C 0.98283 0.50103 0.24695 0.0
C371 C 0.99913 0.4917 0.24854 0.0
C372 C 0.01499 0.5023 0.25068 0.0
C373 C 0.01428 0.52207 0.25094 0.0
C374 C 0.11544 0.5823 0.23397 0.0
C375 C 0.10394 0.59968 0.23592 0.0
O376 O 0.93864 0.42776 0.2333 0.0
O377 O 0.93135 0.58889 0.24898 0.0
O378 O 0.09183 0.59704 0.25094 0.0
O379 O 0.09242 0.42729 0.25763 0.0
H380 H 0.94021 0.42006 0.20441 0.0
H381 H 0.92907 0.453 0.20519 0.0
H382 H 0.91 0.44532 0.21886 0.0
H383 H 0.91298 0.43787 0.19377 0.0
H384 H 0.9514 0.43576 0.26755 0.0
H385 H 0.9597 0.44326 0.20538 0.0
H386 H 0.99318 0.45084 0.28363 0.0
H387 H 0.9704 0.44931 0.29142 0.0
H388 H 0.97984 0.47137 0.28345 0.0
H389 H 0.98331 0.46041 0.19254 0.0
H390 H 0.00299 0.45999 0.20801 0.0
H391 H 0.98914 0.48014 0.20756 0.0
H392 H 0.08912 0.41251 0.23208 0.0
H393 H 0.08145 0.38265 0.2496 0.0
H394 H 0.06675 0.40118 0.25588 0.0
H395 H 0.08397 0.39409 0.27309 0.0
H396 H 0.07777 0.44004 0.22403 0.0
H397 H 0.07725 0.44268 0.28712 0.0
H398 H 0.03652 0.45451 0.21355 0.0
H399 H 0.05845 0.45766 0.20375 0.0
H400 H 0.04714 0.47694 0.21471 0.0
H401 H 0.05575 0.45961 0.3041 0.0
H402 H 0.03443 0.45983 0.29158 0.0
H403 H 0.04832 0.4802 0.29086 0.0
H404 H 0.09675 0.60245 0.22175 0.0
H405 H 0.07675 0.58016 0.21934 0.0
H406 H 0.07287 0.59008 0.28142 0.0
H407 H 0.04881 0.54361 0.21532 0.0
H408 H 0.05488 0.56427 0.20145 0.0
H409 H 0.03325 0.56223 0.21241 0.0
H410 H 0.05062 0.57596 0.30085 0.0
H411 H 0.04142 0.55443 0.29149 0.0
H412 H 0.02969 0.57581 0.2876 0.0
H413 H 0.92241 0.58827 0.2774 0.0
H414 H 0.89691 0.56658 0.26973 0.0
H415 H 0.9176 0.55663 0.26268 0.0
H416 H 0.90309 0.56664 0.24405 0.0
H417 H 0.9527 0.58686 0.2199 0.0
H418 H 0.94586 0.57094 0.28064 0.0
H419 H 0.98777 0.55539 0.21061 0.0
H420 H 0.99668 0.57803 0.21595 0.0
H421 H 0.97661 0.57599 0.20133 0.0
H422 H 0.96844 0.55693 0.29953 0.0
H423 H 0.99051 0.55643 0.28958 0.0
H424 H 0.97546 0.53735 0.28543 0.0
H425 H 0.0169 0.4481 0.24915 0.0
H426 H 0.06008 0.49753 0.25509 0.0
H427 H 0.05891 0.53095 0.25519 0.0
H428 H 0.01237 0.57631 0.25142 0.0
H429 H 0.9692 0.52679 0.24615 0.0
H430 H 0.97043 0.49345 0.24529 0.0
H431 H 0.12525 0.58445 0.22205 0.0
H432 H 0.1071 0.57001 0.23018 0.0
H433 H 0.12264 0.57922 0.24805 0.0
C434 C 0.07146 0.39317 0.78468 0.0
C435 C 0.08174 0.40144 0.76724 0.0
C436 C 0.07044 0.43281 0.76521 0.0
C437 C 0.06315 0.43442 0.74616 0.0
C438 C 0.04896 0.4465 0.74216 0.0
C439 C 0.04179 0.45691 0.75768 0.0
C440 C 0.0494 0.45551 0.77688 0.0
C441 C 0.06391 0.44371 0.78029 0.0
C442 C 0.04144 0.44786 0.72145 0.0
C443 C 0.04192 0.46602 0.79393 0.0
C444 C 0.90585 0.40546 0.75753 0.0
C445 C 0.92031 0.41866 0.76321 0.0
C446 C 0.94598 0.43486 0.74898 0.0
C447 C 0.95121 0.44383 0.76646 0.0
C448 C 0.96658 0.45504 0.76713 0.0
C449 C 0.9767 0.45768 0.74988 0.0
C450 C 0.97118 0.4491 0.73214 0.0
C451 C 0.95593 0.43772 0.73198 0.0
C452 C 0.97215 0.46385 0.78635 0.0
C453 C 0.98153 0.45176 0.71342 0.0
C454 C 0.94638 0.57778 0.75337 0.0
C455 C 0.95445 0.56918 0.76997 0.0
C456 C 0.97062 0.55985 0.76841 0.0
C457 C 0.97878 0.55872 0.74982 0.0
C458 C 0.97093 0.56764 0.73316 0.0
C459 C 0.95489 0.57721 0.73521 0.0
C460 C 0.97884 0.55096 0.78667 0.0
C461 C 0.9793 0.56673 0.71314 0.0
C462 C 0.11515 0.56408 0.7587 0.0
C463 C 0.10873 0.58084 0.74632 0.0
C464 C 0.07691 0.5779 0.75182 0.0
C465 C 0.0661 0.5766 0.76833 0.0
C466 C 0.05001 0.5666 0.76773 0.0
C467 C 0.04436 0.55823 0.7499 0.0
C468 C 0.05487 0.56027 0.73286 0.0
C469 C 0.07114 0.56992 0.73405 0.0
C470 C 0.0392 0.56478 0.78622 0.0
C471 C 0.04894 0.55225 0.71337 0.0
C472 C 0.02568 0.46833 0.75411 0.0
C473 C 0.00934 0.45899 0.75316 0.0
C474 C 0.99348 0.46871 0.75058 0.0
C475 C 0.99382 0.48841 0.74912 0.0
C476 C 0.97811 0.49867 0.74683 0.0
C477 C 0.97854 0.51807 0.74625 0.0
C478 C 0.99471 0.52794 0.74763 0.0
C479 C 0.9952 0.54765 0.74791 0.0
C480 C 0.01152 0.55706 0.74829 0.0
C481 C 0.02751 0.5473 0.74912 0.0
C482 C 0.02724 0.52755 0.74989 0.0
C483 C 0.04298 0.51724 0.75173 0.0
C484 C 0.04253 0.49784 0.75282 0.0
C485 C 0.02633 0.488 0.75231 0.0
C486 C 0.01031 0.49807 0.75007 0.0
C487 C 0.01077 0.51787 0.74903 0.0
C488 C 0.90915 0.56638 0.76982 0.0
C489 C 0.91839 0.58553 0.76941 0.0
O490 O 0.08358 0.42056 0.7694 0.0
O491 O 0.09271 0.58705 0.75348 0.0
O492 O 0.93044 0.58654 0.75414 0.0
O493 O 0.93164 0.42323 0.74792 0.0
H494 H 0.07417 0.39841 0.7534 0.0
H495 H 0.058 0.39932 0.7851 0.0
H496 H 0.07849 0.39614 0.79882 0.0
H497 H 0.06991 0.37783 0.78318 0.0
H498 H 0.06857 0.4262 0.73445 0.0
H499 H 0.06978 0.44236 0.79492 0.0
H500 H 0.02837 0.44064 0.72089 0.0
H501 H 0.05023 0.44136 0.71056 0.0
H502 H 0.03932 0.46268 0.71709 0.0
H503 H 0.04803 0.46171 0.80829 0.0
H504 H 0.02735 0.46378 0.79468 0.0
H505 H 0.04434 0.48118 0.7917 0.0
H506 H 0.9274 0.41485 0.77724 0.0
H507 H 0.90839 0.3925 0.76669 0.0
H508 H 0.90988 0.39904 0.74323 0.0
H509 H 0.88282 0.42125 0.76014 0.0
H510 H 0.94351 0.44203 0.7797 0.0
H511 H 0.95176 0.43086 0.71854 0.0
H512 H 0.97167 0.47926 0.78475 0.0
H513 H 0.98605 0.46005 0.79015 0.0
H514 H 0.96349 0.45949 0.79874 0.0
H515 H 0.9745 0.44578 0.70043 0.0
H516 H 0.99459 0.44488 0.71516 0.0
H517 H 0.98404 0.46683 0.71055 0.0
H518 H 0.92544 0.58775 0.78371 0.0
H519 H 0.94828 0.56953 0.78422 0.0
H520 H 0.94869 0.58394 0.72249 0.0
H521 H 0.97769 0.53556 0.78572 0.0
H522 H 0.97228 0.55536 0.80038 0.0
H523 H 0.99317 0.55458 0.78778 0.0
H524 H 0.97114 0.5737 0.70146 0.0
H525 H 0.98123 0.55195 0.70911 0.0
H526 H 0.99259 0.57353 0.71365 0.0
H527 H 0.10703 0.57647 0.73075 0.0
H528 H 0.128 0.559 0.75318 0.0
H529 H 0.10535 0.55246 0.75774 0.0
H530 H 0.11682 0.56796 0.77443 0.0
H531 H 0.07059 0.58302 0.78191 0.0
H532 H 0.07912 0.57147 0.72099 0.0
H533 H 0.03559 0.54994 0.78906 0.0
H534 H 0.02668 0.57266 0.78423 0.0
H535 H 0.0464 0.57022 0.79937 0.0
H536 H 0.05733 0.55721 0.70099 0.0
H537 H 0.03494 0.55601 0.71008 0.0
H538 H 0.04964 0.53681 0.71423 0.0
H539 H 0.00894 0.4439 0.75463 0.0
H540 H 0.96529 0.49182 0.74575 0.0
H541 H 0.96601 0.52524 0.74471 0.0
H542 H 0.01178 0.57218 0.74843 0.0
H543 H 0.05584 0.52405 0.75251 0.0
H544 H 0.05506 0.49066 0.75423 0.0
H545 H 0.89934 0.56565 0.78189 0.0
H546 H 0.91896 0.55515 0.77249 0.0
H547 H 0.9022 0.56379 0.75555 0.0
C548 C 0.26532 0.06829 0.63571 0.0
C549 C 0.27235 0.08407 0.62234 0.0
C550 C 0.26711 0.06928 0.59045 0.0
C551 C 0.2836 0.06066 0.58829 0.0
C552 C 0.28567 0.04625 0.57478 0.0
C553 C 0.27088 0.0401 0.56346 0.0
C554 C 0.25428 0.0489 0.56547 0.0
C555 C 0.25274 0.06366 0.57867 0.0
C556 C 0.30366 0.03747 0.57275 0.0
C557 C 0.23809 0.0425 0.55401 0.0
C558 C 0.25795 0.89315 0.60355 0.0
C559 C 0.25592 0.90845 0.58856 0.0
C560 C 0.27101 0.93682 0.57704 0.0
C561 C 0.25596 0.94435 0.56742 0.0
C562 C 0.25679 0.96175 0.5577 0.0
C563 C 0.27307 0.97171 0.55721 0.0
C564 C 0.28828 0.9641 0.56666 0.0
C565 C 0.28701 0.94679 0.57655 0.0
C566 C 0.24021 0.96955 0.54806 0.0
C567 C 0.30587 0.9743 0.56636 0.0
C568 C 0.27809 0.94999 0.42731 0.0
C569 C 0.26226 0.95568 0.43592 0.0
C570 C 0.26185 0.97174 0.44747 0.0
C571 C 0.27769 0.98205 0.45081 0.0
C572 C 0.29355 0.9766 0.44171 0.0
C573 C 0.29345 0.96077 0.4298 0.0
C574 C 0.24448 0.9776 0.45616 0.0
C575 C 0.31067 0.9873 0.44482 0.0
C576 C 0.29017 0.12626 0.44682 0.0
C577 C 0.2882 0.11642 0.42699 0.0
C578 C 0.27616 0.08576 0.43739 0.0
C579 C 0.26055 0.07527 0.43923 0.0
C580 C 0.26048 0.05784 0.44895 0.0
C581 C 0.27654 0.0506 0.45679 0.0
C582 C 0.29248 0.06096 0.4547 0.0
C583 C 0.29212 0.07849 0.44517 0.0
C584 C 0.24323 0.04719 0.45095 0.0
C585 C 0.3099 0.05349 0.46255 0.0
C586 C 0.27265 0.024 0.55013 0.0
C587 C 0.27256 0.00612 0.55865 0.0
C588 C 0.27403 0.99025 0.54713 0.0
C589 C 0.27561 0.99218 0.52643 0.0
C590 C 0.27733 0.97654 0.5144 0.0
C591 C 0.27826 0.97854 0.494 0.0
C592 C 0.27745 0.99625 0.48482 0.0
C593 C 0.27767 0.99836 0.46404 0.0
C594 C 0.27736 0.0162 0.45544 0.0
C595 C 0.2767 0.03213 0.46702 0.0
C596 C 0.27608 0.03028 0.48782 0.0
C597 C 0.2751 0.04597 0.49992 0.0
C598 C 0.27427 0.04398 0.52034 0.0
C599 C 0.27411 0.02622 0.52944 0.0
C600 C 0.27542 0.01022 0.51755 0.0
C601 C 0.27637 0.01226 0.49672 0.0
C602 C 0.28046 0.9081 0.43853 0.0
C603 C 0.27093 0.91734 0.42085 0.0
O604 O 0.2645 0.08294 0.60375 0.0
O605 O 0.27512 0.10271 0.42809 0.0
O606 O 0.27899 0.93433 0.41638 0.0
O607 O 0.27058 0.92019 0.58702 0.0
H608 H 0.28697 0.08285 0.62123 0.0
H609 H 0.26867 0.05454 0.62955 0.0
H610 H 0.25067 0.06917 0.63695 0.0
H611 H 0.27143 0.0691 0.65069 0.0
H612 H 0.29497 0.06521 0.5969 0.0
H613 H 0.2401 0.07049 0.58035 0.0
H614 H 0.3033 0.02315 0.5792 0.0
H615 H 0.31429 0.04552 0.58042 0.0
H616 H 0.30707 0.03634 0.55694 0.0
H617 H 0.22579 0.04927 0.55902 0.0
H618 H 0.23643 0.02714 0.5555 0.0
H619 H 0.23978 0.04588 0.53812 0.0
H620 H 0.25061 0.90404 0.5739 0.0
H621 H 0.23888 0.89932 0.62462 0.0
H622 H 0.27256 0.89225 0.60721 0.0
H623 H 0.25754 0.87992 0.59483 0.0
H624 H 0.24346 0.93682 0.56756 0.0
H625 H 0.29855 0.94093 0.58398 0.0
H626 H 0.24192 0.97036 0.53184 0.0
H627 H 0.23788 0.98392 0.55323 0.0
H628 H 0.22827 0.96087 0.55121 0.0
H629 H 0.31679 0.96577 0.57282 0.0
H630 H 0.30487 0.98731 0.5749 0.0
H631 H 0.30926 0.97833 0.55098 0.0
H632 H 0.25681 0.91943 0.42463 0.0
H633 H 0.25012 0.94787 0.43343 0.0
H634 H 0.30554 0.95639 0.42285 0.0
H635 H 0.24476 0.97477 0.4723 0.0
H636 H 0.23298 0.96996 0.44964 0.0
H637 H 0.24247 0.9928 0.45384 0.0
H638 H 0.32216 0.98029 0.43817 0.0
H639 H 0.31336 0.989 0.46085 0.0
H640 H 0.30943 0.00145 0.4381 0.0
H641 H 0.30104 0.11001 0.42313 0.0
H642 H 0.30055 0.13733 0.44595 0.0
H643 H 0.29415 0.1162 0.45864 0.0
H644 H 0.27741 0.13267 0.45096 0.0
H645 H 0.24831 0.08092 0.43317 0.0
H646 H 0.30439 0.0863 0.44389 0.0
H647 H 0.24098 0.04349 0.46669 0.0
H648 H 0.24396 0.03398 0.44271 0.0
H649 H 0.2317 0.05527 0.44521 0.0
H650 H 0.32133 0.06258 0.45847 0.0
H651 H 0.31214 0.03931 0.45679 0.0
H652 H 0.30946 0.05229 0.47887 0.0
H653 H 0.27118 0.00452 0.5745 0.0
H654 H 0.27788 0.96256 0.52062 0.0
H655 H 0.2795 0.96598 0.4855 0.0
H656 H 0.27755 0.01771 0.4395 0.0
H657 H 0.27491 0.05997 0.49373 0.0
H658 H 0.27357 0.05655 0.52891 0.0
H659 H 0.27418 0.89443 0.44221 0.0
H660 H 0.2796 0.91708 0.45166 0.0
H661 H 0.29468 0.90591 0.43522 0.0
C662 C 0.41485 0.69724 0.08229 0.0
C663 C 0.42259 0.71067 0.09767 0.0
C664 C 0.44597 0.72741 0.07929 0.0
C665 C 0.45081 0.74455 0.0708 0.0
C666 C 0.46682 0.74676 0.06067 0.0
C667 C 0.47813 0.7313 0.05873 0.0
C668 C 0.47346 0.71394 0.06747 0.0
C669 C 0.45752 0.7122 0.07782 0.0
C670 C 0.47157 0.7656 0.05192 0.0
C671 C 0.48523 0.69715 0.0657 0.0
C672 C 0.61471 0.7433 0.07177 0.0
C673 C 0.60623 0.7364 0.09099 0.0
C674 C 0.57497 0.74288 0.0829 0.0
C675 C 0.57049 0.72589 0.07398 0.0
C676 C 0.55466 0.72391 0.06301 0.0
C677 C 0.54332 0.73942 0.06036 0.0
C678 C 0.54771 0.75649 0.0695 0.0
C679 C 0.56335 0.75787 0.08092 0.0
C680 C 0.55007 0.7052 0.0543 0.0
C681 C 0.53599 0.77333 0.06706 0.0
C682 C 0.57693 0.73609 0.93282 0.0
C683 C 0.57224 0.71985 0.9435 0.0
C684 C 0.55614 0.71868 0.9536 0.0
C685 C 0.54471 0.73424 0.95352 0.0
C686 C 0.54935 0.75056 0.9427 0.0
C687 C 0.5653 0.75114 0.93229 0.0
C688 C 0.55139 0.70079 0.9644 0.0
C689 C 0.53755 0.76744 0.94228 0.0
C690 C 0.40615 0.71736 0.93756 0.0
C691 C 0.41651 0.72883 0.9223 0.0
C692 C 0.44783 0.72287 0.92945 0.0
C693 C 0.45818 0.70734 0.93424 0.0
C694 C 0.47385 0.70912 0.94553 0.0
C695 C 0.47945 0.72698 0.9518 0.0
C696 C 0.46939 0.74286 0.94635 0.0
C697 C 0.45368 0.74064 0.93521 0.0
C698 C 0.48434 0.69193 0.95095 0.0
C699 C 0.47527 0.76217 0.95228 0.0
C700 C 0.49477 0.7332 0.04738 0.0
C701 C 0.51069 0.73578 0.05788 0.0
C702 C 0.52684 0.73769 0.04815 0.0
C703 C 0.52716 0.7373 0.02729 0.0
C704 C 0.54305 0.73987 0.01695 0.0
C705 C 0.54332 0.7388 0.99648 0.0
C706 C 0.52772 0.73513 0.98554 0.0
C707 C 0.52795 0.73343 0.96477 0.0
C708 C 0.51206 0.73057 0.9543 0.0
C709 C 0.49587 0.72914 0.96399 0.0
C710 C 0.49545 0.73012 0.9848 0.0
C711 C 0.47948 0.72806 0.99509 0.0
C712 C 0.47922 0.72902 0.01557 0.0
C713 C 0.4949 0.73219 0.02656 0.0
C714 C 0.51116 0.73427 0.01649 0.0
C715 C 0.51144 0.73319 0.9956 0.0
C716 C 0.6169 0.73115 0.94462 0.0
C717 C 0.60745 0.727 0.92497 0.0
O718 O 0.43005 0.72621 0.0885 0.0
O719 O 0.43259 0.72028 0.91885 0.0
O720 O 0.59241 0.73791 0.92287 0.0
O721 O 0.59022 0.74539 0.0936 0.0
H722 H 0.43291 0.70329 0.10664 0.0
H723 H 0.42542 0.69187 0.07277 0.0
H724 H 0.40489 0.70438 0.07266 0.0
H725 H 0.40841 0.68511 0.08976 0.0
H726 H 0.44192 0.75624 0.07209 0.0
H727 H 0.4542 0.69886 0.08448 0.0
H728 H 0.48522 0.76969 0.05658 0.0
H729 H 0.46224 0.77661 0.05636 0.0
H730 H 0.47134 0.76482 0.03558 0.0
H731 H 0.47914 0.68431 0.07212 0.0
H732 H 0.49807 0.69982 0.07341 0.0
H733 H 0.48812 0.69471 0.04994 0.0
H734 H 0.60402 0.7211 0.09029 0.0
H735 H 0.62753 0.7362 0.06944 0.0
H736 H 0.61709 0.75861 0.07218 0.0
H737 H 0.60584 0.74018 0.059 0.0
H738 H 0.57907 0.71397 0.07573 0.0
H739 H 0.56682 0.77088 0.08799 0.0
H740 H 0.53595 0.70154 0.05698 0.0
H741 H 0.55853 0.69388 0.06052 0.0
H742 H 0.55195 0.70585 0.03811 0.0
H743 H 0.54229 0.78611 0.07315 0.0
H744 H 0.52331 0.77073 0.07479 0.0
H745 H 0.53277 0.77584 0.0512 0.0
H746 H 0.60367 0.712 0.92454 0.0
H747 H 0.58094 0.70797 0.94398 0.0
H748 H 0.56896 0.76357 0.92395 0.0
H749 H 0.55264 0.70291 0.98053 0.0
H750 H 0.56016 0.68911 0.96043 0.0
H751 H 0.53742 0.69671 0.9611 0.0
H752 H 0.54397 0.77971 0.93505 0.0
H753 H 0.53394 0.7712 0.95753 0.0
H754 H 0.52508 0.76415 0.93411 0.0
H755 H 0.41865 0.74294 0.92846 0.0
H756 H 0.39314 0.72393 0.9403 0.0
H757 H 0.41374 0.71674 0.95172 0.0
H758 H 0.40387 0.7029 0.93241 0.0
H759 H 0.45371 0.69372 0.92943 0.0
H760 H 0.44626 0.75287 0.93072 0.0
H761 H 0.48604 0.69086 0.96722 0.0
H762 H 0.49778 0.69306 0.94453 0.0
H763 H 0.47785 0.67897 0.94558 0.0
H764 H 0.46648 0.77318 0.94603 0.0
H765 H 0.48903 0.76489 0.94729 0.0
H766 H 0.47534 0.76313 0.96861 0.0
H767 H 0.51051 0.73613 0.07387 0.0
H768 H 0.55548 0.74267 0.02458 0.0
H769 H 0.55596 0.74082 0.98935 0.0
H770 H 0.5123 0.72948 0.93836 0.0
H771 H 0.467 0.72557 0.98743 0.0
H772 H 0.46654 0.72721 0.02267 0.0
H773 H 0.62897 0.72248 0.94644 0.0
H774 H 0.60804 0.72789 0.95716 0.0
H775 H 0.6208 0.74612 0.94525 0.0
C776 C 0.72351 0.09208 0.60547 0.0
C777 C 0.74372 0.09367 0.608 0.0
C778 C 0.75584 0.07881 0.57952 0.0
C779 C 0.77336 0.0727 0.57892 0.0
C780 C 0.77773 0.05665 0.56847 0.0
C781 C 0.76417 0.04649 0.55857 0.0
C782 C 0.74646 0.05286 0.55894 0.0
C783 C 0.74259 0.06921 0.56907 0.0
C784 C 0.7968 0.05052 0.56809 0.0
C785 C 0.73158 0.04239 0.54873 0.0
C786 C 0.79629 0.90734 0.57618 0.0
C787 C 0.78098 0.91244 0.58963 0.0
C788 C 0.78081 0.94615 0.58633 0.0
C789 C 0.76442 0.94963 0.57702 0.0
C790 C 0.76179 0.96597 0.56572 0.0
C791 C 0.77598 0.97887 0.56345 0.0
C792 C 0.79237 0.97557 0.5733 0.0
C793 C 0.79447 0.95934 0.58489 0.0
C794 C 0.74391 0.96936 0.55608 0.0
C795 C 0.80776 0.98904 0.57134 0.0
C796 C 0.78397 0.94129 0.43566 0.0
C797 C 0.76762 0.9452 0.44418 0.0
C798 C 0.76516 0.96187 0.45436 0.0
C799 C 0.77952 0.97463 0.45645 0.0
C800 C 0.79601 0.97065 0.44777 0.0
C801 C 0.79789 0.95417 0.43716 0.0
C802 C 0.74715 0.9659 0.46264 0.0
C803 C 0.81168 0.98379 0.44964 0.0
C804 C 0.79529 0.116 0.43299 0.0
C805 C 0.79188 0.10383 0.41489 0.0
C806 C 0.7771 0.07609 0.42908 0.0
C807 C 0.76088 0.06672 0.43124 0.0
C808 C 0.75954 0.05035 0.44281 0.0
C809 C 0.77487 0.04317 0.45237 0.0
C810 C 0.79137 0.0524 0.45007 0.0
C811 C 0.79233 0.06875 0.43853 0.0
C812 C 0.74175 0.04081 0.445 0.0
C813 C 0.80804 0.04503 0.45995 0.0
C814 C 0.76841 0.02904 0.54812 0.0
C815 C 0.77037 0.01267 0.55938 0.0
C816 C 0.7738 0.99563 0.55051 0.0
C817 C 0.77505 0.99474 0.52975 0.0
C818 C 0.77847 0.97785 0.5203 0.0
C819 C 0.7792 0.97702 0.49983 0.0
C820 C 0.77671 0.99309 0.488 0.0
C821 C 0.77716 0.99237 0.46715 0.0
C822 C 0.77572 0.00885 0.45596 0.0
C823 C 0.77382 0.02609 0.46497 0.0
C824 C 0.77243 0.02696 0.4857 0.0
C825 C 0.76981 0.044 0.49516 0.0
C826 C 0.76855 0.04474 0.51559 0.0
C827 C 0.76993 0.02848 0.52735 0.0
C828 C 0.77296 0.0112 0.51813 0.0
C829 C 0.77396 0.0104 0.49726 0.0
C830 C 0.79842 0.90185 0.44679 0.0
C831 C 0.78329 0.90756 0.43267 0.0
O832 O 0.75194 0.09425 0.58982 0.0
O833 O 0.77741 0.0921 0.41796 0.0
O834 O 0.78652 0.92545 0.42544 0.0
O835 O 0.78374 0.93022 0.59688 0.0
H836 H 0.74847 0.08123 0.61657 0.0
H837 H 0.71969 0.07792 0.60054 0.0
H838 H 0.71859 0.10259 0.59453 0.0
H839 H 0.71684 0.09428 0.61975 0.0
H840 H 0.78356 0.08046 0.58677 0.0
H841 H 0.72919 0.07449 0.56879 0.0
H842 H 0.79825 0.03738 0.57681 0.0
H843 H 0.80601 0.06113 0.57436 0.0
H844 H 0.80075 0.04764 0.55272 0.0
H845 H 0.71834 0.04789 0.55244 0.0
H846 H 0.73202 0.02736 0.55288 0.0
H847 H 0.7332 0.04354 0.53252 0.0
H848 H 0.76842 0.91191 0.58082 0.0
H849 H 0.79428 0.89309 0.5703 0.0
H850 H 0.80914 0.90791 0.58441 0.0
H851 H 0.79691 0.91729 0.56348 0.0
H852 H 0.75364 0.93969 0.57875 0.0
H853 H 0.80699 0.95657 0.5924 0.0
H854 H 0.73944 0.98375 0.559 0.0
H855 H 0.73367 0.95932 0.56139 0.0
H856 H 0.745 0.96798 0.53987 0.0
H857 H 0.82009 0.9836 0.57844 0.0
H858 H 0.80438 0.0024 0.57833 0.0
H859 H 0.81036 0.99205 0.55552 0.0
H860 H 0.77064 0.90712 0.44092 0.0
H861 H 0.75666 0.93547 0.44244 0.0
H862 H 0.81039 0.95106 0.4303 0.0
H863 H 0.74776 0.96462 0.47897 0.0
H864 H 0.73678 0.95611 0.45711 0.0
H865 H 0.74312 0.98038 0.4588 0.0
H866 H 0.82423 0.97722 0.44509 0.0
H867 H 0.81326 0.98856 0.46508 0.0
H868 H 0.80937 0.99628 0.4401 0.0
H869 H 0.80387 0.09537 0.41226 0.0
H870 H 0.80661 0.12569 0.43029 0.0
H871 H 0.79864 0.10725 0.44613 0.0
H872 H 0.78336 0.12426 0.43639 0.0
H873 H 0.7492 0.07239 0.42393 0.0
H874 H 0.80505 0.07565 0.43715 0.0
H875 H 0.73836 0.03971 0.46086 0.0
H876 H 0.74243 0.02642 0.43929 0.0
H877 H 0.73099 0.04838 0.43698 0.0
H878 H 0.82004 0.05319 0.45576 0.0
H879 H 0.81001 0.03025 0.45597 0.0
H880 H 0.80667 0.0455 0.47621 0.0
H881 H 0.76916 0.01318 0.57529 0.0
H882 H 0.7805 0.96502 0.52862 0.0
H883 H 0.78179 0.96362 0.4934 0.0
H884 H 0.77657 0.00832 0.44001 0.0
H885 H 0.76858 0.05695 0.48686 0.0
H886 H 0.7665 0.05824 0.52205 0.0
H887 H 0.81128 0.9021 0.439 0.0
H888 H 0.79604 0.88762 0.45297 0.0
H889 H 0.79931 0.91164 0.4593 0.0
C890 C 0.45557 0.31461 0.12532 0.0
C891 C 0.44005 0.3112 0.11086 0.0
C892 C 0.45695 0.29826 0.08358 0.0
C893 C 0.46399 0.31524 0.07641 0.0
C894 C 0.47781 0.31554 0.06276 0.0
C895 C 0.48481 0.29854 0.05618 0.0
C896 C 0.47738 0.28143 0.06285 0.0
C897 C 0.46339 0.28154 0.07631 0.0
C898 C 0.48525 0.33406 0.05574 0.0
C899 C 0.48459 0.26305 0.05622 0.0
C900 C 0.58103 0.30896 0.12659 0.0
C901 C 0.59038 0.29588 0.11253 0.0
C902 C 0.57901 0.30348 0.07994 0.0
C903 C 0.57229 0.28627 0.0736 0.0
C904 C 0.55777 0.28543 0.06047 0.0
C905 C 0.54989 0.30218 0.05354 0.0
C906 C 0.55731 0.31956 0.05905 0.0
C907 C 0.57196 0.31998 0.07208 0.0
C908 C 0.55043 0.26666 0.05455 0.0
C909 C 0.5493 0.33766 0.05182 0.0
C910 C 0.57421 0.30629 0.92084 0.0
C911 C 0.57079 0.28909 0.93003 0.0
C912 C 0.55619 0.28674 0.9425 0.0
C913 C 0.54504 0.3021 0.94603 0.0
C914 C 0.54857 0.31952 0.9367 0.0
C915 C 0.56299 0.32131 0.92395 0.0
C916 C 0.55252 0.26781 0.95166 0.0
C917 C 0.53702 0.33621 0.94007 0.0
C918 C 0.4086 0.28411 0.9432 0.0
C919 C 0.41556 0.29212 0.92367 0.0
C920 C 0.4475 0.28768 0.92916 0.0
C921 C 0.4594 0.27299 0.93145 0.0
C922 C 0.47558 0.27534 0.94164 0.0
C923 C 0.48017 0.29307 0.94912 0.0
C924 C 0.46852 0.30825 0.94607 0.0
C925 C 0.45217 0.30534 0.93635 0.0
C926 C 0.48766 0.25884 0.94455 0.0
C927 C 0.47333 0.32755 0.95306 0.0
C928 C 0.50076 0.29876 0.04355 0.0
C929 C 0.51729 0.30036 0.05295 0.0
C930 C 0.53293 0.3014 0.04219 0.0
C931 C 0.53217 0.30115 0.02136 0.0
C932 C 0.5476 0.30277 0.01005 0.0
C933 C 0.54666 0.30257 0.98952 0.0
C934 C 0.53031 0.30032 0.97955 0.0
C935 C 0.52922 0.29981 0.95871 0.0
C936 C 0.51273 0.29747 0.94934 0.0
C937 C 0.49716 0.29569 0.96015 0.0
C938 C 0.49794 0.29631 0.98099 0.0
C939 C 0.48252 0.29465 0.99235 0.0
C940 C 0.48337 0.29567 0.01282 0.0
C941 C 0.49972 0.29787 0.02275 0.0
C942 C 0.51549 0.2992 0.01161 0.0
C943 C 0.51458 0.2986 0.9907 0.0
C944 C 0.60572 0.33428 0.91872 0.0
C945 C 0.60491 0.31338 0.9143 0.0
O946 O 0.44429 0.29734 0.0977 0.0
O947 O 0.43184 0.28429 0.91964 0.0
O948 O 0.58793 0.30824 0.90829 0.0
O949 O 0.59185 0.30443 0.09412 0.0
H950 H 0.43704 0.32432 0.10256 0.0
H951 H 0.4675 0.31959 0.11736 0.0
H952 H 0.45896 0.30153 0.13349 0.0
H953 H 0.45207 0.32544 0.13609 0.0
H954 H 0.45898 0.32834 0.08154 0.0
H955 H 0.45781 0.26851 0.08176 0.0
H956 H 0.49899 0.33579 0.06158 0.0
H957 H 0.47723 0.346 0.06063 0.0
H958 H 0.48587 0.33444 0.03938 0.0
H959 H 0.47738 0.25095 0.0628 0.0
H960 H 0.49885 0.26205 0.06039 0.0
H961 H 0.48359 0.26223 0.03991 0.0
H962 H 0.58205 0.28302 0.11153 0.0
H963 H 0.58012 0.30243 0.14152 0.0
H964 H 0.56736 0.31177 0.12106 0.0
H965 H 0.58827 0.32247 0.12772 0.0
H966 H 0.57821 0.27351 0.0792 0.0
H967 H 0.57744 0.33319 0.07691 0.0
H968 H 0.54909 0.26604 0.03824 0.0
H969 H 0.53698 0.26469 0.06076 0.0
H970 H 0.55894 0.255 0.05985 0.0
H971 H 0.55714 0.34999 0.05665 0.0
H972 H 0.53561 0.33881 0.05748 0.0
H973 H 0.54836 0.33783 0.03546 0.0
H974 H 0.60853 0.3054 0.928 0.0
H975 H 0.57946 0.27749 0.92721 0.0
H976 H 0.56561 0.33447 0.91642 0.0
H977 H 0.5542 0.26853 0.96792 0.0
H978 H 0.56154 0.25697 0.94613 0.0
H979 H 0.53859 0.2635 0.94851 0.0
H980 H 0.54273 0.34923 0.9336 0.0
H981 H 0.53516 0.33818 0.95612 0.0
H982 H 0.52373 0.33379 0.93326 0.0
H983 H 0.41691 0.3075 0.92481 0.0
H984 H 0.39557 0.29027 0.94668 0.0
H985 H 0.41801 0.28745 0.95544 0.0
H986 H 0.4071 0.26871 0.9424 0.0
H987 H 0.45575 0.25948 0.92563 0.0
H988 H 0.44336 0.317 0.93411 0.0
H989 H 0.49145 0.25724 0.96038 0.0
H990 H 0.50002 0.26123 0.93616 0.0
H991 H 0.48139 0.24563 0.93952 0.0
H992 H 0.46409 0.3383 0.94709 0.0
H993 H 0.48704 0.33133 0.94861 0.0
H994 H 0.47293 0.32781 0.9694 0.0
H995 H 0.518 0.30079 0.06894 0.0
H996 H 0.56055 0.30437 0.01696 0.0
H997 H 0.55895 0.30407 0.98157 0.0
H998 H 0.51199 0.29709 0.93335 0.0
H999 H 0.46957 0.29269 0.98554 0.0
H1000 H 0.47106 0.29454 0.02078 0.0
H1001 H 0.60106 0.34259 0.90571 0.0
H1002 H 0.61951 0.33863 0.92259 0.0
H1003 H 0.59726 0.3374 0.93149 0.0
C1004 C 0.1946 0.37507 0.24531 0.0
C1005 C 0.19493 0.35595 0.25008 0.0
C1006 C 0.17873 0.38515 0.24578 0.0
C1007 C 0.16281 0.37592 0.25118 0.0
C1008 C 0.16314 0.35676 0.25652 0.0
C1009 C 0.17917 0.34701 0.25588 0.0
C1010 C 0.17892 0.40558 0.24007 0.0
C1011 C 0.14644 0.3464 0.26235 0.0
C1012 C 0.12226 0.4034 0.26584 0.0
C1013 C 0.11203 0.40311 0.24837 0.0
C1014 C 0.13903 0.39501 0.26686 0.0
C1015 C 0.14561 0.38595 0.2501 0.0
C1016 C 0.13542 0.3858 0.2324 0.0
C1017 C 0.11874 0.39431 0.23179 0.0
C1018 C 0.1495 0.39543 0.286 0.0
C1019 C 0.14192 0.37624 0.21422 0.0
H1020 H 0.20676 0.38215 0.24113 0.0
H1021 H 0.17925 0.33221 0.25936 0.0
H1022 H 0.17068 0.40783 0.22656 0.0
H1023 H 0.17303 0.41392 0.25191 0.0
H1024 H 0.19254 0.41093 0.23723 0.0
H1025 H 0.14911 0.33181 0.26719 0.0
H1026 H 0.13983 0.35369 0.27449 0.0
H1027 H 0.13699 0.34612 0.24965 0.0
H1028 H 0.11697 0.40989 0.27879 0.0
H1029 H 0.11075 0.39377 0.21838 0.0
H1030 H 0.16301 0.40114 0.28343 0.0
H1031 H 0.15106 0.38103 0.29195 0.0
H1032 H 0.143 0.40395 0.29731 0.0
H1033 H 0.15513 0.38187 0.2101 0.0
H1034 H 0.13269 0.37801 0.20141 0.0
H1035 H 0.14349 0.36111 0.21735 0.0
C1036 C 0.19416 0.64502 0.76542 0.0
C1037 C 0.19488 0.66115 0.75342 0.0
C1038 C 0.17972 0.63257 0.7643 0.0
C1039 C 0.16549 0.63641 0.75105 0.0
C1040 C 0.16592 0.65282 0.73917 0.0
C1041 C 0.18064 0.66493 0.74041 0.0
C1042 C 0.17982 0.61517 0.77714 0.0
C1043 C 0.15092 0.65746 0.72499 0.0
C1044 C 0.13723 0.59533 0.73431 0.0
C1045 C 0.12266 0.59625 0.74686 0.0
C1046 C 0.15114 0.60842 0.73537 0.0
C1047 C 0.15043 0.62293 0.74924 0.0
C1048 C 0.13565 0.62411 0.7618 0.0
C1049 C 0.12208 0.6106 0.76069 0.0
C1050 C 0.16681 0.60644 0.72198 0.0
C1051 C 0.13433 0.6395 0.77663 0.0
H1052 H 0.20488 0.64214 0.77581 0.0
H1053 H 0.18112 0.67721 0.73091 0.0
H1054 H 0.16799 0.61482 0.78666 0.0
H1055 H 0.17912 0.60263 0.76777 0.0
H1056 H 0.19189 0.61424 0.78671 0.0
H1057 H 0.15288 0.67119 0.71747 0.0
H1058 H 0.14974 0.64656 0.71361 0.0
H1059 H 0.13817 0.65765 0.73294 0.0
H1060 H 0.13789 0.58406 0.72389 0.0
H1061 H 0.11108 0.61121 0.77075 0.0
H1062 H 0.17907 0.60428 0.73096 0.0
H1063 H 0.16875 0.61942 0.71312 0.0
H1064 H 0.16518 0.59458 0.71176 0.0
H1065 H 0.14524 0.63826 0.78772 0.0
H1066 H 0.12149 0.63914 0.78446 0.0
H1067 H 0.13583 0.65329 0.76916 0.0
C1068 C 0.85208 0.67516 0.25005 0.0
C1069 C 0.83487 0.66911 0.24501 0.0
C1070 C 0.86609 0.66246 0.25211 0.0
C1071 C 0.8628 0.64323 0.24912 0.0
C1072 C 0.84552 0.63706 0.24381 0.0
C1073 C 0.83178 0.65006 0.24182 0.0
C1074 C 0.88436 0.66958 0.25766 0.0
C1075 C 0.84144 0.61667 0.24062 0.0
C1076 C 0.90104 0.61041 0.23967 0.0
C1077 C 0.90402 0.60253 0.25851 0.0
C1078 C 0.88793 0.62399 0.23646 0.0
C1079 C 0.87726 0.62945 0.25235 0.0
C1080 C 0.88008 0.6214 0.27132 0.0
C1081 C 0.89341 0.60808 0.27415 0.0
C1082 C 0.88535 0.63232 0.21604 0.0
C1083 C 0.86881 0.62662 0.28857 0.0
H1084 H 0.85463 0.68988 0.25226 0.0
H1085 H 0.81848 0.64524 0.23817 0.0
H1086 H 0.8886 0.66338 0.27205 0.0
H1087 H 0.8941 0.66525 0.24655 0.0
H1088 H 0.88486 0.68501 0.25879 0.0
H1089 H 0.82745 0.61423 0.2359 0.0
H1090 H 0.85028 0.61106 0.22926 0.0
H1091 H 0.844 0.60863 0.25448 0.0
H1092 H 0.90888 0.60588 0.22739 0.0
H1093 H 0.89542 0.60172 0.28862 0.0
H1094 H 0.88637 0.64774 0.21658 0.0
H1095 H 0.87188 0.62882 0.21034 0.0
H1096 H 0.89526 0.6272 0.20549 0.0
H1097 H 0.86973 0.64186 0.291 0.0
H1098 H 0.87285 0.61922 0.30242 0.0
H1099 H 0.85469 0.62324 0.28533 0.0
C1100 C 0.85611 0.34869 0.74063 0.0
C1101 C 0.83778 0.35197 0.74073 0.0
C1102 C 0.86839 0.36316 0.74416 0.0
C1103 C 0.86221 0.38128 0.74789 0.0
C1104 C 0.84379 0.38476 0.74774 0.0
C1105 C 0.83179 0.37008 0.74414 0.0
C1106 C 0.88796 0.35898 0.74421 0.0
C1107 C 0.83676 0.40396 0.75166 0.0
C1108 C 0.89485 0.4191 0.78553 0.0
C1109 C 0.90618 0.43113 0.76467 0.0
C1110 C 0.88031 0.40021 0.77845 0.0
C1111 C 0.87484 0.3964 0.75278 0.0
C1112 C 0.88251 0.4119 0.73335 0.0
C1113 C 0.89712 0.43123 0.73891 0.0
C1114 C 0.87275 0.38762 0.79393 0.0
C1115 C 0.87681 0.40863 0.71254 0.0
H1116 H 0.86088 0.33471 0.73824 0.0
H1117 H 0.81767 0.37281 0.74393 0.0
H1118 H 0.89481 0.36846 0.73363 0.0
H1119 H 0.8937 0.36153 0.7591 0.0
H1120 H 0.89067 0.34434 0.74019 0.0
H1121 H 0.82206 0.40451 0.75057 0.0
H1122 H 0.84098 0.40835 0.76666 0.0
H1123 H 0.84242 0.41419 0.74098 0.0
H1124 H 0.89943 0.42056 0.80063 0.0
H1125 H 0.9029 0.43975 0.72733 0.0
H1126 H 0.87651 0.37304 0.79092 0.0
H1127 H 0.85806 0.38833 0.79324 0.0
H1128 H 0.87764 0.39166 0.80879 0.0
H1129 H 0.88018 0.39417 0.7085 0.0
H1130 H 0.88334 0.41876 0.70241 0.0
H1131 H 0.86219 0.40997 0.71126 0.0
C1132 C 0.26737 0.20802 0.36259 0.0
C1133 C 0.26512 0.20472 0.34237 0.0
C1134 C 0.27063 0.19332 0.37603 0.0
C1135 C 0.27156 0.17484 0.36911 0.0
C1136 C 0.2691 0.17138 0.34874 0.0
C1137 C 0.26598 0.18638 0.3356 0.0
C1138 C 0.27334 0.1976 0.39761 0.0
C1139 C 0.26984 0.15185 0.34083 0.0
C1140 C 0.29718 0.13995 0.40087 0.0
C1141 C 0.28355 0.13062 0.41097 0.0
C1142 C 0.29345 0.15416 0.38701 0.0
C1143 C 0.27561 0.15922 0.38315 0.0
C1144 C 0.26175 0.1498 0.39318 0.0
C1145 C 0.26589 0.13576 0.40715 0.0
C1146 C 0.30862 0.16403 0.37681 0.0
C1147 C 0.24257 0.15477 0.38942 0.0
H1148 H 0.26693 0.22219 0.36787 0.0
H1149 H 0.26403 0.18373 0.32002 0.0
H1150 H 0.26363 0.18962 0.40662 0.0
H1151 H 0.28678 0.1932 0.40254 0.0
H1152 H 0.27187 0.21268 0.40065 0.0
H1153 H 0.26717 0.15146 0.32469 0.0
H1154 H 0.28312 0.14584 0.3439 0.0
H1155 H 0.25999 0.14278 0.34841 0.0
H1156 H 0.31085 0.13629 0.4041 0.0
H1157 H 0.2553 0.12892 0.41523 0.0
H1158 H 0.30863 0.17905 0.38047 0.0
H1159 H 0.30695 0.16306 0.36058 0.0
H1160 H 0.32171 0.15813 0.38114 0.0
H1161 H 0.24025 0.16937 0.39383 0.0
H1162 H 0.23332 0.14548 0.39766 0.0
H1163 H 0.23935 0.15391 0.37343 0.0
C1164 C 0.3664 0.74383 0.81734 0.0
C1165 C 0.34825 0.73975 0.81921 0.0
C1166 C 0.37824 0.74141 0.83334 0.0
C1167 C 0.37181 0.73472 0.85166 0.0
C1168 C 0.3536 0.73012 0.85352 0.0
C1169 C 0.34204 0.73271 0.83729 0.0
C1170 C 0.39758 0.74641 0.83077 0.0
C1171 C 0.34622 0.72294 0.87281 0.0
C1172 C 0.40391 0.71542 0.89056 0.0
C1173 C 0.40584 0.7306 0.90325 0.0
C1174 C 0.39309 0.71662 0.87354 0.0
C1175 C 0.38392 0.73337 0.86917 0.0
C1176 C 0.38594 0.74877 0.88184 0.0
C1177 C 0.3968 0.74716 0.89876 0.0
C1178 C 0.39121 0.69988 0.86044 0.0
C1179 C 0.37639 0.76687 0.87771 0.0
H1180 H 0.37135 0.749 0.80334 0.0
H1181 H 0.32802 0.72974 0.83896 0.0
H1182 H 0.40129 0.75804 0.84065 0.0
H1183 H 0.40602 0.73436 0.83503 0.0
H1184 H 0.40061 0.75066 0.81535 0.0
H1185 H 0.33195 0.71904 0.87152 0.0
H1186 H 0.35374 0.71056 0.87808 0.0
H1187 H 0.34774 0.73378 0.88421 0.0
H1188 H 0.4107 0.70252 0.89414 0.0
H1189 H 0.39807 0.75884 0.90864 0.0
H1190 H 0.39478 0.70375 0.84508 0.0
H1191 H 0.3772 0.69503 0.86012 0.0
H1192 H 0.39972 0.68813 0.86552 0.0
H1193 H 0.37977 0.77232 0.86281 0.0
H1194 H 0.37979 0.77769 0.88871 0.0
H1195 H 0.36184 0.76442 0.87782 0.0
C1196 C 0.79607 0.82549 0.35624 0.0
C1197 C 0.78159 0.82267 0.34332 0.0
C1198 C 0.79597 0.83968 0.37024 0.0
C1199 C 0.78114 0.85157 0.37123 0.0
C1200 C 0.76661 0.84905 0.35804 0.0
C1201 C 0.76697 0.83458 0.34432 0.0
C1202 C 0.81169 0.84183 0.38412 0.0
C1203 C 0.75063 0.86155 0.35853 0.0
C1204 C 0.77396 0.87621 0.41961 0.0
C1205 C 0.78173 0.89374 0.41596 0.0
C1206 C 0.7735 0.86244 0.40514 0.0
C1207 C 0.78075 0.86638 0.38637 0.0
C1208 C 0.78828 0.88418 0.38239 0.0
C1209 C 0.78895 0.89754 0.39732 0.0
C1210 C 0.76571 0.84351 0.41012 0.0
C1211 C 0.79589 0.889 0.36246 0.0
H1212 H 0.80758 0.81663 0.35536 0.0
H1213 H 0.75563 0.83241 0.33459 0.0
H1214 H 0.81761 0.85597 0.3824 0.0
H1215 H 0.80731 0.84035 0.39962 0.0
H1216 H 0.82214 0.83137 0.38152 0.0
H1217 H 0.74074 0.85825 0.34675 0.0
H1218 H 0.7441 0.86011 0.37303 0.0
H1219 H 0.75482 0.87635 0.35679 0.0
H1220 H 0.76859 0.87314 0.43406 0.0
H1221 H 0.79525 0.91091 0.39437 0.0
H1222 H 0.77606 0.8327 0.4089 0.0
H1223 H 0.75493 0.83998 0.39948 0.0
H1224 H 0.7603 0.84281 0.42527 0.0
H1225 H 0.80753 0.88011 0.35972 0.0
H1226 H 0.80012 0.90385 0.36128 0.0
H1227 H 0.78593 0.88616 0.35065 0.0
C1228 C 0.67785 0.28626 0.83336 0.0
C1229 C 0.68626 0.30275 0.8269 0.0
C1230 C 0.66386 0.2867 0.84682 0.0
C1231 C 0.65822 0.30404 0.85408 0.0
C1232 C 0.66641 0.32074 0.84731 0.0
C1233 C 0.68024 0.31989 0.83376 0.0
C1234 C 0.65536 0.26862 0.85357 0.0
C1235 C 0.6608 0.33952 0.8547 0.0
C1236 C 0.61348 0.30964 0.87836 0.0
C1237 C 0.61821 0.30902 0.89848 0.0
C1238 C 0.62624 0.30726 0.86375 0.0
C1239 C 0.64425 0.30478 0.86934 0.0
C1240 C 0.64909 0.30407 0.8896 0.0
C1241 C 0.63601 0.30614 0.90389 0.0
C1242 C 0.62053 0.3079 0.84231 0.0
C1243 C 0.66818 0.3018 0.89618 0.0
H1244 H 0.68249 0.27294 0.82828 0.0
H1245 H 0.68641 0.33273 0.82856 0.0
H1246 H 0.65782 0.26647 0.86962 0.0
H1247 H 0.64077 0.26919 0.85123 0.0
H1248 H 0.66054 0.25641 0.84567 0.0
H1249 H 0.66829 0.35121 0.84769 0.0
H1250 H 0.64644 0.3416 0.85174 0.0
H1251 H 0.66291 0.3401 0.87091 0.0
H1252 H 0.59983 0.31228 0.87401 0.0
H1253 H 0.63976 0.30603 0.91939 0.0
H1254 H 0.62557 0.29554 0.83459 0.0
H1255 H 0.6263 0.32044 0.83498 0.0
H1256 H 0.60588 0.30831 0.84046 0.0
H1257 H 0.67382 0.28909 0.88971 0.0
H1258 H 0.66964 0.3008 0.91249 0.0
H1259 H 0.67617 0.31387 0.89082 0.0
C1260 C 0.26424 0.82931 0.65462 0.0
C1261 C 0.25255 0.82697 0.67041 0.0
C1262 C 0.26384 0.84555 0.6427 0.0
C1263 C 0.25159 0.85972 0.64679 0.0
C1264 C 0.24025 0.85773 0.66311 0.0
C1265 C 0.24084 0.84138 0.67471 0.0
C1266 C 0.2761 0.84733 0.6254 0.0
C1267 C 0.22715 0.87269 0.66804 0.0
C1268 C 0.25735 0.91827 0.62452 0.0
C1269 C 0.24338 0.91477 0.60193 0.0
C1270 C 0.26142 0.89733 0.63889 0.0
C1271 C 0.24958 0.87597 0.63339 0.0
C1272 C 0.23251 0.87487 0.61445 0.0
C1273 C 0.22746 0.895 0.59929 0.0
C1274 C 0.27444 0.89773 0.65563 0.0
C1275 C 0.22239 0.85718 0.61142 0.0
H1276 H 0.27327 0.81819 0.65118 0.0
H1277 H 0.232 0.83979 0.6871 0.0
H1278 H 0.26815 0.84763 0.61149 0.0
H1279 H 0.28365 0.86067 0.62617 0.0
H1280 H 0.28562 0.83563 0.62487 0.0
H1281 H 0.22 0.86952 0.68192 0.0
H1282 H 0.23412 0.88631 0.66953 0.0
H1283 H 0.21726 0.8742 0.65584 0.0
H1284 H 0.2652 0.9308 0.62668 0.0
H1285 H 0.21836 0.89409 0.58685 0.0
H1286 H 0.28437 0.88662 0.65372 0.0
H1287 H 0.26744 0.8947 0.6696 0.0
H1288 H 0.28113 0.91155 0.6564 0.0
H1289 H 0.23183 0.84563 0.60929 0.0
H1290 H 0.2133 0.85848 0.59846 0.0
H1291 H 0.21467 0.85382 0.62483 0.0
C1292 C 0.6847 0.76424 0.16647 0.0
C1293 C 0.68291 0.75554 0.185 0.0
C1294 C 0.672 0.76149 0.15141 0.0
C1295 C 0.65703 0.74994 0.15506 0.0
C1296 C 0.65501 0.74135 0.17385 0.0
C1297 C 0.66804 0.74415 0.18856 0.0
C1298 C 0.67478 0.77066 0.13148 0.0
C1299 C 0.63912 0.72915 0.1784 0.0
C1300 C 0.61711 0.75537 0.12048 0.0
C1301 C 0.61885 0.73988 0.10825 0.0
C1302 C 0.62923 0.75861 0.13603 0.0
C1303 C 0.64375 0.74644 0.13904 0.0
C1304 C 0.64573 0.73099 0.12655 0.0
C1305 C 0.63321 0.72786 0.11143 0.0
C1306 C 0.62655 0.77508 0.14921 0.0
C1307 C 0.66121 0.7179 0.12901 0.0
H1308 H 0.69627 0.7729 0.16361 0.0
H1309 H 0.66651 0.73758 0.20295 0.0
H1310 H 0.67565 0.75986 0.12002 0.0
H1311 H 0.66329 0.77959 0.1275 0.0
H1312 H 0.68703 0.77937 0.1311 0.0
H1313 H 0.6392 0.72403 0.19395 0.0
H1314 H 0.62671 0.73702 0.17555 0.0
H1315 H 0.63882 0.71695 0.16856 0.0
H1316 H 0.60627 0.76497 0.11796 0.0
H1317 H 0.63475 0.71606 0.10182 0.0
H1318 H 0.63798 0.78486 0.14801 0.0
H1319 H 0.62592 0.77033 0.16484 0.0
H1320 H 0.61422 0.78279 0.1454 0.0
H1321 H 0.67386 0.7258 0.12759 0.0
H1322 H 0.66092 0.70666 0.11793 0.0
H1323 H 0.66117 0.7114 0.14396 0.0
C1324 C 0.73257 0.18347 0.67159 0.0
C1325 C 0.74798 0.19166 0.6796 0.0
C1326 C 0.73346 0.1682 0.659 0.0
C1327 C 0.75021 0.16096 0.65411 0.0
C1328 C 0.76587 0.16954 0.66154 0.0
C1329 C 0.76458 0.18477 0.67424 0.0
C1330 C 0.71643 0.15949 0.65138 0.0
C1331 C 0.78396 0.16232 0.65652 0.0
C1332 C 0.74915 0.10994 0.64022 0.0
C1333 C 0.74823 0.11105 0.61957 0.0
C1334 C 0.75058 0.12606 0.65161 0.0
C1335 C 0.75112 0.14378 0.64212 0.0
C1336 C 0.7509 0.14499 0.62124 0.0
C1337 C 0.74923 0.12863 0.61021 0.0
C1338 C 0.75057 0.12414 0.67382 0.0
C1339 C 0.75161 0.16361 0.61058 0.0
H1340 H 0.71971 0.18895 0.67529 0.0
H1341 H 0.77656 0.19092 0.68045 0.0
H1342 H 0.71644 0.15913 0.63503 0.0
H1343 H 0.71536 0.14486 0.65684 0.0
H1344 H 0.70451 0.16715 0.65607 0.0
H1345 H 0.79484 0.17141 0.66218 0.0
H1346 H 0.78568 0.14811 0.66294 0.0
H1347 H 0.78521 0.1612 0.6403 0.0
H1348 H 0.74804 0.09643 0.64751 0.0
H1349 H 0.74817 0.12961 0.59427 0.0
H1350 H 0.73822 0.13017 0.6796 0.0
H1351 H 0.76189 0.13202 0.68035 0.0
H1352 H 0.7514 0.10937 0.67889 0.0
H1353 H 0.73907 0.17119 0.61287 0.0
H1354 H 0.75349 0.16209 0.59446 0.0
H1355 H 0.76258 0.17234 0.61661 0.0
C1356 C 0.37205 0.28684 0.19617 0.0
C1357 C 0.35447 0.2838 0.18987 0.0
C1358 C 0.38547 0.29087 0.1826 0.0
C1359 C 0.38125 0.2918 0.16219 0.0
C1360 C 0.36355 0.28866 0.15571 0.0
C1361 C 0.35035 0.28476 0.16963 0.0
C1362 C 0.40415 0.29432 0.19015 0.0
C1363 C 0.35858 0.28939 0.13406 0.0
C1364 C 0.41295 0.3197 0.12996 0.0
C1365 C 0.4237 0.30571 0.12245 0.0
C1366 C 0.39886 0.31533 0.14255 0.0
C1367 C 0.39536 0.29648 0.14774 0.0
C1368 C 0.40593 0.28223 0.13993 0.0
C1369 C 0.42013 0.28702 0.1276 0.0
C1370 C 0.38808 0.33096 0.15081 0.0
C1371 C 0.40255 0.26195 0.14503 0.0
H1372 H 0.37527 0.28635 0.21181 0.0
H1373 H 0.33682 0.28222 0.16466 0.0
H1374 H 0.41337 0.28433 0.18348 0.0
H1375 H 0.40861 0.30855 0.18571 0.0
H1376 H 0.40525 0.29294 0.20646 0.0
H1377 H 0.34429 0.28627 0.1314 0.0
H1378 H 0.36164 0.30342 0.12781 0.0
H1379 H 0.36657 0.27921 0.12592 0.0
H1380 H 0.41591 0.33417 0.12637 0.0
H1381 H 0.42862 0.27615 0.12224 0.0
H1382 H 0.38975 0.33117 0.16709 0.0
H1383 H 0.37378 0.32866 0.14755 0.0
H1384 H 0.39207 0.34482 0.14471 0.0
H1385 H 0.40509 0.25946 0.16101 0.0
H1386 H 0.41108 0.2525 0.13659 0.0
H1387 H 0.38845 0.25827 0.14202 0.0
C1388 C 0.82907 0.6436 0.76406 0.0
C1389 C 0.83157 0.663 0.76351 0.0
C1390 C 0.84353 0.63147 0.76338 0.0
C1391 C 0.86094 0.63891 0.76208 0.0
C1392 C 0.86353 0.65846 0.7608 0.0
C1393 C 0.84881 0.67028 0.76156 0.0
C1394 C 0.84021 0.61069 0.76473 0.0
C1395 C 0.88188 0.66691 0.75935 0.0
C1396 C 0.89759 0.60876 0.78384 0.0
C1397 C 0.9046 0.60065 0.767 0.0
C1398 C 0.88366 0.62152 0.78236 0.0
C1399 C 0.87644 0.62626 0.76357 0.0
C1400 C 0.88357 0.61831 0.74645 0.0
C1401 C 0.89747 0.60546 0.74838 0.0
C1402 C 0.87635 0.62956 0.80099 0.0
C1403 C 0.87623 0.62305 0.72617 0.0
H1404 H 0.81576 0.63787 0.76521 0.0
H1405 H 0.85088 0.68525 0.7613 0.0
H1406 H 0.84663 0.60361 0.75232 0.0
H1407 H 0.84619 0.60502 0.77859 0.0
H1408 H 0.82584 0.60712 0.76448 0.0
H1409 H 0.88155 0.68224 0.75683 0.0
H1410 H 0.88946 0.66399 0.7732 0.0
H1411 H 0.88921 0.6605 0.74716 0.0
H1412 H 0.90281 0.60478 0.79827 0.0
H1413 H 0.90259 0.59893 0.73536 0.0
H1414 H 0.86227 0.62524 0.80263 0.0
H1415 H 0.8767 0.64502 0.80012 0.0
H1416 H 0.88387 0.62496 0.81439 0.0
H1417 H 0.86227 0.61815 0.72493 0.0
H1418 H 0.88396 0.6166 0.71429 0.0
H1419 H 0.87621 0.63839 0.72377 0.0
C1420 C 0.86375 0.33529 0.22805 0.0
C1421 C 0.84744 0.34024 0.21928 0.0
C1422 C 0.87799 0.34804 0.22876 0.0
C1423 C 0.87589 0.36613 0.22045 0.0
C1424 C 0.85942 0.37126 0.21176 0.0
C1425 C 0.8454 0.35829 0.21135 0.0
C1426 C 0.89536 0.3421 0.23817 0.0
C1427 C 0.85664 0.39043 0.20275 0.0
C1428 C 0.90631 0.40646 0.23441 0.0
C1429 C 0.91745 0.40765 0.21803 0.0
C1430 C 0.89315 0.39254 0.23578 0.0
C1431 C 0.89097 0.37965 0.22031 0.0
C1432 C 0.90244 0.38052 0.20398 0.0
C1433 C 0.91548 0.39457 0.203 0.0
C1434 C 0.88117 0.39205 0.25343 0.0
C1435 C 0.90049 0.36708 0.18716 0.0
H1436 H 0.86548 0.32132 0.23405 0.0
H1437 H 0.83275 0.36236 0.2049 0.0
H1438 H 0.90598 0.34258 0.22703 0.0
H1439 H 0.89927 0.3519 0.25 0.0
H1440 H 0.89464 0.32777 0.2446 0.0
H1441 H 0.84296 0.39228 0.19677 0.0
H1442 H 0.85927 0.40125 0.21395 0.0
H1443 H 0.86613 0.39288 0.19062 0.0
H1444 H 0.9076 0.41675 0.2459 0.0
H1445 H 0.92388 0.39562 0.19019 0.0
H1446 H 0.88081 0.37783 0.26011 0.0
H1447 H 0.86743 0.39551 0.24868 0.0
H1448 H 0.8855 0.40207 0.2649 0.0
H1449 H 0.90057 0.35249 0.19285 0.0
H1450 H 0.91124 0.36881 0.17623 0.0
H1451 H 0.88757 0.36928 0.17948 0.0
C1452 C 0.16756 0.33916 0.7848 0.0
C1453 C 0.18035 0.34108 0.77009 0.0
C1454 C 0.15186 0.34948 0.78391 0.0
C1455 C 0.14894 0.36216 0.768 0.0
C1456 C 0.16186 0.36428 0.75317 0.0
C1457 C 0.17739 0.35363 0.75434 0.0
C1458 C 0.1383 0.34667 0.79989 0.0
C1459 C 0.15929 0.37782 0.73611 0.0
C1460 C 0.1012 0.37527 0.75646 0.0
C1461 C 0.09972 0.39229 0.76616 0.0
C1462 C 0.11722 0.36548 0.75666 0.0
C1463 C 0.13218 0.37293 0.76675 0.0
C1464 C 0.13088 0.39024 0.77634 0.0
C1465 C 0.1146 0.3996 0.77618 0.0
C1466 C 0.11798 0.3469 0.74655 0.0
C1467 C 0.1466 0.39869 0.78711 0.0
H1468 H 0.16972 0.32931 0.79688 0.0
H1469 H 0.18734 0.35529 0.74306 0.0
H1470 H 0.13577 0.36008 0.80722 0.0
H1471 H 0.12553 0.34187 0.7933 0.0
H1472 H 0.14263 0.3363 0.81127 0.0
H1473 H 0.17075 0.37808 0.72601 0.0
H1474 H 0.14717 0.37401 0.72754 0.0
H1475 H 0.15732 0.39208 0.74173 0.0
H1476 H 0.08963 0.36942 0.74907 0.0
H1477 H 0.11347 0.41252 0.7841 0.0
H1478 H 0.12104 0.33574 0.75757 0.0
H1479 H 0.12877 0.34703 0.73561 0.0
H1480 H 0.1053 0.34331 0.73889 0.0
H1481 H 0.15045 0.3896 0.79983 0.0
H1482 H 0.14374 0.41283 0.79267 0.0
H1483 H 0.15817 0.39967 0.77722 0.0
C1484 C 0.18372 0.67193 0.25286 0.0
C1485 C 0.17817 0.69024 0.25604 0.0
C1486 C 0.17138 0.6574 0.25015 0.0
C1487 C 0.15301 0.66125 0.25067 0.0
C1488 C 0.14729 0.67965 0.25406 0.0
C1489 C 0.15994 0.69393 0.25669 0.0
C1490 C 0.178 0.63795 0.2466 0.0
C1491 C 0.12782 0.68429 0.25468 0.0
C1492 C 0.12195 0.6275 0.22444 0.0
C1493 C 0.11571 0.61643 0.24015 0.0
C1494 C 0.13387 0.6423 0.2277 0.0
C1495 C 0.1398 0.64607 0.24715 0.0
C1496 C 0.13353 0.63499 0.26311 0.0
C1497 C 0.12168 0.62019 0.2594 0.0
C1498 C 0.14039 0.65366 0.21028 0.0
C1499 C 0.13955 0.6386 0.28405 0.0
H1500 H 0.19778 0.66891 0.25265 0.0
H1501 H 0.15554 0.70807 0.25893 0.0
H1502 H 0.17276 0.62816 0.25798 0.0
H1503 H 0.17307 0.63304 0.23207 0.0
H1504 H 0.19271 0.63724 0.2469 0.0
H1505 H 0.12556 0.69918 0.25804 0.0
H1506 H 0.12139 0.68116 0.24027 0.0
H1507 H 0.12116 0.67549 0.26601 0.0
H1508 H 0.11765 0.62438 0.20952 0.0
H1509 H 0.11723 0.61141 0.27154 0.0
H1510 H 0.15498 0.65228 0.2091 0.0
H1511 H 0.13759 0.66865 0.21241 0.0
H1512 H 0.13411 0.64925 0.19616 0.0
H1513 H 0.15409 0.63659 0.28546 0.0
H1514 H 0.13287 0.62922 0.29487 0.0
H1515 H 0.13683 0.65326 0.28791 0.0
C1516 C 0.76727 0.83766 0.67866 0.0
C1517 C 0.78043 0.824 0.67759 0.0
C1518 C 0.767 0.85298 0.6655 0.0
C1519 C 0.78007 0.85458 0.65079 0.0
C1520 C 0.79353 0.84102 0.64982 0.0
C1521 C 0.79361 0.82599 0.66329 0.0
C1522 C 0.75253 0.86727 0.66708 0.0
C1523 C 0.80769 0.8422 0.6343 0.0
C1524 C 0.76995 0.88178 0.60355 0.0
C1525 C 0.77967 0.89829 0.60641 0.0
C1526 C 0.76969 0.86761 0.61803 0.0
C1527 C 0.77935 0.87002 0.63588 0.0
C1528 C 0.789 0.88677 0.63902 0.0
C1529 C 0.78925 0.90061 0.62413 0.0
C1530 C 0.7595 0.84982 0.61398 0.0
C1531 C 0.79935 0.88991 0.65793 0.0
H1532 H 0.75693 0.83616 0.68952 0.0
H1533 H 0.80405 0.81574 0.6626 0.0
H1534 H 0.75843 0.88144 0.66828 0.0
H1535 H 0.74409 0.86719 0.65354 0.0
H1536 H 0.74396 0.86458 0.68003 0.0
H1537 H 0.81737 0.83066 0.63572 0.0
H1538 H 0.80145 0.84175 0.61939 0.0
H1539 H 0.815 0.85565 0.63535 0.0
H1540 H 0.76285 0.87979 0.5897 0.0
H1541 H 0.79712 0.91315 0.62628 0.0
H1542 H 0.74984 0.84699 0.62586 0.0
H1543 H 0.76877 0.83789 0.61387 0.0
H1544 H 0.75221 0.85039 0.59962 0.0
H1545 H 0.79067 0.88759 0.67083 0.0
H1546 H 0.8051 0.9042 0.65865 0.0
H1547 H 0.81031 0.87973 0.65924 0.0
C1548 C 0.687 0.26583 0.15553 0.0
C1549 C 0.68644 0.26795 0.17603 0.0
C1550 C 0.67241 0.2707 0.14343 0.0
C1551 C 0.65702 0.27799 0.15207 0.0
C1552 C 0.65661 0.28062 0.17271 0.0
C1553 C 0.67129 0.27551 0.18443 0.0
C1554 C 0.67328 0.26758 0.1215 0.0
C1555 C 0.64051 0.28853 0.18247 0.0
C1556 C 0.62209 0.30422 0.12205 0.0
C1557 C 0.60853 0.29075 0.12063 0.0
C1558 C 0.63826 0.30009 0.13161 0.0
C1559 C 0.64094 0.28204 0.13983 0.0
C1560 C 0.6276 0.26817 0.13767 0.0
C1561 C 0.61152 0.27274 0.12821 0.0
C1562 C 0.65215 0.31525 0.1337 0.0
C1563 C 0.63001 0.24872 0.14607 0.0
H1564 H 0.69867 0.25989 0.14901 0.0
H1565 H 0.67094 0.27745 0.20025 0.0
H1566 H 0.6632 0.257 0.11712 0.0
H1567 H 0.67012 0.28065 0.11327 0.0
H1568 H 0.68654 0.26274 0.11696 0.0
H1569 H 0.64264 0.29051 0.19856 0.0
H1570 H 0.63702 0.30216 0.17556 0.0
H1571 H 0.62897 0.27903 0.18032 0.0
H1572 H 0.61979 0.31816 0.1162 0.0
H1573 H 0.60108 0.26229 0.12717 0.0
H1574 H 0.6652 0.31026 0.12874 0.0
H1575 H 0.65369 0.31896 0.14946 0.0
H1576 H 0.64864 0.32804 0.1251 0.0
H1577 H 0.64271 0.24282 0.1411 0.0
H1578 H 0.61902 0.23916 0.14168 0.0
H1579 H 0.63063 0.24921 0.16241 0.0
C1580 C 0.26152 0.18717 0.66589 0.0
C1581 C 0.25043 0.18662 0.6823 0.0
C1582 C 0.26482 0.17099 0.6552 0.0
C1583 C 0.25703 0.15384 0.66125 0.0
C1584 C 0.24574 0.15324 0.67775 0.0
C1585 C 0.24249 0.16966 0.68801 0.0
C1586 C 0.27674 0.17223 0.63752 0.0
C1587 C 0.23739 0.13516 0.68483 0.0
C1588 C 0.25369 0.11332 0.62587 0.0
C1589 C 0.26858 0.10276 0.63151 0.0
C1590 C 0.25001 0.13022 0.63509 0.0
C1591 C 0.26114 0.1364 0.65073 0.0
C1592 C 0.27602 0.12568 0.65665 0.0
C1593 C 0.2796 0.10908 0.64689 0.0
C1594 C 0.23415 0.1414 0.62822 0.0
C1595 C 0.288 0.13159 0.67352 0.0
H1596 H 0.26753 0.2003 0.66134 0.0
H1597 H 0.23406 0.16917 0.70082 0.0
H1598 H 0.28863 0.16348 0.64012 0.0
H1599 H 0.26969 0.16674 0.62432 0.0
H1600 H 0.28118 0.18676 0.63427 0.0
H1601 H 0.22872 0.13712 0.69772 0.0
H1602 H 0.22938 0.12884 0.67278 0.0
H1603 H 0.24791 0.12507 0.68904 0.0
H1604 H 0.24487 0.1084 0.61428 0.0
H1605 H 0.29092 0.10078 0.6515 0.0
H1606 H 0.23833 0.15585 0.62428 0.0
H1607 H 0.22449 0.14235 0.64033 0.0
H1608 H 0.22734 0.13516 0.61523 0.0
H1609 H 0.29374 0.14559 0.67037 0.0
H1610 H 0.29902 0.12167 0.6763 0.0
H1611 H 0.28019 0.13264 0.6872 0.0
C1612 C 0.34695 0.74586 0.17169 0.0
C1613 C 0.33283 0.73298 0.17096 0.0
C1614 C 0.36207 0.7436 0.16012 0.0
C1615 C 0.36303 0.72818 0.14743 0.0
C1616 C 0.34875 0.71527 0.14646 0.0
C1617 C 0.3339 0.71776 0.1583 0.0
C1618 C 0.37707 0.75762 0.1616 0.0
C1619 C 0.34924 0.69867 0.13305 0.0
C1620 C 0.39449 0.72854 0.10418 0.0
C1621 C 0.40802 0.71678 0.11124 0.0
C1622 C 0.37999 0.73281 0.11599 0.0
C1623 C 0.37907 0.72525 0.13537 0.0
C1624 C 0.39298 0.71389 0.14281 0.0
C1625 C 0.40722 0.70967 0.1306 0.0
C1626 C 0.36534 0.74483 0.10747 0.0
C1627 C 0.39256 0.70571 0.16346 0.0
H1628 H 0.34616 0.75779 0.18123 0.0
H1629 H 0.32323 0.70755 0.15787 0.0
H1630 H 0.38942 0.75052 0.16651 0.0
H1631 H 0.37964 0.76399 0.14689 0.0
H1632 H 0.37423 0.76892 0.17208 0.0
H1633 H 0.33679 0.69027 0.13352 0.0
H1634 H 0.35143 0.70339 0.11761 0.0
H1635 H 0.36048 0.68953 0.13738 0.0
H1636 H 0.39504 0.73398 0.0892 0.0
H1637 H 0.41759 0.70051 0.13609 0.0
H1638 H 0.3627 0.75661 0.11739 0.0
H1639 H 0.35291 0.73649 0.10628 0.0
H1640 H 0.36857 0.75055 0.09262 0.0
H1641 H 0.3904 0.71686 0.17429 0.0
H1642 H 0.40502 0.69833 0.1675 0.0
H1643 H 0.38133 0.69569 0.16472 0.0
C1644 C 0.77844 0.1701 0.3179 0.0
C1645 C 0.78648 0.18722 0.32258 0.0
C1646 C 0.77728 0.15559 0.33202 0.0
C1647 C 0.78435 0.15831 0.35124 0.0
C1648 C 0.79195 0.17576 0.35621 0.0
C1649 C 0.7929 0.18999 0.34184 0.0
C1650 C 0.76906 0.13718 0.3262 0.0
C1651 C 0.79954 0.17927 0.37657 0.0
C1652 C 0.77316 0.12679 0.39495 0.0
C1653 C 0.78863 0.11613 0.39684 0.0
C1654 C 0.77118 0.14005 0.37963 0.0
C1655 C 0.78496 0.14264 0.36587 0.0
C1656 C 0.80021 0.13129 0.36717 0.0
C1657 C 0.80191 0.11828 0.3827 0.0
C1658 C 0.75474 0.15191 0.37874 0.0
C1659 C 0.81515 0.13351 0.3527 0.0
H1660 H 0.77353 0.16783 0.30301 0.0
H1661 H 0.7988 0.20331 0.34567 0.0
H1662 H 0.77938 0.12625 0.32641 0.0
H1663 H 0.75883 0.13281 0.33696 0.0
H1664 H 0.76286 0.13781 0.31124 0.0
H1665 H 0.80415 0.1939 0.37835 0.0
H1666 H 0.78944 0.17609 0.3879 0.0
H1667 H 0.81093 0.16988 0.37952 0.0
H1668 H 0.76291 0.12519 0.40591 0.0
H1669 H 0.81391 0.11014 0.38413 0.0
H1670 H 0.74894 0.15211 0.36361 0.0
H1671 H 0.75832 0.16651 0.38242 0.0
H1672 H 0.74449 0.14687 0.3892 0.0
H1673 H 0.80991 0.13306 0.33733 0.0
H1674 H 0.82532 0.1225 0.35468 0.0
H1675 H 0.82168 0.1473 0.35464 0.0
C1676 C 0.35161 0.28282 0.82833 0.0
C1677 C 0.338 0.26973 0.83155 0.0
C1678 C 0.36436 0.28656 0.84306 0.0
C1679 C 0.36331 0.27715 0.86154 0.0
C1680 C 0.34948 0.26407 0.86494 0.0
C1681 C 0.33705 0.26042 0.84985 0.0
C1682 C 0.37906 0.30041 0.8388 0.0
C1683 C 0.34776 0.25398 0.88455 0.0
C1684 C 0.40461 0.27342 0.8941 0.0
C1685 C 0.40232 0.28821 0.90713 0.0
C1686 C 0.39215 0.26986 0.87901 0.0
C1687 C 0.37675 0.28094 0.87728 0.0
C1688 C 0.37415 0.29559 0.89065 0.0
C1689 C 0.38702 0.29912 0.9053 0.0
C1690 C 0.39549 0.25426 0.86487 0.0
C1691 C 0.35769 0.30743 0.88957 0.0
H1692 H 0.35246 0.28989 0.81412 0.0
H1693 H 0.32641 0.25044 0.85244 0.0
H1694 H 0.37875 0.31194 0.8495 0.0
H1695 H 0.39212 0.29354 0.8406 0.0
H1696 H 0.37805 0.30645 0.82364 0.0
H1697 H 0.33602 0.24452 0.88495 0.0
H1698 H 0.35982 0.24563 0.88771 0.0
H1699 H 0.34665 0.26422 0.89655 0.0
H1700 H 0.41618 0.26463 0.89559 0.0
H1701 H 0.38508 0.31035 0.91554 0.0
H1702 H 0.39536 0.25977 0.84948 0.0
H1703 H 0.38475 0.24364 0.86593 0.0
H1704 H 0.4084 0.24733 0.86782 0.0
H1705 H 0.3568 0.31469 0.87502 0.0
H1706 H 0.35752 0.31803 0.90132 0.0
H1707 H 0.3457 0.29845 0.89094 0.0
C1708 C 0.26503 0.85473 0.32324 0.0
C1709 C 0.27556 0.83882 0.32565 0.0
C1710 C 0.26412 0.86802 0.33816 0.0
C1711 C 0.27383 0.86521 0.35598 0.0
C1712 C 0.2844 0.84911 0.35853 0.0
C1713 C 0.28521 0.83617 0.34329 0.0
C1714 C 0.25286 0.88512 0.33482 0.0
C1715 C 0.29475 0.84549 0.37743 0.0
C1716 C 0.2847 0.90615 0.38908 0.0
C1717 C 0.27136 0.90456 0.40326 0.0
C1718 C 0.28539 0.89372 0.37333 0.0
C1719 C 0.2728 0.87899 0.37207 0.0
C1720 C 0.25948 0.87716 0.38647 0.0
C1721 C 0.25889 0.89 0.40183 0.0
C1722 C 0.29969 0.89622 0.35814 0.0
C1723 C 0.24603 0.86143 0.38586 0.0
H1724 H 0.2577 0.85692 0.30953 0.0
H1725 H 0.29321 0.82378 0.34528 0.0
H1726 H 0.24248 0.88569 0.3462 0.0
H1727 H 0.26118 0.89788 0.3363 0.0
H1728 H 0.24632 0.88535 0.32003 0.0
H1729 H 0.30225 0.83224 0.37711 0.0
H1730 H 0.30426 0.8571 0.38012 0.0
H1731 H 0.2856 0.84489 0.39009 0.0
H1732 H 0.29464 0.91709 0.39029 0.0
H1733 H 0.2488 0.88851 0.41299 0.0
H1734 H 0.29364 0.89723 0.34314 0.0
H1735 H 0.30848 0.8839 0.35842 0.0
H1736 H 0.30794 0.90889 0.3607 0.0
H1737 H 0.23852 0.86188 0.37167 0.0
H1738 H 0.23646 0.86204 0.39813 0.0
H1739 H 0.25292 0.84784 0.38674 0.0
C1740 C 0.6673 0.73909 0.82816 0.0
C1741 C 0.68348 0.74794 0.83271 0.0
C1742 C 0.65454 0.73586 0.84271 0.0
C1743 C 0.65815 0.74141 0.86233 0.0
C1744 C 0.67449 0.75029 0.86702 0.0
C1745 C 0.68692 0.75355 0.85211 0.0
C1746 C 0.63717 0.72658 0.8371 0.0
C1747 C 0.67893 0.75615 0.88781 0.0
C1748 C 0.6201 0.74787 0.89768 0.0
C1749 C 0.62003 0.73077 0.90808 0.0
C1750 C 0.63221 0.75137 0.88249 0.0
C1751 C 0.64491 0.73771 0.87801 0.0
C1752 C 0.64512 0.72059 0.88868 0.0
C1753 C 0.63264 0.71731 0.9035 0.0
C1754 C 0.63146 0.76972 0.87129 0.0
C1755 C 0.65868 0.70583 0.88461 0.0
H1756 H 0.66453 0.73492 0.81312 0.0
H1757 H 0.69949 0.76022 0.85571 0.0
H1758 H 0.63554 0.71335 0.8456 0.0
H1759 H 0.62595 0.73569 0.84089 0.0
H1760 H 0.63628 0.72347 0.82111 0.0
H1761 H 0.69225 0.76284 0.88902 0.0
H1762 H 0.66889 0.7661 0.89298 0.0
H1763 H 0.67856 0.74383 0.89791 0.0
H1764 H 0.61069 0.75854 0.90138 0.0
H1765 H 0.63284 0.70424 0.91176 0.0
H1766 H 0.6299 0.7672 0.85526 0.0
H1767 H 0.64408 0.77755 0.87345 0.0
H1768 H 0.62035 0.77857 0.87607 0.0
H1769 H 0.65752 0.70143 0.86903 0.0
H1770 H 0.65712 0.69332 0.89433 0.0
H1771 H 0.67225 0.71161 0.88679 0.0
loop_
_geom_bond_atom_site_label_1
_geom_bond_atom_site_label_2
_geom_bond_distance
_geom_bond_site_symmetry_2
_ccdc_geom_bond_type
C0 C1 1.264 . S
C0 C5 1.479 . S
C0 C10 1.465 . S
C1 C0 1.264 . S
C1 C3 1.339 . S
C1 H28 0.931 . S
C2 C3 1.395 . S
C2 C4 1.320 . S
C3 C1 1.339 . S
C3 C2 1.395 . S
C3 H29 0.929 . S
C4 C2 1.320 . S
C4 C5 1.405 . S
C4 H30 0.930 . S
C5 C0 1.479 . S
C5 C4 1.405 . S
C5 H31 0.931 . S
U6 O7 2.454 . S
U6 O8 2.458 . S
U6 C9 2.984 . S
U6 C10 2.847 . S
U6 C23 2.882 . S
U6 O24 2.441 . S
U6 O25 2.420 . S
U6 O26 2.455 . S
U6 O27 2.449 . S
O7 U6 2.454 . S
O7 C9 1.353 . S
O8 U6 2.458 . S
O8 C9 1.286 . S
C9 U6 2.984 . S
C9 O7 1.353 . S
C9 O8 1.286 . S
C9 C11 1.363 . S
C10 C0 1.465 . S
C10 U6 2.847 . S
C10 O24 1.249 . S
C10 O25 1.202 . S
C11 C9 1.363 . S
C11 C13 1.408 . S
C11 C16 1.342 . S
C12 C13 1.310 . S
C12 C15 1.461 . S
C12 H32 0.932 . S
C13 C11 1.408 . S
C13 C12 1.310 . S
C13 H33 0.930 . S
C14 C15 1.474 . S
C14 C16 1.285 . S
C14 H34 0.929 . S
C15 C12 1.461 . S
C15 C14 1.474 . S
C16 C11 1.342 . S
C16 C14 1.285 . S
C16 H35 0.930 . S
C17 C20 1.424 . S
C17 C22 1.245 . S
C17 C23 1.428 . S
C18 C21 1.260 . S
C18 C22 1.477 . S
C18 H36 0.932 . S
C19 C20 1.384 . S
C19 C21 1.479 . S
C19 H37 0.929 . S
C20 C17 1.424 . S
C20 C19 1.384 . S
C20 H38 0.928 . S
C21 C18 1.260 . S
C21 C19 1.479 . S
C22 C17 1.245 . S
C22 C18 1.477 . S
C22 H39 0.932 . S
C23 U6 2.882 . S
C23 C17 1.428 . S
C23 O26 1.301 . S
C23 O27 1.282 . S
O24 U6 2.441 . S
O24 C10 1.249 . S
O25 U6 2.420 . S
O25 C10 1.202 . S
O26 U6 2.455 . S
O26 C23 1.301 . S
O27 U6 2.449 . S
O27 C23 1.282 . S
H28 C1 0.931 . S
H29 C3 0.929 . S
H30 C4 0.930 . S
H31 C5 0.931 . S
H32 C12 0.932 . S
H33 C13 0.930 . S
H34 C14 0.929 . S
H35 C16 0.930 . S
H36 C18 0.932 . S
H37 C19 0.929 . S
H38 C20 0.928 . S
H39 C22 0.932 . S
C40 C41 1.264 . S
C40 C45 1.479 . S
C40 C50 1.465 . S
C41 C40 1.264 . S
C41 C43 1.339 . S
C41 H68 0.931 . S
C42 C43 1.395 . S
C42 C44 1.320 . S
C43 C41 1.339 . S
C43 C42 1.395 . S
C43 H69 0.929 . S
C44 C42 1.320 . S
C44 C45 1.405 . S
C44 H70 0.930 . S
C45 C40 1.479 . S
C45 C44 1.405 . S
C45 H71 0.931 . S
U46 O47 2.454 . S
U46 O48 2.458 . S
U46 C49 2.984 . S
U46 C50 2.847 . S
U46 C63 2.882 . S
U46 O64 2.441 . S
U46 O65 2.420 . S
U46 O66 2.455 . S
U46 O67 2.449 . S
O47 U46 2.454 . S
O47 C49 1.353 . S
O48 U46 2.458 . S
O48 C49 1.286 . S
C49 U46 2.984 . S
C49 O47 1.353 . S
C49 O48 1.286 . S
C49 C51 1.363 . S
C50 C40 1.465 . S
C50 U46 2.847 . S
C50 O64 1.249 . S
C50 O65 1.202 . S
C51 C49 1.363 . S
C51 C53 1.408 . S
C51 C56 1.342 . S
C52 C53 1.310 . S
C52 C55 1.461 . S
C52 H72 0.932 . S
C53 C51 1.408 . S
C53 C52 1.310 . S
C53 H73 0.930 . S
C54 C55 1.474 . S
C54 C56 1.285 . S
C54 H74 0.929 . S
C55 C52 1.461 . S
C55 C54 1.474 . S
C56 C51 1.342 . S
C56 C54 1.285 . S
C56 H75 0.930 . S
C57 C60 1.424 . S
C57 C62 1.245 . S
C57 C63 1.428 . S
C58 C61 1.260 . S
C58 C62 1.477 . S
C58 H76 0.932 . S
C59 C60 1.384 . S
C59 C61 1.479 . S
C59 H77 0.929 . S
C60 C57 1.424 . S
C60 C59 1.384 . S
C60 H78 0.928 . S
C61 C58 1.260 . S
C61 C59 1.479 . S
C62 C57 1.245 . S
C62 C58 1.477 . S
C62 H79 0.932 . S
C63 U46 2.882 . S
C63 C57 1.428 . S
C63 O66 1.301 . S
C63 O67 1.282 . S
O64 U46 2.441 . S
O64 C50 1.249 . S
O65 U46 2.420 . S
O65 C50 1.202 . S
O66 U46 2.455 . S
O66 C63 1.301 . S
O67 U46 2.449 . S
O67 C63 1.282 . S
H68 C41 0.931 . S
H69 C43 0.929 . S
H70 C44 0.930 . S
H71 C45 0.931 . S
H72 C52 0.932 . S
H73 C53 0.930 . S
H74 C54 0.929 . S
H75 C56 0.930 . S
H76 C58 0.932 . S
H77 C59 0.929 . S
H78 C60 0.928 . S
H79 C62 0.932 . S
C80 C81 1.264 . S
C80 C85 1.479 . S
C80 C90 1.465 . S
C81 C80 1.264 . S
C81 C83 1.339 . S
C81 H108 0.931 . S
C82 C83 1.395 . S
C82 C84 1.320 . S
C83 C81 1.339 . S
C83 C82 1.395 . S
C83 H109 0.929 . S
C84 C82 1.320 . S
C84 C85 1.405 . S
C84 H110 0.930 . S
C85 C80 1.479 . S
C85 C84 1.405 . S
C85 H111 0.931 . S
U86 O87 2.454 . S
U86 O88 2.458 . S
U86 C89 2.984 . S
U86 C90 2.847 . S
U86 C103 2.882 . S
U86 O104 2.441 . S
U86 O105 2.420 . S
U86 O106 2.455 . S
U86 O107 2.449 . S
O87 U86 2.454 . S
O87 C89 1.353 . S
O88 U86 2.458 . S
O88 C89 1.286 . S
C89 U86 2.984 . S
C89 O87 1.353 . S
C89 O88 1.286 . S
C89 C91 1.363 . S
C90 C80 1.465 . S
C90 U86 2.847 . S
C90 O104 1.249 . S
C90 O105 1.202 . S
C91 C89 1.363 . S
C91 C93 1.408 . S
C91 C96 1.342 . S
C92 C93 1.310 . S
C92 C95 1.461 . S
C92 H112 0.932 . S
C93 C91 1.408 . S
C93 C92 1.310 . S
C93 H113 0.930 . S
C94 C95 1.474 . S
C94 C96 1.285 . S
C94 H114 0.929 . S
C95 C92 1.461 . S
C95 C94 1.474 . S
C96 C91 1.342 . S
C96 C94 1.285 . S
C96 H115 0.930 . S
C97 C100 1.424 . S
C97 C102 1.245 . S
C97 C103 1.428 . S
C98 C101 1.260 . S
C98 C102 1.477 . S
C98 H116 0.932 . S
C99 C100 1.384 . S
C99 C101 1.479 . S
C99 H117 0.929 . S
C100 C97 1.424 . S
C100 C99 1.384 . S
C100 H118 0.928 . S
C101 C98 1.260 . S
C101 C99 1.479 . S
C102 C97 1.245 . S
C102 C98 1.477 . S
C102 H119 0.932 . S
C103 U86 2.882 . S
C103 C97 1.428 . S
C103 O106 1.301 . S
C103 O107 1.282 . S
O104 U86 2.441 . S
O104 C90 1.249 . S
O105 U86 2.420 . S
O105 C90 1.202 . S
O106 U86 2.455 . S
O106 C103 1.301 . S
O107 U86 2.449 . S
O107 C103 1.282 . S
H108 C81 0.931 . S
H109 C83 0.929 . S
H110 C84 0.930 . S
H111 C85 0.931 . S
H112 C92 0.932 . S
H113 C93 0.930 . S
H114 C94 0.929 . S
H115 C96 0.930 . S
H116 C98 0.932 . S
H117 C99 0.929 . S
H118 C100 0.928 . S
H119 C102 0.932 . S
C120 C121 1.264 . S
C120 C125 1.479 . S
C120 C130 1.465 . S
C121 C120 1.264 . S
C121 C123 1.339 . S
C121 H148 0.931 . S
C122 C123 1.395 . S
C122 C124 1.320 . S
C123 C121 1.339 . S
C123 C122 1.395 . S
C123 H149 0.929 . S
C124 C122 1.320 . S
C124 C125 1.405 . S
C124 H150 0.930 . S
C125 C120 1.479 . S
C125 C124 1.405 . S
C125 H151 0.931 . S
U126 O127 2.454 . S
U126 O128 2.458 . S
U126 C129 2.984 . S
U126 C130 2.847 . S
U126 C143 2.882 . S
U126 O144 2.441 . S
U126 O145 2.420 . S
U126 O146 2.455 . S
U126 O147 2.449 . S
O127 U126 2.454 . S
O127 C129 1.353 . S
O128 U126 2.458 . S
O128 C129 1.286 . S
C129 U126 2.984 . S
C129 O127 1.353 . S
C129 O128 1.286 . S
C129 C131 1.363 . S
C130 C120 1.465 . S
C130 U126 2.847 . S
C130 O144 1.249 . S
C130 O145 1.202 . S
C131 C129 1.363 . S
C131 C133 1.408 . S
C131 C136 1.342 . S
C132 C133 1.310 . S
C132 C135 1.461 . S
C132 H152 0.932 . S
C133 C131 1.408 . S
C133 C132 1.310 . S
C133 H153 0.930 . S
C134 C135 1.474 . S
C134 C136 1.285 . S
C134 H154 0.929 . S
C135 C132 1.461 . S
C135 C134 1.474 . S
C136 C131 1.342 . S
C136 C134 1.285 . S
C136 H155 0.930 . S
C137 C140 1.424 . S
C137 C142 1.245 . S
C137 C143 1.428 . S
C138 C141 1.260 . S
C138 C142 1.477 . S
C138 H156 0.932 . S
C139 C140 1.384 . S
C139 C141 1.479 . S
C139 H157 0.929 . S
C140 C137 1.424 . S
C140 C139 1.384 . S
C140 H158 0.928 . S
C141 C138 1.260 . S
C141 C139 1.479 . S
C142 C137 1.245 . S
C142 C138 1.477 . S
C142 H159 0.932 . S
C143 U126 2.882 . S
C143 C137 1.428 . S
C143 O146 1.301 . S
C143 O147 1.282 . S
O144 U126 2.441 . S
O144 C130 1.249 . S
O145 U126 2.420 . S
O145 C130 1.202 . S
O146 U126 2.455 . S
O146 C143 1.301 . S
O147 U126 2.449 . S
O147 C143 1.282 . S
H148 C121 0.931 . S
H149 C123 0.929 . S
H150 C124 0.930 . S
H151 C125 0.931 . S
H152 C132 0.932 . S
H153 C133 0.930 . S
H154 C134 0.929 . S
H155 C136 0.930 . S
H156 C138 0.932 . S
H157 C139 0.929 . S
H158 C140 0.928 . S
H159 C142 0.932 . S
C160 C161 1.264 . S
C160 C165 1.479 . S
C160 C170 1.465 . S
C161 C160 1.264 . S
C161 C163 1.339 . S
C161 H188 0.931 . S
C162 C163 1.395 . S
C162 C164 1.320 . S
C163 C161 1.339 . S
C163 C162 1.395 . S
C163 H189 0.929 . S
C164 C162 1.320 . S
C164 C165 1.405 . S
C164 H190 0.930 . S
C165 C160 1.479 . S
C165 C164 1.405 . S
C165 H191 0.931 . S
U166 O167 2.454 . S
U166 O168 2.458 . S
U166 C169 2.984 . S
U166 C170 2.847 . S
U166 C183 2.882 . S
U166 O184 2.441 . S
U166 O185 2.420 . S
U166 O186 2.455 . S
U166 O187 2.449 . S
O167 U166 2.454 . S
O167 C169 1.353 . S
O168 U166 2.458 . S
O168 C169 1.286 . S
C169 U166 2.984 . S
C169 O167 1.353 . S
C169 O168 1.286 . S
C169 C171 1.363 . S
C170 C160 1.465 . S
C170 U166 2.847 . S
C170 O184 1.249 . S
C170 O185 1.202 . S
C171 C169 1.363 . S
C171 C173 1.408 . S
C171 C176 1.342 . S
C172 C173 1.310 . S
C172 C175 1.461 . S
C172 H192 0.932 . S
C173 C171 1.408 . S
C173 C172 1.310 . S
C173 H193 0.930 . S
C174 C175 1.474 . S
C174 C176 1.285 . S
C174 H194 0.929 . S
C175 C172 1.461 . S
C175 C174 1.474 . S
C176 C171 1.342 . S
C176 C174 1.285 . S
C176 H195 0.930 . S
C177 C180 1.424 . S
C177 C182 1.245 . S
C177 C183 1.428 . S
C178 C181 1.260 . S
C178 C182 1.477 . S
C178 H196 0.932 . S
C179 C180 1.384 . S
C179 C181 1.479 . S
C179 H197 0.929 . S
C180 C177 1.424 . S
C180 C179 1.384 . S
C180 H198 0.928 . S
C181 C178 1.260 . S
C181 C179 1.479 . S
C182 C177 1.245 . S
C182 C178 1.477 . S
C182 H199 0.932 . S
C183 U166 2.882 . S
C183 C177 1.428 . S
C183 O186 1.301 . S
C183 O187 1.282 . S
O184 U166 2.441 . S
O184 C170 1.249 . S
O185 U166 2.420 . S
O185 C170 1.202 . S
O186 U166 2.455 . S
O186 C183 1.301 . S
O187 U166 2.449 . S
O187 C183 1.282 . S
H188 C161 0.931 . S
H189 C163 0.929 . S
H190 C164 0.930 . S
H191 C165 0.931 . S
H192 C172 0.932 . S
H193 C173 0.930 . S
H194 C174 0.929 . S
H195 C176 0.930 . S
H196 C178 0.932 . S
H197 C179 0.929 . S
H198 C180 0.928 . S
H199 C182 0.932 . S
C200 C201 1.264 . S
C200 C205 1.479 . S
C200 C210 1.465 . S
C201 C200 1.264 . S
C201 C203 1.339 . S
C201 H228 0.931 . S
C202 C203 1.395 . S
C202 C204 1.320 . S
C203 C201 1.339 . S
C203 C202 1.395 . S
C203 H229 0.929 . S
C204 C202 1.320 . S
C204 C205 1.405 . S
C204 H230 0.930 . S
C205 C200 1.479 . S
C205 C204 1.405 . S
C205 H231 0.931 . S
U206 O207 2.454 . S
U206 O208 2.458 . S
U206 C209 2.984 . S
U206 C210 2.847 . S
U206 C223 2.882 . S
U206 O224 2.441 . S
U206 O225 2.420 . S
U206 O226 2.455 . S
U206 O227 2.449 . S
O207 U206 2.454 . S
O207 C209 1.353 . S
O208 U206 2.458 . S
O208 C209 1.286 . S
C209 U206 2.984 . S
C209 O207 1.353 . S
C209 O208 1.286 . S
C209 C211 1.363 . S
C210 C200 1.465 . S
C210 U206 2.847 . S
C210 O224 1.249 . S
C210 O225 1.202 . S
C211 C209 1.363 . S
C211 C213 1.408 . S
C211 C216 1.342 . S
C212 C213 1.310 . S
C212 C215 1.461 . S
C212 H232 0.932 . S
C213 C211 1.408 . S
C213 C212 1.310 . S
C213 H233 0.930 . S
C214 C215 1.474 . S
C214 C216 1.285 . S
C214 H234 0.929 . S
C215 C212 1.461 . S
C215 C214 1.474 . S
C216 C211 1.342 . S
C216 C214 1.285 . S
C216 H235 0.930 . S
C217 C220 1.424 . S
C217 C222 1.245 . S
C217 C223 1.428 . S
C218 C221 1.260 . S
C218 C222 1.477 . S
C218 H236 0.932 . S
C219 C220 1.384 . S
C219 C221 1.479 . S
C219 H237 0.929 . S
C220 C217 1.424 . S
C220 C219 1.384 . S
C220 H238 0.928 . S
C221 C218 1.260 . S
C221 C219 1.479 . S
C222 C217 1.245 . S
C222 C218 1.477 . S
C222 H239 0.932 . S
C223 U206 2.882 . S
C223 C217 1.428 . S
C223 O226 1.301 . S
C223 O227 1.282 . S
O224 U206 2.441 . S
O224 C210 1.249 . S
O225 U206 2.420 . S
O225 C210 1.202 . S
O226 U206 2.455 . S
O226 C223 1.301 . S
O227 U206 2.449 . S
O227 C223 1.282 . S
H228 C201 0.931 . S
H229 C203 0.929 . S
H230 C204 0.930 . S
H231 C205 0.931 . S
H232 C212 0.932 . S
H233 C213 0.930 . S
H234 C214 0.929 . S
H235 C216 0.930 . S
H236 C218 0.932 . S
H237 C219 0.929 . S
H238 C220 0.928 . S
H239 C222 0.932 . S
C240 C241 1.264 . S
C240 C245 1.479 . S
C240 C250 1.465 . S
C241 C240 1.264 . S
C241 C243 1.339 . S
C241 H268 0.931 . S
C242 C243 1.395 . S
C242 C244 1.320 . S
C243 C241 1.339 . S
C243 C242 1.395 . S
C243 H269 0.929 . S
C244 C242 1.320 . S
C244 C245 1.405 . S
C244 H270 0.930 . S
C245 C240 1.479 . S
C245 C244 1.405 . S
C245 H271 0.931 . S
U246 O247 2.454 . S
U246 O248 2.458 . S
U246 C249 2.984 . S
U246 C250 2.847 . S
U246 C263 2.882 . S
U246 O264 2.441 . S
U246 O265 2.420 . S
U246 O266 2.455 . S
U246 O267 2.449 . S
O247 U246 2.454 . S
O247 C249 1.353 . S
O248 U246 2.458 . S
O248 C249 1.286 . S
C249 U246 2.984 . S
C249 O247 1.353 . S
C249 O248 1.286 . S
C249 C251 1.363 . S
C250 C240 1.465 . S
C250 U246 2.847 . S
C250 O264 1.249 . S
C250 O265 1.202 . S
C251 C249 1.363 . S
C251 C253 1.408 . S
C251 C256 1.342 . S
C252 C253 1.310 . S
C252 C255 1.461 . S
C252 H272 0.932 . S
C253 C251 1.408 . S
C253 C252 1.310 . S
C253 H273 0.930 . S
C254 C255 1.474 . S
C254 C256 1.285 . S
C254 H274 0.929 . S
C255 C252 1.461 . S
C255 C254 1.474 . S
C256 C251 1.342 . S
C256 C254 1.285 . S
C256 H275 0.930 . S
C257 C260 1.424 . S
C257 C262 1.245 . S
C257 C263 1.428 . S
C258 C261 1.260 . S
C258 C262 1.477 . S
C258 H276 0.932 . S
C259 C260 1.384 . S
C259 C261 1.479 . S
C259 H277 0.929 . S
C260 C257 1.424 . S
C260 C259 1.384 . S
C260 H278 0.928 . S
C261 C258 1.260 . S
C261 C259 1.479 . S
C262 C257 1.245 . S
C262 C258 1.477 . S
C262 H279 0.932 . S
C263 U246 2.882 . S
C263 C257 1.428 . S
C263 O266 1.301 . S
C263 O267 1.282 . S
O264 U246 2.441 . S
O264 C250 1.249 . S
O265 U246 2.420 . S
O265 C250 1.202 . S
O266 U246 2.455 . S
O266 C263 1.301 . S
O267 U246 2.449 . S
O267 C263 1.282 . S
H268 C241 0.931 . S
H269 C243 0.929 . S
H270 C244 0.930 . S
H271 C245 0.931 . S
H272 C252 0.932 . S
H273 C253 0.930 . S
H274 C254 0.929 . S
H275 C256 0.930 . S
H276 C258 0.932 . S
H277 C259 0.929 . S
H278 C260 0.928 . S
H279 C262 0.932 . S
C280 C281 1.264 . S
C280 C285 1.479 . S
C280 C290 1.465 . S
C281 C280 1.264 . S
C281 C283 1.339 . S
C281 H308 0.931 . S
C282 C283 1.395 . S
C282 C284 1.320 . S
C283 C281 1.339 . S
C283 C282 1.395 . S
C283 H309 0.929 . S
C284 C282 1.320 . S
C284 C285 1.405 . S
C284 H310 0.930 . S
C285 C280 1.479 . S
C285 C284 1.405 . S
C285 H311 0.931 . S
U286 O287 2.454 . S
U286 O288 2.458 . S
U286 C289 2.984 . S
U286 C290 2.847 . S
U286 C303 2.882 . S
U286 O304 2.441 . S
U286 O305 2.420 . S
U286 O306 2.455 . S
U286 O307 2.449 . S
O287 U286 2.454 . S
O287 C289 1.353 . S
O288 U286 2.458 . S
O288 C289 1.286 . S
C289 U286 2.984 . S
C289 O287 1.353 . S
C289 O288 1.286 . S
C289 C291 1.363 . S
C290 C280 1.465 . S
C290 U286 2.847 . S
C290 O304 1.249 . S
C290 O305 1.202 . S
C291 C289 1.363 . S
C291 C293 1.408 . S
C291 C296 1.342 . S
C292 C293 1.310 . S
C292 C295 1.461 . S
C292 H312 0.932 . S
C293 C291 1.408 . S
C293 C292 1.310 . S
C293 H313 0.930 . S
C294 C295 1.474 . S
C294 C296 1.285 . S
C294 H314 0.929 . S
C295 C292 1.461 . S
C295 C294 1.474 . S
C296 C291 1.342 . S
C296 C294 1.285 . S
C296 H315 0.930 . S
C297 C300 1.424 . S
C297 C302 1.245 . S
C297 C303 1.428 . S
C298 C301 1.260 . S
C298 C302 1.477 . S
C298 H316 0.932 . S
C299 C300 1.384 . S
C299 C301 1.479 . S
C299 H317 0.929 . S
C300 C297 1.424 . S
C300 C299 1.384 . S
C300 H318 0.928 . S
C301 C298 1.260 . S
C301 C299 1.479 . S
C302 C297 1.245 . S
C302 C298 1.477 . S
C302 H319 0.932 . S
C303 U286 2.882 . S
C303 C297 1.428 . S
C303 O306 1.301 . S
C303 O307 1.282 . S
O304 U286 2.441 . S
O304 C290 1.249 . S
O305 U286 2.420 . S
O305 C290 1.202 . S
O306 U286 2.455 . S
O306 C303 1.301 . S
O307 U286 2.449 . S
O307 C303 1.282 . S
H308 C281 0.931 . S
H309 C283 0.929 . S
H310 C284 0.930 . S
H311 C285 0.931 . S
H312 C292 0.932 . S
H313 C293 0.930 . S
H314 C294 0.929 . S
H315 C296 0.930 . S
H316 C298 0.932 . S
H317 C299 0.929 . S
H318 C300 0.928 . S
H319 C302 0.932 . S
C320 C321 1.560 . S
C320 H381 0.959 . S
C320 H382 0.959 . S
C320 H383 0.960 . S
C321 C320 1.560 . S
C321 O376 1.426 . S
C321 H380 0.980 . S
C322 C323 1.407 . S
C322 C327 1.418 . S
C322 O376 1.334 . S
C323 C322 1.407 . S
C323 C324 1.360 . S
C323 H384 0.929 . S
C324 C323 1.360 . S
C324 C325 1.401 . S
C324 C328 1.527 . S
C325 C324 1.401 . S
C325 C326 1.405 . S
C325 C358 1.587 . S
C326 C325 1.405 . S
C326 C327 1.332 . S
C326 C329 1.496 . S
C327 C322 1.418 . S
C327 C326 1.332 . S
C327 H385 0.929 . S
C328 C324 1.527 . S
C328 H386 0.959 . S
C328 H387 0.961 . S
C328 H388 0.961 . S
C329 C326 1.496 . S
C329 H389 0.960 . S
C329 H390 0.960 1_655 S
C329 H391 0.961 . S
C330 C331 1.517 . S
C330 H393 0.961 . S
C330 H394 0.960 . S
C330 H395 0.959 . S
C331 C330 1.517 . S
C331 O379 1.468 . S
C331 H392 0.980 . S
C332 C333 1.349 . S
C332 C337 1.367 . S
C332 O379 1.408 . S
C333 C332 1.349 . S
C333 C334 1.407 . S
C333 H396 0.930 . S
C334 C333 1.407 . S
C334 C335 1.449 . S
C334 C338 1.535 . S
C335 C334 1.449 . S
C335 C336 1.384 . S
C335 C360 1.553 . S
C336 C335 1.384 . S
C336 C337 1.364 . S
C336 C339 1.450 . S
C337 C332 1.367 . S
C337 C336 1.364 . S
C337 H397 0.931 . S
C338 C334 1.535 . S
C338 H398 0.959 . S
C338 H399 0.961 . S
C338 H400 0.959 . S
C339 C336 1.450 . S
C339 H401 0.960 . S
C339 H402 0.960 . S
C339 H403 0.960 . S
C340 C341 1.309 . S
C340 C345 1.304 . S
C340 O378 1.435 . S
C341 C340 1.309 . S
C341 C342 1.476 . S
C341 H405 0.930 . S
C342 C341 1.476 . S
C342 C343 1.400 . S
C342 C346 1.567 . S
C343 C342 1.400 . S
C343 C344 1.373 . S
C343 C365 1.432 . S
C344 C343 1.373 . S
C344 C345 1.339 . S
C344 C347 1.530 . S
C345 C340 1.304 . S
C345 C344 1.339 . S
C345 H406 0.930 . S
C346 C342 1.567 . S
C346 H407 0.961 . S
C346 H408 0.960 . S
C346 H409 0.958 . S
C347 C344 1.530 . S
C347 H410 0.961 . S
C347 H411 0.960 . S
C347 H412 0.960 . S
C348 C349 1.530 . S
C348 H414 0.961 . S
C348 H415 0.961 . S
C348 H416 0.959 . S
C349 C348 1.530 . S
C349 O377 1.412 . S
C349 H413 0.980 . S
C350 C351 1.288 . S
C350 C355 1.377 . S
C350 O377 1.393 . S
C351 C350 1.288 . S
C351 C352 1.369 . S
C351 H417 0.932 . S
C352 C351 1.369 . S
C352 C353 1.398 . S
C352 C356 1.527 . S
C353 C352 1.398 . S
C353 C354 1.380 . S
C353 C367 1.497 . S
C354 C353 1.380 . S
C354 C355 1.383 . S
C354 C357 1.603 . S
C355 C350 1.377 . S
C355 C354 1.383 . S
C355 H418 0.929 . S
C356 C352 1.527 . S
C356 H419 0.961 . S
C356 H420 0.995 . S
C356 H421 0.959 . S
C357 C354 1.603 . S
C357 H422 0.960 . S
C357 H423 0.962 . S
C357 H424 0.961 . S
C358 C325 1.587 . S
C358 C359 1.360 1_655 S
C358 C371 1.412 . S
C359 C358 1.360 1_455 S
C359 C360 1.365 . S
C359 H425 0.929 . S
C360 C335 1.553 . S
C360 C359 1.365 . S
C360 C361 1.404 . S
C361 C360 1.404 . S
C361 C362 1.395 . S
C361 C372 1.451 . S
C362 C361 1.395 . S
C362 C363 1.322 . S
C362 H426 0.930 . S
C363 C362 1.322 . S
C363 C364 1.459 . S
C363 H427 0.929 . S
C364 C363 1.459 . S
C364 C365 1.445 . S
C364 C373 1.395 . S
C365 C343 1.432 . S
C365 C364 1.445 . S
C365 C366 1.370 . S
C366 C365 1.370 . S
C366 C367 1.438 1_455 S
C366 H428 0.930 . S
C367 C353 1.497 . S
C367 C366 1.438 1_655 S
C367 C368 1.360 . S
C368 C367 1.360 . S
C368 C369 1.401 . S
C368 C373 1.446 1_655 S
C369 C368 1.401 . S
C369 C370 1.347 . S
C369 H429 0.929 . S
C370 C369 1.347 . S
C370 C371 1.455 . S
C370 H430 0.930 . S
C371 C358 1.412 . S
C371 C370 1.455 . S
C371 C372 1.331 1_655 S
C372 C361 1.451 . S
C372 C371 1.331 1_455 S
C372 C373 1.497 . S
C373 C364 1.395 . S
C373 C368 1.446 1_455 S
C373 C372 1.497 . S
C374 C375 1.582 . S
C374 H431 0.962 . S
C374 H432 0.959 . S
C374 H433 0.958 . S
C375 C374 1.582 . S
C375 O378 1.458 . S
C375 H404 0.980 . S
O376 C321 1.426 . S
O376 C322 1.334 . S
O377 C349 1.412 . S
O377 C350 1.393 . S
O378 C340 1.435 . S
O378 C375 1.458 . S
O379 C331 1.468 . S
O379 C332 1.408 . S
H380 C321 0.980 . S
H381 C320 0.959 . S
H382 C320 0.959 . S
H383 C320 0.960 . S
H384 C323 0.929 . S
H385 C327 0.929 . S
H386 C328 0.959 . S
H387 C328 0.961 . S
H388 C328 0.961 . S
H389 C329 0.960 . S
H390 C329 0.960 1_455 S
H391 C329 0.961 . S
H392 C331 0.980 . S
H393 C330 0.961 . S
H394 C330 0.960 . S
H395 C330 0.959 . S
H396 C333 0.930 . S
H397 C337 0.931 . S
H398 C338 0.959 . S
H399 C338 0.961 . S
H400 C338 0.959 . S
H401 C339 0.960 . S
H402 C339 0.960 . S
H403 C339 0.960 . S
H404 C375 0.980 . S
H405 C341 0.930 . S
H406 C345 0.930 . S
H407 C346 0.961 . S
H408 C346 0.960 . S
H409 C346 0.958 . S
H410 C347 0.961 . S
H411 C347 0.960 . S
H412 C347 0.960 . S
H413 C349 0.980 . S
H414 C348 0.961 . S
H415 C348 0.961 . S
H416 C348 0.959 . S
H417 C351 0.932 . S
H418 C355 0.929 . S
H419 C356 0.961 . S
H420 C356 0.995 . S
H421 C356 0.959 . S
H422 C357 0.960 . S
H423 C357 0.962 . S
H424 C357 0.961 . S
H425 C359 0.929 . S
H426 C362 0.930 . S
H427 C363 0.929 . S
H428 C366 0.930 . S
H429 C369 0.929 . S
H430 C370 0.930 . S
H431 C374 0.962 . S
H432 C374 0.959 . S
H433 C374 0.958 . S
C434 C435 1.560 . S
C434 H495 0.959 . S
C434 H496 0.959 . S
C434 H497 0.960 . S
C435 C434 1.560 . S
C435 O490 1.426 . S
C435 H494 0.980 . S
C436 C437 1.407 . S
C436 C441 1.418 . S
C436 O490 1.334 . S
C437 C436 1.407 . S
C437 C438 1.360 . S
C437 H498 0.929 . S
C438 C437 1.360 . S
C438 C439 1.401 . S
C438 C442 1.527 . S
C439 C438 1.401 . S
C439 C440 1.405 . S
C439 C472 1.587 . S
C440 C439 1.405 . S
C440 C441 1.332 . S
C440 C443 1.496 . S
C441 C436 1.418 . S
C441 C440 1.332 . S
C441 H499 0.929 . S
C442 C438 1.527 . S
C442 H500 0.959 . S
C442 H501 0.961 . S
C442 H502 0.961 . S
C443 C440 1.496 . S
C443 H503 0.960 . S
C443 H504 0.960 . S
C443 H505 0.961 . S
C444 C445 1.517 . S
C444 H507 0.961 . S
C444 H508 0.960 . S
C444 H509 0.959 . S
C445 C444 1.517 . S
C445 O493 1.468 . S
C445 H506 0.980 . S
C446 C447 1.349 . S
C446 C451 1.367 . S
C446 O493 1.408 . S
C447 C446 1.349 . S
C447 C448 1.407 . S
C447 H510 0.930 . S
C448 C447 1.407 . S
C448 C449 1.449 . S
C448 C452 1.535 . S
C449 C448 1.449 . S
C449 C450 1.384 . S
C449 C474 1.553 . S
C450 C449 1.384 . S
C450 C451 1.364 . S
C450 C453 1.450 . S
C451 C446 1.367 . S
C451 C450 1.364 . S
C451 H511 0.931 . S
C452 C448 1.535 . S
C452 H512 0.959 . S
C452 H513 0.961 . S
C452 H514 0.959 . S
C453 C450 1.450 . S
C453 H515 0.960 . S
C453 H516 0.960 . S
C453 H517 0.960 . S
C454 C455 1.309 . S
C454 C459 1.304 . S
C454 O492 1.435 . S
C455 C454 1.309 . S
C455 C456 1.476 . S
C455 H519 0.930 . S
C456 C455 1.476 . S
C456 C457 1.400 . S
C456 C460 1.567 . S
C457 C456 1.400 . S
C457 C458 1.373 . S
C457 C479 1.432 . S
C458 C457 1.373 . S
C458 C459 1.339 . S
C458 C461 1.530 . S
C459 C454 1.304 . S
C459 C458 1.339 . S
C459 H520 0.930 . S
C460 C456 1.567 . S
C460 H521 0.961 . S
C460 H522 0.960 . S
C460 H523 0.958 . S
C461 C458 1.530 . S
C461 H524 0.961 . S
C461 H525 0.960 . S
C461 H526 0.960 . S
C462 C463 1.530 . S
C462 H528 0.961 . S
C462 H529 0.961 . S
C462 H530 0.959 . S
C463 C462 1.530 . S
C463 O491 1.412 . S
C463 H527 0.980 . S
C464 C465 1.288 . S
C464 C469 1.377 . S
C464 O491 1.393 . S
C465 C464 1.288 . S
C465 C466 1.369 . S
C465 H531 0.932 . S
C466 C465 1.369 . S
C466 C467 1.398 . S
C466 C470 1.527 . S
C467 C466 1.398 . S
C467 C468 1.380 . S
C467 C481 1.497 . S
C468 C467 1.380 . S
C468 C469 1.383 . S
C468 C471 1.603 . S
C469 C464 1.377 . S
C469 C468 1.383 . S
C469 H532 0.929 . S
C470 C466 1.527 . S
C470 H533 0.961 . S
C470 H534 0.959 . S
C470 H535 0.959 . S
C471 C468 1.603 . S
C471 H536 0.960 . S
C471 H537 0.962 . S
C471 H538 0.961 . S
C472 C439 1.587 . S
C472 C473 1.360 . S
C472 C485 1.412 . S
C473 C472 1.360 . S
C473 C474 1.365 1_455 S
C473 H539 0.929 . S
C474 C449 1.553 . S
C474 C473 1.365 1_655 S
C474 C475 1.404 . S
C475 C474 1.404 . S
C475 C476 1.395 . S
C475 C486 1.451 1_655 S
C476 C475 1.395 . S
C476 C477 1.322 . S
C476 H540 0.930 . S
C477 C476 1.322 . S
C477 C478 1.459 . S
C477 H541 0.929 . S
C478 C477 1.459 . S
C478 C479 1.445 . S
C478 C487 1.395 1_655 S
C479 C457 1.432 . S
C479 C478 1.445 . S
C479 C480 1.370 1_655 S
C480 C479 1.370 1_455 S
C480 C481 1.438 . S
C480 H542 0.930 . S
C481 C467 1.497 . S
C481 C480 1.438 . S
C481 C482 1.360 . S
C482 C481 1.360 . S
C482 C483 1.401 . S
C482 C487 1.446 . S
C483 C482 1.401 . S
C483 C484 1.347 . S
C483 H543 0.929 . S
C484 C483 1.347 . S
C484 C485 1.455 . S
C484 H544 0.930 . S
C485 C472 1.412 . S
C485 C484 1.455 . S
C485 C486 1.331 . S
C486 C475 1.451 1_455 S
C486 C485 1.331 . S
C486 C487 1.497 . S
C487 C478 1.395 1_455 S
C487 C482 1.446 . S
C487 C486 1.497 . S
C488 C489 1.582 . S
C488 H545 0.962 . S
C488 H546 0.959 . S
C488 H547 0.958 . S
C489 C488 1.582 . S
C489 O492 1.458 . S
C489 H518 0.980 . S
O490 C435 1.426 . S
O490 C436 1.334 . S
O491 C463 1.412 . S
O491 C464 1.393 . S
O492 C454 1.435 . S
O492 C489 1.458 . S
O493 C445 1.468 . S
O493 C446 1.408 . S
H494 C435 0.980 . S
H495 C434 0.959 . S
H496 C434 0.959 . S
H497 C434 0.960 . S
H498 C437 0.929 . S
H499 C441 0.929 . S
H500 C442 0.959 . S
H501 C442 0.961 . S
H502 C442 0.961 . S
H503 C443 0.960 . S
H504 C443 0.960 . S
H505 C443 0.961 . S
H506 C445 0.980 . S
H507 C444 0.961 . S
H508 C444 0.960 . S
H509 C444 0.959 . S
H510 C447 0.930 . S
H511 C451 0.931 . S
H512 C452 0.959 . S
H513 C452 0.961 . S
H514 C452 0.959 . S
H515 C453 0.960 . S
H516 C453 0.960 . S
H517 C453 0.960 . S
H518 C489 0.980 . S
H519 C455 0.930 . S
H520 C459 0.930 . S
H521 C460 0.961 . S
H522 C460 0.960 . S
H523 C460 0.958 . S
H524 C461 0.961 . S
H525 C461 0.960 . S
H526 C461 0.960 . S
H527 C463 0.980 . S
H528 C462 0.961 . S
H529 C462 0.961 . S
H530 C462 0.959 . S
H531 C465 0.932 . S
H532 C469 0.929 . S
H533 C470 0.961 . S
H534 C470 0.959 . S
H535 C470 0.959 . S
H536 C471 0.960 . S
H537 C471 0.962 . S
H538 C471 0.961 . S
H539 C473 0.929 . S
H540 C476 0.930 . S
H541 C477 0.929 . S
H542 C480 0.930 . S
H543 C483 0.929 . S
H544 C484 0.930 . S
H545 C488 0.962 . S
H546 C488 0.959 . S
H547 C488 0.958 . S
C548 C549 1.560 . S
C548 H609 0.959 . S
C548 H610 0.959 . S
C548 H611 0.960 . S
C549 C548 1.560 . S
C549 O604 1.426 . S
C549 H608 0.980 . S
C550 C551 1.407 . S
C550 C555 1.418 . S
C550 O604 1.334 . S
C551 C550 1.407 . S
C551 C552 1.360 . S
C551 H612 0.929 . S
C552 C551 1.360 . S
C552 C553 1.401 . S
C552 C556 1.527 . S
C553 C552 1.401 . S
C553 C554 1.405 . S
C553 C586 1.587 . S
C554 C553 1.405 . S
C554 C555 1.332 . S
C554 C557 1.496 . S
C555 C550 1.418 . S
C555 C554 1.332 . S
C555 H613 0.929 . S
C556 C552 1.527 . S
C556 H614 0.959 . S
C556 H615 0.961 . S
C556 H616 0.961 . S
C557 C554 1.496 . S
C557 H617 0.960 . S
C557 H618 0.960 . S
C557 H619 0.961 . S
C558 C559 1.517 . S
C558 H621 0.961 . S
C558 H622 0.960 . S
C558 H623 0.959 . S
C559 C558 1.517 . S
C559 O607 1.468 . S
C559 H620 0.980 . S
C560 C561 1.349 . S
C560 C565 1.367 . S
C560 O607 1.408 . S
C561 C560 1.349 . S
C561 C562 1.407 . S
C561 H624 0.930 . S
C562 C561 1.407 . S
C562 C563 1.449 . S
C562 C566 1.535 . S
C563 C562 1.449 . S
C563 C564 1.384 . S
C563 C588 1.553 . S
C564 C563 1.384 . S
C564 C565 1.364 . S
C564 C567 1.450 . S
C565 C560 1.367 . S
C565 C564 1.364 . S
C565 H625 0.931 . S
C566 C562 1.535 . S
C566 H626 0.959 . S
C566 H627 0.961 . S
C566 H628 0.959 . S
C567 C564 1.450 . S
C567 H629 0.960 . S
C567 H630 0.960 . S
C567 H631 0.960 . S
C568 C569 1.309 . S
C568 C573 1.304 . S
C568 O606 1.435 . S
C569 C568 1.309 . S
C569 C570 1.476 . S
C569 H633 0.930 . S
C570 C569 1.476 . S
C570 C571 1.400 . S
C570 C574 1.567 . S
C571 C570 1.400 . S
C571 C572 1.373 . S
C571 C593 1.432 . S
C572 C571 1.373 . S
C572 C573 1.339 . S
C572 C575 1.530 . S
C573 C568 1.304 . S
C573 C572 1.339 . S
C573 H634 0.930 . S
C574 C570 1.567 . S
C574 H635 0.961 . S
C574 H636 0.960 . S
C574 H637 0.958 . S
C575 C572 1.530 . S
C575 H638 0.961 . S
C575 H639 0.960 . S
C575 H640 0.960 . S
C576 C577 1.530 . S
C576 H642 0.961 . S
C576 H643 0.961 . S
C576 H644 0.959 . S
C577 C576 1.530 . S
C577 O605 1.412 . S
C577 H641 0.980 . S
C578 C579 1.288 . S
C578 C583 1.377 . S
C578 O605 1.393 . S
C579 C578 1.288 . S
C579 C580 1.369 . S
C579 H645 0.932 . S
C580 C579 1.369 . S
C580 C581 1.398 . S
C580 C584 1.527 . S
C581 C580 1.398 . S
C581 C582 1.380 . S
C581 C595 1.497 . S
C582 C581 1.380 . S
C582 C583 1.383 . S
C582 C585 1.603 . S
C583 C578 1.377 . S
C583 C582 1.383 . S
C583 H646 0.929 . S
C584 C580 1.527 . S
C584 H647 0.961 . S
C584 H648 0.959 . S
C584 H649 0.959 . S
C585 C582 1.603 . S
C585 H650 0.960 . S
C585 H651 0.962 . S
C585 H652 0.961 . S
C586 C553 1.587 . S
C586 C587 1.360 . S
C586 C599 1.412 . S
C587 C586 1.360 . S
C587 C588 1.365 1_545 S
C587 H653 0.929 . S
C588 C563 1.553 . S
C588 C587 1.365 1_565 S
C588 C589 1.404 . S
C589 C588 1.404 . S
C589 C590 1.395 . S
C589 C600 1.451 1_565 S
C590 C589 1.395 . S
C590 C591 1.322 . S
C590 H654 0.930 . S
C591 C590 1.322 . S
C591 C592 1.459 . S
C591 H655 0.929 . S
C592 C591 1.459 . S
C592 C593 1.445 . S
C592 C601 1.395 1_565 S
C593 C571 1.432 . S
C593 C592 1.445 . S
C593 C594 1.370 1_565 S
C594 C593 1.370 1_545 S
C594 C595 1.438 . S
C594 H656 0.930 . S
C595 C581 1.497 . S
C595 C594 1.438 . S
C595 C596 1.360 . S
C596 C595 1.360 . S
C596 C597 1.401 . S
C596 C601 1.446 . S
C597 C596 1.401 . S
C597 C598 1.347 . S
C597 H657 0.929 . S
C598 C597 1.347 . S
C598 C599 1.455 . S
C598 H658 0.930 . S
C599 C586 1.412 . S
C599 C598 1.455 . S
C599 C600 1.331 . S
C600 C589 1.451 1_545 S
C600 C599 1.331 . S
C600 C601 1.497 . S
C601 C592 1.395 1_545 S
C601 C596 1.446 . S
C601 C600 1.497 . S
C602 C603 1.582 . S
C602 H659 0.962 . S
C602 H660 0.959 . S
C602 H661 0.958 . S
C603 C602 1.582 . S
C603 O606 1.458 . S
C603 H632 0.980 . S
O604 C549 1.426 . S
O604 C550 1.334 . S
O605 C577 1.412 . S
O605 C578 1.393 . S
O606 C568 1.435 . S
O606 C603 1.458 . S
O607 C559 1.468 . S
O607 C560 1.408 . S
H608 C549 0.980 . S
H609 C548 0.959 . S
H610 C548 0.959 . S
H611 C548 0.960 . S
H612 C551 0.929 . S
H613 C555 0.929 . S
H614 C556 0.959 . S
H615 C556 0.961 . S
H616 C556 0.961 . S
H617 C557 0.960 . S
H618 C557 0.960 . S
H619 C557 0.961 . S
H620 C559 0.980 . S
H621 C558 0.961 . S
H622 C558 0.960 . S
H623 C558 0.959 . S
H624 C561 0.930 . S
H625 C565 0.931 . S
H626 C566 0.959 . S
H627 C566 0.961 . S
H628 C566 0.959 . S
H629 C567 0.960 . S
H630 C567 0.960 . S
H631 C567 0.960 . S
H632 C603 0.980 . S
H633 C569 0.930 . S
H634 C573 0.930 . S
H635 C574 0.961 . S
H636 C574 0.960 . S
H637 C574 0.958 . S
H638 C575 0.961 . S
H639 C575 0.960 . S
H640 C575 0.960 . S
H641 C577 0.980 . S
H642 C576 0.961 . S
H643 C576 0.961 . S
H644 C576 0.959 . S
H645 C579 0.932 . S
H646 C583 0.929 . S
H647 C584 0.961 . S
H648 C584 0.959 . S
H649 C584 0.959 . S
H650 C585 0.960 . S
H651 C585 0.962 . S
H652 C585 0.961 . S
H653 C587 0.929 . S
H654 C590 0.930 . S
H655 C591 0.929 . S
H656 C594 0.930 . S
H657 C597 0.929 . S
H658 C598 0.930 . S
H659 C602 0.962 . S
H660 C602 0.959 . S
H661 C602 0.958 . S
C662 C663 1.560 . S
C662 H723 0.959 . S
C662 H724 0.959 . S
C662 H725 0.960 . S
C663 C662 1.560 . S
C663 O718 1.426 . S
C663 H722 0.980 . S
C664 C665 1.407 . S
C664 C669 1.418 . S
C664 O718 1.334 . S
C665 C664 1.407 . S
C665 C666 1.360 . S
C665 H726 0.929 . S
C666 C665 1.360 . S
C666 C667 1.401 . S
C666 C670 1.527 . S
C667 C666 1.401 . S
C667 C668 1.405 . S
C667 C700 1.587 . S
C668 C667 1.405 . S
C668 C669 1.332 . S
C668 C671 1.496 . S
C669 C664 1.418 . S
C669 C668 1.332 . S
C669 H727 0.929 . S
C670 C666 1.527 . S
C670 H728 0.959 . S
C670 H729 0.961 . S
C670 H730 0.961 . S
C671 C668 1.496 . S
C671 H731 0.960 . S
C671 H732 0.960 . S
C671 H733 0.961 . S
C672 C673 1.517 . S
C672 H735 0.961 . S
C672 H736 0.960 . S
C672 H737 0.959 . S
C673 C672 1.517 . S
C673 O721 1.468 . S
C673 H734 0.980 . S
C674 C675 1.349 . S
C674 C679 1.367 . S
C674 O721 1.408 . S
C675 C674 1.349 . S
C675 C676 1.407 . S
C675 H738 0.930 . S
C676 C675 1.407 . S
C676 C677 1.449 . S
C676 C680 1.535 . S
C677 C676 1.449 . S
C677 C678 1.384 . S
C677 C702 1.553 . S
C678 C677 1.384 . S
C678 C679 1.364 . S
C678 C681 1.450 . S
C679 C674 1.367 . S
C679 C678 1.364 . S
C679 H739 0.931 . S
C680 C676 1.535 . S
C680 H740 0.959 . S
C680 H741 0.961 . S
C680 H742 0.959 . S
C681 C678 1.450 . S
C681 H743 0.960 . S
C681 H744 0.960 . S
C681 H745 0.960 . S
C682 C683 1.309 . S
C682 C687 1.304 . S
C682 O720 1.435 . S
C683 C682 1.309 . S
C683 C684 1.476 . S
C683 H747 0.930 . S
C684 C683 1.476 . S
C684 C685 1.400 . S
C684 C688 1.567 . S
C685 C684 1.400 . S
C685 C686 1.373 . S
C685 C707 1.432 . S
C686 C685 1.373 . S
C686 C687 1.339 . S
C686 C689 1.530 . S
C687 C682 1.304 . S
C687 C686 1.339 . S
C687 H748 0.930 . S
C688 C684 1.567 . S
C688 H749 0.961 . S
C688 H750 0.960 . S
C688 H751 0.958 . S
C689 C686 1.530 . S
C689 H752 0.961 . S
C689 H753 0.960 . S
C689 H754 0.960 . S
C690 C691 1.530 . S
C690 H756 0.961 . S
C690 H757 0.961 . S
C690 H758 0.959 . S
C691 C690 1.530 . S
C691 O719 1.412 . S
C691 H755 0.980 . S
C692 C693 1.288 . S
C692 C697 1.377 . S
C692 O719 1.393 . S
C693 C692 1.288 . S
C693 C694 1.369 . S
C693 H759 0.932 . S
C694 C693 1.369 . S
C694 C695 1.398 . S
C694 C698 1.527 . S
C695 C694 1.398 . S
C695 C696 1.380 . S
C695 C709 1.497 . S
C696 C695 1.380 . S
C696 C697 1.383 . S
C696 C699 1.603 . S
C697 C692 1.377 . S
C697 C696 1.383 . S
C697 H760 0.929 . S
C698 C694 1.527 . S
C698 H761 0.961 . S
C698 H762 0.959 . S
C698 H763 0.959 . S
C699 C696 1.603 . S
C699 H764 0.960 . S
C699 H765 0.962 . S
C699 H766 0.961 . S
C700 C667 1.587 . S
C700 C701 1.360 . S
C700 C713 1.412 . S
C701 C700 1.360 . S
C701 C702 1.365 . S
C701 H767 0.929 . S
C702 C677 1.553 . S
C702 C701 1.365 . S
C702 C703 1.404 . S
C703 C702 1.404 . S
C703 C704 1.395 . S
C703 C714 1.451 . S
C704 C703 1.395 . S
C704 C705 1.322 . S
C704 H768 0.930 . S
C705 C704 1.322 . S
C705 C706 1.458 1_554 S
C705 H769 0.929 1_554 S
C706 C705 1.458 1_556 S
C706 C707 1.445 . S
C706 C715 1.395 . S
C707 C685 1.432 . S
C707 C706 1.445 . S
C707 C708 1.370 . S
C708 C707 1.370 . S
C708 C709 1.438 . S
C708 H770 0.930 . S
C709 C695 1.497 . S
C709 C708 1.438 . S
C709 C710 1.360 . S
C710 C709 1.360 . S
C710 C711 1.401 . S
C710 C715 1.446 . S
C711 C710 1.401 . S
C711 C712 1.347 1_556 S
C711 H771 0.929 . S
C712 C711 1.347 1_554 S
C712 C713 1.455 . S
C712 H772 0.930 . S
C713 C700 1.412 . S
C713 C712 1.455 . S
C713 C714 1.331 . S
C714 C703 1.451 . S
C714 C713 1.331 . S
C714 C715 1.497 1_554 S
C715 C706 1.395 . S
C715 C710 1.446 . S
C715 C714 1.497 1_556 S
C716 C717 1.582 . S
C716 H773 0.962 . S
C716 H774 0.959 . S
C716 H775 0.958 . S
C717 C716 1.582 . S
C717 O720 1.458 . S
C717 H746 0.980 . S
O718 C663 1.426 . S
O718 C664 1.334 . S
O719 C691 1.412 . S
O719 C692 1.393 . S
O720 C682 1.435 . S
O720 C717 1.458 . S
O721 C673 1.468 . S
O721 C674 1.408 . S
H722 C663 0.980 . S
H723 C662 0.959 . S
H724 C662 0.959 . S
H725 C662 0.960 . S
H726 C665 0.929 . S
H727 C669 0.929 . S
H728 C670 0.959 . S
H729 C670 0.961 . S
H730 C670 0.961 . S
H731 C671 0.960 . S
H732 C671 0.960 . S
H733 C671 0.961 . S
H734 C673 0.980 . S
H735 C672 0.961 . S
H736 C672 0.960 . S
H737 C672 0.959 . S
H738 C675 0.930 . S
H739 C679 0.931 . S
H740 C680 0.959 . S
H741 C680 0.961 . S
H742 C680 0.959 . S
H743 C681 0.960 . S
H744 C681 0.960 . S
H745 C681 0.960 . S
H746 C717 0.980 . S
H747 C683 0.930 . S
H748 C687 0.930 . S
H749 C688 0.961 . S
H750 C688 0.960 . S
H751 C688 0.958 . S
H752 C689 0.961 . S
H753 C689 0.960 . S
H754 C689 0.960 . S
H755 C691 0.980 . S
H756 C690 0.961 . S
H757 C690 0.961 . S
H758 C690 0.959 . S
H759 C693 0.932 . S
H760 C697 0.929 . S
H761 C698 0.961 . S
H762 C698 0.959 . S
H763 C698 0.959 . S
H764 C699 0.960 . S
H765 C699 0.962 . S
H766 C699 0.961 . S
H767 C701 0.929 . S
H768 C704 0.930 . S
H769 C705 0.929 1_556 S
H770 C708 0.930 . S
H771 C711 0.929 . S
H772 C712 0.930 . S
H773 C716 0.962 . S
H774 C716 0.959 . S
H775 C716 0.958 . S
C776 C777 1.560 . S
C776 H837 0.959 . S
C776 H838 0.959 . S
C776 H839 0.960 . S
C777 C776 1.560 . S
C777 O832 1.426 . S
C777 H836 0.980 . S
C778 C779 1.407 . S
C778 C783 1.418 . S
C778 O832 1.334 . S
C779 C778 1.407 . S
C779 C780 1.360 . S
C779 H840 0.929 . S
C780 C779 1.360 . S
C780 C781 1.401 . S
C780 C784 1.527 . S
C781 C780 1.401 . S
C781 C782 1.405 . S
C781 C814 1.587 . S
C782 C781 1.405 . S
C782 C783 1.332 . S
C782 C785 1.496 . S
C783 C778 1.418 . S
C783 C782 1.332 . S
C783 H841 0.929 . S
C784 C780 1.527 . S
C784 H842 0.959 . S
C784 H843 0.961 . S
C784 H844 0.961 . S
C785 C782 1.496 . S
C785 H845 0.960 . S
C785 H846 0.960 . S
C785 H847 0.961 . S
C786 C787 1.517 . S
C786 H849 0.961 . S
C786 H850 0.960 . S
C786 H851 0.959 . S
C787 C786 1.517 . S
C787 O835 1.468 . S
C787 H848 0.980 . S
C788 C789 1.349 . S
C788 C793 1.367 . S
C788 O835 1.408 . S
C789 C788 1.349 . S
C789 C790 1.407 . S
C789 H852 0.930 . S
C790 C789 1.407 . S
C790 C791 1.449 . S
C790 C794 1.535 . S
C791 C790 1.449 . S
C791 C792 1.384 . S
C791 C816 1.553 . S
C792 C791 1.384 . S
C792 C793 1.364 . S
C792 C795 1.450 . S
C793 C788 1.367 . S
C793 C792 1.364 . S
C793 H853 0.931 . S
C794 C790 1.535 . S
C794 H854 0.959 . S
C794 H855 0.961 . S
C794 H856 0.959 . S
C795 C792 1.450 . S
C795 H857 0.960 . S
C795 H858 0.960 . S
C795 H859 0.960 . S
C796 C797 1.309 . S
C796 C801 1.304 . S
C796 O834 1.435 . S
C797 C796 1.309 . S
C797 C798 1.476 . S
C797 H861 0.930 . S
C798 C797 1.476 . S
C798 C799 1.400 . S
C798 C802 1.567 . S
C799 C798 1.400 . S
C799 C800 1.373 . S
C799 C821 1.432 . S
C800 C799 1.373 . S
C800 C801 1.339 . S
C800 C803 1.530 . S
C801 C796 1.304 . S
C801 C800 1.339 . S
C801 H862 0.930 . S
C802 C798 1.567 . S
C802 H863 0.961 . S
C802 H864 0.960 . S
C802 H865 0.958 . S
C803 C800 1.530 . S
C803 H866 0.961 . S
C803 H867 0.960 . S
C803 H868 0.960 . S
C804 C805 1.530 . S
C804 H870 0.961 . S
C804 H871 0.961 . S
C804 H872 0.959 . S
C805 C804 1.530 . S
C805 O833 1.412 . S
C805 H869 0.980 . S
C806 C807 1.288 . S
C806 C811 1.377 . S
C806 O833 1.393 . S
C807 C806 1.288 . S
C807 C808 1.369 . S
C807 H873 0.932 . S
C808 C807 1.369 . S
C808 C809 1.398 . S
C808 C812 1.527 . S
C809 C808 1.398 . S
C809 C810 1.380 . S
C809 C823 1.497 . S
C810 C809 1.380 . S
C810 C811 1.383 . S
C810 C813 1.603 . S
C811 C806 1.377 . S
C811 C810 1.383 . S
C811 H874 0.929 . S
C812 C808 1.527 . S
C812 H875 0.961 . S
C812 H876 0.959 . S
C812 H877 0.959 . S
C813 C810 1.603 . S
C813 H878 0.960 . S
C813 H879 0.962 . S
C813 H880 0.961 . S
C814 C781 1.587 . S
C814 C815 1.360 . S
C814 C827 1.412 . S
C815 C814 1.360 . S
C815 C816 1.365 1_545 S
C815 H881 0.929 . S
C816 C791 1.553 . S
C816 C815 1.365 1_565 S
C816 C817 1.404 . S
C817 C816 1.404 . S
C817 C818 1.395 . S
C817 C828 1.451 1_565 S
C818 C817 1.395 . S
C818 C819 1.322 . S
C818 H882 0.930 . S
C819 C818 1.322 . S
C819 C820 1.459 . S
C819 H883 0.929 . S
C820 C819 1.459 . S
C820 C821 1.445 . S
C820 C829 1.395 1_565 S
C821 C799 1.432 . S
C821 C820 1.445 . S
C821 C822 1.370 1_565 S
C822 C821 1.370 1_545 S
C822 C823 1.438 . S
C822 H884 0.930 . S
C823 C809 1.497 . S
C823 C822 1.438 . S
C823 C824 1.360 . S
C824 C823 1.360 . S
C824 C825 1.401 . S
C824 C829 1.446 . S
C825 C824 1.401 . S
C825 C826 1.347 . S
C825 H885 0.929 . S
C826 C825 1.347 . S
C826 C827 1.455 . S
C826 H886 0.930 . S
C827 C814 1.412 . S
C827 C826 1.455 . S
C827 C828 1.331 . S
C828 C817 1.451 1_545 S
C828 C827 1.331 . S
C828 C829 1.497 . S
C829 C820 1.395 1_545 S
C829 C824 1.446 . S
C829 C828 1.497 . S
C830 C831 1.582 . S
C830 H887 0.962 . S
C830 H888 0.959 . S
C830 H889 0.958 . S
C831 C830 1.582 . S
C831 O834 1.458 . S
C831 H860 0.980 . S
O832 C777 1.426 . S
O832 C778 1.334 . S
O833 C805 1.412 . S
O833 C806 1.393 . S
O834 C796 1.435 . S
O834 C831 1.458 . S
O835 C787 1.468 . S
O835 C788 1.408 . S
H836 C777 0.980 . S
H837 C776 0.959 . S
H838 C776 0.959 . S
H839 C776 0.960 . S
H840 C779 0.929 . S
H841 C783 0.929 . S
H842 C784 0.959 . S
H843 C784 0.961 . S
H844 C784 0.961 . S
H845 C785 0.960 . S
H846 C785 0.960 . S
H847 C785 0.961 . S
H848 C787 0.980 . S
H849 C786 0.961 . S
H850 C786 0.960 . S
H851 C786 0.959 . S
H852 C789 0.930 . S
H853 C793 0.931 . S
H854 C794 0.959 . S
H855 C794 0.961 . S
H856 C794 0.959 . S
H857 C795 0.960 . S
H858 C795 0.960 . S
H859 C795 0.960 . S
H860 C831 0.980 . S
H861 C797 0.930 . S
H862 C801 0.930 . S
H863 C802 0.961 . S
H864 C802 0.960 . S
H865 C802 0.958 . S
H866 C803 0.961 . S
H867 C803 0.960 . S
H868 C803 0.960 . S
H869 C805 0.980 . S
H870 C804 0.961 . S
H871 C804 0.961 . S
H872 C804 0.959 . S
H873 C807 0.932 . S
H874 C811 0.929 . S
H875 C812 0.961 . S
H876 C812 0.959 . S
H877 C812 0.959 . S
H878 C813 0.960 . S
H879 C813 0.962 . S
H880 C813 0.961 . S
H881 C815 0.929 . S
H882 C818 0.930 . S
H883 C819 0.929 . S
H884 C822 0.930 . S
H885 C825 0.929 . S
H886 C826 0.930 . S
H887 C830 0.962 . S
H888 C830 0.959 . S
H889 C830 0.958 . S
C890 C891 1.560 . S
C890 H951 0.959 . S
C890 H952 0.959 . S
C890 H953 0.960 . S
C891 C890 1.560 . S
C891 O946 1.426 . S
C891 H950 0.980 . S
C892 C893 1.407 . S
C892 C897 1.418 . S
C892 O946 1.334 . S
C893 C892 1.407 . S
C893 C894 1.360 . S
C893 H954 0.929 . S
C894 C893 1.360 . S
C894 C895 1.401 . S
C894 C898 1.527 . S
C895 C894 1.401 . S
C895 C896 1.405 . S
C895 C928 1.587 . S
C896 C895 1.405 . S
C896 C897 1.332 . S
C896 C899 1.496 . S
C897 C892 1.418 . S
C897 C896 1.332 . S
C897 H955 0.929 . S
C898 C894 1.527 . S
C898 H956 0.959 . S
C898 H957 0.961 . S
C898 H958 0.961 . S
C899 C896 1.496 . S
C899 H959 0.960 . S
C899 H960 0.960 . S
C899 H961 0.961 . S
C900 C901 1.517 . S
C900 H963 0.961 . S
C900 H964 0.960 . S
C900 H965 0.959 . S
C901 C900 1.517 . S
C901 O949 1.468 . S
C901 H962 0.980 . S
C902 C903 1.349 . S
C902 C907 1.367 . S
C902 O949 1.408 . S
C903 C902 1.349 . S
C903 C904 1.407 . S
C903 H966 0.930 . S
C904 C903 1.407 . S
C904 C905 1.449 . S
C904 C908 1.535 . S
C905 C904 1.449 . S
C905 C906 1.384 . S
C905 C930 1.553 . S
C906 C905 1.384 . S
C906 C907 1.364 . S
C906 C909 1.450 . S
C907 C902 1.367 . S
C907 C906 1.364 . S
C907 H967 0.931 . S
C908 C904 1.535 . S
C908 H968 0.959 . S
C908 H969 0.961 . S
C908 H970 0.959 . S
C909 C906 1.450 . S
C909 H971 0.960 . S
C909 H972 0.960 . S
C909 H973 0.960 . S
C910 C911 1.309 . S
C910 C915 1.304 . S
C910 O948 1.435 . S
C911 C910 1.309 . S
C911 C912 1.476 . S
C911 H975 0.930 . S
C912 C911 1.476 . S
C912 C913 1.400 . S
C912 C916 1.567 . S
C913 C912 1.400 . S
C913 C914 1.373 . S
C913 C935 1.432 . S
C914 C913 1.373 . S
C914 C915 1.339 . S
C914 C917 1.530 . S
C915 C910 1.304 . S
C915 C914 1.339 . S
C915 H976 0.930 . S
C916 C912 1.567 . S
C916 H977 0.961 . S
C916 H978 0.960 . S
C916 H979 0.958 . S
C917 C914 1.530 . S
C917 H980 0.961 . S
C917 H981 0.960 . S
C917 H982 0.960 . S
C918 C919 1.530 . S
C918 H984 0.961 . S
C918 H985 0.961 . S
C918 H986 0.959 . S
C919 C918 1.530 . S
C919 O947 1.412 . S
C919 H983 0.980 . S
C920 C921 1.288 . S
C920 C925 1.377 . S
C920 O947 1.393 . S
C921 C920 1.288 . S
C921 C922 1.369 . S
C921 H987 0.932 . S
C922 C921 1.369 . S
C922 C923 1.398 . S
C922 C926 1.527 . S
C923 C922 1.398 . S
C923 C924 1.380 . S
C923 C937 1.497 . S
C924 C923 1.380 . S
C924 C925 1.383 . S
C924 C927 1.603 . S
C925 C920 1.377 . S
C925 C924 1.383 . S
C925 H988 0.929 . S
C926 C922 1.527 . S
C926 H989 0.961 . S
C926 H990 0.959 . S
C926 H991 0.959 . S
C927 C924 1.603 . S
C927 H992 0.960 . S
C927 H993 0.962 . S
C927 H994 0.961 . S
C928 C895 1.587 . S
C928 C929 1.360 . S
C928 C941 1.412 . S
C929 C928 1.360 . S
C929 C930 1.365 . S
C929 H995 0.929 . S
C930 C905 1.553 . S
C930 C929 1.365 . S
C930 C931 1.404 . S
C931 C930 1.404 . S
C931 C932 1.395 . S
C931 C942 1.451 . S
C932 C931 1.395 . S
C932 C933 1.322 1_554 S
C932 H996 0.930 . S
C933 C932 1.322 1_556 S
C933 C934 1.459 . S
C933 H997 0.929 . S
C934 C933 1.459 . S
C934 C935 1.445 . S
C934 C943 1.395 . S
C935 C913 1.432 . S
C935 C934 1.445 . S
C935 C936 1.370 . S
C936 C935 1.370 . S
C936 C937 1.438 . S
C936 H998 0.930 . S
C937 C923 1.497 . S
C937 C936 1.438 . S
C937 C938 1.360 . S
C938 C937 1.360 . S
C938 C939 1.400 1_556 S
C938 C943 1.446 . S
C939 C938 1.400 1_554 S
C939 C940 1.348 . S
C939 H999 0.929 1_554 S
C940 C939 1.348 . S
C940 C941 1.455 . S
C940 H1000 0.930 . S
C941 C928 1.412 . S
C941 C940 1.455 . S
C941 C942 1.331 . S
C942 C931 1.451 . S
C942 C941 1.331 . S
C942 C943 1.497 1_554 S
C943 C934 1.395 . S
C943 C938 1.446 . S
C943 C942 1.497 1_556 S
C944 C945 1.582 . S
C944 H1001 0.962 . S
C944 H1002 0.959 . S
C944 H1003 0.958 . S
C945 C944 1.582 . S
C945 O948 1.458 . S
C945 H974 0.980 . S
O946 C891 1.426 . S
O946 C892 1.334 . S
O947 C919 1.412 . S
O947 C920 1.393 . S
O948 C910 1.435 . S
O948 C945 1.458 . S
O949 C901 1.468 . S
O949 C902 1.408 . S
H950 C891 0.980 . S
H951 C890 0.959 . S
H952 C890 0.959 . S
H953 C890 0.960 . S
H954 C893 0.929 . S
H955 C897 0.929 . S
H956 C898 0.959 . S
H957 C898 0.961 . S
H958 C898 0.961 . S
H959 C899 0.960 . S
H960 C899 0.960 . S
H961 C899 0.961 . S
H962 C901 0.980 . S
H963 C900 0.961 . S
H964 C900 0.960 . S
H965 C900 0.959 . S
H966 C903 0.930 . S
H967 C907 0.931 . S
H968 C908 0.959 . S
H969 C908 0.961 . S
H970 C908 0.959 . S
H971 C909 0.960 . S
H972 C909 0.960 . S
H973 C909 0.960 . S
H974 C945 0.980 . S
H975 C911 0.930 . S
H976 C915 0.930 . S
H977 C916 0.961 . S
H978 C916 0.960 . S
H979 C916 0.958 . S
H980 C917 0.961 . S
H981 C917 0.960 . S
H982 C917 0.960 . S
H983 C919 0.980 . S
H984 C918 0.961 . S
H985 C918 0.961 . S
H986 C918 0.959 . S
H987 C921 0.932 . S
H988 C925 0.929 . S
H989 C926 0.961 . S
H990 C926 0.959 . S
H991 C926 0.959 . S
H992 C927 0.960 . S
H993 C927 0.962 . S
H994 C927 0.961 . S
H995 C929 0.929 . S
H996 C932 0.930 . S
H997 C933 0.929 . S
H998 C936 0.930 . S
H999 C939 0.929 1_556 S
H1000 C940 0.930 . S
H1001 C944 0.962 . S
H1002 C944 0.959 . S
H1003 C944 0.958 . S
C1004 C1005 1.391 . S
C1004 C1006 1.394 . S
C1004 H1020 0.931 . S
C1005 C1004 1.391 . S
C1005 C1009 1.376 . S
C1006 C1004 1.394 . S
C1006 C1007 1.369 . S
C1006 C1010 1.531 . S
C1007 C1006 1.369 . S
C1007 C1008 1.410 . S
C1007 C1015 1.503 . S
C1008 C1007 1.410 . S
C1008 C1009 1.392 . S
C1008 C1011 1.511 . S
C1009 C1005 1.376 . S
C1009 C1008 1.392 . S
C1009 H1021 0.929 . S
C1010 C1006 1.531 . S
C1010 H1022 0.960 . S
C1010 H1023 0.962 . S
C1010 H1024 0.960 . S
C1011 C1008 1.511 . S
C1011 H1025 0.961 . S
C1011 H1026 0.961 . S
C1011 H1027 0.961 . S
C1012 C1013 1.370 . S
C1012 C1014 1.363 . S
C1012 H1028 0.931 . S
C1013 C1012 1.370 . S
C1013 C1017 1.408 . S
C1014 C1012 1.363 . S
C1014 C1015 1.370 . S
C1014 C1018 1.524 . S
C1015 C1007 1.503 . S
C1015 C1014 1.370 . S
C1015 C1016 1.403 . S
C1016 C1015 1.403 . S
C1016 C1017 1.404 . S
C1016 C1019 1.539 . S
C1017 C1013 1.408 . S
C1017 C1016 1.404 . S
C1017 H1029 0.930 . S
C1018 C1014 1.524 . S
C1018 H1030 0.956 . S
C1018 H1031 0.961 . S
C1018 H1032 0.961 . S
C1019 C1016 1.539 . S
C1019 H1033 0.958 . S
C1019 H1034 0.961 . S
C1019 H1035 0.960 . S
H1020 C1004 0.931 . S
H1021 C1009 0.929 . S
H1022 C1010 0.960 . S
H1023 C1010 0.962 . S
H1024 C1010 0.960 . S
H1025 C1011 0.961 . S
H1026 C1011 0.961 . S
H1027 C1011 0.961 . S
H1028 C1012 0.931 . S
H1029 C1017 0.930 . S
H1030 C1018 0.956 . S
H1031 C1018 0.961 . S
H1032 C1018 0.961 . S
H1033 C1019 0.958 . S
H1034 C1019 0.961 . S
H1035 C1019 0.960 . S
C1036 C1037 1.391 . S
C1036 C1038 1.394 . S
C1036 H1052 0.931 . S
C1037 C1036 1.391 . S
C1037 C1041 1.376 . S
C1038 C1036 1.394 . S
C1038 C1039 1.369 . S
C1038 C1042 1.531 . S
C1039 C1038 1.369 . S
C1039 C1040 1.410 . S
C1039 C1047 1.503 . S
C1040 C1039 1.410 . S
C1040 C1041 1.392 . S
C1040 C1043 1.511 . S
C1041 C1037 1.376 . S
C1041 C1040 1.392 . S
C1041 H1053 0.929 . S
C1042 C1038 1.531 . S
C1042 H1054 0.960 . S
C1042 H1055 0.962 . S
C1042 H1056 0.960 . S
C1043 C1040 1.511 . S
C1043 H1057 0.961 . S
C1043 H1058 0.961 . S
C1043 H1059 0.961 . S
C1044 C1045 1.370 . S
C1044 C1046 1.363 . S
C1044 H1060 0.931 . S
C1045 C1044 1.370 . S
C1045 C1049 1.408 . S
C1046 C1044 1.363 . S
C1046 C1047 1.370 . S
C1046 C1050 1.524 . S
C1047 C1039 1.503 . S
C1047 C1046 1.370 . S
C1047 C1048 1.403 . S
C1048 C1047 1.403 . S
C1048 C1049 1.404 . S
C1048 C1051 1.539 . S
C1049 C1045 1.408 . S
C1049 C1048 1.404 . S
C1049 H1061 0.930 . S
C1050 C1046 1.524 . S
C1050 H1062 0.956 . S
C1050 H1063 0.961 . S
C1050 H1064 0.961 . S
C1051 C1048 1.539 . S
C1051 H1065 0.958 . S
C1051 H1066 0.961 . S
C1051 H1067 0.960 . S
H1052 C1036 0.931 . S
H1053 C1041 0.929 . S
H1054 C1042 0.960 . S
H1055 C1042 0.962 . S
H1056 C1042 0.960 . S
H1057 C1043 0.961 . S
H1058 C1043 0.961 . S
H1059 C1043 0.961 . S
H1060 C1044 0.931 . S
H1061 C1049 0.930 . S
H1062 C1050 0.956 . S
H1063 C1050 0.961 . S
H1064 C1050 0.961 . S
H1065 C1051 0.958 . S
H1066 C1051 0.961 . S
H1067 C1051 0.960 . S
C1068 C1069 1.391 . S
C1068 C1070 1.394 . S
C1068 H1084 0.931 . S
C1069 C1068 1.391 . S
C1069 C1073 1.376 . S
C1070 C1068 1.394 . S
C1070 C1071 1.369 . S
C1070 C1074 1.531 . S
C1071 C1070 1.369 . S
C1071 C1072 1.410 . S
C1071 C1079 1.503 . S
C1072 C1071 1.410 . S
C1072 C1073 1.392 . S
C1072 C1075 1.511 . S
C1073 C1069 1.376 . S
C1073 C1072 1.392 . S
C1073 H1085 0.929 . S
C1074 C1070 1.531 . S
C1074 H1086 0.960 . S
C1074 H1087 0.962 . S
C1074 H1088 0.960 . S
C1075 C1072 1.511 . S
C1075 H1089 0.961 . S
C1075 H1090 0.961 . S
C1075 H1091 0.961 . S
C1076 C1077 1.370 . S
C1076 C1078 1.363 . S
C1076 H1092 0.931 . S
C1077 C1076 1.370 . S
C1077 C1081 1.408 . S
C1078 C1076 1.363 . S
C1078 C1079 1.370 . S
C1078 C1082 1.524 . S
C1079 C1071 1.503 . S
C1079 C1078 1.370 . S
C1079 C1080 1.403 . S
C1080 C1079 1.403 . S
C1080 C1081 1.404 . S
C1080 C1083 1.539 . S
C1081 C1077 1.408 . S
C1081 C1080 1.404 . S
C1081 H1093 0.930 . S
C1082 C1078 1.524 . S
C1082 H1094 0.956 . S
C1082 H1095 0.961 . S
C1082 H1096 0.961 . S
C1083 C1080 1.539 . S
C1083 H1097 0.958 . S
C1083 H1098 0.961 . S
C1083 H1099 0.960 . S
H1084 C1068 0.931 . S
H1085 C1073 0.929 . S
H1086 C1074 0.960 . S
H1087 C1074 0.962 . S
H1088 C1074 0.960 . S
H1089 C1075 0.961 . S
H1090 C1075 0.961 . S
H1091 C1075 0.961 . S
H1092 C1076 0.931 . S
H1093 C1081 0.930 . S
H1094 C1082 0.956 . S
H1095 C1082 0.961 . S
H1096 C1082 0.961 . S
H1097 C1083 0.958 . S
H1098 C1083 0.961 . S
H1099 C1083 0.960 . S
C1100 C1101 1.391 . S
C1100 C1102 1.394 . S
C1100 H1116 0.931 . S
C1101 C1100 1.391 . S
C1101 C1105 1.376 . S
C1102 C1100 1.394 . S
C1102 C1103 1.369 . S
C1102 C1106 1.531 . S
C1103 C1102 1.369 . S
C1103 C1104 1.410 . S
C1103 C1111 1.503 . S
C1104 C1103 1.410 . S
C1104 C1105 1.392 . S
C1104 C1107 1.511 . S
C1105 C1101 1.376 . S
C1105 C1104 1.392 . S
C1105 H1117 0.929 . S
C1106 C1102 1.531 . S
C1106 H1118 0.960 . S
C1106 H1119 0.962 . S
C1106 H1120 0.960 . S
C1107 C1104 1.511 . S
C1107 H1121 0.961 . S
C1107 H1122 0.961 . S
C1107 H1123 0.961 . S
C1108 C1109 1.370 . S
C1108 C1110 1.363 . S
C1108 H1124 0.931 . S
C1109 C1108 1.370 . S
C1109 C1113 1.408 . S
C1110 C1108 1.363 . S
C1110 C1111 1.370 . S
C1110 C1114 1.524 . S
C1111 C1103 1.503 . S
C1111 C1110 1.370 . S
C1111 C1112 1.403 . S
C1112 C1111 1.403 . S
C1112 C1113 1.404 . S
C1112 C1115 1.539 . S
C1113 C1109 1.408 . S
C1113 C1112 1.404 . S
C1113 H1125 0.930 . S
C1114 C1110 1.524 . S
C1114 H1126 0.956 . S
C1114 H1127 0.961 . S
C1114 H1128 0.961 . S
C1115 C1112 1.539 . S
C1115 H1129 0.958 . S
C1115 H1130 0.961 . S
C1115 H1131 0.960 . S
H1116 C1100 0.931 . S
H1117 C1105 0.929 . S
H1118 C1106 0.960 . S
H1119 C1106 0.962 . S
H1120 C1106 0.960 . S
H1121 C1107 0.961 . S
H1122 C1107 0.961 . S
H1123 C1107 0.961 . S
H1124 C1108 0.931 . S
H1125 C1113 0.930 . S
H1126 C1114 0.956 . S
H1127 C1114 0.961 . S
H1128 C1114 0.961 . S
H1129 C1115 0.958 . S
H1130 C1115 0.961 . S
H1131 C1115 0.960 . S
C1132 C1133 1.391 . S
C1132 C1134 1.394 . S
C1132 H1148 0.931 . S
C1133 C1132 1.391 . S
C1133 C1137 1.376 . S
C1134 C1132 1.394 . S
C1134 C1135 1.369 . S
C1134 C1138 1.531 . S
C1135 C1134 1.369 . S
C1135 C1136 1.410 . S
C1135 C1143 1.503 . S
C1136 C1135 1.410 . S
C1136 C1137 1.392 . S
C1136 C1139 1.511 . S
C1137 C1133 1.376 . S
C1137 C1136 1.392 . S
C1137 H1149 0.929 . S
C1138 C1134 1.531 . S
C1138 H1150 0.960 . S
C1138 H1151 0.962 . S
C1138 H1152 0.960 . S
C1139 C1136 1.511 . S
C1139 H1153 0.961 . S
C1139 H1154 0.961 . S
C1139 H1155 0.961 . S
C1140 C1141 1.370 . S
C1140 C1142 1.363 . S
C1140 H1156 0.931 . S
C1141 C1140 1.370 . S
C1141 C1145 1.408 . S
C1142 C1140 1.363 . S
C1142 C1143 1.370 . S
C1142 C1146 1.524 . S
C1143 C1135 1.503 . S
C1143 C1142 1.370 . S
C1143 C1144 1.403 . S
C1144 C1143 1.403 . S
C1144 C1145 1.404 . S
C1144 C1147 1.539 . S
C1145 C1141 1.408 . S
C1145 C1144 1.404 . S
C1145 H1157 0.930 . S
C1146 C1142 1.524 . S
C1146 H1158 0.956 . S
C1146 H1159 0.961 . S
C1146 H1160 0.961 . S
C1147 C1144 1.539 . S
C1147 H1161 0.958 . S
C1147 H1162 0.961 . S
C1147 H1163 0.960 . S
H1148 C1132 0.931 . S
H1149 C1137 0.929 . S
H1150 C1138 0.960 . S
H1151 C1138 0.962 . S
H1152 C1138 0.960 . S
H1153 C1139 0.961 . S
H1154 C1139 0.961 . S
H1155 C1139 0.961 . S
H1156 C1140 0.931 . S
H1157 C1145 0.930 . S
H1158 C1146 0.956 . S
H1159 C1146 0.961 . S
H1160 C1146 0.961 . S
H1161 C1147 0.958 . S
H1162 C1147 0.961 . S
H1163 C1147 0.960 . S
C1164 C1165 1.391 . S
C1164 C1166 1.394 . S
C1164 H1180 0.931 . S
C1165 C1164 1.391 . S
C1165 C1169 1.376 . S
C1166 C1164 1.394 . S
C1166 C1167 1.369 . S
C1166 C1170 1.531 . S
C1167 C1166 1.369 . S
C1167 C1168 1.410 . S
C1167 C1175 1.503 . S
C1168 C1167 1.410 . S
C1168 C1169 1.392 . S
C1168 C1171 1.511 . S
C1169 C1165 1.376 . S
C1169 C1168 1.392 . S
C1169 H1181 0.929 . S
C1170 C1166 1.531 . S
C1170 H1182 0.960 . S
C1170 H1183 0.962 . S
C1170 H1184 0.960 . S
C1171 C1168 1.511 . S
C1171 H1185 0.961 . S
C1171 H1186 0.961 . S
C1171 H1187 0.961 . S
C1172 C1173 1.370 . S
C1172 C1174 1.363 . S
C1172 H1188 0.931 . S
C1173 C1172 1.370 . S
C1173 C1177 1.408 . S
C1174 C1172 1.363 . S
C1174 C1175 1.370 . S
C1174 C1178 1.524 . S
C1175 C1167 1.503 . S
C1175 C1174 1.370 . S
C1175 C1176 1.403 . S
C1176 C1175 1.403 . S
C1176 C1177 1.404 . S
C1176 C1179 1.539 . S
C1177 C1173 1.408 . S
C1177 C1176 1.404 . S
C1177 H1189 0.930 . S
C1178 C1174 1.524 . S
C1178 H1190 0.956 . S
C1178 H1191 0.961 . S
C1178 H1192 0.961 . S
C1179 C1176 1.539 . S
C1179 H1193 0.958 . S
C1179 H1194 0.961 . S
C1179 H1195 0.960 . S
H1180 C1164 0.931 . S
H1181 C1169 0.929 . S
H1182 C1170 0.960 . S
H1183 C1170 0.962 . S
H1184 C1170 0.960 . S
H1185 C1171 0.961 . S
H1186 C1171 0.961 . S
H1187 C1171 0.961 . S
H1188 C1172 0.931 . S
H1189 C1177 0.930 . S
H1190 C1178 0.956 . S
H1191 C1178 0.961 . S
H1192 C1178 0.961 . S
H1193 C1179 0.958 . S
H1194 C1179 0.961 . S
H1195 C1179 0.960 . S
C1196 C1197 1.391 . S
C1196 C1198 1.394 . S
C1196 H1212 0.931 . S
C1197 C1196 1.391 . S
C1197 C1201 1.376 . S
C1198 C1196 1.394 . S
C1198 C1199 1.369 . S
C1198 C1202 1.531 . S
C1199 C1198 1.369 . S
C1199 C1200 1.410 . S
C1199 C1207 1.503 . S
C1200 C1199 1.410 . S
C1200 C1201 1.392 . S
C1200 C1203 1.511 . S
C1201 C1197 1.376 . S
C1201 C1200 1.392 . S
C1201 H1213 0.929 . S
C1202 C1198 1.531 . S
C1202 H1214 0.960 . S
C1202 H1215 0.962 . S
C1202 H1216 0.960 . S
C1203 C1200 1.511 . S
C1203 H1217 0.961 . S
C1203 H1218 0.961 . S
C1203 H1219 0.961 . S
C1204 C1205 1.370 . S
C1204 C1206 1.363 . S
C1204 H1220 0.931 . S
C1205 C1204 1.370 . S
C1205 C1209 1.408 . S
C1206 C1204 1.363 . S
C1206 C1207 1.370 . S
C1206 C1210 1.524 . S
C1207 C1199 1.503 . S
C1207 C1206 1.370 . S
C1207 C1208 1.403 . S
C1208 C1207 1.403 . S
C1208 C1209 1.404 . S
C1208 C1211 1.539 . S
C1209 C1205 1.408 . S
C1209 C1208 1.404 . S
C1209 H1221 0.930 . S
C1210 C1206 1.524 . S
C1210 H1222 0.956 . S
C1210 H1223 0.961 . S
C1210 H1224 0.961 . S
C1211 C1208 1.539 . S
C1211 H1225 0.958 . S
C1211 H1226 0.961 . S
C1211 H1227 0.960 . S
H1212 C1196 0.931 . S
H1213 C1201 0.929 . S
H1214 C1202 0.960 . S
H1215 C1202 0.962 . S
H1216 C1202 0.960 . S
H1217 C1203 0.961 . S
H1218 C1203 0.961 . S
H1219 C1203 0.961 . S
H1220 C1204 0.931 . S
H1221 C1209 0.930 . S
H1222 C1210 0.956 . S
H1223 C1210 0.961 . S
H1224 C1210 0.961 . S
H1225 C1211 0.958 . S
H1226 C1211 0.961 . S
H1227 C1211 0.960 . S
C1228 C1229 1.391 . S
C1228 C1230 1.394 . S
C1228 H1244 0.931 . S
C1229 C1228 1.391 . S
C1229 C1233 1.376 . S
C1230 C1228 1.394 . S
C1230 C1231 1.369 . S
C1230 C1234 1.531 . S
C1231 C1230 1.369 . S
C1231 C1232 1.410 . S
C1231 C1239 1.503 . S
C1232 C1231 1.410 . S
C1232 C1233 1.392 . S
C1232 C1235 1.511 . S
C1233 C1229 1.376 . S
C1233 C1232 1.392 . S
C1233 H1245 0.929 . S
C1234 C1230 1.531 . S
C1234 H1246 0.960 . S
C1234 H1247 0.962 . S
C1234 H1248 0.960 . S
C1235 C1232 1.511 . S
C1235 H1249 0.961 . S
C1235 H1250 0.961 . S
C1235 H1251 0.961 . S
C1236 C1237 1.370 . S
C1236 C1238 1.363 . S
C1236 H1252 0.931 . S
C1237 C1236 1.370 . S
C1237 C1241 1.408 . S
C1238 C1236 1.363 . S
C1238 C1239 1.370 . S
C1238 C1242 1.524 . S
C1239 C1231 1.503 . S
C1239 C1238 1.370 . S
C1239 C1240 1.403 . S
C1240 C1239 1.403 . S
C1240 C1241 1.404 . S
C1240 C1243 1.539 . S
C1241 C1237 1.408 . S
C1241 C1240 1.404 . S
C1241 H1253 0.930 . S
C1242 C1238 1.524 . S
C1242 H1254 0.956 . S
C1242 H1255 0.961 . S
C1242 H1256 0.961 . S
C1243 C1240 1.539 . S
C1243 H1257 0.958 . S
C1243 H1258 0.961 . S
C1243 H1259 0.960 . S
H1244 C1228 0.931 . S
H1245 C1233 0.929 . S
H1246 C1234 0.960 . S
H1247 C1234 0.962 . S
H1248 C1234 0.960 . S
H1249 C1235 0.961 . S
H1250 C1235 0.961 . S
H1251 C1235 0.961 . S
H1252 C1236 0.931 . S
H1253 C1241 0.930 . S
H1254 C1242 0.956 . S
H1255 C1242 0.961 . S
H1256 C1242 0.961 . S
H1257 C1243 0.958 . S
H1258 C1243 0.961 . S
H1259 C1243 0.960 . S
C1260 C1261 1.391 . S
C1260 C1262 1.394 . S
C1260 H1276 0.931 . S
C1261 C1260 1.391 . S
C1261 C1265 1.376 . S
C1262 C1260 1.394 . S
C1262 C1263 1.369 . S
C1262 C1266 1.531 . S
C1263 C1262 1.369 . S
C1263 C1264 1.410 . S
C1263 C1271 1.503 . S
C1264 C1263 1.410 . S
C1264 C1265 1.392 . S
C1264 C1267 1.511 . S
C1265 C1261 1.376 . S
C1265 C1264 1.392 . S
C1265 H1277 0.929 . S
C1266 C1262 1.531 . S
C1266 H1278 0.960 . S
C1266 H1279 0.962 . S
C1266 H1280 0.960 . S
C1267 C1264 1.511 . S
C1267 H1281 0.961 . S
C1267 H1282 0.961 . S
C1267 H1283 0.961 . S
C1268 C1269 1.370 . S
C1268 C1270 1.363 . S
C1268 H1284 0.931 . S
C1269 C1268 1.370 . S
C1269 C1273 1.408 . S
C1270 C1268 1.363 . S
C1270 C1271 1.370 . S
C1270 C1274 1.524 . S
C1271 C1263 1.503 . S
C1271 C1270 1.370 . S
C1271 C1272 1.403 . S
C1272 C1271 1.403 . S
C1272 C1273 1.404 . S
C1272 C1275 1.539 . S
C1273 C1269 1.408 . S
C1273 C1272 1.404 . S
C1273 H1285 0.930 . S
C1274 C1270 1.524 . S
C1274 H1286 0.956 . S
C1274 H1287 0.961 . S
C1274 H1288 0.961 . S
C1275 C1272 1.539 . S
C1275 H1289 0.958 . S
C1275 H1290 0.961 . S
C1275 H1291 0.960 . S
H1276 C1260 0.931 . S
H1277 C1265 0.929 . S
H1278 C1266 0.960 . S
H1279 C1266 0.962 . S
H1280 C1266 0.960 . S
H1281 C1267 0.961 . S
H1282 C1267 0.961 . S
H1283 C1267 0.961 . S
H1284 C1268 0.931 . S
H1285 C1273 0.930 . S
H1286 C1274 0.956 . S
H1287 C1274 0.961 . S
H1288 C1274 0.961 . S
H1289 C1275 0.958 . S
H1290 C1275 0.961 . S
H1291 C1275 0.960 . S
C1292 C1293 1.391 . S
C1292 C1294 1.394 . S
C1292 H1308 0.931 . S
C1293 C1292 1.391 . S
C1293 C1297 1.376 . S
C1294 C1292 1.394 . S
C1294 C1295 1.369 . S
C1294 C1298 1.531 . S
C1295 C1294 1.369 . S
C1295 C1296 1.410 . S
C1295 C1303 1.503 . S
C1296 C1295 1.410 . S
C1296 C1297 1.392 . S
C1296 C1299 1.511 . S
C1297 C1293 1.376 . S
C1297 C1296 1.392 . S
C1297 H1309 0.929 . S
C1298 C1294 1.531 . S
C1298 H1310 0.960 . S
C1298 H1311 0.962 . S
C1298 H1312 0.960 . S
C1299 C1296 1.511 . S
C1299 H1313 0.961 . S
C1299 H1314 0.961 . S
C1299 H1315 0.961 . S
C1300 C1301 1.370 . S
C1300 C1302 1.363 . S
C1300 H1316 0.931 . S
C1301 C1300 1.370 . S
C1301 C1305 1.408 . S
C1302 C1300 1.363 . S
C1302 C1303 1.370 . S
C1302 C1306 1.524 . S
C1303 C1295 1.503 . S
C1303 C1302 1.370 . S
C1303 C1304 1.403 . S
C1304 C1303 1.403 . S
C1304 C1305 1.404 . S
C1304 C1307 1.539 . S
C1305 C1301 1.408 . S
C1305 C1304 1.404 . S
C1305 H1317 0.930 . S
C1306 C1302 1.524 . S
C1306 H1318 0.956 . S
C1306 H1319 0.961 . S
C1306 H1320 0.961 . S
C1307 C1304 1.539 . S
C1307 H1321 0.958 . S
C1307 H1322 0.961 . S
C1307 H1323 0.960 . S
H1308 C1292 0.931 . S
H1309 C1297 0.929 . S
H1310 C1298 0.960 . S
H1311 C1298 0.962 . S
H1312 C1298 0.960 . S
H1313 C1299 0.961 . S
H1314 C1299 0.961 . S
H1315 C1299 0.961 . S
H1316 C1300 0.931 . S
H1317 C1305 0.930 . S
H1318 C1306 0.956 . S
H1319 C1306 0.961 . S
H1320 C1306 0.961 . S
H1321 C1307 0.958 . S
H1322 C1307 0.961 . S
H1323 C1307 0.960 . S
C1324 C1325 1.391 . S
C1324 C1326 1.394 . S
C1324 H1340 0.931 . S
C1325 C1324 1.391 . S
C1325 C1329 1.376 . S
C1326 C1324 1.394 . S
C1326 C1327 1.369 . S
C1326 C1330 1.531 . S
C1327 C1326 1.369 . S
C1327 C1328 1.410 . S
C1327 C1335 1.503 . S
C1328 C1327 1.410 . S
C1328 C1329 1.392 . S
C1328 C1331 1.511 . S
C1329 C1325 1.376 . S
C1329 C1328 1.392 . S
C1329 H1341 0.929 . S
C1330 C1326 1.531 . S
C1330 H1342 0.960 . S
C1330 H1343 0.962 . S
C1330 H1344 0.960 . S
C1331 C1328 1.511 . S
C1331 H1345 0.961 . S
C1331 H1346 0.961 . S
C1331 H1347 0.961 . S
C1332 C1333 1.370 . S
C1332 C1334 1.363 . S
C1332 H1348 0.931 . S
C1333 C1332 1.370 . S
C1333 C1337 1.408 . S
C1334 C1332 1.363 . S
C1334 C1335 1.370 . S
C1334 C1338 1.524 . S
C1335 C1327 1.503 . S
C1335 C1334 1.370 . S
C1335 C1336 1.403 . S
C1336 C1335 1.403 . S
C1336 C1337 1.404 . S
C1336 C1339 1.539 . S
C1337 C1333 1.408 . S
C1337 C1336 1.404 . S
C1337 H1349 0.930 . S
C1338 C1334 1.524 . S
C1338 H1350 0.956 . S
C1338 H1351 0.961 . S
C1338 H1352 0.961 . S
C1339 C1336 1.539 . S
C1339 H1353 0.958 . S
C1339 H1354 0.961 . S
C1339 H1355 0.960 . S
H1340 C1324 0.931 . S
H1341 C1329 0.929 . S
H1342 C1330 0.960 . S
H1343 C1330 0.962 . S
H1344 C1330 0.960 . S
H1345 C1331 0.961 . S
H1346 C1331 0.961 . S
H1347 C1331 0.961 . S
H1348 C1332 0.931 . S
H1349 C1337 0.930 . S
H1350 C1338 0.956 . S
H1351 C1338 0.961 . S
H1352 C1338 0.961 . S
H1353 C1339 0.958 . S
H1354 C1339 0.961 . S
H1355 C1339 0.960 . S
C1356 C1357 1.391 . S
C1356 C1358 1.394 . S
C1356 H1372 0.931 . S
C1357 C1356 1.391 . S
C1357 C1361 1.376 . S
C1358 C1356 1.394 . S
C1358 C1359 1.369 . S
C1358 C1362 1.531 . S
C1359 C1358 1.369 . S
C1359 C1360 1.410 . S
C1359 C1367 1.503 . S
C1360 C1359 1.410 . S
C1360 C1361 1.392 . S
C1360 C1363 1.511 . S
C1361 C1357 1.376 . S
C1361 C1360 1.392 . S
C1361 H1373 0.929 . S
C1362 C1358 1.531 . S
C1362 H1374 0.960 . S
C1362 H1375 0.962 . S
C1362 H1376 0.960 . S
C1363 C1360 1.511 . S
C1363 H1377 0.961 . S
C1363 H1378 0.961 . S
C1363 H1379 0.961 . S
C1364 C1365 1.370 . S
C1364 C1366 1.363 . S
C1364 H1380 0.931 . S
C1365 C1364 1.370 . S
C1365 C1369 1.408 . S
C1366 C1364 1.363 . S
C1366 C1367 1.370 . S
C1366 C1370 1.524 . S
C1367 C1359 1.503 . S
C1367 C1366 1.370 . S
C1367 C1368 1.403 . S
C1368 C1367 1.403 . S
C1368 C1369 1.404 . S
C1368 C1371 1.539 . S
C1369 C1365 1.408 . S
C1369 C1368 1.404 . S
C1369 H1381 0.930 . S
C1370 C1366 1.524 . S
C1370 H1382 0.956 . S
C1370 H1383 0.961 . S
C1370 H1384 0.961 . S
C1371 C1368 1.539 . S
C1371 H1385 0.958 . S
C1371 H1386 0.961 . S
C1371 H1387 0.960 . S
H1372 C1356 0.931 . S
H1373 C1361 0.929 . S
H1374 C1362 0.960 . S
H1375 C1362 0.962 . S
H1376 C1362 0.960 . S
H1377 C1363 0.961 . S
H1378 C1363 0.961 . S
H1379 C1363 0.961 . S
H1380 C1364 0.931 . S
H1381 C1369 0.930 . S
H1382 C1370 0.956 . S
H1383 C1370 0.961 . S
H1384 C1370 0.961 . S
H1385 C1371 0.958 . S
H1386 C1371 0.961 . S
H1387 C1371 0.960 . S
C1388 C1389 1.391 . S
C1388 C1390 1.394 . S
C1388 H1404 0.931 . S
C1389 C1388 1.391 . S
C1389 C1393 1.376 . S
C1390 C1388 1.394 . S
C1390 C1391 1.369 . S
C1390 C1394 1.531 . S
C1391 C1390 1.369 . S
C1391 C1392 1.410 . S
C1391 C1399 1.503 . S
C1392 C1391 1.410 . S
C1392 C1393 1.392 . S
C1392 C1395 1.511 . S
C1393 C1389 1.376 . S
C1393 C1392 1.392 . S
C1393 H1405 0.929 . S
C1394 C1390 1.531 . S
C1394 H1406 0.960 . S
C1394 H1407 0.962 . S
C1394 H1408 0.960 . S
C1395 C1392 1.511 . S
C1395 H1409 0.961 . S
C1395 H1410 0.961 . S
C1395 H1411 0.961 . S
C1396 C1397 1.370 . S
C1396 C1398 1.363 . S
C1396 H1412 0.931 . S
C1397 C1396 1.370 . S
C1397 C1401 1.408 . S
C1398 C1396 1.363 . S
C1398 C1399 1.370 . S
C1398 C1402 1.524 . S
C1399 C1391 1.503 . S
C1399 C1398 1.370 . S
C1399 C1400 1.403 . S
C1400 C1399 1.403 . S
C1400 C1401 1.404 . S
C1400 C1403 1.539 . S
C1401 C1397 1.408 . S
C1401 C1400 1.404 . S
C1401 H1413 0.930 . S
C1402 C1398 1.524 . S
C1402 H1414 0.956 . S
C1402 H1415 0.961 . S
C1402 H1416 0.961 . S
C1403 C1400 1.539 . S
C1403 H1417 0.958 . S
C1403 H1418 0.961 . S
C1403 H1419 0.960 . S
H1404 C1388 0.931 . S
H1405 C1393 0.929 . S
H1406 C1394 0.960 . S
H1407 C1394 0.962 . S
H1408 C1394 0.960 . S
H1409 C1395 0.961 . S
H1410 C1395 0.961 . S
H1411 C1395 0.961 . S
H1412 C1396 0.931 . S
H1413 C1401 0.930 . S
H1414 C1402 0.956 . S
H1415 C1402 0.961 . S
H1416 C1402 0.961 . S
H1417 C1403 0.958 . S
H1418 C1403 0.961 . S
H1419 C1403 0.960 . S
C1420 C1421 1.391 . S
C1420 C1422 1.394 . S
C1420 H1436 0.931 . S
C1421 C1420 1.391 . S
C1421 C1425 1.376 . S
C1422 C1420 1.394 . S
C1422 C1423 1.369 . S
C1422 C1426 1.531 . S
C1423 C1422 1.369 . S
C1423 C1424 1.410 . S
C1423 C1431 1.503 . S
C1424 C1423 1.410 . S
C1424 C1425 1.392 . S
C1424 C1427 1.511 . S
C1425 C1421 1.376 . S
C1425 C1424 1.392 . S
C1425 H1437 0.929 . S
C1426 C1422 1.531 . S
C1426 H1438 0.960 . S
C1426 H1439 0.962 . S
C1426 H1440 0.960 . S
C1427 C1424 1.511 . S
C1427 H1441 0.961 . S
C1427 H1442 0.961 . S
C1427 H1443 0.961 . S
C1428 C1429 1.370 . S
C1428 C1430 1.363 . S
C1428 H1444 0.931 . S
C1429 C1428 1.370 . S
C1429 C1433 1.408 . S
C1430 C1428 1.363 . S
C1430 C1431 1.370 . S
C1430 C1434 1.524 . S
C1431 C1423 1.503 . S
C1431 C1430 1.370 . S
C1431 C1432 1.403 . S
C1432 C1431 1.403 . S
C1432 C1433 1.404 . S
C1432 C1435 1.539 . S
C1433 C1429 1.408 . S
C1433 C1432 1.404 . S
C1433 H1445 0.930 . S
C1434 C1430 1.524 . S
C1434 H1446 0.956 . S
C1434 H1447 0.961 . S
C1434 H1448 0.961 . S
C1435 C1432 1.539 . S
C1435 H1449 0.958 . S
C1435 H1450 0.961 . S
C1435 H1451 0.960 . S
H1436 C1420 0.931 . S
H1437 C1425 0.929 . S
H1438 C1426 0.960 . S
H1439 C1426 0.962 . S
H1440 C1426 0.960 . S
H1441 C1427 0.961 . S
H1442 C1427 0.961 . S
H1443 C1427 0.961 . S
H1444 C1428 0.931 . S
H1445 C1433 0.930 . S
H1446 C1434 0.956 . S
H1447 C1434 0.961 . S
H1448 C1434 0.961 . S
H1449 C1435 0.958 . S
H1450 C1435 0.961 . S
H1451 C1435 0.960 . S
C1452 C1453 1.391 . S
C1452 C1454 1.394 . S
C1452 H1468 0.931 . S
C1453 C1452 1.391 . S
C1453 C1457 1.376 . S
C1454 C1452 1.394 . S
C1454 C1455 1.369 . S
C1454 C1458 1.531 . S
C1455 C1454 1.369 . S
C1455 C1456 1.410 . S
C1455 C1463 1.503 . S
C1456 C1455 1.410 . S
C1456 C1457 1.392 . S
C1456 C1459 1.511 . S
C1457 C1453 1.376 . S
C1457 C1456 1.392 . S
C1457 H1469 0.929 . S
C1458 C1454 1.531 . S
C1458 H1470 0.960 . S
C1458 H1471 0.962 . S
C1458 H1472 0.960 . S
C1459 C1456 1.511 . S
C1459 H1473 0.961 . S
C1459 H1474 0.961 . S
C1459 H1475 0.961 . S
C1460 C1461 1.370 . S
C1460 C1462 1.363 . S
C1460 H1476 0.931 . S
C1461 C1460 1.370 . S
C1461 C1465 1.408 . S
C1462 C1460 1.363 . S
C1462 C1463 1.370 . S
C1462 C1466 1.524 . S
C1463 C1455 1.503 . S
C1463 C1462 1.370 . S
C1463 C1464 1.403 . S
C1464 C1463 1.403 . S
C1464 C1465 1.404 . S
C1464 C1467 1.539 . S
C1465 C1461 1.408 . S
C1465 C1464 1.404 . S
C1465 H1477 0.930 . S
C1466 C1462 1.524 . S
C1466 H1478 0.956 . S
C1466 H1479 0.961 . S
C1466 H1480 0.961 . S
C1467 C1464 1.539 . S
C1467 H1481 0.958 . S
C1467 H1482 0.961 . S
C1467 H1483 0.960 . S
H1468 C1452 0.931 . S
H1469 C1457 0.929 . S
H1470 C1458 0.960 . S
H1471 C1458 0.962 . S
H1472 C1458 0.960 . S
H1473 C1459 0.961 . S
H1474 C1459 0.961 . S
H1475 C1459 0.961 . S
H1476 C1460 0.931 . S
H1477 C1465 0.930 . S
H1478 C1466 0.956 . S
H1479 C1466 0.961 . S
H1480 C1466 0.961 . S
H1481 C1467 0.958 . S
H1482 C1467 0.961 . S
H1483 C1467 0.960 . S
C1484 C1485 1.391 . S
C1484 C1486 1.394 . S
C1484 H1500 0.931 . S
C1485 C1484 1.391 . S
C1485 C1489 1.376 . S
C1486 C1484 1.394 . S
C1486 C1487 1.369 . S
C1486 C1490 1.531 . S
C1487 C1486 1.369 . S
C1487 C1488 1.410 . S
C1487 C1495 1.503 . S
C1488 C1487 1.410 . S
C1488 C1489 1.392 . S
C1488 C1491 1.511 . S
C1489 C1485 1.376 . S
C1489 C1488 1.392 . S
C1489 H1501 0.929 . S
C1490 C1486 1.531 . S
C1490 H1502 0.960 . S
C1490 H1503 0.962 . S
C1490 H1504 0.960 . S
C1491 C1488 1.511 . S
C1491 H1505 0.961 . S
C1491 H1506 0.961 . S
C1491 H1507 0.961 . S
C1492 C1493 1.370 . S
C1492 C1494 1.363 . S
C1492 H1508 0.931 . S
C1493 C1492 1.370 . S
C1493 C1497 1.408 . S
C1494 C1492 1.363 . S
C1494 C1495 1.370 . S
C1494 C1498 1.524 . S
C1495 C1487 1.503 . S
C1495 C1494 1.370 . S
C1495 C1496 1.403 . S
C1496 C1495 1.403 . S
C1496 C1497 1.404 . S
C1496 C1499 1.539 . S
C1497 C1493 1.408 . S
C1497 C1496 1.404 . S
C1497 H1509 0.930 . S
C1498 C1494 1.524 . S
C1498 H1510 0.956 . S
C1498 H1511 0.961 . S
C1498 H1512 0.961 . S
C1499 C1496 1.539 . S
C1499 H1513 0.958 . S
C1499 H1514 0.961 . S
C1499 H1515 0.960 . S
H1500 C1484 0.931 . S
H1501 C1489 0.929 . S
H1502 C1490 0.960 . S
H1503 C1490 0.962 . S
H1504 C1490 0.960 . S
H1505 C1491 0.961 . S
H1506 C1491 0.961 . S
H1507 C1491 0.961 . S
H1508 C1492 0.931 . S
H1509 C1497 0.930 . S
H1510 C1498 0.956 . S
H1511 C1498 0.961 . S
H1512 C1498 0.961 . S
H1513 C1499 0.958 . S
H1514 C1499 0.961 . S
H1515 C1499 0.960 . S
C1516 C1517 1.391 . S
C1516 C1518 1.394 . S
C1516 H1532 0.931 . S
C1517 C1516 1.391 . S
C1517 C1521 1.376 . S
C1518 C1516 1.394 . S
C1518 C1519 1.369 . S
C1518 C1522 1.531 . S
C1519 C1518 1.369 . S
C1519 C1520 1.410 . S
C1519 C1527 1.503 . S
C1520 C1519 1.410 . S
C1520 C1521 1.392 . S
C1520 C1523 1.511 . S
C1521 C1517 1.376 . S
C1521 C1520 1.392 . S
C1521 H1533 0.929 . S
C1522 C1518 1.531 . S
C1522 H1534 0.960 . S
C1522 H1535 0.962 . S
C1522 H1536 0.960 . S
C1523 C1520 1.511 . S
C1523 H1537 0.961 . S
C1523 H1538 0.961 . S
C1523 H1539 0.961 . S
C1524 C1525 1.370 . S
C1524 C1526 1.363 . S
C1524 H1540 0.931 . S
C1525 C1524 1.370 . S
C1525 C1529 1.408 . S
C1526 C1524 1.363 . S
C1526 C1527 1.370 . S
C1526 C1530 1.524 . S
C1527 C1519 1.503 . S
C1527 C1526 1.370 . S
C1527 C1528 1.403 . S
C1528 C1527 1.403 . S
C1528 C1529 1.404 . S
C1528 C1531 1.539 . S
C1529 C1525 1.408 . S
C1529 C1528 1.404 . S
C1529 H1541 0.930 . S
C1530 C1526 1.524 . S
C1530 H1542 0.956 . S
C1530 H1543 0.961 . S
C1530 H1544 0.961 . S
C1531 C1528 1.539 . S
C1531 H1545 0.958 . S
C1531 H1546 0.961 . S
C1531 H1547 0.960 . S
H1532 C1516 0.931 . S
H1533 C1521 0.929 . S
H1534 C1522 0.960 . S
H1535 C1522 0.962 . S
H1536 C1522 0.960 . S
H1537 C1523 0.961 . S
H1538 C1523 0.961 . S
H1539 C1523 0.961 . S
H1540 C1524 0.931 . S
H1541 C1529 0.930 . S
H1542 C1530 0.956 . S
H1543 C1530 0.961 . S
H1544 C1530 0.961 . S
H1545 C1531 0.958 . S
H1546 C1531 0.961 . S
H1547 C1531 0.960 . S
C1548 C1549 1.391 . S
C1548 C1550 1.394 . S
C1548 H1564 0.931 . S
C1549 C1548 1.391 . S
C1549 C1553 1.376 . S
C1550 C1548 1.394 . S
C1550 C1551 1.369 . S
C1550 C1554 1.531 . S
C1551 C1550 1.369 . S
C1551 C1552 1.410 . S
C1551 C1559 1.503 . S
C1552 C1551 1.410 . S
C1552 C1553 1.392 . S
C1552 C1555 1.511 . S
C1553 C1549 1.376 . S
C1553 C1552 1.392 . S
C1553 H1565 0.929 . S
C1554 C1550 1.531 . S
C1554 H1566 0.960 . S
C1554 H1567 0.962 . S
C1554 H1568 0.960 . S
C1555 C1552 1.511 . S
C1555 H1569 0.961 . S
C1555 H1570 0.961 . S
C1555 H1571 0.961 . S
C1556 C1557 1.370 . S
C1556 C1558 1.363 . S
C1556 H1572 0.931 . S
C1557 C1556 1.370 . S
C1557 C1561 1.408 . S
C1558 C1556 1.363 . S
C1558 C1559 1.370 . S
C1558 C1562 1.524 . S
C1559 C1551 1.503 . S
C1559 C1558 1.370 . S
C1559 C1560 1.403 . S
C1560 C1559 1.403 . S
C1560 C1561 1.404 . S
C1560 C1563 1.539 . S
C1561 C1557 1.408 . S
C1561 C1560 1.404 . S
C1561 H1573 0.930 . S
C1562 C1558 1.524 . S
C1562 H1574 0.956 . S
C1562 H1575 0.961 . S
C1562 H1576 0.961 . S
C1563 C1560 1.539 . S
C1563 H1577 0.958 . S
C1563 H1578 0.961 . S
C1563 H1579 0.960 . S
H1564 C1548 0.931 . S
H1565 C1553 0.929 . S
H1566 C1554 0.960 . S
H1567 C1554 0.962 . S
H1568 C1554 0.960 . S
H1569 C1555 0.961 . S
H1570 C1555 0.961 . S
H1571 C1555 0.961 . S
H1572 C1556 0.931 . S
H1573 C1561 0.930 . S
H1574 C1562 0.956 . S
H1575 C1562 0.961 . S
H1576 C1562 0.961 . S
H1577 C1563 0.958 . S
H1578 C1563 0.961 . S
H1579 C1563 0.960 . S
C1580 C1581 1.391 . S
C1580 C1582 1.394 . S
C1580 H1596 0.931 . S
C1581 C1580 1.391 . S
C1581 C1585 1.376 . S
C1582 C1580 1.394 . S
C1582 C1583 1.369 . S
C1582 C1586 1.531 . S
C1583 C1582 1.369 . S
C1583 C1584 1.410 . S
C1583 C1591 1.503 . S
C1584 C1583 1.410 . S
C1584 C1585 1.392 . S
C1584 C1587 1.511 . S
C1585 C1581 1.376 . S
C1585 C1584 1.392 . S
C1585 H1597 0.929 . S
C1586 C1582 1.531 . S
C1586 H1598 0.960 . S
C1586 H1599 0.962 . S
C1586 H1600 0.960 . S
C1587 C1584 1.511 . S
C1587 H1601 0.961 . S
C1587 H1602 0.961 . S
C1587 H1603 0.961 . S
C1588 C1589 1.370 . S
C1588 C1590 1.363 . S
C1588 H1604 0.931 . S
C1589 C1588 1.370 . S
C1589 C1593 1.408 . S
C1590 C1588 1.363 . S
C1590 C1591 1.370 . S
C1590 C1594 1.524 . S
C1591 C1583 1.503 . S
C1591 C1590 1.370 . S
C1591 C1592 1.403 . S
C1592 C1591 1.403 . S
C1592 C1593 1.404 . S
C1592 C1595 1.539 . S
C1593 C1589 1.408 . S
C1593 C1592 1.404 . S
C1593 H1605 0.930 . S
C1594 C1590 1.524 . S
C1594 H1606 0.956 . S
C1594 H1607 0.961 . S
C1594 H1608 0.961 . S
C1595 C1592 1.539 . S
C1595 H1609 0.958 . S
C1595 H1610 0.961 . S
C1595 H1611 0.960 . S
H1596 C1580 0.931 . S
H1597 C1585 0.929 . S
H1598 C1586 0.960 . S
H1599 C1586 0.962 . S
H1600 C1586 0.960 . S
H1601 C1587 0.961 . S
H1602 C1587 0.961 . S
H1603 C1587 0.961 . S
H1604 C1588 0.931 . S
H1605 C1593 0.930 . S
H1606 C1594 0.956 . S
H1607 C1594 0.961 . S
H1608 C1594 0.961 . S
H1609 C1595 0.958 . S
H1610 C1595 0.961 . S
H1611 C1595 0.960 . S
C1612 C1613 1.391 . S
C1612 C1614 1.394 . S
C1612 H1628 0.931 . S
C1613 C1612 1.391 . S
C1613 C1617 1.376 . S
C1614 C1612 1.394 . S
C1614 C1615 1.369 . S
C1614 C1618 1.531 . S
C1615 C1614 1.369 . S
C1615 C1616 1.410 . S
C1615 C1623 1.503 . S
C1616 C1615 1.410 . S
C1616 C1617 1.392 . S
C1616 C1619 1.511 . S
C1617 C1613 1.376 . S
C1617 C1616 1.392 . S
C1617 H1629 0.929 . S
C1618 C1614 1.531 . S
C1618 H1630 0.960 . S
C1618 H1631 0.962 . S
C1618 H1632 0.960 . S
C1619 C1616 1.511 . S
C1619 H1633 0.961 . S
C1619 H1634 0.961 . S
C1619 H1635 0.961 . S
C1620 C1621 1.370 . S
C1620 C1622 1.363 . S
C1620 H1636 0.931 . S
C1621 C1620 1.370 . S
C1621 C1625 1.408 . S
C1622 C1620 1.363 . S
C1622 C1623 1.370 . S
C1622 C1626 1.524 . S
C1623 C1615 1.503 . S
C1623 C1622 1.370 . S
C1623 C1624 1.403 . S
C1624 C1623 1.403 . S
C1624 C1625 1.404 . S
C1624 C1627 1.539 . S
C1625 C1621 1.408 . S
C1625 C1624 1.404 . S
C1625 H1637 0.930 . S
C1626 C1622 1.524 . S
C1626 H1638 0.956 . S
C1626 H1639 0.961 . S
C1626 H1640 0.961 . S
C1627 C1624 1.539 . S
C1627 H1641 0.958 . S
C1627 H1642 0.961 . S
C1627 H1643 0.960 . S
H1628 C1612 0.931 . S
H1629 C1617 0.929 . S
H1630 C1618 0.960 . S
H1631 C1618 0.962 . S
H1632 C1618 0.960 . S
H1633 C1619 0.961 . S
H1634 C1619 0.961 . S
H1635 C1619 0.961 . S
H1636 C1620 0.931 . S
H1637 C1625 0.930 . S
H1638 C1626 0.956 . S
H1639 C1626 0.961 . S
H1640 C1626 0.961 . S
H1641 C1627 0.958 . S
H1642 C1627 0.961 . S
H1643 C1627 0.960 . S
C1644 C1645 1.391 . S
C1644 C1646 1.394 . S
C1644 H1660 0.931 . S
C1645 C1644 1.391 . S
C1645 C1649 1.376 . S
C1646 C1644 1.394 . S
C1646 C1647 1.369 . S
C1646 C1650 1.531 . S
C1647 C1646 1.369 . S
C1647 C1648 1.410 . S
C1647 C1655 1.503 . S
C1648 C1647 1.410 . S
C1648 C1649 1.392 . S
C1648 C1651 1.511 . S
C1649 C1645 1.376 . S
C1649 C1648 1.392 . S
C1649 H1661 0.929 . S
C1650 C1646 1.531 . S
C1650 H1662 0.960 . S
C1650 H1663 0.962 . S
C1650 H1664 0.960 . S
C1651 C1648 1.511 . S
C1651 H1665 0.961 . S
C1651 H1666 0.961 . S
C1651 H1667 0.961 . S
C1652 C1653 1.370 . S
C1652 C1654 1.363 . S
C1652 H1668 0.931 . S
C1653 C1652 1.370 . S
C1653 C1657 1.408 . S
C1654 C1652 1.363 . S
C1654 C1655 1.370 . S
C1654 C1658 1.524 . S
C1655 C1647 1.503 . S
C1655 C1654 1.370 . S
C1655 C1656 1.403 . S
C1656 C1655 1.403 . S
C1656 C1657 1.404 . S
C1656 C1659 1.539 . S
C1657 C1653 1.408 . S
C1657 C1656 1.404 . S
C1657 H1669 0.930 . S
C1658 C1654 1.524 . S
C1658 H1670 0.956 . S
C1658 H1671 0.961 . S
C1658 H1672 0.961 . S
C1659 C1656 1.539 . S
C1659 H1673 0.958 . S
C1659 H1674 0.961 . S
C1659 H1675 0.960 . S
H1660 C1644 0.931 . S
H1661 C1649 0.929 . S
H1662 C1650 0.960 . S
H1663 C1650 0.962 . S
H1664 C1650 0.960 . S
H1665 C1651 0.961 . S
H1666 C1651 0.961 . S
H1667 C1651 0.961 . S
H1668 C1652 0.931 . S
H1669 C1657 0.930 . S
H1670 C1658 0.956 . S
H1671 C1658 0.961 . S
H1672 C1658 0.961 . S
H1673 C1659 0.958 . S
H1674 C1659 0.961 . S
H1675 C1659 0.960 . S
C1676 C1677 1.391 . S
C1676 C1678 1.394 . S
C1676 H1692 0.931 . S
C1677 C1676 1.391 . S
C1677 C1681 1.376 . S
C1678 C1676 1.394 . S
C1678 C1679 1.369 . S
C1678 C1682 1.531 . S
C1679 C1678 1.369 . S
C1679 C1680 1.410 . S
C1679 C1687 1.503 . S
C1680 C1679 1.410 . S
C1680 C1681 1.392 . S
C1680 C1683 1.511 . S
C1681 C1677 1.376 . S
C1681 C1680 1.392 . S
C1681 H1693 0.929 . S
C1682 C1678 1.531 . S
C1682 H1694 0.960 . S
C1682 H1695 0.962 . S
C1682 H1696 0.960 . S
C1683 C1680 1.511 . S
C1683 H1697 0.961 . S
C1683 H1698 0.961 . S
C1683 H1699 0.961 . S
C1684 C1685 1.370 . S
C1684 C1686 1.363 . S
C1684 H1700 0.931 . S
C1685 C1684 1.370 . S
C1685 C1689 1.408 . S
C1686 C1684 1.363 . S
C1686 C1687 1.370 . S
C1686 C1690 1.524 . S
C1687 C1679 1.503 . S
C1687 C1686 1.370 . S
C1687 C1688 1.403 . S
C1688 C1687 1.403 . S
C1688 C1689 1.404 . S
C1688 C1691 1.539 . S
C1689 C1685 1.408 . S
C1689 C1688 1.404 . S
C1689 H1701 0.930 . S
C1690 C1686 1.524 . S
C1690 H1702 0.956 . S
C1690 H1703 0.961 . S
C1690 H1704 0.961 . S
C1691 C1688 1.539 . S
C1691 H1705 0.958 . S
C1691 H1706 0.961 . S
C1691 H1707 0.960 . S
H1692 C1676 0.931 . S
H1693 C1681 0.929 . S
H1694 C1682 0.960 . S
H1695 C1682 0.962 . S
H1696 C1682 0.960 . S
H1697 C1683 0.961 . S
H1698 C1683 0.961 . S
H1699 C1683 0.961 . S
H1700 C1684 0.931 . S
H1701 C1689 0.930 . S
H1702 C1690 0.956 . S
H1703 C1690 0.961 . S
H1704 C1690 0.961 . S
H1705 C1691 0.958 . S
H1706 C1691 0.961 . S
H1707 C1691 0.960 . S
C1708 C1709 1.391 . S
C1708 C1710 1.394 . S
C1708 H1724 0.931 . S
C1709 C1708 1.391 . S
C1709 C1713 1.376 . S
C1710 C1708 1.394 . S
C1710 C1711 1.369 . S
C1710 C1714 1.531 . S
C1711 C1710 1.369 . S
C1711 C1712 1.410 . S
C1711 C1719 1.503 . S
C1712 C1711 1.410 . S
C1712 C1713 1.392 . S
C1712 C1715 1.511 . S
C1713 C1709 1.376 . S
C1713 C1712 1.392 . S
C1713 H1725 0.929 . S
C1714 C1710 1.531 . S
C1714 H1726 0.960 . S
C1714 H1727 0.962 . S
C1714 H1728 0.960 . S
C1715 C1712 1.511 . S
C1715 H1729 0.961 . S
C1715 H1730 0.961 . S
C1715 H1731 0.961 . S
C1716 C1717 1.370 . S
C1716 C1718 1.363 . S
C1716 H1732 0.931 . S
C1717 C1716 1.370 . S
C1717 C1721 1.408 . S
C1718 C1716 1.363 . S
C1718 C1719 1.370 . S
C1718 C1722 1.524 . S
C1719 C1711 1.503 . S
C1719 C1718 1.370 . S
C1719 C1720 1.403 . S
C1720 C1719 1.403 . S
C1720 C1721 1.404 . S
C1720 C1723 1.539 . S
C1721 C1717 1.408 . S
C1721 C1720 1.404 . S
C1721 H1733 0.930 . S
C1722 C1718 1.524 . S
C1722 H1734 0.956 . S
C1722 H1735 0.961 . S
C1722 H1736 0.961 . S
C1723 C1720 1.539 . S
C1723 H1737 0.958 . S
C1723 H1738 0.961 . S
C1723 H1739 0.960 . S
H1724 C1708 0.931 . S
H1725 C1713 0.929 . S
H1726 C1714 0.960 . S
H1727 C1714 0.962 . S
H1728 C1714 0.960 . S
H1729 C1715 0.961 . S
H1730 C1715 0.961 . S
H1731 C1715 0.961 . S
H1732 C1716 0.931 . S
H1733 C1721 0.930 . S
H1734 C1722 0.956 . S
H1735 C1722 0.961 . S
H1736 C1722 0.961 . S
H1737 C1723 0.958 . S
H1738 C1723 0.961 . S
H1739 C1723 0.960 . S
C1740 C1741 1.391 . S
C1740 C1742 1.394 . S
C1740 H1756 0.931 . S
C1741 C1740 1.391 . S
C1741 C1745 1.376 . S
C1742 C1740 1.394 . S
C1742 C1743 1.369 . S
C1742 C1746 1.531 . S
C1743 C1742 1.369 . S
C1743 C1744 1.410 . S
C1743 C1751 1.503 . S
C1744 C1743 1.410 . S
C1744 C1745 1.392 . S
C1744 C1747 1.511 . S
C1745 C1741 1.376 . S
C1745 C1744 1.392 . S
C1745 H1757 0.929 . S
C1746 C1742 1.531 . S
C1746 H1758 0.960 . S
C1746 H1759 0.962 . S
C1746 H1760 0.960 . S
C1747 C1744 1.511 . S
C1747 H1761 0.961 . S
C1747 H1762 0.961 . S
C1747 H1763 0.961 . S
C1748 C1749 1.370 . S
C1748 C1750 1.363 . S
C1748 H1764 0.931 . S
C1749 C1748 1.370 . S
C1749 C1753 1.408 . S
C1750 C1748 1.363 . S
C1750 C1751 1.370 . S
C1750 C1754 1.524 . S
C1751 C1743 1.503 . S
C1751 C1750 1.370 . S
C1751 C1752 1.403 . S
C1752 C1751 1.403 . S
C1752 C1753 1.404 . S
C1752 C1755 1.539 . S
C1753 C1749 1.408 . S
C1753 C1752 1.404 . S
C1753 H1765 0.930 . S
C1754 C1750 1.524 . S
C1754 H1766 0.956 . S
C1754 H1767 0.961 . S
C1754 H1768 0.961 . S
C1755 C1752 1.539 . S
C1755 H1769 0.958 . S
C1755 H1770 0.961 . S
C1755 H1771 0.960 . S
H1756 C1740 0.931 . S
H1757 C1745 0.929 . S
H1758 C1746 0.960 . S
H1759 C1746 0.962 . S
H1760 C1746 0.960 . S
H1761 C1747 0.961 . S
H1762 C1747 0.961 . S
H1763 C1747 0.961 . S
H1764 C1748 0.931 . S
H1765 C1753 0.930 . S
H1766 C1754 0.956 . S
H1767 C1754 0.961 . S
H1768 C1754 0.961 . S
H1769 C1755 0.958 . S
H1770 C1755 0.961 . S
H1771 C1755 0.960 . S
C1013 C331 0.942 . S
C1005 C15 1.584 . S
C1045 C463 1.259 . S
C1037 C55 1.500 . S
C1077 C349 1.298 . S
C1069 C101 1.546 . S
C1109 C445 0.905 . S
C1101 C141 1.558 . S
C1141 C577 1.206 . S
C1133 C2 1.491 . S
C1173 C691 1.307 . S
C1165 C61 1.522 . S
C1197 C95 1.605 . S
C1205 C831 1.267 . S
C1237 C945 1.121 . S
C1229 C135 1.532 . S
C1269 C559 0.938 . S
C1261 C42 1.442 . S
C1293 C82 1.609 . S
C1301 C673 1.008 . S
C1333 C777 1.246 . S
C1325 C122 1.565 . S
C1365 C891 1.086 . S
C1357 C21 1.375 . S
C1389 C162 1.505 . S
C1397 C489 1.103 . S
C1429 C321 1.060 . S
C1421 C221 1.438 . S
C1453 C255 1.370 . S
C1461 C435 1.084 . S
C1485 C282 1.533 . S
C1493 C375 1.117 . S
C1525 C787 0.965 . S
C1517 C181 1.598 . S
C1557 C901 1.128 . S
C1549 C202 1.578 . S
C1589 C549 0.986 . S
C1581 C242 1.323 . S
C1613 C301 1.540 . S
C1621 C663 1.215 . S
C1653 C805 1.247 . S
C1645 C215 1.473 . S
C1685 C919 1.119 . S
C1677 C261 1.518 . S
C1717 C603 1.159 . S
C1709 C295 1.551 . S
C1741 C175 1.635 . S
C1749 C717 1.150 . S
