# Generated by pormake.
# Topology pth, (4,4)-cn, num edge types: 1
# Building blocks:
#     Node 0, Type 0, BuildingBlock: CEKHIL_clean_sbu_0, # of connection points: 4
#     Node 1, Type 0, BuildingBlock: CEKHIL_clean_sbu_0, # of connection points: 4
#     Node 2, Type 0, BuildingBlock: CEKHIL_clean_sbu_0, # of connection points: 4
#     Node 3, Type 1, BuildingBlock: MUDLON_clean_linker_0, # of connection points: 4
#     Node 4, Type 1, BuildingBlock: MUDLON_clean_linker_0, # of connection points: 4
#     Node 5, Type 1, BuildingBlock: MUDLON_clean_linker_0, # of connection points: 4
#     Edge 6, Type (0, 1), BuildingBlock: TEMPAE_clean_linker_10, # of connection points: 2
#     Edge 7, Type (0, 1), BuildingBlock: TEMPAE_clean_linker_10, # of connection points: 2
#     Edge 8, Type (0, 1), BuildingBlock: TEMPAE_clean_linker_10, # of connection points: 2
#     Edge 9, Type (0, 1), BuildingBlock: TEMPAE_clean_linker_10, # of connection points: 2
#     Edge 10, Type (0, 1), BuildingBlock: TEMPAE_clean_linker_10, # of connection points: 2
#     Edge 11, Type (0, 1), BuildingBlock: TEMPAE_clean_linker_10, # of connection points: 2
#     Edge 12, Type (0, 1), BuildingBlock: TEMPAE_clean_linker_10, # of connection points: 2
#     Edge 13, Type (0, 1), BuildingBlock: TEMPAE_clean_linker_10, # of connection points: 2
#     Edge 14, Type (0, 1), BuildingBlock: TEMPAE_clean_linker_10, # of connection points: 2
#     Edge 15, Type (0, 1), BuildingBlock: TEMPAE_clean_linker_10, # of connection points: 2
#     Edge 16, Type (0, 1), BuildingBlock: TEMPAE_clean_linker_10, # of connection points: 2
#     Edge 17, Type (0, 1), BuildingBlock: TEMPAE_clean_linker_10, # of connection points: 2
# Relax obj value: 0.035
# Max RMSD: 0.091
# Mean RMSD: 0.088
data_MOF--net-pth--node1-CEKHIL_clean_sbu_0--node2-MUDLON_clean_linker_0--edge1-TEMPAE_clean_linker_10
_symmetry_space_group_name_H-M    P1
_symmetry_Int_Tables_number       1
_symmetry_cell_setting            triclinic
loop_
_symmetry_equiv_pos_as_xyz
'x, y, z'
_cell_length_a     33.571051
_cell_length_b     33.675701
_cell_length_c     69.751088
_cell_angle_alpha  90.893435
_cell_angle_beta   90.019183
_cell_angle_gamma 120.30305
loop_
_atom_site_label
_atom_site_type_symbol
_atom_site_fract_x
_atom_site_fract_y
_atom_site_fract_z
_atom_type_partial_charge
Co0 Co 0.00287 0.0171 0.03902 0.0
O1 O 0.97337 0.96816 0.05699 0.0
O2 O 0.03287 0.98074 0.03904 0.0
C3 C 0.00778 0.07301 0.05885 0.0
O4 O 0.04341 0.06526 0.01953 0.0
Co5 Co 0.95314 0.06813 0.02516 0.0
O6 O 0.01275 0.10941 0.01268 0.0
C7 C 0.9223 0.97423 0.01075 0.0
C8 C 0.00335 0.9564 0.05215 0.0
C9 C 0.0448 0.09977 0.01115 0.0
O10 O 0.95837 0.97634 0.01827 0.0
O11 O 0.91184 0.00557 0.01339 0.0
O12 O 0.03832 0.06021 0.05973 0.0
O13 O 0.97337 0.04901 0.04734 0.0
Co14 Co 0.01168 0.01735 0.35585 0.0
O15 O 0.98075 0.03414 0.33721 0.0
O16 O 0.04027 0.08364 0.35509 0.0
C17 C 0.01629 0.96518 0.3368 0.0
O18 O 0.05428 0.01346 0.37577 0.0
Co19 Co 0.96689 0.91829 0.37137 0.0
O20 O 0.02809 0.93965 0.3832 0.0
C21 C 0.93521 0.98074 0.38551 0.0
C22 C 0.01041 0.07664 0.34166 0.0
C23 C 0.05851 0.9822 0.38441 0.0
O24 O 0.9677 0.01425 0.3763 0.0
O25 O 0.92743 0.93943 0.38442 0.0
O26 O 0.04633 0.0087 0.33538 0.0
O27 O 0.9828 0.95494 0.3485 0.0
Co28 Co 0.01201 0.01633 0.68761 0.0
O29 O 0.06124 0.05065 0.67004 0.0
O30 O 0.05249 0.99091 0.68633 0.0
C31 C 0.95506 0.00944 0.66824 0.0
O32 O 0.96453 0.97152 0.70642 0.0
Co33 Co 0.95308 0.0568 0.7034 0.0
O34 O 0.91111 0.99228 0.7111 0.0
C35 C 0.04824 0.09293 0.71776 0.0
C36 C 0.07574 0.02244 0.67379 0.0
C37 C 0.9253 0.96382 0.71281 0.0
O38 O 0.04981 0.0596 0.70922 0.0
O39 O 0.0144 0.10007 0.71587 0.0
O40 O 0.97099 0.98162 0.66619 0.0
O41 O 0.9765 0.04256 0.68061 0.0
H42 H 0.92313 0.69033 0.19544 0.0
N43 N 0.96295 0.63983 0.19018 0.0
H44 H 0.93296 0.74174 0.22213 0.0
H45 H 0.01055 0.64984 0.22447 0.0
H46 H 0.01772 0.69849 0.25155 0.0
H47 H 0.04592 0.71762 0.18392 0.0
H48 H 0.06597 0.76739 0.15616 0.0
H49 H 0.91408 0.62337 0.15808 0.0
H50 H 0.93295 0.67368 0.13054 0.0
H51 H 0.90536 0.54963 0.19148 0.0
H52 H 0.04993 0.6519 0.19184 0.0
H53 H 0.92462 0.48886 0.19383 0.0
H54 H 0.06973 0.59222 0.19534 0.0
H55 H 0.96998 0.32258 0.21676 0.0
H56 H 0.96462 0.27849 0.24501 0.0
H57 H 0.10911 0.37148 0.25724 0.0
H58 H 0.11424 0.41567 0.22876 0.0
H59 H 0.11272 0.38885 0.18307 0.0
H60 H 0.10124 0.33853 0.15529 0.0
H61 H 0.95479 0.2882 0.15678 0.0
H62 H 0.9668 0.33959 0.18429 0.0
H63 H 0.97159 0.39413 0.21732 0.0
H64 H 0.95177 0.45385 0.21431 0.0
H65 H 0.0734 0.53294 0.18 0.0
N66 N 0.04884 0.39578 0.2027 0.0
H67 H 0.09455 0.47422 0.1843 0.0
C68 C 0.96679 0.66666 0.20734 0.0
C69 C 0.94401 0.69202 0.20761 0.0
C70 C 0.9493 0.72115 0.22306 0.0
C71 C 0.97646 0.72473 0.23909 0.0
C72 C 0.99761 0.69776 0.23927 0.0
C73 C 0.99319 0.66937 0.22359 0.0
C74 C 0.97842 0.66661 0.17298 0.0
C75 C 0.02172 0.70711 0.17205 0.0
C76 C 0.03288 0.73583 0.15627 0.0
C77 C 0.00094 0.72478 0.14116 0.0
C78 C 0.95864 0.68305 0.14176 0.0
C79 C 0.94763 0.6543 0.1575 0.0
C80 C 0.97599 0.60516 0.19154 0.0
C81 C 0.94127 0.55888 0.1922 0.0
C82 C 0.95245 0.52428 0.19373 0.0
C83 C 0.99884 0.53536 0.19489 0.0
C84 C 0.03365 0.58201 0.19411 0.0
C85 C 0.0224 0.61644 0.1922 0.0
C86 C 0.0427 0.37272 0.22065 0.0
C87 C 1.00034 0.3342 0.22567 0.0
C88 C 0.99724 0.30901 0.24191 0.0
C89 C 0.03649 0.32144 0.25331 0.0
C90 C 0.07837 0.36089 0.24864 0.0
C91 C 0.08132 0.38628 0.23249 0.0
C92 C 0.04071 0.3675 0.18582 0.0
C93 C 0.07828 0.36727 0.17724 0.0
C94 C 0.07166 0.33875 0.16138 0.0
C95 C 0.02712 0.30949 0.15394 0.0
C96 C 0.98943 0.31021 0.16235 0.0
C97 C 0.99621 0.33936 0.17808 0.0
C98 C 0.03529 0.43005 0.20131 0.0
C99 C 0.99441 0.42445 0.20937 0.0
C100 C 0.98272 0.45864 0.20741 0.0
C101 C 0.01099 0.49865 0.19696 0.0
C102 C 0.05127 0.50341 0.18857 0.0
C103 C 0.06334 0.4697 0.19088 0.0
H104 H 0.7271 0.05178 0.53427 0.0
N105 N 0.63738 0.98322 0.52666 0.0
H106 H 0.7736 0.05676 0.5614 0.0
H107 H 0.60889 0.93478 0.55864 0.0
H108 H 0.6543 0.94269 0.5873 0.0
H109 H 0.64242 0.9184 0.50654 0.0
H110 H 0.68955 0.92845 0.47814 0.0
H111 H 0.68703 0.06294 0.50677 0.0
H112 H 0.73551 0.07347 0.47878 0.0
H113 H 0.64867 0.066 0.53886 0.0
H114 H 0.55079 0.93344 0.5146 0.0
H115 H 0.58905 0.08753 0.53955 0.0
H116 H 0.49144 0.95508 0.5144 0.0
H117 H 0.40822 0.12551 0.56043 0.0
H118 H 0.35854 0.10928 0.58836 0.0
H119 H 0.26648 0.97264 0.56544 0.0
H120 H 0.31508 0.98996 0.53733 0.0
H121 H 0.35066 0.99723 0.5052 0.0
H122 H 0.30237 0.98958 0.47758 0.0
H123 H 0.33198 0.12893 0.48726 0.0
H124 H 0.37995 0.13611 0.51508 0.0
H125 H 0.482 0.12633 0.52141 0.0
H126 H 0.54287 0.10655 0.51996 0.0
H127 H 0.44377 0.96721 0.53566 0.0
N128 N 0.39367 0.07183 0.52983 0.0
H129 H 0.3834 0.98669 0.53622 0.0
C130 C 0.66442 0.99168 0.54399 0.0
C131 C 0.71067 0.02739 0.54557 0.0
C132 C 0.7374 0.03077 0.56152 0.0
C133 C 0.71829 0.99983 0.57675 0.0
C134 C 0.67101 0.96628 0.57571 0.0
C135 C 0.64467 0.96198 0.55942 0.0
C136 C 0.66151 0.98978 0.50883 0.0
C137 C 0.66191 0.9521 0.50029 0.0
C138 C 0.68867 0.95789 0.48411 0.0
C139 C 0.71609 0.00174 0.4764 0.0
C140 C 0.71464 0.03937 0.48454 0.0
C141 C 0.68696 0.03334 0.50047 0.0
C142 C 0.60375 0.99777 0.52691 0.0
C143 C 0.61434 0.04163 0.53362 0.0
C144 C 0.58026 0.05398 0.53383 0.0
C145 C 0.5352 0.02292 0.52715 0.0
C146 C 0.52533 0.97951 0.52006 0.0
C147 C 0.55922 0.96714 0.52003 0.0
C148 C 0.3656 0.05922 0.54681 0.0
C149 C 0.37753 0.09196 0.5616 0.0
C150 C 0.34922 0.08243 0.57759 0.0
C151 C 0.30835 0.03962 0.57917 0.0
C152 C 0.29728 0.0062 0.56459 0.0
C153 C 0.32538 0.01595 0.54853 0.0
C154 C 0.36907 0.06748 0.51223 0.0
C155 C 0.34742 0.02639 0.50125 0.0
C156 C 0.31988 0.0221 0.48539 0.0
C157 C 0.31322 0.05861 0.48028 0.0
C158 C 0.33603 0.10003 0.49096 0.0
C159 C 0.36364 0.10432 0.50674 0.0
C160 C 0.42822 0.05836 0.52902 0.0
C161 C 0.47358 0.09152 0.52445 0.0
C162 C 0.50833 0.0802 0.52379 0.0
C163 C 0.49837 0.03527 0.52775 0.0
C164 C 0.45271 0.00199 0.53225 0.0
C165 C 0.41798 0.01327 0.53276 0.0
H166 H 0.65738 0.7665 0.87391 0.0
N167 N 0.63564 0.6848 0.85947 0.0
H168 H 0.70947 0.8077 0.90091 0.0
H169 H 0.67711 0.65117 0.88242 0.0
H170 H 0.729 0.69202 0.90985 0.0
H171 H 0.70241 0.66937 0.84548 0.0
H172 H 0.75064 0.7063 0.81741 0.0
H173 H 0.62232 0.73361 0.83347 0.0
H174 H 0.67018 0.77067 0.80547 0.0
H175 H 0.55486 0.66944 0.87207 0.0
H176 H 0.6249 0.6005 0.85078 0.0
H177 H 0.48345 0.59571 0.8747 0.0
H178 H 0.55289 0.52623 0.85246 0.0
H179 H 0.2952 0.40281 0.89727 0.0
H180 H 0.26146 0.35548 0.92552 0.0
H181 H 0.31709 0.26971 0.9079 0.0
H182 H 0.35069 0.31749 0.87962 0.0
H183 H 0.3696 0.34463 0.84482 0.0
H184 H 0.32752 0.29272 0.81757 0.0
H185 H 0.21376 0.31592 0.82742 0.0
H186 H 0.25593 0.36739 0.85448 0.0
H187 H 0.35224 0.46813 0.85723 0.0
H188 H 0.42605 0.5394 0.85443 0.0
H189 H 0.49669 0.46918 0.87336 0.0
N190 N 0.33731 0.38718 0.86847 0.0
H191 H 0.42222 0.39732 0.87523 0.0
C192 C 0.66336 0.70596 0.87633 0.0
C193 C 0.67266 0.74999 0.88181 0.0
C194 C 0.70253 0.77346 0.8971 0.0
C195 C 0.72341 0.75308 0.90733 0.0
C196 C 0.71318 0.70834 0.90218 0.0
C197 C 0.68364 0.68504 0.88661 0.0
C198 C 0.65878 0.6988 0.8414 0.0
C199 C 0.69446 0.69038 0.83646 0.0
C200 C 0.72198 0.71154 0.82049 0.0
C201 C 0.7144 0.74172 0.80942 0.0
C202 C 0.6771 0.74801 0.81389 0.0
C203 C 0.64956 0.72666 0.82972 0.0
C204 C 0.59475 0.64041 0.86102 0.0
C205 C 0.55454 0.63819 0.86784 0.0
C206 C 0.51373 0.59601 0.86917 0.0
C207 C 0.51204 0.55489 0.86348 0.0
C208 C 0.5529 0.5571 0.85703 0.0
C209 C 0.59403 0.59955 0.8559 0.0
C210 C 0.32514 0.36355 0.8864 0.0
C211 C 0.30105 0.37451 0.89982 0.0
C212 C 0.28194 0.34747 0.91594 0.0
C213 C 0.28642 0.30867 0.9189 0.0
C214 C 0.3127 0.29911 0.90591 0.0
C215 C 0.33211 0.32648 0.88981 0.0
C216 C 0.31563 0.35972 0.85155 0.0
C217 C 0.33582 0.33879 0.84091 0.0
C218 C 0.31184 0.30928 0.82539 0.0
C219 C 0.26722 0.29998 0.82053 0.0
C220 C 0.24778 0.3219 0.83101 0.0
C221 C 0.27183 0.35148 0.84634 0.0
C222 C 0.38181 0.42786 0.86664 0.0
C223 C 0.38376 0.46824 0.86068 0.0
C224 C 0.42599 0.50897 0.85926 0.0
C225 C 0.46747 0.5104 0.864 0.0
C226 C 0.46553 0.46938 0.86954 0.0
C227 C 0.423 0.42833 0.87077 0.0
C228 C 0.98123 0.12802 0.06796 0.0
C229 C 0.01083 0.11067 0.07108 0.0
C230 C 0.98241 0.16223 0.08014 0.0
C231 C 0.01339 0.17881 0.09596 0.0
C232 C 0.04375 0.16179 0.099 0.0
C233 C 0.04234 0.12819 0.08643 0.0
C234 C 0.95011 0.18016 0.07625 0.0
C235 C 0.07697 0.17825 0.11582 0.0
C236 C 0.04784 0.29187 0.12173 0.0
C237 C 0.02015 0.27678 0.13808 0.0
C238 C 0.04453 0.26053 0.10743 0.0
C239 C 0.01337 0.21295 0.10974 0.0
C240 C 0.98437 0.1977 0.12597 0.0
C241 C 0.98789 0.22989 0.13989 0.0
C242 C 0.07538 0.27819 0.09016 0.0
C243 C 0.95112 0.14721 0.12907 0.0
H244 H 0.95697 0.11473 0.05604 0.0
H245 H 0.0652 0.11479 0.08893 0.0
H246 H 0.92556 0.17134 0.08826 0.0
H247 H 0.9699 0.21822 0.07536 0.0
H248 H 0.93008 0.16569 0.06273 0.0
H249 H 0.09859 0.16189 0.11604 0.0
H250 H 0.10003 0.21609 0.11536 0.0
H251 H 0.05753 0.17048 0.12943 0.0
H252 H 0.0725 0.32822 0.12025 0.0
H253 H 0.96678 0.21816 0.15261 0.0
H254 H 0.05474 0.26413 0.07677 0.0
H255 H 0.10081 0.26637 0.0905 0.0
H256 H 0.09447 0.31635 0.08962 0.0
H257 H 0.92832 0.1316 0.11634 0.0
H258 H 0.92928 0.14124 0.14189 0.0
H259 H 0.97066 0.129 0.13095 0.0
C260 C 0.89722 0.02611 0.39457 0.0
C261 C 0.90544 0.99 0.39822 0.0
C262 C 0.8671 0.03337 0.40615 0.0
C263 C 0.84566 0.00445 0.42194 0.0
C264 C 0.85496 0.96882 0.42597 0.0
C265 C 0.8843 0.96175 0.41395 0.0
C266 C 0.85737 0.07117 0.40124 0.0
C267 C 0.8336 0.93783 0.44291 0.0
C268 C 0.79623 0.03773 0.46395 0.0
C269 C 0.74882 0.00828 0.46093 0.0
C270 C 0.8284 0.03874 0.45083 0.0
C271 C 0.81255 0.01021 0.43416 0.0
C272 C 0.76455 0.98281 0.43044 0.0
C273 C 0.73321 0.9817 0.44402 0.0
C274 C 0.87922 0.06779 0.4555 0.0
C275 C 0.74627 0.95272 0.41263 0.0
H276 H 0.91334 0.04789 0.38236 0.0
H277 H 0.89097 0.93413 0.41697 0.0
H278 H 0.82016 0.05606 0.39781 0.0
H279 H 0.86522 0.09482 0.41374 0.0
H280 H 0.87779 0.09146 0.38882 0.0
H281 H 0.84622 0.91327 0.4446 0.0
H282 H 0.84142 0.95877 0.4563 0.0
H283 H 0.79552 0.91787 0.44117 0.0
H284 H 0.8082 0.05796 0.47714 0.0
H285 H 0.69646 0.95913 0.4417 0.0
H286 H 0.89856 0.08798 0.4429 0.0
H287 H 0.89302 0.04504 0.45917 0.0
H288 H 0.88598 0.09183 0.46778 0.0
H289 H 0.76452 0.97239 0.39975 0.0
H290 H 0.70863 0.93857 0.41058 0.0
H291 H 0.75263 0.92353 0.4137 0.0
C292 C 0.84855 0.89846 0.72155 0.0
C293 C 0.89654 0.92228 0.72403 0.0
C294 C 0.81976 0.86361 0.7341 0.0
C295 C 0.83944 0.8535 0.74991 0.0
C296 C 0.8881 0.87593 0.75191 0.0
C297 C 0.91618 0.90973 0.73875 0.0
C298 C 0.76816 0.8397 0.73113 0.0
C299 C 0.91043 0.86688 0.76876 0.0
C300 C 0.76494 0.81734 0.79427 0.0
C301 C 0.74736 0.76974 0.79433 0.0
C302 C 0.79578 0.84493 0.78017 0.0
C303 C 0.80907 0.82439 0.76556 0.0
C304 C 0.7919 0.77636 0.76564 0.0
C305 C 0.76147 0.74958 0.78016 0.0
C306 C 0.81377 0.89611 0.78082 0.0
C307 C 0.80481 0.7532 0.75017 0.0
H308 H 0.83345 0.90807 0.71006 0.0
H309 H 0.95333 0.9285 0.74075 0.0
H310 H 0.7524 0.80201 0.73275 0.0
H311 H 0.75291 0.85199 0.74218 0.0
H312 H 0.75876 0.84644 0.71676 0.0
H313 H 0.9483 0.88263 0.76699 0.0
H314 H 0.90407 0.88144 0.78201 0.0
H315 H 0.89512 0.82939 0.77084 0.0
H316 H 0.75475 0.83314 0.80543 0.0
H317 H 0.74785 0.71275 0.78019 0.0
H318 H 0.80186 0.90612 0.7679 0.0
H319 H 0.85205 0.91533 0.78072 0.0
H320 H 0.80204 0.90696 0.79372 0.0
H321 H 0.79234 0.7575 0.73605 0.0
H322 H 0.78995 0.71586 0.75268 0.0
H323 H 0.84287 0.76961 0.74931 0.0
C324 C 0.04369 0.91348 0.061 0.0
C325 C 0.00481 0.91863 0.06208 0.0
C326 C 0.04694 0.88076 0.07216 0.0
C327 C 0.01032 0.85246 0.08453 0.0
C328 C 0.97019 0.85623 0.08498 0.0
C329 C 0.96802 0.88933 0.07382 0.0
C330 C 0.09029 0.8778 0.07133 0.0
C331 C 0.93014 0.82646 0.09782 0.0
C332 C 0.99519 0.74357 0.10685 0.0
C333 C 0.00951 0.75843 0.12583 0.0
C334 C 0.99752 0.77432 0.09289 0.0
C335 C 0.01466 0.82104 0.09804 0.0
C336 C 0.0315 0.83673 0.1169 0.0
C337 C 0.02859 0.80526 0.13056 0.0
C338 C 0.97941 0.75631 0.07293 0.0
C339 C 0.05013 0.88629 0.12298 0.0
H340 H 0.07225 0.93611 0.05197 0.0
H341 H 0.9377 0.89286 0.0746 0.0
H342 H 0.10918 0.88996 0.0852 0.0
H343 H 0.08157 0.84159 0.0691 0.0
H344 H 0.11363 0.89893 0.0597 0.0
H345 H 0.90031 0.83162 0.09557 0.0
H346 H 0.91855 0.7896 0.0952 0.0
H347 H 0.94124 0.83452 0.11306 0.0
H348 H 0.98107 0.7076 0.10299 0.0
H349 H 0.0392 0.81707 0.14521 0.0
H350 H 0.00442 0.77875 0.06204 0.0
H351 H 0.94692 0.75667 0.07052 0.0
H352 H 0.97229 0.72059 0.07059 0.0
H353 H 0.07613 0.90971 0.11261 0.0
H354 H 0.06625 0.89398 0.13749 0.0
H355 H 0.02165 0.89398 0.12313 0.0
C356 C 0.09661 0.96607 0.41152 0.0
C357 C 0.09901 0.99587 0.39713 0.0
C358 C 0.13362 0.9785 0.4242 0.0
C359 C 0.17454 0.02154 0.42231 0.0
C360 C 0.17766 0.05151 0.40759 0.0
C361 C 0.13966 0.03851 0.39528 0.0
C362 C 0.12853 0.94584 0.43989 0.0
C363 C 0.22103 0.09735 0.40495 0.0
C364 C 0.24831 0.06713 0.46744 0.0
C365 C 0.28036 0.05253 0.46464 0.0
C366 C 0.21474 0.05874 0.45347 0.0
C367 C 0.21326 0.03536 0.4362 0.0
C368 C 0.2465 0.02192 0.43299 0.0
C369 C 0.27952 0.03046 0.4473 0.0
C370 C 0.17962 0.07316 0.45757 0.0
C371 C 0.24634 0.99734 0.41468 0.0
H372 H 0.06525 0.93321 0.41319 0.0
H373 H 0.14188 0.06159 0.38413 0.0
H374 H 0.15599 0.93682 0.4387 0.0
H375 H 0.13264 0.96274 0.45412 0.0
H376 H 0.09448 0.91357 0.43935 0.0
H377 H 0.21869 0.11582 0.39233 0.0
H378 H 0.22783 0.1194 0.41793 0.0
H379 H 0.25106 0.09236 0.40314 0.0
H380 H 0.24837 0.08367 0.48091 0.0
H381 H 0.30454 0.01958 0.44496 0.0
H382 H 0.14484 0.04217 0.45869 0.0
H383 H 0.17824 0.0938 0.44562 0.0
H384 H 0.18735 0.09368 0.4711 0.0
H385 H 0.21474 0.96287 0.41393 0.0
H386 H 0.27688 0.99287 0.41366 0.0
H387 H 0.2457 0.01667 0.40206 0.0
C388 C 0.11344 0.10845 0.74001 0.0
C389 C 0.08647 0.12379 0.73093 0.0
C390 C 0.14695 0.13613 0.75383 0.0
C391 C 0.15412 0.18041 0.7584 0.0
C392 C 0.12862 0.1969 0.74854 0.0
C393 C 0.09484 0.16825 0.73508 0.0
C394 C 0.17309 0.11716 0.76418 0.0
C395 C 0.1358 0.24422 0.75273 0.0
C396 C 0.19382 0.23338 0.80803 0.0
C397 C 0.24002 0.26675 0.80492 0.0
C398 C 0.16611 0.20387 0.79316 0.0
C399 C 0.18495 0.20799 0.77465 0.0
C400 C 0.23208 0.24052 0.77156 0.0
C401 C 0.25918 0.26945 0.78679 0.0
C402 C 0.11619 0.16928 0.79714 0.0
C403 C 0.25331 0.24605 0.75201 0.0
H404 H 0.10711 0.0741 0.73689 0.0
H405 H 0.07458 0.18056 0.72791 0.0
H406 H 0.21069 0.14216 0.76401 0.0
H407 H 0.16245 0.11146 0.77941 0.0
H408 H 0.16671 0.08405 0.75774 0.0
H409 H 0.11635 0.25347 0.7426 0.0
H410 H 0.12432 0.24564 0.76752 0.0
H411 H 0.17297 0.27051 0.75195 0.0
H412 H 0.17914 0.23069 0.82212 0.0
H413 H 0.29487 0.29534 0.78435 0.0
H414 H 0.10801 0.13439 0.79233 0.0
H415 H 0.09347 0.17811 0.78894 0.0
H416 H 0.10782 0.16821 0.8126 0.0
H417 H 0.24614 0.21225 0.74613 0.0
H418 H 0.29124 0.26991 0.75236 0.0
H419 H 0.23759 0.25965 0.74198 0.0
C420 C 0.91283 0.99152 0.63716 0.0
C421 C 0.9166 0.00502 0.65646 0.0
C422 C 0.87859 0.99047 0.62527 0.0
C423 C 0.84618 0.00125 0.63311 0.0
C424 C 0.84872 0.01301 0.65284 0.0
C425 C 0.88468 0.01584 0.66419 0.0
C426 C 0.87807 0.97929 0.60418 0.0
C427 C 0.81361 0.02268 0.66193 0.0
C428 C 0.78802 0.04245 0.59848 0.0
C429 C 0.74829 0.00106 0.59293 0.0
C430 C 0.81986 0.0431 0.6117 0.0
C431 C 0.81078 0.00174 0.62042 0.0
C432 C 0.76929 0.96044 0.61603 0.0
C433 C 0.73911 0.96036 0.60206 0.0
C434 C 0.86426 0.08774 0.61565 0.0
C435 C 0.75745 0.91593 0.62561 0.0
H436 H 0.93785 0.98355 0.63118 0.0
H437 H 0.8875 0.02601 0.67918 0.0
H438 H 0.84471 0.94844 0.60015 0.0
H439 H 0.88148 0.00823 0.59553 0.0
H440 H 0.90638 0.97276 0.60028 0.0
H441 H 0.81782 0.02685 0.67776 0.0
H442 H 0.81692 0.05457 0.65603 0.0
H443 H 0.77818 0.99426 0.65851 0.0
H444 H 0.79504 0.0745 0.59218 0.0
H445 H 0.70912 0.92789 0.59792 0.0
H446 H 0.89407 0.08399 0.61141 0.0
H447 H 0.86804 0.09632 0.6312 0.0
H448 H 0.86601 0.11697 0.60775 0.0
H449 H 0.78035 0.90347 0.6202 0.0
H450 H 0.7211 0.88864 0.62281 0.0
H451 H 0.76309 0.92138 0.64134 0.0
C452 C 0.84905 0.92748 0.99205 0.0
C453 C 0.8925 0.93502 0.99769 0.0
C454 C 0.82196 0.8933 0.97842 0.0
C455 C 0.83877 0.86609 0.97008 0.0
C456 C 0.8817 0.87212 0.97625 0.0
C457 C 0.90801 0.90644 0.99005 0.0
C458 C 0.77612 0.88764 0.97239 0.0
C459 C 0.90081 0.84384 0.96764 0.0
C460 C 0.75029 0.76125 0.94145 0.0
C461 C 0.75636 0.77944 0.92305 0.0
C462 C 0.7782 0.78843 0.95689 0.0
C463 C 0.81314 0.83452 0.9537 0.0
C464 C 0.82092 0.85204 0.93489 0.0
C465 C 0.79226 0.82436 0.91983 0.0
C466 C 0.76873 0.76863 0.97674 0.0
C467 C 0.8582 0.90076 0.93081 0.0
H468 H 0.83643 0.94892 0.99803 0.0
H469 H 0.94149 0.91189 0.99433 0.0
H470 H 0.77787 0.89798 0.95724 0.0
H471 H 0.74852 0.85105 0.97324 0.0
H472 H 0.76625 0.90876 0.98139 0.0
H473 H 0.93204 0.84914 0.97543 0.0
H474 H 0.87442 0.80671 0.96772 0.0
H475 H 0.91004 0.85346 0.95246 0.0
H476 H 0.72241 0.72653 0.94393 0.0
H477 H 0.79729 0.83818 0.90553 0.0
H478 H 0.75401 0.7856 0.98565 0.0
H479 H 0.80122 0.77542 0.98381 0.0
H480 H 0.74407 0.73096 0.97649 0.0
H481 H 0.84954 0.92526 0.93777 0.0
H482 H 0.86244 0.90769 0.9152 0.0
H483 H 0.8917 0.90773 0.9369 0.0
C484 C 0.99809 0.88477 0.33019 0.0
C485 C 0.0167 0.9301 0.32408 0.0
C486 C 0.99436 0.85012 0.31758 0.0
C487 C 0.00791 0.8609 0.29825 0.0
C488 C 0.02751 0.90691 0.29214 0.0
C489 C 0.03243 0.94115 0.30525 0.0
C490 C 0.97491 0.80184 0.32482 0.0
C491 C 0.04117 0.91959 0.27153 0.0
C492 C 0.02614 0.78106 0.26504 0.0
C493 C 0.98359 0.75741 0.25523 0.0
C494 C 0.03397 0.81354 0.2796 0.0
C495 C 0.99899 0.82376 0.28409 0.0
C496 C 0.95584 0.79974 0.27447 0.0
C497 C 0.94842 0.76639 0.26043 0.0
C498 C 0.08001 0.83757 0.28992 0.0
C499 C 0.91783 0.81015 0.27864 0.0
H500 H 0.98621 0.87637 0.34482 0.0
H501 H 0.04641 0.97619 0.3005 0.0
H502 H 0.94061 0.77896 0.31814 0.0
H503 H 0.99762 0.78807 0.3207 0.0
H504 H 0.97096 0.80028 0.34065 0.0
H505 H 0.05697 0.95712 0.26922 0.0
H506 H 0.06604 0.90885 0.26699 0.0
H507 H 0.01027 0.90107 0.26209 0.0
H508 H 0.05391 0.77511 0.26107 0.0
H509 H 0.91501 0.74762 0.25339 0.0
H510 H 0.07489 0.83569 0.30567 0.0
H511 H 0.09904 0.8745 0.28621 0.0
H512 H 0.10175 0.82243 0.28613 0.0
H513 H 0.90821 0.8042 0.29397 0.0
H514 H 0.88644 0.78871 0.26975 0.0
H515 H 0.9302 0.84693 0.27588 0.0
C516 C 0.1247 0.98885 0.6639 0.0
C517 C 0.11489 0.02465 0.6631 0.0
C518 C 0.15837 0.98856 0.65198 0.0
C519 C 0.18271 0.02497 0.63905 0.0
C520 C 0.17433 0.06215 0.63886 0.0
C521 C 0.14054 0.0615 0.65086 0.0
C522 C 0.16642 0.94838 0.65261 0.0
C523 C 0.19969 0.10181 0.62539 0.0
C524 C 0.2925 0.04812 0.61383 0.0
C525 C 0.27593 0.03114 0.59524 0.0
C526 C 0.26233 0.04442 0.62857 0.0
C527 C 0.21444 0.02305 0.62465 0.0
C528 C 0.19727 0.00382 0.6062 0.0
C529 C 0.22818 0.00831 0.59173 0.0
C530 C 0.28194 0.06522 0.64807 0.0
C531 C 0.1464 0.98057 0.60144 0.0
H532 H 0.10498 0.96027 0.67334 0.0
H533 H 0.13341 0.08947 0.65025 0.0
H534 H 0.15372 0.92794 0.63907 0.0
H535 H 0.20385 0.96069 0.65378 0.0
H536 H 0.14844 0.92542 0.66479 0.0
H537 H 0.19137 0.12947 0.62792 0.0
H538 H 0.2375 0.11678 0.62702 0.0
H539 H 0.19043 0.08924 0.61034 0.0
H540 H 0.32923 0.06508 0.61679 0.0
H541 H 0.21495 0.99557 0.5774 0.0
H542 H 0.26266 0.04027 0.65948 0.0
H543 H 0.27807 0.0957 0.65064 0.0
H544 H 0.31908 0.07618 0.6494 0.0
H545 H 0.12599 0.95447 0.61232 0.0
H546 H 0.13816 0.96348 0.58707 0.0
H547 H 0.13519 0.00643 0.60172 0.0
C548 C 0.07928 0.15539 0.98448 0.0
C549 C 0.0843 0.12899 0.99861 0.0
C550 C 0.11574 0.18322 0.97233 0.0
C551 C 0.15874 0.18543 0.97449 0.0
C552 C 0.16426 0.15907 0.98877 0.0
C553 C 0.1268 0.13079 0.00057 0.0
C554 C 0.1081 0.2102 0.9571 0.0
C555 C 0.20979 0.16104 0.99164 0.0
C556 C 0.23354 0.22879 0.9303 0.0
C557 C 0.25982 0.27615 0.93437 0.0
C558 C 0.20238 0.19828 0.94371 0.0
C559 C 0.19751 0.21553 0.96167 0.0
C560 C 0.22609 0.26285 0.96632 0.0
C561 C 0.25679 0.29262 0.95259 0.0
C562 C 0.1724 0.14814 0.93813 0.0
C563 C 0.22235 0.28253 0.98537 0.0
H564 H 0.04647 0.1539 0.98272 0.0
H565 H 0.131 0.11064 0.01151 0.0
H566 H 0.13231 0.24755 0.95941 0.0
H567 H 0.11528 0.20078 0.94273 0.0
H568 H 0.0723 0.20398 0.95707 0.0
H569 H 0.20852 0.13855 0.00339 0.0
H570 H 0.21986 0.15041 0.97823 0.0
H571 H 0.2372 0.19691 0.99504 0.0
H572 H 0.23533 0.21585 0.91619 0.0
H573 H 0.27747 0.3291 0.9559 0.0
H574 H 0.13636 0.14021 0.93592 0.0
H575 H 0.17204 0.12585 0.94975 0.0
H576 H 0.18421 0.1392 0.92472 0.0
H577 H 0.1891 0.2821 0.98597 0.0
H578 H 0.25083 0.31852 0.98773 0.0
H579 H 0.22264 0.26125 0.99729 0.0
C580 C 0.03675 0.16031 0.33791 0.0
C581 C 0.01185 0.11486 0.3309 0.0
C582 C 0.04033 0.19685 0.32708 0.0
C583 C 0.01943 0.18771 0.30866 0.0
C584 C 0.99365 0.14177 0.30168 0.0
C585 C 0.98978 0.10592 0.31297 0.0
C586 C 0.06721 0.24528 0.33517 0.0
C587 C 0.97147 0.13055 0.28199 0.0
C588 C 0.99762 0.27247 0.28183 0.0
C589 C 0.0345 0.29107 0.26896 0.0
C590 C 0.99339 0.24037 0.29551 0.0
C591 C 0.02645 0.22606 0.29609 0.0
C592 C 0.06448 0.24579 0.28351 0.0
C593 C 0.06815 0.2782 0.27017 0.0
C594 C 0.95277 0.22067 0.30889 0.0
C595 C 0.10016 0.23104 0.28347 0.0
H596 H 0.05363 0.16734 0.35182 0.0
H597 H 0.97068 0.07088 0.30742 0.0
H598 H 0.09845 0.26588 0.32644 0.0
H599 H 0.0461 0.2621 0.33444 0.0
H600 H 0.0781 0.24623 0.35029 0.0
H601 H 0.95174 0.09295 0.27888 0.0
H602 H 0.94774 0.14428 0.28065 0.0
H603 H 0.99842 0.14727 0.27092 0.0
H604 H 0.97176 0.28266 0.28105 0.0
H605 H 0.09639 0.292 0.26009 0.0
H606 H 0.96462 0.22276 0.32392 0.0
H607 H 0.92926 0.18377 0.30529 0.0
H608 H 0.9329 0.23881 0.30798 0.0
H609 H 0.11454 0.23434 0.29811 0.0
H610 H 0.12903 0.25163 0.27357 0.0
H611 H 0.08369 0.19427 0.27904 0.0
loop_
_geom_bond_atom_site_label_1
_geom_bond_atom_site_label_2
_geom_bond_distance
_geom_bond_site_symmetry_2
_ccdc_geom_bond_type
Co0 O1 2.216 1_445 S
Co0 O2 2.091 1_545 S
Co0 O4 2.004 . S
Co0 O10 2.021 1_445 S
Co0 O12 2.137 . S
Co0 O13 2.244 1_455 S
O1 Co0 2.216 1_665 S
O1 C8 1.247 1_655 S
O2 Co0 2.091 1_565 S
O2 C8 1.261 . S
C3 O12 1.247 . S
C3 O13 1.272 1_455 S
O4 Co0 2.004 . S
O4 C9 1.259 . S
Co5 O6 2.045 1_654 S
Co5 O11 2.052 . S
Co5 O13 2.135 . S
O6 Co5 2.045 1_456 S
O6 C9 1.225 1_556 S
C7 O10 1.238 . S
C7 O11 1.241 1_565 S
C8 O1 1.247 1_455 S
C8 O2 1.261 . S
C9 O4 1.259 . S
C9 O6 1.225 1_554 S
O10 Co0 2.021 1_665 S
O10 C7 1.238 . S
O11 Co5 2.052 . S
O11 C7 1.241 1_545 S
O12 Co0 2.137 . S
O12 C3 1.247 . S
O13 Co0 2.244 1_655 S
O13 C3 1.272 1_655 S
O13 Co5 2.135 . S
Co14 O15 2.216 1_455 S
Co14 O16 2.091 . S
Co14 O18 2.004 . S
Co14 O24 2.021 1_455 S
Co14 O26 2.137 . S
Co14 O27 2.244 1_445 S
O15 Co14 2.216 1_655 S
O15 C22 1.247 1_655 S
O16 Co14 2.091 . S
O16 C22 1.261 . S
C17 O26 1.247 1_565 S
C17 O27 1.272 1_455 S
O18 Co14 2.004 . S
O18 C23 1.259 . S
Co19 O20 2.061 1_655 S
Co19 O25 2.052 . S
Co19 O27 2.135 . S
O20 Co19 2.061 1_455 S
O20 C23 1.235 1_565 S
C21 O24 1.238 . S
C21 O25 1.241 1_545 S
C22 O15 1.247 1_455 S
C22 O16 1.261 . S
C23 O18 1.259 . S
C23 O20 1.235 1_545 S
O24 Co14 2.021 1_655 S
O24 C21 1.238 . S
O25 Co19 2.052 . S
O25 C21 1.241 1_565 S
O26 Co14 2.137 . S
O26 C17 1.247 1_545 S
O27 Co14 2.244 1_665 S
O27 C17 1.272 1_655 S
O27 Co19 2.135 . S
Co28 O29 2.216 . S
Co28 O30 2.091 1_545 S
Co28 O32 2.004 1_445 S
Co28 O38 2.021 . S
Co28 O40 2.137 1_445 S
Co28 O41 2.244 1_455 S
O29 Co28 2.216 . S
O29 C36 1.247 . S
O30 Co28 2.091 1_565 S
O30 C36 1.261 1_565 S
C31 O40 1.247 1_545 S
C31 O41 1.272 . S
O32 Co28 2.004 1_665 S
O32 C37 1.259 . S
Co33 O34 2.061 1_545 S
Co33 O39 2.052 1_655 S
Co33 O41 2.135 . S
O34 Co33 2.061 1_565 S
O34 C37 1.235 . S
C35 O38 1.238 . S
C35 O39 1.241 . S
C36 O29 1.247 . S
C36 O30 1.261 1_545 S
C37 O32 1.259 . S
C37 O34 1.235 . S
O38 Co28 2.021 . S
O38 C35 1.238 . S
O39 Co33 2.052 1_455 S
O39 C35 1.241 . S
O40 Co28 2.137 1_665 S
O40 C31 1.247 1_565 S
O41 Co28 2.244 1_655 S
O41 C31 1.272 . S
O41 Co33 2.135 . S
H42 C69 0.929 . S
N43 C68 1.433 . S
N43 C74 1.435 . S
N43 C80 1.423 . S
H44 C70 0.930 . S
H45 C73 0.931 . S
H46 C72 0.929 . S
H47 C75 0.930 . S
H48 C76 0.932 . S
H49 C79 0.929 . S
H50 C78 0.931 . S
H51 C81 0.929 . S
H52 C85 0.932 . S
H53 C82 0.931 . S
H54 C84 0.929 1_455 S
H55 C87 0.929 . S
H56 C88 0.930 . S
H57 C90 0.929 . S
H58 C91 0.931 . S
H59 C93 0.930 . S
H60 C94 0.932 . S
H61 C96 0.931 . S
H62 C97 0.929 . S
H63 C99 0.929 . S
H64 C100 0.931 . S
H65 C102 0.929 1_455 S
N66 C86 1.433 . S
N66 C92 1.435 . S
N66 C98 1.423 . S
H67 C103 0.932 . S
C68 N43 1.433 . S
C68 C69 1.363 . S
C68 C73 1.370 1_655 S
C69 H42 0.929 . S
C69 C68 1.363 . S
C69 C70 1.385 . S
C70 H44 0.930 . S
C70 C69 1.385 . S
C70 C71 1.357 1_655 S
C71 C70 1.357 1_455 S
C71 C72 1.406 . S
C72 H46 0.929 . S
C72 C71 1.406 . S
C72 C73 1.391 . S
C73 H45 0.931 . S
C73 C68 1.370 1_455 S
C73 C72 1.391 . S
C74 N43 1.435 . S
C74 C75 1.358 1_655 S
C74 C79 1.371 . S
C75 H47 0.930 . S
C75 C74 1.358 1_455 S
C75 C76 1.405 . S
C76 H48 0.932 . S
C76 C75 1.405 . S
C76 C77 1.383 . S
C77 C76 1.383 . S
C77 C78 1.393 1_455 S
C78 H50 0.931 . S
C78 C77 1.393 1_655 S
C78 C79 1.382 . S
C79 H49 0.929 . S
C79 C74 1.371 . S
C79 C78 1.382 . S
C80 N43 1.423 . S
C80 C81 1.362 . S
C80 C85 1.388 1_655 S
C81 H51 0.929 . S
C81 C80 1.362 . S
C81 C82 1.376 . S
C82 H53 0.931 . S
C82 C81 1.376 . S
C82 C83 1.396 . S
C83 C82 1.396 . S
C83 C84 1.348 . S
C83 C101 1.472 . S
C84 H54 0.929 1_655 S
C84 C83 1.348 . S
C84 C85 1.443 1_655 S
C85 H52 0.932 . S
C85 C80 1.388 1_455 S
C85 C84 1.443 1_455 S
C86 N66 1.433 . S
C86 C87 1.363 . S
C86 C91 1.370 1_655 S
C87 H55 0.929 . S
C87 C86 1.363 . S
C87 C88 1.385 . S
C88 H56 0.930 . S
C88 C87 1.385 . S
C88 C89 1.357 1_655 S
C89 C88 1.357 1_455 S
C89 C90 1.406 . S
C90 H57 0.929 . S
C90 C89 1.406 . S
C90 C91 1.391 . S
C91 H58 0.931 . S
C91 C86 1.370 1_455 S
C91 C90 1.391 . S
C92 N66 1.435 . S
C92 C93 1.358 1_655 S
C92 C97 1.371 . S
C93 H59 0.930 . S
C93 C92 1.358 1_455 S
C93 C94 1.405 . S
C94 H60 0.932 . S
C94 C93 1.405 . S
C94 C95 1.383 . S
C95 C94 1.383 . S
C95 C96 1.393 1_455 S
C96 H61 0.931 . S
C96 C95 1.393 1_655 S
C96 C97 1.382 . S
C97 H62 0.929 . S
C97 C92 1.371 . S
C97 C96 1.382 . S
C98 N66 1.423 . S
C98 C99 1.362 . S
C98 C103 1.388 1_655 S
C99 H63 0.929 . S
C99 C98 1.362 . S
C99 C100 1.376 . S
C100 H64 0.931 . S
C100 C99 1.376 . S
C100 C101 1.396 . S
C101 C83 1.472 . S
C101 C100 1.396 . S
C101 C102 1.348 . S
C102 H65 0.929 1_655 S
C102 C101 1.348 . S
C102 C103 1.443 1_655 S
C103 H67 0.932 . S
C103 C98 1.388 1_455 S
C103 C102 1.443 1_455 S
H104 C131 0.929 . S
N105 C130 1.433 . S
N105 C136 1.435 . S
N105 C142 1.423 . S
H106 C132 0.930 . S
H107 C135 0.931 1_565 S
H108 C134 0.929 . S
H109 C137 0.930 . S
H110 C138 0.932 . S
H111 C141 0.929 . S
H112 C140 0.931 . S
H113 C143 0.929 . S
H114 C147 0.932 1_565 S
H115 C144 0.931 . S
H116 C146 0.929 . S
H117 C149 0.929 . S
H118 C150 0.930 . S
H119 C152 0.929 . S
H120 C153 0.932 1_565 S
H121 C155 0.930 . S
H122 C156 0.932 . S
H123 C158 0.931 . S
H124 C159 0.929 . S
H125 C161 0.929 . S
H126 C162 0.931 . S
H127 C164 0.929 . S
N128 C148 1.433 . S
N128 C154 1.435 . S
N128 C160 1.423 . S
H129 C165 0.932 1_565 S
C130 N105 1.433 . S
C130 C131 1.363 . S
C130 C135 1.370 . S
C131 H104 0.929 . S
C131 C130 1.363 . S
C131 C132 1.385 . S
C132 H106 0.930 . S
C132 C131 1.385 . S
C132 C133 1.357 . S
C133 C132 1.357 . S
C133 C134 1.406 1_545 S
C134 H108 0.929 . S
C134 C133 1.406 1_565 S
C134 C135 1.392 1_565 S
C135 H107 0.931 1_545 S
C135 C130 1.370 . S
C135 C134 1.392 1_545 S
C136 N105 1.435 . S
C136 C137 1.358 1_545 S
C136 C141 1.371 . S
C137 H109 0.930 . S
C137 C136 1.358 1_565 S
C137 C138 1.405 . S
C138 H110 0.932 . S
C138 C137 1.405 . S
C138 C139 1.383 1_565 S
C139 C138 1.383 1_545 S
C139 C140 1.393 . S
C140 H112 0.931 . S
C140 C139 1.393 . S
C140 C141 1.382 . S
C141 H111 0.929 . S
C141 C136 1.371 . S
C141 C140 1.382 . S
C142 N105 1.423 . S
C142 C143 1.362 . S
C142 C147 1.388 . S
C143 H113 0.929 . S
C143 C142 1.362 . S
C143 C144 1.376 . S
C144 H115 0.931 . S
C144 C143 1.376 . S
C144 C145 1.396 . S
C145 C144 1.396 . S
C145 C146 1.348 . S
C145 C163 1.472 . S
C146 H116 0.929 . S
C146 C145 1.348 . S
C146 C147 1.443 . S
C147 H114 0.932 1_545 S
C147 C142 1.388 . S
C147 C146 1.443 . S
C148 N128 1.433 . S
C148 C149 1.363 . S
C148 C153 1.369 . S
C149 H117 0.929 . S
C149 C148 1.363 . S
C149 C150 1.385 . S
C150 H118 0.930 . S
C150 C149 1.385 . S
C150 C151 1.357 . S
C151 C150 1.357 . S
C151 C152 1.406 1_545 S
C152 H119 0.929 . S
C152 C151 1.406 1_565 S
C152 C153 1.391 1_565 S
C153 H120 0.932 1_545 S
C153 C148 1.369 . S
C153 C152 1.391 1_545 S
C154 N128 1.435 . S
C154 C155 1.358 1_545 S
C154 C159 1.371 . S
C155 H121 0.930 . S
C155 C154 1.358 1_565 S
C155 C156 1.405 . S
C156 H122 0.932 . S
C156 C155 1.405 . S
C156 C157 1.383 1_565 S
C157 C156 1.383 1_545 S
C157 C158 1.393 . S
C158 H123 0.931 . S
C158 C157 1.393 . S
C158 C159 1.382 . S
C159 H124 0.929 . S
C159 C154 1.371 . S
C159 C158 1.382 . S
C160 N128 1.423 . S
C160 C161 1.362 . S
C160 C165 1.388 . S
C161 H125 0.929 . S
C161 C160 1.362 . S
C161 C162 1.376 . S
C162 H126 0.931 . S
C162 C161 1.376 . S
C162 C163 1.396 . S
C163 C145 1.472 . S
C163 C162 1.396 . S
C163 C164 1.348 . S
C164 H127 0.929 . S
C164 C163 1.348 . S
C164 C165 1.443 . S
C165 H129 0.932 1_545 S
C165 C160 1.388 . S
C165 C164 1.443 . S
H166 C193 0.929 . S
N167 C192 1.433 . S
N167 C198 1.435 . S
N167 C204 1.423 . S
H168 C194 0.930 . S
H169 C197 0.931 . S
H170 C196 0.929 . S
H171 C199 0.930 . S
H172 C200 0.932 . S
H173 C203 0.929 . S
H174 C202 0.931 . S
H175 C205 0.929 . S
H176 C209 0.932 . S
H177 C206 0.931 . S
H178 C208 0.929 . S
H179 C211 0.929 . S
H180 C212 0.930 . S
H181 C214 0.929 . S
H182 C215 0.931 . S
H183 C217 0.930 . S
H184 C218 0.932 . S
H185 C220 0.931 . S
H186 C221 0.929 . S
H187 C223 0.929 . S
H188 C224 0.931 . S
H189 C226 0.929 . S
N190 C210 1.433 . S
N190 C216 1.435 . S
N190 C222 1.423 . S
H191 C227 0.932 . S
C192 N167 1.433 . S
C192 C193 1.363 . S
C192 C197 1.370 . S
C193 H166 0.929 . S
C193 C192 1.363 . S
C193 C194 1.385 . S
C194 H168 0.930 . S
C194 C193 1.385 . S
C194 C195 1.357 . S
C195 C194 1.357 . S
C195 C196 1.406 . S
C196 H170 0.929 . S
C196 C195 1.406 . S
C196 C197 1.391 . S
C197 H169 0.931 . S
C197 C192 1.370 . S
C197 C196 1.391 . S
C198 N167 1.435 . S
C198 C199 1.358 . S
C198 C203 1.371 . S
C199 H171 0.930 . S
C199 C198 1.358 . S
C199 C200 1.405 . S
C200 H172 0.932 . S
C200 C199 1.405 . S
C200 C201 1.383 . S
C201 C200 1.383 . S
C201 C202 1.393 . S
C202 H174 0.931 . S
C202 C201 1.393 . S
C202 C203 1.382 . S
C203 H173 0.929 . S
C203 C198 1.371 . S
C203 C202 1.382 . S
C204 N167 1.423 . S
C204 C205 1.362 . S
C204 C209 1.388 . S
C205 H175 0.929 . S
C205 C204 1.362 . S
C205 C206 1.376 . S
C206 H177 0.931 . S
C206 C205 1.376 . S
C206 C207 1.396 . S
C207 C206 1.396 . S
C207 C208 1.348 . S
C207 C225 1.472 . S
C208 H178 0.929 . S
C208 C207 1.348 . S
C208 C209 1.443 . S
C209 H176 0.932 . S
C209 C204 1.388 . S
C209 C208 1.443 . S
C210 N190 1.433 . S
C210 C211 1.363 . S
C210 C215 1.370 . S
C211 H179 0.929 . S
C211 C210 1.363 . S
C211 C212 1.385 . S
C212 H180 0.930 . S
C212 C211 1.385 . S
C212 C213 1.357 . S
C213 C212 1.357 . S
C213 C214 1.406 . S
C214 H181 0.929 . S
C214 C213 1.406 . S
C214 C215 1.391 . S
C215 H182 0.931 . S
C215 C210 1.370 . S
C215 C214 1.391 . S
C216 N190 1.435 . S
C216 C217 1.358 . S
C216 C221 1.371 . S
C217 H183 0.930 . S
C217 C216 1.358 . S
C217 C218 1.405 . S
C218 H184 0.932 . S
C218 C217 1.405 . S
C218 C219 1.383 . S
C219 C218 1.383 . S
C219 C220 1.393 . S
C220 H185 0.931 . S
C220 C219 1.393 . S
C220 C221 1.382 . S
C221 H186 0.929 . S
C221 C216 1.371 . S
C221 C220 1.382 . S
C222 N190 1.423 . S
C222 C223 1.362 . S
C222 C227 1.388 . S
C223 H187 0.929 . S
C223 C222 1.362 . S
C223 C224 1.376 . S
C224 H188 0.931 . S
C224 C223 1.376 . S
C224 C225 1.396 . S
C225 C207 1.472 . S
C225 C224 1.396 . S
C225 C226 1.348 . S
C226 H189 0.929 . S
C226 C225 1.348 . S
C226 C227 1.443 . S
C227 H191 0.932 . S
C227 C222 1.388 . S
C227 C226 1.443 . S
C228 C229 1.391 1_655 S
C228 C230 1.394 . S
C228 H244 0.931 . S
C229 C228 1.391 1_455 S
C229 C233 1.376 . S
C230 C228 1.394 . S
C230 C231 1.369 . S
C230 C234 1.531 . S
C231 C230 1.369 . S
C231 C232 1.410 1_655 S
C231 C239 1.504 . S
C232 C231 1.410 1_455 S
C232 C233 1.392 . S
C232 C235 1.511 . S
C233 C229 1.376 . S
C233 C232 1.392 . S
C233 H245 0.929 . S
C234 C230 1.531 . S
C234 H246 0.960 . S
C234 H247 0.962 . S
C234 H248 0.960 . S
C235 C232 1.511 . S
C235 H249 0.961 . S
C235 H250 0.961 . S
C235 H251 0.961 . S
C236 C237 1.370 . S
C236 C238 1.363 . S
C236 H252 0.931 . S
C237 C236 1.370 . S
C237 C241 1.408 1_455 S
C238 C236 1.363 . S
C238 C239 1.370 1_455 S
C238 C242 1.524 . S
C239 C231 1.504 . S
C239 C238 1.370 1_655 S
C239 C240 1.402 . S
C240 C239 1.402 . S
C240 C241 1.404 . S
C240 C243 1.539 . S
C241 C237 1.408 1_655 S
C241 C240 1.404 . S
C241 H253 0.930 . S
C242 C238 1.524 . S
C242 H254 0.956 . S
C242 H255 0.961 . S
C242 H256 0.961 . S
C243 C240 1.539 . S
C243 H257 0.958 . S
C243 H258 0.961 . S
C243 H259 0.960 . S
H244 C228 0.931 . S
H245 C233 0.929 . S
H246 C234 0.960 . S
H247 C234 0.962 . S
H248 C234 0.960 . S
H249 C235 0.961 . S
H250 C235 0.961 . S
H251 C235 0.961 . S
H252 C236 0.931 . S
H253 C241 0.930 . S
H254 C242 0.956 . S
H255 C242 0.961 . S
H256 C242 0.961 . S
H257 C243 0.958 . S
H258 C243 0.961 . S
H259 C243 0.960 . S
C260 C261 1.391 . S
C260 C262 1.394 . S
C260 H276 0.931 . S
C261 C260 1.391 . S
C261 C265 1.376 1_545 S
C262 C260 1.394 . S
C262 C263 1.369 . S
C262 C266 1.531 . S
C263 C262 1.369 . S
C263 C264 1.410 1_545 S
C263 C271 1.503 . S
C264 C263 1.410 1_565 S
C264 C265 1.392 . S
C264 C267 1.511 . S
C265 C261 1.376 1_565 S
C265 C264 1.392 . S
C265 H277 0.929 . S
C266 C262 1.531 . S
C266 H278 0.960 . S
C266 H279 0.962 . S
C266 H280 0.960 . S
C267 C264 1.511 . S
C267 H281 0.961 . S
C267 H282 0.961 . S
C267 H283 0.961 . S
C268 C269 1.370 . S
C268 C270 1.363 . S
C268 H284 0.931 . S
C269 C268 1.370 . S
C269 C273 1.408 1_545 S
C270 C268 1.363 . S
C270 C271 1.370 . S
C270 C274 1.524 . S
C271 C263 1.503 . S
C271 C270 1.370 . S
C271 C272 1.403 1_545 S
C272 C271 1.403 1_565 S
C272 C273 1.404 . S
C272 C275 1.539 . S
C273 C269 1.408 1_565 S
C273 C272 1.404 . S
C273 H285 0.930 . S
C274 C270 1.524 . S
C274 H286 0.956 . S
C274 H287 0.961 . S
C274 H288 0.961 . S
C275 C272 1.539 . S
C275 H289 0.958 . S
C275 H290 0.961 . S
C275 H291 0.960 . S
H276 C260 0.931 . S
H277 C265 0.929 . S
H278 C266 0.960 . S
H279 C266 0.962 . S
H280 C266 0.960 . S
H281 C267 0.961 . S
H282 C267 0.961 . S
H283 C267 0.961 . S
H284 C268 0.931 . S
H285 C273 0.930 . S
H286 C274 0.956 . S
H287 C274 0.961 . S
H288 C274 0.961 . S
H289 C275 0.958 . S
H290 C275 0.961 . S
H291 C275 0.960 . S
C292 C293 1.391 . S
C292 C294 1.394 . S
C292 H308 0.931 . S
C293 C292 1.391 . S
C293 C297 1.376 . S
C294 C292 1.394 . S
C294 C295 1.369 . S
C294 C298 1.531 . S
C295 C294 1.369 . S
C295 C296 1.410 . S
C295 C303 1.503 . S
C296 C295 1.410 . S
C296 C297 1.392 . S
C296 C299 1.511 . S
C297 C293 1.376 . S
C297 C296 1.392 . S
C297 H309 0.929 . S
C298 C294 1.531 . S
C298 H310 0.960 . S
C298 H311 0.962 . S
C298 H312 0.960 . S
C299 C296 1.511 . S
C299 H313 0.961 . S
C299 H314 0.961 . S
C299 H315 0.961 . S
C300 C301 1.370 . S
C300 C302 1.363 . S
C300 H316 0.931 . S
C301 C300 1.370 . S
C301 C305 1.408 . S
C302 C300 1.363 . S
C302 C303 1.370 . S
C302 C306 1.524 . S
C303 C295 1.503 . S
C303 C302 1.370 . S
C303 C304 1.403 . S
C304 C303 1.403 . S
C304 C305 1.404 . S
C304 C307 1.539 . S
C305 C301 1.408 . S
C305 C304 1.404 . S
C305 H317 0.930 . S
C306 C302 1.524 . S
C306 H318 0.956 . S
C306 H319 0.961 . S
C306 H320 0.961 . S
C307 C304 1.539 . S
C307 H321 0.958 . S
C307 H322 0.961 . S
C307 H323 0.960 . S
H308 C292 0.931 . S
H309 C297 0.929 . S
H310 C298 0.960 . S
H311 C298 0.962 . S
H312 C298 0.960 . S
H313 C299 0.961 . S
H314 C299 0.961 . S
H315 C299 0.961 . S
H316 C300 0.931 . S
H317 C305 0.930 . S
H318 C306 0.956 . S
H319 C306 0.961 . S
H320 C306 0.961 . S
H321 C307 0.958 . S
H322 C307 0.961 . S
H323 C307 0.960 . S
C324 C325 1.391 . S
C324 C326 1.394 . S
C324 H340 0.931 . S
C325 C324 1.391 . S
C325 C329 1.376 1_455 S
C326 C324 1.394 . S
C326 C327 1.369 . S
C326 C330 1.531 . S
C327 C326 1.369 . S
C327 C328 1.410 1_455 S
C327 C335 1.503 . S
C328 C327 1.410 1_655 S
C328 C329 1.392 . S
C328 C331 1.511 . S
C329 C325 1.376 1_655 S
C329 C328 1.392 . S
C329 H341 0.929 . S
C330 C326 1.531 . S
C330 H342 0.960 . S
C330 H343 0.962 . S
C330 H344 0.960 . S
C331 C328 1.511 . S
C331 H345 0.961 . S
C331 H346 0.961 . S
C331 H347 0.961 . S
C332 C333 1.370 . S
C332 C334 1.363 . S
C332 H348 0.931 . S
C333 C332 1.370 . S
C333 C337 1.415 . S
C334 C332 1.363 . S
C334 C335 1.370 . S
C334 C338 1.524 . S
C335 C327 1.503 . S
C335 C334 1.370 . S
C335 C336 1.403 . S
C336 C335 1.403 . S
C336 C337 1.399 . S
C336 C339 1.539 1_455 S
C337 C333 1.415 . S
C337 C336 1.399 . S
C337 H349 0.928 1_455 S
C338 C334 1.524 . S
C338 H350 0.956 . S
C338 H351 0.961 1_455 S
C338 H352 0.961 . S
C339 C336 1.539 1_655 S
C339 H353 0.958 1_655 S
C339 H354 0.961 . S
C339 H355 0.960 . S
H340 C324 0.931 . S
H341 C329 0.929 . S
H342 C330 0.960 . S
H343 C330 0.962 . S
H344 C330 0.960 . S
H345 C331 0.961 . S
H346 C331 0.961 . S
H347 C331 0.961 . S
H348 C332 0.931 . S
H349 C337 0.928 1_655 S
H350 C338 0.956 . S
H351 C338 0.961 1_655 S
H352 C338 0.961 . S
H353 C339 0.958 1_455 S
H354 C339 0.961 . S
H355 C339 0.960 . S
C356 C357 1.393 . S
C356 C358 1.390 1_545 S
C356 H372 0.932 1_545 S
C357 C356 1.393 . S
C357 C361 1.376 . S
C358 C356 1.390 1_565 S
C358 C359 1.369 1_565 S
C358 C362 1.531 . S
C359 C358 1.369 1_545 S
C359 C360 1.410 . S
C359 C367 1.503 . S
C360 C359 1.410 . S
C360 C361 1.392 . S
C360 C363 1.511 . S
C361 C357 1.376 . S
C361 C360 1.392 . S
C361 H373 0.929 . S
C362 C358 1.531 . S
C362 H374 0.960 . S
C362 H375 0.962 . S
C362 H376 0.960 . S
C363 C360 1.511 . S
C363 H377 0.961 . S
C363 H378 0.961 . S
C363 H379 0.961 . S
C364 C365 1.370 . S
C364 C366 1.363 . S
C364 H380 0.931 . S
C365 C364 1.370 . S
C365 C369 1.408 1_545 S
C366 C364 1.363 . S
C366 C367 1.370 . S
C366 C370 1.524 . S
C367 C359 1.503 . S
C367 C366 1.370 . S
C367 C368 1.403 1_545 S
C368 C367 1.403 1_565 S
C368 C369 1.404 . S
C368 C371 1.539 . S
C369 C365 1.408 1_565 S
C369 C368 1.404 . S
C369 H381 0.930 . S
C370 C366 1.524 . S
C370 H382 0.956 . S
C370 H383 0.961 . S
C370 H384 0.961 . S
C371 C368 1.539 . S
C371 H385 0.958 . S
C371 H386 0.961 . S
C371 H387 0.960 . S
H372 C356 0.932 1_565 S
H373 C361 0.929 . S
H374 C362 0.960 . S
H375 C362 0.962 . S
H376 C362 0.960 . S
H377 C363 0.961 . S
H378 C363 0.961 . S
H379 C363 0.961 . S
H380 C364 0.931 . S
H381 C369 0.930 . S
H382 C370 0.956 . S
H383 C370 0.961 . S
H384 C370 0.961 . S
H385 C371 0.958 . S
H386 C371 0.961 . S
H387 C371 0.960 . S
C388 C389 1.391 . S
C388 C390 1.394 . S
C388 H404 0.931 . S
C389 C388 1.391 . S
C389 C393 1.376 . S
C390 C388 1.394 . S
C390 C391 1.369 . S
C390 C394 1.531 . S
C391 C390 1.369 . S
C391 C392 1.410 . S
C391 C399 1.503 . S
C392 C391 1.410 . S
C392 C393 1.392 . S
C392 C395 1.511 . S
C393 C389 1.376 . S
C393 C392 1.392 . S
C393 H405 0.929 . S
C394 C390 1.531 . S
C394 H406 0.960 . S
C394 H407 0.962 . S
C394 H408 0.960 . S
C395 C392 1.511 . S
C395 H409 0.961 . S
C395 H410 0.961 . S
C395 H411 0.961 . S
C396 C397 1.370 . S
C396 C398 1.363 . S
C396 H412 0.931 . S
C397 C396 1.370 . S
C397 C401 1.408 . S
C398 C396 1.363 . S
C398 C399 1.370 . S
C398 C402 1.524 . S
C399 C391 1.503 . S
C399 C398 1.370 . S
C399 C400 1.403 . S
C400 C399 1.403 . S
C400 C401 1.404 . S
C400 C403 1.539 . S
C401 C397 1.408 . S
C401 C400 1.404 . S
C401 H413 0.930 . S
C402 C398 1.524 . S
C402 H414 0.956 . S
C402 H415 0.961 . S
C402 H416 0.961 . S
C403 C400 1.539 . S
C403 H417 0.958 . S
C403 H418 0.961 . S
C403 H419 0.960 . S
H404 C388 0.931 . S
H405 C393 0.929 . S
H406 C394 0.960 . S
H407 C394 0.962 . S
H408 C394 0.960 . S
H409 C395 0.961 . S
H410 C395 0.961 . S
H411 C395 0.961 . S
H412 C396 0.931 . S
H413 C401 0.930 . S
H414 C402 0.956 . S
H415 C402 0.961 . S
H416 C402 0.961 . S
H417 C403 0.958 . S
H418 C403 0.961 . S
H419 C403 0.960 . S
C420 C421 1.386 1_565 S
C420 C422 1.386 . S
C420 H436 0.944 . S
C421 C420 1.386 1_545 S
C421 C425 1.376 . S
C422 C420 1.386 . S
C422 C423 1.369 1_565 S
C422 C426 1.531 . S
C423 C422 1.369 1_545 S
C423 C424 1.410 . S
C423 C431 1.503 . S
C424 C423 1.410 . S
C424 C425 1.392 . S
C424 C427 1.511 . S
C425 C421 1.376 . S
C425 C424 1.392 . S
C425 H437 0.929 . S
C426 C422 1.531 . S
C426 H438 0.960 . S
C426 H439 0.962 1_565 S
C426 H440 0.960 . S
C427 C424 1.511 . S
C427 H441 0.961 . S
C427 H442 0.961 . S
C427 H443 0.961 1_545 S
C428 C429 1.370 . S
C428 C430 1.363 . S
C428 H444 0.931 . S
C429 C428 1.370 . S
C429 C433 1.408 1_545 S
C430 C428 1.363 . S
C430 C431 1.370 . S
C430 C434 1.524 . S
C431 C423 1.503 . S
C431 C430 1.370 . S
C431 C432 1.403 1_545 S
C432 C431 1.403 1_565 S
C432 C433 1.404 . S
C432 C435 1.539 . S
C433 C429 1.408 1_565 S
C433 C432 1.404 . S
C433 H445 0.930 . S
C434 C430 1.524 . S
C434 H446 0.956 . S
C434 H447 0.961 . S
C434 H448 0.961 . S
C435 C432 1.539 . S
C435 H449 0.958 . S
C435 H450 0.961 . S
C435 H451 0.960 . S
H436 C420 0.944 . S
H437 C425 0.929 . S
H438 C426 0.960 . S
H439 C426 0.962 1_545 S
H440 C426 0.960 . S
H441 C427 0.961 . S
H442 C427 0.961 . S
H443 C427 0.961 1_565 S
H444 C428 0.931 . S
H445 C433 0.930 . S
H446 C434 0.956 . S
H447 C434 0.961 . S
H448 C434 0.961 . S
H449 C435 0.958 . S
H450 C435 0.961 . S
H451 C435 0.960 . S
C452 C453 1.391 . S
C452 C454 1.394 . S
C452 H468 0.931 . S
C453 C452 1.391 . S
C453 C457 1.376 . S
C454 C452 1.394 . S
C454 C455 1.369 . S
C454 C458 1.531 . S
C455 C454 1.369 . S
C455 C456 1.410 . S
C455 C463 1.503 . S
C456 C455 1.410 . S
C456 C457 1.392 . S
C456 C459 1.511 . S
C457 C453 1.376 . S
C457 C456 1.392 . S
C457 H469 0.929 . S
C458 C454 1.531 . S
C458 H470 0.960 . S
C458 H471 0.962 . S
C458 H472 0.960 . S
C459 C456 1.511 . S
C459 H473 0.961 . S
C459 H474 0.961 . S
C459 H475 0.961 . S
C460 C461 1.370 . S
C460 C462 1.363 . S
C460 H476 0.931 . S
C461 C460 1.370 . S
C461 C465 1.408 . S
C462 C460 1.363 . S
C462 C463 1.370 . S
C462 C466 1.524 . S
C463 C455 1.503 . S
C463 C462 1.370 . S
C463 C464 1.403 . S
C464 C463 1.403 . S
C464 C465 1.404 . S
C464 C467 1.539 . S
C465 C461 1.408 . S
C465 C464 1.404 . S
C465 H477 0.930 . S
C466 C462 1.524 . S
C466 H478 0.956 . S
C466 H479 0.961 . S
C466 H480 0.961 . S
C467 C464 1.539 . S
C467 H481 0.958 . S
C467 H482 0.961 . S
C467 H483 0.960 . S
H468 C452 0.931 . S
H469 C457 0.929 . S
H470 C458 0.960 . S
H471 C458 0.962 . S
H472 C458 0.960 . S
H473 C459 0.961 . S
H474 C459 0.961 . S
H475 C459 0.961 . S
H476 C460 0.931 . S
H477 C465 0.930 . S
H478 C466 0.956 . S
H479 C466 0.961 . S
H480 C466 0.961 . S
H481 C467 0.958 . S
H482 C467 0.961 . S
H483 C467 0.960 . S
C484 C485 1.391 1_655 S
C484 C486 1.394 . S
C484 H500 0.931 . S
C485 C484 1.391 1_455 S
C485 C489 1.376 . S
C486 C484 1.394 . S
C486 C487 1.369 . S
C486 C490 1.531 . S
C487 C486 1.369 . S
C487 C488 1.410 1_655 S
C487 C495 1.503 1_655 S
C488 C487 1.410 1_455 S
C488 C489 1.392 . S
C488 C491 1.511 . S
C489 C485 1.376 . S
C489 C488 1.392 . S
C489 H501 0.929 . S
C490 C486 1.531 . S
C490 H502 0.960 . S
C490 H503 0.962 1_655 S
C490 H504 0.960 . S
C491 C488 1.511 . S
C491 H505 0.961 . S
C491 H506 0.961 . S
C491 H507 0.961 1_455 S
C492 C493 1.370 . S
C492 C494 1.363 . S
C492 H508 0.931 . S
C493 C492 1.370 . S
C493 C497 1.408 1_455 S
C494 C492 1.363 . S
C494 C495 1.370 . S
C494 C498 1.524 . S
C495 C487 1.503 1_455 S
C495 C494 1.370 . S
C495 C496 1.403 1_455 S
C496 C495 1.403 1_655 S
C496 C497 1.404 . S
C496 C499 1.539 . S
C497 C493 1.408 1_655 S
C497 C496 1.404 . S
C497 H509 0.930 . S
C498 C494 1.524 . S
C498 H510 0.956 . S
C498 H511 0.961 . S
C498 H512 0.961 . S
C499 C496 1.539 . S
C499 H513 0.958 . S
C499 H514 0.961 . S
C499 H515 0.960 . S
H500 C484 0.931 . S
H501 C489 0.929 . S
H502 C490 0.960 . S
H503 C490 0.962 1_455 S
H504 C490 0.960 . S
H505 C491 0.961 . S
H506 C491 0.961 . S
H507 C491 0.961 1_655 S
H508 C492 0.931 . S
H509 C497 0.930 . S
H510 C498 0.956 . S
H511 C498 0.961 . S
H512 C498 0.961 . S
H513 C499 0.958 . S
H514 C499 0.961 . S
H515 C499 0.960 . S
C516 C517 1.391 1_565 S
C516 C518 1.394 . S
C516 H532 0.931 . S
C517 C516 1.391 1_545 S
C517 C521 1.376 . S
C518 C516 1.394 . S
C518 C519 1.369 1_565 S
C518 C522 1.531 . S
C519 C518 1.369 1_545 S
C519 C520 1.410 . S
C519 C527 1.503 . S
C520 C519 1.410 . S
C520 C521 1.392 . S
C520 C523 1.511 . S
C521 C517 1.376 . S
C521 C520 1.392 . S
C521 H533 0.929 . S
C522 C518 1.531 . S
C522 H534 0.960 . S
C522 H535 0.962 . S
C522 H536 0.960 . S
C523 C520 1.511 . S
C523 H537 0.961 . S
C523 H538 0.961 . S
C523 H539 0.961 . S
C524 C525 1.370 . S
C524 C526 1.363 . S
C524 H540 0.931 . S
C525 C524 1.370 . S
C525 C529 1.408 1_545 S
C526 C524 1.363 . S
C526 C527 1.370 . S
C526 C530 1.524 . S
C527 C519 1.503 . S
C527 C526 1.370 . S
C527 C528 1.403 1_545 S
C528 C527 1.403 1_565 S
C528 C529 1.404 . S
C528 C531 1.539 . S
C529 C525 1.408 1_565 S
C529 C528 1.404 . S
C529 H541 0.930 . S
C530 C526 1.524 . S
C530 H542 0.956 . S
C530 H543 0.961 . S
C530 H544 0.961 . S
C531 C528 1.539 . S
C531 H545 0.958 . S
C531 H546 0.961 . S
C531 H547 0.960 . S
H532 C516 0.931 . S
H533 C521 0.929 . S
H534 C522 0.960 . S
H535 C522 0.962 . S
H536 C522 0.960 . S
H537 C523 0.961 . S
H538 C523 0.961 . S
H539 C523 0.961 . S
H540 C524 0.931 . S
H541 C529 0.930 . S
H542 C530 0.956 . S
H543 C530 0.961 . S
H544 C530 0.961 . S
H545 C531 0.958 . S
H546 C531 0.961 . S
H547 C531 0.960 . S
C548 C549 1.391 . S
C548 C550 1.394 . S
C548 H564 0.931 . S
C549 C548 1.391 . S
C549 C553 1.376 . S
C550 C548 1.394 . S
C550 C551 1.369 . S
C550 C554 1.531 . S
C551 C550 1.369 . S
C551 C552 1.410 . S
C551 C559 1.503 . S
C552 C551 1.410 . S
C552 C553 1.392 . S
C552 C555 1.511 . S
C553 C549 1.376 . S
C553 C552 1.392 . S
C553 H565 0.929 1_556 S
C554 C550 1.531 . S
C554 H566 0.960 . S
C554 H567 0.962 . S
C554 H568 0.960 . S
C555 C552 1.511 . S
C555 H569 0.961 1_556 S
C555 H570 0.961 . S
C555 H571 0.961 1_556 S
C556 C557 1.370 . S
C556 C558 1.363 . S
C556 H572 0.931 . S
C557 C556 1.370 . S
C557 C561 1.408 . S
C558 C556 1.363 . S
C558 C559 1.370 . S
C558 C562 1.524 . S
C559 C551 1.503 . S
C559 C558 1.370 . S
C559 C560 1.403 . S
C560 C559 1.403 . S
C560 C561 1.404 . S
C560 C563 1.539 . S
C561 C557 1.408 . S
C561 C560 1.404 . S
C561 H573 0.930 . S
C562 C558 1.524 . S
C562 H574 0.956 . S
C562 H575 0.961 . S
C562 H576 0.961 . S
C563 C560 1.539 . S
C563 H577 0.958 . S
C563 H578 0.961 . S
C563 H579 0.960 . S
H564 C548 0.931 . S
H565 C553 0.929 1_554 S
H566 C554 0.960 . S
H567 C554 0.962 . S
H568 C554 0.960 . S
H569 C555 0.961 1_554 S
H570 C555 0.961 . S
H571 C555 0.961 1_554 S
H572 C556 0.931 . S
H573 C561 0.930 . S
H574 C562 0.956 . S
H575 C562 0.961 . S
H576 C562 0.961 . S
H577 C563 0.958 . S
H578 C563 0.961 . S
H579 C563 0.960 . S
C580 C581 1.391 . S
C580 C582 1.394 . S
C580 H596 0.931 1_455 S
C581 C580 1.391 . S
C581 C585 1.376 . S
C582 C580 1.394 . S
C582 C583 1.369 . S
C582 C586 1.531 1_455 S
C583 C582 1.369 . S
C583 C584 1.410 . S
C583 C591 1.503 . S
C584 C583 1.410 . S
C584 C585 1.392 . S
C584 C587 1.511 . S
C585 C581 1.376 . S
C585 C584 1.392 . S
C585 H597 0.929 . S
C586 C582 1.531 1_655 S
C586 H598 0.960 . S
C586 H599 0.962 . S
C586 H600 0.960 . S
C587 C584 1.511 . S
C587 H601 0.961 . S
C587 H602 0.961 . S
C587 H603 0.961 . S
C588 C589 1.370 1_655 S
C588 C590 1.363 . S
C588 H604 0.931 . S
C589 C588 1.370 1_455 S
C589 C593 1.408 . S
C590 C588 1.363 . S
C590 C591 1.370 1_655 S
C590 C594 1.524 . S
C591 C583 1.503 . S
C591 C590 1.370 1_455 S
C591 C592 1.403 . S
C592 C591 1.403 . S
C592 C593 1.404 . S
C592 C595 1.539 . S
C593 C589 1.408 . S
C593 C592 1.404 . S
C593 H605 0.930 . S
C594 C590 1.524 . S
C594 H606 0.956 . S
C594 H607 0.961 . S
C594 H608 0.961 . S
C595 C592 1.539 . S
C595 H609 0.958 . S
C595 H610 0.961 . S
C595 H611 0.960 . S
H596 C580 0.931 1_655 S
H597 C585 0.929 . S
H598 C586 0.960 . S
H599 C586 0.962 . S
H600 C586 0.960 . S
H601 C587 0.961 . S
H602 C587 0.961 . S
H603 C587 0.961 . S
H604 C588 0.931 . S
H605 C593 0.930 . S
H606 C594 0.956 . S
H607 C594 0.961 . S
H608 C594 0.961 . S
H609 C595 0.958 . S
H610 C595 0.961 . S
H611 C595 0.960 . S
C237 C95 1.391 . S
C229 C3 1.395 . S
C261 C21 1.420 . S
C269 C139 1.444 . S
C293 C37 1.425 . S
C301 C201 1.423 . S
C325 C8 1.406 . S
C333 C77 1.403 . S
C365 C157 1.428 . S
C357 C23 1.391 . S
C389 C35 1.427 . S
C397 C219 1.431 . S
C429 C133 1.608 . S
C421 C31 1.685 . S
C453 C7 1.707 1_556 S
C461 C195 1.626 . S
C493 C71 1.608 . S
C485 C17 1.720 . S
C525 C151 1.589 . S
C517 C36 1.705 . S
C557 C213 1.647 . S
C549 C9 1.689 1_556 S
C581 C22 1.721 . S
C589 C89 1.633 . S
