# Generated by pormake.
# Topology rtl, (3,6)-cn, num edge types: 1
# Building blocks:
#     Node 0, Type 0, BuildingBlock: VETTIZ_charged_linker_0, # of connection points: 3
#     Node 1, Type 0, BuildingBlock: VETTIZ_charged_linker_0, # of connection points: 3
#     Node 2, Type 0, BuildingBlock: VETTIZ_charged_linker_0, # of connection points: 3
#     Node 3, Type 0, BuildingBlock: VETTIZ_charged_linker_0, # of connection points: 3
#     Node 4, Type 1, BuildingBlock: FUNLAD_clean_sbu_0, # of connection points: 6
#     Node 5, Type 1, BuildingBlock: FUNLAD_clean_sbu_0, # of connection points: 6
#     Edge 6, Type (0, 1), BuildingBlock: AJUNOK_clean_linker_0, # of connection points: 2
#     Edge 7, Type (0, 1), BuildingBlock: AJUNOK_clean_linker_0, # of connection points: 2
#     Edge 8, Type (0, 1), BuildingBlock: AJUNOK_clean_linker_0, # of connection points: 2
#     Edge 9, Type (0, 1), BuildingBlock: AJUNOK_clean_linker_0, # of connection points: 2
#     Edge 10, Type (0, 1), BuildingBlock: AJUNOK_clean_linker_0, # of connection points: 2
#     Edge 11, Type (0, 1), BuildingBlock: AJUNOK_clean_linker_0, # of connection points: 2
#     Edge 12, Type (0, 1), BuildingBlock: AJUNOK_clean_linker_0, # of connection points: 2
#     Edge 13, Type (0, 1), BuildingBlock: AJUNOK_clean_linker_0, # of connection points: 2
#     Edge 14, Type (0, 1), BuildingBlock: AJUNOK_clean_linker_0, # of connection points: 2
#     Edge 15, Type (0, 1), BuildingBlock: AJUNOK_clean_linker_0, # of connection points: 2
#     Edge 16, Type (0, 1), BuildingBlock: AJUNOK_clean_linker_0, # of connection points: 2
#     Edge 17, Type (0, 1), BuildingBlock: AJUNOK_clean_linker_0, # of connection points: 2
# Relax obj value: 0.027
# Max RMSD: 0.109
# Mean RMSD: 0.090
data_MOF--net-rtl--node1-FUNLAD_clean_sbu_0--node2-VETTIZ_charged_linker_0--edge1-AJUNOK_clean_linker_0
_symmetry_space_group_name_H-M    P1
_symmetry_Int_Tables_number       1
_symmetry_cell_setting            triclinic
loop_
_symmetry_equiv_pos_as_xyz
'x, y, z'
_cell_length_a     39.46213
_cell_length_b     31.437577
_cell_length_c     22.162167
_cell_angle_alpha  89.883727
_cell_angle_beta   90.799638
_cell_angle_gamma 90.334428
loop_
_atom_site_label
_atom_site_type_symbol
_atom_site_fract_x
_atom_site_fract_y
_atom_site_fract_z
_atom_type_partial_charge
C0 C 0.08734 0.82737 0.81577 0.0
C1 C 0.05878 0.85387 0.81306 0.0
C2 C 0.04087 0.86229 0.86614 0.0
C3 C 0.08121 0.82074 0.92419 0.0
C4 C 0.09794 0.81089 0.87173 0.0
C5 C 0.12804 0.78263 0.88349 0.0
H6 H 0.2378 0.6944 0.0844 0.0
C7 C 0.10024 0.80195 0.97529 0.0
C8 C 0.12755 0.77922 0.95198 0.0
H9 H 0.2356 0.68107 0.89021 0.0
H10 H 0.18461 0.7228 0.88408 0.0
H11 H 0.21699 0.79171 0.08905 0.0
H12 H 0.15518 0.67837 0.09988 0.0
H13 H 0.14248 0.71415 0.15617 0.0
H14 H 0.18497 0.69348 0.15811 0.0
H15 H 0.2168 0.75865 0.15518 0.0
H16 H 0.1861 0.80031 0.1439 0.0
C17 C 0.16014 0.80604 0.86115 0.0
C18 C 0.12125 0.73911 0.85261 0.0
C19 C 0.06688 0.84093 0.18753 0.0
C20 C 0.08209 0.83461 0.24433 0.0
C21 C 0.11171 0.80995 0.24897 0.0
C22 C 0.126 0.79187 0.1973 0.0
C23 C 0.11075 0.7992 0.14043 0.0
C24 C 0.08163 0.82332 0.13653 0.0
C25 C 0.06997 0.83048 0.07267 0.0
C26 C 0.09666 0.80632 0.03852 0.0
C27 C 0.12043 0.78782 0.0782 0.0
C28 C 0.07135 0.87907 0.05981 0.0
C29 C 0.03439 0.8099 0.06472 0.0
C30 C 0.22617 0.70028 0.04063 0.0
C31 C 0.24123 0.68535 0.98758 0.0
C32 C 0.22514 0.69339 0.93154 0.0
C33 C 0.19537 0.71734 0.92807 0.0
C34 C 0.1813 0.73329 0.9812 0.0
C35 C 0.19622 0.72394 0.03641 0.0
C36 C 0.17689 0.74248 0.08815 0.0
C37 C 0.14788 0.76422 0.05479 0.0
C38 C 0.15099 0.75932 0.99207 0.0
C39 C 0.20027 0.77482 0.12138 0.0
C40 C 0.16428 0.70542 0.12821 0.0
H41 H 0.0375 0.85408 0.96051 0.0
H42 H 0.10131 0.82016 0.77536 0.0
H43 H 0.09364 0.73295 0.84608 0.0
H44 H 0.13034 0.71205 0.88037 0.0
H45 H 0.1331 0.7377 0.8075 0.0
H46 H 0.16022 0.83975 0.87637 0.0
H47 H 0.16109 0.80598 0.81108 0.0
H48 H 0.1839 0.79224 0.87886 0.0
H49 H 0.04468 0.86084 0.18248 0.0
H50 H 0.12394 0.80507 0.29248 0.0
H51 H 0.14867 0.77359 0.20345 0.0
H52 H 0.09156 0.89494 0.0873 0.0
H53 H 0.04696 0.89453 0.07073 0.0
H54 H 0.07793 0.88676 0.01277 0.0
H55 H 0.03235 0.78012 0.09172 0.0
H56 H 0.02888 0.80002 0.01775 0.0
H57 H 0.0142 0.83172 0.07993 0.0
H58 H 0.019 0.88297 0.86505 0.0
C59 C 0.05184 0.84576 0.92159 0.0
C60 C 0.58646 0.68682 0.70657 0.0
C61 C 0.55837 0.65919 0.70968 0.0
C62 C 0.53909 0.65087 0.65708 0.0
C63 C 0.57815 0.69297 0.59827 0.0
C64 C 0.59586 0.70337 0.65044 0.0
C65 C 0.626 0.73149 0.63805 0.0
H66 H 0.72968 0.82319 0.43356 0.0
C67 C 0.59634 0.71153 0.54678 0.0
C68 C 0.62419 0.73462 0.56963 0.0
H69 H 0.73703 0.82945 0.62814 0.0
H70 H 0.68532 0.78856 0.63651 0.0
H71 H 0.71242 0.72748 0.42787 0.0
H72 H 0.64673 0.8362 0.42262 0.0
H73 H 0.63331 0.80046 0.36584 0.0
H74 H 0.67534 0.82302 0.36327 0.0
H75 H 0.70599 0.75784 0.36012 0.0
H76 H 0.67857 0.71386 0.37953 0.0
C77 C 0.65832 0.70811 0.66026 0.0
C78 C 0.62015 0.77509 0.66854 0.0
C79 C 0.56142 0.66833 0.33487 0.0
C80 C 0.57618 0.67473 0.27836 0.0
C81 C 0.60469 0.70158 0.27363 0.0
C82 C 0.61861 0.72141 0.32501 0.0
C83 C 0.60418 0.71361 0.3817 0.0
C84 C 0.57587 0.68775 0.38572 0.0
C85 C 0.56505 0.68083 0.44966 0.0
C86 C 0.59163 0.70668 0.48362 0.0
C87 C 0.61441 0.72588 0.4437 0.0
C88 C 0.5677 0.63252 0.46361 0.0
C89 C 0.52909 0.69964 0.45668 0.0
C90 C 0.72004 0.81585 0.47794 0.0
C91 C 0.73719 0.82994 0.53022 0.0
C92 C 0.72388 0.81972 0.58718 0.0
C93 C 0.69401 0.79566 0.59195 0.0
C94 C 0.67745 0.78124 0.53923 0.0
C95 C 0.69037 0.7917 0.48345 0.0
C96 C 0.66986 0.77294 0.43232 0.0
C97 C 0.64213 0.75014 0.46657 0.0
C98 C 0.64684 0.75479 0.52917 0.0
C99 C 0.69271 0.74158 0.39762 0.0
C100 C 0.65561 0.80987 0.39344 0.0
H101 H 0.53355 0.65924 0.5628 0.0
H102 H 0.60126 0.69445 0.74667 0.0
H103 H 0.59271 0.78305 0.66908 0.0
H104 H 0.6321 0.80173 0.64396 0.0
H105 H 0.62953 0.77501 0.71602 0.0
H106 H 0.6568 0.67368 0.64887 0.0
H107 H 0.66146 0.71077 0.71 0.0
H108 H 0.68164 0.71975 0.6388 0.0
H109 H 0.53998 0.64698 0.33986 0.0
H110 H 0.61642 0.7067 0.23029 0.0
H111 H 0.64051 0.74124 0.31879 0.0
H112 H 0.58966 0.61826 0.44019 0.0
H113 H 0.54453 0.61524 0.44826 0.0
H114 H 0.57233 0.62543 0.51174 0.0
H115 H 0.52537 0.72774 0.42675 0.0
H116 H 0.52457 0.71174 0.50268 0.0
H117 H 0.50919 0.67587 0.4447 0.0
H118 H 0.5173 0.62978 0.65855 0.0
C119 C 0.54875 0.66773 0.60146 0.0
C120 C 0.91279 0.17798 0.19506 0.0
C121 C 0.9417 0.15208 0.19818 0.0
C122 C 0.96002 0.14415 0.1454 0.0
C123 C 0.91963 0.18528 0.08688 0.0
C124 C 0.90242 0.19456 0.13904 0.0
C125 C 0.8722 0.22253 0.12695 0.0
H126 H 0.76847 0.32064 0.92455 0.0
C127 C 0.90107 0.20465 0.03567 0.0
C128 C 0.8735 0.22704 0.05867 0.0
H129 H 0.76286 0.32137 0.11922 0.0
H130 H 0.81343 0.2789 0.12639 0.0
H131 H 0.851 0.33273 0.91625 0.0
H132 H 0.78591 0.22209 0.91463 0.0
H133 H 0.81813 0.21321 0.86248 0.0
H134 H 0.78919 0.25673 0.8505 0.0
H135 H 0.8223 0.32073 0.85492 0.0
H136 H 0.86421 0.29835 0.85858 0.0
C137 C 0.8783 0.26559 0.1594 0.0
C138 C 0.84004 0.19825 0.14728 0.0
C139 C 0.93536 0.16693 0.8234 0.0
C140 C 0.92069 0.17455 0.76647 0.0
C141 C 0.89274 0.20213 0.76161 0.0
C142 C 0.87888 0.22063 0.81331 0.0
C143 C 0.89296 0.21107 0.8704 0.0
C144 C 0.92104 0.18509 0.87446 0.0
C145 C 0.93191 0.17668 0.93846 0.0
C146 C 0.90553 0.20152 0.97248 0.0
C147 C 0.88278 0.2217 0.93261 0.0
C148 C 0.96801 0.19549 0.948 0.0
C149 C 0.92897 0.12806 0.94997 0.0
C150 C 0.77826 0.31168 0.96866 0.0
C151 C 0.76199 0.32493 0.02142 0.0
C152 C 0.77539 0.31247 0.07799 0.0
C153 C 0.80462 0.28749 0.08205 0.0
C154 C 0.82054 0.27439 0.02898 0.0
C155 C 0.80743 0.28663 0.97348 0.0
C156 C 0.82753 0.26917 0.92195 0.0
C157 C 0.85524 0.24526 0.95576 0.0
C158 C 0.85079 0.24813 0.01845 0.0
C159 C 0.84197 0.30702 0.88546 0.0
C160 C 0.80415 0.2389 0.8849 0.0
H161 H 0.96394 0.15286 0.05121 0.0
H162 H 0.89846 0.18477 0.23521 0.0
H163 H 0.84139 0.16416 0.1342 0.0
H164 H 0.81655 0.21019 0.12589 0.0
H165 H 0.83736 0.19964 0.19706 0.0
H166 H 0.90581 0.27345 0.16242 0.0
H167 H 0.86846 0.2648 0.2061 0.0
H168 H 0.86692 0.2927 0.13476 0.0
H169 H 0.9566 0.14545 0.8285 0.0
H170 H 0.8813 0.20875 0.71791 0.0
H171 H 0.85732 0.24088 0.80697 0.0
H172 H 0.97219 0.22372 0.91858 0.0
H173 H 0.98777 0.17178 0.9372 0.0
H174 H 0.97238 0.20744 0.99439 0.0
H175 H 0.90666 0.11439 0.92544 0.0
H176 H 0.92479 0.11979 -0.00234 0.0
H177 H 0.95185 0.11119 0.93418 0.0
H178 H 0.98214 0.1239 0.14679 0.0
C179 C 0.94923 0.16074 0.08988 0.0
C180 C 0.41288 0.32423 0.31247 0.0
C181 C 0.44203 0.35 0.30899 0.0
C182 C 0.46165 0.35757 0.36141 0.0
C183 C 0.42209 0.31646 0.42042 0.0
C184 C 0.4036 0.30741 0.36857 0.0
C185 C 0.37344 0.27931 0.38117 0.0
H186 H 0.27288 0.18334 0.58696 0.0
C187 C 0.4046 0.29689 0.47189 0.0
C188 C 0.37637 0.27439 0.44933 0.0
H189 H 0.26145 0.18249 0.39275 0.0
H190 H 0.31368 0.22246 0.38319 0.0
H191 H 0.35508 0.16823 0.59174 0.0
H192 H 0.29163 0.27893 0.59648 0.0
H193 H 0.32597 0.28947 0.64518 0.0
H194 H 0.29785 0.24558 0.66138 0.0
H195 H 0.32897 0.18115 0.65473 0.0
H196 H 0.37132 0.20234 0.64817 0.0
C197 C 0.37836 0.23645 0.34812 0.0
C198 C 0.34102 0.30361 0.36193 0.0
C199 C 0.44129 0.33743 0.68398 0.0
C200 C 0.42712 0.32976 0.74067 0.0
C201 C 0.40018 0.30043 0.74565 0.0
C202 C 0.38641 0.28065 0.69415 0.0
C203 C 0.39953 0.29069 0.63714 0.0
C204 C 0.42702 0.31792 0.63299 0.0
C205 C 0.43696 0.32617 0.56886 0.0
C206 C 0.4104 0.30016 0.535 0.0
C207 C 0.38853 0.27955 0.57511 0.0
C208 C 0.47318 0.30857 0.55984 0.0
C209 C 0.43328 0.37456 0.5566 0.0
C210 C 0.28157 0.19196 0.54239 0.0
C211 C 0.26286 0.18037 0.49056 0.0
C212 C 0.27545 0.1912 0.43331 0.0
C213 C 0.30566 0.21456 0.4279 0.0
C214 C 0.32341 0.22731 0.48031 0.0
C215 C 0.31149 0.21549 0.53629 0.0
C216 C 0.33316 0.23247 0.58714 0.0
C217 C 0.36038 0.25593 0.5525 0.0
C218 C 0.35444 0.25309 0.48995 0.0
C219 C 0.34786 0.19427 0.62288 0.0
C220 C 0.31122 0.26301 0.62504 0.0
H221 H 0.46765 0.34833 0.45537 0.0
H222 H 0.39758 0.31766 0.27256 0.0
H223 H 0.34282 0.33754 0.37585 0.0
H224 H 0.3179 0.29122 0.38328 0.0
H225 H 0.33733 0.30281 0.31216 0.0
H226 H 0.40569 0.22821 0.34552 0.0
H227 H 0.36809 0.23783 0.30124 0.0
H228 H 0.36666 0.20934 0.37205 0.0
H229 H 0.46189 0.36005 0.67896 0.0
H230 H 0.38927 0.29366 0.78923 0.0
H231 H 0.36545 0.25929 0.70053 0.0
H232 H 0.47875 0.28187 0.59143 0.0
H233 H 0.49272 0.33358 0.56785 0.0
H234 H 0.47657 0.29483 0.51439 0.0
H235 H 0.41023 0.38717 0.57855 0.0
H236 H 0.43004 0.38256 0.50846 0.0
H237 H 0.45548 0.3925 0.57483 0.0
H238 H 0.48403 0.37765 0.35969 0.0
C239 C 0.45195 0.34078 0.41698 0.0
C240 C 0.02628 0.94341 0.42838 0.0
N241 N 0.07136 0.04996 0.51063 0.0
C242 C 0.10044 0.02716 0.51661 0.0
C243 C 0.13192 0.04767 0.51535 0.0
C244 C 0.1334 0.092 0.50801 0.0
C245 C 0.10302 0.11467 0.50184 0.0
C246 C 0.07214 0.09295 0.50353 0.0
Zn247 Zn 0.02555 0.01956 0.50879 0.0
C248 C 0.98136 0.0535 0.40906 0.0
N249 N 0.9295 0.95736 0.50126 0.0
C250 C 0.92793 0.91453 0.50982 0.0
C251 C 0.90088 0.98095 0.49479 0.0
C252 C 0.86904 0.96162 0.49805 0.0
C253 C 0.86668 0.91767 0.50855 0.0
C254 C 0.89661 0.89395 0.51362 0.0
Zn255 Zn 0.97548 0.98724 0.50285 0.0
O256 O 0.04488 0.97333 0.44899 0.0
C257 C 0.0196 0.95325 0.60258 0.0
O258 O 0.99537 0.94154 0.44349 0.0
H259 H 0.90271 0.01495 0.48793 0.0
H260 H 0.09922 0.99298 0.52189 0.0
H261 H 0.951 0.89639 0.51484 0.0
O262 O 0.04019 0.98111 0.58302 0.0
O263 O 0.99064 0.94949 0.57742 0.0
H264 H 0.04875 0.11042 0.49839 0.0
O265 O 0.95617 0.03319 0.56195 0.0
O266 O 0.00541 0.06541 0.56884 0.0
O267 O 0.96091 0.02546 0.42852 0.0
O268 O 0.01028 0.05746 0.4343 0.0
C269 C 0.97433 0.06327 0.583 0.0
H270 H 0.15484 0.02913 0.52024 0.0
H271 H 0.10312 0.14876 0.49471 0.0
H272 H 0.84653 0.98087 0.49247 0.0
H273 H 0.89581 0.85997 0.52176 0.0
C274 C 0.47602 0.44497 0.92683 0.0
N275 N 0.57221 0.45828 0.00813 0.0
C276 C 0.5733 0.41518 0.01354 0.0
C277 C 0.60434 0.39411 0.01478 0.0
C278 C 0.63459 0.41756 0.01035 0.0
C279 C 0.63273 0.46194 0.00389 0.0
C280 C 0.60113 0.48177 0.00318 0.0
Zn281 Zn 0.5262 0.48802 0.00811 0.0
C282 C 0.52147 0.55595 0.91631 0.0
N283 N 0.42981 0.5493 0.00912 0.0
C284 C 0.40019 0.52689 0.00789 0.0
C285 C 0.42996 0.59259 0.00879 0.0
C286 C 0.39961 0.61502 0.00638 0.0
C287 C 0.36868 0.5928 0.00321 0.0
C288 C 0.36915 0.54814 0.00487 0.0
Zn289 Zn 0.47557 0.51888 0.00936 0.0
O290 O 0.50671 0.44329 0.94487 0.0
C291 C 0.48064 0.45084 0.10128 0.0
O292 O 0.45711 0.47435 0.94619 0.0
H293 H 0.45372 0.60988 0.00988 0.0
H294 H 0.55003 0.39708 0.01726 0.0
H295 H 0.40062 0.4925 0.00847 0.0
O296 O 0.51014 0.44867 0.07938 0.0
O297 O 0.46 0.47828 0.08037 0.0
H298 H 0.59972 0.51598 -0.00128 0.0
O299 O 0.4948 0.56275 0.07288 0.0
O300 O 0.54493 0.53325 0.07123 0.0
O301 O 0.49194 0.55898 0.93805 0.0
O302 O 0.54146 0.52786 0.93712 0.0
C303 C 0.52542 0.56189 0.09107 0.0
H304 H 0.6047 0.35984 0.01998 0.0
H305 H 0.65542 0.4811 -0.00097 0.0
H306 H 0.40036 0.64946 0.00689 0.0
H307 H 0.34583 0.52985 0.00265 0.0
C308 C 0.22297 0.12122 0.4621 0.0
C309 C 0.22986 0.15801 0.49622 0.0
C310 C 0.1919 0.09969 0.46683 0.0
C311 C 0.16652 0.11442 0.50544 0.0
H312 H 0.24182 0.10883 0.43182 0.0
H313 H 0.1875 0.07168 0.43935 0.0
S314 S 0.17202 0.20929 0.60443 0.0
N315 N 0.20866 0.20851 0.56943 0.0
N316 N 0.1506 0.16753 0.57924 0.0
C317 C 0.17316 0.15106 0.53996 0.0
C318 C 0.20476 0.17294 0.53519 0.0
C319 C 0.27832 0.62836 0.03201 0.0
C320 C 0.2738 0.66189 0.99052 0.0
C321 C 0.3089 0.60583 0.03541 0.0
C322 C 0.33617 0.61622 -0.00224 0.0
H323 H 0.25797 0.61925 0.06179 0.0
H324 H 0.31137 0.5805 0.06835 0.0
S325 S 0.33725 0.70121 0.8813 0.0
N326 N 0.29938 0.70467 0.91154 0.0
N327 N 0.35634 0.66157 0.91664 0.0
C328 C 0.33189 0.6495 0.95585 0.0
C329 C 0.30085 0.67246 0.95251 0.0
C330 C 0.79508 0.83782 0.4872 0.0
C331 C 0.7697 0.85346 0.52506 0.0
C332 C 0.82628 0.85885 0.48204 0.0
C333 C 0.83322 0.89644 0.51431 0.0
H334 H 0.79098 0.80874 0.46191 0.0
H335 H 0.84506 0.84569 0.45228 0.0
S336 S 0.77521 0.95072 0.61925 0.0
N337 N 0.75332 0.90918 0.59458 0.0
N338 N 0.81233 0.94824 0.58599 0.0
C339 C 0.80804 0.91253 0.55221 0.0
C340 C 0.77624 0.89109 0.55744 0.0
C341 C 0.70365 0.33706 0.97917 0.0
C342 C 0.73038 0.35028 0.01753 0.0
C343 C 0.67292 0.35917 0.97682 0.0
C344 C 0.6678 0.39553 0.01242 0.0
H345 H 0.70625 0.30886 0.95163 0.0
H346 H 0.65298 0.3477 0.94684 0.0
S347 S 0.73019 0.44399 0.11903 0.0
N348 N 0.75018 0.40284 0.09042 0.0
N349 N 0.69216 0.44389 0.087 0.0
C350 C 0.6945 0.40945 0.05035 0.0
C351 C 0.72579 0.38691 0.05275 0.0
C352 C 0.08904 0.8858 0.3295 0.0
C353 C 0.06836 0.85713 0.29711 0.0
C354 C 0.07533 0.91281 0.37296 0.0
C355 C 0.04044 0.91194 0.38586 0.0
H356 H 0.11571 0.88878 0.31922 0.0
H357 H 0.09214 0.93525 0.39548 0.0
S358 S 0.97634 0.83892 0.31735 0.0
N359 N 0.01205 0.82687 0.2836 0.0
N360 N 0.98607 0.87728 0.36545 0.0
C361 C 0.01984 0.88175 0.35572 0.0
C362 C 0.03384 0.85448 0.31127 0.0
C363 C 0.51693 0.63532 0.78721 0.0
C364 C 0.55034 0.63625 0.76612 0.0
C365 C 0.50802 0.61006 0.83671 0.0
C366 C 0.53213 0.58437 0.86653 0.0
H367 H 0.49741 0.6538 0.76465 0.0
H368 H 0.48182 0.60996 0.85069 0.0
S369 S 0.62342 0.57648 0.82939 0.0
N370 N 0.60782 0.61015 0.77913 0.0
N371 N 0.59131 0.56279 0.87237 0.0
C372 C 0.56588 0.58585 0.84664 0.0
C373 C 0.57493 0.61179 0.79644 0.0
C374 C 0.92819 0.10455 0.28486 0.0
C375 C 0.95165 0.13069 0.25513 0.0
C376 C 0.93797 0.08006 0.33494 0.0
C377 C 0.97153 0.08108 0.35744 0.0
H378 H 0.90235 0.10192 0.26803 0.0
H379 H 0.9191 0.0598 0.35565 0.0
S380 S 0.04186 0.14741 0.29789 0.0
N381 N 0.00921 0.15826 0.2532 0.0
N382 N 0.02782 0.11252 0.34754 0.0
C383 C 0.99495 0.10836 0.32916 0.0
C384 C 0.98497 0.13305 0.27792 0.0
C385 C 0.47335 0.35893 0.80701 0.0
C386 C 0.43862 0.35551 0.79289 0.0
C387 C 0.48514 0.38714 0.85152 0.0
C388 C 0.46263 0.41342 0.88291 0.0
H389 H 0.49159 0.34017 0.78266 0.0
H390 H 0.51219 0.38913 0.86013 0.0
S391 S 0.36898 0.41553 0.86342 0.0
N392 N 0.38173 0.37984 0.81429 0.0
N393 N 0.40367 0.43284 0.8981 0.0
C394 C 0.42769 0.40948 0.87011 0.0
C395 C 0.41573 0.3805 0.82511 0.0
C396 C 0.58526 0.62294 0.19526 0.0
C397 C 0.56338 0.65026 0.22593 0.0
C398 C 0.57284 0.59496 0.151 0.0
C399 C 0.5381 0.59351 0.13556 0.0
H400 H 0.61196 0.62202 0.20724 0.0
H401 H 0.59057 0.5738 0.12955 0.0
S402 S 0.47097 0.66175 0.19968 0.0
N403 N 0.50599 0.67638 0.23578 0.0
N404 N 0.48237 0.62412 0.15238 0.0
C405 C 0.5162 0.62207 0.16441 0.0
C406 C 0.5289 0.65032 0.20969 0.0
C407 C 0.96803 0.14955 0.7019 0.0
C408 C 0.93314 0.15059 0.71384 0.0
C409 C 0.98102 0.12227 0.65807 0.0
C410 C 0.95962 0.09459 0.62506 0.0
H411 H 0.98552 0.16926 0.72776 0.0
H412 H 0.00816 0.12196 0.6515 0.0
S413 S 0.86596 0.08659 0.63775 0.0
N414 N 0.87724 0.12285 0.68803 0.0
N415 N 0.90138 0.07168 0.60542 0.0
C416 C 0.92446 0.09644 0.63522 0.0
C417 C 0.91128 0.12445 0.6796 0.0
C418 C 0.42789 0.39848 0.22316 0.0
C419 C 0.45122 0.3714 0.25203 0.0
C420 C 0.43745 0.42353 0.17378 0.0
C421 C 0.47065 0.42216 0.1513 0.0
H422 H 0.40244 0.40155 0.2403 0.0
H423 H 0.4188 0.44468 0.1539 0.0
S424 S 0.54016 0.3528 0.20817 0.0
N425 N 0.50799 0.34217 0.25268 0.0
N426 N 0.52621 0.38886 0.15978 0.0
C427 C 0.49379 0.39369 0.17848 0.0
C428 C 0.48402 0.36844 0.22889 0.0
C429 C 0.07256 0.90113 0.72621 0.0
C430 C 0.04888 0.87548 0.75623 0.0
C431 C 0.06292 0.92585 0.67626 0.0
C432 C 0.02927 0.92555 0.65419 0.0
H433 H 0.0985 0.90319 0.74269 0.0
H434 H 0.08197 0.94569 0.65528 0.0
S435 S 0.95827 0.86085 0.71478 0.0
N436 N 0.99095 0.84925 0.759 0.0
N437 N 0.97259 0.89539 0.66492 0.0
C438 C 0.00559 0.8988 0.68281 0.0
C439 C 0.01544 0.87389 0.73392 0.0
loop_
_geom_bond_atom_site_label_1
_geom_bond_atom_site_label_2
_geom_bond_distance
_geom_bond_site_symmetry_2
_ccdc_geom_bond_type
C0 C1 1.391 . S
C0 C4 1.391 . S
C0 H42 0.948 . S
C1 C0 1.391 . S
C1 C2 1.391 . S
C2 C1 1.391 . S
C2 H58 0.947 . S
C2 C59 1.392 . S
C3 C4 1.391 . S
C3 C7 1.397 . S
C3 C59 1.419 . S
C4 C0 1.391 . S
C4 C3 1.391 . S
C4 C5 1.399 . S
C5 C4 1.399 . S
C5 C8 1.396 . S
C5 C17 1.453 . S
C5 C18 1.684 . S
H6 C30 0.948 . S
C7 C3 1.397 . S
C7 C8 1.394 . S
C7 C26 1.723 1_556 S
C8 C5 1.396 . S
C8 C7 1.394 . S
C8 C38 1.723 1_556 S
H9 C32 0.947 . S
H10 C33 0.948 . S
H11 C39 0.982 . S
H12 C40 0.979 . S
H13 C40 0.980 . S
H14 C40 0.983 . S
H15 C39 0.979 . S
H16 C39 0.977 . S
C17 C5 1.453 . S
C17 H46 0.982 . S
C17 H47 0.979 . S
C17 H48 0.977 . S
C18 C5 1.684 . S
C18 H43 0.979 . S
C18 H44 0.980 . S
C18 H45 0.983 . S
C19 C20 1.391 . S
C19 C24 1.391 . S
C19 H49 0.948 . S
C20 C19 1.391 . S
C20 C21 1.391 . S
C21 C20 1.391 . S
C21 C22 1.392 . S
C21 H50 0.947 . S
C22 C21 1.392 . S
C22 C23 1.419 . S
C22 H51 0.948 . S
C23 C22 1.419 . S
C23 C24 1.391 . S
C23 C27 1.397 . S
C24 C19 1.391 . S
C24 C23 1.391 . S
C24 C25 1.399 . S
C25 C24 1.399 . S
C25 C26 1.396 . S
C25 C28 1.453 . S
C25 C29 1.684 . S
C26 C7 1.723 1_554 S
C26 C25 1.396 . S
C26 C27 1.394 . S
C27 C23 1.397 . S
C27 C26 1.394 . S
C27 C37 1.723 . S
C28 C25 1.453 . S
C28 H52 0.982 . S
C28 H53 0.979 . S
C28 H54 0.977 . S
C29 C25 1.684 . S
C29 H55 0.979 . S
C29 H56 0.980 . S
C29 H57 0.983 1_455 S
C30 H6 0.948 . S
C30 C31 1.391 . S
C30 C35 1.391 . S
C31 C30 1.391 . S
C31 C32 1.391 1_554 S
C32 H9 0.947 . S
C32 C31 1.391 1_556 S
C32 C33 1.392 . S
C33 H10 0.948 . S
C33 C32 1.392 . S
C33 C34 1.419 . S
C34 C33 1.419 . S
C34 C35 1.391 1_556 S
C34 C38 1.397 1_556 S
C35 C30 1.391 . S
C35 C34 1.391 1_554 S
C35 C36 1.399 . S
C36 C35 1.399 . S
C36 C37 1.396 . S
C36 C39 1.453 . S
C36 C40 1.684 . S
C37 C27 1.723 . S
C37 C36 1.396 . S
C37 C38 1.394 . S
C38 C8 1.723 1_554 S
C38 C34 1.397 1_554 S
C38 C37 1.394 . S
C39 H11 0.982 . S
C39 H15 0.979 . S
C39 H16 0.977 . S
C39 C36 1.453 . S
C40 H12 0.979 . S
C40 H13 0.980 . S
C40 H14 0.983 . S
C40 C36 1.684 . S
H41 C59 0.948 . S
H42 C0 0.948 . S
H43 C18 0.979 . S
H44 C18 0.980 . S
H45 C18 0.983 . S
H46 C17 0.982 . S
H47 C17 0.979 . S
H48 C17 0.977 . S
H49 C19 0.948 . S
H50 C21 0.947 . S
H51 C22 0.948 . S
H52 C28 0.982 . S
H53 C28 0.979 . S
H54 C28 0.977 . S
H55 C29 0.979 . S
H56 C29 0.980 . S
H57 C29 0.983 1_655 S
H58 C2 0.947 . S
C59 C2 1.392 . S
C59 C3 1.419 . S
C59 H41 0.948 . S
C60 C61 1.391 . S
C60 C64 1.391 . S
C60 H102 0.948 . S
C61 C60 1.391 . S
C61 C62 1.391 . S
C62 C61 1.391 . S
C62 H118 0.947 . S
C62 C119 1.392 . S
C63 C64 1.391 . S
C63 C67 1.397 . S
C63 C119 1.419 . S
C64 C60 1.391 . S
C64 C63 1.391 . S
C64 C65 1.399 . S
C65 C64 1.399 . S
C65 C68 1.396 . S
C65 C77 1.453 . S
C65 C78 1.684 . S
H66 C90 0.948 . S
C67 C63 1.397 . S
C67 C68 1.394 . S
C67 C86 1.723 . S
C68 C65 1.396 . S
C68 C67 1.394 . S
C68 C98 1.723 . S
H69 C92 0.947 . S
H70 C93 0.948 . S
H71 C99 0.982 . S
H72 C100 0.979 . S
H73 C100 0.980 . S
H74 C100 0.983 . S
H75 C99 0.979 . S
H76 C99 0.977 . S
C77 C65 1.453 . S
C77 H106 0.982 . S
C77 H107 0.979 . S
C77 H108 0.977 . S
C78 C65 1.684 . S
C78 H103 0.979 . S
C78 H104 0.980 . S
C78 H105 0.983 . S
C79 C80 1.391 . S
C79 C84 1.391 . S
C79 H109 0.948 . S
C80 C79 1.391 . S
C80 C81 1.391 . S
C81 C80 1.391 . S
C81 C82 1.392 . S
C81 H110 0.947 . S
C82 C81 1.392 . S
C82 C83 1.419 . S
C82 H111 0.948 . S
C83 C82 1.419 . S
C83 C84 1.391 . S
C83 C87 1.397 . S
C84 C79 1.391 . S
C84 C83 1.391 . S
C84 C85 1.399 . S
C85 C84 1.399 . S
C85 C86 1.396 . S
C85 C88 1.453 . S
C85 C89 1.684 . S
C86 C67 1.723 . S
C86 C85 1.396 . S
C86 C87 1.394 . S
C87 C83 1.397 . S
C87 C86 1.394 . S
C87 C97 1.723 . S
C88 C85 1.453 . S
C88 H112 0.982 . S
C88 H113 0.979 . S
C88 H114 0.977 . S
C89 C85 1.684 . S
C89 H115 0.979 . S
C89 H116 0.980 . S
C89 H117 0.983 . S
C90 H66 0.948 . S
C90 C91 1.391 . S
C90 C95 1.391 . S
C91 C90 1.391 . S
C91 C92 1.391 . S
C92 H69 0.947 . S
C92 C91 1.391 . S
C92 C93 1.392 . S
C93 H70 0.948 . S
C93 C92 1.392 . S
C93 C94 1.419 . S
C94 C93 1.419 . S
C94 C95 1.391 . S
C94 C98 1.397 . S
C95 C90 1.391 . S
C95 C94 1.391 . S
C95 C96 1.399 . S
C96 C95 1.399 . S
C96 C97 1.396 . S
C96 C99 1.453 . S
C96 C100 1.684 . S
C97 C87 1.723 . S
C97 C96 1.396 . S
C97 C98 1.394 . S
C98 C68 1.723 . S
C98 C94 1.397 . S
C98 C97 1.394 . S
C99 H71 0.982 . S
C99 H75 0.979 . S
C99 H76 0.977 . S
C99 C96 1.453 . S
C100 H72 0.979 . S
C100 H73 0.980 . S
C100 H74 0.983 . S
C100 C96 1.684 . S
H101 C119 0.948 . S
H102 C60 0.948 . S
H103 C78 0.979 . S
H104 C78 0.980 . S
H105 C78 0.983 . S
H106 C77 0.982 . S
H107 C77 0.979 . S
H108 C77 0.977 . S
H109 C79 0.948 . S
H110 C81 0.947 . S
H111 C82 0.948 . S
H112 C88 0.982 . S
H113 C88 0.979 . S
H114 C88 0.977 . S
H115 C89 0.979 . S
H116 C89 0.980 . S
H117 C89 0.983 . S
H118 C62 0.947 . S
C119 C62 1.392 . S
C119 C63 1.419 . S
C119 H101 0.948 . S
C120 C121 1.391 . S
C120 C124 1.391 . S
C120 H162 0.948 . S
C121 C120 1.391 . S
C121 C122 1.391 . S
C122 C121 1.391 . S
C122 H178 0.947 . S
C122 C179 1.392 . S
C123 C124 1.391 . S
C123 C127 1.397 . S
C123 C179 1.419 . S
C124 C120 1.391 . S
C124 C123 1.391 . S
C124 C125 1.399 . S
C125 C124 1.399 . S
C125 C128 1.396 . S
C125 C137 1.453 . S
C125 C138 1.684 . S
H126 C150 0.948 . S
C127 C123 1.397 . S
C127 C128 1.394 . S
C127 C146 1.723 1_554 S
C128 C125 1.396 . S
C128 C127 1.394 . S
C128 C158 1.723 . S
H129 C152 0.947 . S
H130 C153 0.948 . S
H131 C159 0.982 . S
H132 C160 0.979 . S
H133 C160 0.980 . S
H134 C160 0.983 . S
H135 C159 0.979 . S
H136 C159 0.977 . S
C137 C125 1.453 . S
C137 H166 0.982 . S
C137 H167 0.979 . S
C137 H168 0.977 . S
C138 C125 1.684 . S
C138 H163 0.979 . S
C138 H164 0.980 . S
C138 H165 0.983 . S
C139 C140 1.391 . S
C139 C144 1.391 . S
C139 H169 0.948 . S
C140 C139 1.391 . S
C140 C141 1.391 . S
C141 C140 1.391 . S
C141 C142 1.392 . S
C141 H170 0.947 . S
C142 C141 1.392 . S
C142 C143 1.419 . S
C142 H171 0.948 . S
C143 C142 1.419 . S
C143 C144 1.391 . S
C143 C147 1.397 . S
C144 C139 1.391 . S
C144 C143 1.391 . S
C144 C145 1.399 . S
C145 C144 1.399 . S
C145 C146 1.396 . S
C145 C148 1.453 . S
C145 C149 1.684 . S
C146 C127 1.723 1_556 S
C146 C145 1.396 . S
C146 C147 1.394 . S
C147 C143 1.397 . S
C147 C146 1.394 . S
C147 C157 1.723 . S
C148 C145 1.453 . S
C148 H172 0.982 . S
C148 H173 0.979 . S
C148 H174 0.977 1_556 S
C149 C145 1.684 . S
C149 H175 0.979 . S
C149 H176 0.980 1_556 S
C149 H177 0.983 . S
C150 H126 0.948 . S
C150 C151 1.391 1_556 S
C150 C155 1.391 . S
C151 C150 1.391 1_554 S
C151 C152 1.391 . S
C152 H129 0.947 . S
C152 C151 1.391 . S
C152 C153 1.392 . S
C153 H130 0.948 . S
C153 C152 1.392 . S
C153 C154 1.419 . S
C154 C153 1.419 . S
C154 C155 1.391 1_554 S
C154 C158 1.397 . S
C155 C150 1.391 . S
C155 C154 1.391 1_556 S
C155 C156 1.399 . S
C156 C155 1.399 . S
C156 C157 1.396 . S
C156 C159 1.453 . S
C156 C160 1.684 . S
C157 C147 1.723 . S
C157 C156 1.396 . S
C157 C158 1.394 1_556 S
C158 C128 1.723 . S
C158 C154 1.397 . S
C158 C157 1.394 1_554 S
C159 H131 0.982 . S
C159 H135 0.979 . S
C159 H136 0.977 . S
C159 C156 1.453 . S
C160 H132 0.979 . S
C160 H133 0.980 . S
C160 H134 0.983 . S
C160 C156 1.684 . S
H161 C179 0.948 . S
H162 C120 0.948 . S
H163 C138 0.979 . S
H164 C138 0.980 . S
H165 C138 0.983 . S
H166 C137 0.982 . S
H167 C137 0.979 . S
H168 C137 0.977 . S
H169 C139 0.948 . S
H170 C141 0.947 . S
H171 C142 0.948 . S
H172 C148 0.982 . S
H173 C148 0.979 . S
H174 C148 0.977 1_554 S
H175 C149 0.979 . S
H176 C149 0.980 1_554 S
H177 C149 0.983 . S
H178 C122 0.947 . S
C179 C122 1.392 . S
C179 C123 1.419 . S
C179 H161 0.948 . S
C180 C181 1.391 . S
C180 C184 1.391 . S
C180 H222 0.948 . S
C181 C180 1.391 . S
C181 C182 1.391 . S
C182 C181 1.391 . S
C182 H238 0.947 . S
C182 C239 1.392 . S
C183 C184 1.391 . S
C183 C187 1.397 . S
C183 C239 1.419 . S
C184 C180 1.391 . S
C184 C183 1.391 . S
C184 C185 1.399 . S
C185 C184 1.399 . S
C185 C188 1.396 . S
C185 C197 1.453 . S
C185 C198 1.684 . S
H186 C210 0.948 . S
C187 C183 1.397 . S
C187 C188 1.394 . S
C187 C206 1.723 . S
C188 C185 1.396 . S
C188 C187 1.394 . S
C188 C218 1.723 . S
H189 C212 0.947 . S
H190 C213 0.948 . S
H191 C219 0.982 . S
H192 C220 0.979 . S
H193 C220 0.980 . S
H194 C220 0.983 . S
H195 C219 0.979 . S
H196 C219 0.977 . S
C197 C185 1.453 . S
C197 H226 0.982 . S
C197 H227 0.979 . S
C197 H228 0.977 . S
C198 C185 1.684 . S
C198 H223 0.979 . S
C198 H224 0.980 . S
C198 H225 0.983 . S
C199 C200 1.391 . S
C199 C204 1.391 . S
C199 H229 0.948 . S
C200 C199 1.391 . S
C200 C201 1.391 . S
C201 C200 1.391 . S
C201 C202 1.392 . S
C201 H230 0.947 . S
C202 C201 1.392 . S
C202 C203 1.419 . S
C202 H231 0.948 . S
C203 C202 1.419 . S
C203 C204 1.391 . S
C203 C207 1.397 . S
C204 C199 1.391 . S
C204 C203 1.391 . S
C204 C205 1.399 . S
C205 C204 1.399 . S
C205 C206 1.396 . S
C205 C208 1.453 . S
C205 C209 1.684 . S
C206 C187 1.723 . S
C206 C205 1.396 . S
C206 C207 1.394 . S
C207 C203 1.397 . S
C207 C206 1.394 . S
C207 C217 1.723 . S
C208 C205 1.453 . S
C208 H232 0.982 . S
C208 H233 0.979 . S
C208 H234 0.977 . S
C209 C205 1.684 . S
C209 H235 0.979 . S
C209 H236 0.980 . S
C209 H237 0.983 . S
C210 H186 0.948 . S
C210 C211 1.391 . S
C210 C215 1.391 . S
C211 C210 1.391 . S
C211 C212 1.391 . S
C212 H189 0.947 . S
C212 C211 1.391 . S
C212 C213 1.392 . S
C213 H190 0.948 . S
C213 C212 1.392 . S
C213 C214 1.419 . S
C214 C213 1.419 . S
C214 C215 1.391 . S
C214 C218 1.397 . S
C215 C210 1.391 . S
C215 C214 1.391 . S
C215 C216 1.399 . S
C216 C215 1.399 . S
C216 C217 1.396 . S
C216 C219 1.453 . S
C216 C220 1.684 . S
C217 C207 1.723 . S
C217 C216 1.396 . S
C217 C218 1.394 . S
C218 C188 1.723 . S
C218 C214 1.397 . S
C218 C217 1.394 . S
C219 H191 0.982 . S
C219 H195 0.979 . S
C219 H196 0.977 . S
C219 C216 1.453 . S
C220 H192 0.979 . S
C220 H193 0.980 . S
C220 H194 0.983 . S
C220 C216 1.684 . S
H221 C239 0.948 . S
H222 C180 0.948 . S
H223 C198 0.979 . S
H224 C198 0.980 . S
H225 C198 0.983 . S
H226 C197 0.982 . S
H227 C197 0.979 . S
H228 C197 0.977 . S
H229 C199 0.948 . S
H230 C201 0.947 . S
H231 C202 0.948 . S
H232 C208 0.982 . S
H233 C208 0.979 . S
H234 C208 0.977 . S
H235 C209 0.979 . S
H236 C209 0.980 . S
H237 C209 0.983 . S
H238 C182 0.947 . S
C239 C182 1.392 . S
C239 C183 1.419 . S
C239 H221 0.948 . S
C240 O256 1.251 . S
C240 O258 1.254 1_455 S
N241 C242 1.333 . S
N241 C246 1.307 . S
N241 Zn247 2.020 . S
C242 N241 1.333 . S
C242 C243 1.379 . S
C242 H260 0.952 . S
C243 C242 1.379 . S
C243 C244 1.390 . S
C243 H270 0.949 . S
C244 C243 1.390 . S
C244 C245 1.357 . S
C245 C244 1.357 . S
C245 C246 1.370 . S
C245 H271 0.950 . S
C246 N241 1.307 . S
C246 C245 1.370 . S
C246 H264 0.948 . S
Zn247 N241 2.020 . S
Zn247 O256 2.039 1_545 S
Zn247 O262 2.034 1_545 S
Zn247 O266 2.025 . S
Zn247 O268 2.024 . S
C248 O267 1.246 . S
C248 O268 1.249 1_655 S
N249 C250 1.307 . S
N249 C251 1.333 . S
N249 Zn255 2.020 . S
C250 N249 1.307 . S
C250 C254 1.370 . S
C250 H261 0.948 . S
C251 N249 1.333 . S
C251 C252 1.379 . S
C251 H259 0.977 . S
C252 C251 1.379 . S
C252 C253 1.390 . S
C252 H272 0.949 . S
C253 C252 1.390 . S
C253 C254 1.357 . S
C254 C250 1.370 . S
C254 C253 1.357 . S
C254 H273 0.950 . S
Zn255 N249 2.020 . S
Zn255 O258 2.025 . S
Zn255 O263 2.024 . S
Zn255 O265 2.039 1_565 S
Zn255 O267 2.034 1_565 S
O256 C240 1.251 . S
O256 Zn247 2.039 1_565 S
C257 O262 1.246 . S
C257 O263 1.249 1_455 S
O258 C240 1.254 1_655 S
O258 Zn255 2.025 . S
H259 C251 0.977 . S
H260 C242 0.952 . S
H261 C250 0.948 . S
O262 Zn247 2.034 1_565 S
O262 C257 1.246 . S
O263 Zn255 2.024 . S
O263 C257 1.249 1_655 S
H264 C246 0.948 . S
O265 Zn255 2.039 1_545 S
O265 C269 1.251 . S
O266 Zn247 2.025 . S
O266 C269 1.254 1_455 S
O267 C248 1.246 . S
O267 Zn255 2.034 1_545 S
O268 Zn247 2.024 . S
O268 C248 1.249 1_455 S
C269 O265 1.251 . S
C269 O266 1.254 1_655 S
H270 C243 0.949 . S
H271 C245 0.950 . S
H272 C252 0.949 . S
H273 C254 0.950 . S
C274 O290 1.251 . S
C274 O292 1.254 . S
N275 C276 1.333 1_554 S
N275 C280 1.307 . S
N275 Zn281 2.020 . S
C276 N275 1.333 1_556 S
C276 C277 1.379 . S
C276 H294 0.952 . S
C277 C276 1.379 . S
C277 C278 1.390 1_556 S
C277 H304 0.949 . S
C278 C277 1.390 1_554 S
C278 C279 1.357 . S
C279 C278 1.357 . S
C279 C280 1.370 . S
C279 H305 0.950 . S
C280 N275 1.307 . S
C280 C279 1.370 . S
C280 H298 0.948 . S
Zn281 N275 2.020 . S
Zn281 O290 2.039 1_554 S
Zn281 O296 2.034 . S
Zn281 O300 2.025 . S
Zn281 O302 2.024 1_554 S
C282 O301 1.246 . S
C282 O302 1.249 . S
N283 C284 1.307 1_554 S
N283 C285 1.333 . S
N283 Zn289 2.020 . S
C284 N283 1.307 1_556 S
C284 C288 1.370 . S
C284 H295 0.948 . S
C285 N283 1.333 . S
C285 C286 1.379 . S
C285 H293 0.952 . S
C286 C285 1.379 . S
C286 C287 1.390 . S
C286 H306 0.949 . S
C287 C286 1.390 . S
C287 C288 1.357 1_554 S
C288 C284 1.370 . S
C288 C287 1.357 1_556 S
C288 H307 0.950 . S
Zn289 N283 2.020 . S
Zn289 O292 2.025 1_554 S
Zn289 O297 2.024 . S
Zn289 O299 2.039 . S
Zn289 O301 2.034 1_554 S
O290 C274 1.251 . S
O290 Zn281 2.039 1_556 S
C291 O296 1.246 . S
C291 O297 1.249 . S
O292 C274 1.254 . S
O292 Zn289 2.025 1_556 S
H293 C285 0.952 . S
H294 C276 0.952 . S
H295 C284 0.948 . S
O296 Zn281 2.034 . S
O296 C291 1.246 . S
O297 Zn289 2.024 . S
O297 C291 1.249 . S
H298 C280 0.948 . S
O299 Zn289 2.039 . S
O299 C303 1.251 . S
O300 Zn281 2.025 . S
O300 C303 1.254 . S
O301 C282 1.246 . S
O301 Zn289 2.034 1_556 S
O302 Zn281 2.024 1_556 S
O302 C282 1.249 . S
C303 O299 1.251 . S
C303 O300 1.254 . S
H304 C277 0.949 . S
H305 C279 0.950 . S
H306 C286 0.949 . S
H307 C288 0.950 . S
C308 C309 1.369 . S
C308 C310 1.419 . S
C308 H312 0.930 . S
C309 C308 1.369 . S
C309 C318 1.429 . S
C310 C308 1.419 . S
C310 C311 1.363 . S
C310 H313 0.929 . S
C311 C310 1.363 . S
C311 C317 1.428 . S
H312 C308 0.930 . S
H313 C310 0.929 . S
S314 N315 1.613 . S
S314 N316 1.610 . S
N315 S314 1.613 . S
N315 C318 1.350 . S
N316 S314 1.610 . S
N316 C317 1.351 . S
C317 C311 1.428 . S
C317 N316 1.351 . S
C317 C318 1.434 . S
C318 C309 1.429 . S
C318 N315 1.350 . S
C318 C317 1.434 . S
C319 C320 1.369 . S
C319 C321 1.419 . S
C319 H323 0.930 . S
C320 C319 1.369 . S
C320 C329 1.429 1_554 S
C321 C319 1.419 . S
C321 C322 1.363 . S
C321 H324 0.929 . S
C322 C321 1.363 . S
C322 C328 1.428 1_554 S
H323 C319 0.930 . S
H324 C321 0.929 . S
S325 N326 1.613 . S
S325 N327 1.610 . S
N326 S325 1.613 . S
N326 C329 1.350 . S
N327 S325 1.610 . S
N327 C328 1.351 . S
C328 C322 1.428 1_556 S
C328 N327 1.351 . S
C328 C329 1.434 . S
C329 C320 1.429 1_556 S
C329 N326 1.350 . S
C329 C328 1.434 . S
C330 C331 1.369 . S
C330 C332 1.419 . S
C330 H334 0.930 . S
C331 C330 1.369 . S
C331 C340 1.429 . S
C332 C330 1.419 . S
C332 C333 1.363 . S
C332 H335 0.929 . S
C333 C332 1.363 . S
C333 C339 1.428 . S
H334 C330 0.930 . S
H335 C332 0.929 . S
S336 N337 1.613 . S
S336 N338 1.610 . S
N337 S336 1.613 . S
N337 C340 1.350 . S
N338 S336 1.610 . S
N338 C339 1.351 . S
C339 C333 1.428 . S
C339 N338 1.351 . S
C339 C340 1.434 . S
C340 C331 1.429 . S
C340 N337 1.350 . S
C340 C339 1.434 . S
C341 C342 1.369 1_556 S
C341 C343 1.419 . S
C341 H345 0.930 . S
C342 C341 1.369 1_554 S
C342 C351 1.429 . S
C343 C341 1.419 . S
C343 C344 1.363 1_556 S
C343 H346 0.929 . S
C344 C343 1.363 1_554 S
C344 C350 1.428 . S
H345 C341 0.930 . S
H346 C343 0.929 . S
S347 N348 1.613 . S
S347 N349 1.610 . S
N348 S347 1.613 . S
N348 C351 1.350 . S
N349 S347 1.610 . S
N349 C350 1.351 . S
C350 C344 1.428 . S
C350 N349 1.351 . S
C350 C351 1.434 . S
C351 C342 1.429 . S
C351 N348 1.350 . S
C351 C350 1.434 . S
C352 C353 1.369 . S
C352 C354 1.419 . S
C352 H356 0.930 . S
C353 C352 1.369 . S
C353 C362 1.429 . S
C354 C352 1.419 . S
C354 C355 1.363 . S
C354 H357 0.929 . S
C355 C354 1.363 . S
C355 C361 1.428 . S
H356 C352 0.930 . S
H357 C354 0.929 . S
S358 N359 1.613 1_655 S
S358 N360 1.610 . S
N359 S358 1.613 1_455 S
N359 C362 1.350 . S
N360 S358 1.610 . S
N360 C361 1.351 1_655 S
C361 C355 1.428 . S
C361 N360 1.351 1_455 S
C361 C362 1.434 . S
C362 C353 1.429 . S
C362 N359 1.350 . S
C362 C361 1.434 . S
C363 C364 1.369 . S
C363 C365 1.419 . S
C363 H367 0.930 . S
C364 C363 1.369 . S
C364 C373 1.429 . S
C365 C363 1.419 . S
C365 C366 1.363 . S
C365 H368 0.929 . S
C366 C365 1.363 . S
C366 C372 1.428 . S
H367 C363 0.930 . S
H368 C365 0.929 . S
S369 N370 1.613 . S
S369 N371 1.610 . S
N370 S369 1.613 . S
N370 C373 1.350 . S
N371 S369 1.610 . S
N371 C372 1.351 . S
C372 C366 1.428 . S
C372 N371 1.351 . S
C372 C373 1.434 . S
C373 C364 1.429 . S
C373 N370 1.350 . S
C373 C372 1.434 . S
C374 C375 1.369 . S
C374 C376 1.419 . S
C374 H378 0.930 . S
C375 C374 1.369 . S
C375 C384 1.429 . S
C376 C374 1.419 . S
C376 C377 1.363 . S
C376 H379 0.929 . S
C377 C376 1.363 . S
C377 C383 1.428 . S
H378 C374 0.930 . S
H379 C376 0.929 . S
S380 N381 1.613 . S
S380 N382 1.610 . S
N381 S380 1.613 . S
N381 C384 1.350 1_455 S
N382 S380 1.610 . S
N382 C383 1.351 1_455 S
C383 C377 1.428 . S
C383 N382 1.351 1_655 S
C383 C384 1.434 . S
C384 C375 1.429 . S
C384 N381 1.350 1_655 S
C384 C383 1.434 . S
C385 C386 1.369 . S
C385 C387 1.419 . S
C385 H389 0.930 . S
C386 C385 1.369 . S
C386 C395 1.429 . S
C387 C385 1.419 . S
C387 C388 1.363 . S
C387 H390 0.929 . S
C388 C387 1.363 . S
C388 C394 1.428 . S
H389 C385 0.930 . S
H390 C387 0.929 . S
S391 N392 1.613 . S
S391 N393 1.610 . S
N392 S391 1.613 . S
N392 C395 1.350 . S
N393 S391 1.610 . S
N393 C394 1.351 . S
C394 C388 1.428 . S
C394 N393 1.351 . S
C394 C395 1.434 . S
C395 C386 1.429 . S
C395 N392 1.350 . S
C395 C394 1.434 . S
C396 C397 1.369 . S
C396 C398 1.419 . S
C396 H400 0.930 . S
C397 C396 1.369 . S
C397 C406 1.429 . S
C398 C396 1.419 . S
C398 C399 1.363 . S
C398 H401 0.929 . S
C399 C398 1.363 . S
C399 C405 1.428 . S
H400 C396 0.930 . S
H401 C398 0.929 . S
S402 N403 1.613 . S
S402 N404 1.610 . S
N403 S402 1.613 . S
N403 C406 1.350 . S
N404 S402 1.610 . S
N404 C405 1.351 . S
C405 C399 1.428 . S
C405 N404 1.351 . S
C405 C406 1.434 . S
C406 C397 1.429 . S
C406 N403 1.350 . S
C406 C405 1.434 . S
C407 C408 1.369 . S
C407 C409 1.419 . S
C407 H411 0.930 . S
C408 C407 1.369 . S
C408 C417 1.429 . S
C409 C407 1.419 . S
C409 C410 1.363 . S
C409 H412 0.929 . S
C410 C409 1.363 . S
C410 C416 1.428 . S
H411 C407 0.930 . S
H412 C409 0.929 . S
S413 N414 1.613 . S
S413 N415 1.610 . S
N414 S413 1.613 . S
N414 C417 1.350 . S
N415 S413 1.610 . S
N415 C416 1.351 . S
C416 C410 1.428 . S
C416 N415 1.351 . S
C416 C417 1.434 . S
C417 C408 1.429 . S
C417 N414 1.350 . S
C417 C416 1.434 . S
C418 C419 1.369 . S
C418 C420 1.419 . S
C418 H422 0.930 . S
C419 C418 1.369 . S
C419 C428 1.429 . S
C420 C418 1.419 . S
C420 C421 1.363 . S
C420 H423 0.929 . S
C421 C420 1.363 . S
C421 C427 1.428 . S
H422 C418 0.930 . S
H423 C420 0.929 . S
S424 N425 1.613 . S
S424 N426 1.610 . S
N425 S424 1.613 . S
N425 C428 1.350 . S
N426 S424 1.610 . S
N426 C427 1.351 . S
C427 C421 1.428 . S
C427 N426 1.351 . S
C427 C428 1.434 . S
C428 C419 1.429 . S
C428 N425 1.350 . S
C428 C427 1.434 . S
C429 C430 1.369 . S
C429 C431 1.419 . S
C429 H433 0.930 . S
C430 C429 1.369 . S
C430 C439 1.429 . S
C431 C429 1.419 . S
C431 C432 1.363 . S
C431 H434 0.929 . S
C432 C431 1.363 . S
C432 C438 1.428 . S
H433 C429 0.930 . S
H434 C431 0.929 . S
S435 N436 1.613 . S
S435 N437 1.610 . S
N436 S435 1.613 . S
N436 C439 1.350 1_655 S
N437 S435 1.610 . S
N437 C438 1.351 1_655 S
C438 C432 1.428 . S
C438 N437 1.351 1_455 S
C438 C439 1.434 . S
C439 C430 1.429 . S
C439 N436 1.350 1_455 S
C439 C438 1.434 . S
C311 C244 1.678 . S
C309 C211 1.575 . S
C320 C31 1.580 . S
C322 C287 1.596 . S
C331 C91 1.654 . S
C333 C253 1.677 . S
C342 C151 1.520 . S
C344 C278 1.593 . S
C355 C240 1.685 . S
C353 C20 1.683 . S
C366 C282 1.791 . S
C364 C61 1.720 . S
C375 C121 1.542 . S
C377 C248 1.668 . S
C386 C200 1.656 . S
C388 C274 1.784 . S
C399 C303 1.781 . S
C397 C80 1.760 . S
C410 C269 1.689 . S
C408 C140 1.598 . S
C421 C291 1.787 . S
C419 C181 1.630 . S
C430 C1 1.628 . S
C432 C257 1.666 . S
