# Generated by pormake.
# Topology eea, (3,6)-cn, num edge types: 1
# Building blocks:
#     Node 0, Type 0, BuildingBlock: BELTOD_clean_linker_0, # of connection points: 3
#     Node 1, Type 0, BuildingBlock: BELTOD_clean_linker_0, # of connection points: 3
#     Node 2, Type 0, BuildingBlock: BELTOD_clean_linker_0, # of connection points: 3
#     Node 3, Type 0, BuildingBlock: BELTOD_clean_linker_0, # of connection points: 3
#     Node 4, Type 0, BuildingBlock: BELTOD_clean_linker_0, # of connection points: 3
#     Node 5, Type 0, BuildingBlock: BELTOD_clean_linker_0, # of connection points: 3
#     Node 6, Type 0, BuildingBlock: BELTOD_clean_linker_0, # of connection points: 3
#     Node 7, Type 0, BuildingBlock: BELTOD_clean_linker_0, # of connection points: 3
#     Node 8, Type 0, BuildingBlock: BELTOD_clean_linker_0, # of connection points: 3
#     Node 9, Type 0, BuildingBlock: BELTOD_clean_linker_0, # of connection points: 3
#     Node 10, Type 0, BuildingBlock: BELTOD_clean_linker_0, # of connection points: 3
#     Node 11, Type 0, BuildingBlock: BELTOD_clean_linker_0, # of connection points: 3
#     Node 12, Type 0, BuildingBlock: BELTOD_clean_linker_0, # of connection points: 3
#     Node 13, Type 0, BuildingBlock: BELTOD_clean_linker_0, # of connection points: 3
#     Node 14, Type 0, BuildingBlock: BELTOD_clean_linker_0, # of connection points: 3
#     Node 15, Type 0, BuildingBlock: BELTOD_clean_linker_0, # of connection points: 3
#     Node 16, Type 0, BuildingBlock: BELTOD_clean_linker_0, # of connection points: 3
#     Node 17, Type 0, BuildingBlock: BELTOD_clean_linker_0, # of connection points: 3
#     Node 18, Type 1, BuildingBlock: CUKXOW_clean_sbu_0, # of connection points: 6
#     Node 19, Type 1, BuildingBlock: CUKXOW_clean_sbu_0, # of connection points: 6
#     Node 20, Type 1, BuildingBlock: CUKXOW_clean_sbu_0, # of connection points: 6
#     Node 21, Type 1, BuildingBlock: CUKXOW_clean_sbu_0, # of connection points: 6
#     Node 22, Type 1, BuildingBlock: CUKXOW_clean_sbu_0, # of connection points: 6
#     Node 23, Type 1, BuildingBlock: CUKXOW_clean_sbu_0, # of connection points: 6
#     Node 24, Type 1, BuildingBlock: CUKXOW_clean_sbu_0, # of connection points: 6
#     Node 25, Type 1, BuildingBlock: CUKXOW_clean_sbu_0, # of connection points: 6
#     Node 26, Type 1, BuildingBlock: CUKXOW_clean_sbu_0, # of connection points: 6
#     Edge 27, Type (0, 1), BuildingBlock: MIFKUJ_clean_linker_0, # of connection points: 2
#     Edge 28, Type (0, 1), BuildingBlock: MIFKUJ_clean_linker_0, # of connection points: 2
#     Edge 29, Type (0, 1), BuildingBlock: MIFKUJ_clean_linker_0, # of connection points: 2
#     Edge 30, Type (0, 1), BuildingBlock: MIFKUJ_clean_linker_0, # of connection points: 2
#     Edge 31, Type (0, 1), BuildingBlock: MIFKUJ_clean_linker_0, # of connection points: 2
#     Edge 32, Type (0, 1), BuildingBlock: MIFKUJ_clean_linker_0, # of connection points: 2
#     Edge 33, Type (0, 1), BuildingBlock: MIFKUJ_clean_linker_0, # of connection points: 2
#     Edge 34, Type (0, 1), BuildingBlock: MIFKUJ_clean_linker_0, # of connection points: 2
#     Edge 35, Type (0, 1), BuildingBlock: MIFKUJ_clean_linker_0, # of connection points: 2
#     Edge 36, Type (0, 1), BuildingBlock: MIFKUJ_clean_linker_0, # of connection points: 2
#     Edge 37, Type (0, 1), BuildingBlock: MIFKUJ_clean_linker_0, # of connection points: 2
#     Edge 38, Type (0, 1), BuildingBlock: MIFKUJ_clean_linker_0, # of connection points: 2
#     Edge 39, Type (0, 1), BuildingBlock: MIFKUJ_clean_linker_0, # of connection points: 2
#     Edge 40, Type (0, 1), BuildingBlock: MIFKUJ_clean_linker_0, # of connection points: 2
#     Edge 41, Type (0, 1), BuildingBlock: MIFKUJ_clean_linker_0, # of connection points: 2
#     Edge 42, Type (0, 1), BuildingBlock: MIFKUJ_clean_linker_0, # of connection points: 2
#     Edge 43, Type (0, 1), BuildingBlock: MIFKUJ_clean_linker_0, # of connection points: 2
#     Edge 44, Type (0, 1), BuildingBlock: MIFKUJ_clean_linker_0, # of connection points: 2
#     Edge 45, Type (0, 1), BuildingBlock: MIFKUJ_clean_linker_0, # of connection points: 2
#     Edge 46, Type (0, 1), BuildingBlock: MIFKUJ_clean_linker_0, # of connection points: 2
#     Edge 47, Type (0, 1), BuildingBlock: MIFKUJ_clean_linker_0, # of connection points: 2
#     Edge 48, Type (0, 1), BuildingBlock: MIFKUJ_clean_linker_0, # of connection points: 2
#     Edge 49, Type (0, 1), BuildingBlock: MIFKUJ_clean_linker_0, # of connection points: 2
#     Edge 50, Type (0, 1), BuildingBlock: MIFKUJ_clean_linker_0, # of connection points: 2
#     Edge 51, Type (0, 1), BuildingBlock: MIFKUJ_clean_linker_0, # of connection points: 2
#     Edge 52, Type (0, 1), BuildingBlock: MIFKUJ_clean_linker_0, # of connection points: 2
#     Edge 53, Type (0, 1), BuildingBlock: MIFKUJ_clean_linker_0, # of connection points: 2
#     Edge 54, Type (0, 1), BuildingBlock: MIFKUJ_clean_linker_0, # of connection points: 2
#     Edge 55, Type (0, 1), BuildingBlock: MIFKUJ_clean_linker_0, # of connection points: 2
#     Edge 56, Type (0, 1), BuildingBlock: MIFKUJ_clean_linker_0, # of connection points: 2
#     Edge 57, Type (0, 1), BuildingBlock: MIFKUJ_clean_linker_0, # of connection points: 2
#     Edge 58, Type (0, 1), BuildingBlock: MIFKUJ_clean_linker_0, # of connection points: 2
#     Edge 59, Type (0, 1), BuildingBlock: MIFKUJ_clean_linker_0, # of connection points: 2
#     Edge 60, Type (0, 1), BuildingBlock: MIFKUJ_clean_linker_0, # of connection points: 2
#     Edge 61, Type (0, 1), BuildingBlock: MIFKUJ_clean_linker_0, # of connection points: 2
#     Edge 62, Type (0, 1), BuildingBlock: MIFKUJ_clean_linker_0, # of connection points: 2
#     Edge 63, Type (0, 1), BuildingBlock: MIFKUJ_clean_linker_0, # of connection points: 2
#     Edge 64, Type (0, 1), BuildingBlock: MIFKUJ_clean_linker_0, # of connection points: 2
#     Edge 65, Type (0, 1), BuildingBlock: MIFKUJ_clean_linker_0, # of connection points: 2
#     Edge 66, Type (0, 1), BuildingBlock: MIFKUJ_clean_linker_0, # of connection points: 2
#     Edge 67, Type (0, 1), BuildingBlock: MIFKUJ_clean_linker_0, # of connection points: 2
#     Edge 68, Type (0, 1), BuildingBlock: MIFKUJ_clean_linker_0, # of connection points: 2
#     Edge 69, Type (0, 1), BuildingBlock: MIFKUJ_clean_linker_0, # of connection points: 2
#     Edge 70, Type (0, 1), BuildingBlock: MIFKUJ_clean_linker_0, # of connection points: 2
#     Edge 71, Type (0, 1), BuildingBlock: MIFKUJ_clean_linker_0, # of connection points: 2
#     Edge 72, Type (0, 1), BuildingBlock: MIFKUJ_clean_linker_0, # of connection points: 2
#     Edge 73, Type (0, 1), BuildingBlock: MIFKUJ_clean_linker_0, # of connection points: 2
#     Edge 74, Type (0, 1), BuildingBlock: MIFKUJ_clean_linker_0, # of connection points: 2
#     Edge 75, Type (0, 1), BuildingBlock: MIFKUJ_clean_linker_0, # of connection points: 2
#     Edge 76, Type (0, 1), BuildingBlock: MIFKUJ_clean_linker_0, # of connection points: 2
#     Edge 77, Type (0, 1), BuildingBlock: MIFKUJ_clean_linker_0, # of connection points: 2
#     Edge 78, Type (0, 1), BuildingBlock: MIFKUJ_clean_linker_0, # of connection points: 2
#     Edge 79, Type (0, 1), BuildingBlock: MIFKUJ_clean_linker_0, # of connection points: 2
#     Edge 80, Type (0, 1), BuildingBlock: MIFKUJ_clean_linker_0, # of connection points: 2
# Relax obj value: 0.016
# Max RMSD: 0.123
# Mean RMSD: 0.047
data_MOF--net-eea--node1-CUKXOW_clean_sbu_0--node2-BELTOD_clean_linker_0--edge1-MIFKUJ_clean_linker_0
_symmetry_space_group_name_H-M    P1
_symmetry_Int_Tables_number       1
_symmetry_cell_setting            triclinic
loop_
_symmetry_equiv_pos_as_xyz
'x, y, z'
_cell_length_a     79.110289
_cell_length_b     76.090763
_cell_length_c     84.755
_cell_angle_alpha  93.361945
_cell_angle_beta   92.973925
_cell_angle_gamma 119.95823
loop_
_atom_site_label
_atom_site_type_symbol
_atom_site_fract_x
_atom_site_fract_y
_atom_site_fract_z
_atom_type_partial_charge
P0 P 0.29576 0.16075 0.42093 0.0
H1 H 0.30561 0.13445 0.40168 0.0
H2 H 0.28765 0.09805 0.39315 0.0
H3 H 0.23819 0.09174 0.41707 0.0
H4 H 0.25668 0.12815 0.42608 0.0
H5 H 0.30244 0.20154 0.42912 0.0
H6 H 0.28605 0.21967 0.4199 0.0
H7 H 0.24524 0.16638 0.38866 0.0
H8 H 0.26169 0.14845 0.39778 0.0
H9 H 0.32467 0.15871 0.44208 0.0
H10 H 0.27456 0.16628 0.44646 0.0
O11 O 0.31751 0.1717 0.41357 0.0
H12 H 0.32914 0.15956 0.47096 0.0
H13 H 0.279 0.16725 0.47537 0.0
C14 C 0.28237 0.13398 0.41436 0.0
C15 C 0.2909 0.12524 0.40508 0.0
C16 C 0.28054 0.10441 0.40012 0.0
C17 C 0.26138 0.09193 0.4043 0.0
C18 C 0.25297 0.1008 0.41376 0.0
C19 C 0.26344 0.12163 0.41882 0.0
C20 C 0.28303 0.17351 0.41444 0.0
C21 C 0.28987 0.19374 0.42038 0.0
C22 C 0.28057 0.2041 0.41505 0.0
C23 C 0.26428 0.19437 0.40365 0.0
C24 C 0.25754 0.17413 0.39766 0.0
C25 C 0.26695 0.16385 0.4029 0.0
C26 C 0.29963 0.16298 0.4422 0.0
C27 C 0.3148 0.16083 0.44929 0.0
C28 C 0.31723 0.16115 0.46576 0.0
C29 C 0.30447 0.16357 0.4754 0.0
C30 C 0.28924 0.1657 0.46824 0.0
C31 C 0.28671 0.16518 0.45173 0.0
P32 P 0.89108 0.11039 0.44752 0.0
H33 H 0.88495 0.08092 0.42114 0.0
H34 H 0.85545 0.05504 0.40476 0.0
H35 H 0.82132 0.07724 0.42769 0.0
H36 H 0.85083 0.10337 0.44373 0.0
H37 H 0.92643 0.14693 0.46131 0.0
H38 H 0.95381 0.17439 0.44974 0.0
H39 H 0.92486 0.14742 0.40278 0.0
H40 H 0.89723 0.12061 0.41447 0.0
H41 H 0.87328 0.08953 0.47485 0.0
H42 H 0.89007 0.14762 0.4574 0.0
O43 O 0.90115 0.09686 0.45344 0.0
H44 H 0.86095 0.09882 0.49785 0.0
H45 H 0.87788 0.1571 0.4805 0.0
C46 C 0.87004 0.09383 0.43382 0.0
C47 C 0.87119 0.08047 0.42241 0.0
C48 C 0.85438 0.06578 0.41302 0.0
C49 C 0.83614 0.06411 0.41508 0.0
C50 C 0.8352 0.07815 0.42599 0.0
C51 C 0.85208 0.09305 0.43518 0.0
C52 C 0.90969 0.13186 0.43879 0.0
C53 C 0.92581 0.1472 0.44853 0.0
C54 C 0.94156 0.16277 0.44188 0.0
C55 C 0.94164 0.16308 0.4253 0.0
C56 C 0.92521 0.14786 0.41559 0.0
C57 C 0.90939 0.13239 0.42228 0.0
C58 C 0.88311 0.11813 0.46472 0.0
C59 C 0.87449 0.10438 0.47607 0.0
C60 C 0.86725 0.10961 0.4891 0.0
C61 C 0.8685 0.1287 0.49097 0.0
C62 C 0.87695 0.14239 0.47944 0.0
C63 C 0.88401 0.13703 0.4663 0.0
P64 P 0.86326 0.71541 0.43117 0.0
H65 H 0.84195 0.7102 0.40049 0.0
H66 H 0.82368 0.72583 0.39018 0.0
H67 H 0.83836 0.76315 0.43478 0.0
H68 H 0.85706 0.74785 0.44479 0.0
H69 H 0.89072 0.70187 0.42365 0.0
H70 H 0.92475 0.71991 0.4173 0.0
H71 H 0.92556 0.77711 0.42361 0.0
H72 H 0.89141 0.75889 0.42982 0.0
H73 H 0.8303 0.70364 0.45005 0.0
H74 H 0.89152 0.72243 0.45831 0.0
O75 O 0.85265 0.69171 0.42231 0.0
H76 H 0.82659 0.69973 0.47824 0.0
H77 H 0.8878 0.71787 0.48644 0.0
C78 C 0.85043 0.72753 0.42352 0.0
C79 C 0.84122 0.72174 0.40803 0.0
C80 C 0.83071 0.73063 0.40218 0.0
C81 C 0.82935 0.74558 0.41172 0.0
C82 C 0.83918 0.75177 0.42709 0.0
C83 C 0.84972 0.7429 0.43289 0.0
C84 C 0.88843 0.729 0.42681 0.0
C85 C 0.8982 0.71828 0.42362 0.0
C86 C 0.91771 0.72864 0.42014 0.0
C87 C 0.92782 0.74993 0.41988 0.0
C88 C 0.91807 0.76067 0.42348 0.0
C89 C 0.89856 0.75028 0.42703 0.0
C90 C 0.86123 0.71365 0.45213 0.0
C91 C 0.84298 0.70703 0.45797 0.0
C92 C 0.84085 0.70463 0.47407 0.0
C93 C 0.8569 0.70845 0.48462 0.0
C94 C 0.87522 0.71511 0.4787 0.0
C95 C 0.87734 0.71763 0.46257 0.0
P96 P 0.13973 0.29264 0.57513 0.0
H97 H 0.12696 0.2898 0.60677 0.0
H98 H 0.09472 0.27451 0.61682 0.0
H99 H 0.06737 0.25359 0.56876 0.0
H100 H 0.09967 0.2694 0.55881 0.0
H101 H 0.18051 0.3032 0.57908 0.0
H102 H 0.19644 0.28363 0.58511 0.0
H103 H 0.13968 0.22923 0.58447 0.0
H104 H 0.12385 0.24905 0.57866 0.0
H105 H 0.15031 0.32874 0.55844 0.0
H106 H 0.12847 0.26473 0.54616 0.0
O107 O 0.15337 0.31532 0.58556 0.0
H108 H 0.15184 0.3344 0.53034 0.0
H109 H 0.12977 0.27031 0.51789 0.0
C110 C 0.11571 0.28103 0.58206 0.0
C111 C 0.114 0.282 0.5984 0.0
C112 C 0.09556 0.27307 0.60414 0.0
C113 C 0.07844 0.26285 0.5936 0.0
C114 C 0.08025 0.26163 0.57719 0.0
C115 C 0.09874 0.27061 0.57147 0.0
C116 C 0.15105 0.27767 0.57881 0.0
C117 C 0.17151 0.28706 0.58025 0.0
C118 C 0.18059 0.27581 0.58355 0.0
C119 C 0.16932 0.25488 0.58536 0.0
C120 C 0.14876 0.24539 0.58341 0.0
C121 C 0.13969 0.25669 0.58008 0.0
C122 C 0.1395 0.29636 0.55437 0.0
C123 C 0.14578 0.31588 0.5497 0.0
C124 C 0.14668 0.31911 0.53365 0.0
C125 C 0.14106 0.30281 0.52198 0.0
C126 C 0.13413 0.28311 0.52665 0.0
C127 C 0.13347 0.27994 0.54277 0.0
P128 P 0.79726 0.89194 0.55451 0.0
H129 H 0.82646 0.92883 0.57383 0.0
H130 H 0.82432 0.95545 0.58958 0.0
H131 H 0.76129 0.92171 0.57969 0.0
H132 H 0.76361 0.89522 0.56376 0.0
H133 H 0.81577 0.86743 0.55078 0.0
H134 H 0.81487 0.84017 0.56514 0.0
H135 H 0.77548 0.84483 0.59636 0.0
H136 H 0.77614 0.8719 0.58162 0.0
H137 H 0.78449 0.91196 0.53279 0.0
H138 H 0.76921 0.85026 0.53999 0.0
O139 O 0.81881 0.90383 0.54689 0.0
H140 H 0.76044 0.8994 0.50963 0.0
H141 H 0.74499 0.83757 0.5169 0.0
C142 C 0.79525 0.91036 0.56734 0.0
C143 C 0.81218 0.92713 0.57511 0.0
C144 C 0.81091 0.94226 0.58422 0.0
C145 C 0.79264 0.94078 0.58577 0.0
C146 C 0.77561 0.92346 0.57848 0.0
C147 C 0.77691 0.9083 0.56941 0.0
C148 C 0.79643 0.87201 0.56541 0.0
C149 C 0.80704 0.86268 0.56078 0.0
C150 C 0.80655 0.84713 0.56903 0.0
C151 C 0.79533 0.84054 0.58205 0.0
C152 C 0.78424 0.84956 0.58638 0.0
C153 C 0.78474 0.86514 0.57806 0.0
C154 C 0.77848 0.88206 0.5382 0.0
C155 C 0.77577 0.89568 0.5295 0.0
C156 C 0.76196 0.88847 0.51631 0.0
C157 C 0.75075 0.86748 0.51149 0.0
C158 C 0.75349 0.85384 0.52028 0.0
C159 C 0.76728 0.86108 0.53354 0.0
P160 P 0.13752 0.8446 0.57849 0.0
H161 H 0.16272 0.86496 0.60796 0.0
H162 H 0.18163 0.90076 0.61869 0.0
H163 H 0.15886 0.91736 0.57831 0.0
H164 H 0.1404 0.88164 0.56753 0.0
H165 H 0.11338 0.80637 0.59227 0.0
H166 H 0.07991 0.78988 0.59986 0.0
H167 H 0.07346 0.83923 0.58368 0.0
H168 H 0.10715 0.85583 0.57638 0.0
H169 H 0.1697 0.86396 0.55889 0.0
H170 H 0.10715 0.82333 0.55149 0.0
O171 O 0.14885 0.83276 0.58553 0.0
H172 H 0.17153 0.86375 0.53021 0.0
H173 H 0.1088 0.82337 0.52278 0.0
C174 C 0.15051 0.87075 0.58682 0.0
C175 C 0.16184 0.87633 0.60143 0.0
C176 C 0.17251 0.89678 0.6076 0.0
C177 C 0.17189 0.91194 0.59928 0.0
C178 C 0.15997 0.90612 0.58486 0.0
C179 C 0.14934 0.88569 0.57872 0.0
C180 C 0.11282 0.83246 0.58399 0.0
C181 C 0.1048 0.81369 0.59041 0.0
C182 C 0.08559 0.80418 0.59461 0.0
C183 C 0.07401 0.81325 0.59238 0.0
C184 C 0.08208 0.832 0.58576 0.0
C185 C 0.10132 0.84149 0.58157 0.0
C186 C 0.1383 0.84389 0.55731 0.0
C187 C 0.15634 0.8551 0.55107 0.0
C188 C 0.15734 0.85508 0.53469 0.0
C189 C 0.14027 0.84371 0.52422 0.0
C190 C 0.12221 0.83222 0.53054 0.0
C191 C 0.12124 0.83229 0.54697 0.0
P192 P 0.9486 0.48364 0.76137 0.0
H193 H 0.95856 0.46293 0.73655 0.0
H194 H 0.94353 0.42732 0.72603 0.0
H195 H 0.89675 0.41153 0.75651 0.0
H196 H 0.91262 0.44703 0.76761 0.0
H197 H 0.96418 0.52497 0.7524 0.0
H198 H 0.9487 0.54326 0.74193 0.0
H199 H 0.89179 0.48926 0.74199 0.0
H200 H 0.90736 0.47123 0.75279 0.0
H201 H 0.95916 0.46322 0.78437 0.0
H202 H 0.93788 0.50555 0.78508 0.0
O203 O 0.972 0.49542 0.75742 0.0
H204 H 0.96059 0.46469 0.81328 0.0
H205 H 0.93892 0.50681 0.81401 0.0
C206 C 0.93677 0.45756 0.75292 0.0
C207 C 0.9451 0.45178 0.74098 0.0
C208 C 0.93634 0.43138 0.73486 0.0
C209 C 0.91888 0.41643 0.74041 0.0
C210 C 0.91036 0.42248 0.75215 0.0
C211 C 0.9193 0.44284 0.75841 0.0
C212 C 0.93697 0.4966 0.75303 0.0
C213 C 0.94838 0.517 0.75003 0.0
C214 C 0.93951 0.52743 0.744 0.0
C215 C 0.91901 0.51765 0.74098 0.0
C216 C 0.9076 0.49725 0.74425 0.0
C217 C 0.91652 0.48685 0.75029 0.0
C218 C 0.94826 0.4841 0.78258 0.0
C219 C 0.95454 0.47262 0.79076 0.0
C220 C 0.95522 0.47338 0.80728 0.0
C221 C 0.94973 0.48577 0.81595 0.0
C222 C 0.94334 0.49721 0.80768 0.0
C223 C 0.94265 0.49641 0.79111 0.0
P224 P 0.5614 0.44129 0.78651 0.0
H225 H 0.54423 0.39705 0.78339 0.0
H226 H 0.51676 0.36967 0.76643 0.0
H227 H 0.50642 0.41389 0.74474 0.0
H228 H 0.53384 0.44132 0.76211 0.0
H229 H 0.59524 0.4436 0.77271 0.0
H230 H 0.61943 0.46797 0.75674 0.0
H231 H 0.58914 0.50207 0.75678 0.0
H232 H 0.565 0.4776 0.77297 0.0
H233 H 0.5239 0.42748 0.79994 0.0
H234 H 0.58148 0.48105 0.80499 0.0
O235 O 0.57259 0.43144 0.79693 0.0
H236 H 0.51434 0.44192 0.82179 0.0
H237 H 0.57185 0.49592 0.82656 0.0
C238 C 0.54116 0.42121 0.77388 0.0
C239 C 0.53611 0.4009 0.77497 0.0
C240 C 0.52045 0.38525 0.76518 0.0
C241 C 0.50951 0.3896 0.75411 0.0
C242 C 0.51449 0.41002 0.75319 0.0
C243 C 0.53021 0.42571 0.76302 0.0
C244 C 0.57866 0.45912 0.77434 0.0
C245 C 0.59382 0.45634 0.76931 0.0
C246 C 0.60753 0.47018 0.76006 0.0
C247 C 0.60623 0.48699 0.75554 0.0
C248 C 0.59068 0.48943 0.76027 0.0
C249 C 0.57689 0.47547 0.76949 0.0
C250 C 0.55327 0.45339 0.8006 0.0
C251 C 0.53431 0.44262 0.80544 0.0
C252 C 0.52884 0.45094 0.81793 0.0
C253 C 0.54232 0.47011 0.82593 0.0
C254 C 0.56117 0.48105 0.82076 0.0
C255 C 0.56663 0.47266 0.80831 0.0
P256 P 0.53025 0.04491 0.75895 0.0
H257 H 0.51591 0.04988 0.72822 0.0
H258 H 0.49782 0.06672 0.72026 0.0
H259 H 0.50044 0.08747 0.76938 0.0
H260 H 0.51833 0.07039 0.77725 0.0
H261 H 0.55771 0.03144 0.75159 0.0
H262 H 0.59222 0.04959 0.74666 0.0
H263 H 0.59362 0.10697 0.75459 0.0
H264 H 0.55887 0.08857 0.75916 0.0
H265 H 0.49757 0.01541 0.77475 0.0
H266 H 0.55701 0.06368 0.78821 0.0
O267 O 0.51947 0.02259 0.74781 0.0
H268 H 0.49335 0.00834 0.8025 0.0
H269 H 0.55284 0.05686 0.81598 0.0
C270 C 0.51808 0.05853 0.75332 0.0
C271 C 0.51261 0.0581 0.73726 0.0
C272 C 0.5024 0.06786 0.73272 0.0
C273 C 0.49756 0.07833 0.7442 0.0
C274 C 0.50364 0.07925 0.76028 0.0
C275 C 0.51391 0.06951 0.76479 0.0
C276 C 0.55567 0.05864 0.75534 0.0
C277 C 0.56542 0.04792 0.75216 0.0
C278 C 0.58522 0.05835 0.74953 0.0
C279 C 0.5957 0.07976 0.75021 0.0
C280 C 0.58591 0.09048 0.75374 0.0
C281 C 0.56606 0.07999 0.75636 0.0
C282 C 0.52767 0.0398 0.7794 0.0
C283 C 0.50974 0.02441 0.78369 0.0
C284 C 0.50731 0.0205 0.79955 0.0
C285 C 0.5228 0.032 0.81143 0.0
C286 C 0.54075 0.04752 0.80707 0.0
C287 C 0.54312 0.05147 0.79119 0.0
P288 P 0.80342 0.62626 0.91034 0.0
H289 H 0.78854 0.6397 0.93635 0.0
H290 H 0.75631 0.62568 0.9462 0.0
H291 H 0.73338 0.57445 0.91042 0.0
H292 H 0.76582 0.58861 0.90058 0.0
H293 H 0.84369 0.64157 0.92351 0.0
H294 H 0.86172 0.62465 0.93128 0.0
H295 H 0.80942 0.56603 0.91914 0.0
H296 H 0.79144 0.58305 0.91141 0.0
H297 H 0.77346 0.62083 0.88512 0.0
H298 H 0.83254 0.63164 0.88872 0.0
O299 O 0.81634 0.65081 0.91736 0.0
H300 H 0.77377 0.6216 0.85643 0.0
H301 H 0.83351 0.63383 0.86029 0.0
C302 C 0.77953 0.61537 0.91757 0.0
C303 C 0.7766 0.6255 0.93055 0.0
C304 C 0.75813 0.61749 0.93616 0.0
C305 C 0.74226 0.59906 0.92899 0.0
C306 C 0.74535 0.58864 0.91623 0.0
C307 C 0.76386 0.59674 0.91058 0.0
C308 C 0.81609 0.6136 0.91721 0.0
C309 C 0.83601 0.62508 0.9227 0.0
C310 C 0.84637 0.61539 0.92698 0.0
C311 C 0.83698 0.594 0.92582 0.0
C312 C 0.81698 0.58253 0.92035 0.0
C313 C 0.80667 0.59226 0.91596 0.0
C314 C 0.80273 0.62542 0.88903 0.0
C315 C 0.78641 0.62305 0.87974 0.0
C316 C 0.78673 0.62384 0.8633 0.0
C317 C 0.80362 0.62763 0.8559 0.0
C318 C 0.82002 0.63027 0.86539 0.0
C319 C 0.81954 0.62913 0.88174 0.0
P320 P 0.44873 0.22766 0.8966 0.0
H321 H 0.47579 0.25451 0.92302 0.0
H322 H 0.47669 0.28153 0.94073 0.0
H323 H 0.42089 0.26842 0.91798 0.0
H324 H 0.4198 0.24096 0.90069 0.0
H325 H 0.45978 0.19773 0.88765 0.0
H326 H 0.45964 0.17013 0.90104 0.0
H327 H 0.43485 0.18428 0.94074 0.0
H328 H 0.43448 0.2115 0.92699 0.0
H329 H 0.44253 0.24813 0.87108 0.0
H330 H 0.41383 0.18754 0.88626 0.0
O331 O 0.47032 0.23942 0.88904 0.0
H332 H 0.41914 0.23603 0.84747 0.0
H333 H 0.39038 0.17533 0.86266 0.0
C334 C 0.44794 0.24604 0.91038 0.0
C335 C 0.46368 0.25736 0.92196 0.0
C336 C 0.46421 0.27285 0.93202 0.0
C337 C 0.44899 0.27733 0.93061 0.0
C338 C 0.4328 0.2653 0.91942 0.0
C339 C 0.43225 0.24971 0.90941 0.0
C340 C 0.44759 0.20691 0.9065 0.0
C341 C 0.4543 0.19486 0.89923 0.0
C342 C 0.45428 0.17916 0.90694 0.0
C343 C 0.44753 0.17523 0.92208 0.0
C344 C 0.44011 0.18689 0.92908 0.0
C345 C 0.44006 0.20258 0.92129 0.0
C346 C 0.43005 0.21871 0.88029 0.0
C347 C 0.43106 0.23226 0.86939 0.0
C348 C 0.41762 0.22535 0.85597 0.0
C349 C 0.40298 0.2047 0.85319 0.0
C350 C 0.40165 0.19127 0.86442 0.0
C351 C 0.41504 0.19825 0.87792 0.0
P352 P 0.80437 0.18444 0.91088 0.0
H353 H 0.82478 0.20449 0.94189 0.0
H354 H 0.84373 0.24023 0.95258 0.0
H355 H 0.83198 0.25803 0.90761 0.0
H356 H 0.8122 0.22225 0.89741 0.0
H357 H 0.78429 0.15328 0.93249 0.0
H358 H 0.75144 0.13772 0.94138 0.0
H359 H 0.73812 0.17492 0.91246 0.0
H360 H 0.77126 0.19066 0.90367 0.0
H361 H 0.83595 0.20219 0.89055 0.0
H362 H 0.77338 0.16141 0.88443 0.0
O363 O 0.81592 0.17295 0.91819 0.0
H364 H 0.83714 0.19991 0.86184 0.0
H365 H 0.77434 0.15959 0.85566 0.0
C366 C 0.8176 0.21078 0.91873 0.0
C367 C 0.82628 0.21613 0.93438 0.0
C368 C 0.83723 0.2366 0.94042 0.0
C369 C 0.83973 0.25213 0.93088 0.0
C370 C 0.83035 0.24656 0.91535 0.0
C371 C 0.8192 0.22606 0.9094 0.0
C372 C 0.78007 0.1729 0.91724 0.0
C373 C 0.77434 0.1581 0.92802 0.0
C374 C 0.75559 0.14929 0.93318 0.0
C375 C 0.74223 0.15509 0.92758 0.0
C376 C 0.74807 0.17003 0.91683 0.0
C377 C 0.76695 0.17903 0.91183 0.0
C378 C 0.80455 0.1824 0.88962 0.0
C379 C 0.82242 0.19295 0.883 0.0
C380 C 0.82306 0.19174 0.86657 0.0
C381 C 0.80579 0.17981 0.85642 0.0
C382 C 0.7879 0.16891 0.86313 0.0
C383 C 0.78731 0.17011 0.87961 0.0
P384 P 0.6227 0.829 0.0898 0.0
H385 H 0.63053 0.80872 0.06318 0.0
H386 H 0.61386 0.77335 0.05142 0.0
H387 H 0.56984 0.7573 0.08458 0.0
H388 H 0.58679 0.79269 0.0964 0.0
H389 H 0.63235 0.85745 0.0656 0.0
H390 H 0.61581 0.87421 0.05428 0.0
H391 H 0.56943 0.84462 0.08496 0.0
H392 H 0.58572 0.82717 0.09565 0.0
H393 H 0.62973 0.80489 0.1117 0.0
H394 H 0.61799 0.8545 0.11483 0.0
O395 O 0.64589 0.84069 0.08531 0.0
H396 H 0.63184 0.80557 0.14052 0.0
H397 H 0.61897 0.85457 0.14363 0.0
C398 C 0.61011 0.80315 0.08086 0.0
C399 C 0.61732 0.79757 0.06793 0.0
C400 C 0.60768 0.77739 0.06113 0.0
C401 C 0.59059 0.76251 0.06714 0.0
C402 C 0.58314 0.76834 0.07986 0.0
C403 C 0.59277 0.78854 0.0866 0.0
C404 C 0.61052 0.84154 0.08177 0.0
C405 C 0.61866 0.85464 0.06993 0.0
C406 C 0.6092 0.86429 0.06351 0.0
C407 C 0.59139 0.86103 0.06885 0.0
C408 C 0.58304 0.84742 0.08048 0.0
C409 C 0.59244 0.8376 0.08674 0.0
C410 C 0.62311 0.8292 0.11108 0.0
C411 C 0.62719 0.81565 0.11859 0.0
C412 C 0.62825 0.81598 0.1351 0.0
C413 C 0.62529 0.82993 0.14447 0.0
C414 C 0.6214 0.84366 0.13685 0.0
C415 C 0.62057 0.84346 0.12031 0.0
P416 P 0.23726 0.77171 0.12568 0.0
H417 H 0.22892 0.73351 0.10859 0.0
H418 H 0.20137 0.7082 0.09033 0.0
H419 H 0.17506 0.74612 0.09224 0.0
H420 H 0.20289 0.77156 0.1105 0.0
H421 H 0.27357 0.77552 0.11573 0.0
H422 H 0.30017 0.80122 0.10226 0.0
H423 H 0.26966 0.83493 0.09908 0.0
H424 H 0.243 0.80904 0.11269 0.0
H425 H 0.20019 0.75581 0.14004 0.0
H426 H 0.25652 0.81107 0.14514 0.0
O427 O 0.24595 0.75889 0.13526 0.0
H428 H 0.1898 0.76912 0.16204 0.0
H429 H 0.24614 0.82459 0.1671 0.0
C430 C 0.21762 0.75408 0.11125 0.0
C431 C 0.21727 0.73643 0.10504 0.0
C432 C 0.20159 0.72204 0.09451 0.0
C433 C 0.18597 0.7251 0.08996 0.0
C434 C 0.18675 0.74323 0.09573 0.0
C435 C 0.20261 0.75775 0.10614 0.0
C436 C 0.25656 0.79066 0.11552 0.0
C437 C 0.27262 0.78847 0.1122 0.0
C438 C 0.28776 0.8031 0.10439 0.0
C439 C 0.28708 0.82017 0.09969 0.0
C440 C 0.27074 0.82211 0.10278 0.0
C441 C 0.2555 0.80734 0.11051 0.0
C442 C 0.22887 0.78274 0.14052 0.0
C443 C 0.21014 0.77106 0.14558 0.0
C444 C 0.20421 0.77868 0.15819 0.0
C445 C 0.21708 0.79799 0.16623 0.0
C446 C 0.23589 0.80966 0.16116 0.0
C447 C 0.24176 0.80203 0.14848 0.0
P448 P 0.19127 0.37396 0.09463 0.0
H449 H 0.18424 0.38894 0.06576 0.0
H450 H 0.16629 0.40643 0.05937 0.0
H451 H 0.15419 0.40818 0.10842 0.0
H452 H 0.17183 0.39037 0.11463 0.0
H453 H 0.21467 0.35867 0.08016 0.0
H454 H 0.24732 0.37557 0.07093 0.0
H455 H 0.25458 0.43417 0.08693 0.0
H456 H 0.22153 0.41705 0.09564 0.0
H457 H 0.16443 0.34113 0.11232 0.0
H458 H 0.21889 0.39802 0.12249 0.0
O459 O 0.1783 0.35138 0.08394 0.0
H460 H 0.16398 0.33576 0.14044 0.0
H461 H 0.21841 0.39291 0.15074 0.0
C462 C 0.1794 0.38838 0.09063 0.0
C463 C 0.17785 0.39326 0.07515 0.0
C464 C 0.16767 0.40335 0.07154 0.0
C465 C 0.15879 0.40871 0.08339 0.0
C466 C 0.16066 0.40406 0.09898 0.0
C467 C 0.17087 0.39396 0.10257 0.0
C468 C 0.2156 0.38664 0.08833 0.0
C469 C 0.22326 0.37516 0.08161 0.0
C470 C 0.24203 0.38487 0.07646 0.0
C471 C 0.25361 0.40627 0.07814 0.0
C472 C 0.24595 0.4177 0.08519 0.0
C473 C 0.22711 0.40794 0.09025 0.0
C474 C 0.19188 0.36976 0.11528 0.0
C475 C 0.1764 0.35238 0.12059 0.0
C476 C 0.17608 0.34942 0.1367 0.0
C477 C 0.19118 0.36391 0.14783 0.0
C478 C 0.20672 0.38133 0.14244 0.0
C479 C 0.20699 0.38428 0.12629 0.0
P480 P 0.45866 0.93951 0.23149 0.0
H481 H 0.44337 0.93133 0.26229 0.0
H482 H 0.41018 0.91636 0.27063 0.0
H483 H 0.38668 0.90368 0.22147 0.0
H484 H 0.41979 0.91883 0.21326 0.0
H485 H 0.50027 0.95433 0.23766 0.0
H486 H 0.51887 0.93777 0.24473 0.0
H487 H 0.46484 0.88005 0.24297 0.0
H488 H 0.44631 0.89689 0.23617 0.0
H489 H 0.45879 0.97054 0.21284 0.0
H490 H 0.45737 0.9134 0.20405 0.0
O491 O 0.47017 0.96279 0.24121 0.0
H492 H 0.45908 0.97438 0.18443 0.0
H493 H 0.45734 0.91694 0.17555 0.0
C494 C 0.43406 0.92636 0.23721 0.0
C495 C 0.43103 0.92513 0.25333 0.0
C496 C 0.41206 0.91648 0.25806 0.0
C497 C 0.39582 0.90895 0.24669 0.0
C498 C 0.39892 0.90962 0.2305 0.0
C499 C 0.41788 0.91823 0.2258 0.0
C500 C 0.47194 0.92692 0.23678 0.0
C501 C 0.49244 0.93813 0.23889 0.0
C502 C 0.50305 0.92859 0.24275 0.0
C503 C 0.49334 0.90757 0.24444 0.0
C504 C 0.47274 0.8963 0.24199 0.0
C505 C 0.46213 0.9059 0.23811 0.0
C506 C 0.45865 0.94201 0.21054 0.0
C507 C 0.45856 0.95884 0.20477 0.0
C508 C 0.45848 0.96088 0.18851 0.0
C509 C 0.45832 0.946 0.17774 0.0
C510 C 0.45777 0.92881 0.18357 0.0
C511 C 0.45784 0.92679 0.19985 0.0
P512 P 0.12636 0.56047 0.22978 0.0
H513 H 0.15146 0.58649 0.25744 0.0
H514 H 0.15153 0.6136 0.27445 0.0
H515 H 0.09842 0.60247 0.24782 0.0
H516 H 0.09799 0.57486 0.23142 0.0
H517 H 0.13507 0.5287 0.22109 0.0
H518 H 0.13315 0.50044 0.23469 0.0
H519 H 0.11004 0.51731 0.27423 0.0
H520 H 0.11137 0.54514 0.26025 0.0
H521 H 0.12333 0.58163 0.20344 0.0
H522 H 0.09062 0.52134 0.21874 0.0
O523 O 0.14862 0.57192 0.22333 0.0
H524 H 0.10038 0.57088 0.17962 0.0
H525 H 0.06771 0.51045 0.19485 0.0
C526 C 0.12495 0.57894 0.24303 0.0
C527 C 0.13974 0.58979 0.25541 0.0
C528 C 0.13981 0.60536 0.26504 0.0
C529 C 0.12513 0.61044 0.26237 0.0
C530 C 0.10988 0.59891 0.2503 0.0
C531 C 0.10974 0.58321 0.24077 0.0
C532 C 0.12378 0.53922 0.23981 0.0
C533 C 0.12954 0.52625 0.23267 0.0
C534 C 0.12851 0.51017 0.24049 0.0
C535 C 0.12174 0.50682 0.25566 0.0
C536 C 0.11528 0.51945 0.26254 0.0
C537 C 0.11621 0.53549 0.25462 0.0
C538 C 0.10882 0.55224 0.21271 0.0
C539 C 0.11118 0.56609 0.20166 0.0
C540 C 0.098 0.55998 0.18814 0.0
C541 C 0.0823 0.53982 0.1854 0.0
C542 C 0.07981 0.52602 0.19662 0.0
C543 C 0.0929 0.53224 0.21026 0.0
P544 P 0.47599 0.5084 0.25057 0.0
H545 H 0.49726 0.53008 0.28105 0.0
H546 H 0.51557 0.56625 0.2908 0.0
H547 H 0.50157 0.58138 0.24544 0.0
H548 H 0.48302 0.54524 0.23592 0.0
H549 H 0.44696 0.4662 0.25352 0.0
H550 H 0.41271 0.44945 0.25939 0.0
H551 H 0.41539 0.50771 0.26279 0.0
H552 H 0.44952 0.52426 0.25663 0.0
H553 H 0.50456 0.50538 0.23197 0.0
H554 H 0.45083 0.50626 0.22301 0.0
O555 O 0.48653 0.49689 0.25958 0.0
H556 H 0.50772 0.50381 0.20342 0.0
H557 H 0.45383 0.50457 0.19446 0.0
C558 C 0.48917 0.53502 0.25767 0.0
C559 C 0.49819 0.5412 0.27321 0.0
C560 C 0.50869 0.56188 0.27874 0.0
C561 C 0.51018 0.5767 0.26884 0.0
C562 C 0.50063 0.57035 0.25339 0.0
C563 C 0.49016 0.54967 0.24788 0.0
C564 C 0.45087 0.49649 0.25501 0.0
C565 C 0.44018 0.47536 0.25561 0.0
C566 C 0.42063 0.46582 0.25899 0.0
C567 C 0.41138 0.47728 0.2617 0.0
C568 C 0.42205 0.49844 0.26069 0.0
C569 C 0.44163 0.50796 0.25732 0.0
C570 C 0.47728 0.50553 0.22955 0.0
C571 C 0.49329 0.50491 0.22383 0.0
C572 C 0.49507 0.50401 0.20753 0.0
C573 C 0.48099 0.50401 0.19671 0.0
C574 C 0.46497 0.50467 0.20252 0.0
C575 C 0.46314 0.50544 0.21882 0.0
Tb576 Tb 0.51869 0.01887 0.99575 0.0
C577 C 0.50976 0.97687 0.00619 0.0
Tb578 Tb 0.47618 0.98849 0.00242 0.0
O579 O 0.52841 0.02134 0.02086 0.0
O580 O 0.50025 0.0153 0.01389 0.0
O581 O 0.52117 0.992 0.99785 0.0
C582 C 0.44473 0.96389 0.01682 0.0
O583 O 0.49275 0.97409 0.01058 0.0
C584 C 0.48296 0.98993 0.97258 0.0
C585 C 0.48538 0.03099 0.99207 0.0
O586 O 0.45039 0.95855 0.00421 0.0
O587 O 0.45659 0.98308 0.02112 0.0
O588 O 0.46584 0.98472 0.97735 0.0
O589 O 0.49455 0.9919 0.98422 0.0
O590 O 0.47286 0.0147 0.99887 0.0
O591 O 0.50312 0.03468 0.98896 0.0
C592 C 0.55175 0.04416 0.9834 0.0
O593 O 0.54847 0.04518 0.99816 0.0
O594 O 0.53637 0.02895 0.97555 0.0
C595 C 0.51148 0.01683 0.0256 0.0
Tb596 Tb 0.98183 0.50731 -3e-05 0.0
C597 C 0.02286 0.53931 0.01668 0.0
Tb598 Tb 0.01041 0.49256 0.0102 0.0
O599 O 0.97981 0.51549 0.02468 0.0
O600 O 0.98561 0.49214 0.01879 0.0
O601 O 0.0083 0.53666 0.00642 0.0
C602 C 0.03511 0.48309 0.02477 0.0
O603 O 0.02494 0.52399 0.02118 0.0
C604 C 0.00743 0.49747 0.98004 0.0
C605 C 0.96912 0.46031 0.99415 0.0
O606 O 0.03922 0.49505 0.01351 0.0
O607 O 0.01715 0.47652 0.02784 0.0
O608 O 0.01155 0.48419 0.9852 0.0
O609 O 0.00678 0.50804 0.99166 0.0
O610 O 0.98398 0.46334 0.00418 0.0
O611 O 0.96684 0.47549 0.98957 0.0
C612 C 0.95716 0.51592 0.98429 0.0
O613 O 0.95318 0.50489 0.99616 0.0
O614 O 0.97514 0.52227 0.98129 0.0
C615 C 0.98455 0.50281 0.03022 0.0
Tb616 Tb 0.47693 0.50571 0.00595 0.0
C617 C 0.48656 0.47153 0.99524 0.0
Tb618 Tb 0.52095 0.51647 0.00238 0.0
O619 O 0.46847 0.50319 0.97996 0.0
O620 O 0.4961 0.51141 0.98881 0.0
O621 O 0.47509 0.47603 0.00342 0.0
C622 C 0.55611 0.52906 0.99188 0.0
O623 O 0.50352 0.48571 0.99076 0.0
C624 C 0.50787 0.50631 0.03029 0.0
C625 C 0.51156 0.55201 0.01093 0.0
O626 O 0.54532 0.51167 0.99738 0.0
O627 O 0.5472 0.53946 0.99245 0.0
O628 O 0.52262 0.50519 0.02537 0.0
O629 O 0.50329 0.51544 0.02064 0.0
O630 O 0.52444 0.54678 0.00627 0.0
O631 O 0.49294 0.53856 0.01288 0.0
C632 C 0.44308 0.49345 0.0184 0.0
O633 O 0.45078 0.50801 0.00912 0.0
O634 O 0.45461 0.4861 0.02084 0.0
C635 C 0.48592 0.50818 0.97609 0.0
Tb636 Tb 0.18985 0.35123 0.33303 0.0
C637 C 0.1797 0.30783 0.34195 0.0
Tb638 Tb 0.14719 0.32065 0.33849 0.0
O639 O 0.19905 0.35726 0.35854 0.0
O640 O 0.17035 0.34797 0.35036 0.0
O641 O 0.19134 0.3235 0.33414 0.0
C642 C 0.11453 0.29581 0.35152 0.0
O643 O 0.16229 0.30445 0.34571 0.0
C644 C 0.15573 0.32122 0.30893 0.0
C645 C 0.15736 0.36408 0.32962 0.0
O646 O 0.13224 0.30323 0.35802 0.0
O647 O 0.11518 0.30216 0.33758 0.0
O648 O 0.13818 0.31513 0.31293 0.0
O649 O 0.16672 0.32396 0.32117 0.0
O650 O 0.1455 0.34834 0.3373 0.0
O651 O 0.17469 0.36725 0.32582 0.0
C652 C 0.22295 0.37577 0.3204 0.0
O653 O 0.20541 0.36965 0.31403 0.0
O654 O 0.22182 0.36823 0.33388 0.0
C655 C 0.1815 0.35101 0.36258 0.0
Tb656 Tb 0.64465 0.83487 0.32916 0.0
C657 C 0.68453 0.86883 0.34621 0.0
Tb658 Tb 0.6757 0.82331 0.33931 0.0
O659 O 0.64161 0.84171 0.35391 0.0
O660 O 0.64961 0.82005 0.34766 0.0
O661 O 0.66973 0.86511 0.33579 0.0
C662 C 0.70238 0.81615 0.35344 0.0
O663 O 0.68795 0.85437 0.3508 0.0
C664 C 0.67254 0.82898 0.30936 0.0
C665 C 0.63523 0.78888 0.32311 0.0
O666 O 0.70541 0.828 0.34222 0.0
O667 O 0.68438 0.80848 0.35682 0.0
O668 O 0.67774 0.81635 0.31418 0.0
O669 O 0.67086 0.8385 0.32116 0.0
O670 O 0.65077 0.79307 0.33283 0.0
O671 O 0.6313 0.80312 0.31888 0.0
C672 C 0.6191 0.84184 0.31301 0.0
O673 O 0.61594 0.83247 0.32579 0.0
O674 O 0.63668 0.84737 0.30936 0.0
C675 C 0.64739 0.82969 0.3592 0.0
Tb676 Tb 0.14451 0.83439 0.34052 0.0
C677 C 0.15509 0.80237 0.32726 0.0
Tb678 Tb 0.18692 0.85009 0.33182 0.0
O679 O 0.13336 0.82466 0.31547 0.0
O680 O 0.16143 0.84921 0.322 0.0
O681 O 0.1428 0.80522 0.33567 0.0
C682 C 0.21849 0.85914 0.31658 0.0
O683 O 0.1718 0.81762 0.32321 0.0
C684 C 0.18148 0.84597 0.3618 0.0
C685 C 0.17665 0.88183 0.34605 0.0
O686 O 0.21432 0.85003 0.32949 0.0
O687 O 0.205 0.86331 0.31234 0.0
O688 O 0.198 0.85941 0.35696 0.0
O689 O 0.16988 0.83488 0.35007 0.0
O690 O 0.18839 0.87908 0.33687 0.0
O691 O 0.16015 0.8665 0.35028 0.0
C692 C 0.11285 0.82555 0.35556 0.0
O693 O 0.11753 0.83527 0.34295 0.0
O694 O 0.12586 0.82059 0.35958 0.0
C695 C 0.1498 0.8378 0.31035 0.0
Tb696 Tb 0.85439 0.68096 0.66772 0.0
C697 C 0.84249 0.63836 0.67909 0.0
Tb698 Tb 0.81077 0.65174 0.67294 0.0
O699 O 0.86364 0.68473 0.69304 0.0
O700 O 0.83531 0.67761 0.68542 0.0
O701 O 0.85476 0.65309 0.67087 0.0
C702 C 0.77663 0.62732 0.68407 0.0
O703 O 0.82561 0.63651 0.68285 0.0
C704 C 0.81868 0.65326 0.64321 0.0
C705 C 0.82238 0.69399 0.6608 0.0
O706 O 0.78476 0.62176 0.67349 0.0
O707 O 0.78776 0.64665 0.68846 0.0
O708 O 0.80129 0.64734 0.64754 0.0
O709 O 0.82983 0.65538 0.65524 0.0
O710 O 0.80949 0.67899 0.66854 0.0
O711 O 0.83959 0.69609 0.6578 0.0
C712 C 0.88865 0.70391 0.65609 0.0
O713 O 0.87968 0.7108 0.66466 0.0
O714 O 0.8784 0.68418 0.65416 0.0
C715 C 0.84634 0.6793 0.69737 0.0
Tb716 Tb 0.31231 0.16835 0.66352 0.0
C717 C 0.3543 0.20186 0.67784 0.0
Tb718 Tb 0.34197 0.15498 0.67313 0.0
O719 O 0.31174 0.17819 0.68805 0.0
O720 O 0.31766 0.15469 0.68278 0.0
O721 O 0.33843 0.19822 0.66883 0.0
C722 C 0.36834 0.14716 0.68694 0.0
O723 O 0.35744 0.18716 0.68222 0.0
C724 C 0.33675 0.15751 0.64277 0.0
C725 C 0.29992 0.12133 0.65961 0.0
O726 O 0.37053 0.1568 0.67441 0.0
O727 O 0.35132 0.14201 0.69179 0.0
O728 O 0.34156 0.14491 0.6483 0.0
O729 O 0.33675 0.16896 0.65408 0.0
O730 O 0.31572 0.12527 0.66884 0.0
O731 O 0.29688 0.13593 0.65476 0.0
C732 C 0.28674 0.17609 0.64823 0.0
O733 O 0.2837 0.16634 0.66079 0.0
O734 O 0.30418 0.1815 0.64428 0.0
C735 C 0.31717 0.16618 0.69387 0.0
Tb736 Tb 0.81355 0.16115 0.67445 0.0
C737 C 0.82308 0.12915 0.65915 0.0
Tb738 Tb 0.85583 0.17622 0.6658 0.0
O739 O 0.80165 0.15261 0.64966 0.0
O740 O 0.83057 0.17599 0.65583 0.0
O741 O 0.81121 0.13184 0.66826 0.0
C742 C 0.88943 0.18619 0.65329 0.0
O743 O 0.83999 0.14448 0.65547 0.0
C744 C 0.84979 0.17141 0.69578 0.0
C745 C 0.84606 0.20826 0.6801 0.0
O746 O 0.88316 0.17555 0.66528 0.0
O747 O 0.87667 0.19102 0.64821 0.0
O748 O 0.86624 0.18512 0.69112 0.0
O749 O 0.83844 0.16068 0.68387 0.0
O750 O 0.85737 0.20533 0.67053 0.0
O751 O 0.82978 0.19302 0.68465 0.0
C752 C 0.78219 0.15287 0.68976 0.0
O753 O 0.78772 0.16386 0.67788 0.0
O754 O 0.79415 0.14625 0.69288 0.0
C755 C 0.81825 0.16493 0.64432 0.0
H756 H 0.30511 0.86168 0.10543 0.0
H757 H 0.33258 0.88738 0.09252 0.0
H758 H 0.33334 0.83974 0.06288 0.0
H759 H 0.30608 0.81403 0.07586 0.0
H760 H 0.36956 0.86811 0.07374 0.0
H761 H 0.31324 0.86767 0.04881 0.0
H762 H 0.28331 0.87017 0.048 0.0
H763 H 0.31631 0.93119 0.07084 0.0
H764 H 0.34641 0.92895 0.07199 0.0
H765 H 0.42165 0.92273 0.01088 0.0
H766 H 0.3955 0.89961 0.02635 0.0
H767 H 0.40499 0.95079 0.05809 0.0
H768 H 0.43132 0.97398 0.04276 0.0
H769 H 0.36498 0.92266 0.04797 0.0
H770 H 0.42246 0.92419 0.06861 0.0
H771 H 0.45203 0.92127 0.06913 0.0
H772 H 0.41696 0.85753 0.05327 0.0
H773 H 0.38709 0.86011 0.05253 0.0
C774 C 0.31104 0.85671 0.09607 0.0
C775 C 0.30341 0.83584 0.09163 0.0
C776 C 0.32675 0.8714 0.08872 0.0
C777 C 0.33492 0.8655 0.07662 0.0
C778 C 0.32734 0.84466 0.07222 0.0
C779 C 0.31175 0.82998 0.07964 0.0
C780 C 0.35129 0.88095 0.06845 0.0
C781 C 0.36846 0.87985 0.06789 0.0
C782 C 0.3501 0.89669 0.06129 0.0
C783 C 0.33202 0.89806 0.06064 0.0
C784 C 0.31408 0.88156 0.05378 0.0
C785 C 0.29709 0.88294 0.05324 0.0
C786 C 0.2979 0.90081 0.05941 0.0
C787 C 0.3157 0.91735 0.0661 0.0
C788 C 0.33273 0.91604 0.06669 0.0
C789 C 0.41807 0.92903 0.0211 0.0
C790 C 0.42839 0.95009 0.02562 0.0
C791 C 0.4032 0.91584 0.02994 0.0
C792 C 0.39841 0.92353 0.04337 0.0
C793 C 0.40847 0.94461 0.04773 0.0
C794 C 0.42347 0.95779 0.03899 0.0
C795 C 0.383 0.90947 0.05292 0.0
C796 C 0.36608 0.9109 0.05381 0.0
C797 C 0.3844 0.89395 0.06026 0.0
C798 C 0.40244 0.89239 0.06046 0.0
C799 C 0.42099 0.90957 0.06513 0.0
C800 C 0.43785 0.90797 0.06549 0.0
C801 C 0.43639 0.88923 0.06121 0.0
C802 C 0.41806 0.87205 0.05659 0.0
C803 C 0.40115 0.87357 0.05624 0.0
H804 H 0.44946 0.88801 0.06149 0.0
H805 H 0.28473 0.90185 0.05897 0.0
H806 H 0.1671 0.4387 0.0636 0.0
H807 H 0.14648 0.45272 0.05552 0.0
H808 H 0.10333 0.41488 0.08605 0.0
H809 H 0.12356 0.40029 0.09377 0.0
H810 H 0.08657 0.4125 0.0573 0.0
H811 H 0.13246 0.46636 0.0957 0.0
H812 H 0.16511 0.49231 0.10827 0.0
H813 H 0.17791 0.52272 0.06567 0.0
H814 H 0.14543 0.49678 0.05275 0.0
H815 H 0.02763 0.4579 0.0482 0.0
H816 H 0.04911 0.4466 0.0599 0.0
H817 H 0.09376 0.48307 0.02987 0.0
H818 H 0.07237 0.49456 0.01826 0.0
H819 H 0.10942 0.48641 0.05962 0.0
H820 H 0.06453 0.4317 0.0208 0.0
H821 H 0.03196 0.40579 0.00804 0.0
H822 H 0.01758 0.37701 0.05132 0.0
H823 H 0.04998 0.40293 0.06442 0.0
C824 C 0.15322 0.43335 0.06859 0.0
C825 C 0.14697 0.41835 0.07932 0.0
C826 C 0.14153 0.44153 0.06409 0.0
C827 C 0.12343 0.43498 0.07029 0.0
C828 C 0.11727 0.42021 0.08115 0.0
C829 C 0.12894 0.41201 0.08566 0.0
C830 C 0.11048 0.44277 0.06484 0.0
C831 C 0.09147 0.42865 0.05806 0.0
C832 C 0.11702 0.46387 0.06547 0.0
C833 C 0.13657 0.47951 0.07321 0.0
C834 C 0.14229 0.47848 0.08896 0.0
C835 C 0.16076 0.49321 0.09616 0.0
C836 C 0.17359 0.50912 0.08776 0.0
C837 C 0.16796 0.51037 0.07215 0.0
C838 C 0.14952 0.49567 0.0649 0.0
C839 C 0.04204 0.4635 0.04412 0.0
C840 C 0.04833 0.47695 0.03225 0.0
C841 C 0.05426 0.45699 0.05076 0.0
C842 C 0.07294 0.46376 0.04559 0.0
C843 C 0.0794 0.47762 0.03401 0.0
C844 C 0.06716 0.4841 0.02734 0.0
C845 C 0.08561 0.45613 0.05202 0.0
C846 C 0.10453 0.47027 0.05896 0.0
C847 C 0.07903 0.43504 0.05151 0.0
C848 C 0.05959 0.41937 0.04363 0.0
C849 C 0.05436 0.41993 0.02763 0.0
C850 C 0.03595 0.40523 0.02033 0.0
C851 C 0.02269 0.38979 0.02888 0.0
C852 C 0.02785 0.38899 0.04473 0.0
C853 C 0.04624 0.40367 0.05209 0.0
H854 H 0.00844 0.37842 0.0232 0.0
H855 H 0.18788 0.52051 0.09335 0.0
H856 H 0.57605 0.72868 0.08336 0.0
H857 H 0.56153 0.69315 0.07248 0.0
H858 H 0.56926 0.71187 0.02507 0.0
H859 H 0.5834 0.74747 0.03586 0.0
H860 H 0.53369 0.67756 0.0266 0.0
H861 H 0.60127 0.70147 0.04262 0.0
H862 H 0.63134 0.71751 0.06106 0.0
H863 H 0.60273 0.67137 0.0927 0.0
H864 H 0.57239 0.65521 0.07454 0.0
H865 H 0.54795 0.58422 0.00772 0.0
H866 H 0.5604 0.6202 0.01562 0.0
H867 H 0.50443 0.60571 0.03169 0.0
H868 H 0.49168 0.5696 0.02364 0.0
H869 H 0.56505 0.63868 0.04435 0.0
H870 H 0.49727 0.64609 0.02689 0.0
H871 H 0.46882 0.63087 0.00674 0.0
H872 H 0.50085 0.61566 0.97464 0.0
H873 H 0.52956 0.63104 0.9945 0.0
C874 C 0.57439 0.72522 0.0706 0.0
C875 C 0.58094 0.74088 0.06046 0.0
C876 C 0.56623 0.70493 0.06442 0.0
C877 C 0.56452 0.69993 0.04798 0.0
C878 C 0.5705 0.71544 0.03779 0.0
C879 C 0.57872 0.73576 0.04397 0.0
C880 C 0.55712 0.67859 0.04151 0.0
C881 C 0.5405 0.66902 0.03048 0.0
C882 C 0.56626 0.66762 0.04637 0.0
C883 C 0.5845 0.67725 0.05729 0.0
C884 C 0.60134 0.69484 0.05357 0.0
C885 C 0.61844 0.70394 0.06396 0.0
C886 C 0.61893 0.6955 0.07806 0.0
C887 C 0.60232 0.67791 0.08178 0.0
C888 C 0.58518 0.66876 0.07144 0.0
C889 C 0.53819 0.58862 0.01284 0.0
C890 C 0.51879 0.57395 0.01507 0.0
C891 C 0.54538 0.60923 0.01738 0.0
C892 C 0.53334 0.61565 0.02418 0.0
C893 C 0.5139 0.60112 0.02628 0.0
C894 C 0.50666 0.58046 0.02171 0.0
C895 C 0.5414 0.63748 0.02959 0.0
C896 C 0.55817 0.64716 0.04047 0.0
C897 C 0.53259 0.64862 0.02436 0.0
C898 C 0.51549 0.63954 0.01225 0.0
C899 C 0.49826 0.63957 0.01551 0.0
C900 C 0.48208 0.6309 0.00414 0.0
C901 C 0.483 0.62224 0.98944 0.0
C902 C 0.50013 0.6223 0.98605 0.0
C903 C 0.51634 0.63096 0.99737 0.0
H904 H 0.47046 0.61553 0.98066 0.0
H905 H 0.63218 0.70256 0.08609 0.0
H906 H 0.87409 0.26967 0.95023 0.0
H907 H 0.89464 0.30538 0.96053 0.0
H908 H 0.85545 0.3202 0.9352 0.0
H909 H 0.83425 0.28431 0.92531 0.0
H910 H 0.89705 0.34712 0.93222 0.0
H911 H 0.85208 0.31808 0.97218 0.0
H912 H 0.83481 0.29287 0.99107 0.0
H913 H 0.88986 0.30855 0.01608 0.0
H914 H 0.90748 0.33366 0.99718 0.0
H915 H 0.93831 0.44756 0.97141 0.0
H916 H 0.91533 0.41262 0.96009 0.0
H917 H 0.94497 0.39053 0.99012 0.0
H918 H 0.96773 0.42522 0.00165 0.0
H919 H 0.90664 0.36733 0.99016 0.0
H920 H 0.95215 0.39653 0.9516 0.0
H921 H 0.97078 0.4211 0.93274 0.0
H922 H 0.91732 0.40404 0.90443 0.0
H923 H 0.89826 0.38005 0.92352 0.0
C924 C 0.8696 0.2804 0.94701 0.0
C925 C 0.85237 0.27399 0.93701 0.0
C926 C 0.88149 0.30085 0.95281 0.0
C927 C 0.8765 0.31535 0.94865 0.0
C928 C 0.85956 0.30919 0.93847 0.0
C929 C 0.84751 0.28867 0.93279 0.0
C930 C 0.88886 0.3369 0.95521 0.0
C931 C 0.89894 0.3517 0.94485 0.0
C932 C 0.89167 0.34259 0.97173 0.0
C933 C 0.8811 0.32762 0.98318 0.0
C934 C 0.86051 0.31604 0.98163 0.0
C935 C 0.85065 0.30179 0.99236 0.0
C936 C 0.86123 0.29907 0.00475 0.0
C937 C 0.88169 0.31065 0.00647 0.0
C938 C 0.89161 0.32491 0.99576 0.0
C939 C 0.93988 0.43525 0.97567 0.0
C940 C 0.95486 0.4392 0.98746 0.0
C941 C 0.92679 0.4153 0.96912 0.0
C942 C 0.92853 0.39898 0.97418 0.0
C943 C 0.94333 0.40288 0.98606 0.0
C944 C 0.95639 0.42277 0.9926 0.0
C945 C 0.91499 0.37776 0.9672 0.0
C946 C 0.90469 0.36293 0.9775 0.0
C947 C 0.91224 0.37206 0.95063 0.0
C948 C 0.92371 0.38668 0.93918 0.0
C949 C 0.94431 0.39824 0.94151 0.0
C950 C 0.95496 0.41208 0.93077 0.0
C951 C 0.94524 0.4142 0.91743 0.0
C952 C 0.92484 0.40244 0.9148 0.0
C953 C 0.91409 0.38881 0.92564 0.0
H954 H 0.95351 0.42491 0.90911 0.0
H955 H 0.85358 0.28803 0.01304 0.0
H956 H 0.71624 0.55974 0.93441 0.0
H957 H 0.6842 0.54683 0.94473 0.0
H958 H 0.69175 0.60717 0.94679 0.0
H959 H 0.7238 0.62014 0.93664 0.0
H960 H 0.67899 0.59089 0.97326 0.0
H961 H 0.6606 0.56884 0.9177 0.0
H962 H 0.65979 0.55153 0.89192 0.0
H963 H 0.63442 0.49417 0.91196 0.0
H964 H 0.63533 0.51119 0.93794 0.0
H965 H 0.58121 0.5663 0.98261 0.0
H966 H 0.61269 0.57716 0.97176 0.0
H967 H 0.60503 0.51735 0.97551 0.0
H968 H 0.57352 0.50643 0.98641 0.0
H969 H 0.61768 0.53224 0.94656 0.0
H970 H 0.63562 0.55485 0.0021 0.0
H971 H 0.63594 0.57256 0.02752 0.0
H972 H 0.66181 0.62952 0.00688 0.0
H973 H 0.66139 0.6121 0.98125 0.0
C974 C 0.71096 0.57019 0.93692 0.0
C975 C 0.72255 0.59096 0.93476 0.0
C976 C 0.69265 0.5628 0.94281 0.0
C977 C 0.68549 0.57601 0.94642 0.0
C978 C 0.697 0.59671 0.94415 0.0
C979 C 0.71532 0.60411 0.93838 0.0
C980 C 0.66624 0.56845 0.95297 0.0
C981 C 0.66556 0.57823 0.96729 0.0
C982 C 0.64876 0.5516 0.94541 0.0
C983 C 0.64823 0.54133 0.92981 0.0
C984 C 0.655 0.55256 0.91665 0.0
C985 C 0.6545 0.5428 0.90199 0.0
C986 C 0.64712 0.52177 0.90031 0.0
C987 C 0.64017 0.51046 0.91328 0.0
C988 C 0.64067 0.52016 0.92797 0.0
C989 C 0.58629 0.55551 0.98115 0.0
C990 C 0.57507 0.5356 0.98544 0.0
C991 C 0.60425 0.56172 0.97498 0.0
C992 C 0.61125 0.5481 0.97297 0.0
C993 C 0.5999 0.52809 0.97701 0.0
C994 C 0.58198 0.52192 0.98329 0.0
C995 C 0.63049 0.55483 0.96671 0.0
C996 C 0.63115 0.54487 0.95249 0.0
C997 C 0.64795 0.57159 0.9743 0.0
C998 C 0.6483 0.58213 0.98972 0.0
C999 C 0.64123 0.57113 0.00294 0.0
C1000 C 0.64146 0.58112 0.0174 0.0
C1001 C 0.64885 0.60215 0.01881 0.0
C1002 C 0.65607 0.61323 0.00577 0.0
C1003 C 0.65586 0.60331 0.99128 0.0
H1004 H 0.64901 0.60985 0.03001 0.0
H1005 H 0.64673 0.51424 0.88895 0.0
H1006 H 0.42057 0.1473 0.94002 0.0
H1007 H 0.42311 0.12105 0.95369 0.0
H1008 H 0.48004 0.14137 0.9371 0.0
H1009 H 0.47778 0.16767 0.92369 0.0
H1010 H 0.45623 0.10015 0.93188 0.0
H1011 H 0.47553 0.15341 0.97494 0.0
H1012 H 0.47057 0.17702 0.99265 0.0
H1013 H 0.42003 0.12643 0.00864 0.0
H1014 H 0.42455 0.10252 0.99084 0.0
H1015 H 0.50631 0.06504 0.9769 0.0
H1016 H 0.49552 0.08748 0.96693 0.0
H1017 H 0.43989 0.05262 0.98598 0.0
H1018 H 0.45058 0.02986 0.99615 0.0
H1019 H 0.45659 0.09662 0.99019 0.0
H1020 H 0.43861 0.04321 0.94897 0.0
H1021 H 0.44374 0.0194 0.93165 0.0
H1022 H 0.49134 0.06987 0.91264 0.0
H1023 H 0.48653 0.09396 0.92985 0.0
C1024 C 0.4337 0.14627 0.93943 0.0
C1025 C 0.44891 0.15946 0.93066 0.0
C1026 C 0.4351 0.13126 0.94721 0.0
C1027 C 0.45176 0.12928 0.94639 0.0
C1028 C 0.46699 0.14254 0.93777 0.0
C1029 C 0.46562 0.15751 0.93005 0.0
C1030 C 0.45344 0.11323 0.95415 0.0
C1031 C 0.45635 0.09944 0.94464 0.0
C1032 C 0.45291 0.11184 0.97072 0.0
C1033 C 0.45023 0.12621 0.98142 0.0
C1034 C 0.46325 0.14733 0.98212 0.0
C1035 C 0.46055 0.16076 0.9922 0.0
C1036 C 0.44496 0.15323 0.00172 0.0
C1037 C 0.43208 0.13224 0.00123 0.0
C1038 C 0.43471 0.11875 0.99115 0.0
C1039 C 0.49183 0.06215 0.97915 0.0
C1040 C 0.47925 0.0455 0.98722 0.0
C1041 C 0.4857 0.07502 0.97342 0.0
C1042 C 0.46686 0.07154 0.97559 0.0
C1043 C 0.45449 0.0555 0.98419 0.0
C1044 C 0.4606 0.04249 0.98992 0.0
C1045 C 0.46 0.08411 0.96794 0.0
C1046 C 0.45607 0.09714 0.97742 0.0
C1047 C 0.45946 0.08479 0.95131 0.0
C1048 C 0.46222 0.07037 0.94071 0.0
C1049 C 0.4502 0.04921 0.94111 0.0
C1050 C 0.45301 0.03567 0.93129 0.0
C1051 C 0.46776 0.04311 0.92098 0.0
C1052 C 0.4798 0.06411 0.92052 0.0
C1053 C 0.477 0.07772 0.93028 0.0
H1054 H 0.4698 0.03258 0.91333 0.0
H1055 H 0.44289 0.16365 0.00952 0.0
H1056 H 0.70737 0.13924 0.90936 0.0
H1057 H 0.67436 0.12151 0.91813 0.0
H1058 H 0.69913 0.13165 0.96666 0.0
H1059 H 0.73209 0.14891 0.95786 0.0
H1060 H 0.67113 0.09425 0.96099 0.0
H1061 H 0.67753 0.15868 0.95171 0.0
H1062 H 0.68402 0.18771 0.93647 0.0
H1063 H 0.6365 0.14772 0.90173 0.0
H1064 H 0.62989 0.11839 0.91665 0.0
H1065 H 0.58646 0.07137 -9e-05 0.0
H1066 H 0.61825 0.09122 0.98939 0.0
H1067 H 0.59116 0.06632 0.9418 0.0
H1068 H 0.55928 0.0461 0.95231 0.0
H1069 H 0.61934 0.11055 0.9462 0.0
H1070 H 0.61337 0.04615 0.95662 0.0
H1071 H 0.60695 0.01817 0.97308 0.0
H1072 H 0.65435 0.06001 0.00722 0.0
H1073 H 0.66086 0.08832 0.99107 0.0
C1074 C 0.70573 0.13786 0.92191 0.0
C1075 C 0.72226 0.14541 0.93294 0.0
C1076 C 0.68687 0.12777 0.92692 0.0
C1077 C 0.68422 0.1254 0.94309 0.0
C1078 C 0.70077 0.13322 0.95412 0.0
C1079 C 0.7196 0.14307 0.9491 0.0
C1080 C 0.66426 0.11412 0.9485 0.0
C1081 C 0.65994 0.09804 0.9579 0.0
C1082 C 0.64943 0.1187 0.94421 0.0
C1083 C 0.65335 0.13631 0.93522 0.0
C1084 C 0.66856 0.15605 0.94075 0.0
C1085 C 0.67224 0.17256 0.93218 0.0
C1086 C 0.66071 0.16955 0.91812 0.0
C1087 C 0.64544 0.15002 0.91261 0.0
C1088 C 0.64171 0.13345 0.92113 0.0
C1089 C 0.58726 0.07026 0.9872 0.0
C1090 C 0.5705 0.05718 0.9769 0.0
C1091 C 0.6054 0.08157 0.98122 0.0
C1092 C 0.607 0.08012 0.96485 0.0
C1093 C 0.59016 0.06762 0.95447 0.0
C1094 C 0.57203 0.05607 0.96048 0.0
C1095 C 0.62648 0.09098 0.95873 0.0
C1096 C 0.63063 0.10686 0.94921 0.0
C1097 C 0.64125 0.08642 0.96305 0.0
C1098 C 0.63747 0.06939 0.97272 0.0
C1099 C 0.62231 0.04942 0.96771 0.0
C1100 C 0.61868 0.03349 0.97697 0.0
C1101 C 0.6302 0.03732 0.99121 0.0
C1102 C 0.64542 0.05707 0.9962 0.0
C1103 C 0.6491 0.07306 0.98699 0.0
H1104 H 0.62737 0.02497 0.99836 0.0
H1105 H 0.66359 0.18235 0.9115 0.0
H1106 H 0.87346 0.60327 0.91811 0.0
H1107 H 0.89232 0.5873 0.92631 0.0
H1108 H 0.84447 0.54556 0.95151 0.0
H1109 H 0.82562 0.56168 0.94354 0.0
H1110 H 0.87967 0.56347 0.96951 0.0
H1111 H 0.85366 0.52889 0.91741 0.0
H1112 H 0.8466 0.52613 0.88841 0.0
H1113 H 0.90823 0.55917 0.88297 0.0
H1114 H 0.91568 0.56239 0.91197 0.0
H1115 H 0.91905 0.50196 0.9891 0.0
H1116 H 0.89717 0.51256 0.97718 0.0
H1117 H 0.94295 0.55267 0.94948 0.0
H1118 H 0.96477 0.54164 0.96111 0.0
H1119 H 0.90792 0.5345 0.93231 0.0
H1120 H 0.93414 0.57095 0.98397 0.0
H1121 H 0.94187 0.57461 0.01296 0.0
H1122 H 0.88055 0.5393 0.01917 0.0
H1123 H 0.87247 0.5352 0.99018 0.0
C1124 C 0.86697 0.5907 0.92541 0.0
C1125 C 0.84809 0.58376 0.93024 0.0
C1126 C 0.87768 0.58147 0.92996 0.0
C1127 C 0.86972 0.56514 0.93941 0.0
C1128 C 0.85084 0.5581 0.94416 0.0
C1129 C 0.84006 0.56724 0.93954 0.0
C1130 C 0.8815 0.5561 0.94498 0.0
C1131 C 0.88557 0.55681 0.96138 0.0
C1132 C 0.88966 0.54797 0.93434 0.0
C1133 C 0.88523 0.54605 0.91689 0.0
C1134 C 0.86572 0.53573 0.91004 0.0
C1135 C 0.86164 0.53405 0.8936 0.0
C1136 C 0.87695 0.54252 0.88385 0.0
C1137 C 0.89638 0.55264 0.89053 0.0
C1138 C 0.90054 0.55438 0.90697 0.0
C1139 C 0.92438 0.51292 0.98038 0.0
C1140 C 0.94365 0.52125 0.97618 0.0
C1141 C 0.9119 0.519 0.9736 0.0
C1142 C 0.91856 0.53374 0.96269 0.0
C1143 C 0.93755 0.54138 0.95795 0.0
C1144 C 0.95001 0.53516 0.96464 0.0
C1145 C 0.90604 0.54185 0.95685 0.0
C1146 C 0.90191 0.54104 0.94043 0.0
C1147 C 0.89791 0.55005 0.96746 0.0
C1148 C 0.90272 0.5526 0.9849 0.0
C1149 C 0.92231 0.56385 0.99151 0.0
C1150 C 0.92676 0.56602 0.00794 0.0
C1151 C 0.91171 0.55715 0.01789 0.0
C1152 C 0.89219 0.54614 0.01144 0.0
C1153 C 0.88767 0.5439 0.99501 0.0
H1154 H 0.91518 0.55884 0.03061 0.0
H1155 H 0.87377 0.54119 0.87112 0.0
H1156 H 0.42024 0.28055 0.94515 0.0
H1157 H 0.42314 0.31103 0.95948 0.0
H1158 H 0.48434 0.34501 0.95158 0.0
H1159 H 0.48155 0.31488 0.93721 0.0
H1160 H 0.47856 0.35306 0.98167 0.0
H1161 H 0.44977 0.34823 0.92836 0.0
H1162 H 0.42457 0.33123 0.90566 0.0
H1163 H 0.3806 0.32802 0.93495 0.0
H1164 H 0.40553 0.34478 0.95789 0.0
H1165 H 0.50875 0.45633 0.98398 0.0
H1166 H 0.49876 0.42085 0.97661 0.0
H1167 H 0.44045 0.40212 0.98933 0.0
H1168 H 0.45032 0.43784 0.99667 0.0
H1169 H 0.43995 0.38322 0.96083 0.0
H1170 H 0.47033 0.39342 0.01309 0.0
H1171 H 0.49603 0.41123 0.03534 0.0
H1172 H 0.5372 0.40472 0.00812 0.0
H1173 H 0.51184 0.38712 0.9856 0.0
C1174 C 0.4343 0.29453 0.94648 0.0
C1175 C 0.45068 0.29528 0.94006 0.0
C1176 C 0.43594 0.31189 0.95469 0.0
C1177 C 0.45394 0.33029 0.95652 0.0
C1178 C 0.47035 0.33093 0.95041 0.0
C1179 C 0.46874 0.31365 0.94223 0.0
C1180 C 0.45581 0.34921 0.9643 0.0
C1181 C 0.47015 0.35969 0.97711 0.0
C1182 C 0.44439 0.35751 0.95866 0.0
C1183 C 0.42945 0.34751 0.94487 0.0
C1184 C 0.4347 0.34375 0.92998 0.0
C1185 C 0.42047 0.33418 0.91707 0.0
C1186 C 0.40099 0.32848 0.91887 0.0
C1187 C 0.3957 0.3324 0.93358 0.0
C1188 C 0.40986 0.34193 0.94654 0.0
C1189 C 0.49379 0.44472 0.98523 0.0
C1190 C 0.48031 0.44992 0.99088 0.0
C1191 C 0.48814 0.42441 0.98113 0.0
C1192 C 0.46894 0.40884 0.98262 0.0
C1193 C 0.45537 0.41392 0.98816 0.0
C1194 C 0.46105 0.43431 0.99237 0.0
C1195 C 0.46314 0.38738 0.97787 0.0
C1196 C 0.44807 0.37641 0.96564 0.0
C1197 C 0.4739 0.37863 0.98403 0.0
C1198 C 0.48918 0.38902 0.99762 0.0
C1199 C 0.48489 0.39588 0.01181 0.0
C1200 C 0.4994 0.40593 0.02448 0.0
C1201 C 0.51824 0.40912 0.02314 0.0
C1202 C 0.5226 0.40223 0.00914 0.0
C1203 C 0.50815 0.39218 0.99643 0.0
H1204 H 0.52945 0.41692 0.03296 0.0
H1205 H 0.38999 0.32109 0.90886 0.0
H1206 H 0.18529 0.70309 0.06301 0.0
H1207 H 0.15674 0.67394 0.04813 0.0
H1208 H 0.1189 0.68082 0.0797 0.0
H1209 H 0.14738 0.71017 0.09443 0.0
H1210 H 0.13335 0.63909 0.05786 0.0
H1211 H 0.07308 0.66135 0.06132 0.0
H1212 H 0.07012 0.69211 0.06109 0.0
H1213 H 0.12158 0.72127 0.03603 0.0
H1214 H 0.12469 0.6906 0.03591 0.0
H1215 H 0.0419 0.55033 0.04614 0.0
H1216 H 0.06858 0.58393 0.05697 0.0
H1217 H 0.06359 0.60872 0.01359 0.0
H1218 H 0.0365 0.57501 0.00285 0.0
H1219 H 0.07138 0.63555 0.03835 0.0
H1220 H 0.09883 0.59545 0.01998 0.0
H1221 H 0.1029 0.56534 0.01758 0.0
H1222 H 0.11935 0.57343 0.06769 0.0
H1223 H 0.11516 0.60347 0.07043 0.0
C1224 C 0.17085 0.6985 0.06666 0.0
C1225 C 0.16856 0.70887 0.0799 0.0
C1226 C 0.15455 0.68186 0.05815 0.0
C1227 C 0.13563 0.67518 0.06274 0.0
C1228 C 0.13327 0.68587 0.07573 0.0
C1229 C 0.14957 0.70264 0.08416 0.0
C1230 C 0.11861 0.65619 0.0547 0.0
C1231 C 0.11985 0.63839 0.05355 0.0
C1232 C 0.10104 0.65524 0.04885 0.0
C1233 C 0.09921 0.67372 0.04875 0.0
C1234 C 0.08372 0.6743 0.05571 0.0
C1235 C 0.08202 0.69172 0.05565 0.0
C1236 C 0.09569 0.70865 0.04859 0.0
C1237 C 0.11105 0.70817 0.04154 0.0
C1238 C 0.1128 0.69078 0.04156 0.0
C1239 C 0.04652 0.56297 0.03894 0.0
C1240 C 0.03751 0.56006 0.02357 0.0
C1241 C 0.06172 0.58216 0.04513 0.0
C1242 C 0.06843 0.59875 0.03593 0.0
C1243 C 0.05874 0.59611 0.02085 0.0
C1244 C 0.04331 0.57688 0.01473 0.0
C1245 C 0.0861 0.61852 0.04183 0.0
C1246 C 0.08495 0.63637 0.04261 0.0
C1247 C 0.10396 0.61966 0.04701 0.0
C1248 C 0.1066 0.60166 0.04541 0.0
C1249 C 0.10322 0.59075 0.0305 0.0
C1250 C 0.10558 0.57372 0.02908 0.0
C1251 C 0.11144 0.56752 0.04247 0.0
C1252 C 0.11489 0.57831 0.05732 0.0
C1253 C 0.11255 0.59535 0.05882 0.0
H1254 H 0.1133 0.55436 0.04133 0.0
H1255 H 0.09435 0.72213 0.04856 0.0
H1256 H 0.28117 0.39451 0.08017 0.0
H1257 H 0.31323 0.4106 0.06991 0.0
H1258 H 0.30369 0.45786 0.05354 0.0
H1259 H 0.2711 0.44125 0.06307 0.0
H1260 H 0.31889 0.44567 0.03158 0.0
H1261 H 0.33457 0.46634 0.0871 0.0
H1262 H 0.33431 0.46227 0.11574 0.0
H1263 H 0.36088 0.42527 0.10995 0.0
H1264 H 0.36103 0.42886 0.08121 0.0
H1265 H 0.41966 0.51034 0.018 0.0
H1266 H 0.38725 0.49653 0.02798 0.0
H1267 H 0.39023 0.44435 0.04167 0.0
H1268 H 0.42266 0.45823 0.03197 0.0
H1269 H 0.37866 0.46086 0.06525 0.0
H1270 H 0.36173 0.43988 0.00926 0.0
H1271 H 0.36247 0.44503 0.9808 0.0
H1272 H 0.33904 0.48475 0.98802 0.0
H1273 H 0.33843 0.48006 0.01659 0.0
C1274 C 0.28578 0.40823 0.07427 0.0
C1275 C 0.2735 0.41656 0.07245 0.0
C1276 C 0.30424 0.41756 0.06857 0.0
C1277 C 0.31101 0.43562 0.06115 0.0
C1278 C 0.29882 0.44399 0.0593 0.0
C1279 C 0.28026 0.43458 0.0649 0.0
C1280 C 0.33064 0.44547 0.05505 0.0
C1281 C 0.33202 0.44935 0.03903 0.0
C1282 C 0.34775 0.44996 0.06468 0.0
C1283 C 0.34763 0.4477 0.08196 0.0
C1284 C 0.3402 0.45718 0.0919 0.0
C1285 C 0.3401 0.45499 0.10816 0.0
C1286 C 0.34752 0.44348 0.11465 0.0
C1287 C 0.3551 0.43416 0.1049 0.0
C1288 C 0.35521 0.43628 0.08862 0.0
C1289 C 0.41335 0.49593 0.02316 0.0
C1290 C 0.42366 0.4854 0.02437 0.0
C1291 C 0.39484 0.48803 0.02877 0.0
C1292 C 0.38631 0.46937 0.0355 0.0
C1293 C 0.39655 0.45877 0.03654 0.0
C1294 C 0.41508 0.46673 0.03104 0.0
C1295 C 0.3669 0.46103 0.04181 0.0
C1296 C 0.36557 0.4574 0.05786 0.0
C1297 C 0.34992 0.45699 0.03227 0.0
C1298 C 0.35024 0.45979 0.01509 0.0
C1299 C 0.3569 0.44985 0.00481 0.0
C1300 C 0.35726 0.45266 0.98865 0.0
C1301 C 0.35086 0.46526 0.98261 0.0
C1302 C 0.34403 0.47503 0.99271 0.0
C1303 C 0.34366 0.47229 0.00889 0.0
H1304 H 0.35115 0.46741 0.9701 0.0
H1305 H 0.34744 0.44181 0.12725 0.0
H1306 H 0.60897 0.90036 0.06105 0.0
H1307 H 0.59339 0.9183 0.05031 0.0
H1308 H 0.53646 0.86521 0.05227 0.0
H1309 H 0.55201 0.84664 0.06211 0.0
H1310 H 0.53696 0.88105 0.02574 0.0
H1311 H 0.55488 0.90756 0.08002 0.0
H1312 H 0.57643 0.9228 0.10494 0.0
H1313 H 0.61379 0.9765 0.08262 0.0
H1314 H 0.59261 0.96146 0.05748 0.0
H1315 H 0.48854 0.93988 0.01785 0.0
H1316 H 0.5009 0.91866 0.02834 0.0
H1317 H 0.55923 0.9624 0.01788 0.0
H1318 H 0.54704 0.98355 0.00718 0.0
H1319 H 0.55566 0.95012 0.04979 0.0
H1320 H 0.5369 0.92137 0.99492 0.0
H1321 H 0.51374 0.90553 0.97088 0.0
H1322 H 0.47557 0.85516 0.99608 0.0
H1323 H 0.4984 0.87086 0.02035 0.0
C1324 C 0.59314 0.89234 0.05901 0.0
C1325 C 0.58177 0.87201 0.06247 0.0
C1326 C 0.58423 0.90275 0.05307 0.0
C1327 C 0.56373 0.89325 0.05076 0.0
C1328 C 0.5523 0.87291 0.05405 0.0
C1329 C 0.56123 0.86238 0.05984 0.0
C1330 C 0.55433 0.90455 0.04472 0.0
C1331 C 0.54082 0.89601 0.03118 0.0
C1332 C 0.55945 0.92416 0.05171 0.0
C1333 C 0.57224 0.93329 0.06682 0.0
C1334 C 0.56777 0.92255 0.08039 0.0
C1335 C 0.57991 0.93117 0.09456 0.0
C1336 C 0.59649 0.95059 0.09536 0.0
C1337 C 0.60095 0.96145 0.08198 0.0
C1338 C 0.58887 0.9529 0.06777 0.0
C1339 C 0.50397 0.94489 0.01765 0.0
C1340 C 0.5168 0.96335 0.01162 0.0
C1341 C 0.51097 0.93275 0.02363 0.0
C1342 C 0.53094 0.93901 0.02384 0.0
C1343 C 0.54376 0.95736 0.01779 0.0
C1344 C 0.53674 0.96934 0.01161 0.0
C1345 C 0.53866 0.92673 0.03074 0.0
C1346 C 0.55177 0.9351 0.04447 0.0
C1347 C 0.53293 0.90688 0.02409 0.0
C1348 C 0.51925 0.8974 0.00949 0.0
C1349 C 0.52348 0.90701 0.99538 0.0
C1350 C 0.51043 0.89804 0.9817 0.0
C1351 C 0.49316 0.87938 0.98197 0.0
C1352 C 0.48893 0.86963 0.9959 0.0
C1353 C 0.50193 0.87855 0.00961 0.0
H1354 H 0.48308 0.87246 0.97137 0.0
H1355 H 0.60587 0.95723 0.10634 0.0
H1356 H 0.98027 0.1781 0.43538 0.0
H1357 H 0.00907 0.20232 0.4231 0.0
H1358 H 0.97184 0.2067 0.38644 0.0
H1359 H 0.94284 0.18281 0.39888 0.0
H1360 H 0.00042 0.19988 0.3747 0.0
H1361 H 0.9966 0.2453 0.41433 0.0
H1362 H 0.99441 0.25737 0.44137 0.0
H1363 H 0.04893 0.26169 0.45717 0.0
H1364 H 0.05131 0.24935 0.43027 0.0
H1365 H 0.07674 0.28065 0.33942 0.0
H1366 H 0.04698 0.25938 0.35215 0.0
H1367 H 0.08221 0.26026 0.39317 0.0
H1368 H 0.112 0.28223 0.38066 0.0
H1369 H 0.05389 0.26488 0.40253 0.0
H1370 H 0.05763 0.21814 0.36449 0.0
H1371 H 0.06042 0.20492 0.33808 0.0
H1372 H 0.00702 0.20151 0.32005 0.0
H1373 H 0.00404 0.21497 0.34632 0.0
C1374 C 0.97814 0.1845 0.4249 0.0
C1375 C 0.95918 0.17853 0.41817 0.0
C1376 C 0.99465 0.19829 0.41785 0.0
C1377 C 0.99258 0.20639 0.40393 0.0
C1378 C 0.97373 0.20058 0.39718 0.0
C1379 C 0.95719 0.18687 0.40428 0.0
C1380 C 0.01009 0.22033 0.39611 0.0
C1381 C 0.01198 0.21427 0.38066 0.0
C1382 C 0.02541 0.23875 0.40412 0.0
C1383 C 0.02403 0.24621 0.42031 0.0
C1384 C 0.00804 0.24865 0.4236 0.0
C1385 C 0.00678 0.25558 0.4389 0.0
C1386 C 0.0215 0.26025 0.45099 0.0
C1387 C 0.03753 0.25805 0.4478 0.0
C1388 C 0.03885 0.2511 0.43252 0.0
C1389 C 0.07809 0.27625 0.35114 0.0
C1390 C 0.09659 0.28279 0.35903 0.0
C1391 C 0.06109 0.26402 0.35837 0.0
C1392 C 0.06232 0.25787 0.3735 0.0
C1393 C 0.08088 0.26469 0.38146 0.0
C1394 C 0.09786 0.27709 0.37429 0.0
C1395 C 0.0443 0.24443 0.38108 0.0
C1396 C 0.04231 0.25055 0.3965 0.0
C1397 C 0.029 0.2259 0.37313 0.0
C1398 C 0.03073 0.21776 0.35733 0.0
C1399 C 0.04656 0.21472 0.35486 0.0
C1400 C 0.04817 0.20716 0.33992 0.0
C1401 C 0.03394 0.20243 0.32738 0.0
C1402 C 0.01805 0.20521 0.32977 0.0
C1403 C 0.01638 0.21279 0.34468 0.0
H1404 H 0.0352 0.19658 0.31583 0.0
H1405 H 0.0205 0.26561 0.46283 0.0
H1406 H 0.79358 0.72563 0.39438 0.0
H1407 H 0.77377 0.73993 0.38485 0.0
H1408 H 0.8179 0.79945 0.40635 0.0
H1409 H 0.83797 0.78533 0.41575 0.0
H1410 H 0.78157 0.79106 0.41261 0.0
H1411 H 0.81373 0.78869 0.36695 0.0
H1412 H 0.82433 0.77287 0.34647 0.0
H1413 H 0.76427 0.73032 0.3299 0.0
H1414 H 0.7533 0.74571 0.35044 0.0
H1415 H 0.73988 0.83034 0.34629 0.0
H1416 H 0.76348 0.8214 0.35743 0.0
H1417 H 0.72102 0.78213 0.38779 0.0
H1418 H 0.69731 0.791 0.37664 0.0
H1419 H 0.75884 0.78321 0.3556 0.0
H1420 H 0.74108 0.78217 0.41934 0.0
H1421 H 0.73589 0.802 0.44075 0.0
H1422 H 0.77387 0.8575 0.42072 0.0
H1423 H 0.77905 0.83793 0.39912 0.0
C1424 C 0.79921 0.74182 0.39691 0.0
C1425 C 0.81742 0.75435 0.40577 0.0
C1426 C 0.78783 0.74995 0.39151 0.0
C1427 C 0.79443 0.77077 0.3948 0.0
C1428 C 0.81251 0.78332 0.40372 0.0
C1429 C 0.82393 0.77521 0.40911 0.0
C1430 C 0.78237 0.77941 0.38902 0.0
C1431 C 0.7766 0.78932 0.40014 0.0
C1432 C 0.77616 0.77749 0.37274 0.0
C1433 C 0.7827 0.76823 0.36033 0.0
C1434 C 0.80278 0.77585 0.35902 0.0
C1435 C 0.80885 0.76698 0.34739 0.0
C1436 C 0.79498 0.75057 0.33691 0.0
C1437 C 0.775 0.74302 0.33803 0.0
C1438 C 0.76885 0.75182 0.34966 0.0
C1439 C 0.73563 0.81988 0.35539 0.0
C1440 C 0.71678 0.81129 0.36058 0.0
C1441 C 0.74913 0.81484 0.36177 0.0
C1442 C 0.74408 0.80127 0.37354 0.0
C1443 C 0.72532 0.79287 0.37889 0.0
C1444 C 0.71174 0.7978 0.37242 0.0
C1445 C 0.75781 0.79458 0.37921 0.0
C1446 C 0.76381 0.78492 0.36807 0.0
C1447 C 0.76454 0.79706 0.39541 0.0
C1448 C 0.76024 0.80862 0.40758 0.0
C1449 C 0.74815 0.79859 0.41946 0.0
C1450 C 0.74526 0.80978 0.43164 0.0
C1451 C 0.75461 0.83101 0.43213 0.0
C1452 C 0.7667 0.84107 0.42036 0.0
C1453 C 0.7695 0.82993 0.40809 0.0
H1454 H 0.75242 0.83964 0.44159 0.0
H1455 H 0.79972 0.74373 0.32791 0.0
H1456 H 0.23664 0.06012 0.42066 0.0
H1457 H 0.21877 0.02381 0.41152 0.0
H1458 H 0.24381 0.0372 0.36669 0.0
H1459 H 0.26081 0.07354 0.37537 0.0
H1460 H 0.20684 0.00922 0.36172 0.0
H1461 H 0.26149 0.01971 0.39706 0.0
H1462 H 0.28252 0.03059 0.42232 0.0
H1463 H 0.2336 0.98884 0.44617 0.0
H1464 H 0.21221 0.97791 0.42107 0.0
H1465 H 0.20197 0.91719 0.33407 0.0
H1466 H 0.21268 0.952 0.34492 0.0
H1467 H 0.17591 0.92889 0.38318 0.0
H1468 H 0.16496 0.89389 0.37231 0.0
H1469 H 0.21504 0.96035 0.39292 0.0
H1470 H 0.16142 0.94757 0.35605 0.0
H1471 H 0.14165 0.9364 0.33017 0.0
H1472 H 0.1902 0.98242 0.30851 0.0
H1473 H 0.21037 0.99368 0.33422 0.0
C1474 C 0.23813 0.05538 0.40876 0.0
C1475 C 0.25029 0.06979 0.39879 0.0
C1476 C 0.22807 0.03457 0.40362 0.0
C1477 C 0.23018 0.02773 0.3885 0.0
C1478 C 0.24201 0.04209 0.37843 0.0
C1479 C 0.25192 0.06288 0.38349 0.0
C1480 C 0.22029 0.00564 0.38313 0.0
C1481 C 0.20877 0.99858 0.3685 0.0
C1482 C 0.22237 0.99162 0.39215 0.0
C1483 C 0.23521 0.99817 0.40724 0.0
C1484 C 0.25519 0.01297 0.40772 0.0
C1485 C 0.26717 0.01913 0.422 0.0
C1486 C 0.25939 0.01046 0.43585 0.0
C1487 C 0.2396 0.99558 0.43544 0.0
C1488 C 0.22754 0.98939 0.42119 0.0
C1489 C 0.19608 0.91949 0.34475 0.0
C1490 C 0.18256 0.90283 0.3523 0.0
C1491 C 0.20215 0.93937 0.35089 0.0
C1492 C 0.19496 0.94296 0.36477 0.0
C1493 C 0.18154 0.92639 0.37241 0.0
C1494 C 0.17524 0.90644 0.36614 0.0
C1495 C 0.20199 0.96414 0.37142 0.0
C1496 C 0.21295 0.97098 0.38627 0.0
C1497 C 0.19958 0.97801 0.36253 0.0
C1498 C 0.18746 0.97136 0.34705 0.0
C1499 C 0.16794 0.95521 0.34575 0.0
C1500 C 0.15665 0.94888 0.33111 0.0
C1501 C 0.16467 0.95867 0.3177 0.0
C1502 C 0.184 0.97484 0.31891 0.0
C1503 C 0.19536 0.98122 0.33352 0.0
H1504 H 0.15591 0.95375 0.30638 0.0
H1505 H 0.26869 0.01524 0.44689 0.0
H1506 H 0.50111 0.60656 0.26442 0.0
H1507 H 0.52106 0.64296 0.27328 0.0
H1508 H 0.5658 0.63297 0.29482 0.0
H1509 H 0.546 0.59665 0.28596 0.0
H1510 H 0.55866 0.65718 0.31434 0.0
H1511 H 0.57062 0.6533 0.25933 0.0
H1512 H 0.56123 0.64436 0.23054 0.0
H1513 H 0.53482 0.68182 0.23079 0.0
H1514 H 0.5438 0.69075 0.25964 0.0
H1515 H 0.63981 0.75605 0.32683 0.0
H1516 H 0.61722 0.72055 0.31719 0.0
H1517 H 0.57719 0.73724 0.29582 0.0
H1518 H 0.60001 0.77303 0.3051 0.0
H1519 H 0.57968 0.70997 0.27643 0.0
H1520 H 0.5689 0.71521 0.33106 0.0
H1521 H 0.57828 0.72439 0.35983 0.0
H1522 H 0.60199 0.68448 0.36042 0.0
H1523 H 0.593 0.67528 0.33159 0.0
C1524 C 0.51525 0.61215 0.27096 0.0
C1525 C 0.52199 0.59873 0.27448 0.0
C1526 C 0.52662 0.63294 0.27602 0.0
C1527 C 0.54499 0.64069 0.28458 0.0
C1528 C 0.55164 0.62729 0.28826 0.0
C1529 C 0.54028 0.60653 0.28324 0.0
C1530 C 0.55735 0.66275 0.28981 0.0
C1531 C 0.56342 0.66871 0.30603 0.0
C1532 C 0.56305 0.67783 0.27902 0.0
C1533 C 0.55768 0.6725 0.26167 0.0
C1534 C 0.56266 0.65949 0.25327 0.0
C1535 C 0.55744 0.65445 0.23694 0.0
C1536 C 0.54738 0.66247 0.22885 0.0
C1537 C 0.54257 0.67559 0.23707 0.0
C1538 C 0.54773 0.68065 0.25341 0.0
C1539 C 0.62622 0.75224 0.32009 0.0
C1540 C 0.62163 0.76739 0.31691 0.0
C1541 C 0.61326 0.73189 0.31464 0.0
C1542 C 0.59532 0.72617 0.30608 0.0
C1543 C 0.59089 0.74129 0.30251 0.0
C1544 C 0.60393 0.76174 0.30787 0.0
C1545 C 0.58126 0.70437 0.30093 0.0
C1546 C 0.57481 0.69846 0.28475 0.0
C1547 C 0.57514 0.68932 0.31176 0.0
C1548 C 0.5804 0.69467 0.32914 0.0
C1549 C 0.57623 0.70849 0.3373 0.0
C1550 C 0.58146 0.71368 0.35363 0.0
C1551 C 0.59076 0.70505 0.36194 0.0
C1552 C 0.5948 0.69116 0.35396 0.0
C1553 C 0.58961 0.68593 0.33763 0.0
H1554 H 0.59481 0.7091 0.37458 0.0
H1555 H 0.54336 0.65856 0.2162 0.0
H1556 H 0.36791 0.91696 0.23475 0.0
H1557 H 0.33587 0.90657 0.2442 0.0
H1558 H 0.34674 0.87422 0.27977 0.0
H1559 H 0.3787 0.8842 0.27015 0.0
H1560 H 0.30852 0.85271 0.26523 0.0
H1561 H 0.35431 0.92057 0.28982 0.0
H1562 H 0.37917 0.95691 0.28985 0.0
H1563 H 0.33829 0.96669 0.2619 0.0
H1564 H 0.31327 0.93032 0.26152 0.0
H1565 H 0.24582 0.84832 0.32322 0.0
H1566 H 0.27379 0.85482 0.3084 0.0
H1567 H 0.25729 0.88575 0.27522 0.0
H1568 H 0.22913 0.87914 0.28999 0.0
H1569 H 0.29673 0.90755 0.28624 0.0
H1570 H 0.25122 0.84108 0.26098 0.0
H1571 H 0.226 0.8047 0.2594 0.0
H1572 H 0.26492 0.79268 0.28783 0.0
H1573 H 0.2906 0.82897 0.28925 0.0
C1574 C 0.36335 0.90733 0.2444 0.0
C1575 C 0.37586 0.90145 0.25175 0.0
C1576 C 0.34511 0.90154 0.24985 0.0
C1577 C 0.33906 0.88982 0.26278 0.0
C1578 C 0.35118 0.88331 0.2698 0.0
C1579 C 0.36948 0.88916 0.26438 0.0
C1580 C 0.3205 0.88515 0.26947 0.0
C1581 C 0.30601 0.86469 0.26995 0.0
C1582 C 0.317 0.9008 0.27519 0.0
C1583 C 0.332 0.92268 0.2755 0.0
C1584 C 0.35068 0.93043 0.28358 0.0
C1585 C 0.36479 0.95104 0.28368 0.0
C1586 C 0.36033 0.96409 0.27585 0.0
C1587 C 0.34173 0.95656 0.26794 0.0
C1588 C 0.32758 0.93596 0.26779 0.0
C1589 C 0.24817 0.8565 0.31277 0.0
C1590 C 0.23545 0.86334 0.30777 0.0
C1591 C 0.26403 0.86006 0.30425 0.0
C1592 C 0.26748 0.87061 0.29065 0.0
C1593 C 0.25482 0.87755 0.28567 0.0
C1594 C 0.23883 0.87382 0.29413 0.0
C1595 C 0.28486 0.87514 0.28214 0.0
C1596 C 0.29916 0.89558 0.28137 0.0
C1597 C 0.28811 0.85951 0.27604 0.0
C1598 C 0.27276 0.83773 0.27532 0.0
C1599 C 0.25436 0.83069 0.26695 0.0
C1600 C 0.24001 0.81008 0.26605 0.0
C1601 C 0.24376 0.79642 0.27364 0.0
C1602 C 0.26201 0.80329 0.28199 0.0
C1603 C 0.27652 0.82385 0.28275 0.0
H1604 H 0.23257 0.78049 0.273 0.0
H1605 H 0.37127 0.98004 0.27594 0.0
H1606 H 0.09425 0.48035 0.2741 0.0
H1607 H 0.09558 0.45394 0.28848 0.0
H1608 H 0.15158 0.47061 0.27137 0.0
H1609 H 0.15054 0.49709 0.25728 0.0
H1610 H 0.12647 0.42949 0.26761 0.0
H1611 H 0.14848 0.48569 0.30879 0.0
H1612 H 0.14478 0.51096 0.32554 0.0
H1613 H 0.09387 0.46282 0.34327 0.0
H1614 H 0.09712 0.43726 0.32645 0.0
H1615 H 0.17798 0.39788 0.31418 0.0
H1616 H 0.16675 0.41972 0.3037 0.0
H1617 H 0.11158 0.38532 0.3235 0.0
H1618 H 0.1227 0.36309 0.33416 0.0
H1619 H 0.12882 0.43027 0.32632 0.0
H1620 H 0.10847 0.37392 0.28726 0.0
H1621 H 0.11262 0.34855 0.27108 0.0
H1622 H 0.16007 0.39658 0.24989 0.0
H1623 H 0.15619 0.42222 0.26594 0.0
C1624 C 0.1069 0.47848 0.27352 0.0
C1625 C 0.12223 0.49073 0.26445 0.0
C1626 C 0.10761 0.46336 0.2817 0.0
C1627 C 0.12368 0.46034 0.28096 0.0
C1628 C 0.13897 0.47259 0.27197 0.0
C1629 C 0.1383 0.48766 0.26386 0.0
C1630 C 0.12482 0.44442 0.2894 0.0
C1631 C 0.12696 0.42968 0.28044 0.0
C1632 C 0.12481 0.44423 0.3061 0.0
C1633 C 0.1229 0.45959 0.31622 0.0
C1634 C 0.1364 0.48051 0.31615 0.0
C1635 C 0.1344 0.49488 0.32568 0.0
C1636 C 0.11906 0.48851 0.33542 0.0
C1637 C 0.10572 0.46774 0.33569 0.0
C1638 C 0.10763 0.4533 0.32617 0.0
C1639 C 0.16353 0.395 0.31652 0.0
C1640 C 0.15117 0.37858 0.3249 0.0
C1641 C 0.15715 0.40754 0.31051 0.0
C1642 C 0.13829 0.40395 0.31271 0.0
C1643 C 0.12619 0.38826 0.3217 0.0
C1644 C 0.13256 0.37557 0.32772 0.0
C1645 C 0.1311 0.41591 0.30452 0.0
C1646 C 0.12782 0.42983 0.31347 0.0
C1647 C 0.12994 0.41532 0.28779 0.0
C1648 C 0.13205 0.39998 0.27781 0.0
C1649 C 0.11981 0.37906 0.27916 0.0
C1650 C 0.12207 0.36463 0.26999 0.0
C1651 C 0.13651 0.37093 0.2594 0.0
C1652 C 0.14876 0.39169 0.25798 0.0
C1653 C 0.1465 0.40618 0.26708 0.0
H1654 H 0.13814 0.3597 0.25228 0.0
H1655 H 0.11754 0.49965 0.34279 0.0
H1656 H 0.38187 0.48382 0.2509 0.0
H1657 H 0.34817 0.46742 0.2583 0.0
H1658 H 0.36085 0.43171 0.28938 0.0
H1659 H 0.39444 0.44801 0.28207 0.0
H1660 H 0.32627 0.40852 0.27246 0.0
H1661 H 0.35932 0.4739 0.30368 0.0
H1662 H 0.37853 0.51144 0.30787 0.0
H1663 H 0.33398 0.51511 0.27958 0.0
H1664 H 0.31461 0.47757 0.27504 0.0
H1665 H 0.25894 0.38232 0.33012 0.0
H1666 H 0.28912 0.40059 0.31713 0.0
H1667 H 0.25863 0.41516 0.28126 0.0
H1668 H 0.22807 0.39632 0.29403 0.0
H1669 H 0.29938 0.44913 0.29693 0.0
H1670 H 0.26478 0.38287 0.26825 0.0
H1671 H 0.24543 0.34538 0.26598 0.0
H1672 H 0.29324 0.34339 0.29047 0.0
H1673 H 0.31271 0.38097 0.29332 0.0
C1674 C 0.37748 0.47255 0.25937 0.0
C1675 C 0.39083 0.46722 0.26591 0.0
C1676 C 0.35823 0.46317 0.26357 0.0
C1677 C 0.35203 0.44844 0.27448 0.0
C1678 C 0.36527 0.44296 0.28088 0.0
C1679 C 0.38447 0.45226 0.27666 0.0
C1680 C 0.33186 0.43879 0.27946 0.0
C1681 C 0.32045 0.41743 0.27784 0.0
C1682 C 0.32403 0.4504 0.28613 0.0
C1683 C 0.33564 0.47295 0.28886 0.0
C1684 C 0.3537 0.48272 0.29824 0.0
C1685 C 0.3646 0.50399 0.3007 0.0
C1686 C 0.35751 0.51565 0.29395 0.0
C1687 C 0.33947 0.50606 0.28477 0.0
C1688 C 0.32852 0.48479 0.28225 0.0
C1689 C 0.25869 0.38952 0.31953 0.0
C1690 C 0.24124 0.38793 0.31303 0.0
C1691 C 0.2759 0.39992 0.31214 0.0
C1692 C 0.276 0.40913 0.29827 0.0
C1693 C 0.25876 0.40815 0.292 0.0
C1694 C 0.24138 0.39739 0.29925 0.0
C1695 C 0.29412 0.419 0.29015 0.0
C1696 C 0.30513 0.44032 0.29124 0.0
C1697 C 0.30164 0.40739 0.28305 0.0
C1698 C 0.29014 0.38476 0.28113 0.0
C1699 C 0.27111 0.37446 0.2733 0.0
C1700 C 0.26012 0.35318 0.27187 0.0
C1701 C 0.26809 0.34199 0.27806 0.0
C1702 C 0.28708 0.35208 0.28568 0.0
C1703 C 0.2981 0.37338 0.28722 0.0
H1704 H 0.25955 0.32551 0.27693 0.0
H1705 H 0.36597 0.53212 0.29587 0.0
H1706 H 0.48447 0.87919 0.26572 0.0
H1707 H 0.50447 0.86508 0.27522 0.0
H1708 H 0.5482 0.89997 0.24403 0.0
H1709 H 0.52796 0.91366 0.23407 0.0
H1710 H 0.54333 0.86176 0.24535 0.0
H1711 H 0.55411 0.91774 0.28202 0.0
H1712 H 0.54446 0.93735 0.29983 0.0
H1713 H 0.51826 0.88734 0.32856 0.0
H1714 H 0.52752 0.86731 0.31078 0.0
H1715 H 0.62483 0.86282 0.28697 0.0
H1716 H 0.60201 0.87116 0.27339 0.0
H1717 H 0.55901 0.83832 0.30577 0.0
H1718 H 0.5819 0.83025 0.31952 0.0
H1719 H 0.56331 0.87495 0.30327 0.0
H1720 H 0.55256 0.81884 0.26648 0.0
H1721 H 0.56271 0.79956 0.24881 0.0
H1722 H 0.59015 0.8503 0.22095 0.0
H1723 H 0.58 0.86985 0.23839 0.0
C1724 C 0.49815 0.88355 0.26063 0.0
C1725 C 0.5047 0.8977 0.24924 0.0
C1726 C 0.50963 0.87559 0.26616 0.0
C1727 C 0.52795 0.88172 0.2605 0.0
C1728 C 0.53415 0.89511 0.24861 0.0
C1729 C 0.52266 0.90307 0.24305 0.0
C1730 C 0.54114 0.87517 0.26771 0.0
C1731 C 0.54785 0.86479 0.25799 0.0
C1732 C 0.54684 0.87891 0.28422 0.0
C1733 C 0.54133 0.89095 0.29497 0.0
C1734 C 0.54615 0.91087 0.29207 0.0
C1735 C 0.54078 0.92207 0.30217 0.0
C1736 C 0.53071 0.91358 0.31529 0.0
C1737 C 0.52604 0.89388 0.31837 0.0
C1738 C 0.53135 0.8826 0.30829 0.0
C1739 C 0.61046 0.85731 0.2911 0.0
C1740 C 0.60511 0.84602 0.30432 0.0
C1741 C 0.59739 0.86195 0.28328 0.0
C1742 C 0.57875 0.85523 0.2885 0.0
C1743 C 0.57332 0.84366 0.30156 0.0
C1744 C 0.58639 0.83906 0.30939 0.0
C1745 C 0.56531 0.86127 0.28098 0.0
C1746 C 0.55867 0.87174 0.29065 0.0
C1747 C 0.55976 0.85764 0.26445 0.0
C1748 C 0.56562 0.84584 0.25379 0.0
C1749 C 0.5608 0.82591 0.25661 0.0
C1750 C 0.56653 0.81492 0.24663 0.0
C1751 C 0.57715 0.82374 0.23382 0.0
C1752 C 0.58193 0.8435 0.23089 0.0
C1753 C 0.57611 0.8545 0.24077 0.0
H1754 H 0.5816 0.81522 0.22615 0.0
H1755 H 0.52656 0.92228 0.3231 0.0
H1756 H 0.15795 0.64725 0.27156 0.0
H1757 H 0.16004 0.67736 0.28535 0.0
H1758 H 0.09735 0.64512 0.28698 0.0
H1759 H 0.09511 0.61455 0.27349 0.0
H1760 H 0.112 0.68338 0.27579 0.0
H1761 H 0.1252 0.65481 0.32033 0.0
H1762 H 0.14148 0.63975 0.33541 0.0
H1763 H 0.19715 0.6942 0.33431 0.0
H1764 H 0.18125 0.70949 0.31902 0.0
H1765 H 0.11886 0.76798 0.32325 0.0
H1766 H 0.11106 0.73324 0.31448 0.0
H1767 H 0.17248 0.75459 0.31167 0.0
H1768 H 0.18039 0.78929 0.32039 0.0
H1769 H 0.15477 0.71939 0.32552 0.0
H1770 H 0.1437 0.74575 0.27823 0.0
H1771 H 0.12925 0.76142 0.26173 0.0
H1772 H 0.0715 0.71222 0.26715 0.0
H1773 H 0.08565 0.69623 0.2837 0.0
C1774 C 0.14462 0.64634 0.27514 0.0
C1775 C 0.12636 0.6284 0.27148 0.0
C1776 C 0.14584 0.66363 0.28297 0.0
C1777 C 0.12887 0.66339 0.28729 0.0
C1778 C 0.11061 0.64556 0.28373 0.0
C1779 C 0.10937 0.62816 0.27598 0.0
C1780 C 0.13029 0.68214 0.29491 0.0
C1781 C 0.12097 0.69104 0.28686 0.0
C1782 C 0.14243 0.69233 0.30913 0.0
C1783 C 0.15203 0.68324 0.31843 0.0
C1784 C 0.14093 0.66352 0.32321 0.0
C1785 C 0.15009 0.65495 0.33181 0.0
C1786 C 0.17034 0.666 0.33579 0.0
C1787 C 0.18146 0.68566 0.33121 0.0
C1788 C 0.17238 0.6943 0.3226 0.0
C1789 C 0.13069 0.76523 0.32079 0.0
C1790 C 0.15022 0.78134 0.32232 0.0
C1791 C 0.12621 0.74543 0.31574 0.0
C1792 C 0.14121 0.74145 0.31226 0.0
C1793 C 0.16072 0.75742 0.31419 0.0
C1794 C 0.16519 0.77722 0.31906 0.0
C1795 C 0.13669 0.72075 0.30629 0.0
C1796 C 0.14548 0.71153 0.31462 0.0
C1797 C 0.12427 0.71037 0.29224 0.0
C1798 C 0.11571 0.71994 0.28234 0.0
C1799 C 0.12792 0.73836 0.276 0.0
C1800 C 0.11979 0.74729 0.26662 0.0
C1801 C 0.09947 0.7379 0.26348 0.0
C1802 C 0.08724 0.7195 0.26963 0.0
C1803 C 0.0953 0.71047 0.27898 0.0
H1804 H 0.0932 0.74485 0.25622 0.0
H1805 H 0.1774 0.65933 0.34245 0.0
H1806 H 0.82782 0.05046 0.38349 0.0
H1807 H 0.79921 0.01875 0.37109 0.0
H1808 H 0.77568 0.006 0.41649 0.0
H1809 H 0.80392 0.03777 0.42885 0.0
H1810 H 0.78354 0.97534 0.39778 0.0
H1811 H 0.75128 0.01511 0.39473 0.0
H1812 H 0.74827 0.04421 0.38695 0.0
H1813 H 0.7489 0.02699 0.33792 0.0
H1814 H 0.75223 0.99795 0.34544 0.0
H1815 H 0.69608 0.88237 0.37723 0.0
H1816 H 0.72039 0.91697 0.38851 0.0
H1817 H 0.72733 0.93712 0.34147 0.0
H1818 H 0.70263 0.90251 0.33029 0.0
H1819 H 0.72812 0.96506 0.36063 0.0
H1820 H 0.76258 0.92855 0.36143 0.0
H1821 H 0.77135 0.90248 0.36698 0.0
H1822 H 0.77074 0.91472 0.41699 0.0
H1823 H 0.762 0.9409 0.41173 0.0
C1824 C 0.81632 0.04104 0.39072 0.0
C1825 C 0.81799 0.04651 0.40709 0.0
C1826 C 0.80003 0.02305 0.38365 0.0
C1827 C 0.78541 0.01019 0.39292 0.0
C1828 C 0.7868 0.01587 0.40917 0.0
C1829 C 0.80286 0.03401 0.41617 0.0
C1830 C 0.76975 0.98984 0.38604 0.0
C1831 C 0.7712 0.97297 0.38986 0.0
C1832 C 0.75426 0.98706 0.3752 0.0
C1833 C 0.75224 0.0045 0.37067 0.0
C1834 C 0.751 0.01766 0.38231 0.0
C1835 C 0.74918 0.03411 0.37794 0.0
C1836 C 0.74846 0.03749 0.36196 0.0
C1837 C 0.7495 0.02438 0.3503 0.0
C1838 C 0.75133 0.00791 0.35461 0.0
C1839 C 0.70288 0.89426 0.36937 0.0
C1840 C 0.69792 0.88989 0.35295 0.0
C1841 C 0.71678 0.91397 0.37578 0.0
C1842 C 0.72609 0.92958 0.3658 0.0
C1843 C 0.72047 0.92533 0.34939 0.0
C1844 C 0.70639 0.90562 0.34301 0.0
C1845 C 0.74168 0.95027 0.37252 0.0
C1846 C 0.74033 0.96727 0.36862 0.0
C1847 C 0.75763 0.95327 0.38302 0.0
C1848 C 0.76149 0.93657 0.38618 0.0
C1849 C 0.76411 0.92553 0.3736 0.0
C1850 C 0.76924 0.91086 0.3767 0.0
C1851 C 0.77176 0.90708 0.39234 0.0
C1852 C 0.76892 0.91777 0.40489 0.0
C1853 C 0.7639 0.93254 0.40186 0.0
H1854 H 0.77577 0.89575 0.39472 0.0
H1855 H 0.74704 0.05023 0.3586 0.0
H1856 H 0.95812 0.74405 0.42931 0.0
H1857 H 0.99087 0.75995 0.42004 0.0
H1858 H 0.97641 0.79618 0.39101 0.0
H1859 H 0.9435 0.78001 0.39995 0.0
H1860 H 0.99205 0.77714 0.37447 0.0
H1861 H 0.00779 0.81789 0.42424 0.0
H1862 H 0.00872 0.82419 0.45322 0.0
H1863 H 0.04151 0.79383 0.46056 0.0
H1864 H 0.04052 0.78708 0.43161 0.0
H1865 H 0.08583 0.83686 0.349 0.0
H1866 H 0.05574 0.82707 0.36178 0.0
H1867 H 0.07009 0.7929 0.3933 0.0
H1868 H 0.10052 0.8032 0.38082 0.0
H1869 H 0.05473 0.81206 0.40896 0.0
H1870 H 0.03749 0.76925 0.36008 0.0
H1871 H 0.03631 0.76165 0.33122 0.0
H1872 H 0.00591 0.79417 0.32243 0.0
H1873 H 0.00713 0.8022 0.35125 0.0
C1874 C 0.96194 0.75545 0.42099 0.0
C1875 C 0.94821 0.76074 0.41532 0.0
C1876 C 0.98072 0.76466 0.41582 0.0
C1877 C 0.98611 0.77935 0.40492 0.0
C1878 C 0.97255 0.78492 0.39947 0.0
C1879 C 0.95381 0.77577 0.40467 0.0
C1880 C 0.00544 0.78795 0.39844 0.0
C1881 C 0.00577 0.7851 0.38199 0.0
C1882 C 0.02329 0.79774 0.40832 0.0
C1883 C 0.02392 0.80181 0.42574 0.0
C1884 C 0.01505 0.8124 0.43203 0.0
C1885 C 0.01562 0.81609 0.44846 0.0
C1886 C 0.02512 0.80937 0.45873 0.0
C1887 C 0.03413 0.799 0.45259 0.0
C1888 C 0.03358 0.79526 0.43617 0.0
C1889 C 0.08259 0.82736 0.35871 0.0
C1890 C 0.09528 0.82051 0.36379 0.0
C1891 C 0.0654 0.82173 0.36598 0.0
C1892 C 0.06046 0.8089 0.37829 0.0
C1893 C 0.07354 0.80271 0.38377 0.0
C1894 C 0.09084 0.80849 0.37659 0.0
C1895 C 0.04132 0.8013 0.38498 0.0
C1896 C 0.04101 0.80424 0.40145 0.0
C1897 C 0.02342 0.79138 0.37515 0.0
C1898 C 0.02258 0.7865 0.35781 0.0
C1899 C 0.03068 0.7749 0.35199 0.0
C1900 C 0.02998 0.7705 0.33564 0.0
C1901 C 0.02109 0.77747 0.325 0.0
C1902 C 0.01282 0.78881 0.33069 0.0
C1903 C 0.0135 0.79328 0.34703 0.0
H1904 H 0.02057 0.77404 0.31235 0.0
H1905 H 0.02555 0.81225 0.47144 0.0
H1906 H 0.22503 0.18069 0.39943 0.0
H1907 H 0.20907 0.19868 0.38909 0.0
H1908 H 0.26567 0.25076 0.38394 0.0
H1909 H 0.28167 0.23296 0.39454 0.0
H1910 H 0.24294 0.26304 0.39576 0.0
H1911 H 0.23605 0.21634 0.35188 0.0
H1912 H 0.22657 0.18283 0.33808 0.0
H1913 H 0.16639 0.16104 0.34598 0.0
H1914 H 0.17556 0.19436 0.36002 0.0
H1915 H 0.21638 0.31321 0.34092 0.0
H1916 H 0.22874 0.29223 0.35155 0.0
H1917 H 0.17137 0.25032 0.36504 0.0
H1918 H 0.15879 0.27137 0.35459 0.0
H1919 H 0.19252 0.23201 0.34966 0.0
H1920 H 0.20024 0.27992 0.39304 0.0
H1921 H 0.21032 0.31435 0.40531 0.0
H1922 H 0.2701 0.33446 0.39703 0.0
H1923 H 0.26027 0.30024 0.38441 0.0
C1924 C 0.23404 0.19596 0.39604 0.0
C1925 C 0.25458 0.20541 0.39774 0.0
C1926 C 0.22491 0.20621 0.39012 0.0
C1927 C 0.23616 0.22597 0.38552 0.0
C1928 C 0.25669 0.23554 0.38742 0.0
C1929 C 0.26582 0.22537 0.3935 0.0
C1930 C 0.22659 0.23673 0.3787 0.0
C1931 C 0.23207 0.25629 0.38559 0.0
C1932 C 0.21208 0.2278 0.36562 0.0
C1933 C 0.20652 0.20777 0.35715 0.0
C1934 C 0.22082 0.20435 0.35078 0.0
C1935 C 0.2155 0.1854 0.3429 0.0
C1936 C 0.1959 0.1698 0.3412 0.0
C1937 C 0.18157 0.17313 0.34733 0.0
C1938 C 0.18682 0.19205 0.35525 0.0
C1939 C 0.20627 0.29941 0.34595 0.0
C1940 C 0.18659 0.29398 0.34691 0.0
C1941 C 0.2134 0.28748 0.35206 0.0
C1942 C 0.20097 0.26985 0.35913 0.0
C1943 C 0.18115 0.26389 0.35958 0.0
C1944 C 0.17402 0.27596 0.35363 0.0
C1945 C 0.20905 0.25823 0.36665 0.0
C1946 C 0.2033 0.23858 0.3599 0.0
C1947 C 0.22343 0.26712 0.37976 0.0
C1948 C 0.22948 0.28759 0.38764 0.0
C1949 C 0.2155 0.29175 0.39371 0.0
C1950 C 0.22116 0.31121 0.40075 0.0
C1951 C 0.24083 0.32659 0.40192 0.0
C1952 C 0.25486 0.32253 0.3961 0.0
C1953 C 0.24925 0.3031 0.38901 0.0
H1954 H 0.24519 0.34165 0.40736 0.0
H1955 H 0.19181 0.15514 0.33509 0.0
H1956 H 0.62248 0.47962 0.73015 0.0
H1957 H 0.64994 0.50449 0.71685 0.0
H1958 H 0.65195 0.55344 0.74682 0.0
H1959 H 0.62445 0.5286 0.76023 0.0
H1960 H 0.65814 0.56295 0.71616 0.0
H1961 H 0.68311 0.53744 0.75585 0.0
H1962 H 0.68512 0.51114 0.77014 0.0
H1963 H 0.69875 0.48901 0.7277 0.0
H1964 H 0.69652 0.515 0.71308 0.0
H1965 H 0.75794 0.63725 0.70596 0.0
H1966 H 0.72693 0.61415 0.71654 0.0
H1967 H 0.72196 0.56376 0.6864 0.0
H1968 H 0.75288 0.58676 0.67581 0.0
H1969 H 0.71721 0.55582 0.71747 0.0
H1970 H 0.69261 0.58229 0.67795 0.0
H1971 H 0.69108 0.60924 0.66426 0.0
H1972 H 0.6777 0.63062 0.7072 0.0
H1973 H 0.67943 0.60396 0.72122 0.0
C1974 C 0.62873 0.49568 0.73388 0.0
C1975 C 0.62146 0.50215 0.74637 0.0
C1976 C 0.64438 0.50987 0.72625 0.0
C1977 C 0.65317 0.53078 0.73103 0.0
C1978 C 0.64538 0.53737 0.74297 0.0
C1979 C 0.62966 0.52316 0.7506 0.0
C1980 C 0.67113 0.54561 0.72413 0.0
C1981 C 0.67115 0.56156 0.7166 0.0
C1982 C 0.68801 0.54363 0.72457 0.0
C1983 C 0.68944 0.52803 0.73333 0.0
C1984 C 0.68637 0.52685 0.74953 0.0
C1985 C 0.68758 0.51202 0.75769 0.0
C1986 C 0.69201 0.49838 0.74982 0.0
C1987 C 0.69529 0.49957 0.73377 0.0
C1988 C 0.69406 0.51436 0.72555 0.0
C1989 C 0.75011 0.62127 0.70152 0.0
C1990 C 0.75775 0.61372 0.69012 0.0
C1991 C 0.73238 0.60814 0.70748 0.0
C1992 C 0.72212 0.58729 0.70217 0.0
C1993 C 0.72965 0.57981 0.69063 0.0
C1994 C 0.74729 0.59294 0.68461 0.0
C1995 C 0.70415 0.57299 0.70929 0.0
C1996 C 0.70419 0.55719 0.71698 0.0
C1997 C 0.68744 0.57525 0.70908 0.0
C1998 C 0.68635 0.59126 0.70067 0.0
C1999 C 0.68951 0.59285 0.68451 0.0
C2000 C 0.68857 0.60805 0.67668 0.0
C2001 C 0.68435 0.62167 0.68486 0.0
C2002 C 0.681 0.62008 0.70088 0.0
C2003 C 0.68194 0.60492 0.70877 0.0
H2004 H 0.68362 0.63343 0.67878 0.0
H2005 H 0.69294 0.48691 0.75616 0.0
H2006 H 0.46704 0.07723 0.75876 0.0
H2007 H 0.44623 0.0908 0.75012 0.0
H2008 H 0.47974 0.11331 0.71001 0.0
H2009 H 0.50097 0.10023 0.71881 0.0
H2010 H 0.47103 0.1409 0.72393 0.0
H2011 H 0.43654 0.0696 0.70519 0.0
H2012 H 0.42189 0.03284 0.70787 0.0
H2013 H 0.38334 0.03578 0.74041 0.0
H2014 H 0.39797 0.07264 0.7381 0.0
H2015 H 0.40355 0.15602 0.67678 0.0
H2016 H 0.42635 0.14593 0.68753 0.0
H2017 H 0.38799 0.11657 0.72378 0.0
H2018 H 0.36483 0.12611 0.71268 0.0
H2019 H 0.3996 0.09293 0.71244 0.0
H2020 H 0.43455 0.16407 0.73225 0.0
H2021 H 0.44911 0.20097 0.73013 0.0
H2022 H 0.48683 0.19861 0.69646 0.0
H2023 H 0.47224 0.16164 0.69825 0.0
C2024 C 0.47018 0.08535 0.74824 0.0
C2025 C 0.48562 0.08758 0.73943 0.0
C2026 C 0.45816 0.09293 0.74324 0.0
C2027 C 0.46128 0.10283 0.7293 0.0
C2028 C 0.47703 0.10565 0.72076 0.0
C2029 C 0.48904 0.09802 0.72573 0.0
C2030 C 0.44777 0.10972 0.72341 0.0
C2031 C 0.45544 0.1304 0.72126 0.0
C2032 C 0.42737 0.09609 0.72026 0.0
C2033 C 0.41848 0.07391 0.72159 0.0
C2034 C 0.42505 0.06244 0.71301 0.0
C2035 C 0.41673 0.04158 0.71445 0.0
C2036 C 0.40173 0.03199 0.72433 0.0
C2037 C 0.39498 0.04323 0.73277 0.0
C2038 C 0.40327 0.0641 0.7314 0.0
C2039 C 0.40006 0.14751 0.6871 0.0
C2040 C 0.38248 0.14187 0.69394 0.0
C2041 C 0.41318 0.1419 0.69334 0.0
C2042 C 0.40913 0.1308 0.70669 0.0
C2043 C 0.3915 0.12515 0.7135 0.0
C2044 C 0.3783 0.13065 0.70719 0.0
C2045 C 0.42277 0.12422 0.71306 0.0
C2046 C 0.41516 0.10353 0.71522 0.0
C2047 C 0.4432 0.13786 0.71629 0.0
C2048 C 0.4521 0.16008 0.71523 0.0
C2049 C 0.44578 0.17141 0.72428 0.0
C2050 C 0.45408 0.19233 0.72317 0.0
C2051 C 0.46883 0.20211 0.71311 0.0
C2052 C 0.47537 0.191 0.70421 0.0
C2053 C 0.46711 0.17007 0.70529 0.0
H2054 H 0.47524 0.21831 0.71225 0.0
H2055 H 0.39531 0.01584 0.72543 0.0
H2056 H 0.9001 0.38267 0.75675 0.0
H2057 H 0.88574 0.34702 0.74669 0.0
H2058 H 0.90398 0.36488 0.70034 0.0
H2059 H 0.9171 0.40053 0.71 0.0
H2060 H 0.86944 0.33313 0.69689 0.0
H2061 H 0.92941 0.35058 0.72733 0.0
H2062 H 0.95347 0.36364 0.75089 0.0
H2063 H 0.91133 0.31779 0.77746 0.0
H2064 H 0.88692 0.30462 0.7541 0.0
H2065 H 0.86943 0.24341 0.66697 0.0
H2066 H 0.87981 0.2783 0.67762 0.0
H2067 H 0.84728 0.25546 0.71815 0.0
H2068 H 0.83659 0.22046 0.70748 0.0
H2069 H 0.88761 0.28871 0.72504 0.0
H2070 H 0.82828 0.27064 0.69283 0.0
H2071 H 0.80594 0.25762 0.66823 0.0
H2072 H 0.8495 0.30514 0.64374 0.0
H2073 H 0.87223 0.31827 0.66815 0.0
C2074 C 0.90077 0.37907 0.74434 0.0
C2075 C 0.90987 0.39459 0.73422 0.0
C2076 C 0.89278 0.35863 0.73865 0.0
C2077 C 0.89412 0.35325 0.72283 0.0
C2078 C 0.90287 0.36864 0.71262 0.0
C2079 C 0.91059 0.38908 0.71823 0.0
C2080 C 0.88649 0.33161 0.7169 0.0
C2081 C 0.87362 0.32352 0.70297 0.0
C2082 C 0.89163 0.31888 0.72496 0.0
C2083 C 0.90628 0.32676 0.73902 0.0
C2084 C 0.92523 0.34338 0.73823 0.0
C2085 C 0.93894 0.35079 0.75154 0.0
C2086 C 0.93391 0.34159 0.76567 0.0
C2087 C 0.91519 0.32493 0.76651 0.0
C2088 C 0.90142 0.31748 0.75324 0.0
C2089 C 0.86444 0.24582 0.67812 0.0
C2090 C 0.85212 0.22926 0.68635 0.0
C2091 C 0.87033 0.26571 0.68415 0.0
C2092 C 0.8642 0.26936 0.6986 0.0
C2093 C 0.85207 0.25288 0.70695 0.0
C2094 C 0.84591 0.23295 0.70079 0.0
C2095 C 0.87077 0.29046 0.70507 0.0
C2096 C 0.88343 0.29838 0.71906 0.0
C2097 C 0.86571 0.30311 0.69695 0.0
C2098 C 0.85202 0.29532 0.68228 0.0
C2099 C 0.83316 0.27821 0.68217 0.0
C2100 C 0.82041 0.27083 0.66826 0.0
C2101 C 0.82631 0.28052 0.65442 0.0
C2102 C 0.84496 0.29764 0.65446 0.0
C2103 C 0.85777 0.30507 0.66833 0.0
H2104 H 0.81642 0.27478 0.64367 0.0
H2105 H 0.94455 0.34734 0.77596 0.0
H2106 H 0.1784 0.92899 0.62998 0.0
H2107 H 0.19918 0.96492 0.63993 0.0
H2108 H 0.21318 0.98022 0.59229 0.0
H2109 H 0.193 0.94429 0.58234 0.0
H2110 H 0.24527 0.99904 0.6123 0.0
H2111 H 0.181 0.99035 0.61013 0.0
H2112 H 0.14629 0.97436 0.61547 0.0
H2113 H 0.16332 0.98841 0.66559 0.0
H2114 H 0.19814 0.00423 0.66055 0.0
H2115 H 0.26512 0.10662 0.64133 0.0
H2116 H 0.24225 0.07131 0.63091 0.0
H2117 H 0.2789 0.05213 0.6548 0.0
H2118 H 0.30193 0.08734 0.66519 0.0
H2119 H 0.22069 0.03625 0.64505 0.0
H2120 H 0.27968 0.01561 0.62995 0.0
H2121 H 0.31373 0.03281 0.62272 0.0
H2122 H 0.30577 0.07933 0.60329 0.0
H2123 H 0.27159 0.06223 0.61015 0.0
C2124 C 0.18599 0.93999 0.62164 0.0
C2125 C 0.184 0.93379 0.60536 0.0
C2126 C 0.19771 0.96054 0.62732 0.0
C2127 C 0.20757 0.97527 0.61682 0.0
C2128 C 0.20565 0.96911 0.60059 0.0
C2129 C 0.19397 0.94859 0.59491 0.0
C2130 C 0.2202 0.99706 0.62279 0.0
C2131 C 0.23988 0.00715 0.61946 0.0
C2132 C 0.21308 0.00776 0.63189 0.0
C2133 C 0.19217 0.99831 0.63496 0.0
C2134 C 0.17734 0.98989 0.62229 0.0
C2135 C 0.15765 0.98088 0.62526 0.0
C2136 C 0.1526 0.98033 0.64086 0.0
C2137 C 0.16725 0.98883 0.65352 0.0
C2138 C 0.18697 0.99783 0.65061 0.0
C2139 C 0.2683 0.0949 0.64445 0.0
C2140 C 0.28544 0.09985 0.65403 0.0
C2141 C 0.25515 0.07472 0.63853 0.0
C2142 C 0.259 0.05917 0.64196 0.0
C2143 C 0.2758 0.06397 0.65186 0.0
C2144 C 0.28892 0.08411 0.65782 0.0
C2145 C 0.24578 0.03802 0.63481 0.0
C2146 C 0.22603 0.02807 0.63791 0.0
C2147 C 0.25271 0.02756 0.62521 0.0
C2148 C 0.27313 0.03773 0.62072 0.0
C2149 C 0.28517 0.02945 0.62406 0.0
C2150 C 0.30449 0.03919 0.62004 0.0
C2151 C 0.31193 0.05718 0.6126 0.0
C2152 C 0.30002 0.06542 0.6091 0.0
C2153 C 0.28067 0.05572 0.61307 0.0
H2154 H 0.3269 0.06471 0.60952 0.0
H2155 H 0.13735 0.97335 0.64314 0.0
H2156 H 0.04603 0.26337 0.58123 0.0
H2157 H 0.01411 0.24937 0.59173 0.0
H2158 H 0.03465 0.22862 0.63061 0.0
H2159 H 0.06641 0.24188 0.61983 0.0
H2160 H 0.99829 0.20019 0.61908 0.0
H2161 H 0.03147 0.27164 0.63591 0.0
H2162 H 0.04986 0.30836 0.63255 0.0
H2163 H 0.00202 0.30179 0.60147 0.0
H2164 H 0.98344 0.26496 0.60447 0.0
H2165 H 0.91823 0.17927 0.66455 0.0
H2166 H 0.95054 0.19162 0.65506 0.0
H2167 H 0.93594 0.22024 0.61842 0.0
H2168 H 0.90393 0.2086 0.62837 0.0
H2169 H 0.97041 0.24486 0.63005 0.0
H2170 H 0.94061 0.17253 0.6093 0.0
H2171 H 0.92222 0.13563 0.61224 0.0
H2172 H 0.96418 0.14408 0.65049 0.0
H2173 H 0.98255 0.18106 0.64785 0.0
C2174 C 0.0437 0.25559 0.59189 0.0
C2175 C 0.05882 0.25383 0.59973 0.0
C2176 C 0.0255 0.24779 0.59798 0.0
C2177 C 0.0221 0.23824 0.6121 0.0
C2178 C 0.037 0.23605 0.61976 0.0
C2179 C 0.05519 0.24379 0.61365 0.0
C2180 C 0.00301 0.23061 0.61888 0.0
C2181 C 0.99228 0.21001 0.62165 0.0
C2182 C 0.99504 0.24333 0.62205 0.0
C2183 C 0.00614 0.26551 0.6203 0.0
C2184 C 0.02493 0.278 0.62827 0.0
C2185 C 0.03538 0.29884 0.62644 0.0
C2186 C 0.02713 0.3074 0.61678 0.0
C2187 C 0.00839 0.29514 0.60894 0.0
C2188 C 0.99789 0.27429 0.61071 0.0
C2189 C 0.92192 0.1881 0.65441 0.0
C2190 C 0.90859 0.1929 0.64712 0.0
C2191 C 0.94033 0.19499 0.64887 0.0
C2192 C 0.94562 0.20647 0.63572 0.0
C2193 C 0.93227 0.21137 0.62854 0.0
C2194 C 0.91394 0.20466 0.63419 0.0
C2195 C 0.96534 0.21423 0.62987 0.0
C2196 C 0.97631 0.23496 0.62741 0.0
C2197 C 0.97354 0.20164 0.62697 0.0
C2198 C 0.96261 0.17951 0.62859 0.0
C2199 C 0.94566 0.1665 0.61848 0.0
C2200 C 0.93533 0.14559 0.62004 0.0
C2201 C 0.94196 0.13753 0.63162 0.0
C2202 C 0.95901 0.15035 0.64158 0.0
C2203 C 0.96939 0.17127 0.64003 0.0
H2204 H 0.93394 0.12134 0.63283 0.0
H2205 H 0.03525 0.32353 0.61538 0.0
H2206 H 0.82686 0.83674 0.59101 0.0
H2207 H 0.82725 0.8096 0.60464 0.0
H2208 H 0.7649 0.78104 0.60761 0.0
H2209 H 0.76433 0.80819 0.59373 0.0
H2210 H 0.78491 0.78136 0.63561 0.0
H2211 H 0.78066 0.76112 0.58073 0.0
H2212 H 0.7891 0.76466 0.55306 0.0
H2213 H 0.84685 0.77639 0.56782 0.0
H2214 H 0.83888 0.77327 0.59563 0.0
H2215 H 0.7866 0.69196 0.65883 0.0
H2216 H 0.77816 0.71504 0.64607 0.0
H2217 H 0.83811 0.75186 0.63551 0.0
H2218 H 0.84657 0.72893 0.64788 0.0
H2219 H 0.81364 0.74333 0.60997 0.0
H2220 H 0.8184 0.76706 0.66526 0.0
H2221 H 0.80963 0.76313 0.69285 0.0
H2222 H 0.74988 0.74345 0.67694 0.0
H2223 H 0.75825 0.74703 0.64921 0.0
C2224 C 0.81318 0.82462 0.59444 0.0
C2225 C 0.79552 0.82448 0.59109 0.0
C2226 C 0.81344 0.80915 0.60227 0.0
C2227 C 0.79605 0.79315 0.60689 0.0
C2228 C 0.77846 0.79324 0.60408 0.0
C2229 C 0.77818 0.80877 0.59619 0.0
C2230 C 0.79648 0.7763 0.61446 0.0
C2231 C 0.7908 0.77271 0.62991 0.0
C2232 C 0.8043 0.76514 0.60704 0.0
C2233 C 0.80921 0.76713 0.59031 0.0
C2234 C 0.79522 0.76464 0.57811 0.0
C2235 C 0.79991 0.76654 0.56239 0.0
C2236 C 0.81851 0.77079 0.55869 0.0
C2237 C 0.83245 0.77312 0.57071 0.0
C2238 C 0.82785 0.77127 0.58645 0.0
C2239 C 0.79801 0.70511 0.65394 0.0
C2240 C 0.81725 0.70857 0.65437 0.0
C2241 C 0.79317 0.7183 0.64669 0.0
C2242 C 0.80753 0.73522 0.63989 0.0
C2243 C 0.82678 0.73887 0.64062 0.0
C2244 C 0.83159 0.72572 0.64775 0.0
C2245 C 0.80264 0.74877 0.63133 0.0
C2246 C 0.80741 0.75168 0.61562 0.0
C2247 C 0.79391 0.75916 0.6385 0.0
C2248 C 0.7889 0.75708 0.65515 0.0
C2249 C 0.80336 0.76173 0.66763 0.0
C2250 C 0.79847 0.7596 0.6833 0.0
C2251 C 0.7792 0.75298 0.68664 0.0
C2252 C 0.76479 0.74854 0.67433 0.0
C2253 C 0.7696 0.75063 0.65864 0.0
H2254 H 0.77544 0.75134 0.69878 0.0
H2255 H 0.8221 0.77224 0.54651 0.0
H2256 H 0.04621 0.77271 0.58827 0.0
H2257 H 0.01365 0.75614 0.59776 0.0
H2258 H 0.02309 0.81462 0.6165 0.0
H2259 H 0.05599 0.83126 0.60753 0.0
H2260 H 0.00923 0.78786 0.63788 0.0
H2261 H 0.99143 0.78839 0.58326 0.0
H2262 H 0.99049 0.78245 0.55424 0.0
H2263 H 0.96424 0.7181 0.55756 0.0
H2264 H 0.96525 0.72366 0.58664 0.0
H2265 H 0.91085 0.7454 0.65824 0.0
H2266 H 0.94142 0.76591 0.64612 0.0
H2267 H 0.93839 0.71089 0.6259 0.0
H2268 H 0.90775 0.69042 0.63776 0.0
H2269 H 0.94825 0.73834 0.6046 0.0
H2270 H 0.96885 0.73818 0.65919 0.0
H2271 H 0.96967 0.74385 0.68824 0.0
H2272 H 0.99071 0.80744 0.68478 0.0
H2273 H 0.98976 0.80208 0.65567 0.0
C2274 C 0.04138 0.78205 0.59443 0.0
C2275 C 0.05372 0.8033 0.5972 0.0
C2276 C 0.02266 0.77258 0.59968 0.0
C2277 C 0.01585 0.78417 0.60769 0.0
C2278 C 0.02803 0.80541 0.61028 0.0
C2279 C 0.04677 0.8149 0.60505 0.0
C2280 C 0.9965 0.77396 0.61418 0.0
C2281 C 0.99583 0.77733 0.63054 0.0
C2282 C 0.97909 0.75988 0.60466 0.0
C2283 C 0.97859 0.75648 0.58717 0.0
C2284 C 0.98562 0.77299 0.57783 0.0
C2285 C 0.98504 0.76969 0.56136 0.0
C2286 C 0.97736 0.74992 0.55407 0.0
C2287 C 0.97023 0.73341 0.56323 0.0
C2288 C 0.97077 0.73663 0.57971 0.0
C2289 C 0.91677 0.73774 0.65122 0.0
C2290 C 0.90709 0.71638 0.649 0.0
C2291 C 0.93421 0.74944 0.64433 0.0
C2292 C 0.94227 0.73991 0.63523 0.0
C2293 C 0.93243 0.71855 0.63286 0.0
C2294 C 0.915 0.70689 0.6397 0.0
C2295 C 0.96109 0.75208 0.62829 0.0
C2296 C 0.96164 0.74905 0.61188 0.0
C2297 C 0.97841 0.76645 0.63775 0.0
C2298 C 0.97902 0.76969 0.65524 0.0
C2299 C 0.9735 0.75334 0.66461 0.0
C2300 C 0.97401 0.7565 0.68109 0.0
C2301 C 0.98018 0.77598 0.68834 0.0
C2302 C 0.9859 0.79235 0.67914 0.0
C2303 C 0.98539 0.78926 0.66265 0.0
H2304 H 0.98057 0.7784 0.7011 0.0
H2305 H 0.97689 0.74739 0.54131 0.0
H2306 H 0.20208 0.25699 0.57411 0.0
H2307 H 0.21974 0.24026 0.5834 0.0
H2308 H 0.17621 0.20962 0.61592 0.0
H2309 H 0.1588 0.2268 0.60704 0.0
H2310 H 0.21234 0.2272 0.63054 0.0
H2311 H 0.17909 0.18356 0.58284 0.0
H2312 H 0.16837 0.17505 0.55422 0.0
H2313 H 0.22829 0.20196 0.54358 0.0
H2314 H 0.23939 0.2109 0.57215 0.0
H2315 H 0.25011 0.16573 0.65581 0.0
H2316 H 0.228 0.1759 0.64356 0.0
H2317 H 0.27034 0.20834 0.61063 0.0
H2318 H 0.29237 0.19788 0.62269 0.0
H2319 H 0.23341 0.1881 0.59604 0.0
H2320 H 0.26666 0.23365 0.64329 0.0
H2321 H 0.27774 0.24264 0.67185 0.0
H2322 H 0.21794 0.2126 0.68311 0.0
H2323 H 0.20651 0.20318 0.65461 0.0
C2324 C 0.19624 0.24665 0.58321 0.0
C2325 C 0.17907 0.24328 0.58988 0.0
C2326 C 0.20624 0.23693 0.5884 0.0
C2327 C 0.19921 0.22356 0.60027 0.0
C2328 C 0.18186 0.21983 0.60671 0.0
C2329 C 0.17184 0.22954 0.60153 0.0
C2330 C 0.21064 0.21452 0.60671 0.0
C2331 C 0.21663 0.21833 0.62303 0.0
C2332 C 0.2167 0.20343 0.59684 0.0
C2333 C 0.21007 0.19807 0.57964 0.0
C2334 C 0.18999 0.18782 0.5744 0.0
C2335 C 0.18385 0.18289 0.55818 0.0
C2336 C 0.19764 0.18801 0.54709 0.0
C2337 C 0.21762 0.19803 0.55219 0.0
C2338 C 0.22384 0.20301 0.5684 0.0
C2339 C 0.25462 0.1749 0.64588 0.0
C2340 C 0.27298 0.18119 0.64025 0.0
C2341 C 0.24202 0.18074 0.63893 0.0
C2342 C 0.24765 0.19312 0.62634 0.0
C2343 C 0.26573 0.19882 0.62036 0.0
C2344 C 0.27831 0.19292 0.62728 0.0
C2345 C 0.23505 0.2008 0.61983 0.0
C2346 C 0.22894 0.19682 0.60353 0.0
C2347 C 0.2289 0.21181 0.62969 0.0
C2348 C 0.23574 0.21753 0.64683 0.0
C2349 C 0.25588 0.22882 0.65186 0.0
C2350 C 0.26222 0.23402 0.66804 0.0
C2351 C 0.24855 0.22815 0.67929 0.0
C2352 C 0.22851 0.21711 0.67438 0.0
C2353 C 0.22209 0.21185 0.65822 0.0
H2354 H 0.25349 0.23219 0.69181 0.0
H2355 H 0.19286 0.18417 0.53454 0.0
H2356 H 0.81283 0.96289 0.61385 0.0
H2357 H 0.81323 0.9928 0.62653 0.0
H2358 H 0.77029 0.98684 0.58984 0.0
H2359 H 0.77025 0.95726 0.57683 0.0
H2360 H 0.79978 0.02507 0.59453 0.0
H2361 H 0.75754 0.97548 0.62712 0.0
H2362 H 0.74674 0.94723 0.6441 0.0
H2363 H 0.79626 0.98455 0.67801 0.0
H2364 H 0.80752 0.01295 0.66112 0.0
H2365 H 0.78772 0.09397 0.65987 0.0
H2366 H 0.77786 0.05996 0.64733 0.0
H2367 H 0.8351 0.08334 0.63056 0.0
H2368 H 0.84503 0.11713 0.64304 0.0
H2369 H 0.79229 0.03456 0.65166 0.0
H2370 H 0.83164 0.06271 0.59489 0.0
H2371 H 0.83935 0.09023 0.57753 0.0
H2372 H 0.78922 0.09338 0.59083 0.0
H2373 H 0.78139 0.06613 0.60837 0.0
C2374 C 0.80344 0.96792 0.60851 0.0
C2375 C 0.79155 0.95773 0.59432 0.0
C2376 C 0.80354 0.98489 0.61584 0.0
C2377 C 0.79169 0.99196 0.60919 0.0
C2378 C 0.77952 0.9816 0.59519 0.0
C2379 C 0.77939 0.9646 0.58785 0.0
C2380 C 0.79287 0.01083 0.61638 0.0
C2381 C 0.79802 0.02707 0.60699 0.0
C2382 C 0.79017 0.01334 0.63257 0.0
C2383 C 0.78345 0.99631 0.64279 0.0
C2384 C 0.76621 0.97762 0.63814 0.0
C2385 C 0.75999 0.96158 0.64776 0.0
C2386 C 0.77082 0.96408 0.66211 0.0
C2387 C 0.78788 0.98264 0.66688 0.0
C2388 C 0.79418 0.99872 0.6573 0.0
C2389 C 0.79823 0.09184 0.65356 0.0
C2390 C 0.81713 0.10832 0.6523 0.0
C2391 C 0.79256 0.07241 0.6464 0.0
C2392 C 0.80564 0.06922 0.63781 0.0
C2393 C 0.82462 0.08555 0.63685 0.0
C2394 C 0.83029 0.10488 0.644 0.0
C2395 C 0.79974 0.04885 0.62991 0.0
C2396 C 0.7938 0.0324 0.63916 0.0
C2397 C 0.80128 0.04599 0.61352 0.0
C2398 C 0.80598 0.06242 0.60297 0.0
C2399 C 0.82227 0.06927 0.59408 0.0
C2400 C 0.8267 0.08488 0.58425 0.0
C2401 C 0.81482 0.0936 0.58309 0.0
C2402 C 0.79852 0.08677 0.59181 0.0
C2403 C 0.79412 0.07129 0.60174 0.0
H2404 H 0.81824 0.10564 0.57545 0.0
H2405 H 0.76598 0.95165 0.66954 0.0
H2406 H 0.47334 0.38483 0.74582 0.0
H2407 H 0.44558 0.35597 0.72988 0.0
H2408 H 0.48032 0.32731 0.72339 0.0
H2409 H 0.50826 0.35636 0.73874 0.0
H2410 H 0.45886 0.32232 0.69659 0.0
H2411 H 0.44776 0.31425 0.75188 0.0
H2412 H 0.44354 0.32452 0.77886 0.0
H2413 H 0.39398 0.32843 0.76061 0.0
H2414 H 0.39809 0.31843 0.73347 0.0
H2415 H 0.39249 0.21637 0.6883 0.0
H2416 H 0.41711 0.25128 0.69822 0.0
H2417 H 0.37463 0.27036 0.69049 0.0
H2418 H 0.34981 0.23535 0.68023 0.0
H2419 H 0.3972 0.2829 0.72192 0.0
H2420 H 0.40625 0.28544 0.66667 0.0
H2421 H 0.41057 0.2732 0.64045 0.0
H2422 H 0.46429 0.27802 0.65936 0.0
H2423 H 0.46014 0.28997 0.68579 0.0
C2424 C 0.47515 0.37253 0.74077 0.0
C2425 C 0.49295 0.37279 0.74369 0.0
C2426 C 0.45923 0.35598 0.73178 0.0
C2427 C 0.46079 0.33935 0.72563 0.0
C2428 C 0.47875 0.33993 0.72805 0.0
C2429 C 0.49465 0.35646 0.73698 0.0
C2430 C 0.44361 0.32088 0.71725 0.0
C2431 C 0.4454 0.3137 0.70215 0.0
C2432 C 0.42586 0.30984 0.72434 0.0
C2433 C 0.42339 0.31587 0.74063 0.0
C2434 C 0.43607 0.31748 0.75361 0.0
C2435 C 0.43368 0.32322 0.76893 0.0
C2436 C 0.41855 0.3272 0.77144 0.0
C2437 C 0.40573 0.32539 0.75864 0.0
C2438 C 0.40808 0.31969 0.74329 0.0
C2439 C 0.38836 0.22798 0.68862 0.0
C2440 C 0.36922 0.22313 0.68344 0.0
C2441 C 0.40247 0.24791 0.69425 0.0
C2442 C 0.39767 0.26334 0.69497 0.0
C2443 C 0.37857 0.25862 0.68993 0.0
C2444 C 0.36448 0.23867 0.68403 0.0
C2445 C 0.41268 0.28424 0.70147 0.0
C2446 C 0.4105 0.2918 0.71623 0.0
C2447 C 0.43015 0.2955 0.69415 0.0
C2448 C 0.4328 0.28847 0.67825 0.0
C2449 C 0.41891 0.28373 0.66528 0.0
C2450 C 0.42134 0.27687 0.65037 0.0
C2451 C 0.43767 0.2748 0.64825 0.0
C2452 C 0.45164 0.27962 0.66103 0.0
C2453 C 0.44926 0.28647 0.67597 0.0
H2454 H 0.43953 0.26948 0.63669 0.0
H2455 H 0.41671 0.33163 0.78331 0.0
H2456 H 0.61393 0.11239 0.73279 0.0
H2457 H 0.64743 0.12844 0.7252 0.0
H2458 H 0.65797 0.08747 0.75152 0.0
H2459 H 0.6247 0.07184 0.75968 0.0
H2460 H 0.68996 0.12551 0.75463 0.0
H2461 H 0.64543 0.07715 0.71205 0.0
H2462 H 0.6165 0.06173 0.69239 0.0
H2463 H 0.63942 0.11797 0.67087 0.0
H2464 H 0.66837 0.13382 0.69055 0.0
H2465 H 0.7682 0.12863 0.71385 0.0
H2466 H 0.73826 0.11976 0.72667 0.0
H2467 H 0.72786 0.15899 0.69788 0.0
H2468 H 0.75743 0.16739 0.68477 0.0
H2469 H 0.69619 0.12329 0.69671 0.0
H2470 H 0.74247 0.17098 0.73873 0.0
H2471 H 0.77084 0.1858 0.75892 0.0
H2472 H 0.74509 0.13019 0.78141 0.0
H2473 H 0.71659 0.11497 0.76132 0.0
C2474 C 0.62348 0.10707 0.73725 0.0
C2475 C 0.61656 0.09068 0.74671 0.0
C2476 C 0.64259 0.11615 0.7328 0.0
C2477 C 0.65508 0.10892 0.73758 0.0
C2478 C 0.64854 0.09322 0.74763 0.0
C2479 C 0.62945 0.08417 0.75214 0.0
C2480 C 0.67447 0.11679 0.73129 0.0
C2481 C 0.69137 0.12491 0.74197 0.0
C2482 C 0.67629 0.11626 0.71478 0.0
C2483 C 0.65895 0.10673 0.70287 0.0
C2484 C 0.64422 0.08627 0.7032 0.0
C2485 C 0.62784 0.07745 0.69204 0.0
C2486 C 0.6261 0.08888 0.68042 0.0
C2487 C 0.64078 0.10914 0.6799 0.0
C2488 C 0.65718 0.11805 0.69104 0.0
C2489 C 0.75953 0.1354 0.71035 0.0
C2490 C 0.76492 0.14848 0.69822 0.0
C2491 C 0.74254 0.13049 0.71777 0.0
C2492 C 0.73085 0.13882 0.71332 0.0
C2493 C 0.73661 0.15235 0.70149 0.0
C2494 C 0.75348 0.15713 0.694 0.0
C2495 C 0.71185 0.13223 0.72002 0.0
C2496 C 0.69492 0.12417 0.70938 0.0
C2497 C 0.71008 0.13275 0.73656 0.0
C2498 C 0.72743 0.14178 0.74845 0.0
C2499 C 0.74293 0.16183 0.74789 0.0
C2500 C 0.75902 0.17032 0.75934 0.0
C2501 C 0.75976 0.15892 0.77141 0.0
C2502 C 0.74447 0.139 0.77205 0.0
C2503 C 0.72833 0.13045 0.76066 0.0
H2504 H 0.77209 0.16554 0.78037 0.0
H2505 H 0.61341 0.08202 0.67179 0.0
H2506 H 0.93101 0.54355 0.71768 0.0
H2507 H 0.91634 0.56285 0.70774 0.0
H2508 H 0.87102 0.53615 0.73952 0.0
H2509 H 0.88574 0.51687 0.74966 0.0
H2510 H 0.85625 0.53719 0.70991 0.0
H2511 H 0.90801 0.58378 0.74867 0.0
H2512 H 0.94172 0.60255 0.76171 0.0
H2513 H 0.96286 0.63115 0.71917 0.0
H2514 H 0.9293 0.61231 0.70579 0.0
H2515 H 0.82503 0.61014 0.70038 0.0
H2516 H 0.83632 0.58827 0.71119 0.0
H2517 H 0.88463 0.61256 0.68197 0.0
H2518 H 0.87363 0.63457 0.67125 0.0
H2519 H 0.89677 0.6125 0.71202 0.0
H2520 H 0.84504 0.56471 0.67296 0.0
H2521 H 0.81126 0.54596 0.66004 0.0
H2522 H 0.78995 0.51989 0.70339 0.0
H2523 H 0.8236 0.5387 0.71664 0.0
C2524 C 0.918 0.54188 0.72264 0.0
C2525 C 0.90964 0.5288 0.73455 0.0
C2526 C 0.9096 0.55287 0.71692 0.0
C2527 C 0.89274 0.55112 0.72305 0.0
C2528 C 0.88404 0.53771 0.73465 0.0
C2529 C 0.89245 0.52668 0.74039 0.0
C2530 C 0.88443 0.56357 0.71746 0.0
C2531 C 0.865 0.55368 0.71057 0.0
C2532 C 0.89595 0.58506 0.71815 0.0
C2533 C 0.91615 0.59649 0.72618 0.0
C2534 C 0.91987 0.59395 0.74205 0.0
C2535 C 0.93895 0.60462 0.74951 0.0
C2536 C 0.95443 0.61799 0.74126 0.0
C2537 C 0.95085 0.62076 0.72554 0.0
C2538 C 0.9318 0.61011 0.71802 0.0
C2539 C 0.83793 0.61067 0.69612 0.0
C2540 C 0.84841 0.62409 0.68492 0.0
C2541 C 0.84436 0.59815 0.70231 0.0
C2542 C 0.86126 0.59872 0.69732 0.0
C2543 C 0.87158 0.61192 0.68601 0.0
C2544 C 0.86522 0.62446 0.67987 0.0
C2545 C 0.8687 0.58612 0.70418 0.0
C2546 C 0.88798 0.59601 0.71139 0.0
C2547 C 0.85702 0.56467 0.7038 0.0
C2548 C 0.83681 0.55327 0.69583 0.0
C2549 C 0.83313 0.5551 0.67977 0.0
C2550 C 0.81402 0.54444 0.67238 0.0
C2551 C 0.79847 0.53179 0.6809 0.0
C2552 C 0.80201 0.52972 0.69682 0.0
C2553 C 0.8211 0.54036 0.70427 0.0
H2554 H 0.78368 0.52355 0.67516 0.0
H2555 H 0.96919 0.62624 0.74706 0.0
H2556 H 0.43954 0.96028 0.1588 0.0
H2557 H 0.44551 0.96925 0.13154 0.0
H2558 H 0.48648 0.94752 0.13079 0.0
H2559 H 0.48101 0.93903 0.15808 0.0
H2560 H 0.50213 0.98625 0.12303 0.0
H2561 H 0.44248 0.92226 0.10901 0.0
H2562 H 0.40744 0.89681 0.10905 0.0
H2563 H 0.39182 0.93883 0.09095 0.0
H2564 H 0.42679 0.96474 0.09114 0.0
H2565 H 0.52577 0.99862 0.04432 0.0
H2566 H 0.51378 0.98378 0.06904 0.0
H2567 H 0.47022 0.0021 0.06584 0.0
H2568 H 0.48202 0.01664 0.04086 0.0
H2569 H 0.45468 0.96491 0.07538 0.0
H2570 H 0.51235 0.02934 0.09092 0.0
H2571 H 0.54694 0.05621 0.09091 0.0
H2572 H 0.56546 0.01535 0.1067 0.0
H2573 H 0.53096 0.98814 0.10661 0.0
C2574 C 0.4497 0.95727 0.15276 0.0
C2575 C 0.45991 0.94908 0.16063 0.0
C2576 C 0.45293 0.9622 0.13715 0.0
C2577 C 0.46638 0.95897 0.12915 0.0
C2578 C 0.476 0.95007 0.13676 0.0
C2579 C 0.47276 0.94512 0.15232 0.0
C2580 C 0.47207 0.9668 0.11355 0.0
C2581 C 0.4918 0.98133 0.11255 0.0
C2582 C 0.45838 0.96102 0.10009 0.0
C2583 C 0.43732 0.9456 0.10036 0.0
C2584 C 0.43161 0.92624 0.10532 0.0
C2585 C 0.41174 0.9117 0.10526 0.0
C2586 C 0.39742 0.91628 0.10017 0.0
C2587 C 0.40293 0.93538 0.09504 0.0
C2588 C 0.42278 0.95 0.09514 0.0
C2589 C 0.51375 0.9996 0.04898 0.0
C2590 C 0.50483 0.00881 0.04083 0.0
C2591 C 0.50686 0.99108 0.06306 0.0
C2592 C 0.49126 0.99207 0.06941 0.0
C2593 C 0.48225 0.00116 0.06116 0.0
C2594 C 0.48903 0.0095 0.04697 0.0
C2595 C 0.4848 0.98414 0.08487 0.0
C2596 C 0.46497 0.96975 0.08587 0.0
C2597 C 0.49829 0.9903 0.0985 0.0
C2598 C 0.51907 0.00665 0.09862 0.0
C2599 C 0.5238 0.02604 0.09429 0.0
C2600 C 0.54339 0.04134 0.09431 0.0
C2601 C 0.55839 0.03747 0.09877 0.0
C2602 C 0.55382 0.01831 0.10324 0.0
C2603 C 0.53425 0.00296 0.10322 0.0
H2604 H 0.57354 0.04934 0.09878 0.0
H2605 H 0.38206 0.90499 0.10009 0.0
H2606 H 0.06486 0.55924 0.17197 0.0
H2607 H 0.04539 0.54972 0.14627 0.0
H2608 H 0.05061 0.49604 0.1396 0.0
H2609 H 0.07021 0.50556 0.16528 0.0
H2610 H 0.06084 0.51924 0.11406 0.0
H2611 H 0.00764 0.49041 0.14674 0.0
H2612 H 0.98861 0.49013 0.16894 0.0
H2613 H 0.98124 0.53739 0.15029 0.0
H2614 H 0.00049 0.53816 0.12808 0.0
H2615 H 0.99154 0.47561 0.04455 0.0
H2616 H 0.00748 0.4802 0.07133 0.0
H2617 H 0.009 0.53738 0.08033 0.0
H2618 H 0.99418 0.53341 0.05331 0.0
H2619 H 0.99446 0.51033 0.1048 0.0
H2620 H 0.04801 0.54018 0.07282 0.0
H2621 H 0.06936 0.54322 0.05172 0.0
H2622 H 0.07848 0.49693 0.07002 0.0
H2623 H 0.05636 0.49278 0.09072 0.0
C2624 C 0.06172 0.54534 0.16506 0.0
C2625 C 0.06906 0.53315 0.17057 0.0
C2626 C 0.05051 0.53985 0.15046 0.0
C2627 C 0.04651 0.52213 0.1411 0.0
C2628 C 0.05351 0.50974 0.1467 0.0
C2629 C 0.06458 0.51512 0.16138 0.0
C2630 C 0.03612 0.51732 0.12504 0.0
C2631 C 0.04614 0.51682 0.112 0.0
C2632 C 0.01724 0.51488 0.12246 0.0
C2633 C 0.00567 0.51447 0.13581 0.0
C2634 C 0.00212 0.50087 0.14744 0.0
C2635 C 0.99126 0.5006 0.16002 0.0
C2636 C 0.98376 0.51377 0.16105 0.0
C2637 C 0.98708 0.52721 0.14948 0.0
C2638 C 0.99794 0.52756 0.13689 0.0
C2639 C 0.9957 0.48933 0.05215 0.0
C2640 C 0.99218 0.5044 0.04677 0.0
C2641 C 0.00458 0.49184 0.06745 0.0
C2642 C 0.00957 0.50924 0.07768 0.0
C2643 C 0.0053 0.5239 0.07255 0.0
C2644 C 0.99679 0.52157 0.05716 0.0
C2645 C 0.01916 0.51216 0.09381 0.0
C2646 C 0.00903 0.51241 0.10685 0.0
C2647 C 0.03802 0.51449 0.09637 0.0
C2648 C 0.05014 0.51586 0.08316 0.0
C2649 C 0.05407 0.5302 0.07208 0.0
C2650 C 0.06636 0.53216 0.0602 0.0
C2651 C 0.07511 0.52014 0.05945 0.0
C2652 C 0.07151 0.50605 0.07051 0.0
C2653 C 0.059 0.5038 0.08225 0.0
H2654 H 0.08478 0.52183 0.05035 0.0
H2655 H 0.97535 0.51352 0.17079 0.0
H2656 H 0.49105 0.48021 0.17875 0.0
H2657 H 0.49487 0.48002 0.15029 0.0
H2658 H 0.48007 0.52725 0.14735 0.0
H2659 H 0.47603 0.52733 0.17575 0.0
H2660 H 0.46136 0.49885 0.12362 0.0
H2661 H 0.52776 0.53742 0.14671 0.0
H2662 H 0.55671 0.54435 0.16424 0.0
H2663 H 0.55617 0.49241 0.1409 0.0
H2664 H 0.52704 0.48501 0.12336 0.0
H2665 H 0.49142 0.52486 0.04668 0.0
H2666 H 0.48598 0.52388 0.07478 0.0
H2667 H 0.50553 0.48036 0.07872 0.0
H2668 H 0.51224 0.48246 0.0508 0.0
H2669 H 0.5218 0.5071 0.10219 0.0
H2670 H 0.45334 0.46773 0.08018 0.0
H2671 H 0.42427 0.46165 0.06329 0.0
H2672 H 0.42972 0.51708 0.08459 0.0
H2673 H 0.45864 0.52326 0.10185 0.0
C2674 C 0.48874 0.49063 0.17203 0.0
C2675 C 0.48325 0.50379 0.17946 0.0
C2676 C 0.49096 0.49054 0.15579 0.0
C2677 C 0.488 0.5038 0.14672 0.0
C2678 C 0.48241 0.51687 0.15411 0.0
C2679 C 0.48005 0.51686 0.17032 0.0
C2680 C 0.49033 0.50379 0.12946 0.0
C2681 C 0.47467 0.50086 0.11894 0.0
C2682 C 0.50754 0.50609 0.12333 0.0
C2683 C 0.5251 0.51054 0.13383 0.0
C2684 C 0.53372 0.52738 0.14539 0.0
C2685 C 0.55018 0.53141 0.15532 0.0
C2686 C 0.55824 0.5188 0.15371 0.0
C2687 C 0.5499 0.50215 0.14215 0.0
C2688 C 0.53342 0.49804 0.1322 0.0
C2689 C 0.49432 0.51491 0.05352 0.0
C2690 C 0.50226 0.50374 0.04665 0.0
C2691 C 0.49106 0.51422 0.06958 0.0
C2692 C 0.49502 0.50178 0.07892 0.0
C2693 C 0.50237 0.49011 0.07183 0.0
C2694 C 0.50612 0.49122 0.05588 0.0
C2695 C 0.49269 0.50184 0.09625 0.0
C2696 C 0.50842 0.50491 0.10682 0.0
C2697 C 0.47558 0.4998 0.10246 0.0
C2698 C 0.45821 0.49603 0.09215 0.0
C2699 C 0.44836 0.47864 0.0812 0.0
C2700 C 0.4319 0.47517 0.07158 0.0
C2701 C 0.42528 0.48911 0.07274 0.0
C2702 C 0.43492 0.50636 0.08368 0.0
C2703 C 0.45126 0.50978 0.09344 0.0
H2704 H 0.41268 0.48658 0.06521 0.0
H2705 H 0.57099 0.52194 0.16141 0.0
H2706 H 0.96395 0.52022 0.8365 0.0
H2707 H 0.97046 0.52343 0.86533 0.0
H2708 H 0.94719 0.45857 0.86408 0.0
H2709 H 0.94004 0.45512 0.83527 0.0
H2710 H 0.93722 0.47345 0.89024 0.0
H2711 H 0.9954 0.48977 0.8639 0.0
H2712 H 0.02068 0.50826 0.84584 0.0
H2713 H 0.03743 0.56502 0.87278 0.0
H2714 H 0.01203 0.54688 0.89088 0.0
H2715 H 0.99033 0.46532 0.95734 0.0
H2716 H 0.97757 0.46482 0.9302 0.0
H2717 H 0.99622 0.52867 0.93873 0.0
H2718 H 0.00868 0.52912 0.96598 0.0
H2719 H 0.00754 0.51669 0.90981 0.0
H2720 H 0.95207 0.49951 0.93844 0.0
H2721 H 0.92776 0.48048 0.957 0.0
H2722 H 0.90594 0.42532 0.92626 0.0
H2723 H 0.93049 0.4439 0.90764 0.0
C2724 C 0.95978 0.50657 0.84238 0.0
C2725 C 0.95167 0.48744 0.83357 0.0
C2726 C 0.96362 0.50845 0.85885 0.0
C2727 C 0.95957 0.49127 0.8668 0.0
C2728 C 0.95049 0.47202 0.85816 0.0
C2729 C 0.94661 0.47011 0.84169 0.0
C2730 C 0.96631 0.49356 0.88382 0.0
C2731 C 0.95259 0.4828 0.89453 0.0
C2732 C 0.98633 0.50609 0.88943 0.0
C2733 C 0.00168 0.517 0.87862 0.0
C2734 C 0.00437 0.50621 0.86589 0.0
C2735 C 0.01874 0.51662 0.85567 0.0
C2736 C 0.03062 0.53781 0.85813 0.0
C2737 C 0.02819 0.54862 0.87087 0.0
C2738 C 0.01382 0.53828 0.88111 0.0
C2739 C 0.99177 0.47924 0.95336 0.0
C2740 C 0.00048 0.49729 0.96362 0.0
C2741 C 0.98439 0.47891 0.93795 0.0
C2742 C 0.98593 0.4967 0.93257 0.0
C2743 C 0.99491 0.51482 0.94273 0.0
C2744 C 0.00196 0.51505 0.95823 0.0
C2745 C 0.97851 0.49644 0.91616 0.0
C2746 C 0.99213 0.50754 0.90557 0.0
C2747 C 0.95843 0.48422 0.91072 0.0
C2748 C 0.94338 0.47305 0.92174 0.0
C2749 C 0.94228 0.48327 0.9357 0.0
C2750 C 0.92844 0.47257 0.94623 0.0
C2751 C 0.91542 0.45168 0.94285 0.0
C2752 C 0.91614 0.44147 0.92889 0.0
C2753 C 0.93002 0.45208 0.91835 0.0
H2754 H 0.90472 0.44342 0.95102 0.0
H2755 H 0.04174 0.54584 0.85021 0.0
H2756 H 0.50745 0.46816 0.83113 0.0
H2757 H 0.49825 0.47761 0.85597 0.0
H2758 H 0.55648 0.49928 0.8781 0.0
H2759 H 0.56554 0.48917 0.85359 0.0
H2760 H 0.52969 0.47445 0.89586 0.0
H2761 H 0.54042 0.53228 0.86881 0.0
H2762 H 0.53626 0.55013 0.84691 0.0
H2763 H 0.47476 0.52216 0.85247 0.0
H2764 H 0.4785 0.50391 0.87428 0.0
H2765 H 0.52215 0.51817 0.96812 0.0
H2766 H 0.53192 0.51473 0.94181 0.0
H2767 H 0.47269 0.49196 0.92148 0.0
H2768 H 0.463 0.49595 0.94794 0.0
H2769 H 0.49945 0.51765 0.90259 0.0
H2770 H 0.48815 0.45806 0.92786 0.0
H2771 H 0.49175 0.4396 0.94951 0.0
H2772 H 0.55409 0.47111 0.94722 0.0
H2773 H 0.5508 0.48966 0.92542 0.0
C2774 C 0.51832 0.475 0.84127 0.0
C2775 C 0.53722 0.47786 0.84036 0.0
C2776 C 0.51309 0.4806 0.85541 0.0
C2777 C 0.52672 0.48927 0.86887 0.0
C2778 C 0.54575 0.49265 0.86786 0.0
C2779 C 0.55095 0.48702 0.85376 0.0
C2780 C 0.52082 0.49346 0.88433 0.0
C2781 C 0.52337 0.48417 0.89735 0.0
C2782 C 0.51201 0.50562 0.88619 0.0
C2783 C 0.50971 0.51657 0.87308 0.0
C2784 C 0.52598 0.5298 0.86528 0.0
C2785 C 0.5237 0.54002 0.8529 0.0
C2786 C 0.50525 0.53724 0.84827 0.0
C2787 C 0.48904 0.52428 0.85605 0.0
C2788 C 0.49123 0.51401 0.86843 0.0
C2789 C 0.51129 0.51266 0.95803 0.0
C2790 C 0.49185 0.50724 0.96003 0.0
C2791 C 0.51684 0.5106 0.94301 0.0
C2792 C 0.50295 0.50276 0.92971 0.0
C2793 C 0.48362 0.49798 0.93159 0.0
C2794 C 0.4781 0.5002 0.94668 0.0
C2795 C 0.50853 0.49879 0.91404 0.0
C2796 C 0.50584 0.50801 0.90102 0.0
C2797 C 0.51719 0.48652 0.9121 0.0
C2798 C 0.51924 0.47531 0.9251 0.0
C2799 C 0.50263 0.46109 0.93202 0.0
C2800 C 0.50461 0.45059 0.9443 0.0
C2801 C 0.52315 0.45423 0.9498 0.0
C2802 C 0.53974 0.4683 0.94295 0.0
C2803 C 0.53781 0.47874 0.93058 0.0
H2804 H 0.52468 0.44612 0.95933 0.0
H2805 H 0.50351 0.54517 0.83869 0.0
H2806 H 0.49118 0.02469 0.82742 0.0
H2807 H 0.48655 0.01793 0.85514 0.0
H2808 H 0.5437 0.0239 0.86151 0.0
H2809 H 0.54827 0.03022 0.83358 0.0
H2810 H 0.51506 0.99042 0.87498 0.0
H2811 H 0.53938 0.06304 0.8779 0.0
H2812 H 0.54018 0.09377 0.86908 0.0
H2813 H 0.47954 0.06877 0.87697 0.0
H2814 H 0.47837 0.0378 0.88562 0.0
H2815 H 0.5151 0.99326 0.95945 0.0
H2816 H 0.52424 0.00162 0.93254 0.0
H2817 H 0.47075 0.00245 0.92165 0.0
H2818 H 0.46219 0.9953 0.94877 0.0
H2819 H 0.50102 0.0344 0.91101 0.0
H2820 H 0.47632 0.96188 0.90865 0.0
H2821 H 0.47507 0.93079 0.91703 0.0
H2822 H 0.53485 0.95404 0.90708 0.0
H2823 H 0.53652 0.9854 0.89882 0.0
C2824 C 0.50271 0.0244 0.83467 0.0
C2825 C 0.5201 0.028 0.82831 0.0
C2826 C 0.50011 0.02071 0.85055 0.0
C2827 C 0.51488 0.02063 0.86041 0.0
C2828 C 0.53217 0.02397 0.85409 0.0
C2829 C 0.53481 0.02773 0.83819 0.0
C2830 C 0.51213 0.01709 0.87733 0.0
C2831 C 0.51223 0.00016 0.88295 0.0
C2832 C 0.50814 0.0296 0.8876 0.0
C2833 C 0.50882 0.04821 0.88249 0.0
C2834 C 0.52623 0.06412 0.87773 0.0
C2835 C 0.52674 0.08156 0.87274 0.0
C2836 C 0.50993 0.08324 0.87249 0.0
C2837 C 0.49256 0.06747 0.87719 0.0
C2838 C 0.49198 0.05 0.88219 0.0
C2839 C 0.50549 0.99555 0.95135 0.0
C2840 C 0.48813 0.99397 0.95621 0.0
C2841 C 0.51059 8e-05 0.93594 0.0
C2842 C 0.49815 0.00263 0.92505 0.0
C2843 C 0.48066 0.00076 0.92989 0.0
C2844 C 0.4757 0.99649 0.94533 0.0
C2845 C 0.50327 0.0073 0.90861 0.0
C2846 C 0.50376 0.02457 0.90308 0.0
C2847 C 0.50763 0.99496 0.89841 0.0
C2848 C 0.5066 0.97607 0.90328 0.0
C2849 C 0.48924 0.96043 0.90836 0.0
C2850 C 0.48845 0.94275 0.91307 0.0
C2851 C 0.50489 0.94047 0.91263 0.0
C2852 C 0.52214 0.95584 0.90743 0.0
C2853 C 0.52301 0.97356 0.90273 0.0
H2854 H 0.50425 0.92677 0.91628 0.0
H2855 H 0.51035 0.09675 0.86863 0.0
H2856 H 0.173 0.33184 0.50945 0.0
H2857 H 0.17668 0.33885 0.48173 0.0
H2858 H 0.1175 0.28968 0.46855 0.0
H2859 H 0.11401 0.28221 0.49638 0.0
H2860 H 0.1399 0.28918 0.44728 0.0
H2861 H 0.12924 0.34035 0.47081 0.0
H2862 H 0.13358 0.36776 0.49053 0.0
H2863 H 0.1931 0.40496 0.47985 0.0
H2864 H 0.18922 0.37765 0.46022 0.0
H2865 H 0.14543 0.3388 0.37296 0.0
H2866 H 0.13516 0.32843 0.39937 0.0
H2867 H 0.19431 0.34487 0.41528 0.0
H2868 H 0.20433 0.35385 0.38871 0.0
H2869 H 0.1669 0.36037 0.43376 0.0
H2870 H 0.17556 0.30452 0.41102 0.0
H2871 H 0.16785 0.2769 0.39025 0.0
H2872 H 0.10723 0.24738 0.3991 0.0
H2873 H 0.11442 0.27545 0.41937 0.0
C2874 C 0.16075 0.32259 0.50064 0.0
C2875 C 0.14315 0.30663 0.50506 0.0
C2876 C 0.16283 0.32663 0.48481 0.0
C2877 C 0.14721 0.3151 0.47307 0.0
C2878 C 0.12972 0.29885 0.47739 0.0
C2879 C 0.12773 0.2946 0.49327 0.0
C2880 C 0.14938 0.32011 0.45634 0.0
C2881 C 0.14552 0.3047 0.44432 0.0
C2882 C 0.15656 0.34033 0.45237 0.0
C2883 C 0.15897 0.35687 0.46412 0.0
C2884 C 0.1433 0.35432 0.47274 0.0
C2885 C 0.14567 0.36985 0.48389 0.0
C2886 C 0.16361 0.38808 0.48646 0.0
C2887 C 0.17921 0.39083 0.47785 0.0
C2888 C 0.17693 0.37533 0.4667 0.0
C2889 C 0.15611 0.33982 0.38203 0.0
C2890 C 0.17552 0.34657 0.37871 0.0
C2891 C 0.15028 0.33405 0.39708 0.0
C2892 C 0.16395 0.33561 0.40909 0.0
C2893 C 0.18354 0.34334 0.40604 0.0
C2894 C 0.18924 0.34852 0.3909 0.0
C2895 C 0.15807 0.32963 0.42503 0.0
C2896 C 0.16111 0.34486 0.43681 0.0
C2897 C 0.14975 0.30921 0.42867 0.0
C2898 C 0.14547 0.29238 0.41646 0.0
C2899 C 0.16052 0.29243 0.40829 0.0
C2900 C 0.15625 0.27664 0.39663 0.0
C2901 C 0.13705 0.26045 0.39329 0.0
C2902 C 0.12209 0.25999 0.40164 0.0
C2903 C 0.12623 0.2759 0.41315 0.0
H2904 H 0.13379 0.24822 0.38428 0.0
H2905 H 0.16542 0.40008 0.4951 0.0
H2906 H 0.72491 0.87971 0.5023 0.0
H2907 H 0.70411 0.86966 0.4773 0.0
H2908 H 0.7241 0.82826 0.46298 0.0
H2909 H 0.74536 0.83868 0.4878 0.0
H2910 H 0.72648 0.85181 0.44009 0.0
H2911 H 0.67751 0.81039 0.47325 0.0
H2912 H 0.65844 0.80276 0.49654 0.0
H2913 H 0.63832 0.84354 0.48398 0.0
H2914 H 0.65751 0.85165 0.46072 0.0
H2915 H 0.65631 0.80328 0.37249 0.0
H2916 H 0.67158 0.80722 0.3994 0.0
H2917 H 0.66687 0.8605 0.41079 0.0
H2918 H 0.6527 0.85732 0.38363 0.0
H2919 H 0.6555 0.82893 0.43505 0.0
H2920 H 0.70732 0.8728 0.40371 0.0
H2921 H 0.72694 0.88068 0.38066 0.0
H2922 H 0.74199 0.83551 0.39062 0.0
H2923 H 0.72155 0.82632 0.41313 0.0
C2924 C 0.72482 0.86841 0.49384 0.0
C2925 C 0.73681 0.86003 0.49699 0.0
C2926 C 0.71278 0.86253 0.47964 0.0
C2927 C 0.71243 0.84808 0.46834 0.0
C2928 C 0.7241 0.83938 0.47157 0.0
C2929 C 0.73613 0.84524 0.4858 0.0
C2930 C 0.70091 0.84311 0.45273 0.0
C2931 C 0.71088 0.84644 0.43902 0.0
C2932 C 0.68065 0.8366 0.45133 0.0
C2933 C 0.6691 0.83177 0.46531 0.0
C2934 C 0.66916 0.81787 0.47552 0.0
C2935 C 0.6583 0.81343 0.48871 0.0
C2936 C 0.64721 0.82269 0.49176 0.0
C2937 C 0.64693 0.83639 0.48161 0.0
C2938 C 0.65778 0.8409 0.46841 0.0
C2939 C 0.65881 0.81596 0.38069 0.0
C2940 C 0.65397 0.83036 0.3759 0.0
C2941 C 0.66723 0.81802 0.39607 0.0
C2942 C 0.6704 0.83421 0.40696 0.0
C2943 C 0.66447 0.8479 0.4025 0.0
C2944 C 0.65642 0.84607 0.38702 0.0
C2945 C 0.68115 0.83764 0.42262 0.0
C2946 C 0.67105 0.8341 0.43625 0.0
C2947 C 0.70129 0.84396 0.424 0.0
C2948 C 0.71281 0.84878 0.41004 0.0
C2949 C 0.71445 0.8642 0.40077 0.0
C2950 C 0.72557 0.86877 0.38774 0.0
C2951 C 0.73538 0.85833 0.38405 0.0
C2952 C 0.73415 0.84333 0.39339 0.0
C2953 C 0.72272 0.83834 0.40622 0.0
H2954 H 0.74412 0.86202 0.37403 0.0
H2955 H 0.63881 0.81923 0.50197 0.0
H2956 H 0.12147 0.81108 0.50166 0.0
H2957 H 0.12545 0.81061 0.47324 0.0
H2958 H 0.1662 0.87538 0.47907 0.0
H2959 H 0.16186 0.87609 0.50741 0.0
H2960 H 0.14177 0.864 0.45163 0.0
H2961 H 0.18295 0.84272 0.47842 0.0
H2962 H 0.18988 0.8216 0.49563 0.0
H2963 H 0.15037 0.76794 0.46475 0.0
H2964 H 0.143 0.78873 0.44747 0.0
H2965 H 0.19776 0.87639 0.38591 0.0
H2966 H 0.18792 0.87479 0.41303 0.0
H2967 H 0.14377 0.81153 0.40161 0.0
H2968 H 0.1535 0.81312 0.37448 0.0
H2969 H 0.16762 0.82048 0.43102 0.0
H2970 H 0.12747 0.84167 0.40352 0.0
H2971 H 0.12174 0.86288 0.38555 0.0
H2972 H 0.15984 0.91645 0.41704 0.0
H2973 H 0.16597 0.89556 0.43514 0.0
C2974 C 0.131 0.82529 0.49685 0.0
C2975 C 0.14151 0.84359 0.50681 0.0
C2976 C 0.13335 0.82497 0.48063 0.0
C2977 C 0.14632 0.84292 0.47411 0.0
C2978 C 0.15617 0.86135 0.48388 0.0
C2979 C 0.15383 0.86169 0.50009 0.0
C2980 C 0.15059 0.84231 0.45734 0.0
C2981 C 0.14754 0.85459 0.44716 0.0
C2982 C 0.15778 0.82974 0.45142 0.0
C2983 C 0.16226 0.81724 0.46176 0.0
C2984 C 0.17562 0.82639 0.47537 0.0
C2985 C 0.17965 0.81449 0.48513 0.0
C2986 C 0.17053 0.79343 0.48131 0.0
C2987 C 0.1574 0.78425 0.46771 0.0
C2988 C 0.1533 0.79608 0.45793 0.0
C2989 C 0.18606 0.86215 0.38927 0.0
C2990 C 0.1763 0.8449 0.37822 0.0
C2991 C 0.1804 0.86127 0.40467 0.0
C2992 C 0.16507 0.84306 0.40922 0.0
C2993 C 0.15561 0.8257 0.39827 0.0
C2994 C 0.1611 0.82665 0.38282 0.0
C2995 C 0.15892 0.84222 0.42543 0.0
C2996 C 0.16166 0.82971 0.43548 0.0
C2997 C 0.15143 0.85452 0.4312 0.0
C2998 C 0.14728 0.86707 0.42064 0.0
C2999 C 0.13468 0.85798 0.40659 0.0
C3000 C 0.13134 0.86994 0.39639 0.0
C3001 C 0.14042 0.891 0.40015 0.0
C3002 C 0.1528 0.90013 0.41416 0.0
C3003 C 0.15618 0.88823 0.42442 0.0
H3004 H 0.13789 0.90025 0.39221 0.0
H3005 H 0.17366 0.78424 0.48888 0.0
H3006 H 0.64102 0.86353 0.16636 0.0
H3007 H 0.64593 0.86463 0.19511 0.0
H3008 H 0.6196 0.79921 0.19134 0.0
H3009 H 0.61339 0.7978 0.16267 0.0
H3010 H 0.60953 0.81108 0.21703 0.0
H3011 H 0.67014 0.83177 0.19382 0.0
H3012 H 0.69712 0.85228 0.1777 0.0
H3013 H 0.71114 0.9066 0.20708 0.0
H3014 H 0.68406 0.88642 0.22326 0.0
H3015 H 0.65922 0.79925 0.28483 0.0
H3016 H 0.64866 0.80091 0.25746 0.0
H3017 H 0.66285 0.86296 0.26944 0.0
H3018 H 0.67316 0.86126 0.29687 0.0
H3019 H 0.67821 0.85485 0.24067 0.0
H3020 H 0.61859 0.83188 0.26573 0.0
H3021 H 0.59332 0.80946 0.28244 0.0
H3022 H 0.57859 0.75756 0.24975 0.0
H3023 H 0.60401 0.7796 0.23297 0.0
C3024 C 0.63581 0.8493 0.17163 0.0
C3025 C 0.62702 0.83058 0.16211 0.0
C3026 C 0.63885 0.84999 0.18809 0.0
C3027 C 0.63355 0.83205 0.19536 0.0
C3028 C 0.62395 0.81328 0.186 0.0
C3029 C 0.62066 0.81253 0.16956 0.0
C3030 C 0.63905 0.8329 0.21252 0.0
C3031 C 0.62455 0.82061 0.22218 0.0
C3032 C 0.65864 0.84547 0.21931 0.0
C3033 C 0.67495 0.85762 0.20963 0.0
C3034 C 0.67889 0.84811 0.19677 0.0
C3035 C 0.69421 0.85967 0.18763 0.0
C3036 C 0.7058 0.88074 0.19133 0.0
C3037 C 0.70212 0.89028 0.20421 0.0
C3038 C 0.6868 0.87879 0.21337 0.0
C3039 C 0.66014 0.81324 0.28156 0.0
C3040 C 0.66693 0.83013 0.29284 0.0
C3041 C 0.65401 0.81413 0.26602 0.0
C3042 C 0.6549 0.83202 0.26155 0.0
C3043 C 0.66203 0.84903 0.27274 0.0
C3044 C 0.66785 0.84802 0.28834 0.0
C3045 C 0.64873 0.83304 0.24505 0.0
C3046 C 0.66314 0.84561 0.23554 0.0
C3047 C 0.62915 0.82057 0.2384 0.0
C3048 C 0.61337 0.80738 0.24818 0.0
C3049 C 0.61008 0.81567 0.26217 0.0
C3050 C 0.59575 0.80303 0.27166 0.0
C3051 C 0.58445 0.7821 0.26721 0.0
C3052 C 0.58738 0.77377 0.2532 0.0
C3053 C 0.60175 0.78634 0.24368 0.0
H3054 H 0.57338 0.77234 0.27459 0.0
H3055 H 0.71765 0.88967 0.18425 0.0
H3056 H 0.18185 0.79559 0.17018 0.0
H3057 H 0.17152 0.80519 0.19434 0.0
H3058 H 0.22874 0.8266 0.21847 0.0
H3059 H 0.23902 0.81662 0.19449 0.0
H3060 H 0.20043 0.80226 0.23582 0.0
H3061 H 0.21502 0.86015 0.20766 0.0
H3062 H 0.21319 0.87818 0.18497 0.0
H3063 H 0.15129 0.85222 0.18758 0.0
H3064 H 0.15269 0.83381 0.21016 0.0
H3065 H 0.17734 0.86746 0.29459 0.0
H3066 H 0.19 0.86303 0.26972 0.0
H3067 H 0.1489 0.79842 0.26615 0.0
H3068 H 0.13623 0.80277 0.29099 0.0
H3069 H 0.17155 0.84701 0.23911 0.0
H3070 H 0.17459 0.77471 0.2529 0.0
H3071 H 0.18153 0.75929 0.27533 0.0
H3072 H 0.21281 0.8178 0.30231 0.0
H3073 H 0.20649 0.83372 0.27991 0.0
C3074 C 0.19224 0.80241 0.18062 0.0
C3075 C 0.21125 0.80534 0.18042 0.0
C3076 C 0.18638 0.80804 0.19437 0.0
C3077 C 0.1994 0.81672 0.20817 0.0
C3078 C 0.21847 0.81996 0.20793 0.0
C3079 C 0.22437 0.8144 0.19418 0.0
C3080 C 0.19283 0.82141 0.22311 0.0
C3081 C 0.19408 0.81202 0.23653 0.0
C3082 C 0.18483 0.83438 0.22408 0.0
C3083 C 0.18394 0.84545 0.21051 0.0
C3084 C 0.20099 0.85816 0.20331 0.0
C3085 C 0.20003 0.86847 0.19049 0.0
C3086 C 0.18213 0.86631 0.18481 0.0
C3087 C 0.16514 0.85386 0.19198 0.0
C3088 C 0.16601 0.8435 0.2048 0.0
C3089 C 0.17096 0.85236 0.28839 0.0
C3090 C 0.15594 0.83545 0.29466 0.0
C3091 C 0.17813 0.84985 0.27421 0.0
C3092 C 0.17049 0.83036 0.26621 0.0
C3093 C 0.15508 0.81353 0.27225 0.0
C3094 C 0.14777 0.81606 0.28633 0.0
C3095 C 0.17881 0.82752 0.25168 0.0
C3096 C 0.17783 0.8372 0.23835 0.0
C3097 C 0.18727 0.81497 0.25083 0.0
C3098 C 0.18994 0.80538 0.26476 0.0
C3099 C 0.1829 0.78429 0.26364 0.0
C3100 C 0.18681 0.77549 0.27631 0.0
C3101 C 0.19774 0.78763 0.29016 0.0
C3102 C 0.20445 0.80851 0.29151 0.0
C3103 C 0.20067 0.81742 0.27886 0.0
H3104 H 0.20106 0.78089 0.29986 0.0
H3105 H 0.18142 0.87431 0.17488 0.0
H3106 H 0.15926 0.35076 0.16471 0.0
H3107 H 0.15747 0.34575 0.19286 0.0
H3108 H 0.21923 0.36614 0.19828 0.0
H3109 H 0.22105 0.37071 0.16986 0.0
H3110 H 0.19709 0.33159 0.21366 0.0
H3111 H 0.20505 0.39851 0.213 0.0
H3112 H 0.19794 0.42427 0.20321 0.0
H3113 H 0.13807 0.38842 0.21353 0.0
H3114 H 0.14479 0.36233 0.22316 0.0
H3115 H 0.19161 0.33251 0.2984 0.0
H3116 H 0.20199 0.34263 0.27201 0.0
H3117 H 0.14378 0.33018 0.25687 0.0
H3118 H 0.13373 0.32107 0.28331 0.0
H3119 H 0.17027 0.36533 0.24764 0.0
H3120 H 0.16129 0.29726 0.24684 0.0
H3121 H 0.16797 0.27112 0.25638 0.0
H3122 H 0.22852 0.30772 0.24816 0.0
H3123 H 0.22224 0.3342 0.23874 0.0
C3124 C 0.17245 0.35401 0.17183 0.0
C3125 C 0.19029 0.3611 0.16504 0.0
C3126 C 0.17144 0.35133 0.18796 0.0
C3127 C 0.18827 0.35581 0.1977 0.0
C3128 C 0.2061 0.36269 0.19098 0.0
C3129 C 0.20713 0.36543 0.17479 0.0
C3130 C 0.18697 0.35313 0.21487 0.0
C3131 C 0.19152 0.33919 0.2212 0.0
C3132 C 0.17952 0.36289 0.22463 0.0
C3133 C 0.17543 0.37853 0.21884 0.0
C3134 C 0.19036 0.39611 0.21313 0.0
C3135 C 0.1864 0.41075 0.2076 0.0
C3136 C 0.16756 0.40799 0.20776 0.0
C3137 C 0.15265 0.39056 0.21342 0.0
C3138 C 0.15653 0.37585 0.21894 0.0
C3139 C 0.18112 0.33209 0.28943 0.0
C3140 C 0.16193 0.3262 0.2929 0.0
C3141 C 0.18701 0.33772 0.27434 0.0
C3142 C 0.17364 0.33711 0.26242 0.0
C3143 C 0.1544 0.33094 0.26589 0.0
C3144 C 0.14862 0.32557 0.28097 0.0
C3145 C 0.17942 0.34299 0.24629 0.0
C3146 C 0.17589 0.35774 0.24018 0.0
C3147 C 0.18764 0.33381 0.23674 0.0
C3148 C 0.19135 0.31782 0.24229 0.0
C3149 C 0.17606 0.2998 0.24718 0.0
C3150 C 0.17977 0.28491 0.25254 0.0
C3151 C 0.19867 0.28779 0.25293 0.0
C3152 C 0.21389 0.30552 0.24788 0.0
C3153 C 0.21027 0.32047 0.24253 0.0
H3154 H 0.20151 0.27625 0.25709 0.0
H3155 H 0.16453 0.41936 0.20349 0.0
H3156 H 0.82272 0.61607 0.8352 0.0
H3157 H 0.82749 0.6233 0.80758 0.0
H3158 H 0.7908 0.65015 0.80916 0.0
H3159 H 0.78686 0.64422 0.8371 0.0
H3160 H 0.78755 0.61726 0.77936 0.0
H3161 H 0.82785 0.68373 0.81145 0.0
H3162 H 0.85207 0.70498 0.83395 0.0
H3163 H 0.89304 0.68897 0.81635 0.0
H3164 H 0.8689 0.66737 0.79388 0.0
H3165 H 0.81283 0.67263 0.71022 0.0
H3166 H 0.80266 0.66067 0.73626 0.0
H3167 H 0.8563 0.65981 0.74605 0.0
H3168 H 0.8662 0.67123 0.72001 0.0
H3169 H 0.84997 0.67882 0.77033 0.0
H3170 H 0.81459 0.61731 0.73716 0.0
H3171 H 0.79187 0.59153 0.71588 0.0
H3172 H 0.74336 0.59255 0.73547 0.0
H3173 H 0.76587 0.61903 0.75646 0.0
C3174 C 0.81573 0.62363 0.82978 0.0
C3175 C 0.8046 0.62979 0.83855 0.0
C3176 C 0.8183 0.62752 0.81392 0.0
C3177 C 0.8095 0.63725 0.80644 0.0
C3178 C 0.7976 0.64251 0.81479 0.0
C3179 C 0.7953 0.63899 0.83076 0.0
C3180 C 0.81405 0.64332 0.79029 0.0
C3181 C 0.80096 0.63092 0.77727 0.0
C3182 C 0.83196 0.66061 0.78774 0.0
C3183 C 0.84652 0.67378 0.80112 0.0
C3184 C 0.84195 0.6846 0.81247 0.0
C3185 C 0.85567 0.69673 0.8252 0.0
C3186 C 0.87406 0.69828 0.82661 0.0
C3187 C 0.87878 0.68774 0.81526 0.0
C3188 C 0.8651 0.67556 0.80253 0.0
C3189 C 0.82219 0.66948 0.71783 0.0
C3190 C 0.84014 0.67258 0.71307 0.0
C3191 C 0.81645 0.66276 0.73271 0.0
C3192 C 0.82868 0.65923 0.74304 0.0
C3193 C 0.84666 0.66246 0.73827 0.0
C3194 C 0.85231 0.66903 0.72342 0.0
C3195 C 0.82325 0.65301 0.75911 0.0
C3196 C 0.83632 0.66531 0.77221 0.0
C3197 C 0.80546 0.63533 0.76163 0.0
C3198 C 0.79202 0.62045 0.74831 0.0
C3199 C 0.79915 0.61245 0.73673 0.0
C3200 C 0.78629 0.59765 0.72472 0.0
C3201 C 0.7662 0.59044 0.72429 0.0
C3202 C 0.75895 0.59822 0.73575 0.0
C3203 C 0.77176 0.61321 0.74767 0.0
H3204 H 0.75625 0.57871 0.71516 0.0
H3205 H 0.88466 0.70768 0.83647 0.0
H3206 H 0.38401 0.22196 0.83855 0.0
H3207 H 0.36572 0.21135 0.81228 0.0
H3208 H 0.37453 0.1598 0.80755 0.0
H3209 H 0.39311 0.17051 0.83369 0.0
H3210 H 0.38504 0.18192 0.78209 0.0
H3211 H 0.32969 0.15228 0.81244 0.0
H3212 H 0.30888 0.15157 0.83334 0.0
H3213 H 0.30107 0.19732 0.81232 0.0
H3214 H 0.32207 0.19852 0.7914 0.0
H3215 H 0.32456 0.13944 0.70874 0.0
H3216 H 0.33644 0.14271 0.73672 0.0
H3217 H 0.33318 0.19735 0.74523 0.0
H3218 H 0.32202 0.19453 0.71727 0.0
H3219 H 0.31835 0.17084 0.76899 0.0
H3220 H 0.37458 0.20141 0.73926 0.0
H3221 H 0.39587 0.20268 0.7186 0.0
H3222 H 0.40312 0.15636 0.7392 0.0
H3223 H 0.38127 0.15418 0.75952 0.0
C3224 C 0.38189 0.20827 0.83196 0.0
C3225 C 0.39002 0.19709 0.83815 0.0
C3226 C 0.37132 0.20214 0.81702 0.0
C3227 C 0.3687 0.18473 0.80802 0.0
C3228 C 0.37636 0.17324 0.81434 0.0
C3229 C 0.38684 0.1793 0.82931 0.0
C3230 C 0.35927 0.17943 0.79155 0.0
C3231 C 0.3703 0.17907 0.77923 0.0
C3232 C 0.34025 0.17629 0.78786 0.0
C3233 C 0.3276 0.17561 0.80042 0.0
C3234 C 0.32368 0.16232 0.81234 0.0
C3235 C 0.31181 0.1618 0.82418 0.0
C3236 C 0.30369 0.17443 0.82418 0.0
C3237 C 0.30738 0.18756 0.81231 0.0
C3238 C 0.31925 0.18815 0.80045 0.0
C3239 C 0.32666 0.15225 0.71656 0.0
C3240 C 0.32289 0.167 0.71081 0.0
C3241 C 0.33321 0.15399 0.73253 0.0
C3242 C 0.3358 0.17036 0.74297 0.0
C3243 C 0.33125 0.18461 0.73735 0.0
C3244 C 0.32494 0.183 0.72139 0.0
C3245 C 0.34413 0.17329 0.75957 0.0
C3246 C 0.33297 0.17337 0.77189 0.0
C3247 C 0.36308 0.17627 0.76327 0.0
C3248 C 0.376 0.17739 0.75079 0.0
C3249 C 0.38044 0.19123 0.73922 0.0
C3250 C 0.39265 0.19214 0.72755 0.0
C3251 C 0.40081 0.17955 0.72752 0.0
C3252 C 0.39676 0.16605 0.73914 0.0
C3253 C 0.38438 0.16489 0.7507 0.0
H3254 H 0.41027 0.18028 0.7185 0.0
H3255 H 0.29451 0.174 0.83335 0.0
H3256 H 0.78573 0.14601 0.83493 0.0
H3257 H 0.78927 0.14346 0.80653 0.0
H3258 H 0.83183 0.2077 0.81008 0.0
H3259 H 0.82777 0.21057 0.83832 0.0
H3260 H 0.80807 0.1958 0.78263 0.0
H3261 H 0.84643 0.1728 0.8117 0.0
H3262 H 0.85163 0.15161 0.83007 0.0
H3263 H 0.81038 0.09751 0.8004 0.0
H3264 H 0.80475 0.11839 0.78195 0.0
H3265 H 0.86475 0.20302 0.71891 0.0
H3266 H 0.85343 0.20288 0.74532 0.0
H3267 H 0.8099 0.13919 0.73517 0.0
H3268 H 0.82123 0.13929 0.70875 0.0
H3269 H 0.83108 0.14862 0.76491 0.0
H3270 H 0.79397 0.17064 0.7348 0.0
H3271 H 0.78867 0.19122 0.71589 0.0
H3272 H 0.82627 0.24568 0.74663 0.0
H3273 H 0.83198 0.22545 0.76569 0.0
C3274 C 0.79554 0.15968 0.82962 0.0
C3275 C 0.80666 0.17845 0.83894 0.0
C3276 C 0.79766 0.15816 0.81341 0.0
C3277 C 0.81108 0.17532 0.80628 0.0
C3278 C 0.82148 0.19425 0.81537 0.0
C3279 C 0.81931 0.19581 0.83155 0.0
C3280 C 0.81528 0.17336 0.78963 0.0
C3281 C 0.8132 0.18557 0.77878 0.0
C3282 C 0.82157 0.15968 0.78451 0.0
C3283 C 0.82501 0.14713 0.79555 0.0
C3284 C 0.83836 0.15638 0.80916 0.0
C3285 C 0.8414 0.14443 0.81958 0.0
C3286 C 0.8313 0.12322 0.81643 0.0
C3287 C 0.81817 0.11393 0.80283 0.0
C3288 C 0.81505 0.12581 0.79239 0.0
C3289 C 0.85287 0.18899 0.7224 0.0
C3290 C 0.84378 0.17117 0.71189 0.0
C3291 C 0.84632 0.18896 0.73738 0.0
C3292 C 0.83072 0.17106 0.74208 0.0
C3293 C 0.82191 0.15314 0.7317 0.0
C3294 C 0.82833 0.15323 0.71666 0.0
C3295 C 0.82392 0.17106 0.75799 0.0
C3296 C 0.82566 0.1586 0.76872 0.0
C3297 C 0.81712 0.18432 0.76292 0.0
C3298 C 0.81355 0.19655 0.75161 0.0
C3299 C 0.80124 0.18703 0.73748 0.0
C3300 C 0.7981 0.19861 0.72675 0.0
C3301 C 0.80713 0.21973 0.73005 0.0
C3302 C 0.81927 0.22931 0.74411 0.0
C3303 C 0.82242 0.21779 0.7549 0.0
H3304 H 0.80476 0.22869 0.7217 0.0
H3305 H 0.83367 0.114 0.8245 0.0
H3306 H 0.31059 0.13703 0.49163 0.0
H3307 H 0.31471 0.1368 0.52041 0.0
H3308 H 0.30761 0.18928 0.52738 0.0
H3309 H 0.3036 0.18968 0.49852 0.0
H3310 H 0.33947 0.19259 0.5462 0.0
H3311 H 0.271 0.14487 0.53366 0.0
H3312 H 0.24212 0.11504 0.5192 0.0
H3313 H 0.2628 0.07594 0.53508 0.0
H3314 H 0.29197 0.1056 0.54945 0.0
H3315 H 0.33385 0.18766 0.62925 0.0
H3316 H 0.32641 0.18902 0.60112 0.0
H3317 H 0.3245 0.13193 0.58989 0.0
H3318 H 0.33079 0.12999 0.61813 0.0
H3319 H 0.29575 0.13203 0.57331 0.0
H3320 H 0.36496 0.17916 0.58426 0.0
H3321 H 0.39442 0.20861 0.59849 0.0
H3322 H 0.37326 0.24834 0.58532 0.0
H3323 H 0.34354 0.21906 0.57118 0.0
C3324 C 0.31 0.14858 0.49929 0.0
C3325 C 0.30679 0.16339 0.49285 0.0
C3326 C 0.31221 0.14834 0.51571 0.0
C3327 C 0.31132 0.16293 0.52599 0.0
C3328 C 0.30829 0.17786 0.51962 0.0
C3329 C 0.30589 0.17799 0.50317 0.0
C3330 C 0.31379 0.16267 0.5434 0.0
C3331 C 0.32974 0.1795 0.55221 0.0
C3332 C 0.30133 0.14538 0.5511 0.0
C3333 C 0.28377 0.1275 0.54251 0.0
C3334 C 0.26948 0.12994 0.53396 0.0
C3335 C 0.25304 0.11305 0.5258 0.0
C3336 C 0.25065 0.09361 0.52619 0.0
C3337 C 0.26468 0.09101 0.53477 0.0
C3338 C 0.28116 0.10786 0.54294 0.0
C3339 C 0.33144 0.17523 0.62079 0.0
C3340 C 0.33261 0.1586 0.62583 0.0
C3341 C 0.32749 0.17615 0.6047 0.0
C3342 C 0.32513 0.16069 0.59334 0.0
C3343 C 0.32625 0.14403 0.59842 0.0
C3344 C 0.32996 0.14299 0.61453 0.0
C3345 C 0.32162 0.16187 0.57616 0.0
C3346 C 0.30545 0.14519 0.56737 0.0
C3347 C 0.33398 0.17924 0.56845 0.0
C3348 C 0.35193 0.19689 0.57681 0.0
C3349 C 0.36653 0.19415 0.58449 0.0
C3350 C 0.38328 0.21082 0.59253 0.0
C3351 C 0.38569 0.23032 0.59285 0.0
C3352 C 0.37137 0.23321 0.58508 0.0
C3353 C 0.35457 0.2166 0.57705 0.0
H3354 H 0.39866 0.2432 0.59909 0.0
H3355 H 0.23791 0.08056 0.51986 0.0
H3356 H 0.83401 0.10579 0.50393 0.0
H3357 H 0.82404 0.11405 0.52889 0.0
H3358 H 0.87723 0.1726 0.53505 0.0
H3359 H 0.88734 0.1644 0.51017 0.0
H3360 H 0.87079 0.14988 0.56093 0.0
H3361 H 0.83508 0.17073 0.52653 0.0
H3362 H 0.81173 0.16619 0.50406 0.0
H3363 H 0.76529 0.11642 0.52467 0.0
H3364 H 0.78842 0.12047 0.54717 0.0
H3365 H 0.85037 0.19129 0.62993 0.0
H3366 H 0.85829 0.18629 0.603 0.0
H3367 H 0.80302 0.12998 0.59436 0.0
H3368 H 0.79548 0.13449 0.62136 0.0
H3369 H 0.81008 0.15167 0.56933 0.0
H3370 H 0.84472 0.1297 0.60321 0.0
H3371 H 0.86798 0.13072 0.62426 0.0
H3372 H 0.91568 0.17953 0.604 0.0
H3373 H 0.89286 0.17907 0.58306 0.0
C3374 C 0.84348 0.12049 0.51056 0.0
C3375 C 0.86149 0.13443 0.50517 0.0
C3376 C 0.8377 0.12524 0.52472 0.0
C3377 C 0.84987 0.14396 0.53375 0.0
C3378 C 0.86761 0.15811 0.52819 0.0
C3379 C 0.87332 0.15345 0.51397 0.0
C3380 C 0.84495 0.14808 0.54963 0.0
C3381 C 0.85772 0.1507 0.56279 0.0
C3382 C 0.82746 0.14823 0.55197 0.0
C3383 C 0.81353 0.14579 0.53846 0.0
C3384 C 0.81992 0.1587 0.52621 0.0
C3385 C 0.80672 0.15624 0.51348 0.0
C3386 C 0.78705 0.14099 0.51292 0.0
C3387 C 0.78053 0.12821 0.52511 0.0
C3388 C 0.79368 0.13059 0.53786 0.0
C3389 C 0.84014 0.1777 0.62235 0.0
C3390 C 0.8226 0.16304 0.62782 0.0
C3391 C 0.84457 0.17491 0.60696 0.0
C3392 C 0.83136 0.15754 0.59678 0.0
C3393 C 0.81348 0.14334 0.60206 0.0
C3394 C 0.80918 0.146 0.61747 0.0
C3395 C 0.83622 0.15395 0.5807 0.0
C3396 C 0.8233 0.15115 0.56751 0.0
C3397 C 0.85349 0.15337 0.5783 0.0
C3398 C 0.86702 0.1545 0.59162 0.0
C3399 C 0.86013 0.14087 0.60339 0.0
C3400 C 0.87326 0.14133 0.61533 0.0
C3401 C 0.89328 0.15526 0.61559 0.0
C3402 C 0.90021 0.16877 0.60391 0.0
C3403 C 0.88719 0.16847 0.59201 0.0
H3404 H 0.90341 0.15556 0.62483 0.0
H3405 H 0.77685 0.13912 0.50305 0.0
H3406 H 0.88198 0.73147 0.51083 0.0
H3407 H 0.87765 0.72486 0.53872 0.0
H3408 H 0.82168 0.67092 0.52467 0.0
H3409 H 0.82601 0.67713 0.49687 0.0
H3410 H 0.82067 0.69527 0.55003 0.0
H3411 H 0.86237 0.66793 0.53378 0.0
H3412 H 0.8925 0.67121 0.52387 0.0
H3413 H 0.92725 0.7166 0.56245 0.0
H3414 H 0.89737 0.71378 0.57246 0.0
H3415 H 0.79587 0.63795 0.61536 0.0
H3416 H 0.80435 0.64969 0.5891 0.0
H3417 H 0.86246 0.69521 0.60927 0.0
H3418 H 0.85393 0.68312 0.63531 0.0
H3419 H 0.86517 0.67999 0.58212 0.0
H3420 H 0.82648 0.70646 0.60069 0.0
H3421 H 0.79826 0.70598 0.61206 0.0
H3422 H 0.76059 0.6687 0.57092 0.0
H3423 H 0.78839 0.66812 0.55955 0.0
C3424 C 0.86882 0.71812 0.51368 0.0
C3425 C 0.85433 0.70484 0.50161 0.0
C3426 C 0.86635 0.71442 0.52961 0.0
C3427 C 0.84938 0.69737 0.53372 0.0
C3428 C 0.83483 0.68424 0.52174 0.0
C3429 C 0.83731 0.68787 0.50585 0.0
C3430 C 0.84665 0.69286 0.55046 0.0
C3431 C 0.83026 0.69174 0.55704 0.0
C3432 C 0.85975 0.68925 0.55981 0.0
C3433 C 0.87766 0.6908 0.55376 0.0
C3434 C 0.87645 0.67872 0.54007 0.0
C3435 C 0.89349 0.68048 0.53445 0.0
C3436 C 0.9118 0.69415 0.54249 0.0
C3437 C 0.91309 0.70604 0.55621 0.0
C3438 C 0.89611 0.70436 0.56186 0.0
C3439 C 0.81052 0.65029 0.6141 0.0
C3440 C 0.82445 0.65943 0.62731 0.0
C3441 C 0.81531 0.65709 0.59914 0.0
C3442 C 0.83398 0.67355 0.59723 0.0
C3443 C 0.84801 0.68243 0.6104 0.0
C3444 C 0.84324 0.67539 0.62529 0.0
C3445 C 0.83872 0.68164 0.58155 0.0
C3446 C 0.85556 0.6836 0.57521 0.0
C3447 C 0.82633 0.68661 0.57259 0.0
C3448 C 0.80955 0.68709 0.57931 0.0
C3449 C 0.81216 0.69798 0.5941 0.0
C3450 C 0.79623 0.69792 0.60056 0.0
C3451 C 0.77768 0.68742 0.5922 0.0
C3452 C 0.77498 0.67685 0.57738 0.0
C3453 C 0.79081 0.67664 0.57094 0.0
H3454 H 0.76539 0.68746 0.5972 0.0
H3455 H 0.92497 0.69549 0.53813 0.0
loop_
_geom_bond_atom_site_label_1
_geom_bond_atom_site_label_2
_geom_bond_distance
_geom_bond_site_symmetry_2
_ccdc_geom_bond_type
P0 O11 1.490 . S
P0 C14 1.812 . S
P0 C20 1.803 . S
P0 C26 1.819 . S
H1 C15 0.941 . S
H2 C16 0.939 . S
H3 C18 0.940 . S
H4 C19 0.940 . S
H5 C21 0.939 . S
H6 C22 0.942 . S
H7 C24 0.940 . S
H8 C25 0.939 . S
H9 C27 0.941 . S
H10 C31 0.939 . S
O11 P0 1.490 . S
H12 C28 0.939 . S
H13 C30 0.940 . S
C14 P0 1.812 . S
C14 C15 1.389 . S
C14 C19 1.391 . S
C15 H1 0.941 . S
C15 C14 1.389 . S
C15 C16 1.397 . S
C16 H2 0.939 . S
C16 C15 1.397 . S
C16 C17 1.378 . S
C17 C16 1.378 . S
C17 C18 1.378 . S
C18 H3 0.940 . S
C18 C17 1.378 . S
C18 C19 1.396 . S
C19 H4 0.940 . S
C19 C14 1.391 . S
C19 C18 1.396 . S
C20 P0 1.803 . S
C20 C21 1.378 . S
C20 C25 1.400 . S
C21 H5 0.939 . S
C21 C20 1.378 . S
C21 C22 1.361 . S
C22 H6 0.942 . S
C22 C21 1.361 . S
C22 C23 1.369 . S
C23 C22 1.369 . S
C23 C24 1.404 . S
C24 H7 0.940 . S
C24 C23 1.404 . S
C24 C25 1.389 . S
C25 H8 0.939 . S
C25 C20 1.400 . S
C25 C24 1.389 . S
C26 P0 1.819 . S
C26 C27 1.391 . S
C26 C31 1.391 . S
C27 H9 0.941 . S
C27 C26 1.391 . S
C27 C28 1.396 . S
C28 H12 0.939 . S
C28 C27 1.396 . S
C28 C29 1.397 . S
C29 C28 1.397 . S
C29 C30 1.385 . S
C30 H13 0.940 . S
C30 C29 1.385 . S
C30 C31 1.388 . S
C31 H10 0.939 . S
C31 C26 1.391 . S
C31 C30 1.388 . S
P32 O43 1.490 . S
P32 C46 1.812 . S
P32 C52 1.803 . S
P32 C58 1.819 . S
H33 C47 0.941 . S
H34 C48 0.939 . S
H35 C50 0.940 . S
H36 C51 0.940 . S
H37 C53 0.939 . S
H38 C54 0.942 . S
H39 C56 0.940 . S
H40 C57 0.939 . S
H41 C59 0.941 . S
H42 C63 0.939 . S
O43 P32 1.490 . S
H44 C60 0.939 . S
H45 C62 0.940 . S
C46 P32 1.812 . S
C46 C47 1.389 . S
C46 C51 1.391 . S
C47 H33 0.941 . S
C47 C46 1.389 . S
C47 C48 1.397 . S
C48 H34 0.939 . S
C48 C47 1.397 . S
C48 C49 1.378 . S
C49 C48 1.378 . S
C49 C50 1.378 . S
C50 H35 0.940 . S
C50 C49 1.378 . S
C50 C51 1.396 . S
C51 H36 0.940 . S
C51 C46 1.391 . S
C51 C50 1.396 . S
C52 P32 1.803 . S
C52 C53 1.378 . S
C52 C57 1.400 . S
C53 H37 0.939 . S
C53 C52 1.378 . S
C53 C54 1.361 . S
C54 H38 0.942 . S
C54 C53 1.361 . S
C54 C55 1.369 . S
C55 C54 1.369 . S
C55 C56 1.404 . S
C56 H39 0.940 . S
C56 C55 1.404 . S
C56 C57 1.389 . S
C57 H40 0.939 . S
C57 C52 1.400 . S
C57 C56 1.389 . S
C58 P32 1.819 . S
C58 C59 1.391 . S
C58 C63 1.391 . S
C59 H41 0.941 . S
C59 C58 1.391 . S
C59 C60 1.396 . S
C60 H44 0.939 . S
C60 C59 1.396 . S
C60 C61 1.397 . S
C61 C60 1.397 . S
C61 C62 1.385 . S
C62 H45 0.940 . S
C62 C61 1.385 . S
C62 C63 1.388 . S
C63 H42 0.939 . S
C63 C58 1.391 . S
C63 C62 1.388 . S
P64 O75 1.490 . S
P64 C78 1.812 . S
P64 C84 1.803 . S
P64 C90 1.819 . S
H65 C79 0.941 . S
H66 C80 0.939 . S
H67 C82 0.940 . S
H68 C83 0.940 . S
H69 C85 0.939 . S
H70 C86 0.942 . S
H71 C88 0.940 . S
H72 C89 0.939 . S
H73 C91 0.941 . S
H74 C95 0.939 . S
O75 P64 1.490 . S
H76 C92 0.939 . S
H77 C94 0.940 . S
C78 P64 1.812 . S
C78 C79 1.389 . S
C78 C83 1.391 . S
C79 H65 0.941 . S
C79 C78 1.389 . S
C79 C80 1.397 . S
C80 H66 0.939 . S
C80 C79 1.397 . S
C80 C81 1.378 . S
C81 C80 1.378 . S
C81 C82 1.378 . S
C82 H67 0.940 . S
C82 C81 1.378 . S
C82 C83 1.396 . S
C83 H68 0.940 . S
C83 C78 1.391 . S
C83 C82 1.396 . S
C84 P64 1.803 . S
C84 C85 1.378 . S
C84 C89 1.400 . S
C85 H69 0.939 . S
C85 C84 1.378 . S
C85 C86 1.361 . S
C86 H70 0.942 . S
C86 C85 1.361 . S
C86 C87 1.369 . S
C87 C86 1.369 . S
C87 C88 1.404 . S
C88 H71 0.940 . S
C88 C87 1.404 . S
C88 C89 1.389 . S
C89 H72 0.939 . S
C89 C84 1.400 . S
C89 C88 1.389 . S
C90 P64 1.819 . S
C90 C91 1.391 . S
C90 C95 1.391 . S
C91 H73 0.941 . S
C91 C90 1.391 . S
C91 C92 1.396 . S
C92 H76 0.939 . S
C92 C91 1.396 . S
C92 C93 1.397 . S
C93 C92 1.397 . S
C93 C94 1.385 . S
C94 H77 0.940 . S
C94 C93 1.385 . S
C94 C95 1.388 . S
C95 H74 0.939 . S
C95 C90 1.391 . S
C95 C94 1.388 . S
P96 O107 1.490 . S
P96 C110 1.812 . S
P96 C116 1.803 . S
P96 C122 1.819 . S
H97 C111 0.941 . S
H98 C112 0.939 . S
H99 C114 0.940 . S
H100 C115 0.940 . S
H101 C117 0.939 . S
H102 C118 0.942 . S
H103 C120 0.940 . S
H104 C121 0.939 . S
H105 C123 0.941 . S
H106 C127 0.939 . S
O107 P96 1.490 . S
H108 C124 0.939 . S
H109 C126 0.940 . S
C110 P96 1.812 . S
C110 C111 1.389 . S
C110 C115 1.391 . S
C111 H97 0.941 . S
C111 C110 1.389 . S
C111 C112 1.397 . S
C112 H98 0.939 . S
C112 C111 1.397 . S
C112 C113 1.378 . S
C113 C112 1.378 . S
C113 C114 1.378 . S
C114 H99 0.940 . S
C114 C113 1.378 . S
C114 C115 1.396 . S
C115 H100 0.940 . S
C115 C110 1.391 . S
C115 C114 1.396 . S
C116 P96 1.803 . S
C116 C117 1.378 . S
C116 C121 1.400 . S
C117 H101 0.939 . S
C117 C116 1.378 . S
C117 C118 1.361 . S
C118 H102 0.942 . S
C118 C117 1.361 . S
C118 C119 1.369 . S
C119 C118 1.369 . S
C119 C120 1.404 . S
C120 H103 0.940 . S
C120 C119 1.404 . S
C120 C121 1.389 . S
C121 H104 0.939 . S
C121 C116 1.400 . S
C121 C120 1.389 . S
C122 P96 1.819 . S
C122 C123 1.391 . S
C122 C127 1.391 . S
C123 H105 0.941 . S
C123 C122 1.391 . S
C123 C124 1.396 . S
C124 H108 0.939 . S
C124 C123 1.396 . S
C124 C125 1.397 . S
C125 C124 1.397 . S
C125 C126 1.385 . S
C126 H109 0.940 . S
C126 C125 1.385 . S
C126 C127 1.388 . S
C127 H106 0.939 . S
C127 C122 1.391 . S
C127 C126 1.388 . S
P128 O139 1.490 . S
P128 C142 1.812 . S
P128 C148 1.803 . S
P128 C154 1.819 . S
H129 C143 0.941 . S
H130 C144 0.939 . S
H131 C146 0.940 . S
H132 C147 0.940 . S
H133 C149 0.939 . S
H134 C150 0.942 . S
H135 C152 0.940 . S
H136 C153 0.939 . S
H137 C155 0.941 . S
H138 C159 0.939 . S
O139 P128 1.490 . S
H140 C156 0.939 . S
H141 C158 0.940 . S
C142 P128 1.812 . S
C142 C143 1.389 . S
C142 C147 1.391 . S
C143 H129 0.941 . S
C143 C142 1.389 . S
C143 C144 1.397 . S
C144 H130 0.939 . S
C144 C143 1.397 . S
C144 C145 1.378 . S
C145 C144 1.378 . S
C145 C146 1.378 . S
C146 H131 0.940 . S
C146 C145 1.378 . S
C146 C147 1.396 . S
C147 H132 0.940 . S
C147 C142 1.391 . S
C147 C146 1.396 . S
C148 P128 1.803 . S
C148 C149 1.378 . S
C148 C153 1.400 . S
C149 H133 0.939 . S
C149 C148 1.378 . S
C149 C150 1.361 . S
C150 H134 0.942 . S
C150 C149 1.361 . S
C150 C151 1.369 . S
C151 C150 1.369 . S
C151 C152 1.404 . S
C152 H135 0.940 . S
C152 C151 1.404 . S
C152 C153 1.389 . S
C153 H136 0.939 . S
C153 C148 1.400 . S
C153 C152 1.389 . S
C154 P128 1.819 . S
C154 C155 1.391 . S
C154 C159 1.391 . S
C155 H137 0.941 . S
C155 C154 1.391 . S
C155 C156 1.396 . S
C156 H140 0.939 . S
C156 C155 1.396 . S
C156 C157 1.397 . S
C157 C156 1.397 . S
C157 C158 1.385 . S
C158 H141 0.940 . S
C158 C157 1.385 . S
C158 C159 1.388 . S
C159 H138 0.939 . S
C159 C154 1.391 . S
C159 C158 1.388 . S
P160 O171 1.490 . S
P160 C174 1.812 . S
P160 C180 1.803 . S
P160 C186 1.819 . S
H161 C175 0.941 . S
H162 C176 0.939 . S
H163 C178 0.940 . S
H164 C179 0.940 . S
H165 C181 0.939 . S
H166 C182 0.942 . S
H167 C184 0.940 . S
H168 C185 0.939 . S
H169 C187 0.941 . S
H170 C191 0.939 . S
O171 P160 1.490 . S
H172 C188 0.939 . S
H173 C190 0.940 . S
C174 P160 1.812 . S
C174 C175 1.389 . S
C174 C179 1.391 . S
C175 H161 0.941 . S
C175 C174 1.389 . S
C175 C176 1.397 . S
C176 H162 0.939 . S
C176 C175 1.397 . S
C176 C177 1.378 . S
C177 C176 1.378 . S
C177 C178 1.378 . S
C178 H163 0.940 . S
C178 C177 1.378 . S
C178 C179 1.396 . S
C179 H164 0.940 . S
C179 C174 1.391 . S
C179 C178 1.396 . S
C180 P160 1.803 . S
C180 C181 1.378 . S
C180 C185 1.400 . S
C181 H165 0.939 . S
C181 C180 1.378 . S
C181 C182 1.361 . S
C182 H166 0.942 . S
C182 C181 1.361 . S
C182 C183 1.369 . S
C183 C182 1.369 . S
C183 C184 1.404 . S
C184 H167 0.940 . S
C184 C183 1.404 . S
C184 C185 1.389 . S
C185 H168 0.939 . S
C185 C180 1.400 . S
C185 C184 1.389 . S
C186 P160 1.819 . S
C186 C187 1.391 . S
C186 C191 1.391 . S
C187 H169 0.941 . S
C187 C186 1.391 . S
C187 C188 1.396 . S
C188 H172 0.939 . S
C188 C187 1.396 . S
C188 C189 1.397 . S
C189 C188 1.397 . S
C189 C190 1.385 . S
C190 H173 0.940 . S
C190 C189 1.385 . S
C190 C191 1.388 . S
C191 H170 0.939 . S
C191 C186 1.391 . S
C191 C190 1.388 . S
P192 O203 1.490 . S
P192 C206 1.812 . S
P192 C212 1.803 . S
P192 C218 1.819 . S
H193 C207 0.941 . S
H194 C208 0.939 . S
H195 C210 0.940 . S
H196 C211 0.940 . S
H197 C213 0.939 . S
H198 C214 0.942 . S
H199 C216 0.940 . S
H200 C217 0.939 . S
H201 C219 0.941 . S
H202 C223 0.939 . S
O203 P192 1.490 . S
H204 C220 0.939 . S
H205 C222 0.940 . S
C206 P192 1.812 . S
C206 C207 1.389 . S
C206 C211 1.391 . S
C207 H193 0.941 . S
C207 C206 1.389 . S
C207 C208 1.397 . S
C208 H194 0.939 . S
C208 C207 1.397 . S
C208 C209 1.378 . S
C209 C208 1.378 . S
C209 C210 1.378 . S
C210 H195 0.940 . S
C210 C209 1.378 . S
C210 C211 1.396 . S
C211 H196 0.940 . S
C211 C206 1.391 . S
C211 C210 1.396 . S
C212 P192 1.803 . S
C212 C213 1.378 . S
C212 C217 1.400 . S
C213 H197 0.939 . S
C213 C212 1.378 . S
C213 C214 1.361 . S
C214 H198 0.942 . S
C214 C213 1.361 . S
C214 C215 1.369 . S
C215 C214 1.369 . S
C215 C216 1.404 . S
C216 H199 0.940 . S
C216 C215 1.404 . S
C216 C217 1.389 . S
C217 H200 0.939 . S
C217 C212 1.400 . S
C217 C216 1.389 . S
C218 P192 1.819 . S
C218 C219 1.391 . S
C218 C223 1.391 . S
C219 H201 0.941 . S
C219 C218 1.391 . S
C219 C220 1.396 . S
C220 H204 0.939 . S
C220 C219 1.396 . S
C220 C221 1.397 . S
C221 C220 1.397 . S
C221 C222 1.385 . S
C222 H205 0.940 . S
C222 C221 1.385 . S
C222 C223 1.388 . S
C223 H202 0.939 . S
C223 C218 1.391 . S
C223 C222 1.388 . S
P224 O235 1.490 . S
P224 C238 1.812 . S
P224 C244 1.803 . S
P224 C250 1.819 . S
H225 C239 0.941 . S
H226 C240 0.939 . S
H227 C242 0.940 . S
H228 C243 0.940 . S
H229 C245 0.939 . S
H230 C246 0.942 . S
H231 C248 0.940 . S
H232 C249 0.939 . S
H233 C251 0.941 . S
H234 C255 0.939 . S
O235 P224 1.490 . S
H236 C252 0.939 . S
H237 C254 0.940 . S
C238 P224 1.812 . S
C238 C239 1.389 . S
C238 C243 1.391 . S
C239 H225 0.941 . S
C239 C238 1.389 . S
C239 C240 1.397 . S
C240 H226 0.939 . S
C240 C239 1.397 . S
C240 C241 1.378 . S
C241 C240 1.378 . S
C241 C242 1.378 . S
C242 H227 0.940 . S
C242 C241 1.378 . S
C242 C243 1.396 . S
C243 H228 0.940 . S
C243 C238 1.391 . S
C243 C242 1.396 . S
C244 P224 1.803 . S
C244 C245 1.378 . S
C244 C249 1.400 . S
C245 H229 0.939 . S
C245 C244 1.378 . S
C245 C246 1.361 . S
C246 H230 0.942 . S
C246 C245 1.361 . S
C246 C247 1.369 . S
C247 C246 1.369 . S
C247 C248 1.404 . S
C248 H231 0.940 . S
C248 C247 1.404 . S
C248 C249 1.389 . S
C249 H232 0.939 . S
C249 C244 1.400 . S
C249 C248 1.389 . S
C250 P224 1.819 . S
C250 C251 1.391 . S
C250 C255 1.391 . S
C251 H233 0.941 . S
C251 C250 1.391 . S
C251 C252 1.396 . S
C252 H236 0.939 . S
C252 C251 1.396 . S
C252 C253 1.397 . S
C253 C252 1.397 . S
C253 C254 1.385 . S
C254 H237 0.940 . S
C254 C253 1.385 . S
C254 C255 1.388 . S
C255 H234 0.939 . S
C255 C250 1.391 . S
C255 C254 1.388 . S
P256 O267 1.490 . S
P256 C270 1.812 . S
P256 C276 1.803 . S
P256 C282 1.819 . S
H257 C271 0.941 . S
H258 C272 0.939 . S
H259 C274 0.940 . S
H260 C275 0.940 . S
H261 C277 0.939 . S
H262 C278 0.942 . S
H263 C280 0.940 . S
H264 C281 0.939 . S
H265 C283 0.941 . S
H266 C287 0.939 . S
O267 P256 1.490 . S
H268 C284 0.939 . S
H269 C286 0.940 . S
C270 P256 1.812 . S
C270 C271 1.389 . S
C270 C275 1.391 . S
C271 H257 0.941 . S
C271 C270 1.389 . S
C271 C272 1.397 . S
C272 H258 0.939 . S
C272 C271 1.397 . S
C272 C273 1.378 . S
C273 C272 1.378 . S
C273 C274 1.378 . S
C274 H259 0.940 . S
C274 C273 1.378 . S
C274 C275 1.396 . S
C275 H260 0.940 . S
C275 C270 1.391 . S
C275 C274 1.396 . S
C276 P256 1.803 . S
C276 C277 1.378 . S
C276 C281 1.400 . S
C277 H261 0.939 . S
C277 C276 1.378 . S
C277 C278 1.361 . S
C278 H262 0.942 . S
C278 C277 1.361 . S
C278 C279 1.369 . S
C279 C278 1.369 . S
C279 C280 1.404 . S
C280 H263 0.940 . S
C280 C279 1.404 . S
C280 C281 1.389 . S
C281 H264 0.939 . S
C281 C276 1.400 . S
C281 C280 1.389 . S
C282 P256 1.819 . S
C282 C283 1.391 . S
C282 C287 1.391 . S
C283 H265 0.941 . S
C283 C282 1.391 . S
C283 C284 1.396 . S
C284 H268 0.939 . S
C284 C283 1.396 . S
C284 C285 1.397 . S
C285 C284 1.397 . S
C285 C286 1.385 . S
C286 H269 0.940 . S
C286 C285 1.385 . S
C286 C287 1.388 . S
C287 H266 0.939 . S
C287 C282 1.391 . S
C287 C286 1.388 . S
P288 O299 1.490 . S
P288 C302 1.812 . S
P288 C308 1.803 . S
P288 C314 1.819 . S
H289 C303 0.941 . S
H290 C304 0.939 . S
H291 C306 0.940 . S
H292 C307 0.940 . S
H293 C309 0.939 . S
H294 C310 0.942 . S
H295 C312 0.940 . S
H296 C313 0.939 . S
H297 C315 0.941 . S
H298 C319 0.939 . S
O299 P288 1.490 . S
H300 C316 0.939 . S
H301 C318 0.940 . S
C302 P288 1.812 . S
C302 C303 1.389 . S
C302 C307 1.391 . S
C303 H289 0.941 . S
C303 C302 1.389 . S
C303 C304 1.397 . S
C304 H290 0.939 . S
C304 C303 1.397 . S
C304 C305 1.378 . S
C305 C304 1.378 . S
C305 C306 1.378 . S
C306 H291 0.940 . S
C306 C305 1.378 . S
C306 C307 1.396 . S
C307 H292 0.940 . S
C307 C302 1.391 . S
C307 C306 1.396 . S
C308 P288 1.803 . S
C308 C309 1.378 . S
C308 C313 1.400 . S
C309 H293 0.939 . S
C309 C308 1.378 . S
C309 C310 1.361 . S
C310 H294 0.942 . S
C310 C309 1.361 . S
C310 C311 1.369 . S
C311 C310 1.369 . S
C311 C312 1.404 . S
C312 H295 0.940 . S
C312 C311 1.404 . S
C312 C313 1.389 . S
C313 H296 0.939 . S
C313 C308 1.400 . S
C313 C312 1.389 . S
C314 P288 1.819 . S
C314 C315 1.391 . S
C314 C319 1.391 . S
C315 H297 0.941 . S
C315 C314 1.391 . S
C315 C316 1.396 . S
C316 H300 0.939 . S
C316 C315 1.396 . S
C316 C317 1.397 . S
C317 C316 1.397 . S
C317 C318 1.385 . S
C318 H301 0.940 . S
C318 C317 1.385 . S
C318 C319 1.388 . S
C319 H298 0.939 . S
C319 C314 1.391 . S
C319 C318 1.388 . S
P320 O331 1.490 . S
P320 C334 1.812 . S
P320 C340 1.803 . S
P320 C346 1.819 . S
H321 C335 0.941 . S
H322 C336 0.939 . S
H323 C338 0.940 . S
H324 C339 0.940 . S
H325 C341 0.939 . S
H326 C342 0.942 . S
H327 C344 0.940 . S
H328 C345 0.939 . S
H329 C347 0.941 . S
H330 C351 0.939 . S
O331 P320 1.490 . S
H332 C348 0.939 . S
H333 C350 0.940 . S
C334 P320 1.812 . S
C334 C335 1.389 . S
C334 C339 1.391 . S
C335 H321 0.941 . S
C335 C334 1.389 . S
C335 C336 1.397 . S
C336 H322 0.939 . S
C336 C335 1.397 . S
C336 C337 1.378 . S
C337 C336 1.378 . S
C337 C338 1.378 . S
C338 H323 0.940 . S
C338 C337 1.378 . S
C338 C339 1.396 . S
C339 H324 0.940 . S
C339 C334 1.391 . S
C339 C338 1.396 . S
C340 P320 1.803 . S
C340 C341 1.378 . S
C340 C345 1.400 . S
C341 H325 0.939 . S
C341 C340 1.378 . S
C341 C342 1.361 . S
C342 H326 0.942 . S
C342 C341 1.361 . S
C342 C343 1.369 . S
C343 C342 1.369 . S
C343 C344 1.404 . S
C344 H327 0.940 . S
C344 C343 1.404 . S
C344 C345 1.389 . S
C345 H328 0.939 . S
C345 C340 1.400 . S
C345 C344 1.389 . S
C346 P320 1.819 . S
C346 C347 1.391 . S
C346 C351 1.391 . S
C347 H329 0.941 . S
C347 C346 1.391 . S
C347 C348 1.396 . S
C348 H332 0.939 . S
C348 C347 1.396 . S
C348 C349 1.397 . S
C349 C348 1.397 . S
C349 C350 1.385 . S
C350 H333 0.940 . S
C350 C349 1.385 . S
C350 C351 1.388 . S
C351 H330 0.939 . S
C351 C346 1.391 . S
C351 C350 1.388 . S
P352 O363 1.490 . S
P352 C366 1.812 . S
P352 C372 1.803 . S
P352 C378 1.819 . S
H353 C367 0.941 . S
H354 C368 0.939 . S
H355 C370 0.940 . S
H356 C371 0.940 . S
H357 C373 0.939 . S
H358 C374 0.942 . S
H359 C376 0.940 . S
H360 C377 0.939 . S
H361 C379 0.941 . S
H362 C383 0.939 . S
O363 P352 1.490 . S
H364 C380 0.939 . S
H365 C382 0.940 . S
C366 P352 1.812 . S
C366 C367 1.389 . S
C366 C371 1.391 . S
C367 H353 0.941 . S
C367 C366 1.389 . S
C367 C368 1.397 . S
C368 H354 0.939 . S
C368 C367 1.397 . S
C368 C369 1.378 . S
C369 C368 1.378 . S
C369 C370 1.378 . S
C370 H355 0.940 . S
C370 C369 1.378 . S
C370 C371 1.396 . S
C371 H356 0.940 . S
C371 C366 1.391 . S
C371 C370 1.396 . S
C372 P352 1.803 . S
C372 C373 1.378 . S
C372 C377 1.400 . S
C373 H357 0.939 . S
C373 C372 1.378 . S
C373 C374 1.361 . S
C374 H358 0.942 . S
C374 C373 1.361 . S
C374 C375 1.369 . S
C375 C374 1.369 . S
C375 C376 1.404 . S
C376 H359 0.940 . S
C376 C375 1.404 . S
C376 C377 1.389 . S
C377 H360 0.939 . S
C377 C372 1.400 . S
C377 C376 1.389 . S
C378 P352 1.819 . S
C378 C379 1.391 . S
C378 C383 1.391 . S
C379 H361 0.941 . S
C379 C378 1.391 . S
C379 C380 1.396 . S
C380 H364 0.939 . S
C380 C379 1.396 . S
C380 C381 1.397 . S
C381 C380 1.397 . S
C381 C382 1.385 . S
C382 H365 0.940 . S
C382 C381 1.385 . S
C382 C383 1.388 . S
C383 H362 0.939 . S
C383 C378 1.391 . S
C383 C382 1.388 . S
P384 O395 1.490 . S
P384 C398 1.812 . S
P384 C404 1.803 . S
P384 C410 1.819 . S
H385 C399 0.941 . S
H386 C400 0.939 . S
H387 C402 0.940 . S
H388 C403 0.940 . S
H389 C405 0.939 . S
H390 C406 0.942 . S
H391 C408 0.940 . S
H392 C409 0.939 . S
H393 C411 0.941 . S
H394 C415 0.939 . S
O395 P384 1.490 . S
H396 C412 0.939 . S
H397 C414 0.940 . S
C398 P384 1.812 . S
C398 C399 1.389 . S
C398 C403 1.391 . S
C399 H385 0.941 . S
C399 C398 1.389 . S
C399 C400 1.397 . S
C400 H386 0.939 . S
C400 C399 1.397 . S
C400 C401 1.378 . S
C401 C400 1.378 . S
C401 C402 1.378 . S
C402 H387 0.940 . S
C402 C401 1.378 . S
C402 C403 1.396 . S
C403 H388 0.940 . S
C403 C398 1.391 . S
C403 C402 1.396 . S
C404 P384 1.803 . S
C404 C405 1.378 . S
C404 C409 1.400 . S
C405 H389 0.939 . S
C405 C404 1.378 . S
C405 C406 1.361 . S
C406 H390 0.942 . S
C406 C405 1.361 . S
C406 C407 1.369 . S
C407 C406 1.369 . S
C407 C408 1.404 . S
C408 H391 0.940 . S
C408 C407 1.404 . S
C408 C409 1.389 . S
C409 H392 0.939 . S
C409 C404 1.400 . S
C409 C408 1.389 . S
C410 P384 1.819 . S
C410 C411 1.391 . S
C410 C415 1.391 . S
C411 H393 0.941 . S
C411 C410 1.391 . S
C411 C412 1.396 . S
C412 H396 0.939 . S
C412 C411 1.396 . S
C412 C413 1.397 . S
C413 C412 1.397 . S
C413 C414 1.385 . S
C414 H397 0.940 . S
C414 C413 1.385 . S
C414 C415 1.388 . S
C415 H394 0.939 . S
C415 C410 1.391 . S
C415 C414 1.388 . S
P416 O427 1.490 . S
P416 C430 1.812 . S
P416 C436 1.803 . S
P416 C442 1.819 . S
H417 C431 0.941 . S
H418 C432 0.939 . S
H419 C434 0.940 . S
H420 C435 0.940 . S
H421 C437 0.939 . S
H422 C438 0.942 . S
H423 C440 0.940 . S
H424 C441 0.939 . S
H425 C443 0.941 . S
H426 C447 0.939 . S
O427 P416 1.490 . S
H428 C444 0.939 . S
H429 C446 0.940 . S
C430 P416 1.812 . S
C430 C431 1.389 . S
C430 C435 1.391 . S
C431 H417 0.941 . S
C431 C430 1.389 . S
C431 C432 1.397 . S
C432 H418 0.939 . S
C432 C431 1.397 . S
C432 C433 1.378 . S
C433 C432 1.378 . S
C433 C434 1.378 . S
C434 H419 0.940 . S
C434 C433 1.378 . S
C434 C435 1.396 . S
C435 H420 0.940 . S
C435 C430 1.391 . S
C435 C434 1.396 . S
C436 P416 1.803 . S
C436 C437 1.378 . S
C436 C441 1.400 . S
C437 H421 0.939 . S
C437 C436 1.378 . S
C437 C438 1.361 . S
C438 H422 0.942 . S
C438 C437 1.361 . S
C438 C439 1.369 . S
C439 C438 1.369 . S
C439 C440 1.404 . S
C440 H423 0.940 . S
C440 C439 1.404 . S
C440 C441 1.389 . S
C441 H424 0.939 . S
C441 C436 1.400 . S
C441 C440 1.389 . S
C442 P416 1.819 . S
C442 C443 1.391 . S
C442 C447 1.391 . S
C443 H425 0.941 . S
C443 C442 1.391 . S
C443 C444 1.396 . S
C444 H428 0.939 . S
C444 C443 1.396 . S
C444 C445 1.397 . S
C445 C444 1.397 . S
C445 C446 1.385 . S
C446 H429 0.940 . S
C446 C445 1.385 . S
C446 C447 1.388 . S
C447 H426 0.939 . S
C447 C442 1.391 . S
C447 C446 1.388 . S
P448 O459 1.490 . S
P448 C462 1.812 . S
P448 C468 1.803 . S
P448 C474 1.819 . S
H449 C463 0.941 . S
H450 C464 0.939 . S
H451 C466 0.940 . S
H452 C467 0.940 . S
H453 C469 0.939 . S
H454 C470 0.942 . S
H455 C472 0.940 . S
H456 C473 0.939 . S
H457 C475 0.941 . S
H458 C479 0.939 . S
O459 P448 1.490 . S
H460 C476 0.939 . S
H461 C478 0.940 . S
C462 P448 1.812 . S
C462 C463 1.389 . S
C462 C467 1.391 . S
C463 H449 0.941 . S
C463 C462 1.389 . S
C463 C464 1.397 . S
C464 H450 0.939 . S
C464 C463 1.397 . S
C464 C465 1.378 . S
C465 C464 1.378 . S
C465 C466 1.378 . S
C466 H451 0.940 . S
C466 C465 1.378 . S
C466 C467 1.396 . S
C467 H452 0.940 . S
C467 C462 1.391 . S
C467 C466 1.396 . S
C468 P448 1.803 . S
C468 C469 1.378 . S
C468 C473 1.400 . S
C469 H453 0.939 . S
C469 C468 1.378 . S
C469 C470 1.361 . S
C470 H454 0.942 . S
C470 C469 1.361 . S
C470 C471 1.369 . S
C471 C470 1.369 . S
C471 C472 1.404 . S
C472 H455 0.940 . S
C472 C471 1.404 . S
C472 C473 1.389 . S
C473 H456 0.939 . S
C473 C468 1.400 . S
C473 C472 1.389 . S
C474 P448 1.819 . S
C474 C475 1.391 . S
C474 C479 1.391 . S
C475 H457 0.941 . S
C475 C474 1.391 . S
C475 C476 1.396 . S
C476 H460 0.939 . S
C476 C475 1.396 . S
C476 C477 1.397 . S
C477 C476 1.397 . S
C477 C478 1.385 . S
C478 H461 0.940 . S
C478 C477 1.385 . S
C478 C479 1.388 . S
C479 H458 0.939 . S
C479 C474 1.391 . S
C479 C478 1.388 . S
P480 O491 1.490 . S
P480 C494 1.812 . S
P480 C500 1.803 . S
P480 C506 1.819 . S
H481 C495 0.941 . S
H482 C496 0.939 . S
H483 C498 0.940 . S
H484 C499 0.940 . S
H485 C501 0.939 . S
H486 C502 0.942 . S
H487 C504 0.940 . S
H488 C505 0.939 . S
H489 C507 0.941 . S
H490 C511 0.939 . S
O491 P480 1.490 . S
H492 C508 0.939 . S
H493 C510 0.940 . S
C494 P480 1.812 . S
C494 C495 1.389 . S
C494 C499 1.391 . S
C495 H481 0.941 . S
C495 C494 1.389 . S
C495 C496 1.397 . S
C496 H482 0.939 . S
C496 C495 1.397 . S
C496 C497 1.378 . S
C497 C496 1.378 . S
C497 C498 1.378 . S
C498 H483 0.940 . S
C498 C497 1.378 . S
C498 C499 1.396 . S
C499 H484 0.940 . S
C499 C494 1.391 . S
C499 C498 1.396 . S
C500 P480 1.803 . S
C500 C501 1.378 . S
C500 C505 1.400 . S
C501 H485 0.939 . S
C501 C500 1.378 . S
C501 C502 1.361 . S
C502 H486 0.942 . S
C502 C501 1.361 . S
C502 C503 1.369 . S
C503 C502 1.369 . S
C503 C504 1.404 . S
C504 H487 0.940 . S
C504 C503 1.404 . S
C504 C505 1.389 . S
C505 H488 0.939 . S
C505 C500 1.400 . S
C505 C504 1.389 . S
C506 P480 1.819 . S
C506 C507 1.391 . S
C506 C511 1.391 . S
C507 H489 0.941 . S
C507 C506 1.391 . S
C507 C508 1.396 . S
C508 H492 0.939 . S
C508 C507 1.396 . S
C508 C509 1.397 . S
C509 C508 1.397 . S
C509 C510 1.385 . S
C510 H493 0.940 . S
C510 C509 1.385 . S
C510 C511 1.388 . S
C511 H490 0.939 . S
C511 C506 1.391 . S
C511 C510 1.388 . S
P512 O523 1.490 . S
P512 C526 1.812 . S
P512 C532 1.803 . S
P512 C538 1.819 . S
H513 C527 0.941 . S
H514 C528 0.939 . S
H515 C530 0.940 . S
H516 C531 0.940 . S
H517 C533 0.939 . S
H518 C534 0.942 . S
H519 C536 0.940 . S
H520 C537 0.939 . S
H521 C539 0.941 . S
H522 C543 0.939 . S
O523 P512 1.490 . S
H524 C540 0.939 . S
H525 C542 0.940 . S
C526 P512 1.812 . S
C526 C527 1.389 . S
C526 C531 1.391 . S
C527 H513 0.941 . S
C527 C526 1.389 . S
C527 C528 1.397 . S
C528 H514 0.939 . S
C528 C527 1.397 . S
C528 C529 1.378 . S
C529 C528 1.378 . S
C529 C530 1.378 . S
C530 H515 0.940 . S
C530 C529 1.378 . S
C530 C531 1.396 . S
C531 H516 0.940 . S
C531 C526 1.391 . S
C531 C530 1.396 . S
C532 P512 1.803 . S
C532 C533 1.378 . S
C532 C537 1.400 . S
C533 H517 0.939 . S
C533 C532 1.378 . S
C533 C534 1.361 . S
C534 H518 0.942 . S
C534 C533 1.361 . S
C534 C535 1.369 . S
C535 C534 1.369 . S
C535 C536 1.404 . S
C536 H519 0.940 . S
C536 C535 1.404 . S
C536 C537 1.389 . S
C537 H520 0.939 . S
C537 C532 1.400 . S
C537 C536 1.389 . S
C538 P512 1.819 . S
C538 C539 1.391 . S
C538 C543 1.391 . S
C539 H521 0.941 . S
C539 C538 1.391 . S
C539 C540 1.396 . S
C540 H524 0.939 . S
C540 C539 1.396 . S
C540 C541 1.397 . S
C541 C540 1.397 . S
C541 C542 1.385 . S
C542 H525 0.940 . S
C542 C541 1.385 . S
C542 C543 1.388 . S
C543 H522 0.939 . S
C543 C538 1.391 . S
C543 C542 1.388 . S
P544 O555 1.490 . S
P544 C558 1.812 . S
P544 C564 1.803 . S
P544 C570 1.819 . S
H545 C559 0.941 . S
H546 C560 0.939 . S
H547 C562 0.940 . S
H548 C563 0.940 . S
H549 C565 0.939 . S
H550 C566 0.942 . S
H551 C568 0.940 . S
H552 C569 0.939 . S
H553 C571 0.941 . S
H554 C575 0.939 . S
O555 P544 1.490 . S
H556 C572 0.939 . S
H557 C574 0.940 . S
C558 P544 1.812 . S
C558 C559 1.389 . S
C558 C563 1.391 . S
C559 H545 0.941 . S
C559 C558 1.389 . S
C559 C560 1.397 . S
C560 H546 0.939 . S
C560 C559 1.397 . S
C560 C561 1.378 . S
C561 C560 1.378 . S
C561 C562 1.378 . S
C562 H547 0.940 . S
C562 C561 1.378 . S
C562 C563 1.396 . S
C563 H548 0.940 . S
C563 C558 1.391 . S
C563 C562 1.396 . S
C564 P544 1.803 . S
C564 C565 1.378 . S
C564 C569 1.400 . S
C565 H549 0.939 . S
C565 C564 1.378 . S
C565 C566 1.361 . S
C566 H550 0.942 . S
C566 C565 1.361 . S
C566 C567 1.369 . S
C567 C566 1.369 . S
C567 C568 1.404 . S
C568 H551 0.940 . S
C568 C567 1.404 . S
C568 C569 1.389 . S
C569 H552 0.939 . S
C569 C564 1.400 . S
C569 C568 1.389 . S
C570 P544 1.819 . S
C570 C571 1.391 . S
C570 C575 1.391 . S
C571 H553 0.941 . S
C571 C570 1.391 . S
C571 C572 1.396 . S
C572 H556 0.939 . S
C572 C571 1.396 . S
C572 C573 1.397 . S
C573 C572 1.397 . S
C573 C574 1.385 . S
C574 H557 0.940 . S
C574 C573 1.385 . S
C574 C575 1.388 . S
C575 H554 0.939 . S
C575 C570 1.391 . S
C575 C574 1.388 . S
Tb576 O579 2.453 . S
Tb576 O580 2.596 1_545 S
Tb576 O581 2.374 1_545 S
Tb576 O589 2.343 1_554 S
Tb576 O591 2.353 . S
Tb576 O593 2.427 1_554 S
Tb576 O594 2.513 1_554 S
C577 O581 1.251 . S
C577 O583 1.260 . S
Tb578 O580 2.343 1_556 S
Tb578 O583 2.354 1_556 S
Tb578 O586 2.427 1_556 S
Tb578 O587 2.513 1_556 S
Tb578 O588 2.453 . S
Tb578 O589 2.596 1_565 S
Tb578 O590 2.374 1_565 S
O579 Tb576 2.453 . S
O579 C595 1.245 . S
O580 Tb576 2.596 1_565 S
O580 Tb578 2.343 1_554 S
O580 C595 1.259 1_565 S
O581 Tb576 2.374 1_565 S
O581 C577 1.251 . S
C582 O586 1.275 . S
C582 O587 1.246 . S
O583 C577 1.260 . S
O583 Tb578 2.354 1_554 S
C584 O588 1.213 1_545 S
C584 O589 1.267 . S
C585 O590 1.250 . S
C585 O591 1.263 1_556 S
O586 Tb578 2.427 1_554 S
O586 C582 1.275 . S
O587 Tb578 2.513 1_554 S
O587 C582 1.246 . S
O588 Tb578 2.453 . S
O588 C584 1.213 1_565 S
O589 Tb576 2.343 1_556 S
O589 Tb578 2.596 1_545 S
O589 C584 1.267 . S
O590 Tb578 2.374 1_545 S
O590 C585 1.250 . S
O591 Tb576 2.353 . S
O591 C585 1.263 1_554 S
C592 O593 1.275 . S
C592 O594 1.246 . S
O593 Tb576 2.427 1_556 S
O593 C592 1.275 . S
O594 Tb576 2.513 1_556 S
O594 C592 1.246 . S
C595 O579 1.245 . S
C595 O580 1.259 1_545 S
Tb596 O599 2.453 . S
Tb596 O600 2.596 1_655 S
Tb596 O601 2.374 1_655 S
Tb596 O609 2.343 1_554 S
Tb596 O611 2.353 . S
Tb596 O613 2.427 1_554 S
Tb596 O614 2.513 1_554 S
C597 O601 1.251 . S
C597 O603 1.263 . S
Tb598 O600 2.343 1_556 S
Tb598 O603 2.353 1_556 S
Tb598 O606 2.427 1_556 S
Tb598 O607 2.513 1_556 S
Tb598 O608 2.453 . S
Tb598 O609 2.596 1_455 S
Tb598 O610 2.374 1_455 S
O599 Tb596 2.453 . S
O599 C615 1.245 1_655 S
O600 Tb596 2.596 1_455 S
O600 Tb598 2.343 1_554 S
O600 C615 1.259 . S
O601 Tb596 2.374 1_455 S
O601 C597 1.251 . S
C602 O606 1.275 . S
C602 O607 1.246 . S
O603 C597 1.263 . S
O603 Tb598 2.353 1_554 S
C604 O608 1.274 . S
C604 O609 1.249 1_455 S
C605 O610 1.250 . S
C605 O611 1.263 1_556 S
O606 Tb598 2.427 1_554 S
O606 C602 1.275 . S
O607 Tb598 2.513 1_554 S
O607 C602 1.246 . S
O608 Tb598 2.453 . S
O608 C604 1.274 . S
O609 Tb596 2.343 1_556 S
O609 Tb598 2.596 1_655 S
O609 C604 1.249 1_655 S
O610 Tb598 2.374 1_655 S
O610 C605 1.250 . S
O611 Tb596 2.353 . S
O611 C605 1.263 1_554 S
C612 O613 1.275 . S
C612 O614 1.246 . S
O613 Tb596 2.427 1_556 S
O613 C612 1.275 . S
O614 Tb596 2.513 1_556 S
O614 C612 1.246 . S
C615 O599 1.245 1_455 S
C615 O600 1.259 . S
Tb616 O619 2.453 . S
Tb616 O620 2.596 . S
Tb616 O621 2.374 . S
Tb616 O629 2.343 1_556 S
Tb616 O631 2.353 1_556 S
Tb616 O633 2.427 1_556 S
Tb616 O634 2.513 1_556 S
C617 O621 1.251 . S
C617 O623 1.263 1_556 S
Tb618 O620 2.343 1_554 S
Tb618 O623 2.353 . S
Tb618 O626 2.427 1_554 S
Tb618 O627 2.513 1_554 S
Tb618 O628 2.453 . S
Tb618 O629 2.596 . S
Tb618 O630 2.374 . S
O619 Tb616 2.453 . S
O619 C635 1.245 . S
O620 Tb616 2.596 . S
O620 Tb618 2.343 1_556 S
O620 C635 1.259 . S
O621 Tb616 2.374 . S
O621 C617 1.251 . S
C622 O626 1.275 . S
C622 O627 1.246 . S
O623 C617 1.263 1_554 S
O623 Tb618 2.353 . S
C624 O628 1.245 . S
C624 O629 1.259 . S
C625 O630 1.250 . S
C625 O631 1.263 . S
O626 Tb618 2.427 1_556 S
O626 C622 1.275 . S
O627 Tb618 2.513 1_556 S
O627 C622 1.246 . S
O628 Tb618 2.453 . S
O628 C624 1.245 . S
O629 Tb616 2.343 1_554 S
O629 Tb618 2.596 . S
O629 C624 1.259 . S
O630 Tb618 2.374 . S
O630 C625 1.250 . S
O631 Tb616 2.353 1_554 S
O631 C625 1.263 . S
C632 O633 1.275 . S
C632 O634 1.246 . S
O633 Tb616 2.427 1_554 S
O633 C632 1.275 . S
O634 Tb616 2.513 1_554 S
O634 C632 1.246 . S
C635 O619 1.245 . S
C635 O620 1.259 . S
Tb636 O639 2.453 . S
Tb636 O640 2.596 . S
Tb636 O641 2.374 . S
Tb636 O649 2.343 . S
Tb636 O651 2.353 . S
Tb636 O653 2.427 . S
Tb636 O654 2.513 . S
C637 O641 1.251 . S
C637 O643 1.263 . S
Tb638 O640 2.343 . S
Tb638 O643 2.353 . S
Tb638 O646 2.427 . S
Tb638 O647 2.513 . S
Tb638 O648 2.453 . S
Tb638 O649 2.596 . S
Tb638 O650 2.374 . S
O639 Tb636 2.453 . S
O639 C655 1.245 . S
O640 Tb636 2.596 . S
O640 Tb638 2.343 . S
O640 C655 1.259 . S
O641 Tb636 2.374 . S
O641 C637 1.251 . S
C642 O646 1.275 . S
C642 O647 1.246 . S
O643 C637 1.263 . S
O643 Tb638 2.353 . S
C644 O648 1.245 . S
C644 O649 1.259 . S
C645 O650 1.250 . S
C645 O651 1.263 . S
O646 Tb638 2.427 . S
O646 C642 1.275 . S
O647 Tb638 2.513 . S
O647 C642 1.246 . S
O648 Tb638 2.453 . S
O648 C644 1.245 . S
O649 Tb636 2.343 . S
O649 Tb638 2.596 . S
O649 C644 1.259 . S
O650 Tb638 2.374 . S
O650 C645 1.250 . S
O651 Tb636 2.353 . S
O651 C645 1.263 . S
C652 O653 1.275 . S
C652 O654 1.246 . S
O653 Tb636 2.427 . S
O653 C652 1.275 . S
O654 Tb636 2.513 . S
O654 C652 1.246 . S
C655 O639 1.245 . S
C655 O640 1.259 . S
Tb656 O659 2.453 . S
Tb656 O660 2.596 . S
Tb656 O661 2.374 . S
Tb656 O669 2.343 . S
Tb656 O671 2.353 . S
Tb656 O673 2.427 . S
Tb656 O674 2.513 . S
C657 O661 1.251 . S
C657 O663 1.263 . S
Tb658 O660 2.343 . S
Tb658 O663 2.353 . S
Tb658 O666 2.427 . S
Tb658 O667 2.513 . S
Tb658 O668 2.453 . S
Tb658 O669 2.596 . S
Tb658 O670 2.374 . S
O659 Tb656 2.453 . S
O659 C675 1.245 . S
O660 Tb656 2.596 . S
O660 Tb658 2.343 . S
O660 C675 1.259 . S
O661 Tb656 2.374 . S
O661 C657 1.251 . S
C662 O666 1.275 . S
C662 O667 1.246 . S
O663 C657 1.263 . S
O663 Tb658 2.353 . S
C664 O668 1.245 . S
C664 O669 1.259 . S
C665 O670 1.250 . S
C665 O671 1.263 . S
O666 Tb658 2.427 . S
O666 C662 1.275 . S
O667 Tb658 2.513 . S
O667 C662 1.246 . S
O668 Tb658 2.453 . S
O668 C664 1.245 . S
O669 Tb656 2.343 . S
O669 Tb658 2.596 . S
O669 C664 1.259 . S
O670 Tb658 2.374 . S
O670 C665 1.250 . S
O671 Tb656 2.353 . S
O671 C665 1.263 . S
C672 O673 1.275 . S
C672 O674 1.246 . S
O673 Tb656 2.427 . S
O673 C672 1.275 . S
O674 Tb656 2.513 . S
O674 C672 1.246 . S
C675 O659 1.245 . S
C675 O660 1.259 . S
Tb676 O679 2.453 . S
Tb676 O680 2.596 . S
Tb676 O681 2.374 . S
Tb676 O689 2.343 . S
Tb676 O691 2.353 . S
Tb676 O693 2.427 . S
Tb676 O694 2.513 . S
C677 O681 1.251 . S
C677 O683 1.263 . S
Tb678 O680 2.343 . S
Tb678 O683 2.353 . S
Tb678 O686 2.427 . S
Tb678 O687 2.513 . S
Tb678 O688 2.453 . S
Tb678 O689 2.596 . S
Tb678 O690 2.374 . S
O679 Tb676 2.453 . S
O679 C695 1.245 . S
O680 Tb676 2.596 . S
O680 Tb678 2.343 . S
O680 C695 1.259 . S
O681 Tb676 2.374 . S
O681 C677 1.251 . S
C682 O686 1.275 . S
C682 O687 1.246 . S
O683 C677 1.263 . S
O683 Tb678 2.353 . S
C684 O688 1.245 . S
C684 O689 1.259 . S
C685 O690 1.250 . S
C685 O691 1.263 . S
O686 Tb678 2.427 . S
O686 C682 1.275 . S
O687 Tb678 2.513 . S
O687 C682 1.246 . S
O688 Tb678 2.453 . S
O688 C684 1.245 . S
O689 Tb676 2.343 . S
O689 Tb678 2.596 . S
O689 C684 1.259 . S
O690 Tb678 2.374 . S
O690 C685 1.250 . S
O691 Tb676 2.353 . S
O691 C685 1.263 . S
C692 O693 1.275 . S
C692 O694 1.246 . S
O693 Tb676 2.427 . S
O693 C692 1.275 . S
O694 Tb676 2.513 . S
O694 C692 1.246 . S
C695 O679 1.245 . S
C695 O680 1.259 . S
Tb696 O699 2.453 . S
Tb696 O700 2.596 . S
Tb696 O701 2.374 . S
Tb696 O709 2.343 . S
Tb696 O711 2.353 . S
Tb696 O713 2.427 . S
Tb696 O714 2.513 . S
C697 O701 1.251 . S
C697 O703 1.263 . S
Tb698 O700 2.343 . S
Tb698 O703 2.353 . S
Tb698 O706 2.427 . S
Tb698 O707 2.513 . S
Tb698 O708 2.453 . S
Tb698 O709 2.596 . S
Tb698 O710 2.374 . S
O699 Tb696 2.453 . S
O699 C715 1.245 . S
O700 Tb696 2.596 . S
O700 Tb698 2.343 . S
O700 C715 1.259 . S
O701 Tb696 2.374 . S
O701 C697 1.251 . S
C702 O706 1.275 . S
C702 O707 1.246 . S
O703 C697 1.263 . S
O703 Tb698 2.353 . S
C704 O708 1.245 . S
C704 O709 1.259 . S
C705 O710 1.250 . S
C705 O711 1.263 . S
O706 Tb698 2.427 . S
O706 C702 1.275 . S
O707 Tb698 2.513 . S
O707 C702 1.246 . S
O708 Tb698 2.453 . S
O708 C704 1.245 . S
O709 Tb696 2.343 . S
O709 Tb698 2.596 . S
O709 C704 1.259 . S
O710 Tb698 2.374 . S
O710 C705 1.250 . S
O711 Tb696 2.353 . S
O711 C705 1.263 . S
C712 O713 1.275 . S
C712 O714 1.246 . S
O713 Tb696 2.427 . S
O713 C712 1.275 . S
O714 Tb696 2.513 . S
O714 C712 1.246 . S
C715 O699 1.245 . S
C715 O700 1.259 . S
Tb716 O719 2.453 . S
Tb716 O720 2.596 . S
Tb716 O721 2.374 . S
Tb716 O729 2.343 . S
Tb716 O731 2.353 . S
Tb716 O733 2.427 . S
Tb716 O734 2.513 . S
C717 O721 1.251 . S
C717 O723 1.263 . S
Tb718 O720 2.343 . S
Tb718 O723 2.353 . S
Tb718 O726 2.427 . S
Tb718 O727 2.513 . S
Tb718 O728 2.453 . S
Tb718 O729 2.596 . S
Tb718 O730 2.374 . S
O719 Tb716 2.453 . S
O719 C735 1.245 . S
O720 Tb716 2.596 . S
O720 Tb718 2.343 . S
O720 C735 1.259 . S
O721 Tb716 2.374 . S
O721 C717 1.251 . S
C722 O726 1.275 . S
C722 O727 1.246 . S
O723 C717 1.263 . S
O723 Tb718 2.353 . S
C724 O728 1.245 . S
C724 O729 1.259 . S
C725 O730 1.250 . S
C725 O731 1.263 . S
O726 Tb718 2.427 . S
O726 C722 1.275 . S
O727 Tb718 2.513 . S
O727 C722 1.246 . S
O728 Tb718 2.453 . S
O728 C724 1.245 . S
O729 Tb716 2.343 . S
O729 Tb718 2.596 . S
O729 C724 1.259 . S
O730 Tb718 2.374 . S
O730 C725 1.250 . S
O731 Tb716 2.353 . S
O731 C725 1.263 . S
C732 O733 1.275 . S
C732 O734 1.246 . S
O733 Tb716 2.427 . S
O733 C732 1.275 . S
O734 Tb716 2.513 . S
O734 C732 1.246 . S
C735 O719 1.245 . S
C735 O720 1.259 . S
Tb736 O739 2.453 . S
Tb736 O740 2.596 . S
Tb736 O741 2.374 . S
Tb736 O749 2.343 . S
Tb736 O751 2.353 . S
Tb736 O753 2.427 . S
Tb736 O754 2.513 . S
C737 O741 1.251 . S
C737 O743 1.263 . S
Tb738 O740 2.343 . S
Tb738 O743 2.353 . S
Tb738 O746 2.427 . S
Tb738 O747 2.513 . S
Tb738 O748 2.453 . S
Tb738 O749 2.596 . S
Tb738 O750 2.374 . S
O739 Tb736 2.453 . S
O739 C755 1.245 . S
O740 Tb736 2.596 . S
O740 Tb738 2.343 . S
O740 C755 1.259 . S
O741 Tb736 2.374 . S
O741 C737 1.251 . S
C742 O746 1.275 . S
C742 O747 1.246 . S
O743 C737 1.263 . S
O743 Tb738 2.353 . S
C744 O748 1.245 . S
C744 O749 1.259 . S
C745 O750 1.250 . S
C745 O751 1.263 . S
O746 Tb738 2.427 . S
O746 C742 1.275 . S
O747 Tb738 2.513 . S
O747 C742 1.246 . S
O748 Tb738 2.453 . S
O748 C744 1.245 . S
O749 Tb736 2.343 . S
O749 Tb738 2.596 . S
O749 C744 1.259 . S
O750 Tb738 2.374 . S
O750 C745 1.250 . S
O751 Tb736 2.353 . S
O751 C745 1.263 . S
C752 O753 1.275 . S
C752 O754 1.246 . S
O753 Tb736 2.427 . S
O753 C752 1.275 . S
O754 Tb736 2.513 . S
O754 C752 1.246 . S
C755 O739 1.245 . S
C755 O740 1.259 . S
H756 C774 0.951 . S
H757 C776 0.951 . S
H758 C778 0.950 . S
H759 C779 0.950 . S
H760 C781 0.950 . S
H761 C784 0.950 . S
H762 C785 0.950 . S
H763 C787 0.950 . S
H764 C788 0.950 . S
H765 C789 0.951 . S
H766 C791 0.951 . S
H767 C793 0.950 . S
H768 C794 0.950 . S
H769 C796 0.950 . S
H770 C799 0.950 . S
H771 C800 0.950 . S
H772 C802 0.950 . S
H773 C803 0.950 . S
C774 H756 0.951 . S
C774 C775 1.366 . S
C774 C776 1.388 . S
C775 C774 1.366 . S
C775 C779 1.385 . S
C776 H757 0.951 . S
C776 C774 1.388 . S
C776 C777 1.366 . S
C777 C776 1.366 . S
C777 C778 1.414 . S
C777 C780 1.499 . S
C778 H758 0.950 . S
C778 C777 1.414 . S
C778 C779 1.374 . S
C779 H759 0.950 . S
C779 C775 1.385 . S
C779 C778 1.374 . S
C780 C777 1.499 . S
C780 C781 1.373 . S
C780 C782 1.389 . S
C781 H760 0.950 . S
C781 C780 1.373 . S
C781 C797 1.377 . S
C782 C780 1.389 . S
C782 C783 1.524 . S
C782 C796 1.377 . S
C783 C782 1.524 . S
C783 C784 1.397 . S
C783 C788 1.363 . S
C784 H761 0.950 . S
C784 C783 1.397 . S
C784 C785 1.334 . S
C785 H762 0.950 . S
C785 C784 1.334 . S
C785 C786 1.287 . S
C786 C785 1.287 . S
C786 C787 1.524 . S
C786 H805 0.913 . S
C787 H763 0.950 . S
C787 C786 1.524 . S
C787 C788 1.415 . S
C788 H764 0.950 . S
C788 C783 1.363 . S
C788 C787 1.415 . S
C789 H765 0.951 . S
C789 C790 1.366 . S
C789 C791 1.388 . S
C790 C789 1.366 . S
C790 C794 1.385 . S
C791 H766 0.951 . S
C791 C789 1.388 . S
C791 C792 1.366 . S
C792 C791 1.366 . S
C792 C793 1.414 . S
C792 C795 1.499 . S
C793 H767 0.950 . S
C793 C792 1.414 . S
C793 C794 1.374 . S
C794 H768 0.950 . S
C794 C790 1.385 . S
C794 C793 1.374 . S
C795 C792 1.499 . S
C795 C796 1.373 . S
C795 C797 1.389 . S
C796 H769 0.950 . S
C796 C782 1.377 . S
C796 C795 1.373 . S
C797 C781 1.377 . S
C797 C795 1.389 . S
C797 C798 1.524 . S
C798 C797 1.524 . S
C798 C799 1.397 . S
C798 C803 1.363 . S
C799 H770 0.950 . S
C799 C798 1.397 . S
C799 C800 1.334 . S
C800 H771 0.950 . S
C800 C799 1.334 . S
C800 C801 1.287 . S
C801 C800 1.287 . S
C801 C802 1.524 . S
C801 H804 0.999 . S
C802 H772 0.950 . S
C802 C801 1.524 . S
C802 C803 1.415 . S
C803 H773 0.950 . S
C803 C798 1.363 . S
C803 C802 1.415 . S
H804 C801 0.999 . S
H805 C786 0.913 . S
H806 C824 0.951 . S
H807 C826 0.951 . S
H808 C828 0.950 . S
H809 C829 0.950 . S
H810 C831 0.950 . S
H811 C834 0.950 . S
H812 C835 0.950 . S
H813 C837 0.950 . S
H814 C838 0.950 . S
H815 C839 0.951 . S
H816 C841 0.951 . S
H817 C843 0.950 . S
H818 C844 0.950 . S
H819 C846 0.950 . S
H820 C849 0.950 . S
H821 C850 0.950 . S
H822 C852 0.950 . S
H823 C853 0.950 . S
C824 H806 0.951 . S
C824 C825 1.366 . S
C824 C826 1.388 . S
C825 C824 1.366 . S
C825 C829 1.385 . S
C826 H807 0.951 . S
C826 C824 1.388 . S
C826 C827 1.366 . S
C827 C826 1.366 . S
C827 C828 1.414 . S
C827 C830 1.499 . S
C828 H808 0.950 . S
C828 C827 1.414 . S
C828 C829 1.374 . S
C829 H809 0.950 . S
C829 C825 1.385 . S
C829 C828 1.374 . S
C830 C827 1.499 . S
C830 C831 1.373 . S
C830 C832 1.389 . S
C831 H810 0.950 . S
C831 C830 1.373 . S
C831 C847 1.377 . S
C832 C830 1.389 . S
C832 C833 1.524 . S
C832 C846 1.377 . S
C833 C832 1.524 . S
C833 C834 1.397 . S
C833 C838 1.363 . S
C834 H811 0.950 . S
C834 C833 1.397 . S
C834 C835 1.334 . S
C835 H812 0.950 . S
C835 C834 1.334 . S
C835 C836 1.287 . S
C836 C835 1.287 . S
C836 C837 1.524 . S
C836 H855 0.913 . S
C837 H813 0.950 . S
C837 C836 1.524 . S
C837 C838 1.415 . S
C838 H814 0.950 . S
C838 C833 1.363 . S
C838 C837 1.415 . S
C839 H815 0.951 . S
C839 C840 1.366 . S
C839 C841 1.388 . S
C840 C839 1.366 . S
C840 C844 1.385 . S
C841 H816 0.951 . S
C841 C839 1.388 . S
C841 C842 1.366 . S
C842 C841 1.366 . S
C842 C843 1.414 . S
C842 C845 1.499 . S
C843 H817 0.950 . S
C843 C842 1.414 . S
C843 C844 1.374 . S
C844 H818 0.950 . S
C844 C840 1.385 . S
C844 C843 1.374 . S
C845 C842 1.499 . S
C845 C846 1.373 . S
C845 C847 1.389 . S
C846 H819 0.950 . S
C846 C832 1.377 . S
C846 C845 1.373 . S
C847 C831 1.377 . S
C847 C845 1.389 . S
C847 C848 1.524 . S
C848 C847 1.524 . S
C848 C849 1.397 . S
C848 C853 1.363 . S
C849 H820 0.950 . S
C849 C848 1.397 . S
C849 C850 1.334 . S
C850 H821 0.950 . S
C850 C849 1.334 . S
C850 C851 1.287 . S
C851 C850 1.287 . S
C851 C852 1.524 . S
C851 H854 0.999 . S
C852 H822 0.950 . S
C852 C851 1.524 . S
C852 C853 1.415 . S
C853 H823 0.950 . S
C853 C848 1.363 . S
C853 C852 1.415 . S
H854 C851 0.999 . S
H855 C836 0.913 . S
H856 C874 0.951 . S
H857 C876 0.951 . S
H858 C878 0.950 . S
H859 C879 0.950 . S
H860 C881 0.950 . S
H861 C884 0.950 . S
H862 C885 0.950 . S
H863 C887 0.950 . S
H864 C888 0.950 . S
H865 C889 0.951 1_556 S
H866 C891 0.951 . S
H867 C893 0.950 . S
H868 C894 0.950 . S
H869 C896 0.950 . S
H870 C899 0.950 . S
H871 C900 0.950 . S
H872 C902 0.950 . S
H873 C903 0.947 . S
C874 H856 0.951 . S
C874 C875 1.366 . S
C874 C876 1.388 . S
C875 C874 1.366 . S
C875 C879 1.385 . S
C876 H857 0.951 . S
C876 C874 1.388 . S
C876 C877 1.366 . S
C877 C876 1.366 . S
C877 C878 1.414 . S
C877 C880 1.499 . S
C878 H858 0.950 . S
C878 C877 1.414 . S
C878 C879 1.374 . S
C879 H859 0.950 . S
C879 C875 1.385 . S
C879 C878 1.374 . S
C880 C877 1.499 . S
C880 C881 1.373 . S
C880 C882 1.389 . S
C881 H860 0.950 . S
C881 C880 1.373 . S
C881 C897 1.377 . S
C882 C880 1.389 . S
C882 C883 1.524 . S
C882 C896 1.377 . S
C883 C882 1.524 . S
C883 C884 1.397 . S
C883 C888 1.363 . S
C884 H861 0.950 . S
C884 C883 1.397 . S
C884 C885 1.334 . S
C885 H862 0.950 . S
C885 C884 1.334 . S
C885 C886 1.287 . S
C886 C885 1.287 . S
C886 C887 1.524 . S
C886 H905 0.913 . S
C887 H863 0.950 . S
C887 C886 1.524 . S
C887 C888 1.415 . S
C888 H864 0.950 . S
C888 C883 1.363 . S
C888 C887 1.415 . S
C889 H865 0.951 1_554 S
C889 C890 1.366 . S
C889 C891 1.388 . S
C890 C889 1.366 . S
C890 C894 1.385 . S
C891 H866 0.951 . S
C891 C889 1.388 . S
C891 C892 1.366 . S
C892 C891 1.366 . S
C892 C893 1.414 . S
C892 C895 1.499 . S
C893 H867 0.950 . S
C893 C892 1.414 . S
C893 C894 1.374 . S
C894 H868 0.950 . S
C894 C890 1.385 . S
C894 C893 1.374 . S
C895 C892 1.499 . S
C895 C896 1.373 . S
C895 C897 1.389 . S
C896 H869 0.950 . S
C896 C882 1.377 . S
C896 C895 1.373 . S
C897 C881 1.377 . S
C897 C895 1.389 . S
C897 C898 1.524 . S
C898 C897 1.524 . S
C898 C899 1.397 . S
C898 C903 1.363 . S
C899 H870 0.950 . S
C899 C898 1.397 . S
C899 C900 1.334 . S
C900 H871 0.950 . S
C900 C899 1.334 . S
C900 C901 1.287 . S
C901 C900 1.287 . S
C901 C902 1.524 1_554 S
C901 H904 0.999 1_554 S
C902 H872 0.950 . S
C902 C901 1.524 1_556 S
C902 C903 1.415 1_556 S
C903 H873 0.947 . S
C903 C898 1.363 . S
C903 C902 1.415 1_554 S
H904 C901 0.999 1_556 S
H905 C886 0.913 . S
H906 C924 0.951 . S
H907 C926 0.951 . S
H908 C928 0.950 . S
H909 C929 0.950 . S
H910 C931 0.950 . S
H911 C934 0.950 . S
H912 C935 0.948 . S
H913 C937 0.950 . S
H914 C938 0.950 . S
H915 C939 0.951 . S
H916 C941 0.951 . S
H917 C943 0.950 . S
H918 C944 0.950 . S
H919 C946 0.950 . S
H920 C949 0.950 . S
H921 C950 0.950 . S
H922 C952 0.950 . S
H923 C953 0.950 . S
C924 H906 0.951 . S
C924 C925 1.366 . S
C924 C926 1.388 . S
C925 C924 1.366 . S
C925 C929 1.385 . S
C926 H907 0.951 . S
C926 C924 1.388 . S
C926 C927 1.366 . S
C927 C926 1.366 . S
C927 C928 1.414 . S
C927 C930 1.499 . S
C928 H908 0.950 . S
C928 C927 1.414 . S
C928 C929 1.374 . S
C929 H909 0.950 . S
C929 C925 1.385 . S
C929 C928 1.374 . S
C930 C927 1.499 . S
C930 C931 1.373 . S
C930 C932 1.389 . S
C931 H910 0.950 . S
C931 C930 1.373 . S
C931 C947 1.377 . S
C932 C930 1.389 . S
C932 C933 1.524 . S
C932 C946 1.377 . S
C933 C932 1.524 . S
C933 C934 1.397 . S
C933 C938 1.363 . S
C934 H911 0.950 . S
C934 C933 1.397 . S
C934 C935 1.388 . S
C935 H912 0.948 . S
C935 C934 1.388 . S
C935 C936 1.243 1_556 S
C936 C935 1.243 1_554 S
C936 C937 1.524 . S
C936 H955 0.913 . S
C937 H913 0.950 . S
C937 C936 1.524 . S
C937 C938 1.415 1_554 S
C938 H914 0.950 . S
C938 C933 1.363 . S
C938 C937 1.415 1_556 S
C939 H915 0.951 . S
C939 C940 1.366 . S
C939 C941 1.388 . S
C940 C939 1.366 . S
C940 C944 1.385 . S
C941 H916 0.951 . S
C941 C939 1.388 . S
C941 C942 1.366 . S
C942 C941 1.366 . S
C942 C943 1.414 . S
C942 C945 1.499 . S
C943 H917 0.950 . S
C943 C942 1.414 . S
C943 C944 1.374 . S
C944 H918 0.950 . S
C944 C940 1.385 . S
C944 C943 1.374 . S
C945 C942 1.499 . S
C945 C946 1.373 . S
C945 C947 1.389 . S
C946 H919 0.950 . S
C946 C932 1.377 . S
C946 C945 1.373 . S
C947 C931 1.377 . S
C947 C945 1.389 . S
C947 C948 1.524 . S
C948 C947 1.524 . S
C948 C949 1.397 . S
C948 C953 1.363 . S
C949 H920 0.950 . S
C949 C948 1.397 . S
C949 C950 1.334 . S
C950 H921 0.950 . S
C950 C949 1.334 . S
C950 C951 1.287 . S
C951 C950 1.287 . S
C951 C952 1.524 . S
C951 H954 0.999 . S
C952 H922 0.950 . S
C952 C951 1.524 . S
C952 C953 1.415 . S
C953 H923 0.950 . S
C953 C948 1.363 . S
C953 C952 1.415 . S
H954 C951 0.999 . S
H955 C936 0.913 . S
H956 C974 0.951 . S
H957 C976 0.951 . S
H958 C978 0.950 . S
H959 C979 0.950 . S
H960 C981 0.950 . S
H961 C984 0.950 . S
H962 C985 0.950 . S
H963 C987 0.950 . S
H964 C988 0.950 . S
H965 C989 0.951 . S
H966 C991 0.951 . S
H967 C993 0.950 . S
H968 C994 0.950 . S
H969 C996 0.950 . S
H970 C999 0.950 . S
H971 C1000 0.950 . S
H972 C1002 0.950 . S
H973 C1003 0.950 . S
C974 H956 0.951 . S
C974 C975 1.366 . S
C974 C976 1.388 . S
C975 C974 1.366 . S
C975 C979 1.385 . S
C976 H957 0.951 . S
C976 C974 1.388 . S
C976 C977 1.366 . S
C977 C976 1.366 . S
C977 C978 1.414 . S
C977 C980 1.499 . S
C978 H958 0.950 . S
C978 C977 1.414 . S
C978 C979 1.374 . S
C979 H959 0.950 . S
C979 C975 1.385 . S
C979 C978 1.374 . S
C980 C977 1.499 . S
C980 C981 1.373 . S
C980 C982 1.389 . S
C981 H960 0.950 . S
C981 C980 1.373 . S
C981 C997 1.377 . S
C982 C980 1.389 . S
C982 C983 1.524 . S
C982 C996 1.377 . S
C983 C982 1.524 . S
C983 C984 1.397 . S
C983 C988 1.363 . S
C984 H961 0.950 . S
C984 C983 1.397 . S
C984 C985 1.334 . S
C985 H962 0.950 . S
C985 C984 1.334 . S
C985 C986 1.287 . S
C986 C985 1.287 . S
C986 C987 1.524 . S
C986 H1005 0.913 . S
C987 H963 0.950 . S
C987 C986 1.524 . S
C987 C988 1.415 . S
C988 H964 0.950 . S
C988 C983 1.363 . S
C988 C987 1.415 . S
C989 H965 0.951 . S
C989 C990 1.366 . S
C989 C991 1.388 . S
C990 C989 1.366 . S
C990 C994 1.385 . S
C991 H966 0.951 . S
C991 C989 1.388 . S
C991 C992 1.366 . S
C992 C991 1.366 . S
C992 C993 1.414 . S
C992 C995 1.499 . S
C993 H967 0.950 . S
C993 C992 1.414 . S
C993 C994 1.374 . S
C994 H968 0.950 . S
C994 C990 1.385 . S
C994 C993 1.374 . S
C995 C992 1.499 . S
C995 C996 1.373 . S
C995 C997 1.389 . S
C996 H969 0.950 . S
C996 C982 1.377 . S
C996 C995 1.373 . S
C997 C981 1.377 . S
C997 C995 1.389 . S
C997 C998 1.524 . S
C998 C997 1.524 . S
C998 C999 1.397 . S
C998 C1003 1.363 . S
C999 H970 0.950 . S
C999 C998 1.397 . S
C999 C1000 1.334 1_556 S
C1000 H971 0.950 . S
C1000 C999 1.334 1_554 S
C1000 C1001 1.287 . S
C1001 C1000 1.287 . S
C1001 C1002 1.524 1_554 S
C1001 H1004 0.999 . S
C1002 H972 0.950 . S
C1002 C1001 1.524 1_556 S
C1002 C1003 1.415 . S
C1003 H973 0.950 . S
C1003 C998 1.363 . S
C1003 C1002 1.415 . S
H1004 C1001 0.999 . S
H1005 C986 0.913 . S
H1006 C1024 0.951 . S
H1007 C1026 0.951 . S
H1008 C1028 0.950 . S
H1009 C1029 0.950 . S
H1010 C1031 0.950 . S
H1011 C1034 0.950 . S
H1012 C1035 0.950 . S
H1013 C1037 0.950 . S
H1014 C1038 0.947 1_556 S
H1015 C1039 0.951 . S
H1016 C1041 0.951 . S
H1017 C1043 0.950 . S
H1018 C1044 0.950 . S
H1019 C1046 0.950 . S
H1020 C1049 0.950 . S
H1021 C1050 0.950 . S
H1022 C1052 0.950 . S
H1023 C1053 0.950 . S
C1024 H1006 0.951 . S
C1024 C1025 1.366 . S
C1024 C1026 1.388 . S
C1025 C1024 1.366 . S
C1025 C1029 1.385 . S
C1026 H1007 0.951 . S
C1026 C1024 1.388 . S
C1026 C1027 1.366 . S
C1027 C1026 1.366 . S
C1027 C1028 1.414 . S
C1027 C1030 1.499 . S
C1028 H1008 0.950 . S
C1028 C1027 1.414 . S
C1028 C1029 1.374 . S
C1029 H1009 0.950 . S
C1029 C1025 1.385 . S
C1029 C1028 1.374 . S
C1030 C1027 1.499 . S
C1030 C1031 1.373 . S
C1030 C1032 1.389 . S
C1031 H1010 0.950 . S
C1031 C1030 1.373 . S
C1031 C1047 1.377 . S
C1032 C1030 1.389 . S
C1032 C1033 1.524 . S
C1032 C1046 1.377 . S
C1033 C1032 1.524 . S
C1033 C1034 1.397 . S
C1033 C1038 1.345 1_556 S
C1034 H1011 0.950 . S
C1034 C1033 1.397 . S
C1034 C1035 1.334 1_556 S
C1035 H1012 0.950 . S
C1035 C1034 1.334 1_554 S
C1035 C1036 1.287 . S
C1036 C1035 1.287 . S
C1036 C1037 1.524 . S
C1036 H1055 0.913 . S
C1037 H1013 0.950 . S
C1037 C1036 1.524 . S
C1037 C1038 1.437 . S
C1038 H1014 0.947 1_554 S
C1038 C1033 1.345 1_554 S
C1038 C1037 1.437 . S
C1039 H1015 0.951 . S
C1039 C1040 1.366 . S
C1039 C1041 1.388 . S
C1040 C1039 1.366 . S
C1040 C1044 1.385 . S
C1041 H1016 0.951 . S
C1041 C1039 1.388 . S
C1041 C1042 1.366 . S
C1042 C1041 1.366 . S
C1042 C1043 1.414 . S
C1042 C1045 1.499 . S
C1043 H1017 0.950 . S
C1043 C1042 1.414 . S
C1043 C1044 1.374 . S
C1044 H1018 0.950 . S
C1044 C1040 1.385 . S
C1044 C1043 1.374 . S
C1045 C1042 1.499 . S
C1045 C1046 1.373 . S
C1045 C1047 1.389 . S
C1046 H1019 0.950 . S
C1046 C1032 1.377 . S
C1046 C1045 1.373 . S
C1047 C1031 1.377 . S
C1047 C1045 1.389 . S
C1047 C1048 1.524 . S
C1048 C1047 1.524 . S
C1048 C1049 1.397 . S
C1048 C1053 1.363 . S
C1049 H1020 0.950 . S
C1049 C1048 1.397 . S
C1049 C1050 1.334 . S
C1050 H1021 0.950 . S
C1050 C1049 1.334 . S
C1050 C1051 1.287 . S
C1051 C1050 1.287 . S
C1051 C1052 1.524 . S
C1051 H1054 0.999 . S
C1052 H1022 0.950 . S
C1052 C1051 1.524 . S
C1052 C1053 1.415 . S
C1053 H1023 0.950 . S
C1053 C1048 1.363 . S
C1053 C1052 1.415 . S
H1054 C1051 0.999 . S
H1055 C1036 0.913 . S
H1056 C1074 0.951 . S
H1057 C1076 0.951 . S
H1058 C1078 0.950 . S
H1059 C1079 0.950 . S
H1060 C1081 0.950 . S
H1061 C1084 0.950 . S
H1062 C1085 0.950 . S
H1063 C1087 0.950 . S
H1064 C1088 0.950 . S
H1065 C1089 0.951 1_554 S
H1066 C1091 0.951 . S
H1067 C1093 0.950 . S
H1068 C1094 0.950 . S
H1069 C1096 0.950 . S
H1070 C1099 0.950 . S
H1071 C1100 0.950 . S
H1072 C1102 0.950 1_554 S
H1073 C1103 0.950 . S
C1074 H1056 0.951 . S
C1074 C1075 1.366 . S
C1074 C1076 1.388 . S
C1075 C1074 1.366 . S
C1075 C1079 1.385 . S
C1076 H1057 0.951 . S
C1076 C1074 1.388 . S
C1076 C1077 1.366 . S
C1077 C1076 1.366 . S
C1077 C1078 1.414 . S
C1077 C1080 1.499 . S
C1078 H1058 0.950 . S
C1078 C1077 1.414 . S
C1078 C1079 1.374 . S
C1079 H1059 0.950 . S
C1079 C1075 1.385 . S
C1079 C1078 1.374 . S
C1080 C1077 1.499 . S
C1080 C1081 1.373 . S
C1080 C1082 1.389 . S
C1081 H1060 0.950 . S
C1081 C1080 1.373 . S
C1081 C1097 1.377 . S
C1082 C1080 1.389 . S
C1082 C1083 1.524 . S
C1082 C1096 1.377 . S
C1083 C1082 1.524 . S
C1083 C1084 1.397 . S
C1083 C1088 1.363 . S
C1084 H1061 0.950 . S
C1084 C1083 1.397 . S
C1084 C1085 1.334 . S
C1085 H1062 0.950 . S
C1085 C1084 1.334 . S
C1085 C1086 1.287 . S
C1086 C1085 1.287 . S
C1086 C1087 1.524 . S
C1086 H1105 0.913 . S
C1087 H1063 0.950 . S
C1087 C1086 1.524 . S
C1087 C1088 1.415 . S
C1088 H1064 0.950 . S
C1088 C1083 1.363 . S
C1088 C1087 1.415 . S
C1089 H1065 0.951 1_556 S
C1089 C1090 1.366 . S
C1089 C1091 1.388 . S
C1090 C1089 1.366 . S
C1090 C1094 1.385 . S
C1091 H1066 0.951 . S
C1091 C1089 1.388 . S
C1091 C1092 1.366 . S
C1092 C1091 1.366 . S
C1092 C1093 1.414 . S
C1092 C1095 1.499 . S
C1093 H1067 0.950 . S
C1093 C1092 1.414 . S
C1093 C1094 1.374 . S
C1094 H1068 0.950 . S
C1094 C1090 1.385 . S
C1094 C1093 1.374 . S
C1095 C1092 1.499 . S
C1095 C1096 1.373 . S
C1095 C1097 1.389 . S
C1096 H1069 0.950 . S
C1096 C1082 1.377 . S
C1096 C1095 1.373 . S
C1097 C1081 1.377 . S
C1097 C1095 1.389 . S
C1097 C1098 1.524 . S
C1098 C1097 1.524 . S
C1098 C1099 1.397 . S
C1098 C1103 1.363 . S
C1099 H1070 0.950 . S
C1099 C1098 1.397 . S
C1099 C1100 1.334 . S
C1100 H1071 0.950 . S
C1100 C1099 1.334 . S
C1100 C1101 1.287 . S
C1101 C1100 1.287 . S
C1101 C1102 1.524 . S
C1101 H1104 0.999 . S
C1102 H1072 0.950 1_556 S
C1102 C1101 1.524 . S
C1102 C1103 1.415 . S
C1103 H1073 0.950 . S
C1103 C1098 1.363 . S
C1103 C1102 1.415 . S
H1104 C1101 0.999 . S
H1105 C1086 0.913 . S
H1106 C1124 0.951 . S
H1107 C1126 0.951 . S
H1108 C1128 0.950 . S
H1109 C1129 0.950 . S
H1110 C1131 0.950 . S
H1111 C1134 0.950 . S
H1112 C1135 0.950 . S
H1113 C1137 0.950 . S
H1114 C1138 0.950 . S
H1115 C1139 0.951 . S
H1116 C1141 0.951 . S
H1117 C1143 0.950 . S
H1118 C1144 0.950 . S
H1119 C1146 0.950 . S
H1120 C1149 0.950 . S
H1121 C1150 0.950 . S
H1122 C1152 0.950 . S
H1123 C1153 0.950 . S
C1124 H1106 0.951 . S
C1124 C1125 1.366 . S
C1124 C1126 1.388 . S
C1125 C1124 1.366 . S
C1125 C1129 1.385 . S
C1126 H1107 0.951 . S
C1126 C1124 1.388 . S
C1126 C1127 1.366 . S
C1127 C1126 1.366 . S
C1127 C1128 1.414 . S
C1127 C1130 1.499 . S
C1128 H1108 0.950 . S
C1128 C1127 1.414 . S
C1128 C1129 1.374 . S
C1129 H1109 0.950 . S
C1129 C1125 1.385 . S
C1129 C1128 1.374 . S
C1130 C1127 1.499 . S
C1130 C1131 1.373 . S
C1130 C1132 1.389 . S
C1131 H1110 0.950 . S
C1131 C1130 1.373 . S
C1131 C1147 1.377 . S
C1132 C1130 1.389 . S
C1132 C1133 1.524 . S
C1132 C1146 1.377 . S
C1133 C1132 1.524 . S
C1133 C1134 1.397 . S
C1133 C1138 1.363 . S
C1134 H1111 0.950 . S
C1134 C1133 1.397 . S
C1134 C1135 1.334 . S
C1135 H1112 0.950 . S
C1135 C1134 1.334 . S
C1135 C1136 1.287 . S
C1136 C1135 1.287 . S
C1136 C1137 1.524 . S
C1136 H1155 0.913 . S
C1137 H1113 0.950 . S
C1137 C1136 1.524 . S
C1137 C1138 1.415 . S
C1138 H1114 0.950 . S
C1138 C1133 1.363 . S
C1138 C1137 1.415 . S
C1139 H1115 0.951 . S
C1139 C1140 1.366 . S
C1139 C1141 1.388 . S
C1140 C1139 1.366 . S
C1140 C1144 1.385 . S
C1141 H1116 0.951 . S
C1141 C1139 1.388 . S
C1141 C1142 1.366 . S
C1142 C1141 1.366 . S
C1142 C1143 1.414 . S
C1142 C1145 1.499 . S
C1143 H1117 0.950 . S
C1143 C1142 1.414 . S
C1143 C1144 1.374 . S
C1144 H1118 0.950 . S
C1144 C1140 1.385 . S
C1144 C1143 1.374 . S
C1145 C1142 1.499 . S
C1145 C1146 1.373 . S
C1145 C1147 1.389 . S
C1146 H1119 0.950 . S
C1146 C1132 1.377 . S
C1146 C1145 1.373 . S
C1147 C1131 1.377 . S
C1147 C1145 1.389 . S
C1147 C1148 1.524 . S
C1148 C1147 1.524 . S
C1148 C1149 1.397 . S
C1148 C1153 1.363 . S
C1149 H1120 0.950 . S
C1149 C1148 1.397 . S
C1149 C1150 1.334 1_556 S
C1150 H1121 0.950 . S
C1150 C1149 1.334 1_554 S
C1150 C1151 1.287 . S
C1151 C1150 1.287 . S
C1151 C1152 1.524 . S
C1151 H1154 0.999 . S
C1152 H1122 0.950 . S
C1152 C1151 1.524 . S
C1152 C1153 1.415 1_554 S
C1153 H1123 0.950 . S
C1153 C1148 1.363 . S
C1153 C1152 1.415 1_556 S
H1154 C1151 0.999 . S
H1155 C1136 0.913 . S
H1156 C1174 0.951 . S
H1157 C1176 0.951 . S
H1158 C1178 0.950 . S
H1159 C1179 0.950 . S
H1160 C1181 0.950 . S
H1161 C1184 0.950 . S
H1162 C1185 0.950 . S
H1163 C1187 0.950 . S
H1164 C1188 0.950 . S
H1165 C1189 0.951 . S
H1166 C1191 0.951 . S
H1167 C1193 0.950 . S
H1168 C1194 0.950 . S
H1169 C1196 0.950 . S
H1170 C1199 0.950 . S
H1171 C1200 0.950 . S
H1172 C1202 0.939 1_556 S
H1173 C1203 0.950 . S
C1174 H1156 0.951 . S
C1174 C1175 1.366 . S
C1174 C1176 1.388 . S
C1175 C1174 1.366 . S
C1175 C1179 1.385 . S
C1176 H1157 0.951 . S
C1176 C1174 1.388 . S
C1176 C1177 1.366 . S
C1177 C1176 1.366 . S
C1177 C1178 1.414 . S
C1177 C1180 1.499 . S
C1178 H1158 0.950 . S
C1178 C1177 1.414 . S
C1178 C1179 1.374 . S
C1179 H1159 0.950 . S
C1179 C1175 1.385 . S
C1179 C1178 1.374 . S
C1180 C1177 1.499 . S
C1180 C1181 1.373 . S
C1180 C1182 1.389 . S
C1181 H1160 0.950 . S
C1181 C1180 1.373 . S
C1181 C1197 1.377 . S
C1182 C1180 1.389 . S
C1182 C1183 1.524 . S
C1182 C1196 1.377 . S
C1183 C1182 1.524 . S
C1183 C1184 1.397 . S
C1183 C1188 1.363 . S
C1184 H1161 0.950 . S
C1184 C1183 1.397 . S
C1184 C1185 1.334 . S
C1185 H1162 0.950 . S
C1185 C1184 1.334 . S
C1185 C1186 1.287 . S
C1186 C1185 1.287 . S
C1186 C1187 1.524 . S
C1186 H1205 0.913 . S
C1187 H1163 0.950 . S
C1187 C1186 1.524 . S
C1187 C1188 1.415 . S
C1188 H1164 0.950 . S
C1188 C1183 1.363 . S
C1188 C1187 1.415 . S
C1189 H1165 0.951 . S
C1189 C1190 1.366 . S
C1189 C1191 1.388 . S
C1190 C1189 1.366 . S
C1190 C1194 1.385 . S
C1191 H1166 0.951 . S
C1191 C1189 1.388 . S
C1191 C1192 1.366 . S
C1192 C1191 1.366 . S
C1192 C1193 1.414 . S
C1192 C1195 1.499 . S
C1193 H1167 0.950 . S
C1193 C1192 1.414 . S
C1193 C1194 1.374 . S
C1194 H1168 0.950 . S
C1194 C1190 1.385 . S
C1194 C1193 1.374 . S
C1195 C1192 1.499 . S
C1195 C1196 1.373 . S
C1195 C1197 1.389 . S
C1196 H1169 0.950 . S
C1196 C1182 1.377 . S
C1196 C1195 1.373 . S
C1197 C1181 1.377 . S
C1197 C1195 1.389 . S
C1197 C1198 1.524 . S
C1198 C1197 1.524 . S
C1198 C1199 1.397 1_556 S
C1198 C1203 1.363 . S
C1199 H1170 0.950 . S
C1199 C1198 1.397 1_554 S
C1199 C1200 1.334 . S
C1200 H1171 0.950 . S
C1200 C1199 1.334 . S
C1200 C1201 1.287 . S
C1201 C1200 1.287 . S
C1201 C1202 1.547 . S
C1201 H1204 0.999 . S
C1202 H1172 0.939 1_554 S
C1202 C1201 1.547 . S
C1202 C1203 1.397 1_554 S
C1203 H1173 0.950 . S
C1203 C1198 1.363 . S
C1203 C1202 1.397 1_556 S
H1204 C1201 0.999 . S
H1205 C1186 0.913 . S
H1206 C1224 0.951 . S
H1207 C1226 0.951 . S
H1208 C1228 0.950 . S
H1209 C1229 0.950 . S
H1210 C1231 0.950 . S
H1211 C1234 0.950 . S
H1212 C1235 0.950 . S
H1213 C1237 0.950 . S
H1214 C1238 0.950 . S
H1215 C1239 0.951 . S
H1216 C1241 0.951 . S
H1217 C1243 0.950 . S
H1218 C1244 0.950 1_556 S
H1219 C1246 0.950 . S
H1220 C1249 0.950 . S
H1221 C1250 0.950 . S
H1222 C1252 0.950 . S
H1223 C1253 0.950 . S
C1224 H1206 0.951 . S
C1224 C1225 1.366 . S
C1224 C1226 1.388 . S
C1225 C1224 1.366 . S
C1225 C1229 1.385 . S
C1226 H1207 0.951 . S
C1226 C1224 1.388 . S
C1226 C1227 1.366 . S
C1227 C1226 1.366 . S
C1227 C1228 1.414 . S
C1227 C1230 1.499 . S
C1228 H1208 0.950 . S
C1228 C1227 1.414 . S
C1228 C1229 1.374 . S
C1229 H1209 0.950 . S
C1229 C1225 1.385 . S
C1229 C1228 1.374 . S
C1230 C1227 1.499 . S
C1230 C1231 1.373 . S
C1230 C1232 1.389 . S
C1231 H1210 0.950 . S
C1231 C1230 1.373 . S
C1231 C1247 1.377 . S
C1232 C1230 1.389 . S
C1232 C1233 1.524 . S
C1232 C1246 1.377 . S
C1233 C1232 1.524 . S
C1233 C1234 1.397 . S
C1233 C1238 1.363 . S
C1234 H1211 0.950 . S
C1234 C1233 1.397 . S
C1234 C1235 1.334 . S
C1235 H1212 0.950 . S
C1235 C1234 1.334 . S
C1235 C1236 1.287 . S
C1236 C1235 1.287 . S
C1236 C1237 1.524 . S
C1236 H1255 0.913 . S
C1237 H1213 0.950 . S
C1237 C1236 1.524 . S
C1237 C1238 1.415 . S
C1238 H1214 0.950 . S
C1238 C1233 1.363 . S
C1238 C1237 1.415 . S
C1239 H1215 0.951 . S
C1239 C1240 1.366 . S
C1239 C1241 1.388 . S
C1240 C1239 1.366 . S
C1240 C1244 1.385 . S
C1241 H1216 0.951 . S
C1241 C1239 1.388 . S
C1241 C1242 1.366 . S
C1242 C1241 1.366 . S
C1242 C1243 1.414 . S
C1242 C1245 1.499 . S
C1243 H1217 0.950 . S
C1243 C1242 1.414 . S
C1243 C1244 1.374 . S
C1244 H1218 0.950 1_554 S
C1244 C1240 1.385 . S
C1244 C1243 1.374 . S
C1245 C1242 1.499 . S
C1245 C1246 1.373 . S
C1245 C1247 1.389 . S
C1246 H1219 0.950 . S
C1246 C1232 1.377 . S
C1246 C1245 1.373 . S
C1247 C1231 1.377 . S
C1247 C1245 1.389 . S
C1247 C1248 1.524 . S
C1248 C1247 1.524 . S
C1248 C1249 1.397 . S
C1248 C1253 1.363 . S
C1249 H1220 0.950 . S
C1249 C1248 1.397 . S
C1249 C1250 1.334 . S
C1250 H1221 0.950 . S
C1250 C1249 1.334 . S
C1250 C1251 1.287 . S
C1251 C1250 1.287 . S
C1251 C1252 1.524 . S
C1251 H1254 0.999 . S
C1252 H1222 0.950 . S
C1252 C1251 1.524 . S
C1252 C1253 1.415 . S
C1253 H1223 0.950 . S
C1253 C1248 1.363 . S
C1253 C1252 1.415 . S
H1254 C1251 0.999 . S
H1255 C1236 0.913 . S
H1256 C1274 0.951 . S
H1257 C1276 0.951 . S
H1258 C1278 0.950 . S
H1259 C1279 0.950 . S
H1260 C1281 0.950 . S
H1261 C1284 0.950 . S
H1262 C1285 0.950 . S
H1263 C1287 0.950 . S
H1264 C1288 0.950 . S
H1265 C1289 0.951 . S
H1266 C1291 0.951 . S
H1267 C1293 0.950 . S
H1268 C1294 0.950 . S
H1269 C1296 0.950 . S
H1270 C1299 0.950 . S
H1271 C1300 0.950 . S
H1272 C1302 0.950 . S
H1273 C1303 0.950 . S
C1274 H1256 0.951 . S
C1274 C1275 1.366 . S
C1274 C1276 1.388 . S
C1275 C1274 1.366 . S
C1275 C1279 1.385 . S
C1276 H1257 0.951 . S
C1276 C1274 1.388 . S
C1276 C1277 1.366 . S
C1277 C1276 1.366 . S
C1277 C1278 1.414 . S
C1277 C1280 1.499 . S
C1278 H1258 0.950 . S
C1278 C1277 1.414 . S
C1278 C1279 1.374 . S
C1279 H1259 0.950 . S
C1279 C1275 1.385 . S
C1279 C1278 1.374 . S
C1280 C1277 1.499 . S
C1280 C1281 1.373 . S
C1280 C1282 1.389 . S
C1281 H1260 0.950 . S
C1281 C1280 1.373 . S
C1281 C1297 1.377 . S
C1282 C1280 1.389 . S
C1282 C1283 1.524 . S
C1282 C1296 1.377 . S
C1283 C1282 1.524 . S
C1283 C1284 1.397 . S
C1283 C1288 1.363 . S
C1284 H1261 0.950 . S
C1284 C1283 1.397 . S
C1284 C1285 1.334 . S
C1285 H1262 0.950 . S
C1285 C1284 1.334 . S
C1285 C1286 1.287 . S
C1286 C1285 1.287 . S
C1286 C1287 1.524 . S
C1286 H1305 0.913 . S
C1287 H1263 0.950 . S
C1287 C1286 1.524 . S
C1287 C1288 1.415 . S
C1288 H1264 0.950 . S
C1288 C1283 1.363 . S
C1288 C1287 1.415 . S
C1289 H1265 0.951 . S
C1289 C1290 1.366 . S
C1289 C1291 1.388 . S
C1290 C1289 1.366 . S
C1290 C1294 1.385 . S
C1291 H1266 0.951 . S
C1291 C1289 1.388 . S
C1291 C1292 1.366 . S
C1292 C1291 1.366 . S
C1292 C1293 1.414 . S
C1292 C1295 1.499 . S
C1293 H1267 0.950 . S
C1293 C1292 1.414 . S
C1293 C1294 1.374 . S
C1294 H1268 0.950 . S
C1294 C1290 1.385 . S
C1294 C1293 1.374 . S
C1295 C1292 1.499 . S
C1295 C1296 1.373 . S
C1295 C1297 1.389 . S
C1296 H1269 0.950 . S
C1296 C1282 1.377 . S
C1296 C1295 1.373 . S
C1297 C1281 1.377 . S
C1297 C1295 1.389 . S
C1297 C1298 1.524 . S
C1298 C1297 1.524 . S
C1298 C1299 1.397 . S
C1298 C1303 1.363 . S
C1299 H1270 0.950 . S
C1299 C1298 1.397 . S
C1299 C1300 1.334 1_554 S
C1300 H1271 0.950 . S
C1300 C1299 1.334 1_556 S
C1300 C1301 1.287 . S
C1301 C1300 1.287 . S
C1301 C1302 1.524 . S
C1301 H1304 0.999 . S
C1302 H1272 0.950 . S
C1302 C1301 1.524 . S
C1302 C1303 1.415 1_556 S
C1303 H1273 0.950 . S
C1303 C1298 1.363 . S
C1303 C1302 1.415 1_554 S
H1304 C1301 0.999 . S
H1305 C1286 0.913 . S
H1306 C1324 0.951 . S
H1307 C1326 0.951 . S
H1308 C1328 0.950 . S
H1309 C1329 0.950 . S
H1310 C1331 0.950 . S
H1311 C1334 0.950 . S
H1312 C1335 0.950 . S
H1313 C1337 0.950 . S
H1314 C1338 0.950 . S
H1315 C1339 0.951 . S
H1316 C1341 0.951 . S
H1317 C1343 0.950 . S
H1318 C1344 0.950 . S
H1319 C1346 0.950 . S
H1320 C1349 0.950 . S
H1321 C1350 0.950 . S
H1322 C1352 0.950 . S
H1323 C1353 0.950 . S
C1324 H1306 0.951 . S
C1324 C1325 1.366 . S
C1324 C1326 1.388 . S
C1325 C1324 1.366 . S
C1325 C1329 1.385 . S
C1326 H1307 0.951 . S
C1326 C1324 1.388 . S
C1326 C1327 1.366 . S
C1327 C1326 1.366 . S
C1327 C1328 1.414 . S
C1327 C1330 1.499 . S
C1328 H1308 0.950 . S
C1328 C1327 1.414 . S
C1328 C1329 1.374 . S
C1329 H1309 0.950 . S
C1329 C1325 1.385 . S
C1329 C1328 1.374 . S
C1330 C1327 1.499 . S
C1330 C1331 1.373 . S
C1330 C1332 1.389 . S
C1331 H1310 0.950 . S
C1331 C1330 1.373 . S
C1331 C1347 1.377 . S
C1332 C1330 1.389 . S
C1332 C1333 1.524 . S
C1332 C1346 1.377 . S
C1333 C1332 1.524 . S
C1333 C1334 1.397 . S
C1333 C1338 1.363 . S
C1334 H1311 0.950 . S
C1334 C1333 1.397 . S
C1334 C1335 1.334 . S
C1335 H1312 0.950 . S
C1335 C1334 1.334 . S
C1335 C1336 1.287 . S
C1336 C1335 1.287 . S
C1336 C1337 1.524 . S
C1336 H1355 0.913 . S
C1337 H1313 0.950 . S
C1337 C1336 1.524 . S
C1337 C1338 1.415 . S
C1338 H1314 0.950 . S
C1338 C1333 1.363 . S
C1338 C1337 1.415 . S
C1339 H1315 0.951 . S
C1339 C1340 1.366 . S
C1339 C1341 1.388 . S
C1340 C1339 1.366 . S
C1340 C1344 1.385 . S
C1341 H1316 0.951 . S
C1341 C1339 1.388 . S
C1341 C1342 1.366 . S
C1342 C1341 1.366 . S
C1342 C1343 1.414 . S
C1342 C1345 1.499 . S
C1343 H1317 0.950 . S
C1343 C1342 1.414 . S
C1343 C1344 1.374 . S
C1344 H1318 0.950 . S
C1344 C1340 1.385 . S
C1344 C1343 1.374 . S
C1345 C1342 1.499 . S
C1345 C1346 1.373 . S
C1345 C1347 1.389 . S
C1346 H1319 0.950 . S
C1346 C1332 1.377 . S
C1346 C1345 1.373 . S
C1347 C1331 1.377 . S
C1347 C1345 1.389 . S
C1347 C1348 1.524 . S
C1348 C1347 1.524 . S
C1348 C1349 1.397 1_554 S
C1348 C1353 1.363 . S
C1349 H1320 0.950 . S
C1349 C1348 1.397 1_556 S
C1349 C1350 1.334 . S
C1350 H1321 0.950 . S
C1350 C1349 1.334 . S
C1350 C1351 1.287 . S
C1351 C1350 1.287 . S
C1351 C1352 1.524 . S
C1351 H1354 0.999 . S
C1352 H1322 0.950 . S
C1352 C1351 1.524 . S
C1352 C1353 1.415 1_556 S
C1353 H1323 0.950 . S
C1353 C1348 1.363 . S
C1353 C1352 1.415 1_554 S
H1354 C1351 0.999 . S
H1355 C1336 0.913 . S
H1356 C1374 0.951 . S
H1357 C1376 0.951 . S
H1358 C1378 0.950 . S
H1359 C1379 0.950 . S
H1360 C1381 0.950 1_655 S
H1361 C1384 0.907 1_655 S
H1362 C1385 0.950 1_655 S
H1363 C1387 0.950 . S
H1364 C1388 0.950 . S
H1365 C1389 0.951 . S
H1366 C1391 0.951 . S
H1367 C1393 0.950 . S
H1368 C1394 0.950 . S
H1369 C1396 0.950 . S
H1370 C1399 0.950 . S
H1371 C1400 0.950 . S
H1372 C1402 0.950 . S
H1373 C1403 0.950 . S
C1374 H1356 0.951 . S
C1374 C1375 1.366 . S
C1374 C1376 1.388 . S
C1375 C1374 1.366 . S
C1375 C1379 1.385 . S
C1376 H1357 0.951 . S
C1376 C1374 1.388 . S
C1376 C1377 1.366 . S
C1377 C1376 1.366 . S
C1377 C1378 1.414 . S
C1377 C1380 1.499 1_655 S
C1378 H1358 0.950 . S
C1378 C1377 1.414 . S
C1378 C1379 1.374 . S
C1379 H1359 0.950 . S
C1379 C1375 1.385 . S
C1379 C1378 1.374 . S
C1380 C1377 1.499 1_455 S
C1380 C1381 1.373 . S
C1380 C1382 1.389 . S
C1381 H1360 0.950 1_455 S
C1381 C1380 1.373 . S
C1381 C1397 1.377 . S
C1382 C1380 1.389 . S
C1382 C1383 1.524 . S
C1382 C1396 1.377 . S
C1383 C1382 1.524 . S
C1383 C1384 1.397 . S
C1383 C1388 1.363 . S
C1384 H1361 0.907 1_455 S
C1384 C1383 1.397 . S
C1384 C1385 1.334 . S
C1385 H1362 0.950 1_455 S
C1385 C1384 1.334 . S
C1385 C1386 1.287 . S
C1386 C1385 1.287 . S
C1386 C1387 1.524 . S
C1386 H1405 0.913 . S
C1387 H1363 0.950 . S
C1387 C1386 1.524 . S
C1387 C1388 1.415 . S
C1388 H1364 0.950 . S
C1388 C1383 1.363 . S
C1388 C1387 1.415 . S
C1389 H1365 0.951 . S
C1389 C1390 1.366 . S
C1389 C1391 1.388 . S
C1390 C1389 1.366 . S
C1390 C1394 1.385 . S
C1391 H1366 0.951 . S
C1391 C1389 1.388 . S
C1391 C1392 1.366 . S
C1392 C1391 1.366 . S
C1392 C1393 1.414 . S
C1392 C1395 1.499 . S
C1393 H1367 0.950 . S
C1393 C1392 1.414 . S
C1393 C1394 1.374 . S
C1394 H1368 0.950 . S
C1394 C1390 1.385 . S
C1394 C1393 1.374 . S
C1395 C1392 1.499 . S
C1395 C1396 1.373 . S
C1395 C1397 1.389 . S
C1396 H1369 0.950 . S
C1396 C1382 1.377 . S
C1396 C1395 1.373 . S
C1397 C1381 1.377 . S
C1397 C1395 1.389 . S
C1397 C1398 1.524 . S
C1398 C1397 1.524 . S
C1398 C1399 1.397 . S
C1398 C1403 1.363 . S
C1399 H1370 0.950 . S
C1399 C1398 1.397 . S
C1399 C1400 1.334 . S
C1400 H1371 0.950 . S
C1400 C1399 1.334 . S
C1400 C1401 1.287 . S
C1401 C1400 1.287 . S
C1401 C1402 1.524 . S
C1401 H1404 0.999 . S
C1402 H1372 0.950 . S
C1402 C1401 1.524 . S
C1402 C1403 1.415 . S
C1403 H1373 0.950 . S
C1403 C1398 1.363 . S
C1403 C1402 1.415 . S
H1404 C1401 0.999 . S
H1405 C1386 0.913 . S
H1406 C1424 0.951 . S
H1407 C1426 0.951 . S
H1408 C1428 0.950 . S
H1409 C1429 0.950 . S
H1410 C1431 0.950 . S
H1411 C1434 0.950 . S
H1412 C1435 0.950 . S
H1413 C1437 0.950 . S
H1414 C1438 0.950 . S
H1415 C1439 0.951 . S
H1416 C1441 0.951 . S
H1417 C1443 0.950 . S
H1418 C1444 0.950 . S
H1419 C1446 0.950 . S
H1420 C1449 0.950 . S
H1421 C1450 0.950 . S
H1422 C1452 0.950 . S
H1423 C1453 0.950 . S
C1424 H1406 0.951 . S
C1424 C1425 1.366 . S
C1424 C1426 1.388 . S
C1425 C1424 1.366 . S
C1425 C1429 1.385 . S
C1426 H1407 0.951 . S
C1426 C1424 1.388 . S
C1426 C1427 1.366 . S
C1427 C1426 1.366 . S
C1427 C1428 1.414 . S
C1427 C1430 1.499 . S
C1428 H1408 0.950 . S
C1428 C1427 1.414 . S
C1428 C1429 1.374 . S
C1429 H1409 0.950 . S
C1429 C1425 1.385 . S
C1429 C1428 1.374 . S
C1430 C1427 1.499 . S
C1430 C1431 1.373 . S
C1430 C1432 1.389 . S
C1431 H1410 0.950 . S
C1431 C1430 1.373 . S
C1431 C1447 1.377 . S
C1432 C1430 1.389 . S
C1432 C1433 1.524 . S
C1432 C1446 1.377 . S
C1433 C1432 1.524 . S
C1433 C1434 1.397 . S
C1433 C1438 1.363 . S
C1434 H1411 0.950 . S
C1434 C1433 1.397 . S
C1434 C1435 1.334 . S
C1435 H1412 0.950 . S
C1435 C1434 1.334 . S
C1435 C1436 1.287 . S
C1436 C1435 1.287 . S
C1436 C1437 1.524 . S
C1436 H1455 0.913 . S
C1437 H1413 0.950 . S
C1437 C1436 1.524 . S
C1437 C1438 1.415 . S
C1438 H1414 0.950 . S
C1438 C1433 1.363 . S
C1438 C1437 1.415 . S
C1439 H1415 0.951 . S
C1439 C1440 1.366 . S
C1439 C1441 1.388 . S
C1440 C1439 1.366 . S
C1440 C1444 1.385 . S
C1441 H1416 0.951 . S
C1441 C1439 1.388 . S
C1441 C1442 1.366 . S
C1442 C1441 1.366 . S
C1442 C1443 1.414 . S
C1442 C1445 1.499 . S
C1443 H1417 0.950 . S
C1443 C1442 1.414 . S
C1443 C1444 1.374 . S
C1444 H1418 0.950 . S
C1444 C1440 1.385 . S
C1444 C1443 1.374 . S
C1445 C1442 1.499 . S
C1445 C1446 1.373 . S
C1445 C1447 1.389 . S
C1446 H1419 0.950 . S
C1446 C1432 1.377 . S
C1446 C1445 1.373 . S
C1447 C1431 1.377 . S
C1447 C1445 1.389 . S
C1447 C1448 1.524 . S
C1448 C1447 1.524 . S
C1448 C1449 1.397 . S
C1448 C1453 1.363 . S
C1449 H1420 0.950 . S
C1449 C1448 1.397 . S
C1449 C1450 1.334 . S
C1450 H1421 0.950 . S
C1450 C1449 1.334 . S
C1450 C1451 1.287 . S
C1451 C1450 1.287 . S
C1451 C1452 1.524 . S
C1451 H1454 0.999 . S
C1452 H1422 0.950 . S
C1452 C1451 1.524 . S
C1452 C1453 1.415 . S
C1453 H1423 0.950 . S
C1453 C1448 1.363 . S
C1453 C1452 1.415 . S
H1454 C1451 0.999 . S
H1455 C1436 0.913 . S
H1456 C1474 0.951 . S
H1457 C1476 0.951 . S
H1458 C1478 0.950 . S
H1459 C1479 0.950 . S
H1460 C1481 0.950 1_545 S
H1461 C1484 0.950 . S
H1462 C1485 0.950 . S
H1463 C1487 0.950 . S
H1464 C1488 0.950 . S
H1465 C1489 0.951 . S
H1466 C1491 0.951 . S
H1467 C1493 0.950 . S
H1468 C1494 0.950 . S
H1469 C1496 0.950 . S
H1470 C1499 0.950 . S
H1471 C1500 0.950 . S
H1472 C1502 0.950 . S
H1473 C1503 0.950 . S
C1474 H1456 0.951 . S
C1474 C1475 1.366 . S
C1474 C1476 1.388 . S
C1475 C1474 1.366 . S
C1475 C1479 1.385 . S
C1476 H1457 0.951 . S
C1476 C1474 1.388 . S
C1476 C1477 1.366 . S
C1477 C1476 1.366 . S
C1477 C1478 1.414 . S
C1477 C1480 1.499 . S
C1478 H1458 0.950 . S
C1478 C1477 1.414 . S
C1478 C1479 1.374 . S
C1479 H1459 0.950 . S
C1479 C1475 1.385 . S
C1479 C1478 1.374 . S
C1480 C1477 1.499 . S
C1480 C1481 1.373 1_545 S
C1480 C1482 1.389 1_545 S
C1481 H1460 0.950 1_565 S
C1481 C1480 1.373 1_565 S
C1481 C1497 1.377 . S
C1482 C1480 1.389 1_565 S
C1482 C1483 1.524 . S
C1482 C1496 1.377 . S
C1483 C1482 1.524 . S
C1483 C1484 1.397 1_565 S
C1483 C1488 1.363 . S
C1484 H1461 0.950 . S
C1484 C1483 1.397 1_545 S
C1484 C1485 1.334 . S
C1485 H1462 0.950 . S
C1485 C1484 1.334 . S
C1485 C1486 1.287 . S
C1486 C1485 1.287 . S
C1486 C1487 1.524 1_545 S
C1486 H1505 0.913 . S
C1487 H1463 0.950 . S
C1487 C1486 1.524 1_565 S
C1487 C1488 1.415 . S
C1488 H1464 0.950 . S
C1488 C1483 1.363 . S
C1488 C1487 1.415 . S
C1489 H1465 0.951 . S
C1489 C1490 1.366 . S
C1489 C1491 1.388 . S
C1490 C1489 1.366 . S
C1490 C1494 1.385 . S
C1491 H1466 0.951 . S
C1491 C1489 1.388 . S
C1491 C1492 1.366 . S
C1492 C1491 1.366 . S
C1492 C1493 1.414 . S
C1492 C1495 1.499 . S
C1493 H1467 0.950 . S
C1493 C1492 1.414 . S
C1493 C1494 1.374 . S
C1494 H1468 0.950 . S
C1494 C1490 1.385 . S
C1494 C1493 1.374 . S
C1495 C1492 1.499 . S
C1495 C1496 1.373 . S
C1495 C1497 1.389 . S
C1496 H1469 0.950 . S
C1496 C1482 1.377 . S
C1496 C1495 1.373 . S
C1497 C1481 1.377 . S
C1497 C1495 1.389 . S
C1497 C1498 1.524 . S
C1498 C1497 1.524 . S
C1498 C1499 1.397 . S
C1498 C1503 1.363 . S
C1499 H1470 0.950 . S
C1499 C1498 1.397 . S
C1499 C1500 1.334 . S
C1500 H1471 0.950 . S
C1500 C1499 1.334 . S
C1500 C1501 1.287 . S
C1501 C1500 1.287 . S
C1501 C1502 1.524 . S
C1501 H1504 0.999 . S
C1502 H1472 0.950 . S
C1502 C1501 1.524 . S
C1502 C1503 1.415 . S
C1503 H1473 0.950 . S
C1503 C1498 1.363 . S
C1503 C1502 1.415 . S
H1504 C1501 0.999 . S
H1505 C1486 0.913 . S
H1506 C1524 0.951 . S
H1507 C1526 0.951 . S
H1508 C1528 0.950 . S
H1509 C1529 0.950 . S
H1510 C1531 0.950 . S
H1511 C1534 0.950 . S
H1512 C1535 0.950 . S
H1513 C1537 0.950 . S
H1514 C1538 0.950 . S
H1515 C1539 0.951 . S
H1516 C1541 0.951 . S
H1517 C1543 0.950 . S
H1518 C1544 0.950 . S
H1519 C1546 0.950 . S
H1520 C1549 0.950 . S
H1521 C1550 0.950 . S
H1522 C1552 0.950 . S
H1523 C1553 0.950 . S
C1524 H1506 0.951 . S
C1524 C1525 1.366 . S
C1524 C1526 1.388 . S
C1525 C1524 1.366 . S
C1525 C1529 1.385 . S
C1526 H1507 0.951 . S
C1526 C1524 1.388 . S
C1526 C1527 1.366 . S
C1527 C1526 1.366 . S
C1527 C1528 1.414 . S
C1527 C1530 1.499 . S
C1528 H1508 0.950 . S
C1528 C1527 1.414 . S
C1528 C1529 1.374 . S
C1529 H1509 0.950 . S
C1529 C1525 1.385 . S
C1529 C1528 1.374 . S
C1530 C1527 1.499 . S
C1530 C1531 1.373 . S
C1530 C1532 1.389 . S
C1531 H1510 0.950 . S
C1531 C1530 1.373 . S
C1531 C1547 1.377 . S
C1532 C1530 1.389 . S
C1532 C1533 1.524 . S
C1532 C1546 1.377 . S
C1533 C1532 1.524 . S
C1533 C1534 1.397 . S
C1533 C1538 1.363 . S
C1534 H1511 0.950 . S
C1534 C1533 1.397 . S
C1534 C1535 1.334 . S
C1535 H1512 0.950 . S
C1535 C1534 1.334 . S
C1535 C1536 1.287 . S
C1536 C1535 1.287 . S
C1536 C1537 1.524 . S
C1536 H1555 0.913 . S
C1537 H1513 0.950 . S
C1537 C1536 1.524 . S
C1537 C1538 1.415 . S
C1538 H1514 0.950 . S
C1538 C1533 1.363 . S
C1538 C1537 1.415 . S
C1539 H1515 0.951 . S
C1539 C1540 1.366 . S
C1539 C1541 1.388 . S
C1540 C1539 1.366 . S
C1540 C1544 1.385 . S
C1541 H1516 0.951 . S
C1541 C1539 1.388 . S
C1541 C1542 1.366 . S
C1542 C1541 1.366 . S
C1542 C1543 1.414 . S
C1542 C1545 1.499 . S
C1543 H1517 0.950 . S
C1543 C1542 1.414 . S
C1543 C1544 1.374 . S
C1544 H1518 0.950 . S
C1544 C1540 1.385 . S
C1544 C1543 1.374 . S
C1545 C1542 1.499 . S
C1545 C1546 1.373 . S
C1545 C1547 1.389 . S
C1546 H1519 0.950 . S
C1546 C1532 1.377 . S
C1546 C1545 1.373 . S
C1547 C1531 1.377 . S
C1547 C1545 1.389 . S
C1547 C1548 1.524 . S
C1548 C1547 1.524 . S
C1548 C1549 1.397 . S
C1548 C1553 1.363 . S
C1549 H1520 0.950 . S
C1549 C1548 1.397 . S
C1549 C1550 1.334 . S
C1550 H1521 0.950 . S
C1550 C1549 1.334 . S
C1550 C1551 1.287 . S
C1551 C1550 1.287 . S
C1551 C1552 1.524 . S
C1551 H1554 0.999 . S
C1552 H1522 0.950 . S
C1552 C1551 1.524 . S
C1552 C1553 1.415 . S
C1553 H1523 0.950 . S
C1553 C1548 1.363 . S
C1553 C1552 1.415 . S
H1554 C1551 0.999 . S
H1555 C1536 0.913 . S
H1556 C1574 0.951 . S
H1557 C1576 0.951 . S
H1558 C1578 0.950 . S
H1559 C1579 0.950 . S
H1560 C1581 0.950 . S
H1561 C1584 0.950 . S
H1562 C1585 0.950 . S
H1563 C1587 0.950 . S
H1564 C1588 0.950 . S
H1565 C1589 0.951 . S
H1566 C1591 0.951 . S
H1567 C1593 0.950 . S
H1568 C1594 0.950 . S
H1569 C1596 0.950 . S
H1570 C1599 0.950 . S
H1571 C1600 0.950 . S
H1572 C1602 0.950 . S
H1573 C1603 0.950 . S
C1574 H1556 0.951 . S
C1574 C1575 1.366 . S
C1574 C1576 1.388 . S
C1575 C1574 1.366 . S
C1575 C1579 1.385 . S
C1576 H1557 0.951 . S
C1576 C1574 1.388 . S
C1576 C1577 1.366 . S
C1577 C1576 1.366 . S
C1577 C1578 1.414 . S
C1577 C1580 1.499 . S
C1578 H1558 0.950 . S
C1578 C1577 1.414 . S
C1578 C1579 1.374 . S
C1579 H1559 0.950 . S
C1579 C1575 1.385 . S
C1579 C1578 1.374 . S
C1580 C1577 1.499 . S
C1580 C1581 1.373 . S
C1580 C1582 1.389 . S
C1581 H1560 0.950 . S
C1581 C1580 1.373 . S
C1581 C1597 1.377 . S
C1582 C1580 1.389 . S
C1582 C1583 1.524 . S
C1582 C1596 1.377 . S
C1583 C1582 1.524 . S
C1583 C1584 1.397 . S
C1583 C1588 1.363 . S
C1584 H1561 0.950 . S
C1584 C1583 1.397 . S
C1584 C1585 1.334 . S
C1585 H1562 0.950 . S
C1585 C1584 1.334 . S
C1585 C1586 1.287 . S
C1586 C1585 1.287 . S
C1586 C1587 1.524 . S
C1586 H1605 0.913 . S
C1587 H1563 0.950 . S
C1587 C1586 1.524 . S
C1587 C1588 1.415 . S
C1588 H1564 0.950 . S
C1588 C1583 1.363 . S
C1588 C1587 1.415 . S
C1589 H1565 0.951 . S
C1589 C1590 1.366 . S
C1589 C1591 1.388 . S
C1590 C1589 1.366 . S
C1590 C1594 1.385 . S
C1591 H1566 0.951 . S
C1591 C1589 1.388 . S
C1591 C1592 1.366 . S
C1592 C1591 1.366 . S
C1592 C1593 1.414 . S
C1592 C1595 1.499 . S
C1593 H1567 0.950 . S
C1593 C1592 1.414 . S
C1593 C1594 1.374 . S
C1594 H1568 0.950 . S
C1594 C1590 1.385 . S
C1594 C1593 1.374 . S
C1595 C1592 1.499 . S
C1595 C1596 1.373 . S
C1595 C1597 1.389 . S
C1596 H1569 0.950 . S
C1596 C1582 1.377 . S
C1596 C1595 1.373 . S
C1597 C1581 1.377 . S
C1597 C1595 1.389 . S
C1597 C1598 1.524 . S
C1598 C1597 1.524 . S
C1598 C1599 1.397 . S
C1598 C1603 1.363 . S
C1599 H1570 0.950 . S
C1599 C1598 1.397 . S
C1599 C1600 1.334 . S
C1600 H1571 0.950 . S
C1600 C1599 1.334 . S
C1600 C1601 1.287 . S
C1601 C1600 1.287 . S
C1601 C1602 1.524 . S
C1601 H1604 0.999 . S
C1602 H1572 0.950 . S
C1602 C1601 1.524 . S
C1602 C1603 1.415 . S
C1603 H1573 0.950 . S
C1603 C1598 1.363 . S
C1603 C1602 1.415 . S
H1604 C1601 0.999 . S
H1605 C1586 0.913 . S
H1606 C1624 0.951 . S
H1607 C1626 0.951 . S
H1608 C1628 0.950 . S
H1609 C1629 0.950 . S
H1610 C1631 0.950 . S
H1611 C1634 0.950 . S
H1612 C1635 0.950 . S
H1613 C1637 0.950 . S
H1614 C1638 0.950 . S
H1615 C1639 0.951 . S
H1616 C1641 0.951 . S
H1617 C1643 0.950 . S
H1618 C1644 0.950 . S
H1619 C1646 0.950 . S
H1620 C1649 0.950 . S
H1621 C1650 0.950 . S
H1622 C1652 0.950 . S
H1623 C1653 0.950 . S
C1624 H1606 0.951 . S
C1624 C1625 1.366 . S
C1624 C1626 1.388 . S
C1625 C1624 1.366 . S
C1625 C1629 1.385 . S
C1626 H1607 0.951 . S
C1626 C1624 1.388 . S
C1626 C1627 1.366 . S
C1627 C1626 1.366 . S
C1627 C1628 1.414 . S
C1627 C1630 1.499 . S
C1628 H1608 0.950 . S
C1628 C1627 1.414 . S
C1628 C1629 1.374 . S
C1629 H1609 0.950 . S
C1629 C1625 1.385 . S
C1629 C1628 1.374 . S
C1630 C1627 1.499 . S
C1630 C1631 1.373 . S
C1630 C1632 1.389 . S
C1631 H1610 0.950 . S
C1631 C1630 1.373 . S
C1631 C1647 1.377 . S
C1632 C1630 1.389 . S
C1632 C1633 1.524 . S
C1632 C1646 1.377 . S
C1633 C1632 1.524 . S
C1633 C1634 1.397 . S
C1633 C1638 1.363 . S
C1634 H1611 0.950 . S
C1634 C1633 1.397 . S
C1634 C1635 1.334 . S
C1635 H1612 0.950 . S
C1635 C1634 1.334 . S
C1635 C1636 1.287 . S
C1636 C1635 1.287 . S
C1636 C1637 1.524 . S
C1636 H1655 0.913 . S
C1637 H1613 0.950 . S
C1637 C1636 1.524 . S
C1637 C1638 1.415 . S
C1638 H1614 0.950 . S
C1638 C1633 1.363 . S
C1638 C1637 1.415 . S
C1639 H1615 0.951 . S
C1639 C1640 1.366 . S
C1639 C1641 1.388 . S
C1640 C1639 1.366 . S
C1640 C1644 1.385 . S
C1641 H1616 0.951 . S
C1641 C1639 1.388 . S
C1641 C1642 1.366 . S
C1642 C1641 1.366 . S
C1642 C1643 1.414 . S
C1642 C1645 1.499 . S
C1643 H1617 0.950 . S
C1643 C1642 1.414 . S
C1643 C1644 1.374 . S
C1644 H1618 0.950 . S
C1644 C1640 1.385 . S
C1644 C1643 1.374 . S
C1645 C1642 1.499 . S
C1645 C1646 1.373 . S
C1645 C1647 1.389 . S
C1646 H1619 0.950 . S
C1646 C1632 1.377 . S
C1646 C1645 1.373 . S
C1647 C1631 1.377 . S
C1647 C1645 1.389 . S
C1647 C1648 1.524 . S
C1648 C1647 1.524 . S
C1648 C1649 1.397 . S
C1648 C1653 1.363 . S
C1649 H1620 0.950 . S
C1649 C1648 1.397 . S
C1649 C1650 1.334 . S
C1650 H1621 0.950 . S
C1650 C1649 1.334 . S
C1650 C1651 1.287 . S
C1651 C1650 1.287 . S
C1651 C1652 1.524 . S
C1651 H1654 0.999 . S
C1652 H1622 0.950 . S
C1652 C1651 1.524 . S
C1652 C1653 1.415 . S
C1653 H1623 0.950 . S
C1653 C1648 1.363 . S
C1653 C1652 1.415 . S
H1654 C1651 0.999 . S
H1655 C1636 0.913 . S
H1656 C1674 0.951 . S
H1657 C1676 0.951 . S
H1658 C1678 0.950 . S
H1659 C1679 0.950 . S
H1660 C1681 0.950 . S
H1661 C1684 0.950 . S
H1662 C1685 0.950 . S
H1663 C1687 0.950 . S
H1664 C1688 0.950 . S
H1665 C1689 0.951 . S
H1666 C1691 0.951 . S
H1667 C1693 0.950 . S
H1668 C1694 0.950 . S
H1669 C1696 0.950 . S
H1670 C1699 0.950 . S
H1671 C1700 0.950 . S
H1672 C1702 0.950 . S
H1673 C1703 0.950 . S
C1674 H1656 0.951 . S
C1674 C1675 1.366 . S
C1674 C1676 1.388 . S
C1675 C1674 1.366 . S
C1675 C1679 1.385 . S
C1676 H1657 0.951 . S
C1676 C1674 1.388 . S
C1676 C1677 1.366 . S
C1677 C1676 1.366 . S
C1677 C1678 1.414 . S
C1677 C1680 1.499 . S
C1678 H1658 0.950 . S
C1678 C1677 1.414 . S
C1678 C1679 1.374 . S
C1679 H1659 0.950 . S
C1679 C1675 1.385 . S
C1679 C1678 1.374 . S
C1680 C1677 1.499 . S
C1680 C1681 1.373 . S
C1680 C1682 1.389 . S
C1681 H1660 0.950 . S
C1681 C1680 1.373 . S
C1681 C1697 1.377 . S
C1682 C1680 1.389 . S
C1682 C1683 1.524 . S
C1682 C1696 1.377 . S
C1683 C1682 1.524 . S
C1683 C1684 1.397 . S
C1683 C1688 1.363 . S
C1684 H1661 0.950 . S
C1684 C1683 1.397 . S
C1684 C1685 1.334 . S
C1685 H1662 0.950 . S
C1685 C1684 1.334 . S
C1685 C1686 1.287 . S
C1686 C1685 1.287 . S
C1686 C1687 1.524 . S
C1686 H1705 0.913 . S
C1687 H1663 0.950 . S
C1687 C1686 1.524 . S
C1687 C1688 1.415 . S
C1688 H1664 0.950 . S
C1688 C1683 1.363 . S
C1688 C1687 1.415 . S
C1689 H1665 0.951 . S
C1689 C1690 1.366 . S
C1689 C1691 1.388 . S
C1690 C1689 1.366 . S
C1690 C1694 1.385 . S
C1691 H1666 0.951 . S
C1691 C1689 1.388 . S
C1691 C1692 1.366 . S
C1692 C1691 1.366 . S
C1692 C1693 1.414 . S
C1692 C1695 1.499 . S
C1693 H1667 0.950 . S
C1693 C1692 1.414 . S
C1693 C1694 1.374 . S
C1694 H1668 0.950 . S
C1694 C1690 1.385 . S
C1694 C1693 1.374 . S
C1695 C1692 1.499 . S
C1695 C1696 1.373 . S
C1695 C1697 1.389 . S
C1696 H1669 0.950 . S
C1696 C1682 1.377 . S
C1696 C1695 1.373 . S
C1697 C1681 1.377 . S
C1697 C1695 1.389 . S
C1697 C1698 1.524 . S
C1698 C1697 1.524 . S
C1698 C1699 1.397 . S
C1698 C1703 1.363 . S
C1699 H1670 0.950 . S
C1699 C1698 1.397 . S
C1699 C1700 1.334 . S
C1700 H1671 0.950 . S
C1700 C1699 1.334 . S
C1700 C1701 1.287 . S
C1701 C1700 1.287 . S
C1701 C1702 1.524 . S
C1701 H1704 0.999 . S
C1702 H1672 0.950 . S
C1702 C1701 1.524 . S
C1702 C1703 1.415 . S
C1703 H1673 0.950 . S
C1703 C1698 1.363 . S
C1703 C1702 1.415 . S
H1704 C1701 0.999 . S
H1705 C1686 0.913 . S
H1706 C1724 0.951 . S
H1707 C1726 0.951 . S
H1708 C1728 0.950 . S
H1709 C1729 0.950 . S
H1710 C1731 0.950 . S
H1711 C1734 0.950 . S
H1712 C1735 0.950 . S
H1713 C1737 0.950 . S
H1714 C1738 0.950 . S
H1715 C1739 0.951 . S
H1716 C1741 0.951 . S
H1717 C1743 0.950 . S
H1718 C1744 0.950 . S
H1719 C1746 0.950 . S
H1720 C1749 0.950 . S
H1721 C1750 0.950 . S
H1722 C1752 0.950 . S
H1723 C1753 0.950 . S
C1724 H1706 0.951 . S
C1724 C1725 1.366 . S
C1724 C1726 1.388 . S
C1725 C1724 1.366 . S
C1725 C1729 1.385 . S
C1726 H1707 0.951 . S
C1726 C1724 1.388 . S
C1726 C1727 1.366 . S
C1727 C1726 1.366 . S
C1727 C1728 1.414 . S
C1727 C1730 1.499 . S
C1728 H1708 0.950 . S
C1728 C1727 1.414 . S
C1728 C1729 1.374 . S
C1729 H1709 0.950 . S
C1729 C1725 1.385 . S
C1729 C1728 1.374 . S
C1730 C1727 1.499 . S
C1730 C1731 1.373 . S
C1730 C1732 1.389 . S
C1731 H1710 0.950 . S
C1731 C1730 1.373 . S
C1731 C1747 1.377 . S
C1732 C1730 1.389 . S
C1732 C1733 1.524 . S
C1732 C1746 1.377 . S
C1733 C1732 1.524 . S
C1733 C1734 1.397 . S
C1733 C1738 1.363 . S
C1734 H1711 0.950 . S
C1734 C1733 1.397 . S
C1734 C1735 1.334 . S
C1735 H1712 0.950 . S
C1735 C1734 1.334 . S
C1735 C1736 1.287 . S
C1736 C1735 1.287 . S
C1736 C1737 1.524 . S
C1736 H1755 0.913 . S
C1737 H1713 0.950 . S
C1737 C1736 1.524 . S
C1737 C1738 1.415 . S
C1738 H1714 0.950 . S
C1738 C1733 1.363 . S
C1738 C1737 1.415 . S
C1739 H1715 0.951 . S
C1739 C1740 1.366 . S
C1739 C1741 1.388 . S
C1740 C1739 1.366 . S
C1740 C1744 1.385 . S
C1741 H1716 0.951 . S
C1741 C1739 1.388 . S
C1741 C1742 1.366 . S
C1742 C1741 1.366 . S
C1742 C1743 1.414 . S
C1742 C1745 1.499 . S
C1743 H1717 0.950 . S
C1743 C1742 1.414 . S
C1743 C1744 1.374 . S
C1744 H1718 0.950 . S
C1744 C1740 1.385 . S
C1744 C1743 1.374 . S
C1745 C1742 1.499 . S
C1745 C1746 1.373 . S
C1745 C1747 1.389 . S
C1746 H1719 0.950 . S
C1746 C1732 1.377 . S
C1746 C1745 1.373 . S
C1747 C1731 1.377 . S
C1747 C1745 1.389 . S
C1747 C1748 1.524 . S
C1748 C1747 1.524 . S
C1748 C1749 1.397 . S
C1748 C1753 1.363 . S
C1749 H1720 0.950 . S
C1749 C1748 1.397 . S
C1749 C1750 1.334 . S
C1750 H1721 0.950 . S
C1750 C1749 1.334 . S
C1750 C1751 1.287 . S
C1751 C1750 1.287 . S
C1751 C1752 1.524 . S
C1751 H1754 0.999 . S
C1752 H1722 0.950 . S
C1752 C1751 1.524 . S
C1752 C1753 1.415 . S
C1753 H1723 0.950 . S
C1753 C1748 1.363 . S
C1753 C1752 1.415 . S
H1754 C1751 0.999 . S
H1755 C1736 0.913 . S
H1756 C1774 0.951 . S
H1757 C1776 0.951 . S
H1758 C1778 0.950 . S
H1759 C1779 0.950 . S
H1760 C1781 0.950 . S
H1761 C1784 0.950 . S
H1762 C1785 0.950 . S
H1763 C1787 0.950 . S
H1764 C1788 0.950 . S
H1765 C1789 0.951 . S
H1766 C1791 0.951 . S
H1767 C1793 0.950 . S
H1768 C1794 0.950 . S
H1769 C1796 0.950 . S
H1770 C1799 0.950 . S
H1771 C1800 0.950 . S
H1772 C1802 0.950 . S
H1773 C1803 0.950 . S
C1774 H1756 0.951 . S
C1774 C1775 1.366 . S
C1774 C1776 1.388 . S
C1775 C1774 1.366 . S
C1775 C1779 1.385 . S
C1776 H1757 0.951 . S
C1776 C1774 1.388 . S
C1776 C1777 1.366 . S
C1777 C1776 1.366 . S
C1777 C1778 1.414 . S
C1777 C1780 1.499 . S
C1778 H1758 0.950 . S
C1778 C1777 1.414 . S
C1778 C1779 1.374 . S
C1779 H1759 0.950 . S
C1779 C1775 1.385 . S
C1779 C1778 1.374 . S
C1780 C1777 1.499 . S
C1780 C1781 1.373 . S
C1780 C1782 1.389 . S
C1781 H1760 0.950 . S
C1781 C1780 1.373 . S
C1781 C1797 1.377 . S
C1782 C1780 1.389 . S
C1782 C1783 1.524 . S
C1782 C1796 1.377 . S
C1783 C1782 1.524 . S
C1783 C1784 1.397 . S
C1783 C1788 1.363 . S
C1784 H1761 0.950 . S
C1784 C1783 1.397 . S
C1784 C1785 1.334 . S
C1785 H1762 0.950 . S
C1785 C1784 1.334 . S
C1785 C1786 1.287 . S
C1786 C1785 1.287 . S
C1786 C1787 1.524 . S
C1786 H1805 0.913 . S
C1787 H1763 0.950 . S
C1787 C1786 1.524 . S
C1787 C1788 1.415 . S
C1788 H1764 0.950 . S
C1788 C1783 1.363 . S
C1788 C1787 1.415 . S
C1789 H1765 0.951 . S
C1789 C1790 1.366 . S
C1789 C1791 1.388 . S
C1790 C1789 1.366 . S
C1790 C1794 1.385 . S
C1791 H1766 0.951 . S
C1791 C1789 1.388 . S
C1791 C1792 1.366 . S
C1792 C1791 1.366 . S
C1792 C1793 1.414 . S
C1792 C1795 1.499 . S
C1793 H1767 0.950 . S
C1793 C1792 1.414 . S
C1793 C1794 1.374 . S
C1794 H1768 0.950 . S
C1794 C1790 1.385 . S
C1794 C1793 1.374 . S
C1795 C1792 1.499 . S
C1795 C1796 1.373 . S
C1795 C1797 1.389 . S
C1796 H1769 0.950 . S
C1796 C1782 1.377 . S
C1796 C1795 1.373 . S
C1797 C1781 1.377 . S
C1797 C1795 1.389 . S
C1797 C1798 1.524 . S
C1798 C1797 1.524 . S
C1798 C1799 1.397 . S
C1798 C1803 1.363 . S
C1799 H1770 0.950 . S
C1799 C1798 1.397 . S
C1799 C1800 1.334 . S
C1800 H1771 0.950 . S
C1800 C1799 1.334 . S
C1800 C1801 1.287 . S
C1801 C1800 1.287 . S
C1801 C1802 1.524 . S
C1801 H1804 0.999 . S
C1802 H1772 0.950 . S
C1802 C1801 1.524 . S
C1802 C1803 1.415 . S
C1803 H1773 0.950 . S
C1803 C1798 1.363 . S
C1803 C1802 1.415 . S
H1804 C1801 0.999 . S
H1805 C1786 0.913 . S
H1806 C1824 0.951 . S
H1807 C1826 0.951 . S
H1808 C1828 0.950 . S
H1809 C1829 0.950 . S
H1810 C1831 0.950 . S
H1811 C1834 0.950 . S
H1812 C1835 0.950 . S
H1813 C1837 0.950 . S
H1814 C1838 0.950 1_565 S
H1815 C1839 0.951 . S
H1816 C1841 0.951 . S
H1817 C1843 0.950 . S
H1818 C1844 0.950 . S
H1819 C1846 0.950 . S
H1820 C1849 0.950 . S
H1821 C1850 0.950 . S
H1822 C1852 0.950 . S
H1823 C1853 0.950 . S
C1824 H1806 0.951 . S
C1824 C1825 1.366 . S
C1824 C1826 1.388 . S
C1825 C1824 1.366 . S
C1825 C1829 1.385 . S
C1826 H1807 0.951 . S
C1826 C1824 1.388 . S
C1826 C1827 1.366 . S
C1827 C1826 1.366 . S
C1827 C1828 1.414 . S
C1827 C1830 1.499 1_545 S
C1828 H1808 0.950 . S
C1828 C1827 1.414 . S
C1828 C1829 1.374 . S
C1829 H1809 0.950 . S
C1829 C1825 1.385 . S
C1829 C1828 1.374 . S
C1830 C1827 1.499 1_565 S
C1830 C1831 1.373 . S
C1830 C1832 1.389 . S
C1831 H1810 0.950 . S
C1831 C1830 1.373 . S
C1831 C1847 1.377 . S
C1832 C1830 1.389 . S
C1832 C1833 1.524 1_565 S
C1832 C1846 1.377 . S
C1833 C1832 1.524 1_545 S
C1833 C1834 1.397 . S
C1833 C1838 1.363 . S
C1834 H1811 0.950 . S
C1834 C1833 1.397 . S
C1834 C1835 1.334 . S
C1835 H1812 0.950 . S
C1835 C1834 1.334 . S
C1835 C1836 1.287 . S
C1836 C1835 1.287 . S
C1836 C1837 1.524 . S
C1836 H1855 0.913 . S
C1837 H1813 0.950 . S
C1837 C1836 1.524 . S
C1837 C1838 1.415 . S
C1838 H1814 0.950 1_545 S
C1838 C1833 1.363 . S
C1838 C1837 1.415 . S
C1839 H1815 0.951 . S
C1839 C1840 1.366 . S
C1839 C1841 1.388 . S
C1840 C1839 1.366 . S
C1840 C1844 1.385 . S
C1841 H1816 0.951 . S
C1841 C1839 1.388 . S
C1841 C1842 1.366 . S
C1842 C1841 1.366 . S
C1842 C1843 1.414 . S
C1842 C1845 1.499 . S
C1843 H1817 0.950 . S
C1843 C1842 1.414 . S
C1843 C1844 1.374 . S
C1844 H1818 0.950 . S
C1844 C1840 1.385 . S
C1844 C1843 1.374 . S
C1845 C1842 1.499 . S
C1845 C1846 1.373 . S
C1845 C1847 1.389 . S
C1846 H1819 0.950 . S
C1846 C1832 1.377 . S
C1846 C1845 1.373 . S
C1847 C1831 1.377 . S
C1847 C1845 1.389 . S
C1847 C1848 1.524 . S
C1848 C1847 1.524 . S
C1848 C1849 1.397 . S
C1848 C1853 1.363 . S
C1849 H1820 0.950 . S
C1849 C1848 1.397 . S
C1849 C1850 1.334 . S
C1850 H1821 0.950 . S
C1850 C1849 1.334 . S
C1850 C1851 1.287 . S
C1851 C1850 1.287 . S
C1851 C1852 1.524 . S
C1851 H1854 0.999 . S
C1852 H1822 0.950 . S
C1852 C1851 1.524 . S
C1852 C1853 1.415 . S
C1853 H1823 0.950 . S
C1853 C1848 1.363 . S
C1853 C1852 1.415 . S
H1854 C1851 0.999 . S
H1855 C1836 0.913 . S
H1856 C1874 0.951 . S
H1857 C1876 0.951 . S
H1858 C1878 0.950 . S
H1859 C1879 0.950 . S
H1860 C1881 0.977 . S
H1861 C1884 0.950 . S
H1862 C1885 0.950 . S
H1863 C1887 0.950 . S
H1864 C1888 0.950 . S
H1865 C1889 0.951 . S
H1866 C1891 0.951 . S
H1867 C1893 0.950 . S
H1868 C1894 0.950 . S
H1869 C1896 0.950 . S
H1870 C1899 0.950 . S
H1871 C1900 0.950 . S
H1872 C1902 0.950 . S
H1873 C1903 0.950 . S
C1874 H1856 0.951 . S
C1874 C1875 1.366 . S
C1874 C1876 1.388 . S
C1875 C1874 1.366 . S
C1875 C1879 1.385 . S
C1876 H1857 0.951 . S
C1876 C1874 1.388 . S
C1876 C1877 1.366 . S
C1877 C1876 1.366 . S
C1877 C1878 1.414 . S
C1877 C1880 1.499 1_655 S
C1878 H1858 0.950 . S
C1878 C1877 1.414 . S
C1878 C1879 1.374 . S
C1879 H1859 0.950 . S
C1879 C1875 1.385 . S
C1879 C1878 1.374 . S
C1880 C1877 1.499 1_455 S
C1880 C1881 1.373 . S
C1880 C1882 1.389 . S
C1881 H1860 0.977 . S
C1881 C1880 1.373 . S
C1881 C1897 1.377 . S
C1882 C1880 1.389 . S
C1882 C1883 1.524 . S
C1882 C1896 1.377 . S
C1883 C1882 1.524 . S
C1883 C1884 1.397 . S
C1883 C1888 1.363 . S
C1884 H1861 0.950 . S
C1884 C1883 1.397 . S
C1884 C1885 1.334 . S
C1885 H1862 0.950 . S
C1885 C1884 1.334 . S
C1885 C1886 1.287 . S
C1886 C1885 1.287 . S
C1886 C1887 1.524 . S
C1886 H1905 0.913 . S
C1887 H1863 0.950 . S
C1887 C1886 1.524 . S
C1887 C1888 1.415 . S
C1888 H1864 0.950 . S
C1888 C1883 1.363 . S
C1888 C1887 1.415 . S
C1889 H1865 0.951 . S
C1889 C1890 1.366 . S
C1889 C1891 1.388 . S
C1890 C1889 1.366 . S
C1890 C1894 1.385 . S
C1891 H1866 0.951 . S
C1891 C1889 1.388 . S
C1891 C1892 1.366 . S
C1892 C1891 1.366 . S
C1892 C1893 1.414 . S
C1892 C1895 1.499 . S
C1893 H1867 0.950 . S
C1893 C1892 1.414 . S
C1893 C1894 1.374 . S
C1894 H1868 0.950 . S
C1894 C1890 1.385 . S
C1894 C1893 1.374 . S
C1895 C1892 1.499 . S
C1895 C1896 1.373 . S
C1895 C1897 1.389 . S
C1896 H1869 0.950 . S
C1896 C1882 1.377 . S
C1896 C1895 1.373 . S
C1897 C1881 1.377 . S
C1897 C1895 1.389 . S
C1897 C1898 1.524 . S
C1898 C1897 1.524 . S
C1898 C1899 1.397 . S
C1898 C1903 1.363 . S
C1899 H1870 0.950 . S
C1899 C1898 1.397 . S
C1899 C1900 1.334 . S
C1900 H1871 0.950 . S
C1900 C1899 1.334 . S
C1900 C1901 1.287 . S
C1901 C1900 1.287 . S
C1901 C1902 1.524 . S
C1901 H1904 0.999 . S
C1902 H1872 0.950 . S
C1902 C1901 1.524 . S
C1902 C1903 1.415 . S
C1903 H1873 0.950 . S
C1903 C1898 1.363 . S
C1903 C1902 1.415 . S
H1904 C1901 0.999 . S
H1905 C1886 0.913 . S
H1906 C1924 0.951 . S
H1907 C1926 0.951 . S
H1908 C1928 0.950 . S
H1909 C1929 0.950 . S
H1910 C1931 0.950 . S
H1911 C1934 0.950 . S
H1912 C1935 0.950 . S
H1913 C1937 0.950 . S
H1914 C1938 0.950 . S
H1915 C1939 0.951 . S
H1916 C1941 0.951 . S
H1917 C1943 0.950 . S
H1918 C1944 0.950 . S
H1919 C1946 0.950 . S
H1920 C1949 0.950 . S
H1921 C1950 0.950 . S
H1922 C1952 0.950 . S
H1923 C1953 0.950 . S
C1924 H1906 0.951 . S
C1924 C1925 1.366 . S
C1924 C1926 1.388 . S
C1925 C1924 1.366 . S
C1925 C1929 1.385 . S
C1926 H1907 0.951 . S
C1926 C1924 1.388 . S
C1926 C1927 1.366 . S
C1927 C1926 1.366 . S
C1927 C1928 1.414 . S
C1927 C1930 1.499 . S
C1928 H1908 0.950 . S
C1928 C1927 1.414 . S
C1928 C1929 1.374 . S
C1929 H1909 0.950 . S
C1929 C1925 1.385 . S
C1929 C1928 1.374 . S
C1930 C1927 1.499 . S
C1930 C1931 1.373 . S
C1930 C1932 1.389 . S
C1931 H1910 0.950 . S
C1931 C1930 1.373 . S
C1931 C1947 1.377 . S
C1932 C1930 1.389 . S
C1932 C1933 1.524 . S
C1932 C1946 1.377 . S
C1933 C1932 1.524 . S
C1933 C1934 1.397 . S
C1933 C1938 1.363 . S
C1934 H1911 0.950 . S
C1934 C1933 1.397 . S
C1934 C1935 1.334 . S
C1935 H1912 0.950 . S
C1935 C1934 1.334 . S
C1935 C1936 1.287 . S
C1936 C1935 1.287 . S
C1936 C1937 1.524 . S
C1936 H1955 0.913 . S
C1937 H1913 0.950 . S
C1937 C1936 1.524 . S
C1937 C1938 1.415 . S
C1938 H1914 0.950 . S
C1938 C1933 1.363 . S
C1938 C1937 1.415 . S
C1939 H1915 0.951 . S
C1939 C1940 1.366 . S
C1939 C1941 1.388 . S
C1940 C1939 1.366 . S
C1940 C1944 1.385 . S
C1941 H1916 0.951 . S
C1941 C1939 1.388 . S
C1941 C1942 1.366 . S
C1942 C1941 1.366 . S
C1942 C1943 1.414 . S
C1942 C1945 1.499 . S
C1943 H1917 0.950 . S
C1943 C1942 1.414 . S
C1943 C1944 1.374 . S
C1944 H1918 0.950 . S
C1944 C1940 1.385 . S
C1944 C1943 1.374 . S
C1945 C1942 1.499 . S
C1945 C1946 1.373 . S
C1945 C1947 1.389 . S
C1946 H1919 0.950 . S
C1946 C1932 1.377 . S
C1946 C1945 1.373 . S
C1947 C1931 1.377 . S
C1947 C1945 1.389 . S
C1947 C1948 1.524 . S
C1948 C1947 1.524 . S
C1948 C1949 1.397 . S
C1948 C1953 1.363 . S
C1949 H1920 0.950 . S
C1949 C1948 1.397 . S
C1949 C1950 1.334 . S
C1950 H1921 0.950 . S
C1950 C1949 1.334 . S
C1950 C1951 1.287 . S
C1951 C1950 1.287 . S
C1951 C1952 1.524 . S
C1951 H1954 0.999 . S
C1952 H1922 0.950 . S
C1952 C1951 1.524 . S
C1952 C1953 1.415 . S
C1953 H1923 0.950 . S
C1953 C1948 1.363 . S
C1953 C1952 1.415 . S
H1954 C1951 0.999 . S
H1955 C1936 0.913 . S
H1956 C1974 0.951 . S
H1957 C1976 0.951 . S
H1958 C1978 0.950 . S
H1959 C1979 0.950 . S
H1960 C1981 0.950 . S
H1961 C1984 0.950 . S
H1962 C1985 0.950 . S
H1963 C1987 0.950 . S
H1964 C1988 0.950 . S
H1965 C1989 0.951 . S
H1966 C1991 0.951 . S
H1967 C1993 0.950 . S
H1968 C1994 0.950 . S
H1969 C1996 0.950 . S
H1970 C1999 0.950 . S
H1971 C2000 0.950 . S
H1972 C2002 0.950 . S
H1973 C2003 0.950 . S
C1974 H1956 0.951 . S
C1974 C1975 1.366 . S
C1974 C1976 1.388 . S
C1975 C1974 1.366 . S
C1975 C1979 1.385 . S
C1976 H1957 0.951 . S
C1976 C1974 1.388 . S
C1976 C1977 1.366 . S
C1977 C1976 1.366 . S
C1977 C1978 1.414 . S
C1977 C1980 1.499 . S
C1978 H1958 0.950 . S
C1978 C1977 1.414 . S
C1978 C1979 1.374 . S
C1979 H1959 0.950 . S
C1979 C1975 1.385 . S
C1979 C1978 1.374 . S
C1980 C1977 1.499 . S
C1980 C1981 1.373 . S
C1980 C1982 1.389 . S
C1981 H1960 0.950 . S
C1981 C1980 1.373 . S
C1981 C1997 1.377 . S
C1982 C1980 1.389 . S
C1982 C1983 1.524 . S
C1982 C1996 1.377 . S
C1983 C1982 1.524 . S
C1983 C1984 1.397 . S
C1983 C1988 1.363 . S
C1984 H1961 0.950 . S
C1984 C1983 1.397 . S
C1984 C1985 1.334 . S
C1985 H1962 0.950 . S
C1985 C1984 1.334 . S
C1985 C1986 1.287 . S
C1986 C1985 1.287 . S
C1986 C1987 1.524 . S
C1986 H2005 0.913 . S
C1987 H1963 0.950 . S
C1987 C1986 1.524 . S
C1987 C1988 1.415 . S
C1988 H1964 0.950 . S
C1988 C1983 1.363 . S
C1988 C1987 1.415 . S
C1989 H1965 0.951 . S
C1989 C1990 1.366 . S
C1989 C1991 1.388 . S
C1990 C1989 1.366 . S
C1990 C1994 1.385 . S
C1991 H1966 0.951 . S
C1991 C1989 1.388 . S
C1991 C1992 1.366 . S
C1992 C1991 1.366 . S
C1992 C1993 1.414 . S
C1992 C1995 1.499 . S
C1993 H1967 0.950 . S
C1993 C1992 1.414 . S
C1993 C1994 1.374 . S
C1994 H1968 0.950 . S
C1994 C1990 1.385 . S
C1994 C1993 1.374 . S
C1995 C1992 1.499 . S
C1995 C1996 1.373 . S
C1995 C1997 1.389 . S
C1996 H1969 0.950 . S
C1996 C1982 1.377 . S
C1996 C1995 1.373 . S
C1997 C1981 1.377 . S
C1997 C1995 1.389 . S
C1997 C1998 1.524 . S
C1998 C1997 1.524 . S
C1998 C1999 1.397 . S
C1998 C2003 1.363 . S
C1999 H1970 0.950 . S
C1999 C1998 1.397 . S
C1999 C2000 1.334 . S
C2000 H1971 0.950 . S
C2000 C1999 1.334 . S
C2000 C2001 1.287 . S
C2001 C2000 1.287 . S
C2001 C2002 1.524 . S
C2001 H2004 0.999 . S
C2002 H1972 0.950 . S
C2002 C2001 1.524 . S
C2002 C2003 1.415 . S
C2003 H1973 0.950 . S
C2003 C1998 1.363 . S
C2003 C2002 1.415 . S
H2004 C2001 0.999 . S
H2005 C1986 0.913 . S
H2006 C2024 0.951 . S
H2007 C2026 0.951 . S
H2008 C2028 0.950 . S
H2009 C2029 0.950 . S
H2010 C2031 0.950 . S
H2011 C2034 0.950 . S
H2012 C2035 0.950 . S
H2013 C2037 0.950 . S
H2014 C2038 0.950 . S
H2015 C2039 0.951 . S
H2016 C2041 0.951 . S
H2017 C2043 0.950 . S
H2018 C2044 0.950 . S
H2019 C2046 0.950 . S
H2020 C2049 0.950 . S
H2021 C2050 0.950 . S
H2022 C2052 0.950 . S
H2023 C2053 0.950 . S
C2024 H2006 0.951 . S
C2024 C2025 1.366 . S
C2024 C2026 1.388 . S
C2025 C2024 1.366 . S
C2025 C2029 1.385 . S
C2026 H2007 0.951 . S
C2026 C2024 1.388 . S
C2026 C2027 1.366 . S
C2027 C2026 1.366 . S
C2027 C2028 1.414 . S
C2027 C2030 1.499 . S
C2028 H2008 0.950 . S
C2028 C2027 1.414 . S
C2028 C2029 1.374 . S
C2029 H2009 0.950 . S
C2029 C2025 1.385 . S
C2029 C2028 1.374 . S
C2030 C2027 1.499 . S
C2030 C2031 1.373 . S
C2030 C2032 1.389 . S
C2031 H2010 0.950 . S
C2031 C2030 1.373 . S
C2031 C2047 1.377 . S
C2032 C2030 1.389 . S
C2032 C2033 1.524 . S
C2032 C2046 1.377 . S
C2033 C2032 1.524 . S
C2033 C2034 1.397 . S
C2033 C2038 1.363 . S
C2034 H2011 0.950 . S
C2034 C2033 1.397 . S
C2034 C2035 1.334 . S
C2035 H2012 0.950 . S
C2035 C2034 1.334 . S
C2035 C2036 1.287 . S
C2036 C2035 1.287 . S
C2036 C2037 1.524 . S
C2036 H2055 0.913 . S
C2037 H2013 0.950 . S
C2037 C2036 1.524 . S
C2037 C2038 1.415 . S
C2038 H2014 0.950 . S
C2038 C2033 1.363 . S
C2038 C2037 1.415 . S
C2039 H2015 0.951 . S
C2039 C2040 1.366 . S
C2039 C2041 1.388 . S
C2040 C2039 1.366 . S
C2040 C2044 1.385 . S
C2041 H2016 0.951 . S
C2041 C2039 1.388 . S
C2041 C2042 1.366 . S
C2042 C2041 1.366 . S
C2042 C2043 1.414 . S
C2042 C2045 1.499 . S
C2043 H2017 0.950 . S
C2043 C2042 1.414 . S
C2043 C2044 1.374 . S
C2044 H2018 0.950 . S
C2044 C2040 1.385 . S
C2044 C2043 1.374 . S
C2045 C2042 1.499 . S
C2045 C2046 1.373 . S
C2045 C2047 1.389 . S
C2046 H2019 0.950 . S
C2046 C2032 1.377 . S
C2046 C2045 1.373 . S
C2047 C2031 1.377 . S
C2047 C2045 1.389 . S
C2047 C2048 1.524 . S
C2048 C2047 1.524 . S
C2048 C2049 1.397 . S
C2048 C2053 1.363 . S
C2049 H2020 0.950 . S
C2049 C2048 1.397 . S
C2049 C2050 1.334 . S
C2050 H2021 0.950 . S
C2050 C2049 1.334 . S
C2050 C2051 1.287 . S
C2051 C2050 1.287 . S
C2051 C2052 1.524 . S
C2051 H2054 0.999 . S
C2052 H2022 0.950 . S
C2052 C2051 1.524 . S
C2052 C2053 1.415 . S
C2053 H2023 0.950 . S
C2053 C2048 1.363 . S
C2053 C2052 1.415 . S
H2054 C2051 0.999 . S
H2055 C2036 0.913 . S
H2056 C2074 0.951 . S
H2057 C2076 0.951 . S
H2058 C2078 0.950 . S
H2059 C2079 0.950 . S
H2060 C2081 0.950 . S
H2061 C2084 0.950 . S
H2062 C2085 0.950 . S
H2063 C2087 0.950 . S
H2064 C2088 0.950 . S
H2065 C2089 0.951 . S
H2066 C2091 0.951 . S
H2067 C2093 0.950 . S
H2068 C2094 0.950 . S
H2069 C2096 0.950 . S
H2070 C2099 0.950 . S
H2071 C2100 0.950 . S
H2072 C2102 0.950 . S
H2073 C2103 0.950 . S
C2074 H2056 0.951 . S
C2074 C2075 1.366 . S
C2074 C2076 1.388 . S
C2075 C2074 1.366 . S
C2075 C2079 1.385 . S
C2076 H2057 0.951 . S
C2076 C2074 1.388 . S
C2076 C2077 1.366 . S
C2077 C2076 1.366 . S
C2077 C2078 1.414 . S
C2077 C2080 1.499 . S
C2078 H2058 0.950 . S
C2078 C2077 1.414 . S
C2078 C2079 1.374 . S
C2079 H2059 0.950 . S
C2079 C2075 1.385 . S
C2079 C2078 1.374 . S
C2080 C2077 1.499 . S
C2080 C2081 1.373 . S
C2080 C2082 1.389 . S
C2081 H2060 0.950 . S
C2081 C2080 1.373 . S
C2081 C2097 1.377 . S
C2082 C2080 1.389 . S
C2082 C2083 1.524 . S
C2082 C2096 1.377 . S
C2083 C2082 1.524 . S
C2083 C2084 1.397 . S
C2083 C2088 1.363 . S
C2084 H2061 0.950 . S
C2084 C2083 1.397 . S
C2084 C2085 1.334 . S
C2085 H2062 0.950 . S
C2085 C2084 1.334 . S
C2085 C2086 1.287 . S
C2086 C2085 1.287 . S
C2086 C2087 1.524 . S
C2086 H2105 0.913 . S
C2087 H2063 0.950 . S
C2087 C2086 1.524 . S
C2087 C2088 1.415 . S
C2088 H2064 0.950 . S
C2088 C2083 1.363 . S
C2088 C2087 1.415 . S
C2089 H2065 0.951 . S
C2089 C2090 1.366 . S
C2089 C2091 1.388 . S
C2090 C2089 1.366 . S
C2090 C2094 1.385 . S
C2091 H2066 0.951 . S
C2091 C2089 1.388 . S
C2091 C2092 1.366 . S
C2092 C2091 1.366 . S
C2092 C2093 1.414 . S
C2092 C2095 1.499 . S
C2093 H2067 0.950 . S
C2093 C2092 1.414 . S
C2093 C2094 1.374 . S
C2094 H2068 0.950 . S
C2094 C2090 1.385 . S
C2094 C2093 1.374 . S
C2095 C2092 1.499 . S
C2095 C2096 1.373 . S
C2095 C2097 1.389 . S
C2096 H2069 0.950 . S
C2096 C2082 1.377 . S
C2096 C2095 1.373 . S
C2097 C2081 1.377 . S
C2097 C2095 1.389 . S
C2097 C2098 1.524 . S
C2098 C2097 1.524 . S
C2098 C2099 1.397 . S
C2098 C2103 1.363 . S
C2099 H2070 0.950 . S
C2099 C2098 1.397 . S
C2099 C2100 1.334 . S
C2100 H2071 0.950 . S
C2100 C2099 1.334 . S
C2100 C2101 1.287 . S
C2101 C2100 1.287 . S
C2101 C2102 1.524 . S
C2101 H2104 0.999 . S
C2102 H2072 0.950 . S
C2102 C2101 1.524 . S
C2102 C2103 1.415 . S
C2103 H2073 0.950 . S
C2103 C2098 1.363 . S
C2103 C2102 1.415 . S
H2104 C2101 0.999 . S
H2105 C2086 0.913 . S
H2106 C2124 0.951 . S
H2107 C2126 0.951 . S
H2108 C2128 0.950 . S
H2109 C2129 0.950 . S
H2110 C2131 0.950 . S
H2111 C2134 0.950 . S
H2112 C2135 0.948 1_565 S
H2113 C2137 0.950 . S
H2114 C2138 0.950 . S
H2115 C2139 0.951 . S
H2116 C2141 0.951 . S
H2117 C2143 0.950 . S
H2118 C2144 0.950 . S
H2119 C2146 0.950 . S
H2120 C2149 0.950 . S
H2121 C2150 0.950 . S
H2122 C2152 0.950 . S
H2123 C2153 0.950 . S
C2124 H2106 0.951 . S
C2124 C2125 1.366 . S
C2124 C2126 1.388 . S
C2125 C2124 1.366 . S
C2125 C2129 1.385 . S
C2126 H2107 0.951 . S
C2126 C2124 1.388 . S
C2126 C2127 1.366 . S
C2127 C2126 1.366 . S
C2127 C2128 1.414 . S
C2127 C2130 1.499 1_565 S
C2128 H2108 0.950 . S
C2128 C2127 1.414 . S
C2128 C2129 1.374 . S
C2129 H2109 0.950 . S
C2129 C2125 1.385 . S
C2129 C2128 1.374 . S
C2130 C2127 1.499 1_545 S
C2130 C2131 1.373 . S
C2130 C2132 1.389 . S
C2131 H2110 0.950 . S
C2131 C2130 1.373 . S
C2131 C2147 1.377 . S
C2132 C2130 1.389 . S
C2132 C2133 1.524 . S
C2132 C2146 1.377 . S
C2133 C2132 1.524 . S
C2133 C2134 1.397 . S
C2133 C2138 1.363 . S
C2134 H2111 0.950 . S
C2134 C2133 1.397 . S
C2134 C2135 1.321 . S
C2135 H2112 0.948 1_545 S
C2135 C2134 1.321 . S
C2135 C2136 1.306 . S
C2136 C2135 1.306 . S
C2136 C2137 1.524 . S
C2136 H2155 0.918 1_545 S
C2137 H2113 0.950 . S
C2137 C2136 1.524 . S
C2137 C2138 1.415 . S
C2138 H2114 0.950 . S
C2138 C2133 1.363 . S
C2138 C2137 1.415 . S
C2139 H2115 0.951 . S
C2139 C2140 1.366 . S
C2139 C2141 1.388 . S
C2140 C2139 1.366 . S
C2140 C2144 1.385 . S
C2141 H2116 0.951 . S
C2141 C2139 1.388 . S
C2141 C2142 1.366 . S
C2142 C2141 1.366 . S
C2142 C2143 1.414 . S
C2142 C2145 1.499 . S
C2143 H2117 0.950 . S
C2143 C2142 1.414 . S
C2143 C2144 1.374 . S
C2144 H2118 0.950 . S
C2144 C2140 1.385 . S
C2144 C2143 1.374 . S
C2145 C2142 1.499 . S
C2145 C2146 1.373 . S
C2145 C2147 1.389 . S
C2146 H2119 0.950 . S
C2146 C2132 1.377 . S
C2146 C2145 1.373 . S
C2147 C2131 1.377 . S
C2147 C2145 1.389 . S
C2147 C2148 1.524 . S
C2148 C2147 1.524 . S
C2148 C2149 1.397 . S
C2148 C2153 1.363 . S
C2149 H2120 0.950 . S
C2149 C2148 1.397 . S
C2149 C2150 1.334 . S
C2150 H2121 0.950 . S
C2150 C2149 1.334 . S
C2150 C2151 1.287 . S
C2151 C2150 1.287 . S
C2151 C2152 1.524 . S
C2151 H2154 0.999 . S
C2152 H2122 0.950 . S
C2152 C2151 1.524 . S
C2152 C2153 1.415 . S
C2153 H2123 0.950 . S
C2153 C2148 1.363 . S
C2153 C2152 1.415 . S
H2154 C2151 0.999 . S
H2155 C2136 0.918 1_565 S
H2156 C2174 0.951 . S
H2157 C2176 0.951 . S
H2158 C2178 0.950 . S
H2159 C2179 0.950 . S
H2160 C2181 0.950 . S
H2161 C2184 0.950 . S
H2162 C2185 0.950 . S
H2163 C2187 0.950 . S
H2164 C2188 0.950 . S
H2165 C2189 0.951 . S
H2166 C2191 0.951 . S
H2167 C2193 0.950 . S
H2168 C2194 0.950 . S
H2169 C2196 0.950 . S
H2170 C2199 0.950 . S
H2171 C2200 0.950 . S
H2172 C2202 0.950 . S
H2173 C2203 0.950 . S
C2174 H2156 0.951 . S
C2174 C2175 1.366 . S
C2174 C2176 1.388 . S
C2175 C2174 1.366 . S
C2175 C2179 1.385 . S
C2176 H2157 0.951 . S
C2176 C2174 1.388 . S
C2176 C2177 1.366 . S
C2177 C2176 1.366 . S
C2177 C2178 1.414 . S
C2177 C2180 1.499 1_455 S
C2178 H2158 0.950 . S
C2178 C2177 1.414 . S
C2178 C2179 1.374 . S
C2179 H2159 0.950 . S
C2179 C2175 1.385 . S
C2179 C2178 1.374 . S
C2180 C2177 1.499 1_655 S
C2180 C2181 1.373 . S
C2180 C2182 1.389 . S
C2181 H2160 0.950 . S
C2181 C2180 1.373 . S
C2181 C2197 1.377 . S
C2182 C2180 1.389 . S
C2182 C2183 1.524 . S
C2182 C2196 1.377 . S
C2183 C2182 1.524 . S
C2183 C2184 1.397 1_655 S
C2183 C2188 1.363 . S
C2184 H2161 0.950 . S
C2184 C2183 1.397 1_455 S
C2184 C2185 1.334 . S
C2185 H2162 0.950 . S
C2185 C2184 1.334 . S
C2185 C2186 1.287 . S
C2186 C2185 1.287 . S
C2186 C2187 1.524 1_455 S
C2186 H2205 0.913 . S
C2187 H2163 0.950 . S
C2187 C2186 1.524 1_655 S
C2187 C2188 1.415 . S
C2188 H2164 0.950 . S
C2188 C2183 1.363 . S
C2188 C2187 1.415 . S
C2189 H2165 0.951 . S
C2189 C2190 1.366 . S
C2189 C2191 1.388 . S
C2190 C2189 1.366 . S
C2190 C2194 1.385 . S
C2191 H2166 0.951 . S
C2191 C2189 1.388 . S
C2191 C2192 1.366 . S
C2192 C2191 1.366 . S
C2192 C2193 1.414 . S
C2192 C2195 1.499 . S
C2193 H2167 0.950 . S
C2193 C2192 1.414 . S
C2193 C2194 1.374 . S
C2194 H2168 0.950 . S
C2194 C2190 1.385 . S
C2194 C2193 1.374 . S
C2195 C2192 1.499 . S
C2195 C2196 1.373 . S
C2195 C2197 1.389 . S
C2196 H2169 0.950 . S
C2196 C2182 1.377 . S
C2196 C2195 1.373 . S
C2197 C2181 1.377 . S
C2197 C2195 1.389 . S
C2197 C2198 1.524 . S
C2198 C2197 1.524 . S
C2198 C2199 1.397 . S
C2198 C2203 1.363 . S
C2199 H2170 0.950 . S
C2199 C2198 1.397 . S
C2199 C2200 1.334 . S
C2200 H2171 0.950 . S
C2200 C2199 1.334 . S
C2200 C2201 1.287 . S
C2201 C2200 1.287 . S
C2201 C2202 1.524 . S
C2201 H2204 0.999 . S
C2202 H2172 0.950 . S
C2202 C2201 1.524 . S
C2202 C2203 1.415 . S
C2203 H2173 0.950 . S
C2203 C2198 1.363 . S
C2203 C2202 1.415 . S
H2204 C2201 0.999 . S
H2205 C2186 0.913 . S
H2206 C2224 0.951 . S
H2207 C2226 0.951 . S
H2208 C2228 0.950 . S
H2209 C2229 0.950 . S
H2210 C2231 0.950 . S
H2211 C2234 0.950 . S
H2212 C2235 0.950 . S
H2213 C2237 0.950 . S
H2214 C2238 0.950 . S
H2215 C2239 0.951 . S
H2216 C2241 0.951 . S
H2217 C2243 0.950 . S
H2218 C2244 0.950 . S
H2219 C2246 0.950 . S
H2220 C2249 0.950 . S
H2221 C2250 0.950 . S
H2222 C2252 0.950 . S
H2223 C2253 0.950 . S
C2224 H2206 0.951 . S
C2224 C2225 1.366 . S
C2224 C2226 1.388 . S
C2225 C2224 1.366 . S
C2225 C2229 1.385 . S
C2226 H2207 0.951 . S
C2226 C2224 1.388 . S
C2226 C2227 1.366 . S
C2227 C2226 1.366 . S
C2227 C2228 1.414 . S
C2227 C2230 1.499 . S
C2228 H2208 0.950 . S
C2228 C2227 1.414 . S
C2228 C2229 1.374 . S
C2229 H2209 0.950 . S
C2229 C2225 1.385 . S
C2229 C2228 1.374 . S
C2230 C2227 1.499 . S
C2230 C2231 1.373 . S
C2230 C2232 1.389 . S
C2231 H2210 0.950 . S
C2231 C2230 1.373 . S
C2231 C2247 1.377 . S
C2232 C2230 1.389 . S
C2232 C2233 1.524 . S
C2232 C2246 1.377 . S
C2233 C2232 1.524 . S
C2233 C2234 1.397 . S
C2233 C2238 1.363 . S
C2234 H2211 0.950 . S
C2234 C2233 1.397 . S
C2234 C2235 1.334 . S
C2235 H2212 0.950 . S
C2235 C2234 1.334 . S
C2235 C2236 1.287 . S
C2236 C2235 1.287 . S
C2236 C2237 1.524 . S
C2236 H2255 0.913 . S
C2237 H2213 0.950 . S
C2237 C2236 1.524 . S
C2237 C2238 1.415 . S
C2238 H2214 0.950 . S
C2238 C2233 1.363 . S
C2238 C2237 1.415 . S
C2239 H2215 0.951 . S
C2239 C2240 1.366 . S
C2239 C2241 1.388 . S
C2240 C2239 1.366 . S
C2240 C2244 1.385 . S
C2241 H2216 0.951 . S
C2241 C2239 1.388 . S
C2241 C2242 1.366 . S
C2242 C2241 1.366 . S
C2242 C2243 1.414 . S
C2242 C2245 1.499 . S
C2243 H2217 0.950 . S
C2243 C2242 1.414 . S
C2243 C2244 1.374 . S
C2244 H2218 0.950 . S
C2244 C2240 1.385 . S
C2244 C2243 1.374 . S
C2245 C2242 1.499 . S
C2245 C2246 1.373 . S
C2245 C2247 1.389 . S
C2246 H2219 0.950 . S
C2246 C2232 1.377 . S
C2246 C2245 1.373 . S
C2247 C2231 1.377 . S
C2247 C2245 1.389 . S
C2247 C2248 1.524 . S
C2248 C2247 1.524 . S
C2248 C2249 1.397 . S
C2248 C2253 1.363 . S
C2249 H2220 0.950 . S
C2249 C2248 1.397 . S
C2249 C2250 1.334 . S
C2250 H2221 0.950 . S
C2250 C2249 1.334 . S
C2250 C2251 1.287 . S
C2251 C2250 1.287 . S
C2251 C2252 1.524 . S
C2251 H2254 0.999 . S
C2252 H2222 0.950 . S
C2252 C2251 1.524 . S
C2252 C2253 1.415 . S
C2253 H2223 0.950 . S
C2253 C2248 1.363 . S
C2253 C2252 1.415 . S
H2254 C2251 0.999 . S
H2255 C2236 0.913 . S
H2256 C2274 0.951 . S
H2257 C2276 0.951 . S
H2258 C2278 0.950 . S
H2259 C2279 0.950 . S
H2260 C2281 0.950 1_455 S
H2261 C2284 0.950 . S
H2262 C2285 0.950 . S
H2263 C2287 0.950 . S
H2264 C2288 0.950 . S
H2265 C2289 0.951 . S
H2266 C2291 0.951 . S
H2267 C2293 0.950 . S
H2268 C2294 0.950 . S
H2269 C2296 0.950 . S
H2270 C2299 0.950 . S
H2271 C2300 0.950 . S
H2272 C2302 0.950 . S
H2273 C2303 0.950 . S
C2274 H2256 0.951 . S
C2274 C2275 1.366 . S
C2274 C2276 1.388 . S
C2275 C2274 1.366 . S
C2275 C2279 1.385 . S
C2276 H2257 0.951 . S
C2276 C2274 1.388 . S
C2276 C2277 1.366 . S
C2277 C2276 1.366 . S
C2277 C2278 1.414 . S
C2277 C2280 1.539 . S
C2278 H2258 0.950 . S
C2278 C2277 1.414 . S
C2278 C2279 1.374 . S
C2279 H2259 0.950 . S
C2279 C2275 1.385 . S
C2279 C2278 1.374 . S
C2280 C2277 1.539 . S
C2280 C2281 1.354 1_455 S
C2280 C2282 1.372 1_455 S
C2281 H2260 0.950 1_655 S
C2281 C2280 1.354 1_655 S
C2281 C2297 1.377 . S
C2282 C2280 1.372 1_655 S
C2282 C2283 1.524 . S
C2282 C2296 1.377 . S
C2283 C2282 1.524 . S
C2283 C2284 1.397 . S
C2283 C2288 1.363 . S
C2284 H2261 0.950 . S
C2284 C2283 1.397 . S
C2284 C2285 1.334 . S
C2285 H2262 0.950 . S
C2285 C2284 1.334 . S
C2285 C2286 1.287 . S
C2286 C2285 1.287 . S
C2286 C2287 1.524 . S
C2286 H2305 0.913 . S
C2287 H2263 0.950 . S
C2287 C2286 1.524 . S
C2287 C2288 1.415 . S
C2288 H2264 0.950 . S
C2288 C2283 1.363 . S
C2288 C2287 1.415 . S
C2289 H2265 0.951 . S
C2289 C2290 1.366 . S
C2289 C2291 1.388 . S
C2290 C2289 1.366 . S
C2290 C2294 1.385 . S
C2291 H2266 0.951 . S
C2291 C2289 1.388 . S
C2291 C2292 1.366 . S
C2292 C2291 1.366 . S
C2292 C2293 1.414 . S
C2292 C2295 1.499 . S
C2293 H2267 0.950 . S
C2293 C2292 1.414 . S
C2293 C2294 1.374 . S
C2294 H2268 0.950 . S
C2294 C2290 1.385 . S
C2294 C2293 1.374 . S
C2295 C2292 1.499 . S
C2295 C2296 1.373 . S
C2295 C2297 1.389 . S
C2296 H2269 0.950 . S
C2296 C2282 1.377 . S
C2296 C2295 1.373 . S
C2297 C2281 1.377 . S
C2297 C2295 1.389 . S
C2297 C2298 1.524 . S
C2298 C2297 1.524 . S
C2298 C2299 1.397 . S
C2298 C2303 1.363 . S
C2299 H2270 0.950 . S
C2299 C2298 1.397 . S
C2299 C2300 1.334 . S
C2300 H2271 0.950 . S
C2300 C2299 1.334 . S
C2300 C2301 1.287 . S
C2301 C2300 1.287 . S
C2301 C2302 1.524 . S
C2301 H2304 0.999 . S
C2302 H2272 0.950 . S
C2302 C2301 1.524 . S
C2302 C2303 1.415 . S
C2303 H2273 0.950 . S
C2303 C2298 1.363 . S
C2303 C2302 1.415 . S
H2304 C2301 0.999 . S
H2305 C2286 0.913 . S
H2306 C2324 0.951 . S
H2307 C2326 0.951 . S
H2308 C2328 0.950 . S
H2309 C2329 0.950 . S
H2310 C2331 0.950 . S
H2311 C2334 0.950 . S
H2312 C2335 0.950 . S
H2313 C2337 0.950 . S
H2314 C2338 0.950 . S
H2315 C2339 0.951 . S
H2316 C2341 0.951 . S
H2317 C2343 0.950 . S
H2318 C2344 0.950 . S
H2319 C2346 0.950 . S
H2320 C2349 0.950 . S
H2321 C2350 0.950 . S
H2322 C2352 0.950 . S
H2323 C2353 0.950 . S
C2324 H2306 0.951 . S
C2324 C2325 1.366 . S
C2324 C2326 1.388 . S
C2325 C2324 1.366 . S
C2325 C2329 1.385 . S
C2326 H2307 0.951 . S
C2326 C2324 1.388 . S
C2326 C2327 1.366 . S
C2327 C2326 1.366 . S
C2327 C2328 1.414 . S
C2327 C2330 1.499 . S
C2328 H2308 0.950 . S
C2328 C2327 1.414 . S
C2328 C2329 1.374 . S
C2329 H2309 0.950 . S
C2329 C2325 1.385 . S
C2329 C2328 1.374 . S
C2330 C2327 1.499 . S
C2330 C2331 1.373 . S
C2330 C2332 1.389 . S
C2331 H2310 0.950 . S
C2331 C2330 1.373 . S
C2331 C2347 1.377 . S
C2332 C2330 1.389 . S
C2332 C2333 1.524 . S
C2332 C2346 1.377 . S
C2333 C2332 1.524 . S
C2333 C2334 1.397 . S
C2333 C2338 1.363 . S
C2334 H2311 0.950 . S
C2334 C2333 1.397 . S
C2334 C2335 1.334 . S
C2335 H2312 0.950 . S
C2335 C2334 1.334 . S
C2335 C2336 1.287 . S
C2336 C2335 1.287 . S
C2336 C2337 1.524 . S
C2336 H2355 0.913 . S
C2337 H2313 0.950 . S
C2337 C2336 1.524 . S
C2337 C2338 1.415 . S
C2338 H2314 0.950 . S
C2338 C2333 1.363 . S
C2338 C2337 1.415 . S
C2339 H2315 0.951 . S
C2339 C2340 1.366 . S
C2339 C2341 1.388 . S
C2340 C2339 1.366 . S
C2340 C2344 1.385 . S
C2341 H2316 0.951 . S
C2341 C2339 1.388 . S
C2341 C2342 1.366 . S
C2342 C2341 1.366 . S
C2342 C2343 1.414 . S
C2342 C2345 1.499 . S
C2343 H2317 0.950 . S
C2343 C2342 1.414 . S
C2343 C2344 1.374 . S
C2344 H2318 0.950 . S
C2344 C2340 1.385 . S
C2344 C2343 1.374 . S
C2345 C2342 1.499 . S
C2345 C2346 1.373 . S
C2345 C2347 1.389 . S
C2346 H2319 0.950 . S
C2346 C2332 1.377 . S
C2346 C2345 1.373 . S
C2347 C2331 1.377 . S
C2347 C2345 1.389 . S
C2347 C2348 1.524 . S
C2348 C2347 1.524 . S
C2348 C2349 1.397 . S
C2348 C2353 1.363 . S
C2349 H2320 0.950 . S
C2349 C2348 1.397 . S
C2349 C2350 1.334 . S
C2350 H2321 0.950 . S
C2350 C2349 1.334 . S
C2350 C2351 1.287 . S
C2351 C2350 1.287 . S
C2351 C2352 1.524 . S
C2351 H2354 0.999 . S
C2352 H2322 0.950 . S
C2352 C2351 1.524 . S
C2352 C2353 1.415 . S
C2353 H2323 0.950 . S
C2353 C2348 1.363 . S
C2353 C2352 1.415 . S
H2354 C2351 0.999 . S
H2355 C2336 0.913 . S
H2356 C2374 0.951 . S
H2357 C2376 0.951 . S
H2358 C2378 0.950 . S
H2359 C2379 0.950 . S
H2360 C2381 0.950 . S
H2361 C2384 0.950 . S
H2362 C2385 0.950 . S
H2363 C2387 0.950 . S
H2364 C2388 0.950 . S
H2365 C2389 0.951 . S
H2366 C2391 0.951 . S
H2367 C2393 0.950 . S
H2368 C2394 0.950 . S
H2369 C2396 0.950 . S
H2370 C2399 0.950 . S
H2371 C2400 0.950 . S
H2372 C2402 0.950 . S
H2373 C2403 0.950 . S
C2374 H2356 0.951 . S
C2374 C2375 1.366 . S
C2374 C2376 1.388 . S
C2375 C2374 1.366 . S
C2375 C2379 1.385 . S
C2376 H2357 0.951 . S
C2376 C2374 1.388 . S
C2376 C2377 1.366 . S
C2377 C2376 1.366 . S
C2377 C2378 1.414 . S
C2377 C2380 1.499 1_565 S
C2378 H2358 0.950 . S
C2378 C2377 1.414 . S
C2378 C2379 1.374 . S
C2379 H2359 0.950 . S
C2379 C2375 1.385 . S
C2379 C2378 1.374 . S
C2380 C2377 1.499 1_545 S
C2380 C2381 1.373 . S
C2380 C2382 1.389 . S
C2381 H2360 0.950 . S
C2381 C2380 1.373 . S
C2381 C2397 1.377 . S
C2382 C2380 1.389 . S
C2382 C2383 1.524 1_545 S
C2382 C2396 1.377 . S
C2383 C2382 1.524 1_565 S
C2383 C2384 1.397 . S
C2383 C2388 1.363 1_565 S
C2384 H2361 0.950 . S
C2384 C2383 1.397 . S
C2384 C2385 1.334 . S
C2385 H2362 0.950 . S
C2385 C2384 1.334 . S
C2385 C2386 1.287 . S
C2386 C2385 1.287 . S
C2386 C2387 1.524 . S
C2386 H2405 0.913 . S
C2387 H2363 0.950 . S
C2387 C2386 1.524 . S
C2387 C2388 1.415 1_565 S
C2388 H2364 0.950 . S
C2388 C2383 1.363 1_545 S
C2388 C2387 1.415 1_545 S
C2389 H2365 0.951 . S
C2389 C2390 1.366 . S
C2389 C2391 1.388 . S
C2390 C2389 1.366 . S
C2390 C2394 1.385 . S
C2391 H2366 0.951 . S
C2391 C2389 1.388 . S
C2391 C2392 1.366 . S
C2392 C2391 1.366 . S
C2392 C2393 1.414 . S
C2392 C2395 1.499 . S
C2393 H2367 0.950 . S
C2393 C2392 1.414 . S
C2393 C2394 1.374 . S
C2394 H2368 0.950 . S
C2394 C2390 1.385 . S
C2394 C2393 1.374 . S
C2395 C2392 1.499 . S
C2395 C2396 1.373 . S
C2395 C2397 1.389 . S
C2396 H2369 0.950 . S
C2396 C2382 1.377 . S
C2396 C2395 1.373 . S
C2397 C2381 1.377 . S
C2397 C2395 1.389 . S
C2397 C2398 1.524 . S
C2398 C2397 1.524 . S
C2398 C2399 1.397 . S
C2398 C2403 1.363 . S
C2399 H2370 0.950 . S
C2399 C2398 1.397 . S
C2399 C2400 1.334 . S
C2400 H2371 0.950 . S
C2400 C2399 1.334 . S
C2400 C2401 1.287 . S
C2401 C2400 1.287 . S
C2401 C2402 1.524 . S
C2401 H2404 0.999 . S
C2402 H2372 0.950 . S
C2402 C2401 1.524 . S
C2402 C2403 1.415 . S
C2403 H2373 0.950 . S
C2403 C2398 1.363 . S
C2403 C2402 1.415 . S
H2404 C2401 0.999 . S
H2405 C2386 0.913 . S
H2406 C2424 0.951 . S
H2407 C2426 0.951 . S
H2408 C2428 0.950 . S
H2409 C2429 0.950 . S
H2410 C2431 0.950 . S
H2411 C2434 0.950 . S
H2412 C2435 0.950 . S
H2413 C2437 0.950 . S
H2414 C2438 0.950 . S
H2415 C2439 0.951 . S
H2416 C2441 0.951 . S
H2417 C2443 0.950 . S
H2418 C2444 0.950 . S
H2419 C2446 0.950 . S
H2420 C2449 0.950 . S
H2421 C2450 0.950 . S
H2422 C2452 0.950 . S
H2423 C2453 0.950 . S
C2424 H2406 0.951 . S
C2424 C2425 1.366 . S
C2424 C2426 1.388 . S
C2425 C2424 1.366 . S
C2425 C2429 1.385 . S
C2426 H2407 0.951 . S
C2426 C2424 1.388 . S
C2426 C2427 1.366 . S
C2427 C2426 1.366 . S
C2427 C2428 1.414 . S
C2427 C2430 1.499 . S
C2428 H2408 0.950 . S
C2428 C2427 1.414 . S
C2428 C2429 1.374 . S
C2429 H2409 0.950 . S
C2429 C2425 1.385 . S
C2429 C2428 1.374 . S
C2430 C2427 1.499 . S
C2430 C2431 1.373 . S
C2430 C2432 1.389 . S
C2431 H2410 0.950 . S
C2431 C2430 1.373 . S
C2431 C2447 1.377 . S
C2432 C2430 1.389 . S
C2432 C2433 1.524 . S
C2432 C2446 1.377 . S
C2433 C2432 1.524 . S
C2433 C2434 1.397 . S
C2433 C2438 1.363 . S
C2434 H2411 0.950 . S
C2434 C2433 1.397 . S
C2434 C2435 1.334 . S
C2435 H2412 0.950 . S
C2435 C2434 1.334 . S
C2435 C2436 1.287 . S
C2436 C2435 1.287 . S
C2436 C2437 1.524 . S
C2436 H2455 0.913 . S
C2437 H2413 0.950 . S
C2437 C2436 1.524 . S
C2437 C2438 1.415 . S
C2438 H2414 0.950 . S
C2438 C2433 1.363 . S
C2438 C2437 1.415 . S
C2439 H2415 0.951 . S
C2439 C2440 1.366 . S
C2439 C2441 1.388 . S
C2440 C2439 1.366 . S
C2440 C2444 1.385 . S
C2441 H2416 0.951 . S
C2441 C2439 1.388 . S
C2441 C2442 1.366 . S
C2442 C2441 1.366 . S
C2442 C2443 1.414 . S
C2442 C2445 1.499 . S
C2443 H2417 0.950 . S
C2443 C2442 1.414 . S
C2443 C2444 1.374 . S
C2444 H2418 0.950 . S
C2444 C2440 1.385 . S
C2444 C2443 1.374 . S
C2445 C2442 1.499 . S
C2445 C2446 1.373 . S
C2445 C2447 1.389 . S
C2446 H2419 0.950 . S
C2446 C2432 1.377 . S
C2446 C2445 1.373 . S
C2447 C2431 1.377 . S
C2447 C2445 1.389 . S
C2447 C2448 1.524 . S
C2448 C2447 1.524 . S
C2448 C2449 1.397 . S
C2448 C2453 1.363 . S
C2449 H2420 0.950 . S
C2449 C2448 1.397 . S
C2449 C2450 1.334 . S
C2450 H2421 0.950 . S
C2450 C2449 1.334 . S
C2450 C2451 1.287 . S
C2451 C2450 1.287 . S
C2451 C2452 1.524 . S
C2451 H2454 0.999 . S
C2452 H2422 0.950 . S
C2452 C2451 1.524 . S
C2452 C2453 1.415 . S
C2453 H2423 0.950 . S
C2453 C2448 1.363 . S
C2453 C2452 1.415 . S
H2454 C2451 0.999 . S
H2455 C2436 0.913 . S
H2456 C2474 0.951 . S
H2457 C2476 0.951 . S
H2458 C2478 0.950 . S
H2459 C2479 0.950 . S
H2460 C2481 0.950 . S
H2461 C2484 0.950 . S
H2462 C2485 0.950 . S
H2463 C2487 0.950 . S
H2464 C2488 0.950 . S
H2465 C2489 0.951 . S
H2466 C2491 0.951 . S
H2467 C2493 0.950 . S
H2468 C2494 0.950 . S
H2469 C2496 0.950 . S
H2470 C2499 0.950 . S
H2471 C2500 0.950 . S
H2472 C2502 0.950 . S
H2473 C2503 0.950 . S
C2474 H2456 0.951 . S
C2474 C2475 1.366 . S
C2474 C2476 1.388 . S
C2475 C2474 1.366 . S
C2475 C2479 1.385 . S
C2476 H2457 0.951 . S
C2476 C2474 1.388 . S
C2476 C2477 1.366 . S
C2477 C2476 1.366 . S
C2477 C2478 1.414 . S
C2477 C2480 1.499 . S
C2478 H2458 0.950 . S
C2478 C2477 1.414 . S
C2478 C2479 1.374 . S
C2479 H2459 0.950 . S
C2479 C2475 1.385 . S
C2479 C2478 1.374 . S
C2480 C2477 1.499 . S
C2480 C2481 1.373 . S
C2480 C2482 1.389 . S
C2481 H2460 0.950 . S
C2481 C2480 1.373 . S
C2481 C2497 1.377 . S
C2482 C2480 1.389 . S
C2482 C2483 1.524 . S
C2482 C2496 1.377 . S
C2483 C2482 1.524 . S
C2483 C2484 1.397 . S
C2483 C2488 1.363 . S
C2484 H2461 0.950 . S
C2484 C2483 1.397 . S
C2484 C2485 1.334 . S
C2485 H2462 0.950 . S
C2485 C2484 1.334 . S
C2485 C2486 1.287 . S
C2486 C2485 1.287 . S
C2486 C2487 1.524 . S
C2486 H2505 0.913 . S
C2487 H2463 0.950 . S
C2487 C2486 1.524 . S
C2487 C2488 1.415 . S
C2488 H2464 0.950 . S
C2488 C2483 1.363 . S
C2488 C2487 1.415 . S
C2489 H2465 0.951 . S
C2489 C2490 1.366 . S
C2489 C2491 1.388 . S
C2490 C2489 1.366 . S
C2490 C2494 1.385 . S
C2491 H2466 0.951 . S
C2491 C2489 1.388 . S
C2491 C2492 1.366 . S
C2492 C2491 1.366 . S
C2492 C2493 1.414 . S
C2492 C2495 1.499 . S
C2493 H2467 0.950 . S
C2493 C2492 1.414 . S
C2493 C2494 1.374 . S
C2494 H2468 0.950 . S
C2494 C2490 1.385 . S
C2494 C2493 1.374 . S
C2495 C2492 1.499 . S
C2495 C2496 1.373 . S
C2495 C2497 1.389 . S
C2496 H2469 0.950 . S
C2496 C2482 1.377 . S
C2496 C2495 1.373 . S
C2497 C2481 1.377 . S
C2497 C2495 1.389 . S
C2497 C2498 1.524 . S
C2498 C2497 1.524 . S
C2498 C2499 1.397 . S
C2498 C2503 1.363 . S
C2499 H2470 0.950 . S
C2499 C2498 1.397 . S
C2499 C2500 1.334 . S
C2500 H2471 0.950 . S
C2500 C2499 1.334 . S
C2500 C2501 1.287 . S
C2501 C2500 1.287 . S
C2501 C2502 1.524 . S
C2501 H2504 0.999 . S
C2502 H2472 0.950 . S
C2502 C2501 1.524 . S
C2502 C2503 1.415 . S
C2503 H2473 0.950 . S
C2503 C2498 1.363 . S
C2503 C2502 1.415 . S
H2504 C2501 0.999 . S
H2505 C2486 0.913 . S
H2506 C2524 0.951 . S
H2507 C2526 0.951 . S
H2508 C2528 0.950 . S
H2509 C2529 0.950 . S
H2510 C2531 0.950 . S
H2511 C2534 0.950 . S
H2512 C2535 0.950 . S
H2513 C2537 0.950 . S
H2514 C2538 0.950 . S
H2515 C2539 0.951 . S
H2516 C2541 0.951 . S
H2517 C2543 0.950 . S
H2518 C2544 0.950 . S
H2519 C2546 0.950 . S
H2520 C2549 0.950 . S
H2521 C2550 0.950 . S
H2522 C2552 0.950 . S
H2523 C2553 0.950 . S
C2524 H2506 0.951 . S
C2524 C2525 1.366 . S
C2524 C2526 1.388 . S
C2525 C2524 1.366 . S
C2525 C2529 1.385 . S
C2526 H2507 0.951 . S
C2526 C2524 1.388 . S
C2526 C2527 1.366 . S
C2527 C2526 1.366 . S
C2527 C2528 1.414 . S
C2527 C2530 1.499 . S
C2528 H2508 0.950 . S
C2528 C2527 1.414 . S
C2528 C2529 1.374 . S
C2529 H2509 0.950 . S
C2529 C2525 1.385 . S
C2529 C2528 1.374 . S
C2530 C2527 1.499 . S
C2530 C2531 1.373 . S
C2530 C2532 1.389 . S
C2531 H2510 0.950 . S
C2531 C2530 1.373 . S
C2531 C2547 1.377 . S
C2532 C2530 1.389 . S
C2532 C2533 1.524 . S
C2532 C2546 1.377 . S
C2533 C2532 1.524 . S
C2533 C2534 1.397 . S
C2533 C2538 1.363 . S
C2534 H2511 0.950 . S
C2534 C2533 1.397 . S
C2534 C2535 1.334 . S
C2535 H2512 0.950 . S
C2535 C2534 1.334 . S
C2535 C2536 1.287 . S
C2536 C2535 1.287 . S
C2536 C2537 1.524 . S
C2536 H2555 0.913 . S
C2537 H2513 0.950 . S
C2537 C2536 1.524 . S
C2537 C2538 1.415 . S
C2538 H2514 0.950 . S
C2538 C2533 1.363 . S
C2538 C2537 1.415 . S
C2539 H2515 0.951 . S
C2539 C2540 1.366 . S
C2539 C2541 1.388 . S
C2540 C2539 1.366 . S
C2540 C2544 1.385 . S
C2541 H2516 0.951 . S
C2541 C2539 1.388 . S
C2541 C2542 1.366 . S
C2542 C2541 1.366 . S
C2542 C2543 1.414 . S
C2542 C2545 1.499 . S
C2543 H2517 0.950 . S
C2543 C2542 1.414 . S
C2543 C2544 1.374 . S
C2544 H2518 0.950 . S
C2544 C2540 1.385 . S
C2544 C2543 1.374 . S
C2545 C2542 1.499 . S
C2545 C2546 1.373 . S
C2545 C2547 1.389 . S
C2546 H2519 0.950 . S
C2546 C2532 1.377 . S
C2546 C2545 1.373 . S
C2547 C2531 1.377 . S
C2547 C2545 1.389 . S
C2547 C2548 1.524 . S
C2548 C2547 1.524 . S
C2548 C2549 1.397 . S
C2548 C2553 1.363 . S
C2549 H2520 0.950 . S
C2549 C2548 1.397 . S
C2549 C2550 1.334 . S
C2550 H2521 0.950 . S
C2550 C2549 1.334 . S
C2550 C2551 1.287 . S
C2551 C2550 1.287 . S
C2551 C2552 1.524 . S
C2551 H2554 0.999 . S
C2552 H2522 0.950 . S
C2552 C2551 1.524 . S
C2552 C2553 1.415 . S
C2553 H2523 0.950 . S
C2553 C2548 1.363 . S
C2553 C2552 1.415 . S
H2554 C2551 0.999 . S
H2555 C2536 0.913 . S
H2556 C2574 0.951 . S
H2557 C2576 0.951 . S
H2558 C2578 0.950 . S
H2559 C2579 0.950 . S
H2560 C2581 0.950 . S
H2561 C2584 0.950 . S
H2562 C2585 0.950 . S
H2563 C2587 0.950 . S
H2564 C2588 0.950 . S
H2565 C2589 0.951 . S
H2566 C2591 0.951 . S
H2567 C2593 0.950 . S
H2568 C2594 0.950 . S
H2569 C2596 0.950 . S
H2570 C2599 0.950 . S
H2571 C2600 0.950 . S
H2572 C2602 0.950 . S
H2573 C2603 0.950 . S
C2574 H2556 0.951 . S
C2574 C2575 1.366 . S
C2574 C2576 1.388 . S
C2575 C2574 1.366 . S
C2575 C2579 1.385 . S
C2576 H2557 0.951 . S
C2576 C2574 1.388 . S
C2576 C2577 1.366 . S
C2577 C2576 1.366 . S
C2577 C2578 1.414 . S
C2577 C2580 1.499 . S
C2578 H2558 0.950 . S
C2578 C2577 1.414 . S
C2578 C2579 1.374 . S
C2579 H2559 0.950 . S
C2579 C2575 1.385 . S
C2579 C2578 1.374 . S
C2580 C2577 1.499 . S
C2580 C2581 1.373 . S
C2580 C2582 1.389 . S
C2581 H2560 0.950 . S
C2581 C2580 1.373 . S
C2581 C2597 1.377 . S
C2582 C2580 1.389 . S
C2582 C2583 1.524 . S
C2582 C2596 1.377 . S
C2583 C2582 1.524 . S
C2583 C2584 1.397 . S
C2583 C2588 1.363 . S
C2584 H2561 0.950 . S
C2584 C2583 1.397 . S
C2584 C2585 1.334 . S
C2585 H2562 0.950 . S
C2585 C2584 1.334 . S
C2585 C2586 1.287 . S
C2586 C2585 1.287 . S
C2586 C2587 1.524 . S
C2586 H2605 0.913 . S
C2587 H2563 0.950 . S
C2587 C2586 1.524 . S
C2587 C2588 1.415 . S
C2588 H2564 0.950 . S
C2588 C2583 1.363 . S
C2588 C2587 1.415 . S
C2589 H2565 0.951 . S
C2589 C2590 1.366 . S
C2589 C2591 1.388 . S
C2590 C2589 1.366 . S
C2590 C2594 1.385 . S
C2591 H2566 0.951 . S
C2591 C2589 1.388 . S
C2591 C2592 1.366 . S
C2592 C2591 1.366 . S
C2592 C2593 1.414 . S
C2592 C2595 1.499 . S
C2593 H2567 0.950 . S
C2593 C2592 1.414 . S
C2593 C2594 1.374 . S
C2594 H2568 0.950 . S
C2594 C2590 1.385 . S
C2594 C2593 1.374 . S
C2595 C2592 1.499 . S
C2595 C2596 1.373 . S
C2595 C2597 1.389 . S
C2596 H2569 0.950 . S
C2596 C2582 1.377 . S
C2596 C2595 1.373 . S
C2597 C2581 1.377 . S
C2597 C2595 1.389 . S
C2597 C2598 1.524 1_565 S
C2598 C2597 1.524 1_545 S
C2598 C2599 1.397 . S
C2598 C2603 1.363 . S
C2599 H2570 0.950 . S
C2599 C2598 1.397 . S
C2599 C2600 1.334 . S
C2600 H2571 0.950 . S
C2600 C2599 1.334 . S
C2600 C2601 1.287 . S
C2601 C2600 1.287 . S
C2601 C2602 1.524 . S
C2601 H2604 0.999 . S
C2602 H2572 0.950 . S
C2602 C2601 1.524 . S
C2602 C2603 1.415 . S
C2603 H2573 0.950 . S
C2603 C2598 1.363 . S
C2603 C2602 1.415 . S
H2604 C2601 0.999 . S
H2605 C2586 0.913 . S
H2606 C2624 0.951 . S
H2607 C2626 0.951 . S
H2608 C2628 0.950 . S
H2609 C2629 0.950 . S
H2610 C2631 0.950 . S
H2611 C2634 0.950 . S
H2612 C2635 0.950 . S
H2613 C2637 0.950 . S
H2614 C2638 0.950 1_455 S
H2615 C2639 0.951 . S
H2616 C2641 0.951 . S
H2617 C2643 0.950 . S
H2618 C2644 0.950 . S
H2619 C2646 0.950 . S
H2620 C2649 0.950 . S
H2621 C2650 0.950 . S
H2622 C2652 0.950 . S
H2623 C2653 0.950 . S
C2624 H2606 0.951 . S
C2624 C2625 1.366 . S
C2624 C2626 1.388 . S
C2625 C2624 1.366 . S
C2625 C2629 1.385 . S
C2626 H2607 0.951 . S
C2626 C2624 1.388 . S
C2626 C2627 1.366 . S
C2627 C2626 1.366 . S
C2627 C2628 1.414 . S
C2627 C2630 1.499 . S
C2628 H2608 0.950 . S
C2628 C2627 1.414 . S
C2628 C2629 1.374 . S
C2629 H2609 0.950 . S
C2629 C2625 1.385 . S
C2629 C2628 1.374 . S
C2630 C2627 1.499 . S
C2630 C2631 1.373 . S
C2630 C2632 1.389 . S
C2631 H2610 0.950 . S
C2631 C2630 1.373 . S
C2631 C2647 1.377 . S
C2632 C2630 1.389 . S
C2632 C2633 1.528 . S
C2632 C2646 1.377 . S
C2633 C2632 1.528 . S
C2633 C2634 1.396 1_455 S
C2633 C2638 1.360 1_455 S
C2634 H2611 0.950 . S
C2634 C2633 1.396 1_655 S
C2634 C2635 1.334 . S
C2635 H2612 0.950 . S
C2635 C2634 1.334 . S
C2635 C2636 1.287 . S
C2636 C2635 1.287 . S
C2636 C2637 1.524 . S
C2636 H2655 0.913 . S
C2637 H2613 0.950 . S
C2637 C2636 1.524 . S
C2637 C2638 1.415 . S
C2638 H2614 0.950 1_655 S
C2638 C2633 1.360 1_655 S
C2638 C2637 1.415 . S
C2639 H2615 0.951 . S
C2639 C2640 1.366 . S
C2639 C2641 1.388 . S
C2640 C2639 1.366 . S
C2640 C2644 1.385 . S
C2641 H2616 0.951 . S
C2641 C2639 1.388 . S
C2641 C2642 1.366 . S
C2642 C2641 1.366 . S
C2642 C2643 1.414 . S
C2642 C2645 1.499 . S
C2643 H2617 0.950 . S
C2643 C2642 1.414 . S
C2643 C2644 1.374 . S
C2644 H2618 0.950 . S
C2644 C2640 1.385 . S
C2644 C2643 1.374 . S
C2645 C2642 1.499 . S
C2645 C2646 1.373 . S
C2645 C2647 1.389 . S
C2646 H2619 0.950 . S
C2646 C2632 1.377 . S
C2646 C2645 1.373 . S
C2647 C2631 1.377 . S
C2647 C2645 1.389 . S
C2647 C2648 1.524 . S
C2648 C2647 1.524 . S
C2648 C2649 1.397 . S
C2648 C2653 1.363 . S
C2649 H2620 0.950 . S
C2649 C2648 1.397 . S
C2649 C2650 1.334 . S
C2650 H2621 0.950 . S
C2650 C2649 1.334 . S
C2650 C2651 1.287 . S
C2651 C2650 1.287 . S
C2651 C2652 1.524 . S
C2651 H2654 0.999 . S
C2652 H2622 0.950 . S
C2652 C2651 1.524 . S
C2652 C2653 1.415 . S
C2653 H2623 0.950 . S
C2653 C2648 1.363 . S
C2653 C2652 1.415 . S
H2654 C2651 0.999 . S
H2655 C2636 0.913 . S
H2656 C2674 0.951 . S
H2657 C2676 0.951 . S
H2658 C2678 0.950 . S
H2659 C2679 0.950 . S
H2660 C2681 0.950 . S
H2661 C2684 0.950 . S
H2662 C2685 0.950 . S
H2663 C2687 0.950 . S
H2664 C2688 0.950 . S
H2665 C2689 0.951 . S
H2666 C2691 0.951 . S
H2667 C2693 0.950 . S
H2668 C2694 0.950 . S
H2669 C2696 0.950 . S
H2670 C2699 0.950 . S
H2671 C2700 0.950 . S
H2672 C2702 0.950 . S
H2673 C2703 0.950 . S
C2674 H2656 0.951 . S
C2674 C2675 1.366 . S
C2674 C2676 1.388 . S
C2675 C2674 1.366 . S
C2675 C2679 1.385 . S
C2676 H2657 0.951 . S
C2676 C2674 1.388 . S
C2676 C2677 1.366 . S
C2677 C2676 1.366 . S
C2677 C2678 1.414 . S
C2677 C2680 1.499 . S
C2678 H2658 0.950 . S
C2678 C2677 1.414 . S
C2678 C2679 1.374 . S
C2679 H2659 0.950 . S
C2679 C2675 1.385 . S
C2679 C2678 1.374 . S
C2680 C2677 1.499 . S
C2680 C2681 1.373 . S
C2680 C2682 1.389 . S
C2681 H2660 0.950 . S
C2681 C2680 1.373 . S
C2681 C2697 1.377 . S
C2682 C2680 1.389 . S
C2682 C2683 1.524 . S
C2682 C2696 1.377 . S
C2683 C2682 1.524 . S
C2683 C2684 1.397 . S
C2683 C2688 1.363 . S
C2684 H2661 0.950 . S
C2684 C2683 1.397 . S
C2684 C2685 1.334 . S
C2685 H2662 0.950 . S
C2685 C2684 1.334 . S
C2685 C2686 1.287 . S
C2686 C2685 1.287 . S
C2686 C2687 1.524 . S
C2686 H2705 0.913 . S
C2687 H2663 0.950 . S
C2687 C2686 1.524 . S
C2687 C2688 1.415 . S
C2688 H2664 0.950 . S
C2688 C2683 1.363 . S
C2688 C2687 1.415 . S
C2689 H2665 0.951 . S
C2689 C2690 1.366 . S
C2689 C2691 1.388 . S
C2690 C2689 1.366 . S
C2690 C2694 1.385 . S
C2691 H2666 0.951 . S
C2691 C2689 1.388 . S
C2691 C2692 1.366 . S
C2692 C2691 1.366 . S
C2692 C2693 1.414 . S
C2692 C2695 1.499 . S
C2693 H2667 0.950 . S
C2693 C2692 1.414 . S
C2693 C2694 1.374 . S
C2694 H2668 0.950 . S
C2694 C2690 1.385 . S
C2694 C2693 1.374 . S
C2695 C2692 1.499 . S
C2695 C2696 1.373 . S
C2695 C2697 1.389 . S
C2696 H2669 0.950 . S
C2696 C2682 1.377 . S
C2696 C2695 1.373 . S
C2697 C2681 1.377 . S
C2697 C2695 1.389 . S
C2697 C2698 1.524 . S
C2698 C2697 1.524 . S
C2698 C2699 1.397 . S
C2698 C2703 1.363 . S
C2699 H2670 0.950 . S
C2699 C2698 1.397 . S
C2699 C2700 1.334 . S
C2700 H2671 0.950 . S
C2700 C2699 1.334 . S
C2700 C2701 1.287 . S
C2701 C2700 1.287 . S
C2701 C2702 1.524 . S
C2701 H2704 0.999 . S
C2702 H2672 0.950 . S
C2702 C2701 1.524 . S
C2702 C2703 1.415 . S
C2703 H2673 0.950 . S
C2703 C2698 1.363 . S
C2703 C2702 1.415 . S
H2704 C2701 0.999 . S
H2705 C2686 0.913 . S
H2706 C2724 0.951 . S
H2707 C2726 0.951 . S
H2708 C2728 0.950 . S
H2709 C2729 0.950 . S
H2710 C2731 0.950 . S
H2711 C2734 0.950 . S
H2712 C2735 0.950 . S
H2713 C2737 0.950 . S
H2714 C2738 0.950 1_655 S
H2715 C2739 0.951 . S
H2716 C2741 0.951 . S
H2717 C2743 0.950 . S
H2718 C2744 0.950 . S
H2719 C2746 0.964 . S
H2720 C2749 0.950 . S
H2721 C2750 0.950 . S
H2722 C2752 0.950 . S
H2723 C2753 0.950 . S
C2724 H2706 0.951 . S
C2724 C2725 1.366 . S
C2724 C2726 1.388 . S
C2725 C2724 1.366 . S
C2725 C2729 1.385 . S
C2726 H2707 0.951 . S
C2726 C2724 1.388 . S
C2726 C2727 1.366 . S
C2727 C2726 1.366 . S
C2727 C2728 1.414 . S
C2727 C2730 1.499 . S
C2728 H2708 0.950 . S
C2728 C2727 1.414 . S
C2728 C2729 1.374 . S
C2729 H2709 0.950 . S
C2729 C2725 1.385 . S
C2729 C2728 1.374 . S
C2730 C2727 1.499 . S
C2730 C2731 1.373 . S
C2730 C2732 1.389 . S
C2731 H2710 0.950 . S
C2731 C2730 1.373 . S
C2731 C2747 1.377 . S
C2732 C2730 1.389 . S
C2732 C2733 1.524 1_655 S
C2732 C2746 1.377 . S
C2733 C2732 1.524 1_455 S
C2733 C2734 1.397 . S
C2733 C2738 1.363 . S
C2734 H2711 0.950 . S
C2734 C2733 1.397 . S
C2734 C2735 1.334 . S
C2735 H2712 0.950 . S
C2735 C2734 1.334 . S
C2735 C2736 1.287 . S
C2736 C2735 1.287 . S
C2736 C2737 1.524 . S
C2736 H2755 0.913 . S
C2737 H2713 0.950 . S
C2737 C2736 1.524 . S
C2737 C2738 1.415 . S
C2738 H2714 0.950 1_455 S
C2738 C2733 1.363 . S
C2738 C2737 1.415 . S
C2739 H2715 0.951 . S
C2739 C2740 1.366 . S
C2739 C2741 1.388 . S
C2740 C2739 1.366 . S
C2740 C2744 1.385 . S
C2741 H2716 0.951 . S
C2741 C2739 1.388 . S
C2741 C2742 1.366 . S
C2742 C2741 1.366 . S
C2742 C2743 1.414 . S
C2742 C2745 1.499 . S
C2743 H2717 0.950 . S
C2743 C2742 1.414 . S
C2743 C2744 1.374 . S
C2744 H2718 0.950 . S
C2744 C2740 1.385 . S
C2744 C2743 1.374 . S
C2745 C2742 1.499 . S
C2745 C2746 1.373 . S
C2745 C2747 1.389 . S
C2746 H2719 0.964 . S
C2746 C2732 1.377 . S
C2746 C2745 1.373 . S
C2747 C2731 1.377 . S
C2747 C2745 1.389 . S
C2747 C2748 1.524 . S
C2748 C2747 1.524 . S
C2748 C2749 1.397 . S
C2748 C2753 1.363 . S
C2749 H2720 0.950 . S
C2749 C2748 1.397 . S
C2749 C2750 1.334 . S
C2750 H2721 0.950 . S
C2750 C2749 1.334 . S
C2750 C2751 1.287 . S
C2751 C2750 1.287 . S
C2751 C2752 1.524 . S
C2751 H2754 0.999 . S
C2752 H2722 0.950 . S
C2752 C2751 1.524 . S
C2752 C2753 1.415 . S
C2753 H2723 0.950 . S
C2753 C2748 1.363 . S
C2753 C2752 1.415 . S
H2754 C2751 0.999 . S
H2755 C2736 0.913 . S
H2756 C2774 0.951 . S
H2757 C2776 0.951 . S
H2758 C2778 0.950 . S
H2759 C2779 0.950 . S
H2760 C2781 0.950 . S
H2761 C2784 0.950 . S
H2762 C2785 0.950 . S
H2763 C2787 0.950 . S
H2764 C2788 0.950 . S
H2765 C2789 0.951 . S
H2766 C2791 0.951 . S
H2767 C2793 0.950 . S
H2768 C2794 0.950 . S
H2769 C2796 0.950 . S
H2770 C2799 0.950 . S
H2771 C2800 0.950 . S
H2772 C2802 0.950 . S
H2773 C2803 0.950 . S
C2774 H2756 0.951 . S
C2774 C2775 1.366 . S
C2774 C2776 1.388 . S
C2775 C2774 1.366 . S
C2775 C2779 1.385 . S
C2776 H2757 0.951 . S
C2776 C2774 1.388 . S
C2776 C2777 1.366 . S
C2777 C2776 1.366 . S
C2777 C2778 1.414 . S
C2777 C2780 1.499 . S
C2778 H2758 0.950 . S
C2778 C2777 1.414 . S
C2778 C2779 1.374 . S
C2779 H2759 0.950 . S
C2779 C2775 1.385 . S
C2779 C2778 1.374 . S
C2780 C2777 1.499 . S
C2780 C2781 1.373 . S
C2780 C2782 1.389 . S
C2781 H2760 0.950 . S
C2781 C2780 1.373 . S
C2781 C2797 1.377 . S
C2782 C2780 1.389 . S
C2782 C2783 1.524 . S
C2782 C2796 1.377 . S
C2783 C2782 1.524 . S
C2783 C2784 1.397 . S
C2783 C2788 1.363 . S
C2784 H2761 0.950 . S
C2784 C2783 1.397 . S
C2784 C2785 1.334 . S
C2785 H2762 0.950 . S
C2785 C2784 1.334 . S
C2785 C2786 1.287 . S
C2786 C2785 1.287 . S
C2786 C2787 1.524 . S
C2786 H2805 0.913 . S
C2787 H2763 0.950 . S
C2787 C2786 1.524 . S
C2787 C2788 1.415 . S
C2788 H2764 0.950 . S
C2788 C2783 1.363 . S
C2788 C2787 1.415 . S
C2789 H2765 0.951 . S
C2789 C2790 1.366 . S
C2789 C2791 1.388 . S
C2790 C2789 1.366 . S
C2790 C2794 1.385 . S
C2791 H2766 0.951 . S
C2791 C2789 1.388 . S
C2791 C2792 1.366 . S
C2792 C2791 1.366 . S
C2792 C2793 1.414 . S
C2792 C2795 1.499 . S
C2793 H2767 0.950 . S
C2793 C2792 1.414 . S
C2793 C2794 1.374 . S
C2794 H2768 0.950 . S
C2794 C2790 1.385 . S
C2794 C2793 1.374 . S
C2795 C2792 1.499 . S
C2795 C2796 1.373 . S
C2795 C2797 1.389 . S
C2796 H2769 0.950 . S
C2796 C2782 1.377 . S
C2796 C2795 1.373 . S
C2797 C2781 1.377 . S
C2797 C2795 1.389 . S
C2797 C2798 1.524 . S
C2798 C2797 1.524 . S
C2798 C2799 1.397 . S
C2798 C2803 1.363 . S
C2799 H2770 0.950 . S
C2799 C2798 1.397 . S
C2799 C2800 1.334 . S
C2800 H2771 0.950 . S
C2800 C2799 1.334 . S
C2800 C2801 1.287 . S
C2801 C2800 1.287 . S
C2801 C2802 1.524 . S
C2801 H2804 0.999 . S
C2802 H2772 0.950 . S
C2802 C2801 1.524 . S
C2802 C2803 1.415 . S
C2803 H2773 0.950 . S
C2803 C2798 1.363 . S
C2803 C2802 1.415 . S
H2804 C2801 0.999 . S
H2805 C2786 0.913 . S
H2806 C2824 0.951 . S
H2807 C2826 0.951 . S
H2808 C2828 0.950 . S
H2809 C2829 0.950 . S
H2810 C2831 0.950 . S
H2811 C2834 0.950 . S
H2812 C2835 0.950 . S
H2813 C2837 0.950 . S
H2814 C2838 0.950 . S
H2815 C2839 0.951 . S
H2816 C2841 0.951 . S
H2817 C2843 0.950 . S
H2818 C2844 0.950 . S
H2819 C2846 0.950 . S
H2820 C2849 0.950 . S
H2821 C2850 0.950 . S
H2822 C2852 0.950 . S
H2823 C2853 0.927 1_545 S
C2824 H2806 0.951 . S
C2824 C2825 1.366 . S
C2824 C2826 1.388 . S
C2825 C2824 1.366 . S
C2825 C2829 1.385 . S
C2826 H2807 0.951 . S
C2826 C2824 1.388 . S
C2826 C2827 1.366 . S
C2827 C2826 1.366 . S
C2827 C2828 1.414 . S
C2827 C2830 1.499 . S
C2828 H2808 0.950 . S
C2828 C2827 1.414 . S
C2828 C2829 1.374 . S
C2829 H2809 0.950 . S
C2829 C2825 1.385 . S
C2829 C2828 1.374 . S
C2830 C2827 1.499 . S
C2830 C2831 1.373 . S
C2830 C2832 1.389 . S
C2831 H2810 0.950 . S
C2831 C2830 1.373 . S
C2831 C2847 1.377 . S
C2832 C2830 1.389 . S
C2832 C2833 1.524 . S
C2832 C2846 1.377 . S
C2833 C2832 1.524 . S
C2833 C2834 1.397 . S
C2833 C2838 1.363 . S
C2834 H2811 0.950 . S
C2834 C2833 1.397 . S
C2834 C2835 1.334 . S
C2835 H2812 0.950 . S
C2835 C2834 1.334 . S
C2835 C2836 1.287 . S
C2836 C2835 1.287 . S
C2836 C2837 1.524 . S
C2836 H2855 0.913 . S
C2837 H2813 0.950 . S
C2837 C2836 1.524 . S
C2837 C2838 1.415 . S
C2838 H2814 0.950 . S
C2838 C2833 1.363 . S
C2838 C2837 1.415 . S
C2839 H2815 0.951 . S
C2839 C2840 1.366 . S
C2839 C2841 1.388 . S
C2840 C2839 1.366 . S
C2840 C2844 1.385 . S
C2841 H2816 0.951 . S
C2841 C2839 1.388 . S
C2841 C2842 1.366 . S
C2842 C2841 1.366 . S
C2842 C2843 1.414 . S
C2842 C2845 1.499 . S
C2843 H2817 0.950 . S
C2843 C2842 1.414 . S
C2843 C2844 1.374 . S
C2844 H2818 0.950 . S
C2844 C2840 1.385 . S
C2844 C2843 1.374 . S
C2845 C2842 1.499 . S
C2845 C2846 1.373 . S
C2845 C2847 1.389 . S
C2846 H2819 0.950 . S
C2846 C2832 1.377 . S
C2846 C2845 1.373 . S
C2847 C2831 1.377 . S
C2847 C2845 1.389 . S
C2847 C2848 1.524 1_545 S
C2848 C2847 1.524 1_565 S
C2848 C2849 1.397 . S
C2848 C2853 1.342 . S
C2849 H2820 0.950 . S
C2849 C2848 1.397 . S
C2849 C2850 1.334 . S
C2850 H2821 0.950 . S
C2850 C2849 1.334 . S
C2850 C2851 1.287 . S
C2851 C2850 1.287 . S
C2851 C2852 1.524 . S
C2851 H2854 0.999 . S
C2852 H2822 0.950 . S
C2852 C2851 1.524 . S
C2852 C2853 1.461 . S
C2853 H2823 0.927 1_565 S
C2853 C2848 1.342 . S
C2853 C2852 1.461 . S
H2854 C2851 0.999 . S
H2855 C2836 0.913 . S
H2856 C2874 0.951 . S
H2857 C2876 0.951 . S
H2858 C2878 0.950 . S
H2859 C2879 0.950 . S
H2860 C2881 0.950 . S
H2861 C2884 0.950 . S
H2862 C2885 0.950 . S
H2863 C2887 0.950 . S
H2864 C2888 0.950 . S
H2865 C2889 0.951 . S
H2866 C2891 0.951 . S
H2867 C2893 0.950 . S
H2868 C2894 0.950 . S
H2869 C2896 0.950 . S
H2870 C2899 0.950 . S
H2871 C2900 0.950 . S
H2872 C2902 0.950 . S
H2873 C2903 0.950 . S
C2874 H2856 0.951 . S
C2874 C2875 1.366 . S
C2874 C2876 1.388 . S
C2875 C2874 1.366 . S
C2875 C2879 1.385 . S
C2876 H2857 0.951 . S
C2876 C2874 1.388 . S
C2876 C2877 1.366 . S
C2877 C2876 1.366 . S
C2877 C2878 1.414 . S
C2877 C2880 1.499 . S
C2878 H2858 0.950 . S
C2878 C2877 1.414 . S
C2878 C2879 1.374 . S
C2879 H2859 0.950 . S
C2879 C2875 1.385 . S
C2879 C2878 1.374 . S
C2880 C2877 1.499 . S
C2880 C2881 1.373 . S
C2880 C2882 1.389 . S
C2881 H2860 0.950 . S
C2881 C2880 1.373 . S
C2881 C2897 1.377 . S
C2882 C2880 1.389 . S
C2882 C2883 1.524 . S
C2882 C2896 1.377 . S
C2883 C2882 1.524 . S
C2883 C2884 1.397 . S
C2883 C2888 1.363 . S
C2884 H2861 0.950 . S
C2884 C2883 1.397 . S
C2884 C2885 1.334 . S
C2885 H2862 0.950 . S
C2885 C2884 1.334 . S
C2885 C2886 1.287 . S
C2886 C2885 1.287 . S
C2886 C2887 1.524 . S
C2886 H2905 0.913 . S
C2887 H2863 0.950 . S
C2887 C2886 1.524 . S
C2887 C2888 1.415 . S
C2888 H2864 0.950 . S
C2888 C2883 1.363 . S
C2888 C2887 1.415 . S
C2889 H2865 0.951 . S
C2889 C2890 1.366 . S
C2889 C2891 1.388 . S
C2890 C2889 1.366 . S
C2890 C2894 1.385 . S
C2891 H2866 0.951 . S
C2891 C2889 1.388 . S
C2891 C2892 1.366 . S
C2892 C2891 1.366 . S
C2892 C2893 1.414 . S
C2892 C2895 1.499 . S
C2893 H2867 0.950 . S
C2893 C2892 1.414 . S
C2893 C2894 1.374 . S
C2894 H2868 0.950 . S
C2894 C2890 1.385 . S
C2894 C2893 1.374 . S
C2895 C2892 1.499 . S
C2895 C2896 1.373 . S
C2895 C2897 1.389 . S
C2896 H2869 0.950 . S
C2896 C2882 1.377 . S
C2896 C2895 1.373 . S
C2897 C2881 1.377 . S
C2897 C2895 1.389 . S
C2897 C2898 1.524 . S
C2898 C2897 1.524 . S
C2898 C2899 1.397 . S
C2898 C2903 1.363 . S
C2899 H2870 0.950 . S
C2899 C2898 1.397 . S
C2899 C2900 1.334 . S
C2900 H2871 0.950 . S
C2900 C2899 1.334 . S
C2900 C2901 1.287 . S
C2901 C2900 1.287 . S
C2901 C2902 1.524 . S
C2901 H2904 0.999 . S
C2902 H2872 0.950 . S
C2902 C2901 1.524 . S
C2902 C2903 1.415 . S
C2903 H2873 0.950 . S
C2903 C2898 1.363 . S
C2903 C2902 1.415 . S
H2904 C2901 0.999 . S
H2905 C2886 0.913 . S
H2906 C2924 0.951 . S
H2907 C2926 0.951 . S
H2908 C2928 0.950 . S
H2909 C2929 0.950 . S
H2910 C2931 0.950 . S
H2911 C2934 0.950 . S
H2912 C2935 0.950 . S
H2913 C2937 0.950 . S
H2914 C2938 0.950 . S
H2915 C2939 0.951 . S
H2916 C2941 0.951 . S
H2917 C2943 0.950 . S
H2918 C2944 0.950 . S
H2919 C2946 0.950 . S
H2920 C2949 0.950 . S
H2921 C2950 0.950 . S
H2922 C2952 0.950 . S
H2923 C2953 0.950 . S
C2924 H2906 0.951 . S
C2924 C2925 1.366 . S
C2924 C2926 1.388 . S
C2925 C2924 1.366 . S
C2925 C2929 1.385 . S
C2926 H2907 0.951 . S
C2926 C2924 1.388 . S
C2926 C2927 1.366 . S
C2927 C2926 1.366 . S
C2927 C2928 1.414 . S
C2927 C2930 1.499 . S
C2928 H2908 0.950 . S
C2928 C2927 1.414 . S
C2928 C2929 1.374 . S
C2929 H2909 0.950 . S
C2929 C2925 1.385 . S
C2929 C2928 1.374 . S
C2930 C2927 1.499 . S
C2930 C2931 1.373 . S
C2930 C2932 1.389 . S
C2931 H2910 0.950 . S
C2931 C2930 1.373 . S
C2931 C2947 1.377 . S
C2932 C2930 1.389 . S
C2932 C2933 1.524 . S
C2932 C2946 1.377 . S
C2933 C2932 1.524 . S
C2933 C2934 1.397 . S
C2933 C2938 1.363 . S
C2934 H2911 0.950 . S
C2934 C2933 1.397 . S
C2934 C2935 1.334 . S
C2935 H2912 0.950 . S
C2935 C2934 1.334 . S
C2935 C2936 1.287 . S
C2936 C2935 1.287 . S
C2936 C2937 1.524 . S
C2936 H2955 0.913 . S
C2937 H2913 0.950 . S
C2937 C2936 1.524 . S
C2937 C2938 1.415 . S
C2938 H2914 0.950 . S
C2938 C2933 1.363 . S
C2938 C2937 1.415 . S
C2939 H2915 0.951 . S
C2939 C2940 1.366 . S
C2939 C2941 1.388 . S
C2940 C2939 1.366 . S
C2940 C2944 1.385 . S
C2941 H2916 0.951 . S
C2941 C2939 1.388 . S
C2941 C2942 1.366 . S
C2942 C2941 1.366 . S
C2942 C2943 1.414 . S
C2942 C2945 1.499 . S
C2943 H2917 0.950 . S
C2943 C2942 1.414 . S
C2943 C2944 1.374 . S
C2944 H2918 0.950 . S
C2944 C2940 1.385 . S
C2944 C2943 1.374 . S
C2945 C2942 1.499 . S
C2945 C2946 1.373 . S
C2945 C2947 1.389 . S
C2946 H2919 0.950 . S
C2946 C2932 1.377 . S
C2946 C2945 1.373 . S
C2947 C2931 1.377 . S
C2947 C2945 1.389 . S
C2947 C2948 1.524 . S
C2948 C2947 1.524 . S
C2948 C2949 1.397 . S
C2948 C2953 1.363 . S
C2949 H2920 0.950 . S
C2949 C2948 1.397 . S
C2949 C2950 1.334 . S
C2950 H2921 0.950 . S
C2950 C2949 1.334 . S
C2950 C2951 1.287 . S
C2951 C2950 1.287 . S
C2951 C2952 1.524 . S
C2951 H2954 0.999 . S
C2952 H2922 0.950 . S
C2952 C2951 1.524 . S
C2952 C2953 1.415 . S
C2953 H2923 0.950 . S
C2953 C2948 1.363 . S
C2953 C2952 1.415 . S
H2954 C2951 0.999 . S
H2955 C2936 0.913 . S
H2956 C2974 0.951 . S
H2957 C2976 0.951 . S
H2958 C2978 0.950 . S
H2959 C2979 0.950 . S
H2960 C2981 0.950 . S
H2961 C2984 0.950 . S
H2962 C2985 0.950 . S
H2963 C2987 0.950 . S
H2964 C2988 0.950 . S
H2965 C2989 0.951 . S
H2966 C2991 0.951 . S
H2967 C2993 0.950 . S
H2968 C2994 0.950 . S
H2969 C2996 0.950 . S
H2970 C2999 0.950 . S
H2971 C3000 0.950 . S
H2972 C3002 0.950 . S
H2973 C3003 0.950 . S
C2974 H2956 0.951 . S
C2974 C2975 1.366 . S
C2974 C2976 1.388 . S
C2975 C2974 1.366 . S
C2975 C2979 1.385 . S
C2976 H2957 0.951 . S
C2976 C2974 1.388 . S
C2976 C2977 1.366 . S
C2977 C2976 1.366 . S
C2977 C2978 1.414 . S
C2977 C2980 1.499 . S
C2978 H2958 0.950 . S
C2978 C2977 1.414 . S
C2978 C2979 1.374 . S
C2979 H2959 0.950 . S
C2979 C2975 1.385 . S
C2979 C2978 1.374 . S
C2980 C2977 1.499 . S
C2980 C2981 1.373 . S
C2980 C2982 1.389 . S
C2981 H2960 0.950 . S
C2981 C2980 1.373 . S
C2981 C2997 1.377 . S
C2982 C2980 1.389 . S
C2982 C2983 1.524 . S
C2982 C2996 1.377 . S
C2983 C2982 1.524 . S
C2983 C2984 1.397 . S
C2983 C2988 1.363 . S
C2984 H2961 0.950 . S
C2984 C2983 1.397 . S
C2984 C2985 1.334 . S
C2985 H2962 0.950 . S
C2985 C2984 1.334 . S
C2985 C2986 1.287 . S
C2986 C2985 1.287 . S
C2986 C2987 1.524 . S
C2986 H3005 0.913 . S
C2987 H2963 0.950 . S
C2987 C2986 1.524 . S
C2987 C2988 1.415 . S
C2988 H2964 0.950 . S
C2988 C2983 1.363 . S
C2988 C2987 1.415 . S
C2989 H2965 0.951 . S
C2989 C2990 1.366 . S
C2989 C2991 1.388 . S
C2990 C2989 1.366 . S
C2990 C2994 1.385 . S
C2991 H2966 0.951 . S
C2991 C2989 1.388 . S
C2991 C2992 1.366 . S
C2992 C2991 1.366 . S
C2992 C2993 1.414 . S
C2992 C2995 1.499 . S
C2993 H2967 0.950 . S
C2993 C2992 1.414 . S
C2993 C2994 1.374 . S
C2994 H2968 0.950 . S
C2994 C2990 1.385 . S
C2994 C2993 1.374 . S
C2995 C2992 1.499 . S
C2995 C2996 1.373 . S
C2995 C2997 1.389 . S
C2996 H2969 0.950 . S
C2996 C2982 1.377 . S
C2996 C2995 1.373 . S
C2997 C2981 1.377 . S
C2997 C2995 1.389 . S
C2997 C2998 1.524 . S
C2998 C2997 1.524 . S
C2998 C2999 1.397 . S
C2998 C3003 1.363 . S
C2999 H2970 0.950 . S
C2999 C2998 1.397 . S
C2999 C3000 1.334 . S
C3000 H2971 0.950 . S
C3000 C2999 1.334 . S
C3000 C3001 1.287 . S
C3001 C3000 1.287 . S
C3001 C3002 1.524 . S
C3001 H3004 0.999 . S
C3002 H2972 0.950 . S
C3002 C3001 1.524 . S
C3002 C3003 1.415 . S
C3003 H2973 0.950 . S
C3003 C2998 1.363 . S
C3003 C3002 1.415 . S
H3004 C3001 0.999 . S
H3005 C2986 0.913 . S
H3006 C3024 0.951 . S
H3007 C3026 0.951 . S
H3008 C3028 0.950 . S
H3009 C3029 0.950 . S
H3010 C3031 0.950 . S
H3011 C3034 0.950 . S
H3012 C3035 0.950 . S
H3013 C3037 0.950 . S
H3014 C3038 0.950 . S
H3015 C3039 0.951 . S
H3016 C3041 0.951 . S
H3017 C3043 0.950 . S
H3018 C3044 0.950 . S
H3019 C3046 0.950 . S
H3020 C3049 0.950 . S
H3021 C3050 0.950 . S
H3022 C3052 0.950 . S
H3023 C3053 0.950 . S
C3024 H3006 0.951 . S
C3024 C3025 1.366 . S
C3024 C3026 1.388 . S
C3025 C3024 1.366 . S
C3025 C3029 1.385 . S
C3026 H3007 0.951 . S
C3026 C3024 1.388 . S
C3026 C3027 1.366 . S
C3027 C3026 1.366 . S
C3027 C3028 1.414 . S
C3027 C3030 1.499 . S
C3028 H3008 0.950 . S
C3028 C3027 1.414 . S
C3028 C3029 1.374 . S
C3029 H3009 0.950 . S
C3029 C3025 1.385 . S
C3029 C3028 1.374 . S
C3030 C3027 1.499 . S
C3030 C3031 1.373 . S
C3030 C3032 1.389 . S
C3031 H3010 0.950 . S
C3031 C3030 1.373 . S
C3031 C3047 1.377 . S
C3032 C3030 1.389 . S
C3032 C3033 1.524 . S
C3032 C3046 1.377 . S
C3033 C3032 1.524 . S
C3033 C3034 1.397 . S
C3033 C3038 1.363 . S
C3034 H3011 0.950 . S
C3034 C3033 1.397 . S
C3034 C3035 1.334 . S
C3035 H3012 0.950 . S
C3035 C3034 1.334 . S
C3035 C3036 1.287 . S
C3036 C3035 1.287 . S
C3036 C3037 1.524 . S
C3036 H3055 0.913 . S
C3037 H3013 0.950 . S
C3037 C3036 1.524 . S
C3037 C3038 1.415 . S
C3038 H3014 0.950 . S
C3038 C3033 1.363 . S
C3038 C3037 1.415 . S
C3039 H3015 0.951 . S
C3039 C3040 1.366 . S
C3039 C3041 1.388 . S
C3040 C3039 1.366 . S
C3040 C3044 1.385 . S
C3041 H3016 0.951 . S
C3041 C3039 1.388 . S
C3041 C3042 1.366 . S
C3042 C3041 1.366 . S
C3042 C3043 1.414 . S
C3042 C3045 1.499 . S
C3043 H3017 0.950 . S
C3043 C3042 1.414 . S
C3043 C3044 1.374 . S
C3044 H3018 0.950 . S
C3044 C3040 1.385 . S
C3044 C3043 1.374 . S
C3045 C3042 1.499 . S
C3045 C3046 1.373 . S
C3045 C3047 1.389 . S
C3046 H3019 0.950 . S
C3046 C3032 1.377 . S
C3046 C3045 1.373 . S
C3047 C3031 1.377 . S
C3047 C3045 1.389 . S
C3047 C3048 1.524 . S
C3048 C3047 1.524 . S
C3048 C3049 1.397 . S
C3048 C3053 1.363 . S
C3049 H3020 0.950 . S
C3049 C3048 1.397 . S
C3049 C3050 1.334 . S
C3050 H3021 0.950 . S
C3050 C3049 1.334 . S
C3050 C3051 1.287 . S
C3051 C3050 1.287 . S
C3051 C3052 1.524 . S
C3051 H3054 0.999 . S
C3052 H3022 0.950 . S
C3052 C3051 1.524 . S
C3052 C3053 1.415 . S
C3053 H3023 0.950 . S
C3053 C3048 1.363 . S
C3053 C3052 1.415 . S
H3054 C3051 0.999 . S
H3055 C3036 0.913 . S
H3056 C3074 0.951 . S
H3057 C3076 0.951 . S
H3058 C3078 0.950 . S
H3059 C3079 0.950 . S
H3060 C3081 0.950 . S
H3061 C3084 0.950 . S
H3062 C3085 0.950 . S
H3063 C3087 0.950 . S
H3064 C3088 0.950 . S
H3065 C3089 0.951 . S
H3066 C3091 0.951 . S
H3067 C3093 0.950 . S
H3068 C3094 0.950 . S
H3069 C3096 0.950 . S
H3070 C3099 0.950 . S
H3071 C3100 0.950 . S
H3072 C3102 0.950 . S
H3073 C3103 0.950 . S
C3074 H3056 0.951 . S
C3074 C3075 1.366 . S
C3074 C3076 1.388 . S
C3075 C3074 1.366 . S
C3075 C3079 1.385 . S
C3076 H3057 0.951 . S
C3076 C3074 1.388 . S
C3076 C3077 1.366 . S
C3077 C3076 1.366 . S
C3077 C3078 1.414 . S
C3077 C3080 1.499 . S
C3078 H3058 0.950 . S
C3078 C3077 1.414 . S
C3078 C3079 1.374 . S
C3079 H3059 0.950 . S
C3079 C3075 1.385 . S
C3079 C3078 1.374 . S
C3080 C3077 1.499 . S
C3080 C3081 1.373 . S
C3080 C3082 1.389 . S
C3081 H3060 0.950 . S
C3081 C3080 1.373 . S
C3081 C3097 1.377 . S
C3082 C3080 1.389 . S
C3082 C3083 1.524 . S
C3082 C3096 1.377 . S
C3083 C3082 1.524 . S
C3083 C3084 1.397 . S
C3083 C3088 1.363 . S
C3084 H3061 0.950 . S
C3084 C3083 1.397 . S
C3084 C3085 1.334 . S
C3085 H3062 0.950 . S
C3085 C3084 1.334 . S
C3085 C3086 1.287 . S
C3086 C3085 1.287 . S
C3086 C3087 1.524 . S
C3086 H3105 0.913 . S
C3087 H3063 0.950 . S
C3087 C3086 1.524 . S
C3087 C3088 1.415 . S
C3088 H3064 0.950 . S
C3088 C3083 1.363 . S
C3088 C3087 1.415 . S
C3089 H3065 0.951 . S
C3089 C3090 1.366 . S
C3089 C3091 1.388 . S
C3090 C3089 1.366 . S
C3090 C3094 1.385 . S
C3091 H3066 0.951 . S
C3091 C3089 1.388 . S
C3091 C3092 1.366 . S
C3092 C3091 1.366 . S
C3092 C3093 1.414 . S
C3092 C3095 1.499 . S
C3093 H3067 0.950 . S
C3093 C3092 1.414 . S
C3093 C3094 1.374 . S
C3094 H3068 0.950 . S
C3094 C3090 1.385 . S
C3094 C3093 1.374 . S
C3095 C3092 1.499 . S
C3095 C3096 1.373 . S
C3095 C3097 1.389 . S
C3096 H3069 0.950 . S
C3096 C3082 1.377 . S
C3096 C3095 1.373 . S
C3097 C3081 1.377 . S
C3097 C3095 1.389 . S
C3097 C3098 1.524 . S
C3098 C3097 1.524 . S
C3098 C3099 1.397 . S
C3098 C3103 1.363 . S
C3099 H3070 0.950 . S
C3099 C3098 1.397 . S
C3099 C3100 1.334 . S
C3100 H3071 0.950 . S
C3100 C3099 1.334 . S
C3100 C3101 1.287 . S
C3101 C3100 1.287 . S
C3101 C3102 1.524 . S
C3101 H3104 0.999 . S
C3102 H3072 0.950 . S
C3102 C3101 1.524 . S
C3102 C3103 1.415 . S
C3103 H3073 0.950 . S
C3103 C3098 1.363 . S
C3103 C3102 1.415 . S
H3104 C3101 0.999 . S
H3105 C3086 0.913 . S
H3106 C3124 0.951 . S
H3107 C3126 0.951 . S
H3108 C3128 0.950 . S
H3109 C3129 0.950 . S
H3110 C3131 0.950 . S
H3111 C3134 0.950 . S
H3112 C3135 0.950 . S
H3113 C3137 0.950 . S
H3114 C3138 0.950 . S
H3115 C3139 0.951 . S
H3116 C3141 0.951 . S
H3117 C3143 0.950 . S
H3118 C3144 0.950 . S
H3119 C3146 0.950 . S
H3120 C3149 0.950 . S
H3121 C3150 0.950 . S
H3122 C3152 0.950 . S
H3123 C3153 0.950 . S
C3124 H3106 0.951 . S
C3124 C3125 1.366 . S
C3124 C3126 1.388 . S
C3125 C3124 1.366 . S
C3125 C3129 1.385 . S
C3126 H3107 0.951 . S
C3126 C3124 1.388 . S
C3126 C3127 1.366 . S
C3127 C3126 1.366 . S
C3127 C3128 1.414 . S
C3127 C3130 1.499 . S
C3128 H3108 0.950 . S
C3128 C3127 1.414 . S
C3128 C3129 1.374 . S
C3129 H3109 0.950 . S
C3129 C3125 1.385 . S
C3129 C3128 1.374 . S
C3130 C3127 1.499 . S
C3130 C3131 1.373 . S
C3130 C3132 1.389 . S
C3131 H3110 0.950 . S
C3131 C3130 1.373 . S
C3131 C3147 1.377 . S
C3132 C3130 1.389 . S
C3132 C3133 1.524 . S
C3132 C3146 1.377 . S
C3133 C3132 1.524 . S
C3133 C3134 1.397 . S
C3133 C3138 1.363 . S
C3134 H3111 0.950 . S
C3134 C3133 1.397 . S
C3134 C3135 1.334 . S
C3135 H3112 0.950 . S
C3135 C3134 1.334 . S
C3135 C3136 1.287 . S
C3136 C3135 1.287 . S
C3136 C3137 1.524 . S
C3136 H3155 0.913 . S
C3137 H3113 0.950 . S
C3137 C3136 1.524 . S
C3137 C3138 1.415 . S
C3138 H3114 0.950 . S
C3138 C3133 1.363 . S
C3138 C3137 1.415 . S
C3139 H3115 0.951 . S
C3139 C3140 1.366 . S
C3139 C3141 1.388 . S
C3140 C3139 1.366 . S
C3140 C3144 1.385 . S
C3141 H3116 0.951 . S
C3141 C3139 1.388 . S
C3141 C3142 1.366 . S
C3142 C3141 1.366 . S
C3142 C3143 1.414 . S
C3142 C3145 1.499 . S
C3143 H3117 0.950 . S
C3143 C3142 1.414 . S
C3143 C3144 1.374 . S
C3144 H3118 0.950 . S
C3144 C3140 1.385 . S
C3144 C3143 1.374 . S
C3145 C3142 1.499 . S
C3145 C3146 1.373 . S
C3145 C3147 1.389 . S
C3146 H3119 0.950 . S
C3146 C3132 1.377 . S
C3146 C3145 1.373 . S
C3147 C3131 1.377 . S
C3147 C3145 1.389 . S
C3147 C3148 1.524 . S
C3148 C3147 1.524 . S
C3148 C3149 1.397 . S
C3148 C3153 1.363 . S
C3149 H3120 0.950 . S
C3149 C3148 1.397 . S
C3149 C3150 1.334 . S
C3150 H3121 0.950 . S
C3150 C3149 1.334 . S
C3150 C3151 1.287 . S
C3151 C3150 1.287 . S
C3151 C3152 1.524 . S
C3151 H3154 0.999 . S
C3152 H3122 0.950 . S
C3152 C3151 1.524 . S
C3152 C3153 1.415 . S
C3153 H3123 0.950 . S
C3153 C3148 1.363 . S
C3153 C3152 1.415 . S
H3154 C3151 0.999 . S
H3155 C3136 0.913 . S
H3156 C3174 0.951 . S
H3157 C3176 0.951 . S
H3158 C3178 0.950 . S
H3159 C3179 0.950 . S
H3160 C3181 0.950 . S
H3161 C3184 0.950 . S
H3162 C3185 0.950 . S
H3163 C3187 0.950 . S
H3164 C3188 0.950 . S
H3165 C3189 0.951 . S
H3166 C3191 0.951 . S
H3167 C3193 0.950 . S
H3168 C3194 0.950 . S
H3169 C3196 0.950 . S
H3170 C3199 0.950 . S
H3171 C3200 0.950 . S
H3172 C3202 0.950 . S
H3173 C3203 0.950 . S
C3174 H3156 0.951 . S
C3174 C3175 1.366 . S
C3174 C3176 1.388 . S
C3175 C3174 1.366 . S
C3175 C3179 1.385 . S
C3176 H3157 0.951 . S
C3176 C3174 1.388 . S
C3176 C3177 1.366 . S
C3177 C3176 1.366 . S
C3177 C3178 1.414 . S
C3177 C3180 1.499 . S
C3178 H3158 0.950 . S
C3178 C3177 1.414 . S
C3178 C3179 1.374 . S
C3179 H3159 0.950 . S
C3179 C3175 1.385 . S
C3179 C3178 1.374 . S
C3180 C3177 1.499 . S
C3180 C3181 1.373 . S
C3180 C3182 1.389 . S
C3181 H3160 0.950 . S
C3181 C3180 1.373 . S
C3181 C3197 1.377 . S
C3182 C3180 1.389 . S
C3182 C3183 1.524 . S
C3182 C3196 1.377 . S
C3183 C3182 1.524 . S
C3183 C3184 1.397 . S
C3183 C3188 1.363 . S
C3184 H3161 0.950 . S
C3184 C3183 1.397 . S
C3184 C3185 1.334 . S
C3185 H3162 0.950 . S
C3185 C3184 1.334 . S
C3185 C3186 1.287 . S
C3186 C3185 1.287 . S
C3186 C3187 1.524 . S
C3186 H3205 0.913 . S
C3187 H3163 0.950 . S
C3187 C3186 1.524 . S
C3187 C3188 1.415 . S
C3188 H3164 0.950 . S
C3188 C3183 1.363 . S
C3188 C3187 1.415 . S
C3189 H3165 0.951 . S
C3189 C3190 1.366 . S
C3189 C3191 1.388 . S
C3190 C3189 1.366 . S
C3190 C3194 1.385 . S
C3191 H3166 0.951 . S
C3191 C3189 1.388 . S
C3191 C3192 1.366 . S
C3192 C3191 1.366 . S
C3192 C3193 1.414 . S
C3192 C3195 1.499 . S
C3193 H3167 0.950 . S
C3193 C3192 1.414 . S
C3193 C3194 1.374 . S
C3194 H3168 0.950 . S
C3194 C3190 1.385 . S
C3194 C3193 1.374 . S
C3195 C3192 1.499 . S
C3195 C3196 1.373 . S
C3195 C3197 1.389 . S
C3196 H3169 0.950 . S
C3196 C3182 1.377 . S
C3196 C3195 1.373 . S
C3197 C3181 1.377 . S
C3197 C3195 1.389 . S
C3197 C3198 1.524 . S
C3198 C3197 1.524 . S
C3198 C3199 1.397 . S
C3198 C3203 1.363 . S
C3199 H3170 0.950 . S
C3199 C3198 1.397 . S
C3199 C3200 1.334 . S
C3200 H3171 0.950 . S
C3200 C3199 1.334 . S
C3200 C3201 1.287 . S
C3201 C3200 1.287 . S
C3201 C3202 1.524 . S
C3201 H3204 0.999 . S
C3202 H3172 0.950 . S
C3202 C3201 1.524 . S
C3202 C3203 1.415 . S
C3203 H3173 0.950 . S
C3203 C3198 1.363 . S
C3203 C3202 1.415 . S
H3204 C3201 0.999 . S
H3205 C3186 0.913 . S
H3206 C3224 0.951 . S
H3207 C3226 0.951 . S
H3208 C3228 0.950 . S
H3209 C3229 0.950 . S
H3210 C3231 0.950 . S
H3211 C3234 0.950 . S
H3212 C3235 0.950 . S
H3213 C3237 0.950 . S
H3214 C3238 0.950 . S
H3215 C3239 0.951 . S
H3216 C3241 0.951 . S
H3217 C3243 0.950 . S
H3218 C3244 0.950 . S
H3219 C3246 0.950 . S
H3220 C3249 0.950 . S
H3221 C3250 0.950 . S
H3222 C3252 0.950 . S
H3223 C3253 0.950 . S
C3224 H3206 0.951 . S
C3224 C3225 1.366 . S
C3224 C3226 1.388 . S
C3225 C3224 1.366 . S
C3225 C3229 1.385 . S
C3226 H3207 0.951 . S
C3226 C3224 1.388 . S
C3226 C3227 1.366 . S
C3227 C3226 1.366 . S
C3227 C3228 1.414 . S
C3227 C3230 1.499 . S
C3228 H3208 0.950 . S
C3228 C3227 1.414 . S
C3228 C3229 1.374 . S
C3229 H3209 0.950 . S
C3229 C3225 1.385 . S
C3229 C3228 1.374 . S
C3230 C3227 1.499 . S
C3230 C3231 1.373 . S
C3230 C3232 1.389 . S
C3231 H3210 0.950 . S
C3231 C3230 1.373 . S
C3231 C3247 1.377 . S
C3232 C3230 1.389 . S
C3232 C3233 1.524 . S
C3232 C3246 1.377 . S
C3233 C3232 1.524 . S
C3233 C3234 1.397 . S
C3233 C3238 1.363 . S
C3234 H3211 0.950 . S
C3234 C3233 1.397 . S
C3234 C3235 1.334 . S
C3235 H3212 0.950 . S
C3235 C3234 1.334 . S
C3235 C3236 1.287 . S
C3236 C3235 1.287 . S
C3236 C3237 1.524 . S
C3236 H3255 0.913 . S
C3237 H3213 0.950 . S
C3237 C3236 1.524 . S
C3237 C3238 1.415 . S
C3238 H3214 0.950 . S
C3238 C3233 1.363 . S
C3238 C3237 1.415 . S
C3239 H3215 0.951 . S
C3239 C3240 1.366 . S
C3239 C3241 1.388 . S
C3240 C3239 1.366 . S
C3240 C3244 1.385 . S
C3241 H3216 0.951 . S
C3241 C3239 1.388 . S
C3241 C3242 1.366 . S
C3242 C3241 1.366 . S
C3242 C3243 1.414 . S
C3242 C3245 1.499 . S
C3243 H3217 0.950 . S
C3243 C3242 1.414 . S
C3243 C3244 1.374 . S
C3244 H3218 0.950 . S
C3244 C3240 1.385 . S
C3244 C3243 1.374 . S
C3245 C3242 1.499 . S
C3245 C3246 1.373 . S
C3245 C3247 1.389 . S
C3246 H3219 0.950 . S
C3246 C3232 1.377 . S
C3246 C3245 1.373 . S
C3247 C3231 1.377 . S
C3247 C3245 1.389 . S
C3247 C3248 1.524 . S
C3248 C3247 1.524 . S
C3248 C3249 1.397 . S
C3248 C3253 1.363 . S
C3249 H3220 0.950 . S
C3249 C3248 1.397 . S
C3249 C3250 1.334 . S
C3250 H3221 0.950 . S
C3250 C3249 1.334 . S
C3250 C3251 1.287 . S
C3251 C3250 1.287 . S
C3251 C3252 1.524 . S
C3251 H3254 0.999 . S
C3252 H3222 0.950 . S
C3252 C3251 1.524 . S
C3252 C3253 1.415 . S
C3253 H3223 0.950 . S
C3253 C3248 1.363 . S
C3253 C3252 1.415 . S
H3254 C3251 0.999 . S
H3255 C3236 0.913 . S
H3256 C3274 0.951 . S
H3257 C3276 0.951 . S
H3258 C3278 0.950 . S
H3259 C3279 0.950 . S
H3260 C3281 0.950 . S
H3261 C3284 0.950 . S
H3262 C3285 0.950 . S
H3263 C3287 0.950 . S
H3264 C3288 0.950 . S
H3265 C3289 0.951 . S
H3266 C3291 0.951 . S
H3267 C3293 0.950 . S
H3268 C3294 0.950 . S
H3269 C3296 0.950 . S
H3270 C3299 0.950 . S
H3271 C3300 0.950 . S
H3272 C3302 0.950 . S
H3273 C3303 0.950 . S
C3274 H3256 0.951 . S
C3274 C3275 1.366 . S
C3274 C3276 1.388 . S
C3275 C3274 1.366 . S
C3275 C3279 1.385 . S
C3276 H3257 0.951 . S
C3276 C3274 1.388 . S
C3276 C3277 1.366 . S
C3277 C3276 1.366 . S
C3277 C3278 1.414 . S
C3277 C3280 1.499 . S
C3278 H3258 0.950 . S
C3278 C3277 1.414 . S
C3278 C3279 1.374 . S
C3279 H3259 0.950 . S
C3279 C3275 1.385 . S
C3279 C3278 1.374 . S
C3280 C3277 1.499 . S
C3280 C3281 1.373 . S
C3280 C3282 1.389 . S
C3281 H3260 0.950 . S
C3281 C3280 1.373 . S
C3281 C3297 1.377 . S
C3282 C3280 1.389 . S
C3282 C3283 1.524 . S
C3282 C3296 1.377 . S
C3283 C3282 1.524 . S
C3283 C3284 1.397 . S
C3283 C3288 1.363 . S
C3284 H3261 0.950 . S
C3284 C3283 1.397 . S
C3284 C3285 1.334 . S
C3285 H3262 0.950 . S
C3285 C3284 1.334 . S
C3285 C3286 1.287 . S
C3286 C3285 1.287 . S
C3286 C3287 1.524 . S
C3286 H3305 0.913 . S
C3287 H3263 0.950 . S
C3287 C3286 1.524 . S
C3287 C3288 1.415 . S
C3288 H3264 0.950 . S
C3288 C3283 1.363 . S
C3288 C3287 1.415 . S
C3289 H3265 0.951 . S
C3289 C3290 1.366 . S
C3289 C3291 1.388 . S
C3290 C3289 1.366 . S
C3290 C3294 1.385 . S
C3291 H3266 0.951 . S
C3291 C3289 1.388 . S
C3291 C3292 1.366 . S
C3292 C3291 1.366 . S
C3292 C3293 1.414 . S
C3292 C3295 1.499 . S
C3293 H3267 0.950 . S
C3293 C3292 1.414 . S
C3293 C3294 1.374 . S
C3294 H3268 0.950 . S
C3294 C3290 1.385 . S
C3294 C3293 1.374 . S
C3295 C3292 1.499 . S
C3295 C3296 1.373 . S
C3295 C3297 1.389 . S
C3296 H3269 0.950 . S
C3296 C3282 1.377 . S
C3296 C3295 1.373 . S
C3297 C3281 1.377 . S
C3297 C3295 1.389 . S
C3297 C3298 1.524 . S
C3298 C3297 1.524 . S
C3298 C3299 1.397 . S
C3298 C3303 1.363 . S
C3299 H3270 0.950 . S
C3299 C3298 1.397 . S
C3299 C3300 1.334 . S
C3300 H3271 0.950 . S
C3300 C3299 1.334 . S
C3300 C3301 1.287 . S
C3301 C3300 1.287 . S
C3301 C3302 1.524 . S
C3301 H3304 0.999 . S
C3302 H3272 0.950 . S
C3302 C3301 1.524 . S
C3302 C3303 1.415 . S
C3303 H3273 0.950 . S
C3303 C3298 1.363 . S
C3303 C3302 1.415 . S
H3304 C3301 0.999 . S
H3305 C3286 0.913 . S
H3306 C3324 0.951 . S
H3307 C3326 0.951 . S
H3308 C3328 0.950 . S
H3309 C3329 0.950 . S
H3310 C3331 0.950 . S
H3311 C3334 0.950 . S
H3312 C3335 0.950 . S
H3313 C3337 0.950 . S
H3314 C3338 0.950 . S
H3315 C3339 0.951 . S
H3316 C3341 0.951 . S
H3317 C3343 0.950 . S
H3318 C3344 0.950 . S
H3319 C3346 0.950 . S
H3320 C3349 0.950 . S
H3321 C3350 0.950 . S
H3322 C3352 0.950 . S
H3323 C3353 0.950 . S
C3324 H3306 0.951 . S
C3324 C3325 1.366 . S
C3324 C3326 1.388 . S
C3325 C3324 1.366 . S
C3325 C3329 1.385 . S
C3326 H3307 0.951 . S
C3326 C3324 1.388 . S
C3326 C3327 1.366 . S
C3327 C3326 1.366 . S
C3327 C3328 1.414 . S
C3327 C3330 1.499 . S
C3328 H3308 0.950 . S
C3328 C3327 1.414 . S
C3328 C3329 1.374 . S
C3329 H3309 0.950 . S
C3329 C3325 1.385 . S
C3329 C3328 1.374 . S
C3330 C3327 1.499 . S
C3330 C3331 1.373 . S
C3330 C3332 1.389 . S
C3331 H3310 0.950 . S
C3331 C3330 1.373 . S
C3331 C3347 1.377 . S
C3332 C3330 1.389 . S
C3332 C3333 1.524 . S
C3332 C3346 1.377 . S
C3333 C3332 1.524 . S
C3333 C3334 1.397 . S
C3333 C3338 1.363 . S
C3334 H3311 0.950 . S
C3334 C3333 1.397 . S
C3334 C3335 1.334 . S
C3335 H3312 0.950 . S
C3335 C3334 1.334 . S
C3335 C3336 1.287 . S
C3336 C3335 1.287 . S
C3336 C3337 1.524 . S
C3336 H3355 0.913 . S
C3337 H3313 0.950 . S
C3337 C3336 1.524 . S
C3337 C3338 1.415 . S
C3338 H3314 0.950 . S
C3338 C3333 1.363 . S
C3338 C3337 1.415 . S
C3339 H3315 0.951 . S
C3339 C3340 1.366 . S
C3339 C3341 1.388 . S
C3340 C3339 1.366 . S
C3340 C3344 1.385 . S
C3341 H3316 0.951 . S
C3341 C3339 1.388 . S
C3341 C3342 1.366 . S
C3342 C3341 1.366 . S
C3342 C3343 1.414 . S
C3342 C3345 1.499 . S
C3343 H3317 0.950 . S
C3343 C3342 1.414 . S
C3343 C3344 1.374 . S
C3344 H3318 0.950 . S
C3344 C3340 1.385 . S
C3344 C3343 1.374 . S
C3345 C3342 1.499 . S
C3345 C3346 1.373 . S
C3345 C3347 1.389 . S
C3346 H3319 0.950 . S
C3346 C3332 1.377 . S
C3346 C3345 1.373 . S
C3347 C3331 1.377 . S
C3347 C3345 1.389 . S
C3347 C3348 1.524 . S
C3348 C3347 1.524 . S
C3348 C3349 1.397 . S
C3348 C3353 1.363 . S
C3349 H3320 0.950 . S
C3349 C3348 1.397 . S
C3349 C3350 1.334 . S
C3350 H3321 0.950 . S
C3350 C3349 1.334 . S
C3350 C3351 1.287 . S
C3351 C3350 1.287 . S
C3351 C3352 1.524 . S
C3351 H3354 0.999 . S
C3352 H3322 0.950 . S
C3352 C3351 1.524 . S
C3352 C3353 1.415 . S
C3353 H3323 0.950 . S
C3353 C3348 1.363 . S
C3353 C3352 1.415 . S
H3354 C3351 0.999 . S
H3355 C3336 0.913 . S
H3356 C3374 0.951 . S
H3357 C3376 0.951 . S
H3358 C3378 0.950 . S
H3359 C3379 0.950 . S
H3360 C3381 0.950 . S
H3361 C3384 0.950 . S
H3362 C3385 0.950 . S
H3363 C3387 0.950 . S
H3364 C3388 0.950 . S
H3365 C3389 0.951 . S
H3366 C3391 0.951 . S
H3367 C3393 0.950 . S
H3368 C3394 0.950 . S
H3369 C3396 0.950 . S
H3370 C3399 0.950 . S
H3371 C3400 0.950 . S
H3372 C3402 0.950 . S
H3373 C3403 0.950 . S
C3374 H3356 0.951 . S
C3374 C3375 1.366 . S
C3374 C3376 1.388 . S
C3375 C3374 1.366 . S
C3375 C3379 1.385 . S
C3376 H3357 0.951 . S
C3376 C3374 1.388 . S
C3376 C3377 1.366 . S
C3377 C3376 1.366 . S
C3377 C3378 1.414 . S
C3377 C3380 1.499 . S
C3378 H3358 0.950 . S
C3378 C3377 1.414 . S
C3378 C3379 1.374 . S
C3379 H3359 0.950 . S
C3379 C3375 1.385 . S
C3379 C3378 1.374 . S
C3380 C3377 1.499 . S
C3380 C3381 1.373 . S
C3380 C3382 1.389 . S
C3381 H3360 0.950 . S
C3381 C3380 1.373 . S
C3381 C3397 1.377 . S
C3382 C3380 1.389 . S
C3382 C3383 1.524 . S
C3382 C3396 1.377 . S
C3383 C3382 1.524 . S
C3383 C3384 1.397 . S
C3383 C3388 1.363 . S
C3384 H3361 0.950 . S
C3384 C3383 1.397 . S
C3384 C3385 1.334 . S
C3385 H3362 0.950 . S
C3385 C3384 1.334 . S
C3385 C3386 1.287 . S
C3386 C3385 1.287 . S
C3386 C3387 1.524 . S
C3386 H3405 0.913 . S
C3387 H3363 0.950 . S
C3387 C3386 1.524 . S
C3387 C3388 1.415 . S
C3388 H3364 0.950 . S
C3388 C3383 1.363 . S
C3388 C3387 1.415 . S
C3389 H3365 0.951 . S
C3389 C3390 1.366 . S
C3389 C3391 1.388 . S
C3390 C3389 1.366 . S
C3390 C3394 1.385 . S
C3391 H3366 0.951 . S
C3391 C3389 1.388 . S
C3391 C3392 1.366 . S
C3392 C3391 1.366 . S
C3392 C3393 1.414 . S
C3392 C3395 1.499 . S
C3393 H3367 0.950 . S
C3393 C3392 1.414 . S
C3393 C3394 1.374 . S
C3394 H3368 0.950 . S
C3394 C3390 1.385 . S
C3394 C3393 1.374 . S
C3395 C3392 1.499 . S
C3395 C3396 1.373 . S
C3395 C3397 1.389 . S
C3396 H3369 0.950 . S
C3396 C3382 1.377 . S
C3396 C3395 1.373 . S
C3397 C3381 1.377 . S
C3397 C3395 1.389 . S
C3397 C3398 1.524 . S
C3398 C3397 1.524 . S
C3398 C3399 1.397 . S
C3398 C3403 1.363 . S
C3399 H3370 0.950 . S
C3399 C3398 1.397 . S
C3399 C3400 1.334 . S
C3400 H3371 0.950 . S
C3400 C3399 1.334 . S
C3400 C3401 1.287 . S
C3401 C3400 1.287 . S
C3401 C3402 1.524 . S
C3401 H3404 0.999 . S
C3402 H3372 0.950 . S
C3402 C3401 1.524 . S
C3402 C3403 1.415 . S
C3403 H3373 0.950 . S
C3403 C3398 1.363 . S
C3403 C3402 1.415 . S
H3404 C3401 0.999 . S
H3405 C3386 0.913 . S
H3406 C3424 0.951 . S
H3407 C3426 0.951 . S
H3408 C3428 0.950 . S
H3409 C3429 0.950 . S
H3410 C3431 0.950 . S
H3411 C3434 0.950 . S
H3412 C3435 0.950 . S
H3413 C3437 0.950 . S
H3414 C3438 0.950 . S
H3415 C3439 0.951 . S
H3416 C3441 0.951 . S
H3417 C3443 0.950 . S
H3418 C3444 0.950 . S
H3419 C3446 0.950 . S
H3420 C3449 0.950 . S
H3421 C3450 0.950 . S
H3422 C3452 0.950 . S
H3423 C3453 0.950 . S
C3424 H3406 0.951 . S
C3424 C3425 1.366 . S
C3424 C3426 1.388 . S
C3425 C3424 1.366 . S
C3425 C3429 1.385 . S
C3426 H3407 0.951 . S
C3426 C3424 1.388 . S
C3426 C3427 1.366 . S
C3427 C3426 1.366 . S
C3427 C3428 1.414 . S
C3427 C3430 1.499 . S
C3428 H3408 0.950 . S
C3428 C3427 1.414 . S
C3428 C3429 1.374 . S
C3429 H3409 0.950 . S
C3429 C3425 1.385 . S
C3429 C3428 1.374 . S
C3430 C3427 1.499 . S
C3430 C3431 1.373 . S
C3430 C3432 1.389 . S
C3431 H3410 0.950 . S
C3431 C3430 1.373 . S
C3431 C3447 1.377 . S
C3432 C3430 1.389 . S
C3432 C3433 1.524 . S
C3432 C3446 1.377 . S
C3433 C3432 1.524 . S
C3433 C3434 1.397 . S
C3433 C3438 1.363 . S
C3434 H3411 0.950 . S
C3434 C3433 1.397 . S
C3434 C3435 1.334 . S
C3435 H3412 0.950 . S
C3435 C3434 1.334 . S
C3435 C3436 1.287 . S
C3436 C3435 1.287 . S
C3436 C3437 1.524 . S
C3436 H3455 0.913 . S
C3437 H3413 0.950 . S
C3437 C3436 1.524 . S
C3437 C3438 1.415 . S
C3438 H3414 0.950 . S
C3438 C3433 1.363 . S
C3438 C3437 1.415 . S
C3439 H3415 0.951 . S
C3439 C3440 1.366 . S
C3439 C3441 1.388 . S
C3440 C3439 1.366 . S
C3440 C3444 1.385 . S
C3441 H3416 0.951 . S
C3441 C3439 1.388 . S
C3441 C3442 1.366 . S
C3442 C3441 1.366 . S
C3442 C3443 1.414 . S
C3442 C3445 1.499 . S
C3443 H3417 0.950 . S
C3443 C3442 1.414 . S
C3443 C3444 1.374 . S
C3444 H3418 0.950 . S
C3444 C3440 1.385 . S
C3444 C3443 1.374 . S
C3445 C3442 1.499 . S
C3445 C3446 1.373 . S
C3445 C3447 1.389 . S
C3446 H3419 0.950 . S
C3446 C3432 1.377 . S
C3446 C3445 1.373 . S
C3447 C3431 1.377 . S
C3447 C3445 1.389 . S
C3447 C3448 1.524 . S
C3448 C3447 1.524 . S
C3448 C3449 1.397 . S
C3448 C3453 1.363 . S
C3449 H3420 0.950 . S
C3449 C3448 1.397 . S
C3449 C3450 1.334 . S
C3450 H3421 0.950 . S
C3450 C3449 1.334 . S
C3450 C3451 1.287 . S
C3451 C3450 1.287 . S
C3451 C3452 1.524 . S
C3451 H3454 0.999 . S
C3452 H3422 0.950 . S
C3452 C3451 1.524 . S
C3452 C3453 1.415 . S
C3453 H3423 0.950 . S
C3453 C3448 1.363 . S
C3453 C3452 1.415 . S
H3454 C3451 0.999 . S
H3455 C3436 0.913 . S
C775 C439 1.445 . S
C790 C582 1.483 . S
C825 C465 1.556 . S
C840 C602 1.534 . S
C875 C401 1.550 . S
C890 C625 1.536 . S
C925 C369 1.435 . S
C940 C605 1.427 . S
C990 C622 1.435 . S
C975 C305 1.442 . S
C1025 C343 1.331 . S
C1040 C585 1.383 . S
C1090 C592 1.518 . S
C1075 C375 1.540 . S
C1140 C612 1.500 . S
C1125 C311 1.520 . S
C1175 C337 1.486 . S
C1190 C617 1.536 . S
C1225 C433 1.384 . S
C1240 C597 1.425 . S
C1275 C471 1.408 . S
C1290 C632 1.401 . S
C1340 C577 1.421 . S
C1325 C407 1.431 . S
C1390 C642 1.484 . S
C1375 C55 1.446 . S
C1425 C81 1.556 . S
C1440 C662 1.533 . S
C1475 C17 1.550 . S
C1490 C685 1.536 . S
C1525 C561 1.435 . S
C1540 C665 1.428 . S
C1575 C497 1.443 . S
C1590 C682 1.435 . S
C1625 C535 1.331 . S
C1640 C645 1.383 . S
C1675 C567 1.540 . S
C1690 C652 1.517 . S
C1725 C503 1.521 . S
C1740 C672 1.500 . S
C1790 C677 1.536 . S
C1775 C529 1.487 . S
C1825 C49 1.384 . S
C1840 C657 1.425 . S
C1890 C692 1.401 . S
C1875 C87 1.408 . S
C1925 C23 1.431 . S
C1940 C637 1.421 . S
C1990 C702 1.484 . S
C1975 C247 1.446 . S
C2025 C273 1.555 . S
C2040 C722 1.533 . S
C2090 C745 1.536 . S
C2075 C209 1.550 . S
C2140 C725 1.427 . S
C2125 C177 1.435 . S
C2190 C742 1.434 . S
C2175 C113 1.442 . S
C2225 C151 1.331 . S
C2240 C705 1.384 . S
C2275 C183 1.540 . S
C2290 C712 1.518 . S
C2325 C119 1.521 . S
C2340 C732 1.501 . S
C2390 C737 1.535 . S
C2375 C145 1.486 . S
C2425 C241 1.385 . S
C2440 C717 1.426 . S
C2475 C279 1.409 . S
C2490 C752 1.400 . S
C2525 C215 1.431 . S
C2540 C697 1.421 . S
C2575 C509 1.245 . S
C2590 C595 1.233 1_565 S
C2640 C615 1.597 . S
C2625 C541 1.584 . S
C2675 C573 1.483 . S
C2690 C624 1.443 . S
C2725 C221 1.696 . S
C2740 C604 1.621 1_655 S
C2775 C253 1.390 . S
C2790 C635 1.406 . S
C2840 C584 1.252 . S
C2825 C285 1.243 . S
C2875 C125 1.246 . S
C2890 C655 1.233 . S
C2925 C157 1.584 . S
C2940 C675 1.597 . S
C2975 C189 1.483 . S
C2990 C684 1.442 . S
C3025 C413 1.696 . S
C3040 C664 1.632 . S
C3090 C695 1.406 . S
C3075 C445 1.390 . S
C3125 C477 1.243 . S
C3140 C644 1.227 . S
C3175 C317 1.246 . S
C3190 C715 1.232 . S
C3225 C349 1.584 . S
C3240 C735 1.597 . S
C3290 C744 1.442 . S
C3275 C381 1.483 . S
C3325 C29 1.696 . S
C3340 C724 1.633 . S
C3375 C61 1.390 . S
C3390 C755 1.406 . S
C3425 C93 1.244 . S
C3440 C704 1.227 . S
