# Generated by pormake.
# Topology anh, (6,3)-cn, num edge types: 1
# Building blocks:
#     Node 0, Type 0, BuildingBlock: BETGAK_clean_sbu_0, # of connection points: 6
#     Node 1, Type 0, BuildingBlock: BETGAK_clean_sbu_0, # of connection points: 6
#     Node 2, Type 0, BuildingBlock: BETGAK_clean_sbu_0, # of connection points: 6
#     Node 3, Type 1, BuildingBlock: MIDCAF_clean_linker_0, # of connection points: 3
#     Node 4, Type 1, BuildingBlock: MIDCAF_clean_linker_0, # of connection points: 3
#     Node 5, Type 1, BuildingBlock: MIDCAF_clean_linker_0, # of connection points: 3
#     Node 6, Type 1, BuildingBlock: MIDCAF_clean_linker_0, # of connection points: 3
#     Node 7, Type 1, BuildingBlock: MIDCAF_clean_linker_0, # of connection points: 3
#     Node 8, Type 1, BuildingBlock: MIDCAF_clean_linker_0, # of connection points: 3
#     Edge 9, Type (0, 1), None
#     Edge 10, Type (0, 1), None
#     Edge 11, Type (0, 1), None
#     Edge 12, Type (0, 1), None
#     Edge 13, Type (0, 1), None
#     Edge 14, Type (0, 1), None
#     Edge 15, Type (0, 1), None
#     Edge 16, Type (0, 1), None
#     Edge 17, Type (0, 1), None
#     Edge 18, Type (0, 1), None
#     Edge 19, Type (0, 1), None
#     Edge 20, Type (0, 1), None
#     Edge 21, Type (0, 1), None
#     Edge 22, Type (0, 1), None
#     Edge 23, Type (0, 1), None
#     Edge 24, Type (0, 1), None
#     Edge 25, Type (0, 1), None
#     Edge 26, Type (0, 1), None
# Relax obj value: 0.295
# Max RMSD: 0.260
# Mean RMSD: 0.183
data_MOF--net-anh--node1-BETGAK_clean_sbu_0--node2-MIDCAF_clean_linker_0--edge1-none
_symmetry_space_group_name_H-M    P1
_symmetry_Int_Tables_number       1
_symmetry_cell_setting            triclinic
loop_
_symmetry_equiv_pos_as_xyz
'x, y, z'
_cell_length_a     21.593743
_cell_length_b     27.01507
_cell_length_c     37.201285
_cell_angle_alpha  91.824621
_cell_angle_beta   89.644933
_cell_angle_gamma 134.50084
loop_
_atom_site_label
_atom_site_type_symbol
_atom_site_fract_x
_atom_site_fract_y
_atom_site_fract_z
_atom_type_partial_charge
La0 La 0.18342 0.52885 0.15444 0.0
La1 La 1.08494 0.56089 0.15903 0.0
C2 C 0.28933 0.51995 0.14614 0.0
C3 C 0.35861 0.54461 0.17121 0.0
C4 C 0.3491 0.49616 0.19059 0.0
C5 C 0.41932 0.51723 0.21003 0.0
C6 C 0.5017 0.58549 0.20683 0.0
C7 C 0.50372 0.63633 0.19654 0.0
C8 C 0.43314 0.61571 0.17723 0.0
C9 C 0.14003 0.52861 0.22114 0.0
C10 C 0.28557 0.6913 0.16012 0.0
C11 C 0.98252 0.56452 0.18494 0.0
C12 C 0.8904 0.51185 0.17413 0.0
C13 C 0.86584 0.51378 0.13983 0.0
C14 C 0.78795 0.45432 0.12396 0.0
C15 C 0.73205 0.39153 0.14214 0.0
C16 C 0.75448 0.39045 0.17717 0.0
C17 C 0.83263 0.45022 0.19315 0.0
C18 C 1.08709 0.53878 0.0883 0.0
C19 C 0.98505 0.40123 0.15218 0.0
O20 O 0.21135 0.46932 0.15781 0.0
O21 O 0.29759 0.56696 0.13053 0.0
O22 O 0.1381 0.48343 0.20726 0.0
O23 O 0.16734 0.57279 0.19796 0.0
O24 O 0.29127 0.64523 0.15819 0.0
O25 O 0.20863 0.66946 0.16097 0.0
O26 O 1.03699 0.6067 0.15987 0.0
O27 O 1.00756 0.53928 0.20209 0.0
O28 O 1.04728 0.55366 0.10301 0.0
O29 O 0.12329 0.53503 0.11308 0.0
O30 O 0.98423 0.44684 0.16527 0.0
O31 O 1.05764 0.42477 0.13833 0.0
H32 H 0.28964 0.44135 0.18866 0.0
H33 H 0.41181 0.47673 0.22106 0.0
H34 H 0.56445 0.69059 0.19685 0.0
H35 H 0.43961 0.6549 0.16493 0.0
H36 H 0.90862 0.56026 0.12435 0.0
H37 H 0.77097 0.45825 0.0976 0.0
H38 H 0.71175 0.34332 0.1921 0.0
H39 H 0.85024 0.44696 0.21956 0.0
La40 La 0.70449 0.0529 0.47027 0.0
La41 La 0.59333 0.07369 0.46735 0.0
C42 C 0.77557 1.01175 0.48463 0.0
C43 C 0.74373 0.94539 0.49478 0.0
C44 C 0.78693 0.92707 0.48239 0.0
C45 C 0.75991 0.86532 0.49261 0.0
C46 C 0.68894 0.82082 0.51536 0.0
C47 C 0.64332 0.83797 0.52647 0.0
C48 C 0.67053 0.89987 0.51626 0.0
C49 C 0.68251 0.07316 0.40458 0.0
C50 C 0.4981 0.91967 0.46327 0.0
C51 C 0.52849 0.12026 0.45447 0.0
C52 C 0.55159 0.18255 0.46965 0.0
C53 C 0.56571 0.19782 0.50686 0.0
C54 C 0.58912 0.25746 0.52109 0.0
C55 C 0.60093 0.30414 0.49841 0.0
C56 C 0.58922 0.28969 0.46103 0.0
C57 C 0.56455 0.22928 0.44681 0.0
C58 C 0.61667 0.05539 0.53387 0.0
C59 C 0.80146 0.20879 0.47 0.0
O60 O 0.75458 1.01271 0.45204 0.0
O61 O 0.76618 0.04295 0.50821 0.0
O62 O 0.75579 0.09981 0.41826 0.0
O63 O 0.62367 0.03556 0.42733 0.0
O64 O 0.57327 0.9453 0.47638 0.0
O65 O 0.49426 0.96319 0.4516 0.0
O66 O 0.49487 0.07057 0.47671 0.0
O67 O 0.58746 0.1322 0.43445 0.0
O68 O 0.54575 0.03415 0.52101 0.0
O69 O 0.67427 0.09096 0.51044 0.0
O70 O 0.72215 0.18256 0.46564 0.0
O71 O 0.81188 0.16675 0.47527 0.0
H72 H 0.84277 0.9613 0.46538 0.0
H73 H 0.79686 0.85391 0.48385 0.0
H74 H 0.58749 0.80408 0.54351 0.0
H75 H 0.63528 0.91258 0.5256 0.0
H76 H 0.55822 0.16353 0.52511 0.0
H77 H 0.59619 0.26604 0.55002 0.0
H78 H 0.59941 0.32512 0.44273 0.0
H79 H 0.55601 0.21921 0.41796 0.0
La80 La 0.69081 0.6221 0.84639 0.0
La81 La 0.5726 0.47312 0.84586 0.0
C82 C 0.78711 0.74635 0.82903 0.0
C83 C 0.76639 0.78659 0.81895 0.0
C84 C 0.73088 0.80159 0.84354 0.0
C85 C 0.70921 0.83751 0.83286 0.0
C86 C 0.72207 0.85909 0.79728 0.0
C87 C 0.75813 0.84426 0.77297 0.0
C88 C 0.77961 0.80849 0.7836 0.0
C89 C 0.6385 0.56846 0.90975 0.0
C90 C 0.48377 0.5402 0.85164 0.0
C91 C 0.47713 0.34469 0.84952 0.0
C92 C 0.49778 0.3042 0.83749 0.0
C93 C 0.49735 0.29048 0.80062 0.0
C94 C 0.5236 0.25795 0.78883 0.0
C95 C 0.55178 0.23815 0.81338 0.0
C96 C 0.55075 0.2505 0.85036 0.0
C97 C 0.52431 0.28329 0.86225 0.0
C98 C 0.63279 0.52799 0.78238 0.0
C99 C 0.7806 0.55542 0.85045 0.0
O100 O 0.77487 0.72769 0.8624 0.0
O101 O 0.76017 0.69619 0.8063 0.0
O102 O 0.65019 0.62041 0.90084 0.0
O103 O 0.65992 0.5515 0.88465 0.0
O104 O 0.56555 0.59935 0.8438 0.0
O105 O 0.47406 0.48482 0.85656 0.0
O106 O 0.46874 0.37234 0.82418 0.0
O107 O 0.5219 0.38813 0.87721 0.0
O108 O 0.62584 0.48021 0.79442 0.0
O109 O 0.60611 0.54384 0.80572 0.0
O110 O 0.69644 0.49505 0.85291 0.0
O111 O 0.79291 0.6123 0.84627 0.0
H112 H 0.71893 0.78501 0.87097 0.0
H113 H 0.68087 0.84713 0.85232 0.0
H114 H 0.77086 0.86095 0.74555 0.0
H115 H 0.80648 0.79768 0.76397 0.0
H116 H 0.47784 0.30576 0.78054 0.0
H117 H 0.52156 0.2482 0.7602 0.0
H118 H 0.57244 0.23646 0.87009 0.0
H119 H 0.52621 0.29348 0.89081 0.0
C120 C 0.35846 0.81699 0.16255 0.0
C121 C 0.3657 0.76892 0.16411 0.0
C122 C 0.44899 0.79624 0.17168 0.0
C123 C 0.52109 0.86829 0.17893 0.0
H124 H 0.84005 0.16487 0.1495 0.0
H125 H 0.96108 0.28717 0.1335 0.0
H126 H 0.83093 0.33829 0.18411 0.0
H127 H 0.71173 0.21762 0.19977 0.0
H128 H 0.78581 0.1617 0.29176 0.0
H129 H 0.8002 0.16856 0.35707 0.0
H130 H 0.53444 0.97102 0.3636 0.0
H131 H 0.52008 0.9629 0.29766 0.0
H132 H 0.42085 0.92316 0.16983 0.0
H133 H 0.29595 0.79883 0.15706 0.0
H134 H 0.4579 0.76165 0.17356 0.0
H135 H 0.58267 0.88653 0.18677 0.0
N136 N 0.64018 0.04748 0.17561 0.0
N137 N 0.70234 0.11437 0.23 0.0
N138 N 0.58672 0.99346 0.23156 0.0
C139 C 0.70084 0.1115 0.19345 0.0
C140 C 0.64621 0.05619 0.24927 0.0
C141 C 0.58267 0.98789 0.19498 0.0
C142 C 0.76412 0.18023 0.17512 0.0
C143 C 0.83577 0.20177 0.15588 0.0
C144 C 0.90589 0.27244 0.14701 0.0
C145 C 0.90667 0.32391 0.1571 0.0
C146 C 0.83335 0.30122 0.17522 0.0
C147 C 0.76414 0.2313 0.18416 0.0
C148 C 0.65199 0.06149 0.28932 0.0
C149 C 0.72999 0.11982 0.30695 0.0
C150 C 0.73836 0.12382 0.34443 0.0
C151 C 0.66854 0.07042 0.36536 0.0
C152 C 0.58922 1.01314 0.34808 0.0
C153 C 0.58131 1.00834 0.31035 0.0
C154 C 0.51317 0.91588 0.17804 0.0
C155 C 0.43067 0.88894 0.16942 0.0
C156 C 0.6748 0.40021 0.54544 0.0
C157 C 0.62206 0.3659 0.51418 0.0
C158 C 0.5849 0.38801 0.49979 0.0
C159 C 0.59652 0.44065 0.51742 0.0
H160 H 0.66797 0.63774 0.50583 0.0
H161 H 0.68508 0.72826 0.47972 0.0
H162 H 0.64735 0.77766 0.5841 0.0
H163 H 0.6279 0.68647 0.61 0.0
H164 H 0.61929 0.61693 0.68067 0.0
H165 H 0.61274 0.60372 0.74604 0.0
H166 H 0.67948 0.48656 0.73188 0.0
H167 H 0.6857 0.4991 0.66757 0.0
H168 H 0.72331 0.47521 0.5881 0.0
H169 H 0.70681 0.38628 0.55667 0.0
H170 H 0.54346 0.36254 0.4759 0.0
H171 H 0.56443 0.45482 0.50659 0.0
N172 N 0.6435 0.56189 0.55613 0.0
N173 N 0.6472 0.60368 0.61333 0.0
N174 N 0.64974 0.51868 0.60811 0.0
C175 C 0.64454 0.60489 0.57685 0.0
C176 C 0.6498 0.56062 0.62914 0.0
C177 C 0.64633 0.51879 0.57176 0.0
C178 C 0.64715 0.65514 0.56008 0.0
C179 C 0.66189 0.66713 0.5231 0.0
C180 C 0.67218 0.71923 0.50815 0.0
C181 C 0.66781 0.76019 0.52988 0.0
C182 C 0.64989 0.7464 0.56653 0.0
C183 C 0.63961 0.69446 0.58145 0.0
C184 C 0.65188 0.55825 0.6688 0.0
C185 C 0.63329 0.58892 0.69165 0.0
C186 C 0.6296 0.58149 0.72901 0.0
C187 C 0.64476 0.54356 0.74389 0.0
C188 C 0.66672 0.51558 0.72115 0.0
C189 C 0.67001 0.52263 0.68415 0.0
C190 C 0.64415 0.47108 0.55 0.0
C191 C 0.68483 0.45157 0.56335 0.0
C192 C 0.84231 0.49537 0.86098 0.0
C193 C 0.85895 0.55593 0.85316 0.0
C194 C 0.95194 0.61388 0.84878 0.0
C195 C 1.01845 0.61118 0.85231 0.0
H196 H 0.35525 0.63707 0.8385 0.0
H197 H 0.4686 0.63627 0.83104 0.0
H198 H 0.30721 0.44122 0.88186 0.0
H199 H 0.19558 0.44308 0.89013 0.0
H200 H 0.20474 0.53106 0.98326 0.0
H201 H 0.19098 0.53051 0.04922 0.0
H202 H 0.99875 0.5372 0.03622 0.0
H203 H 1.0114 0.53738 0.97161 0.0
H204 H 0.8854 0.44429 0.87266 0.0
H205 H 0.77557 0.44774 0.86547 0.0
H206 H 0.97514 0.66356 0.84313 0.0
H207 H 1.08581 0.65962 0.85024 0.0
N208 N 0.13299 0.54815 0.85764 0.0
N209 N 0.17442 0.53756 0.91389 0.0
N210 N 1.06971 0.54317 0.91142 0.0
C211 C 0.18594 0.54253 0.87744 0.0
C212 C 0.11855 0.53835 0.93099 0.0
C213 C 1.07251 0.5483 0.87518 0.0
C214 C 0.25675 0.53838 0.86385 0.0
C215 C 0.3403 0.59201 0.84744 0.0
C216 C 0.40903 0.59188 0.84345 0.0
C217 C 0.40416 0.53829 0.85519 0.0
C218 C 0.32062 0.48475 0.87131 0.0
C219 C 0.25297 0.48559 0.87588 0.0
C220 C 0.10979 0.53477 0.97146 0.0
C221 C 0.15915 0.53199 0.99446 0.0
C222 C 0.15116 0.53151 0.03237 0.0
C223 C 1.09383 0.53402 0.04827 0.0
C224 C 1.04379 0.53544 0.02523 0.0
C225 C 1.05136 0.53565 0.98776 0.0
C226 C 1.00109 0.54988 0.8598 0.0
C227 C 0.90839 0.49294 0.86464 0.0
C228 C 0.34304 0.81607 0.44179 0.0
C229 C 0.41889 0.84197 0.45957 0.0
C230 C 0.41806 0.79262 0.47219 0.0
C231 C 0.34525 0.7202 0.46578 0.0
H232 H 0.9245 0.43381 0.45202 0.0
H233 H 0.80321 0.31152 0.46565 0.0
H234 H 0.97691 0.28359 0.4657 0.0
H235 H 1.09816 0.40642 0.45172 0.0
H236 H 1.05282 0.43531 0.33385 0.0
H237 H 1.0545 0.4262 0.26862 0.0
H238 H 0.21077 0.64554 0.26234 0.0
H239 H 0.21068 0.65546 0.32818 0.0
H240 H 0.21655 0.72737 0.4196 0.0
H241 H 0.33999 0.85146 0.43166 0.0
H242 H 0.47472 0.80995 0.48608 0.0
H243 H 0.34894 0.68427 0.47412 0.0
N244 N 0.14941 0.56298 0.45029 0.0
N245 N 1.0836 0.49447 0.39639 0.0
N246 N 0.19606 0.61537 0.39392 0.0
C247 C 1.08827 0.49851 0.43294 0.0
C248 C 0.13694 0.55225 0.37664 0.0
C249 C 0.20399 0.62203 0.43042 0.0
C250 C 1.02228 0.43125 0.45194 0.0
C251 C 0.93761 0.40239 0.45637 0.0
C252 C 0.86749 0.33153 0.46375 0.0
C253 C 0.87908 0.28642 0.46678 0.0
C254 C 0.96464 0.31602 0.46387 0.0
C255 C 1.03478 0.387 0.45623 0.0
C256 C 0.13242 0.54626 0.33653 0.0
C257 C 1.08711 0.48172 0.31877 0.0
C258 C 1.0881 0.47645 0.28129 0.0
C259 C 0.13316 0.5352 0.26039 0.0
C260 C 0.17542 0.59936 0.27777 0.0
C261 C 0.17565 0.60495 0.3155 0.0
C262 C 0.27129 0.69504 0.44646 0.0
C263 C 0.27132 0.74434 0.43513 0.0
C264 C 0.63028 0.22913 0.76788 0.0
C265 C 0.58281 0.20584 0.7997 0.0
C266 C 0.56206 0.1498 0.81662 0.0
C267 C 0.58347 0.11538 0.8007 0.0
H268 H 0.70495 1.02282 0.81161 0.0
H269 H 0.73375 0.95631 0.83471 0.0
H270 H 0.6534 0.84573 0.73185 0.0
H271 H 0.62824 0.91309 0.70875 0.0
H272 H 0.70287 1.02317 0.63796 0.0
H273 H 0.69184 1.02263 0.57216 0.0
H274 H 0.57633 0.10263 0.58434 0.0
H275 H 0.58858 0.10475 0.64949 0.0
H276 H 0.68499 0.2134 0.72686 0.0
H277 H 0.65034 0.27347 0.75463 0.0
H278 H 0.52591 0.13054 0.84126 0.0
H279 H 0.56333 0.07061 0.81343 0.0
N280 N 0.64577 0.05528 0.76256 0.0
N281 N 0.65731 1.02245 0.70529 0.0
N282 N 0.63854 0.09759 0.71013 0.0
C283 C 0.65601 1.01867 0.74183 0.0
C284 C 0.64847 0.06166 0.6892 0.0
C285 C 0.63734 0.09527 0.74659 0.0
C286 C 0.66586 0.9745 0.75804 0.0
C287 C 0.69321 0.98407 0.79406 0.0
C288 C 0.70943 0.94564 0.80733 0.0
C289 C 0.69805 0.89642 0.78496 0.0
C290 C 0.66619 0.88467 0.74964 0.0
C291 C 0.65108 0.92329 0.73637 0.0
C292 C 0.64633 0.06376 0.6492 0.0
C293 C 0.67603 0.04138 0.62659 0.0
C294 C 0.67051 0.04163 0.58891 0.0
C295 C 0.63375 0.06301 0.5732 0.0
C296 C 0.6052 0.08607 0.59573 0.0
C297 C 0.61226 0.0872 0.63315 0.0
C298 C 0.62563 0.13622 0.7675 0.0
C299 C 0.65077 0.19474 0.75199 0.0
C300 C 0.63154 0.32371 0.08957 0.0
C301 C 0.64372 0.33316 0.12716 0.0
C302 C 0.57432 0.31056 0.14828 0.0
C303 C 0.50912 0.30233 0.13251 0.0
H304 H 0.55393 0.45666 0.18329 0.0
H305 H 0.54752 0.51757 0.2302 0.0
H306 H 0.62105 0.66706 0.15354 0.0
H307 H 0.62921 0.60793 0.1074 0.0
H308 H 0.53838 0.54203 0.02456 0.0
H309 H 0.58104 0.59371 0.96561 0.0
H310 H 0.62925 0.46895 0.93176 0.0
H311 H 0.58468 0.41603 0.99003 0.0
H312 H 0.57054 0.32511 0.04539 0.0
H313 H 0.6819 0.33668 0.0726 0.0
H314 H 0.57926 0.31362 0.17738 0.0
H315 H 0.46666 0.29953 0.15014 0.0
N316 N 0.53655 0.41594 0.11675 0.0
N317 N 0.56337 0.49335 0.07649 0.0
N318 N 0.52233 0.39115 0.05472 0.0
C319 C 0.56069 0.47655 0.11072 0.0
C320 C 0.54376 0.45085 0.04844 0.0
C321 C 0.51684 0.37264 0.08899 0.0
C322 C 0.58418 0.52404 0.14097 0.0
C323 C 0.57102 0.50372 0.17674 0.0
C324 C 0.56908 0.53956 0.20386 0.0
C325 C 0.57246 0.59148 0.19447 0.0
C326 C 0.60981 0.62307 0.1613 0.0
C327 C 0.61275 0.58809 0.13424 0.0
C328 C 0.558 0.4749 0.01172 0.0
C329 C 0.55679 0.52492 0.00425 0.0
C330 C 0.58144 0.55468 0.97071 0.0
C331 C 0.60832 0.53522 0.94441 0.0
C332 C 0.60761 0.48411 0.95154 0.0
C333 C 0.58191 0.4537 0.98484 0.0
C334 C 0.51695 0.31946 0.0964 0.0
C335 C 0.56706 0.31669 0.07392 0.0
loop_
_geom_bond_atom_site_label_1
_geom_bond_atom_site_label_2
_geom_bond_distance
_geom_bond_site_symmetry_2
_ccdc_geom_bond_type
La0 C2 2.928 . S
La0 O20 2.521 . S
La0 O21 2.628 . S
La0 O22 2.554 . S
La0 O23 2.757 . S
La0 O24 2.470 . S
La0 O29 2.482 . S
La0 O31 2.503 1_455 S
La1 C11 2.928 . S
La1 O23 2.482 1_655 S
La1 O25 2.503 1_655 S
La1 O26 2.521 . S
La1 O27 2.628 . S
La1 O28 2.554 . S
La1 O29 2.757 1_655 S
La1 O30 2.470 . S
C2 La0 2.928 . S
C2 C3 1.503 . S
C2 O20 1.261 . S
C2 O21 1.243 . S
C3 C2 1.503 . S
C3 C4 1.394 . S
C3 C8 1.373 . S
C4 C3 1.394 . S
C4 C5 1.380 . S
C4 H32 0.930 . S
C5 C4 1.380 . S
C5 C6 1.376 . S
C5 H33 0.930 . S
C6 C5 1.376 . S
C6 C7 1.370 . S
C7 C6 1.370 . S
C7 C8 1.396 . S
C7 H34 0.929 . S
C8 C3 1.373 . S
C8 C7 1.396 . S
C8 H35 0.929 . S
C9 O22 1.240 . S
C9 O23 1.289 . S
C10 O24 1.258 . S
C10 O25 1.256 . S
C11 La1 2.928 . S
C11 C12 1.503 . S
C11 O26 1.261 . S
C11 O27 1.243 . S
C12 C11 1.503 . S
C12 C13 1.394 . S
C12 C17 1.373 . S
C13 C12 1.394 . S
C13 C14 1.380 . S
C13 H36 0.930 . S
C14 C13 1.380 . S
C14 C15 1.376 . S
C14 H37 0.930 . S
C15 C14 1.376 . S
C15 C16 1.370 . S
C16 C15 1.370 . S
C16 C17 1.396 . S
C16 H38 0.929 . S
C17 C12 1.373 . S
C17 C16 1.396 . S
C17 H39 0.929 . S
C18 O28 1.240 1_455 S
C18 O29 1.289 . S
C19 O30 1.258 . S
C19 O31 1.256 . S
O20 La0 2.521 . S
O20 C2 1.261 . S
O21 La0 2.628 . S
O21 C2 1.243 . S
O22 La0 2.554 . S
O22 C9 1.240 . S
O23 La0 2.757 . S
O23 La1 2.482 1_455 S
O23 C9 1.289 . S
O24 La0 2.470 . S
O24 C10 1.258 . S
O25 La1 2.503 1_455 S
O25 C10 1.256 . S
O26 La1 2.521 . S
O26 C11 1.261 . S
O27 La1 2.628 . S
O27 C11 1.243 . S
O28 La1 2.554 . S
O28 C18 1.240 1_655 S
O29 La0 2.482 . S
O29 La1 2.757 1_455 S
O29 C18 1.289 . S
O30 La1 2.470 . S
O30 C19 1.258 . S
O31 La0 2.503 1_655 S
O31 C19 1.256 . S
H32 C4 0.930 . S
H33 C5 0.930 . S
H34 C7 0.929 . S
H35 C8 0.929 . S
H36 C13 0.930 . S
H37 C14 0.930 . S
H38 C16 0.929 . S
H39 C17 0.929 . S
La40 C42 2.928 . S
La40 O60 2.521 . S
La40 O61 2.628 . S
La40 O62 2.554 . S
La40 O63 2.757 1_565 S
La40 O64 2.470 . S
La40 O69 2.482 . S
La40 O71 2.503 1_565 S
La41 C51 2.928 . S
La41 O63 2.482 . S
La41 O65 2.503 1_545 S
La41 O66 2.521 . S
La41 O67 2.628 . S
La41 O68 2.554 . S
La41 O69 2.757 1_545 S
La41 O70 2.470 . S
C42 La40 2.928 . S
C42 C43 1.503 . S
C42 O60 1.261 . S
C42 O61 1.243 . S
C43 C42 1.503 . S
C43 C44 1.394 . S
C43 C48 1.373 . S
C44 C43 1.394 . S
C44 C45 1.380 . S
C44 H72 0.930 . S
C45 C44 1.380 . S
C45 C46 1.376 . S
C45 H73 0.930 . S
C46 C45 1.376 . S
C46 C47 1.370 . S
C47 C46 1.370 . S
C47 C48 1.396 . S
C47 H74 0.929 . S
C48 C43 1.373 . S
C48 C47 1.396 . S
C48 H75 0.929 . S
C49 O62 1.240 1_545 S
C49 O63 1.289 . S
C50 O64 1.258 . S
C50 O65 1.256 . S
C51 La41 2.928 . S
C51 C52 1.503 . S
C51 O66 1.261 . S
C51 O67 1.243 . S
C52 C51 1.503 . S
C52 C53 1.394 . S
C52 C57 1.373 . S
C53 C52 1.394 . S
C53 C54 1.380 . S
C53 H76 0.930 . S
C54 C53 1.380 . S
C54 C55 1.376 . S
C54 H77 0.930 . S
C55 C54 1.376 . S
C55 C56 1.370 . S
C56 C55 1.370 . S
C56 C57 1.396 . S
C56 H78 0.929 . S
C57 C52 1.373 . S
C57 C56 1.396 . S
C57 H79 0.929 . S
C58 O68 1.240 . S
C58 O69 1.289 1_545 S
C59 O70 1.258 . S
C59 O71 1.256 . S
O60 La40 2.521 . S
O60 C42 1.261 . S
O61 La40 2.628 . S
O61 C42 1.243 . S
O62 La40 2.554 . S
O62 C49 1.240 1_565 S
O63 La40 2.757 1_545 S
O63 La41 2.482 . S
O63 C49 1.289 . S
O64 La40 2.470 . S
O64 C50 1.258 . S
O65 La41 2.503 1_565 S
O65 C50 1.256 . S
O66 La41 2.521 . S
O66 C51 1.261 . S
O67 La41 2.628 . S
O67 C51 1.243 . S
O68 La41 2.554 . S
O68 C58 1.240 . S
O69 La40 2.482 . S
O69 La41 2.757 1_565 S
O69 C58 1.289 1_565 S
O70 La41 2.470 . S
O70 C59 1.258 . S
O71 La40 2.503 1_545 S
O71 C59 1.256 . S
H72 C44 0.930 . S
H73 C45 0.930 . S
H74 C47 0.929 . S
H75 C48 0.929 . S
H76 C53 0.930 . S
H77 C54 0.930 . S
H78 C56 0.929 . S
H79 C57 0.929 . S
La80 C82 2.928 . S
La80 O100 2.521 . S
La80 O101 2.628 . S
La80 O102 2.554 . S
La80 O103 2.757 . S
La80 O104 2.470 . S
La80 O109 2.482 . S
La80 O111 2.503 . S
La81 C91 2.928 . S
La81 O103 2.482 . S
La81 O105 2.503 . S
La81 O106 2.521 . S
La81 O107 2.628 . S
La81 O108 2.554 . S
La81 O109 2.757 . S
La81 O110 2.470 . S
C82 La80 2.928 . S
C82 C83 1.503 . S
C82 O100 1.261 . S
C82 O101 1.243 . S
C83 C82 1.503 . S
C83 C84 1.394 . S
C83 C88 1.373 . S
C84 C83 1.394 . S
C84 C85 1.380 . S
C84 H112 0.930 . S
C85 C84 1.380 . S
C85 C86 1.376 . S
C85 H113 0.930 . S
C86 C85 1.376 . S
C86 C87 1.370 . S
C87 C86 1.370 . S
C87 C88 1.396 . S
C87 H114 0.929 . S
C88 C83 1.373 . S
C88 C87 1.396 . S
C88 H115 0.929 . S
C89 O102 1.240 . S
C89 O103 1.289 . S
C90 O104 1.258 . S
C90 O105 1.256 . S
C91 La81 2.928 . S
C91 C92 1.503 . S
C91 O106 1.261 . S
C91 O107 1.243 . S
C92 C91 1.503 . S
C92 C93 1.394 . S
C92 C97 1.373 . S
C93 C92 1.394 . S
C93 C94 1.380 . S
C93 H116 0.930 . S
C94 C93 1.380 . S
C94 C95 1.376 . S
C94 H117 0.930 . S
C95 C94 1.376 . S
C95 C96 1.370 . S
C96 C95 1.370 . S
C96 C97 1.396 . S
C96 H118 0.929 . S
C97 C92 1.373 . S
C97 C96 1.396 . S
C97 H119 0.929 . S
C98 O108 1.240 . S
C98 O109 1.289 . S
C99 O110 1.258 . S
C99 O111 1.256 . S
O100 La80 2.521 . S
O100 C82 1.261 . S
O101 La80 2.628 . S
O101 C82 1.243 . S
O102 La80 2.554 . S
O102 C89 1.240 . S
O103 La80 2.757 . S
O103 La81 2.482 . S
O103 C89 1.289 . S
O104 La80 2.470 . S
O104 C90 1.258 . S
O105 La81 2.503 . S
O105 C90 1.256 . S
O106 La81 2.521 . S
O106 C91 1.261 . S
O107 La81 2.628 . S
O107 C91 1.243 . S
O108 La81 2.554 . S
O108 C98 1.240 . S
O109 La80 2.482 . S
O109 La81 2.757 . S
O109 C98 1.289 . S
O110 La81 2.470 . S
O110 C99 1.258 . S
O111 La80 2.503 . S
O111 C99 1.256 . S
H112 C84 0.930 . S
H113 C85 0.930 . S
H114 C87 0.929 . S
H115 C88 0.929 . S
H116 C93 0.930 . S
H117 C94 0.930 . S
H118 C96 0.929 . S
H119 C97 0.929 . S
C120 C121 1.384 . S
C120 H133 0.947 . S
C120 C155 1.382 . S
C121 C120 1.384 . S
C121 C122 1.378 . S
C122 C121 1.378 . S
C122 C123 1.378 . S
C122 H134 0.952 . S
C123 C122 1.378 . S
C123 H135 0.950 . S
C123 C154 1.383 . S
H124 C143 0.947 . S
H125 C144 0.946 . S
H126 C146 0.953 . S
H127 C147 0.945 . S
H128 C149 0.952 . S
H129 C150 0.949 . S
H130 C152 0.950 . S
H131 C153 0.948 . S
H132 C155 0.951 . S
H133 C120 0.947 . S
H134 C122 0.952 . S
H135 C123 0.950 . S
N136 C139 1.382 . S
N136 C141 1.363 1_545 S
N137 C139 1.371 . S
N137 C140 1.372 . S
N138 C140 1.361 1_565 S
N138 C141 1.377 . S
C139 N136 1.382 . S
C139 N137 1.371 . S
C139 C142 1.480 . S
C140 N137 1.372 . S
C140 N138 1.361 1_545 S
C140 C148 1.457 . S
C141 N136 1.363 1_565 S
C141 N138 1.377 . S
C141 C154 1.479 . S
C142 C139 1.480 . S
C142 C143 1.383 . S
C142 C147 1.385 . S
C143 H124 0.947 . S
C143 C142 1.383 . S
C143 C144 1.388 . S
C144 H125 0.946 . S
C144 C143 1.388 . S
C144 C145 1.384 . S
C145 C144 1.384 . S
C145 C146 1.377 . S
C146 H126 0.953 . S
C146 C145 1.377 . S
C146 C147 1.369 . S
C147 H127 0.945 . S
C147 C142 1.385 . S
C147 C146 1.369 . S
C148 C140 1.457 . S
C148 C149 1.372 . S
C148 C153 1.364 1_545 S
C149 H128 0.952 . S
C149 C148 1.372 . S
C149 C150 1.389 . S
C150 H129 0.949 . S
C150 C149 1.389 . S
C150 C151 1.387 . S
C151 C150 1.387 . S
C151 C152 1.372 1_545 S
C152 H130 0.950 . S
C152 C151 1.372 1_565 S
C152 C153 1.379 . S
C153 H131 0.948 . S
C153 C148 1.364 1_565 S
C153 C152 1.379 . S
C154 C123 1.383 . S
C154 C141 1.479 . S
C154 C155 1.398 . S
C155 C120 1.382 . S
C155 H132 0.951 . S
C155 C154 1.398 . S
C156 C157 1.384 . S
C156 H169 0.947 . S
C156 C191 1.382 . S
C157 C156 1.384 . S
C157 C158 1.378 . S
C158 C157 1.378 . S
C158 C159 1.378 . S
C158 H170 0.952 . S
C159 C158 1.378 . S
C159 H171 0.950 . S
C159 C190 1.383 . S
H160 C179 0.947 . S
H161 C180 0.946 . S
H162 C182 0.953 . S
H163 C183 0.945 . S
H164 C185 0.952 . S
H165 C186 0.949 . S
H166 C188 0.950 . S
H167 C189 0.948 . S
H168 C191 0.951 . S
H169 C156 0.947 . S
H170 C158 0.952 . S
H171 C159 0.950 . S
N172 C175 1.382 . S
N172 C177 1.363 . S
N173 C175 1.371 . S
N173 C176 1.372 . S
N174 C176 1.361 . S
N174 C177 1.377 . S
C175 N172 1.382 . S
C175 N173 1.371 . S
C175 C178 1.480 . S
C176 N173 1.372 . S
C176 N174 1.361 . S
C176 C184 1.457 . S
C177 N172 1.363 . S
C177 N174 1.377 . S
C177 C190 1.479 . S
C178 C175 1.480 . S
C178 C179 1.383 . S
C178 C183 1.385 . S
C179 H160 0.947 . S
C179 C178 1.383 . S
C179 C180 1.388 . S
C180 H161 0.946 . S
C180 C179 1.388 . S
C180 C181 1.384 . S
C181 C180 1.384 . S
C181 C182 1.377 . S
C182 H162 0.953 . S
C182 C181 1.377 . S
C182 C183 1.369 . S
C183 H163 0.945 . S
C183 C178 1.385 . S
C183 C182 1.369 . S
C184 C176 1.457 . S
C184 C185 1.372 . S
C184 C189 1.364 . S
C185 H164 0.952 . S
C185 C184 1.372 . S
C185 C186 1.389 . S
C186 H165 0.949 . S
C186 C185 1.389 . S
C186 C187 1.387 . S
C187 C186 1.387 . S
C187 C188 1.372 . S
C188 H166 0.950 . S
C188 C187 1.372 . S
C188 C189 1.379 . S
C189 H167 0.948 . S
C189 C184 1.364 . S
C189 C188 1.379 . S
C190 C159 1.383 . S
C190 C177 1.479 . S
C190 C191 1.398 . S
C191 C156 1.382 . S
C191 H168 0.951 . S
C191 C190 1.398 . S
C192 C193 1.384 . S
C192 H205 0.947 . S
C192 C227 1.382 . S
C193 C192 1.384 . S
C193 C194 1.378 . S
C194 C193 1.378 . S
C194 C195 1.378 . S
C194 H206 0.952 . S
C195 C194 1.378 . S
C195 H207 0.950 . S
C195 C226 1.383 . S
H196 C215 0.947 . S
H197 C216 0.946 . S
H198 C218 0.953 . S
H199 C219 0.945 . S
H200 C221 0.952 1_556 S
H201 C222 0.949 . S
H202 C224 0.950 . S
H203 C225 0.948 1_556 S
H204 C227 0.951 . S
H205 C192 0.947 . S
H206 C194 0.952 . S
H207 C195 0.950 . S
N208 C211 1.382 . S
N208 C213 1.363 . S
N209 C211 1.371 . S
N209 C212 1.372 . S
N210 C212 1.361 . S
N210 C213 1.377 . S
C211 N208 1.382 . S
C211 N209 1.371 . S
C211 C214 1.480 . S
C212 N209 1.372 . S
C212 N210 1.361 . S
C212 C220 1.457 . S
C213 N208 1.363 . S
C213 N210 1.377 . S
C213 C226 1.479 1_455 S
C214 C211 1.480 . S
C214 C215 1.383 . S
C214 C219 1.385 . S
C215 H196 0.947 . S
C215 C214 1.383 . S
C215 C216 1.388 . S
C216 H197 0.946 . S
C216 C215 1.388 . S
C216 C217 1.384 . S
C217 C216 1.384 . S
C217 C218 1.377 . S
C218 H198 0.953 . S
C218 C217 1.377 . S
C218 C219 1.369 . S
C219 H199 0.945 . S
C219 C214 1.385 . S
C219 C218 1.369 . S
C220 C212 1.457 . S
C220 C221 1.372 1_556 S
C220 C225 1.364 1_456 S
C221 H200 0.952 1_554 S
C221 C220 1.372 1_554 S
C221 C222 1.389 . S
C222 H201 0.949 . S
C222 C221 1.389 . S
C222 C223 1.387 . S
C223 C222 1.387 . S
C223 C224 1.372 1_455 S
C224 H202 0.950 . S
C224 C223 1.372 1_655 S
C224 C225 1.379 . S
C225 H203 0.948 1_554 S
C225 C220 1.364 1_654 S
C225 C224 1.379 . S
C226 C195 1.383 . S
C226 C213 1.479 1_655 S
C226 C227 1.398 . S
C227 C192 1.382 . S
C227 H204 0.951 . S
C227 C226 1.398 . S
C228 C229 1.384 . S
C228 H241 0.947 . S
C228 C263 1.382 . S
C229 C228 1.384 . S
C229 C230 1.378 . S
C230 C229 1.378 . S
C230 C231 1.378 . S
C230 H242 0.952 . S
C231 C230 1.378 . S
C231 H243 0.950 . S
C231 C262 1.383 . S
H232 C251 0.947 . S
H233 C252 0.946 . S
H234 C254 0.953 . S
H235 C255 0.945 . S
H236 C257 0.952 . S
H237 C258 0.949 . S
H238 C260 0.950 . S
H239 C261 0.948 . S
H240 C263 0.951 . S
H241 C228 0.947 . S
H242 C230 0.952 . S
H243 C231 0.950 . S
N244 C247 1.382 1_455 S
N244 C249 1.363 . S
N245 C247 1.371 . S
N245 C248 1.372 1_655 S
N246 C248 1.361 . S
N246 C249 1.377 . S
C247 N244 1.382 1_655 S
C247 N245 1.371 . S
C247 C250 1.480 . S
C248 N245 1.372 1_455 S
C248 N246 1.361 . S
C248 C256 1.457 . S
C249 N244 1.363 . S
C249 N246 1.377 . S
C249 C262 1.479 . S
C250 C247 1.480 . S
C250 C251 1.383 . S
C250 C255 1.385 . S
C251 H232 0.947 . S
C251 C250 1.383 . S
C251 C252 1.388 . S
C252 H233 0.946 . S
C252 C251 1.388 . S
C252 C253 1.384 . S
C253 C252 1.384 . S
C253 C254 1.377 . S
C254 H234 0.953 . S
C254 C253 1.377 . S
C254 C255 1.369 . S
C255 H235 0.945 . S
C255 C250 1.385 . S
C255 C254 1.369 . S
C256 C248 1.457 . S
C256 C257 1.372 1_455 S
C256 C261 1.364 . S
C257 H236 0.952 . S
C257 C256 1.372 1_655 S
C257 C258 1.389 . S
C258 H237 0.949 . S
C258 C257 1.389 . S
C258 C259 1.387 1_655 S
C259 C258 1.387 1_455 S
C259 C260 1.372 . S
C260 H238 0.950 . S
C260 C259 1.372 . S
C260 C261 1.379 . S
C261 H239 0.948 . S
C261 C256 1.364 . S
C261 C260 1.379 . S
C262 C231 1.383 . S
C262 C249 1.479 . S
C262 C263 1.398 . S
C263 C228 1.382 . S
C263 H240 0.951 . S
C263 C262 1.398 . S
C264 C265 1.384 . S
C264 H277 0.947 . S
C264 C299 1.382 . S
C265 C264 1.384 . S
C265 C266 1.378 . S
C266 C265 1.378 . S
C266 C267 1.378 . S
C266 H278 0.952 . S
C267 C266 1.378 . S
C267 H279 0.950 . S
C267 C298 1.383 . S
H268 C287 0.947 . S
H269 C288 0.946 . S
H270 C290 0.953 . S
H271 C291 0.945 . S
H272 C293 0.952 . S
H273 C294 0.949 . S
H274 C296 0.950 . S
H275 C297 0.948 . S
H276 C299 0.951 . S
H277 C264 0.947 . S
H278 C266 0.952 . S
H279 C267 0.950 . S
N280 C283 1.382 1_545 S
N280 C285 1.363 . S
N281 C283 1.371 . S
N281 C284 1.372 1_565 S
N282 C284 1.361 . S
N282 C285 1.377 . S
C283 N280 1.382 1_565 S
C283 N281 1.371 . S
C283 C286 1.480 . S
C284 N281 1.372 1_545 S
C284 N282 1.361 . S
C284 C292 1.457 . S
C285 N280 1.363 . S
C285 N282 1.377 . S
C285 C298 1.479 . S
C286 C283 1.480 . S
C286 C287 1.383 . S
C286 C291 1.385 . S
C287 H268 0.947 . S
C287 C286 1.383 . S
C287 C288 1.388 . S
C288 H269 0.946 . S
C288 C287 1.388 . S
C288 C289 1.384 . S
C289 C288 1.384 . S
C289 C290 1.377 . S
C290 H270 0.953 . S
C290 C289 1.377 . S
C290 C291 1.369 . S
C291 H271 0.945 . S
C291 C286 1.385 . S
C291 C290 1.369 . S
C292 C284 1.457 . S
C292 C293 1.372 1_545 S
C292 C297 1.364 . S
C293 H272 0.952 . S
C293 C292 1.372 1_565 S
C293 C294 1.389 . S
C294 H273 0.949 . S
C294 C293 1.389 . S
C294 C295 1.387 . S
C295 C294 1.387 . S
C295 C296 1.372 1_565 S
C296 H274 0.950 . S
C296 C295 1.372 1_545 S
C296 C297 1.379 . S
C297 H275 0.948 . S
C297 C292 1.364 . S
C297 C296 1.379 . S
C298 C267 1.383 . S
C298 C285 1.479 . S
C298 C299 1.398 . S
C299 C264 1.382 . S
C299 H276 0.951 . S
C299 C298 1.398 . S
C300 C301 1.384 . S
C300 H313 0.947 . S
C300 C335 1.382 . S
C301 C300 1.384 . S
C301 C302 1.378 . S
C302 C301 1.378 . S
C302 C303 1.378 . S
C302 H314 0.952 . S
C303 C302 1.378 . S
C303 H315 0.950 . S
C303 C334 1.383 . S
H304 C323 0.947 . S
H305 C324 0.946 . S
H306 C326 0.953 . S
H307 C327 0.945 . S
H308 C329 0.952 . S
H309 C330 0.949 . S
H310 C332 0.950 . S
H311 C333 0.948 . S
H312 C335 0.951 . S
H313 C300 0.947 . S
H314 C302 0.952 . S
H315 C303 0.950 . S
N316 C319 1.382 . S
N316 C321 1.363 . S
N317 C319 1.371 . S
N317 C320 1.372 . S
N318 C320 1.361 . S
N318 C321 1.377 . S
C319 N316 1.382 . S
C319 N317 1.371 . S
C319 C322 1.480 . S
C320 N317 1.372 . S
C320 N318 1.361 . S
C320 C328 1.457 1_554 S
C321 N316 1.363 . S
C321 N318 1.377 . S
C321 C334 1.479 . S
C322 C319 1.480 . S
C322 C323 1.383 . S
C322 C327 1.385 . S
C323 H304 0.947 . S
C323 C322 1.383 . S
C323 C324 1.388 . S
C324 H305 0.946 . S
C324 C323 1.388 . S
C324 C325 1.384 . S
C325 C324 1.384 . S
C325 C326 1.377 . S
C326 H306 0.953 . S
C326 C325 1.377 . S
C326 C327 1.369 . S
C327 H307 0.945 . S
C327 C322 1.385 . S
C327 C326 1.369 . S
C328 C320 1.457 1_556 S
C328 C329 1.372 . S
C328 C333 1.364 . S
C329 H308 0.952 . S
C329 C328 1.372 . S
C329 C330 1.389 . S
C330 H309 0.949 . S
C330 C329 1.389 . S
C330 C331 1.387 . S
C331 C330 1.387 . S
C331 C332 1.372 . S
C332 H310 0.950 . S
C332 C331 1.372 . S
C332 C333 1.379 . S
C333 H311 0.948 . S
C333 C328 1.364 . S
C333 C332 1.379 . S
C334 C303 1.383 . S
C334 C321 1.479 . S
C334 C335 1.398 . S
C335 C300 1.382 . S
C335 H312 0.951 . S
C335 C334 1.398 . S
C6 C325 3.457 . S
C59 C253 2.720 . S
C86 C289 2.526 . S
C15 C301 1.852 . S
C229 C50 3.236 . S
C265 C95 1.641 . S
C46 C181 1.818 . S
C99 C193 5.053 . S
C10 C121 3.366 . S
C157 C55 1.850 . S
C217 C90 4.920 . S
C19 C145 2.786 . S
C223 C18 2.037 . S
C49 C151 1.110 . S
C98 C187 1.460 . S
C295 C58 1.400 1_565 S
C331 C89 1.718 . S
C9 C259 1.082 . S
