# Generated by pormake.
# Topology pts, (4,4)-cn, num edge types: 1
# Building blocks:
#     Node 0, Type 0, BuildingBlock: MUDLON_clean_linker_0, # of connection points: 4
#     Node 1, Type 0, BuildingBlock: MUDLON_clean_linker_0, # of connection points: 4
#     Node 2, Type 1, BuildingBlock: AZAVOO_clean_sbu_0, # of connection points: 4
#     Node 3, Type 1, BuildingBlock: AZAVOO_clean_sbu_0, # of connection points: 4
#     Edge 4, Type (0, 1), BuildingBlock: TEMPAE_clean_linker_10, # of connection points: 2
#     Edge 5, Type (0, 1), BuildingBlock: TEMPAE_clean_linker_10, # of connection points: 2
#     Edge 6, Type (0, 1), BuildingBlock: TEMPAE_clean_linker_10, # of connection points: 2
#     Edge 7, Type (0, 1), BuildingBlock: TEMPAE_clean_linker_10, # of connection points: 2
#     Edge 8, Type (0, 1), BuildingBlock: TEMPAE_clean_linker_10, # of connection points: 2
#     Edge 9, Type (0, 1), BuildingBlock: TEMPAE_clean_linker_10, # of connection points: 2
#     Edge 10, Type (0, 1), BuildingBlock: TEMPAE_clean_linker_10, # of connection points: 2
#     Edge 11, Type (0, 1), BuildingBlock: TEMPAE_clean_linker_10, # of connection points: 2
# Relax obj value: 0.017
# Max RMSD: 0.069
# Mean RMSD: 0.066
data_MOF--net-pts--node1-AZAVOO_clean_sbu_0--node2-MUDLON_clean_linker_0--edge1-TEMPAE_clean_linker_10
_symmetry_space_group_name_H-M    P1
_symmetry_Int_Tables_number       1
_symmetry_cell_setting            triclinic
loop_
_symmetry_equiv_pos_as_xyz
'x, y, z'
_cell_length_a     34.102106
_cell_length_b     34.845859
_cell_length_c     44.846928
_cell_angle_alpha  89.96677
_cell_angle_beta   96.073665
_cell_angle_gamma 89.983202
loop_
_atom_site_label
_atom_site_type_symbol
_atom_site_fract_x
_atom_site_fract_y
_atom_site_fract_z
_atom_type_partial_charge
H0 H 0.71371 0.06778 0.02986 0.0
N1 N 0.67942 0.00331 0.00375 0.0
H2 H 0.76142 0.07009 0.07409 0.0
H3 H 0.70464 0.94516 0.03876 0.0
H4 H 0.75528 0.94639 0.08141 0.0
H5 H 0.71698 0.95392 0.97217 0.0
H6 H 0.75462 0.96761 0.93002 0.0
H7 H 0.68527 0.07322 0.9769 0.0
H8 H 0.72226 0.08734 0.93411 0.0
H9 H 0.64642 0.0655 0.0302 0.0
H10 H 0.61947 0.96568 0.97507 0.0
H11 H 0.5768 0.08049 0.02831 0.0
H12 H 0.54951 0.98181 0.9714 0.0
H13 H 0.34971 0.12444 0.01701 0.0
H14 H 0.31062 0.12101 0.05962 0.0
H15 H 0.35452 0.00628 0.0789 0.0
H16 H 0.39179 0.00935 0.03579 0.0
H17 H 0.35964 -0.00223 0.98301 0.0
H18 H 0.31193 0.98098 0.941 0.0
H19 H 0.31268 0.09852 0.90982 0.0
H20 H 0.36326 0.11399 0.95066 0.0
H21 H 0.45133 0.11792 0.99712 0.0
H22 H 0.52166 0.10348 0.99826 0.0
H23 H 0.49484 0.98215 0.99812 0.0
N24 N 0.39168 0.06893 0.99541 0.0
H25 H 0.42524 0.99688 0.99501 0.0
C26 C 0.70468 0.00627 0.03152 0.0
C27 C 0.72148 0.04135 0.04168 0.0
C28 C 0.7496 0.04247 0.0667 0.0
C29 C 0.76276 0.0084 0.08149 0.0
C30 C 0.74552 0.9734 0.07127 0.0
C31 C 0.71661 0.97251 0.04676 0.0
C32 C 0.69836 0.0124 0.97747 0.0
C33 C 0.71772 0.98299 0.96369 0.0
C34 C 0.73902 0.99091 0.93954 0.0
C35 C 0.74131 0.02858 0.92857 0.0
C36 C 0.72134 0.0581 0.94219 0.0
C37 C 0.70003 0.05008 0.9665 0.0
C38 C 0.6384 0.01384 0.00313 0.0
C39 C 0.62573 0.04673 0.01757 0.0
C40 C 0.58556 0.05562 0.01616 0.0
C41 C 0.55717 0.03235 -0.00021 0.0
C42 C 0.57018 -2e-05 0.98485 0.0
C43 C 0.61023 0.9908 0.98671 0.0
C44 C 0.37394 0.06746 0.02317 0.0
C45 C 0.35129 0.09883 0.03078 0.0
C46 C 0.32906 0.09681 0.05518 0.0
C47 C 0.32918 0.06324 0.07261 0.0
C48 C 0.35313 0.03232 0.06562 0.0
C49 C 0.375 0.03424 0.04104 0.0
C50 C 0.36593 0.05706 0.96952 0.0
C51 C 0.3508 0.01958 0.96654 0.0
C52 C 0.32263 0.01022 0.94273 0.0
C53 C 0.308 0.03837 0.92189 0.0
C54 C 0.32362 0.07576 0.9249 0.0
C55 C 0.35245 0.08481 0.94832 0.0
C56 C 0.43282 0.05877 0.99622 0.0
C57 C 0.46081 0.08825 0.99722 0.0
C58 C 0.50104 0.07986 0.99813 0.0
C59 C 0.51425 0.04155 0.99843 0.0
C60 C 0.48599 0.012 0.99743 0.0
C61 C 0.44578 0.02047 0.99602 0.0
H62 H 0.91355 0.69685 0.50976 0.0
N63 N 0.96546 0.65094 0.48817 0.0
H64 H 0.92277 0.7363 0.55492 0.0
H65 H 0.03106 0.65172 0.5289 0.0
H66 H 0.04187 0.6931 0.57313 0.0
H67 H 0.04163 0.66992 0.48012 0.0
H68 H 0.0633 0.70581 0.43828 0.0
H69 H 0.92166 0.6739 0.43894 0.0
H70 H 0.94287 0.71121 0.39722 0.0
H71 H 0.91527 0.60563 0.51246 0.0
H72 H 0.02352 0.603 0.4706 0.0
H73 H 0.91671 0.53591 0.51649 0.0
H74 H 0.02349 0.53362 0.47229 0.0
H75 H 0.90772 0.31592 0.50313 0.0
H76 H 0.91269 0.2731 0.54665 0.0
H77 H 0.02808 0.31934 0.57558 0.0
H78 H 0.02209 0.36283 0.53294 0.0
H79 H 0.03504 0.33242 0.48619 0.0
H80 H 0.05823 0.29745 0.44475 0.0
H81 H 0.95178 0.32846 0.38869 0.0
H82 H 0.92743 0.36086 0.43142 0.0
H83 H 0.90182 0.41301 0.48434 0.0
H84 H 0.90441 0.48285 0.48623 0.0
H85 H 0.03191 0.47763 0.5002 0.0
N86 N 0.96158 0.36453 0.48729 0.0
H87 H 0.02866 0.40787 0.49575 0.0
C88 C 0.97176 0.67213 0.51576 0.0
C89 C 0.94145 0.69576 0.52373 0.0
C90 C 0.94699 0.71847 0.54939 0.0
C91 C 0.98339 0.71854 0.5674 0.0
C92 C 0.01345 0.69375 0.55987 0.0
C93 C 0.00756 0.67047 0.53437 0.0
C94 C 0.97983 0.66931 0.46266 0.0
C95 C 0.01991 0.67837 0.46202 0.0
C96 C 0.03228 0.69905 0.43805 0.0
C97 C 0.0048 0.71165 0.41448 0.0
C98 C 0.96491 0.70152 0.41477 0.0
C99 C 0.95265 0.68048 0.43864 0.0
C100 C 0.96873 0.60981 0.49088 0.0
C101 C 0.9392 0.58998 0.50397 0.0
C102 C 0.93992 0.55007 0.50596 0.0
C103 C 0.96986 0.52885 0.49423 0.0
C104 C 1.00014 0.54884 0.48184 0.0
C105 C 0.99989 0.58889 0.48052 0.0
C106 C 0.96447 0.34232 0.51456 0.0
C107 C 0.93376 0.31711 0.51918 0.0
C108 C 0.93682 0.29255 0.54393 0.0
C109 C 0.971 0.29247 0.56447 0.0
C110 C 0.00117 0.31888 0.56043 0.0
C111 C 0.99788 0.34369 0.5358 0.0
C112 C 0.97868 0.34806 0.4622 0.0
C113 C 0.01655 0.33165 0.46511 0.0
C114 C 0.03015 0.31211 0.44103 0.0
C115 C 0.00667 0.30947 0.4133 0.0
C116 C 0.97022 0.32881 0.40988 0.0
C117 C 0.95629 0.34755 0.43418 0.0
C118 C 0.96483 0.40543 0.49037 0.0
C119 C 0.93021 0.42714 0.48795 0.0
C120 C 0.93187 0.46705 0.48933 0.0
C121 C 0.96841 0.48615 0.49371 0.0
C122 C 0.00324 0.46409 0.4965 0.0
C123 C 0.00149 0.42409 0.49447 0.0
Mg124 Mg 0.08407 -0.00193 0.26945 0.0
O125 O 0.02367 0.00044 0.24127 0.0
O126 O 0.97818 0.99551 0.27372 0.0
Mg127 Mg 0.00872 0.98369 0.3208 0.0
C128 C 0.98778 0.0 0.24716 0.0
C129 C 0.15318 0.02193 0.23681 0.0
O130 O 0.16898 0.00913 0.26293 0.0
O131 O 0.07405 0.05818 0.28791 0.0
O132 O 0.03327 0.04467 0.32242 0.0
O133 O 0.08729 0.93424 0.26349 0.0
O134 O 0.05987 0.96291 0.29994 0.0
C135 C 0.05484 0.06814 0.3096 0.0
C136 C 0.06765 0.9316 0.28656 0.0
O137 O 0.11582 0.02239 0.23155 0.0
Mg138 Mg 0.98845 0.99491 0.73624 0.0
O139 O 0.04893 0.99647 0.76426 0.0
O140 O 0.0949 0.98541 0.73316 0.0
Mg141 Mg 0.0644 0.97866 0.68562 0.0
C142 C 0.08488 0.99209 0.75929 0.0
C143 C 0.927 0.03854 0.77001 0.0
O144 O 0.91463 0.04773 0.74218 0.0
O145 O 0.99943 0.05435 0.71793 0.0
O146 O 0.04356 0.0416 0.68578 0.0
O147 O 0.98362 0.93134 0.74134 0.0
O148 O 0.01102 0.95978 0.70473 0.0
C149 C 0.02127 0.06505 0.69804 0.0
C150 C 0.0019 0.92847 0.71757 0.0
O151 O 0.95827 0.0187 0.77516 0.0
C152 C 0.28328 0.02517 0.10121 0.0
C153 C 0.30308 0.05975 0.09706 0.0
C154 C 0.25844 0.02121 0.12401 0.0
C155 C 0.25277 0.05275 0.14294 0.0
C156 C 0.27214 0.08794 0.13867 0.0
C157 C 0.29723 0.09097 0.11587 0.0
C158 C 0.23846 0.98312 0.12794 0.0
C159 C 0.2666 0.12226 0.15833 0.0
C160 C 0.16236 0.0469 0.18552 0.0
C161 C 0.1787 0.03285 0.21343 0.0
C162 C 0.18631 0.05483 0.16264 0.0
C163 C 0.22746 0.04827 0.16776 0.0
C164 C 0.24422 0.03514 0.19614 0.0
C165 C 0.21966 0.02773 0.21865 0.0
C166 C 0.16747 0.06922 0.13273 0.0
C167 C 0.28794 0.02761 0.20242 0.0
H168 H 0.28685 0.00115 0.0864 0.0
H169 H 0.31265 0.1177 0.11303 0.0
H170 H 0.24733 0.97171 0.15077 0.0
H171 H 0.20599 0.98697 0.12574 0.0
H172 H 0.24589 0.96145 0.11127 0.0
H173 H 0.28242 0.14804 0.15126 0.0
H174 H 0.23478 0.12922 0.15779 0.0
H175 H 0.27752 0.1155 0.18192 0.0
H176 H 0.13077 0.05115 0.18137 0.0
H177 H 0.23259 0.01699 0.24016 0.0
H178 H 0.17071 0.04733 0.1152 0.0
H179 H 0.18258 0.0956 0.12613 0.0
H180 H 0.1356 0.07558 0.13308 0.0
H181 H 0.29659 0.00414 0.18774 0.0
H182 H 0.29659 0.01938 0.22614 0.0
H183 H 0.3049 0.05348 0.19722 0.0
C184 C 0.9647 0.22506 0.58252 0.0
C185 C 0.97646 0.26306 0.58862 0.0
C186 C 0.97211 0.19615 0.60408 0.0
C187 C 0.99217 0.20529 0.63244 0.0
C188 C 0.00329 0.2437 0.63912 0.0
C189 C 0.99524 0.27219 0.61712 0.0
C190 C 0.95964 0.15551 0.59607 0.0
C191 C 0.02472 0.25448 0.66913 0.0
C192 C 0.98424 0.12696 0.69015 0.0
C193 C 0.01761 0.10471 0.68615 0.0
C194 C 0.97673 0.16137 0.67423 0.0
C195 C 0.0034 0.17386 0.65411 0.0
C196 C 0.03868 0.15315 0.65189 0.0
C197 C 0.04528 0.11876 0.66785 0.0
C198 C 0.93884 0.18271 0.67726 0.0
C199 C 0.06817 0.16583 0.63102 0.0
H200 H 0.95084 0.21752 0.56043 0.0
H201 H 0.00399 0.30158 0.62216 0.0
H202 H 0.98611 0.13702 0.59588 0.0
H203 H 0.94168 0.1437 0.61316 0.0
H204 H 0.94221 0.15363 0.57375 0.0
H205 H 0.02859 0.286 0.67164 0.0
H206 H 0.00844 0.24371 0.68758 0.0
H207 H 0.05425 0.24076 0.67174 0.0
H208 H 0.96274 0.11641 0.70431 0.0
H209 H 0.07143 0.10204 0.66498 0.0
H210 H 0.91813 0.17816 0.65677 0.0
H211 H 0.94431 0.21401 0.6794 0.0
H212 H 0.92436 0.17276 0.69693 0.0
H213 H 0.05549 0.16152 0.60744 0.0
H214 H 0.09623 0.14946 0.63473 0.0
H215 H 0.07479 0.19684 0.63397 0.0
C216 C 0.79685 0.98209 0.12987 0.0
C217 C 0.79548 0.00909 0.10648 0.0
C218 C 0.82862 0.98104 0.15248 0.0
C219 C 0.85919 0.00847 0.15242 0.0
C220 C 0.85756 0.03649 0.12949 0.0
C221 C 0.82617 0.03605 0.10656 0.0
C222 C 0.82968 0.95022 0.17626 0.0
C223 C 0.88911 0.06684 0.12907 0.0
C224 C 0.92146 0.02404 0.22678 0.0
C225 C 0.95592 0.00385 0.22238 0.0
C226 C 0.89021 0.02677 0.20386 0.0
C227 C 0.893 0.00768 0.1763 0.0
C228 C 0.92779 0.98721 0.17178 0.0
C229 C 0.95915 0.98609 0.19474 0.0
C230 C 0.85418 0.04995 0.20917 0.0
C231 C 0.93145 0.96559 0.14303 0.0
H232 H 0.7731 0.96161 0.13059 0.0
H233 H 0.8262 0.05656 0.08843 0.0
H234 H 0.85745 0.93352 0.17665 0.0
H235 H 0.82928 0.96348 0.19869 0.0
H236 H 0.80437 0.9301 0.17247 0.0
H237 H 0.88221 0.08807 0.11077 0.0
H238 H 0.8927 0.08234 0.1508 0.0
H239 H 0.91783 0.0532 0.12611 0.0
H240 H 0.91911 0.03802 0.24811 0.0
H241 H 0.98568 0.97017 0.19147 0.0
H242 H 0.82805 0.03092 0.20851 0.0
H243 H 0.84802 0.07158 0.19111 0.0
H244 H 0.8577 0.065 0.23112 0.0
H245 H 0.90769 0.94378 0.13955 0.0
H246 H 0.96038 0.95089 0.14314 0.0
H247 H 0.92772 0.98548 0.12364 0.0
C248 C 0.97439 0.78282 0.59049 0.0
C249 C 0.9902 0.74564 0.59307 0.0
C250 C 0.97977 0.80888 0.61428 0.0
C251 C 0.00238 0.79797 0.64124 0.0
C252 C 0.01907 0.76078 0.64398 0.0
C253 C 0.01253 0.7349 0.61991 0.0
C254 C 0.96128 0.84825 0.61045 0.0
C255 C 0.04384 0.74843 0.67224 0.0
C256 C 0.03768 0.88642 0.68449 0.0
C257 C 0.00803 0.89097 0.70354 0.0
C258 C 0.0385 0.85408 0.66599 0.0
C259 C 0.00841 0.82614 0.66616 0.0
C260 C 0.9803 0.82907 0.68714 0.0
C261 C 0.98071 0.86137 0.70586 0.0
C262 C 0.06967 0.85147 0.64455 0.0
C263 C 0.94749 0.80012 0.68785 0.0
H264 H 0.95802 0.79183 0.56964 0.0
H265 H 0.02462 0.70617 0.62224 0.0
H266 H 0.94212 0.85368 0.62852 0.0
H267 H 0.9846 0.87056 0.61228 0.0
H268 H 0.94327 0.85164 0.58847 0.0
H269 H 0.05555 0.71885 0.67052 0.0
H270 H 0.069 0.76844 0.67716 0.0
H271 H 0.02608 0.74966 0.69155 0.0
H272 H 0.05935 0.90885 0.6831 0.0
H273 H 0.95771 0.8648 0.72059 0.0
H274 H 0.05646 0.85899 0.62161 0.0
H275 H 0.0813 0.82179 0.64376 0.0
H276 H 0.09465 0.87135 0.65084 0.0
H277 H 0.92575 0.8043 0.66788 0.0
H278 H 0.9319 0.80315 0.70826 0.0
H279 H 0.959 0.77044 0.68691 0.0
C280 C 0.27363 0.04736 0.86982 0.0
C281 C 0.2755 0.02928 0.89795 0.0
C282 C 0.24208 0.04065 0.84772 0.0
C283 C 0.21217 0.01433 0.85345 0.0
C284 C 0.21429 0.99518 0.88139 0.0
C285 C 0.24554 0.00329 0.90342 0.0
C286 C 0.24052 0.06211 0.81834 0.0
C287 C 0.1834 0.96628 0.88808 0.0
C288 C 0.11242 0.02265 0.80733 0.0
C289 C 0.1163 0.99609 0.78438 0.0
C290 C 0.1434 0.02885 0.83002 0.0
C291 C 0.17854 0.00711 0.8302 0.0
C292 C 0.18197 0.97923 0.80767 0.0
C293 C 0.15103 0.9745 0.78474 0.0
C294 C 0.13902 0.0595 0.85322 0.0
C295 C 0.21844 0.95464 0.80764 0.0
H296 H 0.29686 0.06686 0.86498 0.0
H297 H 0.24601 0.98966 0.92517 0.0
H298 H 0.24122 0.04155 0.79954 0.0
H299 H 0.21245 0.07836 0.81443 0.0
H300 H 0.26546 0.08251 0.81776 0.0
H301 H 0.19057 0.9522 0.91022 0.0
H302 H 0.15433 0.98061 0.88788 0.0
H303 H 0.18039 0.94382 0.87046 0.0
H304 H 0.0857 0.03959 0.80691 0.0
H305 H 0.1539 0.9537 0.76712 0.0
H306 H 0.16217 0.08167 0.85203 0.0
H307 H 0.1432 0.04694 0.87606 0.0
H308 H 0.1097 0.07369 0.85006 0.0
H309 H 0.24425 0.97291 0.80436 0.0
H310 H 0.21535 0.93254 0.7897 0.0
H311 H 0.22482 0.94005 0.82962 0.0
C312 C 0.98907 0.26059 0.37316 0.0
C313 C 0.01804 0.28298 0.38956 0.0
C314 C 0.99939 0.23031 0.35502 0.0
C315 C 0.03967 0.22156 0.35368 0.0
C316 C 0.06903 0.24596 0.36797 0.0
C317 C 0.05785 0.2766 0.38559 0.0
C318 C 0.96707 0.20542 0.33967 0.0
C319 C 0.11231 0.23779 0.36688 0.0
C320 C 0.05419 0.11443 0.35135 0.0
C321 C 0.05704 0.10791 0.32086 0.0
C322 C 0.05121 0.15162 0.36253 0.0
C323 C 0.05037 0.18318 0.34259 0.0
C324 C 0.05538 0.17701 0.31199 0.0
C325 C 0.05896 0.13925 0.30145 0.0
C326 C 0.04674 0.15687 0.39546 0.0
C327 C 0.05449 0.20991 0.29006 0.0
H328 H 0.95823 0.2648 0.37604 0.0
H329 H 0.08048 0.29438 0.39739 0.0
H330 H 0.9732 0.19836 0.3165 0.0
H331 H 0.96572 0.17802 0.35215 0.0
H332 H 0.93773 0.21951 0.33872 0.0
H333 H 0.13086 0.26314 0.37373 0.0
H334 H 0.12133 0.21379 0.38239 0.0
H335 H 0.11826 0.22887 0.34405 0.0
H336 H 0.05337 0.09021 0.36648 0.0
H337 H 0.06116 0.13419 0.27784 0.0
H338 H 0.01654 0.16725 0.39812 0.0
H339 H 0.06781 0.17876 0.4054 0.0
H340 H 0.05176 0.12976 0.40835 0.0
H341 H 0.0236 0.21974 0.28466 0.0
H342 H 0.0662 0.20141 0.26883 0.0
H343 H 0.07179 0.23464 0.2999 0.0
C344 C 0.7659 0.01104 0.8797 0.0
C345 C 0.76572 0.03677 0.90373 0.0
C346 C 0.79187 0.01586 0.85778 0.0
C347 C 0.81808 0.04747 0.85968 0.0
C348 C 0.81677 0.07462 0.88302 0.0
C349 C 0.7907 0.06887 0.90487 0.0
C350 C 0.79227 0.98626 0.83321 0.0
C351 C 0.84395 0.10892 0.88557 0.0
C352 C 0.91146 0.02982 0.82286 0.0
C353 C 0.90177 0.04593 0.79436 0.0
C354 C 0.88515 0.03169 0.84484 0.0
C355 C 0.8484 0.0504 0.83825 0.0
C356 C 0.83944 0.06874 0.81019 0.0
C357 C 0.8662 0.06618 0.78851 0.0
C358 C 0.8958 0.01173 0.8745 0.0
C359 C 0.8008 0.08945 0.80252 0.0
H360 H 0.74611 0.98661 0.87832 0.0
H361 H 0.79098 0.08875 0.92347 0.0
H362 H 0.78818 0.00035 0.81092 0.0
H363 H 0.8213 0.97156 0.83509 0.0
H364 H 0.76887 0.96425 0.83421 0.0
H365 H 0.83638 0.12944 0.90303 0.0
H366 H 0.87479 0.09918 0.89135 0.0
H367 H 0.84277 0.12421 0.86379 0.0
H368 H 0.93894 0.01428 0.82766 0.0
H369 H 0.85859 0.07898 0.76664 0.0
H370 H 0.8758 0.98694 0.87643 0.0
H371 H 0.89185 0.03146 0.89334 0.0
H372 H 0.9267 0.0011 0.877 0.0
H373 H 0.77637 0.06829 0.79993 0.0
H374 H 0.80037 0.10613 0.78137 0.0
H375 H 0.7949 0.10924 0.8209 0.0
C376 C 0.04351 0.76792 0.39927 0.0
C377 C 0.0171 0.73795 0.39109 0.0
C378 C 0.05248 0.79554 0.37836 0.0
C379 C 0.03436 0.79341 0.34852 0.0
C380 C 0.00904 0.76235 0.3397 0.0
C381 C 1.00069 0.73493 0.36112 0.0
C382 C 0.07973 0.82821 0.38868 0.0
C383 C 0.98936 0.75905 0.30804 0.0
C384 C 0.02214 0.89177 0.31353 0.0
C385 C 0.05537 0.89415 0.29779 0.0
C386 C 0.01349 0.85809 0.32853 0.0
C387 C 0.03886 0.82603 0.32783 0.0
C388 C 0.07092 0.82733 0.31021 0.0
C389 C 0.07873 0.86147 0.29522 0.0
C390 C 0.9786 0.85771 0.34667 0.0
C391 C 0.0985 0.79366 0.30882 0.0
H392 H 0.0559 0.77087 0.42242 0.0
H393 H 0.98072 0.71152 0.35453 0.0
H394 H 0.10299 0.83163 0.37336 0.0
H395 H 0.06276 0.85543 0.38813 0.0
H396 H 0.09413 0.8238 0.41183 0.0
H397 H 0.97471 0.73082 0.30381 0.0
H398 H 0.9668 0.78193 0.30392 0.0
H399 H 0.01116 0.76321 0.29164 0.0
H400 H 0.00329 0.91653 0.31476 0.0
H401 H 0.10439 0.86321 0.28293 0.0
H402 H 0.98922 0.85682 0.37092 0.0
H403 H 0.96041 0.8317 0.34151 0.0
H404 H 0.95958 0.88344 0.34238 0.0
H405 H 0.11726 0.79105 0.33051 0.0
H406 H 0.11804 0.79698 0.29068 0.0
H407 H 0.08168 0.76652 0.30524 0.0
loop_
_geom_bond_atom_site_label_1
_geom_bond_atom_site_label_2
_geom_bond_distance
_geom_bond_site_symmetry_2
_ccdc_geom_bond_type
H0 C27 0.929 . S
N1 C26 1.398 1_556 S
N1 C32 1.468 . S
N1 C38 1.424 . S
H2 C28 0.930 . S
H3 C31 0.929 1_565 S
H4 C30 0.929 . S
H5 C33 0.930 . S
H6 C34 0.932 . S
H7 C37 0.929 . S
H8 C36 0.931 . S
H9 C39 0.929 . S
H10 C43 0.932 1_565 S
H11 C40 0.931 . S
H12 C42 0.929 . S
H13 C45 0.929 . S
H14 C46 0.930 . S
H15 C48 0.929 . S
H16 C49 0.929 1_565 S
H17 C51 0.930 . S
H18 C52 0.932 . S
H19 C54 0.931 . S
H20 C55 0.929 . S
H21 C57 0.929 . S
H22 C58 0.931 . S
H23 C60 0.929 . S
N24 C44 1.433 1_556 S
N24 C50 1.435 . S
N24 C56 1.423 . S
H25 C61 0.932 1_565 S
C26 N1 1.398 1_554 S
C26 C27 1.363 . S
C26 C31 1.372 . S
C27 H0 0.929 . S
C27 C26 1.363 . S
C27 C28 1.385 . S
C28 H2 0.930 . S
C28 C27 1.385 . S
C28 C29 1.357 . S
C29 C28 1.357 . S
C29 C30 1.406 1_545 S
C30 H4 0.929 . S
C30 C29 1.406 1_565 S
C30 C31 1.391 1_565 S
C31 H3 0.929 1_545 S
C31 C26 1.372 . S
C31 C30 1.391 1_545 S
C32 N1 1.468 . S
C32 C33 1.358 1_545 S
C32 C37 1.371 . S
C33 H5 0.930 . S
C33 C32 1.358 1_565 S
C33 C34 1.405 . S
C34 H6 0.932 . S
C34 C33 1.405 . S
C34 C35 1.383 1_565 S
C35 C34 1.383 1_545 S
C35 C36 1.393 . S
C36 H8 0.931 . S
C36 C35 1.393 . S
C36 C37 1.382 . S
C37 H7 0.929 . S
C37 C32 1.371 . S
C37 C36 1.382 . S
C38 N1 1.424 . S
C38 C39 1.362 1_556 S
C38 C43 1.388 . S
C39 H9 0.929 . S
C39 C38 1.362 1_554 S
C39 C40 1.376 . S
C40 H11 0.931 . S
C40 C39 1.376 . S
C40 C41 1.396 1_554 S
C41 C40 1.396 1_556 S
C41 C42 1.348 . S
C41 C59 1.472 . S
C42 H12 0.929 . S
C42 C41 1.348 . S
C42 C43 1.443 . S
C43 H10 0.932 1_545 S
C43 C38 1.388 . S
C43 C42 1.443 . S
C44 N24 1.433 1_554 S
C44 C45 1.363 . S
C44 C49 1.372 . S
C45 H13 0.929 . S
C45 C44 1.363 . S
C45 C46 1.385 . S
C46 H14 0.930 . S
C46 C45 1.385 . S
C46 C47 1.357 . S
C47 C46 1.357 . S
C47 C48 1.406 1_545 S
C48 H15 0.929 . S
C48 C47 1.406 1_565 S
C48 C49 1.391 1_565 S
C49 H16 0.929 1_545 S
C49 C44 1.372 . S
C49 C48 1.391 1_545 S
C50 N24 1.435 . S
C50 C51 1.358 1_545 S
C50 C55 1.371 . S
C51 H17 0.930 . S
C51 C50 1.358 1_565 S
C51 C52 1.405 . S
C52 H18 0.932 . S
C52 C51 1.405 . S
C52 C53 1.383 1_565 S
C53 C52 1.383 1_545 S
C53 C54 1.393 . S
C54 H19 0.931 . S
C54 C53 1.393 . S
C54 C55 1.382 . S
C55 H20 0.929 . S
C55 C50 1.371 . S
C55 C54 1.382 . S
C56 N24 1.423 . S
C56 C57 1.362 1_556 S
C56 C61 1.388 . S
C57 H21 0.929 . S
C57 C56 1.362 1_554 S
C57 C58 1.376 . S
C58 H22 0.931 . S
C58 C57 1.376 . S
C58 C59 1.396 1_554 S
C59 C41 1.472 . S
C59 C58 1.396 1_556 S
C59 C60 1.348 . S
C60 H23 0.929 . S
C60 C59 1.348 . S
C60 C61 1.443 . S
C61 H25 0.932 1_545 S
C61 C56 1.388 . S
C61 C60 1.443 . S
H62 C89 0.929 . S
N63 C88 1.433 . S
N63 C94 1.435 . S
N63 C100 1.425 . S
H64 C90 0.930 . S
H65 C93 0.931 . S
H66 C92 0.929 . S
H67 C95 0.930 . S
H68 C96 0.932 . S
H69 C99 0.929 . S
H70 C98 0.931 1_655 S
H71 C101 0.929 . S
H72 C105 0.932 . S
H73 C102 0.931 . S
H74 C104 0.929 . S
H75 C107 0.929 . S
H76 C108 0.930 . S
H77 C110 0.929 . S
H78 C111 0.931 . S
H79 C113 0.930 . S
H80 C114 0.932 . S
H81 C116 0.931 1_655 S
H82 C117 0.929 . S
H83 C119 0.929 . S
H84 C120 0.931 . S
H85 C122 0.929 . S
N86 C106 1.433 . S
N86 C112 1.435 . S
N86 C118 1.425 . S
H87 C123 0.932 . S
C88 N63 1.433 . S
C88 C89 1.363 1_455 S
C88 C93 1.370 . S
C89 H62 0.929 . S
C89 C88 1.363 1_655 S
C89 C90 1.385 . S
C90 H64 0.930 . S
C90 C89 1.385 . S
C90 C91 1.357 1_655 S
C91 C90 1.357 1_455 S
C91 C92 1.406 . S
C92 H66 0.929 . S
C92 C91 1.406 . S
C92 C93 1.391 . S
C93 H65 0.931 . S
C93 C88 1.370 . S
C93 C92 1.391 . S
C94 N63 1.435 . S
C94 C95 1.358 . S
C94 C99 1.371 1_455 S
C95 H67 0.930 . S
C95 C94 1.358 . S
C95 C96 1.405 . S
C96 H68 0.932 . S
C96 C95 1.405 . S
C96 C97 1.383 . S
C97 C96 1.383 . S
C97 C98 1.393 . S
C98 H70 0.931 1_455 S
C98 C97 1.393 . S
C98 C99 1.382 1_455 S
C99 H69 0.929 . S
C99 C94 1.371 1_655 S
C99 C98 1.382 1_655 S
C100 N63 1.425 . S
C100 C101 1.355 1_455 S
C100 C105 1.395 . S
C101 H71 0.929 . S
C101 C100 1.355 1_655 S
C101 C102 1.376 . S
C102 H73 0.931 . S
C102 C101 1.376 . S
C102 C103 1.396 . S
C103 C102 1.396 . S
C103 C104 1.348 1_655 S
C103 C121 1.472 . S
C104 H74 0.929 . S
C104 C103 1.348 1_455 S
C104 C105 1.443 . S
C105 H72 0.932 . S
C105 C100 1.395 . S
C105 C104 1.443 . S
C106 N86 1.433 . S
C106 C107 1.363 1_455 S
C106 C111 1.370 . S
C107 H75 0.929 . S
C107 C106 1.363 1_655 S
C107 C108 1.385 . S
C108 H76 0.930 . S
C108 C107 1.385 . S
C108 C109 1.357 1_655 S
C109 C108 1.357 1_455 S
C109 C110 1.406 . S
C110 H77 0.929 . S
C110 C109 1.406 . S
C110 C111 1.391 . S
C111 H78 0.931 . S
C111 C106 1.370 . S
C111 C110 1.391 . S
C112 N86 1.435 . S
C112 C113 1.358 . S
C112 C117 1.371 1_455 S
C113 H79 0.930 . S
C113 C112 1.358 . S
C113 C114 1.405 . S
C114 H80 0.932 . S
C114 C113 1.405 . S
C114 C115 1.383 . S
C115 C114 1.383 . S
C115 C116 1.393 . S
C116 H81 0.931 1_455 S
C116 C115 1.393 . S
C116 C117 1.382 1_455 S
C117 H82 0.929 . S
C117 C112 1.371 1_655 S
C117 C116 1.382 1_655 S
C118 N86 1.425 . S
C118 C119 1.355 1_455 S
C118 C123 1.395 . S
C119 H83 0.929 . S
C119 C118 1.355 1_655 S
C119 C120 1.376 . S
C120 H84 0.931 . S
C120 C119 1.376 . S
C120 C121 1.396 . S
C121 C103 1.472 . S
C121 C120 1.396 . S
C121 C122 1.348 1_655 S
C122 H85 0.929 . S
C122 C121 1.348 1_455 S
C122 C123 1.443 . S
C123 H87 0.932 . S
C123 C118 1.395 . S
C123 C122 1.443 . S
Mg124 O125 2.028 . S
Mg124 O131 1.986 . S
Mg124 O133 2.114 1_545 S
Mg124 O134 2.251 1_545 S
Mg124 O137 2.010 . S
O125 Mg124 2.028 . S
O125 C128 1.250 1_455 S
O126 Mg127 2.028 . S
O126 C128 1.248 . S
Mg127 O126 2.028 . S
Mg127 O132 2.032 1_655 S
Mg127 O134 2.079 1_645 S
C128 O125 1.250 1_655 S
C128 O126 1.248 . S
C129 O130 1.264 . S
C129 O137 1.249 . S
O130 C129 1.264 . S
O131 Mg124 1.986 . S
O131 C135 1.246 . S
O132 Mg127 2.032 1_455 S
O132 C135 1.259 . S
O133 Mg124 2.114 1_565 S
O133 C136 1.252 . S
O134 Mg124 2.251 1_565 S
O134 Mg127 2.079 1_465 S
O134 C136 1.273 . S
C135 O131 1.246 . S
C135 O132 1.259 . S
C136 O133 1.252 . S
C136 O134 1.273 . S
O137 Mg124 2.010 . S
O137 C129 1.249 . S
Mg138 O139 2.028 1_655 S
Mg138 O145 1.986 . S
Mg138 O147 2.114 1_545 S
Mg138 O148 2.251 1_645 S
Mg138 O151 2.010 . S
O139 Mg138 2.028 1_455 S
O139 C142 1.250 . S
O140 Mg141 2.028 . S
O140 C142 1.248 . S
Mg141 O140 2.028 . S
Mg141 O146 2.032 . S
Mg141 O148 2.079 1_545 S
C142 O139 1.250 . S
C142 O140 1.248 . S
C143 O144 1.264 . S
C143 O151 1.249 . S
O144 C143 1.264 . S
O145 Mg138 1.986 . S
O145 C149 1.246 1_655 S
O146 Mg141 2.032 . S
O146 C149 1.259 . S
O147 Mg138 2.114 1_565 S
O147 C150 1.252 1_655 S
O148 Mg138 2.251 1_465 S
O148 Mg141 2.079 1_565 S
O148 C150 1.273 . S
C149 O145 1.246 1_455 S
C149 O146 1.259 . S
C150 O147 1.252 1_455 S
C150 O148 1.273 . S
O151 Mg138 2.010 . S
O151 C143 1.249 . S
C152 C153 1.391 1_565 S
C152 C154 1.394 . S
C152 H168 0.931 . S
C153 C152 1.391 1_545 S
C153 C157 1.376 . S
C154 C152 1.394 . S
C154 C155 1.369 1_565 S
C154 C158 1.531 . S
C155 C154 1.369 1_545 S
C155 C156 1.410 . S
C155 C163 1.503 . S
C156 C155 1.410 . S
C156 C157 1.392 . S
C156 C159 1.511 . S
C157 C153 1.376 . S
C157 C156 1.392 . S
C157 H169 0.929 . S
C158 C154 1.531 . S
C158 H170 0.960 . S
C158 H171 0.962 . S
C158 H172 0.960 . S
C159 C156 1.511 . S
C159 H173 0.961 . S
C159 H174 0.961 . S
C159 H175 0.961 . S
C160 C161 1.370 1_565 S
C160 C162 1.363 . S
C160 H176 0.931 . S
C161 C160 1.370 1_545 S
C161 C165 1.408 . S
C162 C160 1.363 . S
C162 C163 1.370 1_565 S
C162 C166 1.524 . S
C163 C155 1.503 . S
C163 C162 1.370 1_545 S
C163 C164 1.403 . S
C164 C163 1.403 . S
C164 C165 1.404 . S
C164 C167 1.539 . S
C165 C161 1.408 . S
C165 C164 1.404 . S
C165 H177 0.930 . S
C166 C162 1.524 . S
C166 H178 0.956 . S
C166 H179 0.961 . S
C166 H180 0.961 . S
C167 C164 1.539 . S
C167 H181 0.958 . S
C167 H182 0.961 . S
C167 H183 0.960 . S
H168 C152 0.931 . S
H169 C157 0.929 . S
H170 C158 0.960 . S
H171 C158 0.962 . S
H172 C158 0.960 . S
H173 C159 0.961 . S
H174 C159 0.961 . S
H175 C159 0.961 . S
H176 C160 0.931 . S
H177 C165 0.930 . S
H178 C166 0.956 . S
H179 C166 0.961 . S
H180 C166 0.961 . S
H181 C167 0.958 . S
H182 C167 0.961 . S
H183 C167 0.960 . S
C184 C185 1.391 . S
C184 C186 1.394 . S
C184 H200 0.931 . S
C185 C184 1.391 . S
C185 C189 1.376 . S
C186 C184 1.394 . S
C186 C187 1.369 . S
C186 C190 1.531 . S
C187 C186 1.369 . S
C187 C188 1.410 . S
C187 C195 1.503 . S
C188 C187 1.410 . S
C188 C189 1.392 . S
C188 C191 1.510 1_455 S
C189 C185 1.376 . S
C189 C188 1.392 . S
C189 H201 0.929 . S
C190 C186 1.531 . S
C190 H202 0.960 . S
C190 H203 0.962 . S
C190 H204 0.960 . S
C191 C188 1.510 1_655 S
C191 H205 0.963 . S
C191 H206 0.963 . S
C191 H207 0.958 1_655 S
C192 C193 1.370 1_655 S
C192 C194 1.363 . S
C192 H208 0.931 . S
C193 C192 1.370 1_455 S
C193 C197 1.408 . S
C194 C192 1.363 . S
C194 C195 1.370 1_655 S
C194 C198 1.524 . S
C195 C187 1.503 . S
C195 C194 1.370 1_455 S
C195 C196 1.403 . S
C196 C195 1.403 . S
C196 C197 1.404 . S
C196 C199 1.539 . S
C197 C193 1.408 . S
C197 C196 1.404 . S
C197 H209 0.930 . S
C198 C194 1.524 . S
C198 H210 0.956 . S
C198 H211 0.961 . S
C198 H212 0.961 . S
C199 C196 1.539 . S
C199 H213 0.958 . S
C199 H214 0.961 . S
C199 H215 0.960 . S
H200 C184 0.931 . S
H201 C189 0.929 . S
H202 C190 0.960 . S
H203 C190 0.962 . S
H204 C190 0.960 . S
H205 C191 0.963 . S
H206 C191 0.963 . S
H207 C191 0.958 1_455 S
H208 C192 0.931 . S
H209 C197 0.930 . S
H210 C198 0.956 . S
H211 C198 0.961 . S
H212 C198 0.961 . S
H213 C199 0.958 . S
H214 C199 0.961 . S
H215 C199 0.960 . S
C216 C217 1.391 1_565 S
C216 C218 1.394 . S
C216 H232 0.931 . S
C217 C216 1.391 1_545 S
C217 C221 1.376 . S
C218 C216 1.394 . S
C218 C219 1.369 1_565 S
C218 C222 1.531 . S
C219 C218 1.369 1_545 S
C219 C220 1.410 . S
C219 C227 1.503 . S
C220 C219 1.410 . S
C220 C221 1.392 . S
C220 C223 1.511 . S
C221 C217 1.376 . S
C221 C220 1.392 . S
C221 H233 0.929 . S
C222 C218 1.531 . S
C222 H234 0.960 . S
C222 H235 0.962 . S
C222 H236 0.960 . S
C223 C220 1.511 . S
C223 H237 0.961 . S
C223 H238 0.961 . S
C223 H239 0.961 . S
C224 C225 1.370 . S
C224 C226 1.363 . S
C224 H240 0.931 . S
C225 C224 1.370 . S
C225 C229 1.408 1_545 S
C226 C224 1.363 . S
C226 C227 1.370 . S
C226 C230 1.524 . S
C227 C219 1.503 . S
C227 C226 1.370 . S
C227 C228 1.403 1_545 S
C228 C227 1.403 1_565 S
C228 C229 1.404 . S
C228 C231 1.539 . S
C229 C225 1.408 1_565 S
C229 C228 1.404 . S
C229 H241 0.930 . S
C230 C226 1.524 . S
C230 H242 0.956 . S
C230 H243 0.961 . S
C230 H244 0.961 . S
C231 C228 1.539 . S
C231 H245 0.958 . S
C231 H246 0.961 . S
C231 H247 0.960 . S
H232 C216 0.931 . S
H233 C221 0.929 . S
H234 C222 0.960 . S
H235 C222 0.962 . S
H236 C222 0.960 . S
H237 C223 0.961 . S
H238 C223 0.961 . S
H239 C223 0.961 . S
H240 C224 0.931 . S
H241 C229 0.930 . S
H242 C230 0.956 . S
H243 C230 0.961 . S
H244 C230 0.961 . S
H245 C231 0.958 . S
H246 C231 0.961 . S
H247 C231 0.960 . S
C248 C249 1.391 . S
C248 C250 1.394 . S
C248 H264 0.931 . S
C249 C248 1.391 . S
C249 C253 1.376 1_455 S
C250 C248 1.394 . S
C250 C251 1.369 . S
C250 C254 1.531 . S
C251 C250 1.369 . S
C251 C252 1.410 1_455 S
C251 C259 1.503 . S
C252 C251 1.410 1_655 S
C252 C253 1.392 . S
C252 C255 1.511 . S
C253 C249 1.376 1_655 S
C253 C252 1.392 . S
C253 H265 0.929 . S
C254 C250 1.531 . S
C254 H266 0.960 . S
C254 H267 0.962 . S
C254 H268 0.960 . S
C255 C252 1.511 . S
C255 H269 0.961 . S
C255 H270 0.961 . S
C255 H271 0.961 . S
C256 C257 1.370 . S
C256 C258 1.363 . S
C256 H272 0.931 . S
C257 C256 1.370 . S
C257 C261 1.408 1_455 S
C258 C256 1.363 . S
C258 C259 1.370 . S
C258 C262 1.524 . S
C259 C251 1.503 . S
C259 C258 1.370 . S
C259 C260 1.403 1_455 S
C260 C259 1.403 1_655 S
C260 C261 1.404 . S
C260 C263 1.539 . S
C261 C257 1.408 1_655 S
C261 C260 1.404 . S
C261 H273 0.930 . S
C262 C258 1.524 . S
C262 H274 0.956 . S
C262 H275 0.961 . S
C262 H276 0.961 . S
C263 C260 1.539 . S
C263 H277 0.958 . S
C263 H278 0.961 . S
C263 H279 0.960 . S
H264 C248 0.931 . S
H265 C253 0.929 . S
H266 C254 0.960 . S
H267 C254 0.962 . S
H268 C254 0.960 . S
H269 C255 0.961 . S
H270 C255 0.961 . S
H271 C255 0.961 . S
H272 C256 0.931 . S
H273 C261 0.930 . S
H274 C262 0.956 . S
H275 C262 0.961 . S
H276 C262 0.961 . S
H277 C263 0.958 . S
H278 C263 0.961 . S
H279 C263 0.960 . S
C280 C281 1.391 . S
C280 C282 1.394 . S
C280 H296 0.931 . S
C281 C280 1.391 . S
C281 C285 1.376 . S
C282 C280 1.394 . S
C282 C283 1.369 . S
C282 C286 1.531 . S
C283 C282 1.369 . S
C283 C284 1.410 . S
C283 C291 1.503 . S
C284 C283 1.410 . S
C284 C285 1.392 . S
C284 C287 1.511 . S
C285 C281 1.376 . S
C285 C284 1.392 . S
C285 H297 0.929 . S
C286 C282 1.531 . S
C286 H298 0.960 1_545 S
C286 H299 0.962 . S
C286 H300 0.960 1_545 S
C287 C284 1.511 . S
C287 H301 0.961 . S
C287 H302 0.961 . S
C287 H303 0.961 1_545 S
C288 C289 1.370 . S
C288 C290 1.363 . S
C288 H304 0.931 . S
C289 C288 1.370 . S
C289 C293 1.408 1_545 S
C290 C288 1.363 . S
C290 C291 1.370 . S
C290 C294 1.524 . S
C291 C283 1.503 . S
C291 C290 1.370 . S
C291 C292 1.403 1_545 S
C292 C291 1.403 1_565 S
C292 C293 1.404 . S
C292 C295 1.539 . S
C293 C289 1.408 1_565 S
C293 C292 1.404 . S
C293 H305 0.930 . S
C294 C290 1.524 . S
C294 H306 0.956 . S
C294 H307 0.961 . S
C294 H308 0.961 . S
C295 C292 1.539 . S
C295 H309 0.958 . S
C295 H310 0.961 . S
C295 H311 0.960 . S
H296 C280 0.931 . S
H297 C285 0.929 . S
H298 C286 0.960 1_565 S
H299 C286 0.962 . S
H300 C286 0.960 1_565 S
H301 C287 0.961 . S
H302 C287 0.961 . S
H303 C287 0.961 1_565 S
H304 C288 0.931 . S
H305 C293 0.930 . S
H306 C294 0.956 . S
H307 C294 0.961 . S
H308 C294 0.961 . S
H309 C295 0.958 . S
H310 C295 0.961 . S
H311 C295 0.960 . S
C312 C313 1.391 . S
C312 C314 1.394 . S
C312 H328 0.931 1_455 S
C313 C312 1.391 . S
C313 C317 1.376 . S
C314 C312 1.394 . S
C314 C315 1.369 . S
C314 C318 1.531 1_455 S
C315 C314 1.369 . S
C315 C316 1.410 . S
C315 C323 1.503 . S
C316 C315 1.410 . S
C316 C317 1.392 . S
C316 C319 1.511 . S
C317 C313 1.376 . S
C317 C316 1.392 . S
C317 H329 0.929 . S
C318 C314 1.531 1_655 S
C318 H330 0.960 . S
C318 H331 0.962 . S
C318 H332 0.960 . S
C319 C316 1.511 . S
C319 H333 0.961 . S
C319 H334 0.961 . S
C319 H335 0.961 . S
C320 C321 1.370 . S
C320 C322 1.363 . S
C320 H336 0.931 . S
C321 C320 1.370 . S
C321 C325 1.408 . S
C322 C320 1.363 . S
C322 C323 1.370 . S
C322 C326 1.524 . S
C323 C315 1.503 . S
C323 C322 1.370 . S
C323 C324 1.403 . S
C324 C323 1.403 . S
C324 C325 1.404 . S
C324 C327 1.539 . S
C325 C321 1.408 . S
C325 C324 1.404 . S
C325 H337 0.930 . S
C326 C322 1.524 . S
C326 H338 0.956 1_455 S
C326 H339 0.961 . S
C326 H340 0.961 . S
C327 C324 1.539 . S
C327 H341 0.958 . S
C327 H342 0.961 . S
C327 H343 0.960 . S
H328 C312 0.931 1_655 S
H329 C317 0.929 . S
H330 C318 0.960 . S
H331 C318 0.962 . S
H332 C318 0.960 . S
H333 C319 0.961 . S
H334 C319 0.961 . S
H335 C319 0.961 . S
H336 C320 0.931 . S
H337 C325 0.930 . S
H338 C326 0.956 1_655 S
H339 C326 0.961 . S
H340 C326 0.961 . S
H341 C327 0.958 . S
H342 C327 0.961 . S
H343 C327 0.960 . S
C344 C345 1.391 1_565 S
C344 C346 1.394 . S
C344 H360 0.931 . S
C345 C344 1.391 1_545 S
C345 C349 1.376 . S
C346 C344 1.394 . S
C346 C347 1.369 1_565 S
C346 C350 1.531 . S
C347 C346 1.369 1_545 S
C347 C348 1.410 . S
C347 C355 1.503 . S
C348 C347 1.410 . S
C348 C349 1.392 . S
C348 C351 1.511 . S
C349 C345 1.376 . S
C349 C348 1.392 . S
C349 H361 0.929 . S
C350 C346 1.531 . S
C350 H362 0.960 . S
C350 H363 0.962 . S
C350 H364 0.960 . S
C351 C348 1.511 . S
C351 H365 0.961 . S
C351 H366 0.961 . S
C351 H367 0.961 . S
C352 C353 1.370 . S
C352 C354 1.363 . S
C352 H368 0.931 . S
C353 C352 1.370 . S
C353 C357 1.405 1_545 S
C354 C352 1.363 . S
C354 C355 1.370 . S
C354 C358 1.524 . S
C355 C347 1.503 . S
C355 C354 1.370 . S
C355 C356 1.403 1_545 S
C356 C355 1.403 1_565 S
C356 C357 1.404 . S
C356 C359 1.539 . S
C357 C353 1.405 1_565 S
C357 C356 1.404 . S
C357 H369 0.933 . S
C358 C354 1.524 . S
C358 H370 0.956 . S
C358 H371 0.961 . S
C358 H372 0.961 . S
C359 C356 1.539 . S
C359 H373 0.958 . S
C359 H374 0.961 . S
C359 H375 0.960 . S
H360 C344 0.931 . S
H361 C349 0.929 . S
H362 C350 0.960 . S
H363 C350 0.962 . S
H364 C350 0.960 . S
H365 C351 0.961 . S
H366 C351 0.961 . S
H367 C351 0.961 . S
H368 C352 0.931 . S
H369 C357 0.933 . S
H370 C358 0.956 . S
H371 C358 0.961 . S
H372 C358 0.961 . S
H373 C359 0.958 . S
H374 C359 0.961 . S
H375 C359 0.960 . S
C376 C377 1.391 . S
C376 C378 1.394 . S
C376 H392 0.931 . S
C377 C376 1.391 . S
C377 C381 1.376 . S
C378 C376 1.394 . S
C378 C379 1.369 . S
C378 C382 1.531 . S
C379 C378 1.369 . S
C379 C380 1.410 . S
C379 C387 1.503 . S
C380 C379 1.410 . S
C380 C381 1.392 . S
C380 C383 1.511 1_455 S
C381 C377 1.376 . S
C381 C380 1.392 . S
C381 H393 0.929 . S
C382 C378 1.531 . S
C382 H394 0.960 . S
C382 H395 0.962 . S
C382 H396 0.960 . S
C383 C380 1.511 1_655 S
C383 H397 0.961 . S
C383 H398 0.961 . S
C383 H399 0.961 1_655 S
C384 C385 1.370 . S
C384 C386 1.363 . S
C384 H400 0.931 1_455 S
C385 C384 1.370 . S
C385 C389 1.408 . S
C386 C384 1.363 . S
C386 C387 1.370 . S
C386 C390 1.524 1_455 S
C387 C379 1.503 . S
C387 C386 1.370 . S
C387 C388 1.403 . S
C388 C387 1.403 . S
C388 C389 1.404 . S
C388 C391 1.539 . S
C389 C385 1.408 . S
C389 C388 1.404 . S
C389 H401 0.930 . S
C390 C386 1.524 1_655 S
C390 H402 0.956 . S
C390 H403 0.961 . S
C390 H404 0.961 . S
C391 C388 1.539 . S
C391 H405 0.958 . S
C391 H406 0.961 . S
C391 H407 0.960 . S
H392 C376 0.931 . S
H393 C381 0.929 . S
H394 C382 0.960 . S
H395 C382 0.962 . S
H396 C382 0.960 . S
H397 C383 0.961 . S
H398 C383 0.961 . S
H399 C383 0.961 1_455 S
H400 C384 0.931 1_655 S
H401 C389 0.930 . S
H402 C390 0.956 . S
H403 C390 0.961 . S
H404 C390 0.961 . S
H405 C391 0.958 . S
H406 C391 0.961 . S
H407 C391 0.960 . S
C161 C129 1.413 . S
C153 C47 1.648 . S
C193 C149 1.720 . S
C185 C109 1.641 . S
C225 C128 1.680 . S
C217 C29 1.614 . S
C257 C150 1.748 . S
C249 C91 1.607 . S
C289 C142 1.375 . S
C281 C53 1.394 . S
C321 C135 1.379 . S
C313 C115 1.397 . S
C353 C143 1.182 . S
C345 C35 1.419 . S
C377 C97 1.400 . S
C385 C136 1.401 . S
