# Generated by pormake.
# Topology pyr, (3,6)-cn, num edge types: 1
# Building blocks:
#     Node 0, Type 0, BuildingBlock: BETDAH_clean_linker_0, # of connection points: 3
#     Node 1, Type 0, BuildingBlock: BETDAH_clean_linker_0, # of connection points: 3
#     Node 2, Type 0, BuildingBlock: BETDAH_clean_linker_0, # of connection points: 3
#     Node 3, Type 0, BuildingBlock: BETDAH_clean_linker_0, # of connection points: 3
#     Node 4, Type 0, BuildingBlock: BETDAH_clean_linker_0, # of connection points: 3
#     Node 5, Type 0, BuildingBlock: BETDAH_clean_linker_0, # of connection points: 3
#     Node 6, Type 0, BuildingBlock: BETDAH_clean_linker_0, # of connection points: 3
#     Node 7, Type 0, BuildingBlock: BETDAH_clean_linker_0, # of connection points: 3
#     Node 8, Type 1, BuildingBlock: FUNLAD_clean_sbu_0, # of connection points: 6
#     Node 9, Type 1, BuildingBlock: FUNLAD_clean_sbu_0, # of connection points: 6
#     Node 10, Type 1, BuildingBlock: FUNLAD_clean_sbu_0, # of connection points: 6
#     Node 11, Type 1, BuildingBlock: FUNLAD_clean_sbu_0, # of connection points: 6
#     Edge 12, Type (0, 1), BuildingBlock: CIFDUS_clean_linker_0, # of connection points: 2
#     Edge 13, Type (0, 1), BuildingBlock: CIFDUS_clean_linker_0, # of connection points: 2
#     Edge 14, Type (0, 1), BuildingBlock: CIFDUS_clean_linker_0, # of connection points: 2
#     Edge 15, Type (0, 1), BuildingBlock: CIFDUS_clean_linker_0, # of connection points: 2
#     Edge 16, Type (0, 1), BuildingBlock: CIFDUS_clean_linker_0, # of connection points: 2
#     Edge 17, Type (0, 1), BuildingBlock: CIFDUS_clean_linker_0, # of connection points: 2
#     Edge 18, Type (0, 1), BuildingBlock: CIFDUS_clean_linker_0, # of connection points: 2
#     Edge 19, Type (0, 1), BuildingBlock: CIFDUS_clean_linker_0, # of connection points: 2
#     Edge 20, Type (0, 1), BuildingBlock: CIFDUS_clean_linker_0, # of connection points: 2
#     Edge 21, Type (0, 1), BuildingBlock: CIFDUS_clean_linker_0, # of connection points: 2
#     Edge 22, Type (0, 1), BuildingBlock: CIFDUS_clean_linker_0, # of connection points: 2
#     Edge 23, Type (0, 1), BuildingBlock: CIFDUS_clean_linker_0, # of connection points: 2
#     Edge 24, Type (0, 1), BuildingBlock: CIFDUS_clean_linker_0, # of connection points: 2
#     Edge 25, Type (0, 1), BuildingBlock: CIFDUS_clean_linker_0, # of connection points: 2
#     Edge 26, Type (0, 1), BuildingBlock: CIFDUS_clean_linker_0, # of connection points: 2
#     Edge 27, Type (0, 1), BuildingBlock: CIFDUS_clean_linker_0, # of connection points: 2
#     Edge 28, Type (0, 1), BuildingBlock: CIFDUS_clean_linker_0, # of connection points: 2
#     Edge 29, Type (0, 1), BuildingBlock: CIFDUS_clean_linker_0, # of connection points: 2
#     Edge 30, Type (0, 1), BuildingBlock: CIFDUS_clean_linker_0, # of connection points: 2
#     Edge 31, Type (0, 1), BuildingBlock: CIFDUS_clean_linker_0, # of connection points: 2
#     Edge 32, Type (0, 1), BuildingBlock: CIFDUS_clean_linker_0, # of connection points: 2
#     Edge 33, Type (0, 1), BuildingBlock: CIFDUS_clean_linker_0, # of connection points: 2
#     Edge 34, Type (0, 1), BuildingBlock: CIFDUS_clean_linker_0, # of connection points: 2
#     Edge 35, Type (0, 1), BuildingBlock: CIFDUS_clean_linker_0, # of connection points: 2
# Relax obj value: 0.234
# Max RMSD: 0.212
# Mean RMSD: 0.132
data_MOF--net-pry--node1-FUNLAD_clean_sbu_0--node2-BETDAH_clean_linker_0--edge1-CIFDUS_clean_linker_0
_symmetry_space_group_name_H-M    P1
_symmetry_Int_Tables_number       1
_symmetry_cell_setting            triclinic
loop_
_symmetry_equiv_pos_as_xyz
'x, y, z'
_cell_length_a     29.515177
_cell_length_b     32.518805
_cell_length_c     33.867691
_cell_angle_alpha  90.635559
_cell_angle_beta   90.178235
_cell_angle_gamma 88.085186
loop_
_atom_site_label
_atom_site_type_symbol
_atom_site_fract_x
_atom_site_fract_y
_atom_site_fract_z
_atom_type_partial_charge
H0 H 0.20195 0.14794 0.25754 0.0
H1 H 0.18934 0.23502 0.16162 0.0
H2 H 0.10063 0.24543 0.2618 0.0
C3 C 0.18519 0.17424 0.24377 0.0
C4 C 0.14946 0.19475 0.26431 0.0
C5 C 0.20055 0.18816 0.20659 0.0
C6 C 0.179 0.22403 0.19015 0.0
C7 C 0.14278 0.24472 0.21023 0.0
C8 C 0.12874 0.22967 0.24686 0.0
N9 N 0.11733 0.27951 0.1951 0.0
C10 C 0.12512 0.30572 0.16332 0.0
H11 H 0.44961 0.85752 0.79266 0.0
H12 H 0.36993 0.97116 0.78884 0.0
H13 H 0.36061 0.88507 0.69375 0.0
C14 C 0.42554 0.87784 0.77771 0.0
C15 C 0.40627 0.86534 0.74092 0.0
C16 C 0.41335 0.91673 0.79524 0.0
C17 C 0.38118 0.94206 0.77568 0.0
C18 C 0.36174 0.93048 0.73986 0.0
C19 C 0.37473 0.8927 0.72232 0.0
N20 N 0.32955 0.9584 0.72248 0.0
C21 C 0.30058 0.95049 0.69093 0.0
H22 H 0.70396 0.44601 0.04644 0.0
H23 H 0.66752 0.57274 1.0224 0.0
H24 H 0.56489 0.48915 0.0538 0.0
C25 C 0.67891 0.47111 0.04506 0.0
C26 C 0.63317 0.46321 0.05187 0.0
C27 C 0.69199 0.51067 1.0346 0.0
C28 C 0.65865 0.54245 1.0322 0.0
C29 C 0.61305 0.53489 0.03996 0.0
C30 C 0.60046 0.49536 0.04998 0.0
N31 N 0.57906 0.56479 1.0305 0.0
C32 C 0.57468 0.5754 0.99119 0.0
H33 H 0.87198 0.6809 0.52363 0.0
H34 H 0.97883 0.63544 0.44767 0.0
H35 H 0.87975 0.55269 0.48995 0.0
C36 C 0.88908 0.65534 0.50839 0.0
C37 C 0.8715 0.61583 0.51027 0.0
C38 C 0.92802 0.66237 0.48627 0.0
C39 C 0.94961 0.62971 0.46589 0.0
C40 C 0.93211 0.59015 0.46699 0.0
C41 C 0.89394 0.583 0.49019 0.0
N42 N 0.94922 0.55883 0.44116 0.0
C43 C 0.95899 0.56849 0.40232 0.0
H44 H 0.979 0.8807 0.82795 0.0
H45 H 0.8672 0.88594 0.91061 0.0
H46 H 0.86371 0.96341 0.80939 0.0
C47 C 0.94623 0.8933 0.83711 0.0
C48 C 0.92384 0.92397 0.81361 0.0
C49 C 0.92615 0.87907 0.87258 0.0
C50 C 0.88352 0.89653 0.88418 0.0
C51 C 0.86115 0.9267 0.86121 0.0
C52 C 0.88132 0.9397 0.82635 0.0
N53 N 0.81775 0.94448 0.87106 0.0
C54 C 0.79433 0.94226 0.90673 0.0
H55 H 0.70622 0.14304 0.34779 0.0
H56 H 0.68916 0.2277 0.44692 0.0
H57 H 0.59877 0.23506 0.34755 0.0
C58 C 0.68811 0.16828 0.36255 0.0
C59 C 0.65088 0.18727 0.34302 0.0
C60 C 0.70292 0.18246 0.40016 0.0
C61 C 0.67942 0.21678 0.41791 0.0
C62 C 0.64172 0.23569 0.39879 0.0
C63 C 0.62808 0.22063 0.36177 0.0
N64 N 0.61411 0.26805 0.41599 0.0
C65 C 0.62381 0.29572 0.44657 0.0
H66 H 0.37885 0.66649 0.08815 0.0
H67 H 0.39586 0.54104 0.12506 0.0
H68 H 0.50108 0.62605 0.14799 0.0
C69 C 0.40038 0.64208 0.10029 0.0
C70 C 0.44276 0.65122 0.11665 0.0
C71 C 0.38338 0.60247 0.10296 0.0
C72 C 0.4095 0.5713 0.12136 0.0
C73 C 0.45161 0.58 0.13794 0.0
C74 C 0.46847 0.61967 0.13491 0.0
N75 N 0.47396 0.55036 0.16202 0.0
C76 C 0.48678 0.56141 0.20004 0.0
H77 H 0.19221 0.44813 0.59517 0.0
H78 H 0.1553 0.57769 0.59025 0.0
H79 H 0.05415 0.4883 0.57369 0.0
C80 C 0.16732 0.47281 0.59045 0.0
C81 C 0.12215 0.46306 0.58209 0.0
C82 C 0.18012 0.51415 0.59362 0.0
C83 C 0.14684 0.54562 0.58772 0.0
C84 C 0.10167 0.53611 0.5807 0.0
C85 C 0.08961 0.49507 0.5776 0.0
N86 N 0.06731 0.56717 0.58449 0.0
C87 C 0.04254 0.5676 0.61917 0.0
C88 C 0.05214 0.089 0.46156 0.0
N89 N 0.04182 0.14758 0.57307 0.0
C90 C 0.08517 0.15912 0.56695 0.0
C91 C 0.0987 0.19802 0.57861 0.0
C92 C 0.06706 0.22565 0.59579 0.0
C93 C 0.02284 0.21303 0.60263 0.0
C94 C 1.01096 0.17329 0.59138 0.0
Zn95 Zn 0.02333 0.09288 0.54856 0.0
C96 C 0.9312 0.09951 0.5108 0.0
N97 N 0.98901 0.98009 0.49475 0.0
C98 C 0.01985 0.95558 0.47511 0.0
C99 C 0.94617 0.96779 0.50139 0.0
C100 C 0.93344 0.92869 0.48975 0.0
C101 C 0.96514 0.90187 0.47118 0.0
C102 C 1.00855 0.91603 0.46298 0.0
Zn103 Zn 1.00683 0.0341 0.5197 0.0
O104 O 0.04945 0.11321 0.49143 0.0
C105 C 0.09876 0.02948 0.55679 0.0
O106 O 0.0376 0.05277 0.46514 0.0
H107 H 0.92234 0.98767 0.51734 0.0
H108 H 0.10895 0.13887 0.55141 0.0
H109 H 0.0537 0.96614 0.47015 0.0
O110 O 0.08746 0.06694 0.56289 0.0
O111 O 0.07096 1.00623 0.53941 0.0
H112 H 0.97667 0.16363 0.59581 0.0
O113 O 0.97709 1.01509 0.5744 0.0
O114 O 0.99829 0.07033 0.60608 0.0
O115 O 0.94277 0.06287 0.5004 0.0
O116 O 0.95796 0.11919 0.53304 0.0
C117 C 0.9805 0.03501 0.60674 0.0
H118 H 0.13283 0.20726 0.57227 0.0
H119 H 0.99757 0.23403 0.61548 0.0
H120 H 0.89987 0.91884 0.49725 0.0
H121 H 0.03383 0.89635 0.44842 0.0
C122 C 0.59662 0.0332 0.04315 0.0
N123 N 0.53508 0.15065 0.03876 0.0
C124 C 0.57743 0.16374 0.04683 0.0
C125 C 0.58782 0.20466 0.04131 0.0
C126 C 0.55405 0.23279 1.02828 0.0
C127 C 0.51127 0.21804 1.01813 0.0
C128 C 0.50253 0.17651 1.02347 0.0
Zn129 Zn 0.51967 0.09378 0.05793 0.0
C130 C 0.47803 0.03979 0.99565 0.0
N131 N 0.48934 0.97647 0.10113 0.0
C132 C 0.52239 0.95062 0.11562 0.0
C133 C 0.44767 0.96282 0.09145 0.0
C134 C 0.43902 0.92109 0.09322 0.0
C135 C 0.47362 0.89324 0.10503 0.0
C136 C 0.51514 0.9085 0.11794 0.0
Zn137 Zn 0.50454 0.03329 0.08242 0.0
O138 O 0.58387 0.07057 0.03921 0.0
C139 C 0.54984 0.08467 0.14408 0.0
O140 O 0.57031 1.009 0.06057 0.0
H141 H 0.42208 0.98389 0.07966 0.0
H142 H 0.60272 0.14292 0.0594 0.0
H143 H 0.55536 0.96222 0.12283 0.0
O144 O 0.54747 0.10983 0.11551 0.0
O145 O 0.53443 0.04886 0.13881 0.0
H146 H 0.46906 0.16545 1.01733 0.0
O147 O 0.43814 0.05934 0.10381 0.0
O148 O 0.45515 0.1176 0.07698 0.0
O149 O 0.47671 1.01686 1.02572 0.0
O150 O 0.49279 0.07606 1.00013 0.0
C151 C 0.42753 0.09699 0.09678 0.0
H152 H 0.62163 0.21439 0.0485 0.0
H153 H 0.48413 0.23863 1.00812 0.0
H154 H 0.40629 0.91049 0.08371 0.0
H155 H 0.54265 0.88791 0.1272 0.0
C156 C 0.55408 0.50601 0.56042 0.0
N157 N 0.56144 0.5501 0.67793 0.0
C158 C 0.54587 0.51585 0.69529 0.0
C159 C 0.54926 0.51135 0.73621 0.0
C160 C 0.56815 0.54276 0.7593 0.0
C161 C 0.58704 0.57608 0.73994 0.0
C162 C 0.58361 0.57896 0.69912 0.0
Zn163 Zn 0.5414 0.56681 0.62281 0.0
C164 C 0.6146 0.60821 0.5797 0.0
N165 N 0.49627 0.61158 0.51148 0.0
C166 C 0.46887 0.58359 0.49423 0.0
C167 C 0.51932 0.63847 0.48909 0.0
C168 C 0.51884 0.63479 0.44777 0.0
C169 C 0.49452 0.60316 0.42995 0.0
C170 C 0.46735 0.57905 0.45348 0.0
Zn171 Zn 0.51592 0.59725 0.56825 0.0
O172 O 0.56083 0.50715 0.59757 0.0
C173 C 0.443 0.55449 0.60998 0.0
O174 O 0.53672 0.5379 0.54406 0.0
H175 H 0.54136 0.6602 0.50308 0.0
H176 H 0.52827 0.49335 0.67781 0.0
H177 H 0.45188 0.56133 0.51171 0.0
O178 O 0.4746 0.54532 0.63418 0.0
O179 O 0.45115 0.57626 0.58029 0.0
H180 H 0.5955 0.60609 0.68477 0.0
O181 O 0.49536 0.65611 0.59313 0.0
O182 O 0.52199 0.62778 0.64739 0.0
O183 O 0.58152 0.61822 0.55735 0.0
O184 O 0.60769 0.58677 0.61009 0.0
C185 C 0.50369 0.65877 0.63003 0.0
H186 H 0.53526 0.48457 0.7497 0.0
H187 H 0.60142 0.60141 0.75614 0.0
H188 H 0.54011 0.65404 0.4303 0.0
H189 H 0.44781 0.55461 0.44063 0.0
C190 C 0.02063 0.6724 0.98255 0.0
N191 N 0.02039 0.63069 0.10266 0.0
C192 C 0.04515 0.65823 0.12342 0.0
C193 C 0.04064 0.6615 0.16467 0.0
C194 C 1.01022 0.63634 0.18431 0.0
C195 C 0.98417 0.60955 0.16173 0.0
C196 C 0.98995 0.60704 0.1212 0.0
Zn197 Zn 0.03288 0.61221 0.04527 0.0
C198 C 0.94608 0.58163 1.01127 0.0
N199 N 0.05181 0.55772 0.93186 0.0
C200 C 0.08143 0.58016 0.91101 0.0
C201 C 0.02168 0.53335 0.91305 0.0
C202 C 1.01762 0.53426 0.87183 0.0
C203 C 0.04499 0.56038 0.85019 0.0
C204 C 0.07891 0.58154 0.87011 0.0
Zn205 Zn 0.04252 0.5766 0.98935 0.0
O206 O 0.02196 0.67372 1.02028 0.0
C207 C 0.12894 0.60717 1.02584 0.0
O208 O 0.02778 0.63764 0.96548 0.0
H209 H 0.99815 0.5159 0.92997 0.0
H210 H 0.06999 0.67608 0.10841 0.0
H211 H 0.1043 0.60038 0.92592 0.0
O212 O 0.10215 0.62083 0.05249 0.0
O213 O 0.1132 0.58917 0.99551 0.0
H214 H 0.97205 0.58378 0.10511 0.0
O215 O 0.05741 0.51585 1.01366 0.0
O216 O 0.04411 0.55014 0.06861 0.0
O217 O 0.97143 0.5637 0.9857 0.0
O218 O 0.96379 0.60373 0.03767 0.0
C219 C 0.05481 0.51616 0.05125 0.0
H220 H 0.06159 0.68246 0.18106 0.0
H221 H 0.96143 0.58852 0.17544 0.0
H222 H 0.99121 0.51719 0.85747 0.0
H223 H 0.10148 0.60122 0.85443 0.0
H224 H 0.13143 0.11602 0.28866 0.0
H225 H 0.13146 0.24176 0.33035 0.0
H226 H 0.10268 0.2208 0.39437 0.0
H227 H 0.07569 0.16688 0.43892 0.0
H228 H 0.07329 0.04139 0.39652 0.0
H229 H 0.10453 0.06199 0.33334 0.0
C230 C 0.12552 0.13881 0.31184 0.0
C231 C 0.13371 0.18059 0.30423 0.0
C232 C 0.10818 0.12655 0.34883 0.0
C233 C 0.1252 0.20952 0.33485 0.0
C234 C 0.10876 0.1975 0.3717 0.0
C235 C 0.08207 0.14395 0.41594 0.0
C236 C 0.0719 0.10246 0.42297 0.0
C237 C 0.09975 0.15613 0.37907 0.0
C238 C 0.08046 0.0735 0.39238 0.0
C239 C 0.09849 0.08528 0.35601 0.0
H240 H 0.43813 0.99478 0.81582 0.0
H241 H 0.42859 0.87315 0.86397 0.0
H242 H 0.44685 0.90031 0.92979 0.0
H243 H 0.46168 0.95955 0.97455 0.0
H244 H 0.46955 0.08111 0.92564 0.0
H245 H 0.45441 0.0532 0.85976 0.0
C246 C 0.43993 0.974 0.84063 0.0
C247 C 0.43144 0.93173 0.83451 0.0
C248 C 0.44936 0.99008 0.87862 0.0
C249 C 0.4352 0.90556 0.86726 0.0
C250 C 0.44515 0.92128 0.90514 0.0
C251 C 0.45979 0.98009 0.94956 0.0
C252 C 0.46634 1.02276 0.95554 0.0
C253 C 0.4515 0.96364 0.91135 0.0
C254 C 0.46437 0.04843 0.92238 0.0
C255 C 0.45589 0.03237 0.88452 0.0
H256 H 0.51483 0.54561 0.94008 0.0
H257 H 0.64201 0.60618 0.94909 0.0
H258 H 0.65314 0.59879 0.87762 0.0
H259 H 0.62784 0.57269 0.81352 0.0
H260 H 0.4982 0.51529 0.80397 0.0
H261 H 0.48784 0.52211 0.875 0.0
C262 C 0.54439 0.55792 0.92602 0.0
C263 C 0.57713 0.5772 0.949 0.0
C264 C 0.5507 0.55303 0.8852 0.0
C265 C 0.61601 0.59212 0.93131 0.0
C266 C 0.62257 0.58745 0.89069 0.0
C267 C 0.59703 0.56204 0.82675 0.0
C268 C 0.56399 0.54341 0.8031 0.0
C269 C 0.59032 0.56756 0.86743 0.0
C270 C 0.52483 0.52893 0.82126 0.0
C271 C 0.51844 0.53339 0.86191 0.0
H272 H 0.03423 0.59087 0.36387 0.0
H273 H 0.88952 0.58094 0.35315 0.0
H274 H 0.89175 0.60774 0.28598 0.0
H275 H 0.93513 0.63011 0.22943 0.0
H276 H 0.08068 0.63572 0.23742 0.0
H277 H 0.07786 0.61648 0.30703 0.0
C278 C 1.00342 0.59454 0.34655 0.0
C279 C 0.96186 0.58343 0.36261 0.0
C280 C 1.00507 0.60983 0.30787 0.0
C281 C 0.92186 0.5888 0.3407 0.0
C282 C 0.92311 0.60433 0.30254 0.0
C283 C 0.96627 0.62737 0.24644 0.0
C284 C 1.00808 0.63386 0.22808 0.0
C285 C 0.96456 0.61445 0.2857 0.0
C286 C 0.04799 0.63118 0.25083 0.0
C287 C 0.04646 0.61957 0.2905 0.0
H288 H 0.26923 0.21811 0.16041 0.0
H289 H 0.21892 0.10439 0.20467 0.0
H290 H 0.28326 0.06639 0.17561 0.0
H291 H 0.35592 0.06481 0.13847 0.0
H292 H 0.40368 0.17848 0.0919 0.0
H293 H 0.33874 0.21605 0.12014 0.0
C294 C 0.27179 0.18496 0.16337 0.0
C295 C 0.23892 0.16473 0.18562 0.0
C296 C 0.30898 0.16278 0.14595 0.0
C297 C 0.24381 0.12152 0.18889 0.0
C298 C 0.28069 0.09944 0.1719 0.0
C299 C 0.35203 0.09774 0.13429 0.0
C300 C 0.38532 0.11841 0.11293 0.0
C301 C 0.3139 0.11968 0.15064 0.0
C302 C 0.37909 0.16128 0.108 0.0
C303 C 0.34174 0.18308 0.1243 0.0
H304 H 0.28964 1.00921 0.63751 0.0
H305 H 0.2325 0.89754 0.67867 0.0
H306 H 0.16605 0.90905 0.63569 0.0
H307 H 0.12026 0.9559 0.5923 0.0
H308 H 0.17688 0.06996 0.55594 0.0
H309 H 0.24749 0.05244 0.59031 0.0
C310 C 0.26308 0.98692 0.63621 0.0
C311 C 0.26582 0.95246 0.66067 0.0
C312 C 0.22466 0.99447 0.61242 0.0
C313 C 0.23109 0.92407 0.65957 0.0
C314 C 0.19303 0.93084 0.63522 0.0
C315 C 0.14856 0.97628 0.59115 0.0
C316 C 0.14343 1.01416 0.57156 0.0
C317 C 0.18882 0.96659 0.61228 0.0
C318 C 0.18003 0.04069 0.57086 0.0
C319 C 0.22038 0.03077 0.59063 0.0
H320 H 0.73973 0.57794 0.05332 0.0
H321 H 0.75171 0.46101 0.99213 0.0
H322 H 0.8308 0.47367 0.97658 0.0
H323 H 0.89782 0.51718 0.98284 0.0
H324 H 0.8838 0.63412 0.04391 0.0
H325 H 0.80401 0.6228 0.05574 0.0
C326 C 0.75936 0.55543 0.03609 0.0
C327 C 0.73984 0.51847 1.02428 0.0
C328 C 0.80451 0.56305 1.0269 0.0
C329 C 0.76612 0.4894 1.0024 0.0
C330 C 0.81127 0.49677 0.99314 0.0
C331 C 0.877 0.54038 0.9981 0.0
C332 C 0.8967 0.57628 1.01264 0.0
C333 C 0.831 0.53338 1.00554 0.0
C334 C 0.86948 0.60604 1.03267 0.0
C335 C 0.82385 0.5996 0.03958 0.0
H336 H 0.79512 0.66269 0.50086 0.0
H337 H 0.84834 0.5559 0.56201 0.0
H338 H 0.77395 0.54622 0.592 0.0
H339 H 0.69302 0.56671 0.59834 0.0
H340 H 0.63984 0.67141 0.53377 0.0
H341 H 0.71536 0.68396 0.50823 0.0
C342 C 0.7906 0.63763 0.52122 0.0
C343 C 0.82713 0.6102 0.52951 0.0
C344 C 0.74784 0.63204 0.53778 0.0
C345 C 0.82059 0.5773 0.55515 0.0
C346 C 0.77818 0.57189 0.57236 0.0
C347 C 0.69819 0.59265 0.5792 0.0
C348 C 0.66105 0.61827 0.56811 0.0
C349 C 0.74147 0.59891 0.56363 0.0
C350 C 0.66797 0.65133 0.54274 0.0
C351 C 0.71106 0.65843 0.52803 0.0
H352 H 0.08938 0.37979 0.18245 0.0
H353 H 0.14487 0.31029 0.0841 0.0
H354 H 0.12742 0.36855 0.03996 0.0
H355 H 0.09475 0.44002 1.02933 0.0
H356 H 0.03917 0.50738 0.12963 0.0
H357 H 0.05785 0.44974 0.17234 0.0
C358 C 0.09812 0.37755 0.15139 0.0
C359 C 0.11896 0.34092 0.13672 0.0
C360 C 0.08744 0.41097 0.12625 0.0
C361 C 0.12939 0.33829 0.09629 0.0
C362 C 0.1191 0.37162 0.07101 0.0
C363 C 0.0865 0.44199 0.06046 0.0
C364 C 0.06525 0.47854 0.07583 0.0
C365 C 0.09777 0.40821 0.08555 0.0
C366 C 0.05536 0.48015 0.11653 0.0
C367 C 0.06615 0.44702 0.14124 0.0
H368 H 0.57702 0.42323 1.00333 0.0
H369 H 0.65956 0.40773 0.10762 0.0
H370 H 0.64062 0.33497 0.1103 0.0
H371 H 0.6023 0.27608 0.08188 0.0
H372 H 0.52472 0.29017 0.97424 0.0
H373 H 0.53925 0.36369 0.97432 0.0
C374 C 0.59026 0.40388 1.02688 0.0
C375 C 0.61911 0.42045 0.05554 0.0
C376 C 0.58026 0.36209 1.02749 0.0
C377 C 0.63704 0.39532 0.08551 0.0
C378 C 0.62632 0.35389 0.08692 0.0
C379 C 0.58909 0.295 0.05804 0.0
C380 C 0.5628 0.27746 1.02787 0.0
C381 C 0.59843 0.3369 0.05777 0.0
C382 C 0.54481 0.30285 0.99795 0.0
C383 C 0.55327 0.34485 0.99787 0.0
H384 H 0.87929 0.72792 0.45992 0.0
H385 H 1.01221 0.69032 0.50165 0.0
H386 H 0.03716 0.76127 0.49687 0.0
H387 H 1.01883 0.83442 0.48583 0.0
H388 H 0.88611 0.87157 0.44258 0.0
H389 H 0.8633 0.80008 0.44271 0.0
C390 C 0.9137 0.73545 0.4679 0.0
C391 C 0.94379 0.70453 0.48175 0.0
C392 C 0.92771 0.77597 0.46476 0.0
C393 C 0.98857 0.71401 0.49122 0.0
C394 C 1.00274 0.75441 0.48848 0.0
C395 C 0.98531 0.82679 0.47547 0.0
C396 C 0.95406 0.85826 0.46456 0.0
C397 C 0.97236 0.78572 0.47583 0.0
C398 C 0.91054 0.84791 0.45168 0.0
C399 C 0.89747 0.8071 0.45176 0.0
H400 H 0.48811 0.81961 0.73931 0.0
H401 H 0.34969 0.81651 0.69781 0.0
H402 H 0.36811 0.75589 0.65801 0.0
H403 H 0.42348 0.7033 0.63306 0.0
H404 H 0.55902 0.69974 0.68041 0.0
H405 H 0.54184 0.76235 0.71946 0.0
C406 C 0.46173 0.8055 0.72204 0.0
C407 C 0.41775 0.82429 0.72098 0.0
C408 C 0.47216 0.76912 0.69969 0.0
C409 C 0.38434 0.80454 0.69835 0.0
C410 C 0.3947 0.76931 0.67558 0.0
C411 C 0.4493 0.71643 0.65175 0.0
C412 C 0.49278 0.69729 0.65313 0.0
C413 C 0.4386 0.7516 0.67543 0.0
C414 C 0.52543 0.71409 0.67842 0.0
C415 C 0.51555 0.7499 0.70089 0.0
H416 H 0.8816 0.93888 0.74257 0.0
H417 H 1.01066 0.95041 0.8007 0.0
H418 H 0.03894 0.98807 0.7438 0.0
H419 H 0.02615 1.01994 0.67721 0.0
H420 H 0.89767 1.00448 0.61909 0.0
H421 H 0.86993 0.96747 0.67615 0.0
C422 C 0.91606 0.94944 0.74289 0.0
C423 C 0.94375 0.94164 0.77643 0.0
C424 C 0.93201 0.97133 0.71003 0.0
C425 C 0.98852 0.95532 0.77552 0.0
C426 C 1.00457 0.97739 0.74299 0.0
C427 C 0.99185 1.00902 0.67739 0.0
C428 C 0.96359 1.01611 0.64403 0.0
C429 C 0.97645 0.98617 0.71017 0.0
C430 C 0.91984 1.00029 0.6444 0.0
C431 C 0.90405 0.97878 0.67702 0.0
H432 H 0.63172 0.10892 0.31724 0.0
H433 H 0.63462 0.23451 0.27822 0.0
H434 H 0.60501 0.2142 0.21368 0.0
H435 H 0.57598 0.16122 0.16841 0.0
H436 H 0.56995 0.03585 0.20784 0.0
H437 H 0.60274 0.05548 0.27144 0.0
C438 C 0.62628 0.13172 0.29445 0.0
C439 C 0.63553 0.17329 0.3028 0.0
C440 C 0.60826 0.11989 0.2573 0.0
C441 C 0.62766 0.20242 0.27288 0.0
C442 C 0.61068 0.1908 0.23585 0.0
C443 C 0.58189 0.13808 0.19083 0.0
C444 C 0.57028 0.09698 0.18297 0.0
C445 C 0.6004 0.1497 0.22775 0.0
C446 C 0.57825 0.06769 0.21276 0.0
C447 C 0.59716 0.07892 0.24929 0.0
H448 H 0.5134 0.51759 0.26295 0.0
H449 H 0.4725 0.63912 0.22508 0.0
H450 H 0.47533 0.66478 0.2933 0.0
H451 H 0.48357 0.65088 0.36466 0.0
H452 H 0.52096 0.52808 0.40216 0.0
H453 H 0.52569 0.50457 0.33359 0.0
C454 C 0.50588 0.54977 0.26982 0.0
C455 C 0.49336 0.57676 0.23955 0.0
C456 C 0.50655 0.56389 0.30912 0.0
C457 C 0.48296 0.61821 0.24826 0.0
C458 C 0.48426 0.63275 0.28721 0.0
C459 C 0.49331 0.6192 0.35759 0.0
C460 C 0.50139 0.59112 0.38815 0.0
C461 C 0.49523 0.60569 0.31802 0.0
C462 C 0.51394 0.55004 0.37891 0.0
C463 C 0.51673 0.53658 0.33978 0.0
H464 H 0.03565 0.62492 0.67593 0.0
H465 H 0.02116 0.49592 0.65125 0.0
H466 H 1.0165 0.48185 0.72205 0.0
H467 H 0.02677 0.50551 0.79091 0.0
H468 H 0.04235 0.63494 0.81478 0.0
H469 H 0.0364 0.64967 0.74462 0.0
C470 C 0.02996 0.59404 0.68624 0.0
C471 C 0.02811 0.56152 0.65904 0.0
C472 C 0.0286 0.58617 0.72683 0.0
C473 C 0.02183 0.52139 0.67214 0.0
C474 C 0.0197 0.51332 0.71252 0.0
C475 C 0.0281 0.53695 0.78074 0.0
C476 C 0.03628 0.56887 0.80787 0.0
C477 C 0.02462 0.54531 0.74019 0.0
C478 C 0.03762 0.60958 0.79432 0.0
C479 C 0.03384 0.61815 0.75424 0.0
H480 H 0.78002 1.01151 0.94866 0.0
H481 H 0.73418 0.88803 0.93428 0.0
H482 H 0.67042 0.90365 0.97918 0.0
H483 H 0.62322 0.95523 1.01723 0.0
H484 H 0.6689 0.07956 1.02795 0.0
H485 H 0.73693 0.06089 0.99051 0.0
C486 C 0.75665 0.98778 0.95621 0.0
C487 C 0.76197 0.94858 0.93874 0.0
C488 C 0.71958 0.99738 0.98119 0.0
C489 C 0.73104 0.91827 0.94794 0.0
C490 C 0.6944 0.92735 0.97337 0.0
C491 C 0.64853 0.97795 1.01201 0.0
C492 C 0.64066 1.01886 1.02536 0.0
C493 C 0.68762 0.96717 0.98947 0.0
C494 C 0.67374 0.04797 1.0179 0.0
C495 C 0.71278 0.03735 0.99639 0.0
H496 H 0.76918 0.21537 0.44798 0.0
H497 H 0.72588 0.09972 0.39943 0.0
H498 H 0.79138 0.06432 0.42884 0.0
H499 H 0.86248 0.06564 0.46744 0.0
H500 H 0.90404 0.18051 0.51864 0.0
H501 H 0.83778 0.21599 0.48998 0.0
C502 C 0.77356 0.18235 0.44415 0.0
C503 C 0.74235 0.16074 0.42065 0.0
C504 C 0.81132 0.16168 0.46185 0.0
C505 C 0.7495 0.11781 0.41619 0.0
C506 C 0.78698 0.09726 0.43339 0.0
C507 C 0.85697 0.09839 0.47257 0.0
C508 C 0.88867 0.12017 0.49525 0.0
C509 C 0.81841 0.11884 0.45602 0.0
C510 C 0.8805 0.16269 0.50148 0.0
C511 C 0.84251 0.18316 0.48494 0.0
H512 H 0.34206 0.61664 1.0323 0.0
H513 H 0.31767 0.57572 0.15078 0.0
H514 H 0.23631 0.57481 0.13746 0.0
H515 H 0.17198 0.58885 0.09329 0.0
H516 H 0.19538 0.62455 0.97314 0.0
H517 H 0.27743 0.6247 0.98578 0.0
C518 C 0.3188 0.60698 0.05486 0.0
C519 C 0.33553 0.59613 0.09237 0.0
C520 C 0.2721 0.60624 0.04687 0.0
C521 C 0.30542 0.58365 0.12155 0.0
C522 C 0.25896 0.58352 0.11408 0.0
C523 C 0.19516 0.59685 0.06999 0.0
C524 C 0.17808 0.60757 1.03267 0.0
C525 C 0.24192 0.5954 0.07711 0.0
C526 C 0.20812 0.6167 1.00223 0.0
C527 C 0.25485 0.61666 1.00944 0.0
H528 H 0.2593 0.47313 0.57289 0.0
H529 H 0.20816 0.57839 0.64009 0.0
H530 H 0.28528 0.59847 0.65406 0.0
H531 H 0.36769 0.58885 0.64336 0.0
H532 H 0.41857 0.48187 0.57959 0.0
H533 H 0.3412 0.45876 0.56952 0.0
C534 C 0.26475 0.49998 0.59131 0.0
C535 C 0.22751 0.52458 0.60454 0.0
C536 C 0.30932 0.51082 0.60029 0.0
C537 C 0.23584 0.55953 0.62813 0.0
C538 C 0.28007 0.57085 0.63664 0.0
C539 C 0.36163 0.55989 0.62836 0.0
C540 C 0.39829 0.53659 0.61276 0.0
C541 C 0.31708 0.54712 0.62236 0.0
C542 C 0.39053 0.49966 0.59247 0.0
C543 C 0.34638 0.48676 0.58636 0.0
H544 H 0.96774 0.80464 0.85042 0.0
H545 H 0.934 0.87858 0.95326 0.0
H546 H 0.96101 0.82312 0.99621 0.0
H547 H 0.99088 0.75139 1.00542 0.0
H548 H 0.02399 0.67752 0.90221 0.0
H549 H 1.00123 0.73438 0.85959 0.0
C550 C 0.96694 0.80893 0.8822 0.0
C551 C 0.94834 0.84612 0.8982 0.0
C552 C 0.9823 0.77638 0.90716 0.0
C553 C 0.94743 0.85042 0.93972 0.0
C554 C 0.96301 0.81855 0.96451 0.0
C555 C 0.99354 0.74779 0.97365 0.0
C556 C 1.00923 0.70961 0.95753 0.0
C557 C 0.97991 0.781 0.94872 0.0
C558 C 1.01205 0.70608 0.91599 0.0
C559 C 0.99895 0.7388 0.8913 0.0
H560 H 0.4319 0.70991 0.06039 0.0
H561 H 0.48593 0.69037 0.17757 0.0
H562 H 0.50225 0.76295 0.18357 0.0
H563 H 0.49606 0.83321 0.15757 0.0
H564 H 0.43844 0.8531 0.04184 0.0
H565 H 0.42732 0.77948 1.03384 0.0
C566 C 0.44709 0.72149 0.08732 0.0
C567 C 0.4573 0.69453 0.11851 0.0
C568 C 0.45505 0.76357 0.09116 0.0
C569 C 0.47804 0.71006 0.15282 0.0
C570 C 0.487 0.75179 0.15651 0.0
C571 C 0.48134 0.8213 0.13055 0.0
C572 C 0.46754 0.84848 0.1006 0.0
C573 C 0.47488 0.77895 0.12617 0.0
C574 C 0.44843 0.83278 0.0657 0.0
C575 C 0.4424 0.7907 0.06095 0.0
H576 H 0.14869 0.39902 0.62942 0.0
H577 H 0.06299 0.42983 0.52974 0.0
H578 H 0.03536 0.36008 0.52787 0.0
H579 H 0.03658 0.28982 0.55346 0.0
H580 H 0.12617 0.25678 0.64935 0.0
H581 H 0.15145 0.3279 0.65395 0.0
C582 C 0.12446 0.39033 0.60695 0.0
C583 C 0.10785 0.41973 0.57985 0.0
C584 C 0.10915 0.3499 0.60563 0.0
C585 C 0.07588 0.40802 0.55132 0.0
C586 C 0.06012 0.36811 0.55012 0.0
C587 C 0.06114 0.29856 0.57568 0.0
C588 C 0.07904 0.26883 0.60153 0.0
C589 C 0.07641 0.33887 0.57717 0.0
C590 C 0.11166 0.2797 0.62961 0.0
C591 C 0.12622 0.32014 0.63202 0.0
H592 H 0.58946 0.36949 0.42768 0.0
H593 H 0.6463 0.30133 0.52515 0.0
H594 H 0.63019 0.3604 0.56979 0.0
H595 H 0.59697 0.43156 0.58119 0.0
H596 H 0.53911 0.49711 0.48175 0.0
H597 H 0.55829 0.43943 0.43836 0.0
C598 C 0.5989 0.36781 0.45864 0.0
C599 C 0.61958 0.33142 0.47304 0.0
C600 C 0.5888 0.40152 0.48401 0.0
C601 C 0.63092 0.32929 0.51328 0.0
C602 C 0.62139 0.36301 0.53881 0.0
C603 C 0.58855 0.43317 0.55006 0.0
C604 C 0.56635 0.46906 0.53516 0.0
C605 C 0.59981 0.39931 0.52462 0.0
C606 C 0.55601 0.47029 0.49451 0.0
C607 C 0.56705 0.43715 0.46938 0.0
loop_
_geom_bond_atom_site_label_1
_geom_bond_atom_site_label_2
_geom_bond_distance
_geom_bond_site_symmetry_2
_ccdc_geom_bond_type
H0 C3 0.929 . S
H1 C6 0.929 . S
H2 C8 0.930 . S
C3 H0 0.929 . S
C3 C4 1.398 . S
C3 C5 1.396 . S
C4 C3 1.398 . S
C4 C8 1.407 . S
C5 C3 1.396 . S
C5 C6 1.394 . S
C6 H1 0.929 . S
C6 C5 1.394 . S
C6 C7 1.382 . S
C7 C6 1.382 . S
C7 C8 1.392 . S
C7 N9 1.420 . S
C8 H2 0.930 . S
C8 C4 1.407 . S
C8 C7 1.392 . S
N9 C7 1.420 . S
N9 C10 1.244 . S
C10 N9 1.244 . S
H11 C14 0.929 . S
H12 C17 0.929 . S
H13 C19 0.930 . S
C14 H11 0.929 . S
C14 C15 1.398 . S
C14 C16 1.396 . S
C15 C14 1.398 . S
C15 C19 1.407 . S
C16 C14 1.396 . S
C16 C17 1.394 . S
C17 H12 0.929 . S
C17 C16 1.394 . S
C17 C18 1.382 . S
C18 C17 1.382 . S
C18 C19 1.392 . S
C18 N20 1.420 . S
C19 H13 0.930 . S
C19 C15 1.407 . S
C19 C18 1.392 . S
N20 C18 1.420 . S
N20 C21 1.244 . S
C21 N20 1.244 . S
H22 C25 0.929 . S
H23 C28 0.929 . S
H24 C30 0.930 . S
C25 H22 0.929 . S
C25 C26 1.398 . S
C25 C27 1.396 . S
C26 C25 1.398 . S
C26 C30 1.407 . S
C27 C25 1.396 . S
C27 C28 1.394 . S
C28 H23 0.929 . S
C28 C27 1.394 . S
C28 C29 1.382 . S
C29 C28 1.382 . S
C29 C30 1.392 . S
C29 N31 1.420 . S
C30 H24 0.930 . S
C30 C26 1.407 . S
C30 C29 1.392 . S
N31 C29 1.420 . S
N31 C32 1.244 . S
C32 N31 1.244 . S
H33 C36 0.929 . S
H34 C39 0.929 . S
H35 C41 0.930 . S
C36 H33 0.929 . S
C36 C37 1.398 . S
C36 C38 1.396 . S
C37 C36 1.398 . S
C37 C41 1.407 . S
C38 C36 1.396 . S
C38 C39 1.394 . S
C39 H34 0.929 . S
C39 C38 1.394 . S
C39 C40 1.382 . S
C40 C39 1.382 . S
C40 C41 1.392 . S
C40 N42 1.420 . S
C41 H35 0.930 . S
C41 C37 1.407 . S
C41 C40 1.392 . S
N42 C40 1.420 . S
N42 C43 1.244 . S
C43 N42 1.244 . S
H44 C47 0.929 . S
H45 C50 0.929 . S
H46 C52 0.930 . S
C47 H44 0.929 . S
C47 C48 1.398 . S
C47 C49 1.396 . S
C48 C47 1.398 . S
C48 C52 1.407 . S
C49 C47 1.396 . S
C49 C50 1.394 . S
C50 H45 0.929 . S
C50 C49 1.394 . S
C50 C51 1.382 . S
C51 C50 1.382 . S
C51 C52 1.392 . S
C51 N53 1.420 . S
C52 H46 0.930 . S
C52 C48 1.407 . S
C52 C51 1.392 . S
N53 C51 1.420 . S
N53 C54 1.244 . S
C54 N53 1.244 . S
H55 C58 0.929 . S
H56 C61 0.929 . S
H57 C63 0.930 . S
C58 H55 0.929 . S
C58 C59 1.398 . S
C58 C60 1.396 . S
C59 C58 1.398 . S
C59 C63 1.407 . S
C60 C58 1.396 . S
C60 C61 1.394 . S
C61 H56 0.929 . S
C61 C60 1.394 . S
C61 C62 1.382 . S
C62 C61 1.382 . S
C62 C63 1.392 . S
C62 N64 1.420 . S
C63 H57 0.930 . S
C63 C59 1.407 . S
C63 C62 1.392 . S
N64 C62 1.420 . S
N64 C65 1.244 . S
C65 N64 1.244 . S
H66 C69 0.929 . S
H67 C72 0.929 . S
H68 C74 0.930 . S
C69 H66 0.929 . S
C69 C70 1.398 . S
C69 C71 1.396 . S
C70 C69 1.398 . S
C70 C74 1.407 . S
C71 C69 1.396 . S
C71 C72 1.394 . S
C72 H67 0.929 . S
C72 C71 1.394 . S
C72 C73 1.382 . S
C73 C72 1.382 . S
C73 C74 1.392 . S
C73 N75 1.420 . S
C74 H68 0.930 . S
C74 C70 1.407 . S
C74 C73 1.392 . S
N75 C73 1.420 . S
N75 C76 1.244 . S
C76 N75 1.244 . S
H77 C80 0.929 . S
H78 C83 0.929 . S
H79 C85 0.930 . S
C80 H77 0.929 . S
C80 C81 1.398 . S
C80 C82 1.396 . S
C81 C80 1.398 . S
C81 C85 1.407 . S
C82 C80 1.396 . S
C82 C83 1.394 . S
C83 H78 0.929 . S
C83 C82 1.394 . S
C83 C84 1.382 . S
C84 C83 1.382 . S
C84 C85 1.392 . S
C84 N86 1.420 . S
C85 H79 0.930 . S
C85 C81 1.407 . S
C85 C84 1.392 . S
N86 C84 1.420 . S
N86 C87 1.244 . S
C87 N86 1.244 . S
C88 O104 1.251 . S
C88 O106 1.254 . S
N89 C90 1.333 . S
N89 C94 1.307 . S
N89 Zn95 2.020 . S
C90 N89 1.333 . S
C90 C91 1.379 . S
C90 H108 0.952 . S
C91 C90 1.379 . S
C91 C92 1.390 . S
C91 H118 0.949 . S
C92 C91 1.390 . S
C92 C93 1.357 . S
C93 C92 1.357 . S
C93 C94 1.370 . S
C93 H119 0.950 . S
C94 N89 1.307 . S
C94 C93 1.370 . S
C94 H112 0.948 1_455 S
Zn95 N89 2.020 . S
Zn95 O104 2.039 . S
Zn95 O110 2.034 . S
Zn95 O114 2.025 1_455 S
Zn95 O116 2.024 1_455 S
C96 O115 1.246 . S
C96 O116 1.249 . S
N97 C98 1.307 . S
N97 C99 1.333 . S
N97 Zn103 2.020 . S
C98 N97 1.307 . S
C98 C102 1.370 . S
C98 H109 0.948 1_655 S
C99 N97 1.333 . S
C99 C100 1.379 . S
C99 H107 0.952 . S
C100 C99 1.379 . S
C100 C101 1.390 . S
C100 H120 0.949 . S
C101 C100 1.390 . S
C101 C102 1.357 . S
C102 C98 1.370 . S
C102 C101 1.357 . S
C102 H121 0.950 . S
Zn103 N97 2.020 . S
Zn103 O106 2.025 1_665 S
Zn103 O111 2.024 1_655 S
Zn103 O113 2.039 . S
Zn103 O115 2.034 1_565 S
O104 C88 1.251 . S
O104 Zn95 2.039 . S
C105 O110 1.246 . S
C105 O111 1.249 1_545 S
O106 C88 1.254 . S
O106 Zn103 2.025 1_445 S
H107 C99 0.952 . S
H108 C90 0.952 . S
H109 C98 0.948 1_455 S
O110 Zn95 2.034 . S
O110 C105 1.246 . S
O111 Zn103 2.024 1_455 S
O111 C105 1.249 1_565 S
H112 C94 0.948 1_655 S
O113 Zn103 2.039 . S
O113 C117 1.251 1_565 S
O114 Zn95 2.025 1_655 S
O114 C117 1.254 . S
O115 C96 1.246 . S
O115 Zn103 2.034 1_545 S
O116 Zn95 2.024 1_655 S
O116 C96 1.249 . S
C117 O113 1.251 1_545 S
C117 O114 1.254 . S
H118 C91 0.949 . S
H119 C93 0.950 . S
H120 C100 0.949 . S
H121 C102 0.950 . S
C122 O138 1.251 . S
C122 O140 1.254 1_545 S
N123 C124 1.334 . S
N123 C128 1.307 1_554 S
N123 Zn129 2.020 . S
C124 N123 1.334 . S
C124 C125 1.371 1_554 S
C124 H142 0.959 . S
C125 C124 1.371 1_556 S
C125 C126 1.390 . S
C125 H152 0.949 . S
C126 C125 1.390 . S
C126 C127 1.357 . S
C127 C126 1.357 . S
C127 C128 1.370 . S
C127 H153 0.950 . S
C128 N123 1.307 1_556 S
C128 C127 1.370 . S
C128 H146 0.948 . S
Zn129 N123 2.020 . S
Zn129 O138 2.039 . S
Zn129 O144 2.034 . S
Zn129 O148 2.025 . S
Zn129 O150 2.024 1_554 S
C130 O149 1.246 1_545 S
C130 O150 1.249 . S
N131 C132 1.307 . S
N131 C133 1.333 . S
N131 Zn137 2.020 . S
C132 N131 1.307 . S
C132 C136 1.370 . S
C132 H143 0.948 . S
C133 N131 1.333 . S
C133 C134 1.379 . S
C133 H141 0.952 . S
C134 C133 1.379 . S
C134 C135 1.390 . S
C134 H154 0.949 . S
C135 C134 1.390 . S
C135 C136 1.357 . S
C136 C132 1.370 . S
C136 C135 1.357 . S
C136 H155 0.950 . S
Zn137 N131 2.020 . S
Zn137 O140 2.025 . S
Zn137 O145 2.024 1_565 S
Zn137 O147 2.039 1_565 S
Zn137 O149 2.034 1_554 S
O138 C122 1.251 . S
O138 Zn129 2.039 . S
C139 O144 1.246 . S
C139 O145 1.249 . S
O140 C122 1.254 1_565 S
O140 Zn137 2.025 . S
H141 C133 0.952 . S
H142 C124 0.959 . S
H143 C132 0.948 . S
O144 Zn129 2.034 . S
O144 C139 1.246 . S
O145 Zn137 2.024 1_545 S
O145 C139 1.249 . S
H146 C128 0.948 . S
O147 Zn137 2.039 1_545 S
O147 C151 1.251 . S
O148 Zn129 2.025 . S
O148 C151 1.254 . S
O149 C130 1.246 1_565 S
O149 Zn137 2.034 1_556 S
O150 Zn129 2.024 1_556 S
O150 C130 1.249 . S
C151 O147 1.251 . S
C151 O148 1.254 . S
H152 C125 0.949 . S
H153 C127 0.950 . S
H154 C134 0.949 . S
H155 C136 0.950 . S
C156 O172 1.251 . S
C156 O174 1.254 . S
N157 C158 1.333 . S
N157 C162 1.307 . S
N157 Zn163 2.020 . S
C158 N157 1.333 . S
C158 C159 1.379 . S
C158 H176 0.952 . S
C159 C158 1.379 . S
C159 C160 1.390 . S
C159 H186 0.949 . S
C160 C159 1.390 . S
C160 C161 1.357 . S
C161 C160 1.357 . S
C161 C162 1.370 . S
C161 H187 0.950 . S
C162 N157 1.307 . S
C162 C161 1.370 . S
C162 H180 0.948 . S
Zn163 N157 2.020 . S
Zn163 O172 2.039 . S
Zn163 O178 2.034 . S
Zn163 O182 2.025 . S
Zn163 O184 2.024 . S
C164 O183 1.246 . S
C164 O184 1.249 . S
N165 C166 1.307 . S
N165 C167 1.333 . S
N165 Zn171 2.020 . S
C166 N165 1.307 . S
C166 C170 1.370 . S
C166 H177 0.948 . S
C167 N165 1.333 . S
C167 C168 1.379 . S
C167 H175 0.952 . S
C168 C167 1.379 . S
C168 C169 1.390 . S
C168 H188 0.949 . S
C169 C168 1.390 . S
C169 C170 1.357 . S
C170 C166 1.370 . S
C170 C169 1.357 . S
C170 H189 0.950 . S
Zn171 N165 2.020 . S
Zn171 O174 2.025 . S
Zn171 O179 2.024 . S
Zn171 O181 2.039 . S
Zn171 O183 2.034 . S
O172 C156 1.251 . S
O172 Zn163 2.039 . S
C173 O178 1.246 . S
C173 O179 1.249 . S
O174 C156 1.254 . S
O174 Zn171 2.025 . S
H175 C167 0.952 . S
H176 C158 0.952 . S
H177 C166 0.948 . S
O178 Zn163 2.034 . S
O178 C173 1.246 . S
O179 Zn171 2.024 . S
O179 C173 1.249 . S
H180 C162 0.948 . S
O181 Zn171 2.039 . S
O181 C185 1.251 . S
O182 Zn163 2.025 . S
O182 C185 1.254 . S
O183 C164 1.246 . S
O183 Zn171 2.034 . S
O184 Zn163 2.024 . S
O184 C164 1.249 . S
C185 O181 1.251 . S
C185 O182 1.254 . S
H186 C159 0.949 . S
H187 C161 0.950 . S
H188 C168 0.949 . S
H189 C170 0.950 . S
C190 O206 1.251 1_556 S
C190 O208 1.254 1_655 S
N191 C192 1.333 . S
N191 C196 1.307 . S
N191 Zn197 2.020 . S
C192 N191 1.333 . S
C192 C193 1.379 . S
C192 H210 0.952 . S
C193 C192 1.379 . S
C193 C194 1.390 . S
C193 H220 0.949 . S
C194 C193 1.390 . S
C194 C195 1.357 . S
C195 C194 1.357 . S
C195 C196 1.370 . S
C195 H221 0.950 . S
C196 N191 1.307 . S
C196 C195 1.370 . S
C196 H214 0.948 . S
Zn197 N191 2.020 . S
Zn197 O206 2.039 . S
Zn197 O212 2.034 1_655 S
Zn197 O216 2.025 1_655 S
Zn197 O218 2.024 . S
C198 O217 1.246 . S
C198 O218 1.249 1_556 S
N199 C200 1.307 . S
N199 C201 1.333 . S
N199 Zn205 2.020 . S
C200 N199 1.307 . S
C200 C204 1.370 . S
C200 H211 0.948 . S
C201 N199 1.333 . S
C201 C202 1.379 . S
C201 H209 0.952 . S
C202 C201 1.379 . S
C202 C203 1.390 . S
C202 H222 0.949 . S
C203 C202 1.390 . S
C203 C204 1.357 . S
C204 C200 1.370 . S
C204 C203 1.357 . S
C204 H223 0.950 . S
Zn205 N199 2.020 . S
Zn205 O208 2.025 . S
Zn205 O213 2.024 . S
Zn205 O215 2.039 . S
Zn205 O217 2.034 1_455 S
O206 C190 1.251 1_554 S
O206 Zn197 2.039 . S
C207 O212 1.246 . S
C207 O213 1.249 1_554 S
O208 C190 1.254 1_455 S
O208 Zn205 2.025 . S
H209 C201 0.952 . S
H210 C192 0.952 . S
H211 C200 0.948 . S
O212 Zn197 2.034 1_455 S
O212 C207 1.246 . S
O213 Zn205 2.024 . S
O213 C207 1.249 1_556 S
H214 C196 0.948 . S
O215 Zn205 2.039 . S
O215 C219 1.251 1_556 S
O216 Zn197 2.025 1_455 S
O216 C219 1.254 . S
O217 C198 1.246 . S
O217 Zn205 2.034 1_655 S
O218 Zn197 2.024 . S
O218 C198 1.249 1_554 S
C219 O215 1.251 1_554 S
C219 O216 1.254 . S
H220 C193 0.949 . S
H221 C195 0.950 . S
H222 C202 0.949 . S
H223 C204 0.950 . S
H224 C230 0.930 . S
H225 C233 0.930 . S
H226 C234 0.930 1_655 S
H227 C235 0.935 . S
H228 C238 0.930 . S
H229 C239 0.930 . S
C230 H224 0.930 . S
C230 C231 1.355 . S
C230 C232 1.415 . S
C231 C230 1.355 . S
C231 C233 1.419 . S
C232 C230 1.415 . S
C232 C237 1.425 . S
C232 C239 1.409 . S
C233 H225 0.930 . S
C233 C231 1.419 . S
C233 C234 1.362 . S
C234 H226 0.930 1_455 S
C234 C233 1.362 . S
C234 C237 1.409 . S
C235 H227 0.935 . S
C235 C236 1.355 . S
C235 C237 1.415 . S
C236 C235 1.355 . S
C236 C238 1.419 . S
C237 C232 1.425 . S
C237 C234 1.409 . S
C237 C235 1.415 . S
C238 H228 0.930 . S
C238 C236 1.419 . S
C238 C239 1.362 . S
C239 H229 0.930 . S
C239 C232 1.409 . S
C239 C238 1.362 . S
H240 C246 0.930 . S
H241 C249 0.930 . S
H242 C250 0.930 . S
H243 C251 0.930 . S
H244 C254 0.930 . S
H245 C255 0.930 . S
C246 H240 0.930 . S
C246 C247 1.355 . S
C246 C248 1.415 . S
C247 C246 1.355 . S
C247 C249 1.419 . S
C248 C246 1.415 . S
C248 C253 1.425 . S
C248 C255 1.409 1_565 S
C249 H241 0.930 . S
C249 C247 1.419 . S
C249 C250 1.362 . S
C250 H242 0.930 . S
C250 C249 1.362 . S
C250 C253 1.409 . S
C251 H243 0.930 . S
C251 C252 1.355 1_565 S
C251 C253 1.415 . S
C252 C251 1.355 1_545 S
C252 C254 1.419 . S
C253 C248 1.425 . S
C253 C250 1.409 . S
C253 C251 1.415 . S
C254 H244 0.930 . S
C254 C252 1.419 . S
C254 C255 1.362 . S
C255 H245 0.930 . S
C255 C248 1.409 1_545 S
C255 C254 1.362 . S
H256 C262 0.930 . S
H257 C265 0.930 . S
H258 C266 0.930 . S
H259 C267 0.930 . S
H260 C270 0.930 . S
H261 C271 0.930 . S
C262 H256 0.930 . S
C262 C263 1.355 . S
C262 C264 1.415 . S
C263 C262 1.355 . S
C263 C265 1.419 . S
C264 C262 1.415 . S
C264 C269 1.425 . S
C264 C271 1.409 . S
C265 H257 0.930 . S
C265 C263 1.419 . S
C265 C266 1.362 . S
C266 H258 0.930 . S
C266 C265 1.362 . S
C266 C269 1.409 . S
C267 H259 0.930 . S
C267 C268 1.355 . S
C267 C269 1.415 . S
C268 C267 1.355 . S
C268 C270 1.419 . S
C269 C264 1.425 . S
C269 C266 1.409 . S
C269 C267 1.415 . S
C270 H260 0.930 . S
C270 C268 1.419 . S
C270 C271 1.362 . S
C271 H261 0.930 . S
C271 C264 1.409 . S
C271 C270 1.362 . S
H272 C278 0.930 . S
H273 C281 0.930 . S
H274 C282 0.930 . S
H275 C283 0.930 . S
H276 C286 0.930 . S
H277 C287 0.930 . S
C278 H272 0.930 . S
C278 C279 1.355 . S
C278 C280 1.415 . S
C279 C278 1.355 . S
C279 C281 1.419 . S
C280 C278 1.415 . S
C280 C285 1.425 . S
C280 C287 1.409 . S
C281 H273 0.930 . S
C281 C279 1.419 . S
C281 C282 1.362 . S
C282 H274 0.930 . S
C282 C281 1.362 . S
C282 C285 1.409 . S
C283 H275 0.930 . S
C283 C284 1.355 . S
C283 C285 1.415 . S
C284 C283 1.355 . S
C284 C286 1.419 . S
C285 C280 1.425 . S
C285 C282 1.409 . S
C285 C283 1.415 . S
C286 H276 0.930 . S
C286 C284 1.419 . S
C286 C287 1.362 . S
C287 H277 0.930 . S
C287 C280 1.409 . S
C287 C286 1.362 . S
H288 C294 0.930 . S
H289 C297 0.930 . S
H290 C298 0.930 . S
H291 C299 0.930 . S
H292 C302 0.930 . S
H293 C303 0.930 . S
C294 H288 0.930 . S
C294 C295 1.355 . S
C294 C296 1.415 . S
C295 C294 1.355 . S
C295 C297 1.419 . S
C296 C294 1.415 . S
C296 C301 1.425 . S
C296 C303 1.409 . S
C297 H289 0.930 . S
C297 C295 1.419 . S
C297 C298 1.362 . S
C298 H290 0.930 . S
C298 C297 1.362 . S
C298 C301 1.409 . S
C299 H291 0.930 . S
C299 C300 1.355 . S
C299 C301 1.415 . S
C300 C299 1.355 . S
C300 C302 1.419 . S
C301 C296 1.425 . S
C301 C298 1.409 . S
C301 C299 1.415 . S
C302 H292 0.930 . S
C302 C300 1.419 . S
C302 C303 1.362 . S
C303 H293 0.930 . S
C303 C296 1.409 . S
C303 C302 1.362 . S
H304 C310 0.930 . S
H305 C313 0.930 . S
H306 C314 0.930 . S
H307 C315 0.930 . S
H308 C318 0.930 . S
H309 C319 0.930 . S
C310 H304 0.930 . S
C310 C311 1.355 1_545 S
C310 C312 1.415 . S
C311 C310 1.355 1_565 S
C311 C313 1.419 . S
C312 C310 1.415 . S
C312 C317 1.425 1_545 S
C312 C319 1.409 . S
C313 H305 0.930 . S
C313 C311 1.419 . S
C313 C314 1.362 . S
C314 H306 0.930 . S
C314 C313 1.362 . S
C314 C317 1.409 . S
C315 H307 0.930 . S
C315 C316 1.355 1_565 S
C315 C317 1.415 . S
C316 C315 1.355 1_545 S
C316 C318 1.419 . S
C317 C312 1.425 1_565 S
C317 C314 1.409 . S
C317 C315 1.415 . S
C318 H308 0.930 . S
C318 C316 1.419 . S
C318 C319 1.362 . S
C319 H309 0.930 . S
C319 C312 1.409 . S
C319 C318 1.362 . S
H320 C326 0.930 . S
H321 C329 0.930 . S
H322 C330 0.930 . S
H323 C331 0.930 . S
H324 C334 0.930 1_554 S
H325 C335 0.930 1_554 S
C326 H320 0.930 . S
C326 C327 1.355 . S
C326 C328 1.415 . S
C327 C326 1.355 . S
C327 C329 1.419 . S
C328 C326 1.415 . S
C328 C333 1.425 . S
C328 C335 1.409 . S
C329 H321 0.930 . S
C329 C327 1.419 . S
C329 C330 1.362 . S
C330 H322 0.930 . S
C330 C329 1.362 . S
C330 C333 1.409 . S
C331 H323 0.930 . S
C331 C332 1.355 . S
C331 C333 1.415 . S
C332 C331 1.355 . S
C332 C334 1.419 . S
C333 C328 1.425 . S
C333 C330 1.409 . S
C333 C331 1.415 . S
C334 H324 0.930 1_556 S
C334 C332 1.419 . S
C334 C335 1.362 . S
C335 H325 0.930 1_556 S
C335 C328 1.409 . S
C335 C334 1.362 . S
H336 C342 0.930 . S
H337 C345 0.930 . S
H338 C346 0.930 . S
H339 C347 0.930 . S
H340 C350 0.930 . S
H341 C351 0.930 . S
C342 H336 0.930 . S
C342 C343 1.355 . S
C342 C344 1.415 . S
C343 C342 1.355 . S
C343 C345 1.419 . S
C344 C342 1.415 . S
C344 C349 1.425 . S
C344 C351 1.409 . S
C345 H337 0.930 . S
C345 C343 1.419 . S
C345 C346 1.362 . S
C346 H338 0.930 . S
C346 C345 1.362 . S
C346 C349 1.409 . S
C347 H339 0.930 . S
C347 C348 1.355 . S
C347 C349 1.415 . S
C348 C347 1.355 . S
C348 C350 1.419 . S
C349 C344 1.425 . S
C349 C346 1.409 . S
C349 C347 1.415 . S
C350 H340 0.930 . S
C350 C348 1.419 . S
C350 C351 1.362 . S
C351 H341 0.930 . S
C351 C344 1.409 . S
C351 C350 1.362 . S
H352 C358 0.930 . S
H353 C361 0.930 . S
H354 C362 0.930 1_655 S
H355 C363 0.930 . S
H356 C366 0.930 . S
H357 C367 0.930 . S
C358 H352 0.930 . S
C358 C359 1.355 . S
C358 C360 1.415 . S
C359 C358 1.355 . S
C359 C361 1.419 . S
C360 C358 1.415 . S
C360 C365 1.425 . S
C360 C367 1.409 . S
C361 H353 0.930 . S
C361 C359 1.419 . S
C361 C362 1.362 . S
C362 H354 0.930 1_455 S
C362 C361 1.362 . S
C362 C365 1.409 . S
C363 H355 0.930 . S
C363 C364 1.355 . S
C363 C365 1.415 . S
C364 C363 1.355 . S
C364 C366 1.419 . S
C365 C360 1.425 . S
C365 C362 1.409 . S
C365 C363 1.415 . S
C366 H356 0.930 . S
C366 C364 1.419 . S
C366 C367 1.362 . S
C367 H357 0.930 . S
C367 C360 1.409 . S
C367 C366 1.362 . S
H368 C374 0.930 . S
H369 C377 0.933 . S
H370 C378 0.930 1_554 S
H371 C379 0.930 . S
H372 C382 0.930 . S
H373 C383 0.930 . S
C374 H368 0.930 . S
C374 C375 1.355 . S
C374 C376 1.415 . S
C375 C374 1.355 . S
C375 C377 1.419 . S
C376 C374 1.415 . S
C376 C381 1.425 . S
C376 C383 1.409 . S
C377 H369 0.933 . S
C377 C375 1.419 . S
C377 C378 1.362 . S
C378 H370 0.930 1_556 S
C378 C377 1.362 . S
C378 C381 1.409 . S
C379 H371 0.930 . S
C379 C380 1.355 . S
C379 C381 1.415 . S
C380 C379 1.355 . S
C380 C382 1.419 . S
C381 C376 1.425 . S
C381 C378 1.409 . S
C381 C379 1.415 . S
C382 H372 0.930 . S
C382 C380 1.419 . S
C382 C383 1.362 . S
C383 H373 0.930 . S
C383 C376 1.409 . S
C383 C382 1.362 . S
H384 C390 0.930 . S
H385 C393 0.930 . S
H386 C394 0.930 . S
H387 C395 0.930 . S
H388 C398 0.930 . S
H389 C399 0.930 . S
C390 H384 0.930 . S
C390 C391 1.355 . S
C390 C392 1.415 . S
C391 C390 1.355 . S
C391 C393 1.419 . S
C392 C390 1.415 . S
C392 C397 1.425 . S
C392 C399 1.409 . S
C393 H385 0.930 . S
C393 C391 1.419 . S
C393 C394 1.362 . S
C394 H386 0.930 . S
C394 C393 1.362 . S
C394 C397 1.409 . S
C395 H387 0.930 . S
C395 C396 1.355 . S
C395 C397 1.415 . S
C396 C395 1.355 . S
C396 C398 1.419 . S
C397 C392 1.425 . S
C397 C394 1.409 . S
C397 C395 1.415 . S
C398 H388 0.930 . S
C398 C396 1.419 . S
C398 C399 1.362 . S
C399 H389 0.930 . S
C399 C392 1.409 . S
C399 C398 1.362 . S
H400 C406 0.930 . S
H401 C409 0.930 . S
H402 C410 0.930 . S
H403 C411 0.930 . S
H404 C414 0.930 . S
H405 C415 0.930 . S
C406 H400 0.930 . S
C406 C407 1.355 . S
C406 C408 1.415 . S
C407 C406 1.355 . S
C407 C409 1.419 . S
C408 C406 1.415 . S
C408 C413 1.425 . S
C408 C415 1.409 . S
C409 H401 0.930 . S
C409 C407 1.419 . S
C409 C410 1.362 . S
C410 H402 0.930 . S
C410 C409 1.362 . S
C410 C413 1.409 . S
C411 H403 0.930 . S
C411 C412 1.355 . S
C411 C413 1.415 . S
C412 C411 1.355 . S
C412 C414 1.419 . S
C413 C408 1.425 . S
C413 C410 1.409 . S
C413 C411 1.415 . S
C414 H404 0.930 . S
C414 C412 1.419 . S
C414 C415 1.362 . S
C415 H405 0.930 . S
C415 C408 1.409 . S
C415 C414 1.362 . S
H416 C422 0.930 . S
H417 C425 0.929 1_545 S
H418 C426 0.931 1_455 S
H419 C427 0.930 . S
H420 C430 0.930 . S
H421 C431 0.930 . S
C422 H416 0.930 . S
C422 C423 1.355 . S
C422 C424 1.415 . S
C423 C422 1.355 . S
C423 C425 1.419 . S
C424 C422 1.415 . S
C424 C429 1.425 . S
C424 C431 1.409 . S
C425 H417 0.929 1_565 S
C425 C423 1.419 . S
C425 C426 1.362 1_565 S
C426 H418 0.931 1_655 S
C426 C425 1.362 1_545 S
C426 C429 1.409 1_545 S
C427 H419 0.930 . S
C427 C428 1.355 1_545 S
C427 C429 1.415 1_545 S
C428 C427 1.355 1_565 S
C428 C430 1.419 . S
C429 C424 1.425 . S
C429 C426 1.409 1_565 S
C429 C427 1.415 1_565 S
C430 H420 0.930 . S
C430 C428 1.419 . S
C430 C431 1.362 . S
C431 H421 0.930 . S
C431 C424 1.409 . S
C431 C430 1.362 . S
H432 C438 0.930 . S
H433 C441 0.930 . S
H434 C442 0.930 . S
H435 C443 0.930 . S
H436 C446 0.930 . S
H437 C447 0.930 . S
C438 H432 0.930 . S
C438 C439 1.355 . S
C438 C440 1.415 . S
C439 C438 1.355 . S
C439 C441 1.419 . S
C440 C438 1.415 . S
C440 C445 1.425 . S
C440 C447 1.409 . S
C441 H433 0.930 . S
C441 C439 1.419 . S
C441 C442 1.362 . S
C442 H434 0.930 . S
C442 C441 1.362 . S
C442 C445 1.409 . S
C443 H435 0.930 . S
C443 C444 1.355 . S
C443 C445 1.415 . S
C444 C443 1.355 . S
C444 C446 1.419 . S
C445 C440 1.425 . S
C445 C442 1.409 . S
C445 C443 1.415 . S
C446 H436 0.930 . S
C446 C444 1.419 . S
C446 C447 1.362 . S
C447 H437 0.930 . S
C447 C440 1.409 . S
C447 C446 1.362 . S
H448 C454 0.930 . S
H449 C457 0.930 . S
H450 C458 0.930 . S
H451 C459 0.930 . S
H452 C462 0.930 . S
H453 C463 0.930 . S
C454 H448 0.930 . S
C454 C455 1.355 . S
C454 C456 1.415 . S
C455 C454 1.355 . S
C455 C457 1.419 . S
C456 C454 1.415 . S
C456 C461 1.425 . S
C456 C463 1.409 . S
C457 H449 0.930 . S
C457 C455 1.419 . S
C457 C458 1.362 . S
C458 H450 0.930 . S
C458 C457 1.362 . S
C458 C461 1.409 . S
C459 H451 0.930 . S
C459 C460 1.355 . S
C459 C461 1.415 . S
C460 C459 1.355 . S
C460 C462 1.419 . S
C461 C456 1.425 . S
C461 C458 1.409 . S
C461 C459 1.415 . S
C462 H452 0.930 . S
C462 C460 1.419 . S
C462 C463 1.362 . S
C463 H453 0.930 . S
C463 C456 1.409 . S
C463 C462 1.362 . S
H464 C470 0.930 . S
H465 C473 0.930 . S
H466 C474 0.930 . S
H467 C475 0.930 . S
H468 C478 0.930 . S
H469 C479 0.930 . S
C470 H464 0.930 . S
C470 C471 1.355 . S
C470 C472 1.415 . S
C471 C470 1.355 . S
C471 C473 1.419 . S
C472 C470 1.415 . S
C472 C477 1.425 . S
C472 C479 1.409 . S
C473 H465 0.930 . S
C473 C471 1.419 . S
C473 C474 1.362 . S
C474 H466 0.930 . S
C474 C473 1.362 . S
C474 C477 1.409 . S
C475 H467 0.930 . S
C475 C476 1.355 . S
C475 C477 1.415 . S
C476 C475 1.355 . S
C476 C478 1.419 . S
C477 C472 1.425 . S
C477 C474 1.409 . S
C477 C475 1.415 . S
C478 H468 0.930 . S
C478 C476 1.419 . S
C478 C479 1.362 . S
C479 H469 0.930 . S
C479 C472 1.409 . S
C479 C478 1.362 . S
H480 C486 0.930 1_545 S
H481 C489 0.930 . S
H482 C490 0.930 . S
H483 C491 0.930 1_554 S
H484 C494 0.930 . S
H485 C495 0.930 . S
C486 H480 0.930 1_565 S
C486 C487 1.355 . S
C486 C488 1.415 1_565 S
C487 C486 1.355 . S
C487 C489 1.419 . S
C488 C486 1.415 1_545 S
C488 C493 1.425 1_545 S
C488 C495 1.409 . S
C489 H481 0.930 . S
C489 C487 1.419 . S
C489 C490 1.362 . S
C490 H482 0.930 . S
C490 C489 1.362 . S
C490 C493 1.409 . S
C491 H483 0.930 1_556 S
C491 C492 1.355 1_565 S
C491 C493 1.415 . S
C492 C491 1.355 1_545 S
C492 C494 1.419 . S
C493 C488 1.425 1_565 S
C493 C490 1.409 . S
C493 C491 1.415 . S
C494 H484 0.930 . S
C494 C492 1.419 . S
C494 C495 1.362 . S
C495 H485 0.930 . S
C495 C488 1.409 . S
C495 C494 1.362 . S
H496 C502 0.930 . S
H497 C505 0.930 . S
H498 C506 0.930 . S
H499 C507 0.930 . S
H500 C510 0.930 . S
H501 C511 0.930 . S
C502 H496 0.930 . S
C502 C503 1.355 . S
C502 C504 1.415 . S
C503 C502 1.355 . S
C503 C505 1.419 . S
C504 C502 1.415 . S
C504 C509 1.425 . S
C504 C511 1.409 . S
C505 H497 0.930 . S
C505 C503 1.419 . S
C505 C506 1.362 . S
C506 H498 0.930 . S
C506 C505 1.362 . S
C506 C509 1.409 . S
C507 H499 0.930 . S
C507 C508 1.355 . S
C507 C509 1.415 . S
C508 C507 1.355 . S
C508 C510 1.419 . S
C509 C504 1.425 . S
C509 C506 1.409 . S
C509 C507 1.415 . S
C510 H500 0.930 . S
C510 C508 1.419 . S
C510 C511 1.362 . S
C511 H501 0.930 . S
C511 C504 1.409 . S
C511 C510 1.362 . S
H512 C518 0.930 . S
H513 C521 0.930 . S
H514 C522 0.930 . S
H515 C523 0.930 . S
H516 C526 0.930 . S
H517 C527 0.930 . S
C518 H512 0.930 . S
C518 C519 1.355 . S
C518 C520 1.415 . S
C519 C518 1.355 . S
C519 C521 1.419 . S
C520 C518 1.415 . S
C520 C525 1.425 . S
C520 C527 1.409 . S
C521 H513 0.930 . S
C521 C519 1.419 . S
C521 C522 1.362 . S
C522 H514 0.930 . S
C522 C521 1.362 . S
C522 C525 1.409 . S
C523 H515 0.930 . S
C523 C524 1.355 . S
C523 C525 1.415 . S
C524 C523 1.355 . S
C524 C526 1.419 . S
C525 C520 1.425 . S
C525 C522 1.409 . S
C525 C523 1.415 . S
C526 H516 0.930 . S
C526 C524 1.419 . S
C526 C527 1.362 . S
C527 H517 0.930 . S
C527 C520 1.409 . S
C527 C526 1.362 . S
H528 C534 0.930 . S
H529 C537 0.930 . S
H530 C538 0.930 . S
H531 C539 0.930 . S
H532 C542 0.930 . S
H533 C543 0.930 . S
C534 H528 0.930 . S
C534 C535 1.355 . S
C534 C536 1.415 . S
C535 C534 1.355 . S
C535 C537 1.419 . S
C536 C534 1.415 . S
C536 C541 1.425 . S
C536 C543 1.409 . S
C537 H529 0.930 . S
C537 C535 1.419 . S
C537 C538 1.362 . S
C538 H530 0.930 . S
C538 C537 1.362 . S
C538 C541 1.409 . S
C539 H531 0.930 . S
C539 C540 1.355 . S
C539 C541 1.415 . S
C540 C539 1.355 . S
C540 C542 1.419 . S
C541 C536 1.425 . S
C541 C538 1.409 . S
C541 C539 1.415 . S
C542 H532 0.930 . S
C542 C540 1.419 . S
C542 C543 1.362 . S
C543 H533 0.930 . S
C543 C536 1.409 . S
C543 C542 1.362 . S
H544 C550 0.930 . S
H545 C553 0.930 . S
H546 C554 0.898 1_554 S
H547 C555 0.930 1_554 S
H548 C558 0.930 . S
H549 C559 0.930 . S
C550 H544 0.930 . S
C550 C551 1.355 . S
C550 C552 1.415 . S
C551 C550 1.355 . S
C551 C553 1.419 . S
C552 C550 1.415 . S
C552 C557 1.425 . S
C552 C559 1.409 . S
C553 H545 0.930 . S
C553 C551 1.419 . S
C553 C554 1.362 . S
C554 H546 0.898 1_556 S
C554 C553 1.362 . S
C554 C557 1.409 . S
C555 H547 0.930 1_556 S
C555 C556 1.355 . S
C555 C557 1.415 . S
C556 C555 1.355 . S
C556 C558 1.419 . S
C557 C552 1.425 . S
C557 C554 1.409 . S
C557 C555 1.415 . S
C558 H548 0.930 . S
C558 C556 1.419 . S
C558 C559 1.362 . S
C559 H549 0.930 . S
C559 C552 1.409 . S
C559 C558 1.362 . S
H560 C566 0.930 . S
H561 C569 0.930 . S
H562 C570 0.930 . S
H563 C571 0.930 . S
H564 C574 0.930 . S
H565 C575 0.930 . S
C566 H560 0.930 . S
C566 C567 1.355 . S
C566 C568 1.415 . S
C567 C566 1.355 . S
C567 C569 1.419 . S
C568 C566 1.415 . S
C568 C573 1.425 . S
C568 C575 1.409 . S
C569 H561 0.930 . S
C569 C567 1.419 . S
C569 C570 1.362 . S
C570 H562 0.930 . S
C570 C569 1.362 . S
C570 C573 1.409 . S
C571 H563 0.930 . S
C571 C572 1.355 . S
C571 C573 1.415 . S
C572 C571 1.355 . S
C572 C574 1.419 . S
C573 C568 1.425 . S
C573 C570 1.409 . S
C573 C571 1.415 . S
C574 H564 0.930 . S
C574 C572 1.419 . S
C574 C575 1.362 . S
C575 H565 0.930 . S
C575 C568 1.409 . S
C575 C574 1.362 . S
H576 C582 0.930 . S
H577 C585 0.930 . S
H578 C586 0.930 . S
H579 C587 0.930 . S
H580 C590 0.930 . S
H581 C591 0.930 . S
C582 H576 0.930 . S
C582 C583 1.355 . S
C582 C584 1.415 . S
C583 C582 1.355 . S
C583 C585 1.419 . S
C584 C582 1.415 . S
C584 C589 1.425 . S
C584 C591 1.409 . S
C585 H577 0.930 . S
C585 C583 1.419 . S
C585 C586 1.362 . S
C586 H578 0.930 . S
C586 C585 1.362 . S
C586 C589 1.409 . S
C587 H579 0.930 . S
C587 C588 1.355 . S
C587 C589 1.415 . S
C588 C587 1.355 . S
C588 C590 1.419 . S
C589 C584 1.425 . S
C589 C586 1.409 . S
C589 C587 1.415 . S
C590 H580 0.930 . S
C590 C588 1.419 . S
C590 C591 1.362 . S
C591 H581 0.930 . S
C591 C584 1.409 . S
C591 C590 1.362 . S
H592 C598 0.930 . S
H593 C601 0.930 . S
H594 C602 0.930 . S
H595 C603 0.930 . S
H596 C606 0.930 . S
H597 C607 0.930 . S
C598 H592 0.930 . S
C598 C599 1.355 . S
C598 C600 1.415 . S
C599 C598 1.355 . S
C599 C601 1.419 . S
C600 C598 1.415 . S
C600 C605 1.425 . S
C600 C607 1.409 . S
C601 H593 0.930 . S
C601 C599 1.419 . S
C601 C602 1.362 . S
C602 H594 0.930 . S
C602 C601 1.362 . S
C602 C605 1.409 . S
C603 H595 0.930 . S
C603 C604 1.355 . S
C603 C605 1.415 . S
C604 C603 1.355 . S
C604 C606 1.419 . S
C605 C600 1.425 . S
C605 C602 1.409 . S
C605 C603 1.415 . S
C606 H596 0.930 . S
C606 C604 1.419 . S
C606 C607 1.362 . S
C607 H597 0.930 . S
C607 C600 1.409 . S
C607 C606 1.362 . S
C231 C4 2.502 . S
C236 C88 2.506 . S
C247 C16 2.582 . S
C252 C130 2.595 . S
C268 C160 0.667 . S
C263 C32 0.662 . S
C279 C43 0.957 . S
C284 C194 0.955 . S
C300 C151 2.221 . S
C295 C5 2.219 . S
C316 C105 1.664 . S
C311 C21 1.645 . S
C332 C198 1.133 . S
C327 C27 1.098 . S
C348 C164 1.179 . S
C343 C37 1.167 . S
C359 C10 2.200 . S
C364 C219 2.210 . S
C380 C126 1.221 . S
C375 C26 1.213 . S
C391 C38 1.002 . S
C396 C101 0.987 . S
C407 C15 2.329 . S
C412 C185 2.345 . S
C428 C117 2.614 1_565 S
C423 C48 2.609 . S
C439 C59 2.377 . S
C444 C139 2.399 . S
C455 C76 0.874 . S
C460 C169 0.878 . S
C471 C87 0.749 . S
C476 C203 0.758 . S
C487 C54 1.674 . S
C492 C122 1.699 1_556 S
C508 C96 2.177 . S
C503 C60 2.167 . S
C524 C207 1.081 . S
C519 C71 1.030 . S
C540 C173 1.148 . S
C535 C82 1.145 . S
C551 C49 2.473 . S
C556 C190 2.467 . S
C572 C135 0.921 . S
C567 C70 0.905 . S
C588 C92 1.173 . S
C583 C81 1.158 . S
C599 C65 2.131 . S
C604 C156 2.150 . S
