# Generated by pormake.
# Topology hwx, (6,3)-cn, num edge types: 1
# Building blocks:
#     Node 0, Type 0, BuildingBlock: IZENUY_clean_sbu_0, # of connection points: 6
#     Node 1, Type 0, BuildingBlock: IZENUY_clean_sbu_0, # of connection points: 6
#     Node 2, Type 0, BuildingBlock: IZENUY_clean_sbu_0, # of connection points: 6
#     Node 3, Type 0, BuildingBlock: IZENUY_clean_sbu_0, # of connection points: 6
#     Node 4, Type 1, BuildingBlock: MIDCAF_clean_linker_0, # of connection points: 3
#     Node 5, Type 1, BuildingBlock: MIDCAF_clean_linker_0, # of connection points: 3
#     Node 6, Type 1, BuildingBlock: MIDCAF_clean_linker_0, # of connection points: 3
#     Node 7, Type 1, BuildingBlock: MIDCAF_clean_linker_0, # of connection points: 3
#     Node 8, Type 1, BuildingBlock: MIDCAF_clean_linker_0, # of connection points: 3
#     Node 9, Type 1, BuildingBlock: MIDCAF_clean_linker_0, # of connection points: 3
#     Node 10, Type 1, BuildingBlock: MIDCAF_clean_linker_0, # of connection points: 3
#     Node 11, Type 1, BuildingBlock: MIDCAF_clean_linker_0, # of connection points: 3
#     Edge 12, Type (0, 1), BuildingBlock: UVAHIK_clean_linker_0, # of connection points: 2
#     Edge 13, Type (0, 1), BuildingBlock: UVAHIK_clean_linker_0, # of connection points: 2
#     Edge 14, Type (0, 1), BuildingBlock: UVAHIK_clean_linker_0, # of connection points: 2
#     Edge 15, Type (0, 1), BuildingBlock: UVAHIK_clean_linker_0, # of connection points: 2
#     Edge 16, Type (0, 1), BuildingBlock: UVAHIK_clean_linker_0, # of connection points: 2
#     Edge 17, Type (0, 1), BuildingBlock: UVAHIK_clean_linker_0, # of connection points: 2
#     Edge 18, Type (0, 1), BuildingBlock: UVAHIK_clean_linker_0, # of connection points: 2
#     Edge 19, Type (0, 1), BuildingBlock: UVAHIK_clean_linker_0, # of connection points: 2
#     Edge 20, Type (0, 1), BuildingBlock: UVAHIK_clean_linker_0, # of connection points: 2
#     Edge 21, Type (0, 1), BuildingBlock: UVAHIK_clean_linker_0, # of connection points: 2
#     Edge 22, Type (0, 1), BuildingBlock: UVAHIK_clean_linker_0, # of connection points: 2
#     Edge 23, Type (0, 1), BuildingBlock: UVAHIK_clean_linker_0, # of connection points: 2
#     Edge 24, Type (0, 1), BuildingBlock: UVAHIK_clean_linker_0, # of connection points: 2
#     Edge 25, Type (0, 1), BuildingBlock: UVAHIK_clean_linker_0, # of connection points: 2
#     Edge 26, Type (0, 1), BuildingBlock: UVAHIK_clean_linker_0, # of connection points: 2
#     Edge 27, Type (0, 1), BuildingBlock: UVAHIK_clean_linker_0, # of connection points: 2
#     Edge 28, Type (0, 1), BuildingBlock: UVAHIK_clean_linker_0, # of connection points: 2
#     Edge 29, Type (0, 1), BuildingBlock: UVAHIK_clean_linker_0, # of connection points: 2
#     Edge 30, Type (0, 1), BuildingBlock: UVAHIK_clean_linker_0, # of connection points: 2
#     Edge 31, Type (0, 1), BuildingBlock: UVAHIK_clean_linker_0, # of connection points: 2
#     Edge 32, Type (0, 1), BuildingBlock: UVAHIK_clean_linker_0, # of connection points: 2
#     Edge 33, Type (0, 1), BuildingBlock: UVAHIK_clean_linker_0, # of connection points: 2
#     Edge 34, Type (0, 1), BuildingBlock: UVAHIK_clean_linker_0, # of connection points: 2
#     Edge 35, Type (0, 1), BuildingBlock: UVAHIK_clean_linker_0, # of connection points: 2
# Relax obj value: 0.053
# Max RMSD: 0.077
# Mean RMSD: 0.069
data_MOF--net-hwx--node1-IZENUY_clean_sbu_0--node2-MIDCAF_clean_linker_0--edge1-UVAHIK_clean_linker_0
_symmetry_space_group_name_H-M    P1
_symmetry_Int_Tables_number       1
_symmetry_cell_setting            triclinic
loop_
_symmetry_equiv_pos_as_xyz
'x, y, z'
_cell_length_a     71.063797
_cell_length_b     70.905757
_cell_length_c     34.558644
_cell_angle_alpha  89.896014
_cell_angle_beta   90.135488
_cell_angle_gamma 90.012454
loop_
_atom_site_label
_atom_site_type_symbol
_atom_site_fract_x
_atom_site_fract_y
_atom_site_fract_z
_atom_type_partial_charge
Fe0 Fe 0.23588 0.20594 0.04131 0.0
Fe1 Fe 0.23633 0.20562 0.95263 0.0
O2 O 0.23148 0.19417 0.9971 0.0
Fe3 Fe 0.22222 0.17097 0.99746 0.0
O4 O 0.20825 0.17429 0.04152 0.0
O5 O 0.21131 0.2044 0.05515 0.0
O6 O 0.23074 0.22955 0.02243 0.0
C7 C 0.22132 0.23497 0.99333 0.0
C8 C 0.24722 0.16837 0.0573 0.0
O9 O 0.22015 0.22475 0.96356 0.0
C10 C 0.24888 0.17002 0.93652 0.0
O11 O 0.26073 0.20824 0.03028 0.0
O12 O 0.25655 0.21895 0.97117 0.0
O13 O 0.24222 0.16207 0.02475 0.0
O14 O 0.24184 0.18449 0.06843 0.0
C15 C 0.20214 0.18625 0.9376 0.0
O16 O 0.25285 0.18734 0.93854 0.0
O17 O 0.2345 0.16347 0.95348 0.0
C18 C 0.26703 0.21625 0.00035 0.0
O19 O 0.21704 0.19429 0.92612 0.0
O20 O 0.20156 0.17823 0.97019 0.0
C21 C 0.20231 0.18911 0.05786 0.0
Fe22 Fe 0.26576 0.70582 0.54521 0.0
Fe23 Fe 0.27976 0.67045 0.50332 0.0
O24 O 0.27013 0.69349 0.50167 0.0
Fe25 Fe 0.26486 0.70421 0.45663 0.0
O26 O 0.27039 0.72829 0.47282 0.0
O27 O 0.28172 0.72466 0.53161 0.0
O28 O 0.28537 0.69512 0.5719 0.0
C29 C 0.30031 0.6872 0.56041 0.0
C30 C 0.23438 0.71543 0.49858 0.0
O31 O 0.30068 0.67866 0.52845 0.0
C32 C 0.2536 0.66614 0.44593 0.0
O33 O 0.24948 0.68779 0.56148 0.0
O34 O 0.26813 0.66388 0.54882 0.0
O35 O 0.24021 0.70674 0.46917 0.0
O36 O 0.24532 0.71881 0.52666 0.0
C37 C 0.29836 0.68727 0.43953 0.0
O38 O 0.2596 0.66063 0.47839 0.0
O39 O 0.25834 0.68208 0.4324 0.0
C40 C 0.25366 0.67059 0.56518 0.0
O41 O 0.29301 0.67282 0.45807 0.0
O42 O 0.28914 0.70244 0.44103 0.0
C43 C 0.28011 0.7343 0.50105 0.0
Fe44 Fe 0.76647 0.80372 0.95494 0.0
Fe45 Fe 0.76644 0.80455 0.0436 0.0
O46 O 0.77104 0.81577 0.99882 0.0
Fe47 Fe 0.78018 0.83904 0.99787 0.0
O48 O 0.76799 0.84583 0.95303 0.0
O49 O 0.7498 0.82163 0.93963 0.0
O50 O 0.74634 0.79032 0.97362 0.0
C51 C 0.73567 0.7933 0.00224 0.0
C52 C 0.80054 0.82318 0.93954 0.0
O53 O 0.74173 0.80176 0.03181 0.0
C54 C 0.79976 0.82197 0.06031 0.0
O55 O 0.7828 0.78495 0.96738 0.0
O56 O 0.7721 0.78075 0.02636 0.0
O57 O 0.80099 0.83151 0.97175 0.0
O58 O 0.78571 0.81495 0.92817 0.0
C59 C 0.75452 0.84219 0.05629 0.0
O60 O 0.79086 0.80661 0.0584 0.0
O61 O 0.79391 0.83648 0.04258 0.0
C62 C 0.78156 0.77504 0.99764 0.0
O63 O 0.75985 0.82628 0.06893 0.0
O64 O 0.76006 0.84824 0.02394 0.0
C65 C 0.7536 0.83895 0.93657 0.0
Fe66 Fe 0.72225 0.33849 0.50314 0.0
Fe67 Fe 0.73454 0.30234 0.54559 0.0
O68 O 0.73017 0.3148 0.50199 0.0
Fe69 Fe 0.73372 0.30348 0.457 0.0
O70 O 0.74048 0.32496 0.43091 0.0
O71 O 0.7425 0.34667 0.47581 0.0
O72 O 0.73534 0.34473 0.54717 0.0
C73 C 0.74914 0.33691 0.56404 0.0
C74 C 0.70091 0.32213 0.44233 0.0
O75 O 0.75197 0.31942 0.56101 0.0
C76 C 0.71809 0.27438 0.5032 0.0
O77 O 0.70142 0.3321 0.53055 0.0
O78 O 0.71597 0.31418 0.57307 0.0
O79 O 0.70917 0.30639 0.44391 0.0
O80 O 0.70772 0.33645 0.45927 0.0
C81 C 0.76456 0.29123 0.49688 0.0
O82 O 0.71736 0.28427 0.53346 0.0
O83 O 0.72765 0.27982 0.47443 0.0
C84 C 0.70163 0.32346 0.56247 0.0
O85 O 0.75405 0.28838 0.52587 0.0
O86 O 0.75848 0.29992 0.4675 0.0
C87 C 0.74686 0.34058 0.44277 0.0
C88 C 0.17762 0.55925 0.11495 0.0
C89 C 0.17612 0.54942 0.15017 0.0
C90 C 0.17179 0.53005 0.14922 0.0
C91 C 0.16939 0.5207 0.11385 0.0
H92 H 0.16295 0.46743 0.06281 0.0
H93 H 0.16505 0.4332 0.06017 0.0
H94 H 0.178 0.43633 0.93821 0.0
H95 H 0.17533 0.47048 0.94051 0.0
H96 H 0.17597 0.51012 0.89789 0.0
H97 H 0.18181 0.5295 0.84067 0.0
H98 H 0.17467 0.57986 0.90921 0.0
H99 H 0.16915 0.56069 0.9663 0.0
H100 H 0.17669 0.55809 0.05339 0.0
H101 H 0.18132 0.57406 0.11435 0.0
H102 H 0.1703 0.52208 0.17578 0.0
H103 H 0.16629 0.50575 0.11413 0.0
N104 N 0.169 0.50159 0.03886 0.0
N105 N 0.16979 0.50316 0.97094 0.0
N106 N 0.17052 0.53087 0.0076 0.0
C107 C 0.16894 0.4927 0.00396 0.0
C108 C 0.17046 0.5223 0.97257 0.0
C109 C 0.1698 0.52072 0.04087 0.0
C110 C 0.16909 0.47178 0.00194 0.0
C111 C 0.16611 0.46084 0.03534 0.0
C112 C 0.16741 0.44118 0.03387 0.0
C113 C 0.17185 0.43196 0.99904 0.0
C114 C 0.17433 0.44289 0.96544 0.0
C115 C 0.17291 0.46254 0.96684 0.0
C116 C 0.1723 0.53381 0.93688 0.0
C117 C 0.17548 0.52532 0.90071 0.0
C118 C 0.17875 0.53642 0.86785 0.0
C119 C 0.17891 0.55621 0.87052 0.0
C120 C 0.17502 0.56465 0.90635 0.0
C121 C 0.17178 0.55361 0.9391 0.0
C122 C 0.17118 0.53055 0.07868 0.0
C123 C 0.17509 0.54999 0.07977 0.0
C124 C 0.93023 0.85188 0.6022 0.0
C125 C 0.93711 0.84492 0.63758 0.0
C126 C 0.95565 0.83808 0.6394 0.0
C127 C 0.96674 0.83732 0.60599 0.0
H128 H 0.01747 0.81733 0.56347 0.0
H129 H 0.04843 0.80257 0.5633 0.0
H130 H 0.05213 0.81107 0.43971 0.0
H131 H 0.02109 0.82537 0.43961 0.0
H132 H 0.98018 0.82409 0.39585 0.0
H133 H 0.96174 0.82401 0.33618 0.0
H134 H 0.91932 0.85831 0.39096 0.0
H135 H 0.93764 0.85843 0.45072 0.0
H136 H 0.93525 0.85624 0.54204 0.0
H137 H 0.91613 0.8576 0.60007 0.0
H138 H 0.96131 0.83257 0.66627 0.0
H139 H 0.98072 0.83135 0.60807 0.0
N140 N 0.98811 0.834 0.5345 0.0
N141 N 0.98842 0.83307 0.46663 0.0
N142 N 0.9615 0.84339 0.49916 0.0
C143 C 0.99738 0.83033 0.50095 0.0
C144 C 0.9705 0.83963 0.46548 0.0
C145 C 0.97016 0.84065 0.53379 0.0
C146 C 0.01669 0.82243 0.50153 0.0
C147 C 0.02491 0.81614 0.53627 0.0
C148 C 0.04271 0.80774 0.53621 0.0
C149 C 0.05271 0.80551 0.50144 0.0
C150 C 0.04466 0.81222 0.46688 0.0
C151 C 0.02687 0.82053 0.4669 0.0
C152 C 0.96032 0.84117 0.42818 0.0
C153 C 0.96704 0.83183 0.39509 0.0
C154 C 0.95646 0.83167 0.36097 0.0
C155 C 0.93909 0.84107 0.35907 0.0
C156 C 0.93273 0.85105 0.39158 0.0
C157 C 0.94318 0.85101 0.42585 0.0
C158 C 0.95947 0.84342 0.57016 0.0
C159 C 0.94126 0.85114 0.56893 0.0
C160 C 0.83647 0.44643 0.89712 0.0
C161 C 0.82557 0.45292 0.86572 0.0
C162 C 0.81819 0.47134 0.8673 0.0
C163 C 0.82115 0.4827 0.89978 0.0
H164 H 0.82324 0.53875 0.93823 0.0
H165 H 0.81957 0.57286 0.93729 0.0
H166 H 0.83275 0.57497 0.05935 0.0
H167 H 0.83588 0.54083 0.0606 0.0
H168 H 0.82069 0.50083 0.10604 0.0
H169 H 0.81484 0.48258 0.16453 0.0
H170 H 0.83842 0.4332 0.1098 0.0
H171 H 0.84359 0.45126 0.05088 0.0
H172 H 0.84712 0.45202 0.95397 0.0
H173 H 0.84285 0.43257 0.8967 0.0
H174 H 0.80948 0.47681 0.84412 0.0
H175 H 0.8148 0.49659 0.9005 0.0
N176 N 0.83119 0.506 0.9671 0.0
N177 N 0.83207 0.5068 0.03499 0.0
N178 N 0.8335 0.47785 0.00251 0.0
C179 C 0.83124 0.51609 0.00054 0.0
C180 C 0.83322 0.48767 0.03619 0.0
C181 C 0.83246 0.48688 0.9679 0.0
C182 C 0.82974 0.53697 0.99955 0.0
C183 C 0.82543 0.54647 0.96488 0.0
C184 C 0.82343 0.56609 0.96427 0.0
C185 C 0.8258 0.57671 0.99826 0.0
C186 C 0.83048 0.56723 0.03276 0.0
C187 C 0.83236 0.54761 0.03343 0.0
C188 C 0.83235 0.47744 0.07356 0.0
C189 C 0.82488 0.48614 0.10667 0.0
C190 C 0.82159 0.47567 0.14034 0.0
C191 C 0.82589 0.45631 0.14179 0.0
C192 C 0.83447 0.44794 0.10942 0.0
C193 C 0.83753 0.45834 0.07566 0.0
C194 C 0.83123 0.47579 0.93178 0.0
C195 C 0.83908 0.45764 0.92991 0.0
C196 C 0.0694 0.16298 0.38877 0.0
C197 C 0.06304 0.17305 0.35625 0.0
C198 C 0.04575 0.18258 0.35814 0.0
C199 C 0.0352 0.18237 0.39221 0.0
H200 H 0.98081 0.18741 0.43609 0.0
H201 H 0.94925 0.20052 0.43611 0.0
H202 H 0.95255 0.20823 0.55994 0.0
H203 H 0.98403 0.19465 0.56019 0.0
H204 H 0.0214 0.18177 0.605 0.0
H205 H 0.04077 0.18018 0.66345 0.0
H206 H 0.08594 0.15542 0.59741 0.0
H207 H 0.06688 0.15718 0.53917 0.0
H208 H 0.06451 0.15544 0.44783 0.0
H209 H 0.08276 0.15562 0.38818 0.0
H210 H 0.04048 0.19033 0.33334 0.0
H211 H 0.0221 0.19016 0.39296 0.0
N212 N 0.01363 0.18037 0.46344 0.0
N213 N 0.0139 0.17904 0.5313 0.0
N214 N 0.04072 0.17039 0.49618 0.0
C215 C 0.00458 0.18272 0.49768 0.0
C216 C 0.03198 0.17277 0.53074 0.0
C217 C 0.03168 0.17417 0.46244 0.0
C218 C 0.98505 0.19004 0.49813 0.0
C219 C 0.97484 0.19184 0.46341 0.0
C220 C 0.95675 0.19947 0.46335 0.0
C221 C 0.94842 0.20558 0.49796 0.0
C222 C 0.95848 0.20349 0.53281 0.0
C223 C 0.97658 0.19577 0.53291 0.0
C224 C 0.04266 0.16987 0.56719 0.0
C225 C 0.03538 0.17579 0.60302 0.0
C226 C 0.04644 0.17482 0.63656 0.0
C227 C 0.06497 0.16794 0.63488 0.0
C228 C 0.07186 0.16118 0.59946 0.0
C229 C 0.06087 0.16214 0.56606 0.0
C230 C 0.04189 0.17287 0.42525 0.0
C231 C 0.05899 0.16297 0.42299 0.0
C232 C 0.67749 0.9479 0.39174 0.0
C233 C 0.67734 0.95745 0.35606 0.0
C234 C 0.67416 0.97704 0.35584 0.0
C235 C 0.67153 0.98685 0.39057 0.0
H236 H 0.66273 0.0405 0.43833 0.0
H237 H 0.66424 0.07479 0.43919 0.0
H238 H 0.67715 0.07339 0.56143 0.0
H239 H 0.67502 0.0392 0.5609 0.0
H240 H 0.6718 1.00041 0.60637 0.0
H241 H 0.67582 0.98225 0.66584 0.0
H242 H 0.6761 0.93066 0.59953 0.0
H243 H 0.67171 0.94861 0.5404 0.0
H244 H 0.67531 0.94973 0.4531 0.0
H245 H 0.68025 0.93289 0.3932 0.0
H246 H 0.67375 0.98481 0.32885 0.0
H247 H 0.66933 0.00195 0.38938 0.0
N248 N 0.66942 0.00673 0.46433 0.0
N249 N 0.66941 0.0061 0.53229 0.0
N250 N 0.67072 0.97788 0.49736 0.0
C251 C 0.66892 0.0161 0.49866 0.0
C252 C 0.67021 0.98696 0.53186 0.0
C253 C 0.67033 0.98758 0.46347 0.0
C254 C 0.66885 0.03702 0.49949 0.0
C255 C 0.66577 0.04749 0.46547 0.0
C256 C 0.66673 0.06719 0.46592 0.0
C257 C 0.67095 0.07691 0.50033 0.0
C258 C 0.67361 0.06645 0.53451 0.0
C259 C 0.67251 0.04676 0.53413 0.0
C260 C 0.67152 0.97602 0.56844 0.0
C261 C 0.67254 0.98518 0.60447 0.0
C262 C 0.67494 0.97478 0.63858 0.0
C263 C 0.67633 0.955 0.63745 0.0
C264 C 0.67484 0.94585 0.60155 0.0
C265 C 0.67245 0.95621 0.56752 0.0
C266 C 0.67199 0.97728 0.42626 0.0
C267 C 0.67478 0.95764 0.42628 0.0
C268 C 0.5723 0.35115 0.90078 0.0
C269 C 0.56536 0.34454 0.86523 0.0
C270 C 0.5467 0.33804 0.86314 0.0
C271 C 0.53552 0.33733 0.89643 0.0
H272 H 0.48479 0.31693 0.93863 0.0
H273 H 0.45376 0.30231 0.93854 0.0
H274 H 0.44906 0.3123 0.06144 0.0
H275 H 0.48018 0.32645 0.06184 0.0
H276 H 0.5207 0.32552 0.10714 0.0
H277 H 0.53866 0.32598 0.1674 0.0
H278 H 0.58191 0.35912 0.11204 0.0
H279 H 0.56406 0.3587 0.05171 0.0
H280 H 0.56722 0.35533 0.96094 0.0
H281 H 0.5865 0.3566 0.90313 0.0
H282 H 0.54099 0.3328 0.83613 0.0
H283 H 0.52141 0.33167 0.89412 0.0
N284 N 0.51393 0.33399 0.96767 0.0
N285 N 0.51316 0.33358 0.03554 0.0
N286 N 0.54033 0.34358 0.00337 0.0
C287 C 0.50442 0.33059 0.00109 0.0
C288 C 0.53109 0.34011 0.03694 0.0
C289 C 0.53189 0.34059 0.96861 0.0
C290 C 0.48508 0.32277 0.00028 0.0
C291 C 0.47711 0.3161 0.96562 0.0
C292 C 0.45927 0.30778 0.96552 0.0
C293 C 0.44897 0.30601 4e-05 0.0
C294 C 0.45676 0.31309 0.03449 0.0
C295 C 0.4746 0.32131 0.03463 0.0
C296 C 0.54101 0.34197 0.07448 0.0
C297 C 0.53392 0.33312 0.10787 0.0
C298 C 0.54423 0.33328 0.14235 0.0
C299 C 0.56169 0.34251 0.14429 0.0
C300 C 0.56842 0.352 0.11142 0.0
C301 C 0.55824 0.35166 0.07681 0.0
C302 C 0.5428 0.34315 0.93241 0.0
C303 C 0.56117 0.35048 0.93393 0.0
C304 C 0.32875 0.06238 0.60318 0.0
C305 C 0.32749 0.05315 0.63911 0.0
C306 C 0.32976 0.03344 0.64033 0.0
C307 C 0.33253 0.02316 0.60629 0.0
H308 H 0.32756 0.96912 0.56261 0.0
H309 H 0.32373 0.935 0.56248 0.0
H310 H 0.33462 0.93397 0.43954 0.0
H311 H 0.33789 0.96809 0.43938 0.0
H312 H 0.32117 0.00761 0.39557 0.0
H313 H 0.31448 0.02578 0.33728 0.0
H314 H 0.3367 0.07579 0.39228 0.0
H315 H 0.34268 0.05779 0.45098 0.0
H316 H 0.33199 0.05977 0.54206 0.0
H317 H 0.32683 0.07749 0.601 0.0
H318 H 0.32916 0.02591 0.66759 0.0
H319 H 0.33382 0.00797 0.60826 0.0
N320 N 0.33408 0.00228 0.53404 0.0
N321 N 0.33366 0.00181 0.46611 0.0
N322 N 0.33419 0.03063 0.4991 0.0
C323 C 0.3339 0.99234 0.50039 0.0
C324 C 0.33389 0.02096 0.46526 0.0
C325 C 0.33429 0.02146 0.53362 0.0
C326 C 0.33288 0.97143 0.50094 0.0
C327 C 0.32925 0.96163 0.53555 0.0
C328 C 0.32715 0.94201 0.53554 0.0
C329 C 0.32875 0.9317 0.50096 0.0
C330 C 0.33292 0.94147 0.46657 0.0
C331 C 0.3349 0.96107 0.46653 0.0
C332 C 0.33221 0.03131 0.42813 0.0
C333 C 0.32484 0.02243 0.39505 0.0
C334 C 0.32108 0.03286 0.3615 0.0
C335 C 0.3248 0.05235 0.36016 0.0
C336 C 0.33318 0.06093 0.39257 0.0
C337 C 0.33672 0.05058 0.42621 0.0
C338 C 0.33313 0.03236 0.57021 0.0
C339 C 0.33158 0.05214 0.56922 0.0
C340 C 0.43224 0.66084 0.11014 0.0
C341 C 0.43843 0.67087 0.14279 0.0
C342 C 0.45565 0.68055 0.14117 0.0
C343 C 0.46628 0.68057 0.1072 0.0
H344 H 0.52068 0.68676 0.06349 0.0
H345 H 0.55204 0.70038 0.06349 0.0
H346 H 0.54858 0.70838 0.9397 0.0
H347 H 0.51733 0.6943 0.93943 0.0
H348 H 0.4807 0.68054 0.89433 0.0
H349 H 0.46146 0.67946 0.83568 0.0
H350 H 0.4154 0.65606 0.90139 0.0
H351 H 0.43435 0.65726 0.95985 0.0
H352 H 0.43734 0.65358 0.05107 0.0
H353 H 0.41895 0.65337 0.11054 0.0
H354 H 0.46079 0.68827 0.16607 0.0
H355 H 0.47931 0.6885 0.10665 0.0
N356 N 0.48795 0.67918 0.03604 0.0
N357 N 0.48768 0.67833 0.96815 0.0
N358 N 0.46095 0.66916 0.00305 0.0
C359 C 0.49697 0.68187 0.00184 0.0
C360 C 0.46967 0.67188 0.96856 0.0
C361 C 0.46997 0.67277 0.03688 0.0
C362 C 0.51639 0.68948 0.00146 0.0
C363 C 0.52658 0.69135 0.03619 0.0
C364 C 0.54456 0.69927 0.03626 0.0
C365 C 0.55278 0.70561 0.00165 0.0
C366 C 0.54274 0.70347 0.96682 0.0
C367 C 0.52477 0.69546 0.96671 0.0
C368 C 0.45901 0.66925 0.93201 0.0
C369 C 0.46655 0.67496 0.89622 0.0
C370 C 0.45556 0.67429 0.86255 0.0
C371 C 0.43685 0.66794 0.86409 0.0
C372 C 0.42966 0.66139 0.89947 0.0
C373 C 0.44058 0.66203 0.93299 0.0
C374 C 0.45975 0.67114 0.07401 0.0
C375 C 0.44274 0.66106 0.07603 0.0
C376 C 0.1782 0.204 0.10127 0.0
C377 C 0.18604 0.18777 0.08441 0.0
C378 C 0.16347 0.20244 0.12789 0.0
C379 C 0.14402 0.16947 0.19844 0.0
H380 H 0.09951 0.20105 0.19506 0.0
C381 C 0.08349 0.15818 0.30587 0.0
C382 C 0.07494 0.17435 0.32122 0.0
C383 C 0.09577 0.15963 0.27451 0.0
C384 C 0.11195 0.19226 0.19668 0.0
H385 H 0.1842 0.15722 0.0816 0.0
H386 H 0.15871 0.15458 0.12818 0.0
H387 H 0.12356 0.20439 0.14507 0.0
H388 H 0.07234 0.20468 0.31573 0.0
H389 H 0.09412 0.20733 0.26161 0.0
H390 H 0.13288 0.15768 0.25043 0.0
C391 C 0.16401 0.16847 0.12093 0.0
C392 C 0.12568 0.19416 0.16799 0.0
C393 C 0.17857 0.17002 0.09411 0.0
C394 C 0.07859 0.19196 0.30414 0.0
C395 C 0.09104 0.19345 0.27306 0.0
C396 C 0.13043 0.1677 0.22728 0.0
C397 C 0.15646 0.18463 0.1384 0.0
C398 C 0.14181 0.18274 0.16858 0.0
C399 C 0.09998 0.17733 0.25815 0.0
C400 C 0.11419 0.17903 0.22677 0.0
H401 H 0.18358 0.21789 0.09427 0.0
H402 H 0.15794 0.21512 0.14109 0.0
H403 H 0.15647 0.16068 0.19993 0.0
H404 H 0.08073 0.14441 0.31824 0.0
H405 H 0.10206 0.14686 0.26326 0.0
C406 C 0.22698 0.66566 0.6117 0.0
C407 C 0.24286 0.65858 0.59234 0.0
C408 C 0.21742 0.65453 0.63872 0.0
C409 C 0.209 0.63314 0.71285 0.0
H410 H 0.20364 0.57908 0.69979 0.0
C411 C 0.19612 0.58356 0.84145 0.0
C412 C 0.18397 0.5681 0.83667 0.0
C413 C 0.20117 0.59475 0.80991 0.0
C414 C 0.20479 0.59419 0.70372 0.0
H415 H 0.26079 0.63404 0.5855 0.0
H416 H 0.24439 0.61485 0.63294 0.0
H417 H 0.21559 0.59821 0.64652 0.0
H418 H 0.16748 0.55233 0.79496 0.0
H419 H 0.17629 0.57197 0.73962 0.0
H420 H 0.19814 0.62915 0.76992 0.0
C421 C 0.23913 0.62889 0.62693 0.0
C422 C 0.21185 0.60513 0.67334 0.0
C423 C 0.24864 0.63997 0.59989 0.0
C424 C 0.177 0.56405 0.7995 0.0
C425 C 0.18204 0.5753 0.76784 0.0
C426 C 0.20192 0.62221 0.74315 0.0
C427 C 0.22353 0.63609 0.64699 0.0
C428 C 0.21436 0.62469 0.6778 0.0
C429 C 0.19419 0.59079 0.77272 0.0
C430 C 0.20007 0.60256 0.73923 0.0
H431 H 0.22204 0.67988 0.60633 0.0
H432 H 0.20529 0.66042 0.65327 0.0
H433 H 0.21088 0.64812 0.71742 0.0
H434 H 0.20207 0.58683 0.86954 0.0
H435 H 0.2109 0.60629 0.81458 0.0
C436 C 0.82308 0.84171 0.09635 0.0
C437 C 0.81591 0.82378 0.08717 0.0
C438 C 0.8376 0.84367 0.12327 0.0
C439 C 0.87644 0.81887 0.17106 0.0
H440 H 0.86883 0.85552 0.2527 0.0
C441 C 0.92362 0.82196 0.30723 0.0
C442 C 0.9271 0.83962 0.32411 0.0
C443 C 0.91114 0.82029 0.27615 0.0
C444 C 0.87139 0.84547 0.22977 0.0
H445 H 0.81884 0.79378 0.09813 0.0
H446 H 0.84442 0.79726 0.14508 0.0
H447 H 0.8452 0.852 0.20218 0.0
H448 H 0.92092 0.86948 0.32085 0.0
H449 H 0.89951 0.86672 0.26584 0.0
H450 H 0.90274 0.81247 0.19831 0.0
C451 C 0.83868 0.80976 0.1314 0.0
C452 C 0.85778 0.8434 0.20092 0.0
C453 C 0.82398 0.80779 0.10472 0.0
C454 C 0.9183 0.85567 0.30861 0.0
C455 C 0.90598 0.85404 0.27724 0.0
C456 C 0.89018 0.82108 0.19972 0.0
C457 C 0.84543 0.82775 0.14132 0.0
C458 C 0.86013 0.83004 0.17139 0.0
C459 C 0.90199 0.83628 0.26102 0.0
C460 C 0.88778 0.83435 0.22956 0.0
H461 H 0.81724 0.85433 0.08332 0.0
H462 H 0.84269 0.85769 0.13008 0.0
H463 H 0.87866 0.80859 0.14838 0.0
H464 H 0.93004 0.80932 0.31895 0.0
H465 H 0.90821 0.80635 0.26487 0.0
C466 C 0.77031 0.33917 0.62196 0.0
C467 C 0.7606 0.34807 0.59149 0.0
C468 C 0.77963 0.34988 0.65001 0.0
C469 C 0.80075 0.39583 0.67059 0.0
H470 H 0.7856 0.38634 0.77652 0.0
C471 C 0.81854 0.44743 0.79492 0.0
C472 C 0.82107 0.4402 0.83254 0.0
C473 C 0.81293 0.43566 0.76457 0.0
C474 C 0.79037 0.38898 0.74729 0.0
H475 H 0.75384 0.37509 0.56547 0.0
H476 H 0.77051 0.39377 0.61411 0.0
H477 H 0.77343 0.36651 0.72488 0.0
H478 H 0.81997 0.41458 0.86707 0.0
H479 H 0.81147 0.39404 0.81403 0.0
H480 H 0.81799 0.41806 0.69283 0.0
C481 C 0.77071 0.37853 0.6164 0.0
C482 C 0.78328 0.37764 0.71768 0.0
C483 C 0.7611 0.36785 0.58874 0.0
C484 C 0.81846 0.42074 0.83856 0.0
C485 C 0.81319 0.40893 0.80811 0.0
C486 C 0.80814 0.407 0.70032 0.0
C487 C 0.77974 0.36966 0.6477 0.0
C488 C 0.78826 0.38106 0.67904 0.0
C489 C 0.80998 0.41626 0.77082 0.0
C490 C 0.8029 0.40386 0.7391 0.0
H491 H 0.77016 0.32396 0.62492 0.0
H492 H 0.78659 0.34272 0.67378 0.0
H493 H 0.80489 0.39866 0.64099 0.0
H494 H 0.82073 0.46225 0.78884 0.0
H495 H 0.81044 0.44193 0.73644 0.0
C496 C 0.67793 0.34269 0.40705 0.0
C497 C 0.68447 0.32452 0.41641 0.0
C498 C 0.6632 0.34511 0.38072 0.0
C499 C 0.62309 0.32142 0.3347 0.0
H500 H 0.63158 0.35712 0.25141 0.0
C501 C 0.57647 0.32385 0.19781 0.0
C502 C 0.57341 0.34133 0.17971 0.0
C503 C 0.58873 0.32238 0.22931 0.0
C504 C 0.62877 0.34735 0.27482 0.0
H505 H 0.68016 0.29461 0.40653 0.0
H506 H 0.65426 0.2989 0.36066 0.0
H507 H 0.65517 0.35342 0.302 0.0
H508 H 0.58011 0.37112 0.18128 0.0
H509 H 0.60115 0.36871 0.23698 0.0
H510 H 0.59663 0.31542 0.30777 0.0
C511 C 0.66063 0.31123 0.37371 0.0
C512 C 0.64235 0.34519 0.30373 0.0
C513 C 0.67552 0.3088 0.39978 0.0
C514 C 0.5824 0.35743 0.19445 0.0
C515 C 0.59451 0.35601 0.22623 0.0
C516 C 0.60939 0.32372 0.30598 0.0
C517 C 0.65454 0.32943 0.3635 0.0
C518 C 0.63972 0.33211 0.33378 0.0
C519 C 0.59809 0.3384 0.24366 0.0
C520 C 0.61213 0.33661 0.27547 0.0
H521 H 0.68445 0.35512 0.4194 0.0
H522 H 0.65864 0.35929 0.37367 0.0
H523 H 0.62063 0.31137 0.3578 0.0
H524 H 0.5699 0.31117 0.18671 0.0
H525 H 0.59135 0.30855 0.24151 0.0
C526 C 0.25523 0.13821 0.90826 0.0
C527 C 0.25969 0.1575 0.91041 0.0
C528 C 0.26431 0.12649 0.88184 0.0
C529 C 0.30594 0.12216 0.81859 0.0
H530 H 0.27351 0.08836 0.7608 0.0
C531 C 0.32977 0.08222 0.68068 0.0
C532 C 0.32259 0.06397 0.67457 0.0
C533 C 0.3236 0.09309 0.71192 0.0
C534 C 0.28285 0.09747 0.77706 0.0
H535 H 0.27781 0.17943 0.88738 0.0
H536 H 0.29362 0.15891 0.84089 0.0
H537 H 0.26011 0.1084 0.81056 0.0
H538 H 0.30371 0.04265 0.69746 0.0
H539 H 0.29343 0.06133 0.75243 0.0
H540 H 0.32869 0.11123 0.78472 0.0
C541 C 0.2831 0.15288 0.85988 0.0
C542 C 0.27515 0.10901 0.80559 0.0
C543 C 0.27398 0.16465 0.8864 0.0
C544 C 0.30967 0.05658 0.70137 0.0
C545 C 0.30357 0.0674 0.73264 0.0
C546 C 0.31369 0.11055 0.79001 0.0
C547 C 0.27811 0.13374 0.85686 0.0
C548 C 0.28658 0.12147 0.82674 0.0
C549 C 0.31014 0.08594 0.73784 0.0
C550 C 0.30221 0.09804 0.76894 0.0
H551 H 0.24446 0.13214 0.9266 0.0
H552 H 0.2604 0.11174 0.88078 0.0
H553 H 0.31514 0.13151 0.83462 0.0
H554 H 0.33993 0.08826 0.66092 0.0
H555 H 0.3289 0.10733 0.71494 0.0
C556 C 0.32223 0.70175 0.39503 0.0
C557 C 0.31442 0.68565 0.41257 0.0
C558 C 0.33697 0.70001 0.36852 0.0
C559 C 0.35686 0.66671 0.29943 0.0
H560 H 0.4012 0.69853 0.30309 0.0
C561 C 0.41786 0.65579 0.19286 0.0
C562 C 0.42638 0.67204 0.17761 0.0
C563 C 0.40544 0.65713 0.22401 0.0
C564 C 0.38882 0.68967 0.30137 0.0
H565 H 0.31619 0.65513 0.41647 0.0
H566 H 0.34172 0.65215 0.36995 0.0
H567 H 0.37691 0.70189 0.3525 0.0
H568 H 0.42875 0.70238 0.18301 0.0
H569 H 0.40674 0.70484 0.23671 0.0
H570 H 0.36828 0.65486 0.24784 0.0
C571 C 0.3364 0.66608 0.37668 0.0
C572 C 0.37495 0.69158 0.32974 0.0
C573 C 0.32184 0.66782 0.40345 0.0
C574 C 0.42254 0.6896 0.19455 0.0
C575 C 0.40996 0.69098 0.2254 0.0
C576 C 0.37058 0.66494 0.27086 0.0
C577 C 0.34402 0.68213 0.35875 0.0
C578 C 0.35886 0.6801 0.32903 0.0
C579 C 0.40107 0.67479 0.24025 0.0
C580 C 0.38676 0.67639 0.27143 0.0
H581 H 0.31689 0.71569 0.40157 0.0
H582 H 0.34253 0.7126 0.35492 0.0
H583 H 0.34445 0.65787 0.29787 0.0
H584 H 0.42076 0.64205 0.18058 0.0
H585 H 0.3992 0.64431 0.2352 0.0
C586 C 0.72713 0.84356 0.88908 0.0
C587 C 0.74235 0.85101 0.91019 0.0
C588 C 0.71716 0.85486 0.8629 0.0
C589 C 0.70845 0.90474 0.83513 0.0
H590 H 0.69779 0.88359 0.73406 0.0
C591 C 0.69356 0.95038 0.70025 0.0
C592 C 0.68027 0.94393 0.67314 0.0
C593 C 0.69854 0.93923 0.73203 0.0
C594 C 0.70036 0.88964 0.76234 0.0
H595 H 0.75867 0.87637 0.92099 0.0
H596 H 0.7415 0.8959 0.87514 0.0
H597 H 0.71117 0.8636 0.78446 0.0
H598 H 0.6611 0.9211 0.65927 0.0
H599 H 0.66986 0.9016 0.71473 0.0
H600 H 0.69805 0.93091 0.81261 0.0
C601 C 0.7371 0.8814 0.87908 0.0
C602 C 0.70803 0.87817 0.79126 0.0
C603 C 0.74706 0.87012 0.90518 0.0
C604 C 0.67163 0.92633 0.67926 0.0
C605 C 0.67664 0.91517 0.71102 0.0
C606 C 0.70081 0.91622 0.80618 0.0
C607 C 0.72215 0.87387 0.85734 0.0
C608 C 0.71245 0.88566 0.82781 0.0
C609 C 0.69037 0.92136 0.73744 0.0
C610 C 0.69694 0.90887 0.76927 0.0
H611 H 0.72304 0.82893 0.89241 0.0
H612 H 0.70557 0.8487 0.84694 0.0
H613 H 0.71138 0.91087 0.8632 0.0
H614 H 0.70068 0.96374 0.69613 0.0
H615 H 0.70935 0.94431 0.75155 0.0
C616 C 0.81452 0.81892 0.87391 0.0
C617 C 0.81645 0.82526 0.91224 0.0
C618 C 0.82876 0.82202 0.847 0.0
C619 C 0.87885 0.83124 0.83442 0.0
H620 H 0.86265 0.85145 0.73544 0.0
C621 C 0.93063 0.84883 0.70881 0.0
C622 C 0.92445 0.84373 0.67158 0.0
C623 C 0.91835 0.84776 0.74041 0.0
C624 C 0.86741 0.84565 0.76277 0.0
H625 H 0.83527 0.83916 0.9527 0.0
H626 H 0.86038 0.84441 0.90532 0.0
H627 H 0.83976 0.84691 0.78684 0.0
H628 H 0.90089 0.83274 0.63862 0.0
H629 H 0.87967 0.83073 0.69336 0.0
H630 H 0.90648 0.82951 0.80983 0.0
C631 C 0.84769 0.83715 0.89634 0.0
C632 C 0.8543 0.84311 0.79223 0.0
C633 C 0.83331 0.83419 0.92335 0.0
C634 C 0.90593 0.83722 0.66675 0.0
C635 C 0.89375 0.83609 0.69817 0.0
C636 C 0.89202 0.83367 0.80471 0.0
C637 C 0.84536 0.8314 0.85774 0.0
C638 C 0.85979 0.83553 0.82806 0.0
C639 C 0.89971 0.84152 0.73533 0.0
C640 C 0.88634 0.84053 0.76828 0.0
H641 H 0.80182 0.81188 0.86432 0.0
H642 H 0.82673 0.81716 0.81758 0.0
H643 H 0.88343 0.82535 0.86181 0.0
H644 H 0.94482 0.85394 0.71336 0.0
H645 H 0.92334 0.85213 0.76864 0.0
C646 C 0.76352 0.37089 0.42586 0.0
C647 C 0.75734 0.35275 0.41533 0.0
C648 C 0.7722 0.38267 0.39857 0.0
C649 C 0.77371 0.39035 0.29374 0.0
H650 H 0.81929 0.41892 0.31306 0.0
C651 C 0.81279 0.42637 0.16955 0.0
C652 C 0.82009 0.44457 0.17553 0.0
C653 C 0.80608 0.41568 0.2005 0.0
C654 C 0.80643 0.41121 0.30739 0.0
H655 H 0.7562 0.33252 0.36822 0.0
H656 H 0.77117 0.35298 0.32107 0.0
H657 H 0.80582 0.39946 0.36472 0.0
H658 H 0.82656 0.46552 0.21929 0.0
H659 H 0.81432 0.44699 0.27335 0.0
H660 H 0.77404 0.40207 0.23684 0.0
C661 C 0.7691 0.35822 0.35019 0.0
C662 C 0.79874 0.40007 0.33694 0.0
C663 C 0.76058 0.34646 0.37735 0.0
C664 C 0.82084 0.45164 0.21354 0.0
C665 C 0.81401 0.44094 0.24461 0.0
C666 C 0.78128 0.40152 0.26442 0.0
C667 C 0.77471 0.37655 0.36026 0.0
C668 C 0.78247 0.38929 0.33015 0.0
C669 C 0.80628 0.42294 0.23833 0.0
C670 C 0.7979 0.41185 0.27059 0.0
H671 H 0.76133 0.37614 0.45491 0.0
H672 H 0.77638 0.39676 0.40709 0.0
H673 H 0.76092 0.38253 0.28791 0.0
H674 H 0.81171 0.4205 0.14073 0.0
H675 H 0.80057 0.40173 0.19466 0.0
C676 C 0.16923 0.17556 0.92141 0.0
C677 C 0.18621 0.18421 0.91021 0.0
C678 C 0.15475 0.1728 0.8944 0.0
C679 C 0.14775 0.1671 0.79019 0.0
H680 H 0.09592 0.1818 0.80784 0.0
C681 C 0.09619 0.17513 0.66467 0.0
C682 C 0.07759 0.1688 0.66911 0.0
C683 C 0.10838 0.17581 0.69624 0.0
C684 C 0.11028 0.17734 0.80272 0.0
H685 H 0.20099 0.19723 0.8621 0.0
H686 H 0.17592 0.19229 0.8154 0.0
H687 H 0.11916 0.18521 0.85992 0.0
H688 H 0.05707 0.15851 0.71038 0.0
H689 H 0.07857 0.15958 0.76595 0.0
H690 H 0.13912 0.15927 0.73324 0.0
C691 C 0.17386 0.1875 0.84487 0.0
C692 C 0.12355 0.17933 0.83248 0.0
C693 C 0.18819 0.19041 0.87177 0.0
C694 C 0.07133 0.16349 0.70613 0.0
C695 C 0.08361 0.16412 0.73789 0.0
C696 C 0.13454 0.16501 0.76067 0.0
C697 C 0.15711 0.17845 0.85572 0.0
C698 C 0.1425 0.17465 0.82609 0.0
C699 C 0.10234 0.17012 0.73315 0.0
C700 C 0.11575 0.17056 0.76619 0.0
H701 H 0.16723 0.17071 0.95084 0.0
H702 H 0.14195 0.16579 0.90347 0.0
H703 H 0.1622 0.16301 0.78476 0.0
H704 H 0.1013 0.17978 0.63672 0.0
H705 H 0.12254 0.181 0.69173 0.0
C706 C 0.2426 0.63354 0.42915 0.0
C707 C 0.24259 0.65303 0.42146 0.0
C708 C 0.23318 0.62106 0.40451 0.0
C709 C 0.19599 0.61778 0.33094 0.0
H710 H 0.22542 0.57643 0.28975 0.0
C711 C 0.17464 0.57829 0.19223 0.0
C712 C 0.17997 0.55934 0.18734 0.0
C713 C 0.18019 0.58835 0.22502 0.0
C714 C 0.21678 0.5876 0.30151 0.0
H715 H 0.23208 0.67476 0.3828 0.0
H716 H 0.21541 0.65295 0.34013 0.0
H717 H 0.23882 0.59656 0.33968 0.0
H718 H 0.19456 0.53588 0.21443 0.0
H719 H 0.20347 0.55315 0.27243 0.0
H720 H 0.17389 0.60886 0.29306 0.0
C721 C 0.22279 0.64736 0.3651 0.0
C722 C 0.22454 0.5992 0.33004 0.0
C723 C 0.23244 0.65982 0.38937 0.0
C724 C 0.19011 0.55042 0.21719 0.0
C725 C 0.19548 0.56043 0.25026 0.0
C726 C 0.18811 0.60602 0.30279 0.0
C727 C 0.2233 0.62785 0.37211 0.0
C728 C 0.21435 0.6146 0.3445 0.0
C729 C 0.19101 0.57967 0.25418 0.0
C730 C 0.19854 0.59099 0.28709 0.0
H731 H 0.25027 0.62786 0.45365 0.0
H732 H 0.23369 0.60609 0.41067 0.0
H733 H 0.18776 0.62944 0.34197 0.0
H734 H 0.16649 0.58554 0.17026 0.0
H735 H 0.17657 0.60316 0.22666 0.0
C736 C 0.31479 0.69279 0.62526 0.0
C737 C 0.31642 0.68564 0.58749 0.0
C738 C 0.32912 0.69006 0.65223 0.0
C739 C 0.37906 0.68026 0.66558 0.0
H740 H 0.36262 0.66179 0.76567 0.0
C741 C 0.43048 0.66347 0.79291 0.0
C742 C 0.42436 0.66917 0.82974 0.0
C743 C 0.41829 0.66443 0.76103 0.0
C744 C 0.36745 0.6671 0.73801 0.0
H745 H 0.33488 0.67077 0.54798 0.0
H746 H 0.36017 0.66616 0.59549 0.0
H747 H 0.33977 0.66588 0.71383 0.0
H748 H 0.40104 0.6812 0.86166 0.0
H749 H 0.37997 0.68303 0.80643 0.0
H750 H 0.40673 0.68196 0.69029 0.0
C751 C 0.34762 0.67375 0.60398 0.0
C752 C 0.35436 0.66939 0.70832 0.0
C753 C 0.33313 0.67635 0.5769 0.0
C754 C 0.40602 0.67625 0.83387 0.0
C755 C 0.39393 0.67727 0.80217 0.0
C756 C 0.39221 0.6781 0.69554 0.0
C757 C 0.34553 0.68024 0.64211 0.0
C758 C 0.35995 0.67635 0.67208 0.0
C759 C 0.3998 0.67117 0.76546 0.0
C760 C 0.38644 0.67188 0.73234 0.0
H761 H 0.30222 0.70016 0.63441 0.0
H762 H 0.3273 0.6955 0.68126 0.0
H763 H 0.3837 0.68567 0.63786 0.0
H764 H 0.44454 0.65793 0.78893 0.0
H765 H 0.4232 0.65955 0.73315 0.0
C766 C 0.74414 0.87425 0.07825 0.0
C767 C 0.74338 0.85453 0.08192 0.0
C768 C 0.73486 0.88582 0.10487 0.0
C769 C 0.71526 0.88401 0.20443 0.0
H770 H 0.69474 0.93299 0.17746 0.0
C771 C 0.67467 0.92843 0.31475 0.0
C772 C 0.68132 0.94696 0.31969 0.0
C773 C 0.68025 0.9177 0.28297 0.0
C774 C 0.70046 0.91935 0.18531 0.0
H775 H 0.73138 0.83143 0.11477 0.0
H776 H 0.71458 0.85146 0.16008 0.0
H777 H 0.70788 0.91289 0.1268 0.0
H778 H 0.69841 0.96899 0.29382 0.0
H779 H 0.70782 0.95029 0.23779 0.0
H780 H 0.70763 0.89039 0.26278 0.0
C781 C 0.72294 0.85812 0.13775 0.0
C782 C 0.70807 0.90785 0.15638 0.0
C783 C 0.73247 0.8466 0.1116 0.0
C784 C 0.69287 0.95484 0.29083 0.0
C785 C 0.69831 0.94413 0.25876 0.0
C786 C 0.70745 0.89536 0.23312 0.0
C787 C 0.72436 0.87789 0.13537 0.0
C788 C 0.71565 0.89004 0.16561 0.0
C789 C 0.69244 0.9253 0.25509 0.0
C790 C 0.70003 0.91316 0.22393 0.0
H791 H 0.75249 0.88077 0.0557 0.0
H792 H 0.73646 0.90095 0.10226 0.0
H793 H 0.72139 0.87065 0.21297 0.0
H794 H 0.66539 0.92205 0.33587 0.0
H795 H 0.67528 0.9033 0.2805 0.0
C796 C 0.66926 0.33532 0.57938 0.0
C797 C 0.68594 0.32594 0.59014 0.0
C798 C 0.65498 0.33836 0.60656 0.0
C799 C 0.64837 0.34333 0.71098 0.0
H800 H 0.59605 0.33057 0.69252 0.0
C801 C 0.59645 0.33663 0.83593 0.0
C802 C 0.57803 0.34345 0.83123 0.0
C803 C 0.60867 0.33568 0.80453 0.0
C804 C 0.61054 0.33449 0.69789 0.0
H805 H 0.70041 0.31202 0.6377 0.0
H806 H 0.67569 0.31746 0.68474 0.0
H807 H 0.61911 0.32678 0.64049 0.0
H808 H 0.55787 0.35437 0.78973 0.0
H809 H 0.57941 0.35288 0.73452 0.0
H810 H 0.64004 0.35106 0.7681 0.0
C811 C 0.67371 0.32257 0.65545 0.0
C812 C 0.62372 0.33229 0.66815 0.0
C813 C 0.68783 0.31937 0.62836 0.0
C814 C 0.57198 0.34901 0.79416 0.0
C815 C 0.58429 0.34813 0.7626 0.0
C816 C 0.63524 0.34566 0.74048 0.0
C817 C 0.65725 0.33228 0.64501 0.0
C818 C 0.64283 0.33627 0.67478 0.0
C819 C 0.60284 0.3416 0.76756 0.0
C820 C 0.61626 0.34083 0.73466 0.0
H821 H 0.66733 0.34047 0.55012 0.0
H822 H 0.64241 0.34589 0.5978 0.0
H823 H 0.66295 0.34688 0.71661 0.0
H824 H 0.60139 0.3318 0.86392 0.0
H825 H 0.62267 0.3301 0.80922 0.0
C826 C 0.26318 0.13775 0.07473 0.0
C827 C 0.25727 0.156 0.08512 0.0
C828 C 0.27155 0.12584 0.10223 0.0
C829 C 0.27246 0.11789 0.20686 0.0
H830 H 0.31829 0.08956 0.18909 0.0
C831 C 0.31101 0.08196 0.33224 0.0
C832 C 0.31872 0.06393 0.32637 0.0
C833 C 0.30426 0.09256 0.30115 0.0
C834 C 0.30534 0.09718 0.19432 0.0
H835 H 0.25616 0.1762 0.13227 0.0
H836 H 0.27056 0.15546 0.17983 0.0
H837 H 0.3051 0.10906 0.1371 0.0
H838 H 0.32577 0.04316 0.2827 0.0
H839 H 0.31343 0.06151 0.22839 0.0
H840 H 0.2724 0.10602 0.26364 0.0
C841 C 0.26857 0.1503 0.15061 0.0
C842 C 0.29783 0.10836 0.16457 0.0
C843 C 0.26039 0.16221 0.12322 0.0
C844 C 0.31974 0.0569 0.28836 0.0
C845 C 0.31285 0.06751 0.25716 0.0
C846 C 0.27984 0.10667 0.23636 0.0
C847 C 0.27398 0.1319 0.14062 0.0
C848 C 0.28149 0.11906 0.17084 0.0
C849 C 0.30481 0.08537 0.26329 0.0
C850 C 0.29656 0.09643 0.23076 0.0
H851 H 0.26107 0.13257 0.04558 0.0
H852 H 0.27558 0.1117 0.09379 0.0
H853 H 0.25962 0.12568 0.21224 0.0
H854 H 0.3097 0.08777 0.36106 0.0
H855 H 0.29849 0.1064 0.30691 0.0
C856 C 0.20481 0.26202 0.96003 0.0
C857 C 0.21377 0.25447 0.99295 0.0
C858 C 0.19892 0.2809 0.95949 0.0
C859 C 0.20979 0.3263 0.00549 0.0
H860 H 0.16122 0.34263 0.96669 0.0
C861 C 0.18409 0.40205 0.02887 0.0
C862 C 0.17479 0.41116 0.99813 0.0
C863 C 0.18784 0.38274 0.02734 0.0
C864 C 0.17492 0.33832 0.9772 0.0
H865 H 0.22283 0.26071 0.05164 0.0
H866 H 0.21262 0.29336 0.05056 0.0
H867 H 0.16954 0.30913 0.96493 0.0
H868 H 0.16164 0.40686 0.94211 0.0
H869 H 0.16865 0.3732 0.93899 0.0
H870 H 0.21539 0.3553 0.01747 0.0
C871 C 0.21039 0.28483 0.02498 0.0
C872 C 0.17967 0.31914 0.97621 0.0
C873 C 0.21617 0.26605 0.0256 0.0
C874 C 0.16904 0.40036 0.96609 0.0
C875 C 0.17287 0.38101 0.96449 0.0
C876 C 0.20512 0.3454 0.00631 0.0
C877 C 0.20199 0.29257 0.99176 0.0
C878 C 0.19707 0.31293 0.99083 0.0
C879 C 0.18252 0.37201 0.99491 0.0
C880 C 0.18754 0.35165 0.99266 0.0
H881 H 0.20267 0.25348 0.93444 0.0
H882 H 0.1925 0.2865 0.93345 0.0
H883 H 0.22348 0.322 0.01622 0.0
H884 H 0.18893 0.4099 0.05382 0.0
H885 H 0.19501 0.37623 0.05161 0.0
C886 C 0.2027 0.72061 0.46783 0.0
C887 C 0.21524 0.72367 0.49872 0.0
C888 C 0.1849 0.72904 0.46774 0.0
C889 C 0.15918 0.76924 0.50906 0.0
H890 H 0.11454 0.74116 0.47995 0.0
C891 C 0.08457 0.79924 0.53044 0.0
C892 C 0.0713 0.79595 0.50098 0.0
C893 C 0.10204 0.79022 0.52986 0.0
C894 C 0.1269 0.74927 0.4877 0.0
H895 H 0.21872 0.7377 0.55412 0.0
H896 H 0.18777 0.75228 0.55389 0.0
H897 H 0.1452 0.72565 0.47897 0.0
H898 H 0.06592 0.78035 0.44813 0.0
H899 H 0.09657 0.76505 0.44655 0.0
H900 H 0.141 0.79289 0.51755 0.0
C901 C 0.19177 0.74357 0.52953 0.0
C902 C 0.14444 0.74037 0.48716 0.0
C903 C 0.20948 0.7351 0.52973 0.0
C904 C 0.07591 0.7834 0.471 0.0
C905 C 0.09339 0.77443 0.47036 0.0
C906 C 0.14168 0.77816 0.50946 0.0
C907 C 0.17935 0.74076 0.49843 0.0
C908 C 0.16075 0.75024 0.49804 0.0
C909 C 0.10667 0.77773 0.49976 0.0
C910 C 0.12531 0.76826 0.49896 0.0
H911 H 0.20668 0.71185 0.44354 0.0
H912 H 0.17564 0.72671 0.44327 0.0
H913 H 0.17155 0.77731 0.51698 0.0
H914 H 0.08153 0.80894 0.55377 0.0
H915 H 0.11187 0.79291 0.55321 0.0
C916 C 0.79774 0.74769 0.96523 0.0
C917 C 0.78886 0.75544 0.9979 0.0
C918 C 0.80312 0.72868 0.96486 0.0
C919 C 0.79074 0.6835 0.01026 0.0
H920 H 0.8385 0.66579 0.97033 0.0
C921 C 0.81376 0.60639 0.02913 0.0
C922 C 0.82287 0.59751 0.99802 0.0
C923 C 0.8105 0.62581 0.02863 0.0
C924 C 0.825 0.67049 0.98115 0.0
H925 H 0.77947 0.7494 0.0564 0.0
H926 H 0.78884 0.71646 0.05563 0.0
H927 H 0.83148 0.69957 0.97008 0.0
H928 H 0.83604 0.6023 0.94227 0.0
H929 H 0.82983 0.63613 0.9409 0.0
H930 H 0.78405 0.65459 0.02091 0.0
C931 C 0.79138 0.72497 0.03011 0.0
C932 C 0.82101 0.68983 0.98105 0.0
C933 C 0.7861 0.74391 0.03058 0.0
C934 C 0.82878 0.60862 0.96652 0.0
C935 C 0.82543 0.62807 0.96595 0.0
C936 C 0.79466 0.66422 0.01015 0.0
C937 C 0.79965 0.71704 0.99705 0.0
C938 C 0.8039 0.69654 0.99598 0.0
C939 C 0.81612 0.63688 0.99689 0.0
C940 C 0.81191 0.65745 0.99595 0.0
H941 H 0.80015 0.75617 0.93962 0.0
H942 H 0.80943 0.72294 0.93892 0.0
H943 H 0.77726 0.68819 0.02121 0.0
H944 H 0.80881 0.5983 0.05368 0.0
H945 H 0.80355 0.63214 0.05325 0.0
C946 C 0.79592 0.28604 0.46526 0.0
C947 C 0.78357 0.28269 0.49623 0.0
C948 C 0.81379 0.27778 0.46482 0.0
C949 C 0.84064 0.23798 0.50547 0.0
H950 H 0.88436 0.26766 0.47734 0.0
C951 C 0.91632 0.21037 0.52672 0.0
C952 C 0.92945 0.21439 0.49749 0.0
C953 C 0.89851 0.21872 0.52615 0.0
C954 C 0.87227 0.25911 0.4848 0.0
H955 H 0.78038 0.26811 0.55117 0.0
H956 H 0.81147 0.25379 0.55031 0.0
H957 H 0.85325 0.28219 0.47644 0.0
H958 H 0.93422 0.23055 0.44504 0.0
H959 H 0.90302 0.24467 0.44348 0.0
H960 H 0.85957 0.21486 0.51362 0.0
C961 C 0.80728 0.26264 0.52621 0.0
C962 C 0.85446 0.26744 0.4843 0.0
C963 C 0.7895 0.27096 0.52677 0.0
C964 C 0.92436 0.22695 0.46773 0.0
C965 C 0.90655 0.23525 0.46711 0.0
C966 C 0.85843 0.22962 0.50582 0.0
C967 C 0.81961 0.26592 0.49522 0.0
C968 C 0.83847 0.25699 0.4948 0.0
C969 C 0.89341 0.23124 0.49631 0.0
C970 C 0.87447 0.2401 0.49563 0.0
H971 H 0.79181 0.29503 0.44131 0.0
H972 H 0.82295 0.28044 0.4404 0.0
H973 H 0.82853 0.22948 0.51316 0.0
H974 H 0.91972 0.20063 0.54986 0.0
H975 H 0.88879 0.21549 0.54934 0.0
C976 C 0.71216 0.2437 0.46981 0.0
C977 C 0.71015 0.25503 0.50292 0.0
C978 C 0.70636 0.22492 0.47008 0.0
C979 C 0.67646 0.19006 0.51924 0.0
H980 H 0.71252 0.15444 0.47762 0.0
C981 C 0.66751 0.1088 0.53183 0.0
C982 C 0.67342 0.09779 0.50026 0.0
C983 C 0.6709 0.12824 0.53257 0.0
C984 C 0.70214 0.16418 0.48883 0.0
H985 H 0.69959 0.25564 0.56177 0.0
H986 H 0.68936 0.22264 0.56211 0.0
H987 H 0.71998 0.18789 0.47814 0.0
H988 H 0.68734 0.0988 0.44445 0.0
H989 H 0.6926 0.13263 0.4451 0.0
H990 H 0.65853 0.16628 0.52956 0.0
C991 C 0.69551 0.22842 0.53601 0.0
C992 C 0.70646 0.18337 0.48924 0.0
C993 C 0.70143 0.24729 0.53584 0.0
C994 C 0.68239 0.1068 0.46907 0.0
C995 C 0.68567 0.12621 0.46971 0.0
C996 C 0.67206 0.1708 0.51861 0.0
C997 C 0.6983 0.21696 0.50337 0.0
C998 C 0.69364 0.19654 0.50415 0.0
C999 C 0.68023 0.13715 0.5017 0.0
C1000 C 0.68481 0.15764 0.50311 0.0
H1001 H 0.71862 0.2492 0.44377 0.0
H1002 H 0.70837 0.21654 0.44424 0.0
H1003 H 0.66627 0.19991 0.53072 0.0
H1004 H 0.66033 0.10239 0.55613 0.0
H1005 H 0.66661 0.13619 0.55777 0.0
C1006 C 0.29234 0.23544 0.96913 0.0
C1007 C 0.28617 0.22452 0.00066 0.0
C1008 C 0.31005 0.24393 0.96968 0.0
C1009 C 0.35681 0.24139 0.01476 0.0
H1010 H 0.36074 0.29341 0.98075 0.0
C1011 C 0.42534 0.28443 0.03096 0.0
C1012 C 0.43031 0.29655 0.00037 0.0
C1013 C 0.40781 0.27554 0.03145 0.0
C1014 C 0.35994 0.27881 0.98987 0.0
H1015 H 0.29398 0.21365 0.0572 0.0
H1016 H 0.32501 0.22853 0.05806 0.0
H1017 H 0.33016 0.27788 0.98088 0.0
H1018 H 0.42065 0.30885 0.94635 0.0
H1019 H 0.39025 0.29293 0.94667 0.0
H1020 H 0.38662 0.24225 0.02338 0.0
C1021 C 0.31608 0.23045 0.03292 0.0
C1022 C 0.34241 0.26993 0.99003 0.0
C1023 C 0.29828 0.22201 0.03248 0.0
C1024 C 0.41735 0.29948 0.97017 0.0
C1025 C 0.39983 0.29053 0.97061 0.0
C1026 C 0.37438 0.25025 0.01444 0.0
C1027 C 0.32206 0.24164 0.00165 0.0
C1028 C 0.34066 0.25111 0.00233 0.0
C1029 C 0.39484 0.27848 0.00129 0.0
C1030 C 0.37616 0.26906 0.00189 0.0
H1031 H 0.28344 0.23762 0.94404 0.0
H1032 H 0.31438 0.25223 0.9449 0.0
H1033 H 0.35592 0.22681 0.02397 0.0
H1034 H 0.43508 0.28166 0.05443 0.0
H1035 H 0.40436 0.26651 0.05573 0.0
C1036 C 0.28384 0.7655 0.46781 0.0
C1037 C 0.28746 0.75388 0.5 0.0
C1038 C 0.28949 0.78436 0.4677 0.0
C1039 C 0.3215 0.81861 0.51378 0.0
H1040 H 0.28466 0.85508 0.47811 0.0
C1041 C 0.33161 0.89939 0.53097 0.0
C1042 C 0.32537 0.91097 0.50044 0.0
C1043 C 0.32779 0.88002 0.53091 0.0
C1044 C 0.29523 0.8451 0.48767 0.0
H1045 H 0.30052 0.75289 0.5568 0.0
H1046 H 0.31038 0.7859 0.55653 0.0
H1047 H 0.27693 0.82166 0.47757 0.0
H1048 H 0.31018 0.91114 0.44587 0.0
H1049 H 0.30407 0.87744 0.44519 0.0
H1050 H 0.33985 0.8421 0.52368 0.0
C1051 C 0.30317 0.78034 0.53138 0.0
C1052 C 0.29078 0.82592 0.4874 0.0
C1053 C 0.29744 0.76144 0.53158 0.0
C1054 C 0.31542 0.90266 0.46965 0.0
C1055 C 0.31167 0.88333 0.46952 0.0
C1056 C 0.32601 0.83784 0.51388 0.0
C1057 C 0.29898 0.79207 0.49968 0.0
C1058 C 0.30387 0.81245 0.5003 0.0
C1059 C 0.31764 0.87178 0.50031 0.0
C1060 C 0.31294 0.85131 0.50067 0.0
H1061 H 0.27631 0.76014 0.44284 0.0
H1062 H 0.28633 0.79295 0.44256 0.0
H1063 H 0.33194 0.80855 0.52361 0.0
H1064 H 0.33949 0.90527 0.55494 0.0
H1065 H 0.33247 0.87158 0.55524 0.0
C1066 C 0.70417 0.78821 0.03337 0.0
C1067 C 0.71656 0.78499 0.00242 0.0
C1068 C 0.68632 0.77989 0.03369 0.0
C1069 C 0.65996 0.73987 0.9931 0.0
H1070 H 0.61584 0.76874 0.02189 0.0
C1071 C 0.58475 0.71099 0.97273 0.0
C1072 C 0.57161 0.71471 0.00207 0.0
C1073 C 0.60241 0.71965 0.97314 0.0
C1074 C 0.62805 0.76041 0.01425 0.0
H1075 H 0.71978 0.77072 0.94727 0.0
H1076 H 0.68873 0.7563 0.94792 0.0
H1077 H 0.64672 0.78381 0.02238 0.0
H1078 H 0.56668 0.73066 0.05461 0.0
H1079 H 0.59764 0.74533 0.0559 0.0
H1080 H 0.6414 0.71645 0.98521 0.0
C1081 C 0.69288 0.76508 0.97211 0.0
C1082 C 0.64572 0.76906 0.0145 0.0
C1083 C 0.71064 0.77345 0.97166 0.0
C1084 C 0.57655 0.72729 0.03183 0.0
C1085 C 0.59422 0.7359 0.03229 0.0
C1086 C 0.64232 0.73121 0.99301 0.0
C1087 C 0.68057 0.76812 0.00319 0.0
C1088 C 0.66184 0.7589 0.00375 0.0
C1089 C 0.60735 0.7322 0.00294 0.0
C1090 C 0.62614 0.74139 0.00342 0.0
H1091 H 0.70827 0.79706 0.05747 0.0
H1092 H 0.67717 0.78239 0.05816 0.0
H1093 H 0.67218 0.7316 0.98526 0.0
H1094 H 0.58147 0.70123 0.94959 0.0
H1095 H 0.61212 0.71665 0.94984 0.0
loop_
_geom_bond_atom_site_label_1
_geom_bond_atom_site_label_2
_geom_bond_distance
_geom_bond_site_symmetry_2
_ccdc_geom_bond_type
Fe0 O2 1.918 . S
Fe0 O5 1.997 . S
Fe0 O6 2.002 . S
Fe0 O11 1.976 . S
Fe0 O14 1.996 . S
Fe1 O2 1.918 1_556 S
Fe1 O9 1.997 . S
Fe1 O12 1.996 . S
Fe1 O16 1.976 . S
Fe1 O19 2.002 . S
O2 Fe0 1.918 . S
O2 Fe1 1.918 1_554 S
O2 Fe3 1.919 . S
Fe3 O2 1.919 . S
Fe3 O4 2.021 . S
Fe3 O13 1.994 . S
Fe3 O17 1.977 1_554 S
Fe3 O20 1.978 1_554 S
O4 Fe3 2.021 . S
O4 C21 1.295 . S
O5 Fe0 1.997 . S
O5 C21 1.235 . S
O6 Fe0 2.002 . S
O6 C7 1.295 . S
C7 O6 1.295 . S
C7 O9 1.235 1_554 S
C8 O13 1.287 . S
C8 O14 1.255 . S
O9 Fe1 1.997 . S
O9 C7 1.235 1_556 S
C10 O16 1.287 . S
C10 O17 1.255 . S
O11 Fe0 1.976 . S
O11 C18 1.286 . S
O12 Fe1 1.996 . S
O12 C18 1.255 1_556 S
O13 Fe3 1.994 . S
O13 C8 1.287 . S
O14 Fe0 1.996 . S
O14 C8 1.255 . S
C15 O19 1.295 . S
C15 O20 1.235 . S
O16 Fe1 1.976 . S
O16 C10 1.287 . S
O17 Fe3 1.977 1_556 S
O17 C10 1.255 . S
C18 O11 1.286 . S
C18 O12 1.255 1_554 S
O19 Fe1 2.002 . S
O19 C15 1.295 . S
O20 Fe3 1.978 1_556 S
O20 C15 1.235 . S
C21 O4 1.295 . S
C21 O5 1.235 . S
Fe22 O24 1.918 . S
Fe22 O27 1.997 . S
Fe22 O28 2.002 . S
Fe22 O33 1.976 . S
Fe22 O36 1.996 . S
Fe23 O24 1.918 . S
Fe23 O31 1.997 . S
Fe23 O34 1.996 . S
Fe23 O38 1.976 . S
Fe23 O41 2.002 . S
O24 Fe22 1.918 . S
O24 Fe23 1.918 . S
O24 Fe25 1.918 . S
Fe25 O24 1.918 . S
Fe25 O26 2.002 . S
Fe25 O35 1.976 . S
Fe25 O39 1.996 . S
Fe25 O42 1.997 . S
O26 Fe25 2.002 . S
O26 C43 1.295 . S
O27 Fe22 1.997 . S
O27 C43 1.235 . S
O28 Fe22 2.002 . S
O28 C29 1.295 . S
C29 O28 1.295 . S
C29 O31 1.235 . S
C30 O35 1.287 . S
C30 O36 1.255 . S
O31 Fe23 1.997 . S
O31 C29 1.235 . S
C32 O38 1.287 . S
C32 O39 1.255 . S
O33 Fe22 1.976 . S
O33 C40 1.287 . S
O34 Fe23 1.996 . S
O34 C40 1.255 . S
O35 Fe25 1.976 . S
O35 C30 1.287 . S
O36 Fe22 1.996 . S
O36 C30 1.255 . S
C37 O41 1.295 . S
C37 O42 1.235 . S
O38 Fe23 1.976 . S
O38 C32 1.287 . S
O39 Fe25 1.996 . S
O39 C32 1.255 . S
C40 O33 1.287 . S
C40 O34 1.255 . S
O41 Fe23 2.002 . S
O41 C37 1.295 . S
O42 Fe25 1.997 . S
O42 C37 1.235 . S
C43 O26 1.295 . S
C43 O27 1.235 . S
Fe44 O46 1.897 1_556 S
Fe44 O49 1.997 . S
Fe44 O50 2.002 . S
Fe44 O55 1.976 . S
Fe44 O58 1.996 . S
Fe45 O46 1.939 . S
Fe45 O53 1.997 . S
Fe45 O56 1.996 . S
Fe45 O60 1.976 . S
Fe45 O63 2.002 . S
O46 Fe44 1.897 1_554 S
O46 Fe45 1.939 . S
O46 Fe47 1.918 . S
Fe47 O46 1.918 . S
Fe47 O48 2.002 1_554 S
Fe47 O57 1.976 1_554 S
Fe47 O61 1.996 . S
Fe47 O64 1.997 . S
O48 Fe47 2.002 1_556 S
O48 C65 1.295 . S
O49 Fe44 1.997 . S
O49 C65 1.235 . S
O50 Fe44 2.002 . S
O50 C51 1.299 . S
C51 O50 1.299 . S
C51 O53 1.231 1_556 S
C52 O57 1.287 . S
C52 O58 1.255 . S
O53 Fe45 1.997 . S
O53 C51 1.231 1_554 S
C54 O60 1.287 . S
C54 O61 1.255 . S
O55 Fe44 1.976 . S
O55 C62 1.287 1_556 S
O56 Fe45 1.996 . S
O56 C62 1.255 . S
O57 Fe47 1.976 1_556 S
O57 C52 1.287 . S
O58 Fe44 1.996 . S
O58 C52 1.255 . S
C59 O63 1.295 . S
C59 O64 1.235 . S
O60 Fe45 1.976 . S
O60 C54 1.287 . S
O61 Fe47 1.996 . S
O61 C54 1.255 . S
C62 O55 1.287 1_554 S
C62 O56 1.255 . S
O63 Fe45 2.002 . S
O63 C59 1.295 . S
O64 Fe47 1.997 . S
O64 C59 1.235 . S
C65 O48 1.295 . S
C65 O49 1.235 . S
Fe66 O68 1.918 . S
Fe66 O71 1.997 . S
Fe66 O72 2.002 . S
Fe66 O77 1.976 . S
Fe66 O80 1.996 . S
Fe67 O68 1.918 . S
Fe67 O75 1.997 . S
Fe67 O78 1.996 . S
Fe67 O82 1.976 . S
Fe67 O85 2.002 . S
O68 Fe66 1.918 . S
O68 Fe67 1.918 . S
O68 Fe69 1.918 . S
Fe69 O68 1.918 . S
Fe69 O70 2.002 . S
Fe69 O79 1.976 . S
Fe69 O83 1.996 . S
Fe69 O86 1.997 . S
O70 Fe69 2.002 . S
O70 C87 1.295 . S
O71 Fe66 1.997 . S
O71 C87 1.235 . S
O72 Fe66 2.002 . S
O72 C73 1.295 . S
C73 O72 1.295 . S
C73 O75 1.235 . S
C74 O79 1.287 . S
C74 O80 1.255 . S
O75 Fe67 1.997 . S
O75 C73 1.235 . S
C76 O82 1.287 . S
C76 O83 1.255 . S
O77 Fe66 1.976 . S
O77 C84 1.287 . S
O78 Fe67 1.996 . S
O78 C84 1.255 . S
O79 Fe69 1.976 . S
O79 C74 1.287 . S
O80 Fe66 1.996 . S
O80 C74 1.255 . S
C81 O85 1.295 . S
C81 O86 1.235 . S
O82 Fe67 1.976 . S
O82 C76 1.287 . S
O83 Fe69 1.996 . S
O83 C76 1.255 . S
C84 O77 1.287 . S
C84 O78 1.255 . S
O85 Fe67 2.002 . S
O85 C81 1.295 . S
O86 Fe69 1.997 . S
O86 C81 1.235 . S
C87 O70 1.295 . S
C87 O71 1.235 . S
C88 C89 1.384 . S
C88 H101 0.947 . S
C88 C123 1.382 . S
C89 C88 1.384 . S
C89 C90 1.378 . S
C90 C89 1.378 . S
C90 C91 1.378 . S
C90 H102 0.952 . S
C91 C90 1.378 . S
C91 H103 0.950 . S
C91 C122 1.383 . S
H92 C111 0.947 . S
H93 C112 0.946 . S
H94 C114 0.953 . S
H95 C115 0.945 . S
H96 C117 0.952 . S
H97 C118 0.949 . S
H98 C120 0.950 . S
H99 C121 0.948 . S
H100 C123 0.951 . S
H101 C88 0.947 . S
H102 C90 0.952 . S
H103 C91 0.950 . S
N104 C107 1.379 1_554 S
N104 C109 1.363 . S
N105 C107 1.374 . S
N105 C108 1.372 . S
N106 C108 1.361 . S
N106 C109 1.377 1_556 S
C107 N104 1.379 1_556 S
C107 N105 1.374 . S
C107 C110 1.480 . S
C108 N105 1.372 . S
C108 N106 1.361 . S
C108 C116 1.457 . S
C109 N104 1.363 . S
C109 N106 1.377 1_554 S
C109 C122 1.479 . S
C110 C107 1.480 . S
C110 C111 1.383 1_556 S
C110 C115 1.385 . S
C111 H92 0.947 . S
C111 C110 1.383 1_554 S
C111 C112 1.388 . S
C112 H93 0.946 . S
C112 C111 1.388 . S
C112 C113 1.384 1_554 S
C113 C112 1.384 1_556 S
C113 C114 1.377 . S
C114 H94 0.953 . S
C114 C113 1.377 . S
C114 C115 1.369 . S
C115 H95 0.945 . S
C115 C110 1.385 . S
C115 C114 1.369 . S
C116 C108 1.457 . S
C116 C117 1.372 . S
C116 C121 1.364 . S
C117 H96 0.952 . S
C117 C116 1.372 . S
C117 C118 1.389 . S
C118 H97 0.949 . S
C118 C117 1.389 . S
C118 C119 1.387 . S
C119 C118 1.387 . S
C119 C120 1.372 . S
C120 H98 0.950 . S
C120 C119 1.372 . S
C120 C121 1.379 . S
C121 H99 0.948 . S
C121 C116 1.364 . S
C121 C120 1.379 . S
C122 C91 1.383 . S
C122 C109 1.479 . S
C122 C123 1.398 . S
C123 C88 1.382 . S
C123 H100 0.951 . S
C123 C122 1.398 . S
C124 C125 1.384 . S
C124 H137 0.947 . S
C124 C159 1.382 . S
C125 C124 1.384 . S
C125 C126 1.378 . S
C126 C125 1.378 . S
C126 C127 1.378 . S
C126 H138 0.952 . S
C127 C126 1.378 . S
C127 H139 0.950 . S
C127 C158 1.383 . S
H128 C147 0.947 . S
H129 C148 0.946 . S
H130 C150 0.953 . S
H131 C151 0.945 . S
H132 C153 0.952 . S
H133 C154 0.949 . S
H134 C156 0.950 . S
H135 C157 0.948 . S
H136 C159 0.951 . S
H137 C124 0.947 . S
H138 C126 0.952 . S
H139 C127 0.950 . S
N140 C143 1.360 1_655 S
N140 C145 1.363 . S
N141 C143 1.349 1_655 S
N141 C144 1.372 . S
N142 C144 1.361 . S
N142 C145 1.377 . S
C143 N140 1.360 1_455 S
C143 N141 1.349 1_455 S
C143 C146 1.525 . S
C144 N141 1.372 . S
C144 N142 1.361 . S
C144 C152 1.457 . S
C145 N140 1.363 . S
C145 N142 1.377 . S
C145 C158 1.479 . S
C146 C143 1.525 . S
C146 C147 1.383 . S
C146 C151 1.385 . S
C147 H128 0.947 . S
C147 C146 1.383 . S
C147 C148 1.388 . S
C148 H129 0.946 . S
C148 C147 1.388 . S
C148 C149 1.384 . S
C149 C148 1.384 . S
C149 C150 1.377 . S
C150 H130 0.953 . S
C150 C149 1.377 . S
C150 C151 1.369 . S
C151 H131 0.945 . S
C151 C146 1.385 . S
C151 C150 1.369 . S
C152 C144 1.457 . S
C152 C153 1.372 . S
C152 C157 1.364 . S
C153 H132 0.952 . S
C153 C152 1.372 . S
C153 C154 1.389 . S
C154 H133 0.949 . S
C154 C153 1.389 . S
C154 C155 1.387 . S
C155 C154 1.387 . S
C155 C156 1.372 . S
C156 H134 0.950 . S
C156 C155 1.372 . S
C156 C157 1.379 . S
C157 H135 0.948 . S
C157 C152 1.364 . S
C157 C156 1.379 . S
C158 C127 1.383 . S
C158 C145 1.479 . S
C158 C159 1.398 . S
C159 C124 1.382 . S
C159 H136 0.951 . S
C159 C158 1.398 . S
C160 C161 1.384 . S
C160 H173 0.947 . S
C160 C195 1.382 . S
C161 C160 1.384 . S
C161 C162 1.378 . S
C162 C161 1.378 . S
C162 C163 1.378 . S
C162 H174 0.952 . S
C163 C162 1.378 . S
C163 H175 0.950 . S
C163 C194 1.383 . S
H164 C183 0.947 . S
H165 C184 0.946 . S
H166 C186 0.953 . S
H167 C187 0.945 . S
H168 C189 0.952 . S
H169 C190 0.949 . S
H170 C192 0.950 . S
H171 C193 0.948 . S
H172 C195 0.951 . S
H173 C160 0.947 . S
H174 C162 0.952 . S
H175 C163 0.950 . S
N176 C179 1.382 1_556 S
N176 C181 1.363 . S
N177 C179 1.371 . S
N177 C180 1.372 . S
N178 C180 1.361 . S
N178 C181 1.377 1_554 S
C179 N176 1.382 1_554 S
C179 N177 1.371 . S
C179 C182 1.480 . S
C180 N177 1.372 . S
C180 N178 1.361 . S
C180 C188 1.457 . S
C181 N176 1.363 . S
C181 N178 1.377 1_556 S
C181 C194 1.479 . S
C182 C179 1.480 . S
C182 C183 1.383 1_554 S
C182 C187 1.385 . S
C183 H164 0.947 . S
C183 C182 1.383 1_556 S
C183 C184 1.388 . S
C184 H165 0.946 . S
C184 C183 1.388 . S
C184 C185 1.384 1_556 S
C185 C184 1.384 1_554 S
C185 C186 1.377 . S
C186 H166 0.953 . S
C186 C185 1.377 . S
C186 C187 1.369 . S
C187 H167 0.945 . S
C187 C182 1.385 . S
C187 C186 1.369 . S
C188 C180 1.457 . S
C188 C189 1.372 . S
C188 C193 1.364 . S
C189 H168 0.952 . S
C189 C188 1.372 . S
C189 C190 1.389 . S
C190 H169 0.949 . S
C190 C189 1.389 . S
C190 C191 1.387 . S
C191 C190 1.387 . S
C191 C192 1.372 . S
C192 H170 0.950 . S
C192 C191 1.372 . S
C192 C193 1.379 . S
C193 H171 0.948 . S
C193 C188 1.364 . S
C193 C192 1.379 . S
C194 C163 1.383 . S
C194 C181 1.479 . S
C194 C195 1.398 . S
C195 C160 1.382 . S
C195 H172 0.951 . S
C195 C194 1.398 . S
C196 C197 1.384 . S
C196 H209 0.947 . S
C196 C231 1.382 . S
C197 C196 1.384 . S
C197 C198 1.378 . S
C198 C197 1.378 . S
C198 C199 1.378 . S
C198 H210 0.952 . S
C199 C198 1.378 . S
C199 H211 0.950 . S
C199 C230 1.383 . S
H200 C219 0.947 . S
H201 C220 0.946 . S
H202 C222 0.953 . S
H203 C223 0.945 . S
H204 C225 0.952 . S
H205 C226 0.949 . S
H206 C228 0.950 . S
H207 C229 0.948 . S
H208 C231 0.951 . S
H209 C196 0.947 . S
H210 C198 0.952 . S
H211 C199 0.950 . S
N212 C215 1.382 . S
N212 C217 1.363 . S
N213 C215 1.371 . S
N213 C216 1.372 . S
N214 C216 1.361 . S
N214 C217 1.377 . S
C215 N212 1.382 . S
C215 N213 1.371 . S
C215 C218 1.480 1_455 S
C216 N213 1.372 . S
C216 N214 1.361 . S
C216 C224 1.457 . S
C217 N212 1.363 . S
C217 N214 1.377 . S
C217 C230 1.479 . S
C218 C215 1.480 1_655 S
C218 C219 1.383 . S
C218 C223 1.385 . S
C219 H200 0.947 . S
C219 C218 1.383 . S
C219 C220 1.388 . S
C220 H201 0.946 . S
C220 C219 1.388 . S
C220 C221 1.384 . S
C221 C220 1.384 . S
C221 C222 1.377 . S
C222 H202 0.953 . S
C222 C221 1.377 . S
C222 C223 1.369 . S
C223 H203 0.945 . S
C223 C218 1.385 . S
C223 C222 1.369 . S
C224 C216 1.457 . S
C224 C225 1.372 . S
C224 C229 1.364 . S
C225 H204 0.952 . S
C225 C224 1.372 . S
C225 C226 1.389 . S
C226 H205 0.949 . S
C226 C225 1.389 . S
C226 C227 1.387 . S
C227 C226 1.387 . S
C227 C228 1.372 . S
C228 H206 0.950 . S
C228 C227 1.372 . S
C228 C229 1.379 . S
C229 H207 0.948 . S
C229 C224 1.364 . S
C229 C228 1.379 . S
C230 C199 1.383 . S
C230 C217 1.479 . S
C230 C231 1.398 . S
C231 C196 1.382 . S
C231 H208 0.951 . S
C231 C230 1.398 . S
C232 C233 1.384 . S
C232 H245 0.947 . S
C232 C267 1.382 . S
C233 C232 1.384 . S
C233 C234 1.378 . S
C234 C233 1.378 . S
C234 C235 1.378 . S
C234 H246 0.952 . S
C235 C234 1.378 . S
C235 H247 0.950 . S
C235 C266 1.383 . S
H236 C255 0.947 . S
H237 C256 0.946 . S
H238 C258 0.953 . S
H239 C259 0.945 . S
H240 C261 0.952 . S
H241 C262 0.949 . S
H242 C264 0.950 . S
H243 C265 0.948 . S
H244 C267 0.951 . S
H245 C232 0.947 . S
H246 C234 0.952 . S
H247 C235 0.950 . S
N248 C251 1.382 . S
N248 C253 1.363 1_545 S
N249 C251 1.371 . S
N249 C252 1.372 1_545 S
N250 C252 1.361 . S
N250 C253 1.377 . S
C251 N248 1.382 . S
C251 N249 1.371 . S
C251 C254 1.480 . S
C252 N249 1.372 1_565 S
C252 N250 1.361 . S
C252 C260 1.457 . S
C253 N248 1.363 1_565 S
C253 N250 1.377 . S
C253 C266 1.479 . S
C254 C251 1.480 . S
C254 C255 1.383 . S
C254 C259 1.385 . S
C255 H236 0.947 . S
C255 C254 1.383 . S
C255 C256 1.388 . S
C256 H237 0.946 . S
C256 C255 1.388 . S
C256 C257 1.384 . S
C257 C256 1.384 . S
C257 C258 1.377 . S
C258 H238 0.953 . S
C258 C257 1.377 . S
C258 C259 1.369 . S
C259 H239 0.945 . S
C259 C254 1.385 . S
C259 C258 1.369 . S
C260 C252 1.457 . S
C260 C261 1.372 . S
C260 C265 1.364 . S
C261 H240 0.952 . S
C261 C260 1.372 . S
C261 C262 1.389 . S
C262 H241 0.949 . S
C262 C261 1.389 . S
C262 C263 1.387 . S
C263 C262 1.387 . S
C263 C264 1.372 . S
C264 H242 0.950 . S
C264 C263 1.372 . S
C264 C265 1.379 . S
C265 H243 0.948 . S
C265 C260 1.364 . S
C265 C264 1.379 . S
C266 C235 1.383 . S
C266 C253 1.479 . S
C266 C267 1.398 . S
C267 C232 1.382 . S
C267 H244 0.951 . S
C267 C266 1.398 . S
C268 C269 1.384 . S
C268 H281 0.947 . S
C268 C303 1.382 . S
C269 C268 1.384 . S
C269 C270 1.378 . S
C270 C269 1.378 . S
C270 C271 1.378 . S
C270 H282 0.952 . S
C271 C270 1.378 . S
C271 H283 0.950 . S
C271 C302 1.383 . S
H272 C291 0.947 . S
H273 C292 0.946 . S
H274 C294 0.953 . S
H275 C295 0.945 . S
H276 C297 0.952 . S
H277 C298 0.949 . S
H278 C300 0.950 . S
H279 C301 0.948 . S
H280 C303 0.951 . S
H281 C268 0.947 . S
H282 C270 0.952 . S
H283 C271 0.950 . S
N284 C287 1.382 1_556 S
N284 C289 1.363 . S
N285 C287 1.371 . S
N285 C288 1.372 . S
N286 C288 1.361 . S
N286 C289 1.377 1_554 S
C287 N284 1.382 1_554 S
C287 N285 1.371 . S
C287 C290 1.480 . S
C288 N285 1.372 . S
C288 N286 1.361 . S
C288 C296 1.457 . S
C289 N284 1.363 . S
C289 N286 1.377 1_556 S
C289 C302 1.479 . S
C290 C287 1.480 . S
C290 C291 1.383 1_554 S
C290 C295 1.385 . S
C291 H272 0.947 . S
C291 C290 1.383 1_556 S
C291 C292 1.388 . S
C292 H273 0.946 . S
C292 C291 1.388 . S
C292 C293 1.384 1_556 S
C293 C292 1.384 1_554 S
C293 C294 1.377 . S
C294 H274 0.953 . S
C294 C293 1.377 . S
C294 C295 1.369 . S
C295 H275 0.945 . S
C295 C290 1.385 . S
C295 C294 1.369 . S
C296 C288 1.457 . S
C296 C297 1.372 . S
C296 C301 1.364 . S
C297 H276 0.952 . S
C297 C296 1.372 . S
C297 C298 1.389 . S
C298 H277 0.949 . S
C298 C297 1.389 . S
C298 C299 1.387 . S
C299 C298 1.387 . S
C299 C300 1.372 . S
C300 H278 0.950 . S
C300 C299 1.372 . S
C300 C301 1.379 . S
C301 H279 0.948 . S
C301 C296 1.364 . S
C301 C300 1.379 . S
C302 C271 1.383 . S
C302 C289 1.479 . S
C302 C303 1.398 . S
C303 C268 1.382 . S
C303 H280 0.951 . S
C303 C302 1.398 . S
C304 C305 1.384 . S
C304 H317 0.947 . S
C304 C339 1.382 . S
C305 C304 1.384 . S
C305 C306 1.378 . S
C306 C305 1.378 . S
C306 C307 1.378 . S
C306 H318 0.952 . S
C307 C306 1.378 . S
C307 H319 0.950 . S
C307 C338 1.383 . S
H308 C327 0.947 . S
H309 C328 0.946 . S
H310 C330 0.953 . S
H311 C331 0.945 . S
H312 C333 0.952 . S
H313 C334 0.949 . S
H314 C336 0.950 . S
H315 C337 0.948 . S
H316 C339 0.951 . S
H317 C304 0.947 . S
H318 C306 0.952 . S
H319 C307 0.950 . S
N320 C323 1.382 1_545 S
N320 C325 1.363 . S
N321 C323 1.371 1_545 S
N321 C324 1.372 . S
N322 C324 1.361 . S
N322 C325 1.377 . S
C323 N320 1.382 1_565 S
C323 N321 1.371 1_565 S
C323 C326 1.480 . S
C324 N321 1.372 . S
C324 N322 1.361 . S
C324 C332 1.457 . S
C325 N320 1.363 . S
C325 N322 1.377 . S
C325 C338 1.479 . S
C326 C323 1.480 . S
C326 C327 1.383 . S
C326 C331 1.385 . S
C327 H308 0.947 . S
C327 C326 1.383 . S
C327 C328 1.388 . S
C328 H309 0.946 . S
C328 C327 1.388 . S
C328 C329 1.384 . S
C329 C328 1.384 . S
C329 C330 1.377 . S
C330 H310 0.953 . S
C330 C329 1.377 . S
C330 C331 1.369 . S
C331 H311 0.945 . S
C331 C326 1.385 . S
C331 C330 1.369 . S
C332 C324 1.457 . S
C332 C333 1.372 . S
C332 C337 1.364 . S
C333 H312 0.952 . S
C333 C332 1.372 . S
C333 C334 1.389 . S
C334 H313 0.949 . S
C334 C333 1.389 . S
C334 C335 1.387 . S
C335 C334 1.387 . S
C335 C336 1.372 . S
C336 H314 0.950 . S
C336 C335 1.372 . S
C336 C337 1.379 . S
C337 H315 0.948 . S
C337 C332 1.364 . S
C337 C336 1.379 . S
C338 C307 1.383 . S
C338 C325 1.479 . S
C338 C339 1.398 . S
C339 C304 1.382 . S
C339 H316 0.951 . S
C339 C338 1.398 . S
C340 C341 1.384 . S
C340 H353 0.947 . S
C340 C375 1.382 . S
C341 C340 1.384 . S
C341 C342 1.378 . S
C342 C341 1.378 . S
C342 C343 1.378 . S
C342 H354 0.952 . S
C343 C342 1.378 . S
C343 H355 0.950 . S
C343 C374 1.383 . S
H344 C363 0.947 . S
H345 C364 0.946 . S
H346 C366 0.953 . S
H347 C367 0.945 . S
H348 C369 0.952 . S
H349 C370 0.949 . S
H350 C372 0.950 . S
H351 C373 0.948 . S
H352 C375 0.951 . S
H353 C340 0.947 . S
H354 C342 0.952 . S
H355 C343 0.950 . S
N356 C359 1.397 . S
N356 C361 1.363 . S
N357 C359 1.355 1_556 S
N357 C360 1.372 . S
N358 C360 1.383 . S
N358 C361 1.354 1_556 S
C359 N356 1.397 . S
C359 N357 1.355 1_554 S
C359 C362 1.479 1_554 S
C360 N357 1.372 . S
C360 N358 1.383 . S
C360 C368 1.457 . S
C361 N356 1.363 . S
C361 N358 1.354 1_554 S
C361 C374 1.479 . S
C362 C359 1.479 1_556 S
C362 C363 1.376 1_556 S
C362 C367 1.392 . S
C363 H344 0.947 . S
C363 C362 1.376 1_554 S
C363 C364 1.388 . S
C364 H345 0.946 . S
C364 C363 1.388 . S
C364 C365 1.380 1_554 S
C365 C364 1.380 1_556 S
C365 C366 1.381 . S
C366 H346 0.953 . S
C366 C365 1.381 . S
C366 C367 1.369 . S
C367 H347 0.945 . S
C367 C362 1.392 . S
C367 C366 1.369 . S
C368 C360 1.457 . S
C368 C369 1.372 . S
C368 C373 1.364 . S
C369 H348 0.952 . S
C369 C368 1.372 . S
C369 C370 1.389 . S
C370 H349 0.949 . S
C370 C369 1.389 . S
C370 C371 1.387 . S
C371 C370 1.387 . S
C371 C372 1.372 . S
C372 H350 0.950 . S
C372 C371 1.372 . S
C372 C373 1.379 . S
C373 H351 0.948 . S
C373 C368 1.364 . S
C373 C372 1.379 . S
C374 C343 1.383 . S
C374 C361 1.479 . S
C374 C375 1.398 . S
C375 C340 1.382 . S
C375 H352 0.951 . S
C375 C374 1.398 . S
C376 C377 1.349 . S
C376 C378 1.327 . S
C376 H401 0.950 . S
C377 C376 1.349 . S
C377 C393 1.349 . S
C378 C376 1.327 . S
C378 C397 1.429 . S
C378 H402 0.950 . S
C379 C396 1.574 . S
C379 C398 1.368 . S
C379 H403 0.949 . S
H380 C384 0.949 . S
C381 C382 1.349 . S
C381 C383 1.327 . S
C381 H404 0.950 . S
C382 C381 1.349 . S
C382 C394 1.349 . S
C383 C381 1.327 . S
C383 C399 1.429 . S
C383 H405 0.950 . S
C384 H380 0.949 . S
C384 C392 1.574 . S
C384 C400 1.368 . S
H385 C393 0.950 . S
H386 C391 0.950 . S
H387 C392 0.949 . S
H388 C394 0.950 . S
H389 C395 0.950 . S
H390 C396 0.949 . S
C391 H386 0.950 . S
C391 C393 1.327 . S
C391 C397 1.429 . S
C392 C384 1.574 . S
C392 H387 0.949 . S
C392 C398 1.368 . S
C393 C377 1.349 . S
C393 H385 0.950 . S
C393 C391 1.327 . S
C394 C382 1.349 . S
C394 H388 0.950 . S
C394 C395 1.327 . S
C395 H389 0.950 . S
C395 C394 1.327 . S
C395 C399 1.429 . S
C396 C379 1.574 . S
C396 H390 0.949 . S
C396 C400 1.368 . S
C397 C378 1.429 . S
C397 C391 1.429 . S
C397 C398 1.523 . S
C398 C379 1.368 . S
C398 C392 1.368 . S
C398 C397 1.523 . S
C399 C383 1.429 . S
C399 C395 1.429 . S
C399 C400 1.523 . S
C400 C384 1.368 . S
C400 C396 1.368 . S
C400 C399 1.523 . S
H401 C376 0.950 . S
H402 C378 0.950 . S
H403 C379 0.949 . S
H404 C381 0.950 . S
H405 C383 0.950 . S
C406 C407 1.349 . S
C406 C408 1.327 . S
C406 H431 0.950 . S
C407 C406 1.349 . S
C407 C423 1.349 . S
C408 C406 1.327 . S
C408 C427 1.429 . S
C408 H432 0.950 . S
C409 C426 1.574 . S
C409 C428 1.368 . S
C409 H433 0.949 . S
H410 C414 0.949 . S
C411 C412 1.349 . S
C411 C413 1.327 . S
C411 H434 0.950 . S
C412 C411 1.349 . S
C412 C424 1.349 . S
C413 C411 1.327 . S
C413 C429 1.429 . S
C413 H435 0.950 . S
C414 H410 0.949 . S
C414 C422 1.574 . S
C414 C430 1.368 . S
H415 C423 0.950 . S
H416 C421 0.950 . S
H417 C422 0.949 . S
H418 C424 0.950 . S
H419 C425 0.950 . S
H420 C426 0.949 . S
C421 H416 0.950 . S
C421 C423 1.327 . S
C421 C427 1.429 . S
C422 C414 1.574 . S
C422 H417 0.949 . S
C422 C428 1.368 . S
C423 C407 1.349 . S
C423 H415 0.950 . S
C423 C421 1.327 . S
C424 C412 1.349 . S
C424 H418 0.950 . S
C424 C425 1.327 . S
C425 H419 0.950 . S
C425 C424 1.327 . S
C425 C429 1.429 . S
C426 C409 1.574 . S
C426 H420 0.949 . S
C426 C430 1.368 . S
C427 C408 1.429 . S
C427 C421 1.429 . S
C427 C428 1.523 . S
C428 C409 1.368 . S
C428 C422 1.368 . S
C428 C427 1.523 . S
C429 C413 1.429 . S
C429 C425 1.429 . S
C429 C430 1.523 . S
C430 C414 1.368 . S
C430 C426 1.368 . S
C430 C429 1.523 . S
H431 C406 0.950 . S
H432 C408 0.950 . S
H433 C409 0.949 . S
H434 C411 0.950 . S
H435 C413 0.950 . S
C436 C437 1.349 . S
C436 C438 1.327 . S
C436 H461 0.950 . S
C437 C436 1.349 . S
C437 C453 1.349 . S
C438 C436 1.327 . S
C438 C457 1.429 . S
C438 H462 0.950 . S
C439 C456 1.574 . S
C439 C458 1.368 . S
C439 H463 0.949 . S
H440 C444 0.949 . S
C441 C442 1.349 . S
C441 C443 1.327 . S
C441 H464 0.950 . S
C442 C441 1.349 . S
C442 C454 1.349 . S
C443 C441 1.327 . S
C443 C459 1.429 . S
C443 H465 0.950 . S
C444 H440 0.949 . S
C444 C452 1.574 . S
C444 C460 1.368 . S
H445 C453 0.950 . S
H446 C451 0.950 . S
H447 C452 0.949 . S
H448 C454 0.950 . S
H449 C455 0.950 . S
H450 C456 0.949 . S
C451 H446 0.950 . S
C451 C453 1.327 . S
C451 C457 1.429 . S
C452 C444 1.574 . S
C452 H447 0.949 . S
C452 C458 1.368 . S
C453 C437 1.349 . S
C453 H445 0.950 . S
C453 C451 1.327 . S
C454 C442 1.349 . S
C454 H448 0.950 . S
C454 C455 1.327 . S
C455 H449 0.950 . S
C455 C454 1.327 . S
C455 C459 1.429 . S
C456 C439 1.574 . S
C456 H450 0.949 . S
C456 C460 1.368 . S
C457 C438 1.429 . S
C457 C451 1.429 . S
C457 C458 1.523 . S
C458 C439 1.368 . S
C458 C452 1.368 . S
C458 C457 1.523 . S
C459 C443 1.429 . S
C459 C455 1.429 . S
C459 C460 1.523 . S
C460 C444 1.368 . S
C460 C456 1.368 . S
C460 C459 1.523 . S
H461 C436 0.950 . S
H462 C438 0.950 . S
H463 C439 0.949 . S
H464 C441 0.950 . S
H465 C443 0.950 . S
C466 C467 1.349 . S
C466 C468 1.327 . S
C466 H491 0.950 . S
C467 C466 1.349 . S
C467 C483 1.349 . S
C468 C466 1.327 . S
C468 C487 1.429 . S
C468 H492 0.950 . S
C469 C486 1.574 . S
C469 C488 1.368 . S
C469 H493 0.949 . S
H470 C474 0.949 . S
C471 C472 1.349 . S
C471 C473 1.327 . S
C471 H494 0.950 . S
C472 C471 1.349 . S
C472 C484 1.349 . S
C473 C471 1.327 . S
C473 C489 1.429 . S
C473 H495 0.950 . S
C474 H470 0.949 . S
C474 C482 1.574 . S
C474 C490 1.368 . S
H475 C483 0.950 . S
H476 C481 0.950 . S
H477 C482 0.949 . S
H478 C484 0.950 . S
H479 C485 0.950 . S
H480 C486 0.949 . S
C481 H476 0.950 . S
C481 C483 1.327 . S
C481 C487 1.429 . S
C482 C474 1.574 . S
C482 H477 0.949 . S
C482 C488 1.368 . S
C483 C467 1.349 . S
C483 H475 0.950 . S
C483 C481 1.327 . S
C484 C472 1.349 . S
C484 H478 0.950 . S
C484 C485 1.327 . S
C485 H479 0.950 . S
C485 C484 1.327 . S
C485 C489 1.429 . S
C486 C469 1.574 . S
C486 H480 0.949 . S
C486 C490 1.368 . S
C487 C468 1.429 . S
C487 C481 1.429 . S
C487 C488 1.523 . S
C488 C469 1.368 . S
C488 C482 1.368 . S
C488 C487 1.523 . S
C489 C473 1.429 . S
C489 C485 1.429 . S
C489 C490 1.523 . S
C490 C474 1.368 . S
C490 C486 1.368 . S
C490 C489 1.523 . S
H491 C466 0.950 . S
H492 C468 0.950 . S
H493 C469 0.949 . S
H494 C471 0.950 . S
H495 C473 0.950 . S
C496 C497 1.349 . S
C496 C498 1.327 . S
C496 H521 0.950 . S
C497 C496 1.349 . S
C497 C513 1.349 . S
C498 C496 1.327 . S
C498 C517 1.429 . S
C498 H522 0.950 . S
C499 C516 1.574 . S
C499 C518 1.368 . S
C499 H523 0.949 . S
H500 C504 0.949 . S
C501 C502 1.349 . S
C501 C503 1.327 . S
C501 H524 0.950 . S
C502 C501 1.349 . S
C502 C514 1.349 . S
C503 C501 1.327 . S
C503 C519 1.429 . S
C503 H525 0.950 . S
C504 H500 0.949 . S
C504 C512 1.574 . S
C504 C520 1.368 . S
H505 C513 0.950 . S
H506 C511 0.950 . S
H507 C512 0.949 . S
H508 C514 0.950 . S
H509 C515 0.950 . S
H510 C516 0.949 . S
C511 H506 0.950 . S
C511 C513 1.327 . S
C511 C517 1.429 . S
C512 C504 1.574 . S
C512 H507 0.949 . S
C512 C518 1.368 . S
C513 C497 1.349 . S
C513 H505 0.950 . S
C513 C511 1.327 . S
C514 C502 1.349 . S
C514 H508 0.950 . S
C514 C515 1.327 . S
C515 H509 0.950 . S
C515 C514 1.327 . S
C515 C519 1.429 . S
C516 C499 1.574 . S
C516 H510 0.949 . S
C516 C520 1.368 . S
C517 C498 1.429 . S
C517 C511 1.429 . S
C517 C518 1.523 . S
C518 C499 1.368 . S
C518 C512 1.368 . S
C518 C517 1.523 . S
C519 C503 1.429 . S
C519 C515 1.429 . S
C519 C520 1.523 . S
C520 C504 1.368 . S
C520 C516 1.368 . S
C520 C519 1.523 . S
H521 C496 0.950 . S
H522 C498 0.950 . S
H523 C499 0.949 . S
H524 C501 0.950 . S
H525 C503 0.950 . S
C526 C527 1.349 . S
C526 C528 1.327 . S
C526 H551 0.950 . S
C527 C526 1.349 . S
C527 C543 1.349 . S
C528 C526 1.327 . S
C528 C547 1.429 . S
C528 H552 0.950 . S
C529 C546 1.574 . S
C529 C548 1.368 . S
C529 H553 0.949 . S
H530 C534 0.949 . S
C531 C532 1.349 . S
C531 C533 1.327 . S
C531 H554 0.950 . S
C532 C531 1.349 . S
C532 C544 1.349 . S
C533 C531 1.327 . S
C533 C549 1.429 . S
C533 H555 0.950 . S
C534 H530 0.949 . S
C534 C542 1.574 . S
C534 C550 1.368 . S
H535 C543 0.950 . S
H536 C541 0.950 . S
H537 C542 0.949 . S
H538 C544 0.950 . S
H539 C545 0.950 . S
H540 C546 0.949 . S
C541 H536 0.950 . S
C541 C543 1.327 . S
C541 C547 1.429 . S
C542 C534 1.574 . S
C542 H537 0.949 . S
C542 C548 1.368 . S
C543 C527 1.349 . S
C543 H535 0.950 . S
C543 C541 1.327 . S
C544 C532 1.349 . S
C544 H538 0.950 . S
C544 C545 1.327 . S
C545 H539 0.950 . S
C545 C544 1.327 . S
C545 C549 1.429 . S
C546 C529 1.574 . S
C546 H540 0.949 . S
C546 C550 1.368 . S
C547 C528 1.429 . S
C547 C541 1.429 . S
C547 C548 1.523 . S
C548 C529 1.368 . S
C548 C542 1.368 . S
C548 C547 1.523 . S
C549 C533 1.429 . S
C549 C545 1.429 . S
C549 C550 1.523 . S
C550 C534 1.368 . S
C550 C546 1.368 . S
C550 C549 1.523 . S
H551 C526 0.950 . S
H552 C528 0.950 . S
H553 C529 0.949 . S
H554 C531 0.950 . S
H555 C533 0.950 . S
C556 C557 1.349 . S
C556 C558 1.327 . S
C556 H581 0.950 . S
C557 C556 1.349 . S
C557 C573 1.349 . S
C558 C556 1.327 . S
C558 C577 1.429 . S
C558 H582 0.950 . S
C559 C576 1.574 . S
C559 C578 1.368 . S
C559 H583 0.949 . S
H560 C564 0.949 . S
C561 C562 1.349 . S
C561 C563 1.327 . S
C561 H584 0.950 . S
C562 C561 1.349 . S
C562 C574 1.349 . S
C563 C561 1.327 . S
C563 C579 1.429 . S
C563 H585 0.950 . S
C564 H560 0.949 . S
C564 C572 1.574 . S
C564 C580 1.368 . S
H565 C573 0.950 . S
H566 C571 0.950 . S
H567 C572 0.949 . S
H568 C574 0.950 . S
H569 C575 0.950 . S
H570 C576 0.949 . S
C571 H566 0.950 . S
C571 C573 1.327 . S
C571 C577 1.429 . S
C572 C564 1.574 . S
C572 H567 0.949 . S
C572 C578 1.368 . S
C573 C557 1.349 . S
C573 H565 0.950 . S
C573 C571 1.327 . S
C574 C562 1.349 . S
C574 H568 0.950 . S
C574 C575 1.327 . S
C575 H569 0.950 . S
C575 C574 1.327 . S
C575 C579 1.429 . S
C576 C559 1.574 . S
C576 H570 0.949 . S
C576 C580 1.368 . S
C577 C558 1.429 . S
C577 C571 1.429 . S
C577 C578 1.523 . S
C578 C559 1.368 . S
C578 C572 1.368 . S
C578 C577 1.523 . S
C579 C563 1.429 . S
C579 C575 1.429 . S
C579 C580 1.523 . S
C580 C564 1.368 . S
C580 C576 1.368 . S
C580 C579 1.523 . S
H581 C556 0.950 . S
H582 C558 0.950 . S
H583 C559 0.949 . S
H584 C561 0.950 . S
H585 C563 0.950 . S
C586 C587 1.349 . S
C586 C588 1.327 . S
C586 H611 0.950 . S
C587 C586 1.349 . S
C587 C603 1.349 . S
C588 C586 1.327 . S
C588 C607 1.429 . S
C588 H612 0.950 . S
C589 C606 1.574 . S
C589 C608 1.368 . S
C589 H613 0.949 . S
H590 C594 0.949 . S
C591 C592 1.349 . S
C591 C593 1.327 . S
C591 H614 0.950 . S
C592 C591 1.349 . S
C592 C604 1.349 . S
C593 C591 1.327 . S
C593 C609 1.429 . S
C593 H615 0.950 . S
C594 H590 0.949 . S
C594 C602 1.574 . S
C594 C610 1.368 . S
H595 C603 0.950 . S
H596 C601 0.950 . S
H597 C602 0.949 . S
H598 C604 0.950 . S
H599 C605 0.950 . S
H600 C606 0.949 . S
C601 H596 0.950 . S
C601 C603 1.327 . S
C601 C607 1.429 . S
C602 C594 1.574 . S
C602 H597 0.949 . S
C602 C608 1.368 . S
C603 C587 1.349 . S
C603 H595 0.950 . S
C603 C601 1.327 . S
C604 C592 1.349 . S
C604 H598 0.950 . S
C604 C605 1.327 . S
C605 H599 0.950 . S
C605 C604 1.327 . S
C605 C609 1.429 . S
C606 C589 1.574 . S
C606 H600 0.949 . S
C606 C610 1.368 . S
C607 C588 1.429 . S
C607 C601 1.429 . S
C607 C608 1.523 . S
C608 C589 1.368 . S
C608 C602 1.368 . S
C608 C607 1.523 . S
C609 C593 1.429 . S
C609 C605 1.429 . S
C609 C610 1.523 . S
C610 C594 1.368 . S
C610 C606 1.368 . S
C610 C609 1.523 . S
H611 C586 0.950 . S
H612 C588 0.950 . S
H613 C589 0.949 . S
H614 C591 0.950 . S
H615 C593 0.950 . S
C616 C617 1.349 . S
C616 C618 1.327 . S
C616 H641 0.950 . S
C617 C616 1.349 . S
C617 C633 1.349 . S
C618 C616 1.327 . S
C618 C637 1.429 . S
C618 H642 0.950 . S
C619 C636 1.574 . S
C619 C638 1.368 . S
C619 H643 0.949 . S
H620 C624 0.949 . S
C621 C622 1.349 . S
C621 C623 1.327 . S
C621 H644 0.950 . S
C622 C621 1.349 . S
C622 C634 1.349 . S
C623 C621 1.327 . S
C623 C639 1.429 . S
C623 H645 0.950 . S
C624 H620 0.949 . S
C624 C632 1.574 . S
C624 C640 1.368 . S
H625 C633 0.950 . S
H626 C631 0.950 . S
H627 C632 0.949 . S
H628 C634 0.950 . S
H629 C635 0.950 . S
H630 C636 0.949 . S
C631 H626 0.950 . S
C631 C633 1.327 . S
C631 C637 1.429 . S
C632 C624 1.574 . S
C632 H627 0.949 . S
C632 C638 1.368 . S
C633 C617 1.349 . S
C633 H625 0.950 . S
C633 C631 1.327 . S
C634 C622 1.349 . S
C634 H628 0.950 . S
C634 C635 1.327 . S
C635 H629 0.950 . S
C635 C634 1.327 . S
C635 C639 1.429 . S
C636 C619 1.574 . S
C636 H630 0.949 . S
C636 C640 1.368 . S
C637 C618 1.429 . S
C637 C631 1.429 . S
C637 C638 1.523 . S
C638 C619 1.368 . S
C638 C632 1.368 . S
C638 C637 1.523 . S
C639 C623 1.429 . S
C639 C635 1.429 . S
C639 C640 1.523 . S
C640 C624 1.368 . S
C640 C636 1.368 . S
C640 C639 1.523 . S
H641 C616 0.950 . S
H642 C618 0.950 . S
H643 C619 0.949 . S
H644 C621 0.950 . S
H645 C623 0.950 . S
C646 C647 1.349 . S
C646 C648 1.327 . S
C646 H671 0.950 . S
C647 C646 1.349 . S
C647 C663 1.349 . S
C648 C646 1.327 . S
C648 C667 1.429 . S
C648 H672 0.950 . S
C649 C666 1.574 . S
C649 C668 1.368 . S
C649 H673 0.949 . S
H650 C654 0.949 . S
C651 C652 1.349 . S
C651 C653 1.327 . S
C651 H674 0.950 . S
C652 C651 1.349 . S
C652 C664 1.349 . S
C653 C651 1.327 . S
C653 C669 1.429 . S
C653 H675 0.950 . S
C654 H650 0.949 . S
C654 C662 1.574 . S
C654 C670 1.368 . S
H655 C663 0.950 . S
H656 C661 0.950 . S
H657 C662 0.949 . S
H658 C664 0.950 . S
H659 C665 0.950 . S
H660 C666 0.949 . S
C661 H656 0.950 . S
C661 C663 1.327 . S
C661 C667 1.429 . S
C662 C654 1.574 . S
C662 H657 0.949 . S
C662 C668 1.368 . S
C663 C647 1.349 . S
C663 H655 0.950 . S
C663 C661 1.327 . S
C664 C652 1.349 . S
C664 H658 0.950 . S
C664 C665 1.327 . S
C665 H659 0.950 . S
C665 C664 1.327 . S
C665 C669 1.429 . S
C666 C649 1.574 . S
C666 H660 0.949 . S
C666 C670 1.368 . S
C667 C648 1.429 . S
C667 C661 1.429 . S
C667 C668 1.523 . S
C668 C649 1.368 . S
C668 C662 1.368 . S
C668 C667 1.523 . S
C669 C653 1.429 . S
C669 C665 1.429 . S
C669 C670 1.523 . S
C670 C654 1.368 . S
C670 C666 1.368 . S
C670 C669 1.523 . S
H671 C646 0.950 . S
H672 C648 0.950 . S
H673 C649 0.949 . S
H674 C651 0.950 . S
H675 C653 0.950 . S
C676 C677 1.349 . S
C676 C678 1.327 . S
C676 H701 0.950 . S
C677 C676 1.349 . S
C677 C693 1.349 . S
C678 C676 1.327 . S
C678 C697 1.429 . S
C678 H702 0.950 . S
C679 C696 1.574 . S
C679 C698 1.368 . S
C679 H703 0.949 . S
H680 C684 0.949 . S
C681 C682 1.349 . S
C681 C683 1.327 . S
C681 H704 0.950 . S
C682 C681 1.349 . S
C682 C694 1.349 . S
C683 C681 1.327 . S
C683 C699 1.429 . S
C683 H705 0.950 . S
C684 H680 0.949 . S
C684 C692 1.574 . S
C684 C700 1.368 . S
H685 C693 0.950 . S
H686 C691 0.950 . S
H687 C692 0.949 . S
H688 C694 0.950 . S
H689 C695 0.950 . S
H690 C696 0.949 . S
C691 H686 0.950 . S
C691 C693 1.327 . S
C691 C697 1.429 . S
C692 C684 1.574 . S
C692 H687 0.949 . S
C692 C698 1.368 . S
C693 C677 1.349 . S
C693 H685 0.950 . S
C693 C691 1.327 . S
C694 C682 1.349 . S
C694 H688 0.950 . S
C694 C695 1.327 . S
C695 H689 0.950 . S
C695 C694 1.327 . S
C695 C699 1.429 . S
C696 C679 1.574 . S
C696 H690 0.949 . S
C696 C700 1.368 . S
C697 C678 1.429 . S
C697 C691 1.429 . S
C697 C698 1.523 . S
C698 C679 1.368 . S
C698 C692 1.368 . S
C698 C697 1.523 . S
C699 C683 1.429 . S
C699 C695 1.429 . S
C699 C700 1.523 . S
C700 C684 1.368 . S
C700 C696 1.368 . S
C700 C699 1.523 . S
H701 C676 0.950 . S
H702 C678 0.950 . S
H703 C679 0.949 . S
H704 C681 0.950 . S
H705 C683 0.950 . S
C706 C707 1.349 . S
C706 C708 1.327 . S
C706 H731 0.950 . S
C707 C706 1.349 . S
C707 C723 1.349 . S
C708 C706 1.327 . S
C708 C727 1.429 . S
C708 H732 0.950 . S
C709 C726 1.574 . S
C709 C728 1.368 . S
C709 H733 0.949 . S
H710 C714 0.949 . S
C711 C712 1.349 . S
C711 C713 1.327 . S
C711 H734 0.950 . S
C712 C711 1.349 . S
C712 C724 1.349 . S
C713 C711 1.327 . S
C713 C729 1.429 . S
C713 H735 0.950 . S
C714 H710 0.949 . S
C714 C722 1.574 . S
C714 C730 1.368 . S
H715 C723 0.950 . S
H716 C721 0.950 . S
H717 C722 0.949 . S
H718 C724 0.950 . S
H719 C725 0.950 . S
H720 C726 0.949 . S
C721 H716 0.950 . S
C721 C723 1.327 . S
C721 C727 1.429 . S
C722 C714 1.574 . S
C722 H717 0.949 . S
C722 C728 1.368 . S
C723 C707 1.349 . S
C723 H715 0.950 . S
C723 C721 1.327 . S
C724 C712 1.349 . S
C724 H718 0.950 . S
C724 C725 1.327 . S
C725 H719 0.950 . S
C725 C724 1.327 . S
C725 C729 1.429 . S
C726 C709 1.574 . S
C726 H720 0.949 . S
C726 C730 1.368 . S
C727 C708 1.429 . S
C727 C721 1.429 . S
C727 C728 1.523 . S
C728 C709 1.368 . S
C728 C722 1.368 . S
C728 C727 1.523 . S
C729 C713 1.429 . S
C729 C725 1.429 . S
C729 C730 1.523 . S
C730 C714 1.368 . S
C730 C726 1.368 . S
C730 C729 1.523 . S
H731 C706 0.950 . S
H732 C708 0.950 . S
H733 C709 0.949 . S
H734 C711 0.950 . S
H735 C713 0.950 . S
C736 C737 1.349 . S
C736 C738 1.327 . S
C736 H761 0.950 . S
C737 C736 1.349 . S
C737 C753 1.349 . S
C738 C736 1.327 . S
C738 C757 1.429 . S
C738 H762 0.950 . S
C739 C756 1.574 . S
C739 C758 1.368 . S
C739 H763 0.949 . S
H740 C744 0.949 . S
C741 C742 1.349 . S
C741 C743 1.327 . S
C741 H764 0.950 . S
C742 C741 1.349 . S
C742 C754 1.349 . S
C743 C741 1.327 . S
C743 C759 1.429 . S
C743 H765 0.950 . S
C744 H740 0.949 . S
C744 C752 1.574 . S
C744 C760 1.368 . S
H745 C753 0.950 . S
H746 C751 0.950 . S
H747 C752 0.949 . S
H748 C754 0.950 . S
H749 C755 0.950 . S
H750 C756 0.949 . S
C751 H746 0.950 . S
C751 C753 1.327 . S
C751 C757 1.429 . S
C752 C744 1.574 . S
C752 H747 0.949 . S
C752 C758 1.368 . S
C753 C737 1.349 . S
C753 H745 0.950 . S
C753 C751 1.327 . S
C754 C742 1.349 . S
C754 H748 0.950 . S
C754 C755 1.327 . S
C755 H749 0.950 . S
C755 C754 1.327 . S
C755 C759 1.429 . S
C756 C739 1.574 . S
C756 H750 0.949 . S
C756 C760 1.368 . S
C757 C738 1.429 . S
C757 C751 1.429 . S
C757 C758 1.523 . S
C758 C739 1.368 . S
C758 C752 1.368 . S
C758 C757 1.523 . S
C759 C743 1.429 . S
C759 C755 1.429 . S
C759 C760 1.523 . S
C760 C744 1.368 . S
C760 C756 1.368 . S
C760 C759 1.523 . S
H761 C736 0.950 . S
H762 C738 0.950 . S
H763 C739 0.949 . S
H764 C741 0.950 . S
H765 C743 0.950 . S
C766 C767 1.349 . S
C766 C768 1.327 . S
C766 H791 0.950 . S
C767 C766 1.349 . S
C767 C783 1.349 . S
C768 C766 1.327 . S
C768 C787 1.429 . S
C768 H792 0.950 . S
C769 C786 1.574 . S
C769 C788 1.368 . S
C769 H793 0.949 . S
H770 C774 0.949 . S
C771 C772 1.349 . S
C771 C773 1.327 . S
C771 H794 0.950 . S
C772 C771 1.349 . S
C772 C784 1.349 . S
C773 C771 1.327 . S
C773 C789 1.429 . S
C773 H795 0.950 . S
C774 H770 0.949 . S
C774 C782 1.574 . S
C774 C790 1.368 . S
H775 C783 0.950 . S
H776 C781 0.950 . S
H777 C782 0.949 . S
H778 C784 0.950 . S
H779 C785 0.950 . S
H780 C786 0.949 . S
C781 H776 0.950 . S
C781 C783 1.327 . S
C781 C787 1.429 . S
C782 C774 1.574 . S
C782 H777 0.949 . S
C782 C788 1.368 . S
C783 C767 1.349 . S
C783 H775 0.950 . S
C783 C781 1.327 . S
C784 C772 1.349 . S
C784 H778 0.950 . S
C784 C785 1.327 . S
C785 H779 0.950 . S
C785 C784 1.327 . S
C785 C789 1.429 . S
C786 C769 1.574 . S
C786 H780 0.949 . S
C786 C790 1.368 . S
C787 C768 1.429 . S
C787 C781 1.429 . S
C787 C788 1.523 . S
C788 C769 1.368 . S
C788 C782 1.368 . S
C788 C787 1.523 . S
C789 C773 1.429 . S
C789 C785 1.429 . S
C789 C790 1.523 . S
C790 C774 1.368 . S
C790 C786 1.368 . S
C790 C789 1.523 . S
H791 C766 0.950 . S
H792 C768 0.950 . S
H793 C769 0.949 . S
H794 C771 0.950 . S
H795 C773 0.950 . S
C796 C797 1.349 . S
C796 C798 1.327 . S
C796 H821 0.950 . S
C797 C796 1.349 . S
C797 C813 1.349 . S
C798 C796 1.327 . S
C798 C817 1.429 . S
C798 H822 0.950 . S
C799 C816 1.574 . S
C799 C818 1.368 . S
C799 H823 0.949 . S
H800 C804 0.949 . S
C801 C802 1.349 . S
C801 C803 1.327 . S
C801 H824 0.950 . S
C802 C801 1.349 . S
C802 C814 1.349 . S
C803 C801 1.327 . S
C803 C819 1.429 . S
C803 H825 0.950 . S
C804 H800 0.949 . S
C804 C812 1.574 . S
C804 C820 1.368 . S
H805 C813 0.950 . S
H806 C811 0.950 . S
H807 C812 0.949 . S
H808 C814 0.950 . S
H809 C815 0.950 . S
H810 C816 0.949 . S
C811 H806 0.950 . S
C811 C813 1.327 . S
C811 C817 1.429 . S
C812 C804 1.574 . S
C812 H807 0.949 . S
C812 C818 1.368 . S
C813 C797 1.349 . S
C813 H805 0.950 . S
C813 C811 1.327 . S
C814 C802 1.349 . S
C814 H808 0.950 . S
C814 C815 1.327 . S
C815 H809 0.950 . S
C815 C814 1.327 . S
C815 C819 1.429 . S
C816 C799 1.574 . S
C816 H810 0.949 . S
C816 C820 1.368 . S
C817 C798 1.429 . S
C817 C811 1.429 . S
C817 C818 1.523 . S
C818 C799 1.368 . S
C818 C812 1.368 . S
C818 C817 1.523 . S
C819 C803 1.429 . S
C819 C815 1.429 . S
C819 C820 1.523 . S
C820 C804 1.368 . S
C820 C816 1.368 . S
C820 C819 1.523 . S
H821 C796 0.950 . S
H822 C798 0.950 . S
H823 C799 0.949 . S
H824 C801 0.950 . S
H825 C803 0.950 . S
C826 C827 1.349 . S
C826 C828 1.327 . S
C826 H851 0.950 . S
C827 C826 1.349 . S
C827 C843 1.349 . S
C828 C826 1.327 . S
C828 C847 1.429 . S
C828 H852 0.950 . S
C829 C846 1.574 . S
C829 C848 1.368 . S
C829 H853 0.949 . S
H830 C834 0.949 . S
C831 C832 1.349 . S
C831 C833 1.327 . S
C831 H854 0.950 . S
C832 C831 1.349 . S
C832 C844 1.349 . S
C833 C831 1.327 . S
C833 C849 1.429 . S
C833 H855 0.950 . S
C834 H830 0.949 . S
C834 C842 1.574 . S
C834 C850 1.368 . S
H835 C843 0.950 . S
H836 C841 0.950 . S
H837 C842 0.949 . S
H838 C844 0.950 . S
H839 C845 0.950 . S
H840 C846 0.949 . S
C841 H836 0.950 . S
C841 C843 1.327 . S
C841 C847 1.429 . S
C842 C834 1.574 . S
C842 H837 0.949 . S
C842 C848 1.368 . S
C843 C827 1.349 . S
C843 H835 0.950 . S
C843 C841 1.327 . S
C844 C832 1.349 . S
C844 H838 0.950 . S
C844 C845 1.327 . S
C845 H839 0.950 . S
C845 C844 1.327 . S
C845 C849 1.429 . S
C846 C829 1.574 . S
C846 H840 0.949 . S
C846 C850 1.368 . S
C847 C828 1.429 . S
C847 C841 1.429 . S
C847 C848 1.523 . S
C848 C829 1.368 . S
C848 C842 1.368 . S
C848 C847 1.523 . S
C849 C833 1.429 . S
C849 C845 1.429 . S
C849 C850 1.523 . S
C850 C834 1.368 . S
C850 C846 1.368 . S
C850 C849 1.523 . S
H851 C826 0.950 . S
H852 C828 0.950 . S
H853 C829 0.949 . S
H854 C831 0.950 . S
H855 C833 0.950 . S
C856 C857 1.349 1_556 S
C856 C858 1.327 . S
C856 H881 0.950 . S
C857 C856 1.349 1_554 S
C857 C873 1.349 . S
C858 C856 1.327 . S
C858 C877 1.429 1_556 S
C858 H882 0.950 . S
C859 C876 1.574 . S
C859 C878 1.391 . S
C859 H883 0.949 . S
H860 C864 0.949 . S
C861 C862 1.359 . S
C861 C863 1.327 . S
C861 H884 0.950 . S
C862 C861 1.359 . S
C862 C874 1.339 1_554 S
C863 C861 1.327 . S
C863 C879 1.443 . S
C863 H885 0.950 . S
C864 H860 0.949 . S
C864 C872 1.574 . S
C864 C880 1.350 1_556 S
H865 C873 0.950 . S
H866 C871 0.950 . S
H867 C872 0.949 . S
H868 C874 0.950 . S
H869 C875 0.950 . S
H870 C876 0.949 . S
C871 H866 0.950 . S
C871 C873 1.327 . S
C871 C877 1.429 . S
C872 C864 1.574 . S
C872 H867 0.949 . S
C872 C878 1.346 1_556 S
C873 C857 1.349 . S
C873 H865 0.950 . S
C873 C871 1.327 . S
C874 C862 1.339 1_556 S
C874 H868 0.950 . S
C874 C875 1.327 . S
C875 H869 0.950 . S
C875 C874 1.327 . S
C875 C879 1.414 1_556 S
C876 C859 1.574 . S
C876 H870 0.949 . S
C876 C880 1.387 . S
C877 C858 1.429 1_554 S
C877 C871 1.429 . S
C877 C878 1.523 . S
C878 C859 1.391 . S
C878 C872 1.346 1_554 S
C878 C877 1.523 . S
C879 C863 1.443 . S
C879 C875 1.414 1_554 S
C879 C880 1.523 . S
C880 C864 1.350 1_554 S
C880 C876 1.387 . S
C880 C879 1.523 . S
H881 C856 0.950 . S
H882 C858 0.950 . S
H883 C859 0.949 . S
H884 C861 0.950 . S
H885 C863 0.950 . S
C886 C887 1.349 . S
C886 C888 1.327 . S
C886 H911 0.950 . S
C887 C886 1.349 . S
C887 C903 1.349 . S
C888 C886 1.327 . S
C888 C907 1.429 . S
C888 H912 0.950 . S
C889 C906 1.574 . S
C889 C908 1.368 . S
C889 H913 0.949 . S
H890 C894 0.949 . S
C891 C892 1.349 . S
C891 C893 1.327 . S
C891 H914 0.950 . S
C892 C891 1.349 . S
C892 C904 1.349 . S
C893 C891 1.327 . S
C893 C909 1.429 . S
C893 H915 0.950 . S
C894 H890 0.949 . S
C894 C902 1.574 . S
C894 C910 1.368 . S
H895 C903 0.950 . S
H896 C901 0.950 . S
H897 C902 0.949 . S
H898 C904 0.950 . S
H899 C905 0.950 . S
H900 C906 0.949 . S
C901 H896 0.950 . S
C901 C903 1.327 . S
C901 C907 1.429 . S
C902 C894 1.574 . S
C902 H897 0.949 . S
C902 C908 1.368 . S
C903 C887 1.349 . S
C903 H895 0.950 . S
C903 C901 1.327 . S
C904 C892 1.349 . S
C904 H898 0.950 . S
C904 C905 1.327 . S
C905 H899 0.950 . S
C905 C904 1.327 . S
C905 C909 1.429 . S
C906 C889 1.574 . S
C906 H900 0.949 . S
C906 C910 1.368 . S
C907 C888 1.429 . S
C907 C901 1.429 . S
C907 C908 1.523 . S
C908 C889 1.368 . S
C908 C902 1.368 . S
C908 C907 1.523 . S
C909 C893 1.429 . S
C909 C905 1.429 . S
C909 C910 1.523 . S
C910 C894 1.368 . S
C910 C906 1.368 . S
C910 C909 1.523 . S
H911 C886 0.950 . S
H912 C888 0.950 . S
H913 C889 0.949 . S
H914 C891 0.950 . S
H915 C893 0.950 . S
C916 C917 1.349 1_556 S
C916 C918 1.327 . S
C916 H941 0.950 . S
C917 C916 1.349 1_554 S
C917 C933 1.349 . S
C918 C916 1.327 . S
C918 C937 1.429 1_556 S
C918 H942 0.950 . S
C919 C936 1.574 . S
C919 C938 1.368 . S
C919 H943 0.949 . S
H920 C924 0.949 . S
C921 C922 1.349 . S
C921 C923 1.327 . S
C921 H944 0.950 . S
C922 C921 1.349 . S
C922 C934 1.349 1_554 S
C923 C921 1.327 . S
C923 C939 1.429 . S
C923 H945 0.950 . S
C924 H920 0.949 . S
C924 C932 1.574 . S
C924 C940 1.368 1_556 S
H925 C933 0.950 . S
H926 C931 0.950 . S
H927 C932 0.949 . S
H928 C934 0.950 . S
H929 C935 0.950 . S
H930 C936 0.949 . S
C931 H926 0.950 . S
C931 C933 1.327 . S
C931 C937 1.429 . S
C932 C924 1.574 . S
C932 H927 0.949 . S
C932 C938 1.368 1_556 S
C933 C917 1.349 . S
C933 H925 0.950 . S
C933 C931 1.327 . S
C934 C922 1.349 1_556 S
C934 H928 0.950 . S
C934 C935 1.327 . S
C935 H929 0.950 . S
C935 C934 1.327 . S
C935 C939 1.429 1_556 S
C936 C919 1.574 . S
C936 H930 0.949 . S
C936 C940 1.368 . S
C937 C918 1.429 1_554 S
C937 C931 1.429 . S
C937 C938 1.523 . S
C938 C919 1.368 . S
C938 C932 1.368 1_554 S
C938 C937 1.523 . S
C939 C923 1.429 . S
C939 C935 1.429 1_554 S
C939 C940 1.523 . S
C940 C924 1.368 1_554 S
C940 C936 1.368 . S
C940 C939 1.523 . S
H941 C916 0.950 . S
H942 C918 0.950 . S
H943 C919 0.949 . S
H944 C921 0.950 . S
H945 C923 0.950 . S
C946 C947 1.349 . S
C946 C948 1.327 . S
C946 H971 0.950 . S
C947 C946 1.349 . S
C947 C963 1.349 . S
C948 C946 1.327 . S
C948 C967 1.429 . S
C948 H972 0.950 . S
C949 C966 1.574 . S
C949 C968 1.368 . S
C949 H973 0.949 . S
H950 C954 0.949 . S
C951 C952 1.349 . S
C951 C953 1.327 . S
C951 H974 0.950 . S
C952 C951 1.349 . S
C952 C964 1.349 . S
C953 C951 1.327 . S
C953 C969 1.429 . S
C953 H975 0.950 . S
C954 H950 0.949 . S
C954 C962 1.574 . S
C954 C970 1.368 . S
H955 C963 0.950 . S
H956 C961 0.950 . S
H957 C962 0.949 . S
H958 C964 0.950 . S
H959 C965 0.950 . S
H960 C966 0.949 . S
C961 H956 0.950 . S
C961 C963 1.327 . S
C961 C967 1.429 . S
C962 C954 1.574 . S
C962 H957 0.949 . S
C962 C968 1.368 . S
C963 C947 1.349 . S
C963 H955 0.950 . S
C963 C961 1.327 . S
C964 C952 1.349 . S
C964 H958 0.950 . S
C964 C965 1.327 . S
C965 H959 0.950 . S
C965 C964 1.327 . S
C965 C969 1.429 . S
C966 C949 1.574 . S
C966 H960 0.949 . S
C966 C970 1.368 . S
C967 C948 1.429 . S
C967 C961 1.429 . S
C967 C968 1.523 . S
C968 C949 1.368 . S
C968 C962 1.368 . S
C968 C967 1.523 . S
C969 C953 1.429 . S
C969 C965 1.429 . S
C969 C970 1.523 . S
C970 C954 1.368 . S
C970 C966 1.368 . S
C970 C969 1.523 . S
H971 C946 0.950 . S
H972 C948 0.950 . S
H973 C949 0.949 . S
H974 C951 0.950 . S
H975 C953 0.950 . S
C976 C977 1.349 . S
C976 C978 1.327 . S
C976 H1001 0.950 . S
C977 C976 1.349 . S
C977 C993 1.349 . S
C978 C976 1.327 . S
C978 C997 1.429 . S
C978 H1002 0.950 . S
C979 C996 1.574 . S
C979 C998 1.368 . S
C979 H1003 0.949 . S
H980 C984 0.949 . S
C981 C982 1.349 . S
C981 C983 1.327 . S
C981 H1004 0.950 . S
C982 C981 1.349 . S
C982 C994 1.349 . S
C983 C981 1.327 . S
C983 C999 1.429 . S
C983 H1005 0.950 . S
C984 H980 0.949 . S
C984 C992 1.574 . S
C984 C1000 1.368 . S
H985 C993 0.950 . S
H986 C991 0.950 . S
H987 C992 0.949 . S
H988 C994 0.950 . S
H989 C995 0.950 . S
H990 C996 0.949 . S
C991 H986 0.950 . S
C991 C993 1.327 . S
C991 C997 1.429 . S
C992 C984 1.574 . S
C992 H987 0.949 . S
C992 C998 1.368 . S
C993 C977 1.349 . S
C993 H985 0.950 . S
C993 C991 1.327 . S
C994 C982 1.349 . S
C994 H988 0.950 . S
C994 C995 1.327 . S
C995 H989 0.950 . S
C995 C994 1.327 . S
C995 C999 1.429 . S
C996 C979 1.574 . S
C996 H990 0.949 . S
C996 C1000 1.368 . S
C997 C978 1.429 . S
C997 C991 1.429 . S
C997 C998 1.523 . S
C998 C979 1.368 . S
C998 C992 1.368 . S
C998 C997 1.523 . S
C999 C983 1.429 . S
C999 C995 1.429 . S
C999 C1000 1.523 . S
C1000 C984 1.368 . S
C1000 C996 1.368 . S
C1000 C999 1.523 . S
H1001 C976 0.950 . S
H1002 C978 0.950 . S
H1003 C979 0.949 . S
H1004 C981 0.950 . S
H1005 C983 0.950 . S
C1006 C1007 1.332 1_556 S
C1006 C1008 1.327 . S
C1006 H1031 0.950 . S
C1007 C1006 1.332 1_554 S
C1007 C1023 1.366 . S
C1008 C1006 1.327 . S
C1008 C1027 1.413 1_556 S
C1008 H1032 0.950 . S
C1009 C1026 1.574 . S
C1009 C1028 1.386 . S
C1009 H1033 0.949 . S
H1010 C1014 0.949 . S
C1011 C1012 1.364 . S
C1011 C1013 1.327 . S
C1011 H1034 0.950 . S
C1012 C1011 1.364 . S
C1012 C1024 1.334 1_554 S
C1013 C1011 1.327 . S
C1013 C1029 1.444 . S
C1013 H1035 0.950 . S
C1014 H1010 0.949 . S
C1014 C1022 1.574 . S
C1014 C1030 1.351 1_556 S
H1015 C1023 0.950 . S
H1016 C1021 0.950 . S
H1017 C1022 0.949 . S
H1018 C1024 0.950 . S
H1019 C1025 0.950 . S
H1020 C1026 0.949 . S
C1021 H1016 0.950 . S
C1021 C1023 1.327 . S
C1021 C1027 1.445 . S
C1022 C1014 1.574 . S
C1022 H1017 0.949 . S
C1022 C1028 1.351 1_556 S
C1023 C1007 1.366 . S
C1023 H1015 0.950 . S
C1023 C1021 1.327 . S
C1024 C1012 1.334 1_556 S
C1024 H1018 0.950 . S
C1024 C1025 1.327 . S
C1025 H1019 0.950 . S
C1025 C1024 1.327 . S
C1025 C1029 1.413 1_556 S
C1026 C1009 1.574 . S
C1026 H1020 0.949 . S
C1026 C1030 1.385 . S
C1027 C1008 1.413 1_554 S
C1027 C1021 1.445 . S
C1027 C1028 1.523 . S
C1028 C1009 1.386 . S
C1028 C1022 1.351 1_554 S
C1028 C1027 1.523 . S
C1029 C1013 1.444 . S
C1029 C1025 1.413 1_554 S
C1029 C1030 1.523 . S
C1030 C1014 1.351 1_554 S
C1030 C1026 1.385 . S
C1030 C1029 1.523 . S
H1031 C1006 0.950 . S
H1032 C1008 0.950 . S
H1033 C1009 0.949 . S
H1034 C1011 0.950 . S
H1035 C1013 0.950 . S
C1036 C1037 1.349 . S
C1036 C1038 1.327 . S
C1036 H1061 0.950 . S
C1037 C1036 1.349 . S
C1037 C1053 1.349 . S
C1038 C1036 1.327 . S
C1038 C1057 1.429 . S
C1038 H1062 0.950 . S
C1039 C1056 1.574 . S
C1039 C1058 1.368 . S
C1039 H1063 0.949 . S
H1040 C1044 0.949 . S
C1041 C1042 1.349 . S
C1041 C1043 1.327 . S
C1041 H1064 0.950 . S
C1042 C1041 1.349 . S
C1042 C1054 1.349 . S
C1043 C1041 1.327 . S
C1043 C1059 1.429 . S
C1043 H1065 0.950 . S
C1044 H1040 0.949 . S
C1044 C1052 1.574 . S
C1044 C1060 1.368 . S
H1045 C1053 0.950 . S
H1046 C1051 0.950 . S
H1047 C1052 0.949 . S
H1048 C1054 0.950 . S
H1049 C1055 0.950 . S
H1050 C1056 0.949 . S
C1051 H1046 0.950 . S
C1051 C1053 1.327 . S
C1051 C1057 1.429 . S
C1052 C1044 1.574 . S
C1052 H1047 0.949 . S
C1052 C1058 1.368 . S
C1053 C1037 1.349 . S
C1053 H1045 0.950 . S
C1053 C1051 1.327 . S
C1054 C1042 1.349 . S
C1054 H1048 0.950 . S
C1054 C1055 1.327 . S
C1055 H1049 0.950 . S
C1055 C1054 1.327 . S
C1055 C1059 1.429 . S
C1056 C1039 1.574 . S
C1056 H1050 0.949 . S
C1056 C1060 1.368 . S
C1057 C1038 1.429 . S
C1057 C1051 1.429 . S
C1057 C1058 1.523 . S
C1058 C1039 1.368 . S
C1058 C1052 1.368 . S
C1058 C1057 1.523 . S
C1059 C1043 1.429 . S
C1059 C1055 1.429 . S
C1059 C1060 1.523 . S
C1060 C1044 1.368 . S
C1060 C1056 1.368 . S
C1060 C1059 1.523 . S
H1061 C1036 0.950 . S
H1062 C1038 0.950 . S
H1063 C1039 0.949 . S
H1064 C1041 0.950 . S
H1065 C1043 0.950 . S
C1066 C1067 1.358 . S
C1066 C1068 1.327 . S
C1066 H1091 0.950 . S
C1067 C1066 1.358 . S
C1067 C1083 1.340 1_554 S
C1068 C1066 1.327 . S
C1068 C1087 1.441 . S
C1068 H1092 0.950 . S
C1069 C1086 1.574 . S
C1069 C1088 1.352 1_556 S
C1069 H1093 0.949 . S
H1070 C1074 0.949 . S
C1071 C1072 1.349 1_556 S
C1071 C1073 1.327 . S
C1071 H1094 0.950 . S
C1072 C1071 1.349 1_554 S
C1072 C1084 1.349 . S
C1073 C1071 1.327 . S
C1073 C1089 1.429 1_556 S
C1073 H1095 0.950 . S
C1074 H1070 0.949 . S
C1074 C1082 1.574 . S
C1074 C1090 1.389 . S
H1075 C1083 0.950 . S
H1076 C1081 0.950 . S
H1077 C1082 0.949 . S
H1078 C1084 0.950 . S
H1079 C1085 0.950 . S
H1080 C1086 0.949 . S
C1081 H1076 0.950 . S
C1081 C1083 1.327 . S
C1081 C1087 1.416 1_556 S
C1082 C1074 1.574 . S
C1082 H1077 0.949 . S
C1082 C1088 1.385 . S
C1083 C1067 1.340 1_556 S
C1083 H1075 0.950 . S
C1083 C1081 1.327 . S
C1084 C1072 1.349 . S
C1084 H1078 0.950 . S
C1084 C1085 1.327 . S
C1085 H1079 0.950 . S
C1085 C1084 1.327 . S
C1085 C1089 1.429 . S
C1086 C1069 1.574 . S
C1086 H1080 0.949 . S
C1086 C1090 1.348 1_556 S
C1087 C1068 1.441 . S
C1087 C1081 1.416 1_554 S
C1087 C1088 1.523 . S
C1088 C1069 1.352 1_554 S
C1088 C1082 1.385 . S
C1088 C1087 1.523 . S
C1089 C1073 1.429 1_554 S
C1089 C1085 1.429 . S
C1089 C1090 1.523 . S
C1090 C1074 1.389 . S
C1090 C1086 1.348 1_554 S
C1090 C1089 1.523 . S
H1091 C1066 0.950 . S
H1092 C1068 0.950 . S
H1093 C1069 0.949 . S
H1094 C1071 0.950 . S
H1095 C1073 0.950 . S
C377 C21 1.593 . S
C382 C197 1.575 . S
C407 C40 1.701 . S
C412 C119 1.623 . S
C442 C155 1.546 . S
C437 C54 1.557 . S
C467 C73 1.741 . S
C472 C161 1.723 . S
C502 C299 1.546 . S
C497 C74 1.558 . S
C532 C305 1.674 . S
C527 C10 1.699 . S
C562 C341 1.574 . S
C557 C37 1.592 . S
C592 C263 1.671 . S
C587 C65 1.743 . S
C617 C52 1.558 . S
C622 C125 1.550 . S
C647 C87 1.741 . S
C652 C191 1.722 . S
C677 C15 1.596 . S
C682 C227 1.563 . S
C712 C89 1.633 . S
C707 C32 1.693 . S
C737 C29 1.597 . S
C742 C371 1.564 . S
C772 C233 1.684 . S
C767 C59 1.739 . S
C802 C269 1.549 . S
C797 C84 1.557 . S
C827 C8 1.695 . S
C832 C335 1.670 . S
C862 C113 1.769 1_554 S
C857 C7 1.841 . S
C892 C149 1.679 . S
C887 C30 1.679 . S
C917 C62 1.862 . S
C922 C185 1.841 . S
C947 C81 1.667 . S
C952 C221 1.644 . S
C982 C257 1.785 . S
C977 C76 1.862 . S
C1007 C18 1.679 . S
C1012 C293 1.680 . S
C1037 C43 1.841 . S
C1042 C329 1.824 . S
C1067 C51 1.667 1_554 S
C1072 C365 1.644 1_554 S
