# Generated by pormake.
# Topology anh, (6,3)-cn, num edge types: 1
# Building blocks:
#     Node 0, Type 0, BuildingBlock: HISSIN_clean_sbu_0, # of connection points: 6
#     Node 1, Type 0, BuildingBlock: HISSIN_clean_sbu_0, # of connection points: 6
#     Node 2, Type 0, BuildingBlock: HISSIN_clean_sbu_0, # of connection points: 6
#     Node 3, Type 1, BuildingBlock: VETTIZ_charged_linker_0, # of connection points: 3
#     Node 4, Type 1, BuildingBlock: VETTIZ_charged_linker_0, # of connection points: 3
#     Node 5, Type 1, BuildingBlock: VETTIZ_charged_linker_0, # of connection points: 3
#     Node 6, Type 1, BuildingBlock: VETTIZ_charged_linker_0, # of connection points: 3
#     Node 7, Type 1, BuildingBlock: VETTIZ_charged_linker_0, # of connection points: 3
#     Node 8, Type 1, BuildingBlock: VETTIZ_charged_linker_0, # of connection points: 3
#     Edge 9, Type (0, 1), BuildingBlock: CIFDUS_clean_linker_0, # of connection points: 2
#     Edge 10, Type (0, 1), BuildingBlock: CIFDUS_clean_linker_0, # of connection points: 2
#     Edge 11, Type (0, 1), BuildingBlock: CIFDUS_clean_linker_0, # of connection points: 2
#     Edge 12, Type (0, 1), BuildingBlock: CIFDUS_clean_linker_0, # of connection points: 2
#     Edge 13, Type (0, 1), BuildingBlock: CIFDUS_clean_linker_0, # of connection points: 2
#     Edge 14, Type (0, 1), BuildingBlock: CIFDUS_clean_linker_0, # of connection points: 2
#     Edge 15, Type (0, 1), BuildingBlock: CIFDUS_clean_linker_0, # of connection points: 2
#     Edge 16, Type (0, 1), BuildingBlock: CIFDUS_clean_linker_0, # of connection points: 2
#     Edge 17, Type (0, 1), BuildingBlock: CIFDUS_clean_linker_0, # of connection points: 2
#     Edge 18, Type (0, 1), BuildingBlock: CIFDUS_clean_linker_0, # of connection points: 2
#     Edge 19, Type (0, 1), BuildingBlock: CIFDUS_clean_linker_0, # of connection points: 2
#     Edge 20, Type (0, 1), BuildingBlock: CIFDUS_clean_linker_0, # of connection points: 2
#     Edge 21, Type (0, 1), BuildingBlock: CIFDUS_clean_linker_0, # of connection points: 2
#     Edge 22, Type (0, 1), BuildingBlock: CIFDUS_clean_linker_0, # of connection points: 2
#     Edge 23, Type (0, 1), BuildingBlock: CIFDUS_clean_linker_0, # of connection points: 2
#     Edge 24, Type (0, 1), BuildingBlock: CIFDUS_clean_linker_0, # of connection points: 2
#     Edge 25, Type (0, 1), BuildingBlock: CIFDUS_clean_linker_0, # of connection points: 2
#     Edge 26, Type (0, 1), BuildingBlock: CIFDUS_clean_linker_0, # of connection points: 2
# Relax obj value: 0.264
# Max RMSD: 0.193
# Mean RMSD: 0.161
data_MOF--net-anh--node1-HISSIN_clean_sbu_0--node2-VETTIZ_charged_linker_0--edge1-CIFDUS_clean_linker_0
_symmetry_space_group_name_H-M    P1
_symmetry_Int_Tables_number       1
_symmetry_cell_setting            triclinic
loop_
_symmetry_equiv_pos_as_xyz
'x, y, z'
_cell_length_a     32.798786
_cell_length_b     32.857006
_cell_length_c     60.348048
_cell_angle_alpha  92.690223
_cell_angle_beta   90.646047
_cell_angle_gamma 119.8445
loop_
_atom_site_label
_atom_site_type_symbol
_atom_site_fract_x
_atom_site_fract_y
_atom_site_fract_z
_atom_type_partial_charge
Eu0 Eu 1.04923 0.48446 0.16902 0.0
Eu1 Eu 0.10305 0.59395 0.1625 0.0
C2 C 1.08486 0.55789 0.2123 0.0
C3 C 0.94611 0.38203 0.18402 0.0
C4 C 0.94449 0.4097 0.20211 0.0
C5 C 0.86233 0.35032 0.17689 0.0
C6 C 0.90307 0.40977 0.20672 0.0
C7 C 0.90425 0.35091 0.172 0.0
C8 C 0.8618 0.38135 0.19368 0.0
C9 C 0.99172 0.39672 0.17394 0.0
O10 O 0.16042 0.57329 0.15795 0.0
O11 O 0.12655 0.49913 0.17055 0.0
C12 C 0.16409 0.5366 0.16345 0.0
O13 O 1.07368 0.49484 0.13399 0.0
O14 O 0.13729 0.66936 0.17123 0.0
O15 O 0.13449 0.64408 0.13708 0.0
O16 O 1.05845 0.55394 0.13203 0.0
C17 C 1.06419 0.52128 0.12203 0.0
O18 O 0.98885 0.50265 0.16402 0.0
O19 O 1.02926 0.58309 0.16735 0.0
O20 O 0.11156 0.59227 0.19973 0.0
O21 O 0.9956 0.41562 0.15497 0.0
O22 O 1.02915 0.42128 0.18701 0.0
O23 O 1.05467 0.51596 0.20362 0.0
C24 C 0.20273 0.71332 0.14894 0.0
C25 C 0.21819 0.73337 0.12853 0.0
C26 C 0.28326 0.75517 0.16369 0.0
C27 C 0.26576 0.76463 0.12578 0.0
C28 C 0.23572 0.72351 0.16635 0.0
C29 C 0.29867 0.77683 0.14351 0.0
C30 C 0.15242 0.68037 0.15124 0.0
C31 C 0.98876 0.54318 0.16539 0.0
H32 H 0.97615 0.43459 0.21159 0.0
H33 H 0.83085 0.32693 0.16692 0.0
H34 H 0.90445 0.43448 0.21963 0.0
H35 H 0.90468 0.32974 0.15779 0.0
H36 H 0.19331 0.72519 0.11475 0.0
H37 H 0.30752 0.76432 0.17782 0.0
H38 H 0.2766 0.7803 0.10997 0.0
H39 H 0.22479 0.70779 0.18214 0.0
Eu40 Eu 0.60898 1.03984 0.50215 0.0
Eu41 Eu 0.54397 0.08797 0.50141 0.0
C42 C 0.57772 0.06929 0.54888 0.0
C43 C 0.68516 0.97649 0.49528 0.0
C44 C 0.6607 0.92877 0.49976 0.0
C45 C 0.7541 0.97032 0.48685 0.0
C46 C 0.68354 0.90246 0.49858 0.0
C47 C 0.73121 0.99643 0.48786 0.0
C48 C 0.73112 0.92378 0.49315 0.0
C49 C 0.66772 1.00838 0.50199 0.0
O50 O 0.61864 0.15359 0.50079 0.0
O51 O 0.66441 0.11902 0.49901 0.0
C52 C 0.66076 0.15743 0.49904 0.0
O53 O 0.57685 1.02538 0.46751 0.0
O54 O 0.51948 0.13507 0.51386 0.0
O55 O 0.48988 0.0939 0.48277 0.0
O56 O 0.5771 0.09424 0.46857 0.0
C57 C 0.57575 1.05886 0.45723 0.0
O58 O 0.53406 0.97391 0.49942 0.0
O59 O 0.48767 1.00826 0.49911 0.0
O60 O 0.54969 0.07988 0.53799 0.0
O61 O 0.66915 1.03819 0.48807 0.0
O62 O 0.63318 0.9948 0.5156 0.0
O63 O 0.60519 1.05674 0.5386 0.0
C64 C 0.51182 0.1741 0.48433 0.0
C65 C 0.54477 0.18558 0.46764 0.0
C66 C 0.53335 0.25612 0.48924 0.0
C67 C 0.57392 0.23232 0.46291 0.0
C68 C 0.50433 0.20924 0.49413 0.0
C69 C 0.57028 0.26805 0.4747 0.0
C70 C 0.49586 0.13006 0.49538 0.0
C71 C 0.49156 0.96986 0.49847 0.0
H72 H 0.62518 0.91268 0.50557 0.0
H73 H 0.7907 0.98736 0.48254 0.0
H74 H 0.6652 0.86666 0.50367 0.0
H75 H 0.75075 1.03329 0.48442 0.0
H76 H 0.55145 0.15919 0.45988 0.0
H77 H 0.53037 0.28333 0.49868 0.0
H78 H 0.60235 0.24092 0.45173 0.0
H79 H 0.47947 0.20116 0.50717 0.0
Eu80 Eu 0.56591 0.54717 0.83347 0.0
Eu81 Eu 0.67577 0.60111 0.84075 0.0
C82 C 0.61189 0.57242 0.88299 0.0
C83 C 0.45852 0.54413 0.8172 0.0
C84 C 0.41548 0.53704 0.82486 0.0
C85 C 0.48025 0.62386 0.8087 0.0
C86 C 0.40564 0.57382 0.82515 0.0
C87 C 0.48959 0.58684 0.80793 0.0
C88 C 0.4391 0.61801 0.81813 0.0
C89 C 0.47725 0.51456 0.82455 0.0
O90 O 0.65859 0.52343 0.84037 0.0
O91 O 0.57897 0.48334 0.83217 0.0
C92 C 0.61887 0.48298 0.83589 0.0
O93 O 0.59834 0.5694 0.79992 0.0
O94 O 0.74118 0.61781 0.85831 0.0
O95 O 0.74256 0.65619 0.82971 0.0
O96 O 0.66113 0.56157 0.80806 0.0
C97 C 0.63208 0.5619 0.7934 0.0
O98 O 0.58399 0.6255 0.83855 0.0
O99 O 0.65953 0.65742 0.82836 0.0
O100 O 0.64962 0.60587 0.8745 0.0
O101 O 0.5044 0.50839 0.81079 0.0
O102 O 0.49563 0.52619 0.84471 0.0
O103 O 0.57753 0.54019 0.86994 0.0
C104 C 0.80028 0.63536 0.83289 0.0
C105 C 0.78362 0.59288 0.82012 0.0
C106 C 0.88008 0.65601 0.82508 0.0
C107 C 0.81515 0.58158 0.81018 0.0
C108 C 0.84849 0.66723 0.83501 0.0
C109 C 0.86375 0.61274 0.81286 0.0
C110 C 0.76701 0.64651 0.84349 0.0
C111 C 0.62256 0.66244 0.83212 0.0
H112 H 0.39155 0.50476 0.83242 0.0
H113 H 0.50655 0.65789 0.80344 0.0
H114 H 0.37387 0.56909 0.83273 0.0
H115 H 0.52328 0.59325 0.80211 0.0
H116 H 0.74626 0.56816 0.81813 0.0
H117 H 0.91739 0.68033 0.82783 0.0
H118 H 0.80165 0.54811 0.80086 0.0
H119 H 0.86169 0.70029 0.84468 0.0
C120 C 0.60055 0.3089 0.21675 0.0
C121 C 0.62523 0.34583 0.23309 0.0
C122 C 0.60863 0.33812 0.25489 0.0
C123 C 0.56582 0.25442 0.24557 0.0
C124 C 0.57318 0.26319 0.22341 0.0
C125 C 0.55889 0.21928 0.20898 0.0
H126 H 0.48738 0.98838 0.20083 0.0
C127 C 0.55004 0.20418 0.24779 0.0
C128 C 0.54576 0.18352 0.22637 0.0
H129 H 0.50888 0.0803 0.14767 0.0
H130 H 0.53461 0.1459 0.17437 0.0
H131 H 0.58317 1.0593 0.22735 0.0
H132 H 0.44037 1.02725 0.23457 0.0
H133 H 0.46503 1.02876 0.261 0.0
H134 H 0.46166 0.9874 0.23947 0.0
H135 H 0.54359 1.01221 0.24355 0.0
H136 H 0.57921 0.07142 0.25562 0.0
C137 C 0.60213 0.22541 0.19598 0.0
C138 C 0.51577 0.20965 0.19417 0.0
C139 C 0.55299 0.14646 0.32395 0.0
C140 C 0.55237 0.10584 0.33095 0.0
C141 C 0.54206 0.06881 0.31501 0.0
C142 C 0.53401 0.07281 0.29256 0.0
C143 C 0.53715 0.11458 0.28582 0.0
C144 C 0.54636 0.15048 0.30142 0.0
C145 C 0.55349 0.19419 0.29105 0.0
C146 C 0.54637 0.17833 0.2666 0.0
C147 C 0.53648 0.13158 0.26369 0.0
C148 C 0.60451 0.23419 0.29716 0.0
C149 C 0.51478 0.20471 0.29894 0.0
C150 C 0.49901 1.02281 0.19477 0.0
C151 C 0.49541 1.02885 0.172 0.0
C152 C 0.51037 0.07439 0.16509 0.0
C153 C 0.52504 0.11243 0.18066 0.0
C154 C 0.52567 0.10512 0.20339 0.0
C155 C 0.51413 1.06121 0.21008 0.0
C156 C 0.5175 1.06022 0.23492 0.0
C157 C 0.53005 0.11013 0.24203 0.0
C158 C 0.53488 0.13612 0.2235 0.0
C159 C 0.55764 1.05001 0.24081 0.0
C160 C 0.46873 1.02386 0.24306 0.0
H161 H 0.57205 0.28764 0.2786 0.0
H162 H 0.60876 0.31298 0.19945 0.0
H163 H 0.49315 0.22092 0.20306 0.0
H164 H 0.49225 0.17186 0.18965 0.0
H165 H 0.52692 0.22915 0.17881 0.0
H166 H 0.63539 0.24719 0.20606 0.0
H167 H 0.60515 0.24298 0.18032 0.0
H168 H 0.60172 0.19208 0.19203 0.0
H169 H 0.55995 0.17545 0.33561 0.0
H170 H 0.54179 1.03727 0.31965 0.0
H171 H 0.52688 1.04369 0.28124 0.0
H172 H 0.6286 0.21996 0.29974 0.0
H173 H 0.60592 0.2544 0.31271 0.0
H174 H 0.62056 0.25873 0.2839 0.0
H175 H 0.4803 0.17166 0.2992 0.0
H176 H 0.50894 0.22712 0.28773 0.0
H177 H 0.52332 0.22173 0.31599 0.0
H178 H 0.623 0.36647 0.26766 0.0
C179 C 0.57929 0.29221 0.26131 0.0
C180 C 0.86437 0.77834 0.54707 0.0
C181 C 0.85964 0.81521 0.55692 0.0
C182 C 0.85183 0.81576 0.57982 0.0
C183 C 0.84161 0.73774 0.58118 0.0
C184 C 0.85465 0.73976 0.55937 0.0
C185 C 0.84898 0.69397 0.5501 0.0
H186 H 0.74909 0.46081 0.55669 0.0
C187 C 0.82381 0.68915 0.58772 0.0
C188 C 0.82879 0.66363 0.56966 0.0
H189 H 0.81802 0.54387 0.50131 0.0
H190 H 0.84454 0.61532 0.52445 0.0
H191 H 0.83005 0.5329 0.59724 0.0
H192 H 0.69961 0.51211 0.56899 0.0
H193 H 0.69919 0.52495 0.59741 0.0
H194 H 0.70151 0.47315 0.58831 0.0
H195 H 0.77409 0.48258 0.60201 0.0
H196 H 0.79703 0.53638 0.61927 0.0
C197 C 0.89842 0.70181 0.5449 0.0
C198 C 0.81362 0.67653 0.52975 0.0
C199 C 0.73661 0.63705 0.65933 0.0
C200 C 0.71188 0.59305 0.66861 0.0
C201 C 0.71052 0.55365 0.65746 0.0
C202 C 0.7333 0.55793 0.63752 0.0
C203 C 0.75718 0.60192 0.6283 0.0
C204 C 0.75889 0.64064 0.63926 0.0
C205 C 0.7853 0.68439 0.62675 0.0
C206 C 0.79948 0.66555 0.60657 0.0
C207 C 0.78238 0.6171 0.60749 0.0
C208 C 0.82862 0.72077 0.64126 0.0
C209 C 0.75024 0.70113 0.62054 0.0
C210 C 0.77143 0.49455 0.54989 0.0
C211 C 0.78216 0.4973 0.52738 0.0
C212 C 0.8099 0.54141 0.51872 0.0
C213 C 0.82478 0.58265 0.53215 0.0
C214 C 0.81015 0.57946 0.55415 0.0
C215 C 0.78512 0.53596 0.56289 0.0
C216 C 0.76931 0.53904 0.5859 0.0
C217 C 0.78843 0.59156 0.58943 0.0
C218 C 0.8121 0.61489 0.57076 0.0
C219 C 0.79344 0.52156 0.60208 0.0
C220 C 0.71467 0.51072 0.58537 0.0
H221 H 0.83485 0.7784 0.60915 0.0
H222 H 0.87071 0.77734 0.52952 0.0
H223 H 0.78815 0.68946 0.53131 0.0
H224 H 0.79108 0.63795 0.52803 0.0
H225 H 0.83211 0.68903 0.51407 0.0
H226 H 0.92518 0.72654 0.55765 0.0
H227 H 0.90954 0.71704 0.52852 0.0
H228 H 0.90045 0.66926 0.54527 0.0
H229 H 0.73903 0.6682 0.6676 0.0
H230 H 0.69138 0.51923 0.66406 0.0
H231 H 0.73077 0.52658 0.62987 0.0
H232 H 0.84281 0.70302 0.65154 0.0
H233 H 0.81937 0.74212 0.65273 0.0
H234 H 0.85835 0.74448 0.63127 0.0
H235 H 0.71519 0.67064 0.61538 0.0
H236 H 0.76073 0.72357 0.60632 0.0
H237 H 0.74527 0.7204 0.63491 0.0
H238 H 0.84822 0.84396 0.58781 0.0
C239 C 0.84316 0.77724 0.59208 0.0
C240 C 0.31967 0.7447 0.88691 0.0
C241 C 0.3615 0.74926 0.89604 0.0
C242 C 0.35945 0.73232 0.91745 0.0
C243 C 0.27437 0.68971 0.91426 0.0
C244 C 0.27695 0.70968 0.89431 0.0
C245 C 0.23466 0.67936 0.8792 0.0
H246 H 1.00933 0.51071 0.86686 0.0
C247 C 0.22679 0.64848 0.91522 0.0
C248 C 0.20393 0.64161 0.89448 0.0
H249 H 0.1035 0.59027 0.8158 0.0
H250 H 0.16765 0.62512 0.84254 0.0
H251 H 1.08716 0.48115 0.8878 0.0
H252 H 1.04602 0.58405 0.90457 0.0
H253 H 1.0563 0.56531 0.92972 0.0
H254 H 1.01022 0.52347 0.91054 0.0
H255 H 1.03111 0.46618 0.89881 0.0
H256 H 1.08213 0.48336 0.91675 0.0
C257 C 0.25032 0.65876 0.85941 0.0
C258 C 0.2126 0.70907 0.87225 0.0
C259 C 0.1684 0.57159 0.98811 0.0
C260 C 0.12362 0.53783 0.99464 0.0
C261 C 1.08609 0.51619 0.97872 0.0
C262 C 1.09289 0.52823 0.95659 0.0
C263 C 0.13758 0.56272 0.95035 0.0
C264 C 0.17445 0.58399 0.966 0.0
C265 C 0.21915 0.62078 0.95636 0.0
C266 C 0.2024 0.61915 0.9326 0.0
C267 C 0.15492 0.58431 0.92909 0.0
C268 C 0.25634 0.60486 0.95765 0.0
C269 C 0.23462 0.66867 0.96889 0.0
C270 C 1.04398 0.53402 0.86102 0.0
C271 C 1.0505 0.54918 0.83917 0.0
C272 C 1.0967 0.57949 0.83267 0.0
C273 C 0.13433 0.5995 0.84825 0.0
C274 C 0.1264 0.58726 0.87037 0.0
C275 C 1.08251 0.55294 0.87617 0.0
C276 C 1.08167 0.54233 0.90023 0.0
C277 C 0.1323 0.57651 0.90785 0.0
C278 C 0.15755 0.60378 0.89045 0.0
C279 C 1.0696 0.49051 0.90115 0.0
C280 C 1.04658 0.55396 0.91201 0.0
H281 H 0.31636 0.68895 0.94233 0.0
H282 H 0.31919 0.75978 0.87145 0.0
H283 H 0.20709 0.72685 0.8871 0.0
H284 H 0.17797 0.68783 0.86354 0.0
H285 H 0.23606 0.73658 0.86115 0.0
H286 H 0.28487 0.6612 0.86289 0.0
H287 H 0.25356 0.67747 0.84409 0.0
H288 H 0.22616 0.62055 0.85596 0.0
H289 H 0.19767 0.58905 0.00012 0.0
H290 H 1.05135 0.49009 0.98348 0.0
H291 H 1.06288 0.51073 0.94529 0.0
H292 H 0.23955 0.56601 0.95818 0.0
H293 H 0.2798 0.6208 0.97274 0.0
H294 H 0.27799 0.61344 0.9428 0.0
H295 H 0.20493 0.67594 0.96927 0.0
H296 H 0.26386 0.69836 0.96109 0.0
H297 H 0.24602 0.66878 0.9863 0.0
H298 H 0.3905 0.73649 0.92604 0.0
C299 C 0.31595 0.70339 0.9268 0.0
C300 C 0.9514 0.44108 0.48706 0.0
C301 C 0.90989 0.40327 0.47519 0.0
C302 C 0.9087 0.40581 0.45198 0.0
C303 C 0.98577 0.47799 0.45237 0.0
C304 C 0.98873 0.47874 0.47525 0.0
C305 C 1.03485 0.5242 0.48378 0.0
H306 H 0.24878 0.71913 0.45027 0.0
C307 C 1.0293 0.5189 0.44406 0.0
C308 C 1.05958 0.54763 0.46224 0.0
H309 H 0.20467 0.7042 0.5177 0.0
H310 H 0.132 0.6294 0.5062 0.0
H311 H 0.21471 0.61151 0.43698 0.0
H312 H 0.15547 0.70123 0.43184 0.0
H313 H 0.13579 0.66505 0.40743 0.0
H314 H 0.19813 0.70275 0.41309 0.0
H315 H 0.23277 0.65552 0.41704 0.0
H316 H 0.1854 0.59612 0.41085 0.0
C317 C 1.06593 0.51137 0.49762 0.0
C318 C 1.02163 0.55629 0.49743 0.0
C319 C 1.04421 0.52709 0.35973 0.0
C320 C 1.08067 0.55644 0.34595 0.0
C321 C 0.12312 0.59219 0.3563 0.0
C322 C 0.12893 0.59899 0.37951 0.0
C323 C 1.09209 0.56977 0.39301 0.0
C324 C 1.05089 0.53421 0.38302 0.0
C325 C 1.01646 0.50517 0.39992 0.0
C326 C 1.04331 0.5298 0.42179 0.0
C327 C 1.08737 0.56794 0.4176 0.0
C328 C 1.00812 0.45434 0.39666 0.0
C329 C 0.97177 0.50956 0.39683 0.0
C330 C 0.2245 0.70002 0.46293 0.0
C331 C 0.23451 0.71871 0.48506 0.0
C332 C 0.19931 0.69171 0.50042 0.0
C333 C 0.15683 0.64817 0.49378 0.0
C334 C 0.14745 0.63089 0.47125 0.0
C335 C 0.18171 0.6581 0.45654 0.0
C336 C 0.16657 0.63996 0.43306 0.0
C337 C 0.11813 0.59755 0.43544 0.0
C338 C 0.10534 0.58954 0.45793 0.0
C339 C 0.20166 0.62526 0.42379 0.0
C340 C 0.16407 0.67906 0.42052 0.0
H341 H 0.94047 0.43952 0.42319 0.0
H342 H 0.95436 0.44162 0.50495 0.0
H343 H 0.99828 0.56442 0.48735 0.0
H344 H 1.05323 0.58995 0.50289 0.0
H345 H 1.00275 0.53892 0.5124 0.0
H346 H 1.07452 0.48752 0.48763 0.0
H347 H 1.04757 0.49329 0.51256 0.0
H348 H 1.09939 0.54339 0.50314 0.0
H349 H 1.01093 0.49921 0.35265 0.0
H350 H 0.15252 0.61466 0.34648 0.0
H351 H 0.16226 0.62694 0.38595 0.0
H352 H 1.03925 0.45406 0.38968 0.0
H353 H 0.97756 0.43219 0.38508 0.0
H354 H 1.003 0.43691 0.41244 0.0
H355 H 0.98095 0.54493 0.3914 0.0
H356 H 0.95332 0.50633 0.41243 0.0
H357 H 0.94682 0.48311 0.38406 0.0
H358 H 0.87926 0.37862 0.44197 0.0
C359 C 0.94533 0.44179 0.44084 0.0
C360 C 0.6086 0.9435 0.82188 0.0
C361 C 0.61141 0.90561 0.80981 0.0
C362 C 0.61315 0.90794 0.78658 0.0
C363 C 0.61067 0.98142 0.78739 0.0
C364 C 0.60892 0.98164 0.81025 0.0
C365 C 0.6073 1.02638 0.81892 0.0
H366 H 0.61889 0.23836 0.78684 0.0
C367 C 0.61051 1.02393 0.77931 0.0
C368 C 0.60929 1.05224 0.79758 0.0
H369 H 0.5975 0.19489 0.85387 0.0
H370 H 0.5997 0.12255 0.84185 0.0
H371 H 0.69245 0.20724 0.77301 0.0
H372 H 0.54247 0.1434 0.76816 0.0
H373 H 0.55625 0.12232 0.74394 0.0
H374 H 0.57949 0.18478 0.74891 0.0
H375 H 0.66206 0.22407 0.75385 0.0
H376 H 0.67585 0.17854 0.74648 0.0
C377 C 0.65001 1.05725 0.83465 0.0
C378 C 0.56099 1.01137 0.83061 0.0
C379 C 0.60851 1.03794 0.69512 0.0
C380 C 0.60884 0.07213 0.68168 0.0
C381 C 0.61223 0.11296 0.69223 0.0
C382 C 0.61434 0.11929 0.71544 0.0
C383 C 0.61282 0.08441 0.72869 0.0
C384 C 0.61046 1.04485 0.71845 0.0
C385 C 0.61045 1.01217 0.73514 0.0
C386 C 0.61148 1.03778 0.75715 0.0
C387 C 0.61295 0.08009 0.75321 0.0
C388 C 0.65607 1.00936 0.73232 0.0
C389 C 0.56391 0.96463 0.73127 0.0
C390 C 0.61561 0.21438 0.79933 0.0
C391 C 0.60917 0.22444 0.82149 0.0
C392 C 0.60304 0.18952 0.83659 0.0
C393 C 0.60428 0.14734 0.82966 0.0
C394 C 0.6104 0.13815 0.80711 0.0
C395 C 0.61508 0.17201 0.79267 0.0
C396 C 0.61603 0.15696 0.76911 0.0
C397 C 0.61311 0.10973 0.77119 0.0
C398 C 0.61046 0.09696 0.79355 0.0
C399 C 0.66378 0.19355 0.75992 0.0
C400 C 0.57166 0.15183 0.75671 0.0
H401 H 0.61361 0.94183 0.75796 0.0
H402 H 0.60686 0.94376 0.83977 0.0
H403 H 0.53043 0.98816 0.81918 0.0
H404 H 0.55778 1.04232 0.83601 0.0
H405 H 0.55907 0.99181 0.84546 0.0
H406 H 0.68321 0.06714 0.82607 0.0
H407 H 0.64929 1.03813 0.84948 0.0
H408 H 0.65033 0.09001 0.84032 0.0
H409 H 0.60608 1.00611 0.68771 0.0
H410 H 0.61385 0.14057 0.68251 0.0
H411 H 0.61715 0.15145 0.72206 0.0
H412 H 0.68421 1.0411 0.72484 0.0
H413 H 0.64948 0.97837 0.72139 0.0
H414 H 0.67206 1.00834 0.7484 0.0
H415 H 0.53437 0.97036 0.72646 0.0
H416 H 0.55226 0.94456 0.74633 0.0
H417 H 0.56696 0.94229 0.71774 0.0
H418 H 0.61391 0.88032 0.77638 0.0
C419 C 0.6127 0.94444 0.77563 0.0
C420 C 0.69451 0.53166 0.15407 0.0
C421 C 0.73428 0.53447 0.14241 0.0
C422 C 0.73194 0.53603 0.11917 0.0
C423 C 0.65646 0.53432 0.11927 0.0
C424 C 0.6559 0.53203 0.14206 0.0
C425 C 0.61005 0.53008 0.15027 0.0
H426 H 0.40373 0.5346 0.11638 0.0
C427 C 0.6133 0.53428 0.11077 0.0
C428 C 0.58466 0.53206 0.1287 0.0
H429 H 0.4361 0.52098 0.18404 0.0
H430 H 0.50967 0.52362 0.17237 0.0
H431 H 0.50555 0.61117 0.10401 0.0
H432 H 0.42569 0.46078 0.09717 0.0
H433 H 0.4582 0.47687 0.07317 0.0
H434 H 0.41672 0.4968 0.07857 0.0
H435 H 0.45746 0.5794 0.08412 0.0
H436 H 0.51704 0.59591 0.07754 0.0
C437 C 0.62279 0.57273 0.16633 0.0
C438 C 0.57995 0.4837 0.16138 0.0
C439 C 0.59519 0.53944 0.02673 0.0
C440 C 0.55981 0.53851 0.01287 0.0
C441 C 0.52082 0.53782 0.02283 0.0
C442 C 0.51686 0.53766 0.04595 0.0
C443 C 0.55201 0.53774 0.05963 0.0
C444 C 0.59032 0.53869 0.04991 0.0
C445 C 0.62381 0.53798 0.06693 0.0
C446 C 0.59925 0.53615 0.08854 0.0
C447 C 0.55735 0.53623 0.08415 0.0
C448 C 0.67132 0.58462 0.06591 0.0
C449 C 0.6263 0.49245 0.06188 0.0
C450 C 0.42637 0.53303 0.1291 0.0
C451 C 0.41289 0.52845 0.15131 0.0
C452 C 0.44439 0.52472 0.16668 0.0
C453 C 0.48734 0.52633 0.15997 0.0
C454 C 0.49968 0.53091 0.13743 0.0
C455 C 0.46822 0.53367 0.12272 0.0
C456 C 0.48267 0.53549 0.0993 0.0
C457 C 0.52832 0.53468 0.10178 0.0
C458 C 0.54036 0.53225 0.12422 0.0
C459 C 0.49087 0.58263 0.09057 0.0
C460 C 0.44393 0.49053 0.0862 0.0
H461 H 0.69693 0.53744 0.09028 0.0
H462 H 0.6938 0.52987 0.17192 0.0
H463 H 0.57214 0.45326 0.14972 0.0
H464 H 0.54604 0.48023 0.1664 0.0
H465 H 0.59876 0.48187 0.1764 0.0
H466 H 0.64546 0.60593 0.15819 0.0
H467 H 0.64219 0.57193 0.18137 0.0
H468 H 0.59077 0.57317 0.17164 0.0
H469 H 0.62553 0.53969 0.01967 0.0
H470 H 0.49337 0.53782 0.01267 0.0
H471 H 0.48629 0.53743 0.05217 0.0
H472 H 0.66587 0.61367 0.0607 0.0
H473 H 0.69474 0.58087 0.05385 0.0
H474 H 0.69018 0.59766 0.08227 0.0
H475 H 0.59259 0.46372 0.05416 0.0
H476 H 0.63157 0.4776 0.077 0.0
H477 H 0.6545 0.49854 0.05023 0.0
H478 H 0.75933 0.53638 0.10919 0.0
C479 C 0.69449 0.53613 0.10789 0.0
H480 H 0.20626 0.48723 0.18287 0.0
H481 H 0.23214 0.59088 0.1354 0.0
H482 H 0.308 0.59792 0.12792 0.0
H483 H 0.36908 0.57575 0.1341 0.0
H484 H 0.34766 0.47528 0.18248 0.0
H485 H 0.27063 0.46705 0.19025 0.0
C486 C 0.22827 0.51132 0.17083 0.0
C487 C 0.21167 0.53828 0.15973 0.0
C488 C 0.27394 0.51627 0.16671 0.0
C489 C 0.24242 0.56947 0.14443 0.0
C490 C 0.28651 0.57363 0.14003 0.0
C491 C 0.34787 0.55177 0.14637 0.0
C492 C 0.36576 0.52605 0.15747 0.0
C493 C 0.30297 0.54735 0.15098 0.0
C494 C 0.33649 0.49612 0.17358 0.0
C495 C 0.29166 0.49109 0.17797 0.0
H496 H 0.75793 0.20265 0.51424 0.0
H497 H 0.6632 0.22363 0.47257 0.0
H498 H 0.72824 0.29925 0.46275 0.0
H499 H 0.81294 0.36071 0.46493 0.0
H500 H 0.90922 0.34385 0.50741 0.0
H501 H 0.84394 0.26821 0.51818 0.0
C502 C 0.75121 0.22374 0.5031 0.0
C503 C 0.70398 0.2059 0.49435 0.0
C504 C 0.78977 0.26923 0.49772 0.0
C505 C 0.69777 0.23521 0.47995 0.0
C506 C 0.73554 0.27899 0.47418 0.0
C507 C 0.82017 0.34101 0.47672 0.0
C508 C 0.86767 0.35975 0.48515 0.0
C509 C 0.78183 0.29672 0.48289 0.0
C510 C 0.87419 0.33223 0.50061 0.0
C511 C 0.83637 0.28808 0.50665 0.0
H512 H 0.57114 0.70682 0.84902 0.0
H513 H 0.68035 0.7278 0.80404 0.0
H514 H 0.68806 0.80244 0.79459 0.0
H515 H 0.66432 0.86308 0.79789 0.0
H516 H 0.55778 0.84705 0.84337 0.0
H517 H 0.55075 0.77246 0.85414 0.0
C518 C 0.59665 0.72753 0.83711 0.0
C519 C 0.62491 0.70975 0.82727 0.0
C520 C 0.60199 0.77262 0.83184 0.0
C521 C 0.65789 0.73892 0.81211 0.0
C522 C 0.66243 0.78231 0.80659 0.0
C523 C 0.63926 0.84364 0.81022 0.0
C524 C 0.61152 0.86235 0.81952 0.0
C525 C 0.63478 0.79977 0.81621 0.0
C526 C 0.5802 0.83534 0.83578 0.0
C527 C 0.57558 0.79166 0.84175 0.0
H528 H 0.89626 0.49544 0.1833 0.0
H529 H 0.97833 0.59817 0.13657 0.0
H530 H 0.9107 0.60649 0.12677 0.0
H531 H 0.82773 0.58496 0.13033 0.0
H532 H 0.74344 0.4854 0.17768 0.0
H533 H 0.81259 0.47947 0.18939 0.0
C534 C 0.89948 0.51964 0.17094 0.0
C535 C 0.94368 0.54577 0.16057 0.0
C536 C 0.85962 0.52562 0.16559 0.0
C537 C 0.94589 0.57733 0.14492 0.0
C538 C 0.90676 0.58222 0.13923 0.0
C539 C 0.82352 0.56111 0.14305 0.0
C540 C 0.77848 0.53498 0.15256 0.0
C541 C 0.86327 0.5565 0.14928 0.0
C542 C 0.77635 0.50609 0.16968 0.0
C543 C 0.81606 0.50182 0.17612 0.0
H544 H 0.398 0.93441 0.51313 0.0
H545 H 0.48265 0.89084 0.47603 0.0
H546 H 0.41399 0.81261 0.46863 0.0
H547 H 0.32812 0.75463 0.47178 0.0
H548 H 0.24447 0.79479 0.51177 0.0
H549 H 0.31286 0.87375 0.51885 0.0
C550 C 0.40175 0.90794 0.50345 0.0
C551 C 0.44701 0.92026 0.49511 0.0
C552 C 0.36138 0.86118 0.49971 0.0
C553 C 0.44955 0.8839 0.48285 0.0
C554 C 0.4097 0.83852 0.47851 0.0
C555 C 0.32453 0.78034 0.4822 0.0
C556 C 0.27954 0.76709 0.4911 0.0
C557 C 0.36515 0.8264 0.48674 0.0
C558 C 0.2775 0.80226 0.50469 0.0
C559 C 0.3171 0.84817 0.50867 0.0
H560 H 0.55992 0.38933 0.84958 0.0
H561 H 0.68531 0.47215 0.81386 0.0
H562 H 0.69359 0.40296 0.80633 0.0
H563 H 0.66573 0.31741 0.80911 0.0
H564 H 0.54521 0.23502 0.84773 0.0
H565 H 0.53537 0.30384 0.85484 0.0
C566 C 0.58912 0.39246 0.84012 0.0
C567 C 0.62173 0.43737 0.8322 0.0
C568 C 0.59491 0.35174 0.83636 0.0
C569 C 0.65943 0.43924 0.8203 0.0
C570 C 0.66426 0.39914 0.8159 0.0
C571 C 0.63732 0.31418 0.81924 0.0
C572 C 0.60628 0.2695 0.82775 0.0
C573 C 0.63235 0.35496 0.82377 0.0
C574 C 0.5702 0.26787 0.84097 0.0
C575 C 0.56432 0.3077 0.84495 0.0
H576 H 0.811 0.95993 0.51837 0.0
H577 H 0.71109 0.83504 0.47959 0.0
H578 H 0.74866 0.79238 0.49353 0.0
H579 H 0.80179 0.78796 0.52071 0.0
H580 H 0.89695 0.91071 0.56213 0.0
H581 H 0.86978 0.95751 0.54293 0.0
C582 C 0.79838 0.92376 0.51249 0.0
C583 C 0.75851 0.90049 0.49797 0.0
C584 C 0.81899 0.8992 0.52122 0.0
C585 C 0.74172 0.85342 0.49079 0.0
C586 C 0.76309 0.82912 0.4988 0.0
C587 C 0.81774 0.82534 0.52505 0.0
C588 C 0.85148 0.84608 0.54271 0.0
C589 C 0.80065 0.85126 0.51459 0.0
C590 C 0.87095 0.89417 0.54857 0.0
C591 C 0.85529 0.92076 0.53767 0.0
H592 H 0.85735 0.5282 0.81771 0.0
H593 H 0.94674 0.66463 0.79268 0.0
H594 H 1.01303 0.65052 0.79335 0.0
H595 H 1.04791 0.60959 0.81053 0.0
H596 H 0.95979 0.47322 0.83623 0.0
H597 H 0.88997 0.47699 0.82532 0.0
C598 C 0.8908 0.55404 0.81152 0.0
C599 C 0.89776 0.59806 0.80588 0.0
C600 C 0.92903 0.54623 0.81257 0.0
C601 C 0.94112 0.63106 0.79773 0.0
C602 C 0.97897 0.62302 0.79815 0.0
C603 C 1.01372 0.57941 0.81295 0.0
C604 C 1.00947 0.54211 0.82522 0.0
C605 C 0.97393 0.58217 0.80702 0.0
C606 C 0.96431 0.50348 0.8278 0.0
C607 C 0.92429 0.50553 0.82151 0.0
H608 H 0.32461 0.85883 0.12479 0.0
H609 H 0.38127 0.78558 0.16007 0.0
H610 H 0.45519 0.85932 0.16754 0.0
H611 H 0.49564 0.94562 0.17077 0.0
H612 H 0.43329 1.01734 0.13846 0.0
H613 H 0.37145 0.94317 0.12184 0.0
C614 C 0.35367 0.85846 0.13335 0.0
C615 C 0.34707 0.81703 0.14235 0.0
C616 C 0.39524 0.901 0.13818 0.0
C617 C 0.38514 0.81737 0.15348 0.0
C618 C 0.42737 0.85948 0.15774 0.0
C619 C 0.46896 0.94506 0.15977 0.0
C620 C 0.46844 0.98693 0.1565 0.0
C621 C 0.43162 0.90184 0.15131 0.0
C622 C 0.43474 0.98585 0.14147 0.0
C623 C 0.39877 0.94322 0.13214 0.0
H624 H 0.65523 0.29102 0.49073 0.0
H625 H 0.57528 0.35111 0.46509 0.0
H626 H 0.64057 0.43047 0.47553 0.0
H627 H 0.71486 0.4807 0.497 0.0
H628 H 0.78962 0.41851 0.52636 0.0
H629 H 0.73247 0.34157 0.50905 0.0
C630 C 0.65305 0.32166 0.48665 0.0
C631 C 0.61134 0.31578 0.4768 0.0
C632 C 0.68967 0.36646 0.49351 0.0
C633 C 0.60751 0.35528 0.47244 0.0
C634 C 0.64466 0.40039 0.47849 0.0
C635 C 0.71939 0.45046 0.49881 0.0
C636 C 0.75633 0.4548 0.51258 0.0
C637 C 0.68522 0.40621 0.48968 0.0
C638 C 0.7616 0.41561 0.51553 0.0
C639 C 0.72883 0.37176 0.50576 0.0
H640 H 0.48456 0.67945 0.85254 0.0
H641 H 0.38235 0.64604 0.79926 0.0
H642 H 0.36015 0.70077 0.8165 0.0
H643 H 0.35742 0.741 0.84984 0.0
H644 H 0.45332 0.76834 0.9058 0.0
H645 H 0.49215 0.73478 0.88375 0.0
C646 C 0.45868 0.68569 0.84441 0.0
C647 C 0.43483 0.65915 0.82482 0.0
C648 C 0.4446 0.71529 0.85501 0.0
C649 C 0.40094 0.66644 0.81436 0.0
C650 C 0.38827 0.69751 0.82427 0.0
C651 C 0.38724 0.74113 0.85763 0.0
C652 C 0.39902 0.75353 0.88057 0.0
C653 C 0.40796 0.71981 0.84522 0.0
C654 C 0.4405 0.75578 0.88887 0.0
C655 C 0.46301 0.7366 0.8762 0.0
H656 H 0.83025 0.39802 0.23278 0.0
H657 H 0.79792 0.37587 0.16214 0.0
H658 H 0.72594 0.37881 0.16805 0.0
H659 H 0.66923 0.38025 0.19354 0.0
H660 H 0.69948 0.39311 0.26431 0.0
H661 H 0.77825 0.40943 0.25763 0.0
C662 C 0.80825 0.39494 0.21854 0.0
C663 C 0.81922 0.38568 0.19709 0.0
C664 C 0.76717 0.39703 0.22198 0.0
C665 C 0.7896 0.38124 0.17895 0.0
C666 C 0.74873 0.38363 0.18226 0.0
C667 C 0.69261 0.38606 0.20764 0.0
C668 C 0.67588 0.38061 0.22938 0.0
C669 C 0.73662 0.39032 0.2038 0.0
C670 C 0.70926 0.39428 0.24722 0.0
C671 C 0.75463 0.40279 0.24349 0.0
H672 H 0.12056 0.50182 0.09659 0.0
H673 H 1.00993 0.53632 0.09326 0.0
H674 H 1.01615 0.54073 0.05301 0.0
H675 H 1.05697 0.54057 0.01929 0.0
H676 H 0.17235 0.51315 0.02278 0.0
H677 H 0.16073 0.50034 0.06247 0.0
C678 C 1.09732 0.50943 0.08691 0.0
C679 C 1.06458 0.51834 0.09767 0.0
C680 C 0.10241 0.51373 0.06392 0.0
C681 C 1.03529 0.52923 0.08519 0.0
C682 C 1.03893 0.53188 0.06224 0.0
C683 C 1.07907 0.53113 0.02872 0.0
C684 C 0.11523 0.52751 0.01826 0.0
C685 C 1.07293 0.52507 0.05151 0.0
C686 C 0.14435 0.51619 0.03063 0.0
C687 C 0.13765 0.5088 0.05325 0.0
H688 H 0.61673 0.13275 0.432 0.0
H689 H 0.52616 0.98233 0.42835 0.0
H690 H 0.51092 0.98317 0.38848 0.0
H691 H 0.51853 1.02811 0.35572 0.0
H692 H 0.61558 0.17802 0.35937 0.0
H693 H 0.63208 0.17595 0.39843 0.0
C694 C 0.59413 0.10009 0.42237 0.0
C695 C 0.57226 1.05761 0.43291 0.0
C696 C 0.58594 0.10089 0.39965 0.0
C697 C 0.54349 1.01539 0.4204 0.0
C698 C 0.53452 1.01597 0.39772 0.0
C699 C 0.54396 1.06027 0.36485 0.0
C700 C 0.56461 0.10336 0.35452 0.0
C701 C 0.55486 1.05872 0.38727 0.0
C702 C 0.59742 0.14455 0.3669 0.0
C703 C 0.60751 0.14343 0.38925 0.0
H704 H 0.61696 0.60273 0.75813 0.0
H705 H 0.66791 0.50996 0.77623 0.0
H706 H 0.69488 0.50956 0.73887 0.0
H707 H 0.71074 0.54104 0.70235 0.0
H708 H 0.66177 0.63491 0.68344 0.0
H709 H 0.62808 0.63011 0.71987 0.0
C710 C 0.63307 0.58174 0.75366 0.0
C711 C 0.64058 0.55653 0.76983 0.0
C712 C 0.64972 0.58259 0.73217 0.0
C713 C 0.66202 0.52986 0.76403 0.0
C714 C 0.6776 0.52971 0.7427 0.0
C715 C 0.69189 0.55975 0.70596 0.0
C716 C 0.68895 0.58836 0.69019 0.0
C717 C 0.67269 0.55682 0.72683 0.0
C718 C 0.6652 0.61314 0.69542 0.0
C719 C 0.64564 0.61018 0.71619 0.0
H720 H 0.62431 1.0427 0.57784 0.0
H721 H 0.53211 0.10124 0.57605 0.0
H722 H 0.53271 0.10597 0.61647 0.0
H723 H 0.55951 0.09421 0.65248 0.0
H724 H 0.65216 1.03644 0.65475 0.0
H725 H 0.65045 1.02995 0.61416 0.0
C726 C 0.60435 1.05655 0.58625 0.0
C727 C 0.57832 0.07173 0.57369 0.0
C728 C 0.60465 1.05909 0.60969 0.0
C729 C 0.55252 0.08928 0.58507 0.0
C730 C 0.55281 0.09203 0.60828 0.0
C731 C 0.57966 0.08049 0.64415 0.0
C732 C 0.60616 0.0661 0.65683 0.0
C733 C 0.57884 0.0772 0.62077 0.0
C734 C 0.63111 1.04743 0.64557 0.0
C735 C 0.63042 1.04401 0.62229 0.0
H736 H 0.53674 0.5151 0.90763 0.0
H737 H 0.68149 0.62673 0.9141 0.0
H738 H 0.67888 0.62505 0.95438 0.0
H739 H 0.63544 0.59284 0.98817 0.0
H740 H 0.49033 0.48262 0.98195 0.0
H741 H 0.49322 0.48288 0.9415 0.0
C742 C 0.56773 0.53905 0.91783 0.0
C743 C 0.60921 0.571 0.90765 0.0
C744 C 0.566 0.53821 0.94119 0.0
C745 C 0.64893 0.60181 0.9213 0.0
C746 C 0.64758 0.60086 0.94444 0.0
C747 C 0.6046 0.5686 0.97795 0.0
C748 C 0.56273 0.5378 0.98816 0.0
C749 C 0.60633 0.56928 0.95461 0.0
C750 C 0.52291 0.50704 0.97459 0.0
C751 C 0.52456 0.50706 0.95142 0.0
H752 H 1.04415 0.49234 0.24319 0.0
H753 H 0.13336 0.64155 0.23727 0.0
H754 H 0.13853 0.65431 0.27772 0.0
H755 H 0.11767 0.62322 0.3148 0.0
H756 H 1.03201 0.47334 0.32047 0.0
H757 H 1.02466 0.4612 0.28018 0.0
C758 C 1.06473 0.52777 0.25067 0.0
C759 C 1.08832 0.56593 0.23701 0.0
C760 C 1.06791 0.53485 0.27399 0.0
C761 C 0.11491 0.61144 0.24721 0.0
C762 C 0.11782 0.61879 0.2704 0.0
C763 C 1.09779 0.58774 0.30734 0.0
C764 C 1.0754 0.54933 0.32103 0.0
C765 C 1.09457 0.58074 0.28398 0.0
C766 C 1.04901 0.50385 0.31069 0.0
C767 C 1.04512 0.49674 0.28751 0.0
loop_
_geom_bond_atom_site_label_1
_geom_bond_atom_site_label_2
_geom_bond_distance
_geom_bond_site_symmetry_2
_ccdc_geom_bond_type
Eu0 C9 2.828 . S
Eu0 O11 2.392 1_655 S
Eu0 O13 2.418 . S
Eu0 O18 2.373 . S
Eu0 O21 2.488 . S
Eu0 O22 2.471 . S
Eu0 O23 2.349 . S
Eu1 O10 2.373 . S
Eu1 O14 2.488 . S
Eu1 O15 2.471 . S
Eu1 O16 2.349 . S
Eu1 O19 2.392 1_455 S
Eu1 O20 2.418 . S
Eu1 C30 2.828 . S
C2 O20 1.244 . S
C2 O23 1.265 1_455 S
C3 C4 1.379 . S
C3 C7 1.373 . S
C3 C9 1.505 . S
C4 C3 1.379 . S
C4 C6 1.369 . S
C4 H32 0.930 . S
C5 C7 1.383 . S
C5 C8 1.382 . S
C5 H33 0.930 . S
C6 C4 1.369 . S
C6 C8 1.392 . S
C6 H34 0.930 . S
C7 C3 1.373 . S
C7 C5 1.383 . S
C7 H35 0.931 . S
C8 C5 1.382 . S
C8 C6 1.392 . S
C9 Eu0 2.828 . S
C9 C3 1.505 . S
C9 O21 1.249 . S
C9 O22 1.244 . S
O10 Eu1 2.373 . S
O10 C12 1.258 . S
O11 Eu0 2.392 1_455 S
O11 C12 1.242 . S
C12 O10 1.258 . S
C12 O11 1.242 . S
O13 Eu0 2.418 . S
O13 C17 1.244 . S
O14 Eu1 2.488 . S
O14 C30 1.249 . S
O15 Eu1 2.471 . S
O15 C30 1.244 . S
O16 Eu1 2.349 . S
O16 C17 1.265 1_455 S
C17 O13 1.244 . S
C17 O16 1.265 1_655 S
O18 Eu0 2.373 . S
O18 C31 1.258 . S
O19 Eu1 2.392 1_655 S
O19 C31 1.242 . S
O20 Eu1 2.418 . S
O20 C2 1.244 . S
O21 Eu0 2.488 . S
O21 C9 1.249 . S
O22 Eu0 2.471 . S
O22 C9 1.244 . S
O23 Eu0 2.349 . S
O23 C2 1.265 1_655 S
C24 C25 1.379 . S
C24 C28 1.373 . S
C24 C30 1.505 . S
C25 C24 1.379 . S
C25 C27 1.369 . S
C25 H36 0.930 . S
C26 C28 1.383 . S
C26 C29 1.382 . S
C26 H37 0.930 . S
C27 C25 1.369 . S
C27 C29 1.392 . S
C27 H38 0.930 . S
C28 C24 1.373 . S
C28 C26 1.383 . S
C28 H39 0.931 . S
C29 C26 1.382 . S
C29 C27 1.392 . S
C30 Eu1 2.828 . S
C30 O14 1.249 . S
C30 O15 1.244 . S
C30 C24 1.505 . S
C31 O18 1.258 . S
C31 O19 1.242 . S
H32 C4 0.930 . S
H33 C5 0.930 . S
H34 C6 0.930 . S
H35 C7 0.931 . S
H36 C25 0.930 . S
H37 C26 0.930 . S
H38 C27 0.930 . S
H39 C28 0.931 . S
Eu40 C49 2.828 . S
Eu40 O51 2.392 1_565 S
Eu40 O53 2.418 . S
Eu40 O58 2.373 . S
Eu40 O61 2.488 . S
Eu40 O62 2.471 . S
Eu40 O63 2.349 1_565 S
Eu41 O50 2.373 . S
Eu41 O54 2.488 . S
Eu41 O55 2.471 . S
Eu41 O56 2.349 . S
Eu41 O59 2.392 1_545 S
Eu41 O60 2.418 . S
Eu41 C70 2.828 . S
C42 O60 1.244 . S
C42 O63 1.265 . S
C43 C44 1.379 . S
C43 C47 1.373 . S
C43 C49 1.505 . S
C44 C43 1.379 . S
C44 C46 1.369 . S
C44 H72 0.930 . S
C45 C47 1.383 . S
C45 C48 1.382 . S
C45 H73 0.930 . S
C46 C44 1.369 . S
C46 C48 1.392 . S
C46 H74 0.930 . S
C47 C43 1.373 . S
C47 C45 1.383 . S
C47 H75 0.931 . S
C48 C45 1.382 . S
C48 C46 1.392 . S
C49 Eu40 2.828 . S
C49 C43 1.505 . S
C49 O61 1.249 . S
C49 O62 1.244 . S
O50 Eu41 2.373 . S
O50 C52 1.258 . S
O51 Eu40 2.392 1_545 S
O51 C52 1.242 . S
C52 O50 1.258 . S
C52 O51 1.242 . S
O53 Eu40 2.418 . S
O53 C57 1.244 1_565 S
O54 Eu41 2.488 . S
O54 C70 1.249 . S
O55 Eu41 2.471 . S
O55 C70 1.244 . S
O56 Eu41 2.349 . S
O56 C57 1.265 . S
C57 O53 1.244 1_545 S
C57 O56 1.265 . S
O58 Eu40 2.373 . S
O58 C71 1.258 . S
O59 Eu41 2.392 1_565 S
O59 C71 1.242 . S
O60 Eu41 2.418 . S
O60 C42 1.244 . S
O61 Eu40 2.488 . S
O61 C49 1.249 . S
O62 Eu40 2.471 . S
O62 C49 1.244 . S
O63 Eu40 2.349 1_545 S
O63 C42 1.265 . S
C64 C65 1.379 . S
C64 C68 1.373 . S
C64 C70 1.505 . S
C65 C64 1.379 . S
C65 C67 1.369 . S
C65 H76 0.930 . S
C66 C68 1.383 . S
C66 C69 1.382 . S
C66 H77 0.930 . S
C67 C65 1.369 . S
C67 C69 1.392 . S
C67 H78 0.930 . S
C68 C64 1.373 . S
C68 C66 1.383 . S
C68 H79 0.931 . S
C69 C66 1.382 . S
C69 C67 1.392 . S
C70 Eu41 2.828 . S
C70 O54 1.249 . S
C70 O55 1.244 . S
C70 C64 1.505 . S
C71 O58 1.258 . S
C71 O59 1.242 . S
H72 C44 0.930 . S
H73 C45 0.930 . S
H74 C46 0.930 . S
H75 C47 0.931 . S
H76 C65 0.930 . S
H77 C66 0.930 . S
H78 C67 0.930 . S
H79 C68 0.931 . S
Eu80 C89 2.828 . S
Eu80 O91 2.392 . S
Eu80 O93 2.418 . S
Eu80 O98 2.373 . S
Eu80 O101 2.488 . S
Eu80 O102 2.471 . S
Eu80 O103 2.349 . S
Eu81 O90 2.373 . S
Eu81 O94 2.488 . S
Eu81 O95 2.471 . S
Eu81 O96 2.349 . S
Eu81 O99 2.392 . S
Eu81 O100 2.418 . S
Eu81 C110 2.828 . S
C82 O100 1.244 . S
C82 O103 1.265 . S
C83 C84 1.379 . S
C83 C87 1.373 . S
C83 C89 1.505 . S
C84 C83 1.379 . S
C84 C86 1.369 . S
C84 H112 0.930 . S
C85 C87 1.383 . S
C85 C88 1.382 . S
C85 H113 0.930 . S
C86 C84 1.369 . S
C86 C88 1.392 . S
C86 H114 0.930 . S
C87 C83 1.373 . S
C87 C85 1.383 . S
C87 H115 0.931 . S
C88 C85 1.382 . S
C88 C86 1.392 . S
C89 Eu80 2.828 . S
C89 C83 1.505 . S
C89 O101 1.249 . S
C89 O102 1.244 . S
O90 Eu81 2.373 . S
O90 C92 1.258 . S
O91 Eu80 2.392 . S
O91 C92 1.242 . S
C92 O90 1.258 . S
C92 O91 1.242 . S
O93 Eu80 2.418 . S
O93 C97 1.244 . S
O94 Eu81 2.488 . S
O94 C110 1.249 . S
O95 Eu81 2.471 . S
O95 C110 1.244 . S
O96 Eu81 2.349 . S
O96 C97 1.265 . S
C97 O93 1.244 . S
C97 O96 1.265 . S
O98 Eu80 2.373 . S
O98 C111 1.258 . S
O99 Eu81 2.392 . S
O99 C111 1.242 . S
O100 Eu81 2.418 . S
O100 C82 1.244 . S
O101 Eu80 2.488 . S
O101 C89 1.249 . S
O102 Eu80 2.471 . S
O102 C89 1.244 . S
O103 Eu80 2.349 . S
O103 C82 1.265 . S
C104 C105 1.379 . S
C104 C108 1.373 . S
C104 C110 1.505 . S
C105 C104 1.379 . S
C105 C107 1.369 . S
C105 H116 0.930 . S
C106 C108 1.383 . S
C106 C109 1.382 . S
C106 H117 0.930 . S
C107 C105 1.369 . S
C107 C109 1.392 . S
C107 H118 0.930 . S
C108 C104 1.373 . S
C108 C106 1.383 . S
C108 H119 0.931 . S
C109 C106 1.382 . S
C109 C107 1.392 . S
C110 Eu81 2.828 . S
C110 O94 1.249 . S
C110 O95 1.244 . S
C110 C104 1.505 . S
C111 O98 1.258 . S
C111 O99 1.242 . S
H112 C84 0.930 . S
H113 C85 0.930 . S
H114 C86 0.930 . S
H115 C87 0.931 . S
H116 C105 0.930 . S
H117 C106 0.930 . S
H118 C107 0.930 . S
H119 C108 0.931 . S
C120 C121 1.391 . S
C120 C124 1.391 . S
C120 H162 0.948 . S
C121 C120 1.391 . S
C121 C122 1.391 . S
C122 C121 1.391 . S
C122 H178 0.947 . S
C122 C179 1.392 . S
C123 C124 1.391 . S
C123 C127 1.397 . S
C123 C179 1.419 . S
C124 C120 1.391 . S
C124 C123 1.391 . S
C124 C125 1.399 . S
C125 C124 1.399 . S
C125 C128 1.396 . S
C125 C137 1.453 . S
C125 C138 1.684 . S
H126 C150 0.948 . S
C127 C123 1.397 . S
C127 C128 1.394 . S
C127 C146 1.723 . S
C128 C125 1.396 . S
C128 C127 1.394 . S
C128 C158 1.723 . S
H129 C152 0.947 . S
H130 C153 0.948 . S
H131 C159 0.982 . S
H132 C160 0.979 . S
H133 C160 0.980 . S
H134 C160 0.983 . S
H135 C159 0.979 . S
H136 C159 0.977 . S
C137 C125 1.453 . S
C137 H166 0.982 . S
C137 H167 0.979 . S
C137 H168 0.977 . S
C138 C125 1.684 . S
C138 H163 0.979 . S
C138 H164 0.980 . S
C138 H165 0.983 . S
C139 C140 1.391 . S
C139 C144 1.391 . S
C139 H169 0.948 . S
C140 C139 1.391 . S
C140 C141 1.391 1_545 S
C141 C140 1.391 1_565 S
C141 C142 1.392 . S
C141 H170 0.947 . S
C142 C141 1.392 . S
C142 C143 1.419 1_565 S
C142 H171 0.948 . S
C143 C142 1.419 1_545 S
C143 C144 1.391 . S
C143 C147 1.397 . S
C144 C139 1.391 . S
C144 C143 1.391 . S
C144 C145 1.399 . S
C145 C144 1.399 . S
C145 C146 1.396 . S
C145 C148 1.453 . S
C145 C149 1.684 . S
C146 C127 1.723 . S
C146 C145 1.396 . S
C146 C147 1.394 . S
C147 C143 1.397 . S
C147 C146 1.394 . S
C147 C157 1.723 1_545 S
C148 C145 1.453 . S
C148 H172 0.982 . S
C148 H173 0.979 . S
C148 H174 0.977 . S
C149 C145 1.684 . S
C149 H175 0.979 . S
C149 H176 0.980 . S
C149 H177 0.983 . S
C150 H126 0.948 . S
C150 C151 1.391 . S
C150 C155 1.391 . S
C151 C150 1.391 . S
C151 C152 1.391 . S
C152 H129 0.947 . S
C152 C151 1.391 . S
C152 C153 1.392 . S
C153 H130 0.948 . S
C153 C152 1.392 . S
C153 C154 1.419 . S
C154 C153 1.419 . S
C154 C155 1.391 . S
C154 C158 1.397 1_565 S
C155 C150 1.391 . S
C155 C154 1.391 . S
C155 C156 1.399 . S
C156 C155 1.399 . S
C156 C157 1.396 . S
C156 C159 1.453 . S
C156 C160 1.684 . S
C157 C147 1.723 1_565 S
C157 C156 1.396 . S
C157 C158 1.394 1_565 S
C158 C128 1.723 . S
C158 C154 1.397 1_545 S
C158 C157 1.394 1_545 S
C159 H131 0.982 . S
C159 H135 0.979 . S
C159 H136 0.977 . S
C159 C156 1.453 . S
C160 H132 0.979 . S
C160 H133 0.980 . S
C160 H134 0.983 . S
C160 C156 1.684 . S
H161 C179 0.948 . S
H162 C120 0.948 . S
H163 C138 0.979 . S
H164 C138 0.980 . S
H165 C138 0.983 . S
H166 C137 0.982 . S
H167 C137 0.979 . S
H168 C137 0.977 . S
H169 C139 0.948 . S
H170 C141 0.947 . S
H171 C142 0.948 . S
H172 C148 0.982 . S
H173 C148 0.979 . S
H174 C148 0.977 . S
H175 C149 0.979 . S
H176 C149 0.980 . S
H177 C149 0.983 . S
H178 C122 0.947 . S
C179 C122 1.392 . S
C179 C123 1.419 . S
C179 H161 0.948 . S
C180 C181 1.391 . S
C180 C184 1.391 . S
C180 H222 0.948 . S
C181 C180 1.391 . S
C181 C182 1.391 . S
C182 C181 1.391 . S
C182 H238 0.947 . S
C182 C239 1.392 . S
C183 C184 1.391 . S
C183 C187 1.397 . S
C183 C239 1.419 . S
C184 C180 1.391 . S
C184 C183 1.391 . S
C184 C185 1.399 . S
C185 C184 1.399 . S
C185 C188 1.396 . S
C185 C197 1.453 . S
C185 C198 1.684 . S
H186 C210 0.948 . S
C187 C183 1.397 . S
C187 C188 1.394 . S
C187 C206 1.723 . S
C188 C185 1.396 . S
C188 C187 1.394 . S
C188 C218 1.723 . S
H189 C212 0.947 . S
H190 C213 0.948 . S
H191 C219 0.982 . S
H192 C220 0.979 . S
H193 C220 0.980 . S
H194 C220 0.983 . S
H195 C219 0.979 . S
H196 C219 0.977 . S
C197 C185 1.453 . S
C197 H226 0.982 . S
C197 H227 0.979 . S
C197 H228 0.977 . S
C198 C185 1.684 . S
C198 H223 0.979 . S
C198 H224 0.980 . S
C198 H225 0.983 . S
C199 C200 1.391 . S
C199 C204 1.391 . S
C199 H229 0.948 . S
C200 C199 1.391 . S
C200 C201 1.391 . S
C201 C200 1.391 . S
C201 C202 1.392 . S
C201 H230 0.947 . S
C202 C201 1.392 . S
C202 C203 1.419 . S
C202 H231 0.948 . S
C203 C202 1.419 . S
C203 C204 1.391 . S
C203 C207 1.397 . S
C204 C199 1.391 . S
C204 C203 1.391 . S
C204 C205 1.399 . S
C205 C204 1.399 . S
C205 C206 1.396 . S
C205 C208 1.453 . S
C205 C209 1.684 . S
C206 C187 1.723 . S
C206 C205 1.396 . S
C206 C207 1.394 . S
C207 C203 1.397 . S
C207 C206 1.394 . S
C207 C217 1.723 . S
C208 C205 1.453 . S
C208 H232 0.982 . S
C208 H233 0.979 . S
C208 H234 0.977 . S
C209 C205 1.684 . S
C209 H235 0.979 . S
C209 H236 0.980 . S
C209 H237 0.983 . S
C210 H186 0.948 . S
C210 C211 1.391 . S
C210 C215 1.391 . S
C211 C210 1.391 . S
C211 C212 1.391 . S
C212 H189 0.947 . S
C212 C211 1.391 . S
C212 C213 1.392 . S
C213 H190 0.948 . S
C213 C212 1.392 . S
C213 C214 1.419 . S
C214 C213 1.419 . S
C214 C215 1.391 . S
C214 C218 1.397 . S
C215 C210 1.391 . S
C215 C214 1.391 . S
C215 C216 1.399 . S
C216 C215 1.399 . S
C216 C217 1.396 . S
C216 C219 1.453 . S
C216 C220 1.684 . S
C217 C207 1.723 . S
C217 C216 1.396 . S
C217 C218 1.394 . S
C218 C188 1.723 . S
C218 C214 1.397 . S
C218 C217 1.394 . S
C219 H191 0.982 . S
C219 H195 0.979 . S
C219 H196 0.977 . S
C219 C216 1.453 . S
C220 H192 0.979 . S
C220 H193 0.980 . S
C220 H194 0.983 . S
C220 C216 1.684 . S
H221 C239 0.948 . S
H222 C180 0.948 . S
H223 C198 0.979 . S
H224 C198 0.980 . S
H225 C198 0.983 . S
H226 C197 0.982 . S
H227 C197 0.979 . S
H228 C197 0.977 . S
H229 C199 0.948 . S
H230 C201 0.947 . S
H231 C202 0.948 . S
H232 C208 0.982 . S
H233 C208 0.979 . S
H234 C208 0.977 . S
H235 C209 0.979 . S
H236 C209 0.980 . S
H237 C209 0.983 . S
H238 C182 0.947 . S
C239 C182 1.392 . S
C239 C183 1.419 . S
C239 H221 0.948 . S
C240 C241 1.391 . S
C240 C244 1.391 . S
C240 H282 0.948 . S
C241 C240 1.391 . S
C241 C242 1.391 . S
C242 C241 1.391 . S
C242 H298 0.947 . S
C242 C299 1.392 . S
C243 C244 1.391 . S
C243 C247 1.397 . S
C243 C299 1.419 . S
C244 C240 1.391 . S
C244 C243 1.391 . S
C244 C245 1.399 . S
C245 C244 1.399 . S
C245 C248 1.396 . S
C245 C257 1.453 . S
C245 C258 1.684 . S
H246 C270 0.948 . S
C247 C243 1.397 . S
C247 C248 1.394 . S
C247 C266 1.723 . S
C248 C245 1.396 . S
C248 C247 1.394 . S
C248 C278 1.723 . S
H249 C272 0.947 . S
H250 C273 0.953 . S
H251 C279 0.982 . S
H252 C280 0.979 . S
H253 C280 0.980 . S
H254 C280 0.983 . S
H255 C279 0.979 . S
H256 C279 0.977 . S
C257 C245 1.453 . S
C257 H286 0.982 . S
C257 H287 0.979 . S
C257 H288 0.977 . S
C258 C245 1.684 . S
C258 H283 0.979 . S
C258 H284 0.980 . S
C258 H285 0.983 . S
C259 C260 1.391 1_556 S
C259 C264 1.391 . S
C259 H289 0.948 1_556 S
C260 C259 1.391 1_554 S
C260 C261 1.391 1_454 S
C261 C260 1.391 1_656 S
C261 C262 1.392 . S
C261 H290 0.947 1_556 S
C262 C261 1.392 . S
C262 C263 1.419 1_655 S
C262 H291 0.948 . S
C263 C262 1.419 1_455 S
C263 C264 1.391 . S
C263 C267 1.397 . S
C264 C259 1.391 . S
C264 C263 1.391 . S
C264 C265 1.399 . S
C265 C264 1.399 . S
C265 C266 1.396 . S
C265 C268 1.453 . S
C265 C269 1.684 . S
C266 C247 1.723 . S
C266 C265 1.396 . S
C266 C267 1.394 . S
C267 C263 1.397 . S
C267 C266 1.394 . S
C267 C277 1.723 1_455 S
C268 C265 1.453 . S
C268 H292 0.982 . S
C268 H293 0.979 . S
C268 H294 0.977 . S
C269 C265 1.684 . S
C269 H295 0.979 . S
C269 H296 0.980 . S
C269 H297 0.983 . S
C270 H246 0.948 . S
C270 C271 1.391 . S
C270 C275 1.391 . S
C271 C270 1.391 . S
C271 C272 1.391 . S
C272 H249 0.947 . S
C272 C271 1.391 . S
C272 C273 1.392 . S
C273 H250 0.953 . S
C273 C272 1.392 . S
C273 C274 1.419 . S
C274 C273 1.419 . S
C274 C275 1.391 . S
C274 C278 1.397 1_655 S
C275 C270 1.391 . S
C275 C274 1.391 . S
C275 C276 1.399 . S
C276 C275 1.399 . S
C276 C277 1.396 . S
C276 C279 1.453 . S
C276 C280 1.684 . S
C277 C267 1.723 1_655 S
C277 C276 1.396 . S
C277 C278 1.394 1_655 S
C278 C248 1.723 . S
C278 C274 1.397 1_455 S
C278 C277 1.394 1_455 S
C279 H251 0.982 . S
C279 H255 0.979 . S
C279 H256 0.977 . S
C279 C276 1.453 . S
C280 H252 0.979 . S
C280 H253 0.980 . S
C280 H254 0.983 . S
C280 C276 1.684 . S
H281 C299 0.948 . S
H282 C240 0.948 . S
H283 C258 0.979 . S
H284 C258 0.980 . S
H285 C258 0.983 . S
H286 C257 0.982 . S
H287 C257 0.979 . S
H288 C257 0.977 . S
H289 C259 0.948 1_554 S
H290 C261 0.947 1_554 S
H291 C262 0.948 . S
H292 C268 0.982 . S
H293 C268 0.979 . S
H294 C268 0.977 . S
H295 C269 0.979 . S
H296 C269 0.980 . S
H297 C269 0.983 . S
H298 C242 0.947 . S
C299 C242 1.392 . S
C299 C243 1.419 . S
C299 H281 0.948 . S
C300 C301 1.391 . S
C300 C304 1.391 . S
C300 H342 0.948 . S
C301 C300 1.391 . S
C301 C302 1.391 . S
C302 C301 1.391 . S
C302 H358 0.947 . S
C302 C359 1.392 . S
C303 C304 1.391 . S
C303 C307 1.397 . S
C303 C359 1.419 . S
C304 C300 1.391 . S
C304 C303 1.391 . S
C304 C305 1.399 . S
C305 C304 1.399 . S
C305 C308 1.396 1_655 S
C305 C317 1.453 1_655 S
C305 C318 1.684 . S
H306 C330 0.948 . S
C307 C303 1.397 . S
C307 C308 1.394 1_655 S
C307 C326 1.723 . S
C308 C305 1.396 1_455 S
C308 C307 1.394 1_455 S
C308 C338 1.723 . S
H309 C332 0.947 . S
H310 C333 0.948 . S
H311 C339 0.982 . S
H312 C340 0.979 . S
H313 C340 0.980 . S
H314 C340 0.983 . S
H315 C339 0.979 . S
H316 C339 0.977 . S
C317 C305 1.453 1_455 S
C317 H346 0.982 . S
C317 H347 0.979 . S
C317 H348 0.977 . S
C318 C305 1.684 . S
C318 H343 0.979 . S
C318 H344 0.980 1_655 S
C318 H345 0.983 . S
C319 C320 1.391 1_655 S
C319 C324 1.391 . S
C319 H349 0.948 . S
C320 C319 1.391 1_455 S
C320 C321 1.391 . S
C321 C320 1.391 . S
C321 C322 1.392 . S
C321 H350 0.947 . S
C322 C321 1.392 . S
C322 C323 1.419 . S
C322 H351 0.948 . S
C323 C322 1.419 . S
C323 C324 1.391 1_455 S
C323 C327 1.397 . S
C324 C319 1.391 . S
C324 C323 1.391 1_655 S
C324 C325 1.399 . S
C325 C324 1.399 . S
C325 C326 1.396 . S
C325 C328 1.453 . S
C325 C329 1.684 . S
C326 C307 1.723 . S
C326 C325 1.396 . S
C326 C327 1.394 1_655 S
C327 C323 1.397 . S
C327 C326 1.394 1_455 S
C327 C337 1.723 . S
C328 C325 1.453 . S
C328 H352 0.982 . S
C328 H353 0.979 . S
C328 H354 0.977 . S
C329 C325 1.684 . S
C329 H355 0.979 . S
C329 H356 0.980 . S
C329 H357 0.983 . S
C330 H306 0.948 . S
C330 C331 1.391 . S
C330 C335 1.391 . S
C331 C330 1.391 . S
C331 C332 1.391 . S
C332 H309 0.947 . S
C332 C331 1.391 . S
C332 C333 1.392 . S
C333 H310 0.948 . S
C333 C332 1.392 . S
C333 C334 1.419 . S
C334 C333 1.419 . S
C334 C335 1.391 . S
C334 C338 1.397 . S
C335 C330 1.391 . S
C335 C334 1.391 . S
C335 C336 1.399 . S
C336 C335 1.399 . S
C336 C337 1.396 . S
C336 C339 1.453 . S
C336 C340 1.684 . S
C337 C327 1.723 . S
C337 C336 1.396 . S
C337 C338 1.394 . S
C338 C308 1.723 . S
C338 C334 1.397 . S
C338 C337 1.394 . S
C339 H311 0.982 . S
C339 H315 0.979 . S
C339 H316 0.977 . S
C339 C336 1.453 . S
C340 H312 0.979 . S
C340 H313 0.980 . S
C340 H314 0.983 . S
C340 C336 1.684 . S
H341 C359 0.948 . S
H342 C300 0.948 . S
H343 C318 0.979 . S
H344 C318 0.980 1_455 S
H345 C318 0.983 . S
H346 C317 0.982 . S
H347 C317 0.979 . S
H348 C317 0.977 . S
H349 C319 0.948 . S
H350 C321 0.947 . S
H351 C322 0.948 . S
H352 C328 0.982 . S
H353 C328 0.979 . S
H354 C328 0.977 . S
H355 C329 0.979 . S
H356 C329 0.980 . S
H357 C329 0.983 . S
H358 C302 0.947 . S
C359 C302 1.392 . S
C359 C303 1.419 . S
C359 H341 0.948 . S
C360 C361 1.391 . S
C360 C364 1.391 . S
C360 H402 0.948 . S
C361 C360 1.391 . S
C361 C362 1.391 . S
C362 C361 1.391 . S
C362 H418 0.947 . S
C362 C419 1.392 . S
C363 C364 1.391 . S
C363 C367 1.397 . S
C363 C419 1.419 . S
C364 C360 1.391 . S
C364 C363 1.391 . S
C364 C365 1.399 . S
C365 C364 1.399 . S
C365 C368 1.396 1_565 S
C365 C377 1.453 1_565 S
C365 C378 1.684 . S
H366 C390 0.948 . S
C367 C363 1.397 . S
C367 C368 1.394 1_565 S
C367 C386 1.723 . S
C368 C365 1.396 1_545 S
C368 C367 1.394 1_545 S
C368 C398 1.723 . S
H369 C392 0.947 . S
H370 C393 0.948 . S
H371 C399 0.982 . S
H372 C400 0.979 . S
H373 C400 0.980 . S
H374 C400 0.983 . S
H375 C399 0.979 . S
H376 C399 0.977 . S
C377 C365 1.453 1_545 S
C377 H406 0.982 . S
C377 H407 0.986 . S
C377 H408 0.977 . S
C378 C365 1.684 . S
C378 H403 0.979 . S
C378 H404 0.980 1_565 S
C378 H405 0.983 . S
C379 C380 1.391 1_565 S
C379 C384 1.391 . S
C379 H409 0.948 . S
C380 C379 1.391 1_545 S
C380 C381 1.391 . S
C381 C380 1.391 . S
C381 C382 1.392 . S
C381 H410 0.947 . S
C382 C381 1.392 . S
C382 C383 1.419 . S
C382 H411 0.948 . S
C383 C382 1.419 . S
C383 C384 1.391 1_545 S
C383 C387 1.397 . S
C384 C379 1.391 . S
C384 C383 1.391 1_565 S
C384 C385 1.399 . S
C385 C384 1.399 . S
C385 C386 1.396 . S
C385 C388 1.453 . S
C385 C389 1.684 . S
C386 C367 1.723 . S
C386 C385 1.396 . S
C386 C387 1.394 1_565 S
C387 C383 1.397 . S
C387 C386 1.394 1_545 S
C387 C397 1.723 . S
C388 C385 1.453 . S
C388 H412 0.982 . S
C388 H413 0.979 . S
C388 H414 0.977 . S
C389 C385 1.684 . S
C389 H415 0.979 . S
C389 H416 0.980 . S
C389 H417 0.983 . S
C390 H366 0.948 . S
C390 C391 1.391 . S
C390 C395 1.391 . S
C391 C390 1.391 . S
C391 C392 1.391 . S
C392 H369 0.947 . S
C392 C391 1.391 . S
C392 C393 1.392 . S
C393 H370 0.948 . S
C393 C392 1.392 . S
C393 C394 1.419 . S
C394 C393 1.419 . S
C394 C395 1.391 . S
C394 C398 1.397 . S
C395 C390 1.391 . S
C395 C394 1.391 . S
C395 C396 1.399 . S
C396 C395 1.399 . S
C396 C397 1.396 . S
C396 C399 1.453 . S
C396 C400 1.684 . S
C397 C387 1.723 . S
C397 C396 1.396 . S
C397 C398 1.394 . S
C398 C368 1.723 . S
C398 C394 1.397 . S
C398 C397 1.394 . S
C399 H371 0.982 . S
C399 H375 0.979 . S
C399 H376 0.977 . S
C399 C396 1.453 . S
C400 H372 0.979 . S
C400 H373 0.980 . S
C400 H374 0.983 . S
C400 C396 1.684 . S
H401 C419 0.948 . S
H402 C360 0.948 . S
H403 C378 0.979 . S
H404 C378 0.980 1_545 S
H405 C378 0.983 . S
H406 C377 0.982 . S
H407 C377 0.986 . S
H408 C377 0.977 . S
H409 C379 0.948 . S
H410 C381 0.947 . S
H411 C382 0.948 . S
H412 C388 0.982 . S
H413 C388 0.979 . S
H414 C388 0.977 . S
H415 C389 0.979 . S
H416 C389 0.980 . S
H417 C389 0.983 . S
H418 C362 0.947 . S
C419 C362 1.392 . S
C419 C363 1.419 . S
C419 H401 0.948 . S
C420 C421 1.391 . S
C420 C424 1.391 . S
C420 H462 0.948 . S
C421 C420 1.391 . S
C421 C422 1.391 . S
C422 C421 1.391 . S
C422 H478 0.947 . S
C422 C479 1.392 . S
C423 C424 1.391 . S
C423 C427 1.397 . S
C423 C479 1.419 . S
C424 C420 1.391 . S
C424 C423 1.391 . S
C424 C425 1.399 . S
C425 C424 1.399 . S
C425 C428 1.396 . S
C425 C437 1.453 . S
C425 C438 1.684 . S
H426 C450 0.948 . S
C427 C423 1.397 . S
C427 C428 1.394 . S
C427 C446 1.723 . S
C428 C425 1.396 . S
C428 C427 1.394 . S
C428 C458 1.723 . S
H429 C452 0.947 . S
H430 C453 0.948 . S
H431 C459 0.982 . S
H432 C460 0.979 . S
H433 C460 0.980 . S
H434 C460 0.983 . S
H435 C459 0.979 . S
H436 C459 0.977 . S
C437 C425 1.453 . S
C437 H466 0.982 . S
C437 H467 0.979 . S
C437 H468 0.977 . S
C438 C425 1.684 . S
C438 H463 0.979 . S
C438 H464 0.980 . S
C438 H465 0.983 . S
C439 C440 1.391 . S
C439 C444 1.391 . S
C439 H469 0.948 . S
C440 C439 1.391 . S
C440 C441 1.391 . S
C441 C440 1.391 . S
C441 C442 1.392 . S
C441 H470 0.947 . S
C442 C441 1.392 . S
C442 C443 1.419 . S
C442 H471 0.948 . S
C443 C442 1.419 . S
C443 C444 1.391 . S
C443 C447 1.397 . S
C444 C439 1.391 . S
C444 C443 1.391 . S
C444 C445 1.399 . S
C445 C444 1.399 . S
C445 C446 1.396 . S
C445 C448 1.453 . S
C445 C449 1.684 . S
C446 C427 1.723 . S
C446 C445 1.396 . S
C446 C447 1.394 . S
C447 C443 1.397 . S
C447 C446 1.394 . S
C447 C457 1.723 . S
C448 C445 1.453 . S
C448 H472 0.982 . S
C448 H473 0.979 . S
C448 H474 0.977 . S
C449 C445 1.684 . S
C449 H475 0.979 . S
C449 H476 0.980 . S
C449 H477 0.983 . S
C450 H426 0.948 . S
C450 C451 1.391 . S
C450 C455 1.391 . S
C451 C450 1.391 . S
C451 C452 1.391 . S
C452 H429 0.947 . S
C452 C451 1.391 . S
C452 C453 1.392 . S
C453 H430 0.948 . S
C453 C452 1.392 . S
C453 C454 1.419 . S
C454 C453 1.419 . S
C454 C455 1.391 . S
C454 C458 1.397 . S
C455 C450 1.391 . S
C455 C454 1.391 . S
C455 C456 1.399 . S
C456 C455 1.399 . S
C456 C457 1.396 . S
C456 C459 1.453 . S
C456 C460 1.684 . S
C457 C447 1.723 . S
C457 C456 1.396 . S
C457 C458 1.394 . S
C458 C428 1.723 . S
C458 C454 1.397 . S
C458 C457 1.394 . S
C459 H431 0.982 . S
C459 H435 0.979 . S
C459 H436 0.977 . S
C459 C456 1.453 . S
C460 H432 0.979 . S
C460 H433 0.980 . S
C460 H434 0.983 . S
C460 C456 1.684 . S
H461 C479 0.948 . S
H462 C420 0.948 . S
H463 C438 0.979 . S
H464 C438 0.980 . S
H465 C438 0.983 . S
H466 C437 0.982 . S
H467 C437 0.979 . S
H468 C437 0.977 . S
H469 C439 0.948 . S
H470 C441 0.947 . S
H471 C442 0.948 . S
H472 C448 0.982 . S
H473 C448 0.979 . S
H474 C448 0.977 . S
H475 C449 0.979 . S
H476 C449 0.980 . S
H477 C449 0.983 . S
H478 C422 0.947 . S
C479 C422 1.392 . S
C479 C423 1.419 . S
C479 H461 0.948 . S
H480 C486 0.930 . S
H481 C489 0.930 . S
H482 C490 0.930 . S
H483 C491 0.930 . S
H484 C494 0.930 . S
H485 C495 0.930 . S
C486 H480 0.930 . S
C486 C487 1.355 . S
C486 C488 1.415 . S
C487 C486 1.355 . S
C487 C489 1.419 . S
C488 C486 1.415 . S
C488 C493 1.425 . S
C488 C495 1.409 . S
C489 H481 0.930 . S
C489 C487 1.419 . S
C489 C490 1.362 . S
C490 H482 0.930 . S
C490 C489 1.362 . S
C490 C493 1.409 . S
C491 H483 0.930 . S
C491 C492 1.355 . S
C491 C493 1.415 . S
C492 C491 1.355 . S
C492 C494 1.419 . S
C493 C488 1.425 . S
C493 C490 1.409 . S
C493 C491 1.415 . S
C494 H484 0.930 . S
C494 C492 1.419 . S
C494 C495 1.362 . S
C495 H485 0.930 . S
C495 C488 1.409 . S
C495 C494 1.362 . S
H496 C502 0.930 . S
H497 C505 0.930 . S
H498 C506 0.930 . S
H499 C507 0.930 . S
H500 C510 0.930 . S
H501 C511 0.930 . S
C502 H496 0.930 . S
C502 C503 1.355 . S
C502 C504 1.415 . S
C503 C502 1.355 . S
C503 C505 1.419 . S
C504 C502 1.415 . S
C504 C509 1.425 . S
C504 C511 1.409 . S
C505 H497 0.930 . S
C505 C503 1.419 . S
C505 C506 1.362 . S
C506 H498 0.930 . S
C506 C505 1.362 . S
C506 C509 1.409 . S
C507 H499 0.930 . S
C507 C508 1.355 . S
C507 C509 1.415 . S
C508 C507 1.355 . S
C508 C510 1.419 . S
C509 C504 1.425 . S
C509 C506 1.409 . S
C509 C507 1.415 . S
C510 H500 0.930 . S
C510 C508 1.419 . S
C510 C511 1.362 . S
C511 H501 0.930 . S
C511 C504 1.409 . S
C511 C510 1.362 . S
H512 C518 0.930 . S
H513 C521 0.930 . S
H514 C522 0.930 . S
H515 C523 0.930 . S
H516 C526 0.930 . S
H517 C527 0.930 . S
C518 H512 0.930 . S
C518 C519 1.355 . S
C518 C520 1.415 . S
C519 C518 1.355 . S
C519 C521 1.419 . S
C520 C518 1.415 . S
C520 C525 1.425 . S
C520 C527 1.409 . S
C521 H513 0.930 . S
C521 C519 1.419 . S
C521 C522 1.362 . S
C522 H514 0.930 . S
C522 C521 1.362 . S
C522 C525 1.409 . S
C523 H515 0.930 . S
C523 C524 1.355 . S
C523 C525 1.415 . S
C524 C523 1.355 . S
C524 C526 1.419 . S
C525 C520 1.425 . S
C525 C522 1.409 . S
C525 C523 1.415 . S
C526 H516 0.930 . S
C526 C524 1.419 . S
C526 C527 1.362 . S
C527 H517 0.930 . S
C527 C520 1.409 . S
C527 C526 1.362 . S
H528 C534 0.930 . S
H529 C537 0.930 . S
H530 C538 0.930 . S
H531 C539 0.930 . S
H532 C542 0.930 . S
H533 C543 0.930 . S
C534 H528 0.930 . S
C534 C535 1.355 . S
C534 C536 1.415 . S
C535 C534 1.355 . S
C535 C537 1.419 . S
C536 C534 1.415 . S
C536 C541 1.425 . S
C536 C543 1.409 . S
C537 H529 0.930 . S
C537 C535 1.419 . S
C537 C538 1.362 . S
C538 H530 0.930 . S
C538 C537 1.362 . S
C538 C541 1.409 . S
C539 H531 0.930 . S
C539 C540 1.355 . S
C539 C541 1.415 . S
C540 C539 1.355 . S
C540 C542 1.419 . S
C541 C536 1.425 . S
C541 C538 1.409 . S
C541 C539 1.415 . S
C542 H532 0.930 . S
C542 C540 1.419 . S
C542 C543 1.362 . S
C543 H533 0.930 . S
C543 C536 1.409 . S
C543 C542 1.362 . S
H544 C550 0.930 . S
H545 C553 0.930 . S
H546 C554 0.930 . S
H547 C555 0.930 . S
H548 C558 0.930 . S
H549 C559 0.930 . S
C550 H544 0.930 . S
C550 C551 1.355 . S
C550 C552 1.415 . S
C551 C550 1.355 . S
C551 C553 1.419 . S
C552 C550 1.415 . S
C552 C557 1.425 . S
C552 C559 1.409 . S
C553 H545 0.930 . S
C553 C551 1.419 . S
C553 C554 1.362 . S
C554 H546 0.930 . S
C554 C553 1.362 . S
C554 C557 1.409 . S
C555 H547 0.930 . S
C555 C556 1.355 . S
C555 C557 1.415 . S
C556 C555 1.355 . S
C556 C558 1.419 . S
C557 C552 1.425 . S
C557 C554 1.409 . S
C557 C555 1.415 . S
C558 H548 0.930 . S
C558 C556 1.419 . S
C558 C559 1.362 . S
C559 H549 0.930 . S
C559 C552 1.409 . S
C559 C558 1.362 . S
H560 C566 0.930 . S
H561 C569 0.930 . S
H562 C570 0.930 . S
H563 C571 0.930 . S
H564 C574 0.930 . S
H565 C575 0.930 . S
C566 H560 0.930 . S
C566 C567 1.355 . S
C566 C568 1.415 . S
C567 C566 1.355 . S
C567 C569 1.419 . S
C568 C566 1.415 . S
C568 C573 1.425 . S
C568 C575 1.409 . S
C569 H561 0.930 . S
C569 C567 1.419 . S
C569 C570 1.362 . S
C570 H562 0.930 . S
C570 C569 1.362 . S
C570 C573 1.409 . S
C571 H563 0.930 . S
C571 C572 1.355 . S
C571 C573 1.415 . S
C572 C571 1.355 . S
C572 C574 1.419 . S
C573 C568 1.425 . S
C573 C570 1.409 . S
C573 C571 1.415 . S
C574 H564 0.930 . S
C574 C572 1.419 . S
C574 C575 1.362 . S
C575 H565 0.930 . S
C575 C568 1.409 . S
C575 C574 1.362 . S
H576 C582 0.930 . S
H577 C585 0.930 . S
H578 C586 0.930 . S
H579 C587 0.930 . S
H580 C590 0.930 . S
H581 C591 0.930 . S
C582 H576 0.930 . S
C582 C583 1.355 . S
C582 C584 1.415 . S
C583 C582 1.355 . S
C583 C585 1.419 . S
C584 C582 1.415 . S
C584 C589 1.425 . S
C584 C591 1.409 . S
C585 H577 0.930 . S
C585 C583 1.419 . S
C585 C586 1.362 . S
C586 H578 0.930 . S
C586 C585 1.362 . S
C586 C589 1.409 . S
C587 H579 0.930 . S
C587 C588 1.355 . S
C587 C589 1.415 . S
C588 C587 1.355 . S
C588 C590 1.419 . S
C589 C584 1.425 . S
C589 C586 1.409 . S
C589 C587 1.415 . S
C590 H580 0.930 . S
C590 C588 1.419 . S
C590 C591 1.362 . S
C591 H581 0.930 . S
C591 C584 1.409 . S
C591 C590 1.362 . S
H592 C598 0.930 . S
H593 C601 0.930 . S
H594 C602 0.930 . S
H595 C603 0.930 . S
H596 C606 0.930 . S
H597 C607 0.930 . S
C598 H592 0.930 . S
C598 C599 1.355 . S
C598 C600 1.415 . S
C599 C598 1.355 . S
C599 C601 1.419 . S
C600 C598 1.415 . S
C600 C605 1.425 . S
C600 C607 1.409 . S
C601 H593 0.930 . S
C601 C599 1.419 . S
C601 C602 1.362 . S
C602 H594 0.930 . S
C602 C601 1.362 . S
C602 C605 1.409 . S
C603 H595 0.930 . S
C603 C604 1.355 . S
C603 C605 1.415 . S
C604 C603 1.355 . S
C604 C606 1.419 . S
C605 C600 1.425 . S
C605 C602 1.409 . S
C605 C603 1.415 . S
C606 H596 0.930 . S
C606 C604 1.419 . S
C606 C607 1.362 . S
C607 H597 0.930 . S
C607 C600 1.409 . S
C607 C606 1.362 . S
H608 C614 0.930 . S
H609 C617 0.930 . S
H610 C618 0.930 . S
H611 C619 0.930 . S
H612 C622 0.930 . S
H613 C623 0.930 . S
C614 H608 0.930 . S
C614 C615 1.355 . S
C614 C616 1.415 . S
C615 C614 1.355 . S
C615 C617 1.419 . S
C616 C614 1.415 . S
C616 C621 1.425 . S
C616 C623 1.409 . S
C617 H609 0.930 . S
C617 C615 1.419 . S
C617 C618 1.362 . S
C618 H610 0.930 . S
C618 C617 1.362 . S
C618 C621 1.409 . S
C619 H611 0.930 . S
C619 C620 1.355 . S
C619 C621 1.415 . S
C620 C619 1.355 . S
C620 C622 1.419 . S
C621 C616 1.425 . S
C621 C618 1.409 . S
C621 C619 1.415 . S
C622 H612 0.930 . S
C622 C620 1.419 . S
C622 C623 1.362 . S
C623 H613 0.930 . S
C623 C616 1.409 . S
C623 C622 1.362 . S
H624 C630 0.930 . S
H625 C633 0.930 . S
H626 C634 0.930 . S
H627 C635 0.930 . S
H628 C638 0.930 . S
H629 C639 0.930 . S
C630 H624 0.930 . S
C630 C631 1.355 . S
C630 C632 1.415 . S
C631 C630 1.355 . S
C631 C633 1.419 . S
C632 C630 1.415 . S
C632 C637 1.425 . S
C632 C639 1.409 . S
C633 H625 0.930 . S
C633 C631 1.419 . S
C633 C634 1.362 . S
C634 H626 0.930 . S
C634 C633 1.362 . S
C634 C637 1.409 . S
C635 H627 0.930 . S
C635 C636 1.355 . S
C635 C637 1.415 . S
C636 C635 1.355 . S
C636 C638 1.419 . S
C637 C632 1.425 . S
C637 C634 1.409 . S
C637 C635 1.415 . S
C638 H628 0.930 . S
C638 C636 1.419 . S
C638 C639 1.362 . S
C639 H629 0.930 . S
C639 C632 1.409 . S
C639 C638 1.362 . S
H640 C646 0.930 . S
H641 C649 0.930 . S
H642 C650 0.930 . S
H643 C651 0.930 . S
H644 C654 0.930 . S
H645 C655 0.930 . S
C646 H640 0.930 . S
C646 C647 1.355 . S
C646 C648 1.415 . S
C647 C646 1.355 . S
C647 C649 1.419 . S
C648 C646 1.415 . S
C648 C653 1.425 . S
C648 C655 1.409 . S
C649 H641 0.930 . S
C649 C647 1.419 . S
C649 C650 1.362 . S
C650 H642 0.930 . S
C650 C649 1.362 . S
C650 C653 1.409 . S
C651 H643 0.930 . S
C651 C652 1.355 . S
C651 C653 1.415 . S
C652 C651 1.355 . S
C652 C654 1.419 . S
C653 C648 1.425 . S
C653 C650 1.409 . S
C653 C651 1.415 . S
C654 H644 0.930 . S
C654 C652 1.419 . S
C654 C655 1.362 . S
C655 H645 0.930 . S
C655 C648 1.409 . S
C655 C654 1.362 . S
H656 C662 0.930 . S
H657 C665 0.930 . S
H658 C666 0.930 . S
H659 C667 0.930 . S
H660 C670 0.930 . S
H661 C671 0.930 . S
C662 H656 0.930 . S
C662 C663 1.355 . S
C662 C664 1.415 . S
C663 C662 1.355 . S
C663 C665 1.419 . S
C664 C662 1.415 . S
C664 C669 1.425 . S
C664 C671 1.409 . S
C665 H657 0.930 . S
C665 C663 1.419 . S
C665 C666 1.362 . S
C666 H658 0.930 . S
C666 C665 1.362 . S
C666 C669 1.409 . S
C667 H659 0.930 . S
C667 C668 1.355 . S
C667 C669 1.415 . S
C668 C667 1.355 . S
C668 C670 1.419 . S
C669 C664 1.425 . S
C669 C666 1.409 . S
C669 C667 1.415 . S
C670 H660 0.930 . S
C670 C668 1.419 . S
C670 C671 1.362 . S
C671 H661 0.930 . S
C671 C664 1.409 . S
C671 C670 1.362 . S
H672 C678 0.930 . S
H673 C681 0.930 . S
H674 C682 0.930 . S
H675 C683 0.930 1_655 S
H676 C686 0.930 . S
H677 C687 0.930 . S
C678 H672 0.930 . S
C678 C679 1.355 . S
C678 C680 1.415 . S
C679 C678 1.355 . S
C679 C681 1.419 1_455 S
C680 C678 1.415 . S
C680 C685 1.425 . S
C680 C687 1.409 . S
C681 H673 0.930 . S
C681 C679 1.419 1_655 S
C681 C682 1.362 . S
C682 H674 0.930 . S
C682 C681 1.362 . S
C682 C685 1.409 1_655 S
C683 H675 0.930 1_455 S
C683 C684 1.355 . S
C683 C685 1.415 . S
C684 C683 1.355 . S
C684 C686 1.419 . S
C685 C680 1.425 . S
C685 C682 1.409 1_455 S
C685 C683 1.415 . S
C686 H676 0.930 . S
C686 C684 1.419 . S
C686 C687 1.362 . S
C687 H677 0.930 . S
C687 C680 1.409 . S
C687 C686 1.362 . S
H688 C694 0.930 . S
H689 C697 0.930 . S
H690 C698 0.930 . S
H691 C699 0.930 1_565 S
H692 C702 0.930 . S
H693 C703 0.930 . S
C694 H688 0.930 . S
C694 C695 1.355 . S
C694 C696 1.415 . S
C695 C694 1.355 . S
C695 C697 1.419 1_545 S
C696 C694 1.415 . S
C696 C701 1.425 . S
C696 C703 1.409 . S
C697 H689 0.930 . S
C697 C695 1.419 1_565 S
C697 C698 1.362 . S
C698 H690 0.930 . S
C698 C697 1.362 . S
C698 C701 1.409 1_565 S
C699 H691 0.930 1_545 S
C699 C700 1.355 . S
C699 C701 1.415 . S
C700 C699 1.355 . S
C700 C702 1.419 . S
C701 C696 1.425 . S
C701 C698 1.409 1_545 S
C701 C699 1.415 . S
C702 H692 0.930 . S
C702 C700 1.419 . S
C702 C703 1.362 . S
C703 H693 0.930 . S
C703 C696 1.409 . S
C703 C702 1.362 . S
H704 C710 0.930 . S
H705 C713 0.930 . S
H706 C714 0.930 . S
H707 C715 0.930 . S
H708 C718 0.930 . S
H709 C719 0.930 . S
C710 H704 0.930 . S
C710 C711 1.355 . S
C710 C712 1.415 . S
C711 C710 1.355 . S
C711 C713 1.419 . S
C712 C710 1.415 . S
C712 C717 1.425 . S
C712 C719 1.409 . S
C713 H705 0.930 . S
C713 C711 1.419 . S
C713 C714 1.362 . S
C714 H706 0.930 . S
C714 C713 1.362 . S
C714 C717 1.409 . S
C715 H707 0.930 . S
C715 C716 1.355 . S
C715 C717 1.415 . S
C716 C715 1.355 . S
C716 C718 1.419 . S
C717 C712 1.425 . S
C717 C714 1.409 . S
C717 C715 1.415 . S
C718 H708 0.930 . S
C718 C716 1.419 . S
C718 C719 1.362 . S
C719 H709 0.930 . S
C719 C712 1.409 . S
C719 C718 1.362 . S
H720 C726 0.930 . S
H721 C729 0.930 . S
H722 C730 0.930 . S
H723 C731 0.930 . S
H724 C734 0.930 . S
H725 C735 0.930 . S
C726 H720 0.930 . S
C726 C727 1.355 1_565 S
C726 C728 1.415 . S
C727 C726 1.355 1_545 S
C727 C729 1.419 . S
C728 C726 1.415 . S
C728 C733 1.425 1_565 S
C728 C735 1.409 . S
C729 H721 0.930 . S
C729 C727 1.419 . S
C729 C730 1.362 . S
C730 H722 0.930 . S
C730 C729 1.362 . S
C730 C733 1.409 . S
C731 H723 0.930 . S
C731 C732 1.355 . S
C731 C733 1.415 . S
C732 C731 1.355 . S
C732 C734 1.419 1_545 S
C733 C728 1.425 1_545 S
C733 C730 1.409 . S
C733 C731 1.415 . S
C734 H724 0.930 . S
C734 C732 1.419 1_565 S
C734 C735 1.362 . S
C735 H725 0.930 . S
C735 C728 1.409 . S
C735 C734 1.362 . S
H736 C742 0.930 . S
H737 C745 0.930 . S
H738 C746 0.930 . S
H739 C747 0.930 . S
H740 C750 0.930 . S
H741 C751 0.930 . S
C742 H736 0.930 . S
C742 C743 1.355 . S
C742 C744 1.415 . S
C743 C742 1.355 . S
C743 C745 1.419 . S
C744 C742 1.415 . S
C744 C749 1.425 . S
C744 C751 1.409 . S
C745 H737 0.930 . S
C745 C743 1.419 . S
C745 C746 1.362 . S
C746 H738 0.930 . S
C746 C745 1.362 . S
C746 C749 1.409 . S
C747 H739 0.930 . S
C747 C748 1.355 . S
C747 C749 1.415 . S
C748 C747 1.355 . S
C748 C750 1.419 . S
C749 C744 1.425 . S
C749 C746 1.409 . S
C749 C747 1.415 . S
C750 H740 0.930 . S
C750 C748 1.419 . S
C750 C751 1.362 . S
C751 H741 0.930 . S
C751 C744 1.409 . S
C751 C750 1.362 . S
H752 C758 0.930 . S
H753 C761 0.930 . S
H754 C762 0.930 . S
H755 C763 0.930 . S
H756 C766 0.930 . S
H757 C767 0.930 . S
C758 H752 0.930 . S
C758 C759 1.355 1_655 S
C758 C760 1.415 . S
C759 C758 1.355 1_455 S
C759 C761 1.419 . S
C760 C758 1.415 . S
C760 C765 1.425 1_655 S
C760 C767 1.409 . S
C761 H753 0.930 . S
C761 C759 1.419 . S
C761 C762 1.362 . S
C762 H754 0.930 . S
C762 C761 1.362 . S
C762 C765 1.409 . S
C763 H755 0.930 . S
C763 C764 1.355 . S
C763 C765 1.415 . S
C764 C763 1.355 . S
C764 C766 1.419 1_455 S
C765 C760 1.425 1_455 S
C765 C762 1.409 . S
C765 C763 1.415 . S
C766 H756 0.930 . S
C766 C764 1.419 1_655 S
C766 C767 1.362 . S
C767 H757 0.930 . S
C767 C760 1.409 . S
C767 C766 1.362 . S
C487 C12 2.978 . S
C492 C451 2.972 . S
C503 C52 2.980 . S
C508 C301 2.793 . S
C519 C111 3.024 . S
C524 C361 2.862 . S
C535 C31 3.159 . S
C540 C421 2.963 . S
C556 C331 3.136 . S
C551 C71 3.163 . S
C572 C391 3.083 . S
C567 C92 3.112 . S
C583 C48 0.685 . S
C588 C181 0.636 . S
C599 C109 0.657 . S
C604 C271 0.579 . S
C615 C29 0.696 . S
C620 C151 0.548 . S
C636 C211 0.497 . S
C631 C69 0.421 . S
C652 C241 0.414 . S
C647 C88 0.388 . S
C663 C8 0.429 . S
C668 C121 0.412 . S
C684 C260 1.077 . S
C679 C17 1.080 1_455 S
C695 C57 1.063 . S
C700 C140 1.076 . S
C711 C97 1.073 . S
C716 C200 1.056 . S
C732 C380 1.785 . S
C727 C42 1.696 . S
C748 C440 1.762 1_556 S
C743 C82 1.736 . S
C759 C2 1.714 . S
C764 C320 1.781 . S
