# Generated by pormake.
# Topology ctn, (3,4)-cn, num edge types: 1
# Building blocks:
#     Node 0, Type 0, BuildingBlock: MIDCAF_clean_linker_0, # of connection points: 3
#     Node 1, Type 0, BuildingBlock: MIDCAF_clean_linker_0, # of connection points: 3
#     Node 2, Type 0, BuildingBlock: MIDCAF_clean_linker_0, # of connection points: 3
#     Node 3, Type 0, BuildingBlock: MIDCAF_clean_linker_0, # of connection points: 3
#     Node 4, Type 0, BuildingBlock: MIDCAF_clean_linker_0, # of connection points: 3
#     Node 5, Type 0, BuildingBlock: MIDCAF_clean_linker_0, # of connection points: 3
#     Node 6, Type 0, BuildingBlock: MIDCAF_clean_linker_0, # of connection points: 3
#     Node 7, Type 0, BuildingBlock: MIDCAF_clean_linker_0, # of connection points: 3
#     Node 8, Type 0, BuildingBlock: MIDCAF_clean_linker_0, # of connection points: 3
#     Node 9, Type 0, BuildingBlock: MIDCAF_clean_linker_0, # of connection points: 3
#     Node 10, Type 0, BuildingBlock: MIDCAF_clean_linker_0, # of connection points: 3
#     Node 11, Type 0, BuildingBlock: MIDCAF_clean_linker_0, # of connection points: 3
#     Node 12, Type 0, BuildingBlock: MIDCAF_clean_linker_0, # of connection points: 3
#     Node 13, Type 0, BuildingBlock: MIDCAF_clean_linker_0, # of connection points: 3
#     Node 14, Type 0, BuildingBlock: MIDCAF_clean_linker_0, # of connection points: 3
#     Node 15, Type 0, BuildingBlock: MIDCAF_clean_linker_0, # of connection points: 3
#     Node 16, Type 1, BuildingBlock: AZAVOO_clean_sbu_0, # of connection points: 4
#     Node 17, Type 1, BuildingBlock: AZAVOO_clean_sbu_0, # of connection points: 4
#     Node 18, Type 1, BuildingBlock: AZAVOO_clean_sbu_0, # of connection points: 4
#     Node 19, Type 1, BuildingBlock: AZAVOO_clean_sbu_0, # of connection points: 4
#     Node 20, Type 1, BuildingBlock: AZAVOO_clean_sbu_0, # of connection points: 4
#     Node 21, Type 1, BuildingBlock: AZAVOO_clean_sbu_0, # of connection points: 4
#     Node 22, Type 1, BuildingBlock: AZAVOO_clean_sbu_0, # of connection points: 4
#     Node 23, Type 1, BuildingBlock: AZAVOO_clean_sbu_0, # of connection points: 4
#     Node 24, Type 1, BuildingBlock: AZAVOO_clean_sbu_0, # of connection points: 4
#     Node 25, Type 1, BuildingBlock: AZAVOO_clean_sbu_0, # of connection points: 4
#     Node 26, Type 1, BuildingBlock: AZAVOO_clean_sbu_0, # of connection points: 4
#     Node 27, Type 1, BuildingBlock: AZAVOO_clean_sbu_0, # of connection points: 4
#     Edge 28, Type (0, 1), BuildingBlock: EZIPEK_clean_linker_0, # of connection points: 2
#     Edge 29, Type (0, 1), BuildingBlock: EZIPEK_clean_linker_0, # of connection points: 2
#     Edge 30, Type (0, 1), BuildingBlock: EZIPEK_clean_linker_0, # of connection points: 2
#     Edge 31, Type (0, 1), BuildingBlock: EZIPEK_clean_linker_0, # of connection points: 2
#     Edge 32, Type (0, 1), BuildingBlock: EZIPEK_clean_linker_0, # of connection points: 2
#     Edge 33, Type (0, 1), BuildingBlock: EZIPEK_clean_linker_0, # of connection points: 2
#     Edge 34, Type (0, 1), BuildingBlock: EZIPEK_clean_linker_0, # of connection points: 2
#     Edge 35, Type (0, 1), BuildingBlock: EZIPEK_clean_linker_0, # of connection points: 2
#     Edge 36, Type (0, 1), BuildingBlock: EZIPEK_clean_linker_0, # of connection points: 2
#     Edge 37, Type (0, 1), BuildingBlock: EZIPEK_clean_linker_0, # of connection points: 2
#     Edge 38, Type (0, 1), BuildingBlock: EZIPEK_clean_linker_0, # of connection points: 2
#     Edge 39, Type (0, 1), BuildingBlock: EZIPEK_clean_linker_0, # of connection points: 2
#     Edge 40, Type (0, 1), BuildingBlock: EZIPEK_clean_linker_0, # of connection points: 2
#     Edge 41, Type (0, 1), BuildingBlock: EZIPEK_clean_linker_0, # of connection points: 2
#     Edge 42, Type (0, 1), BuildingBlock: EZIPEK_clean_linker_0, # of connection points: 2
#     Edge 43, Type (0, 1), BuildingBlock: EZIPEK_clean_linker_0, # of connection points: 2
#     Edge 44, Type (0, 1), BuildingBlock: EZIPEK_clean_linker_0, # of connection points: 2
#     Edge 45, Type (0, 1), BuildingBlock: EZIPEK_clean_linker_0, # of connection points: 2
#     Edge 46, Type (0, 1), BuildingBlock: EZIPEK_clean_linker_0, # of connection points: 2
#     Edge 47, Type (0, 1), BuildingBlock: EZIPEK_clean_linker_0, # of connection points: 2
#     Edge 48, Type (0, 1), BuildingBlock: EZIPEK_clean_linker_0, # of connection points: 2
#     Edge 49, Type (0, 1), BuildingBlock: EZIPEK_clean_linker_0, # of connection points: 2
#     Edge 50, Type (0, 1), BuildingBlock: EZIPEK_clean_linker_0, # of connection points: 2
#     Edge 51, Type (0, 1), BuildingBlock: EZIPEK_clean_linker_0, # of connection points: 2
#     Edge 52, Type (0, 1), BuildingBlock: EZIPEK_clean_linker_0, # of connection points: 2
#     Edge 53, Type (0, 1), BuildingBlock: EZIPEK_clean_linker_0, # of connection points: 2
#     Edge 54, Type (0, 1), BuildingBlock: EZIPEK_clean_linker_0, # of connection points: 2
#     Edge 55, Type (0, 1), BuildingBlock: EZIPEK_clean_linker_0, # of connection points: 2
#     Edge 56, Type (0, 1), BuildingBlock: EZIPEK_clean_linker_0, # of connection points: 2
#     Edge 57, Type (0, 1), BuildingBlock: EZIPEK_clean_linker_0, # of connection points: 2
#     Edge 58, Type (0, 1), BuildingBlock: EZIPEK_clean_linker_0, # of connection points: 2
#     Edge 59, Type (0, 1), BuildingBlock: EZIPEK_clean_linker_0, # of connection points: 2
#     Edge 60, Type (0, 1), BuildingBlock: EZIPEK_clean_linker_0, # of connection points: 2
#     Edge 61, Type (0, 1), BuildingBlock: EZIPEK_clean_linker_0, # of connection points: 2
#     Edge 62, Type (0, 1), BuildingBlock: EZIPEK_clean_linker_0, # of connection points: 2
#     Edge 63, Type (0, 1), BuildingBlock: EZIPEK_clean_linker_0, # of connection points: 2
#     Edge 64, Type (0, 1), BuildingBlock: EZIPEK_clean_linker_0, # of connection points: 2
#     Edge 65, Type (0, 1), BuildingBlock: EZIPEK_clean_linker_0, # of connection points: 2
#     Edge 66, Type (0, 1), BuildingBlock: EZIPEK_clean_linker_0, # of connection points: 2
#     Edge 67, Type (0, 1), BuildingBlock: EZIPEK_clean_linker_0, # of connection points: 2
#     Edge 68, Type (0, 1), BuildingBlock: EZIPEK_clean_linker_0, # of connection points: 2
#     Edge 69, Type (0, 1), BuildingBlock: EZIPEK_clean_linker_0, # of connection points: 2
#     Edge 70, Type (0, 1), BuildingBlock: EZIPEK_clean_linker_0, # of connection points: 2
#     Edge 71, Type (0, 1), BuildingBlock: EZIPEK_clean_linker_0, # of connection points: 2
#     Edge 72, Type (0, 1), BuildingBlock: EZIPEK_clean_linker_0, # of connection points: 2
#     Edge 73, Type (0, 1), BuildingBlock: EZIPEK_clean_linker_0, # of connection points: 2
#     Edge 74, Type (0, 1), BuildingBlock: EZIPEK_clean_linker_0, # of connection points: 2
#     Edge 75, Type (0, 1), BuildingBlock: EZIPEK_clean_linker_0, # of connection points: 2
# Relax obj value: 0.002
# Max RMSD: 0.041
# Mean RMSD: 0.024
data_MOF--net-ctn--node1-AZAVOO_clean_sbu_0--node2-MIDCAF_clean_linker_0--edge1-EZIPEK_clean_linker_0
_symmetry_space_group_name_H-M    P1
_symmetry_Int_Tables_number       1
_symmetry_cell_setting            triclinic
loop_
_symmetry_equiv_pos_as_xyz
'x, y, z'
_cell_length_a     51.47185
_cell_length_b     52.359337
_cell_length_c     52.302107
_cell_angle_alpha  90.109503
_cell_angle_beta   93.052743
_cell_angle_gamma 93.331438
loop_
_atom_site_label
_atom_site_type_symbol
_atom_site_fract_x
_atom_site_fract_y
_atom_site_fract_z
_atom_type_partial_charge
C0 C 0.95838 0.02557 0.07736 0.0
C1 C 0.96198 0.00503 0.09402 0.0
C2 C 0.9755 0.98417 0.08609 0.0
C3 C 0.98651 0.98452 0.06219 0.0
H4 H 0.04401 0.95208 0.02417 0.0
H5 H 0.08176 0.92649 0.0201 0.0
H6 H 0.105 0.9716 0.95548 0.0
H7 H 0.06727 0.99749 0.95924 0.0
H8 H 0.04017 0.04806 0.94635 0.0
H9 H 0.04308 0.09072 0.92732 0.0
H10 H 0.98215 0.11417 0.97401 0.0
H11 H 0.97884 0.07171 0.99316 0.0
H12 H 0.96661 0.04242 0.0414 0.0
H13 H 0.94791 0.04177 0.08323 0.0
H14 H 0.97836 0.96814 0.0988 0.0
H15 H 0.99766 0.96859 0.05691 0.0
N16 N 0.01629 0.99085 0.01674 0.0
N17 N 0.02847 0.01516 0.98123 0.0
N18 N 0.99571 0.02854 0.00668 0.0
C19 C 0.03137 0.99429 0.9963 0.0
C20 C 0.01057 0.03231 0.98621 0.0
C21 C 0.99831 0.00785 0.022 0.0
C22 C 0.05262 0.97702 0.99215 0.0
C23 C 0.0569 0.95647 0.00887 0.0
C24 C 0.07845 0.9418 0.00661 0.0
C25 C 0.09605 0.94729 0.98756 0.0
C26 C 0.09151 0.96715 0.97027 0.0
C27 C 0.06993 0.98188 0.9725 0.0
C28 C 0.00953 0.0565 0.9716 0.0
C29 C 0.02699 0.06207 0.95226 0.0
C30 C 0.02868 0.08639 0.94129 0.0
C31 C 0.0129 0.10543 0.94943 0.0
C32 C 0.99442 0.09959 0.96755 0.0
C33 C 0.99267 0.07531 0.97849 0.0
C34 C 0.98396 0.00567 0.04583 0.0
C35 C 0.96913 0.02586 0.05344 0.0
C36 C 0.27103 0.63779 0.25124 0.0
C37 C 0.24589 0.63568 0.23944 0.0
C38 C 0.23758 0.65509 0.22306 0.0
C39 C 0.25422 0.67645 0.21858 0.0
H40 H 0.26808 0.73266 0.16646 0.0
H41 H 0.25748 0.7607 0.13084 0.0
H42 H 0.31629 0.81702 0.15956 0.0
H43 H 0.32745 0.78885 0.1955 0.0
H44 H 0.34784 0.77254 0.26583 0.0
H45 H 0.38233 0.77815 0.3001 0.0
H46 H 0.40559 0.70174 0.28605 0.0
H47 H 0.37033 0.69564 0.25287 0.0
H48 H 0.30685 0.66041 0.25648 0.0
H49 H 0.2777 0.6229 0.26391 0.0
H50 H 0.21819 0.65372 0.21386 0.0
H51 H 0.24718 0.69122 0.20598 0.0
N52 N 0.29035 0.71903 0.20823 0.0
N53 N 0.32697 0.74576 0.22097 0.0
N54 N 0.31839 0.70683 0.2421 0.0
C55 C 0.30546 0.74082 0.20505 0.0
C56 C 0.33354 0.72865 0.23938 0.0
C57 C 0.29658 0.70201 0.22675 0.0
C58 C 0.29869 0.75845 0.1839 0.0
C59 C 0.27882 0.751 0.1654 0.0
C60 C 0.27272 0.76696 0.14495 0.0
C61 C 0.2862 0.79077 0.14259 0.0
C62 C 0.3058 0.79859 0.1611 0.0
C63 C 0.31211 0.78248 0.18157 0.0
C64 C 0.35652 0.73364 0.25695 0.0
C65 C 0.36064 0.75716 0.26987 0.0
C66 C 0.38024 0.76035 0.2894 0.0
C67 C 0.39641 0.74031 0.29564 0.0
C68 C 0.39325 0.71738 0.28157 0.0
C69 C 0.37317 0.71391 0.26269 0.0
C70 C 0.27937 0.67886 0.23063 0.0
C71 C 0.28761 0.65923 0.24696 0.0
C72 C 0.01416 0.40774 0.99715 0.0
C73 C 0.99218 0.39554 0.98446 0.0
C74 C 0.96798 0.40648 0.98513 0.0
C75 C 0.96561 0.42886 0.99928 0.0
H76 H 0.92189 0.49378 0.00766 0.0
H77 H 0.8864 0.52262 0.00134 0.0
H78 H 0.91459 0.56541 0.06864 0.0
H79 H 0.95017 0.53678 0.07531 0.0
H80 H 0.99714 0.51529 0.11096 0.0
H81 H 0.02887 0.51966 0.14763 0.0
H82 H 0.07692 0.46624 0.11257 0.0
H83 H 0.04554 0.46154 0.07605 0.0
H84 H 0.02895 0.43835 0.02181 0.0
H85 H 0.03298 0.39951 0.99679 0.0
H86 H 0.95081 0.39719 0.97548 0.0
H87 H 0.94656 0.43646 0.00026 0.0
N88 N 0.96397 0.47688 0.02837 0.0
N89 N 0.97895 0.49975 0.06549 0.0
N90 N 0.00212 0.46585 0.05106 0.0
C91 C 0.96114 0.49606 0.04542 0.0
C92 C 0.99951 0.48465 0.06843 0.0
C93 C 0.98452 0.46179 0.03105 0.0
C94 C 0.93904 0.51296 0.04197 0.0
C95 C 0.92058 0.50924 0.02123 0.0
C96 C 0.90025 0.52566 0.01754 0.0
C97 C 0.89803 0.54609 0.03449 0.0
C98 C 0.91609 0.5497 0.05538 0.0
C99 C 0.93641 0.5333 0.05911 0.0
C100 C 0.01874 0.48807 0.0905 0.0
C101 C 0.01447 0.50451 0.11099 0.0
C102 C 0.0325 0.50698 0.13199 0.0
C103 C 0.05512 0.49322 0.13271 0.0
C104 C 0.05951 0.47694 0.11232 0.0
C105 C 0.0415 0.47433 0.09145 0.0
C106 C 0.98736 0.4403 0.01324 0.0
C107 C 0.01177 0.42984 0.01152 0.0
C108 C 0.75008 0.76917 0.14473 0.0
C109 C 0.72932 0.75313 0.1345 0.0
C110 C 0.70427 0.75536 0.14335 0.0
C111 C 0.70016 0.77323 0.16246 0.0
H112 H 0.66384 0.7775 0.23361 0.0
H113 H 0.63287 0.76784 0.26654 0.0
H114 H 0.6494 0.84299 0.29929 0.0
H115 H 0.68072 0.85291 0.26661 0.0
H116 H 0.75543 0.86374 0.26006 0.0
H117 H 0.79166 0.89632 0.26522 0.0
H118 H 0.78639 0.91049 0.18392 0.0
H119 H 0.75119 0.87704 0.17855 0.0
H120 H 0.76236 0.79944 0.17084 0.0
H121 H 0.76953 0.76775 0.1381 0.0
H122 H 0.68798 0.74325 0.1355 0.0
H123 H 0.68071 0.77455 0.16911 0.0
N124 N 0.69775 0.80448 0.20921 0.0
N125 N 0.71242 0.84178 0.23192 0.0
N126 N 0.73372 0.82942 0.19575 0.0
C127 C 0.69527 0.82109 0.22886 0.0
C128 C 0.73148 0.84613 0.21523 0.0
C129 C 0.717 0.80851 0.19266 0.0
C130 C 0.675 0.81592 0.24757 0.0
C131 C 0.66079 0.79213 0.24763 0.0
C132 C 0.64305 0.78654 0.2664 0.0
C133 C 0.63904 0.80468 0.28531 0.0
C134 C 0.65238 0.82878 0.28482 0.0
C135 C 0.6703 0.83433 0.26618 0.0
C136 C 0.75072 0.86791 0.2189 0.0
C137 C 0.76185 0.87409 0.24339 0.0
C138 C 0.7825 0.89261 0.24634 0.0
C139 C 0.79173 0.90574 0.22493 0.0
C140 C 0.7796 0.90051 0.20065 0.0
C141 C 0.75957 0.88144 0.1976 0.0
C142 C 0.72093 0.78954 0.17247 0.0
C143 C 0.7459 0.78735 0.16334 0.0
C144 C 0.04438 0.9074 0.53419 0.0
C145 C 0.02019 0.89355 0.53232 0.0
C146 C 0.99878 0.90451 0.51981 0.0
C147 C 0.00181 0.92846 0.50825 0.0
H148 H 0.9841 0.95963 0.43409 0.0
H149 H 0.96138 0.96684 0.39265 0.0
H150 H 0.98789 0.04644 0.39601 0.0
H151 H 0.01109 0.03942 0.43723 0.0
H152 H 0.06797 0.05025 0.46453 0.0
H153 H 0.10697 0.07838 0.47308 0.0
H154 H 0.1343 0.02701 0.53149 0.0
H155 H 0.09527 0.99853 0.52322 0.0
H156 H 0.06641 0.94151 0.52417 0.0
H157 H 0.06113 0.89918 0.54369 0.0
H158 H 0.97996 0.89408 0.51819 0.0
H159 H 0.9851 0.93611 0.49812 0.0
N160 N 0.01299 0.97205 0.47548 0.0
N161 N 0.03774 0.01001 0.46795 0.0
N162 N 0.05095 0.98276 0.50106 0.0
C163 C 0.01676 0.99384 0.46176 0.0
C164 C 0.05493 0.00467 0.48754 0.0
C165 C 0.0299 0.96647 0.49528 0.0
C166 C 0.9997 -0.00111 0.43882 0.0
C167 C 0.98472 0.97879 0.42629 0.0
C168 C 0.97169 0.98285 0.40262 0.0
C169 C 0.97314 0.00711 0.39128 0.0
C170 C 0.98663 0.02757 0.40449 0.0
C171 C -4e-05 0.02347 0.42797 0.0
C172 C 0.07837 0.02205 0.49321 0.0
C173 C 0.08217 0.04483 0.47925 0.0
C174 C 0.10447 0.06096 0.48404 0.0
C175 C 0.1234 0.05468 0.50284 0.0
C176 C 0.11981 0.03207 0.51688 0.0
C177 C 0.09746 0.0159 0.51214 0.0
C178 C 0.02622 0.94208 0.50935 0.0
C179 C 0.04734 0.93156 0.52298 0.0
C180 C 0.23478 0.75462 0.85725 0.0
C181 C 0.2187 0.77485 0.86078 0.0
C182 C 0.19912 0.77976 0.84204 0.0
C183 C 0.19534 0.76417 0.82021 0.0
H184 H 0.16904 0.75752 0.73421 0.0
H185 H 0.13529 0.76287 0.69995 0.0
H186 H 0.11457 0.68187 0.70156 0.0
H187 H 0.14933 0.67628 0.73465 0.0
H188 H 0.22346 0.65921 0.72955 0.0
H189 H 0.25719 0.62902 0.72313 0.0
H190 H 0.28988 0.64457 0.79951 0.0
H191 H 0.25648 0.6748 0.80621 0.0
H192 H 0.24376 0.72348 0.83362 0.0
H193 H 0.25001 0.75063 0.87155 0.0
H194 H 0.18658 0.79539 0.84452 0.0
H195 H 0.17988 0.76818 0.8062 0.0
N196 N 0.18724 0.72948 0.77636 0.0
N197 N 0.19893 0.69325 0.75392 0.0
N198 N 0.22254 0.70647 0.7916 0.0
C199 C 0.1831 0.71295 0.75626 0.0
C200 C 0.21885 0.69 0.77151 0.0
C201 C 0.20687 0.72618 0.79428 0.0
C202 C 0.16178 0.71648 0.73687 0.0
C203 C 0.1572 0.74092 0.72723 0.0
C204 C 0.13795 0.74399 0.70773 0.0
C205 C 0.12239 0.72277 0.69821 0.0
C206 C 0.1264 0.69847 0.70856 0.0
C207 C 0.14624 0.69529 0.72738 0.0
C208 C 0.23736 0.66967 0.76832 0.0
C209 C 0.23757 0.65599 0.74514 0.0
C210 C 0.2568 0.63872 0.7414 0.0
C211 C 0.27598 0.63473 0.76082 0.0
C212 C 0.27521 0.64748 0.78432 0.0
C213 C 0.25612 0.66481 0.78804 0.0
C214 C 0.21118 0.74351 0.8168 0.0
C215 C 0.2311 0.73911 0.83551 0.0
C216 C 0.00776 0.58868 0.51075 0.0
C217 C 0.9876 0.59827 0.52421 0.0
C218 C 0.96361 0.58424 0.52474 0.0
C219 C 0.95949 0.56118 0.51128 0.0
H220 H 0.90421 0.50366 0.4934 0.0
H221 H 0.86532 0.47577 0.49946 0.0
H222 H 0.89492 0.41816 0.45169 0.0
H223 H 0.93391 0.44598 0.4452 0.0
H224 H 0.97765 0.47251 0.40373 0.0
H225 H 0.00695 0.46857 0.36854 0.0
H226 H 0.06506 0.51815 0.409 0.0
H227 H 0.0362 0.52236 0.44406 0.0
H228 H 0.01935 0.55906 0.48638 0.0
H229 H 0.02636 0.5994 0.51015 0.0
H230 H 0.94785 0.59152 0.53504 0.0
H231 H 0.94053 0.5511 0.51154 0.0
N232 N 0.95183 0.51389 0.48223 0.0
N233 N 0.96382 0.4879 0.44869 0.0
N234 N 0.99115 0.52308 0.46277 0.0
C235 C 0.94658 0.49332 0.4665 0.0
C236 C 0.98619 0.50275 0.44676 0.0
C237 C 0.97413 0.52881 0.48054 0.0
C238 C 0.92233 0.47699 0.46895 0.0
C239 C 0.90247 0.48514 0.484 0.0
C240 C 0.88016 0.46931 0.48743 0.0
C241 C 0.87738 0.44497 0.47606 0.0
C242 C 0.89678 0.43695 0.46055 0.0
C243 C 0.91904 0.45287 0.45691 0.0
C244 C 0.00449 0.49794 0.42662 0.0
C245 C 0.9968 0.48229 0.4053 0.0
C246 C 0.01343 0.48002 0.38519 0.0
C247 C 0.038 0.49317 0.3863 0.0
C248 C 0.04611 0.50793 0.40791 0.0
C249 C 0.02952 0.51035 0.42787 0.0
C250 C 0.97927 0.55191 0.49684 0.0
C251 C 0.00362 0.56571 0.49711 0.0
C252 C 0.85893 0.73623 0.72306 0.0
C253 C 0.86657 0.757 0.7077 0.0
C254 C 0.85442 0.78012 0.70978 0.0
C255 C 0.83427 0.78222 0.72634 0.0
H256 H 0.77188 0.82424 0.73465 0.0
H257 H 0.74719 0.86262 0.7317 0.0
H258 H 0.70069 0.83555 0.79331 0.0
H259 H 0.72533 0.79696 0.79666 0.0
H260 H 0.74366 0.75168 0.82932 0.0
H261 H 0.74112 0.72719 0.86872 0.0
H262 H 0.80488 0.68333 0.84725 0.0
H263 H 0.80794 0.70799 0.80757 0.0
H264 H 0.83312 0.72195 0.75124 0.0
H265 H 0.86811 0.71821 0.72161 0.0
H266 H 0.86012 0.79633 0.69807 0.0
H267 H 0.82502 0.80024 0.72719 0.0
N268 N 0.78772 0.78283 0.75438 0.0
N269 N 0.76371 0.76866 0.78887 0.0
N270 N 0.7998 0.7466 0.77741 0.0
C271 C 0.7675 0.78552 0.76957 0.0
C272 C 0.77969 0.74912 0.79294 0.0
C273 C 0.80391 0.76345 0.75807 0.0
C274 C 0.75083 0.80757 0.76611 0.0
C275 C 0.75625 0.82619 0.74745 0.0
C276 C 0.74212 0.84813 0.74564 0.0
C277 C 0.72229 0.85183 0.76235 0.0
C278 C 0.71598 0.8329 0.78027 0.0
C279 C 0.73017 0.81094 0.78217 0.0
C280 C 0.77627 0.73209 0.81533 0.0
C281 C 0.75704 0.73667 0.83267 0.0
C282 C 0.75546 0.72265 0.85523 0.0
C283 C 0.77294 0.70368 0.8609 0.0
C284 C 0.7913 0.69801 0.84314 0.0
C285 C 0.79302 0.71218 0.82054 0.0
C286 C 0.82607 0.7613 0.7414 0.0
C287 C 0.83893 0.7384 0.73991 0.0
C288 C 0.36295 0.23775 0.23067 0.0
C289 C 0.37069 0.25851 0.21535 0.0
C290 C 0.35903 0.28185 0.21782 0.0
C291 C 0.33915 0.28415 0.23464 0.0
H292 H 0.27461 0.32408 0.23987 0.0
H293 H 0.24931 0.36195 0.23539 0.0
H294 H 0.20539 0.33831 0.3 0.0
H295 H 0.23064 0.30022 0.30488 0.0
H296 H 0.24824 0.25454 0.33745 0.0
H297 H 0.24481 0.22962 0.37651 0.0
H298 H 0.30866 0.18555 0.35567 0.0
H299 H 0.31259 0.21061 0.31632 0.0
H300 H 0.33723 0.22368 0.25905 0.0
H301 H 0.37174 0.21957 0.22892 0.0
H302 H 0.36482 0.29806 0.20614 0.0
H303 H 0.33021 0.30231 0.23573 0.0
N304 N 0.29223 0.28468 0.26207 0.0
N305 N 0.26824 0.27097 0.29674 0.0
N306 N 0.30461 0.24901 0.28585 0.0
C307 C 0.27192 0.28748 0.27712 0.0
C308 C 0.28442 0.25167 0.30126 0.0
C309 C 0.30862 0.26554 0.26622 0.0
C310 C 0.25491 0.30917 0.27295 0.0
C311 C 0.25942 0.32667 0.25303 0.0
C312 C 0.24493 0.34831 0.25033 0.0
C313 C 0.22563 0.35283 0.2674 0.0
C314 C 0.22024 0.335 0.28665 0.0
C315 C 0.23477 0.31332 0.28942 0.0
C316 C 0.28091 0.23482 0.32376 0.0
C317 C 0.2615 0.23945 0.3409 0.0
C318 C 0.25943 0.2252 0.36327 0.0
C319 C 0.2766 0.20596 0.36897 0.0
C320 C 0.29532 0.20044 0.35153 0.0
C321 C 0.29752 0.21483 0.32912 0.0
C322 C 0.33076 0.26323 0.24957 0.0
C323 C 0.34323 0.24013 0.2478 0.0
C324 C 0.51638 0.90802 0.49556 0.0
C325 C 0.49442 0.89571 0.48293 0.0
C326 C 0.47016 0.9065 0.4837 0.0
C327 C 0.46769 0.92883 0.4979 0.0
H328 H 0.42238 0.99213 0.50734 0.0
H329 H 0.3859 0.01992 0.50176 0.0
H330 H 0.41517 0.06434 0.56765 0.0
H331 H 0.4517 0.03678 0.57357 0.0
H332 H 0.49936 0.01678 0.60853 0.0
H333 H 0.53103 0.02164 0.6452 0.0
H334 H 0.57864 0.96696 0.61149 0.0
H335 H 0.54733 0.96179 0.57493 0.0
H336 H 0.53106 0.93869 0.52024 0.0
H337 H 0.53525 0.89991 0.49512 0.0
H338 H 0.45301 0.89714 0.47409 0.0
H339 H 0.44859 0.93631 0.49892 0.0
N340 N 0.46563 0.97665 0.52703 0.0
N341 N 0.48061 -0.00014 0.56392 0.0
N342 N 0.50422 0.96632 0.5494 0.0
C343 C 0.46265 0.99582 0.54404 0.0
C344 C 0.50146 0.98513 0.56673 0.0
C345 C 0.48647 0.96192 0.52956 0.0
C346 C 0.44012 0.01221 0.54089 0.0
C347 C 0.42111 0.00775 0.52073 0.0
C348 C 0.40022 0.02357 0.51747 0.0
C349 C 0.398 0.04414 0.53425 0.0
C350 C 0.41667 0.04853 0.55452 0.0
C351 C 0.43753 0.03273 0.55783 0.0
C352 C 0.52074 0.98889 0.58872 0.0
C353 C 0.51659 0.00583 0.60884 0.0
C354 C 0.53458 0.0086 0.62983 0.0
C355 C 0.55705 0.99461 0.63094 0.0
C356 C 0.56135 0.97785 0.61091 0.0
C357 C 0.54339 0.97498 0.59003 0.0
C358 C 0.48942 0.9404 0.51179 0.0
C359 C 0.51389 0.93008 0.50999 0.0
C360 C 0.23855 0.27399 0.63534 0.0
C361 C 0.22595 0.24968 0.63736 0.0
C362 C 0.20853 0.24497 0.65675 0.0
C363 C 0.20428 0.26421 0.67437 0.0
H364 H 0.1648 0.27882 0.73766 0.0
H365 H 0.13475 0.27072 0.77163 0.0
H366 H 0.15361 0.34648 0.80209 0.0
H367 H 0.18415 0.35482 0.76828 0.0
H368 H 0.25223 0.36942 0.75896 0.0
H369 H 0.29047 0.39835 0.76391 0.0
H370 H 0.29612 0.39874 0.68186 0.0
H371 H 0.25891 0.36931 0.67726 0.0
H372 H 0.24494 0.31157 0.65124 0.0
H373 H 0.25204 0.27791 0.62043 0.0
H374 H 0.19869 0.22625 0.65855 0.0
H375 H 0.19121 0.25984 0.68953 0.0
N376 N 0.19727 0.30473 0.71098 0.0
N377 N 0.21444 0.34182 0.7326 0.0
N378 N 0.23294 0.3283 0.69524 0.0
C379 C 0.19647 0.32171 0.7306 0.0
C380 C 0.23263 0.34527 0.71484 0.0
C381 C 0.21541 0.30794 0.69317 0.0
C382 C 0.17709 0.31743 0.75033 0.0
C383 C 0.16252 0.2939 0.75142 0.0
C384 C 0.14531 0.2892 0.77081 0.0
C385 C 0.14215 0.30796 0.78934 0.0
C386 C 0.15595 0.33177 0.78793 0.0
C387 C 0.17341 0.33643 0.76866 0.0
C388 C 0.25362 0.36567 0.71785 0.0
C389 C 0.26239 0.37507 0.74207 0.0
C390 C 0.28514 0.39104 0.74492 0.0
C391 C 0.30047 0.39714 0.72379 0.0
C392 C 0.28865 0.39111 0.69928 0.0
C393 C 0.26626 0.37483 0.6964 0.0
C394 C 0.21761 0.28839 0.673 0.0
C395 C 0.23447 0.29316 0.65301 0.0
C396 C 0.77376 0.13752 0.75367 0.0
C397 C 0.74855 0.13553 0.742 0.0
C398 C 0.74015 0.15511 0.72591 0.0
C399 C 0.75676 0.1765 0.72153 0.0
H400 H 0.76924 0.23282 0.67016 0.0
H401 H 0.75808 0.26065 0.63458 0.0
H402 H 0.81816 0.31657 0.66143 0.0
H403 H 0.82991 0.28858 0.69736 0.0
H404 H 0.85077 0.27174 0.76864 0.0
H405 H 0.88586 0.27698 0.80235 0.0
H406 H 0.90993 0.20141 0.7857 0.0
H407 H 0.87405 0.19564 0.75311 0.0
H408 H 0.80963 0.1601 0.75887 0.0
H409 H 0.7805 0.12249 0.76612 0.0
H410 H 0.72071 0.15384 0.71681 0.0
H411 H 0.74963 0.19138 0.70912 0.0
N412 N 0.79269 0.21901 0.71109 0.0
N413 N 0.82959 0.24558 0.72318 0.0
N414 N 0.82134 0.20659 0.74433 0.0
C415 C 0.80776 0.24077 0.70768 0.0
C416 C 0.83648 0.22838 0.7414 0.0
C417 C 0.79922 0.2019 0.72939 0.0
C418 C 0.80058 0.2584 0.68668 0.0
C419 C 0.78015 0.25104 0.66873 0.0
C420 C 0.7737 0.26689 0.6483 0.0
C421 C 0.78739 0.29049 0.64539 0.0
C422 C 0.8075 0.29828 0.6634 0.0
C423 C 0.81415 0.28228 0.68386 0.0
C424 C 0.85981 0.23327 0.75852 0.0
C425 C 0.86387 0.25648 0.77199 0.0
C426 C 0.88381 0.25946 0.79119 0.0
C427 C 0.90038 0.23952 0.79658 0.0
C428 C 0.89728 0.21696 0.78191 0.0
C429 C 0.87686 0.21368 0.76335 0.0
C430 C 0.782 0.17878 0.73339 0.0
C431 C 0.79033 0.15901 0.74949 0.0
C432 C 0.4546 0.52566 0.57536 0.0
C433 C 0.46471 0.51211 0.59636 0.0
C434 C 0.48552 0.49647 0.59321 0.0
C435 C 0.49664 0.49499 0.56949 0.0
H436 H 0.54793 0.45575 0.52916 0.0
H437 H 0.58506 0.42937 0.52499 0.0
H438 H 0.60596 0.47055 0.45715 0.0
H439 H 0.56882 0.49724 0.46099 0.0
H440 H 0.54677 0.55217 0.45334 0.0
H441 H 0.54747 0.59443 0.43356 0.0
H442 H 0.47353 0.60812 0.4644 0.0
H443 H 0.47265 0.56597 0.48461 0.0
H444 H 0.45808 0.53564 0.53603 0.0
H445 H 0.43846 0.53775 0.5775 0.0
H446 H 0.49352 0.48588 0.60927 0.0
H447 H 0.51315 0.4833 0.56784 0.0
N448 N 0.51962 0.49372 0.52011 0.0
N449 N 0.53024 0.5158 0.48278 0.0
N450 N 0.49738 0.52986 0.50779 0.0
C451 C 0.5341 0.49611 0.49917 0.0
C452 C 0.51179 0.53267 0.48688 0.0
C453 C 0.50114 0.51045 0.52449 0.0
C454 C 0.55539 0.47877 0.49548 0.0
C455 C 0.5602 0.45916 0.51318 0.0
C456 C 0.5814 0.44402 0.51087 0.0
C457 C 0.59811 0.44812 0.49081 0.0
C458 C 0.59314 0.46717 0.47271 0.0
C459 C 0.57192 0.48236 0.475 0.0
C460 C 0.50983 0.55584 0.47089 0.0
C461 C 0.53033 0.56385 0.45547 0.0
C462 C 0.5308 0.58798 0.44414 0.0
C463 C 0.51064 0.60426 0.44774 0.0
C464 C 0.48922 0.59567 0.46148 0.0
C465 C 0.48885 0.57166 0.47308 0.0
C466 C 0.48731 0.50941 0.54862 0.0
C467 C 0.46586 0.52441 0.55172 0.0
C468 C 0.53983 0.41949 0.05037 0.0
C469 C 0.52676 0.39815 0.0382 0.0
C470 C 0.51625 0.40051 0.01308 0.0
C471 C 0.51893 0.42375 0.00019 0.0
H472 H 0.49287 0.46023 0.93489 0.0
H473 H 0.46964 0.46666 0.89355 0.0
H474 H 0.49317 0.547 0.89681 0.0
H475 H 0.51684 0.54079 0.93794 0.0
H476 H 0.57264 0.55338 0.96656 0.0
H477 H 0.61079 0.58247 0.97542 0.0
H478 H 0.63489 0.53606 0.03933 0.0
H479 H 0.59668 0.50648 0.03067 0.0
H480 H 0.55334 0.45881 0.04701 0.0
H481 H 0.54791 0.41806 0.06984 0.0
H482 H 0.50604 0.38427 0.0034 0.0
H483 H 0.51074 0.42483 0.98073 0.0
N484 N 0.52017 0.4738 0.97679 0.0
N485 N 0.54297 0.51309 0.97056 0.0
N486 N 0.55545 0.48704 0.00497 0.0
C487 C 0.52342 0.4957 0.96319 0.0
C488 C 0.55914 0.50894 0.99133 0.0
C489 C 0.53593 0.46941 0.99782 0.0
C490 C 0.50698 0.49995 0.93961 0.0
C491 C 0.49284 0.47935 0.92703 0.0
C492 C 0.47952 0.48296 0.90342 0.0
C493 C 0.47983 0.50726 0.89215 0.0
C494 C 0.49278 0.52811 0.90524 0.0
C495 C 0.50638 0.52447 0.92866 0.0
C496 C 0.58152 0.52744 0.99786 0.0
C497 C 0.58587 0.54928 0.98263 0.0
C498 C 0.6077 0.56597 0.9876 0.0
C499 C 0.62557 0.5613 0.00793 0.0
C500 C 0.62122 0.53988 0.02353 0.0
C501 C 0.59937 0.52306 0.01854 0.0
C502 C 0.5325 0.44507 0.01203 0.0
C503 C 0.54293 0.44271 0.03729 0.0
C504 C 0.73294 0.24989 0.36008 0.0
C505 C 0.7167 0.26995 0.3638 0.0
C506 C 0.69719 0.27501 0.34503 0.0
C507 C 0.69388 0.25993 0.32282 0.0
H508 H 0.66897 0.25628 0.2365 0.0
H509 H 0.63525 0.26204 0.20233 0.0
H510 H 0.61733 0.1805 0.20007 0.0
H511 H 0.65218 0.17461 0.23306 0.0
H512 H 0.72857 0.16279 0.22665 0.0
H513 H 0.76494 0.13825 0.21732 0.0
H514 H 0.79737 0.15113 0.2943 0.0
H515 H 0.76105 0.1756 0.30357 0.0
H516 H 0.74263 0.21952 0.3358 0.0
H517 H 0.7481 0.24578 0.37441 0.0
H518 H 0.68453 0.29051 0.34766 0.0
H519 H 0.67865 0.2642 0.30865 0.0
N520 N 0.68713 0.22658 0.27785 0.0
N521 N 0.70186 0.19346 0.2529 0.0
N522 N 0.72427 0.20552 0.29158 0.0
C523 C 0.68438 0.21143 0.25662 0.0
C524 C 0.722 0.19049 0.27032 0.0
C525 C 0.70695 0.2235 0.29561 0.0
C526 C 0.6631 0.21501 0.23723 0.0
C527 C 0.65776 0.23965 0.22867 0.0
C528 C 0.63856 0.24294 0.20921 0.0
C529 C 0.62375 0.22171 0.19865 0.0
C530 C 0.62858 0.19713 0.20786 0.0
C531 C 0.64843 0.19377 0.22664 0.0
C532 C 0.74273 0.17288 0.2653 0.0
C533 C 0.74406 0.16121 0.24131 0.0
C534 C 0.76581 0.14784 0.23563 0.0
C535 C 0.78771 0.147 0.25318 0.0
C536 C 0.78387 0.15501 0.2785 0.0
C537 C 0.76224 0.16844 0.28425 0.0
C538 C 0.71013 0.23967 0.31903 0.0
C539 C 0.72973 0.23491 0.33795 0.0
C540 C 0.50527 0.09692 0.00659 0.0
C541 C 0.48537 0.1062 0.02064 0.0
C542 C 0.46146 0.09206 0.02141 0.0
C543 C 0.45724 0.06909 0.00778 0.0
H544 H 0.40323 0.00947 0.99281 0.0
H545 H 0.36501 0.98087 -0.00041 0.0
H546 H 0.39377 0.92475 0.94953 0.0
H547 H 0.43208 0.95323 0.94235 0.0
H548 H 0.47597 0.97785 0.90204 0.0
H549 H 0.50547 0.97249 0.86727 0.0
H550 H 0.56255 0.02507 0.90521 0.0
H551 H 0.53347 0.03072 0.93983 0.0
H552 H 0.51661 0.06758 0.98175 0.0
H553 H 0.52382 0.10771 0.00583 0.0
H554 H 0.44592 0.09907 0.03218 0.0
H555 H 0.43839 0.05883 0.00836 0.0
N556 N 0.44976 0.02139 0.97927 0.0
N557 N 0.46189 0.9949 0.94619 0.0
N558 N 0.4887 0.03082 0.95916 0.0
C559 C 0.44473 0.0004 0.96405 0.0
C560 C 0.48395 0.01007 0.94367 0.0
C561 C 0.47176 0.03666 0.97698 0.0
C562 C 0.42089 0.98361 0.96714 0.0
C563 C 0.40145 0.99113 0.98308 0.0
C564 C 0.37953 0.97488 0.98693 0.0
C565 C 0.37669 0.95077 0.97508 0.0
C566 C 0.39568 0.94335 0.95877 0.0
C567 C 0.41755 0.95966 0.95475 0.0
C568 C 0.50227 0.00487 0.92365 0.0
C569 C 0.49491 0.98805 0.90314 0.0
C570 C 0.51167 0.98496 0.88327 0.0
C571 C 0.53604 0.99845 0.88382 0.0
C572 C 0.54377 0.01454 0.90458 0.0
C573 C 0.52705 0.01778 0.92428 0.0
C574 C 0.47682 0.06001 0.99296 0.0
C575 C 0.50102 0.07405 0.9928 0.0
Mg576 Mg 0.23263 0.85789 0.00863 0.0
O577 O 0.27012 0.88154 6e-05 0.0
O578 O 0.30165 0.8538 0.99923 0.0
Mg579 Mg 0.28488 0.81375 0.00957 0.0
C580 C 0.29369 0.87637 0.99696 0.0
C581 C 0.18315 0.88314 0.99455 0.0
O582 O 0.17592 0.85907 0.9985 0.0
O583 O 0.23037 0.84119 0.96842 0.0
O584 O 0.26048 0.81195 0.97122 0.0
O585 O 0.24005 0.86423 0.05054 0.0
O586 O 0.25361 0.8313 0.02948 0.0
C587 C 0.24224 0.82301 0.95889 0.0
C588 C 0.25233 0.84333 0.05088 0.0
O589 O 0.20727 0.89002 0.99601 0.0
Mg590 Mg 0.15825 0.50347 0.27378 0.0
O591 O 0.133 0.50144 0.23641 0.0
O592 O 0.15991 0.50112 0.20419 0.0
Mg593 Mg 0.20213 0.50577 0.22111 0.0
C594 C 0.13706 0.50041 0.21261 0.0
C595 C 0.11569 0.50647 0.31235 0.0
O596 O 0.12802 0.52904 0.31516 0.0
O597 O 0.16879 0.46228 0.26897 0.0
O598 O 0.19844 0.46569 0.2391 0.0
O599 O 0.15931 0.54616 0.27344 0.0
O600 O 0.18874 0.52343 0.25613 0.0
C601 C 0.18561 0.45266 0.25533 0.0
C602 C 0.1804 0.54553 0.26109 0.0
O603 O 0.12292 0.49086 0.29594 0.0
Mg604 Mg 0.77499 0.65498 0.02265 0.0
O605 O 0.73557 0.6318 0.02108 0.0
O606 O 0.70487 0.6595 0.01159 0.0
Mg607 Mg 0.72395 0.69995 0.0093 0.0
C608 C 0.71181 0.63689 0.01631 0.0
C609 C 0.82207 0.6228 0.02418 0.0
O610 O 0.83212 0.64637 0.02665 0.0
O611 O 0.77284 0.65836 0.97918 0.0
O612 O 0.74425 0.68879 0.97302 0.0
O613 O 0.77265 0.66342 0.06442 0.0
O614 O 0.75672 0.68723 0.03328 0.0
C615 C 0.76057 0.67371 0.96469 0.0
C616 C 0.76007 0.68317 0.05742 0.0
O617 O 0.79749 0.61892 0.02129 0.0
Mg618 Mg 0.90617 0.03741 0.23502 0.0
O619 O 0.87962 0.00068 0.23256 0.0
O620 O 0.90543 0.96778 0.23175 0.0
Mg621 Mg 0.94771 0.98339 0.22981 0.0
C622 C 0.88286 0.97668 0.23197 0.0
C623 C 0.87083 0.08125 0.2342 0.0
O624 O 0.8876 0.08678 0.21668 0.0
O625 O 0.91914 0.02894 0.27653 0.0
O626 O 0.94662 0.99792 0.27118 0.0
O627 O 0.90386 0.04006 0.19253 0.0
O628 O 0.93388 0.01962 0.21481 0.0
C629 C 0.93558 0.01341 0.28543 0.0
C630 C 0.9237 0.02595 0.19287 0.0
O631 O 0.87267 0.06069 0.24687 0.0
Mg632 Mg 0.27163 0.14938 0.52811 0.0
O633 O 0.23306 0.12518 0.52298 0.0
O634 O 0.202 0.15237 0.51326 0.0
Mg635 Mg 0.22015 0.19352 0.51509 0.0
C636 C 0.20941 0.12979 0.51708 0.0
C637 C 0.31952 0.11851 0.52667 0.0
O638 O 0.32906 0.14231 0.52841 0.0
O639 O 0.27191 0.15587 0.48504 0.0
O640 O 0.24272 0.18576 0.47929 0.0
O641 O 0.26653 0.15429 0.56996 0.0
O642 O 0.25252 0.18092 0.54029 0.0
C643 C 0.25999 0.17179 0.47094 0.0
C644 C 0.25477 0.17485 0.56411 0.0
O645 O 0.29497 0.114 0.52531 0.0
Mg646 Mg 0.40469 0.53498 0.73853 0.0
O647 O 0.38049 0.4967 0.73695 0.0
O648 O 0.40884 0.46605 0.73438 0.0
Mg649 Mg 0.44997 0.4845 0.73107 0.0
C650 C 0.38571 0.47322 0.7359 0.0
C651 C 0.36205 0.57337 0.73865 0.0
O652 O 0.37438 0.5797 0.71803 0.0
O653 O 0.42014 0.5272 0.77947 0.0
O654 O 0.44954 0.49834 0.77271 0.0
O655 O 0.40075 0.53792 0.69592 0.0
O656 O 0.4334 0.51996 0.71672 0.0
C657 C 0.43802 0.51283 0.78759 0.0
C658 C 0.42192 0.52584 0.69523 0.0
O659 O 0.36981 0.55502 0.75241 0.0
Mg660 Mg 0.73198 0.35484 0.51068 0.0
O661 O 0.76961 0.37778 0.50131 0.0
O662 O 0.80074 0.34961 0.5007 0.0
Mg663 Mg 0.78362 0.31001 0.51209 0.0
C664 C 0.79304 0.37224 0.49806 0.0
C665 C 0.68285 0.38116 0.4975 0.0
O666 O 0.675 0.35758 0.50298 0.0
O667 O 0.72907 0.33722 0.47084 0.0
O668 O 0.75888 0.3077 0.47399 0.0
O669 O 0.74 0.36211 0.55239 0.0
O670 O 0.75286 0.32846 0.53196 0.0
C671 C 0.74066 0.31871 0.46158 0.0
C672 C 0.75206 0.34108 0.55308 0.0
O673 O 0.70712 0.38717 0.49759 0.0
Mg674 Mg 0.65824 0.00401 0.7733 0.0
O675 O 0.63361 0.00302 0.73552 0.0
O676 O 0.66106 0.00259 0.70374 0.0
Mg677 Mg 0.70305 0.00631 0.72134 0.0
C678 C 0.63806 0.00218 0.71179 0.0
C679 C 0.61495 0.00795 0.81089 0.0
O680 O 0.62758 0.03037 0.81363 0.0
O681 O 0.66782 0.96258 0.7678 0.0
O682 O 0.69803 0.96596 0.73845 0.0
O683 O 0.66039 0.04673 0.77376 0.0
O684 O 0.68945 0.02358 0.75641 0.0
C685 C 0.68464 0.95287 0.75421 0.0
C686 C 0.68163 0.04581 0.76169 0.0
O687 O 0.62227 0.99198 0.79485 0.0
Mg688 Mg 0.03613 0.25685 0.90709 0.0
O689 O 0.99914 0.25079 0.88084 0.0
O690 O 0.96661 0.2388 0.90571 0.0
Mg691 Mg 0.98333 0.2332 0.94653 0.0
C692 C 0.97512 0.24466 0.88386 0.0
C693 C 0.07777 0.2713 0.86982 0.0
O694 O 0.08673 0.2512 0.88155 0.0
O695 O 0.02101 0.2928 0.92414 0.0
O696 O 0.99091 0.27677 0.95007 0.0
O697 O 0.04571 0.21662 0.9001 0.0
O698 O 0.02192 0.22885 0.93148 0.0
C699 C 0.0042 0.29561 0.94085 0.0
C700 C 0.03152 0.21064 0.91913 0.0
O701 O 0.05634 0.27963 0.87619 0.0
Mg702 Mg 0.53326 0.75533 0.40401 0.0
O703 O 0.49538 0.75048 0.379 0.0
O704 O 0.46333 0.73977 0.40488 0.0
Mg705 Mg 0.48116 0.73393 0.44527 0.0
C706 C 0.47135 0.74515 0.38273 0.0
C707 C 0.57417 0.76781 0.36556 0.0
O708 O 0.58256 0.74746 0.37728 0.0
O709 O 0.52028 0.7921 0.42144 0.0
O710 O 0.49051 0.77729 0.44833 0.0
O711 O 0.54079 0.71463 0.39679 0.0
O712 O 0.51898 0.72805 0.42915 0.0
C713 C 0.50416 0.79563 0.43866 0.0
C714 C 0.5273 0.70934 0.41648 0.0
O715 O 0.55328 0.77703 0.37227 0.0
Mg716 Mg 0.98339 0.73948 0.59396 0.0
O717 O 0.0213 0.73492 0.61843 0.0
O718 O 0.05307 0.73199 0.59119 0.0
Mg719 Mg 0.03526 0.73073 0.55013 0.0
C720 C 0.04526 0.73285 0.61393 0.0
C721 C 0.9406 0.74085 0.63081 0.0
O722 O 0.9329 0.72275 0.61422 0.0
O723 O 0.99637 0.78021 0.5826 0.0
O724 O 0.02559 0.77289 0.55356 0.0
O725 O 0.97511 0.69733 0.59394 0.0
O726 O 0.99733 0.71816 0.56463 0.0
C727 C 0.01211 0.78807 0.56582 0.0
C728 C 0.98811 0.69676 0.57347 0.0
O729 O 0.9624 0.75306 0.62832 0.0
Mg730 Mg 0.48408 0.244 0.09767 0.0
O731 O 0.52201 0.23683 0.12087 0.0
O732 O 0.5533 0.23578 0.09285 0.0
Mg733 Mg 0.5347 0.23746 0.05207 0.0
C734 C 0.54584 0.23503 0.11576 0.0
C735 C 0.44245 0.24319 0.13612 0.0
O736 O 0.43427 0.22569 0.11906 0.0
O737 O 0.49866 0.28518 0.08978 0.0
O738 O 0.52617 0.27957 0.05873 0.0
O739 O 0.47454 0.2021 0.09464 0.0
O740 O 0.49694 0.22444 0.06653 0.0
C741 C 0.51372 0.29404 0.07285 0.0
C742 C 0.48733 0.20264 0.07402 0.0
O743 O 0.46409 0.2556 0.13341 0.0
C744 C 0.24401 0.8082 0.88777 0.0
C745 C 0.22231 0.79031 0.88465 0.0
C746 C 0.21062 0.79856 0.92864 0.0
C747 C 0.23425 0.81373 0.93276 0.0
N748 N 0.27416 0.83255 0.91706 0.0
N749 N 0.18588 0.76663 0.90224 0.0
C750 C 0.25111 0.81854 0.91249 0.0
C751 C 0.20562 0.78524 0.90501 0.0
N752 N 0.25751 0.81555 0.86693 0.0
N753 N 0.19308 0.79669 0.94739 0.0
H754 H 0.18134 0.75666 0.88515 0.0
H755 H 0.17506 0.75975 0.91728 0.0
H756 H 0.19654 0.80506 0.96543 0.0
H757 H 0.17426 0.78841 0.94451 0.0
H758 H 0.27198 0.83029 0.86729 0.0
H759 H 0.25269 0.80831 0.84857 0.0
H760 H 0.28874 0.83426 0.90402 0.0
H761 H 0.27942 0.84143 0.93459 0.0
C762 C 0.07549 0.47609 0.36448 0.0
C763 C 0.055 0.49304 0.36434 0.0
C764 C 0.071 0.51382 0.32584 0.0
C765 C 0.09358 0.4996 0.32838 0.0
N766 N 0.11847 0.46799 0.35061 0.0
N767 N 0.03316 0.52866 0.3458 0.0
C768 C 0.09599 0.48061 0.34758 0.0
C769 C 0.05253 0.5119 0.34507 0.0
N770 N 0.07525 0.45574 0.38081 0.0
N771 N 0.06703 0.52876 0.30473 0.0
H772 H 0.01869 0.52727 0.35903 0.0
H773 H 0.03224 0.54481 0.33429 0.0
H774 H 0.08014 0.53033 0.29018 0.0
H775 H 0.0498 0.53769 0.30042 0.0
H776 H 0.08818 0.44122 0.38022 0.0
H777 H 0.06059 0.45219 0.39361 0.0
H778 H 0.12268 0.45617 0.36607 0.0
H779 H 0.13387 0.47062 0.33854 0.0
C780 C 0.75217 0.67361 0.89209 0.0
C781 C 0.77292 0.69136 0.88645 0.0
C782 C 0.78977 0.69026 0.93115 0.0
C783 C 0.76676 0.67599 0.93748 0.0
N784 N 0.72598 0.65357 0.92465 0.0
N785 N 0.81074 0.71816 0.90058 0.0
C786 C 0.74803 0.66727 0.91807 0.0
C787 C 0.79184 0.69977 0.90587 0.0
N788 N 0.73663 0.66276 0.87251 0.0
N789 N 0.80948 0.69512 0.9494 0.0
H790 H 0.81311 0.72562 0.88234 0.0
H791 H 0.823 0.72746 0.91457 0.0
H792 H 0.80834 0.68934 0.96838 0.0
H793 H 0.82784 0.70295 0.94531 0.0
H794 H 0.72252 0.64805 0.87499 0.0
H795 H 0.73939 0.66705 0.85333 0.0
H796 H 0.71009 0.64915 0.91196 0.0
H797 H 0.72311 0.64748 0.94333 0.0
C798 C 0.93564 0.00903 0.35838 0.0
C799 C 0.96291 0.01046 0.36444 0.0
C800 C 0.97105 0.01953 0.3196 0.0
C801 C 0.94417 0.01453 0.31294 0.0
N802 N 0.90092 0.00169 0.32551 0.0
N803 N 0.00684 0.01248 0.35004 0.0
C804 C 0.92637 0.0087 0.33222 0.0
C805 C 0.98072 0.01454 0.34485 0.0
N806 N 0.91868 0.00847 0.37762 0.0
N807 N 0.98728 0.02974 0.30193 0.0
H808 H 0.01485 0.00826 0.36816 0.0
H809 H 0.0203 0.01249 0.33585 0.0
H810 H 0.98079 0.03436 0.28337 0.0
H811 H 0.00652 0.03616 0.30648 0.0
H812 H 0.89868 0.01002 0.37449 0.0
H813 H 0.92486 0.00869 0.39695 0.0
H814 H 0.88772 0.99449 0.33848 0.0
H815 H 0.89345 0.00118 0.30659 0.0
C816 C 0.21413 0.22017 0.59999 0.0
C817 C 0.23228 0.22885 0.61989 0.0
C818 C 0.26523 0.2024 0.6031 0.0
C819 C 0.24652 0.19223 0.58425 0.0
N820 N 0.20166 0.18715 0.56856 0.0
N821 N 0.27285 0.22383 0.6441 0.0
C822 C 0.22049 0.19989 0.58378 0.0
C823 C 0.25712 0.21853 0.62262 0.0
N824 N 0.19119 0.23183 0.59599 0.0
N825 N 0.29104 0.19803 0.60156 0.0
H826 H 0.26752 0.23551 0.6589 0.0
H827 H 0.28999 0.21469 0.64835 0.0
H828 H 0.29821 0.18714 0.5871 0.0
H829 H 0.30574 0.20734 0.61316 0.0
H830 H 0.17853 0.22821 0.58003 0.0
H831 H 0.18577 0.24666 0.60756 0.0
H832 H 0.18187 0.19013 0.56919 0.0
H833 H 0.20566 0.17171 0.55721 0.0
C834 C 0.43963 0.49482 0.63308 0.0
C835 C 0.45429 0.5153 0.62202 0.0
C836 C 0.44719 0.54275 0.65874 0.0
C837 C 0.43402 0.52173 0.67058 0.0
N838 N 0.42239 0.47654 0.67152 0.0
N839 N 0.47667 0.557 0.62635 0.0
C840 C 0.43171 0.49736 0.65852 0.0
C841 C 0.45937 0.53882 0.63541 0.0
N842 N 0.43244 0.47333 0.61895 0.0
N843 N 0.44795 0.56654 0.6697 0.0
H844 H 0.48626 0.55471 0.6095 0.0
H845 H 0.48334 0.57334 0.63663 0.0
H846 H 0.44062 0.57002 0.68751 0.0
H847 H 0.45437 0.58313 0.66043 0.0
H848 H 0.41936 0.45894 0.62498 0.0
H849 H 0.43775 0.47083 0.60018 0.0
H850 H 0.4227 0.45782 0.66483 0.0
H851 H 0.41651 0.4779 0.69012 0.0
C852 C 0.7558 0.31781 0.62212 0.0
C853 C 0.78027 0.30673 0.62321 0.0
C854 C 0.78845 0.32323 0.58047 0.0
C855 C 0.76237 0.33069 0.57778 0.0
N856 N 0.71957 0.33075 0.59494 0.0
N857 N 0.8189 0.29603 0.60225 0.0
C858 C 0.74561 0.32708 0.5984 0.0
C859 C 0.79645 0.30877 0.60212 0.0
N860 N 0.74232 0.31954 0.64382 0.0
N861 N 0.80585 0.33073 0.56281 0.0
H862 H 0.82556 0.28531 0.61778 0.0
H863 H 0.82983 0.29446 0.58618 0.0
H864 H 0.80072 0.34207 0.5473 0.0
H865 H 0.82574 0.32807 0.56501 0.0
H866 H 0.72559 0.32972 0.64472 0.0
H867 H 0.74934 0.31299 0.66157 0.0
H868 H 0.70615 0.32575 0.60856 0.0
H869 H 0.71076 0.33626 0.57757 0.0
C870 C 0.57825 0.97739 0.67114 0.0
C871 C 0.57635 0.99744 0.65302 0.0
C872 C 0.61147 0.02237 0.67676 0.0
C873 C 0.61573 0.001 0.69271 0.0
N874 N 0.60487 0.95719 0.70406 0.0
N875 N 0.59318 0.03773 0.63645 0.0
C876 C 0.59947 0.97825 0.68976 0.0
C877 C 0.59346 0.01966 0.65528 0.0
N878 N 0.55944 0.95783 0.67086 0.0
N879 N 0.62393 0.04554 0.6827 0.0
H880 H 0.5802 0.03652 0.62042 0.0
H881 H 0.60718 0.05284 0.63564 0.0
H882 H 0.63638 0.0484 0.69895 0.0
H883 H 0.6198 0.06241 0.67321 0.0
H884 H 0.55824 0.94403 0.68512 0.0
H885 H 0.54361 0.95665 0.65751 0.0
H886 H 0.59565 0.93918 0.70071 0.0
H887 H 0.61992 0.95724 0.71822 0.0
C888 C 0.9173 0.22341 0.83908 0.0
C889 C 0.91961 0.24129 0.81887 0.0
C890 C 0.95654 0.26344 0.84273 0.0
C891 C 0.95642 0.24345 0.86114 0.0
N892 N 0.94043 0.20067 0.87228 0.0
N893 N 0.94493 0.27533 0.79908 0.0
C894 C 0.93788 0.22233 0.85804 0.0
C895 C 0.94029 0.26045 0.81995 0.0
N896 N 0.8951 0.20801 0.84078 0.0
N897 N 0.97107 0.28579 0.84741 0.0
H898 H 0.9338 0.27336 0.78186 0.0
H899 H 0.96136 0.28783 0.79808 0.0
H900 H 0.98218 0.28948 0.86438 0.0
H901 H 0.96981 0.30176 0.83564 0.0
H902 H 0.89165 0.1964 0.85656 0.0
H903 H 0.87898 0.20892 0.82794 0.0
H904 H 0.9287 0.18399 0.86885 0.0
H905 H 0.95602 0.19824 0.88541 0.0
C906 C 0.50128 0.84901 0.4872 0.0
C907 C 0.49656 0.87019 0.47111 0.0
C908 C 0.49501 0.84216 0.43339 0.0
C909 C 0.50238 0.82162 0.44937 0.0
N910 N 0.51856 0.80718 0.49076 0.0
N911 N 0.49297 0.88811 0.42872 0.0
C912 C 0.50722 0.82551 0.4761 0.0
C913 C 0.49458 0.86713 0.44411 0.0
N914 N 0.49928 0.85106 0.51309 0.0
N915 N 0.48737 0.83766 0.40828 0.0
H916 H 0.49249 0.90665 0.43594 0.0
H917 H 0.49426 0.88737 0.40893 0.0
H918 H 0.48707 0.81958 0.39986 0.0
H919 H 0.47918 0.85134 0.39641 0.0
H920 H 0.49981 0.83543 0.52537 0.0
H921 H 0.49451 0.86785 0.52204 0.0
H922 H 0.52495 0.81015 0.50983 0.0
H923 H 0.52415 0.78999 0.48326 0.0
C924 C 0.13625 0.29786 0.83567 0.0
C925 C 0.12506 0.30198 0.81075 0.0
C926 C 0.08208 0.28715 0.82469 0.0
C927 C 0.09311 0.28419 0.84991 0.0
N928 N 0.12892 0.29346 0.8808 0.0
N929 N 0.08675 0.30652 0.78298 0.0
C930 C 0.11968 0.29165 0.85583 0.0
C931 C 0.09773 0.29858 0.80575 0.0
N932 N 0.16274 0.29861 0.83989 0.0
N933 N 0.05723 0.27772 0.81836 0.0
H934 H 0.09771 0.31505 0.76874 0.0
H935 H 0.06669 0.30688 0.77921 0.0
H936 H 0.04518 0.26874 0.83143 0.0
H937 H 0.0493 0.2768 0.79962 0.0
H938 H 0.17186 0.29286 0.857 0.0
H939 H 0.1757 0.30286 0.82563 0.0
H940 H 0.14748 0.30119 0.88633 0.0
H941 H 0.11711 0.28978 0.89614 0.0
C942 C 0.52547 0.64963 0.45751 0.0
C943 C 0.51362 0.63135 0.43982 0.0
C944 C 0.50818 0.66481 0.40759 0.0
C945 C 0.52207 0.6826 0.42454 0.0
N946 N 0.54797 0.69122 0.4638 0.0
N947 N 0.4959 0.6203 0.39743 0.0
C948 C 0.53165 0.67489 0.4491 0.0
C949 C 0.50558 0.63859 0.41465 0.0
N950 N 0.53071 0.64289 0.48243 0.0
N951 N 0.49671 0.67316 0.3852 0.0
H952 H 0.49284 0.60109 0.40229 0.0
H953 H 0.49245 0.62378 0.378 0.0
H954 H 0.49811 0.69224 0.37948 0.0
H955 H 0.48404 0.66173 0.37326 0.0
H956 H 0.53628 0.65608 0.49691 0.0
H957 H 0.52763 0.6243 0.4892 0.0
H958 H 0.55802 0.68572 0.48051 0.0
H959 H 0.5535 0.70977 0.45823 0.0
C960 C 0.91283 0.75201 0.6959 0.0
C961 C 0.88618 0.75414 0.68822 0.0
C962 C 0.89702 0.75346 0.64325 0.0
C963 C 0.9229 0.74773 0.65083 0.0
N964 N 0.95489 0.73834 0.68444 0.0
N965 N 0.85207 0.75258 0.65459 0.0
C966 C 0.93078 0.74632 0.6772 0.0
C967 C 0.87803 0.75374 0.66187 0.0
N968 N 0.92106 0.75596 0.72095 0.0
N969 N 0.89078 0.75946 0.61833 0.0
H970 H 0.8374 0.7523 0.66761 0.0
H971 H 0.84503 0.74945 0.63573 0.0
H972 H 0.90443 0.76032 0.60425 0.0
H973 H 0.87287 0.76626 0.61222 0.0
H974 H 0.94063 0.75731 0.72724 0.0
H975 H 0.90843 0.76013 0.73513 0.0
H976 H 0.96057 0.73419 0.70331 0.0
H977 H 0.96856 0.73383 0.6714 0.0
C978 C 0.01322 0.84656 0.52328 0.0
C979 C 0.01773 0.86668 0.54146 0.0
C980 C 0.01995 0.83517 0.57612 0.0
C981 C 0.01296 0.81534 0.55807 0.0
N982 N 0.99625 0.80313 0.51545 0.0
N983 N 0.02088 0.88062 0.58555 0.0
C984 C 0.00765 0.82132 0.53192 0.0
C985 C 0.01978 0.86114 0.56804 0.0
N986 N 0.01522 0.85134 0.49774 0.0
N987 N 0.02779 0.82923 0.60066 0.0
H988 H 0.02068 0.89983 0.5803 0.0
H989 H 0.0197 0.87768 0.60515 0.0
H990 H 0.02846 0.81046 0.60719 0.0
H991 H 0.03573 0.84278 0.61391 0.0
H992 H 0.01482 0.83689 0.48398 0.0
H993 H 0.01992 0.86948 0.49052 0.0
H994 H 0.98959 0.80723 0.49683 0.0
H995 H 0.9908 0.7846 0.52117 0.0
C996 C 0.08172 0.74198 0.67923 0.0
C997 C 0.10259 0.72573 0.67668 0.0
C998 C 0.08344 0.71146 0.63488 0.0
C999 C 0.06472 0.73033 0.63578 0.0
N1000 N 0.05036 0.76776 0.65694 0.0
N1001 N 0.12668 0.70006 0.64882 0.0
C1002 C 0.06501 0.7468 0.65746 0.0
C1003 C 0.10447 0.71196 0.65352 0.0
N1004 N 0.07725 0.75217 0.70254 0.0
N1005 N 0.0806 0.69224 0.61705 0.0
H1006 H 0.14309 0.70089 0.66144 0.0
H1007 H 0.12978 0.69181 0.63116 0.0
H1008 H 0.06465 0.68999 0.60396 0.0
H1009 H 0.09253 0.67681 0.6173 0.0
H1010 H 0.06078 0.76212 0.70582 0.0
H1011 H 0.08849 0.74843 0.71914 0.0
H1012 H 0.05184 0.78158 0.6714 0.0
H1013 H 0.03896 0.77292 0.64092 0.0
C1014 C 0.00048 0.62701 0.56185 0.0
C1015 C 0.99071 0.62403 0.53609 0.0
C1016 C 0.98019 0.66898 0.5345 0.0
C1017 C 0.99089 0.67233 0.55997 0.0
N1018 N 0.01573 0.65628 0.59621 0.0
N1019 N 0.97654 0.64285 0.49607 0.0
C1020 C 0.0024 0.65182 0.57318 0.0
C1021 C 0.98235 0.6453 0.52181 0.0
N1022 N 0.00721 0.60603 0.57565 0.0
N1023 N 0.96637 0.68776 0.52298 0.0
H1024 H 0.97724 0.62561 0.48618 0.0
H1025 H 0.97323 0.65835 0.48412 0.0
H1026 H 0.96365 0.70527 0.53164 0.0
H1027 H 0.95554 0.68517 0.50569 0.0
H1028 H 0.01161 0.60642 0.59531 0.0
H1029 H 0.00685 0.58772 0.56767 0.0
H1030 H 0.02679 0.6428 0.60564 0.0
H1031 H 0.01764 0.67429 0.60491 0.0
C1032 C 0.83764 0.91849 0.21426 0.0
C1033 C 0.8152 0.92373 0.22752 0.0
C1034 C 0.83869 0.96159 0.24688 0.0
C1035 C 0.85956 0.95843 0.2306 0.0
N1036 N 0.87527 0.93675 0.19395 0.0
N1037 N 0.79265 0.95325 0.25269 0.0
C1038 C 0.85808 0.93767 0.21292 0.0
C1039 C 0.81519 0.94616 0.24278 0.0
N1040 N 0.83991 0.89492 0.2036 0.0
N1041 N 0.84161 0.97838 0.267 0.0
H1042 H 0.77488 0.94282 0.24959 0.0
H1043 H 0.79114 0.97078 0.26181 0.0
H1044 H 0.85895 0.98904 0.27164 0.0
H1045 H 0.8278 0.97956 0.28075 0.0
H1046 H 0.85702 0.88951 0.19586 0.0
H1047 H 0.82585 0.8799 0.20503 0.0
H1048 H 0.87321 0.92323 0.17921 0.0
H1049 H 0.88975 0.95102 0.1911 0.0
C1050 C 0.83457 0.13398 0.26401 0.0
C1051 C 0.81303 0.13562 0.24606 0.0
C1052 C 0.83264 0.10523 0.21836 0.0
C1053 C 0.85043 0.09924 0.23882 0.0
N1054 N 0.86906 0.10868 0.28145 0.0
N1055 N 0.80794 0.13897 0.20017 0.0
C1056 C 0.85157 0.11375 0.26182 0.0
C1057 C 0.81632 0.12582 0.22121 0.0
N1058 N 0.84163 0.15418 0.2799 0.0
N1059 N 0.83084 0.09107 0.19632 0.0
H1060 H 0.80068 0.15709 0.20179 0.0
H1061 H 0.81192 0.13388 0.18156 0.0
H1062 H 0.84214 0.07549 0.19352 0.0
H1063 H 0.81642 0.09349 0.1819 0.0
H1064 H 0.85858 0.15517 0.29177 0.0
H1065 H 0.83254 0.17146 0.27819 0.0
H1066 H 0.86863 0.11709 0.2995 0.0
H1067 H 0.8828 0.09493 0.28025 0.0
C1068 C 0.35408 0.92085 0.00521 0.0
C1069 C 0.35446 0.93273 0.98086 0.0
C1070 C 0.31404 0.90823 0.96699 0.0
C1071 C 0.31308 0.89743 0.9918 0.0
N1072 N 0.32805 0.89845 0.03622 0.0
N1073 N 0.33273 0.9415 0.94011 0.0
C1074 C 0.33189 0.90524 0.01143 0.0
C1075 C 0.3338 0.92753 0.96216 0.0
N1076 N 0.37531 0.9237 0.02205 0.0
N1077 N 0.29656 0.89951 0.94791 0.0
H1078 H 0.34689 0.95574 0.93597 0.0
H1079 H 0.31684 0.94048 0.9269 0.0
H1080 H 0.28127 0.88613 0.95105 0.0
H1081 H 0.2981 0.90433 0.92873 0.0
H1082 H 0.37721 0.91322 0.03889 0.0
H1083 H 0.3921 0.93482 0.01819 0.0
H1084 H 0.33985 0.90553 0.05174 0.0
H1085 H 0.31135 0.88801 0.04154 0.0
C1086 C 0.19303 0.3813 0.24685 0.0
C1087 C 0.21272 0.37742 0.26624 0.0
C1088 C 0.21001 0.42137 0.28161 0.0
C1089 C 0.19276 0.42615 0.26031 0.0
N1090 N 0.16849 0.41168 0.22184 0.0
N1091 N 0.24217 0.39409 0.30053 0.0
C1092 C 0.18433 0.40635 0.24273 0.0
C1093 C 0.22162 0.39746 0.28342 0.0
N1094 N 0.18244 0.36091 0.23272 0.0
N1095 N 0.21543 0.43976 0.30005 0.0
H1096 H 0.25115 0.37682 0.30268 0.0
H1097 H 0.25169 0.40887 0.31133 0.0
H1098 H 0.20826 0.45797 0.29892 0.0
H1099 H 0.22538 0.43641 0.31746 0.0
H1100 H 0.16634 0.36186 0.21993 0.0
H1101 H 0.1885 0.34237 0.23531 0.0
H1102 H 0.16396 0.39894 0.20674 0.0
H1103 H 0.1609 0.42955 0.2189 0.0
C1104 C 0.16717 0.07273 0.49041 0.0
C1105 C 0.14693 0.07209 0.50785 0.0
C1106 C 0.1712 0.10508 0.53417 0.0
C1107 C 0.1895 0.10824 0.51495 0.0
N1108 N 0.20473 0.09629 0.47407 0.0
N1109 N 0.12803 0.08926 0.54498 0.0
C1110 C 0.18758 0.09224 0.49294 0.0
C1111 C 0.14855 0.0886 0.52948 0.0
N1112 N 0.16707 0.05438 0.47177 0.0
N1113 N 0.17596 0.11723 0.55723 0.0
H1114 H 0.11116 0.07732 0.54235 0.0
H1115 H 0.12684 0.10297 0.55926 0.0
H1116 H 0.19293 0.1286 0.56156 0.0
H1117 H 0.16461 0.11389 0.57292 0.0
H1118 H 0.18254 0.05219 0.46007 0.0
H1119 H 0.15236 0.03987 0.46937 0.0
H1120 H 0.20252 0.08743 0.45618 0.0
H1121 H 0.22049 0.10974 0.47572 0.0
C1122 C 0.72051 0.10956 0.77125 0.0
C1123 C 0.73081 0.11294 0.74681 0.0
C1124 C 0.70543 0.07462 0.73109 0.0
C1125 C 0.6977 0.06945 0.75628 0.0
N1126 N 0.70244 0.07956 0.80153 0.0
N1127 N 0.73667 0.09646 0.70451 0.0
C1128 C 0.70638 0.0863 0.77673 0.0
C1129 C 0.72429 0.09483 0.72699 0.0
N1130 N 0.7237 0.12878 0.78907 0.0
N1131 N 0.69391 0.06096 0.71091 0.0
H1132 H 0.75077 0.11091 0.70082 0.0
H1133 H 0.73468 0.08222 0.69049 0.0
H1134 H 0.67932 0.04676 0.71329 0.0
H1135 H 0.69679 0.06551 0.69184 0.0
H1136 H 0.71422 0.12839 0.80619 0.0
H1137 H 0.73383 0.14618 0.78573 0.0
H1138 H 0.71083 0.08992 0.8172 0.0
H1139 H 0.69307 0.06229 0.80667 0.0
C1140 C 0.37712 0.08038 0.51123 0.0
C1141 C 0.37628 0.06144 0.53058 0.0
C1142 C 0.33739 0.07923 0.54699 0.0
C1143 C 0.33753 0.09745 0.5269 0.0
N1144 N 0.35367 0.11169 0.4866 0.0
N1145 N 0.35281 0.03917 0.56327 0.0
C1146 C 0.35626 0.0969 0.508 0.0
C1147 C 0.35546 0.0597 0.54731 0.0
N1148 N 0.39834 0.08327 0.49662 0.0
N1149 N 0.32108 0.08142 0.56658 0.0
H1150 H 0.36579 0.02458 0.56406 0.0
H1151 H 0.33654 0.03542 0.57398 0.0
H1152 H 0.30774 0.0956 0.56735 0.0
H1153 H 0.32225 0.07052 0.58319 0.0
H1154 H 0.40145 0.09861 0.48428 0.0
H1155 H 0.41394 0.07143 0.49823 0.0
H1156 H 0.36517 0.11025 0.47093 0.0
H1157 H 0.33834 0.12368 0.48339 0.0
C1158 C 0.62135 0.41159 0.47319 0.0
C1159 C 0.62155 0.43309 0.48973 0.0
C1160 C 0.66308 0.4217 0.51033 0.0
C1161 C 0.66335 0.4006 0.49326 0.0
N1162 N 0.64618 0.37877 0.45485 0.0
N1163 N 0.64507 0.46226 0.51955 0.0
C1164 C 0.64351 0.39657 0.47354 0.0
C1165 C 0.6433 0.43935 0.50681 0.0
N1166 N 0.59963 0.40497 0.45789 0.0
N1167 N 0.68059 0.42401 0.53093 0.0
H1168 H 0.63079 0.47557 0.51755 0.0
H1169 H 0.66172 0.46908 0.5302 0.0
H1170 H 0.69516 0.41131 0.53467 0.0
H1171 H 0.67932 0.43727 0.54561 0.0
H1172 H 0.59712 0.38786 0.44764 0.0
H1173 H 0.58326 0.41584 0.45674 0.0
H1174 H 0.63365 0.3766 0.43859 0.0
H1175 H 0.6624 0.36774 0.45436 0.0
C1176 C 0.74218 0.30329 0.39059 0.0
C1177 C 0.72042 0.28545 0.38763 0.0
C1178 C 0.7089 0.29406 0.4316 0.0
C1179 C 0.73258 0.30917 0.43556 0.0
N1180 N 0.77261 0.32753 0.41966 0.0
N1181 N 0.68395 0.26205 0.40543 0.0
C1182 C 0.74942 0.31372 0.41523 0.0
C1183 C 0.70378 0.28058 0.40806 0.0
N1184 N 0.75559 0.31055 0.36966 0.0
N1185 N 0.69141 0.2924 0.4504 0.0
H1186 H 0.67935 0.252 0.3884 0.0
H1187 H 0.67312 0.25534 0.42053 0.0
H1188 H 0.69496 0.30096 0.46836 0.0
H1189 H 0.67258 0.28413 0.44766 0.0
H1190 H 0.77007 0.32529 0.36992 0.0
H1191 H 0.75068 0.30328 0.35133 0.0
H1192 H 0.78715 0.32902 0.40657 0.0
H1193 H 0.77805 0.33641 0.43716 0.0
C1194 C 0.57358 0.97993 0.86329 0.0
C1195 C 0.55329 0.99713 0.86213 0.0
C1196 C 0.57 0.01608 0.82304 0.0
C1197 C 0.5924 0.00171 0.82654 0.0
N1198 N 0.61656 0.97057 0.85027 0.0
N1199 N 0.53191 0.03203 0.84164 0.0
C1200 C 0.59431 0.98344 0.84648 0.0
C1201 C 0.55123 0.01514 0.842 0.0
N1202 N 0.57295 0.96033 0.88051 0.0
N1203 N 0.56656 0.03024 0.80131 0.0
H1204 H 0.51718 0.03125 0.85462 0.0
H1205 H 0.53122 0.04767 0.82942 0.0
H1206 H 0.57993 0.03107 0.78697 0.0
H1207 H 0.54952 0.03924 0.79634 0.0
H1208 H 0.58572 0.94562 0.88075 0.0
H1209 H 0.55815 0.95756 0.89328 0.0
H1210 H 0.62047 0.9593 0.86623 0.0
H1211 H 0.63205 0.97239 0.83821 0.0
C1212 C 0.25429 0.17503 0.39828 0.0
C1213 C 0.27547 0.19277 0.39403 0.0
C1214 C 0.29057 0.18987 0.43915 0.0
C1215 C 0.26714 0.17554 0.44412 0.0
N1216 N 0.22643 0.15428 0.42901 0.0
N1217 N 0.31313 0.21858 0.41034 0.0
C1218 C 0.24901 0.16784 0.42378 0.0
C1219 C 0.29374 0.20026 0.41434 0.0
N1220 N 0.23944 0.16499 0.37783 0.0
N1221 N 0.30959 0.19392 0.45822 0.0
H1222 H 0.31632 0.22658 0.39246 0.0
H1223 H 0.325 0.22724 0.425 0.0
H1224 H 0.30759 0.18756 0.47693 0.0
H1225 H 0.32821 0.20173 0.4551 0.0
H1226 H 0.22513 0.15026 0.37929 0.0
H1227 H 0.24302 0.1699 0.35896 0.0
H1228 H 0.21097 0.15064 0.41561 0.0
H1229 H 0.22259 0.14764 0.4473 0.0
C1230 C 0.48532 0.51551 0.84547 0.0
C1231 C 0.46847 0.51044 0.86569 0.0
C1232 C 0.4308 0.50748 0.83477 0.0
C1233 C 0.44758 0.51419 0.81485 0.0
N1234 N 0.48954 0.53142 0.80244 0.0
N1235 N 0.42487 0.50662 0.88051 0.0
C1236 C 0.47447 0.5203 0.82059 0.0
C1237 C 0.44107 0.50797 0.86062 0.0
N1238 N 0.5117 0.51459 0.84969 0.0
N1239 N 0.40541 0.49951 0.82898 0.0
H1240 H 0.43177 0.50698 0.89963 0.0
H1241 H 0.40472 0.50741 0.87812 0.0
H1242 H 0.39714 0.499 0.81034 0.0
H1243 H 0.39308 0.49159 0.84238 0.0
H1244 H 0.52462 0.51535 0.83499 0.0
H1245 H 0.52058 0.5106 0.8675 0.0
H1246 H 0.50864 0.53861 0.80637 0.0
H1247 H 0.48211 0.536 0.78418 0.0
C1248 C 0.73193 0.70799 0.11802 0.0
C1249 C 0.73412 0.73478 0.11379 0.0
C1250 C 0.75449 0.72771 0.07342 0.0
C1251 C 0.75023 0.70083 0.07643 0.0
N1252 N 0.72871 0.66583 0.09863 0.0
N1253 N 0.74062 0.76954 0.08418 0.0
C1254 C 0.73709 0.69105 0.09786 0.0
C1255 C 0.74312 0.74442 0.09037 0.0
N1256 N 0.72607 0.69866 0.14153 0.0
N1257 N 0.77081 0.73745 0.05561 0.0
H1258 H 0.73188 0.78228 0.09595 0.0
H1259 H 0.74466 0.77693 0.06624 0.0
H1260 H 0.78127 0.72612 0.04394 0.0
H1261 H 0.77637 0.75686 0.05451 0.0
H1262 H 0.72701 0.67942 0.14635 0.0
H1263 H 0.72251 0.71039 0.15694 0.0
H1264 H 0.71684 0.65833 0.11265 0.0
H1265 H 0.73121 0.65299 0.08383 0.0
C1266 C 0.92682 -0.00032 0.12539 0.0
C1267 C 0.9531 0.00663 0.12044 0.0
C1268 C 0.96049 0.02518 0.16342 0.0
C1269 C 0.93437 0.01763 0.1687 0.0
N1270 N 0.89419 0.99347 0.15699 0.0
N1271 N 0.99644 0.02117 0.13587 0.0
C1272 C 0.91796 0.0036 0.15033 0.0
C1273 C 0.97044 0.01769 0.13992 0.0
N1274 N 0.91021 0.98996 0.10604 0.0
N1275 N 0.97525 0.04102 0.18003 0.0
H1276 H 0.00437 0.01681 0.11856 0.0
H1277 H 0.0105 0.02637 0.15029 0.0
H1278 H 0.96869 0.04748 0.19727 0.0
H1279 H 0.99323 0.04965 0.17579 0.0
H1280 H 0.89013 0.98738 0.10744 0.0
H1281 H 0.91638 0.98573 0.08791 0.0
H1282 H 0.88237 0.98088 0.14542 0.0
H1283 H 0.88718 0.99586 0.17513 0.0
C1284 C 0.29595 0.81002 0.09987 0.0
C1285 C 0.2793 0.80729 0.12055 0.0
C1286 C 0.24497 0.82793 0.09556 0.0
C1287 C 0.26219 0.83229 0.07543 0.0
N1288 N 0.30602 0.83301 0.06128 0.0
N1289 N 0.24071 0.81918 0.14065 0.0
C1290 C 0.2883 0.82496 0.07843 0.0
C1291 C 0.25471 0.81814 0.11923 0.0
N1292 N 0.31855 0.79751 0.10017 0.0
N1293 N 0.21893 0.83141 0.09165 0.0
H1294 H 0.24738 0.81225 0.15835 0.0
H1295 H 0.22384 0.82918 0.14143 0.0
H1296 H 0.21045 0.83726 0.07427 0.0
H1297 H 0.20523 0.82589 0.10484 0.0
H1298 H 0.32988 0.79645 0.08433 0.0
H1299 H 0.32495 0.78645 0.11556 0.0
H1300 H 0.32591 0.83044 0.06379 0.0
H1301 H 0.30113 0.84464 0.04591 0.0
C1302 C 0.0912 0.51841 0.15735 0.0
C1303 C 0.07459 0.49589 0.15467 0.0
C1304 C 0.09865 0.47623 0.19054 0.0
C1305 C 0.11444 0.49922 0.19389 0.0
N1306 N 0.12133 0.54421 0.1852 0.0
N1307 N 0.05882 0.45544 0.17161 0.0
C1308 C 0.10941 0.52094 0.17868 0.0
C1309 C 0.0772 0.47539 0.17218 0.0
N1310 N 0.09032 0.53698 0.13903 0.0
N1311 N 0.10469 0.45497 0.20425 0.0
H1312 H 0.04281 0.4543 0.15848 0.0
H1313 H 0.05816 0.44119 0.18545 0.0
H1314 H 0.11989 0.45505 0.21827 0.0
H1315 H 0.09583 0.43686 0.20057 0.0
H1316 H 0.10399 0.55242 0.13851 0.0
H1317 H 0.07725 0.53591 0.12308 0.0
H1318 H 0.11662 0.56122 0.17628 0.0
H1319 H 0.13386 0.5469 0.20141 0.0
C1320 C 0.41242 0.72504 0.33876 0.0
C1321 C 0.41532 0.74237 0.31817 0.0
C1322 C 0.45271 0.76403 0.34174 0.0
C1323 C 0.45212 0.74432 0.36044 0.0
N1324 N 0.43476 0.70225 0.37243 0.0
N1325 N 0.4415 0.77546 0.29788 0.0
C1326 C 0.4329 0.72373 0.35779 0.0
C1327 C 0.43643 0.76107 0.31899 0.0
N1328 N 0.3898 0.71032 0.34066 0.0
N1329 N 0.4678 0.78611 0.3461 0.0
H1330 H 0.43036 0.77348 0.28067 0.0
H1331 H 0.45823 0.78752 0.29673 0.0
H1332 H 0.47894 0.78978 0.36307 0.0
H1333 H 0.46697 0.80192 0.33408 0.0
H1334 H 0.38593 0.69917 0.35667 0.0
H1335 H 0.3738 0.71141 0.32769 0.0
H1336 H 0.42249 0.68586 0.36931 0.0
H1337 H 0.45023 0.69953 0.3856 0.0
C1338 C 0.99873 0.34885 0.98911 0.0
C1339 C 0.99425 0.36994 0.97282 0.0
C1340 C 0.99381 0.34178 0.93529 0.0
C1341 C 0.0012 0.32142 0.95151 0.0
N1342 N 0.01647 0.30729 0.99334 0.0
N1343 N 0.9912 0.38764 0.93031 0.0
C1344 C 0.00524 0.32541 0.9783 0.0
C1345 C 0.9928 0.36676 0.94583 0.0
N1346 N 0.99608 0.35099 0.01489 0.0
N1347 N 0.98676 0.33708 0.91008 0.0
H1348 H 0.99024 0.40618 0.9374 0.0
H1349 H 0.99291 0.38684 0.91058 0.0
H1350 H 0.98684 0.31897 0.9018 0.0
H1351 H 0.97863 0.35059 0.89797 0.0
H1352 H 0.99644 0.33543 0.02726 0.0
H1353 H 0.99092 0.36777 0.0236 0.0
H1354 H 0.02232 0.3104 0.01253 0.0
H1355 H 0.02253 0.29016 0.98611 0.0
C1356 C 0.63304 0.79325 0.33126 0.0
C1357 C 0.62186 0.79775 0.30642 0.0
C1358 C 0.57876 0.78328 0.32035 0.0
C1359 C 0.58977 0.78019 0.34556 0.0
N1360 N 0.6258 0.78868 0.37639 0.0
N1361 N 0.58362 0.80247 0.27858 0.0
C1362 C 0.61645 0.78715 0.35144 0.0
C1363 C 0.59452 0.7945 0.30137 0.0
N1364 N 0.65952 0.79364 0.3354 0.0
N1365 N 0.55376 0.77424 0.31412 0.0
H1366 H 0.59465 0.81078 0.26428 0.0
H1367 H 0.56359 0.80301 0.27479 0.0
H1368 H 0.54161 0.76555 0.32729 0.0
H1369 H 0.54573 0.7734 0.29541 0.0
H1370 H 0.66861 0.78764 0.35244 0.0
H1371 H 0.67249 0.79779 0.32112 0.0
H1372 H 0.64448 0.7961 0.38191 0.0
H1373 H 0.61402 0.78509 0.39176 0.0
C1374 C 0.03432 0.149 0.95703 0.0
C1375 C 0.01775 0.13226 0.94124 0.0
C1376 C 0.01161 0.16645 0.90991 0.0
C1377 C 0.02664 0.18367 0.92662 0.0
N1378 N 0.05057 0.19243 0.96697 0.0
N1379 N 0.9882 0.12498 0.90437 0.0
C1380 C 0.0374 0.17527 0.9505 0.0
C1381 C 0.00577 0.14094 0.91808 0.0
N1382 N 0.04785 0.13952 0.97781 0.0
N1383 N 0.00307 0.17445 0.88622 0.0
H1384 H 0.98394 0.10603 0.90957 0.0
H1385 H 0.97654 0.13084 0.88886 0.0
H1386 H 0.00556 0.19334 0.88012 0.0
H1387 H 0.99466 0.16221 0.872 0.0
H1388 H 0.06258 0.14993 0.98837 0.0
H1389 H 0.04581 0.12047 0.98355 0.0
H1390 H 0.05583 0.1883 0.98594 0.0
H1391 H 0.05511 0.21144 0.96224 0.0
C1392 C 0.38084 0.25551 0.16918 0.0
C1393 C 0.38969 0.25543 0.19533 0.0
C1394 C 0.43381 0.24743 0.18293 0.0
C1395 C 0.42527 0.24948 0.15679 0.0
N1396 N 0.39244 0.2621 0.1254 0.0
N1397 N 0.42535 0.25622 0.2272 0.0
C1398 C 0.39929 0.2555 0.15002 0.0
C1399 C 0.41644 0.25288 0.20226 0.0
N1400 N 0.35474 0.25459 0.16257 0.0
N1401 N 0.45798 0.23913 0.18934 0.0
H1402 H 0.41316 0.26017 0.24184 0.0
H1403 H 0.44505 0.25725 0.23301 0.0
H1404 H 0.47122 0.23479 0.17579 0.0
H1405 H 0.46413 0.23455 0.20797 0.0
H1406 H 0.3472 0.25183 0.14382 0.0
H1407 H 0.34045 0.2541 0.17599 0.0
H1408 H 0.37446 0.26913 0.11995 0.0
H1409 H 0.40568 0.26325 0.11096 0.0
C1410 C 0.49854 0.36286 0.05657 0.0
C1411 C 0.52384 0.37306 0.05141 0.0
C1412 C 0.54224 0.33393 0.06813 0.0
C1413 C 0.51677 0.32208 0.06862 0.0
N1414 N 0.4703 0.32465 0.05999 0.0
N1415 N 0.56992 0.3671 0.0496 0.0
C1416 C 0.49473 0.33644 0.0623 0.0
C1417 C 0.54583 0.35839 0.05672 0.0
N1418 N 0.47817 0.3785 0.05612 0.0
N1419 N 0.56297 0.32195 0.07897 0.0
H1420 H 0.57343 0.38471 0.0408 0.0
H1421 H 0.58601 0.35588 0.05044 0.0
H1422 H 0.56089 0.30432 0.08814 0.0
H1423 H 0.58166 0.33069 0.08128 0.0
H1424 H 0.45979 0.37267 0.06212 0.0
H1425 H 0.4804 0.39803 0.05225 0.0
H1426 H 0.45408 0.33374 0.05262 0.0
H1427 H 0.46646 0.3052 0.06315 0.0
C1428 C 0.6056 0.2127 0.15359 0.0
C1429 C 0.60365 0.22512 0.1775 0.0
C1430 C 0.56582 0.24675 0.15972 0.0
C1431 C 0.56559 0.23154 0.13715 0.0
N1432 N 0.58185 0.19491 0.11607 0.0
N1433 N 0.57787 0.24943 0.205 0.0
C1434 C 0.58451 0.21302 0.13503 0.0
C1435 C 0.58254 0.24082 0.1811 0.0
N1436 N 0.62792 0.20137 0.14811 0.0
N1437 N 0.55114 0.26764 0.16045 0.0
H1438 H 0.58906 0.24473 0.22134 0.0
H1439 H 0.56126 0.25892 0.20888 0.0
H1440 H 0.53989 0.27377 0.14473 0.0
H1441 H 0.55256 0.28056 0.17572 0.0
H1442 H 0.63105 0.19418 0.13 0.0
H1443 H 0.64436 0.20169 0.16067 0.0
H1444 H 0.59393 0.17966 0.11533 0.0
H1445 H 0.56591 0.19331 0.10291 0.0
C1446 C 0.48046 0.15339 0.02018 0.0
C1447 C 0.48888 0.13152 0.03344 0.0
C1448 C 0.5016 0.15785 0.07135 0.0
C1449 C 0.48997 0.17891 0.05925 0.0
N1450 N 0.46529 0.19609 0.02329 0.0
N1451 N 0.50607 0.11196 0.07191 0.0
C1452 C 0.47887 0.17666 0.03383 0.0
C1453 C 0.49923 0.13349 0.05909 0.0
N1454 N 0.47405 0.15192 0.99448 0.0
N1455 N 0.51547 0.16136 0.09423 0.0
H1456 H 0.50539 0.09395 0.06324 0.0
H1457 H 0.51088 0.11159 0.09149 0.0
H1458 H 0.51777 0.17905 0.10356 0.0
H1459 H 0.52662 0.14748 0.10286 0.0
H1460 H 0.47062 0.16785 0.98318 0.0
H1461 H 0.47434 0.13501 0.98394 0.0
H1462 H 0.45414 0.19434 0.00611 0.0
H1463 H 0.46322 0.2134 0.03263 0.0
C1464 C 0.33934 0.41711 0.75175 0.0
C1465 C 0.32695 0.41179 0.72719 0.0
C1466 C 0.35526 0.44492 0.70865 0.0
C1467 C 0.36419 0.45334 0.73346 0.0
N1468 N 0.36513 0.44748 0.77917 0.0
N1469 N 0.34258 0.40667 0.68495 0.0
C1470 C 0.35646 0.43936 0.75523 0.0
C1471 C 0.34013 0.42166 0.70591 0.0
N1472 N 0.33826 0.39888 0.77033 0.0
N1473 N 0.3611 0.45898 0.68757 0.0
H1474 H 0.33658 0.38726 0.68482 0.0
H1475 H 0.35399 0.4124 0.66985 0.0
H1476 H 0.37108 0.47688 0.68884 0.0
H1477 H 0.35349 0.4539 0.66925 0.0
H1478 H 0.34873 0.40059 0.78791 0.0
H1479 H 0.32985 0.38055 0.76654 0.0
H1480 H 0.35798 0.43955 0.79584 0.0
H1481 H 0.37798 0.46348 0.78224 0.0
C1482 C 0.32294 0.63061 0.75199 0.0
C1483 C 0.29805 0.61864 0.75597 0.0
C1484 C 0.31489 0.5766 0.74823 0.0
C1485 C 0.3402 0.58849 0.74617 0.0
N1486 N 0.36944 0.62602 0.75192 0.0
N1487 N 0.2711 0.58024 0.76238 0.0
C1488 C 0.34455 0.61529 0.74973 0.0
C1489 C 0.29425 0.59159 0.75546 0.0
N1490 N 0.32578 0.65661 0.74949 0.0
N1491 N 0.31025 0.55129 0.74209 0.0
H1492 H 0.25551 0.59066 0.76755 0.0
H1493 H 0.2681 0.56061 0.76506 0.0
H1494 H 0.32475 0.53968 0.73651 0.0
H1495 H 0.29166 0.54228 0.74047 0.0
H1496 H 0.34282 0.6661 0.74371 0.0
H1497 H 0.31043 0.66859 0.75092 0.0
H1498 H 0.37389 0.64503 0.75718 0.0
H1499 H 0.38586 0.61532 0.75107 0.0
C1500 C 0.85362 0.4163 0.50643 0.0
C1501 C 0.85483 0.42731 0.48172 0.0
C1502 C 0.8144 0.40294 0.46763 0.0
C1503 C 0.81267 0.393 0.49272 0.0
N1504 N 0.82637 0.3955 0.53744 0.0
N1505 N 0.83433 0.43496 0.44013 0.0
C1506 C 0.83103 0.40128 0.51257 0.0
C1507 C 0.83459 0.42175 0.46265 0.0
N1508 N 0.87445 0.41937 0.52373 0.0
N1509 N 0.79716 0.39394 0.44848 0.0
H1510 H 0.84883 0.44883 0.43589 0.0
H1511 H 0.81881 0.43369 0.42651 0.0
H1512 H 0.78145 0.38109 0.45176 0.0
H1513 H 0.7992 0.39806 0.4292 0.0
H1514 H 0.87571 0.40946 0.54096 0.0
H1515 H 0.89156 0.43001 0.51993 0.0
H1516 H 0.83785 0.40297 0.553 0.0
H1517 H 0.80932 0.38559 0.54264 0.0
C1518 C 0.69094 0.88186 0.74232 0.0
C1519 C 0.70964 0.87657 0.76221 0.0
C1520 C 0.70675 0.9196 0.77998 0.0
C1521 C 0.69072 0.92591 0.75826 0.0
N1522 N 0.66808 0.91401 0.71812 0.0
N1523 N 0.73753 0.89075 0.79867 0.0
C1524 C 0.68283 0.90725 0.73928 0.0
C1525 C 0.71791 0.89542 0.78091 0.0
N1526 N 0.68072 0.86246 0.72664 0.0
N1527 N 0.71151 0.93681 0.79963 0.0
H1528 H 0.74619 0.87326 0.80018 0.0
H1529 H 0.74669 0.90473 0.81075 0.0
H1530 H 0.70474 0.95519 0.79922 0.0
H1531 H 0.72047 0.93227 0.81721 0.0
H1532 H 0.66525 0.86439 0.71328 0.0
H1533 H 0.68635 0.84369 0.72844 0.0
H1534 H 0.66415 0.90224 0.70216 0.0
H1535 H 0.66081 0.93211 0.71593 0.0
C1536 C 0.64902 0.59905 0.03043 0.0
C1537 C 0.64909 0.57885 0.01234 0.0
C1538 C 0.69084 0.59615 0.99729 0.0
C1539 C 0.69127 0.61585 0.01604 0.0
N1540 N 0.67382 0.63319 0.05383 0.0
N1541 N 0.67203 0.55492 0.98225 0.0
C1542 C 0.67124 0.61643 0.03364 0.0
C1543 C 0.67069 0.57636 0.99697 0.0
N1544 N 0.62734 0.60215 0.04388 0.0
N1545 N 0.70879 0.59711 0.9789 0.0
H1546 H 0.65745 0.54019 0.98135 0.0
H1547 H 0.6885 0.55066 0.9727 0.0
H1548 H 0.7238 0.61132 0.97832 0.0
H1549 H 0.70764 0.58504 0.96299 0.0
H1550 H 0.62483 0.6182 0.05505 0.0
H1551 H 0.61097 0.5894 0.04255 0.0
H1552 H 0.6613 0.63278 0.06884 0.0
H1553 H 0.68986 0.64615 0.05681 0.0
C1554 C 0.21794 0.61017 0.2691 0.0
C1555 C 0.22812 0.61319 0.24457 0.0
C1556 C 0.20328 0.57423 0.22974 0.0
C1557 C 0.19583 0.56941 0.25509 0.0
N1558 N 0.20065 0.58053 0.30011 0.0
N1559 N 0.23397 0.59603 0.20254 0.0
C1560 C 0.20428 0.58682 0.27514 0.0
C1561 C 0.22176 0.59465 0.22512 0.0
N1562 N 0.22084 0.6298 0.28648 0.0
N1563 N 0.19189 0.56 0.20989 0.0
H1564 H 0.24776 0.61064 0.19846 0.0
H1565 H 0.23214 0.5815 0.18882 0.0
H1566 H 0.17759 0.5456 0.21263 0.0
H1567 H 0.19455 0.56423 0.19071 0.0
H1568 H 0.21143 0.62961 0.30364 0.0
H1569 H 0.23061 0.64729 0.28271 0.0
H1570 H 0.20892 0.59137 0.31551 0.0
H1571 H 0.19169 0.56321 0.30568 0.0
C1572 C 0.85537 0.56274 0.04581 0.0
C1573 C 0.87708 0.56417 0.03018 0.0
C1574 C 0.85925 0.60052 0.0072 0.0
C1575 C 0.83951 0.60126 0.02507 0.0
N1576 N 0.82046 0.58506 0.06348 0.0
N1577 N 0.90155 0.58596 0.99781 0.0
C1578 C 0.83781 0.58275 0.04482 0.0
C1579 C 0.87948 0.5834 0.01125 0.0
N1580 N 0.85136 0.54207 0.06134 0.0
N1581 N 0.85821 0.61569 0.98596 0.0
H1582 H 0.91674 0.57366 2e-05 0.0
H1583 H 0.90574 0.60141 0.98591 0.0
H1584 H 0.84337 0.62812 0.98214 0.0
H1585 H 0.87052 0.61418 0.97093 0.0
H1586 H 0.83444 0.53858 0.07115 0.0
H1587 H 0.86395 0.52716 0.06264 0.0
H1588 H 0.82041 0.57389 0.07993 0.0
H1589 H 0.80741 0.59955 0.06369 0.0
C1590 C 0.1214 0.91256 0.96932 0.0
C1591 C 0.12005 0.93304 0.98689 0.0
C1592 C 0.16119 0.92201 0.00859 0.0
C1593 C 0.16304 0.90201 0.9905 0.0
N1594 N 0.14834 0.88182 0.95045 0.0
N1595 N 0.14123 0.96122 0.01909 0.0
C1596 C 0.14416 0.8984 0.96985 0.0
C1597 C 0.14085 0.93907 0.00515 0.0
N1598 N 0.10056 0.90607 0.95282 0.0
N1599 N 0.17772 0.92375 0.02997 0.0
H1600 H 0.12651 0.97408 0.01719 0.0
H1601 H 0.1572 0.968 0.03073 0.0
H1602 H 0.19263 0.91143 0.03366 0.0
H1603 H 0.17526 0.93604 0.04522 0.0
H1604 H 0.09914 0.88953 0.94163 0.0
H1605 H 0.08379 0.91636 0.95156 0.0
H1606 H 0.13658 0.88012 0.93364 0.0
H1607 H 0.16504 0.87146 0.9501 0.0
loop_
_geom_bond_atom_site_label_1
_geom_bond_atom_site_label_2
_geom_bond_distance
_geom_bond_site_symmetry_2
_ccdc_geom_bond_type
C0 C1 1.384 . S
C0 H13 0.947 . S
C0 C35 1.382 . S
C1 C0 1.384 . S
C1 C2 1.378 . S
C2 C1 1.378 . S
C2 C3 1.378 1_655 S
C2 H14 0.952 1_545 S
C3 C2 1.378 1_455 S
C3 H15 0.950 . S
C3 C34 1.383 . S
H4 C23 0.947 . S
H5 C24 0.946 . S
H6 C26 0.953 . S
H7 C27 0.945 1_556 S
H8 C29 0.952 . S
H9 C30 0.949 . S
H10 C32 0.950 1_655 S
H11 C33 0.948 . S
H12 C35 0.951 . S
H13 C0 0.947 . S
H14 C2 0.952 1_565 S
H15 C3 0.950 . S
N16 C19 1.382 . S
N16 C21 1.363 . S
N17 C19 1.371 . S
N17 C20 1.372 . S
N18 C20 1.361 . S
N18 C21 1.377 . S
C19 N16 1.382 . S
C19 N17 1.371 . S
C19 C22 1.480 . S
C20 N17 1.372 . S
C20 N18 1.361 . S
C20 C28 1.457 1_554 S
C21 N16 1.363 . S
C21 N18 1.377 . S
C21 C34 1.479 . S
C22 C19 1.480 . S
C22 C23 1.383 1_545 S
C22 C27 1.385 . S
C23 H4 0.947 . S
C23 C22 1.383 1_565 S
C23 C24 1.388 . S
C24 H5 0.946 . S
C24 C23 1.388 . S
C24 C25 1.384 . S
C25 C24 1.384 . S
C25 C26 1.377 1_554 S
C26 H6 0.953 . S
C26 C25 1.377 1_556 S
C26 C27 1.369 1_566 S
C27 H7 0.945 1_554 S
C27 C22 1.385 . S
C27 C26 1.369 1_544 S
C28 C20 1.457 1_556 S
C28 C29 1.372 . S
C28 C33 1.364 1_556 S
C29 H8 0.952 . S
C29 C28 1.372 . S
C29 C30 1.389 . S
C30 H9 0.949 . S
C30 C29 1.389 . S
C30 C31 1.387 . S
C31 C30 1.387 . S
C31 C32 1.372 . S
C32 H10 0.950 1_455 S
C32 C31 1.372 . S
C32 C33 1.379 1_556 S
C33 H11 0.948 . S
C33 C28 1.364 1_554 S
C33 C32 1.379 1_554 S
C34 C3 1.383 . S
C34 C21 1.479 . S
C34 C35 1.398 1_455 S
C35 C0 1.382 . S
C35 H12 0.951 . S
C35 C34 1.398 1_655 S
C36 C37 1.384 . S
C36 H49 0.947 . S
C36 C71 1.382 . S
C37 C36 1.384 . S
C37 C38 1.378 . S
C38 C37 1.378 . S
C38 C39 1.378 . S
C38 H50 0.952 . S
C39 C38 1.378 . S
C39 H51 0.950 . S
C39 C70 1.383 . S
H40 C59 0.947 . S
H41 C60 0.946 . S
H42 C62 0.953 . S
H43 C63 0.945 . S
H44 C65 0.952 . S
H45 C66 0.949 . S
H46 C68 0.950 . S
H47 C69 0.948 . S
H48 C71 0.951 . S
H49 C36 0.947 . S
H50 C38 0.952 . S
H51 C39 0.950 . S
N52 C55 1.382 . S
N52 C57 1.363 . S
N53 C55 1.371 . S
N53 C56 1.372 . S
N54 C56 1.361 . S
N54 C57 1.377 . S
C55 N52 1.382 . S
C55 N53 1.371 . S
C55 C58 1.480 . S
C56 N53 1.372 . S
C56 N54 1.361 . S
C56 C64 1.457 . S
C57 N52 1.363 . S
C57 N54 1.377 . S
C57 C70 1.479 . S
C58 C55 1.480 . S
C58 C59 1.383 . S
C58 C63 1.385 . S
C59 H40 0.947 . S
C59 C58 1.383 . S
C59 C60 1.388 . S
C60 H41 0.946 . S
C60 C59 1.388 . S
C60 C61 1.384 . S
C61 C60 1.384 . S
C61 C62 1.377 . S
C62 H42 0.953 . S
C62 C61 1.377 . S
C62 C63 1.369 . S
C63 H43 0.945 . S
C63 C58 1.385 . S
C63 C62 1.369 . S
C64 C56 1.457 . S
C64 C65 1.372 . S
C64 C69 1.364 . S
C65 H44 0.952 . S
C65 C64 1.372 . S
C65 C66 1.389 . S
C66 H45 0.949 . S
C66 C65 1.389 . S
C66 C67 1.387 . S
C67 C66 1.387 . S
C67 C68 1.372 . S
C68 H46 0.950 . S
C68 C67 1.372 . S
C68 C69 1.379 . S
C69 H47 0.948 . S
C69 C64 1.364 . S
C69 C68 1.379 . S
C70 C39 1.383 . S
C70 C57 1.479 . S
C70 C71 1.398 . S
C71 C36 1.382 . S
C71 H48 0.951 . S
C71 C70 1.398 . S
C72 C73 1.384 1_454 S
C72 H85 0.947 . S
C72 C107 1.382 . S
C73 C72 1.384 1_656 S
C73 C74 1.378 . S
C74 C73 1.378 . S
C74 C75 1.378 . S
C74 H86 0.952 . S
C75 C74 1.378 . S
C75 H87 0.950 . S
C75 C106 1.383 1_556 S
H76 C95 0.947 . S
H77 C96 0.946 . S
H78 C98 0.953 . S
H79 C99 0.945 . S
H80 C101 0.952 1_655 S
H81 C102 0.949 . S
H82 C104 0.950 . S
H83 C105 0.948 . S
H84 C107 0.951 . S
H85 C72 0.947 . S
H86 C74 0.952 . S
H87 C75 0.950 . S
N88 C91 1.382 . S
N88 C93 1.363 . S
N89 C91 1.371 . S
N89 C92 1.372 . S
N90 C92 1.361 1_455 S
N90 C93 1.377 1_455 S
C91 N88 1.382 . S
C91 N89 1.371 . S
C91 C94 1.480 . S
C92 N89 1.372 . S
C92 N90 1.361 1_655 S
C92 C100 1.457 1_655 S
C93 N88 1.363 . S
C93 N90 1.377 1_655 S
C93 C106 1.479 . S
C94 C91 1.480 . S
C94 C95 1.383 . S
C94 C99 1.385 . S
C95 H76 0.947 . S
C95 C94 1.383 . S
C95 C96 1.388 . S
C96 H77 0.946 . S
C96 C95 1.388 . S
C96 C97 1.384 . S
C97 C96 1.384 . S
C97 C98 1.377 . S
C98 H78 0.953 . S
C98 C97 1.377 . S
C98 C99 1.369 . S
C99 H79 0.945 . S
C99 C94 1.385 . S
C99 C98 1.369 . S
C100 C92 1.457 1_455 S
C100 C101 1.372 . S
C100 C105 1.364 . S
C101 H80 0.952 1_455 S
C101 C100 1.372 . S
C101 C102 1.389 . S
C102 H81 0.949 . S
C102 C101 1.389 . S
C102 C103 1.387 . S
C103 C102 1.387 . S
C103 C104 1.372 . S
C104 H82 0.950 . S
C104 C103 1.372 . S
C104 C105 1.379 . S
C105 H83 0.948 . S
C105 C100 1.364 . S
C105 C104 1.379 . S
C106 C75 1.383 1_554 S
C106 C93 1.479 . S
C106 C107 1.398 1_655 S
C107 C72 1.382 . S
C107 H84 0.951 . S
C107 C106 1.398 1_455 S
C108 C109 1.384 . S
C108 H121 0.947 . S
C108 C143 1.382 . S
C109 C108 1.384 . S
C109 C110 1.378 . S
C110 C109 1.378 . S
C110 C111 1.378 . S
C110 H122 0.952 . S
C111 C110 1.378 . S
C111 H123 0.950 . S
C111 C142 1.383 . S
H112 C131 0.947 . S
H113 C132 0.946 . S
H114 C134 0.953 . S
H115 C135 0.945 . S
H116 C137 0.952 . S
H117 C138 0.949 . S
H118 C140 0.950 . S
H119 C141 0.948 . S
H120 C143 0.951 . S
H121 C108 0.947 . S
H122 C110 0.952 . S
H123 C111 0.950 . S
N124 C127 1.382 . S
N124 C129 1.363 . S
N125 C127 1.371 . S
N125 C128 1.372 . S
N126 C128 1.361 . S
N126 C129 1.377 . S
C127 N124 1.382 . S
C127 N125 1.371 . S
C127 C130 1.480 . S
C128 N125 1.372 . S
C128 N126 1.361 . S
C128 C136 1.457 . S
C129 N124 1.363 . S
C129 N126 1.377 . S
C129 C142 1.479 . S
C130 C127 1.480 . S
C130 C131 1.383 . S
C130 C135 1.385 . S
C131 H112 0.947 . S
C131 C130 1.383 . S
C131 C132 1.388 . S
C132 H113 0.946 . S
C132 C131 1.388 . S
C132 C133 1.384 . S
C133 C132 1.384 . S
C133 C134 1.377 . S
C134 H114 0.953 . S
C134 C133 1.377 . S
C134 C135 1.369 . S
C135 H115 0.945 . S
C135 C130 1.385 . S
C135 C134 1.369 . S
C136 C128 1.457 . S
C136 C137 1.372 . S
C136 C141 1.364 . S
C137 H116 0.952 . S
C137 C136 1.372 . S
C137 C138 1.389 . S
C138 H117 0.949 . S
C138 C137 1.389 . S
C138 C139 1.387 . S
C139 C138 1.387 . S
C139 C140 1.372 . S
C140 H118 0.950 . S
C140 C139 1.372 . S
C140 C141 1.379 . S
C141 H119 0.948 . S
C141 C136 1.364 . S
C141 C140 1.379 . S
C142 C111 1.383 . S
C142 C129 1.479 . S
C142 C143 1.398 . S
C143 C108 1.382 . S
C143 H120 0.951 . S
C143 C142 1.398 . S
C144 C145 1.384 . S
C144 H157 0.947 . S
C144 C179 1.382 . S
C145 C144 1.384 . S
C145 C146 1.378 . S
C146 C145 1.378 . S
C146 C147 1.378 . S
C146 H158 0.952 . S
C147 C146 1.378 . S
C147 H159 0.950 . S
C147 C178 1.383 . S
H148 C167 0.947 . S
H149 C168 0.946 . S
H150 C170 0.953 . S
H151 C171 0.943 1_545 S
H152 C173 0.952 . S
H153 C174 0.949 . S
H154 C176 0.950 . S
H155 C177 0.948 . S
H156 C179 0.951 . S
H157 C144 0.947 . S
H158 C146 0.952 . S
H159 C147 0.950 . S
N160 C163 1.382 . S
N160 C165 1.363 . S
N161 C163 1.371 . S
N161 C164 1.372 . S
N162 C164 1.361 . S
N162 C165 1.377 . S
C163 N160 1.382 . S
C163 N161 1.371 . S
C163 C166 1.480 . S
C164 N161 1.372 . S
C164 N162 1.361 . S
C164 C172 1.457 1_565 S
C165 N160 1.363 . S
C165 N162 1.377 . S
C165 C178 1.479 . S
C166 C163 1.480 . S
C166 C167 1.383 1_455 S
C166 C171 1.387 . S
C167 H148 0.947 . S
C167 C166 1.383 1_655 S
C167 C168 1.388 . S
C168 H149 0.946 . S
C168 C167 1.388 . S
C168 C169 1.384 . S
C169 C168 1.384 . S
C169 C170 1.377 1_665 S
C170 H150 0.953 . S
C170 C169 1.377 1_445 S
C170 C171 1.368 1_545 S
C171 H151 0.943 1_565 S
C171 C166 1.387 . S
C171 C170 1.368 1_565 S
C172 C164 1.457 1_545 S
C172 C173 1.372 . S
C172 C177 1.364 1_545 S
C173 H152 0.952 . S
C173 C172 1.372 . S
C173 C174 1.389 . S
C174 H153 0.949 . S
C174 C173 1.389 . S
C174 C175 1.387 . S
C175 C174 1.387 . S
C175 C176 1.372 . S
C176 H154 0.950 . S
C176 C175 1.372 . S
C176 C177 1.379 1_545 S
C177 H155 0.948 . S
C177 C172 1.364 1_565 S
C177 C176 1.379 1_565 S
C178 C147 1.383 . S
C178 C165 1.479 . S
C178 C179 1.398 . S
C179 C144 1.382 . S
C179 H156 0.951 . S
C179 C178 1.398 . S
C180 C181 1.384 . S
C180 H193 0.947 . S
C180 C215 1.382 . S
C181 C180 1.384 . S
C181 C182 1.378 . S
C182 C181 1.378 . S
C182 C183 1.378 . S
C182 H194 0.952 . S
C183 C182 1.378 . S
C183 H195 0.950 . S
C183 C214 1.383 . S
H184 C203 0.947 . S
H185 C204 0.946 . S
H186 C206 0.953 . S
H187 C207 0.945 . S
H188 C209 0.952 . S
H189 C210 0.949 . S
H190 C212 0.950 . S
H191 C213 0.948 . S
H192 C215 0.951 . S
H193 C180 0.947 . S
H194 C182 0.952 . S
H195 C183 0.950 . S
N196 C199 1.382 . S
N196 C201 1.363 . S
N197 C199 1.371 . S
N197 C200 1.372 . S
N198 C200 1.361 . S
N198 C201 1.377 . S
C199 N196 1.382 . S
C199 N197 1.371 . S
C199 C202 1.480 . S
C200 N197 1.372 . S
C200 N198 1.361 . S
C200 C208 1.457 . S
C201 N196 1.363 . S
C201 N198 1.377 . S
C201 C214 1.479 . S
C202 C199 1.480 . S
C202 C203 1.383 . S
C202 C207 1.385 . S
C203 H184 0.947 . S
C203 C202 1.383 . S
C203 C204 1.388 . S
C204 H185 0.946 . S
C204 C203 1.388 . S
C204 C205 1.384 . S
C205 C204 1.384 . S
C205 C206 1.377 . S
C206 H186 0.953 . S
C206 C205 1.377 . S
C206 C207 1.369 . S
C207 H187 0.945 . S
C207 C202 1.385 . S
C207 C206 1.369 . S
C208 C200 1.457 . S
C208 C209 1.372 . S
C208 C213 1.364 . S
C209 H188 0.952 . S
C209 C208 1.372 . S
C209 C210 1.389 . S
C210 H189 0.949 . S
C210 C209 1.389 . S
C210 C211 1.387 . S
C211 C210 1.387 . S
C211 C212 1.372 . S
C212 H190 0.950 . S
C212 C211 1.372 . S
C212 C213 1.379 . S
C213 H191 0.948 . S
C213 C208 1.364 . S
C213 C212 1.379 . S
C214 C183 1.383 . S
C214 C201 1.479 . S
C214 C215 1.398 . S
C215 C180 1.382 . S
C215 H192 0.951 . S
C215 C214 1.398 . S
C216 C217 1.384 . S
C216 H229 0.947 1_655 S
C216 C251 1.382 . S
C217 C216 1.384 . S
C217 C218 1.378 . S
C218 C217 1.378 . S
C218 C219 1.378 . S
C218 H230 0.952 . S
C219 C218 1.378 . S
C219 H231 0.950 . S
C219 C250 1.383 . S
H220 C239 0.947 . S
H221 C240 0.946 . S
H222 C242 0.953 . S
H223 C243 0.945 . S
H224 C245 0.952 . S
H225 C246 0.949 . S
H226 C248 0.950 . S
H227 C249 0.948 . S
H228 C251 0.951 1_455 S
H229 C216 0.947 1_455 S
H230 C218 0.952 . S
H231 C219 0.950 . S
N232 C235 1.382 . S
N232 C237 1.363 . S
N233 C235 1.371 . S
N233 C236 1.372 . S
N234 C236 1.361 . S
N234 C237 1.377 . S
C235 N232 1.382 . S
C235 N233 1.371 . S
C235 C238 1.480 . S
C236 N233 1.372 . S
C236 N234 1.361 . S
C236 C244 1.457 1_655 S
C237 N232 1.363 . S
C237 N234 1.377 . S
C237 C250 1.479 . S
C238 C235 1.480 . S
C238 C239 1.383 . S
C238 C243 1.385 . S
C239 H220 0.947 . S
C239 C238 1.383 . S
C239 C240 1.388 . S
C240 H221 0.946 . S
C240 C239 1.388 . S
C240 C241 1.384 . S
C241 C240 1.384 . S
C241 C242 1.377 . S
C242 H222 0.953 . S
C242 C241 1.377 . S
C242 C243 1.369 . S
C243 H223 0.945 . S
C243 C238 1.385 . S
C243 C242 1.369 . S
C244 C236 1.457 1_455 S
C244 C245 1.372 1_455 S
C244 C249 1.364 . S
C245 H224 0.952 . S
C245 C244 1.372 1_655 S
C245 C246 1.389 1_655 S
C246 H225 0.949 . S
C246 C245 1.389 1_455 S
C246 C247 1.387 . S
C247 C246 1.387 . S
C247 C248 1.372 . S
C248 H226 0.950 . S
C248 C247 1.372 . S
C248 C249 1.379 . S
C249 H227 0.948 . S
C249 C244 1.364 . S
C249 C248 1.379 . S
C250 C219 1.383 . S
C250 C237 1.479 . S
C250 C251 1.398 . S
C251 C216 1.382 . S
C251 H228 0.951 1_655 S
C251 C250 1.398 . S
C252 C253 1.384 . S
C252 H265 0.947 . S
C252 C287 1.382 . S
C253 C252 1.384 . S
C253 C254 1.378 . S
C254 C253 1.378 . S
C254 C255 1.378 . S
C254 H266 0.952 . S
C255 C254 1.378 . S
C255 H267 0.950 . S
C255 C286 1.383 . S
H256 C275 0.947 . S
H257 C276 0.946 . S
H258 C278 0.953 . S
H259 C279 0.945 . S
H260 C281 0.952 . S
H261 C282 0.949 . S
H262 C284 0.950 . S
H263 C285 0.948 . S
H264 C287 0.951 . S
H265 C252 0.947 . S
H266 C254 0.952 . S
H267 C255 0.950 . S
N268 C271 1.382 . S
N268 C273 1.363 . S
N269 C271 1.371 . S
N269 C272 1.372 . S
N270 C272 1.361 . S
N270 C273 1.377 . S
C271 N268 1.382 . S
C271 N269 1.371 . S
C271 C274 1.480 . S
C272 N269 1.372 . S
C272 N270 1.361 . S
C272 C280 1.457 . S
C273 N268 1.363 . S
C273 N270 1.377 . S
C273 C286 1.479 . S
C274 C271 1.480 . S
C274 C275 1.383 . S
C274 C279 1.385 . S
C275 H256 0.947 . S
C275 C274 1.383 . S
C275 C276 1.388 . S
C276 H257 0.946 . S
C276 C275 1.388 . S
C276 C277 1.384 . S
C277 C276 1.384 . S
C277 C278 1.377 . S
C278 H258 0.953 . S
C278 C277 1.377 . S
C278 C279 1.369 . S
C279 H259 0.945 . S
C279 C274 1.385 . S
C279 C278 1.369 . S
C280 C272 1.457 . S
C280 C281 1.372 . S
C280 C285 1.364 . S
C281 H260 0.952 . S
C281 C280 1.372 . S
C281 C282 1.389 . S
C282 H261 0.949 . S
C282 C281 1.389 . S
C282 C283 1.387 . S
C283 C282 1.387 . S
C283 C284 1.372 . S
C284 H262 0.950 . S
C284 C283 1.372 . S
C284 C285 1.379 . S
C285 H263 0.948 . S
C285 C280 1.364 . S
C285 C284 1.379 . S
C286 C255 1.383 . S
C286 C273 1.479 . S
C286 C287 1.398 . S
C287 C252 1.382 . S
C287 H264 0.951 . S
C287 C286 1.398 . S
C288 C289 1.384 . S
C288 H301 0.947 . S
C288 C323 1.382 . S
C289 C288 1.384 . S
C289 C290 1.378 . S
C290 C289 1.378 . S
C290 C291 1.378 . S
C290 H302 0.952 . S
C291 C290 1.378 . S
C291 H303 0.950 . S
C291 C322 1.383 . S
H292 C311 0.947 . S
H293 C312 0.946 . S
H294 C314 0.953 . S
H295 C315 0.945 . S
H296 C317 0.952 . S
H297 C318 0.949 . S
H298 C320 0.950 . S
H299 C321 0.948 . S
H300 C323 0.951 . S
H301 C288 0.947 . S
H302 C290 0.952 . S
H303 C291 0.950 . S
N304 C307 1.382 . S
N304 C309 1.363 . S
N305 C307 1.371 . S
N305 C308 1.372 . S
N306 C308 1.361 . S
N306 C309 1.377 . S
C307 N304 1.382 . S
C307 N305 1.371 . S
C307 C310 1.480 . S
C308 N305 1.372 . S
C308 N306 1.361 . S
C308 C316 1.457 . S
C309 N304 1.363 . S
C309 N306 1.377 . S
C309 C322 1.479 . S
C310 C307 1.480 . S
C310 C311 1.383 . S
C310 C315 1.385 . S
C311 H292 0.947 . S
C311 C310 1.383 . S
C311 C312 1.388 . S
C312 H293 0.946 . S
C312 C311 1.388 . S
C312 C313 1.384 . S
C313 C312 1.384 . S
C313 C314 1.377 . S
C314 H294 0.953 . S
C314 C313 1.377 . S
C314 C315 1.369 . S
C315 H295 0.945 . S
C315 C310 1.385 . S
C315 C314 1.369 . S
C316 C308 1.457 . S
C316 C317 1.372 . S
C316 C321 1.364 . S
C317 H296 0.952 . S
C317 C316 1.372 . S
C317 C318 1.389 . S
C318 H297 0.949 . S
C318 C317 1.389 . S
C318 C319 1.387 . S
C319 C318 1.387 . S
C319 C320 1.372 . S
C320 H298 0.950 . S
C320 C319 1.372 . S
C320 C321 1.379 . S
C321 H299 0.948 . S
C321 C316 1.364 . S
C321 C320 1.379 . S
C322 C291 1.383 . S
C322 C309 1.479 . S
C322 C323 1.398 . S
C323 C288 1.382 . S
C323 H300 0.951 . S
C323 C322 1.398 . S
C324 C325 1.384 . S
C324 H337 0.947 . S
C324 C359 1.382 . S
C325 C324 1.384 . S
C325 C326 1.378 . S
C326 C325 1.378 . S
C326 C327 1.378 . S
C326 H338 0.952 . S
C327 C326 1.378 . S
C327 H339 0.950 . S
C327 C358 1.383 . S
H328 C347 0.947 . S
H329 C348 0.946 . S
H330 C350 0.953 . S
H331 C351 0.945 . S
H332 C353 0.952 1_545 S
H333 C354 0.949 1_545 S
H334 C356 0.950 . S
H335 C357 0.948 . S
H336 C359 0.951 . S
H337 C324 0.947 . S
H338 C326 0.952 . S
H339 C327 0.950 . S
N340 C343 1.382 . S
N340 C345 1.363 . S
N341 C343 1.371 . S
N341 C344 1.372 . S
N342 C344 1.361 . S
N342 C345 1.377 . S
C343 N340 1.382 . S
C343 N341 1.371 . S
C343 C346 1.480 1_565 S
C344 N341 1.372 . S
C344 N342 1.361 . S
C344 C352 1.457 . S
C345 N340 1.363 . S
C345 N342 1.377 . S
C345 C358 1.479 . S
C346 C343 1.480 1_545 S
C346 C347 1.383 1_545 S
C346 C351 1.385 . S
C347 H328 0.947 . S
C347 C346 1.383 1_565 S
C347 C348 1.388 1_565 S
C348 H329 0.946 . S
C348 C347 1.388 1_545 S
C348 C349 1.384 . S
C349 C348 1.384 . S
C349 C350 1.377 . S
C350 H330 0.953 . S
C350 C349 1.377 . S
C350 C351 1.369 . S
C351 H331 0.945 . S
C351 C346 1.385 . S
C351 C350 1.369 . S
C352 C344 1.457 . S
C352 C353 1.372 . S
C352 C357 1.364 . S
C353 H332 0.952 1_565 S
C353 C352 1.372 . S
C353 C354 1.389 . S
C354 H333 0.949 1_565 S
C354 C353 1.389 . S
C354 C355 1.387 . S
C355 C354 1.387 . S
C355 C356 1.372 . S
C356 H334 0.950 . S
C356 C355 1.372 . S
C356 C357 1.379 . S
C357 H335 0.948 . S
C357 C352 1.364 . S
C357 C356 1.379 . S
C358 C327 1.383 . S
C358 C345 1.479 . S
C358 C359 1.398 . S
C359 C324 1.382 . S
C359 H336 0.951 . S
C359 C358 1.398 . S
C360 C361 1.384 . S
C360 H373 0.947 . S
C360 C395 1.382 . S
C361 C360 1.384 . S
C361 C362 1.378 . S
C362 C361 1.378 . S
C362 C363 1.378 . S
C362 H374 0.952 . S
C363 C362 1.378 . S
C363 H375 0.950 . S
C363 C394 1.383 . S
H364 C383 0.947 . S
H365 C384 0.946 . S
H366 C386 0.953 . S
H367 C387 0.945 . S
H368 C389 0.952 . S
H369 C390 0.949 . S
H370 C392 0.950 . S
H371 C393 0.948 . S
H372 C395 0.951 . S
H373 C360 0.947 . S
H374 C362 0.952 . S
H375 C363 0.950 . S
N376 C379 1.382 . S
N376 C381 1.363 . S
N377 C379 1.371 . S
N377 C380 1.372 . S
N378 C380 1.361 . S
N378 C381 1.377 . S
C379 N376 1.382 . S
C379 N377 1.371 . S
C379 C382 1.480 . S
C380 N377 1.372 . S
C380 N378 1.361 . S
C380 C388 1.457 . S
C381 N376 1.363 . S
C381 N378 1.377 . S
C381 C394 1.479 . S
C382 C379 1.480 . S
C382 C383 1.383 . S
C382 C387 1.385 . S
C383 H364 0.947 . S
C383 C382 1.383 . S
C383 C384 1.388 . S
C384 H365 0.946 . S
C384 C383 1.388 . S
C384 C385 1.384 . S
C385 C384 1.384 . S
C385 C386 1.377 . S
C386 H366 0.953 . S
C386 C385 1.377 . S
C386 C387 1.369 . S
C387 H367 0.945 . S
C387 C382 1.385 . S
C387 C386 1.369 . S
C388 C380 1.457 . S
C388 C389 1.372 . S
C388 C393 1.364 . S
C389 H368 0.952 . S
C389 C388 1.372 . S
C389 C390 1.389 . S
C390 H369 0.949 . S
C390 C389 1.389 . S
C390 C391 1.387 . S
C391 C390 1.387 . S
C391 C392 1.372 . S
C392 H370 0.950 . S
C392 C391 1.372 . S
C392 C393 1.379 . S
C393 H371 0.948 . S
C393 C388 1.364 . S
C393 C392 1.379 . S
C394 C363 1.383 . S
C394 C381 1.479 . S
C394 C395 1.398 . S
C395 C360 1.382 . S
C395 H372 0.951 . S
C395 C394 1.398 . S
C396 C397 1.384 . S
C396 H409 0.947 . S
C396 C431 1.382 . S
C397 C396 1.384 . S
C397 C398 1.378 . S
C398 C397 1.378 . S
C398 C399 1.378 . S
C398 H410 0.952 . S
C399 C398 1.378 . S
C399 H411 0.950 . S
C399 C430 1.383 . S
H400 C419 0.947 . S
H401 C420 0.946 . S
H402 C422 0.953 . S
H403 C423 0.945 . S
H404 C425 0.952 . S
H405 C426 0.949 . S
H406 C428 0.950 . S
H407 C429 0.948 . S
H408 C431 0.951 . S
H409 C396 0.947 . S
H410 C398 0.952 . S
H411 C399 0.950 . S
N412 C415 1.382 . S
N412 C417 1.363 . S
N413 C415 1.371 . S
N413 C416 1.372 . S
N414 C416 1.361 . S
N414 C417 1.377 . S
C415 N412 1.382 . S
C415 N413 1.371 . S
C415 C418 1.480 . S
C416 N413 1.372 . S
C416 N414 1.361 . S
C416 C424 1.457 . S
C417 N412 1.363 . S
C417 N414 1.377 . S
C417 C430 1.479 . S
C418 C415 1.480 . S
C418 C419 1.383 . S
C418 C423 1.385 . S
C419 H400 0.947 . S
C419 C418 1.383 . S
C419 C420 1.388 . S
C420 H401 0.946 . S
C420 C419 1.388 . S
C420 C421 1.384 . S
C421 C420 1.384 . S
C421 C422 1.377 . S
C422 H402 0.953 . S
C422 C421 1.377 . S
C422 C423 1.369 . S
C423 H403 0.945 . S
C423 C418 1.385 . S
C423 C422 1.369 . S
C424 C416 1.457 . S
C424 C425 1.372 . S
C424 C429 1.364 . S
C425 H404 0.952 . S
C425 C424 1.372 . S
C425 C426 1.389 . S
C426 H405 0.949 . S
C426 C425 1.389 . S
C426 C427 1.387 . S
C427 C426 1.387 . S
C427 C428 1.372 . S
C428 H406 0.950 . S
C428 C427 1.372 . S
C428 C429 1.379 . S
C429 H407 0.948 . S
C429 C424 1.364 . S
C429 C428 1.379 . S
C430 C399 1.383 . S
C430 C417 1.479 . S
C430 C431 1.398 . S
C431 C396 1.382 . S
C431 H408 0.951 . S
C431 C430 1.398 . S
C432 C433 1.384 . S
C432 H445 0.947 . S
C432 C467 1.382 . S
C433 C432 1.384 . S
C433 C434 1.378 . S
C434 C433 1.378 . S
C434 C435 1.378 . S
C434 H446 0.952 . S
C435 C434 1.378 . S
C435 H447 0.950 . S
C435 C466 1.383 . S
H436 C455 0.947 . S
H437 C456 0.946 . S
H438 C458 0.953 . S
H439 C459 0.945 . S
H440 C461 0.952 . S
H441 C462 0.949 . S
H442 C464 0.950 . S
H443 C465 0.948 . S
H444 C467 0.951 . S
H445 C432 0.947 . S
H446 C434 0.952 . S
H447 C435 0.950 . S
N448 C451 1.382 . S
N448 C453 1.363 . S
N449 C451 1.371 . S
N449 C452 1.372 . S
N450 C452 1.361 . S
N450 C453 1.377 . S
C451 N448 1.382 . S
C451 N449 1.371 . S
C451 C454 1.480 . S
C452 N449 1.372 . S
C452 N450 1.361 . S
C452 C460 1.457 . S
C453 N448 1.363 . S
C453 N450 1.377 . S
C453 C466 1.479 . S
C454 C451 1.480 . S
C454 C455 1.383 . S
C454 C459 1.385 . S
C455 H436 0.947 . S
C455 C454 1.383 . S
C455 C456 1.388 . S
C456 H437 0.946 . S
C456 C455 1.388 . S
C456 C457 1.384 . S
C457 C456 1.384 . S
C457 C458 1.377 . S
C458 H438 0.953 . S
C458 C457 1.377 . S
C458 C459 1.369 . S
C459 H439 0.945 . S
C459 C454 1.385 . S
C459 C458 1.369 . S
C460 C452 1.457 . S
C460 C461 1.372 . S
C460 C465 1.364 . S
C461 H440 0.952 . S
C461 C460 1.372 . S
C461 C462 1.389 . S
C462 H441 0.949 . S
C462 C461 1.389 . S
C462 C463 1.387 . S
C463 C462 1.387 . S
C463 C464 1.372 . S
C464 H442 0.950 . S
C464 C463 1.372 . S
C464 C465 1.379 . S
C465 H443 0.948 . S
C465 C460 1.364 . S
C465 C464 1.379 . S
C466 C435 1.383 . S
C466 C453 1.479 . S
C466 C467 1.398 . S
C467 C432 1.382 . S
C467 H444 0.951 . S
C467 C466 1.398 . S
C468 C469 1.384 . S
C468 H481 0.947 . S
C468 C503 1.382 . S
C469 C468 1.384 . S
C469 C470 1.378 . S
C470 C469 1.378 . S
C470 C471 1.378 1_554 S
C470 H482 0.957 . S
C471 C470 1.378 1_556 S
C471 H483 0.950 . S
C471 C502 1.383 . S
H472 C491 0.947 . S
H473 C492 0.946 . S
H474 C494 0.953 . S
H475 C495 0.945 . S
H476 C497 0.952 . S
H477 C498 0.949 . S
H478 C500 0.950 1_554 S
H479 C501 0.949 . S
H480 C503 0.951 . S
H481 C468 0.947 . S
H482 C470 0.957 . S
H483 C471 0.950 . S
N484 C487 1.382 . S
N484 C489 1.363 . S
N485 C487 1.371 . S
N485 C488 1.372 . S
N486 C488 1.361 . S
N486 C489 1.377 . S
C487 N484 1.382 . S
C487 N485 1.371 . S
C487 C490 1.480 . S
C488 N485 1.372 . S
C488 N486 1.361 . S
C488 C496 1.457 . S
C489 N484 1.363 . S
C489 N486 1.377 . S
C489 C502 1.479 . S
C490 C487 1.480 . S
C490 C491 1.383 . S
C490 C495 1.385 . S
C491 H472 0.947 . S
C491 C490 1.383 . S
C491 C492 1.388 . S
C492 H473 0.946 . S
C492 C491 1.388 . S
C492 C493 1.384 . S
C493 C492 1.384 . S
C493 C494 1.377 . S
C494 H474 0.953 . S
C494 C493 1.377 . S
C494 C495 1.369 . S
C495 H475 0.945 . S
C495 C490 1.385 . S
C495 C494 1.369 . S
C496 C488 1.457 . S
C496 C497 1.372 . S
C496 C501 1.364 . S
C497 H476 0.952 . S
C497 C496 1.372 . S
C497 C498 1.389 . S
C498 H477 0.949 . S
C498 C497 1.389 . S
C498 C499 1.387 . S
C499 C498 1.387 . S
C499 C500 1.372 . S
C500 H478 0.950 1_556 S
C500 C499 1.372 . S
C500 C501 1.379 . S
C501 H479 0.949 . S
C501 C496 1.364 . S
C501 C500 1.379 . S
C502 C471 1.383 . S
C502 C489 1.479 . S
C502 C503 1.398 1_556 S
C503 C468 1.382 . S
C503 H480 0.951 . S
C503 C502 1.398 1_554 S
C504 C505 1.384 . S
C504 H517 0.947 . S
C504 C539 1.382 . S
C505 C504 1.384 . S
C505 C506 1.378 . S
C506 C505 1.378 . S
C506 C507 1.378 . S
C506 H518 0.952 . S
C507 C506 1.378 . S
C507 H519 0.950 . S
C507 C538 1.383 . S
H508 C527 0.947 . S
H509 C528 0.946 . S
H510 C530 0.953 . S
H511 C531 0.945 . S
H512 C533 0.952 . S
H513 C534 0.949 . S
H514 C536 0.950 . S
H515 C537 0.948 . S
H516 C539 0.951 . S
H517 C504 0.947 . S
H518 C506 0.952 . S
H519 C507 0.950 . S
N520 C523 1.382 . S
N520 C525 1.363 . S
N521 C523 1.371 . S
N521 C524 1.372 . S
N522 C524 1.361 . S
N522 C525 1.377 . S
C523 N520 1.382 . S
C523 N521 1.371 . S
C523 C526 1.480 . S
C524 N521 1.372 . S
C524 N522 1.361 . S
C524 C532 1.457 . S
C525 N520 1.363 . S
C525 N522 1.377 . S
C525 C538 1.479 . S
C526 C523 1.480 . S
C526 C527 1.383 . S
C526 C531 1.385 . S
C527 H508 0.947 . S
C527 C526 1.383 . S
C527 C528 1.388 . S
C528 H509 0.946 . S
C528 C527 1.388 . S
C528 C529 1.384 . S
C529 C528 1.384 . S
C529 C530 1.377 . S
C530 H510 0.953 . S
C530 C529 1.377 . S
C530 C531 1.369 . S
C531 H511 0.945 . S
C531 C526 1.385 . S
C531 C530 1.369 . S
C532 C524 1.457 . S
C532 C533 1.372 . S
C532 C537 1.364 . S
C533 H512 0.952 . S
C533 C532 1.372 . S
C533 C534 1.389 . S
C534 H513 0.949 . S
C534 C533 1.389 . S
C534 C535 1.387 . S
C535 C534 1.387 . S
C535 C536 1.372 . S
C536 H514 0.950 . S
C536 C535 1.372 . S
C536 C537 1.379 . S
C537 H515 0.948 . S
C537 C532 1.364 . S
C537 C536 1.379 . S
C538 C507 1.383 . S
C538 C525 1.479 . S
C538 C539 1.398 . S
C539 C504 1.382 . S
C539 H516 0.951 . S
C539 C538 1.398 . S
C540 C541 1.384 . S
C540 H553 0.947 . S
C540 C575 1.391 . S
C541 C540 1.384 . S
C541 C542 1.378 . S
C542 C541 1.378 . S
C542 C543 1.378 . S
C542 H554 0.952 . S
C543 C542 1.378 . S
C543 H555 0.950 . S
C543 C574 1.383 . S
H544 C563 0.946 1_544 S
H545 C564 0.945 . S
H546 C566 0.953 . S
H547 C567 0.945 . S
H548 C569 0.952 1_565 S
H549 C570 0.949 . S
H550 C572 0.950 . S
H551 C573 0.948 . S
H552 C575 0.938 1_556 S
H553 C540 0.947 . S
H554 C542 0.952 . S
H555 C543 0.950 . S
N556 C559 1.382 . S
N556 C561 1.363 . S
N557 C559 1.371 . S
N557 C560 1.372 . S
N558 C560 1.361 . S
N558 C561 1.377 . S
C559 N556 1.382 . S
C559 N557 1.371 . S
C559 C562 1.480 1_545 S
C560 N557 1.372 . S
C560 N558 1.361 . S
C560 C568 1.457 . S
C561 N556 1.363 . S
C561 N558 1.377 . S
C561 C574 1.479 1_556 S
C562 C559 1.480 1_565 S
C562 C563 1.383 . S
C562 C567 1.385 . S
C563 H544 0.946 1_566 S
C563 C562 1.383 . S
C563 C564 1.389 1_556 S
C564 H545 0.945 . S
C564 C563 1.389 1_554 S
C564 C565 1.384 1_554 S
C565 C564 1.384 1_556 S
C565 C566 1.377 . S
C566 H546 0.953 . S
C566 C565 1.377 . S
C566 C567 1.369 . S
C567 H547 0.945 . S
C567 C562 1.385 . S
C567 C566 1.369 . S
C568 C560 1.457 . S
C568 C569 1.372 . S
C568 C573 1.364 . S
C569 H548 0.952 1_545 S
C569 C568 1.372 . S
C569 C570 1.389 1_545 S
C570 H549 0.949 . S
C570 C569 1.389 1_565 S
C570 C571 1.387 1_565 S
C571 C570 1.387 1_545 S
C571 C572 1.372 . S
C572 H550 0.950 . S
C572 C571 1.372 . S
C572 C573 1.379 . S
C573 H551 0.948 . S
C573 C568 1.364 . S
C573 C572 1.379 . S
C574 C543 1.383 . S
C574 C561 1.479 1_554 S
C574 C575 1.402 . S
C575 C540 1.391 . S
C575 H552 0.938 1_554 S
C575 C574 1.402 . S
Mg576 O577 2.032 . S
Mg576 O583 1.986 1_554 S
Mg576 O585 2.114 . S
Mg576 O586 2.251 . S
Mg576 O589 2.010 . S
O577 Mg576 2.032 . S
O577 C580 1.247 1_554 S
O578 Mg579 2.028 . S
O578 C580 1.248 . S
Mg579 O578 2.028 . S
Mg579 O584 2.032 . S
Mg579 O586 2.079 1_556 S
C580 O577 1.247 1_556 S
C580 O578 1.248 . S
C581 O582 1.264 . S
C581 O589 1.249 . S
O582 C581 1.264 . S
O583 Mg576 1.986 1_556 S
O583 C587 1.246 . S
O584 Mg579 2.032 . S
O584 C587 1.259 . S
O585 Mg576 2.114 . S
O585 C588 1.252 . S
O586 Mg576 2.251 . S
O586 Mg579 2.079 1_554 S
O586 C588 1.273 . S
C587 O583 1.246 . S
C587 O584 1.259 . S
C588 O585 1.252 . S
C588 O586 1.273 . S
O589 Mg576 2.010 . S
O589 C581 1.249 . S
Mg590 O591 2.028 . S
Mg590 O597 1.986 . S
Mg590 O599 2.114 . S
Mg590 O600 2.251 . S
Mg590 O603 2.010 . S
O591 Mg590 2.028 . S
O591 C594 1.250 . S
O592 Mg593 2.028 . S
O592 C594 1.248 . S
Mg593 O592 2.028 . S
Mg593 O598 2.032 . S
Mg593 O600 2.079 . S
C594 O591 1.250 . S
C594 O592 1.248 . S
C595 O596 1.264 . S
C595 O603 1.249 . S
O596 C595 1.264 . S
O597 Mg590 1.986 . S
O597 C601 1.246 . S
O598 Mg593 2.032 . S
O598 C601 1.259 . S
O599 Mg590 2.114 . S
O599 C602 1.252 . S
O600 Mg590 2.251 . S
O600 Mg593 2.079 . S
O600 C602 1.273 . S
C601 O597 1.246 . S
C601 O598 1.259 . S
C602 O599 1.252 . S
C602 O600 1.273 . S
O603 Mg590 2.010 . S
O603 C595 1.249 . S
Mg604 O605 2.028 . S
Mg604 O611 1.986 1_554 S
Mg604 O613 2.114 . S
Mg604 O614 2.251 . S
Mg604 O617 2.010 . S
O605 Mg604 2.028 . S
O605 C608 1.247 1_554 S
O606 Mg607 2.028 . S
O606 C608 1.251 . S
Mg607 O606 2.028 . S
Mg607 O612 2.032 . S
Mg607 O614 2.079 1_556 S
C608 O605 1.247 1_556 S
C608 O606 1.251 . S
C609 O610 1.264 . S
C609 O617 1.249 . S
O610 C609 1.264 . S
O611 Mg604 1.986 1_556 S
O611 C615 1.246 . S
O612 Mg607 2.032 . S
O612 C615 1.259 . S
O613 Mg604 2.114 . S
O613 C616 1.252 . S
O614 Mg604 2.251 . S
O614 Mg607 2.079 1_554 S
O614 C616 1.273 . S
C615 O611 1.246 . S
C615 O612 1.259 . S
C616 O613 1.252 . S
C616 O614 1.273 . S
O617 Mg604 2.010 . S
O617 C609 1.249 . S
Mg618 O619 2.025 . S
Mg618 O625 1.986 . S
Mg618 O627 2.114 . S
Mg618 O628 2.251 . S
Mg618 O631 2.010 . S
O619 Mg618 2.025 . S
O619 C622 1.255 1_545 S
O620 Mg621 2.028 . S
O620 C622 1.248 . S
Mg621 O620 2.028 . S
Mg621 O626 2.032 . S
Mg621 O628 2.079 1_565 S
C622 O619 1.255 1_565 S
C622 O620 1.248 . S
C623 O624 1.264 . S
C623 O631 1.249 . S
O624 C623 1.264 . S
O625 Mg618 1.986 . S
O625 C629 1.246 . S
O626 Mg621 2.032 . S
O626 C629 1.259 1_565 S
O627 Mg618 2.114 . S
O627 C630 1.252 . S
O628 Mg618 2.251 . S
O628 Mg621 2.079 1_545 S
O628 C630 1.273 . S
C629 O625 1.246 . S
C629 O626 1.259 1_545 S
C630 O627 1.252 . S
C630 O628 1.273 . S
O631 Mg618 2.010 . S
O631 C623 1.249 . S
Mg632 O633 2.028 . S
Mg632 O639 1.986 . S
Mg632 O641 2.114 . S
Mg632 O642 2.251 . S
Mg632 O645 2.010 . S
O633 Mg632 2.028 . S
O633 C636 1.250 . S
O634 Mg635 2.028 . S
O634 C636 1.248 . S
Mg635 O634 2.028 . S
Mg635 O640 2.032 . S
Mg635 O642 2.079 . S
C636 O633 1.250 . S
C636 O634 1.248 . S
C637 O638 1.264 . S
C637 O645 1.249 . S
O638 C637 1.264 . S
O639 Mg632 1.986 . S
O639 C643 1.246 . S
O640 Mg635 2.032 . S
O640 C643 1.259 . S
O641 Mg632 2.114 . S
O641 C644 1.252 . S
O642 Mg632 2.251 . S
O642 Mg635 2.079 . S
O642 C644 1.273 . S
C643 O639 1.246 . S
C643 O640 1.259 . S
C644 O641 1.252 . S
C644 O642 1.273 . S
O645 Mg632 2.010 . S
O645 C637 1.249 . S
Mg646 O647 2.028 . S
Mg646 O653 1.986 . S
Mg646 O655 2.114 . S
Mg646 O656 2.251 . S
Mg646 O659 2.010 . S
O647 Mg646 2.028 . S
O647 C650 1.250 . S
O648 Mg649 2.028 . S
O648 C650 1.248 . S
Mg649 O648 2.028 . S
Mg649 O654 2.032 . S
Mg649 O656 2.079 . S
C650 O647 1.250 . S
C650 O648 1.248 . S
C651 O652 1.264 . S
C651 O659 1.249 . S
O652 C651 1.264 . S
O653 Mg646 1.986 . S
O653 C657 1.246 . S
O654 Mg649 2.032 . S
O654 C657 1.259 . S
O655 Mg646 2.114 . S
O655 C658 1.252 . S
O656 Mg646 2.251 . S
O656 Mg649 2.079 . S
O656 C658 1.273 . S
C657 O653 1.246 . S
C657 O654 1.259 . S
C658 O655 1.252 . S
C658 O656 1.273 . S
O659 Mg646 2.010 . S
O659 C651 1.249 . S
Mg660 O661 2.028 . S
Mg660 O667 1.986 . S
Mg660 O669 2.114 . S
Mg660 O670 2.251 . S
Mg660 O673 2.010 . S
O661 Mg660 2.028 . S
O661 C664 1.250 . S
O662 Mg663 2.028 . S
O662 C664 1.248 . S
Mg663 O662 2.028 . S
Mg663 O668 2.032 . S
Mg663 O670 2.079 . S
C664 O661 1.250 . S
C664 O662 1.248 . S
C665 O666 1.264 . S
C665 O673 1.249 . S
O666 C665 1.264 . S
O667 Mg660 1.986 . S
O667 C671 1.246 . S
O668 Mg663 2.032 . S
O668 C671 1.259 . S
O669 Mg660 2.114 . S
O669 C672 1.252 . S
O670 Mg660 2.251 . S
O670 Mg663 2.079 . S
O670 C672 1.273 . S
C671 O667 1.246 . S
C671 O668 1.259 . S
C672 O669 1.252 . S
C672 O670 1.273 . S
O673 Mg660 2.010 . S
O673 C665 1.249 . S
Mg674 O675 2.028 1_545 S
Mg674 O681 1.986 1_545 S
Mg674 O683 2.114 . S
Mg674 O684 2.251 . S
Mg674 O687 2.010 . S
O675 Mg674 2.028 1_565 S
O675 C678 1.250 . S
O676 Mg677 2.028 . S
O676 C678 1.248 . S
Mg677 O676 2.028 . S
Mg677 O682 2.032 . S
Mg677 O684 2.079 1_565 S
C678 O675 1.250 . S
C678 O676 1.248 . S
C679 O680 1.264 . S
C679 O687 1.249 . S
O680 C679 1.264 . S
O681 Mg674 1.986 1_565 S
O681 C685 1.246 . S
O682 Mg677 2.032 . S
O682 C685 1.259 . S
O683 Mg674 2.114 . S
O683 C686 1.252 . S
O684 Mg674 2.251 . S
O684 Mg677 2.079 1_545 S
O684 C686 1.273 . S
C685 O681 1.246 . S
C685 O682 1.259 . S
C686 O683 1.252 . S
C686 O684 1.273 . S
O687 Mg674 2.010 . S
O687 C679 1.249 . S
Mg688 O689 2.026 1_455 S
Mg688 O695 1.986 . S
Mg688 O697 2.114 . S
Mg688 O698 2.251 . S
Mg688 O701 2.010 . S
O689 Mg688 2.026 1_655 S
O689 C692 1.254 . S
O690 Mg691 2.028 . S
O690 C692 1.248 . S
Mg691 O690 2.028 . S
Mg691 O696 2.032 . S
Mg691 O698 2.079 1_655 S
C692 O689 1.254 . S
C692 O690 1.248 . S
C693 O694 1.264 . S
C693 O701 1.249 . S
O694 C693 1.264 . S
O695 Mg688 1.986 . S
O695 C699 1.246 . S
O696 Mg691 2.032 . S
O696 C699 1.259 1_655 S
O697 Mg688 2.114 . S
O697 C700 1.252 . S
O698 Mg688 2.251 . S
O698 Mg691 2.079 1_455 S
O698 C700 1.273 . S
C699 O695 1.246 . S
C699 O696 1.259 1_455 S
C700 O697 1.252 . S
C700 O698 1.273 . S
O701 Mg688 2.010 . S
O701 C693 1.249 . S
Mg702 O703 2.028 . S
Mg702 O709 1.986 . S
Mg702 O711 2.114 . S
Mg702 O712 2.251 . S
Mg702 O715 2.010 . S
O703 Mg702 2.028 . S
O703 C706 1.250 . S
O704 Mg705 2.028 . S
O704 C706 1.248 . S
Mg705 O704 2.028 . S
Mg705 O710 2.032 . S
Mg705 O712 2.079 . S
C706 O703 1.250 . S
C706 O704 1.248 . S
C707 O708 1.264 . S
C707 O715 1.249 . S
O708 C707 1.264 . S
O709 Mg702 1.986 . S
O709 C713 1.246 . S
O710 Mg705 2.032 . S
O710 C713 1.259 . S
O711 Mg702 2.114 . S
O711 C714 1.252 . S
O712 Mg702 2.251 . S
O712 Mg705 2.079 . S
O712 C714 1.273 . S
C713 O709 1.246 . S
C713 O710 1.259 . S
C714 O711 1.252 . S
C714 O712 1.273 . S
O715 Mg702 2.010 . S
O715 C707 1.249 . S
Mg716 O717 2.028 1_655 S
Mg716 O723 1.986 . S
Mg716 O725 2.114 . S
Mg716 O726 2.251 1_655 S
Mg716 O729 2.010 . S
O717 Mg716 2.028 1_455 S
O717 C720 1.250 . S
O718 Mg719 2.028 . S
O718 C720 1.248 . S
Mg719 O718 2.028 . S
Mg719 O724 2.032 . S
Mg719 O726 2.079 . S
C720 O717 1.250 . S
C720 O718 1.248 . S
C721 O722 1.264 . S
C721 O729 1.249 . S
O722 C721 1.264 . S
O723 Mg716 1.986 . S
O723 C727 1.246 1_655 S
O724 Mg719 2.032 . S
O724 C727 1.259 . S
O725 Mg716 2.114 . S
O725 C728 1.252 . S
O726 Mg716 2.251 1_455 S
O726 Mg719 2.079 . S
O726 C728 1.273 1_455 S
C727 O723 1.246 1_455 S
C727 O724 1.259 . S
C728 O725 1.252 . S
C728 O726 1.273 1_655 S
O729 Mg716 2.010 . S
O729 C721 1.249 . S
Mg730 O731 2.028 . S
Mg730 O737 1.986 . S
Mg730 O739 2.114 . S
Mg730 O740 2.251 . S
Mg730 O743 2.010 . S
O731 Mg730 2.028 . S
O731 C734 1.250 . S
O732 Mg733 2.028 . S
O732 C734 1.248 . S
Mg733 O732 2.028 . S
Mg733 O738 2.032 . S
Mg733 O740 2.079 . S
C734 O731 1.250 . S
C734 O732 1.248 . S
C735 O736 1.264 . S
C735 O743 1.249 . S
O736 C735 1.264 . S
O737 Mg730 1.986 . S
O737 C741 1.246 . S
O738 Mg733 2.032 . S
O738 C741 1.259 . S
O739 Mg730 2.114 . S
O739 C742 1.252 . S
O740 Mg730 2.251 . S
O740 Mg733 2.079 . S
O740 C742 1.273 . S
C741 O737 1.246 . S
C741 O738 1.259 . S
C742 O739 1.252 . S
C742 O740 1.273 . S
O743 Mg730 2.010 . S
O743 C735 1.249 . S
C744 C745 1.363 . S
C744 C750 1.379 . S
C744 N752 1.356 . S
C745 C744 1.363 . S
C745 C751 1.363 . S
C746 C747 1.363 . S
C746 C751 1.379 . S
C746 N753 1.356 . S
C747 C746 1.363 . S
C747 C750 1.363 . S
N748 C750 1.356 . S
N748 H760 0.984 . S
N748 H761 0.985 . S
N749 C751 1.356 . S
N749 H754 0.984 . S
N749 H755 0.985 . S
C750 C744 1.379 . S
C750 C747 1.363 . S
C750 N748 1.356 . S
C751 C745 1.363 . S
C751 C746 1.379 . S
C751 N749 1.356 . S
N752 C744 1.356 . S
N752 H758 0.984 . S
N752 H759 0.984 . S
N753 C746 1.356 . S
N753 H756 0.984 . S
N753 H757 0.985 . S
H754 N749 0.984 . S
H755 N749 0.985 . S
H756 N753 0.984 . S
H757 N753 0.985 . S
H758 N752 0.984 . S
H759 N752 0.984 . S
H760 N748 0.984 . S
H761 N748 0.985 . S
C762 C763 1.363 . S
C762 C768 1.379 . S
C762 N770 1.356 . S
C763 C762 1.363 . S
C763 C769 1.363 . S
C764 C765 1.363 . S
C764 C769 1.379 . S
C764 N771 1.356 . S
C765 C764 1.363 . S
C765 C768 1.363 . S
N766 C768 1.356 . S
N766 H778 0.984 . S
N766 H779 0.985 . S
N767 C769 1.356 . S
N767 H772 0.984 . S
N767 H773 0.985 . S
C768 C762 1.379 . S
C768 C765 1.363 . S
C768 N766 1.356 . S
C769 C763 1.363 . S
C769 C764 1.379 . S
C769 N767 1.356 . S
N770 C762 1.356 . S
N770 H776 0.984 . S
N770 H777 0.984 . S
N771 C764 1.356 . S
N771 H774 0.984 . S
N771 H775 0.985 . S
H772 N767 0.984 . S
H773 N767 0.985 . S
H774 N771 0.984 . S
H775 N771 0.985 . S
H776 N770 0.984 . S
H777 N770 0.984 . S
H778 N766 0.984 . S
H779 N766 0.985 . S
C780 C781 1.363 . S
C780 C786 1.379 . S
C780 N788 1.356 . S
C781 C780 1.363 . S
C781 C787 1.363 . S
C782 C783 1.363 . S
C782 C787 1.379 . S
C782 N789 1.356 . S
C783 C782 1.363 . S
C783 C786 1.363 . S
N784 C786 1.356 . S
N784 H796 0.984 . S
N784 H797 0.985 . S
N785 C787 1.356 . S
N785 H790 0.984 . S
N785 H791 0.985 . S
C786 C780 1.379 . S
C786 C783 1.363 . S
C786 N784 1.356 . S
C787 C781 1.363 . S
C787 C782 1.379 . S
C787 N785 1.356 . S
N788 C780 1.356 . S
N788 H794 0.984 . S
N788 H795 0.984 . S
N789 C782 1.356 . S
N789 H792 0.984 . S
N789 H793 0.985 . S
H790 N785 0.984 . S
H791 N785 0.985 . S
H792 N789 0.984 . S
H793 N789 0.985 . S
H794 N788 0.984 . S
H795 N788 0.984 . S
H796 N784 0.984 . S
H797 N784 0.985 . S
C798 C799 1.363 1_545 S
C798 C804 1.379 . S
C798 N806 1.356 . S
C799 C798 1.363 1_565 S
C799 C805 1.363 . S
C800 C801 1.363 1_565 S
C800 C805 1.379 . S
C800 N807 1.356 . S
C801 C800 1.363 1_545 S
C801 C804 1.363 . S
N802 C804 1.356 . S
N802 H814 0.984 . S
N802 H815 0.985 . S
N803 C805 1.356 . S
N803 H808 0.984 . S
N803 H809 0.985 . S
C804 C798 1.379 . S
C804 C801 1.363 . S
C804 N802 1.356 . S
C805 C799 1.363 . S
C805 C800 1.379 . S
C805 N803 1.356 . S
N806 C798 1.356 . S
N806 H812 0.984 . S
N806 H813 0.984 . S
N807 C800 1.356 . S
N807 H810 0.984 . S
N807 H811 0.985 . S
H808 N803 0.984 . S
H809 N803 0.985 . S
H810 N807 0.984 . S
H811 N807 0.985 . S
H812 N806 0.984 . S
H813 N806 0.984 . S
H814 N802 0.984 . S
H815 N802 0.985 . S
C816 C817 1.363 . S
C816 C822 1.379 . S
C816 N824 1.356 . S
C817 C816 1.363 . S
C817 C823 1.363 . S
C818 C819 1.363 . S
C818 C823 1.379 . S
C818 N825 1.356 . S
C819 C818 1.363 . S
C819 C822 1.363 . S
N820 C822 1.356 . S
N820 H832 0.984 . S
N820 H833 0.985 . S
N821 C823 1.356 . S
N821 H826 0.984 . S
N821 H827 0.985 . S
C822 C816 1.379 . S
C822 C819 1.363 . S
C822 N820 1.356 . S
C823 C817 1.363 . S
C823 C818 1.379 . S
C823 N821 1.356 . S
N824 C816 1.356 . S
N824 H830 0.984 . S
N824 H831 0.984 . S
N825 C818 1.356 . S
N825 H828 0.984 . S
N825 H829 0.985 . S
H826 N821 0.984 . S
H827 N821 0.985 . S
H828 N825 0.984 . S
H829 N825 0.985 . S
H830 N824 0.984 . S
H831 N824 0.984 . S
H832 N820 0.984 . S
H833 N820 0.985 . S
C834 C835 1.363 . S
C834 C840 1.379 . S
C834 N842 1.356 . S
C835 C834 1.363 . S
C835 C841 1.363 . S
C836 C837 1.363 . S
C836 C841 1.379 . S
C836 N843 1.356 . S
C837 C836 1.363 . S
C837 C840 1.363 . S
N838 C840 1.356 . S
N838 H850 0.984 . S
N838 H851 0.985 . S
N839 C841 1.356 . S
N839 H844 0.984 . S
N839 H845 0.985 . S
C840 C834 1.379 . S
C840 C837 1.363 . S
C840 N838 1.356 . S
C841 C835 1.363 . S
C841 C836 1.379 . S
C841 N839 1.356 . S
N842 C834 1.356 . S
N842 H848 0.984 . S
N842 H849 0.984 . S
N843 C836 1.356 . S
N843 H846 0.984 . S
N843 H847 0.985 . S
H844 N839 0.984 . S
H845 N839 0.985 . S
H846 N843 0.984 . S
H847 N843 0.985 . S
H848 N842 0.984 . S
H849 N842 0.984 . S
H850 N838 0.984 . S
H851 N838 0.985 . S
C852 C853 1.363 . S
C852 C858 1.379 . S
C852 N860 1.356 . S
C853 C852 1.363 . S
C853 C859 1.363 . S
C854 C855 1.363 . S
C854 C859 1.379 . S
C854 N861 1.356 . S
C855 C854 1.363 . S
C855 C858 1.363 . S
N856 C858 1.356 . S
N856 H868 0.984 . S
N856 H869 0.985 . S
N857 C859 1.356 . S
N857 H862 0.984 . S
N857 H863 0.985 . S
C858 C852 1.379 . S
C858 C855 1.363 . S
C858 N856 1.356 . S
C859 C853 1.363 . S
C859 C854 1.379 . S
C859 N857 1.356 . S
N860 C852 1.356 . S
N860 H866 0.984 . S
N860 H867 0.984 . S
N861 C854 1.356 . S
N861 H864 0.984 . S
N861 H865 0.985 . S
H862 N857 0.984 . S
H863 N857 0.985 . S
H864 N861 0.984 . S
H865 N861 0.985 . S
H866 N860 0.984 . S
H867 N860 0.984 . S
H868 N856 0.984 . S
H869 N856 0.985 . S
C870 C871 1.363 . S
C870 C876 1.379 . S
C870 N878 1.356 . S
C871 C870 1.363 . S
C871 C877 1.363 1_565 S
C872 C873 1.363 1_545 S
C872 C877 1.379 . S
C872 N879 1.356 . S
C873 C872 1.363 1_565 S
C873 C876 1.363 . S
N874 C876 1.356 . S
N874 H886 0.984 . S
N874 H887 0.985 . S
N875 C877 1.356 . S
N875 H880 0.984 . S
N875 H881 0.985 . S
C876 C870 1.379 . S
C876 C873 1.363 . S
C876 N874 1.356 . S
C877 C871 1.363 1_545 S
C877 C872 1.379 . S
C877 N875 1.356 . S
N878 C870 1.356 . S
N878 H884 0.984 . S
N878 H885 0.984 . S
N879 C872 1.356 . S
N879 H882 0.984 . S
N879 H883 0.985 . S
H880 N875 0.984 . S
H881 N875 0.985 . S
H882 N879 0.984 . S
H883 N879 0.985 . S
H884 N878 0.984 . S
H885 N878 0.984 . S
H886 N874 0.984 . S
H887 N874 0.985 . S
C888 C889 1.363 . S
C888 C894 1.379 . S
C888 N896 1.356 . S
C889 C888 1.363 . S
C889 C895 1.363 . S
C890 C891 1.363 . S
C890 C895 1.379 . S
C890 N897 1.356 . S
C891 C890 1.363 . S
C891 C894 1.363 . S
N892 C894 1.356 . S
N892 H904 0.984 . S
N892 H905 0.985 . S
N893 C895 1.356 . S
N893 H898 0.984 . S
N893 H899 0.985 . S
C894 C888 1.379 . S
C894 C891 1.363 . S
C894 N892 1.356 . S
C895 C889 1.363 . S
C895 C890 1.379 . S
C895 N893 1.356 . S
N896 C888 1.356 . S
N896 H902 0.984 . S
N896 H903 0.984 . S
N897 C890 1.356 . S
N897 H900 0.984 . S
N897 H901 0.985 . S
H898 N893 0.984 . S
H899 N893 0.985 . S
H900 N897 0.984 . S
H901 N897 0.985 . S
H902 N896 0.984 . S
H903 N896 0.984 . S
H904 N892 0.984 . S
H905 N892 0.985 . S
C906 C907 1.363 . S
C906 C912 1.379 . S
C906 N914 1.356 . S
C907 C906 1.363 . S
C907 C913 1.363 . S
C908 C909 1.363 . S
C908 C913 1.379 . S
C908 N915 1.356 . S
C909 C908 1.363 . S
C909 C912 1.363 . S
N910 C912 1.356 . S
N910 H922 0.984 . S
N910 H923 0.985 . S
N911 C913 1.356 . S
N911 H916 0.984 . S
N911 H917 0.985 . S
C912 C906 1.379 . S
C912 C909 1.363 . S
C912 N910 1.356 . S
C913 C907 1.363 . S
C913 C908 1.379 . S
C913 N911 1.356 . S
N914 C906 1.356 . S
N914 H920 0.984 . S
N914 H921 0.984 . S
N915 C908 1.356 . S
N915 H918 0.984 . S
N915 H919 0.985 . S
H916 N911 0.984 . S
H917 N911 0.985 . S
H918 N915 0.984 . S
H919 N915 0.985 . S
H920 N914 0.984 . S
H921 N914 0.984 . S
H922 N910 0.984 . S
H923 N910 0.985 . S
C924 C925 1.363 . S
C924 C930 1.379 . S
C924 N932 1.356 . S
C925 C924 1.363 . S
C925 C931 1.363 . S
C926 C927 1.363 . S
C926 C931 1.379 . S
C926 N933 1.356 . S
C927 C926 1.363 . S
C927 C930 1.363 . S
N928 C930 1.356 . S
N928 H940 0.984 . S
N928 H941 0.985 . S
N929 C931 1.356 . S
N929 H934 0.984 . S
N929 H935 0.985 . S
C930 C924 1.379 . S
C930 C927 1.363 . S
C930 N928 1.356 . S
C931 C925 1.363 . S
C931 C926 1.379 . S
C931 N929 1.356 . S
N932 C924 1.356 . S
N932 H938 0.984 . S
N932 H939 0.984 . S
N933 C926 1.356 . S
N933 H936 0.984 . S
N933 H937 0.985 . S
H934 N929 0.984 . S
H935 N929 0.985 . S
H936 N933 0.984 . S
H937 N933 0.985 . S
H938 N932 0.984 . S
H939 N932 0.984 . S
H940 N928 0.984 . S
H941 N928 0.985 . S
C942 C943 1.363 . S
C942 C948 1.379 . S
C942 N950 1.356 . S
C943 C942 1.363 . S
C943 C949 1.363 . S
C944 C945 1.363 . S
C944 C949 1.379 . S
C944 N951 1.356 . S
C945 C944 1.363 . S
C945 C948 1.363 . S
N946 C948 1.356 . S
N946 H958 0.984 . S
N946 H959 0.985 . S
N947 C949 1.356 . S
N947 H952 0.984 . S
N947 H953 0.985 . S
C948 C942 1.379 . S
C948 C945 1.363 . S
C948 N946 1.356 . S
C949 C943 1.363 . S
C949 C944 1.379 . S
C949 N947 1.356 . S
N950 C942 1.356 . S
N950 H956 0.984 . S
N950 H957 0.984 . S
N951 C944 1.356 . S
N951 H954 0.984 . S
N951 H955 0.985 . S
H952 N947 0.984 . S
H953 N947 0.985 . S
H954 N951 0.984 . S
H955 N951 0.985 . S
H956 N950 0.984 . S
H957 N950 0.984 . S
H958 N946 0.984 . S
H959 N946 0.985 . S
C960 C961 1.363 . S
C960 C966 1.379 . S
C960 N968 1.356 . S
C961 C960 1.363 . S
C961 C967 1.363 . S
C962 C963 1.363 . S
C962 C967 1.379 . S
C962 N969 1.356 . S
C963 C962 1.363 . S
C963 C966 1.363 . S
N964 C966 1.356 . S
N964 H976 0.984 . S
N964 H977 0.985 . S
N965 C967 1.356 . S
N965 H970 0.984 . S
N965 H971 0.985 . S
C966 C960 1.379 . S
C966 C963 1.363 . S
C966 N964 1.356 . S
C967 C961 1.363 . S
C967 C962 1.379 . S
C967 N965 1.356 . S
N968 C960 1.356 . S
N968 H974 0.984 . S
N968 H975 0.984 . S
N969 C962 1.356 . S
N969 H972 0.984 . S
N969 H973 0.985 . S
H970 N965 0.984 . S
H971 N965 0.985 . S
H972 N969 0.984 . S
H973 N969 0.985 . S
H974 N968 0.984 . S
H975 N968 0.984 . S
H976 N964 0.984 . S
H977 N964 0.985 . S
C978 C979 1.363 . S
C978 C984 1.379 . S
C978 N986 1.356 . S
C979 C978 1.363 . S
C979 C985 1.363 . S
C980 C981 1.363 . S
C980 C985 1.379 . S
C980 N987 1.356 . S
C981 C980 1.363 . S
C981 C984 1.363 . S
N982 C984 1.356 . S
N982 H994 0.984 1_455 S
N982 H995 0.985 . S
N983 C985 1.356 . S
N983 H988 0.984 . S
N983 H989 0.985 . S
C984 C978 1.379 . S
C984 C981 1.363 . S
C984 N982 1.356 . S
C985 C979 1.363 . S
C985 C980 1.379 . S
C985 N983 1.356 . S
N986 C978 1.356 . S
N986 H992 0.984 . S
N986 H993 0.984 . S
N987 C980 1.356 . S
N987 H990 0.984 . S
N987 H991 0.985 . S
H988 N983 0.984 . S
H989 N983 0.985 . S
H990 N987 0.984 . S
H991 N987 0.985 . S
H992 N986 0.984 . S
H993 N986 0.984 . S
H994 N982 0.984 1_655 S
H995 N982 0.985 . S
C996 C997 1.363 . S
C996 C1002 1.379 . S
C996 N1004 1.356 . S
C997 C996 1.363 . S
C997 C1003 1.363 . S
C998 C999 1.363 . S
C998 C1003 1.379 . S
C998 N1005 1.356 . S
C999 C998 1.363 . S
C999 C1002 1.363 . S
N1000 C1002 1.356 . S
N1000 H1012 0.984 . S
N1000 H1013 0.985 . S
N1001 C1003 1.356 . S
N1001 H1006 0.984 . S
N1001 H1007 0.985 . S
C1002 C996 1.379 . S
C1002 C999 1.363 . S
C1002 N1000 1.356 . S
C1003 C997 1.363 . S
C1003 C998 1.379 . S
C1003 N1001 1.356 . S
N1004 C996 1.356 . S
N1004 H1010 0.984 . S
N1004 H1011 0.984 . S
N1005 C998 1.356 . S
N1005 H1008 0.984 . S
N1005 H1009 0.985 . S
H1006 N1001 0.984 . S
H1007 N1001 0.985 . S
H1008 N1005 0.984 . S
H1009 N1005 0.985 . S
H1010 N1004 0.984 . S
H1011 N1004 0.984 . S
H1012 N1000 0.984 . S
H1013 N1000 0.985 . S
C1014 C1015 1.363 . S
C1014 C1020 1.379 . S
C1014 N1022 1.356 . S
C1015 C1014 1.363 . S
C1015 C1021 1.363 1_655 S
C1016 C1017 1.363 1_455 S
C1016 C1021 1.379 . S
C1016 N1023 1.356 . S
C1017 C1016 1.363 1_655 S
C1017 C1020 1.363 . S
N1018 C1020 1.356 . S
N1018 H1030 0.984 . S
N1018 H1031 0.985 . S
N1019 C1021 1.356 . S
N1019 H1024 0.984 . S
N1019 H1025 0.985 . S
C1020 C1014 1.379 . S
C1020 C1017 1.363 . S
C1020 N1018 1.356 . S
C1021 C1015 1.363 1_455 S
C1021 C1016 1.379 . S
C1021 N1019 1.356 . S
N1022 C1014 1.356 . S
N1022 H1028 0.984 . S
N1022 H1029 0.984 . S
N1023 C1016 1.356 . S
N1023 H1026 0.984 . S
N1023 H1027 0.985 . S
H1024 N1019 0.984 . S
H1025 N1019 0.985 . S
H1026 N1023 0.984 . S
H1027 N1023 0.985 . S
H1028 N1022 0.984 . S
H1029 N1022 0.984 . S
H1030 N1018 0.984 . S
H1031 N1018 0.985 . S
C1032 C1033 1.363 . S
C1032 C1038 1.379 . S
C1032 N1040 1.356 . S
C1033 C1032 1.363 . S
C1033 C1039 1.363 . S
C1034 C1035 1.363 . S
C1034 C1039 1.379 . S
C1034 N1041 1.356 . S
C1035 C1034 1.363 . S
C1035 C1038 1.363 . S
N1036 C1038 1.356 . S
N1036 H1048 0.984 . S
N1036 H1049 0.985 . S
N1037 C1039 1.356 . S
N1037 H1042 0.984 . S
N1037 H1043 0.985 . S
C1038 C1032 1.379 . S
C1038 C1035 1.363 . S
C1038 N1036 1.356 . S
C1039 C1033 1.363 . S
C1039 C1034 1.379 . S
C1039 N1037 1.356 . S
N1040 C1032 1.356 . S
N1040 H1046 0.984 . S
N1040 H1047 0.984 . S
N1041 C1034 1.356 . S
N1041 H1044 0.984 . S
N1041 H1045 0.985 . S
H1042 N1037 0.984 . S
H1043 N1037 0.985 . S
H1044 N1041 0.984 . S
H1045 N1041 0.985 . S
H1046 N1040 0.984 . S
H1047 N1040 0.984 . S
H1048 N1036 0.984 . S
H1049 N1036 0.985 . S
C1050 C1051 1.363 . S
C1050 C1056 1.379 . S
C1050 N1058 1.356 . S
C1051 C1050 1.363 . S
C1051 C1057 1.363 . S
C1052 C1053 1.363 . S
C1052 C1057 1.379 . S
C1052 N1059 1.356 . S
C1053 C1052 1.363 . S
C1053 C1056 1.363 . S
N1054 C1056 1.356 . S
N1054 H1066 0.984 . S
N1054 H1067 0.985 . S
N1055 C1057 1.356 . S
N1055 H1060 0.984 . S
N1055 H1061 0.985 . S
C1056 C1050 1.379 . S
C1056 C1053 1.363 . S
C1056 N1054 1.356 . S
C1057 C1051 1.363 . S
C1057 C1052 1.379 . S
C1057 N1055 1.356 . S
N1058 C1050 1.356 . S
N1058 H1064 0.984 . S
N1058 H1065 0.984 . S
N1059 C1052 1.356 . S
N1059 H1062 0.984 . S
N1059 H1063 0.985 . S
H1060 N1055 0.984 . S
H1061 N1055 0.985 . S
H1062 N1059 0.984 . S
H1063 N1059 0.985 . S
H1064 N1058 0.984 . S
H1065 N1058 0.984 . S
H1066 N1054 0.984 . S
H1067 N1054 0.985 . S
C1068 C1069 1.363 1_554 S
C1068 C1074 1.379 . S
C1068 N1076 1.356 . S
C1069 C1068 1.363 1_556 S
C1069 C1075 1.363 . S
C1070 C1071 1.363 . S
C1070 C1075 1.379 . S
C1070 N1077 1.356 . S
C1071 C1070 1.363 . S
C1071 C1074 1.363 1_556 S
N1072 C1074 1.356 . S
N1072 H1084 0.984 . S
N1072 H1085 0.985 . S
N1073 C1075 1.356 . S
N1073 H1078 0.984 . S
N1073 H1079 0.985 . S
C1074 C1068 1.379 . S
C1074 C1071 1.363 1_554 S
C1074 N1072 1.356 . S
C1075 C1069 1.363 . S
C1075 C1070 1.379 . S
C1075 N1073 1.356 . S
N1076 C1068 1.356 . S
N1076 H1082 0.984 . S
N1076 H1083 0.984 . S
N1077 C1070 1.356 . S
N1077 H1080 0.984 . S
N1077 H1081 0.985 . S
H1078 N1073 0.984 . S
H1079 N1073 0.985 . S
H1080 N1077 0.984 . S
H1081 N1077 0.985 . S
H1082 N1076 0.984 . S
H1083 N1076 0.984 . S
H1084 N1072 0.984 . S
H1085 N1072 0.985 . S
C1086 C1087 1.363 . S
C1086 C1092 1.379 . S
C1086 N1094 1.356 . S
C1087 C1086 1.363 . S
C1087 C1093 1.363 . S
C1088 C1089 1.363 . S
C1088 C1093 1.379 . S
C1088 N1095 1.356 . S
C1089 C1088 1.363 . S
C1089 C1092 1.363 . S
N1090 C1092 1.356 . S
N1090 H1102 0.984 . S
N1090 H1103 0.985 . S
N1091 C1093 1.356 . S
N1091 H1096 0.984 . S
N1091 H1097 0.985 . S
C1092 C1086 1.379 . S
C1092 C1089 1.363 . S
C1092 N1090 1.356 . S
C1093 C1087 1.363 . S
C1093 C1088 1.379 . S
C1093 N1091 1.356 . S
N1094 C1086 1.356 . S
N1094 H1100 0.984 . S
N1094 H1101 0.984 . S
N1095 C1088 1.356 . S
N1095 H1098 0.984 . S
N1095 H1099 0.985 . S
H1096 N1091 0.984 . S
H1097 N1091 0.985 . S
H1098 N1095 0.984 . S
H1099 N1095 0.985 . S
H1100 N1094 0.984 . S
H1101 N1094 0.984 . S
H1102 N1090 0.984 . S
H1103 N1090 0.985 . S
C1104 C1105 1.363 . S
C1104 C1110 1.379 . S
C1104 N1112 1.356 . S
C1105 C1104 1.363 . S
C1105 C1111 1.363 . S
C1106 C1107 1.363 . S
C1106 C1111 1.379 . S
C1106 N1113 1.356 . S
C1107 C1106 1.363 . S
C1107 C1110 1.363 . S
N1108 C1110 1.356 . S
N1108 H1120 0.984 . S
N1108 H1121 0.985 . S
N1109 C1111 1.356 . S
N1109 H1114 0.984 . S
N1109 H1115 0.985 . S
C1110 C1104 1.379 . S
C1110 C1107 1.363 . S
C1110 N1108 1.356 . S
C1111 C1105 1.363 . S
C1111 C1106 1.379 . S
C1111 N1109 1.356 . S
N1112 C1104 1.356 . S
N1112 H1118 0.984 . S
N1112 H1119 0.984 . S
N1113 C1106 1.356 . S
N1113 H1116 0.984 . S
N1113 H1117 0.985 . S
H1114 N1109 0.984 . S
H1115 N1109 0.985 . S
H1116 N1113 0.984 . S
H1117 N1113 0.985 . S
H1118 N1112 0.984 . S
H1119 N1112 0.984 . S
H1120 N1108 0.984 . S
H1121 N1108 0.985 . S
C1122 C1123 1.363 . S
C1122 C1128 1.379 . S
C1122 N1130 1.356 . S
C1123 C1122 1.363 . S
C1123 C1129 1.363 . S
C1124 C1125 1.363 . S
C1124 C1129 1.379 . S
C1124 N1131 1.356 . S
C1125 C1124 1.363 . S
C1125 C1128 1.363 . S
N1126 C1128 1.356 . S
N1126 H1138 0.984 . S
N1126 H1139 0.985 . S
N1127 C1129 1.356 . S
N1127 H1132 0.984 . S
N1127 H1133 0.985 . S
C1128 C1122 1.379 . S
C1128 C1125 1.363 . S
C1128 N1126 1.356 . S
C1129 C1123 1.363 . S
C1129 C1124 1.379 . S
C1129 N1127 1.356 . S
N1130 C1122 1.356 . S
N1130 H1136 0.984 . S
N1130 H1137 0.984 . S
N1131 C1124 1.356 . S
N1131 H1134 0.984 . S
N1131 H1135 0.985 . S
H1132 N1127 0.984 . S
H1133 N1127 0.985 . S
H1134 N1131 0.984 . S
H1135 N1131 0.985 . S
H1136 N1130 0.984 . S
H1137 N1130 0.984 . S
H1138 N1126 0.984 . S
H1139 N1126 0.985 . S
C1140 C1141 1.363 . S
C1140 C1146 1.379 . S
C1140 N1148 1.356 . S
C1141 C1140 1.363 . S
C1141 C1147 1.363 . S
C1142 C1143 1.363 . S
C1142 C1147 1.379 . S
C1142 N1149 1.356 . S
C1143 C1142 1.363 . S
C1143 C1146 1.363 . S
N1144 C1146 1.356 . S
N1144 H1156 0.984 . S
N1144 H1157 0.985 . S
N1145 C1147 1.356 . S
N1145 H1150 0.984 . S
N1145 H1151 0.985 . S
C1146 C1140 1.379 . S
C1146 C1143 1.363 . S
C1146 N1144 1.356 . S
C1147 C1141 1.363 . S
C1147 C1142 1.379 . S
C1147 N1145 1.356 . S
N1148 C1140 1.356 . S
N1148 H1154 0.984 . S
N1148 H1155 0.984 . S
N1149 C1142 1.356 . S
N1149 H1152 0.984 . S
N1149 H1153 0.985 . S
H1150 N1145 0.984 . S
H1151 N1145 0.985 . S
H1152 N1149 0.984 . S
H1153 N1149 0.985 . S
H1154 N1148 0.984 . S
H1155 N1148 0.984 . S
H1156 N1144 0.984 . S
H1157 N1144 0.985 . S
C1158 C1159 1.363 . S
C1158 C1164 1.379 . S
C1158 N1166 1.356 . S
C1159 C1158 1.363 . S
C1159 C1165 1.363 . S
C1160 C1161 1.363 . S
C1160 C1165 1.379 . S
C1160 N1167 1.356 . S
C1161 C1160 1.363 . S
C1161 C1164 1.363 . S
N1162 C1164 1.356 . S
N1162 H1174 0.984 . S
N1162 H1175 0.985 . S
N1163 C1165 1.356 . S
N1163 H1168 0.984 . S
N1163 H1169 0.985 . S
C1164 C1158 1.379 . S
C1164 C1161 1.363 . S
C1164 N1162 1.356 . S
C1165 C1159 1.363 . S
C1165 C1160 1.379 . S
C1165 N1163 1.356 . S
N1166 C1158 1.356 . S
N1166 H1172 0.984 . S
N1166 H1173 0.984 . S
N1167 C1160 1.356 . S
N1167 H1170 0.984 . S
N1167 H1171 0.985 . S
H1168 N1163 0.984 . S
H1169 N1163 0.985 . S
H1170 N1167 0.984 . S
H1171 N1167 0.985 . S
H1172 N1166 0.984 . S
H1173 N1166 0.984 . S
H1174 N1162 0.984 . S
H1175 N1162 0.985 . S
C1176 C1177 1.363 . S
C1176 C1182 1.379 . S
C1176 N1184 1.356 . S
C1177 C1176 1.363 . S
C1177 C1183 1.363 . S
C1178 C1179 1.363 . S
C1178 C1183 1.379 . S
C1178 N1185 1.356 . S
C1179 C1178 1.363 . S
C1179 C1182 1.363 . S
N1180 C1182 1.356 . S
N1180 H1192 0.984 . S
N1180 H1193 0.985 . S
N1181 C1183 1.356 . S
N1181 H1186 0.984 . S
N1181 H1187 0.985 . S
C1182 C1176 1.379 . S
C1182 C1179 1.363 . S
C1182 N1180 1.356 . S
C1183 C1177 1.363 . S
C1183 C1178 1.379 . S
C1183 N1181 1.356 . S
N1184 C1176 1.356 . S
N1184 H1190 0.984 . S
N1184 H1191 0.984 . S
N1185 C1178 1.356 . S
N1185 H1188 0.984 . S
N1185 H1189 0.985 . S
H1186 N1181 0.984 . S
H1187 N1181 0.985 . S
H1188 N1185 0.984 . S
H1189 N1185 0.985 . S
H1190 N1184 0.984 . S
H1191 N1184 0.984 . S
H1192 N1180 0.984 . S
H1193 N1180 0.985 . S
C1194 C1195 1.363 1_565 S
C1194 C1200 1.379 . S
C1194 N1202 1.356 . S
C1195 C1194 1.363 1_545 S
C1195 C1201 1.363 . S
C1196 C1197 1.363 . S
C1196 C1201 1.379 . S
C1196 N1203 1.356 . S
C1197 C1196 1.363 . S
C1197 C1200 1.363 1_545 S
N1198 C1200 1.356 . S
N1198 H1210 0.984 . S
N1198 H1211 0.985 . S
N1199 C1201 1.356 . S
N1199 H1204 0.984 . S
N1199 H1205 0.985 . S
C1200 C1194 1.379 . S
C1200 C1197 1.363 1_565 S
C1200 N1198 1.356 . S
C1201 C1195 1.363 . S
C1201 C1196 1.379 . S
C1201 N1199 1.356 . S
N1202 C1194 1.356 . S
N1202 H1208 0.984 . S
N1202 H1209 0.984 . S
N1203 C1196 1.356 . S
N1203 H1206 0.984 . S
N1203 H1207 0.985 . S
H1204 N1199 0.984 . S
H1205 N1199 0.985 . S
H1206 N1203 0.984 . S
H1207 N1203 0.985 . S
H1208 N1202 0.984 . S
H1209 N1202 0.984 . S
H1210 N1198 0.984 . S
H1211 N1198 0.985 . S
C1212 C1213 1.363 . S
C1212 C1218 1.379 . S
C1212 N1220 1.356 . S
C1213 C1212 1.363 . S
C1213 C1219 1.363 . S
C1214 C1215 1.363 . S
C1214 C1219 1.379 . S
C1214 N1221 1.356 . S
C1215 C1214 1.363 . S
C1215 C1218 1.363 . S
N1216 C1218 1.356 . S
N1216 H1228 0.984 . S
N1216 H1229 0.985 . S
N1217 C1219 1.356 . S
N1217 H1222 0.984 . S
N1217 H1223 0.985 . S
C1218 C1212 1.379 . S
C1218 C1215 1.363 . S
C1218 N1216 1.356 . S
C1219 C1213 1.363 . S
C1219 C1214 1.379 . S
C1219 N1217 1.356 . S
N1220 C1212 1.356 . S
N1220 H1226 0.984 . S
N1220 H1227 0.984 . S
N1221 C1214 1.356 . S
N1221 H1224 0.984 . S
N1221 H1225 0.985 . S
H1222 N1217 0.984 . S
H1223 N1217 0.985 . S
H1224 N1221 0.984 . S
H1225 N1221 0.985 . S
H1226 N1220 0.984 . S
H1227 N1220 0.984 . S
H1228 N1216 0.984 . S
H1229 N1216 0.985 . S
C1230 C1231 1.363 . S
C1230 C1236 1.379 . S
C1230 N1238 1.356 . S
C1231 C1230 1.363 . S
C1231 C1237 1.363 . S
C1232 C1233 1.363 . S
C1232 C1237 1.379 . S
C1232 N1239 1.356 . S
C1233 C1232 1.363 . S
C1233 C1236 1.363 . S
N1234 C1236 1.356 . S
N1234 H1246 0.984 . S
N1234 H1247 0.985 . S
N1235 C1237 1.356 . S
N1235 H1240 0.984 . S
N1235 H1241 0.985 . S
C1236 C1230 1.379 . S
C1236 C1233 1.363 . S
C1236 N1234 1.356 . S
C1237 C1231 1.363 . S
C1237 C1232 1.379 . S
C1237 N1235 1.356 . S
N1238 C1230 1.356 . S
N1238 H1244 0.984 . S
N1238 H1245 0.984 . S
N1239 C1232 1.356 . S
N1239 H1242 0.984 . S
N1239 H1243 0.985 . S
H1240 N1235 0.984 . S
H1241 N1235 0.985 . S
H1242 N1239 0.984 . S
H1243 N1239 0.985 . S
H1244 N1238 0.984 . S
H1245 N1238 0.984 . S
H1246 N1234 0.984 . S
H1247 N1234 0.985 . S
C1248 C1249 1.363 . S
C1248 C1254 1.379 . S
C1248 N1256 1.356 . S
C1249 C1248 1.363 . S
C1249 C1255 1.363 . S
C1250 C1251 1.363 . S
C1250 C1255 1.379 . S
C1250 N1257 1.356 . S
C1251 C1250 1.363 . S
C1251 C1254 1.363 . S
N1252 C1254 1.356 . S
N1252 H1264 0.984 . S
N1252 H1265 0.985 . S
N1253 C1255 1.356 . S
N1253 H1258 0.984 . S
N1253 H1259 0.985 . S
C1254 C1248 1.379 . S
C1254 C1251 1.363 . S
C1254 N1252 1.356 . S
C1255 C1249 1.363 . S
C1255 C1250 1.379 . S
C1255 N1253 1.356 . S
N1256 C1248 1.356 . S
N1256 H1262 0.984 . S
N1256 H1263 0.984 . S
N1257 C1250 1.356 . S
N1257 H1260 0.984 . S
N1257 H1261 0.985 . S
H1258 N1253 0.984 . S
H1259 N1253 0.985 . S
H1260 N1257 0.984 . S
H1261 N1257 0.985 . S
H1262 N1256 0.984 . S
H1263 N1256 0.984 . S
H1264 N1252 0.984 . S
H1265 N1252 0.985 . S
C1266 C1267 1.363 . S
C1266 C1272 1.379 . S
C1266 N1274 1.356 1_545 S
C1267 C1266 1.363 . S
C1267 C1273 1.363 . S
C1268 C1269 1.363 . S
C1268 C1273 1.379 . S
C1268 N1275 1.356 . S
C1269 C1268 1.363 . S
C1269 C1272 1.363 . S
N1270 C1272 1.356 1_565 S
N1270 H1282 0.984 . S
N1270 H1283 0.985 . S
N1271 C1273 1.356 . S
N1271 H1276 0.984 . S
N1271 H1277 0.985 . S
C1272 C1266 1.379 . S
C1272 C1269 1.363 . S
C1272 N1270 1.356 1_545 S
C1273 C1267 1.363 . S
C1273 C1268 1.379 . S
C1273 N1271 1.356 . S
N1274 C1266 1.356 1_565 S
N1274 H1280 0.984 . S
N1274 H1281 0.984 . S
N1275 C1268 1.356 . S
N1275 H1278 0.984 . S
N1275 H1279 0.985 . S
H1276 N1271 0.984 . S
H1277 N1271 0.985 . S
H1278 N1275 0.984 . S
H1279 N1275 0.985 . S
H1280 N1274 0.984 . S
H1281 N1274 0.984 . S
H1282 N1270 0.984 . S
H1283 N1270 0.985 . S
C1284 C1285 1.363 . S
C1284 C1290 1.379 . S
C1284 N1292 1.356 . S
C1285 C1284 1.363 . S
C1285 C1291 1.363 . S
C1286 C1287 1.363 . S
C1286 C1291 1.379 . S
C1286 N1293 1.356 . S
C1287 C1286 1.363 . S
C1287 C1290 1.363 . S
N1288 C1290 1.356 . S
N1288 H1300 0.984 . S
N1288 H1301 0.985 . S
N1289 C1291 1.356 . S
N1289 H1294 0.984 . S
N1289 H1295 0.985 . S
C1290 C1284 1.379 . S
C1290 C1287 1.363 . S
C1290 N1288 1.356 . S
C1291 C1285 1.363 . S
C1291 C1286 1.379 . S
C1291 N1289 1.356 . S
N1292 C1284 1.356 . S
N1292 H1298 0.984 . S
N1292 H1299 0.984 . S
N1293 C1286 1.356 . S
N1293 H1296 0.984 . S
N1293 H1297 0.985 . S
H1294 N1289 0.984 . S
H1295 N1289 0.985 . S
H1296 N1293 0.984 . S
H1297 N1293 0.985 . S
H1298 N1292 0.984 . S
H1299 N1292 0.984 . S
H1300 N1288 0.984 . S
H1301 N1288 0.985 . S
C1302 C1303 1.363 . S
C1302 C1308 1.379 . S
C1302 N1310 1.356 . S
C1303 C1302 1.363 . S
C1303 C1309 1.363 . S
C1304 C1305 1.363 . S
C1304 C1309 1.379 . S
C1304 N1311 1.356 . S
C1305 C1304 1.363 . S
C1305 C1308 1.363 . S
N1306 C1308 1.356 . S
N1306 H1318 0.984 . S
N1306 H1319 0.985 . S
N1307 C1309 1.356 . S
N1307 H1312 0.984 . S
N1307 H1313 0.985 . S
C1308 C1302 1.379 . S
C1308 C1305 1.363 . S
C1308 N1306 1.356 . S
C1309 C1303 1.363 . S
C1309 C1304 1.379 . S
C1309 N1307 1.356 . S
N1310 C1302 1.356 . S
N1310 H1316 0.984 . S
N1310 H1317 0.984 . S
N1311 C1304 1.356 . S
N1311 H1314 0.984 . S
N1311 H1315 0.985 . S
H1312 N1307 0.984 . S
H1313 N1307 0.985 . S
H1314 N1311 0.984 . S
H1315 N1311 0.985 . S
H1316 N1310 0.984 . S
H1317 N1310 0.984 . S
H1318 N1306 0.984 . S
H1319 N1306 0.985 . S
C1320 C1321 1.363 . S
C1320 C1326 1.379 . S
C1320 N1328 1.356 . S
C1321 C1320 1.363 . S
C1321 C1327 1.363 . S
C1322 C1323 1.363 . S
C1322 C1327 1.379 . S
C1322 N1329 1.356 . S
C1323 C1322 1.363 . S
C1323 C1326 1.363 . S
N1324 C1326 1.356 . S
N1324 H1336 0.984 . S
N1324 H1337 0.985 . S
N1325 C1327 1.356 . S
N1325 H1330 0.984 . S
N1325 H1331 0.985 . S
C1326 C1320 1.379 . S
C1326 C1323 1.363 . S
C1326 N1324 1.356 . S
C1327 C1321 1.363 . S
C1327 C1322 1.379 . S
C1327 N1325 1.356 . S
N1328 C1320 1.356 . S
N1328 H1334 0.984 . S
N1328 H1335 0.984 . S
N1329 C1322 1.356 . S
N1329 H1332 0.984 . S
N1329 H1333 0.985 . S
H1330 N1325 0.984 . S
H1331 N1325 0.985 . S
H1332 N1329 0.984 . S
H1333 N1329 0.985 . S
H1334 N1328 0.984 . S
H1335 N1328 0.984 . S
H1336 N1324 0.984 . S
H1337 N1324 0.985 . S
C1338 C1339 1.363 1_455 S
C1338 C1344 1.379 . S
C1338 N1346 1.356 . S
C1339 C1338 1.363 1_655 S
C1339 C1345 1.363 . S
C1340 C1341 1.363 1_655 S
C1340 C1345 1.379 . S
C1340 N1347 1.356 . S
C1341 C1340 1.363 1_455 S
C1341 C1344 1.363 . S
N1342 C1344 1.356 . S
N1342 H1354 0.984 . S
N1342 H1355 0.985 . S
N1343 C1345 1.356 . S
N1343 H1348 0.984 . S
N1343 H1349 0.985 . S
C1344 C1338 1.379 . S
C1344 C1341 1.363 . S
C1344 N1342 1.356 . S
C1345 C1339 1.363 . S
C1345 C1340 1.379 . S
C1345 N1343 1.356 . S
N1346 C1338 1.356 . S
N1346 H1352 0.984 1_556 S
N1346 H1353 0.984 1_556 S
N1347 C1340 1.356 . S
N1347 H1350 0.984 . S
N1347 H1351 0.985 . S
H1348 N1343 0.984 . S
H1349 N1343 0.985 . S
H1350 N1347 0.984 . S
H1351 N1347 0.985 . S
H1352 N1346 0.984 1_554 S
H1353 N1346 0.984 1_554 S
H1354 N1342 0.984 . S
H1355 N1342 0.985 . S
C1356 C1357 1.363 . S
C1356 C1362 1.379 . S
C1356 N1364 1.356 . S
C1357 C1356 1.363 . S
C1357 C1363 1.363 . S
C1358 C1359 1.363 . S
C1358 C1363 1.379 . S
C1358 N1365 1.356 . S
C1359 C1358 1.363 . S
C1359 C1362 1.363 . S
N1360 C1362 1.356 . S
N1360 H1372 0.984 . S
N1360 H1373 0.985 . S
N1361 C1363 1.356 . S
N1361 H1366 0.984 . S
N1361 H1367 0.985 . S
C1362 C1356 1.379 . S
C1362 C1359 1.363 . S
C1362 N1360 1.356 . S
C1363 C1357 1.363 . S
C1363 C1358 1.379 . S
C1363 N1361 1.356 . S
N1364 C1356 1.356 . S
N1364 H1370 0.984 . S
N1364 H1371 0.984 . S
N1365 C1358 1.356 . S
N1365 H1368 0.984 . S
N1365 H1369 0.985 . S
H1366 N1361 0.984 . S
H1367 N1361 0.985 . S
H1368 N1365 0.984 . S
H1369 N1365 0.985 . S
H1370 N1364 0.984 . S
H1371 N1364 0.984 . S
H1372 N1360 0.984 . S
H1373 N1360 0.985 . S
C1374 C1375 1.363 . S
C1374 C1380 1.379 . S
C1374 N1382 1.356 . S
C1375 C1374 1.363 . S
C1375 C1381 1.363 . S
C1376 C1377 1.363 . S
C1376 C1381 1.379 . S
C1376 N1383 1.356 1_455 S
C1377 C1376 1.363 . S
C1377 C1380 1.363 . S
N1378 C1380 1.356 . S
N1378 H1390 0.984 . S
N1378 H1391 0.985 . S
N1379 C1381 1.356 1_655 S
N1379 H1384 0.983 1_655 S
N1379 H1385 0.985 . S
C1380 C1374 1.379 . S
C1380 C1377 1.363 . S
C1380 N1378 1.356 . S
C1381 C1375 1.363 . S
C1381 C1376 1.379 . S
C1381 N1379 1.356 1_455 S
N1382 C1374 1.356 . S
N1382 H1388 0.984 . S
N1382 H1389 0.984 . S
N1383 C1376 1.356 1_655 S
N1383 H1386 0.986 . S
N1383 H1387 0.985 . S
H1384 N1379 0.983 1_455 S
H1385 N1379 0.985 . S
H1386 N1383 0.986 . S
H1387 N1383 0.985 . S
H1388 N1382 0.984 . S
H1389 N1382 0.984 . S
H1390 N1378 0.984 . S
H1391 N1378 0.985 . S
C1392 C1393 1.363 . S
C1392 C1398 1.379 . S
C1392 N1400 1.356 . S
C1393 C1392 1.363 . S
C1393 C1399 1.363 . S
C1394 C1395 1.363 . S
C1394 C1399 1.379 . S
C1394 N1401 1.356 . S
C1395 C1394 1.363 . S
C1395 C1398 1.363 . S
N1396 C1398 1.356 . S
N1396 H1408 0.984 . S
N1396 H1409 0.985 . S
N1397 C1399 1.356 . S
N1397 H1402 0.984 . S
N1397 H1403 0.985 . S
C1398 C1392 1.379 . S
C1398 C1395 1.363 . S
C1398 N1396 1.356 . S
C1399 C1393 1.363 . S
C1399 C1394 1.379 . S
C1399 N1397 1.356 . S
N1400 C1392 1.356 . S
N1400 H1406 0.984 . S
N1400 H1407 0.984 . S
N1401 C1394 1.356 . S
N1401 H1404 0.984 . S
N1401 H1405 0.985 . S
H1402 N1397 0.984 . S
H1403 N1397 0.985 . S
H1404 N1401 0.984 . S
H1405 N1401 0.985 . S
H1406 N1400 0.984 . S
H1407 N1400 0.984 . S
H1408 N1396 0.984 . S
H1409 N1396 0.985 . S
C1410 C1411 1.363 . S
C1410 C1416 1.379 . S
C1410 N1418 1.356 . S
C1411 C1410 1.363 . S
C1411 C1417 1.363 . S
C1412 C1413 1.363 . S
C1412 C1417 1.379 . S
C1412 N1419 1.356 . S
C1413 C1412 1.363 . S
C1413 C1416 1.363 . S
N1414 C1416 1.356 . S
N1414 H1426 0.984 . S
N1414 H1427 0.985 . S
N1415 C1417 1.356 . S
N1415 H1420 0.984 . S
N1415 H1421 0.985 . S
C1416 C1410 1.379 . S
C1416 C1413 1.363 . S
C1416 N1414 1.356 . S
C1417 C1411 1.363 . S
C1417 C1412 1.379 . S
C1417 N1415 1.356 . S
N1418 C1410 1.356 . S
N1418 H1424 0.984 . S
N1418 H1425 0.984 . S
N1419 C1412 1.356 . S
N1419 H1422 0.984 . S
N1419 H1423 0.985 . S
H1420 N1415 0.984 . S
H1421 N1415 0.985 . S
H1422 N1419 0.984 . S
H1423 N1419 0.985 . S
H1424 N1418 0.984 . S
H1425 N1418 0.984 . S
H1426 N1414 0.984 . S
H1427 N1414 0.985 . S
C1428 C1429 1.363 . S
C1428 C1434 1.379 . S
C1428 N1436 1.356 . S
C1429 C1428 1.363 . S
C1429 C1435 1.363 . S
C1430 C1431 1.363 . S
C1430 C1435 1.379 . S
C1430 N1437 1.356 . S
C1431 C1430 1.363 . S
C1431 C1434 1.363 . S
N1432 C1434 1.356 . S
N1432 H1444 0.984 . S
N1432 H1445 0.985 . S
N1433 C1435 1.356 . S
N1433 H1438 0.984 . S
N1433 H1439 0.985 . S
C1434 C1428 1.379 . S
C1434 C1431 1.363 . S
C1434 N1432 1.356 . S
C1435 C1429 1.363 . S
C1435 C1430 1.379 . S
C1435 N1433 1.356 . S
N1436 C1428 1.356 . S
N1436 H1442 0.984 . S
N1436 H1443 0.984 . S
N1437 C1430 1.356 . S
N1437 H1440 0.984 . S
N1437 H1441 0.985 . S
H1438 N1433 0.984 . S
H1439 N1433 0.985 . S
H1440 N1437 0.984 . S
H1441 N1437 0.985 . S
H1442 N1436 0.984 . S
H1443 N1436 0.984 . S
H1444 N1432 0.984 . S
H1445 N1432 0.985 . S
C1446 C1447 1.363 . S
C1446 C1452 1.379 . S
C1446 N1454 1.356 . S
C1447 C1446 1.363 . S
C1447 C1453 1.363 . S
C1448 C1449 1.363 . S
C1448 C1453 1.379 . S
C1448 N1455 1.356 . S
C1449 C1448 1.363 . S
C1449 C1452 1.363 . S
N1450 C1452 1.356 . S
N1450 H1462 0.984 . S
N1450 H1463 0.985 . S
N1451 C1453 1.356 . S
N1451 H1456 0.984 . S
N1451 H1457 0.985 . S
C1452 C1446 1.379 . S
C1452 C1449 1.363 . S
C1452 N1450 1.356 . S
C1453 C1447 1.363 . S
C1453 C1448 1.379 . S
C1453 N1451 1.356 . S
N1454 C1446 1.356 . S
N1454 H1460 0.984 . S
N1454 H1461 0.984 . S
N1455 C1448 1.356 . S
N1455 H1458 0.984 . S
N1455 H1459 0.985 . S
H1456 N1451 0.984 . S
H1457 N1451 0.985 . S
H1458 N1455 0.984 . S
H1459 N1455 0.985 . S
H1460 N1454 0.984 . S
H1461 N1454 0.984 . S
H1462 N1450 0.984 . S
H1463 N1450 0.985 . S
C1464 C1465 1.363 . S
C1464 C1470 1.379 . S
C1464 N1472 1.356 . S
C1465 C1464 1.363 . S
C1465 C1471 1.363 . S
C1466 C1467 1.363 . S
C1466 C1471 1.379 . S
C1466 N1473 1.356 . S
C1467 C1466 1.363 . S
C1467 C1470 1.363 . S
N1468 C1470 1.356 . S
N1468 H1480 0.984 . S
N1468 H1481 0.985 . S
N1469 C1471 1.356 . S
N1469 H1474 0.984 . S
N1469 H1475 0.985 . S
C1470 C1464 1.379 . S
C1470 C1467 1.363 . S
C1470 N1468 1.356 . S
C1471 C1465 1.363 . S
C1471 C1466 1.379 . S
C1471 N1469 1.356 . S
N1472 C1464 1.356 . S
N1472 H1478 0.984 . S
N1472 H1479 0.984 . S
N1473 C1466 1.356 . S
N1473 H1476 0.984 . S
N1473 H1477 0.985 . S
H1474 N1469 0.984 . S
H1475 N1469 0.985 . S
H1476 N1473 0.984 . S
H1477 N1473 0.985 . S
H1478 N1472 0.984 . S
H1479 N1472 0.984 . S
H1480 N1468 0.984 . S
H1481 N1468 0.985 . S
C1482 C1483 1.363 . S
C1482 C1488 1.379 . S
C1482 N1490 1.356 . S
C1483 C1482 1.363 . S
C1483 C1489 1.363 . S
C1484 C1485 1.363 . S
C1484 C1489 1.379 . S
C1484 N1491 1.356 . S
C1485 C1484 1.363 . S
C1485 C1488 1.363 . S
N1486 C1488 1.356 . S
N1486 H1498 0.984 . S
N1486 H1499 0.985 . S
N1487 C1489 1.356 . S
N1487 H1492 0.984 . S
N1487 H1493 0.985 . S
C1488 C1482 1.379 . S
C1488 C1485 1.363 . S
C1488 N1486 1.356 . S
C1489 C1483 1.363 . S
C1489 C1484 1.379 . S
C1489 N1487 1.356 . S
N1490 C1482 1.356 . S
N1490 H1496 0.984 . S
N1490 H1497 0.984 . S
N1491 C1484 1.356 . S
N1491 H1494 0.984 . S
N1491 H1495 0.985 . S
H1492 N1487 0.984 . S
H1493 N1487 0.985 . S
H1494 N1491 0.984 . S
H1495 N1491 0.985 . S
H1496 N1490 0.984 . S
H1497 N1490 0.984 . S
H1498 N1486 0.984 . S
H1499 N1486 0.985 . S
C1500 C1501 1.363 . S
C1500 C1506 1.379 . S
C1500 N1508 1.356 . S
C1501 C1500 1.363 . S
C1501 C1507 1.363 . S
C1502 C1503 1.363 . S
C1502 C1507 1.379 . S
C1502 N1509 1.356 . S
C1503 C1502 1.363 . S
C1503 C1506 1.363 . S
N1504 C1506 1.356 . S
N1504 H1516 0.984 . S
N1504 H1517 0.985 . S
N1505 C1507 1.356 . S
N1505 H1510 0.984 . S
N1505 H1511 0.985 . S
C1506 C1500 1.379 . S
C1506 C1503 1.363 . S
C1506 N1504 1.356 . S
C1507 C1501 1.363 . S
C1507 C1502 1.379 . S
C1507 N1505 1.356 . S
N1508 C1500 1.356 . S
N1508 H1514 0.984 . S
N1508 H1515 0.984 . S
N1509 C1502 1.356 . S
N1509 H1512 0.984 . S
N1509 H1513 0.985 . S
H1510 N1505 0.984 . S
H1511 N1505 0.985 . S
H1512 N1509 0.984 . S
H1513 N1509 0.985 . S
H1514 N1508 0.984 . S
H1515 N1508 0.984 . S
H1516 N1504 0.984 . S
H1517 N1504 0.985 . S
C1518 C1519 1.363 . S
C1518 C1524 1.379 . S
C1518 N1526 1.356 . S
C1519 C1518 1.363 . S
C1519 C1525 1.363 . S
C1520 C1521 1.363 . S
C1520 C1525 1.379 . S
C1520 N1527 1.356 . S
C1521 C1520 1.363 . S
C1521 C1524 1.363 . S
N1522 C1524 1.356 . S
N1522 H1534 0.984 . S
N1522 H1535 0.985 . S
N1523 C1525 1.356 . S
N1523 H1528 0.984 . S
N1523 H1529 0.985 . S
C1524 C1518 1.379 . S
C1524 C1521 1.363 . S
C1524 N1522 1.356 . S
C1525 C1519 1.363 . S
C1525 C1520 1.379 . S
C1525 N1523 1.356 . S
N1526 C1518 1.356 . S
N1526 H1532 0.984 . S
N1526 H1533 0.984 . S
N1527 C1520 1.356 . S
N1527 H1530 0.984 . S
N1527 H1531 0.985 . S
H1528 N1523 0.984 . S
H1529 N1523 0.985 . S
H1530 N1527 0.984 . S
H1531 N1527 0.985 . S
H1532 N1526 0.984 . S
H1533 N1526 0.984 . S
H1534 N1522 0.984 . S
H1535 N1522 0.985 . S
C1536 C1537 1.363 1_554 S
C1536 C1542 1.379 . S
C1536 N1544 1.356 . S
C1537 C1536 1.363 1_556 S
C1537 C1543 1.363 . S
C1538 C1539 1.363 . S
C1538 C1543 1.379 . S
C1538 N1545 1.356 . S
C1539 C1538 1.363 . S
C1539 C1542 1.363 1_556 S
N1540 C1542 1.356 . S
N1540 H1552 0.984 . S
N1540 H1553 0.985 . S
N1541 C1543 1.356 . S
N1541 H1546 0.984 . S
N1541 H1547 0.985 . S
C1542 C1536 1.379 . S
C1542 C1539 1.363 1_554 S
C1542 N1540 1.356 . S
C1543 C1537 1.363 . S
C1543 C1538 1.379 . S
C1543 N1541 1.356 . S
N1544 C1536 1.356 . S
N1544 H1550 0.984 . S
N1544 H1551 0.984 . S
N1545 C1538 1.356 . S
N1545 H1548 0.984 . S
N1545 H1549 0.985 . S
H1546 N1541 0.984 . S
H1547 N1541 0.985 . S
H1548 N1545 0.984 . S
H1549 N1545 0.985 . S
H1550 N1544 0.984 . S
H1551 N1544 0.984 . S
H1552 N1540 0.984 . S
H1553 N1540 0.985 . S
C1554 C1555 1.363 . S
C1554 C1560 1.379 . S
C1554 N1562 1.356 . S
C1555 C1554 1.363 . S
C1555 C1561 1.363 . S
C1556 C1557 1.363 . S
C1556 C1561 1.379 . S
C1556 N1563 1.356 . S
C1557 C1556 1.363 . S
C1557 C1560 1.363 . S
N1558 C1560 1.356 . S
N1558 H1570 0.984 . S
N1558 H1571 0.985 . S
N1559 C1561 1.356 . S
N1559 H1564 0.984 . S
N1559 H1565 0.985 . S
C1560 C1554 1.379 . S
C1560 C1557 1.363 . S
C1560 N1558 1.356 . S
C1561 C1555 1.363 . S
C1561 C1556 1.379 . S
C1561 N1559 1.356 . S
N1562 C1554 1.356 . S
N1562 H1568 0.984 . S
N1562 H1569 0.984 . S
N1563 C1556 1.356 . S
N1563 H1566 0.984 . S
N1563 H1567 0.985 . S
H1564 N1559 0.984 . S
H1565 N1559 0.985 . S
H1566 N1563 0.984 . S
H1567 N1563 0.985 . S
H1568 N1562 0.984 . S
H1569 N1562 0.984 . S
H1570 N1558 0.984 . S
H1571 N1558 0.985 . S
C1572 C1573 1.363 . S
C1572 C1578 1.379 . S
C1572 N1580 1.356 . S
C1573 C1572 1.363 . S
C1573 C1579 1.363 . S
C1574 C1575 1.363 . S
C1574 C1579 1.379 . S
C1574 N1581 1.356 1_554 S
C1575 C1574 1.363 . S
C1575 C1578 1.363 . S
N1576 C1578 1.356 . S
N1576 H1588 0.984 . S
N1576 H1589 0.985 . S
N1577 C1579 1.356 1_556 S
N1577 H1582 0.984 . S
N1577 H1583 0.985 . S
C1578 C1572 1.379 . S
C1578 C1575 1.363 . S
C1578 N1576 1.356 . S
C1579 C1573 1.363 . S
C1579 C1574 1.379 . S
C1579 N1577 1.356 1_554 S
N1580 C1572 1.356 . S
N1580 H1586 0.984 . S
N1580 H1587 0.984 . S
N1581 C1574 1.356 1_556 S
N1581 H1584 0.984 . S
N1581 H1585 0.985 . S
H1582 N1577 0.984 . S
H1583 N1577 0.985 . S
H1584 N1581 0.984 . S
H1585 N1581 0.985 . S
H1586 N1580 0.984 . S
H1587 N1580 0.984 . S
H1588 N1576 0.984 . S
H1589 N1576 0.985 . S
C1590 C1591 1.363 1_556 S
C1590 C1596 1.379 . S
C1590 N1598 1.356 . S
C1591 C1590 1.363 1_554 S
C1591 C1597 1.363 . S
C1592 C1593 1.363 . S
C1592 C1597 1.379 . S
C1592 N1599 1.356 . S
C1593 C1592 1.363 . S
C1593 C1596 1.363 1_554 S
N1594 C1596 1.356 . S
N1594 H1606 0.984 . S
N1594 H1607 0.985 . S
N1595 C1597 1.356 . S
N1595 H1600 0.984 . S
N1595 H1601 0.985 . S
C1596 C1590 1.379 . S
C1596 C1593 1.363 1_556 S
C1596 N1594 1.356 . S
C1597 C1591 1.363 . S
C1597 C1592 1.379 . S
C1597 N1595 1.356 . S
N1598 C1590 1.356 . S
N1598 H1604 0.984 . S
N1598 H1605 0.984 . S
N1599 C1592 1.356 . S
N1599 H1602 0.984 . S
N1599 H1603 0.985 . S
H1600 N1595 0.984 . S
H1601 N1595 0.985 . S
H1602 N1599 0.984 . S
H1603 N1599 0.985 . S
H1604 N1598 0.984 . S
H1605 N1598 0.984 . S
H1606 N1594 0.984 . S
H1607 N1594 0.985 . S
C747 C587 1.445 . S
C745 C181 1.460 . S
C765 C595 1.267 . S
C763 C247 1.542 . S
C781 C283 1.446 . S
C783 C615 1.434 . S
C801 C629 1.499 . S
C799 C169 1.510 . S
C819 C644 1.524 . S
C817 C361 1.521 . S
C837 C658 1.522 . S
C835 C433 1.506 . S
C853 C421 1.549 . S
C855 C672 1.556 . S
C873 C678 1.447 . S
C871 C355 1.494 . S
C889 C427 1.526 . S
C891 C692 1.498 . S
C909 C713 1.522 . S
C907 C325 1.543 . S
C925 C385 1.466 . S
C927 C693 1.241 . S
C945 C714 1.543 . S
C943 C463 1.524 . S
C961 C253 1.489 . S
C963 C721 1.222 . S
C979 C145 1.506 . S
C981 C727 1.497 . S
C997 C205 1.489 . S
C999 C720 1.448 . S
C1015 C217 1.483 . S
C1017 C728 1.482 . S
C1033 C139 1.504 . S
C1035 C622 1.465 . S
C1051 C535 1.489 . S
C1053 C623 1.248 . S
C1071 C580 1.485 . S
C1069 C565 1.541 . S
C1089 C601 1.448 . S
C1087 C313 1.461 . S
C1105 C175 1.498 . S
C1107 C636 1.465 . S
C1125 C686 1.522 . S
C1123 C397 1.517 . S
C1143 C637 1.219 . S
C1141 C349 1.458 . S
C1161 C665 1.265 . S
C1159 C457 1.544 . S
C1179 C671 1.445 . S
C1177 C505 1.460 . S
C1195 C571 1.542 . S
C1197 C679 1.268 . S
C1213 C319 1.446 . S
C1215 C643 1.434 . S
C1233 C657 1.499 . S
C1231 C493 1.509 . S
C1249 C109 1.521 . S
C1251 C616 1.524 . S
C1269 C630 1.522 . S
C1267 C1 1.506 . S
C1287 C588 1.556 . S
C1285 C61 1.549 . S
C1305 C594 1.447 . S
C1303 C103 1.494 . S
C1321 C67 1.526 . S
C1323 C706 1.498 . S
C1339 C73 1.543 . S
C1341 C699 1.522 . S
C1357 C133 1.466 . S
C1359 C707 1.241 . S
C1375 C31 1.524 . S
C1377 C700 1.543 . S
C1395 C735 1.222 . S
C1393 C289 1.489 . S
C1413 C741 1.497 . S
C1411 C469 1.506 . S
C1431 C734 1.448 . S
C1429 C529 1.489 . S
C1447 C541 1.483 . S
C1449 C742 1.482 . S
C1465 C391 1.504 . S
C1467 C650 1.465 . S
C1485 C651 1.248 . S
C1483 C211 1.489 . S
C1503 C664 1.485 . S
C1501 C241 1.541 . S
C1521 C685 1.448 . S
C1519 C277 1.461 . S
C1537 C499 1.498 . S
C1539 C608 1.468 . S
C1557 C602 1.522 . S
C1555 C37 1.517 . S
C1573 C97 1.458 . S
C1575 C609 1.219 . S
C1593 C581 1.265 . S
C1591 C25 1.544 . S
