# Generated by pormake.
# Topology dag, (6,3)-cn, num edge types: 1
# Building blocks:
#     Node 0, Type 0, BuildingBlock: IZENUY_clean_sbu_0, # of connection points: 6
#     Node 1, Type 0, BuildingBlock: IZENUY_clean_sbu_0, # of connection points: 6
#     Node 2, Type 0, BuildingBlock: IZENUY_clean_sbu_0, # of connection points: 6
#     Node 3, Type 0, BuildingBlock: IZENUY_clean_sbu_0, # of connection points: 6
#     Node 4, Type 1, BuildingBlock: BETDIP_clean_linker_0, # of connection points: 3
#     Node 5, Type 1, BuildingBlock: BETDIP_clean_linker_0, # of connection points: 3
#     Node 6, Type 1, BuildingBlock: BETDIP_clean_linker_0, # of connection points: 3
#     Node 7, Type 1, BuildingBlock: BETDIP_clean_linker_0, # of connection points: 3
#     Node 8, Type 1, BuildingBlock: BETDIP_clean_linker_0, # of connection points: 3
#     Node 9, Type 1, BuildingBlock: BETDIP_clean_linker_0, # of connection points: 3
#     Node 10, Type 1, BuildingBlock: BETDIP_clean_linker_0, # of connection points: 3
#     Node 11, Type 1, BuildingBlock: BETDIP_clean_linker_0, # of connection points: 3
#     Edge 12, Type (0, 1), BuildingBlock: AJUNOK_clean_linker_0, # of connection points: 2
#     Edge 13, Type (0, 1), BuildingBlock: AJUNOK_clean_linker_0, # of connection points: 2
#     Edge 14, Type (0, 1), BuildingBlock: AJUNOK_clean_linker_0, # of connection points: 2
#     Edge 15, Type (0, 1), BuildingBlock: AJUNOK_clean_linker_0, # of connection points: 2
#     Edge 16, Type (0, 1), BuildingBlock: AJUNOK_clean_linker_0, # of connection points: 2
#     Edge 17, Type (0, 1), BuildingBlock: AJUNOK_clean_linker_0, # of connection points: 2
#     Edge 18, Type (0, 1), BuildingBlock: AJUNOK_clean_linker_0, # of connection points: 2
#     Edge 19, Type (0, 1), BuildingBlock: AJUNOK_clean_linker_0, # of connection points: 2
#     Edge 20, Type (0, 1), BuildingBlock: AJUNOK_clean_linker_0, # of connection points: 2
#     Edge 21, Type (0, 1), BuildingBlock: AJUNOK_clean_linker_0, # of connection points: 2
#     Edge 22, Type (0, 1), BuildingBlock: AJUNOK_clean_linker_0, # of connection points: 2
#     Edge 23, Type (0, 1), BuildingBlock: AJUNOK_clean_linker_0, # of connection points: 2
#     Edge 24, Type (0, 1), BuildingBlock: AJUNOK_clean_linker_0, # of connection points: 2
#     Edge 25, Type (0, 1), BuildingBlock: AJUNOK_clean_linker_0, # of connection points: 2
#     Edge 26, Type (0, 1), BuildingBlock: AJUNOK_clean_linker_0, # of connection points: 2
#     Edge 27, Type (0, 1), BuildingBlock: AJUNOK_clean_linker_0, # of connection points: 2
#     Edge 28, Type (0, 1), BuildingBlock: AJUNOK_clean_linker_0, # of connection points: 2
#     Edge 29, Type (0, 1), BuildingBlock: AJUNOK_clean_linker_0, # of connection points: 2
#     Edge 30, Type (0, 1), BuildingBlock: AJUNOK_clean_linker_0, # of connection points: 2
#     Edge 31, Type (0, 1), BuildingBlock: AJUNOK_clean_linker_0, # of connection points: 2
#     Edge 32, Type (0, 1), BuildingBlock: AJUNOK_clean_linker_0, # of connection points: 2
#     Edge 33, Type (0, 1), BuildingBlock: AJUNOK_clean_linker_0, # of connection points: 2
#     Edge 34, Type (0, 1), BuildingBlock: AJUNOK_clean_linker_0, # of connection points: 2
#     Edge 35, Type (0, 1), BuildingBlock: AJUNOK_clean_linker_0, # of connection points: 2
# Relax obj value: 0.088
# Max RMSD: 0.108
# Mean RMSD: 0.091
data_MOF--net-dag--node1-IZENUY_clean_sbu_0--node2-BETDIP_clean_linker_0--edge1-AJUNOK_clean_linker_0
_symmetry_space_group_name_H-M    P1
_symmetry_Int_Tables_number       1
_symmetry_cell_setting            triclinic
loop_
_symmetry_equiv_pos_as_xyz
'x, y, z'
_cell_length_a     30.002542
_cell_length_b     29.230148
_cell_length_c     26.621515
_cell_angle_alpha  86.510708
_cell_angle_beta   90.00187
_cell_angle_gamma 90.03976
loop_
_atom_site_label
_atom_site_type_symbol
_atom_site_fract_x
_atom_site_fract_y
_atom_site_fract_z
_atom_type_partial_charge
Fe0 Fe 0.20181 0.87518 0.99496 0.0
Fe1 Fe 0.10467 0.89772 0.01783 0.0
O2 O 0.14598 0.85703 0.00593 0.0
Fe3 Fe 0.13053 0.79841 0.00574 0.0
O4 O 0.16823 0.78399 0.0565 0.0
O5 O 0.22651 0.82439 0.02932 0.0
O6 O 0.20552 0.90313 0.05402 0.0
C7 C 0.17898 0.93346 0.06684 0.0
C8 C 0.19532 0.8081 0.92721 0.0
O9 O 0.14183 0.93892 0.04535 0.0
C10 C 0.05794 0.83618 0.95931 0.0
O11 O 0.18529 0.92901 0.95898 0.0
O12 O 0.11182 0.92473 0.95595 0.0
O13 O 0.17198 0.78353 0.95809 0.0
O14 O 0.20366 0.84918 0.93523 0.0
C15 C 0.08305 0.83111 0.08864 0.0
O16 O 0.05854 0.8653 0.99245 0.0
O17 O 0.0906 0.80961 0.95457 0.0
C18 C 0.1482 0.94037 0.93842 0.0
O19 O 0.09621 0.87187 0.08042 0.0
O20 O 0.08687 0.80248 0.05474 0.0
C21 C 0.20848 0.79536 0.06057 0.0
Fe22 Fe 0.70267 0.62981 0.54498 0.0
Fe23 Fe 0.63034 0.70473 0.54224 0.0
O24 O 0.646 0.64643 0.53936 0.0
Fe25 Fe 0.60515 0.6043 0.53079 0.0
O26 O 0.63447 0.55886 0.56769 0.0
O27 O 0.69115 0.59352 0.6013 0.0
O28 O 0.71789 0.6749 0.58668 0.0
C29 C 0.69456 0.69829 0.61528 0.0
C30 C 0.66991 0.57307 0.47017 0.0
O31 O 0.65444 0.70765 0.60467 0.0
C32 C 0.57608 0.67854 0.46669 0.0
O33 O 0.71723 0.66539 0.48953 0.0
O34 O 0.68169 0.72697 0.51158 0.0
O35 O 0.63087 0.58874 0.47268 0.0
O36 O 0.69812 0.58115 0.50399 0.0
C37 C 0.56186 0.65614 0.59744 0.0
O38 O 0.60539 0.70629 0.47979 0.0
O39 O 0.56818 0.64185 0.49259 0.0
C40 C 0.71011 0.70795 0.48424 0.0
O41 O 0.57597 0.69216 0.57333 0.0
O42 O 0.57713 0.61736 0.58824 0.0
C43 C 0.6628 0.56172 0.60244 0.0
Fe44 Fe 0.86835 0.20865 0.03714 0.0
Fe45 Fe 0.89054 0.10792 0.02568 0.0
O46 O 0.85154 0.1504 0.03902 0.0
Fe47 Fe 0.79596 0.134 0.05417 0.0
O48 O 0.77481 0.16862 0.001 0.0
O49 O 0.81464 0.23052 0.01282 0.0
O50 O 0.88648 0.20848 0.97193 0.0
C51 C 0.91414 0.18029 0.95641 0.0
C52 C 0.81366 0.20551 0.11953 0.0
O53 O 0.92415 0.14448 0.98269 0.0
C54 C 0.84039 0.06472 0.10453 0.0
O55 O 0.92497 0.1961 0.06131 0.0
O56 O 0.92409 0.12154 0.07901 0.0
O57 O 0.78664 0.18019 0.09719 0.0
O58 O 0.85186 0.21374 0.10174 0.0
C59 C 0.81934 0.07717 0.9751 0.0
O60 O 0.8647 0.06268 0.06605 0.0
O61 O 0.81389 0.09775 0.10871 0.0
C62 C 0.94018 0.16066 0.08543 0.0
O63 O 0.85854 0.0926 0.97173 0.0
O64 O 0.79538 0.0849 0.01308 0.0
C65 C 0.78309 0.21049 0.9912 0.0
Fe66 Fe 0.39012 0.39857 0.51118 0.0
Fe67 Fe 0.29412 0.37014 0.48958 0.0
O68 O 0.35016 0.35519 0.50472 0.0
Fe69 Fe 0.36658 0.297 0.51356 0.0
O70 O 0.40951 0.30708 0.56129 0.0
O71 O 0.4006 0.37949 0.57595 0.0
O72 O 0.35101 0.43991 0.53504 0.0
C73 C 0.31409 0.43377 0.55713 0.0
C74 C 0.43716 0.33214 0.46037 0.0
O75 O 0.28813 0.40202 0.54599 0.0
C76 C 0.30769 0.29753 0.43067 0.0
O77 O 0.38191 0.4199 0.44696 0.0
O78 O 0.30885 0.42277 0.4504 0.0
O79 O 0.40667 0.30258 0.46264 0.0
O80 O 0.43683 0.36554 0.48829 0.0
C81 C 0.28626 0.29399 0.56095 0.0
O82 O 0.29629 0.33903 0.43242 0.0
O83 O 0.32687 0.27663 0.46768 0.0
C84 C 0.34543 0.43485 0.42938 0.0
O85 O 0.26986 0.3205 0.52617 0.0
O86 O 0.32766 0.28753 0.56454 0.0
C87 C 0.41442 0.34001 0.58968 0.0
H88 H 0.12545 0.20671 0.21486 0.0
H89 H 0.23595 0.11195 0.21028 0.0
H90 H 0.11198 0.0813 0.14027 0.0
H91 H 0.27048 0.15818 0.25812 0.0
C92 C 0.25042 0.18716 0.26772 0.0
C93 C 0.13965 0.17495 0.20321 0.0
C94 C 0.11356 0.14522 0.17619 0.0
C95 C 0.1837 0.16342 0.2166 0.0
C96 C 0.20207 0.12183 0.20131 0.0
C97 C 0.17585 0.0922 0.17404 0.0
C98 C 0.1319 0.10408 0.16193 0.0
N99 N 0.20728 0.19407 0.24659 0.0
H100 H 0.26493 0.60113 0.71506 0.0
H101 H 0.37451 0.6954 0.73046 0.0
H102 H 0.39076 0.57682 0.64474 0.0
H103 H 0.31623 0.74476 0.744 0.0
C104 C 0.29331 0.72383 0.76707 0.0
C105 C 0.299 0.61149 0.70691 0.0
C106 C 0.32597 0.58448 0.67763 0.0
C107 C 0.31586 0.65184 0.72595 0.0
C108 C 0.36047 0.66506 0.71526 0.0
C109 C 0.38776 0.63758 0.68644 0.0
C110 C 0.37006 0.59768 0.66775 0.0
N111 N 0.28774 0.67684 0.75755 0.0
H112 H 0.93319 0.7879 0.27958 0.0
H113 H 0.82927 0.89028 0.27888 0.0
H114 H 0.93592 0.90352 0.17203 0.0
H115 H 0.82035 0.86298 0.35931 0.0
C116 C 0.82488 0.82633 0.35681 0.0
C117 C 0.91885 0.81986 0.26448 0.0
C118 C 0.93933 0.84423 0.22385 0.0
C119 C 0.87964 0.83665 0.28559 0.0
C120 C 0.86058 0.87777 0.26495 0.0
C121 C 0.8808 0.90174 0.22394 0.0
C122 C 0.92028 0.88502 0.20395 0.0
N123 N 0.85869 0.80993 0.32519 0.0
H124 H 0.56266 0.29385 0.77976 0.0
H125 H 0.67124 0.39107 0.7815 0.0
H126 H 0.55976 0.41828 0.68468 0.0
H127 H 0.71006 0.32903 0.80245 0.0
C128 C 0.68881 0.30875 0.82822 0.0
C129 C 0.57755 0.3263 0.76705 0.0
C130 C 0.55547 0.35539 0.73119 0.0
C131 C 0.61961 0.33851 0.78534 0.0
C132 C 0.63909 0.38046 0.76797 0.0
C133 C 0.61745 0.40888 0.73178 0.0
C134 C 0.57561 0.39665 0.71409 0.0
N135 N 0.64197 0.30784 0.82031 0.0
H136 H 0.6222 0.28919 0.33002 0.0
H137 H 0.72475 0.39332 0.32734 0.0
H138 H 0.59951 0.41525 0.40005 0.0
H139 H 0.7682 0.33839 0.29735 0.0
C140 C 0.74706 0.31324 0.28077 0.0
C141 C 0.63406 0.3224 0.34029 0.0
C142 C 0.60604 0.35071 0.36645 0.0
C143 C 0.67695 0.33709 0.32593 0.0
C144 C 0.69213 0.38082 0.33869 0.0
C145 C 0.66383 0.40932 0.36514 0.0
C146 C 0.62118 0.39373 0.37891 0.0
N147 N 0.70207 0.3076 0.29632 0.0
H148 H 0.06615 0.2257 0.76998 0.0
H149 H 0.16653 0.11954 0.77251 0.0
H150 H 0.05234 0.10427 0.8683 0.0
H151 H 0.17433 0.1444 0.69231 0.0
C152 C 0.17119 0.18138 0.69242 0.0
C153 C 0.07871 0.19274 0.78448 0.0
C154 C 0.05466 0.16694 0.82139 0.0
C155 C 0.11836 0.17531 0.76513 0.0
C156 C 0.13509 0.13284 0.78515 0.0
C157 C 0.11091 0.10694 0.8217 0.0
C158 C 0.07081 0.12412 0.83946 0.0
N159 N 0.1407 0.20107 0.72572 0.0
H160 H 0.42791 0.72648 0.27724 0.0
H161 H 0.33065 0.61875 0.26526 0.0
H162 H 0.44054 0.60032 0.3677 0.0
H163 H 0.28682 0.68618 0.25645 0.0
C164 C 0.30605 0.7041 0.22677 0.0
C165 C 0.41594 0.69231 0.28808 0.0
C166 C 0.43887 0.66497 0.32459 0.0
C167 C 0.37655 0.67614 0.26684 0.0
C168 C 0.3606 0.63194 0.28191 0.0
C169 C 0.38384 0.6043 0.31793 0.0
C170 C 0.42299 0.62105 0.33885 0.0
N171 N 0.3532 0.70491 0.23087 0.0
H172 H 0.76861 0.90146 0.82834 0.0
H173 H 0.87234 0.79901 0.82485 0.0
H174 H 0.8876 0.91402 0.91591 0.0
H175 H 0.82006 0.75607 0.79397 0.0
C176 C 0.79417 0.7774 0.7764 0.0
C177 C 0.80078 0.88817 0.84068 0.0
C178 C 0.8264 0.9123 0.87413 0.0
C179 C 0.81636 0.8467 0.82321 0.0
C180 C 0.85887 0.83016 0.83859 0.0
C181 C 0.8844 0.85422 0.87249 0.0
C182 C 0.86782 0.89508 0.89004 0.0
N183 N 0.78854 0.82336 0.78982 0.0
C184 C 0.17435 0.96782 0.14928 0.0
C185 C 0.19315 0.9683 0.10099 0.0
C186 C 0.17425 0.00738 0.17651 0.0
C187 C 0.1927 0.04866 0.15604 0.0
H188 H 0.15641 0.93788 0.16425 0.0
H189 H 0.15586 0.0069 0.21158 0.0
S190 S 0.24918 0.06633 0.03275 0.0
N191 N 0.23377 0.01194 0.03546 0.0
N192 N 0.23328 0.08661 0.08652 0.0
C193 C 0.21487 0.04842 0.10964 0.0
C194 C 0.21507 0.00808 0.082 0.0
C195 C 0.48831 0.69119 0.61972 0.0
C196 C 0.5213 0.65745 0.62947 0.0
C197 C 0.44575 0.68693 0.64191 0.0
C198 C 0.43501 0.64901 0.67475 0.0
H199 H 0.49426 0.7193 0.59211 0.0
H200 H 0.42024 0.71165 0.63055 0.0
S201 S 0.51155 0.55566 0.71932 0.0
N202 N 0.54175 0.58817 0.67946 0.0
N203 N 0.46213 0.58039 0.72074 0.0
C204 C 0.4688 0.61731 0.68803 0.0
C205 C 0.51185 0.62149 0.66553 0.0
C206 C 0.8374 0.9807 0.11878 0.0
C207 C 0.83887 0.02381 0.13941 0.0
C208 C 0.84766 0.94077 0.14785 0.0
C209 C 0.8599 0.94256 0.19856 0.0
H210 H 0.83088 0.97809 0.07901 0.0
H211 H 0.84863 0.90853 0.1298 0.0
S212 S 0.86517 0.04638 0.27146 0.0
N213 N 0.8502 0.06579 0.21431 0.0
N214 N 0.86978 0.99016 0.26943 0.0
C215 C 0.85845 0.98495 0.22072 0.0
C216 C 0.8478 0.02584 0.19096 0.0
C217 C 0.44363 0.36943 0.66924 0.0
C218 C 0.44445 0.33545 0.63395 0.0
C219 C 0.47767 0.37271 0.70473 0.0
C220 C 0.51376 0.34208 0.70638 0.0
H221 H 0.41797 0.3955 0.66751 0.0
H222 H 0.47747 0.40143 0.72862 0.0
S223 S 0.52922 0.24356 0.62696 0.0
N224 N 0.48218 0.26747 0.60668 0.0
N225 N 0.54645 0.27417 0.67336 0.0
C226 C 0.51313 0.30556 0.67449 0.0
C227 C 0.47835 0.30209 0.63825 0.0
C228 C 0.64866 0.53221 0.39413 0.0
C229 C 0.67837 0.53684 0.43441 0.0
C230 C 0.64799 0.49253 0.36731 0.0
C231 C 0.67675 0.45562 0.37993 0.0
H232 H 0.62353 0.55803 0.38545 0.0
H233 H 0.62215 0.48905 0.33934 0.0
S234 S 0.76659 0.45357 0.47537 0.0
N235 N 0.7423 0.50384 0.48001 0.0
N236 N 0.73985 0.42851 0.43026 0.0
C237 C 0.70972 0.46155 0.41633 0.0
C238 C 0.71081 0.50236 0.44348 0.0
C239 C 0.93891 0.15987 0.87277 0.0
C240 C 0.94075 0.1908 0.91101 0.0
C241 C 0.97422 0.15633 0.83898 0.0
C242 C 0.01268 0.18336 0.8428 0.0
H243 H 0.91194 0.13533 0.87197 0.0
H244 H 0.97332 0.12926 0.81293 0.0
S245 S 0.03129 0.27335 0.93257 0.0
N246 N 0.98158 0.25228 0.94756 0.0
N247 N 0.04857 0.2454 0.88407 0.0
C248 C 0.01303 0.21754 0.87763 0.0
C249 C 0.97682 0.22128 0.91193 0.0
C250 C 0.38664 0.47926 0.36152 0.0
C251 C 0.34783 0.47391 0.3911 0.0
C252 C 0.39637 0.52067 0.33468 0.0
C253 C 0.36748 0.55832 0.3359 0.0
H254 H 0.41116 0.45213 0.36148 0.0
H255 H 0.42796 0.52409 0.31506 0.0
S256 S 0.25867 0.56074 0.40151 0.0
N257 N 0.27796 0.50857 0.41546 0.0
N258 N 0.29637 0.58661 0.36452 0.0
C259 C 0.32674 0.55243 0.36155 0.0
C260 C 0.31681 0.5101 0.3892 0.0
C261 C 0.97641 0.82562 0.96496 0.0
C262 C 0.01485 0.82822 0.93471 0.0
C263 C 0.93389 0.83002 0.94381 0.0
C264 C 0.92818 0.83745 0.89159 0.0
H265 H 0.97934 0.82288 0.00561 0.0
H266 H 0.90535 0.83054 0.96873 0.0
S267 S 0.01784 0.84291 0.79566 0.0
N268 N 0.04459 0.835 0.84979 0.0
N269 N 0.96417 0.84378 0.80969 0.0
C270 C 0.96608 0.83686 0.86055 0.0
C271 C 0.00964 0.83211 0.88223 0.0
C272 C 0.78963 0.99853 0.96492 0.0
C273 C 0.8081 0.0393 0.94299 0.0
C274 C 0.79182 0.95752 0.94014 0.0
C275 C 0.81167 0.95641 0.89242 0.0
H276 H 0.77716 0.99728 0.00316 0.0
H277 H 0.78096 0.92597 0.95988 0.0
S278 S 0.85789 0.05504 0.81566 0.0
N279 N 0.84152 0.07701 0.86832 0.0
N280 N 0.84534 0.99994 0.82186 0.0
C281 C 0.82631 0.9976 0.86827 0.0
C282 C 0.82445 0.03915 0.89351 0.0
C283 C 0.48327 0.36131 0.38927 0.0
C284 C 0.47574 0.32725 0.42768 0.0
C285 C 0.52487 0.36593 0.36606 0.0
C286 C 0.56036 0.33686 0.38102 0.0
H287 H 0.45765 0.38631 0.37934 0.0
H288 H 0.53024 0.39438 0.33868 0.0
S289 S 0.55625 0.23999 0.47731 0.0
N290 N 0.50547 0.26188 0.47731 0.0
N291 N 0.58445 0.27076 0.43389 0.0
C292 C 0.55233 0.30053 0.41687 0.0
C293 C 0.5097 0.29573 0.44034 0.0
C294 C 0.17425 0.01642 0.90048 0.0
C295 C 0.14529 0.97856 0.89952 0.0
C296 C 0.16486 0.05742 0.87204 0.0
C297 C 0.1264 0.06149 0.84189 0.0
H298 H 0.20243 0.01555 0.92596 0.0
H299 H 0.18609 0.08694 0.87624 0.0
S300 S 0.04457 0.96999 0.81962 0.0
N301 N 0.08012 0.94596 0.86055 0.0
N302 N 0.06258 0.02294 0.80773 0.0
C303 C 0.09946 0.02276 0.83742 0.0
C304 C 0.10893 0.98124 0.86605 0.0
C305 C 0.50459 0.70816 0.43177 0.0
C306 C 0.54697 0.68968 0.42344 0.0
C307 C 0.4704 0.70465 0.39626 0.0
C308 C 0.47762 0.6822 0.35176 0.0
H309 H 0.49684 0.72192 0.46764 0.0
H310 H 0.43718 0.71593 0.40563 0.0
S311 S 0.58378 0.6321 0.31058 0.0
N312 N 0.59541 0.65186 0.36596 0.0
N313 N 0.53087 0.64469 0.29944 0.0
C314 C 0.52067 0.66665 0.34147 0.0
C315 C 0.55549 0.67052 0.37739 0.0
C316 C 0.32591 0.4626 0.641 0.0
C317 C 0.30239 0.46587 0.59532 0.0
C318 C 0.32942 0.50027 0.67082 0.0
C319 C 0.30941 0.54238 0.65588 0.0
H320 H 0.34484 0.43197 0.65155 0.0
H321 H 0.35092 0.49762 0.70358 0.0
S322 S 0.24034 0.56695 0.54221 0.0
N323 N 0.25572 0.51295 0.53861 0.0
N324 N 0.26197 0.58399 0.59504 0.0
C325 C 0.2826 0.54487 0.61258 0.0
C326 C 0.27921 0.50647 0.58207 0.0
C327 C 0.01246 0.79777 0.12459 0.0
C328 C 0.05229 0.82208 0.13144 0.0
C329 C 0.97674 0.80099 0.15828 0.0
C330 C 0.98022 0.82794 0.20006 0.0
H331 H 0.00727 0.77972 0.09071 0.0
H332 H 0.94512 0.78551 0.14935 0.0
S333 S 0.08 0.89087 0.2397 0.0
N334 N 0.09523 0.86823 0.18699 0.0
N335 N 0.02799 0.87427 0.25006 0.0
C336 C 0.02124 0.84841 0.21001 0.0
C337 C 0.05743 0.84535 0.17577 0.0
C338 C 0.64477 0.5306 0.68848 0.0
C339 C 0.66439 0.52443 0.64146 0.0
C340 C 0.63263 0.49266 0.72037 0.0
C341 C 0.64055 0.44792 0.7061 0.0
H342 H 0.63547 0.56461 0.69873 0.0
H343 H 0.61437 0.49819 0.75458 0.0
S344 S 0.69454 0.41429 0.58894 0.0
N345 N 0.69369 0.47089 0.58368 0.0
N346 N 0.67199 0.39957 0.6442 0.0
C347 C 0.66313 0.44162 0.66097 0.0
C348 C 0.67483 0.48001 0.62838 0.0
C349 C 0.99171 0.12683 0.15071 0.0
C350 C 0.98152 0.16313 0.11543 0.0
C351 C 0.03367 0.12333 0.17334 0.0
C352 C 0.06703 0.156 0.16164 0.0
H353 H 0.96774 0.09972 0.15932 0.0
H354 H 0.04087 0.09354 0.19825 0.0
S355 S 0.05614 0.26017 0.07613 0.0
N356 N 0.00708 0.23475 0.07343 0.0
N357 N 0.08636 0.22768 0.11599 0.0
C358 C 0.05645 0.19422 0.12939 0.0
C359 C 0.01353 0.19792 0.10627 0.0
C360 C 0.2807 0.76901 0.10131 0.0
C361 C 0.23409 0.77392 0.10344 0.0
C362 C 0.30436 0.74699 0.14155 0.0
C363 C 0.28209 0.72946 0.1852 0.0
H364 H 0.29887 0.78135 0.06802 0.0
H365 H 0.34008 0.74302 0.13802 0.0
S366 S 0.16126 0.73836 0.21199 0.0
N367 N 0.1673 0.76286 0.15493 0.0
N368 N 0.21162 0.72132 0.2296 0.0
C369 C 0.23586 0.73551 0.18836 0.0
C370 C 0.21189 0.75782 0.14777 0.0
C371 C 0.75573 0.69733 0.67876 0.0
C372 C 0.71677 0.71818 0.65873 0.0
C373 C 0.77966 0.71652 0.71741 0.0
C374 C 0.76607 0.75769 0.73724 0.0
H375 H 0.76813 0.66593 0.66423 0.0
H376 H 0.80967 0.69938 0.73121 0.0
S377 S 0.66528 0.82516 0.69967 0.0
N378 N 0.66468 0.78155 0.66306 0.0
N379 N 0.70999 0.81797 0.73547 0.0
C380 C 0.72666 0.77858 0.71843 0.0
C381 C 0.7019 0.75868 0.67931 0.0
C382 C 0.75354 0.22779 0.17873 0.0
C383 C 0.79841 0.2306 0.16341 0.0
C384 C 0.73733 0.25392 0.21719 0.0
C385 C 0.76532 0.284 0.24201 0.0
H386 H 0.73033 0.20594 0.16021 0.0
H387 H 0.70232 0.25097 0.22675 0.0
S388 S 0.88609 0.30191 0.2193 0.0
N389 N 0.87124 0.26431 0.17859 0.0
N390 N 0.84033 0.31353 0.2505 0.0
C391 C 0.81042 0.28627 0.22825 0.0
C392 C 0.82709 0.25956 0.18915 0.0
C393 C 0.21703 0.28313 0.61275 0.0
C394 C 0.25664 0.26518 0.59377 0.0
C395 C 0.1894 0.25615 0.64523 0.0
C396 C 0.20011 0.21014 0.6586 0.0
H397 H 0.20779 0.31841 0.60316 0.0
H398 H 0.15937 0.2713 0.65949 0.0
S399 S 0.29885 0.14643 0.61692 0.0
N400 N 0.30456 0.19837 0.58972 0.0
N401 N 0.25212 0.14757 0.64955 0.0
C402 C 0.23908 0.19166 0.63902 0.0
C403 C 0.26754 0.21922 0.60691 0.0
C404 C 0.73749 0.78495 0.45136 0.0
C405 C 0.73906 0.73689 0.45002 0.0
C406 C 0.76555 0.81317 0.42103 0.0
C407 C 0.7963 0.79461 0.38811 0.0
H408 H 0.71473 0.80111 0.47642 0.0
H409 H 0.76323 0.84995 0.42355 0.0
S410 S 0.81245 0.67103 0.36818 0.0
N411 N 0.77311 0.672 0.41141 0.0
N412 N 0.82585 0.72513 0.35457 0.0
C413 C 0.79796 0.74667 0.38569 0.0
C414 C 0.76932 0.71783 0.41659 0.0
C415 C 0.77595 0.27404 0.9252 0.0
C416 C 0.75647 0.2365 0.95252 0.0
C417 C 0.75337 0.29697 0.88525 0.0
C418 C 0.7102 0.28385 0.87167 0.0
H419 H 0.80948 0.28499 0.93368 0.0
H420 H 0.76999 0.3252 0.86464 0.0
S421 S 0.64352 0.18897 0.93251 0.0
N422 N 0.69096 0.18781 0.96401 0.0
N423 N 0.64815 0.23166 0.88926 0.0
C424 C 0.68973 0.24713 0.89934 0.0
C425 C 0.71302 0.22324 0.93968 0.0
C426 C 0.25731 0.2834 0.35785 0.0
C427 C 0.29504 0.27114 0.38702 0.0
C428 C 0.24324 0.2566 0.31876 0.0
C429 C 0.26677 0.21691 0.30704 0.0
H430 H 0.23777 0.31317 0.36613 0.0
H431 H 0.21346 0.26688 0.29806 0.0
S432 S 0.36998 0.17238 0.36897 0.0
N433 N 0.3572 0.21817 0.39934 0.0
N434 N 0.33096 0.16828 0.32573 0.0
C435 C 0.30541 0.20531 0.33467 0.0
C436 C 0.31947 0.23224 0.37469 0.0
C437 C 0.21656 0.7396 0.87918 0.0
C438 C 0.21747 0.7874 0.88375 0.0
C439 C 0.24038 0.71911 0.84095 0.0
C440 C 0.26615 0.74561 0.80582 0.0
H441 H 0.19813 0.71758 0.906 0.0
H442 H 0.23926 0.68217 0.8397 0.0
S443 S 0.27721 0.87217 0.79814 0.0
N444 N 0.24446 0.86078 0.84712 0.0
N445 N 0.28935 0.82206 0.77622 0.0
C446 C 0.26639 0.79336 0.80897 0.0
C447 C 0.24203 0.8143 0.84757 0.0
loop_
_geom_bond_atom_site_label_1
_geom_bond_atom_site_label_2
_geom_bond_distance
_geom_bond_site_symmetry_2
_ccdc_geom_bond_type
Fe0 O2 1.918 . S
Fe0 O5 1.997 1_556 S
Fe0 O6 2.002 1_556 S
Fe0 O11 1.976 . S
Fe0 O14 1.996 . S
Fe1 O2 1.918 1_554 S
Fe1 O9 1.997 . S
Fe1 O12 1.996 1_554 S
Fe1 O16 1.976 1_554 S
Fe1 O19 2.002 . S
O2 Fe0 1.918 . S
O2 Fe1 1.918 1_556 S
O2 Fe3 1.918 1_556 S
Fe3 O2 1.918 1_554 S
Fe3 O4 2.002 . S
Fe3 O13 1.976 1_554 S
Fe3 O17 1.996 1_554 S
Fe3 O20 1.997 . S
O4 Fe3 2.002 . S
O4 C21 1.295 . S
O5 Fe0 1.997 1_554 S
O5 C21 1.235 . S
O6 Fe0 2.002 1_554 S
O6 C7 1.295 . S
C7 O6 1.295 . S
C7 O9 1.235 . S
C8 O13 1.287 . S
C8 O14 1.255 . S
O9 Fe1 1.997 . S
O9 C7 1.235 . S
C10 O16 1.287 . S
C10 O17 1.255 . S
O11 Fe0 1.976 . S
O11 C18 1.287 . S
O12 Fe1 1.996 1_556 S
O12 C18 1.255 . S
O13 Fe3 1.976 1_556 S
O13 C8 1.287 . S
O14 Fe0 1.996 . S
O14 C8 1.255 . S
C15 O19 1.295 . S
C15 O20 1.235 . S
O16 Fe1 1.976 1_556 S
O16 C10 1.287 . S
O17 Fe3 1.996 1_556 S
O17 C10 1.255 . S
C18 O11 1.287 . S
C18 O12 1.255 . S
O19 Fe1 2.002 . S
O19 C15 1.295 . S
O20 Fe3 1.997 . S
O20 C15 1.235 . S
C21 O4 1.295 . S
C21 O5 1.235 . S
Fe22 O24 1.918 . S
Fe22 O27 1.997 . S
Fe22 O28 2.002 . S
Fe22 O33 1.976 . S
Fe22 O36 1.996 . S
Fe23 O24 1.918 . S
Fe23 O31 1.997 . S
Fe23 O34 1.996 . S
Fe23 O38 1.976 . S
Fe23 O41 2.002 . S
O24 Fe22 1.918 . S
O24 Fe23 1.918 . S
O24 Fe25 1.918 . S
Fe25 O24 1.918 . S
Fe25 O26 2.002 . S
Fe25 O35 1.976 . S
Fe25 O39 1.996 . S
Fe25 O42 1.997 . S
O26 Fe25 2.002 . S
O26 C43 1.295 . S
O27 Fe22 1.997 . S
O27 C43 1.235 . S
O28 Fe22 2.002 . S
O28 C29 1.295 . S
C29 O28 1.295 . S
C29 O31 1.235 . S
C30 O35 1.287 . S
C30 O36 1.255 . S
O31 Fe23 1.997 . S
O31 C29 1.235 . S
C32 O38 1.287 . S
C32 O39 1.255 . S
O33 Fe22 1.976 . S
O33 C40 1.287 . S
O34 Fe23 1.996 . S
O34 C40 1.255 . S
O35 Fe25 1.976 . S
O35 C30 1.287 . S
O36 Fe22 1.996 . S
O36 C30 1.255 . S
C37 O41 1.295 . S
C37 O42 1.235 . S
O38 Fe23 1.976 . S
O38 C32 1.287 . S
O39 Fe25 1.996 . S
O39 C32 1.255 . S
C40 O33 1.287 . S
C40 O34 1.255 . S
O41 Fe23 2.002 . S
O41 C37 1.295 . S
O42 Fe25 1.997 . S
O42 C37 1.235 . S
C43 O26 1.295 . S
C43 O27 1.235 . S
Fe44 O46 1.918 . S
Fe44 O49 1.997 1_554 S
Fe44 O50 2.002 1_554 S
Fe44 O55 1.976 . S
Fe44 O58 1.996 . S
Fe45 O46 1.918 . S
Fe45 O53 1.997 1_554 S
Fe45 O56 1.996 . S
Fe45 O60 1.976 . S
Fe45 O63 2.002 1_554 S
O46 Fe44 1.918 . S
O46 Fe45 1.918 . S
O46 Fe47 1.918 . S
Fe47 O46 1.918 . S
Fe47 O48 2.002 . S
Fe47 O57 1.976 . S
Fe47 O61 1.996 . S
Fe47 O64 1.997 . S
O48 Fe47 2.002 . S
O48 C65 1.295 1_554 S
O49 Fe44 1.997 1_556 S
O49 C65 1.235 . S
O50 Fe44 2.002 1_556 S
O50 C51 1.295 . S
C51 O50 1.295 . S
C51 O53 1.235 . S
C52 O57 1.287 . S
C52 O58 1.255 . S
O53 Fe45 1.997 1_556 S
O53 C51 1.235 . S
C54 O60 1.287 . S
C54 O61 1.255 . S
O55 Fe44 1.976 . S
O55 C62 1.287 . S
O56 Fe45 1.996 . S
O56 C62 1.255 . S
O57 Fe47 1.976 . S
O57 C52 1.287 . S
O58 Fe44 1.996 . S
O58 C52 1.255 . S
C59 O63 1.295 . S
C59 O64 1.235 1_556 S
O60 Fe45 1.976 . S
O60 C54 1.287 . S
O61 Fe47 1.996 . S
O61 C54 1.255 . S
C62 O55 1.287 . S
C62 O56 1.255 . S
O63 Fe45 2.002 1_556 S
O63 C59 1.295 . S
O64 Fe47 1.997 . S
O64 C59 1.235 1_554 S
C65 O48 1.295 1_556 S
C65 O49 1.235 . S
Fe66 O68 1.918 . S
Fe66 O71 1.997 . S
Fe66 O72 2.002 . S
Fe66 O77 1.976 . S
Fe66 O80 1.996 . S
Fe67 O68 1.918 . S
Fe67 O75 1.997 . S
Fe67 O78 1.996 . S
Fe67 O82 1.976 . S
Fe67 O85 2.002 . S
O68 Fe66 1.918 . S
O68 Fe67 1.918 . S
O68 Fe69 1.918 . S
Fe69 O68 1.918 . S
Fe69 O70 2.002 . S
Fe69 O79 1.976 . S
Fe69 O83 1.996 . S
Fe69 O86 1.997 . S
O70 Fe69 2.002 . S
O70 C87 1.295 . S
O71 Fe66 1.997 . S
O71 C87 1.235 . S
O72 Fe66 2.002 . S
O72 C73 1.295 . S
C73 O72 1.295 . S
C73 O75 1.235 . S
C74 O79 1.287 . S
C74 O80 1.255 . S
O75 Fe67 1.997 . S
O75 C73 1.235 . S
C76 O82 1.287 . S
C76 O83 1.255 . S
O77 Fe66 1.976 . S
O77 C84 1.287 . S
O78 Fe67 1.996 . S
O78 C84 1.255 . S
O79 Fe69 1.976 . S
O79 C74 1.287 . S
O80 Fe66 1.996 . S
O80 C74 1.255 . S
C81 O85 1.295 . S
C81 O86 1.235 . S
O82 Fe67 1.976 . S
O82 C76 1.287 . S
O83 Fe69 1.996 . S
O83 C76 1.255 . S
C84 O77 1.287 . S
C84 O78 1.255 . S
O85 Fe67 2.002 . S
O85 C81 1.295 . S
O86 Fe69 1.997 . S
O86 C81 1.235 . S
C87 O70 1.295 . S
C87 O71 1.235 . S
H88 C93 0.930 . S
H89 C96 0.930 . S
H90 C98 0.930 . S
H91 C92 1.016 . S
C92 H91 1.016 . S
C92 N99 1.286 . S
C93 H88 0.930 . S
C93 C94 1.397 . S
C93 C95 1.361 . S
C94 C93 1.397 . S
C94 C98 1.390 . S
C95 C93 1.361 . S
C95 C96 1.393 . S
C95 N99 1.413 . S
C96 H89 0.930 . S
C96 C95 1.393 . S
C96 C97 1.399 . S
C97 C96 1.399 . S
C97 C98 1.381 . S
C98 H90 0.930 . S
C98 C94 1.390 . S
C98 C97 1.381 . S
N99 C92 1.286 . S
N99 C95 1.413 . S
H100 C105 0.930 . S
H101 C108 0.930 . S
H102 C110 0.930 . S
H103 C104 1.016 . S
C104 H103 1.016 . S
C104 N111 1.286 . S
C105 H100 0.930 . S
C105 C106 1.397 . S
C105 C107 1.361 . S
C106 C105 1.397 . S
C106 C110 1.390 . S
C107 C105 1.361 . S
C107 C108 1.393 . S
C107 N111 1.413 . S
C108 H101 0.930 . S
C108 C107 1.393 . S
C108 C109 1.399 . S
C109 C108 1.399 . S
C109 C110 1.381 . S
C110 H102 0.930 . S
C110 C106 1.390 . S
C110 C109 1.381 . S
N111 C104 1.286 . S
N111 C107 1.413 . S
H112 C117 0.930 . S
H113 C120 0.930 . S
H114 C122 0.930 . S
H115 C116 1.016 . S
C116 H115 1.016 . S
C116 N123 1.286 . S
C117 H112 0.930 . S
C117 C118 1.397 . S
C117 C119 1.361 . S
C118 C117 1.397 . S
C118 C122 1.390 . S
C119 C117 1.361 . S
C119 C120 1.393 . S
C119 N123 1.413 . S
C120 H113 0.930 . S
C120 C119 1.393 . S
C120 C121 1.399 . S
C121 C120 1.399 . S
C121 C122 1.381 . S
C122 H114 0.930 . S
C122 C118 1.390 . S
C122 C121 1.381 . S
N123 C116 1.286 . S
N123 C119 1.413 . S
H124 C129 0.930 . S
H125 C132 0.930 . S
H126 C134 0.930 . S
H127 C128 1.016 . S
C128 H127 1.016 . S
C128 N135 1.286 . S
C129 H124 0.930 . S
C129 C130 1.397 . S
C129 C131 1.361 . S
C130 C129 1.397 . S
C130 C134 1.390 . S
C131 C129 1.361 . S
C131 C132 1.393 . S
C131 N135 1.413 . S
C132 H125 0.930 . S
C132 C131 1.393 . S
C132 C133 1.399 . S
C133 C132 1.399 . S
C133 C134 1.381 . S
C134 H126 0.930 . S
C134 C130 1.390 . S
C134 C133 1.381 . S
N135 C128 1.286 . S
N135 C131 1.413 . S
H136 C141 0.930 . S
H137 C144 0.930 . S
H138 C146 0.930 . S
H139 C140 1.016 . S
C140 H139 1.016 . S
C140 N147 1.286 . S
C141 H136 0.930 . S
C141 C142 1.397 . S
C141 C143 1.361 . S
C142 C141 1.397 . S
C142 C146 1.390 . S
C143 C141 1.361 . S
C143 C144 1.393 . S
C143 N147 1.413 . S
C144 H137 0.930 . S
C144 C143 1.393 . S
C144 C145 1.399 . S
C145 C144 1.399 . S
C145 C146 1.381 . S
C146 H138 0.930 . S
C146 C142 1.390 . S
C146 C145 1.381 . S
N147 C140 1.286 . S
N147 C143 1.413 . S
H148 C153 0.930 . S
H149 C156 0.930 . S
H150 C158 0.930 . S
H151 C152 1.016 . S
C152 H151 1.016 . S
C152 N159 1.286 . S
C153 H148 0.930 . S
C153 C154 1.397 . S
C153 C155 1.361 . S
C154 C153 1.397 . S
C154 C158 1.390 . S
C155 C153 1.361 . S
C155 C156 1.393 . S
C155 N159 1.413 . S
C156 H149 0.930 . S
C156 C155 1.393 . S
C156 C157 1.399 . S
C157 C156 1.399 . S
C157 C158 1.381 . S
C158 H150 0.930 . S
C158 C154 1.390 . S
C158 C157 1.381 . S
N159 C152 1.286 . S
N159 C155 1.413 . S
H160 C165 0.930 . S
H161 C168 0.930 . S
H162 C170 0.930 . S
H163 C164 1.016 . S
C164 H163 1.016 . S
C164 N171 1.286 . S
C165 H160 0.930 . S
C165 C166 1.397 . S
C165 C167 1.361 . S
C166 C165 1.397 . S
C166 C170 1.390 . S
C167 C165 1.361 . S
C167 C168 1.393 . S
C167 N171 1.413 . S
C168 H161 0.930 . S
C168 C167 1.393 . S
C168 C169 1.399 . S
C169 C168 1.399 . S
C169 C170 1.381 . S
C170 H162 0.930 . S
C170 C166 1.390 . S
C170 C169 1.381 . S
N171 C164 1.286 . S
N171 C167 1.413 . S
H172 C177 0.930 . S
H173 C180 0.930 . S
H174 C182 0.930 . S
H175 C176 1.016 . S
C176 H175 1.016 . S
C176 N183 1.286 . S
C177 H172 0.930 . S
C177 C178 1.397 . S
C177 C179 1.361 . S
C178 C177 1.397 . S
C178 C182 1.390 . S
C179 C177 1.361 . S
C179 C180 1.393 . S
C179 N183 1.413 . S
C180 H173 0.930 . S
C180 C179 1.393 . S
C180 C181 1.399 . S
C181 C180 1.399 . S
C181 C182 1.381 . S
C182 H174 0.930 . S
C182 C178 1.390 . S
C182 C181 1.381 . S
N183 C176 1.286 . S
N183 C179 1.413 . S
C184 C185 1.369 . S
C184 C186 1.419 . S
C184 H188 0.930 . S
C185 C184 1.369 . S
C185 C194 1.429 . S
C186 C184 1.419 . S
C186 C187 1.363 . S
C186 H189 0.929 . S
C187 C186 1.363 . S
C187 C193 1.428 . S
H188 C184 0.930 . S
H189 C186 0.929 . S
S190 N191 1.613 1_545 S
S190 N192 1.610 . S
N191 S190 1.613 1_565 S
N191 C194 1.350 1_565 S
N192 S190 1.610 . S
N192 C193 1.351 . S
C193 C187 1.428 . S
C193 N192 1.351 . S
C193 C194 1.434 . S
C194 C185 1.429 . S
C194 N191 1.350 1_545 S
C194 C193 1.434 . S
C195 C196 1.369 . S
C195 C197 1.419 . S
C195 H199 0.930 . S
C196 C195 1.369 . S
C196 C205 1.429 . S
C197 C195 1.419 . S
C197 C198 1.363 . S
C197 H200 0.929 . S
C198 C197 1.363 . S
C198 C204 1.428 . S
H199 C195 0.930 . S
H200 C197 0.929 . S
S201 N202 1.613 . S
S201 N203 1.610 . S
N202 S201 1.613 . S
N202 C205 1.350 . S
N203 S201 1.610 . S
N203 C204 1.351 . S
C204 C198 1.428 . S
C204 N203 1.351 . S
C204 C205 1.434 . S
C205 C196 1.429 . S
C205 N202 1.350 . S
C205 C204 1.434 . S
C206 C207 1.369 1_565 S
C206 C208 1.419 . S
C206 H210 0.930 . S
C207 C206 1.369 1_545 S
C207 C216 1.428 1_545 S
C208 C206 1.419 . S
C208 C209 1.363 . S
C208 H211 0.929 . S
C209 C208 1.363 . S
C209 C215 1.428 . S
H210 C206 0.930 . S
H211 C208 0.929 . S
S212 N213 1.613 . S
S212 N214 1.610 1_545 S
N213 S212 1.613 . S
N213 C216 1.340 1_545 S
N214 S212 1.610 1_565 S
N214 C215 1.351 . S
C215 C209 1.428 . S
C215 N214 1.351 . S
C215 C216 1.445 . S
C216 C207 1.428 1_565 S
C216 N213 1.340 1_565 S
C216 C215 1.445 . S
C217 C218 1.369 . S
C217 C219 1.419 . S
C217 H221 0.930 . S
C218 C217 1.369 . S
C218 C227 1.429 . S
C219 C217 1.419 . S
C219 C220 1.363 . S
C219 H222 0.929 . S
C220 C219 1.363 . S
C220 C226 1.428 . S
H221 C217 0.930 . S
H222 C219 0.929 . S
S223 N224 1.613 . S
S223 N225 1.610 . S
N224 S223 1.613 . S
N224 C227 1.350 . S
N225 S223 1.610 . S
N225 C226 1.351 . S
C226 C220 1.428 . S
C226 N225 1.351 . S
C226 C227 1.434 . S
C227 C218 1.429 . S
C227 N224 1.350 . S
C227 C226 1.434 . S
C228 C229 1.369 . S
C228 C230 1.419 . S
C228 H232 0.930 . S
C229 C228 1.369 . S
C229 C238 1.429 . S
C230 C228 1.419 . S
C230 C231 1.363 . S
C230 H233 0.929 . S
C231 C230 1.363 . S
C231 C237 1.428 . S
H232 C228 0.930 . S
H233 C230 0.929 . S
S234 N235 1.613 . S
S234 N236 1.610 . S
N235 S234 1.613 . S
N235 C238 1.350 . S
N236 S234 1.610 . S
N236 C237 1.351 . S
C237 C231 1.428 . S
C237 N236 1.351 . S
C237 C238 1.434 . S
C238 C229 1.429 . S
C238 N235 1.350 . S
C238 C237 1.434 . S
C239 C240 1.369 . S
C239 C241 1.419 . S
C239 H243 0.930 . S
C240 C239 1.369 . S
C240 C249 1.429 . S
C241 C239 1.419 . S
C241 C242 1.363 1_655 S
C241 H244 0.929 . S
C242 C241 1.363 1_455 S
C242 C248 1.430 . S
H243 C239 0.930 . S
H244 C241 0.929 . S
S245 N246 1.613 . S
S245 N247 1.610 1_655 S
N246 S245 1.613 . S
N246 C249 1.350 . S
N247 S245 1.610 1_455 S
N247 C248 1.353 . S
C248 C242 1.430 . S
C248 N247 1.353 . S
C248 C249 1.430 1_455 S
C249 C240 1.429 . S
C249 N246 1.350 . S
C249 C248 1.430 1_655 S
C250 C251 1.369 . S
C250 C252 1.419 . S
C250 H254 0.930 . S
C251 C250 1.369 . S
C251 C260 1.429 . S
C252 C250 1.419 . S
C252 C253 1.363 . S
C252 H255 0.929 . S
C253 C252 1.363 . S
C253 C259 1.428 . S
H254 C250 0.930 . S
H255 C252 0.929 . S
S256 N257 1.613 . S
S256 N258 1.610 . S
N257 S256 1.613 . S
N257 C260 1.350 . S
N258 S256 1.610 . S
N258 C259 1.351 . S
C259 C253 1.428 . S
C259 N258 1.351 . S
C259 C260 1.434 . S
C260 C251 1.429 . S
C260 N257 1.350 . S
C260 C259 1.434 . S
C261 C262 1.369 . S
C261 C263 1.419 . S
C261 H265 0.930 . S
C262 C261 1.369 . S
C262 C271 1.429 . S
C263 C261 1.419 . S
C263 C264 1.363 . S
C263 H266 0.929 . S
C264 C263 1.363 . S
C264 C270 1.428 . S
H265 C261 0.930 . S
H266 C263 0.929 . S
S267 N268 1.599 1_655 S
S267 N269 1.610 . S
N268 S267 1.599 1_455 S
N268 C271 1.339 1_455 S
N269 S267 1.610 . S
N269 C270 1.351 . S
C270 C264 1.428 . S
C270 N269 1.351 . S
C270 C271 1.434 . S
C271 C262 1.429 . S
C271 N268 1.339 1_655 S
C271 C270 1.434 . S
C272 C273 1.369 1_565 S
C272 C274 1.419 . S
C272 H276 0.930 . S
C273 C272 1.369 1_545 S
C273 C282 1.430 . S
C274 C272 1.419 . S
C274 C275 1.363 . S
C274 H277 0.929 . S
C275 C274 1.363 . S
C275 C281 1.428 . S
H276 C272 0.930 . S
H277 C274 0.929 . S
S278 N279 1.613 . S
S278 N280 1.610 1_545 S
N279 S278 1.613 . S
N279 C282 1.361 . S
N280 S278 1.610 1_565 S
N280 C281 1.351 . S
C281 C275 1.428 . S
C281 N280 1.351 . S
C281 C282 1.420 1_565 S
C282 C273 1.430 . S
C282 N279 1.361 . S
C282 C281 1.420 1_545 S
C283 C284 1.369 . S
C283 C285 1.419 . S
C283 H287 0.930 . S
C284 C283 1.369 . S
C284 C293 1.429 . S
C285 C283 1.419 . S
C285 C286 1.363 . S
C285 H288 0.929 . S
C286 C285 1.363 . S
C286 C292 1.428 . S
H287 C283 0.930 . S
H288 C285 0.929 . S
S289 N290 1.613 . S
S289 N291 1.610 . S
N290 S289 1.613 . S
N290 C293 1.350 . S
N291 S289 1.610 . S
N291 C292 1.351 . S
C292 C286 1.428 . S
C292 N291 1.351 . S
C292 C293 1.434 . S
C293 C284 1.429 . S
C293 N290 1.350 . S
C293 C292 1.434 . S
C294 C295 1.369 1_545 S
C294 C296 1.419 . S
C294 H298 0.930 . S
C295 C294 1.369 1_565 S
C295 C304 1.429 . S
C296 C294 1.419 . S
C296 C297 1.363 . S
C296 H299 0.929 . S
C297 C296 1.363 . S
C297 C303 1.428 . S
H298 C294 0.930 . S
H299 C296 0.929 . S
S300 N301 1.613 . S
S300 N302 1.610 1_565 S
N301 S300 1.613 . S
N301 C304 1.350 . S
N302 S300 1.610 1_545 S
N302 C303 1.351 . S
C303 C297 1.428 . S
C303 N302 1.351 . S
C303 C304 1.434 1_545 S
C304 C295 1.429 . S
C304 N301 1.350 . S
C304 C303 1.434 1_565 S
C305 C306 1.369 . S
C305 C307 1.419 . S
C305 H309 0.930 . S
C306 C305 1.369 . S
C306 C315 1.429 . S
C307 C305 1.419 . S
C307 C308 1.363 . S
C307 H310 0.929 . S
C308 C307 1.363 . S
C308 C314 1.428 . S
H309 C305 0.930 . S
H310 C307 0.929 . S
S311 N312 1.613 . S
S311 N313 1.610 . S
N312 S311 1.613 . S
N312 C315 1.350 . S
N313 S311 1.610 . S
N313 C314 1.351 . S
C314 C308 1.428 . S
C314 N313 1.351 . S
C314 C315 1.434 . S
C315 C306 1.429 . S
C315 N312 1.350 . S
C315 C314 1.434 . S
C316 C317 1.369 . S
C316 C318 1.419 . S
C316 H320 0.930 . S
C317 C316 1.369 . S
C317 C326 1.429 . S
C318 C316 1.419 . S
C318 C319 1.363 . S
C318 H321 0.929 . S
C319 C318 1.363 . S
C319 C325 1.428 . S
H320 C316 0.930 . S
H321 C318 0.929 . S
S322 N323 1.613 . S
S322 N324 1.610 . S
N323 S322 1.613 . S
N323 C326 1.350 . S
N324 S322 1.610 . S
N324 C325 1.351 . S
C325 C319 1.428 . S
C325 N324 1.351 . S
C325 C326 1.434 . S
C326 C317 1.429 . S
C326 N323 1.350 . S
C326 C325 1.434 . S
C327 C328 1.369 . S
C327 C329 1.418 1_455 S
C327 H331 0.930 . S
C328 C327 1.369 . S
C328 C337 1.429 . S
C329 C327 1.418 1_655 S
C329 C330 1.363 . S
C329 H332 0.929 . S
C330 C329 1.363 . S
C330 C336 1.428 1_655 S
H331 C327 0.930 . S
H332 C329 0.929 . S
S333 N334 1.613 . S
S333 N335 1.610 1_455 S
N334 S333 1.613 . S
N334 C337 1.350 . S
N335 S333 1.610 1_655 S
N335 C336 1.351 1_655 S
C336 C330 1.428 1_455 S
C336 N335 1.351 1_455 S
C336 C337 1.434 . S
C337 C328 1.429 . S
C337 N334 1.350 . S
C337 C336 1.434 . S
C338 C339 1.369 . S
C338 C340 1.419 . S
C338 H342 0.930 . S
C339 C338 1.369 . S
C339 C348 1.429 . S
C340 C338 1.419 . S
C340 C341 1.363 . S
C340 H343 0.929 . S
C341 C340 1.363 . S
C341 C347 1.428 . S
H342 C338 0.930 . S
H343 C340 0.929 . S
S344 N345 1.613 . S
S344 N346 1.610 . S
N345 S344 1.613 . S
N345 C348 1.350 . S
N346 S344 1.610 . S
N346 C347 1.351 . S
C347 C341 1.428 . S
C347 N346 1.351 . S
C347 C348 1.434 . S
C348 C339 1.429 . S
C348 N345 1.350 . S
C348 C347 1.434 . S
C349 C350 1.378 . S
C349 C351 1.419 . S
C349 H353 0.930 1_455 S
C350 C349 1.378 . S
C350 C359 1.447 . S
C351 C349 1.419 . S
C351 C352 1.363 . S
C351 H354 0.929 . S
C352 C351 1.363 . S
C352 C358 1.428 . S
H353 C349 0.930 1_655 S
H354 C351 0.929 . S
S355 N356 1.613 1_556 S
S355 N357 1.610 1_556 S
N356 S355 1.613 1_554 S
N356 C359 1.350 . S
N357 S355 1.610 1_554 S
N357 C358 1.351 . S
C358 C352 1.428 . S
C358 N357 1.351 . S
C358 C359 1.434 . S
C359 C350 1.447 . S
C359 N356 1.350 . S
C359 C358 1.434 . S
C360 C361 1.369 . S
C360 C362 1.419 . S
C360 H364 0.930 . S
C361 C360 1.369 . S
C361 C370 1.429 . S
C362 C360 1.419 . S
C362 C363 1.363 . S
C362 H365 0.929 . S
C363 C362 1.363 . S
C363 C369 1.428 . S
H364 C360 0.930 . S
H365 C362 0.929 . S
S366 N367 1.613 . S
S366 N368 1.610 . S
N367 S366 1.613 . S
N367 C370 1.350 . S
N368 S366 1.610 . S
N368 C369 1.351 . S
C369 C363 1.428 . S
C369 N368 1.351 . S
C369 C370 1.434 . S
C370 C361 1.429 . S
C370 N367 1.350 . S
C370 C369 1.434 . S
C371 C372 1.369 . S
C371 C373 1.419 . S
C371 H375 0.930 . S
C372 C371 1.369 . S
C372 C381 1.429 . S
C373 C371 1.419 . S
C373 C374 1.363 . S
C373 H376 0.929 . S
C374 C373 1.363 . S
C374 C380 1.428 . S
H375 C371 0.930 . S
H376 C373 0.929 . S
S377 N378 1.613 . S
S377 N379 1.610 . S
N378 S377 1.613 . S
N378 C381 1.350 . S
N379 S377 1.610 . S
N379 C380 1.351 . S
C380 C374 1.428 . S
C380 N379 1.351 . S
C380 C381 1.434 . S
C381 C372 1.429 . S
C381 N378 1.350 . S
C381 C380 1.434 . S
C382 C383 1.369 . S
C382 C384 1.419 . S
C382 H386 0.930 . S
C383 C382 1.369 . S
C383 C392 1.429 . S
C384 C382 1.419 . S
C384 C385 1.363 . S
C384 H387 0.929 . S
C385 C384 1.363 . S
C385 C391 1.428 . S
H386 C382 0.930 . S
H387 C384 0.929 . S
S388 N389 1.613 . S
S388 N390 1.610 . S
N389 S388 1.613 . S
N389 C392 1.350 . S
N390 S388 1.610 . S
N390 C391 1.351 . S
C391 C385 1.428 . S
C391 N390 1.351 . S
C391 C392 1.434 . S
C392 C383 1.429 . S
C392 N389 1.350 . S
C392 C391 1.434 . S
C393 C394 1.369 . S
C393 C395 1.419 . S
C393 H397 0.930 . S
C394 C393 1.369 . S
C394 C403 1.429 . S
C395 C393 1.419 . S
C395 C396 1.363 . S
C395 H398 0.929 . S
C396 C395 1.363 . S
C396 C402 1.428 . S
H397 C393 0.930 . S
H398 C395 0.929 . S
S399 N400 1.613 . S
S399 N401 1.610 . S
N400 S399 1.613 . S
N400 C403 1.350 . S
N401 S399 1.610 . S
N401 C402 1.351 . S
C402 C396 1.428 . S
C402 N401 1.351 . S
C402 C403 1.434 . S
C403 C394 1.429 . S
C403 N400 1.350 . S
C403 C402 1.434 . S
C404 C405 1.369 . S
C404 C406 1.419 . S
C404 H408 0.930 . S
C405 C404 1.369 . S
C405 C414 1.429 . S
C406 C404 1.419 . S
C406 C407 1.363 . S
C406 H409 0.929 . S
C407 C406 1.363 . S
C407 C413 1.428 . S
H408 C404 0.930 . S
H409 C406 0.929 . S
S410 N411 1.613 . S
S410 N412 1.610 . S
N411 S410 1.613 . S
N411 C414 1.350 . S
N412 S410 1.610 . S
N412 C413 1.351 . S
C413 C407 1.428 . S
C413 N412 1.351 . S
C413 C414 1.434 . S
C414 C405 1.429 . S
C414 N411 1.350 . S
C414 C413 1.434 . S
C415 C416 1.369 . S
C415 C417 1.419 . S
C415 H419 0.930 . S
C416 C415 1.369 . S
C416 C425 1.429 . S
C417 C415 1.419 . S
C417 C418 1.363 . S
C417 H420 0.929 . S
C418 C417 1.363 . S
C418 C424 1.428 . S
H419 C415 0.930 . S
H420 C417 0.929 . S
S421 N422 1.613 . S
S421 N423 1.610 . S
N422 S421 1.613 . S
N422 C425 1.350 . S
N423 S421 1.610 . S
N423 C424 1.351 . S
C424 C418 1.428 . S
C424 N423 1.351 . S
C424 C425 1.434 . S
C425 C416 1.429 . S
C425 N422 1.350 . S
C425 C424 1.434 . S
C426 C427 1.369 . S
C426 C428 1.419 . S
C426 H430 0.930 . S
C427 C426 1.369 . S
C427 C436 1.429 . S
C428 C426 1.419 . S
C428 C429 1.363 . S
C428 H431 0.929 . S
C429 C428 1.363 . S
C429 C435 1.428 . S
H430 C426 0.930 . S
H431 C428 0.929 . S
S432 N433 1.613 . S
S432 N434 1.610 . S
N433 S432 1.613 . S
N433 C436 1.350 . S
N434 S432 1.610 . S
N434 C435 1.351 . S
C435 C429 1.428 . S
C435 N434 1.351 . S
C435 C436 1.434 . S
C436 C427 1.429 . S
C436 N433 1.350 . S
C436 C435 1.434 . S
C437 C438 1.369 . S
C437 C439 1.419 . S
C437 H441 0.930 . S
C438 C437 1.369 . S
C438 C447 1.429 . S
C439 C437 1.419 . S
C439 C440 1.363 . S
C439 H442 0.929 . S
C440 C439 1.363 . S
C440 C446 1.428 . S
H441 C437 0.930 . S
H442 C439 0.929 . S
S443 N444 1.613 . S
S443 N445 1.610 . S
N444 S443 1.613 . S
N444 C447 1.350 . S
N445 S443 1.610 . S
N445 C446 1.351 . S
C446 C440 1.428 . S
C446 N445 1.351 . S
C446 C447 1.434 . S
C447 C438 1.429 . S
C447 N444 1.350 . S
C447 C446 1.434 . S
C185 C7 1.458 1_545 S
C187 C97 1.390 . S
C196 C37 1.477 . S
C198 C109 1.449 . S
C207 C54 1.421 . S
C209 C121 1.372 . S
C220 C130 1.341 . S
C218 C87 1.388 . S
C231 C145 1.356 . S
C229 C30 1.436 . S
C240 C51 1.392 . S
C242 C154 1.346 . S
C251 C84 1.419 . S
C253 C169 1.368 . S
C262 C10 1.481 1_655 S
C264 C181 1.433 . S
C273 C59 1.364 . S
C275 C178 1.347 . S
C286 C142 1.326 . S
C284 C74 1.327 . S
C297 C157 1.388 . S
C295 C18 1.419 . S
C306 C32 1.374 . S
C308 C166 1.311 . S
C319 C106 1.311 . S
C317 C73 1.326 . S
C328 C15 1.400 . S
C330 C118 1.334 . S
C341 C133 1.412 . S
C339 C43 1.439 . S
C352 C94 1.320 . S
C350 C62 1.297 1_455 S
C363 C164 1.404 . S
C361 C21 1.419 . S
C374 C176 1.443 . S
C372 C29 1.470 . S
C383 C52 1.446 . S
C385 C140 1.427 . S
C396 C152 1.402 . S
C394 C81 1.431 . S
C407 C116 1.414 . S
C405 C40 1.434 . S
C416 C65 1.431 . S
C418 C128 1.407 . S
C429 C92 1.431 . S
C427 C76 1.453 . S
C440 C104 1.419 . S
C438 C8 1.441 . S
