# Generated by pormake.
# Topology zzz, (3,6)-cn, num edge types: 1
# Building blocks:
#     Node 0, Type 0, BuildingBlock: BETDIP_clean_linker_0, # of connection points: 3
#     Node 1, Type 0, BuildingBlock: BETDIP_clean_linker_0, # of connection points: 3
#     Node 2, Type 0, BuildingBlock: BETDIP_clean_linker_0, # of connection points: 3
#     Node 3, Type 0, BuildingBlock: BETDIP_clean_linker_0, # of connection points: 3
#     Node 4, Type 0, BuildingBlock: BETDIP_clean_linker_0, # of connection points: 3
#     Node 5, Type 0, BuildingBlock: BETDIP_clean_linker_0, # of connection points: 3
#     Node 6, Type 0, BuildingBlock: BETDIP_clean_linker_0, # of connection points: 3
#     Node 7, Type 0, BuildingBlock: BETDIP_clean_linker_0, # of connection points: 3
#     Node 8, Type 1, BuildingBlock: VOLQOD_clean_sbu_1, # of connection points: 6
#     Node 9, Type 1, BuildingBlock: VOLQOD_clean_sbu_1, # of connection points: 6
#     Node 10, Type 1, BuildingBlock: VOLQOD_clean_sbu_1, # of connection points: 6
#     Node 11, Type 1, BuildingBlock: VOLQOD_clean_sbu_1, # of connection points: 6
#     Edge 12, Type (0, 1), BuildingBlock: XIVTED_clean_linker_0, # of connection points: 2
#     Edge 13, Type (0, 1), BuildingBlock: XIVTED_clean_linker_0, # of connection points: 2
#     Edge 14, Type (0, 1), BuildingBlock: XIVTED_clean_linker_0, # of connection points: 2
#     Edge 15, Type (0, 1), BuildingBlock: XIVTED_clean_linker_0, # of connection points: 2
#     Edge 16, Type (0, 1), BuildingBlock: XIVTED_clean_linker_0, # of connection points: 2
#     Edge 17, Type (0, 1), BuildingBlock: XIVTED_clean_linker_0, # of connection points: 2
#     Edge 18, Type (0, 1), BuildingBlock: XIVTED_clean_linker_0, # of connection points: 2
#     Edge 19, Type (0, 1), BuildingBlock: XIVTED_clean_linker_0, # of connection points: 2
#     Edge 20, Type (0, 1), BuildingBlock: XIVTED_clean_linker_0, # of connection points: 2
#     Edge 21, Type (0, 1), BuildingBlock: XIVTED_clean_linker_0, # of connection points: 2
#     Edge 22, Type (0, 1), BuildingBlock: XIVTED_clean_linker_0, # of connection points: 2
#     Edge 23, Type (0, 1), BuildingBlock: XIVTED_clean_linker_0, # of connection points: 2
#     Edge 24, Type (0, 1), BuildingBlock: XIVTED_clean_linker_0, # of connection points: 2
#     Edge 25, Type (0, 1), BuildingBlock: XIVTED_clean_linker_0, # of connection points: 2
#     Edge 26, Type (0, 1), BuildingBlock: XIVTED_clean_linker_0, # of connection points: 2
#     Edge 27, Type (0, 1), BuildingBlock: XIVTED_clean_linker_0, # of connection points: 2
#     Edge 28, Type (0, 1), BuildingBlock: XIVTED_clean_linker_0, # of connection points: 2
#     Edge 29, Type (0, 1), BuildingBlock: XIVTED_clean_linker_0, # of connection points: 2
#     Edge 30, Type (0, 1), BuildingBlock: XIVTED_clean_linker_0, # of connection points: 2
#     Edge 31, Type (0, 1), BuildingBlock: XIVTED_clean_linker_0, # of connection points: 2
#     Edge 32, Type (0, 1), BuildingBlock: XIVTED_clean_linker_0, # of connection points: 2
#     Edge 33, Type (0, 1), BuildingBlock: XIVTED_clean_linker_0, # of connection points: 2
#     Edge 34, Type (0, 1), BuildingBlock: XIVTED_clean_linker_0, # of connection points: 2
#     Edge 35, Type (0, 1), BuildingBlock: XIVTED_clean_linker_0, # of connection points: 2
# Relax obj value: 0.197
# Max RMSD: 0.236
# Mean RMSD: 0.111
data_MOF--net-zzz--node1-VOLQOD_clean_sbu_1--node2-BETDIP_clean_linker_0--edge1-XIVTED_clean_linker_0
_symmetry_space_group_name_H-M    P1
_symmetry_Int_Tables_number       1
_symmetry_cell_setting            triclinic
loop_
_symmetry_equiv_pos_as_xyz
'x, y, z'
_cell_length_a     51.482782
_cell_length_b     51.305459
_cell_length_c     17.36258
_cell_angle_alpha  90.083987
_cell_angle_beta   89.987909
_cell_angle_gamma 90.778225
loop_
_atom_site_label
_atom_site_type_symbol
_atom_site_fract_x
_atom_site_fract_y
_atom_site_fract_z
_atom_type_partial_charge
H0 H 0.75928 0.52317 0.25918 0.0
H1 H 0.7822 0.48645 0.04612 0.0
H2 H 0.83976 0.51035 0.21161 0.0
H3 H 0.72258 0.53234 0.18852 0.0
C4 C 0.72003 0.51663 0.14712 0.0
C5 C 0.77418 0.51644 0.22027 0.0
C6 C 0.80041 0.51883 0.2417 0.0
C7 C 0.76763 0.50474 0.14888 0.0
C8 C 0.78735 0.49523 0.10093 0.0
C9 C 0.81352 0.49782 0.12208 0.0
C10 C 0.81966 0.5093 0.1929 0.0
N11 N 0.74161 0.50175 0.12291 0.0
H12 H 0.98899 0.75771 0.25077 0.0
H13 H 0.04351 0.761 0.06313 0.0
H14 H 0.03008 0.82906 0.20147 0.0
H15 H 0.99692 0.74441 0.01631 0.0
C16 C 1.00051 0.72739 0.05195 0.0
C17 C 0.00381 0.76822 0.21862 0.0
C18 C 0.00908 0.79456 0.23493 0.0
C19 C 0.01601 0.75625 0.1557 0.0
C20 C 0.03439 0.77036 0.11191 0.0
C21 C 0.03976 0.79673 0.12774 0.0
C22 C 0.02726 0.80841 0.19036 0.0
N23 N 0.00754 0.73123 0.13038 0.0
H24 H 0.75095 0.9946 0.25628 0.0
H25 H 0.73975 0.04535 0.06209 0.0
H26 H 0.676 0.0271 0.21364 0.0
H27 H 0.76346 0.00322 0.01719 0.0
C28 C 0.77955 0.00829 0.05521 0.0
C29 C 0.7387 0.00758 0.2237 0.0
C30 C 0.71245 0.01014 0.24334 0.0
C31 C 0.74853 0.02014 0.15783 0.0
C32 C 0.73217 0.03598 0.11343 0.0
C33 C 0.70596 0.03907 0.13381 0.0
C34 C 0.69649 0.02622 0.19942 0.0
N35 N 0.77424 0.01501 0.13301 0.0
H36 H 0.52543 0.74051 0.24192 0.0
H37 H 0.4657 0.72274 0.07515 0.0
H38 H 0.49275 0.66331 0.22784 0.0
H39 H 0.48868 0.75004 0.00344 0.0
C40 C 0.49451 0.7656 0.04251 0.0
C41 C 0.51165 0.7269 0.21633 0.0
C42 C 0.5098 0.70126 0.24383 0.0
C43 C 0.49656 0.73456 0.15307 0.0
C44 C 0.47849 0.71668 0.12091 0.0
C45 C 0.47707 0.69074 0.14653 0.0
C46 C 0.49281 0.68338 0.20839 0.0
N47 N 0.50058 0.75979 0.12058 0.0
H48 H 0.24604 0.49294 0.10136 0.0
H49 H 0.23689 0.5527 0.27379 0.0
H50 H 0.17105 0.52548 0.1431 0.0
H51 H 0.28159 0.56105 0.22923 0.0
C52 C 0.28694 0.54092 0.23926 0.0
C53 C 0.23397 0.50691 0.13093 0.0
C54 C 0.20735 0.50798 0.11459 0.0
C55 C 0.2449 0.52342 0.18726 0.0
C56 C 0.22886 0.54084 0.22771 0.0
C57 C 0.20211 0.54184 0.21191 0.0
C58 C 0.19178 0.5256 0.15436 0.0
N59 N 0.27143 0.52046 0.20755 0.0
H60 H 0.06514 0.23347 0.09647 0.0
H61 H 0.00738 0.22814 0.27601 0.0
H62 H 0.03735 0.15858 0.17406 0.0
H63 H 0.99418 0.26595 0.19747 0.0
C64 C 0.01287 0.27542 0.2081 0.0
C65 C 0.05305 0.2218 0.13455 0.0
C66 C 0.05351 0.19446 0.12999 0.0
C67 C 0.03632 0.23408 0.18685 0.0
C68 C 0.02015 0.21885 0.23502 0.0
C69 C 0.02029 0.19161 0.23001 0.0
C70 C 0.03725 0.17968 0.17824 0.0
N71 N 0.03597 0.26172 0.19102 0.0
H72 H 0.25995 0.03301 0.05773 0.0
H73 H 0.27991 1.00026 0.27879 0.0
H74 H 0.33953 0.03059 0.13089 0.0
H75 H 0.24496 0.97321 0.24212 0.0
C76 C 0.23161 0.989 0.2308 0.0
C77 C 0.2743 0.02838 0.10105 0.0
C78 C 0.30068 0.03428 0.08799 0.0
C79 C 0.26661 0.01579 0.16962 0.0
C80 C 0.28555 0.00935 0.22498 0.0
C81 C 0.31185 0.01499 0.21171 0.0
C82 C 0.31907 0.02741 0.14332 0.0
N83 N 0.23986 0.01001 0.18289 0.0
H84 H 0.47946 0.25306 0.07383 0.0
H85 H 0.51162 0.27899 0.29104 0.0
H86 H 0.48602 0.33471 0.12498 0.0
H87 H 0.53593 0.24272 0.27317 0.0
C88 C 0.52056 0.22891 0.25808 0.0
C89 C 0.48484 0.26861 0.11323 0.0
C90 C 0.48039 0.29468 0.09316 0.0
C91 C 0.49673 0.26274 0.18407 0.0
C92 C 0.50361 0.28322 0.23491 0.0
C93 C 0.49963 0.30927 0.21436 0.0
C94 C 0.4882 0.31465 0.14324 0.0
N95 N 0.50118 0.23626 0.20415 0.0
O96 O 0.0743 0.99578 0.63078 0.0
Zn97 Zn 0.04967 0.99723 0.72141 0.0
O98 O 0.01339 0.99691 0.68334 0.0
Zn99 Zn 0.99574 0.02783 0.71995 0.0
Zn100 Zn 0.01241 0.99598 0.57043 0.0
Zn101 Zn 0.99468 0.96656 0.72226 0.0
O102 O 0.96575 0.01935 0.79127 0.0
O103 O 0.96351 0.97613 0.78645 0.0
O104 O 0.05844 0.03075 0.77983 0.0
O105 O 0.02097 0.05165 0.77235 0.0
O106 O 0.9823 0.04899 0.63226 0.0
O107 O 0.99377 0.02705 0.52771 0.0
O108 O 0.99553 0.96271 0.53069 0.0
O109 O 0.05705 0.96547 0.78767 0.0
O110 O 0.98311 0.94257 0.63771 0.0
O111 O 0.01875 0.94489 0.78343 0.0
C112 C 0.07134 0.99645 0.5579 0.0
C113 C 0.95484 0.99786 0.81014 0.0
C114 C 0.9831 0.04659 0.55941 0.0
C115 C 0.04472 0.05084 0.79218 0.0
C116 C 0.98503 0.94327 0.56478 0.0
C117 C 0.04239 0.94608 0.80445 0.0
O118 O 0.04885 0.99719 0.52746 0.0
O119 O 0.50772 0.06432 0.63442 0.0
Zn120 Zn 0.50503 0.03729 0.71927 0.0
O121 O 0.50916 0.00194 0.67439 0.0
Zn122 Zn 0.4784 0.98069 0.69385 0.0
Zn123 Zn 0.51459 0.00393 0.56312 0.0
Zn124 Zn 0.53851 0.98445 0.72086 0.0
O125 O 0.48595 0.94913 0.75761 0.0
O126 O 0.52809 0.95256 0.7831 0.0
O127 O 0.469 0.04128 0.7683 0.0
O128 O 0.45187 0.00195 0.74705 0.0
O129 O 0.46049 0.96958 0.59691 0.0
O130 O 0.48508 0.98713 0.50556 0.0
O131 O 0.54859 0.988 0.5313 0.0
O132 O 0.53458 0.0461 0.79448 0.0
O133 O 0.56513 0.9744 0.64202 0.0
O134 O 0.55744 0.00968 0.78692 0.0
C135 C 0.51167 0.06303 0.56202 0.0
C136 C 0.50632 0.94069 0.79016 0.0
C137 C 0.46491 0.97436 0.52631 0.0
C138 C 0.44992 0.02515 0.77203 0.0
C139 C 0.5667 0.97731 0.56943 0.0
C140 C 0.55456 0.0328 0.81145 0.0
O141 O 0.51488 0.04128 0.5282 0.0
O142 O 0.44147 0.49936 0.63321 0.0
Zn143 Zn 0.46685 0.49567 0.72222 0.0
O144 O 0.5026 0.50454 0.68797 0.0
Zn145 Zn 0.52572 0.47546 0.70612 0.0
Zn146 Zn 0.50261 0.51223 0.57861 0.0
Zn147 Zn 0.51627 0.53497 0.74193 0.0
O148 O 0.55515 0.48493 0.77841 0.0
O149 O 0.54681 0.52598 0.8093 0.0
O150 O 0.46442 0.45823 0.76239 0.0
O151 O 0.50547 0.44584 0.75143 0.0
O152 O 0.53916 0.46003 0.60769 0.0
O153 O 0.51829 0.48291 0.5196 0.0
O154 O 0.52178 0.54554 0.55421 0.0
O155 O 0.45482 0.5216 0.80366 0.0
O156 O 0.52771 0.56365 0.66909 0.0
O157 O 0.4884 0.5495 0.80773 0.0
C158 C 0.44396 0.5089 0.56578 0.0
C159 C 0.56048 0.5056 0.81638 0.0
C160 C 0.53278 0.46401 0.53795 0.0
C161 C 0.48191 0.44096 0.769 0.0
C162 C 0.52955 0.56449 0.59601 0.0
C163 C 0.46568 0.54246 0.82846 0.0
O164 O 0.46609 0.51584 0.5396 0.0
O165 O 0.96662 0.53127 0.56446 0.0
Zn166 Zn 0.00242 0.5297 0.61582 0.0
O167 O 0.00891 0.49498 0.6612 0.0
Zn168 Zn 0.01281 0.49747 0.77274 0.0
Zn169 Zn 0.98012 0.47141 0.63731 0.0
Zn170 Zn 0.04043 0.48026 0.61915 0.0
O171 O 0.04684 0.48292 0.80907 0.0
O172 O 0.06598 0.47022 0.70115 0.0
O173 O 1.00203 0.55653 0.70086 0.0
O174 O 0.01089 0.53489 0.80816 0.0
O175 O 0.98371 0.47832 0.82512 0.0
O176 O 0.963 0.45691 0.73212 0.0
O177 O 0.99078 0.44245 0.5662 0.0
O178 O 0.03203 0.54103 0.5439 0.0
O179 O 0.03314 0.44914 0.55064 0.0
O180 O 0.0587 0.50764 0.55899 0.0
C181 C 0.94843 0.51412 0.56166 0.0
C182 C 0.06598 0.47284 0.774 0.0
C183 C 0.96576 0.46275 0.80289 0.0
C184 C 0.00597 0.55609 0.77331 0.0
C185 C 0.01239 0.43624 0.53603 0.0
C186 C 0.05384 0.53014 0.53245 0.0
O187 O 0.95176 0.49118 0.58711 0.0
H188 H 0.21858 0.95873 0.35196 0.0
H189 H 0.07547 0.01216 0.40735 0.0
H190 H 0.18932 0.02096 0.21111 0.0
H191 H 0.12001 0.9795 0.5935 0.0
H192 H 0.11416 0.01056 0.32493 0.0
H193 H 0.17933 0.96067 0.43108 0.0
C194 C 0.20377 0.97271 0.33753 0.0
C195 C 0.20717 0.98977 0.27531 0.0
C196 C 0.11539 0.00383 0.38389 0.0
C197 C 0.16221 0.99199 0.36506 0.0
C198 C 0.09335 0.00463 0.43085 0.0
C199 C 0.09453 0.99596 0.50749 0.0
C200 C 0.13858 0.99381 0.41333 0.0
C201 C 0.11823 0.9865 0.53497 0.0
C202 C 0.18148 0.97389 0.38286 0.0
C203 C 0.18746 0.00754 0.25892 0.0
N204 N 0.13925 0.98549 0.48776 0.0
N205 N 0.16568 0.00813 0.30345 0.0
H206 H 0.54612 0.21715 0.38874 0.0
H207 H 0.50256 0.06837 0.40758 0.0
H208 H 0.49177 0.18446 0.2249 0.0
H209 H 0.52231 0.11279 0.61112 0.0
H210 H 0.50407 0.10868 0.33193 0.0
H211 H 0.54348 0.17673 0.46328 0.0
C212 C 0.53369 0.20137 0.36842 0.0
C213 C 0.51908 0.20409 0.30093 0.0
C214 C 0.50799 0.10954 0.39317 0.0
C215 C 0.51618 0.15782 0.38523 0.0
C216 C 0.50728 0.08658 0.43631 0.0
C217 C 0.51235 0.08724 0.5158 0.0
C218 C 0.51437 0.13321 0.42946 0.0
C219 C 0.51818 0.1114 0.5501 0.0
C220 C 0.53211 0.17842 0.4111 0.0
C221 C 0.50325 0.18314 0.27693 0.0
N222 N 0.51927 0.1334 0.50659 0.0
N223 N 0.50234 0.16073 0.31888 0.0
H224 H 0.3269 0.57425 0.27001 0.0
H225 H 0.39662 0.48371 0.57494 0.0
H226 H 0.30057 0.49534 0.31103 0.0
H227 H 0.43838 0.54252 0.44533 0.0
H228 H 0.35852 0.49057 0.49264 0.0
H229 H 0.36559 0.56591 0.34818 0.0
C230 C 0.32937 0.55514 0.29528 0.0
C231 C 0.31072 0.53541 0.28372 0.0
C232 C 0.3761 0.50186 0.48228 0.0
C233 C 0.35444 0.5259 0.37425 0.0
C234 C 0.39776 0.49807 0.52936 0.0
C235 C 0.42072 0.51255 0.51691 0.0
C236 C 0.37725 0.52065 0.4236 0.0
C237 C 0.42115 0.53083 0.45676 0.0
C238 C 0.3514 0.55039 0.33967 0.0
C239 C 0.31466 0.51101 0.31799 0.0
N240 N 0.39968 0.53452 0.41282 0.0
N241 N 0.33602 0.507 0.36241 0.0
H242 H 0.9715 0.30352 0.25211 0.0
H243 H 0.05515 0.4142 0.46842 0.0
H244 H 0.05526 0.30477 0.25604 0.0
H245 H 0.97162 0.4067 0.48213 0.0
H246 H 0.05584 0.37635 0.38249 0.0
H247 H 0.97143 0.3438 0.3272 0.0
C248 C 0.98989 0.31245 0.2684 0.0
C249 C 0.01337 0.30082 0.24819 0.0
C250 C 0.03738 0.38305 0.40426 0.0
C251 C 0.01354 0.34681 0.33464 0.0
C252 C 0.03695 0.40467 0.45332 0.0
C253 C 0.01329 0.41362 0.48296 0.0
C254 C 0.01398 0.37036 0.38442 0.0
C255 C 0.99034 0.40048 0.46116 0.0
C256 C 0.98986 0.33538 0.31145 0.0
C257 C 0.0367 0.3131 0.27062 0.0
N258 N 0.99128 0.37954 0.41337 0.0
N259 N 0.0362 0.33543 0.31301 0.0
H260 H 0.79456 0.97993 0.93232 0.0
H261 H 0.93736 0.03659 0.90555 0.0
H262 H 0.82507 0.02984 0.11164 0.0
H263 H 0.91701 0.96011 0.81885 0.0
H264 H 0.89547 0.03786 0.97308 0.0
H265 H 0.83844 0.97577 0.8797 0.0
C266 C 0.81058 0.98991 0.96074 0.0
C267 C 0.80632 0.00512 0.02643 0.0
C268 C 0.90038 0.02074 0.93984 0.0
C269 C 0.85636 0.00089 0.96594 0.0
C270 C 0.92417 0.02002 0.9011 0.0
C271 C 0.93065 0.99823 0.8563 0.0
C272 C 0.88273 0.99981 0.93213 0.0
C273 C 0.91287 0.97727 0.85282 0.0
C274 C 0.83557 0.98746 0.93093 0.0
C275 C 0.82765 0.01776 0.06112 0.0
N276 N 0.88959 0.97873 0.88931 0.0
N277 N 0.8518 0.01563 0.02986 0.0
H278 H 0.47269 0.78208 0.91115 0.0
H279 H 0.54099 0.92121 0.8957 0.0
H280 H 0.51978 0.80935 0.10097 0.0
H281 H 0.46772 0.90387 0.78462 0.0
H282 H 0.53784 0.87918 0.96333 0.0
H283 H 0.47515 0.82549 0.85411 0.0
C284 C 0.48351 0.79731 0.94086 0.0
C285 C 0.49592 0.79226 0.01087 0.0
C286 C 0.52243 0.88479 0.9245 0.0
C287 C 0.49915 0.84187 0.94553 0.0
C288 C 0.52425 0.90864 0.88567 0.0
C289 C 0.50462 0.91603 0.83422 0.0
C290 C 0.50113 0.86809 0.9104 0.0
C291 C 0.4833 0.89905 0.82372 0.0
C292 C 0.48484 0.82207 0.90846 0.0
C293 C 0.50978 0.81259 0.04707 0.0
N294 N 0.48227 0.87581 0.86081 0.0
N295 N 0.51124 0.83658 0.01355 0.0
H296 H 0.6783 0.54874 0.15342 0.0
H297 H 0.59682 0.46768 0.83813 0.0
H298 H 0.70498 0.47808 0.04619 0.0
H299 H 0.57566 0.5445 0.91615 0.0
H300 H 0.63437 0.46925 0.92392 0.0
H301 H 0.6382 0.54547 0.07724 0.0
C302 C 0.67561 0.53247 0.11425 0.0
C303 C 0.69503 0.51381 0.10562 0.0
C304 C 0.62149 0.48575 0.92236 0.0
C305 C 0.6494 0.50989 0.01848 0.0
C306 C 0.6 0.48487 0.87338 0.0
C307 C 0.58307 0.50605 0.86945 0.0
C308 C 0.62612 0.50793 0.9682 0.0
C309 C 0.58823 0.52776 0.91682 0.0
C310 C 0.65281 0.53065 0.07064 0.0
C311 C 0.69063 0.49306 0.05422 0.0
N312 N 0.60929 0.52814 0.96411 0.0
N313 N 0.66833 0.49171 0.01252 0.0
H314 H 0.98727 0.71698 0.90519 0.0
H315 H 0.01465 0.56387 0.92816 0.0
H316 H 0.01176 0.67912 0.11399 0.0
H317 H 0.99396 0.60462 0.71996 0.0
H318 H 0.01211 0.60501 -0.00068 0.0
H319 H 0.98763 0.67509 0.83886 0.0
C320 C 0.99259 0.69972 0.93713 0.0
C321 C 0.99951 0.70146 0.01496 0.0
C322 C 0.00812 0.60489 0.93809 0.0
C323 C 1.00018 0.65333 0.93937 0.0
C324 C 0.00957 0.58142 0.89734 0.0
C325 C 0.00457 0.58074 0.81775 0.0
C326 C 1.00157 0.62784 0.89903 0.0
C327 C 0.99805 0.60412 0.78109 0.0
C328 C 0.99286 0.67581 0.89923 0.0
C329 C 0.00628 0.67858 0.05383 0.0
N330 N 0.99676 0.62664 0.82197 0.0
N331 N 0.00653 0.65539 0.01547 0.0
H332 H 0.01178 0.1952 0.38555 0.0
H333 H 0.97476 0.04737 0.40364 0.0
H334 H 0.99021 0.15015 0.18506 0.0
H335 H 0.97497 0.09689 0.60493 0.0
H336 H 0.97323 0.08607 0.32252 0.0
H337 H 0.9915 0.16182 0.46722 0.0
C338 C 1.00219 0.17861 0.35871 0.0
C339 C 0.00325 0.17502 0.27874 0.0
C340 C 0.97303 0.0885 0.38448 0.0
C341 C 0.98048 0.13664 0.37134 0.0
C342 C 0.97391 0.06636 0.43081 0.0
C343 C 0.97557 0.06891 0.51106 0.0
C344 C 0.9744 0.11335 0.41864 0.0
C345 C 0.97406 0.094 0.54321 0.0
C346 C 0.99068 0.1595 0.40526 0.0
C347 C 0.99048 0.15322 0.24678 0.0
N348 N 0.97422 0.1153 0.49684 0.0
N349 N 0.98009 0.13459 0.29322 0.0
H350 H 0.35458 0.04308 0.25564 0.0
H351 H 0.41774 0.94953 0.54812 0.0
H352 H 0.31634 0.96856 0.29025 0.0
H353 H 0.46282 0.99171 0.37796 0.0
H354 H 0.37867 0.95637 0.47019 0.0
H355 H 0.39245 0.02709 0.32384 0.0
C356 C 0.35409 0.02337 0.278 0.0
C357 C 0.33249 0.00693 0.2658 0.0
C358 C 0.39729 0.9635 0.44946 0.0
C359 C 0.37568 0.98871 0.34469 0.0
C360 C 0.41961 0.95956 0.4935 0.0
C361 C 0.44353 0.97062 0.47043 0.0
C362 C 0.39904 0.97894 0.38317 0.0
C363 C 0.44479 0.98322 0.39884 0.0
C364 C 0.37574 0.01425 0.31646 0.0
C365 C 0.33264 0.98184 0.29831 0.0
N366 N 0.42272 0.98764 0.35876 0.0
N367 N 0.35404 0.97339 0.3365 0.0
H368 H 0.54348 0.31383 0.3055 0.0
H369 H 0.51891 0.46391 0.38615 0.0
H370 H 0.47442 0.35508 0.23872 0.0
H371 H 0.55646 0.41671 0.55824 0.0
H372 H 0.5147 0.42559 0.30394 0.0
H373 H 0.55791 0.35258 0.37838 0.0
C374 C 0.53129 0.33085 0.30643 0.0
C375 C 0.50783 0.33127 0.26494 0.0
C376 C 0.52427 0.42379 0.35921 0.0
C377 C 0.52477 0.3756 0.34496 0.0
C378 C 0.52688 0.44568 0.40602 0.0
C379 C 0.53744 0.4434 0.48015 0.0
C380 C 0.53248 0.39954 0.3863 0.0
C381 C 0.54778 0.41926 0.50201 0.0
C382 C 0.5397 0.35295 0.34723 0.0
C383 C 0.49297 0.35401 0.26777 0.0
N384 N 0.54467 0.39805 0.45566 0.0
N385 N 0.50182 0.37528 0.3063 0.0
H386 H 0.15925 0.57013 0.1711 0.0
H387 H 0.05175 0.56385 0.40832 0.0
H388 H 0.20264 0.54478 0.3691 0.0
H389 H 0.10467 0.52804 0.56747 0.0
H390 H 0.08905 0.58021 0.33395 0.0
H391 H 0.12221 0.57858 0.25383 0.0
C392 C 0.16122 0.56711 0.23255 0.0
C393 C 0.1838 0.55592 0.26283 0.0
C394 C 0.09263 0.56891 0.38522 0.0
C395 C 0.14135 0.56557 0.35873 0.0
C396 C 0.07124 0.55974 0.42792 0.0
C397 C 0.07521 0.54392 0.49247 0.0
C398 C 0.11798 0.56214 0.40798 0.0
C399 C 0.10075 0.5395 0.51652 0.0
C400 C 0.13994 0.57196 0.28016 0.0
C401 C 0.18557 0.55307 0.34287 0.0
N402 N 0.12105 0.54828 0.47395 0.0
N403 N 0.16442 0.55726 0.38764 0.0
H404 H 0.03941 0.79331 0.97012 0.0
H405 H 0.07535 0.9433 0.92948 0.0
H406 H 0.07215 0.83908 0.15621 0.0
H407 H 0.03353 0.89624 0.76371 0.0
H408 H 0.08635 0.90328 0.00031 0.0
H409 H 0.05131 0.82766 0.88088 0.0
C410 C 0.04981 0.8102 0.99228 0.0
C411 C 0.05399 0.81356 0.07159 0.0
C412 C 0.07523 0.90176 0.94752 0.0
C413 C 0.06659 0.85373 0.96931 0.0
C414 C 0.06899 0.92452 0.90734 0.0
C415 C 0.05304 0.92292 0.84207 0.0
C416 C 0.06567 0.8775 0.92112 0.0
C417 C 0.04536 0.89827 0.81502 0.0
C418 C 0.05633 0.83007 0.94107 0.0
C419 C 0.0676 0.83608 0.09596 0.0
N420 N 0.05154 0.8766 0.85497 0.0
N421 N 0.07276 0.85568 0.04535 0.0
H422 H 0.66446 0.07003 0.17086 0.0
H423 H 0.55478 0.06596 0.93757 0.0
H424 H 0.70393 0.0361 0.97658 0.0
H425 H 0.60494 0.02676 0.77725 0.0
H426 H 0.59311 0.07915 0.01284 0.0
H427 H 0.62722 0.0786 0.089 0.0
C428 C 0.66551 0.06493 0.11038 0.0
C429 C 0.68711 0.05163 0.08116 0.0
C430 C 0.59589 0.06785 0.96103 0.0
C431 C 0.64439 0.06141 0.98627 0.0
C432 C 0.57392 0.06048 0.9179 0.0
C433 C 0.57676 0.04467 0.85266 0.0
C434 C 0.62068 0.05937 0.93781 0.0
C435 C 0.60188 0.03833 0.82863 0.0
C436 C 0.64412 0.06986 0.06331 0.0
C437 C 0.68772 0.04618 0.0021 0.0
N438 N 0.62273 0.04547 0.87145 0.0
N439 N 0.6665 0.05063 0.95798 0.0
H440 H 0.45169 0.64682 0.20267 0.0
H441 H 0.44275 0.58637 0.78142 0.0
H442 H 0.46804 0.68795 0.99067 0.0
H443 H 0.45877 0.54114 0.9842 0.0
H444 H 0.43337 0.62401 0.86306 0.0
H445 H 0.437 0.60911 0.12711 0.0
C446 C 0.45184 0.64818 0.14045 0.0
C447 C 0.46195 0.67048 0.10326 0.0
C448 C 0.43808 0.60562 0.88991 0.0
C449 C 0.44431 0.62767 0.01696 0.0
C450 C 0.44318 0.58413 0.84348 0.0
C451 C 0.45139 0.5608 0.87662 0.0
C452 C 0.44163 0.60376 0.96983 0.0
C453 C 0.45225 0.55885 0.95696 0.0
C454 C 0.44325 0.62669 0.09756 0.0
C455 C 0.4606 0.67134 0.02245 0.0
N456 N 0.44788 0.58029 0.00112 0.0
N457 N 0.45234 0.65012 0.98214 0.0
H458 H 0.85956 0.5228 0.09561 0.0
H459 H 0.91797 0.44035 0.77202 0.0
H460 H 0.81642 0.45315 0.03281 0.0
H461 H 0.9649 0.47128 0.95799 0.0
H462 H 0.8794 0.44408 0.85406 0.0
H463 H 0.89706 0.50635 0.02749 0.0
C464 C 0.85798 0.50393 0.06781 0.0
C465 C 0.83498 0.48902 0.07171 0.0
C466 C 0.89831 0.44928 0.87723 0.0
C467 C 0.87788 0.47037 0.99189 0.0
C468 C 0.92036 0.4471 0.83076 0.0
C469 C 0.94462 0.45627 0.85747 0.0
C470 C 0.90074 0.46097 0.94988 0.0
C471 C 0.94653 0.46462 0.93422 0.0
C472 C 0.87945 0.49455 0.0291 0.0
C473 C 0.83383 0.46521 0.03149 0.0
N474 N 0.92476 0.46744 0.97703 0.0
N475 N 0.85508 0.45657 0.9927 0.0
H476 H 0.08737 0.1543 0.14636 0.0
H477 H 0.03417 0.10071 0.75526 0.0
H478 H 0.05022 0.20168 0.97516 0.0
H479 H 0.08167 0.05492 0.90666 0.0
H480 H 0.04827 0.14006 0.82234 0.0
H481 H 0.09524 0.12103 0.04845 0.0
C482 C 0.08185 0.15812 0.08728 0.0
C483 C 0.06769 0.18048 0.06886 0.0
C484 C 0.056 0.12154 0.84053 0.0
C485 C 0.07584 0.14228 0.95731 0.0
C486 C 0.0478 0.09902 0.80248 0.0
C487 C 0.05633 0.07454 0.82674 0.0
C488 C 0.07236 0.11959 0.90488 0.0
C489 C 0.07442 0.07346 0.88693 0.0
C490 C 0.08613 0.13904 0.03151 0.0
C491 C 0.06102 0.18462 0.99175 0.0
N492 N 0.0814 0.09567 0.92527 0.0
N493 N 0.06453 0.16536 0.93914 0.0
H494 H 0.29705 0.01113 0.94748 0.0
H495 H 0.43747 0.0688 0.85766 0.0
H496 H 0.32974 0.07825 0.06302 0.0
H497 H 0.40347 1.00018 0.75193 0.0
H498 H 0.39467 0.07925 0.91142 0.0
H499 H 0.33071 0.01509 0.84884 0.0
C500 C 0.31054 0.02751 0.94988 0.0
C501 C 0.31093 0.04414 0.01385 0.0
C502 C 0.39659 0.06209 0.87558 0.0
C503 C 0.3503 0.04803 0.90393 0.0
C504 C 0.42104 0.05607 0.84528 0.0
C505 C 0.42425 0.03325 0.80186 0.0
C506 C 0.37526 0.04523 0.86187 0.0
C507 C 0.40216 0.01765 0.78669 0.0
C508 C 0.33012 0.0295 0.89441 0.0
C509 C 0.32902 0.0649 0.01466 0.0
N510 N 0.37878 0.02379 0.81715 0.0
N511 N 0.34852 0.0658 0.96193 0.0
H512 H 0.4344 0.3181 0.06492 0.0
H513 H 0.50891 0.39671 0.74206 0.0
H514 H 0.50435 0.29246 0.95408 0.0
H515 H 0.43961 0.42409 0.85426 0.0
H516 H 0.50092 0.35354 0.79526 0.0
H517 H 0.42847 0.35023 0.96276 0.0
C518 C 0.44774 0.31832 0.01663 0.0
C519 C 0.46999 0.3028 0.0179 0.0
C520 C 0.48724 0.36883 0.80774 0.0
C521 C 0.46406 0.34022 0.90302 0.0
C522 C 0.49189 0.39361 0.77779 0.0
C523 C 0.47524 0.41425 0.79538 0.0
C524 C 0.46599 0.36457 0.8569 0.0
C525 C 0.45315 0.40884 0.8402 0.0
C526 C 0.44462 0.33698 0.95903 0.0
C527 C 0.48694 0.30407 0.95497 0.0
N528 N 0.44942 0.38461 0.87068 0.0
N529 N 0.48402 0.32299 0.90106 0.0
H530 H 0.1726 0.46964 0.14758 0.0
H531 H 0.11599 0.47114 0.72067 0.0
H532 H 0.21144 0.50745 0.95766 0.0
H533 H 0.07026 0.46187 0.92741 0.0
H534 H 0.15561 0.46976 0.7988 0.0
H535 H 0.14065 0.45111 0.05796 0.0
C536 C 0.17491 0.47317 0.08642 0.0
C537 C 0.19447 0.49011 0.05958 0.0
C538 C 0.13689 0.46747 0.82665 0.0
C539 C 0.15774 0.4697 0.95738 0.0
C540 C 0.11428 0.46816 0.78222 0.0
C541 C 0.08979 0.467 0.81789 0.0
C542 C 0.13494 0.46523 0.90696 0.0
C543 C 0.08873 0.46321 0.89777 0.0
C544 C 0.15657 0.46283 0.0355 0.0
C545 C 0.19661 0.49438 0.98018 0.0
N546 N 0.11098 0.46268 0.93968 0.0
N547 N 0.17809 0.48462 0.93171 0.0
H548 H 0.01098 0.79259 0.39239 0.0
H549 H 0.97494 0.93932 0.41026 0.0
H550 H 0.97409 0.83172 0.20325 0.0
H551 H 0.98025 0.89322 0.61727 0.0
H552 H 0.97127 0.89918 0.33493 0.0
H553 H 0.99617 0.82719 0.4794 0.0
C554 C 0.9989 0.80795 0.36997 0.0
C555 C 0.99374 0.80952 0.29099 0.0
C556 C 0.97272 0.89783 0.39701 0.0
C557 C 0.97764 0.84939 0.38854 0.0
C558 C 0.97489 0.92077 0.43995 0.0
C559 C 0.97817 0.91962 0.51998 0.0
C560 C 0.97449 0.87358 0.43415 0.0
C561 C 0.97784 0.89501 0.55558 0.0
C562 C 0.99062 0.82778 0.41928 0.0
C563 C 0.97843 0.82998 0.26405 0.0
N564 N 0.97663 0.87294 0.51227 0.0
N565 N 0.97139 0.84943 0.3124 0.0
H566 H 0.68237 0.96759 0.21868 0.0
H567 H 0.61546 0.97784 0.63137 0.0
H568 H 0.71199 0.01724 0.3995 0.0
H569 H 0.57428 0.96457 0.41815 0.0
H570 H 0.65666 0.97692 0.56046 0.0
H571 H 0.64941 0.95034 0.3074 0.0
C572 C 0.68256 0.97399 0.2782 0.0
C573 C 0.69979 0.99375 0.30232 0.0
C574 C 0.6386 0.97361 0.52975 0.0
C575 C 0.66199 0.97467 0.40304 0.0
C576 C 0.61511 0.974 0.57 0.0
C577 C 0.59143 0.97155 0.53025 0.0
C578 C 0.63833 0.97022 0.44963 0.0
C579 C 0.59209 0.96683 0.45076 0.0
C580 C 0.66364 0.96438 0.32839 0.0
C581 C 0.69909 0.00185 0.37932 0.0
N582 N 0.61518 0.96647 0.41294 0.0
N583 N 0.68014 0.99253 0.42697 0.0
H584 H 0.55223 0.67108 0.23092 0.0
H585 H 0.52675 0.6145 0.65078 0.0
H586 H 0.50255 0.70731 0.39809 0.0
H587 H 0.55146 0.56988 0.45375 0.0
H588 H 0.53262 0.65461 0.57557 0.0
H589 H 0.56762 0.64128 0.33042 0.0
C590 C 0.54551 0.67349 0.28962 0.0
C591 C 0.52617 0.69154 0.30681 0.0
C592 C 0.53734 0.63606 0.5496 0.0
C593 C 0.54283 0.65708 0.4198 0.0
C594 C 0.53408 0.61319 0.59244 0.0
C595 C 0.53817 0.58883 0.55784 0.0
C596 C 0.54507 0.63448 0.47219 0.0
C597 C 0.54763 0.58824 0.48213 0.0
C598 C 0.55403 0.65632 0.34609 0.0
C599 C 0.51762 0.69368 0.3831 0.0
N600 N 0.5505 0.6107 0.44159 0.0
N601 N 0.52562 0.67623 0.43673 0.0
H602 H 0.82628 0.5644 0.26804 0.0
H603 H 0.90314 0.48757 0.58677 0.0
H604 H 0.79776 0.49511 0.38101 0.0
H605 H 0.93373 0.55594 0.47183 0.0
H606 H 0.86052 0.49632 0.53376 0.0
H607 H 0.85997 0.56904 0.3666 0.0
C608 C 0.82622 0.55101 0.31626 0.0
C609 C 0.80936 0.52926 0.31645 0.0
C610 C 0.87642 0.5096 0.52046 0.0
C611 C 0.8485 0.53367 0.42708 0.0
C612 C 0.90092 0.5045 0.55025 0.0
C613 C 0.92228 0.52071 0.53226 0.0
C614 C 0.87307 0.53092 0.47117 0.0
C615 C 0.91792 0.5427 0.48629 0.0
C616 C 0.84579 0.55335 0.37166 0.0
C617 C 0.81036 0.51217 0.37908 0.0
N618 N 0.89387 0.54694 0.45626 0.0
N619 N 0.83009 0.51433 0.43083 0.0
loop_
_geom_bond_atom_site_label_1
_geom_bond_atom_site_label_2
_geom_bond_distance
_geom_bond_site_symmetry_2
_ccdc_geom_bond_type
H0 C5 0.930 . S
H1 C8 0.930 . S
H2 C10 0.930 . S
H3 C4 1.016 . S
C4 H3 1.016 . S
C4 N11 1.286 1_556 S
C5 H0 0.930 . S
C5 C6 1.397 . S
C5 C7 1.361 . S
C6 C5 1.397 . S
C6 C10 1.390 . S
C7 C5 1.361 . S
C7 C8 1.393 1_554 S
C7 N11 1.413 . S
C8 H1 0.930 . S
C8 C7 1.393 1_556 S
C8 C9 1.399 . S
C9 C8 1.399 . S
C9 C10 1.381 1_556 S
C10 H2 0.930 . S
C10 C6 1.390 . S
C10 C9 1.381 1_554 S
N11 C4 1.286 1_554 S
N11 C7 1.413 . S
H12 C17 0.930 . S
H13 C20 0.930 . S
H14 C22 0.930 . S
H15 C16 1.016 1_556 S
C16 H15 1.016 1_554 S
C16 N23 1.286 1_655 S
C17 H12 0.930 . S
C17 C18 1.397 . S
C17 C19 1.361 . S
C18 C17 1.397 . S
C18 C22 1.390 1_455 S
C19 C17 1.361 . S
C19 C20 1.393 . S
C19 N23 1.413 . S
C20 H13 0.930 . S
C20 C19 1.393 . S
C20 C21 1.399 . S
C21 C20 1.399 . S
C21 C22 1.381 1_455 S
C22 H14 0.930 . S
C22 C18 1.390 1_655 S
C22 C21 1.381 1_655 S
N23 C16 1.286 1_455 S
N23 C19 1.413 . S
H24 C29 0.930 . S
H25 C32 0.930 1_556 S
H26 C34 0.930 . S
H27 C28 1.016 1_556 S
C28 H27 1.016 1_554 S
C28 N35 1.286 1_565 S
C29 H24 0.930 . S
C29 C30 1.397 . S
C29 C31 1.361 . S
C30 C29 1.397 . S
C30 C34 1.390 1_545 S
C31 C29 1.361 . S
C31 C32 1.393 . S
C31 N35 1.413 . S
C32 H25 0.930 1_554 S
C32 C31 1.393 . S
C32 C33 1.404 . S
C33 C32 1.404 . S
C33 C34 1.378 1_545 S
C34 H26 0.930 . S
C34 C30 1.390 1_565 S
C34 C33 1.378 1_565 S
N35 C28 1.286 1_545 S
N35 C31 1.413 . S
H36 C41 0.930 . S
H37 C44 0.930 . S
H38 C46 0.930 . S
H39 C40 1.016 . S
C40 H39 1.016 . S
C40 N47 1.286 1_556 S
C41 H36 0.930 . S
C41 C42 1.397 . S
C41 C43 1.361 . S
C42 C41 1.397 . S
C42 C46 1.390 . S
C43 C41 1.361 . S
C43 C44 1.393 1_554 S
C43 N47 1.413 . S
C44 H37 0.930 . S
C44 C43 1.393 1_556 S
C44 C45 1.399 . S
C45 C44 1.399 . S
C45 C46 1.381 1_556 S
C46 H38 0.930 . S
C46 C42 1.390 . S
C46 C45 1.381 1_554 S
N47 C40 1.286 1_554 S
N47 C43 1.413 . S
H48 C53 0.930 . S
H49 C56 0.930 . S
H50 C58 0.930 . S
H51 C52 1.016 . S
C52 H51 1.016 . S
C52 N59 1.286 . S
C53 H48 0.930 . S
C53 C54 1.397 . S
C53 C55 1.361 . S
C54 C53 1.397 . S
C54 C58 1.390 . S
C55 C53 1.361 . S
C55 C56 1.393 . S
C55 N59 1.413 . S
C56 H49 0.930 . S
C56 C55 1.393 . S
C56 C57 1.399 . S
C57 C56 1.399 . S
C57 C58 1.381 . S
C58 H50 0.930 . S
C58 C54 1.390 . S
C58 C57 1.381 . S
N59 C52 1.286 . S
N59 C55 1.413 . S
H60 C65 0.930 . S
H61 C68 0.930 . S
H62 C70 0.930 . S
H63 C64 1.016 . S
C64 H63 1.016 . S
C64 N71 1.286 . S
C65 H60 0.930 . S
C65 C66 1.397 . S
C65 C67 1.361 . S
C66 C65 1.397 . S
C66 C70 1.390 . S
C67 C65 1.361 . S
C67 C68 1.393 . S
C67 N71 1.413 . S
C68 H61 0.930 . S
C68 C67 1.393 . S
C68 C69 1.399 . S
C69 C68 1.399 . S
C69 C70 1.381 . S
C70 H62 0.930 . S
C70 C66 1.390 . S
C70 C69 1.381 . S
N71 C64 1.286 . S
N71 C67 1.413 . S
H72 C77 0.930 . S
H73 C80 0.930 . S
H74 C82 0.930 . S
H75 C76 1.016 . S
C76 H75 1.016 . S
C76 N83 1.286 . S
C77 H72 0.930 . S
C77 C78 1.397 . S
C77 C79 1.361 . S
C78 C77 1.397 . S
C78 C82 1.390 . S
C79 C77 1.361 . S
C79 C80 1.393 . S
C79 N83 1.413 . S
C80 H73 0.930 . S
C80 C79 1.393 . S
C80 C81 1.399 . S
C81 C80 1.399 . S
C81 C82 1.381 . S
C82 H74 0.930 . S
C82 C78 1.390 . S
C82 C81 1.381 . S
N83 C76 1.286 . S
N83 C79 1.413 . S
H84 C89 0.930 . S
H85 C92 0.930 . S
H86 C94 0.930 . S
H87 C88 1.016 . S
C88 H87 1.016 . S
C88 N95 1.286 . S
C89 H84 0.930 . S
C89 C90 1.397 . S
C89 C91 1.361 . S
C90 C89 1.397 . S
C90 C94 1.390 . S
C91 C89 1.361 . S
C91 C92 1.393 . S
C91 N95 1.413 . S
C92 H85 0.930 . S
C92 C91 1.393 . S
C92 C93 1.399 . S
C93 C92 1.399 . S
C93 C94 1.381 . S
C94 H86 0.930 . S
C94 C90 1.390 . S
C94 C93 1.381 . S
N95 C88 1.286 . S
N95 C91 1.413 . S
O96 Zn97 1.956 . S
O96 C112 1.225 1_545 S
Zn97 O96 1.956 . S
Zn97 O98 1.948 1_545 S
Zn97 O104 1.949 . S
Zn97 O109 1.888 1_545 S
O98 Zn97 1.948 1_565 S
O98 Zn99 1.901 1_465 S
O98 Zn100 1.952 . S
O98 Zn101 1.965 1_455 S
Zn99 O98 1.901 1_645 S
Zn99 O102 1.933 . S
Zn99 O105 1.941 1_655 S
Zn99 O106 1.965 . S
Zn100 O98 1.952 . S
Zn100 O107 1.938 1_565 S
Zn100 O108 1.906 . S
Zn100 O118 1.953 . S
Zn101 O98 1.965 1_655 S
Zn101 O103 1.932 . S
Zn101 O110 1.977 . S
Zn101 O111 1.910 1_655 S
O102 Zn99 1.933 . S
O102 C113 1.226 . S
O103 Zn101 1.932 . S
O103 C113 1.307 1_565 S
O104 Zn97 1.949 . S
O104 C115 1.253 . S
O105 Zn99 1.941 1_455 S
O105 C115 1.283 . S
O106 Zn99 1.965 . S
O106 C114 1.303 1_655 S
O107 Zn100 1.938 1_545 S
O107 C114 1.247 . S
O108 Zn100 1.906 . S
O108 C116 1.304 1_455 S
O109 Zn97 1.888 1_565 S
O109 C117 1.311 . S
O110 Zn101 1.977 . S
O110 C116 1.272 . S
O111 Zn101 1.910 1_455 S
O111 C117 1.231 . S
C112 O96 1.225 1_565 S
C112 O118 1.298 . S
C113 O102 1.226 . S
C113 O103 1.307 1_545 S
C114 O106 1.303 1_455 S
C114 O107 1.247 . S
C115 O104 1.253 . S
C115 O105 1.283 . S
C116 O108 1.304 1_655 S
C116 O110 1.272 . S
C117 O109 1.311 . S
C117 O111 1.231 . S
O118 Zn100 1.953 . S
O118 C112 1.298 . S
O119 Zn120 1.953 . S
O119 C135 1.225 . S
Zn120 O119 1.953 . S
Zn120 O121 1.949 . S
Zn120 O127 1.919 . S
Zn120 O132 1.924 . S
O121 Zn120 1.949 . S
O121 Zn122 1.923 1_545 S
O121 Zn123 1.950 . S
O121 Zn124 1.945 1_545 S
Zn122 O121 1.923 1_565 S
Zn122 O125 1.933 . S
Zn122 O128 1.941 . S
Zn122 O129 1.965 . S
Zn123 O121 1.950 . S
Zn123 O130 1.938 . S
Zn123 O131 1.906 . S
Zn123 O141 1.953 . S
Zn124 O121 1.945 1_565 S
Zn124 O126 1.932 . S
Zn124 O133 1.977 . S
Zn124 O134 1.910 1_565 S
O125 Zn122 1.933 . S
O125 C136 1.226 . S
O126 Zn124 1.932 . S
O126 C136 1.307 . S
O127 Zn120 1.919 . S
O127 C138 1.253 . S
O128 Zn122 1.941 . S
O128 C138 1.283 1_565 S
O129 Zn122 1.965 . S
O129 C137 1.303 1_565 S
O130 Zn123 1.938 . S
O130 C137 1.247 . S
O131 Zn123 1.906 . S
O131 C139 1.304 1_545 S
O132 Zn120 1.924 . S
O132 C140 1.311 . S
O133 Zn124 1.977 . S
O133 C139 1.272 . S
O134 Zn124 1.910 1_545 S
O134 C140 1.231 . S
C135 O119 1.225 . S
C135 O141 1.298 . S
C136 O125 1.226 . S
C136 O126 1.307 . S
C137 O129 1.303 1_545 S
C137 O130 1.247 . S
C138 O127 1.253 . S
C138 O128 1.283 1_545 S
C139 O131 1.304 1_565 S
C139 O133 1.272 . S
C140 O132 1.311 . S
C140 O134 1.231 . S
O141 Zn123 1.953 . S
O141 C135 1.298 . S
O142 Zn143 1.953 . S
O142 C158 1.225 . S
Zn143 O142 1.953 . S
Zn143 O144 1.949 . S
Zn143 O150 1.919 . S
Zn143 O155 1.924 . S
O144 Zn143 1.949 . S
O144 Zn145 1.923 . S
O144 Zn146 1.950 . S
O144 Zn147 1.945 . S
Zn145 O144 1.923 . S
Zn145 O148 1.933 . S
Zn145 O151 1.941 . S
Zn145 O152 1.965 . S
Zn146 O144 1.950 . S
Zn146 O153 1.938 . S
Zn146 O154 1.906 . S
Zn146 O164 1.953 . S
Zn147 O144 1.945 . S
Zn147 O149 1.932 . S
Zn147 O156 1.977 . S
Zn147 O157 1.910 . S
O148 Zn145 1.933 . S
O148 C159 1.226 . S
O149 Zn147 1.932 . S
O149 C159 1.307 . S
O150 Zn143 1.919 . S
O150 C161 1.253 . S
O151 Zn145 1.941 . S
O151 C161 1.283 . S
O152 Zn145 1.965 . S
O152 C160 1.303 . S
O153 Zn146 1.938 . S
O153 C160 1.247 . S
O154 Zn146 1.906 . S
O154 C162 1.304 . S
O155 Zn143 1.924 . S
O155 C163 1.311 . S
O156 Zn147 1.977 . S
O156 C162 1.272 . S
O157 Zn147 1.910 . S
O157 C163 1.231 . S
C158 O142 1.225 . S
C158 O164 1.298 . S
C159 O148 1.226 . S
C159 O149 1.307 . S
C160 O152 1.303 . S
C160 O153 1.247 . S
C161 O150 1.253 . S
C161 O151 1.283 . S
C162 O154 1.304 . S
C162 O156 1.272 . S
C163 O155 1.311 . S
C163 O157 1.231 . S
O164 Zn146 1.953 . S
O164 C158 1.298 . S
O165 Zn166 1.921 1_655 S
O165 C181 1.225 . S
Zn166 O165 1.921 1_455 S
Zn166 O167 1.949 . S
Zn166 O173 1.919 . S
Zn166 O178 1.958 . S
O167 Zn166 1.949 . S
O167 Zn168 1.918 1_455 S
O167 Zn169 1.929 1_455 S
O167 Zn170 1.973 . S
Zn168 O167 1.918 1_655 S
Zn168 O171 1.933 1_655 S
Zn168 O174 1.941 . S
Zn168 O175 1.965 . S
Zn169 O167 1.929 1_655 S
Zn169 O176 1.938 . S
Zn169 O177 1.906 . S
Zn169 O187 1.953 . S
Zn170 O167 1.973 . S
Zn170 O172 1.932 . S
Zn170 O179 1.977 . S
Zn170 O180 1.910 . S
O171 Zn168 1.933 1_455 S
O171 C182 1.226 . S
O172 Zn170 1.932 . S
O172 C182 1.307 . S
O173 Zn166 1.919 . S
O173 C184 1.253 . S
O174 Zn168 1.941 . S
O174 C184 1.283 1_655 S
O175 Zn168 1.965 . S
O175 C183 1.303 . S
O176 Zn169 1.938 . S
O176 C183 1.247 . S
O177 Zn169 1.906 . S
O177 C185 1.304 1_655 S
O178 Zn166 1.958 . S
O178 C186 1.311 . S
O179 Zn170 1.977 . S
O179 C185 1.272 . S
O180 Zn170 1.910 . S
O180 C186 1.231 . S
C181 O165 1.225 . S
C181 O187 1.298 . S
C182 O171 1.226 . S
C182 O172 1.307 . S
C183 O175 1.303 . S
C183 O176 1.247 . S
C184 O173 1.253 . S
C184 O174 1.283 1_455 S
C185 O177 1.304 1_455 S
C185 O179 1.272 . S
C186 O178 1.311 . S
C186 O180 1.231 . S
O187 Zn169 1.953 . S
O187 C181 1.298 . S
H188 C194 0.930 . S
H189 C198 0.930 . S
H190 C203 0.929 . S
H191 C201 0.929 . S
H192 C196 0.929 . S
H193 C202 0.929 . S
C194 H188 0.930 . S
C194 C195 1.367 . S
C194 C202 1.378 . S
C195 C194 1.367 . S
C195 C203 1.433 1_545 S
C196 H192 0.929 . S
C196 C198 1.378 . S
C196 C200 1.350 1_565 S
C197 C200 1.463 . S
C197 C202 1.350 . S
C197 N205 1.427 1_545 S
C198 H189 0.930 . S
C198 C196 1.378 . S
C198 C199 1.367 . S
C199 C198 1.367 . S
C199 C201 1.433 1_565 S
C200 C196 1.350 1_545 S
C200 C197 1.463 . S
C200 N204 1.427 . S
C201 H191 0.929 . S
C201 C199 1.433 1_545 S
C201 N204 1.384 . S
C202 H193 0.929 . S
C202 C194 1.378 . S
C202 C197 1.350 . S
C203 H190 0.929 . S
C203 C195 1.433 1_565 S
C203 N205 1.384 . S
N204 C200 1.427 . S
N204 C201 1.384 . S
N205 C197 1.427 1_565 S
N205 C203 1.384 . S
H206 C212 0.930 . S
H207 C216 0.930 . S
H208 C221 0.929 . S
H209 C219 0.929 . S
H210 C214 0.929 . S
H211 C220 0.929 . S
C212 H206 0.930 . S
C212 C213 1.367 . S
C212 C220 1.378 . S
C213 C212 1.367 . S
C213 C221 1.433 . S
C214 H210 0.929 . S
C214 C216 1.378 . S
C214 C218 1.350 . S
C215 C218 1.463 . S
C215 C220 1.350 . S
C215 N223 1.427 . S
C216 H207 0.930 . S
C216 C214 1.378 . S
C216 C217 1.367 . S
C217 C216 1.367 . S
C217 C219 1.433 . S
C218 C214 1.350 . S
C218 C215 1.463 . S
C218 N222 1.427 . S
C219 H209 0.929 . S
C219 C217 1.433 . S
C219 N222 1.384 . S
C220 H211 0.929 . S
C220 C212 1.378 . S
C220 C215 1.350 . S
C221 H208 0.929 . S
C221 C213 1.433 . S
C221 N223 1.384 . S
N222 C218 1.427 . S
N222 C219 1.384 . S
N223 C215 1.427 . S
N223 C221 1.384 . S
H224 C230 0.930 . S
H225 C234 0.930 . S
H226 C239 0.929 . S
H227 C237 0.929 . S
H228 C232 0.929 . S
H229 C238 0.929 . S
C230 H224 0.930 . S
C230 C231 1.367 . S
C230 C238 1.378 . S
C231 C230 1.367 . S
C231 C239 1.433 . S
C232 H228 0.929 . S
C232 C234 1.378 . S
C232 C236 1.350 . S
C233 C236 1.463 . S
C233 C238 1.350 . S
C233 N241 1.427 . S
C234 H225 0.930 . S
C234 C232 1.378 . S
C234 C235 1.367 . S
C235 C234 1.367 . S
C235 C237 1.433 . S
C236 C232 1.350 . S
C236 C233 1.463 . S
C236 N240 1.427 . S
C237 H227 0.929 . S
C237 C235 1.433 . S
C237 N240 1.384 . S
C238 H229 0.929 . S
C238 C230 1.378 . S
C238 C233 1.350 . S
C239 H226 0.929 . S
C239 C231 1.433 . S
C239 N241 1.384 . S
N240 C236 1.427 . S
N240 C237 1.384 . S
N241 C233 1.427 . S
N241 C239 1.384 . S
H242 C248 0.930 . S
H243 C252 0.930 . S
H244 C257 0.929 . S
H245 C255 0.929 . S
H246 C250 0.929 . S
H247 C256 0.929 1_655 S
C248 H242 0.930 . S
C248 C249 1.367 . S
C248 C256 1.378 . S
C249 C248 1.367 . S
C249 C257 1.433 . S
C250 H246 0.929 . S
C250 C252 1.378 . S
C250 C254 1.350 . S
C251 C254 1.463 . S
C251 C256 1.350 . S
C251 N259 1.427 . S
C252 H243 0.930 . S
C252 C250 1.378 . S
C252 C253 1.367 . S
C253 C252 1.367 . S
C253 C255 1.433 1_455 S
C254 C250 1.350 . S
C254 C251 1.463 . S
C254 N258 1.427 . S
C255 H245 0.929 . S
C255 C253 1.433 1_655 S
C255 N258 1.384 1_655 S
C256 H247 0.929 1_455 S
C256 C248 1.378 . S
C256 C251 1.350 . S
C257 H244 0.929 . S
C257 C249 1.433 . S
C257 N259 1.384 . S
N258 C254 1.427 . S
N258 C255 1.384 1_455 S
N259 C251 1.427 . S
N259 C257 1.384 . S
H260 C266 0.930 . S
H261 C270 0.930 . S
H262 C275 0.929 . S
H263 C273 0.929 . S
H264 C268 0.929 . S
H265 C274 0.929 . S
C266 H260 0.930 . S
C266 C267 1.377 . S
C266 C274 1.378 . S
C267 C266 1.377 . S
C267 C275 1.423 1_566 S
C268 H264 0.929 . S
C268 C270 1.378 . S
C268 C272 1.350 . S
C269 C272 1.463 . S
C269 C274 1.348 1_545 S
C269 N277 1.429 . S
C270 H261 0.930 . S
C270 C268 1.378 . S
C270 C271 1.367 . S
C271 C270 1.367 . S
C271 C273 1.433 1_545 S
C272 C268 1.350 . S
C272 C269 1.463 . S
C272 N276 1.427 1_545 S
C273 H263 0.929 . S
C273 C271 1.433 1_565 S
C273 N276 1.384 . S
C274 H265 0.929 . S
C274 C266 1.378 . S
C274 C269 1.348 1_565 S
C275 H262 0.929 . S
C275 C267 1.423 1_544 S
C275 N277 1.384 1_554 S
N276 C272 1.427 1_565 S
N276 C273 1.384 . S
N277 C269 1.429 . S
N277 C275 1.384 1_556 S
H278 C284 0.930 . S
H279 C288 0.930 . S
H280 C293 0.929 1_554 S
H281 C291 0.929 . S
H282 C286 0.929 . S
H283 C292 0.929 . S
C284 H278 0.930 . S
C284 C285 1.367 . S
C284 C292 1.378 . S
C285 C284 1.367 . S
C285 C293 1.433 . S
C286 H282 0.929 . S
C286 C288 1.378 . S
C286 C290 1.350 . S
C287 C290 1.463 . S
C287 C292 1.350 . S
C287 N295 1.427 . S
C288 H279 0.930 . S
C288 C286 1.378 . S
C288 C289 1.367 . S
C289 C288 1.367 . S
C289 C291 1.433 . S
C290 C286 1.350 . S
C290 C287 1.463 . S
C290 N294 1.427 . S
C291 H281 0.929 . S
C291 C289 1.433 . S
C291 N294 1.384 . S
C292 H283 0.929 . S
C292 C284 1.378 . S
C292 C287 1.350 . S
C293 H280 0.929 1_556 S
C293 C285 1.433 . S
C293 N295 1.384 . S
N294 C290 1.427 . S
N294 C291 1.384 . S
N295 C287 1.427 . S
N295 C293 1.384 . S
H296 C302 0.930 . S
H297 C306 0.930 . S
H298 C311 0.929 . S
H299 C309 0.929 . S
H300 C304 0.929 . S
H301 C310 0.929 . S
C302 H296 0.930 . S
C302 C303 1.367 . S
C302 C310 1.378 . S
C303 C302 1.367 . S
C303 C311 1.433 . S
C304 H300 0.929 . S
C304 C306 1.378 . S
C304 C308 1.350 . S
C305 C308 1.463 . S
C305 C310 1.350 . S
C305 N313 1.427 . S
C306 H297 0.930 . S
C306 C304 1.378 . S
C306 C307 1.367 . S
C307 C306 1.367 . S
C307 C309 1.433 . S
C308 C304 1.350 . S
C308 C305 1.463 . S
C308 N312 1.427 . S
C309 H299 0.929 . S
C309 C307 1.433 . S
C309 N312 1.384 . S
C310 H301 0.929 . S
C310 C302 1.378 . S
C310 C305 1.350 . S
C311 H298 0.929 . S
C311 C303 1.433 . S
C311 N313 1.384 . S
N312 C308 1.427 . S
N312 C309 1.384 . S
N313 C305 1.427 . S
N313 C311 1.384 . S
H314 C320 0.930 . S
H315 C324 0.930 . S
H316 C329 0.929 . S
H317 C327 0.929 . S
H318 C322 0.929 . S
H319 C328 0.929 . S
C320 H314 0.930 . S
C320 C321 1.367 1_456 S
C320 C328 1.378 . S
C321 C320 1.367 1_654 S
C321 C329 1.433 . S
C322 H318 0.929 . S
C322 C324 1.378 . S
C322 C326 1.350 1_655 S
C323 C326 1.463 . S
C323 C328 1.350 . S
C323 N331 1.427 1_455 S
C324 H315 0.930 . S
C324 C322 1.378 . S
C324 C325 1.367 1_655 S
C325 C324 1.367 1_455 S
C325 C327 1.433 . S
C326 C322 1.350 1_455 S
C326 C323 1.463 . S
C326 N330 1.427 . S
C327 H317 0.929 . S
C327 C325 1.433 . S
C327 N330 1.384 . S
C328 H319 0.929 . S
C328 C320 1.378 . S
C328 C323 1.350 . S
C329 H316 0.929 . S
C329 C321 1.433 . S
C329 N331 1.384 1_554 S
N330 C326 1.427 . S
N330 C327 1.384 . S
N331 C323 1.427 1_655 S
N331 C329 1.384 1_556 S
H332 C338 0.930 . S
H333 C342 0.930 . S
H334 C347 0.929 . S
H335 C345 0.929 . S
H336 C340 0.929 . S
H337 C346 0.929 . S
C338 H332 0.930 . S
C338 C339 1.367 . S
C338 C346 1.378 . S
C339 C338 1.367 . S
C339 C347 1.433 . S
C340 H336 0.929 . S
C340 C342 1.378 . S
C340 C344 1.350 . S
C341 C344 1.463 . S
C341 C346 1.350 . S
C341 N349 1.427 . S
C342 H333 0.930 . S
C342 C340 1.378 . S
C342 C343 1.367 . S
C343 C342 1.367 . S
C343 C345 1.433 . S
C344 C340 1.350 . S
C344 C341 1.463 . S
C344 N348 1.427 . S
C345 H335 0.929 . S
C345 C343 1.433 . S
C345 N348 1.384 . S
C346 H337 0.929 . S
C346 C338 1.378 . S
C346 C341 1.350 . S
C347 H334 0.929 . S
C347 C339 1.433 . S
C347 N349 1.384 . S
N348 C344 1.427 . S
N348 C345 1.384 . S
N349 C341 1.427 . S
N349 C347 1.384 . S
H350 C356 0.930 . S
H351 C360 0.930 . S
H352 C365 0.929 . S
H353 C363 0.929 . S
H354 C358 0.929 . S
H355 C364 0.929 . S
C356 H350 0.930 . S
C356 C357 1.367 . S
C356 C364 1.378 . S
C357 C356 1.367 . S
C357 C365 1.433 1_545 S
C358 H354 0.929 . S
C358 C360 1.378 . S
C358 C362 1.350 1_565 S
C359 C362 1.463 . S
C359 C364 1.350 . S
C359 N367 1.427 1_545 S
C360 H351 0.930 . S
C360 C358 1.378 . S
C360 C361 1.367 1_565 S
C361 C360 1.367 1_545 S
C361 C363 1.433 . S
C362 C358 1.350 1_545 S
C362 C359 1.463 . S
C362 N366 1.427 . S
C363 H353 0.929 . S
C363 C361 1.433 . S
C363 N366 1.384 . S
C364 H355 0.929 . S
C364 C356 1.378 . S
C364 C359 1.350 . S
C365 H352 0.929 . S
C365 C357 1.433 1_565 S
C365 N367 1.384 . S
N366 C362 1.427 . S
N366 C363 1.384 . S
N367 C359 1.427 1_565 S
N367 C365 1.384 . S
H368 C374 0.930 . S
H369 C378 0.930 . S
H370 C383 0.929 . S
H371 C381 0.929 . S
H372 C376 0.929 . S
H373 C382 0.929 . S
C374 H368 0.930 . S
C374 C375 1.367 . S
C374 C382 1.378 . S
C375 C374 1.367 . S
C375 C383 1.433 . S
C376 H372 0.929 . S
C376 C378 1.378 . S
C376 C380 1.350 . S
C377 C380 1.463 . S
C377 C382 1.350 . S
C377 N385 1.427 . S
C378 H369 0.930 . S
C378 C376 1.378 . S
C378 C379 1.367 . S
C379 C378 1.367 . S
C379 C381 1.433 . S
C380 C376 1.350 . S
C380 C377 1.463 . S
C380 N384 1.427 . S
C381 H371 0.929 . S
C381 C379 1.433 . S
C381 N384 1.384 . S
C382 H373 0.929 . S
C382 C374 1.378 . S
C382 C377 1.350 . S
C383 H370 0.929 . S
C383 C375 1.433 . S
C383 N385 1.384 . S
N384 C380 1.427 . S
N384 C381 1.384 . S
N385 C377 1.427 . S
N385 C383 1.384 . S
H386 C392 0.930 . S
H387 C396 0.930 . S
H388 C401 0.929 . S
H389 C399 0.929 . S
H390 C394 0.929 . S
H391 C400 0.929 . S
C392 H386 0.930 . S
C392 C393 1.367 . S
C392 C400 1.378 . S
C393 C392 1.367 . S
C393 C401 1.433 . S
C394 H390 0.929 . S
C394 C396 1.378 . S
C394 C398 1.350 . S
C395 C398 1.463 . S
C395 C400 1.350 . S
C395 N403 1.427 . S
C396 H387 0.930 . S
C396 C394 1.378 . S
C396 C397 1.367 . S
C397 C396 1.367 . S
C397 C399 1.433 . S
C398 C394 1.350 . S
C398 C395 1.463 . S
C398 N402 1.427 . S
C399 H389 0.929 . S
C399 C397 1.433 . S
C399 N402 1.384 . S
C400 H391 0.929 . S
C400 C392 1.378 . S
C400 C395 1.350 . S
C401 H388 0.929 . S
C401 C393 1.433 . S
C401 N403 1.384 . S
N402 C398 1.427 . S
N402 C399 1.384 . S
N403 C395 1.427 . S
N403 C401 1.384 . S
H404 C410 0.930 . S
H405 C414 0.930 . S
H406 C419 0.929 . S
H407 C417 0.929 . S
H408 C412 0.929 . S
H409 C418 0.929 . S
C410 H404 0.930 . S
C410 C411 1.362 1_656 S
C410 C418 1.378 . S
C411 C410 1.362 1_454 S
C411 C419 1.440 . S
C412 H408 0.929 . S
C412 C414 1.378 . S
C412 C416 1.350 . S
C413 C416 1.463 . S
C413 C418 1.350 1_455 S
C413 N421 1.427 1_556 S
C414 H405 0.930 . S
C414 C412 1.378 . S
C414 C415 1.367 . S
C415 C414 1.367 . S
C415 C417 1.433 . S
C416 C412 1.350 . S
C416 C413 1.463 . S
C416 N420 1.427 . S
C417 H407 0.929 . S
C417 C415 1.433 . S
C417 N420 1.384 . S
C418 H409 0.929 . S
C418 C410 1.378 . S
C418 C413 1.350 1_655 S
C419 H406 0.929 . S
C419 C411 1.440 . S
C419 N421 1.384 . S
N420 C416 1.427 . S
N420 C417 1.384 . S
N421 C413 1.427 1_554 S
N421 C419 1.384 . S
H422 C428 0.930 . S
H423 C432 0.930 1_565 S
H424 C437 0.929 . S
H425 C435 0.929 . S
H426 C430 0.919 1_565 S
H427 C436 0.929 . S
C428 H422 0.930 . S
C428 C429 1.387 . S
C428 C436 1.378 . S
C429 C428 1.387 . S
C429 C437 1.418 1_545 S
C430 H426 0.919 1_545 S
C430 C432 1.380 . S
C430 C434 1.357 . S
C431 C434 1.463 . S
C431 C436 1.350 . S
C431 N439 1.427 1_545 S
C432 H423 0.930 1_545 S
C432 C430 1.380 . S
C432 C433 1.367 . S
C433 C432 1.367 . S
C433 C435 1.433 . S
C434 C430 1.357 . S
C434 C431 1.463 . S
C434 N438 1.427 . S
C435 H425 0.929 . S
C435 C433 1.433 . S
C435 N438 1.384 . S
C436 H427 0.929 . S
C436 C428 1.378 . S
C436 C431 1.350 . S
C437 H424 0.929 . S
C437 C429 1.418 1_565 S
C437 N439 1.384 . S
N438 C434 1.427 . S
N438 C435 1.384 . S
N439 C431 1.427 1_565 S
N439 C437 1.384 . S
H440 C446 0.930 . S
H441 C450 0.930 . S
H442 C455 0.929 . S
H443 C453 0.929 . S
H444 C448 0.929 . S
H445 C454 0.923 1_554 S
C446 H440 0.930 . S
C446 C447 1.367 1_554 S
C446 C454 1.378 1_554 S
C447 C446 1.367 1_556 S
C447 C455 1.433 . S
C448 H444 0.929 . S
C448 C450 1.378 . S
C448 C452 1.350 . S
C449 C452 1.463 . S
C449 C454 1.350 . S
C449 N457 1.427 . S
C450 H441 0.930 . S
C450 C448 1.378 . S
C450 C451 1.367 . S
C451 C450 1.367 . S
C451 C453 1.433 . S
C452 C448 1.350 . S
C452 C449 1.463 . S
C452 N456 1.427 . S
C453 H443 0.929 . S
C453 C451 1.433 . S
C453 N456 1.384 . S
C454 H445 0.923 1_556 S
C454 C446 1.378 1_556 S
C454 C449 1.350 . S
C455 H442 0.929 . S
C455 C447 1.433 . S
C455 N457 1.384 . S
N456 C452 1.427 . S
N456 C453 1.384 . S
N457 C449 1.427 . S
N457 C455 1.384 . S
H458 C464 0.930 . S
H459 C468 0.930 . S
H460 C473 0.929 . S
H461 C471 0.929 . S
H462 C466 0.929 . S
H463 C472 0.929 . S
C464 H458 0.930 . S
C464 C465 1.367 . S
C464 C472 1.378 . S
C465 C464 1.367 . S
C465 C473 1.433 . S
C466 H462 0.929 . S
C466 C468 1.378 . S
C466 C470 1.350 . S
C467 C470 1.463 . S
C467 C472 1.350 . S
C467 N475 1.427 . S
C468 H459 0.930 . S
C468 C466 1.378 . S
C468 C469 1.367 . S
C469 C468 1.367 . S
C469 C471 1.433 . S
C470 C466 1.350 . S
C470 C467 1.463 . S
C470 N474 1.427 . S
C471 H461 0.929 . S
C471 C469 1.433 . S
C471 N474 1.384 . S
C472 H463 0.929 . S
C472 C464 1.378 . S
C472 C467 1.350 . S
C473 H460 0.929 . S
C473 C465 1.433 . S
C473 N475 1.384 . S
N474 C470 1.427 . S
N474 C471 1.384 . S
N475 C467 1.427 . S
N475 C473 1.384 . S
H476 C482 0.930 . S
H477 C486 0.930 . S
H478 C491 0.959 . S
H479 C489 0.929 . S
H480 C484 0.929 1_655 S
H481 C490 0.929 . S
C482 H476 0.930 . S
C482 C483 1.367 . S
C482 C490 1.378 . S
C483 C482 1.367 . S
C483 C491 1.433 . S
C484 H480 0.929 1_455 S
C484 C486 1.378 1_454 S
C484 C488 1.350 . S
C485 C488 1.463 . S
C485 C490 1.350 . S
C485 N493 1.427 . S
C486 H477 0.930 . S
C486 C484 1.378 1_656 S
C486 C487 1.367 1_655 S
C487 C486 1.367 1_455 S
C487 C489 1.433 . S
C488 C484 1.350 . S
C488 C485 1.463 . S
C488 N492 1.427 1_554 S
C489 H479 0.929 . S
C489 C487 1.433 . S
C489 N492 1.384 . S
C490 H481 0.929 . S
C490 C482 1.378 . S
C490 C485 1.350 . S
C491 H478 0.959 . S
C491 C483 1.433 . S
C491 N493 1.384 . S
N492 C488 1.427 1_556 S
N492 C489 1.384 . S
N493 C485 1.427 . S
N493 C491 1.384 . S
H494 C500 0.930 . S
H495 C504 0.930 . S
H496 C509 0.929 . S
H497 C507 0.929 . S
H498 C502 0.929 . S
H499 C508 0.929 . S
C500 H494 0.930 . S
C500 C501 1.367 1_565 S
C500 C508 1.378 . S
C501 C500 1.367 1_545 S
C501 C509 1.433 . S
C502 H498 0.929 . S
C502 C504 1.378 . S
C502 C506 1.350 . S
C503 C506 1.463 1_554 S
C503 C508 1.350 1_545 S
C503 N511 1.427 . S
C504 H495 0.930 . S
C504 C502 1.378 . S
C504 C505 1.367 . S
C505 C504 1.367 . S
C505 C507 1.433 1_545 S
C506 C502 1.350 . S
C506 C503 1.463 1_556 S
C506 N510 1.427 1_546 S
C507 H497 0.929 . S
C507 C505 1.433 1_565 S
C507 N510 1.384 1_556 S
C508 H499 0.929 . S
C508 C500 1.378 . S
C508 C503 1.350 1_565 S
C509 H496 0.929 . S
C509 C501 1.433 . S
C509 N511 1.384 . S
N510 C506 1.427 1_564 S
N510 C507 1.384 1_554 S
N511 C503 1.427 . S
N511 C509 1.384 . S
H512 C518 0.930 . S
H513 C522 0.930 . S
H514 C527 0.929 . S
H515 C525 0.929 . S
H516 C520 0.929 . S
H517 C526 0.929 . S
C518 H512 0.930 . S
C518 C519 1.367 . S
C518 C526 1.378 . S
C519 C518 1.367 . S
C519 C527 1.433 . S
C520 H516 0.929 . S
C520 C522 1.378 . S
C520 C524 1.350 . S
C521 C524 1.463 1_554 S
C521 C526 1.350 . S
C521 N529 1.427 1_554 S
C522 H513 0.930 . S
C522 C520 1.378 . S
C522 C523 1.367 . S
C523 C522 1.367 . S
C523 C525 1.433 . S
C524 C520 1.350 . S
C524 C521 1.463 1_556 S
C524 N528 1.427 . S
C525 H515 0.929 . S
C525 C523 1.433 . S
C525 N528 1.384 . S
C526 H517 0.929 . S
C526 C518 1.378 . S
C526 C521 1.350 . S
C527 H514 0.929 . S
C527 C519 1.433 . S
C527 N529 1.384 1_554 S
N528 C524 1.427 . S
N528 C525 1.384 . S
N529 C521 1.427 1_556 S
N529 C527 1.384 1_556 S
H530 C536 0.930 . S
H531 C540 0.930 . S
H532 C545 0.929 . S
H533 C543 0.929 . S
H534 C538 0.929 . S
H535 C544 0.929 . S
C536 H530 0.930 . S
C536 C537 1.367 . S
C536 C544 1.378 . S
C537 C536 1.367 . S
C537 C545 1.433 . S
C538 H534 0.929 . S
C538 C540 1.378 . S
C538 C542 1.350 . S
C539 C542 1.463 1_554 S
C539 C544 1.350 . S
C539 N547 1.427 . S
C540 H531 0.930 . S
C540 C538 1.378 . S
C540 C541 1.367 . S
C541 C540 1.367 . S
C541 C543 1.433 . S
C542 C538 1.350 . S
C542 C539 1.463 1_556 S
C542 N546 1.427 . S
C543 H533 0.929 . S
C543 C541 1.433 . S
C543 N546 1.384 . S
C544 H535 0.929 . S
C544 C536 1.378 . S
C544 C539 1.350 . S
C545 H532 0.929 . S
C545 C537 1.433 . S
C545 N547 1.384 . S
N546 C542 1.427 . S
N546 C543 1.384 . S
N547 C539 1.427 . S
N547 C545 1.384 . S
H548 C554 0.930 . S
H549 C558 0.930 . S
H550 C563 0.929 . S
H551 C561 0.917 1_455 S
H552 C556 0.929 . S
H553 C562 0.929 . S
C554 H548 0.930 . S
C554 C555 1.353 1_455 S
C554 C562 1.378 . S
C555 C554 1.353 1_655 S
C555 C563 1.452 . S
C556 H552 0.929 . S
C556 C558 1.378 . S
C556 C560 1.350 . S
C557 C560 1.463 . S
C557 C562 1.350 1_655 S
C557 N565 1.427 . S
C558 H549 0.930 . S
C558 C556 1.378 . S
C558 C559 1.367 . S
C559 C558 1.367 . S
C559 C561 1.449 . S
C560 C556 1.350 . S
C560 C557 1.463 . S
C560 N564 1.427 1_655 S
C561 H551 0.917 1_655 S
C561 C559 1.449 . S
C561 N564 1.381 1_655 S
C562 H553 0.929 . S
C562 C554 1.378 . S
C562 C557 1.350 1_455 S
C563 H550 0.929 . S
C563 C555 1.452 . S
C563 N565 1.384 . S
N564 C560 1.427 1_455 S
N564 C561 1.381 1_455 S
N565 C557 1.427 . S
N565 C563 1.384 . S
H566 C572 0.930 . S
H567 C576 0.930 . S
H568 C581 0.929 . S
H569 C579 0.929 . S
H570 C574 0.929 . S
H571 C580 0.929 . S
C572 H566 0.930 . S
C572 C573 1.367 . S
C572 C580 1.378 . S
C573 C572 1.367 . S
C573 C581 1.433 1_565 S
C574 H570 0.929 . S
C574 C576 1.378 . S
C574 C578 1.350 1_545 S
C575 C578 1.463 . S
C575 C580 1.350 . S
C575 N583 1.427 1_565 S
C576 H567 0.930 . S
C576 C574 1.378 . S
C576 C577 1.367 1_545 S
C577 C576 1.367 1_565 S
C577 C579 1.433 . S
C578 C574 1.350 1_565 S
C578 C575 1.463 . S
C578 N582 1.427 . S
C579 H569 0.929 . S
C579 C577 1.433 . S
C579 N582 1.384 . S
C580 H571 0.929 . S
C580 C572 1.378 . S
C580 C575 1.350 . S
C581 H568 0.929 . S
C581 C573 1.433 1_545 S
C581 N583 1.384 . S
N582 C578 1.427 . S
N582 C579 1.384 . S
N583 C575 1.427 1_545 S
N583 C581 1.384 . S
H584 C590 0.930 . S
H585 C594 0.930 . S
H586 C599 0.929 . S
H587 C597 0.929 . S
H588 C592 0.929 . S
H589 C598 0.929 . S
C590 H584 0.930 . S
C590 C591 1.367 . S
C590 C598 1.378 . S
C591 C590 1.367 . S
C591 C599 1.433 . S
C592 H588 0.929 . S
C592 C594 1.378 . S
C592 C596 1.350 . S
C593 C596 1.463 . S
C593 C598 1.350 . S
C593 N601 1.427 . S
C594 H585 0.930 . S
C594 C592 1.378 . S
C594 C595 1.367 . S
C595 C594 1.367 . S
C595 C597 1.433 . S
C596 C592 1.350 . S
C596 C593 1.463 . S
C596 N600 1.427 . S
C597 H587 0.929 . S
C597 C595 1.433 . S
C597 N600 1.384 . S
C598 H589 0.929 . S
C598 C590 1.378 . S
C598 C593 1.350 . S
C599 H586 0.929 . S
C599 C591 1.433 . S
C599 N601 1.384 . S
N600 C596 1.427 . S
N600 C597 1.384 . S
N601 C593 1.427 . S
N601 C599 1.384 . S
H602 C608 0.930 . S
H603 C612 0.930 . S
H604 C617 0.929 . S
H605 C615 0.929 . S
H606 C610 0.929 . S
H607 C616 0.929 . S
C608 H602 0.930 . S
C608 C609 1.367 . S
C608 C616 1.378 . S
C609 C608 1.367 . S
C609 C617 1.433 . S
C610 H606 0.929 . S
C610 C612 1.378 . S
C610 C614 1.350 . S
C611 C614 1.463 . S
C611 C616 1.350 . S
C611 N619 1.427 . S
C612 H603 0.930 . S
C612 C610 1.378 . S
C612 C613 1.367 . S
C613 C612 1.367 . S
C613 C615 1.433 . S
C614 C610 1.350 . S
C614 C611 1.463 . S
C614 N618 1.427 . S
C615 H605 0.929 . S
C615 C613 1.433 . S
C615 N618 1.384 . S
C616 H607 0.929 . S
C616 C608 1.378 . S
C616 C611 1.350 . S
C617 H604 0.929 . S
C617 C609 1.433 . S
C617 N619 1.384 . S
N618 C614 1.427 . S
N618 C615 1.384 . S
N619 C611 1.427 . S
N619 C617 1.384 . S
C195 C76 1.551 . S
C199 C112 1.590 . S
C217 C135 1.623 . S
C213 C88 1.580 . S
C235 C158 1.640 . S
C231 C52 1.602 . S
C253 C185 1.518 . S
C249 C64 1.554 . S
C271 C113 1.565 . S
C267 C28 1.529 1_556 S
C285 C40 1.468 . S
C289 C136 1.506 . S
C303 C4 1.466 . S
C307 C159 1.497 . S
C321 C16 1.561 . S
C325 C184 1.586 . S
C343 C114 0.399 . S
C339 C69 0.506 . S
C361 C137 0.396 . S
C357 C81 0.440 . S
C379 C160 0.441 . S
C375 C93 0.495 . S
C393 C57 0.595 . S
C397 C186 0.627 . S
C411 C21 0.701 . S
C415 C117 0.714 . S
C433 C140 0.666 . S
C429 C33 0.662 1_556 S
C451 C163 0.656 . S
C447 C45 0.615 . S
C465 C9 0.451 . S
C469 C183 0.396 . S
C483 C66 1.582 . S
C487 C115 1.563 . S
C501 C78 1.527 . S
C505 C138 1.525 . S
C523 C161 1.540 . S
C519 C90 1.540 . S
C541 C182 1.389 . S
C537 C54 1.342 . S
C555 C18 1.612 1_655 S
C559 C116 1.557 . S
C577 C139 1.488 . S
C573 C30 1.562 1_565 S
C595 C162 1.475 . S
C591 C42 1.539 . S
C609 C6 1.686 . S
C613 C181 1.729 . S
