# Generated by pormake.
# Topology pto, (3,4)-cn, num edge types: 1
# Building blocks:
#     Node 0, Type 0, BuildingBlock: OLANEW_clean_sbu_2, # of connection points: 3
#     Node 1, Type 0, BuildingBlock: OLANEW_clean_sbu_2, # of connection points: 3
#     Node 2, Type 0, BuildingBlock: OLANEW_clean_sbu_2, # of connection points: 3
#     Node 3, Type 0, BuildingBlock: OLANEW_clean_sbu_2, # of connection points: 3
#     Node 4, Type 0, BuildingBlock: OLANEW_clean_sbu_2, # of connection points: 3
#     Node 5, Type 0, BuildingBlock: OLANEW_clean_sbu_2, # of connection points: 3
#     Node 6, Type 0, BuildingBlock: OLANEW_clean_sbu_2, # of connection points: 3
#     Node 7, Type 0, BuildingBlock: OLANEW_clean_sbu_2, # of connection points: 3
#     Node 8, Type 1, BuildingBlock: MIFKUJ_clean_linker_1, # of connection points: 4
#     Node 9, Type 1, BuildingBlock: MIFKUJ_clean_linker_1, # of connection points: 4
#     Node 10, Type 1, BuildingBlock: MIFKUJ_clean_linker_1, # of connection points: 4
#     Node 11, Type 1, BuildingBlock: MIFKUJ_clean_linker_1, # of connection points: 4
#     Node 12, Type 1, BuildingBlock: MIFKUJ_clean_linker_1, # of connection points: 4
#     Node 13, Type 1, BuildingBlock: MIFKUJ_clean_linker_1, # of connection points: 4
#     Edge 14, Type (0, 1), BuildingBlock: KIFKEQ_clean_linker_1, # of connection points: 2
#     Edge 15, Type (0, 1), BuildingBlock: KIFKEQ_clean_linker_1, # of connection points: 2
#     Edge 16, Type (0, 1), BuildingBlock: KIFKEQ_clean_linker_1, # of connection points: 2
#     Edge 17, Type (0, 1), BuildingBlock: KIFKEQ_clean_linker_1, # of connection points: 2
#     Edge 18, Type (0, 1), BuildingBlock: KIFKEQ_clean_linker_1, # of connection points: 2
#     Edge 19, Type (0, 1), BuildingBlock: KIFKEQ_clean_linker_1, # of connection points: 2
#     Edge 20, Type (0, 1), BuildingBlock: KIFKEQ_clean_linker_1, # of connection points: 2
#     Edge 21, Type (0, 1), BuildingBlock: KIFKEQ_clean_linker_1, # of connection points: 2
#     Edge 22, Type (0, 1), BuildingBlock: KIFKEQ_clean_linker_1, # of connection points: 2
#     Edge 23, Type (0, 1), BuildingBlock: KIFKEQ_clean_linker_1, # of connection points: 2
#     Edge 24, Type (0, 1), BuildingBlock: KIFKEQ_clean_linker_1, # of connection points: 2
#     Edge 25, Type (0, 1), BuildingBlock: KIFKEQ_clean_linker_1, # of connection points: 2
#     Edge 26, Type (0, 1), BuildingBlock: KIFKEQ_clean_linker_1, # of connection points: 2
#     Edge 27, Type (0, 1), BuildingBlock: KIFKEQ_clean_linker_1, # of connection points: 2
#     Edge 28, Type (0, 1), BuildingBlock: KIFKEQ_clean_linker_1, # of connection points: 2
#     Edge 29, Type (0, 1), BuildingBlock: KIFKEQ_clean_linker_1, # of connection points: 2
#     Edge 30, Type (0, 1), BuildingBlock: KIFKEQ_clean_linker_1, # of connection points: 2
#     Edge 31, Type (0, 1), BuildingBlock: KIFKEQ_clean_linker_1, # of connection points: 2
#     Edge 32, Type (0, 1), BuildingBlock: KIFKEQ_clean_linker_1, # of connection points: 2
#     Edge 33, Type (0, 1), BuildingBlock: KIFKEQ_clean_linker_1, # of connection points: 2
#     Edge 34, Type (0, 1), BuildingBlock: KIFKEQ_clean_linker_1, # of connection points: 2
#     Edge 35, Type (0, 1), BuildingBlock: KIFKEQ_clean_linker_1, # of connection points: 2
#     Edge 36, Type (0, 1), BuildingBlock: KIFKEQ_clean_linker_1, # of connection points: 2
#     Edge 37, Type (0, 1), BuildingBlock: KIFKEQ_clean_linker_1, # of connection points: 2
# Relax obj value: 0.008
# Max RMSD: 0.124
# Mean RMSD: 0.053
data_MOF--net-pto--node1-OLANEW_clean_sbu_2--node2-MIFKUJ_clean_linker_1--edge1-KIFKEQ_clean_linker_1
_symmetry_space_group_name_H-M    P1
_symmetry_Int_Tables_number       1
_symmetry_cell_setting            triclinic
loop_
_symmetry_equiv_pos_as_xyz
'x, y, z'
_cell_length_a     40.307533
_cell_length_b     63.045566
_cell_length_c     51.544763
_cell_angle_alpha  92.557291
_cell_angle_beta   89.673738
_cell_angle_gamma 105.78582
loop_
_atom_site_label
_atom_site_type_symbol
_atom_site_fract_x
_atom_site_fract_y
_atom_site_fract_z
_atom_type_partial_charge
O0 O 0.35715 0.34761 0.30221 0.0
Cd1 Cd 0.33677 0.3533 0.34597 0.0
O2 O 0.36107 0.38136 0.29063 0.0
Cd3 Cd 0.33504 0.39009 0.32509 0.0
O4 O 0.29807 0.404 0.34609 0.0
C5 C 0.3031 0.42479 0.34631 0.0
O6 O 0.33104 0.4368 0.33535 0.0
C7 C 0.36551 0.3624 0.28557 0.0
C8 C 0.33662 0.31694 0.37486 0.0
O9 O 0.30915 0.31835 0.36349 0.0
O10 O 0.36398 0.33289 0.37293 0.0
O11 O 0.30984 0.85717 0.7521 0.0
Cd12 Cd 0.27279 0.85057 0.71347 0.0
O13 O 0.35231 0.84784 0.73184 0.0
Cd14 Cd 0.31932 0.83356 0.69857 0.0
O15 O 0.27914 0.80541 0.68263 0.0
C16 C 0.25571 0.79658 0.69849 0.0
O17 O 0.25669 0.80541 0.72215 0.0
C18 C 0.34043 0.8552 0.7522 0.0
C19 C 0.28196 0.88816 0.68476 0.0
O20 O 0.25873 0.88358 0.70229 0.0
O21 O 0.30093 0.87499 0.68088 0.0
O22 O 0.82182 0.79844 0.31119 0.0
Cd23 Cd 0.81414 0.76854 0.27799 0.0
O24 O 0.77002 0.78532 0.32733 0.0
Cd25 Cd 0.75235 0.76199 0.2945 0.0
O26 O 0.72149 0.7562 0.25892 0.0
C27 C 0.73549 0.76283 0.23752 0.0
O28 O 0.76903 0.77143 0.23685 0.0
C29 C 0.79934 0.79946 0.32827 0.0
C30 C 0.8435 0.73564 0.29296 0.0
O31 O 0.86117 0.75233 0.28093 0.0
O32 O 0.81188 0.73451 0.29791 0.0
O33 O 0.76088 0.29915 0.65136 0.0
Cd34 Cd 0.71882 0.26353 0.65656 0.0
O35 O 0.73299 0.3155 0.67902 0.0
Cd36 Cd 0.69263 0.28655 0.68988 0.0
O37 O 0.65739 0.27377 0.72131 0.0
C38 C 0.67145 0.27301 0.74313 0.0
O39 O 0.70526 0.278 0.7445 0.0
C40 C 0.758 0.31653 0.66355 0.0
C41 C 0.73763 0.22925 0.62972 0.0
O42 O 0.7187 0.23978 0.61896 0.0
O43 O 0.74771 0.23498 0.65317 0.0
O44 O 0.77644 0.79119 0.6352 0.0
Cd45 Cd 0.75373 0.75669 0.65732 0.0
O46 O 0.78719 0.81215 0.67113 0.0
Cd47 Cd 0.76331 0.78645 0.69772 0.0
O48 O 0.73047 0.78067 0.73202 0.0
C49 C 0.72037 0.79737 0.73948 0.0
O50 O 0.73011 0.81533 0.72623 0.0
C51 C 0.78795 0.81011 0.64651 0.0
C52 C 0.79856 0.72977 0.65682 0.0
O53 O 0.77933 0.72997 0.63718 0.0
O54 O 0.79693 0.74248 0.67664 0.0
O55 O 0.8251 0.29281 0.30817 0.0
Cd56 Cd 0.78954 0.25739 0.29005 0.0
O57 O 0.78053 0.30554 0.31748 0.0
Cd58 Cd 0.74314 0.27884 0.29631 0.0
O59 O 0.70489 0.26867 0.26508 0.0
C60 C 0.71546 0.26946 0.24177 0.0
O61 O 0.74883 0.27474 0.23751 0.0
C62 C 0.81288 0.3079 0.31808 0.0
C63 C 0.79378 0.222 0.31947 0.0
O64 O 0.81527 0.22885 0.30124 0.0
O65 O 0.77031 0.23191 0.32383 0.0
O66 O 0.27158 0.34147 0.75348 0.0
Cd67 Cd 0.2427 0.33947 0.71128 0.0
O68 O 0.31961 0.3656 0.74269 0.0
Cd69 Cd 0.30452 0.35902 0.70194 0.0
O70 O 0.30152 0.33202 0.67318 0.0
C71 C 0.31222 0.31655 0.68204 0.0
O72 O 0.32321 0.31853 0.70622 0.0
C73 C 0.30119 0.35396 0.75975 0.0
C74 C 0.21104 0.37327 0.70475 0.0
O75 O 0.19548 0.35568 0.71615 0.0
O76 O 0.24178 0.37503 0.69669 0.0
O77 O 0.37564 0.8487 0.29483 0.0
Cd78 Cd 0.34775 0.84291 0.33725 0.0
O79 O 0.32766 0.8449 0.27279 0.0
Cd80 Cd 0.29498 0.83433 0.3063 0.0
O81 O 0.25969 0.80848 0.32762 0.0
C82 C 0.26941 0.79122 0.33088 0.0
O83 O 0.30018 0.79072 0.32279 0.0
C84 C 0.36032 0.84884 0.27336 0.0
C85 C 0.3452 0.88225 0.36327 0.0
O86 O 0.37223 0.87531 0.36424 0.0
O87 O 0.31938 0.87066 0.34987 0.0
H88 H 0.97567 0.5096 0.32416 0.0
H89 H 0.94585 0.47028 0.31919 0.0
H90 H 0.97358 0.46134 0.39799 0.0
H91 H 0.00304 0.50081 0.40297 0.0
H92 H 0.96479 0.54182 0.35637 0.0
H93 H 0.05573 0.50913 0.33759 0.0
H94 H 0.09594 0.48653 0.33987 0.0
H95 H 0.12491 0.51296 0.41783 0.0
H96 H 0.0847 0.53575 0.41528 0.0
H97 H 0.08025 0.60321 0.41048 0.0
H98 H 0.11509 0.6416 0.40936 0.0
H99 H 0.08665 0.64288 0.32881 0.0
H100 H 0.05164 0.60472 0.33023 0.0
H101 H 0.08851 0.56776 0.38105 0.0
H102 H 1.00005 0.60493 0.39446 0.0
H103 H 0.9701 0.63234 0.38371 0.0
H104 H 0.94023 0.5982 0.30938 0.0
H105 H 0.97042 0.57091 0.32016 0.0
C106 C 0.99168 0.50812 0.36389 0.0
C107 C 0.97522 0.49919 0.34039 0.0
C108 C 0.95847 0.47669 0.33751 0.0
C109 C 0.95755 0.4627 0.35816 0.0
C110 C 0.97373 0.47172 0.38179 0.0
C111 C 0.99071 0.49422 0.3846 0.0
C112 C 0.01002 0.53195 0.36658 0.0
C113 C 0.99188 0.5475 0.36166 0.0
C114 C 0.04523 0.53936 0.37383 0.0
C115 C 0.06697 0.52398 0.37636 0.0
C116 C 0.07015 0.5097 0.35539 0.0
C117 C 0.09318 0.49675 0.35675 0.0
C118 C 0.11368 0.49793 0.37904 0.0
C119 C 0.1098 0.51185 0.40027 0.0
C120 C 0.08674 0.52481 0.39889 0.0
C121 C 0.06309 0.60119 0.37053 0.0
C122 C 0.08138 0.61186 0.39266 0.0
C123 C 0.10136 0.63376 0.39195 0.0
C124 C 0.10364 0.64535 0.369 0.0
C125 C 0.08498 0.63462 0.34695 0.0
C126 C 0.06501 0.61276 0.34769 0.0
C127 C 0.04336 0.57761 0.37085 0.0
C128 C 0.06123 0.56209 0.37631 0.0
C129 C 0.0081 0.57025 0.36366 0.0
C130 C 0.98785 0.586 0.35799 0.0
C131 C 0.98709 0.60336 0.37583 0.0
C132 C 0.97002 0.61903 0.36965 0.0
C133 C 0.953 0.61752 0.34562 0.0
C134 C 0.95285 0.59972 0.32813 0.0
C135 C 0.97011 0.58412 0.33426 0.0
H136 H 0.08367 0.59839 0.62573 0.0
H137 H 0.11955 0.63663 0.63032 0.0
H138 H 0.06607 0.6459 0.70104 0.0
H139 H 0.03119 0.60764 0.69674 0.0
H140 H 0.07836 0.56464 0.6609 0.0
H141 H 0.99497 0.59915 0.6192 0.0
H142 H 0.96211 0.62648 0.61852 0.0
H143 H 0.92577 0.60969 0.69616 0.0
H144 H 0.95688 0.5815 0.69574 0.0
H145 H 0.94201 0.51448 0.69016 0.0
H146 H 0.90572 0.4766 0.68951 0.0
H147 H 0.96408 0.4596 0.62505 0.0
H148 H 0.99967 0.4979 0.62522 0.0
H149 H 0.95062 0.54483 0.6563 0.0
H150 H 0.02061 0.50748 0.69739 0.0
H151 H 0.05123 0.47964 0.70413 0.0
H152 H 0.1178 0.50342 0.63966 0.0
H153 H 0.08639 0.53095 0.63246 0.0
C154 C 0.05456 0.60027 0.66074 0.0
C155 C 0.0797 0.60873 0.64216 0.0
C156 C 0.09997 0.63059 0.64471 0.0
C157 C 0.09563 0.64428 0.66605 0.0
C158 C 0.07027 0.63573 0.68452 0.0
C159 C 0.05006 0.61393 0.68195 0.0
C160 C 0.03368 0.57697 0.65853 0.0
C161 C 0.05047 0.56018 0.65929 0.0
C162 C 0.9973 0.57132 0.65771 0.0
C163 C 0.97816 0.58829 0.65746 0.0
C164 C 0.97973 0.60137 0.63596 0.0
C165 C 0.96113 0.61715 0.63576 0.0
C166 C 0.94103 0.62042 0.65728 0.0
C167 C 0.94012 0.6074 0.67894 0.0
C168 C 0.95813 0.59134 0.67887 0.0
C169 C 0.97367 0.50902 0.65784 0.0
C170 C 0.94693 0.50264 0.67581 0.0
C171 C 0.92643 0.48089 0.67558 0.0
C172 C 0.9322 0.46501 0.65736 0.0
C173 C 0.95888 0.47146 0.63924 0.0
C174 C 0.9794 0.49329 0.63945 0.0
C175 C 0.9952 0.53224 0.65833 0.0
C176 C 0.97855 0.54907 0.65739 0.0
C177 C 0.0317 0.53786 0.65985 0.0
C178 C 0.05065 0.52106 0.66404 0.0
C179 C 0.04138 0.5065 0.68438 0.0
C180 C 0.05898 0.49063 0.68829 0.0
C181 C 0.08676 0.48927 0.67232 0.0
C182 C 0.09657 0.50415 0.65233 0.0
C183 C 0.07862 0.51986 0.6482 0.0
H184 H 0.26995 0.06151 0.56482 0.0
H185 H 0.26304 0.0288 0.59031 0.0
H186 H 0.36144 0.02237 0.56286 0.0
H187 H 0.36853 0.05529 0.53775 0.0
H188 H 0.316 0.10038 0.56772 0.0
H189 H 0.27891 0.04363 0.49813 0.0
H190 H 0.28122 0.00994 0.47329 0.0
H191 H 0.38898 0.0391 0.45768 0.0
H192 H 0.3864 0.07291 0.4822 0.0
H193 H 0.38668 0.1456 0.48148 0.0
H194 H 0.38912 0.17966 0.45958 0.0
H195 H 0.28097 0.17117 0.47593 0.0
H196 H 0.27939 0.13783 0.49869 0.0
H197 H 0.34028 0.10051 0.47316 0.0
H198 H 0.37515 0.15877 0.53821 0.0
H199 H 0.37229 0.19287 0.56141 0.0
H200 H 0.26917 0.16064 0.58663 0.0
H201 H 0.2719 0.12666 0.56274 0.0
C202 C 0.31954 0.06072 0.54908 0.0
C203 C 0.29008 0.05309 0.56433 0.0
C204 C 0.28619 0.03443 0.57893 0.0
C205 C 0.31166 0.02299 0.57852 0.0
C206 C 0.34115 0.03065 0.56325 0.0
C207 C 0.34517 0.04943 0.54884 0.0
C208 C 0.32374 0.0808 0.53398 0.0
C209 C 0.32088 0.10028 0.547 0.0
C210 C 0.33113 0.08096 0.50709 0.0
C211 C 0.33251 0.06067 0.49202 0.0
C212 C 0.30298 0.04275 0.48931 0.0
C213 C 0.3043 0.0236 0.47508 0.0
C214 C 0.33529 0.02197 0.46364 0.0
C215 C 0.36485 0.03992 0.46647 0.0
C216 C 0.36337 0.05922 0.48031 0.0
C217 C 0.33293 0.13935 0.49177 0.0
C218 C 0.36353 0.1511 0.48013 0.0
C219 C 0.3648 0.17052 0.46757 0.0
C220 C 0.33529 0.17833 0.46611 0.0
C221 C 0.30442 0.16603 0.47718 0.0
C222 C 0.30333 0.14682 0.48999 0.0
C223 C 0.33197 0.1198 0.50687 0.0
C224 C 0.33549 0.10052 0.49389 0.0
C225 C 0.32519 0.1198 0.5338 0.0
C226 C 0.32363 0.14024 0.54859 0.0
C227 C 0.35184 0.15909 0.5486 0.0
C228 C 0.35027 0.17852 0.56203 0.0
C229 C 0.32048 0.17946 0.57583 0.0
C230 C 0.2923 0.16051 0.5759 0.0
C231 C 0.29394 0.14104 0.56249 0.0
H232 H 0.51603 0.86982 0.96762 0.0
H233 H 0.4862 0.87876 0.92989 0.0
H234 H 0.45062 0.80945 0.90744 0.0
H235 H 0.48061 0.80063 0.94494 0.0
H236 H 0.48785 0.84209 0.00883 0.0
H237 H 0.57031 0.84774 0.94152 0.0
H238 H 0.59466 0.84109 0.89946 0.0
H239 H 0.57609 0.77214 0.91527 0.0
H240 H 0.55119 0.77881 0.95729 0.0
H241 H 0.55418 0.77458 0.0333 0.0
H242 H 0.58319 0.76272 0.06924 0.0
H243 H 0.60784 0.82878 0.10407 0.0
H244 H 0.57931 0.84068 0.06787 0.0
H245 H 0.57895 0.80308 0.9981 0.0
H246 H 0.49377 0.79713 0.06484 0.0
H247 H 0.47011 0.80411 0.10711 0.0
H248 H 0.49429 0.87361 0.09259 0.0
H249 H 0.51803 0.86652 0.0503 0.0
C250 C 0.50061 0.83459 0.95894 0.0
C251 C 0.50176 0.85659 0.95454 0.0
C252 C 0.48492 0.86168 0.93298 0.0
C253 C 0.4661 0.84478 0.91585 0.0
C254 C 0.46472 0.82276 0.92048 0.0
C255 C 0.48195 0.81772 0.94178 0.0
C256 C 0.51871 0.8291 0.98152 0.0
C257 C 0.50814 0.83384 0.00657 0.0
C258 C 0.5446 0.81792 0.97839 0.0
C259 C 0.55846 0.81372 0.95247 0.0
C260 C 0.57084 0.8311 0.93577 0.0
C261 C 0.58482 0.82729 0.91173 0.0
C262 C 0.58716 0.80607 0.90402 0.0
C263 C 0.57484 0.78869 0.92077 0.0
C264 C 0.56058 0.79248 0.94475 0.0
C265 C 0.56427 0.80848 0.04797 0.0
C266 C 0.56585 0.78652 0.04866 0.0
C267 C 0.58246 0.77977 0.06917 0.0
C268 C 0.59771 0.79482 0.08945 0.0
C269 C 0.59589 0.81675 0.08887 0.0
C270 C 0.57956 0.82356 0.06822 0.0
C271 C 0.5477 0.81565 0.02556 0.0
C272 C 0.55863 0.81129 0.00046 0.0
C273 C 0.52206 0.8271 0.02867 0.0
C274 C 0.50806 0.83134 0.05451 0.0
C275 C 0.49437 0.81391 0.07088 0.0
C276 C 0.48087 0.81793 0.09505 0.0
C277 C 0.48045 0.83944 0.10325 0.0
C278 C 0.49396 0.85684 0.08674 0.0
C279 C 0.5076 0.85282 0.06261 0.0
H280 H 0.76982 0.98289 0.53688 0.0
H281 H 0.77033 0.95094 0.56185 0.0
H282 H 0.86826 0.94998 0.52791 0.0
H283 H 0.86739 0.98185 0.50281 0.0
H284 H 0.81091 0.02389 0.53472 0.0
H285 H 0.77059 0.96246 0.47682 0.0
H286 H 0.7702 0.92727 0.45497 0.0
H287 H 0.86604 0.95842 0.41727 0.0
H288 H 0.86681 0.99358 0.43998 0.0
H289 H 0.86128 0.06082 0.43669 0.0
H290 H 0.85746 0.09113 0.40992 0.0
H291 H 0.75853 0.08968 0.44381 0.0
H292 H 0.76185 0.05874 0.46953 0.0
H293 H 0.82044 0.01869 0.43872 0.0
H294 H 0.85272 0.08324 0.49917 0.0
H295 H 0.84175 0.11613 0.52059 0.0
H296 H 0.74763 0.0756 0.55258 0.0
H297 H 0.75834 0.04292 0.5307 0.0
C298 C 0.81843 0.98467 0.51785 0.0
C299 C 0.79156 0.97593 0.53503 0.0
C300 C 0.79193 0.95768 0.54932 0.0
C301 C 0.81931 0.94785 0.54684 0.0
C302 C 0.84653 0.95692 0.52997 0.0
C303 C 0.84614 0.97519 0.51569 0.0
C304 C 0.81692 0.00325 0.50159 0.0
C305 C 0.81285 0.02273 0.51373 0.0
C306 C 0.81928 0.00171 0.4742 0.0
C307 C 0.81893 0.98057 0.46024 0.0
C308 C 0.79168 0.96168 0.46401 0.0
C309 C 0.79134 0.94162 0.45133 0.0
C310 C 0.8181 0.94004 0.43438 0.0
C311 C 0.84529 0.95904 0.43047 0.0
C312 C 0.84561 0.97916 0.44321 0.0
C313 C 0.81211 0.05771 0.45539 0.0
C314 C 0.83869 0.06696 0.4382 0.0
C315 C 0.83659 0.08444 0.42309 0.0
C316 C 0.80779 0.093 0.42481 0.0
C317 C 0.78095 0.08342 0.44178 0.0
C318 C 0.78299 0.06587 0.45675 0.0
C319 C 0.81483 0.0395 0.47187 0.0
C320 C 0.81907 0.02002 0.45974 0.0
C321 C 0.81156 0.04081 0.49923 0.0
C322 C 0.80619 0.06068 0.51318 0.0
C323 C 0.82973 0.08148 0.51079 0.0
C324 C 0.82354 0.10022 0.52316 0.0
C325 C 0.79371 0.09846 0.53814 0.0
C326 C 0.77056 0.07753 0.54086 0.0
C327 C 0.77681 0.05883 0.52858 0.0
H328 H 0.47929 0.3512 0.96829 0.0
H329 H 0.45007 0.3606 0.93083 0.0
H330 H 0.39931 0.29128 0.9156 0.0
H331 H 0.43042 0.28216 0.95201 0.0
H332 H 0.44664 0.32457 0.01279 0.0
H333 H 0.52981 0.32806 0.94571 0.0
H334 H 0.55461 0.32077 0.90402 0.0
H335 H 0.52563 0.25103 0.91768 0.0
H336 H 0.50023 0.25842 0.95933 0.0
H337 H 0.51483 0.25815 0.04061 0.0
H338 H 0.54661 0.24957 0.07726 0.0
H339 H 0.57488 0.31831 0.10309 0.0
H340 H 0.54333 0.32678 0.06643 0.0
H341 H 0.53562 0.28396 0.00074 0.0
H342 H 0.45711 0.28192 0.07104 0.0
H343 H 0.43907 0.29125 0.11444 0.0
H344 H 0.46145 0.3597 0.09521 0.0
H345 H 0.47966 0.35029 0.05187 0.0
C346 C 0.45712 0.31601 0.96272 0.0
C347 C 0.46191 0.3381 0.95673 0.0
C348 C 0.44493 0.34342 0.93539 0.0
C349 C 0.42221 0.32674 0.91996 0.0
C350 C 0.41715 0.30461 0.92648 0.0
C351 C 0.43468 0.29931 0.94747 0.0
C352 C 0.47536 0.31028 0.98506 0.0
C353 C 0.46637 0.3159 0.01023 0.0
C354 C 0.50036 0.29849 0.9816 0.0
C355 C 0.51292 0.29376 0.9555 0.0
C356 C 0.52819 0.31116 0.93952 0.0
C357 C 0.54265 0.30699 0.91583 0.0
C358 C 0.5422 0.28534 0.90767 0.0
C359 C 0.5261 0.26785 0.92338 0.0
C360 C 0.51178 0.27206 0.9472 0.0
C361 C 0.52629 0.29305 0.05095 0.0
C362 C 0.52793 0.27136 0.05416 0.0
C363 C 0.54613 0.26649 0.07508 0.0
C364 C 0.56306 0.28323 0.09318 0.0
C365 C 0.56157 0.30497 0.08978 0.0
C366 C 0.54356 0.30984 0.06881 0.0
C367 C 0.50704 0.29825 0.02869 0.0
C368 C 0.51569 0.29245 0.00345 0.0
C369 C 0.4817 0.3099 0.03213 0.0
C370 C 0.47008 0.31545 0.05829 0.0
C371 C 0.45839 0.29896 0.07624 0.0
C372 C 0.44813 0.30432 0.10104 0.0
C373 C 0.44897 0.32623 0.10826 0.0
C374 C 0.46022 0.34265 0.09013 0.0
C375 C 0.47065 0.3373 0.06538 0.0
H376 H 0.30547 0.46849 0.34801 0.0
H377 H 0.24002 0.40451 0.36664 0.0
H378 H 0.25944 0.48519 0.35971 0.0
H379 H 0.19405 0.42137 0.3789 0.0
H380 H 0.10898 0.45584 0.36022 0.0
H381 H 0.15522 0.4378 0.35603 0.0
H382 H 0.22532 0.49433 0.395 0.0
H383 H 0.17951 0.51275 0.39818 0.0
C384 C 0.28143 0.45802 0.35498 0.0
C385 C 0.27635 0.43513 0.35619 0.0
C386 C 0.25507 0.46763 0.36186 0.0
C387 C 0.22298 0.45461 0.37016 0.0
C388 C 0.2183 0.43182 0.37225 0.0
C389 C 0.24472 0.42218 0.36536 0.0
C390 C 0.13425 0.46439 0.36794 0.0
C391 C 0.14059 0.48581 0.37932 0.0
C392 C 0.16067 0.45394 0.36582 0.0
C393 C 0.19405 0.46468 0.37505 0.0
C394 C 0.20002 0.48573 0.38738 0.0
C395 C 0.17362 0.49618 0.38948 0.0
H396 H 0.25255 0.76974 0.65466 0.0
H397 H 0.19979 0.77597 0.72664 0.0
H398 H 0.21267 0.73334 0.64575 0.0
H399 H 0.1596 0.73997 0.71746 0.0
H400 H 0.12623 0.6649 0.7108 0.0
H401 H 0.16296 0.70235 0.71709 0.0
H402 H 0.15298 0.71304 0.63561 0.0
H403 H 0.11617 0.6753 0.62929 0.0
C404 C 0.23215 0.76349 0.66838 0.0
C405 C 0.22956 0.77563 0.69149 0.0
C406 C 0.20922 0.74267 0.66323 0.0
C407 C 0.18321 0.73363 0.68106 0.0
C408 C 0.17981 0.74623 0.7036 0.0
C409 C 0.20275 0.76694 0.70879 0.0
C410 C 0.13154 0.67529 0.69427 0.0
C411 C 0.11811 0.66717 0.66958 0.0
C412 C 0.15257 0.6968 0.69787 0.0
C413 C 0.16067 0.71078 0.6769 0.0
C414 C 0.14746 0.70263 0.65212 0.0
C415 C 0.1264 0.68103 0.6485 0.0
H416 H 0.81192 0.69712 0.316 0.0
H417 H 0.91063 0.73477 0.28783 0.0
H418 H 0.83802 0.66855 0.3292 0.0
H419 H 0.93655 0.70611 0.30078 0.0
H420 H 0.9781 0.6622 0.35293 0.0
H421 H 0.95115 0.69063 0.34079 0.0
H422 H 0.86361 0.64029 0.30937 0.0
H423 H 0.8902 0.61179 0.32215 0.0
C424 C 0.83916 0.69929 0.31258 0.0
C425 C 0.85921 0.71823 0.30089 0.0
C426 C 0.85405 0.68286 0.32002 0.0
C427 C 0.88935 0.68508 0.31606 0.0
C428 C 0.90938 0.70404 0.30439 0.0
C429 C 0.89447 0.72041 0.29683 0.0
C430 C 0.95293 0.65719 0.3437 0.0
C431 C 0.93624 0.63475 0.33855 0.0
C432 C 0.93767 0.67349 0.33648 0.0
C433 C 0.90529 0.66771 0.32405 0.0
C434 C 0.88845 0.64526 0.31911 0.0
C435 C 0.90381 0.62895 0.3262 0.0
H436 H 0.76195 0.35525 0.69057 0.0
H437 H 0.81358 0.32627 0.63063 0.0
H438 H 0.80601 0.39006 0.68806 0.0
H439 H 0.85805 0.36146 0.62826 0.0
H440 H 0.90486 0.4377 0.61531 0.0
H441 H 0.86419 0.40098 0.61566 0.0
H442 H 0.86843 0.40372 0.69946 0.0
H443 H 0.90926 0.44014 0.69917 0.0
C444 C 0.78266 0.35629 0.67678 0.0
C445 C 0.78427 0.3379 0.66086 0.0
C446 C 0.80806 0.37624 0.67549 0.0
C447 C 0.83566 0.3784 0.65817 0.0
C448 C 0.837 0.36024 0.64177 0.0
C449 C 0.81161 0.34011 0.64319 0.0
C450 C 0.89757 0.43029 0.63378 0.0
C451 C 0.90994 0.44196 0.65724 0.0
C452 C 0.87426 0.40929 0.63396 0.0
C453 C 0.86282 0.39964 0.6576 0.0
C454 C 0.87626 0.41095 0.68096 0.0
C455 C 0.89959 0.43182 0.68079 0.0
H456 H 0.28128 0.28498 0.39148 0.0
H457 H 0.39268 0.3043 0.39061 0.0
H458 H 0.28185 0.25189 0.41425 0.0
H459 H 0.39311 0.27104 0.41312 0.0
H460 H 0.37155 0.19477 0.42269 0.0
H461 H 0.37293 0.22896 0.40172 0.0
H462 H 0.30257 0.24324 0.45896 0.0
H463 H 0.30216 0.20963 0.48067 0.0
C464 C 0.30586 0.28218 0.39618 0.0
C465 C 0.33693 0.29724 0.38928 0.0
C466 C 0.30617 0.2633 0.40929 0.0
C467 C 0.33753 0.25894 0.41537 0.0
C468 C 0.3686 0.27397 0.40848 0.0
C469 C 0.36832 0.29303 0.39574 0.0
C470 C 0.3568 0.20533 0.43111 0.0
C471 C 0.3366 0.19929 0.45335 0.0
C472 C 0.35751 0.22487 0.41901 0.0
C473 C 0.33773 0.23864 0.42868 0.0
C474 C 0.3177 0.23274 0.45092 0.0
C475 C 0.31735 0.2134 0.46324 0.0
H476 H 0.31815 0.86173 0.80133 0.0
H477 H 0.40863 0.85725 0.75842 0.0
H478 H 0.34924 0.86263 0.84204 0.0
H479 H 0.43963 0.85822 0.7992 0.0
H480 H 0.4916 0.87513 0.87945 0.0
H481 H 0.46217 0.88182 0.84036 0.0
H482 H 0.37022 0.83254 0.86216 0.0
H483 H 0.39956 0.8259 0.90105 0.0
C484 C 0.34484 0.86135 0.80055 0.0
C485 C 0.36082 0.8592 0.77662 0.0
C486 C 0.36255 0.86175 0.82387 0.0
C487 C 0.39671 0.8603 0.82375 0.0
C488 C 0.41336 0.85947 0.79986 0.0
C489 C 0.39554 0.85882 0.77652 0.0
C490 C 0.46497 0.86597 0.87597 0.0
C491 C 0.44784 0.84994 0.89313 0.0
C492 C 0.44824 0.8697 0.8536 0.0
C493 C 0.41393 0.85773 0.84829 0.0
C494 C 0.39655 0.84218 0.8659 0.0
C495 C 0.4134 0.83823 0.88801 0.0
H496 H 0.7581 0.80572 0.36851 0.0
H497 H 0.85485 0.83601 0.33147 0.0
H498 H 0.76459 0.83884 0.39633 0.0
H499 H 0.86092 0.86934 0.35898 0.0
H500 H 0.8714 0.92129 0.42589 0.0
H501 H 0.86922 0.88609 0.40303 0.0
H502 H 0.76034 0.87566 0.38861 0.0
H503 H 0.76252 0.91063 0.41134 0.0
C504 C 0.78093 0.81935 0.36646 0.0
C505 C 0.80578 0.81829 0.34756 0.0
C506 C 0.78453 0.8384 0.38231 0.0
C507 C 0.81299 0.85686 0.37959 0.0
C508 C 0.83876 0.85538 0.36165 0.0
C509 C 0.83521 0.83628 0.34582 0.0
C510 C 0.84707 0.91149 0.41771 0.0
C511 C 0.81711 0.91872 0.4205 0.0
C512 C 0.84581 0.89133 0.40468 0.0
C513 C 0.81456 0.87798 0.39418 0.0
C514 C 0.78468 0.88528 0.39697 0.0
C515 C 0.78593 0.90537 0.40996 0.0
H516 H 0.60153 0.2661 0.74804 0.0
H517 H 0.69467 0.27336 0.79276 0.0
H518 H 0.56929 0.26666 0.78824 0.0
H519 H 0.66239 0.27374 0.83276 0.0
H520 H 0.60602 0.30798 0.89196 0.0
H521 H 0.63589 0.30182 0.85235 0.0
H522 H 0.54936 0.24693 0.82939 0.0
H523 H 0.51905 0.25336 0.8691 0.0
C524 C 0.61501 0.26742 0.76641 0.0
C525 C 0.65077 0.26997 0.76719 0.0
C526 C 0.5965 0.26767 0.78942 0.0
C527 C 0.61344 0.27055 0.81361 0.0
C528 C 0.64879 0.2719 0.81438 0.0
C529 C 0.66723 0.27156 0.79144 0.0
C530 C 0.59326 0.29468 0.8784 0.0
C531 C 0.56012 0.28124 0.88354 0.0
C532 C 0.61054 0.29097 0.85587 0.0
C533 C 0.59505 0.27379 0.83785 0.0
C534 C 0.56186 0.26032 0.84291 0.0
C535 C 0.54464 0.26392 0.86566 0.0
H536 H 0.33305 0.9047 0.65012 0.0
H537 H 0.24135 0.9165 0.68453 0.0
H538 H 0.34078 0.93743 0.62486 0.0
H539 H 0.2484 0.94881 0.65868 0.0
H540 H 0.29062 0.01787 0.62885 0.0
H541 H 0.28404 0.98554 0.65468 0.0
H542 H 0.31642 0.95106 0.58911 0.0
H543 H 0.32363 0.98361 0.56352 0.0
C544 C 0.31443 0.91422 0.65219 0.0
C545 C 0.28661 0.90802 0.66936 0.0
C546 C 0.31873 0.93292 0.63757 0.0
C547 C 0.2952 0.94579 0.63967 0.0
C548 C 0.26734 0.93952 0.65685 0.0
C549 C 0.26317 0.9209 0.67158 0.0
C550 C 0.29614 0.00332 0.61995 0.0
C551 C 0.3076 0.00326 0.59416 0.0
C552 C 0.29231 0.98476 0.63472 0.0
C553 C 0.29962 0.96563 0.624 0.0
C554 C 0.31109 0.96561 0.59816 0.0
C555 C 0.31515 0.98423 0.58345 0.0
H556 H 0.75695 0.7738 0.18831 0.0
H557 H 0.66524 0.75413 0.23509 0.0
H558 H 0.72209 0.77946 0.15208 0.0
H559 H 0.63046 0.75974 0.19876 0.0
H560 H 0.59335 0.80373 0.14151 0.0
H561 H 0.62545 0.79334 0.17661 0.0
H562 H 0.67558 0.75947 0.1208 0.0
H563 H 0.64383 0.77014 0.08565 0.0
C564 C 0.72932 0.7704 0.19076 0.0
C565 C 0.71391 0.76366 0.21464 0.0
C566 C 0.70934 0.77356 0.16996 0.0
C567 C 0.6736 0.7702 0.17267 0.0
C568 C 0.65802 0.76273 0.19624 0.0
C569 C 0.67794 0.75938 0.21698 0.0
C570 C 0.61124 0.79408 0.13677 0.0
C571 C 0.61617 0.78779 0.11086 0.0
C572 C 0.62935 0.78794 0.15686 0.0
C573 C 0.65298 0.77556 0.15143 0.0
C574 C 0.65768 0.76911 0.12553 0.0
C575 C 0.63933 0.77508 0.10546 0.0
H576 H 0.71762 0.21196 0.5809 0.0
H577 H 0.77928 0.20487 0.64659 0.0
H578 H 0.73239 0.18111 0.558 0.0
H579 H 0.79367 0.17384 0.62379 0.0
H580 H 0.8387 0.13289 0.5647 0.0
H581 H 0.82632 0.16531 0.58593 0.0
H582 H 0.71975 0.14099 0.56175 0.0
H583 H 0.73232 0.10896 0.53998 0.0
C584 C 0.73434 0.20384 0.59045 0.0
C585 C 0.7472 0.21084 0.6156 0.0
C586 C 0.74266 0.18609 0.57738 0.0
C587 C 0.76413 0.175 0.58911 0.0
C588 C 0.77737 0.18219 0.61412 0.0
C589 C 0.76894 0.19989 0.62724 0.0
C590 C 0.81273 0.13461 0.56372 0.0
C591 C 0.78647 0.11835 0.55074 0.0
C592 C 0.80556 0.15305 0.57608 0.0
C593 C 0.77204 0.15569 0.57556 0.0
C594 C 0.7459 0.13955 0.56231 0.0
C595 C 0.75302 0.12107 0.55008 0.0
H596 H 0.38923 0.39072 0.24673 0.0
H597 H 0.37367 0.32286 0.26675 0.0
H598 H 0.41092 0.38235 0.20439 0.0
H599 H 0.39455 0.3144 0.22415 0.0
H600 H 0.46462 0.31191 0.15476 0.0
H601 H 0.44603 0.32103 0.19797 0.0
H602 H 0.3894 0.3623 0.16425 0.0
H603 H 0.40828 0.35333 0.12115 0.0
C604 C 0.39038 0.374 0.2421 0.0
C605 C 0.37963 0.35745 0.26013 0.0
C606 C 0.40263 0.36918 0.21775 0.0
C607 C 0.40432 0.34768 0.21082 0.0
C608 C 0.39398 0.33119 0.22897 0.0
C609 C 0.38182 0.33602 0.25336 0.0
C610 C 0.44806 0.32283 0.15661 0.0
C611 C 0.4379 0.3319 0.13457 0.0
C612 C 0.43738 0.32805 0.18135 0.0
C613 C 0.41623 0.3424 0.18458 0.0
C614 C 0.40617 0.35149 0.16251 0.0
C615 C 0.41693 0.34633 0.1378 0.0
H616 H 0.82345 0.71105 0.61491 0.0
H617 H 0.82473 0.71474 0.6988 0.0
H618 H 0.85943 0.68536 0.61507 0.0
H619 H 0.85992 0.6886 0.69885 0.0
H620 H 0.87832 0.61836 0.68002 0.0
H621 H 0.84609 0.64591 0.68056 0.0
H622 H 0.92385 0.68735 0.63341 0.0
H623 H 0.95758 0.66055 0.63408 0.0
C624 C 0.83144 0.70639 0.63335 0.0
C625 C 0.82129 0.71488 0.65685 0.0
C626 C 0.85209 0.69179 0.63341 0.0
C627 C 0.86229 0.68504 0.65696 0.0
C628 C 0.85224 0.69354 0.68045 0.0
C629 C 0.83225 0.70853 0.6804 0.0
C630 C 0.88913 0.63349 0.67019 0.0
C631 C 0.92087 0.63713 0.65713 0.0
C632 C 0.87043 0.64919 0.67038 0.0
C633 C 0.88257 0.66868 0.65705 0.0
C634 C 0.9139 0.67233 0.64369 0.0
C635 C 0.93304 0.65685 0.64395 0.0
H636 H 0.88327 0.322 0.31455 0.0
H637 H 0.79531 0.34175 0.34457 0.0
H638 H 0.92069 0.35847 0.32698 0.0
H639 H 0.83266 0.37815 0.35675 0.0
H640 H 0.9133 0.43721 0.39213 0.0
H641 H 0.88076 0.39848 0.3858 0.0
H642 H 0.92753 0.39586 0.31055 0.0
H643 H 0.9605 0.43438 0.31709 0.0
C644 C 0.87197 0.33399 0.3241 0.0
C645 C 0.83624 0.32899 0.32839 0.0
C646 C 0.89339 0.35492 0.33106 0.0
C647 C 0.87959 0.37123 0.34268 0.0
C648 C 0.84413 0.3659 0.34803 0.0
C649 C 0.82269 0.34505 0.3409 0.0
C650 C 0.91698 0.42824 0.37442 0.0
C651 C 0.9393 0.43886 0.35504 0.0
C652 C 0.89817 0.40614 0.37071 0.0
C653 C 0.90153 0.39413 0.34766 0.0
C654 C 0.92462 0.40458 0.32863 0.0
C655 C 0.94321 0.42671 0.33225 0.0
H656 H 0.23166 0.40838 0.67354 0.0
H657 H 0.15113 0.3777 0.72639 0.0
H658 H 0.20182 0.43623 0.66519 0.0
H659 H 0.12198 0.40602 0.71895 0.0
H660 H 0.05916 0.44546 0.67991 0.0
H661 H 0.08949 0.41774 0.68754 0.0
H662 H 0.18701 0.46754 0.68303 0.0
H663 H 0.15643 0.49505 0.67454 0.0
C664 C 0.20776 0.40773 0.6836 0.0
C665 C 0.19371 0.39078 0.70056 0.0
C666 C 0.1907 0.42379 0.67893 0.0
C667 C 0.15934 0.42343 0.69131 0.0
C668 C 0.14566 0.40663 0.70862 0.0
C669 C 0.16252 0.39044 0.71306 0.0
C670 C 0.08708 0.45045 0.68061 0.0
C671 C 0.10543 0.47241 0.67665 0.0
C672 C 0.10453 0.43458 0.68511 0.0
C673 C 0.14081 0.44034 0.68608 0.0
C674 C 0.15912 0.46237 0.68204 0.0
C675 C 0.14163 0.47818 0.67724 0.0
H676 H 0.28191 0.75147 0.33793 0.0
H677 H 0.20249 0.78549 0.34652 0.0
H678 H 0.24117 0.71741 0.35023 0.0
H679 H 0.16176 0.75136 0.35948 0.0
H680 H 0.09136 0.68022 0.34452 0.0
H681 H 0.13135 0.71634 0.33855 0.0
H682 H 0.20754 0.6985 0.38516 0.0
H683 H 0.16817 0.66204 0.39009 0.0
C684 C 0.25587 0.75178 0.34282 0.0
C685 C 0.24541 0.77119 0.34105 0.0
C686 C 0.23252 0.73223 0.35006 0.0
C687 C 0.19812 0.73161 0.35578 0.0
C688 C 0.18794 0.75121 0.35484 0.0
C689 C 0.21134 0.7708 0.34757 0.0
C690 C 0.11666 0.684 0.35347 0.0
C691 C 0.12664 0.66814 0.36758 0.0
C692 C 0.13945 0.70482 0.35033 0.0
C693 C 0.17275 0.7103 0.36127 0.0
C694 C 0.18226 0.69472 0.37617 0.0
C695 C 0.15951 0.67389 0.37926 0.0
H696 H 0.78233 0.81326 0.59395 0.0
H697 H 0.81869 0.85234 0.66433 0.0
H698 H 0.79349 0.84683 0.56981 0.0
H699 H 0.83069 0.88582 0.64008 0.0
H700 H 0.79984 0.93978 0.59718 0.0
H701 H 0.79633 0.90657 0.62051 0.0
H702 H 0.83621 0.8781 0.55354 0.0
H703 H 0.83822 0.91102 0.52974 0.0
C704 C 0.79333 0.82897 0.60418 0.0
C705 C 0.79928 0.83011 0.63113 0.0
C706 C 0.79985 0.84824 0.59031 0.0
C707 C 0.81261 0.86907 0.60306 0.0
C708 C 0.82015 0.87009 0.62976 0.0
C709 C 0.8135 0.85086 0.64363 0.0
C710 C 0.80769 0.9264 0.58736 0.0
C711 C 0.81912 0.92804 0.56153 0.0
C712 C 0.80614 0.90745 0.60087 0.0
C713 C 0.81609 0.88964 0.58895 0.0
C714 C 0.82806 0.89141 0.56324 0.0
C715 C 0.82957 0.91039 0.54969 0.0
H716 H 0.64561 0.26348 0.244 0.0
H717 H 0.72987 0.27073 0.18991 0.0
H718 H 0.60654 0.26397 0.20818 0.0
H719 H 0.69093 0.27153 0.15424 0.0
H720 H 0.60671 0.25667 0.09269 0.0
H721 H 0.64105 0.24989 0.12871 0.0
H722 H 0.59894 0.29229 0.17945 0.0
H723 H 0.56392 0.29854 0.14369 0.0
C724 C 0.65574 0.26495 0.22446 0.0
C725 C 0.69093 0.26723 0.21985 0.0
C726 C 0.63338 0.26537 0.20396 0.0
C727 C 0.64567 0.26797 0.17839 0.0
C728 C 0.68056 0.26932 0.17366 0.0
C729 C 0.70293 0.26898 0.19416 0.0
C730 C 0.60441 0.26427 0.11164 0.0
C731 C 0.58272 0.27823 0.11532 0.0
C732 C 0.62431 0.26054 0.13221 0.0
C733 C 0.62281 0.27059 0.15693 0.0
C734 C 0.60046 0.28411 0.16073 0.0
C735 C 0.58069 0.28791 0.14016 0.0
H736 H 0.33715 0.28248 0.69535 0.0
H737 H 0.2887 0.30564 0.63193 0.0
H738 H 0.3387 0.2498 0.66908 0.0
H739 H 0.29065 0.27282 0.6054 0.0
H740 H 0.26711 0.19869 0.57848 0.0
H741 H 0.26475 0.23211 0.60356 0.0
H742 H 0.36887 0.24039 0.63073 0.0
H743 H 0.37088 0.20677 0.60634 0.0
C744 C 0.32688 0.28064 0.67576 0.0
C745 C 0.31285 0.29672 0.66573 0.0
C746 C 0.32797 0.26194 0.66064 0.0
C747 C 0.31498 0.25877 0.63511 0.0
C748 C 0.30065 0.27473 0.62508 0.0
C749 C 0.29969 0.29357 0.64022 0.0
C750 C 0.2894 0.2076 0.58994 0.0
C751 C 0.31915 0.20005 0.59049 0.0
C752 C 0.28817 0.22686 0.60406 0.0
C753 C 0.31658 0.23885 0.61917 0.0
C754 C 0.34641 0.23138 0.61951 0.0
C755 C 0.34769 0.21223 0.60532 0.0
H756 H 0.42956 0.8542 0.26691 0.0
H757 H 0.33574 0.84951 0.2241 0.0
H758 H 0.46071 0.8546 0.22616 0.0
H759 H 0.3668 0.84958 0.18343 0.0
H760 H 0.43811 0.86598 0.11433 0.0
H761 H 0.41158 0.87161 0.15584 0.0
H762 H 0.46129 0.82727 0.19103 0.0
H763 H 0.48863 0.82219 0.14977 0.0
C764 C 0.41562 0.85348 0.24884 0.0
C765 C 0.38007 0.85167 0.2488 0.0
C766 C 0.43346 0.85356 0.22548 0.0
C767 C 0.41618 0.85192 0.20155 0.0
C768 C 0.38095 0.85105 0.20152 0.0
C769 C 0.3631 0.85091 0.22487 0.0
C770 C 0.44378 0.8577 0.13103 0.0
C771 C 0.46538 0.84357 0.12873 0.0
C772 C 0.42832 0.86077 0.15475 0.0
C773 C 0.43426 0.84986 0.17673 0.0
C774 C 0.45646 0.83611 0.17455 0.0
C775 C 0.4718 0.83298 0.15083 0.0
H776 H 0.84349 0.19986 0.31749 0.0
H777 H 0.74893 0.20145 0.35644 0.0
H778 H 0.84682 0.16865 0.34273 0.0
H779 H 0.75245 0.17035 0.38181 0.0
H780 H 0.75121 0.09931 0.40027 0.0
H781 H 0.74788 0.1305 0.37509 0.0
H782 H 0.85656 0.16059 0.3882 0.0
H783 H 0.85988 0.12959 0.41375 0.0
C784 C 0.82345 0.19358 0.33146 0.0
C785 C 0.79593 0.20314 0.33493 0.0
C786 C 0.82546 0.17577 0.34602 0.0
C787 C 0.7999 0.16702 0.36426 0.0
C788 C 0.77235 0.17656 0.3677 0.0
C789 C 0.77045 0.19446 0.35326 0.0
C790 C 0.77435 0.11267 0.39804 0.0
C791 C 0.80581 0.1119 0.4091 0.0
C792 C 0.77243 0.13054 0.38356 0.0
C793 C 0.80195 0.14802 0.37965 0.0
C794 C 0.83345 0.14723 0.39057 0.0
C795 C 0.83534 0.12942 0.40517 0.0
H796 H 0.27866 0.32188 0.79444 0.0
H797 H 0.35727 0.38289 0.7836 0.0
H798 H 0.30751 0.31661 0.83418 0.0
H799 H 0.38561 0.37773 0.82393 0.0
H800 H 0.39816 0.36331 0.91406 0.0
H801 H 0.36809 0.37195 0.87658 0.0
H802 H 0.37291 0.31107 0.83731 0.0
H803 H 0.40481 0.3029 0.87374 0.0
C804 C 0.30165 0.33442 0.80081 0.0
C805 C 0.31578 0.35276 0.78578 0.0
C806 C 0.3182 0.33131 0.82348 0.0
C807 C 0.34878 0.3467 0.83189 0.0
C808 C 0.36197 0.36568 0.81777 0.0
C809 C 0.34579 0.36858 0.79474 0.0
C810 C 0.39346 0.3519 0.89731 0.0
C811 C 0.40391 0.33228 0.89717 0.0
C812 C 0.376 0.35684 0.87596 0.0
C813 C 0.368 0.34206 0.85431 0.0
C814 C 0.3784 0.32256 0.85402 0.0
C815 C 0.39646 0.31784 0.87504 0.0
H816 H 0.39912 0.91549 0.38238 0.0
H817 H 0.28806 0.89563 0.37626 0.0
H818 H 0.39692 0.94949 0.40574 0.0
H819 H 0.28554 0.92902 0.40085 0.0
H820 H 0.29259 1.0003 0.42445 0.0
H821 H 0.2954 0.96708 0.39945 0.0
H822 H 0.38332 0.96399 0.44543 0.0
H823 H 0.38129 0.99783 0.46939 0.0
C824 C 0.37419 0.91833 0.38624 0.0
C825 C 0.34377 0.90291 0.37745 0.0
C826 C 0.37286 0.93777 0.39983 0.0
C827 C 0.34102 0.94211 0.40538 0.0
C828 C 0.31059 0.92656 0.39659 0.0
C829 C 0.31198 0.90729 0.38261 0.0
C830 C 0.31246 0.99244 0.42913 0.0
C831 C 0.33676 0.0016 0.44877 0.0
C832 C 0.31402 0.97332 0.41492 0.0
C833 C 0.33958 0.96268 0.42034 0.0
C834 C 0.3637 0.97187 0.44024 0.0
C835 C 0.36247 0.9912 0.45412 0.0
H836 H 0.6939 0.76294 0.77118 0.0
H837 H 0.69786 0.83121 0.76069 0.0
H838 H 0.65879 0.76316 0.81 0.0
H839 H 0.66375 0.83158 0.79955 0.0
H840 H 0.57709 0.82138 0.85679 0.0
H841 H 0.60672 0.8175 0.81622 0.0
H842 H 0.66414 0.77881 0.85416 0.0
H843 H 0.63406 0.78246 0.89463 0.0
C844 C 0.68732 0.77798 0.77715 0.0
C845 C 0.69868 0.79705 0.76283 0.0
C846 C 0.66734 0.77813 0.79945 0.0
C847 C 0.65833 0.79737 0.80786 0.0
C848 C 0.66962 0.81636 0.79341 0.0
C849 C 0.68946 0.81619 0.77117 0.0
C850 C 0.596 0.81201 0.85642 0.0
C851 C 0.60342 0.80236 0.87893 0.0
C852 C 0.61303 0.80981 0.8332 0.0
C853 C 0.63808 0.79802 0.83197 0.0
C854 C 0.64475 0.7878 0.85432 0.0
C855 C 0.62755 0.78991 0.87753 0.0
loop_
_geom_bond_atom_site_label_1
_geom_bond_atom_site_label_2
_geom_bond_distance
_geom_bond_site_symmetry_2
_ccdc_geom_bond_type
O0 Cd1 2.300 . S
O0 C7 1.275 . S
Cd1 O0 2.300 . S
Cd1 O9 2.381 . S
Cd1 O10 2.378 . S
O2 Cd3 2.385 . S
O2 C7 1.255 . S
Cd3 O2 2.385 . S
Cd3 O4 2.317 . S
O4 Cd3 2.317 . S
O4 C5 1.232 . S
C5 O4 1.232 . S
C5 O6 1.218 . S
O6 C5 1.218 . S
C7 O0 1.275 . S
C7 O2 1.255 . S
C8 O9 1.258 . S
C8 O10 1.256 . S
O9 Cd1 2.381 . S
O9 C8 1.258 . S
O10 Cd1 2.378 . S
O10 C8 1.256 . S
O11 Cd12 2.300 . S
O11 C18 1.275 . S
Cd12 O11 2.300 . S
Cd12 O20 2.381 . S
Cd12 O21 2.378 . S
O13 Cd14 2.385 . S
O13 C18 1.255 . S
Cd14 O13 2.385 . S
Cd14 O15 2.317 . S
O15 Cd14 2.317 . S
O15 C16 1.232 . S
C16 O15 1.232 . S
C16 O17 1.218 . S
O17 C16 1.218 . S
C18 O11 1.275 . S
C18 O13 1.255 . S
C19 O20 1.258 . S
C19 O21 1.256 . S
O20 Cd12 2.381 . S
O20 C19 1.258 . S
O21 Cd12 2.378 . S
O21 C19 1.256 . S
O22 Cd23 2.300 . S
O22 C29 1.275 . S
Cd23 O22 2.300 . S
Cd23 O31 2.381 . S
Cd23 O32 2.378 . S
O24 Cd25 2.385 . S
O24 C29 1.255 . S
Cd25 O24 2.385 . S
Cd25 O26 2.317 . S
O26 Cd25 2.317 . S
O26 C27 1.232 . S
C27 O26 1.232 . S
C27 O28 1.218 . S
O28 C27 1.218 . S
C29 O22 1.275 . S
C29 O24 1.255 . S
C30 O31 1.258 . S
C30 O32 1.256 . S
O31 Cd23 2.381 . S
O31 C30 1.258 . S
O32 Cd23 2.378 . S
O32 C30 1.256 . S
O33 Cd34 2.300 . S
O33 C40 1.275 . S
Cd34 O33 2.300 . S
Cd34 O42 2.381 . S
Cd34 O43 2.378 . S
O35 Cd36 2.385 . S
O35 C40 1.255 . S
Cd36 O35 2.385 . S
Cd36 O37 2.317 . S
O37 Cd36 2.317 . S
O37 C38 1.232 . S
C38 O37 1.232 . S
C38 O39 1.218 . S
O39 C38 1.218 . S
C40 O33 1.275 . S
C40 O35 1.255 . S
C41 O42 1.258 . S
C41 O43 1.256 . S
O42 Cd34 2.381 . S
O42 C41 1.258 . S
O43 Cd34 2.378 . S
O43 C41 1.256 . S
O44 Cd45 2.300 . S
O44 C51 1.275 . S
Cd45 O44 2.300 . S
Cd45 O53 2.381 . S
Cd45 O54 2.378 . S
O46 Cd47 2.385 . S
O46 C51 1.255 . S
Cd47 O46 2.385 . S
Cd47 O48 2.317 . S
O48 Cd47 2.317 . S
O48 C49 1.232 . S
C49 O48 1.232 . S
C49 O50 1.218 . S
O50 C49 1.218 . S
C51 O44 1.275 . S
C51 O46 1.255 . S
C52 O53 1.258 . S
C52 O54 1.256 . S
O53 Cd45 2.381 . S
O53 C52 1.258 . S
O54 Cd45 2.378 . S
O54 C52 1.256 . S
O55 Cd56 2.300 . S
O55 C62 1.275 . S
Cd56 O55 2.300 . S
Cd56 O64 2.381 . S
Cd56 O65 2.378 . S
O57 Cd58 2.385 . S
O57 C62 1.255 . S
Cd58 O57 2.385 . S
Cd58 O59 2.317 . S
O59 Cd58 2.317 . S
O59 C60 1.232 . S
C60 O59 1.232 . S
C60 O61 1.218 . S
O61 C60 1.218 . S
C62 O55 1.275 . S
C62 O57 1.255 . S
C63 O64 1.258 . S
C63 O65 1.256 . S
O64 Cd56 2.381 . S
O64 C63 1.258 . S
O65 Cd56 2.378 . S
O65 C63 1.256 . S
O66 Cd67 2.300 . S
O66 C73 1.275 . S
Cd67 O66 2.300 . S
Cd67 O75 2.381 . S
Cd67 O76 2.378 . S
O68 Cd69 2.385 . S
O68 C73 1.255 . S
Cd69 O68 2.385 . S
Cd69 O70 2.317 . S
O70 Cd69 2.317 . S
O70 C71 1.232 . S
C71 O70 1.232 . S
C71 O72 1.218 . S
O72 C71 1.218 . S
C73 O66 1.275 . S
C73 O68 1.255 . S
C74 O75 1.258 . S
C74 O76 1.256 . S
O75 Cd67 2.381 . S
O75 C74 1.258 . S
O76 Cd67 2.378 . S
O76 C74 1.256 . S
O77 Cd78 2.300 . S
O77 C84 1.275 . S
Cd78 O77 2.300 . S
Cd78 O86 2.381 . S
Cd78 O87 2.378 . S
O79 Cd80 2.385 . S
O79 C84 1.255 . S
Cd80 O79 2.385 . S
Cd80 O81 2.317 . S
O81 Cd80 2.317 . S
O81 C82 1.232 . S
C82 O81 1.232 . S
C82 O83 1.218 . S
O83 C82 1.218 . S
C84 O77 1.275 . S
C84 O79 1.255 . S
C85 O86 1.258 . S
C85 O87 1.256 . S
O86 Cd78 2.381 . S
O86 C85 1.258 . S
O87 Cd78 2.378 . S
O87 C85 1.256 . S
H88 C107 0.949 . S
H89 C108 0.950 . S
H90 C110 0.950 . S
H91 C111 0.950 . S
H92 C113 0.950 1_655 S
H93 C116 0.950 . S
H94 C117 0.950 . S
H95 C119 0.951 . S
H96 C120 0.949 . S
H97 C122 0.949 . S
H98 C123 0.950 . S
H99 C125 0.950 . S
H100 C126 0.950 . S
H101 C128 0.950 . S
H102 C131 0.950 . S
H103 C132 0.950 . S
H104 C134 0.951 . S
H105 C135 0.949 . S
C106 C107 1.376 1_455 S
C106 C111 1.386 . S
C106 C112 1.483 . S
C107 H88 0.949 . S
C107 C106 1.376 1_655 S
C107 C108 1.397 . S
C108 H89 0.950 . S
C108 C107 1.397 . S
C108 C109 1.391 . S
C109 C108 1.391 . S
C109 C110 1.405 . S
C110 H90 0.950 . S
C110 C109 1.405 . S
C110 C111 1.367 1_655 S
C111 H91 0.950 . S
C111 C106 1.386 . S
C111 C110 1.367 1_455 S
C112 C106 1.483 . S
C112 C113 1.382 . S
C112 C114 1.403 . S
C113 H92 0.950 1_455 S
C113 C112 1.382 . S
C113 C129 1.411 . S
C114 C112 1.403 . S
C114 C115 1.489 . S
C114 C128 1.411 . S
C115 C114 1.489 . S
C115 C116 1.383 . S
C115 C120 1.382 . S
C116 H93 0.950 . S
C116 C115 1.383 . S
C116 C117 1.395 . S
C117 H94 0.950 . S
C117 C116 1.395 . S
C117 C118 1.288 . S
C118 C117 1.288 . S
C118 C119 1.392 . S
C119 H95 0.951 . S
C119 C118 1.392 . S
C119 C120 1.392 . S
C120 H96 0.949 . S
C120 C115 1.382 . S
C120 C119 1.392 . S
C121 C122 1.376 . S
C121 C126 1.386 . S
C121 C127 1.483 . S
C122 H97 0.949 . S
C122 C121 1.376 . S
C122 C123 1.397 . S
C123 H98 0.950 . S
C123 C122 1.397 . S
C123 C124 1.391 . S
C124 C123 1.391 . S
C124 C125 1.405 . S
C125 H99 0.950 . S
C125 C124 1.405 . S
C125 C126 1.367 . S
C126 H100 0.950 . S
C126 C121 1.386 . S
C126 C125 1.367 . S
C127 C121 1.483 . S
C127 C128 1.382 . S
C127 C129 1.403 . S
C128 H101 0.950 . S
C128 C114 1.411 . S
C128 C127 1.382 . S
C129 C113 1.411 . S
C129 C127 1.403 . S
C129 C130 1.489 . S
C130 C129 1.489 . S
C130 C131 1.383 . S
C130 C135 1.382 1_455 S
C131 H102 0.950 . S
C131 C130 1.383 . S
C131 C132 1.395 1_455 S
C132 H103 0.950 . S
C132 C131 1.395 1_655 S
C132 C133 1.288 . S
C133 C132 1.288 . S
C133 C134 1.392 . S
C134 H104 0.951 . S
C134 C133 1.392 . S
C134 C135 1.392 . S
C135 H105 0.949 . S
C135 C130 1.382 1_655 S
C135 C134 1.392 . S
H136 C155 0.949 . S
H137 C156 0.950 . S
H138 C158 0.950 . S
H139 C159 0.950 . S
H140 C161 0.950 . S
H141 C164 0.950 . S
H142 C165 0.950 . S
H143 C167 0.951 . S
H144 C168 0.949 . S
H145 C170 0.949 . S
H146 C171 0.950 . S
H147 C173 0.950 . S
H148 C174 0.950 . S
H149 C176 0.950 . S
H150 C179 0.950 . S
H151 C180 0.950 . S
H152 C182 0.951 . S
H153 C183 0.949 . S
C154 C155 1.376 . S
C154 C159 1.386 . S
C154 C160 1.483 . S
C155 H136 0.949 . S
C155 C154 1.376 . S
C155 C156 1.397 . S
C156 H137 0.950 . S
C156 C155 1.397 . S
C156 C157 1.391 . S
C157 C156 1.391 . S
C157 C158 1.405 . S
C158 H138 0.950 . S
C158 C157 1.405 . S
C158 C159 1.367 . S
C159 H139 0.950 . S
C159 C154 1.386 . S
C159 C158 1.367 . S
C160 C154 1.483 . S
C160 C161 1.382 . S
C160 C162 1.403 1_455 S
C161 H140 0.950 . S
C161 C160 1.382 . S
C161 C177 1.411 . S
C162 C160 1.403 1_655 S
C162 C163 1.489 . S
C162 C176 1.411 . S
C163 C162 1.489 . S
C163 C164 1.383 . S
C163 C168 1.382 . S
C164 H141 0.950 . S
C164 C163 1.383 . S
C164 C165 1.395 . S
C165 H142 0.950 . S
C165 C164 1.395 . S
C165 C166 1.288 . S
C166 C165 1.288 . S
C166 C167 1.392 . S
C167 H143 0.951 . S
C167 C166 1.392 . S
C167 C168 1.392 . S
C168 H144 0.949 . S
C168 C163 1.382 . S
C168 C167 1.392 . S
C169 C170 1.376 . S
C169 C174 1.386 . S
C169 C175 1.483 . S
C170 H145 0.949 . S
C170 C169 1.376 . S
C170 C171 1.397 . S
C171 H146 0.950 . S
C171 C170 1.397 . S
C171 C172 1.391 . S
C172 C171 1.391 . S
C172 C173 1.405 . S
C173 H147 0.950 . S
C173 C172 1.405 . S
C173 C174 1.367 . S
C174 H148 0.950 . S
C174 C169 1.386 . S
C174 C173 1.367 . S
C175 C169 1.483 . S
C175 C176 1.382 . S
C175 C177 1.403 1_655 S
C176 H149 0.950 . S
C176 C162 1.411 . S
C176 C175 1.382 . S
C177 C161 1.411 . S
C177 C175 1.403 1_455 S
C177 C178 1.489 . S
C178 C177 1.489 . S
C178 C179 1.383 . S
C178 C183 1.382 . S
C179 H150 0.950 . S
C179 C178 1.383 . S
C179 C180 1.395 . S
C180 H151 0.950 . S
C180 C179 1.395 . S
C180 C181 1.288 . S
C181 C180 1.288 . S
C181 C182 1.392 . S
C182 H152 0.951 . S
C182 C181 1.392 . S
C182 C183 1.392 . S
C183 H153 0.949 . S
C183 C178 1.382 . S
C183 C182 1.392 . S
H184 C203 0.949 . S
H185 C204 0.950 . S
H186 C206 0.950 . S
H187 C207 0.950 . S
H188 C209 0.950 . S
H189 C212 0.950 . S
H190 C213 0.950 . S
H191 C215 0.951 . S
H192 C216 0.949 . S
H193 C218 0.949 . S
H194 C219 0.950 . S
H195 C221 0.950 . S
H196 C222 0.950 . S
H197 C224 0.950 . S
H198 C227 0.950 . S
H199 C228 0.950 . S
H200 C230 0.951 . S
H201 C231 0.949 . S
C202 C203 1.376 . S
C202 C207 1.386 . S
C202 C208 1.483 . S
C203 H184 0.949 . S
C203 C202 1.376 . S
C203 C204 1.397 . S
C204 H185 0.950 . S
C204 C203 1.397 . S
C204 C205 1.391 . S
C205 C204 1.391 . S
C205 C206 1.405 . S
C206 H186 0.950 . S
C206 C205 1.405 . S
C206 C207 1.367 . S
C207 H187 0.950 . S
C207 C202 1.386 . S
C207 C206 1.367 . S
C208 C202 1.483 . S
C208 C209 1.382 . S
C208 C210 1.403 . S
C209 H188 0.950 . S
C209 C208 1.382 . S
C209 C225 1.411 . S
C210 C208 1.403 . S
C210 C211 1.489 . S
C210 C224 1.411 . S
C211 C210 1.489 . S
C211 C212 1.383 . S
C211 C216 1.382 . S
C212 H189 0.950 . S
C212 C211 1.383 . S
C212 C213 1.395 . S
C213 H190 0.950 . S
C213 C212 1.395 . S
C213 C214 1.288 . S
C214 C213 1.288 . S
C214 C215 1.392 . S
C215 H191 0.951 . S
C215 C214 1.392 . S
C215 C216 1.392 . S
C216 H192 0.949 . S
C216 C211 1.382 . S
C216 C215 1.392 . S
C217 C218 1.376 . S
C217 C222 1.386 . S
C217 C223 1.483 . S
C218 H193 0.949 . S
C218 C217 1.376 . S
C218 C219 1.397 . S
C219 H194 0.950 . S
C219 C218 1.397 . S
C219 C220 1.391 . S
C220 C219 1.391 . S
C220 C221 1.405 . S
C221 H195 0.950 . S
C221 C220 1.405 . S
C221 C222 1.367 . S
C222 H196 0.950 . S
C222 C217 1.386 . S
C222 C221 1.367 . S
C223 C217 1.483 . S
C223 C224 1.382 . S
C223 C225 1.403 . S
C224 H197 0.950 . S
C224 C210 1.411 . S
C224 C223 1.382 . S
C225 C209 1.411 . S
C225 C223 1.403 . S
C225 C226 1.489 . S
C226 C225 1.489 . S
C226 C227 1.383 . S
C226 C231 1.382 . S
C227 H198 0.950 . S
C227 C226 1.383 . S
C227 C228 1.395 . S
C228 H199 0.950 . S
C228 C227 1.395 . S
C228 C229 1.288 . S
C229 C228 1.288 . S
C229 C230 1.392 . S
C230 H200 0.951 . S
C230 C229 1.392 . S
C230 C231 1.392 . S
C231 H201 0.949 . S
C231 C226 1.382 . S
C231 C230 1.392 . S
H232 C251 0.949 . S
H233 C252 0.950 . S
H234 C254 0.950 . S
H235 C255 0.950 . S
H236 C257 0.950 . S
H237 C260 0.950 . S
H238 C261 0.950 . S
H239 C263 0.951 . S
H240 C264 0.949 . S
H241 C266 0.949 . S
H242 C267 0.950 . S
H243 C269 0.950 . S
H244 C270 0.950 . S
H245 C272 0.950 . S
H246 C275 0.950 . S
H247 C276 0.950 . S
H248 C278 0.951 . S
H249 C279 0.949 . S
C250 C251 1.376 . S
C250 C255 1.386 . S
C250 C256 1.483 . S
C251 H232 0.949 . S
C251 C250 1.376 . S
C251 C252 1.397 . S
C252 H233 0.950 . S
C252 C251 1.397 . S
C252 C253 1.391 . S
C253 C252 1.391 . S
C253 C254 1.405 . S
C254 H234 0.950 . S
C254 C253 1.405 . S
C254 C255 1.367 . S
C255 H235 0.950 . S
C255 C250 1.386 . S
C255 C254 1.367 . S
C256 C250 1.483 . S
C256 C257 1.382 1_556 S
C256 C258 1.403 . S
C257 H236 0.950 . S
C257 C256 1.382 1_554 S
C257 C273 1.411 . S
C258 C256 1.403 . S
C258 C259 1.489 . S
C258 C272 1.411 1_556 S
C259 C258 1.489 . S
C259 C260 1.383 . S
C259 C264 1.382 . S
C260 H237 0.950 . S
C260 C259 1.383 . S
C260 C261 1.395 . S
C261 H238 0.950 . S
C261 C260 1.395 . S
C261 C262 1.288 . S
C262 C261 1.288 . S
C262 C263 1.392 . S
C263 H239 0.951 . S
C263 C262 1.392 . S
C263 C264 1.392 . S
C264 H240 0.949 . S
C264 C259 1.382 . S
C264 C263 1.392 . S
C265 C266 1.376 . S
C265 C270 1.386 . S
C265 C271 1.483 . S
C266 H241 0.949 . S
C266 C265 1.376 . S
C266 C267 1.397 . S
C267 H242 0.950 . S
C267 C266 1.397 . S
C267 C268 1.391 . S
C268 C267 1.391 . S
C268 C269 1.405 . S
C269 H243 0.950 . S
C269 C268 1.405 . S
C269 C270 1.367 . S
C270 H244 0.950 . S
C270 C265 1.386 . S
C270 C269 1.367 . S
C271 C265 1.483 . S
C271 C272 1.382 . S
C271 C273 1.403 . S
C272 H245 0.950 . S
C272 C258 1.411 1_554 S
C272 C271 1.382 . S
C273 C257 1.411 . S
C273 C271 1.403 . S
C273 C274 1.489 . S
C274 C273 1.489 . S
C274 C275 1.383 . S
C274 C279 1.382 . S
C275 H246 0.950 . S
C275 C274 1.383 . S
C275 C276 1.395 . S
C276 H247 0.950 . S
C276 C275 1.395 . S
C276 C277 1.288 . S
C277 C276 1.288 . S
C277 C278 1.392 . S
C278 H248 0.951 . S
C278 C277 1.392 . S
C278 C279 1.392 . S
C279 H249 0.949 . S
C279 C274 1.382 . S
C279 C278 1.392 . S
H280 C299 0.949 . S
H281 C300 0.950 . S
H282 C302 0.950 . S
H283 C303 0.950 . S
H284 C305 0.950 . S
H285 C308 0.950 . S
H286 C309 0.950 . S
H287 C311 0.951 . S
H288 C312 0.949 . S
H289 C314 0.949 . S
H290 C315 0.950 . S
H291 C317 0.950 . S
H292 C318 0.950 . S
H293 C320 0.950 . S
H294 C323 0.950 . S
H295 C324 0.950 . S
H296 C326 0.951 . S
H297 C327 0.949 . S
C298 C299 1.376 . S
C298 C303 1.386 . S
C298 C304 1.483 . S
C299 H280 0.949 . S
C299 C298 1.376 . S
C299 C300 1.397 . S
C300 H281 0.950 . S
C300 C299 1.397 . S
C300 C301 1.391 . S
C301 C300 1.391 . S
C301 C302 1.405 . S
C302 H282 0.950 . S
C302 C301 1.405 . S
C302 C303 1.367 . S
C303 H283 0.950 . S
C303 C298 1.386 . S
C303 C302 1.367 . S
C304 C298 1.483 . S
C304 C305 1.382 1_565 S
C304 C306 1.403 . S
C305 H284 0.950 . S
C305 C304 1.382 1_545 S
C305 C321 1.411 . S
C306 C304 1.403 . S
C306 C307 1.489 . S
C306 C320 1.411 1_565 S
C307 C306 1.489 . S
C307 C308 1.383 . S
C307 C312 1.382 . S
C308 H285 0.950 . S
C308 C307 1.383 . S
C308 C309 1.395 . S
C309 H286 0.950 . S
C309 C308 1.395 . S
C309 C310 1.288 . S
C310 C309 1.288 . S
C310 C311 1.392 . S
C311 H287 0.951 . S
C311 C310 1.392 . S
C311 C312 1.392 . S
C312 H288 0.949 . S
C312 C307 1.382 . S
C312 C311 1.392 . S
C313 C314 1.376 . S
C313 C318 1.386 . S
C313 C319 1.483 . S
C314 H289 0.949 . S
C314 C313 1.376 . S
C314 C315 1.397 . S
C315 H290 0.950 . S
C315 C314 1.397 . S
C315 C316 1.391 . S
C316 C315 1.391 . S
C316 C317 1.405 . S
C317 H291 0.950 . S
C317 C316 1.405 . S
C317 C318 1.367 . S
C318 H292 0.950 . S
C318 C313 1.386 . S
C318 C317 1.367 . S
C319 C313 1.483 . S
C319 C320 1.382 . S
C319 C321 1.403 . S
C320 H293 0.950 . S
C320 C306 1.411 1_545 S
C320 C319 1.382 . S
C321 C305 1.411 . S
C321 C319 1.403 . S
C321 C322 1.489 . S
C322 C321 1.489 . S
C322 C323 1.383 . S
C322 C327 1.382 . S
C323 H294 0.950 . S
C323 C322 1.383 . S
C323 C324 1.395 . S
C324 H295 0.950 . S
C324 C323 1.395 . S
C324 C325 1.288 . S
C325 C324 1.288 . S
C325 C326 1.392 . S
C326 H296 0.951 . S
C326 C325 1.392 . S
C326 C327 1.392 . S
C327 H297 0.949 . S
C327 C322 1.382 . S
C327 C326 1.392 . S
H328 C347 0.949 . S
H329 C348 0.950 . S
H330 C350 0.950 . S
H331 C351 0.950 . S
H332 C353 0.950 . S
H333 C356 0.950 . S
H334 C357 0.950 . S
H335 C359 0.951 . S
H336 C360 0.949 . S
H337 C362 0.949 . S
H338 C363 0.950 . S
H339 C365 0.950 . S
H340 C366 0.950 . S
H341 C368 0.950 . S
H342 C371 0.950 . S
H343 C372 0.950 . S
H344 C374 0.951 . S
H345 C375 0.949 . S
C346 C347 1.376 . S
C346 C351 1.386 . S
C346 C352 1.483 . S
C347 H328 0.949 . S
C347 C346 1.376 . S
C347 C348 1.397 . S
C348 H329 0.950 . S
C348 C347 1.397 . S
C348 C349 1.391 . S
C349 C348 1.391 . S
C349 C350 1.405 . S
C350 H330 0.950 . S
C350 C349 1.405 . S
C350 C351 1.367 . S
C351 H331 0.950 . S
C351 C346 1.386 . S
C351 C350 1.367 . S
C352 C346 1.483 . S
C352 C353 1.382 1_556 S
C352 C354 1.403 . S
C353 H332 0.950 . S
C353 C352 1.382 1_554 S
C353 C369 1.411 . S
C354 C352 1.403 . S
C354 C355 1.489 . S
C354 C368 1.411 1_556 S
C355 C354 1.489 . S
C355 C356 1.383 . S
C355 C360 1.382 . S
C356 H333 0.950 . S
C356 C355 1.383 . S
C356 C357 1.395 . S
C357 H334 0.950 . S
C357 C356 1.395 . S
C357 C358 1.288 . S
C358 C357 1.288 . S
C358 C359 1.392 . S
C359 H335 0.951 . S
C359 C358 1.392 . S
C359 C360 1.392 . S
C360 H336 0.949 . S
C360 C355 1.382 . S
C360 C359 1.392 . S
C361 C362 1.376 . S
C361 C366 1.386 . S
C361 C367 1.483 . S
C362 H337 0.949 . S
C362 C361 1.376 . S
C362 C363 1.397 . S
C363 H338 0.950 . S
C363 C362 1.397 . S
C363 C364 1.391 . S
C364 C363 1.391 . S
C364 C365 1.405 . S
C365 H339 0.950 . S
C365 C364 1.405 . S
C365 C366 1.367 . S
C366 H340 0.950 . S
C366 C361 1.386 . S
C366 C365 1.367 . S
C367 C361 1.483 . S
C367 C368 1.382 . S
C367 C369 1.403 . S
C368 H341 0.950 . S
C368 C354 1.411 1_554 S
C368 C367 1.382 . S
C369 C353 1.411 . S
C369 C367 1.403 . S
C369 C370 1.489 . S
C370 C369 1.489 . S
C370 C371 1.383 . S
C370 C375 1.382 . S
C371 H342 0.950 . S
C371 C370 1.383 . S
C371 C372 1.395 . S
C372 H343 0.950 . S
C372 C371 1.395 . S
C372 C373 1.288 . S
C373 C372 1.288 . S
C373 C374 1.392 . S
C374 H344 0.951 . S
C374 C373 1.392 . S
C374 C375 1.392 . S
C375 H345 0.949 . S
C375 C370 1.382 . S
C375 C374 1.392 . S
H376 C384 0.950 . S
H377 C389 0.950 . S
H378 C386 0.950 . S
H379 C388 0.950 . S
H380 C390 0.950 . S
H381 C392 0.950 . S
H382 C394 0.950 . S
H383 C395 0.950 . S
C384 H376 0.950 . S
C384 C385 1.386 . S
C384 C386 1.391 . S
C385 C384 1.386 . S
C385 C389 1.393 . S
C386 H378 0.950 . S
C386 C384 1.391 . S
C386 C387 1.400 . S
C387 C386 1.400 . S
C387 C388 1.398 . S
C387 C393 1.491 . S
C388 H379 0.950 . S
C388 C387 1.398 . S
C388 C389 1.391 . S
C389 H377 0.950 . S
C389 C385 1.393 . S
C389 C388 1.391 . S
C390 H380 0.950 . S
C390 C391 1.386 . S
C390 C392 1.391 . S
C391 C390 1.386 . S
C391 C395 1.393 . S
C392 H381 0.950 . S
C392 C390 1.391 . S
C392 C393 1.400 . S
C393 C387 1.491 . S
C393 C392 1.400 . S
C393 C394 1.398 . S
C394 H382 0.950 . S
C394 C393 1.398 . S
C394 C395 1.391 . S
C395 H383 0.950 . S
C395 C391 1.393 . S
C395 C394 1.391 . S
H396 C404 0.950 . S
H397 C409 0.950 . S
H398 C406 0.950 . S
H399 C408 0.950 . S
H400 C410 0.950 . S
H401 C412 0.950 . S
H402 C414 0.950 . S
H403 C415 0.950 . S
C404 H396 0.950 . S
C404 C405 1.386 . S
C404 C406 1.391 . S
C405 C404 1.386 . S
C405 C409 1.393 . S
C406 H398 0.950 . S
C406 C404 1.391 . S
C406 C407 1.400 . S
C407 C406 1.400 . S
C407 C408 1.398 . S
C407 C413 1.491 . S
C408 H399 0.950 . S
C408 C407 1.398 . S
C408 C409 1.391 . S
C409 H397 0.950 . S
C409 C405 1.393 . S
C409 C408 1.391 . S
C410 H400 0.950 . S
C410 C411 1.386 . S
C410 C412 1.391 . S
C411 C410 1.386 . S
C411 C415 1.393 . S
C412 H401 0.950 . S
C412 C410 1.391 . S
C412 C413 1.400 . S
C413 C407 1.491 . S
C413 C412 1.400 . S
C413 C414 1.398 . S
C414 H402 0.950 . S
C414 C413 1.398 . S
C414 C415 1.391 . S
C415 H403 0.950 . S
C415 C411 1.393 . S
C415 C414 1.391 . S
H416 C424 0.950 . S
H417 C429 0.950 . S
H418 C426 0.950 . S
H419 C428 0.950 . S
H420 C430 0.950 . S
H421 C432 0.950 . S
H422 C434 0.950 . S
H423 C435 0.950 . S
C424 H416 0.950 . S
C424 C425 1.386 . S
C424 C426 1.391 . S
C425 C424 1.386 . S
C425 C429 1.393 . S
C426 H418 0.950 . S
C426 C424 1.391 . S
C426 C427 1.400 . S
C427 C426 1.400 . S
C427 C428 1.398 . S
C427 C433 1.491 . S
C428 H419 0.950 . S
C428 C427 1.398 . S
C428 C429 1.391 . S
C429 H417 0.950 . S
C429 C425 1.393 . S
C429 C428 1.391 . S
C430 H420 0.950 . S
C430 C431 1.386 . S
C430 C432 1.391 . S
C431 C430 1.386 . S
C431 C435 1.393 . S
C432 H421 0.950 . S
C432 C430 1.391 . S
C432 C433 1.400 . S
C433 C427 1.491 . S
C433 C432 1.400 . S
C433 C434 1.398 . S
C434 H422 0.950 . S
C434 C433 1.398 . S
C434 C435 1.391 . S
C435 H423 0.950 . S
C435 C431 1.393 . S
C435 C434 1.391 . S
H436 C444 0.950 . S
H437 C449 0.950 . S
H438 C446 0.950 . S
H439 C448 0.950 . S
H440 C450 0.950 . S
H441 C452 0.950 . S
H442 C454 0.950 . S
H443 C455 0.950 . S
C444 H436 0.950 . S
C444 C445 1.386 . S
C444 C446 1.391 . S
C445 C444 1.386 . S
C445 C449 1.393 . S
C446 H438 0.950 . S
C446 C444 1.391 . S
C446 C447 1.400 . S
C447 C446 1.400 . S
C447 C448 1.398 . S
C447 C453 1.491 . S
C448 H439 0.950 . S
C448 C447 1.398 . S
C448 C449 1.391 . S
C449 H437 0.950 . S
C449 C445 1.393 . S
C449 C448 1.391 . S
C450 H440 0.950 . S
C450 C451 1.386 . S
C450 C452 1.391 . S
C451 C450 1.386 . S
C451 C455 1.393 . S
C452 H441 0.950 . S
C452 C450 1.391 . S
C452 C453 1.400 . S
C453 C447 1.491 . S
C453 C452 1.400 . S
C453 C454 1.398 . S
C454 H442 0.950 . S
C454 C453 1.398 . S
C454 C455 1.391 . S
C455 H443 0.950 . S
C455 C451 1.393 . S
C455 C454 1.391 . S
H456 C464 0.950 . S
H457 C469 0.950 . S
H458 C466 0.950 . S
H459 C468 0.950 . S
H460 C470 0.950 . S
H461 C472 0.950 . S
H462 C474 0.950 . S
H463 C475 0.950 . S
C464 H456 0.950 . S
C464 C465 1.386 . S
C464 C466 1.391 . S
C465 C464 1.386 . S
C465 C469 1.393 . S
C466 H458 0.950 . S
C466 C464 1.391 . S
C466 C467 1.400 . S
C467 C466 1.400 . S
C467 C468 1.398 . S
C467 C473 1.491 . S
C468 H459 0.950 . S
C468 C467 1.398 . S
C468 C469 1.391 . S
C469 H457 0.950 . S
C469 C465 1.393 . S
C469 C468 1.391 . S
C470 H460 0.950 . S
C470 C471 1.386 . S
C470 C472 1.391 . S
C471 C470 1.386 . S
C471 C475 1.393 . S
C472 H461 0.950 . S
C472 C470 1.391 . S
C472 C473 1.400 . S
C473 C467 1.491 . S
C473 C472 1.400 . S
C473 C474 1.398 . S
C474 H462 0.950 . S
C474 C473 1.398 . S
C474 C475 1.391 . S
C475 H463 0.950 . S
C475 C471 1.393 . S
C475 C474 1.391 . S
H476 C484 0.950 . S
H477 C489 0.950 . S
H478 C486 0.950 . S
H479 C488 0.950 . S
H480 C490 0.950 . S
H481 C492 0.950 . S
H482 C494 0.950 . S
H483 C495 0.950 . S
C484 H476 0.950 . S
C484 C485 1.386 . S
C484 C486 1.391 . S
C485 C484 1.386 . S
C485 C489 1.393 . S
C486 H478 0.950 . S
C486 C484 1.391 . S
C486 C487 1.400 . S
C487 C486 1.400 . S
C487 C488 1.398 . S
C487 C493 1.491 . S
C488 H479 0.950 . S
C488 C487 1.398 . S
C488 C489 1.391 . S
C489 H477 0.950 . S
C489 C485 1.393 . S
C489 C488 1.391 . S
C490 H480 0.950 . S
C490 C491 1.386 . S
C490 C492 1.391 . S
C491 C490 1.386 . S
C491 C495 1.393 . S
C492 H481 0.950 . S
C492 C490 1.391 . S
C492 C493 1.400 . S
C493 C487 1.491 . S
C493 C492 1.400 . S
C493 C494 1.398 . S
C494 H482 0.950 . S
C494 C493 1.398 . S
C494 C495 1.391 . S
C495 H483 0.950 . S
C495 C491 1.393 . S
C495 C494 1.391 . S
H496 C504 0.950 . S
H497 C509 0.950 . S
H498 C506 0.950 . S
H499 C508 0.950 . S
H500 C510 0.950 . S
H501 C512 0.950 . S
H502 C514 0.950 . S
H503 C515 0.950 . S
C504 H496 0.950 . S
C504 C505 1.386 . S
C504 C506 1.391 . S
C505 C504 1.386 . S
C505 C509 1.393 . S
C506 H498 0.950 . S
C506 C504 1.391 . S
C506 C507 1.400 . S
C507 C506 1.400 . S
C507 C508 1.398 . S
C507 C513 1.491 . S
C508 H499 0.950 . S
C508 C507 1.398 . S
C508 C509 1.391 . S
C509 H497 0.950 . S
C509 C505 1.393 . S
C509 C508 1.391 . S
C510 H500 0.950 . S
C510 C511 1.386 . S
C510 C512 1.391 . S
C511 C510 1.386 . S
C511 C515 1.393 . S
C512 H501 0.950 . S
C512 C510 1.391 . S
C512 C513 1.400 . S
C513 C507 1.491 . S
C513 C512 1.400 . S
C513 C514 1.398 . S
C514 H502 0.950 . S
C514 C513 1.398 . S
C514 C515 1.391 . S
C515 H503 0.950 . S
C515 C511 1.393 . S
C515 C514 1.391 . S
H516 C524 0.950 . S
H517 C529 0.950 . S
H518 C526 0.950 . S
H519 C528 0.950 . S
H520 C530 0.950 . S
H521 C532 0.950 . S
H522 C534 0.950 . S
H523 C535 0.950 . S
C524 H516 0.950 . S
C524 C525 1.386 . S
C524 C526 1.391 . S
C525 C524 1.386 . S
C525 C529 1.393 . S
C526 H518 0.950 . S
C526 C524 1.391 . S
C526 C527 1.400 . S
C527 C526 1.400 . S
C527 C528 1.398 . S
C527 C533 1.491 . S
C528 H519 0.950 . S
C528 C527 1.398 . S
C528 C529 1.391 . S
C529 H517 0.950 . S
C529 C525 1.393 . S
C529 C528 1.391 . S
C530 H520 0.950 . S
C530 C531 1.386 . S
C530 C532 1.391 . S
C531 C530 1.386 . S
C531 C535 1.393 . S
C532 H521 0.950 . S
C532 C530 1.391 . S
C532 C533 1.400 . S
C533 C527 1.491 . S
C533 C532 1.400 . S
C533 C534 1.398 . S
C534 H522 0.950 . S
C534 C533 1.398 . S
C534 C535 1.391 . S
C535 H523 0.950 . S
C535 C531 1.393 . S
C535 C534 1.391 . S
H536 C544 0.950 . S
H537 C549 0.950 . S
H538 C546 0.950 . S
H539 C548 0.950 . S
H540 C550 0.950 . S
H541 C552 0.950 . S
H542 C554 0.950 . S
H543 C555 0.950 . S
C544 H536 0.950 . S
C544 C545 1.386 . S
C544 C546 1.391 . S
C545 C544 1.386 . S
C545 C549 1.393 . S
C546 H538 0.950 . S
C546 C544 1.391 . S
C546 C547 1.400 . S
C547 C546 1.400 . S
C547 C548 1.398 . S
C547 C553 1.491 . S
C548 H539 0.950 . S
C548 C547 1.398 . S
C548 C549 1.391 . S
C549 H537 0.950 . S
C549 C545 1.393 . S
C549 C548 1.391 . S
C550 H540 0.950 . S
C550 C551 1.386 . S
C550 C552 1.391 1_545 S
C551 C550 1.386 . S
C551 C555 1.393 1_545 S
C552 H541 0.950 . S
C552 C550 1.391 1_565 S
C552 C553 1.400 . S
C553 C547 1.491 . S
C553 C552 1.400 . S
C553 C554 1.398 . S
C554 H542 0.950 . S
C554 C553 1.398 . S
C554 C555 1.391 . S
C555 H543 0.950 . S
C555 C551 1.393 1_565 S
C555 C554 1.391 . S
H556 C564 0.950 . S
H557 C569 0.950 . S
H558 C566 0.950 . S
H559 C568 0.950 . S
H560 C570 0.950 . S
H561 C572 0.950 . S
H562 C574 0.950 . S
H563 C575 0.950 . S
C564 H556 0.950 . S
C564 C565 1.386 . S
C564 C566 1.391 . S
C565 C564 1.386 . S
C565 C569 1.393 . S
C566 H558 0.950 . S
C566 C564 1.391 . S
C566 C567 1.400 . S
C567 C566 1.400 . S
C567 C568 1.398 . S
C567 C573 1.491 . S
C568 H559 0.950 . S
C568 C567 1.398 . S
C568 C569 1.391 . S
C569 H557 0.950 . S
C569 C565 1.393 . S
C569 C568 1.391 . S
C570 H560 0.950 . S
C570 C571 1.386 . S
C570 C572 1.391 . S
C571 C570 1.386 . S
C571 C575 1.393 . S
C572 H561 0.950 . S
C572 C570 1.391 . S
C572 C573 1.400 . S
C573 C567 1.491 . S
C573 C572 1.400 . S
C573 C574 1.398 . S
C574 H562 0.950 . S
C574 C573 1.398 . S
C574 C575 1.391 . S
C575 H563 0.950 . S
C575 C571 1.393 . S
C575 C574 1.391 . S
H576 C584 0.950 . S
H577 C589 0.950 . S
H578 C586 0.950 . S
H579 C588 0.950 . S
H580 C590 0.950 . S
H581 C592 0.950 . S
H582 C594 0.950 . S
H583 C595 0.950 . S
C584 H576 0.950 . S
C584 C585 1.386 . S
C584 C586 1.391 . S
C585 C584 1.386 . S
C585 C589 1.393 . S
C586 H578 0.950 . S
C586 C584 1.391 . S
C586 C587 1.400 . S
C587 C586 1.400 . S
C587 C588 1.398 . S
C587 C593 1.491 . S
C588 H579 0.950 . S
C588 C587 1.398 . S
C588 C589 1.391 . S
C589 H577 0.950 . S
C589 C585 1.393 . S
C589 C588 1.391 . S
C590 H580 0.950 . S
C590 C591 1.386 . S
C590 C592 1.391 . S
C591 C590 1.386 . S
C591 C595 1.393 . S
C592 H581 0.950 . S
C592 C590 1.391 . S
C592 C593 1.400 . S
C593 C587 1.491 . S
C593 C592 1.400 . S
C593 C594 1.398 . S
C594 H582 0.950 . S
C594 C593 1.398 . S
C594 C595 1.391 . S
C595 H583 0.950 . S
C595 C591 1.393 . S
C595 C594 1.391 . S
H596 C604 0.950 . S
H597 C609 0.950 . S
H598 C606 0.950 . S
H599 C608 0.950 . S
H600 C610 0.950 . S
H601 C612 0.950 . S
H602 C614 0.950 . S
H603 C615 0.950 . S
C604 H596 0.950 . S
C604 C605 1.386 . S
C604 C606 1.391 . S
C605 C604 1.386 . S
C605 C609 1.393 . S
C606 H598 0.950 . S
C606 C604 1.391 . S
C606 C607 1.400 . S
C607 C606 1.400 . S
C607 C608 1.398 . S
C607 C613 1.491 . S
C608 H599 0.950 . S
C608 C607 1.398 . S
C608 C609 1.391 . S
C609 H597 0.950 . S
C609 C605 1.393 . S
C609 C608 1.391 . S
C610 H600 0.950 . S
C610 C611 1.386 . S
C610 C612 1.391 . S
C611 C610 1.386 . S
C611 C615 1.393 . S
C612 H601 0.950 . S
C612 C610 1.391 . S
C612 C613 1.400 . S
C613 C607 1.491 . S
C613 C612 1.400 . S
C613 C614 1.398 . S
C614 H602 0.950 . S
C614 C613 1.398 . S
C614 C615 1.391 . S
C615 H603 0.950 . S
C615 C611 1.393 . S
C615 C614 1.391 . S
H616 C624 0.950 . S
H617 C629 0.950 . S
H618 C626 0.950 . S
H619 C628 0.950 . S
H620 C630 0.950 . S
H621 C632 0.950 . S
H622 C634 0.950 . S
H623 C635 0.950 . S
C624 H616 0.950 . S
C624 C625 1.386 . S
C624 C626 1.391 . S
C625 C624 1.386 . S
C625 C629 1.393 . S
C626 H618 0.950 . S
C626 C624 1.391 . S
C626 C627 1.400 . S
C627 C626 1.400 . S
C627 C628 1.398 . S
C627 C633 1.491 . S
C628 H619 0.950 . S
C628 C627 1.398 . S
C628 C629 1.391 . S
C629 H617 0.950 . S
C629 C625 1.393 . S
C629 C628 1.391 . S
C630 H620 0.950 . S
C630 C631 1.386 . S
C630 C632 1.391 . S
C631 C630 1.386 . S
C631 C635 1.393 . S
C632 H621 0.950 . S
C632 C630 1.391 . S
C632 C633 1.400 . S
C633 C627 1.491 . S
C633 C632 1.400 . S
C633 C634 1.398 . S
C634 H622 0.950 . S
C634 C633 1.398 . S
C634 C635 1.391 . S
C635 H623 0.950 . S
C635 C631 1.393 . S
C635 C634 1.391 . S
H636 C644 0.950 . S
H637 C649 0.950 . S
H638 C646 0.950 . S
H639 C648 0.950 . S
H640 C650 0.950 . S
H641 C652 0.950 . S
H642 C654 0.950 . S
H643 C655 0.950 . S
C644 H636 0.950 . S
C644 C645 1.386 . S
C644 C646 1.391 . S
C645 C644 1.386 . S
C645 C649 1.393 . S
C646 H638 0.950 . S
C646 C644 1.391 . S
C646 C647 1.400 . S
C647 C646 1.400 . S
C647 C648 1.398 . S
C647 C653 1.491 . S
C648 H639 0.950 . S
C648 C647 1.398 . S
C648 C649 1.391 . S
C649 H637 0.950 . S
C649 C645 1.393 . S
C649 C648 1.391 . S
C650 H640 0.950 . S
C650 C651 1.386 . S
C650 C652 1.391 . S
C651 C650 1.386 . S
C651 C655 1.393 . S
C652 H641 0.950 . S
C652 C650 1.391 . S
C652 C653 1.400 . S
C653 C647 1.491 . S
C653 C652 1.400 . S
C653 C654 1.398 . S
C654 H642 0.950 . S
C654 C653 1.398 . S
C654 C655 1.391 . S
C655 H643 0.950 . S
C655 C651 1.393 . S
C655 C654 1.391 . S
H656 C664 0.950 . S
H657 C669 0.950 . S
H658 C666 0.950 . S
H659 C668 0.950 . S
H660 C670 0.950 . S
H661 C672 0.950 . S
H662 C674 0.950 . S
H663 C675 0.950 . S
C664 H656 0.950 . S
C664 C665 1.386 . S
C664 C666 1.391 . S
C665 C664 1.386 . S
C665 C669 1.393 . S
C666 H658 0.950 . S
C666 C664 1.391 . S
C666 C667 1.400 . S
C667 C666 1.400 . S
C667 C668 1.398 . S
C667 C673 1.491 . S
C668 H659 0.950 . S
C668 C667 1.398 . S
C668 C669 1.391 . S
C669 H657 0.950 . S
C669 C665 1.393 . S
C669 C668 1.391 . S
C670 H660 0.950 . S
C670 C671 1.386 . S
C670 C672 1.391 . S
C671 C670 1.386 . S
C671 C675 1.393 . S
C672 H661 0.950 . S
C672 C670 1.391 . S
C672 C673 1.400 . S
C673 C667 1.491 . S
C673 C672 1.400 . S
C673 C674 1.398 . S
C674 H662 0.950 . S
C674 C673 1.398 . S
C674 C675 1.391 . S
C675 H663 0.950 . S
C675 C671 1.393 . S
C675 C674 1.391 . S
H676 C684 0.950 . S
H677 C689 0.950 . S
H678 C686 0.950 . S
H679 C688 0.950 . S
H680 C690 0.950 . S
H681 C692 0.950 . S
H682 C694 0.950 . S
H683 C695 0.950 . S
C684 H676 0.950 . S
C684 C685 1.386 . S
C684 C686 1.391 . S
C685 C684 1.386 . S
C685 C689 1.393 . S
C686 H678 0.950 . S
C686 C684 1.391 . S
C686 C687 1.400 . S
C687 C686 1.400 . S
C687 C688 1.398 . S
C687 C693 1.491 . S
C688 H679 0.950 . S
C688 C687 1.398 . S
C688 C689 1.391 . S
C689 H677 0.950 . S
C689 C685 1.393 . S
C689 C688 1.391 . S
C690 H680 0.950 . S
C690 C691 1.386 . S
C690 C692 1.391 . S
C691 C690 1.386 . S
C691 C695 1.393 . S
C692 H681 0.950 . S
C692 C690 1.391 . S
C692 C693 1.400 . S
C693 C687 1.491 . S
C693 C692 1.400 . S
C693 C694 1.398 . S
C694 H682 0.950 . S
C694 C693 1.398 . S
C694 C695 1.391 . S
C695 H683 0.950 . S
C695 C691 1.393 . S
C695 C694 1.391 . S
H696 C704 0.950 . S
H697 C709 0.950 . S
H698 C706 0.950 . S
H699 C708 0.950 . S
H700 C710 0.950 . S
H701 C712 0.950 . S
H702 C714 0.950 . S
H703 C715 0.950 . S
C704 H696 0.950 . S
C704 C705 1.386 . S
C704 C706 1.391 . S
C705 C704 1.386 . S
C705 C709 1.393 . S
C706 H698 0.950 . S
C706 C704 1.391 . S
C706 C707 1.400 . S
C707 C706 1.400 . S
C707 C708 1.398 . S
C707 C713 1.491 . S
C708 H699 0.950 . S
C708 C707 1.398 . S
C708 C709 1.391 . S
C709 H697 0.950 . S
C709 C705 1.393 . S
C709 C708 1.391 . S
C710 H700 0.950 . S
C710 C711 1.386 . S
C710 C712 1.391 . S
C711 C710 1.386 . S
C711 C715 1.393 . S
C712 H701 0.950 . S
C712 C710 1.391 . S
C712 C713 1.400 . S
C713 C707 1.491 . S
C713 C712 1.400 . S
C713 C714 1.398 . S
C714 H702 0.950 . S
C714 C713 1.398 . S
C714 C715 1.391 . S
C715 H703 0.950 . S
C715 C711 1.393 . S
C715 C714 1.391 . S
H716 C724 0.950 . S
H717 C729 0.950 . S
H718 C726 0.950 . S
H719 C728 0.950 . S
H720 C730 0.950 . S
H721 C732 0.950 . S
H722 C734 0.950 . S
H723 C735 0.950 . S
C724 H716 0.950 . S
C724 C725 1.386 . S
C724 C726 1.391 . S
C725 C724 1.386 . S
C725 C729 1.393 . S
C726 H718 0.950 . S
C726 C724 1.391 . S
C726 C727 1.400 . S
C727 C726 1.400 . S
C727 C728 1.398 . S
C727 C733 1.491 . S
C728 H719 0.950 . S
C728 C727 1.398 . S
C728 C729 1.391 . S
C729 H717 0.950 . S
C729 C725 1.393 . S
C729 C728 1.391 . S
C730 H720 0.950 . S
C730 C731 1.386 . S
C730 C732 1.391 . S
C731 C730 1.386 . S
C731 C735 1.393 . S
C732 H721 0.950 . S
C732 C730 1.391 . S
C732 C733 1.400 . S
C733 C727 1.491 . S
C733 C732 1.400 . S
C733 C734 1.398 . S
C734 H722 0.950 . S
C734 C733 1.398 . S
C734 C735 1.391 . S
C735 H723 0.950 . S
C735 C731 1.393 . S
C735 C734 1.391 . S
H736 C744 0.950 . S
H737 C749 0.950 . S
H738 C746 0.950 . S
H739 C748 0.950 . S
H740 C750 0.950 . S
H741 C752 0.950 . S
H742 C754 0.950 . S
H743 C755 0.950 . S
C744 H736 0.950 . S
C744 C745 1.386 . S
C744 C746 1.391 . S
C745 C744 1.386 . S
C745 C749 1.393 . S
C746 H738 0.950 . S
C746 C744 1.391 . S
C746 C747 1.400 . S
C747 C746 1.400 . S
C747 C748 1.398 . S
C747 C753 1.491 . S
C748 H739 0.950 . S
C748 C747 1.398 . S
C748 C749 1.391 . S
C749 H737 0.950 . S
C749 C745 1.393 . S
C749 C748 1.391 . S
C750 H740 0.950 . S
C750 C751 1.386 . S
C750 C752 1.391 . S
C751 C750 1.386 . S
C751 C755 1.393 . S
C752 H741 0.950 . S
C752 C750 1.391 . S
C752 C753 1.400 . S
C753 C747 1.491 . S
C753 C752 1.400 . S
C753 C754 1.398 . S
C754 H742 0.950 . S
C754 C753 1.398 . S
C754 C755 1.391 . S
C755 H743 0.950 . S
C755 C751 1.393 . S
C755 C754 1.391 . S
H756 C764 0.950 . S
H757 C769 0.950 . S
H758 C766 0.950 . S
H759 C768 0.950 . S
H760 C770 0.950 . S
H761 C772 0.950 . S
H762 C774 0.950 . S
H763 C775 0.950 . S
C764 H756 0.950 . S
C764 C765 1.386 . S
C764 C766 1.391 . S
C765 C764 1.386 . S
C765 C769 1.393 . S
C766 H758 0.950 . S
C766 C764 1.391 . S
C766 C767 1.400 . S
C767 C766 1.400 . S
C767 C768 1.398 . S
C767 C773 1.491 . S
C768 H759 0.950 . S
C768 C767 1.398 . S
C768 C769 1.391 . S
C769 H757 0.950 . S
C769 C765 1.393 . S
C769 C768 1.391 . S
C770 H760 0.950 . S
C770 C771 1.386 . S
C770 C772 1.391 . S
C771 C770 1.386 . S
C771 C775 1.393 . S
C772 H761 0.950 . S
C772 C770 1.391 . S
C772 C773 1.400 . S
C773 C767 1.491 . S
C773 C772 1.400 . S
C773 C774 1.398 . S
C774 H762 0.950 . S
C774 C773 1.398 . S
C774 C775 1.391 . S
C775 H763 0.950 . S
C775 C771 1.393 . S
C775 C774 1.391 . S
H776 C784 0.950 . S
H777 C789 0.950 . S
H778 C786 0.950 . S
H779 C788 0.950 . S
H780 C790 0.950 . S
H781 C792 0.950 . S
H782 C794 0.950 . S
H783 C795 0.950 . S
C784 H776 0.950 . S
C784 C785 1.386 . S
C784 C786 1.391 . S
C785 C784 1.386 . S
C785 C789 1.393 . S
C786 H778 0.950 . S
C786 C784 1.391 . S
C786 C787 1.400 . S
C787 C786 1.400 . S
C787 C788 1.398 . S
C787 C793 1.491 . S
C788 H779 0.950 . S
C788 C787 1.398 . S
C788 C789 1.391 . S
C789 H777 0.950 . S
C789 C785 1.393 . S
C789 C788 1.391 . S
C790 H780 0.950 . S
C790 C791 1.386 . S
C790 C792 1.391 . S
C791 C790 1.386 . S
C791 C795 1.393 . S
C792 H781 0.950 . S
C792 C790 1.391 . S
C792 C793 1.400 . S
C793 C787 1.491 . S
C793 C792 1.400 . S
C793 C794 1.398 . S
C794 H782 0.950 . S
C794 C793 1.398 . S
C794 C795 1.391 . S
C795 H783 0.950 . S
C795 C791 1.393 . S
C795 C794 1.391 . S
H796 C804 0.950 . S
H797 C809 0.950 . S
H798 C806 0.950 . S
H799 C808 0.950 . S
H800 C810 0.950 . S
H801 C812 0.950 . S
H802 C814 0.950 . S
H803 C815 0.950 . S
C804 H796 0.950 . S
C804 C805 1.386 . S
C804 C806 1.391 . S
C805 C804 1.386 . S
C805 C809 1.393 . S
C806 H798 0.950 . S
C806 C804 1.391 . S
C806 C807 1.400 . S
C807 C806 1.400 . S
C807 C808 1.398 . S
C807 C813 1.491 . S
C808 H799 0.950 . S
C808 C807 1.398 . S
C808 C809 1.391 . S
C809 H797 0.950 . S
C809 C805 1.393 . S
C809 C808 1.391 . S
C810 H800 0.950 . S
C810 C811 1.386 . S
C810 C812 1.391 . S
C811 C810 1.386 . S
C811 C815 1.393 . S
C812 H801 0.950 . S
C812 C810 1.391 . S
C812 C813 1.400 . S
C813 C807 1.491 . S
C813 C812 1.400 . S
C813 C814 1.398 . S
C814 H802 0.950 . S
C814 C813 1.398 . S
C814 C815 1.391 . S
C815 H803 0.950 . S
C815 C811 1.393 . S
C815 C814 1.391 . S
H816 C824 0.950 . S
H817 C829 0.950 . S
H818 C826 0.950 . S
H819 C828 0.950 . S
H820 C830 0.934 1_545 S
H821 C832 0.950 . S
H822 C834 0.950 . S
H823 C835 0.950 . S
C824 H816 0.950 . S
C824 C825 1.386 . S
C824 C826 1.391 . S
C825 C824 1.386 . S
C825 C829 1.393 . S
C826 H818 0.950 . S
C826 C824 1.391 . S
C826 C827 1.400 . S
C827 C826 1.400 . S
C827 C828 1.398 . S
C827 C833 1.491 . S
C828 H819 0.950 . S
C828 C827 1.398 . S
C828 C829 1.391 . S
C829 H817 0.950 . S
C829 C825 1.393 . S
C829 C828 1.391 . S
C830 H820 0.934 1_565 S
C830 C831 1.386 1_565 S
C830 C832 1.391 . S
C831 C830 1.386 1_545 S
C831 C835 1.393 . S
C832 H821 0.950 . S
C832 C830 1.391 . S
C832 C833 1.400 . S
C833 C827 1.491 . S
C833 C832 1.400 . S
C833 C834 1.398 . S
C834 H822 0.950 . S
C834 C833 1.398 . S
C834 C835 1.391 1_565 S
C835 H823 0.950 . S
C835 C831 1.393 . S
C835 C834 1.391 1_545 S
H836 C844 0.950 . S
H837 C849 0.950 . S
H838 C846 0.950 . S
H839 C848 0.950 . S
H840 C850 0.950 . S
H841 C852 0.950 . S
H842 C854 0.950 . S
H843 C855 0.950 . S
C844 H836 0.950 . S
C844 C845 1.386 . S
C844 C846 1.391 . S
C845 C844 1.386 . S
C845 C849 1.393 . S
C846 H838 0.950 . S
C846 C844 1.391 . S
C846 C847 1.400 . S
C847 C846 1.400 . S
C847 C848 1.398 . S
C847 C853 1.491 . S
C848 H839 0.950 . S
C848 C847 1.398 . S
C848 C849 1.391 . S
C849 H837 0.950 . S
C849 C845 1.393 . S
C849 C848 1.391 . S
C850 H840 0.950 . S
C850 C851 1.386 . S
C850 C852 1.391 . S
C851 C850 1.386 . S
C851 C855 1.393 . S
C852 H841 0.950 . S
C852 C850 1.391 . S
C852 C853 1.400 . S
C853 C847 1.491 . S
C853 C852 1.400 . S
C853 C854 1.398 . S
C854 H842 0.950 . S
C854 C853 1.398 . S
C854 C855 1.391 . S
C855 H843 0.950 . S
C855 C851 1.393 . S
C855 C854 1.391 . S
C391 C118 1.528 . S
C385 C5 1.386 . S
C411 C157 1.554 . S
C405 C16 1.286 . S
C431 C133 1.708 . S
C425 C30 1.710 . S
C451 C172 1.671 . S
C445 C40 1.608 . S
C471 C220 1.466 . S
C465 C8 1.462 . S
C491 C253 1.495 . S
C485 C18 1.416 . S
C505 C29 1.749 . S
C511 C310 1.785 . S
C531 C358 1.561 . S
C525 C38 1.297 . S
C551 C205 1.436 . S
C545 C19 1.428 . S
C565 C27 1.479 . S
C571 C268 1.634 . S
C591 C325 1.603 . S
C585 C41 1.598 . S
C611 C373 1.545 . S
C605 C7 1.496 . S
C625 C52 1.600 . S
C631 C166 1.627 . S
C651 C109 1.600 . S
C645 C62 1.570 . S
C665 C74 1.429 . S
C671 C181 1.441 . S
C685 C82 1.229 . S
C691 C124 1.411 . S
C711 C301 1.844 . S
C705 C51 1.757 . S
C731 C364 1.605 . S
C725 C60 1.357 . S
C751 C229 1.487 . S
C745 C71 1.272 . S
C765 C84 1.473 . S
C771 C277 1.528 . S
C791 C316 1.722 . S
C785 C63 1.714 . S
C811 C349 1.494 . S
C805 C73 1.432 . S
C831 C214 1.560 . S
C825 C85 1.550 . S
C845 C49 1.347 . S
C851 C262 1.645 . S
