# Generated by pormake.
# Topology nom, (4,4)-cn, num edge types: 1
# Building blocks:
#     Node 0, Type 0, BuildingBlock: AZAVOO_clean_linker_0, # of connection points: 4
#     Node 1, Type 0, BuildingBlock: AZAVOO_clean_linker_0, # of connection points: 4
#     Node 2, Type 0, BuildingBlock: AZAVOO_clean_linker_0, # of connection points: 4
#     Node 3, Type 0, BuildingBlock: AZAVOO_clean_linker_0, # of connection points: 4
#     Node 4, Type 0, BuildingBlock: AZAVOO_clean_linker_0, # of connection points: 4
#     Node 5, Type 0, BuildingBlock: AZAVOO_clean_linker_0, # of connection points: 4
#     Node 6, Type 1, BuildingBlock: TATPOV_clean_sbu_0, # of connection points: 4
#     Node 7, Type 1, BuildingBlock: TATPOV_clean_sbu_0, # of connection points: 4
#     Node 8, Type 1, BuildingBlock: TATPOV_clean_sbu_0, # of connection points: 4
#     Node 9, Type 1, BuildingBlock: TATPOV_clean_sbu_0, # of connection points: 4
#     Node 10, Type 1, BuildingBlock: TATPOV_clean_sbu_0, # of connection points: 4
#     Node 11, Type 1, BuildingBlock: TATPOV_clean_sbu_0, # of connection points: 4
#     Edge 12, Type (0, 1), BuildingBlock: CIFDUS_clean_linker_0, # of connection points: 2
#     Edge 13, Type (0, 1), BuildingBlock: CIFDUS_clean_linker_0, # of connection points: 2
#     Edge 14, Type (0, 1), BuildingBlock: CIFDUS_clean_linker_0, # of connection points: 2
#     Edge 15, Type (0, 1), BuildingBlock: CIFDUS_clean_linker_0, # of connection points: 2
#     Edge 16, Type (0, 1), BuildingBlock: CIFDUS_clean_linker_0, # of connection points: 2
#     Edge 17, Type (0, 1), BuildingBlock: CIFDUS_clean_linker_0, # of connection points: 2
#     Edge 18, Type (0, 1), BuildingBlock: CIFDUS_clean_linker_0, # of connection points: 2
#     Edge 19, Type (0, 1), BuildingBlock: CIFDUS_clean_linker_0, # of connection points: 2
#     Edge 20, Type (0, 1), BuildingBlock: CIFDUS_clean_linker_0, # of connection points: 2
#     Edge 21, Type (0, 1), BuildingBlock: CIFDUS_clean_linker_0, # of connection points: 2
#     Edge 22, Type (0, 1), BuildingBlock: CIFDUS_clean_linker_0, # of connection points: 2
#     Edge 23, Type (0, 1), BuildingBlock: CIFDUS_clean_linker_0, # of connection points: 2
#     Edge 24, Type (0, 1), BuildingBlock: CIFDUS_clean_linker_0, # of connection points: 2
#     Edge 25, Type (0, 1), BuildingBlock: CIFDUS_clean_linker_0, # of connection points: 2
#     Edge 26, Type (0, 1), BuildingBlock: CIFDUS_clean_linker_0, # of connection points: 2
#     Edge 27, Type (0, 1), BuildingBlock: CIFDUS_clean_linker_0, # of connection points: 2
#     Edge 28, Type (0, 1), BuildingBlock: CIFDUS_clean_linker_0, # of connection points: 2
#     Edge 29, Type (0, 1), BuildingBlock: CIFDUS_clean_linker_0, # of connection points: 2
#     Edge 30, Type (0, 1), BuildingBlock: CIFDUS_clean_linker_0, # of connection points: 2
#     Edge 31, Type (0, 1), BuildingBlock: CIFDUS_clean_linker_0, # of connection points: 2
#     Edge 32, Type (0, 1), BuildingBlock: CIFDUS_clean_linker_0, # of connection points: 2
#     Edge 33, Type (0, 1), BuildingBlock: CIFDUS_clean_linker_0, # of connection points: 2
#     Edge 34, Type (0, 1), BuildingBlock: CIFDUS_clean_linker_0, # of connection points: 2
#     Edge 35, Type (0, 1), BuildingBlock: CIFDUS_clean_linker_0, # of connection points: 2
# Relax obj value: 0.164
# Max RMSD: 0.228
# Mean RMSD: 0.171
data_MOF--net-nom--node1-TATPOV_clean_sbu_0--node2-AZAVOO_clean_linker_0--edge1-CIFDUS_clean_linker_0
_symmetry_space_group_name_H-M    P1
_symmetry_Int_Tables_number       1
_symmetry_cell_setting            triclinic
loop_
_symmetry_equiv_pos_as_xyz
'x, y, z'
_cell_length_a     42.542653
_cell_length_b     44.411167
_cell_length_c     53.060825
_cell_angle_alpha  90.65569
_cell_angle_beta   90.240451
_cell_angle_gamma 121.01221
loop_
_atom_site_label
_atom_site_type_symbol
_atom_site_fract_x
_atom_site_fract_y
_atom_site_fract_z
_atom_type_partial_charge
H0 H 0.03429 0.38513 0.14444 0.0
H1 H 0.29532 0.64249 0.33101 0.0
H2 H 0.99011 0.38561 0.27798 0.0
H3 H 0.93949 0.35711 0.24734 0.0
H4 H 0.92762 0.44791 0.24993 0.0
H5 H 0.97897 0.47677 0.27966 0.0
H6 H 0.06875 0.415 0.25211 0.0
H7 H 0.05867 0.3961 0.20776 0.0
H8 H 0.01782 0.46555 0.19313 0.0
H9 H 0.02835 0.48442 0.23739 0.0
H10 H 0.15102 0.47535 0.27973 0.0
H11 H 0.20902 0.51477 0.2587 0.0
H12 H 0.15999 0.57003 0.22605 0.0
H13 H 0.10289 0.53075 0.24675 0.0
H14 H 0.14269 0.48468 0.33813 0.0
H15 H 0.20718 0.52462 0.34988 0.0
H16 H 0.20682 0.60759 0.30822 0.0
H17 H 0.14229 0.5676 0.29703 0.0
H18 H 0.0738 0.46477 0.36957 0.0
H19 H 0.09308 0.49635 0.41033 0.0
H20 H 0.10559 0.58907 0.37506 0.0
H21 H 0.08669 0.55749 0.33453 0.0
H22 H 0.98365 0.41779 0.34599 0.0
H23 H 0.93934 0.42099 0.37413 0.0
H24 H 0.97479 0.52497 0.34704 0.0
H25 H 0.01814 0.52141 0.3191 0.0
O26 O 0.03767 0.39263 0.16195 0.0
O27 O 0.02274 0.43297 0.15472 0.0
O28 O 0.26808 0.58337 0.34928 0.0
O29 O 0.26959 0.62642 0.32728 0.0
C30 C 0.0264 0.45486 0.29112 0.0
C31 C 0.05596 0.46286 0.27478 0.0
C32 C 0.09245 0.48508 0.28317 0.0
C33 C 0.09964 0.49838 0.30817 0.0
C34 C 0.07037 0.49109 0.32425 0.0
C35 C 0.03371 0.47018 0.31556 0.0
C36 C 0.98833 0.43332 0.28109 0.0
C37 C 0.97547 0.39868 0.27284 0.0
C38 C 0.94672 0.3825 0.25527 0.0
C39 C 0.92994 0.40047 0.24619 0.0
C40 C 0.93986 0.43336 0.25683 0.0
C41 C 0.96908 0.44981 0.27403 0.0
C42 C 0.04894 0.45078 0.24799 0.0
C43 C 0.05752 0.42598 0.23929 0.0
C44 C 0.05171 0.41523 0.21397 0.0
C45 C 0.0375 0.42937 0.1969 0.0
C46 C 0.02888 0.45421 0.20576 0.0
C47 C 0.03464 0.46486 0.23106 0.0
C48 C 0.12283 0.5003 0.26482 0.0
C49 C 0.15255 0.49509 0.26715 0.0
C50 C 0.1857 0.51782 0.25531 0.0
C51 C 0.1894 0.54593 0.24097 0.0
C52 C 0.15823 0.54853 0.23664 0.0
C53 C 0.12532 0.52596 0.24847 0.0
C54 C 0.138 0.52323 0.31663 0.0
C55 C 0.15655 0.51159 0.33179 0.0
C56 C 0.19338 0.53441 0.33837 0.0
C57 C 0.21222 0.56926 0.32984 0.0
C58 C 0.19321 0.58094 0.31504 0.0
C59 C 0.15636 0.55817 0.30862 0.0
C60 C 0.07862 0.50883 0.34927 0.0
C61 C 0.0803 0.49175 0.37081 0.0
C62 C 0.09151 0.50984 0.39393 0.0
C63 C 0.1008 0.54512 0.39578 0.0
C64 C 0.09821 0.5618 0.37422 0.0
C65 C 0.08746 0.54386 0.35111 0.0
C66 C 0.0041 0.46944 0.33063 0.0
C67 C 0.98136 0.44097 0.34599 0.0
C68 C 0.95629 0.44289 0.36205 0.0
C69 C 0.95421 0.4735 0.36307 0.0
C70 C 0.97638 0.50139 0.34707 0.0
C71 C 0.00093 0.49931 0.33097 0.0
C72 C 0.03211 0.4185 0.16992 0.0
C73 C 0.25161 0.59333 0.33614 0.0
H74 H 0.54267 0.08917 0.3204 0.0
H75 H 0.54713 0.26425 0.5689 0.0
H76 H 0.52855 0.02125 0.4441 0.0
H77 H 0.50959 0.97301 0.41388 0.0
H78 H 0.39649 0.93103 0.435 0.0
H79 H 0.41563 0.98108 0.46354 0.0
H80 H 0.56104 0.09786 0.43008 0.0
H81 H 0.56456 0.09957 0.38405 0.0
H82 H 0.44622 0.04613 0.37913 0.0
H83 H 0.44315 0.045 0.42517 0.0
H84 H 0.58316 0.15098 0.46798 0.0
H85 H 0.60867 0.20988 0.45051 0.0
H86 H 0.49913 0.1872 0.43355 0.0
H87 H 0.47384 0.128 0.45066 0.0
H88 H 0.56894 0.13303 0.52916 0.0
H89 H 0.59043 0.18659 0.55462 0.0
H90 H 0.49729 0.19268 0.52888 0.0
H91 H 0.47589 0.13885 0.50379 0.0
H92 H 0.53137 0.05676 0.54735 0.0
H93 H 0.53179 0.06701 0.5929 0.0
H94 H 0.443 0.08664 0.58304 0.0
H95 H 0.44237 0.07566 0.53777 0.0
H96 H 0.5069 0.99262 0.50753 0.0
H97 H 0.47403 0.93407 0.52604 0.0
H98 H 0.37733 0.94227 0.53269 0.0
H99 H 0.41107 0.00116 0.51551 0.0
O100 O 0.54067 0.08845 0.33859 0.0
O101 O 0.47977 0.06084 0.3371 0.0
O102 O 0.5864 0.23845 0.57196 0.0
O103 O 0.53926 0.24303 0.55903 0.0
C104 C 0.48478 0.03721 0.47112 0.0
C105 C 0.4997 0.0699 0.45885 0.0
C106 C 0.51133 0.10096 0.47309 0.0
C107 C 0.5078 0.09941 0.49952 0.0
C108 C 0.49166 0.06669 0.5117 0.0
C109 C 0.48015 0.03555 0.49756 0.0
C110 C 0.47349 0.00482 0.45593 0.0
C111 C 0.49971 0.00143 0.44231 0.0
C112 C 0.48879 0.97355 0.42521 0.0
C113 C 0.45139 0.94812 0.42175 0.0
C114 C 0.42544 0.95048 0.4367 0.0
C115 C 0.43634 0.97881 0.45336 0.0
C116 C 0.50187 0.07144 0.43092 0.0
C117 C 0.53595 0.08681 0.41901 0.0
C118 C 0.53786 0.08761 0.39272 0.0
C119 C 0.50566 0.07297 0.3779 0.0
C120 C 0.47154 0.05764 0.38997 0.0
C121 C 0.4697 0.05695 0.41625 0.0
C122 C 0.52673 0.1353 0.46047 0.0
C123 C 0.56476 0.15857 0.4601 0.0
C124 C 0.57923 0.19208 0.4501 0.0
C125 C 0.55582 0.20303 0.4407 0.0
C126 C 0.51772 0.17942 0.44076 0.0
C127 C 0.5033 0.14567 0.45038 0.0
C128 C 0.521 0.13224 0.51458 0.0
C129 C 0.55326 0.14601 0.52906 0.0
C130 C 0.56545 0.17659 0.54357 0.0
C131 C 0.54559 0.19396 0.54375 0.0
C132 C 0.51327 0.18002 0.52914 0.0
C133 C 0.50104 0.14937 0.51472 0.0
C134 C 0.48694 0.06562 0.53937 0.0
C135 C 0.51134 0.06225 0.55521 0.0
C136 C 0.51174 0.06841 0.58113 0.0
C137 C 0.48768 0.07799 0.59152 0.0
C138 C 0.46164 0.079 0.5757 0.0
C139 C 0.46129 0.07285 0.54983 0.0
C140 C 0.46135 0.00107 0.51024 0.0
C141 C 0.47878 0.98181 0.51339 0.0
C142 C 0.4598 0.94824 0.52378 0.0
C143 C 0.42285 0.93315 0.53091 0.0
C144 C 0.40587 0.95306 0.52803 0.0
C145 C 0.42502 0.98672 0.51802 0.0
C146 C 0.50777 0.07366 0.34997 0.0
C147 C 0.55843 0.22646 0.55912 0.0
H148 H 0.57373 0.56486 0.80925 0.0
H149 H 0.57228 0.3971 0.55256 0.0
H150 H 0.57836 0.63136 0.6767 0.0
H151 H 0.56952 0.65985 0.7134 0.0
H152 H 0.45248 0.5884 0.70729 0.0
H153 H 0.46159 0.56004 0.6705 0.0
H154 H 0.59737 0.57843 0.70041 0.0
H155 H 0.59867 0.57904 0.74656 0.0
H156 H 0.48009 0.51817 0.74688 0.0
H157 H 0.47926 0.51733 0.70074 0.0
H158 H 0.61369 0.53624 0.66829 0.0
H159 H 0.62684 0.49527 0.68988 0.0
H160 H 0.51036 0.42012 0.69386 0.0
H161 H 0.49777 0.46165 0.67315 0.0
H162 H 0.61512 0.54639 0.61292 0.0
H163 H 0.63392 0.51217 0.58741 0.0
H164 H 0.52287 0.42323 0.58889 0.0
H165 H 0.50445 0.45792 0.61422 0.0
H166 H 0.59511 0.59892 0.5939 0.0
H167 H 0.6214 0.59086 0.55621 0.0
H168 H 0.51835 0.49547 0.53852 0.0
H169 H 0.49339 0.50279 0.57792 0.0
H170 H 0.54757 0.63773 0.62627 0.0
H171 H 0.51168 0.66246 0.61004 0.0
H172 H 0.42574 0.55849 0.58657 0.0
H173 H 0.46116 0.53398 0.60349 0.0
O174 O 0.5726 0.56423 0.79103 0.0
O175 O 0.51162 0.53533 0.79017 0.0
O176 O 0.62259 0.45722 0.56331 0.0
O177 O 0.56575 0.41099 0.56302 0.0
C178 C 0.52736 0.56912 0.65627 0.0
C179 C 0.53757 0.54777 0.66932 0.0
C180 C 0.54658 0.52589 0.65581 0.0
C181 C 0.54671 0.52616 0.62936 0.0
C182 C 0.53605 0.54714 0.61624 0.0
C183 C 0.52494 0.56766 0.62966 0.0
C184 C 0.52062 0.5935 0.6712 0.0
C185 C 0.5507 0.62303 0.68253 0.0
C186 C 0.54565 0.63912 0.70354 0.0
C187 C 0.51041 0.62591 0.71335 0.0
C188 C 0.47992 0.59919 0.7 0.0
C189 C 0.48503 0.58297 0.67899 0.0
C190 C 0.53824 0.54785 0.69731 0.0
C191 C 0.57175 0.56511 0.71052 0.0
C192 C 0.57238 0.56547 0.73686 0.0
C193 C 0.53947 0.5486 0.75042 0.0
C194 C 0.50593 0.53139 0.73703 0.0
C195 C 0.50536 0.5309 0.7107 0.0
C196 C 0.55482 0.50179 0.66935 0.0
C197 C 0.59116 0.51099 0.67408 0.0
C198 C 0.59856 0.48751 0.68626 0.0
C199 C 0.56966 0.45447 0.69374 0.0
C200 C 0.53327 0.4456 0.68889 0.0
C201 C 0.52596 0.46912 0.6769 0.0
C202 C 0.55845 0.50461 0.61527 0.0
C203 C 0.59499 0.51945 0.60781 0.0
C204 C 0.60562 0.49986 0.59324 0.0
C205 C 0.57986 0.46496 0.58607 0.0
C206 C 0.54337 0.45002 0.59404 0.0
C207 C 0.53278 0.4697 0.60856 0.0
C208 C 0.54262 0.55122 0.58883 0.0
C209 C 0.57758 0.57726 0.58124 0.0
C210 C 0.59269 0.57232 0.55948 0.0
C211 C 0.57257 0.54165 0.54447 0.0
C212 C 0.53531 0.5186 0.5501 0.0
C213 C 0.52053 0.52318 0.5723 0.0
C214 C 0.50687 0.584 0.61626 0.0
C215 C 0.52118 0.6204 0.61736 0.0
C216 C 0.50071 0.63449 0.60797 0.0
C217 C 0.46562 0.61236 0.59732 0.0
C218 C 0.45234 0.57616 0.59509 0.0
C219 C 0.47275 0.56216 0.60448 0.0
C220 C 0.54023 0.54889 0.77838 0.0
C221 C 0.59085 0.44427 0.57017 0.0
H222 H 0.03197 0.41364 0.96777 0.0
H223 H 0.22555 0.46921 0.70689 0.0
H224 H 0.98151 0.45427 0.82875 0.0
H225 H 0.95011 0.45387 0.86703 0.0
H226 H 0.92137 0.34691 0.88034 0.0
H227 H 0.95114 0.34685 0.84092 0.0
H228 H 0.04258 0.45719 0.86306 0.0
H229 H 0.0412 0.44914 0.90867 0.0
H230 H 0.02241 0.34465 0.89629 0.0
H231 H 0.02327 0.35291 0.85066 0.0
H232 H 0.11676 0.48472 0.8259 0.0
H233 H 0.17546 0.50073 0.84521 0.0
H234 H 0.14417 0.3913 0.84473 0.0
H235 H 0.08567 0.37575 0.82422 0.0
H236 H 0.10978 0.49711 0.77331 0.0
H237 H 0.16481 0.51995 0.74758 0.0
H238 H 0.14687 0.4151 0.74031 0.0
H239 H 0.0915 0.39254 0.76573 0.0
H240 H 0.03311 0.48688 0.76604 0.0
H241 H 0.06008 0.52392 0.72963 0.0
H242 H 0.06462 0.43968 0.69153 0.0
H243 H 0.03782 0.40277 0.72851 0.0
H244 H 0.9691 0.45555 0.78401 0.0
H245 H 0.90714 0.43748 0.76914 0.0
H246 H 0.88755 0.33379 0.75173 0.0
H247 H 0.94893 0.35179 0.76747 0.0
O248 O 0.03312 0.4165 0.94967 0.0
O249 O 0.02545 0.36369 0.94238 0.0
O250 O 0.2114 0.51412 0.72097 0.0
O251 O 0.20398 0.46089 0.71719 0.0
C252 C 0.99879 0.40605 0.81505 0.0
C253 C 0.03097 0.40971 0.82605 0.0
C254 C 0.06233 0.42055 0.81132 0.0
C255 C 0.06224 0.42907 0.78584 0.0
C256 C 0.03035 0.42608 0.77485 0.0
C257 C 0.99826 0.4134 0.78926 0.0
C258 C 0.96859 0.40058 0.83194 0.0
C259 C 0.96647 0.42999 0.83898 0.0
C260 C 0.94918 0.42996 0.86122 0.0
C261 C 0.93428 0.40072 0.87706 0.0
C262 C 0.93268 0.36985 0.86855 0.0
C263 C 0.94956 0.36973 0.84599 0.0
C264 C 0.03299 0.40561 0.85365 0.0
C265 C 0.0384 0.43268 0.87028 0.0
C266 C 0.03752 0.42797 0.8963 0.0
C267 C 0.03159 0.39621 0.90613 0.0
C268 C 0.02699 0.36941 0.88934 0.0
C269 C 0.02765 0.37409 0.8633 0.0
C270 C 0.09724 0.42918 0.82367 0.0
C271 C 0.12263 0.46424 0.82998 0.0
C272 C 0.15595 0.47323 0.84128 0.0
C273 C 0.16432 0.44721 0.84681 0.0
C274 C 0.13857 0.41192 0.8406 0.0
C275 C 0.10519 0.40297 0.82904 0.0
C276 C 0.09649 0.44313 0.77109 0.0
C277 C 0.11773 0.47912 0.76605 0.0
C278 C 0.14918 0.4921 0.7514 0.0
C279 C 0.16017 0.46931 0.7418 0.0
C280 C 0.13912 0.43334 0.74733 0.0
C281 C 0.10755 0.42038 0.76187 0.0
C282 C 0.03334 0.44207 0.74993 0.0
C283 C 0.03814 0.47574 0.74937 0.0
C284 C 0.05395 0.49705 0.72853 0.0
C285 C 0.06518 0.48502 0.7078 0.0
C286 C 0.05698 0.44998 0.70742 0.0
C287 C 0.04109 0.42862 0.72833 0.0
C288 C 0.96324 0.40481 0.77706 0.0
C289 C 0.9515 0.42907 0.77674 0.0
C290 C 0.9162 0.41876 0.76808 0.0
C291 C 0.89224 0.38405 0.75954 0.0
C292 C 0.90503 0.36049 0.75866 0.0
C293 C 0.94015 0.37076 0.76745 0.0
C294 C 0.0299 0.39103 0.93379 0.0
C295 C 0.19341 0.48292 0.72605 0.0
H296 H 0.41788 0.98586 0.8328 0.0
H297 H 0.43528 0.77822 0.05067 0.0
H298 H 0.45273 0.03876 0.96464 0.0
H299 H 0.46564 0.08712 0.93717 0.0
H300 H 0.58184 0.12577 0.94382 0.0
H301 H 0.56816 0.0756 0.97008 0.0
H302 H 0.41799 0.96053 0.94074 0.0
H303 H 0.40679 0.96499 0.89604 0.0
H304 H 0.52381 0.0266 0.88404 0.0
H305 H 0.5346 0.02146 0.92866 0.0
H306 H 0.40902 0.89293 0.97239 0.0
H307 H 0.39986 0.83923 0.9518 0.0
H308 H 0.5084 0.89844 0.92029 0.0
H309 H 0.51803 0.95123 0.94197 0.0
H310 H 0.41987 0.91863 0.03273 0.0
H311 H 0.39778 0.86163 0.05232 0.0
H312 H 0.48469 0.85421 0.01642 0.0
H313 H 0.50685 0.91147 0.99731 0.0
H314 H 0.4679 0.00541 0.05503 0.0
H315 H 0.46207 0.98874 0.09913 0.0
H316 H 0.52456 0.93844 0.08465 0.0
H317 H 0.53351 0.95868 0.04143 0.0
H318 H 0.49982 0.07351 0.01976 0.0
H319 H 0.54847 0.13165 0.03483 0.0
H320 H 0.62295 0.093 0.04021 0.0
H321 H 0.57502 0.03583 0.02414 0.0
O322 O 0.42293 0.98412 0.85035 0.0
O323 O 0.48333 0.0159 0.84523 0.0
O324 O 0.39956 0.80613 0.06147 0.0
O325 O 0.44346 0.80083 0.04319 0.0
C326 C 0.50021 0.0197 0.98063 0.0
C327 C 0.48361 0.98893 0.96532 0.0
C328 C 0.47399 0.95634 0.97581 0.0
C329 C 0.4783 0.95396 0.002 0.0
C330 C 0.49589 0.98488 0.01722 0.0
C331 C 0.50821 0.01794 0.00629 0.0
C332 C 0.50944 0.05353 0.96914 0.0
C333 C 0.48102 0.05813 0.96059 0.0
C334 C 0.48856 0.08604 0.945 0.0
C335 C 0.52483 0.11028 0.93797 0.0
C336 C 0.55355 0.10718 0.94838 0.0
C337 C 0.54587 0.07881 0.96366 0.0
C338 C 0.47707 0.9909 0.93798 0.0
C339 C 0.44114 0.97481 0.92839 0.0
C340 C 0.43484 0.9775 0.90287 0.0
C341 C 0.46441 0.99629 0.88648 0.0
C342 C 0.50042 0.01204 0.89615 0.0
C343 C 0.50666 0.00924 0.92164 0.0
C344 C 0.4644 0.9258 0.95899 0.0
C345 C 0.43047 0.89433 0.96063 0.0
C346 C 0.42523 0.86378 0.94874 0.0
C347 C 0.45372 0.86455 0.93483 0.0
C348 C 0.48629 0.89689 0.93136 0.0
C349 C 0.49167 0.92716 0.94349 0.0
C350 C 0.46478 0.91906 0.01348 0.0
C351 C 0.43406 0.90462 0.02913 0.0
C352 C 0.42151 0.87207 0.04027 0.0
C353 C 0.43943 0.85331 0.03589 0.0
C354 C 0.47022 0.8679 0.02016 0.0
C355 C 0.48286 0.90054 0.00914 0.0
C356 C 0.50004 0.98218 0.04481 0.0
C357 C 0.48147 0.99194 0.06167 0.0
C358 C 0.47767 0.98182 0.0868 0.0
C359 C 0.49149 0.96088 0.09536 0.0
C360 C 0.5133 0.95432 0.07895 0.0
C361 C 0.51809 0.9655 0.05403 0.0
C362 C 0.53405 0.0506 0.02047 0.0
C363 C 0.5265 0.07753 0.0246 0.0
C364 C 0.55423 0.11063 0.03333 0.0
C365 C 0.58971 0.11703 0.03822 0.0
C366 C 0.59613 0.08908 0.03604 0.0
C367 C 0.56864 0.05628 0.02714 0.0
C368 C 0.45762 0.99942 0.85944 0.0
C369 C 0.42618 0.8187 0.04766 0.0
H370 H 0.5153 0.51838 0.99687 0.0
H371 H 0.75383 0.49712 0.211 0.0
H372 H 0.52263 0.56277 0.14079 0.0
H373 H 0.48632 0.5681 0.10738 0.0
H374 H 0.58518 0.65514 0.0769 0.0
H375 H 0.62075 0.65077 0.11122 0.0
H376 H 0.54419 0.51762 0.10468 0.0
H377 H 0.52291 0.50831 0.06077 0.0
H378 H 0.62229 0.60382 0.04037 0.0
H379 H 0.64326 0.61267 0.08435 0.0
H380 H 0.59979 0.48729 0.13473 0.0
H381 H 0.62855 0.45773 0.11476 0.0
H382 H 0.7073 0.55526 0.0798 0.0
H383 H 0.67968 0.58489 0.10108 0.0
H384 H 0.60288 0.50471 0.19202 0.0
H385 H 0.63333 0.47694 0.21198 0.0
H386 H 0.73499 0.5517 0.1764 0.0
H387 H 0.70435 0.57966 0.15697 0.0
H388 H 0.57373 0.54957 0.21399 0.0
H389 H 0.58768 0.53843 0.25636 0.0
H390 H 0.70358 0.60526 0.24172 0.0
H391 H 0.6891 0.61784 0.20022 0.0
H392 H 0.54164 0.57954 0.19019 0.0
H393 H 0.52629 0.61895 0.21233 0.0
H394 H 0.63448 0.7069 0.19696 0.0
H395 H 0.64935 0.66723 0.17465 0.0
O396 O 0.52478 0.52195 0.01395 0.0
O397 O 0.57547 0.5722 0.00473 0.0
O398 O 0.68838 0.47034 0.22166 0.0
O399 O 0.74113 0.50766 0.20339 0.0
C400 C 0.59624 0.59259 0.13974 0.0
C401 C 0.60646 0.57263 0.12458 0.0
C402 C 0.62532 0.55759 0.1354 0.0
C403 C 0.63297 0.5615 0.16152 0.0
C404 C 0.62286 0.58158 0.17665 0.0
C405 C 0.60489 0.59751 0.16569 0.0
C406 C 0.57431 0.60598 0.12805 0.0
C407 C 0.53606 0.58437 0.12782 0.0
C408 C 0.51546 0.58711 0.10846 0.0
C409 C 0.53309 0.61108 0.08892 0.0
C410 C 0.5707 0.63624 0.09152 0.0
C411 C 0.59117 0.63385 0.11119 0.0
C412 C 0.59528 0.56571 0.0976 0.0
C413 C 0.5615 0.53623 0.09062 0.0
C414 C 0.54937 0.53107 0.06555 0.0
C415 C 0.57085 0.55539 0.04706 0.0
C416 C 0.60506 0.58461 0.05413 0.0
C417 C 0.61719 0.58965 0.07919 0.0
C418 C 0.63781 0.53823 0.11945 0.0
C419 C 0.62287 0.50204 0.1224 0.0
C420 C 0.63922 0.48518 0.11084 0.0
C421 C 0.67054 0.50424 0.09592 0.0
C422 C 0.68369 0.53999 0.09159 0.0
C423 C 0.66765 0.55688 0.10344 0.0
C424 C 0.65145 0.54424 0.17314 0.0
C425 C 0.63176 0.51512 0.18865 0.0
C426 C 0.6492 0.49927 0.19997 0.0
C427 C 0.68663 0.51212 0.19579 0.0
C428 C 0.70617 0.54116 0.18003 0.0
C429 C 0.68873 0.55712 0.16886 0.0
C430 C 0.63043 0.58443 0.20408 0.0
C431 C 0.602 0.56317 0.22048 0.0
C432 C 0.6101 0.55625 0.24448 0.0
C433 C 0.64678 0.57018 0.25226 0.0
C434 C 0.67502 0.59418 0.23655 0.0
C435 C 0.66684 0.60152 0.21276 0.0
C436 C 0.59658 0.62061 0.18091 0.0
C437 C 0.56211 0.60724 0.19193 0.0
C438 C 0.55351 0.62977 0.20465 0.0
C439 C 0.5792 0.66607 0.20639 0.0
C440 C 0.61403 0.67915 0.19575 0.0
C441 C 0.62263 0.65657 0.18314 0.0
C442 C 0.55734 0.55045 0.02062 0.0
C443 C 0.70528 0.49536 0.20777 0.0
Zn444 Zn 0.76866 0.53777 0.42045 0.0
Zn445 Zn 0.71142 0.47307 0.41309 0.0
O446 O 0.75796 0.46956 0.4143 0.0
O447 O 0.80509 0.52188 0.42331 0.0
O448 O 0.67201 0.42159 0.41101 0.0
O449 O 0.74437 0.54519 0.45021 0.0
O450 O 0.69663 0.49209 0.44363 0.0
C451 C 0.79223 0.48963 0.41845 0.0
C452 C 0.7282 0.52747 0.37345 0.0
O453 O 0.70745 0.49611 0.381 0.0
O454 O 0.75613 0.54909 0.3864 0.0
C455 C 0.67661 0.40138 0.39631 0.0
O456 O 0.7048 0.41523 0.38111 0.0
C457 C 0.71209 0.52135 0.45566 0.0
Zn458 Zn 0.19514 0.68464 0.56825 0.0
Zn459 Zn 0.24394 0.66332 0.57285 0.0
O460 O 0.27602 0.71767 0.57314 0.0
O461 O 0.23608 0.73518 0.57252 0.0
O462 O 0.27987 0.64706 0.57875 0.0
O463 O 0.16701 0.65622 0.59819 0.0
O464 O 0.20673 0.63873 0.60147 0.0
C465 C 0.26897 0.74231 0.57335 0.0
C466 C 0.19655 0.64376 0.52538 0.0
O467 O 0.22102 0.64239 0.53838 0.0
O468 O 0.18209 0.6607 0.53368 0.0
C469 C 0.31287 0.66277 0.57122 0.0
O470 O 0.32552 0.69179 0.55834 0.0
C471 C 0.17782 0.63784 0.609 0.0
Zn472 Zn 0.52193 0.21244 0.76342 0.0
Zn473 Zn 0.59608 0.24395 0.75843 0.0
O474 O 0.58792 0.28525 0.75377 0.0
O475 O 0.52817 0.26031 0.75871 0.0
O476 O 0.65065 0.26463 0.75742 0.0
O477 O 0.52527 0.19759 0.79867 0.0
O478 O 0.58469 0.22143 0.79323 0.0
C479 C 0.55919 0.28736 0.75463 0.0
C480 C 0.54478 0.18603 0.72121 0.0
O481 O 0.5768 0.2091 0.72893 0.0
O482 O 0.51679 0.18182 0.73278 0.0
C483 C 0.67454 0.29284 0.74702 0.0
O484 O 0.66411 0.31186 0.73483 0.0
C485 C 0.55639 0.20469 0.80682 0.0
Zn486 Zn 0.44249 0.56599 0.90032 0.0
Zn487 Zn 0.43793 0.62483 0.90243 0.0
O488 O 0.3847 0.58561 0.90159 0.0
O489 O 0.38702 0.53768 0.89508 0.0
O490 O 0.43613 0.66891 0.9042 0.0
O491 O 0.46304 0.57752 0.93595 0.0
O492 O 0.46449 0.62778 0.93524 0.0
C493 C 0.3686 0.5526 0.89775 0.0
C494 C 0.47863 0.6134 0.85955 0.0
O495 O 0.46436 0.62971 0.86946 0.0
O496 O 0.47564 0.58653 0.86998 0.0
C497 C 0.41014 0.67268 0.89628 0.0
O498 O 0.38105 0.64595 0.88563 0.0
C499 C 0.47092 0.60636 0.94649 0.0
Zn500 Zn 0.87704 0.4359 0.06403 0.0
Zn501 Zn 0.81367 0.37352 0.06294 0.0
O502 O 0.7951 0.40749 0.06577 0.0
O503 O 0.84649 0.45874 0.06904 0.0
O504 O 0.76805 0.32592 0.0611 0.0
O505 O 0.8884 0.4269 0.02886 0.0
O506 O 0.83768 0.37509 0.02892 0.0
C507 C 0.81172 0.44073 0.06857 0.0
C508 C 0.87093 0.39138 0.10477 0.0
O509 O 0.83899 0.37152 0.09542 0.0
O510 O 0.89351 0.41984 0.09423 0.0
C511 C 0.73916 0.31624 0.07376 0.0
O512 O 0.73784 0.3385 0.08961 0.0
C513 C 0.86664 0.39794 0.01786 0.0
Zn514 Zn 0.38782 0.80254 0.25422 0.0
Zn515 Zn 0.44581 0.79526 0.25854 0.0
O516 O 0.40083 0.74511 0.25451 0.0
O517 O 0.35372 0.75132 0.24641 0.0
O518 O 0.48603 0.78403 0.25804 0.0
O519 O 0.41106 0.83592 0.22592 0.0
O520 O 0.45849 0.82884 0.22839 0.0
C521 C 0.36704 0.73183 0.249 0.0
C522 C 0.42656 0.82672 0.30247 0.0
O523 O 0.4488 0.81872 0.29286 0.0
O524 O 0.39847 0.82117 0.29007 0.0
C525 C 0.48335 0.75966 0.27189 0.0
O526 O 0.45698 0.74571 0.28853 0.0
C527 C 0.44206 0.84282 0.21803 0.0
H528 H 0.25209 0.57484 0.26927 0.0
H529 H 0.20914 0.58526 0.19811 0.0
H530 H 0.26297 0.64375 0.19323 0.0
H531 H 0.31705 0.69506 0.21253 0.0
H532 H 0.36191 0.68352 0.28219 0.0
H533 H 0.31272 0.62175 0.28408 0.0
C534 C 0.25503 0.58918 0.25217 0.0
C535 C 0.22611 0.57594 0.23436 0.0
C536 C 0.2861 0.62277 0.24943 0.0
C537 C 0.23053 0.59521 0.21244 0.0
C538 C 0.26128 0.62867 0.20963 0.0
C539 C 0.31638 0.67868 0.22778 0.0
C540 C 0.34242 0.69357 0.24739 0.0
C541 C 0.28835 0.64328 0.22857 0.0
C542 C 0.3419 0.67235 0.26695 0.0
C543 C 0.31374 0.63718 0.26808 0.0
H544 H 0.61105 0.23856 0.40762 0.0
H545 H 0.53517 0.24941 0.45486 0.0
H546 H 0.56416 0.31146 0.44396 0.0
H547 H 0.61398 0.36359 0.42337 0.0
H548 H 0.68922 0.35218 0.37557 0.0
H549 H 0.65744 0.2895 0.38413 0.0
C550 C 0.60079 0.25454 0.41537 0.0
C551 C 0.57125 0.23961 0.43213 0.0
C552 C 0.61753 0.29012 0.40897 0.0
C553 C 0.55781 0.26036 0.44182 0.0
C554 C 0.57448 0.29585 0.43569 0.0
C555 C 0.62317 0.34732 0.4146 0.0
C556 C 0.65418 0.36272 0.39904 0.0
C557 C 0.60477 0.31116 0.41962 0.0
C558 C 0.6655 0.34114 0.38767 0.0
C559 C 0.64744 0.30524 0.39263 0.0
H560 H 0.39313 0.58392 0.60657 0.0
H561 H 0.48506 0.67284 0.5718 0.0
H562 H 0.44598 0.69626 0.5605 0.0
H563 H 0.38556 0.69143 0.56067 0.0
H564 H 0.29401 0.6021 0.59564 0.0
H565 H 0.33302 0.57873 0.60636 0.0
C566 C 0.40455 0.6082 0.59622 0.0
C567 C 0.44194 0.62647 0.5899 0.0
C568 C 0.38198 0.62146 0.58982 0.0
C569 C 0.45644 0.65834 0.57702 0.0
C570 C 0.43407 0.67167 0.57048 0.0
C571 C 0.3741 0.6668 0.57058 0.0
C572 C 0.33683 0.6486 0.57731 0.0
C573 C 0.39678 0.65348 0.57682 0.0
C574 C 0.32255 0.61675 0.59022 0.0
C575 C 0.34485 0.60331 0.59638 0.0
H576 H 0.83267 0.32238 0.77273 0.0
H577 H 0.86415 0.41802 0.73315 0.0
H578 H 0.79949 0.39801 0.7252 0.0
H579 H 0.73387 0.35365 0.73043 0.0
H580 H 0.70371 0.25812 0.77 0.0
H581 H 0.76807 0.27761 0.77655 0.0
C582 C 0.8255 0.33864 0.76196 0.0
C583 C 0.85324 0.37157 0.75344 0.0
C584 C 0.78846 0.32701 0.75747 0.0
C585 C 0.84332 0.39265 0.74008 0.0
C586 C 0.80637 0.38117 0.73545 0.0
C587 C 0.74139 0.33703 0.74037 0.0
C588 C 0.71389 0.30452 0.74977 0.0
C589 C 0.77866 0.34847 0.74422 0.0
C590 C 0.72418 0.28332 0.7626 0.0
C591 C 0.76105 0.29442 0.7664 0.0
H592 H 0.39558 0.80619 0.9128 0.0
H593 H 0.50692 0.84848 0.93928 0.0
H594 H 0.50364 0.79364 0.92841 0.0
H595 H 0.46879 0.73315 0.91339 0.0
H596 H 0.3569 0.68892 0.88766 0.0
H597 H 0.36075 0.74502 0.89632 0.0
C598 C 0.41907 0.80333 0.91612 0.0
C599 C 0.45152 0.83151 0.92662 0.0
C600 C 0.41689 0.77138 0.91012 0.0
C601 C 0.48185 0.82751 0.93072 0.0
C602 C 0.47994 0.79604 0.92473 0.0
C603 C 0.44519 0.73569 0.90958 0.0
C604 C 0.41254 0.70683 0.90007 0.0
C605 C 0.44754 0.76775 0.91467 0.0
C606 C 0.38237 0.71075 0.89505 0.0
C607 C 0.38453 0.74278 0.90004 0.0
H608 H 0.7444 0.53403 0.09555 0.0
H609 H 0.64382 0.43743 0.07699 0.0
H610 H 0.67876 0.40938 0.06633 0.0
H611 H 0.73778 0.41181 0.06395 0.0
H612 H 0.83807 0.50928 0.08165 0.0
H613 H 0.80318 0.53768 0.09042 0.0
C614 C 0.73005 0.50708 0.08861 0.0
C615 C 0.69151 0.48791 0.08706 0.0
C616 C 0.75024 0.49123 0.08243 0.0
C617 C 0.67344 0.4527 0.07863 0.0
C618 C 0.6934 0.43668 0.07245 0.0
C619 C 0.75203 0.43932 0.06959 0.0
C620 C 0.79049 0.45829 0.07229 0.0
C621 C 0.7318 0.45558 0.07461 0.0
C622 C 0.80851 0.49399 0.07945 0.0
C623 C 0.78858 0.51028 0.08453 0.0
H624 H 0.36892 0.90632 0.56633 0.0
H625 H 0.42793 0.87636 0.51585 0.0
H626 H 0.38886 0.81516 0.52764 0.0
H627 H 0.33351 0.7691 0.54864 0.0
H628 H 0.27039 0.79873 0.59489 0.0
H629 H 0.3151 0.86085 0.5882 0.0
C630 C 0.37323 0.88648 0.55774 0.0
C631 C 0.40132 0.89624 0.54001 0.0
C632 C 0.34965 0.85105 0.56376 0.0
C633 C 0.40694 0.87 0.52975 0.0
C634 C 0.38431 0.83479 0.5363 0.0
C635 C 0.33002 0.78924 0.55763 0.0
C636 C 0.29882 0.77946 0.57228 0.0
C637 C 0.35505 0.8249 0.55283 0.0
C638 C 0.29422 0.80571 0.58351 0.0
C639 C 0.3197 0.84119 0.57963 0.0
H640 H 0.53264 0.41096 0.73227 0.0
H641 H 0.6233 0.43988 0.68225 0.0
H642 H 0.63121 0.39328 0.69923 0.0
H643 H 0.60812 0.34035 0.7251 0.0
H644 H 0.51383 0.30872 0.77202 0.0
H645 H 0.51141 0.36012 0.75931 0.0
C646 C 0.55409 0.40705 0.725 0.0
C647 C 0.57703 0.42865 0.7058 0.0
C648 C 0.55768 0.37952 0.7342 0.0
C649 C 0.60536 0.42381 0.69714 0.0
C650 C 0.60973 0.39696 0.70669 0.0
C651 C 0.58747 0.3451 0.73283 0.0
C652 C 0.56109 0.32078 0.74936 0.0
C653 C 0.58549 0.37413 0.72481 0.0
C654 C 0.53425 0.32699 0.7591 0.0
C655 C 0.53283 0.35633 0.75184 0.0
H656 H 0.20082 0.49592 0.88372 0.0
H657 H 0.20923 0.42186 0.8351 0.0
H658 H 0.27236 0.4451 0.84946 0.0
H659 H 0.32734 0.49131 0.87174 0.0
H660 H 0.32 0.56895 0.9168 0.0
H661 H 0.25439 0.53975 0.90768 0.0
C662 C 0.21645 0.48484 0.87625 0.0
C663 C 0.20053 0.45759 0.85809 0.0
C664 C 0.25306 0.49925 0.88375 0.0
C665 C 0.22076 0.44278 0.84917 0.0
C666 C 0.25699 0.45627 0.85719 0.0
C667 C 0.31121 0.50144 0.87989 0.0
C668 C 0.32841 0.53231 0.89477 0.0
C669 C 0.27374 0.48519 0.87389 0.0
C670 C 0.30734 0.54536 0.9051 0.0
C671 C 0.26987 0.52871 0.8999 0.0
H672 H 0.59215 0.16784 0.06937 0.0
H673 H 0.65716 0.14767 0.01731 0.0
H674 H 0.70886 0.207 0.02409 0.0
H675 H 0.73553 0.26462 0.04412 0.0
H676 H 0.67158 0.28652 0.09592 0.0
H677 H 0.61948 0.22661 0.08976 0.0
C678 C 0.61763 0.17654 0.05951 0.0
C679 C 0.6209 0.15321 0.0431 0.0
C680 C 0.64739 0.21099 0.06336 0.0
C681 C 0.65413 0.1648 0.03047 0.0
C682 C 0.68366 0.19884 0.03418 0.0
C683 C 0.71024 0.2564 0.05411 0.0
C684 C 0.70748 0.28006 0.07043 0.0
C685 C 0.68058 0.22211 0.05053 0.0
C686 C 0.67446 0.26883 0.08324 0.0
C687 C 0.64465 0.23458 0.07972 0.0
H688 H 0.54208 0.65771 0.24999 0.0
H689 H 0.59286 0.72892 0.18837 0.0
H690 H 0.57125 0.7665 0.2049 0.0
H691 H 0.53324 0.77626 0.23458 0.0
H692 H 0.48081 0.70415 0.29558 0.0
H693 H 0.50797 0.67006 0.28168 0.0
C694 C 0.54849 0.68153 0.24025 0.0
C695 C 0.56884 0.69035 0.2179 0.0
C696 C 0.5356 0.70284 0.2497 0.0
C697 C 0.57749 0.72162 0.20571 0.0
C698 C 0.56494 0.74304 0.21507 0.0
C699 C 0.52816 0.7534 0.24509 0.0
C700 C 0.50468 0.74263 0.26595 0.0
C701 C 0.54336 0.73354 0.23676 0.0
C702 C 0.4986 0.71299 0.27938 0.0
C703 C 0.51399 0.69335 0.27138 0.0
H704 H 0.88136 0.42727 0.37013 0.0
H705 H 0.97124 0.52819 0.39489 0.0
H706 H 0.92893 0.53993 0.41775 0.0
H707 H 0.86608 0.52516 0.42561 0.0
H708 H 0.77547 0.42512 0.39985 0.0
H709 H 0.81832 0.40904 0.38311 0.0
C710 C 0.89166 0.45141 0.38105 0.0
C711 C 0.92919 0.4771 0.3805 0.0
C712 C 0.86703 0.45829 0.39381 0.0
C713 C 0.9423 0.50832 0.39469 0.0
C714 C 0.91816 0.51504 0.40777 0.0
C715 C 0.85563 0.49955 0.41677 0.0
C716 C 0.81761 0.47671 0.41359 0.0
C717 C 0.88036 0.49079 0.40666 0.0
C718 C 0.80461 0.44342 0.40237 0.0
C719 C 0.82912 0.43424 0.39264 0.0
H720 H 0.15318 0.54842 0.42701 0.0
H721 H 0.07908 0.58679 0.41823 0.0
H722 H 0.10288 0.62143 0.45723 0.0
H723 H 0.1445 0.64058 0.49372 0.0
H724 H 0.21904 0.60255 0.50256 0.0
H725 H 0.19534 0.56804 0.46356 0.0
C726 C 0.14205 0.56412 0.43382 0.0
C727 C 0.11435 0.56499 0.41989 0.0
C728 C 0.15606 0.58414 0.45612 0.0
C729 C 0.10055 0.58588 0.42862 0.0
C730 C 0.1141 0.60562 0.45089 0.0
C731 C 0.15571 0.62486 0.48712 0.0
C732 C 0.18352 0.62419 0.5011 0.0
C733 C 0.14191 0.60502 0.46475 0.0
C734 C 0.19767 0.60363 0.49219 0.0
C735 C 0.18406 0.58379 0.46991 0.0
H736 H 0.55136 0.1217 0.61638 0.0
H737 H 0.43401 0.06349 0.62593 0.0
H738 H 0.44145 0.09059 0.66761 0.0
H739 H 0.48111 0.1337 0.7 0.0
H740 H 0.59852 0.19191 0.69004 0.0
H741 H 0.59117 0.16138 0.65002 0.0
C742 C 0.52743 0.11427 0.62781 0.0
C743 C 0.49218 0.09063 0.61805 0.0
C744 C 0.5319 0.13014 0.6516 0.0
C745 C 0.46143 0.08187 0.63292 0.0
C746 C 0.46567 0.09733 0.65675 0.0
C747 C 0.50513 0.13954 0.68919 0.0
C748 C 0.54028 0.16532 0.69797 0.0
C749 C 0.50074 0.12203 0.66606 0.0
C750 C 0.57111 0.17233 0.68374 0.0
C751 C 0.56696 0.15491 0.6608 0.0
H752 H 0.54746 0.624 0.75376 0.0
H753 H 0.46241 0.64425 0.7319 0.0
H754 H 0.44861 0.6473 0.77637 0.0
H755 H 0.45599 0.63692 0.82093 0.0
H756 H 0.5369 0.61054 0.84179 0.0
H757 H 0.55825 0.61861 0.79828 0.0
C758 C 0.52664 0.63014 0.75876 0.0
C759 C 0.50613 0.63421 0.7397 0.0
C760 C 0.51805 0.63048 0.78415 0.0
C761 C 0.47854 0.64114 0.74635 0.0
C762 C 0.47062 0.64274 0.77171 0.0
C763 C 0.47873 0.63357 0.81596 0.0
C764 C 0.49492 0.62315 0.83437 0.0
C765 C 0.48946 0.63637 0.79071 0.0
C766 C 0.52398 0.61838 0.82779 0.0
C767 C 0.536 0.62277 0.80295 0.0
H768 H 0.87546 0.35413 0.9052 0.0
H769 H 0.97542 0.45552 0.90892 0.0
H770 H 0.96369 0.46302 0.95264 0.0
H771 H 0.92522 0.44157 0.98965 0.0
H772 H 0.82525 0.34017 0.98718 0.0
H773 H 0.83709 0.33173 0.94333 0.0
C774 C 0.89459 0.3778 0.91564 0.0
C775 C 0.92583 0.40453 0.90361 0.0
C776 C 0.88783 0.38192 0.94103 0.0
C777 C 0.95057 0.43499 0.91744 0.0
C778 C 0.9441 0.4392 0.94255 0.0
C779 C 0.90599 0.41751 0.97963 0.0
C780 C 0.87435 0.39161 0.99173 0.0
C781 C 0.91278 0.41296 0.95448 0.0
C782 C 0.84985 0.36059 0.97835 0.0
C783 C 0.85655 0.35577 0.95324 0.0
H784 H 0.52956 0.94284 0.12797 0.0
H785 H 0.4249 0.93553 0.11763 0.0
H786 H 0.40199 0.9007 0.1552 0.0
H787 H 0.40945 0.8689 0.18923 0.0
H788 H 0.5114 0.87099 0.19858 0.0
H789 H 0.53705 0.91036 0.16265 0.0
C790 C 0.5017 0.93357 0.13383 0.0
C791 C 0.47931 0.94234 0.11985 0.0
C792 C 0.48789 0.91208 0.15507 0.0
C793 C 0.4434 0.93033 0.12816 0.0
C794 C 0.42992 0.90983 0.14954 0.0
C795 C 0.43738 0.878 0.18356 0.0
C796 C 0.45842 0.86692 0.19657 0.0
C797 C 0.45169 0.90014 0.16287 0.0
C798 C 0.49452 0.87898 0.18882 0.0
C799 C 0.50922 0.90155 0.16833 0.0
H800 H 0.70332 0.60726 0.28555 0.0
H801 H 0.61099 0.5031 0.2702 0.0
H802 H 0.62799 0.48055 0.3061 0.0
H803 H 0.66997 0.49004 0.34136 0.0
H804 H 0.76439 0.59367 0.3547 0.0
H805 H 0.7463 0.61629 0.31952 0.0
C806 C 0.687 0.57956 0.28989 0.0
C807 C 0.65575 0.5571 0.27523 0.0
C808 C 0.6976 0.56645 0.31002 0.0
C809 C 0.63469 0.52133 0.28147 0.0
C810 C 0.64466 0.50823 0.30183 0.0
C811 C 0.68672 0.51751 0.33647 0.0
C812 C 0.71845 0.54004 0.35072 0.0
C813 C 0.67621 0.5305 0.31614 0.0
C814 C 0.73983 0.57561 0.34408 0.0
C815 C 0.72945 0.5887 0.32401 0.0
H816 H 0.48514 0.9132 0.4047 0.0
H817 H 0.39071 0.9234 0.39147 0.0
H818 H 0.37311 0.88391 0.35529 0.0
H819 H 0.38685 0.85073 0.32532 0.0
H820 H 0.48349 0.84354 0.33558 0.0
H821 H 0.49808 0.87802 0.37482 0.0
C822 C 0.46075 0.90688 0.39389 0.0
C823 C 0.43933 0.92138 0.40102 0.0
C824 C 0.45133 0.88496 0.37239 0.0
C825 C 0.40744 0.91224 0.38694 0.0
C826 C 0.3975 0.8899 0.36598 0.0
C827 C 0.41101 0.85637 0.33616 0.0
C828 C 0.43417 0.84472 0.32738 0.0
C829 C 0.41958 0.87669 0.35828 0.0
C830 C 0.46526 0.85229 0.34182 0.0
C831 C 0.47364 0.87206 0.36424 0.0
H832 H 0.63281 0.58496 0.51629 0.0
H833 H 0.5569 0.47511 0.53088 0.0
H834 H 0.59286 0.459 0.50475 0.0
H835 H 0.6479 0.47613 0.47925 0.0
H836 H 0.72741 0.58639 0.47009 0.0
H837 H 0.68905 0.60206 0.49384 0.0
C838 C 0.62416 0.55745 0.51421 0.0
C839 C 0.59192 0.53154 0.52581 0.0
C840 C 0.64621 0.54831 0.50052 0.0
C841 C 0.58094 0.49594 0.52186 0.0
C842 C 0.60192 0.48657 0.50721 0.0
C843 C 0.65696 0.50356 0.48271 0.0
C844 C 0.69055 0.52997 0.47295 0.0
C845 C 0.63494 0.51257 0.49677 0.0
C846 C 0.70191 0.56543 0.47759 0.0
C847 C 0.6798 0.5745 0.49097 0.0
H848 H 0.0587 0.53721 0.68648 0.0
H849 H 0.12557 0.49001 0.68564 0.0
H850 H 0.16695 0.53362 0.65572 0.0
H851 H 0.18467 0.58571 0.63011 0.0
H852 H 0.11855 0.63373 0.63204 0.0
H853 H 0.07714 0.58993 0.66177 0.0
C854 C 0.08238 0.5365 0.67983 0.0
C855 C 0.0887 0.51009 0.68816 0.0
C856 C 0.10657 0.56214 0.66305 0.0
C857 C 0.11942 0.50945 0.67911 0.0
C858 C 0.14342 0.53469 0.66223 0.0
C859 C 0.16142 0.58682 0.63721 0.0
C860 C 0.15485 0.61307 0.62883 0.0
C861 C 0.13738 0.56127 0.65415 0.0
C862 C 0.12436 0.61388 0.63813 0.0
C863 C 0.10052 0.58873 0.65508 0.0
H864 H 0.57509 0.13052 0.90054 0.0
H865 H 0.48986 0.14673 0.92906 0.0
H866 H 0.49294 0.1785 0.89108 0.0
H867 H 0.51589 0.19681 0.84812 0.0
H868 H 0.6039 0.18415 0.82102 0.0
H869 H 0.60428 0.15651 0.86053 0.0
C870 C 0.55792 0.14188 0.89894 0.0
C871 C 0.5318 0.13559 0.91755 0.0
C872 C 0.56011 0.16049 0.8772 0.0
C873 C 0.50956 0.15031 0.91479 0.0
C874 C 0.51136 0.1686 0.8931 0.0
C875 C 0.53535 0.18828 0.85103 0.0
C876 C 0.55942 0.19192 0.83166 0.0
C877 C 0.53575 0.17289 0.87387 0.0
C878 C 0.58502 0.18145 0.8357 0.0
C879 C 0.58517 0.16557 0.85822 0.0
H880 H 0.53779 0.66004 0.05567 0.0
H881 H 0.48826 0.54821 0.06561 0.0
H882 H 0.46522 0.53725 0.02258 0.0
H883 H 0.46195 0.55902 0.98135 0.0
H884 H 0.5101 0.67033 0.97051 0.0
H885 H 0.53164 0.6819 0.01443 0.0
C886 C 0.52171 0.63329 0.04844 0.0
C887 C 0.51466 0.60507 0.064 0.0
C888 C 0.50894 0.62705 0.02335 0.0
C889 C 0.49352 0.5705 0.05437 0.0
C890 C 0.48071 0.56414 0.02957 0.0
C891 C 0.47736 0.58585 0.98854 0.0
C892 C 0.4849 0.61381 0.97268 0.0
C893 C 0.48884 0.59219 0.01379 0.0
C894 C 0.50419 0.64838 0.98238 0.0
C895 C 0.51639 0.65498 0.00748 0.0
H896 H 0.95006 0.38511 0.20228 0.0
H897 H 0.86255 0.39219 0.23682 0.0
H898 H 0.83305 0.38424 0.19546 0.0
H899 H 0.8368 0.38309 0.14904 0.0
H900 H 0.92865 0.38348 0.11484 0.0
H901 H 0.95131 0.37943 0.15642 0.0
C902 C 0.92397 0.38386 0.2008 0.0
C903 C 0.90822 0.38888 0.22248 0.0
C904 C 0.90821 0.3809 0.17696 0.0
C905 C 0.87495 0.38819 0.22032 0.0
C906 C 0.85826 0.38383 0.19671 0.0
C907 C 0.86134 0.38154 0.15082 0.0
C908 C 0.88103 0.38328 0.12915 0.0
C909 C 0.87527 0.3813 0.17483 0.0
C910 C 0.91318 0.38204 0.13142 0.0
C911 C 0.92622 0.38001 0.15513 0.0
loop_
_geom_bond_atom_site_label_1
_geom_bond_atom_site_label_2
_geom_bond_distance
_geom_bond_site_symmetry_2
_ccdc_geom_bond_type
H0 O26 0.856 . S
H1 O29 0.854 . S
H2 C37 0.930 1_455 S
H3 C38 0.930 . S
H4 C40 0.930 . S
H5 C41 0.930 . S
H6 C43 0.931 . S
H7 C44 0.930 . S
H8 C46 0.930 . S
H9 C47 0.929 . S
H10 C49 0.930 . S
H11 C50 0.931 . S
H12 C52 0.930 . S
H13 C53 0.929 . S
H14 C55 0.931 . S
H15 C56 0.930 . S
H16 C58 0.930 . S
H17 C59 0.932 . S
H18 C61 0.930 . S
H19 C62 0.929 . S
H20 C64 0.931 . S
H21 C65 0.930 . S
H22 C67 0.929 . S
H23 C68 0.931 . S
H24 C70 0.930 . S
H25 C71 0.923 1_455 S
O26 H0 0.856 . S
O26 C72 1.300 . S
O27 C72 1.209 . S
O28 C73 1.199 . S
O29 H1 0.854 . S
O29 C73 1.297 . S
C30 C31 1.404 . S
C30 C35 1.397 . S
C30 C36 1.492 . S
C31 C30 1.404 . S
C31 C32 1.396 . S
C31 C42 1.492 . S
C32 C31 1.396 . S
C32 C33 1.397 . S
C32 C48 1.509 . S
C33 C32 1.397 . S
C33 C34 1.412 . S
C33 C54 1.485 . S
C34 C33 1.412 . S
C34 C35 1.388 . S
C34 C60 1.490 . S
C35 C30 1.397 . S
C35 C34 1.388 . S
C35 C66 1.519 1_455 S
C36 C30 1.492 . S
C36 C37 1.363 1_455 S
C36 C41 1.390 1_455 S
C37 H2 0.930 1_655 S
C37 C36 1.363 1_655 S
C37 C38 1.372 . S
C38 H3 0.930 . S
C38 C37 1.372 . S
C38 C39 1.383 . S
C39 C38 1.383 . S
C39 C40 1.395 . S
C40 H4 0.930 . S
C40 C39 1.395 . S
C40 C41 1.362 . S
C41 H5 0.930 . S
C41 C36 1.390 1_655 S
C41 C40 1.362 . S
C42 C31 1.492 . S
C42 C43 1.377 . S
C42 C47 1.397 . S
C43 H6 0.931 . S
C43 C42 1.377 . S
C43 C44 1.376 . S
C44 H7 0.930 . S
C44 C43 1.376 . S
C44 C45 1.376 . S
C45 C44 1.376 . S
C45 C46 1.378 . S
C45 C72 1.486 . S
C46 H8 0.930 . S
C46 C45 1.378 . S
C46 C47 1.376 . S
C47 H9 0.929 . S
C47 C42 1.397 . S
C47 C46 1.376 . S
C48 C32 1.509 . S
C48 C49 1.391 . S
C48 C53 1.386 . S
C49 H10 0.930 . S
C49 C48 1.391 . S
C49 C50 1.375 . S
C50 H11 0.931 . S
C50 C49 1.375 . S
C50 C51 1.375 . S
C51 C50 1.375 . S
C51 C52 1.361 . S
C52 H12 0.930 . S
C52 C51 1.361 . S
C52 C53 1.399 . S
C53 H13 0.929 . S
C53 C48 1.386 . S
C53 C52 1.399 . S
C54 C33 1.485 . S
C54 C55 1.394 . S
C54 C59 1.360 . S
C55 H14 0.931 . S
C55 C54 1.394 . S
C55 C56 1.372 . S
C56 H15 0.930 . S
C56 C55 1.372 . S
C56 C57 1.397 . S
C57 C56 1.397 . S
C57 C58 1.390 . S
C57 C73 1.476 . S
C58 H16 0.930 . S
C58 C57 1.390 . S
C58 C59 1.366 . S
C59 H17 0.932 . S
C59 C54 1.360 . S
C59 C58 1.366 . S
C60 C34 1.490 . S
C60 C61 1.380 . S
C60 C65 1.386 . S
C61 H18 0.930 . S
C61 C60 1.380 . S
C61 C62 1.381 . S
C62 H19 0.929 . S
C62 C61 1.381 . S
C62 C63 1.371 . S
C63 C62 1.371 . S
C63 C64 1.380 . S
C64 H20 0.931 . S
C64 C63 1.380 . S
C64 C65 1.387 . S
C65 H21 0.930 . S
C65 C60 1.386 . S
C65 C64 1.387 . S
C66 C35 1.519 1_655 S
C66 C67 1.377 . S
C66 C71 1.361 . S
C67 H22 0.929 . S
C67 C66 1.377 . S
C67 C68 1.386 . S
C68 H23 0.931 . S
C68 C67 1.386 . S
C68 C69 1.363 . S
C69 C68 1.363 . S
C69 C70 1.385 . S
C70 H24 0.930 . S
C70 C69 1.385 . S
C70 C71 1.396 . S
C71 H25 0.923 1_655 S
C71 C66 1.361 . S
C71 C70 1.396 . S
C72 O26 1.300 . S
C72 O27 1.209 . S
C72 C45 1.486 . S
C73 O28 1.199 . S
C73 O29 1.297 . S
C73 C57 1.476 . S
H74 O100 0.856 . S
H75 O103 0.854 . S
H76 C111 0.921 1_545 S
H77 C112 0.930 . S
H78 C114 0.930 . S
H79 C115 0.930 . S
H80 C117 0.931 . S
H81 C118 0.930 . S
H82 C120 0.930 . S
H83 C121 0.929 . S
H84 C123 0.930 . S
H85 C124 0.931 . S
H86 C126 0.930 . S
H87 C127 0.929 . S
H88 C129 0.931 . S
H89 C130 0.930 . S
H90 C132 0.930 . S
H91 C133 0.932 . S
H92 C135 0.930 . S
H93 C136 0.929 . S
H94 C138 0.931 . S
H95 C139 0.930 . S
H96 C141 0.929 . S
H97 C142 0.931 . S
H98 C144 0.930 . S
H99 C145 0.929 . S
O100 H74 0.856 . S
O100 C146 1.300 . S
O101 C146 1.209 . S
O102 C147 1.199 . S
O103 H75 0.854 . S
O103 C147 1.297 . S
C104 C105 1.404 . S
C104 C109 1.397 . S
C104 C110 1.492 . S
C105 C104 1.404 . S
C105 C106 1.396 . S
C105 C116 1.492 . S
C106 C105 1.396 . S
C106 C107 1.397 . S
C106 C122 1.509 . S
C107 C106 1.397 . S
C107 C108 1.412 . S
C107 C128 1.485 . S
C108 C107 1.412 . S
C108 C109 1.388 . S
C108 C134 1.490 . S
C109 C104 1.397 . S
C109 C108 1.388 . S
C109 C140 1.519 1_545 S
C110 C104 1.492 . S
C110 C111 1.346 1_545 S
C110 C115 1.390 1_545 S
C111 H76 0.921 1_565 S
C111 C110 1.346 1_565 S
C111 C112 1.399 . S
C112 H77 0.930 . S
C112 C111 1.399 . S
C112 C113 1.383 . S
C113 C112 1.383 . S
C113 C114 1.395 . S
C114 H78 0.930 . S
C114 C113 1.395 . S
C114 C115 1.362 . S
C115 H79 0.930 . S
C115 C110 1.390 1_565 S
C115 C114 1.362 . S
C116 C105 1.492 . S
C116 C117 1.377 . S
C116 C121 1.397 . S
C117 H80 0.931 . S
C117 C116 1.377 . S
C117 C118 1.376 . S
C118 H81 0.930 . S
C118 C117 1.376 . S
C118 C119 1.376 . S
C119 C118 1.376 . S
C119 C120 1.378 . S
C119 C146 1.486 . S
C120 H82 0.930 . S
C120 C119 1.378 . S
C120 C121 1.376 . S
C121 H83 0.929 . S
C121 C116 1.397 . S
C121 C120 1.376 . S
C122 C106 1.509 . S
C122 C123 1.391 . S
C122 C127 1.386 . S
C123 H84 0.930 . S
C123 C122 1.391 . S
C123 C124 1.375 . S
C124 H85 0.931 . S
C124 C123 1.375 . S
C124 C125 1.375 . S
C125 C124 1.375 . S
C125 C126 1.361 . S
C126 H86 0.930 . S
C126 C125 1.361 . S
C126 C127 1.399 . S
C127 H87 0.929 . S
C127 C122 1.386 . S
C127 C126 1.399 . S
C128 C107 1.485 . S
C128 C129 1.394 . S
C128 C133 1.360 . S
C129 H88 0.931 . S
C129 C128 1.394 . S
C129 C130 1.372 . S
C130 H89 0.930 . S
C130 C129 1.372 . S
C130 C131 1.397 . S
C131 C130 1.397 . S
C131 C132 1.390 . S
C131 C147 1.476 . S
C132 H90 0.930 . S
C132 C131 1.390 . S
C132 C133 1.366 . S
C133 H91 0.932 . S
C133 C128 1.360 . S
C133 C132 1.366 . S
C134 C108 1.490 . S
C134 C135 1.380 . S
C134 C139 1.386 . S
C135 H92 0.930 . S
C135 C134 1.380 . S
C135 C136 1.381 . S
C136 H93 0.929 . S
C136 C135 1.381 . S
C136 C137 1.371 . S
C137 C136 1.371 . S
C137 C138 1.380 . S
C138 H94 0.931 . S
C138 C137 1.380 . S
C138 C139 1.387 . S
C139 H95 0.930 . S
C139 C134 1.386 . S
C139 C138 1.387 . S
C140 C109 1.519 1_565 S
C140 C141 1.377 . S
C140 C145 1.361 . S
C141 H96 0.929 . S
C141 C140 1.377 . S
C141 C142 1.386 . S
C142 H97 0.931 . S
C142 C141 1.386 . S
C142 C143 1.363 . S
C143 C142 1.363 . S
C143 C144 1.385 . S
C144 H98 0.930 . S
C144 C143 1.385 . S
C144 C145 1.396 . S
C145 H99 0.929 . S
C145 C140 1.361 . S
C145 C144 1.396 . S
C146 O100 1.300 . S
C146 O101 1.209 . S
C146 C119 1.486 . S
C147 O102 1.199 . S
C147 O103 1.297 . S
C147 C131 1.476 . S
H148 O174 0.856 . S
H149 O177 0.854 . S
H150 C185 0.930 . S
H151 C186 0.930 . S
H152 C188 0.930 . S
H153 C189 0.930 . S
H154 C191 0.931 . S
H155 C192 0.930 . S
H156 C194 0.930 . S
H157 C195 0.929 . S
H158 C197 0.930 . S
H159 C198 0.931 . S
H160 C200 0.930 . S
H161 C201 0.929 . S
H162 C203 0.931 . S
H163 C204 0.930 . S
H164 C206 0.930 . S
H165 C207 0.932 . S
H166 C209 0.930 . S
H167 C210 0.929 . S
H168 C212 0.931 . S
H169 C213 0.930 . S
H170 C215 0.929 . S
H171 C216 0.931 . S
H172 C218 0.930 . S
H173 C219 0.929 . S
O174 H148 0.856 . S
O174 C220 1.300 . S
O175 C220 1.209 . S
O176 C221 1.199 . S
O177 H149 0.854 . S
O177 C221 1.297 . S
C178 C179 1.404 . S
C178 C183 1.397 . S
C178 C184 1.492 . S
C179 C178 1.404 . S
C179 C180 1.396 . S
C179 C190 1.492 . S
C180 C179 1.396 . S
C180 C181 1.397 . S
C180 C196 1.509 . S
C181 C180 1.397 . S
C181 C182 1.412 . S
C181 C202 1.485 . S
C182 C181 1.412 . S
C182 C183 1.388 . S
C182 C208 1.490 . S
C183 C178 1.397 . S
C183 C182 1.388 . S
C183 C214 1.519 . S
C184 C178 1.492 . S
C184 C185 1.363 . S
C184 C189 1.390 . S
C185 H150 0.930 . S
C185 C184 1.363 . S
C185 C186 1.372 . S
C186 H151 0.930 . S
C186 C185 1.372 . S
C186 C187 1.383 . S
C187 C186 1.383 . S
C187 C188 1.395 . S
C188 H152 0.930 . S
C188 C187 1.395 . S
C188 C189 1.362 . S
C189 H153 0.930 . S
C189 C184 1.390 . S
C189 C188 1.362 . S
C190 C179 1.492 . S
C190 C191 1.377 . S
C190 C195 1.397 . S
C191 H154 0.931 . S
C191 C190 1.377 . S
C191 C192 1.376 . S
C192 H155 0.930 . S
C192 C191 1.376 . S
C192 C193 1.376 . S
C193 C192 1.376 . S
C193 C194 1.378 . S
C193 C220 1.486 . S
C194 H156 0.930 . S
C194 C193 1.378 . S
C194 C195 1.376 . S
C195 H157 0.929 . S
C195 C190 1.397 . S
C195 C194 1.376 . S
C196 C180 1.509 . S
C196 C197 1.391 . S
C196 C201 1.386 . S
C197 H158 0.930 . S
C197 C196 1.391 . S
C197 C198 1.375 . S
C198 H159 0.931 . S
C198 C197 1.375 . S
C198 C199 1.375 . S
C199 C198 1.375 . S
C199 C200 1.361 . S
C200 H160 0.930 . S
C200 C199 1.361 . S
C200 C201 1.399 . S
C201 H161 0.929 . S
C201 C196 1.386 . S
C201 C200 1.399 . S
C202 C181 1.485 . S
C202 C203 1.394 . S
C202 C207 1.360 . S
C203 H162 0.931 . S
C203 C202 1.394 . S
C203 C204 1.372 . S
C204 H163 0.930 . S
C204 C203 1.372 . S
C204 C205 1.397 . S
C205 C204 1.397 . S
C205 C206 1.390 . S
C205 C221 1.476 . S
C206 H164 0.930 . S
C206 C205 1.390 . S
C206 C207 1.366 . S
C207 H165 0.932 . S
C207 C202 1.360 . S
C207 C206 1.366 . S
C208 C182 1.490 . S
C208 C209 1.380 . S
C208 C213 1.386 . S
C209 H166 0.930 . S
C209 C208 1.380 . S
C209 C210 1.381 . S
C210 H167 0.929 . S
C210 C209 1.381 . S
C210 C211 1.371 . S
C211 C210 1.371 . S
C211 C212 1.380 . S
C212 H168 0.931 . S
C212 C211 1.380 . S
C212 C213 1.387 . S
C213 H169 0.930 . S
C213 C208 1.386 . S
C213 C212 1.387 . S
C214 C183 1.519 . S
C214 C215 1.377 . S
C214 C219 1.361 . S
C215 H170 0.929 . S
C215 C214 1.377 . S
C215 C216 1.386 . S
C216 H171 0.931 . S
C216 C215 1.386 . S
C216 C217 1.363 . S
C217 C216 1.363 . S
C217 C218 1.385 . S
C218 H172 0.930 . S
C218 C217 1.385 . S
C218 C219 1.396 . S
C219 H173 0.929 . S
C219 C214 1.361 . S
C219 C218 1.396 . S
C220 O174 1.300 . S
C220 O175 1.209 . S
C220 C193 1.486 . S
C221 O176 1.199 . S
C221 O177 1.297 . S
C221 C205 1.476 . S
H222 O248 0.856 . S
H223 O251 0.854 . S
H224 C259 0.930 1_455 S
H225 C260 0.930 . S
H226 C262 0.930 . S
H227 C263 0.930 . S
H228 C265 0.931 . S
H229 C266 0.930 . S
H230 C268 0.930 . S
H231 C269 0.929 . S
H232 C271 0.930 . S
H233 C272 0.931 . S
H234 C274 0.930 . S
H235 C275 0.929 . S
H236 C277 0.931 . S
H237 C278 0.930 . S
H238 C280 0.930 . S
H239 C281 0.932 . S
H240 C283 0.930 . S
H241 C284 0.929 . S
H242 C286 0.931 . S
H243 C287 0.930 . S
H244 C289 0.929 . S
H245 C290 0.931 . S
H246 C292 0.930 . S
H247 C293 0.929 . S
O248 H222 0.856 . S
O248 C294 1.300 . S
O249 C294 1.209 . S
O250 C295 1.199 . S
O251 H223 0.854 . S
O251 C295 1.297 . S
C252 C253 1.404 . S
C252 C257 1.397 . S
C252 C258 1.492 . S
C253 C252 1.404 . S
C253 C254 1.396 . S
C253 C264 1.492 . S
C254 C253 1.396 . S
C254 C255 1.397 . S
C254 C270 1.509 . S
C255 C254 1.397 . S
C255 C256 1.412 . S
C255 C276 1.485 . S
C256 C255 1.412 . S
C256 C257 1.388 . S
C256 C282 1.490 . S
C257 C252 1.397 . S
C257 C256 1.388 . S
C257 C288 1.519 1_455 S
C258 C252 1.492 . S
C258 C259 1.363 1_455 S
C258 C263 1.390 1_455 S
C259 H224 0.930 1_655 S
C259 C258 1.363 1_655 S
C259 C260 1.372 . S
C260 H225 0.930 . S
C260 C259 1.372 . S
C260 C261 1.383 . S
C261 C260 1.383 . S
C261 C262 1.395 . S
C262 H226 0.930 . S
C262 C261 1.395 . S
C262 C263 1.362 . S
C263 H227 0.930 . S
C263 C258 1.390 1_655 S
C263 C262 1.362 . S
C264 C253 1.492 . S
C264 C265 1.377 . S
C264 C269 1.397 . S
C265 H228 0.931 . S
C265 C264 1.377 . S
C265 C266 1.376 . S
C266 H229 0.930 . S
C266 C265 1.376 . S
C266 C267 1.376 . S
C267 C266 1.376 . S
C267 C268 1.378 . S
C267 C294 1.486 . S
C268 H230 0.930 . S
C268 C267 1.378 . S
C268 C269 1.376 . S
C269 H231 0.929 . S
C269 C264 1.397 . S
C269 C268 1.376 . S
C270 C254 1.509 . S
C270 C271 1.391 . S
C270 C275 1.386 . S
C271 H232 0.930 . S
C271 C270 1.391 . S
C271 C272 1.375 . S
C272 H233 0.931 . S
C272 C271 1.375 . S
C272 C273 1.375 . S
C273 C272 1.375 . S
C273 C274 1.361 . S
C274 H234 0.930 . S
C274 C273 1.361 . S
C274 C275 1.399 . S
C275 H235 0.929 . S
C275 C270 1.386 . S
C275 C274 1.399 . S
C276 C255 1.485 . S
C276 C277 1.394 . S
C276 C281 1.360 . S
C277 H236 0.931 . S
C277 C276 1.394 . S
C277 C278 1.372 . S
C278 H237 0.930 . S
C278 C277 1.372 . S
C278 C279 1.397 . S
C279 C278 1.397 . S
C279 C280 1.390 . S
C279 C295 1.476 . S
C280 H238 0.930 . S
C280 C279 1.390 . S
C280 C281 1.366 . S
C281 H239 0.932 . S
C281 C276 1.360 . S
C281 C280 1.366 . S
C282 C256 1.490 . S
C282 C283 1.380 . S
C282 C287 1.386 . S
C283 H240 0.930 . S
C283 C282 1.380 . S
C283 C284 1.381 . S
C284 H241 0.929 . S
C284 C283 1.381 . S
C284 C285 1.371 . S
C285 C284 1.371 . S
C285 C286 1.380 . S
C286 H242 0.931 . S
C286 C285 1.380 . S
C286 C287 1.387 . S
C287 H243 0.930 . S
C287 C282 1.386 . S
C287 C286 1.387 . S
C288 C257 1.519 1_655 S
C288 C289 1.377 . S
C288 C293 1.361 . S
C289 H244 0.929 . S
C289 C288 1.377 . S
C289 C290 1.386 . S
C290 H245 0.931 . S
C290 C289 1.386 . S
C290 C291 1.363 . S
C291 C290 1.363 . S
C291 C292 1.385 . S
C292 H246 0.930 . S
C292 C291 1.385 . S
C292 C293 1.396 . S
C293 H247 0.929 . S
C293 C288 1.361 . S
C293 C292 1.396 . S
C294 O248 1.300 . S
C294 O249 1.209 . S
C294 C267 1.486 . S
C295 O250 1.199 . S
C295 O251 1.297 . S
C295 C279 1.476 . S
H296 O322 0.856 . S
H297 O325 0.854 . S
H298 C333 0.930 . S
H299 C334 0.930 . S
H300 C336 0.930 . S
H301 C337 0.930 . S
H302 C339 0.931 . S
H303 C340 0.930 . S
H304 C342 0.930 . S
H305 C343 0.929 . S
H306 C345 0.930 . S
H307 C346 0.931 . S
H308 C348 0.930 . S
H309 C349 0.929 . S
H310 C351 0.931 . S
H311 C352 0.930 . S
H312 C354 0.930 . S
H313 C355 0.932 . S
H314 C357 0.930 . S
H315 C358 0.929 1_545 S
H316 C360 0.931 . S
H317 C361 0.930 . S
H318 C363 0.929 1_556 S
H319 C364 0.931 . S
H320 C366 0.930 . S
H321 C367 0.929 . S
O322 H296 0.856 . S
O322 C368 1.300 . S
O323 C368 1.209 . S
O324 C369 1.199 . S
O325 H297 0.854 . S
O325 C369 1.297 . S
C326 C327 1.404 1_545 S
C326 C331 1.397 . S
C326 C332 1.492 . S
C327 C326 1.404 1_565 S
C327 C328 1.396 . S
C327 C338 1.492 . S
C328 C327 1.396 . S
C328 C329 1.397 . S
C328 C344 1.509 . S
C329 C328 1.397 . S
C329 C330 1.412 1_556 S
C329 C350 1.485 1_556 S
C330 C329 1.412 1_554 S
C330 C331 1.388 1_564 S
C330 C356 1.490 . S
C331 C326 1.397 . S
C331 C330 1.388 1_546 S
C331 C362 1.519 1_556 S
C332 C326 1.492 . S
C332 C333 1.363 . S
C332 C337 1.390 . S
C333 H298 0.930 . S
C333 C332 1.363 . S
C333 C334 1.372 . S
C334 H299 0.930 . S
C334 C333 1.372 . S
C334 C335 1.383 . S
C335 C334 1.383 . S
C335 C336 1.395 . S
C336 H300 0.930 . S
C336 C335 1.395 . S
C336 C337 1.362 . S
C337 H301 0.930 . S
C337 C332 1.390 . S
C337 C336 1.362 . S
C338 C327 1.492 . S
C338 C339 1.377 . S
C338 C343 1.397 . S
C339 H302 0.931 . S
C339 C338 1.377 . S
C339 C340 1.376 . S
C340 H303 0.930 . S
C340 C339 1.376 . S
C340 C341 1.376 . S
C341 C340 1.376 . S
C341 C342 1.378 . S
C341 C368 1.486 . S
C342 H304 0.930 . S
C342 C341 1.378 . S
C342 C343 1.376 . S
C343 H305 0.929 . S
C343 C338 1.397 . S
C343 C342 1.376 . S
C344 C328 1.509 . S
C344 C345 1.391 . S
C344 C349 1.386 . S
C345 H306 0.930 . S
C345 C344 1.391 . S
C345 C346 1.375 . S
C346 H307 0.931 . S
C346 C345 1.375 . S
C346 C347 1.375 . S
C347 C346 1.375 . S
C347 C348 1.361 . S
C348 H308 0.930 . S
C348 C347 1.361 . S
C348 C349 1.399 . S
C349 H309 0.929 . S
C349 C344 1.386 . S
C349 C348 1.399 . S
C350 C329 1.485 1_554 S
C350 C351 1.394 . S
C350 C355 1.360 . S
C351 H310 0.931 . S
C351 C350 1.394 . S
C351 C352 1.372 . S
C352 H311 0.930 . S
C352 C351 1.372 . S
C352 C353 1.397 . S
C353 C352 1.397 . S
C353 C354 1.390 . S
C353 C369 1.476 . S
C354 H312 0.930 . S
C354 C353 1.390 . S
C354 C355 1.366 . S
C355 H313 0.932 . S
C355 C350 1.360 . S
C355 C354 1.366 . S
C356 C330 1.490 . S
C356 C357 1.380 . S
C356 C361 1.386 . S
C357 H314 0.930 . S
C357 C356 1.380 . S
C357 C358 1.381 . S
C358 H315 0.929 1_565 S
C358 C357 1.381 . S
C358 C359 1.371 . S
C359 C358 1.371 . S
C359 C360 1.380 . S
C360 H316 0.931 . S
C360 C359 1.380 . S
C360 C361 1.387 . S
C361 H317 0.930 . S
C361 C356 1.386 . S
C361 C360 1.387 . S
C362 C331 1.519 1_554 S
C362 C363 1.377 . S
C362 C367 1.361 . S
C363 H318 0.929 1_554 S
C363 C362 1.377 . S
C363 C364 1.386 . S
C364 H319 0.931 . S
C364 C363 1.386 . S
C364 C365 1.363 . S
C365 C364 1.363 . S
C365 C366 1.385 . S
C366 H320 0.930 . S
C366 C365 1.385 . S
C366 C367 1.396 . S
C367 H321 0.929 . S
C367 C362 1.361 . S
C367 C366 1.396 . S
C368 O322 1.300 . S
C368 O323 1.209 . S
C368 C341 1.486 . S
C369 O324 1.199 . S
C369 O325 1.297 . S
C369 C353 1.476 . S
H370 O396 0.883 . S
H371 O399 0.854 . S
H372 C407 0.930 . S
H373 C408 0.930 . S
H374 C410 0.930 . S
H375 C411 0.930 . S
H376 C413 0.931 . S
H377 C414 0.930 . S
H378 C416 0.930 . S
H379 C417 0.929 . S
H380 C419 0.930 . S
H381 C420 0.931 . S
H382 C422 0.930 . S
H383 C423 0.929 . S
H384 C425 0.931 . S
H385 C426 0.930 . S
H386 C428 0.930 . S
H387 C429 0.932 . S
H388 C431 0.930 . S
H389 C432 0.929 . S
H390 C434 0.931 . S
H391 C435 0.930 . S
H392 C437 0.929 . S
H393 C438 0.931 . S
H394 C440 0.930 . S
H395 C441 0.929 . S
O396 H370 0.883 . S
O396 C442 1.290 1_556 S
O397 C442 1.209 1_556 S
O398 C443 1.199 . S
O399 H371 0.854 . S
O399 C443 1.297 . S
C400 C401 1.404 . S
C400 C405 1.397 . S
C400 C406 1.492 . S
C401 C400 1.404 . S
C401 C402 1.396 . S
C401 C412 1.492 . S
C402 C401 1.396 . S
C402 C403 1.397 . S
C402 C418 1.509 . S
C403 C402 1.397 . S
C403 C404 1.412 . S
C403 C424 1.485 . S
C404 C403 1.412 . S
C404 C405 1.388 . S
C404 C430 1.490 . S
C405 C400 1.397 . S
C405 C404 1.388 . S
C405 C436 1.519 . S
C406 C400 1.492 . S
C406 C407 1.363 . S
C406 C411 1.390 . S
C407 H372 0.930 . S
C407 C406 1.363 . S
C407 C408 1.372 . S
C408 H373 0.930 . S
C408 C407 1.372 . S
C408 C409 1.383 . S
C409 C408 1.383 . S
C409 C410 1.395 . S
C410 H374 0.930 . S
C410 C409 1.395 . S
C410 C411 1.362 . S
C411 H375 0.930 . S
C411 C406 1.390 . S
C411 C410 1.362 . S
C412 C401 1.492 . S
C412 C413 1.377 . S
C412 C417 1.397 . S
C413 H376 0.931 . S
C413 C412 1.377 . S
C413 C414 1.376 . S
C414 H377 0.930 . S
C414 C413 1.376 . S
C414 C415 1.376 . S
C415 C414 1.376 . S
C415 C416 1.378 . S
C415 C442 1.486 . S
C416 H378 0.930 . S
C416 C415 1.378 . S
C416 C417 1.376 . S
C417 H379 0.929 . S
C417 C412 1.397 . S
C417 C416 1.376 . S
C418 C402 1.509 . S
C418 C419 1.391 . S
C418 C423 1.386 . S
C419 H380 0.930 . S
C419 C418 1.391 . S
C419 C420 1.375 . S
C420 H381 0.931 . S
C420 C419 1.375 . S
C420 C421 1.375 . S
C421 C420 1.375 . S
C421 C422 1.361 . S
C422 H382 0.930 . S
C422 C421 1.361 . S
C422 C423 1.399 . S
C423 H383 0.929 . S
C423 C418 1.386 . S
C423 C422 1.399 . S
C424 C403 1.485 . S
C424 C425 1.394 . S
C424 C429 1.360 . S
C425 H384 0.931 . S
C425 C424 1.394 . S
C425 C426 1.372 . S
C426 H385 0.930 . S
C426 C425 1.372 . S
C426 C427 1.397 . S
C427 C426 1.397 . S
C427 C428 1.390 . S
C427 C443 1.476 . S
C428 H386 0.930 . S
C428 C427 1.390 . S
C428 C429 1.366 . S
C429 H387 0.932 . S
C429 C424 1.360 . S
C429 C428 1.366 . S
C430 C404 1.490 . S
C430 C431 1.380 . S
C430 C435 1.386 . S
C431 H388 0.930 . S
C431 C430 1.380 . S
C431 C432 1.381 . S
C432 H389 0.929 . S
C432 C431 1.381 . S
C432 C433 1.371 . S
C433 C432 1.371 . S
C433 C434 1.380 . S
C434 H390 0.931 . S
C434 C433 1.380 . S
C434 C435 1.387 . S
C435 H391 0.930 . S
C435 C430 1.386 . S
C435 C434 1.387 . S
C436 C405 1.519 . S
C436 C437 1.377 . S
C436 C441 1.361 . S
C437 H392 0.929 . S
C437 C436 1.377 . S
C437 C438 1.386 . S
C438 H393 0.931 . S
C438 C437 1.386 . S
C438 C439 1.363 . S
C439 C438 1.363 . S
C439 C440 1.385 . S
C440 H394 0.930 . S
C440 C439 1.385 . S
C440 C441 1.396 . S
C441 H395 0.929 . S
C441 C436 1.361 . S
C441 C440 1.396 . S
C442 O396 1.290 1_554 S
C442 O397 1.209 1_554 S
C442 C415 1.486 . S
C443 O398 1.199 . S
C443 O399 1.297 . S
C443 C427 1.476 . S
Zn444 O447 2.031 . S
Zn444 O449 2.049 . S
Zn444 O454 2.067 . S
Zn445 O446 1.962 . S
Zn445 O448 1.986 . S
Zn445 O450 1.996 . S
Zn445 O453 1.943 . S
O446 Zn445 1.962 . S
O446 C451 1.254 . S
O447 Zn444 2.031 . S
O447 C451 1.269 . S
O448 Zn445 1.986 . S
O448 C455 1.262 . S
O449 Zn444 2.049 . S
O449 C457 1.260 . S
O450 Zn445 1.996 . S
O450 C457 1.257 . S
C451 O446 1.254 . S
C451 O447 1.269 . S
C452 O453 1.249 . S
C452 O454 1.270 . S
O453 Zn445 1.943 . S
O453 C452 1.249 . S
O454 Zn444 2.067 . S
O454 C452 1.270 . S
C455 O448 1.262 . S
C455 O456 1.232 . S
O456 C455 1.232 . S
C457 O449 1.260 . S
C457 O450 1.257 . S
Zn458 O461 2.031 . S
Zn458 O463 2.049 . S
Zn458 O468 2.067 . S
Zn459 O460 1.962 . S
Zn459 O462 1.986 . S
Zn459 O464 1.996 . S
Zn459 O467 1.943 . S
O460 Zn459 1.962 . S
O460 C465 1.254 . S
O461 Zn458 2.031 . S
O461 C465 1.269 . S
O462 Zn459 1.986 . S
O462 C469 1.262 . S
O463 Zn458 2.049 . S
O463 C471 1.260 . S
O464 Zn459 1.996 . S
O464 C471 1.257 . S
C465 O460 1.254 . S
C465 O461 1.269 . S
C466 O467 1.249 . S
C466 O468 1.270 . S
O467 Zn459 1.943 . S
O467 C466 1.249 . S
O468 Zn458 2.067 . S
O468 C466 1.270 . S
C469 O462 1.262 . S
C469 O470 1.232 . S
O470 C469 1.232 . S
C471 O463 1.260 . S
C471 O464 1.257 . S
Zn472 O475 2.031 . S
Zn472 O477 2.049 . S
Zn472 O482 2.067 . S
Zn473 O474 1.962 . S
Zn473 O476 1.986 . S
Zn473 O478 1.996 . S
Zn473 O481 1.943 . S
O474 Zn473 1.962 . S
O474 C479 1.254 . S
O475 Zn472 2.031 . S
O475 C479 1.269 . S
O476 Zn473 1.986 . S
O476 C483 1.262 . S
O477 Zn472 2.049 . S
O477 C485 1.260 . S
O478 Zn473 1.996 . S
O478 C485 1.257 . S
C479 O474 1.254 . S
C479 O475 1.269 . S
C480 O481 1.249 . S
C480 O482 1.270 . S
O481 Zn473 1.943 . S
O481 C480 1.249 . S
O482 Zn472 2.067 . S
O482 C480 1.270 . S
C483 O476 1.262 . S
C483 O484 1.232 . S
O484 C483 1.232 . S
C485 O477 1.260 . S
C485 O478 1.257 . S
Zn486 O489 2.031 . S
Zn486 O491 2.049 . S
Zn486 O496 2.067 . S
Zn487 O488 1.962 . S
Zn487 O490 1.986 . S
Zn487 O492 1.996 . S
Zn487 O495 1.943 . S
O488 Zn487 1.962 . S
O488 C493 1.254 . S
O489 Zn486 2.031 . S
O489 C493 1.269 . S
O490 Zn487 1.986 . S
O490 C497 1.262 . S
O491 Zn486 2.049 . S
O491 C499 1.260 . S
O492 Zn487 1.996 . S
O492 C499 1.257 . S
C493 O488 1.254 . S
C493 O489 1.269 . S
C494 O495 1.249 . S
C494 O496 1.270 . S
O495 Zn487 1.943 . S
O495 C494 1.249 . S
O496 Zn486 2.067 . S
O496 C494 1.270 . S
C497 O490 1.262 . S
C497 O498 1.232 . S
O498 C497 1.232 . S
C499 O491 1.260 . S
C499 O492 1.257 . S
Zn500 O503 2.031 . S
Zn500 O505 2.049 . S
Zn500 O510 2.067 . S
Zn501 O502 1.962 . S
Zn501 O504 1.986 . S
Zn501 O506 1.996 . S
Zn501 O509 1.943 . S
O502 Zn501 1.962 . S
O502 C507 1.254 . S
O503 Zn500 2.031 . S
O503 C507 1.269 . S
O504 Zn501 1.986 . S
O504 C511 1.262 . S
O505 Zn500 2.049 . S
O505 C513 1.260 . S
O506 Zn501 1.996 . S
O506 C513 1.257 . S
C507 O502 1.254 . S
C507 O503 1.269 . S
C508 O509 1.249 . S
C508 O510 1.270 . S
O509 Zn501 1.943 . S
O509 C508 1.249 . S
O510 Zn500 2.067 . S
O510 C508 1.270 . S
C511 O504 1.262 . S
C511 O512 1.232 . S
O512 C511 1.232 . S
C513 O505 1.260 . S
C513 O506 1.257 . S
Zn514 O517 2.031 . S
Zn514 O519 2.049 . S
Zn514 O524 2.067 . S
Zn515 O516 1.962 . S
Zn515 O518 1.986 . S
Zn515 O520 1.996 . S
Zn515 O523 1.943 . S
O516 Zn515 1.962 . S
O516 C521 1.254 . S
O517 Zn514 2.031 . S
O517 C521 1.269 . S
O518 Zn515 1.986 . S
O518 C525 1.262 . S
O519 Zn514 2.049 . S
O519 C527 1.260 . S
O520 Zn515 1.996 . S
O520 C527 1.257 . S
C521 O516 1.254 . S
C521 O517 1.269 . S
C522 O523 1.249 . S
C522 O524 1.270 . S
O523 Zn515 1.943 . S
O523 C522 1.249 . S
O524 Zn514 2.067 . S
O524 C522 1.270 . S
C525 O518 1.262 . S
C525 O526 1.232 . S
O526 C525 1.232 . S
C527 O519 1.260 . S
C527 O520 1.257 . S
H528 C534 0.930 . S
H529 C537 0.930 . S
H530 C538 0.930 . S
H531 C539 0.930 . S
H532 C542 0.930 . S
H533 C543 0.930 . S
C534 H528 0.930 . S
C534 C535 1.355 . S
C534 C536 1.415 . S
C535 C534 1.355 . S
C535 C537 1.419 . S
C536 C534 1.415 . S
C536 C541 1.425 . S
C536 C543 1.409 . S
C537 H529 0.930 . S
C537 C535 1.419 . S
C537 C538 1.362 . S
C538 H530 0.930 . S
C538 C537 1.362 . S
C538 C541 1.409 . S
C539 H531 0.930 . S
C539 C540 1.355 . S
C539 C541 1.415 . S
C540 C539 1.355 . S
C540 C542 1.419 . S
C541 C536 1.425 . S
C541 C538 1.409 . S
C541 C539 1.415 . S
C542 H532 0.930 . S
C542 C540 1.419 . S
C542 C543 1.362 . S
C543 H533 0.930 . S
C543 C536 1.409 . S
C543 C542 1.362 . S
H544 C550 0.930 . S
H545 C553 0.930 . S
H546 C554 0.930 . S
H547 C555 0.930 . S
H548 C558 0.930 . S
H549 C559 0.930 . S
C550 H544 0.930 . S
C550 C551 1.355 . S
C550 C552 1.415 . S
C551 C550 1.355 . S
C551 C553 1.419 . S
C552 C550 1.415 . S
C552 C557 1.425 . S
C552 C559 1.409 . S
C553 H545 0.930 . S
C553 C551 1.419 . S
C553 C554 1.362 . S
C554 H546 0.930 . S
C554 C553 1.362 . S
C554 C557 1.409 . S
C555 H547 0.930 . S
C555 C556 1.355 . S
C555 C557 1.415 . S
C556 C555 1.355 . S
C556 C558 1.419 . S
C557 C552 1.425 . S
C557 C554 1.409 . S
C557 C555 1.415 . S
C558 H548 0.930 . S
C558 C556 1.419 . S
C558 C559 1.362 . S
C559 H549 0.930 . S
C559 C552 1.409 . S
C559 C558 1.362 . S
H560 C566 0.930 . S
H561 C569 0.930 . S
H562 C570 0.930 . S
H563 C571 0.930 . S
H564 C574 0.930 . S
H565 C575 0.930 . S
C566 H560 0.930 . S
C566 C567 1.355 . S
C566 C568 1.415 . S
C567 C566 1.355 . S
C567 C569 1.419 . S
C568 C566 1.415 . S
C568 C573 1.425 . S
C568 C575 1.409 . S
C569 H561 0.930 . S
C569 C567 1.419 . S
C569 C570 1.362 . S
C570 H562 0.930 . S
C570 C569 1.362 . S
C570 C573 1.409 . S
C571 H563 0.930 . S
C571 C572 1.355 . S
C571 C573 1.415 . S
C572 C571 1.355 . S
C572 C574 1.419 . S
C573 C568 1.425 . S
C573 C570 1.409 . S
C573 C571 1.415 . S
C574 H564 0.930 . S
C574 C572 1.419 . S
C574 C575 1.362 . S
C575 H565 0.930 . S
C575 C568 1.409 . S
C575 C574 1.362 . S
H576 C582 0.930 . S
H577 C585 0.930 . S
H578 C586 0.930 . S
H579 C587 0.930 . S
H580 C590 0.930 . S
H581 C591 0.930 . S
C582 H576 0.930 . S
C582 C583 1.355 . S
C582 C584 1.415 . S
C583 C582 1.355 . S
C583 C585 1.419 . S
C584 C582 1.415 . S
C584 C589 1.425 . S
C584 C591 1.409 . S
C585 H577 0.930 . S
C585 C583 1.419 . S
C585 C586 1.362 . S
C586 H578 0.930 . S
C586 C585 1.362 . S
C586 C589 1.409 . S
C587 H579 0.930 . S
C587 C588 1.355 . S
C587 C589 1.415 . S
C588 C587 1.355 . S
C588 C590 1.419 . S
C589 C584 1.425 . S
C589 C586 1.409 . S
C589 C587 1.415 . S
C590 H580 0.930 . S
C590 C588 1.419 . S
C590 C591 1.362 . S
C591 H581 0.930 . S
C591 C584 1.409 . S
C591 C590 1.362 . S
H592 C598 0.930 . S
H593 C601 0.930 . S
H594 C602 0.930 . S
H595 C603 0.930 . S
H596 C606 0.930 . S
H597 C607 0.930 . S
C598 H592 0.930 . S
C598 C599 1.355 . S
C598 C600 1.415 . S
C599 C598 1.355 . S
C599 C601 1.419 . S
C600 C598 1.415 . S
C600 C605 1.425 . S
C600 C607 1.409 . S
C601 H593 0.930 . S
C601 C599 1.419 . S
C601 C602 1.362 . S
C602 H594 0.930 . S
C602 C601 1.362 . S
C602 C605 1.409 . S
C603 H595 0.930 . S
C603 C604 1.355 . S
C603 C605 1.415 . S
C604 C603 1.355 . S
C604 C606 1.419 . S
C605 C600 1.425 . S
C605 C602 1.409 . S
C605 C603 1.415 . S
C606 H596 0.930 . S
C606 C604 1.419 . S
C606 C607 1.362 . S
C607 H597 0.930 . S
C607 C600 1.409 . S
C607 C606 1.362 . S
H608 C614 0.930 . S
H609 C617 0.930 . S
H610 C618 0.930 . S
H611 C619 0.930 . S
H612 C622 0.930 . S
H613 C623 0.930 . S
C614 H608 0.930 . S
C614 C615 1.355 . S
C614 C616 1.415 . S
C615 C614 1.355 . S
C615 C617 1.419 . S
C616 C614 1.415 . S
C616 C621 1.425 . S
C616 C623 1.409 . S
C617 H609 0.930 . S
C617 C615 1.419 . S
C617 C618 1.362 . S
C618 H610 0.930 . S
C618 C617 1.362 . S
C618 C621 1.409 . S
C619 H611 0.930 . S
C619 C620 1.355 . S
C619 C621 1.415 . S
C620 C619 1.355 . S
C620 C622 1.419 . S
C621 C616 1.425 . S
C621 C618 1.409 . S
C621 C619 1.415 . S
C622 H612 0.930 . S
C622 C620 1.419 . S
C622 C623 1.362 . S
C623 H613 0.930 . S
C623 C616 1.409 . S
C623 C622 1.362 . S
H624 C630 0.930 . S
H625 C633 0.930 . S
H626 C634 0.930 . S
H627 C635 0.930 . S
H628 C638 0.930 . S
H629 C639 0.930 . S
C630 H624 0.930 . S
C630 C631 1.355 . S
C630 C632 1.415 . S
C631 C630 1.355 . S
C631 C633 1.419 . S
C632 C630 1.415 . S
C632 C637 1.425 . S
C632 C639 1.409 . S
C633 H625 0.930 . S
C633 C631 1.419 . S
C633 C634 1.362 . S
C634 H626 0.930 . S
C634 C633 1.362 . S
C634 C637 1.409 . S
C635 H627 0.930 . S
C635 C636 1.355 . S
C635 C637 1.415 . S
C636 C635 1.355 . S
C636 C638 1.419 . S
C637 C632 1.425 . S
C637 C634 1.409 . S
C637 C635 1.415 . S
C638 H628 0.930 . S
C638 C636 1.419 . S
C638 C639 1.362 . S
C639 H629 0.930 . S
C639 C632 1.409 . S
C639 C638 1.362 . S
H640 C646 0.930 . S
H641 C649 0.930 . S
H642 C650 0.930 . S
H643 C651 0.930 . S
H644 C654 0.930 . S
H645 C655 0.930 . S
C646 H640 0.930 . S
C646 C647 1.355 . S
C646 C648 1.415 . S
C647 C646 1.355 . S
C647 C649 1.419 . S
C648 C646 1.415 . S
C648 C653 1.425 . S
C648 C655 1.409 . S
C649 H641 0.930 . S
C649 C647 1.419 . S
C649 C650 1.362 . S
C650 H642 0.930 . S
C650 C649 1.362 . S
C650 C653 1.409 . S
C651 H643 0.930 . S
C651 C652 1.355 . S
C651 C653 1.415 . S
C652 C651 1.355 . S
C652 C654 1.419 . S
C653 C648 1.425 . S
C653 C650 1.409 . S
C653 C651 1.415 . S
C654 H644 0.930 . S
C654 C652 1.419 . S
C654 C655 1.362 . S
C655 H645 0.930 . S
C655 C648 1.409 . S
C655 C654 1.362 . S
H656 C662 0.930 . S
H657 C665 0.930 . S
H658 C666 0.930 . S
H659 C667 0.930 . S
H660 C670 0.930 . S
H661 C671 0.930 . S
C662 H656 0.930 . S
C662 C663 1.355 . S
C662 C664 1.415 . S
C663 C662 1.355 . S
C663 C665 1.419 . S
C664 C662 1.415 . S
C664 C669 1.425 . S
C664 C671 1.409 . S
C665 H657 0.930 . S
C665 C663 1.419 . S
C665 C666 1.362 . S
C666 H658 0.930 . S
C666 C665 1.362 . S
C666 C669 1.409 . S
C667 H659 0.930 . S
C667 C668 1.355 . S
C667 C669 1.415 . S
C668 C667 1.355 . S
C668 C670 1.419 . S
C669 C664 1.425 . S
C669 C666 1.409 . S
C669 C667 1.415 . S
C670 H660 0.930 . S
C670 C668 1.419 . S
C670 C671 1.362 . S
C671 H661 0.930 . S
C671 C664 1.409 . S
C671 C670 1.362 . S
H672 C678 0.930 . S
H673 C681 0.930 . S
H674 C682 0.930 . S
H675 C683 0.930 . S
H676 C686 0.930 . S
H677 C687 0.930 . S
C678 H672 0.930 . S
C678 C679 1.355 . S
C678 C680 1.415 . S
C679 C678 1.355 . S
C679 C681 1.419 . S
C680 C678 1.415 . S
C680 C685 1.425 . S
C680 C687 1.409 . S
C681 H673 0.930 . S
C681 C679 1.419 . S
C681 C682 1.362 . S
C682 H674 0.930 . S
C682 C681 1.362 . S
C682 C685 1.409 . S
C683 H675 0.930 . S
C683 C684 1.355 . S
C683 C685 1.415 . S
C684 C683 1.355 . S
C684 C686 1.419 . S
C685 C680 1.425 . S
C685 C682 1.409 . S
C685 C683 1.415 . S
C686 H676 0.930 . S
C686 C684 1.419 . S
C686 C687 1.362 . S
C687 H677 0.930 . S
C687 C680 1.409 . S
C687 C686 1.362 . S
H688 C694 0.930 . S
H689 C697 0.930 . S
H690 C698 0.930 . S
H691 C699 0.930 . S
H692 C702 0.930 . S
H693 C703 0.930 . S
C694 H688 0.930 . S
C694 C695 1.355 . S
C694 C696 1.415 . S
C695 C694 1.355 . S
C695 C697 1.419 . S
C696 C694 1.415 . S
C696 C701 1.425 . S
C696 C703 1.409 . S
C697 H689 0.930 . S
C697 C695 1.419 . S
C697 C698 1.362 . S
C698 H690 0.930 . S
C698 C697 1.362 . S
C698 C701 1.409 . S
C699 H691 0.930 . S
C699 C700 1.355 . S
C699 C701 1.415 . S
C700 C699 1.355 . S
C700 C702 1.419 . S
C701 C696 1.425 . S
C701 C698 1.409 . S
C701 C699 1.415 . S
C702 H692 0.930 . S
C702 C700 1.419 . S
C702 C703 1.362 . S
C703 H693 0.930 . S
C703 C696 1.409 . S
C703 C702 1.362 . S
H704 C710 0.930 . S
H705 C713 0.930 . S
H706 C714 0.930 . S
H707 C715 0.930 . S
H708 C718 0.930 . S
H709 C719 0.930 . S
C710 H704 0.930 . S
C710 C711 1.355 . S
C710 C712 1.415 . S
C711 C710 1.355 . S
C711 C713 1.419 . S
C712 C710 1.415 . S
C712 C717 1.425 . S
C712 C719 1.409 . S
C713 H705 0.930 . S
C713 C711 1.419 . S
C713 C714 1.362 . S
C714 H706 0.930 . S
C714 C713 1.362 . S
C714 C717 1.409 . S
C715 H707 0.930 . S
C715 C716 1.355 . S
C715 C717 1.415 . S
C716 C715 1.355 . S
C716 C718 1.419 . S
C717 C712 1.425 . S
C717 C714 1.409 . S
C717 C715 1.415 . S
C718 H708 0.930 . S
C718 C716 1.419 . S
C718 C719 1.362 . S
C719 H709 0.930 . S
C719 C712 1.409 . S
C719 C718 1.362 . S
H720 C726 0.930 . S
H721 C729 0.930 . S
H722 C730 0.930 . S
H723 C731 0.930 . S
H724 C734 0.930 . S
H725 C735 0.930 . S
C726 H720 0.930 . S
C726 C727 1.355 . S
C726 C728 1.415 . S
C727 C726 1.355 . S
C727 C729 1.419 . S
C728 C726 1.415 . S
C728 C733 1.425 . S
C728 C735 1.409 . S
C729 H721 0.930 . S
C729 C727 1.419 . S
C729 C730 1.362 . S
C730 H722 0.930 . S
C730 C729 1.362 . S
C730 C733 1.409 . S
C731 H723 0.930 . S
C731 C732 1.355 . S
C731 C733 1.415 . S
C732 C731 1.355 . S
C732 C734 1.419 . S
C733 C728 1.425 . S
C733 C730 1.409 . S
C733 C731 1.415 . S
C734 H724 0.930 . S
C734 C732 1.419 . S
C734 C735 1.362 . S
C735 H725 0.930 . S
C735 C728 1.409 . S
C735 C734 1.362 . S
H736 C742 0.930 . S
H737 C745 0.930 . S
H738 C746 0.930 . S
H739 C747 0.930 . S
H740 C750 0.930 . S
H741 C751 0.930 . S
C742 H736 0.930 . S
C742 C743 1.355 . S
C742 C744 1.415 . S
C743 C742 1.355 . S
C743 C745 1.419 . S
C744 C742 1.415 . S
C744 C749 1.425 . S
C744 C751 1.409 . S
C745 H737 0.930 . S
C745 C743 1.419 . S
C745 C746 1.362 . S
C746 H738 0.930 . S
C746 C745 1.362 . S
C746 C749 1.409 . S
C747 H739 0.930 . S
C747 C748 1.355 . S
C747 C749 1.415 . S
C748 C747 1.355 . S
C748 C750 1.419 . S
C749 C744 1.425 . S
C749 C746 1.409 . S
C749 C747 1.415 . S
C750 H740 0.930 . S
C750 C748 1.419 . S
C750 C751 1.362 . S
C751 H741 0.930 . S
C751 C744 1.409 . S
C751 C750 1.362 . S
H752 C758 0.930 . S
H753 C761 0.930 . S
H754 C762 0.930 . S
H755 C763 0.930 . S
H756 C766 0.930 . S
H757 C767 0.930 . S
C758 H752 0.930 . S
C758 C759 1.355 . S
C758 C760 1.415 . S
C759 C758 1.355 . S
C759 C761 1.419 . S
C760 C758 1.415 . S
C760 C765 1.425 . S
C760 C767 1.409 . S
C761 H753 0.930 . S
C761 C759 1.419 . S
C761 C762 1.362 . S
C762 H754 0.930 . S
C762 C761 1.362 . S
C762 C765 1.409 . S
C763 H755 0.930 . S
C763 C764 1.355 . S
C763 C765 1.415 . S
C764 C763 1.355 . S
C764 C766 1.419 . S
C765 C760 1.425 . S
C765 C762 1.409 . S
C765 C763 1.415 . S
C766 H756 0.930 . S
C766 C764 1.419 . S
C766 C767 1.362 . S
C767 H757 0.930 . S
C767 C760 1.409 . S
C767 C766 1.362 . S
H768 C774 0.930 . S
H769 C777 0.930 . S
H770 C778 0.930 . S
H771 C779 0.930 . S
H772 C782 0.930 1_554 S
H773 C783 0.930 . S
C774 H768 0.930 . S
C774 C775 1.355 . S
C774 C776 1.415 . S
C775 C774 1.355 . S
C775 C777 1.419 . S
C776 C774 1.415 . S
C776 C781 1.425 . S
C776 C783 1.409 . S
C777 H769 0.930 . S
C777 C775 1.419 . S
C777 C778 1.362 . S
C778 H770 0.930 . S
C778 C777 1.362 . S
C778 C781 1.409 . S
C779 H771 0.930 . S
C779 C780 1.355 1_556 S
C779 C781 1.415 . S
C780 C779 1.355 1_554 S
C780 C782 1.419 1_554 S
C781 C776 1.425 . S
C781 C778 1.409 . S
C781 C779 1.415 . S
C782 H772 0.930 1_556 S
C782 C780 1.419 1_556 S
C782 C783 1.362 . S
C783 H773 0.930 . S
C783 C776 1.409 . S
C783 C782 1.362 . S
H784 C790 0.930 1_545 S
H785 C793 0.930 . S
H786 C794 0.930 . S
H787 C795 0.930 . S
H788 C798 0.930 . S
H789 C799 0.930 . S
C790 H784 0.930 1_565 S
C790 C791 1.355 . S
C790 C792 1.415 . S
C791 C790 1.355 . S
C791 C793 1.419 . S
C792 C790 1.415 . S
C792 C797 1.425 . S
C792 C799 1.409 . S
C793 H785 0.930 . S
C793 C791 1.419 . S
C793 C794 1.362 . S
C794 H786 0.930 . S
C794 C793 1.362 . S
C794 C797 1.409 . S
C795 H787 0.930 . S
C795 C796 1.355 . S
C795 C797 1.415 . S
C796 C795 1.355 . S
C796 C798 1.419 . S
C797 C792 1.425 . S
C797 C794 1.409 . S
C797 C795 1.415 . S
C798 H788 0.930 . S
C798 C796 1.419 . S
C798 C799 1.362 . S
C799 H789 0.930 . S
C799 C792 1.409 . S
C799 C798 1.362 . S
H800 C806 0.930 . S
H801 C809 0.930 . S
H802 C810 0.930 . S
H803 C811 0.930 . S
H804 C814 0.930 . S
H805 C815 0.930 . S
C806 H800 0.930 . S
C806 C807 1.355 . S
C806 C808 1.415 . S
C807 C806 1.355 . S
C807 C809 1.419 . S
C808 C806 1.415 . S
C808 C813 1.425 . S
C808 C815 1.409 . S
C809 H801 0.930 . S
C809 C807 1.419 . S
C809 C810 1.362 . S
C810 H802 0.930 . S
C810 C809 1.362 . S
C810 C813 1.409 . S
C811 H803 0.930 . S
C811 C812 1.355 . S
C811 C813 1.415 . S
C812 C811 1.355 . S
C812 C814 1.419 . S
C813 C808 1.425 . S
C813 C810 1.409 . S
C813 C811 1.415 . S
C814 H804 0.930 . S
C814 C812 1.419 . S
C814 C815 1.362 . S
C815 H805 0.930 . S
C815 C808 1.409 . S
C815 C814 1.362 . S
H816 C822 0.930 . S
H817 C825 0.930 . S
H818 C826 0.930 . S
H819 C827 0.930 . S
H820 C830 0.930 . S
H821 C831 0.930 . S
C822 H816 0.930 . S
C822 C823 1.355 . S
C822 C824 1.415 . S
C823 C822 1.355 . S
C823 C825 1.419 . S
C824 C822 1.415 . S
C824 C829 1.425 . S
C824 C831 1.409 . S
C825 H817 0.930 . S
C825 C823 1.419 . S
C825 C826 1.362 . S
C826 H818 0.930 . S
C826 C825 1.362 . S
C826 C829 1.409 . S
C827 H819 0.930 . S
C827 C828 1.355 . S
C827 C829 1.415 . S
C828 C827 1.355 . S
C828 C830 1.419 . S
C829 C824 1.425 . S
C829 C826 1.409 . S
C829 C827 1.415 . S
C830 H820 0.930 . S
C830 C828 1.419 . S
C830 C831 1.362 . S
C831 H821 0.930 . S
C831 C824 1.409 . S
C831 C830 1.362 . S
H832 C838 0.930 . S
H833 C841 0.930 . S
H834 C842 0.930 . S
H835 C843 0.930 . S
H836 C846 0.930 . S
H837 C847 0.930 . S
C838 H832 0.930 . S
C838 C839 1.355 . S
C838 C840 1.415 . S
C839 C838 1.355 . S
C839 C841 1.419 . S
C840 C838 1.415 . S
C840 C845 1.425 . S
C840 C847 1.409 . S
C841 H833 0.930 . S
C841 C839 1.419 . S
C841 C842 1.362 . S
C842 H834 0.930 . S
C842 C841 1.362 . S
C842 C845 1.409 . S
C843 H835 0.930 . S
C843 C844 1.355 . S
C843 C845 1.415 . S
C844 C843 1.355 . S
C844 C846 1.419 . S
C845 C840 1.425 . S
C845 C842 1.409 . S
C845 C843 1.415 . S
C846 H836 0.930 . S
C846 C844 1.419 . S
C846 C847 1.362 . S
C847 H837 0.930 . S
C847 C840 1.409 . S
C847 C846 1.362 . S
H848 C854 0.930 . S
H849 C857 0.930 . S
H850 C858 0.930 . S
H851 C859 0.930 . S
H852 C862 0.930 . S
H853 C863 0.930 . S
C854 H848 0.930 . S
C854 C855 1.355 . S
C854 C856 1.415 . S
C855 C854 1.355 . S
C855 C857 1.419 . S
C856 C854 1.415 . S
C856 C861 1.425 . S
C856 C863 1.409 . S
C857 H849 0.930 . S
C857 C855 1.419 . S
C857 C858 1.362 . S
C858 H850 0.930 . S
C858 C857 1.362 . S
C858 C861 1.409 . S
C859 H851 0.930 . S
C859 C860 1.355 . S
C859 C861 1.415 . S
C860 C859 1.355 . S
C860 C862 1.419 . S
C861 C856 1.425 . S
C861 C858 1.409 . S
C861 C859 1.415 . S
C862 H852 0.930 . S
C862 C860 1.419 . S
C862 C863 1.362 . S
C863 H853 0.930 . S
C863 C856 1.409 . S
C863 C862 1.362 . S
H864 C870 0.930 . S
H865 C873 0.930 . S
H866 C874 0.930 . S
H867 C875 0.930 . S
H868 C878 0.930 . S
H869 C879 0.930 . S
C870 H864 0.930 . S
C870 C871 1.355 . S
C870 C872 1.415 . S
C871 C870 1.355 . S
C871 C873 1.419 . S
C872 C870 1.415 . S
C872 C877 1.425 . S
C872 C879 1.409 . S
C873 H865 0.930 . S
C873 C871 1.419 . S
C873 C874 1.362 . S
C874 H866 0.930 . S
C874 C873 1.362 . S
C874 C877 1.409 . S
C875 H867 0.930 . S
C875 C876 1.355 . S
C875 C877 1.415 . S
C876 C875 1.355 . S
C876 C878 1.419 . S
C877 C872 1.425 . S
C877 C874 1.409 . S
C877 C875 1.415 . S
C878 H868 0.930 . S
C878 C876 1.419 . S
C878 C879 1.362 . S
C879 H869 0.930 . S
C879 C872 1.409 . S
C879 C878 1.362 . S
H880 C886 0.930 . S
H881 C889 0.930 . S
H882 C890 0.930 . S
H883 C891 0.930 . S
H884 C894 0.930 . S
H885 C895 0.937 . S
C886 H880 0.930 . S
C886 C887 1.355 . S
C886 C888 1.415 . S
C887 C886 1.355 . S
C887 C889 1.419 . S
C888 C886 1.415 . S
C888 C893 1.425 . S
C888 C895 1.425 . S
C889 H881 0.930 . S
C889 C887 1.419 . S
C889 C890 1.362 . S
C890 H882 0.930 . S
C890 C889 1.362 . S
C890 C893 1.409 . S
C891 H883 0.930 . S
C891 C892 1.355 . S
C891 C893 1.415 1_556 S
C892 C891 1.355 . S
C892 C894 1.419 . S
C893 C888 1.425 . S
C893 C890 1.409 . S
C893 C891 1.415 1_554 S
C894 H884 0.930 . S
C894 C892 1.419 . S
C894 C895 1.340 1_556 S
C895 H885 0.937 . S
C895 C888 1.425 . S
C895 C894 1.340 1_554 S
H896 C902 0.930 . S
H897 C905 0.930 . S
H898 C906 0.930 . S
H899 C907 0.930 . S
H900 C910 0.930 . S
H901 C911 0.930 . S
C902 H896 0.930 . S
C902 C903 1.355 . S
C902 C904 1.415 . S
C903 C902 1.355 . S
C903 C905 1.419 . S
C904 C902 1.415 . S
C904 C909 1.425 . S
C904 C911 1.409 . S
C905 H897 0.930 . S
C905 C903 1.419 . S
C905 C906 1.362 . S
C906 H898 0.930 . S
C906 C905 1.362 . S
C906 C909 1.409 . S
C907 H899 0.930 . S
C907 C908 1.355 . S
C907 C909 1.415 . S
C908 C907 1.355 . S
C908 C910 1.419 . S
C909 C904 1.425 . S
C909 C906 1.409 . S
C909 C907 1.415 . S
C910 H900 0.930 . S
C910 C908 1.419 . S
C910 C911 1.362 . S
C911 H901 0.930 . S
C911 C904 1.409 . S
C911 C910 1.362 . S
C540 C521 1.359 . S
C535 C51 1.310 . S
C551 C125 1.396 . S
C556 C455 1.378 . S
C567 C217 2.386 . S
C572 C469 2.374 . S
C583 C291 1.460 . S
C588 C483 1.414 . S
C604 C497 0.921 . S
C599 C347 0.927 . S
C615 C421 0.887 . S
C620 C507 0.872 . S
C631 C143 2.291 . S
C636 C465 2.297 . S
C647 C199 1.588 . S
C652 C479 1.623 . S
C663 C273 0.537 . S
C668 C493 0.548 . S
C684 C511 1.587 . S
C679 C365 1.591 . S
C700 C525 1.763 . S
C695 C439 1.843 . S
C716 C451 2.372 . S
C711 C69 2.329 . S
C727 C63 1.500 . S
C732 C466 1.546 . S
C743 C137 1.708 . S
C748 C480 1.741 . S
C764 C494 1.437 . S
C759 C187 1.408 . S
C775 C261 1.460 . S
C780 C513 1.515 . S
C796 C527 1.412 . S
C791 C359 1.380 . S
C812 C452 1.109 . S
C807 C433 1.040 . S
C828 C522 1.676 . S
C823 C113 1.665 . S
C839 C211 1.220 . S
C844 C457 1.241 . S
C860 C471 1.513 . S
C855 C285 1.434 . S
C871 C335 1.400 . S
C876 C485 1.389 . S
C887 C409 1.309 . S
C892 C499 1.391 . S
C903 C39 1.649 . S
C908 C508 1.622 . S
