# Generated by pormake.
# Topology llk, (3,12)-cn, num edge types: 1
# Building blocks:
#     Node 0, Type 0, BuildingBlock: BETDIP_clean_linker_0, # of connection points: 3
#     Node 1, Type 0, BuildingBlock: BETDIP_clean_linker_0, # of connection points: 3
#     Node 2, Type 0, BuildingBlock: BETDIP_clean_linker_0, # of connection points: 3
#     Node 3, Type 0, BuildingBlock: BETDIP_clean_linker_0, # of connection points: 3
#     Node 4, Type 0, BuildingBlock: BETDIP_clean_linker_0, # of connection points: 3
#     Node 5, Type 0, BuildingBlock: BETDIP_clean_linker_0, # of connection points: 3
#     Node 6, Type 0, BuildingBlock: BETDIP_clean_linker_0, # of connection points: 3
#     Node 7, Type 0, BuildingBlock: BETDIP_clean_linker_0, # of connection points: 3
#     Node 8, Type 0, BuildingBlock: BETDIP_clean_linker_0, # of connection points: 3
#     Node 9, Type 0, BuildingBlock: BETDIP_clean_linker_0, # of connection points: 3
#     Node 10, Type 0, BuildingBlock: BETDIP_clean_linker_0, # of connection points: 3
#     Node 11, Type 0, BuildingBlock: BETDIP_clean_linker_0, # of connection points: 3
#     Node 12, Type 0, BuildingBlock: BETDIP_clean_linker_0, # of connection points: 3
#     Node 13, Type 0, BuildingBlock: BETDIP_clean_linker_0, # of connection points: 3
#     Node 14, Type 0, BuildingBlock: BETDIP_clean_linker_0, # of connection points: 3
#     Node 15, Type 0, BuildingBlock: BETDIP_clean_linker_0, # of connection points: 3
#     Node 16, Type 0, BuildingBlock: BETDIP_clean_linker_0, # of connection points: 3
#     Node 17, Type 0, BuildingBlock: BETDIP_clean_linker_0, # of connection points: 3
#     Node 18, Type 0, BuildingBlock: BETDIP_clean_linker_0, # of connection points: 3
#     Node 19, Type 0, BuildingBlock: BETDIP_clean_linker_0, # of connection points: 3
#     Node 20, Type 0, BuildingBlock: BETDIP_clean_linker_0, # of connection points: 3
#     Node 21, Type 0, BuildingBlock: BETDIP_clean_linker_0, # of connection points: 3
#     Node 22, Type 0, BuildingBlock: BETDIP_clean_linker_0, # of connection points: 3
#     Node 23, Type 0, BuildingBlock: BETDIP_clean_linker_0, # of connection points: 3
#     Node 24, Type 1, BuildingBlock: QEWDON_clean_sbu_0, # of connection points: 12
#     Node 25, Type 1, BuildingBlock: QEWDON_clean_sbu_0, # of connection points: 12
#     Node 26, Type 1, BuildingBlock: QEWDON_clean_sbu_0, # of connection points: 12
#     Node 27, Type 1, BuildingBlock: QEWDON_clean_sbu_0, # of connection points: 12
#     Node 28, Type 1, BuildingBlock: QEWDON_clean_sbu_0, # of connection points: 12
#     Node 29, Type 1, BuildingBlock: QEWDON_clean_sbu_0, # of connection points: 12
#     Edge 30, Type (0, 1), BuildingBlock: UVAHIK_clean_linker_0, # of connection points: 2
#     Edge 31, Type (0, 1), BuildingBlock: UVAHIK_clean_linker_0, # of connection points: 2
#     Edge 32, Type (0, 1), BuildingBlock: UVAHIK_clean_linker_0, # of connection points: 2
#     Edge 33, Type (0, 1), BuildingBlock: UVAHIK_clean_linker_0, # of connection points: 2
#     Edge 34, Type (0, 1), BuildingBlock: UVAHIK_clean_linker_0, # of connection points: 2
#     Edge 35, Type (0, 1), BuildingBlock: UVAHIK_clean_linker_0, # of connection points: 2
#     Edge 36, Type (0, 1), BuildingBlock: UVAHIK_clean_linker_0, # of connection points: 2
#     Edge 37, Type (0, 1), BuildingBlock: UVAHIK_clean_linker_0, # of connection points: 2
#     Edge 38, Type (0, 1), BuildingBlock: UVAHIK_clean_linker_0, # of connection points: 2
#     Edge 39, Type (0, 1), BuildingBlock: UVAHIK_clean_linker_0, # of connection points: 2
#     Edge 40, Type (0, 1), BuildingBlock: UVAHIK_clean_linker_0, # of connection points: 2
#     Edge 41, Type (0, 1), BuildingBlock: UVAHIK_clean_linker_0, # of connection points: 2
#     Edge 42, Type (0, 1), BuildingBlock: UVAHIK_clean_linker_0, # of connection points: 2
#     Edge 43, Type (0, 1), BuildingBlock: UVAHIK_clean_linker_0, # of connection points: 2
#     Edge 44, Type (0, 1), BuildingBlock: UVAHIK_clean_linker_0, # of connection points: 2
#     Edge 45, Type (0, 1), BuildingBlock: UVAHIK_clean_linker_0, # of connection points: 2
#     Edge 46, Type (0, 1), BuildingBlock: UVAHIK_clean_linker_0, # of connection points: 2
#     Edge 47, Type (0, 1), BuildingBlock: UVAHIK_clean_linker_0, # of connection points: 2
#     Edge 48, Type (0, 1), BuildingBlock: UVAHIK_clean_linker_0, # of connection points: 2
#     Edge 49, Type (0, 1), BuildingBlock: UVAHIK_clean_linker_0, # of connection points: 2
#     Edge 50, Type (0, 1), BuildingBlock: UVAHIK_clean_linker_0, # of connection points: 2
#     Edge 51, Type (0, 1), BuildingBlock: UVAHIK_clean_linker_0, # of connection points: 2
#     Edge 52, Type (0, 1), BuildingBlock: UVAHIK_clean_linker_0, # of connection points: 2
#     Edge 53, Type (0, 1), BuildingBlock: UVAHIK_clean_linker_0, # of connection points: 2
#     Edge 54, Type (0, 1), BuildingBlock: UVAHIK_clean_linker_0, # of connection points: 2
#     Edge 55, Type (0, 1), BuildingBlock: UVAHIK_clean_linker_0, # of connection points: 2
#     Edge 56, Type (0, 1), BuildingBlock: UVAHIK_clean_linker_0, # of connection points: 2
#     Edge 57, Type (0, 1), BuildingBlock: UVAHIK_clean_linker_0, # of connection points: 2
#     Edge 58, Type (0, 1), BuildingBlock: UVAHIK_clean_linker_0, # of connection points: 2
#     Edge 59, Type (0, 1), BuildingBlock: UVAHIK_clean_linker_0, # of connection points: 2
#     Edge 60, Type (0, 1), BuildingBlock: UVAHIK_clean_linker_0, # of connection points: 2
#     Edge 61, Type (0, 1), BuildingBlock: UVAHIK_clean_linker_0, # of connection points: 2
#     Edge 62, Type (0, 1), BuildingBlock: UVAHIK_clean_linker_0, # of connection points: 2
#     Edge 63, Type (0, 1), BuildingBlock: UVAHIK_clean_linker_0, # of connection points: 2
#     Edge 64, Type (0, 1), BuildingBlock: UVAHIK_clean_linker_0, # of connection points: 2
#     Edge 65, Type (0, 1), BuildingBlock: UVAHIK_clean_linker_0, # of connection points: 2
#     Edge 66, Type (0, 1), BuildingBlock: UVAHIK_clean_linker_0, # of connection points: 2
#     Edge 67, Type (0, 1), BuildingBlock: UVAHIK_clean_linker_0, # of connection points: 2
#     Edge 68, Type (0, 1), BuildingBlock: UVAHIK_clean_linker_0, # of connection points: 2
#     Edge 69, Type (0, 1), BuildingBlock: UVAHIK_clean_linker_0, # of connection points: 2
#     Edge 70, Type (0, 1), BuildingBlock: UVAHIK_clean_linker_0, # of connection points: 2
#     Edge 71, Type (0, 1), BuildingBlock: UVAHIK_clean_linker_0, # of connection points: 2
#     Edge 72, Type (0, 1), BuildingBlock: UVAHIK_clean_linker_0, # of connection points: 2
#     Edge 73, Type (0, 1), BuildingBlock: UVAHIK_clean_linker_0, # of connection points: 2
#     Edge 74, Type (0, 1), BuildingBlock: UVAHIK_clean_linker_0, # of connection points: 2
#     Edge 75, Type (0, 1), BuildingBlock: UVAHIK_clean_linker_0, # of connection points: 2
#     Edge 76, Type (0, 1), BuildingBlock: UVAHIK_clean_linker_0, # of connection points: 2
#     Edge 77, Type (0, 1), BuildingBlock: UVAHIK_clean_linker_0, # of connection points: 2
#     Edge 78, Type (0, 1), BuildingBlock: UVAHIK_clean_linker_0, # of connection points: 2
#     Edge 79, Type (0, 1), BuildingBlock: UVAHIK_clean_linker_0, # of connection points: 2
#     Edge 80, Type (0, 1), BuildingBlock: UVAHIK_clean_linker_0, # of connection points: 2
#     Edge 81, Type (0, 1), BuildingBlock: UVAHIK_clean_linker_0, # of connection points: 2
#     Edge 82, Type (0, 1), BuildingBlock: UVAHIK_clean_linker_0, # of connection points: 2
#     Edge 83, Type (0, 1), BuildingBlock: UVAHIK_clean_linker_0, # of connection points: 2
#     Edge 84, Type (0, 1), BuildingBlock: UVAHIK_clean_linker_0, # of connection points: 2
#     Edge 85, Type (0, 1), BuildingBlock: UVAHIK_clean_linker_0, # of connection points: 2
#     Edge 86, Type (0, 1), BuildingBlock: UVAHIK_clean_linker_0, # of connection points: 2
#     Edge 87, Type (0, 1), BuildingBlock: UVAHIK_clean_linker_0, # of connection points: 2
#     Edge 88, Type (0, 1), BuildingBlock: UVAHIK_clean_linker_0, # of connection points: 2
#     Edge 89, Type (0, 1), BuildingBlock: UVAHIK_clean_linker_0, # of connection points: 2
#     Edge 90, Type (0, 1), BuildingBlock: UVAHIK_clean_linker_0, # of connection points: 2
#     Edge 91, Type (0, 1), BuildingBlock: UVAHIK_clean_linker_0, # of connection points: 2
#     Edge 92, Type (0, 1), BuildingBlock: UVAHIK_clean_linker_0, # of connection points: 2
#     Edge 93, Type (0, 1), BuildingBlock: UVAHIK_clean_linker_0, # of connection points: 2
#     Edge 94, Type (0, 1), BuildingBlock: UVAHIK_clean_linker_0, # of connection points: 2
#     Edge 95, Type (0, 1), BuildingBlock: UVAHIK_clean_linker_0, # of connection points: 2
#     Edge 96, Type (0, 1), BuildingBlock: UVAHIK_clean_linker_0, # of connection points: 2
#     Edge 97, Type (0, 1), BuildingBlock: UVAHIK_clean_linker_0, # of connection points: 2
#     Edge 98, Type (0, 1), BuildingBlock: UVAHIK_clean_linker_0, # of connection points: 2
#     Edge 99, Type (0, 1), BuildingBlock: UVAHIK_clean_linker_0, # of connection points: 2
#     Edge 100, Type (0, 1), BuildingBlock: UVAHIK_clean_linker_0, # of connection points: 2
#     Edge 101, Type (0, 1), BuildingBlock: UVAHIK_clean_linker_0, # of connection points: 2
# Relax obj value: 0.096
# Max RMSD: 0.184
# Mean RMSD: 0.145
data_MOF--net-llk--node1-QEWDON_clean_sbu_0--node2-BETDIP_clean_linker_0--edge1-UVAHIK_clean_linker_0
_symmetry_space_group_name_H-M    P1
_symmetry_Int_Tables_number       1
_symmetry_cell_setting            triclinic
loop_
_symmetry_equiv_pos_as_xyz
'x, y, z'
_cell_length_a     58.448823
_cell_length_b     60.806556
_cell_length_c     60.297066
_cell_angle_alpha  90.063213
_cell_angle_beta   90.006477
_cell_angle_gamma 89.649316
loop_
_atom_site_label
_atom_site_type_symbol
_atom_site_fract_x
_atom_site_fract_y
_atom_site_fract_z
_atom_type_partial_charge
H0 H 0.02981 0.26298 0.23175 0.0
H1 H 0.02968 0.27282 0.30253 0.0
H2 H 0.02275 0.32818 0.25884 0.0
H3 H 0.06515 0.24628 0.29021 0.0
C4 C 0.05099 0.23532 0.28657 0.0
C5 C 0.02827 0.27383 0.24594 0.0
C6 C 0.02596 0.29668 0.24281 0.0
C7 C 0.03017 0.26525 0.26755 0.0
C8 C 0.02866 0.2795 0.2859 0.0
C9 C 0.02551 0.30216 0.28291 0.0
C10 C 0.02432 0.31057 0.26133 0.0
N11 N 0.03421 0.24243 0.271 0.0
H12 H 0.79185 0.04353 0.23607 0.0
H13 H 0.71937 0.03081 0.23668 0.0
H14 H 0.75302 0.0506 0.2964 0.0
H15 H 0.74125 -0.00033 0.21036 0.0
C16 C 0.74223 0.01529 0.20168 0.0
C17 C 0.77559 0.0435 0.24472 0.0
C18 C 0.77468 0.04838 0.26747 0.0
C19 C 0.75567 0.03728 0.23344 0.0
C20 C 0.73482 0.03603 0.24503 0.0
C21 C 0.73388 0.0412 0.26758 0.0
C22 C 0.75367 0.04773 0.27863 0.0
N23 N 0.75683 0.03156 0.21066 0.0
H24 H 0.00581 0.79383 0.25635 0.0
H25 H 0.01658 0.72432 0.26566 0.0
H26 H 0.01354 0.76735 0.32209 0.0
H27 H 0.04486 0.74179 0.23151 0.0
C28 C 0.02776 0.7422 0.22438 0.0
C29 C 0.00858 0.77994 0.26728 0.0
C30 C 0.00921 0.78307 0.2904 0.0
C31 C 0.01169 0.75875 0.25833 0.0
C32 C 0.01501 0.74071 0.27258 0.0
C33 C 0.01514 0.74363 0.29563 0.0
C34 C 0.01267 0.76488 0.30429 0.0
N35 N 0.01082 0.7553 0.23505 0.0
H36 H 0.2281 0.99831 0.23485 0.0
H37 H 0.29911 0.00696 0.25176 0.0
H38 H 0.25045 0.99167 0.30258 0.0
H39 H 0.28632 0.03789 0.22253 0.0
C40 C 0.28512 0.0234 0.212 0.0
C41 C 0.24171 0.99809 0.24706 0.0
C42 C 0.23668 0.99419 0.26949 0.0
C43 C 0.26424 0.00263 0.24057 0.0
C44 C 0.2817 0.00326 0.25661 0.0
C45 C 0.27682 -0.00106 0.27889 0.0
C46 C 0.25439 0.99411 0.28517 0.0
N47 N 0.26933 0.00679 0.21798 0.0
H48 H 0.98515 0.76254 0.78685 0.0
H49 H 0.97781 0.75729 0.71615 0.0
H50 H 0.98334 0.69873 0.75567 0.0
H51 H 0.0169 0.79193 0.74866 0.0
C52 C 0.00022 0.79758 0.74296 0.0
C53 C 0.98387 0.75238 0.77213 0.0
C54 C 0.98429 0.72927 0.77391 0.0
C55 C 0.98158 0.76236 0.75121 0.0
C56 C 0.97981 0.74937 0.73214 0.0
C57 C 0.98008 0.72638 0.73364 0.0
C58 C 0.9824 0.71651 0.75454 0.0
N59 N 0.98052 0.78551 0.74902 0.0
H60 H 0.22188 0.00379 0.77273 0.0
H61 H 0.29504 0.9974 0.77959 0.0
H62 H 0.26611 0.017 0.71727 0.0
H63 H 0.26672 0.95962 0.80137 0.0
C64 C 0.26795 0.97538 0.8098 0.0
C65 C 0.23892 0.00526 0.76581 0.0
C66 C 0.2418 0.01136 0.74354 0.0
C67 C 0.25809 0.00016 0.77888 0.0
C68 C 0.28014 0.00145 0.76967 0.0
C69 C 0.28298 0.00779 0.74758 0.0
C70 C 0.26386 0.01281 0.73463 0.0
N71 N 0.25512 0.99328 0.80113 0.0
H72 H 0.0061 0.24104 0.75803 0.0
H73 H 0.00885 0.31093 0.74781 0.0
H74 H -0.00171 0.26778 0.69234 0.0
H75 H 0.04272 0.3003 0.77416 0.0
C76 C 0.02908 0.29579 0.78552 0.0
C77 C 0.00521 0.25505 0.74697 0.0
C78 C 0.00115 0.2519 0.72413 0.0
C79 C 0.00849 0.27639 0.75545 0.0
C80 C 0.00718 0.2945 0.74106 0.0
C81 C 0.00329 0.29164 0.71828 0.0
C82 C 0.0004 0.27027 0.71003 0.0
N83 N 0.01291 0.2798 0.77843 0.0
H84 H 0.7669 0.03534 0.81408 0.0
H85 H 0.78047 0.03587 0.74393 0.0
H86 H 0.71108 0.03535 0.76758 0.0
H87 H 0.81104 0.06947 0.77855 0.0
C88 C 0.8142 0.05229 0.77453 0.0
C89 C 0.76072 0.03511 0.79712 0.0
C90 C 0.73721 0.03567 0.7928 0.0
C91 C 0.77634 0.0357 0.77961 0.0
C92 C 0.76841 0.03583 0.75757 0.0
C93 C 0.74487 0.03504 0.75319 0.0
C94 C 0.72933 0.0353 0.77087 0.0
N95 N 0.8 0.03629 0.78437 0.0
H96 H 0.20739 0.2632 0.02182 0.0
H97 H 0.28097 0.26305 0.02352 0.0
H98 H 0.24435 0.32361 0.01304 0.0
H99 H 0.25934 0.23307 0.05809 0.0
C100 C 0.25883 0.22694 0.04115 0.0
C101 C 0.22341 0.27202 0.02077 0.0
C102 C 0.22339 0.29485 0.01738 0.0
C103 C 0.24411 0.26055 0.02314 0.0
C104 C 0.26493 0.27195 0.022 0.0
C105 C 0.2651 0.29462 0.01789 0.0
C106 C 0.24428 0.30595 0.01557 0.0
N107 N 0.24396 0.23743 0.02588 0.0
H108 H 0.19682 0.77805 0.00901 0.0
H109 H 0.27023 0.77163 0.01005 0.0
H110 H 0.22813 0.71488 0.02059 0.0
H111 H 0.24223 0.80621 0.04195 0.0
C112 C 0.24404 0.81289 0.02532 0.0
C113 C 0.21201 0.76788 0.01065 0.0
C114 C 0.21005 0.74534 0.01507 0.0
C115 C 0.23376 0.77739 0.00926 0.0
C116 C 0.25346 0.76421 0.01131 0.0
C117 C 0.25149 0.74164 0.01539 0.0
C118 C 0.22975 0.73238 0.01751 0.0
N119 N 0.236 0.8004 0.00709 0.0
H120 H 0.7968 0.23035 0.00232 0.0
H121 H 0.79065 0.30077 -0.00154 0.0
H122 H 0.73028 0.26107 0.00444 0.0
H123 H 0.82211 0.2782 0.96396 0.0
C124 C 0.83053 0.27856 0.98003 0.0
C125 C 0.78621 0.24504 0.00214 0.0
C126 C 0.76234 0.24335 0.00355 0.0
C127 C 0.79637 0.26572 -4e-05 0.0
C128 C 0.78269 0.28477 -0.00013 0.0
C129 C 0.75885 0.28321 0.00161 0.0
C130 C 0.74874 0.26242 0.00326 0.0
N131 N 0.82041 0.26742 -0.00184 0.0
H132 H 0.78037 0.80285 0.98711 0.0
H133 H 0.77607 0.7326 0.9945 0.0
H134 H 0.71692 0.77323 0.00682 0.0
H135 H 0.81666 0.76627 0.01941 0.0
C136 C 0.82006 0.7601 0.00278 0.0
C137 C 0.77051 0.78836 0.99114 0.0
C138 C 0.74753 0.79038 -0.00251 0.0
C139 C 0.78088 0.76753 0.9906 0.0
C140 C 0.76802 0.74869 0.99539 0.0
C141 C 0.74489 0.75064 0.00125 0.0
C142 C 0.73491 0.77158 0.00264 0.0
N143 N 0.80439 0.76535 0.98565 0.0
H144 H 0.52156 0.76085 0.72344 0.0
H145 H 0.52782 0.77467 0.79326 0.0
H146 H 0.51986 0.82769 0.74671 0.0
H147 H 0.55669 0.7434 0.78431 0.0
C148 C 0.54192 0.73369 0.77953 0.0
C149 C 0.52203 0.77256 0.73699 0.0
C150 C 0.52021 0.79519 0.73266 0.0
C151 C 0.52509 0.7651 0.75884 0.0
C152 C 0.52601 0.78043 0.77634 0.0
C153 C 0.52373 0.80305 0.77219 0.0
C154 C 0.52089 0.81023 0.75025 0.0
N155 N 0.52673 0.74218 0.7632 0.0
H156 H 0.32314 0.53804 0.7465 0.0
H157 H 0.24955 0.53586 0.74648 0.0
H158 H 0.28614 0.53664 0.80826 0.0
H159 H 0.2711 0.56948 0.71582 0.0
C160 C 0.27322 0.55316 0.70868 0.0
C161 C 0.30713 0.53736 0.75553 0.0
C162 C 0.30708 0.53796 0.77882 0.0
C163 C 0.28636 0.53712 0.74389 0.0
C164 C 0.26557 0.53652 0.75553 0.0
C165 C 0.26548 0.53578 0.77873 0.0
C166 C 0.28623 0.53677 0.79027 0.0
N167 N 0.28629 0.53727 0.72043 0.0
H168 H 0.47848 0.29799 0.75157 0.0
H169 H 0.48302 0.22776 0.7589 0.0
H170 H 0.47472 0.26862 0.8165 0.0
H171 H 0.51767 0.24622 0.72957 0.0
C172 C 0.50158 0.24689 0.72052 0.0
C173 C 0.47837 0.28358 0.76211 0.0
C174 C 0.47606 0.28589 0.78528 0.0
C175 C 0.48102 0.26255 0.75263 0.0
C176 C 0.48123 0.24392 0.76632 0.0
C177 C 0.47857 0.24595 0.78933 0.0
C178 C 0.47594 0.26695 0.79863 0.0
N179 N 0.48343 0.25989 0.72933 0.0
H180 H 0.70271 0.49366 0.75632 0.0
H181 H 0.77528 0.50157 0.76495 0.0
H182 H 0.73121 0.49795 0.82192 0.0
H183 H 0.74818 0.53384 0.73241 0.0
C184 C 0.75257 0.51785 0.72546 0.0
C185 C 0.71743 0.4949 0.76716 0.0
C186 C 0.7145 0.49542 0.79025 0.0
C187 C 0.73935 0.49756 0.75808 0.0
C188 C 0.75838 0.49975 0.77211 0.0
C189 C 0.75568 0.49931 0.7952 0.0
C190 C 0.73363 0.49736 0.80409 0.0
N191 N 0.74231 0.49894 0.73484 0.0
H192 H 0.48746 0.27664 0.28937 0.0
H193 H 0.49048 0.26381 0.21921 0.0
H194 H 0.48745 0.20996 0.26516 0.0
H195 H 0.52281 0.29788 0.23474 0.0
C196 C 0.50584 0.30528 0.23525 0.0
C197 C 0.48789 0.26505 0.27572 0.0
C198 C 0.48737 0.24225 0.27993 0.0
C199 C 0.48914 0.27283 0.25375 0.0
C200 C 0.48985 0.25777 0.23611 0.0
C201 C 0.48877 0.2351 0.24011 0.0
C202 C 0.48758 0.22752 0.262 0.0
N203 N 0.48896 0.29575 0.24918 0.0
H204 H 0.70213 0.5089 0.26066 0.0
H205 H 0.77536 0.51157 0.26684 0.0
H206 H 0.7446 0.50887 0.20221 0.0
H207 H 0.74668 0.47585 0.29442 0.0
C208 C 0.74668 0.4922 0.30174 0.0
C209 C 0.71886 0.5095 0.25295 0.0
C210 C 0.72094 0.50899 0.22974 0.0
C211 C 0.73849 0.51027 0.26628 0.0
C212 C 0.76024 0.511 0.25645 0.0
C213 C 0.76248 0.51062 0.23334 0.0
C214 C 0.74282 0.50954 0.2201 0.0
N215 N 0.73656 0.50971 0.28965 0.0
H216 H 0.5383 0.74201 0.26594 0.0
H217 H 0.53821 0.81199 0.255 0.0
H218 H 0.53673 0.76764 0.19947 0.0
H219 H 0.57025 0.80228 0.28501 0.0
C220 C 0.55558 0.7975 0.29497 0.0
C221 C 0.53794 0.75588 0.25468 0.0
C222 C 0.53758 0.75234 0.2316 0.0
C223 C 0.539 0.77745 0.26313 0.0
C224 C 0.53834 0.7954 0.24843 0.0
C225 C 0.53698 0.79204 0.22546 0.0
C226 C 0.53708 0.77045 0.21724 0.0
N227 N 0.54057 0.78123 0.28637 0.0
H228 H 0.2842 0.53477 0.29667 0.0
H229 H 0.29278 0.53817 0.22575 0.0
H230 H 0.22538 0.53485 0.25384 0.0
H231 H 0.32599 0.57075 0.26269 0.0
C232 C 0.32882 0.55423 0.25632 0.0
C233 C 0.27688 0.53541 0.28016 0.0
C234 C 0.25311 0.53543 0.27734 0.0
C235 C 0.29121 0.53699 0.26162 0.0
C236 C 0.28173 0.53765 0.24016 0.0
C237 C 0.25798 0.53627 0.23733 0.0
C238 C 0.2438 0.53562 0.25598 0.0
N239 N 0.3152 0.5369 0.26458 0.0
H240 H 0.73177 0.77105 0.50824 0.0
H241 H 0.80243 0.77792 0.48964 0.0
H242 H 0.76245 0.83524 0.50576 0.0
H243 H 0.78309 0.74743 0.46311 0.0
C244 C 0.78235 0.73889 0.47893 0.0
C245 C 0.74643 0.78144 0.50518 0.0
C246 C 0.74449 0.80445 0.50763 0.0
C247 C 0.76733 0.77185 0.49855 0.0
C248 C 0.78632 0.78533 0.49461 0.0
C249 C 0.78475 0.8082 0.49727 0.0
C250 C 0.76379 0.81757 0.50375 0.0
N251 N 0.76957 0.74862 0.49654 0.0
H252 H 0.72578 0.26902 0.49553 0.0
H253 H 0.79923 0.26499 0.49149 0.0
H254 H 0.75962 0.20589 0.49556 0.0
H255 H 0.77343 0.29748 0.52755 0.0
C256 C 0.77543 0.30378 0.5108 0.0
C257 C 0.74129 0.25918 0.49484 0.0
C258 C 0.74011 0.2361 0.4956 0.0
C259 C 0.76267 0.26954 0.49344 0.0
C260 C 0.7828 0.25687 0.49256 0.0
C261 C 0.78177 0.2339 0.49331 0.0
C262 C 0.76042 0.2237 0.49488 0.0
N263 N 0.7642 0.29274 0.49321 0.0
H264 H 0.26504 0.73803 0.52107 0.0
H265 H 0.25024 0.80742 0.51858 0.0
H266 H 0.19587 0.76122 0.52911 0.0
H267 H 0.27889 0.79647 0.48565 0.0
C268 C 0.2906 0.79311 0.49927 0.0
C269 C 0.25289 0.75151 0.5223 0.0
C270 C 0.2295 0.74719 0.52548 0.0
C271 C 0.26041 0.7733 0.51978 0.0
C272 C 0.24445 0.79066 0.52078 0.0
C273 C 0.22112 0.7865 0.52414 0.0
C274 C 0.21387 0.7647 0.52667 0.0
N275 N 0.28391 0.77779 0.51583 0.0
H276 H 0.26327 0.29234 0.51633 0.0
H277 H 0.25595 0.22316 0.52934 0.0
H278 H 0.19622 0.2638 0.52141 0.0
H279 H 0.2897 0.23745 0.5541 0.0
C280 C 0.29756 0.24001 0.53796 0.0
C281 C 0.25245 0.27821 0.5191 0.0
C282 C 0.22846 0.28057 0.51867 0.0
C283 C 0.26242 0.25749 0.52316 0.0
C284 C 0.24829 0.23918 0.52654 0.0
C285 C 0.2244 0.24129 0.52588 0.0
C286 C 0.21468 0.26205 0.52206 0.0
N287 N 0.28662 0.2548 0.52303 0.0
Zn288 Zn 0.96197 0.99341 0.46557 0.0
Zn289 Zn 0.96251 0.04687 0.47011 0.0
O290 O 0.98238 0.01978 0.46975 0.0
H291 H -0.00119 0.01874 0.46897 0.0
C292 C 0.94859 0.97638 0.51232 0.0
O293 O 0.94019 0.99607 0.5083 0.0
Zn294 Zn 0.05329 0.04898 0.54417 0.0
Zn295 Zn 0.04837 0.99607 0.54997 0.0
O296 O 0.03051 0.02478 0.54981 0.0
H297 H 0.01666 0.02615 0.55843 0.0
Zn298 Zn 0.97625 0.00148 0.54375 0.0
O299 O 0.98486 0.02907 0.52705 0.0
Zn300 Zn 0.97889 0.05447 0.54755 0.0
H301 H -0.00546 0.02947 0.51409 0.0
Zn302 Zn 0.03811 0.99242 0.46754 0.0
O303 O 0.03807 0.02023 0.48567 0.0
H304 H 0.03204 0.02097 0.50056 0.0
Zn305 Zn 0.04144 0.04492 0.46398 0.0
C306 C 0.06464 0.96652 0.49891 0.0
O307 O 0.07064 0.9863 0.50539 0.0
O308 O 0.93077 0.0028 0.45308 0.0
O309 O 0.93165 0.03921 0.45696 0.0
O310 O 0.08224 0.0022 0.55635 0.0
O311 O 0.08452 0.03869 0.55463 0.0
O312 O 0.95933 0.00796 0.57298 0.0
O313 O 0.96142 0.04449 0.57454 0.0
C314 C -0.00218 0.07105 0.44853 0.0
O315 O 0.05217 0.99735 0.43674 0.0
O316 O 0.05609 0.03371 0.43536 0.0
O317 O 0.03661 0.97175 0.57139 0.0
C318 C 0.92156 0.02169 0.45072 0.0
O319 O 0.976 0.9657 0.45052 0.0
C320 C 0.02351 0.07912 0.56555 0.0
O321 O 0.96477 0.97436 0.52626 0.0
C322 C 0.09353 0.01992 0.55866 0.0
O323 O 0.05007 0.96458 0.48339 0.0
C324 C 0.95561 0.07511 0.51134 0.0
O325 O 0.97628 0.07079 0.45114 0.0
O326 O 0.00961 0.05655 0.45857 0.0
C327 C 0.95485 0.02617 0.58256 0.0
O328 O 0.04469 0.07575 0.56238 0.0
O329 O 0.00964 0.06633 0.55585 0.0
C330 C 0.06431 0.0683 0.49907 0.0
O331 O 0.96069 0.07773 0.53166 0.0
O332 O 0.96185 0.05747 0.50173 0.0
C333 C 0.0588 0.01464 0.42678 0.0
O334 O 0.06181 0.06748 0.47812 0.0
O335 O 0.05266 0.05553 0.51127 0.0
C336 C 0.01929 0.95929 0.56979 0.0
O337 O 0.00587 0.96086 0.55239 0.0
C338 C -0.00812 0.96745 0.43623 0.0
O339 O 0.00027 0.98699 0.43196 0.0
Zn340 Zn 0.48289 0.06088 0.02415 0.0
Zn341 Zn 0.47975 0.05945 0.9706 0.0
O342 O 0.48513 0.04078 -0.00251 0.0
H343 H 0.49038 0.02573 -0.00186 0.0
C344 C 0.52995 0.07515 0.07142 0.0
O345 O 0.53674 0.05508 0.07621 0.0
Zn346 Zn 0.54034 0.97962 0.97101 0.0
Zn347 Zn 0.53957 0.98077 0.02483 0.0
O348 O 0.53317 -0.00135 -0.00274 0.0
H349 H 0.52721 0.01347 -0.00279 0.0
Zn350 Zn 0.55094 0.06627 0.02744 0.0
O351 O 0.53279 0.06442 -0.00065 0.0
Zn352 Zn 0.55575 0.05926 0.97514 0.0
H353 H 0.51868 0.0727 -0.00161 0.0
Zn354 Zn 0.47107 0.97617 0.02723 0.0
O355 O 0.48913 0.97473 -0.0013 0.0
H356 H 0.50282 0.96583 -0.00235 0.0
Zn357 Zn 0.46604 0.9798 0.97449 0.0
C358 C 0.50271 0.94992 0.05412 0.0
O359 O 0.51018 0.94459 0.03429 0.0
O360 O 0.46468 0.08875 0.01619 0.0
O361 O 0.46125 0.08663 0.97949 0.0
O362 O 0.55839 0.953 0.01769 0.0
O363 O 0.5588 0.95308 0.98077 0.0
O364 O 0.58389 0.07596 0.02102 0.0
O365 O 0.58691 0.07108 0.98456 0.0
C366 C 0.45754 0.02216 0.95073 0.0
O367 O 0.43773 0.96732 0.02153 0.0
O368 O 0.43499 0.96898 0.98475 0.0
O369 O 0.5519 0.99773 0.05196 0.0
C370 C 0.45684 0.09614 -0.00208 0.0
O371 O 0.4717 0.0466 0.05338 0.0
C372 C 0.56383 0.01674 0.95229 0.0
O373 O 0.53406 0.08302 0.05236 0.0
C374 C 0.56472 0.94463 -0.00071 0.0
O375 O 0.48621 0.96354 0.05583 0.0
C376 C 0.52353 0.07586 0.94484 0.0
O377 O 0.46141 0.04253 0.94814 0.0
O378 O 0.46644 0.01213 0.96709 0.0
C379 C 0.59546 0.07692 0.00314 0.0
O380 O 0.5594 0.99653 0.94929 0.0
O381 O 0.55537 0.02673 0.96887 0.0
C382 C 0.49715 0.96157 0.94405 0.0
O383 O 0.54507 0.07502 0.94749 0.0
O384 O 0.51122 0.06641 0.95926 0.0
C385 C 0.42626 0.96498 0.00372 0.0
O386 O 0.47571 0.96303 0.94716 0.0
O387 O 0.51007 0.97101 0.95799 0.0
C388 C 0.56511 0.01385 0.04837 0.0
O389 O 0.56889 0.01994 0.02779 0.0
C390 C 0.46049 0.02878 0.05238 0.0
O391 O 0.4578 0.01919 0.03303 0.0
Zn392 Zn 0.97096 0.49828 0.9724 0.0
Zn393 Zn 0.97243 0.551 0.9761 0.0
O394 O -0.00739 0.52458 0.97196 0.0
H395 H 0.98424 0.51094 0.97197 0.0
C396 C 0.96492 0.46398 0.02657 0.0
O397 O 0.95557 0.48245 0.01967 0.0
Zn398 Zn 0.05896 0.54295 0.04093 0.0
Zn399 Zn 0.05874 0.49012 0.04799 0.0
O400 O 0.03825 0.51689 0.04379 0.0
H401 H 0.02313 0.51616 0.03747 0.0
Zn402 Zn 0.98376 0.4951 0.05714 0.0
O403 O 0.97987 0.52056 0.03613 0.0
Zn404 Zn 0.97923 0.54668 0.0562 0.0
H405 H 0.98506 0.51993 0.02093 0.0
Zn406 Zn 0.04835 0.49652 0.96199 0.0
O407 O 0.03886 0.52285 0.98 0.0
H408 H 0.03095 0.52244 0.99406 0.0
Zn409 Zn 0.04411 0.54878 0.9603 0.0
C410 C 0.06788 0.46798 0.99588 0.0
O411 O 0.07563 0.48694 0.00308 0.0
O412 O 0.93912 0.50812 0.96151 0.0
O413 O 0.94165 0.54471 0.96208 0.0
O414 O 0.09081 0.49922 0.05841 0.0
O415 O 0.09098 0.53532 0.05221 0.0
O416 O 0.96702 0.50161 0.08644 0.0
O417 O 0.9645 0.53817 0.08584 0.0
C418 C 0.00411 0.57666 0.95044 0.0
O419 O 0.06941 0.50458 0.93592 0.0
O420 O 0.06634 0.5411 0.93532 0.0
O421 O 0.04576 0.46143 0.06222 0.0
C422 C 0.93076 0.52712 0.95755 0.0
O423 O 0.98149 0.46755 0.95989 0.0
C424 C 0.02645 0.57 0.06574 0.0
O425 O 0.97859 0.4645 0.04295 0.0
C426 C 0.10085 0.51777 0.05902 0.0
O427 O 0.05531 0.46762 0.97869 0.0
C428 C 0.95895 0.57036 0.02017 0.0
O429 O 0.98535 0.57769 0.96099 0.0
O430 O 0.01342 0.55786 0.948 0.0
C431 C 0.96048 0.51969 0.09517 0.0
O432 O 0.04733 0.56765 0.06028 0.0
O433 O 0.0122 0.55621 0.05807 0.0
C434 C 0.06119 0.5708 -0.00042 0.0
O435 O 0.96002 0.56985 0.04122 0.0
O436 O 0.97042 0.55649 0.00897 0.0
C437 C 0.07471 0.52316 0.92768 0.0
O438 O 0.05686 0.57318 0.97903 0.0
O439 O 0.05786 0.55226 0.00871 0.0
C440 C 0.03111 0.46248 0.07778 0.0
O441 O 0.02335 0.48187 0.08395 0.0
C442 C -0.00198 0.46579 0.94627 0.0
O443 O 0.00945 0.48351 0.94082 0.0
Zn444 Zn 0.47982 0.47753 0.98456 0.0
Zn445 Zn 0.47849 0.47934 0.03768 0.0
O446 O 0.48341 0.49807 0.01077 0.0
H447 H 0.48288 0.5139 0.00975 0.0
C448 C 0.51888 0.44759 0.95011 0.0
O449 O 0.50868 0.44447 0.96924 0.0
Zn450 Zn 0.54077 0.55746 0.04291 0.0
Zn451 Zn 0.53897 0.55314 0.99005 0.0
O452 O 0.52706 0.53955 0.01853 0.0
H453 H 0.5202 0.52525 0.02014 0.0
Zn454 Zn 0.55144 0.47187 0.97866 0.0
O455 O 0.53252 0.474 0.00693 0.0
Zn456 Zn 0.5552 0.47673 0.03209 0.0
H457 H 0.51732 0.46795 0.00786 0.0
Zn458 Zn 0.47088 0.56455 0.98845 0.0
O459 O 0.4915 0.56906 0.01539 0.0
H460 H 0.50448 0.57882 0.01585 0.0
Zn461 Zn 0.47016 0.56272 0.04069 0.0
C462 C 0.50057 0.58284 0.9526 0.0
O463 O 0.51526 0.58576 0.96881 0.0
O464 O 0.46095 0.4503 0.99279 0.0
O465 O 0.45954 0.45243 0.02964 0.0
O466 O 0.56233 0.57806 0.99468 0.0
O467 O 0.563 0.58023 0.03148 0.0
O468 O 0.58373 0.46044 0.98582 0.0
O469 O 0.58602 0.46377 0.02254 0.0
C470 C 0.45996 0.51816 0.06081 0.0
O471 O 0.43835 0.575 0.99575 0.0
O472 O 0.43838 0.57401 0.03262 0.0
O473 O 0.54444 0.53392 0.96217 0.0
C474 C 0.45418 0.44297 0.01145 0.0
O475 O 0.47252 0.49104 0.95374 0.0
C476 C 0.5615 0.51705 0.05978 0.0
O477 O 0.53697 0.45909 0.94956 0.0
C478 C 0.56989 0.58663 0.01249 0.0
O479 O 0.48149 0.57386 0.95677 0.0
C480 C 0.52246 0.46023 0.06266 0.0
O481 O 0.46152 0.49727 0.06036 0.0
O482 O 0.47053 0.52964 0.04648 0.0
C483 C 0.5947 0.45803 0.00393 0.0
O484 O 0.55739 0.53728 0.06345 0.0
O485 O 0.55632 0.50876 0.04104 0.0
C486 C 0.50119 0.58246 0.07261 0.0
O487 O 0.54385 0.46027 0.05894 0.0
O488 O 0.50964 0.46997 0.04868 0.0
C489 C 0.42841 0.57834 0.01426 0.0
O490 O 0.48029 0.58017 0.06739 0.0
O491 O 0.51641 0.57276 0.06107 0.0
C492 C 0.56052 0.51978 0.9627 0.0
O493 O 0.57169 0.51674 0.98137 0.0
C494 C 0.46477 0.51056 0.95223 0.0
O495 O 0.46253 0.52239 0.97035 0.0
Zn496 Zn 0.97159 0.49559 0.47446 0.0
Zn497 Zn 0.96802 0.54823 0.47591 0.0
O498 O -0.00953 0.52313 0.47686 0.0
H499 H 0.00509 0.52327 0.4843 0.0
C500 C 0.9448 0.46767 0.51766 0.0
O501 O 0.93865 0.48798 0.51305 0.0
Zn502 Zn 0.05201 0.553 0.53704 0.0
Zn503 Zn 0.05117 0.50001 0.53821 0.0
O504 O 0.03153 0.52705 0.53366 0.0
H505 H 0.01829 0.52722 0.52411 0.0
Zn506 Zn 0.97225 0.49139 0.54973 0.0
O507 O 0.9741 0.51935 0.53208 0.0
Zn508 Zn 0.97201 0.54501 0.55277 0.0
H509 H 0.97759 0.51945 0.51648 0.0
Zn510 Zn 0.0509 0.49489 0.46596 0.0
O511 O 0.0517 0.52285 0.48424 0.0
H512 H 0.05889 0.52305 0.49865 0.0
Zn513 Zn 0.04927 0.54815 0.46276 0.0
C514 C 0.08039 0.46776 0.49487 0.0
O515 O 0.08565 0.48708 0.5031 0.0
O516 O 0.93959 0.50223 0.46205 0.0
O517 O 0.9383 0.53883 0.46089 0.0
O518 O 0.08312 0.50747 0.55051 0.0
O519 O 0.08217 0.5441 0.55135 0.0
O520 O 0.95723 0.49768 0.57993 0.0
O521 O 0.95844 0.53427 0.58207 0.0
C522 C 0.00382 0.57337 0.45551 0.0
O523 O 0.06209 0.50114 0.43437 0.0
O524 O 0.06109 0.53773 0.43297 0.0
O525 O 0.0355 0.47387 0.55378 0.0
C526 C 0.92931 0.52009 0.45704 0.0
O527 O 0.9874 0.46819 0.46076 0.0
C528 C 0.01475 0.57446 0.55998 0.0
O529 O 0.95973 0.46436 0.53265 0.0
C530 C 0.09234 0.52583 0.55523 0.0
O531 O 0.06544 0.46663 0.47959 0.0
C532 C 0.94889 0.56878 0.5189 0.0
O533 O 0.98245 0.57332 0.45952 0.0
O534 O 0.01596 0.55733 0.46231 0.0
C535 C 0.95293 0.5156 0.59017 0.0
O536 O 0.03581 0.57635 0.555 0.0
O537 O 0.00423 0.55731 0.55362 0.0
C538 C 0.07064 0.57484 0.49447 0.0
O539 O 0.94998 0.56743 0.53988 0.0
O540 O 0.9623 0.55672 0.50757 0.0
C541 C 0.06554 0.51911 0.4241 0.0
O542 O 0.06975 0.57276 0.47356 0.0
O543 O 0.05737 0.56298 0.50593 0.0
C544 C 0.03654 0.47507 0.57477 0.0
O545 O 0.04655 0.49217 0.58382 0.0
C546 C 0.0026 0.47094 0.44597 0.0
O547 O 0.00859 0.49107 0.4407 0.0
Zn548 Zn 0.47463 0.00126 0.4727 0.0
Zn549 Zn 0.47216 0.05295 0.47646 0.0
O550 O 0.49406 0.02865 0.46856 0.0
H551 H 0.50512 0.02937 0.45668 0.0
C552 C 0.46193 0.95865 0.5257 0.0
O553 O 0.46332 0.97433 0.5108 0.0
Zn554 Zn 0.56017 0.05154 0.54546 0.0
Zn555 Zn 0.56213 0.99808 0.55239 0.0
O556 O 0.54154 0.02381 0.54581 0.0
H557 H 0.52656 0.02192 0.5394 0.0
Zn558 Zn 0.48337 0.99192 0.55585 0.0
O559 O 0.48171 0.0187 0.53573 0.0
Zn560 Zn 0.4809 0.04503 0.55621 0.0
H561 H 0.48638 0.01848 0.52037 0.0
Zn562 Zn 0.54929 0.00247 0.47963 0.0
O563 O 0.53328 0.0312 0.49002 0.0
H564 H 0.52285 0.03309 0.5023 0.0
Zn565 Zn 0.54113 0.05441 0.46722 0.0
C566 C 0.56386 0.95941 0.49172 0.0
O567 O 0.5525 0.95674 0.47313 0.0
O568 O 0.44183 0.00867 0.46313 0.0
O569 O 0.4417 0.0453 0.46206 0.0
O570 O 0.5936 0.00907 0.56241 0.0
O571 O 0.59232 0.04549 0.558 0.0
O572 O 0.47293 -3e-05 0.58734 0.0
O573 O 0.46843 0.03635 0.58638 0.0
C574 C 0.50189 0.08556 0.45415 0.0
O575 O 0.56501 0.00476 0.44908 0.0
O576 O 0.55984 0.04045 0.44311 0.0
O577 O 0.54856 0.97255 0.57116 0.0
C578 C 0.43195 0.02685 0.45853 0.0
O579 O 0.48642 0.97093 0.4603 0.0
C580 C 0.52286 0.07317 0.56684 0.0
O581 O 0.46979 0.96205 0.54506 0.0
C582 C 0.60285 0.02795 0.56403 0.0
O583 O 0.5644 0.97857 0.50025 0.0
C584 C 0.45954 0.07025 0.52175 0.0
O585 O 0.48357 0.08206 0.46498 0.0
O586 O 0.5152 0.06951 0.4496 0.0
C587 C 0.4669 0.01798 0.59651 0.0
O588 O 0.54426 0.07496 0.56379 0.0
O589 O 0.51292 0.05631 0.55907 0.0
C590 C 0.56808 0.07605 0.50113 0.0
O591 O 0.4617 0.06899 0.54268 0.0
O592 O 0.46908 0.05566 0.50966 0.0
C593 C 0.56781 0.02182 0.43722 0.0
O594 O 0.56221 0.07668 0.48085 0.0
O595 O 0.55914 0.06164 0.51362 0.0
C596 C 0.53933 0.95527 0.56343 0.0
O597 O 0.53756 0.95279 0.54186 0.0
C598 C 0.50422 0.96925 0.44826 0.0
O599 O 0.51635 0.98693 0.4443 0.0
C600 C 0.21515 0.20222 0.51659 0.0
C601 C 0.20954 0.2217 0.52794 0.0
C602 C 0.20025 0.18441 0.5168 0.0
C603 C 0.15026 0.16014 0.545 0.0
H604 H 0.14029 0.1337 0.4873 0.0
C605 C 0.0765 0.09935 0.52345 0.0
C606 C 0.08199 0.08262 0.5083 0.0
C607 C 0.09283 0.11521 0.52899 0.0
C608 C 0.14311 0.14065 0.50362 0.0
H609 H 0.18442 0.23739 0.5493 0.0
H610 H 0.15811 0.2063 0.5493 0.0
H611 H 0.16743 0.16347 0.49103 0.0
H612 H 0.10873 0.06831 0.48802 0.0
H613 H 0.1374 0.09547 0.49809 0.0
H614 H 0.12555 0.13724 0.55744 0.0
C615 C 0.17412 0.20482 0.54037 0.0
C616 C 0.15867 0.15773 0.50574 0.0
C617 C 0.18906 0.22268 0.54016 0.0
C618 C 0.10419 0.08117 0.4997 0.0
C619 C 0.1205 0.09679 0.50535 0.0
C620 C 0.1346 0.14291 0.54287 0.0
C621 C 0.17936 0.18567 0.5283 0.0
C622 C 0.16261 0.16755 0.52646 0.0
C623 C 0.11477 0.11445 0.51938 0.0
C624 C 0.13107 0.13285 0.52216 0.0
H625 H 0.23069 0.20099 0.50686 0.0
H626 H 0.20491 0.16974 0.5076 0.0
H627 H 0.15297 0.16741 0.56119 0.0
H628 H 0.05926 0.10098 0.52984 0.0
H629 H 0.08788 0.12871 0.53974 0.0
C630 C 0.80576 0.20306 0.5077 0.0
C631 C 0.80273 0.2202 0.49242 0.0
C632 C 0.82403 0.1884 0.50552 0.0
C633 C 0.88039 0.17983 0.47961 0.0
H634 H 0.86607 0.11864 0.49081 0.0
C635 C 0.94635 0.11456 0.50552 0.0
C636 C 0.94269 0.09249 0.49981 0.0
C637 C 0.93111 0.13088 0.49856 0.0
C638 C 0.87034 0.13556 0.48715 0.0
H639 H 0.81683 0.2361 0.46338 0.0
H640 H 0.84893 0.21024 0.45942 0.0
H641 H 0.83571 0.14604 0.49163 0.0
H642 H 0.92081 0.07021 0.48184 0.0
H643 H 0.89438 0.09875 0.46904 0.0
H644 H 0.91517 0.16922 0.47538 0.0
C645 C 0.83719 0.20824 0.47316 0.0
C646 C 0.85297 0.15133 0.48801 0.0
C647 C 0.81889 0.22303 0.47543 0.0
C648 C 0.92437 0.08715 0.48586 0.0
C649 C 0.90904 0.10347 0.4789 0.0
C650 C 0.89784 0.16399 0.47876 0.0
C651 C 0.83961 0.19047 0.48791 0.0
C652 C 0.85788 0.1737 0.48484 0.0
C653 C 0.91177 0.12539 0.48592 0.0
C654 C 0.89306 0.14174 0.48303 0.0
H655 H 0.79373 0.20077 0.52117 0.0
H656 H 0.8258 0.17526 0.51753 0.0
H657 H 0.88469 0.19694 0.47705 0.0
H658 H 0.96037 0.11905 0.51636 0.0
H659 H 0.93363 0.14753 0.50445 0.0
C660 C 0.80283 0.84263 0.48271 0.0
C661 C 0.80505 0.82235 0.49368 0.0
C662 C 0.82156 0.85663 0.48063 0.0
C663 C 0.87606 0.86916 0.50801 0.0
H664 H 0.88481 0.90715 0.45711 0.0
C665 C 0.94512 0.93547 0.50921 0.0
C666 C 0.93717 0.95657 0.50345 0.0
C667 C 0.93231 0.91686 0.50394 0.0
C668 C 0.88258 0.89664 0.47143 0.0
H669 H 0.82889 0.8006 0.51053 0.0
H670 H 0.86172 0.82482 0.5065 0.0
H671 H 0.85594 0.87828 0.45572 0.0
H672 H 0.91044 0.97453 0.48612 0.0
H673 H 0.88801 0.94211 0.47713 0.0
H674 H 0.90218 0.8878 0.52397 0.0
C675 C 0.84539 0.83004 0.49976 0.0
C676 C 0.86603 0.88014 0.47066 0.0
C677 C 0.82663 0.81606 0.50188 0.0
C678 C 0.91698 0.95853 0.49093 0.0
C679 C 0.90417 0.9399 0.48566 0.0
C680 C 0.89261 0.88559 0.50876 0.0
C681 C 0.84299 0.85065 0.48942 0.0
C682 C 0.86225 0.86651 0.48913 0.0
C683 C 0.9113 0.91894 0.49278 0.0
C684 C 0.89576 0.89981 0.49066 0.0
H685 H 0.78651 0.84782 0.47592 0.0
H686 H 0.81902 0.87246 0.47278 0.0
H687 H 0.8734 0.85921 0.52266 0.0
H688 H 0.96077 0.93335 0.51863 0.0
H689 H 0.93849 0.90088 0.50928 0.0
C690 C 0.20838 0.82462 0.53499 0.0
C691 C 0.2041 0.80472 0.52388 0.0
C692 C 0.19231 0.84175 0.53441 0.0
C693 C 0.14394 0.86236 0.50105 0.0
H694 H 0.12944 0.89709 0.55326 0.0
C695 C 0.0718 0.92598 0.49875 0.0
C696 C 0.07727 0.94695 0.50691 0.0
C697 C 0.08588 0.90796 0.50339 0.0
C698 C 0.13342 0.88759 0.53853 0.0
H699 H 0.17977 0.78732 0.50324 0.0
H700 H 0.15165 0.81694 0.50259 0.0
H701 H 0.1575 0.86714 0.55585 0.0
H702 H 0.10083 0.96515 0.52773 0.0
H703 H 0.12554 0.93365 0.53566 0.0
H704 H 0.12014 0.88277 0.48365 0.0
C705 C 0.16744 0.8194 0.51163 0.0
C706 C 0.14951 0.8705 0.54 0.0
C707 C 0.18345 0.80232 0.51222 0.0
C708 C 0.09624 0.94923 0.52106 0.0
C709 C 0.11036 0.93116 0.52568 0.0
C710 C 0.1279 0.87935 0.4996 0.0
C711 C 0.17171 0.83935 0.52261 0.0
C712 C 0.15487 0.85767 0.52126 0.0
C713 C 0.10573 0.9105 0.51627 0.0
C714 C 0.12238 0.89211 0.51832 0.0
H715 H 0.22408 0.82689 0.54422 0.0
H716 H 0.19618 0.85701 0.54287 0.0
H717 H 0.14804 0.85311 0.4862 0.0
H718 H 0.05714 0.9236 0.48805 0.0
H719 H 0.08158 0.89212 0.49633 0.0
C720 C 0.50533 0.22089 0.20455 0.0
C721 C 0.48904 0.21916 0.22153 0.0
C722 C 0.50638 0.20511 0.18772 0.0
C723 C 0.48932 0.14785 0.17522 0.0
H724 H 0.50738 0.16432 0.11571 0.0
C725 C 0.523 0.08509 0.1111 0.0
C726 C 0.51947 0.08936 0.08849 0.0
C727 C 0.51563 0.1002 0.1271 0.0
C728 C 0.50192 0.15939 0.13212 0.0
H729 H 0.46053 0.20013 0.23387 0.0
H730 H 0.46195 0.17285 0.2042 0.0
H731 H 0.50111 0.19271 0.14338 0.0
H732 H 0.50387 0.11177 0.0649 0.0
H733 H 0.49029 0.13772 0.09278 0.0
H734 H 0.48963 0.11454 0.16378 0.0
C735 C 0.47434 0.18602 0.20415 0.0
C736 C 0.4987 0.17571 0.14812 0.0
C737 C 0.47346 0.20167 0.22109 0.0
C738 C 0.50718 0.10827 0.08222 0.0
C739 C 0.49952 0.12319 0.0982 0.0
C740 C 0.49232 0.13153 0.15914 0.0
C741 C 0.49098 0.1874 0.18738 0.0
C742 C 0.49276 0.17013 0.16997 0.0
C743 C 0.50429 0.11971 0.12079 0.0
C744 C 0.49902 0.13706 0.13747 0.0
H745 H 0.51771 0.23408 0.20464 0.0
H746 H 0.51969 0.20651 0.17532 0.0
H747 H 0.48494 0.14291 0.19193 0.0
H748 H 0.53243 0.07063 0.11639 0.0
H749 H 0.51979 0.09702 0.1443 0.0
C750 C 0.79159 0.49379 0.20827 0.0
C751 C 0.78529 0.51076 0.22281 0.0
C752 C 0.8125 0.49444 0.19713 0.0
C753 C 0.86876 0.52355 0.195 0.0
H754 H 0.86888 0.50028 0.1351 0.0
C755 C 0.93741 0.53817 0.12529 0.0
C756 C 0.94515 0.51882 0.11477 0.0
C757 C 0.91997 0.53729 0.14123 0.0
C758 C 0.8691 0.50673 0.15186 0.0
H759 H 0.7958 0.54153 0.23754 0.0
H760 H 0.83202 0.54332 0.21734 0.0
H761 H 0.83407 0.49877 0.157 0.0
H762 H 0.94148 0.48327 0.11381 0.0
H763 H 0.91088 0.48198 0.1411 0.0
H764 H 0.90381 0.53236 0.18904 0.0
C765 C 0.8212 0.52913 0.21492 0.0
C766 C 0.8492 0.50572 0.16454 0.0
C767 C 0.80042 0.52822 0.22642 0.0
C768 C 0.93596 0.49853 0.12146 0.0
C769 C 0.91837 0.49773 0.13705 0.0
C770 C 0.88862 0.52494 0.18206 0.0
C771 C 0.82739 0.51238 0.19986 0.0
C772 C 0.84876 0.51387 0.18641 0.0
C773 C 0.90982 0.51712 0.14663 0.0
C774 C 0.88897 0.5163 0.16048 0.0
H775 H 0.78026 0.48002 0.20547 0.0
H776 H 0.81687 0.48088 0.18625 0.0
H777 H 0.86922 0.52979 0.21181 0.0
H778 H 0.94415 0.55404 0.12058 0.0
H779 H 0.91359 0.55246 0.14842 0.0
C780 C 0.51997 0.80976 0.1918 0.0
C781 C 0.53508 0.81088 0.20989 0.0
C782 C 0.5189 0.82675 0.17634 0.0
C783 C 0.5313 0.88506 0.16686 0.0
H784 H 0.52978 0.86718 0.10511 0.0
C785 C 0.50111 0.94096 0.09469 0.0
C786 C 0.51159 0.93823 0.07387 0.0
C787 C 0.5075 0.92766 0.11259 0.0
C788 C 0.53052 0.87252 0.12224 0.0
H789 H 0.5604 0.83112 0.22631 0.0
H790 H 0.55837 0.86106 0.19919 0.0
H791 H 0.53353 0.83947 0.13391 0.0
H792 H 0.53825 0.92065 0.05599 0.0
H793 H 0.54944 0.89759 0.08722 0.0
H794 H 0.52805 0.91821 0.15503 0.0
C795 C 0.54739 0.84692 0.19708 0.0
C796 C 0.53238 0.8566 0.13876 0.0
C797 C 0.54853 0.82981 0.21258 0.0
C798 C 0.52958 0.92294 0.07171 0.0
C799 C 0.53596 0.90967 0.08959 0.0
C800 C 0.52931 0.90106 0.15026 0.0
C801 C 0.53284 0.84535 0.17859 0.0
C802 C 0.53242 0.86263 0.16125 0.0
C803 C 0.5245 0.9114 0.11002 0.0
C804 C 0.52865 0.89492 0.12777 0.0
H805 H 0.50895 0.79567 0.18955 0.0
H806 H 0.50712 0.82531 0.16255 0.0
H807 H 0.53126 0.89017 0.18408 0.0
H808 H 0.48729 0.9527 0.09694 0.0
H809 H 0.49827 0.92934 0.12808 0.0
C810 C 0.24717 0.55115 0.2 0.0
C811 C 0.24755 0.53375 0.21523 0.0
C812 C 0.23408 0.54955 0.18059 0.0
C813 C 0.18425 0.5187 0.15916 0.0
H814 H 0.20083 0.54395 0.10239 0.0
C815 C 0.13193 0.50066 0.08177 0.0
C816 C 0.12289 0.51935 0.07109 0.0
C817 C 0.14975 0.50267 0.09699 0.0
C818 C 0.19604 0.5369 0.1182 0.0
H819 H 0.2359 0.50072 0.22191 0.0
H820 H 0.21391 0.49746 0.1878 0.0
H821 H 0.22733 0.54672 0.13382 0.0
H822 H 0.12691 0.55455 0.06665 0.0
H823 H 0.15846 0.55791 0.09314 0.0
H824 H 0.1532 0.50861 0.14355 0.0
C825 C 0.22294 0.51264 0.19095 0.0
C826 C 0.21112 0.53854 0.1362 0.0
C827 C 0.23571 0.51437 0.21036 0.0
C828 C 0.13339 0.53984 0.07465 0.0
C829 C 0.15145 0.54179 0.08979 0.0
C830 C 0.16941 0.51684 0.14119 0.0
C831 C 0.22134 0.53044 0.17613 0.0
C832 C 0.20546 0.52926 0.15686 0.0
C833 C 0.15915 0.52334 0.10169 0.0
C834 C 0.17521 0.52574 0.1205 0.0
H835 H 0.25609 0.5663 0.20362 0.0
H836 H 0.23316 0.56361 0.16961 0.0
H837 H 0.17893 0.51198 0.17495 0.0
H838 H 0.12445 0.48458 0.07934 0.0
H839 H 0.15563 0.48815 0.10575 0.0
C840 C 0.50873 0.837 0.79077 0.0
C841 C 0.52434 0.81936 0.79054 0.0
C842 C 0.50985 0.85309 0.80724 0.0
C843 C 0.53174 0.86452 0.86348 0.0
H844 H 0.51847 0.92472 0.84633 0.0
C845 C 0.52709 0.93721 0.92655 0.0
C846 C 0.50603 0.94843 0.92529 0.0
C847 C 0.53362 0.92254 0.90968 0.0
C848 C 0.52234 0.90801 0.85135 0.0
H849 H 0.5532 0.80457 0.80762 0.0
H850 H 0.55521 0.83282 0.83651 0.0
H851 H 0.52144 0.89631 0.81794 0.0
H852 H 0.47589 0.95402 0.90506 0.0
H853 H 0.48748 0.92901 0.87558 0.0
H854 H 0.53225 0.87639 0.89702 0.0
C855 C 0.542 0.83409 0.82398 0.0
C856 C 0.52388 0.89169 0.83512 0.0
C857 C 0.54083 0.8179 0.80747 0.0
C858 C 0.49219 0.94554 0.9065 0.0
C859 C 0.49888 0.9313 0.88955 0.0
C860 C 0.53034 0.88094 0.87975 0.0
C861 C 0.52667 0.85203 0.82389 0.0
C862 C 0.52788 0.86962 0.84102 0.0
C863 C 0.51943 0.91933 0.89112 0.0
C864 C 0.52495 0.90272 0.87387 0.0
H865 H 0.49554 0.83835 0.77822 0.0
H866 H 0.49735 0.86631 0.80699 0.0
H867 H 0.53477 0.84769 0.86861 0.0
H868 H 0.538 0.93906 0.94094 0.0
H869 H 0.54958 0.91352 0.91125 0.0
C870 C 0.24096 0.51538 0.80528 0.0
C871 C 0.24388 0.5334 0.79111 0.0
C872 C 0.22122 0.51357 0.81812 0.0
C873 C 0.16235 0.53652 0.82599 0.0
H874 H 0.17067 0.51273 0.88512 0.0
C875 C 0.09592 0.5434 0.89781 0.0
C876 C 0.09189 0.52388 0.90965 0.0
C877 C 0.11318 0.54422 0.88174 0.0
C878 C 0.16806 0.51925 0.86859 0.0
H879 H 0.22859 0.56345 0.77877 0.0
H880 H 0.19435 0.56091 0.80195 0.0
H881 H 0.20323 0.51495 0.86022 0.0
H882 H 0.10252 0.4898 0.91352 0.0
H883 H 0.13275 0.49143 0.88579 0.0
H884 H 0.12716 0.54151 0.83502 0.0
C885 C 0.20694 0.54781 0.80277 0.0
C886 C 0.18669 0.52042 0.85422 0.0
C887 C 0.22657 0.54938 0.78958 0.0
C888 C 0.10515 0.50512 0.90475 0.0
C889 C 0.12254 0.50604 0.88894 0.0
C890 C 0.14373 0.53565 0.84056 0.0
C891 C 0.20416 0.53001 0.81745 0.0
C892 C 0.1841 0.52891 0.83265 0.0
C893 C 0.12689 0.52564 0.87747 0.0
C894 C 0.14643 0.52687 0.86193 0.0
H895 H 0.25403 0.50273 0.80646 0.0
H896 H 0.21944 0.4993 0.82869 0.0
H897 H 0.1596 0.54291 0.80945 0.0
H898 H 0.08596 0.55811 0.90114 0.0
H899 H 0.11629 0.55956 0.87318 0.0
C900 C 0.4633 0.22371 0.821 0.0
C901 C 0.47921 0.22621 0.80374 0.0
C902 C 0.46433 0.20539 0.83495 0.0
C903 C 0.49015 0.14943 0.8398 0.0
H904 H 0.48106 0.15883 0.90282 0.0
C905 C 0.52731 0.09355 0.90783 0.0
C906 C 0.51371 0.08876 0.92639 0.0
C907 C 0.51941 0.10789 0.89147 0.0
C908 C 0.48325 0.15586 0.88523 0.0
H909 H 0.50875 0.2116 0.78762 0.0
H910 H 0.51089 0.17989 0.81215 0.0
H911 H 0.47469 0.1891 0.87706 0.0
H912 H 0.48082 0.09451 0.94192 0.0
H913 H 0.4671 0.12012 0.91345 0.0
H914 H 0.49978 0.11642 0.84825 0.0
C915 C 0.49721 0.19173 0.81463 0.0
C916 C 0.47959 0.1732 0.87043 0.0
C917 C 0.49606 0.20995 0.80059 0.0
C918 C 0.49164 0.09792 0.92783 0.0
C919 C 0.48386 0.11262 0.91161 0.0
C920 C 0.49403 0.13217 0.85463 0.0
C921 C 0.48142 0.18924 0.83205 0.0
C922 C 0.48338 0.17031 0.84756 0.0
C923 C 0.49784 0.118 0.89346 0.0
C924 C 0.49098 0.13533 0.87751 0.0
H925 H 0.44996 0.23588 0.82364 0.0
H926 H 0.45169 0.20386 0.84798 0.0
H927 H 0.49276 0.14647 0.82227 0.0
H928 H 0.54436 0.08662 0.90621 0.0
H929 H 0.53062 0.11185 0.87775 0.0
C930 C 0.7773 0.48837 0.82918 0.0
C931 C 0.77549 0.50173 0.81029 0.0
C932 C 0.79432 0.49216 0.84488 0.0
C933 C 0.84905 0.52063 0.85501 0.0
H934 H 0.82931 0.51698 0.91636 0.0
C935 C 0.90699 0.54528 0.92845 0.0
C936 C 0.90971 0.52844 0.9442 0.0
C937 C 0.88969 0.54403 0.91252 0.0
C938 C 0.83503 0.51804 0.8993 0.0
H939 H 0.79069 0.52889 0.79244 0.0
H940 H 0.8205 0.53565 0.82003 0.0
H941 H 0.80203 0.50987 0.88667 0.0
H942 H 0.89577 0.49788 0.95657 0.0
H943 H 0.86506 0.49609 0.92921 0.0
H944 H 0.8821 0.52891 0.86786 0.0
C945 C 0.8088 0.52216 0.82263 0.0
C946 C 0.8195 0.51383 0.8823 0.0
C947 C 0.79176 0.5183 0.80683 0.0
C948 C 0.89398 0.51109 0.94465 0.0
C949 C 0.87645 0.51007 0.929 0.0
C950 C 0.86457 0.52502 0.87207 0.0
C951 C 0.80987 0.50947 0.8421 0.0
C952 C 0.8264 0.51474 0.85997 0.0
C953 C 0.87458 0.52617 0.91241 0.0
C954 C 0.85773 0.52349 0.89436 0.0
H955 H 0.76525 0.4752 0.83203 0.0
H956 H 0.79509 0.48169 0.85939 0.0
H957 H 0.85493 0.5213 0.838 0.0
H958 H 0.91906 0.55871 0.92758 0.0
H959 H 0.88845 0.55671 0.89997 0.0
C960 C 0.72892 0.71496 0.988 0.0
C961 C 0.73043 0.73108 0.00459 0.0
C962 C 0.71245 0.69844 0.98942 0.0
C963 C 0.65682 0.68747 0.01661 0.0
H964 H 0.6664 0.62845 0.9939 0.0
C965 C 0.59294 0.61661 0.02993 0.0
C966 C 0.58766 0.60378 0.01122 0.0
C967 C 0.61038 0.63218 0.02901 0.0
C968 C 0.66348 0.64494 0.00014 0.0
H969 H 0.71709 0.74194 0.03628 0.0
H970 H 0.68896 0.71264 0.03929 0.0
H971 H 0.69797 0.65457 0.9936 0.0
H972 H 0.59643 0.59739 0.97682 0.0
H973 H 0.6271 0.62446 0.97536 0.0
H974 H 0.62244 0.67762 0.02352 0.0
C975 C 0.69986 0.7131 0.02478 0.0
C976 C 0.68152 0.65992 -5e-05 0.0
C977 C 0.71609 0.72975 0.0232 0.0
C978 C 0.60006 0.60702 0.99151 0.0
C979 C 0.6177 0.6224 0.9907 0.0
C980 C 0.6389 0.67242 0.01703 0.0
C981 C 0.69737 0.69761 0.00761 0.0
C982 C 0.67842 0.68139 0.00819 0.0
C983 C 0.62307 0.63505 0.00946 0.0
C984 C 0.64204 0.65104 0.00878 0.0
H985 H 0.73962 0.71583 0.97336 0.0
H986 H 0.71092 0.68695 0.97579 0.0
H987 H 0.6536 0.704 0.02259 0.0
H988 H 0.58367 0.61456 0.04534 0.0
H989 H 0.61427 0.64166 0.04374 0.0
C990 C 0.28652 0.72472 -0.00115 0.0
C991 C 0.27182 0.72728 0.01704 0.0
C992 C 0.3036 0.70852 -0.00087 0.0
C993 C 0.31796 0.65613 0.02777 0.0
H994 H 0.37568 0.66263 -0.00308 0.0
C995 C 0.3956 0.59615 0.03443 0.0
C996 C 0.4066 0.59084 0.01436 0.0
C997 C 0.37775 0.61158 0.03481 0.0
C998 C 0.35953 0.66057 0.00545 0.0
H999 H 0.26399 0.71611 0.0502 0.0
H1000 H 0.29448 0.68856 0.05128 0.0
H1001 H 0.34902 0.69357 -0.0015 0.0
H1002 H 0.40635 0.59648 0.97876 0.0
H1003 H 0.37546 0.62346 0.9796 0.0
H1004 H 0.32896 0.62324 0.0352 0.0
C1005 C 0.29241 0.69835 0.03642 0.0
C1006 C 0.34422 0.67826 0.00633 0.0
C1007 C 0.27513 0.71427 0.03595 0.0
C1008 C 0.39839 0.60023 0.99455 0.0
C1009 C 0.3808 0.61582 0.99499 0.0
C1010 C 0.33344 0.63855 0.02717 0.0
C1011 C 0.30644 0.69481 0.01777 0.0
C1012 C 0.32317 0.67626 0.01742 0.0
C1013 C 0.3708 0.6221 0.01518 0.0
C1014 C 0.35427 0.64058 0.01587 0.0
H1015 H 0.28405 0.73447 0.984 0.0
H1016 H 0.31387 0.70616 0.98437 0.0
H1017 H 0.30172 0.65376 0.03604 0.0
H1018 H 0.40145 0.58918 0.04997 0.0
H1019 H 0.37023 0.61614 0.05059 0.0
C1020 C 0.29093 0.32032 -0.00218 0.0
C1021 C 0.28689 0.30668 0.01612 0.0
C1022 C 0.31077 0.3329 -0.00329 0.0
C1023 C 0.3682 0.34087 0.02265 0.0
H1024 H 0.3613 0.3991 -0.00277 0.0
C1025 C 0.43273 0.41342 0.03167 0.0
C1026 C 0.43822 0.42418 0.01174 0.0
C1027 C 0.41594 0.3971 0.03201 0.0
C1028 C 0.3635 0.38281 0.00424 0.0
H1029 H 0.30045 0.29504 0.04741 0.0
H1030 H 0.33481 0.31766 0.046 0.0
H1031 H 0.32864 0.37459 -0.00172 0.0
H1032 H 0.43092 0.42568 0.97643 0.0
H1033 H 0.40141 0.39761 0.97724 0.0
H1034 H 0.40304 0.34981 0.02935 0.0
C1035 C 0.32301 0.31829 0.03217 0.0
C1036 C 0.34483 0.36867 0.00472 0.0
C1037 C 0.30329 0.3054 0.03308 0.0
C1038 C 0.42712 0.41777 0.99208 0.0
C1039 C 0.41015 0.40176 0.99251 0.0
C1040 C 0.38683 0.35523 0.02249 0.0
C1041 C 0.32684 0.33247 0.01411 0.0
C1042 C 0.34694 0.34742 0.01375 0.0
C1043 C 0.40416 0.39155 0.01251 0.0
C1044 C 0.38463 0.37625 0.01311 0.0
H1045 H 0.27864 0.32132 0.9844 0.0
H1046 H 0.3134 0.3431 0.98224 0.0
H1047 H 0.37058 0.32456 0.0295 0.0
H1048 H 0.44104 0.41792 0.04706 0.0
H1049 H 0.41153 0.38945 0.04764 0.0
C1050 C 0.72745 0.30594 0.98538 0.0
C1051 C 0.74441 0.3032 0.00157 0.0
C1052 C 0.7133 0.32451 0.98561 0.0
C1053 C 0.70664 0.38048 0.01081 0.0
H1054 H 0.6441 0.37295 0.99089 0.0
C1055 C 0.62873 0.44103 0.02309 0.0
C1056 C 0.61649 0.44546 0.00346 0.0
C1057 C 0.64683 0.42582 0.02303 0.0
C1058 C 0.66156 0.37527 -0.00359 0.0
H1059 H 0.76006 0.31743 0.0307 0.0
H1060 H 0.73464 0.34948 0.03188 0.0
H1061 H 0.67001 0.34156 0.99102 0.0
H1062 H 0.61485 0.43856 0.96811 0.0
H1063 H 0.64596 0.41183 0.96828 0.0
H1064 H 0.69742 0.41422 0.01705 0.0
C1065 C 0.73264 0.33775 0.01851 0.0
C1066 C 0.67652 0.35734 0.99633 0.0
C1067 C 0.74713 0.31935 0.01797 0.0
C1068 C 0.62371 0.43546 0.98358 0.0
C1069 C 0.6415 0.4201 0.98362 0.0
C1070 C 0.69144 0.39838 0.0113 0.0
C1071 C 0.71541 0.34053 0.00239 0.0
C1072 C 0.69939 0.35971 0.00322 0.0
C1073 C 0.65274 0.41469 0.00343 0.0
C1074 C 0.6689 0.39593 0.0038 0.0
H1075 H 0.72525 0.29375 0.97244 0.0
H1076 H 0.70073 0.32628 0.97253 0.0
H1077 H 0.72414 0.38307 0.01601 0.0
H1078 H 0.62368 0.44852 0.03866 0.0
H1079 H 0.65532 0.42185 0.0385 0.0
C1080 C 0.96389 0.69401 0.71341 0.0
C1081 C 0.97813 0.71254 0.71347 0.0
C1082 C 0.96289 0.68029 0.69486 0.0
C1083 C 0.97781 0.67693 0.63504 0.0
H1084 H 0.98032 0.61423 0.6466 0.0
C1085 C 0.01333 0.61302 0.57377 0.0
C1086 C 0.00347 0.59202 0.57297 0.0
C1087 C 0.00519 0.62884 0.58858 0.0
C1088 C 0.97912 0.63166 0.64304 0.0
H1089 H 0.00225 0.73142 0.69407 0.0
H1090 H 0.00079 0.7073 0.66176 0.0
H1091 H 0.97628 0.63981 0.6774 0.0
H1092 H 0.9766 0.57156 0.58618 0.0
H1093 H 0.9623 0.59923 0.61226 0.0
H1094 H 0.98164 0.66866 0.60067 0.0
C1095 C -0.00996 0.70358 0.67588 0.0
C1096 C 0.97684 0.64635 0.66071 0.0
C1097 C -0.00905 0.71737 0.69441 0.0
C1098 C 0.98445 0.58757 0.58639 0.0
C1099 C 0.97641 0.60337 0.60142 0.0
C1100 C 0.9802 0.66222 0.61735 0.0
C1101 C 0.97619 0.68473 0.67599 0.0
C1102 C 0.97656 0.66918 0.65696 0.0
C1103 C 0.98712 0.62396 0.60306 0.0
C1104 C 0.9813 0.63945 0.62123 0.0
H1105 H 0.95353 0.6901 0.72775 0.0
H1106 H 0.95175 0.66613 0.69536 0.0
H1107 H 0.97724 0.69439 0.63155 0.0
H1108 H 0.02795 0.61699 0.5635 0.0
H1109 H 0.01393 0.64447 0.58954 0.0
C1110 C 0.3192 0.02654 0.73742 0.0
C1111 C 0.30568 0.00762 0.73724 0.0
C1112 C 0.33954 0.0271 0.72525 0.0
C1113 C 0.36653 -0.00018 0.67709 0.0
H1114 H 0.42048 0.03192 0.69555 0.0
C1115 C 0.44872 0.99637 0.62681 0.0
C1116 C 0.45492 0.01694 0.61808 0.0
C1117 C 0.43342 0.99505 0.64445 0.0
C1118 C 0.40548 0.02293 0.6903 0.0
H1119 H 0.3025 0.97435 0.72504 0.0
H1120 H 0.33836 0.97491 0.70427 0.0
H1121 H 0.38767 0.02916 0.72073 0.0
H1122 H 0.45166 0.05226 0.62244 0.0
H1123 H 0.42505 0.04982 0.65372 0.0
H1124 H 0.38445 0.99335 0.64684 0.0
C1125 C 0.33326 0.9895 0.71336 0.0
C1126 C 0.38669 0.02141 0.70459 0.0
C1127 C 0.3129 0.98904 0.72539 0.0
C1128 C 0.44706 0.03618 0.62867 0.0
C1129 C 0.43192 0.03482 0.64658 0.0
C1130 C 0.38537 0.00106 0.66303 0.0
C1131 C 0.34659 0.0087 0.71274 0.0
C1132 C 0.36697 0.00987 0.6981 0.0
C1133 C 0.42432 0.01423 0.65395 0.0
C1134 C 0.40495 0.01263 0.66949 0.0
H1135 H 0.31364 0.04108 0.74636 0.0
H1136 H 0.34922 0.04222 0.72494 0.0
H1137 H 0.35145 0.99133 0.67125 0.0
H1138 H 0.45456 0.98119 0.61922 0.0
H1139 H 0.4279 0.97901 0.65006 0.0
C1140 C 0.01762 0.3287 0.70646 0.0
C1141 C 0.00281 0.31087 0.70301 0.0
C1142 C 0.01735 0.34667 0.6921 0.0
C1143 C 0.00596 0.36289 0.63561 0.0
H1144 H 0.00276 0.42188 0.65997 0.0
C1145 C 0.01446 0.44016 0.58012 0.0
C1146 C 0.02814 0.45701 0.58888 0.0
C1147 C 0.00753 0.42266 0.59356 0.0
C1148 C 0.00386 0.40554 0.65288 0.0
H1149 H 0.97597 0.29818 0.68168 0.0
H1150 H 0.97625 0.32934 0.65611 0.0
H1151 H -0.00142 0.39031 0.68446 0.0
H1152 H 0.04511 0.46883 0.61853 0.0
H1153 H 0.03375 0.43824 0.64161 0.0
H1154 H 0.01245 0.37798 0.60421 0.0
C1155 C 0.98789 0.32929 0.67009 0.0
C1156 C 0.00135 0.3875 0.66691 0.0
C1157 C 0.98786 0.31144 0.68469 0.0
C1158 C 0.03445 0.4562 0.61131 0.0
C1159 C 0.02775 0.43868 0.62463 0.0
C1160 C 0.00883 0.38097 0.62157 0.0
C1161 C 0.00255 0.34709 0.67378 0.0
C1162 C 0.00283 0.36604 0.65848 0.0
C1163 C 0.01428 0.42163 0.61595 0.0
C1164 C 0.00836 0.4025 0.63015 0.0
H1165 H 0.02974 0.32867 0.72004 0.0
H1166 H 0.02908 0.36009 0.69507 0.0
H1167 H 0.00723 0.34645 0.62876 0.0
H1168 H 0.0092 0.44044 0.5629 0.0
H1169 H -0.00307 0.40994 0.58641 0.0
C1170 C 0.72425 0.0146 0.72374 0.0
C1171 C 0.73617 0.03343 0.7303 0.0
C1172 C 0.71385 0.01367 0.70295 0.0
C1173 C 0.70875 0.04242 0.64821 0.0
H1174 H 0.65029 0.01261 0.64765 0.0
C1175 C 0.63341 0.04979 0.58347 0.0
C1176 C 0.62478 0.02941 0.57634 0.0
C1177 C 0.65097 0.05062 0.5993 0.0
C1178 C 0.66668 0.02086 0.64754 0.0
H1179 H 0.74726 0.06581 0.72042 0.0
H1180 H 0.72821 0.06473 0.68426 0.0
H1181 H 0.67269 0.01329 0.6815 0.0
H1182 H 0.62949 0.99398 0.57862 0.0
H1183 H 0.65957 0.99558 0.60638 0.0
H1184 H 0.70169 0.05081 0.6142 0.0
C1185 C 0.72735 0.05038 0.69483 0.0
C1186 C 0.67967 0.02112 0.66689 0.0
C1187 C 0.73818 0.0511 0.71554 0.0
C1188 C 0.63543 0.00999 0.58391 0.0
C1189 C 0.65269 0.01084 0.59982 0.0
C1190 C 0.69544 0.04249 0.62885 0.0
C1191 C 0.71461 0.0318 0.68846 0.0
C1192 C 0.70101 0.03169 0.66751 0.0
C1193 C 0.65999 0.0311 0.60825 0.0
C1194 C 0.67441 0.03152 0.62837 0.0
H1195 H 0.72271 0.00072 0.73489 0.0
H1196 H 0.70485 -0.00119 0.69845 0.0
H1197 H 0.72516 0.05057 0.64796 0.0
H1198 H 0.62567 0.06506 0.57793 0.0
H1199 H 0.65637 0.06643 0.60564 0.0
C1200 C 0.03995 0.3156 0.31974 0.0
C1201 C 0.02428 0.31736 0.30214 0.0
C1202 C 0.03992 0.33117 0.33685 0.0
C1203 C 0.02221 0.38838 0.34788 0.0
H1204 H 0.02963 0.37286 0.40983 0.0
C1205 C 0.02567 0.45534 0.41463 0.0
C1206 C 0.01098 0.45202 0.43275 0.0
C1207 C 0.03093 0.43802 0.40022 0.0
C1208 C 0.02757 0.37743 0.39259 0.0
H1209 H -0.00448 0.33605 0.28926 0.0
H1210 H -0.00465 0.36308 0.3191 0.0
H1211 H 0.03011 0.34396 0.38156 0.0
H1212 H -0.00842 0.42757 0.45084 0.0
H1213 H 0.00056 0.39747 0.42558 0.0
H1214 H 0.01893 0.42166 0.35878 0.0
C1215 C 0.00803 0.35002 0.31945 0.0
C1216 C 0.02801 0.36091 0.3764 0.0
C1217 C 0.00808 0.33452 0.30239 0.0
C1218 C 0.00283 0.43072 0.43695 0.0
C1219 C 0.0081 0.41341 0.42253 0.0
C1220 C 0.02183 0.40484 0.36399 0.0
C1221 C 0.02422 0.34877 0.33665 0.0
C1222 C 0.02496 0.3662 0.3539 0.0
C1223 C 0.02163 0.41702 0.40364 0.0
C1224 C 0.02423 0.39956 0.38656 0.0
H1225 H 0.05275 0.30264 0.31989 0.0
H1226 H 0.05268 0.32984 0.34982 0.0
H1227 H 0.0202 0.39303 0.33065 0.0
H1228 H 0.03243 0.4715 0.41103 0.0
H1229 H 0.04178 0.44123 0.38604 0.0
C1230 C 0.70769 0.01533 0.28632 0.0
C1231 C 0.71308 0.03698 0.28045 0.0
C1232 C 0.68963 0.01122 0.30082 0.0
C1233 C 0.63698 0.0345 0.32392 0.0
H1234 H 0.65167 1e-05 0.37617 0.0
C1235 C 0.58404 0.03939 0.40344 0.0
C1236 C 0.5813 0.0205 0.41655 0.0
C1237 C 0.59799 0.03891 0.38475 0.0
C1238 C 0.64711 0.00926 0.36146 0.0
H1239 H 0.70411 0.0713 0.28446 0.0
H1240 H 0.67191 0.06413 0.30951 0.0
H1241 H 0.68004 0.00396 0.34679 0.0
H1242 H 0.59044 0.98601 0.41986 0.0
H1243 H 0.61476 0.98512 0.38689 0.0
H1244 H 0.60414 0.03998 0.33856 0.0
C1245 C 0.6816 0.05036 0.30291 0.0
C1246 C 0.66338 0.01159 0.34471 0.0
C1247 C 0.69991 0.05449 0.28868 0.0
C1248 C 0.59229 0.00087 0.41015 0.0
C1249 C 0.60629 0.00039 0.39135 0.0
C1250 C 0.62063 0.032 0.34055 0.0
C1251 C 0.67657 0.02872 0.30939 0.0
C1252 C 0.65859 0.02458 0.32602 0.0
C1253 C 0.60948 0.01949 0.37862 0.0
C1254 C 0.6257 0.01977 0.35974 0.0
H1255 H 0.71795 0.00168 0.28028 0.0
H1256 H 0.68603 0.99441 0.30556 0.0
H1257 H 0.63284 0.04438 0.30951 0.0
H1258 H 0.57581 0.0548 0.40784 0.0
H1259 H 0.60036 0.05401 0.37555 0.0
C1260 C 0.03242 0.70735 0.30734 0.0
C1261 C 0.01673 0.72461 0.31096 0.0
C1262 C 0.03399 0.68988 0.32242 0.0
C1263 C 0.00051 0.66262 0.36624 0.0
H1264 H 0.05892 0.6411 0.38816 0.0
C1265 C 0.00331 0.61249 0.44448 0.0
C1266 C 0.01335 0.59158 0.44248 0.0
C1267 C 0.00767 0.62866 0.42877 0.0
C1268 C 0.04255 0.6469 0.38202 0.0
H1269 H -0.00997 0.73681 0.33283 0.0
H1270 H -0.00688 0.70688 0.35916 0.0
H1271 H 0.05792 0.66879 0.35848 0.0
H1272 H 0.03704 0.5716 0.4235 0.0
H1273 H 0.04481 0.60011 0.39577 0.0
H1274 H 0.98509 0.64128 0.3899 0.0
C1275 C 0.0041 0.70661 0.34468 0.0
C1276 C 0.04195 0.66262 0.36502 0.0
C1277 C 0.00252 0.72393 0.32971 0.0
C1278 C 0.02937 0.58769 0.42555 0.0
C1279 C 0.03369 0.60394 0.40964 0.0
C1280 C 0.00112 0.64717 0.38321 0.0
C1281 C 0.01977 0.68934 0.34121 0.0
C1282 C 0.02087 0.67099 0.35736 0.0
C1283 C 0.02199 0.62417 0.41061 0.0
C1284 C 0.0221 0.63954 0.39163 0.0
H1285 H 0.04366 0.70751 0.29307 0.0
H1286 H 0.04614 0.67672 0.31927 0.0
H1287 H 0.98401 0.66827 0.36029 0.0
H1288 H -0.00897 0.61594 0.45752 0.0
H1289 H -0.00119 0.64431 0.43012 0.0
C1290 C 0.30526 0.02163 0.29927 0.0
C1291 C 0.29452 0.0013 0.2961 0.0
C1292 C 0.31965 0.02485 0.31746 0.0
C1293 C 0.35452 0.9961 0.35893 0.0
H1294 H 0.34304 0.04757 0.39551 0.0
C1295 C 0.39972 0.00571 0.44201 0.0
C1296 C 0.41061 0.026 0.4454 0.0
C1297 C 0.38332 0.0034 0.42541 0.0
C1298 C 0.34654 0.03322 0.38537 0.0
H1299 H 0.29088 0.96816 0.3086 0.0
H1300 H 0.31658 0.97356 0.34018 0.0
H1301 H 0.32077 0.04197 0.36164 0.0
H1302 H 0.41114 0.06029 0.4355 0.0
H1303 H 0.38247 0.0562 0.40642 0.0
H1304 H 0.38043 0.98742 0.38236 0.0
C1305 C 0.31376 0.98705 0.32876 0.0
C1306 C 0.33387 0.03005 0.36599 0.0
C1307 C 0.29908 0.98395 0.31078 0.0
C1308 C 0.40316 0.04441 0.43324 0.0
C1309 C 0.38673 0.04207 0.41655 0.0
C1310 C 0.36723 -0.0007 0.37822 0.0
C1311 C 0.32376 0.00768 0.33254 0.0
C1312 C 0.33771 0.01143 0.35264 0.0
C1313 C 0.37743 0.0213 0.41184 0.0
C1314 C 0.36331 0.01783 0.39173 0.0
H1315 H 0.30176 0.03527 0.2882 0.0
H1316 H 0.32734 0.04084 0.31991 0.0
H1317 H 0.358 0.98175 0.34879 0.0
H1318 H 0.40479 0.99125 0.45132 0.0
H1319 H 0.37596 0.98733 0.42258 0.0
C1320 C 0.02894 0.20184 0.29901 0.0
C1321 C 0.04781 0.21592 0.30109 0.0
C1322 C 0.02563 0.18478 0.31433 0.0
C1323 C 0.03833 0.17096 0.37209 0.0
H1324 H 0.02185 0.11129 0.35626 0.0
C1325 C -0.00131 0.10895 0.43322 0.0
C1326 C 0.00797 0.0876 0.43365 0.0
C1327 C 0.00578 0.12412 0.41731 0.0
C1328 C 0.02663 0.12786 0.36088 0.0
H1329 H 0.07826 0.22286 0.32025 0.0
H1330 H 0.0724 0.19334 0.34698 0.0
H1331 H 0.02935 0.13832 0.32695 0.0
H1332 H 0.03178 0.06527 0.41771 0.0
H1333 H 0.04408 0.09183 0.38947 0.0
H1334 H 0.03507 0.16074 0.40594 0.0
C1335 C 0.06013 0.19546 0.33367 0.0
C1336 C 0.03069 0.14334 0.34414 0.0
C1337 C 0.06354 0.21228 0.31831 0.0
C1338 C 0.02477 0.08177 0.41804 0.0
C1339 C 0.03154 0.09685 0.40174 0.0
C1340 C 0.03391 0.15562 0.38876 0.0
C1341 C 0.04098 0.18172 0.33208 0.0
C1342 C 0.03662 0.16506 0.3496 0.0
C1343 C 0.02194 0.11811 0.40114 0.0
C1344 C 0.02799 0.13393 0.38335 0.0
H1345 H 0.01653 0.20427 0.28589 0.0
H1346 H 0.01065 0.17449 0.31277 0.0
H1347 H 0.04266 0.18762 0.37682 0.0
H1348 H 0.98556 0.11379 0.44498 0.0
H1349 H -0.00201 0.14033 0.41716 0.0
C1350 C 0.80966 0.0315 0.28326 0.0
C1351 C 0.79557 0.0501 0.28096 0.0
C1352 C 0.82462 0.02979 0.30123 0.0
C1353 C 0.82852 0.05105 0.35835 0.0
H1354 H 0.88458 0.01672 0.35961 0.0
C1355 C 0.8911 0.04447 0.43262 0.0
C1356 C 0.90108 0.02372 0.4365 0.0
C1357 C 0.87614 0.04753 0.41482 0.0
C1358 C 0.86879 0.02614 0.35948 0.0
H1359 H 0.78744 0.08234 0.29402 0.0
H1360 H 0.81456 0.08001 0.32476 0.0
H1361 H 0.86634 0.0247 0.32414 0.0
H1362 H 0.90121 0.98943 0.42626 0.0
H1363 H 0.87521 0.99493 0.39517 0.0
H1364 H 0.83141 0.05283 0.39375 0.0
C1365 C 0.81348 0.06635 0.31328 0.0
C1366 C 0.85838 0.03078 0.33918 0.0
C1367 C 0.79826 0.06789 0.29551 0.0
C1368 C 0.89404 0.00569 0.42361 0.0
C1369 C 0.8793 0.00882 0.40569 0.0
C1370 C 0.83911 0.04664 0.37862 0.0
C1371 C 0.82589 0.0468 0.31702 0.0
C1372 C 0.83805 0.04321 0.33836 0.0
C1373 C 0.87105 0.02993 0.4006 0.0
C1374 C 0.85923 0.03402 0.37936 0.0
H1375 H 0.80756 0.01744 0.27241 0.0
H1376 H 0.83379 0.01445 0.30359 0.0
H1377 H 0.81256 0.06018 0.35844 0.0
H1378 H 0.89601 0.05865 0.44237 0.0
H1379 H 0.86987 0.06396 0.41128 0.0
C1380 C -0.0093 0.80743 0.31838 0.0
C1381 C 0.0064 0.80495 0.30091 0.0
C1382 C -0.00872 0.82594 0.332 0.0
C1383 C 0.01141 0.88261 0.33805 0.0
H1384 H 0.00928 0.86847 0.40076 0.0
C1385 C 0.01503 0.95025 0.40562 0.0
C1386 C -0.00133 0.9482 0.4226 0.0
C1387 C 0.01937 0.93275 0.39107 0.0
C1388 C 0.00977 0.87274 0.38334 0.0
H1389 H 0.03405 0.82049 0.28306 0.0
H1390 H 0.03485 0.85336 0.30686 0.0
H1391 H 0.00882 0.83899 0.37342 0.0
H1392 H 0.9749 0.92579 0.43827 0.0
H1393 H 0.98221 0.89553 0.4129 0.0
H1394 H 0.01169 0.91644 0.34799 0.0
C1395 C 0.02219 0.84081 0.31 0.0
C1396 C 0.0095 0.85585 0.36766 0.0
C1397 C 0.02164 0.82213 0.29631 0.0
C1398 C 0.98757 0.92797 0.42535 0.0
C1399 C -0.00813 0.91053 0.41083 0.0
C1400 C 0.01153 0.89959 0.35378 0.0
C1401 C 0.00755 0.84247 0.32847 0.0
C1402 C 0.00977 0.86059 0.34485 0.0
C1403 C 0.00748 0.91282 0.39323 0.0
C1404 C 0.01019 0.89486 0.37661 0.0
H1405 H 0.97867 0.79446 0.32216 0.0
H1406 H 0.97941 0.827 0.34576 0.0
H1407 H 0.01166 0.88673 0.32058 0.0
H1408 H 0.02406 0.96557 0.40318 0.0
H1409 H 0.03179 0.93494 0.37795 0.0
C1410 C 0.20608 0.97492 0.29039 0.0
C1411 C 0.21295 0.99296 0.27763 0.0
C1412 C 0.18606 0.97606 0.30295 0.0
C1413 C 0.13422 0.01052 0.31513 0.0
H1414 H 0.14186 0.98486 0.37354 0.0
C1415 C 0.07919 0.03061 0.3938 0.0
C1416 C 0.07191 0.01215 0.4059 0.0
C1417 C 0.09394 0.02804 0.37565 0.0
C1418 C 0.13941 0.99195 0.35722 0.0
H1419 H 0.20407 0.0259 0.26707 0.0
H1420 H 0.16936 0.02824 0.28945 0.0
H1421 H 0.17176 0.9801 0.346 0.0
H1422 H 0.07352 0.97646 0.40768 0.0
H1423 H 0.09941 0.97218 0.37641 0.0
H1424 H 0.1021 0.02316 0.32711 0.0
C1425 C 0.17897 0.01297 0.28942 0.0
C1426 C 0.15646 0.98908 0.34132 0.0
C1427 C 0.19883 0.01166 0.27654 0.0
C1428 C 0.07886 0.99107 0.39886 0.0
C1429 C 0.09376 0.98857 0.38099 0.0
C1430 C 0.11724 0.01366 0.33124 0.0
C1431 C 0.17281 0.99548 0.30344 0.0
C1432 C 0.15406 0.99816 0.31998 0.0
C1433 C 0.10181 0.00702 0.36952 0.0
C1434 C 0.11965 0.00423 0.35235 0.0
H1435 H 0.21684 0.96039 0.29151 0.0
H1436 H 0.18152 0.96202 0.31304 0.0
H1437 H 0.13172 0.01766 0.29886 0.0
H1438 H 0.07406 0.04705 0.39872 0.0
H1439 H 0.09998 0.04252 0.36705 0.0
C1440 C 0.97997 0.81853 0.71263 0.0
C1441 C -0.00093 0.81564 0.72652 0.0
C1442 C 0.98036 0.83416 0.69556 0.0
C1443 C 0.02201 0.86587 0.6619 0.0
H1444 H 0.96887 0.89995 0.64394 0.0
C1445 C 0.03007 0.94088 0.60537 0.0
C1446 C 0.01482 0.94287 0.58744 0.0
C1447 C 0.02658 0.92515 0.62181 0.0
C1448 C 0.98377 0.89037 0.64866 0.0
H1449 H 0.03303 0.82734 0.73416 0.0
H1450 H 0.03345 0.85517 0.70514 0.0
H1451 H 0.96559 0.87346 0.67433 0.0
H1452 H 0.98356 0.93012 0.57306 0.0
H1453 H 0.97742 0.90249 0.60206 0.0
H1454 H 0.04028 0.88304 0.63662 0.0
C1455 C 0.01843 0.84496 0.70679 0.0
C1456 C 0.98192 0.87517 0.66605 0.0
C1457 C 0.01815 0.82917 0.72359 0.0
C1458 C -0.00433 0.92897 0.58661 0.0
C1459 C -0.00791 0.91323 0.60324 0.0
C1460 C 0.02388 0.88112 0.64474 0.0
C1461 C -0.00021 0.84733 0.69217 0.0
C1462 C 0.00114 0.86296 0.67312 0.0
C1463 C 0.0077 0.911 0.62087 0.0
C1464 C 0.00491 0.89377 0.63811 0.0
H1465 H 0.96507 0.80818 0.71439 0.0
H1466 H 0.96575 0.83537 0.68457 0.0
H1467 H 0.03702 0.85632 0.66633 0.0
H1468 H 0.04492 0.95138 0.60668 0.0
H1469 H 0.0387 0.92408 0.63537 0.0
C1470 C 0.21866 0.03402 0.71752 0.0
C1471 C 0.22224 0.01394 0.7284 0.0
C1472 C 0.20426 0.03516 0.69909 0.0
C1473 C 0.1619 0.00364 0.66574 0.0
H1474 H 0.1859 0.03909 0.61766 0.0
C1475 C 0.12331 0.99843 0.57907 0.0
C1476 C 0.11529 0.01883 0.57116 0.0
C1477 C 0.13893 0.99753 0.59653 0.0
C1478 C 0.17903 0.02915 0.63095 0.0
H1479 H 0.21316 0.97954 0.72942 0.0
H1480 H 0.18833 0.98127 0.69692 0.0
H1481 H 0.20531 0.03888 0.65345 0.0
H1482 H 0.11975 0.05419 0.57338 0.0
H1483 H 0.14733 0.05253 0.60364 0.0
H1484 H 0.13585 0.99367 0.64299 0.0
C1485 C 0.19611 0.99631 0.70279 0.0
C1486 C 0.18996 0.02918 0.65155 0.0
C1487 C 0.21025 0.99528 0.72144 0.0
C1488 C 0.12538 0.03821 0.57921 0.0
C1489 C 0.14117 0.03727 0.59659 0.0
C1490 C 0.15114 0.00344 0.64507 0.0
C1491 C 0.1936 0.01611 0.69092 0.0
C1492 C 0.18146 0.01651 0.66925 0.0
C1493 C 0.1471 0.01698 0.60616 0.0
C1494 C 0.15957 0.01623 0.62751 0.0
H1495 H 0.22793 0.04856 0.72262 0.0
H1496 H 0.20223 0.0508 0.69073 0.0
H1497 H 0.15471 0.99391 0.67902 0.0
H1498 H 0.11619 0.98314 0.57303 0.0
H1499 H 0.14369 0.98164 0.6033 0.0
C1500 C 0.01582 0.21358 0.71696 0.0
C1501 C -0.00122 0.22969 0.71406 0.0
C1502 C 0.01609 0.19466 0.70361 0.0
C1503 C 0.98208 0.16292 0.66155 0.0
H1504 H 0.04216 0.14863 0.63838 0.0
C1505 C -0.00193 0.09354 0.59598 0.0
C1506 C 0.01615 0.0967 0.581 0.0
C1507 C -0.0058 0.10866 0.61325 0.0
C1508 C 0.02517 0.15251 0.64444 0.0
H1509 H 0.96773 0.23789 0.69622 0.0
H1510 H 0.96823 0.20522 0.67293 0.0
H1511 H 0.03846 0.17556 0.66781 0.0
H1512 H 0.04327 0.11876 0.57127 0.0
H1513 H 0.03582 0.1456 0.60032 0.0
H1514 H 0.96875 0.14058 0.63732 0.0
C1515 C 0.98139 0.20692 0.68544 0.0
C1516 C 0.0231 0.16772 0.66174 0.0
C1517 C 0.98114 0.22576 0.69873 0.0
C1518 C 0.02934 0.11582 0.58273 0.0
C1519 C 0.02523 0.13107 0.59962 0.0
C1520 C 0.98415 0.14777 0.64408 0.0
C1521 C -0.0007 0.19146 0.68712 0.0
C1522 C 0.00151 0.1734 0.67037 0.0
C1523 C 0.00816 0.12737 0.61563 0.0
C1524 C 0.00572 0.14264 0.635 0.0
H1525 H 0.02968 0.21622 0.72856 0.0
H1526 H 0.02993 0.18291 0.70569 0.0
H1527 H 0.96518 0.16664 0.66794 0.0
H1528 H 0.9878 0.07879 0.59515 0.0
H1529 H 0.98094 0.10515 0.62524 0.0
C1530 C 0.83065 0.02519 0.74735 0.0
C1531 C 0.82849 0.0469 0.75513 0.0
C1532 C 0.84299 0.02073 0.728 0.0
C1533 C 0.86382 0.04785 0.67737 0.0
H1534 H 0.90802 6e-05 0.675 0.0
C1535 C 0.93572 0.04617 0.61366 0.0
C1536 C 0.94047 0.02627 0.60269 0.0
C1537 C 0.92077 0.04669 0.63162 0.0
C1538 C 0.89549 0.01326 0.67533 0.0
H1539 H 0.83781 0.0808 0.74936 0.0
H1540 H 0.85973 0.07303 0.71583 0.0
H1541 H 0.88387 0.00458 0.70784 0.0
H1542 H 0.93368 0.99118 0.60235 0.0
H1543 H 0.90751 0.99219 0.63395 0.0
H1544 H 0.87572 0.05684 0.64515 0.0
C1545 C 0.85153 0.05952 0.72433 0.0
C1546 C 0.88168 0.01584 0.69409 0.0
C1547 C 0.83921 0.06396 0.74361 0.0
C1548 C 0.9304 0.00678 0.61047 0.0
C1549 C 0.91544 0.00732 0.62854 0.0
C1550 C 0.8776 0.0453 0.65871 0.0
C1551 C 0.85334 0.03791 0.71619 0.0
C1552 C 0.86617 0.03354 0.6955 0.0
C1553 C 0.91027 0.02735 0.63905 0.0
C1554 C 0.89399 0.02836 0.65777 0.0
H1555 H 0.82249 0.01172 0.75593 0.0
H1556 H 0.84404 0.00394 0.72205 0.0
H1557 H 0.85157 0.06129 0.67777 0.0
H1558 H 0.9433 0.06145 0.60822 0.0
H1559 H 0.91745 0.06229 0.63974 0.0
C1560 C 0.32127 0.03461 0.19403 0.0
C1561 C 0.3035 0.01934 0.19569 0.0
C1562 C 0.3398 0.03065 0.18002 0.0
C1563 C 0.35736 0.00168 0.13008 0.0
H1564 H 0.41834 0.01515 0.15138 0.0
C1565 C 0.43395 0.00205 0.07045 0.0
C1566 C 0.44744 0.02105 0.07187 0.0
C1567 C 0.41871 0.9967 0.08744 0.0
C1568 C 0.40144 0.01134 0.14516 0.0
H1569 H 0.29081 0.98805 0.18372 0.0
H1570 H 0.32325 0.98124 0.15874 0.0
H1571 H 0.38613 0.01593 0.17708 0.0
H1572 H 0.45672 0.0485 0.09298 0.0
H1573 H 0.42996 0.03948 0.12235 0.0
H1574 H 0.37239 0.99812 0.09795 0.0
C1575 C 0.32283 0.99623 0.16847 0.0
C1576 C 0.38302 0.01175 0.15988 0.0
C1577 C 0.3043 0.00013 0.18271 0.0
C1578 C 0.4465 0.03379 0.09129 0.0
C1579 C 0.43121 0.02851 0.10824 0.0
C1580 C 0.37578 0.00141 0.11529 0.0
C1581 C 0.34089 0.01135 0.16723 0.0
C1582 C 0.3607 0.0076 0.15235 0.0
C1583 C 0.41663 0.01028 0.10621 0.0
C1584 C 0.39793 0.0069 0.12254 0.0
H1585 H 0.32102 0.04955 0.20385 0.0
H1586 H 0.35324 0.0428 0.17907 0.0
H1587 H 0.34033 0.99848 0.12382 0.0
H1588 H 0.43445 0.99177 0.05584 0.0
H1589 H 0.40806 0.98231 0.08553 0.0
C1590 C 0.00878 0.30564 0.20563 0.0
C1591 C 0.02709 0.30706 0.22064 0.0
C1592 C 0.00768 0.31984 0.18727 0.0
C1593 C 0.02574 0.37535 0.1733 0.0
H1594 H 0.01105 0.36169 0.11213 0.0
C1595 C 0.01196 0.44435 0.1101 0.0
C1596 C 0.02523 0.44253 0.09073 0.0
C1597 C 0.00905 0.42624 0.12406 0.0
C1598 C 0.01511 0.3657 0.12918 0.0
H1599 H 0.0592 0.32314 0.22767 0.0
H1600 H 0.05746 0.34763 0.19569 0.0
H1601 H 0.01346 0.33192 0.13966 0.0
H1602 H 0.04444 0.41978 0.07003 0.0
H1603 H 0.03928 0.38814 0.09445 0.0
H1604 H 0.02763 0.40892 0.1631 0.0
C1605 C 0.04383 0.33587 0.1981 0.0
C1606 C 0.01638 0.34871 0.1449 0.0
C1607 C 0.04494 0.32175 0.21627 0.0
C1608 C 0.03427 0.4218 0.08492 0.0
C1609 C 0.03121 0.40362 0.09884 0.0
C1610 C 0.02419 0.39225 0.15775 0.0
C1611 C 0.0248 0.33568 0.18387 0.0
C1612 C 0.02212 0.35337 0.16705 0.0
C1613 C 0.01918 0.40583 0.11892 0.0
C1614 C 0.0191 0.38766 0.13546 0.0
H1615 H -0.00531 0.29461 0.20886 0.0
H1616 H -0.0072 0.31936 0.17657 0.0
H1617 H 0.02989 0.37949 0.1903 0.0
H1618 H 0.00454 0.45999 0.11498 0.0
H1619 H -0.00062 0.42838 0.13924 0.0
C1620 C 0.70278 0.00893 0.18799 0.0
C1621 C 0.72267 0.0217 0.18762 0.0
C1622 C 0.68382 0.01493 0.17527 0.0
C1623 C 0.66938 0.04073 0.12374 0.0
H1624 H 0.6071 0.03854 0.14581 0.0
C1625 C 0.59542 0.03918 0.06231 0.0
C1626 C 0.57868 0.02332 0.06669 0.0
C1627 C 0.61045 0.04593 0.07892 0.0
C1628 C 0.62437 0.03915 0.13935 0.0
H1629 H 0.73847 0.05084 0.17394 0.0
H1630 H 0.70542 0.06094 0.15089 0.0
H1631 H 0.6391 0.03666 0.17184 0.0
H1632 H 0.56369 0.003 0.09234 0.0
H1633 H 0.59058 0.01374 0.12096 0.0
H1634 H 0.65512 0.0415 0.09127 0.0
C1635 C 0.70446 0.04648 0.16132 0.0
C1636 C 0.64264 0.03821 0.15427 0.0
C1637 C 0.72332 0.04068 0.1744 0.0
C1638 C 0.57649 0.01518 0.08837 0.0
C1639 C 0.59182 0.02158 0.1049 0.0
C1640 C 0.65117 0.04131 0.1088 0.0
C1641 C 0.68457 0.03362 0.16166 0.0
C1642 C 0.66529 0.03838 0.14651 0.0
C1643 C 0.6095 0.03649 0.10018 0.0
C1644 C 0.62842 0.03986 0.11635 0.0
H1645 H 0.70185 0.99432 0.19823 0.0
H1646 H 0.66881 0.00458 0.17558 0.0
H1647 H 0.6867 0.04069 0.11734 0.0
H1648 H 0.59773 0.0456 0.04578 0.0
H1649 H 0.62346 0.05784 0.07478 0.0
C1650 C 0.04015 0.7133 0.19799 0.0
C1651 C 0.0223 0.72617 0.20666 0.0
C1652 C 0.03567 0.69644 0.18296 0.0
C1653 C -0.00507 0.67448 0.14246 0.0
H1654 H 0.0295 0.62088 0.15326 0.0
C1655 C -0.00254 0.592 0.08829 0.0
C1656 C 0.02006 0.58824 0.08101 0.0
C1657 C -0.0073 0.60868 0.10389 0.0
C1658 C 0.01949 0.63563 0.15019 0.0
H1659 H 0.98568 0.73206 0.20579 0.0
H1660 H 0.97777 0.70234 0.17918 0.0
H1661 H 0.03081 0.65071 0.18022 0.0
H1662 H 0.05512 0.59972 0.08391 0.0
H1663 H 0.04684 0.62802 0.11098 0.0
H1664 H 0.98432 0.65928 0.11186 0.0
C1665 C -0.00473 0.70539 0.18414 0.0
C1666 C 0.02037 0.65278 0.16551 0.0
C1667 C -0.0002 0.72237 0.19935 0.0
C1668 C 0.03753 0.60188 0.08917 0.0
C1669 C 0.03285 0.61817 0.10474 0.0
C1670 C -0.00601 0.65714 0.12704 0.0
C1671 C 0.01316 0.69192 0.17621 0.0
C1672 C 0.00886 0.67273 0.16145 0.0
C1673 C 0.01054 0.62156 0.11253 0.0
C1674 C 0.00693 0.63788 0.13048 0.0
H1675 H 0.05766 0.71596 0.20324 0.0
H1676 H 0.04991 0.68673 0.17678 0.0
H1677 H 0.98584 0.68964 0.13892 0.0
H1678 H 0.98362 0.58187 0.08226 0.0
H1679 H 0.97533 0.61107 0.10969 0.0
C1680 C 0.30228 0.96135 0.82968 0.0
C1681 C 0.28734 0.97891 0.82509 0.0
C1682 C 0.32148 0.96448 0.84306 0.0
C1683 C 0.34454 0.00014 0.88648 0.0
H1684 H 0.40334 0.97597 0.8686 0.0
C1685 C 0.4216 0.0017 0.94494 0.0
C1686 C 0.44129 0.01122 0.93594 0.0
C1687 C 0.40374 0.99516 0.93114 0.0
C1688 C 0.38702 0.98276 0.87377 0.0
H1689 H 0.2806 0.01355 0.83095 0.0
H1690 H 0.31415 0.01902 0.85453 0.0
H1691 H 0.36982 0.97083 0.8448 0.0
H1692 H 0.45826 0.02103 0.90568 0.0
H1693 H 0.42704 0.00924 0.88128 0.0
H1694 H 0.3617 0.0122 0.91534 0.0
C1695 C 0.31093 0.00279 0.84783 0.0
C1696 C 0.36784 0.97974 0.86025 0.0
C1697 C 0.29176 -0.00033 0.83432 0.0
C1698 C 0.44331 0.01337 0.91287 0.0
C1699 C 0.42551 0.00663 0.89899 0.0
C1700 C 0.36362 0.00294 0.90008 0.0
C1701 C 0.32604 0.98523 0.85223 0.0
C1702 C 0.34643 0.98846 0.86646 0.0
C1703 C 0.40527 0.99812 0.90808 0.0
C1704 C 0.38503 0.99429 0.89386 0.0
H1705 H 0.29923 0.94521 0.82271 0.0
H1706 H 0.33266 0.9506 0.84639 0.0
H1707 H 0.32825 0.00692 0.89176 0.0
H1708 H 0.41929 0.00085 0.96271 0.0
H1709 H 0.38834 0.98859 0.93855 0.0
C1710 C 0.0428 0.3249 0.81112 0.0
C1711 C 0.02647 0.30878 0.80623 0.0
C1712 C 0.04016 0.33873 0.82946 0.0
C1713 C -0.0041 0.36154 0.86687 0.0
H1714 H 0.04874 0.38296 0.89908 0.0
C1715 C 0.98758 0.42683 0.93662 0.0
C1716 C 0.00281 0.44459 0.93486 0.0
C1717 C -0.00912 0.40776 0.9239 0.0
C1718 C 0.03381 0.37718 0.89022 0.0
H1719 H -0.00533 0.29415 0.81706 0.0
H1720 H -0.00992 0.31822 0.84944 0.0
H1721 H 0.05351 0.3538 0.87163 0.0
H1722 H 0.03408 0.4557 0.91923 0.0
H1723 H 0.03985 0.42251 0.89721 0.0
H1724 H 0.97628 0.38518 0.88531 0.0
C1725 C 0.00489 0.32032 0.83888 0.0
C1726 C 0.03653 0.36047 0.87443 0.0
C1727 C 0.00757 0.30642 0.82042 0.0
C1728 C 0.02195 0.44241 0.9209 0.0
C1729 C 0.02534 0.42329 0.90836 0.0
C1730 C -0.00683 0.37819 0.88276 0.0
C1731 C 0.02106 0.33682 0.84352 0.0
C1732 C 0.0177 0.35276 0.86216 0.0
C1733 C 0.00961 0.4059 0.90935 0.0
C1734 C 0.01216 0.38655 0.89429 0.0
H1735 H 0.05747 0.32718 0.80039 0.0
H1736 H 0.05277 0.35143 0.83217 0.0
H1737 H 0.98104 0.35625 0.85762 0.0
H1738 H 0.97271 0.4279 0.9473 0.0
H1739 H 0.97861 0.39456 0.92528 0.0
C1740 C 0.70814 0.05751 0.81323 0.0
C1741 C 0.72083 0.03801 0.81109 0.0
C1742 C 0.69217 0.05981 0.83025 0.0
C1743 C 0.67356 0.03556 0.88357 0.0
H1744 H 0.61466 0.06062 0.86747 0.0
C1745 C 0.59947 0.03741 0.94554 0.0
C1746 C 0.57954 0.02779 0.93715 0.0
C1747 C 0.6168 0.04403 0.93116 0.0
C1748 C 0.63107 0.05373 0.87223 0.0
H1749 H 0.72734 0.00571 0.82473 0.0
H1750 H 0.69871 0.00928 0.85418 0.0
H1751 H 0.64576 0.06053 0.84056 0.0
H1752 H 0.56145 0.018 0.90749 0.0
H1753 H 0.59168 0.02964 0.88217 0.0
H1754 H 0.65846 0.02774 0.91484 0.0
C1755 C 0.70145 0.02305 0.84315 0.0
C1756 C 0.64894 0.05381 0.85691 0.0
C1757 C 0.71767 0.02089 0.82627 0.0
C1758 C 0.57662 0.0257 0.9142 0.0
C1759 C 0.59386 0.03244 0.89978 0.0
C1760 C 0.65568 0.03548 0.89889 0.0
C1761 C 0.68842 0.0425 0.84522 0.0
C1762 C 0.67023 0.0443 0.86225 0.0
C1763 C 0.61442 0.041 0.90818 0.0
C1764 C 0.63413 0.04414 0.89318 0.0
H1765 H 0.71063 0.07096 0.80173 0.0
H1766 H 0.68269 0.07511 0.83164 0.0
H1767 H 0.68986 0.02839 0.88828 0.0
H1768 H 0.60239 0.03827 0.96324 0.0
H1769 H 0.63246 0.05059 0.93806 0.0
C1770 C 0.97355 0.6995 0.80046 0.0
C1771 C 0.98706 0.71791 0.7956 0.0
C1772 C 0.97824 0.68645 0.81895 0.0
C1773 C 0.00799 0.68357 0.87276 0.0
H1774 H 0.00704 0.62089 0.8607 0.0
C1775 C 0.00045 0.61635 0.94017 0.0
C1776 C 0.01072 0.59568 0.93645 0.0
C1777 C 0.00217 0.63312 0.92442 0.0
C1778 C 0.00776 0.63832 0.86435 0.0
H1779 H 0.01529 0.73782 0.8071 0.0
H1780 H 0.02345 0.71498 0.83976 0.0
H1781 H -0.00034 0.64682 0.83084 0.0
H1782 H 0.03256 0.5771 0.91412 0.0
H1783 H 0.03567 0.60646 0.88661 0.0
H1784 H 0.01581 0.67491 0.90645 0.0
C1785 C 0.00924 0.71066 0.82911 0.0
C1786 C 0.00319 0.6532 0.84726 0.0
C1787 C 0.00454 0.72377 0.81047 0.0
C1788 C 0.02434 0.59277 0.91745 0.0
C1789 C 0.02595 0.60954 0.9016 0.0
C1790 C 0.01243 0.66861 0.88997 0.0
C1791 C -0.00343 0.69146 0.83313 0.0
C1792 C 0.00285 0.67598 0.85131 0.0
C1793 C 0.01415 0.62962 0.90452 0.0
C1794 C 0.01209 0.64578 0.88601 0.0
H1795 H 0.95967 0.6948 0.78956 0.0
H1796 H 0.96776 0.67212 0.8219 0.0
H1797 H 0.00788 0.70102 0.8764 0.0
H1798 H -0.01004 0.61921 0.95472 0.0
H1799 H -0.00719 0.6483 0.92723 0.0
C1800 C 0.18599 0.30633 0.03406 0.0
C1801 C 0.20177 0.30752 0.01654 0.0
C1802 C 0.16696 0.3204 0.03457 0.0
C1803 C 0.13104 0.35607 -0.00054 0.0
H1804 H 0.1227 0.39166 0.05232 0.0
C1805 C 0.06714 0.427 -0.00148 0.0
C1806 C 0.07649 0.44712 0.00536 0.0
C1807 C 0.07782 0.40718 0.00413 0.0
C1808 C 0.12471 0.38174 0.03751 0.0
H1809 H 0.20975 0.32353 0.98547 0.0
H1810 H 0.17637 0.34784 0.98611 0.0
H1811 H 0.15051 0.3614 0.05248 0.0
H1812 H 0.10315 0.4622 0.02515 0.0
H1813 H 0.12214 0.42766 0.03446 0.0
H1814 H 0.10624 0.37689 0.98404 0.0
C1815 C 0.17865 0.33614 -0.00053 0.0
C1816 C 0.14047 0.36432 0.03766 0.0
C1817 C 0.19778 0.32233 -0.00087 0.0
C1818 C 0.09564 0.44696 0.01946 0.0
C1819 C 0.10645 0.42712 0.02492 0.0
C1820 C 0.11526 0.37335 -0.00067 0.0
C1821 C 0.16326 0.33558 0.01737 0.0
C1822 C 0.14422 0.35174 0.01842 0.0
C1823 C 0.09819 0.40709 0.01653 0.0
C1824 C 0.11231 0.38676 0.01815 0.0
H1825 H 0.18886 0.29515 0.04777 0.0
H1826 H 0.1553 0.31961 0.04851 0.0
H1827 H 0.13346 0.34651 0.98447 0.0
H1828 H 0.05212 0.42657 0.988 0.0
H1829 H 0.07072 0.39198 -0.00213 0.0
C1830 C 0.18002 0.72767 0.03784 0.0
C1831 C 0.18773 0.73457 0.01696 0.0
C1832 C 0.16232 0.71243 0.03947 0.0
C1833 C 0.14344 0.66511 0.00981 0.0
H1834 H 0.08912 0.66568 0.04683 0.0
C1835 C 0.09163 0.58721 0.02289 0.0
C1836 C 0.07062 0.58947 0.01188 0.0
C1837 C 0.10404 0.60592 0.02877 0.0
C1838 C 0.1044 0.66534 0.03666 0.0
H1839 H 0.18275 0.73202 0.98153 0.0
H1840 H 0.15178 0.70512 0.98431 0.0
H1841 H 0.11337 0.69863 0.04477 0.0
H1842 H 0.04494 0.61251 0.00023 0.0
H1843 H 0.06625 0.64525 0.01135 0.0
H1844 H 0.1348 0.63189 0.00185 0.0
C1845 C 0.15923 0.71165 -0.00063 0.0
C1846 C 0.11812 0.6841 0.03539 0.0
C1847 C 0.17672 0.72711 -0.00223 0.0
C1848 C 0.0611 0.61049 0.00882 0.0
C1849 C 0.07323 0.62915 0.0152 0.0
C1850 C 0.13008 0.6463 0.01146 0.0
C1851 C 0.15246 0.70364 0.02021 0.0
C1852 C 0.13755 0.68419 0.02168 0.0
C1853 C 0.09526 0.62699 0.02416 0.0
C1854 C 0.11039 0.6463 0.02475 0.0
H1855 H 0.18867 0.73301 0.05278 0.0
H1856 H 0.15751 0.70633 0.05568 0.0
H1857 H 0.15853 0.6647 -0.00063 0.0
H1858 H 0.09939 0.57114 0.02507 0.0
H1859 H 0.12107 0.60395 0.0356 0.0
C1860 C 0.28137 0.20795 0.01106 0.0
C1861 C 0.27704 0.21171 0.0337 0.0
C1862 C 0.3001 0.19503 0.0045 0.0
C1863 C 0.34118 0.15355 0.0257 0.0
H1864 H 0.3819 0.17555 0.98009 0.0
C1865 C 0.43264 0.12252 0.01943 0.0
C1866 C 0.43934 0.11385 -0.00122 0.0
C1867 C 0.41293 0.13537 0.02127 0.0
C1868 C 0.37054 0.16915 0.99268 0.0
H1869 H 0.28837 0.20472 0.06712 0.0
H1870 H 0.3209 0.18216 0.0558 0.0
H1871 H 0.34574 0.19482 0.9877 0.0
H1872 H 0.43166 0.11363 0.96354 0.0
H1873 H 0.3972 0.13655 0.96685 0.0
H1874 H 0.36616 0.12831 0.03115 0.0
C1875 C 0.30986 0.18896 0.04308 0.0
C1876 C 0.34983 0.18007 -0.00302 0.0
C1877 C 0.2913 0.20195 0.04959 0.0
C1878 C 0.4269 0.11993 0.97971 0.0
C1879 C 0.40718 0.13302 0.98157 0.0
C1880 C 0.36184 0.14279 0.02152 0.0
C1881 C 0.31463 0.18552 0.02047 0.0
C1882 C 0.3352 0.17265 0.01391 0.0
C1883 C 0.39956 0.14006 0.00251 0.0
C1884 C 0.37695 0.15077 0.00536 0.0
H1885 H 0.27069 0.21539 -0.00157 0.0
H1886 H 0.30326 0.19254 0.98698 0.0
H1887 H 0.33004 0.14712 0.03846 0.0
H1888 H 0.44189 0.11843 0.03445 0.0
H1889 H 0.40765 0.14101 0.03755 0.0
C1890 C 0.8627 0.30025 0.96455 0.0
C1891 C 0.85061 0.29281 0.98313 0.0
C1892 C 0.88022 0.3156 0.96696 0.0
C1893 C 0.91555 0.34487 0.00957 0.0
H1894 H 0.91709 0.39027 0.96454 0.0
C1895 C 0.96866 0.42304 0.02285 0.0
C1896 C 0.95768 0.44279 0.01693 0.0
C1897 C 0.96011 0.40287 0.01554 0.0
C1898 C 0.91684 0.3778 0.97735 0.0
H1899 H 0.84742 0.29521 0.01886 0.0
H1900 H 0.87713 0.32265 0.02306 0.0
H1901 H 0.89325 0.35828 0.95904 0.0
H1902 H 0.92986 0.45698 -0.00222 0.0
H1903 H 0.91445 0.42205 0.98585 0.0
H1904 H 0.93763 0.36529 0.02868 0.0
C1905 C 0.87385 0.31618 0.00664 0.0
C1906 C 0.90341 0.35918 0.97402 0.0
C1907 C 0.85666 0.30049 0.00426 0.0
C1908 C 0.93868 0.44204 0.00272 0.0
C1909 C 0.92995 0.42192 0.99568 0.0
C1910 C 0.92865 0.3637 0.01307 0.0
C1911 C 0.88563 0.32423 0.98798 0.0
C1912 C 0.90214 0.34268 0.99033 0.0
C1913 C 0.94022 0.40202 0.00239 0.0
C1914 C 0.92901 0.38068 -0.00276 0.0
H1915 H 0.85835 0.29444 0.9481 0.0
H1916 H 0.8892 0.32099 0.95225 0.0
H1917 H 0.91548 0.33231 0.02228 0.0
H1918 H 0.98356 0.42313 0.03354 0.0
H1919 H 0.96881 0.38793 0.02061 0.0
C1920 C 0.72725 0.82008 0.01783 0.0
C1921 C 0.73564 0.81171 -0.00228 0.0
C1922 C 0.71073 0.83674 0.01785 0.0
C1923 C 0.66305 0.85388 0.98366 0.0
H1924 H 0.65819 0.90319 0.02424 0.0
C1925 C 0.59012 0.91791 0.97941 0.0
C1926 C 0.58173 0.92656 -0.00054 0.0
C1927 C 0.60884 0.90356 0.97936 0.0
C1928 C 0.65919 0.88929 0.01302 0.0
H1929 H 0.73458 0.81457 0.962 0.0
H1930 H 0.70558 0.84385 0.96193 0.0
H1931 H 0.69335 0.88123 0.02327 0.0
H1932 H 0.58552 0.92582 0.0353 0.0
H1933 H 0.61798 0.90053 0.03515 0.0
H1934 H 0.62882 0.86155 0.97369 0.0
C1935 C 0.71178 0.8376 0.97765 0.0
C1936 C 0.67937 0.87688 0.01236 0.0
C1937 C 0.7285 0.8211 0.97766 0.0
C1938 C 0.59163 0.91957 0.01953 0.0
C1939 C 0.61038 0.90525 0.01946 0.0
C1940 C 0.64287 0.8662 0.9844 0.0
C1941 C 0.70214 0.84495 -0.00228 0.0
C1942 C 0.68148 0.8591 -0.00237 0.0
C1943 C 0.61953 0.89754 -0.00066 0.0
C1944 C 0.64071 0.88404 -0.00094 0.0
H1945 H 0.7324 0.81275 0.03344 0.0
H1946 H 0.70351 0.84203 0.03353 0.0
H1947 H 0.66402 0.83992 0.97252 0.0
H1948 H 0.58286 0.92289 0.96365 0.0
H1949 H 0.61554 0.89797 0.96357 0.0
C1950 C 0.83934 0.73086 0.97985 0.0
C1951 C 0.83698 0.7422 5e-05 0.0
C1952 C 0.85334 0.71216 0.97848 0.0
C1953 C 0.87538 0.66849 0.01446 0.0
H1954 H 0.9154 0.65383 0.96523 0.0
C1955 C 0.92045 0.58576 0.01343 0.0
C1956 C 0.94402 0.58656 0.00948 0.0
C1957 C 0.90647 0.60348 0.00763 0.0
C1958 C 0.90427 0.65772 0.97907 0.0
H1959 H 0.84815 0.74376 0.03423 0.0
H1960 H 0.87279 0.71132 0.03184 0.0
H1961 H 0.8943 0.68881 0.96513 0.0
H1962 H 0.97162 0.60565 0.99561 0.0
H1963 H 0.94726 0.63711 0.98584 0.0
H1964 H 0.88563 0.638 0.02882 0.0
C1965 C 0.86357 0.71657 0.01717 0.0
C1966 C 0.89213 0.67766 0.97895 0.0
C1967 C 0.84962 0.73521 0.01851 0.0
C1968 C 0.95335 0.60469 -0.00154 0.0
C1969 C 0.93939 0.62264 0.99291 0.0
C1970 C 0.88742 0.64867 0.01457 0.0
C1971 C 0.86512 0.70452 -0.0027 0.0
C1972 C 0.87777 0.68332 -0.00319 0.0
C1973 C 0.91596 0.62256 -0.0017 0.0
C1974 C 0.90209 0.64306 -0.00304 0.0
H1975 H 0.8298 0.73592 0.96531 0.0
H1976 H 0.85415 0.70316 0.96299 0.0
H1977 H 0.86416 0.67219 0.02828 0.0
H1978 H 0.91302 0.57182 0.02193 0.0
H1979 H 0.8884 0.60269 0.0115 0.0
C1980 C 0.26765 0.84289 0.04085 0.0
C1981 C 0.2584 0.8325 0.02216 0.0
C1982 C 0.28325 0.85996 0.03843 0.0
C1983 C 0.30689 0.90036 -0.00104 0.0
H1984 H 0.3603 0.89573 0.03687 0.0
C1985 C 0.39162 0.94834 0.98594 0.0
C1986 C 0.40318 0.95529 0.00515 0.0
C1987 C 0.37162 0.93594 0.98765 0.0
C1988 C 0.34534 0.89748 0.02639 0.0
H1989 H 0.25743 0.8323 0.98619 0.0
H1990 H 0.28495 0.86213 0.98191 0.0
H1991 H 0.32979 0.86905 0.04042 0.0
H1992 H 0.40174 0.95631 0.04114 0.0
H1993 H 0.36688 0.93494 0.04403 0.0
H1994 H 0.32287 0.92871 0.9847 0.0
C1995 C 0.27999 0.85717 -0.00154 0.0
C1996 C 0.32785 0.88218 0.02842 0.0
C1997 C 0.26431 0.84004 0.00091 0.0
C1998 C 0.39348 0.95093 0.026 0.0
C1999 C 0.37356 0.93859 0.02769 0.0
C2000 C 0.32449 0.91573 -0.0031 0.0
C2001 C 0.28999 0.86696 0.01722 0.0
C2002 C 0.30837 0.88349 0.01484 0.0
C2003 C 0.36286 0.93034 0.00859 0.0
C2004 C 0.34383 0.91449 0.01071 0.0
H2005 H 0.26326 0.8374 0.0574 0.0
H2006 H 0.29035 0.86744 0.05319 0.0
H2007 H 0.29202 0.90183 0.98833 0.0
H2008 H 0.39857 0.95155 0.96961 0.0
H2009 H 0.36373 0.92979 0.97264 0.0
C2010 C 0.74283 0.21425 0.02527 0.0
C2011 C 0.75129 0.22175 0.00494 0.0
C2012 C 0.72997 0.19499 0.02621 0.0
C2013 C 0.71185 0.14587 0.99347 0.0
H2014 H 0.65834 0.15005 0.03126 0.0
C2015 C 0.6298 0.09308 0.98429 0.0
C2016 C 0.6184 0.08709 0.0039 0.0
C2017 C 0.64947 0.10608 0.98521 0.0
C2018 C 0.6734 0.14842 0.02089 0.0
H2019 H 0.75361 0.21526 0.96976 0.0
H2020 H 0.73055 0.18185 0.97114 0.0
H2021 H 0.68617 0.17943 0.03157 0.0
H2022 H 0.61996 0.08828 0.03988 0.0
H2023 H 0.65417 0.11078 0.04139 0.0
H2024 H 0.69826 0.11509 0.98219 0.0
C2025 C 0.73425 0.19037 0.98649 0.0
C2026 C 0.68943 0.16528 0.0211 0.0
C2027 C 0.74734 0.20952 0.98562 0.0
C2028 C 0.62806 0.09292 0.02443 0.0
C2029 C 0.64764 0.10587 0.02533 0.0
C2030 C 0.69563 0.12901 0.99313 0.0
C2031 C 0.72499 0.18312 0.00674 0.0
C2032 C 0.70882 0.16432 0.00733 0.0
C2033 C 0.65806 0.11326 0.00575 0.0
C2034 C 0.67619 0.13019 0.0068 0.0
H2035 H 0.74575 0.22357 0.04032 0.0
H2036 H 0.72352 0.18968 0.04215 0.0
H2037 H 0.72671 0.14447 0.98282 0.0
H2038 H 0.62291 0.08873 0.96821 0.0
H2039 H 0.65714 0.11154 0.96984 0.0
C2040 C 0.55403 0.70492 0.8063 0.0
C2041 C 0.53743 0.71295 0.79156 0.0
C2042 C 0.54959 0.68664 0.81957 0.0
C2043 C 0.50178 0.65761 0.84546 0.0
H2044 H 0.5494 0.61608 0.86205 0.0
C2045 C 0.4877 0.59288 0.91415 0.0
C2046 C 0.50508 0.59213 0.9303 0.0
C2047 C 0.49116 0.60385 0.89404 0.0
C2048 C 0.53593 0.62755 0.8576 0.0
H2049 H 0.50328 0.70779 0.77857 0.0
H2050 H 0.49542 0.67571 0.80187 0.0
H2051 H 0.55616 0.64205 0.83194 0.0
H2052 H 0.54011 0.60131 0.93746 0.0
H2053 H 0.54613 0.6204 0.90246 0.0
H2054 H 0.48179 0.64352 0.87152 0.0
C2055 C 0.51189 0.68365 0.80322 0.0
C2056 C 0.53979 0.64244 0.84035 0.0
C2057 C 0.51644 0.70194 0.78979 0.0
C2058 C 0.52633 0.60167 0.92544 0.0
C2059 C 0.52983 0.6125 0.90529 0.0
C2060 C 0.4979 0.64268 0.86268 0.0
C2061 C 0.52833 0.67599 0.8185 0.0
C2062 C 0.523 0.65806 0.83447 0.0
C2063 C 0.51213 0.61414 0.88955 0.0
C2064 C 0.51515 0.62787 0.86934 0.0
H2065 H 0.57032 0.71316 0.80801 0.0
H2066 H 0.56252 0.68143 0.83134 0.0
H2067 H 0.48856 0.66954 0.84155 0.0
H2068 H 0.47115 0.58558 0.91729 0.0
H2069 H 0.47729 0.60459 0.88215 0.0
C2070 C 0.33032 0.55751 0.8071 0.0
C2071 C 0.32847 0.54039 0.7916 0.0
C2072 C 0.34894 0.55839 0.82151 0.0
C2073 C 0.40618 0.53407 0.83421 0.0
H2074 H 0.38776 0.54646 0.89475 0.0
C2075 C 0.45595 0.50527 0.91191 0.0
C2076 C 0.45539 0.51866 0.93093 0.0
C2077 C 0.44411 0.51151 0.89275 0.0
C2078 C 0.39338 0.5434 0.8779 0.0
H2079 H 0.34497 0.51138 0.77812 0.0
H2080 H 0.37741 0.51245 0.80383 0.0
H2081 H 0.36022 0.55062 0.86502 0.0
H2082 H 0.44335 0.54983 0.94421 0.0
H2083 H 0.42302 0.56082 0.91071 0.0
H2084 H 0.43922 0.52599 0.84751 0.0
C2085 C 0.3647 0.52547 0.8046 0.0
C2086 C 0.37754 0.54579 0.86078 0.0
C2087 C 0.34613 0.52476 0.78994 0.0
C2088 C 0.44401 0.53906 0.92991 0.0
C2089 C 0.43224 0.54531 0.91075 0.0
C2090 C 0.42206 0.53158 0.85143 0.0
C2091 C 0.36596 0.54195 0.82099 0.0
C2092 C 0.38363 0.54095 0.83874 0.0
C2093 C 0.43151 0.53126 0.89223 0.0
C2094 C 0.41573 0.53599 0.8735 0.0
H2095 H 0.31699 0.5699 0.80845 0.0
H2096 H 0.34964 0.57163 0.83351 0.0
H2097 H 0.4115 0.53045 0.81739 0.0
H2098 H 0.46467 0.4895 0.9121 0.0
H2099 H 0.4438 0.50026 0.87882 0.0
C2100 C 0.45866 0.31187 0.81277 0.0
C2101 C 0.47514 0.30776 0.7963 0.0
C2102 C 0.46044 0.3302 0.82663 0.0
C2103 C 0.49092 0.38307 0.83627 0.0
H2104 H 0.48158 0.36763 0.89797 0.0
C2105 C 0.52383 0.4356 0.91041 0.0
C2106 C 0.51072 0.43593 0.92998 0.0
C2107 C 0.51733 0.4225 0.89236 0.0
C2108 C 0.48388 0.37244 0.88084 0.0
H2109 H 0.50562 0.32036 0.78051 0.0
H2110 H 0.5089 0.35245 0.8049 0.0
H2111 H 0.47379 0.34076 0.86928 0.0
H2112 H 0.47967 0.42386 0.94532 0.0
H2113 H 0.46819 0.40139 0.91384 0.0
H2114 H 0.50144 0.41475 0.8481 0.0
C2115 C 0.49446 0.34158 0.80698 0.0
C2116 C 0.47939 0.35697 0.8643 0.0
C2117 C 0.49258 0.32322 0.79297 0.0
C2118 C 0.49036 0.42377 0.93064 0.0
C2119 C 0.48383 0.41077 0.9126 0.0
C2120 C 0.4954 0.39865 0.8529 0.0
C2121 C 0.47888 0.34482 0.82452 0.0
C2122 C 0.48286 0.362 0.84179 0.0
C2123 C 0.49754 0.40947 0.89344 0.0
C2124 C 0.49197 0.39349 0.87542 0.0
H2125 H 0.44491 0.30033 0.81556 0.0
H2126 H 0.44779 0.33248 0.83956 0.0
H2127 H 0.49365 0.38755 0.81911 0.0
H2128 H 0.53957 0.44485 0.90931 0.0
H2129 H 0.52838 0.42186 0.87795 0.0
C2130 C 0.67812 0.47685 0.80124 0.0
C2131 C 0.69161 0.49582 0.8005 0.0
C2132 C 0.65852 0.47635 0.81462 0.0
C2133 C 0.61853 0.51186 0.84684 0.0
H2134 H 0.61659 0.46286 0.8879 0.0
C2135 C 0.55816 0.5144 0.92155 0.0
C2136 C 0.56909 0.50989 0.94182 0.0
C2137 C 0.56846 0.50842 0.90149 0.0
C2138 C 0.6168 0.47659 0.87647 0.0
H2139 H 0.69507 0.52931 0.81208 0.0
H2140 H 0.66091 0.52863 0.83519 0.0
H2141 H 0.64312 0.46182 0.85662 0.0
H2142 H 0.59854 0.49405 0.95698 0.0
H2143 H 0.61658 0.48386 0.92211 0.0
H2144 H 0.59331 0.52728 0.86734 0.0
C2145 C 0.66512 0.51418 0.82546 0.0
C2146 C 0.63182 0.47589 0.85841 0.0
C2147 C 0.68471 0.51459 0.81231 0.0
C2148 C 0.58968 0.49784 0.94167 0.0
C2149 C 0.59999 0.49189 0.92162 0.0
C2150 C 0.60353 0.51256 0.86485 0.0
C2151 C 0.65211 0.49489 0.82723 0.0
C2152 C 0.63335 0.49383 0.84381 0.0
C2153 C 0.5899 0.4978 0.90128 0.0
C2154 C 0.60297 0.49522 0.88026 0.0
H2155 H 0.68335 0.46214 0.7924 0.0
H2156 H 0.64875 0.4613 0.81559 0.0
H2157 H 0.61916 0.52585 0.83575 0.0
H2158 H 0.54213 0.52343 0.9211 0.0
H2159 H 0.56003 0.51284 0.88612 0.0
C2160 C 0.47959 0.32865 0.21172 0.0
C2161 C 0.50121 0.32481 0.22125 0.0
C2162 C 0.47649 0.34571 0.19628 0.0
C2163 C 0.50086 0.39817 0.17746 0.0
H2164 H 0.4798 0.38275 0.1185 0.0
C2165 C 0.52844 0.4462 0.10092 0.0
C2166 C 0.51372 0.44887 0.08268 0.0
C2167 C 0.52195 0.43368 0.11919 0.0
C2168 C 0.48521 0.38753 0.13498 0.0
H2169 H 0.53624 0.33595 0.22266 0.0
H2170 H 0.53065 0.36623 0.19658 0.0
H2171 H 0.47731 0.3558 0.14858 0.0
H2172 H 0.48024 0.44102 0.06964 0.0
H2173 H 0.46878 0.41873 0.1018 0.0
H2174 H 0.50922 0.42964 0.16401 0.0
C2175 C 0.51616 0.35603 0.20077 0.0
C2176 C 0.48383 0.37205 0.1522 0.0
C2177 C 0.51938 0.33869 0.21567 0.0
C2178 C 0.49191 0.43928 0.08348 0.0
C2179 C 0.48545 0.42641 0.10181 0.0
C2180 C 0.50204 0.41366 0.16039 0.0
C2181 C 0.4948 0.35954 0.19061 0.0
C2182 C 0.49238 0.37698 0.17343 0.0
C2183 C 0.50054 0.42328 0.11982 0.0
C2184 C 0.49506 0.40829 0.1387 0.0
H2185 H 0.46537 0.31795 0.21551 0.0
H2186 H 0.45986 0.34802 0.18866 0.0
H2187 H 0.50726 0.40254 0.19373 0.0
H2188 H 0.54532 0.45348 0.1009 0.0
H2189 H 0.5342 0.43145 0.13249 0.0
C2190 C 0.68459 0.4902 0.2186 0.0
C2191 C 0.70064 0.50698 0.2152 0.0
C2192 C 0.66742 0.48634 0.20288 0.0
C2193 C 0.65589 0.49579 0.1434 0.0
H2194 H 0.59305 0.48196 0.15803 0.0
C2195 C 0.59071 0.49038 0.0739 0.0
C2196 C 0.57175 0.50404 0.07782 0.0
C2197 C 0.60443 0.48343 0.09163 0.0
C2198 C 0.61058 0.48567 0.15367 0.0
H2199 H 0.71042 0.53385 0.19373 0.0
H2200 H 0.68025 0.52752 0.16664 0.0
H2201 H 0.62098 0.48699 0.18776 0.0
H2202 H 0.55073 0.51928 0.10317 0.0
H2203 H 0.5746 0.50755 0.13392 0.0
H2204 H 0.64548 0.4958 0.10953 0.0
C2205 C 0.6813 0.51683 0.18096 0.0
C2206 C 0.6266 0.48844 0.17071 0.0
C2207 C 0.69846 0.52058 0.19654 0.0
C2208 C 0.56539 0.50881 0.09976 0.0
C2209 C 0.57903 0.50193 0.11742 0.0
C2210 C 0.63994 0.49311 0.12644 0.0
C2211 C 0.66601 0.49925 0.18358 0.0
C2212 C 0.64929 0.49418 0.16574 0.0
C2213 C 0.59942 0.4902 0.11348 0.0
C2214 C 0.61693 0.48859 0.13134 0.0
H2215 H 0.686 0.47942 0.23282 0.0
H2216 H 0.6559 0.47269 0.20539 0.0
H2217 H 0.67337 0.49967 0.13897 0.0
H2218 H 0.59613 0.48677 0.05714 0.0
H2219 H 0.6198 0.47404 0.08806 0.0
C2220 C 0.51878 0.71632 0.22317 0.0
C2221 C 0.53793 0.73003 0.22168 0.0
C2222 C 0.51709 0.69761 0.20963 0.0
C2223 C 0.53979 0.67675 0.15593 0.0
H2224 H 0.50645 0.62405 0.17139 0.0
C2225 C 0.52991 0.60425 0.09445 0.0
C2226 C 0.5075 0.59635 0.09191 0.0
C2227 C 0.53533 0.61857 0.1119 0.0
C2228 C 0.51577 0.6387 0.16683 0.0
H2229 H 0.57089 0.7344 0.20606 0.0
H2230 H 0.56854 0.70137 0.18322 0.0
H2231 H 0.51337 0.65209 0.19966 0.0
H2232 H 0.47345 0.59661 0.10623 0.0
H2233 H 0.48297 0.62136 0.13671 0.0
H2234 H 0.54214 0.6634 0.12313 0.0
C2235 C 0.55443 0.70525 0.19421 0.0
C2236 C 0.51969 0.65483 0.18302 0.0
C2237 C 0.55596 0.72402 0.20751 0.0
C2238 C 0.49085 0.60251 0.10762 0.0
C2239 C 0.49634 0.61657 0.1252 0.0
C2240 C 0.53606 0.66057 0.13985 0.0
C2241 C 0.53461 0.69221 0.19444 0.0
C2242 C 0.53158 0.6742 0.17775 0.0
C2243 C 0.51855 0.62505 0.12737 0.0
C2244 C 0.5238 0.64146 0.14502 0.0
H2245 H 0.50452 0.72083 0.23375 0.0
H2246 H 0.50149 0.68812 0.21023 0.0
H2247 H 0.54853 0.6916 0.15098 0.0
H2248 H 0.54313 0.59982 0.08265 0.0
H2249 H 0.55264 0.62467 0.11321 0.0
C2250 C 0.35944 0.5676 0.23125 0.0
C2251 C 0.34418 0.55094 0.2372 0.0
C2252 C 0.37282 0.56556 0.21216 0.0
C2253 C 0.39141 0.52476 0.16934 0.0
H2254 H 0.40394 0.57722 0.13489 0.0
C2255 C 0.4228 0.52025 0.08007 0.0
C2256 C 0.44511 0.52822 0.07759 0.0
C2257 C 0.40994 0.52582 0.09871 0.0
C2258 C 0.40054 0.56252 0.14445 0.0
H2259 H 0.3311 0.51884 0.22817 0.0
H2260 H 0.35326 0.51579 0.19432 0.0
H2261 H 0.38295 0.58037 0.16984 0.0
H2262 H 0.47161 0.54803 0.09243 0.0
H2263 H 0.44856 0.55882 0.12474 0.0
H2264 H 0.40814 0.50692 0.1433 0.0
C2265 C 0.35568 0.53017 0.20463 0.0
C2266 C 0.38873 0.56426 0.16455 0.0
C2267 C 0.34277 0.53198 0.22401 0.0
C2268 C 0.45403 0.54269 0.09346 0.0
C2269 C 0.44101 0.54854 0.11204 0.0
C2270 C 0.40272 0.52301 0.14908 0.0
C2271 C 0.3708 0.54701 0.19834 0.0
C2272 C 0.38395 0.54536 0.17725 0.0
C2273 C 0.4192 0.53949 0.11511 0.0
C2274 C 0.4073 0.54184 0.13649 0.0
H2275 H 0.3609 0.58231 0.2413 0.0
H2276 H 0.38465 0.57862 0.20823 0.0
H2277 H 0.38865 0.50989 0.17881 0.0
H2278 H 0.41575 0.50882 0.06812 0.0
H2279 H 0.39314 0.51867 0.10083 0.0
C2280 C 0.78227 0.49575 0.70483 0.0
C2281 C 0.77296 0.5162 0.71106 0.0
C2282 C 0.80287 0.49472 0.69303 0.0
C2283 C 0.8547 0.52742 0.68205 0.0
H2284 H 0.8638 0.48681 0.63322 0.0
C2285 C 0.92847 0.53434 0.61874 0.0
C2286 C 0.93766 0.51484 0.60978 0.0
C2287 C 0.9102 0.53357 0.63367 0.0
C2288 C 0.86168 0.49799 0.64708 0.0
H2289 H 0.77727 0.55148 0.7093 0.0
H2290 H 0.81298 0.54973 0.68842 0.0
H2291 H 0.82739 0.48725 0.65295 0.0
H2292 H 0.93613 0.47917 0.61105 0.0
H2293 H 0.90453 0.47791 0.63728 0.0
H2294 H 0.88888 0.53838 0.67598 0.0
C2295 C 0.80471 0.5345 0.69298 0.0
C2296 C 0.84078 0.49827 0.65833 0.0
C2297 C 0.78417 0.53552 0.70474 0.0
C2298 C 0.92935 0.49454 0.61743 0.0
C2299 C 0.91108 0.49379 0.63233 0.0
C2300 C 0.87559 0.52715 0.6708 0.0
C2301 C 0.8145 0.5141 0.6873 0.0
C2302 C 0.83696 0.51316 0.67579 0.0
C2303 C 0.90078 0.51329 0.63999 0.0
C2304 C 0.87926 0.51256 0.65307 0.0
H2305 H 0.77401 0.48057 0.70954 0.0
H2306 H 0.81002 0.47874 0.68897 0.0
H2307 H 0.85245 0.5388 0.69572 0.0
H2308 H 0.93445 0.55026 0.61326 0.0
H2309 H 0.90262 0.5489 0.63924 0.0
C2310 C 0.499 0.81355 0.70186 0.0
C2311 C 0.51926 0.80393 0.70987 0.0
C2312 C 0.49938 0.82678 0.68287 0.0
C2313 C 0.53854 0.86455 0.65652 0.0
H2314 H 0.49384 0.86818 0.60908 0.0
C2315 C 0.53279 0.94096 0.60176 0.0
C2316 C 0.5325 0.93741 0.57873 0.0
C2317 C 0.52886 0.92366 0.61643 0.0
C2318 C 0.50647 0.86729 0.6222 0.0
H2319 H 0.55554 0.79971 0.70416 0.0
H2320 H 0.55633 0.82291 0.671 0.0
H2321 H 0.49214 0.83775 0.63582 0.0
H2322 H 0.52647 0.91313 0.55303 0.0
H2323 H 0.51975 0.88276 0.5788 0.0
H2324 H 0.55278 0.89402 0.6433 0.0
C2325 C 0.54012 0.82013 0.67922 0.0
C2326 C 0.50545 0.84996 0.6375 0.0
C2327 C 0.53967 0.80671 0.69802 0.0
C2328 C 0.52695 0.91638 0.57069 0.0
C2329 C 0.52301 0.899 0.58543 0.0
C2330 C 0.5394 0.88191 0.64147 0.0
C2331 C 0.52014 0.83092 0.67191 0.0
C2332 C 0.52153 0.84842 0.6548 0.0
C2333 C 0.52456 0.90235 0.60846 0.0
C2334 C 0.52333 0.88359 0.6242 0.0
H2335 H 0.48317 0.81186 0.71103 0.0
H2336 H 0.48377 0.83498 0.67772 0.0
H2337 H 0.55095 0.86403 0.66986 0.0
H2338 H 0.53663 0.95703 0.60853 0.0
H2339 H 0.52965 0.92687 0.63409 0.0
C2340 C 0.25555 0.52528 0.6832 0.0
C2341 C 0.25976 0.54731 0.68886 0.0
C2342 C 0.24056 0.52022 0.66584 0.0
C2343 C 0.21231 0.54372 0.61639 0.0
H2344 H 0.16289 0.50378 0.63029 0.0
C2345 C 0.1262 0.54573 0.57066 0.0
C2346 C 0.11475 0.52587 0.56667 0.0
C2347 C 0.14641 0.54596 0.583 0.0
C2348 C 0.1768 0.51464 0.62594 0.0
H2349 H 0.25234 0.58123 0.68063 0.0
H2350 H 0.22651 0.57248 0.65012 0.0
H2351 H 0.19443 0.50817 0.65642 0.0
H2352 H 0.116 0.49054 0.57192 0.0
H2353 H 0.15134 0.49101 0.5934 0.0
H2354 H 0.19448 0.55059 0.58616 0.0
C2355 C 0.23475 0.55911 0.65897 0.0
C2356 C 0.19486 0.51715 0.64091 0.0
C2357 C 0.24944 0.56413 0.67646 0.0
C2358 C 0.12435 0.50616 0.57473 0.0
C2359 C 0.14453 0.50641 0.58716 0.0
C2360 C 0.19432 0.54116 0.60139 0.0
C2361 C 0.22985 0.53712 0.6537 0.0
C2362 C 0.21249 0.53213 0.63653 0.0
C2363 C 0.15563 0.52636 0.59165 0.0
C2364 C 0.17608 0.52702 0.60625 0.0
H2365 H 0.26316 0.51196 0.69262 0.0
H2366 H 0.23713 0.50313 0.66208 0.0
H2367 H 0.22587 0.55514 0.61244 0.0
H2368 H 0.11932 0.5612 0.56465 0.0
H2369 H 0.15439 0.56164 0.58638 0.0
C2370 C 0.47715 0.22628 0.69288 0.0
C2371 C 0.49879 0.2322 0.70106 0.0
C2372 C 0.47523 0.21052 0.67592 0.0
C2373 C 0.50879 0.18311 0.63142 0.0
H2374 H 0.46653 0.13472 0.63844 0.0
C2375 C 0.51091 0.11228 0.56918 0.0
C2376 C 0.51043 0.09106 0.57822 0.0
C2377 C 0.50404 0.13045 0.58181 0.0
C2378 C 0.47843 0.14811 0.63621 0.0
H2379 H 0.53523 0.22671 0.69777 0.0
H2380 H 0.532 0.19967 0.66815 0.0
H2381 H 0.46578 0.16531 0.66487 0.0
H2382 H 0.50154 0.07186 0.60707 0.0
H2383 H 0.49023 0.10366 0.62961 0.0
H2384 H 0.52231 0.16574 0.60359 0.0
C2385 C 0.51649 0.2071 0.67463 0.0
C2386 C 0.47782 0.16577 0.65123 0.0
C2387 C 0.51837 0.22256 0.69166 0.0
C2388 C 0.50177 0.0881 0.59969 0.0
C2389 C 0.49528 0.10637 0.61256 0.0
C2390 C 0.50942 0.16555 0.61647 0.0
C2391 C 0.49492 0.20067 0.66666 0.0
C2392 C 0.49337 0.18325 0.64929 0.0
C2393 C 0.49717 0.12789 0.60405 0.0
C2394 C 0.49453 0.14757 0.61882 0.0
H2395 H 0.46174 0.23331 0.69998 0.0
H2396 H 0.45837 0.20599 0.67009 0.0
H2397 H 0.52083 0.19641 0.62926 0.0
H2398 H 0.51755 0.11491 0.55262 0.0
H2399 H 0.5051 0.14662 0.57441 0.0
C2400 C 0.77289 0.47845 0.331 0.0
C2401 C 0.76171 0.4963 0.32096 0.0
C2402 C 0.78918 0.48192 0.34751 0.0
C2403 C 0.81196 0.5229 0.38715 0.0
H2404 H 0.86692 0.48719 0.382 0.0
C2405 C 0.89632 0.53767 0.43672 0.0
C2406 C 0.90735 0.51869 0.44485 0.0
C2407 C 0.87705 0.53586 0.42304 0.0
C2408 C 0.85159 0.49714 0.38381 0.0
H2409 H 0.75809 0.53183 0.32084 0.0
H2410 H 0.78682 0.53796 0.34963 0.0
H2411 H 0.83599 0.48231 0.35555 0.0
H2412 H 0.90595 0.48299 0.44596 0.0
H2413 H 0.87257 0.47997 0.42224 0.0
H2414 H 0.82797 0.53791 0.41537 0.0
C2415 C 0.78285 0.52124 0.34486 0.0
C2416 C 0.83383 0.49431 0.36868 0.0
C2417 C 0.76645 0.51773 0.32832 0.0
C2418 C 0.89809 0.49798 0.43983 0.0
C2419 C 0.87899 0.4962 0.42613 0.0
C2420 C 0.82986 0.52581 0.4023 0.0
C2421 C 0.79475 0.50337 0.35428 0.0
C2422 C 0.81369 0.50695 0.3703 0.0
C2423 C 0.86858 0.51506 0.41718 0.0
C2424 C 0.84973 0.51275 0.40091 0.0
H2425 H 0.76945 0.46177 0.32566 0.0
H2426 H 0.79768 0.46778 0.35476 0.0
H2427 H 0.79662 0.53283 0.38889 0.0
H2428 H 0.90296 0.55387 0.44033 0.0
H2429 H 0.86935 0.55068 0.41634 0.0
C2430 C 0.53022 0.8077 0.32744 0.0
C2431 C 0.55061 0.81027 0.3154 0.0
C2432 C 0.52526 0.82159 0.34546 0.0
C2433 C 0.55185 0.86271 0.38378 0.0
H2434 H 0.49045 0.88698 0.38681 0.0
C2435 C 0.53071 0.94595 0.42525 0.0
C2436 C 0.51027 0.94805 0.43739 0.0
C2437 C 0.53575 0.92657 0.41369 0.0
C2438 C 0.50759 0.88012 0.38645 0.0
H2439 H 0.58198 0.82883 0.31305 0.0
H2440 H 0.57337 0.85306 0.34406 0.0
H2441 H 0.4989 0.85735 0.36073 0.0
H2442 H 0.47938 0.9311 0.44735 0.0
H2443 H 0.4881 0.89732 0.42688 0.0
H2444 H 0.56069 0.88611 0.40893 0.0
C2445 C 0.56127 0.84025 0.34001 0.0
C2446 C 0.51245 0.86307 0.37151 0.0
C2447 C 0.56617 0.82644 0.32209 0.0
C2448 C 0.49524 0.93007 0.43811 0.0
C2449 C 0.50018 0.91075 0.42631 0.0
C2450 C 0.54703 0.87985 0.3986 0.0
C2451 C 0.54061 0.83827 0.35179 0.0
C2452 C 0.53477 0.85445 0.36961 0.0
C2453 C 0.52038 0.90886 0.41376 0.0
C2454 C 0.52495 0.88907 0.3998 0.0
H2455 H 0.51788 0.79535 0.32267 0.0
H2456 H 0.50931 0.81941 0.35429 0.0
H2457 H 0.56912 0.85618 0.38316 0.0
H2458 H 0.5427 0.95944 0.42436 0.0
H2459 H 0.55136 0.92575 0.40403 0.0
C2460 C 0.23432 0.51551 0.30831 0.0
C2461 C 0.2374 0.53498 0.2963 0.0
C2462 C 0.21556 0.51342 0.32251 0.0
C2463 C 0.15743 0.53622 0.3283 0.0
H2464 H 0.15677 0.50378 0.38357 0.0
C2465 C 0.08403 0.53816 0.39217 0.0
C2466 C 0.07917 0.51855 0.4035 0.0
C2467 C 0.10171 0.53879 0.37663 0.0
C2468 C 0.15669 0.5126 0.36796 0.0
H2469 H 0.22481 0.568 0.29058 0.0
H2470 H 0.19255 0.56478 0.31605 0.0
H2471 H 0.19292 0.50899 0.36404 0.0
H2472 H 0.08735 0.4837 0.40565 0.0
H2473 H 0.11824 0.48494 0.37859 0.0
H2474 H 0.12127 0.54023 0.33254 0.0
C2475 C 0.20406 0.55088 0.31411 0.0
C2476 C 0.17737 0.51565 0.35685 0.0
C2477 C 0.22262 0.55286 0.29979 0.0
C2478 C 0.0908 0.49914 0.3974 0.0
C2479 C 0.10862 0.49984 0.38204 0.0
C2480 C 0.13681 0.53331 0.33949 0.0
C2481 C 0.19977 0.53084 0.32487 0.0
C2482 C 0.17798 0.52765 0.33698 0.0
C2483 C 0.11483 0.51985 0.37227 0.0
C2484 C 0.13627 0.52154 0.35945 0.0
H2485 H 0.24548 0.50148 0.30556 0.0
H2486 H 0.2127 0.49776 0.33054 0.0
H2487 H 0.15722 0.54507 0.31272 0.0
H2488 H 0.07525 0.55335 0.39634 0.0
H2489 H 0.10613 0.55443 0.36924 0.0
C2490 C 0.50524 0.23723 0.31753 0.0
C2491 C 0.4872 0.23308 0.30274 0.0
C2492 C 0.50737 0.22504 0.3372 0.0
C2493 C 0.47576 0.18684 0.37459 0.0
H2494 H 0.53593 0.16276 0.38717 0.0
C2495 C 0.48874 0.124 0.44517 0.0
C2496 C 0.50305 0.1059 0.44049 0.0
C2497 C 0.48834 0.14237 0.43118 0.0
C2498 C 0.51898 0.16927 0.38388 0.0
H2499 H 0.45673 0.21376 0.29731 0.0
H2500 H 0.46022 0.19273 0.33148 0.0
H2501 H 0.53131 0.19001 0.35782 0.0
H2502 H 0.52892 0.09345 0.41784 0.0
H2503 H 0.52777 0.12508 0.39321 0.0
H2504 H 0.46317 0.16537 0.39975 0.0
C2505 C 0.47272 0.20537 0.32815 0.0
C2506 C 0.51639 0.18517 0.36722 0.0
C2507 C 0.47072 0.21738 0.30851 0.0
C2508 C 0.51762 0.10704 0.42196 0.0
C2509 C 0.51707 0.12532 0.40786 0.0
C2510 C 0.47833 0.17093 0.39116 0.0
C2511 C 0.49137 0.20862 0.34252 0.0
C2512 C 0.49465 0.19383 0.36205 0.0
C2513 C 0.50212 0.1431 0.41204 0.0
C2514 C 0.49991 0.16159 0.3958 0.0
H2515 H 0.51833 0.24905 0.31332 0.0
H2516 H 0.52182 0.22812 0.34798 0.0
H2517 H 0.45882 0.19334 0.37128 0.0
H2518 H 0.47753 0.12384 0.45948 0.0
H2519 H 0.47699 0.15592 0.43528 0.0
C2520 C 0.70261 0.81148 0.50079 0.0
C2521 C 0.72242 0.81544 0.51333 0.0
C2522 C 0.68318 0.82493 0.50331 0.0
C2523 C 0.66841 0.8815 0.52105 0.0
H2524 H 0.60598 0.86214 0.51263 0.0
C2525 C 0.59373 0.9442 0.5179 0.0
C2526 C 0.57817 0.94105 0.50041 0.0
C2527 C 0.60932 0.92753 0.52372 0.0
C2528 C 0.62333 0.86785 0.51495 0.0
H2529 H 0.73679 0.8354 0.53957 0.0
H2530 H 0.70288 0.8585 0.54433 0.0
H2531 H 0.63683 0.83497 0.51495 0.0
H2532 H 0.56596 0.91738 0.47623 0.0
H2533 H 0.59308 0.88869 0.48612 0.0
H2534 H 0.65512 0.91435 0.52042 0.0
C2535 C 0.70247 0.84548 0.53208 0.0
C2536 C 0.64103 0.85224 0.51626 0.0
C2537 C 0.72186 0.83214 0.52947 0.0
C2538 C 0.57775 0.92047 0.48973 0.0
C2539 C 0.59327 0.90387 0.49553 0.0
C2540 C 0.65075 0.89708 0.51971 0.0
C2541 C 0.68313 0.84256 0.51851 0.0
C2542 C 0.66388 0.85887 0.519 0.0
C2543 C 0.60966 0.90731 0.51223 0.0
C2544 C 0.62799 0.89052 0.51626 0.0
H2545 H 0.70261 0.79885 0.4881 0.0
H2546 H 0.66869 0.82224 0.49247 0.0
H2547 H 0.68579 0.88732 0.52279 0.0
H2548 H 0.59441 0.95979 0.52658 0.0
H2549 H 0.62143 0.93064 0.53693 0.0
C2550 C 0.71393 0.20624 0.48371 0.0
C2551 C 0.71814 0.22426 0.49767 0.0
C2552 C 0.69628 0.1917 0.48839 0.0
C2553 C 0.64282 0.1818 0.51717 0.0
H2554 H 0.66513 0.12155 0.51713 0.0
C2555 C 0.5831 0.10551 0.52651 0.0
C2556 C 0.58621 0.09096 0.50865 0.0
C2557 C 0.59919 0.12216 0.5305 0.0
C2558 C 0.65865 0.13828 0.51738 0.0
H2559 H 0.7061 0.24222 0.52647 0.0
H2560 H 0.67459 0.21673 0.5345 0.0
H2561 H 0.69195 0.15166 0.51223 0.0
H2562 H 0.60856 0.08161 0.48159 0.0
H2563 H 0.63668 0.10994 0.48879 0.0
H2564 H 0.60925 0.16816 0.52122 0.0
C2565 C 0.68523 0.21388 0.52007 0.0
C2566 C 0.67397 0.15549 0.5145 0.0
C2567 C 0.70312 0.22849 0.51541 0.0
C2568 C 0.60594 0.09256 0.49558 0.0
C2569 C 0.62205 0.10876 0.49975 0.0
C2570 C 0.62735 0.16445 0.51994 0.0
C2571 C 0.68232 0.19489 0.50708 0.0
C2572 C 0.66614 0.17735 0.51354 0.0
C2573 C 0.61871 0.12404 0.51695 0.0
C2574 C 0.63507 0.14248 0.51922 0.0
H2575 H 0.72509 0.20277 0.46977 0.0
H2576 H 0.69406 0.17744 0.47783 0.0
H2577 H 0.63641 0.19854 0.51659 0.0
H2578 H 0.56777 0.10476 0.53655 0.0
H2579 H 0.59621 0.13376 0.54385 0.0
C2580 C 0.80225 0.71084 0.50312 0.0
C2581 C 0.79682 0.71899 0.48198 0.0
C2582 C 0.81783 0.69335 0.50551 0.0
C2583 C 0.86417 0.66358 0.47457 0.0
H2584 H 0.85856 0.62223 0.52301 0.0
C2585 C 0.93716 0.60271 0.49844 0.0
C2586 C 0.93124 0.58289 0.50873 0.0
C2587 C 0.92019 0.61825 0.49311 0.0
C2588 C 0.8603 0.63335 0.50911 0.0
H2589 H 0.80277 0.71489 0.4468 0.0
H2590 H 0.82905 0.6839 0.45079 0.0
H2591 H 0.82957 0.65045 0.51802 0.0
H2592 H 0.90321 0.56305 0.5205 0.0
H2593 H 0.87347 0.58934 0.51 0.0
H2594 H 0.89446 0.64595 0.46519 0.0
C2595 C 0.822 0.69131 0.46565 0.0
C2596 C 0.84377 0.6499 0.5065 0.0
C2597 C 0.80671 0.70894 0.46331 0.0
C2598 C 0.90811 0.57826 0.51249 0.0
C2599 C 0.89113 0.59352 0.50678 0.0
C2600 C 0.88056 0.64684 0.47702 0.0
C2601 C 0.82813 0.68345 0.4868 0.0
C2602 C 0.8455 0.66538 0.48928 0.0
C2603 C 0.89692 0.61411 0.49774 0.0
C2604 C 0.87896 0.63151 0.49441 0.0
H2605 H 0.79508 0.71841 0.51785 0.0
H2606 H 0.82227 0.68807 0.52211 0.0
H2607 H 0.86641 0.67533 0.46128 0.0
H2608 H 0.95498 0.60673 0.49573 0.0
H2609 H 0.92549 0.63391 0.48639 0.0
C2610 C 0.3253 0.80669 0.52009 0.0
C2611 C 0.31188 0.80617 0.50076 0.0
C2612 C 0.34395 0.82105 0.52166 0.0
C2613 C 0.36478 0.87306 0.49716 0.0
H2614 H 0.42127 0.859 0.52784 0.0
C2615 C 0.43858 0.93511 0.50012 0.0
C2616 C 0.44891 0.93829 0.52092 0.0
C2617 C 0.42414 0.9172 0.49647 0.0
C2618 C 0.40554 0.86321 0.51932 0.0
H2619 H 0.30794 0.81942 0.46768 0.0
H2620 H 0.34062 0.84396 0.47013 0.0
H2621 H 0.39172 0.83094 0.52399 0.0
H2622 H 0.45312 0.92439 0.55382 0.0
H2623 H 0.42778 0.89335 0.54751 0.0
H2624 H 0.37831 0.90532 0.4927 0.0
C2625 C 0.33656 0.83378 0.48431 0.0
C2626 C 0.38858 0.84713 0.51715 0.0
C2627 C 0.31793 0.81959 0.48282 0.0
C2628 C 0.44535 0.92253 0.53762 0.0
C2629 C 0.4309 0.90462 0.53396 0.0
C2630 C 0.38169 0.88907 0.4993 0.0
C2631 C 0.34953 0.8351 0.50391 0.0
C2632 C 0.36796 0.85187 0.50604 0.0
C2633 C 0.41967 0.90201 0.51351 0.0
C2634 C 0.40227 0.88441 0.51044 0.0
H2635 H 0.32097 0.79658 0.53424 0.0
H2636 H 0.35345 0.82173 0.53706 0.0
H2637 H 0.34895 0.87752 0.48894 0.0
H2638 H 0.44113 0.94679 0.48681 0.0
H2639 H 0.41615 0.91545 0.48036 0.0
C2640 C 0.22119 0.32001 0.52905 0.0
C2641 C 0.21709 0.30209 0.5149 0.0
C2642 C 0.20706 0.33872 0.52819 0.0
C2643 C 0.14838 0.35412 0.51167 0.0
H2644 H 0.16959 0.41423 0.51591 0.0
C2645 C 0.09114 0.42817 0.48951 0.0
C2646 C 0.09383 0.448 0.50119 0.0
C2647 C 0.10566 0.4103 0.49359 0.0
C2648 C 0.16334 0.39752 0.51509 0.0
H2649 H 0.19625 0.29023 0.48777 0.0
H2650 H 0.17197 0.32291 0.48594 0.0
H2651 H 0.19723 0.38395 0.51731 0.0
H2652 H 0.11307 0.46417 0.52724 0.0
H2653 H 0.1382 0.4328 0.53461 0.0
H2654 H 0.11455 0.36753 0.5094 0.0
C2655 C 0.1856 0.32237 0.4981 0.0
C2656 C 0.17921 0.38018 0.5158 0.0
C2657 C 0.19962 0.30375 0.499 0.0
C2658 C 0.11069 0.4492 0.51778 0.0
C2659 C 0.1252 0.43127 0.52191 0.0
C2660 C 0.13254 0.37139 0.51104 0.0
C2661 C 0.18865 0.33977 0.51316 0.0
C2662 C 0.17193 0.35831 0.51367 0.0
C2663 C 0.12316 0.41175 0.50954 0.0
C2664 C 0.13983 0.39334 0.51234 0.0
H2665 H 0.23444 0.31902 0.54158 0.0
H2666 H 0.20985 0.35186 0.54001 0.0
H2667 H 0.14214 0.33742 0.51057 0.0
H2668 H 0.07834 0.42668 0.47661 0.0
H2669 H 0.10371 0.39564 0.48358 0.0
C2670 C 0.32601 0.22544 0.50981 0.0
C2671 C 0.31556 0.22428 0.53078 0.0
C2672 C 0.34205 0.20938 0.50328 0.0
C2673 C 0.35854 0.15201 0.51443 0.0
H2674 H 0.41913 0.16736 0.49361 0.0
C2675 C 0.42659 0.085 0.4998 0.0
C2676 C 0.44635 0.08878 0.51241 0.0
C2677 C 0.41107 0.10221 0.49571 0.0
C2678 C 0.40217 0.16283 0.49915 0.0
H2679 H 0.31385 0.20577 0.56139 0.0
H2680 H 0.3415 0.17781 0.54999 0.0
H2681 H 0.3904 0.19637 0.49956 0.0
H2682 H 0.46621 0.11345 0.52952 0.0
H2683 H 0.43953 0.14358 0.52194 0.0
H2684 H 0.37036 0.11865 0.5148 0.0
C2685 C 0.3373 0.19094 0.53853 0.0
C2686 C 0.38573 0.17941 0.50246 0.0
C2687 C 0.3216 0.20704 0.54512 0.0
C2688 C 0.45116 0.11023 0.51955 0.0
C2689 C 0.43591 0.12747 0.51516 0.0
C2690 C 0.37482 0.13546 0.51085 0.0
C2691 C 0.34757 0.19179 0.51749 0.0
C2692 C 0.36397 0.17421 0.5108 0.0
C2693 C 0.41525 0.12349 0.50396 0.0
C2694 C 0.39703 0.14071 0.50377 0.0
H2695 H 0.32165 0.23856 0.4984 0.0
H2696 H 0.34974 0.21044 0.48698 0.0
H2697 H 0.34183 0.1475 0.52066 0.0
H2698 H 0.42226 0.06849 0.4946 0.0
H2699 H 0.39531 0.09866 0.48699 0.0
C2700 C 0.80279 0.33143 0.52491 0.0
C2701 C 0.79304 0.32064 0.50672 0.0
C2702 C 0.82092 0.34593 0.52194 0.0
C2703 C 0.85143 0.37954 0.48042 0.0
H2704 H 0.89786 0.37921 0.52632 0.0
C2705 C 0.91107 0.45264 0.49725 0.0
C2706 C 0.93196 0.44898 0.50821 0.0
C2707 C 0.89679 0.43502 0.49202 0.0
C2708 C 0.88542 0.37932 0.51303 0.0
H2709 H 0.79429 0.31675 0.47098 0.0
H2710 H 0.82633 0.34197 0.46575 0.0
H2711 H 0.86754 0.35235 0.52737 0.0
H2712 H 0.95551 0.42389 0.51994 0.0
H2713 H 0.93104 0.3931 0.51008 0.0
H2714 H 0.86961 0.40644 0.46594 0.0
C2715 C 0.81974 0.33943 0.48233 0.0
C2716 C 0.8677 0.3641 0.51389 0.0
C2717 C 0.8014 0.32498 0.48532 0.0
C2718 C 0.93927 0.42725 0.51194 0.0
C2719 C 0.92515 0.40961 0.5064 0.0
C2720 C 0.86934 0.39472 0.47944 0.0
C2721 C 0.82996 0.3498 0.50068 0.0
C2722 C 0.85008 0.36445 0.49803 0.0
C2723 C 0.90325 0.41333 0.49735 0.0
C2724 C 0.88623 0.39519 0.4961 0.0
H2725 H 0.79658 0.32841 0.54156 0.0
H2726 H 0.82792 0.35406 0.53639 0.0
H2727 H 0.83819 0.38022 0.46788 0.0
H2728 H 0.90504 0.46919 0.49393 0.0
H2729 H 0.88008 0.43863 0.48513 0.0
C2730 C 0.21251 0.71513 0.54527 0.0
C2731 C 0.22035 0.7246 0.5255 0.0
C2732 C 0.19924 0.69602 0.54474 0.0
C2733 C 0.17815 0.65152 0.50672 0.0
H2734 H 0.12785 0.64945 0.54854 0.0
C2735 C 0.11175 0.58252 0.50076 0.0
C2736 C 0.08881 0.58826 0.50446 0.0
C2737 C 0.1293 0.59687 0.50674 0.0
C2738 C 0.14167 0.6498 0.5366 0.0
H2739 H 0.22072 0.72177 0.48979 0.0
H2740 H 0.19721 0.68885 0.48863 0.0
H2741 H 0.15608 0.67845 0.55153 0.0
H2742 H 0.06598 0.61307 0.51771 0.0
H2743 H 0.09647 0.63873 0.5274 0.0
H2744 H 0.16297 0.62388 0.49081 0.0
C2745 C 0.2018 0.69549 0.50467 0.0
C2746 C 0.15819 0.6663 0.53855 0.0
C2747 C 0.21532 0.71438 0.50526 0.0
C2748 C 0.08363 0.60824 0.51496 0.0
C2749 C 0.10119 0.62288 0.52054 0.0
C2750 C 0.16148 0.63525 0.50457 0.0
C2751 C 0.1931 0.68627 0.52438 0.0
C2752 C 0.17655 0.66758 0.52347 0.0
C2753 C 0.12428 0.61764 0.51598 0.0
C2754 C 0.14284 0.63422 0.51934 0.0
H2755 H 0.2159 0.72301 0.56104 0.0
H2756 H 0.19329 0.68926 0.56029 0.0
H2757 H 0.19216 0.65162 0.49498 0.0
H2758 H 0.11607 0.56713 0.49266 0.0
H2759 H 0.14679 0.59184 0.50355 0.0
loop_
_geom_bond_atom_site_label_1
_geom_bond_atom_site_label_2
_geom_bond_distance
_geom_bond_site_symmetry_2
_ccdc_geom_bond_type
H0 C5 0.930 . S
H1 C8 0.930 . S
H2 C10 0.930 . S
H3 C4 1.016 . S
C4 H3 1.016 . S
C4 N11 1.286 . S
C5 H0 0.930 . S
C5 C6 1.397 . S
C5 C7 1.361 . S
C6 C5 1.397 . S
C6 C10 1.390 . S
C7 C5 1.361 . S
C7 C8 1.393 . S
C7 N11 1.413 . S
C8 H1 0.930 . S
C8 C7 1.393 . S
C8 C9 1.399 . S
C9 C8 1.399 . S
C9 C10 1.381 . S
C10 H2 0.930 . S
C10 C6 1.390 . S
C10 C9 1.381 . S
N11 C4 1.286 . S
N11 C7 1.413 . S
H12 C17 0.930 . S
H13 C20 0.930 . S
H14 C22 0.930 . S
H15 C16 1.016 . S
C16 H15 1.016 . S
C16 N23 1.286 . S
C17 H12 0.930 . S
C17 C18 1.397 . S
C17 C19 1.361 . S
C18 C17 1.397 . S
C18 C22 1.390 . S
C19 C17 1.361 . S
C19 C20 1.393 . S
C19 N23 1.413 . S
C20 H13 0.930 . S
C20 C19 1.393 . S
C20 C21 1.399 . S
C21 C20 1.399 . S
C21 C22 1.381 . S
C22 H14 0.930 . S
C22 C18 1.390 . S
C22 C21 1.381 . S
N23 C16 1.286 . S
N23 C19 1.413 . S
H24 C29 0.930 . S
H25 C32 0.930 . S
H26 C34 0.930 . S
H27 C28 1.016 . S
C28 H27 1.016 . S
C28 N35 1.286 . S
C29 H24 0.930 . S
C29 C30 1.397 . S
C29 C31 1.361 . S
C30 C29 1.397 . S
C30 C34 1.390 . S
C31 C29 1.361 . S
C31 C32 1.393 . S
C31 N35 1.413 . S
C32 H25 0.930 . S
C32 C31 1.393 . S
C32 C33 1.399 . S
C33 C32 1.399 . S
C33 C34 1.381 . S
C34 H26 0.930 . S
C34 C30 1.390 . S
C34 C33 1.381 . S
N35 C28 1.286 . S
N35 C31 1.413 . S
H36 C41 0.932 . S
H37 C44 0.928 1_565 S
H38 C46 0.930 . S
H39 C40 1.016 . S
C40 H39 1.016 . S
C40 N47 1.286 1_545 S
C41 H36 0.932 . S
C41 C42 1.394 1_565 S
C41 C43 1.362 . S
C42 C41 1.394 1_545 S
C42 C46 1.390 . S
C43 C41 1.362 . S
C43 C44 1.390 1_565 S
C43 N47 1.413 . S
C44 H37 0.928 1_545 S
C44 C43 1.390 1_545 S
C44 C45 1.406 . S
C45 C44 1.406 . S
C45 C46 1.381 . S
C46 H38 0.930 . S
C46 C42 1.390 . S
C46 C45 1.381 . S
N47 C40 1.286 1_565 S
N47 C43 1.413 . S
H48 C53 0.930 . S
H49 C56 0.930 . S
H50 C58 0.930 . S
H51 C52 1.022 . S
C52 H51 1.022 . S
C52 N59 1.277 1_455 S
C53 H48 0.930 . S
C53 C54 1.402 . S
C53 C55 1.361 . S
C54 C53 1.402 . S
C54 C58 1.387 1_655 S
C55 C53 1.361 . S
C55 C56 1.393 . S
C55 N59 1.413 . S
C56 H49 0.930 . S
C56 C55 1.393 . S
C56 C57 1.401 . S
C57 C56 1.401 . S
C57 C58 1.379 1_655 S
C58 H50 0.930 . S
C58 C54 1.387 1_455 S
C58 C57 1.379 1_455 S
N59 C52 1.277 1_655 S
N59 C55 1.413 . S
H60 C65 0.930 . S
H61 C68 0.930 . S
H62 C70 0.930 . S
H63 C64 1.032 . S
C64 H63 1.032 . S
C64 N71 1.286 . S
C65 H60 0.930 . S
C65 C66 1.397 . S
C65 C67 1.361 . S
C66 C65 1.397 . S
C66 C70 1.390 . S
C67 C65 1.361 . S
C67 C68 1.393 . S
C67 N71 1.413 . S
C68 H61 0.930 . S
C68 C67 1.393 . S
C68 C69 1.399 . S
C69 C68 1.399 . S
C69 C70 1.381 . S
C70 H62 0.930 . S
C70 C66 1.390 . S
C70 C69 1.381 . S
N71 C64 1.286 . S
N71 C67 1.413 . S
H72 C77 0.930 . S
H73 C80 0.930 . S
H74 C82 0.930 . S
H75 C76 1.016 . S
C76 H75 1.016 . S
C76 N83 1.286 . S
C77 H72 0.930 . S
C77 C78 1.397 . S
C77 C79 1.361 . S
C78 C77 1.397 . S
C78 C82 1.390 . S
C79 C77 1.361 . S
C79 C80 1.393 . S
C79 N83 1.413 . S
C80 H73 0.930 . S
C80 C79 1.393 . S
C80 C81 1.399 . S
C81 C80 1.399 . S
C81 C82 1.381 . S
C82 H74 0.930 . S
C82 C78 1.390 . S
C82 C81 1.381 . S
N83 C76 1.286 . S
N83 C79 1.413 . S
H84 C89 0.930 . S
H85 C92 0.930 . S
H86 C94 0.930 . S
H87 C88 1.016 . S
C88 H87 1.016 . S
C88 N95 1.286 . S
C89 H84 0.930 . S
C89 C90 1.397 . S
C89 C91 1.361 . S
C90 C89 1.397 . S
C90 C94 1.390 . S
C91 C89 1.361 . S
C91 C92 1.393 . S
C91 N95 1.413 . S
C92 H85 0.930 . S
C92 C91 1.393 . S
C92 C93 1.399 . S
C93 C92 1.399 . S
C93 C94 1.381 . S
C94 H86 0.930 . S
C94 C90 1.390 . S
C94 C93 1.381 . S
N95 C88 1.286 . S
N95 C91 1.413 . S
H96 C101 0.930 . S
H97 C104 0.930 . S
H98 C106 0.930 . S
H99 C100 1.016 . S
C100 H99 1.016 . S
C100 N107 1.286 . S
C101 H96 0.930 . S
C101 C102 1.397 . S
C101 C103 1.361 . S
C102 C101 1.397 . S
C102 C106 1.390 . S
C103 C101 1.361 . S
C103 C104 1.393 . S
C103 N107 1.413 . S
C104 H97 0.930 . S
C104 C103 1.393 . S
C104 C105 1.399 . S
C105 C104 1.399 . S
C105 C106 1.381 . S
C106 H98 0.930 . S
C106 C102 1.390 . S
C106 C105 1.381 . S
N107 C100 1.286 . S
N107 C103 1.413 . S
H108 C113 0.930 . S
H109 C116 0.930 . S
H110 C118 0.930 . S
H111 C112 1.016 . S
C112 H111 1.016 . S
C112 N119 1.286 . S
C113 H108 0.930 . S
C113 C114 1.397 . S
C113 C115 1.361 . S
C114 C113 1.397 . S
C114 C118 1.390 . S
C115 C113 1.361 . S
C115 C116 1.393 . S
C115 N119 1.413 . S
C116 H109 0.930 . S
C116 C115 1.393 . S
C116 C117 1.399 . S
C117 C116 1.399 . S
C117 C118 1.381 . S
C118 H110 0.930 . S
C118 C114 1.390 . S
C118 C117 1.381 . S
N119 C112 1.286 . S
N119 C115 1.413 . S
H120 C125 0.930 . S
H121 C128 0.930 . S
H122 C130 0.930 1_556 S
H123 C124 1.016 1_556 S
C124 H123 1.016 1_554 S
C124 N131 1.286 . S
C125 H120 0.930 . S
C125 C126 1.397 . S
C125 C127 1.361 . S
C126 C125 1.397 . S
C126 C130 1.390 . S
C127 C125 1.361 . S
C127 C128 1.393 . S
C127 N131 1.413 . S
C128 H121 0.930 . S
C128 C127 1.393 . S
C128 C129 1.399 . S
C129 C128 1.399 . S
C129 C130 1.381 . S
C130 H122 0.930 1_554 S
C130 C126 1.390 . S
C130 C129 1.381 . S
N131 C124 1.286 . S
N131 C127 1.413 . S
H132 C137 0.923 1_556 S
H133 C140 0.930 . S
H134 C142 0.930 . S
H135 C136 1.016 . S
C136 H135 1.016 . S
C136 N143 1.286 1_554 S
C137 H132 0.923 1_554 S
C137 C138 1.397 . S
C137 C139 1.363 . S
C138 C137 1.397 . S
C138 C142 1.390 . S
C139 C137 1.363 . S
C139 C140 1.397 . S
C139 N143 1.409 1_554 S
C140 H133 0.930 . S
C140 C139 1.397 . S
C140 C141 1.399 . S
C141 C140 1.399 . S
C141 C142 1.381 . S
C142 H134 0.930 . S
C142 C138 1.390 . S
C142 C141 1.381 . S
N143 C136 1.286 1_556 S
N143 C139 1.409 1_556 S
H144 C149 0.930 . S
H145 C152 0.930 . S
H146 C154 0.930 . S
H147 C148 1.016 . S
C148 H147 1.016 . S
C148 N155 1.286 . S
C149 H144 0.930 . S
C149 C150 1.397 . S
C149 C151 1.361 . S
C150 C149 1.397 . S
C150 C154 1.390 . S
C151 C149 1.361 . S
C151 C152 1.393 . S
C151 N155 1.413 . S
C152 H145 0.930 . S
C152 C151 1.393 . S
C152 C153 1.399 . S
C153 C152 1.399 . S
C153 C154 1.381 . S
C154 H146 0.930 . S
C154 C150 1.390 . S
C154 C153 1.381 . S
N155 C148 1.286 . S
N155 C151 1.413 . S
H156 C161 0.930 . S
H157 C164 0.930 . S
H158 C166 0.930 . S
H159 C160 1.016 . S
C160 H159 1.016 . S
C160 N167 1.286 . S
C161 H156 0.930 . S
C161 C162 1.397 . S
C161 C163 1.361 . S
C162 C161 1.397 . S
C162 C166 1.390 . S
C163 C161 1.361 . S
C163 C164 1.393 . S
C163 N167 1.413 . S
C164 H157 0.930 . S
C164 C163 1.393 . S
C164 C165 1.399 . S
C165 C164 1.399 . S
C165 C166 1.381 . S
C166 H158 0.930 . S
C166 C162 1.390 . S
C166 C165 1.381 . S
N167 C160 1.286 . S
N167 C163 1.413 . S
H168 C173 0.930 . S
H169 C176 0.930 . S
H170 C178 0.930 . S
H171 C172 1.016 . S
C172 H171 1.016 . S
C172 N179 1.286 . S
C173 H168 0.930 . S
C173 C174 1.397 . S
C173 C175 1.361 . S
C174 C173 1.397 . S
C174 C178 1.390 . S
C175 C173 1.361 . S
C175 C176 1.393 . S
C175 N179 1.413 . S
C176 H169 0.930 . S
C176 C175 1.393 . S
C176 C177 1.399 . S
C177 C176 1.399 . S
C177 C178 1.381 . S
C178 H170 0.930 . S
C178 C174 1.390 . S
C178 C177 1.381 . S
N179 C172 1.286 . S
N179 C175 1.413 . S
H180 C185 0.930 . S
H181 C188 0.930 . S
H182 C190 0.930 . S
H183 C184 1.016 . S
C184 H183 1.016 . S
C184 N191 1.286 . S
C185 H180 0.930 . S
C185 C186 1.397 . S
C185 C187 1.361 . S
C186 C185 1.397 . S
C186 C190 1.390 . S
C187 C185 1.361 . S
C187 C188 1.393 . S
C187 N191 1.413 . S
C188 H181 0.930 . S
C188 C187 1.393 . S
C188 C189 1.399 . S
C189 C188 1.399 . S
C189 C190 1.381 . S
C190 H182 0.930 . S
C190 C186 1.390 . S
C190 C189 1.381 . S
N191 C184 1.286 . S
N191 C187 1.413 . S
H192 C197 0.930 . S
H193 C200 0.930 . S
H194 C202 0.930 . S
H195 C196 1.016 . S
C196 H195 1.016 . S
C196 N203 1.286 . S
C197 H192 0.930 . S
C197 C198 1.397 . S
C197 C199 1.361 . S
C198 C197 1.397 . S
C198 C202 1.390 . S
C199 C197 1.361 . S
C199 C200 1.393 . S
C199 N203 1.413 . S
C200 H193 0.930 . S
C200 C199 1.393 . S
C200 C201 1.399 . S
C201 C200 1.399 . S
C201 C202 1.381 . S
C202 H194 0.930 . S
C202 C198 1.390 . S
C202 C201 1.381 . S
N203 C196 1.286 . S
N203 C199 1.413 . S
H204 C209 0.930 . S
H205 C212 0.930 . S
H206 C214 0.930 . S
H207 C208 1.016 . S
C208 H207 1.016 . S
C208 N215 1.286 . S
C209 H204 0.930 . S
C209 C210 1.397 . S
C209 C211 1.361 . S
C210 C209 1.397 . S
C210 C214 1.390 . S
C211 C209 1.361 . S
C211 C212 1.393 . S
C211 N215 1.413 . S
C212 H205 0.930 . S
C212 C211 1.393 . S
C212 C213 1.399 . S
C213 C212 1.399 . S
C213 C214 1.381 . S
C214 H206 0.930 . S
C214 C210 1.390 . S
C214 C213 1.381 . S
N215 C208 1.286 . S
N215 C211 1.413 . S
H216 C221 0.930 . S
H217 C224 0.930 . S
H218 C226 0.930 . S
H219 C220 1.016 . S
C220 H219 1.016 . S
C220 N227 1.286 . S
C221 H216 0.930 . S
C221 C222 1.397 . S
C221 C223 1.361 . S
C222 C221 1.397 . S
C222 C226 1.390 . S
C223 C221 1.361 . S
C223 C224 1.393 . S
C223 N227 1.413 . S
C224 H217 0.930 . S
C224 C223 1.393 . S
C224 C225 1.399 . S
C225 C224 1.399 . S
C225 C226 1.381 . S
C226 H218 0.930 . S
C226 C222 1.390 . S
C226 C225 1.381 . S
N227 C220 1.286 . S
N227 C223 1.413 . S
H228 C233 0.930 . S
H229 C236 0.930 . S
H230 C238 0.930 . S
H231 C232 1.016 . S
C232 H231 1.016 . S
C232 N239 1.286 . S
C233 H228 0.930 . S
C233 C234 1.397 . S
C233 C235 1.361 . S
C234 C233 1.397 . S
C234 C238 1.390 . S
C235 C233 1.361 . S
C235 C236 1.393 . S
C235 N239 1.413 . S
C236 H229 0.930 . S
C236 C235 1.393 . S
C236 C237 1.399 . S
C237 C236 1.399 . S
C237 C238 1.381 . S
C238 H230 0.930 . S
C238 C234 1.390 . S
C238 C237 1.381 . S
N239 C232 1.286 . S
N239 C235 1.413 . S
H240 C245 0.930 . S
H241 C248 0.930 . S
H242 C250 0.930 . S
H243 C244 1.016 . S
C244 H243 1.016 . S
C244 N251 1.286 . S
C245 H240 0.930 . S
C245 C246 1.397 . S
C245 C247 1.361 . S
C246 C245 1.397 . S
C246 C250 1.390 . S
C247 C245 1.361 . S
C247 C248 1.393 . S
C247 N251 1.413 . S
C248 H241 0.930 . S
C248 C247 1.393 . S
C248 C249 1.399 . S
C249 C248 1.399 . S
C249 C250 1.381 . S
C250 H242 0.930 . S
C250 C246 1.390 . S
C250 C249 1.381 . S
N251 C244 1.286 . S
N251 C247 1.413 . S
H252 C257 0.930 . S
H253 C260 0.930 . S
H254 C262 0.930 . S
H255 C256 1.016 . S
C256 H255 1.016 . S
C256 N263 1.286 . S
C257 H252 0.930 . S
C257 C258 1.397 . S
C257 C259 1.361 . S
C258 C257 1.397 . S
C258 C262 1.390 . S
C259 C257 1.361 . S
C259 C260 1.393 . S
C259 N263 1.413 . S
C260 H253 0.930 . S
C260 C259 1.393 . S
C260 C261 1.399 . S
C261 C260 1.399 . S
C261 C262 1.381 . S
C262 H254 0.930 . S
C262 C258 1.390 . S
C262 C261 1.381 . S
N263 C256 1.286 . S
N263 C259 1.413 . S
H264 C269 0.930 . S
H265 C272 0.930 . S
H266 C274 0.930 . S
H267 C268 1.016 . S
C268 H267 1.016 . S
C268 N275 1.286 . S
C269 H264 0.930 . S
C269 C270 1.397 . S
C269 C271 1.361 . S
C270 C269 1.397 . S
C270 C274 1.390 . S
C271 C269 1.361 . S
C271 C272 1.393 . S
C271 N275 1.413 . S
C272 H265 0.930 . S
C272 C271 1.393 . S
C272 C273 1.399 . S
C273 C272 1.399 . S
C273 C274 1.381 . S
C274 H266 0.930 . S
C274 C270 1.390 . S
C274 C273 1.381 . S
N275 C268 1.286 . S
N275 C271 1.413 . S
H276 C281 0.930 . S
H277 C284 0.930 . S
H278 C286 0.930 . S
H279 C280 1.016 . S
C280 H279 1.016 . S
C280 N287 1.286 . S
C281 H276 0.930 . S
C281 C282 1.397 . S
C281 C283 1.361 . S
C282 C281 1.397 . S
C282 C286 1.390 . S
C283 C281 1.361 . S
C283 C284 1.393 . S
C283 N287 1.413 . S
C284 H277 0.930 . S
C284 C283 1.393 . S
C284 C285 1.399 . S
C285 C284 1.399 . S
C285 C286 1.381 . S
C286 H278 0.930 . S
C286 C282 1.390 . S
C286 C285 1.381 . S
N287 C280 1.286 . S
N287 C283 1.413 . S
Zn288 O290 1.948 1_565 S
Zn288 O308 1.985 1_565 S
Zn288 O319 1.955 . S
Zn289 O290 1.930 . S
Zn289 O309 1.970 . S
Zn289 O325 1.945 . S
Zn289 O332 1.981 . S
O290 Zn288 1.948 1_545 S
O290 Zn289 1.930 . S
O290 H291 0.796 1_655 S
H291 O290 0.796 1_455 S
C292 O293 1.246 . S
C292 O321 1.276 . S
O293 C292 1.246 . S
Zn294 O296 1.911 . S
Zn294 O311 1.970 . S
Zn294 O328 1.945 . S
Zn294 O335 1.981 . S
Zn295 O296 1.933 1_565 S
Zn295 O310 1.985 1_565 S
Zn295 O317 1.955 . S
O296 Zn294 1.911 . S
O296 Zn295 1.933 1_545 S
O296 H297 0.841 . S
H297 O296 0.841 . S
Zn298 O299 1.933 1_565 S
Zn298 O312 1.985 1_565 S
Zn298 O321 1.955 . S
O299 Zn298 1.933 1_545 S
O299 Zn300 1.911 . S
O299 H301 0.841 . S
Zn300 O299 1.911 . S
Zn300 O313 1.970 . S
Zn300 O329 1.981 1_655 S
Zn300 O331 1.945 . S
H301 O299 0.841 . S
Zn302 O303 1.933 1_565 S
Zn302 O315 1.984 1_565 S
Zn302 O323 1.955 . S
O303 Zn302 1.933 1_545 S
O303 H304 0.841 . S
O303 Zn305 1.911 . S
H304 O303 0.841 . S
Zn305 O303 1.911 . S
Zn305 O316 1.970 . S
Zn305 O326 1.981 . S
Zn305 O334 1.945 . S
C306 O307 1.246 . S
C306 O323 1.276 . S
O307 C306 1.246 . S
O308 Zn288 1.985 1_545 S
O308 C318 1.245 . S
O309 Zn289 1.970 . S
O309 C318 1.263 . S
O310 Zn295 1.985 1_545 S
O310 C322 1.246 . S
O311 Zn294 1.970 . S
O311 C322 1.263 . S
O312 Zn298 1.985 1_545 S
O312 C327 1.245 . S
O313 Zn300 1.970 . S
O313 C327 1.263 . S
C314 O325 1.262 1_455 S
C314 O326 1.245 . S
O315 Zn302 1.984 1_545 S
O315 C333 1.252 . S
O316 Zn305 1.970 . S
O316 C333 1.263 . S
O317 Zn295 1.955 . S
O317 C336 1.276 . S
C318 O308 1.245 . S
C318 O309 1.263 . S
O319 Zn288 1.955 . S
O319 C338 1.276 1_655 S
C320 O328 1.262 . S
C320 O329 1.245 . S
O321 C292 1.276 . S
O321 Zn298 1.955 . S
C322 O310 1.246 . S
C322 O311 1.263 . S
O323 Zn302 1.955 . S
O323 C306 1.276 . S
C324 O331 1.262 . S
C324 O332 1.245 . S
O325 Zn289 1.945 . S
O325 C314 1.262 1_655 S
O326 Zn305 1.981 . S
O326 C314 1.245 . S
C327 O312 1.245 . S
C327 O313 1.263 . S
O328 Zn294 1.945 . S
O328 C320 1.262 . S
O329 Zn300 1.981 1_455 S
O329 C320 1.245 . S
C330 O334 1.262 . S
C330 O335 1.245 . S
O331 Zn300 1.945 . S
O331 C324 1.262 . S
O332 Zn289 1.981 . S
O332 C324 1.245 . S
C333 O315 1.252 . S
C333 O316 1.263 . S
O334 Zn305 1.945 . S
O334 C330 1.262 . S
O335 Zn294 1.981 . S
O335 C330 1.245 . S
C336 O317 1.276 . S
C336 O337 1.246 . S
O337 C336 1.246 . S
C338 O319 1.276 1_455 S
C338 O339 1.246 . S
O339 C338 1.246 . S
Zn340 O342 1.933 . S
Zn340 O360 1.985 . S
Zn340 O371 1.955 . S
Zn341 O342 1.911 1_556 S
Zn341 O361 1.970 . S
Zn341 O377 1.945 . S
Zn341 O384 1.981 . S
O342 Zn340 1.933 . S
O342 Zn341 1.911 1_554 S
O342 H343 0.841 . S
H343 O342 0.841 . S
C344 O345 1.246 . S
C344 O373 1.276 . S
O345 C344 1.246 . S
Zn346 O348 1.911 1_566 S
Zn346 O363 1.970 . S
Zn346 O380 1.943 1_565 S
Zn346 O387 1.981 . S
Zn347 O348 1.933 1_565 S
Zn347 O362 1.985 . S
Zn347 O369 1.955 1_565 S
O348 Zn346 1.911 1_544 S
O348 Zn347 1.933 1_545 S
O348 H349 0.841 . S
H349 O348 0.841 . S
Zn350 O351 1.933 . S
Zn350 O364 1.985 . S
Zn350 O373 1.955 . S
O351 Zn350 1.933 . S
O351 Zn352 1.911 1_554 S
O351 H353 0.841 . S
Zn352 O351 1.911 1_556 S
Zn352 O365 1.970 . S
Zn352 O381 1.981 . S
Zn352 O383 1.945 . S
H353 O351 0.841 . S
Zn354 O355 1.933 . S
Zn354 O367 1.985 . S
Zn354 O375 1.955 . S
O355 Zn354 1.933 . S
O355 H356 0.841 . S
O355 Zn357 1.911 1_554 S
H356 O355 0.841 . S
Zn357 O355 1.911 1_556 S
Zn357 O368 1.970 . S
Zn357 O378 1.981 1_565 S
Zn357 O386 1.945 . S
C358 O359 1.246 . S
C358 O375 1.276 . S
O359 C358 1.246 . S
O360 Zn340 1.985 . S
O360 C370 1.245 . S
O361 Zn341 1.970 . S
O361 C370 1.263 1_556 S
O362 Zn347 1.985 . S
O362 C374 1.245 . S
O363 Zn346 1.970 . S
O363 C374 1.263 1_556 S
O364 Zn350 1.985 . S
O364 C379 1.245 . S
O365 Zn352 1.970 . S
O365 C379 1.263 1_556 S
C366 O377 1.262 . S
C366 O378 1.245 . S
O367 Zn354 1.985 . S
O367 C385 1.245 . S
O368 Zn357 1.970 . S
O368 C385 1.263 1_556 S
O369 Zn347 1.955 1_545 S
O369 C388 1.276 . S
C370 O360 1.245 . S
C370 O361 1.263 1_554 S
O371 Zn340 1.955 . S
O371 C390 1.276 . S
C372 O380 1.267 . S
C372 O381 1.245 . S
O373 C344 1.276 . S
O373 Zn350 1.955 . S
C374 O362 1.245 . S
C374 O363 1.263 1_554 S
O375 Zn354 1.955 . S
O375 C358 1.276 . S
C376 O383 1.262 . S
C376 O384 1.245 . S
O377 Zn341 1.945 . S
O377 C366 1.262 . S
O378 Zn357 1.981 1_545 S
O378 C366 1.245 . S
C379 O364 1.245 . S
C379 O365 1.263 1_554 S
O380 Zn346 1.943 1_545 S
O380 C372 1.267 . S
O381 Zn352 1.981 . S
O381 C372 1.245 . S
C382 O386 1.262 . S
C382 O387 1.245 . S
O383 Zn352 1.945 . S
O383 C376 1.262 . S
O384 Zn341 1.981 . S
O384 C376 1.245 . S
C385 O367 1.245 . S
C385 O368 1.263 1_554 S
O386 Zn357 1.945 . S
O386 C382 1.262 . S
O387 Zn346 1.981 . S
O387 C382 1.245 . S
C388 O369 1.276 . S
C388 O389 1.246 . S
O389 C388 1.246 . S
C390 O371 1.276 . S
C390 O391 1.246 . S
O391 C390 1.246 . S
Zn392 O394 1.933 1_655 S
Zn392 O412 1.985 . S
Zn392 O423 1.955 1_655 S
Zn393 O394 1.911 1_655 S
Zn393 O413 1.970 . S
Zn393 O429 1.945 1_655 S
Zn393 O436 1.981 1_556 S
O394 Zn392 1.933 1_455 S
O394 Zn393 1.911 1_455 S
O394 H395 0.841 . S
H395 O394 0.841 . S
C396 O397 1.246 . S
C396 O425 1.276 . S
O397 C396 1.246 . S
Zn398 O400 1.911 . S
Zn398 O415 1.970 . S
Zn398 O432 1.945 . S
Zn398 O439 1.981 . S
Zn399 O400 1.933 . S
Zn399 O414 1.985 . S
Zn399 O421 1.955 . S
O400 Zn398 1.911 . S
O400 Zn399 1.933 . S
O400 H401 0.841 . S
H401 O400 0.841 . S
Zn402 O403 1.933 . S
Zn402 O416 1.985 . S
Zn402 O425 1.955 . S
O403 Zn402 1.933 . S
O403 Zn404 1.911 . S
O403 H405 0.841 . S
Zn404 O403 1.911 . S
Zn404 O417 1.970 . S
Zn404 O433 1.981 1_655 S
Zn404 O435 1.945 . S
H405 O403 0.841 . S
Zn406 O407 1.933 . S
Zn406 O419 1.985 . S
Zn406 O427 1.955 . S
O407 Zn406 1.933 . S
O407 H408 0.841 1_556 S
O407 Zn409 1.911 . S
H408 O407 0.841 1_554 S
Zn409 O407 1.911 . S
Zn409 O420 1.970 . S
Zn409 O430 1.981 . S
Zn409 O438 1.945 . S
C410 O411 1.246 . S
C410 O427 1.276 1_554 S
O411 C410 1.246 . S
O412 Zn392 1.985 . S
O412 C422 1.245 . S
O413 Zn393 1.970 . S
O413 C422 1.263 . S
O414 Zn399 1.985 . S
O414 C426 1.245 . S
O415 Zn398 1.970 . S
O415 C426 1.263 . S
O416 Zn402 1.985 . S
O416 C431 1.245 . S
O417 Zn404 1.970 . S
O417 C431 1.263 . S
C418 O429 1.262 . S
C418 O430 1.245 . S
O419 Zn406 1.985 . S
O419 C437 1.245 . S
O420 Zn409 1.970 . S
O420 C437 1.263 . S
O421 Zn399 1.955 . S
O421 C440 1.276 . S
C422 O412 1.245 . S
C422 O413 1.263 . S
O423 Zn392 1.955 1_455 S
O423 C442 1.276 . S
C424 O432 1.262 . S
C424 O433 1.245 . S
O425 C396 1.276 . S
O425 Zn402 1.955 . S
C426 O414 1.245 . S
C426 O415 1.263 . S
O427 Zn406 1.955 . S
O427 C410 1.276 1_556 S
C428 O435 1.262 . S
C428 O436 1.245 . S
O429 Zn393 1.945 1_455 S
O429 C418 1.262 . S
O430 Zn409 1.981 . S
O430 C418 1.245 . S
C431 O416 1.245 . S
C431 O417 1.263 . S
O432 Zn398 1.945 . S
O432 C424 1.262 . S
O433 Zn404 1.981 1_455 S
O433 C424 1.245 . S
C434 O438 1.262 1_554 S
C434 O439 1.245 . S
O435 Zn404 1.945 . S
O435 C428 1.262 . S
O436 Zn393 1.981 1_554 S
O436 C428 1.245 . S
C437 O419 1.245 . S
C437 O420 1.263 . S
O438 Zn409 1.945 . S
O438 C434 1.262 1_556 S
O439 Zn398 1.981 . S
O439 C434 1.245 . S
C440 O421 1.276 . S
C440 O441 1.246 . S
O441 C440 1.246 . S
C442 O423 1.276 . S
C442 O443 1.246 . S
O443 C442 1.246 . S
Zn444 O446 1.933 1_556 S
Zn444 O464 1.985 . S
Zn444 O475 1.955 . S
Zn445 O446 1.911 . S
Zn445 O465 1.970 . S
Zn445 O481 1.945 . S
Zn445 O488 1.981 . S
O446 Zn444 1.933 1_554 S
O446 Zn445 1.911 . S
O446 H447 0.841 . S
H447 O446 0.841 . S
C448 O449 1.246 . S
C448 O477 1.276 . S
O449 C448 1.246 . S
Zn450 O452 1.911 . S
Zn450 O467 1.970 . S
Zn450 O484 1.945 . S
Zn450 O491 1.981 . S
Zn451 O452 1.933 1_556 S
Zn451 O466 1.985 . S
Zn451 O473 1.955 . S
O452 Zn450 1.911 . S
O452 Zn451 1.933 1_554 S
O452 H453 0.841 . S
H453 O452 0.841 . S
Zn454 O455 1.933 1_556 S
Zn454 O468 1.985 . S
Zn454 O477 1.955 . S
O455 Zn454 1.933 1_554 S
O455 Zn456 1.911 . S
O455 H457 0.841 . S
Zn456 O455 1.911 . S
Zn456 O469 1.970 . S
Zn456 O485 1.981 . S
Zn456 O487 1.945 . S
H457 O455 0.841 . S
Zn458 O459 1.933 1_556 S
Zn458 O471 1.985 . S
Zn458 O479 1.955 . S
O459 Zn458 1.933 1_554 S
O459 H460 0.841 . S
O459 Zn461 1.911 . S
H460 O459 0.841 . S
Zn461 O459 1.911 . S
Zn461 O472 1.970 . S
Zn461 O482 1.981 . S
Zn461 O490 1.945 . S
C462 O463 1.246 . S
C462 O479 1.276 . S
O463 C462 1.246 . S
O464 Zn444 1.985 . S
O464 C474 1.245 1_556 S
O465 Zn445 1.970 . S
O465 C474 1.263 . S
O466 Zn451 1.985 . S
O466 C478 1.245 1_556 S
O467 Zn450 1.970 . S
O467 C478 1.263 . S
O468 Zn454 1.985 . S
O468 C483 1.245 1_556 S
O469 Zn456 1.970 . S
O469 C483 1.263 . S
C470 O481 1.262 . S
C470 O482 1.245 . S
O471 Zn458 1.985 . S
O471 C489 1.245 1_556 S
O472 Zn461 1.970 . S
O472 C489 1.263 . S
O473 Zn451 1.955 . S
O473 C492 1.276 . S
C474 O464 1.245 1_554 S
C474 O465 1.263 . S
O475 Zn444 1.955 . S
O475 C494 1.276 . S
C476 O484 1.262 . S
C476 O485 1.245 . S
O477 C448 1.276 . S
O477 Zn454 1.955 . S
C478 O466 1.245 1_554 S
C478 O467 1.263 . S
O479 Zn458 1.955 . S
O479 C462 1.276 . S
C480 O487 1.262 . S
C480 O488 1.245 . S
O481 Zn445 1.945 . S
O481 C470 1.262 . S
O482 Zn461 1.981 . S
O482 C470 1.245 . S
C483 O468 1.245 1_554 S
C483 O469 1.263 . S
O484 Zn450 1.945 . S
O484 C476 1.262 . S
O485 Zn456 1.981 . S
O485 C476 1.245 . S
C486 O490 1.262 . S
C486 O491 1.245 . S
O487 Zn456 1.945 . S
O487 C480 1.262 . S
O488 Zn445 1.981 . S
O488 C480 1.245 . S
C489 O471 1.245 1_554 S
C489 O472 1.263 . S
O490 Zn461 1.945 . S
O490 C486 1.262 . S
O491 Zn450 1.981 . S
O491 C486 1.245 . S
C492 O473 1.276 . S
C492 O493 1.246 . S
O493 C492 1.246 . S
C494 O475 1.276 . S
C494 O495 1.246 . S
O495 C494 1.246 . S
Zn496 O498 1.933 1_655 S
Zn496 O516 1.985 . S
Zn496 O527 1.955 1_655 S
Zn497 O498 1.911 1_655 S
Zn497 O517 1.970 . S
Zn497 O533 1.945 . S
Zn497 O540 1.981 . S
O498 Zn496 1.933 1_455 S
O498 Zn497 1.911 1_455 S
O498 H499 0.841 . S
H499 O498 0.841 . S
C500 O501 1.246 . S
C500 O529 1.276 . S
O501 C500 1.246 . S
Zn502 O504 1.911 . S
Zn502 O519 1.970 . S
Zn502 O536 1.945 . S
Zn502 O543 1.981 . S
Zn503 O504 1.933 . S
Zn503 O518 1.985 . S
Zn503 O525 1.955 . S
O504 Zn502 1.911 . S
O504 Zn503 1.933 . S
O504 H505 0.841 . S
H505 O504 0.841 . S
Zn506 O507 1.933 . S
Zn506 O520 1.985 . S
Zn506 O529 1.955 . S
O507 Zn506 1.933 . S
O507 Zn508 1.911 . S
O507 H509 0.841 . S
Zn508 O507 1.911 . S
Zn508 O521 1.970 . S
Zn508 O537 1.981 1_655 S
Zn508 O539 1.945 . S
H509 O507 0.841 . S
Zn510 O511 1.933 . S
Zn510 O523 1.985 . S
Zn510 O531 1.955 . S
O511 Zn510 1.933 . S
O511 H512 0.841 . S
O511 Zn513 1.911 . S
H512 O511 0.841 . S
Zn513 O511 1.911 . S
Zn513 O524 1.970 . S
Zn513 O534 1.981 . S
Zn513 O542 1.945 . S
C514 O515 1.246 . S
C514 O531 1.276 . S
O515 C514 1.246 . S
O516 Zn496 1.985 . S
O516 C526 1.245 . S
O517 Zn497 1.970 . S
O517 C526 1.263 . S
O518 Zn503 1.985 . S
O518 C530 1.245 . S
O519 Zn502 1.970 . S
O519 C530 1.263 . S
O520 Zn506 1.985 . S
O520 C535 1.245 . S
O521 Zn508 1.970 . S
O521 C535 1.263 . S
C522 O533 1.262 1_455 S
C522 O534 1.245 . S
O523 Zn510 1.985 . S
O523 C541 1.245 . S
O524 Zn513 1.970 . S
O524 C541 1.263 . S
O525 Zn503 1.955 . S
O525 C544 1.276 . S
C526 O516 1.245 . S
C526 O517 1.263 . S
O527 Zn496 1.955 1_455 S
O527 C546 1.276 . S
C528 O536 1.262 . S
C528 O537 1.245 . S
O529 C500 1.276 . S
O529 Zn506 1.955 . S
C530 O518 1.245 . S
C530 O519 1.263 . S
O531 Zn510 1.955 . S
O531 C514 1.276 . S
C532 O539 1.262 . S
C532 O540 1.245 . S
O533 Zn497 1.945 . S
O533 C522 1.262 1_655 S
O534 Zn513 1.981 . S
O534 C522 1.245 . S
C535 O520 1.245 . S
C535 O521 1.263 . S
O536 Zn502 1.945 . S
O536 C528 1.262 . S
O537 Zn508 1.981 1_455 S
O537 C528 1.245 . S
C538 O542 1.262 . S
C538 O543 1.245 . S
O539 Zn508 1.945 . S
O539 C532 1.262 . S
O540 Zn497 1.981 . S
O540 C532 1.245 . S
C541 O523 1.245 . S
C541 O524 1.263 . S
O542 Zn513 1.945 . S
O542 C538 1.262 . S
O543 Zn502 1.981 . S
O543 C538 1.245 . S
C544 O525 1.276 . S
C544 O545 1.246 . S
O545 C544 1.246 . S
C546 O527 1.276 . S
C546 O547 1.246 . S
O547 C546 1.246 . S
Zn548 O550 1.933 1_565 S
Zn548 O568 1.979 1_565 S
Zn548 O579 1.955 . S
Zn549 O550 1.911 . S
Zn549 O569 1.970 . S
Zn549 O585 1.945 . S
Zn549 O592 1.981 . S
O550 Zn548 1.933 1_545 S
O550 Zn549 1.911 . S
O550 H551 0.841 . S
H551 O550 0.841 . S
C552 O553 1.246 . S
C552 O581 1.276 . S
O553 C552 1.246 . S
Zn554 O556 1.911 . S
Zn554 O571 1.970 . S
Zn554 O588 1.945 . S
Zn554 O595 1.981 . S
Zn555 O556 1.933 1_565 S
Zn555 O570 1.985 1_565 S
Zn555 O577 1.955 . S
O556 Zn554 1.911 . S
O556 Zn555 1.933 1_545 S
O556 H557 0.841 . S
H557 O556 0.841 . S
Zn558 O559 1.933 1_565 S
Zn558 O572 1.981 1_565 S
Zn558 O581 1.955 . S
O559 Zn558 1.933 1_545 S
O559 Zn560 1.911 . S
O559 H561 0.841 . S
Zn560 O559 1.911 . S
Zn560 O573 1.970 . S
Zn560 O589 1.981 . S
Zn560 O591 1.945 . S
H561 O559 0.841 . S
Zn562 O563 1.933 1_565 S
Zn562 O575 1.985 1_565 S
Zn562 O583 1.955 . S
O563 Zn562 1.933 1_545 S
O563 H564 0.841 . S
O563 Zn565 1.911 . S
H564 O563 0.841 . S
Zn565 O563 1.911 . S
Zn565 O576 1.970 . S
Zn565 O586 1.981 . S
Zn565 O594 1.945 . S
C566 O567 1.246 . S
C566 O583 1.276 . S
O567 C566 1.246 . S
O568 Zn548 1.979 1_545 S
O568 C578 1.276 . S
O569 Zn549 1.970 . S
O569 C578 1.263 . S
O570 Zn555 1.985 1_545 S
O570 C582 1.245 . S
O571 Zn554 1.970 . S
O571 C582 1.263 . S
O572 Zn558 1.981 1_545 S
O572 C587 1.265 . S
O573 Zn560 1.970 . S
O573 C587 1.263 . S
C574 O585 1.262 . S
C574 O586 1.245 . S
O575 Zn562 1.985 1_545 S
O575 C593 1.245 . S
O576 Zn565 1.970 . S
O576 C593 1.263 . S
O577 Zn555 1.955 . S
O577 C596 1.276 . S
C578 O568 1.276 . S
C578 O569 1.263 . S
O579 Zn548 1.955 . S
O579 C598 1.276 . S
C580 O588 1.262 . S
C580 O589 1.245 . S
O581 C552 1.276 . S
O581 Zn558 1.955 . S
C582 O570 1.245 . S
C582 O571 1.263 . S
O583 Zn562 1.955 . S
O583 C566 1.276 . S
C584 O591 1.262 . S
C584 O592 1.245 . S
O585 Zn549 1.945 . S
O585 C574 1.262 . S
O586 Zn565 1.981 . S
O586 C574 1.245 . S
C587 O572 1.265 . S
C587 O573 1.263 . S
O588 Zn554 1.945 . S
O588 C580 1.262 . S
O589 Zn560 1.981 . S
O589 C580 1.245 . S
C590 O594 1.262 . S
C590 O595 1.245 . S
O591 Zn560 1.945 . S
O591 C584 1.262 . S
O592 Zn549 1.981 . S
O592 C584 1.245 . S
C593 O575 1.245 . S
C593 O576 1.263 . S
O594 Zn565 1.945 . S
O594 C590 1.262 . S
O595 Zn554 1.981 . S
O595 C590 1.245 . S
C596 O577 1.276 . S
C596 O597 1.246 . S
O597 C596 1.246 . S
C598 O579 1.276 . S
C598 O599 1.246 . S
O599 C598 1.246 . S
C600 C601 1.349 . S
C600 C602 1.327 . S
C600 H625 0.950 . S
C601 C600 1.349 . S
C601 C617 1.349 . S
C602 C600 1.327 . S
C602 C621 1.429 . S
C602 H626 0.950 . S
C603 C620 1.574 . S
C603 C622 1.368 . S
C603 H627 0.949 . S
H604 C608 0.949 . S
C605 C606 1.349 . S
C605 C607 1.327 . S
C605 H628 0.950 . S
C606 C605 1.349 . S
C606 C618 1.349 . S
C607 C605 1.327 . S
C607 C623 1.429 . S
C607 H629 0.950 . S
C608 H604 0.949 . S
C608 C616 1.574 . S
C608 C624 1.368 . S
H609 C617 0.950 . S
H610 C615 0.950 . S
H611 C616 0.949 . S
H612 C618 0.950 . S
H613 C619 0.950 . S
H614 C620 0.949 . S
C615 H610 0.950 . S
C615 C617 1.327 . S
C615 C621 1.429 . S
C616 C608 1.574 . S
C616 H611 0.949 . S
C616 C622 1.368 . S
C617 C601 1.349 . S
C617 H609 0.950 . S
C617 C615 1.327 . S
C618 C606 1.349 . S
C618 H612 0.950 . S
C618 C619 1.327 . S
C619 H613 0.950 . S
C619 C618 1.327 . S
C619 C623 1.429 . S
C620 C603 1.574 . S
C620 H614 0.949 . S
C620 C624 1.368 . S
C621 C602 1.429 . S
C621 C615 1.429 . S
C621 C622 1.523 . S
C622 C603 1.368 . S
C622 C616 1.368 . S
C622 C621 1.523 . S
C623 C607 1.429 . S
C623 C619 1.429 . S
C623 C624 1.523 . S
C624 C608 1.368 . S
C624 C620 1.368 . S
C624 C623 1.523 . S
H625 C600 0.950 . S
H626 C602 0.950 . S
H627 C603 0.949 . S
H628 C605 0.950 . S
H629 C607 0.950 . S
C630 C631 1.349 . S
C630 C632 1.327 . S
C630 H655 0.950 . S
C631 C630 1.349 . S
C631 C647 1.349 . S
C632 C630 1.327 . S
C632 C651 1.429 . S
C632 H656 0.950 . S
C633 C650 1.574 . S
C633 C652 1.368 . S
C633 H657 0.949 . S
H634 C638 0.949 . S
C635 C636 1.349 . S
C635 C637 1.327 . S
C635 H658 0.950 . S
C636 C635 1.349 . S
C636 C648 1.349 . S
C637 C635 1.327 . S
C637 C653 1.429 . S
C637 H659 0.950 . S
C638 H634 0.949 . S
C638 C646 1.574 . S
C638 C654 1.368 . S
H639 C647 0.950 . S
H640 C645 0.950 . S
H641 C646 0.949 . S
H642 C648 0.950 . S
H643 C649 0.950 . S
H644 C650 0.949 . S
C645 H640 0.950 . S
C645 C647 1.327 . S
C645 C651 1.429 . S
C646 C638 1.574 . S
C646 H641 0.949 . S
C646 C652 1.368 . S
C647 C631 1.349 . S
C647 H639 0.950 . S
C647 C645 1.327 . S
C648 C636 1.349 . S
C648 H642 0.950 . S
C648 C649 1.327 . S
C649 H643 0.950 . S
C649 C648 1.327 . S
C649 C653 1.429 . S
C650 C633 1.574 . S
C650 H644 0.949 . S
C650 C654 1.368 . S
C651 C632 1.429 . S
C651 C645 1.429 . S
C651 C652 1.523 . S
C652 C633 1.368 . S
C652 C646 1.368 . S
C652 C651 1.523 . S
C653 C637 1.429 . S
C653 C649 1.429 . S
C653 C654 1.523 . S
C654 C638 1.368 . S
C654 C650 1.368 . S
C654 C653 1.523 . S
H655 C630 0.950 . S
H656 C632 0.950 . S
H657 C633 0.949 . S
H658 C635 0.950 . S
H659 C637 0.950 . S
C660 C661 1.349 . S
C660 C662 1.327 . S
C660 H685 0.950 . S
C661 C660 1.349 . S
C661 C677 1.349 . S
C662 C660 1.327 . S
C662 C681 1.429 . S
C662 H686 0.950 . S
C663 C680 1.574 . S
C663 C682 1.368 . S
C663 H687 0.949 . S
H664 C668 0.949 . S
C665 C666 1.349 . S
C665 C667 1.327 . S
C665 H688 0.950 . S
C666 C665 1.349 . S
C666 C678 1.349 . S
C667 C665 1.327 . S
C667 C683 1.429 . S
C667 H689 0.950 . S
C668 H664 0.949 . S
C668 C676 1.574 . S
C668 C684 1.368 . S
H669 C677 0.950 . S
H670 C675 0.950 . S
H671 C676 0.949 . S
H672 C678 0.950 . S
H673 C679 0.950 . S
H674 C680 0.949 . S
C675 H670 0.950 . S
C675 C677 1.327 . S
C675 C681 1.429 . S
C676 C668 1.574 . S
C676 H671 0.949 . S
C676 C682 1.368 . S
C677 C661 1.349 . S
C677 H669 0.950 . S
C677 C675 1.327 . S
C678 C666 1.349 . S
C678 H672 0.950 . S
C678 C679 1.327 . S
C679 H673 0.950 . S
C679 C678 1.327 . S
C679 C683 1.429 . S
C680 C663 1.574 . S
C680 H674 0.949 . S
C680 C684 1.368 . S
C681 C662 1.429 . S
C681 C675 1.429 . S
C681 C682 1.523 . S
C682 C663 1.368 . S
C682 C676 1.368 . S
C682 C681 1.523 . S
C683 C667 1.429 . S
C683 C679 1.429 . S
C683 C684 1.523 . S
C684 C668 1.368 . S
C684 C680 1.368 . S
C684 C683 1.523 . S
H685 C660 0.950 . S
H686 C662 0.950 . S
H687 C663 0.949 . S
H688 C665 0.950 . S
H689 C667 0.950 . S
C690 C691 1.349 . S
C690 C692 1.327 . S
C690 H715 0.950 . S
C691 C690 1.349 . S
C691 C707 1.349 . S
C692 C690 1.327 . S
C692 C711 1.429 . S
C692 H716 0.950 . S
C693 C710 1.574 . S
C693 C712 1.368 . S
C693 H717 0.949 . S
H694 C698 0.949 . S
C695 C696 1.349 . S
C695 C697 1.327 . S
C695 H718 0.950 . S
C696 C695 1.349 . S
C696 C708 1.349 . S
C697 C695 1.327 . S
C697 C713 1.429 . S
C697 H719 0.950 . S
C698 H694 0.949 . S
C698 C706 1.574 . S
C698 C714 1.368 . S
H699 C707 0.950 . S
H700 C705 0.950 . S
H701 C706 0.949 . S
H702 C708 0.950 . S
H703 C709 0.950 . S
H704 C710 0.949 . S
C705 H700 0.950 . S
C705 C707 1.327 . S
C705 C711 1.429 . S
C706 C698 1.574 . S
C706 H701 0.949 . S
C706 C712 1.368 . S
C707 C691 1.349 . S
C707 H699 0.950 . S
C707 C705 1.327 . S
C708 C696 1.349 . S
C708 H702 0.950 . S
C708 C709 1.327 . S
C709 H703 0.950 . S
C709 C708 1.327 . S
C709 C713 1.429 . S
C710 C693 1.574 . S
C710 H704 0.949 . S
C710 C714 1.368 . S
C711 C692 1.429 . S
C711 C705 1.429 . S
C711 C712 1.523 . S
C712 C693 1.368 . S
C712 C706 1.368 . S
C712 C711 1.523 . S
C713 C697 1.429 . S
C713 C709 1.429 . S
C713 C714 1.523 . S
C714 C698 1.368 . S
C714 C710 1.368 . S
C714 C713 1.523 . S
H715 C690 0.950 . S
H716 C692 0.950 . S
H717 C693 0.949 . S
H718 C695 0.950 . S
H719 C697 0.950 . S
C720 C721 1.349 . S
C720 C722 1.327 . S
C720 H745 0.950 . S
C721 C720 1.349 . S
C721 C737 1.349 . S
C722 C720 1.327 . S
C722 C741 1.429 . S
C722 H746 0.950 . S
C723 C740 1.574 . S
C723 C742 1.368 . S
C723 H747 0.949 . S
H724 C728 0.949 . S
C725 C726 1.349 . S
C725 C727 1.327 . S
C725 H748 0.950 . S
C726 C725 1.349 . S
C726 C738 1.349 . S
C727 C725 1.327 . S
C727 C743 1.429 . S
C727 H749 0.950 . S
C728 H724 0.949 . S
C728 C736 1.574 . S
C728 C744 1.368 . S
H729 C737 0.950 . S
H730 C735 0.950 . S
H731 C736 0.949 . S
H732 C738 0.950 . S
H733 C739 0.950 . S
H734 C740 0.949 . S
C735 H730 0.950 . S
C735 C737 1.327 . S
C735 C741 1.429 . S
C736 C728 1.574 . S
C736 H731 0.949 . S
C736 C742 1.368 . S
C737 C721 1.349 . S
C737 H729 0.950 . S
C737 C735 1.327 . S
C738 C726 1.349 . S
C738 H732 0.950 . S
C738 C739 1.327 . S
C739 H733 0.950 . S
C739 C738 1.327 . S
C739 C743 1.429 . S
C740 C723 1.574 . S
C740 H734 0.949 . S
C740 C744 1.368 . S
C741 C722 1.429 . S
C741 C735 1.429 . S
C741 C742 1.523 . S
C742 C723 1.368 . S
C742 C736 1.368 . S
C742 C741 1.523 . S
C743 C727 1.429 . S
C743 C739 1.429 . S
C743 C744 1.523 . S
C744 C728 1.368 . S
C744 C740 1.368 . S
C744 C743 1.523 . S
H745 C720 0.950 . S
H746 C722 0.950 . S
H747 C723 0.949 . S
H748 C725 0.950 . S
H749 C727 0.950 . S
C750 C751 1.349 . S
C750 C752 1.327 . S
C750 H775 0.950 . S
C751 C750 1.349 . S
C751 C767 1.349 . S
C752 C750 1.327 . S
C752 C771 1.429 . S
C752 H776 0.950 . S
C753 C770 1.574 . S
C753 C772 1.368 . S
C753 H777 0.949 . S
H754 C758 0.949 . S
C755 C756 1.349 . S
C755 C757 1.327 . S
C755 H778 0.950 . S
C756 C755 1.349 . S
C756 C768 1.349 . S
C757 C755 1.327 . S
C757 C773 1.429 . S
C757 H779 0.950 . S
C758 H754 0.949 . S
C758 C766 1.574 . S
C758 C774 1.368 . S
H759 C767 0.950 . S
H760 C765 0.950 . S
H761 C766 0.949 . S
H762 C768 0.950 . S
H763 C769 0.950 . S
H764 C770 0.949 . S
C765 H760 0.950 . S
C765 C767 1.327 . S
C765 C771 1.429 . S
C766 C758 1.574 . S
C766 H761 0.949 . S
C766 C772 1.368 . S
C767 C751 1.349 . S
C767 H759 0.950 . S
C767 C765 1.327 . S
C768 C756 1.349 . S
C768 H762 0.950 . S
C768 C769 1.327 . S
C769 H763 0.950 . S
C769 C768 1.327 . S
C769 C773 1.429 . S
C770 C753 1.574 . S
C770 H764 0.949 . S
C770 C774 1.368 . S
C771 C752 1.429 . S
C771 C765 1.429 . S
C771 C772 1.523 . S
C772 C753 1.368 . S
C772 C766 1.368 . S
C772 C771 1.523 . S
C773 C757 1.429 . S
C773 C769 1.429 . S
C773 C774 1.523 . S
C774 C758 1.368 . S
C774 C770 1.368 . S
C774 C773 1.523 . S
H775 C750 0.950 . S
H776 C752 0.950 . S
H777 C753 0.949 . S
H778 C755 0.950 . S
H779 C757 0.950 . S
C780 C781 1.349 . S
C780 C782 1.327 . S
C780 H805 0.950 . S
C781 C780 1.349 . S
C781 C797 1.349 . S
C782 C780 1.327 . S
C782 C801 1.429 . S
C782 H806 0.950 . S
C783 C800 1.574 . S
C783 C802 1.368 . S
C783 H807 0.949 . S
H784 C788 0.949 . S
C785 C786 1.349 . S
C785 C787 1.327 . S
C785 H808 0.950 . S
C786 C785 1.349 . S
C786 C798 1.349 . S
C787 C785 1.327 . S
C787 C803 1.429 . S
C787 H809 0.950 . S
C788 H784 0.949 . S
C788 C796 1.574 . S
C788 C804 1.368 . S
H789 C797 0.950 . S
H790 C795 0.950 . S
H791 C796 0.949 . S
H792 C798 0.950 . S
H793 C799 0.950 . S
H794 C800 0.949 . S
C795 H790 0.950 . S
C795 C797 1.327 . S
C795 C801 1.429 . S
C796 C788 1.574 . S
C796 H791 0.949 . S
C796 C802 1.368 . S
C797 C781 1.349 . S
C797 H789 0.950 . S
C797 C795 1.327 . S
C798 C786 1.349 . S
C798 H792 0.950 . S
C798 C799 1.327 . S
C799 H793 0.950 . S
C799 C798 1.327 . S
C799 C803 1.429 . S
C800 C783 1.574 . S
C800 H794 0.949 . S
C800 C804 1.368 . S
C801 C782 1.429 . S
C801 C795 1.429 . S
C801 C802 1.523 . S
C802 C783 1.368 . S
C802 C796 1.368 . S
C802 C801 1.523 . S
C803 C787 1.429 . S
C803 C799 1.429 . S
C803 C804 1.523 . S
C804 C788 1.368 . S
C804 C800 1.368 . S
C804 C803 1.523 . S
H805 C780 0.950 . S
H806 C782 0.950 . S
H807 C783 0.949 . S
H808 C785 0.950 . S
H809 C787 0.950 . S
C810 C811 1.349 . S
C810 C812 1.327 . S
C810 H835 0.950 . S
C811 C810 1.349 . S
C811 C827 1.349 . S
C812 C810 1.327 . S
C812 C831 1.429 . S
C812 H836 0.950 . S
C813 C830 1.574 . S
C813 C832 1.368 . S
C813 H837 0.949 . S
H814 C818 0.949 . S
C815 C816 1.349 . S
C815 C817 1.327 . S
C815 H838 0.950 . S
C816 C815 1.349 . S
C816 C828 1.349 . S
C817 C815 1.327 . S
C817 C833 1.429 . S
C817 H839 0.950 . S
C818 H814 0.949 . S
C818 C826 1.574 . S
C818 C834 1.368 . S
H819 C827 0.950 . S
H820 C825 0.950 . S
H821 C826 0.949 . S
H822 C828 0.950 . S
H823 C829 0.950 . S
H824 C830 0.949 . S
C825 H820 0.950 . S
C825 C827 1.327 . S
C825 C831 1.429 . S
C826 C818 1.574 . S
C826 H821 0.949 . S
C826 C832 1.368 . S
C827 C811 1.349 . S
C827 H819 0.950 . S
C827 C825 1.327 . S
C828 C816 1.349 . S
C828 H822 0.950 . S
C828 C829 1.327 . S
C829 H823 0.950 . S
C829 C828 1.327 . S
C829 C833 1.429 . S
C830 C813 1.574 . S
C830 H824 0.949 . S
C830 C834 1.368 . S
C831 C812 1.429 . S
C831 C825 1.429 . S
C831 C832 1.523 . S
C832 C813 1.368 . S
C832 C826 1.368 . S
C832 C831 1.523 . S
C833 C817 1.429 . S
C833 C829 1.429 . S
C833 C834 1.523 . S
C834 C818 1.368 . S
C834 C830 1.368 . S
C834 C833 1.523 . S
H835 C810 0.950 . S
H836 C812 0.950 . S
H837 C813 0.949 . S
H838 C815 0.950 . S
H839 C817 0.950 . S
C840 C841 1.349 . S
C840 C842 1.327 . S
C840 H865 0.950 . S
C841 C840 1.349 . S
C841 C857 1.349 . S
C842 C840 1.327 . S
C842 C861 1.429 . S
C842 H866 0.950 . S
C843 C860 1.574 . S
C843 C862 1.368 . S
C843 H867 0.949 . S
H844 C848 0.949 . S
C845 C846 1.349 . S
C845 C847 1.327 . S
C845 H868 0.950 . S
C846 C845 1.349 . S
C846 C858 1.349 . S
C847 C845 1.327 . S
C847 C863 1.429 . S
C847 H869 0.950 . S
C848 H844 0.949 . S
C848 C856 1.574 . S
C848 C864 1.368 . S
H849 C857 0.950 . S
H850 C855 0.950 . S
H851 C856 0.949 . S
H852 C858 0.950 . S
H853 C859 0.950 . S
H854 C860 0.949 . S
C855 H850 0.950 . S
C855 C857 1.327 . S
C855 C861 1.429 . S
C856 C848 1.574 . S
C856 H851 0.949 . S
C856 C862 1.368 . S
C857 C841 1.349 . S
C857 H849 0.950 . S
C857 C855 1.327 . S
C858 C846 1.349 . S
C858 H852 0.950 . S
C858 C859 1.327 . S
C859 H853 0.950 . S
C859 C858 1.327 . S
C859 C863 1.429 . S
C860 C843 1.574 . S
C860 H854 0.949 . S
C860 C864 1.368 . S
C861 C842 1.429 . S
C861 C855 1.429 . S
C861 C862 1.523 . S
C862 C843 1.368 . S
C862 C856 1.368 . S
C862 C861 1.523 . S
C863 C847 1.429 . S
C863 C859 1.429 . S
C863 C864 1.523 . S
C864 C848 1.368 . S
C864 C860 1.368 . S
C864 C863 1.523 . S
H865 C840 0.950 . S
H866 C842 0.950 . S
H867 C843 0.949 . S
H868 C845 0.950 . S
H869 C847 0.950 . S
C870 C871 1.349 . S
C870 C872 1.327 . S
C870 H895 0.950 . S
C871 C870 1.349 . S
C871 C887 1.349 . S
C872 C870 1.327 . S
C872 C891 1.429 . S
C872 H896 0.950 . S
C873 C890 1.574 . S
C873 C892 1.368 . S
C873 H897 0.949 . S
H874 C878 0.949 . S
C875 C876 1.349 . S
C875 C877 1.327 . S
C875 H898 0.950 . S
C876 C875 1.349 . S
C876 C888 1.349 . S
C877 C875 1.327 . S
C877 C893 1.429 . S
C877 H899 0.950 . S
C878 H874 0.949 . S
C878 C886 1.574 . S
C878 C894 1.368 . S
H879 C887 0.950 . S
H880 C885 0.950 . S
H881 C886 0.949 . S
H882 C888 0.950 . S
H883 C889 0.950 . S
H884 C890 0.949 . S
C885 H880 0.950 . S
C885 C887 1.327 . S
C885 C891 1.429 . S
C886 C878 1.574 . S
C886 H881 0.949 . S
C886 C892 1.368 . S
C887 C871 1.349 . S
C887 H879 0.950 . S
C887 C885 1.327 . S
C888 C876 1.349 . S
C888 H882 0.950 . S
C888 C889 1.327 . S
C889 H883 0.950 . S
C889 C888 1.327 . S
C889 C893 1.429 . S
C890 C873 1.574 . S
C890 H884 0.949 . S
C890 C894 1.368 . S
C891 C872 1.429 . S
C891 C885 1.429 . S
C891 C892 1.523 . S
C892 C873 1.368 . S
C892 C886 1.368 . S
C892 C891 1.523 . S
C893 C877 1.429 . S
C893 C889 1.429 . S
C893 C894 1.523 . S
C894 C878 1.368 . S
C894 C890 1.368 . S
C894 C893 1.523 . S
H895 C870 0.950 . S
H896 C872 0.950 . S
H897 C873 0.949 . S
H898 C875 0.950 . S
H899 C877 0.950 . S
C900 C901 1.349 . S
C900 C902 1.327 . S
C900 H925 0.950 . S
C901 C900 1.349 . S
C901 C917 1.349 . S
C902 C900 1.327 . S
C902 C921 1.429 . S
C902 H926 0.950 . S
C903 C920 1.574 . S
C903 C922 1.368 . S
C903 H927 0.949 . S
H904 C908 0.949 . S
C905 C906 1.349 . S
C905 C907 1.327 . S
C905 H928 0.950 . S
C906 C905 1.349 . S
C906 C918 1.349 . S
C907 C905 1.327 . S
C907 C923 1.429 . S
C907 H929 0.950 . S
C908 H904 0.949 . S
C908 C916 1.574 . S
C908 C924 1.368 . S
H909 C917 0.950 . S
H910 C915 0.950 . S
H911 C916 0.949 . S
H912 C918 0.950 . S
H913 C919 0.950 . S
H914 C920 0.949 . S
C915 H910 0.950 . S
C915 C917 1.327 . S
C915 C921 1.429 . S
C916 C908 1.574 . S
C916 H911 0.949 . S
C916 C922 1.368 . S
C917 C901 1.349 . S
C917 H909 0.950 . S
C917 C915 1.327 . S
C918 C906 1.349 . S
C918 H912 0.950 . S
C918 C919 1.327 . S
C919 H913 0.950 . S
C919 C918 1.327 . S
C919 C923 1.429 . S
C920 C903 1.574 . S
C920 H914 0.949 . S
C920 C924 1.368 . S
C921 C902 1.429 . S
C921 C915 1.429 . S
C921 C922 1.523 . S
C922 C903 1.368 . S
C922 C916 1.368 . S
C922 C921 1.523 . S
C923 C907 1.429 . S
C923 C919 1.429 . S
C923 C924 1.523 . S
C924 C908 1.368 . S
C924 C920 1.368 . S
C924 C923 1.523 . S
H925 C900 0.950 . S
H926 C902 0.950 . S
H927 C903 0.949 . S
H928 C905 0.950 . S
H929 C907 0.950 . S
C930 C931 1.349 . S
C930 C932 1.327 . S
C930 H955 0.950 . S
C931 C930 1.349 . S
C931 C947 1.349 . S
C932 C930 1.327 . S
C932 C951 1.429 . S
C932 H956 0.950 . S
C933 C950 1.574 . S
C933 C952 1.368 . S
C933 H957 0.949 . S
H934 C938 0.949 . S
C935 C936 1.349 . S
C935 C937 1.327 . S
C935 H958 0.950 . S
C936 C935 1.349 . S
C936 C948 1.349 . S
C937 C935 1.327 . S
C937 C953 1.429 . S
C937 H959 0.950 . S
C938 H934 0.949 . S
C938 C946 1.574 . S
C938 C954 1.368 . S
H939 C947 0.950 . S
H940 C945 0.950 . S
H941 C946 0.949 . S
H942 C948 0.950 . S
H943 C949 0.950 . S
H944 C950 0.949 . S
C945 H940 0.950 . S
C945 C947 1.327 . S
C945 C951 1.429 . S
C946 C938 1.574 . S
C946 H941 0.949 . S
C946 C952 1.368 . S
C947 C931 1.349 . S
C947 H939 0.950 . S
C947 C945 1.327 . S
C948 C936 1.349 . S
C948 H942 0.950 . S
C948 C949 1.327 . S
C949 H943 0.950 . S
C949 C948 1.327 . S
C949 C953 1.429 . S
C950 C933 1.574 . S
C950 H944 0.949 . S
C950 C954 1.368 . S
C951 C932 1.429 . S
C951 C945 1.429 . S
C951 C952 1.523 . S
C952 C933 1.368 . S
C952 C946 1.368 . S
C952 C951 1.523 . S
C953 C937 1.429 . S
C953 C949 1.429 . S
C953 C954 1.523 . S
C954 C938 1.368 . S
C954 C950 1.368 . S
C954 C953 1.523 . S
H955 C930 0.950 . S
H956 C932 0.950 . S
H957 C933 0.949 . S
H958 C935 0.950 . S
H959 C937 0.950 . S
C960 C961 1.349 1_556 S
C960 C962 1.327 . S
C960 H985 0.950 . S
C961 C960 1.349 1_554 S
C961 C977 1.349 . S
C962 C960 1.327 . S
C962 C981 1.429 1_556 S
C962 H986 0.950 . S
C963 C980 1.574 . S
C963 C982 1.368 . S
C963 H987 0.949 . S
H964 C968 0.949 . S
C965 C966 1.349 . S
C965 C967 1.327 . S
C965 H988 0.950 . S
C966 C965 1.349 . S
C966 C978 1.349 1_554 S
C967 C965 1.327 . S
C967 C983 1.429 . S
C967 H989 0.950 . S
C968 H964 0.949 . S
C968 C976 1.574 . S
C968 C984 1.368 1_556 S
H969 C977 0.950 . S
H970 C975 0.950 . S
H971 C976 0.949 . S
H972 C978 0.950 . S
H973 C979 0.950 . S
H974 C980 0.949 . S
C975 H970 0.950 . S
C975 C977 1.327 . S
C975 C981 1.429 . S
C976 C968 1.574 . S
C976 H971 0.949 . S
C976 C982 1.368 1_556 S
C977 C961 1.349 . S
C977 H969 0.950 . S
C977 C975 1.327 . S
C978 C966 1.349 1_556 S
C978 H972 0.950 . S
C978 C979 1.327 . S
C979 H973 0.950 . S
C979 C978 1.327 . S
C979 C983 1.429 1_556 S
C980 C963 1.574 . S
C980 H974 0.949 . S
C980 C984 1.368 . S
C981 C962 1.429 1_554 S
C981 C975 1.429 . S
C981 C982 1.523 . S
C982 C963 1.368 . S
C982 C976 1.368 1_554 S
C982 C981 1.523 . S
C983 C967 1.429 . S
C983 C979 1.429 1_554 S
C983 C984 1.523 . S
C984 C968 1.368 1_554 S
C984 C980 1.368 . S
C984 C983 1.523 . S
H985 C960 0.950 . S
H986 C962 0.950 . S
H987 C963 0.949 . S
H988 C965 0.950 . S
H989 C967 0.950 . S
C990 C991 1.348 . S
C990 C992 1.326 1_554 S
C990 H1015 0.950 1_554 S
C991 C990 1.348 . S
C991 C1007 1.349 . S
C992 C990 1.326 1_556 S
C992 C1011 1.403 1_556 S
C992 H1016 0.978 . S
C993 C1010 1.574 . S
C993 C1012 1.368 . S
C993 H1017 0.949 . S
H994 C998 0.949 . S
C995 C996 1.349 . S
C995 C997 1.327 . S
C995 H1018 0.950 . S
C996 C995 1.349 . S
C996 C1008 1.349 1_554 S
C997 C995 1.327 . S
C997 C1013 1.429 . S
C997 H1019 0.950 . S
C998 H994 0.949 . S
C998 C1006 1.574 . S
C998 C1014 1.368 1_556 S
H999 C1007 0.950 . S
H1000 C1005 0.950 . S
H1001 C1006 0.949 . S
H1002 C1008 0.950 . S
H1003 C1009 0.950 . S
H1004 C1010 0.949 . S
C1005 H1000 0.950 . S
C1005 C1007 1.327 . S
C1005 C1011 1.429 . S
C1006 C998 1.574 . S
C1006 H1001 0.949 . S
C1006 C1012 1.368 1_556 S
C1007 C991 1.349 . S
C1007 H999 0.950 . S
C1007 C1005 1.327 . S
C1008 C996 1.349 1_556 S
C1008 H1002 0.950 . S
C1008 C1009 1.327 . S
C1009 H1003 0.950 . S
C1009 C1008 1.327 . S
C1009 C1013 1.429 1_556 S
C1010 C993 1.574 . S
C1010 H1004 0.949 . S
C1010 C1014 1.368 . S
C1011 C992 1.403 1_554 S
C1011 C1005 1.429 . S
C1011 C1012 1.523 . S
C1012 C993 1.368 . S
C1012 C1006 1.368 1_554 S
C1012 C1011 1.523 . S
C1013 C997 1.429 . S
C1013 C1009 1.429 1_554 S
C1013 C1014 1.523 . S
C1014 C998 1.368 1_554 S
C1014 C1010 1.368 . S
C1014 C1013 1.523 . S
H1015 C990 0.950 1_556 S
H1016 C992 0.978 . S
H1017 C993 0.949 . S
H1018 C995 0.950 . S
H1019 C997 0.950 . S
C1020 C1021 1.349 . S
C1020 C1022 1.327 . S
C1020 H1045 0.950 1_554 S
C1021 C1020 1.349 . S
C1021 C1037 1.349 . S
C1022 C1020 1.327 . S
C1022 C1041 1.429 . S
C1022 H1046 0.950 1_554 S
C1023 C1040 1.574 . S
C1023 C1042 1.368 . S
C1023 H1047 0.949 . S
H1024 C1028 0.949 1_556 S
C1025 C1026 1.349 . S
C1025 C1027 1.327 . S
C1025 H1048 0.950 . S
C1026 C1025 1.349 . S
C1026 C1038 1.353 . S
C1027 C1025 1.327 . S
C1027 C1043 1.429 . S
C1027 H1049 0.950 . S
C1028 H1024 0.949 1_554 S
C1028 C1036 1.574 . S
C1028 C1044 1.368 . S
H1029 C1037 0.950 . S
H1030 C1035 0.950 . S
H1031 C1036 0.949 1_556 S
H1032 C1038 0.946 1_556 S
H1033 C1039 0.935 1_556 S
H1034 C1040 0.949 . S
C1035 H1030 0.950 . S
C1035 C1037 1.327 . S
C1035 C1041 1.429 . S
C1036 C1028 1.574 . S
C1036 H1031 0.949 1_554 S
C1036 C1042 1.368 . S
C1037 C1021 1.349 . S
C1037 H1029 0.950 . S
C1037 C1035 1.327 . S
C1038 C1026 1.353 . S
C1038 H1032 0.946 1_554 S
C1038 C1039 1.327 . S
C1039 H1033 0.935 1_554 S
C1039 C1038 1.327 . S
C1039 C1043 1.444 . S
C1040 C1023 1.574 . S
C1040 H1034 0.949 . S
C1040 C1044 1.368 . S
C1041 C1022 1.429 . S
C1041 C1035 1.429 . S
C1041 C1042 1.523 . S
C1042 C1023 1.368 . S
C1042 C1036 1.368 . S
C1042 C1041 1.523 . S
C1043 C1027 1.429 . S
C1043 C1039 1.444 . S
C1043 C1044 1.523 . S
C1044 C1028 1.368 . S
C1044 C1040 1.368 . S
C1044 C1043 1.523 . S
H1045 C1020 0.950 1_556 S
H1046 C1022 0.950 1_556 S
H1047 C1023 0.949 . S
H1048 C1025 0.950 . S
H1049 C1027 0.950 . S
C1050 C1051 1.349 1_556 S
C1050 C1052 1.327 . S
C1050 H1075 0.950 . S
C1051 C1050 1.349 1_554 S
C1051 C1067 1.349 . S
C1052 C1050 1.327 . S
C1052 C1071 1.429 1_556 S
C1052 H1076 0.950 . S
C1053 C1070 1.574 . S
C1053 C1072 1.368 . S
C1053 H1077 0.949 . S
H1054 C1058 0.949 . S
C1055 C1056 1.349 . S
C1055 C1057 1.327 . S
C1055 H1078 0.950 . S
C1056 C1055 1.349 . S
C1056 C1068 1.349 1_554 S
C1057 C1055 1.327 . S
C1057 C1073 1.429 . S
C1057 H1079 0.950 . S
C1058 H1054 0.949 . S
C1058 C1066 1.574 . S
C1058 C1074 1.368 1_556 S
H1059 C1067 0.950 . S
H1060 C1065 0.950 . S
H1061 C1066 0.949 . S
H1062 C1068 0.950 . S
H1063 C1069 0.950 . S
H1064 C1070 0.949 . S
C1065 H1060 0.950 . S
C1065 C1067 1.327 . S
C1065 C1071 1.429 . S
C1066 C1058 1.574 . S
C1066 H1061 0.949 . S
C1066 C1072 1.368 1_556 S
C1067 C1051 1.349 . S
C1067 H1059 0.950 . S
C1067 C1065 1.327 . S
C1068 C1056 1.349 1_556 S
C1068 H1062 0.950 . S
C1068 C1069 1.327 . S
C1069 H1063 0.950 . S
C1069 C1068 1.327 . S
C1069 C1073 1.429 1_556 S
C1070 C1053 1.574 . S
C1070 H1064 0.949 . S
C1070 C1074 1.368 . S
C1071 C1052 1.429 1_554 S
C1071 C1065 1.429 . S
C1071 C1072 1.523 . S
C1072 C1053 1.368 . S
C1072 C1066 1.368 1_554 S
C1072 C1071 1.523 . S
C1073 C1057 1.429 . S
C1073 C1069 1.429 1_554 S
C1073 C1074 1.523 . S
C1074 C1058 1.368 1_554 S
C1074 C1070 1.368 . S
C1074 C1073 1.523 . S
H1075 C1050 0.950 . S
H1076 C1052 0.950 . S
H1077 C1053 0.949 . S
H1078 C1055 0.950 . S
H1079 C1057 0.950 . S
C1080 C1081 1.349 1_655 S
C1080 C1082 1.327 . S
C1080 H1105 0.950 . S
C1081 C1080 1.349 1_455 S
C1081 C1097 1.349 . S
C1082 C1080 1.327 . S
C1082 C1101 1.429 1_655 S
C1082 H1106 0.950 . S
C1083 C1100 1.574 . S
C1083 C1102 1.368 . S
C1083 H1107 0.949 . S
H1084 C1088 0.944 1_655 S
C1085 C1086 1.349 . S
C1085 C1087 1.327 . S
C1085 H1108 0.950 . S
C1086 C1085 1.349 . S
C1086 C1098 1.349 . S
C1087 C1085 1.327 . S
C1087 C1103 1.429 . S
C1087 H1109 0.950 . S
C1088 H1084 0.944 1_455 S
C1088 C1096 1.573 1_455 S
C1088 C1104 1.375 . S
H1089 C1097 0.950 . S
H1090 C1095 0.950 . S
H1091 C1096 0.949 . S
H1092 C1098 0.950 . S
H1093 C1099 0.950 1_655 S
H1094 C1100 0.949 . S
C1095 H1090 0.950 . S
C1095 C1097 1.327 . S
C1095 C1101 1.429 . S
C1096 C1088 1.573 1_655 S
C1096 H1091 0.949 . S
C1096 C1102 1.368 1_655 S
C1097 C1081 1.349 . S
C1097 H1089 0.950 . S
C1097 C1095 1.327 . S
C1098 C1086 1.349 . S
C1098 H1092 0.950 . S
C1098 C1099 1.327 . S
C1099 H1093 0.950 1_455 S
C1099 C1098 1.327 . S
C1099 C1103 1.429 . S
C1100 C1083 1.574 . S
C1100 H1094 0.949 . S
C1100 C1104 1.368 . S
C1101 C1082 1.429 1_455 S
C1101 C1095 1.429 . S
C1101 C1102 1.523 . S
C1102 C1083 1.368 . S
C1102 C1096 1.368 1_455 S
C1102 C1101 1.523 . S
C1103 C1087 1.429 . S
C1103 C1099 1.429 . S
C1103 C1104 1.523 . S
C1104 C1088 1.375 . S
C1104 C1100 1.368 . S
C1104 C1103 1.523 . S
H1105 C1080 0.950 . S
H1106 C1082 0.950 . S
H1107 C1083 0.949 . S
H1108 C1085 0.950 . S
H1109 C1087 0.950 . S
C1110 C1111 1.349 . S
C1110 C1112 1.327 . S
C1110 H1135 0.950 . S
C1111 C1110 1.349 . S
C1111 C1127 1.349 1_545 S
C1112 C1110 1.327 . S
C1112 C1131 1.429 . S
C1112 H1136 0.950 . S
C1113 C1130 1.574 . S
C1113 C1132 1.368 1_565 S
C1113 H1137 0.949 . S
H1114 C1118 0.949 . S
C1115 C1116 1.349 . S
C1115 C1117 1.331 . S
C1115 H1138 0.950 1_545 S
C1116 C1115 1.349 . S
C1116 C1128 1.349 . S
C1117 C1115 1.331 . S
C1117 C1133 1.452 . S
C1117 H1139 0.923 1_545 S
C1118 H1114 0.949 . S
C1118 C1126 1.574 . S
C1118 C1134 1.368 . S
H1119 C1127 0.950 . S
H1120 C1125 0.950 . S
H1121 C1126 0.949 . S
H1122 C1128 0.950 . S
H1123 C1129 0.950 . S
H1124 C1130 0.949 . S
C1125 H1120 0.950 . S
C1125 C1127 1.327 . S
C1125 C1131 1.429 1_565 S
C1126 C1118 1.574 . S
C1126 H1121 0.949 . S
C1126 C1132 1.368 . S
C1127 C1111 1.349 1_565 S
C1127 H1119 0.950 . S
C1127 C1125 1.327 . S
C1128 C1116 1.349 . S
C1128 H1122 0.950 . S
C1128 C1129 1.327 . S
C1129 H1123 0.950 . S
C1129 C1128 1.327 . S
C1129 C1133 1.429 . S
C1130 C1113 1.574 . S
C1130 H1124 0.949 . S
C1130 C1134 1.368 1_565 S
C1131 C1112 1.429 . S
C1131 C1125 1.429 1_545 S
C1131 C1132 1.523 . S
C1132 C1113 1.368 1_545 S
C1132 C1126 1.368 . S
C1132 C1131 1.523 . S
C1133 C1117 1.452 . S
C1133 C1129 1.429 . S
C1133 C1134 1.523 . S
C1134 C1118 1.368 . S
C1134 C1130 1.368 1_545 S
C1134 C1133 1.523 . S
H1135 C1110 0.950 . S
H1136 C1112 0.950 . S
H1137 C1113 0.949 . S
H1138 C1115 0.950 1_565 S
H1139 C1117 0.923 1_565 S
C1140 C1141 1.349 . S
C1140 C1142 1.327 . S
C1140 H1165 0.950 . S
C1141 C1140 1.349 . S
C1141 C1157 1.349 . S
C1142 C1140 1.327 . S
C1142 C1161 1.429 . S
C1142 H1166 0.950 . S
C1143 C1160 1.574 . S
C1143 C1162 1.368 . S
C1143 H1167 0.949 1_455 S
H1144 C1148 0.949 . S
C1145 C1146 1.349 . S
C1145 C1147 1.327 . S
C1145 H1168 0.950 1_455 S
C1146 C1145 1.349 . S
C1146 C1158 1.349 . S
C1147 C1145 1.327 . S
C1147 C1163 1.429 . S
C1147 H1169 0.950 1_455 S
C1148 H1144 0.949 . S
C1148 C1156 1.574 . S
C1148 C1164 1.368 . S
H1149 C1157 0.950 1_655 S
H1150 C1155 0.950 1_655 S
H1151 C1156 0.949 . S
H1152 C1158 0.950 . S
H1153 C1159 0.950 . S
H1154 C1160 0.949 1_655 S
C1155 H1150 0.950 1_455 S
C1155 C1157 1.327 . S
C1155 C1161 1.429 . S
C1156 C1148 1.574 . S
C1156 H1151 0.949 . S
C1156 C1162 1.368 . S
C1157 C1141 1.349 . S
C1157 H1149 0.950 1_455 S
C1157 C1155 1.327 . S
C1158 C1146 1.349 . S
C1158 H1152 0.950 . S
C1158 C1159 1.327 . S
C1159 H1153 0.950 . S
C1159 C1158 1.327 . S
C1159 C1163 1.429 . S
C1160 C1143 1.574 . S
C1160 H1154 0.949 1_455 S
C1160 C1164 1.368 . S
C1161 C1142 1.429 . S
C1161 C1155 1.429 . S
C1161 C1162 1.523 . S
C1162 C1143 1.368 . S
C1162 C1156 1.368 . S
C1162 C1161 1.523 . S
C1163 C1147 1.429 . S
C1163 C1159 1.429 . S
C1163 C1164 1.523 . S
C1164 C1148 1.368 . S
C1164 C1160 1.368 . S
C1164 C1163 1.523 . S
H1165 C1140 0.950 . S
H1166 C1142 0.950 . S
H1167 C1143 0.949 1_655 S
H1168 C1145 0.950 1_655 S
H1169 C1147 0.950 1_655 S
C1170 C1171 1.349 . S
C1170 C1172 1.327 . S
C1170 H1195 0.950 . S
C1171 C1170 1.349 . S
C1171 C1187 1.349 . S
C1172 C1170 1.327 . S
C1172 C1191 1.429 . S
C1172 H1196 0.950 . S
C1173 C1190 1.574 . S
C1173 C1192 1.368 . S
C1173 H1197 0.949 . S
H1174 C1178 0.949 . S
C1175 C1176 1.349 . S
C1175 C1177 1.327 . S
C1175 H1198 0.950 . S
C1176 C1175 1.349 . S
C1176 C1188 1.349 . S
C1177 C1175 1.327 . S
C1177 C1193 1.429 . S
C1177 H1199 0.950 . S
C1178 H1174 0.949 . S
C1178 C1186 1.574 . S
C1178 C1194 1.368 . S
H1179 C1187 0.950 . S
H1180 C1185 0.950 . S
H1181 C1186 0.949 . S
H1182 C1188 0.981 . S
H1183 C1189 0.950 . S
H1184 C1190 0.949 . S
C1185 H1180 0.950 . S
C1185 C1187 1.327 . S
C1185 C1191 1.429 . S
C1186 C1178 1.574 . S
C1186 H1181 0.949 . S
C1186 C1192 1.368 . S
C1187 C1171 1.349 . S
C1187 H1179 0.950 . S
C1187 C1185 1.327 . S
C1188 C1176 1.349 . S
C1188 H1182 0.981 . S
C1188 C1189 1.327 . S
C1189 H1183 0.950 . S
C1189 C1188 1.327 . S
C1189 C1193 1.429 . S
C1190 C1173 1.574 . S
C1190 H1184 0.949 . S
C1190 C1194 1.368 . S
C1191 C1172 1.429 . S
C1191 C1185 1.429 . S
C1191 C1192 1.523 . S
C1192 C1173 1.368 . S
C1192 C1186 1.368 . S
C1192 C1191 1.523 . S
C1193 C1177 1.429 . S
C1193 C1189 1.429 . S
C1193 C1194 1.523 . S
C1194 C1178 1.368 . S
C1194 C1190 1.368 . S
C1194 C1193 1.523 . S
H1195 C1170 0.950 . S
H1196 C1172 0.950 . S
H1197 C1173 0.949 . S
H1198 C1175 0.950 . S
H1199 C1177 0.950 . S
C1200 C1201 1.349 . S
C1200 C1202 1.327 . S
C1200 H1225 0.950 . S
C1201 C1200 1.349 . S
C1201 C1217 1.349 . S
C1202 C1200 1.327 . S
C1202 C1221 1.429 . S
C1202 H1226 0.950 . S
C1203 C1220 1.574 . S
C1203 C1222 1.368 . S
C1203 H1227 0.949 . S
H1204 C1208 0.949 . S
C1205 C1206 1.349 . S
C1205 C1207 1.327 . S
C1205 H1228 0.950 . S
C1206 C1205 1.349 . S
C1206 C1218 1.349 . S
C1207 C1205 1.327 . S
C1207 C1223 1.429 . S
C1207 H1229 0.950 . S
C1208 H1204 0.949 . S
C1208 C1216 1.574 . S
C1208 C1224 1.368 . S
H1209 C1217 0.950 . S
H1210 C1215 0.950 . S
H1211 C1216 0.949 . S
H1212 C1218 0.950 . S
H1213 C1219 0.950 . S
H1214 C1220 0.949 . S
C1215 H1210 0.950 . S
C1215 C1217 1.327 . S
C1215 C1221 1.429 . S
C1216 C1208 1.574 . S
C1216 H1211 0.949 . S
C1216 C1222 1.368 . S
C1217 C1201 1.349 . S
C1217 H1209 0.950 . S
C1217 C1215 1.327 . S
C1218 C1206 1.349 . S
C1218 H1212 0.950 . S
C1218 C1219 1.327 . S
C1219 H1213 0.950 . S
C1219 C1218 1.327 . S
C1219 C1223 1.429 . S
C1220 C1203 1.574 . S
C1220 H1214 0.949 . S
C1220 C1224 1.368 . S
C1221 C1202 1.429 . S
C1221 C1215 1.429 . S
C1221 C1222 1.523 . S
C1222 C1203 1.368 . S
C1222 C1216 1.368 . S
C1222 C1221 1.523 . S
C1223 C1207 1.429 . S
C1223 C1219 1.429 . S
C1223 C1224 1.523 . S
C1224 C1208 1.368 . S
C1224 C1220 1.368 . S
C1224 C1223 1.523 . S
H1225 C1200 0.950 . S
H1226 C1202 0.950 . S
H1227 C1203 0.949 . S
H1228 C1205 0.950 . S
H1229 C1207 0.950 . S
C1230 C1231 1.349 . S
C1230 C1232 1.327 . S
C1230 H1255 0.950 . S
C1231 C1230 1.349 . S
C1231 C1247 1.349 . S
C1232 C1230 1.327 . S
C1232 C1251 1.429 . S
C1232 H1256 0.950 . S
C1233 C1250 1.574 . S
C1233 C1252 1.368 . S
C1233 H1257 0.949 . S
H1234 C1238 0.949 . S
C1235 C1236 1.349 . S
C1235 C1237 1.327 . S
C1235 H1258 0.950 . S
C1236 C1235 1.349 . S
C1236 C1248 1.349 . S
C1237 C1235 1.327 . S
C1237 C1253 1.429 . S
C1237 H1259 0.950 . S
C1238 H1234 0.949 . S
C1238 C1246 1.574 . S
C1238 C1254 1.368 . S
H1239 C1247 0.950 . S
H1240 C1245 0.950 . S
H1241 C1246 0.949 . S
H1242 C1248 0.950 1_565 S
H1243 C1249 0.950 1_565 S
H1244 C1250 0.949 . S
C1245 H1240 0.950 . S
C1245 C1247 1.327 . S
C1245 C1251 1.429 . S
C1246 C1238 1.574 . S
C1246 H1241 0.949 . S
C1246 C1252 1.368 . S
C1247 C1231 1.349 . S
C1247 H1239 0.950 . S
C1247 C1245 1.327 . S
C1248 C1236 1.349 . S
C1248 H1242 0.950 1_545 S
C1248 C1249 1.327 . S
C1249 H1243 0.950 1_545 S
C1249 C1248 1.327 . S
C1249 C1253 1.429 . S
C1250 C1233 1.574 . S
C1250 H1244 0.949 . S
C1250 C1254 1.368 . S
C1251 C1232 1.429 . S
C1251 C1245 1.429 . S
C1251 C1252 1.523 . S
C1252 C1233 1.368 . S
C1252 C1246 1.368 . S
C1252 C1251 1.523 . S
C1253 C1237 1.429 . S
C1253 C1249 1.429 . S
C1253 C1254 1.523 . S
C1254 C1238 1.368 . S
C1254 C1250 1.368 . S
C1254 C1253 1.523 . S
H1255 C1230 0.950 . S
H1256 C1232 0.950 . S
H1257 C1233 0.949 . S
H1258 C1235 0.950 . S
H1259 C1237 0.950 . S
C1260 C1261 1.349 . S
C1260 C1262 1.327 . S
C1260 H1285 0.950 . S
C1261 C1260 1.349 . S
C1261 C1277 1.349 . S
C1262 C1260 1.327 . S
C1262 C1281 1.429 . S
C1262 H1286 0.950 . S
C1263 C1280 1.574 . S
C1263 C1282 1.368 . S
C1263 H1287 0.949 . S
H1264 C1268 0.949 . S
C1265 C1266 1.349 . S
C1265 C1267 1.327 . S
C1265 H1288 0.950 . S
C1266 C1265 1.349 . S
C1266 C1278 1.349 . S
C1267 C1265 1.327 . S
C1267 C1283 1.429 . S
C1267 H1289 0.950 . S
C1268 H1264 0.949 . S
C1268 C1276 1.574 . S
C1268 C1284 1.368 . S
H1269 C1277 0.950 . S
H1270 C1275 0.950 . S
H1271 C1276 0.949 . S
H1272 C1278 0.950 . S
H1273 C1279 0.950 . S
H1274 C1280 0.949 . S
C1275 H1270 0.950 . S
C1275 C1277 1.327 . S
C1275 C1281 1.429 . S
C1276 C1268 1.574 . S
C1276 H1271 0.949 . S
C1276 C1282 1.368 . S
C1277 C1261 1.349 . S
C1277 H1269 0.950 . S
C1277 C1275 1.327 . S
C1278 C1266 1.349 . S
C1278 H1272 0.950 . S
C1278 C1279 1.327 . S
C1279 H1273 0.950 . S
C1279 C1278 1.327 . S
C1279 C1283 1.429 . S
C1280 C1263 1.574 . S
C1280 H1274 0.949 . S
C1280 C1284 1.368 . S
C1281 C1262 1.429 . S
C1281 C1275 1.429 . S
C1281 C1282 1.523 . S
C1282 C1263 1.368 . S
C1282 C1276 1.368 . S
C1282 C1281 1.523 . S
C1283 C1267 1.429 . S
C1283 C1279 1.429 . S
C1283 C1284 1.523 . S
C1284 C1268 1.368 . S
C1284 C1280 1.368 . S
C1284 C1283 1.523 . S
H1285 C1260 0.950 . S
H1286 C1262 0.950 . S
H1287 C1263 0.949 . S
H1288 C1265 0.950 . S
H1289 C1267 0.950 . S
C1290 C1291 1.349 . S
C1290 C1292 1.327 . S
C1290 H1315 0.950 . S
C1291 C1290 1.349 . S
C1291 C1307 1.349 1_545 S
C1292 C1290 1.327 . S
C1292 C1311 1.429 . S
C1292 H1316 0.950 . S
C1293 C1310 1.574 . S
C1293 C1312 1.368 1_565 S
C1293 H1317 0.949 . S
H1294 C1298 0.949 . S
C1295 C1296 1.374 . S
C1295 C1297 1.325 1_545 S
C1295 H1318 0.927 1_545 S
C1296 C1295 1.374 . S
C1296 C1308 1.349 . S
C1297 C1295 1.325 1_565 S
C1297 C1313 1.429 1_565 S
C1297 H1319 0.950 . S
C1298 H1294 0.949 . S
C1298 C1306 1.574 . S
C1298 C1314 1.368 . S
H1299 C1307 0.950 . S
H1300 C1305 0.950 . S
H1301 C1306 0.949 . S
H1302 C1308 0.950 . S
H1303 C1309 0.950 . S
H1304 C1310 0.949 . S
C1305 H1300 0.950 . S
C1305 C1307 1.327 . S
C1305 C1311 1.429 1_565 S
C1306 C1298 1.574 . S
C1306 H1301 0.949 . S
C1306 C1312 1.368 . S
C1307 C1291 1.349 1_565 S
C1307 H1299 0.950 . S
C1307 C1305 1.327 . S
C1308 C1296 1.349 . S
C1308 H1302 0.950 . S
C1308 C1309 1.327 . S
C1309 H1303 0.950 . S
C1309 C1308 1.327 . S
C1309 C1313 1.429 . S
C1310 C1293 1.574 . S
C1310 H1304 0.949 . S
C1310 C1314 1.368 1_565 S
C1311 C1292 1.429 . S
C1311 C1305 1.429 1_545 S
C1311 C1312 1.523 . S
C1312 C1293 1.368 1_545 S
C1312 C1306 1.368 . S
C1312 C1311 1.523 . S
C1313 C1297 1.429 1_545 S
C1313 C1309 1.429 . S
C1313 C1314 1.523 . S
C1314 C1298 1.368 . S
C1314 C1310 1.368 1_545 S
C1314 C1313 1.523 . S
H1315 C1290 0.950 . S
H1316 C1292 0.950 . S
H1317 C1293 0.949 . S
H1318 C1295 0.927 1_565 S
H1319 C1297 0.950 . S
C1320 C1321 1.349 . S
C1320 C1322 1.327 . S
C1320 H1345 0.950 . S
C1321 C1320 1.349 . S
C1321 C1337 1.349 . S
C1322 C1320 1.327 . S
C1322 C1341 1.429 . S
C1322 H1346 0.950 . S
C1323 C1340 1.574 . S
C1323 C1342 1.368 . S
C1323 H1347 0.949 . S
H1324 C1328 0.949 . S
C1325 C1326 1.349 . S
C1325 C1327 1.327 . S
C1325 H1348 0.950 . S
C1326 C1325 1.349 . S
C1326 C1338 1.349 . S
C1327 C1325 1.327 . S
C1327 C1343 1.429 . S
C1327 H1349 0.950 . S
C1328 H1324 0.949 . S
C1328 C1336 1.574 . S
C1328 C1344 1.368 . S
H1329 C1337 0.950 . S
H1330 C1335 0.950 . S
H1331 C1336 0.949 . S
H1332 C1338 0.950 . S
H1333 C1339 0.950 . S
H1334 C1340 0.949 . S
C1335 H1330 0.950 . S
C1335 C1337 1.327 . S
C1335 C1341 1.429 . S
C1336 C1328 1.574 . S
C1336 H1331 0.949 . S
C1336 C1342 1.368 . S
C1337 C1321 1.349 . S
C1337 H1329 0.950 . S
C1337 C1335 1.327 . S
C1338 C1326 1.349 . S
C1338 H1332 0.950 . S
C1338 C1339 1.327 . S
C1339 H1333 0.950 . S
C1339 C1338 1.327 . S
C1339 C1343 1.429 . S
C1340 C1323 1.574 . S
C1340 H1334 0.949 . S
C1340 C1344 1.368 . S
C1341 C1322 1.429 . S
C1341 C1335 1.429 . S
C1341 C1342 1.523 . S
C1342 C1323 1.368 . S
C1342 C1336 1.368 . S
C1342 C1341 1.523 . S
C1343 C1327 1.429 . S
C1343 C1339 1.429 . S
C1343 C1344 1.523 . S
C1344 C1328 1.368 . S
C1344 C1340 1.368 . S
C1344 C1343 1.523 . S
H1345 C1320 0.950 . S
H1346 C1322 0.950 . S
H1347 C1323 0.949 . S
H1348 C1325 0.950 . S
H1349 C1327 0.950 . S
C1350 C1351 1.349 . S
C1350 C1352 1.327 . S
C1350 H1375 0.950 . S
C1351 C1350 1.349 . S
C1351 C1367 1.349 . S
C1352 C1350 1.327 . S
C1352 C1371 1.429 . S
C1352 H1376 0.950 . S
C1353 C1370 1.574 . S
C1353 C1372 1.368 . S
C1353 H1377 0.949 . S
H1354 C1358 0.949 . S
C1355 C1356 1.349 . S
C1355 C1357 1.327 . S
C1355 H1378 0.950 . S
C1356 C1355 1.349 . S
C1356 C1368 1.349 . S
C1357 C1355 1.327 . S
C1357 C1373 1.429 . S
C1357 H1379 0.950 . S
C1358 H1354 0.949 . S
C1358 C1366 1.574 . S
C1358 C1374 1.368 . S
H1359 C1367 0.950 . S
H1360 C1365 0.950 . S
H1361 C1366 0.949 . S
H1362 C1368 0.949 1_565 S
H1363 C1369 0.950 . S
H1364 C1370 0.949 . S
C1365 H1360 0.950 . S
C1365 C1367 1.327 . S
C1365 C1371 1.429 . S
C1366 C1358 1.574 . S
C1366 H1361 0.949 . S
C1366 C1372 1.368 . S
C1367 C1351 1.349 . S
C1367 H1359 0.950 . S
C1367 C1365 1.327 . S
C1368 C1356 1.349 . S
C1368 H1362 0.949 1_545 S
C1368 C1369 1.327 . S
C1369 H1363 0.950 . S
C1369 C1368 1.327 . S
C1369 C1373 1.429 . S
C1370 C1353 1.574 . S
C1370 H1364 0.949 . S
C1370 C1374 1.368 . S
C1371 C1352 1.429 . S
C1371 C1365 1.429 . S
C1371 C1372 1.523 . S
C1372 C1353 1.368 . S
C1372 C1366 1.368 . S
C1372 C1371 1.523 . S
C1373 C1357 1.429 . S
C1373 C1369 1.429 . S
C1373 C1374 1.523 . S
C1374 C1358 1.368 . S
C1374 C1370 1.368 . S
C1374 C1373 1.523 . S
H1375 C1350 0.950 . S
H1376 C1352 0.950 . S
H1377 C1353 0.949 . S
H1378 C1355 0.950 . S
H1379 C1357 0.950 . S
C1380 C1381 1.349 . S
C1380 C1382 1.327 . S
C1380 H1405 0.950 . S
C1381 C1380 1.349 . S
C1381 C1397 1.349 . S
C1382 C1380 1.327 . S
C1382 C1401 1.429 . S
C1382 H1406 0.950 . S
C1383 C1400 1.574 . S
C1383 C1402 1.368 . S
C1383 H1407 0.949 . S
H1384 C1388 0.949 . S
C1385 C1386 1.349 . S
C1385 C1387 1.327 . S
C1385 H1408 0.950 . S
C1386 C1385 1.349 . S
C1386 C1398 1.349 . S
C1387 C1385 1.327 . S
C1387 C1403 1.429 . S
C1387 H1409 0.950 . S
C1388 H1384 0.949 . S
C1388 C1396 1.574 . S
C1388 C1404 1.368 . S
H1389 C1397 0.950 . S
H1390 C1395 0.950 . S
H1391 C1396 0.949 . S
H1392 C1398 0.950 . S
H1393 C1399 0.950 . S
H1394 C1400 0.949 . S
C1395 H1390 0.950 . S
C1395 C1397 1.327 . S
C1395 C1401 1.429 . S
C1396 C1388 1.574 . S
C1396 H1391 0.949 . S
C1396 C1402 1.368 . S
C1397 C1381 1.349 . S
C1397 H1389 0.950 . S
C1397 C1395 1.327 . S
C1398 C1386 1.349 . S
C1398 H1392 0.950 . S
C1398 C1399 1.327 . S
C1399 H1393 0.950 . S
C1399 C1398 1.327 . S
C1399 C1403 1.429 . S
C1400 C1383 1.574 . S
C1400 H1394 0.949 . S
C1400 C1404 1.368 . S
C1401 C1382 1.429 . S
C1401 C1395 1.429 . S
C1401 C1402 1.523 . S
C1402 C1383 1.368 . S
C1402 C1396 1.368 . S
C1402 C1401 1.523 . S
C1403 C1387 1.429 . S
C1403 C1399 1.429 . S
C1403 C1404 1.523 . S
C1404 C1388 1.368 . S
C1404 C1400 1.368 . S
C1404 C1403 1.523 . S
H1405 C1380 0.950 . S
H1406 C1382 0.950 . S
H1407 C1383 0.949 . S
H1408 C1385 0.950 . S
H1409 C1387 0.950 . S
C1410 C1411 1.349 1_565 S
C1410 C1412 1.327 . S
C1410 H1435 0.950 . S
C1411 C1410 1.349 1_545 S
C1411 C1427 1.349 . S
C1412 C1410 1.327 . S
C1412 C1431 1.429 1_565 S
C1412 H1436 0.950 . S
C1413 C1430 1.574 . S
C1413 C1432 1.368 . S
C1413 H1437 0.949 . S
H1414 C1418 0.949 . S
C1415 C1416 1.349 . S
C1415 C1417 1.327 . S
C1415 H1438 0.950 . S
C1416 C1415 1.349 . S
C1416 C1428 1.349 . S
C1417 C1415 1.327 . S
C1417 C1433 1.429 . S
C1417 H1439 0.950 . S
C1418 H1414 0.949 . S
C1418 C1426 1.574 . S
C1418 C1434 1.368 1_565 S
H1419 C1427 0.950 . S
H1420 C1425 0.950 . S
H1421 C1426 0.949 . S
H1422 C1428 0.950 1_565 S
H1423 C1429 0.938 1_565 S
H1424 C1430 0.949 . S
C1425 H1420 0.950 . S
C1425 C1427 1.327 . S
C1425 C1431 1.429 . S
C1426 C1418 1.574 . S
C1426 H1421 0.949 . S
C1426 C1432 1.368 1_565 S
C1427 C1411 1.349 . S
C1427 H1419 0.950 . S
C1427 C1425 1.327 . S
C1428 C1416 1.349 . S
C1428 H1422 0.950 1_545 S
C1428 C1429 1.329 . S
C1429 H1423 0.938 1_545 S
C1429 C1428 1.329 . S
C1429 C1433 1.439 . S
C1430 C1413 1.574 . S
C1430 H1424 0.949 . S
C1430 C1434 1.368 . S
C1431 C1412 1.429 1_545 S
C1431 C1425 1.429 . S
C1431 C1432 1.523 . S
C1432 C1413 1.368 . S
C1432 C1426 1.368 1_545 S
C1432 C1431 1.523 . S
C1433 C1417 1.429 . S
C1433 C1429 1.439 . S
C1433 C1434 1.523 . S
C1434 C1418 1.368 1_545 S
C1434 C1430 1.368 . S
C1434 C1433 1.523 . S
H1435 C1410 0.950 . S
H1436 C1412 0.950 . S
H1437 C1413 0.949 . S
H1438 C1415 0.950 . S
H1439 C1417 0.950 . S
C1440 C1441 1.346 1_655 S
C1440 C1442 1.327 . S
C1440 H1465 0.950 . S
C1441 C1440 1.346 1_455 S
C1441 C1457 1.352 . S
C1442 C1440 1.327 . S
C1442 C1461 1.429 1_655 S
C1442 H1466 0.950 . S
C1443 C1460 1.574 . S
C1443 C1462 1.368 . S
C1443 H1467 0.949 . S
H1444 C1448 0.949 . S
C1445 C1446 1.349 . S
C1445 C1447 1.327 . S
C1445 H1468 0.950 . S
C1446 C1445 1.349 . S
C1446 C1458 1.349 1_455 S
C1447 C1445 1.327 . S
C1447 C1463 1.429 . S
C1447 H1469 0.950 . S
C1448 H1444 0.949 . S
C1448 C1456 1.574 . S
C1448 C1464 1.368 1_655 S
H1449 C1457 0.950 . S
H1450 C1455 0.950 . S
H1451 C1456 0.949 . S
H1452 C1458 0.950 . S
H1453 C1459 0.950 . S
H1454 C1460 0.949 . S
C1455 H1450 0.950 . S
C1455 C1457 1.327 . S
C1455 C1461 1.429 . S
C1456 C1448 1.574 . S
C1456 H1451 0.949 . S
C1456 C1462 1.368 1_655 S
C1457 C1441 1.352 . S
C1457 H1449 0.950 . S
C1457 C1455 1.327 . S
C1458 C1446 1.349 1_655 S
C1458 H1452 0.950 . S
C1458 C1459 1.327 . S
C1459 H1453 0.950 . S
C1459 C1458 1.327 . S
C1459 C1463 1.429 1_655 S
C1460 C1443 1.574 . S
C1460 H1454 0.949 . S
C1460 C1464 1.368 . S
C1461 C1442 1.429 1_455 S
C1461 C1455 1.429 . S
C1461 C1462 1.523 . S
C1462 C1443 1.368 . S
C1462 C1456 1.368 1_455 S
C1462 C1461 1.523 . S
C1463 C1447 1.429 . S
C1463 C1459 1.429 1_455 S
C1463 C1464 1.523 . S
C1464 C1448 1.368 1_455 S
C1464 C1460 1.368 . S
C1464 C1463 1.523 . S
H1465 C1440 0.950 . S
H1466 C1442 0.950 . S
H1467 C1443 0.949 . S
H1468 C1445 0.950 . S
H1469 C1447 0.950 . S
C1470 C1471 1.349 . S
C1470 C1472 1.327 . S
C1470 H1495 0.950 . S
C1471 C1470 1.349 . S
C1471 C1487 1.349 1_545 S
C1472 C1470 1.327 . S
C1472 C1491 1.429 . S
C1472 H1496 0.950 . S
C1473 C1490 1.574 . S
C1473 C1492 1.368 1_565 S
C1473 H1497 0.949 . S
H1474 C1478 0.949 . S
C1475 C1476 1.349 . S
C1475 C1477 1.326 1_545 S
C1475 H1498 0.950 1_545 S
C1476 C1475 1.349 . S
C1476 C1488 1.349 . S
C1477 C1475 1.326 1_565 S
C1477 C1493 1.412 1_565 S
C1477 H1499 0.969 . S
C1478 H1474 0.949 . S
C1478 C1486 1.574 . S
C1478 C1494 1.368 . S
H1479 C1487 0.950 . S
H1480 C1485 0.950 . S
H1481 C1486 0.949 . S
H1482 C1488 0.950 . S
H1483 C1489 0.950 . S
H1484 C1490 0.949 . S
C1485 H1480 0.950 . S
C1485 C1487 1.327 . S
C1485 C1491 1.429 1_565 S
C1486 C1478 1.574 . S
C1486 H1481 0.949 . S
C1486 C1492 1.368 . S
C1487 C1471 1.349 1_565 S
C1487 H1479 0.950 . S
C1487 C1485 1.327 . S
C1488 C1476 1.349 . S
C1488 H1482 0.950 . S
C1488 C1489 1.327 . S
C1489 H1483 0.950 . S
C1489 C1488 1.327 . S
C1489 C1493 1.429 . S
C1490 C1473 1.574 . S
C1490 H1484 0.949 . S
C1490 C1494 1.368 1_565 S
C1491 C1472 1.429 . S
C1491 C1485 1.429 1_545 S
C1491 C1492 1.523 . S
C1492 C1473 1.368 1_545 S
C1492 C1486 1.368 . S
C1492 C1491 1.523 . S
C1493 C1477 1.412 1_545 S
C1493 C1489 1.429 . S
C1493 C1494 1.523 . S
C1494 C1478 1.368 . S
C1494 C1490 1.368 1_545 S
C1494 C1493 1.523 . S
H1495 C1470 0.950 . S
H1496 C1472 0.950 . S
H1497 C1473 0.949 . S
H1498 C1475 0.950 1_565 S
H1499 C1477 0.969 . S
C1500 C1501 1.349 . S
C1500 C1502 1.327 . S
C1500 H1525 0.950 . S
C1501 C1500 1.349 . S
C1501 C1517 1.349 . S
C1502 C1500 1.327 . S
C1502 C1521 1.429 . S
C1502 H1526 0.950 . S
C1503 C1520 1.574 . S
C1503 C1522 1.368 . S
C1503 H1527 0.949 1_455 S
H1504 C1508 0.949 . S
C1505 C1506 1.349 . S
C1505 C1507 1.327 . S
C1505 H1528 0.950 1_455 S
C1506 C1505 1.349 . S
C1506 C1518 1.349 . S
C1507 C1505 1.327 . S
C1507 C1523 1.429 . S
C1507 H1529 0.950 1_455 S
C1508 H1504 0.949 . S
C1508 C1516 1.574 . S
C1508 C1524 1.368 . S
H1509 C1517 0.944 1_655 S
H1510 C1515 0.950 1_655 S
H1511 C1516 0.949 . S
H1512 C1518 0.950 . S
H1513 C1519 0.950 . S
H1514 C1520 0.949 1_655 S
C1515 H1510 0.950 1_455 S
C1515 C1517 1.327 . S
C1515 C1521 1.429 . S
C1516 C1508 1.574 . S
C1516 H1511 0.949 . S
C1516 C1522 1.368 . S
C1517 C1501 1.349 . S
C1517 H1509 0.944 1_455 S
C1517 C1515 1.327 . S
C1518 C1506 1.349 . S
C1518 H1512 0.950 . S
C1518 C1519 1.327 . S
C1519 H1513 0.950 . S
C1519 C1518 1.327 . S
C1519 C1523 1.429 . S
C1520 C1503 1.574 . S
C1520 H1514 0.949 1_455 S
C1520 C1524 1.368 . S
C1521 C1502 1.429 . S
C1521 C1515 1.429 . S
C1521 C1522 1.523 . S
C1522 C1503 1.368 . S
C1522 C1516 1.368 . S
C1522 C1521 1.523 . S
C1523 C1507 1.429 . S
C1523 C1519 1.429 . S
C1523 C1524 1.523 . S
C1524 C1508 1.368 . S
C1524 C1520 1.368 . S
C1524 C1523 1.523 . S
H1525 C1500 0.950 . S
H1526 C1502 0.950 . S
H1527 C1503 0.949 1_655 S
H1528 C1505 0.950 1_655 S
H1529 C1507 0.950 1_655 S
C1530 C1531 1.349 . S
C1530 C1532 1.327 . S
C1530 H1555 0.950 . S
C1531 C1530 1.349 . S
C1531 C1547 1.349 . S
C1532 C1530 1.327 . S
C1532 C1551 1.429 . S
C1532 H1556 0.950 . S
C1533 C1550 1.574 . S
C1533 C1552 1.368 . S
C1533 H1557 0.949 . S
H1534 C1538 0.949 1_565 S
C1535 C1536 1.349 . S
C1535 C1537 1.327 . S
C1535 H1558 0.950 . S
C1536 C1535 1.349 . S
C1536 C1548 1.349 . S
C1537 C1535 1.327 . S
C1537 C1553 1.429 . S
C1537 H1559 0.950 . S
C1538 H1534 0.949 1_545 S
C1538 C1546 1.574 . S
C1538 C1554 1.368 . S
H1539 C1547 0.950 . S
H1540 C1545 0.950 . S
H1541 C1546 0.927 1_565 S
H1542 C1548 0.950 1_565 S
H1543 C1549 0.950 1_565 S
H1544 C1550 0.949 . S
C1545 H1540 0.950 . S
C1545 C1547 1.327 . S
C1545 C1551 1.429 . S
C1546 C1538 1.574 . S
C1546 H1541 0.927 1_545 S
C1546 C1552 1.368 . S
C1547 C1531 1.349 . S
C1547 H1539 0.950 . S
C1547 C1545 1.327 . S
C1548 C1536 1.349 . S
C1548 H1542 0.950 1_545 S
C1548 C1549 1.327 . S
C1549 H1543 0.950 1_545 S
C1549 C1548 1.327 . S
C1549 C1553 1.429 . S
C1550 C1533 1.574 . S
C1550 H1544 0.949 . S
C1550 C1554 1.368 . S
C1551 C1532 1.429 . S
C1551 C1545 1.429 . S
C1551 C1552 1.523 . S
C1552 C1533 1.368 . S
C1552 C1546 1.368 . S
C1552 C1551 1.523 . S
C1553 C1537 1.429 . S
C1553 C1549 1.429 . S
C1553 C1554 1.523 . S
C1554 C1538 1.368 . S
C1554 C1550 1.368 . S
C1554 C1553 1.523 . S
H1555 C1530 0.950 . S
H1556 C1532 0.950 . S
H1557 C1533 0.949 . S
H1558 C1535 0.950 . S
H1559 C1537 0.950 . S
C1560 C1561 1.349 . S
C1560 C1562 1.327 . S
C1560 H1585 0.950 . S
C1561 C1560 1.349 . S
C1561 C1577 1.349 1_545 S
C1562 C1560 1.327 . S
C1562 C1581 1.429 . S
C1562 H1586 0.950 . S
C1563 C1580 1.574 . S
C1563 C1582 1.368 1_565 S
C1563 H1587 0.949 . S
H1564 C1568 0.949 . S
C1565 C1566 1.349 1_565 S
C1565 C1567 1.327 . S
C1565 H1588 0.950 . S
C1566 C1565 1.349 1_545 S
C1566 C1578 1.349 . S
C1567 C1565 1.327 . S
C1567 C1583 1.429 1_565 S
C1567 H1589 0.950 . S
C1568 H1564 0.949 . S
C1568 C1576 1.574 . S
C1568 C1584 1.368 . S
H1569 C1577 0.950 . S
H1570 C1575 0.950 . S
H1571 C1576 0.949 . S
H1572 C1578 0.950 . S
H1573 C1579 0.950 . S
H1574 C1580 0.949 . S
C1575 H1570 0.950 . S
C1575 C1577 1.327 . S
C1575 C1581 1.429 1_565 S
C1576 C1568 1.574 . S
C1576 H1571 0.949 . S
C1576 C1582 1.368 . S
C1577 C1561 1.349 1_565 S
C1577 H1569 0.950 . S
C1577 C1575 1.327 . S
C1578 C1566 1.349 . S
C1578 H1572 0.950 . S
C1578 C1579 1.327 . S
C1579 H1573 0.950 . S
C1579 C1578 1.327 . S
C1579 C1583 1.429 . S
C1580 C1563 1.574 . S
C1580 H1574 0.949 . S
C1580 C1584 1.368 1_565 S
C1581 C1562 1.429 . S
C1581 C1575 1.429 1_545 S
C1581 C1582 1.523 . S
C1582 C1563 1.368 1_545 S
C1582 C1576 1.368 . S
C1582 C1581 1.523 . S
C1583 C1567 1.429 1_545 S
C1583 C1579 1.429 . S
C1583 C1584 1.523 . S
C1584 C1568 1.368 . S
C1584 C1580 1.368 1_545 S
C1584 C1583 1.523 . S
H1585 C1560 0.950 . S
H1586 C1562 0.950 . S
H1587 C1563 0.949 . S
H1588 C1565 0.950 . S
H1589 C1567 0.950 . S
C1590 C1591 1.349 . S
C1590 C1592 1.327 . S
C1590 H1615 0.950 . S
C1591 C1590 1.349 . S
C1591 C1607 1.349 . S
C1592 C1590 1.327 . S
C1592 C1611 1.429 . S
C1592 H1616 0.950 . S
C1593 C1610 1.574 . S
C1593 C1612 1.368 . S
C1593 H1617 0.949 . S
H1594 C1598 0.949 . S
C1595 C1596 1.349 . S
C1595 C1597 1.327 . S
C1595 H1618 0.950 . S
C1596 C1595 1.349 . S
C1596 C1608 1.349 . S
C1597 C1595 1.327 . S
C1597 C1613 1.429 . S
C1597 H1619 0.950 . S
C1598 H1594 0.949 . S
C1598 C1606 1.574 . S
C1598 C1614 1.368 . S
H1599 C1607 0.950 . S
H1600 C1605 0.950 . S
H1601 C1606 0.949 . S
H1602 C1608 0.950 . S
H1603 C1609 0.950 . S
H1604 C1610 0.949 . S
C1605 H1600 0.950 . S
C1605 C1607 1.327 . S
C1605 C1611 1.429 . S
C1606 C1598 1.574 . S
C1606 H1601 0.949 . S
C1606 C1612 1.368 . S
C1607 C1591 1.349 . S
C1607 H1599 0.950 . S
C1607 C1605 1.327 . S
C1608 C1596 1.349 . S
C1608 H1602 0.950 . S
C1608 C1609 1.327 . S
C1609 H1603 0.950 . S
C1609 C1608 1.327 . S
C1609 C1613 1.429 . S
C1610 C1593 1.574 . S
C1610 H1604 0.949 . S
C1610 C1614 1.368 . S
C1611 C1592 1.429 . S
C1611 C1605 1.429 . S
C1611 C1612 1.523 . S
C1612 C1593 1.368 . S
C1612 C1606 1.368 . S
C1612 C1611 1.523 . S
C1613 C1597 1.429 . S
C1613 C1609 1.429 . S
C1613 C1614 1.523 . S
C1614 C1598 1.368 . S
C1614 C1610 1.368 . S
C1614 C1613 1.523 . S
H1615 C1590 0.950 . S
H1616 C1592 0.950 . S
H1617 C1593 0.949 . S
H1618 C1595 0.950 . S
H1619 C1597 0.950 . S
C1620 C1621 1.349 . S
C1620 C1622 1.327 . S
C1620 H1645 0.950 . S
C1621 C1620 1.349 . S
C1621 C1637 1.349 . S
C1622 C1620 1.327 . S
C1622 C1641 1.429 . S
C1622 H1646 0.950 . S
C1623 C1640 1.574 . S
C1623 C1642 1.368 . S
C1623 H1647 0.949 . S
H1624 C1628 0.949 . S
C1625 C1626 1.349 . S
C1625 C1627 1.327 . S
C1625 H1648 0.950 . S
C1626 C1625 1.349 . S
C1626 C1638 1.349 . S
C1627 C1625 1.327 . S
C1627 C1643 1.429 . S
C1627 H1649 0.950 . S
C1628 H1624 0.949 . S
C1628 C1636 1.574 . S
C1628 C1644 1.368 . S
H1629 C1637 0.950 . S
H1630 C1635 0.950 . S
H1631 C1636 0.949 . S
H1632 C1638 0.950 . S
H1633 C1639 0.950 . S
H1634 C1640 0.949 . S
C1635 H1630 0.950 . S
C1635 C1637 1.327 . S
C1635 C1641 1.429 . S
C1636 C1628 1.574 . S
C1636 H1631 0.949 . S
C1636 C1642 1.368 . S
C1637 C1621 1.349 . S
C1637 H1629 0.950 . S
C1637 C1635 1.327 . S
C1638 C1626 1.349 . S
C1638 H1632 0.950 . S
C1638 C1639 1.327 . S
C1639 H1633 0.950 . S
C1639 C1638 1.327 . S
C1639 C1643 1.429 . S
C1640 C1623 1.574 . S
C1640 H1634 0.949 . S
C1640 C1644 1.368 . S
C1641 C1622 1.429 . S
C1641 C1635 1.429 . S
C1641 C1642 1.523 . S
C1642 C1623 1.368 . S
C1642 C1636 1.368 . S
C1642 C1641 1.523 . S
C1643 C1627 1.429 . S
C1643 C1639 1.429 . S
C1643 C1644 1.523 . S
C1644 C1628 1.368 . S
C1644 C1640 1.368 . S
C1644 C1643 1.523 . S
H1645 C1620 0.950 . S
H1646 C1622 0.950 . S
H1647 C1623 0.949 . S
H1648 C1625 0.950 . S
H1649 C1627 0.950 . S
C1650 C1651 1.349 . S
C1650 C1652 1.327 . S
C1650 H1675 0.950 . S
C1651 C1650 1.349 . S
C1651 C1667 1.349 . S
C1652 C1650 1.327 . S
C1652 C1671 1.429 . S
C1652 H1676 0.950 . S
C1653 C1670 1.574 . S
C1653 C1672 1.368 . S
C1653 H1677 0.949 1_455 S
H1654 C1658 0.949 . S
C1655 C1656 1.386 . S
C1655 C1657 1.329 . S
C1655 H1678 0.912 1_455 S
C1656 C1655 1.386 . S
C1656 C1668 1.349 . S
C1657 C1655 1.329 . S
C1657 C1673 1.429 . S
C1657 H1679 0.950 1_455 S
C1658 H1654 0.949 . S
C1658 C1666 1.574 . S
C1658 C1674 1.368 . S
H1659 C1667 0.950 1_655 S
H1660 C1665 0.950 1_655 S
H1661 C1666 0.949 . S
H1662 C1668 0.950 . S
H1663 C1669 0.950 . S
H1664 C1670 0.949 1_655 S
C1665 H1660 0.950 1_455 S
C1665 C1667 1.327 . S
C1665 C1671 1.429 . S
C1666 C1658 1.574 . S
C1666 H1661 0.949 . S
C1666 C1672 1.368 . S
C1667 C1651 1.349 . S
C1667 H1659 0.950 1_455 S
C1667 C1665 1.327 . S
C1668 C1656 1.349 . S
C1668 H1662 0.950 . S
C1668 C1669 1.327 . S
C1669 H1663 0.950 . S
C1669 C1668 1.327 . S
C1669 C1673 1.429 . S
C1670 C1653 1.574 . S
C1670 H1664 0.949 1_455 S
C1670 C1674 1.368 . S
C1671 C1652 1.429 . S
C1671 C1665 1.429 . S
C1671 C1672 1.523 . S
C1672 C1653 1.368 . S
C1672 C1666 1.368 . S
C1672 C1671 1.523 . S
C1673 C1657 1.429 . S
C1673 C1669 1.429 . S
C1673 C1674 1.523 . S
C1674 C1658 1.368 . S
C1674 C1670 1.368 . S
C1674 C1673 1.523 . S
H1675 C1650 0.950 . S
H1676 C1652 0.950 . S
H1677 C1653 0.949 1_655 S
H1678 C1655 0.912 1_655 S
H1679 C1657 0.950 1_655 S
C1680 C1681 1.349 1_565 S
C1680 C1682 1.327 . S
C1680 H1705 0.950 . S
C1681 C1680 1.349 1_545 S
C1681 C1697 1.349 . S
C1682 C1680 1.327 . S
C1682 C1701 1.429 1_565 S
C1682 H1706 0.950 . S
C1683 C1700 1.574 . S
C1683 C1702 1.368 . S
C1683 H1707 0.949 . S
H1684 C1688 0.949 . S
C1685 C1686 1.349 . S
C1685 C1687 1.327 . S
C1685 H1708 0.950 . S
C1686 C1685 1.349 . S
C1686 C1698 1.349 1_545 S
C1687 C1685 1.327 . S
C1687 C1703 1.429 . S
C1687 H1709 0.950 . S
C1688 H1684 0.949 . S
C1688 C1696 1.574 . S
C1688 C1704 1.368 1_565 S
H1689 C1697 0.950 . S
H1690 C1695 0.950 . S
H1691 C1696 0.949 . S
H1692 C1698 0.950 . S
H1693 C1699 0.950 . S
H1694 C1700 0.949 . S
C1695 H1690 0.950 . S
C1695 C1697 1.327 . S
C1695 C1701 1.429 . S
C1696 C1688 1.574 . S
C1696 H1691 0.949 . S
C1696 C1702 1.368 1_565 S
C1697 C1681 1.349 . S
C1697 H1689 0.950 . S
C1697 C1695 1.327 . S
C1698 C1686 1.349 1_565 S
C1698 H1692 0.950 . S
C1698 C1699 1.327 . S
C1699 H1693 0.950 . S
C1699 C1698 1.327 . S
C1699 C1703 1.429 1_565 S
C1700 C1683 1.574 . S
C1700 H1694 0.949 . S
C1700 C1704 1.368 . S
C1701 C1682 1.429 1_545 S
C1701 C1695 1.429 . S
C1701 C1702 1.523 . S
C1702 C1683 1.368 . S
C1702 C1696 1.368 1_545 S
C1702 C1701 1.523 . S
C1703 C1687 1.429 . S
C1703 C1699 1.429 1_545 S
C1703 C1704 1.523 . S
C1704 C1688 1.368 1_545 S
C1704 C1700 1.368 . S
C1704 C1703 1.523 . S
H1705 C1680 0.950 . S
H1706 C1682 0.950 . S
H1707 C1683 0.949 . S
H1708 C1685 0.950 . S
H1709 C1687 0.950 . S
C1710 C1711 1.349 . S
C1710 C1712 1.327 . S
C1710 H1735 0.950 . S
C1711 C1710 1.349 . S
C1711 C1727 1.349 . S
C1712 C1710 1.327 . S
C1712 C1731 1.429 . S
C1712 H1736 0.950 . S
C1713 C1730 1.574 . S
C1713 C1732 1.368 . S
C1713 H1737 0.949 1_455 S
H1714 C1718 0.949 . S
C1715 C1716 1.349 . S
C1715 C1717 1.327 . S
C1715 H1738 0.968 . S
C1716 C1715 1.349 . S
C1716 C1728 1.349 . S
C1717 C1715 1.327 . S
C1717 C1733 1.429 . S
C1717 H1739 0.950 1_455 S
C1718 H1714 0.949 . S
C1718 C1726 1.574 . S
C1718 C1734 1.368 . S
H1719 C1727 0.950 1_655 S
H1720 C1725 0.950 1_655 S
H1721 C1726 0.949 . S
H1722 C1728 0.950 . S
H1723 C1729 0.950 . S
H1724 C1730 0.949 1_655 S
C1725 H1720 0.950 1_455 S
C1725 C1727 1.327 . S
C1725 C1731 1.429 . S
C1726 C1718 1.574 . S
C1726 H1721 0.949 . S
C1726 C1732 1.368 . S
C1727 C1711 1.349 . S
C1727 H1719 0.950 1_455 S
C1727 C1725 1.327 . S
C1728 C1716 1.349 . S
C1728 H1722 0.950 . S
C1728 C1729 1.327 . S
C1729 H1723 0.950 . S
C1729 C1728 1.327 . S
C1729 C1733 1.429 . S
C1730 C1713 1.574 . S
C1730 H1724 0.949 1_455 S
C1730 C1734 1.368 . S
C1731 C1712 1.429 . S
C1731 C1725 1.429 . S
C1731 C1732 1.523 . S
C1732 C1713 1.368 . S
C1732 C1726 1.368 . S
C1732 C1731 1.523 . S
C1733 C1717 1.429 . S
C1733 C1729 1.429 . S
C1733 C1734 1.523 . S
C1734 C1718 1.368 . S
C1734 C1730 1.368 . S
C1734 C1733 1.523 . S
H1735 C1710 0.950 . S
H1736 C1712 0.950 . S
H1737 C1713 0.949 1_655 S
H1738 C1715 0.968 . S
H1739 C1717 0.950 1_655 S
C1740 C1741 1.349 . S
C1740 C1742 1.327 . S
C1740 H1765 0.950 . S
C1741 C1740 1.349 . S
C1741 C1757 1.349 . S
C1742 C1740 1.327 . S
C1742 C1761 1.429 . S
C1742 H1766 0.950 . S
C1743 C1760 1.574 . S
C1743 C1762 1.368 . S
C1743 H1767 0.949 . S
H1744 C1748 0.949 . S
C1745 C1746 1.349 . S
C1745 C1747 1.327 . S
C1745 H1768 0.949 . S
C1746 C1745 1.349 . S
C1746 C1758 1.349 . S
C1747 C1745 1.327 . S
C1747 C1763 1.429 . S
C1747 H1769 0.978 . S
C1748 H1744 0.949 . S
C1748 C1756 1.574 . S
C1748 C1764 1.368 . S
H1749 C1757 0.950 . S
H1750 C1755 0.950 . S
H1751 C1756 0.949 . S
H1752 C1758 0.950 . S
H1753 C1759 0.950 . S
H1754 C1760 0.949 . S
C1755 H1750 0.950 . S
C1755 C1757 1.327 . S
C1755 C1761 1.429 . S
C1756 C1748 1.574 . S
C1756 H1751 0.949 . S
C1756 C1762 1.368 . S
C1757 C1741 1.349 . S
C1757 H1749 0.950 . S
C1757 C1755 1.327 . S
C1758 C1746 1.349 . S
C1758 H1752 0.950 . S
C1758 C1759 1.327 . S
C1759 H1753 0.950 . S
C1759 C1758 1.327 . S
C1759 C1763 1.429 . S
C1760 C1743 1.574 . S
C1760 H1754 0.949 . S
C1760 C1764 1.368 . S
C1761 C1742 1.429 . S
C1761 C1755 1.429 . S
C1761 C1762 1.523 . S
C1762 C1743 1.368 . S
C1762 C1756 1.368 . S
C1762 C1761 1.523 . S
C1763 C1747 1.429 . S
C1763 C1759 1.429 . S
C1763 C1764 1.523 . S
C1764 C1748 1.368 . S
C1764 C1760 1.368 . S
C1764 C1763 1.523 . S
H1765 C1740 0.950 . S
H1766 C1742 0.950 . S
H1767 C1743 0.949 . S
H1768 C1745 0.949 . S
H1769 C1747 0.978 . S
C1770 C1771 1.349 1_655 S
C1770 C1772 1.327 . S
C1770 H1795 0.950 . S
C1771 C1770 1.349 1_455 S
C1771 C1787 1.349 . S
C1772 C1770 1.327 . S
C1772 C1791 1.429 1_655 S
C1772 H1796 0.950 . S
C1773 C1790 1.574 . S
C1773 C1792 1.368 . S
C1773 H1797 0.949 . S
H1774 C1778 0.949 . S
C1775 C1776 1.349 . S
C1775 C1777 1.327 . S
C1775 H1798 0.950 . S
C1776 C1775 1.349 . S
C1776 C1788 1.349 . S
C1777 C1775 1.327 . S
C1777 C1793 1.429 . S
C1777 H1799 0.950 . S
C1778 H1774 0.949 . S
C1778 C1786 1.574 . S
C1778 C1794 1.368 . S
H1779 C1787 0.950 . S
H1780 C1785 0.950 . S
H1781 C1786 0.949 1_655 S
H1782 C1788 0.950 . S
H1783 C1789 0.950 . S
H1784 C1790 0.949 . S
C1785 H1780 0.950 . S
C1785 C1787 1.327 . S
C1785 C1791 1.429 . S
C1786 C1778 1.574 . S
C1786 H1781 0.949 1_455 S
C1786 C1792 1.368 . S
C1787 C1771 1.349 . S
C1787 H1779 0.950 . S
C1787 C1785 1.327 . S
C1788 C1776 1.349 . S
C1788 H1782 0.950 . S
C1788 C1789 1.327 . S
C1789 H1783 0.950 . S
C1789 C1788 1.327 . S
C1789 C1793 1.429 . S
C1790 C1773 1.574 . S
C1790 H1784 0.949 . S
C1790 C1794 1.368 . S
C1791 C1772 1.429 1_455 S
C1791 C1785 1.429 . S
C1791 C1792 1.523 . S
C1792 C1773 1.368 . S
C1792 C1786 1.368 . S
C1792 C1791 1.523 . S
C1793 C1777 1.429 . S
C1793 C1789 1.429 . S
C1793 C1794 1.523 . S
C1794 C1778 1.368 . S
C1794 C1790 1.368 . S
C1794 C1793 1.523 . S
H1795 C1770 0.950 . S
H1796 C1772 0.950 . S
H1797 C1773 0.949 . S
H1798 C1775 0.950 . S
H1799 C1777 0.950 . S
C1800 C1801 1.349 . S
C1800 C1802 1.327 . S
C1800 H1825 0.950 . S
C1801 C1800 1.349 . S
C1801 C1817 1.349 . S
C1802 C1800 1.327 . S
C1802 C1821 1.429 . S
C1802 H1826 0.950 . S
C1803 C1820 1.574 . S
C1803 C1822 1.368 . S
C1803 H1827 0.949 1_554 S
H1804 C1808 0.949 . S
C1805 C1806 1.349 . S
C1805 C1807 1.327 . S
C1805 H1828 0.950 1_554 S
C1806 C1805 1.349 . S
C1806 C1818 1.349 . S
C1807 C1805 1.327 . S
C1807 C1823 1.429 . S
C1807 H1829 0.950 1_554 S
C1808 H1804 0.949 . S
C1808 C1816 1.574 . S
C1808 C1824 1.368 . S
H1809 C1817 0.950 1_556 S
H1810 C1815 0.950 1_556 S
H1811 C1816 0.949 . S
H1812 C1818 0.950 . S
H1813 C1819 0.950 . S
H1814 C1820 0.949 1_556 S
C1815 H1810 0.950 1_554 S
C1815 C1817 1.327 . S
C1815 C1821 1.429 . S
C1816 C1808 1.574 . S
C1816 H1811 0.949 . S
C1816 C1822 1.368 . S
C1817 C1801 1.349 . S
C1817 H1809 0.950 1_554 S
C1817 C1815 1.327 . S
C1818 C1806 1.349 . S
C1818 H1812 0.950 . S
C1818 C1819 1.327 . S
C1819 H1813 0.950 . S
C1819 C1818 1.327 . S
C1819 C1823 1.429 . S
C1820 C1803 1.574 . S
C1820 H1814 0.949 1_554 S
C1820 C1824 1.368 . S
C1821 C1802 1.429 . S
C1821 C1815 1.429 . S
C1821 C1822 1.523 . S
C1822 C1803 1.368 . S
C1822 C1816 1.368 . S
C1822 C1821 1.523 . S
C1823 C1807 1.429 . S
C1823 C1819 1.429 . S
C1823 C1824 1.523 . S
C1824 C1808 1.368 . S
C1824 C1820 1.368 . S
C1824 C1823 1.523 . S
H1825 C1800 0.950 . S
H1826 C1802 0.950 . S
H1827 C1803 0.949 1_556 S
H1828 C1805 0.950 1_556 S
H1829 C1807 0.950 1_556 S
C1830 C1831 1.349 . S
C1830 C1832 1.327 . S
C1830 H1855 0.950 . S
C1831 C1830 1.349 . S
C1831 C1847 1.349 . S
C1832 C1830 1.327 . S
C1832 C1851 1.429 . S
C1832 H1856 0.950 . S
C1833 C1850 1.574 . S
C1833 C1852 1.368 . S
C1833 H1857 0.949 1_554 S
H1834 C1838 0.949 . S
C1835 C1836 1.349 . S
C1835 C1837 1.327 . S
C1835 H1858 0.950 1_554 S
C1836 C1835 1.349 . S
C1836 C1848 1.349 . S
C1837 C1835 1.327 . S
C1837 C1853 1.429 . S
C1837 H1859 0.950 1_554 S
C1838 H1834 0.949 . S
C1838 C1846 1.574 . S
C1838 C1854 1.368 . S
H1839 C1847 0.950 1_556 S
H1840 C1845 0.950 1_556 S
H1841 C1846 0.949 . S
H1842 C1848 0.950 . S
H1843 C1849 0.950 . S
H1844 C1850 0.949 1_556 S
C1845 H1840 0.950 1_554 S
C1845 C1847 1.327 . S
C1845 C1851 1.429 . S
C1846 C1838 1.574 . S
C1846 H1841 0.949 . S
C1846 C1852 1.368 . S
C1847 C1831 1.349 . S
C1847 H1839 0.950 1_554 S
C1847 C1845 1.327 . S
C1848 C1836 1.349 . S
C1848 H1842 0.950 . S
C1848 C1849 1.327 . S
C1849 H1843 0.950 . S
C1849 C1848 1.327 . S
C1849 C1853 1.429 . S
C1850 C1833 1.574 . S
C1850 H1844 0.949 1_554 S
C1850 C1854 1.368 . S
C1851 C1832 1.429 . S
C1851 C1845 1.429 . S
C1851 C1852 1.523 . S
C1852 C1833 1.368 . S
C1852 C1846 1.368 . S
C1852 C1851 1.523 . S
C1853 C1837 1.429 . S
C1853 C1849 1.429 . S
C1853 C1854 1.523 . S
C1854 C1838 1.368 . S
C1854 C1850 1.368 . S
C1854 C1853 1.523 . S
H1855 C1830 0.950 . S
H1856 C1832 0.950 . S
H1857 C1833 0.949 1_556 S
H1858 C1835 0.950 1_556 S
H1859 C1837 0.950 1_556 S
C1860 C1861 1.349 . S
C1860 C1862 1.327 . S
C1860 H1885 0.950 1_554 S
C1861 C1860 1.349 . S
C1861 C1877 1.349 . S
C1862 C1860 1.327 . S
C1862 C1881 1.429 . S
C1862 H1886 0.950 1_554 S
C1863 C1880 1.574 . S
C1863 C1882 1.368 . S
C1863 H1887 0.949 . S
H1864 C1868 0.949 . S
C1865 C1866 1.349 . S
C1865 C1867 1.327 . S
C1865 H1888 0.950 . S
C1866 C1865 1.349 . S
C1866 C1878 1.349 1_554 S
C1867 C1865 1.327 . S
C1867 C1883 1.429 . S
C1867 H1889 0.950 . S
C1868 H1864 0.949 . S
C1868 C1876 1.574 . S
C1868 C1884 1.368 1_556 S
H1869 C1877 0.950 . S
H1870 C1875 0.950 . S
H1871 C1876 0.949 . S
H1872 C1878 0.950 . S
H1873 C1879 0.950 . S
H1874 C1880 0.949 . S
C1875 H1870 0.950 . S
C1875 C1877 1.327 . S
C1875 C1881 1.429 . S
C1876 C1868 1.574 . S
C1876 H1871 0.949 . S
C1876 C1882 1.368 1_556 S
C1877 C1861 1.349 . S
C1877 H1869 0.950 . S
C1877 C1875 1.327 . S
C1878 C1866 1.349 1_556 S
C1878 H1872 0.950 . S
C1878 C1879 1.327 . S
C1879 H1873 0.950 . S
C1879 C1878 1.327 . S
C1879 C1883 1.429 1_556 S
C1880 C1863 1.574 . S
C1880 H1874 0.949 . S
C1880 C1884 1.368 . S
C1881 C1862 1.429 . S
C1881 C1875 1.429 . S
C1881 C1882 1.523 . S
C1882 C1863 1.368 . S
C1882 C1876 1.368 1_554 S
C1882 C1881 1.523 . S
C1883 C1867 1.429 . S
C1883 C1879 1.429 1_554 S
C1883 C1884 1.523 . S
C1884 C1868 1.368 1_554 S
C1884 C1880 1.368 . S
C1884 C1883 1.523 . S
H1885 C1860 0.950 1_556 S
H1886 C1862 0.950 1_556 S
H1887 C1863 0.949 . S
H1888 C1865 0.950 . S
H1889 C1867 0.950 . S
C1890 C1891 1.349 1_556 S
C1890 C1892 1.327 . S
C1890 H1915 0.950 . S
C1891 C1890 1.349 1_554 S
C1891 C1907 1.349 . S
C1892 C1890 1.327 . S
C1892 C1911 1.429 1_556 S
C1892 H1916 0.950 . S
C1893 C1910 1.574 . S
C1893 C1912 1.368 . S
C1893 H1917 0.949 . S
H1894 C1898 0.949 . S
C1895 C1896 1.349 . S
C1895 C1897 1.327 . S
C1895 H1918 0.950 . S
C1896 C1895 1.349 . S
C1896 C1908 1.349 1_554 S
C1897 C1895 1.327 . S
C1897 C1913 1.429 . S
C1897 H1919 0.950 . S
C1898 H1894 0.949 . S
C1898 C1906 1.574 . S
C1898 C1914 1.368 1_556 S
H1899 C1907 0.950 . S
H1900 C1905 0.950 . S
H1901 C1906 0.949 . S
H1902 C1908 0.950 . S
H1903 C1909 0.950 . S
H1904 C1910 0.949 . S
C1905 H1900 0.950 . S
C1905 C1907 1.327 . S
C1905 C1911 1.429 . S
C1906 C1898 1.574 . S
C1906 H1901 0.949 . S
C1906 C1912 1.368 1_556 S
C1907 C1891 1.349 . S
C1907 H1899 0.950 . S
C1907 C1905 1.327 . S
C1908 C1896 1.349 1_556 S
C1908 H1902 0.950 . S
C1908 C1909 1.327 . S
C1909 H1903 0.950 . S
C1909 C1908 1.327 . S
C1909 C1913 1.429 1_556 S
C1910 C1893 1.574 . S
C1910 H1904 0.949 . S
C1910 C1914 1.368 . S
C1911 C1892 1.429 1_554 S
C1911 C1905 1.429 . S
C1911 C1912 1.523 . S
C1912 C1893 1.368 . S
C1912 C1906 1.368 1_554 S
C1912 C1911 1.523 . S
C1913 C1897 1.429 . S
C1913 C1909 1.429 1_554 S
C1913 C1914 1.523 . S
C1914 C1898 1.368 1_554 S
C1914 C1910 1.368 . S
C1914 C1913 1.523 . S
H1915 C1890 0.950 . S
H1916 C1892 0.950 . S
H1917 C1893 0.949 . S
H1918 C1895 0.950 . S
H1919 C1897 0.950 . S
C1920 C1921 1.349 . S
C1920 C1922 1.327 . S
C1920 H1945 0.950 . S
C1921 C1920 1.349 . S
C1921 C1937 1.349 1_554 S
C1922 C1920 1.327 . S
C1922 C1941 1.429 . S
C1922 H1946 0.950 . S
C1923 C1940 1.574 . S
C1923 C1942 1.368 1_556 S
C1923 H1947 0.949 . S
H1924 C1928 0.949 . S
C1925 C1926 1.349 1_556 S
C1925 C1927 1.327 . S
C1925 H1948 0.950 . S
C1926 C1925 1.349 1_554 S
C1926 C1938 1.349 . S
C1927 C1925 1.327 . S
C1927 C1943 1.429 1_556 S
C1927 H1949 0.950 . S
C1928 H1924 0.949 . S
C1928 C1936 1.574 . S
C1928 C1944 1.368 . S
H1929 C1937 0.950 . S
H1930 C1935 0.950 . S
H1931 C1936 0.949 . S
H1932 C1938 0.950 . S
H1933 C1939 0.950 . S
H1934 C1940 0.949 . S
C1935 H1930 0.950 . S
C1935 C1937 1.327 . S
C1935 C1941 1.429 1_556 S
C1936 C1928 1.574 . S
C1936 H1931 0.949 . S
C1936 C1942 1.368 . S
C1937 C1921 1.349 1_556 S
C1937 H1929 0.950 . S
C1937 C1935 1.327 . S
C1938 C1926 1.349 . S
C1938 H1932 0.950 . S
C1938 C1939 1.327 . S
C1939 H1933 0.950 . S
C1939 C1938 1.327 . S
C1939 C1943 1.429 . S
C1940 C1923 1.574 . S
C1940 H1934 0.949 . S
C1940 C1944 1.368 1_556 S
C1941 C1922 1.429 . S
C1941 C1935 1.429 1_554 S
C1941 C1942 1.523 . S
C1942 C1923 1.368 1_554 S
C1942 C1936 1.368 . S
C1942 C1941 1.523 . S
C1943 C1927 1.429 1_554 S
C1943 C1939 1.429 . S
C1943 C1944 1.523 . S
C1944 C1928 1.368 . S
C1944 C1940 1.368 1_554 S
C1944 C1943 1.523 . S
H1945 C1920 0.950 . S
H1946 C1922 0.950 . S
H1947 C1923 0.949 . S
H1948 C1925 0.950 . S
H1949 C1927 0.950 . S
C1950 C1951 1.349 1_556 S
C1950 C1952 1.327 . S
C1950 H1975 0.950 . S
C1951 C1950 1.349 1_554 S
C1951 C1967 1.349 . S
C1952 C1950 1.327 . S
C1952 C1971 1.429 1_556 S
C1952 H1976 0.950 . S
C1953 C1970 1.574 . S
C1953 C1972 1.368 . S
C1953 H1977 0.949 . S
H1954 C1958 0.949 . S
C1955 C1956 1.349 . S
C1955 C1957 1.327 . S
C1955 H1978 0.950 . S
C1956 C1955 1.349 . S
C1956 C1968 1.349 1_554 S
C1957 C1955 1.327 . S
C1957 C1973 1.429 . S
C1957 H1979 0.950 . S
C1958 H1954 0.949 . S
C1958 C1966 1.574 . S
C1958 C1974 1.368 1_556 S
H1959 C1967 0.950 . S
H1960 C1965 0.950 . S
H1961 C1966 0.949 . S
H1962 C1968 0.950 . S
H1963 C1969 0.950 . S
H1964 C1970 0.949 . S
C1965 H1960 0.950 . S
C1965 C1967 1.327 . S
C1965 C1971 1.429 . S
C1966 C1958 1.574 . S
C1966 H1961 0.949 . S
C1966 C1972 1.368 1_556 S
C1967 C1951 1.349 . S
C1967 H1959 0.950 . S
C1967 C1965 1.327 . S
C1968 C1956 1.349 1_556 S
C1968 H1962 0.950 . S
C1968 C1969 1.327 . S
C1969 H1963 0.950 . S
C1969 C1968 1.327 . S
C1969 C1973 1.429 1_556 S
C1970 C1953 1.574 . S
C1970 H1964 0.949 . S
C1970 C1974 1.368 . S
C1971 C1952 1.429 1_554 S
C1971 C1965 1.429 . S
C1971 C1972 1.523 . S
C1972 C1953 1.368 . S
C1972 C1966 1.368 1_554 S
C1972 C1971 1.523 . S
C1973 C1957 1.429 . S
C1973 C1969 1.429 1_554 S
C1973 C1974 1.523 . S
C1974 C1958 1.368 1_554 S
C1974 C1970 1.368 . S
C1974 C1973 1.523 . S
H1975 C1950 0.950 . S
H1976 C1952 0.950 . S
H1977 C1953 0.949 . S
H1978 C1955 0.950 . S
H1979 C1957 0.950 . S
C1980 C1981 1.349 . S
C1980 C1982 1.327 . S
C1980 H2005 0.950 . S
C1981 C1980 1.349 . S
C1981 C1997 1.349 1_554 S
C1982 C1980 1.327 . S
C1982 C2001 1.429 . S
C1982 H2006 0.950 . S
C1983 C2000 1.574 . S
C1983 C2002 1.368 1_556 S
C1983 H2007 0.949 . S
H1984 C1988 0.949 . S
C1985 C1986 1.349 1_556 S
C1985 C1987 1.327 . S
C1985 H2008 0.950 . S
C1986 C1985 1.349 1_554 S
C1986 C1998 1.349 . S
C1987 C1985 1.327 . S
C1987 C2003 1.429 1_556 S
C1987 H2009 0.950 . S
C1988 H1984 0.949 . S
C1988 C1996 1.574 . S
C1988 C2004 1.368 . S
H1989 C1997 0.950 . S
H1990 C1995 0.950 . S
H1991 C1996 0.949 . S
H1992 C1998 0.950 . S
H1993 C1999 0.950 . S
H1994 C2000 0.949 . S
C1995 H1990 0.950 . S
C1995 C1997 1.327 . S
C1995 C2001 1.429 1_556 S
C1996 C1988 1.574 . S
C1996 H1991 0.949 . S
C1996 C2002 1.368 . S
C1997 C1981 1.349 1_556 S
C1997 H1989 0.950 . S
C1997 C1995 1.327 . S
C1998 C1986 1.349 . S
C1998 H1992 0.950 . S
C1998 C1999 1.327 . S
C1999 H1993 0.950 . S
C1999 C1998 1.327 . S
C1999 C2003 1.429 . S
C2000 C1983 1.574 . S
C2000 H1994 0.949 . S
C2000 C2004 1.368 1_556 S
C2001 C1982 1.429 . S
C2001 C1995 1.429 1_554 S
C2001 C2002 1.523 . S
C2002 C1983 1.368 1_554 S
C2002 C1996 1.368 . S
C2002 C2001 1.523 . S
C2003 C1987 1.429 1_554 S
C2003 C1999 1.429 . S
C2003 C2004 1.523 . S
C2004 C1988 1.368 . S
C2004 C2000 1.368 1_554 S
C2004 C2003 1.523 . S
H2005 C1980 0.950 . S
H2006 C1982 0.950 . S
H2007 C1983 0.949 . S
H2008 C1985 0.950 . S
H2009 C1987 0.950 . S
C2010 C2011 1.349 . S
C2010 C2012 1.327 . S
C2010 H2035 0.950 . S
C2011 C2010 1.349 . S
C2011 C2027 1.349 1_554 S
C2012 C2010 1.327 . S
C2012 C2031 1.429 . S
C2012 H2036 0.950 . S
C2013 C2030 1.574 . S
C2013 C2032 1.368 1_556 S
C2013 H2037 0.949 . S
H2014 C2018 0.949 . S
C2015 C2016 1.349 1_556 S
C2015 C2017 1.327 . S
C2015 H2038 0.950 . S
C2016 C2015 1.349 1_554 S
C2016 C2028 1.349 . S
C2017 C2015 1.327 . S
C2017 C2033 1.429 1_556 S
C2017 H2039 0.950 . S
C2018 H2014 0.949 . S
C2018 C2026 1.574 . S
C2018 C2034 1.368 . S
H2019 C2027 0.950 . S
H2020 C2025 0.950 . S
H2021 C2026 0.949 . S
H2022 C2028 0.950 . S
H2023 C2029 0.950 . S
H2024 C2030 0.949 . S
C2025 H2020 0.950 . S
C2025 C2027 1.327 . S
C2025 C2031 1.429 1_556 S
C2026 C2018 1.574 . S
C2026 H2021 0.949 . S
C2026 C2032 1.368 . S
C2027 C2011 1.349 1_556 S
C2027 H2019 0.950 . S
C2027 C2025 1.327 . S
C2028 C2016 1.349 . S
C2028 H2022 0.950 . S
C2028 C2029 1.327 . S
C2029 H2023 0.950 . S
C2029 C2028 1.327 . S
C2029 C2033 1.429 . S
C2030 C2013 1.574 . S
C2030 H2024 0.949 . S
C2030 C2034 1.368 1_556 S
C2031 C2012 1.429 . S
C2031 C2025 1.429 1_554 S
C2031 C2032 1.523 . S
C2032 C2013 1.368 1_554 S
C2032 C2026 1.368 . S
C2032 C2031 1.523 . S
C2033 C2017 1.429 1_554 S
C2033 C2029 1.429 . S
C2033 C2034 1.523 . S
C2034 C2018 1.368 . S
C2034 C2030 1.368 1_554 S
C2034 C2033 1.523 . S
H2035 C2010 0.950 . S
H2036 C2012 0.950 . S
H2037 C2013 0.949 . S
H2038 C2015 0.950 . S
H2039 C2017 0.950 . S
C2040 C2041 1.349 . S
C2040 C2042 1.327 . S
C2040 H2065 0.950 . S
C2041 C2040 1.349 . S
C2041 C2057 1.349 . S
C2042 C2040 1.327 . S
C2042 C2061 1.429 . S
C2042 H2066 0.950 . S
C2043 C2060 1.574 . S
C2043 C2062 1.368 . S
C2043 H2067 0.949 . S
H2044 C2048 0.949 . S
C2045 C2046 1.349 . S
C2045 C2047 1.327 . S
C2045 H2068 0.950 . S
C2046 C2045 1.349 . S
C2046 C2058 1.349 . S
C2047 C2045 1.327 . S
C2047 C2063 1.429 . S
C2047 H2069 0.950 . S
C2048 H2044 0.949 . S
C2048 C2056 1.574 . S
C2048 C2064 1.368 . S
H2049 C2057 0.950 . S
H2050 C2055 0.950 . S
H2051 C2056 0.949 . S
H2052 C2058 0.950 . S
H2053 C2059 0.950 . S
H2054 C2060 0.949 . S
C2055 H2050 0.950 . S
C2055 C2057 1.327 . S
C2055 C2061 1.429 . S
C2056 C2048 1.574 . S
C2056 H2051 0.949 . S
C2056 C2062 1.368 . S
C2057 C2041 1.349 . S
C2057 H2049 0.950 . S
C2057 C2055 1.327 . S
C2058 C2046 1.349 . S
C2058 H2052 0.950 . S
C2058 C2059 1.327 . S
C2059 H2053 0.950 . S
C2059 C2058 1.327 . S
C2059 C2063 1.429 . S
C2060 C2043 1.574 . S
C2060 H2054 0.949 . S
C2060 C2064 1.368 . S
C2061 C2042 1.429 . S
C2061 C2055 1.429 . S
C2061 C2062 1.523 . S
C2062 C2043 1.368 . S
C2062 C2056 1.368 . S
C2062 C2061 1.523 . S
C2063 C2047 1.429 . S
C2063 C2059 1.429 . S
C2063 C2064 1.523 . S
C2064 C2048 1.368 . S
C2064 C2060 1.368 . S
C2064 C2063 1.523 . S
H2065 C2040 0.950 . S
H2066 C2042 0.950 . S
H2067 C2043 0.949 . S
H2068 C2045 0.950 . S
H2069 C2047 0.950 . S
C2070 C2071 1.349 . S
C2070 C2072 1.327 . S
C2070 H2095 0.950 . S
C2071 C2070 1.349 . S
C2071 C2087 1.349 . S
C2072 C2070 1.327 . S
C2072 C2091 1.429 . S
C2072 H2096 0.950 . S
C2073 C2090 1.574 . S
C2073 C2092 1.368 . S
C2073 H2097 0.949 . S
H2074 C2078 0.949 . S
C2075 C2076 1.349 . S
C2075 C2077 1.327 . S
C2075 H2098 0.950 . S
C2076 C2075 1.349 . S
C2076 C2088 1.349 . S
C2077 C2075 1.327 . S
C2077 C2093 1.429 . S
C2077 H2099 0.950 . S
C2078 H2074 0.949 . S
C2078 C2086 1.574 . S
C2078 C2094 1.368 . S
H2079 C2087 0.950 . S
H2080 C2085 0.950 . S
H2081 C2086 0.949 . S
H2082 C2088 0.950 . S
H2083 C2089 0.950 . S
H2084 C2090 0.949 . S
C2085 H2080 0.950 . S
C2085 C2087 1.327 . S
C2085 C2091 1.429 . S
C2086 C2078 1.574 . S
C2086 H2081 0.949 . S
C2086 C2092 1.368 . S
C2087 C2071 1.349 . S
C2087 H2079 0.950 . S
C2087 C2085 1.327 . S
C2088 C2076 1.349 . S
C2088 H2082 0.950 . S
C2088 C2089 1.327 . S
C2089 H2083 0.950 . S
C2089 C2088 1.327 . S
C2089 C2093 1.429 . S
C2090 C2073 1.574 . S
C2090 H2084 0.949 . S
C2090 C2094 1.368 . S
C2091 C2072 1.429 . S
C2091 C2085 1.429 . S
C2091 C2092 1.523 . S
C2092 C2073 1.368 . S
C2092 C2086 1.368 . S
C2092 C2091 1.523 . S
C2093 C2077 1.429 . S
C2093 C2089 1.429 . S
C2093 C2094 1.523 . S
C2094 C2078 1.368 . S
C2094 C2090 1.368 . S
C2094 C2093 1.523 . S
H2095 C2070 0.950 . S
H2096 C2072 0.950 . S
H2097 C2073 0.949 . S
H2098 C2075 0.950 . S
H2099 C2077 0.950 . S
C2100 C2101 1.349 . S
C2100 C2102 1.327 . S
C2100 H2125 0.950 . S
C2101 C2100 1.349 . S
C2101 C2117 1.349 . S
C2102 C2100 1.327 . S
C2102 C2121 1.429 . S
C2102 H2126 0.950 . S
C2103 C2120 1.574 . S
C2103 C2122 1.368 . S
C2103 H2127 0.949 . S
H2104 C2108 0.949 . S
C2105 C2106 1.349 . S
C2105 C2107 1.327 . S
C2105 H2128 0.950 . S
C2106 C2105 1.349 . S
C2106 C2118 1.349 . S
C2107 C2105 1.327 . S
C2107 C2123 1.429 . S
C2107 H2129 0.950 . S
C2108 H2104 0.949 . S
C2108 C2116 1.574 . S
C2108 C2124 1.368 . S
H2109 C2117 0.950 . S
H2110 C2115 0.950 . S
H2111 C2116 0.949 . S
H2112 C2118 0.950 . S
H2113 C2119 0.950 . S
H2114 C2120 0.949 . S
C2115 H2110 0.950 . S
C2115 C2117 1.327 . S
C2115 C2121 1.429 . S
C2116 C2108 1.574 . S
C2116 H2111 0.949 . S
C2116 C2122 1.368 . S
C2117 C2101 1.349 . S
C2117 H2109 0.950 . S
C2117 C2115 1.327 . S
C2118 C2106 1.349 . S
C2118 H2112 0.950 . S
C2118 C2119 1.327 . S
C2119 H2113 0.950 . S
C2119 C2118 1.327 . S
C2119 C2123 1.429 . S
C2120 C2103 1.574 . S
C2120 H2114 0.949 . S
C2120 C2124 1.368 . S
C2121 C2102 1.429 . S
C2121 C2115 1.429 . S
C2121 C2122 1.523 . S
C2122 C2103 1.368 . S
C2122 C2116 1.368 . S
C2122 C2121 1.523 . S
C2123 C2107 1.429 . S
C2123 C2119 1.429 . S
C2123 C2124 1.523 . S
C2124 C2108 1.368 . S
C2124 C2120 1.368 . S
C2124 C2123 1.523 . S
H2125 C2100 0.950 . S
H2126 C2102 0.950 . S
H2127 C2103 0.949 . S
H2128 C2105 0.950 . S
H2129 C2107 0.950 . S
C2130 C2131 1.349 . S
C2130 C2132 1.327 . S
C2130 H2155 0.950 . S
C2131 C2130 1.349 . S
C2131 C2147 1.349 . S
C2132 C2130 1.327 . S
C2132 C2151 1.429 . S
C2132 H2156 0.950 . S
C2133 C2150 1.574 . S
C2133 C2152 1.368 . S
C2133 H2157 0.949 . S
H2134 C2138 0.949 . S
C2135 C2136 1.349 . S
C2135 C2137 1.327 . S
C2135 H2158 0.950 . S
C2136 C2135 1.349 . S
C2136 C2148 1.349 . S
C2137 C2135 1.327 . S
C2137 C2153 1.429 . S
C2137 H2159 0.950 . S
C2138 H2134 0.949 . S
C2138 C2146 1.574 . S
C2138 C2154 1.368 . S
H2139 C2147 0.950 . S
H2140 C2145 0.950 . S
H2141 C2146 0.949 . S
H2142 C2148 0.950 . S
H2143 C2149 0.950 . S
H2144 C2150 0.949 . S
C2145 H2140 0.950 . S
C2145 C2147 1.327 . S
C2145 C2151 1.429 . S
C2146 C2138 1.574 . S
C2146 H2141 0.949 . S
C2146 C2152 1.368 . S
C2147 C2131 1.349 . S
C2147 H2139 0.950 . S
C2147 C2145 1.327 . S
C2148 C2136 1.349 . S
C2148 H2142 0.950 . S
C2148 C2149 1.327 . S
C2149 H2143 0.950 . S
C2149 C2148 1.327 . S
C2149 C2153 1.429 . S
C2150 C2133 1.574 . S
C2150 H2144 0.949 . S
C2150 C2154 1.368 . S
C2151 C2132 1.429 . S
C2151 C2145 1.429 . S
C2151 C2152 1.523 . S
C2152 C2133 1.368 . S
C2152 C2146 1.368 . S
C2152 C2151 1.523 . S
C2153 C2137 1.429 . S
C2153 C2149 1.429 . S
C2153 C2154 1.523 . S
C2154 C2138 1.368 . S
C2154 C2150 1.368 . S
C2154 C2153 1.523 . S
H2155 C2130 0.950 . S
H2156 C2132 0.950 . S
H2157 C2133 0.949 . S
H2158 C2135 0.950 . S
H2159 C2137 0.950 . S
C2160 C2161 1.349 . S
C2160 C2162 1.327 . S
C2160 H2185 0.950 . S
C2161 C2160 1.349 . S
C2161 C2177 1.349 . S
C2162 C2160 1.327 . S
C2162 C2181 1.429 . S
C2162 H2186 0.950 . S
C2163 C2180 1.574 . S
C2163 C2182 1.368 . S
C2163 H2187 0.949 . S
H2164 C2168 0.949 . S
C2165 C2166 1.349 . S
C2165 C2167 1.327 . S
C2165 H2188 0.950 . S
C2166 C2165 1.349 . S
C2166 C2178 1.349 . S
C2167 C2165 1.327 . S
C2167 C2183 1.429 . S
C2167 H2189 0.950 . S
C2168 H2164 0.949 . S
C2168 C2176 1.574 . S
C2168 C2184 1.368 . S
H2169 C2177 0.950 . S
H2170 C2175 0.950 . S
H2171 C2176 0.949 . S
H2172 C2178 0.950 . S
H2173 C2179 0.950 . S
H2174 C2180 0.949 . S
C2175 H2170 0.950 . S
C2175 C2177 1.327 . S
C2175 C2181 1.429 . S
C2176 C2168 1.574 . S
C2176 H2171 0.949 . S
C2176 C2182 1.368 . S
C2177 C2161 1.349 . S
C2177 H2169 0.950 . S
C2177 C2175 1.327 . S
C2178 C2166 1.349 . S
C2178 H2172 0.950 . S
C2178 C2179 1.327 . S
C2179 H2173 0.950 . S
C2179 C2178 1.327 . S
C2179 C2183 1.429 . S
C2180 C2163 1.574 . S
C2180 H2174 0.949 . S
C2180 C2184 1.368 . S
C2181 C2162 1.429 . S
C2181 C2175 1.429 . S
C2181 C2182 1.523 . S
C2182 C2163 1.368 . S
C2182 C2176 1.368 . S
C2182 C2181 1.523 . S
C2183 C2167 1.429 . S
C2183 C2179 1.429 . S
C2183 C2184 1.523 . S
C2184 C2168 1.368 . S
C2184 C2180 1.368 . S
C2184 C2183 1.523 . S
H2185 C2160 0.950 . S
H2186 C2162 0.950 . S
H2187 C2163 0.949 . S
H2188 C2165 0.950 . S
H2189 C2167 0.950 . S
C2190 C2191 1.349 . S
C2190 C2192 1.327 . S
C2190 H2215 0.950 . S
C2191 C2190 1.349 . S
C2191 C2207 1.349 . S
C2192 C2190 1.327 . S
C2192 C2211 1.429 . S
C2192 H2216 0.950 . S
C2193 C2210 1.574 . S
C2193 C2212 1.368 . S
C2193 H2217 0.949 . S
H2194 C2198 0.949 . S
C2195 C2196 1.349 . S
C2195 C2197 1.327 . S
C2195 H2218 0.950 . S
C2196 C2195 1.349 . S
C2196 C2208 1.349 . S
C2197 C2195 1.327 . S
C2197 C2213 1.429 . S
C2197 H2219 0.950 . S
C2198 H2194 0.949 . S
C2198 C2206 1.574 . S
C2198 C2214 1.368 . S
H2199 C2207 0.950 . S
H2200 C2205 0.950 . S
H2201 C2206 0.949 . S
H2202 C2208 0.950 . S
H2203 C2209 0.950 . S
H2204 C2210 0.949 . S
C2205 H2200 0.950 . S
C2205 C2207 1.327 . S
C2205 C2211 1.429 . S
C2206 C2198 1.574 . S
C2206 H2201 0.949 . S
C2206 C2212 1.368 . S
C2207 C2191 1.349 . S
C2207 H2199 0.950 . S
C2207 C2205 1.327 . S
C2208 C2196 1.349 . S
C2208 H2202 0.950 . S
C2208 C2209 1.327 . S
C2209 H2203 0.950 . S
C2209 C2208 1.327 . S
C2209 C2213 1.429 . S
C2210 C2193 1.574 . S
C2210 H2204 0.949 . S
C2210 C2214 1.368 . S
C2211 C2192 1.429 . S
C2211 C2205 1.429 . S
C2211 C2212 1.523 . S
C2212 C2193 1.368 . S
C2212 C2206 1.368 . S
C2212 C2211 1.523 . S
C2213 C2197 1.429 . S
C2213 C2209 1.429 . S
C2213 C2214 1.523 . S
C2214 C2198 1.368 . S
C2214 C2210 1.368 . S
C2214 C2213 1.523 . S
H2215 C2190 0.950 . S
H2216 C2192 0.950 . S
H2217 C2193 0.949 . S
H2218 C2195 0.950 . S
H2219 C2197 0.950 . S
C2220 C2221 1.349 . S
C2220 C2222 1.327 . S
C2220 H2245 0.950 . S
C2221 C2220 1.349 . S
C2221 C2237 1.349 . S
C2222 C2220 1.327 . S
C2222 C2241 1.429 . S
C2222 H2246 0.950 . S
C2223 C2240 1.574 . S
C2223 C2242 1.368 . S
C2223 H2247 0.949 . S
H2224 C2228 0.949 . S
C2225 C2226 1.349 . S
C2225 C2227 1.327 . S
C2225 H2248 0.950 . S
C2226 C2225 1.349 . S
C2226 C2238 1.349 . S
C2227 C2225 1.327 . S
C2227 C2243 1.429 . S
C2227 H2249 0.950 . S
C2228 H2224 0.949 . S
C2228 C2236 1.574 . S
C2228 C2244 1.368 . S
H2229 C2237 0.950 . S
H2230 C2235 0.950 . S
H2231 C2236 0.949 . S
H2232 C2238 0.950 . S
H2233 C2239 0.950 . S
H2234 C2240 0.949 . S
C2235 H2230 0.950 . S
C2235 C2237 1.327 . S
C2235 C2241 1.429 . S
C2236 C2228 1.574 . S
C2236 H2231 0.949 . S
C2236 C2242 1.368 . S
C2237 C2221 1.349 . S
C2237 H2229 0.950 . S
C2237 C2235 1.327 . S
C2238 C2226 1.349 . S
C2238 H2232 0.950 . S
C2238 C2239 1.327 . S
C2239 H2233 0.950 . S
C2239 C2238 1.327 . S
C2239 C2243 1.429 . S
C2240 C2223 1.574 . S
C2240 H2234 0.949 . S
C2240 C2244 1.368 . S
C2241 C2222 1.429 . S
C2241 C2235 1.429 . S
C2241 C2242 1.523 . S
C2242 C2223 1.368 . S
C2242 C2236 1.368 . S
C2242 C2241 1.523 . S
C2243 C2227 1.429 . S
C2243 C2239 1.429 . S
C2243 C2244 1.523 . S
C2244 C2228 1.368 . S
C2244 C2240 1.368 . S
C2244 C2243 1.523 . S
H2245 C2220 0.950 . S
H2246 C2222 0.950 . S
H2247 C2223 0.949 . S
H2248 C2225 0.950 . S
H2249 C2227 0.950 . S
C2250 C2251 1.349 . S
C2250 C2252 1.327 . S
C2250 H2275 0.950 . S
C2251 C2250 1.349 . S
C2251 C2267 1.349 . S
C2252 C2250 1.327 . S
C2252 C2271 1.429 . S
C2252 H2276 0.950 . S
C2253 C2270 1.574 . S
C2253 C2272 1.368 . S
C2253 H2277 0.949 . S
H2254 C2258 0.949 . S
C2255 C2256 1.349 . S
C2255 C2257 1.327 . S
C2255 H2278 0.950 . S
C2256 C2255 1.349 . S
C2256 C2268 1.349 . S
C2257 C2255 1.327 . S
C2257 C2273 1.429 . S
C2257 H2279 0.950 . S
C2258 H2254 0.949 . S
C2258 C2266 1.574 . S
C2258 C2274 1.368 . S
H2259 C2267 0.950 . S
H2260 C2265 0.950 . S
H2261 C2266 0.949 . S
H2262 C2268 0.950 . S
H2263 C2269 0.950 . S
H2264 C2270 0.949 . S
C2265 H2260 0.950 . S
C2265 C2267 1.327 . S
C2265 C2271 1.429 . S
C2266 C2258 1.574 . S
C2266 H2261 0.949 . S
C2266 C2272 1.368 . S
C2267 C2251 1.349 . S
C2267 H2259 0.950 . S
C2267 C2265 1.327 . S
C2268 C2256 1.349 . S
C2268 H2262 0.950 . S
C2268 C2269 1.327 . S
C2269 H2263 0.950 . S
C2269 C2268 1.327 . S
C2269 C2273 1.429 . S
C2270 C2253 1.574 . S
C2270 H2264 0.949 . S
C2270 C2274 1.368 . S
C2271 C2252 1.429 . S
C2271 C2265 1.429 . S
C2271 C2272 1.523 . S
C2272 C2253 1.368 . S
C2272 C2266 1.368 . S
C2272 C2271 1.523 . S
C2273 C2257 1.429 . S
C2273 C2269 1.429 . S
C2273 C2274 1.523 . S
C2274 C2258 1.368 . S
C2274 C2270 1.368 . S
C2274 C2273 1.523 . S
H2275 C2250 0.950 . S
H2276 C2252 0.950 . S
H2277 C2253 0.949 . S
H2278 C2255 0.950 . S
H2279 C2257 0.950 . S
C2280 C2281 1.349 . S
C2280 C2282 1.327 . S
C2280 H2305 0.950 . S
C2281 C2280 1.349 . S
C2281 C2297 1.349 . S
C2282 C2280 1.327 . S
C2282 C2301 1.429 . S
C2282 H2306 0.950 . S
C2283 C2300 1.574 . S
C2283 C2302 1.368 . S
C2283 H2307 0.949 . S
H2284 C2288 0.949 . S
C2285 C2286 1.349 . S
C2285 C2287 1.327 . S
C2285 H2308 0.950 . S
C2286 C2285 1.349 . S
C2286 C2298 1.349 . S
C2287 C2285 1.327 . S
C2287 C2303 1.429 . S
C2287 H2309 0.950 . S
C2288 H2284 0.949 . S
C2288 C2296 1.574 . S
C2288 C2304 1.368 . S
H2289 C2297 0.950 . S
H2290 C2295 0.950 . S
H2291 C2296 0.949 . S
H2292 C2298 0.950 . S
H2293 C2299 0.950 . S
H2294 C2300 0.949 . S
C2295 H2290 0.950 . S
C2295 C2297 1.327 . S
C2295 C2301 1.429 . S
C2296 C2288 1.574 . S
C2296 H2291 0.949 . S
C2296 C2302 1.368 . S
C2297 C2281 1.349 . S
C2297 H2289 0.950 . S
C2297 C2295 1.327 . S
C2298 C2286 1.349 . S
C2298 H2292 0.950 . S
C2298 C2299 1.327 . S
C2299 H2293 0.950 . S
C2299 C2298 1.327 . S
C2299 C2303 1.429 . S
C2300 C2283 1.574 . S
C2300 H2294 0.949 . S
C2300 C2304 1.368 . S
C2301 C2282 1.429 . S
C2301 C2295 1.429 . S
C2301 C2302 1.523 . S
C2302 C2283 1.368 . S
C2302 C2296 1.368 . S
C2302 C2301 1.523 . S
C2303 C2287 1.429 . S
C2303 C2299 1.429 . S
C2303 C2304 1.523 . S
C2304 C2288 1.368 . S
C2304 C2300 1.368 . S
C2304 C2303 1.523 . S
H2305 C2280 0.950 . S
H2306 C2282 0.950 . S
H2307 C2283 0.949 . S
H2308 C2285 0.950 . S
H2309 C2287 0.950 . S
C2310 C2311 1.349 . S
C2310 C2312 1.327 . S
C2310 H2335 0.950 . S
C2311 C2310 1.349 . S
C2311 C2327 1.349 . S
C2312 C2310 1.327 . S
C2312 C2331 1.429 . S
C2312 H2336 0.950 . S
C2313 C2330 1.574 . S
C2313 C2332 1.368 . S
C2313 H2337 0.949 . S
H2314 C2318 0.949 . S
C2315 C2316 1.349 . S
C2315 C2317 1.327 . S
C2315 H2338 0.950 . S
C2316 C2315 1.349 . S
C2316 C2328 1.349 . S
C2317 C2315 1.327 . S
C2317 C2333 1.429 . S
C2317 H2339 0.950 . S
C2318 H2314 0.949 . S
C2318 C2326 1.574 . S
C2318 C2334 1.368 . S
H2319 C2327 0.950 . S
H2320 C2325 0.950 . S
H2321 C2326 0.949 . S
H2322 C2328 0.950 . S
H2323 C2329 0.950 . S
H2324 C2330 0.949 . S
C2325 H2320 0.950 . S
C2325 C2327 1.327 . S
C2325 C2331 1.429 . S
C2326 C2318 1.574 . S
C2326 H2321 0.949 . S
C2326 C2332 1.368 . S
C2327 C2311 1.349 . S
C2327 H2319 0.950 . S
C2327 C2325 1.327 . S
C2328 C2316 1.349 . S
C2328 H2322 0.950 . S
C2328 C2329 1.327 . S
C2329 H2323 0.950 . S
C2329 C2328 1.327 . S
C2329 C2333 1.429 . S
C2330 C2313 1.574 . S
C2330 H2324 0.949 . S
C2330 C2334 1.368 . S
C2331 C2312 1.429 . S
C2331 C2325 1.429 . S
C2331 C2332 1.523 . S
C2332 C2313 1.368 . S
C2332 C2326 1.368 . S
C2332 C2331 1.523 . S
C2333 C2317 1.429 . S
C2333 C2329 1.429 . S
C2333 C2334 1.523 . S
C2334 C2318 1.368 . S
C2334 C2330 1.368 . S
C2334 C2333 1.523 . S
H2335 C2310 0.950 . S
H2336 C2312 0.950 . S
H2337 C2313 0.949 . S
H2338 C2315 0.950 . S
H2339 C2317 0.950 . S
C2340 C2341 1.349 . S
C2340 C2342 1.327 . S
C2340 H2365 0.950 . S
C2341 C2340 1.349 . S
C2341 C2357 1.349 . S
C2342 C2340 1.327 . S
C2342 C2361 1.429 . S
C2342 H2366 0.950 . S
C2343 C2360 1.574 . S
C2343 C2362 1.368 . S
C2343 H2367 0.949 . S
H2344 C2348 0.949 . S
C2345 C2346 1.349 . S
C2345 C2347 1.327 . S
C2345 H2368 0.950 . S
C2346 C2345 1.349 . S
C2346 C2358 1.349 . S
C2347 C2345 1.327 . S
C2347 C2363 1.429 . S
C2347 H2369 0.950 . S
C2348 H2344 0.949 . S
C2348 C2356 1.574 . S
C2348 C2364 1.368 . S
H2349 C2357 0.950 . S
H2350 C2355 0.950 . S
H2351 C2356 0.949 . S
H2352 C2358 0.950 . S
H2353 C2359 0.950 . S
H2354 C2360 0.949 . S
C2355 H2350 0.950 . S
C2355 C2357 1.327 . S
C2355 C2361 1.429 . S
C2356 C2348 1.574 . S
C2356 H2351 0.949 . S
C2356 C2362 1.368 . S
C2357 C2341 1.349 . S
C2357 H2349 0.950 . S
C2357 C2355 1.327 . S
C2358 C2346 1.349 . S
C2358 H2352 0.950 . S
C2358 C2359 1.327 . S
C2359 H2353 0.950 . S
C2359 C2358 1.327 . S
C2359 C2363 1.429 . S
C2360 C2343 1.574 . S
C2360 H2354 0.949 . S
C2360 C2364 1.368 . S
C2361 C2342 1.429 . S
C2361 C2355 1.429 . S
C2361 C2362 1.523 . S
C2362 C2343 1.368 . S
C2362 C2356 1.368 . S
C2362 C2361 1.523 . S
C2363 C2347 1.429 . S
C2363 C2359 1.429 . S
C2363 C2364 1.523 . S
C2364 C2348 1.368 . S
C2364 C2360 1.368 . S
C2364 C2363 1.523 . S
H2365 C2340 0.950 . S
H2366 C2342 0.950 . S
H2367 C2343 0.949 . S
H2368 C2345 0.950 . S
H2369 C2347 0.950 . S
C2370 C2371 1.349 . S
C2370 C2372 1.327 . S
C2370 H2395 0.950 . S
C2371 C2370 1.349 . S
C2371 C2387 1.349 . S
C2372 C2370 1.327 . S
C2372 C2391 1.429 . S
C2372 H2396 0.950 . S
C2373 C2390 1.574 . S
C2373 C2392 1.368 . S
C2373 H2397 0.949 . S
H2374 C2378 0.949 . S
C2375 C2376 1.349 . S
C2375 C2377 1.327 . S
C2375 H2398 0.950 . S
C2376 C2375 1.349 . S
C2376 C2388 1.349 . S
C2377 C2375 1.327 . S
C2377 C2393 1.429 . S
C2377 H2399 0.950 . S
C2378 H2374 0.949 . S
C2378 C2386 1.574 . S
C2378 C2394 1.368 . S
H2379 C2387 0.950 . S
H2380 C2385 0.950 . S
H2381 C2386 0.949 . S
H2382 C2388 0.950 . S
H2383 C2389 0.950 . S
H2384 C2390 0.949 . S
C2385 H2380 0.950 . S
C2385 C2387 1.327 . S
C2385 C2391 1.429 . S
C2386 C2378 1.574 . S
C2386 H2381 0.949 . S
C2386 C2392 1.368 . S
C2387 C2371 1.349 . S
C2387 H2379 0.950 . S
C2387 C2385 1.327 . S
C2388 C2376 1.349 . S
C2388 H2382 0.950 . S
C2388 C2389 1.327 . S
C2389 H2383 0.950 . S
C2389 C2388 1.327 . S
C2389 C2393 1.429 . S
C2390 C2373 1.574 . S
C2390 H2384 0.949 . S
C2390 C2394 1.368 . S
C2391 C2372 1.429 . S
C2391 C2385 1.429 . S
C2391 C2392 1.523 . S
C2392 C2373 1.368 . S
C2392 C2386 1.368 . S
C2392 C2391 1.523 . S
C2393 C2377 1.429 . S
C2393 C2389 1.429 . S
C2393 C2394 1.523 . S
C2394 C2378 1.368 . S
C2394 C2390 1.368 . S
C2394 C2393 1.523 . S
H2395 C2370 0.950 . S
H2396 C2372 0.950 . S
H2397 C2373 0.949 . S
H2398 C2375 0.950 . S
H2399 C2377 0.950 . S
C2400 C2401 1.349 . S
C2400 C2402 1.327 . S
C2400 H2425 0.950 . S
C2401 C2400 1.349 . S
C2401 C2417 1.349 . S
C2402 C2400 1.327 . S
C2402 C2421 1.429 . S
C2402 H2426 0.950 . S
C2403 C2420 1.574 . S
C2403 C2422 1.368 . S
C2403 H2427 0.949 . S
H2404 C2408 0.949 . S
C2405 C2406 1.349 . S
C2405 C2407 1.327 . S
C2405 H2428 0.950 . S
C2406 C2405 1.349 . S
C2406 C2418 1.349 . S
C2407 C2405 1.327 . S
C2407 C2423 1.429 . S
C2407 H2429 0.950 . S
C2408 H2404 0.949 . S
C2408 C2416 1.574 . S
C2408 C2424 1.368 . S
H2409 C2417 0.950 . S
H2410 C2415 0.950 . S
H2411 C2416 0.949 . S
H2412 C2418 0.950 . S
H2413 C2419 0.950 . S
H2414 C2420 0.949 . S
C2415 H2410 0.950 . S
C2415 C2417 1.327 . S
C2415 C2421 1.429 . S
C2416 C2408 1.574 . S
C2416 H2411 0.949 . S
C2416 C2422 1.368 . S
C2417 C2401 1.349 . S
C2417 H2409 0.950 . S
C2417 C2415 1.327 . S
C2418 C2406 1.349 . S
C2418 H2412 0.950 . S
C2418 C2419 1.327 . S
C2419 H2413 0.950 . S
C2419 C2418 1.327 . S
C2419 C2423 1.429 . S
C2420 C2403 1.574 . S
C2420 H2414 0.949 . S
C2420 C2424 1.368 . S
C2421 C2402 1.429 . S
C2421 C2415 1.429 . S
C2421 C2422 1.523 . S
C2422 C2403 1.368 . S
C2422 C2416 1.368 . S
C2422 C2421 1.523 . S
C2423 C2407 1.429 . S
C2423 C2419 1.429 . S
C2423 C2424 1.523 . S
C2424 C2408 1.368 . S
C2424 C2420 1.368 . S
C2424 C2423 1.523 . S
H2425 C2400 0.950 . S
H2426 C2402 0.950 . S
H2427 C2403 0.949 . S
H2428 C2405 0.950 . S
H2429 C2407 0.950 . S
C2430 C2431 1.349 . S
C2430 C2432 1.327 . S
C2430 H2455 0.950 . S
C2431 C2430 1.349 . S
C2431 C2447 1.349 . S
C2432 C2430 1.327 . S
C2432 C2451 1.429 . S
C2432 H2456 0.950 . S
C2433 C2450 1.574 . S
C2433 C2452 1.368 . S
C2433 H2457 0.949 . S
H2434 C2438 0.949 . S
C2435 C2436 1.349 . S
C2435 C2437 1.327 . S
C2435 H2458 0.950 . S
C2436 C2435 1.349 . S
C2436 C2448 1.349 . S
C2437 C2435 1.327 . S
C2437 C2453 1.429 . S
C2437 H2459 0.950 . S
C2438 H2434 0.949 . S
C2438 C2446 1.574 . S
C2438 C2454 1.368 . S
H2439 C2447 0.950 . S
H2440 C2445 0.950 . S
H2441 C2446 0.949 . S
H2442 C2448 0.950 . S
H2443 C2449 0.950 . S
H2444 C2450 0.949 . S
C2445 H2440 0.950 . S
C2445 C2447 1.327 . S
C2445 C2451 1.429 . S
C2446 C2438 1.574 . S
C2446 H2441 0.949 . S
C2446 C2452 1.368 . S
C2447 C2431 1.349 . S
C2447 H2439 0.950 . S
C2447 C2445 1.327 . S
C2448 C2436 1.349 . S
C2448 H2442 0.950 . S
C2448 C2449 1.327 . S
C2449 H2443 0.950 . S
C2449 C2448 1.327 . S
C2449 C2453 1.429 . S
C2450 C2433 1.574 . S
C2450 H2444 0.949 . S
C2450 C2454 1.368 . S
C2451 C2432 1.429 . S
C2451 C2445 1.429 . S
C2451 C2452 1.523 . S
C2452 C2433 1.368 . S
C2452 C2446 1.368 . S
C2452 C2451 1.523 . S
C2453 C2437 1.429 . S
C2453 C2449 1.429 . S
C2453 C2454 1.523 . S
C2454 C2438 1.368 . S
C2454 C2450 1.368 . S
C2454 C2453 1.523 . S
H2455 C2430 0.950 . S
H2456 C2432 0.950 . S
H2457 C2433 0.949 . S
H2458 C2435 0.950 . S
H2459 C2437 0.950 . S
C2460 C2461 1.349 . S
C2460 C2462 1.327 . S
C2460 H2485 0.950 . S
C2461 C2460 1.349 . S
C2461 C2477 1.349 . S
C2462 C2460 1.327 . S
C2462 C2481 1.429 . S
C2462 H2486 0.950 . S
C2463 C2480 1.574 . S
C2463 C2482 1.368 . S
C2463 H2487 0.949 . S
H2464 C2468 0.949 . S
C2465 C2466 1.349 . S
C2465 C2467 1.327 . S
C2465 H2488 0.950 . S
C2466 C2465 1.349 . S
C2466 C2478 1.349 . S
C2467 C2465 1.327 . S
C2467 C2483 1.429 . S
C2467 H2489 0.950 . S
C2468 H2464 0.949 . S
C2468 C2476 1.574 . S
C2468 C2484 1.368 . S
H2469 C2477 0.950 . S
H2470 C2475 0.950 . S
H2471 C2476 0.949 . S
H2472 C2478 0.950 . S
H2473 C2479 0.950 . S
H2474 C2480 0.949 . S
C2475 H2470 0.950 . S
C2475 C2477 1.327 . S
C2475 C2481 1.429 . S
C2476 C2468 1.574 . S
C2476 H2471 0.949 . S
C2476 C2482 1.368 . S
C2477 C2461 1.349 . S
C2477 H2469 0.950 . S
C2477 C2475 1.327 . S
C2478 C2466 1.349 . S
C2478 H2472 0.950 . S
C2478 C2479 1.327 . S
C2479 H2473 0.950 . S
C2479 C2478 1.327 . S
C2479 C2483 1.429 . S
C2480 C2463 1.574 . S
C2480 H2474 0.949 . S
C2480 C2484 1.368 . S
C2481 C2462 1.429 . S
C2481 C2475 1.429 . S
C2481 C2482 1.523 . S
C2482 C2463 1.368 . S
C2482 C2476 1.368 . S
C2482 C2481 1.523 . S
C2483 C2467 1.429 . S
C2483 C2479 1.429 . S
C2483 C2484 1.523 . S
C2484 C2468 1.368 . S
C2484 C2480 1.368 . S
C2484 C2483 1.523 . S
H2485 C2460 0.950 . S
H2486 C2462 0.950 . S
H2487 C2463 0.949 . S
H2488 C2465 0.950 . S
H2489 C2467 0.950 . S
C2490 C2491 1.349 . S
C2490 C2492 1.327 . S
C2490 H2515 0.950 . S
C2491 C2490 1.349 . S
C2491 C2507 1.349 . S
C2492 C2490 1.327 . S
C2492 C2511 1.429 . S
C2492 H2516 0.950 . S
C2493 C2510 1.574 . S
C2493 C2512 1.368 . S
C2493 H2517 0.949 . S
H2494 C2498 0.949 . S
C2495 C2496 1.349 . S
C2495 C2497 1.327 . S
C2495 H2518 0.950 . S
C2496 C2495 1.349 . S
C2496 C2508 1.349 . S
C2497 C2495 1.327 . S
C2497 C2513 1.429 . S
C2497 H2519 0.950 . S
C2498 H2494 0.949 . S
C2498 C2506 1.574 . S
C2498 C2514 1.368 . S
H2499 C2507 0.950 . S
H2500 C2505 0.950 . S
H2501 C2506 0.949 . S
H2502 C2508 0.950 . S
H2503 C2509 0.950 . S
H2504 C2510 0.949 . S
C2505 H2500 0.950 . S
C2505 C2507 1.327 . S
C2505 C2511 1.429 . S
C2506 C2498 1.574 . S
C2506 H2501 0.949 . S
C2506 C2512 1.368 . S
C2507 C2491 1.349 . S
C2507 H2499 0.950 . S
C2507 C2505 1.327 . S
C2508 C2496 1.349 . S
C2508 H2502 0.950 . S
C2508 C2509 1.327 . S
C2509 H2503 0.950 . S
C2509 C2508 1.327 . S
C2509 C2513 1.429 . S
C2510 C2493 1.574 . S
C2510 H2504 0.949 . S
C2510 C2514 1.368 . S
C2511 C2492 1.429 . S
C2511 C2505 1.429 . S
C2511 C2512 1.523 . S
C2512 C2493 1.368 . S
C2512 C2506 1.368 . S
C2512 C2511 1.523 . S
C2513 C2497 1.429 . S
C2513 C2509 1.429 . S
C2513 C2514 1.523 . S
C2514 C2498 1.368 . S
C2514 C2510 1.368 . S
C2514 C2513 1.523 . S
H2515 C2490 0.950 . S
H2516 C2492 0.950 . S
H2517 C2493 0.949 . S
H2518 C2495 0.950 . S
H2519 C2497 0.950 . S
C2520 C2521 1.349 . S
C2520 C2522 1.327 . S
C2520 H2545 0.950 . S
C2521 C2520 1.349 . S
C2521 C2537 1.349 . S
C2522 C2520 1.327 . S
C2522 C2541 1.429 . S
C2522 H2546 0.950 . S
C2523 C2540 1.574 . S
C2523 C2542 1.368 . S
C2523 H2547 0.949 . S
H2524 C2528 0.949 . S
C2525 C2526 1.349 . S
C2525 C2527 1.327 . S
C2525 H2548 0.950 . S
C2526 C2525 1.349 . S
C2526 C2538 1.349 . S
C2527 C2525 1.327 . S
C2527 C2543 1.429 . S
C2527 H2549 0.950 . S
C2528 H2524 0.949 . S
C2528 C2536 1.574 . S
C2528 C2544 1.368 . S
H2529 C2537 0.950 . S
H2530 C2535 0.950 . S
H2531 C2536 0.949 . S
H2532 C2538 0.950 . S
H2533 C2539 0.950 . S
H2534 C2540 0.949 . S
C2535 H2530 0.950 . S
C2535 C2537 1.327 . S
C2535 C2541 1.429 . S
C2536 C2528 1.574 . S
C2536 H2531 0.949 . S
C2536 C2542 1.368 . S
C2537 C2521 1.349 . S
C2537 H2529 0.950 . S
C2537 C2535 1.327 . S
C2538 C2526 1.349 . S
C2538 H2532 0.950 . S
C2538 C2539 1.327 . S
C2539 H2533 0.950 . S
C2539 C2538 1.327 . S
C2539 C2543 1.429 . S
C2540 C2523 1.574 . S
C2540 H2534 0.949 . S
C2540 C2544 1.368 . S
C2541 C2522 1.429 . S
C2541 C2535 1.429 . S
C2541 C2542 1.523 . S
C2542 C2523 1.368 . S
C2542 C2536 1.368 . S
C2542 C2541 1.523 . S
C2543 C2527 1.429 . S
C2543 C2539 1.429 . S
C2543 C2544 1.523 . S
C2544 C2528 1.368 . S
C2544 C2540 1.368 . S
C2544 C2543 1.523 . S
H2545 C2520 0.950 . S
H2546 C2522 0.950 . S
H2547 C2523 0.949 . S
H2548 C2525 0.950 . S
H2549 C2527 0.950 . S
C2550 C2551 1.349 . S
C2550 C2552 1.327 . S
C2550 H2575 0.950 . S
C2551 C2550 1.349 . S
C2551 C2567 1.349 . S
C2552 C2550 1.327 . S
C2552 C2571 1.429 . S
C2552 H2576 0.950 . S
C2553 C2570 1.574 . S
C2553 C2572 1.368 . S
C2553 H2577 0.949 . S
H2554 C2558 0.949 . S
C2555 C2556 1.349 . S
C2555 C2557 1.327 . S
C2555 H2578 0.950 . S
C2556 C2555 1.349 . S
C2556 C2568 1.349 . S
C2557 C2555 1.327 . S
C2557 C2573 1.429 . S
C2557 H2579 0.950 . S
C2558 H2554 0.949 . S
C2558 C2566 1.574 . S
C2558 C2574 1.368 . S
H2559 C2567 0.950 . S
H2560 C2565 0.950 . S
H2561 C2566 0.949 . S
H2562 C2568 0.950 . S
H2563 C2569 0.950 . S
H2564 C2570 0.949 . S
C2565 H2560 0.950 . S
C2565 C2567 1.327 . S
C2565 C2571 1.429 . S
C2566 C2558 1.574 . S
C2566 H2561 0.949 . S
C2566 C2572 1.368 . S
C2567 C2551 1.349 . S
C2567 H2559 0.950 . S
C2567 C2565 1.327 . S
C2568 C2556 1.349 . S
C2568 H2562 0.950 . S
C2568 C2569 1.327 . S
C2569 H2563 0.950 . S
C2569 C2568 1.327 . S
C2569 C2573 1.429 . S
C2570 C2553 1.574 . S
C2570 H2564 0.949 . S
C2570 C2574 1.368 . S
C2571 C2552 1.429 . S
C2571 C2565 1.429 . S
C2571 C2572 1.523 . S
C2572 C2553 1.368 . S
C2572 C2566 1.368 . S
C2572 C2571 1.523 . S
C2573 C2557 1.429 . S
C2573 C2569 1.429 . S
C2573 C2574 1.523 . S
C2574 C2558 1.368 . S
C2574 C2570 1.368 . S
C2574 C2573 1.523 . S
H2575 C2550 0.950 . S
H2576 C2552 0.950 . S
H2577 C2553 0.949 . S
H2578 C2555 0.950 . S
H2579 C2557 0.950 . S
C2580 C2581 1.349 . S
C2580 C2582 1.327 . S
C2580 H2605 0.950 . S
C2581 C2580 1.349 . S
C2581 C2597 1.349 . S
C2582 C2580 1.327 . S
C2582 C2601 1.429 . S
C2582 H2606 0.950 . S
C2583 C2600 1.574 . S
C2583 C2602 1.368 . S
C2583 H2607 0.949 . S
H2584 C2588 0.949 . S
C2585 C2586 1.349 . S
C2585 C2587 1.327 . S
C2585 H2608 0.950 . S
C2586 C2585 1.349 . S
C2586 C2598 1.349 . S
C2587 C2585 1.327 . S
C2587 C2603 1.429 . S
C2587 H2609 0.950 . S
C2588 H2584 0.949 . S
C2588 C2596 1.574 . S
C2588 C2604 1.368 . S
H2589 C2597 0.950 . S
H2590 C2595 0.950 . S
H2591 C2596 0.949 . S
H2592 C2598 0.950 . S
H2593 C2599 0.950 . S
H2594 C2600 0.949 . S
C2595 H2590 0.950 . S
C2595 C2597 1.327 . S
C2595 C2601 1.429 . S
C2596 C2588 1.574 . S
C2596 H2591 0.949 . S
C2596 C2602 1.368 . S
C2597 C2581 1.349 . S
C2597 H2589 0.950 . S
C2597 C2595 1.327 . S
C2598 C2586 1.349 . S
C2598 H2592 0.950 . S
C2598 C2599 1.327 . S
C2599 H2593 0.950 . S
C2599 C2598 1.327 . S
C2599 C2603 1.429 . S
C2600 C2583 1.574 . S
C2600 H2594 0.949 . S
C2600 C2604 1.368 . S
C2601 C2582 1.429 . S
C2601 C2595 1.429 . S
C2601 C2602 1.523 . S
C2602 C2583 1.368 . S
C2602 C2596 1.368 . S
C2602 C2601 1.523 . S
C2603 C2587 1.429 . S
C2603 C2599 1.429 . S
C2603 C2604 1.523 . S
C2604 C2588 1.368 . S
C2604 C2600 1.368 . S
C2604 C2603 1.523 . S
H2605 C2580 0.950 . S
H2606 C2582 0.950 . S
H2607 C2583 0.949 . S
H2608 C2585 0.950 . S
H2609 C2587 0.950 . S
C2610 C2611 1.349 . S
C2610 C2612 1.327 . S
C2610 H2635 0.950 . S
C2611 C2610 1.349 . S
C2611 C2627 1.349 . S
C2612 C2610 1.327 . S
C2612 C2631 1.429 . S
C2612 H2636 0.950 . S
C2613 C2630 1.574 . S
C2613 C2632 1.368 . S
C2613 H2637 0.949 . S
H2614 C2618 0.949 . S
C2615 C2616 1.349 . S
C2615 C2617 1.327 . S
C2615 H2638 0.950 . S
C2616 C2615 1.349 . S
C2616 C2628 1.349 . S
C2617 C2615 1.327 . S
C2617 C2633 1.429 . S
C2617 H2639 0.950 . S
C2618 H2614 0.949 . S
C2618 C2626 1.574 . S
C2618 C2634 1.368 . S
H2619 C2627 0.950 . S
H2620 C2625 0.950 . S
H2621 C2626 0.949 . S
H2622 C2628 0.950 . S
H2623 C2629 0.950 . S
H2624 C2630 0.949 . S
C2625 H2620 0.950 . S
C2625 C2627 1.327 . S
C2625 C2631 1.429 . S
C2626 C2618 1.574 . S
C2626 H2621 0.949 . S
C2626 C2632 1.368 . S
C2627 C2611 1.349 . S
C2627 H2619 0.950 . S
C2627 C2625 1.327 . S
C2628 C2616 1.349 . S
C2628 H2622 0.950 . S
C2628 C2629 1.327 . S
C2629 H2623 0.950 . S
C2629 C2628 1.327 . S
C2629 C2633 1.429 . S
C2630 C2613 1.574 . S
C2630 H2624 0.949 . S
C2630 C2634 1.368 . S
C2631 C2612 1.429 . S
C2631 C2625 1.429 . S
C2631 C2632 1.523 . S
C2632 C2613 1.368 . S
C2632 C2626 1.368 . S
C2632 C2631 1.523 . S
C2633 C2617 1.429 . S
C2633 C2629 1.429 . S
C2633 C2634 1.523 . S
C2634 C2618 1.368 . S
C2634 C2630 1.368 . S
C2634 C2633 1.523 . S
H2635 C2610 0.950 . S
H2636 C2612 0.950 . S
H2637 C2613 0.949 . S
H2638 C2615 0.950 . S
H2639 C2617 0.950 . S
C2640 C2641 1.349 . S
C2640 C2642 1.327 . S
C2640 H2665 0.950 . S
C2641 C2640 1.349 . S
C2641 C2657 1.349 . S
C2642 C2640 1.327 . S
C2642 C2661 1.429 . S
C2642 H2666 0.950 . S
C2643 C2660 1.574 . S
C2643 C2662 1.368 . S
C2643 H2667 0.949 . S
H2644 C2648 0.949 . S
C2645 C2646 1.349 . S
C2645 C2647 1.327 . S
C2645 H2668 0.950 . S
C2646 C2645 1.349 . S
C2646 C2658 1.349 . S
C2647 C2645 1.327 . S
C2647 C2663 1.429 . S
C2647 H2669 0.950 . S
C2648 H2644 0.949 . S
C2648 C2656 1.574 . S
C2648 C2664 1.368 . S
H2649 C2657 0.950 . S
H2650 C2655 0.950 . S
H2651 C2656 0.949 . S
H2652 C2658 0.950 . S
H2653 C2659 0.950 . S
H2654 C2660 0.949 . S
C2655 H2650 0.950 . S
C2655 C2657 1.327 . S
C2655 C2661 1.429 . S
C2656 C2648 1.574 . S
C2656 H2651 0.949 . S
C2656 C2662 1.368 . S
C2657 C2641 1.349 . S
C2657 H2649 0.950 . S
C2657 C2655 1.327 . S
C2658 C2646 1.349 . S
C2658 H2652 0.950 . S
C2658 C2659 1.327 . S
C2659 H2653 0.950 . S
C2659 C2658 1.327 . S
C2659 C2663 1.429 . S
C2660 C2643 1.574 . S
C2660 H2654 0.949 . S
C2660 C2664 1.368 . S
C2661 C2642 1.429 . S
C2661 C2655 1.429 . S
C2661 C2662 1.523 . S
C2662 C2643 1.368 . S
C2662 C2656 1.368 . S
C2662 C2661 1.523 . S
C2663 C2647 1.429 . S
C2663 C2659 1.429 . S
C2663 C2664 1.523 . S
C2664 C2648 1.368 . S
C2664 C2660 1.368 . S
C2664 C2663 1.523 . S
H2665 C2640 0.950 . S
H2666 C2642 0.950 . S
H2667 C2643 0.949 . S
H2668 C2645 0.950 . S
H2669 C2647 0.950 . S
C2670 C2671 1.349 . S
C2670 C2672 1.327 . S
C2670 H2695 0.950 . S
C2671 C2670 1.349 . S
C2671 C2687 1.349 . S
C2672 C2670 1.327 . S
C2672 C2691 1.429 . S
C2672 H2696 0.950 . S
C2673 C2690 1.574 . S
C2673 C2692 1.368 . S
C2673 H2697 0.949 . S
H2674 C2678 0.949 . S
C2675 C2676 1.349 . S
C2675 C2677 1.327 . S
C2675 H2698 0.950 . S
C2676 C2675 1.349 . S
C2676 C2688 1.349 . S
C2677 C2675 1.327 . S
C2677 C2693 1.429 . S
C2677 H2699 0.950 . S
C2678 H2674 0.949 . S
C2678 C2686 1.574 . S
C2678 C2694 1.368 . S
H2679 C2687 0.950 . S
H2680 C2685 0.950 . S
H2681 C2686 0.949 . S
H2682 C2688 0.950 . S
H2683 C2689 0.950 . S
H2684 C2690 0.949 . S
C2685 H2680 0.950 . S
C2685 C2687 1.327 . S
C2685 C2691 1.429 . S
C2686 C2678 1.574 . S
C2686 H2681 0.949 . S
C2686 C2692 1.368 . S
C2687 C2671 1.349 . S
C2687 H2679 0.950 . S
C2687 C2685 1.327 . S
C2688 C2676 1.349 . S
C2688 H2682 0.950 . S
C2688 C2689 1.327 . S
C2689 H2683 0.950 . S
C2689 C2688 1.327 . S
C2689 C2693 1.429 . S
C2690 C2673 1.574 . S
C2690 H2684 0.949 . S
C2690 C2694 1.368 . S
C2691 C2672 1.429 . S
C2691 C2685 1.429 . S
C2691 C2692 1.523 . S
C2692 C2673 1.368 . S
C2692 C2686 1.368 . S
C2692 C2691 1.523 . S
C2693 C2677 1.429 . S
C2693 C2689 1.429 . S
C2693 C2694 1.523 . S
C2694 C2678 1.368 . S
C2694 C2690 1.368 . S
C2694 C2693 1.523 . S
H2695 C2670 0.950 . S
H2696 C2672 0.950 . S
H2697 C2673 0.949 . S
H2698 C2675 0.950 . S
H2699 C2677 0.950 . S
C2700 C2701 1.349 . S
C2700 C2702 1.327 . S
C2700 H2725 0.950 . S
C2701 C2700 1.349 . S
C2701 C2717 1.349 . S
C2702 C2700 1.327 . S
C2702 C2721 1.429 . S
C2702 H2726 0.950 . S
C2703 C2720 1.574 . S
C2703 C2722 1.368 . S
C2703 H2727 0.949 . S
H2704 C2708 0.949 . S
C2705 C2706 1.349 . S
C2705 C2707 1.327 . S
C2705 H2728 0.950 . S
C2706 C2705 1.349 . S
C2706 C2718 1.349 . S
C2707 C2705 1.327 . S
C2707 C2723 1.429 . S
C2707 H2729 0.950 . S
C2708 H2704 0.949 . S
C2708 C2716 1.574 . S
C2708 C2724 1.368 . S
H2709 C2717 0.950 . S
H2710 C2715 0.950 . S
H2711 C2716 0.949 . S
H2712 C2718 0.950 . S
H2713 C2719 0.950 . S
H2714 C2720 0.949 . S
C2715 H2710 0.950 . S
C2715 C2717 1.327 . S
C2715 C2721 1.429 . S
C2716 C2708 1.574 . S
C2716 H2711 0.949 . S
C2716 C2722 1.368 . S
C2717 C2701 1.349 . S
C2717 H2709 0.950 . S
C2717 C2715 1.327 . S
C2718 C2706 1.349 . S
C2718 H2712 0.950 . S
C2718 C2719 1.327 . S
C2719 H2713 0.950 . S
C2719 C2718 1.327 . S
C2719 C2723 1.429 . S
C2720 C2703 1.574 . S
C2720 H2714 0.949 . S
C2720 C2724 1.368 . S
C2721 C2702 1.429 . S
C2721 C2715 1.429 . S
C2721 C2722 1.523 . S
C2722 C2703 1.368 . S
C2722 C2716 1.368 . S
C2722 C2721 1.523 . S
C2723 C2707 1.429 . S
C2723 C2719 1.429 . S
C2723 C2724 1.523 . S
C2724 C2708 1.368 . S
C2724 C2720 1.368 . S
C2724 C2723 1.523 . S
H2725 C2700 0.950 . S
H2726 C2702 0.950 . S
H2727 C2703 0.949 . S
H2728 C2705 0.950 . S
H2729 C2707 0.950 . S
C2730 C2731 1.349 . S
C2730 C2732 1.327 . S
C2730 H2755 0.950 . S
C2731 C2730 1.349 . S
C2731 C2747 1.349 . S
C2732 C2730 1.327 . S
C2732 C2751 1.429 . S
C2732 H2756 0.950 . S
C2733 C2750 1.574 . S
C2733 C2752 1.368 . S
C2733 H2757 0.949 . S
H2734 C2738 0.949 . S
C2735 C2736 1.349 . S
C2735 C2737 1.327 . S
C2735 H2758 0.950 . S
C2736 C2735 1.349 . S
C2736 C2748 1.349 . S
C2737 C2735 1.327 . S
C2737 C2753 1.429 . S
C2737 H2759 0.950 . S
C2738 H2734 0.949 . S
C2738 C2746 1.574 . S
C2738 C2754 1.368 . S
H2739 C2747 0.950 . S
H2740 C2745 0.950 . S
H2741 C2746 0.949 . S
H2742 C2748 0.950 . S
H2743 C2749 0.950 . S
H2744 C2750 0.949 . S
C2745 H2740 0.950 . S
C2745 C2747 1.327 . S
C2745 C2751 1.429 . S
C2746 C2738 1.574 . S
C2746 H2741 0.949 . S
C2746 C2752 1.368 . S
C2747 C2731 1.349 . S
C2747 H2739 0.950 . S
C2747 C2745 1.327 . S
C2748 C2736 1.349 . S
C2748 H2742 0.950 . S
C2748 C2749 1.327 . S
C2749 H2743 0.950 . S
C2749 C2748 1.327 . S
C2749 C2753 1.429 . S
C2750 C2733 1.574 . S
C2750 H2744 0.949 . S
C2750 C2754 1.368 . S
C2751 C2732 1.429 . S
C2751 C2745 1.429 . S
C2751 C2752 1.523 . S
C2752 C2733 1.368 . S
C2752 C2746 1.368 . S
C2752 C2751 1.523 . S
C2753 C2737 1.429 . S
C2753 C2749 1.429 . S
C2753 C2754 1.523 . S
C2754 C2738 1.368 . S
C2754 C2750 1.368 . S
C2754 C2753 1.523 . S
H2755 C2730 0.950 . S
H2756 C2732 0.950 . S
H2757 C2733 0.949 . S
H2758 C2735 0.950 . S
H2759 C2737 0.950 . S
C606 C330 1.352 . S
C601 C285 1.405 . S
C631 C261 1.286 . S
C636 C324 1.226 . S
C666 C292 1.376 . S
C661 C249 1.452 . S
C691 C273 1.620 . S
C696 C306 1.528 . S
C726 C344 2.027 . S
C721 C201 2.126 . S
C756 C431 1.444 . S
C751 C213 1.486 . S
C781 C225 2.178 . S
C786 C358 2.077 . S
C816 C426 0.951 . S
C811 C237 0.969 . S
C841 C153 2.076 . S
C846 C382 1.987 . S
C876 C437 1.481 . S
C871 C165 1.517 . S
C901 C177 2.012 . S
C906 C376 1.915 . S
C931 C189 1.225 . S
C936 C422 1.203 . S
C966 C478 1.171 . S
C961 C141 1.187 . S
C991 C117 1.488 . S
C996 C489 1.465 . S
C1021 C105 1.108 . S
C1026 C474 1.091 . S
C1056 C483 1.670 . S
C1051 C129 1.702 . S
C1081 C57 1.604 1_455 S
C1086 C528 1.522 . S
C1111 C69 0.591 . S
C1116 C587 0.611 . S
C1141 C81 1.778 . S
C1146 C544 1.677 . S
C1171 C93 0.941 . S
C1176 C582 0.922 . S
C1206 C546 1.563 . S
C1201 C9 1.659 . S
C1236 C593 0.560 . S
C1231 C21 0.540 . S
C1261 C33 1.470 . S
C1266 C522 1.406 . S
C1296 C578 1.072 . S
C1291 C45 1.094 . S
C1326 C314 1.368 . S
C1321 C4 1.342 . S
C1351 C18 1.365 . S
C1356 C318 1.373 . S
C1381 C30 1.785 . S
C1386 C338 1.725 . S
C1411 C42 1.191 . S
C1416 C333 1.191 . S
C1441 C52 1.399 . S
C1446 C336 1.414 . S
C1476 C322 1.408 . S
C1471 C66 1.398 . S
C1501 C78 1.742 . S
C1506 C320 1.693 . S
C1536 C327 0.607 . S
C1531 C88 0.656 . S
C1566 C390 1.372 . S
C1561 C40 1.360 . S
C1591 C6 2.055 . S
C1596 C440 1.976 . S
C1626 C388 1.102 . S
C1621 C16 1.095 . S
C1656 C424 1.547 . S
C1651 C28 1.521 . S
C1681 C64 0.911 . S
C1686 C366 0.920 . S
C1716 C442 1.743 . S
C1711 C76 1.744 . S
C1746 C372 1.632 . S
C1741 C90 1.673 . S
C1776 C418 2.035 . S
C1771 C54 2.128 1_455 S
C1806 C410 1.524 . S
C1801 C102 1.553 . S
C1831 C114 1.325 . S
C1836 C434 1.317 . S
C1866 C370 0.895 . S
C1861 C100 0.868 . S
C1896 C396 1.137 . S
C1891 C124 1.086 . S
C1921 C138 1.303 . S
C1926 C374 1.314 . S
C1951 C136 1.159 . S
C1956 C428 1.211 . S
C1986 C385 1.183 . S
C1981 C112 1.109 . S
C2016 C379 1.682 . S
C2011 C126 1.660 . S
C2046 C462 1.761 . S
C2041 C148 1.706 . S
C2076 C494 1.518 . S
C2071 C162 1.534 . S
C2101 C174 2.108 . S
C2106 C448 2.054 . S
C2136 C492 1.355 . S
C2131 C186 1.407 . S
C2166 C480 1.724 . S
C2161 C196 1.666 . S
C2191 C210 1.567 . S
C2196 C476 1.548 . S
C2221 C222 2.150 . S
C2226 C486 2.125 . S
C2256 C470 0.775 . S
C2251 C232 0.770 . S
C2286 C535 1.238 . S
C2281 C184 1.175 . S
C2311 C150 1.716 . S
C2316 C596 1.678 . S
C2346 C530 0.998 . S
C2341 C160 0.949 . S
C2376 C580 1.372 . S
C2371 C172 1.288 . S
C2406 C526 0.805 . S
C2401 C208 0.791 . S
C2431 C220 1.405 . S
C2436 C598 1.449 . S
C2466 C541 1.500 . S
C2461 C234 1.491 . S
C2496 C574 1.693 . S
C2491 C198 1.754 . S
C2526 C566 1.670 . S
C2521 C246 1.723 . S
C2551 C258 1.828 . S
C2556 C590 1.751 . S
C2586 C532 1.126 . S
C2581 C244 1.110 . S
C2611 C268 1.543 . S
C2616 C552 1.557 . S
C2646 C514 1.622 . S
C2641 C282 1.667 . S
C2676 C584 1.323 . S
C2671 C280 1.287 . S
C2706 C500 1.140 . S
C2701 C256 1.137 . S
C2731 C270 1.577 . S
C2736 C538 1.535 . S
