# Generated by pormake.
# Topology ant, (3,6)-cn, num edge types: 1
# Building blocks:
#     Node 0, Type 0, BuildingBlock: KAKCAD_clean_linker_0, # of connection points: 3
#     Node 1, Type 0, BuildingBlock: KAKCAD_clean_linker_0, # of connection points: 3
#     Node 2, Type 0, BuildingBlock: KAKCAD_clean_linker_0, # of connection points: 3
#     Node 3, Type 0, BuildingBlock: KAKCAD_clean_linker_0, # of connection points: 3
#     Node 4, Type 0, BuildingBlock: KAKCAD_clean_linker_0, # of connection points: 3
#     Node 5, Type 0, BuildingBlock: KAKCAD_clean_linker_0, # of connection points: 3
#     Node 6, Type 0, BuildingBlock: KAKCAD_clean_linker_0, # of connection points: 3
#     Node 7, Type 0, BuildingBlock: KAKCAD_clean_linker_0, # of connection points: 3
#     Node 8, Type 1, BuildingBlock: MIDCAF_clean_sbu_0, # of connection points: 6
#     Node 9, Type 1, BuildingBlock: MIDCAF_clean_sbu_0, # of connection points: 6
#     Node 10, Type 1, BuildingBlock: MIDCAF_clean_sbu_0, # of connection points: 6
#     Node 11, Type 1, BuildingBlock: MIDCAF_clean_sbu_0, # of connection points: 6
#     Edge 12, Type (0, 1), None
#     Edge 13, Type (0, 1), None
#     Edge 14, Type (0, 1), None
#     Edge 15, Type (0, 1), None
#     Edge 16, Type (0, 1), None
#     Edge 17, Type (0, 1), None
#     Edge 18, Type (0, 1), None
#     Edge 19, Type (0, 1), None
#     Edge 20, Type (0, 1), None
#     Edge 21, Type (0, 1), None
#     Edge 22, Type (0, 1), None
#     Edge 23, Type (0, 1), None
#     Edge 24, Type (0, 1), None
#     Edge 25, Type (0, 1), None
#     Edge 26, Type (0, 1), None
#     Edge 27, Type (0, 1), None
#     Edge 28, Type (0, 1), None
#     Edge 29, Type (0, 1), None
#     Edge 30, Type (0, 1), None
#     Edge 31, Type (0, 1), None
#     Edge 32, Type (0, 1), None
#     Edge 33, Type (0, 1), None
#     Edge 34, Type (0, 1), None
#     Edge 35, Type (0, 1), None
# Relax obj value: 0.103
# Max RMSD: 0.160
# Mean RMSD: 0.105
data_MOF--net-ant--node1-MIDCAF_clean_sbu_0--node2-KAKCAD_clean_linker_0--edge1-none
_symmetry_space_group_name_H-M    P1
_symmetry_Int_Tables_number       1
_symmetry_cell_setting            triclinic
loop_
_symmetry_equiv_pos_as_xyz
'x, y, z'
_cell_length_a     18.571944
_cell_length_b     18.573592
_cell_length_c     51.975216
_cell_angle_alpha  90.754158
_cell_angle_beta   93.878614
_cell_angle_gamma 90.201103
loop_
_atom_site_label
_atom_site_type_symbol
_atom_site_fract_x
_atom_site_fract_y
_atom_site_fract_z
_atom_type_partial_charge
C0 C 0.0923 0.25306 0.96248 0.0
C1 C 0.12899 0.21433 0.94414 0.0
C2 C 0.11814 0.2545 0.98826 0.0
C3 C 0.18213 0.21841 -0.00392 0.0
C4 C 0.21484 0.1739 0.97812 0.0
C5 C 0.18815 0.17167 0.95226 0.0
C6 C 0.21711 0.23186 0.02227 0.0
C7 C 0.24795 0.17519 0.03671 0.0
C8 C 0.27771 0.18707 0.06202 0.0
C9 C 0.27787 0.25715 0.07255 0.0
C10 C 0.24656 0.31464 0.05846 0.0
C11 C 0.21745 0.30158 0.03322 0.0
C12 C 0.23896 0.38671 0.07085 0.0
C13 C 0.22066 0.39159 0.09659 0.0
C14 C 0.24841 0.4508 0.05721 0.0
C15 C 0.24227 0.5181 0.06942 0.0
C16 C 0.22699 0.52232 0.09549 0.0
C17 C 0.29596 0.12431 0.07862 0.0
C18 C 0.32927 0.06305 0.06858 0.0
C19 C 0.26664 0.11985 0.10278 0.0
C20 C 0.2606 0.05333 0.11457 0.0
C21 C 0.28411 0.99054 0.10249 0.0
C22 C 0.32371 0.9964 0.08058 0.0
C23 C 0.21514 0.4584 0.10876 0.0
H24 H 0.04669 0.28661 0.95652 0.0
H25 H 0.09015 0.28716 0.00179 0.0
H26 H 0.264 0.1451 0.98358 0.0
H27 H 0.21788 0.1424 0.93828 0.0
H28 H 0.24437 0.12091 0.02881 0.0
H29 H 0.19308 0.34553 0.02229 0.0
H30 H 0.30059 0.2664 0.09207 0.0
H31 H 0.21065 0.34364 0.10746 0.0
H32 H 0.26261 0.44897 0.03735 0.0
H33 H 0.25267 0.56643 0.05884 0.0
H34 H 0.35345 0.06528 0.05022 0.0
H35 H 0.24057 0.16583 0.11112 0.0
H36 H 0.20259 0.45991 0.12882 0.0
H37 H 0.34186 0.94852 0.07083 0.0
H38 H 0.22958 0.04983 0.13145 0.0
C39 C 0.09914 0.74513 0.21389 0.0
C40 C 0.13109 0.78791 0.19575 0.0
C41 C 0.07294 0.77685 0.23592 0.0
C42 C 0.08019 0.8514 0.2403 0.0
C43 C 0.10927 0.8944 0.22157 0.0
C44 C 0.13426 0.86284 0.19937 0.0
C45 C 0.07178 0.8812 0.26634 0.0
C46 C 0.13382 0.90462 0.28092 0.0
C47 C 0.13201 0.91975 0.30737 0.0
C48 C 0.06591 0.91542 0.31882 0.0
C49 C 1.00269 0.89332 0.3043 0.0
C50 C 0.00619 0.87583 0.278 0.0
C51 C 0.93465 0.8828 0.31713 0.0
C52 C 0.93585 0.8495 0.34127 0.0
C53 C 0.86835 0.90624 0.30557 0.0
C54 C 0.80486 0.89815 0.31828 0.0
C55 C 0.8065 0.86562 0.3425 0.0
C56 C 0.20126 0.92405 0.3233 0.0
C57 C 0.21359 0.87548 0.34362 0.0
C58 C 0.26003 0.96287 0.31469 0.0
C59 C 0.33055 0.94632 0.32381 0.0
C60 C 0.34276 0.89079 0.34155 0.0
C61 C 0.28398 0.8585 0.3525 0.0
C62 C 0.87249 0.84128 0.35386 0.0
H63 H 0.09714 0.6871 0.21151 0.0
H64 H 0.05198 0.74263 0.25042 0.0
H65 H 0.1163 0.95181 0.22482 0.0
H66 H 0.15984 0.89652 0.18572 0.0
H67 H 0.18515 0.90404 0.27212 0.0
H68 H 0.95888 0.85512 0.2669 0.0
H69 H 0.06438 0.92681 0.33929 0.0
H70 H 0.98585 0.82959 0.35045 0.0
H71 H 0.86592 0.93274 0.28709 0.0
H72 H 0.75521 0.92011 0.30973 0.0
H73 H 0.1696 0.84432 0.35054 0.0
H74 H 0.2519 1.00087 0.29913 0.0
H75 H 0.87513 0.81602 0.37258 0.0
H76 H 0.29252 0.81478 0.36596 0.0
H77 H 0.37538 0.97109 0.3149 0.0
C78 C 0.55934 0.72447 0.45821 0.0
C79 C 0.60593 0.71405 0.43843 0.0
C80 C 0.57724 0.69731 0.48264 0.0
C81 C 0.64267 0.66077 0.4876 0.0
C82 C 0.68408 0.64179 0.46697 0.0
C83 C 0.6656 0.66841 0.44235 0.0
C84 C 0.67601 0.66138 0.51416 0.0
C85 C 0.69631 0.598 0.52699 0.0
C86 C 0.72619 0.60072 0.55273 0.0
C87 C 0.73633 0.66905 0.56495 0.0
C88 C 0.71501 0.73271 0.5522 0.0
C89 C 0.68619 0.72807 0.52675 0.0
C90 C 0.71284 0.80318 0.56606 0.0
C91 C 0.68038 0.80737 0.58959 0.0
C92 C 0.73372 0.86753 0.55445 0.0
C93 C 0.72073 0.9347 0.56592 0.0
C94 C 0.68551 0.93868 0.58897 0.0
C95 C 0.73943 0.53251 0.5675 0.0
C96 C 0.75502 0.467 0.55496 0.0
C97 C 0.73046 0.53102 0.59417 0.0
C98 C 0.7328 0.46628 0.60748 0.0
C99 C 0.74197 0.40035 0.59449 0.0
C100 C 0.75546 0.40164 0.56822 0.0
C101 C 0.66655 0.87409 0.6008 0.0
H102 H 0.51335 0.76 0.45552 0.0
H103 H 0.54442 0.71217 0.49832 0.0
H104 H 0.73486 0.61388 0.47046 0.0
H105 H 0.7025 0.66058 0.42728 0.0
H106 H 0.68524 0.54697 0.51719 0.0
H107 H 0.66875 0.77673 0.51686 0.0
H108 H 0.75961 0.67332 0.58457 0.0
H109 H 0.66262 0.75906 0.5988 0.0
H110 H 0.75884 0.86586 0.53624 0.0
H111 H 0.73682 0.98331 0.55652 0.0
H112 H 0.76462 0.46554 0.53465 0.0
H113 H 0.71724 0.57912 0.60477 0.0
H114 H 0.6403 0.87478 0.61879 0.0
H115 H 0.76315 0.35197 0.55763 0.0
H116 H 0.72244 0.46779 0.62774 0.0
C117 C 0.67537 0.20768 0.71935 0.0
C118 C 0.64366 0.23428 0.69619 0.0
C119 C 0.66131 0.23966 0.74276 0.0
C120 C 0.61416 0.29833 0.74359 0.0
C121 C 0.58393 0.3269 0.72043 0.0
C122 C 0.59967 0.29565 0.69671 0.0
C123 C 0.59479 0.32483 0.76909 0.0
C124 C 0.65065 0.34335 0.78745 0.0
C125 C 0.63938 0.34552 0.81386 0.0
C126 C 0.5691 0.33278 0.82157 0.0
C127 C 0.51149 0.31602 0.80322 0.0
C128 C 0.52488 0.31337 0.77691 0.0
C129 C 0.43993 0.29257 0.81168 0.0
C130 C 0.43647 0.24491 0.83233 0.0
C131 C 0.37481 0.31709 0.79935 0.0
C132 C 0.30806 0.29828 0.80869 0.0
C133 C 0.3053 0.25369 0.83023 0.0
C134 C 0.70408 0.34388 0.83259 0.0
C135 C 0.70893 0.29026 0.85143 0.0
C136 C 0.76718 0.38288 0.82789 0.0
C137 C 0.83482 0.3611 0.83868 0.0
C138 C 0.84008 0.30018 0.85436 0.0
C139 C 0.77624 0.26871 0.86219 0.0
C140 C 0.37012 0.22589 0.84148 0.0
H141 H 0.70933 0.16031 0.7194 0.0
H142 H 0.68487 0.21639 0.76038 0.0
H143 H 0.54743 0.3722 0.72074 0.0
H144 H 0.57457 0.31705 0.67907 0.0
H145 H 0.70498 0.34782 0.78117 0.0
H146 H 0.48268 0.29546 0.76281 0.0
H147 H 0.55991 0.33289 0.84193 0.0
H148 H 0.48532 0.2234 0.84183 0.0
H149 H 0.37568 0.35375 0.78334 0.0
H150 H 0.25937 0.32292 0.80031 0.0
H151 H 0.66194 0.25906 0.85569 0.0
H152 H 0.7651 0.42562 0.81388 0.0
H153 H 0.36969 0.19223 0.85835 0.0
H154 H 0.77865 0.22215 0.87456 0.0
H155 H 0.88301 0.38676 0.83244 0.0
C156 C 0.12418 0.65541 0.02544 0.0
C157 C 0.18762 0.69348 0.03308 0.0
C158 C 0.10103 0.65043 -0.00074 0.0
C159 C 0.14148 0.68334 0.98074 0.0
C160 C 0.20986 0.71187 0.98827 0.0
C161 C 0.23271 0.71698 0.0143 0.0
C162 C 0.10836 0.69881 0.95474 0.0
C163 C 0.10936 0.7697 0.94566 0.0
C164 C 0.08039 0.78615 0.92088 0.0
C165 C 0.04945 0.73029 0.9051 0.0
C166 C 0.04799 0.6589 0.91387 0.0
C167 C 0.07666 0.64399 0.939 0.0
C168 C 0.02671 0.59822 0.89592 0.0
C169 C 0.05392 0.59542 0.87134 0.0
C170 C 0.99043 0.53741 0.90461 0.0
C171 C 0.99009 0.47244 0.8906 0.0
C172 C 0.02695 0.46733 0.86794 0.0
C173 C 0.08563 0.86082 0.91104 0.0
C174 C 0.07151 0.92147 0.92657 0.0
C175 C 0.10409 0.87175 0.88567 0.0
C176 C 0.10325 0.94065 0.87542 0.0
C177 C 0.08445 1.00058 0.89028 0.0
C178 C 0.07099 0.99105 0.91624 0.0
C179 C 0.05408 0.53049 0.8575 0.0
H180 H 0.08821 0.63778 0.03969 0.0
H181 H 0.04832 0.62764 -0.00617 0.0
H182 H 0.24269 0.73613 0.97423 0.0
H183 H 0.28165 0.74689 0.01985 0.0
H184 H 0.13408 0.81206 0.95784 0.0
H185 H 0.07824 0.58911 0.94585 0.0
H186 H 0.02711 0.74213 0.88582 0.0
H187 H 0.08205 0.64114 0.86398 0.0
H188 H 0.9676 0.53842 0.92325 0.0
H189 H 0.96884 0.42458 0.89914 0.0
H190 H 0.05737 0.91484 0.94627 0.0
H191 H 0.11746 0.82674 0.87344 0.0
H192 H 0.08276 0.52797 0.84004 0.0
H193 H 0.05528 0.03634 0.92793 0.0
H194 H 0.11388 0.94672 0.85531 0.0
C195 C 0.645 0.90005 0.27116 0.0
C196 C 0.65896 0.83114 0.28091 0.0
C197 C 0.67021 0.91951 0.24754 0.0
C198 C 0.70977 0.87023 0.23349 0.0
C199 C 0.729 0.8036 0.24443 0.0
C200 C 0.70296 0.78383 0.26793 0.0
C201 C 0.71685 0.88094 0.2057 0.0
C202 C 0.78242 0.86819 0.19464 0.0
C203 C 0.78499 0.86382 0.16769 0.0
C204 C 0.72097 0.87208 0.15194 0.0
C205 C 0.65497 0.8833 0.16287 0.0
C206 C 0.65381 0.89025 0.1897 0.0
C207 C 0.58612 0.86967 0.14759 0.0
C208 C 0.52578 0.9138 0.1506 0.0
C209 C 0.57667 0.80324 0.13457 0.0
C210 C 0.50754 0.77763 0.12747 0.0
C211 C 0.44701 0.81879 0.13265 0.0
C212 C 0.85314 0.84461 0.15607 0.0
C213 C 0.91906 0.87509 0.1657 0.0
C214 C 0.85262 0.79587 0.1351 0.0
C215 C 0.91623 0.77988 0.12348 0.0
C216 C 0.98162 0.81124 0.13291 0.0
C217 C 0.98272 0.8586 0.15414 0.0
C218 C 0.4564 0.88873 0.14286 0.0
H219 H 0.61041 0.93683 0.28091 0.0
H220 H 0.6545 0.97094 0.23937 0.0
H221 H 0.75857 0.76434 0.23377 0.0
H222 H 0.7134 0.73015 0.27514 0.0
H223 H 0.83045 0.85793 0.20706 0.0
H224 H 0.60235 0.89467 0.1983 0.0
H225 H 0.7216 0.86648 0.13118 0.0
H226 H 0.53189 0.96512 0.16067 0.0
H227 H 0.62208 0.76781 0.13225 0.0
H228 H 0.50114 0.72345 0.11962 0.0
H229 H 0.92112 0.91347 0.18161 0.0
H230 H 0.80302 0.7701 0.1276 0.0
H231 H 0.41009 0.92102 0.14712 0.0
H232 H 0.03208 0.88574 0.16091 0.0
H233 H 0.9143 0.74339 0.107 0.0
C234 C 0.5332 0.34581 0.5293 0.0
C235 C 0.57729 0.28887 0.53842 0.0
C236 C 0.51592 0.35354 0.50293 0.0
C237 C 0.54194 0.30425 0.48513 0.0
C238 C 0.58737 0.24829 0.49417 0.0
C239 C 0.60503 0.24078 0.52055 0.0
C240 C 0.52082 0.3104 0.45724 0.0
C241 C 0.52448 0.37703 0.44495 0.0
C242 C 0.50807 0.38239 0.41825 0.0
C243 C 0.48633 0.32005 0.40401 0.0
C244 C 0.48363 0.25279 0.41593 0.0
C245 C 0.50005 0.24881 0.44264 0.0
C246 C 0.476 0.18522 0.40032 0.0
C247 C 0.51697 0.17656 0.37873 0.0
C248 C 0.43997 0.12486 0.40951 0.0
C249 C 0.45273 0.056 0.39956 0.0
C250 C 0.50159 0.04702 0.38039 0.0
C251 C 0.51809 0.45182 0.40494 0.0
C252 C 0.50038 0.5179 0.41648 0.0
C253 C 0.54593 0.45238 0.38043 0.0
C254 C 0.55328 0.51682 0.36741 0.0
C255 C 0.53441 0.58239 0.37875 0.0
C256 C 0.50863 0.58264 0.4035 0.0
C257 C 0.52991 0.10791 0.36895 0.0
H258 H 0.5112 0.38405 0.54256 0.0
H259 H 0.48072 0.39706 0.49649 0.0
H260 H 0.60924 0.21022 0.48082 0.0
H261 H 0.63937 0.19657 0.52694 0.0
H262 H 0.54353 0.42398 0.45604 0.0
H263 H 0.49956 0.19705 0.45202 0.0
H264 H 0.47309 0.32333 0.38343 0.0
H265 H 0.54573 0.22163 0.37119 0.0
H266 H 0.40708 0.1301 0.42586 0.0
H267 H 0.4311 0.00954 0.40886 0.0
H268 H 0.4782 0.51951 0.43522 0.0
H269 H 0.56215 0.40295 0.37122 0.0
H270 H 0.56852 0.1019 0.35434 0.0
H271 H 0.49183 0.63241 0.41231 0.0
H272 H 0.57348 0.51536 0.34833 0.0
C273 C 0.16046 0.18895 0.7673 0.0
C274 C 0.10316 0.15318 0.77793 0.0
C275 C 0.18117 0.16895 0.74278 0.0
C276 C 0.14524 0.11234 0.7288 0.0
C277 C 0.09097 0.0741 0.74028 0.0
C278 C 0.06986 0.09459 0.76443 0.0
C279 C 0.15882 0.0975 0.70146 0.0
C280 C 0.22863 0.09853 0.6931 0.0
C281 C 0.24081 0.09499 0.66662 0.0
C282 C 0.18114 0.08466 0.64846 0.0
C283 C 0.11088 0.07932 0.657 0.0
C284 C 0.1006 0.08706 0.68332 0.0
C285 C 0.04487 0.07042 0.63957 0.0
C286 C 0.01573 0.13011 0.62622 0.0
C287 C 0.9999 0.01111 0.64345 0.0
C288 C 0.92569 0.01516 0.6373 0.0
C289 C 0.89523 0.07799 0.62662 0.0
C290 C 0.31503 0.11019 0.65867 0.0
C291 C 0.35721 0.16241 0.67258 0.0
C292 C 0.34437 0.07518 0.63754 0.0
C293 C 0.41366 0.09384 0.63022 0.0
C294 C 0.45398 0.14784 0.64392 0.0
C295 C 0.42564 0.18009 0.66556 0.0
C296 C 0.9412 0.13362 0.61957 0.0
H297 H 0.18687 0.23404 0.77738 0.0
H298 H 0.22296 0.19979 0.73433 0.0
H299 H 0.06342 0.02929 0.73029 0.0
H300 H 0.02664 0.06469 0.77244 0.0
H301 H 0.27363 0.10414 0.70739 0.0
H302 H 0.04602 0.0876 0.68957 0.0
H303 H 0.18883 0.08276 0.62799 0.0
H304 H 0.04898 0.17707 0.62349 0.0
H305 H 0.02091 0.96491 0.65399 0.0
H306 H 0.89141 0.97145 0.64282 0.0
H307 H 0.33654 0.19218 0.68853 0.0
H308 H 0.31353 0.03437 0.62651 0.0
H309 H 0.91885 0.18285 0.6115 0.0
H310 H 0.45525 0.22197 0.67652 0.0
H311 H 0.43401 0.06883 0.61324 0.0
Zn312 Zn 0.27507 0.68283 0.15053 0.0
Zn313 Zn 0.14307 0.83263 0.08887 0.0
Zn314 Zn 0.21319 0.76329 0.11575 0.0
C315 C 0.19186 0.73223 0.05781 0.0
C316 C 0.24476 0.92348 0.10643 0.0
O317 O 0.15697 0.77455 0.1516 0.0
O318 O 0.22275 0.71398 0.18102 0.0
C319 C 0.23093 0.59125 0.11005 0.0
O320 O 0.19192 0.70059 0.07968 0.0
O321 O 0.18555 0.7997 0.05697 0.0
O322 O 0.17683 0.92642 0.10413 0.0
O323 O 0.27557 0.86146 0.10742 0.0
O324 O 0.24997 0.58934 0.13381 0.0
O325 O 0.21863 0.65224 0.09905 0.0
O326 O 0.31996 0.81119 0.12142 0.0
O327 O 0.37229 0.72512 0.14488 0.0
C328 C 0.37658 0.78302 0.13253 0.0
O329 O 0.10929 0.79468 0.13145 0.0
O330 O 0.04289 0.80212 0.09483 0.0
C331 C 0.17029 0.7549 0.17511 0.0
C332 C 0.04702 0.80027 0.11912 0.0
Zn333 Zn 0.504 0.7414 0.32462 0.0
Zn334 Zn 0.65051 0.88525 0.39387 0.0
Zn335 Zn 0.57272 0.8214 0.36053 0.0
C336 C 0.54203 0.97973 0.37907 0.0
C337 C 0.74115 0.86115 0.35693 0.0
O338 O 0.55469 0.70966 0.37438 0.0
O339 O 0.51656 0.64537 0.33992 0.0
C340 C 0.41092 0.85141 0.34201 0.0
O341 O 0.5136 0.92078 0.36983 0.0
O342 O 0.60651 0.98076 0.38837 0.0
O343 O 0.74705 0.86988 0.38106 0.0
O344 O 0.67856 0.84904 0.34534 0.0
O345 O 0.41162 0.79319 0.32917 0.0
O346 O 0.46857 0.87554 0.35429 0.0
O347 O 0.63065 0.82679 0.32499 0.0
O348 O 0.56157 0.76707 0.29545 0.0
C349 C 0.61665 0.80503 0.30155 0.0
O350 O 0.5893 0.75064 0.39425 0.0
O351 O 0.62611 0.83035 0.42426 0.0
C352 C 0.53572 0.6488 0.36365 0.0
C353 C 0.60571 0.76736 0.41802 0.0
Zn354 Zn 0.59437 0.30778 0.61948 0.0
Zn355 Zn 0.67915 0.08106 0.64444 0.0
Zn356 Zn 0.67434 0.17623 0.61089 0.0
C357 C 0.81713 0.09079 0.62818 0.0
C358 C 0.66985 0.00852 0.6016 0.0
O359 O 0.56643 0.14535 0.62269 0.0
O360 O 0.5267 0.24831 0.63815 0.0
C361 C 0.7256 0.33193 0.60751 0.0
O362 O 0.77831 0.11917 0.60968 0.0
O363 O 0.78779 0.07354 0.64845 0.0
O364 O 0.63137 0.00785 0.62079 0.0
O365 O 0.70212 0.06737 0.59621 0.0
O366 O 0.69896 0.3367 0.62926 0.0
O367 O 0.71307 0.27419 0.59414 0.0
O368 O 0.63888 0.23222 0.57493 0.0
O369 O 0.56029 0.31787 0.58216 0.0
C370 C 0.5919 0.2785 0.56643 0.0
O371 O 0.66673 0.21667 0.6514 0.0
O372 O 0.63702 0.12343 0.67433 0.0
C373 C 0.51871 0.18132 0.63407 0.0
C374 C 0.64913 0.1901 0.67278 0.0
Zn375 Zn 0.9916 0.15196 0.8427 0.0
Zn376 Zn 0.15625 0.30998 0.87666 0.0
Zn377 Zn 0.07904 0.23025 0.8594 0.0
C378 C 0.11915 0.23597 0.91717 0.0
C379 C 0.0583 0.39769 0.86075 0.0
O380 O 0.11674 0.2007 0.82154 0.0
O381 O 0.01019 0.16137 0.80608 0.0
C382 C 0.06398 0.06699 0.87651 0.0
O383 O 0.11112 0.1905 0.89828 0.0
O384 O 0.1266 0.30189 0.91247 0.0
O385 O 0.12481 0.39735 0.85724 0.0
O386 O 0.02686 0.33721 0.86473 0.0
O387 O 0.02443 0.05963 0.85604 0.0
O388 O 0.08495 0.13061 0.88411 0.0
O389 O 0.97082 0.28626 0.85609 0.0
O390 O 0.9013 0.19018 0.85507 0.0
C391 C 0.90748 0.25769 0.85662 0.0
O392 O 0.17544 0.2424 0.83505 0.0
O393 O 0.24931 0.2673 0.86885 0.0
C394 C 0.07541 0.17536 0.80269 0.0
C395 C 0.24042 0.25141 0.84521 0.0
loop_
_geom_bond_atom_site_label_1
_geom_bond_atom_site_label_2
_geom_bond_distance
_geom_bond_site_symmetry_2
_ccdc_geom_bond_type
C0 C1 1.386 . S
C0 C2 1.397 . S
C0 H24 0.931 . S
C1 C0 1.386 . S
C1 C5 1.397 . S
C2 C0 1.397 . S
C2 C3 1.384 1_556 S
C2 H25 0.930 1_556 S
C3 C2 1.384 1_554 S
C3 C4 1.377 1_554 S
C3 C6 1.481 . S
C4 C3 1.377 1_556 S
C4 C5 1.389 . S
C4 H26 0.929 1_556 S
C5 C1 1.397 . S
C5 C4 1.389 . S
C5 H27 0.931 . S
C6 C3 1.481 . S
C6 C7 1.387 . S
C6 C11 1.390 . S
C7 C6 1.387 . S
C7 C8 1.401 . S
C7 H28 0.930 . S
C8 C7 1.401 . S
C8 C9 1.376 . S
C8 C17 1.511 . S
C9 C8 1.376 . S
C9 C10 1.392 . S
C9 H30 0.931 . S
C10 C9 1.392 . S
C10 C11 1.361 . S
C10 C12 1.500 . S
C11 C6 1.390 . S
C11 C10 1.361 . S
C11 H29 0.931 . S
C12 C10 1.500 . S
C12 C13 1.371 . S
C12 C14 1.365 . S
C13 C12 1.371 . S
C13 C23 1.386 . S
C13 H31 0.931 . S
C14 C12 1.365 . S
C14 C15 1.409 . S
C14 H32 0.929 . S
C15 C14 1.409 . S
C15 C16 1.380 . S
C15 H33 0.930 . S
C16 C15 1.380 . S
C16 C23 1.357 . S
C17 C8 1.511 . S
C17 C18 1.341 . S
C17 C19 1.371 . S
C18 C17 1.341 . S
C18 C22 1.394 1_545 S
C18 H34 0.930 . S
C19 C17 1.371 . S
C19 C20 1.392 . S
C19 H35 0.931 . S
C20 C19 1.392 . S
C20 C21 1.331 1_545 S
C20 H38 0.932 . S
C21 C20 1.331 1_565 S
C21 C22 1.336 . S
C22 C18 1.394 1_565 S
C22 C21 1.336 . S
C22 H37 0.929 . S
C23 C13 1.386 . S
C23 C16 1.357 . S
C23 H36 0.928 . S
H24 C0 0.931 . S
H25 C2 0.930 1_554 S
H26 C4 0.929 1_554 S
H27 C5 0.931 . S
H28 C7 0.930 . S
H29 C11 0.931 . S
H30 C9 0.931 . S
H31 C13 0.931 . S
H32 C14 0.929 . S
H33 C15 0.930 . S
H34 C18 0.930 . S
H35 C19 0.931 . S
H36 C23 0.928 . S
H37 C22 0.929 . S
H38 C20 0.932 . S
C39 C40 1.386 . S
C39 C41 1.397 . S
C39 H63 0.931 . S
C40 C39 1.386 . S
C40 C44 1.397 . S
C41 C39 1.397 . S
C41 C42 1.384 . S
C41 H64 0.930 . S
C42 C41 1.384 . S
C42 C43 1.377 . S
C42 C45 1.481 . S
C43 C42 1.377 . S
C43 C44 1.389 . S
C43 H65 0.929 . S
C44 C40 1.397 . S
C44 C43 1.389 . S
C44 H66 0.931 . S
C45 C42 1.481 . S
C45 C46 1.387 . S
C45 C50 1.390 . S
C46 C45 1.387 . S
C46 C47 1.401 . S
C46 H67 0.930 . S
C47 C46 1.401 . S
C47 C48 1.376 . S
C47 C56 1.511 . S
C48 C47 1.376 . S
C48 C49 1.392 . S
C48 H69 0.931 . S
C49 C48 1.392 . S
C49 C50 1.361 . S
C49 C51 1.500 1_455 S
C50 C45 1.390 . S
C50 C49 1.361 . S
C50 H68 0.931 . S
C51 C49 1.500 1_655 S
C51 C52 1.371 . S
C51 C53 1.365 . S
C52 C51 1.371 . S
C52 C62 1.386 . S
C52 H70 0.931 1_655 S
C53 C51 1.365 . S
C53 C54 1.409 . S
C53 H71 0.929 . S
C54 C53 1.409 . S
C54 C55 1.380 . S
C54 H72 0.930 . S
C55 C54 1.380 . S
C55 C62 1.357 . S
C56 C47 1.511 . S
C56 C57 1.341 . S
C56 C58 1.371 . S
C57 C56 1.341 . S
C57 C61 1.394 . S
C57 H73 0.930 . S
C58 C56 1.371 . S
C58 C59 1.392 . S
C58 H74 0.931 . S
C59 C58 1.392 . S
C59 C60 1.331 . S
C59 H77 0.932 . S
C60 C59 1.331 . S
C60 C61 1.336 . S
C61 C57 1.394 . S
C61 C60 1.336 . S
C61 H76 0.929 . S
C62 C52 1.386 . S
C62 C55 1.357 . S
C62 H75 0.928 . S
H63 C39 0.931 . S
H64 C41 0.930 . S
H65 C43 0.929 . S
H66 C44 0.931 . S
H67 C46 0.930 . S
H68 C50 0.931 . S
H69 C48 0.931 . S
H70 C52 0.931 1_455 S
H71 C53 0.929 . S
H72 C54 0.930 . S
H73 C57 0.930 . S
H74 C58 0.931 . S
H75 C62 0.928 . S
H76 C61 0.929 . S
H77 C59 0.932 . S
C78 C79 1.386 . S
C78 C80 1.397 . S
C78 H102 0.931 . S
C79 C78 1.386 . S
C79 C83 1.397 . S
C80 C78 1.397 . S
C80 C81 1.384 . S
C80 H103 0.930 . S
C81 C80 1.384 . S
C81 C82 1.377 . S
C81 C84 1.481 . S
C82 C81 1.377 . S
C82 C83 1.389 . S
C82 H104 0.929 . S
C83 C79 1.397 . S
C83 C82 1.389 . S
C83 H105 0.931 . S
C84 C81 1.481 . S
C84 C85 1.387 . S
C84 C89 1.390 . S
C85 C84 1.387 . S
C85 C86 1.401 . S
C85 H106 0.930 . S
C86 C85 1.401 . S
C86 C87 1.376 . S
C86 C95 1.511 . S
C87 C86 1.376 . S
C87 C88 1.392 . S
C87 H108 0.931 . S
C88 C87 1.392 . S
C88 C89 1.361 . S
C88 C90 1.500 . S
C89 C84 1.390 . S
C89 C88 1.361 . S
C89 H107 0.931 . S
C90 C88 1.500 . S
C90 C91 1.371 . S
C90 C92 1.365 . S
C91 C90 1.371 . S
C91 C101 1.386 . S
C91 H109 0.931 . S
C92 C90 1.365 . S
C92 C93 1.409 . S
C92 H110 0.929 . S
C93 C92 1.409 . S
C93 C94 1.380 . S
C93 H111 0.930 1_565 S
C94 C93 1.380 . S
C94 C101 1.357 . S
C95 C86 1.511 . S
C95 C96 1.341 . S
C95 C97 1.371 . S
C96 C95 1.341 . S
C96 C100 1.394 . S
C96 H112 0.930 . S
C97 C95 1.371 . S
C97 C98 1.392 . S
C97 H113 0.931 . S
C98 C97 1.392 . S
C98 C99 1.331 . S
C98 H116 0.932 . S
C99 C98 1.331 . S
C99 C100 1.336 . S
C100 C96 1.394 . S
C100 C99 1.336 . S
C100 H115 0.929 . S
C101 C91 1.386 . S
C101 C94 1.357 . S
C101 H114 0.928 . S
H102 C78 0.931 . S
H103 C80 0.930 . S
H104 C82 0.929 . S
H105 C83 0.931 . S
H106 C85 0.930 . S
H107 C89 0.931 . S
H108 C87 0.931 . S
H109 C91 0.931 . S
H110 C92 0.929 . S
H111 C93 0.930 1_545 S
H112 C96 0.930 . S
H113 C97 0.931 . S
H114 C101 0.928 . S
H115 C100 0.929 . S
H116 C98 0.932 . S
C117 C118 1.386 . S
C117 C119 1.397 . S
C117 H141 0.931 . S
C118 C117 1.386 . S
C118 C122 1.397 . S
C119 C117 1.397 . S
C119 C120 1.384 . S
C119 H142 0.930 . S
C120 C119 1.384 . S
C120 C121 1.377 . S
C120 C123 1.481 . S
C121 C120 1.377 . S
C121 C122 1.389 . S
C121 H143 0.929 . S
C122 C118 1.397 . S
C122 C121 1.389 . S
C122 H144 0.931 . S
C123 C120 1.481 . S
C123 C124 1.387 . S
C123 C128 1.390 . S
C124 C123 1.387 . S
C124 C125 1.401 . S
C124 H145 0.930 . S
C125 C124 1.401 . S
C125 C126 1.376 . S
C125 C134 1.511 . S
C126 C125 1.376 . S
C126 C127 1.392 . S
C126 H147 0.931 . S
C127 C126 1.392 . S
C127 C128 1.361 . S
C127 C129 1.500 . S
C128 C123 1.390 . S
C128 C127 1.361 . S
C128 H146 0.931 . S
C129 C127 1.500 . S
C129 C130 1.371 . S
C129 C131 1.365 . S
C130 C129 1.371 . S
C130 C140 1.386 . S
C130 H148 0.931 . S
C131 C129 1.365 . S
C131 C132 1.409 . S
C131 H149 0.929 . S
C132 C131 1.409 . S
C132 C133 1.380 . S
C132 H150 0.930 . S
C133 C132 1.380 . S
C133 C140 1.357 . S
C134 C125 1.511 . S
C134 C135 1.341 . S
C134 C136 1.371 . S
C135 C134 1.341 . S
C135 C139 1.394 . S
C135 H151 0.930 . S
C136 C134 1.371 . S
C136 C137 1.392 . S
C136 H152 0.931 . S
C137 C136 1.392 . S
C137 C138 1.331 . S
C137 H155 0.932 . S
C138 C137 1.331 . S
C138 C139 1.336 . S
C139 C135 1.394 . S
C139 C138 1.336 . S
C139 H154 0.929 . S
C140 C130 1.386 . S
C140 C133 1.357 . S
C140 H153 0.928 . S
H141 C117 0.931 . S
H142 C119 0.930 . S
H143 C121 0.929 . S
H144 C122 0.931 . S
H145 C124 0.930 . S
H146 C128 0.931 . S
H147 C126 0.931 . S
H148 C130 0.931 . S
H149 C131 0.929 . S
H150 C132 0.930 . S
H151 C135 0.930 . S
H152 C136 0.931 . S
H153 C140 0.928 . S
H154 C139 0.929 . S
H155 C137 0.932 . S
C156 C157 1.386 . S
C156 C158 1.397 1_554 S
C156 H180 0.931 1_455 S
C157 C156 1.386 . S
C157 C161 1.397 . S
C158 C156 1.397 1_556 S
C158 C159 1.384 . S
C158 H181 0.930 1_455 S
C159 C158 1.384 . S
C159 C160 1.385 . S
C159 C162 1.481 . S
C160 C159 1.385 . S
C160 C161 1.374 1_556 S
C160 H182 0.937 . S
C161 C157 1.397 . S
C161 C160 1.374 1_554 S
C161 H183 0.931 . S
C162 C159 1.481 . S
C162 C163 1.387 . S
C162 C167 1.390 . S
C163 C162 1.387 . S
C163 C164 1.401 . S
C163 H184 0.930 . S
C164 C163 1.401 . S
C164 C165 1.376 . S
C164 C173 1.511 . S
C165 C164 1.376 . S
C165 C166 1.392 . S
C165 H186 0.931 . S
C166 C165 1.392 . S
C166 C167 1.361 . S
C166 C168 1.500 . S
C167 C162 1.390 . S
C167 C166 1.361 . S
C167 H185 0.931 . S
C168 C166 1.500 . S
C168 C169 1.371 . S
C168 C170 1.365 . S
C169 C168 1.371 . S
C169 C179 1.386 . S
C169 H187 0.931 1_455 S
C170 C168 1.365 . S
C170 C171 1.409 . S
C170 H188 0.929 . S
C171 C170 1.409 . S
C171 C172 1.380 . S
C171 H189 0.930 . S
C172 C171 1.380 . S
C172 C179 1.357 . S
C173 C164 1.511 . S
C173 C174 1.341 . S
C173 C175 1.371 . S
C174 C173 1.341 . S
C174 C178 1.394 . S
C174 H190 0.930 . S
C175 C173 1.371 . S
C175 C176 1.392 . S
C175 H191 0.931 . S
C176 C175 1.392 . S
C176 C177 1.331 1_565 S
C176 H194 0.932 . S
C177 C176 1.331 1_545 S
C177 C178 1.336 1_545 S
C178 C174 1.394 . S
C178 C177 1.336 1_565 S
C178 H193 0.929 1_565 S
C179 C169 1.386 . S
C179 C172 1.357 . S
C179 H192 0.928 1_455 S
H180 C156 0.931 1_655 S
H181 C158 0.930 1_655 S
H182 C160 0.937 . S
H183 C161 0.931 . S
H184 C163 0.930 . S
H185 C167 0.931 . S
H186 C165 0.931 . S
H187 C169 0.931 1_655 S
H188 C170 0.929 . S
H189 C171 0.930 . S
H190 C174 0.930 . S
H191 C175 0.931 . S
H192 C179 0.928 1_655 S
H193 C178 0.929 1_545 S
H194 C176 0.932 . S
C195 C196 1.386 . S
C195 C197 1.397 . S
C195 H219 0.931 . S
C196 C195 1.386 . S
C196 C200 1.397 . S
C197 C195 1.397 . S
C197 C198 1.384 . S
C197 H220 0.930 . S
C198 C197 1.384 . S
C198 C199 1.377 . S
C198 C201 1.481 . S
C199 C198 1.377 . S
C199 C200 1.389 . S
C199 H221 0.929 . S
C200 C196 1.397 . S
C200 C199 1.389 . S
C200 H222 0.931 . S
C201 C198 1.481 . S
C201 C202 1.387 . S
C201 C206 1.390 . S
C202 C201 1.387 . S
C202 C203 1.401 . S
C202 H223 0.930 . S
C203 C202 1.401 . S
C203 C204 1.376 . S
C203 C212 1.511 . S
C204 C203 1.376 . S
C204 C205 1.392 . S
C204 H225 0.931 . S
C205 C204 1.392 . S
C205 C206 1.361 . S
C205 C207 1.500 . S
C206 C201 1.390 . S
C206 C205 1.361 . S
C206 H224 0.931 . S
C207 C205 1.500 . S
C207 C208 1.371 . S
C207 C209 1.365 . S
C208 C207 1.371 . S
C208 C218 1.386 . S
C208 H226 0.931 . S
C209 C207 1.365 . S
C209 C210 1.409 . S
C209 H227 0.929 . S
C210 C209 1.409 . S
C210 C211 1.380 . S
C210 H228 0.930 . S
C211 C210 1.380 . S
C211 C218 1.357 . S
C212 C203 1.511 . S
C212 C213 1.341 . S
C212 C214 1.371 . S
C213 C212 1.341 . S
C213 C217 1.394 . S
C213 H229 0.930 . S
C214 C212 1.371 . S
C214 C215 1.392 . S
C214 H230 0.931 . S
C215 C214 1.392 . S
C215 C216 1.331 . S
C215 H233 0.932 . S
C216 C215 1.331 . S
C216 C217 1.336 . S
C217 C213 1.394 . S
C217 C216 1.336 . S
C217 H232 0.929 . S
C218 C208 1.386 . S
C218 C211 1.357 . S
C218 H231 0.928 . S
H219 C195 0.931 . S
H220 C197 0.930 . S
H221 C199 0.929 . S
H222 C200 0.931 . S
H223 C202 0.930 . S
H224 C206 0.931 . S
H225 C204 0.931 . S
H226 C208 0.931 . S
H227 C209 0.929 . S
H228 C210 0.930 . S
H229 C213 0.930 . S
H230 C214 0.931 . S
H231 C218 0.928 . S
H232 C217 0.929 . S
H233 C215 0.932 . S
C234 C235 1.386 . S
C234 C236 1.397 . S
C234 H258 0.931 . S
C235 C234 1.386 . S
C235 C239 1.397 . S
C236 C234 1.397 . S
C236 C237 1.384 . S
C236 H259 0.930 . S
C237 C236 1.384 . S
C237 C238 1.377 . S
C237 C240 1.481 . S
C238 C237 1.377 . S
C238 C239 1.389 . S
C238 H260 0.929 . S
C239 C235 1.397 . S
C239 C238 1.389 . S
C239 H261 0.931 . S
C240 C237 1.481 . S
C240 C241 1.387 . S
C240 C245 1.390 . S
C241 C240 1.387 . S
C241 C242 1.401 . S
C241 H262 0.930 . S
C242 C241 1.401 . S
C242 C243 1.376 . S
C242 C251 1.511 . S
C243 C242 1.376 . S
C243 C244 1.392 . S
C243 H264 0.931 . S
C244 C243 1.392 . S
C244 C245 1.361 . S
C244 C246 1.500 . S
C245 C240 1.390 . S
C245 C244 1.361 . S
C245 H263 0.931 . S
C246 C244 1.500 . S
C246 C247 1.371 . S
C246 C248 1.365 . S
C247 C246 1.371 . S
C247 C257 1.386 . S
C247 H265 0.931 . S
C248 C246 1.365 . S
C248 C249 1.409 1_545 S
C248 H266 0.929 . S
C249 C248 1.409 1_565 S
C249 C250 1.380 . S
C249 H267 0.930 . S
C250 C249 1.380 . S
C250 C257 1.357 1_565 S
C251 C242 1.511 . S
C251 C252 1.341 . S
C251 C253 1.371 . S
C252 C251 1.341 . S
C252 C256 1.394 . S
C252 H268 0.930 . S
C253 C251 1.371 . S
C253 C254 1.392 . S
C253 H269 0.931 . S
C254 C253 1.392 . S
C254 C255 1.331 . S
C254 H272 0.932 . S
C255 C254 1.331 . S
C255 C256 1.336 . S
C256 C252 1.394 . S
C256 C255 1.336 . S
C256 H271 0.929 . S
C257 C247 1.386 . S
C257 C250 1.357 1_545 S
C257 H270 0.928 . S
H258 C234 0.931 . S
H259 C236 0.930 . S
H260 C238 0.929 . S
H261 C239 0.931 . S
H262 C241 0.930 . S
H263 C245 0.931 . S
H264 C243 0.931 . S
H265 C247 0.931 . S
H266 C248 0.929 . S
H267 C249 0.930 . S
H268 C252 0.930 . S
H269 C253 0.931 . S
H270 C257 0.928 . S
H271 C256 0.929 . S
H272 C254 0.932 . S
C273 C274 1.386 . S
C273 C275 1.397 . S
C273 H297 0.931 . S
C274 C273 1.386 . S
C274 C278 1.397 . S
C275 C273 1.397 . S
C275 C276 1.384 . S
C275 H298 0.930 . S
C276 C275 1.384 . S
C276 C277 1.377 . S
C276 C279 1.481 . S
C277 C276 1.377 . S
C277 C278 1.389 . S
C277 H299 0.929 . S
C278 C274 1.397 . S
C278 C277 1.389 . S
C278 H300 0.931 . S
C279 C276 1.481 . S
C279 C280 1.387 . S
C279 C284 1.390 . S
C280 C279 1.387 . S
C280 C281 1.401 . S
C280 H301 0.930 . S
C281 C280 1.401 . S
C281 C282 1.376 . S
C281 C290 1.511 . S
C282 C281 1.376 . S
C282 C283 1.392 . S
C282 H303 0.931 . S
C283 C282 1.392 . S
C283 C284 1.361 . S
C283 C285 1.500 . S
C284 C279 1.390 . S
C284 C283 1.361 . S
C284 H302 0.931 . S
C285 C283 1.500 . S
C285 C286 1.371 1_455 S
C285 C287 1.365 1_455 S
C286 C285 1.371 1_655 S
C286 C296 1.386 . S
C286 H304 0.931 1_655 S
C287 C285 1.365 1_655 S
C287 C288 1.409 . S
C287 H305 0.929 . S
C288 C287 1.409 . S
C288 C289 1.380 . S
C288 H306 0.930 . S
C289 C288 1.380 . S
C289 C296 1.357 . S
C290 C281 1.511 . S
C290 C291 1.341 . S
C290 C292 1.371 . S
C291 C290 1.341 . S
C291 C295 1.394 . S
C291 H307 0.930 . S
C292 C290 1.371 . S
C292 C293 1.392 . S
C292 H308 0.931 . S
C293 C292 1.392 . S
C293 C294 1.331 . S
C293 H311 0.932 . S
C294 C293 1.331 . S
C294 C295 1.336 . S
C295 C291 1.394 . S
C295 C294 1.336 . S
C295 H310 0.929 . S
C296 C286 1.386 . S
C296 C289 1.357 . S
C296 H309 0.928 . S
H297 C273 0.931 . S
H298 C275 0.930 . S
H299 C277 0.929 . S
H300 C278 0.931 . S
H301 C280 0.930 . S
H302 C284 0.931 . S
H303 C282 0.931 . S
H304 C286 0.931 1_455 S
H305 C287 0.929 . S
H306 C288 0.930 . S
H307 C291 0.930 . S
H308 C292 0.931 . S
H309 C296 0.928 . S
H310 C295 0.929 . S
H311 C293 0.932 . S
Zn312 O318 1.920 . S
Zn312 O324 1.898 . S
Zn312 O327 1.905 . S
Zn313 O321 1.905 . S
Zn313 O322 1.898 . S
Zn313 O330 1.920 1_455 S
Zn314 O317 2.080 . S
Zn314 O320 2.114 . S
Zn314 O323 2.120 . S
Zn314 O325 2.120 . S
Zn314 O326 2.114 . S
Zn314 O329 2.080 . S
C315 O320 1.166 . S
C315 O321 1.182 . S
C316 O322 1.167 . S
C316 O323 1.299 . S
O317 Zn314 2.080 . S
O317 C331 1.305 . S
O318 Zn312 1.920 . S
O318 C331 1.234 . S
C319 O324 1.167 . S
C319 O325 1.299 . S
O320 Zn314 2.114 . S
O320 C315 1.166 . S
O321 Zn313 1.905 . S
O321 C315 1.182 . S
O322 Zn313 1.898 . S
O322 C316 1.167 . S
O323 Zn314 2.120 . S
O323 C316 1.299 . S
O324 Zn312 1.898 . S
O324 C319 1.167 . S
O325 Zn314 2.120 . S
O325 C319 1.299 . S
O326 Zn314 2.114 . S
O326 C328 1.166 . S
O327 Zn312 1.905 . S
O327 C328 1.182 . S
C328 O326 1.166 . S
C328 O327 1.182 . S
O329 Zn314 2.080 . S
O329 C332 1.305 1_455 S
O330 Zn313 1.920 1_655 S
O330 C332 1.234 . S
C331 O317 1.305 . S
C331 O318 1.234 . S
C332 O329 1.305 1_655 S
C332 O330 1.234 . S
Zn333 O339 1.920 . S
Zn333 O345 1.898 . S
Zn333 O348 1.905 . S
Zn334 O342 1.905 . S
Zn334 O343 1.898 . S
Zn334 O351 1.920 . S
Zn335 O338 2.080 . S
Zn335 O341 2.114 . S
Zn335 O344 2.120 . S
Zn335 O346 2.120 . S
Zn335 O347 2.114 . S
Zn335 O350 2.080 . S
C336 O341 1.166 . S
C336 O342 1.182 . S
C337 O343 1.167 . S
C337 O344 1.299 . S
O338 Zn335 2.080 . S
O338 C352 1.305 . S
O339 Zn333 1.920 . S
O339 C352 1.234 . S
C340 O345 1.167 . S
C340 O346 1.299 . S
O341 Zn335 2.114 . S
O341 C336 1.166 . S
O342 Zn334 1.905 . S
O342 C336 1.182 . S
O343 Zn334 1.898 . S
O343 C337 1.167 . S
O344 Zn335 2.120 . S
O344 C337 1.299 . S
O345 Zn333 1.898 . S
O345 C340 1.167 . S
O346 Zn335 2.120 . S
O346 C340 1.299 . S
O347 Zn335 2.114 . S
O347 C349 1.166 . S
O348 Zn333 1.905 . S
O348 C349 1.182 . S
C349 O347 1.166 . S
C349 O348 1.182 . S
O350 Zn335 2.080 . S
O350 C353 1.305 . S
O351 Zn334 1.920 . S
O351 C353 1.234 . S
C352 O338 1.305 . S
C352 O339 1.234 . S
C353 O350 1.305 . S
C353 O351 1.234 . S
Zn354 O360 1.920 . S
Zn354 O366 1.898 . S
Zn354 O369 1.905 . S
Zn355 O363 1.905 . S
Zn355 O364 1.898 . S
Zn355 O372 1.920 . S
Zn356 O359 2.080 . S
Zn356 O362 2.114 . S
Zn356 O365 2.120 . S
Zn356 O367 2.120 . S
Zn356 O368 2.114 . S
Zn356 O371 2.080 . S
C357 O362 1.166 . S
C357 O363 1.182 . S
C358 O364 1.167 . S
C358 O365 1.299 . S
O359 Zn356 2.080 . S
O359 C373 1.305 . S
O360 Zn354 1.920 . S
O360 C373 1.234 . S
C361 O366 1.167 . S
C361 O367 1.299 . S
O362 Zn356 2.114 . S
O362 C357 1.166 . S
O363 Zn355 1.905 . S
O363 C357 1.182 . S
O364 Zn355 1.898 . S
O364 C358 1.167 . S
O365 Zn356 2.120 . S
O365 C358 1.299 . S
O366 Zn354 1.898 . S
O366 C361 1.167 . S
O367 Zn356 2.120 . S
O367 C361 1.299 . S
O368 Zn356 2.114 . S
O368 C370 1.166 . S
O369 Zn354 1.905 . S
O369 C370 1.182 . S
C370 O368 1.166 . S
C370 O369 1.182 . S
O371 Zn356 2.080 . S
O371 C374 1.305 . S
O372 Zn355 1.920 . S
O372 C374 1.234 . S
C373 O359 1.305 . S
C373 O360 1.234 . S
C374 O371 1.305 . S
C374 O372 1.234 . S
Zn375 O381 1.920 . S
Zn375 O387 1.898 . S
Zn375 O390 1.905 1_455 S
Zn376 O384 1.905 . S
Zn376 O385 1.898 . S
Zn376 O393 1.920 . S
Zn377 O380 2.080 . S
Zn377 O383 2.114 . S
Zn377 O386 2.120 . S
Zn377 O388 2.120 . S
Zn377 O389 2.114 . S
Zn377 O392 2.080 . S
C378 O383 1.166 . S
C378 O384 1.182 . S
C379 O385 1.167 . S
C379 O386 1.299 . S
O380 Zn377 2.080 . S
O380 C394 1.305 . S
O381 Zn375 1.920 . S
O381 C394 1.234 . S
C382 O387 1.167 . S
C382 O388 1.299 . S
O383 Zn377 2.114 . S
O383 C378 1.166 . S
O384 Zn376 1.905 . S
O384 C378 1.182 . S
O385 Zn376 1.898 . S
O385 C379 1.167 . S
O386 Zn377 2.120 . S
O386 C379 1.299 . S
O387 Zn375 1.898 . S
O387 C382 1.167 . S
O388 Zn377 2.120 . S
O388 C382 1.299 . S
O389 Zn377 2.114 . S
O389 C391 1.166 1_455 S
O390 Zn375 1.905 1_655 S
O390 C391 1.182 . S
C391 O389 1.166 1_655 S
C391 O390 1.182 . S
O392 Zn377 2.080 . S
O392 C395 1.305 . S
O393 Zn376 1.920 . S
O393 C395 1.234 . S
C394 O380 1.305 . S
C394 O381 1.234 . S
C395 O392 1.305 . S
C395 O393 1.234 . S
C319 C16 1.681 . S
C337 C55 1.322 . S
C99 C361 2.033 . S
C391 C138 1.791 . S
C379 C172 2.021 . S
C216 C332 1.367 . S
C255 C352 1.704 . S
C289 C357 1.761 . S
C294 C373 1.356 . S
C211 C328 1.721 . S
C395 C133 1.368 . S
C340 C60 1.780 . S
C94 C358 1.685 1_565 S
C21 C316 2.031 . S
C336 C250 1.996 . S
C382 C177 1.712 . S
C378 C1 1.325 . S
C331 C40 1.798 . S
C79 C353 1.286 . S
C118 C374 1.767 . S
C315 C157 1.338 . S
C196 C349 1.764 . S
C370 C235 1.337 . S
C394 C274 1.747 . S
