# Generated by pormake.
# Topology eea, (3,6)-cn, num edge types: 1
# Building blocks:
#     Node 0, Type 0, BuildingBlock: BETDAH_clean_linker_0, # of connection points: 3
#     Node 1, Type 0, BuildingBlock: BETDAH_clean_linker_0, # of connection points: 3
#     Node 2, Type 0, BuildingBlock: BETDAH_clean_linker_0, # of connection points: 3
#     Node 3, Type 0, BuildingBlock: BETDAH_clean_linker_0, # of connection points: 3
#     Node 4, Type 0, BuildingBlock: BETDAH_clean_linker_0, # of connection points: 3
#     Node 5, Type 0, BuildingBlock: BETDAH_clean_linker_0, # of connection points: 3
#     Node 6, Type 0, BuildingBlock: BETDAH_clean_linker_0, # of connection points: 3
#     Node 7, Type 0, BuildingBlock: BETDAH_clean_linker_0, # of connection points: 3
#     Node 8, Type 0, BuildingBlock: BETDAH_clean_linker_0, # of connection points: 3
#     Node 9, Type 0, BuildingBlock: BETDAH_clean_linker_0, # of connection points: 3
#     Node 10, Type 0, BuildingBlock: BETDAH_clean_linker_0, # of connection points: 3
#     Node 11, Type 0, BuildingBlock: BETDAH_clean_linker_0, # of connection points: 3
#     Node 12, Type 0, BuildingBlock: BETDAH_clean_linker_0, # of connection points: 3
#     Node 13, Type 0, BuildingBlock: BETDAH_clean_linker_0, # of connection points: 3
#     Node 14, Type 0, BuildingBlock: BETDAH_clean_linker_0, # of connection points: 3
#     Node 15, Type 0, BuildingBlock: BETDAH_clean_linker_0, # of connection points: 3
#     Node 16, Type 0, BuildingBlock: BETDAH_clean_linker_0, # of connection points: 3
#     Node 17, Type 0, BuildingBlock: BETDAH_clean_linker_0, # of connection points: 3
#     Node 18, Type 1, BuildingBlock: CUWYAW_clean_sbu_0, # of connection points: 6
#     Node 19, Type 1, BuildingBlock: CUWYAW_clean_sbu_0, # of connection points: 6
#     Node 20, Type 1, BuildingBlock: CUWYAW_clean_sbu_0, # of connection points: 6
#     Node 21, Type 1, BuildingBlock: CUWYAW_clean_sbu_0, # of connection points: 6
#     Node 22, Type 1, BuildingBlock: CUWYAW_clean_sbu_0, # of connection points: 6
#     Node 23, Type 1, BuildingBlock: CUWYAW_clean_sbu_0, # of connection points: 6
#     Node 24, Type 1, BuildingBlock: CUWYAW_clean_sbu_0, # of connection points: 6
#     Node 25, Type 1, BuildingBlock: CUWYAW_clean_sbu_0, # of connection points: 6
#     Node 26, Type 1, BuildingBlock: CUWYAW_clean_sbu_0, # of connection points: 6
#     Edge 27, Type (0, 1), BuildingBlock: AJUNOK_clean_linker_0, # of connection points: 2
#     Edge 28, Type (0, 1), BuildingBlock: AJUNOK_clean_linker_0, # of connection points: 2
#     Edge 29, Type (0, 1), BuildingBlock: AJUNOK_clean_linker_0, # of connection points: 2
#     Edge 30, Type (0, 1), BuildingBlock: AJUNOK_clean_linker_0, # of connection points: 2
#     Edge 31, Type (0, 1), BuildingBlock: AJUNOK_clean_linker_0, # of connection points: 2
#     Edge 32, Type (0, 1), BuildingBlock: AJUNOK_clean_linker_0, # of connection points: 2
#     Edge 33, Type (0, 1), BuildingBlock: AJUNOK_clean_linker_0, # of connection points: 2
#     Edge 34, Type (0, 1), BuildingBlock: AJUNOK_clean_linker_0, # of connection points: 2
#     Edge 35, Type (0, 1), BuildingBlock: AJUNOK_clean_linker_0, # of connection points: 2
#     Edge 36, Type (0, 1), BuildingBlock: AJUNOK_clean_linker_0, # of connection points: 2
#     Edge 37, Type (0, 1), BuildingBlock: AJUNOK_clean_linker_0, # of connection points: 2
#     Edge 38, Type (0, 1), BuildingBlock: AJUNOK_clean_linker_0, # of connection points: 2
#     Edge 39, Type (0, 1), BuildingBlock: AJUNOK_clean_linker_0, # of connection points: 2
#     Edge 40, Type (0, 1), BuildingBlock: AJUNOK_clean_linker_0, # of connection points: 2
#     Edge 41, Type (0, 1), BuildingBlock: AJUNOK_clean_linker_0, # of connection points: 2
#     Edge 42, Type (0, 1), BuildingBlock: AJUNOK_clean_linker_0, # of connection points: 2
#     Edge 43, Type (0, 1), BuildingBlock: AJUNOK_clean_linker_0, # of connection points: 2
#     Edge 44, Type (0, 1), BuildingBlock: AJUNOK_clean_linker_0, # of connection points: 2
#     Edge 45, Type (0, 1), BuildingBlock: AJUNOK_clean_linker_0, # of connection points: 2
#     Edge 46, Type (0, 1), BuildingBlock: AJUNOK_clean_linker_0, # of connection points: 2
#     Edge 47, Type (0, 1), BuildingBlock: AJUNOK_clean_linker_0, # of connection points: 2
#     Edge 48, Type (0, 1), BuildingBlock: AJUNOK_clean_linker_0, # of connection points: 2
#     Edge 49, Type (0, 1), BuildingBlock: AJUNOK_clean_linker_0, # of connection points: 2
#     Edge 50, Type (0, 1), BuildingBlock: AJUNOK_clean_linker_0, # of connection points: 2
#     Edge 51, Type (0, 1), BuildingBlock: AJUNOK_clean_linker_0, # of connection points: 2
#     Edge 52, Type (0, 1), BuildingBlock: AJUNOK_clean_linker_0, # of connection points: 2
#     Edge 53, Type (0, 1), BuildingBlock: AJUNOK_clean_linker_0, # of connection points: 2
#     Edge 54, Type (0, 1), BuildingBlock: AJUNOK_clean_linker_0, # of connection points: 2
#     Edge 55, Type (0, 1), BuildingBlock: AJUNOK_clean_linker_0, # of connection points: 2
#     Edge 56, Type (0, 1), BuildingBlock: AJUNOK_clean_linker_0, # of connection points: 2
#     Edge 57, Type (0, 1), BuildingBlock: AJUNOK_clean_linker_0, # of connection points: 2
#     Edge 58, Type (0, 1), BuildingBlock: AJUNOK_clean_linker_0, # of connection points: 2
#     Edge 59, Type (0, 1), BuildingBlock: AJUNOK_clean_linker_0, # of connection points: 2
#     Edge 60, Type (0, 1), BuildingBlock: AJUNOK_clean_linker_0, # of connection points: 2
#     Edge 61, Type (0, 1), BuildingBlock: AJUNOK_clean_linker_0, # of connection points: 2
#     Edge 62, Type (0, 1), BuildingBlock: AJUNOK_clean_linker_0, # of connection points: 2
#     Edge 63, Type (0, 1), BuildingBlock: AJUNOK_clean_linker_0, # of connection points: 2
#     Edge 64, Type (0, 1), BuildingBlock: AJUNOK_clean_linker_0, # of connection points: 2
#     Edge 65, Type (0, 1), BuildingBlock: AJUNOK_clean_linker_0, # of connection points: 2
#     Edge 66, Type (0, 1), BuildingBlock: AJUNOK_clean_linker_0, # of connection points: 2
#     Edge 67, Type (0, 1), BuildingBlock: AJUNOK_clean_linker_0, # of connection points: 2
#     Edge 68, Type (0, 1), BuildingBlock: AJUNOK_clean_linker_0, # of connection points: 2
#     Edge 69, Type (0, 1), BuildingBlock: AJUNOK_clean_linker_0, # of connection points: 2
#     Edge 70, Type (0, 1), BuildingBlock: AJUNOK_clean_linker_0, # of connection points: 2
#     Edge 71, Type (0, 1), BuildingBlock: AJUNOK_clean_linker_0, # of connection points: 2
#     Edge 72, Type (0, 1), BuildingBlock: AJUNOK_clean_linker_0, # of connection points: 2
#     Edge 73, Type (0, 1), BuildingBlock: AJUNOK_clean_linker_0, # of connection points: 2
#     Edge 74, Type (0, 1), BuildingBlock: AJUNOK_clean_linker_0, # of connection points: 2
#     Edge 75, Type (0, 1), BuildingBlock: AJUNOK_clean_linker_0, # of connection points: 2
#     Edge 76, Type (0, 1), BuildingBlock: AJUNOK_clean_linker_0, # of connection points: 2
#     Edge 77, Type (0, 1), BuildingBlock: AJUNOK_clean_linker_0, # of connection points: 2
#     Edge 78, Type (0, 1), BuildingBlock: AJUNOK_clean_linker_0, # of connection points: 2
#     Edge 79, Type (0, 1), BuildingBlock: AJUNOK_clean_linker_0, # of connection points: 2
#     Edge 80, Type (0, 1), BuildingBlock: AJUNOK_clean_linker_0, # of connection points: 2
# Relax obj value: 0.058
# Max RMSD: 0.224
# Mean RMSD: 0.160
data_MOF--net-eea--node1-CUWYAW_clean_sbu_0--node2-BETDAH_clean_linker_0--edge1-AJUNOK_clean_linker_0
_symmetry_space_group_name_H-M    P1
_symmetry_Int_Tables_number       1
_symmetry_cell_setting            triclinic
loop_
_symmetry_equiv_pos_as_xyz
'x, y, z'
_cell_length_a     39.873567
_cell_length_b     39.30185
_cell_length_c     54.798732
_cell_angle_alpha  93.111518
_cell_angle_beta   93.241485
_cell_angle_gamma 120.02034
loop_
_atom_site_label
_atom_site_type_symbol
_atom_site_fract_x
_atom_site_fract_y
_atom_site_fract_z
_atom_type_partial_charge
H0 H 0.21638 0.04304 0.43347 0.0
H1 H 0.26275 0.16894 0.44247 0.0
H2 H 0.23181 0.10808 0.37035 0.0
C3 C 0.22398 0.07056 0.42577 0.0
C4 C 0.22117 0.07118 0.40013 0.0
C5 C 0.23872 0.10569 0.4414 0.0
C6 C 0.24943 0.14127 0.43093 0.0
C7 C 0.24613 0.14201 0.4054 0.0
C8 C 0.23246 0.10706 0.39009 0.0
N9 N 0.26281 0.17865 0.39515 0.0
C10 C 0.24237 0.19799 0.39026 0.0
H11 H 0.97204 0.20822 0.44146 0.0
H12 H 0.8551 0.10974 0.42607 0.0
H13 H 0.92591 0.15701 0.36713 0.0
C14 C 0.94864 0.18649 0.42839 0.0
C15 C 0.95448 0.18518 0.40328 0.0
C16 C 0.91256 0.16002 0.43677 0.0
C17 C 0.88302 0.13026 0.41998 0.0
C18 C 0.88832 0.12899 0.39493 0.0
C19 C 0.92329 0.15716 0.3867 0.0
N20 N 0.85786 0.1018 0.37728 0.0
C21 C 0.83468 0.06177 0.37986 0.0
H22 H 0.83963 0.7864 0.45274 0.0
H23 H 0.92823 0.75539 0.44572 0.0
H24 H 0.87096 0.76814 0.38133 0.0
C25 C 0.85758 0.78015 0.44138 0.0
C26 C 0.85205 0.77897 0.41567 0.0
C27 C 0.88448 0.77111 0.45251 0.0
C28 C 0.90791 0.76327 0.43761 0.0
C29 C 0.90369 0.76329 0.41204 0.0
C30 C 0.87551 0.77058 0.40118 0.0
N31 N 0.92265 0.74919 0.39696 0.0
C32 C 0.96078 0.77264 0.39146 0.0
H33 H 0.06155 0.25201 0.58155 0.0
H34 H 0.1791 0.27812 0.59947 0.0
H35 H 0.10528 0.26047 0.6568 0.0
C36 C 0.08464 0.25698 0.5952 0.0
C37 C 0.07815 0.25459 0.62024 0.0
C38 C 0.12118 0.26625 0.58749 0.0
C39 C 0.15054 0.27009 0.60489 0.0
C40 C 0.14419 0.26707 0.62977 0.0
C41 C 0.10873 0.26058 0.63732 0.0
N42 N 0.17437 0.27477 0.648 0.0
C43 C 0.1972 0.25727 0.64717 0.0
H44 H 0.79416 0.82208 0.59726 0.0
H45 H 0.77166 0.91864 0.60482 0.0
H46 H 0.80455 0.87966 0.66865 0.0
C47 C 0.79262 0.8446 0.60864 0.0
C48 C 0.80171 0.84868 0.63418 0.0
C49 C 0.78227 0.87022 0.59779 0.0
C50 C 0.78072 0.89955 0.61283 0.0
C51 C 0.78841 0.90261 0.63839 0.0
C52 C 0.79867 0.87712 0.64887 0.0
N53 N 0.78368 0.92927 0.65423 0.0
C54 C 0.79596 0.96803 0.64981 0.0
H55 H 0.2017 0.98378 0.58914 0.0
H56 H 0.11824 0.85963 0.57632 0.0
H57 H 0.14008 0.91918 0.6484 0.0
C58 C 0.17996 0.95654 0.59571 0.0
C59 C 0.17319 0.95583 0.62065 0.0
C60 C 0.15951 0.92225 0.57934 0.0
C61 C 0.13255 0.88689 0.58832 0.0
C62 C 0.1247 0.88581 0.61293 0.0
C63 C 0.14469 0.92045 0.62909 0.0
N64 N 0.10079 0.84849 0.6215 0.0
C65 C 0.06941 0.83949 0.63503 0.0
H66 H 0.90508 0.39338 0.76889 0.0
H67 H 0.93705 0.515 0.76412 0.0
H68 H 0.90371 0.43608 0.69847 0.0
C69 C 0.90855 0.41702 0.75804 0.0
C70 C 0.90185 0.41001 0.73236 0.0
C71 C 0.92106 0.45482 0.7697 0.0
C72 C 0.9264 0.48554 0.75539 0.0
C73 C 0.91975 0.47857 0.72968 0.0
C74 C 0.90776 0.44098 0.71835 0.0
N75 N 0.92899 0.50973 0.71467 0.0
C76 C 0.91368 0.53458 0.71647 0.0
H77 H 0.63371 0.54907 0.77514 0.0
H78 H 0.53823 0.42929 0.75981 0.0
H79 H 0.61844 0.48353 0.706 0.0
C80 C 0.61797 0.5219 0.76312 0.0
C81 C 0.63025 0.52024 0.73976 0.0
C82 C 0.58471 0.48919 0.7706 0.0
C83 C 0.56381 0.4546 0.7543 0.0
C84 C 0.5759 0.45282 0.7309 0.0
C85 C 0.60898 0.48551 0.72392 0.0
N86 N 0.55559 0.41911 0.71358 0.0
C87 C 0.52461 0.38262 0.71784 0.0
H88 H 0.50264 0.11272 0.78369 0.0
H89 H 0.59457 0.08687 0.77538 0.0
H90 H 0.53326 0.09638 0.71172 0.0
C91 C 0.52085 0.10736 0.77203 0.0
C92 C 0.51449 0.10599 0.74639 0.0
C93 C 0.54915 0.09989 0.78279 0.0
C94 C 0.57316 0.09349 0.76754 0.0
C95 C 0.56801 0.09331 0.74195 0.0
C96 C 0.53834 0.09882 0.73154 0.0
N97 N 0.58791 0.0812 0.72624 0.0
C98 C 0.62751 0.10367 0.72365 0.0
H99 H 0.73118 0.60651 0.91603 0.0
H100 H 0.8369 0.6046 0.93485 0.0
H101 H 0.75344 0.57806 0.98746 0.0
C102 C 0.74972 0.60191 0.92903 0.0
C103 C 0.73818 0.59198 0.95255 0.0
C104 C 0.78569 0.6073 0.92255 0.0
C105 C 0.809 0.60015 0.93947 0.0
C106 C 0.79713 0.58966 0.96294 0.0
C107 C 0.76214 0.58599 0.96926 0.0
N108 N 0.82041 0.58525 0.98157 0.0
C109 C 0.8491 0.57567 0.97838 0.0
H110 H 0.46072 0.15841 0.93345 0.0
H111 H 0.44673 0.26043 0.9419 0.0
H112 H 0.48177 0.22098 1.00465 0.0
C113 C 0.4619 0.18241 0.94494 0.0
C114 C 0.47339 0.18717 0.97021 0.0
C115 C 0.45274 0.2091 0.9344 0.0
C116 C 0.45487 0.24046 0.94958 0.0
C117 C 0.46522 0.24454 0.97494 0.0
C118 C 0.47411 0.21778 0.98501 0.0
N119 N 0.46477 0.27359 0.99123 0.0
C120 C 0.47335 0.31099 0.98557 0.0
H121 H 0.87683 0.3046 0.92721 0.0
H122 H 0.79041 0.18092 0.919 0.0
H123 H 0.81498 0.24828 0.98854 0.0
C124 C 0.85439 0.27874 0.93463 0.0
C125 C 0.84764 0.28128 0.95942 0.0
C126 C 0.83342 0.24285 0.91965 0.0
C127 C 0.80605 0.20915 0.92999 0.0
C128 C 0.7989 0.21112 0.95456 0.0
C129 C 0.81935 0.24727 0.96924 0.0
N130 N 0.77586 0.17539 0.96505 0.0
C131 C 0.74053 0.16512 0.97416 0.0
H132 H 0.5533 0.7091 0.09663 0.0
H133 H 0.59951 0.83452 0.10922 0.0
H134 H 0.56141 0.77712 0.03601 0.0
C135 C 0.56041 0.73713 0.08985 0.0
C136 C 0.55483 0.73892 0.06452 0.0
C137 C 0.57624 0.77139 0.10628 0.0
C138 C 0.58559 0.80748 0.09703 0.0
C139 C 0.57952 0.80951 0.07184 0.0
C140 C 0.56401 0.77515 0.05561 0.0
N141 N 0.59597 0.84694 0.06263 0.0
C142 C 0.57445 0.86452 0.05604 0.0
H143 H 0.29825 0.88064 0.10598 0.0
H144 H 0.18698 0.77493 0.08654 0.0
H145 H 0.26719 0.82463 0.03211 0.0
C146 C 0.2776 0.85713 0.09249 0.0
C147 C 0.28738 0.85603 0.06828 0.0
C148 C 0.24118 0.82832 0.09929 0.0
C149 C 0.21518 0.79719 0.08171 0.0
C150 C 0.22464 0.79607 0.05748 0.0
C151 C 0.26023 0.82582 0.05087 0.0
N152 N 0.1984 0.76661 0.0389 0.0
C153 C 0.17236 0.72763 0.04264 0.0
H154 H 0.16287 0.43755 0.11486 0.0
H155 H 0.25248 0.40892 0.10451 0.0
H156 H 0.19625 0.42837 0.04245 0.0
C157 C 0.1809 0.43253 0.10283 0.0
C158 C 0.1764 0.43498 0.0774 0.0
C159 C 0.20722 0.42177 0.11278 0.0
C160 C 0.23179 0.41693 0.09726 0.0
C161 C 0.22815 0.42 0.07202 0.0
C162 C 0.20015 0.42829 0.06217 0.0
N163 N 0.24779 0.40832 0.05589 0.0
C164 C 0.28686 0.43206 0.05252 0.0
H165 H 0.40237 0.93927 0.24878 0.0
H166 H 0.48908 0.90536 0.26125 0.0
H167 H 0.40502 0.88252 0.31307 0.0
C168 C 0.4153 0.92596 0.25984 0.0
C169 C 0.40039 0.91189 0.28205 0.0
C170 C 0.44729 0.92367 0.2521 0.0
C171 C 0.46461 0.90744 0.2671 0.0
C172 C 0.44911 0.89247 0.28912 0.0
C173 C 0.41712 0.89466 0.29627 0.0
N174 N 0.46347 0.87354 0.30429 0.0
C175 C 0.49938 0.87591 0.30391 0.0
H176 H 0.11519 0.48822 0.26545 0.0
H177 H 0.11435 0.59746 0.27661 0.0
H178 H 0.15085 0.5541 0.33658 0.0
C179 C 0.12029 0.51364 0.27734 0.0
C180 C 0.1348 0.51815 0.30204 0.0
C181 C 0.1122 0.54185 0.268 0.0
C182 C 0.11975 0.57521 0.28361 0.0
C183 C 0.13348 0.57937 0.30838 0.0
C184 C 0.14056 0.55075 0.31736 0.0
N185 N 0.13913 0.61088 0.32527 0.0
C186 C 0.1456 0.64753 0.31938 0.0
H187 H 0.53981 0.64516 0.25831 0.0
H188 H 0.44709 0.52395 0.24649 0.0
H189 H 0.47884 0.58478 0.31879 0.0
C190 C 0.51642 0.61919 0.26504 0.0
C191 C 0.5112 0.61954 0.2902 0.0
C192 C 0.49298 0.58513 0.24886 0.0
C193 C 0.46454 0.55101 0.25841 0.0
C194 C 0.45901 0.55081 0.28342 0.0
C195 C 0.48195 0.58535 0.29928 0.0
N196 N 0.43604 0.51399 0.29285 0.0
C197 C 0.40127 0.50273 0.30309 0.0
C198 C 0.55061 0.04646 0.09558 0.0
Eu199 Eu 0.52952 0.03767 0.04864 0.0
C200 C 0.53603 0.02652 0.11789 0.0
C201 C 0.54315 0.04943 0.14016 0.0
C202 C 0.52931 0.03141 0.16158 0.0
C203 C 0.50788 0.99007 0.16108 0.0
C204 C 0.50121 0.9671 0.13881 0.0
C205 C 0.51511 0.98517 0.11737 0.0
C206 C 0.51181 0.08555 0.02399 0.0
C207 C 0.43775 0.96969 0.03623 0.0
C208 C 0.47617 1.00252 0.9484 0.0
Eu209 Eu 0.49562 1.00808 0.99534 0.0
C210 C 0.49335 0.0226 0.92642 0.0
C211 C 0.52723 0.02484 0.91833 0.0
C212 C 0.54125 0.04155 0.89653 0.0
C213 C 0.52196 0.05671 0.88253 0.0
C214 C 0.48863 0.05523 0.89095 0.0
C215 C 0.47448 0.03831 0.91262 0.0
C216 C 0.51438 0.9604 0.01929 0.0
C217 C 0.5886 0.07426 1.00844 0.0
O218 O 0.5608 0.02874 0.07917 0.0
O219 O 0.5318 0.06245 0.08574 0.0
O220 O 0.54166 0.09832 0.0401 0.0
O221 O 0.49155 0.04844 0.02274 0.0
O222 O 0.46937 0.98551 0.05191 0.0
O223 O 0.43938 0.97819 0.01313 0.0
O224 O 0.46838 0.02226 0.96489 0.0
O225 O 0.49024 0.98206 0.95817 0.0
O226 O 0.4845 0.94744 1.00313 0.0
O227 O 0.53406 0.99763 0.02089 0.0
O228 O 0.55751 0.05833 0.9922 0.0
O229 O 0.58584 0.06649 0.03159 0.0
H230 H 0.55929 0.08137 0.14096 0.0
H231 H 0.53478 0.0498 0.17847 0.0
H232 H 0.48543 0.93519 0.13803 0.0
H233 H 0.5095 0.96686 0.10042 0.0
H234 H 0.54258 0.01314 0.92859 0.0
H235 H 0.56699 0.04231 0.89047 0.0
H236 H 0.47269 0.06595 0.88032 0.0
H237 H 0.44823 0.03678 0.91836 0.0
C238 C 1.00061 0.5176 0.09269 0.0
Eu239 Eu 0.99888 0.49968 0.04584 0.0
C240 C 0.01798 0.5168 0.11716 0.0
C241 C 0.99336 0.49523 0.13473 0.0
C242 C 1.00845 0.49722 0.15878 0.0
C243 C 0.04852 0.52124 0.16593 0.0
C244 C 0.0734 0.54165 0.14812 0.0
C245 C 0.0583 0.53956 0.12399 0.0
C246 C 0.94862 0.43013 0.01936 0.0
C247 C 0.06184 0.47166 0.03575 0.0
C248 C 0.01572 0.47134 0.94685 0.0
Eu249 Eu 0.01773 0.49134 0.99343 0.0
C250 C 1.00047 0.47266 0.92199 0.0
C251 C 0.01952 0.46977 0.90198 0.0
C252 C 1.00532 0.46953 0.87804 0.0
C253 C 0.97176 0.47239 0.87353 0.0
C254 C 0.95292 0.47582 0.89373 0.0
C255 C 0.96703 0.47568 0.91777 0.0
C256 C 0.06836 0.56113 0.01956 0.0
C257 C 0.95729 0.52319 1.00419 0.0
O258 O 0.02356 0.54257 0.07804 0.0
O259 O 0.97443 0.48377 0.08098 0.0
O260 O 0.93787 0.44825 0.03478 0.0
O261 O 0.98517 0.44851 0.01949 0.0
O262 O 0.04795 0.48675 0.05165 0.0
O263 O 0.0514 0.46624 0.01191 0.0
O264 O 0.99059 0.44837 0.96134 0.0
O265 O 0.04298 0.50475 0.95839 0.0
O266 O 0.07847 0.54273 1.00389 0.0
O267 O 0.03182 0.54288 0.01971 0.0
O268 O 0.96993 0.50711 0.98788 0.0
O269 O 0.96822 0.52763 0.02789 0.0
H270 H 0.9622 0.47746 0.12999 0.0
H271 H 0.98863 0.48035 0.1719 0.0
H272 H 0.10441 0.56032 0.15306 0.0
H273 H 0.07812 0.55656 0.1109 0.0
H274 H 0.04524 0.46718 0.90484 0.0
H275 H 0.02032 0.4664 0.86296 0.0
H276 H 0.92743 0.47879 0.891 0.0
H277 H 0.95176 0.47764 0.933 0.0
C278 C 0.47547 0.50739 0.93038 0.0
Eu279 Eu 0.49764 0.52793 0.97712 0.0
C280 C 0.49298 0.50477 0.90785 0.0
C281 C 0.48362 0.51707 0.88627 0.0
C282 C 0.49976 0.51497 0.86465 0.0
C283 C 0.52558 0.50042 0.86413 0.0
C284 C 0.53496 0.48809 0.88582 0.0
C285 C 0.51898 0.49046 0.90753 0.0
C286 C 0.5149 0.59765 1.00131 0.0
C287 C 0.59115 0.56226 0.98659 0.0
C288 C 0.56142 0.56819 0.07544 0.0
Eu289 Eu 0.53578 0.54381 0.0293 0.0
C290 C 0.54785 0.57158 0.09944 0.0
C291 C 0.51356 0.54078 0.10708 0.0
C292 C 0.50281 0.54402 0.13059 0.0
C293 C 0.52599 0.57818 0.14679 0.0
C294 C 0.55981 0.60923 0.13886 0.0
C295 C 0.57058 0.60596 0.11539 0.0
C296 C 0.51976 0.47427 1.00544 0.0
C297 C 0.44111 0.50553 0.01951 0.0
O298 O 0.47094 0.48225 0.94642 0.0
O299 O 0.48779 0.54296 0.94067 0.0
O300 O 0.48335 0.57601 0.98674 0.0
O301 O 0.53601 0.58225 1.00165 0.0
O302 O 0.55893 0.54102 0.9717 0.0
O303 O 0.59 0.57225 1.00979 0.0
O304 O 0.56047 0.59099 0.05927 0.0
O305 O 0.55098 0.53276 0.06567 0.0
O306 O 0.5507 0.49641 0.02043 0.0
O307 O 0.49786 0.48888 1.00469 0.0
O308 O 0.47294 0.52596 0.03497 0.0
O309 O 0.44303 0.49832 0.99596 0.0
H310 H 0.46378 0.52837 0.88615 0.0
H311 H 0.49215 0.52493 0.84831 0.0
H312 H 0.55411 0.47599 0.88595 0.0
H313 H 0.52678 0.48088 0.92399 0.0
H314 H 0.4954 0.51404 0.09504 0.0
H315 H 0.47652 0.5197 0.13622 0.0
H316 H 0.57858 0.63554 0.15109 0.0
H317 H 0.59718 0.63002 0.10987 0.0
C318 C 0.21258 0.37814 0.42649 0.0
Eu319 Eu 0.19215 0.36877 0.37945 0.0
C320 C 0.19666 0.35868 0.44876 0.0
C321 C 0.20361 0.38206 0.47077 0.0
C322 C 0.18944 0.36457 0.49227 0.0
C323 C 0.16822 0.32326 0.49223 0.0
C324 C 0.16101 0.29976 0.4701 0.0
C325 C 0.17502 0.31732 0.4485 0.0
C326 C 0.17253 0.41384 0.35329 0.0
C327 C 0.10078 0.29921 0.36726 0.0
C328 C 0.13805 0.32423 0.27945 0.0
Eu329 Eu 0.15952 0.33591 0.3265 0.0
C330 C 0.15169 0.34123 0.25626 0.0
C331 C 0.13208 0.31845 0.23413 0.0
C332 C 0.14452 0.33319 0.21173 0.0
C333 C 0.17715 0.37096 0.21098 0.0
C334 C 0.19643 0.39415 0.23324 0.0
C335 C 0.18383 0.37932 0.25577 0.0
C336 C 0.17957 0.29097 0.3526 0.0
C337 C 0.25131 0.40557 0.33909 0.0
O338 O 0.22202 0.3592 0.41046 0.0
O339 O 0.1955 0.3955 0.41618 0.0
O340 O 0.20232 0.42815 0.36965 0.0
O341 O 0.15324 0.37666 0.35248 0.0
O342 O 0.13137 0.3183 0.38367 0.0
O343 O 0.10306 0.30382 0.3436 0.0
O344 O 0.12933 0.34432 0.29507 0.0
O345 O 0.1566 0.30862 0.29012 0.0
O346 O 0.14977 0.27663 0.3363 0.0
O347 O 0.19858 0.32814 0.35328 0.0
O348 O 0.2203 0.38767 0.32278 0.0
O349 O 0.24869 0.39915 0.36249 0.0
H350 H 0.22019 0.41397 0.47136 0.0
H351 H 0.19552 0.38339 0.50906 0.0
H352 H 0.14421 0.26788 0.46946 0.0
H353 H 0.16897 0.29863 0.43166 0.0
H354 H 0.10702 0.28912 0.23417 0.0
H355 H 0.12836 0.31507 0.19492 0.0
H356 H 0.22147 0.42345 0.23321 0.0
H357 H 0.19915 0.39743 0.27273 0.0
C358 C 0.66763 0.85086 0.42555 0.0
Eu359 Eu 0.66749 0.83309 0.37897 0.0
C360 C 0.68658 0.85022 0.44933 0.0
C361 C 0.66457 0.83825 0.4695 0.0
C362 C 0.68213 0.83929 0.49256 0.0
C363 C 0.72215 0.85265 0.49595 0.0
C364 C 0.74405 0.86368 0.4756 0.0
C365 C 0.72638 0.86235 0.45244 0.0
C366 C 0.61807 0.76323 0.35265 0.0
C367 C 0.73364 0.80797 0.37103 0.0
C368 C 0.68908 0.8064 0.28117 0.0
Eu369 Eu 0.68912 0.82448 0.32771 0.0
C370 C 0.66559 0.79828 0.25737 0.0
C371 C 0.66717 0.82922 0.24479 0.0
C372 C 0.64816 0.82158 0.2212 0.0
C373 C 0.62737 0.78293 0.2096 0.0
C374 C 0.62453 0.75179 0.22252 0.0
C375 C 0.64357 0.75941 0.24612 0.0
C376 C 0.73805 0.89475 0.35403 0.0
C377 C 0.62507 0.85176 0.33577 0.0
O378 O 0.6897 0.87644 0.41087 0.0
O379 O 0.64243 0.81664 0.41387 0.0
O380 O 0.60678 0.78184 0.36728 0.0
O381 O 0.65473 0.78145 0.35332 0.0
O382 O 0.71716 0.82117 0.38619 0.0
O383 O 0.72539 0.80325 0.347 0.0
O384 O 0.67442 0.78015 0.29701 0.0
O385 O 0.70736 0.84264 0.29163 0.0
O386 O 0.7494 0.87644 0.33922 0.0
O387 O 0.70143 0.8762 0.35321 0.0
O388 O 0.63671 0.8327 0.32103 0.0
O389 O 0.63753 0.86059 0.35934 0.0
H390 H 0.63384 0.8287 0.46749 0.0
H391 H 0.66462 0.83074 0.50795 0.0
H392 H 0.77483 0.87356 0.47765 0.0
H393 H 0.74394 0.8713 0.43709 0.0
H394 H 0.68398 0.85953 0.25282 0.0
H395 H 0.65102 0.84618 0.21164 0.0
H396 H 0.60818 0.72162 0.21418 0.0
H397 H 0.64184 0.73495 0.25534 0.0
C398 C 0.142 0.84131 0.26396 0.0
Eu399 Eu 0.16614 0.86304 0.31048 0.0
C400 C 0.15885 0.83925 0.24098 0.0
C401 C 0.1977 0.86649 0.2376 0.0
C402 C 0.21272 0.86476 0.21535 0.0
C403 C 0.18918 0.83575 0.1961 0.0
C404 C 0.15063 0.80793 0.19982 0.0
C405 C 0.13561 0.80975 0.22203 0.0
C406 C 0.18334 0.93257 0.33486 0.0
C407 C 0.26022 0.89783 0.31822 0.0
C408 C 0.23402 0.90584 0.40755 0.0
Eu409 Eu 0.2069 0.88053 0.36176 0.0
C410 C 0.22073 0.90853 0.43177 0.0
C411 C 0.23544 0.89807 0.45204 0.0
C412 C 0.22448 0.9013 0.47542 0.0
C413 C 0.19854 0.91509 0.47902 0.0
C414 C 0.18369 0.92553 0.45867 0.0
C415 C 0.19464 0.92221 0.4352 0.0
C416 C 0.19019 0.81046 0.33834 0.0
C417 C 0.11191 0.8415 0.35399 0.0
O418 O 0.13978 0.81679 0.27988 0.0
O419 O 0.1532 0.87659 0.27435 0.0
O420 O 0.15077 0.90992 0.32141 0.0
O421 O 0.20524 0.91815 0.3342 0.0
O422 O 0.22734 0.87674 0.30387 0.0
O423 O 0.26018 0.90842 0.34146 0.0
O424 O 0.23207 0.92816 0.39129 0.0
O425 O 0.22416 0.87051 0.39796 0.0
O426 O 0.22183 0.83324 0.3526 0.0
O427 O 0.16802 0.82475 0.33803 0.0
O428 O 0.14447 0.86273 0.36872 0.0
O429 O 0.11259 0.83311 0.33041 0.0
H430 H 0.21634 0.8893 0.25206 0.0
H431 H 0.24274 0.88613 0.21319 0.0
H432 H 0.13181 0.7853 0.18533 0.0
H433 H 0.10563 0.78834 0.22431 0.0
H434 H 0.25564 0.88754 0.44981 0.0
H435 H 0.23618 0.89281 0.49072 0.0
H436 H 0.16413 0.93683 0.46095 0.0
H437 H 0.18297 0.93063 0.41985 0.0
C438 C 0.88966 0.71914 0.7634 0.0
Eu439 Eu 0.86675 0.71018 0.71676 0.0
C440 C 0.87403 0.70128 0.78608 0.0
C441 C 0.8876 0.72504 0.80845 0.0
C442 C 0.87294 0.70915 0.83024 0.0
C443 C 0.84425 0.66917 0.83005 0.0
C444 C 0.83106 0.64517 0.80765 0.0
C445 C 0.84571 0.66115 0.78579 0.0
C446 C 0.84522 0.75532 0.69229 0.0
C447 C 0.77423 0.64205 0.70571 0.0
C448 C 0.80993 0.67141 0.61723 0.0
Eu449 Eu 0.83067 0.67849 0.66402 0.0
C450 C 0.82708 0.69193 0.59541 0.0
C451 C 0.86132 0.6949 0.58748 0.0
C452 C 0.87556 0.71226 0.56592 0.0
C453 C 0.85614 0.72739 0.55204 0.0
C454 C 0.82257 0.72541 0.56037 0.0
C455 C 0.80816 0.7078 0.58181 0.0
C456 C 0.85311 0.63353 0.68792 0.0
C457 C 0.92276 0.74756 0.67515 0.0
O458 O 0.89541 0.69756 0.747 0.0
O459 O 0.87467 0.73877 0.7536 0.0
O460 O 0.87598 0.76977 0.70786 0.0
O461 O 0.82631 0.71824 0.6916 0.0
O462 O 0.8062 0.65885 0.72122 0.0
O463 O 0.77537 0.64889 0.68235 0.0
O464 O 0.80157 0.69071 0.63368 0.0
O465 O 0.82474 0.65161 0.62705 0.0
O466 O 0.82199 0.6191 0.67265 0.0
O467 O 0.87176 0.6707 0.68887 0.0
O468 O 0.89066 0.73061 0.65983 0.0
O469 O 0.9221 0.74006 0.69838 0.0
H470 H 0.90956 0.756 0.80906 0.0
H471 H 0.88414 0.72815 0.84729 0.0
H472 H 0.80895 0.61428 0.80702 0.0
H473 H 0.83484 0.64226 0.76869 0.0
H474 H 0.87681 0.68327 0.59766 0.0
H475 H 0.90154 0.71349 0.55992 0.0
H476 H 0.80661 0.7362 0.54982 0.0
H477 H 0.78172 0.70585 0.58751 0.0
C478 C 0.32927 0.17573 0.76198 0.0
Eu479 Eu 0.33105 0.16257 0.71496 0.0
C480 C 0.34959 0.17791 0.78589 0.0
C481 C 0.32818 0.16607 0.80632 0.0
C482 C 0.34677 0.16976 0.82954 0.0
C483 C 0.38726 0.18564 0.83284 0.0
C484 C 0.40863 0.19664 0.81223 0.0
C485 C 0.38994 0.19275 0.78892 0.0
C486 C 0.27839 0.09687 0.68587 0.0
C487 C 0.39393 0.13431 0.70475 0.0
C488 C 0.35397 0.1426 0.61623 0.0
Eu489 Eu 0.3521 0.1572 0.66302 0.0
C490 C 0.33342 0.13681 0.59183 0.0
C491 C 0.3543 0.14292 0.57123 0.0
C492 C 0.33572 0.13619 0.54764 0.0
C493 C 0.29579 0.12327 0.54413 0.0
C494 C 0.27487 0.11759 0.56485 0.0
C495 C 0.29357 0.12428 0.58858 0.0
C496 C 0.40553 0.22242 0.69197 0.0
C497 C 0.29329 0.19058 0.67394 0.0
O498 O 0.34832 0.20364 0.74776 0.0
O499 O 0.30864 0.14088 0.74981 0.0
O500 O 0.26883 0.11553 0.70172 0.0
O501 O 0.31488 0.11268 0.68685 0.0
O502 O 0.37954 0.14869 0.72076 0.0
O503 O 0.38478 0.13069 0.68084 0.0
O504 O 0.33685 0.11509 0.63103 0.0
O505 O 0.37163 0.17823 0.62754 0.0
O506 O 0.41413 0.2035 0.67571 0.0
O507 O 0.36911 0.20758 0.6912 0.0
O508 O 0.30413 0.17264 0.65771 0.0
O509 O 0.30431 0.19471 0.6976 0.0
H510 H 0.29705 0.15452 0.80438 0.0
H511 H 0.32958 0.16115 0.84506 0.0
H512 H 0.43977 0.20831 0.81416 0.0
H513 H 0.40703 0.20175 0.77336 0.0
H514 H 0.38505 0.1526 0.57338 0.0
H515 H 0.35268 0.1412 0.53208 0.0
H516 H 0.24399 0.10727 0.5627 0.0
H517 H 0.27692 0.11928 0.6043 0.0
C518 C 0.81745 0.17808 0.60174 0.0
Eu519 Eu 0.83921 0.19392 0.64875 0.0
C520 C 0.83476 0.17692 0.57876 0.0
C521 C 0.82554 0.19096 0.55793 0.0
C522 C 0.841 0.1897 0.53584 0.0
C523 C 0.86602 0.17432 0.53409 0.0
C524 C 0.87527 0.16022 0.55497 0.0
C525 C 0.86 0.16175 0.57717 0.0
C526 C 0.85912 0.26162 0.67647 0.0
C527 C 0.9317 0.22161 0.65778 0.0
C528 C 0.90127 0.21726 0.74687 0.0
Eu529 Eu 0.87564 0.2011 0.70037 0.0
C530 C 0.88951 0.22101 0.77135 0.0
C531 C 0.90914 0.21661 0.79185 0.0
C532 C 0.8992 0.22054 0.81543 0.0
C533 C 0.8693 0.22888 0.81899 0.0
C534 C 0.8494 0.23298 0.79833 0.0
C535 C 0.85958 0.22927 0.77468 0.0
C536 C 0.8556 0.13323 0.67267 0.0
C537 C 0.78214 0.17012 0.69105 0.0
O538 O 0.81209 0.15116 0.61659 0.0
O539 O 0.8304 0.21293 0.61339 0.0
O540 O 0.82804 0.24295 0.66112 0.0
O541 O 0.87905 0.24485 0.67566 0.0
O542 O 0.90013 0.20701 0.64221 0.0
O543 O 0.93076 0.2262 0.68171 0.0
O544 O 0.90547 0.244 0.73219 0.0
O545 O 0.88459 0.18174 0.73551 0.0
O546 O 0.8867 0.15217 0.68793 0.0
O547 O 0.83574 0.15003 0.67358 0.0
O548 O 0.814 0.18718 0.70669 0.0
O549 O 0.78393 0.16517 0.6672 0.0
H550 H 0.80609 0.20267 0.55871 0.0
H551 H 0.83283 0.20016 0.51995 0.0
H552 H 0.89449 0.14825 0.55413 0.0
H553 H 0.86778 0.15093 0.59303 0.0
H554 H 0.93241 0.21035 0.78961 0.0
H555 H 0.91523 0.21747 0.83095 0.0
H556 H 0.82572 0.23861 0.80041 0.0
H557 H 0.84416 0.23286 0.75903 0.0
C558 C 0.32839 0.90504 0.03953 0.0
C559 C 0.32597 0.88599 0.06096 0.0
C560 C 0.36451 0.932 0.03166 0.0
C561 C 0.39973 0.94104 0.0449 0.0
H562 H 0.30208 0.89912 0.02876 0.0
H563 H 0.36476 0.94598 0.01512 0.0
S564 S 0.40919 0.89671 0.10127 0.0
N565 N 0.36182 0.8765 0.09459 0.0
N566 N 0.42958 0.92707 0.08005 0.0
C567 C 0.39763 0.92189 0.0663 0.0
C568 C 0.36085 0.89447 0.07427 0.0
C569 C 0.15445 0.46796 0.04742 0.0
C570 C 0.14605 0.44292 0.06648 0.0
C571 C 0.1266 0.47613 0.0369 0.0
C572 C 0.08962 0.4602 0.0454 0.0
H573 H 0.18303 0.48197 0.04082 0.0
H574 H 0.13445 0.496 0.02257 0.0
S575 S 0.05107 0.39026 0.09293 0.0
N576 N 0.09605 0.39937 0.09159 0.0
N577 N 0.04496 0.41701 0.07286 0.0
C578 C 0.08048 0.43485 0.06409 0.0
C579 C 0.10836 0.42566 0.07439 0.0
C580 C 0.57041 0.69007 0.04565 0.0
C581 C 0.54417 0.70388 0.04737 0.0
C582 C 0.56101 0.65635 0.03015 0.0
C583 C 0.5246 0.63457 0.01626 0.0
H584 H 0.59851 0.70555 0.05637 0.0
H585 H 0.5824 0.64715 0.02923 0.0
S586 S 0.44601 0.65921 0.01407 0.0
N587 N 0.48097 0.69438 0.03349 0.0
N588 N 0.46251 0.63004 1.00485 0.0
C589 C 0.49828 0.64847 0.01759 0.0
C590 C 0.50822 0.68332 0.03308 0.0
C591 C 0.91327 0.33758 0.97588 0.0
C592 C 0.87248 0.31883 0.97529 0.0
C593 C 0.93755 0.37329 0.99034 0.0
C594 C 0.92205 0.39198 1.0046 0.0
H595 H 0.92658 0.32433 0.96519 0.0
H596 H 0.96876 0.38632 0.9903 0.0
S597 S 0.81707 0.35544 1.00912 0.0
N598 N 0.8176 0.32168 0.9901 0.0
N599 N 0.86314 0.38903 0.01712 0.0
C600 C 0.88128 0.37353 1.00423 0.0
C601 C 0.85654 0.33692 0.98963 0.0
C602 C 0.66579 0.56228 0.94624 0.0
C603 C 0.70135 0.5881 0.96012 0.0
C604 C 0.63036 0.55494 0.95463 0.0
C605 C 0.62919 0.57319 0.97722 0.0
H606 H 0.66526 0.54656 0.92922 0.0
H607 H 0.60368 0.53388 0.94362 0.0
S608 S 0.71502 0.64743 0.0187 0.0
N609 N 0.73372 0.6349 0.9962 0.0
N610 N 0.66738 0.62113 0.0121 0.0
C611 C 0.66482 0.60052 0.99066 0.0
C612 C 0.7008 0.60796 0.98208 0.0
C613 C 0.45821 0.11997 0.98129 0.0
C614 C 0.48484 0.16064 0.98169 0.0
C615 C 0.46724 0.09564 0.99479 0.0
C616 C 0.50328 0.11112 1.00896 0.0
H617 H 0.42975 0.1072 0.97123 0.0
H618 H 0.44546 0.06471 0.99458 0.0
S619 S 0.58441 0.21505 0.01385 0.0
N620 N 0.54954 0.21477 0.99593 0.0
N621 N 0.56671 0.16927 0.02099 0.0
C622 C 0.53064 0.15147 1.00865 0.0
C623 C 0.52137 0.17615 0.99507 0.0
C624 C 0.66904 0.12631 0.96655 0.0
C625 C 0.70252 0.14711 0.98314 0.0
C626 C 0.63219 0.10372 0.97491 0.0
C627 C 0.62762 0.10084 1.0002 0.0
H628 H 0.67146 0.12651 0.94695 0.0
H629 H 0.60731 0.08749 0.96137 0.0
S630 S 0.70705 0.15241 0.05094 0.0
N631 N 0.72934 0.16533 0.02568 0.0
N632 N 0.6604 0.1232 0.04172 0.0
C633 C 0.66114 0.12282 0.01695 0.0
C634 C 0.69855 0.14586 1.00833 0.0
C635 C 0.88476 0.55842 1.00781 0.0
C636 C 0.8772 0.56345 0.98342 0.0
C637 C 0.91069 0.54549 0.01412 0.0
C638 C 0.93014 0.53694 0.99623 0.0
H639 H 0.87027 0.56429 0.02222 0.0
H640 H 0.91512 0.54186 0.03327 0.0
S641 S 0.92064 0.54667 0.92947 0.0
N642 N 0.89094 0.55975 0.94113 0.0
N643 N 0.94034 0.53562 0.95283 0.0
C644 C 0.92289 0.54219 0.9716 0.0
C645 C 0.89625 0.55545 0.96522 0.0
C646 C 0.52396 0.3807 0.99353 0.0
C647 C 0.4852 0.35228 0.98572 0.0
C648 C 0.53513 0.4205 0.99873 0.0
C649 C 0.50785 0.43319 0.99639 0.0
H650 H 0.54548 0.37187 0.99672 0.0
H651 H 0.56512 0.44121 1.00552 0.0
S652 S 0.40303 0.37008 0.9747 0.0
N653 N 0.41983 0.33922 0.9745 0.0
N654 N 0.44066 0.41415 0.98406 0.0
C655 C 0.46928 0.40518 0.98732 0.0
C656 C 0.45796 0.36459 0.98209 0.0
C657 C 0.16042 0.66065 0.033 0.0
C658 C 0.14665 0.68539 0.04125 0.0
C659 C 0.13496 0.62007 0.02717 0.0
C660 C 0.09479 0.60285 0.02932 0.0
H661 H 0.19084 0.67299 0.03005 0.0
H662 H 0.14668 0.60231 0.02008 0.0
S663 S 0.04505 0.65512 0.05202 0.0
N664 N 0.09117 0.69015 0.0527 0.0
N665 N 0.04302 0.61367 0.04195 0.0
C666 C 0.08104 0.62715 0.0388 0.0
C667 C 0.10709 0.66858 0.04465 0.0
C668 C 0.33116 0.44732 0.02036 0.0
C669 C 0.32581 0.45267 0.04501 0.0
C670 C 0.36846 0.46504 0.01235 0.0
C671 C 0.40199 0.48883 0.02874 0.0
H672 H 0.30629 0.42885 1.00716 0.0
H673 H 0.37088 0.4595 0.99314 0.0
S674 S 0.40265 0.51259 0.09547 0.0
N675 N 0.35609 0.48357 0.08586 0.0
N676 N 0.42661 0.51736 0.07105 0.0
C677 C 0.39672 0.49483 0.05356 0.0
C678 C 0.35851 0.4766 0.06165 0.0
C679 C 0.57977 0.92896 0.05172 0.0
C680 C 0.5573 0.8876 0.04852 0.0
C681 C 0.56522 0.95235 0.04282 0.0
C682 C 0.52776 0.93508 0.03029 0.0
H683 H 0.60912 0.94336 0.06072 0.0
H684 H 0.58386 0.98416 0.04524 0.0
S685 S 0.45669 0.82764 0.01881 0.0
N686 N 0.49548 0.8301 0.03322 0.0
N687 N 0.46776 0.87378 0.01646 0.0
C688 C 0.50461 0.89358 0.02771 0.0
C689 C 0.51951 0.86986 0.03682 0.0
C690 C 0.01282 0.25376 0.40383 0.0
C691 C 0.99238 0.21382 0.39412 0.0
C692 C 0.04789 0.2813 0.39504 0.0
C693 C 0.06331 0.27022 0.37578 0.0
H694 H 1.00145 0.26406 0.41813 0.0
H695 H 0.06276 0.31162 0.40314 0.0
S696 S 0.02424 0.16933 0.3456 0.0
N697 N 0.99302 0.16432 0.36563 0.0
N698 N 0.05735 0.21675 0.34822 0.0
C699 C 0.04368 0.23063 0.36602 0.0
C700 C 1.00863 0.2023 0.37539 0.0
C701 C 0.82774 0.80718 0.38358 0.0
C702 C 0.82071 0.78475 0.40391 0.0
C703 C 0.79903 0.81366 0.37251 0.0
C704 C 0.76253 0.7986 0.38165 0.0
H705 H 0.85591 0.8205 0.37643 0.0
H706 H 0.80584 0.83157 0.35717 0.0
S707 S 0.7274 0.73475 0.43251 0.0
N708 N 0.77243 0.74412 0.43092 0.0
N709 N 0.71977 0.75868 0.41107 0.0
C710 C 0.75474 0.77571 0.40158 0.0
C711 C 0.78348 0.76818 0.41247 0.0
C712 C 0.23942 0.03277 0.37158 0.0
C713 C 0.21053 0.03529 0.38377 0.0
C714 C 0.23033 0.99922 0.35592 0.0
C715 C 0.19187 0.96753 0.35139 0.0
H716 H 0.26931 0.05682 0.37435 0.0
H717 H 0.25349 0.99829 0.34703 0.0
S718 S 0.10607 0.95896 0.37981 0.0
N719 N 0.14241 1.00266 0.39126 0.0
N720 N 0.12496 0.94009 0.36111 0.0
C721 C 0.16274 0.96962 0.36355 0.0
C722 C 0.17219 1.0034 0.37996 0.0
C723 C 0.52491 0.67611 0.32061 0.0
C724 C 0.53852 0.65488 0.30706 0.0
C725 C 0.55088 0.71098 0.33548 0.0
C726 C 0.5913 0.72558 0.33751 0.0
H727 H 0.49411 0.66619 0.31926 0.0
H728 H 0.53919 0.72687 0.34519 0.0
S729 S 0.64092 0.67826 0.30761 0.0
N730 N 0.59453 0.64948 0.29759 0.0
N731 N 0.64312 0.71404 0.32614 0.0
C732 C 0.60502 0.70372 0.32469 0.0
C733 C 0.57867 0.66862 0.30932 0.0
C734 C 0.33116 0.89584 0.2753 0.0
C735 C 0.36646 0.91364 0.29035 0.0
C736 C 0.29731 0.89228 0.28416 0.0
C737 C 0.29752 0.90659 0.3084 0.0
H738 H 0.32929 0.88302 0.2569 0.0
H739 H 0.27053 0.87694 0.27211 0.0
S740 S 0.38441 0.96042 0.35394 0.0
N741 N 0.40083 0.94906 0.32967 0.0
N742 N 0.33756 0.94274 0.34644 0.0
C743 C 0.33337 0.92651 0.32312 0.0
C744 C 0.36771 0.92989 0.31409 0.0
C745 C 0.18116 0.50386 0.32557 0.0
C746 C 0.14455 0.48961 0.31246 0.0
C747 C 0.18997 0.47886 0.33824 0.0
C748 C 0.16251 0.43853 0.33841 0.0
H749 H 0.20302 0.53488 0.3264 0.0
H750 H 0.21844 0.49145 0.34828 0.0
S751 S 0.06245 0.38632 0.30678 0.0
N752 N 0.08079 0.43241 0.30006 0.0
N753 N 0.09719 0.3853 0.32407 0.0
C754 C 0.12606 0.42358 0.3249 0.0
C755 C 0.11714 0.44913 0.31185 0.0
C756 C 0.32966 0.46289 0.29672 0.0
C757 C 0.36377 0.48295 0.31284 0.0
C758 C 0.29342 0.43865 0.30544 0.0
C759 C 0.28997 0.43334 0.33064 0.0
H760 H 0.33112 0.46499 0.27712 0.0
H761 H 0.26812 0.42327 0.29216 0.0
S762 S 0.37151 0.48134 0.38032 0.0
N763 N 0.39243 0.49734 0.35494 0.0
N764 N 0.32466 0.45213 0.37165 0.0
C765 C 0.32415 0.45436 0.34698 0.0
C766 C 0.36097 0.47904 0.33799 0.0
C767 C 0.54017 0.84614 0.29674 0.0
C768 C 0.53471 0.87486 0.30919 0.0
C769 C 0.57062 0.83996 0.30482 0.0
C770 C 0.59608 0.86189 0.32588 0.0
H771 H 0.51992 0.82729 0.28127 0.0
H772 H 0.57309 0.81664 0.29516 0.0
S773 S 0.59534 0.94305 0.36342 0.0
N774 N 0.55814 0.92715 0.34232 0.0
N775 N 0.61527 0.91573 0.35771 0.0
C776 C 0.59167 0.8919 0.33777 0.0
C777 C 0.56093 0.89832 0.32937 0.0
C778 C 0.19544 0.7176 0.32599 0.0
C779 C 0.15649 0.68855 0.31931 0.0
C780 C 0.2062 0.75731 0.33098 0.0
C781 C 0.17833 0.7693 0.32953 0.0
H782 H 0.21752 0.70936 0.32847 0.0
H783 H 0.23643 0.77854 0.33689 0.0
S784 S 0.07267 0.70435 0.31091 0.0
N785 N 0.09019 0.6741 0.31009 0.0
N786 N 0.11026 0.7489 0.31923 0.0
C787 C 0.13947 0.74063 0.32158 0.0
C788 C 0.12855 0.70011 0.31658 0.0
C789 C 0.77057 1.00057 0.37728 0.0
C790 C 0.81121 0.01918 0.37762 0.0
C791 C 0.74696 0.95971 0.37086 0.0
C792 C 0.76336 0.93643 0.36422 0.0
H793 H 0.75686 0.01789 0.38105 0.0
H794 H 0.71565 0.94667 0.36999 0.0
S795 S 0.86875 0.9712 0.36456 0.0
N796 N 0.86712 0.01143 0.37262 0.0
N797 N 0.82304 0.93479 0.36042 0.0
C798 C 0.80416 0.95464 0.36569 0.0
C799 C 0.82805 0.99607 0.37239 0.0
C800 C 1.00289 0.78073 0.35869 0.0
C801 C 0.99887 0.79204 0.38254 0.0
C802 C 0.03947 0.79727 0.34962 0.0
C803 C 0.07352 0.82571 0.36413 0.0
H804 H 0.97759 0.75854 0.34699 0.0
H805 H 0.04096 0.78711 0.33116 0.0
S806 S 0.07762 0.86609 0.42791 0.0
N807 N 0.03102 0.83369 0.42048 0.0
N808 N 0.10008 0.86519 0.40366 0.0
C809 C 0.06958 0.83763 0.38807 0.0
C810 C 0.03214 0.82068 0.39723 0.0
C811 C 0.24707 0.26216 0.38525 0.0
C812 C 0.22465 0.22077 0.38317 0.0
C813 C 0.23183 0.28486 0.37608 0.0
C814 C 0.19378 0.2668 0.36434 0.0
H815 H 0.27691 0.27707 0.39346 0.0
H816 H 0.25042 0.31667 0.37752 0.0
S817 S 0.12262 0.15913 0.35608 0.0
N818 N 0.16224 0.16256 0.36993 0.0
N819 N 0.13334 0.20489 0.35262 0.0
C820 C 0.17071 0.22535 0.36299 0.0
C821 C 0.18626 0.20237 0.37241 0.0
C822 C 0.70133 0.57112 0.74658 0.0
C823 C 0.66576 0.55418 0.73182 0.0
C824 C 0.73601 0.60014 0.73822 0.0
C825 C 0.73652 0.61344 0.71476 0.0
H826 H 0.70262 0.56088 0.76438 0.0
H827 H 0.76275 0.6114 0.75007 0.0
S828 S 0.64992 0.58178 0.67036 0.0
N829 N 0.63236 0.55525 0.69367 0.0
N830 N 0.69727 0.6095 0.67783 0.0
C831 C 0.70072 0.59788 0.70029 0.0
C832 C 0.66546 0.56836 0.70884 0.0
C833 C 0.48837 0.13357 0.71495 0.0
C834 C 0.48229 0.11089 0.73508 0.0
C835 C 0.45906 0.13977 0.70454 0.0
C836 C 0.42288 0.12415 0.71417 0.0
H837 H 0.51631 0.14748 0.7075 0.0
H838 H 0.46527 0.15811 0.68945 0.0
S839 S 0.3901 0.05942 0.76474 0.0
N840 N 0.43515 0.06935 0.76238 0.0
N841 N 0.3814 0.08342 0.74381 0.0
C842 C 0.41597 0.10089 0.73386 0.0
C843 C 0.44531 0.09365 0.74406 0.0
C844 C 0.85415 0.34837 0.70622 0.0
C845 C 0.89068 0.37102 0.71975 0.0
C846 C 0.8441 0.31276 0.69256 0.0
C847 C 0.87046 0.29886 0.69164 0.0
H848 H 0.83333 0.35843 0.70608 0.0
H849 H 0.81556 0.29622 0.68246 0.0
S850 S 0.97076 0.3489 0.72289 0.0
N851 N 0.95353 0.37779 0.7312 0.0
N852 N 0.93542 0.31172 0.7048 0.0
C853 C 0.90726 0.32155 0.705 0.0
C854 C 0.91717 0.35743 0.71924 0.0
C855 C 0.23947 1.00776 0.63897 0.0
C856 C 0.19887 0.99121 0.63799 0.0
C857 C 0.26478 0.04156 0.65473 0.0
C858 C 0.25058 0.06061 0.66985 0.0
H859 H 0.25178 0.99424 0.62756 0.0
H860 H 0.29575 0.05274 0.65506 0.0
S861 S 0.14656 0.02914 0.674 0.0
N862 N 0.14548 0.99606 0.65355 0.0
N863 N 0.19303 0.06019 0.68289 0.0
C864 C 0.20997 0.04428 0.66912 0.0
C865 C 0.18414 1.00944 0.65327 0.0
C866 C 0.02556 0.22266 0.64865 0.0
C867 C 0.04006 0.24633 0.62903 0.0
C868 C 0.99099 0.21563 0.65818 0.0
C869 C 0.96881 0.23094 0.64805 0.0
H870 H 0.04088 0.20911 0.65671 0.0
H871 H 0.98106 0.19727 0.67325 0.0
S872 S 0.99316 0.29533 0.59724 0.0
N873 N 0.02955 0.28669 0.60074 0.0
N874 N 0.96311 0.27074 0.61762 0.0
C875 C 0.98222 0.25402 0.62829 0.0
C876 C 0.01812 0.26231 0.61901 0.0
C877 C 0.78823 0.78374 0.64813 0.0
C878 C 0.81464 0.82382 0.6462 0.0
C879 C 0.7985 0.76154 0.66286 0.0
C880 C 0.83553 0.77872 0.67603 0.0
H881 H 0.75903 0.76993 0.63899 0.0
H882 H 0.77693 0.73103 0.66445 0.0
S883 S 0.9162 0.88179 0.67491 0.0
N884 N 0.8799 0.87918 0.65723 0.0
N885 N 0.89951 0.83755 0.68457 0.0
C886 C 0.86261 0.81841 0.67338 0.0
C887 C 0.85208 0.84093 0.65852 0.0
C888 C 0.03173 0.80777 0.66954 0.0
C889 C 0.03335 0.82192 0.64643 0.0
C890 C 0.9959 0.78485 0.67911 0.0
C891 C 0.96046 0.77493 0.6657 0.0
H892 H 0.05819 0.81326 0.67993 0.0
H893 H 0.99599 0.77365 0.69673 0.0
S894 S 0.95005 0.80753 0.60468 0.0
N895 N 0.99742 0.82644 0.61079 0.0
N896 N 0.93003 0.78366 0.62852 0.0
C897 C 0.96211 0.79034 0.64284 0.0
C898 C 0.99861 0.81375 0.63324 0.0
C899 C 0.23491 0.24274 0.67706 0.0
C900 C 0.22136 0.24034 0.65254 0.0
C901 C 0.25793 0.22646 0.6836 0.0
C902 C 0.26841 0.20703 0.66583 0.0
H903 H 0.22758 0.2573 0.6914 0.0
H904 H 0.26755 0.22929 0.70286 0.0
S905 S 0.23956 0.19298 0.59867 0.0
N906 N 0.21932 0.21734 0.61022 0.0
N907 N 0.26284 0.1865 0.62225 0.0
C908 C 0.25482 0.20447 0.64104 0.0
C909 C 0.23121 0.22119 0.63444 0.0
C910 C 0.85076 0.03571 0.65786 0.0
C911 C 0.81117 1.00999 0.65052 0.0
C912 C 0.86524 0.07611 0.66368 0.0
C913 C 0.8405 0.09201 0.66244 0.0
H914 H 0.87035 0.02428 0.66027 0.0
H915 H 0.89574 0.0947 0.67019 0.0
S916 S 0.73481 0.03678 0.64199 0.0
N917 N 0.74778 1.00288 0.64064 0.0
N918 N 0.77484 0.079 0.65139 0.0
C919 C 0.80115 0.06674 0.65368 0.0
C920 C 0.78646 0.02555 0.64782 0.0
C921 C 0.45477 0.33156 0.71316 0.0
C922 C 0.494 0.34186 0.71691 0.0
C923 C 0.42538 0.29203 0.70683 0.0
C924 C 0.4347 0.26203 0.70361 0.0
H925 H 0.44698 0.35432 0.71388 0.0
H926 H 0.39566 0.28536 0.70288 0.0
S927 S 0.53273 0.27371 0.71418 0.0
N928 N 0.54027 0.31894 0.7193 0.0
N929 N 0.48537 0.2449 0.7071 0.0
C930 C 0.47359 0.27189 0.70882 0.0
C931 C 0.50325 0.31186 0.71552 0.0
C932 C 0.67218 0.1224 0.69137 0.0
C933 C 0.66679 0.12286 0.71642 0.0
C934 C 0.70952 0.13825 0.68346 0.0
C935 C 0.7431 0.1552 0.70033 0.0
H936 H 0.64724 0.10914 0.67772 0.0
H937 H 0.71189 0.13671 0.66389 0.0
S938 S 0.74385 0.16397 0.76834 0.0
N939 N 0.69726 0.1418 0.7582 0.0
N940 N 0.76773 0.17174 0.74365 0.0
C941 C 0.73784 0.15624 0.7256 0.0
C942 C 0.69961 0.14 0.73358 0.0
C943 C 0.85889 0.54366 0.70352 0.0
C944 C 0.89768 0.56005 0.7133 0.0
C945 C 0.84436 0.56787 0.69621 0.0
C946 C 0.86824 0.60926 0.69834 0.0
H947 H 0.84005 0.51189 0.70063 0.0
H948 H 0.81451 0.55397 0.68816 0.0
S949 S 0.97174 0.66628 0.72402 0.0
N950 N 0.9594 0.61966 0.72574 0.0
N951 N 0.93235 0.66544 0.71202 0.0
C952 C 0.90678 0.62595 0.70903 0.0
C953 C 0.92148 0.60121 0.71646 0.0
C954 C 0.50227 0.96598 0.22762 0.0
C955 C 0.46253 0.93849 0.22841 0.0
C956 C 0.51677 0.98226 0.20574 0.0
C957 C 0.49218 0.97122 0.18377 0.0
H958 H 0.52211 0.97572 0.24418 0.0
H959 H 0.54747 1.00374 0.20602 0.0
S960 S 0.38612 0.89932 0.17587 0.0
N961 N 0.39906 0.90001 0.20514 0.0
N962 N 0.42628 0.93078 0.16414 0.0
C963 C 0.45256 0.94318 0.18422 0.0
C964 C 0.43775 0.92682 0.2065 0.0
C965 C 0.11203 0.52709 0.22266 0.0
C966 C 0.09532 0.53622 0.2421 0.0
C967 C 0.09687 0.52237 0.19811 0.0
C968 C 0.06413 0.52612 0.19207 0.0
H969 H 0.13734 0.5241 0.22643 0.0
H970 H 0.1107 0.51543 0.18376 0.0
S971 S 1.00938 0.54934 0.23614 0.0
N972 N 0.04377 0.54805 0.25359 0.0
N973 N 0.01587 0.54 0.2076 0.0
C974 C 0.0471 0.53507 0.21135 0.0
C975 C 0.06255 0.53996 0.23629 0.0
C976 C 0.50081 0.55103 0.21139 0.0
C977 C 0.50031 0.58395 0.22249 0.0
C978 C 0.50842 0.54921 0.18685 0.0
C979 C 0.51625 0.58038 0.1724 0.0
H980 H 0.4961 0.52669 0.22188 0.0
H981 H 0.50912 0.52354 0.1793 0.0
S982 S 0.51657 0.67242 0.19194 0.0
N983 N 0.50661 0.64779 0.21654 0.0
N984 N 0.52181 0.64463 0.17055 0.0
C985 C 0.51562 0.61339 0.18308 0.0
C986 C 0.50749 0.61513 0.20806 0.0
C987 C 0.97089 0.48879 0.8057 0.0
C988 C 0.93199 0.4627 0.79658 0.0
C989 C 0.98309 0.49283 0.83074 0.0
C990 C 0.95681 0.47111 0.84768 0.0
H991 H 0.99235 0.50505 0.79323 0.0
H992 H 0.01359 0.51256 0.83681 0.0
S993 S 0.85065 0.40235 0.8331 0.0
N994 N 0.86658 0.41738 0.80634 0.0
N995 N 0.88921 0.42473 0.85347 0.0
C996 C 0.91733 0.44644 0.83887 0.0
C997 C 0.90505 0.44219 0.8133 0.0
C998 C 0.53088 0.47851 0.79641 0.0
C999 C 0.57059 0.49162 0.7949 0.0
C1000 C 0.51673 0.48128 0.81882 0.0
C1001 C 0.54163 0.49727 0.84074 0.0
H1002 H 0.51057 0.46652 0.78003 0.0
H1003 H 0.4859 0.47065 0.81898 0.0
S1004 S 0.64805 0.53542 0.84696 0.0
N1005 N 0.63453 0.52029 0.8175 0.0
N1006 N 0.60811 0.52664 0.8595 0.0
C1007 C 0.58139 0.51031 0.83957 0.0
C1008 C 0.59582 0.50734 0.81671 0.0
C1009 C 0.54717 0.05847 0.81654 0.0
C1010 C 0.54934 0.09334 0.80936 0.0
C1011 C 0.5401 0.04778 0.84056 0.0
C1012 C 0.53472 0.07141 0.85832 0.0
H1013 H 0.54882 0.03816 0.80317 0.0
H1014 H 0.53688 0.01979 0.84489 0.0
S1015 S 0.54354 0.16852 0.85005 0.0
N1016 N 0.55012 0.15375 0.82286 0.0
N1017 N 0.53628 0.13331 0.86786 0.0
C1018 C 0.53904 0.10742 0.85181 0.0
C1019 C 0.54651 0.11847 0.82741 0.0
C1020 C 0.1213 0.30414 0.55223 0.0
C1021 C 0.13009 0.27679 0.562 0.0
C1022 C 0.13295 0.3182 0.52944 0.0
C1023 C 0.15358 0.30527 0.51535 0.0
H1024 H 0.10649 0.31592 0.56268 0.0
H1025 H 0.12621 0.33985 0.52293 0.0
S1026 S 0.18202 0.23227 0.53194 0.0
N1027 N 0.15915 0.2359 0.55527 0.0
N1028 N 0.18126 0.26254 0.51243 0.0
C1029 C 0.16149 0.27697 0.52449 0.0
C1030 C 0.14981 0.26279 0.54782 0.0
C1031 C 0.74017 0.82864 0.55999 0.0
C1032 C 0.7707 0.86513 0.571 0.0
C1033 C 0.72533 0.8245 0.53546 0.0
C1034 C 0.74091 0.85652 0.52097 0.0
H1035 H 0.72659 0.80356 0.57069 0.0
H1036 H 0.701 0.79622 0.5279 0.0
S1037 S 0.82284 0.95752 0.54073 0.0
N1038 N 0.81733 0.93326 0.56527 0.0
N1039 N 0.78963 0.92546 0.51918 0.0
C1040 C 0.7725 0.89269 0.5315 0.0
C1041 C 0.7873 0.89701 0.55651 0.0
C1042 C 0.20756 0.93937 0.54801 0.0
C1043 C 0.16861 0.92252 0.55337 0.0
C1044 C 0.2169 0.93747 0.52388 0.0
C1045 C 0.1877 0.91883 0.50413 0.0
H1046 H 0.23101 0.95319 0.56266 0.0
H1047 H 0.24728 0.95044 0.52069 0.0
S1048 S 0.08132 0.87172 0.50815 0.0
N1049 N 0.10068 0.88814 0.53677 0.0
N1050 N 0.11826 0.88395 0.49147 0.0
C1051 C 0.14869 0.90271 0.50913 0.0
C1052 C 0.13915 0.9046 0.53372 0.0
C1053 C 0.57689 0.79042 0.15086 0.0
C1054 C 0.58614 0.77047 0.13276 0.0
C1055 C 0.5891 0.79311 0.17577 0.0
C1056 C 0.61095 0.77588 0.18356 0.0
H1057 H 0.56057 0.8046 0.14568 0.0
H1058 H 0.5819 0.80936 0.18902 0.0
S1059 S 0.64371 0.72118 0.1435 0.0
N1060 N 0.61897 0.73357 0.12441 0.0
N1061 N 0.64155 0.73837 0.17117 0.0
C1062 C 0.61964 0.75506 0.16573 0.0
C1063 C 0.60735 0.75243 0.14036 0.0
C1064 C 0.21198 0.79766 0.13753 0.0
C1065 C 0.22967 0.83127 0.12444 0.0
C1066 C 0.19946 0.79943 0.16079 0.0
C1067 C 0.20426 0.83491 0.17194 0.0
H1068 H 0.20779 0.76971 0.12975 0.0
H1069 H 0.18593 0.77279 0.17013 0.0
S1070 S 0.24654 0.93073 0.14486 0.0
N1071 N 0.2497 0.90073 0.12405 0.0
N1072 N 0.22664 0.90407 0.16776 0.0
C1073 C 0.22193 0.86872 0.1591 0.0
C1074 C 0.2345 0.86691 0.13539 0.0
C1075 C 0.20291 0.43515 0.15767 0.0
C1076 C 0.20532 0.41113 0.13861 0.0
C1077 C 0.19559 0.42286 0.18139 0.0
C1078 C 0.19014 0.38596 0.18688 0.0
H1079 H 0.20568 0.46323 0.15407 0.0
H1080 H 0.19253 0.44164 0.19522 0.0
S1081 S 0.19637 0.31319 0.14419 0.0
N1082 N 0.20321 0.34928 0.12732 0.0
N1083 N 0.19076 0.32696 0.17193 0.0
C1084 C 0.1943 0.36253 0.16834 0.0
C1085 C 0.20161 0.37492 0.14423 0.0
C1086 C 0.81409 0.60437 0.88313 0.0
C1087 C 0.79984 0.62283 0.89875 0.0
C1088 C 0.82767 0.61897 0.86067 0.0
C1089 C 0.82801 0.65286 0.85324 0.0
H1090 H 0.81453 0.57835 0.88824 0.0
H1091 H 0.83867 0.60408 0.84927 0.0
S1092 S 0.79384 0.71202 0.88742 0.0
N1093 N 0.7872 0.67698 0.90519 0.0
N1094 N 0.81212 0.70388 0.86297 0.0
C1095 C 0.81366 0.67141 0.86862 0.0
C1096 C 0.79973 0.65654 0.89136 0.0
C1097 C 0.40811 0.16607 0.89766 0.0
C1098 C 0.43888 0.20307 0.90785 0.0
C1099 C 0.39222 0.16045 0.87325 0.0
C1100 C 0.4068 0.19147 0.85796 0.0
H1101 H 0.39535 0.14156 0.90888 0.0
H1102 H 0.368 0.13168 0.86635 0.0
S1103 S 0.48859 0.29348 0.87535 0.0
N1104 N 0.48454 0.27072 0.90042 0.0
N1105 N 0.45459 0.26024 0.85462 0.0
C1106 C 0.43837 0.22828 0.86769 0.0
C1107 C 0.45435 0.23407 0.8926 0.0
C1108 C 0.8463 0.20815 0.88482 0.0
C1109 C 0.8417 0.23973 0.8937 0.0
C1110 C 0.85472 0.20471 0.86064 0.0
C1111 C 0.85898 0.23271 0.84428 0.0
H1112 H 0.84397 0.18614 0.89676 0.0
H1113 H 0.85792 0.17982 0.85469 0.0
S1114 S 0.84965 0.32082 0.85831 0.0
N1115 N 0.84115 0.29907 0.884 0.0
N1116 N 0.85838 0.29337 0.83877 0.0
C1117 C 0.85433 0.26436 0.85285 0.0
C1118 C 0.84551 0.26776 0.87748 0.0
C1119 C 0.26912 0.08827 0.47614 0.0
C1120 C 0.24816 0.10638 0.46821 0.0
C1121 C 0.28312 0.09278 0.50084 0.0
C1122 C 0.27664 0.11544 0.5187 0.0
H1123 H 0.27628 0.07185 0.463 0.0
H1124 H 0.29997 0.0791 0.50592 0.0
S1125 S 0.22071 0.1663 0.50794 0.0
N1126 N 0.21923 0.14558 0.48055 0.0
N1127 N 0.24611 0.15453 0.52697 0.0
C1128 C 0.25429 0.13229 0.51127 0.0
C1129 C 0.24004 0.12776 0.48604 0.0
C1130 C 0.88685 0.1323 0.47641 0.0
C1131 C 0.90444 0.16501 0.46256 0.0
C1132 C 0.8758 0.13583 0.49991 0.0
C1133 C 0.88139 0.17206 0.51029 0.0
H1134 H 0.88112 0.10363 0.46888 0.0
H1135 H 0.86159 0.1097 0.50967 0.0
S1136 S 0.92746 0.26695 0.48212 0.0
N1137 N 0.9278 0.23509 0.46136 0.0
N1138 N 0.90728 0.24164 0.50547 0.0
C1139 C 0.8998 0.20516 0.49692 0.0
C1140 C 0.9113 0.20167 0.47311 0.0
C1141 C 0.8809 0.72898 0.48611 0.0
C1142 C 0.88366 0.76414 0.47902 0.0
C1143 C 0.87376 0.71825 0.51008 0.0
C1144 C 0.86881 0.74211 0.52788 0.0
H1145 H 0.88229 0.7085 0.47273 0.0
H1146 H 0.87021 0.69011 0.51436 0.0
S1147 S 0.87874 0.83972 0.51988 0.0
N1148 N 0.8852 0.82492 0.49266 0.0
N1149 N 0.87099 0.80427 0.53759 0.0
C1150 C 0.87345 0.77827 0.52147 0.0
C1151 C 0.88108 0.7894 0.4971 0.0
loop_
_geom_bond_atom_site_label_1
_geom_bond_atom_site_label_2
_geom_bond_distance
_geom_bond_site_symmetry_2
_ccdc_geom_bond_type
H0 C3 0.929 . S
H1 C6 0.929 . S
H2 C8 0.930 . S
C3 H0 0.929 . S
C3 C4 1.398 . S
C3 C5 1.396 . S
C4 C3 1.398 . S
C4 C8 1.407 . S
C5 C3 1.396 . S
C5 C6 1.394 . S
C6 H1 0.929 . S
C6 C5 1.394 . S
C6 C7 1.382 . S
C7 C6 1.382 . S
C7 C8 1.392 . S
C7 N9 1.420 . S
C8 H2 0.930 . S
C8 C4 1.407 . S
C8 C7 1.392 . S
N9 C7 1.420 . S
N9 C10 1.244 . S
C10 N9 1.244 . S
H11 C14 0.929 . S
H12 C17 0.929 . S
H13 C19 0.930 . S
C14 H11 0.929 . S
C14 C15 1.398 . S
C14 C16 1.396 . S
C15 C14 1.398 . S
C15 C19 1.407 . S
C16 C14 1.396 . S
C16 C17 1.394 . S
C17 H12 0.929 . S
C17 C16 1.394 . S
C17 C18 1.382 . S
C18 C17 1.382 . S
C18 C19 1.392 . S
C18 N20 1.420 . S
C19 H13 0.930 . S
C19 C15 1.407 . S
C19 C18 1.392 . S
N20 C18 1.420 . S
N20 C21 1.244 . S
C21 N20 1.244 . S
H22 C25 0.929 . S
H23 C28 0.929 . S
H24 C30 0.930 . S
C25 H22 0.929 . S
C25 C26 1.398 . S
C25 C27 1.396 . S
C26 C25 1.398 . S
C26 C30 1.407 . S
C27 C25 1.396 . S
C27 C28 1.394 . S
C28 H23 0.929 . S
C28 C27 1.394 . S
C28 C29 1.382 . S
C29 C28 1.382 . S
C29 C30 1.392 . S
C29 N31 1.420 . S
C30 H24 0.930 . S
C30 C26 1.407 . S
C30 C29 1.392 . S
N31 C29 1.420 . S
N31 C32 1.244 . S
C32 N31 1.244 . S
H33 C36 0.929 . S
H34 C39 0.929 . S
H35 C41 0.930 . S
C36 H33 0.929 . S
C36 C37 1.398 . S
C36 C38 1.396 . S
C37 C36 1.398 . S
C37 C41 1.407 . S
C38 C36 1.396 . S
C38 C39 1.394 . S
C39 H34 0.929 . S
C39 C38 1.394 . S
C39 C40 1.382 . S
C40 C39 1.382 . S
C40 C41 1.392 . S
C40 N42 1.420 . S
C41 H35 0.930 . S
C41 C37 1.407 . S
C41 C40 1.392 . S
N42 C40 1.420 . S
N42 C43 1.244 . S
C43 N42 1.244 . S
H44 C47 0.929 . S
H45 C50 0.929 . S
H46 C52 0.930 . S
C47 H44 0.929 . S
C47 C48 1.398 . S
C47 C49 1.396 . S
C48 C47 1.398 . S
C48 C52 1.407 . S
C49 C47 1.396 . S
C49 C50 1.394 . S
C50 H45 0.929 . S
C50 C49 1.394 . S
C50 C51 1.382 . S
C51 C50 1.382 . S
C51 C52 1.392 . S
C51 N53 1.420 . S
C52 H46 0.930 . S
C52 C48 1.407 . S
C52 C51 1.392 . S
N53 C51 1.420 . S
N53 C54 1.244 . S
C54 N53 1.244 . S
H55 C58 0.929 . S
H56 C61 0.929 . S
H57 C63 0.930 . S
C58 H55 0.929 . S
C58 C59 1.398 . S
C58 C60 1.396 . S
C59 C58 1.398 . S
C59 C63 1.407 . S
C60 C58 1.396 . S
C60 C61 1.394 . S
C61 H56 0.929 . S
C61 C60 1.394 . S
C61 C62 1.382 . S
C62 C61 1.382 . S
C62 C63 1.392 . S
C62 N64 1.420 . S
C63 H57 0.930 . S
C63 C59 1.407 . S
C63 C62 1.392 . S
N64 C62 1.420 . S
N64 C65 1.244 . S
C65 N64 1.244 . S
H66 C69 0.929 . S
H67 C72 0.929 . S
H68 C74 0.930 . S
C69 H66 0.929 . S
C69 C70 1.398 . S
C69 C71 1.396 . S
C70 C69 1.398 . S
C70 C74 1.407 . S
C71 C69 1.396 . S
C71 C72 1.394 . S
C72 H67 0.929 . S
C72 C71 1.394 . S
C72 C73 1.382 . S
C73 C72 1.382 . S
C73 C74 1.392 . S
C73 N75 1.420 . S
C74 H68 0.930 . S
C74 C70 1.407 . S
C74 C73 1.392 . S
N75 C73 1.420 . S
N75 C76 1.244 . S
C76 N75 1.244 . S
H77 C80 0.929 . S
H78 C83 0.929 . S
H79 C85 0.930 . S
C80 H77 0.929 . S
C80 C81 1.398 . S
C80 C82 1.396 . S
C81 C80 1.398 . S
C81 C85 1.407 . S
C82 C80 1.396 . S
C82 C83 1.394 . S
C83 H78 0.929 . S
C83 C82 1.394 . S
C83 C84 1.382 . S
C84 C83 1.382 . S
C84 C85 1.392 . S
C84 N86 1.420 . S
C85 H79 0.930 . S
C85 C81 1.407 . S
C85 C84 1.392 . S
N86 C84 1.420 . S
N86 C87 1.244 . S
C87 N86 1.244 . S
H88 C91 0.929 . S
H89 C94 0.929 . S
H90 C96 0.930 . S
C91 H88 0.929 . S
C91 C92 1.398 . S
C91 C93 1.396 . S
C92 C91 1.398 . S
C92 C96 1.407 . S
C93 C91 1.396 . S
C93 C94 1.394 . S
C94 H89 0.929 . S
C94 C93 1.394 . S
C94 C95 1.382 . S
C95 C94 1.382 . S
C95 C96 1.392 . S
C95 N97 1.420 . S
C96 H90 0.930 . S
C96 C92 1.407 . S
C96 C95 1.392 . S
N97 C95 1.420 . S
N97 C98 1.244 . S
C98 N97 1.244 . S
H99 C102 0.929 . S
H100 C105 0.929 . S
H101 C107 0.930 . S
C102 H99 0.929 . S
C102 C103 1.398 . S
C102 C104 1.396 . S
C103 C102 1.398 . S
C103 C107 1.407 . S
C104 C102 1.396 . S
C104 C105 1.394 . S
C105 H100 0.929 . S
C105 C104 1.394 . S
C105 C106 1.382 . S
C106 C105 1.382 . S
C106 C107 1.392 . S
C106 N108 1.420 . S
C107 H101 0.930 . S
C107 C103 1.407 . S
C107 C106 1.392 . S
N108 C106 1.420 . S
N108 C109 1.244 . S
C109 N108 1.244 . S
H110 C113 0.929 . S
H111 C116 0.929 . S
H112 C118 0.930 1_554 S
C113 H110 0.929 . S
C113 C114 1.398 . S
C113 C115 1.396 . S
C114 C113 1.398 . S
C114 C118 1.407 . S
C115 C113 1.396 . S
C115 C116 1.394 . S
C116 H111 0.929 . S
C116 C115 1.394 . S
C116 C117 1.382 . S
C117 C116 1.382 . S
C117 C118 1.392 . S
C117 N119 1.420 . S
C118 H112 0.930 1_556 S
C118 C114 1.407 . S
C118 C117 1.392 . S
N119 C117 1.420 . S
N119 C120 1.244 . S
C120 N119 1.244 . S
H121 C124 0.929 . S
H122 C127 0.929 . S
H123 C129 0.930 . S
C124 H121 0.929 . S
C124 C125 1.398 . S
C124 C126 1.396 . S
C125 C124 1.398 . S
C125 C129 1.407 . S
C126 C124 1.396 . S
C126 C127 1.394 . S
C127 H122 0.929 . S
C127 C126 1.394 . S
C127 C128 1.382 . S
C128 C127 1.382 . S
C128 C129 1.392 . S
C128 N130 1.420 . S
C129 H123 0.930 . S
C129 C125 1.407 . S
C129 C128 1.392 . S
N130 C128 1.420 . S
N130 C131 1.244 . S
C131 N130 1.244 . S
H132 C135 0.929 . S
H133 C138 0.929 . S
H134 C140 0.930 . S
C135 H132 0.929 . S
C135 C136 1.398 . S
C135 C137 1.396 . S
C136 C135 1.398 . S
C136 C140 1.407 . S
C137 C135 1.396 . S
C137 C138 1.394 . S
C138 H133 0.929 . S
C138 C137 1.394 . S
C138 C139 1.382 . S
C139 C138 1.382 . S
C139 C140 1.392 . S
C139 N141 1.420 . S
C140 H134 0.930 . S
C140 C136 1.407 . S
C140 C139 1.392 . S
N141 C139 1.420 . S
N141 C142 1.244 . S
C142 N141 1.244 . S
H143 C146 0.929 . S
H144 C149 0.929 . S
H145 C151 0.930 . S
C146 H143 0.929 . S
C146 C147 1.398 . S
C146 C148 1.396 . S
C147 C146 1.398 . S
C147 C151 1.407 . S
C148 C146 1.396 . S
C148 C149 1.394 . S
C149 H144 0.929 . S
C149 C148 1.394 . S
C149 C150 1.382 . S
C150 C149 1.382 . S
C150 C151 1.392 . S
C150 N152 1.420 . S
C151 H145 0.930 . S
C151 C147 1.407 . S
C151 C150 1.392 . S
N152 C150 1.420 . S
N152 C153 1.244 . S
C153 N152 1.244 . S
H154 C157 0.929 . S
H155 C160 0.929 . S
H156 C162 0.930 . S
C157 H154 0.929 . S
C157 C158 1.398 . S
C157 C159 1.396 . S
C158 C157 1.398 . S
C158 C162 1.407 . S
C159 C157 1.396 . S
C159 C160 1.394 . S
C160 H155 0.929 . S
C160 C159 1.394 . S
C160 C161 1.382 . S
C161 C160 1.382 . S
C161 C162 1.392 . S
C161 N163 1.420 . S
C162 H156 0.930 . S
C162 C158 1.407 . S
C162 C161 1.392 . S
N163 C161 1.420 . S
N163 C164 1.244 . S
C164 N163 1.244 . S
H165 C168 0.929 . S
H166 C171 0.929 . S
H167 C173 0.930 . S
C168 H165 0.929 . S
C168 C169 1.398 . S
C168 C170 1.396 . S
C169 C168 1.398 . S
C169 C173 1.407 . S
C170 C168 1.396 . S
C170 C171 1.394 . S
C171 H166 0.929 . S
C171 C170 1.394 . S
C171 C172 1.382 . S
C172 C171 1.382 . S
C172 C173 1.392 . S
C172 N174 1.420 . S
C173 H167 0.930 . S
C173 C169 1.407 . S
C173 C172 1.392 . S
N174 C172 1.420 . S
N174 C175 1.244 . S
C175 N174 1.244 . S
H176 C179 0.929 . S
H177 C182 0.929 . S
H178 C184 0.930 . S
C179 H176 0.929 . S
C179 C180 1.398 . S
C179 C181 1.396 . S
C180 C179 1.398 . S
C180 C184 1.407 . S
C181 C179 1.396 . S
C181 C182 1.394 . S
C182 H177 0.929 . S
C182 C181 1.394 . S
C182 C183 1.382 . S
C183 C182 1.382 . S
C183 C184 1.392 . S
C183 N185 1.420 . S
C184 H178 0.930 . S
C184 C180 1.407 . S
C184 C183 1.392 . S
N185 C183 1.420 . S
N185 C186 1.244 . S
C186 N185 1.244 . S
H187 C190 0.929 . S
H188 C193 0.929 . S
H189 C195 0.930 . S
C190 H187 0.929 . S
C190 C191 1.398 . S
C190 C192 1.396 . S
C191 C190 1.398 . S
C191 C195 1.407 . S
C192 C190 1.396 . S
C192 C193 1.394 . S
C193 H188 0.929 . S
C193 C192 1.394 . S
C193 C194 1.382 . S
C194 C193 1.382 . S
C194 C195 1.392 . S
C194 N196 1.420 . S
C195 H189 0.930 . S
C195 C191 1.407 . S
C195 C194 1.392 . S
N196 C194 1.420 . S
N196 C197 1.244 . S
C197 N196 1.244 . S
C198 Eu199 2.835 . S
C198 C200 1.500 1_545 S
C198 O218 1.257 1_545 S
C198 O219 1.260 . S
Eu199 C198 2.835 . S
Eu199 O218 2.473 1_545 S
Eu199 O219 2.480 . S
Eu199 O220 2.430 . S
Eu199 O221 2.670 1_554 S
Eu199 O222 2.394 1_545 S
Eu199 O227 2.355 1_545 S
Eu199 O229 2.374 . S
C200 C198 1.500 1_565 S
C200 C201 1.377 1_565 S
C200 C205 1.377 . S
C201 C200 1.377 1_545 S
C201 C202 1.395 . S
C201 H230 0.931 . S
C202 C201 1.395 . S
C202 C203 1.383 1_545 S
C202 H231 0.931 . S
C203 C202 1.383 1_565 S
C203 C204 1.394 . S
C204 C203 1.394 . S
C204 C205 1.378 . S
C204 H232 0.931 . S
C205 C200 1.377 . S
C205 C204 1.378 . S
C205 H233 0.931 . S
C206 O220 1.259 . S
C206 O221 1.270 1_554 S
C207 O222 1.251 . S
C207 O223 1.251 1_554 S
C208 Eu209 2.835 1_545 S
C208 C210 1.500 . S
C208 O224 1.257 . S
C208 O225 1.260 1_545 S
Eu209 C208 2.835 1_565 S
Eu209 O221 2.355 1_565 S
Eu209 O223 2.374 . S
Eu209 O224 2.473 1_565 S
Eu209 O225 2.480 . S
Eu209 O226 2.430 . S
Eu209 O227 2.670 1_556 S
Eu209 O228 2.394 1_565 S
C210 C208 1.500 . S
C210 C211 1.373 1_545 S
C210 C215 1.377 . S
C211 C210 1.373 1_565 S
C211 C212 1.394 1_565 S
C211 H234 0.935 . S
C212 C211 1.394 1_545 S
C212 C213 1.383 . S
C212 H235 0.931 1_545 S
C213 C212 1.383 . S
C213 C214 1.394 . S
C214 C213 1.394 . S
C214 C215 1.378 . S
C214 H236 0.931 . S
C215 C210 1.377 . S
C215 C214 1.378 . S
C215 H237 0.931 . S
C216 O226 1.259 1_554 S
C216 O227 1.270 . S
C217 O228 1.251 . S
C217 O229 1.251 1_556 S
O218 C198 1.257 1_565 S
O218 Eu199 2.473 1_565 S
O219 C198 1.260 . S
O219 Eu199 2.480 . S
O220 Eu199 2.430 . S
O220 C206 1.259 . S
O221 Eu199 2.670 1_556 S
O221 C206 1.270 1_556 S
O221 Eu209 2.355 1_545 S
O222 Eu199 2.394 1_565 S
O222 C207 1.251 . S
O223 C207 1.251 1_556 S
O223 Eu209 2.374 . S
O224 C208 1.257 . S
O224 Eu209 2.473 1_545 S
O225 C208 1.260 1_565 S
O225 Eu209 2.480 . S
O226 Eu209 2.430 . S
O226 C216 1.259 1_556 S
O227 Eu199 2.355 1_565 S
O227 Eu209 2.670 1_554 S
O227 C216 1.270 . S
O228 Eu209 2.394 1_545 S
O228 C217 1.251 . S
O229 Eu199 2.374 . S
O229 C217 1.251 1_554 S
H230 C201 0.931 . S
H231 C202 0.931 . S
H232 C204 0.931 . S
H233 C205 0.931 . S
H234 C211 0.935 . S
H235 C212 0.931 1_565 S
H236 C214 0.931 . S
H237 C215 0.931 . S
C238 Eu239 2.835 1_455 S
C238 C240 1.500 . S
C238 O258 1.257 . S
C238 O259 1.260 1_455 S
Eu239 C238 2.835 1_655 S
Eu239 O258 2.473 1_655 S
Eu239 O259 2.480 . S
Eu239 O260 2.430 . S
Eu239 O261 2.670 1_554 S
Eu239 O262 2.394 1_655 S
Eu239 O267 2.355 1_655 S
Eu239 O269 2.374 . S
C240 C238 1.500 . S
C240 C241 1.377 . S
C240 C245 1.377 . S
C241 C240 1.377 . S
C241 C242 1.395 . S
C241 H270 0.931 1_455 S
C242 C241 1.395 . S
C242 C243 1.383 . S
C242 H271 0.931 1_455 S
C243 C242 1.383 . S
C243 C244 1.394 . S
C244 C243 1.394 . S
C244 C245 1.378 . S
C244 H272 0.931 . S
C245 C240 1.377 . S
C245 C244 1.378 . S
C245 H273 0.931 . S
C246 O260 1.259 1_556 S
C246 O261 1.270 . S
C247 O262 1.251 . S
C247 O263 1.250 1_554 S
C248 Eu249 2.835 1_655 S
C248 C250 1.500 . S
C248 O264 1.257 . S
C248 O265 1.260 1_655 S
Eu249 C248 2.835 1_455 S
Eu249 O261 2.355 1_455 S
Eu249 O263 2.374 . S
Eu249 O264 2.473 1_455 S
Eu249 O265 2.480 . S
Eu249 O266 2.430 . S
Eu249 O267 2.670 1_556 S
Eu249 O268 2.394 1_455 S
C250 C248 1.500 . S
C250 C251 1.377 1_655 S
C250 C255 1.377 . S
C251 C250 1.377 1_455 S
C251 C252 1.395 1_455 S
C251 H274 0.931 . S
C252 C251 1.395 1_655 S
C252 C253 1.383 . S
C252 H275 0.931 1_655 S
C253 C252 1.383 . S
C253 C254 1.394 . S
C254 C253 1.394 . S
C254 C255 1.378 . S
C254 H276 0.931 . S
C255 C250 1.377 . S
C255 C254 1.378 . S
C255 H277 0.931 . S
C256 O266 1.259 1_554 S
C256 O267 1.270 . S
C257 O268 1.251 . S
C257 O269 1.251 1_556 S
O258 C238 1.257 . S
O258 Eu239 2.473 1_455 S
O259 C238 1.260 1_655 S
O259 Eu239 2.480 . S
O260 Eu239 2.430 . S
O260 C246 1.259 1_554 S
O261 Eu239 2.670 1_556 S
O261 C246 1.270 . S
O261 Eu249 2.355 1_655 S
O262 Eu239 2.394 1_455 S
O262 C247 1.251 . S
O263 C247 1.250 1_556 S
O263 Eu249 2.374 . S
O264 C248 1.257 . S
O264 Eu249 2.473 1_655 S
O265 C248 1.260 1_455 S
O265 Eu249 2.480 . S
O266 Eu249 2.430 . S
O266 C256 1.259 1_556 S
O267 Eu239 2.355 1_455 S
O267 Eu249 2.670 1_554 S
O267 C256 1.270 . S
O268 Eu249 2.394 1_655 S
O268 C257 1.251 . S
O269 Eu239 2.374 . S
O269 C257 1.251 1_554 S
H270 C241 0.931 1_655 S
H271 C242 0.931 1_655 S
H272 C244 0.931 . S
H273 C245 0.931 . S
H274 C251 0.931 . S
H275 C252 0.931 1_455 S
H276 C254 0.931 . S
H277 C255 0.931 . S
C278 Eu279 2.835 . S
C278 C280 1.500 . S
C278 O298 1.257 . S
C278 O299 1.260 . S
Eu279 C278 2.835 . S
Eu279 O298 2.473 . S
Eu279 O299 2.480 . S
Eu279 O300 2.430 . S
Eu279 O301 2.670 1_556 S
Eu279 O302 2.394 . S
Eu279 O307 2.355 . S
Eu279 O309 2.374 1_556 S
C280 C278 1.500 . S
C280 C281 1.377 . S
C280 C285 1.377 . S
C281 C280 1.377 . S
C281 C282 1.395 . S
C281 H310 0.931 . S
C282 C281 1.395 . S
C282 C283 1.383 . S
C282 H311 0.931 . S
C283 C282 1.383 . S
C283 C284 1.394 . S
C284 C283 1.394 . S
C284 C285 1.378 . S
C284 H312 0.931 . S
C285 C280 1.377 . S
C285 C284 1.378 . S
C285 H313 0.931 . S
C286 O300 1.259 1_554 S
C286 O301 1.270 . S
C287 O302 1.251 . S
C287 O303 1.251 1_556 S
C288 Eu289 2.835 . S
C288 C290 1.500 . S
C288 O304 1.257 . S
C288 O305 1.260 . S
Eu289 C288 2.835 . S
Eu289 O301 2.355 . S
Eu289 O303 2.374 . S
Eu289 O304 2.473 . S
Eu289 O305 2.480 . S
Eu289 O306 2.430 . S
Eu289 O307 2.670 1_554 S
Eu289 O308 2.394 . S
C290 C288 1.500 . S
C290 C291 1.377 . S
C290 C295 1.377 . S
C291 C290 1.377 . S
C291 C292 1.395 . S
C291 H314 0.931 . S
C292 C291 1.395 . S
C292 C293 1.383 . S
C292 H315 0.931 . S
C293 C292 1.383 . S
C293 C294 1.394 . S
C294 C293 1.394 . S
C294 C295 1.378 . S
C294 H316 0.931 . S
C295 C290 1.377 . S
C295 C294 1.378 . S
C295 H317 0.931 . S
C296 O306 1.259 . S
C296 O307 1.270 1_554 S
C297 O308 1.251 . S
C297 O309 1.251 . S
O298 C278 1.257 . S
O298 Eu279 2.473 . S
O299 C278 1.260 . S
O299 Eu279 2.480 . S
O300 Eu279 2.430 . S
O300 C286 1.259 1_556 S
O301 Eu279 2.670 1_554 S
O301 C286 1.270 . S
O301 Eu289 2.355 . S
O302 Eu279 2.394 . S
O302 C287 1.251 . S
O303 C287 1.251 1_554 S
O303 Eu289 2.374 . S
O304 C288 1.257 . S
O304 Eu289 2.473 . S
O305 C288 1.260 . S
O305 Eu289 2.480 . S
O306 Eu289 2.430 . S
O306 C296 1.259 . S
O307 Eu279 2.355 . S
O307 Eu289 2.670 1_556 S
O307 C296 1.270 1_556 S
O308 Eu289 2.394 . S
O308 C297 1.251 . S
O309 Eu279 2.374 1_554 S
O309 C297 1.251 . S
H310 C281 0.931 . S
H311 C282 0.931 . S
H312 C284 0.931 . S
H313 C285 0.931 . S
H314 C291 0.931 . S
H315 C292 0.931 . S
H316 C294 0.931 . S
H317 C295 0.931 . S
C318 Eu319 2.835 . S
C318 C320 1.500 . S
C318 O338 1.257 . S
C318 O339 1.260 . S
Eu319 C318 2.835 . S
Eu319 O338 2.473 . S
Eu319 O339 2.480 . S
Eu319 O340 2.430 . S
Eu319 O341 2.670 . S
Eu319 O342 2.394 . S
Eu319 O347 2.355 . S
Eu319 O349 2.374 . S
C320 C318 1.500 . S
C320 C321 1.377 . S
C320 C325 1.377 . S
C321 C320 1.377 . S
C321 C322 1.395 . S
C321 H350 0.931 . S
C322 C321 1.395 . S
C322 C323 1.383 . S
C322 H351 0.931 . S
C323 C322 1.383 . S
C323 C324 1.394 . S
C324 C323 1.394 . S
C324 C325 1.378 . S
C324 H352 0.931 . S
C325 C320 1.377 . S
C325 C324 1.378 . S
C325 H353 0.931 . S
C326 O340 1.259 . S
C326 O341 1.270 . S
C327 O342 1.251 . S
C327 O343 1.251 . S
C328 Eu329 2.835 . S
C328 C330 1.500 . S
C328 O344 1.257 . S
C328 O345 1.260 . S
Eu329 C328 2.835 . S
Eu329 O341 2.355 . S
Eu329 O343 2.374 . S
Eu329 O344 2.473 . S
Eu329 O345 2.480 . S
Eu329 O346 2.430 . S
Eu329 O347 2.670 . S
Eu329 O348 2.394 . S
C330 C328 1.500 . S
C330 C331 1.377 . S
C330 C335 1.377 . S
C331 C330 1.377 . S
C331 C332 1.395 . S
C331 H354 0.931 . S
C332 C331 1.395 . S
C332 C333 1.383 . S
C332 H355 0.931 . S
C333 C332 1.383 . S
C333 C334 1.394 . S
C334 C333 1.394 . S
C334 C335 1.378 . S
C334 H356 0.931 . S
C335 C330 1.377 . S
C335 C334 1.378 . S
C335 H357 0.931 . S
C336 O346 1.259 . S
C336 O347 1.270 . S
C337 O348 1.251 . S
C337 O349 1.251 . S
O338 C318 1.257 . S
O338 Eu319 2.473 . S
O339 C318 1.260 . S
O339 Eu319 2.480 . S
O340 Eu319 2.430 . S
O340 C326 1.259 . S
O341 Eu319 2.670 . S
O341 C326 1.270 . S
O341 Eu329 2.355 . S
O342 Eu319 2.394 . S
O342 C327 1.251 . S
O343 C327 1.251 . S
O343 Eu329 2.374 . S
O344 C328 1.257 . S
O344 Eu329 2.473 . S
O345 C328 1.260 . S
O345 Eu329 2.480 . S
O346 Eu329 2.430 . S
O346 C336 1.259 . S
O347 Eu319 2.355 . S
O347 Eu329 2.670 . S
O347 C336 1.270 . S
O348 Eu329 2.394 . S
O348 C337 1.251 . S
O349 Eu319 2.374 . S
O349 C337 1.251 . S
H350 C321 0.931 . S
H351 C322 0.931 . S
H352 C324 0.931 . S
H353 C325 0.931 . S
H354 C331 0.931 . S
H355 C332 0.931 . S
H356 C334 0.931 . S
H357 C335 0.931 . S
C358 Eu359 2.835 . S
C358 C360 1.500 . S
C358 O378 1.257 . S
C358 O379 1.260 . S
Eu359 C358 2.835 . S
Eu359 O378 2.473 . S
Eu359 O379 2.480 . S
Eu359 O380 2.430 . S
Eu359 O381 2.670 . S
Eu359 O382 2.394 . S
Eu359 O387 2.355 . S
Eu359 O389 2.374 . S
C360 C358 1.500 . S
C360 C361 1.377 . S
C360 C365 1.377 . S
C361 C360 1.377 . S
C361 C362 1.395 . S
C361 H390 0.931 . S
C362 C361 1.395 . S
C362 C363 1.383 . S
C362 H391 0.931 . S
C363 C362 1.383 . S
C363 C364 1.394 . S
C364 C363 1.394 . S
C364 C365 1.378 . S
C364 H392 0.931 . S
C365 C360 1.377 . S
C365 C364 1.378 . S
C365 H393 0.931 . S
C366 O380 1.259 . S
C366 O381 1.270 . S
C367 O382 1.251 . S
C367 O383 1.251 . S
C368 Eu369 2.835 . S
C368 C370 1.500 . S
C368 O384 1.257 . S
C368 O385 1.260 . S
Eu369 C368 2.835 . S
Eu369 O381 2.355 . S
Eu369 O383 2.374 . S
Eu369 O384 2.473 . S
Eu369 O385 2.480 . S
Eu369 O386 2.430 . S
Eu369 O387 2.670 . S
Eu369 O388 2.394 . S
C370 C368 1.500 . S
C370 C371 1.377 . S
C370 C375 1.377 . S
C371 C370 1.377 . S
C371 C372 1.395 . S
C371 H394 0.931 . S
C372 C371 1.395 . S
C372 C373 1.383 . S
C372 H395 0.931 . S
C373 C372 1.383 . S
C373 C374 1.394 . S
C374 C373 1.394 . S
C374 C375 1.378 . S
C374 H396 0.931 . S
C375 C370 1.377 . S
C375 C374 1.378 . S
C375 H397 0.931 . S
C376 O386 1.259 . S
C376 O387 1.270 . S
C377 O388 1.251 . S
C377 O389 1.251 . S
O378 C358 1.257 . S
O378 Eu359 2.473 . S
O379 C358 1.260 . S
O379 Eu359 2.480 . S
O380 Eu359 2.430 . S
O380 C366 1.259 . S
O381 Eu359 2.670 . S
O381 C366 1.270 . S
O381 Eu369 2.355 . S
O382 Eu359 2.394 . S
O382 C367 1.251 . S
O383 C367 1.251 . S
O383 Eu369 2.374 . S
O384 C368 1.257 . S
O384 Eu369 2.473 . S
O385 C368 1.260 . S
O385 Eu369 2.480 . S
O386 Eu369 2.430 . S
O386 C376 1.259 . S
O387 Eu359 2.355 . S
O387 Eu369 2.670 . S
O387 C376 1.270 . S
O388 Eu369 2.394 . S
O388 C377 1.251 . S
O389 Eu359 2.374 . S
O389 C377 1.251 . S
H390 C361 0.931 . S
H391 C362 0.931 . S
H392 C364 0.931 . S
H393 C365 0.931 . S
H394 C371 0.931 . S
H395 C372 0.931 . S
H396 C374 0.931 . S
H397 C375 0.931 . S
C398 Eu399 2.835 . S
C398 C400 1.500 . S
C398 O418 1.257 . S
C398 O419 1.260 . S
Eu399 C398 2.835 . S
Eu399 O418 2.473 . S
Eu399 O419 2.480 . S
Eu399 O420 2.430 . S
Eu399 O421 2.670 . S
Eu399 O422 2.394 . S
Eu399 O427 2.355 . S
Eu399 O429 2.374 . S
C400 C398 1.500 . S
C400 C401 1.377 . S
C400 C405 1.377 . S
C401 C400 1.377 . S
C401 C402 1.395 . S
C401 H430 0.931 . S
C402 C401 1.395 . S
C402 C403 1.383 . S
C402 H431 0.931 . S
C403 C402 1.383 . S
C403 C404 1.394 . S
C404 C403 1.394 . S
C404 C405 1.378 . S
C404 H432 0.931 . S
C405 C400 1.377 . S
C405 C404 1.378 . S
C405 H433 0.931 . S
C406 O420 1.259 . S
C406 O421 1.270 . S
C407 O422 1.251 . S
C407 O423 1.251 . S
C408 Eu409 2.835 . S
C408 C410 1.500 . S
C408 O424 1.257 . S
C408 O425 1.260 . S
Eu409 C408 2.835 . S
Eu409 O421 2.355 . S
Eu409 O423 2.374 . S
Eu409 O424 2.473 . S
Eu409 O425 2.480 . S
Eu409 O426 2.430 . S
Eu409 O427 2.670 . S
Eu409 O428 2.394 . S
C410 C408 1.500 . S
C410 C411 1.377 . S
C410 C415 1.377 . S
C411 C410 1.377 . S
C411 C412 1.395 . S
C411 H434 0.931 . S
C412 C411 1.395 . S
C412 C413 1.383 . S
C412 H435 0.931 . S
C413 C412 1.383 . S
C413 C414 1.394 . S
C414 C413 1.394 . S
C414 C415 1.378 . S
C414 H436 0.931 . S
C415 C410 1.377 . S
C415 C414 1.378 . S
C415 H437 0.931 . S
C416 O426 1.259 . S
C416 O427 1.270 . S
C417 O428 1.251 . S
C417 O429 1.251 . S
O418 C398 1.257 . S
O418 Eu399 2.473 . S
O419 C398 1.260 . S
O419 Eu399 2.480 . S
O420 Eu399 2.430 . S
O420 C406 1.259 . S
O421 Eu399 2.670 . S
O421 C406 1.270 . S
O421 Eu409 2.355 . S
O422 Eu399 2.394 . S
O422 C407 1.251 . S
O423 C407 1.251 . S
O423 Eu409 2.374 . S
O424 C408 1.257 . S
O424 Eu409 2.473 . S
O425 C408 1.260 . S
O425 Eu409 2.480 . S
O426 Eu409 2.430 . S
O426 C416 1.259 . S
O427 Eu399 2.355 . S
O427 Eu409 2.670 . S
O427 C416 1.270 . S
O428 Eu409 2.394 . S
O428 C417 1.251 . S
O429 Eu399 2.374 . S
O429 C417 1.251 . S
H430 C401 0.931 . S
H431 C402 0.931 . S
H432 C404 0.931 . S
H433 C405 0.931 . S
H434 C411 0.931 . S
H435 C412 0.931 . S
H436 C414 0.931 . S
H437 C415 0.931 . S
C438 Eu439 2.835 . S
C438 C440 1.500 . S
C438 O458 1.257 . S
C438 O459 1.260 . S
Eu439 C438 2.835 . S
Eu439 O458 2.473 . S
Eu439 O459 2.480 . S
Eu439 O460 2.430 . S
Eu439 O461 2.670 . S
Eu439 O462 2.394 . S
Eu439 O467 2.355 . S
Eu439 O469 2.374 . S
C440 C438 1.500 . S
C440 C441 1.377 . S
C440 C445 1.377 . S
C441 C440 1.377 . S
C441 C442 1.395 . S
C441 H470 0.931 . S
C442 C441 1.395 . S
C442 C443 1.383 . S
C442 H471 0.931 . S
C443 C442 1.383 . S
C443 C444 1.394 . S
C444 C443 1.394 . S
C444 C445 1.378 . S
C444 H472 0.931 . S
C445 C440 1.377 . S
C445 C444 1.378 . S
C445 H473 0.931 . S
C446 O460 1.259 . S
C446 O461 1.270 . S
C447 O462 1.251 . S
C447 O463 1.251 . S
C448 Eu449 2.835 . S
C448 C450 1.500 . S
C448 O464 1.257 . S
C448 O465 1.260 . S
Eu449 C448 2.835 . S
Eu449 O461 2.355 . S
Eu449 O463 2.374 . S
Eu449 O464 2.473 . S
Eu449 O465 2.480 . S
Eu449 O466 2.430 . S
Eu449 O467 2.670 . S
Eu449 O468 2.394 . S
C450 C448 1.500 . S
C450 C451 1.377 . S
C450 C455 1.377 . S
C451 C450 1.377 . S
C451 C452 1.395 . S
C451 H474 0.931 . S
C452 C451 1.395 . S
C452 C453 1.383 . S
C452 H475 0.931 . S
C453 C452 1.383 . S
C453 C454 1.394 . S
C454 C453 1.394 . S
C454 C455 1.378 . S
C454 H476 0.931 . S
C455 C450 1.377 . S
C455 C454 1.378 . S
C455 H477 0.931 . S
C456 O466 1.259 . S
C456 O467 1.270 . S
C457 O468 1.251 . S
C457 O469 1.251 . S
O458 C438 1.257 . S
O458 Eu439 2.473 . S
O459 C438 1.260 . S
O459 Eu439 2.480 . S
O460 Eu439 2.430 . S
O460 C446 1.259 . S
O461 Eu439 2.670 . S
O461 C446 1.270 . S
O461 Eu449 2.355 . S
O462 Eu439 2.394 . S
O462 C447 1.251 . S
O463 C447 1.251 . S
O463 Eu449 2.374 . S
O464 C448 1.257 . S
O464 Eu449 2.473 . S
O465 C448 1.260 . S
O465 Eu449 2.480 . S
O466 Eu449 2.430 . S
O466 C456 1.259 . S
O467 Eu439 2.355 . S
O467 Eu449 2.670 . S
O467 C456 1.270 . S
O468 Eu449 2.394 . S
O468 C457 1.251 . S
O469 Eu439 2.374 . S
O469 C457 1.251 . S
H470 C441 0.931 . S
H471 C442 0.931 . S
H472 C444 0.931 . S
H473 C445 0.931 . S
H474 C451 0.931 . S
H475 C452 0.931 . S
H476 C454 0.931 . S
H477 C455 0.931 . S
C478 Eu479 2.835 . S
C478 C480 1.500 . S
C478 O498 1.257 . S
C478 O499 1.260 . S
Eu479 C478 2.835 . S
Eu479 O498 2.473 . S
Eu479 O499 2.480 . S
Eu479 O500 2.430 . S
Eu479 O501 2.670 . S
Eu479 O502 2.394 . S
Eu479 O507 2.355 . S
Eu479 O509 2.374 . S
C480 C478 1.500 . S
C480 C481 1.377 . S
C480 C485 1.377 . S
C481 C480 1.377 . S
C481 C482 1.395 . S
C481 H510 0.931 . S
C482 C481 1.395 . S
C482 C483 1.383 . S
C482 H511 0.931 . S
C483 C482 1.383 . S
C483 C484 1.394 . S
C484 C483 1.394 . S
C484 C485 1.378 . S
C484 H512 0.931 . S
C485 C480 1.377 . S
C485 C484 1.378 . S
C485 H513 0.931 . S
C486 O500 1.259 . S
C486 O501 1.270 . S
C487 O502 1.251 . S
C487 O503 1.251 . S
C488 Eu489 2.835 . S
C488 C490 1.500 . S
C488 O504 1.257 . S
C488 O505 1.260 . S
Eu489 C488 2.835 . S
Eu489 O501 2.355 . S
Eu489 O503 2.374 . S
Eu489 O504 2.473 . S
Eu489 O505 2.480 . S
Eu489 O506 2.430 . S
Eu489 O507 2.670 . S
Eu489 O508 2.394 . S
C490 C488 1.500 . S
C490 C491 1.377 . S
C490 C495 1.377 . S
C491 C490 1.377 . S
C491 C492 1.395 . S
C491 H514 0.931 . S
C492 C491 1.395 . S
C492 C493 1.383 . S
C492 H515 0.931 . S
C493 C492 1.383 . S
C493 C494 1.394 . S
C494 C493 1.394 . S
C494 C495 1.378 . S
C494 H516 0.931 . S
C495 C490 1.377 . S
C495 C494 1.378 . S
C495 H517 0.931 . S
C496 O506 1.259 . S
C496 O507 1.270 . S
C497 O508 1.251 . S
C497 O509 1.251 . S
O498 C478 1.257 . S
O498 Eu479 2.473 . S
O499 C478 1.260 . S
O499 Eu479 2.480 . S
O500 Eu479 2.430 . S
O500 C486 1.259 . S
O501 Eu479 2.670 . S
O501 C486 1.270 . S
O501 Eu489 2.355 . S
O502 Eu479 2.394 . S
O502 C487 1.251 . S
O503 C487 1.251 . S
O503 Eu489 2.374 . S
O504 C488 1.257 . S
O504 Eu489 2.473 . S
O505 C488 1.260 . S
O505 Eu489 2.480 . S
O506 Eu489 2.430 . S
O506 C496 1.259 . S
O507 Eu479 2.355 . S
O507 Eu489 2.670 . S
O507 C496 1.270 . S
O508 Eu489 2.394 . S
O508 C497 1.251 . S
O509 Eu479 2.374 . S
O509 C497 1.251 . S
H510 C481 0.931 . S
H511 C482 0.931 . S
H512 C484 0.931 . S
H513 C485 0.931 . S
H514 C491 0.931 . S
H515 C492 0.931 . S
H516 C494 0.931 . S
H517 C495 0.931 . S
C518 Eu519 2.835 . S
C518 C520 1.500 . S
C518 O538 1.257 . S
C518 O539 1.260 . S
Eu519 C518 2.835 . S
Eu519 O538 2.473 . S
Eu519 O539 2.480 . S
Eu519 O540 2.430 . S
Eu519 O541 2.670 . S
Eu519 O542 2.394 . S
Eu519 O547 2.355 . S
Eu519 O549 2.374 . S
C520 C518 1.500 . S
C520 C521 1.377 . S
C520 C525 1.377 . S
C521 C520 1.377 . S
C521 C522 1.395 . S
C521 H550 0.931 . S
C522 C521 1.395 . S
C522 C523 1.383 . S
C522 H551 0.931 . S
C523 C522 1.383 . S
C523 C524 1.394 . S
C524 C523 1.394 . S
C524 C525 1.378 . S
C524 H552 0.931 . S
C525 C520 1.377 . S
C525 C524 1.378 . S
C525 H553 0.931 . S
C526 O540 1.259 . S
C526 O541 1.270 . S
C527 O542 1.251 . S
C527 O543 1.251 . S
C528 Eu529 2.835 . S
C528 C530 1.500 . S
C528 O544 1.257 . S
C528 O545 1.260 . S
Eu529 C528 2.835 . S
Eu529 O541 2.355 . S
Eu529 O543 2.374 . S
Eu529 O544 2.473 . S
Eu529 O545 2.480 . S
Eu529 O546 2.430 . S
Eu529 O547 2.670 . S
Eu529 O548 2.394 . S
C530 C528 1.500 . S
C530 C531 1.377 . S
C530 C535 1.377 . S
C531 C530 1.377 . S
C531 C532 1.395 . S
C531 H554 0.931 . S
C532 C531 1.395 . S
C532 C533 1.383 . S
C532 H555 0.931 . S
C533 C532 1.383 . S
C533 C534 1.394 . S
C534 C533 1.394 . S
C534 C535 1.378 . S
C534 H556 0.931 . S
C535 C530 1.377 . S
C535 C534 1.378 . S
C535 H557 0.931 . S
C536 O546 1.259 . S
C536 O547 1.270 . S
C537 O548 1.251 . S
C537 O549 1.251 . S
O538 C518 1.257 . S
O538 Eu519 2.473 . S
O539 C518 1.260 . S
O539 Eu519 2.480 . S
O540 Eu519 2.430 . S
O540 C526 1.259 . S
O541 Eu519 2.670 . S
O541 C526 1.270 . S
O541 Eu529 2.355 . S
O542 Eu519 2.394 . S
O542 C527 1.251 . S
O543 C527 1.251 . S
O543 Eu529 2.374 . S
O544 C528 1.257 . S
O544 Eu529 2.473 . S
O545 C528 1.260 . S
O545 Eu529 2.480 . S
O546 Eu529 2.430 . S
O546 C536 1.259 . S
O547 Eu519 2.355 . S
O547 Eu529 2.670 . S
O547 C536 1.270 . S
O548 Eu529 2.394 . S
O548 C537 1.251 . S
O549 Eu519 2.374 . S
O549 C537 1.251 . S
H550 C521 0.931 . S
H551 C522 0.931 . S
H552 C524 0.931 . S
H553 C525 0.931 . S
H554 C531 0.931 . S
H555 C532 0.931 . S
H556 C534 0.931 . S
H557 C535 0.931 . S
C558 C559 1.369 . S
C558 C560 1.419 . S
C558 H562 0.930 . S
C559 C558 1.369 . S
C559 C568 1.429 . S
C560 C558 1.419 . S
C560 C561 1.363 . S
C560 H563 0.929 1_554 S
C561 C560 1.363 . S
C561 C567 1.428 . S
H562 C558 0.930 . S
H563 C560 0.929 1_556 S
S564 N565 1.613 . S
S564 N566 1.610 . S
N565 S564 1.613 . S
N565 C568 1.350 . S
N566 S564 1.610 . S
N566 C567 1.351 . S
C567 C561 1.428 . S
C567 N566 1.351 . S
C567 C568 1.434 . S
C568 C559 1.429 . S
C568 N565 1.350 . S
C568 C567 1.434 . S
C569 C570 1.369 . S
C569 C571 1.419 . S
C569 H573 0.930 . S
C570 C569 1.369 . S
C570 C579 1.429 . S
C571 C569 1.419 . S
C571 C572 1.363 . S
C571 H574 0.929 . S
C572 C571 1.363 . S
C572 C578 1.428 . S
H573 C569 0.930 . S
H574 C571 0.929 . S
S575 N576 1.613 . S
S575 N577 1.610 . S
N576 S575 1.613 . S
N576 C579 1.350 . S
N577 S575 1.610 . S
N577 C578 1.351 . S
C578 C572 1.428 . S
C578 N577 1.351 . S
C578 C579 1.434 . S
C579 C570 1.429 . S
C579 N576 1.350 . S
C579 C578 1.434 . S
C580 C581 1.369 . S
C580 C582 1.419 . S
C580 H584 0.930 . S
C581 C580 1.369 . S
C581 C590 1.429 . S
C582 C580 1.419 . S
C582 C583 1.363 . S
C582 H585 0.929 . S
C583 C582 1.363 . S
C583 C589 1.428 . S
H584 C580 0.930 . S
H585 C582 0.929 . S
S586 N587 1.613 . S
S586 N588 1.610 . S
N587 S586 1.613 . S
N587 C590 1.350 . S
N588 S586 1.610 . S
N588 C589 1.351 . S
C589 C583 1.428 . S
C589 N588 1.351 . S
C589 C590 1.434 . S
C590 C581 1.429 . S
C590 N587 1.350 . S
C590 C589 1.434 . S
C591 C592 1.369 . S
C591 C593 1.419 . S
C591 H595 0.930 . S
C592 C591 1.369 . S
C592 C601 1.429 . S
C593 C591 1.419 . S
C593 C594 1.363 . S
C593 H596 0.929 . S
C594 C593 1.363 . S
C594 C600 1.428 . S
H595 C591 0.930 . S
H596 C593 0.929 . S
S597 N598 1.613 . S
S597 N599 1.610 . S
N598 S597 1.613 . S
N598 C601 1.350 . S
N599 S597 1.610 . S
N599 C600 1.351 . S
C600 C594 1.428 . S
C600 N599 1.351 . S
C600 C601 1.434 . S
C601 C592 1.429 . S
C601 N598 1.350 . S
C601 C600 1.434 . S
C602 C603 1.369 . S
C602 C604 1.419 . S
C602 H606 0.930 . S
C603 C602 1.369 . S
C603 C612 1.429 . S
C604 C602 1.419 . S
C604 C605 1.363 . S
C604 H607 0.929 . S
C605 C604 1.363 . S
C605 C611 1.428 . S
H606 C602 0.930 . S
H607 C604 0.929 . S
S608 N609 1.655 . S
S608 N610 1.610 . S
N609 S608 1.655 . S
N609 C612 1.323 1_554 S
N610 S608 1.610 . S
N610 C611 1.351 1_554 S
C611 C605 1.428 . S
C611 N610 1.351 1_556 S
C611 C612 1.434 . S
C612 C603 1.429 . S
C612 N609 1.323 1_556 S
C612 C611 1.434 . S
C613 C614 1.369 . S
C613 C615 1.419 . S
C613 H617 0.930 . S
C614 C613 1.369 . S
C614 C623 1.429 . S
C615 C613 1.419 . S
C615 C616 1.363 . S
C615 H618 0.929 . S
C616 C615 1.363 . S
C616 C622 1.428 . S
H617 C613 0.930 . S
H618 C615 0.929 . S
S619 N620 1.613 . S
S619 N621 1.602 1_556 S
N620 S619 1.613 . S
N620 C623 1.350 . S
N621 S619 1.602 1_554 S
N621 C622 1.346 1_554 S
C622 C616 1.428 . S
C622 N621 1.346 1_556 S
C622 C623 1.434 . S
C623 C614 1.429 . S
C623 N620 1.350 . S
C623 C622 1.434 . S
C624 C625 1.369 . S
C624 C626 1.419 . S
C624 H628 0.930 . S
C625 C624 1.369 . S
C625 C634 1.429 . S
C626 C624 1.419 . S
C626 C627 1.363 . S
C626 H629 0.929 . S
C627 C626 1.363 . S
C627 C633 1.428 . S
H628 C624 0.930 . S
H629 C626 0.929 . S
S630 N631 1.613 . S
S630 N632 1.610 . S
N631 S630 1.613 . S
N631 C634 1.350 1_554 S
N632 S630 1.610 . S
N632 C633 1.351 1_554 S
C633 C627 1.428 . S
C633 N632 1.351 1_556 S
C633 C634 1.434 . S
C634 C625 1.429 . S
C634 N631 1.350 1_556 S
C634 C633 1.434 . S
C635 C636 1.369 . S
C635 C637 1.419 . S
C635 H639 0.930 1_556 S
C636 C635 1.369 . S
C636 C645 1.429 . S
C637 C635 1.419 . S
C637 C638 1.363 . S
C637 H640 0.929 1_556 S
C638 C637 1.363 . S
C638 C644 1.428 . S
H639 C635 0.930 1_554 S
H640 C637 0.929 1_554 S
S641 N642 1.613 . S
S641 N643 1.610 . S
N642 S641 1.613 . S
N642 C645 1.350 . S
N643 S641 1.610 . S
N643 C644 1.351 . S
C644 C638 1.428 . S
C644 N643 1.351 . S
C644 C645 1.434 . S
C645 C636 1.429 . S
C645 N642 1.350 . S
C645 C644 1.434 . S
C646 C647 1.369 1_554 S
C646 C648 1.419 . S
C646 H650 0.930 . S
C647 C646 1.369 1_556 S
C647 C656 1.429 . S
C648 C646 1.419 . S
C648 C649 1.363 1_554 S
C648 H651 0.929 . S
C649 C648 1.363 1_556 S
C649 C655 1.428 . S
H650 C646 0.930 . S
H651 C648 0.929 . S
S652 N653 1.613 . S
S652 N654 1.610 . S
N653 S652 1.613 . S
N653 C656 1.350 . S
N654 S652 1.610 . S
N654 C655 1.351 . S
C655 C649 1.428 . S
C655 N654 1.351 . S
C655 C656 1.434 . S
C656 C647 1.429 . S
C656 N653 1.350 . S
C656 C655 1.434 . S
C657 C658 1.369 . S
C657 C659 1.419 . S
C657 H661 0.930 . S
C658 C657 1.369 . S
C658 C667 1.429 . S
C659 C657 1.419 . S
C659 C660 1.363 . S
C659 H662 0.929 . S
C660 C659 1.363 . S
C660 C666 1.428 . S
H661 C657 0.930 . S
H662 C659 0.929 . S
S663 N664 1.613 . S
S663 N665 1.610 . S
N664 S663 1.613 . S
N664 C667 1.350 . S
N665 S663 1.610 . S
N665 C666 1.351 . S
C666 C660 1.428 . S
C666 N665 1.351 . S
C666 C667 1.434 . S
C667 C658 1.429 . S
C667 N664 1.350 . S
C667 C666 1.434 . S
C668 C669 1.369 . S
C668 C670 1.419 . S
C668 H672 0.930 . S
C669 C668 1.369 . S
C669 C678 1.429 . S
C670 C668 1.419 . S
C670 C671 1.363 . S
C670 H673 0.929 . S
C671 C670 1.363 . S
C671 C677 1.428 . S
H672 C668 0.930 . S
H673 C670 0.929 . S
S674 N675 1.613 . S
S674 N676 1.610 . S
N675 S674 1.613 . S
N675 C678 1.350 . S
N676 S674 1.610 . S
N676 C677 1.351 . S
C677 C671 1.428 . S
C677 N676 1.351 . S
C677 C678 1.434 . S
C678 C669 1.429 . S
C678 N675 1.350 . S
C678 C677 1.434 . S
C679 C680 1.369 . S
C679 C681 1.419 . S
C679 H683 0.930 . S
C680 C679 1.369 . S
C680 C689 1.429 1_554 S
C681 C679 1.419 . S
C681 C682 1.363 . S
C681 H684 0.929 . S
C682 C681 1.363 . S
C682 C688 1.428 1_554 S
H683 C679 0.930 . S
H684 C681 0.929 . S
S685 N686 1.613 . S
S685 N687 1.610 . S
N686 S685 1.613 . S
N686 C689 1.350 . S
N687 S685 1.610 . S
N687 C688 1.351 . S
C688 C682 1.428 1_556 S
C688 N687 1.351 . S
C688 C689 1.434 . S
C689 C680 1.429 1_556 S
C689 N686 1.350 . S
C689 C688 1.434 . S
C690 C691 1.369 . S
C690 C692 1.419 1_655 S
C690 H694 0.930 . S
C691 C690 1.369 . S
C691 C700 1.429 . S
C692 C690 1.419 1_455 S
C692 C693 1.363 . S
C692 H695 0.929 . S
C693 C692 1.363 . S
C693 C699 1.428 . S
H694 C690 0.930 . S
H695 C692 0.929 . S
S696 N697 1.613 . S
S696 N698 1.610 1_655 S
N697 S696 1.613 . S
N697 C700 1.350 . S
N698 S696 1.610 1_455 S
N698 C699 1.351 . S
C699 C693 1.428 . S
C699 N698 1.351 . S
C699 C700 1.434 1_455 S
C700 C691 1.429 . S
C700 N697 1.350 . S
C700 C699 1.434 1_655 S
C701 C702 1.369 . S
C701 C703 1.419 . S
C701 H705 0.930 . S
C702 C701 1.369 . S
C702 C711 1.429 . S
C703 C701 1.419 . S
C703 C704 1.363 . S
C703 H706 0.929 . S
C704 C703 1.363 . S
C704 C710 1.428 . S
H705 C701 0.930 . S
H706 C703 0.929 . S
S707 N708 1.613 . S
S707 N709 1.610 . S
N708 S707 1.613 . S
N708 C711 1.350 . S
N709 S707 1.610 . S
N709 C710 1.351 . S
C710 C704 1.428 . S
C710 N709 1.351 . S
C710 C711 1.434 . S
C711 C702 1.429 . S
C711 N708 1.350 . S
C711 C710 1.434 . S
C712 C713 1.369 . S
C712 C714 1.419 . S
C712 H716 0.930 . S
C713 C712 1.369 . S
C713 C722 1.429 . S
C714 C712 1.419 . S
C714 C715 1.363 1_545 S
C714 H717 0.929 . S
C715 C714 1.363 1_565 S
C715 C721 1.429 1_565 S
H716 C712 0.930 . S
H717 C714 0.929 . S
S718 N719 1.613 . S
S718 N720 1.610 1_545 S
N719 S718 1.613 . S
N719 C722 1.350 . S
N720 S718 1.610 1_565 S
N720 C721 1.351 1_565 S
C721 C715 1.429 1_545 S
C721 N720 1.351 1_545 S
C721 C722 1.434 . S
C722 C713 1.429 . S
C722 N719 1.350 . S
C722 C721 1.434 . S
C723 C724 1.369 . S
C723 C725 1.419 . S
C723 H727 0.930 . S
C724 C723 1.369 . S
C724 C733 1.429 . S
C725 C723 1.419 . S
C725 C726 1.363 . S
C725 H728 0.929 . S
C726 C725 1.363 . S
C726 C732 1.428 . S
H727 C723 0.930 . S
H728 C725 0.929 . S
S729 N730 1.613 . S
S729 N731 1.610 . S
N730 S729 1.613 . S
N730 C733 1.350 . S
N731 S729 1.610 . S
N731 C732 1.351 . S
C732 C726 1.428 . S
C732 N731 1.351 . S
C732 C733 1.434 . S
C733 C724 1.429 . S
C733 N730 1.350 . S
C733 C732 1.434 . S
C734 C735 1.369 . S
C734 C736 1.419 . S
C734 H738 0.930 . S
C735 C734 1.369 . S
C735 C744 1.429 . S
C736 C734 1.419 . S
C736 C737 1.363 . S
C736 H739 0.929 . S
C737 C736 1.363 . S
C737 C743 1.428 . S
H738 C734 0.930 . S
H739 C736 0.929 . S
S740 N741 1.613 1_545 S
S740 N742 1.610 1_545 S
N741 S740 1.613 1_565 S
N741 C744 1.350 . S
N742 S740 1.610 1_565 S
N742 C743 1.351 . S
C743 C737 1.428 . S
C743 N742 1.351 . S
C743 C744 1.434 . S
C744 C735 1.429 . S
C744 N741 1.350 . S
C744 C743 1.434 . S
C745 C746 1.369 . S
C745 C747 1.419 . S
C745 H749 0.930 . S
C746 C745 1.369 . S
C746 C755 1.429 . S
C747 C745 1.419 . S
C747 C748 1.363 . S
C747 H750 0.929 . S
C748 C747 1.363 . S
C748 C754 1.428 . S
H749 C745 0.930 . S
H750 C747 0.929 . S
S751 N752 1.613 . S
S751 N753 1.610 . S
N752 S751 1.613 . S
N752 C755 1.350 . S
N753 S751 1.610 . S
N753 C754 1.351 . S
C754 C748 1.428 . S
C754 N753 1.351 . S
C754 C755 1.434 . S
C755 C746 1.429 . S
C755 N752 1.350 . S
C755 C754 1.434 . S
C756 C757 1.369 . S
C756 C758 1.419 . S
C756 H760 0.930 . S
C757 C756 1.369 . S
C757 C766 1.429 . S
C758 C756 1.419 . S
C758 C759 1.363 . S
C758 H761 0.929 . S
C759 C758 1.363 . S
C759 C765 1.428 . S
H760 C756 0.930 . S
H761 C758 0.929 . S
S762 N763 1.613 . S
S762 N764 1.610 . S
N763 S762 1.613 . S
N763 C766 1.350 . S
N764 S762 1.610 . S
N764 C765 1.351 . S
C765 C759 1.428 . S
C765 N764 1.351 . S
C765 C766 1.434 . S
C766 C757 1.429 . S
C766 N763 1.350 . S
C766 C765 1.434 . S
C767 C768 1.369 . S
C767 C769 1.419 . S
C767 H771 0.930 . S
C768 C767 1.369 . S
C768 C777 1.429 . S
C769 C767 1.419 . S
C769 C770 1.363 . S
C769 H772 0.929 . S
C770 C769 1.363 . S
C770 C776 1.428 . S
H771 C767 0.930 . S
H772 C769 0.929 . S
S773 N774 1.613 . S
S773 N775 1.610 . S
N774 S773 1.613 . S
N774 C777 1.350 . S
N775 S773 1.610 . S
N775 C776 1.351 . S
C776 C770 1.428 . S
C776 N775 1.351 . S
C776 C777 1.434 . S
C777 C768 1.429 . S
C777 N774 1.350 . S
C777 C776 1.434 . S
C778 C779 1.369 . S
C778 C780 1.419 . S
C778 H782 0.930 . S
C779 C778 1.369 . S
C779 C788 1.429 . S
C780 C778 1.419 . S
C780 C781 1.363 . S
C780 H783 0.929 . S
C781 C780 1.363 . S
C781 C787 1.428 . S
H782 C778 0.930 . S
H783 C780 0.929 . S
S784 N785 1.613 . S
S784 N786 1.610 . S
N785 S784 1.613 . S
N785 C788 1.350 . S
N786 S784 1.610 . S
N786 C787 1.351 . S
C787 C781 1.428 . S
C787 N786 1.351 . S
C787 C788 1.434 . S
C788 C779 1.429 . S
C788 N785 1.350 . S
C788 C787 1.434 . S
C789 C790 1.369 1_565 S
C789 C791 1.419 . S
C789 H793 0.930 . S
C790 C789 1.369 1_545 S
C790 C799 1.429 1_545 S
C791 C789 1.419 . S
C791 C792 1.363 . S
C791 H794 0.929 . S
C792 C791 1.363 . S
C792 C798 1.428 . S
H793 C789 0.930 . S
H794 C791 0.929 . S
S795 N796 1.635 . S
S795 N797 1.610 . S
N796 S795 1.635 . S
N796 C799 1.350 . S
N797 S795 1.610 . S
N797 C798 1.351 . S
C798 C792 1.428 . S
C798 N797 1.351 . S
C798 C799 1.434 . S
C799 C790 1.429 1_565 S
C799 N796 1.350 . S
C799 C798 1.434 . S
C800 C801 1.369 . S
C800 C802 1.419 . S
C800 H804 0.930 . S
C801 C800 1.369 . S
C801 C810 1.429 . S
C802 C800 1.419 . S
C802 C803 1.363 . S
C802 H805 0.929 . S
C803 C802 1.363 . S
C803 C809 1.428 . S
H804 C800 0.930 . S
H805 C802 0.929 . S
S806 N807 1.613 . S
S806 N808 1.610 . S
N807 S806 1.613 . S
N807 C810 1.350 . S
N808 S806 1.610 . S
N808 C809 1.351 . S
C809 C803 1.428 . S
C809 N808 1.351 . S
C809 C810 1.434 . S
C810 C801 1.429 . S
C810 N807 1.350 . S
C810 C809 1.434 . S
C811 C812 1.369 . S
C811 C813 1.419 . S
C811 H815 0.930 . S
C812 C811 1.369 . S
C812 C821 1.429 . S
C813 C811 1.419 . S
C813 C814 1.363 . S
C813 H816 0.929 . S
C814 C813 1.363 . S
C814 C820 1.428 . S
H815 C811 0.930 . S
H816 C813 0.929 . S
S817 N818 1.613 . S
S817 N819 1.610 . S
N818 S817 1.613 . S
N818 C821 1.350 . S
N819 S817 1.610 . S
N819 C820 1.351 . S
C820 C814 1.428 . S
C820 N819 1.351 . S
C820 C821 1.434 . S
C821 C812 1.429 . S
C821 N818 1.350 . S
C821 C820 1.434 . S
C822 C823 1.369 . S
C822 C824 1.419 . S
C822 H826 0.930 . S
C823 C822 1.369 . S
C823 C832 1.429 . S
C824 C822 1.419 . S
C824 C825 1.363 . S
C824 H827 0.929 . S
C825 C824 1.363 . S
C825 C831 1.428 . S
H826 C822 0.930 . S
H827 C824 0.929 . S
S828 N829 1.613 . S
S828 N830 1.610 . S
N829 S828 1.613 . S
N829 C832 1.350 . S
N830 S828 1.610 . S
N830 C831 1.351 . S
C831 C825 1.428 . S
C831 N830 1.351 . S
C831 C832 1.434 . S
C832 C823 1.429 . S
C832 N829 1.350 . S
C832 C831 1.434 . S
C833 C834 1.369 . S
C833 C835 1.419 . S
C833 H837 0.930 . S
C834 C833 1.369 . S
C834 C843 1.429 . S
C835 C833 1.419 . S
C835 C836 1.363 . S
C835 H838 0.929 . S
C836 C835 1.363 . S
C836 C842 1.428 . S
H837 C833 0.930 . S
H838 C835 0.929 . S
S839 N840 1.613 . S
S839 N841 1.610 . S
N840 S839 1.613 . S
N840 C843 1.350 . S
N841 S839 1.610 . S
N841 C842 1.351 . S
C842 C836 1.428 . S
C842 N841 1.351 . S
C842 C843 1.434 . S
C843 C834 1.429 . S
C843 N840 1.350 . S
C843 C842 1.434 . S
C844 C845 1.369 . S
C844 C846 1.419 . S
C844 H848 0.930 . S
C845 C844 1.369 . S
C845 C854 1.429 . S
C846 C844 1.419 . S
C846 C847 1.363 . S
C846 H849 0.929 . S
C847 C846 1.363 . S
C847 C853 1.428 . S
H848 C844 0.930 . S
H849 C846 0.929 . S
S850 N851 1.613 . S
S850 N852 1.610 . S
N851 S850 1.613 . S
N851 C854 1.350 . S
N852 S850 1.610 . S
N852 C853 1.351 . S
C853 C847 1.428 . S
C853 N852 1.351 . S
C853 C854 1.434 . S
C854 C845 1.429 . S
C854 N851 1.350 . S
C854 C853 1.434 . S
C855 C856 1.369 . S
C855 C857 1.419 . S
C855 H859 0.930 . S
C856 C855 1.369 . S
C856 C865 1.429 . S
C857 C855 1.419 . S
C857 C858 1.363 1_565 S
C857 H860 0.933 1_565 S
C858 C857 1.363 1_545 S
C858 C864 1.428 . S
H859 C855 0.930 . S
H860 C857 0.933 1_545 S
S861 N862 1.613 1_545 S
S861 N863 1.610 . S
N862 S861 1.613 1_565 S
N862 C865 1.350 . S
N863 S861 1.610 . S
N863 C864 1.351 . S
C864 C858 1.428 . S
C864 N863 1.351 . S
C864 C865 1.434 1_545 S
C865 C856 1.429 . S
C865 N862 1.350 . S
C865 C864 1.434 1_565 S
C866 C867 1.369 . S
C866 C868 1.419 . S
C866 H870 0.930 . S
C867 C866 1.369 . S
C867 C876 1.429 . S
C868 C866 1.419 . S
C868 C869 1.363 1_455 S
C868 H871 0.929 . S
C869 C868 1.363 1_655 S
C869 C875 1.428 . S
H870 C866 0.930 . S
H871 C868 0.929 . S
S872 N873 1.613 1_655 S
S872 N874 1.610 . S
N873 S872 1.613 1_455 S
N873 C876 1.350 . S
N874 S872 1.610 . S
N874 C875 1.351 . S
C875 C869 1.428 . S
C875 N874 1.351 . S
C875 C876 1.434 1_655 S
C876 C867 1.429 . S
C876 N873 1.350 . S
C876 C875 1.434 1_455 S
C877 C878 1.369 . S
C877 C879 1.419 . S
C877 H881 0.930 . S
C878 C877 1.369 . S
C878 C887 1.429 . S
C879 C877 1.419 . S
C879 C880 1.363 . S
C879 H882 0.929 . S
C880 C879 1.363 . S
C880 C886 1.428 . S
H881 C877 0.930 . S
H882 C879 0.929 . S
S883 N884 1.613 . S
S883 N885 1.610 . S
N884 S883 1.613 . S
N884 C887 1.350 . S
N885 S883 1.610 . S
N885 C886 1.351 . S
C886 C880 1.428 . S
C886 N885 1.351 . S
C886 C887 1.434 . S
C887 C878 1.429 . S
C887 N884 1.350 . S
C887 C886 1.434 . S
C888 C889 1.365 1_655 S
C888 C890 1.419 . S
C888 H892 0.930 1_655 S
C889 C888 1.365 1_455 S
C889 C898 1.417 1_455 S
C890 C888 1.419 . S
C890 C891 1.363 . S
C890 H893 0.929 . S
C891 C890 1.363 . S
C891 C897 1.428 . S
H892 C888 0.930 1_455 S
H893 C890 0.929 . S
S894 N895 1.613 . S
S894 N896 1.610 . S
N895 S894 1.613 . S
N895 C898 1.350 . S
N896 S894 1.610 . S
N896 C897 1.351 . S
C897 C891 1.428 . S
C897 N896 1.351 . S
C897 C898 1.434 . S
C898 C889 1.417 1_655 S
C898 N895 1.350 . S
C898 C897 1.434 . S
C899 C900 1.369 . S
C899 C901 1.419 . S
C899 H903 0.930 . S
C900 C899 1.369 . S
C900 C909 1.429 . S
C901 C899 1.419 . S
C901 C902 1.363 . S
C901 H904 0.929 . S
C902 C901 1.363 . S
C902 C908 1.428 . S
H903 C899 0.930 . S
H904 C901 0.929 . S
S905 N906 1.613 . S
S905 N907 1.610 . S
N906 S905 1.613 . S
N906 C909 1.350 . S
N907 S905 1.610 . S
N907 C908 1.351 . S
C908 C902 1.428 . S
C908 N907 1.351 . S
C908 C909 1.434 . S
C909 C900 1.429 . S
C909 N906 1.350 . S
C909 C908 1.434 . S
C910 C911 1.369 . S
C910 C912 1.419 . S
C910 H914 0.930 . S
C911 C910 1.369 . S
C911 C920 1.429 . S
C912 C910 1.419 . S
C912 C913 1.363 . S
C912 H915 0.929 . S
C913 C912 1.363 . S
C913 C919 1.428 . S
H914 C910 0.930 . S
H915 C912 0.929 . S
S916 N917 1.613 . S
S916 N918 1.610 . S
N917 S916 1.613 . S
N917 C920 1.350 . S
N918 S916 1.610 . S
N918 C919 1.351 . S
C919 C913 1.428 . S
C919 N918 1.351 . S
C919 C920 1.434 . S
C920 C911 1.429 . S
C920 N917 1.350 . S
C920 C919 1.434 . S
C921 C922 1.369 . S
C921 C923 1.419 . S
C921 H925 0.930 . S
C922 C921 1.369 . S
C922 C931 1.429 . S
C923 C921 1.419 . S
C923 C924 1.363 . S
C923 H926 0.929 . S
C924 C923 1.363 . S
C924 C930 1.428 . S
H925 C921 0.930 . S
H926 C923 0.929 . S
S927 N928 1.613 . S
S927 N929 1.610 . S
N928 S927 1.613 . S
N928 C931 1.350 . S
N929 S927 1.610 . S
N929 C930 1.351 . S
C930 C924 1.428 . S
C930 N929 1.351 . S
C930 C931 1.434 . S
C931 C922 1.429 . S
C931 N928 1.350 . S
C931 C930 1.434 . S
C932 C933 1.369 . S
C932 C934 1.419 . S
C932 H936 0.930 . S
C933 C932 1.369 . S
C933 C942 1.429 . S
C934 C932 1.419 . S
C934 C935 1.363 . S
C934 H937 0.929 . S
C935 C934 1.363 . S
C935 C941 1.428 . S
H936 C932 0.930 . S
H937 C934 0.929 . S
S938 N939 1.613 . S
S938 N940 1.610 . S
N939 S938 1.613 . S
N939 C942 1.350 . S
N940 S938 1.610 . S
N940 C941 1.351 . S
C941 C935 1.428 . S
C941 N940 1.351 . S
C941 C942 1.434 . S
C942 C933 1.429 . S
C942 N939 1.350 . S
C942 C941 1.434 . S
C943 C944 1.369 . S
C943 C945 1.419 . S
C943 H947 0.930 . S
C944 C943 1.369 . S
C944 C953 1.429 . S
C945 C943 1.419 . S
C945 C946 1.363 . S
C945 H948 0.929 . S
C946 C945 1.363 . S
C946 C952 1.428 . S
H947 C943 0.930 . S
H948 C945 0.929 . S
S949 N950 1.613 . S
S949 N951 1.610 . S
N950 S949 1.613 . S
N950 C953 1.350 . S
N951 S949 1.610 . S
N951 C952 1.351 . S
C952 C946 1.428 . S
C952 N951 1.351 . S
C952 C953 1.434 . S
C953 C944 1.429 . S
C953 N950 1.350 . S
C953 C952 1.434 . S
C954 C955 1.369 . S
C954 C956 1.419 . S
C954 H958 0.930 . S
C955 C954 1.369 . S
C955 C964 1.429 . S
C956 C954 1.419 . S
C956 C957 1.363 . S
C956 H959 0.929 . S
C957 C956 1.363 . S
C957 C963 1.428 . S
H958 C954 0.930 . S
H959 C956 0.929 . S
S960 N961 1.613 . S
S960 N962 1.610 . S
N961 S960 1.613 . S
N961 C964 1.350 . S
N962 S960 1.610 . S
N962 C963 1.351 . S
C963 C957 1.428 . S
C963 N962 1.351 . S
C963 C964 1.434 . S
C964 C955 1.429 . S
C964 N961 1.350 . S
C964 C963 1.434 . S
C965 C966 1.369 . S
C965 C967 1.419 . S
C965 H969 0.930 . S
C966 C965 1.369 . S
C966 C975 1.429 . S
C967 C965 1.419 . S
C967 C968 1.363 . S
C967 H970 0.929 . S
C968 C967 1.363 . S
C968 C974 1.428 . S
H969 C965 0.930 . S
H970 C967 0.929 . S
S971 N972 1.613 . S
S971 N973 1.610 . S
N972 S971 1.613 . S
N972 C975 1.350 1_655 S
N973 S971 1.610 . S
N973 C974 1.351 1_655 S
C974 C968 1.428 . S
C974 N973 1.351 1_455 S
C974 C975 1.434 . S
C975 C966 1.429 . S
C975 N972 1.350 1_455 S
C975 C974 1.434 . S
C976 C977 1.369 . S
C976 C978 1.419 . S
C976 H980 0.930 . S
C977 C976 1.369 . S
C977 C986 1.429 . S
C978 C976 1.419 . S
C978 C979 1.363 . S
C978 H981 0.929 . S
C979 C978 1.363 . S
C979 C985 1.428 . S
H980 C976 0.930 . S
H981 C978 0.929 . S
S982 N983 1.613 . S
S982 N984 1.610 . S
N983 S982 1.613 . S
N983 C986 1.350 . S
N984 S982 1.610 . S
N984 C985 1.351 . S
C985 C979 1.428 . S
C985 N984 1.351 . S
C985 C986 1.434 . S
C986 C977 1.429 . S
C986 N983 1.350 . S
C986 C985 1.434 . S
C987 C988 1.369 . S
C987 C989 1.419 . S
C987 H991 0.930 . S
C988 C987 1.369 . S
C988 C997 1.429 . S
C989 C987 1.419 . S
C989 C990 1.363 . S
C989 H992 0.929 . S
C990 C989 1.363 . S
C990 C996 1.428 . S
H991 C987 0.930 . S
H992 C989 0.929 . S
S993 N994 1.613 . S
S993 N995 1.610 . S
N994 S993 1.613 . S
N994 C997 1.350 . S
N995 S993 1.610 . S
N995 C996 1.351 . S
C996 C990 1.428 . S
C996 N995 1.351 . S
C996 C997 1.434 . S
C997 C988 1.429 . S
C997 N994 1.350 . S
C997 C996 1.434 . S
C998 C999 1.369 . S
C998 C1000 1.419 . S
C998 H1002 0.930 . S
C999 C998 1.369 . S
C999 C1008 1.429 . S
C1000 C998 1.419 . S
C1000 C1001 1.363 . S
C1000 H1003 0.929 . S
C1001 C1000 1.363 . S
C1001 C1007 1.428 . S
H1002 C998 0.930 . S
H1003 C1000 0.929 . S
S1004 N1005 1.613 . S
S1004 N1006 1.610 . S
N1005 S1004 1.613 . S
N1005 C1008 1.350 . S
N1006 S1004 1.610 . S
N1006 C1007 1.351 . S
C1007 C1001 1.428 . S
C1007 N1006 1.351 . S
C1007 C1008 1.434 . S
C1008 C999 1.429 . S
C1008 N1005 1.350 . S
C1008 C1007 1.434 . S
C1009 C1010 1.369 . S
C1009 C1011 1.419 . S
C1009 H1013 0.930 . S
C1010 C1009 1.369 . S
C1010 C1019 1.429 . S
C1011 C1009 1.419 . S
C1011 C1012 1.363 . S
C1011 H1014 0.931 . S
C1012 C1011 1.363 . S
C1012 C1018 1.428 . S
H1013 C1009 0.930 . S
H1014 C1011 0.931 . S
S1015 N1016 1.613 . S
S1015 N1017 1.610 . S
N1016 S1015 1.613 . S
N1016 C1019 1.350 . S
N1017 S1015 1.610 . S
N1017 C1018 1.351 . S
C1018 C1012 1.428 . S
C1018 N1017 1.351 . S
C1018 C1019 1.434 . S
C1019 C1010 1.429 . S
C1019 N1016 1.350 . S
C1019 C1018 1.434 . S
C1020 C1021 1.369 . S
C1020 C1022 1.419 . S
C1020 H1024 0.930 . S
C1021 C1020 1.369 . S
C1021 C1030 1.429 . S
C1022 C1020 1.419 . S
C1022 C1023 1.363 . S
C1022 H1025 0.929 . S
C1023 C1022 1.363 . S
C1023 C1029 1.428 . S
H1024 C1020 0.930 . S
H1025 C1022 0.929 . S
S1026 N1027 1.613 . S
S1026 N1028 1.610 . S
N1027 S1026 1.613 . S
N1027 C1030 1.350 . S
N1028 S1026 1.610 . S
N1028 C1029 1.351 . S
C1029 C1023 1.428 . S
C1029 N1028 1.351 . S
C1029 C1030 1.434 . S
C1030 C1021 1.429 . S
C1030 N1027 1.350 . S
C1030 C1029 1.434 . S
C1031 C1032 1.369 . S
C1031 C1033 1.419 . S
C1031 H1035 0.930 . S
C1032 C1031 1.369 . S
C1032 C1041 1.429 . S
C1033 C1031 1.419 . S
C1033 C1034 1.363 . S
C1033 H1036 0.929 . S
C1034 C1033 1.363 . S
C1034 C1040 1.428 . S
H1035 C1031 0.930 . S
H1036 C1033 0.929 . S
S1037 N1038 1.613 . S
S1037 N1039 1.610 . S
N1038 S1037 1.613 . S
N1038 C1041 1.350 . S
N1039 S1037 1.610 . S
N1039 C1040 1.351 . S
C1040 C1034 1.428 . S
C1040 N1039 1.351 . S
C1040 C1041 1.434 . S
C1041 C1032 1.429 . S
C1041 N1038 1.350 . S
C1041 C1040 1.434 . S
C1042 C1043 1.369 . S
C1042 C1044 1.419 . S
C1042 H1046 0.930 . S
C1043 C1042 1.369 . S
C1043 C1052 1.429 . S
C1044 C1042 1.419 . S
C1044 C1045 1.363 . S
C1044 H1047 0.929 . S
C1045 C1044 1.363 . S
C1045 C1051 1.428 . S
H1046 C1042 0.930 . S
H1047 C1044 0.929 . S
S1048 N1049 1.613 . S
S1048 N1050 1.610 . S
N1049 S1048 1.613 . S
N1049 C1052 1.350 . S
N1050 S1048 1.610 . S
N1050 C1051 1.351 . S
C1051 C1045 1.428 . S
C1051 N1050 1.351 . S
C1051 C1052 1.434 . S
C1052 C1043 1.429 . S
C1052 N1049 1.350 . S
C1052 C1051 1.434 . S
C1053 C1054 1.369 . S
C1053 C1055 1.419 . S
C1053 H1057 0.930 . S
C1054 C1053 1.369 . S
C1054 C1063 1.429 . S
C1055 C1053 1.419 . S
C1055 C1056 1.363 . S
C1055 H1058 0.929 . S
C1056 C1055 1.363 . S
C1056 C1062 1.428 . S
H1057 C1053 0.930 . S
H1058 C1055 0.929 . S
S1059 N1060 1.613 . S
S1059 N1061 1.610 . S
N1060 S1059 1.613 . S
N1060 C1063 1.350 . S
N1061 S1059 1.610 . S
N1061 C1062 1.351 . S
C1062 C1056 1.428 . S
C1062 N1061 1.351 . S
C1062 C1063 1.434 . S
C1063 C1054 1.429 . S
C1063 N1060 1.350 . S
C1063 C1062 1.434 . S
C1064 C1065 1.369 . S
C1064 C1066 1.419 . S
C1064 H1068 0.930 . S
C1065 C1064 1.369 . S
C1065 C1074 1.429 . S
C1066 C1064 1.419 . S
C1066 C1067 1.363 . S
C1066 H1069 0.929 . S
C1067 C1066 1.363 . S
C1067 C1073 1.428 . S
H1068 C1064 0.930 . S
H1069 C1066 0.929 . S
S1070 N1071 1.613 . S
S1070 N1072 1.610 . S
N1071 S1070 1.613 . S
N1071 C1074 1.350 . S
N1072 S1070 1.610 . S
N1072 C1073 1.351 . S
C1073 C1067 1.428 . S
C1073 N1072 1.351 . S
C1073 C1074 1.434 . S
C1074 C1065 1.429 . S
C1074 N1071 1.350 . S
C1074 C1073 1.434 . S
C1075 C1076 1.369 . S
C1075 C1077 1.419 . S
C1075 H1079 0.930 . S
C1076 C1075 1.369 . S
C1076 C1085 1.429 . S
C1077 C1075 1.419 . S
C1077 C1078 1.363 . S
C1077 H1080 0.929 . S
C1078 C1077 1.363 . S
C1078 C1084 1.428 . S
H1079 C1075 0.930 . S
H1080 C1077 0.929 . S
S1081 N1082 1.613 . S
S1081 N1083 1.610 . S
N1082 S1081 1.613 . S
N1082 C1085 1.350 . S
N1083 S1081 1.610 . S
N1083 C1084 1.351 . S
C1084 C1078 1.428 . S
C1084 N1083 1.351 . S
C1084 C1085 1.434 . S
C1085 C1076 1.429 . S
C1085 N1082 1.350 . S
C1085 C1084 1.434 . S
C1086 C1087 1.369 . S
C1086 C1088 1.419 . S
C1086 H1090 0.930 . S
C1087 C1086 1.369 . S
C1087 C1096 1.429 . S
C1088 C1086 1.419 . S
C1088 C1089 1.363 . S
C1088 H1091 0.929 . S
C1089 C1088 1.363 . S
C1089 C1095 1.428 . S
H1090 C1086 0.930 . S
H1091 C1088 0.929 . S
S1092 N1093 1.613 . S
S1092 N1094 1.610 . S
N1093 S1092 1.613 . S
N1093 C1096 1.350 . S
N1094 S1092 1.610 . S
N1094 C1095 1.351 . S
C1095 C1089 1.428 . S
C1095 N1094 1.351 . S
C1095 C1096 1.434 . S
C1096 C1087 1.429 . S
C1096 N1093 1.350 . S
C1096 C1095 1.434 . S
C1097 C1098 1.369 . S
C1097 C1099 1.419 . S
C1097 H1101 0.930 . S
C1098 C1097 1.369 . S
C1098 C1107 1.429 . S
C1099 C1097 1.419 . S
C1099 C1100 1.363 . S
C1099 H1102 0.929 . S
C1100 C1099 1.363 . S
C1100 C1106 1.428 . S
H1101 C1097 0.930 . S
H1102 C1099 0.929 . S
S1103 N1104 1.613 . S
S1103 N1105 1.610 . S
N1104 S1103 1.613 . S
N1104 C1107 1.350 . S
N1105 S1103 1.610 . S
N1105 C1106 1.351 . S
C1106 C1100 1.428 . S
C1106 N1105 1.351 . S
C1106 C1107 1.434 . S
C1107 C1098 1.429 . S
C1107 N1104 1.350 . S
C1107 C1106 1.434 . S
C1108 C1109 1.369 . S
C1108 C1110 1.419 . S
C1108 H1112 0.930 . S
C1109 C1108 1.369 . S
C1109 C1118 1.429 . S
C1110 C1108 1.419 . S
C1110 C1111 1.363 . S
C1110 H1113 0.929 . S
C1111 C1110 1.363 . S
C1111 C1117 1.428 . S
H1112 C1108 0.930 . S
H1113 C1110 0.929 . S
S1114 N1115 1.613 . S
S1114 N1116 1.610 . S
N1115 S1114 1.613 . S
N1115 C1118 1.350 . S
N1116 S1114 1.610 . S
N1116 C1117 1.351 . S
C1117 C1111 1.428 . S
C1117 N1116 1.351 . S
C1117 C1118 1.434 . S
C1118 C1109 1.429 . S
C1118 N1115 1.350 . S
C1118 C1117 1.434 . S
C1119 C1120 1.369 . S
C1119 C1121 1.419 . S
C1119 H1123 0.930 . S
C1120 C1119 1.369 . S
C1120 C1129 1.429 . S
C1121 C1119 1.419 . S
C1121 C1122 1.363 . S
C1121 H1124 0.929 . S
C1122 C1121 1.363 . S
C1122 C1128 1.428 . S
H1123 C1119 0.930 . S
H1124 C1121 0.929 . S
S1125 N1126 1.613 . S
S1125 N1127 1.610 . S
N1126 S1125 1.613 . S
N1126 C1129 1.350 . S
N1127 S1125 1.610 . S
N1127 C1128 1.351 . S
C1128 C1122 1.428 . S
C1128 N1127 1.351 . S
C1128 C1129 1.434 . S
C1129 C1120 1.429 . S
C1129 N1126 1.350 . S
C1129 C1128 1.434 . S
C1130 C1131 1.369 . S
C1130 C1132 1.419 . S
C1130 H1134 0.930 . S
C1131 C1130 1.369 . S
C1131 C1140 1.429 . S
C1132 C1130 1.419 . S
C1132 C1133 1.363 . S
C1132 H1135 0.929 . S
C1133 C1132 1.363 . S
C1133 C1139 1.428 . S
H1134 C1130 0.930 . S
H1135 C1132 0.929 . S
S1136 N1137 1.613 . S
S1136 N1138 1.610 . S
N1137 S1136 1.613 . S
N1137 C1140 1.350 . S
N1138 S1136 1.610 . S
N1138 C1139 1.351 . S
C1139 C1133 1.428 . S
C1139 N1138 1.351 . S
C1139 C1140 1.434 . S
C1140 C1131 1.429 . S
C1140 N1137 1.350 . S
C1140 C1139 1.434 . S
C1141 C1142 1.369 . S
C1141 C1143 1.419 . S
C1141 H1145 0.930 . S
C1142 C1141 1.369 . S
C1142 C1151 1.429 . S
C1143 C1141 1.419 . S
C1143 C1144 1.363 . S
C1143 H1146 0.929 . S
C1144 C1143 1.363 . S
C1144 C1150 1.428 . S
H1145 C1141 0.930 . S
H1146 C1143 0.929 . S
S1147 N1148 1.613 . S
S1147 N1149 1.610 . S
N1148 S1147 1.613 . S
N1148 C1151 1.350 . S
N1149 S1147 1.610 . S
N1149 C1150 1.351 . S
C1150 C1144 1.428 . S
C1150 N1149 1.351 . S
C1150 C1151 1.434 . S
C1151 C1142 1.429 . S
C1151 N1148 1.350 . S
C1151 C1150 1.434 . S
C559 C147 1.642 . S
C561 C207 1.641 . S
C570 C158 1.733 . S
C572 C247 1.729 . S
C581 C136 1.582 . S
C583 C286 1.557 . S
C592 C125 1.491 . S
C594 C246 1.453 . S
C605 C287 1.513 . S
C603 C103 1.516 . S
C614 C114 1.403 . S
C616 C206 1.390 1_556 S
C627 C217 1.618 . S
C625 C131 1.645 . S
C638 C257 1.610 . S
C636 C109 1.625 . S
C647 C120 1.636 . S
C649 C296 1.665 1_556 S
C658 C153 1.519 . S
C660 C256 1.528 . S
C669 C164 1.483 . S
C671 C297 1.460 . S
C682 C216 1.529 . S
C680 C142 1.505 . S
C693 C327 1.641 . S
C691 C15 1.643 . S
C702 C26 1.733 . S
C704 C367 1.728 . S
C713 C4 1.582 . S
C715 C406 1.559 . S
C724 C191 1.495 . S
C726 C366 1.450 . S
C735 C169 1.516 . S
C737 C407 1.512 . S
C746 C180 1.408 . S
C748 C326 1.389 . S
C757 C197 1.648 . S
C759 C337 1.614 . S
C768 C175 1.629 . S
C770 C377 1.604 . S
C781 C416 1.666 . S
C779 C186 1.632 . S
C790 C21 1.515 . S
C792 C376 1.529 . S
C803 C417 1.460 . S
C801 C32 1.484 1_455 S
C812 C10 1.500 . S
C814 C336 1.530 . S
C825 C447 1.640 . S
C823 C81 1.644 . S
C834 C92 1.734 . S
C836 C487 1.728 . S
C847 C526 1.557 . S
C845 C70 1.588 . S
C858 C486 1.453 . S
C856 C59 1.491 . S
C869 C527 1.513 . S
C867 C37 1.516 . S
C878 C48 1.406 . S
C880 C446 1.388 . S
C889 C65 1.653 . S
C891 C457 1.620 . S
C900 C43 1.625 . S
C902 C497 1.610 . S
C913 C536 1.666 . S
C911 C54 1.634 1_545 S
C922 C87 1.514 . S
C924 C496 1.529 . S
C933 C98 1.483 . S
C935 C537 1.460 . S
C944 C76 1.496 . S
C946 C456 1.534 . S
C955 C170 1.588 . S
C957 C203 1.579 . S
C968 C243 1.885 . S
C966 C181 1.892 . S
C977 C192 1.550 . S
C979 C293 1.570 . S
C988 C71 1.714 . S
C990 C253 1.731 . S
C999 C82 1.670 . S
C1001 C283 1.672 . S
C1012 C213 1.379 . S
C1010 C93 1.372 . S
C1021 C38 1.593 . S
C1023 C323 1.574 . S
C1032 C49 1.893 . S
C1034 C363 1.884 . S
C1043 C60 1.553 . S
C1045 C413 1.569 . S
C1054 C137 1.714 . S
C1056 C373 1.730 . S
C1067 C403 1.673 . S
C1065 C148 1.669 . S
C1076 C159 1.373 . S
C1078 C333 1.380 . S
C1087 C104 1.586 . S
C1089 C443 1.581 . S
C1098 C115 1.892 . S
C1100 C483 1.885 . S
C1111 C533 1.571 . S
C1109 C126 1.547 . S
C1120 C5 1.718 . S
C1122 C493 1.729 . S
C1131 C16 1.668 . S
C1133 C523 1.674 . S
C1142 C27 1.371 . S
C1144 C453 1.380 . S
