# Generated by pormake.
# Topology nom, (4,4)-cn, num edge types: 1
# Building blocks:
#     Node 0, Type 0, BuildingBlock: AZAVOO_clean_linker_0, # of connection points: 4
#     Node 1, Type 0, BuildingBlock: AZAVOO_clean_linker_0, # of connection points: 4
#     Node 2, Type 0, BuildingBlock: AZAVOO_clean_linker_0, # of connection points: 4
#     Node 3, Type 0, BuildingBlock: AZAVOO_clean_linker_0, # of connection points: 4
#     Node 4, Type 0, BuildingBlock: AZAVOO_clean_linker_0, # of connection points: 4
#     Node 5, Type 0, BuildingBlock: AZAVOO_clean_linker_0, # of connection points: 4
#     Node 6, Type 1, BuildingBlock: AZAVOO_clean_sbu_0, # of connection points: 4
#     Node 7, Type 1, BuildingBlock: AZAVOO_clean_sbu_0, # of connection points: 4
#     Node 8, Type 1, BuildingBlock: AZAVOO_clean_sbu_0, # of connection points: 4
#     Node 9, Type 1, BuildingBlock: AZAVOO_clean_sbu_0, # of connection points: 4
#     Node 10, Type 1, BuildingBlock: AZAVOO_clean_sbu_0, # of connection points: 4
#     Node 11, Type 1, BuildingBlock: AZAVOO_clean_sbu_0, # of connection points: 4
#     Edge 12, Type (0, 1), BuildingBlock: CIFDUS_clean_linker_0, # of connection points: 2
#     Edge 13, Type (0, 1), BuildingBlock: CIFDUS_clean_linker_0, # of connection points: 2
#     Edge 14, Type (0, 1), BuildingBlock: CIFDUS_clean_linker_0, # of connection points: 2
#     Edge 15, Type (0, 1), BuildingBlock: CIFDUS_clean_linker_0, # of connection points: 2
#     Edge 16, Type (0, 1), BuildingBlock: CIFDUS_clean_linker_0, # of connection points: 2
#     Edge 17, Type (0, 1), BuildingBlock: CIFDUS_clean_linker_0, # of connection points: 2
#     Edge 18, Type (0, 1), BuildingBlock: CIFDUS_clean_linker_0, # of connection points: 2
#     Edge 19, Type (0, 1), BuildingBlock: CIFDUS_clean_linker_0, # of connection points: 2
#     Edge 20, Type (0, 1), BuildingBlock: CIFDUS_clean_linker_0, # of connection points: 2
#     Edge 21, Type (0, 1), BuildingBlock: CIFDUS_clean_linker_0, # of connection points: 2
#     Edge 22, Type (0, 1), BuildingBlock: CIFDUS_clean_linker_0, # of connection points: 2
#     Edge 23, Type (0, 1), BuildingBlock: CIFDUS_clean_linker_0, # of connection points: 2
#     Edge 24, Type (0, 1), BuildingBlock: CIFDUS_clean_linker_0, # of connection points: 2
#     Edge 25, Type (0, 1), BuildingBlock: CIFDUS_clean_linker_0, # of connection points: 2
#     Edge 26, Type (0, 1), BuildingBlock: CIFDUS_clean_linker_0, # of connection points: 2
#     Edge 27, Type (0, 1), BuildingBlock: CIFDUS_clean_linker_0, # of connection points: 2
#     Edge 28, Type (0, 1), BuildingBlock: CIFDUS_clean_linker_0, # of connection points: 2
#     Edge 29, Type (0, 1), BuildingBlock: CIFDUS_clean_linker_0, # of connection points: 2
#     Edge 30, Type (0, 1), BuildingBlock: CIFDUS_clean_linker_0, # of connection points: 2
#     Edge 31, Type (0, 1), BuildingBlock: CIFDUS_clean_linker_0, # of connection points: 2
#     Edge 32, Type (0, 1), BuildingBlock: CIFDUS_clean_linker_0, # of connection points: 2
#     Edge 33, Type (0, 1), BuildingBlock: CIFDUS_clean_linker_0, # of connection points: 2
#     Edge 34, Type (0, 1), BuildingBlock: CIFDUS_clean_linker_0, # of connection points: 2
#     Edge 35, Type (0, 1), BuildingBlock: CIFDUS_clean_linker_0, # of connection points: 2
# Relax obj value: 0.197
# Max RMSD: 0.232
# Mean RMSD: 0.192
data_MOF--net-nom--node1-AZAVOO_clean_sbu_0--node2-AZAVOO_clean_linker_0--edge1-CIFDUS_clean_linker_0
_symmetry_space_group_name_H-M    P1
_symmetry_Int_Tables_number       1
_symmetry_cell_setting            triclinic
loop_
_symmetry_equiv_pos_as_xyz
'x, y, z'
_cell_length_a     43.096891
_cell_length_b     44.805004
_cell_length_c     52.109882
_cell_angle_alpha  90.971567
_cell_angle_beta   90.992381
_cell_angle_gamma 121.02799
loop_
_atom_site_label
_atom_site_type_symbol
_atom_site_fract_x
_atom_site_fract_y
_atom_site_fract_z
_atom_type_partial_charge
H0 H 0.06388 0.43946 0.14347 0.0
H1 H 0.27297 0.63512 0.39043 0.0
H2 H 0.99518 0.41711 0.27395 0.0
H3 H 0.94882 0.39011 0.23964 0.0
H4 H 0.94028 0.4821 0.23863 0.0
H5 H 0.98593 0.50835 0.27366 0.0
H6 H 0.07847 0.45288 0.25556 0.0
H7 H 0.07629 0.4407 0.20937 0.0
H8 H 0.04225 0.51449 0.19484 0.0
H9 H 0.04501 0.52674 0.24102 0.0
H10 H 0.1524 0.50543 0.29609 0.0
H11 H 0.21404 0.54707 0.28243 0.0
H12 H 0.17509 0.60932 0.24826 0.0
H13 H 0.11438 0.56868 0.26264 0.0
H14 H 0.1199 0.48953 0.35338 0.0
H15 H 0.17607 0.51859 0.37953 0.0
H16 H 0.20231 0.61744 0.34818 0.0
H17 H 0.1457 0.58817 0.32257 0.0
H18 H 0.03564 0.4574 0.36947 0.0
H19 H 0.0553 0.46648 0.41458 0.0
H20 H 0.11264 0.57806 0.40473 0.0
H21 H 0.08953 0.5684 0.36073 0.0
H22 H 0.96363 0.42764 0.32222 0.0
H23 H 0.90553 0.41883 0.3357 0.0
H24 H 0.95835 0.5279 0.35854 0.0
H25 H 0.0152 0.53699 0.34272 0.0
O26 O 0.06511 0.44505 0.16162 0.0
O27 O 0.04753 0.48317 0.15521 0.0
O28 O 0.23546 0.57161 0.39625 0.0
O29 O 0.25061 0.62295 0.38027 0.0
C30 C 0.02794 0.48375 0.29213 0.0
C31 C 0.06124 0.49636 0.27973 0.0
C32 C 0.09422 0.51486 0.29391 0.0
C33 C 0.09402 0.51898 0.3208 0.0
C34 C 0.06086 0.50709 0.33329 0.0
C35 C 0.02772 0.49024 0.31886 0.0
C36 C 0.99389 0.46465 0.27628 0.0
C37 C 0.9824 0.43091 0.26688 0.0
C38 C 0.95628 0.41577 0.24701 0.0
C39 C 0.94138 0.43423 0.23594 0.0
C40 C 0.95106 0.46707 0.24672 0.0
C41 C 0.97707 0.48212 0.2668 0.0
C42 C 0.06161 0.49045 0.25161 0.0
C43 C 0.07078 0.46653 0.24234 0.0
C44 C 0.0694 0.45955 0.21596 0.0
C45 C 0.05889 0.47648 0.19841 0.0
C46 C 0.05029 0.50089 0.20782 0.0
C47 C 0.05178 0.50788 0.23418 0.0
C48 C 0.12895 0.53412 0.28044 0.0
C49 C 0.15711 0.52763 0.2851 0.0
C50 C 0.19221 0.55142 0.27743 0.0
C51 C 0.19924 0.5814 0.26443 0.0
C52 C 0.17037 0.58624 0.25802 0.0
C53 C 0.1356 0.56293 0.26611 0.0
C54 C 0.12883 0.53671 0.33599 0.0
C55 C 0.13785 0.51745 0.35218 0.0
C56 C 0.16994 0.53411 0.36708 0.0
C57 C 0.19372 0.57036 0.36591 0.0
C58 C 0.18465 0.58952 0.34953 0.0
C59 C 0.15241 0.57286 0.33479 0.0
C60 C 0.06189 0.51223 0.36166 0.0
C61 C 0.05098 0.48375 0.37748 0.0
C62 C 0.06308 0.48911 0.40317 0.0
C63 C 0.0871 0.52306 0.41327 0.0
C64 C 0.09441 0.55149 0.39799 0.0
C65 C 0.08127 0.54605 0.37262 0.0
C66 C 0.99366 0.48309 0.33101 0.0
C67 C 0.96257 0.44961 0.3301 0.0
C68 C 0.92942 0.44454 0.33817 0.0
C69 C 0.92696 0.47278 0.34783 0.0
C70 C 0.95885 0.50571 0.35049 0.0
C71 C 0.99163 0.51089 0.34182 0.0
C72 C 0.05682 0.46856 0.17045 0.0
C73 C 0.2278 0.5882 0.38175 0.0
H74 H 0.52996 0.05099 0.32287 0.0
H75 H 0.53929 0.22311 0.59286 0.0
H76 H 0.52074 0.9808 0.47014 0.0
H77 H 0.51312 0.93805 0.43704 0.0
H78 H 0.41517 0.93256 0.40918 0.0
H79 H 0.42223 0.97414 0.44315 0.0
H80 H 0.54448 0.04493 0.4342 0.0
H81 H 0.54787 0.04746 0.38737 0.0
H82 H 0.44924 0.05057 0.38341 0.0
H83 H 0.44599 0.04758 0.43023 0.0
H84 H 0.5708 0.12288 0.46508 0.0
H85 H 0.58849 0.17646 0.44204 0.0
H86 H 0.47778 0.15281 0.44289 0.0
H87 H 0.46043 0.09926 0.46563 0.0
H88 H 0.56913 0.10882 0.53126 0.0
H89 H 0.59006 0.15851 0.56134 0.0
H90 H 0.48991 0.15685 0.54759 0.0
H91 H 0.46913 0.10682 0.51784 0.0
H92 H 0.5406 0.03146 0.54531 0.0
H93 H 0.5587 0.04872 0.59038 0.0
H94 H 0.47011 0.06681 0.59878 0.0
H95 H 0.45192 0.04906 0.55367 0.0
H96 H 0.50863 0.97083 0.51865 0.0
H97 H 0.4757 0.91104 0.53413 0.0
H98 H 0.37521 0.91022 0.52665 0.0
H99 H 0.40836 0.96984 0.51155 0.0
O100 O 0.52817 0.05014 0.34137 0.0
O101 O 0.4777 0.0522 0.3404 0.0
O102 O 0.58284 0.20343 0.58723 0.0
O103 O 0.53207 0.20405 0.58057 0.0
C104 C 0.481 0.01147 0.47546 0.0
C105 C 0.49272 0.04375 0.46387 0.0
C106 C 0.50313 0.07384 0.47923 0.0
C107 C 0.50374 0.07212 0.50618 0.0
C108 C 0.49186 0.03978 0.51786 0.0
C109 C 0.47946 0.00928 0.50246 0.0
C110 C 0.47202 0.9805 0.45905 0.0
C111 C 0.49694 0.96936 0.45748 0.0
C112 C 0.49278 0.94528 0.43834 0.0
C113 C 0.46383 0.93225 0.4202 0.0
C114 C 0.43759 0.94179 0.42293 0.0
C115 C 0.44163 0.96565 0.44226 0.0
C116 C 0.49511 0.04625 0.43553 0.0
C117 C 0.52371 0.04624 0.42315 0.0
C118 C 0.52555 0.04767 0.39642 0.0
C119 C 0.49885 0.04926 0.38164 0.0
C120 C 0.47028 0.04942 0.39421 0.0
C121 C 0.46842 0.04786 0.42094 0.0
C122 C 0.51439 0.10735 0.46694 0.0
C123 C 0.55054 0.12955 0.46045 0.0
C124 C 0.56056 0.16012 0.44741 0.0
C125 C 0.53448 0.16876 0.44057 0.0
C126 C 0.49839 0.14664 0.4476 0.0
C127 C 0.48847 0.11622 0.4607 0.0
C128 C 0.51772 0.10438 0.52233 0.0
C129 C 0.55194 0.11948 0.5346 0.0
C130 C 0.56376 0.14777 0.55182 0.0
C131 C 0.54159 0.16159 0.55694 0.0
C132 C 0.50763 0.14684 0.54411 0.0
C133 C 0.49579 0.11844 0.52697 0.0
C134 C 0.495 0.03906 0.54621 0.0
C135 C 0.52412 0.03761 0.55717 0.0
C136 C 0.53459 0.04775 0.58289 0.0
C137 C 0.51618 0.0597 0.59795 0.0
C138 C 0.48511 0.05823 0.58749 0.0
C139 C 0.47444 0.04773 0.56185 0.0
C140 C 0.46083 0.9746 0.51413 0.0
C141 C 0.47958 0.95779 0.52069 0.0
C142 C 0.4607 0.9236 0.52932 0.0
C143 C 0.42281 0.90585 0.53159 0.0
C144 C 0.40438 0.92325 0.52547 0.0
C145 C 0.42324 0.95727 0.51679 0.0
C146 C 0.50081 0.05064 0.35324 0.0
C147 C 0.55356 0.19097 0.5758 0.0
H148 H 0.65614 0.60868 0.78469 0.0
H149 H 0.63541 0.40214 0.53907 0.0
H150 H 0.62038 0.63788 0.6499 0.0
H151 H 0.60947 0.66629 0.68638 0.0
H152 H 0.49962 0.57947 0.6889 0.0
H153 H 0.51045 0.5514 0.65222 0.0
H154 H 0.65696 0.59691 0.67268 0.0
H155 H 0.66765 0.60822 0.71911 0.0
H156 H 0.5537 0.53671 0.73085 0.0
H157 H 0.54346 0.5257 0.68445 0.0
H158 H 0.66442 0.53137 0.64009 0.0
H159 H 0.67134 0.48702 0.66241 0.0
H160 H 0.55851 0.43471 0.68203 0.0
H161 H 0.55196 0.47863 0.65989 0.0
H162 H 0.65701 0.55489 0.57723 0.0
H163 H 0.67739 0.52193 0.55201 0.0
H164 H 0.58856 0.42578 0.57975 0.0
H165 H 0.56813 0.45902 0.6045 0.0
H166 H 0.61423 0.59259 0.55709 0.0
H167 H 0.61979 0.5806 0.51193 0.0
H168 H 0.54401 0.47092 0.52248 0.0
H169 H 0.53727 0.48355 0.56685 0.0
H170 H 0.56456 0.62336 0.6027 0.0
H171 H 0.51052 0.62615 0.59222 0.0
H172 H 0.45261 0.51632 0.57122 0.0
H173 H 0.50443 0.51288 0.58488 0.0
O174 O 0.65144 0.60346 0.76643 0.0
O175 O 0.59255 0.56675 0.77136 0.0
O176 O 0.67309 0.46598 0.53508 0.0
O177 O 0.62813 0.41583 0.54902 0.0
C178 C 0.57642 0.57085 0.63352 0.0
C179 C 0.59293 0.55522 0.647 0.0
C180 C 0.60163 0.5329 0.63395 0.0
C181 C 0.59813 0.52959 0.607 0.0
C182 C 0.58068 0.54436 0.5935 0.0
C183 C 0.56749 0.56311 0.60698 0.0
C184 C 0.56618 0.59263 0.6485 0.0
C185 C 0.59344 0.62587 0.65751 0.0
C186 C 0.58728 0.64196 0.67834 0.0
C187 C 0.5539 0.62475 0.69041 0.0
C188 C 0.52559 0.59308 0.67979 0.0
C189 C 0.53162 0.57719 0.65879 0.0
C190 C 0.59944 0.56074 0.67525 0.0
C191 C 0.63442 0.58364 0.68535 0.0
C192 C 0.6404 0.59009 0.71186 0.0
C193 C 0.61148 0.57354 0.72869 0.0
C194 C 0.57655 0.55004 0.71844 0.0
C195 C 0.57061 0.54371 0.69196 0.0
C196 C 0.60783 0.5084 0.64873 0.0
C197 C 0.64145 0.5105 0.6495 0.0
C198 C 0.64525 0.48512 0.66208 0.0
C199 C 0.61551 0.45758 0.67412 0.0
C200 C 0.58209 0.45596 0.67342 0.0
C201 C 0.57831 0.48104 0.6608 0.0
C202 C 0.61135 0.50937 0.59288 0.0
C203 C 0.64214 0.52672 0.57794 0.0
C204 C 0.65367 0.50783 0.56353 0.0
C205 C 0.63463 0.4712 0.56391 0.0
C206 C 0.60389 0.45394 0.57908 0.0
C207 C 0.5923 0.47286 0.59337 0.0
C208 C 0.57569 0.53889 0.56525 0.0
C209 C 0.59773 0.56625 0.54926 0.0
C210 C 0.6013 0.55921 0.5236 0.0
C211 C 0.58308 0.52465 0.51371 0.0
C212 C 0.55837 0.49785 0.52927 0.0
C213 C 0.5545 0.50499 0.55473 0.0
C214 C 0.53866 0.5678 0.59494 0.0
C215 C 0.54018 0.59993 0.5958 0.0
C216 C 0.5093 0.60157 0.58947 0.0
C217 C 0.47668 0.57124 0.58149 0.0
C218 C 0.47666 0.54 0.57819 0.0
C219 C 0.50683 0.53815 0.58542 0.0
C220 C 0.61777 0.58092 0.75678 0.0
C221 C 0.64656 0.45099 0.54845 0.0
H222 H 0.05892 0.44885 -0.00046 0.0
H223 H 0.25856 0.54093 0.74603 0.0
H224 H 0.00338 0.47914 0.86846 0.0
H225 H 0.96414 0.46363 0.90469 0.0
H226 H 0.92015 0.3543 0.88566 0.0
H227 H 0.96252 0.37064 0.85076 0.0
H228 H 0.07632 0.4965 0.89405 0.0
H229 H 0.07429 0.48693 0.94026 0.0
H230 H 0.0239 0.3761 0.92484 0.0
H231 H 0.02654 0.38611 0.87871 0.0
H232 H 0.13843 0.53084 0.85308 0.0
H233 H 0.19734 0.54976 0.87338 0.0
H234 H 0.165 0.44212 0.88448 0.0
H235 H 0.10674 0.42351 0.86278 0.0
H236 H 0.1165 0.53761 0.79824 0.0
H237 H 0.17249 0.56857 0.77451 0.0
H238 H 0.18547 0.47933 0.7795 0.0
H239 H 0.12909 0.44844 0.80283 0.0
H240 H 0.03538 0.50679 0.78372 0.0
H241 H 0.05224 0.53481 0.74251 0.0
H242 H 0.09024 0.46598 0.71989 0.0
H243 H 0.06991 0.43605 0.76021 0.0
H244 H 0.97523 0.46405 0.79382 0.0
H245 H 0.91758 0.4293 0.77022 0.0
H246 H 0.92283 0.33664 0.783 0.0
H247 H 0.98202 0.37233 0.8037 0.0
O248 O 0.05988 0.4521 0.98121 0.0
O249 O 0.03381 0.39533 0.97223 0.0
O250 O 0.22824 0.57437 0.75317 0.0
O251 O 0.2364 0.52934 0.75546 0.0
C252 C 0.01832 0.43681 0.8417 0.0
C253 C 0.0514 0.44768 0.85506 0.0
C254 C 0.08412 0.46454 0.84196 0.0
C255 C 0.08393 0.47149 0.81565 0.0
C256 C 0.0506 0.45954 0.80207 0.0
C257 C 0.01768 0.44079 0.81495 0.0
C258 C 0.98572 0.42606 0.85692 0.0
C259 C 0.98438 0.45181 0.87162 0.0
C260 C 0.96176 0.44276 0.89246 0.0
C261 C 0.93912 0.40757 0.8986 0.0
C262 C 0.93794 0.38169 0.88209 0.0
C263 C 0.96146 0.39088 0.86163 0.0
C264 C 0.05161 0.442 0.88308 0.0
C265 C 0.06517 0.47023 0.90072 0.0
C266 C 0.06382 0.46466 0.92709 0.0
C267 C 0.04885 0.43073 0.93625 0.0
C268 C 0.03557 0.40255 0.91845 0.0
C269 C 0.03703 0.40818 0.8921 0.0
C270 C 0.11871 0.47587 0.85608 0.0
C271 C 0.14414 0.51141 0.85993 0.0
C272 C 0.17755 0.52212 0.87193 0.0
C273 C 0.18592 0.49742 0.88059 0.0
C274 C 0.15958 0.46177 0.87774 0.0
C275 C 0.1263 0.45109 0.86545 0.0
C276 C 0.1187 0.49075 0.80214 0.0
C277 C 0.13146 0.52479 0.79414 0.0
C278 C 0.16346 0.54242 0.78063 0.0
C279 C 0.18345 0.52639 0.77508 0.0
C280 C 0.17075 0.49241 0.78343 0.0
C281 C 0.13862 0.47475 0.79682 0.0
C282 C 0.05106 0.46914 0.77491 0.0
C283 C 0.0453 0.49641 0.76925 0.0
C284 C 0.05587 0.513 0.74585 0.0
C285 C 0.07358 0.50341 0.72801 0.0
C286 C 0.07649 0.47408 0.73292 0.0
C287 C 0.06495 0.45688 0.75606 0.0
C288 C 0.98294 0.42075 0.80024 0.0
C289 C 0.96433 0.43643 0.79075 0.0
C290 C 0.93095 0.41625 0.77762 0.0
C291 C 0.91496 0.3798 0.7746 0.0
C292 C 0.9342 0.36453 0.78412 0.0
C293 C 0.96797 0.38485 0.79642 0.0
C294 C 0.04701 0.42485 0.96427 0.0
C295 C 0.21735 0.54492 0.76058 0.0
H296 H 0.36733 0.93373 0.82427 0.0
H297 H 0.36443 0.77694 0.08163 0.0
H298 H 0.44342 0.03509 0.9494 0.0
H299 H 0.47364 0.07892 0.91683 0.0
H300 H 0.56386 0.062 0.92012 0.0
H301 H 0.53421 0.01983 0.95356 0.0
H302 H 0.3782 0.94634 0.93645 0.0
H303 H 0.36326 0.93884 0.89035 0.0
H304 H 0.47063 0.95911 0.87491 0.0
H305 H 0.485 0.96607 0.921 0.0
H306 H 0.35829 0.87252 0.97228 0.0
H307 H 0.3437 0.81483 0.95496 0.0
H308 H 0.45544 0.85892 0.9345 0.0
H309 H 0.46975 0.91521 0.95212 0.0
H310 H 0.37554 0.91918 0.03346 0.0
H311 H 0.34648 0.86971 0.06193 0.0
H312 H 0.41985 0.83669 0.03748 0.0
H313 H 0.44885 0.88642 0.00933 0.0
H314 H 0.43965 0.00294 0.05019 0.0
H315 H 0.45404 0.0079 0.09657 0.0
H316 H 0.50934 0.95147 0.0844 0.0
H317 H 0.495 0.94677 0.03855 0.0
H318 H 0.48934 0.06528 0.00537 0.0
H319 H 0.54655 0.11651 0.021 0.0
H320 H 0.59368 0.05198 0.02869 0.0
H321 H 0.53764 0.00199 0.01177 0.0
O322 O 0.37375 0.93669 0.84239 0.0
O323 O 0.4293 0.94734 0.83551 0.0
O324 O 0.3383 0.81474 0.08244 0.0
O325 O 0.37533 0.79663 0.07048 0.0
C326 C 0.4667 0.99504 0.97097 0.0
C327 C 0.4415 0.96188 0.96007 0.0
C328 C 0.42646 0.93236 0.97553 0.0
C329 C 0.43187 0.93667 0.00244 0.0
C330 C 0.45647 0.96997 0.0134 0.0
C331 C 0.47571 -0.00135 0.99744 0.0
C332 C 0.48682 0.02463 0.95388 0.0
C333 C 0.47008 0.04158 0.94342 0.0
C334 C 0.4872 0.0662 0.92456 0.0
C335 C 0.52109 0.0738 0.91557 0.0
C336 C 0.5381 0.05731 0.92677 0.0
C337 C 0.52122 0.03316 0.94588 0.0
C338 C 0.43284 0.95732 0.93203 0.0
C339 C 0.39844 0.94919 0.92305 0.0
C340 C 0.39001 0.94494 0.89672 0.0
C341 C 0.41583 0.94858 0.87892 0.0
C342 C 0.45019 0.95634 0.88807 0.0
C343 C 0.45854 0.96054 0.91439 0.0
C344 C 0.41501 0.89803 0.96323 0.0
C345 C 0.37934 0.86955 0.96379 0.0
C346 C 0.37111 0.83681 0.95394 0.0
C347 C 0.3986 0.83242 0.94378 0.0
C348 C 0.43386 0.86136 0.94266 0.0
C349 C 0.44198 0.89365 0.95241 0.0
C350 C 0.41391 0.90607 0.0191 0.0
C351 C 0.38514 0.90111 0.03421 0.0
C352 C 0.36865 0.87288 0.05047 0.0
C353 C 0.38077 0.84916 0.05191 0.0
C354 C 0.40975 0.85436 0.03676 0.0
C355 C 0.42625 0.88264 0.02057 0.0
C356 C 0.46578 0.97397 0.04122 0.0
C357 C 0.45505 0.9919 0.05767 0.0
C358 C 0.46342 0.99486 0.084 0.0
C359 C 0.48313 0.98041 0.09402 0.0
C360 C 0.49477 0.9635 0.07722 0.0
C361 C 0.4861 0.96026 0.05109 0.0
C362 C 0.50932 0.02993 0.00764 0.0
C363 C 0.51212 0.06241 0.01047 0.0
C364 C 0.54467 0.09148 0.01962 0.0
C365 C 0.57474 0.08835 0.0261 0.0
C366 C 0.57134 0.05551 0.02356 0.0
C367 C 0.53918 0.02679 0.01415 0.0
C368 C 0.40685 0.94419 0.85097 0.0
C369 C 0.36343 0.8192 0.06922 0.0
H370 H 0.54312 0.48416 0.98144 0.0
H371 H 0.6842 0.50573 0.2663 0.0
H372 H 0.50448 0.54655 0.1026 0.0
H373 H 0.48777 0.5532 0.05896 0.0
H374 H 0.59258 0.64654 0.05217 0.0
H375 H 0.60902 0.63979 0.09609 0.0
H376 H 0.53359 0.49772 0.09244 0.0
H377 H 0.52895 0.48201 0.04671 0.0
H378 H 0.62867 0.57902 0.03438 0.0
H379 H 0.63301 0.59426 0.08018 0.0
H380 H 0.56455 0.47418 0.14133 0.0
H381 H 0.59194 0.43856 0.13422 0.0
H382 H 0.68904 0.52936 0.10843 0.0
H383 H 0.66178 0.56478 0.11627 0.0
H384 H 0.55281 0.49712 0.19123 0.0
H385 H 0.57205 0.47319 0.22575 0.0
H386 H 0.68382 0.55139 0.21321 0.0
H387 H 0.66422 0.57473 0.17849 0.0
H388 H 0.52292 0.54773 0.1969 0.0
H389 H 0.5223 0.53792 0.24292 0.0
H390 H 0.63872 0.60681 0.24739 0.0
H391 H 0.63851 0.61767 0.20204 0.0
H392 H 0.50633 0.58481 0.14499 0.0
H393 H 0.48988 0.62619 0.1613 0.0
H394 H 0.60053 0.69475 0.18872 0.0
H395 H 0.61697 0.6544 0.17081 0.0
O396 O 0.54604 0.49041 -0.00043 0.0
O397 O 0.59782 0.54025 0.99433 0.0
O398 O 0.61989 0.46851 0.25258 0.0
O399 O 0.67598 0.51434 0.25245 0.0
C400 C 0.57215 0.5807 0.12332 0.0
C401 C 0.58444 0.55778 0.11676 0.0
C402 C 0.59645 0.54425 0.13608 0.0
C403 C 0.59536 0.55273 0.16202 0.0
C404 C 0.58339 0.57581 0.16862 0.0
C405 C 0.57249 0.59047 0.14928 0.0
C406 C 0.5579 0.59271 0.10246 0.0
C407 C 0.52313 0.5694 0.09218 0.0
C408 C 0.51388 0.57292 0.06713 0.0
C409 C 0.53925 0.59991 0.05206 0.0
C410 C 0.57256 0.62549 0.0634 0.0
C411 C 0.58187 0.62187 0.08853 0.0
C412 C 0.58358 0.5471 0.08951 0.0
C413 C 0.55459 0.51531 0.07985 0.0
C414 C 0.55194 0.50651 0.05372 0.0
C415 C 0.57835 0.52934 0.03686 0.0
C416 C 0.60783 0.56087 0.04681 0.0
C417 C 0.61044 0.56961 0.07295 0.0
C418 C 0.61128 0.52195 0.12929 0.0
C419 C 0.59163 0.48619 0.13397 0.0
C420 C 0.60726 0.46596 0.12986 0.0
C421 C 0.64276 0.48127 0.12101 0.0
C422 C 0.66191 0.51698 0.11572 0.0
C423 C 0.64629 0.53715 0.11988 0.0
C424 C 0.60715 0.5376 0.18242 0.0
C425 C 0.58143 0.50889 0.1959 0.0
C426 C 0.59249 0.4953 0.21559 0.0
C427 C 0.62948 0.51047 0.22226 0.0
C428 C 0.65514 0.53921 0.20861 0.0
C429 C 0.64407 0.55251 0.18874 0.0
C430 C 0.5809 0.58266 0.19617 0.0
C431 C 0.54791 0.56228 0.20823 0.0
C432 C 0.54771 0.55638 0.23447 0.0
C433 C 0.58061 0.57031 0.24867 0.0
C434 C 0.6128 0.59534 0.23722 0.0
C435 C 0.61285 0.60163 0.21113 0.0
C436 C 0.56287 0.61672 0.15657 0.0
C437 C 0.52712 0.6092 0.15392 0.0
C438 C 0.5177 0.63265 0.16366 0.0
C439 C 0.5438 0.66377 0.17657 0.0
C440 C 0.57978 0.67141 0.17861 0.0
C441 C 0.58923 0.64825 0.16852 0.0
C442 C 0.57483 0.52043 0.00898 0.0
C443 C 0.64134 0.49642 0.24335 0.0
Mg444 Mg 0.6558 0.42564 0.3511 0.0
O445 O 0.65618 0.45881 0.38521 0.0
O446 O 0.68398 0.5145 0.37341 0.0
Mg447 Mg 0.6984 0.51634 0.33126 0.0
C448 C 0.66786 0.49103 0.38994 0.0
C449 C 0.61462 0.351 0.37141 0.0
O450 O 0.59469 0.3481 0.35107 0.0
O451 O 0.7166 0.44716 0.35643 0.0
O452 O 0.73989 0.50083 0.34169 0.0
O453 O 0.60192 0.41714 0.33856 0.0
O454 O 0.65466 0.46148 0.32707 0.0
C455 C 0.74375 0.47652 0.3506 0.0
C456 C 0.61994 0.44676 0.32751 0.0
O457 O 0.64262 0.38041 0.37708 0.0
Mg458 Mg 0.26385 0.63744 0.5904 0.0
O459 O 0.22821 0.61407 0.55347 0.0
O460 O 0.20302 0.55622 0.5551 0.0
Mg461 Mg 0.21922 0.54222 0.59297 0.0
C462 C 0.20784 0.58332 0.54379 0.0
C463 C 0.29066 0.71578 0.58509 0.0
O464 O 0.26901 0.70752 0.60455 0.0
O465 O 0.30657 0.6258 0.57568 0.0
O466 O 0.27852 0.56851 0.58157 0.0
O467 O 0.21674 0.6338 0.61119 0.0
O468 O 0.22911 0.59182 0.60919 0.0
C469 C 0.30647 0.59723 0.5756 0.0
C470 C 0.20786 0.60229 0.61643 0.0
O471 O 0.29409 0.69212 0.57409 0.0
Mg472 Mg 0.61926 0.24582 0.76572 0.0
O473 O 0.60201 0.2082 0.73078 0.0
O474 O 0.6189 0.16972 0.73869 0.0
Mg475 Mg 0.64721 0.1832 0.77844 0.0
C476 C 0.60378 0.18155 0.72418 0.0
C477 C 0.60065 0.30165 0.75529 0.0
O478 O 0.59308 0.29539 0.77964 0.0
O479 O 0.67797 0.27356 0.75499 0.0
O480 O 0.69486 0.23545 0.76476 0.0
O481 O 0.56694 0.21026 0.7842 0.0
O482 O 0.61713 0.20874 0.78978 0.0
C483 C 0.70204 0.26519 0.75691 0.0
C484 C 0.58354 0.19611 0.79472 0.0
O485 O 0.61089 0.28375 0.74291 0.0
Mg486 Mg 0.45734 0.64109 0.8635 0.0
O487 O 0.49049 0.6384 0.89693 0.0
O488 O 0.48966 0.58839 0.89205 0.0
Mg489 Mg 0.46422 0.56402 0.85245 0.0
C490 C 0.49805 0.61612 0.90503 0.0
C491 C 0.42052 0.68014 0.88598 0.0
O492 O 0.39369 0.65777 0.87065 0.0
O493 O 0.40676 0.59637 0.8797 0.0
O494 O 0.40837 0.549 0.86776 0.0
O495 O 0.50591 0.67179 0.83945 0.0
O496 O 0.47283 0.61434 0.83971 0.0
C497 C 0.39227 0.56336 0.87788 0.0
C498 C 0.49994 0.6419 0.83088 0.0
O499 O 0.44996 0.68004 0.88672 0.0
Mg500 Mg 0.78193 0.356 0.05914 0.0
O501 O 0.82166 0.36575 0.09268 0.0
O502 O 0.85074 0.3382 0.08239 0.0
Mg503 Mg 0.83229 0.31386 0.0418 0.0
C504 C 0.84464 0.35673 0.09802 0.0
C505 C 0.76928 0.40386 0.09574 0.0
O506 O 0.80487 0.42148 0.09584 0.0
O507 O 0.7448 0.29979 0.07016 0.0
O508 O 0.77451 0.27507 0.05455 0.0
O509 O 0.82273 0.40327 0.03891 0.0
O510 O 0.81489 0.35092 0.03307 0.0
C511 C 0.74655 0.27284 0.06461 0.0
C512 C 0.83174 0.38322 0.02724 0.0
O513 O 0.75206 0.37484 0.08344 0.0
Mg514 Mg 0.44274 0.82437 0.23148 0.0
O515 O 0.46168 0.84693 0.27245 0.0
O516 O 0.5183 0.89182 0.26892 0.0
Mg517 Mg 0.53361 0.89993 0.22664 0.0
C518 C 0.49111 0.8721 0.28245 0.0
C519 C 0.37688 0.75508 0.22521 0.0
O520 O 0.38636 0.76818 0.20232 0.0
O521 O 0.47933 0.80215 0.23102 0.0
O522 O 0.5336 0.84844 0.22348 0.0
O523 O 0.41947 0.85805 0.22529 0.0
O524 O 0.47545 0.87285 0.21655 0.0
C525 C 0.51273 0.81564 0.22605 0.0
C526 C 0.45081 0.88096 0.21684 0.0
O527 O 0.39607 0.77315 0.24462 0.0
H528 H 0.22544 0.61542 0.22031 0.0
H529 H 0.25641 0.61125 0.29866 0.0
H530 H 0.31526 0.66428 0.29332 0.0
H531 H 0.35568 0.71456 0.26733 0.0
H532 H 0.32392 0.71818 0.18894 0.0
H533 H 0.26758 0.66286 0.1934 0.0
C534 C 0.24532 0.62596 0.23608 0.0
C535 C 0.23672 0.60965 0.25981 0.0
C536 C 0.27872 0.65661 0.23298 0.0
C537 C 0.26268 0.62323 0.2801 0.0
C538 C 0.29613 0.65372 0.27714 0.0
C539 C 0.33647 0.70314 0.25123 0.0
C540 C 0.34378 0.72066 0.22796 0.0
C541 C 0.30409 0.6711 0.25385 0.0
C542 C 0.31889 0.70533 0.20712 0.0
C543 C 0.28663 0.67367 0.20962 0.0
H544 H 0.59368 0.23404 0.44761 0.0
H545 H 0.49775 0.17362 0.39934 0.0
H546 H 0.51384 0.22467 0.37402 0.0
H547 H 0.55533 0.28613 0.36523 0.0
H548 H 0.65157 0.34696 0.4132 0.0
H549 H 0.63531 0.29602 0.43886 0.0
C550 C 0.57645 0.23205 0.43145 0.0
C551 C 0.54452 0.2001 0.42542 0.0
C552 C 0.58592 0.26153 0.4169 0.0
C553 C 0.52221 0.19801 0.40461 0.0
C554 C 0.53149 0.22714 0.39002 0.0
C555 C 0.5728 0.28832 0.38129 0.0
C556 C 0.60466 0.32033 0.38722 0.0
C557 C 0.56328 0.259 0.39598 0.0
C558 C 0.62688 0.32264 0.40818 0.0
C559 C 0.61762 0.29352 0.42287 0.0
H560 H 0.46449 0.62254 0.56426 0.0
H561 H 0.4099 0.51906 0.59489 0.0
H562 H 0.3528 0.51697 0.59257 0.0
H563 H 0.31849 0.54486 0.58465 0.0
H564 H 0.37167 0.65026 0.55819 0.0
H565 H 0.42902 0.65118 0.55626 0.0
C566 C 0.44015 0.59957 0.57048 0.0
C567 C 0.44182 0.57076 0.57925 0.0
C568 C 0.40702 0.59884 0.56997 0.0
C569 C 0.40971 0.54125 0.58718 0.0
C570 C 0.37686 0.54008 0.58617 0.0
C571 C 0.34241 0.56803 0.57813 0.0
C572 C 0.34061 0.59741 0.57153 0.0
C573 C 0.37524 0.56874 0.57782 0.0
C574 C 0.37219 0.6272 0.56337 0.0
C575 C 0.40503 0.62779 0.56236 0.0
H576 H 0.85847 0.39144 0.77629 0.0
H577 H 0.88589 0.317 0.74763 0.0
H578 H 0.82221 0.27532 0.73787 0.0
H579 H 0.75804 0.25767 0.74218 0.0
H580 H 0.73196 0.33447 0.76666 0.0
H581 H 0.79616 0.37806 0.77217 0.0
C582 C 0.85107 0.36667 0.76713 0.0
C583 C 0.87731 0.35727 0.76365 0.0
C584 C 0.81447 0.34309 0.76076 0.0
C585 C 0.8664 0.32467 0.75175 0.0
C586 C 0.82989 0.30079 0.74587 0.0
C587 C 0.76651 0.28416 0.74818 0.0
C588 C 0.74035 0.29269 0.75438 0.0
C589 C 0.80357 0.30929 0.75114 0.0
C590 C 0.75159 0.32721 0.76178 0.0
C591 C 0.78832 0.35213 0.76515 0.0
H592 H 0.43782 0.8034 0.95611 0.0
H593 H 0.34454 0.78485 0.91087 0.0
H594 H 0.34089 0.73337 0.89031 0.0
H595 H 0.3689 0.698 0.8819 0.0
H596 H 0.46474 0.72011 0.92584 0.0
H597 H 0.46295 0.7661 0.95005 0.0
C598 C 0.41651 0.78788 0.94187 0.0
C599 C 0.39183 0.79806 0.93466 0.0
C600 C 0.41542 0.75933 0.92966 0.0
C601 C 0.36383 0.77742 0.91667 0.0
C602 C 0.36199 0.74825 0.90478 0.0
C603 C 0.38915 0.71268 0.89694 0.0
C604 C 0.41721 0.70597 0.90181 0.0
C605 C 0.38836 0.73962 0.91057 0.0
C606 C 0.44317 0.72508 0.92144 0.0
C607 C 0.44213 0.75132 0.93537 0.0
H608 H 0.71144 0.49939 0.13473 0.0
H609 H 0.6126 0.41592 0.09923 0.0
H610 H 0.64222 0.38281 0.09085 0.0
H611 H 0.69731 0.37977 0.09051 0.0
H612 H 0.79701 0.4645 0.12417 0.0
H613 H 0.76583 0.49494 0.13644 0.0
C614 C 0.69643 0.47399 0.12509 0.0
C615 C 0.66002 0.46028 0.11735 0.0
C616 C 0.71376 0.45539 0.11998 0.0
C617 C 0.64063 0.42698 0.10545 0.0
C618 C 0.65758 0.40813 0.10054 0.0
C619 C 0.71217 0.40469 0.10082 0.0
C620 C 0.74951 0.41998 0.10621 0.0
C621 C 0.69429 0.42236 0.10732 0.0
C622 C 0.7683 0.45225 0.11964 0.0
C623 C 0.75053 0.46973 0.12659 0.0
H624 H 0.36736 0.8767 0.56472 0.0
H625 H 0.43193 0.85216 0.51634 0.0
H626 H 0.39657 0.79114 0.52825 0.0
H627 H 0.34665 0.74451 0.55204 0.0
H628 H 0.28235 0.76961 0.60036 0.0
H629 H 0.31783 0.83042 0.58846 0.0
C630 C 0.37357 0.85797 0.55665 0.0
C631 C 0.40224 0.86902 0.53965 0.0
C632 C 0.353 0.82292 0.56344 0.0
C633 C 0.4103 0.84447 0.52972 0.0
C634 C 0.38991 0.80951 0.53637 0.0
C635 C 0.3403 0.76325 0.55987 0.0
C636 C 0.31178 0.75242 0.57702 0.0
C637 C 0.36108 0.79839 0.55314 0.0
C638 C 0.30413 0.77715 0.58713 0.0
C639 C 0.32443 0.812 0.58037 0.0
H640 H 0.58899 0.42942 0.72005 0.0
H641 H 0.64824 0.42308 0.6564 0.0
H642 H 0.64844 0.37379 0.67574 0.0
H643 H 0.63006 0.33146 0.71011 0.0
H644 H 0.57061 0.33805 0.77362 0.0
H645 H 0.57153 0.3879 0.75463 0.0
C646 C 0.60188 0.41718 0.71039 0.0
C647 C 0.61844 0.42974 0.6868 0.0
C648 C 0.60148 0.3887 0.72143 0.0
C649 C 0.63562 0.41409 0.67471 0.0
C650 C 0.63545 0.38573 0.68564 0.0
C651 C 0.61712 0.34367 0.71972 0.0
C652 C 0.60008 0.33093 0.74316 0.0
C653 C 0.61812 0.37259 0.70885 0.0
C654 C 0.58383 0.3473 0.75553 0.0
C655 C 0.58441 0.37585 0.74472 0.0
H656 H 0.22492 0.46695 0.86998 0.0
H657 H 0.23122 0.55418 0.91158 0.0
H658 H 0.29649 0.5802 0.91801 0.0
H659 H 0.3522 0.58238 0.9057 0.0
H660 H 0.34551 0.4951 0.86385 0.0
H661 H 0.27961 0.46419 0.86466 0.0
C662 C 0.24024 0.49105 0.88123 0.0
C663 C 0.22332 0.50898 0.88976 0.0
C664 C 0.27772 0.50596 0.88469 0.0
C665 C 0.24378 0.54032 0.90418 0.0
C666 C 0.28107 0.55517 0.90794 0.0
C667 C 0.33636 0.55628 0.89722 0.0
C668 C 0.35371 0.54146 0.88416 0.0
C669 C 0.29848 0.53894 0.89726 0.0
C670 C 0.33286 0.50733 0.87377 0.0
C671 C 0.29512 0.48969 0.87407 0.0
H672 H 0.5877 0.14301 0.05807 0.0
H673 H 0.64176 0.10343 0.01192 0.0
H674 H 0.70012 0.1545 0.02359 0.0
H675 H 0.73534 0.21238 0.04337 0.0
H676 H 0.68202 0.25523 0.0867 0.0
H677 H 0.62402 0.20074 0.07993 0.0
C678 C 0.61225 0.14562 0.05054 0.0
C679 C 0.61021 0.1193 0.03416 0.0
C680 C 0.64593 0.17561 0.05685 0.0
C681 C 0.64241 0.12292 0.02488 0.0
C682 C 0.67589 0.15226 0.03142 0.0
C683 C 0.71124 0.20974 0.0518 0.0
C684 C 0.7131 0.23804 0.06538 0.0
C685 C 0.6779 0.17897 0.04703 0.0
C686 C 0.68142 0.23394 0.07608 0.0
C687 C 0.64817 0.20286 0.07206 0.0
H688 H 0.58333 0.73492 0.17942 0.0
H689 H 0.48112 0.64665 0.20095 0.0
H690 H 0.46363 0.68582 0.21973 0.0
H691 H 0.47638 0.74495 0.22872 0.0
H692 H 0.57939 0.8332 0.20844 0.0
H693 H 0.59806 0.79396 0.19154 0.0
C694 C 0.55745 0.72412 0.18857 0.0
C695 C 0.53348 0.68777 0.18845 0.0
C696 C 0.54781 0.74675 0.19984 0.0
C697 C 0.49982 0.67446 0.20012 0.0
C698 C 0.48992 0.69685 0.21115 0.0
C699 C 0.50312 0.7557 0.22092 0.0
C700 C 0.52628 0.79206 0.2197 0.0
C701 C 0.51357 0.73303 0.21092 0.0
C702 C 0.56091 0.80538 0.20962 0.0
C703 C 0.57157 0.78294 0.19978 0.0
H704 H 0.90618 0.51953 0.33868 0.0
H705 H 0.86647 0.4168 0.36792 0.0
H706 H 0.80645 0.40922 0.37247 0.0
H707 H 0.76461 0.43102 0.36617 0.0
H708 H 0.80667 0.53502 0.33845 0.0
H709 H 0.8667 0.54309 0.33622 0.0
C710 C 0.88483 0.49576 0.34672 0.0
C711 C 0.89109 0.46882 0.35292 0.0
C712 C 0.85066 0.49175 0.3496 0.0
C713 C 0.86246 0.43785 0.3626 0.0
C714 C 0.82812 0.43356 0.36536 0.0
C715 C 0.78697 0.45558 0.35991 0.0
C716 C 0.78083 0.48218 0.35224 0.0
C717 C 0.82178 0.4602 0.35858 0.0
C718 C 0.8103 0.51391 0.34432 0.0
C719 C 0.84477 0.51861 0.34297 0.0
H720 H 0.11331 0.57854 0.44808 0.0
H721 H 0.10885 0.48085 0.43445 0.0
H722 H 0.14487 0.49074 0.47335 0.0
H723 H 0.17934 0.5275 0.5107 0.0
H724 H 0.18937 0.62771 0.52244 0.0
H725 H 0.15091 0.61702 0.48417 0.0
C726 C 0.12041 0.55946 0.45332 0.0
C727 C 0.10755 0.52866 0.43817 0.0
C728 C 0.14279 0.56601 0.47525 0.0
C729 C 0.11695 0.50425 0.44588 0.0
C730 C 0.1382 0.51011 0.46803 0.0
C731 C 0.17323 0.54709 0.50486 0.0
C732 C 0.18715 0.57831 0.51947 0.0
C733 C 0.15143 0.54094 0.48277 0.0
C734 C 0.17922 0.60353 0.51147 0.0
C735 C 0.15701 0.59733 0.48968 0.0
H736 H 0.52578 0.12116 0.61578 0.0
H737 H 0.54233 0.03754 0.63676 0.0
H738 H 0.57153 0.0682 0.67744 0.0
H739 H 0.59275 0.11893 0.70677 0.0
H740 H 0.57584 0.20245 0.68568 0.0
H741 H 0.54631 0.17154 0.64532 0.0
C742 C 0.53523 0.10937 0.62946 0.0
C743 C 0.53159 0.07696 0.6234 0.0
C744 C 0.55216 0.12723 0.65268 0.0
C745 C 0.54484 0.06246 0.641 0.0
C746 C 0.56152 0.07997 0.66424 0.0
C747 C 0.58272 0.13049 0.69336 0.0
C748 C 0.58665 0.16307 0.69934 0.0
C749 C 0.56551 0.11247 0.67021 0.0
C750 C 0.57324 0.17744 0.68168 0.0
C751 C 0.55627 0.15975 0.65857 0.0
H752 H 0.54171 0.58946 0.73351 0.0
H753 H 0.55956 0.68648 0.70482 0.0
H754 H 0.55006 0.70335 0.74781 0.0
H755 H 0.53022 0.68707 0.79229 0.0
H756 H 0.51181 0.58919 0.81996 0.0
H757 H 0.52907 0.57636 0.77879 0.0
C758 C 0.54367 0.61436 0.73679 0.0
C759 C 0.55042 0.63644 0.7162 0.0
C760 C 0.5384 0.62372 0.76134 0.0
C761 C 0.55382 0.66899 0.72052 0.0
C762 C 0.54849 0.67858 0.74502 0.0
C763 C 0.53103 0.66344 0.7895 0.0
C764 C 0.51938 0.63888 0.80898 0.0
C765 C 0.53999 0.65578 0.76546 0.0
C766 C 0.52022 0.60823 0.80512 0.0
C767 C 0.52993 0.60081 0.78156 0.0
H768 H 0.9106 0.44174 0.92399 0.0
H769 H 0.92443 0.35304 0.92957 0.0
H770 H 0.89411 0.33875 0.97031 0.0
H771 H 0.8631 0.35091 0.00419 0.0
H772 H 0.85433 0.44245 0.00064 0.0
H773 H 0.88531 0.45723 0.9599 0.0
C774 C 0.90766 0.41959 0.93418 0.0
C775 C 0.91952 0.39832 0.92323 0.0
C776 C 0.89172 0.41235 0.95828 0.0
C777 C 0.91463 0.36936 0.93684 0.0
C778 C 0.89778 0.36141 0.96045 0.0
C779 C 0.86842 0.37437 0.99473 0.0
C780 C 0.85626 0.39543 0.00539 0.0
C781 C 0.88617 0.38268 0.97132 0.0
C782 C 0.86357 0.42586 0.99292 0.0
C783 C 0.88095 0.43415 0.96949 0.0
H784 H 0.43228 0.96185 0.13001 0.0
H785 H 0.54443 0.99408 0.12061 0.0
H786 H 0.54668 0.97265 0.16297 0.0
H787 H 0.51268 0.93257 0.19689 0.0
H788 H 0.39948 0.89732 0.20491 0.0
H789 H 0.4021 0.93335 0.1695 0.0
C790 C 0.4576 0.96547 0.13768 0.0
C791 C 0.48787 0.97862 0.12203 0.0
C792 C 0.45833 0.95208 0.16166 0.0
C793 C 0.52055 0.98325 0.13217 0.0
C794 C 0.52181 0.97093 0.15633 0.0
C795 C 0.48887 0.93361 0.19145 0.0
C796 C 0.45566 0.91141 0.20288 0.0
C797 C 0.49022 0.95331 0.17044 0.0
C798 C 0.42526 0.91369 0.19607 0.0
C799 C 0.42665 0.93409 0.17565 0.0
H800 H 0.54181 0.50108 0.25808 0.0
H801 H 0.62585 0.59968 0.29135 0.0
H802 H 0.64364 0.56909 0.32094 0.0
H803 H 0.64141 0.51498 0.33213 0.0
H804 H 0.55691 0.41672 0.29938 0.0
H805 H 0.53224 0.44669 0.27521 0.0
C806 C 0.56304 0.51609 0.27244 0.0
C807 C 0.58307 0.55279 0.27196 0.0
C808 C 0.57338 0.49839 0.28916 0.0
C809 C 0.6106 0.57146 0.29079 0.0
C810 C 0.62087 0.554 0.30767 0.0
C811 C 0.61754 0.50019 0.31977 0.0
C812 C 0.60167 0.46397 0.31669 0.0
C813 C 0.60365 0.51758 0.30605 0.0
C814 C 0.56975 0.44475 0.30167 0.0
C815 C 0.55574 0.46187 0.28786 0.0
H816 H 0.52103 0.94442 0.3917 0.0
H817 H 0.40531 0.8759 0.39591 0.0
H818 H 0.40398 0.84865 0.35449 0.0
H819 H 0.4351 0.84807 0.31545 0.0
H820 H 0.55085 0.91756 0.31163 0.0
H821 H 0.55277 0.9399 0.35491 0.0
C822 C 0.49559 0.9229 0.38396 0.0
C823 C 0.4633 0.91231 0.39691 0.0
C824 C 0.495 0.90758 0.36012 0.0
C825 C 0.43051 0.88486 0.38621 0.0
C826 C 0.42975 0.86921 0.36256 0.0
C827 C 0.46085 0.86765 0.32423 0.0
C828 C 0.49272 0.88133 0.31011 0.0
C829 C 0.46174 0.88093 0.34906 0.0
C830 C 0.52583 0.90675 0.32188 0.0
C831 C 0.52698 0.91963 0.34665 0.0
H832 H 0.64987 0.55456 0.49309 0.0
H833 H 0.53806 0.47442 0.47794 0.0
H834 H 0.55527 0.45528 0.4395 0.0
H835 H 0.60211 0.46092 0.41036 0.0
H836 H 0.71258 0.54462 0.42287 0.0
H837 H 0.69586 0.56305 0.46225 0.0
C838 C 0.62904 0.53345 0.48112 0.0
C839 C 0.59269 0.51591 0.48856 0.0
C840 C 0.63898 0.52298 0.45877 0.0
C841 C 0.56631 0.48808 0.47296 0.0
C842 C 0.5761 0.47713 0.45093 0.0
C843 C 0.62249 0.48296 0.42194 0.0
C844 C 0.65857 0.50106 0.41426 0.0
C845 C 0.61238 0.49413 0.44383 0.0
C846 C 0.68472 0.53018 0.42878 0.0
C847 C 0.67512 0.54075 0.45113 0.0
H848 H 0.08405 0.48482 0.67994 0.0
H849 H 0.10881 0.57468 0.7277 0.0
H850 H 0.14795 0.61313 0.6952 0.0
H851 H 0.18162 0.62156 0.65584 0.0
H852 H 0.16235 0.53203 0.6104 0.0
H853 H 0.11528 0.49335 0.63938 0.0
C854 C 0.09791 0.51279 0.68328 0.0
C855 C 0.09327 0.52654 0.70642 0.0
C856 C 0.12193 0.53498 0.66499 0.0
C857 C 0.11104 0.56302 0.71 0.0
C858 C 0.13394 0.58522 0.69151 0.0
C859 C 0.16655 0.59362 0.65206 0.0
C860 C 0.17562 0.57957 0.63127 0.0
C861 C 0.1404 0.57151 0.66928 0.0
C862 C 0.15625 0.54336 0.6266 0.0
C863 C 0.12927 0.52125 0.64312 0.0
H864 H 0.48763 0.08159 0.87338 0.0
H865 H 0.59324 0.12049 0.90936 0.0
H866 H 0.62159 0.15866 0.87362 0.0
H867 H 0.61654 0.18281 0.8332 0.0
H868 H 0.51116 0.1492 0.79929 0.0
H869 H 0.48244 0.10725 0.8334 0.0
C870 C 0.51681 0.09876 0.87367 0.0
C871 C 0.53818 0.09796 0.89412 0.0
C872 C 0.53297 0.12151 0.8534 0.0
C873 C 0.57605 0.11997 0.89374 0.0
C874 C 0.59234 0.14202 0.87336 0.0
C875 C 0.58728 0.16599 0.8331 0.0
C876 C 0.56593 0.16874 0.81371 0.0
C877 C 0.57107 0.14306 0.85317 0.0
C878 C 0.52808 0.14735 0.81403 0.0
C879 C 0.51171 0.12351 0.83353 0.0
H880 H 0.54848 0.65274 0.02164 0.0
H881 H 0.51614 0.54417 0.01954 0.0
H882 H 0.5041 0.54053 0.97336 0.0
H883 H 0.49937 0.56709 0.93411 0.0
H884 H 0.52931 0.67511 0.93593 0.0
H885 H 0.54622 0.68022 0.9815 0.0
C886 C 0.53894 0.62841 0.01097 0.0
C887 C 0.53259 0.59865 0.02398 0.0
C888 C 0.53174 0.6264 0.98437 0.0
C889 C 0.52039 0.56723 0.01 0.0
C890 C 0.51375 0.56518 0.98358 0.0
C891 C 0.51012 0.59194 0.94432 0.0
C892 C 0.51299 0.62063 0.93158 0.0
C893 C 0.51886 0.59446 0.97062 0.0
C894 C 0.52672 0.65254 0.94526 0.0
C895 C 0.53627 0.65547 0.97136 0.0
H896 H 0.95064 0.40152 0.19503 0.0
H897 H 0.88081 0.4369 0.2226 0.0
H898 H 0.84497 0.41646 0.18235 0.0
H899 H 0.83363 0.3886 0.13921 0.0
H900 H 0.90291 0.35181 0.11277 0.0
H901 H 0.93829 0.3722 0.15293 0.0
C902 C 0.92717 0.40421 0.19252 0.0
C903 C 0.91834 0.42052 0.21199 0.0
C904 C 0.90654 0.39214 0.16948 0.0
C905 C 0.88842 0.42466 0.20794 0.0
C906 C 0.86781 0.41284 0.18495 0.0
C907 C 0.85642 0.38498 0.14222 0.0
C908 C 0.8655 0.36866 0.12286 0.0
C909 C 0.87669 0.39662 0.16554 0.0
C910 C 0.89511 0.36414 0.12725 0.0
C911 C 0.91547 0.37586 0.15024 0.0
loop_
_geom_bond_atom_site_label_1
_geom_bond_atom_site_label_2
_geom_bond_distance
_geom_bond_site_symmetry_2
_ccdc_geom_bond_type
H0 O26 0.856 . S
H1 O29 0.854 . S
H2 C37 0.930 1_455 S
H3 C38 0.930 . S
H4 C40 0.930 . S
H5 C41 0.930 . S
H6 C43 0.931 . S
H7 C44 0.930 . S
H8 C46 0.930 . S
H9 C47 0.929 . S
H10 C49 0.930 . S
H11 C50 0.931 . S
H12 C52 0.930 . S
H13 C53 0.929 . S
H14 C55 0.931 . S
H15 C56 0.930 . S
H16 C58 0.930 . S
H17 C59 0.932 . S
H18 C61 0.930 . S
H19 C62 0.929 . S
H20 C64 0.931 . S
H21 C65 0.930 . S
H22 C67 0.929 . S
H23 C68 0.931 . S
H24 C70 0.930 . S
H25 C71 0.928 1_455 S
O26 H0 0.856 . S
O26 C72 1.300 . S
O27 C72 1.209 . S
O28 C73 1.199 . S
O29 H1 0.854 . S
O29 C73 1.297 . S
C30 C31 1.404 . S
C30 C35 1.397 . S
C30 C36 1.492 . S
C31 C30 1.404 . S
C31 C32 1.396 . S
C31 C42 1.492 . S
C32 C31 1.396 . S
C32 C33 1.397 . S
C32 C48 1.509 . S
C33 C32 1.397 . S
C33 C34 1.412 . S
C33 C54 1.485 . S
C34 C33 1.412 . S
C34 C35 1.388 . S
C34 C60 1.490 . S
C35 C30 1.397 . S
C35 C34 1.388 . S
C35 C66 1.519 1_455 S
C36 C30 1.492 . S
C36 C37 1.363 1_455 S
C36 C41 1.390 1_455 S
C37 H2 0.930 1_655 S
C37 C36 1.363 1_655 S
C37 C38 1.372 . S
C38 H3 0.930 . S
C38 C37 1.372 . S
C38 C39 1.383 . S
C39 C38 1.383 . S
C39 C40 1.395 . S
C40 H4 0.930 . S
C40 C39 1.395 . S
C40 C41 1.362 . S
C41 H5 0.930 . S
C41 C36 1.390 1_655 S
C41 C40 1.362 . S
C42 C31 1.492 . S
C42 C43 1.377 . S
C42 C47 1.397 . S
C43 H6 0.931 . S
C43 C42 1.377 . S
C43 C44 1.376 . S
C44 H7 0.930 . S
C44 C43 1.376 . S
C44 C45 1.376 . S
C45 C44 1.376 . S
C45 C46 1.378 . S
C45 C72 1.486 . S
C46 H8 0.930 . S
C46 C45 1.378 . S
C46 C47 1.376 . S
C47 H9 0.929 . S
C47 C42 1.397 . S
C47 C46 1.376 . S
C48 C32 1.509 . S
C48 C49 1.391 . S
C48 C53 1.386 . S
C49 H10 0.930 . S
C49 C48 1.391 . S
C49 C50 1.375 . S
C50 H11 0.931 . S
C50 C49 1.375 . S
C50 C51 1.375 . S
C51 C50 1.375 . S
C51 C52 1.361 . S
C52 H12 0.930 . S
C52 C51 1.361 . S
C52 C53 1.399 . S
C53 H13 0.929 . S
C53 C48 1.386 . S
C53 C52 1.399 . S
C54 C33 1.485 . S
C54 C55 1.394 . S
C54 C59 1.360 . S
C55 H14 0.931 . S
C55 C54 1.394 . S
C55 C56 1.372 . S
C56 H15 0.930 . S
C56 C55 1.372 . S
C56 C57 1.397 . S
C57 C56 1.397 . S
C57 C58 1.390 . S
C57 C73 1.476 . S
C58 H16 0.930 . S
C58 C57 1.390 . S
C58 C59 1.366 . S
C59 H17 0.932 . S
C59 C54 1.360 . S
C59 C58 1.366 . S
C60 C34 1.490 . S
C60 C61 1.380 . S
C60 C65 1.386 . S
C61 H18 0.930 . S
C61 C60 1.380 . S
C61 C62 1.381 . S
C62 H19 0.929 . S
C62 C61 1.381 . S
C62 C63 1.371 . S
C63 C62 1.371 . S
C63 C64 1.380 . S
C64 H20 0.931 . S
C64 C63 1.380 . S
C64 C65 1.387 . S
C65 H21 0.930 . S
C65 C60 1.386 . S
C65 C64 1.387 . S
C66 C35 1.519 1_655 S
C66 C67 1.377 . S
C66 C71 1.361 . S
C67 H22 0.929 . S
C67 C66 1.377 . S
C67 C68 1.386 . S
C68 H23 0.931 . S
C68 C67 1.386 . S
C68 C69 1.363 . S
C69 C68 1.363 . S
C69 C70 1.385 . S
C70 H24 0.930 . S
C70 C69 1.385 . S
C70 C71 1.396 . S
C71 H25 0.928 1_655 S
C71 C66 1.361 . S
C71 C70 1.396 . S
C72 O26 1.300 . S
C72 O27 1.209 . S
C72 C45 1.486 . S
C73 O28 1.199 . S
C73 O29 1.297 . S
C73 C57 1.476 . S
H74 O100 0.856 . S
H75 O103 0.854 . S
H76 C111 0.930 1_545 S
H77 C112 0.930 . S
H78 C114 0.930 . S
H79 C115 0.930 . S
H80 C117 0.931 . S
H81 C118 0.930 . S
H82 C120 0.930 . S
H83 C121 0.929 . S
H84 C123 0.930 . S
H85 C124 0.931 . S
H86 C126 0.930 . S
H87 C127 0.929 . S
H88 C129 0.931 . S
H89 C130 0.930 . S
H90 C132 0.930 . S
H91 C133 0.932 . S
H92 C135 0.930 . S
H93 C136 0.929 . S
H94 C138 0.931 . S
H95 C139 0.930 . S
H96 C141 0.929 . S
H97 C142 0.931 . S
H98 C144 0.930 . S
H99 C145 0.929 . S
O100 H74 0.856 . S
O100 C146 1.300 . S
O101 C146 1.209 . S
O102 C147 1.199 . S
O103 H75 0.854 . S
O103 C147 1.297 . S
C104 C105 1.404 . S
C104 C109 1.397 . S
C104 C110 1.492 . S
C105 C104 1.404 . S
C105 C106 1.396 . S
C105 C116 1.492 . S
C106 C105 1.396 . S
C106 C107 1.397 . S
C106 C122 1.509 . S
C107 C106 1.397 . S
C107 C108 1.412 . S
C107 C128 1.485 . S
C108 C107 1.412 . S
C108 C109 1.388 . S
C108 C134 1.490 . S
C109 C104 1.397 . S
C109 C108 1.388 . S
C109 C140 1.519 1_545 S
C110 C104 1.492 . S
C110 C111 1.363 1_545 S
C110 C115 1.390 1_545 S
C111 H76 0.930 1_565 S
C111 C110 1.363 1_565 S
C111 C112 1.372 . S
C112 H77 0.930 . S
C112 C111 1.372 . S
C112 C113 1.383 . S
C113 C112 1.383 . S
C113 C114 1.395 . S
C114 H78 0.930 . S
C114 C113 1.395 . S
C114 C115 1.362 . S
C115 H79 0.930 . S
C115 C110 1.390 1_565 S
C115 C114 1.362 . S
C116 C105 1.492 . S
C116 C117 1.377 . S
C116 C121 1.397 . S
C117 H80 0.931 . S
C117 C116 1.377 . S
C117 C118 1.376 . S
C118 H81 0.930 . S
C118 C117 1.376 . S
C118 C119 1.376 . S
C119 C118 1.376 . S
C119 C120 1.378 . S
C119 C146 1.486 . S
C120 H82 0.930 . S
C120 C119 1.378 . S
C120 C121 1.376 . S
C121 H83 0.929 . S
C121 C116 1.397 . S
C121 C120 1.376 . S
C122 C106 1.509 . S
C122 C123 1.391 . S
C122 C127 1.386 . S
C123 H84 0.930 . S
C123 C122 1.391 . S
C123 C124 1.375 . S
C124 H85 0.931 . S
C124 C123 1.375 . S
C124 C125 1.375 . S
C125 C124 1.375 . S
C125 C126 1.361 . S
C126 H86 0.930 . S
C126 C125 1.361 . S
C126 C127 1.399 . S
C127 H87 0.929 . S
C127 C122 1.386 . S
C127 C126 1.399 . S
C128 C107 1.485 . S
C128 C129 1.394 . S
C128 C133 1.360 . S
C129 H88 0.931 . S
C129 C128 1.394 . S
C129 C130 1.372 . S
C130 H89 0.930 . S
C130 C129 1.372 . S
C130 C131 1.397 . S
C131 C130 1.397 . S
C131 C132 1.390 . S
C131 C147 1.476 . S
C132 H90 0.930 . S
C132 C131 1.390 . S
C132 C133 1.366 . S
C133 H91 0.932 . S
C133 C128 1.360 . S
C133 C132 1.366 . S
C134 C108 1.490 . S
C134 C135 1.380 . S
C134 C139 1.386 . S
C135 H92 0.930 . S
C135 C134 1.380 . S
C135 C136 1.381 . S
C136 H93 0.929 . S
C136 C135 1.381 . S
C136 C137 1.371 . S
C137 C136 1.371 . S
C137 C138 1.380 . S
C138 H94 0.931 . S
C138 C137 1.380 . S
C138 C139 1.387 . S
C139 H95 0.930 . S
C139 C134 1.386 . S
C139 C138 1.387 . S
C140 C109 1.519 1_565 S
C140 C141 1.377 . S
C140 C145 1.361 . S
C141 H96 0.929 . S
C141 C140 1.377 . S
C141 C142 1.386 . S
C142 H97 0.931 . S
C142 C141 1.386 . S
C142 C143 1.363 . S
C143 C142 1.363 . S
C143 C144 1.385 . S
C144 H98 0.930 . S
C144 C143 1.385 . S
C144 C145 1.396 . S
C145 H99 0.929 . S
C145 C140 1.361 . S
C145 C144 1.396 . S
C146 O100 1.300 . S
C146 O101 1.209 . S
C146 C119 1.486 . S
C147 O102 1.199 . S
C147 O103 1.297 . S
C147 C131 1.476 . S
H148 O174 0.856 . S
H149 O177 0.854 . S
H150 C185 0.930 . S
H151 C186 0.930 . S
H152 C188 0.930 . S
H153 C189 0.930 . S
H154 C191 0.931 . S
H155 C192 0.930 . S
H156 C194 0.930 . S
H157 C195 0.929 . S
H158 C197 0.930 . S
H159 C198 0.931 . S
H160 C200 0.930 . S
H161 C201 0.929 . S
H162 C203 0.931 . S
H163 C204 0.930 . S
H164 C206 0.930 . S
H165 C207 0.932 . S
H166 C209 0.930 . S
H167 C210 0.929 . S
H168 C212 0.931 . S
H169 C213 0.930 . S
H170 C215 0.929 . S
H171 C216 0.931 . S
H172 C218 0.930 . S
H173 C219 0.929 . S
O174 H148 0.856 . S
O174 C220 1.300 . S
O175 C220 1.209 . S
O176 C221 1.199 . S
O177 H149 0.854 . S
O177 C221 1.297 . S
C178 C179 1.404 . S
C178 C183 1.397 . S
C178 C184 1.492 . S
C179 C178 1.404 . S
C179 C180 1.396 . S
C179 C190 1.492 . S
C180 C179 1.396 . S
C180 C181 1.397 . S
C180 C196 1.509 . S
C181 C180 1.397 . S
C181 C182 1.412 . S
C181 C202 1.485 . S
C182 C181 1.412 . S
C182 C183 1.388 . S
C182 C208 1.490 . S
C183 C178 1.397 . S
C183 C182 1.388 . S
C183 C214 1.519 . S
C184 C178 1.492 . S
C184 C185 1.363 . S
C184 C189 1.390 . S
C185 H150 0.930 . S
C185 C184 1.363 . S
C185 C186 1.372 . S
C186 H151 0.930 . S
C186 C185 1.372 . S
C186 C187 1.383 . S
C187 C186 1.383 . S
C187 C188 1.395 . S
C188 H152 0.930 . S
C188 C187 1.395 . S
C188 C189 1.362 . S
C189 H153 0.930 . S
C189 C184 1.390 . S
C189 C188 1.362 . S
C190 C179 1.492 . S
C190 C191 1.377 . S
C190 C195 1.397 . S
C191 H154 0.931 . S
C191 C190 1.377 . S
C191 C192 1.376 . S
C192 H155 0.930 . S
C192 C191 1.376 . S
C192 C193 1.376 . S
C193 C192 1.376 . S
C193 C194 1.378 . S
C193 C220 1.486 . S
C194 H156 0.930 . S
C194 C193 1.378 . S
C194 C195 1.376 . S
C195 H157 0.929 . S
C195 C190 1.397 . S
C195 C194 1.376 . S
C196 C180 1.509 . S
C196 C197 1.391 . S
C196 C201 1.386 . S
C197 H158 0.930 . S
C197 C196 1.391 . S
C197 C198 1.375 . S
C198 H159 0.931 . S
C198 C197 1.375 . S
C198 C199 1.375 . S
C199 C198 1.375 . S
C199 C200 1.361 . S
C200 H160 0.930 . S
C200 C199 1.361 . S
C200 C201 1.399 . S
C201 H161 0.929 . S
C201 C196 1.386 . S
C201 C200 1.399 . S
C202 C181 1.485 . S
C202 C203 1.394 . S
C202 C207 1.360 . S
C203 H162 0.931 . S
C203 C202 1.394 . S
C203 C204 1.372 . S
C204 H163 0.930 . S
C204 C203 1.372 . S
C204 C205 1.397 . S
C205 C204 1.397 . S
C205 C206 1.390 . S
C205 C221 1.476 . S
C206 H164 0.930 . S
C206 C205 1.390 . S
C206 C207 1.366 . S
C207 H165 0.932 . S
C207 C202 1.360 . S
C207 C206 1.366 . S
C208 C182 1.490 . S
C208 C209 1.380 . S
C208 C213 1.386 . S
C209 H166 0.930 . S
C209 C208 1.380 . S
C209 C210 1.381 . S
C210 H167 0.929 . S
C210 C209 1.381 . S
C210 C211 1.371 . S
C211 C210 1.371 . S
C211 C212 1.380 . S
C212 H168 0.931 . S
C212 C211 1.380 . S
C212 C213 1.387 . S
C213 H169 0.930 . S
C213 C208 1.386 . S
C213 C212 1.387 . S
C214 C183 1.519 . S
C214 C215 1.377 . S
C214 C219 1.361 . S
C215 H170 0.929 . S
C215 C214 1.377 . S
C215 C216 1.386 . S
C216 H171 0.931 . S
C216 C215 1.386 . S
C216 C217 1.363 . S
C217 C216 1.363 . S
C217 C218 1.385 . S
C218 H172 0.930 . S
C218 C217 1.385 . S
C218 C219 1.396 . S
C219 H173 0.929 . S
C219 C214 1.361 . S
C219 C218 1.396 . S
C220 O174 1.300 . S
C220 O175 1.209 . S
C220 C193 1.486 . S
C221 O176 1.199 . S
C221 O177 1.297 . S
C221 C205 1.476 . S
H222 O248 0.856 . S
H223 O251 0.854 . S
H224 C259 0.930 1_455 S
H225 C260 0.930 . S
H226 C262 0.930 . S
H227 C263 0.930 . S
H228 C265 0.931 . S
H229 C266 0.930 . S
H230 C268 0.930 . S
H231 C269 0.929 . S
H232 C271 0.930 . S
H233 C272 0.931 . S
H234 C274 0.930 . S
H235 C275 0.929 . S
H236 C277 0.931 . S
H237 C278 0.930 . S
H238 C280 0.930 . S
H239 C281 0.932 . S
H240 C283 0.930 . S
H241 C284 0.929 . S
H242 C286 0.931 . S
H243 C287 0.930 . S
H244 C289 0.929 . S
H245 C290 0.931 . S
H246 C292 0.930 . S
H247 C293 0.929 . S
O248 H222 0.856 . S
O248 C294 1.300 . S
O249 C294 1.209 . S
O250 C295 1.199 . S
O251 H223 0.854 . S
O251 C295 1.297 . S
C252 C253 1.404 . S
C252 C257 1.397 . S
C252 C258 1.493 . S
C253 C252 1.404 . S
C253 C254 1.396 . S
C253 C264 1.492 . S
C254 C253 1.396 . S
C254 C255 1.397 . S
C254 C270 1.509 . S
C255 C254 1.397 . S
C255 C256 1.412 . S
C255 C276 1.485 . S
C256 C255 1.412 . S
C256 C257 1.388 . S
C256 C282 1.490 . S
C257 C252 1.397 . S
C257 C256 1.388 . S
C257 C288 1.519 1_455 S
C258 C252 1.493 . S
C258 C259 1.362 1_455 S
C258 C263 1.389 1_455 S
C259 H224 0.930 1_655 S
C259 C258 1.362 1_655 S
C259 C260 1.372 . S
C260 H225 0.930 . S
C260 C259 1.372 . S
C260 C261 1.383 . S
C261 C260 1.383 . S
C261 C262 1.395 . S
C262 H226 0.930 . S
C262 C261 1.395 . S
C262 C263 1.362 . S
C263 H227 0.930 . S
C263 C258 1.389 1_655 S
C263 C262 1.362 . S
C264 C253 1.492 . S
C264 C265 1.377 . S
C264 C269 1.397 . S
C265 H228 0.931 . S
C265 C264 1.377 . S
C265 C266 1.376 . S
C266 H229 0.930 . S
C266 C265 1.376 . S
C266 C267 1.376 . S
C267 C266 1.376 . S
C267 C268 1.378 . S
C267 C294 1.486 . S
C268 H230 0.930 . S
C268 C267 1.378 . S
C268 C269 1.376 . S
C269 H231 0.929 . S
C269 C264 1.397 . S
C269 C268 1.376 . S
C270 C254 1.509 . S
C270 C271 1.391 . S
C270 C275 1.386 . S
C271 H232 0.930 . S
C271 C270 1.391 . S
C271 C272 1.375 . S
C272 H233 0.931 . S
C272 C271 1.375 . S
C272 C273 1.375 . S
C273 C272 1.375 . S
C273 C274 1.361 . S
C274 H234 0.930 . S
C274 C273 1.361 . S
C274 C275 1.399 . S
C275 H235 0.929 . S
C275 C270 1.386 . S
C275 C274 1.399 . S
C276 C255 1.485 . S
C276 C277 1.394 . S
C276 C281 1.360 . S
C277 H236 0.931 . S
C277 C276 1.394 . S
C277 C278 1.372 . S
C278 H237 0.930 . S
C278 C277 1.372 . S
C278 C279 1.397 . S
C279 C278 1.397 . S
C279 C280 1.390 . S
C279 C295 1.476 . S
C280 H238 0.930 . S
C280 C279 1.390 . S
C280 C281 1.366 . S
C281 H239 0.932 . S
C281 C276 1.360 . S
C281 C280 1.366 . S
C282 C256 1.490 . S
C282 C283 1.380 . S
C282 C287 1.386 . S
C283 H240 0.930 . S
C283 C282 1.380 . S
C283 C284 1.381 . S
C284 H241 0.929 . S
C284 C283 1.381 . S
C284 C285 1.371 . S
C285 C284 1.371 . S
C285 C286 1.380 . S
C286 H242 0.931 . S
C286 C285 1.380 . S
C286 C287 1.387 . S
C287 H243 0.930 . S
C287 C282 1.386 . S
C287 C286 1.387 . S
C288 C257 1.519 1_655 S
C288 C289 1.377 . S
C288 C293 1.361 . S
C289 H244 0.929 . S
C289 C288 1.377 . S
C289 C290 1.386 . S
C290 H245 0.931 . S
C290 C289 1.386 . S
C290 C291 1.363 . S
C291 C290 1.363 . S
C291 C292 1.385 . S
C292 H246 0.930 . S
C292 C291 1.385 . S
C292 C293 1.396 . S
C293 H247 0.929 . S
C293 C288 1.361 . S
C293 C292 1.396 . S
C294 O248 1.300 . S
C294 O249 1.209 . S
C294 C267 1.486 . S
C295 O250 1.199 . S
C295 O251 1.297 . S
C295 C279 1.476 . S
H296 O322 0.856 . S
H297 O325 0.854 . S
H298 C333 0.930 . S
H299 C334 0.930 . S
H300 C336 0.930 . S
H301 C337 0.930 . S
H302 C339 0.931 . S
H303 C340 0.930 . S
H304 C342 0.930 . S
H305 C343 0.929 . S
H306 C345 0.930 . S
H307 C346 0.931 . S
H308 C348 0.930 . S
H309 C349 0.929 . S
H310 C351 0.931 . S
H311 C352 0.930 . S
H312 C354 0.930 . S
H313 C355 0.932 . S
H314 C357 0.945 . S
H315 C358 0.923 1_545 S
H316 C360 0.931 . S
H317 C361 0.930 . S
H318 C363 0.929 1_556 S
H319 C364 0.931 . S
H320 C366 0.930 . S
H321 C367 0.929 . S
O322 H296 0.856 . S
O322 C368 1.300 . S
O323 C368 1.209 . S
O324 C369 1.199 . S
O325 H297 0.854 . S
O325 C369 1.297 . S
C326 C327 1.404 1_545 S
C326 C331 1.397 . S
C326 C332 1.492 . S
C327 C326 1.404 1_565 S
C327 C328 1.396 . S
C327 C338 1.492 . S
C328 C327 1.396 . S
C328 C329 1.397 . S
C328 C344 1.509 . S
C329 C328 1.397 . S
C329 C330 1.412 1_556 S
C329 C350 1.485 1_556 S
C330 C329 1.412 1_554 S
C330 C331 1.388 1_564 S
C330 C356 1.490 . S
C331 C326 1.397 . S
C331 C330 1.388 1_546 S
C331 C362 1.519 1_556 S
C332 C326 1.492 . S
C332 C333 1.363 . S
C332 C337 1.390 . S
C333 H298 0.930 . S
C333 C332 1.363 . S
C333 C334 1.372 . S
C334 H299 0.930 . S
C334 C333 1.372 . S
C334 C335 1.383 . S
C335 C334 1.383 . S
C335 C336 1.395 . S
C336 H300 0.930 . S
C336 C335 1.395 . S
C336 C337 1.362 . S
C337 H301 0.930 . S
C337 C332 1.390 . S
C337 C336 1.362 . S
C338 C327 1.492 . S
C338 C339 1.377 . S
C338 C343 1.397 . S
C339 H302 0.931 . S
C339 C338 1.377 . S
C339 C340 1.376 . S
C340 H303 0.930 . S
C340 C339 1.376 . S
C340 C341 1.376 . S
C341 C340 1.376 . S
C341 C342 1.378 . S
C341 C368 1.486 . S
C342 H304 0.930 . S
C342 C341 1.378 . S
C342 C343 1.376 . S
C343 H305 0.929 . S
C343 C338 1.397 . S
C343 C342 1.376 . S
C344 C328 1.509 . S
C344 C345 1.391 . S
C344 C349 1.386 . S
C345 H306 0.930 . S
C345 C344 1.391 . S
C345 C346 1.375 . S
C346 H307 0.931 . S
C346 C345 1.375 . S
C346 C347 1.375 . S
C347 C346 1.375 . S
C347 C348 1.361 . S
C348 H308 0.930 . S
C348 C347 1.361 . S
C348 C349 1.399 . S
C349 H309 0.929 . S
C349 C344 1.386 . S
C349 C348 1.399 . S
C350 C329 1.485 1_554 S
C350 C351 1.394 . S
C350 C355 1.360 . S
C351 H310 0.931 . S
C351 C350 1.394 . S
C351 C352 1.372 . S
C352 H311 0.930 . S
C352 C351 1.372 . S
C352 C353 1.397 . S
C353 C352 1.397 . S
C353 C354 1.390 . S
C353 C369 1.476 . S
C354 H312 0.930 . S
C354 C353 1.390 . S
C354 C355 1.366 . S
C355 H313 0.932 . S
C355 C350 1.360 . S
C355 C354 1.366 . S
C356 C330 1.490 . S
C356 C357 1.380 . S
C356 C361 1.386 . S
C357 H314 0.945 . S
C357 C356 1.380 . S
C357 C358 1.382 . S
C358 H315 0.923 1_565 S
C358 C357 1.382 . S
C358 C359 1.376 . S
C359 C358 1.376 . S
C359 C360 1.380 . S
C360 H316 0.931 . S
C360 C359 1.380 . S
C360 C361 1.387 . S
C361 H317 0.930 . S
C361 C356 1.386 . S
C361 C360 1.387 . S
C362 C331 1.519 1_554 S
C362 C363 1.377 . S
C362 C367 1.361 . S
C363 H318 0.929 1_554 S
C363 C362 1.377 . S
C363 C364 1.386 . S
C364 H319 0.931 . S
C364 C363 1.386 . S
C364 C365 1.363 . S
C365 C364 1.363 . S
C365 C366 1.385 . S
C366 H320 0.930 . S
C366 C365 1.385 . S
C366 C367 1.396 . S
C367 H321 0.929 . S
C367 C362 1.361 . S
C367 C366 1.396 . S
C368 O322 1.300 . S
C368 O323 1.209 . S
C368 C341 1.486 . S
C369 O324 1.199 . S
C369 O325 1.297 . S
C369 C353 1.476 . S
H370 O396 0.856 . S
H371 O399 0.854 . S
H372 C407 0.930 . S
H373 C408 0.930 . S
H374 C410 0.930 . S
H375 C411 0.930 . S
H376 C413 0.931 . S
H377 C414 0.930 . S
H378 C416 0.930 . S
H379 C417 0.929 . S
H380 C419 0.930 . S
H381 C420 0.931 . S
H382 C422 0.930 . S
H383 C423 0.929 . S
H384 C425 0.931 . S
H385 C426 0.930 . S
H386 C428 0.930 . S
H387 C429 0.932 . S
H388 C431 0.930 . S
H389 C432 0.929 . S
H390 C434 0.931 . S
H391 C435 0.930 . S
H392 C437 0.929 . S
H393 C438 0.931 . S
H394 C440 0.930 . S
H395 C441 0.929 . S
O396 H370 0.856 . S
O396 C442 1.300 . S
O397 C442 1.209 . S
O398 C443 1.199 . S
O399 H371 0.854 . S
O399 C443 1.297 . S
C400 C401 1.404 . S
C400 C405 1.397 . S
C400 C406 1.492 . S
C401 C400 1.404 . S
C401 C402 1.396 . S
C401 C412 1.492 . S
C402 C401 1.396 . S
C402 C403 1.397 . S
C402 C418 1.509 . S
C403 C402 1.397 . S
C403 C404 1.412 . S
C403 C424 1.485 . S
C404 C403 1.412 . S
C404 C405 1.388 . S
C404 C430 1.490 . S
C405 C400 1.397 . S
C405 C404 1.388 . S
C405 C436 1.519 . S
C406 C400 1.492 . S
C406 C407 1.363 . S
C406 C411 1.390 . S
C407 H372 0.930 . S
C407 C406 1.363 . S
C407 C408 1.372 . S
C408 H373 0.930 . S
C408 C407 1.372 . S
C408 C409 1.383 . S
C409 C408 1.383 . S
C409 C410 1.395 . S
C410 H374 0.930 . S
C410 C409 1.395 . S
C410 C411 1.362 . S
C411 H375 0.930 . S
C411 C406 1.390 . S
C411 C410 1.362 . S
C412 C401 1.492 . S
C412 C413 1.377 . S
C412 C417 1.397 . S
C413 H376 0.931 . S
C413 C412 1.377 . S
C413 C414 1.376 . S
C414 H377 0.930 . S
C414 C413 1.376 . S
C414 C415 1.376 . S
C415 C414 1.376 . S
C415 C416 1.378 . S
C415 C442 1.486 1_554 S
C416 H378 0.930 . S
C416 C415 1.378 . S
C416 C417 1.376 . S
C417 H379 0.929 . S
C417 C412 1.397 . S
C417 C416 1.376 . S
C418 C402 1.509 . S
C418 C419 1.391 . S
C418 C423 1.386 . S
C419 H380 0.930 . S
C419 C418 1.391 . S
C419 C420 1.375 . S
C420 H381 0.931 . S
C420 C419 1.375 . S
C420 C421 1.375 . S
C421 C420 1.375 . S
C421 C422 1.361 . S
C422 H382 0.930 . S
C422 C421 1.361 . S
C422 C423 1.399 . S
C423 H383 0.929 . S
C423 C418 1.386 . S
C423 C422 1.399 . S
C424 C403 1.485 . S
C424 C425 1.394 . S
C424 C429 1.360 . S
C425 H384 0.931 . S
C425 C424 1.394 . S
C425 C426 1.372 . S
C426 H385 0.930 . S
C426 C425 1.372 . S
C426 C427 1.397 . S
C427 C426 1.397 . S
C427 C428 1.390 . S
C427 C443 1.476 . S
C428 H386 0.930 . S
C428 C427 1.390 . S
C428 C429 1.366 . S
C429 H387 0.932 . S
C429 C424 1.360 . S
C429 C428 1.366 . S
C430 C404 1.490 . S
C430 C431 1.380 . S
C430 C435 1.386 . S
C431 H388 0.930 . S
C431 C430 1.380 . S
C431 C432 1.381 . S
C432 H389 0.929 . S
C432 C431 1.381 . S
C432 C433 1.371 . S
C433 C432 1.371 . S
C433 C434 1.380 . S
C434 H390 0.931 . S
C434 C433 1.380 . S
C434 C435 1.387 . S
C435 H391 0.930 . S
C435 C430 1.386 . S
C435 C434 1.387 . S
C436 C405 1.519 . S
C436 C437 1.377 . S
C436 C441 1.361 . S
C437 H392 0.929 . S
C437 C436 1.377 . S
C437 C438 1.386 . S
C438 H393 0.931 . S
C438 C437 1.386 . S
C438 C439 1.363 . S
C439 C438 1.363 . S
C439 C440 1.385 . S
C440 H394 0.930 . S
C440 C439 1.385 . S
C440 C441 1.396 . S
C441 H395 0.929 . S
C441 C436 1.361 . S
C441 C440 1.396 . S
C442 O396 1.300 . S
C442 O397 1.209 . S
C442 C415 1.486 1_556 S
C443 O398 1.199 . S
C443 O399 1.297 . S
C443 C427 1.476 . S
Mg444 O445 2.028 . S
Mg444 O451 1.986 . S
Mg444 O453 2.114 . S
Mg444 O454 2.251 . S
Mg444 O457 2.010 . S
O445 Mg444 2.028 . S
O445 C448 1.250 . S
O446 Mg447 2.028 . S
O446 C448 1.248 . S
Mg447 O446 2.028 . S
Mg447 O452 2.032 . S
Mg447 O454 2.079 . S
C448 O445 1.250 . S
C448 O446 1.248 . S
C449 O450 1.264 . S
C449 O457 1.249 . S
O450 C449 1.264 . S
O451 Mg444 1.986 . S
O451 C455 1.246 . S
O452 Mg447 2.032 . S
O452 C455 1.259 . S
O453 Mg444 2.114 . S
O453 C456 1.252 . S
O454 Mg444 2.251 . S
O454 Mg447 2.079 . S
O454 C456 1.273 . S
C455 O451 1.246 . S
C455 O452 1.259 . S
C456 O453 1.252 . S
C456 O454 1.273 . S
O457 Mg444 2.010 . S
O457 C449 1.249 . S
Mg458 O459 2.028 . S
Mg458 O465 1.986 . S
Mg458 O467 2.114 . S
Mg458 O468 2.251 . S
Mg458 O471 2.010 . S
O459 Mg458 2.028 . S
O459 C462 1.250 . S
O460 Mg461 2.028 . S
O460 C462 1.248 . S
Mg461 O460 2.028 . S
Mg461 O466 2.032 . S
Mg461 O468 2.079 . S
C462 O459 1.250 . S
C462 O460 1.248 . S
C463 O464 1.264 . S
C463 O471 1.249 . S
O464 C463 1.264 . S
O465 Mg458 1.986 . S
O465 C469 1.246 . S
O466 Mg461 2.032 . S
O466 C469 1.259 . S
O467 Mg458 2.114 . S
O467 C470 1.252 . S
O468 Mg458 2.251 . S
O468 Mg461 2.079 . S
O468 C470 1.273 . S
C469 O465 1.246 . S
C469 O466 1.259 . S
C470 O467 1.252 . S
C470 O468 1.273 . S
O471 Mg458 2.010 . S
O471 C463 1.249 . S
Mg472 O473 2.028 . S
Mg472 O479 1.986 . S
Mg472 O481 2.114 . S
Mg472 O482 2.251 . S
Mg472 O485 2.010 . S
O473 Mg472 2.028 . S
O473 C476 1.250 . S
O474 Mg475 2.028 . S
O474 C476 1.248 . S
Mg475 O474 2.028 . S
Mg475 O480 2.032 . S
Mg475 O482 2.079 . S
C476 O473 1.250 . S
C476 O474 1.248 . S
C477 O478 1.264 . S
C477 O485 1.249 . S
O478 C477 1.264 . S
O479 Mg472 1.986 . S
O479 C483 1.246 . S
O480 Mg475 2.032 . S
O480 C483 1.259 . S
O481 Mg472 2.114 . S
O481 C484 1.252 . S
O482 Mg472 2.251 . S
O482 Mg475 2.079 . S
O482 C484 1.273 . S
C483 O479 1.246 . S
C483 O480 1.259 . S
C484 O481 1.252 . S
C484 O482 1.273 . S
O485 Mg472 2.010 . S
O485 C477 1.249 . S
Mg486 O487 2.028 . S
Mg486 O493 1.986 . S
Mg486 O495 2.114 . S
Mg486 O496 2.251 . S
Mg486 O499 2.010 . S
O487 Mg486 2.028 . S
O487 C490 1.250 . S
O488 Mg489 2.028 . S
O488 C490 1.248 . S
Mg489 O488 2.028 . S
Mg489 O494 2.032 . S
Mg489 O496 2.079 . S
C490 O487 1.250 . S
C490 O488 1.248 . S
C491 O492 1.264 . S
C491 O499 1.249 . S
O492 C491 1.264 . S
O493 Mg486 1.986 . S
O493 C497 1.246 . S
O494 Mg489 2.032 . S
O494 C497 1.259 . S
O495 Mg486 2.114 . S
O495 C498 1.252 . S
O496 Mg486 2.251 . S
O496 Mg489 2.079 . S
O496 C498 1.273 . S
C497 O493 1.246 . S
C497 O494 1.259 . S
C498 O495 1.252 . S
C498 O496 1.273 . S
O499 Mg486 2.010 . S
O499 C491 1.249 . S
Mg500 O501 2.028 . S
Mg500 O507 1.986 . S
Mg500 O509 2.114 . S
Mg500 O510 2.251 . S
Mg500 O513 2.010 . S
O501 Mg500 2.028 . S
O501 C504 1.250 . S
O502 Mg503 2.028 . S
O502 C504 1.248 . S
Mg503 O502 2.028 . S
Mg503 O508 2.032 . S
Mg503 O510 2.079 . S
C504 O501 1.250 . S
C504 O502 1.248 . S
C505 O506 1.264 . S
C505 O513 1.249 . S
O506 C505 1.264 . S
O507 Mg500 1.986 . S
O507 C511 1.246 . S
O508 Mg503 2.032 . S
O508 C511 1.259 . S
O509 Mg500 2.114 . S
O509 C512 1.252 . S
O510 Mg500 2.251 . S
O510 Mg503 2.079 . S
O510 C512 1.273 . S
C511 O507 1.246 . S
C511 O508 1.259 . S
C512 O509 1.252 . S
C512 O510 1.273 . S
O513 Mg500 2.010 . S
O513 C505 1.249 . S
Mg514 O515 2.028 . S
Mg514 O521 1.986 . S
Mg514 O523 2.114 . S
Mg514 O524 2.251 . S
Mg514 O527 2.010 . S
O515 Mg514 2.028 . S
O515 C518 1.250 . S
O516 Mg517 2.028 . S
O516 C518 1.248 . S
Mg517 O516 2.028 . S
Mg517 O522 2.032 . S
Mg517 O524 2.079 . S
C518 O515 1.250 . S
C518 O516 1.248 . S
C519 O520 1.264 . S
C519 O527 1.249 . S
O520 C519 1.264 . S
O521 Mg514 1.986 . S
O521 C525 1.246 . S
O522 Mg517 2.032 . S
O522 C525 1.259 . S
O523 Mg514 2.114 . S
O523 C526 1.252 . S
O524 Mg514 2.251 . S
O524 Mg517 2.079 . S
O524 C526 1.273 . S
C525 O521 1.246 . S
C525 O522 1.259 . S
C526 O523 1.252 . S
C526 O524 1.273 . S
O527 Mg514 2.010 . S
O527 C519 1.249 . S
H528 C534 0.930 . S
H529 C537 0.930 . S
H530 C538 0.930 . S
H531 C539 0.930 . S
H532 C542 0.930 . S
H533 C543 0.930 . S
C534 H528 0.930 . S
C534 C535 1.355 . S
C534 C536 1.415 . S
C535 C534 1.355 . S
C535 C537 1.419 . S
C536 C534 1.415 . S
C536 C541 1.425 . S
C536 C543 1.409 . S
C537 H529 0.930 . S
C537 C535 1.419 . S
C537 C538 1.362 . S
C538 H530 0.930 . S
C538 C537 1.362 . S
C538 C541 1.409 . S
C539 H531 0.930 . S
C539 C540 1.355 . S
C539 C541 1.415 . S
C540 C539 1.355 . S
C540 C542 1.419 . S
C541 C536 1.425 . S
C541 C538 1.409 . S
C541 C539 1.415 . S
C542 H532 0.930 . S
C542 C540 1.419 . S
C542 C543 1.362 . S
C543 H533 0.930 . S
C543 C536 1.409 . S
C543 C542 1.362 . S
H544 C550 0.930 . S
H545 C553 0.930 . S
H546 C554 0.930 . S
H547 C555 0.930 . S
H548 C558 0.930 . S
H549 C559 0.930 . S
C550 H544 0.930 . S
C550 C551 1.355 . S
C550 C552 1.415 . S
C551 C550 1.355 . S
C551 C553 1.419 . S
C552 C550 1.415 . S
C552 C557 1.425 . S
C552 C559 1.409 . S
C553 H545 0.930 . S
C553 C551 1.419 . S
C553 C554 1.362 . S
C554 H546 0.930 . S
C554 C553 1.362 . S
C554 C557 1.409 . S
C555 H547 0.930 . S
C555 C556 1.355 . S
C555 C557 1.415 . S
C556 C555 1.355 . S
C556 C558 1.419 . S
C557 C552 1.425 . S
C557 C554 1.409 . S
C557 C555 1.415 . S
C558 H548 0.930 . S
C558 C556 1.419 . S
C558 C559 1.362 . S
C559 H549 0.930 . S
C559 C552 1.409 . S
C559 C558 1.362 . S
H560 C566 0.930 . S
H561 C569 0.930 . S
H562 C570 0.930 . S
H563 C571 0.930 . S
H564 C574 0.930 . S
H565 C575 0.930 . S
C566 H560 0.930 . S
C566 C567 1.355 . S
C566 C568 1.415 . S
C567 C566 1.355 . S
C567 C569 1.419 . S
C568 C566 1.415 . S
C568 C573 1.425 . S
C568 C575 1.409 . S
C569 H561 0.930 . S
C569 C567 1.419 . S
C569 C570 1.362 . S
C570 H562 0.930 . S
C570 C569 1.362 . S
C570 C573 1.409 . S
C571 H563 0.930 . S
C571 C572 1.355 . S
C571 C573 1.415 . S
C572 C571 1.355 . S
C572 C574 1.419 . S
C573 C568 1.425 . S
C573 C570 1.409 . S
C573 C571 1.415 . S
C574 H564 0.930 . S
C574 C572 1.419 . S
C574 C575 1.362 . S
C575 H565 0.930 . S
C575 C568 1.409 . S
C575 C574 1.362 . S
H576 C582 0.930 . S
H577 C585 0.930 . S
H578 C586 0.930 . S
H579 C587 0.930 . S
H580 C590 0.930 . S
H581 C591 0.930 . S
C582 H576 0.930 . S
C582 C583 1.355 . S
C582 C584 1.415 . S
C583 C582 1.355 . S
C583 C585 1.419 . S
C584 C582 1.415 . S
C584 C589 1.425 . S
C584 C591 1.409 . S
C585 H577 0.930 . S
C585 C583 1.419 . S
C585 C586 1.362 . S
C586 H578 0.930 . S
C586 C585 1.362 . S
C586 C589 1.409 . S
C587 H579 0.930 . S
C587 C588 1.355 . S
C587 C589 1.415 . S
C588 C587 1.355 . S
C588 C590 1.419 . S
C589 C584 1.425 . S
C589 C586 1.409 . S
C589 C587 1.415 . S
C590 H580 0.930 . S
C590 C588 1.419 . S
C590 C591 1.362 . S
C591 H581 0.930 . S
C591 C584 1.409 . S
C591 C590 1.362 . S
H592 C598 0.930 . S
H593 C601 0.930 . S
H594 C602 0.930 . S
H595 C603 0.930 . S
H596 C606 0.930 . S
H597 C607 0.930 . S
C598 H592 0.930 . S
C598 C599 1.355 . S
C598 C600 1.415 . S
C599 C598 1.355 . S
C599 C601 1.419 . S
C600 C598 1.415 . S
C600 C605 1.425 . S
C600 C607 1.409 . S
C601 H593 0.930 . S
C601 C599 1.419 . S
C601 C602 1.362 . S
C602 H594 0.930 . S
C602 C601 1.362 . S
C602 C605 1.409 . S
C603 H595 0.930 . S
C603 C604 1.355 . S
C603 C605 1.415 . S
C604 C603 1.355 . S
C604 C606 1.419 . S
C605 C600 1.425 . S
C605 C602 1.409 . S
C605 C603 1.415 . S
C606 H596 0.930 . S
C606 C604 1.419 . S
C606 C607 1.362 . S
C607 H597 0.930 . S
C607 C600 1.409 . S
C607 C606 1.362 . S
H608 C614 0.930 . S
H609 C617 0.930 . S
H610 C618 0.930 . S
H611 C619 0.930 . S
H612 C622 0.930 . S
H613 C623 0.930 . S
C614 H608 0.930 . S
C614 C615 1.355 . S
C614 C616 1.415 . S
C615 C614 1.355 . S
C615 C617 1.419 . S
C616 C614 1.415 . S
C616 C621 1.425 . S
C616 C623 1.409 . S
C617 H609 0.930 . S
C617 C615 1.419 . S
C617 C618 1.362 . S
C618 H610 0.930 . S
C618 C617 1.362 . S
C618 C621 1.409 . S
C619 H611 0.930 . S
C619 C620 1.355 . S
C619 C621 1.415 . S
C620 C619 1.355 . S
C620 C622 1.419 . S
C621 C616 1.425 . S
C621 C618 1.409 . S
C621 C619 1.415 . S
C622 H612 0.930 . S
C622 C620 1.419 . S
C622 C623 1.362 . S
C623 H613 0.930 . S
C623 C616 1.409 . S
C623 C622 1.362 . S
H624 C630 0.930 . S
H625 C633 0.930 . S
H626 C634 0.930 . S
H627 C635 0.930 . S
H628 C638 0.930 . S
H629 C639 0.930 . S
C630 H624 0.930 . S
C630 C631 1.355 . S
C630 C632 1.415 . S
C631 C630 1.355 . S
C631 C633 1.419 . S
C632 C630 1.415 . S
C632 C637 1.425 . S
C632 C639 1.409 . S
C633 H625 0.930 . S
C633 C631 1.419 . S
C633 C634 1.362 . S
C634 H626 0.930 . S
C634 C633 1.362 . S
C634 C637 1.409 . S
C635 H627 0.930 . S
C635 C636 1.355 . S
C635 C637 1.415 . S
C636 C635 1.355 . S
C636 C638 1.419 . S
C637 C632 1.425 . S
C637 C634 1.409 . S
C637 C635 1.415 . S
C638 H628 0.930 . S
C638 C636 1.419 . S
C638 C639 1.362 . S
C639 H629 0.930 . S
C639 C632 1.409 . S
C639 C638 1.362 . S
H640 C646 0.930 . S
H641 C649 0.930 . S
H642 C650 0.930 . S
H643 C651 0.930 . S
H644 C654 0.930 . S
H645 C655 0.930 . S
C646 H640 0.930 . S
C646 C647 1.355 . S
C646 C648 1.415 . S
C647 C646 1.355 . S
C647 C649 1.419 . S
C648 C646 1.415 . S
C648 C653 1.425 . S
C648 C655 1.409 . S
C649 H641 0.930 . S
C649 C647 1.419 . S
C649 C650 1.362 . S
C650 H642 0.930 . S
C650 C649 1.362 . S
C650 C653 1.409 . S
C651 H643 0.930 . S
C651 C652 1.355 . S
C651 C653 1.415 . S
C652 C651 1.355 . S
C652 C654 1.419 . S
C653 C648 1.425 . S
C653 C650 1.409 . S
C653 C651 1.415 . S
C654 H644 0.930 . S
C654 C652 1.419 . S
C654 C655 1.362 . S
C655 H645 0.930 . S
C655 C648 1.409 . S
C655 C654 1.362 . S
H656 C662 0.930 . S
H657 C665 0.930 . S
H658 C666 0.930 . S
H659 C667 0.930 . S
H660 C670 0.930 . S
H661 C671 0.930 . S
C662 H656 0.930 . S
C662 C663 1.355 . S
C662 C664 1.415 . S
C663 C662 1.355 . S
C663 C665 1.419 . S
C664 C662 1.415 . S
C664 C669 1.425 . S
C664 C671 1.409 . S
C665 H657 0.930 . S
C665 C663 1.419 . S
C665 C666 1.362 . S
C666 H658 0.930 . S
C666 C665 1.362 . S
C666 C669 1.409 . S
C667 H659 0.930 . S
C667 C668 1.355 . S
C667 C669 1.415 . S
C668 C667 1.355 . S
C668 C670 1.419 . S
C669 C664 1.425 . S
C669 C666 1.409 . S
C669 C667 1.415 . S
C670 H660 0.930 . S
C670 C668 1.419 . S
C670 C671 1.362 . S
C671 H661 0.930 . S
C671 C664 1.409 . S
C671 C670 1.362 . S
H672 C678 0.930 . S
H673 C681 0.942 . S
H674 C682 0.930 . S
H675 C683 0.930 . S
H676 C686 0.930 . S
H677 C687 0.930 . S
C678 H672 0.930 . S
C678 C679 1.355 . S
C678 C680 1.415 . S
C679 C678 1.355 . S
C679 C681 1.419 . S
C680 C678 1.415 . S
C680 C685 1.425 . S
C680 C687 1.409 . S
C681 H673 0.942 . S
C681 C679 1.419 . S
C681 C682 1.362 . S
C682 H674 0.930 . S
C682 C681 1.362 . S
C682 C685 1.409 . S
C683 H675 0.930 . S
C683 C684 1.355 . S
C683 C685 1.415 . S
C684 C683 1.355 . S
C684 C686 1.419 . S
C685 C680 1.425 . S
C685 C682 1.409 . S
C685 C683 1.415 . S
C686 H676 0.930 . S
C686 C684 1.419 . S
C686 C687 1.362 . S
C687 H677 0.930 . S
C687 C680 1.409 . S
C687 C686 1.362 . S
H688 C694 0.930 . S
H689 C697 0.930 . S
H690 C698 0.930 . S
H691 C699 0.930 . S
H692 C702 0.930 . S
H693 C703 0.930 . S
C694 H688 0.930 . S
C694 C695 1.355 . S
C694 C696 1.415 . S
C695 C694 1.355 . S
C695 C697 1.419 . S
C696 C694 1.415 . S
C696 C701 1.425 . S
C696 C703 1.409 . S
C697 H689 0.930 . S
C697 C695 1.419 . S
C697 C698 1.362 . S
C698 H690 0.930 . S
C698 C697 1.362 . S
C698 C701 1.409 . S
C699 H691 0.930 . S
C699 C700 1.355 . S
C699 C701 1.415 . S
C700 C699 1.355 . S
C700 C702 1.419 . S
C701 C696 1.425 . S
C701 C698 1.409 . S
C701 C699 1.415 . S
C702 H692 0.930 . S
C702 C700 1.419 . S
C702 C703 1.362 . S
C703 H693 0.930 . S
C703 C696 1.409 . S
C703 C702 1.362 . S
H704 C710 0.930 . S
H705 C713 0.930 . S
H706 C714 0.930 . S
H707 C715 0.930 . S
H708 C718 0.930 . S
H709 C719 0.930 . S
C710 H704 0.930 . S
C710 C711 1.355 . S
C710 C712 1.415 . S
C711 C710 1.355 . S
C711 C713 1.419 . S
C712 C710 1.415 . S
C712 C717 1.425 . S
C712 C719 1.409 . S
C713 H705 0.930 . S
C713 C711 1.419 . S
C713 C714 1.362 . S
C714 H706 0.930 . S
C714 C713 1.362 . S
C714 C717 1.409 . S
C715 H707 0.930 . S
C715 C716 1.355 . S
C715 C717 1.415 . S
C716 C715 1.355 . S
C716 C718 1.419 . S
C717 C712 1.425 . S
C717 C714 1.409 . S
C717 C715 1.415 . S
C718 H708 0.930 . S
C718 C716 1.419 . S
C718 C719 1.362 . S
C719 H709 0.930 . S
C719 C712 1.409 . S
C719 C718 1.362 . S
H720 C726 0.930 . S
H721 C729 0.930 . S
H722 C730 0.930 . S
H723 C731 0.930 . S
H724 C734 0.930 . S
H725 C735 0.930 . S
C726 H720 0.930 . S
C726 C727 1.355 . S
C726 C728 1.415 . S
C727 C726 1.355 . S
C727 C729 1.419 . S
C728 C726 1.415 . S
C728 C733 1.425 . S
C728 C735 1.409 . S
C729 H721 0.930 . S
C729 C727 1.419 . S
C729 C730 1.362 . S
C730 H722 0.930 . S
C730 C729 1.362 . S
C730 C733 1.409 . S
C731 H723 0.930 . S
C731 C732 1.355 . S
C731 C733 1.415 . S
C732 C731 1.355 . S
C732 C734 1.419 . S
C733 C728 1.425 . S
C733 C730 1.409 . S
C733 C731 1.415 . S
C734 H724 0.930 . S
C734 C732 1.419 . S
C734 C735 1.362 . S
C735 H725 0.930 . S
C735 C728 1.409 . S
C735 C734 1.362 . S
H736 C742 0.930 . S
H737 C745 0.930 . S
H738 C746 0.930 . S
H739 C747 0.930 . S
H740 C750 0.930 . S
H741 C751 0.930 . S
C742 H736 0.930 . S
C742 C743 1.355 . S
C742 C744 1.415 . S
C743 C742 1.355 . S
C743 C745 1.419 . S
C744 C742 1.415 . S
C744 C749 1.425 . S
C744 C751 1.409 . S
C745 H737 0.930 . S
C745 C743 1.419 . S
C745 C746 1.362 . S
C746 H738 0.930 . S
C746 C745 1.362 . S
C746 C749 1.409 . S
C747 H739 0.930 . S
C747 C748 1.355 . S
C747 C749 1.415 . S
C748 C747 1.355 . S
C748 C750 1.419 . S
C749 C744 1.425 . S
C749 C746 1.409 . S
C749 C747 1.415 . S
C750 H740 0.930 . S
C750 C748 1.419 . S
C750 C751 1.362 . S
C751 H741 0.930 . S
C751 C744 1.409 . S
C751 C750 1.362 . S
H752 C758 0.930 . S
H753 C761 0.930 . S
H754 C762 0.930 . S
H755 C763 0.930 . S
H756 C766 0.930 . S
H757 C767 0.930 . S
C758 H752 0.930 . S
C758 C759 1.355 . S
C758 C760 1.415 . S
C759 C758 1.355 . S
C759 C761 1.419 . S
C760 C758 1.415 . S
C760 C765 1.425 . S
C760 C767 1.409 . S
C761 H753 0.930 . S
C761 C759 1.419 . S
C761 C762 1.362 . S
C762 H754 0.930 . S
C762 C761 1.362 . S
C762 C765 1.409 . S
C763 H755 0.930 . S
C763 C764 1.355 . S
C763 C765 1.415 . S
C764 C763 1.355 . S
C764 C766 1.419 . S
C765 C760 1.425 . S
C765 C762 1.409 . S
C765 C763 1.415 . S
C766 H756 0.930 . S
C766 C764 1.419 . S
C766 C767 1.362 . S
C767 H757 0.930 . S
C767 C760 1.409 . S
C767 C766 1.362 . S
H768 C774 0.930 . S
H769 C777 0.930 . S
H770 C778 0.930 . S
H771 C779 0.930 1_554 S
H772 C782 0.930 . S
H773 C783 0.930 . S
C774 H768 0.930 . S
C774 C775 1.355 . S
C774 C776 1.415 . S
C775 C774 1.355 . S
C775 C777 1.419 . S
C776 C774 1.415 . S
C776 C781 1.425 . S
C776 C783 1.409 . S
C777 H769 0.930 . S
C777 C775 1.419 . S
C777 C778 1.362 . S
C778 H770 0.930 . S
C778 C777 1.362 . S
C778 C781 1.409 . S
C779 H771 0.930 1_556 S
C779 C780 1.355 1_556 S
C779 C781 1.415 . S
C780 C779 1.355 1_554 S
C780 C782 1.419 1_554 S
C781 C776 1.425 . S
C781 C778 1.409 . S
C781 C779 1.415 . S
C782 H772 0.930 . S
C782 C780 1.419 1_556 S
C782 C783 1.362 . S
C783 H773 0.930 . S
C783 C776 1.409 . S
C783 C782 1.362 . S
H784 C790 0.930 . S
H785 C793 0.930 1_545 S
H786 C794 0.930 . S
H787 C795 0.930 . S
H788 C798 0.930 . S
H789 C799 0.930 . S
C790 H784 0.930 . S
C790 C791 1.355 . S
C790 C792 1.415 . S
C791 C790 1.355 . S
C791 C793 1.419 . S
C792 C790 1.415 . S
C792 C797 1.425 . S
C792 C799 1.409 . S
C793 H785 0.930 1_565 S
C793 C791 1.419 . S
C793 C794 1.362 . S
C794 H786 0.930 . S
C794 C793 1.362 . S
C794 C797 1.409 . S
C795 H787 0.930 . S
C795 C796 1.355 . S
C795 C797 1.415 . S
C796 C795 1.355 . S
C796 C798 1.419 . S
C797 C792 1.425 . S
C797 C794 1.409 . S
C797 C795 1.415 . S
C798 H788 0.930 . S
C798 C796 1.419 . S
C798 C799 1.362 . S
C799 H789 0.930 . S
C799 C792 1.409 . S
C799 C798 1.362 . S
H800 C806 0.930 . S
H801 C809 0.930 . S
H802 C810 0.930 . S
H803 C811 0.930 . S
H804 C814 0.930 . S
H805 C815 0.930 . S
C806 H800 0.930 . S
C806 C807 1.355 . S
C806 C808 1.415 . S
C807 C806 1.355 . S
C807 C809 1.419 . S
C808 C806 1.415 . S
C808 C813 1.425 . S
C808 C815 1.409 . S
C809 H801 0.930 . S
C809 C807 1.419 . S
C809 C810 1.362 . S
C810 H802 0.930 . S
C810 C809 1.362 . S
C810 C813 1.409 . S
C811 H803 0.930 . S
C811 C812 1.355 . S
C811 C813 1.415 . S
C812 C811 1.355 . S
C812 C814 1.419 . S
C813 C808 1.425 . S
C813 C810 1.409 . S
C813 C811 1.415 . S
C814 H804 0.930 . S
C814 C812 1.419 . S
C814 C815 1.362 . S
C815 H805 0.930 . S
C815 C808 1.409 . S
C815 C814 1.362 . S
H816 C822 0.930 . S
H817 C825 0.930 . S
H818 C826 0.930 . S
H819 C827 0.930 . S
H820 C830 0.930 . S
H821 C831 0.930 . S
C822 H816 0.930 . S
C822 C823 1.355 . S
C822 C824 1.415 . S
C823 C822 1.355 . S
C823 C825 1.419 . S
C824 C822 1.415 . S
C824 C829 1.425 . S
C824 C831 1.409 . S
C825 H817 0.930 . S
C825 C823 1.419 . S
C825 C826 1.362 . S
C826 H818 0.930 . S
C826 C825 1.362 . S
C826 C829 1.409 . S
C827 H819 0.930 . S
C827 C828 1.355 . S
C827 C829 1.415 . S
C828 C827 1.355 . S
C828 C830 1.419 . S
C829 C824 1.425 . S
C829 C826 1.409 . S
C829 C827 1.415 . S
C830 H820 0.930 . S
C830 C828 1.419 . S
C830 C831 1.362 . S
C831 H821 0.930 . S
C831 C824 1.409 . S
C831 C830 1.362 . S
H832 C838 0.930 . S
H833 C841 0.930 . S
H834 C842 0.930 . S
H835 C843 0.930 . S
H836 C846 0.930 . S
H837 C847 0.930 . S
C838 H832 0.930 . S
C838 C839 1.355 . S
C838 C840 1.415 . S
C839 C838 1.355 . S
C839 C841 1.419 . S
C840 C838 1.415 . S
C840 C845 1.425 . S
C840 C847 1.409 . S
C841 H833 0.930 . S
C841 C839 1.419 . S
C841 C842 1.362 . S
C842 H834 0.930 . S
C842 C841 1.362 . S
C842 C845 1.409 . S
C843 H835 0.930 . S
C843 C844 1.355 . S
C843 C845 1.415 . S
C844 C843 1.355 . S
C844 C846 1.419 . S
C845 C840 1.425 . S
C845 C842 1.409 . S
C845 C843 1.415 . S
C846 H836 0.930 . S
C846 C844 1.419 . S
C846 C847 1.362 . S
C847 H837 0.930 . S
C847 C840 1.409 . S
C847 C846 1.362 . S
H848 C854 0.930 . S
H849 C857 0.930 . S
H850 C858 0.930 . S
H851 C859 0.930 . S
H852 C862 0.930 . S
H853 C863 0.930 . S
C854 H848 0.930 . S
C854 C855 1.355 . S
C854 C856 1.415 . S
C855 C854 1.355 . S
C855 C857 1.419 . S
C856 C854 1.415 . S
C856 C861 1.425 . S
C856 C863 1.409 . S
C857 H849 0.930 . S
C857 C855 1.419 . S
C857 C858 1.362 . S
C858 H850 0.930 . S
C858 C857 1.362 . S
C858 C861 1.409 . S
C859 H851 0.930 . S
C859 C860 1.355 . S
C859 C861 1.415 . S
C860 C859 1.355 . S
C860 C862 1.419 . S
C861 C856 1.425 . S
C861 C858 1.409 . S
C861 C859 1.415 . S
C862 H852 0.930 . S
C862 C860 1.419 . S
C862 C863 1.362 . S
C863 H853 0.930 . S
C863 C856 1.409 . S
C863 C862 1.362 . S
H864 C870 0.930 . S
H865 C873 0.930 . S
H866 C874 0.930 . S
H867 C875 0.930 . S
H868 C878 0.930 . S
H869 C879 0.930 . S
C870 H864 0.930 . S
C870 C871 1.355 . S
C870 C872 1.415 . S
C871 C870 1.355 . S
C871 C873 1.419 . S
C872 C870 1.415 . S
C872 C877 1.425 . S
C872 C879 1.409 . S
C873 H865 0.930 . S
C873 C871 1.419 . S
C873 C874 1.362 . S
C874 H866 0.930 . S
C874 C873 1.362 . S
C874 C877 1.409 . S
C875 H867 0.930 . S
C875 C876 1.355 . S
C875 C877 1.415 . S
C876 C875 1.355 . S
C876 C878 1.419 . S
C877 C872 1.425 . S
C877 C874 1.409 . S
C877 C875 1.415 . S
C878 H868 0.930 . S
C878 C876 1.419 . S
C878 C879 1.362 . S
C879 H869 0.930 . S
C879 C872 1.409 . S
C879 C878 1.362 . S
H880 C886 0.930 . S
H881 C889 0.930 . S
H882 C890 0.930 . S
H883 C891 0.930 . S
H884 C894 0.930 . S
H885 C895 0.930 . S
C886 H880 0.930 . S
C886 C887 1.355 . S
C886 C888 1.415 . S
C887 C886 1.355 . S
C887 C889 1.419 . S
C888 C886 1.415 . S
C888 C893 1.425 1_554 S
C888 C895 1.409 1_554 S
C889 H881 0.930 . S
C889 C887 1.419 . S
C889 C890 1.362 . S
C890 H882 0.930 . S
C890 C889 1.362 . S
C890 C893 1.409 1_554 S
C891 H883 0.930 . S
C891 C892 1.355 . S
C891 C893 1.415 . S
C892 C891 1.355 . S
C892 C894 1.419 . S
C893 C888 1.425 1_556 S
C893 C890 1.409 1_556 S
C893 C891 1.415 . S
C894 H884 0.930 . S
C894 C892 1.419 . S
C894 C895 1.362 . S
C895 H885 0.930 . S
C895 C888 1.409 1_556 S
C895 C894 1.362 . S
H896 C902 0.930 . S
H897 C905 0.930 . S
H898 C906 0.930 . S
H899 C907 0.930 . S
H900 C910 0.930 . S
H901 C911 0.930 . S
C902 H896 0.930 . S
C902 C903 1.355 . S
C902 C904 1.415 . S
C903 C902 1.355 . S
C903 C905 1.419 . S
C904 C902 1.415 . S
C904 C909 1.425 . S
C904 C911 1.409 . S
C905 H897 0.930 . S
C905 C903 1.419 . S
C905 C906 1.362 . S
C906 H898 0.930 . S
C906 C905 1.362 . S
C906 C909 1.409 . S
C907 H899 0.930 . S
C907 C908 1.355 . S
C907 C909 1.415 . S
C908 C907 1.355 . S
C908 C910 1.419 . S
C909 C904 1.425 . S
C909 C906 1.409 . S
C909 C907 1.415 . S
C910 H900 0.930 . S
C910 C908 1.419 . S
C910 C911 1.362 . S
C911 H901 0.930 . S
C911 C904 1.409 . S
C911 C910 1.362 . S
C540 C519 1.055 . S
C535 C51 1.340 . S
C551 C125 1.464 . S
C556 C449 1.145 . S
C567 C217 2.512 . S
C572 C469 2.576 . S
C583 C291 1.437 . S
C588 C483 1.437 . S
C604 C491 0.762 . S
C599 C347 0.900 . S
C615 C421 0.896 . S
C620 C505 0.900 . S
C631 C143 2.267 . S
C636 C463 1.934 . S
C647 C199 1.513 . S
C652 C477 1.203 . S
C663 C273 0.548 . S
C668 C497 0.475 . S
C684 C511 1.657 . S
C679 C365 1.579 . S
C700 C525 1.816 . S
C695 C439 1.842 . S
C716 C455 2.442 . S
C711 C69 2.398 . S
C727 C63 1.392 . S
C732 C462 1.524 . S
C743 C137 1.585 . S
C748 C476 1.667 . S
C764 C498 1.321 . S
C759 C187 1.309 . S
C775 C261 1.421 . S
C780 C512 1.464 . S
C796 C526 1.552 . S
C791 C359 1.396 . S
C812 C456 1.201 . S
C807 C433 1.104 . S
C828 C518 1.692 . S
C823 C113 1.633 . S
C839 C211 1.309 . S
C844 C448 1.402 . S
C860 C470 1.681 . S
C855 C285 1.550 . S
C871 C335 1.318 . S
C876 C484 1.411 . S
C887 C409 1.290 . S
C892 C490 1.374 . S
C903 C39 1.654 . S
C908 C504 1.674 . S
