# Generated by pormake.
# Topology pto, (3,4)-cn, num edge types: 1
# Building blocks:
#     Node 0, Type 0, BuildingBlock: CUQRIR_clean_linker_1, # of connection points: 3
#     Node 1, Type 0, BuildingBlock: CUQRIR_clean_linker_1, # of connection points: 3
#     Node 2, Type 0, BuildingBlock: CUQRIR_clean_linker_1, # of connection points: 3
#     Node 3, Type 0, BuildingBlock: CUQRIR_clean_linker_1, # of connection points: 3
#     Node 4, Type 0, BuildingBlock: CUQRIR_clean_linker_1, # of connection points: 3
#     Node 5, Type 0, BuildingBlock: CUQRIR_clean_linker_1, # of connection points: 3
#     Node 6, Type 0, BuildingBlock: CUQRIR_clean_linker_1, # of connection points: 3
#     Node 7, Type 0, BuildingBlock: CUQRIR_clean_linker_1, # of connection points: 3
#     Node 8, Type 1, BuildingBlock: KOZSID_clean_sbu_0, # of connection points: 4
#     Node 9, Type 1, BuildingBlock: KOZSID_clean_sbu_0, # of connection points: 4
#     Node 10, Type 1, BuildingBlock: KOZSID_clean_sbu_0, # of connection points: 4
#     Node 11, Type 1, BuildingBlock: KOZSID_clean_sbu_0, # of connection points: 4
#     Node 12, Type 1, BuildingBlock: KOZSID_clean_sbu_0, # of connection points: 4
#     Node 13, Type 1, BuildingBlock: KOZSID_clean_sbu_0, # of connection points: 4
#     Edge 14, Type (0, 1), BuildingBlock: OJICUG_clean_linker_0, # of connection points: 2
#     Edge 15, Type (0, 1), BuildingBlock: OJICUG_clean_linker_0, # of connection points: 2
#     Edge 16, Type (0, 1), BuildingBlock: OJICUG_clean_linker_0, # of connection points: 2
#     Edge 17, Type (0, 1), BuildingBlock: OJICUG_clean_linker_0, # of connection points: 2
#     Edge 18, Type (0, 1), BuildingBlock: OJICUG_clean_linker_0, # of connection points: 2
#     Edge 19, Type (0, 1), BuildingBlock: OJICUG_clean_linker_0, # of connection points: 2
#     Edge 20, Type (0, 1), BuildingBlock: OJICUG_clean_linker_0, # of connection points: 2
#     Edge 21, Type (0, 1), BuildingBlock: OJICUG_clean_linker_0, # of connection points: 2
#     Edge 22, Type (0, 1), BuildingBlock: OJICUG_clean_linker_0, # of connection points: 2
#     Edge 23, Type (0, 1), BuildingBlock: OJICUG_clean_linker_0, # of connection points: 2
#     Edge 24, Type (0, 1), BuildingBlock: OJICUG_clean_linker_0, # of connection points: 2
#     Edge 25, Type (0, 1), BuildingBlock: OJICUG_clean_linker_0, # of connection points: 2
#     Edge 26, Type (0, 1), BuildingBlock: OJICUG_clean_linker_0, # of connection points: 2
#     Edge 27, Type (0, 1), BuildingBlock: OJICUG_clean_linker_0, # of connection points: 2
#     Edge 28, Type (0, 1), BuildingBlock: OJICUG_clean_linker_0, # of connection points: 2
#     Edge 29, Type (0, 1), BuildingBlock: OJICUG_clean_linker_0, # of connection points: 2
#     Edge 30, Type (0, 1), BuildingBlock: OJICUG_clean_linker_0, # of connection points: 2
#     Edge 31, Type (0, 1), BuildingBlock: OJICUG_clean_linker_0, # of connection points: 2
#     Edge 32, Type (0, 1), BuildingBlock: OJICUG_clean_linker_0, # of connection points: 2
#     Edge 33, Type (0, 1), BuildingBlock: OJICUG_clean_linker_0, # of connection points: 2
#     Edge 34, Type (0, 1), BuildingBlock: OJICUG_clean_linker_0, # of connection points: 2
#     Edge 35, Type (0, 1), BuildingBlock: OJICUG_clean_linker_0, # of connection points: 2
#     Edge 36, Type (0, 1), BuildingBlock: OJICUG_clean_linker_0, # of connection points: 2
#     Edge 37, Type (0, 1), BuildingBlock: OJICUG_clean_linker_0, # of connection points: 2
# Relax obj value: 0.021
# Max RMSD: 0.186
# Mean RMSD: 0.077
data_MOF--net-pto--node1-KOZSID_clean_sbu_0--node2-CUQRIR_clean_linker_1--edge1-OJICUG_clean_linker_0
_symmetry_space_group_name_H-M    P1
_symmetry_Int_Tables_number       1
_symmetry_cell_setting            triclinic
loop_
_symmetry_equiv_pos_as_xyz
'x, y, z'
_cell_length_a     26.594647
_cell_length_b     34.10395
_cell_length_c     30.08059
_cell_angle_alpha  76.535794
_cell_angle_beta   91.567484
_cell_angle_gamma 100.06152
loop_
_atom_site_label
_atom_site_type_symbol
_atom_site_fract_x
_atom_site_fract_y
_atom_site_fract_z
_atom_type_partial_charge
C0 C 0.31602 0.28217 0.31525 0.0
N1 N 0.34113 0.25687 0.29903 0.0
N2 N 0.30524 0.3129 0.28087 0.0
C3 C 0.29762 0.27484 0.36388 0.0
C4 C 0.324 0.30513 0.24301 0.0
N5 N 0.3453 0.27084 0.25391 0.0
C6 C 0.32518 0.33284 0.19595 0.0
H7 H 0.28938 0.24162 0.38009 0.0
H8 H 0.26258 0.28802 0.36543 0.0
H9 H 0.32772 0.28982 0.38372 0.0
H10 H 0.32447 0.36485 0.19778 0.0
H11 H 0.29111 0.32208 0.17707 0.0
H12 H 0.35978 0.33216 0.17654 0.0
C13 C 0.31524 0.77352 0.70774 0.0
N14 N 0.35259 0.79521 0.72818 0.0
N15 N 0.30252 0.73478 0.73302 0.0
C16 C 0.29151 0.79044 0.66287 0.0
C17 C 0.33328 0.73366 0.76973 0.0
N18 N 0.36382 0.77043 0.76692 0.0
C19 C 0.33148 0.69729 0.80953 0.0
H20 H 0.27601 0.81811 0.66515 0.0
H21 H 0.26082 0.76785 0.65283 0.0
H22 H 0.32122 0.79995 0.63549 0.0
H23 H 0.35987 0.67876 0.80344 0.0
H24 H 0.29316 0.67771 0.81332 0.0
H25 H 0.34127 0.70717 0.8418 0.0
C26 C 0.92234 0.80257 0.36579 0.0
N27 N 0.90429 0.78152 0.33384 0.0
N28 N 0.905 0.83857 0.35835 0.0
C29 C 0.95926 0.78926 0.40264 0.0
C30 C 0.87566 0.83872 0.32086 0.0
N31 N 0.87556 0.80428 0.30566 0.0
C32 C 0.84473 0.87138 0.3007 0.0
H33 H 0.93783 0.76682 0.43153 0.0
H34 H 0.97959 0.81561 0.41552 0.0
H35 H 0.98761 0.77415 0.38967 0.0
H36 H 0.83769 0.88893 0.32598 0.0
H37 H 0.8076 0.85773 0.28829 0.0
H38 H 0.86608 0.89286 0.27109 0.0
C39 C 0.79619 0.23331 0.77956 0.0
N40 N 0.82672 0.25876 0.74539 0.0
N41 N 0.75358 0.24825 0.78489 0.0
C42 C 0.80539 0.19171 0.80512 0.0
C43 C 0.75914 0.28382 0.75309 0.0
N44 N 0.80516 0.29206 0.73111 0.0
C45 C 0.71629 0.30769 0.73949 0.0
H46 H 0.77486 0.17648 0.83092 0.0
H47 H 0.84273 0.19484 0.82245 0.0
H48 H 0.80675 0.17194 0.78079 0.0
H49 H 0.70584 0.31983 0.76851 0.0
H50 H 0.68204 0.28694 0.73153 0.0
H51 H 0.72649 0.33292 0.70874 0.0
C52 C 0.81865 0.75118 0.79701 0.0
N53 N 0.84897 0.76811 0.75955 0.0
N54 N 0.79103 0.77826 0.80592 0.0
C55 C 0.81665 0.70841 0.82557 0.0
C56 C 0.80549 0.81231 0.77257 0.0
N57 N 0.84089 0.80635 0.74434 0.0
C58 C 0.78905 0.85279 0.77056 0.0
H59 H 0.78038 0.69771 0.84556 0.0
H60 H 0.84895 0.70816 0.84971 0.0
H61 H 0.82054 0.68703 0.80363 0.0
H62 H 0.81195 0.86811 0.79508 0.0
H63 H 0.74827 0.84832 0.78046 0.0
H64 H 0.79482 0.87308 0.73581 0.0
C65 C 0.84286 0.25168 0.29177 0.0
N66 N 0.87892 0.26971 0.31679 0.0
N67 N 0.82351 0.28021 0.26029 0.0
C68 C 0.82306 0.20629 0.30101 0.0
C69 C 0.84845 0.3163 0.26751 0.0
N70 N 0.88168 0.30996 0.30235 0.0
C71 C 0.84278 0.35768 0.23863 0.0
H72 H 0.84759 0.19202 0.28247 0.0
H73 H 0.78322 0.19984 0.28927 0.0
H74 H 0.82427 0.19187 0.33802 0.0
H75 H 0.81486 0.3704 0.25545 0.0
H76 H 0.82876 0.35545 0.20408 0.0
H77 H 0.87973 0.37916 0.2352 0.0
C78 C 0.24831 0.2735 0.76262 0.0
N79 N 0.27719 0.24577 0.75763 0.0
N80 N 0.22748 0.28937 0.72226 0.0
C81 C 0.24541 0.28868 0.80557 0.0
C82 C 0.24553 0.27085 0.69232 0.0
N83 N 0.27611 0.24461 0.71378 0.0
C84 C 0.23169 0.27721 0.64269 0.0
H85 H 0.21453 0.26816 0.82805 0.0
H86 H 0.23701 0.32027 0.79787 0.0
H87 H 0.28175 0.28837 0.82454 0.0
H88 H 0.26151 0.30083 0.62217 0.0
H89 H 0.19443 0.28784 0.63668 0.0
H90 H 0.22993 0.24848 0.63094 0.0
C91 C 0.33052 0.79735 0.33174 0.0
N92 N 0.34124 0.77635 0.30103 0.0
N93 N 0.36998 0.82766 0.33457 0.0
C94 C 0.28332 0.78641 0.36163 0.0
C95 C 0.40529 0.82426 0.30477 0.0
N96 N 0.3881 0.79281 0.2847 0.0
C97 C 0.4548 0.85365 0.2927 0.0
H98 H 0.25263 0.80141 0.34293 0.0
H99 H 0.29062 0.79711 0.39371 0.0
H100 H 0.26978 0.75283 0.37029 0.0
H101 H 0.4526 0.88378 0.29986 0.0
H102 H 0.46484 0.85811 0.25609 0.0
H103 H 0.48569 0.84082 0.31359 0.0
C104 C 0.19111 0.60279 0.33902 0.0
C105 C 0.21548 0.61017 0.37848 0.0
C106 C 0.19104 0.58167 0.41431 0.0
C107 C 0.15319 0.55863 0.39495 0.0
N108 N 0.15193 0.5706 0.34881 0.0
Co109 Co 0.1022 0.54576 0.30734 0.0
N110 N 0.0661 0.50411 0.36036 0.0
C111 C 0.07524 0.50167 0.40527 0.0
C112 C 0.04594 0.46873 0.43359 0.0
C113 C 0.017 0.44842 0.40506 0.0
C114 C 0.03038 0.4703 0.36083 0.0
N115 N 0.05347 0.52003 0.26589 0.0
C116 C 0.01978 0.48428 0.27532 0.0
C117 C 0.9957 0.476 0.23616 0.0
C118 C 0.0159 0.50705 0.20054 0.0
C119 C 0.05093 0.53243 0.21989 0.0
N120 N 0.13775 0.58775 0.25434 0.0
C121 C 0.12514 0.59255 0.20973 0.0
C122 C 0.1558 0.62443 0.18119 0.0
C123 C 0.18975 0.64135 0.2092 0.0
C124 C 0.17769 0.61879 0.25345 0.0
N125 N 0.14876 0.50743 0.30208 0.0
C126 C 0.20486 0.44617 0.29482 0.0
C127 C 0.18766 0.47124 0.25589 0.0
C128 C 0.1602 0.50155 0.26024 0.0
C129 C 0.19539 0.45358 0.33739 0.0
C130 C 0.16759 0.48419 0.34021 0.0
N131 N 0.05504 0.58435 0.31244 0.0
C132 C 0.99982 0.63216 0.27695 0.0
C133 C 0.99444 0.64389 0.31786 0.0
C134 C 0.01872 0.62418 0.35637 0.0
C135 C 0.04821 0.59472 0.35299 0.0
C136 C 0.02987 0.60271 0.27504 0.0
H137 H 0.06574 0.58136 0.38362 0.0
H138 H 0.03249 0.59582 0.24263 0.0
H139 H 0.14774 0.51933 0.22929 0.0
H140 H 0.16071 0.48792 0.37364 0.0
C141 C 0.11648 0.52711 0.41934 0.0
C142 C 0.20499 0.6285 0.29341 0.0
C143 C 0.01096 0.45639 0.32034 0.0
C144 C 0.08488 0.56615 0.1956 0.0
H145 H 0.24697 0.63419 0.38136 0.0
H146 H 0.19916 0.57869 0.45029 0.0
H147 H 0.04752 0.4593 0.47047 0.0
H148 H 0.99058 0.41988 0.41557 0.0
H149 H 0.9675 0.44964 0.23349 0.0
H150 H 0.00751 0.50992 0.16463 0.0
H151 H 0.1537 0.63421 0.14437 0.0
H152 H 0.21988 0.66746 0.19834 0.0
H153 H 0.19512 0.46742 0.22207 0.0
H154 H 0.20793 0.43502 0.3686 0.0
H155 H 0.98105 0.64569 0.24623 0.0
H156 H 0.01638 0.63219 0.38895 0.0
C157 C 0.12016 0.58027 0.75374 0.0
C158 C 0.13949 0.58438 0.79611 0.0
C159 C 0.10735 0.55767 0.82821 0.0
C160 C 0.07045 0.53889 0.80375 0.0
N161 N 0.07725 0.55164 0.7579 0.0
Co162 Co 0.03163 0.53332 0.70972 0.0
N163 N 0.98607 0.49215 0.75702 0.0
C164 C 0.99033 0.48584 0.80303 0.0
C165 C 0.95889 0.45167 0.82668 0.0
C166 C 0.934 0.43434 0.794 0.0
C167 C 0.95099 0.4595 0.75186 0.0
N168 N 0.9857 0.51482 0.66186 0.0
C169 C 0.9491 0.481 0.66565 0.0
C170 C 0.92806 0.47801 0.62361 0.0
C171 C 0.95357 0.51026 0.59192 0.0
C172 C 0.9884 0.53118 0.61633 0.0
N173 N 0.07793 0.57345 0.6623 0.0
C174 C 0.07215 0.581 0.61644 0.0
C175 C 0.10989 0.61041 0.59262 0.0
C176 C 0.14157 0.62253 0.62523 0.0
C177 C 0.12112 0.59976 0.6672 0.0
N178 N 0.07253 0.49053 0.70744 0.0
C179 C 0.12147 0.42414 0.70558 0.0
C180 C 0.10891 0.44984 0.66498 0.0
C181 C 0.08448 0.48266 0.66667 0.0
C182 C 0.11105 0.43328 0.7469 0.0
C183 C 0.08717 0.46649 0.74704 0.0
N184 N 0.99077 0.577 0.71211 0.0
C185 C 0.96164 0.64051 0.67583 0.0
C186 C 0.94959 0.64697 0.7182 0.0
C187 C 0.95526 0.61639 0.75703 0.0
C188 C 0.97509 0.58194 0.7532 0.0
C189 C 0.98185 0.60558 0.67358 0.0
H190 H 0.97811 0.56018 0.78427 0.0
H191 H 0.99084 0.60296 0.64029 0.0
H192 H 0.07468 0.50086 0.63473 0.0
H193 H 0.08015 0.47178 0.77967 0.0
C194 C 0.02982 0.50839 0.82283 0.0
C195 C 0.14302 0.6053 0.71071 0.0
C196 C 0.93512 0.44993 0.70787 0.0
C197 C 0.02969 0.56116 0.59701 0.0
H198 H 0.17311 0.60487 0.8031 0.0
H199 H 0.11047 0.55257 0.86499 0.0
H200 H 0.95716 0.43911 0.86325 0.0
H201 H 0.90835 0.40527 0.80094 0.0
H202 H 0.89887 0.45401 0.61637 0.0
H203 H 0.94958 0.51612 0.55516 0.0
H204 H 0.11349 0.62211 0.55596 0.0
H205 H 0.17545 0.64591 0.61896 0.0
H206 H 0.11665 0.44403 0.63214 0.0
H207 H 0.12136 0.41486 0.77918 0.0
H208 H 0.95695 0.66283 0.64456 0.0
H209 H 0.94442 0.61894 0.79057 0.0
C210 C 0.43039 0.98616 0.60721 0.0
C211 C 0.47725 0.9824 0.62771 0.0
C212 C 0.51106 0.01643 0.60683 0.0
C213 C 0.48299 0.03903 0.57504 0.0
N214 N 0.43368 0.02136 0.57445 0.0
Co215 Co 0.37988 0.0443 0.53458 0.0
N216 N 0.4315 0.08357 0.49218 0.0
C217 C 0.48156 0.09334 0.5008 0.0
C218 C 0.50848 0.12027 0.46477 0.0
C219 C 0.47312 0.12855 0.43158 0.0
C220 C 0.42621 0.10655 0.44951 0.0
N221 N 0.32591 0.06734 0.49482 0.0
C222 C 0.32927 0.09281 0.45252 0.0
C223 C 0.28182 0.10295 0.43892 0.0
C224 C 0.24807 0.08357 0.47387 0.0
C225 C 0.27643 0.06282 0.5069 0.0
N226 N 0.32846 1.00508 0.57722 0.0
C227 C 0.27859 0.00719 0.57986 0.0
C228 C 0.25181 0.97484 0.6109 0.0
C229 C 0.28707 0.95103 0.62932 0.0
C230 C 0.33389 0.97065 0.60894 0.0
N231 N 0.37885 0.08492 0.571 0.0
C232 C 0.36013 0.13972 0.62272 0.0
C233 C 0.36834 0.10018 0.6441 0.0
C234 C 0.37749 0.07333 0.6177 0.0
C235 C 0.36496 0.1519 0.57494 0.0
C236 C 0.37485 0.12432 0.54991 0.0
N237 N 0.38006 1.00361 0.49822 0.0
C238 C 0.33321 0.95361 0.4609 0.0
C239 C 0.37867 0.94604 0.44472 0.0
C240 C 0.425 0.96771 0.45657 0.0
C241 C 0.42486 0.99619 0.4834 0.0
C242 C 0.33473 0.98247 0.48724 0.0
H243 H 0.46099 0.0124 0.49188 0.0
H244 H 0.299 0.98764 0.49868 0.0
H245 H 0.38153 0.04266 0.63515 0.0
H246 H 0.37691 0.13452 0.51327 0.0
C247 C 0.50295 0.07283 0.5405 0.0
C248 C 0.38306 0.95728 0.622 0.0
C249 C 0.37723 0.11256 0.42725 0.0
C250 C 0.25694 0.03542 0.5472 0.0
H251 H 0.48597 0.95779 0.65506 0.0
H252 H 0.5516 0.02311 0.61298 0.0
H253 H 0.54914 0.13182 0.46248 0.0
H254 H 0.48075 0.14933 0.39839 0.0
H255 H 0.2725 0.12328 0.4077 0.0
H256 H 0.20759 0.08427 0.47486 0.0
H257 H 0.21107 0.96821 0.61769 0.0
H258 H 0.27865 0.9224 0.65454 0.0
H259 H 0.36651 0.08956 0.68094 0.0
H260 H 0.35875 0.18189 0.55648 0.0
H261 H 0.29645 0.93715 0.45366 0.0
H262 H 0.46118 0.9633 0.44462 0.0
C263 C 0.53073 0.81512 0.10782 0.0
C264 C 0.52235 0.85278 0.11335 0.0
C265 C 0.55467 0.88198 0.08356 0.0
C266 C 0.58099 0.86063 0.06171 0.0
N267 N 0.56713 0.81948 0.07542 0.0
Co268 Co 0.59726 0.77693 0.0539 0.0
N269 N 0.64482 0.81988 0.01015 0.0
C270 C 0.6488 0.86096 1.00314 0.0
C271 C 0.68275 0.88253 0.96896 0.0
C272 C 0.70087 0.8535 0.95256 0.0
C273 C 0.67681 0.81579 0.97784 0.0
N274 N 0.628 0.7343 0.03329 0.0
C275 C 0.66284 0.73848 0.99978 0.0
C276 C 0.67325 0.70089 0.99598 0.0
C277 C 0.64334 0.67181 0.02788 0.0
C278 C 0.61658 0.69324 0.04921 0.0
N279 N 0.54871 0.73392 0.09679 0.0
C280 C 0.54401 0.69288 0.1029 0.0
C281 C 0.50726 0.67107 0.13448 0.0
C282 C 0.48738 0.69987 0.14973 0.0
C283 C 0.51343 0.7377 0.12656 0.0
N284 N 0.54631 0.777 0.00404 0.0
C285 C 0.48756 0.77961 0.92396 0.0
C286 C 0.49833 0.74251 0.95037 0.0
C287 C 0.52695 0.74182 0.99028 0.0
C288 C 0.50438 0.81497 0.93976 0.0
C289 C 0.5334 0.813 0.97945 0.0
N290 N 0.64933 0.77728 0.10302 0.0
C291 C 0.69891 0.74192 0.16347 0.0
C292 C 0.72837 0.77898 0.16815 0.0
C293 C 0.71623 0.81504 0.14056 0.0
C294 C 0.67721 0.8135 0.10872 0.0
C295 C 0.65981 0.74178 0.13108 0.0
H296 H 0.67056 0.84221 0.08902 0.0
H297 H 0.63885 0.71259 0.12914 0.0
H298 H 0.53389 0.71262 0.00899 0.0
H299 H 0.54606 0.8413 0.98877 0.0
C300 C 0.61858 0.87828 0.02791 0.0
C301 C 0.50416 0.77618 0.13508 0.0
C302 C 0.68427 0.777 0.96884 0.0
C303 C 0.57675 0.67567 0.08065 0.0
H304 H 0.49591 0.85855 0.13681 0.0
H305 H 0.55874 0.91485 0.07861 0.0
H306 H 0.69223 0.91542 0.95667 0.0
H307 H 0.72797 0.85934 0.92459 0.0
H308 H 0.6986 0.69501 0.97169 0.0
H309 H 0.63995 0.63893 0.03353 0.0
H310 H 0.49691 0.63814 0.14576 0.0
H311 H 0.4576 0.69376 0.1755 0.0
H312 H 0.48478 0.71404 0.94028 0.0
H313 H 0.49667 0.84439 0.92077 0.0
H314 H 0.70638 0.71304 0.18413 0.0
H315 H 0.73643 0.84471 0.14368 0.0
C316 C 0.95217 0.99095 0.6245 0.0
C317 C 0.9982 0.98066 0.64205 0.0
C318 C 0.03534 0.01309 0.62419 0.0
C319 C 0.01023 0.04106 0.59638 0.0
N320 N 0.95904 0.02898 0.59625 0.0
Co321 Co 0.90908 0.05705 0.5548 0.0
N322 N 0.9652 0.09958 0.52038 0.0
C323 C 0.01573 0.10306 0.5291 0.0
C324 C 0.04491 0.13668 0.50183 0.0
C325 C 0.01096 0.1563 0.47437 0.0
C326 C 0.96283 0.13323 0.48639 0.0
N327 N 0.85894 0.08437 0.51304 0.0
C328 C 0.86665 0.11886 0.47898 0.0
C329 C 0.82108 0.1269 0.45814 0.0
C330 C 0.7832 0.09724 0.48071 0.0
C331 C 0.80758 0.07259 0.51364 0.0
N332 N 0.8531 0.01461 0.58941 0.0
C333 C 0.80216 0.01291 0.58371 0.0
C334 C 0.77336 0.97948 0.61166 0.0
C335 C 0.80793 0.95781 0.63554 0.0
C336 C 0.85609 0.97912 0.62027 0.0
N337 N 0.90327 0.09388 0.59687 0.0
C338 C 0.89296 0.15573 0.64321 0.0
C339 C 0.85041 0.13197 0.62869 0.0
C340 C 0.85631 0.10158 0.60629 0.0
C341 C 0.94098 0.14612 0.63685 0.0
C342 C 0.94523 0.11524 0.61375 0.0
N343 N 0.91428 0.02067 0.51267 0.0
C344 C 0.8727 0.96923 0.47402 0.0
C345 C 0.91958 0.96196 0.46134 0.0
C346 C 0.96405 0.98574 0.47309 0.0
C347 C 0.96058 0.0146 0.49899 0.0
C348 C 0.87092 0.9988 0.49877 0.0
H349 H 0.99566 0.03113 0.50837 0.0
H350 H 0.83384 1.0028 0.50702 0.0
H351 H 0.82196 0.0855 0.59605 0.0
H352 H 0.98283 0.10975 0.60916 0.0
C353 C 0.03428 0.07534 0.5646 0.0
C354 C 0.90325 0.96287 0.63307 0.0
C355 C 0.91593 0.14561 0.46612 0.0
C356 C 0.78303 0.03983 0.54742 0.0
H357 H 0.00492 0.95202 0.66366 0.0
H358 H 0.07617 0.01479 0.62835 0.0
H359 H 0.08584 0.1464 0.50272 0.0
H360 H 0.0205 0.18492 0.44919 0.0
H361 H 0.81551 0.15202 0.43003 0.0
H362 H 0.74258 0.09455 0.47456 0.0
H363 H 0.73221 0.97064 0.6126 0.0
H364 H 0.79863 0.92864 0.65982 0.0
H365 H 0.81216 0.13689 0.63439 0.0
H366 H 0.97515 0.16305 0.64838 0.0
H367 H 0.83729 0.95206 0.4648 0.0
H368 H 1.00124 0.98122 0.46355 0.0
C369 C 0.46965 0.27421 0.07462 0.0
C370 C 0.45674 0.31178 0.07534 0.0
C371 C 0.48272 0.3398 0.0399 0.0
C372 C 0.50981 0.31787 0.01956 0.0
N373 N 0.50212 0.27734 0.03948 0.0
Co374 Co 0.53504 0.23435 0.02187 0.0
N375 N 0.57928 0.27645 0.97439 0.0
C376 C 0.58132 0.31752 0.96479 0.0
C377 C 0.61521 0.3385 0.93035 0.0
C378 C 0.63587 0.30913 0.91692 0.0
C379 C 0.61324 0.27173 0.94405 0.0
N380 N 0.56688 0.1912 0.00345 0.0
C381 C 0.60086 0.19448 0.96941 0.0
C382 C 0.61122 0.15657 0.96685 0.0
C383 C 0.58226 0.12819 1.0001 0.0
C384 C 0.556 0.15032 0.02093 0.0
N385 N 0.49199 0.1925 0.07048 0.0
C386 C 0.49075 0.15156 0.08092 0.0
C387 C 0.45999 0.13097 0.1178 0.0
C388 C 0.44113 0.16059 0.13243 0.0
C389 C 0.46155 0.19763 0.10342 0.0
N390 N 0.48136 0.2278 0.97552 0.0
C391 C 0.415 0.21924 0.90252 0.0
C392 C 0.4211 0.1852 0.93707 0.0
C393 C 0.4546 0.19012 0.97301 0.0
C394 C 0.44052 0.25759 0.90624 0.0
C395 C 0.4726 0.26118 0.94285 0.0
N396 N 0.58898 0.24114 0.06758 0.0
C397 C 0.64573 0.21297 0.12583 0.0
C398 C 0.66537 0.25198 0.13233 0.0
C399 C 0.64633 0.28532 0.10589 0.0
C400 C 0.60871 0.2793 0.07393 0.0
C401 C 0.6075 0.20823 0.09365 0.0
H402 H 0.5963 0.30612 0.05478 0.0
H403 H 0.59334 0.17774 0.09051 0.0
H404 H 0.45873 0.16302 0.99791 0.0
H405 H 0.49034 0.29139 0.94343 0.0
C406 C 0.54769 0.33509 0.9859 0.0
C407 C 0.45241 0.23694 0.10954 0.0
C408 C 0.62356 0.23257 0.93823 0.0
C409 C 0.52084 0.13365 0.05683 0.0
H410 H 0.43241 0.31847 0.09988 0.0
H411 H 0.48367 0.37256 0.03137 0.0
H412 H 0.62281 0.37115 0.91577 0.0
H413 H 0.66359 0.31456 0.88952 0.0
H414 H 0.63671 0.1501 0.94307 0.0
H415 H 0.58021 0.09532 0.00786 0.0
H416 H 0.45322 0.09843 0.13302 0.0
H417 H 0.41608 0.15565 0.16171 0.0
H418 H 0.4011 0.15495 0.93583 0.0
H419 H 0.43548 0.28499 0.881 0.0
H420 H 0.65923 0.18619 0.14592 0.0
H421 H 0.66093 0.31617 0.10932 0.0
C422 C 0.23826 0.35494 0.25681 0.0
C423 C 0.28041 0.34649 0.28411 0.0
H424 H 0.18101 0.3927 0.23913 0.0
C425 C 0.29792 0.37101 0.31483 0.0
H426 H 0.22381 0.33606 0.23332 0.0
C427 C 0.27357 0.4034 0.31834 0.0
C428 C 0.2313 0.41201 0.29099 0.0
H429 H 0.33075 0.36523 0.33583 0.0
H430 H 0.28826 0.42202 0.34204 0.0
C431 C 0.21397 0.38738 0.26015 0.0
C432 C 0.21189 0.70886 0.72203 0.0
C433 C 0.26289 0.70299 0.72471 0.0
H434 H 0.13372 0.68214 0.71465 0.0
C435 C 0.27467 0.66545 0.72061 0.0
H436 H 0.20225 0.73751 0.72573 0.0
C437 C 0.23577 0.63397 0.71429 0.0
C438 C 0.1848 0.63984 0.71202 0.0
H439 H 0.31388 0.66052 0.7228 0.0
H440 H 0.24521 0.60481 0.71221 0.0
C441 C 0.17304 0.67748 0.71562 0.0
C442 C 0.91531 0.70966 0.36319 0.0
C443 C 0.91989 0.74478 0.32732 0.0
H444 H 0.93409 0.64994 0.38816 0.0
C445 C 0.94531 0.74532 0.28692 0.0
H446 H 0.89548 0.70857 0.39452 0.0
C447 C 0.96813 0.71212 0.28329 0.0
C448 C 0.96573 0.67748 0.32 0.0
H449 H 0.9498 0.77235 0.25909 0.0
H450 H 0.98965 0.71451 0.25245 0.0
C451 C 0.93784 0.67633 0.35958 0.0
C452 C 0.88139 0.34217 0.69358 0.0
C453 C 0.83498 0.33342 0.71854 0.0
H454 H 0.95002 0.38585 0.67104 0.0
C455 C 0.82128 0.36525 0.73612 0.0
H456 H 0.89407 0.31922 0.67938 0.0
C457 C 0.85158 0.40379 0.72866 0.0
C458 C 0.89914 0.41124 0.70701 0.0
H459 H 0.78856 0.36048 0.75827 0.0
H460 H 0.83953 0.42701 0.74311 0.0
C461 C 0.91342 0.38057 0.68833 0.0
C462 C 0.34318 0.18246 0.31638 0.0
C463 C 0.35883 0.22112 0.32596 0.0
H464 H 0.33759 0.11726 0.34101 0.0
C465 C 0.38637 0.22389 0.3659 0.0
H466 H 0.32157 0.1796 0.28593 0.0
C467 C 0.39407 0.18863 0.39773 0.0
C468 C 0.37599 0.14973 0.3896 0.0
H469 H 0.39938 0.25343 0.37364 0.0
H470 H 0.41223 0.19171 0.42972 0.0
C471 C 0.35202 0.14695 0.34791 0.0
C472 C 0.44184 0.75854 0.80957 0.0
C473 C 0.4008 0.77996 0.8004 0.0
H474 H 0.50139 0.74156 0.85571 0.0
C475 C 0.39032 0.80337 0.83055 0.0
H476 H 0.44977 0.73959 0.7872 0.0
C477 C 0.41953 0.80443 0.86992 0.0
C478 C 0.45917 0.78139 0.88029 0.0
H479 H 0.35756 0.81865 0.82526 0.0
H480 H 0.40937 0.82157 0.89342 0.0
C481 C 0.47069 0.75916 0.84909 0.0
C482 C 0.89227 0.85902 0.42993 0.0
C483 C 0.91295 0.86866 0.38558 0.0
H484 H 0.87811 0.88134 0.48866 0.0
C485 C 0.93894 0.9085 0.36722 0.0
H486 H 0.87194 0.82847 0.44445 0.0
C487 C 0.9434 0.93856 0.39266 0.0
C488 C 0.92093 0.92933 0.43644 0.0
H489 H 0.95499 0.91637 0.33295 0.0
H490 H 0.96257 0.96935 0.37749 0.0
C491 C 0.89579 0.88918 0.455 0.0
C492 C 0.74191 0.24233 0.86699 0.0
C493 C 0.72086 0.23811 0.82468 0.0
H494 H 0.72712 0.24388 0.93635 0.0
C495 C 0.66761 0.22901 0.82081 0.0
H496 H 0.7829 0.24989 0.87035 0.0
C497 C 0.63584 0.22582 0.8583 0.0
C498 C 0.65705 0.23171 0.89997 0.0
H499 H 0.65074 0.22553 0.78851 0.0
H500 H 0.59477 0.21999 0.85445 0.0
C501 C 0.71023 0.23918 0.9044 0.0
C502 C 0.3569 0.86813 0.7257 0.0
C503 C 0.37475 0.83736 0.71005 0.0
H504 H 0.34742 0.93107 0.71071 0.0
C505 C 0.4023 0.84791 0.66856 0.0
H506 H 0.33432 0.86055 0.75686 0.0
C507 C 0.40712 0.88754 0.64086 0.0
C508 C 0.38515 0.91736 0.65468 0.0
H509 H 0.41575 0.82441 0.65567 0.0
H510 H 0.42523 0.8942 0.60748 0.0
C511 C 0.36312 0.90811 0.69867 0.0
C512 C 0.80279 0.76027 0.27924 0.0
C513 C 0.84458 0.79245 0.26931 0.0
H514 H 0.73268 0.73093 0.25539 0.0
C515 C 0.85094 0.81708 0.22487 0.0
H516 H 0.79704 0.74128 0.31359 0.0
C517 C 0.81465 0.81119 0.19147 0.0
C518 C 0.77061 0.78084 0.20195 0.0
H519 H 0.88301 0.84204 0.21667 0.0
H520 H 0.82038 0.83135 0.15774 0.0
C521 C 0.76602 0.75451 0.2459 0.0
C522 C 0.83387 0.24045 0.67177 0.0
C523 C 0.85395 0.24218 0.71503 0.0
H524 H 0.83119 0.21248 0.61489 0.0
C525 C 0.89384 0.22049 0.73098 0.0
H526 H 0.80316 0.25679 0.65863 0.0
C527 C 0.90946 0.19429 0.70625 0.0
C528 C 0.88555 0.18954 0.66504 0.0
H529 H 0.91032 0.22163 0.76404 0.0
H530 H 0.93758 0.17571 0.72092 0.0
C531 C 0.8495 0.21458 0.64707 0.0
C532 C 0.34434 0.24421 0.1846 0.0
C533 C 0.3708 0.25466 0.22239 0.0
H534 H 0.34984 0.23019 0.11907 0.0
C535 C 0.42364 0.25516 0.22508 0.0
H536 H 0.3036 0.24394 0.18194 0.0
C537 C 0.45008 0.24762 0.18912 0.0
C538 C 0.42382 0.23923 0.15033 0.0
H539 H 0.44468 0.2637 0.2537 0.0
H540 H 0.49122 0.24997 0.19068 0.0
C541 C 0.37064 0.23652 0.14881 0.0
C542 C 0.9241 0.73453 0.76772 0.0
C543 C 0.88351 0.74767 0.74101 0.0
H544 H 0.97714 0.69279 0.7812 0.0
C545 C 0.86925 0.73141 0.70282 0.0
H546 H 0.93511 0.74628 0.7977 0.0
C547 C 0.89268 0.70024 0.69354 0.0
C548 C 0.93052 0.68463 0.72265 0.0
H549 H 0.83721 0.7405 0.68245 0.0
H550 H 0.87871 0.68649 0.66555 0.0
C551 C 0.94739 0.70342 0.75866 0.0
C552 C 0.96855 0.34745 0.30799 0.0
C553 C 0.91612 0.34141 0.31776 0.0
H554 H 0.03999 0.38934 0.30098 0.0
C555 C 0.8964 0.37128 0.33374 0.0
H556 H 0.98414 0.32508 0.29478 0.0
C557 C 0.92794 0.40781 0.33713 0.0
C558 C 0.9797 0.41499 0.32453 0.0
H559 H 0.85588 0.36728 0.34079 0.0
H560 H 0.91142 0.43135 0.34722 0.0
C561 C 1.00016 0.38416 0.31113 0.0
C562 C 0.15347 0.31745 0.74019 0.0
C563 C 0.19707 0.32128 0.71332 0.0
H564 H 0.09509 0.34697 0.75848 0.0
C565 C 0.21321 0.35797 0.68084 0.0
H566 H 0.14029 0.28923 0.76515 0.0
C567 C 0.18741 0.39106 0.67682 0.0
C568 C 0.14537 0.38795 0.70555 0.0
H569 H 0.24711 0.36159 0.66013 0.0
H570 H 0.20178 0.41962 0.65283 0.0
C571 C 0.12793 0.35047 0.73647 0.0
C572 C 0.32779 0.7033 0.29881 0.0
C573 C 0.3096 0.74051 0.2913 0.0
H574 H 0.30855 0.63827 0.30518 0.0
C575 C 0.25821 0.74122 0.27961 0.0
H576 H 0.36718 0.70207 0.30816 0.0
C577 C 0.22475 0.70497 0.27846 0.0
C578 C 0.24223 0.66742 0.28863 0.0
H579 H 0.24359 0.76969 0.27328 0.0
H580 H 0.18477 0.70601 0.27141 0.0
C581 C 0.29433 0.66696 0.29742 0.0
C582 C 0.90327 0.86958 0.73037 0.0
C583 C 0.87231 0.83907 0.71279 0.0
H584 H 0.93496 0.93328 0.71975 0.0
C585 C 0.85978 0.84775 0.66637 0.0
H586 H 0.91219 0.86368 0.76641 0.0
C587 C 0.87403 0.88744 0.6391 0.0
C588 C 0.89999 0.91913 0.65823 0.0
H589 H 0.83494 0.82496 0.65247 0.0
H590 H 0.86112 0.89419 0.6041 0.0
C591 C 0.916 0.90945 0.70372 0.0
C592 C 0.78786 0.24707 0.19904 0.0
C593 C 0.78408 0.27337 0.22794 0.0
H594 H 0.75292 0.21942 0.14615 0.0
C595 C 0.74082 0.29199 0.2259 0.0
H596 H 0.82118 0.23264 0.20003 0.0
C597 C 0.70203 0.28469 0.19514 0.0
C598 C 0.70569 0.25836 0.16611 0.0
H599 H 0.73691 0.31182 0.24848 0.0
H600 H 0.66891 0.29935 0.19432 0.0
C601 C 0.74885 0.23943 0.16851 0.0
C602 C 0.28969 0.17605 0.70975 0.0
C603 C 0.30119 0.21861 0.69382 0.0
H604 H 0.29807 0.1177 0.69934 0.0
C605 C 0.33535 0.23542 0.65693 0.0
H606 H 0.26324 0.1627 0.73818 0.0
C607 C 0.35641 0.20992 0.63514 0.0
C608 C 0.34304 0.167 0.64941 0.0
H609 H 0.34518 0.26831 0.64474 0.0
H610 H 0.38259 0.22393 0.60669 0.0
C611 C 0.31003 0.15044 0.6876 0.0
C612 C 0.39239 0.78603 0.20509 0.0
C613 C 0.4138 0.7823 0.24872 0.0
H614 H 0.40486 0.78732 0.13435 0.0
C615 C 0.4634 0.77336 0.2554 0.0
H616 H 0.3544 0.79336 0.19929 0.0
C617 C 0.4921 0.77007 0.21862 0.0
C618 C 0.47162 0.77578 0.17461 0.0
H619 H 0.48044 0.77041 0.28886 0.0
H620 H 0.53087 0.76439 0.22419 0.0
C621 C 0.42122 0.78292 0.16815 0.0
C622 C 0.93156 0.21851 0.34992 0.0
C623 C 0.90341 0.24819 0.35576 0.0
H624 H 0.9568 0.16206 0.3806 0.0
C625 C 0.88723 0.24791 0.39982 0.0
H626 H 0.94358 0.21802 0.31598 0.0
C627 C 0.89462 0.21593 0.43678 0.0
C628 C 0.91813 0.18394 0.42987 0.0
H629 H 0.86464 0.27012 0.40474 0.0
H630 H 0.87873 0.21455 0.47 0.0
C631 C 0.93858 0.18642 0.38664 0.0
C632 C 0.365 0.24224 0.78272 0.0
C633 C 0.31246 0.22913 0.79074 0.0
H634 H 0.43918 0.24885 0.81243 0.0
C635 C 0.29484 0.2062 0.83424 0.0
H636 H 0.37913 0.26031 0.7495 0.0
C637 C 0.32901 0.1996 0.87033 0.0
C638 C 0.38109 0.21623 0.86323 0.0
H639 H 0.25427 0.19606 0.84087 0.0
H640 H 0.31424 0.18447 0.90435 0.0
C641 C 0.39909 0.23596 0.81873 0.0
C642 C 0.33586 0.8829 0.35715 0.0
C643 C 0.37282 0.85761 0.36169 0.0
H644 H 0.30944 0.93133 0.37859 0.0
C645 C 0.41239 0.86181 0.39293 0.0
H646 H 0.30542 0.88037 0.33279 0.0
C647 C 0.41458 0.89057 0.41976 0.0
C648 C 0.37734 0.91591 0.41558 0.0
H649 H 0.44109 0.84235 0.39698 0.0
H650 H 0.4449 0.89235 0.44435 0.0
C651 C 0.33818 0.91186 0.38359 0.0
C652 C 0.78905 0.7721 0.88892 0.0
C653 C 0.76342 0.77559 0.84716 0.0
H654 H 0.78368 0.77016 0.96056 0.0
C655 C 0.71156 0.77893 0.84564 0.0
H656 H 0.82921 0.76986 0.89044 0.0
C657 C 0.6858 0.77946 0.88532 0.0
C658 C 0.71169 0.77653 0.92688 0.0
H659 H 0.69135 0.78153 0.81363 0.0
H660 H 0.64578 0.78226 0.88364 0.0
C661 C 0.76333 0.77259 0.92861 0.0
loop_
_geom_bond_atom_site_label_1
_geom_bond_atom_site_label_2
_geom_bond_distance
_geom_bond_site_symmetry_2
_ccdc_geom_bond_type
C0 N1 1.317 . S
C0 N2 1.348 . S
C0 C3 1.485 . S
N1 C0 1.317 . S
N1 N5 1.370 . S
N2 C0 1.348 . S
N2 C4 1.346 . S
C3 C0 1.485 . S
C3 H7 0.960 . S
C3 H8 0.961 . S
C3 H9 0.960 . S
C4 N2 1.346 . S
C4 N5 1.307 . S
C4 C6 1.486 . S
N5 N1 1.370 . S
N5 C4 1.307 . S
C6 C4 1.486 . S
C6 H10 0.960 . S
C6 H11 0.960 . S
C6 H12 0.959 . S
H7 C3 0.960 . S
H8 C3 0.961 . S
H9 C3 0.960 . S
H10 C6 0.960 . S
H11 C6 0.960 . S
H12 C6 0.959 . S
C13 N14 1.317 . S
C13 N15 1.348 . S
C13 C16 1.485 . S
N14 C13 1.317 . S
N14 N18 1.370 . S
N15 C13 1.348 . S
N15 C17 1.346 . S
C16 C13 1.485 . S
C16 H20 0.960 . S
C16 H21 0.961 . S
C16 H22 0.960 . S
C17 N15 1.346 . S
C17 N18 1.307 . S
C17 C19 1.486 . S
N18 N14 1.370 . S
N18 C17 1.307 . S
C19 C17 1.486 . S
C19 H23 0.960 . S
C19 H24 0.960 . S
C19 H25 0.959 . S
H20 C16 0.960 . S
H21 C16 0.961 . S
H22 C16 0.960 . S
H23 C19 0.960 . S
H24 C19 0.960 . S
H25 C19 0.959 . S
C26 N27 1.317 . S
C26 N28 1.348 . S
C26 C29 1.485 . S
N27 C26 1.317 . S
N27 N31 1.370 . S
N28 C26 1.348 . S
N28 C30 1.346 . S
C29 C26 1.485 . S
C29 H33 0.960 . S
C29 H34 0.953 1_655 S
C29 H35 0.960 1_655 S
C30 N28 1.346 . S
C30 N31 1.307 . S
C30 C32 1.486 . S
N31 N27 1.370 . S
N31 C30 1.307 . S
C32 C30 1.486 . S
C32 H36 0.960 . S
C32 H37 0.960 . S
C32 H38 0.959 . S
H33 C29 0.960 . S
H34 C29 0.953 1_455 S
H35 C29 0.960 1_455 S
H36 C32 0.960 . S
H37 C32 0.960 . S
H38 C32 0.959 . S
C39 N40 1.317 . S
C39 N41 1.348 . S
C39 C42 1.485 . S
N40 C39 1.317 . S
N40 N44 1.370 . S
N41 C39 1.348 . S
N41 C43 1.346 . S
C42 C39 1.485 . S
C42 H46 0.960 . S
C42 H47 0.961 . S
C42 H48 0.960 . S
C43 N41 1.346 . S
C43 N44 1.307 . S
C43 C45 1.486 . S
N44 N40 1.370 . S
N44 C43 1.307 . S
C45 C43 1.486 . S
C45 H49 0.960 . S
C45 H50 0.960 . S
C45 H51 0.959 . S
H46 C42 0.960 . S
H47 C42 0.961 . S
H48 C42 0.960 . S
H49 C45 0.960 . S
H50 C45 0.960 . S
H51 C45 0.959 . S
C52 N53 1.317 . S
C52 N54 1.348 . S
C52 C55 1.485 . S
N53 C52 1.317 . S
N53 N57 1.370 . S
N54 C52 1.348 . S
N54 C56 1.346 . S
C55 C52 1.485 . S
C55 H59 0.960 . S
C55 H60 0.961 . S
C55 H61 0.960 . S
C56 N54 1.346 . S
C56 N57 1.307 . S
C56 C58 1.486 . S
N57 N53 1.370 . S
N57 C56 1.307 . S
C58 C56 1.486 . S
C58 H62 0.960 . S
C58 H63 0.960 . S
C58 H64 0.959 . S
H59 C55 0.960 . S
H60 C55 0.961 . S
H61 C55 0.960 . S
H62 C58 0.960 . S
H63 C58 0.960 . S
H64 C58 0.959 . S
C65 N66 1.317 . S
C65 N67 1.348 . S
C65 C68 1.485 . S
N66 C65 1.317 . S
N66 N70 1.370 . S
N67 C65 1.348 . S
N67 C69 1.346 . S
C68 C65 1.485 . S
C68 H72 0.960 . S
C68 H73 0.961 . S
C68 H74 0.960 . S
C69 N67 1.346 . S
C69 N70 1.307 . S
C69 C71 1.486 . S
N70 N66 1.370 . S
N70 C69 1.307 . S
C71 C69 1.486 . S
C71 H75 0.960 . S
C71 H76 0.960 . S
C71 H77 0.959 . S
H72 C68 0.960 . S
H73 C68 0.961 . S
H74 C68 0.960 . S
H75 C71 0.960 . S
H76 C71 0.960 . S
H77 C71 0.959 . S
C78 N79 1.317 . S
C78 N80 1.348 . S
C78 C81 1.485 . S
N79 C78 1.317 . S
N79 N83 1.370 . S
N80 C78 1.348 . S
N80 C82 1.346 . S
C81 C78 1.485 . S
C81 H85 0.960 . S
C81 H86 0.961 . S
C81 H87 0.960 . S
C82 N80 1.346 . S
C82 N83 1.307 . S
C82 C84 1.486 . S
N83 N79 1.370 . S
N83 C82 1.307 . S
C84 C82 1.486 . S
C84 H88 0.960 . S
C84 H89 0.960 . S
C84 H90 0.959 . S
H85 C81 0.960 . S
H86 C81 0.961 . S
H87 C81 0.960 . S
H88 C84 0.960 . S
H89 C84 0.960 . S
H90 C84 0.959 . S
C91 N92 1.317 . S
C91 N93 1.348 . S
C91 C94 1.485 . S
N92 C91 1.317 . S
N92 N96 1.370 . S
N93 C91 1.348 . S
N93 C95 1.346 . S
C94 C91 1.485 . S
C94 H98 0.960 . S
C94 H99 0.961 . S
C94 H100 0.960 . S
C95 N93 1.346 . S
C95 N96 1.307 . S
C95 C97 1.486 . S
N96 N92 1.370 . S
N96 C95 1.307 . S
C97 C95 1.486 . S
C97 H101 0.960 . S
C97 H102 0.960 . S
C97 H103 0.959 . S
H98 C94 0.960 . S
H99 C94 0.961 . S
H100 C94 0.960 . S
H101 C97 0.960 . S
H102 C97 0.960 . S
H103 C97 0.959 . S
C104 C105 1.443 . S
C104 N108 1.376 . S
C104 C142 1.389 . S
C105 C104 1.443 . S
C105 C106 1.340 . S
C105 H145 0.951 . S
C106 C105 1.340 . S
C106 C107 1.439 . S
C106 H146 0.950 . S
C107 C106 1.439 . S
C107 N108 1.374 . S
C107 C141 1.395 . S
N108 C104 1.376 . S
N108 C107 1.374 . S
N108 Co109 2.008 . S
Co109 N108 2.008 . S
Co109 N110 1.995 . S
Co109 N115 2.008 . S
Co109 N120 1.995 . S
Co109 N125 2.282 . S
Co109 N131 2.282 . S
N110 Co109 1.995 . S
N110 C111 1.376 . S
N110 C114 1.383 . S
C111 N110 1.376 . S
C111 C112 1.446 . S
C111 C141 1.391 . S
C112 C111 1.446 . S
C112 C113 1.339 . S
C112 H147 0.949 . S
C113 C112 1.339 . S
C113 C114 1.439 . S
C113 H148 0.950 1_455 S
C114 N110 1.383 . S
C114 C113 1.439 . S
C114 C143 1.392 . S
N115 Co109 2.008 . S
N115 C116 1.376 . S
N115 C119 1.374 . S
C116 N115 1.376 . S
C116 C117 1.443 . S
C116 C143 1.389 . S
C117 C116 1.443 . S
C117 C118 1.340 . S
C117 H149 0.951 1_455 S
C118 C117 1.340 . S
C118 C119 1.439 . S
C118 H150 0.950 . S
C119 N115 1.374 . S
C119 C118 1.439 . S
C119 C144 1.395 . S
N120 Co109 1.995 . S
N120 C121 1.376 . S
N120 C124 1.383 . S
C121 N120 1.376 . S
C121 C122 1.446 . S
C121 C144 1.391 . S
C122 C121 1.446 . S
C122 C123 1.339 . S
C122 H151 0.949 . S
C123 C122 1.339 . S
C123 C124 1.439 . S
C123 H152 0.950 . S
C124 N120 1.383 . S
C124 C123 1.439 . S
C124 C142 1.392 . S
N125 Co109 2.282 . S
N125 C128 1.332 . S
N125 C130 1.332 . S
C126 C127 1.386 . S
C126 C129 1.388 . S
C127 C126 1.386 . S
C127 C128 1.382 . S
C127 H153 0.950 . S
C128 N125 1.332 . S
C128 C127 1.382 . S
C128 H139 0.952 . S
C129 C126 1.388 . S
C129 C130 1.382 . S
C129 H154 0.950 . S
C130 N125 1.332 . S
C130 C129 1.382 . S
C130 H140 0.948 . S
N131 Co109 2.282 . S
N131 C135 1.332 . S
N131 C136 1.332 . S
C132 C133 1.388 . S
C132 C136 1.382 . S
C132 H155 0.950 . S
C133 C132 1.388 . S
C133 C134 1.386 . S
C134 C133 1.386 . S
C134 C135 1.382 . S
C134 H156 0.952 . S
C135 N131 1.332 . S
C135 C134 1.382 . S
C135 H137 0.952 . S
C136 N131 1.332 . S
C136 C132 1.382 . S
C136 H138 0.948 . S
H137 C135 0.952 . S
H138 C136 0.948 . S
H139 C128 0.952 . S
H140 C130 0.948 . S
C141 C107 1.395 . S
C141 C111 1.391 . S
C142 C104 1.389 . S
C142 C124 1.392 . S
C143 C114 1.392 . S
C143 C116 1.389 . S
C144 C119 1.395 . S
C144 C121 1.391 . S
H145 C105 0.951 . S
H146 C106 0.950 . S
H147 C112 0.949 . S
H148 C113 0.950 1_655 S
H149 C117 0.951 1_655 S
H150 C118 0.950 . S
H151 C122 0.949 . S
H152 C123 0.950 . S
H153 C127 0.950 . S
H154 C129 0.950 . S
H155 C132 0.950 . S
H156 C134 0.952 . S
C157 C158 1.443 . S
C157 N161 1.376 . S
C157 C195 1.389 . S
C158 C157 1.443 . S
C158 C159 1.340 . S
C158 H198 0.951 . S
C159 C158 1.340 . S
C159 C160 1.439 . S
C159 H199 0.950 . S
C160 C159 1.439 . S
C160 N161 1.374 . S
C160 C194 1.395 . S
N161 C157 1.376 . S
N161 C160 1.374 . S
N161 Co162 2.008 . S
Co162 N161 2.008 . S
Co162 N163 1.995 1_455 S
Co162 N168 2.008 1_455 S
Co162 N173 1.995 . S
Co162 N178 2.282 . S
Co162 N184 2.282 1_455 S
N163 Co162 1.995 1_655 S
N163 C164 1.376 . S
N163 C167 1.383 . S
C164 N163 1.376 . S
C164 C165 1.446 . S
C164 C194 1.391 1_655 S
C165 C164 1.446 . S
C165 C166 1.339 . S
C165 H200 0.949 . S
C166 C165 1.339 . S
C166 C167 1.439 . S
C166 H201 0.950 . S
C167 N163 1.383 . S
C167 C166 1.439 . S
C167 C196 1.392 . S
N168 Co162 2.008 1_655 S
N168 C169 1.376 . S
N168 C172 1.374 . S
C169 N168 1.376 . S
C169 C170 1.443 . S
C169 C196 1.389 . S
C170 C169 1.443 . S
C170 C171 1.340 . S
C170 H202 0.951 . S
C171 C170 1.340 . S
C171 C172 1.439 . S
C171 H203 0.950 . S
C172 N168 1.374 . S
C172 C171 1.439 . S
C172 C197 1.395 1_655 S
N173 Co162 1.995 . S
N173 C174 1.376 . S
N173 C177 1.383 . S
C174 N173 1.376 . S
C174 C175 1.446 . S
C174 C197 1.391 . S
C175 C174 1.446 . S
C175 C176 1.339 . S
C175 H204 0.949 . S
C176 C175 1.339 . S
C176 C177 1.439 . S
C176 H205 0.950 . S
C177 N173 1.383 . S
C177 C176 1.439 . S
C177 C195 1.392 . S
N178 Co162 2.282 . S
N178 C181 1.332 . S
N178 C183 1.332 . S
C179 C180 1.386 . S
C179 C182 1.388 . S
C180 C179 1.386 . S
C180 C181 1.382 . S
C180 H206 0.950 . S
C181 N178 1.332 . S
C181 C180 1.382 . S
C181 H192 0.952 . S
C182 C179 1.388 . S
C182 C183 1.382 . S
C182 H207 0.950 . S
C183 N178 1.332 . S
C183 C182 1.382 . S
C183 H193 0.948 . S
N184 Co162 2.282 1_655 S
N184 C188 1.332 . S
N184 C189 1.332 . S
C185 C186 1.388 . S
C185 C189 1.382 . S
C185 H208 0.950 . S
C186 C185 1.388 . S
C186 C187 1.386 . S
C187 C186 1.386 . S
C187 C188 1.382 . S
C187 H209 0.950 . S
C188 N184 1.332 . S
C188 C187 1.382 . S
C188 H190 0.952 . S
C189 N184 1.332 . S
C189 C185 1.382 . S
C189 H191 0.948 . S
H190 C188 0.952 . S
H191 C189 0.948 . S
H192 C181 0.952 . S
H193 C183 0.948 . S
C194 C160 1.395 . S
C194 C164 1.391 1_455 S
C195 C157 1.389 . S
C195 C177 1.392 . S
C196 C167 1.392 . S
C196 C169 1.389 . S
C197 C172 1.395 1_455 S
C197 C174 1.391 . S
H198 C158 0.951 . S
H199 C159 0.950 . S
H200 C165 0.949 . S
H201 C166 0.950 . S
H202 C170 0.951 . S
H203 C171 0.950 . S
H204 C175 0.949 . S
H205 C176 0.950 . S
H206 C180 0.950 . S
H207 C182 0.950 . S
H208 C185 0.950 . S
H209 C187 0.950 . S
C210 C211 1.443 . S
C210 N214 1.376 1_565 S
C210 C248 1.389 . S
C211 C210 1.443 . S
C211 C212 1.340 . S
C211 H251 0.951 . S
C212 C211 1.340 . S
C212 C213 1.439 1_565 S
C212 H252 0.950 . S
C213 C212 1.439 1_545 S
C213 N214 1.374 . S
C213 C247 1.395 . S
N214 C210 1.376 1_545 S
N214 C213 1.374 . S
N214 Co215 2.008 . S
Co215 N214 2.008 . S
Co215 N216 1.995 . S
Co215 N221 2.008 . S
Co215 N226 1.995 1_545 S
Co215 N231 2.282 . S
Co215 N237 2.282 1_545 S
N216 Co215 1.995 . S
N216 C217 1.376 . S
N216 C220 1.383 . S
C217 N216 1.376 . S
C217 C218 1.446 . S
C217 C247 1.391 . S
C218 C217 1.446 . S
C218 C219 1.339 . S
C218 H253 0.949 . S
C219 C218 1.339 . S
C219 C220 1.439 . S
C219 H254 0.950 . S
C220 N216 1.383 . S
C220 C219 1.439 . S
C220 C249 1.392 . S
N221 Co215 2.008 . S
N221 C222 1.376 . S
N221 C225 1.374 . S
C222 N221 1.376 . S
C222 C223 1.443 . S
C222 C249 1.389 . S
C223 C222 1.443 . S
C223 C224 1.340 . S
C223 H255 0.951 . S
C224 C223 1.340 . S
C224 C225 1.439 . S
C224 H256 0.950 . S
C225 N221 1.374 . S
C225 C224 1.439 . S
C225 C250 1.395 . S
N226 Co215 1.995 1_565 S
N226 C227 1.376 . S
N226 C230 1.383 . S
C227 N226 1.376 . S
C227 C228 1.446 . S
C227 C250 1.391 1_565 S
C228 C227 1.446 . S
C228 C229 1.339 . S
C228 H257 0.949 . S
C229 C228 1.339 . S
C229 C230 1.439 . S
C229 H258 0.950 . S
C230 N226 1.383 . S
C230 C229 1.439 . S
C230 C248 1.392 . S
N231 Co215 2.282 . S
N231 C234 1.332 . S
N231 C236 1.332 . S
C232 C233 1.386 . S
C232 C235 1.388 . S
C233 C232 1.386 . S
C233 C234 1.382 . S
C233 H259 0.950 . S
C234 N231 1.332 . S
C234 C233 1.382 . S
C234 H245 0.952 . S
C235 C232 1.388 . S
C235 C236 1.382 . S
C235 H260 0.950 . S
C236 N231 1.332 . S
C236 C235 1.382 . S
C236 H246 0.948 . S
N237 Co215 2.282 1_565 S
N237 C241 1.332 . S
N237 C242 1.332 . S
C238 C239 1.388 . S
C238 C242 1.382 . S
C238 H261 0.950 . S
C239 C238 1.388 . S
C239 C240 1.386 . S
C240 C239 1.386 . S
C240 C241 1.382 . S
C240 H262 0.950 . S
C241 N237 1.332 . S
C241 C240 1.382 . S
C241 H243 0.952 1_565 S
C242 N237 1.332 . S
C242 C238 1.382 . S
C242 H244 0.948 . S
H243 C241 0.952 1_545 S
H244 C242 0.948 . S
H245 C234 0.952 . S
H246 C236 0.948 . S
C247 C213 1.395 . S
C247 C217 1.391 . S
C248 C210 1.389 . S
C248 C230 1.392 . S
C249 C220 1.392 . S
C249 C222 1.389 . S
C250 C225 1.395 . S
C250 C227 1.391 1_545 S
H251 C211 0.951 . S
H252 C212 0.950 . S
H253 C218 0.949 . S
H254 C219 0.950 . S
H255 C223 0.951 . S
H256 C224 0.950 . S
H257 C228 0.949 . S
H258 C229 0.950 . S
H259 C233 0.950 . S
H260 C235 0.950 . S
H261 C238 0.950 . S
H262 C240 0.950 . S
C263 C264 1.443 . S
C263 N267 1.376 . S
C263 C301 1.389 . S
C264 C263 1.443 . S
C264 C265 1.340 . S
C264 H304 0.951 . S
C265 C264 1.340 . S
C265 C266 1.439 . S
C265 H305 0.950 . S
C266 C265 1.439 . S
C266 N267 1.374 . S
C266 C300 1.395 . S
N267 C263 1.376 . S
N267 C266 1.374 . S
N267 Co268 2.008 . S
Co268 N267 2.008 . S
Co268 N269 1.995 . S
Co268 N274 2.008 . S
Co268 N279 1.995 . S
Co268 N284 2.282 . S
Co268 N290 2.282 . S
N269 Co268 1.995 . S
N269 C270 1.376 . S
N269 C273 1.383 1_554 S
C270 N269 1.376 . S
C270 C271 1.446 1_554 S
C270 C300 1.391 . S
C271 C270 1.446 1_556 S
C271 C272 1.339 . S
C271 H306 0.949 . S
C272 C271 1.339 . S
C272 C273 1.439 . S
C272 H307 0.950 . S
C273 N269 1.383 1_556 S
C273 C272 1.439 . S
C273 C302 1.392 . S
N274 Co268 2.008 . S
N274 C275 1.376 1_554 S
N274 C278 1.374 . S
C275 N274 1.376 1_556 S
C275 C276 1.443 . S
C275 C302 1.389 . S
C276 C275 1.443 . S
C276 C277 1.340 1_556 S
C276 H308 0.951 . S
C277 C276 1.340 1_554 S
C277 C278 1.439 . S
C277 H309 0.950 . S
C278 N274 1.374 . S
C278 C277 1.439 . S
C278 C303 1.395 . S
N279 Co268 1.995 . S
N279 C280 1.376 . S
N279 C283 1.383 . S
C280 N279 1.376 . S
C280 C281 1.446 . S
C280 C303 1.391 . S
C281 C280 1.446 . S
C281 C282 1.339 . S
C281 H310 0.949 . S
C282 C281 1.339 . S
C282 C283 1.439 . S
C282 H311 0.950 . S
C283 N279 1.383 . S
C283 C282 1.439 . S
C283 C301 1.392 . S
N284 Co268 2.282 . S
N284 C287 1.332 . S
N284 C289 1.332 1_554 S
C285 C286 1.386 . S
C285 C288 1.388 . S
C286 C285 1.386 . S
C286 C287 1.382 1_556 S
C286 H312 0.950 . S
C287 N284 1.332 . S
C287 C286 1.382 1_554 S
C287 H298 0.952 . S
C288 C285 1.388 . S
C288 C289 1.382 . S
C288 H313 0.950 . S
C289 N284 1.332 1_556 S
C289 C288 1.382 . S
C289 H299 0.948 . S
N290 Co268 2.282 . S
N290 C294 1.332 . S
N290 C295 1.332 . S
C291 C292 1.388 . S
C291 C295 1.382 . S
C291 H314 0.950 . S
C292 C291 1.388 . S
C292 C293 1.386 . S
C293 C292 1.386 . S
C293 C294 1.382 . S
C293 H315 0.950 . S
C294 N290 1.332 . S
C294 C293 1.382 . S
C294 H296 0.952 . S
C295 N290 1.332 . S
C295 C291 1.382 . S
C295 H297 0.948 . S
H296 C294 0.952 . S
H297 C295 0.948 . S
H298 C287 0.952 . S
H299 C289 0.948 . S
C300 C266 1.395 . S
C300 C270 1.391 . S
C301 C263 1.389 . S
C301 C283 1.392 . S
C302 C273 1.392 . S
C302 C275 1.389 . S
C303 C278 1.395 . S
C303 C280 1.391 . S
H304 C264 0.951 . S
H305 C265 0.950 . S
H306 C271 0.949 . S
H307 C272 0.950 . S
H308 C276 0.951 . S
H309 C277 0.950 . S
H310 C281 0.949 . S
H311 C282 0.950 . S
H312 C286 0.950 . S
H313 C288 0.950 . S
H314 C291 0.950 . S
H315 C293 0.950 . S
C316 C317 1.443 1_645 S
C316 N320 1.376 1_655 S
C316 C354 1.389 1_545 S
C317 C316 1.443 1_465 S
C317 C318 1.340 1_565 S
C317 H357 0.951 . S
C318 C317 1.340 1_545 S
C318 C319 1.439 . S
C318 H358 0.950 . S
C319 C318 1.439 . S
C319 N320 1.374 . S
C319 C353 1.395 . S
N320 C316 1.376 1_455 S
N320 C319 1.374 . S
N320 Co321 2.008 1_455 S
Co321 N320 2.008 1_655 S
Co321 N322 1.995 1_655 S
Co321 N327 2.008 . S
Co321 N332 1.995 . S
Co321 N337 2.282 . S
Co321 N343 2.282 . S
N322 Co321 1.995 1_455 S
N322 C323 1.376 . S
N322 C326 1.383 . S
C323 N322 1.376 . S
C323 C324 1.446 . S
C323 C353 1.391 . S
C324 C323 1.446 . S
C324 C325 1.339 . S
C324 H359 0.949 . S
C325 C324 1.339 . S
C325 C326 1.439 . S
C325 H360 0.950 . S
C326 N322 1.383 . S
C326 C325 1.439 . S
C326 C355 1.392 1_455 S
N327 Co321 2.008 . S
N327 C328 1.376 . S
N327 C331 1.374 . S
C328 N327 1.376 . S
C328 C329 1.443 . S
C328 C355 1.389 . S
C329 C328 1.443 . S
C329 C330 1.340 . S
C329 H361 0.951 . S
C330 C329 1.340 . S
C330 C331 1.439 . S
C330 H362 0.950 . S
C331 N327 1.374 . S
C331 C330 1.439 . S
C331 C356 1.395 . S
N332 Co321 1.995 . S
N332 C333 1.376 . S
N332 C336 1.383 1_545 S
C333 N332 1.376 . S
C333 C334 1.446 1_545 S
C333 C356 1.391 . S
C334 C333 1.446 1_565 S
C334 C335 1.339 . S
C334 H363 0.949 . S
C335 C334 1.339 . S
C335 C336 1.439 . S
C335 H364 0.950 . S
C336 N332 1.383 1_565 S
C336 C335 1.439 . S
C336 C354 1.392 . S
N337 Co321 2.282 . S
N337 C340 1.332 . S
N337 C342 1.332 . S
C338 C339 1.386 . S
C338 C341 1.388 . S
C339 C338 1.386 . S
C339 C340 1.382 . S
C339 H365 0.950 . S
C340 N337 1.332 . S
C340 C339 1.382 . S
C340 H351 0.952 . S
C341 C338 1.388 . S
C341 C342 1.382 . S
C341 H366 0.942 1_655 S
C342 N337 1.332 . S
C342 C341 1.382 . S
C342 H352 0.948 1_655 S
N343 Co321 2.282 . S
N343 C347 1.332 1_655 S
N343 C348 1.332 1_545 S
C344 C345 1.388 . S
C344 C348 1.382 . S
C344 H367 0.950 . S
C345 C344 1.388 . S
C345 C346 1.386 1_655 S
C346 C345 1.386 1_455 S
C346 C347 1.382 1_565 S
C346 H368 0.950 . S
C347 N343 1.332 1_455 S
C347 C346 1.382 1_545 S
C347 H349 0.952 . S
C348 N343 1.332 1_565 S
C348 C344 1.382 . S
C348 H350 0.948 . S
H349 C347 0.952 . S
H350 C348 0.948 . S
H351 C340 0.952 . S
H352 C342 0.948 1_455 S
C353 C319 1.395 . S
C353 C323 1.391 . S
C354 C316 1.389 1_565 S
C354 C336 1.392 . S
C355 C326 1.392 1_655 S
C355 C328 1.389 . S
C356 C331 1.395 . S
C356 C333 1.391 . S
H357 C317 0.951 . S
H358 C318 0.950 . S
H359 C324 0.949 . S
H360 C325 0.950 . S
H361 C329 0.951 . S
H362 C330 0.950 . S
H363 C334 0.949 . S
H364 C335 0.950 . S
H365 C339 0.950 . S
H366 C341 0.942 1_455 S
H367 C344 0.950 . S
H368 C346 0.950 . S
C369 C370 1.443 . S
C369 N373 1.376 . S
C369 C407 1.389 . S
C370 C369 1.443 . S
C370 C371 1.340 . S
C370 H410 0.951 . S
C371 C370 1.340 . S
C371 C372 1.439 . S
C371 H411 0.950 . S
C372 C371 1.439 . S
C372 N373 1.374 . S
C372 C406 1.395 . S
N373 C369 1.376 . S
N373 C372 1.374 . S
N373 Co374 2.008 . S
Co374 N373 2.008 . S
Co374 N375 1.995 1_554 S
Co374 N380 2.008 . S
Co374 N385 1.995 . S
Co374 N390 2.282 1_554 S
Co374 N396 2.282 . S
N375 Co374 1.995 1_556 S
N375 C376 1.376 . S
N375 C379 1.383 . S
C376 N375 1.376 . S
C376 C377 1.446 . S
C376 C406 1.391 1_556 S
C377 C376 1.446 . S
C377 C378 1.339 . S
C377 H412 0.949 . S
C378 C377 1.339 . S
C378 C379 1.439 . S
C378 H413 0.950 . S
C379 N375 1.383 . S
C379 C378 1.439 . S
C379 C408 1.392 . S
N380 Co374 2.008 . S
N380 C381 1.376 1_554 S
N380 C384 1.374 . S
C381 N380 1.376 1_556 S
C381 C382 1.443 . S
C381 C408 1.389 . S
C382 C381 1.443 . S
C382 C383 1.340 . S
C382 H414 0.951 . S
C383 C382 1.340 . S
C383 C384 1.439 1_556 S
C383 H415 0.950 . S
C384 N380 1.374 . S
C384 C383 1.439 1_554 S
C384 C409 1.395 . S
N385 Co374 1.995 . S
N385 C386 1.376 . S
N385 C389 1.383 . S
C386 N385 1.376 . S
C386 C387 1.446 . S
C386 C409 1.391 . S
C387 C386 1.446 . S
C387 C388 1.339 . S
C387 H416 0.949 . S
C388 C387 1.339 . S
C388 C389 1.439 . S
C388 H417 0.950 . S
C389 N385 1.383 . S
C389 C388 1.439 . S
C389 C407 1.392 . S
N390 Co374 2.282 1_556 S
N390 C393 1.332 . S
N390 C395 1.332 . S
C391 C392 1.386 . S
C391 C394 1.388 . S
C392 C391 1.386 . S
C392 C393 1.382 . S
C392 H418 0.950 . S
C393 N390 1.332 . S
C393 C392 1.382 . S
C393 H404 0.952 1_556 S
C394 C391 1.388 . S
C394 C395 1.382 . S
C394 H419 0.950 . S
C395 N390 1.332 . S
C395 C394 1.382 . S
C395 H405 0.948 . S
N396 Co374 2.282 . S
N396 C400 1.332 . S
N396 C401 1.332 . S
C397 C398 1.388 . S
C397 C401 1.382 . S
C397 H420 0.950 . S
C398 C397 1.388 . S
C398 C399 1.386 . S
C399 C398 1.386 . S
C399 C400 1.382 . S
C399 H421 0.950 . S
C400 N396 1.332 . S
C400 C399 1.382 . S
C400 H402 0.952 . S
C401 N396 1.332 . S
C401 C397 1.382 . S
C401 H403 0.948 . S
H402 C400 0.952 . S
H403 C401 0.948 . S
H404 C393 0.952 1_554 S
H405 C395 0.948 . S
C406 C372 1.395 . S
C406 C376 1.391 1_554 S
C407 C369 1.389 . S
C407 C389 1.392 . S
C408 C379 1.392 . S
C408 C381 1.389 . S
C409 C384 1.395 . S
C409 C386 1.391 . S
H410 C370 0.951 . S
H411 C371 0.950 . S
H412 C377 0.949 . S
H413 C378 0.950 . S
H414 C382 0.951 . S
H415 C383 0.950 . S
H416 C387 0.949 . S
H417 C388 0.950 . S
H418 C392 0.950 . S
H419 C394 0.950 . S
H420 C397 0.950 . S
H421 C399 0.950 . S
C422 C423 1.387 . S
C422 H426 0.950 . S
C422 C431 1.390 . S
C423 C422 1.387 . S
C423 C425 1.387 . S
H424 C431 0.950 . S
C425 C423 1.387 . S
C425 C427 1.390 . S
C425 H429 0.950 . S
H426 C422 0.950 . S
C427 C425 1.390 . S
C427 C428 1.387 . S
C427 H430 0.950 . S
C428 C427 1.387 . S
C428 C431 1.387 . S
H429 C425 0.950 . S
H430 C427 0.950 . S
C431 C422 1.390 . S
C431 H424 0.950 . S
C431 C428 1.387 . S
C432 C433 1.387 . S
C432 H436 0.950 . S
C432 C441 1.390 . S
C433 C432 1.387 . S
C433 C435 1.387 . S
H434 C441 0.950 . S
C435 C433 1.387 . S
C435 C437 1.390 . S
C435 H439 0.950 . S
H436 C432 0.950 . S
C437 C435 1.390 . S
C437 C438 1.387 . S
C437 H440 0.950 . S
C438 C437 1.387 . S
C438 C441 1.387 . S
H439 C435 0.950 . S
H440 C437 0.950 . S
C441 C432 1.390 . S
C441 H434 0.950 . S
C441 C438 1.387 . S
C442 C443 1.387 . S
C442 H446 0.950 . S
C442 C451 1.390 . S
C443 C442 1.387 . S
C443 C445 1.387 . S
H444 C451 0.950 . S
C445 C443 1.387 . S
C445 C447 1.390 . S
C445 H449 0.950 . S
H446 C442 0.950 . S
C447 C445 1.390 . S
C447 C448 1.387 . S
C447 H450 0.950 . S
C448 C447 1.387 . S
C448 C451 1.387 . S
H449 C445 0.950 . S
H450 C447 0.950 . S
C451 C442 1.390 . S
C451 H444 0.950 . S
C451 C448 1.387 . S
C452 C453 1.387 . S
C452 H456 0.950 . S
C452 C461 1.390 . S
C453 C452 1.387 . S
C453 C455 1.387 . S
H454 C461 0.950 . S
C455 C453 1.387 . S
C455 C457 1.390 . S
C455 H459 0.950 . S
H456 C452 0.950 . S
C457 C455 1.390 . S
C457 C458 1.387 . S
C457 H460 0.950 . S
C458 C457 1.387 . S
C458 C461 1.387 . S
H459 C455 0.950 . S
H460 C457 0.950 . S
C461 C452 1.390 . S
C461 H454 0.950 . S
C461 C458 1.387 . S
C462 C463 1.387 . S
C462 H466 0.950 . S
C462 C471 1.390 . S
C463 C462 1.387 . S
C463 C465 1.387 . S
H464 C471 0.950 . S
C465 C463 1.387 . S
C465 C467 1.390 . S
C465 H469 0.950 . S
H466 C462 0.950 . S
C467 C465 1.390 . S
C467 C468 1.387 . S
C467 H470 0.950 . S
C468 C467 1.387 . S
C468 C471 1.387 . S
H469 C465 0.950 . S
H470 C467 0.950 . S
C471 C462 1.390 . S
C471 H464 0.950 . S
C471 C468 1.387 . S
C472 C473 1.387 . S
C472 H476 0.950 . S
C472 C481 1.390 . S
C473 C472 1.387 . S
C473 C475 1.387 . S
H474 C481 0.950 . S
C475 C473 1.387 . S
C475 C477 1.390 . S
C475 H479 0.950 . S
H476 C472 0.950 . S
C477 C475 1.390 . S
C477 C478 1.387 . S
C477 H480 0.950 . S
C478 C477 1.387 . S
C478 C481 1.387 . S
H479 C475 0.950 . S
H480 C477 0.950 . S
C481 C472 1.390 . S
C481 H474 0.950 . S
C481 C478 1.387 . S
C482 C483 1.387 . S
C482 H486 0.950 . S
C482 C491 1.390 . S
C483 C482 1.387 . S
C483 C485 1.387 . S
H484 C491 0.950 . S
C485 C483 1.387 . S
C485 C487 1.390 . S
C485 H489 0.950 . S
H486 C482 0.950 . S
C487 C485 1.390 . S
C487 C488 1.387 . S
C487 H490 0.950 . S
C488 C487 1.387 . S
C488 C491 1.387 . S
H489 C485 0.950 . S
H490 C487 0.950 . S
C491 C482 1.390 . S
C491 H484 0.950 . S
C491 C488 1.387 . S
C492 C493 1.387 . S
C492 H496 0.950 . S
C492 C501 1.390 . S
C493 C492 1.387 . S
C493 C495 1.387 . S
H494 C501 0.950 . S
C495 C493 1.387 . S
C495 C497 1.390 . S
C495 H499 0.950 . S
H496 C492 0.950 . S
C497 C495 1.390 . S
C497 C498 1.387 . S
C497 H500 0.950 . S
C498 C497 1.387 . S
C498 C501 1.387 . S
H499 C495 0.950 . S
H500 C497 0.950 . S
C501 C492 1.390 . S
C501 H494 0.950 . S
C501 C498 1.387 . S
C502 C503 1.387 . S
C502 H506 0.950 . S
C502 C511 1.390 . S
C503 C502 1.387 . S
C503 C505 1.387 . S
H504 C511 0.950 . S
C505 C503 1.387 . S
C505 C507 1.390 . S
C505 H509 0.950 . S
H506 C502 0.950 . S
C507 C505 1.390 . S
C507 C508 1.387 . S
C507 H510 0.950 . S
C508 C507 1.387 . S
C508 C511 1.387 . S
H509 C505 0.950 . S
H510 C507 0.950 . S
C511 C502 1.390 . S
C511 H504 0.950 . S
C511 C508 1.387 . S
C512 C513 1.387 . S
C512 H516 0.950 . S
C512 C521 1.390 . S
C513 C512 1.387 . S
C513 C515 1.387 . S
H514 C521 0.950 . S
C515 C513 1.387 . S
C515 C517 1.390 . S
C515 H519 0.950 . S
H516 C512 0.950 . S
C517 C515 1.390 . S
C517 C518 1.387 . S
C517 H520 0.950 . S
C518 C517 1.387 . S
C518 C521 1.387 . S
H519 C515 0.950 . S
H520 C517 0.950 . S
C521 C512 1.390 . S
C521 H514 0.950 . S
C521 C518 1.387 . S
C522 C523 1.387 . S
C522 H526 0.950 . S
C522 C531 1.390 . S
C523 C522 1.387 . S
C523 C525 1.387 . S
H524 C531 0.950 . S
C525 C523 1.387 . S
C525 C527 1.390 . S
C525 H529 0.950 . S
H526 C522 0.950 . S
C527 C525 1.390 . S
C527 C528 1.387 . S
C527 H530 0.950 . S
C528 C527 1.387 . S
C528 C531 1.387 . S
H529 C525 0.950 . S
H530 C527 0.950 . S
C531 C522 1.390 . S
C531 H524 0.950 . S
C531 C528 1.387 . S
C532 C533 1.387 . S
C532 H536 0.950 . S
C532 C541 1.390 . S
C533 C532 1.387 . S
C533 C535 1.387 . S
H534 C541 0.950 . S
C535 C533 1.387 . S
C535 C537 1.390 . S
C535 H539 0.950 . S
H536 C532 0.950 . S
C537 C535 1.390 . S
C537 C538 1.387 . S
C537 H540 0.950 . S
C538 C537 1.387 . S
C538 C541 1.387 . S
H539 C535 0.950 . S
H540 C537 0.950 . S
C541 C532 1.390 . S
C541 H534 0.950 . S
C541 C538 1.387 . S
C542 C543 1.387 . S
C542 H546 0.950 . S
C542 C551 1.390 . S
C543 C542 1.387 . S
C543 C545 1.387 . S
H544 C551 0.950 . S
C545 C543 1.387 . S
C545 C547 1.390 . S
C545 H549 0.950 . S
H546 C542 0.950 . S
C547 C545 1.390 . S
C547 C548 1.387 . S
C547 H550 0.950 . S
C548 C547 1.387 . S
C548 C551 1.387 . S
H549 C545 0.950 . S
H550 C547 0.950 . S
C551 C542 1.390 . S
C551 H544 0.950 . S
C551 C548 1.387 . S
C552 C553 1.387 . S
C552 H556 0.950 . S
C552 C561 1.390 . S
C553 C552 1.387 . S
C553 C555 1.387 . S
H554 C561 0.950 . S
C555 C553 1.387 . S
C555 C557 1.390 . S
C555 H559 0.950 . S
H556 C552 0.950 . S
C557 C555 1.390 . S
C557 C558 1.387 . S
C557 H560 0.950 . S
C558 C557 1.387 . S
C558 C561 1.387 . S
H559 C555 0.950 . S
H560 C557 0.950 . S
C561 C552 1.390 . S
C561 H554 0.950 . S
C561 C558 1.387 . S
C562 C563 1.387 . S
C562 H566 0.950 . S
C562 C571 1.390 . S
C563 C562 1.387 . S
C563 C565 1.387 . S
H564 C571 0.950 . S
C565 C563 1.387 . S
C565 C567 1.390 . S
C565 H569 0.950 . S
H566 C562 0.950 . S
C567 C565 1.390 . S
C567 C568 1.387 . S
C567 H570 0.950 . S
C568 C567 1.387 . S
C568 C571 1.387 . S
H569 C565 0.950 . S
H570 C567 0.950 . S
C571 C562 1.390 . S
C571 H564 0.950 . S
C571 C568 1.387 . S
C572 C573 1.387 . S
C572 H576 0.950 . S
C572 C581 1.390 . S
C573 C572 1.387 . S
C573 C575 1.387 . S
H574 C581 0.950 . S
C575 C573 1.387 . S
C575 C577 1.390 . S
C575 H579 0.950 . S
H576 C572 0.950 . S
C577 C575 1.390 . S
C577 C578 1.387 . S
C577 H580 0.950 . S
C578 C577 1.387 . S
C578 C581 1.387 . S
H579 C575 0.950 . S
H580 C577 0.950 . S
C581 C572 1.390 . S
C581 H574 0.950 . S
C581 C578 1.387 . S
C582 C583 1.387 . S
C582 H586 0.950 . S
C582 C591 1.390 . S
C583 C582 1.387 . S
C583 C585 1.387 . S
H584 C591 0.950 . S
C585 C583 1.387 . S
C585 C587 1.390 . S
C585 H589 0.950 . S
H586 C582 0.950 . S
C587 C585 1.390 . S
C587 C588 1.387 . S
C587 H590 0.950 . S
C588 C587 1.387 . S
C588 C591 1.387 . S
H589 C585 0.950 . S
H590 C587 0.950 . S
C591 C582 1.390 . S
C591 H584 0.950 . S
C591 C588 1.387 . S
C592 C593 1.387 . S
C592 H596 0.950 . S
C592 C601 1.390 . S
C593 C592 1.387 . S
C593 C595 1.387 . S
H594 C601 0.950 . S
C595 C593 1.387 . S
C595 C597 1.390 . S
C595 H599 0.950 . S
H596 C592 0.950 . S
C597 C595 1.390 . S
C597 C598 1.387 . S
C597 H600 0.950 . S
C598 C597 1.387 . S
C598 C601 1.387 . S
H599 C595 0.950 . S
H600 C597 0.950 . S
C601 C592 1.390 . S
C601 H594 0.950 . S
C601 C598 1.387 . S
C602 C603 1.387 . S
C602 H606 0.950 . S
C602 C611 1.390 . S
C603 C602 1.387 . S
C603 C605 1.387 . S
H604 C611 0.950 . S
C605 C603 1.387 . S
C605 C607 1.390 . S
C605 H609 0.950 . S
H606 C602 0.950 . S
C607 C605 1.390 . S
C607 C608 1.387 . S
C607 H610 0.950 . S
C608 C607 1.387 . S
C608 C611 1.387 . S
H609 C605 0.950 . S
H610 C607 0.950 . S
C611 C602 1.390 . S
C611 H604 0.950 . S
C611 C608 1.387 . S
C612 C613 1.387 . S
C612 H616 0.950 . S
C612 C621 1.390 . S
C613 C612 1.387 . S
C613 C615 1.387 . S
H614 C621 0.950 . S
C615 C613 1.387 . S
C615 C617 1.390 . S
C615 H619 0.950 . S
H616 C612 0.950 . S
C617 C615 1.390 . S
C617 C618 1.387 . S
C617 H620 0.950 . S
C618 C617 1.387 . S
C618 C621 1.387 . S
H619 C615 0.950 . S
H620 C617 0.950 . S
C621 C612 1.390 . S
C621 H614 0.950 . S
C621 C618 1.387 . S
C622 C623 1.387 . S
C622 H626 0.950 . S
C622 C631 1.390 . S
C623 C622 1.387 . S
C623 C625 1.387 . S
H624 C631 0.950 . S
C625 C623 1.387 . S
C625 C627 1.390 . S
C625 H629 0.950 . S
H626 C622 0.950 . S
C627 C625 1.390 . S
C627 C628 1.387 . S
C627 H630 0.950 . S
C628 C627 1.387 . S
C628 C631 1.387 . S
H629 C625 0.950 . S
H630 C627 0.950 . S
C631 C622 1.390 . S
C631 H624 0.950 . S
C631 C628 1.387 . S
C632 C633 1.387 . S
C632 H636 0.950 . S
C632 C641 1.390 . S
C633 C632 1.387 . S
C633 C635 1.387 . S
H634 C641 0.950 . S
C635 C633 1.387 . S
C635 C637 1.390 . S
C635 H639 0.950 . S
H636 C632 0.950 . S
C637 C635 1.390 . S
C637 C638 1.387 . S
C637 H640 0.950 . S
C638 C637 1.387 . S
C638 C641 1.387 . S
H639 C635 0.950 . S
H640 C637 0.950 . S
C641 C632 1.390 . S
C641 H634 0.950 . S
C641 C638 1.387 . S
C642 C643 1.387 . S
C642 H646 0.950 . S
C642 C651 1.390 . S
C643 C642 1.387 . S
C643 C645 1.387 . S
H644 C651 0.950 . S
C645 C643 1.387 . S
C645 C647 1.390 . S
C645 H649 0.950 . S
H646 C642 0.950 . S
C647 C645 1.390 . S
C647 C648 1.387 . S
C647 H650 0.950 . S
C648 C647 1.387 . S
C648 C651 1.387 . S
H649 C645 0.950 . S
H650 C647 0.950 . S
C651 C642 1.390 . S
C651 H644 0.950 . S
C651 C648 1.387 . S
C652 C653 1.387 . S
C652 H656 0.950 . S
C652 C661 1.390 . S
C653 C652 1.387 . S
C653 C655 1.387 . S
H654 C661 0.950 . S
C655 C653 1.387 . S
C655 C657 1.390 . S
C655 H659 0.950 . S
H656 C652 0.950 . S
C657 C655 1.390 . S
C657 C658 1.387 . S
C657 H660 0.950 . S
C658 C657 1.387 . S
C658 C661 1.387 . S
H659 C655 0.950 . S
H660 C657 0.950 . S
C661 C652 1.390 . S
C661 H654 0.950 . S
C661 C658 1.387 . S
C428 C126 1.417 . S
C423 N2 1.420 . S
C438 C195 1.628 . S
C433 N15 1.667 . S
C448 C133 1.533 1_655 S
C443 N27 1.525 . S
C458 C196 1.777 . S
C453 N44 1.824 . S
C468 C249 1.681 . S
C463 N1 1.721 . S
C478 C285 1.693 . S
C473 N18 1.674 . S
C483 N28 1.747 . S
C488 C345 1.688 . S
C498 C408 1.646 . S
C493 N41 1.655 . S
C508 C248 1.651 . S
C503 N14 1.684 . S
C513 N31 1.649 . S
C518 C292 1.642 . S
C528 C338 1.880 . S
C523 N40 1.899 . S
C538 C407 1.702 . S
C533 N5 1.743 . S
C543 N53 1.902 . S
C548 C186 1.846 . S
C558 C143 1.595 1_655 S
C553 N70 1.574 . S
C563 N80 1.701 . S
C568 C179 1.652 . S
C573 N92 1.582 . S
C578 C142 1.581 . S
C588 C354 1.877 . S
C583 N57 1.918 . S
C598 C398 1.589 . S
C593 N67 1.602 . S
C608 C232 1.735 . S
C603 N83 1.771 . S
C613 N96 1.623 . S
C618 C301 1.616 . S
C628 C355 1.714 . S
C623 N66 1.798 . S
C638 C391 1.625 . S
C633 N79 1.666 . S
C648 C239 1.652 . S
C643 N93 1.697 . S
C653 N54 1.486 . S
C658 C302 1.484 . S
