# Generated by pormake.
# Topology pyr, (3,6)-cn, num edge types: 1
# Building blocks:
#     Node 0, Type 0, BuildingBlock: PAMTOO_clean_linker_0, # of connection points: 3
#     Node 1, Type 0, BuildingBlock: PAMTOO_clean_linker_0, # of connection points: 3
#     Node 2, Type 0, BuildingBlock: PAMTOO_clean_linker_0, # of connection points: 3
#     Node 3, Type 0, BuildingBlock: PAMTOO_clean_linker_0, # of connection points: 3
#     Node 4, Type 0, BuildingBlock: PAMTOO_clean_linker_0, # of connection points: 3
#     Node 5, Type 0, BuildingBlock: PAMTOO_clean_linker_0, # of connection points: 3
#     Node 6, Type 0, BuildingBlock: PAMTOO_clean_linker_0, # of connection points: 3
#     Node 7, Type 0, BuildingBlock: PAMTOO_clean_linker_0, # of connection points: 3
#     Node 8, Type 1, BuildingBlock: GEDQOX_clean_sbu_0, # of connection points: 6
#     Node 9, Type 1, BuildingBlock: GEDQOX_clean_sbu_0, # of connection points: 6
#     Node 10, Type 1, BuildingBlock: GEDQOX_clean_sbu_0, # of connection points: 6
#     Node 11, Type 1, BuildingBlock: GEDQOX_clean_sbu_0, # of connection points: 6
#     Edge 12, Type (0, 1), BuildingBlock: ZUJKAS_clean_linker_0, # of connection points: 2
#     Edge 13, Type (0, 1), BuildingBlock: ZUJKAS_clean_linker_0, # of connection points: 2
#     Edge 14, Type (0, 1), BuildingBlock: ZUJKAS_clean_linker_0, # of connection points: 2
#     Edge 15, Type (0, 1), BuildingBlock: ZUJKAS_clean_linker_0, # of connection points: 2
#     Edge 16, Type (0, 1), BuildingBlock: ZUJKAS_clean_linker_0, # of connection points: 2
#     Edge 17, Type (0, 1), BuildingBlock: ZUJKAS_clean_linker_0, # of connection points: 2
#     Edge 18, Type (0, 1), BuildingBlock: ZUJKAS_clean_linker_0, # of connection points: 2
#     Edge 19, Type (0, 1), BuildingBlock: ZUJKAS_clean_linker_0, # of connection points: 2
#     Edge 20, Type (0, 1), BuildingBlock: ZUJKAS_clean_linker_0, # of connection points: 2
#     Edge 21, Type (0, 1), BuildingBlock: ZUJKAS_clean_linker_0, # of connection points: 2
#     Edge 22, Type (0, 1), BuildingBlock: ZUJKAS_clean_linker_0, # of connection points: 2
#     Edge 23, Type (0, 1), BuildingBlock: ZUJKAS_clean_linker_0, # of connection points: 2
#     Edge 24, Type (0, 1), BuildingBlock: ZUJKAS_clean_linker_0, # of connection points: 2
#     Edge 25, Type (0, 1), BuildingBlock: ZUJKAS_clean_linker_0, # of connection points: 2
#     Edge 26, Type (0, 1), BuildingBlock: ZUJKAS_clean_linker_0, # of connection points: 2
#     Edge 27, Type (0, 1), BuildingBlock: ZUJKAS_clean_linker_0, # of connection points: 2
#     Edge 28, Type (0, 1), BuildingBlock: ZUJKAS_clean_linker_0, # of connection points: 2
#     Edge 29, Type (0, 1), BuildingBlock: ZUJKAS_clean_linker_0, # of connection points: 2
#     Edge 30, Type (0, 1), BuildingBlock: ZUJKAS_clean_linker_0, # of connection points: 2
#     Edge 31, Type (0, 1), BuildingBlock: ZUJKAS_clean_linker_0, # of connection points: 2
#     Edge 32, Type (0, 1), BuildingBlock: ZUJKAS_clean_linker_0, # of connection points: 2
#     Edge 33, Type (0, 1), BuildingBlock: ZUJKAS_clean_linker_0, # of connection points: 2
#     Edge 34, Type (0, 1), BuildingBlock: ZUJKAS_clean_linker_0, # of connection points: 2
#     Edge 35, Type (0, 1), BuildingBlock: ZUJKAS_clean_linker_0, # of connection points: 2
# Relax obj value: 0.136
# Max RMSD: 0.230
# Mean RMSD: 0.148
data_MOF--net-pyr--node1-GEDQOX_clean_sbu_0--node2-PAMTOO_clean_linker_0--edge1-ZUJKAS_clean_linker_0
_symmetry_space_group_name_H-M    P1
_symmetry_Int_Tables_number       1
_symmetry_cell_setting            triclinic
loop_
_symmetry_equiv_pos_as_xyz
'x, y, z'
_cell_length_a     49.562819
_cell_length_b     51.173327
_cell_length_c     45.123996
_cell_angle_alpha  87.137981
_cell_angle_beta   91.977935
_cell_angle_gamma 91.60217
loop_
_atom_site_label
_atom_site_type_symbol
_atom_site_fract_x
_atom_site_fract_y
_atom_site_fract_z
_atom_type_partial_charge
H0 H 0.18526 0.20542 0.22301 0.0
H1 H 0.24551 0.14595 0.22491 0.0
H2 H 0.24716 0.20849 0.15787 0.0
H3 H 0.26307 0.15204 0.14047 0.0
C4 C 0.27572 0.14704 0.16069 0.0
O5 O 0.27349 0.16709 0.18054 0.0
H6 H 0.26694 0.12865 0.17089 0.0
C7 C 0.20229 0.19675 0.2133 0.0
C8 C 0.21389 0.20989 0.18803 0.0
C9 C 0.21289 0.17341 0.22711 0.0
C10 C 0.23662 0.16354 0.21509 0.0
C11 C 0.24925 0.17603 0.19018 0.0
C12 C 0.23755 0.19904 0.17689 0.0
H13 H 0.37449 0.82453 0.78804 0.0
H14 H 0.38919 0.77096 0.72001 0.0
H15 H 0.44989 0.78464 0.78764 0.0
H16 H 0.47252 0.78105 0.72954 0.0
C17 C 0.45551 0.77041 0.71827 0.0
O18 O 0.43798 0.76029 0.73927 0.0
H19 H 0.44507 0.78464 0.70262 0.0
C20 C 0.38731 0.81059 0.77846 0.0
C21 C 0.41302 0.80582 0.79144 0.0
C22 C 0.37842 0.7982 0.75262 0.0
C23 C 0.39548 0.78062 0.74003 0.0
C24 C 0.42109 0.77581 0.75274 0.0
C25 C 0.42971 0.7881 0.77853 0.0
H26 H 0.75535 0.39045 0.94389 0.0
H27 H 0.69583 0.41045 0.87522 0.0
H28 H 0.76722 0.45844 0.885 0.0
H29 H 0.7158 0.48964 0.86391 0.0
C30 C 0.70462 0.47195 0.85621 0.0
O31 O 0.72222 0.45174 0.85476 0.0
H32 H 0.68846 0.46671 0.87219 0.0
C33 C 0.74837 0.40328 0.92554 0.0
C34 C 0.76447 0.42504 0.91637 0.0
C35 C 0.72348 0.39778 0.91098 0.0
C36 C 0.71452 0.41469 0.88745 0.0
C37 C 0.73012 0.43671 0.87867 0.0
C38 C 0.75492 0.44192 0.89306 0.0
H39 H 0.90786 0.77971 0.33936 0.0
H40 H 0.9115 0.75378 0.25041 0.0
H41 H 0.94326 0.82969 0.27062 0.0
H42 H 0.92336 0.8182 0.19025 0.0
C43 C 0.91404 0.80415 0.2067 0.0
O44 O 0.93318 0.79758 0.2286 0.0
H45 H 0.89675 0.81415 0.21598 0.0
C46 C 0.91404 0.78302 0.31666 0.0
C47 C 0.92712 0.80681 0.30808 0.0
C48 C 0.90824 0.76369 0.29611 0.0
C49 C 0.91529 0.76859 0.26647 0.0
C50 C 0.92703 0.79274 0.25732 0.0
C51 C 0.93311 0.81164 0.27803 0.0
H52 H 0.85686 0.89998 0.85472 0.0
H53 H 0.85659 0.83966 0.92543 0.0
H54 H 0.91881 0.84214 0.86168 0.0
H55 H 0.89993 0.78862 0.87809 0.0
C56 C 0.89618 0.79043 0.90205 0.0
O57 O 0.90071 0.81658 0.90919 0.0
H58 H 0.87447 0.78525 0.90505 0.0
C59 C 0.86587 0.8832 0.86623 0.0
C60 C 0.88957 0.87292 0.85453 0.0
C61 C 0.8532 0.87174 0.89193 0.0
C62 C 0.865 0.84874 0.90552 0.0
C63 C 0.88843 0.8377 0.89442 0.0
C64 C 0.90042 0.85013 0.86925 0.0
H65 H 0.77452 0.21651 0.25673 0.0
H66 H 0.70313 0.26264 0.24647 0.0
H67 H 0.76712 0.28575 0.30632 0.0
H68 H 0.70775 0.2761 0.32484 0.0
C69 C 0.70074 0.29177 0.30853 0.0
O70 O 0.71868 0.29587 0.28594 0.0
H71 H 0.68089 0.28511 0.29898 0.0
C72 C 0.76341 0.2335 0.26205 0.0
C73 C 0.77434 0.25062 0.2831 0.0
C74 C 0.73784 0.23772 0.24838 0.0
C75 C 0.72323 0.25942 0.25593 0.0
C76 C 0.73377 0.27635 0.27703 0.0
C77 C 0.75933 0.27223 0.29018 0.0
H78 H 0.35611 0.64953 0.10892 0.0
H79 H 0.35132 0.5922 0.18212 0.0
H80 H 0.41874 0.64595 0.17761 0.0
H81 H 0.42493 0.58555 0.18992 0.0
C82 C 0.41287 0.58619 0.21027 0.0
O83 O 0.39616 0.60734 0.20821 0.0
H84 H 0.40039 0.56786 0.2124 0.0
C85 C 0.36468 0.6404 0.12917 0.0
C86 C 0.38916 0.65024 0.14135 0.0
C87 C 0.35086 0.61932 0.14365 0.0
C88 C 0.36195 0.60799 0.17015 0.0
C89 C 0.38634 0.61758 0.18211 0.0
C90 C 0.39991 0.6386 0.16784 0.0
H91 H 0.21111 0.23946 0.78282 0.0
H92 H 0.27147 0.29938 0.76356 0.0
H93 H 0.24579 0.24769 0.69609 0.0
H94 H 0.30521 0.26295 0.69399 0.0
C95 C 0.30392 0.28106 0.70647 0.0
O96 O 0.27723 0.28723 0.70883 0.0
H97 H 0.31361 0.27734 0.72887 0.0
C98 C 0.22485 0.24908 0.76733 0.0
C99 C 0.2266 0.24022 0.73838 0.0
C100 C 0.24113 0.27026 0.7766 0.0
C101 C 0.2592 0.28267 0.75689 0.0
C102 C 0.26083 0.27429 0.7281 0.0
C103 C 0.24463 0.25329 0.71884 0.0
Nd104 Nd 0.07318 1.00288 0.5441 0.0
Nd105 Nd 0.03202 0.04406 0.54147 0.0
C106 C 0.10623 0.96415 0.53753 0.0
C107 C 0.12148 0.94537 0.55662 0.0
C108 C 0.13217 0.92348 0.54433 0.0
C109 C 0.1485 0.90653 0.56174 0.0
C110 C 0.15449 0.91129 0.59174 0.0
C111 C 0.14298 0.93289 0.60417 0.0
C112 C 0.12656 0.94976 0.58676 0.0
C113 C 0.08213 0.03964 0.58584 0.0
C114 C 1.02646 0.99843 0.59428 0.0
C115 C 1.00257 0.08658 0.53989 0.0
C116 C 0.9961 0.10929 0.52012 0.0
C117 C 1.01156 0.11622 0.49534 0.0
C118 C 1.00241 0.13519 0.47419 0.0
C119 C 0.97756 0.14731 0.47745 0.0
C120 C 0.9629 0.141 0.50313 0.0
C121 C 0.97213 0.12221 0.52423 0.0
C122 C 1.0161 0.99879 0.51479 0.0
C123 C 0.07796 0.04893 0.48939 0.0
O124 O 0.07989 0.96102 0.53674 0.0
O125 O 0.11426 0.98866 0.53886 0.0
O126 O 0.08586 1.01488 0.59119 0.0
O127 O 0.07489 0.04426 0.55915 0.0
O128 O 0.04131 0.98465 0.57701 0.0
O129 O 1.02375 0.02385 0.58794 0.0
O130 O 1.02685 0.08559 0.55212 0.0
O131 O 0.99383 0.06408 0.53051 0.0
O132 O 1.00085 1.01082 0.53216 0.0
O133 O 0.03854 1.01053 0.51221 0.0
O134 O 0.05542 0.05846 0.49917 0.0
O135 O 0.08877 0.02798 0.50311 0.0
H136 H 0.1283 0.91977 0.52111 0.0
H137 H 0.15668 0.88984 0.55161 0.0
H138 H 0.14741 0.93733 0.62707 0.0
H139 H 0.11841 0.96661 0.5966 0.0
H140 H 1.03011 0.10633 0.49179 0.0
H141 H 1.01438 0.13979 0.4549 0.0
H142 H 0.94348 0.14945 0.50623 0.0
H143 H 0.95983 0.11687 0.5431 0.0
Nd144 Nd 0.57037 0.99694 0.05723 0.0
Nd145 Nd 0.56672 0.02963 1.00781 0.0
C146 C 0.57418 0.95627 0.09574 0.0
C147 C 0.56761 0.92828 0.09351 0.0
C148 C 0.56902 0.91641 0.06623 0.0
C149 C 0.55892 0.89093 0.06309 0.0
C150 C 0.54737 0.87689 0.08723 0.0
C151 C 0.54711 0.88844 0.11487 0.0
C152 C 0.55707 0.91399 0.11793 0.0
C153 C 0.52974 0.03315 0.06455 0.0
C154 C 0.53469 0.97675 1.00077 0.0
C155 C 0.56159 0.06876 0.96729 0.0
C156 C 0.57052 0.09626 0.96403 0.0
C157 C 0.57591 0.11102 0.98902 0.0
C158 C 0.58568 0.13681 0.98564 0.0
C159 C 0.59016 0.14823 0.95719 0.0
C160 C 0.5843 0.13344 0.9322 0.0
C161 C 0.57461 0.10763 0.93563 0.0
C162 C 0.6072 0.99321 1.00062 0.0
C163 C 0.60283 0.04984 0.06462 0.0
O164 O 0.59437 0.96563 0.08034 0.0
O165 O 0.55351 0.97149 0.0937 0.0
O166 O 0.54878 0.02717 0.08395 0.0
O167 O 0.53326 0.02096 0.04101 0.0
O168 O 0.55109 0.96951 0.02295 0.0
O169 O 0.5336 1.00151 0.99229 0.0
O170 O 0.54393 0.06299 0.98752 0.0
O171 O 0.58051 0.05162 0.96719 0.0
O172 O 0.58801 0.999 0.98133 0.0
O173 O 0.60382 1.00564 0.02402 0.0
O174 O 0.58808 0.05702 0.04096 0.0
O175 O 0.60232 0.02535 0.07452 0.0
H176 H 0.57713 0.92711 0.04707 0.0
H177 H 0.5596 0.88242 0.04164 0.0
H178 H 0.53805 0.87818 0.13377 0.0
H179 H 0.55562 0.92294 0.13907 0.0
H180 H 0.57281 0.10254 1.01113 0.0
H181 H 0.5903 0.14757 1.00534 0.0
H182 H 0.58719 0.14181 0.90998 0.0
H183 H 0.5705 0.09646 0.91612 0.0
Nd184 Nd 0.57175 0.52447 0.50676 0.0
Nd185 Nd 0.62397 0.55624 0.51441 0.0
C186 C 0.52209 0.50704 0.49461 0.0
C187 C 0.49833 0.49908 0.51157 0.0
C188 C 0.47413 0.49228 0.49662 0.0
C189 C 0.45242 0.48152 0.51245 0.0
C190 C 0.4547 0.47728 0.54349 0.0
C191 C 0.47865 0.48534 0.55847 0.0
C192 C 0.50029 0.49619 0.54261 0.0
C193 C 0.60195 0.5098 0.55684 0.0
C194 C 0.57221 0.57767 0.54451 0.0
C195 C 0.67373 0.57471 0.52336 0.0
C196 C 0.69629 0.58059 0.50377 0.0
C197 C 0.71947 0.59378 0.51443 0.0
C198 C 0.73961 0.60217 0.49494 0.0
C199 C 0.73676 0.59761 0.46446 0.0
C200 C 0.71391 0.5834 0.45416 0.0
C201 C 0.69382 0.57499 0.47367 0.0
C202 C 0.59284 0.57007 0.46473 0.0
C203 C 0.62376 0.50268 0.47734 0.0
O204 O 0.52891 0.53194 0.49385 0.0
O205 O 0.54279 0.49184 0.49885 0.0
O206 O 0.58688 0.49358 0.54204 0.0
O207 O 0.59863 0.53283 0.54682 0.0
O208 O 0.55803 0.56279 0.52619 0.0
O209 O 0.59854 0.57511 0.5483 0.0
O210 O 0.66691 0.54995 0.52764 0.0
O211 O 0.65291 0.58962 0.51841 0.0
O212 O 0.60629 0.5871 0.48002 0.0
O213 O 0.59749 0.54737 0.4747 0.0
O214 O 0.63803 0.51779 0.49531 0.0
O215 O 0.59748 0.50532 0.47355 0.0
H216 H 0.47233 0.4945 0.47263 0.0
H217 H 0.43411 0.47589 0.50033 0.0
H218 H 0.48124 0.48208 0.58228 0.0
H219 H 0.51893 0.50134 0.55445 0.0
H220 H 0.72163 0.59824 0.53763 0.0
H221 H 0.75716 0.61274 0.50363 0.0
H222 H 0.71092 0.57983 0.43081 0.0
H223 H 0.67589 0.56493 0.4651 0.0
Nd224 Nd 0.03716 0.49777 0.06834 0.0
Nd225 Nd 0.08238 0.50974 0.02504 0.0
C226 C 0.99 0.4925 0.0935 0.0
C227 C 0.97312 0.51284 0.10437 0.0
C228 C 0.94525 0.50876 0.10756 0.0
C229 C 0.92954 0.52892 0.11712 0.0
C230 C 0.94166 0.55323 0.1237 0.0
C231 C 0.96953 0.55719 0.11997 0.0
C232 C 0.98505 0.53726 0.11032 0.0
C233 C 0.08016 0.52656 0.09013 0.0
C234 C 0.03511 0.55339 0.02408 0.0
C235 C 0.12964 0.51684 1.00027 0.0
C236 C 0.14981 0.49914 0.98943 0.0
C237 C 0.16742 0.48523 1.00917 0.0
C238 C 0.18411 0.46631 0.9988 0.0
C239 C 0.18348 0.46087 0.96852 0.0
C240 C 0.16671 0.47569 0.94872 0.0
C241 C 0.15028 0.49472 0.95901 0.0
C242 C 0.03905 0.48218 1.00227 0.0
C243 C 0.0842 0.45405 0.06905 0.0
O244 O 0.99252 0.49327 0.06469 0.0
O245 O 1.01303 0.4892 0.10816 0.0
O246 O 0.06745 0.50877 0.10619 0.0
O247 O 0.06917 0.52927 0.06478 0.0
O248 O 1.02184 0.53556 0.04101 0.0
O249 O 0.06057 0.54945 0.01749 0.0
O250 O 0.12668 0.51671 0.02903 0.0
O251 O 0.10659 0.5177 0.98522 0.0
O252 O 0.0528 0.49953 0.98669 0.0
O253 O 0.04961 0.47863 0.02783 0.0
O254 O 0.09771 0.47205 0.05256 0.0
O255 O 0.05861 0.45787 0.07522 0.0
H256 H 0.93569 0.49012 0.10257 0.0
H257 H 0.90806 0.52545 0.11965 0.0
H258 H 0.97932 0.57591 0.12411 0.0
H259 H 1.00645 0.54099 0.10732 0.0
H260 H 0.16781 0.4884 0.03274 0.0
H261 H 0.19713 0.45563 1.0146 0.0
H262 H 0.16529 0.47189 0.92532 0.0
H263 H 0.13713 0.50528 0.94322 0.0
H264 H 0.15868 0.17299 0.24285 0.0
H265 H 0.13741 0.1533 0.28668 0.0
H266 H 0.21322 0.1205 0.31659 0.0
H267 H 0.23521 0.14187 0.27402 0.0
H268 H 0.1258 0.10782 0.30775 0.0
H269 H 0.19601 0.1472 0.39306 0.0
H270 H 0.19763 0.15796 0.35454 0.0
H271 H 0.2134 0.1281 0.36797 0.0
C272 C 0.1713 0.16222 0.25893 0.0
C273 C 0.19926 0.15987 0.25424 0.0
C274 C 0.15878 0.15049 0.28422 0.0
C275 C 0.17342 0.13561 0.30618 0.0
C276 C 0.20114 0.13248 0.30114 0.0
H277 H 0.12821 0.03968 0.46746 0.0
H278 H 0.15031 0.06034 0.42411 0.0
C279 C 0.21379 0.1445 0.27601 0.0
C280 C 0.15952 0.12306 0.33352 0.0
H281 H 0.16519 0.11352 0.40972 0.0
C282 C 0.13451 0.10939 0.32997 0.0
C283 C 0.17023 0.12469 0.36316 0.0
C284 C 0.19562 0.14051 0.37 0.0
C285 C 0.12061 0.09725 0.35434 0.0
C286 C 0.13156 0.09857 0.38378 0.0
C287 C 0.15653 0.11215 0.38743 0.0
C288 C 0.11761 0.08594 0.41086 0.0
C289 C 0.09442 0.0825 0.34818 0.0
C290 C 0.09166 0.09328 0.41888 0.0
C291 C 0.07893 0.08154 0.44411 0.0
C292 C 0.09153 0.06181 0.4623 0.0
C293 C 0.11753 0.05459 0.45426 0.0
C294 C 0.13036 0.06654 0.42926 0.0
H295 H 0.09189 0.07784 0.32445 0.0
H296 H 0.09328 0.06398 0.36205 0.0
H297 H 0.07732 0.09471 0.35374 0.0
H298 H 0.08123 0.1084 0.40576 0.0
H299 H 0.05906 0.08792 0.44925 0.0
H300 H 0.40855 0.85804 0.79927 0.0
H301 H 0.42723 0.88312 0.84018 0.0
H302 H 0.45935 0.81265 0.88245 0.0
H303 H 0.44072 0.78733 0.84143 0.0
H304 H 0.41863 0.87835 0.90107 0.0
H305 H 0.52583 0.86157 0.87642 0.0
H306 H 0.49831 0.85427 0.85067 0.0
H307 H 0.50515 0.83253 0.88237 0.0
C308 C 0.41929 0.84779 0.81745 0.0
C309 C 0.4232 0.8207 0.81712 0.0
C310 C 0.43004 0.86218 0.84074 0.0
C311 C 0.44497 0.8498 0.86412 0.0
C312 C 0.44835 0.82265 0.8643 0.0
H313 H 0.53564 0.92343 1.00918 0.0
H314 H 0.5121 0.89075 0.97927 0.0
C315 C 0.43768 0.80823 0.84091 0.0
C316 C 0.4573 0.86561 0.88789 0.0
H317 H 0.51794 0.8867 0.9174 0.0
C318 C 0.44034 0.88006 0.90479 0.0
C319 C 0.48563 0.86774 0.8927 0.0
C320 C 0.50487 0.8534 0.87447 0.0
C321 C 0.45097 0.89691 0.92611 0.0
C322 C 0.47928 0.89958 0.93031 0.0
C323 C 0.49623 0.88453 0.91411 0.0
C324 C 0.49184 0.91918 0.94988 0.0
C325 C 0.43184 0.91182 0.94385 0.0
C326 C 0.48822 0.94595 0.94324 0.0
C327 C 0.50166 0.96465 0.96021 0.0
C328 C 0.5191 0.95691 0.98408 0.0
C329 C 0.52234 0.93004 0.99099 0.0
C330 C 0.50892 0.91133 0.97393 0.0
H331 H 0.41143 0.90228 0.94417 0.0
H332 H 0.43961 0.91352 0.96708 0.0
H333 H 0.42977 0.93185 0.9336 0.0
H334 H 0.47552 0.9524 0.92441 0.0
H335 H 0.49877 0.98517 0.95424 0.0
H336 H 0.66627 0.44201 0.82847 0.0
H337 H 0.64926 0.44678 0.77682 0.0
H338 H 0.6981 0.51735 0.76417 0.0
H339 H 0.71562 0.5122 0.81557 0.0
H340 H 0.62173 0.48602 0.74666 0.0
H341 H 0.72124 0.47376 0.69725 0.0
H342 H 0.71545 0.46652 0.7361 0.0
H343 H 0.72126 0.49978 0.72247 0.0
C344 C 0.67305 0.45867 0.81465 0.0
C345 C 0.69196 0.4769 0.82588 0.0
C346 C 0.66346 0.46133 0.78523 0.0
C347 C 0.6728 0.48216 0.76657 0.0
C348 C 0.6911 0.50083 0.77805 0.0
H349 H 0.6339 0.54188 0.58978 0.0
H350 H 0.65155 0.5333 0.64056 0.0
C351 C 0.70084 0.49807 0.80742 0.0
C352 C 0.66341 0.48428 0.73509 0.0
H353 H 0.68549 0.48793 0.6641 0.0
C354 C 0.63562 0.48623 0.72859 0.0
C355 C 0.68163 0.48433 0.71159 0.0
C356 C 0.71153 0.48072 0.71713 0.0
C357 C 0.62562 0.48901 0.69919 0.0
C358 C 0.6439 0.4897 0.67582 0.0
C359 C 0.67162 0.48742 0.68221 0.0
C360 C 0.63463 0.49392 0.6446 0.0
C361 C 0.59568 0.49189 0.69323 0.0
C362 C 0.61985 0.47432 0.63001 0.0
C363 C 0.60988 0.4791 0.60094 0.0
C364 C 0.61446 0.5036 0.58629 0.0
C365 C 0.62996 0.52287 0.60068 0.0
C366 C 0.64006 0.51802 0.6296 0.0
H367 H 0.5847 0.49457 0.71387 0.0
H368 H 0.59186 0.50885 0.67747 0.0
H369 H 0.58729 0.47408 0.68284 0.0
H370 H 0.61572 0.45551 0.64127 0.0
H371 H 0.59802 0.46391 0.59026 0.0
H372 H 0.86484 0.7778 0.20946 0.0
H373 H 0.85341 0.7342 0.19144 0.0
H374 H 0.93248 0.73134 0.15469 0.0
H375 H 0.94342 0.7751 0.17166 0.0
H376 H 0.89413 0.71005 0.11865 0.0
H377 H 0.88324 0.67009 0.23494 0.0
H378 H 0.86049 0.6953 0.22235 0.0
H379 H 0.89598 0.70286 0.22661 0.0
C380 C 0.8794 0.76805 0.1968 0.0
C381 C 0.90494 0.7797 0.1917 0.0
C382 C 0.873 0.74308 0.18685 0.0
C383 C 0.89227 0.72932 0.1722 0.0
C384 C 0.91727 0.74158 0.16591 0.0
H385 H 0.95452 0.58417 0.16949 0.0
H386 H 0.93364 0.62485 0.18075 0.0
C387 C 0.92354 0.76654 0.17555 0.0
C388 C 0.88777 0.70154 0.16508 0.0
H389 H 0.88466 0.63998 0.19782 0.0
C390 C 0.89148 0.69466 0.1358 0.0
C391 C 0.8843 0.68156 0.18761 0.0
C392 C 0.88095 0.68767 0.21968 0.0
C393 C 0.89412 0.66847 0.1288 0.0
C394 C 0.8921 0.64856 0.15163 0.0
C395 C 0.8861 0.65531 0.18041 0.0
C396 C 0.90134 0.62172 0.14746 0.0
C397 C 0.90136 0.66261 0.09762 0.0
C398 C 0.88949 0.60584 0.12579 0.0
C399 C 0.9017 0.58258 0.11902 0.0
C400 C 0.92578 0.57494 0.13398 0.0
C401 C 0.93628 0.58987 0.1572 0.0
C402 C 0.92422 0.61302 0.16381 0.0
H403 H 0.90611 0.68067 0.08387 0.0
H404 H 0.91908 0.64978 0.098 0.0
H405 H 0.88411 0.65222 0.08665 0.0
H406 H 0.8715 0.61193 0.11332 0.0
H407 H 0.89315 0.57138 0.10107 0.0
H408 H 0.32185 0.13274 0.19548 0.0
H409 H 0.36486 0.11597 0.17924 0.0
H410 H 0.33728 0.12712 0.08807 0.0
H411 H 0.2952 0.14458 0.10418 0.0
H412 H 0.37851 0.07497 0.15252 0.0
H413 H 0.41003 0.15623 0.07561 0.0
H414 H 0.38244 0.15915 0.1001 0.0
H415 H 0.3771 0.1439 0.06509 0.0
C416 C 0.32534 0.13252 0.17194 0.0
C417 C 0.30494 0.14112 0.15135 0.0
C418 C 0.35003 0.12251 0.16251 0.0
C419 C 0.35543 0.1205 0.13204 0.0
C420 C 0.33492 0.12908 0.11159 0.0
H421 H 0.4833 0.04644 0.03004 0.0
H422 H 0.44197 0.06706 0.0458 0.0
C423 C 0.31045 0.13919 0.12098 0.0
C424 C 0.38146 0.10831 0.12168 0.0
H425 H 0.43232 0.11585 0.07116 0.0
C426 C 0.39024 0.08424 0.13489 0.0
C427 C 0.39753 0.11973 0.09848 0.0
C428 C 0.39147 0.14629 0.08423 0.0
C429 C 0.41345 0.07142 0.12547 0.0
C430 C 0.42924 0.08268 0.10206 0.0
C431 C 0.42055 0.10671 0.08883 0.0
C432 C 0.45504 0.07024 0.09179 0.0
C433 C 0.42047 0.04535 0.14038 0.0
C434 C 0.47708 0.06525 0.11172 0.0
C435 C 0.50087 0.05365 0.10262 0.0
C436 C 0.50391 0.0463 0.07312 0.0
C437 C 0.48203 0.05155 0.05294 0.0
C438 C 0.4582 0.06347 0.06204 0.0
H439 H 0.40285 0.03586 0.15153 0.0
H440 H 0.42792 0.03186 0.12415 0.0
H441 H 0.43669 0.04837 0.15754 0.0
H442 H 0.47604 0.07055 0.13458 0.0
H443 H 0.51702 0.05029 0.11903 0.0
H444 H 0.36793 0.808 0.69337 0.0
H445 H 0.32569 0.8224 0.66913 0.0
H446 H 0.28752 0.81874 0.75374 0.0
H447 H 0.32977 0.80421 0.77823 0.0
H448 H 0.27324 0.79931 0.66775 0.0
H449 H 0.27662 0.89459 0.72226 0.0
H450 H 0.30536 0.87369 0.72253 0.0
H451 H 0.27806 0.86594 0.7469 0.0
C452 C 0.35044 0.80986 0.70679 0.0
C453 C 0.35221 0.80507 0.73775 0.0
C454 C 0.32637 0.81819 0.69291 0.0
C455 C 0.30364 0.82199 0.70971 0.0
C456 C 0.30501 0.81641 0.74047 0.0
H457 H 0.15167 0.89404 0.65021 0.0
H458 H 0.18561 0.86965 0.68013 0.0
C459 C 0.32913 0.80812 0.75441 0.0
C460 C 0.27888 0.83258 0.69492 0.0
H461 H 0.23958 0.88644 0.6897 0.0
C462 C 0.26575 0.81828 0.67266 0.0
C463 C 0.26917 0.85732 0.70144 0.0
C464 C 0.28309 0.87395 0.7244 0.0
C465 C 0.24331 0.82823 0.65645 0.0
C466 C 0.23408 0.85326 0.66243 0.0
C467 C 0.2467 0.86722 0.68527 0.0
C468 C 0.21259 0.86618 0.64395 0.0
C469 C 0.22973 0.81193 0.633 0.0
C470 C 0.21662 0.87234 0.61377 0.0
C471 C 0.19744 0.88642 0.59671 0.0
C472 C 0.17386 0.89472 0.60953 0.0
C473 C 0.16971 0.88816 0.63972 0.0
C474 C 0.18898 0.87412 0.6568 0.0
H475 H 0.23394 0.79081 0.63702 0.0
H476 H 0.20753 0.81443 0.63218 0.0
H477 H 0.23758 0.81828 0.61098 0.0
H478 H 0.23502 0.86697 0.6036 0.0
H479 H 0.20158 0.89159 0.57371 0.0
H480 H 0.78971 0.47119 0.93094 0.0
H481 H 0.8368 0.47783 0.9477 0.0
H482 H 0.84836 0.39456 0.94884 0.0
H483 H 0.80176 0.38781 0.93098 0.0
H484 H 0.86591 0.45823 0.99805 0.0
H485 H 0.90662 0.4247 0.89359 0.0
H486 H 0.87154 0.43223 0.897 0.0
H487 H 0.88415 0.40158 0.91206 0.0
C488 C 0.80231 0.45431 0.93471 0.0
C489 C 0.79206 0.42901 0.92943 0.0
C490 C 0.8291 0.45811 0.94446 0.0
C491 C 0.84608 0.43671 0.94902 0.0
C492 C 0.83565 0.41135 0.94496 0.0
H493 H 1.00757 0.44625 0.03253 0.0
H494 H 0.96072 0.43322 0.02016 0.0
C495 C 0.80892 0.40753 0.93511 0.0
C496 C 0.87492 0.44105 0.95707 0.0
H497 H 0.93841 0.43443 0.93198 0.0
C498 C 0.88181 0.45298 0.98371 0.0
C499 C 0.89549 0.43443 0.93804 0.0
C500 C 0.88917 0.42274 0.90844 0.0
C501 C 0.90885 0.4585 0.99187 0.0
C502 C 0.92942 0.45147 0.97305 0.0
C503 C 0.92253 0.43951 0.94645 0.0
C504 C 0.95816 0.45775 0.97972 0.0
C505 C 0.91514 0.47251 0.02006 0.0
C506 C 0.97244 0.47498 0.96043 0.0
C507 C 0.99916 0.48224 0.96729 0.0
C508 C 1.01197 0.47234 0.99353 0.0
C509 C 0.99802 0.45428 1.01225 0.0
C510 C 0.97127 0.44698 1.00534 0.0
H511 H 0.89699 0.48169 0.02837 0.0
H512 H 0.92266 0.45826 0.03755 0.0
H513 H 0.93109 0.48792 1.01654 0.0
H514 H 0.96265 0.48336 0.94045 0.0
H515 H 1.00952 0.49617 0.95248 0.0
H516 H 0.91666 0.73406 0.34749 0.0
H517 H 0.88859 0.69775 0.36686 0.0
H518 H 0.83997 0.70022 0.28564 0.0
H519 H 0.86735 0.73747 0.26653 0.0
H520 H 0.80979 0.70312 0.33309 0.0
H521 H 0.87862 0.62092 0.35387 0.0
H522 H 0.89261 0.64988 0.36983 0.0
H523 H 0.88723 0.6492 0.33016 0.0
C524 C 0.90015 0.72674 0.3336 0.0
C525 C 0.89397 0.73894 0.30567 0.0
C526 C 0.88438 0.70565 0.34452 0.0
C527 C 0.86235 0.69603 0.32758 0.0
C528 C 0.85699 0.70723 0.29901 0.0
H529 H 0.75753 0.57564 0.41605 0.0
H530 H 0.78691 0.59701 0.37886 0.0
C531 C 0.87272 0.72846 0.28808 0.0
C532 C 0.84292 0.67706 0.34159 0.0
H533 H 0.83954 0.62078 0.38542 0.0
C534 C 0.81617 0.68482 0.34394 0.0
C535 C 0.85106 0.653 0.35544 0.0
C536 C 0.87889 0.64265 0.3519 0.0
C537 C 0.79793 0.67013 0.36151 0.0
C538 C 0.80685 0.64738 0.37758 0.0
C539 C 0.83294 0.63853 0.37352 0.0
C540 C 0.79002 0.63387 0.40036 0.0
C541 C 0.76948 0.67953 0.36342 0.0
C542 C 0.78269 0.64733 0.42504 0.0
C543 C 0.76595 0.6353 0.44616 0.0
C544 C 0.75633 0.60943 0.44314 0.0
C545 C 0.76437 0.59568 0.4188 0.0
C546 C 0.78121 0.60779 0.39764 0.0
H547 H 0.76353 0.69196 0.3435 0.0
H548 H 0.7548 0.66282 0.36575 0.0
H549 H 0.76824 0.69151 0.38313 0.0
H550 H 0.78968 0.66735 0.42779 0.0
H551 H 0.75991 0.64657 0.46439 0.0
H552 H 0.15988 0.2245 0.18488 0.0
H553 H 0.13996 0.26499 0.16481 0.0
H554 H 0.21825 0.29395 0.13827 0.0
H555 H 0.23859 0.25361 0.15888 0.0
H556 H 0.14633 0.31576 0.17855 0.0
H557 H 0.17598 0.30993 0.06203 0.0
H558 H 0.17901 0.28262 0.0887 0.0
H559 H 0.20398 0.30882 0.08831 0.0
C560 C 0.17321 0.23939 0.17509 0.0
C561 C 0.20129 0.23505 0.17403 0.0
C562 C 0.16153 0.26282 0.16327 0.0
C563 C 0.17716 0.28305 0.14934 0.0
C564 C 0.20518 0.27883 0.14805 0.0
H565 H 0.13761 0.43951 0.06418 0.0
H566 H 0.15966 0.3995 0.08358 0.0
C567 C 0.21695 0.2554 0.16003 0.0
C568 C 0.16418 0.30848 0.13711 0.0
H569 H 0.15604 0.34931 0.07445 0.0
C570 C 0.14847 0.3229 0.1557 0.0
C571 C 0.1667 0.31857 0.1073 0.0
C572 C 0.1821 0.30412 0.08529 0.0
C573 C 0.13594 0.34666 0.14585 0.0
C574 C 0.13809 0.35659 0.11589 0.0
C575 C 0.15396 0.34224 0.09733 0.0
C576 C 0.12415 0.38154 0.10352 0.0
C577 C 0.12124 0.36132 0.16827 0.0
C578 C 0.09636 0.38551 0.10726 0.0
C579 C 0.08364 0.40869 0.09625 0.0
C580 C 0.09796 0.42894 0.08054 0.0
C581 C 0.12562 0.42474 0.07616 0.0
C582 C 0.13838 0.40157 0.08733 0.0
H583 H 0.12893 0.35648 0.19126 0.0
H584 H 0.12329 0.38282 0.16393 0.0
H585 H 0.09949 0.3556 0.16713 0.0
H586 H 0.0842 0.37049 0.11855 0.0
H587 H 0.06235 0.41065 0.10001 0.0
H588 H 0.74276 0.34892 0.92383 0.0
H589 H 0.71681 0.30848 0.93445 0.0
H590 H 0.64281 0.351 0.92617 0.0
H591 H 0.66868 0.39177 0.91588 0.0
H592 H 0.67863 0.29594 0.98007 0.0
H593 H 0.6337 0.29243 0.86549 0.0
H594 H 0.66265 0.3131 0.87447 0.0
H595 H 0.62949 0.32223 0.88411 0.0
C596 C 0.721 0.34979 0.92475 0.0
C597 C 0.70775 0.37354 0.91899 0.0
C598 C 0.70622 0.32665 0.93067 0.0
C599 C 0.67796 0.3268 0.93077 0.0
C600 C 0.66463 0.35051 0.92574 0.0
H601 H 0.57728 0.19124 0.9871 0.0
H602 H 0.59723 0.2355 0.98181 0.0
C603 C 0.67941 0.37371 0.91983 0.0
C604 C 0.66258 0.30191 0.93539 0.0
H605 H 0.62097 0.25849 0.89982 0.0
C606 C 0.66583 0.28779 0.96267 0.0
C607 C 0.6462 0.29135 0.91243 0.0
C608 C 0.64286 0.30538 0.88236 0.0
C609 C 0.65327 0.26313 0.96752 0.0
C610 C 0.6369 0.25258 0.94456 0.0
C611 C 0.63343 0.26682 0.91739 0.0
C612 C 0.62445 0.2261 0.94766 0.0
C613 C 0.65831 0.24815 0.99676 0.0
C614 C 0.63289 0.20642 0.92983 0.0
C615 C 0.62164 0.18118 0.93283 0.0
C616 C 0.60161 0.17523 0.95362 0.0
C617 C 0.59295 0.19513 0.9712 0.0
C618 C 0.60427 0.2204 0.9682 0.0
H619 H 0.67534 0.25687 1.00991 0.0
H620 H 0.6399 0.24829 1.01006 0.0
H621 H 0.66279 0.22743 0.9931 0.0
H622 H 0.64849 0.21051 0.91388 0.0
H623 H 0.62901 0.16622 0.91926 0.0
H624 H 0.92746 0.86063 0.3018 0.0
H625 H 0.94274 0.89193 0.33828 0.0
H626 H 0.95778 0.82841 0.40266 0.0
H627 H 0.94469 0.79695 0.36579 0.0
H628 H 0.9245 0.90298 0.3902 0.0
H629 H 1.02851 0.86709 0.40746 0.0
H630 H 1.0061 0.85604 0.37809 0.0
H631 H 1.00349 0.84197 0.41531 0.0
C632 C 0.93449 0.85324 0.32353 0.0
C633 C 0.93502 0.82616 0.33064 0.0
C634 C 0.94295 0.8712 0.34448 0.0
C635 C 0.95193 0.86251 0.37305 0.0
C636 C 0.95165 0.83558 0.38054 0.0
H637 H 0.97023 0.96832 0.51982 0.0
H638 H 0.95415 0.93406 0.48688 0.0
C639 C 0.94365 0.8176 0.35949 0.0
C640 C 0.96137 0.88165 0.39502 0.0
H641 H 1.0145 0.8977 0.44135 0.0
C642 C 0.94422 0.9019 0.40131 0.0
C643 C 0.98726 0.88043 0.40923 0.0
C644 C 1.0075 0.86038 0.40196 0.0
C645 C 0.95222 0.92095 0.42138 0.0
C646 C 0.97771 0.91916 0.43639 0.0
C647 C 0.99483 0.89889 0.43012 0.0
C648 C 0.98774 0.93888 0.45743 0.0
C649 C 0.9336 0.94325 0.42548 0.0
C650 C 1.01255 0.95207 0.45267 0.0
C651 C 1.02202 0.97109 0.47182 0.0
C652 C 1.00673 0.97748 0.49592 0.0
C653 C 0.98221 0.96392 0.50115 0.0
C654 C 0.97293 0.94454 0.48222 0.0
H655 H 0.9189 0.9458 0.40647 0.0
H656 H 0.92195 0.93901 0.4458 0.0
H657 H 0.94514 0.96196 0.42797 0.0
H658 H 1.02441 0.94796 0.43381 0.0
H659 H 0.04105 0.98121 0.46734 0.0
H660 H 0.50644 0.75061 0.71959 0.0
H661 H 0.52313 0.71612 0.68973 0.0
H662 H 0.44378 0.70629 0.64878 0.0
H663 H 0.42717 0.74119 0.6783 0.0
H664 H 0.50608 0.66392 0.68664 0.0
H665 H 0.49212 0.71788 0.57739 0.0
H666 H 0.49082 0.73372 0.61215 0.0
H667 H 0.4624 0.71443 0.59907 0.0
C668 C 0.49264 0.7411 0.70414 0.0
C669 C 0.46566 0.74868 0.70083 0.0
C670 C 0.50214 0.72142 0.68718 0.0
C671 C 0.4848 0.709 0.66668 0.0
C672 C 0.45762 0.71604 0.66397 0.0
H673 H 0.51846 0.58917 0.54224 0.0
H674 H 0.49564 0.61978 0.57241 0.0
C675 C 0.44814 0.7358 0.68089 0.0
C676 C 0.49531 0.68864 0.64828 0.0
H677 H 0.50722 0.67455 0.57678 0.0
C678 C 0.50629 0.66621 0.66262 0.0
C679 C 0.49545 0.69167 0.61693 0.0
C680 C 0.48479 0.7158 0.6004 0.0
C681 C 0.51756 0.64674 0.64646 0.0
C682 C 0.51817 0.65002 0.61519 0.0
C683 C 0.50667 0.67214 0.60077 0.0
C684 C 0.53182 0.6313 0.59717 0.0
C685 C 0.52862 0.62278 0.66295 0.0
C686 C 0.55974 0.628 0.60084 0.0
C687 C 0.57284 0.61065 0.58364 0.0
C688 C 0.55825 0.59631 0.56234 0.0
C689 C 0.53027 0.59986 0.5585 0.0
C690 C 0.5172 0.61731 0.5757 0.0
H691 H 0.52023 0.61989 0.68543 0.0
H692 H 0.52409 0.60493 0.65046 0.0
H693 H 0.55089 0.62513 0.66562 0.0
H694 H 0.57146 0.63902 0.6169 0.0
H695 H 0.59441 0.60849 0.58712 0.0
H696 H 0.91852 0.85046 0.81061 0.0
H697 H 0.94153 0.87155 0.76838 0.0
H698 H 0.91398 0.94648 0.79217 0.0
H699 H 0.89209 0.92579 0.83532 0.0
H700 H 0.92659 0.89749 0.7192 0.0
H701 H 0.99066 0.96736 0.78143 0.0
H702 H 0.9714 0.94135 0.79988 0.0
H703 H 0.95545 0.9713 0.78723 0.0
C704 C 0.9176 0.87152 0.80742 0.0
C705 C 0.90326 0.88608 0.82734 0.0
C706 C 0.93075 0.88368 0.78274 0.0
C707 C 0.93039 0.91102 0.77674 0.0
C708 C 0.91562 0.92556 0.79618 0.0
H709 H 0.99515 0.02059 0.63574 0.0
H710 H 0.9724 0.99949 0.67841 0.0
C711 C 0.90252 0.91344 0.82093 0.0
C712 C 0.94485 0.92398 0.75006 0.0
H713 H 0.98935 0.9739 0.72888 0.0
C714 C 0.94042 0.9141 0.72157 0.0
C715 C 0.96315 0.94584 0.75229 0.0
C716 C 0.97069 0.95694 0.78188 0.0
C717 C 0.9529 0.92547 0.69586 0.0
C718 C 0.97109 0.94738 0.69809 0.0
C719 C 0.97553 0.95727 0.72655 0.0
C720 C 0.98547 0.96036 0.6714 0.0
C721 C 0.9457 0.91422 0.66627 0.0
C722 C 1.00117 0.94597 0.65269 0.0
C723 C 1.01435 0.95814 0.62801 0.0
C724 C 1.01255 0.98528 0.62099 0.0
C725 C 0.99715 0.99971 0.63996 0.0
C726 C 0.98403 0.98755 0.66467 0.0
H727 H 0.92606 0.90323 0.66669 0.0
H728 H 0.94457 0.92983 0.64831 0.0
H729 H 0.96144 0.90039 0.66084 0.0
H730 H 1.00357 0.9252 0.65731 0.0
H731 H 1.02605 0.94615 0.61439 0.0
H732 H 0.70976 0.24822 0.19598 0.0
H733 H 0.68757 0.21676 0.16327 0.0
H734 H 0.71664 0.15301 0.22068 0.0
H735 H 0.7382 0.18424 0.25389 0.0
H736 H 0.70992 0.17538 0.13299 0.0
H737 H 0.63453 0.13886 0.21442 0.0
H738 H 0.65414 0.16876 0.21877 0.0
H739 H 0.66895 0.13763 0.22811 0.0
C740 C 0.71131 0.2275 0.2017 0.0
C741 C 0.72566 0.21873 0.22758 0.0
C742 C 0.69876 0.20957 0.18292 0.0
C743 C 0.70017 0.18261 0.18981 0.0
C744 C 0.71498 0.17377 0.21523 0.0
H745 H 0.635 0.0416 0.11441 0.0
H746 H 0.65953 0.07436 0.14314 0.0
C747 C 0.72755 0.19164 0.23399 0.0
C748 C 0.68601 0.16366 0.17055 0.0
H749 H 0.63693 0.11555 0.17052 0.0
C750 C 0.69387 0.16236 0.14108 0.0
C751 C 0.66504 0.1468 0.18122 0.0
C752 C 0.65494 0.14816 0.21227 0.0
C753 C 0.68175 0.1441 0.12218 0.0
C754 C 0.66097 0.12705 0.13298 0.0
C755 C 0.65297 0.12856 0.16236 0.0
C756 C 0.6473 0.1073 0.11435 0.0
C757 C 0.69175 0.14277 0.09111 0.0
C758 C 0.6323 0.11497 0.08859 0.0
C759 C 0.61828 0.09626 0.07203 0.0
C760 C 0.61884 0.06957 0.08109 0.0
C761 C 0.63412 0.06197 0.10677 0.0
C762 C 0.64815 0.08067 0.12326 0.0
H763 H 0.712 0.15238 0.08878 0.0
H764 H 0.69285 0.12215 0.08474 0.0
H765 H 0.67749 0.15299 0.07529 0.0
H766 H 0.63095 0.13547 0.08163 0.0
H767 H 0.60666 0.1028 0.05245 0.0
H768 H 0.46642 0.57445 0.21587 0.0
H769 H 0.4961 0.57612 0.26035 0.0
H770 H 0.43043 0.60384 0.30962 0.0
H771 H 0.40046 0.60119 0.26558 0.0
H772 H 0.51193 0.61683 0.29473 0.0
H773 H 0.45417 0.54106 0.36049 0.0
H774 H 0.44795 0.54723 0.3212 0.0
H775 H 0.43454 0.56847 0.34733 0.0
C776 C 0.4584 0.58094 0.23621 0.0
C777 C 0.43132 0.58804 0.23725 0.0
C778 C 0.47534 0.58196 0.26152 0.0
C779 C 0.46538 0.58993 0.28829 0.0
C780 C 0.43839 0.59726 0.2893 0.0
H781 H 0.57371 0.61749 0.44377 0.0
H782 H 0.54201 0.62538 0.40129 0.0
C783 C 0.42138 0.59594 0.26411 0.0
C784 C 0.48318 0.58994 0.31527 0.0
H785 H 0.49076 0.56209 0.38517 0.0
C786 C 0.50733 0.60494 0.31458 0.0
C787 C 0.4771 0.57427 0.341 0.0
C788 C 0.45217 0.55665 0.34257 0.0
C789 C 0.52589 0.60429 0.3388 0.0
C790 C 0.51974 0.58866 0.36452 0.0
C791 C 0.49528 0.57419 0.36544 0.0
C792 C 0.53938 0.5848 0.38966 0.0
C793 C 0.55233 0.61944 0.33618 0.0
C794 C 0.54801 0.55943 0.39733 0.0
C795 C 0.5656 0.55491 0.42158 0.0
C796 C 0.57509 0.5757 0.43857 0.0
C797 C 0.56679 0.60121 0.4308 0.0
C798 C 0.54884 0.60572 0.40654 0.0
H799 H 0.55626 0.62594 0.31282 0.0
H800 H 0.55175 0.63711 0.34941 0.0
H801 H 0.56941 0.60744 0.34497 0.0
H802 H 0.54097 0.54303 0.38458 0.0
H803 H 0.5717 0.53504 0.42706 0.0
H804 H 0.27991 0.27612 0.82016 0.0
H805 H 0.2765 0.30033 0.86537 0.0
H806 H 0.19289 0.31529 0.84208 0.0
H807 H 0.19599 0.28984 0.79806 0.0
H808 H 0.26977 0.3486 0.86793 0.0
H809 H 0.18538 0.30175 0.92781 0.0
H810 H 0.20072 0.28619 0.89782 0.0
H811 H 0.17388 0.30903 0.89038 0.0
C812 C 0.26063 0.28391 0.82539 0.0
C813 C 0.23812 0.28102 0.80598 0.0
C814 C 0.25869 0.29779 0.8511 0.0
C815 C 0.23432 0.30938 0.85752 0.0
C816 C 0.21165 0.30581 0.83838 0.0
H817 H 0.20839 0.45832 0.91547 0.0
H818 H 0.22538 0.4197 0.89406 0.0
C819 C 0.21344 0.29143 0.81307 0.0
C820 C 0.23337 0.32796 0.88173 0.0
H821 H 0.19154 0.34911 0.93339 0.0
C822 C 0.253 0.34829 0.88277 0.0
C823 C 0.21206 0.32738 0.90186 0.0
C824 C 0.19207 0.30468 0.9046 0.0
C825 C 0.25064 0.36907 0.90155 0.0
C826 C 0.22744 0.37016 0.91881 0.0
C827 C 0.20905 0.34874 0.91966 0.0
C828 C 0.22025 0.39426 0.93345 0.0
C829 C 0.2729 0.38978 0.90222 0.0
C830 C 0.21123 0.39297 0.96267 0.0
C831 C 0.20043 0.41494 0.97464 0.0
C832 C 0.19859 0.43871 0.95766 0.0
C833 C 0.20902 0.44027 0.92902 0.0
C834 C 0.2193 0.41823 0.91691 0.0
H835 H 0.29282 0.38107 0.89905 0.0
H836 H 0.26944 0.40447 0.88363 0.0
H837 H 0.27381 0.39988 0.92346 0.0
H838 H 0.21159 0.37469 0.97584 0.0
H839 H 0.19231 0.41285 0.99662 0.0
H840 H 0.81103 0.84808 0.92474 0.0
H841 H 0.77182 0.8678 0.94521 0.0
H842 H 0.7968 0.94307 0.90728 0.0
H843 H 0.83682 0.92396 0.88842 0.0
H844 H 0.72853 0.88949 0.92549 0.0
H845 H 0.78163 0.96776 0.98568 0.0
H846 H 0.78871 0.9705 0.94698 0.0
H847 H 0.79958 0.94226 0.96931 0.0
C848 C 0.80875 0.86896 0.92107 0.0
C849 C 0.82808 0.884 0.90461 0.0
C850 C 0.78577 0.88035 0.93275 0.0
C851 C 0.78083 0.90743 0.92876 0.0
C852 C 0.79983 0.9224 0.91194 0.0
H853 H 0.65517 0.98276 0.03382 0.0
H854 H 0.6961 0.96165 0.01788 0.0
C855 C 0.82289 0.91109 0.90043 0.0
C856 C 0.75571 0.91962 0.94129 0.0
H857 H 0.73386 0.97174 0.9791 0.0
C858 C 0.72998 0.90744 0.93729 0.0
C859 C 0.75666 0.94291 0.95752 0.0
C860 C 0.78315 0.95646 0.96544 0.0
C861 C 0.70592 0.91781 0.94798 0.0
C862 C 0.70669 0.94185 0.96277 0.0
C863 C 0.73249 0.95367 0.96751 0.0
C864 C 0.6812 0.95496 0.9731 0.0
C865 C 0.67992 0.90219 0.9439 0.0
C866 C 0.65855 0.95908 0.95373 0.0
C867 C 0.635 0.971 0.96298 0.0
C868 C 0.63288 0.97987 0.99198 0.0
C869 C 0.65561 0.97621 1.0114 0.0
C870 C 0.67928 0.96409 1.00212 0.0
H871 H 0.68378 0.88103 0.94228 0.0
H872 H 0.66624 0.90443 0.96252 0.0
H873 H 0.6695 0.90902 0.9229 0.0
H874 H 0.65909 0.95338 0.931 0.0
H875 H 0.61835 0.9735 0.947 0.0
H876 H 0.78779 0.25692 0.34177 0.0
H877 H 0.8296 0.24511 0.36858 0.0
H878 H 0.86159 0.21836 0.28818 0.0
H879 H 0.82017 0.23112 0.26066 0.0
H880 H 0.85924 0.18121 0.34205 0.0
H881 H 0.9097 0.2772 0.36305 0.0
H882 H 0.87399 0.27465 0.36911 0.0
H883 H 0.886 0.2726 0.33226 0.0
C884 C 0.80394 0.24925 0.32948 0.0
C885 C 0.80055 0.24502 0.29896 0.0
C886 C 0.82781 0.24244 0.34492 0.0
C887 C 0.84869 0.23116 0.33024 0.0
C888 C 0.84569 0.22724 0.29978 0.0
H889 H 0.97955 0.14175 0.41738 0.0
H890 H 0.95293 0.16465 0.37826 0.0
C891 C 0.82191 0.23431 0.2842 0.0
C892 C 0.87238 0.22111 0.3475 0.0
H893 H 0.92656 0.24004 0.39077 0.0
C894 C 0.87428 0.19397 0.35235 0.0
C895 C 0.89162 0.23795 0.36106 0.0
C896 C 0.89048 0.26725 0.35604 0.0
C897 C 0.89427 0.18314 0.37159 0.0
C898 C 0.91346 0.19998 0.38554 0.0
C899 C 0.91199 0.22717 0.37992 0.0
C900 C 0.93363 0.18975 0.4079 0.0
C901 C 0.8936 0.15389 0.37807 0.0
C902 C 0.93323 0.1977 0.43718 0.0
C903 C 0.94904 0.18518 0.45952 0.0
C904 C 0.96534 0.16424 0.45307 0.0
C905 C 0.96728 0.15775 0.42327 0.0
C906 C 0.95174 0.17057 0.40087 0.0
H907 H 0.87385 0.14476 0.3714 0.0
H908 H 0.90944 0.14492 0.36541 0.0
H909 H 0.89754 0.14906 0.40207 0.0
H910 H 0.91968 0.21272 0.44305 0.0
H911 H 0.9476 0.19119 0.48207 0.0
H912 H 0.30812 0.64914 0.12511 0.0
H913 H 0.26173 0.63384 0.11417 0.0
H914 H 0.28619 0.55381 0.12793 0.0
H915 H 0.3327 0.56892 0.13835 0.0
H916 H 0.24954 0.56382 0.07783 0.0
H917 H 0.21506 0.60209 0.18298 0.0
H918 H 0.23262 0.62544 0.15901 0.0
H919 H 0.25028 0.59803 0.17582 0.0
C920 C 0.30371 0.62828 0.12512 0.0
C921 C 0.32391 0.61019 0.13278 0.0
C922 C 0.27721 0.61961 0.11918 0.0
C923 C 0.27059 0.59276 0.12083 0.0
C924 C 0.29096 0.57462 0.12682 0.0
H925 H 0.11375 0.51387 0.13773 0.0
H926 H 0.16041 0.53011 0.14611 0.0
C927 C 0.31742 0.58326 0.13284 0.0
C928 C 0.24223 0.58355 0.11771 0.0
H929 H 0.18139 0.58418 0.15085 0.0
C930 C 0.2346 0.56826 0.09373 0.0
C931 C 0.22304 0.58903 0.13888 0.0
C932 C 0.23059 0.60435 0.1658 0.0
C933 C 0.20798 0.55871 0.09002 0.0
C934 C 0.18863 0.56489 0.1107 0.0
C935 C 0.19636 0.57971 0.13499 0.0
C936 C 0.1601 0.55645 0.10706 0.0
C937 C 0.20075 0.54191 0.06419 0.0
C938 C 0.1445 0.56661 0.08295 0.0
C939 C 0.11803 0.55754 0.07827 0.0
C940 C 0.10679 0.53816 0.09762 0.0
C941 C 0.12202 0.52881 0.12252 0.0
C942 C 0.14859 0.53798 0.12725 0.0
H943 H 0.21896 0.53418 0.05433 0.0
H944 H 0.18729 0.52518 0.0712 0.0
H945 H 0.18977 0.55379 0.04667 0.0
H946 H 0.15298 0.58122 0.06747 0.0
H947 H 0.10661 0.5652 0.05901 0.0
H948 H 0.3181 0.28601 0.64825 0.0
H949 H 0.34021 0.32376 0.62258 0.0
H950 H 0.34222 0.36527 0.70358 0.0
H951 H 0.32053 0.3273 0.7294 0.0
H952 H 0.32284 0.37551 0.61509 0.0
H953 H 0.42092 0.37007 0.67861 0.0
H954 H 0.3962 0.3435 0.67938 0.0
H955 H 0.39159 0.37167 0.70069 0.0
C956 C 0.32361 0.30309 0.66057 0.0
C957 C 0.31834 0.30365 0.69089 0.0
C958 C 0.33604 0.32465 0.64592 0.0
C959 C 0.34321 0.34711 0.66133 0.0
C960 C 0.33739 0.3479 0.69148 0.0
H961 H 0.4357 0.48591 0.59856 0.0
H962 H 0.40516 0.45731 0.62788 0.0
C963 C 0.32504 0.3263 0.70616 0.0
C964 C 0.35672 0.36966 0.64567 0.0
H965 H 0.41604 0.40503 0.64306 0.0
C966 C 0.34318 0.38207 0.62126 0.0
C967 C 0.38316 0.37825 0.65395 0.0
C968 C 0.39898 0.3651 0.67942 0.0
C969 C 0.35556 0.40264 0.60458 0.0
C970 C 0.38228 0.4107 0.61233 0.0
C971 C 0.3955 0.39884 0.63729 0.0
C972 C 0.39783 0.42975 0.5935 0.0
C973 C 0.34001 0.41551 0.57875 0.0
C974 C 0.40359 0.42379 0.56443 0.0
C975 C 0.42113 0.43991 0.54776 0.0
C976 C 0.43337 0.46227 0.55989 0.0
C977 C 0.42681 0.46869 0.58869 0.0
C978 C 0.40929 0.45247 0.60541 0.0
H979 H 0.31786 0.41289 0.58126 0.0
H980 H 0.34509 0.43676 0.57638 0.0
H981 H 0.3453 0.40638 0.55799 0.0
H982 H 0.39548 0.406 0.5551 0.0
H983 H 0.42612 0.43407 0.52591 0.0
H984 H 0.88202 0.75623 0.94924 0.0
H985 H 0.90622 0.71837 0.97115 0.0
H986 H 0.97364 0.73841 0.91598 0.0
H987 H 0.94948 0.77648 0.89432 0.0
H988 H 0.92201 0.6751 0.9469 0.0
H989 H 1.01501 0.7226 0.99202 0.0
H990 H 0.98591 0.74107 0.97963 0.0
H991 H 1.00919 0.73049 0.9532 0.0
C992 C 0.90233 0.75309 0.94231 0.0
C993 C 0.91374 0.77005 0.92014 0.0
C994 C 0.91619 0.73104 0.95473 0.0
C995 C 0.94225 0.725 0.94579 0.0
C996 C 0.954 0.7424 0.9242 0.0
H997 H 0.05403 0.59348 0.9857 0.0
H998 H 0.03168 0.6336 0.96737 0.0
C999 C 0.94008 0.76445 0.91171 0.0
C1000 C 0.95621 0.7 0.95782 0.0
H1001 H 1.0152 0.67625 0.99028 0.0
C1002 C 0.94234 0.67556 0.95655 0.0
C1003 C 0.98295 0.69979 0.97046 0.0
C1004 C 0.99907 0.72489 0.97422 0.0
C1005 C 0.95426 0.65155 0.96662 0.0
C1006 C 0.98098 0.65132 0.9794 0.0
C1007 C 0.99485 0.67578 0.98067 0.0
C1008 C 0.99487 0.62618 0.99119 0.0
C1009 C 0.93819 0.62648 0.96231 0.0
C1010 C 0.98242 0.60797 1.01141 0.0
C1011 C 0.99525 0.58466 0.02188 0.0
C1012 C 1.02133 0.57857 1.01295 0.0
C1013 C 0.03401 0.59703 0.99323 0.0
C1014 C 1.02112 0.62028 0.98266 0.0
H1015 H 0.92259 0.6289 0.94417 0.0
H1016 H 0.95142 0.61031 0.95702 0.0
H1017 H 0.92761 0.62079 0.98302 0.0
H1018 H 0.96271 0.61184 0.01952 0.0
H1019 H 0.98466 0.57142 0.03724 0.0
H1020 H 0.40666 0.69408 0.16821 0.0
H1021 H 0.43203 0.7315 0.14646 0.0
H1022 H 0.42874 0.69612 0.06161 0.0
H1023 H 0.40306 0.6584 0.08336 0.0
H1024 H 0.48329 0.71447 0.08689 0.0
H1025 H 0.40399 0.78915 0.08254 0.0
H1026 H 0.40604 0.76941 0.11661 0.0
H1027 H 0.39629 0.75439 0.08258 0.0
C1028 C 0.41123 0.69434 0.14489 0.0
C1029 C 0.40306 0.67339 0.12744 0.0
C1030 C 0.42553 0.71574 0.13248 0.0
C1031 C 0.432 0.71654 0.10246 0.0
C1032 C 0.42371 0.69581 0.0848 0.0
H1033 H 0.51274 0.86309 0.04198 0.0
H1034 H 0.48618 0.82223 0.03836 0.0
C1035 C 0.40905 0.67442 0.09717 0.0
C1036 C 0.44875 0.73859 0.09047 0.0
H1037 H 0.44987 0.80514 0.08195 0.0
C1038 C 0.47593 0.73427 0.0851 0.0
C1039 C 0.43894 0.76426 0.08794 0.0
C1040 C 0.40964 0.76967 0.09246 0.0
C1041 C 0.49405 0.7553 0.07929 0.0
C1042 C 0.48465 0.78114 0.0791 0.0
C1043 C 0.45706 0.78529 0.08232 0.0
C1044 C 0.50333 0.80415 0.07881 0.0
C1045 C 0.52324 0.74978 0.07437 0.0
C1046 C 0.52189 0.80734 0.10263 0.0
C1047 C 0.53702 0.83061 0.1048 0.0
C1048 C 0.5338 0.8511 0.08319 0.0
C1049 C 0.51589 0.8475 0.05877 0.0
C1050 C 0.50064 0.82425 0.05671 0.0
H1051 H 0.5255 0.72988 0.06612 0.0
H1052 H 0.53217 0.76441 0.05827 0.0
H1053 H 0.53486 0.75081 0.09576 0.0
H1054 H 0.52387 0.79225 0.12021 0.0
H1055 H 0.55076 0.83283 0.12375 0.0
H1056 H 0.24028 0.20238 0.70122 0.0
H1057 H 0.21132 0.16821 0.68072 0.0
H1058 H 0.14589 0.19112 0.7336 0.0
H1059 H 0.1741 0.22694 0.75242 0.0
H1060 H 0.18729 0.12685 0.70389 0.0
H1061 H 0.10869 0.19223 0.65395 0.0
H1062 H 0.14016 0.20467 0.66952 0.0
H1063 H 0.11315 0.19422 0.69339 0.0
C1064 C 0.21959 0.20056 0.70816 0.0
C1065 C 0.20945 0.21786 0.72809 0.0
C1066 C 0.20311 0.18073 0.69665 0.0
C1067 C 0.1762 0.17739 0.7051 0.0
C1068 C 0.16633 0.19377 0.72608 0.0
H1069 H 0.09184 0.03447 0.64558 0.0
H1070 H 0.11126 0.06763 0.67804 0.0
C1071 C 0.18269 0.214 0.73722 0.0
C1072 C 0.1588 0.1568 0.69154 0.0
H1073 H 0.10104 0.14688 0.64968 0.0
C1074 C 0.16837 0.1312 0.69211 0.0
C1075 C 0.13422 0.16256 0.67594 0.0
C1076 C 0.12353 0.18994 0.67286 0.0
C1077 C 0.15465 0.11144 0.6767 0.0
C1078 C 0.12992 0.11711 0.66137 0.0
C1079 C 0.11987 0.1425 0.66161 0.0
C1080 C 0.11537 0.09771 0.64284 0.0
C1081 C 0.16764 0.08516 0.67577 0.0
C1082 C 0.10964 0.10405 0.61266 0.0
C1083 C 0.09783 0.08542 0.59436 0.0
C1084 C 0.09192 0.05998 0.60581 0.0
C1085 C 0.09664 0.05387 0.63619 0.0
C1086 C 0.10792 0.07272 0.65466 0.0
H1087 H 0.18959 0.08637 0.68163 0.0
H1088 H 0.15806 0.07122 0.69211 0.0
H1089 H 0.16507 0.07713 0.65342 0.0
H1090 H 0.11504 0.12322 0.60303 0.0
H1091 H 0.09426 0.09066 0.57102 0.0
H1092 H 0.6588 0.32565 0.30496 0.0
H1093 H 0.65371 0.36489 0.33295 0.0
H1094 H 0.73201 0.3531 0.37559 0.0
H1095 H 0.7369 0.31344 0.34783 0.0
H1096 H 0.69272 0.36187 0.41513 0.0
H1097 H 0.68912 0.43709 0.32285 0.0
H1098 H 0.66537 0.41064 0.31689 0.0
H1099 H 0.70101 0.40452 0.31837 0.0
C1100 C 0.67496 0.33158 0.32016 0.0
C1101 C 0.69813 0.31654 0.32455 0.0
C1102 C 0.67217 0.35408 0.33593 0.0
C1103 C 0.69267 0.36213 0.35601 0.0
C1104 C 0.71604 0.3473 0.36007 0.0
H1105 H 0.67698 0.48862 0.48086 0.0
H1106 H 0.69834 0.45589 0.45196 0.0
C1107 C 0.71881 0.32474 0.34431 0.0
C1108 C 0.68871 0.385 0.37409 0.0
H1109 H 0.67026 0.44885 0.3688 0.0
C1110 C 0.68837 0.38106 0.4051 0.0
C1111 C 0.68322 0.41004 0.36093 0.0
C1112 C 0.68497 0.41592 0.32795 0.0
C1113 C 0.68092 0.40105 0.42314 0.0
C1114 C 0.6739 0.42559 0.40976 0.0
C1115 C 0.67558 0.42994 0.37893 0.0
C1116 C 0.66184 0.44591 0.42687 0.0
C1117 C 0.6791 0.39543 0.45616 0.0
C1118 C 0.63445 0.45126 0.42197 0.0
C1119 C 0.62224 0.46974 0.43836 0.0
C1120 C 0.63725 0.48343 0.45991 0.0
C1121 C 0.66487 0.47834 0.4645 0.0
C1122 C 0.67708 0.45965 0.44809 0.0
H1123 H 0.68246 0.37451 0.46263 0.0
H1124 H 0.69454 0.40752 0.46798 0.0
H1125 H 0.65897 0.40077 0.4637 0.0
H1126 H 0.62238 0.44083 0.40566 0.0
H1127 H 0.60097 0.47322 0.4341 0.0
loop_
_geom_bond_atom_site_label_1
_geom_bond_atom_site_label_2
_geom_bond_distance
_geom_bond_site_symmetry_2
_ccdc_geom_bond_type
H0 C7 0.929 . S
H1 C10 0.930 . S
H2 C12 0.929 . S
H3 C4 0.969 . S
C4 H3 0.969 . S
C4 O5 1.550 . S
C4 H6 0.973 . S
O5 C4 1.550 . S
O5 C11 1.412 . S
H6 C4 0.973 . S
C7 H0 0.929 . S
C7 C8 1.400 . S
C7 C9 1.364 . S
C8 C7 1.400 . S
C8 C12 1.377 . S
C9 C7 1.364 . S
C9 C10 1.374 . S
C10 H1 0.930 . S
C10 C9 1.374 . S
C10 C11 1.383 . S
C11 O5 1.412 . S
C11 C10 1.383 . S
C11 C12 1.394 . S
C12 H2 0.929 . S
C12 C8 1.377 . S
C12 C11 1.394 . S
H13 C20 0.929 . S
H14 C23 0.930 . S
H15 C25 0.929 . S
H16 C17 0.969 . S
C17 H16 0.969 . S
C17 O18 1.550 . S
C17 H19 0.973 . S
O18 C17 1.550 . S
O18 C24 1.412 . S
H19 C17 0.973 . S
C20 H13 0.929 . S
C20 C21 1.400 . S
C20 C22 1.364 . S
C21 C20 1.400 . S
C21 C25 1.377 . S
C22 C20 1.364 . S
C22 C23 1.374 . S
C23 H14 0.930 . S
C23 C22 1.374 . S
C23 C24 1.383 . S
C24 O18 1.412 . S
C24 C23 1.383 . S
C24 C25 1.394 . S
C25 H15 0.929 . S
C25 C21 1.377 . S
C25 C24 1.394 . S
H26 C33 0.929 . S
H27 C36 0.930 . S
H28 C38 0.929 . S
H29 C30 0.969 . S
C30 H29 0.969 . S
C30 O31 1.550 . S
C30 H32 0.973 . S
O31 C30 1.550 . S
O31 C37 1.412 . S
H32 C30 0.973 . S
C33 H26 0.929 . S
C33 C34 1.400 . S
C33 C35 1.364 . S
C34 C33 1.400 . S
C34 C38 1.377 . S
C35 C33 1.364 . S
C35 C36 1.374 . S
C36 H27 0.930 . S
C36 C35 1.374 . S
C36 C37 1.383 . S
C37 O31 1.412 . S
C37 C36 1.383 . S
C37 C38 1.394 . S
C38 H28 0.929 . S
C38 C34 1.377 . S
C38 C37 1.394 . S
H39 C46 0.929 . S
H40 C49 0.930 . S
H41 C51 0.929 . S
H42 C43 0.969 . S
C43 H42 0.969 . S
C43 O44 1.550 . S
C43 H45 0.973 . S
O44 C43 1.550 . S
O44 C50 1.412 . S
H45 C43 0.973 . S
C46 H39 0.929 . S
C46 C47 1.400 . S
C46 C48 1.364 . S
C47 C46 1.400 . S
C47 C51 1.377 . S
C48 C46 1.364 . S
C48 C49 1.374 . S
C49 H40 0.930 . S
C49 C48 1.374 . S
C49 C50 1.383 . S
C50 O44 1.412 . S
C50 C49 1.383 . S
C50 C51 1.394 . S
C51 H41 0.929 . S
C51 C47 1.377 . S
C51 C50 1.394 . S
H52 C59 0.929 . S
H53 C62 0.930 . S
H54 C64 0.929 . S
H55 C56 0.969 . S
C56 H55 0.969 . S
C56 O57 1.550 . S
C56 H58 0.973 . S
O57 C56 1.550 . S
O57 C63 1.412 . S
H58 C56 0.973 . S
C59 H52 0.929 . S
C59 C60 1.400 . S
C59 C61 1.364 . S
C60 C59 1.400 . S
C60 C64 1.377 . S
C61 C59 1.364 . S
C61 C62 1.374 . S
C62 H53 0.930 . S
C62 C61 1.374 . S
C62 C63 1.383 . S
C63 O57 1.412 . S
C63 C62 1.383 . S
C63 C64 1.394 . S
C64 H54 0.929 . S
C64 C60 1.377 . S
C64 C63 1.394 . S
H65 C72 0.929 . S
H66 C75 0.930 . S
H67 C77 0.929 . S
H68 C69 0.969 . S
C69 H68 0.969 . S
C69 O70 1.550 . S
C69 H71 0.973 . S
O70 C69 1.550 . S
O70 C76 1.412 . S
H71 C69 0.973 . S
C72 H65 0.929 . S
C72 C73 1.400 . S
C72 C74 1.364 . S
C73 C72 1.400 . S
C73 C77 1.377 . S
C74 C72 1.364 . S
C74 C75 1.374 . S
C75 H66 0.930 . S
C75 C74 1.374 . S
C75 C76 1.383 . S
C76 O70 1.412 . S
C76 C75 1.383 . S
C76 C77 1.394 . S
C77 H67 0.929 . S
C77 C73 1.377 . S
C77 C76 1.394 . S
H78 C85 0.929 . S
H79 C88 0.930 . S
H80 C90 0.929 . S
H81 C82 0.969 . S
C82 H81 0.969 . S
C82 O83 1.550 . S
C82 H84 0.973 . S
O83 C82 1.550 . S
O83 C89 1.412 . S
H84 C82 0.973 . S
C85 H78 0.929 . S
C85 C86 1.400 . S
C85 C87 1.364 . S
C86 C85 1.400 . S
C86 C90 1.377 . S
C87 C85 1.364 . S
C87 C88 1.374 . S
C88 H79 0.930 . S
C88 C87 1.374 . S
C88 C89 1.383 . S
C89 O83 1.412 . S
C89 C88 1.383 . S
C89 C90 1.394 . S
C90 H80 0.929 . S
C90 C86 1.377 . S
C90 C89 1.394 . S
H91 C98 0.929 . S
H92 C101 0.930 . S
H93 C103 0.929 . S
H94 C95 0.969 . S
C95 H94 0.969 . S
C95 O96 1.550 . S
C95 H97 0.973 . S
O96 C95 1.550 . S
O96 C102 1.412 . S
H97 C95 0.973 . S
C98 H91 0.929 . S
C98 C99 1.400 . S
C98 C100 1.364 . S
C99 C98 1.400 . S
C99 C103 1.377 . S
C100 C98 1.364 . S
C100 C101 1.374 . S
C101 H92 0.930 . S
C101 C100 1.374 . S
C101 C102 1.383 . S
C102 O96 1.412 . S
C102 C101 1.383 . S
C102 C103 1.394 . S
C103 H93 0.929 . S
C103 C99 1.377 . S
C103 C102 1.394 . S
Nd104 C106 2.836 . S
Nd104 O124 2.500 . S
Nd104 O125 2.492 . S
Nd104 O126 2.487 1_565 S
Nd104 O127 2.682 1_565 S
Nd104 O128 2.410 . S
Nd104 O133 2.414 . S
Nd104 O135 2.424 1_565 S
Nd105 C115 2.836 . S
Nd105 O127 2.414 1_655 S
Nd105 O129 2.424 . S
Nd105 O130 2.500 . S
Nd105 O131 2.492 . S
Nd105 O132 2.487 1_545 S
Nd105 O133 2.682 1_645 S
Nd105 O134 2.410 1_655 S
C106 Nd104 2.836 . S
C106 C107 1.498 . S
C106 O124 1.258 . S
C106 O125 1.239 . S
C107 C106 1.498 . S
C107 C108 1.366 . S
C107 C112 1.407 . S
C108 C107 1.366 . S
C108 C109 1.392 . S
C108 H136 0.930 . S
C109 C108 1.392 . S
C109 C110 1.398 . S
C109 H137 0.929 . S
C110 C109 1.398 . S
C110 C111 1.352 . S
C111 C110 1.352 . S
C111 C112 1.384 . S
C111 H138 0.930 . S
C112 C107 1.407 . S
C112 C111 1.384 . S
C112 H139 0.929 . S
C113 O126 1.241 . S
C113 O127 1.273 . S
C114 O128 1.251 . S
C114 O129 1.268 1_465 S
C115 Nd105 2.836 . S
C115 C116 1.498 . S
C115 O130 1.258 . S
C115 O131 1.239 . S
C116 C115 1.498 . S
C116 C117 1.366 . S
C116 C121 1.407 . S
C117 C116 1.366 . S
C117 C118 1.392 . S
C117 H140 0.930 . S
C118 C117 1.392 . S
C118 C119 1.398 . S
C118 H141 0.929 . S
C119 C118 1.398 . S
C119 C120 1.352 . S
C120 C119 1.352 . S
C120 C121 1.384 . S
C120 H142 0.930 . S
C121 C116 1.407 . S
C121 C120 1.384 . S
C121 H143 0.929 . S
C122 O132 1.241 . S
C122 O133 1.273 1_655 S
C123 O134 1.251 . S
C123 O135 1.268 . S
O124 Nd104 2.500 . S
O124 C106 1.258 . S
O125 Nd104 2.492 . S
O125 C106 1.239 . S
O126 Nd104 2.487 1_545 S
O126 C113 1.241 . S
O127 Nd104 2.682 1_545 S
O127 Nd105 2.414 1_455 S
O127 C113 1.273 . S
O128 Nd104 2.410 . S
O128 C114 1.251 . S
O129 Nd105 2.424 . S
O129 C114 1.268 1_645 S
O130 Nd105 2.500 . S
O130 C115 1.258 . S
O131 Nd105 2.492 . S
O131 C115 1.239 . S
O132 Nd105 2.487 1_565 S
O132 C122 1.241 . S
O133 Nd104 2.414 . S
O133 Nd105 2.682 1_465 S
O133 C122 1.273 1_455 S
O134 Nd105 2.410 1_455 S
O134 C123 1.251 . S
O135 Nd104 2.424 1_545 S
O135 C123 1.268 . S
H136 C108 0.930 . S
H137 C109 0.929 . S
H138 C111 0.930 . S
H139 C112 0.929 . S
H140 C117 0.930 . S
H141 C118 0.929 . S
H142 C120 0.930 . S
H143 C121 0.929 . S
Nd144 C146 2.836 . S
Nd144 O164 2.500 . S
Nd144 O165 2.492 . S
Nd144 O166 2.487 1_565 S
Nd144 O167 2.682 1_565 S
Nd144 O168 2.410 1_554 S
Nd144 O173 2.414 1_554 S
Nd144 O175 2.424 1_565 S
Nd145 C155 2.836 . S
Nd145 O167 2.414 1_556 S
Nd145 O169 2.424 1_545 S
Nd145 O170 2.500 . S
Nd145 O171 2.492 . S
Nd145 O172 2.487 . S
Nd145 O173 2.682 1_545 S
Nd145 O174 2.410 1_556 S
C146 Nd144 2.836 . S
C146 C147 1.498 . S
C146 O164 1.258 . S
C146 O165 1.239 . S
C147 C146 1.498 . S
C147 C148 1.366 . S
C147 C152 1.407 . S
C148 C147 1.366 . S
C148 C149 1.392 . S
C148 H176 0.930 . S
C149 C148 1.392 . S
C149 C150 1.398 . S
C149 H177 0.929 . S
C150 C149 1.398 . S
C150 C151 1.352 . S
C151 C150 1.352 . S
C151 C152 1.384 . S
C151 H178 0.930 . S
C152 C147 1.407 . S
C152 C151 1.384 . S
C152 H179 0.929 . S
C153 O166 1.241 . S
C153 O167 1.273 . S
C154 O168 1.251 . S
C154 O169 1.268 . S
C155 Nd145 2.836 . S
C155 C156 1.498 . S
C155 O170 1.258 . S
C155 O171 1.239 . S
C156 C155 1.498 . S
C156 C157 1.366 . S
C156 C161 1.407 . S
C157 C156 1.366 . S
C157 C158 1.392 . S
C157 H180 0.930 . S
C158 C157 1.392 . S
C158 C159 1.398 . S
C158 H181 0.929 . S
C159 C158 1.398 . S
C159 C160 1.352 . S
C160 C159 1.352 . S
C160 C161 1.384 . S
C160 H182 0.930 . S
C161 C156 1.407 . S
C161 C160 1.384 . S
C161 H183 0.929 . S
C162 O172 1.241 1_565 S
C162 O173 1.273 . S
C163 O174 1.251 . S
C163 O175 1.268 . S
O164 Nd144 2.500 . S
O164 C146 1.258 . S
O165 Nd144 2.492 . S
O165 C146 1.239 . S
O166 Nd144 2.487 1_545 S
O166 C153 1.241 . S
O167 Nd144 2.682 1_545 S
O167 Nd145 2.414 1_554 S
O167 C153 1.273 . S
O168 Nd144 2.410 1_556 S
O168 C154 1.251 . S
O169 Nd145 2.424 1_565 S
O169 C154 1.268 . S
O170 Nd145 2.500 . S
O170 C155 1.258 . S
O171 Nd145 2.492 . S
O171 C155 1.239 . S
O172 Nd145 2.487 . S
O172 C162 1.241 1_545 S
O173 Nd144 2.414 1_556 S
O173 Nd145 2.682 1_565 S
O173 C162 1.273 . S
O174 Nd145 2.410 1_554 S
O174 C163 1.251 . S
O175 Nd144 2.424 1_545 S
O175 C163 1.268 . S
H176 C148 0.930 . S
H177 C149 0.929 . S
H178 C151 0.930 . S
H179 C152 0.929 . S
H180 C157 0.930 . S
H181 C158 0.929 . S
H182 C160 0.930 . S
H183 C161 0.929 . S
Nd184 C186 2.836 . S
Nd184 O204 2.500 . S
Nd184 O205 2.492 . S
Nd184 O206 2.487 . S
Nd184 O207 2.682 . S
Nd184 O208 2.410 . S
Nd184 O213 2.414 . S
Nd184 O215 2.424 . S
Nd185 C195 2.836 . S
Nd185 O207 2.414 . S
Nd185 O209 2.424 . S
Nd185 O210 2.500 . S
Nd185 O211 2.492 . S
Nd185 O212 2.487 . S
Nd185 O213 2.682 . S
Nd185 O214 2.410 . S
C186 Nd184 2.836 . S
C186 C187 1.498 . S
C186 O204 1.258 . S
C186 O205 1.239 . S
C187 C186 1.498 . S
C187 C188 1.366 . S
C187 C192 1.407 . S
C188 C187 1.366 . S
C188 C189 1.392 . S
C188 H216 0.930 . S
C189 C188 1.392 . S
C189 C190 1.398 . S
C189 H217 0.929 . S
C190 C189 1.398 . S
C190 C191 1.352 . S
C191 C190 1.352 . S
C191 C192 1.384 . S
C191 H218 0.930 . S
C192 C187 1.407 . S
C192 C191 1.384 . S
C192 H219 0.929 . S
C193 O206 1.241 . S
C193 O207 1.273 . S
C194 O208 1.251 . S
C194 O209 1.268 . S
C195 Nd185 2.836 . S
C195 C196 1.498 . S
C195 O210 1.258 . S
C195 O211 1.239 . S
C196 C195 1.498 . S
C196 C197 1.366 . S
C196 C201 1.407 . S
C197 C196 1.366 . S
C197 C198 1.392 . S
C197 H220 0.930 . S
C198 C197 1.392 . S
C198 C199 1.398 . S
C198 H221 0.929 . S
C199 C198 1.398 . S
C199 C200 1.352 . S
C200 C199 1.352 . S
C200 C201 1.384 . S
C200 H222 0.930 . S
C201 C196 1.407 . S
C201 C200 1.384 . S
C201 H223 0.929 . S
C202 O212 1.241 . S
C202 O213 1.273 . S
C203 O214 1.251 . S
C203 O215 1.268 . S
O204 Nd184 2.500 . S
O204 C186 1.258 . S
O205 Nd184 2.492 . S
O205 C186 1.239 . S
O206 Nd184 2.487 . S
O206 C193 1.241 . S
O207 Nd184 2.682 . S
O207 Nd185 2.414 . S
O207 C193 1.273 . S
O208 Nd184 2.410 . S
O208 C194 1.251 . S
O209 Nd185 2.424 . S
O209 C194 1.268 . S
O210 Nd185 2.500 . S
O210 C195 1.258 . S
O211 Nd185 2.492 . S
O211 C195 1.239 . S
O212 Nd185 2.487 . S
O212 C202 1.241 . S
O213 Nd184 2.414 . S
O213 Nd185 2.682 . S
O213 C202 1.273 . S
O214 Nd185 2.410 . S
O214 C203 1.251 . S
O215 Nd184 2.424 . S
O215 C203 1.268 . S
H216 C188 0.930 . S
H217 C189 0.929 . S
H218 C191 0.930 . S
H219 C192 0.929 . S
H220 C197 0.930 . S
H221 C198 0.929 . S
H222 C200 0.930 . S
H223 C201 0.929 . S
Nd224 C226 2.844 . S
Nd224 O244 2.500 1_455 S
Nd224 O245 2.492 . S
Nd224 O246 2.487 . S
Nd224 O247 2.682 . S
Nd224 O248 2.410 . S
Nd224 O253 2.414 . S
Nd224 O255 2.424 . S
Nd225 C235 2.836 . S
Nd225 O247 2.414 1_556 S
Nd225 O249 2.424 . S
Nd225 O250 2.500 . S
Nd225 O251 2.492 . S
Nd225 O252 2.487 1_455 S
Nd225 O253 2.682 1_556 S
Nd225 O254 2.410 1_556 S
C226 Nd224 2.844 . S
C226 C227 1.490 1_455 S
C226 O244 1.253 1_455 S
C226 O245 1.251 . S
C227 C226 1.490 1_655 S
C227 C228 1.366 . S
C227 C232 1.407 . S
C228 C227 1.366 . S
C228 C229 1.392 . S
C228 H256 0.930 . S
C229 C228 1.392 . S
C229 C230 1.398 . S
C229 H257 0.929 . S
C230 C229 1.398 . S
C230 C231 1.352 . S
C231 C230 1.352 . S
C231 C232 1.384 . S
C231 H258 0.930 . S
C232 C227 1.407 . S
C232 C231 1.384 . S
C232 H259 0.929 1_655 S
C233 O246 1.241 . S
C233 O247 1.273 . S
C234 O248 1.251 . S
C234 O249 1.268 1_554 S
C235 Nd225 2.836 . S
C235 C236 1.498 . S
C235 O250 1.258 . S
C235 O251 1.239 . S
C236 C235 1.498 . S
C236 C237 1.366 . S
C236 C241 1.407 . S
C237 C236 1.366 . S
C237 C238 1.392 . S
C237 H260 0.930 . S
C238 C237 1.392 . S
C238 C239 1.398 . S
C238 H261 0.929 . S
C239 C238 1.398 . S
C239 C240 1.352 . S
C240 C239 1.352 . S
C240 C241 1.384 . S
C240 H262 0.930 . S
C241 C236 1.407 . S
C241 C240 1.384 . S
C241 H263 0.929 . S
C242 O252 1.241 . S
C242 O253 1.273 1_656 S
C243 O254 1.251 . S
C243 O255 1.268 . S
O244 Nd224 2.500 1_655 S
O244 C226 1.253 1_655 S
O245 Nd224 2.492 . S
O245 C226 1.251 . S
O246 Nd224 2.487 . S
O246 C233 1.241 . S
O247 Nd224 2.682 . S
O247 Nd225 2.414 1_554 S
O247 C233 1.273 . S
O248 Nd224 2.410 . S
O248 C234 1.251 . S
O249 Nd225 2.424 . S
O249 C234 1.268 1_556 S
O250 Nd225 2.500 . S
O250 C235 1.258 . S
O251 Nd225 2.492 . S
O251 C235 1.239 . S
O252 Nd225 2.487 1_655 S
O252 C242 1.241 . S
O253 Nd224 2.414 . S
O253 Nd225 2.682 1_554 S
O253 C242 1.273 1_454 S
O254 Nd225 2.410 1_554 S
O254 C243 1.251 . S
O255 Nd224 2.424 . S
O255 C243 1.268 . S
H256 C228 0.930 . S
H257 C229 0.929 . S
H258 C231 0.930 . S
H259 C232 0.929 1_455 S
H260 C237 0.930 . S
H261 C238 0.929 . S
H262 C240 0.930 . S
H263 C241 0.929 . S
H264 C272 0.929 . S
H265 C274 0.930 . S
H266 C276 0.930 . S
H267 C279 0.929 . S
H268 C282 0.930 . S
H269 C284 0.960 . S
H270 C284 0.960 . S
H271 C284 0.960 . S
C272 H264 0.929 . S
C272 C273 1.377 . S
C272 C274 1.384 . S
C273 C272 1.377 . S
C273 C279 1.390 . S
C274 H265 0.930 . S
C274 C272 1.384 . S
C274 C275 1.372 . S
C275 C274 1.372 . S
C275 C276 1.400 . S
C275 C280 1.490 . S
C276 H266 0.930 . S
C276 C275 1.400 . S
C276 C279 1.386 . S
H277 C293 0.930 . S
H278 C294 0.931 . S
C279 H267 0.929 . S
C279 C273 1.390 . S
C279 C276 1.386 . S
C280 C275 1.490 . S
C280 C282 1.395 . S
C280 C283 1.403 . S
H281 C287 0.930 . S
C282 H268 0.930 . S
C282 C280 1.395 . S
C282 C285 1.403 . S
C283 C280 1.403 . S
C283 C284 1.524 . S
C283 C287 1.400 . S
C284 H269 0.960 . S
C284 H270 0.960 . S
C284 H271 0.960 . S
C284 C283 1.524 . S
C285 C282 1.403 . S
C285 C286 1.392 . S
C285 C289 1.495 . S
C286 C285 1.392 . S
C286 C287 1.385 . S
C286 C288 1.478 . S
C287 H281 0.930 . S
C287 C283 1.400 . S
C287 C286 1.385 . S
C288 C286 1.478 . S
C288 C290 1.381 . S
C288 C294 1.383 . S
C289 C285 1.495 . S
C289 H295 0.959 . S
C289 H296 0.961 . S
C289 H297 0.960 . S
C290 C288 1.381 . S
C290 C291 1.394 . S
C290 H298 0.930 . S
C291 C290 1.394 . S
C291 C292 1.383 . S
C291 H299 0.929 . S
C292 C291 1.383 . S
C292 C293 1.377 . S
C293 H277 0.930 . S
C293 C292 1.377 . S
C293 C294 1.379 . S
C294 H278 0.931 . S
C294 C288 1.383 . S
C294 C293 1.379 . S
H295 C289 0.959 . S
H296 C289 0.961 . S
H297 C289 0.960 . S
H298 C290 0.930 . S
H299 C291 0.929 . S
H300 C308 0.929 . S
H301 C310 0.930 . S
H302 C312 0.930 . S
H303 C315 0.929 . S
H304 C318 0.930 . S
H305 C320 0.960 . S
H306 C320 0.960 . S
H307 C320 0.960 . S
C308 H300 0.929 . S
C308 C309 1.377 . S
C308 C310 1.384 . S
C309 C308 1.377 . S
C309 C315 1.390 . S
C310 H301 0.930 . S
C310 C308 1.384 . S
C310 C311 1.372 . S
C311 C310 1.372 . S
C311 C312 1.400 . S
C311 C316 1.490 . S
C312 H302 0.930 . S
C312 C311 1.400 . S
C312 C315 1.386 . S
H313 C329 0.930 . S
H314 C330 0.931 . S
C315 H303 0.929 . S
C315 C309 1.390 . S
C315 C312 1.386 . S
C316 C311 1.490 . S
C316 C318 1.395 . S
C316 C319 1.403 . S
H317 C323 0.930 . S
C318 H304 0.930 . S
C318 C316 1.395 . S
C318 C321 1.403 . S
C319 C316 1.403 . S
C319 C320 1.524 . S
C319 C323 1.400 . S
C320 H305 0.960 . S
C320 H306 0.960 . S
C320 H307 0.960 . S
C320 C319 1.524 . S
C321 C318 1.403 . S
C321 C322 1.392 . S
C321 C325 1.495 . S
C322 C321 1.392 . S
C322 C323 1.385 . S
C322 C324 1.478 . S
C323 H317 0.930 . S
C323 C319 1.400 . S
C323 C322 1.385 . S
C324 C322 1.478 . S
C324 C326 1.381 . S
C324 C330 1.383 . S
C325 C321 1.495 . S
C325 H331 0.959 . S
C325 H332 0.961 . S
C325 H333 0.960 . S
C326 C324 1.381 . S
C326 C327 1.394 . S
C326 H334 0.930 . S
C327 C326 1.394 . S
C327 C328 1.383 . S
C327 H335 0.929 . S
C328 C327 1.383 . S
C328 C329 1.377 . S
C329 H313 0.930 . S
C329 C328 1.377 . S
C329 C330 1.379 . S
C330 H314 0.931 . S
C330 C324 1.383 . S
C330 C329 1.379 . S
H331 C325 0.959 . S
H332 C325 0.961 . S
H333 C325 0.960 . S
H334 C326 0.930 . S
H335 C327 0.929 . S
H336 C344 0.929 . S
H337 C346 0.930 . S
H338 C348 0.930 . S
H339 C351 0.929 . S
H340 C354 0.930 . S
H341 C356 0.960 . S
H342 C356 0.960 . S
H343 C356 0.960 . S
C344 H336 0.929 . S
C344 C345 1.377 . S
C344 C346 1.384 . S
C345 C344 1.377 . S
C345 C351 1.390 . S
C346 H337 0.930 . S
C346 C344 1.384 . S
C346 C347 1.372 . S
C347 C346 1.372 . S
C347 C348 1.400 . S
C347 C352 1.490 . S
C348 H338 0.930 . S
C348 C347 1.400 . S
C348 C351 1.386 . S
H349 C365 0.930 . S
H350 C366 0.931 . S
C351 H339 0.929 . S
C351 C345 1.390 . S
C351 C348 1.386 . S
C352 C347 1.490 . S
C352 C354 1.395 . S
C352 C355 1.403 . S
H353 C359 0.930 . S
C354 H340 0.930 . S
C354 C352 1.395 . S
C354 C357 1.403 . S
C355 C352 1.403 . S
C355 C356 1.524 . S
C355 C359 1.400 . S
C356 H341 0.960 . S
C356 H342 0.960 . S
C356 H343 0.960 . S
C356 C355 1.524 . S
C357 C354 1.403 . S
C357 C358 1.392 . S
C357 C361 1.495 . S
C358 C357 1.392 . S
C358 C359 1.385 . S
C358 C360 1.478 . S
C359 H353 0.930 . S
C359 C355 1.400 . S
C359 C358 1.385 . S
C360 C358 1.478 . S
C360 C362 1.381 . S
C360 C366 1.383 . S
C361 C357 1.495 . S
C361 H367 0.959 . S
C361 H368 0.961 . S
C361 H369 0.960 . S
C362 C360 1.381 . S
C362 C363 1.394 . S
C362 H370 0.930 . S
C363 C362 1.394 . S
C363 C364 1.383 . S
C363 H371 0.929 . S
C364 C363 1.383 . S
C364 C365 1.377 . S
C365 H349 0.930 . S
C365 C364 1.377 . S
C365 C366 1.379 . S
C366 H350 0.931 . S
C366 C360 1.383 . S
C366 C365 1.379 . S
H367 C361 0.959 . S
H368 C361 0.961 . S
H369 C361 0.960 . S
H370 C362 0.930 . S
H371 C363 0.929 . S
H372 C380 0.929 . S
H373 C382 0.930 . S
H374 C384 0.930 . S
H375 C387 0.929 . S
H376 C390 0.930 . S
H377 C392 0.960 . S
H378 C392 0.960 . S
H379 C392 0.960 . S
C380 H372 0.929 . S
C380 C381 1.377 . S
C380 C382 1.384 . S
C381 C380 1.377 . S
C381 C387 1.390 . S
C382 H373 0.930 . S
C382 C380 1.384 . S
C382 C383 1.372 . S
C383 C382 1.372 . S
C383 C384 1.400 . S
C383 C388 1.490 . S
C384 H374 0.930 . S
C384 C383 1.400 . S
C384 C387 1.386 . S
H385 C401 0.930 . S
H386 C402 0.931 . S
C387 H375 0.929 . S
C387 C381 1.390 . S
C387 C384 1.386 . S
C388 C383 1.490 . S
C388 C390 1.395 . S
C388 C391 1.403 . S
H389 C395 0.930 . S
C390 H376 0.930 . S
C390 C388 1.395 . S
C390 C393 1.403 . S
C391 C388 1.403 . S
C391 C392 1.524 . S
C391 C395 1.400 . S
C392 H377 0.960 . S
C392 H378 0.960 . S
C392 H379 0.960 . S
C392 C391 1.524 . S
C393 C390 1.403 . S
C393 C394 1.392 . S
C393 C397 1.495 . S
C394 C393 1.392 . S
C394 C395 1.385 . S
C394 C396 1.478 . S
C395 H389 0.930 . S
C395 C391 1.400 . S
C395 C394 1.385 . S
C396 C394 1.478 . S
C396 C398 1.381 . S
C396 C402 1.383 . S
C397 C393 1.495 . S
C397 H403 0.959 1_655 S
C397 H404 0.974 . S
C397 H405 0.969 . S
C398 C396 1.381 . S
C398 C399 1.394 . S
C398 H406 0.930 . S
C399 C398 1.394 . S
C399 C400 1.383 . S
C399 H407 0.929 . S
C400 C399 1.383 . S
C400 C401 1.377 . S
C401 H385 0.930 . S
C401 C400 1.377 . S
C401 C402 1.379 . S
C402 H386 0.931 . S
C402 C396 1.383 . S
C402 C401 1.379 . S
H403 C397 0.959 1_455 S
H404 C397 0.974 . S
H405 C397 0.969 . S
H406 C398 0.930 . S
H407 C399 0.929 . S
H408 C416 0.929 . S
H409 C418 0.930 . S
H410 C420 0.930 . S
H411 C423 0.929 . S
H412 C426 0.930 . S
H413 C428 0.960 . S
H414 C428 0.960 . S
H415 C428 0.960 . S
C416 H408 0.929 . S
C416 C417 1.377 . S
C416 C418 1.384 . S
C417 C416 1.377 . S
C417 C423 1.390 . S
C418 H409 0.930 . S
C418 C416 1.384 . S
C418 C419 1.372 . S
C419 C418 1.372 . S
C419 C420 1.400 . S
C419 C424 1.490 . S
C420 H410 0.930 . S
C420 C419 1.400 . S
C420 C423 1.386 . S
H421 C437 0.930 . S
H422 C438 0.931 . S
C423 H411 0.929 . S
C423 C417 1.390 . S
C423 C420 1.386 . S
C424 C419 1.490 . S
C424 C426 1.395 . S
C424 C427 1.403 . S
H425 C431 0.930 . S
C426 H412 0.930 . S
C426 C424 1.395 . S
C426 C429 1.403 . S
C427 C424 1.403 . S
C427 C428 1.524 . S
C427 C431 1.400 . S
C428 H413 0.960 . S
C428 H414 0.960 . S
C428 H415 0.960 . S
C428 C427 1.524 . S
C429 C426 1.403 . S
C429 C430 1.392 . S
C429 C433 1.495 . S
C430 C429 1.392 . S
C430 C431 1.385 . S
C430 C432 1.478 . S
C431 H425 0.930 . S
C431 C427 1.400 . S
C431 C430 1.385 . S
C432 C430 1.478 . S
C432 C434 1.381 . S
C432 C438 1.383 . S
C433 C429 1.495 . S
C433 H439 0.959 . S
C433 H440 0.961 . S
C433 H441 0.960 . S
C434 C432 1.381 . S
C434 C435 1.394 . S
C434 H442 0.930 . S
C435 C434 1.394 . S
C435 C436 1.383 . S
C435 H443 0.929 . S
C436 C435 1.383 . S
C436 C437 1.377 . S
C437 H421 0.930 . S
C437 C436 1.377 . S
C437 C438 1.379 . S
C438 H422 0.931 . S
C438 C432 1.383 . S
C438 C437 1.379 . S
H439 C433 0.959 . S
H440 C433 0.961 . S
H441 C433 0.960 . S
H442 C434 0.930 . S
H443 C435 0.929 . S
H444 C452 0.929 . S
H445 C454 0.930 . S
H446 C456 0.930 . S
H447 C459 0.929 . S
H448 C462 0.930 . S
H449 C464 0.960 . S
H450 C464 0.960 . S
H451 C464 0.960 . S
C452 H444 0.929 . S
C452 C453 1.377 . S
C452 C454 1.384 . S
C453 C452 1.377 . S
C453 C459 1.390 . S
C454 H445 0.930 . S
C454 C452 1.384 . S
C454 C455 1.372 . S
C455 C454 1.372 . S
C455 C456 1.400 . S
C455 C460 1.490 . S
C456 H446 0.930 . S
C456 C455 1.400 . S
C456 C459 1.386 . S
H457 C473 0.930 . S
H458 C474 0.931 . S
C459 H447 0.929 . S
C459 C453 1.390 . S
C459 C456 1.386 . S
C460 C455 1.490 . S
C460 C462 1.395 . S
C460 C463 1.403 . S
H461 C467 0.930 . S
C462 H448 0.930 . S
C462 C460 1.395 . S
C462 C465 1.403 . S
C463 C460 1.403 . S
C463 C464 1.524 . S
C463 C467 1.400 . S
C464 H449 0.960 . S
C464 H450 0.960 . S
C464 H451 0.960 . S
C464 C463 1.524 . S
C465 C462 1.403 . S
C465 C466 1.392 . S
C465 C469 1.495 . S
C466 C465 1.392 . S
C466 C467 1.385 . S
C466 C468 1.478 . S
C467 H461 0.930 . S
C467 C463 1.400 . S
C467 C466 1.385 . S
C468 C466 1.478 . S
C468 C470 1.381 . S
C468 C474 1.383 . S
C469 C465 1.495 . S
C469 H475 0.959 . S
C469 H476 0.961 . S
C469 H477 0.960 . S
C470 C468 1.381 . S
C470 C471 1.394 . S
C470 H478 0.930 . S
C471 C470 1.394 . S
C471 C472 1.383 . S
C471 H479 0.929 . S
C472 C471 1.383 . S
C472 C473 1.377 . S
C473 H457 0.930 . S
C473 C472 1.377 . S
C473 C474 1.379 . S
C474 H458 0.931 . S
C474 C468 1.383 . S
C474 C473 1.379 . S
H475 C469 0.959 . S
H476 C469 0.961 . S
H477 C469 0.960 . S
H478 C470 0.930 . S
H479 C471 0.929 . S
H480 C488 0.929 . S
H481 C490 0.930 . S
H482 C492 0.930 . S
H483 C495 0.929 . S
H484 C498 0.930 . S
H485 C500 0.960 . S
H486 C500 0.960 . S
H487 C500 0.960 . S
C488 H480 0.929 . S
C488 C489 1.377 . S
C488 C490 1.384 . S
C489 C488 1.377 . S
C489 C495 1.390 . S
C490 H481 0.930 . S
C490 C488 1.384 . S
C490 C491 1.372 . S
C491 C490 1.372 . S
C491 C492 1.400 . S
C491 C496 1.490 . S
C492 H482 0.930 . S
C492 C491 1.400 . S
C492 C495 1.386 . S
H493 C509 0.930 . S
H494 C510 0.931 . S
C495 H483 0.929 . S
C495 C489 1.390 . S
C495 C492 1.386 . S
C496 C491 1.490 . S
C496 C498 1.395 . S
C496 C499 1.403 . S
H497 C503 0.930 . S
C498 H484 0.930 . S
C498 C496 1.395 . S
C498 C501 1.403 . S
C499 C496 1.403 . S
C499 C500 1.524 . S
C499 C503 1.400 . S
C500 H485 0.960 . S
C500 H486 0.960 . S
C500 H487 0.960 . S
C500 C499 1.524 . S
C501 C498 1.403 . S
C501 C502 1.392 . S
C501 C505 1.495 . S
C502 C501 1.392 . S
C502 C503 1.385 . S
C502 C504 1.478 . S
C503 H497 0.930 . S
C503 C499 1.400 . S
C503 C502 1.385 . S
C504 C502 1.478 . S
C504 C506 1.381 . S
C504 C510 1.383 . S
C505 C501 1.495 . S
C505 H511 0.959 . S
C505 H512 0.961 . S
C505 H513 0.960 . S
C506 C504 1.381 . S
C506 C507 1.394 . S
C506 H514 0.930 . S
C507 C506 1.394 . S
C507 C508 1.383 . S
C507 H515 0.929 1_556 S
C508 C507 1.383 . S
C508 C509 1.377 . S
C509 H493 0.930 . S
C509 C508 1.377 . S
C509 C510 1.379 . S
C510 H494 0.931 . S
C510 C504 1.383 . S
C510 C509 1.379 . S
H511 C505 0.959 . S
H512 C505 0.961 . S
H513 C505 0.960 . S
H514 C506 0.930 . S
H515 C507 0.929 1_554 S
H516 C524 0.929 . S
H517 C526 0.930 . S
H518 C528 0.930 . S
H519 C531 0.929 . S
H520 C534 0.930 . S
H521 C536 0.960 . S
H522 C536 0.960 . S
H523 C536 0.960 . S
C524 H516 0.929 . S
C524 C525 1.377 . S
C524 C526 1.384 . S
C525 C524 1.377 . S
C525 C531 1.390 . S
C526 H517 0.930 . S
C526 C524 1.384 . S
C526 C527 1.372 . S
C527 C526 1.372 . S
C527 C528 1.400 . S
C527 C532 1.490 . S
C528 H518 0.930 . S
C528 C527 1.400 . S
C528 C531 1.386 . S
H529 C545 0.930 . S
H530 C546 0.931 . S
C531 H519 0.929 . S
C531 C525 1.390 . S
C531 C528 1.386 . S
C532 C527 1.490 . S
C532 C534 1.395 . S
C532 C535 1.403 . S
H533 C539 0.930 . S
C534 H520 0.930 . S
C534 C532 1.395 . S
C534 C537 1.403 . S
C535 C532 1.403 . S
C535 C536 1.524 . S
C535 C539 1.400 . S
C536 H521 0.960 . S
C536 H522 0.960 . S
C536 H523 0.960 . S
C536 C535 1.524 . S
C537 C534 1.403 . S
C537 C538 1.392 . S
C537 C541 1.495 . S
C538 C537 1.392 . S
C538 C539 1.385 . S
C538 C540 1.478 . S
C539 H533 0.930 . S
C539 C535 1.400 . S
C539 C538 1.385 . S
C540 C538 1.478 . S
C540 C542 1.381 . S
C540 C546 1.383 . S
C541 C537 1.495 . S
C541 H547 0.959 . S
C541 H548 0.961 . S
C541 H549 0.960 . S
C542 C540 1.381 . S
C542 C543 1.394 . S
C542 H550 0.930 . S
C543 C542 1.394 . S
C543 C544 1.383 . S
C543 H551 0.929 . S
C544 C543 1.383 . S
C544 C545 1.377 . S
C545 H529 0.930 . S
C545 C544 1.377 . S
C545 C546 1.379 . S
C546 H530 0.931 . S
C546 C540 1.383 . S
C546 C545 1.379 . S
H547 C541 0.959 . S
H548 C541 0.961 . S
H549 C541 0.960 . S
H550 C542 0.930 . S
H551 C543 0.929 . S
H552 C560 0.929 . S
H553 C562 0.930 . S
H554 C564 0.930 . S
H555 C567 0.929 . S
H556 C570 0.930 . S
H557 C572 0.960 . S
H558 C572 0.960 . S
H559 C572 0.960 . S
C560 H552 0.929 . S
C560 C561 1.377 . S
C560 C562 1.384 . S
C561 C560 1.377 . S
C561 C567 1.390 . S
C562 H553 0.930 . S
C562 C560 1.384 . S
C562 C563 1.372 . S
C563 C562 1.372 . S
C563 C564 1.400 . S
C563 C568 1.490 . S
C564 H554 0.930 . S
C564 C563 1.400 . S
C564 C567 1.386 . S
H565 C581 0.930 . S
H566 C582 0.931 . S
C567 H555 0.929 . S
C567 C561 1.390 . S
C567 C564 1.386 . S
C568 C563 1.490 . S
C568 C570 1.395 . S
C568 C571 1.403 . S
H569 C575 0.930 . S
C570 H556 0.930 . S
C570 C568 1.395 . S
C570 C573 1.403 . S
C571 C568 1.403 . S
C571 C572 1.524 . S
C571 C575 1.400 . S
C572 H557 0.960 . S
C572 H558 0.960 . S
C572 H559 0.960 . S
C572 C571 1.524 . S
C573 C570 1.403 . S
C573 C574 1.392 . S
C573 C577 1.495 . S
C574 C573 1.392 . S
C574 C575 1.385 . S
C574 C576 1.478 . S
C575 H569 0.930 . S
C575 C571 1.400 . S
C575 C574 1.385 . S
C576 C574 1.478 . S
C576 C578 1.381 . S
C576 C582 1.383 . S
C577 C573 1.495 . S
C577 H583 0.959 . S
C577 H584 0.961 . S
C577 H585 0.960 . S
C578 C576 1.381 . S
C578 C579 1.394 . S
C578 H586 0.930 . S
C579 C578 1.394 . S
C579 C580 1.383 . S
C579 H587 0.929 . S
C580 C579 1.383 . S
C580 C581 1.377 . S
C581 H565 0.930 . S
C581 C580 1.377 . S
C581 C582 1.379 . S
C582 H566 0.931 . S
C582 C576 1.383 . S
C582 C581 1.379 . S
H583 C577 0.959 . S
H584 C577 0.961 . S
H585 C577 0.960 . S
H586 C578 0.930 . S
H587 C579 0.929 . S
H588 C596 0.929 . S
H589 C598 0.930 . S
H590 C600 0.930 . S
H591 C603 0.929 . S
H592 C606 0.930 . S
H593 C608 0.960 . S
H594 C608 0.960 . S
H595 C608 0.960 . S
C596 H588 0.929 . S
C596 C597 1.377 . S
C596 C598 1.384 . S
C597 C596 1.377 . S
C597 C603 1.390 . S
C598 H589 0.930 . S
C598 C596 1.384 . S
C598 C599 1.372 . S
C599 C598 1.372 . S
C599 C600 1.400 . S
C599 C604 1.490 . S
C600 H590 0.930 . S
C600 C599 1.400 . S
C600 C603 1.386 . S
H601 C617 0.930 . S
H602 C618 0.931 . S
C603 H591 0.929 . S
C603 C597 1.390 . S
C603 C600 1.386 . S
C604 C599 1.490 . S
C604 C606 1.395 . S
C604 C607 1.403 . S
H605 C611 0.930 . S
C606 H592 0.930 . S
C606 C604 1.395 . S
C606 C609 1.403 . S
C607 C604 1.403 . S
C607 C608 1.524 . S
C607 C611 1.400 . S
C608 H593 0.960 . S
C608 H594 0.960 . S
C608 H595 0.960 . S
C608 C607 1.524 . S
C609 C606 1.403 . S
C609 C610 1.392 . S
C609 C613 1.495 . S
C610 C609 1.392 . S
C610 C611 1.385 . S
C610 C612 1.478 . S
C611 H605 0.930 . S
C611 C607 1.400 . S
C611 C610 1.385 . S
C612 C610 1.478 . S
C612 C614 1.381 . S
C612 C618 1.383 . S
C613 C609 1.495 . S
C613 H619 0.959 . S
C613 H620 0.961 . S
C613 H621 0.960 . S
C614 C612 1.381 . S
C614 C615 1.394 . S
C614 H622 0.930 . S
C615 C614 1.394 . S
C615 C616 1.383 . S
C615 H623 0.929 . S
C616 C615 1.383 . S
C616 C617 1.377 . S
C617 H601 0.930 . S
C617 C616 1.377 . S
C617 C618 1.379 . S
C618 H602 0.931 . S
C618 C612 1.383 . S
C618 C617 1.379 . S
H619 C613 0.959 . S
H620 C613 0.961 . S
H621 C613 0.960 . S
H622 C614 0.930 . S
H623 C615 0.929 . S
H624 C632 0.929 . S
H625 C634 0.930 . S
H626 C636 0.930 . S
H627 C639 0.929 . S
H628 C642 0.930 . S
H629 C644 0.960 . S
H630 C644 0.960 . S
H631 C644 0.960 . S
C632 H624 0.929 . S
C632 C633 1.377 . S
C632 C634 1.384 . S
C633 C632 1.377 . S
C633 C639 1.390 . S
C634 H625 0.930 . S
C634 C632 1.384 . S
C634 C635 1.372 . S
C635 C634 1.372 . S
C635 C636 1.400 . S
C635 C640 1.490 . S
C636 H626 0.930 . S
C636 C635 1.400 . S
C636 C639 1.386 . S
H637 C653 0.930 . S
H638 C654 0.931 . S
C639 H627 0.929 . S
C639 C633 1.390 . S
C639 C636 1.386 . S
C640 C635 1.490 . S
C640 C642 1.395 . S
C640 C643 1.403 . S
H641 C647 0.930 . S
C642 H628 0.930 . S
C642 C640 1.395 . S
C642 C645 1.403 . S
C643 C640 1.403 . S
C643 C644 1.524 . S
C643 C647 1.400 . S
C644 H629 0.960 . S
C644 H630 0.960 . S
C644 H631 0.960 . S
C644 C643 1.524 . S
C645 C642 1.403 . S
C645 C646 1.392 . S
C645 C649 1.495 . S
C646 C645 1.392 . S
C646 C647 1.385 . S
C646 C648 1.478 . S
C647 H641 0.930 . S
C647 C643 1.400 . S
C647 C646 1.385 . S
C648 C646 1.478 . S
C648 C650 1.381 . S
C648 C654 1.383 . S
C649 C645 1.495 . S
C649 H655 0.959 . S
C649 H656 0.961 . S
C649 H657 0.960 . S
C650 C648 1.381 . S
C650 C651 1.394 . S
C650 H658 0.930 . S
C651 C650 1.394 . S
C651 C652 1.383 . S
C651 H659 0.929 . S
C652 C651 1.383 . S
C652 C653 1.377 . S
C653 H637 0.930 . S
C653 C652 1.377 . S
C653 C654 1.379 . S
C654 H638 0.931 . S
C654 C648 1.383 . S
C654 C653 1.379 . S
H655 C649 0.959 . S
H656 C649 0.961 . S
H657 C649 0.960 . S
H658 C650 0.930 . S
H659 C651 0.929 . S
H660 C668 0.929 . S
H661 C670 0.930 . S
H662 C672 0.930 . S
H663 C675 0.929 . S
H664 C678 0.930 . S
H665 C680 0.960 . S
H666 C680 0.960 . S
H667 C680 0.960 . S
C668 H660 0.929 . S
C668 C669 1.377 . S
C668 C670 1.384 . S
C669 C668 1.377 . S
C669 C675 1.390 . S
C670 H661 0.930 . S
C670 C668 1.384 . S
C670 C671 1.372 . S
C671 C670 1.372 . S
C671 C672 1.400 . S
C671 C676 1.490 . S
C672 H662 0.930 . S
C672 C671 1.400 . S
C672 C675 1.386 . S
H673 C689 0.930 . S
H674 C690 0.931 . S
C675 H663 0.929 . S
C675 C669 1.390 . S
C675 C672 1.386 . S
C676 C671 1.490 . S
C676 C678 1.395 . S
C676 C679 1.403 . S
H677 C683 0.930 . S
C678 H664 0.930 . S
C678 C676 1.395 . S
C678 C681 1.403 . S
C679 C676 1.403 . S
C679 C680 1.524 . S
C679 C683 1.400 . S
C680 H665 0.960 . S
C680 H666 0.960 . S
C680 H667 0.960 . S
C680 C679 1.524 . S
C681 C678 1.403 . S
C681 C682 1.392 . S
C681 C685 1.495 . S
C682 C681 1.392 . S
C682 C683 1.385 . S
C682 C684 1.478 . S
C683 H677 0.930 . S
C683 C679 1.400 . S
C683 C682 1.385 . S
C684 C682 1.478 . S
C684 C686 1.381 . S
C684 C690 1.383 . S
C685 C681 1.495 . S
C685 H691 0.959 . S
C685 H692 0.961 . S
C685 H693 0.960 . S
C686 C684 1.381 . S
C686 C687 1.394 . S
C686 H694 0.930 . S
C687 C686 1.394 . S
C687 C688 1.383 . S
C687 H695 0.929 . S
C688 C687 1.383 . S
C688 C689 1.377 . S
C689 H673 0.930 . S
C689 C688 1.377 . S
C689 C690 1.379 . S
C690 H674 0.931 . S
C690 C684 1.383 . S
C690 C689 1.379 . S
H691 C685 0.959 . S
H692 C685 0.961 . S
H693 C685 0.960 . S
H694 C686 0.930 . S
H695 C687 0.929 . S
H696 C704 0.929 . S
H697 C706 0.930 . S
H698 C708 0.930 . S
H699 C711 0.929 . S
H700 C714 0.930 . S
H701 C716 0.965 . S
H702 C716 0.960 . S
H703 C716 0.960 . S
C704 H696 0.929 . S
C704 C705 1.377 . S
C704 C706 1.384 . S
C705 C704 1.377 . S
C705 C711 1.390 . S
C706 H697 0.930 . S
C706 C704 1.384 . S
C706 C707 1.372 . S
C707 C706 1.372 . S
C707 C708 1.400 . S
C707 C712 1.490 . S
C708 H698 0.930 . S
C708 C707 1.400 . S
C708 C711 1.386 . S
H709 C725 0.930 . S
H710 C726 0.931 . S
C711 H699 0.929 . S
C711 C705 1.390 . S
C711 C708 1.386 . S
C712 C707 1.490 . S
C712 C714 1.395 . S
C712 C715 1.403 . S
H713 C719 0.930 . S
C714 H700 0.930 . S
C714 C712 1.395 . S
C714 C717 1.403 . S
C715 C712 1.403 . S
C715 C716 1.524 . S
C715 C719 1.400 . S
C716 H701 0.965 . S
C716 H702 0.960 . S
C716 H703 0.960 . S
C716 C715 1.524 . S
C717 C714 1.403 . S
C717 C718 1.392 . S
C717 C721 1.495 . S
C718 C717 1.392 . S
C718 C719 1.385 . S
C718 C720 1.478 . S
C719 H713 0.930 . S
C719 C715 1.400 . S
C719 C718 1.385 . S
C720 C718 1.478 . S
C720 C722 1.381 . S
C720 C726 1.383 . S
C721 C717 1.495 . S
C721 H727 0.959 . S
C721 H728 0.961 . S
C721 H729 0.960 . S
C722 C720 1.381 . S
C722 C723 1.394 . S
C722 H730 0.930 . S
C723 C722 1.394 . S
C723 C724 1.383 . S
C723 H731 0.929 . S
C724 C723 1.383 . S
C724 C725 1.377 . S
C725 H709 0.930 . S
C725 C724 1.377 . S
C725 C726 1.379 . S
C726 H710 0.931 . S
C726 C720 1.383 . S
C726 C725 1.379 . S
H727 C721 0.959 . S
H728 C721 0.961 . S
H729 C721 0.960 . S
H730 C722 0.930 . S
H731 C723 0.929 . S
H732 C740 0.929 . S
H733 C742 0.930 . S
H734 C744 0.930 . S
H735 C747 0.929 . S
H736 C750 0.930 . S
H737 C752 0.960 . S
H738 C752 0.960 . S
H739 C752 0.960 . S
C740 H732 0.929 . S
C740 C741 1.377 . S
C740 C742 1.384 . S
C741 C740 1.377 . S
C741 C747 1.390 . S
C742 H733 0.930 . S
C742 C740 1.384 . S
C742 C743 1.372 . S
C743 C742 1.372 . S
C743 C744 1.400 . S
C743 C748 1.490 . S
C744 H734 0.930 . S
C744 C743 1.400 . S
C744 C747 1.386 . S
H745 C761 0.930 . S
H746 C762 0.931 . S
C747 H735 0.929 . S
C747 C741 1.390 . S
C747 C744 1.386 . S
C748 C743 1.490 . S
C748 C750 1.395 . S
C748 C751 1.403 . S
H749 C755 0.930 . S
C750 H736 0.930 . S
C750 C748 1.395 . S
C750 C753 1.403 . S
C751 C748 1.403 . S
C751 C752 1.524 . S
C751 C755 1.400 . S
C752 H737 0.960 . S
C752 H738 0.960 . S
C752 H739 0.960 . S
C752 C751 1.524 . S
C753 C750 1.403 . S
C753 C754 1.392 . S
C753 C757 1.495 . S
C754 C753 1.392 . S
C754 C755 1.385 . S
C754 C756 1.478 . S
C755 H749 0.930 . S
C755 C751 1.400 . S
C755 C754 1.385 . S
C756 C754 1.478 . S
C756 C758 1.381 . S
C756 C762 1.383 . S
C757 C753 1.495 . S
C757 H763 0.959 . S
C757 H764 0.961 . S
C757 H765 0.960 . S
C758 C756 1.381 . S
C758 C759 1.394 . S
C758 H766 0.930 . S
C759 C758 1.394 . S
C759 C760 1.383 . S
C759 H767 0.929 . S
C760 C759 1.383 . S
C760 C761 1.377 . S
C761 H745 0.930 . S
C761 C760 1.377 . S
C761 C762 1.379 . S
C762 H746 0.931 . S
C762 C756 1.383 . S
C762 C761 1.379 . S
H763 C757 0.959 . S
H764 C757 0.961 . S
H765 C757 0.960 . S
H766 C758 0.930 . S
H767 C759 0.929 . S
H768 C776 0.929 . S
H769 C778 0.930 . S
H770 C780 0.930 . S
H771 C783 0.929 . S
H772 C786 0.930 . S
H773 C788 0.960 . S
H774 C788 0.960 . S
H775 C788 0.960 . S
C776 H768 0.929 . S
C776 C777 1.377 . S
C776 C778 1.384 . S
C777 C776 1.377 . S
C777 C783 1.390 . S
C778 H769 0.930 . S
C778 C776 1.384 . S
C778 C779 1.372 . S
C779 C778 1.372 . S
C779 C780 1.400 . S
C779 C784 1.490 . S
C780 H770 0.930 . S
C780 C779 1.400 . S
C780 C783 1.386 . S
H781 C797 0.930 . S
H782 C798 0.931 . S
C783 H771 0.929 . S
C783 C777 1.390 . S
C783 C780 1.386 . S
C784 C779 1.490 . S
C784 C786 1.395 . S
C784 C787 1.403 . S
H785 C791 0.930 . S
C786 H772 0.930 . S
C786 C784 1.395 . S
C786 C789 1.403 . S
C787 C784 1.403 . S
C787 C788 1.524 . S
C787 C791 1.400 . S
C788 H773 0.960 . S
C788 H774 0.960 . S
C788 H775 0.960 . S
C788 C787 1.524 . S
C789 C786 1.403 . S
C789 C790 1.392 . S
C789 C793 1.495 . S
C790 C789 1.392 . S
C790 C791 1.385 . S
C790 C792 1.478 . S
C791 H785 0.930 . S
C791 C787 1.400 . S
C791 C790 1.385 . S
C792 C790 1.478 . S
C792 C794 1.381 . S
C792 C798 1.383 . S
C793 C789 1.495 . S
C793 H799 0.959 . S
C793 H800 0.961 . S
C793 H801 0.960 . S
C794 C792 1.381 . S
C794 C795 1.394 . S
C794 H802 0.930 . S
C795 C794 1.394 . S
C795 C796 1.383 . S
C795 H803 0.929 . S
C796 C795 1.383 . S
C796 C797 1.377 . S
C797 H781 0.930 . S
C797 C796 1.377 . S
C797 C798 1.379 . S
C798 H782 0.931 . S
C798 C792 1.383 . S
C798 C797 1.379 . S
H799 C793 0.959 . S
H800 C793 0.961 . S
H801 C793 0.960 . S
H802 C794 0.930 . S
H803 C795 0.929 . S
H804 C812 0.929 . S
H805 C814 0.930 . S
H806 C816 0.930 . S
H807 C819 0.929 . S
H808 C822 0.930 . S
H809 C824 0.960 . S
H810 C824 0.960 . S
H811 C824 0.960 . S
C812 H804 0.929 . S
C812 C813 1.377 . S
C812 C814 1.384 . S
C813 C812 1.377 . S
C813 C819 1.390 . S
C814 H805 0.930 . S
C814 C812 1.384 . S
C814 C815 1.372 . S
C815 C814 1.372 . S
C815 C816 1.400 . S
C815 C820 1.490 . S
C816 H806 0.930 . S
C816 C815 1.400 . S
C816 C819 1.386 . S
H817 C833 0.930 . S
H818 C834 0.931 . S
C819 H807 0.929 . S
C819 C813 1.390 . S
C819 C816 1.386 . S
C820 C815 1.490 . S
C820 C822 1.395 . S
C820 C823 1.403 . S
H821 C827 0.930 . S
C822 H808 0.930 . S
C822 C820 1.395 . S
C822 C825 1.403 . S
C823 C820 1.403 . S
C823 C824 1.524 . S
C823 C827 1.400 . S
C824 H809 0.960 . S
C824 H810 0.960 . S
C824 H811 0.960 . S
C824 C823 1.524 . S
C825 C822 1.403 . S
C825 C826 1.392 . S
C825 C829 1.495 . S
C826 C825 1.392 . S
C826 C827 1.385 . S
C826 C828 1.478 . S
C827 H821 0.930 . S
C827 C823 1.400 . S
C827 C826 1.385 . S
C828 C826 1.478 . S
C828 C830 1.381 . S
C828 C834 1.383 . S
C829 C825 1.495 . S
C829 H835 0.959 . S
C829 H836 0.961 . S
C829 H837 0.960 . S
C830 C828 1.381 . S
C830 C831 1.394 . S
C830 H838 0.930 . S
C831 C830 1.394 . S
C831 C832 1.383 . S
C831 H839 0.929 . S
C832 C831 1.383 . S
C832 C833 1.377 . S
C833 H817 0.930 . S
C833 C832 1.377 . S
C833 C834 1.379 . S
C834 H818 0.931 . S
C834 C828 1.383 . S
C834 C833 1.379 . S
H835 C829 0.959 . S
H836 C829 0.961 . S
H837 C829 0.960 . S
H838 C830 0.930 . S
H839 C831 0.929 . S
H840 C848 0.929 . S
H841 C850 0.930 . S
H842 C852 0.930 . S
H843 C855 0.929 . S
H844 C858 0.930 . S
H845 C860 0.960 . S
H846 C860 0.960 . S
H847 C860 0.960 . S
C848 H840 0.929 . S
C848 C849 1.377 . S
C848 C850 1.384 . S
C849 C848 1.377 . S
C849 C855 1.390 . S
C850 H841 0.930 . S
C850 C848 1.384 . S
C850 C851 1.372 . S
C851 C850 1.372 . S
C851 C852 1.400 . S
C851 C856 1.490 . S
C852 H842 0.930 . S
C852 C851 1.400 . S
C852 C855 1.386 . S
H853 C869 0.930 1_554 S
H854 C870 0.931 . S
C855 H843 0.929 . S
C855 C849 1.390 . S
C855 C852 1.386 . S
C856 C851 1.490 . S
C856 C858 1.395 . S
C856 C859 1.403 . S
H857 C863 0.930 . S
C858 H844 0.930 . S
C858 C856 1.395 . S
C858 C861 1.403 . S
C859 C856 1.403 . S
C859 C860 1.524 . S
C859 C863 1.400 . S
C860 H845 0.960 . S
C860 H846 0.960 . S
C860 H847 0.960 . S
C860 C859 1.524 . S
C861 C858 1.403 . S
C861 C862 1.392 . S
C861 C865 1.495 . S
C862 C861 1.392 . S
C862 C863 1.385 . S
C862 C864 1.478 . S
C863 H857 0.930 . S
C863 C859 1.400 . S
C863 C862 1.385 . S
C864 C862 1.478 . S
C864 C866 1.381 . S
C864 C870 1.383 . S
C865 C861 1.495 . S
C865 H871 0.959 . S
C865 H872 0.961 . S
C865 H873 0.960 . S
C866 C864 1.381 . S
C866 C867 1.394 . S
C866 H874 0.930 . S
C867 C866 1.394 . S
C867 C868 1.383 . S
C867 H875 0.929 . S
C868 C867 1.383 . S
C868 C869 1.377 . S
C869 H853 0.930 1_556 S
C869 C868 1.377 . S
C869 C870 1.379 . S
C870 H854 0.931 . S
C870 C864 1.383 . S
C870 C869 1.379 . S
H871 C865 0.959 . S
H872 C865 0.961 . S
H873 C865 0.960 . S
H874 C866 0.930 . S
H875 C867 0.929 . S
H876 C884 0.929 . S
H877 C886 0.930 . S
H878 C888 0.930 . S
H879 C891 0.929 . S
H880 C894 0.930 . S
H881 C896 0.960 . S
H882 C896 0.960 . S
H883 C896 0.960 . S
C884 H876 0.929 . S
C884 C885 1.377 . S
C884 C886 1.384 . S
C885 C884 1.377 . S
C885 C891 1.390 . S
C886 H877 0.930 . S
C886 C884 1.384 . S
C886 C887 1.372 . S
C887 C886 1.372 . S
C887 C888 1.400 . S
C887 C892 1.490 . S
C888 H878 0.930 . S
C888 C887 1.400 . S
C888 C891 1.386 . S
H889 C905 0.930 . S
H890 C906 0.931 . S
C891 H879 0.929 . S
C891 C885 1.390 . S
C891 C888 1.386 . S
C892 C887 1.490 . S
C892 C894 1.395 . S
C892 C895 1.403 . S
H893 C899 0.930 . S
C894 H880 0.930 . S
C894 C892 1.395 . S
C894 C897 1.403 . S
C895 C892 1.403 . S
C895 C896 1.524 . S
C895 C899 1.400 . S
C896 H881 0.960 . S
C896 H882 0.960 . S
C896 H883 0.960 . S
C896 C895 1.524 . S
C897 C894 1.403 . S
C897 C898 1.392 . S
C897 C901 1.495 . S
C898 C897 1.392 . S
C898 C899 1.385 . S
C898 C900 1.478 . S
C899 H893 0.930 . S
C899 C895 1.400 . S
C899 C898 1.385 . S
C900 C898 1.478 . S
C900 C902 1.381 . S
C900 C906 1.383 . S
C901 C897 1.495 . S
C901 H907 0.959 . S
C901 H908 0.961 . S
C901 H909 0.960 . S
C902 C900 1.381 . S
C902 C903 1.394 . S
C902 H910 0.930 . S
C903 C902 1.394 . S
C903 C904 1.383 . S
C903 H911 0.929 . S
C904 C903 1.383 . S
C904 C905 1.377 . S
C905 H889 0.930 . S
C905 C904 1.377 . S
C905 C906 1.379 . S
C906 H890 0.931 . S
C906 C900 1.383 . S
C906 C905 1.379 . S
H907 C901 0.959 . S
H908 C901 0.961 . S
H909 C901 0.960 . S
H910 C902 0.930 . S
H911 C903 0.929 . S
H912 C920 0.929 . S
H913 C922 0.930 . S
H914 C924 0.930 . S
H915 C927 0.929 . S
H916 C930 0.930 . S
H917 C932 0.960 . S
H918 C932 0.960 . S
H919 C932 0.960 . S
C920 H912 0.929 . S
C920 C921 1.377 . S
C920 C922 1.384 . S
C921 C920 1.377 . S
C921 C927 1.390 . S
C922 H913 0.930 . S
C922 C920 1.384 . S
C922 C923 1.372 . S
C923 C922 1.372 . S
C923 C924 1.400 . S
C923 C928 1.490 . S
C924 H914 0.930 . S
C924 C923 1.400 . S
C924 C927 1.386 . S
H925 C941 0.930 . S
H926 C942 0.931 . S
C927 H915 0.929 . S
C927 C921 1.390 . S
C927 C924 1.386 . S
C928 C923 1.490 . S
C928 C930 1.395 . S
C928 C931 1.403 . S
H929 C935 0.930 . S
C930 H916 0.930 . S
C930 C928 1.395 . S
C930 C933 1.403 . S
C931 C928 1.403 . S
C931 C932 1.524 . S
C931 C935 1.400 . S
C932 H917 0.960 . S
C932 H918 0.960 . S
C932 H919 0.960 . S
C932 C931 1.524 . S
C933 C930 1.403 . S
C933 C934 1.392 . S
C933 C937 1.495 . S
C934 C933 1.392 . S
C934 C935 1.385 . S
C934 C936 1.478 . S
C935 H929 0.930 . S
C935 C931 1.400 . S
C935 C934 1.385 . S
C936 C934 1.478 . S
C936 C938 1.381 . S
C936 C942 1.383 . S
C937 C933 1.495 . S
C937 H943 0.959 . S
C937 H944 0.961 . S
C937 H945 0.960 . S
C938 C936 1.381 . S
C938 C939 1.394 . S
C938 H946 0.930 . S
C939 C938 1.394 . S
C939 C940 1.383 . S
C939 H947 0.929 . S
C940 C939 1.383 . S
C940 C941 1.377 . S
C941 H925 0.930 . S
C941 C940 1.377 . S
C941 C942 1.379 . S
C942 H926 0.931 . S
C942 C936 1.383 . S
C942 C941 1.379 . S
H943 C937 0.959 . S
H944 C937 0.961 . S
H945 C937 0.960 . S
H946 C938 0.930 . S
H947 C939 0.929 . S
H948 C956 0.929 . S
H949 C958 0.930 . S
H950 C960 0.930 . S
H951 C963 0.929 . S
H952 C966 0.930 . S
H953 C968 0.960 . S
H954 C968 0.960 . S
H955 C968 0.960 . S
C956 H948 0.929 . S
C956 C957 1.377 . S
C956 C958 1.384 . S
C957 C956 1.377 . S
C957 C963 1.390 . S
C958 H949 0.930 . S
C958 C956 1.384 . S
C958 C959 1.372 . S
C959 C958 1.372 . S
C959 C960 1.400 . S
C959 C964 1.490 . S
C960 H950 0.930 . S
C960 C959 1.400 . S
C960 C963 1.386 . S
H961 C977 0.930 . S
H962 C978 0.931 . S
C963 H951 0.929 . S
C963 C957 1.390 . S
C963 C960 1.386 . S
C964 C959 1.490 . S
C964 C966 1.395 . S
C964 C967 1.403 . S
H965 C971 0.930 . S
C966 H952 0.930 . S
C966 C964 1.395 . S
C966 C969 1.403 . S
C967 C964 1.403 . S
C967 C968 1.524 . S
C967 C971 1.400 . S
C968 H953 0.960 . S
C968 H954 0.960 . S
C968 H955 0.960 . S
C968 C967 1.524 . S
C969 C966 1.403 . S
C969 C970 1.392 . S
C969 C973 1.495 . S
C970 C969 1.392 . S
C970 C971 1.385 . S
C970 C972 1.478 . S
C971 H965 0.930 . S
C971 C967 1.400 . S
C971 C970 1.385 . S
C972 C970 1.478 . S
C972 C974 1.381 . S
C972 C978 1.383 . S
C973 C969 1.495 . S
C973 H979 0.959 . S
C973 H980 0.961 . S
C973 H981 0.960 . S
C974 C972 1.381 . S
C974 C975 1.394 . S
C974 H982 0.930 . S
C975 C974 1.394 . S
C975 C976 1.383 . S
C975 H983 0.929 . S
C976 C975 1.383 . S
C976 C977 1.377 . S
C977 H961 0.930 . S
C977 C976 1.377 . S
C977 C978 1.379 . S
C978 H962 0.931 . S
C978 C972 1.383 . S
C978 C977 1.379 . S
H979 C973 0.959 . S
H980 C973 0.961 . S
H981 C973 0.960 . S
H982 C974 0.930 . S
H983 C975 0.929 . S
H984 C992 0.929 . S
H985 C994 0.930 . S
H986 C996 0.930 . S
H987 C999 0.929 . S
H988 C1002 0.930 . S
H989 C1004 0.960 . S
H990 C1004 0.960 . S
H991 C1004 0.960 1_556 S
C992 H984 0.929 . S
C992 C993 1.377 . S
C992 C994 1.384 . S
C993 C992 1.377 . S
C993 C999 1.390 . S
C994 H985 0.930 . S
C994 C992 1.384 . S
C994 C995 1.372 . S
C995 C994 1.372 . S
C995 C996 1.400 . S
C995 C1000 1.490 . S
C996 H986 0.930 . S
C996 C995 1.400 . S
C996 C999 1.386 . S
H997 C1013 0.930 . S
H998 C1014 0.931 . S
C999 H987 0.929 . S
C999 C993 1.390 . S
C999 C996 1.386 . S
C1000 C995 1.490 . S
C1000 C1002 1.395 . S
C1000 C1003 1.403 . S
H1001 C1007 0.930 1_554 S
C1002 H988 0.930 . S
C1002 C1000 1.395 . S
C1002 C1005 1.403 . S
C1003 C1000 1.403 . S
C1003 C1004 1.524 1_556 S
C1003 C1007 1.400 . S
C1004 H989 0.960 . S
C1004 H990 0.960 . S
C1004 H991 0.960 1_554 S
C1004 C1003 1.524 1_554 S
C1005 C1002 1.403 . S
C1005 C1006 1.392 . S
C1005 C1009 1.495 . S
C1006 C1005 1.392 . S
C1006 C1007 1.385 . S
C1006 C1008 1.478 . S
C1007 H1001 0.930 1_556 S
C1007 C1003 1.400 . S
C1007 C1006 1.385 . S
C1008 C1006 1.478 . S
C1008 C1010 1.381 . S
C1008 C1014 1.383 1_655 S
C1009 C1005 1.495 . S
C1009 H1015 0.959 . S
C1009 H1016 0.961 . S
C1009 H1017 0.960 . S
C1010 C1008 1.381 . S
C1010 C1011 1.394 . S
C1010 H1018 0.930 . S
C1011 C1010 1.394 . S
C1011 C1012 1.344 1_655 S
C1011 H1019 0.929 1_556 S
C1012 C1011 1.344 1_455 S
C1012 C1013 1.397 . S
C1013 H997 0.930 . S
C1013 C1012 1.397 . S
C1013 C1014 1.379 . S
C1014 H998 0.931 . S
C1014 C1008 1.383 1_455 S
C1014 C1013 1.379 . S
H1015 C1009 0.959 . S
H1016 C1009 0.961 . S
H1017 C1009 0.960 . S
H1018 C1010 0.930 . S
H1019 C1011 0.929 1_554 S
H1020 C1028 0.929 . S
H1021 C1030 0.930 . S
H1022 C1032 0.930 . S
H1023 C1035 0.929 . S
H1024 C1038 0.930 . S
H1025 C1040 0.960 . S
H1026 C1040 0.960 . S
H1027 C1040 0.960 . S
C1028 H1020 0.929 . S
C1028 C1029 1.377 . S
C1028 C1030 1.384 . S
C1029 C1028 1.377 . S
C1029 C1035 1.390 . S
C1030 H1021 0.930 . S
C1030 C1028 1.384 . S
C1030 C1031 1.372 . S
C1031 C1030 1.372 . S
C1031 C1032 1.400 . S
C1031 C1036 1.490 . S
C1032 H1022 0.930 . S
C1032 C1031 1.400 . S
C1032 C1035 1.386 . S
H1033 C1049 0.930 . S
H1034 C1050 0.931 . S
C1035 H1023 0.929 . S
C1035 C1029 1.390 . S
C1035 C1032 1.386 . S
C1036 C1031 1.490 . S
C1036 C1038 1.395 . S
C1036 C1039 1.403 . S
H1037 C1043 0.930 . S
C1038 H1024 0.930 . S
C1038 C1036 1.395 . S
C1038 C1041 1.403 . S
C1039 C1036 1.403 . S
C1039 C1040 1.524 . S
C1039 C1043 1.400 . S
C1040 H1025 0.960 . S
C1040 H1026 0.960 . S
C1040 H1027 0.960 . S
C1040 C1039 1.524 . S
C1041 C1038 1.403 . S
C1041 C1042 1.392 . S
C1041 C1045 1.495 . S
C1042 C1041 1.392 . S
C1042 C1043 1.385 . S
C1042 C1044 1.478 . S
C1043 H1037 0.930 . S
C1043 C1039 1.400 . S
C1043 C1042 1.385 . S
C1044 C1042 1.478 . S
C1044 C1046 1.381 . S
C1044 C1050 1.383 . S
C1045 C1041 1.495 . S
C1045 H1051 0.959 . S
C1045 H1052 0.961 . S
C1045 H1053 0.960 . S
C1046 C1044 1.381 . S
C1046 C1047 1.394 . S
C1046 H1054 0.930 . S
C1047 C1046 1.394 . S
C1047 C1048 1.383 . S
C1047 H1055 0.929 . S
C1048 C1047 1.383 . S
C1048 C1049 1.377 . S
C1049 H1033 0.930 . S
C1049 C1048 1.377 . S
C1049 C1050 1.379 . S
C1050 H1034 0.931 . S
C1050 C1044 1.383 . S
C1050 C1049 1.379 . S
H1051 C1045 0.959 . S
H1052 C1045 0.961 . S
H1053 C1045 0.960 . S
H1054 C1046 0.930 . S
H1055 C1047 0.929 . S
H1056 C1064 0.929 . S
H1057 C1066 0.930 . S
H1058 C1068 0.930 . S
H1059 C1071 0.929 . S
H1060 C1074 0.930 . S
H1061 C1076 0.960 . S
H1062 C1076 0.960 . S
H1063 C1076 0.960 . S
C1064 H1056 0.929 . S
C1064 C1065 1.377 . S
C1064 C1066 1.384 . S
C1065 C1064 1.377 . S
C1065 C1071 1.390 . S
C1066 H1057 0.930 . S
C1066 C1064 1.384 . S
C1066 C1067 1.372 . S
C1067 C1066 1.372 . S
C1067 C1068 1.400 . S
C1067 C1072 1.490 . S
C1068 H1058 0.930 . S
C1068 C1067 1.400 . S
C1068 C1071 1.386 . S
H1069 C1085 0.930 . S
H1070 C1086 0.931 . S
C1071 H1059 0.929 . S
C1071 C1065 1.390 . S
C1071 C1068 1.386 . S
C1072 C1067 1.490 . S
C1072 C1074 1.395 . S
C1072 C1075 1.403 . S
H1073 C1079 0.930 . S
C1074 H1060 0.930 . S
C1074 C1072 1.395 . S
C1074 C1077 1.403 . S
C1075 C1072 1.403 . S
C1075 C1076 1.524 . S
C1075 C1079 1.400 . S
C1076 H1061 0.960 . S
C1076 H1062 0.960 . S
C1076 H1063 0.960 . S
C1076 C1075 1.524 . S
C1077 C1074 1.403 . S
C1077 C1078 1.392 . S
C1077 C1081 1.495 . S
C1078 C1077 1.392 . S
C1078 C1079 1.385 . S
C1078 C1080 1.478 . S
C1079 H1073 0.930 . S
C1079 C1075 1.400 . S
C1079 C1078 1.385 . S
C1080 C1078 1.478 . S
C1080 C1082 1.381 . S
C1080 C1086 1.383 . S
C1081 C1077 1.495 . S
C1081 H1087 0.959 . S
C1081 H1088 0.961 . S
C1081 H1089 0.960 . S
C1082 C1080 1.381 . S
C1082 C1083 1.394 . S
C1082 H1090 0.930 . S
C1083 C1082 1.394 . S
C1083 C1084 1.383 . S
C1083 H1091 0.929 . S
C1084 C1083 1.383 . S
C1084 C1085 1.377 . S
C1085 H1069 0.930 . S
C1085 C1084 1.377 . S
C1085 C1086 1.379 . S
C1086 H1070 0.931 . S
C1086 C1080 1.383 . S
C1086 C1085 1.379 . S
H1087 C1081 0.959 . S
H1088 C1081 0.961 . S
H1089 C1081 0.960 . S
H1090 C1082 0.930 . S
H1091 C1083 0.929 . S
H1092 C1100 0.929 . S
H1093 C1102 0.930 . S
H1094 C1104 0.930 . S
H1095 C1107 0.929 . S
H1096 C1110 0.930 . S
H1097 C1112 0.960 . S
H1098 C1112 0.960 . S
H1099 C1112 0.960 . S
C1100 H1092 0.929 . S
C1100 C1101 1.377 . S
C1100 C1102 1.384 . S
C1101 C1100 1.377 . S
C1101 C1107 1.390 . S
C1102 H1093 0.930 . S
C1102 C1100 1.384 . S
C1102 C1103 1.372 . S
C1103 C1102 1.372 . S
C1103 C1104 1.400 . S
C1103 C1108 1.490 . S
C1104 H1094 0.930 . S
C1104 C1103 1.400 . S
C1104 C1107 1.386 . S
H1105 C1121 0.930 . S
H1106 C1122 0.931 . S
C1107 H1095 0.929 . S
C1107 C1101 1.390 . S
C1107 C1104 1.386 . S
C1108 C1103 1.490 . S
C1108 C1110 1.395 . S
C1108 C1111 1.403 . S
H1109 C1115 0.930 . S
C1110 H1096 0.930 . S
C1110 C1108 1.395 . S
C1110 C1113 1.403 . S
C1111 C1108 1.403 . S
C1111 C1112 1.524 . S
C1111 C1115 1.400 . S
C1112 H1097 0.960 . S
C1112 H1098 0.960 . S
C1112 H1099 0.960 . S
C1112 C1111 1.524 . S
C1113 C1110 1.403 . S
C1113 C1114 1.392 . S
C1113 C1117 1.495 . S
C1114 C1113 1.392 . S
C1114 C1115 1.385 . S
C1114 C1116 1.478 . S
C1115 H1109 0.930 . S
C1115 C1111 1.400 . S
C1115 C1114 1.385 . S
C1116 C1114 1.478 . S
C1116 C1118 1.381 . S
C1116 C1122 1.383 . S
C1117 C1113 1.495 . S
C1117 H1123 0.959 . S
C1117 H1124 0.961 . S
C1117 H1125 0.960 . S
C1118 C1116 1.381 . S
C1118 C1119 1.394 . S
C1118 H1126 0.930 . S
C1119 C1118 1.394 . S
C1119 C1120 1.383 . S
C1119 H1127 0.929 . S
C1120 C1119 1.383 . S
C1120 C1121 1.377 . S
C1121 H1105 0.930 . S
C1121 C1120 1.377 . S
C1121 C1122 1.379 . S
C1122 H1106 0.931 . S
C1122 C1116 1.383 . S
C1122 C1121 1.379 . S
H1123 C1117 0.959 . S
H1124 C1117 0.961 . S
H1125 C1117 0.960 . S
H1126 C1118 0.930 . S
H1127 C1119 0.929 . S
C273 C9 3.427 . S
C292 C123 3.383 . S
C309 C21 2.069 . S
C328 C154 2.098 . S
C364 C193 0.705 . S
C345 C30 0.776 . S
C381 C43 0.515 . S
C400 C230 0.168 . S
C436 C153 2.735 . S
C417 C4 2.806 . S
C472 C110 1.983 . S
C453 C22 1.974 . S
C508 C242 0.890 . S
C489 C34 0.858 . S
C544 C199 0.691 . S
C525 C48 0.712 . S
C561 C8 2.309 . S
C580 C243 2.292 . S
C616 C159 1.441 . S
C597 C35 1.445 . S
C633 C47 0.542 . S
C652 C122 0.514 . S
C669 C17 2.056 . S
C688 C194 2.188 . S
C724 C114 2.826 1_655 S
C705 C60 2.847 . S
C741 C74 2.482 . S
C760 C163 2.539 . S
C777 C82 0.577 . S
C796 C202 0.544 . S
C813 C100 0.669 . S
C832 C239 0.690 . S
C849 C61 3.324 . S
C868 C162 3.271 . S
C904 C119 1.508 . S
C885 C73 1.497 . S
C940 C233 1.437 . S
C921 C87 1.452 . S
C976 C190 0.620 . S
C957 C95 0.605 . S
C993 C56 2.463 . S
C1012 C234 2.532 1_556 S
C1048 C150 1.425 . S
C1029 C86 1.417 . S
C1084 C113 0.490 . S
C1065 C99 0.457 . S
C1101 C69 2.161 . S
C1120 C203 2.275 . S
