# Generated by pormake.
# Topology rtl, (3,6)-cn, num edge types: 1
# Building blocks:
#     Node 0, Type 0, BuildingBlock: BETDAH_clean_linker_0, # of connection points: 3
#     Node 1, Type 0, BuildingBlock: BETDAH_clean_linker_0, # of connection points: 3
#     Node 2, Type 0, BuildingBlock: BETDAH_clean_linker_0, # of connection points: 3
#     Node 3, Type 0, BuildingBlock: BETDAH_clean_linker_0, # of connection points: 3
#     Node 4, Type 1, BuildingBlock: CIFDUS_clean_sbu_1, # of connection points: 6
#     Node 5, Type 1, BuildingBlock: CIFDUS_clean_sbu_1, # of connection points: 6
#     Edge 6, Type (0, 1), BuildingBlock: XUDNAN_clean_linker_2, # of connection points: 2
#     Edge 7, Type (0, 1), BuildingBlock: XUDNAN_clean_linker_2, # of connection points: 2
#     Edge 8, Type (0, 1), BuildingBlock: XUDNAN_clean_linker_2, # of connection points: 2
#     Edge 9, Type (0, 1), BuildingBlock: XUDNAN_clean_linker_2, # of connection points: 2
#     Edge 10, Type (0, 1), BuildingBlock: XUDNAN_clean_linker_2, # of connection points: 2
#     Edge 11, Type (0, 1), BuildingBlock: XUDNAN_clean_linker_2, # of connection points: 2
#     Edge 12, Type (0, 1), BuildingBlock: XUDNAN_clean_linker_2, # of connection points: 2
#     Edge 13, Type (0, 1), BuildingBlock: XUDNAN_clean_linker_2, # of connection points: 2
#     Edge 14, Type (0, 1), BuildingBlock: XUDNAN_clean_linker_2, # of connection points: 2
#     Edge 15, Type (0, 1), BuildingBlock: XUDNAN_clean_linker_2, # of connection points: 2
#     Edge 16, Type (0, 1), BuildingBlock: XUDNAN_clean_linker_2, # of connection points: 2
#     Edge 17, Type (0, 1), BuildingBlock: XUDNAN_clean_linker_2, # of connection points: 2
# Relax obj value: 0.016
# Max RMSD: 0.113
# Mean RMSD: 0.085
data_MOF--net-rtl--node1-CIFDUS_clean_sbu_1--node2-BETDAH_clean_linker_0--edge1-XUDNAN_clean_linker_2
_symmetry_space_group_name_H-M    P1
_symmetry_Int_Tables_number       1
_symmetry_cell_setting            triclinic
loop_
_symmetry_equiv_pos_as_xyz
'x, y, z'
_cell_length_a     35.350184
_cell_length_b     35.380078
_cell_length_c     22.043366
_cell_angle_alpha  90.88067
_cell_angle_beta   99.419175
_cell_angle_gamma 90.266366
loop_
_atom_site_label
_atom_site_type_symbol
_atom_site_fract_x
_atom_site_fract_y
_atom_site_fract_z
_atom_type_partial_charge
H0 H 0.15098 0.90922 0.08349 0.0
H1 H 0.22106 0.82453 0.18493 0.0
H2 H 0.19442 0.81595 0.98901 0.0
C3 C 0.16952 0.88484 0.08476 0.0
C4 C 0.17336 0.86618 0.02909 0.0
C5 C 0.18646 0.87012 0.1418 0.0
C6 C 0.20865 0.83718 0.14184 0.0
C7 C 0.21135 0.81734 0.08741 0.0
C8 C 0.19451 0.83245 0.03088 0.0
N9 N 0.21828 0.77801 0.09208 0.0
C10 C 0.2508 0.7592 0.08033 0.0
H11 H 0.65006 0.65286 0.56475 0.0
H12 H 0.70942 0.75389 0.53111 0.0
H13 H 0.69934 0.72622 0.71645 0.0
C14 C 0.66528 0.67804 0.58353 0.0
C15 C 0.67204 0.6856 0.64755 0.0
C16 C 0.67726 0.70307 0.54157 0.0
C17 C 0.69972 0.73481 0.56343 0.0
C18 C 0.70882 0.74212 0.62716 0.0
C19 C 0.69372 0.71843 0.66824 0.0
N20 N 0.73168 0.77381 0.65182 0.0
C21 C 0.75951 0.79146 0.62365 0.0
H22 H 0.87256 0.14836 0.02829 0.0
H23 H 0.82856 0.2552 0.08262 0.0
H24 H 0.82453 0.22763 0.89154 0.0
C25 C 0.85845 0.17501 0.01648 0.0
C26 C 0.84866 0.18443 0.9542 0.0
C27 C 0.85178 0.20036 0.06364 0.0
C28 C 0.83303 0.23485 0.04729 0.0
C29 C 0.82303 0.24448 0.98497 0.0
C30 C 0.83134 0.21943 0.93925 0.0
N31 N 0.81093 0.28147 0.9671 0.0
C32 C 0.77793 0.29898 0.98018 0.0
H33 H 0.3754 0.3951 0.5121 0.0
H34 H 0.27731 0.35866 0.59073 0.0
H35 H 0.27293 0.35569 0.3957 0.0
C36 C 0.34645 0.38407 0.50748 0.0
C37 C 0.3262 0.37676 0.44792 0.0
C38 C 0.32966 0.37749 0.56033 0.0
C39 C 0.29208 0.36222 0.55187 0.0
C40 C 0.27224 0.35311 0.49281 0.0
C41 C 0.28934 0.36054 0.44118 0.0
N42 N 0.23274 0.3433 0.48488 0.0
C43 C 0.21889 0.3063 0.47708 0.0
O44 O 0.98861 0.06743 0.47517 0.0
Mn45 Mn 0.01019 0.02504 0.53921 0.0
O46 O 0.94973 0.03902 0.39829 0.0
Mn47 Mn 0.96886 0.99293 0.42285 0.0
O48 O 0.0315 0.98395 0.60548 0.0
O49 O 0.05157 0.06555 0.57311 0.0
Mn50 Mn 0.05313 0.06051 0.65352 0.0
O51 O 0.97109 0.04435 0.59555 0.0
O52 O 0.07245 0.01432 0.67812 0.0
O53 O 0.04967 1.00471 0.4849 0.0
O54 O 0.0149 0.97994 0.39955 0.0
O55 O 0.08729 0.09736 0.6499 0.0
O56 O 0.00707 0.07378 0.67585 0.0
C57 C 0.94389 0.95786 0.48 0.0
C58 C 0.96401 0.06865 0.42534 0.0
C59 C 0.05728 0.98405 0.65415 0.0
C60 C 0.07797 0.09163 0.59108 0.0
C61 C 0.97474 0.06346 0.64634 0.0
C62 C 0.04693 0.98764 0.43253 0.0
O63 O 0.96953 0.98379 0.50307 0.0
O64 O 0.93408 0.95622 0.42069 0.0
O65 O 0.54182 0.56227 0.13212 0.0
Mn66 Mn 0.51506 0.52534 0.06073 0.0
O67 O 0.57586 0.52689 0.20343 0.0
Mn68 Mn 0.55195 0.4838 0.16903 0.0
O69 O 0.48727 0.49271 0.98614 0.0
O70 O 0.47832 0.5688 0.03441 0.0
Mn71 Mn 0.48694 0.57982 0.96009 0.0
O72 O 0.55591 0.54197 1.00508 0.0
O73 O 0.47356 0.53633 0.91204 0.0
O74 O 0.47347 0.50617 0.1127 0.0
O75 O 0.50506 0.47258 0.18959 0.0
O76 O 0.44993 0.61277 0.97382 0.0
O77 O 0.53647 0.59719 0.96688 0.0
C78 C 0.57558 0.45227 0.10483 0.0
C79 C 0.56594 0.55896 0.18213 0.0
C80 C 0.47375 0.50215 0.93045 0.0
C81 C 0.45262 0.59534 0.02553 0.0
C82 C 0.56202 0.57226 0.97654 0.0
C83 C 0.47419 0.48526 0.16008 0.0
O84 O 0.55216 0.48055 0.08769 0.0
O85 O 0.58229 0.44454 0.16291 0.0
H86 H 0.2274 0.25271 0.56341 0.0
H87 H 0.16486 0.27946 0.384 0.0
H88 H 0.12511 0.22135 0.38512 0.0
H89 H 0.22617 0.14865 0.54481 0.0
H90 H 0.21949 0.14206 0.62331 0.0
H91 H 0.2454 0.1828 0.60349 0.0
H92 H 0.19915 0.22676 0.65106 0.0
H93 H 0.17315 0.18626 0.67092 0.0
H94 H 0.14826 0.22278 0.62449 0.0
H95 H 0.08641 0.16284 0.41438 0.0
H96 H 0.05513 0.11291 0.46824 0.0
H97 H 0.14647 0.1252 0.62466 0.0
C98 C 0.20611 0.24563 0.52362 0.0
C99 C 0.19947 0.26991 0.47322 0.0
C100 C 0.17064 0.26063 0.42265 0.0
C101 C 0.14793 0.22774 0.423 0.0
C102 C 0.15461 0.20445 0.47424 0.0
C103 C 0.18338 0.21305 0.52333 0.0
C104 C 0.18317 0.18579 0.57521 0.0
C105 C 0.22079 0.16349 0.58738 0.0
C106 C 0.17546 0.20664 0.63383 0.0
C107 C 0.14972 0.16062 0.5483 0.0
C108 C 0.13325 0.17145 0.49011 0.0
C109 C 0.09963 0.15381 0.45956 0.0
C110 C 0.08208 0.12529 0.49019 0.0
C111 C 0.09827 0.11498 0.55064 0.0
C112 C 0.1332 0.13217 0.57839 0.0
H113 H 0.32767 0.75595 0.12777 0.0
H114 H 0.23336 0.69461 0.01847 0.0
H115 H 0.27459 0.6386 0.01575 0.0
H116 H 0.40054 0.72239 0.0487 0.0
H117 H 0.43659 0.71912 0.11649 0.0
H118 H 0.39821 0.75238 0.1149 0.0
H119 H 0.38163 0.72262 0.21417 0.0
H120 H 0.41911 0.68819 0.21416 0.0
H121 H 0.37048 0.67288 0.21467 0.0
H122 H 0.32518 0.5898 0.02332 0.0
H123 H 0.38581 0.55811 0.01357 0.0
H124 H 0.44955 0.65152 0.11054 0.0
C125 C 0.316 0.73069 0.10308 0.0
C126 C 0.27751 0.72929 0.07306 0.0
C127 C 0.26291 0.69601 0.0414 0.0
C128 C 0.28591 0.66394 0.04046 0.0
C129 C 0.3235 0.66558 0.07172 0.0
C130 C 0.33886 0.69835 0.10113 0.0
C131 C 0.38126 0.69349 0.12564 0.0
C132 C 0.40557 0.72361 0.09982 0.0
C133 C 0.38855 0.69436 0.19635 0.0
C134 C 0.38782 0.65402 0.10121 0.0
C135 C 0.35359 0.63771 0.07351 0.0
C136 C 0.35214 0.60207 0.04538 0.0
C137 C 0.38676 0.58389 0.04101 0.0
C138 C 0.42226 0.60197 0.06251 0.0
C139 C 0.42277 0.63651 0.09582 0.0
H140 H 0.7933 0.8592 0.66161 0.0
H141 H 0.79663 0.76514 0.53441 0.0
H142 H 0.85199 0.79479 0.49713 0.0
H143 H 0.8132 0.93199 0.56391 0.0
H144 H 0.84352 0.95949 0.62235 0.0
H145 H 0.80696 0.92912 0.64331 0.0
H146 H 0.85843 0.89557 0.72098 0.0
H147 H 0.89524 0.9256 0.69932 0.0
H148 H 0.89943 0.87495 0.69452 0.0
H149 H 0.90592 0.83379 0.47367 0.0
H150 H 0.94694 0.88527 0.44825 0.0
H151 H 0.90688 0.95844 0.5838 0.0
C152 C 0.80594 0.84495 0.62605 0.0
C153 C 0.79102 0.80987 0.6007 0.0
C154 C 0.80789 0.79192 0.55429 0.0
C155 C 0.83948 0.80842 0.53334 0.0
C156 C 0.85395 0.84281 0.55961 0.0
C157 C 0.83752 0.86123 0.60436 0.0
C158 C 0.8573 0.89922 0.62156 0.0
C159 C 0.82852 0.93189 0.61215 0.0
C160 C 0.87886 0.89882 0.68805 0.0
C161 C 0.8855 0.9005 0.57629 0.0
C162 C 0.88414 0.86669 0.54342 0.0
C163 C 0.90718 0.86032 0.49907 0.0
C164 C 0.93065 0.88979 0.48531 0.0
C165 C 0.93031 0.92593 0.51406 0.0
C166 C 0.9084 0.931 0.56192 0.0
H167 H 0.73092 0.29788 0.06662 0.0
H168 H 0.75077 0.35313 0.90074 0.0
H169 H 0.69582 0.39571 0.90634 0.0
H170 H 0.62609 0.3025 0.03699 0.0
H171 H 0.62293 0.31184 0.11662 0.0
H172 H 0.66218 0.28456 0.0968 0.0
H173 H 0.71079 0.33102 0.16018 0.0
H174 H 0.67173 0.35817 0.18056 0.0
H175 H 0.70764 0.38081 0.144 0.0
H176 H 0.64073 0.4362 0.93641 0.0
H177 H 0.59324 0.46982 0.98935 0.0
H178 H 0.60855 0.38471 0.13071 0.0
C179 C 0.72325 0.31864 0.03116 0.0
C180 C 0.74466 0.32231 0.98311 0.0
C181 C 0.73435 0.34997 0.9378 0.0
C182 C 0.70318 0.37418 0.94054 0.0
C183 C 0.68247 0.37014 0.98877 0.0
C184 C 0.69212 0.34288 0.03311 0.0
C185 C 0.66674 0.34535 0.08185 0.0
C186 C 0.64308 0.30889 0.08309 0.0
C187 C 0.69065 0.35439 0.14537 0.0
C188 C 0.64155 0.37828 0.05845 0.0
C189 C 0.6508 0.39249 1.0048 0.0
C190 C 0.63288 0.42488 0.978 0.0
C191 C 0.60572 0.44372 0.00798 0.0
C192 C 0.59695 0.42994 0.06401 0.0
C193 C 0.61432 0.39609 0.08778 0.0
H194 H 0.17284 0.94427 0.17647 0.0
H195 H 0.17225 0.82853 0.23963 0.0
H196 H 0.14927 0.85017 0.3327 0.0
H197 H 0.19564 0.99016 0.33575 0.0
H198 H 0.16393 0.02907 0.31357 0.0
H199 H 0.18884 0.00656 0.25774 0.0
H200 H 0.1241 0.99381 0.18619 0.0
H201 H 0.09918 0.01648 0.24139 0.0
H202 H 0.08654 0.96878 0.21555 0.0
H203 H 0.11845 0.88142 0.41191 0.0
H204 H 0.07565 0.91972 0.46574 0.0
H205 H 0.09042 0.01479 0.35038 0.0
C206 C 0.16866 0.92358 0.21047 0.0
C207 C 0.17567 0.88469 0.2008 0.0
C208 C 0.169 0.85862 0.24635 0.0
C209 C 0.15563 0.87062 0.29971 0.0
C210 C 0.14875 0.90889 0.30749 0.0
C211 C 0.15485 0.93509 0.26415 0.0
C212 C 0.14049 0.97377 0.28043 0.0
C213 C 0.17423 1.00154 0.29789 0.0
C214 C 0.1108 0.98907 0.22777 0.0
C215 C 0.12252 0.96433 0.33647 0.0
C216 C 0.12925 0.92709 0.3528 0.0
C217 C 0.11374 0.91086 0.40055 0.0
C218 C 0.08966 0.93283 0.43114 0.0
C219 C 0.08082 0.97034 0.4132 0.0
C220 C 0.09798 0.98657 0.36615 0.0
H221 H 0.69212 0.6799 0.77654 0.0
H222 H 0.612 0.63286 0.62188 0.0
H223 H 0.58818 0.58919 0.69066 0.0
H224 H 0.70667 0.59537 0.87121 0.0
H225 H 0.70428 0.62109 0.94166 0.0
H226 H 0.72214 0.64407 0.87943 0.0
H227 H 0.67149 0.69692 0.87904 0.0
H228 H 0.65425 0.67454 0.94202 0.0
H229 H 0.62153 0.68411 0.87231 0.0
H230 H 0.5714 0.55007 0.77548 0.0
H231 H 0.54904 0.53259 0.87143 0.0
H232 H 0.62812 0.6137 0.97321 0.0
C233 C 0.66968 0.66068 0.75603 0.0
C234 C 0.656 0.65963 0.6915 0.0
C235 C 0.62577 0.6336 0.66931 0.0
C236 C 0.61139 0.60841 0.70855 0.0
C237 C 0.62619 0.60993 0.77093 0.0
C238 C 0.65358 0.63635 0.79497 0.0
C239 C 0.6598 0.63623 0.86491 0.0
C240 C 0.70066 0.62344 0.89083 0.0
C241 C 0.65122 0.67526 0.89109 0.0
C242 C 0.63048 0.60667 0.87611 0.0
C243 C 0.613 0.59046 0.8211 0.0
C244 C 0.58495 0.56248 0.81884 0.0
C245 C 0.57281 0.55232 0.87378 0.0
C246 C 0.58745 0.57118 0.92986 0.0
C247 C 0.61739 0.59801 0.93132 0.0
H248 H 0.92156 0.17001 0.11078 0.0
H249 H 0.81611 0.21007 0.16515 0.0
H250 H 0.83987 0.19092 0.27224 0.0
H251 H 0.92921 0.0883 0.19571 0.0
H252 H 0.98076 0.08982 0.2152 0.0
H253 H 0.95744 0.1118 0.14627 0.0
H254 H 0.99161 0.17511 0.18284 0.0
H255 H 0.01454 0.1533 0.2526 0.0
H256 H 0.98618 0.19519 0.25656 0.0
H257 H 0.87201 0.15948 0.37053 0.0
H258 H 0.90697 0.11589 0.4467 0.0
H259 H 0.99116 0.09695 0.32786 0.0
C260 C 0.90351 0.1751 0.14524 0.0
C261 C 0.86681 0.19147 0.12931 0.0
C262 C 0.84441 0.19792 0.17618 0.0
C263 C 0.85775 0.18716 0.2372 0.0
C264 C 0.89384 0.17049 0.25101 0.0
C265 C 0.91642 0.16467 0.20616 0.0
C266 C 0.95261 0.14339 0.23112 0.0
C267 C 0.95511 0.10612 0.19496 0.0
C268 C 0.98835 0.16824 0.23075 0.0
C269 C 0.94612 0.13638 0.2963 0.0
C270 C 0.91251 0.15297 0.30753 0.0
C271 C 0.89886 0.14729 0.36274 0.0
C272 C 0.91911 0.12285 0.40617 0.0
C273 C 0.95256 0.10437 0.39414 0.0
C274 C 0.9667 0.11219 0.33935 0.0
H275 H 0.38377 0.43457 0.59311 0.0
H276 H 0.32339 0.34546 0.67272 0.0
H277 H 0.35601 0.36501 0.77597 0.0
H278 H 0.47472 0.42155 0.69906 0.0
H279 H 0.48617 0.47127 0.70023 0.0
H280 H 0.45839 0.44971 0.63255 0.0
H281 H 0.4045 0.49867 0.63653 0.0
H282 H 0.43207 0.52035 0.70397 0.0
H283 H 0.38393 0.50391 0.70583 0.0
H284 H 0.39485 0.3964 0.87286 0.0
H285 H 0.43387 0.43776 0.95145 0.0
H286 H 0.4706 0.5028 0.80619 0.0
C287 C 0.3778 0.41825 0.63157 0.0
C288 C 0.35059 0.38822 0.6235 0.0
C289 C 0.34337 0.36896 0.67666 0.0
C290 C 0.36218 0.37959 0.73586 0.0
C291 C 0.38887 0.40911 0.74165 0.0
C292 C 0.39685 0.42789 0.69068 0.0
C293 C 0.42653 0.45879 0.70881 0.0
C294 C 0.46365 0.44979 0.68365 0.0
C295 C 0.41078 0.49772 0.68754 0.0
C296 C 0.43265 0.45579 0.77815 0.0
C297 C 0.4113 0.42656 0.79651 0.0
C298 C 0.41195 0.4191 0.85879 0.0
C299 C 0.43438 0.44256 0.90318 0.0
C300 C 0.4554 0.4734 0.88501 0.0
C301 C 0.45489 0.47943 0.8216 0.0
H302 H 0.70087 0.64811 0.46887 0.0
H303 H 0.6202 0.73968 0.46766 0.0
H304 H 0.58658 0.71796 0.36528 0.0
H305 H 0.70169 0.64617 0.29641 0.0
H306 H 0.7057 0.59541 0.29604 0.0
H307 H 0.72711 0.6227 0.36274 0.0
H308 H 0.68918 0.58295 0.43068 0.0
H309 H 0.66747 0.55587 0.36443 0.0
H310 H 0.63766 0.57998 0.41144 0.0
H311 H 0.556 0.67941 0.26994 0.0
H312 H 0.5328 0.62894 0.19299 0.0
H313 H 0.63454 0.56378 0.25766 0.0
C314 C 0.67719 0.66449 0.44557 0.0
C315 C 0.66364 0.69608 0.47505 0.0
C316 C 0.63162 0.71607 0.44472 0.0
C317 C 0.61228 0.70378 0.38675 0.0
C318 C 0.62569 0.67173 0.35942 0.0
C319 C 0.6579 0.65279 0.38759 0.0
C320 C 0.66463 0.61726 0.35195 0.0
C321 C 0.702 0.62059 0.3252 0.0
C322 C 0.6647 0.58196 0.39202 0.0
C323 C 0.63001 0.61779 0.3015 0.0
C324 C 0.60816 0.64974 0.30542 0.0
C325 C 0.57338 0.6547 0.26579 0.0
C326 C 0.56042 0.62598 0.22206 0.0
C327 C 0.58191 0.59251 0.21917 0.0
C328 C 0.61752 0.58911 0.25851 0.0
H329 H 0.88341 0.20435 0.85723 0.0
H330 H 0.83866 0.10726 0.94074 0.0
H331 H 0.85767 0.06566 0.85944 0.0
H332 H 0.85729 0.17322 0.69604 0.0
H333 H 0.90093 0.19186 0.67546 0.0
H334 H 0.88026 0.21405 0.7364 0.0
H335 H 0.94421 0.20603 0.81163 0.0
H336 H 0.96511 0.18446 0.75073 0.0
H337 H 0.96521 0.15974 0.82166 0.0
H338 H 0.88539 0.0343 0.77083 0.0
H339 H 0.92587 0.0161 0.69318 0.0
H340 H 0.95261 0.13397 0.67054 0.0
C341 C 0.87677 0.17445 0.85768 0.0
C342 C 0.85899 0.15914 0.9048 0.0
C343 C 0.85212 0.11963 0.90493 0.0
C344 C 0.86253 0.09586 0.85864 0.0
C345 C 0.87984 0.112 0.81257 0.0
C346 C 0.88718 0.15042 0.81228 0.0
C347 C 0.90922 0.16059 0.76146 0.0
C348 C 0.8855 0.18647 0.71456 0.0
C349 C 0.94824 0.17875 0.78797 0.0
C350 C 0.91393 0.12186 0.73376 0.0
C351 C 0.89617 0.09413 0.76285 0.0
C352 C 0.89882 0.05589 0.74715 0.0
C353 C 0.92144 0.04577 0.70251 0.0
C354 C 0.94133 0.0738 0.6749 0.0
C355 C 0.9366 0.11221 0.68962 0.0
H356 H 0.36043 0.44449 0.43018 0.0
H357 H 0.32855 0.3362 0.34123 0.0
H358 H 0.35494 0.35673 0.24954 0.0
H359 H 0.3397 0.50093 0.28987 0.0
H360 H 0.37949 0.53273 0.31388 0.0
H361 H 0.35564 0.51059 0.37054 0.0
H362 H 0.42024 0.48314 0.42414 0.0
H363 H 0.44426 0.50587 0.36859 0.0
H364 H 0.44892 0.4556 0.37949 0.0
H365 H 0.38849 0.38803 0.17006 0.0
H366 H 0.43167 0.42455 0.1147 0.0
H367 H 0.44181 0.51205 0.25575 0.0
C368 C 0.35901 0.42507 0.39139 0.0
C369 C 0.34244 0.38869 0.39284 0.0
C370 C 0.34079 0.36429 0.34089 0.0
C371 C 0.35561 0.37578 0.28859 0.0
C372 C 0.37147 0.412 0.28851 0.0
C373 C 0.37333 0.43621 0.33872 0.0
C374 C 0.39336 0.47297 0.32833 0.0
C375 C 0.36538 0.50628 0.3255 0.0
C376 C 0.4288 0.47976 0.37807 0.0
C377 C 0.40435 0.46497 0.26577 0.0
C378 C 0.39053 0.43006 0.24276 0.0
C379 C 0.39875 0.41569 0.1871 0.0
C380 C 0.42289 0.43682 0.1555 0.0
C381 C 0.43877 0.4717 0.17985 0.0
C382 C 0.42867 0.48625 0.23493 0.0
H383 H 0.19647 0.88746 0.92065 0.0
H384 H 0.0958 0.87135 1.00637 0.0
H385 H 0.05423 0.88854 0.9095 0.0
H386 H 0.16267 0.96993 0.84027 0.0
H387 H 0.18408 0.95904 0.77331 0.0
H388 H 0.20508 0.94115 0.84699 0.0
H389 H 0.19997 0.87325 0.80026 0.0
H390 H 0.1778 0.89108 0.72684 0.0
H391 H 0.15393 0.85511 0.76395 0.0
H392 H 0.02343 0.90904 0.80464 0.0
H393 H 0.00661 0.94469 0.70849 0.0
H394 H 0.12681 0.95221 0.69249 0.0
C395 C 0.16564 0.88718 0.91851 0.0
C396 C 0.14921 0.87771 0.97067 0.0
C397 C 0.10885 0.87841 0.96681 0.0
C398 C 0.08503 0.88775 0.91181 0.0
C399 C 0.10194 0.89658 0.86091 0.0
C400 C 0.14137 0.89721 0.86409 0.0
C401 C 0.15223 0.91186 0.80483 0.0
C402 C 0.17748 0.94762 0.81711 0.0
C403 C 0.17217 0.88098 0.77204 0.0
C404 C 0.11287 0.92058 0.76888 0.0
C405 C 0.0842 0.9102 0.80116 0.0
C406 C 0.04559 0.9169 0.77859 0.0
C407 C 0.03618 0.93665 0.7234 0.0
C408 C 0.06531 0.9503 0.69237 0.0
C409 C 0.10396 0.94093 0.71431 0.0
loop_
_geom_bond_atom_site_label_1
_geom_bond_atom_site_label_2
_geom_bond_distance
_geom_bond_site_symmetry_2
_ccdc_geom_bond_type
H0 C3 0.929 . S
H1 C6 0.929 . S
H2 C8 0.930 1_556 S
C3 H0 0.929 . S
C3 C4 1.398 . S
C3 C5 1.396 . S
C4 C3 1.398 . S
C4 C8 1.407 . S
C5 C3 1.396 . S
C5 C6 1.394 . S
C6 H1 0.929 . S
C6 C5 1.394 . S
C6 C7 1.382 . S
C7 C6 1.382 . S
C7 C8 1.392 . S
C7 N9 1.420 . S
C8 H2 0.930 1_554 S
C8 C4 1.407 . S
C8 C7 1.392 . S
N9 C7 1.420 . S
N9 C10 1.244 . S
C10 N9 1.244 . S
H11 C14 0.929 . S
H12 C17 0.929 . S
H13 C19 0.930 . S
C14 H11 0.929 . S
C14 C15 1.398 . S
C14 C16 1.396 . S
C15 C14 1.398 . S
C15 C19 1.407 . S
C16 C14 1.396 . S
C16 C17 1.394 . S
C17 H12 0.929 . S
C17 C16 1.394 . S
C17 C18 1.382 . S
C18 C17 1.382 . S
C18 C19 1.392 . S
C18 N20 1.420 . S
C19 H13 0.930 . S
C19 C15 1.407 . S
C19 C18 1.392 . S
N20 C18 1.420 . S
N20 C21 1.244 . S
C21 N20 1.244 . S
H22 C25 0.929 . S
H23 C28 0.929 . S
H24 C30 0.930 . S
C25 H22 0.929 . S
C25 C26 1.398 1_554 S
C25 C27 1.396 . S
C26 C25 1.398 1_556 S
C26 C30 1.407 . S
C27 C25 1.396 . S
C27 C28 1.394 . S
C28 H23 0.929 . S
C28 C27 1.394 . S
C28 C29 1.382 1_554 S
C29 C28 1.382 1_556 S
C29 C30 1.392 . S
C29 N31 1.420 . S
C30 H24 0.930 . S
C30 C26 1.407 . S
C30 C29 1.392 . S
N31 C29 1.420 . S
N31 C32 1.244 1_556 S
C32 N31 1.244 1_554 S
H33 C36 0.929 . S
H34 C39 0.929 . S
H35 C41 0.930 . S
C36 H33 0.929 . S
C36 C37 1.398 . S
C36 C38 1.396 . S
C37 C36 1.398 . S
C37 C41 1.407 . S
C38 C36 1.396 . S
C38 C39 1.394 . S
C39 H34 0.929 . S
C39 C38 1.394 . S
C39 C40 1.382 . S
C40 C39 1.382 . S
C40 C41 1.392 . S
C40 N42 1.420 . S
C41 H35 0.930 . S
C41 C37 1.407 . S
C41 C40 1.392 . S
N42 C40 1.420 . S
N42 C43 1.244 . S
C43 N42 1.244 . S
O44 Mn45 2.163 1_655 S
O44 C58 1.244 . S
Mn45 O44 2.163 1_455 S
Mn45 O48 2.160 1_545 S
Mn45 O49 2.221 . S
Mn45 O51 2.163 1_455 S
Mn45 O53 2.160 1_545 S
Mn45 O63 2.221 1_445 S
O46 Mn47 2.087 1_545 S
O46 C58 1.256 . S
Mn47 O46 2.087 1_565 S
Mn47 O54 2.089 1_655 S
Mn47 O63 2.290 . S
Mn47 O64 2.251 . S
O48 Mn45 2.160 1_565 S
O48 C59 1.239 . S
O49 Mn45 2.221 . S
O49 Mn50 2.290 . S
O49 C60 1.278 . S
Mn50 O49 2.290 . S
Mn50 O52 2.089 . S
Mn50 O55 2.251 . S
Mn50 O56 2.087 . S
O51 Mn45 2.163 1_655 S
O51 C61 1.244 . S
O52 Mn50 2.089 . S
O52 C59 1.256 1_545 S
O53 Mn45 2.160 1_565 S
O53 C62 1.239 . S
O54 Mn47 2.089 1_455 S
O54 C62 1.256 . S
O55 Mn50 2.251 . S
O55 C60 1.241 . S
O56 Mn50 2.087 . S
O56 C61 1.256 1_455 S
C57 O63 1.278 . S
C57 O64 1.241 . S
C58 O44 1.244 . S
C58 O46 1.256 . S
C59 O48 1.239 . S
C59 O52 1.256 1_565 S
C60 O49 1.278 . S
C60 O55 1.241 . S
C61 O51 1.244 . S
C61 O56 1.256 1_655 S
C62 O53 1.239 . S
C62 O54 1.256 . S
O63 Mn45 2.221 1_665 S
O63 Mn47 2.290 . S
O63 C57 1.278 . S
O64 Mn47 2.251 . S
O64 C57 1.241 . S
O65 Mn66 2.163 . S
O65 C79 1.244 . S
Mn66 O65 2.163 . S
Mn66 O69 2.160 1_554 S
Mn66 O70 2.221 . S
Mn66 O72 2.163 1_554 S
Mn66 O74 2.160 . S
Mn66 O84 2.221 . S
O67 Mn68 2.087 . S
O67 C79 1.256 . S
Mn68 O67 2.087 . S
Mn68 O75 2.089 . S
Mn68 O84 2.290 . S
Mn68 O85 2.251 . S
O69 Mn66 2.160 1_556 S
O69 C80 1.239 . S
O70 Mn66 2.221 . S
O70 Mn71 2.290 1_554 S
O70 C81 1.278 . S
Mn71 O70 2.290 1_556 S
Mn71 O73 2.089 . S
Mn71 O76 2.251 . S
Mn71 O77 2.087 . S
O72 Mn66 2.163 1_556 S
O72 C82 1.244 . S
O73 Mn71 2.089 . S
O73 C80 1.256 . S
O74 Mn66 2.160 . S
O74 C83 1.239 . S
O75 Mn68 2.089 . S
O75 C83 1.256 . S
O76 Mn71 2.251 . S
O76 C81 1.241 1_556 S
O77 Mn71 2.087 . S
O77 C82 1.256 . S
C78 O84 1.278 . S
C78 O85 1.241 . S
C79 O65 1.244 . S
C79 O67 1.256 . S
C80 O69 1.239 . S
C80 O73 1.256 . S
C81 O70 1.278 . S
C81 O76 1.241 1_554 S
C82 O72 1.244 . S
C82 O77 1.256 . S
C83 O74 1.239 . S
C83 O75 1.256 . S
O84 Mn66 2.221 . S
O84 Mn68 2.290 . S
O84 C78 1.278 . S
O85 Mn68 2.251 . S
O85 C78 1.241 . S
H86 C98 0.930 . S
H87 C100 0.930 . S
H88 C101 0.930 . S
H89 C105 0.959 . S
H90 C105 0.959 . S
H91 C105 0.961 . S
H92 C106 0.960 . S
H93 C106 0.961 . S
H94 C106 0.959 . S
H95 C109 0.929 . S
H96 C110 0.931 . S
H97 C112 0.930 . S
C98 H86 0.930 . S
C98 C99 1.399 . S
C98 C103 1.399 . S
C99 C98 1.399 . S
C99 C100 1.376 . S
C100 H87 0.930 . S
C100 C99 1.376 . S
C100 C101 1.388 . S
C101 H88 0.930 . S
C101 C100 1.388 . S
C101 C102 1.390 . S
C102 C101 1.390 . S
C102 C103 1.394 . S
C102 C108 1.465 . S
C103 C98 1.399 . S
C103 C102 1.394 . S
C103 C104 1.516 . S
C104 C103 1.516 . S
C104 C105 1.502 . S
C104 C106 1.561 . S
C104 C107 1.526 . S
C105 H89 0.959 . S
C105 H90 0.959 . S
C105 H91 0.961 . S
C105 C104 1.502 . S
C106 H92 0.960 . S
C106 H93 0.961 . S
C106 H94 0.959 . S
C106 C104 1.561 . S
C107 C104 1.526 . S
C107 C108 1.396 . S
C107 C112 1.390 . S
C108 C102 1.465 . S
C108 C107 1.396 . S
C108 C109 1.399 . S
C109 H95 0.929 . S
C109 C108 1.399 . S
C109 C110 1.385 . S
C110 H96 0.931 . S
C110 C109 1.385 . S
C110 C111 1.389 . S
C111 C110 1.389 . S
C111 C112 1.387 . S
C112 H97 0.930 . S
C112 C107 1.390 . S
C112 C111 1.387 . S
H113 C125 0.930 . S
H114 C127 0.930 . S
H115 C128 0.930 1_556 S
H116 C132 0.959 . S
H117 C132 0.959 . S
H118 C132 0.961 . S
H119 C133 0.960 . S
H120 C133 0.961 . S
H121 C133 0.959 . S
H122 C136 0.929 . S
H123 C137 0.931 1_556 S
H124 C139 0.930 . S
C125 H113 0.930 . S
C125 C126 1.399 . S
C125 C130 1.399 . S
C126 C125 1.399 . S
C126 C127 1.376 . S
C127 H114 0.930 . S
C127 C126 1.376 . S
C127 C128 1.388 . S
C128 H115 0.930 1_554 S
C128 C127 1.388 . S
C128 C129 1.390 . S
C129 C128 1.390 . S
C129 C130 1.394 . S
C129 C135 1.465 . S
C130 C125 1.399 . S
C130 C129 1.394 . S
C130 C131 1.516 . S
C131 C130 1.516 . S
C131 C132 1.502 . S
C131 C133 1.561 . S
C131 C134 1.526 . S
C132 H116 0.959 . S
C132 H117 0.959 . S
C132 H118 0.961 . S
C132 C131 1.502 . S
C133 H119 0.960 . S
C133 H120 0.961 . S
C133 H121 0.959 . S
C133 C131 1.561 . S
C134 C131 1.526 . S
C134 C135 1.396 . S
C134 C139 1.390 . S
C135 C129 1.465 . S
C135 C134 1.396 . S
C135 C136 1.399 1_554 S
C136 H122 0.929 . S
C136 C135 1.399 1_556 S
C136 C137 1.385 1_556 S
C137 H123 0.931 1_554 S
C137 C136 1.385 1_554 S
C137 C138 1.389 . S
C138 C137 1.389 . S
C138 C139 1.387 . S
C139 H124 0.930 . S
C139 C134 1.390 . S
C139 C138 1.387 . S
H140 C152 0.930 . S
H141 C154 0.930 . S
H142 C155 0.930 . S
H143 C159 0.959 . S
H144 C159 0.959 . S
H145 C159 0.961 . S
H146 C160 0.960 . S
H147 C160 0.961 . S
H148 C160 0.959 . S
H149 C163 0.929 . S
H150 C164 0.931 . S
H151 C166 0.930 . S
C152 H140 0.930 . S
C152 C153 1.399 . S
C152 C157 1.399 . S
C153 C152 1.399 . S
C153 C154 1.376 . S
C154 H141 0.930 . S
C154 C153 1.376 . S
C154 C155 1.388 . S
C155 H142 0.930 . S
C155 C154 1.388 . S
C155 C156 1.390 . S
C156 C155 1.390 . S
C156 C157 1.394 . S
C156 C162 1.465 . S
C157 C152 1.399 . S
C157 C156 1.394 . S
C157 C158 1.516 . S
C158 C157 1.516 . S
C158 C159 1.502 . S
C158 C160 1.561 . S
C158 C161 1.526 . S
C159 H143 0.959 . S
C159 H144 0.959 . S
C159 H145 0.961 . S
C159 C158 1.502 . S
C160 H146 0.960 . S
C160 H147 0.961 . S
C160 H148 0.959 . S
C160 C158 1.561 . S
C161 C158 1.526 . S
C161 C162 1.396 . S
C161 C166 1.390 . S
C162 C156 1.465 . S
C162 C161 1.396 . S
C162 C163 1.399 . S
C163 H149 0.929 . S
C163 C162 1.399 . S
C163 C164 1.385 . S
C164 H150 0.931 . S
C164 C163 1.385 . S
C164 C165 1.389 . S
C165 C164 1.389 . S
C165 C166 1.387 . S
C166 H151 0.930 . S
C166 C161 1.390 . S
C166 C165 1.387 . S
H167 C179 0.930 . S
H168 C181 0.930 . S
H169 C182 0.930 . S
H170 C186 0.959 . S
H171 C186 0.959 . S
H172 C186 0.961 . S
H173 C187 0.960 . S
H174 C187 0.961 . S
H175 C187 0.959 . S
H176 C190 0.929 . S
H177 C191 0.931 . S
H178 C193 0.930 . S
C179 H167 0.930 . S
C179 C180 1.399 . S
C179 C184 1.399 . S
C180 C179 1.399 . S
C180 C181 1.376 1_554 S
C181 H168 0.930 . S
C181 C180 1.376 1_556 S
C181 C182 1.388 . S
C182 H169 0.930 . S
C182 C181 1.388 . S
C182 C183 1.390 . S
C183 C182 1.390 . S
C183 C184 1.394 1_556 S
C183 C189 1.465 . S
C184 C179 1.399 . S
C184 C183 1.394 1_554 S
C184 C185 1.516 . S
C185 C184 1.516 . S
C185 C186 1.502 . S
C185 C187 1.561 . S
C185 C188 1.526 . S
C186 H170 0.959 . S
C186 H171 0.959 . S
C186 H172 0.961 . S
C186 C185 1.502 . S
C187 H173 0.960 . S
C187 H174 0.961 . S
C187 H175 0.959 . S
C187 C185 1.561 . S
C188 C185 1.526 . S
C188 C189 1.396 1_554 S
C188 C193 1.390 . S
C189 C183 1.465 . S
C189 C188 1.396 1_556 S
C189 C190 1.399 . S
C190 H176 0.929 . S
C190 C189 1.399 . S
C190 C191 1.385 . S
C191 H177 0.931 . S
C191 C190 1.385 . S
C191 C192 1.389 1_556 S
C192 C191 1.389 1_554 S
C192 C193 1.387 . S
C193 H178 0.930 . S
C193 C188 1.390 . S
C193 C192 1.387 . S
H194 C206 0.930 . S
H195 C208 0.930 . S
H196 C209 0.930 . S
H197 C213 0.959 . S
H198 C213 0.959 1_545 S
H199 C213 0.961 . S
H200 C214 0.960 . S
H201 C214 0.961 1_545 S
H202 C214 0.959 . S
H203 C217 0.929 . S
H204 C218 0.931 . S
H205 C220 0.930 . S
C206 H194 0.930 . S
C206 C207 1.399 . S
C206 C211 1.399 . S
C207 C206 1.399 . S
C207 C208 1.376 . S
C208 H195 0.930 . S
C208 C207 1.376 . S
C208 C209 1.388 . S
C209 H196 0.930 . S
C209 C208 1.388 . S
C209 C210 1.390 . S
C210 C209 1.390 . S
C210 C211 1.394 . S
C210 C216 1.465 . S
C211 C206 1.399 . S
C211 C210 1.394 . S
C211 C212 1.516 . S
C212 C211 1.516 . S
C212 C213 1.502 . S
C212 C214 1.561 . S
C212 C215 1.526 . S
C213 H197 0.959 . S
C213 H198 0.959 1_565 S
C213 H199 0.961 . S
C213 C212 1.502 . S
C214 H200 0.960 . S
C214 H201 0.961 1_565 S
C214 H202 0.959 . S
C214 C212 1.561 . S
C215 C212 1.526 . S
C215 C216 1.396 . S
C215 C220 1.390 . S
C216 C210 1.465 . S
C216 C215 1.396 . S
C216 C217 1.399 . S
C217 H203 0.929 . S
C217 C216 1.399 . S
C217 C218 1.385 . S
C218 H204 0.931 . S
C218 C217 1.385 . S
C218 C219 1.389 . S
C219 C218 1.389 . S
C219 C220 1.387 . S
C220 H205 0.930 . S
C220 C215 1.390 . S
C220 C219 1.387 . S
H221 C233 0.930 . S
H222 C235 0.930 . S
H223 C236 0.930 . S
H224 C240 0.959 . S
H225 C240 0.959 . S
H226 C240 0.961 . S
H227 C241 0.960 . S
H228 C241 0.961 . S
H229 C241 0.959 . S
H230 C244 0.929 . S
H231 C245 0.931 . S
H232 C247 0.930 . S
C233 H221 0.930 . S
C233 C234 1.399 . S
C233 C238 1.399 . S
C234 C233 1.399 . S
C234 C235 1.376 . S
C235 H222 0.930 . S
C235 C234 1.376 . S
C235 C236 1.388 . S
C236 H223 0.930 . S
C236 C235 1.388 . S
C236 C237 1.390 . S
C237 C236 1.390 . S
C237 C238 1.394 . S
C237 C243 1.465 . S
C238 C233 1.399 . S
C238 C237 1.394 . S
C238 C239 1.516 . S
C239 C238 1.516 . S
C239 C240 1.502 . S
C239 C241 1.561 . S
C239 C242 1.526 . S
C240 H224 0.959 . S
C240 H225 0.959 . S
C240 H226 0.961 . S
C240 C239 1.502 . S
C241 H227 0.960 . S
C241 H228 0.961 . S
C241 H229 0.959 . S
C241 C239 1.561 . S
C242 C239 1.526 . S
C242 C243 1.396 . S
C242 C247 1.390 . S
C243 C237 1.465 . S
C243 C242 1.396 . S
C243 C244 1.399 . S
C244 H230 0.929 . S
C244 C243 1.399 . S
C244 C245 1.385 . S
C245 H231 0.931 . S
C245 C244 1.385 . S
C245 C246 1.389 . S
C246 C245 1.389 . S
C246 C247 1.387 . S
C247 H232 0.930 . S
C247 C242 1.390 . S
C247 C246 1.387 . S
H248 C260 0.930 . S
H249 C262 0.930 . S
H250 C263 0.930 . S
H251 C267 0.959 . S
H252 C267 0.959 . S
H253 C267 0.961 . S
H254 C268 0.960 . S
H255 C268 0.986 . S
H256 C268 0.959 . S
H257 C271 0.929 . S
H258 C272 0.931 . S
H259 C274 0.930 . S
C260 H248 0.930 . S
C260 C261 1.399 . S
C260 C265 1.399 . S
C261 C260 1.399 . S
C261 C262 1.376 . S
C262 H249 0.930 . S
C262 C261 1.376 . S
C262 C263 1.388 . S
C263 H250 0.930 . S
C263 C262 1.388 . S
C263 C264 1.390 . S
C264 C263 1.390 . S
C264 C265 1.394 . S
C264 C270 1.465 . S
C265 C260 1.399 . S
C265 C264 1.394 . S
C265 C266 1.516 . S
C266 C265 1.516 . S
C266 C267 1.502 . S
C266 C268 1.561 . S
C266 C269 1.526 . S
C267 H251 0.959 . S
C267 H252 0.959 . S
C267 H253 0.961 . S
C267 C266 1.502 . S
C268 H254 0.960 . S
C268 H255 0.986 . S
C268 H256 0.959 . S
C268 C266 1.561 . S
C269 C266 1.526 . S
C269 C270 1.396 . S
C269 C274 1.390 . S
C270 C264 1.465 . S
C270 C269 1.396 . S
C270 C271 1.399 . S
C271 H257 0.929 . S
C271 C270 1.399 . S
C271 C272 1.385 . S
C272 H258 0.931 . S
C272 C271 1.385 . S
C272 C273 1.389 . S
C273 C272 1.389 . S
C273 C274 1.387 . S
C274 H259 0.930 . S
C274 C269 1.390 . S
C274 C273 1.387 . S
H275 C287 0.930 . S
H276 C289 0.930 . S
H277 C290 0.930 . S
H278 C294 0.959 . S
H279 C294 0.959 . S
H280 C294 0.961 . S
H281 C295 0.960 . S
H282 C295 0.961 . S
H283 C295 0.959 . S
H284 C298 0.929 . S
H285 C299 0.931 . S
H286 C301 0.930 . S
C287 H275 0.930 . S
C287 C288 1.399 . S
C287 C292 1.399 . S
C288 C287 1.399 . S
C288 C289 1.376 . S
C289 H276 0.930 . S
C289 C288 1.376 . S
C289 C290 1.388 . S
C290 H277 0.930 . S
C290 C289 1.388 . S
C290 C291 1.390 . S
C291 C290 1.390 . S
C291 C292 1.394 . S
C291 C297 1.465 . S
C292 C287 1.399 . S
C292 C291 1.394 . S
C292 C293 1.516 . S
C293 C292 1.516 . S
C293 C294 1.502 . S
C293 C295 1.561 . S
C293 C296 1.526 . S
C294 H278 0.959 . S
C294 H279 0.959 . S
C294 H280 0.961 . S
C294 C293 1.502 . S
C295 H281 0.960 . S
C295 H282 0.961 . S
C295 H283 0.959 . S
C295 C293 1.561 . S
C296 C293 1.526 . S
C296 C297 1.396 . S
C296 C301 1.390 . S
C297 C291 1.465 . S
C297 C296 1.396 . S
C297 C298 1.399 . S
C298 H284 0.929 . S
C298 C297 1.399 . S
C298 C299 1.385 . S
C299 H285 0.931 . S
C299 C298 1.385 . S
C299 C300 1.389 . S
C300 C299 1.389 . S
C300 C301 1.387 . S
C301 H286 0.930 . S
C301 C296 1.390 . S
C301 C300 1.387 . S
H302 C314 0.930 . S
H303 C316 0.930 . S
H304 C317 0.930 . S
H305 C321 0.959 . S
H306 C321 0.959 . S
H307 C321 0.961 . S
H308 C322 0.960 . S
H309 C322 0.961 . S
H310 C322 0.959 . S
H311 C325 0.929 . S
H312 C326 0.931 . S
H313 C328 0.930 . S
C314 H302 0.930 . S
C314 C315 1.399 . S
C314 C319 1.399 . S
C315 C314 1.399 . S
C315 C316 1.376 . S
C316 H303 0.930 . S
C316 C315 1.376 . S
C316 C317 1.388 . S
C317 H304 0.930 . S
C317 C316 1.388 . S
C317 C318 1.390 . S
C318 C317 1.390 . S
C318 C319 1.394 . S
C318 C324 1.465 . S
C319 C314 1.399 . S
C319 C318 1.394 . S
C319 C320 1.516 . S
C320 C319 1.516 . S
C320 C321 1.502 . S
C320 C322 1.561 . S
C320 C323 1.526 . S
C321 H305 0.959 . S
C321 H306 0.959 . S
C321 H307 0.961 . S
C321 C320 1.502 . S
C322 H308 0.960 . S
C322 H309 0.961 . S
C322 H310 0.959 . S
C322 C320 1.561 . S
C323 C320 1.526 . S
C323 C324 1.396 . S
C323 C328 1.390 . S
C324 C318 1.465 . S
C324 C323 1.396 . S
C324 C325 1.399 . S
C325 H311 0.929 . S
C325 C324 1.399 . S
C325 C326 1.385 . S
C326 H312 0.931 . S
C326 C325 1.385 . S
C326 C327 1.389 . S
C327 C326 1.389 . S
C327 C328 1.387 . S
C328 H313 0.930 . S
C328 C323 1.390 . S
C328 C327 1.387 . S
H329 C341 0.930 . S
H330 C343 0.930 . S
H331 C344 0.930 . S
H332 C348 0.959 . S
H333 C348 0.959 . S
H334 C348 0.961 . S
H335 C349 0.960 . S
H336 C349 0.961 . S
H337 C349 0.959 . S
H338 C352 0.929 . S
H339 C353 0.931 . S
H340 C355 0.930 . S
C341 H329 0.930 . S
C341 C342 1.399 . S
C341 C346 1.399 . S
C342 C341 1.399 . S
C342 C343 1.376 . S
C343 H330 0.930 . S
C343 C342 1.376 . S
C343 C344 1.388 . S
C344 H331 0.930 . S
C344 C343 1.388 . S
C344 C345 1.390 . S
C345 C344 1.390 . S
C345 C346 1.394 . S
C345 C351 1.465 . S
C346 C341 1.399 . S
C346 C345 1.394 . S
C346 C347 1.516 . S
C347 C346 1.516 . S
C347 C348 1.502 . S
C347 C349 1.561 . S
C347 C350 1.526 . S
C348 H332 0.959 . S
C348 H333 0.959 . S
C348 H334 0.961 . S
C348 C347 1.502 . S
C349 H335 0.960 . S
C349 H336 0.961 . S
C349 H337 0.959 . S
C349 C347 1.561 . S
C350 C347 1.526 . S
C350 C351 1.396 . S
C350 C355 1.390 . S
C351 C345 1.465 . S
C351 C350 1.396 . S
C351 C352 1.399 . S
C352 H338 0.929 . S
C352 C351 1.399 . S
C352 C353 1.385 . S
C353 H339 0.931 . S
C353 C352 1.385 . S
C353 C354 1.389 . S
C354 C353 1.389 . S
C354 C355 1.387 . S
C355 H340 0.930 . S
C355 C350 1.390 . S
C355 C354 1.387 . S
H356 C368 0.930 . S
H357 C370 0.930 . S
H358 C371 0.930 . S
H359 C375 0.959 . S
H360 C375 0.959 . S
H361 C375 0.961 . S
H362 C376 0.960 . S
H363 C376 0.961 . S
H364 C376 0.959 . S
H365 C379 0.929 . S
H366 C380 0.931 . S
H367 C382 0.930 . S
C368 H356 0.930 . S
C368 C369 1.399 . S
C368 C373 1.399 . S
C369 C368 1.399 . S
C369 C370 1.376 . S
C370 H357 0.930 . S
C370 C369 1.376 . S
C370 C371 1.388 . S
C371 H358 0.930 . S
C371 C370 1.388 . S
C371 C372 1.390 . S
C372 C371 1.390 . S
C372 C373 1.394 . S
C372 C378 1.465 . S
C373 C368 1.399 . S
C373 C372 1.394 . S
C373 C374 1.516 . S
C374 C373 1.516 . S
C374 C375 1.502 . S
C374 C376 1.561 . S
C374 C377 1.526 . S
C375 H359 0.959 . S
C375 H360 0.959 . S
C375 H361 0.961 . S
C375 C374 1.502 . S
C376 H362 0.960 . S
C376 H363 0.961 . S
C376 H364 0.959 . S
C376 C374 1.561 . S
C377 C374 1.526 . S
C377 C378 1.396 . S
C377 C382 1.390 . S
C378 C372 1.465 . S
C378 C377 1.396 . S
C378 C379 1.399 . S
C379 H365 0.929 . S
C379 C378 1.399 . S
C379 C380 1.385 . S
C380 H366 0.931 . S
C380 C379 1.385 . S
C380 C381 1.389 . S
C381 C380 1.389 . S
C381 C382 1.387 . S
C382 H367 0.930 . S
C382 C377 1.390 . S
C382 C381 1.387 . S
H383 C395 0.930 . S
H384 C397 0.930 1_554 S
H385 C398 0.930 . S
H386 C402 0.959 . S
H387 C402 0.959 . S
H388 C402 0.961 . S
H389 C403 0.960 . S
H390 C403 0.961 . S
H391 C403 0.959 . S
H392 C406 0.929 . S
H393 C407 0.931 . S
H394 C409 0.930 . S
C395 H383 0.930 . S
C395 C396 1.399 . S
C395 C400 1.399 . S
C396 C395 1.399 . S
C396 C397 1.376 . S
C397 H384 0.930 1_556 S
C397 C396 1.376 . S
C397 C398 1.388 . S
C398 H385 0.930 . S
C398 C397 1.388 . S
C398 C399 1.390 . S
C399 C398 1.390 . S
C399 C400 1.394 . S
C399 C405 1.465 . S
C400 C395 1.399 . S
C400 C399 1.394 . S
C400 C401 1.516 . S
C401 C400 1.516 . S
C401 C402 1.502 . S
C401 C403 1.561 . S
C401 C404 1.526 . S
C402 H386 0.959 . S
C402 H387 0.959 . S
C402 H388 0.961 . S
C402 C401 1.502 . S
C403 H389 0.960 . S
C403 H390 0.961 . S
C403 H391 0.959 . S
C403 C401 1.561 . S
C404 C401 1.526 . S
C404 C405 1.396 . S
C404 C409 1.390 . S
C405 C399 1.465 . S
C405 C404 1.396 . S
C405 C406 1.399 . S
C406 H392 0.929 . S
C406 C405 1.399 . S
C406 C407 1.385 . S
C407 H393 0.931 . S
C407 C406 1.385 . S
C407 C408 1.389 . S
C408 C407 1.389 . S
C408 C409 1.387 . S
C409 H394 0.930 . S
C409 C404 1.390 . S
C409 C408 1.387 . S
C111 C60 1.311 . S
C99 C43 1.445 . S
C126 C10 1.459 . S
C138 C81 1.208 . S
C153 C21 1.578 . S
C165 C57 1.337 . S
C180 C32 1.603 . S
C192 C78 1.445 . S
C219 C62 1.471 . S
C207 C5 1.492 . S
C246 C82 1.510 . S
C234 C15 1.586 . S
C261 C27 1.595 . S
C273 C58 1.534 . S
C288 C38 1.525 . S
C300 C80 1.465 . S
C327 C79 1.495 . S
C315 C16 1.490 . S
C354 C61 1.482 . S
C342 C26 1.508 . S
C381 C83 1.398 . S
C369 C37 1.449 . S
C396 C4 1.443 1_556 S
C408 C59 1.398 . S
