# Generated by pormake.
# Topology cml, (3,6)-cn, num edge types: 1
# Building blocks:
#     Node 0, Type 0, BuildingBlock: MIDCAF_clean_linker_0, # of connection points: 3
#     Node 1, Type 0, BuildingBlock: MIDCAF_clean_linker_0, # of connection points: 3
#     Node 2, Type 0, BuildingBlock: MIDCAF_clean_linker_0, # of connection points: 3
#     Node 3, Type 0, BuildingBlock: MIDCAF_clean_linker_0, # of connection points: 3
#     Node 4, Type 0, BuildingBlock: MIDCAF_clean_linker_0, # of connection points: 3
#     Node 5, Type 0, BuildingBlock: MIDCAF_clean_linker_0, # of connection points: 3
#     Node 6, Type 0, BuildingBlock: MIDCAF_clean_linker_0, # of connection points: 3
#     Node 7, Type 0, BuildingBlock: MIDCAF_clean_linker_0, # of connection points: 3
#     Node 8, Type 1, BuildingBlock: OJICUG_clean_sbu_0, # of connection points: 6
#     Node 9, Type 1, BuildingBlock: OJICUG_clean_sbu_0, # of connection points: 6
#     Node 10, Type 1, BuildingBlock: OJICUG_clean_sbu_0, # of connection points: 6
#     Node 11, Type 1, BuildingBlock: OJICUG_clean_sbu_0, # of connection points: 6
#     Edge 12, Type (0, 1), BuildingBlock: AJUNOK_clean_linker_0, # of connection points: 2
#     Edge 13, Type (0, 1), BuildingBlock: AJUNOK_clean_linker_0, # of connection points: 2
#     Edge 14, Type (0, 1), BuildingBlock: AJUNOK_clean_linker_0, # of connection points: 2
#     Edge 15, Type (0, 1), BuildingBlock: AJUNOK_clean_linker_0, # of connection points: 2
#     Edge 16, Type (0, 1), BuildingBlock: AJUNOK_clean_linker_0, # of connection points: 2
#     Edge 17, Type (0, 1), BuildingBlock: AJUNOK_clean_linker_0, # of connection points: 2
#     Edge 18, Type (0, 1), BuildingBlock: AJUNOK_clean_linker_0, # of connection points: 2
#     Edge 19, Type (0, 1), BuildingBlock: AJUNOK_clean_linker_0, # of connection points: 2
#     Edge 20, Type (0, 1), BuildingBlock: AJUNOK_clean_linker_0, # of connection points: 2
#     Edge 21, Type (0, 1), BuildingBlock: AJUNOK_clean_linker_0, # of connection points: 2
#     Edge 22, Type (0, 1), BuildingBlock: AJUNOK_clean_linker_0, # of connection points: 2
#     Edge 23, Type (0, 1), BuildingBlock: AJUNOK_clean_linker_0, # of connection points: 2
#     Edge 24, Type (0, 1), BuildingBlock: AJUNOK_clean_linker_0, # of connection points: 2
#     Edge 25, Type (0, 1), BuildingBlock: AJUNOK_clean_linker_0, # of connection points: 2
#     Edge 26, Type (0, 1), BuildingBlock: AJUNOK_clean_linker_0, # of connection points: 2
#     Edge 27, Type (0, 1), BuildingBlock: AJUNOK_clean_linker_0, # of connection points: 2
#     Edge 28, Type (0, 1), BuildingBlock: AJUNOK_clean_linker_0, # of connection points: 2
#     Edge 29, Type (0, 1), BuildingBlock: AJUNOK_clean_linker_0, # of connection points: 2
#     Edge 30, Type (0, 1), BuildingBlock: AJUNOK_clean_linker_0, # of connection points: 2
#     Edge 31, Type (0, 1), BuildingBlock: AJUNOK_clean_linker_0, # of connection points: 2
#     Edge 32, Type (0, 1), BuildingBlock: AJUNOK_clean_linker_0, # of connection points: 2
#     Edge 33, Type (0, 1), BuildingBlock: AJUNOK_clean_linker_0, # of connection points: 2
#     Edge 34, Type (0, 1), BuildingBlock: AJUNOK_clean_linker_0, # of connection points: 2
#     Edge 35, Type (0, 1), BuildingBlock: AJUNOK_clean_linker_0, # of connection points: 2
# Relax obj value: 0.074
# Max RMSD: 0.087
# Mean RMSD: 0.082
data_MOF--net-cml--node1-OJICUG_clean_sbu_0--node2-MIDCAF_clean_linker_0--edge1-AJUNOK_clean_linker_0
_symmetry_space_group_name_H-M    P1
_symmetry_Int_Tables_number       1
_symmetry_cell_setting            triclinic
loop_
_symmetry_equiv_pos_as_xyz
'x, y, z'
_cell_length_a     37.393482
_cell_length_b     37.716329
_cell_length_c     35.552718
_cell_angle_alpha  89.913032
_cell_angle_beta   89.870044
_cell_angle_gamma 89.970572
loop_
_atom_site_label
_atom_site_type_symbol
_atom_site_fract_x
_atom_site_fract_y
_atom_site_fract_z
_atom_type_partial_charge
C0 C 0.33746 0.38077 0.13147 0.0
C1 C 0.34518 0.34464 0.13633 0.0
C2 C 0.32889 0.31965 0.11267 0.0
C3 C 0.30755 0.331 0.08259 0.0
H4 H 0.21956 0.30897 0.00722 0.0
H5 H 0.17073 0.27802 0.97614 0.0
H6 H 0.16086 0.36389 0.89641 0.0
H7 H 0.21017 0.39469 0.92676 0.0
H8 H 0.27662 0.4483 0.9199 0.0
H9 H 0.30827 0.49737 0.88946 0.0
H10 H 0.3675 0.51584 0.99163 0.0
H11 H 0.33583 0.46768 0.0223 0.0
H12 H 0.31274 0.42028 0.09723 0.0
H13 H 0.34903 0.40046 0.14998 0.0
H14 H 0.33435 0.29162 0.11611 0.0
H15 H 0.29691 0.31148 0.0633 0.0
N16 N 0.26095 0.36177 0.02233 0.0
N17 N 0.26122 0.40394 0.97357 0.0
N18 N 0.2997 0.41051 0.02479 0.0
C19 C 0.24774 0.37376 0.98897 0.0
C20 C 0.28729 0.42241 0.9913 0.0
C21 C 0.28676 0.38034 0.04047 0.0
C22 C 0.21882 0.35435 0.96956 0.0
C23 C 0.20719 0.32123 0.98295 0.0
C24 C 0.1792 0.30351 0.96522 0.0
C25 C 0.16221 0.31853 0.9338 0.0
C26 C 0.17395 0.35144 0.92016 0.0
C27 C 0.20206 0.36913 0.93777 0.0
C28 C 0.30373 0.45395 0.97354 0.0
C29 C 0.29598 0.46319 0.93606 0.0
C30 C 0.31412 0.49114 0.91856 0.0
C31 C 0.34001 0.51051 0.93834 0.0
C32 C 0.34712 0.50182 0.97597 0.0
C33 C 0.32913 0.47396 0.99342 0.0
C34 C 0.30261 0.36743 0.07586 0.0
C35 C 0.31667 0.39208 0.10137 0.0
C36 C 0.65543 0.60785 0.63802 0.0
C37 C 0.65775 0.64387 0.64748 0.0
C38 C 0.67929 0.66639 0.62553 0.0
C39 C 0.69732 0.65315 0.59391 0.0
H40 H 0.77795 0.67234 0.51359 0.0
H41 H 0.82571 0.70313 0.48038 0.0
H42 H 0.83338 0.61678 0.4012 0.0
H43 H 0.78501 0.58607 0.43379 0.0
H44 H 0.72372 0.5272 0.43337 0.0
H45 H 0.69028 0.47949 0.4031 0.0
H46 H 0.61703 0.47679 0.49712 0.0
H47 H 0.65066 0.52328 0.5279 0.0
H48 H 0.66998 0.56692 0.59974 0.0
H49 H 0.63883 0.58992 0.65429 0.0
H50 H 0.68175 0.69423 0.63251 0.0
H51 H 0.71303 0.67117 0.57684 0.0
N52 N 0.73564 0.62073 0.52979 0.0
N53 N 0.73416 0.57788 0.48185 0.0
N54 N 0.69512 0.57354 0.53308 0.0
C55 C 0.74855 0.60789 0.49664 0.0
C56 C 0.70736 0.56059 0.49998 0.0
C57 C 0.70902 0.60343 0.54827 0.0
C58 C 0.77756 0.62669 0.47642 0.0
C59 C 0.78966 0.65985 0.48907 0.0
C60 C 0.81708 0.67751 0.4701 0.0
C61 C 0.83307 0.66241 0.43812 0.0
C62 C 0.82106 0.62931 0.42537 0.0
C63 C 0.7935 0.61166 0.44425 0.0
C64 C 0.68967 0.52945 0.48287 0.0
C65 C 0.70073 0.51616 0.44778 0.0
C66 C 0.68148 0.48902 0.43031 0.0
C67 C 0.65073 0.47492 0.44751 0.0
C68 C 0.64067 0.48711 0.48325 0.0
C69 C 0.65993 0.51397 0.50077 0.0
C70 C 0.69371 0.6173 0.58368 0.0
C71 C 0.67311 0.59474 0.60654 0.0
C72 C 0.65794 0.38936 0.13933 0.0
C73 C 0.66062 0.35349 0.14955 0.0
C74 C 0.68139 0.33058 0.12734 0.0
C75 C 0.69885 0.34335 0.09516 0.0
H76 H 0.7917 0.33384 0.0227 0.0
H77 H 0.83592 0.29926 0.98841 0.0
H78 H 0.80657 0.3525 0.88534 0.0
H79 H 0.76312 0.38822 0.91991 0.0
H80 H 0.71635 0.4595 0.92711 0.0
H81 H 0.68327 0.50808 0.89781 0.0
H82 H 0.63041 0.52946 0.00342 0.0
H83 H 0.66362 0.48165 0.03298 0.0
H84 H 0.67177 0.42972 0.09989 0.0
H85 H 0.64148 0.40746 0.15549 0.0
H86 H 0.68368 0.30277 0.1346 0.0
H87 H 0.71409 0.32497 0.07809 0.0
N88 N 0.73507 0.37333 0.02915 0.0
N89 N 0.73358 0.41516 0.98012 0.0
N90 N 0.69734 0.42271 0.03326 0.0
C91 C 0.74705 0.38476 0.99505 0.0
C92 C 0.70882 0.4344 -0.00076 0.0
C93 C 0.71019 0.39227 0.04841 0.0
C94 C 0.77393 0.36385 0.97407 0.0
C95 C 0.79469 0.33829 0.99275 0.0
C96 C 0.81996 0.31838 0.97308 0.0
C97 C 0.82485 0.32327 0.93421 0.0
C98 C 0.80397 0.34867 0.91542 0.0
C99 C 0.77894 0.36896 0.93521 0.0
C100 C 0.6924 0.46639 0.98233 0.0
C101 C 0.69821 0.47498 0.9443 0.0
C102 C 0.67926 0.50272 0.92747 0.0
C103 C 0.65443 0.52255 0.94841 0.0
C104 C 0.64984 0.51503 0.98677 0.0
C105 C 0.66866 0.48732 0.00357 0.0
C106 C 0.69528 0.37912 0.08441 0.0
C107 C 0.67507 0.40203 0.10722 0.0
C108 C 0.33446 0.60043 0.63001 0.0
C109 C 0.34281 0.63642 0.63521 0.0
C110 C 0.32923 0.66156 0.60976 0.0
C111 C 0.30918 0.65063 0.57865 0.0
H112 H 0.23394 0.68134 0.49668 0.0
H113 H 0.1884 0.71683 0.46544 0.0
H114 H 0.1639 0.62912 0.39208 0.0
H115 H 0.21003 0.59354 0.42266 0.0
H116 H 0.27398 0.5343 0.417 0.0
H117 H 0.30437 0.4844 0.3871 0.0
H118 H 0.35635 0.45944 0.49214 0.0
H119 H 0.32581 0.50864 0.5223 0.0
H120 H 0.31023 0.56143 0.59481 0.0
H121 H 0.3441 0.58052 0.64951 0.0
H122 H 0.33563 0.68941 0.61275 0.0
H123 H 0.3003 0.67036 0.55856 0.0
N124 N 0.26427 0.62303 0.51699 0.0
N125 N 0.26103 0.58002 0.46945 0.0
N126 N 0.29669 0.57013 0.52246 0.0
C127 C 0.25089 0.61198 0.48346 0.0
C128 C 0.284 0.55896 0.48878 0.0
C129 C 0.28697 0.60204 0.53674 0.0
C130 C 0.22526 0.63439 0.4626 0.0
C131 C 0.21907 0.66959 0.47377 0.0
C132 C 0.19299 0.68993 0.45594 0.0
C133 C 0.17231 0.67539 0.4269 0.0
C134 C 0.17953 0.64086 0.41445 0.0
C135 C 0.20582 0.62051 0.43213 0.0
C136 C 0.29778 0.52578 0.47197 0.0
C137 C 0.29126 0.51773 0.43397 0.0
C138 C 0.30867 0.48923 0.41678 0.0
C139 C 0.33258 0.46809 0.43734 0.0
C140 C 0.33758 0.47493 0.47577 0.0
C141 C 0.3203 0.5034 0.49293 0.0
C142 C 0.303 0.61437 0.57225 0.0
C143 C 0.31504 0.5895 0.59874 0.0
C144 C 0.84248 0.86664 0.12748 0.0
C145 C 0.83513 0.83147 0.13743 0.0
C146 C 0.80941 0.81227 0.1174 0.0
C147 C 0.79148 0.82817 0.08719 0.0
H148 H 0.69013 0.83607 0.02584 0.0
H149 H 0.64103 0.80593 0.99439 0.0
H150 H 0.67287 0.85294 0.8886 0.0
H151 H 0.7211 0.88438 0.92035 0.0
H152 H 0.76942 0.95613 0.92829 0.0
H153 H 0.80281 0.00401 0.89797 0.0
H154 H 0.87453 0.00809 0.99285 0.0
H155 H 0.84111 0.96105 0.02357 0.0
H156 H 0.8316 0.90953 0.09013 0.0
H157 H 0.86224 0.8818 0.14286 0.0
H158 H 0.80345 0.78506 0.12494 0.0
H159 H 0.77209 0.81272 0.07169 0.0
N160 N 0.75404 0.86489 0.02622 0.0
N161 N 0.75585 0.90848 0.97896 0.0
N162 N 0.79799 0.90903 0.0275 0.0
C163 C 0.74026 0.8793 0.99428 0.0
C164 C 0.78465 0.92363 0.9956 0.0
C165 C 0.78297 0.8797 0.04297 0.0
C166 C 0.70952 0.86247 0.97554 0.0
C167 C 0.68646 0.84023 0.99594 0.0
C168 C 0.65839 0.82295 0.97793 0.0
C169 C 0.65308 0.82713 0.93904 0.0
C170 C 0.6758 0.8498 0.91871 0.0
C171 C 0.70358 0.86758 0.93688 0.0
C172 C 0.80278 0.95443 0.97822 0.0
C173 C 0.7921 0.96744 0.94287 0.0
C174 C 0.81129 -0.00532 0.92537 0.0
C175 C 0.84145 0.00933 0.94291 0.0
C176 C 0.85129 -0.00272 0.97877 0.0
C177 C 0.8322 0.97016 0.99624 0.0
C178 C 0.79946 0.86331 0.07655 0.0
C179 C 0.82492 0.8824 0.09731 0.0
C180 C 0.14034 0.11118 0.62091 0.0
C181 C 0.14653 0.1453 0.63513 0.0
C182 C 0.16982 0.16812 0.61565 0.0
C183 C 0.18602 0.15711 0.58202 0.0
H184 H 0.2647 0.18089 0.50174 0.0
H185 H 0.31584 0.21066 0.47345 0.0
H186 H 0.32209 0.12963 0.3881 0.0
H187 H 0.27032 0.09993 0.41579 0.0
H188 H 0.20063 0.04887 0.40644 0.0
H189 H 0.16858 0.00067 0.37512 0.0
H190 H 0.11023 0.97951 0.47761 0.0
H191 H 0.14222 0.02684 0.50908 0.0
H192 H 0.15028 0.07393 0.57719 0.0
H193 H 0.12231 0.09313 0.63521 0.0
H194 H 0.17528 0.19446 0.62627 0.0
H195 H 0.20339 0.17539 0.56721 0.0
N196 N 0.22058 0.12968 0.51344 0.0
N197 N 0.21833 0.09032 0.46228 0.0
N198 N 0.179 0.08334 0.51299 0.0
C199 C 0.2333 0.11892 0.47937 0.0
C200 C 0.19112 0.07242 0.47898 0.0
C201 C 0.19345 0.11184 0.53045 0.0
C202 C 0.26354 0.13778 0.46131 0.0
C203 C 0.27684 0.16932 0.47694 0.0
C204 C 0.30626 0.18632 0.46086 0.0
C205 C 0.32327 0.17202 0.42905 0.0
C206 C 0.30948 0.14111 0.4127 0.0
C207 C 0.2799 0.12412 0.42868 0.0
C208 C 0.17381 0.04196 0.46021 0.0
C209 C 0.18118 0.03374 0.42237 0.0
C210 C 0.16274 0.00634 0.40436 0.0
C211 C 0.13678 0.98668 0.42393 0.0
C212 C 0.13024 0.99419 0.46194 0.0
C213 C 0.14848 0.0215 0.47987 0.0
C214 C 0.17887 0.12323 0.56727 0.0
C215 C 0.15622 0.1003 0.58744 0.0
C216 C 0.15709 0.8944 0.13625 0.0
C217 C 0.15072 0.85795 0.14113 0.0
C218 C 0.16827 0.8337 0.11747 0.0
C219 C 0.19018 0.84582 0.08817 0.0
H220 H 0.2845 0.82761 0.01939 0.0
H221 H 0.32718 0.79116 0.98514 0.0
H222 H 0.31226 0.85578 0.88607 0.0
H223 H 0.27013 0.89307 0.92052 0.0
H224 H 0.20001 0.948 0.92347 0.0
H225 H 0.16514 -0.00454 0.89533 0.0
H226 H 0.15765 0.04719 0.00352 0.0
H227 H 0.19049 -0.00188 0.03212 0.0
H228 H 0.18161 0.93482 0.10282 0.0
H229 H 0.14436 0.91368 0.15445 0.0
H230 H 0.16352 0.80549 0.12023 0.0
H231 H 0.20195 0.8266 0.06922 0.0
N232 N 0.23518 0.87496 0.02768 0.0
N233 N 0.23651 0.91675 0.97871 0.0
N234 N 0.20082 0.92681 0.03188 0.0
C235 C 0.24813 0.88568 0.99373 0.0
C236 C 0.21309 0.93753 0.99779 0.0
C237 C 0.21159 0.89549 0.04694 0.0
C238 C 0.27374 0.86323 0.97272 0.0
C239 C 0.29009 0.83403 0.99026 0.0
C240 C 0.31436 0.81294 0.97056 0.0
C241 C 0.32251 0.82028 0.93274 0.0
C242 C 0.30639 0.84953 0.91518 0.0
C243 C 0.28225 0.87081 0.93497 0.0
C244 C 0.19775 0.96936 0.97997 0.0
C245 C 0.19155 0.9699 0.94106 0.0
C246 C 0.1718 -0.00265 0.92487 0.0
C247 C 0.15878 0.0254 0.94707 0.0
C248 C 0.16693 0.02581 0.98569 0.0
C249 C 0.18586 -0.00215 0.00205 0.0
C250 C 0.1944 0.8824 0.08175 0.0
C251 C 0.1785 0.90649 0.10677 0.0
C252 C 0.84037 0.09505 0.63326 0.0
C253 C 0.83747 0.13025 0.64565 0.0
C254 C 0.8153 0.15386 0.62593 0.0
C255 C 0.79662 0.14245 0.59408 0.0
H256 H 0.72462 0.17418 0.51105 0.0
H257 H 0.67955 0.20993 0.4791 0.0
H258 H 0.66129 0.1249 0.40028 0.0
H259 H 0.70682 0.08943 0.43134 0.0
H260 H 0.79737 0.04785 0.4218 0.0
H261 H 0.82947 -0.00063 0.39214 0.0
H262 H 0.82768 0.94118 0.4971 0.0
H263 H 0.7981 0.99142 0.52747 0.0
H264 H 0.82534 0.05648 0.59253 0.0
H265 H 0.85789 0.07647 0.64743 0.0
H266 H 0.81274 0.18117 0.63493 0.0
H267 H 0.78024 0.1614 0.57902 0.0
N268 N 0.75945 0.11664 0.5274 0.0
N269 N 0.75723 0.07593 0.47762 0.0
N270 N 0.79403 0.06479 0.52948 0.0
C271 C 0.74593 0.10665 0.49353 0.0
C272 C 0.78105 0.05486 0.49556 0.0
C273 C 0.78352 0.09574 0.54556 0.0
C274 C 0.71934 0.12891 0.47382 0.0
C275 C 0.7112 0.16316 0.48676 0.0
C276 C 0.68542 0.18364 0.4685 0.0
C277 C 0.66721 0.17026 0.43705 0.0
C278 C 0.6755 0.13618 0.42392 0.0
C279 C 0.70142 0.11579 0.44198 0.0
C280 C 0.79543 0.02324 0.47683 0.0
C281 C 0.80331 0.0244 0.43829 0.0
C282 C 0.82136 -0.00364 0.42122 0.0
C283 C 0.83072 0.96602 0.44206 0.0
C284 C 0.82113 0.96427 0.48031 0.0
C285 C 0.80409 0.99286 0.49768 0.0
C286 C 0.8002 0.10735 0.5812 0.0
C287 C 0.8219 0.0837 0.60152 0.0
Sc288 Sc -0.00355 0.76655 0.30007 0.0
Sc289 Sc 0.98214 0.85893 0.30143 0.0
Sc290 Sc 0.99424 0.81325 0.38617 0.0
O291 O 0.99099 0.81283 0.32924 0.0
C292 C 0.94667 0.74478 0.3693 0.0
C293 C 0.93409 0.80589 0.25491 0.0
C294 C 0.93287 0.8703 0.37348 0.0
C295 C 0.04019 0.82007 0.24914 0.0
C296 C 0.05241 0.75481 0.36668 0.0
C297 C 0.03881 0.88221 0.36353 0.0
O298 O 0.95707 0.74066 0.3354 0.0
O299 O 0.93978 0.83614 0.26922 0.0
O300 O 0.94923 0.84778 0.39358 0.0
O301 O 0.03621 0.78911 0.26281 0.0
O302 O 0.03941 0.77896 0.38724 0.0
O303 O 0.02373 0.88618 0.33176 0.0
O304 O 0.0398 0.74703 0.33459 0.0
O305 O 0.02118 0.8464 0.2591 0.0
O306 O 0.03064 0.85732 0.38616 0.0
O307 O 0.95387 0.77907 0.26096 0.0
O308 O 0.95845 0.76906 0.39077 0.0
O309 O 0.94179 0.87729 0.33986 0.0
Sc310 Sc 0.99267 0.21768 0.80343 0.0
Sc311 Sc -0.00131 0.12454 0.81123 0.0
Sc312 Sc 0.99082 0.17588 0.89268 0.0
O313 O 0.9941 0.1728 0.83574 0.0
C314 C 0.04313 0.23988 0.87146 0.0
C315 C 0.04962 0.17084 0.75851 0.0
C316 C 0.05004 0.1158 0.88152 0.0
C317 C 0.94191 0.16436 0.7591 0.0
C318 C 0.93625 0.23628 0.86818 0.0
C319 C 0.94287 0.10811 0.87715 0.0
O320 O 0.03308 0.24296 0.83741 0.0
O321 O 0.03934 0.14182 0.77293 0.0
O322 O 0.03371 0.1386 0.90147 0.0
O323 O 0.95207 0.19577 0.7668 0.0
O324 O 0.94761 0.21294 0.89091 0.0
O325 O 0.95843 0.10073 0.84638 0.0
O326 O 0.95022 0.24169 0.83606 0.0
O327 O 0.95673 0.13675 0.77242 0.0
O328 O 0.95137 0.13482 0.89686 0.0
O329 O 0.03504 0.20039 0.76623 0.0
O330 O 0.02967 0.21757 0.89428 0.0
O331 O 0.04107 0.10823 0.84807 0.0
Sc332 Sc 0.49897 0.27009 0.30411 0.0
Sc333 Sc 0.4974 0.36358 0.30866 0.0
Sc334 Sc 0.49593 0.31413 0.39188 0.0
O335 O 0.49726 0.31579 0.33482 0.0
C336 C 0.44458 0.25 0.3702 0.0
C337 C 0.44898 0.31773 0.25289 0.0
C338 C 0.43974 0.37554 0.37296 0.0
C339 C 0.55531 0.32041 0.26204 0.0
C340 C 0.55099 0.2524 0.37287 0.0
C341 C 0.54742 0.37994 0.37904 0.0
O342 O 0.45692 0.24539 0.33714 0.0
O343 O 0.46152 0.34652 0.26564 0.0
O344 O 0.45373 0.35281 0.39489 0.0
O345 O 0.54139 0.29004 0.26786 0.0
O346 O 0.53734 0.27525 0.39477 0.0
O347 O 0.53432 0.3873 0.34715 0.0
O348 O 0.54014 0.24746 0.33939 0.0
O349 O 0.54267 0.34895 0.27553 0.0
O350 O 0.53675 0.35371 0.39841 0.0
O351 O 0.45819 0.28739 0.26506 0.0
O352 O 0.45587 0.27387 0.39228 0.0
O353 O 0.45202 0.38217 0.34031 0.0
Sc354 Sc 0.49239 0.7192 0.80265 0.0
Sc355 Sc 0.49764 0.62576 0.80904 0.0
Sc356 Sc 0.49111 0.67613 0.89105 0.0
O357 O 0.49365 0.67381 0.83417 0.0
C358 C 0.54202 0.74141 0.87121 0.0
C359 C 0.55176 0.67226 0.76084 0.0
C360 C 0.54803 0.6146 0.88048 0.0
C361 C 0.44544 0.6673 0.75296 0.0
C362 C 0.43499 0.73534 0.86694 0.0
C363 C 0.44079 0.60986 0.87326 0.0
O364 O 0.53209 0.74493 0.83721 0.0
O365 O 0.54199 0.64315 0.77566 0.0
O366 O 0.53541 0.64052 0.89896 0.0
O367 O 0.45244 0.69837 0.76469 0.0
O368 O 0.44664 0.71184 0.88938 0.0
O369 O 0.4534 0.60406 0.84058 0.0
O370 O 0.44944 0.74222 0.83535 0.0
O371 O 0.46067 0.6397 0.76564 0.0
O372 O 0.45302 0.63379 0.89474 0.0
O373 O 0.53546 0.70148 0.76628 0.0
O374 O 0.52894 0.71848 0.89347 0.0
O375 O 0.53578 0.60549 0.84868 0.0
C376 C 0.10367 0.28764 0.9396 0.0
C377 C 0.13135 0.30034 0.91647 0.0
C378 C 0.07483 0.26901 0.92451 0.0
C379 C 0.07243 0.26243 0.88564 0.0
H380 H 0.10437 0.29202 0.9697 0.0
H381 H 0.05437 0.25944 0.94361 0.0
S382 S 0.13821 0.28996 0.81297 0.0
N383 N 0.15484 0.3051 0.85283 0.0
N384 N 0.10021 0.27028 0.82422 0.0
C385 C 0.09955 0.27566 0.86201 0.0
C386 C 0.12912 0.29456 0.87748 0.0
C387 C 0.89109 0.69474 0.44063 0.0
C388 C 0.86291 0.68101 0.41903 0.0
C389 C 0.91856 0.7144 0.42398 0.0
C390 C 0.91908 0.72093 0.38501 0.0
H391 H 0.89176 0.69054 0.47077 0.0
H392 H 0.93941 0.72487 0.44193 0.0
S393 S 0.85144 0.69091 0.31591 0.0
N394 N 0.83703 0.67526 0.35663 0.0
N395 N 0.88916 0.71192 0.32512 0.0
C396 C 0.89159 0.70659 0.36285 0.0
C397 C 0.86338 0.6867 0.37991 0.0
C398 C 0.85334 0.26473 0.92098 0.0
C399 C 0.85148 0.30135 0.91373 0.0
C400 C 0.88017 0.24375 0.905 0.0
C401 C 0.90596 0.25845 0.88075 0.0
H402 H 0.83422 0.25222 0.9397 0.0
H403 H 0.88101 0.21583 0.91217 0.0
S404 S 0.91262 0.35274 0.85194 0.0
N405 N 0.8776 0.35142 0.88029 0.0
N406 N 0.92758 0.3116 0.84937 0.0
C407 C 0.90368 0.29473 0.872 0.0
C408 C 0.87654 0.31628 0.8887 0.0
C409 C 0.13721 0.69955 0.37252 0.0
C410 C 0.14161 0.69538 0.41157 0.0
C411 C 0.10811 0.7186 0.35792 0.0
C412 C 0.0826 0.7341 0.38198 0.0
H413 H 0.15662 0.6884 0.3532 0.0
H414 H 0.10588 0.72168 0.32771 0.0
S415 S 0.08001 0.727 0.48621 0.0
N416 N 0.11663 0.70557 0.47376 0.0
N417 N 0.06227 0.74157 0.44665 0.0
C418 C 0.08634 0.72924 0.42106 0.0
C419 C 0.11576 0.70983 0.43578 0.0
C420 C 0.62173 0.76981 0.92842 0.0
C421 C 0.62519 0.80603 0.91977 0.0
C422 C 0.59504 0.74919 0.91202 0.0
C423 C 0.57101 0.76382 0.88591 0.0
H424 H 0.63981 0.75721 0.94811 0.0
H425 H 0.59325 0.72146 0.91987 0.0
S426 S 0.56834 0.85725 0.85367 0.0
N427 N 0.602 0.85585 0.88366 0.0
N428 N 0.55225 0.81651 0.85186 0.0
C429 C 0.57454 0.79975 0.87623 0.0
C430 C 0.60154 0.821 0.89338 0.0
C431 C 0.35831 0.19724 0.37496 0.0
C432 C 0.35576 0.18914 0.41355 0.0
C433 C 0.38789 0.21579 0.36053 0.0
C434 C 0.41567 0.22691 0.38434 0.0
H435 H 0.33678 0.19022 0.35604 0.0
H436 H 0.38833 0.22266 0.33093 0.0
S437 S 0.42421 0.2074 0.48629 0.0
N438 N 0.3854 0.18998 0.4743 0.0
N439 N 0.44057 0.22523 0.44748 0.0
C440 C 0.41418 0.21741 0.42259 0.0
C441 C 0.38432 0.19843 0.43713 0.0
C442 C 0.37695 0.81396 0.89206 0.0
C443 C 0.34872 0.79802 0.91219 0.0
C444 C 0.40405 0.79337 0.87569 0.0
C445 C 0.40392 0.75627 0.8793 0.0
H446 H 0.37888 0.84256 0.89022 0.0
H447 H 0.42609 0.80663 0.86171 0.0
S448 S 0.33311 0.7015 0.92358 0.0
N449 N 0.31995 0.74278 0.93044 0.0
N450 N 0.37146 0.7042 0.90065 0.0
C451 C 0.37495 0.73996 0.89759 0.0
C452 C 0.3472 0.76082 0.9138 0.0
C453 C 0.6117 0.20634 0.44244 0.0
C454 C 0.63811 0.19104 0.41948 0.0
C455 C 0.58358 0.2258 0.42693 0.0
C456 C 0.58061 0.23062 0.38779 0.0
H457 H 0.61254 0.20294 0.4727 0.0
H458 H 0.56385 0.23695 0.44589 0.0
S459 S 0.64386 0.19723 0.31549 0.0
N460 N 0.66041 0.18287 0.35576 0.0
N461 N 0.60707 0.2192 0.32639 0.0
C462 C 0.60682 0.21541 0.36441 0.0
C463 C 0.63568 0.19568 0.38031 0.0
C464 C 0.3796 0.53035 0.8857 0.0
C465 C 0.36154 0.53818 0.9194 0.0
C466 C 0.40423 0.55426 0.87016 0.0
C467 C 0.41174 0.58681 0.88783 0.0
H468 H 0.3759 0.50491 0.87217 0.0
H469 H 0.41845 0.54647 0.84491 0.0
S470 S 0.36743 0.62158 0.97398 0.0
N471 N 0.34971 0.58196 0.96783 0.0
N472 N 0.3961 0.62693 0.93907 0.0
C473 C 0.39223 0.59568 0.92051 0.0
C474 C 0.36714 0.57136 0.93617 0.0
C475 C 0.61473 0.41914 0.44714 0.0
C476 C 0.62761 0.44906 0.4278 0.0
C477 C 0.58945 0.39659 0.43084 0.0
C478 C 0.57591 0.40311 0.39454 0.0
H479 H 0.62382 0.41344 0.47543 0.0
H480 H 0.57999 0.37427 0.44728 0.0
S481 S 0.60256 0.47734 0.33141 0.0
N482 N 0.62593 0.48368 0.37013 0.0
N483 N 0.57899 0.44104 0.33895 0.0
C484 C 0.58962 0.43237 0.37435 0.0
C485 C 0.61534 0.45536 0.39108 0.0
C486 C 0.61132 0.53765 0.89756 0.0
C487 C 0.63045 0.54826 0.92958 0.0
C488 C 0.58536 0.55963 0.88154 0.0
C489 C 0.57738 0.59312 0.89693 0.0
H490 H 0.61549 0.51158 0.88558 0.0
H491 H 0.57076 0.54971 0.85747 0.0
S492 S 0.62323 0.63488 0.9782 0.0
N493 N 0.64208 0.59544 0.97434 0.0
N494 N 0.59312 0.63698 0.94437 0.0
C495 C 0.59741 0.60464 0.92814 0.0
C496 C 0.62394 0.58216 0.94443 0.0
C497 C 0.37551 0.45222 0.38638 0.0
C498 C 0.3556 0.44182 0.41811 0.0
C499 C 0.40169 0.42999 0.371 0.0
C500 C 0.40905 0.3966 0.38693 0.0
H501 H 0.37208 0.47843 0.37441 0.0
H502 H 0.41731 0.43978 0.34748 0.0
S503 S 0.36022 0.35488 0.46662 0.0
N504 N 0.34193 0.39454 0.46231 0.0
N505 N 0.39129 0.35261 0.43364 0.0
C506 C 0.38781 0.38506 0.41736 0.0
C507 C 0.36107 0.40771 0.43291 0.0
C508 C 0.87454 0.06671 0.9429 0.0
C509 C 0.86397 0.036 0.92362 0.0
C510 C 0.8992 0.09031 0.92714 0.0
C511 C 0.91451 0.08404 0.89149 0.0
H512 H 0.86414 0.07218 0.97077 0.0
H513 H 0.90692 0.1132 0.94359 0.0
S514 S 0.894 0.00795 0.82874 0.0
N515 N 0.86941 0.00094 0.86663 0.0
N516 N 0.91552 0.04542 0.83652 0.0
C517 C 0.90306 0.05396 0.8713 0.0
C518 C 0.87784 0.02994 0.88745 0.0
C519 C 0.11107 0.92577 0.42212 0.0
C520 C 0.11526 0.95908 0.40499 0.0
C521 C 0.08718 0.90076 0.40772 0.0
C522 C 0.06638 0.90809 0.37562 0.0
H523 H 0.12581 0.91927 0.44741 0.0
H524 H 0.08453 0.87574 0.42247 0.0
S525 S 0.06875 0.9913 0.31953 0.0
N526 N 0.09778 -0.00204 0.3537 0.0
N527 N 0.05295 0.9509 0.32618 0.0
C528 C 0.07143 0.94091 0.35732 0.0
C529 C 0.09585 0.96641 0.37211 0.0
C530 C 0.10251 0.06115 0.95129 0.0
C531 C 0.13354 0.05186 0.93098 0.0
C532 C 0.07625 0.08301 0.93554 0.0
C533 C 0.07967 0.09581 0.89863 0.0
H534 H 0.09771 0.05039 0.97911 0.0
H535 H 0.05239 0.08867 0.95182 0.0
S536 S 0.15733 0.08335 0.8351 0.0
N537 N 0.16777 0.06071 0.87334 0.0
N538 N 0.11736 0.1004 0.84314 0.0
C539 C 0.11092 0.08788 0.87838 0.0
C540 C 0.13809 0.06624 0.89468 0.0
C541 C 0.88266 0.92438 0.44559 0.0
C542 C 0.85363 0.93811 0.42501 0.0
C543 C 0.90725 0.9012 0.42905 0.0
C544 C 0.9042 0.8914 0.39109 0.0
H545 H 0.88739 0.9327 0.47428 0.0
H546 H 0.92977 0.89224 0.44568 0.0
S547 S 0.83099 0.91634 0.32612 0.0
N548 N 0.82112 0.93685 0.36578 0.0
N549 N 0.86865 0.89474 0.33408 0.0
C550 C 0.87472 0.90378 0.3705 0.0
C551 C 0.84914 0.92677 0.3876 0.0
C552 C 0.36595 0.30929 0.19231 0.0
C553 C 0.37303 0.33412 0.16364 0.0
C554 C 0.39135 0.3025 0.22059 0.0
C555 C 0.42427 0.32053 0.22086 0.0
H556 H 0.34021 0.29619 0.19369 0.0
H557 H 0.3846 0.28437 0.24318 0.0
S558 S 0.45776 0.38326 0.14857 0.0
N559 N 0.41697 0.37306 0.13464 0.0
N560 N 0.46416 0.36085 0.18789 0.0
C561 C 0.43231 0.3437 0.19111 0.0
C562 C 0.40681 0.35034 0.16242 0.0
C563 C 0.63537 0.63859 0.71326 0.0
C564 C 0.6357 0.65732 0.67906 0.0
C565 C 0.60927 0.64519 0.74055 0.0
C566 C 0.58262 0.67096 0.73483 0.0
H567 H 0.65439 0.61739 0.71815 0.0
H568 H 0.60911 0.62893 0.76572 0.0
S569 S 0.57374 0.72961 0.65155 0.0
N570 N 0.60873 0.70442 0.64196 0.0
N571 N 0.55986 0.71735 0.69375 0.0
C572 C 0.5842 0.69175 0.70199 0.0
C573 C 0.61073 0.6848 0.67397 0.0
C574 C 0.61496 0.31201 0.1764 0.0
C575 C 0.63922 0.3401 0.18166 0.0
C576 C 0.58914 0.30386 0.20382 0.0
C577 C 0.58675 0.32376 0.23714 0.0
H578 H 0.61443 0.29774 0.14998 0.0
H579 H 0.56954 0.28351 0.19781 0.0
S580 S 0.64843 0.39526 0.26732 0.0
N581 N 0.66259 0.38417 0.2249 0.0
N582 N 0.6139 0.36927 0.27617 0.0
C583 C 0.61271 0.34994 0.24394 0.0
C584 C 0.639 0.35802 0.21625 0.0
C585 C 0.40022 0.62657 0.66876 0.0
C586 C 0.36873 0.64659 0.66481 0.0
C587 C 0.42493 0.63409 0.69695 0.0
C588 C 0.41948 0.66222 0.7222 0.0
H589 H 0.40588 0.60475 0.64987 0.0
H590 H 0.44859 0.61759 0.69895 0.0
S591 S 0.34163 0.72311 0.72384 0.0
N592 N 0.33339 0.69598 0.68845 0.0
N593 N 0.38058 0.71065 0.74131 0.0
C594 C 0.38864 0.68319 0.71811 0.0
C595 C 0.3631 0.67526 0.68943 0.0
C596 C 0.88792 0.79851 0.1614 0.0
C597 C 0.85524 0.8156 0.16868 0.0
C598 C 0.9124 0.79219 0.19049 0.0
C599 C 0.90495 0.80336 0.22739 0.0
H600 H 0.8956 0.79232 0.13274 0.0
H601 H 0.93837 0.78121 0.18355 0.0
S602 S 0.82067 0.8439 0.26139 0.0
N603 N 0.81478 0.83943 0.21562 0.0
N604 N 0.86097 0.82806 0.27039 0.0
C605 C 0.87121 0.81789 0.23533 0.0
C606 C 0.84625 0.82392 0.20587 0.0
C607 C 0.12615 0.13414 0.70087 0.0
C608 C 0.12703 0.1567 0.66939 0.0
C609 C 0.10239 0.1402 0.73059 0.0
C610 C 0.07859 0.16914 0.73007 0.0
H611 H 0.1429 0.1107 0.70176 0.0
H612 H 0.10178 0.12125 0.75351 0.0
S613 S 0.07267 0.23792 0.65559 0.0
N614 N 0.10396 0.21046 0.6405 0.0
N615 N 0.05945 0.22224 0.69673 0.0
C616 C 0.08094 0.19333 0.69998 0.0
C617 C 0.10514 0.18702 0.66953 0.0
C618 C 0.08976 0.86368 0.16876 0.0
C619 C 0.12291 0.84607 0.16823 0.0
C620 C 0.06306 0.85433 0.19441 0.0
C621 C 0.06816 0.82672 0.22048 0.0
H622 H 0.08435 0.88502 0.14914 0.0
H623 H 0.03819 0.86908 0.19387 0.0
S624 S 0.15 0.77194 0.2307 0.0
N625 N 0.15944 0.79953 0.19593 0.0
N626 N 0.10875 0.78147 0.24403 0.0
C627 C 0.10081 0.80817 0.21974 0.0
C628 C 0.12828 0.81794 0.19364 0.0
C629 C 0.88222 0.17198 0.67349 0.0
C630 C 0.85962 0.14236 0.67763 0.0
C631 C 0.90777 0.18027 0.70098 0.0
C632 C 0.91164 0.15899 0.73321 0.0
H633 H 0.88142 0.18773 0.648 0.0
H634 H 0.92581 0.20226 0.696 0.0
S635 S 0.85472 0.08249 0.7603 0.0
N636 N 0.8395 0.0948 0.71872 0.0
N637 N 0.88782 0.10993 0.77001 0.0
C638 C 0.88761 0.13079 0.73877 0.0
C639 C 0.86151 0.12258 0.71106 0.0
loop_
_geom_bond_atom_site_label_1
_geom_bond_atom_site_label_2
_geom_bond_distance
_geom_bond_site_symmetry_2
_ccdc_geom_bond_type
C0 C1 1.384 . S
C0 H13 0.947 . S
C0 C35 1.382 . S
C1 C0 1.384 . S
C1 C2 1.378 . S
C2 C1 1.378 . S
C2 C3 1.378 . S
C2 H14 0.952 . S
C3 C2 1.378 . S
C3 H15 0.950 . S
C3 C34 1.383 . S
H4 C23 0.947 1_554 S
H5 C24 0.946 1_554 S
H6 C26 0.953 . S
H7 C27 0.945 . S
H8 C29 0.952 . S
H9 C30 0.949 . S
H10 C32 0.950 . S
H11 C33 0.948 1_554 S
H12 C35 0.951 . S
H13 C0 0.947 . S
H14 C2 0.952 . S
H15 C3 0.950 . S
N16 C19 1.382 1_554 S
N16 C21 1.363 . S
N17 C19 1.371 . S
N17 C20 1.372 . S
N18 C20 1.361 1_554 S
N18 C21 1.377 . S
C19 N16 1.382 1_556 S
C19 N17 1.371 . S
C19 C22 1.480 . S
C20 N17 1.372 . S
C20 N18 1.361 1_556 S
C20 C28 1.457 . S
C21 N16 1.363 . S
C21 N18 1.377 . S
C21 C34 1.479 . S
C22 C19 1.480 . S
C22 C23 1.383 . S
C22 C27 1.385 . S
C23 H4 0.947 1_556 S
C23 C22 1.383 . S
C23 C24 1.388 . S
C24 H5 0.946 1_556 S
C24 C23 1.388 . S
C24 C25 1.384 . S
C25 C24 1.384 . S
C25 C26 1.377 . S
C26 H6 0.953 . S
C26 C25 1.377 . S
C26 C27 1.369 . S
C27 H7 0.945 . S
C27 C22 1.385 . S
C27 C26 1.369 . S
C28 C20 1.457 . S
C28 C29 1.372 . S
C28 C33 1.364 . S
C29 H8 0.952 . S
C29 C28 1.372 . S
C29 C30 1.389 . S
C30 H9 0.949 . S
C30 C29 1.389 . S
C30 C31 1.387 . S
C31 C30 1.387 . S
C31 C32 1.372 . S
C32 H10 0.950 . S
C32 C31 1.372 . S
C32 C33 1.379 . S
C33 H11 0.948 1_556 S
C33 C28 1.364 . S
C33 C32 1.379 . S
C34 C3 1.383 . S
C34 C21 1.479 . S
C34 C35 1.398 . S
C35 C0 1.382 . S
C35 H12 0.951 . S
C35 C34 1.398 . S
C36 C37 1.384 . S
C36 H49 0.947 . S
C36 C71 1.382 . S
C37 C36 1.384 . S
C37 C38 1.378 . S
C38 C37 1.378 . S
C38 C39 1.378 . S
C38 H50 0.952 . S
C39 C38 1.378 . S
C39 H51 0.950 . S
C39 C70 1.383 . S
H40 C59 0.947 . S
H41 C60 0.946 . S
H42 C62 0.953 . S
H43 C63 0.945 . S
H44 C65 0.952 . S
H45 C66 0.949 . S
H46 C68 0.950 . S
H47 C69 0.948 . S
H48 C71 0.951 . S
H49 C36 0.947 . S
H50 C38 0.952 . S
H51 C39 0.950 . S
N52 C55 1.382 . S
N52 C57 1.363 . S
N53 C55 1.371 . S
N53 C56 1.372 . S
N54 C56 1.361 . S
N54 C57 1.377 . S
C55 N52 1.382 . S
C55 N53 1.371 . S
C55 C58 1.480 . S
C56 N53 1.372 . S
C56 N54 1.361 . S
C56 C64 1.457 . S
C57 N52 1.363 . S
C57 N54 1.377 . S
C57 C70 1.479 . S
C58 C55 1.480 . S
C58 C59 1.383 . S
C58 C63 1.385 . S
C59 H40 0.947 . S
C59 C58 1.383 . S
C59 C60 1.388 . S
C60 H41 0.946 . S
C60 C59 1.388 . S
C60 C61 1.384 . S
C61 C60 1.384 . S
C61 C62 1.377 . S
C62 H42 0.953 . S
C62 C61 1.377 . S
C62 C63 1.369 . S
C63 H43 0.945 . S
C63 C58 1.385 . S
C63 C62 1.369 . S
C64 C56 1.457 . S
C64 C65 1.372 . S
C64 C69 1.364 . S
C65 H44 0.952 . S
C65 C64 1.372 . S
C65 C66 1.389 . S
C66 H45 0.949 . S
C66 C65 1.389 . S
C66 C67 1.387 . S
C67 C66 1.387 . S
C67 C68 1.372 . S
C68 H46 0.950 . S
C68 C67 1.372 . S
C68 C69 1.379 . S
C69 H47 0.948 . S
C69 C64 1.364 . S
C69 C68 1.379 . S
C70 C39 1.383 . S
C70 C57 1.479 . S
C70 C71 1.398 . S
C71 C36 1.382 . S
C71 H48 0.951 . S
C71 C70 1.398 . S
C72 C73 1.384 . S
C72 H85 0.947 . S
C72 C107 1.382 . S
C73 C72 1.384 . S
C73 C74 1.378 . S
C74 C73 1.378 . S
C74 C75 1.378 . S
C74 H86 0.952 . S
C75 C74 1.378 . S
C75 H87 0.950 . S
C75 C106 1.383 . S
H76 C95 0.947 . S
H77 C96 0.946 . S
H78 C98 0.953 . S
H79 C99 0.945 . S
H80 C101 0.952 . S
H81 C102 0.949 . S
H82 C104 0.950 . S
H83 C105 0.948 1_554 S
H84 C107 0.951 . S
H85 C72 0.947 . S
H86 C74 0.952 . S
H87 C75 0.950 . S
N88 C91 1.356 1_554 S
N88 C93 1.363 . S
N89 C91 1.388 . S
N89 C92 1.372 . S
N90 C92 1.361 1_554 S
N90 C93 1.377 . S
C91 N88 1.356 1_556 S
C91 N89 1.388 . S
C91 C94 1.492 . S
C92 N89 1.372 . S
C92 N90 1.361 1_556 S
C92 C100 1.457 . S
C93 N88 1.363 . S
C93 N90 1.377 . S
C93 C106 1.479 . S
C94 C91 1.492 . S
C94 C95 1.383 1_556 S
C94 C99 1.385 . S
C95 H76 0.947 . S
C95 C94 1.383 1_554 S
C95 C96 1.388 1_554 S
C96 H77 0.946 . S
C96 C95 1.388 1_556 S
C96 C97 1.384 . S
C97 C96 1.384 . S
C97 C98 1.377 . S
C98 H78 0.953 . S
C98 C97 1.377 . S
C98 C99 1.369 . S
C99 H79 0.945 . S
C99 C94 1.385 . S
C99 C98 1.369 . S
C100 C92 1.457 . S
C100 C101 1.372 . S
C100 C105 1.364 . S
C101 H80 0.952 . S
C101 C100 1.372 . S
C101 C102 1.389 . S
C102 H81 0.949 . S
C102 C101 1.389 . S
C102 C103 1.387 . S
C103 C102 1.387 . S
C103 C104 1.372 . S
C104 H82 0.950 . S
C104 C103 1.372 . S
C104 C105 1.379 . S
C105 H83 0.948 1_556 S
C105 C100 1.364 . S
C105 C104 1.379 . S
C106 C75 1.383 . S
C106 C93 1.479 . S
C106 C107 1.398 . S
C107 C72 1.382 . S
C107 H84 0.951 . S
C107 C106 1.398 . S
C108 C109 1.384 . S
C108 H121 0.947 . S
C108 C143 1.382 . S
C109 C108 1.384 . S
C109 C110 1.378 . S
C110 C109 1.378 . S
C110 C111 1.378 . S
C110 H122 0.952 . S
C111 C110 1.378 . S
C111 H123 0.950 . S
C111 C142 1.383 . S
H112 C131 0.947 . S
H113 C132 0.946 . S
H114 C134 0.953 . S
H115 C135 0.945 . S
H116 C137 0.952 . S
H117 C138 0.949 . S
H118 C140 0.950 . S
H119 C141 0.948 . S
H120 C143 0.951 . S
H121 C108 0.947 . S
H122 C110 0.952 . S
H123 C111 0.950 . S
N124 C127 1.382 . S
N124 C129 1.363 . S
N125 C127 1.371 . S
N125 C128 1.372 . S
N126 C128 1.361 . S
N126 C129 1.377 . S
C127 N124 1.382 . S
C127 N125 1.371 . S
C127 C130 1.480 . S
C128 N125 1.372 . S
C128 N126 1.361 . S
C128 C136 1.457 . S
C129 N124 1.363 . S
C129 N126 1.377 . S
C129 C142 1.479 . S
C130 C127 1.480 . S
C130 C131 1.383 . S
C130 C135 1.385 . S
C131 H112 0.947 . S
C131 C130 1.383 . S
C131 C132 1.388 . S
C132 H113 0.946 . S
C132 C131 1.388 . S
C132 C133 1.384 . S
C133 C132 1.384 . S
C133 C134 1.377 . S
C134 H114 0.953 . S
C134 C133 1.377 . S
C134 C135 1.369 . S
C135 H115 0.945 . S
C135 C130 1.385 . S
C135 C134 1.369 . S
C136 C128 1.457 . S
C136 C137 1.372 . S
C136 C141 1.364 . S
C137 H116 0.952 . S
C137 C136 1.372 . S
C137 C138 1.389 . S
C138 H117 0.949 . S
C138 C137 1.389 . S
C138 C139 1.387 . S
C139 C138 1.387 . S
C139 C140 1.372 . S
C140 H118 0.950 . S
C140 C139 1.372 . S
C140 C141 1.379 . S
C141 H119 0.948 . S
C141 C136 1.364 . S
C141 C140 1.379 . S
C142 C111 1.383 . S
C142 C129 1.479 . S
C142 C143 1.398 . S
C143 C108 1.382 . S
C143 H120 0.951 . S
C143 C142 1.398 . S
C144 C145 1.384 . S
C144 H157 0.947 . S
C144 C179 1.382 . S
C145 C144 1.384 . S
C145 C146 1.378 . S
C146 C145 1.378 . S
C146 C147 1.378 . S
C146 H158 0.952 . S
C147 C146 1.378 . S
C147 H159 0.950 . S
C147 C178 1.383 . S
H148 C167 0.947 1_554 S
H149 C168 0.946 1_554 S
H150 C170 0.953 . S
H151 C171 0.945 . S
H152 C173 0.952 . S
H153 C174 0.949 . S
H154 C176 0.950 . S
H155 C177 0.948 1_554 S
H156 C179 0.951 . S
H157 C144 0.947 . S
H158 C146 0.952 . S
H159 C147 0.950 . S
N160 C163 1.382 1_554 S
N160 C165 1.363 . S
N161 C163 1.371 . S
N161 C164 1.372 . S
N162 C164 1.361 1_554 S
N162 C165 1.377 . S
C163 N160 1.382 1_556 S
C163 N161 1.371 . S
C163 C166 1.480 . S
C164 N161 1.372 . S
C164 N162 1.361 1_556 S
C164 C172 1.457 . S
C165 N160 1.363 . S
C165 N162 1.377 . S
C165 C178 1.479 . S
C166 C163 1.480 . S
C166 C167 1.383 . S
C166 C171 1.385 . S
C167 H148 0.947 1_556 S
C167 C166 1.383 . S
C167 C168 1.388 . S
C168 H149 0.946 1_556 S
C168 C167 1.388 . S
C168 C169 1.384 . S
C169 C168 1.384 . S
C169 C170 1.377 . S
C170 H150 0.953 . S
C170 C169 1.377 . S
C170 C171 1.369 . S
C171 H151 0.945 . S
C171 C166 1.385 . S
C171 C170 1.369 . S
C172 C164 1.457 . S
C172 C173 1.372 . S
C172 C177 1.364 . S
C173 H152 0.952 . S
C173 C172 1.372 . S
C173 C174 1.389 1_565 S
C174 H153 0.949 . S
C174 C173 1.389 1_545 S
C174 C175 1.387 . S
C175 C174 1.387 . S
C175 C176 1.372 . S
C176 H154 0.950 . S
C176 C175 1.372 . S
C176 C177 1.379 1_545 S
C177 H155 0.948 1_556 S
C177 C172 1.364 . S
C177 C176 1.379 1_565 S
C178 C147 1.383 . S
C178 C165 1.479 . S
C178 C179 1.398 . S
C179 C144 1.382 . S
C179 H156 0.951 . S
C179 C178 1.398 . S
C180 C181 1.384 . S
C180 H193 0.947 . S
C180 C215 1.382 . S
C181 C180 1.384 . S
C181 C182 1.378 . S
C182 C181 1.378 . S
C182 C183 1.378 . S
C182 H194 0.952 . S
C183 C182 1.378 . S
C183 H195 0.950 . S
C183 C214 1.383 . S
H184 C203 0.947 . S
H185 C204 0.946 . S
H186 C206 0.953 . S
H187 C207 0.945 . S
H188 C209 0.952 . S
H189 C210 0.949 . S
H190 C212 0.950 . S
H191 C213 0.948 . S
H192 C215 0.951 . S
H193 C180 0.947 . S
H194 C182 0.952 . S
H195 C183 0.950 . S
N196 C199 1.382 . S
N196 C201 1.363 . S
N197 C199 1.371 . S
N197 C200 1.372 . S
N198 C200 1.361 . S
N198 C201 1.377 . S
C199 N196 1.382 . S
C199 N197 1.371 . S
C199 C202 1.480 . S
C200 N197 1.372 . S
C200 N198 1.361 . S
C200 C208 1.457 . S
C201 N196 1.363 . S
C201 N198 1.377 . S
C201 C214 1.479 . S
C202 C199 1.480 . S
C202 C203 1.383 . S
C202 C207 1.385 . S
C203 H184 0.947 . S
C203 C202 1.383 . S
C203 C204 1.388 . S
C204 H185 0.946 . S
C204 C203 1.388 . S
C204 C205 1.384 . S
C205 C204 1.384 . S
C205 C206 1.377 . S
C206 H186 0.953 . S
C206 C205 1.377 . S
C206 C207 1.369 . S
C207 H187 0.945 . S
C207 C202 1.385 . S
C207 C206 1.369 . S
C208 C200 1.457 . S
C208 C209 1.372 . S
C208 C213 1.364 . S
C209 H188 0.952 . S
C209 C208 1.372 . S
C209 C210 1.389 1_545 S
C210 H189 0.949 . S
C210 C209 1.389 1_565 S
C210 C211 1.387 . S
C211 C210 1.387 . S
C211 C212 1.372 . S
C212 H190 0.950 . S
C212 C211 1.372 . S
C212 C213 1.379 1_565 S
C213 H191 0.948 . S
C213 C208 1.364 . S
C213 C212 1.379 1_545 S
C214 C183 1.383 . S
C214 C201 1.479 . S
C214 C215 1.398 . S
C215 C180 1.382 . S
C215 H192 0.951 . S
C215 C214 1.398 . S
C216 C217 1.384 . S
C216 H229 0.947 . S
C216 C251 1.382 . S
C217 C216 1.384 . S
C217 C218 1.378 . S
C218 C217 1.378 . S
C218 C219 1.378 . S
C218 H230 0.952 . S
C219 C218 1.378 . S
C219 H231 0.950 . S
C219 C250 1.383 . S
H220 C239 0.947 . S
H221 C240 0.946 . S
H222 C242 0.953 . S
H223 C243 0.945 . S
H224 C245 0.952 . S
H225 C246 0.949 . S
H226 C248 0.950 . S
H227 C249 0.948 1_554 S
H228 C251 0.951 . S
H229 C216 0.947 . S
H230 C218 0.952 . S
H231 C219 0.950 . S
N232 C235 1.356 1_554 S
N232 C237 1.363 . S
N233 C235 1.388 . S
N233 C236 1.372 . S
N234 C236 1.361 1_554 S
N234 C237 1.377 . S
C235 N232 1.356 1_556 S
C235 N233 1.388 . S
C235 C238 1.492 . S
C236 N233 1.372 . S
C236 N234 1.361 1_556 S
C236 C244 1.457 . S
C237 N232 1.363 . S
C237 N234 1.377 . S
C237 C250 1.479 . S
C238 C235 1.492 . S
C238 C239 1.383 1_556 S
C238 C243 1.385 . S
C239 H220 0.947 . S
C239 C238 1.383 1_554 S
C239 C240 1.388 1_554 S
C240 H221 0.946 . S
C240 C239 1.388 1_556 S
C240 C241 1.384 . S
C241 C240 1.384 . S
C241 C242 1.377 . S
C242 H222 0.953 . S
C242 C241 1.377 . S
C242 C243 1.369 . S
C243 H223 0.945 . S
C243 C238 1.385 . S
C243 C242 1.369 . S
C244 C236 1.457 . S
C244 C245 1.372 . S
C244 C249 1.364 . S
C245 H224 0.952 . S
C245 C244 1.372 . S
C245 C246 1.389 1_565 S
C246 H225 0.949 . S
C246 C245 1.389 1_545 S
C246 C247 1.387 . S
C247 C246 1.387 . S
C247 C248 1.372 . S
C248 H226 0.950 . S
C248 C247 1.372 . S
C248 C249 1.379 1_545 S
C249 H227 0.948 1_556 S
C249 C244 1.364 . S
C249 C248 1.379 1_565 S
C250 C219 1.383 . S
C250 C237 1.479 . S
C250 C251 1.398 . S
C251 C216 1.382 . S
C251 H228 0.951 . S
C251 C250 1.398 . S
C252 C253 1.384 . S
C252 H265 0.947 . S
C252 C287 1.382 . S
C253 C252 1.384 . S
C253 C254 1.378 . S
C254 C253 1.378 . S
C254 C255 1.378 . S
C254 H266 0.952 . S
C255 C254 1.378 . S
C255 H267 0.950 . S
C255 C286 1.383 . S
H256 C275 0.947 . S
H257 C276 0.946 . S
H258 C278 0.953 . S
H259 C279 0.945 . S
H260 C281 0.952 . S
H261 C282 0.949 . S
H262 C284 0.950 . S
H263 C285 0.948 . S
H264 C287 0.951 . S
H265 C252 0.947 . S
H266 C254 0.952 . S
H267 C255 0.950 . S
N268 C271 1.382 . S
N268 C273 1.363 . S
N269 C271 1.371 . S
N269 C272 1.372 . S
N270 C272 1.361 . S
N270 C273 1.377 . S
C271 N268 1.382 . S
C271 N269 1.371 . S
C271 C274 1.480 . S
C272 N269 1.372 . S
C272 N270 1.361 . S
C272 C280 1.457 . S
C273 N268 1.363 . S
C273 N270 1.377 . S
C273 C286 1.479 . S
C274 C271 1.480 . S
C274 C275 1.383 . S
C274 C279 1.385 . S
C275 H256 0.947 . S
C275 C274 1.383 . S
C275 C276 1.388 . S
C276 H257 0.946 . S
C276 C275 1.388 . S
C276 C277 1.384 . S
C277 C276 1.384 . S
C277 C278 1.377 . S
C278 H258 0.953 . S
C278 C277 1.377 . S
C278 C279 1.369 . S
C279 H259 0.945 . S
C279 C274 1.385 . S
C279 C278 1.369 . S
C280 C272 1.457 . S
C280 C281 1.372 . S
C280 C285 1.364 . S
C281 H260 0.952 . S
C281 C280 1.372 . S
C281 C282 1.389 1_545 S
C282 H261 0.949 . S
C282 C281 1.389 1_565 S
C282 C283 1.387 . S
C283 C282 1.387 . S
C283 C284 1.372 . S
C284 H262 0.950 . S
C284 C283 1.372 . S
C284 C285 1.379 1_565 S
C285 H263 0.948 . S
C285 C280 1.364 . S
C285 C284 1.379 1_545 S
C286 C255 1.383 . S
C286 C273 1.479 . S
C286 C287 1.398 . S
C287 C252 1.382 . S
C287 H264 0.951 . S
C287 C286 1.398 . S
Sc288 O291 2.025 . S
Sc288 O298 2.105 1_455 S
Sc288 O301 2.105 . S
Sc288 O304 2.105 . S
Sc288 O307 2.105 1_455 S
Sc289 O291 2.025 . S
Sc289 O299 2.105 1_455 S
Sc289 O303 2.105 . S
Sc289 O305 2.105 . S
Sc289 O309 2.105 1_455 S
Sc290 O291 2.025 . S
Sc290 O300 2.105 1_455 S
Sc290 O302 2.105 . S
Sc290 O306 2.105 . S
Sc290 O308 2.105 1_455 S
O291 Sc288 2.025 . S
O291 Sc289 2.025 . S
O291 Sc290 2.025 . S
C292 O298 1.268 . S
C292 O308 1.268 . S
C293 O299 1.268 . S
C293 O307 1.268 . S
C294 O300 1.268 . S
C294 O309 1.268 . S
C295 O301 1.268 . S
C295 O305 1.268 . S
C296 O302 1.268 . S
C296 O304 1.268 . S
C297 O303 1.268 . S
C297 O306 1.268 . S
O298 Sc288 2.105 1_655 S
O298 C292 1.268 . S
O299 Sc289 2.105 1_655 S
O299 C293 1.268 . S
O300 Sc290 2.105 1_655 S
O300 C294 1.268 . S
O301 Sc288 2.105 . S
O301 C295 1.268 . S
O302 Sc290 2.105 . S
O302 C296 1.268 . S
O303 Sc289 2.105 . S
O303 C297 1.268 . S
O304 Sc288 2.105 . S
O304 C296 1.268 . S
O305 Sc289 2.105 . S
O305 C295 1.268 . S
O306 Sc290 2.105 . S
O306 C297 1.268 . S
O307 Sc288 2.105 1_655 S
O307 C293 1.268 . S
O308 Sc290 2.105 1_655 S
O308 C292 1.268 . S
O309 Sc289 2.105 1_655 S
O309 C294 1.268 . S
Sc310 O313 2.025 . S
Sc310 O320 2.105 . S
Sc310 O323 2.105 1_455 S
Sc310 O326 2.105 1_455 S
Sc310 O329 2.105 . S
Sc311 O313 2.025 . S
Sc311 O321 2.105 . S
Sc311 O325 2.105 1_455 S
Sc311 O327 2.105 1_455 S
Sc311 O331 2.105 . S
Sc312 O313 2.025 . S
Sc312 O322 2.105 . S
Sc312 O324 2.105 1_455 S
Sc312 O328 2.105 1_455 S
Sc312 O330 2.105 . S
O313 Sc310 2.025 . S
O313 Sc311 2.025 . S
O313 Sc312 2.025 . S
C314 O320 1.268 . S
C314 O330 1.268 . S
C315 O321 1.268 . S
C315 O329 1.268 . S
C316 O322 1.268 . S
C316 O331 1.268 . S
C317 O323 1.268 . S
C317 O327 1.268 . S
C318 O324 1.268 . S
C318 O326 1.268 . S
C319 O325 1.268 . S
C319 O328 1.268 . S
O320 Sc310 2.105 . S
O320 C314 1.268 . S
O321 Sc311 2.105 . S
O321 C315 1.268 . S
O322 Sc312 2.105 . S
O322 C316 1.268 . S
O323 Sc310 2.105 1_655 S
O323 C317 1.268 . S
O324 Sc312 2.105 1_655 S
O324 C318 1.268 . S
O325 Sc311 2.105 1_655 S
O325 C319 1.268 . S
O326 Sc310 2.105 1_655 S
O326 C318 1.268 . S
O327 Sc311 2.105 1_655 S
O327 C317 1.268 . S
O328 Sc312 2.105 1_655 S
O328 C319 1.268 . S
O329 Sc310 2.105 . S
O329 C315 1.268 . S
O330 Sc312 2.105 . S
O330 C314 1.268 . S
O331 Sc311 2.105 . S
O331 C316 1.268 . S
Sc332 O335 2.025 . S
Sc332 O342 2.105 . S
Sc332 O345 2.105 . S
Sc332 O348 2.105 . S
Sc332 O351 2.105 . S
Sc333 O335 2.025 . S
Sc333 O343 2.105 . S
Sc333 O347 2.105 . S
Sc333 O349 2.105 . S
Sc333 O353 2.105 . S
Sc334 O335 2.025 . S
Sc334 O344 2.105 . S
Sc334 O346 2.105 . S
Sc334 O350 2.105 . S
Sc334 O352 2.105 . S
O335 Sc332 2.025 . S
O335 Sc333 2.025 . S
O335 Sc334 2.025 . S
C336 O342 1.268 . S
C336 O352 1.268 . S
C337 O343 1.268 . S
C337 O351 1.268 . S
C338 O344 1.268 . S
C338 O353 1.268 . S
C339 O345 1.268 . S
C339 O349 1.268 . S
C340 O346 1.268 . S
C340 O348 1.268 . S
C341 O347 1.268 . S
C341 O350 1.268 . S
O342 Sc332 2.105 . S
O342 C336 1.268 . S
O343 Sc333 2.105 . S
O343 C337 1.268 . S
O344 Sc334 2.105 . S
O344 C338 1.268 . S
O345 Sc332 2.105 . S
O345 C339 1.268 . S
O346 Sc334 2.105 . S
O346 C340 1.268 . S
O347 Sc333 2.105 . S
O347 C341 1.268 . S
O348 Sc332 2.105 . S
O348 C340 1.268 . S
O349 Sc333 2.105 . S
O349 C339 1.268 . S
O350 Sc334 2.105 . S
O350 C341 1.268 . S
O351 Sc332 2.105 . S
O351 C337 1.268 . S
O352 Sc334 2.105 . S
O352 C336 1.268 . S
O353 Sc333 2.105 . S
O353 C338 1.268 . S
Sc354 O357 2.025 . S
Sc354 O364 2.105 . S
Sc354 O367 2.105 . S
Sc354 O370 2.105 . S
Sc354 O373 2.105 . S
Sc355 O357 2.025 . S
Sc355 O365 2.105 . S
Sc355 O369 2.105 . S
Sc355 O371 2.105 . S
Sc355 O375 2.105 . S
Sc356 O357 2.025 . S
Sc356 O366 2.105 . S
Sc356 O368 2.105 . S
Sc356 O372 2.105 . S
Sc356 O374 2.105 . S
O357 Sc354 2.025 . S
O357 Sc355 2.025 . S
O357 Sc356 2.025 . S
C358 O364 1.268 . S
C358 O374 1.268 . S
C359 O365 1.268 . S
C359 O373 1.268 . S
C360 O366 1.268 . S
C360 O375 1.268 . S
C361 O367 1.268 . S
C361 O371 1.268 . S
C362 O368 1.268 . S
C362 O370 1.268 . S
C363 O369 1.268 . S
C363 O372 1.268 . S
O364 Sc354 2.105 . S
O364 C358 1.268 . S
O365 Sc355 2.105 . S
O365 C359 1.268 . S
O366 Sc356 2.105 . S
O366 C360 1.268 . S
O367 Sc354 2.105 . S
O367 C361 1.268 . S
O368 Sc356 2.105 . S
O368 C362 1.268 . S
O369 Sc355 2.105 . S
O369 C363 1.268 . S
O370 Sc354 2.105 . S
O370 C362 1.268 . S
O371 Sc355 2.105 . S
O371 C361 1.268 . S
O372 Sc356 2.105 . S
O372 C363 1.268 . S
O373 Sc354 2.105 . S
O373 C359 1.268 . S
O374 Sc356 2.105 . S
O374 C358 1.268 . S
O375 Sc355 2.105 . S
O375 C360 1.268 . S
C376 C377 1.369 . S
C376 C378 1.419 . S
C376 H380 0.930 . S
C377 C376 1.369 . S
C377 C386 1.429 . S
C378 C376 1.419 . S
C378 C379 1.363 . S
C378 H381 0.929 . S
C379 C378 1.363 . S
C379 C385 1.428 . S
H380 C376 0.930 . S
H381 C378 0.929 . S
S382 N383 1.613 . S
S382 N384 1.610 . S
N383 S382 1.613 . S
N383 C386 1.350 . S
N384 S382 1.610 . S
N384 C385 1.351 . S
C385 C379 1.428 . S
C385 N384 1.351 . S
C385 C386 1.434 . S
C386 C377 1.429 . S
C386 N383 1.350 . S
C386 C385 1.434 . S
C387 C388 1.369 . S
C387 C389 1.419 . S
C387 H391 0.930 . S
C388 C387 1.369 . S
C388 C397 1.429 . S
C389 C387 1.419 . S
C389 C390 1.363 . S
C389 H392 0.929 . S
C390 C389 1.363 . S
C390 C396 1.428 . S
H391 C387 0.930 . S
H392 C389 0.929 . S
S393 N394 1.613 . S
S393 N395 1.610 . S
N394 S393 1.613 . S
N394 C397 1.350 . S
N395 S393 1.610 . S
N395 C396 1.351 . S
C396 C390 1.428 . S
C396 N395 1.351 . S
C396 C397 1.434 . S
C397 C388 1.429 . S
C397 N394 1.350 . S
C397 C396 1.434 . S
C398 C399 1.369 . S
C398 C400 1.419 . S
C398 H402 0.930 . S
C399 C398 1.369 . S
C399 C408 1.429 . S
C400 C398 1.419 . S
C400 C401 1.363 . S
C400 H403 0.929 . S
C401 C400 1.363 . S
C401 C407 1.428 . S
H402 C398 0.930 . S
H403 C400 0.929 . S
S404 N405 1.613 . S
S404 N406 1.610 . S
N405 S404 1.613 . S
N405 C408 1.350 . S
N406 S404 1.610 . S
N406 C407 1.351 . S
C407 C401 1.428 . S
C407 N406 1.351 . S
C407 C408 1.434 . S
C408 C399 1.429 . S
C408 N405 1.350 . S
C408 C407 1.434 . S
C409 C410 1.369 . S
C409 C411 1.419 . S
C409 H413 0.930 . S
C410 C409 1.369 . S
C410 C419 1.429 . S
C411 C409 1.419 . S
C411 C412 1.363 . S
C411 H414 0.929 . S
C412 C411 1.363 . S
C412 C418 1.428 . S
H413 C409 0.930 . S
H414 C411 0.929 . S
S415 N416 1.613 . S
S415 N417 1.610 . S
N416 S415 1.613 . S
N416 C419 1.350 . S
N417 S415 1.610 . S
N417 C418 1.351 . S
C418 C412 1.428 . S
C418 N417 1.351 . S
C418 C419 1.434 . S
C419 C410 1.429 . S
C419 N416 1.350 . S
C419 C418 1.434 . S
C420 C421 1.369 . S
C420 C422 1.419 . S
C420 H424 0.930 . S
C421 C420 1.369 . S
C421 C430 1.429 . S
C422 C420 1.419 . S
C422 C423 1.363 . S
C422 H425 0.929 . S
C423 C422 1.363 . S
C423 C429 1.428 . S
H424 C420 0.930 . S
H425 C422 0.929 . S
S426 N427 1.613 . S
S426 N428 1.610 . S
N427 S426 1.613 . S
N427 C430 1.350 . S
N428 S426 1.610 . S
N428 C429 1.351 . S
C429 C423 1.428 . S
C429 N428 1.351 . S
C429 C430 1.434 . S
C430 C421 1.429 . S
C430 N427 1.350 . S
C430 C429 1.434 . S
C431 C432 1.369 . S
C431 C433 1.419 . S
C431 H435 0.930 . S
C432 C431 1.369 . S
C432 C441 1.429 . S
C433 C431 1.419 . S
C433 C434 1.363 . S
C433 H436 0.929 . S
C434 C433 1.363 . S
C434 C440 1.428 . S
H435 C431 0.930 . S
H436 C433 0.929 . S
S437 N438 1.613 . S
S437 N439 1.610 . S
N438 S437 1.613 . S
N438 C441 1.350 . S
N439 S437 1.610 . S
N439 C440 1.351 . S
C440 C434 1.428 . S
C440 N439 1.351 . S
C440 C441 1.434 . S
C441 C432 1.429 . S
C441 N438 1.350 . S
C441 C440 1.434 . S
C442 C443 1.369 . S
C442 C444 1.419 . S
C442 H446 0.930 . S
C443 C442 1.369 . S
C443 C452 1.429 . S
C444 C442 1.419 . S
C444 C445 1.363 . S
C444 H447 0.929 . S
C445 C444 1.363 . S
C445 C451 1.428 . S
H446 C442 0.930 . S
H447 C444 0.929 . S
S448 N449 1.613 . S
S448 N450 1.610 . S
N449 S448 1.613 . S
N449 C452 1.350 . S
N450 S448 1.610 . S
N450 C451 1.351 . S
C451 C445 1.428 . S
C451 N450 1.351 . S
C451 C452 1.434 . S
C452 C443 1.429 . S
C452 N449 1.350 . S
C452 C451 1.434 . S
C453 C454 1.369 . S
C453 C455 1.419 . S
C453 H457 0.930 . S
C454 C453 1.369 . S
C454 C463 1.429 . S
C455 C453 1.419 . S
C455 C456 1.363 . S
C455 H458 0.929 . S
C456 C455 1.363 . S
C456 C462 1.428 . S
H457 C453 0.930 . S
H458 C455 0.929 . S
S459 N460 1.613 . S
S459 N461 1.610 . S
N460 S459 1.613 . S
N460 C463 1.350 . S
N461 S459 1.610 . S
N461 C462 1.351 . S
C462 C456 1.428 . S
C462 N461 1.351 . S
C462 C463 1.434 . S
C463 C454 1.429 . S
C463 N460 1.350 . S
C463 C462 1.434 . S
C464 C465 1.369 . S
C464 C466 1.419 . S
C464 H468 0.930 . S
C465 C464 1.369 . S
C465 C474 1.429 . S
C466 C464 1.419 . S
C466 C467 1.363 . S
C466 H469 0.929 . S
C467 C466 1.363 . S
C467 C473 1.428 . S
H468 C464 0.930 . S
H469 C466 0.929 . S
S470 N471 1.613 . S
S470 N472 1.610 . S
N471 S470 1.613 . S
N471 C474 1.350 . S
N472 S470 1.610 . S
N472 C473 1.351 . S
C473 C467 1.428 . S
C473 N472 1.351 . S
C473 C474 1.434 . S
C474 C465 1.429 . S
C474 N471 1.350 . S
C474 C473 1.434 . S
C475 C476 1.369 . S
C475 C477 1.419 . S
C475 H479 0.930 . S
C476 C475 1.369 . S
C476 C485 1.429 . S
C477 C475 1.419 . S
C477 C478 1.363 . S
C477 H480 0.929 . S
C478 C477 1.363 . S
C478 C484 1.428 . S
H479 C475 0.930 . S
H480 C477 0.929 . S
S481 N482 1.613 . S
S481 N483 1.610 . S
N482 S481 1.613 . S
N482 C485 1.350 . S
N483 S481 1.610 . S
N483 C484 1.351 . S
C484 C478 1.428 . S
C484 N483 1.351 . S
C484 C485 1.434 . S
C485 C476 1.429 . S
C485 N482 1.350 . S
C485 C484 1.434 . S
C486 C487 1.369 . S
C486 C488 1.419 . S
C486 H490 0.930 . S
C487 C486 1.369 . S
C487 C496 1.429 . S
C488 C486 1.419 . S
C488 C489 1.363 . S
C488 H491 0.929 . S
C489 C488 1.363 . S
C489 C495 1.428 . S
H490 C486 0.930 . S
H491 C488 0.929 . S
S492 N493 1.613 . S
S492 N494 1.610 . S
N493 S492 1.613 . S
N493 C496 1.350 . S
N494 S492 1.610 . S
N494 C495 1.351 . S
C495 C489 1.428 . S
C495 N494 1.351 . S
C495 C496 1.434 . S
C496 C487 1.429 . S
C496 N493 1.350 . S
C496 C495 1.434 . S
C497 C498 1.369 . S
C497 C499 1.419 . S
C497 H501 0.930 . S
C498 C497 1.369 . S
C498 C507 1.429 . S
C499 C497 1.419 . S
C499 C500 1.363 . S
C499 H502 0.929 . S
C500 C499 1.363 . S
C500 C506 1.428 . S
H501 C497 0.930 . S
H502 C499 0.929 . S
S503 N504 1.613 . S
S503 N505 1.610 . S
N504 S503 1.613 . S
N504 C507 1.350 . S
N505 S503 1.610 . S
N505 C506 1.351 . S
C506 C500 1.428 . S
C506 N505 1.351 . S
C506 C507 1.434 . S
C507 C498 1.429 . S
C507 N504 1.350 . S
C507 C506 1.434 . S
C508 C509 1.369 . S
C508 C510 1.419 . S
C508 H512 0.930 . S
C509 C508 1.369 . S
C509 C518 1.429 . S
C510 C508 1.419 . S
C510 C511 1.363 . S
C510 H513 0.929 . S
C511 C510 1.363 . S
C511 C517 1.428 . S
H512 C508 0.930 . S
H513 C510 0.929 . S
S514 N515 1.613 . S
S514 N516 1.610 . S
N515 S514 1.613 . S
N515 C518 1.350 . S
N516 S514 1.610 . S
N516 C517 1.351 . S
C517 C511 1.428 . S
C517 N516 1.351 . S
C517 C518 1.434 . S
C518 C509 1.429 . S
C518 N515 1.350 . S
C518 C517 1.434 . S
C519 C520 1.369 . S
C519 C521 1.419 . S
C519 H523 0.930 . S
C520 C519 1.369 . S
C520 C529 1.429 . S
C521 C519 1.419 . S
C521 C522 1.363 . S
C521 H524 0.929 . S
C522 C521 1.363 . S
C522 C528 1.428 . S
H523 C519 0.930 . S
H524 C521 0.929 . S
S525 N526 1.613 . S
S525 N527 1.610 . S
N526 S525 1.613 . S
N526 C529 1.350 . S
N527 S525 1.610 . S
N527 C528 1.351 . S
C528 C522 1.428 . S
C528 N527 1.351 . S
C528 C529 1.434 . S
C529 C520 1.429 . S
C529 N526 1.350 . S
C529 C528 1.434 . S
C530 C531 1.369 . S
C530 C532 1.419 . S
C530 H534 0.930 . S
C531 C530 1.369 . S
C531 C540 1.429 . S
C532 C530 1.419 . S
C532 C533 1.363 . S
C532 H535 0.929 . S
C533 C532 1.363 . S
C533 C539 1.428 . S
H534 C530 0.930 . S
H535 C532 0.929 . S
S536 N537 1.613 . S
S536 N538 1.610 . S
N537 S536 1.613 . S
N537 C540 1.350 . S
N538 S536 1.610 . S
N538 C539 1.351 . S
C539 C533 1.428 . S
C539 N538 1.351 . S
C539 C540 1.434 . S
C540 C531 1.429 . S
C540 N537 1.350 . S
C540 C539 1.434 . S
C541 C542 1.369 . S
C541 C543 1.419 . S
C541 H545 0.930 . S
C542 C541 1.369 . S
C542 C551 1.429 . S
C543 C541 1.419 . S
C543 C544 1.363 . S
C543 H546 0.929 . S
C544 C543 1.363 . S
C544 C550 1.428 . S
H545 C541 0.930 . S
H546 C543 0.929 . S
S547 N548 1.613 . S
S547 N549 1.610 . S
N548 S547 1.613 . S
N548 C551 1.350 . S
N549 S547 1.610 . S
N549 C550 1.351 . S
C550 C544 1.428 . S
C550 N549 1.351 . S
C550 C551 1.434 . S
C551 C542 1.429 . S
C551 N548 1.350 . S
C551 C550 1.434 . S
C552 C553 1.369 . S
C552 C554 1.419 . S
C552 H556 0.930 . S
C553 C552 1.369 . S
C553 C562 1.429 . S
C554 C552 1.419 . S
C554 C555 1.363 . S
C554 H557 0.929 . S
C555 C554 1.363 . S
C555 C561 1.428 . S
H556 C552 0.930 . S
H557 C554 0.929 . S
S558 N559 1.613 . S
S558 N560 1.610 . S
N559 S558 1.613 . S
N559 C562 1.350 . S
N560 S558 1.610 . S
N560 C561 1.351 . S
C561 C555 1.428 . S
C561 N560 1.351 . S
C561 C562 1.434 . S
C562 C553 1.429 . S
C562 N559 1.350 . S
C562 C561 1.434 . S
C563 C564 1.369 . S
C563 C565 1.419 . S
C563 H567 0.930 . S
C564 C563 1.369 . S
C564 C573 1.429 . S
C565 C563 1.419 . S
C565 C566 1.363 . S
C565 H568 0.929 . S
C566 C565 1.363 . S
C566 C572 1.428 . S
H567 C563 0.930 . S
H568 C565 0.929 . S
S569 N570 1.613 . S
S569 N571 1.610 . S
N570 S569 1.613 . S
N570 C573 1.350 . S
N571 S569 1.610 . S
N571 C572 1.351 . S
C572 C566 1.428 . S
C572 N571 1.351 . S
C572 C573 1.434 . S
C573 C564 1.429 . S
C573 N570 1.350 . S
C573 C572 1.434 . S
C574 C575 1.369 . S
C574 C576 1.419 . S
C574 H578 0.930 . S
C575 C574 1.369 . S
C575 C584 1.429 . S
C576 C574 1.419 . S
C576 C577 1.363 . S
C576 H579 0.929 . S
C577 C576 1.363 . S
C577 C583 1.428 . S
H578 C574 0.930 . S
H579 C576 0.929 . S
S580 N581 1.613 . S
S580 N582 1.610 . S
N581 S580 1.613 . S
N581 C584 1.350 . S
N582 S580 1.610 . S
N582 C583 1.351 . S
C583 C577 1.428 . S
C583 N582 1.351 . S
C583 C584 1.434 . S
C584 C575 1.429 . S
C584 N581 1.350 . S
C584 C583 1.434 . S
C585 C586 1.369 . S
C585 C587 1.419 . S
C585 H589 0.930 . S
C586 C585 1.369 . S
C586 C595 1.429 . S
C587 C585 1.419 . S
C587 C588 1.363 . S
C587 H590 0.929 . S
C588 C587 1.363 . S
C588 C594 1.428 . S
H589 C585 0.930 . S
H590 C587 0.929 . S
S591 N592 1.613 . S
S591 N593 1.610 . S
N592 S591 1.613 . S
N592 C595 1.350 . S
N593 S591 1.610 . S
N593 C594 1.351 . S
C594 C588 1.428 . S
C594 N593 1.351 . S
C594 C595 1.434 . S
C595 C586 1.429 . S
C595 N592 1.350 . S
C595 C594 1.434 . S
C596 C597 1.369 . S
C596 C598 1.419 . S
C596 H600 0.930 . S
C597 C596 1.369 . S
C597 C606 1.429 . S
C598 C596 1.419 . S
C598 C599 1.363 . S
C598 H601 0.929 . S
C599 C598 1.363 . S
C599 C605 1.428 . S
H600 C596 0.930 . S
H601 C598 0.929 . S
S602 N603 1.613 . S
S602 N604 1.610 . S
N603 S602 1.613 . S
N603 C606 1.350 . S
N604 S602 1.610 . S
N604 C605 1.351 . S
C605 C599 1.428 . S
C605 N604 1.351 . S
C605 C606 1.434 . S
C606 C597 1.429 . S
C606 N603 1.350 . S
C606 C605 1.434 . S
C607 C608 1.369 . S
C607 C609 1.419 . S
C607 H611 0.930 . S
C608 C607 1.369 . S
C608 C617 1.429 . S
C609 C607 1.419 . S
C609 C610 1.363 . S
C609 H612 0.929 . S
C610 C609 1.363 . S
C610 C616 1.428 . S
H611 C607 0.930 . S
H612 C609 0.929 . S
S613 N614 1.613 . S
S613 N615 1.610 . S
N614 S613 1.613 . S
N614 C617 1.350 . S
N615 S613 1.610 . S
N615 C616 1.351 . S
C616 C610 1.428 . S
C616 N615 1.351 . S
C616 C617 1.434 . S
C617 C608 1.429 . S
C617 N614 1.350 . S
C617 C616 1.434 . S
C618 C619 1.369 . S
C618 C620 1.419 . S
C618 H622 0.930 . S
C619 C618 1.369 . S
C619 C628 1.429 . S
C620 C618 1.419 . S
C620 C621 1.363 . S
C620 H623 0.929 . S
C621 C620 1.363 . S
C621 C627 1.428 . S
H622 C618 0.930 . S
H623 C620 0.929 . S
S624 N625 1.613 . S
S624 N626 1.610 . S
N625 S624 1.613 . S
N625 C628 1.350 . S
N626 S624 1.610 . S
N626 C627 1.351 . S
C627 C621 1.428 . S
C627 N626 1.351 . S
C627 C628 1.434 . S
C628 C619 1.429 . S
C628 N625 1.350 . S
C628 C627 1.434 . S
C629 C630 1.369 . S
C629 C631 1.419 . S
C629 H633 0.930 . S
C630 C629 1.369 . S
C630 C639 1.429 . S
C631 C629 1.419 . S
C631 C632 1.363 . S
C631 H634 0.929 . S
C632 C631 1.363 . S
C632 C638 1.428 . S
H633 C629 0.930 . S
H634 C631 0.929 . S
S635 N636 1.613 . S
S635 N637 1.610 . S
N636 S635 1.613 . S
N636 C639 1.350 . S
N637 S635 1.610 . S
N637 C638 1.351 . S
C638 C632 1.428 . S
C638 N637 1.351 . S
C638 C639 1.434 . S
C639 C630 1.429 . S
C639 N636 1.350 . S
C639 C638 1.434 . S
C377 C25 1.537 . S
C379 C314 1.535 . S
C390 C292 1.537 . S
C388 C61 1.538 . S
C401 C318 1.534 . S
C399 C97 1.583 . S
C412 C296 1.529 . S
C410 C133 1.585 . S
C423 C358 1.530 . S
C421 C169 1.545 . S
C434 C336 1.530 . S
C432 C205 1.545 . S
C443 C241 1.585 . S
C445 C362 1.533 . S
C456 C340 1.537 . S
C454 C277 1.581 . S
C465 C31 1.552 . S
C467 C363 1.625 . S
C478 C341 1.624 . S
C476 C67 1.546 . S
C487 C103 1.588 . S
C489 C360 1.626 . S
C498 C139 1.585 . S
C500 C338 1.625 . S
C511 C319 1.625 . S
C509 C175 1.550 . S
C520 C211 1.546 . S
C522 C297 1.623 . S
C533 C316 1.626 . S
C531 C247 1.588 . S
C544 C294 1.626 . S
C542 C283 1.589 . S
C555 C337 1.603 . S
C553 C1 1.547 . S
C566 C359 1.604 . S
C564 C37 1.548 . S
C575 C73 1.586 . S
C577 C339 1.603 . S
C588 C361 1.605 . S
C586 C109 1.589 . S
C599 C293 1.604 . S
C597 C145 1.557 . S
C608 C181 1.548 . S
C610 C315 1.603 . S
C619 C217 1.588 . S
C621 C295 1.604 . S
C630 C253 1.589 . S
C632 C317 1.606 . S
