# Generated by pormake.
# Topology apo, (3,6)-cn, num edge types: 1
# Building blocks:
#     Node 0, Type 0, BuildingBlock: ESEHIV_clean_linker_0, # of connection points: 3
#     Node 1, Type 0, BuildingBlock: ESEHIV_clean_linker_0, # of connection points: 3
#     Node 2, Type 0, BuildingBlock: ESEHIV_clean_linker_0, # of connection points: 3
#     Node 3, Type 0, BuildingBlock: ESEHIV_clean_linker_0, # of connection points: 3
#     Node 4, Type 0, BuildingBlock: ESEHIV_clean_linker_0, # of connection points: 3
#     Node 5, Type 0, BuildingBlock: ESEHIV_clean_linker_0, # of connection points: 3
#     Node 6, Type 0, BuildingBlock: ESEHIV_clean_linker_0, # of connection points: 3
#     Node 7, Type 0, BuildingBlock: ESEHIV_clean_linker_0, # of connection points: 3
#     Node 8, Type 1, BuildingBlock: KUMBOL_clean_sbu_1, # of connection points: 6
#     Node 9, Type 1, BuildingBlock: KUMBOL_clean_sbu_1, # of connection points: 6
#     Node 10, Type 1, BuildingBlock: KUMBOL_clean_sbu_1, # of connection points: 6
#     Node 11, Type 1, BuildingBlock: KUMBOL_clean_sbu_1, # of connection points: 6
#     Edge 12, Type (0, 1), BuildingBlock: TEMPAE_clean_linker_10, # of connection points: 2
#     Edge 13, Type (0, 1), BuildingBlock: TEMPAE_clean_linker_10, # of connection points: 2
#     Edge 14, Type (0, 1), BuildingBlock: TEMPAE_clean_linker_10, # of connection points: 2
#     Edge 15, Type (0, 1), BuildingBlock: TEMPAE_clean_linker_10, # of connection points: 2
#     Edge 16, Type (0, 1), BuildingBlock: TEMPAE_clean_linker_10, # of connection points: 2
#     Edge 17, Type (0, 1), BuildingBlock: TEMPAE_clean_linker_10, # of connection points: 2
#     Edge 18, Type (0, 1), BuildingBlock: TEMPAE_clean_linker_10, # of connection points: 2
#     Edge 19, Type (0, 1), BuildingBlock: TEMPAE_clean_linker_10, # of connection points: 2
#     Edge 20, Type (0, 1), BuildingBlock: TEMPAE_clean_linker_10, # of connection points: 2
#     Edge 21, Type (0, 1), BuildingBlock: TEMPAE_clean_linker_10, # of connection points: 2
#     Edge 22, Type (0, 1), BuildingBlock: TEMPAE_clean_linker_10, # of connection points: 2
#     Edge 23, Type (0, 1), BuildingBlock: TEMPAE_clean_linker_10, # of connection points: 2
#     Edge 24, Type (0, 1), BuildingBlock: TEMPAE_clean_linker_10, # of connection points: 2
#     Edge 25, Type (0, 1), BuildingBlock: TEMPAE_clean_linker_10, # of connection points: 2
#     Edge 26, Type (0, 1), BuildingBlock: TEMPAE_clean_linker_10, # of connection points: 2
#     Edge 27, Type (0, 1), BuildingBlock: TEMPAE_clean_linker_10, # of connection points: 2
#     Edge 28, Type (0, 1), BuildingBlock: TEMPAE_clean_linker_10, # of connection points: 2
#     Edge 29, Type (0, 1), BuildingBlock: TEMPAE_clean_linker_10, # of connection points: 2
#     Edge 30, Type (0, 1), BuildingBlock: TEMPAE_clean_linker_10, # of connection points: 2
#     Edge 31, Type (0, 1), BuildingBlock: TEMPAE_clean_linker_10, # of connection points: 2
#     Edge 32, Type (0, 1), BuildingBlock: TEMPAE_clean_linker_10, # of connection points: 2
#     Edge 33, Type (0, 1), BuildingBlock: TEMPAE_clean_linker_10, # of connection points: 2
#     Edge 34, Type (0, 1), BuildingBlock: TEMPAE_clean_linker_10, # of connection points: 2
#     Edge 35, Type (0, 1), BuildingBlock: TEMPAE_clean_linker_10, # of connection points: 2
# Relax obj value: 0.008
# Max RMSD: 0.114
# Mean RMSD: 0.087
data_MOF--net-apo--node1-KUMBOL_clean_sbu_1--node2-ESEHIV_clean_linker_0--edge1-TEMPAE_clean_linker_10
_symmetry_space_group_name_H-M    P1
_symmetry_Int_Tables_number       1
_symmetry_cell_setting            triclinic
loop_
_symmetry_equiv_pos_as_xyz
'x, y, z'
_cell_length_a     23.041567
_cell_length_b     40.336547
_cell_length_c     51.499482
_cell_angle_alpha  90.082359
_cell_angle_beta   89.902178
_cell_angle_gamma 90.083217
loop_
_atom_site_label
_atom_site_type_symbol
_atom_site_fract_x
_atom_site_fract_y
_atom_site_fract_z
_atom_type_partial_charge
H0 H 0.33051 0.42691 0.42733 0.0
H1 H 0.22734 0.38923 0.36404 0.0
H2 H 0.2349 0.33607 0.43607 0.0
C3 C 0.30122 0.40858 0.41933 0.0
C4 C 0.28365 0.38191 0.43506 0.0
C5 C 0.28156 0.41175 0.39357 0.0
C6 C 0.24374 0.38737 0.38368 0.0
C7 C 0.22769 0.35991 0.39879 0.0
C8 C 0.24739 0.35733 0.42447 0.0
H9 H 0.16621 0.07367 0.93394 0.0
H10 H 0.21207 0.1244 0.86356 0.0
H11 H 0.26117 0.16507 0.93758 0.0
C12 C 0.18569 0.09457 0.92403 0.0
C13 C 0.21017 0.12033 0.93888 0.0
C14 C 0.18777 0.09517 0.89671 0.0
C15 C 0.21426 0.12243 0.88447 0.0
C16 C 0.24299 0.14729 0.89877 0.0
C17 C 0.24019 0.14605 0.92611 0.0
H18 H 0.84477 0.08886 0.57923 0.0
H19 H 0.75988 0.11993 0.64922 0.0
H20 H 0.76609 0.18615 0.58435 0.0
C21 C 0.82169 0.10794 0.58981 0.0
C22 C 0.80682 0.13823 0.57767 0.0
C23 C 0.80535 0.10146 0.61564 0.0
C24 C 0.77256 0.12491 0.6293 0.0
C25 C 0.75808 0.15529 0.61799 0.0
C26 C 0.77635 0.16215 0.5925 0.0
H27 H 0.66774 0.4142 0.0839 0.0
H28 H 0.75002 0.38028 0.15381 0.0
H29 H 0.76765 0.32394 0.08327 0.0
C30 C 0.69383 0.39593 0.09394 0.0
C31 C 0.71666 0.3687 0.08021 0.0
C32 C 0.70651 0.40043 0.1204 0.0
C33 C 0.74133 0.37715 0.13326 0.0
C34 C 0.76295 0.34923 0.12013 0.0
C35 C 0.75065 0.34529 0.09357 0.0
H36 H 0.6979 0.56473 0.57977 0.0
H37 H 0.76767 0.66342 0.58144 0.0
H38 H 0.73969 0.61073 0.65289 0.0
C39 C 0.71353 0.58574 0.59087 0.0
C40 C 0.71614 0.58404 0.61817 0.0
C41 C 0.73245 0.61421 0.5776 0.0
C42 C 0.75433 0.64127 0.59176 0.0
C43 C 0.75708 0.64033 0.61904 0.0
C44 C 0.73787 0.61158 0.63192 0.0
H45 H 0.82803 0.93052 0.08474 0.0
H46 H 0.78202 0.88155 0.15586 0.0
H47 H 0.75641 0.83199 0.08281 0.0
C48 C 0.81117 0.90904 0.09486 0.0
C49 C 0.79282 0.88123 0.08043 0.0
C50 C 0.80769 0.90942 0.12215 0.0
C51 C 0.78516 0.8814 0.13491 0.0
C52 C 0.76636 0.85328 0.12106 0.0
C53 C 0.77074 0.85342 0.09376 0.0
H54 H 0.15884 0.91188 0.43252 0.0
H55 H 0.25219 0.81922 0.43369 0.0
H56 H 0.22175 0.86927 0.36138 0.0
C57 C 0.18055 0.89181 0.42242 0.0
C58 C 0.18732 0.89356 0.39536 0.0
C59 C 0.20411 0.86519 0.4366 0.0
C60 C 0.23419 0.84004 0.42315 0.0
C61 C 0.23997 0.84122 0.396 0.0
C62 C 0.21658 0.86805 0.3823 0.0
H63 H 0.33693 0.5876 0.92585 0.0
H64 H 0.26289 0.62842 0.85629 0.0
H65 H 0.24086 0.67911 0.92914 0.0
C66 C 0.31246 0.60696 0.91625 0.0
C67 C 0.29051 0.6337 0.9308 0.0
C68 C 0.30229 0.60476 0.88943 0.0
C69 C 0.27074 0.62991 0.87702 0.0
C70 C 0.24886 0.65687 0.89124 0.0
C71 C 0.25856 0.65855 0.91812 0.0
C72 C 0.8459 0.07969 0.26902 0.0
C73 C 0.86335 0.03094 0.29519 0.0
C74 C 0.87686 0.06387 0.28829 0.0
C75 C 0.82079 0.01357 0.28113 0.0
C76 C 0.80092 0.0631 0.2558 0.0
C77 C 0.7895 0.02967 0.26152 0.0
N78 N 0.85787 0.11201 0.26418 0.0
C79 C 0.8233 0.13019 0.24806 0.0
C80 C 0.76772 0.08095 0.23787 0.0
C81 C 0.77835 0.11479 0.23431 0.0
Gd82 Gd 0.08683 0.13652 0.24208 0.0
Gd83 Gd 0.93822 0.13498 0.28579 0.0
N84 N 0.91672 0.08167 0.30177 0.0
C85 C 0.89099 0.0171 0.3168 0.0
C86 C 0.93928 0.06947 0.32429 0.0
C87 C 0.92807 0.03675 0.33178 0.0
H88 H 0.96651 0.08489 0.33639 0.0
H89 H 0.94758 0.02687 0.34921 0.0
H90 H 0.08901 0.20822 0.21097 0.0
H91 H 0.83208 0.15625 0.24514 0.0
H92 H 0.14204 0.2617 0.21271 0.0
H93 H 0.88193 0.99187 0.32276 0.0
H94 H 0.81023 0.98813 0.28593 0.0
H95 H 0.16557 0.08359 0.28009 0.0
H96 H 0.73291 0.06907 0.22721 0.0
H97 H 0.75214 0.12896 0.22091 0.0
H98 H 0.2757 0.24797 0.28338 0.0
H99 H 0.75528 0.01639 0.25152 0.0
H100 H 0.286 0.14133 0.32377 0.0
H101 H 0.23945 0.08745 0.31413 0.0
N102 N 0.16182 0.13574 0.27343 0.0
C103 C 0.19058 0.16497 0.27679 0.0
C104 C 0.18164 0.10774 0.28541 0.0
C105 C 0.25159 0.14004 0.30949 0.0
C106 C 0.22523 0.10963 0.30421 0.0
C107 C 0.2358 0.16797 0.2951 0.0
H108 H 0.2998 0.20108 0.31187 0.0
N109 N 0.13407 0.18777 0.24305 0.0
C110 C 0.17732 0.19146 0.2607 0.0
C111 C 0.19521 0.24705 0.24513 0.0
C112 C 0.20846 0.22148 0.26251 0.0
C113 C 0.12208 0.21209 0.2255 0.0
C114 C 0.15213 0.24223 0.22641 0.0
O115 O 0.93764 0.1161 0.24427 0.0
O116 O 0.02708 0.09229 0.23823 0.0
O117 O 0.09887 0.1357 0.19932 0.0
O118 O 0.16511 0.11675 0.22568 0.0
O119 O 0.02197 0.11342 0.30127 0.0
O120 O 0.06785 0.09052 0.26602 0.0
O121 O 0.05953 0.18098 0.2665 0.0
O122 O 0.02295 0.15364 0.30121 0.0
O123 O 0.88519 0.13838 0.32081 0.0
O124 O 0.8974 0.18136 0.29666 0.0
O125 O 0.01031 0.16196 0.22292 0.0
O126 O 0.94408 0.17625 0.25581 0.0
C127 C 0.97073 0.0928 0.23448 0.0
C128 C 0.05017 0.08885 0.29029 0.0
C129 C 0.18983 0.11347 0.18022 0.0
C130 C 0.21261 0.10627 0.13405 0.0
C131 C 0.28399 0.09207 0.16688 0.0
C132 C 0.24546 0.10144 0.18636 0.0
C133 C 0.26777 0.09435 0.14095 0.0
C134 C 0.17368 0.11623 0.15384 0.0
C135 C 0.15002 0.12231 0.20181 0.0
C136 C 0.25183 0.22494 0.28143 0.0
C137 C 0.26537 0.19827 0.29773 0.0
H138 H 0.21821 0.27048 0.24588 0.0
C139 C 0.04646 0.18023 0.29131 0.0
C140 C 0.96624 0.17958 0.23213 0.0
C141 C 0.89025 0.19089 0.34219 0.0
C142 C 0.89368 0.19807 0.38971 0.0
C143 C 0.91056 0.24502 0.36082 0.0
C144 C 0.90281 0.22477 0.33921 0.0
C145 C 0.90547 0.23202 0.38577 0.0
C146 C 0.88631 0.17761 0.36755 0.0
C147 C 0.87841 0.17024 0.31882 0.0
H148 H 0.32666 0.08292 0.17191 0.0
H149 H 0.25948 0.09917 0.20634 0.0
H150 H 0.29878 0.08705 0.12617 0.0
H151 H 0.131 0.12539 0.14875 0.0
H152 H 0.91939 0.27116 0.35821 0.0
H153 H 0.9059 0.23586 0.32011 0.0
H154 H 0.90945 0.24904 0.40192 0.0
H155 H 0.87737 0.15144 0.36992 0.0
C156 C 0.66804 0.4072 0.76103 0.0
C157 C 0.65575 0.46256 0.77857 0.0
C158 C 0.63671 0.42943 0.77618 0.0
C159 C 0.70457 0.47331 0.76451 0.0
C160 C 0.71778 0.41768 0.74734 0.0
C161 C 0.73557 0.4509 0.749 0.0
N162 N 0.64926 0.37529 0.75942 0.0
C163 C 0.67977 0.3522 0.74563 0.0
C164 C 0.74822 0.3944 0.73242 0.0
C165 C 0.72937 0.36146 0.73173 0.0
Gd166 Gd 0.4219 0.36542 0.73602 0.0
Gd167 Gd 0.56387 0.36241 0.78216 0.0
N168 N 0.58956 0.4183 0.78958 0.0
C169 C 0.62652 0.48359 0.79579 0.0
C170 C 0.56555 0.43766 0.80854 0.0
C171 C 0.58211 0.47083 0.8113 0.0
H172 H 0.53447 0.42755 0.82204 0.0
H173 H 0.56146 0.48632 0.82579 0.0
H174 H 0.43854 0.28306 0.72605 0.0
H175 H 0.6652 0.32678 0.74512 0.0
H176 H 0.37956 0.23244 0.72949 0.0
H177 H 0.63976 0.50919 0.79818 0.0
H178 H 0.71951 0.49873 0.76597 0.0
H179 H 0.33761 0.42758 0.75711 0.0
H180 H 0.78653 0.40153 0.72154 0.0
H181 H 0.75294 0.34323 0.72047 0.0
H182 H 0.19376 0.27092 0.7588 0.0
H183 H 0.77378 0.45941 0.73867 0.0
H184 H 0.17163 0.38681 0.77675 0.0
H185 H 0.23775 0.43504 0.77361 0.0
N186 N 0.32859 0.37552 0.75198 0.0
C187 C 0.29297 0.34868 0.75337 0.0
C188 C 0.30951 0.40627 0.75899 0.0
C189 C 0.21555 0.38334 0.76972 0.0
C190 C 0.2528 0.41062 0.76806 0.0
C191 C 0.2354 0.35189 0.76234 0.0
H192 H 0.1554 0.3257 0.7708 0.0
N193 N 0.37153 0.31502 0.73943 0.0
C194 C 0.31477 0.31764 0.74659 0.0
C195 C 0.30314 0.25829 0.74253 0.0
C196 C 0.27927 0.28923 0.74862 0.0
C197 C 0.39454 0.28503 0.73281 0.0
C198 C 0.36093 0.25622 0.73451 0.0
O199 O 0.57014 0.38098 0.74049 0.0
O200 O 0.48445 0.4083 0.73542 0.0
O201 O 0.42569 0.3557 0.69453 0.0
O202 O 0.36223 0.39001 0.70987 0.0
O203 O 0.48116 0.38693 0.79725 0.0
O204 O 0.44191 0.41019 0.76043 0.0
O205 O 0.41011 0.34026 0.77504 0.0
O206 O 0.50036 0.32012 0.78601 0.0
O207 O 0.58213 0.36197 0.82412 0.0
O208 O 0.63313 0.33187 0.79725 0.0
O209 O 0.49813 0.33467 0.72204 0.0
O210 O 0.55154 0.31671 0.75751 0.0
C211 C 0.53978 0.40507 0.73026 0.0
C212 C 0.44886 0.40954 0.78575 0.0
C213 C 0.39976 0.40093 0.66823 0.0
C214 C 0.39819 0.41541 0.62218 0.0
C215 C 0.43996 0.45337 0.65392 0.0
C216 C 0.42691 0.43122 0.67384 0.0
C217 C 0.42597 0.44557 0.62824 0.0
C218 C 0.38551 0.39309 0.64245 0.0
C219 C 0.38575 0.37745 0.6891 0.0
C220 C 0.2216 0.29248 0.75711 0.0
C221 C 0.19977 0.32369 0.76398 0.0
H222 H 0.27735 0.23588 0.74394 0.0
C223 C 0.44385 0.32118 0.78917 0.0
C224 C 0.53714 0.31511 0.73278 0.0
C225 C 0.65974 0.32749 0.84266 0.0
C226 C 0.68299 0.32281 0.88889 0.0
C227 C 0.73411 0.28905 0.85715 0.0
C228 C 0.70194 0.3033 0.83721 0.0
C229 C 0.7246 0.29856 0.88281 0.0
C230 C 0.65082 0.3375 0.86865 0.0
C231 C 0.62411 0.34074 0.82115 0.0
H232 H 0.4607 0.47673 0.65846 0.0
H233 H 0.43754 0.43784 0.69363 0.0
H234 H 0.43711 0.46311 0.61311 0.0
H235 H 0.36353 0.3699 0.6383 0.0
H236 H 0.7664 0.2704 0.8527 0.0
H237 H 0.70982 0.29507 0.81748 0.0
H238 H 0.75028 0.28717 0.89797 0.0
H239 H 0.61832 0.35603 0.87321 0.0
C240 C 0.79697 0.82653 0.75478 0.0
C241 C 0.80365 0.76983 0.77011 0.0
C242 C 0.82566 0.80248 0.76924 0.0
C243 C 0.75388 0.76159 0.75577 0.0
C244 C 0.74708 0.81831 0.74032 0.0
C245 C 0.72577 0.78572 0.74087 0.0
N246 N 0.81919 0.85777 0.75413 0.0
C247 C 0.79293 0.88219 0.74011 0.0
C248 C 0.72038 0.84308 0.72553 0.0
C249 C 0.74332 0.87517 0.72549 0.0
Gd250 Gd 0.05069 0.86292 0.73696 0.0
Gd251 Gd 0.90264 0.86712 0.77891 0.0
N252 N 0.87412 0.81112 0.78285 0.0
C253 C 0.83146 0.74658 0.78588 0.0
C254 C 0.89776 0.78929 0.8001 0.0
C255 C 0.87806 0.75654 0.80129 0.0
H256 H 0.93041 0.79704 0.81373 0.0
H257 H 0.898 0.73919 0.81457 0.0
H258 H 0.03905 0.94427 0.72268 0.0
H259 H 0.81041 0.90705 0.74019 0.0
H260 H 0.09259 0.996 0.73129 0.0
H261 H 0.81593 0.72126 0.78705 0.0
H262 H 0.73642 0.73664 0.75627 0.0
H263 H 0.13407 0.80131 0.75885 0.0
H264 H 0.68209 0.83768 0.71408 0.0
H265 H 0.72282 0.89449 0.71421 0.0
H266 H 0.26318 0.9605 0.77681 0.0
H267 H 0.68744 0.77895 0.72991 0.0
H268 H 0.28757 0.844 0.79184 0.0
H269 H 0.22828 0.79469 0.7811 0.0
N270 N 0.14032 0.85379 0.75703 0.0
C271 C 0.17295 0.88119 0.762 0.0
C272 C 0.15958 0.82299 0.76359 0.0
C273 C 0.24639 0.84707 0.782 0.0
C274 C 0.21291 0.81916 0.77612 0.0
C275 C 0.22667 0.87859 0.77487 0.0
H276 H 0.30009 0.90593 0.79021 0.0
N277 N 0.09966 0.91368 0.74235 0.0
C278 C 0.15231 0.91201 0.75426 0.0
C279 C 0.16238 0.9715 0.75134 0.0
C280 C 0.18465 0.94095 0.75943 0.0
C281 C 0.079 0.94318 0.7334 0.0
C282 C 0.10963 0.97256 0.73803 0.0
O283 O 0.9025 0.84692 0.73764 0.0
O284 O 0.98893 0.81962 0.73492 0.0
O285 O 0.05313 0.87155 0.6953 0.0
O286 O 0.11267 0.83667 0.71269 0.0
O287 O 0.98327 0.84379 0.79695 0.0
O288 O 0.02702 0.81914 0.76169 0.0
O289 O 0.05308 0.88933 0.77599 0.0
O290 O 0.9619 0.9112 0.78287 0.0
O291 O 0.88163 0.8653 0.8206 0.0
O292 O 0.83062 0.8957 0.79405 0.0
O293 O 0.97603 0.89267 0.7203 0.0
O294 O 0.91885 0.91252 0.75421 0.0
C295 C 0.93394 0.8223 0.72883 0.0
C296 C 0.01914 0.82178 0.78685 0.0
C297 C 0.14517 0.86602 0.67565 0.0
C298 C 0.18702 0.87698 0.63279 0.0
C299 C 0.23707 0.89508 0.67194 0.0
C300 C 0.19281 0.88182 0.68725 0.0
C301 C 0.23434 0.89272 0.64493 0.0
C302 C 0.14245 0.86361 0.64842 0.0
C303 C 0.09779 0.8523 0.69162 0.0
C304 C 0.23786 0.9385 0.77255 0.0
C305 C 0.25886 0.90741 0.7802 0.0
H306 H 0.18584 0.99433 0.75499 0.0
C307 C 0.01818 0.91131 0.78651 0.0
C308 C 0.93789 0.91366 0.73004 0.0
C309 C 0.79968 0.89653 0.83915 0.0
C310 C 0.7721 0.89799 0.88516 0.0
C311 C 0.71236 0.9255 0.85283 0.0
C312 C 0.75022 0.91542 0.83326 0.0
C313 C 0.72302 0.91684 0.87855 0.0
C314 C 0.81077 0.88804 0.8653 0.0
C315 C 0.83803 0.88545 0.8177 0.0
H316 H 0.27378 0.90713 0.68106 0.0
H317 H 0.196 0.88381 0.70811 0.0
H318 H 0.26973 0.90282 0.63354 0.0
H319 H 0.10533 0.85171 0.63944 0.0
H320 H 0.67445 0.94007 0.84803 0.0
H321 H 0.74045 0.9223 0.81342 0.0
H322 H 0.69306 0.92524 0.89339 0.0
H323 H 0.84861 0.87339 0.87015 0.0
C324 C 0.69171 0.67275 0.25899 0.0
C325 C 0.68487 0.72986 0.27347 0.0
C326 C 0.66152 0.69755 0.27211 0.0
C327 C 0.73735 0.73709 0.26076 0.0
C328 C 0.74446 0.67989 0.24628 0.0
C329 C 0.76699 0.7122 0.24718 0.0
N330 N 0.66871 0.64169 0.25823 0.0
C331 C 0.69642 0.61652 0.2456 0.0
C332 C 0.77286 0.65431 0.23295 0.0
C333 C 0.74879 0.62249 0.23266 0.0
Gd334 Gd 0.43995 0.64201 0.23283 0.0
Gd335 Gd 0.58012 0.63429 0.27963 0.0
N336 N 0.61051 0.68987 0.28417 0.0
C337 C 0.65566 0.75375 0.28821 0.0
C338 C 0.58523 0.71225 0.30057 0.0
C339 C 0.60626 0.74471 0.30222 0.0
H340 H 0.55013 0.70516 0.3132 0.0
H341 H 0.58511 0.76253 0.31479 0.0
H342 H 0.44703 0.56076 0.21825 0.0
H343 H 0.67788 0.5919 0.24545 0.0
H344 H 0.38551 0.51103 0.22227 0.0
H345 H 0.67219 0.77884 0.28975 0.0
H346 H 0.7558 0.76179 0.26159 0.0
H347 H 0.35911 0.70586 0.25339 0.0
H348 H 0.81338 0.65887 0.22284 0.0
H349 H 0.77054 0.60257 0.22247 0.0
H350 H 0.20828 0.55163 0.25969 0.0
H351 H 0.80756 0.71814 0.23757 0.0
H352 H 0.19504 0.66779 0.27878 0.0
H353 H 0.26216 0.71509 0.2726 0.0
N354 N 0.34807 0.65373 0.25012 0.0
C355 C 0.31146 0.62749 0.25281 0.0
C356 C 0.33072 0.68496 0.25667 0.0
C357 C 0.23781 0.66354 0.27066 0.0
C358 C 0.27561 0.6903 0.26727 0.0
C359 C 0.25529 0.63169 0.26317 0.0
H360 H 0.17512 0.60684 0.27359 0.0
N361 N 0.38518 0.59296 0.23558 0.0
C362 C 0.33016 0.59627 0.24491 0.0
C363 C 0.31374 0.53755 0.23927 0.0
C364 C 0.29317 0.56857 0.24725 0.0
C365 C 0.40467 0.56304 0.22687 0.0
C366 C 0.36957 0.53483 0.22888 0.0
O367 O 0.58887 0.65398 0.23847 0.0
O368 O 0.50553 0.68353 0.23326 0.0
O369 O 0.44177 0.63322 0.19108 0.0
O370 O 0.3859 0.67111 0.207 0.0
O371 O 0.49807 0.65855 0.29499 0.0
O372 O 0.46177 0.68485 0.25904 0.0
O373 O 0.42859 0.6136 0.27072 0.0
O374 O 0.51797 0.59133 0.28071 0.0
O375 O 0.58583 0.63353 0.3217 0.0
O376 O 0.64903 0.60686 0.29898 0.0
O377 O 0.51515 0.6102 0.21862 0.0
O378 O 0.56567 0.58933 0.25425 0.0
C379 C 0.56082 0.67912 0.22849 0.0
C380 C 0.46481 0.68119 0.2843 0.0
C381 C 0.35278 0.64293 0.16959 0.0
C382 C 0.31092 0.63511 0.12637 0.0
C383 C 0.25731 0.61812 0.16487 0.0
C384 C 0.30239 0.62931 0.18058 0.0
C385 C 0.26147 0.62087 0.13797 0.0
C386 C 0.35694 0.64579 0.14242 0.0
C387 C 0.40065 0.65452 0.18633 0.0
C388 C 0.23723 0.57266 0.25763 0.0
C389 C 0.21838 0.60411 0.2656 0.0
H390 H 0.28676 0.51562 0.24087 0.0
C391 C 0.46134 0.5923 0.28335 0.0
C392 C 0.55012 0.58837 0.22957 0.0
C393 C 0.67975 0.63038 0.33901 0.0
C394 C 0.71769 0.63985 0.38268 0.0
C395 C 0.76348 0.66608 0.34545 0.0
C396 C 0.72338 0.65101 0.32891 0.0
C397 C 0.76045 0.66079 0.37221 0.0
C398 C 0.67754 0.62452 0.36593 0.0
C399 C 0.63396 0.61678 0.32208 0.0
H400 H 0.21886 0.60739 0.17359 0.0
H401 H 0.29751 0.62751 0.20128 0.0
H402 H 0.22594 0.61168 0.12623 0.0
H403 H 0.39536 0.65689 0.13388 0.0
H404 H 0.79677 0.68212 0.33752 0.0
H405 H 0.7262 0.65575 0.30832 0.0
H406 H 0.79179 0.67283 0.38475 0.0
H407 H 0.64371 0.60881 0.37391 0.0
C408 C 0.2035 0.94009 0.36428 0.0
C409 C 0.1658 0.9226 0.38069 0.0
C410 C 0.18404 0.96751 0.35003 0.0
C411 C 0.12516 0.97725 0.35186 0.0
C412 C 0.08681 0.95957 0.36835 0.0
C413 C 0.1078 0.93263 0.38283 0.0
C414 C 0.22652 0.98608 0.33304 0.0
C415 C 0.02357 0.9689 0.3705 0.0
C416 C 0.0867 0.06514 0.33183 0.0
C417 C 0.06858 0.06039 0.30615 0.0
C418 C 0.10495 0.03826 0.34701 0.0
C419 C 0.10391 0.00587 0.33636 0.0
C420 C 0.08456 1.00097 0.31053 0.0
C421 C 0.06788 0.02842 0.29561 0.0
C422 C 0.12637 0.04459 0.37426 0.0
C423 C 0.0816 0.96678 0.29865 0.0
H424 H 0.24851 0.93249 0.36285 0.0
H425 H 0.07864 0.91895 0.39543 0.0
H426 H 0.21248 0.98476 0.31247 0.0
H427 H 0.22742 0.01267 0.3386 0.0
H428 H 0.27125 0.97601 0.33447 0.0
H429 H 0.99896 0.9518 0.38334 0.0
H430 H 0.01957 0.99443 0.3783 0.0
H431 H 0.00321 0.96873 0.35098 0.0
H432 H 0.08758 0.09 0.33986 0.0
H433 H 0.05335 0.02484 0.27579 0.0
H434 H 0.17209 0.03631 0.37604 0.0
H435 H 0.10039 0.03003 0.38837 0.0
H436 H 0.12392 0.07122 0.3797 0.0
H437 H 0.12575 0.95594 0.29756 0.0
H438 H 0.06272 0.96707 0.27881 0.0
H439 H 0.05495 0.95021 0.31107 0.0
C440 C 0.285 0.55718 0.85924 0.0
C441 C 0.32352 0.57576 0.87448 0.0
C442 C 0.30416 0.52933 0.84528 0.0
C443 C 0.36349 0.52029 0.84619 0.0
C444 C 0.40265 0.53912 0.86145 0.0
C445 C 0.38203 0.56646 0.87564 0.0
C446 C 0.26092 0.50954 0.8296 0.0
C447 C 0.46646 0.53074 0.86242 0.0
C448 C 0.40861 0.43286 0.82703 0.0
C449 C 0.42564 0.43742 0.80117 0.0
C450 C 0.3876 0.45954 0.84187 0.0
C451 C 0.38483 0.49159 0.83068 0.0
C452 C 0.40247 0.49627 0.8046 0.0
C453 C 0.42203 0.46906 0.79008 0.0
C454 C 0.36826 0.45347 0.86948 0.0
C455 C 0.40138 0.53012 0.79211 0.0
H456 H 0.23962 0.5642 0.85857 0.0
H457 H 0.41185 0.58098 0.88731 0.0
H458 H 0.27304 0.51011 0.80875 0.0
H459 H 0.26158 0.48321 0.8358 0.0
H460 H 0.21599 0.51915 0.83168 0.0
H461 H 0.49092 0.54738 0.87569 0.0
H462 H 0.47249 0.50476 0.86891 0.0
H463 H 0.4855 0.53273 0.84268 0.0
H464 H 0.41129 0.40835 0.83557 0.0
H465 H 0.43592 0.4727 0.77015 0.0
H466 H 0.32254 0.46149 0.87198 0.0
H467 H 0.39502 0.46842 0.88303 0.0
H468 H 0.37173 0.42695 0.87505 0.0
H469 H 0.35646 0.53997 0.7921 0.0
H470 H 0.41763 0.52963 0.77178 0.0
H471 H 0.42846 0.54764 0.80349 0.0
C472 C 0.64703 0.53588 0.62367 0.0
C473 C 0.69508 0.55409 0.63257 0.0
C474 C 0.62441 0.5092 0.63802 0.0
C475 C 0.64886 0.50123 0.66245 0.0
C476 C 0.69812 0.51891 0.67128 0.0
C477 C 0.72135 0.5445 0.65601 0.0
C478 C 0.57261 0.4909 0.62724 0.0
C479 C 0.7253 0.51151 0.69728 0.0
C480 C 0.54913 0.46236 0.71282 0.0
C481 C 0.56827 0.42944 0.71309 0.0
C482 C 0.5751 0.4859 0.69646 0.0
C483 C 0.62079 0.47617 0.67968 0.0
C484 C 0.63995 0.4428 0.67974 0.0
C485 C 0.61385 0.41989 0.6967 0.0
C486 C 0.55366 0.52123 0.69718 0.0
C487 C 0.68689 0.43114 0.66145 0.0
H488 H 0.62562 0.54299 0.60581 0.0
H489 H 0.75975 0.55738 0.66277 0.0
H490 H 0.56845 0.46543 0.63513 0.0
H491 H 0.53275 0.50499 0.6321 0.0
H492 H 0.57518 0.48931 0.60573 0.0
H493 H 0.76172 0.52858 0.70193 0.0
H494 H 0.69218 0.51348 0.71289 0.0
H495 H 0.74194 0.48576 0.6974 0.0
H496 H 0.5141 0.46981 0.72564 0.0
H497 H 0.62823 0.39431 0.69673 0.0
H498 H 0.5356 0.52801 0.67795 0.0
H499 H 0.59032 0.53834 0.70124 0.0
H500 H 0.51952 0.52508 0.71214 0.0
H501 H 0.67349 0.43592 0.6411 0.0
H502 H 0.69625 0.40428 0.66366 0.0
H503 H 0.72749 0.44524 0.66489 0.0
C504 C 0.87728 0.9568 0.12991 0.0
C505 C 0.82796 0.93873 0.13756 0.0
C506 C 0.89842 0.98324 0.145 0.0
C507 C 0.87065 0.99135 0.16873 0.0
C508 C 0.82052 0.97361 0.17642 0.0
C509 C 0.79925 0.94799 0.16057 0.0
C510 C 0.95125 0.0021 0.13581 0.0
C511 C 0.79018 0.9811 0.20177 0.0
C512 C 0.9639 0.03419 0.21959 0.0
C513 C 0.94438 0.06696 0.218 0.0
C514 C 0.93933 0.00923 0.20408 0.0
C515 C 0.89541 0.01749 0.18598 0.0
C516 C 0.87565 0.05067 0.18431 0.0
C517 C 0.89995 0.07496 0.2006 0.0
C518 C 0.96023 0.974 0.20714 0.0
C519 C 0.82969 0.06065 0.16501 0.0
H520 H 0.90042 0.94982 0.11241 0.0
H521 H 0.76019 0.93502 0.16642 0.0
H522 H 0.94231 0.02913 0.13585 0.0
H523 H 0.98794 0.99774 0.14929 0.0
H524 H 0.9649 0.99459 0.11596 0.0
H525 H 0.75186 0.96489 0.20507 0.0
H526 H 0.82085 0.97777 0.21815 0.0
H527 H 0.7757 0.0073 0.20213 0.0
H528 H 0.99785 0.028 0.23329 0.0
H529 H 0.8852 0.10041 0.19928 0.0
H530 H 0.98013 0.96527 0.18874 0.0
H531 H 0.92297 0.95741 0.21143 0.0
H532 H 0.9927 0.97148 0.22295 0.0
H533 H 0.84447 0.05466 0.14503 0.0
H534 H 0.81948 0.08754 0.16605 0.0
H535 H 0.78922 0.04644 0.16854 0.0
C536 C 0.78276 0.05036 0.6412 0.0
C537 C 0.82395 0.07085 0.62917 0.0
C538 C 0.79995 0.02351 0.65671 0.0
C539 C 0.85981 0.01753 0.66081 0.0
C540 C 0.90158 0.03783 0.64828 0.0
C541 C 0.88309 0.06406 0.63237 0.0
C542 C 0.75407 0.00199 0.66917 0.0
C543 C 0.96576 0.03264 0.65249 0.0
C544 C 0.90226 0.9714 0.72242 0.0
C545 C 0.91596 0.93994 0.71266 0.0
C546 C 0.88443 0.99698 0.70572 0.0
C547 C 0.87868 0.99062 0.67875 0.0
C548 C 0.89118 0.95861 0.66895 0.0
C549 C 0.9104 0.93379 0.68597 0.0
C550 C 0.87271 0.03095 0.71688 0.0
C551 C 0.88421 0.95055 0.64048 0.0
H552 H 0.73699 0.05569 0.63871 0.0
H553 H 0.91489 0.08021 0.62334 0.0
H554 H 0.76232 0.9755 0.66465 0.0
H555 H 0.75587 0.00475 0.69059 0.0
H556 H 0.70965 0.00846 0.66255 0.0
H557 H 0.99264 0.05016 0.64096 0.0
H558 H 0.97622 0.03598 0.67336 0.0
H559 H 0.97806 0.00695 0.64715 0.0
H560 H 0.90711 0.97627 0.74301 0.0
H561 H 0.92053 0.90937 0.67841 0.0
H562 H 0.82714 0.03822 0.71302 0.0
H563 H 0.90106 0.04955 0.7073 0.0
H564 H 0.88036 0.03199 0.73816 0.0
H565 H 0.83924 0.95613 0.63419 0.0
H566 H 0.89367 0.92412 0.63613 0.0
H567 H 0.91376 0.96627 0.62874 0.0
C568 C 0.72122 0.45046 0.1483 0.0
C569 C 0.68336 0.42931 0.13489 0.0
C570 C 0.69996 0.47713 0.16304 0.0
C571 C 0.63928 0.48224 0.16494 0.0
C572 C 0.60087 0.46094 0.15135 0.0
C573 C 0.62346 0.43494 0.13621 0.0
C574 C 0.7424 0.49972 0.17671 0.0
C575 C 0.53591 0.46515 0.1533 0.0
C576 C 0.58545 0.53023 0.22391 0.0
C577 C 0.57312 0.5613 0.21313 0.0
C578 C 0.60609 0.50412 0.20836 0.0
C579 C 0.61606 0.50951 0.18153 0.0
C580 C 0.60437 0.54102 0.17065 0.0
C581 C 0.58232 0.56641 0.18652 0.0
C582 C 0.61676 0.4707 0.22061 0.0
C583 C 0.61576 0.54802 0.1423 0.0
H584 H 0.76759 0.44614 0.14713 0.0
H585 H 0.59424 0.41836 0.126 0.0
H586 H 0.73448 0.52586 0.17105 0.0
H587 H 0.73603 0.49808 0.19803 0.0
H588 H 0.78823 0.4934 0.17218 0.0
H589 H 0.512 0.4465 0.14155 0.0
H590 H 0.52203 0.46284 0.17386 0.0
H591 H 0.52329 0.49027 0.14667 0.0
H592 H 0.57783 0.52613 0.24444 0.0
H593 H 0.57326 0.59051 0.17818 0.0
H594 H 0.6632 0.46393 0.21866 0.0
H595 H 0.59118 0.45139 0.21036 0.0
H596 H 0.60495 0.47028 0.24153 0.0
H597 H 0.66205 0.54322 0.13768 0.0
H598 H 0.60539 0.57403 0.13697 0.0
H599 H 0.58945 0.53116 0.13001 0.0
C600 C 0.31116 0.43543 0.35012 0.0
C601 C 0.30228 0.43983 0.37694 0.0
C602 C 0.33336 0.46111 0.33459 0.0
C603 C 0.34947 0.49153 0.34624 0.0
C604 C 0.34017 0.4964 0.37313 0.0
C605 C 0.31552 0.47084 0.38799 0.0
C606 C 0.34059 0.45546 0.30577 0.0
C607 C 0.35747 0.52837 0.38634 0.0
C608 C 0.46546 0.54145 0.31121 0.0
C609 C 0.43282 0.56705 0.30001 0.0
C610 C 0.43896 0.51712 0.32668 0.0
C611 C 0.37809 0.51782 0.3305 0.0
C612 C 0.34494 0.54369 0.31945 0.0
C613 C 0.37291 0.56835 0.30484 0.0
C614 C 0.47619 0.4907 0.33902 0.0
C615 C 0.27975 0.54492 0.32235 0.0
H616 H 0.30213 0.41166 0.3412 0.0
H617 H 0.30721 0.47522 0.4084 0.0
H618 H 0.32039 0.47606 0.29475 0.0
H619 H 0.38739 0.45513 0.3007 0.0
H620 H 0.32084 0.4317 0.29932 0.0
H621 H 0.34824 0.52804 0.40752 0.0
H622 H 0.40457 0.53292 0.38346 0.0
H623 H 0.33398 0.54952 0.37754 0.0
H624 H 0.5119 0.54038 0.30796 0.0
H625 H 0.34757 0.58863 0.29722 0.0
H626 H 0.46382 0.46595 0.33141 0.0
H627 H 0.4689 0.49034 0.36033 0.0
H628 H 0.52318 0.49466 0.33526 0.0
H629 H 0.26012 0.52514 0.3102 0.0
H630 H 0.26161 0.56914 0.31613 0.0
H631 H 0.26642 0.54029 0.34271 0.0
C632 C 0.11494 0.04909 0.88926 0.0
C633 C 0.16348 0.06727 0.88077 0.0
C634 C 0.0924 0.02277 0.87444 0.0
C635 C 0.11748 0.01512 0.85004 0.0
C636 C 0.16599 0.03341 0.84118 0.0
C637 C 0.1891 0.05867 0.85685 0.0
C638 C 0.04159 0.00318 0.88488 0.0
C639 C 0.19299 0.02664 0.81494 0.0
C640 C 0.09115 0.93098 0.81871 0.0
C641 C 0.04381 0.93777 0.80257 0.0
C642 C 0.11506 0.95578 0.83459 0.0
C643 C 0.09232 0.98838 0.83353 0.0
C644 C 0.04559 0.9955 0.81659 0.0
C645 C 0.02121 0.96994 0.80164 0.0
C646 C 0.16398 0.94697 0.85276 0.0
C647 C 0.02175 0.03019 0.81404 0.0
H648 H 0.09391 0.05555 0.90738 0.0
H649 H 0.22756 0.07162 0.85023 0.0
H650 H 0.00327 0.00668 0.87218 0.0
H651 H 0.052 0.97632 0.88483 0.0
H652 H 0.02967 0.01069 0.90495 0.0
H653 H 0.22972 0.04364 0.81061 0.0
H654 H 0.20902 1.00077 0.81398 0.0
H655 H 0.1598 0.0294 0.7995 0.0
H656 H 0.1086 0.90603 0.81935 0.0
H657 H 0.98521 0.97525 0.78877 0.0
H658 H 0.152 0.95363 0.87299 0.0
H659 H 0.20342 0.96136 0.8477 0.0
H660 H 0.17485 0.92015 0.85205 0.0
H661 H 0.00371 0.03857 0.83291 0.0
H662 H 0.98711 0.03185 0.79912 0.0
H663 H 0.05717 0.04761 0.80875 0.0
C664 C 0.25198 0.12812 0.98364 0.0
C665 C 0.20455 0.12009 0.96777 0.0
C666 C 0.24736 0.12721 0.01085 0.0
C667 C 0.19402 0.11802 0.02259 0.0
C668 C 0.14566 0.11053 1.00671 0.0
C669 C 0.1515 0.11163 0.97954 0.0
C670 C 0.30011 0.13525 0.02706 0.0
C671 C 0.08803 0.10072 0.01841 0.0
C672 C 0.20887 0.08079 0.0899 0.0
C673 C 0.19769 0.10813 0.10601 0.0
C674 C 0.2054 0.08336 0.06279 0.0
C675 C 0.19038 0.11408 0.05139 0.0
C676 C 0.17578 0.1413 0.0676 0.0
C677 C 0.1795 0.13798 0.09478 0.0
C678 C 0.22071 0.05359 0.04634 0.0
C679 C 0.15921 0.1744 0.05622 0.0
H680 H 0.29326 0.13435 0.97478 0.0
H681 H 0.11435 0.1059 0.96744 0.0
H682 H 0.28958 0.15491 0.04139 0.0
H683 H 0.31351 0.11297 0.03814 0.0
H684 H 0.3374 0.14366 0.01505 0.0
H685 H 0.05374 0.09754 1.00347 0.0
H686 H 0.09274 0.07706 0.02915 0.0
H687 H 0.07359 0.11973 0.03259 0.0
H688 H 0.22239 0.05757 0.09855 0.0
H689 H 0.17118 0.15921 0.10717 0.0
H690 H 0.26118 0.05868 0.03532 0.0
H691 H 0.18597 0.04864 0.03195 0.0
H692 H 0.22732 0.03091 0.05818 0.0
H693 H 0.19755 0.18561 0.04654 0.0
H694 H 0.14317 0.19193 0.07126 0.0
H695 H 0.12513 0.17122 0.04122 0.0
C696 C 0.26207 0.37387 0.48242 0.0
C697 C 0.30242 0.38058 0.46268 0.0
C698 C 0.27755 0.37658 0.50872 0.0
C699 C 0.33472 0.38627 0.51543 0.0
C700 C 0.37632 0.39156 0.4956 0.0
C701 C 0.35971 0.38858 0.4695 0.0
C702 C 0.23202 0.37055 0.5293 0.0
C703 C 0.43779 0.40176 0.50192 0.0
C704 C 0.358 0.43236 0.57896 0.0
C705 C 0.3815 0.40762 0.59491 0.0
C706 C 0.34229 0.42562 0.55318 0.0
C707 C 0.34998 0.39327 0.54302 0.0
C708 C 0.37319 0.36807 0.55903 0.0
C709 C 0.38875 0.37555 0.58477 0.0
C710 C 0.31766 0.4532 0.53675 0.0
C711 C 0.38205 0.33331 0.5489 0.0
H712 H 0.21765 0.36788 0.4773 0.0
H713 H 0.39139 0.39321 0.45434 0.0
H714 H 0.24859 0.35313 0.54419 0.0
H715 H 0.22178 0.39421 0.53931 0.0
H716 H 0.19126 0.36029 0.52104 0.0
H717 H 0.46591 0.40258 0.48438 0.0
H718 H 0.4377 0.42671 0.51103 0.0
H719 H 0.4571 0.38433 0.51611 0.0
H720 H 0.35128 0.45704 0.58674 0.0
H721 H 0.40745 0.35637 0.59685 0.0
H722 H 0.27399 0.44616 0.52955 0.0
H723 H 0.34569 0.45731 0.51951 0.0
H724 H 0.314 0.47691 0.54763 0.0
H725 H 0.34045 0.3232 0.54148 0.0
H726 H 0.39902 0.31631 0.56403 0.0
H727 H 0.41301 0.33367 0.53238 0.0
C728 C 0.65047 0.36888 0.04135 0.0
C729 C 0.70624 0.36493 0.05182 0.0
C730 C 0.64022 0.36424 0.01465 0.0
C731 C 0.68694 0.35578 0.998 0.0
C732 C 0.74353 0.35259 1.00842 0.0
C733 C 0.75241 0.35706 0.03515 0.0
C734 C 0.57921 0.36755 1.00437 0.0
C735 C 0.79472 0.34391 0.99136 0.0
C736 C 0.66635 0.30766 0.93531 0.0
C737 C 0.67445 0.33235 0.9165 0.0
C738 C 0.66703 0.3153 0.9619 0.0
C739 C 0.67679 0.34842 0.96994 0.0
C740 C 0.68208 0.37374 0.951 0.0
C741 C 0.68051 0.36541 0.92445 0.0
C742 C 0.66028 0.2876 0.98137 0.0
C743 C 0.69277 0.40932 0.95875 0.0
H744 H 0.61457 0.37479 0.05417 0.0
H745 H 0.79575 0.35451 0.04306 0.0
H746 H 0.57823 0.38529 0.98794 0.0
H747 H 0.56413 0.34325 0.99681 0.0
H748 H 0.54826 0.37609 0.01952 0.0
H749 H 0.83632 0.34401 1.00223 0.0
H750 H 0.78833 0.31893 0.98278 0.0
H751 H 0.79814 0.36177 0.97506 0.0
H752 H 0.66113 0.2821 0.92916 0.0
H753 H 0.68712 0.38449 0.90993 0.0
H754 H 0.62747 0.29428 0.99626 0.0
H755 H 0.70206 0.2836 0.99157 0.0
H756 H 0.64708 0.2639 0.97205 0.0
H757 H 0.6612 0.41721 0.97381 0.0
H758 H 0.68968 0.42648 0.94195 0.0
H759 H 0.73677 0.41162 0.9673 0.0
C760 C 0.87051 0.12975 0.53779 0.0
C761 C 0.82197 0.14473 0.54963 0.0
C762 C 0.88395 0.13515 0.51143 0.0
C763 C 0.84991 0.15735 0.49663 0.0
C764 C 0.8015 0.17291 0.50838 0.0
C765 C 0.78736 0.16581 0.53435 0.0
C766 C 0.93467 0.11704 0.49943 0.0
C767 C 0.76487 0.19751 0.49361 0.0
C768 C 0.91705 0.19965 0.43767 0.0
C769 C 0.88686 0.18491 0.41688 0.0
C770 C 0.90581 0.19077 0.46358 0.0
C771 C 0.86555 0.16519 0.46907 0.0
C772 C 0.83793 0.14852 0.44823 0.0
C773 C 0.84796 0.15897 0.42251 0.0
C774 C 0.93526 0.20984 0.48513 0.0
C775 C 0.79652 0.12016 0.45312 0.0
H776 H 0.89869 0.11391 0.54907 0.0
H777 H 0.74865 0.17685 0.54253 0.0
H778 H 0.92109 0.10471 0.48114 0.0
H779 H 0.96951 0.1349 0.49442 0.0
H780 H 0.953 0.09804 0.51268 0.0
H781 H 0.7306 0.20886 0.50593 0.0
H782 H 0.79275 0.21759 0.48572 0.0
H783 H 0.74376 0.18511 0.47687 0.0
H784 H 0.94895 0.21877 0.43384 0.0
H785 H 0.82377 0.14732 0.40697 0.0
H786 H 0.96001 0.19275 0.49777 0.0
H787 H 0.90203 0.22209 0.49746 0.0
H788 H 0.96542 0.22911 0.47763 0.0
H789 H 0.81576 0.10225 0.46699 0.0
H790 H 0.78515 0.10679 0.43495 0.0
H791 H 0.75596 0.12971 0.46198 0.0
C792 C 0.8132 0.85348 0.03741 0.0
C793 C 0.79545 0.88162 0.05141 0.0
C794 C 0.8143 0.85343 0.01007 0.0
C795 C 0.79737 0.88222 0.99632 0.0
C796 C 0.78038 0.91086 0.01035 0.0
C797 C 0.77945 0.91018 0.03762 0.0
C798 C 0.83266 0.82239 0.99588 0.0
C799 C 0.76185 0.94208 0.99652 0.0
C800 C 0.83523 0.89618 0.92497 0.0
C801 C 0.78195 0.88944 0.91293 0.0
C802 C 0.84175 0.89273 0.95204 0.0
C803 C 0.794 0.88206 0.96733 0.0
C804 C 0.74116 0.87353 0.955 0.0
C805 C 0.73579 0.87738 0.92803 0.0
C806 C 0.89881 0.90208 0.9644 0.0
C807 C 0.68933 0.86171 0.97043 0.0
H808 H 0.82644 0.83144 0.04784 0.0
H809 H 0.76483 0.93189 0.04816 0.0
H810 H 0.79592 0.8128 0.98415 0.0
H811 H 0.8686 0.82807 0.98222 0.0
H812 H 0.84706 0.80256 0.00935 0.0
H813 H 0.75278 0.96276 0.0102 0.0
H814 H 0.79613 0.95012 0.98273 0.0
H815 H 0.72209 0.93713 0.98501 0.0
H816 H 0.87092 0.90567 0.91342 0.0
H817 H 0.69473 0.87174 0.91875 0.0
H818 H 0.91359 0.88218 0.97768 0.0
H819 H 0.89304 0.92485 0.97624 0.0
H820 H 0.93326 0.90675 0.94973 0.0
H821 H 0.70176 0.84077 0.98319 0.0
H822 H 0.65301 0.8536 0.95775 0.0
H823 H 0.67357 0.88204 0.98315 0.0
C824 C 0.67574 0.61065 0.53625 0.0
C825 C 0.72881 0.61592 0.54886 0.0
C826 C 0.67117 0.61364 0.50912 0.0
C827 C 0.72121 0.6213 0.49425 0.0
C828 C 0.77521 0.62583 0.50692 0.0
C829 C 0.77819 0.6235 0.53411 0.0
C830 C 0.61258 0.6094 0.49646 0.0
C831 C 0.82983 0.63332 0.49177 0.0
C832 C 0.72153 0.60285 0.42162 0.0
C833 C 0.71488 0.63463 0.41113 0.0
C834 C 0.72337 0.59805 0.44866 0.0
C835 C 0.71696 0.62562 0.46553 0.0
C836 C 0.70829 0.65762 0.45491 0.0
C837 C 0.70814 0.66179 0.42784 0.0
C838 C 0.73394 0.56367 0.45916 0.0
C839 C 0.69985 0.68754 0.47215 0.0
H840 H 0.63746 0.60503 0.54771 0.0
H841 H 0.8193 0.62734 0.54388 0.0
H842 H 0.60034 0.63262 0.48634 0.0
H843 H 0.61447 0.5895 0.4816 0.0
H844 H 0.57805 0.60315 0.51073 0.0
H845 H 0.86886 0.63429 0.50439 0.0
H846 H 0.83667 0.61415 0.4766 0.0
H847 H 0.82544 0.65749 0.48174 0.0
H848 H 0.72717 0.58191 0.40863 0.0
H849 H 0.7027 0.68634 0.41966 0.0
H850 H 0.69848 0.55647 0.47261 0.0
H851 H 0.77491 0.56341 0.47046 0.0
H852 H 0.73699 0.54479 0.44349 0.0
H853 H 0.66395 0.68298 0.4861 0.0
H854 H 0.68985 0.71028 0.46087 0.0
H855 H 0.7397 0.69209 0.48368 0.0
C856 C 0.31693 0.66466 0.97143 0.0
C857 C 0.29947 0.6351 0.95935 0.0
C858 C 0.32381 0.66643 0.9985 0.0
C859 C 0.3123 0.63806 0.01386 0.0
C860 C 0.29549 0.60803 1.0017 0.0
C861 C 0.28949 0.60689 0.97461 0.0
C862 C 0.34243 0.69877 0.01072 0.0
C863 C 0.28216 0.57733 0.01739 0.0
C864 C 0.36428 0.63095 0.08378 0.0
C865 C 0.31353 0.63865 0.09762 0.0
C866 C 0.36522 0.6317 0.05647 0.0
C867 C 0.31413 0.64015 0.04273 0.0
C868 C 0.26343 0.649 0.05662 0.0
C869 C 0.26387 0.64833 0.08383 0.0
C870 C 0.42028 0.62242 0.04232 0.0
C871 C 0.20803 0.65818 0.04274 0.0
H872 H 0.32535 0.6864 0.95966 0.0
H873 H 0.27539 0.58409 0.96538 0.0
H874 H 0.3071 0.70845 0.02326 0.0
H875 H 0.38082 0.69479 0.02331 0.0
H876 H 0.35333 0.71788 0.99598 0.0
H877 H 0.27203 0.5556 1.00491 0.0
H878 H 0.31955 0.57102 0.02997 0.0
H879 H 0.24448 0.58209 0.03031 0.0
H880 H 0.40274 0.62328 0.09425 0.0
H881 H 0.22485 0.65505 0.09437 0.0
H882 H 0.43159 0.64173 0.02784 0.0
H883 H 0.41358 0.59889 0.03155 0.0
H884 H 0.45751 0.6192 0.05576 0.0
H885 H 0.21612 0.67892 0.02908 0.0
H886 H 0.173 0.6656 0.0564 0.0
H887 H 0.19252 0.63678 0.03108 0.0
C888 C 0.14631 0.87344 0.47756 0.0
C889 C 0.19857 0.86434 0.46544 0.0
C890 C 0.14139 0.87443 0.50475 0.0
C891 C 0.18985 0.86608 0.52028 0.0
C892 C 0.24233 0.85618 0.50819 0.0
C893 C 0.24606 0.85545 0.48096 0.0
C894 C 0.08462 0.88499 0.51686 0.0
C895 C 0.29504 0.84713 0.52404 0.0
C896 C 0.2009 0.90166 0.58851 0.0
C897 C 0.18482 0.87449 0.60394 0.0
C898 C 0.20199 0.89934 0.56131 0.0
C899 C 0.18658 0.8691 0.54912 0.0
C900 C 0.16924 0.84174 0.56453 0.0
C901 C 0.16851 0.84477 0.59174 0.0
C902 C 0.22033 0.92919 0.54562 0.0
C903 C 0.15254 0.80908 0.55228 0.0
H904 H 0.10913 0.87987 0.46573 0.0
H905 H 0.2868 0.84878 0.47181 0.0
H906 H 0.06906 0.86575 0.53059 0.0
H907 H 0.09107 0.90812 0.52819 0.0
H908 H 0.05036 0.88943 0.50212 0.0
H909 H 0.33164 0.8384 0.51175 0.0
H910 H 0.30977 0.86901 0.53535 0.0
H911 H 0.28392 0.82738 0.53817 0.0
H912 H 0.21266 0.92487 0.59775 0.0
H913 H 0.15658 0.82357 0.60351 0.0
H914 H 0.18566 0.93594 0.53167 0.0
H915 H 0.25969 0.92319 0.5341 0.0
H916 H 0.22987 0.95108 0.55802 0.0
H917 H 0.11713 0.81285 0.53802 0.0
H918 H 0.13803 0.79059 0.56688 0.0
H919 H 0.19015 0.79874 0.54151 0.0
C920 C 0.22108 0.30301 0.3805 0.0
C921 C 0.19365 0.33286 0.38684 0.0
C922 C 0.19184 0.27838 0.36635 0.0
C923 C 0.13341 0.28355 0.35883 0.0
C924 C 0.10477 0.31317 0.36624 0.0
C925 C 0.13558 0.33774 0.37989 0.0
C926 C 0.22442 0.24758 0.35831 0.0
C927 C 0.0421 0.31917 0.35924 0.0
C928 C 0.08635 0.23735 0.29813 0.0
C929 C 0.0626 0.20826 0.30853 0.0
C930 C 0.10825 0.26243 0.31428 0.0
C931 C 0.10417 0.25897 0.34159 0.0
C932 C 0.07587 0.2309 0.35221 0.0
C933 C 0.05603 0.20568 0.33557 0.0
C934 C 0.13832 0.29182 0.30205 0.0
C935 C 0.06833 0.22691 0.38116 0.0
H936 H 0.26625 0.29955 0.38571 0.0
H937 H 0.11462 0.36094 0.38488 0.0
H938 H 0.20002 0.22504 0.3641 0.0
H939 H 0.22868 0.24711 0.33687 0.0
H940 H 0.26853 0.24645 0.36694 0.0
H941 H 0.02589 0.34324 0.36682 0.0
H942 H 0.03672 0.31882 0.33784 0.0
H943 H 0.01472 0.29898 0.36724 0.0
H944 H 0.0892 0.24022 0.2773 0.0
H945 H 0.03636 0.18366 0.34383 0.0
H946 H 0.18569 0.29005 0.30564 0.0
H947 H 0.12303 0.31535 0.31084 0.0
H948 H 0.13112 0.29299 0.28075 0.0
H949 H 0.11126 0.22279 0.39031 0.0
H950 H 0.03953 0.20572 0.38611 0.0
H951 H 0.04984 0.24982 0.38975 0.0
C952 C 0.28181 0.20607 0.89536 0.0
C953 C 0.27612 0.17401 0.88485 0.0
C954 C 0.31221 0.23112 0.88204 0.0
C955 C 0.33535 0.22454 0.85707 0.0
C956 C 0.32989 0.19243 0.84632 0.0
C957 C 0.30198 0.16745 0.86059 0.0
C958 C 0.31867 0.26484 0.89449 0.0
C959 C 0.35236 0.18457 0.81942 0.0
C960 C 0.35562 0.29579 0.80978 0.0
C961 C 0.41626 0.29799 0.80795 0.0
C962 C 0.32871 0.27227 0.82583 0.0
C963 C 0.3632 0.25142 0.84157 0.0
C964 C 0.42437 0.25505 0.84126 0.0
C965 C 0.45023 0.27786 0.82414 0.0
C966 C 0.26347 0.26873 0.82481 0.0
C967 C 0.46258 0.23448 0.85872 0.0
H968 H 0.26177 0.21195 0.91382 0.0
H969 H 0.30031 0.1427 0.85247 0.0
H970 H 0.36473 0.2729 0.89384 0.0
H971 H 0.29303 0.28336 0.88352 0.0
H972 H 0.30374 0.26499 0.91501 0.0
H973 H 0.34263 0.15869 0.81344 0.0
H974 H 0.33264 0.20169 0.80507 0.0
H975 H 0.40001 0.18833 0.81862 0.0
H976 H 0.32875 0.31208 0.79837 0.0
H977 H 0.49712 0.27986 0.82345 0.0
H978 H 0.24471 0.26622 0.84454 0.0
H979 H 0.25233 0.2459 0.81383 0.0
H980 H 0.24256 0.29015 0.81507 0.0
H981 H 0.44614 0.23528 0.87899 0.0
H982 H 0.50837 0.24316 0.85854 0.0
H983 H 0.46163 0.20822 0.85234 0.0
C984 C 0.74484 0.21177 0.63754 0.0
C985 C 0.72374 0.17965 0.63318 0.0
C986 C 0.71452 0.23405 0.65362 0.0
C987 C 0.66139 0.2241 0.66518 0.0
C988 C 0.63927 0.19193 0.66024 0.0
C989 C 0.67099 0.17001 0.6445 0.0
C990 C 0.7399 0.26797 0.6587 0.0
C991 C 0.58232 0.18056 0.67175 0.0
C992 C 0.608 0.2685 0.72598 0.0
C993 C 0.56744 0.29085 0.71573 0.0
C994 C 0.63911 0.2468 0.70975 0.0
C995 C 0.62906 0.24717 0.68262 0.0
C996 C 0.58762 0.26929 0.67219 0.0
C997 C 0.55745 0.29086 0.68882 0.0
C998 C 0.6831 0.22366 0.72162 0.0
C999 C 0.57528 0.27028 0.64341 0.0
H1000 H 0.78592 0.21908 0.62898 0.0
H1001 H 0.65458 0.1452 0.64101 0.0
H1002 H 0.70876 0.28743 0.65268 0.0
H1003 H 0.74764 0.27124 0.67981 0.0
H1004 H 0.78149 0.27193 0.6482 0.0
H1005 H 0.57022 0.15519 0.6653 0.0
H1006 H 0.58503 0.18078 0.69326 0.0
H1007 H 0.54713 0.19789 0.66618 0.0
H1008 H 0.61604 0.26817 0.74671 0.0
H1009 H 0.52634 0.30798 0.68059 0.0
H1010 H 0.72649 0.22819 0.71293 0.0
H1011 H 0.67125 0.19756 0.71731 0.0
H1012 H 0.68635 0.22671 0.74301 0.0
H1013 H 0.61544 0.27667 0.6326 0.0
H1014 H 0.54119 0.28864 0.63841 0.0
H1015 H 0.56108 0.24546 0.63659 0.0
C1016 C 0.84151 0.3335 0.15145 0.0
C1017 C 0.79705 0.32387 0.13445 0.0
C1018 C 0.87171 0.30999 0.16629 0.0
C1019 C 0.85667 0.27601 0.16432 0.0
C1020 C 0.81258 0.26607 0.1468 0.0
C1021 C 0.78351 0.2901 0.13199 0.0
C1022 C 0.9189 0.32158 0.18448 0.0
C1023 C 0.79483 0.23016 0.14432 0.0
C1024 C 0.96142 0.21075 0.18986 0.0
C1025 C 0.93851 0.20425 0.21464 0.0
C1026 C 0.93549 0.23412 0.17331 0.0
C1027 C 0.88498 0.25114 0.18154 0.0
C1028 C 0.8614 0.24454 0.20641 0.0
C1029 C 0.88856 0.22139 0.22267 0.0
C1030 C 0.96225 0.24069 0.14703 0.0
C1031 C 0.80729 0.26191 0.21586 0.0
H1032 H 0.85256 0.35955 0.1532 0.0
H1033 H 0.74879 0.28256 0.11907 0.0
H1034 H 0.90611 0.31636 0.20485 0.0
H1035 H 0.95965 0.30778 0.18062 0.0
H1036 H 0.92776 0.34855 0.18259 0.0
H1037 H 0.76161 0.2263 0.129 0.0
H1038 H 0.83317 0.2146 0.13974 0.0
H1039 H 0.77695 0.22128 0.16309 0.0
H1040 H -0.00015 0.19768 0.18335 0.0
H1041 H 0.87024 0.21668 0.2417 0.0
H1042 H 0.97372 0.26732 0.14529 0.0
H1043 H 0.93043 0.23504 0.1315 0.0
H1044 H 0.00193 0.22567 0.14363 0.0
H1045 H 0.81474 0.28908 0.21648 0.0
H1046 H 0.79382 0.25353 0.23551 0.0
H1047 H 0.77101 0.25734 0.20217 0.0
C1048 C 0.827 0.68795 0.62501 0.0
C1049 C 0.77999 0.66911 0.63426 0.0
C1050 C 0.85038 0.71411 0.63976 0.0
C1051 C 0.82724 0.72117 0.66465 0.0
C1052 C 0.77961 0.70249 0.67401 0.0
C1053 C 0.75593 0.67722 0.65854 0.0
C1054 C 0.90055 0.73383 0.62888 0.0
C1055 C 0.75387 0.70893 0.7005 0.0
C1056 C 0.92737 0.76399 0.71287 0.0
C1057 C 0.90656 0.79659 0.71244 0.0
C1058 C 0.90141 0.73916 0.69768 0.0
C1059 C 0.85422 0.74728 0.68127 0.0
C1060 C 0.83307 0.78024 0.6808 0.0
C1061 C 0.85931 0.80446 0.69652 0.0
C1062 C 0.92409 0.70413 0.6994 0.0
C1063 C 0.78304 0.78999 0.66356 0.0
H1064 H 0.84651 0.68184 0.60646 0.0
H1065 H 0.71852 0.66367 0.66565 0.0
H1066 H 0.89036 0.76071 0.62943 0.0
H1067 H 0.93968 0.72995 0.64102 0.0
H1068 H 0.91104 0.72672 0.60856 0.0
H1069 H 0.72158 0.68976 0.70616 0.0
H1070 H 0.78851 0.70973 0.71543 0.0
H1071 H 0.73199 0.73336 0.70051 0.0
H1072 H 0.96341 0.75776 0.72546 0.0
H1073 H 0.84333 0.82972 0.6961 0.0
H1074 H 0.93967 0.69581 0.68007 0.0
H1075 H 0.88856 0.68712 0.70532 0.0
H1076 H 0.96024 0.70178 0.71352 0.0
H1077 H 0.79284 0.78339 0.64309 0.0
H1078 H 0.77345 0.81694 0.66466 0.0
H1079 H 0.74348 0.77612 0.66929 0.0
C1080 C 0.693 0.80695 0.1252 0.0
C1081 C 0.74057 0.82449 0.13537 0.0
C1082 C 0.66571 0.78161 0.13949 0.0
C1083 C 0.68531 0.77413 0.16487 0.0
C1084 C 0.73383 0.79126 0.17506 0.0
C1085 C 0.76152 0.81562 0.16003 0.0
C1086 C 0.61493 0.76338 0.12766 0.0
C1087 C 0.75585 0.7844 0.2021 0.0
C1088 C 0.57512 0.7365 0.21148 0.0
C1089 C 0.5925 0.70326 0.21216 0.0
C1090 C 0.60543 0.75984 0.19643 0.0
C1091 C 0.65345 0.74953 0.1812 0.0
C1092 C 0.67099 0.71588 0.18177 0.0
C1093 C 0.64062 0.69322 0.19745 0.0
C1094 C 0.58652 0.79566 0.1971 0.0
C1095 C 0.72149 0.70374 0.16569 0.0
H1096 H 0.67582 0.81361 0.10636 0.0
H1097 H 0.79931 0.82809 0.16787 0.0
H1098 H 0.62175 0.73621 0.129 0.0
H1099 H 0.57476 0.76926 0.13863 0.0
H1100 H 0.60816 0.77007 0.10697 0.0
H1101 H 0.79074 0.80186 0.20803 0.0
H1102 H 0.71979 0.78616 0.21634 0.0
H1103 H 0.77323 0.75885 0.20302 0.0
H1104 H 0.53843 0.7444 0.22314 0.0
H1105 H 0.65404 0.66748 0.19792 0.0
H1106 H 0.574 0.80386 0.17734 0.0
H1107 H 0.62317 0.81157 0.20348 0.0
H1108 H 0.54921 0.79977 0.21041 0.0
H1109 H 0.71481 0.71024 0.14498 0.0
H1110 H 0.72755 0.67649 0.16724 0.0
H1111 H 0.76202 0.7161 0.1721 0.0
C1112 C 0.24432 0.79832 0.36105 0.0
C1113 C 0.27143 0.81494 0.38165 0.0
C1114 C 0.27474 0.7751 0.34595 0.0
C1115 C 0.3341 0.76903 0.3512 0.0
C1116 C 0.36144 0.78546 0.37224 0.0
C1117 C 0.32952 0.80799 0.38742 0.0
C1118 C 0.24367 0.75761 0.32406 0.0
C1119 C 0.42487 0.78008 0.37816 0.0
C1120 C 0.40587 0.69146 0.32407 0.0
C1121 C 0.43157 0.70363 0.30134 0.0
C1122 C 0.37342 0.71237 0.34036 0.0
C1123 C 0.36803 0.7464 0.33408 0.0
C1124 C 0.39472 0.75883 0.31125 0.0
C1125 C 0.42562 0.73717 0.29498 0.0
C1126 C 0.34432 0.69798 0.3641 0.0
C1127 C 0.39095 0.79505 0.30411 0.0
H1128 H 0.19928 0.80367 0.35669 0.0
H1129 H 0.35052 0.82112 0.40321 0.0
H1130 H 0.26189 0.7658 0.30519 0.0
H1131 H 0.25036 0.73042 0.32542 0.0
H1132 H 0.19631 0.76271 0.32411 0.0
H1133 H 0.43935 0.79427 0.39548 0.0
H1134 H 0.43341 0.75338 0.38152 0.0
H1135 H 0.45159 0.78777 0.36125 0.0
H1136 H 0.41016 0.6654 0.32882 0.0
H1137 H 0.446 0.74654 0.27747 0.0
H1138 H 0.29683 0.70234 0.36314 0.0
H1139 H 0.36048 0.71055 0.38184 0.0
H1140 H 0.35207 0.67092 0.36603 0.0
H1141 H 0.34498 0.80211 0.301 0.0
H1142 H 0.41593 0.80095 0.28623 0.0
H1143 H 0.40774 0.81054 0.32027 0.0
C1144 C 0.1575 0.68921 0.88491 0.0
C1145 C 0.21526 0.68304 0.87792 0.0
C1146 C 0.12415 0.71262 0.87134 0.0
C1147 C 0.14977 0.73078 0.85074 0.0
C1148 C 0.20879 0.72532 0.84427 0.0
C1149 C 0.2406 0.70118 0.85772 0.0
C1150 C 0.06109 0.71715 0.87846 0.0
C1151 C 0.23816 0.74471 0.82292 0.0
C1152 C 0.05585 0.76524 0.79658 0.0
C1153 C 0.04993 0.79846 0.80399 0.0
C1154 C 0.08691 0.74281 0.812 0.0
C1155 C 0.11415 0.75414 0.83501 0.0
C1156 C 0.10828 0.7878 0.84255 0.0
C1157 C 0.07541 0.8095 0.8271 0.0
C1158 C 0.09094 0.70703 0.80354 0.0
C1159 C 0.1379 0.80105 0.86653 0.0
H1160 H 0.13796 0.67496 0.90049 0.0
H1161 H 0.28546 0.69649 0.85251 0.0
H1162 H 0.05227 0.74353 0.88309 0.0
H1163 H 0.03334 0.71038 0.86167 0.0
H1164 H 0.04814 0.70173 0.89537 0.0
H1165 H 0.28509 0.7388 0.82124 0.0
H1166 H 0.21702 0.73924 0.80407 0.0
H1167 H 0.23344 0.77168 0.82662 0.0
H1168 H 0.03576 0.75675 0.77874 0.0
H1169 H 0.07129 0.83535 0.8326 0.0
H1170 H 0.07619 0.6905 0.81945 0.0
H1171 H 0.13676 0.70063 0.79921 0.0
H1172 H 0.06443 0.70183 0.786 0.0
H1173 H 0.12382 0.78686 0.88386 0.0
H1174 H 0.12854 0.82774 0.86984 0.0
H1175 H 0.18555 0.79784 0.86468 0.0
loop_
_geom_bond_atom_site_label_1
_geom_bond_atom_site_label_2
_geom_bond_distance
_geom_bond_site_symmetry_2
_ccdc_geom_bond_type
H0 C3 0.931 . S
H1 C6 0.928 . S
H2 C8 0.930 . S
C3 H0 0.931 . S
C3 C4 1.413 . S
C3 C5 1.360 . S
C4 C3 1.413 . S
C4 C8 1.429 . S
C5 C3 1.360 . S
C5 C6 1.372 . S
C6 H1 0.928 . S
C6 C5 1.372 . S
C6 C7 1.404 . S
C7 C6 1.404 . S
C7 C8 1.391 . S
C8 H2 0.930 . S
C8 C4 1.429 . S
C8 C7 1.391 . S
H9 C12 0.931 . S
H10 C15 0.928 . S
H11 C17 0.930 . S
C12 H9 0.931 . S
C12 C13 1.413 . S
C12 C14 1.360 . S
C13 C12 1.413 . S
C13 C17 1.429 . S
C14 C12 1.360 . S
C14 C15 1.372 . S
C15 H10 0.928 . S
C15 C14 1.372 . S
C15 C16 1.404 . S
C16 C15 1.404 . S
C16 C17 1.391 . S
C17 H11 0.930 . S
C17 C13 1.429 . S
C17 C16 1.391 . S
H18 C21 0.931 . S
H19 C24 0.928 . S
H20 C26 0.930 . S
C21 H18 0.931 . S
C21 C22 1.413 . S
C21 C23 1.360 . S
C22 C21 1.413 . S
C22 C26 1.429 . S
C23 C21 1.360 . S
C23 C24 1.372 . S
C24 H19 0.928 . S
C24 C23 1.372 . S
C24 C25 1.404 . S
C25 C24 1.404 . S
C25 C26 1.391 . S
C26 H20 0.930 . S
C26 C22 1.429 . S
C26 C25 1.391 . S
H27 C30 0.931 . S
H28 C33 0.928 . S
H29 C35 0.930 . S
C30 H27 0.931 . S
C30 C31 1.413 . S
C30 C32 1.360 . S
C31 C30 1.413 . S
C31 C35 1.429 . S
C32 C30 1.360 . S
C32 C33 1.372 . S
C33 H28 0.928 . S
C33 C32 1.372 . S
C33 C34 1.404 . S
C34 C33 1.404 . S
C34 C35 1.391 . S
C35 H29 0.930 . S
C35 C31 1.429 . S
C35 C34 1.391 . S
H36 C39 0.931 . S
H37 C42 0.928 . S
H38 C44 0.930 . S
C39 H36 0.931 . S
C39 C40 1.413 . S
C39 C41 1.360 . S
C40 C39 1.413 . S
C40 C44 1.429 . S
C41 C39 1.360 . S
C41 C42 1.372 . S
C42 H37 0.928 . S
C42 C41 1.372 . S
C42 C43 1.404 . S
C43 C42 1.404 . S
C43 C44 1.391 . S
C44 H38 0.930 . S
C44 C40 1.429 . S
C44 C43 1.391 . S
H45 C48 0.931 . S
H46 C51 0.928 . S
H47 C53 0.930 . S
C48 H45 0.931 . S
C48 C49 1.413 . S
C48 C50 1.360 . S
C49 C48 1.413 . S
C49 C53 1.429 . S
C50 C48 1.360 . S
C50 C51 1.372 . S
C51 H46 0.928 . S
C51 C50 1.372 . S
C51 C52 1.404 . S
C52 C51 1.404 . S
C52 C53 1.391 . S
C53 H47 0.930 . S
C53 C49 1.429 . S
C53 C52 1.391 . S
H54 C57 0.931 . S
H55 C60 0.928 . S
H56 C62 0.930 . S
C57 H54 0.931 . S
C57 C58 1.413 . S
C57 C59 1.360 . S
C58 C57 1.413 . S
C58 C62 1.429 . S
C59 C57 1.360 . S
C59 C60 1.372 . S
C60 H55 0.928 . S
C60 C59 1.372 . S
C60 C61 1.404 . S
C61 C60 1.404 . S
C61 C62 1.391 . S
C62 H56 0.930 . S
C62 C58 1.429 . S
C62 C61 1.391 . S
H63 C66 0.931 . S
H64 C69 0.928 . S
H65 C71 0.930 . S
C66 H63 0.931 . S
C66 C67 1.413 . S
C66 C68 1.360 . S
C67 C66 1.413 . S
C67 C71 1.429 . S
C68 C66 1.360 . S
C68 C69 1.372 . S
C69 H64 0.928 . S
C69 C68 1.372 . S
C69 C70 1.404 . S
C70 C69 1.404 . S
C70 C71 1.391 . S
C71 H65 0.930 . S
C71 C67 1.429 . S
C71 C70 1.391 . S
C72 C74 1.422 . S
C72 C76 1.415 . S
C72 N78 1.369 . S
C73 C74 1.421 . S
C73 C75 1.417 . S
C73 C85 1.422 . S
C74 C72 1.422 . S
C74 C73 1.421 . S
C74 N84 1.359 . S
C75 C73 1.417 . S
C75 C77 1.329 . S
C75 H94 0.930 . S
C76 C72 1.415 . S
C76 C77 1.437 . S
C76 C80 1.413 . S
C77 C75 1.329 . S
C77 C76 1.437 . S
C77 H99 0.929 . S
N78 C72 1.369 . S
N78 C79 1.338 . S
N78 Gd83 2.622 . S
C79 N78 1.338 . S
C79 C81 1.378 . S
C79 H91 0.929 . S
C80 C76 1.413 . S
C80 C81 1.348 . S
C80 H96 0.931 . S
C81 C79 1.378 . S
C81 C80 1.348 . S
C81 H97 0.930 . S
Gd82 N102 2.622 . S
Gd82 N109 2.570 . S
Gd82 O116 2.353 . S
Gd82 O117 2.468 . S
Gd82 O118 2.427 . S
Gd82 O120 2.388 . S
Gd82 O121 2.386 . S
Gd82 O125 2.308 1_455 S
Gd82 C135 2.805 . S
Gd83 N78 2.622 . S
Gd83 N84 2.570 . S
Gd83 O115 2.386 . S
Gd83 O119 2.307 1_655 S
Gd83 O122 2.353 1_655 S
Gd83 O123 2.468 . S
Gd83 O124 2.427 . S
Gd83 O126 2.388 . S
Gd83 C147 2.805 . S
N84 C74 1.359 . S
N84 Gd83 2.570 . S
N84 C86 1.343 . S
C85 C73 1.422 . S
C85 C87 1.321 . S
C85 H93 0.931 . S
C86 N84 1.343 . S
C86 C87 1.390 . S
C86 H88 0.931 . S
C87 C85 1.321 . S
C87 C86 1.390 . S
C87 H89 0.930 . S
H88 C86 0.931 . S
H89 C87 0.930 . S
H90 C113 0.931 . S
H91 C79 0.929 . S
H92 C114 0.930 . S
H93 C85 0.931 . S
H94 C75 0.930 . S
H95 C104 0.929 . S
H96 C80 0.931 . S
H97 C81 0.930 . S
H98 C136 0.930 . S
H99 C77 0.929 . S
H100 C105 0.931 . S
H101 C106 0.930 . S
N102 Gd82 2.622 . S
N102 C103 1.369 . S
N102 C104 1.338 . S
C103 N102 1.369 . S
C103 C107 1.415 . S
C103 C110 1.422 . S
C104 H95 0.929 . S
C104 N102 1.338 . S
C104 C106 1.378 . S
C105 H100 0.931 . S
C105 C106 1.348 . S
C105 C107 1.413 . S
C106 H101 0.930 . S
C106 C104 1.378 . S
C106 C105 1.348 . S
C107 C103 1.415 . S
C107 C105 1.413 . S
C107 C137 1.437 . S
H108 C137 0.929 . S
N109 Gd82 2.570 . S
N109 C110 1.359 . S
N109 C113 1.343 . S
C110 C103 1.422 . S
C110 N109 1.359 . S
C110 C112 1.421 . S
C111 C112 1.422 . S
C111 C114 1.321 . S
C111 H138 0.931 . S
C112 C110 1.421 . S
C112 C111 1.422 . S
C112 C136 1.417 . S
C113 H90 0.931 . S
C113 N109 1.343 . S
C113 C114 1.390 . S
C114 H92 0.930 . S
C114 C111 1.321 . S
C114 C113 1.390 . S
O115 Gd83 2.386 . S
O115 C127 1.265 . S
O116 Gd82 2.353 . S
O116 C127 1.242 1_455 S
O117 Gd82 2.468 . S
O117 C135 1.263 . S
O118 Gd82 2.427 . S
O118 C135 1.252 . S
O119 Gd83 2.307 1_455 S
O119 C128 1.261 . S
O120 Gd82 2.388 . S
O120 C128 1.252 . S
O121 Gd82 2.386 . S
O121 C139 1.265 . S
O122 Gd83 2.353 1_455 S
O122 C139 1.242 . S
O123 Gd83 2.468 . S
O123 C147 1.263 . S
O124 Gd83 2.427 . S
O124 C147 1.252 . S
O125 Gd82 2.308 1_655 S
O125 C140 1.260 . S
O126 Gd83 2.388 . S
O126 C140 1.252 . S
C127 O115 1.265 . S
C127 O116 1.242 1_655 S
C128 O119 1.261 . S
C128 O120 1.252 . S
C129 C132 1.394 . S
C129 C134 1.370 . S
C129 C135 1.500 . S
C130 C133 1.383 . S
C130 C134 1.395 . S
C131 C132 1.396 . S
C131 C133 1.365 . S
C131 H148 0.929 . S
C132 C129 1.394 . S
C132 C131 1.396 . S
C132 H149 0.930 . S
C133 C130 1.383 . S
C133 C131 1.365 . S
C133 H150 0.931 . S
C134 C129 1.370 . S
C134 C130 1.395 . S
C134 H151 0.930 . S
C135 Gd82 2.805 . S
C135 O117 1.263 . S
C135 O118 1.252 . S
C135 C129 1.500 . S
C136 H98 0.930 . S
C136 C112 1.417 . S
C136 C137 1.329 . S
C137 C107 1.437 . S
C137 H108 0.929 . S
C137 C136 1.329 . S
H138 C111 0.931 . S
C139 O121 1.265 . S
C139 O122 1.242 . S
C140 O125 1.260 . S
C140 O126 1.252 . S
C141 C144 1.394 . S
C141 C146 1.370 . S
C141 C147 1.500 . S
C142 C145 1.383 . S
C142 C146 1.395 . S
C143 C144 1.396 . S
C143 C145 1.365 . S
C143 H152 0.929 . S
C144 C141 1.394 . S
C144 C143 1.396 . S
C144 H153 0.930 . S
C145 C142 1.383 . S
C145 C143 1.365 . S
C145 H154 0.931 . S
C146 C141 1.370 . S
C146 C142 1.395 . S
C146 H155 0.930 . S
C147 Gd83 2.805 . S
C147 O123 1.263 . S
C147 O124 1.252 . S
C147 C141 1.500 . S
H148 C131 0.929 . S
H149 C132 0.930 . S
H150 C133 0.931 . S
H151 C134 0.930 . S
H152 C143 0.929 . S
H153 C144 0.930 . S
H154 C145 0.931 . S
H155 C146 0.930 . S
C156 C158 1.422 . S
C156 C160 1.415 . S
C156 N162 1.369 . S
C157 C158 1.421 . S
C157 C159 1.417 . S
C157 C169 1.422 . S
C158 C156 1.422 . S
C158 C157 1.421 . S
C158 N168 1.359 . S
C159 C157 1.417 . S
C159 C161 1.329 . S
C159 H178 0.930 . S
C160 C156 1.415 . S
C160 C161 1.437 . S
C160 C164 1.413 . S
C161 C159 1.329 . S
C161 C160 1.437 . S
C161 H183 0.929 . S
N162 C156 1.369 . S
N162 C163 1.338 . S
N162 Gd167 2.622 . S
C163 N162 1.338 . S
C163 C165 1.378 . S
C163 H175 0.929 . S
C164 C160 1.413 . S
C164 C165 1.348 . S
C164 H180 0.931 . S
C165 C163 1.378 . S
C165 C164 1.348 . S
C165 H181 0.930 . S
Gd166 N186 2.622 . S
Gd166 N193 2.570 . S
Gd166 O200 2.353 . S
Gd166 O201 2.468 . S
Gd166 O202 2.427 . S
Gd166 O204 2.388 . S
Gd166 O205 2.386 . S
Gd166 O209 2.307 . S
Gd166 C219 2.805 . S
Gd167 N162 2.622 . S
Gd167 N168 2.570 . S
Gd167 O199 2.386 . S
Gd167 O203 2.307 . S
Gd167 O206 2.353 . S
Gd167 O207 2.468 . S
Gd167 O208 2.427 . S
Gd167 O210 2.388 . S
Gd167 C231 2.805 . S
N168 C158 1.359 . S
N168 Gd167 2.570 . S
N168 C170 1.343 . S
C169 C157 1.422 . S
C169 C171 1.321 . S
C169 H177 0.931 . S
C170 N168 1.343 . S
C170 C171 1.390 . S
C170 H172 0.931 . S
C171 C169 1.321 . S
C171 C170 1.390 . S
C171 H173 0.930 . S
H172 C170 0.931 . S
H173 C171 0.930 . S
H174 C197 0.931 . S
H175 C163 0.929 . S
H176 C198 0.930 . S
H177 C169 0.931 . S
H178 C159 0.930 . S
H179 C188 0.929 . S
H180 C164 0.931 . S
H181 C165 0.930 . S
H182 C220 0.930 . S
H183 C161 0.929 . S
H184 C189 0.931 . S
H185 C190 0.930 . S
N186 Gd166 2.622 . S
N186 C187 1.369 . S
N186 C188 1.338 . S
C187 N186 1.369 . S
C187 C191 1.415 . S
C187 C194 1.422 . S
C188 H179 0.929 . S
C188 N186 1.338 . S
C188 C190 1.378 . S
C189 H184 0.931 . S
C189 C190 1.348 . S
C189 C191 1.413 . S
C190 H185 0.930 . S
C190 C188 1.378 . S
C190 C189 1.348 . S
C191 C187 1.415 . S
C191 C189 1.413 . S
C191 C221 1.437 . S
H192 C221 0.929 . S
N193 Gd166 2.570 . S
N193 C194 1.359 . S
N193 C197 1.343 . S
C194 C187 1.422 . S
C194 N193 1.359 . S
C194 C196 1.421 . S
C195 C196 1.422 . S
C195 C198 1.321 . S
C195 H222 0.931 . S
C196 C194 1.421 . S
C196 C195 1.422 . S
C196 C220 1.417 . S
C197 H174 0.931 . S
C197 N193 1.343 . S
C197 C198 1.390 . S
C198 H176 0.930 . S
C198 C195 1.321 . S
C198 C197 1.390 . S
O199 Gd167 2.386 . S
O199 C211 1.265 . S
O200 Gd166 2.353 . S
O200 C211 1.242 . S
O201 Gd166 2.468 . S
O201 C219 1.263 . S
O202 Gd166 2.427 . S
O202 C219 1.252 . S
O203 Gd167 2.307 . S
O203 C212 1.261 . S
O204 Gd166 2.388 . S
O204 C212 1.252 . S
O205 Gd166 2.386 . S
O205 C223 1.265 . S
O206 Gd167 2.353 . S
O206 C223 1.242 . S
O207 Gd167 2.468 . S
O207 C231 1.263 . S
O208 Gd167 2.427 . S
O208 C231 1.252 . S
O209 Gd166 2.307 . S
O209 C224 1.261 . S
O210 Gd167 2.388 . S
O210 C224 1.252 . S
C211 O199 1.265 . S
C211 O200 1.242 . S
C212 O203 1.261 . S
C212 O204 1.252 . S
C213 C216 1.394 . S
C213 C218 1.370 . S
C213 C219 1.500 . S
C214 C217 1.383 . S
C214 C218 1.395 . S
C215 C216 1.396 . S
C215 C217 1.365 . S
C215 H232 0.929 . S
C216 C213 1.394 . S
C216 C215 1.396 . S
C216 H233 0.930 . S
C217 C214 1.383 . S
C217 C215 1.365 . S
C217 H234 0.931 . S
C218 C213 1.370 . S
C218 C214 1.395 . S
C218 H235 0.930 . S
C219 Gd166 2.805 . S
C219 O201 1.263 . S
C219 O202 1.252 . S
C219 C213 1.500 . S
C220 H182 0.930 . S
C220 C196 1.417 . S
C220 C221 1.329 . S
C221 C191 1.437 . S
C221 H192 0.929 . S
C221 C220 1.329 . S
H222 C195 0.931 . S
C223 O205 1.265 . S
C223 O206 1.242 . S
C224 O209 1.261 . S
C224 O210 1.252 . S
C225 C228 1.394 . S
C225 C230 1.370 . S
C225 C231 1.500 . S
C226 C229 1.383 . S
C226 C230 1.395 . S
C227 C228 1.396 . S
C227 C229 1.365 . S
C227 H236 0.929 . S
C228 C225 1.394 . S
C228 C227 1.396 . S
C228 H237 0.930 . S
C229 C226 1.383 . S
C229 C227 1.365 . S
C229 H238 0.931 . S
C230 C225 1.370 . S
C230 C226 1.395 . S
C230 H239 0.930 . S
C231 Gd167 2.805 . S
C231 O207 1.263 . S
C231 O208 1.252 . S
C231 C225 1.500 . S
H232 C215 0.929 . S
H233 C216 0.930 . S
H234 C217 0.931 . S
H235 C218 0.930 . S
H236 C227 0.929 . S
H237 C228 0.930 . S
H238 C229 0.931 . S
H239 C230 0.930 . S
C240 C242 1.422 . S
C240 C244 1.415 . S
C240 N246 1.369 . S
C241 C242 1.421 . S
C241 C243 1.417 . S
C241 C253 1.422 . S
C242 C240 1.422 . S
C242 C241 1.421 . S
C242 N252 1.359 . S
C243 C241 1.417 . S
C243 C245 1.329 . S
C243 H262 0.930 . S
C244 C240 1.415 . S
C244 C245 1.437 . S
C244 C248 1.413 . S
C245 C243 1.329 . S
C245 C244 1.437 . S
C245 H267 0.929 . S
N246 C240 1.369 . S
N246 C247 1.338 . S
N246 Gd251 2.622 . S
C247 N246 1.338 . S
C247 C249 1.378 . S
C247 H259 0.929 . S
C248 C244 1.413 . S
C248 C249 1.348 . S
C248 H264 0.931 . S
C249 C247 1.378 . S
C249 C248 1.348 . S
C249 H265 0.930 . S
Gd250 N270 2.622 . S
Gd250 N277 2.570 . S
Gd250 O284 2.353 . S
Gd250 O285 2.468 . S
Gd250 O286 2.427 . S
Gd250 O288 2.388 . S
Gd250 O289 2.386 . S
Gd250 O293 2.307 . S
Gd250 C303 2.805 . S
Gd251 N246 2.622 . S
Gd251 N252 2.570 . S
Gd251 O283 2.386 . S
Gd251 O287 2.307 1_655 S
Gd251 O290 2.353 1_655 S
Gd251 O291 2.468 . S
Gd251 O292 2.427 . S
Gd251 O294 2.388 . S
Gd251 C315 2.805 . S
N252 C242 1.359 . S
N252 Gd251 2.570 . S
N252 C254 1.343 . S
C253 C241 1.422 . S
C253 C255 1.321 . S
C253 H261 0.931 . S
C254 N252 1.343 . S
C254 C255 1.390 . S
C254 H256 0.931 . S
C255 C253 1.321 . S
C255 C254 1.390 . S
C255 H257 0.930 . S
H256 C254 0.931 . S
H257 C255 0.930 . S
H258 C281 0.931 . S
H259 C247 0.929 . S
H260 C282 0.930 . S
H261 C253 0.931 . S
H262 C243 0.930 . S
H263 C272 0.929 . S
H264 C248 0.931 . S
H265 C249 0.930 . S
H266 C304 0.930 . S
H267 C245 0.929 . S
H268 C273 0.931 . S
H269 C274 0.930 . S
N270 Gd250 2.622 . S
N270 C271 1.369 . S
N270 C272 1.338 . S
C271 N270 1.369 . S
C271 C275 1.415 . S
C271 C278 1.422 . S
C272 H263 0.929 . S
C272 N270 1.338 . S
C272 C274 1.378 . S
C273 H268 0.931 . S
C273 C274 1.348 . S
C273 C275 1.413 . S
C274 H269 0.930 . S
C274 C272 1.378 . S
C274 C273 1.348 . S
C275 C271 1.415 . S
C275 C273 1.413 . S
C275 C305 1.437 . S
H276 C305 0.929 . S
N277 Gd250 2.570 . S
N277 C278 1.359 . S
N277 C281 1.343 . S
C278 C271 1.422 . S
C278 N277 1.359 . S
C278 C280 1.421 . S
C279 C280 1.422 . S
C279 C282 1.321 . S
C279 H306 0.931 . S
C280 C278 1.421 . S
C280 C279 1.422 . S
C280 C304 1.417 . S
C281 H258 0.931 . S
C281 N277 1.343 . S
C281 C282 1.390 . S
C282 H260 0.930 . S
C282 C279 1.321 . S
C282 C281 1.390 . S
O283 Gd251 2.386 . S
O283 C295 1.265 . S
O284 Gd250 2.353 . S
O284 C295 1.242 1_455 S
O285 Gd250 2.468 . S
O285 C303 1.263 . S
O286 Gd250 2.427 . S
O286 C303 1.252 . S
O287 Gd251 2.307 1_455 S
O287 C296 1.261 . S
O288 Gd250 2.388 . S
O288 C296 1.252 . S
O289 Gd250 2.386 . S
O289 C307 1.265 . S
O290 Gd251 2.353 1_455 S
O290 C307 1.242 . S
O291 Gd251 2.468 . S
O291 C315 1.263 . S
O292 Gd251 2.427 . S
O292 C315 1.252 . S
O293 Gd250 2.307 . S
O293 C308 1.261 1_455 S
O294 Gd251 2.388 . S
O294 C308 1.252 . S
C295 O283 1.265 . S
C295 O284 1.242 1_655 S
C296 O287 1.261 . S
C296 O288 1.252 . S
C297 C300 1.394 . S
C297 C302 1.370 . S
C297 C303 1.500 . S
C298 C301 1.383 . S
C298 C302 1.395 . S
C299 C300 1.396 . S
C299 C301 1.365 . S
C299 H316 0.929 . S
C300 C297 1.394 . S
C300 C299 1.396 . S
C300 H317 0.930 . S
C301 C298 1.383 . S
C301 C299 1.365 . S
C301 H318 0.931 . S
C302 C297 1.370 . S
C302 C298 1.395 . S
C302 H319 0.930 . S
C303 Gd250 2.805 . S
C303 O285 1.263 . S
C303 O286 1.252 . S
C303 C297 1.500 . S
C304 H266 0.930 . S
C304 C280 1.417 . S
C304 C305 1.329 . S
C305 C275 1.437 . S
C305 H276 0.929 . S
C305 C304 1.329 . S
H306 C279 0.931 . S
C307 O289 1.265 . S
C307 O290 1.242 . S
C308 O293 1.261 1_655 S
C308 O294 1.252 . S
C309 C312 1.394 . S
C309 C314 1.370 . S
C309 C315 1.500 . S
C310 C313 1.383 . S
C310 C314 1.395 . S
C311 C312 1.396 . S
C311 C313 1.365 . S
C311 H320 0.929 . S
C312 C309 1.394 . S
C312 C311 1.396 . S
C312 H321 0.930 . S
C313 C310 1.383 . S
C313 C311 1.365 . S
C313 H322 0.931 . S
C314 C309 1.370 . S
C314 C310 1.395 . S
C314 H323 0.930 . S
C315 Gd251 2.805 . S
C315 O291 1.263 . S
C315 O292 1.252 . S
C315 C309 1.500 . S
H316 C299 0.929 . S
H317 C300 0.930 . S
H318 C301 0.931 . S
H319 C302 0.930 . S
H320 C311 0.929 . S
H321 C312 0.930 . S
H322 C313 0.931 . S
H323 C314 0.930 . S
C324 C326 1.422 . S
C324 C328 1.415 . S
C324 N330 1.369 . S
C325 C326 1.421 . S
C325 C327 1.417 . S
C325 C337 1.422 . S
C326 C324 1.422 . S
C326 C325 1.421 . S
C326 N336 1.359 . S
C327 C325 1.417 . S
C327 C329 1.329 . S
C327 H346 0.930 . S
C328 C324 1.415 . S
C328 C329 1.437 . S
C328 C332 1.413 . S
C329 C327 1.329 . S
C329 C328 1.437 . S
C329 H351 0.929 . S
N330 C324 1.369 . S
N330 C331 1.338 . S
N330 Gd335 2.622 . S
C331 N330 1.338 . S
C331 C333 1.378 . S
C331 H343 0.929 . S
C332 C328 1.413 . S
C332 C333 1.348 . S
C332 H348 0.931 . S
C333 C331 1.378 . S
C333 C332 1.348 . S
C333 H349 0.930 . S
Gd334 N354 2.622 . S
Gd334 N361 2.570 . S
Gd334 O368 2.353 . S
Gd334 O369 2.468 . S
Gd334 O370 2.427 . S
Gd334 O372 2.388 . S
Gd334 O373 2.386 . S
Gd334 O377 2.307 . S
Gd334 C387 2.805 . S
Gd335 N330 2.622 . S
Gd335 N336 2.570 . S
Gd335 O367 2.386 . S
Gd335 O371 2.307 . S
Gd335 O374 2.353 . S
Gd335 O375 2.468 . S
Gd335 O376 2.427 . S
Gd335 O378 2.388 . S
Gd335 C399 2.805 . S
N336 C326 1.359 . S
N336 Gd335 2.570 . S
N336 C338 1.343 . S
C337 C325 1.422 . S
C337 C339 1.321 . S
C337 H345 0.931 . S
C338 N336 1.343 . S
C338 C339 1.390 . S
C338 H340 0.931 . S
C339 C337 1.321 . S
C339 C338 1.390 . S
C339 H341 0.930 . S
H340 C338 0.931 . S
H341 C339 0.930 . S
H342 C365 0.931 . S
H343 C331 0.929 . S
H344 C366 0.930 . S
H345 C337 0.931 . S
H346 C327 0.930 . S
H347 C356 0.929 . S
H348 C332 0.931 . S
H349 C333 0.930 . S
H350 C388 0.930 . S
H351 C329 0.929 . S
H352 C357 0.931 . S
H353 C358 0.930 . S
N354 Gd334 2.622 . S
N354 C355 1.369 . S
N354 C356 1.338 . S
C355 N354 1.369 . S
C355 C359 1.415 . S
C355 C362 1.422 . S
C356 H347 0.929 . S
C356 N354 1.338 . S
C356 C358 1.378 . S
C357 H352 0.931 . S
C357 C358 1.348 . S
C357 C359 1.413 . S
C358 H353 0.930 . S
C358 C356 1.378 . S
C358 C357 1.348 . S
C359 C355 1.415 . S
C359 C357 1.413 . S
C359 C389 1.437 . S
H360 C389 0.929 . S
N361 Gd334 2.570 . S
N361 C362 1.359 . S
N361 C365 1.343 . S
C362 C355 1.422 . S
C362 N361 1.359 . S
C362 C364 1.421 . S
C363 C364 1.422 . S
C363 C366 1.321 . S
C363 H390 0.931 . S
C364 C362 1.421 . S
C364 C363 1.422 . S
C364 C388 1.417 . S
C365 H342 0.931 . S
C365 N361 1.343 . S
C365 C366 1.390 . S
C366 H344 0.930 . S
C366 C363 1.321 . S
C366 C365 1.390 . S
O367 Gd335 2.386 . S
O367 C379 1.265 . S
O368 Gd334 2.353 . S
O368 C379 1.242 . S
O369 Gd334 2.468 . S
O369 C387 1.263 . S
O370 Gd334 2.427 . S
O370 C387 1.252 . S
O371 Gd335 2.307 . S
O371 C380 1.261 . S
O372 Gd334 2.388 . S
O372 C380 1.252 . S
O373 Gd334 2.386 . S
O373 C391 1.265 . S
O374 Gd335 2.353 . S
O374 C391 1.242 . S
O375 Gd335 2.468 . S
O375 C399 1.263 . S
O376 Gd335 2.427 . S
O376 C399 1.252 . S
O377 Gd334 2.307 . S
O377 C392 1.261 . S
O378 Gd335 2.388 . S
O378 C392 1.252 . S
C379 O367 1.265 . S
C379 O368 1.242 . S
C380 O371 1.261 . S
C380 O372 1.252 . S
C381 C384 1.394 . S
C381 C386 1.370 . S
C381 C387 1.500 . S
C382 C385 1.383 . S
C382 C386 1.395 . S
C383 C384 1.396 . S
C383 C385 1.365 . S
C383 H400 0.929 . S
C384 C381 1.394 . S
C384 C383 1.396 . S
C384 H401 0.930 . S
C385 C382 1.383 . S
C385 C383 1.365 . S
C385 H402 0.931 . S
C386 C381 1.370 . S
C386 C382 1.395 . S
C386 H403 0.930 . S
C387 Gd334 2.805 . S
C387 O369 1.263 . S
C387 O370 1.252 . S
C387 C381 1.500 . S
C388 H350 0.930 . S
C388 C364 1.417 . S
C388 C389 1.329 . S
C389 C359 1.437 . S
C389 H360 0.929 . S
C389 C388 1.329 . S
H390 C363 0.931 . S
C391 O373 1.265 . S
C391 O374 1.242 . S
C392 O377 1.261 . S
C392 O378 1.252 . S
C393 C396 1.394 . S
C393 C398 1.370 . S
C393 C399 1.500 . S
C394 C397 1.383 . S
C394 C398 1.395 . S
C395 C396 1.396 . S
C395 C397 1.365 . S
C395 H404 0.929 . S
C396 C393 1.394 . S
C396 C395 1.396 . S
C396 H405 0.930 . S
C397 C394 1.383 . S
C397 C395 1.365 . S
C397 H406 0.931 . S
C398 C393 1.370 . S
C398 C394 1.395 . S
C398 H407 0.930 . S
C399 Gd335 2.805 . S
C399 O375 1.263 . S
C399 O376 1.252 . S
C399 C393 1.500 . S
H400 C383 0.929 . S
H401 C384 0.930 . S
H402 C385 0.931 . S
H403 C386 0.930 . S
H404 C395 0.929 . S
H405 C396 0.930 . S
H406 C397 0.931 . S
H407 C398 0.930 . S
C408 C409 1.391 . S
C408 C410 1.394 . S
C408 H424 0.931 . S
C409 C408 1.391 . S
C409 C413 1.376 . S
C410 C408 1.394 . S
C410 C411 1.369 . S
C410 C414 1.531 . S
C411 C410 1.369 . S
C411 C412 1.410 . S
C411 C419 1.503 1_565 S
C412 C411 1.410 . S
C412 C413 1.392 . S
C412 C415 1.511 . S
C413 C409 1.376 . S
C413 C412 1.392 . S
C413 H425 0.929 . S
C414 C410 1.531 . S
C414 H426 0.960 . S
C414 H427 0.962 1_565 S
C414 H428 0.960 . S
C415 C412 1.511 . S
C415 H429 0.961 . S
C415 H430 0.961 1_565 S
C415 H431 0.961 . S
C416 C417 1.370 . S
C416 C418 1.363 . S
C416 H432 0.931 . S
C417 C416 1.370 . S
C417 C421 1.408 . S
C418 C416 1.363 . S
C418 C419 1.370 . S
C418 C422 1.524 . S
C419 C411 1.503 1_545 S
C419 C418 1.370 . S
C419 C420 1.403 . S
C420 C419 1.403 . S
C420 C421 1.404 . S
C420 C423 1.539 1_545 S
C421 C417 1.408 . S
C421 C420 1.404 . S
C421 H433 0.930 . S
C422 C418 1.524 . S
C422 H434 0.956 . S
C422 H435 0.961 . S
C422 H436 0.961 . S
C423 C420 1.539 1_565 S
C423 H437 0.958 . S
C423 H438 0.961 . S
C423 H439 0.960 . S
H424 C408 0.931 . S
H425 C413 0.929 . S
H426 C414 0.960 . S
H427 C414 0.962 1_545 S
H428 C414 0.960 . S
H429 C415 0.961 . S
H430 C415 0.961 1_545 S
H431 C415 0.961 . S
H432 C416 0.931 . S
H433 C421 0.930 . S
H434 C422 0.956 . S
H435 C422 0.961 . S
H436 C422 0.961 . S
H437 C423 0.958 . S
H438 C423 0.961 . S
H439 C423 0.960 . S
C440 C441 1.391 . S
C440 C442 1.394 . S
C440 H456 0.931 . S
C441 C440 1.391 . S
C441 C445 1.376 . S
C442 C440 1.394 . S
C442 C443 1.369 . S
C442 C446 1.531 . S
C443 C442 1.369 . S
C443 C444 1.410 . S
C443 C451 1.503 . S
C444 C443 1.410 . S
C444 C445 1.392 . S
C444 C447 1.511 . S
C445 C441 1.376 . S
C445 C444 1.392 . S
C445 H457 0.929 . S
C446 C442 1.531 . S
C446 H458 0.960 . S
C446 H459 0.962 . S
C446 H460 0.960 . S
C447 C444 1.511 . S
C447 H461 0.961 . S
C447 H462 0.961 . S
C447 H463 0.961 . S
C448 C449 1.370 . S
C448 C450 1.363 . S
C448 H464 0.931 . S
C449 C448 1.370 . S
C449 C453 1.408 . S
C450 C448 1.363 . S
C450 C451 1.370 . S
C450 C454 1.524 . S
C451 C443 1.503 . S
C451 C450 1.370 . S
C451 C452 1.403 . S
C452 C451 1.403 . S
C452 C453 1.404 . S
C452 C455 1.539 . S
C453 C449 1.408 . S
C453 C452 1.404 . S
C453 H465 0.930 . S
C454 C450 1.524 . S
C454 H466 0.956 . S
C454 H467 0.961 . S
C454 H468 0.961 . S
C455 C452 1.539 . S
C455 H469 0.958 . S
C455 H470 0.961 . S
C455 H471 0.960 . S
H456 C440 0.931 . S
H457 C445 0.929 . S
H458 C446 0.960 . S
H459 C446 0.962 . S
H460 C446 0.960 . S
H461 C447 0.961 . S
H462 C447 0.961 . S
H463 C447 0.961 . S
H464 C448 0.931 . S
H465 C453 0.930 . S
H466 C454 0.956 . S
H467 C454 0.961 . S
H468 C454 0.961 . S
H469 C455 0.958 . S
H470 C455 0.961 . S
H471 C455 0.960 . S
C472 C473 1.391 . S
C472 C474 1.394 . S
C472 H488 0.931 . S
C473 C472 1.391 . S
C473 C477 1.376 . S
C474 C472 1.394 . S
C474 C475 1.369 . S
C474 C478 1.531 . S
C475 C474 1.369 . S
C475 C476 1.410 . S
C475 C483 1.503 . S
C476 C475 1.410 . S
C476 C477 1.392 . S
C476 C479 1.511 . S
C477 C473 1.376 . S
C477 C476 1.392 . S
C477 H489 0.929 . S
C478 C474 1.531 . S
C478 H490 0.960 . S
C478 H491 0.962 . S
C478 H492 0.960 . S
C479 C476 1.511 . S
C479 H493 0.961 . S
C479 H494 0.961 . S
C479 H495 0.961 . S
C480 C481 1.370 . S
C480 C482 1.363 . S
C480 H496 0.931 . S
C481 C480 1.370 . S
C481 C485 1.408 . S
C482 C480 1.363 . S
C482 C483 1.370 . S
C482 C486 1.524 . S
C483 C475 1.503 . S
C483 C482 1.370 . S
C483 C484 1.403 . S
C484 C483 1.403 . S
C484 C485 1.404 . S
C484 C487 1.539 . S
C485 C481 1.408 . S
C485 C484 1.404 . S
C485 H497 0.930 . S
C486 C482 1.524 . S
C486 H498 0.956 . S
C486 H499 0.961 . S
C486 H500 0.961 . S
C487 C484 1.539 . S
C487 H501 0.958 . S
C487 H502 0.961 . S
C487 H503 0.960 . S
H488 C472 0.931 . S
H489 C477 0.929 . S
H490 C478 0.960 . S
H491 C478 0.962 . S
H492 C478 0.960 . S
H493 C479 0.961 . S
H494 C479 0.961 . S
H495 C479 0.961 . S
H496 C480 0.931 . S
H497 C485 0.930 . S
H498 C486 0.956 . S
H499 C486 0.961 . S
H500 C486 0.961 . S
H501 C487 0.958 . S
H502 C487 0.961 . S
H503 C487 0.960 . S
C504 C505 1.391 . S
C504 C506 1.394 . S
C504 H520 0.931 . S
C505 C504 1.391 . S
C505 C509 1.376 . S
C506 C504 1.394 . S
C506 C507 1.369 . S
C506 C510 1.531 1_565 S
C507 C506 1.369 . S
C507 C508 1.410 . S
C507 C515 1.503 1_565 S
C508 C507 1.410 . S
C508 C509 1.392 . S
C508 C511 1.511 . S
C509 C505 1.376 . S
C509 C508 1.392 . S
C509 H521 0.929 . S
C510 C506 1.531 1_545 S
C510 H522 0.960 . S
C510 H523 0.962 . S
C510 H524 0.960 . S
C511 C508 1.511 . S
C511 H525 0.961 . S
C511 H526 0.961 . S
C511 H527 0.961 . S
C512 C513 1.370 . S
C512 C514 1.363 . S
C512 H528 0.931 . S
C513 C512 1.370 . S
C513 C517 1.408 . S
C514 C512 1.363 . S
C514 C515 1.370 . S
C514 C518 1.524 1_545 S
C515 C507 1.503 1_545 S
C515 C514 1.370 . S
C515 C516 1.403 . S
C516 C515 1.403 . S
C516 C517 1.404 . S
C516 C519 1.539 . S
C517 C513 1.408 . S
C517 C516 1.404 . S
C517 H529 0.930 . S
C518 C514 1.524 1_565 S
C518 H530 0.956 . S
C518 H531 0.961 . S
C518 H532 0.961 . S
C519 C516 1.539 . S
C519 H533 0.958 . S
C519 H534 0.961 . S
C519 H535 0.960 . S
H520 C504 0.931 . S
H521 C509 0.929 . S
H522 C510 0.960 . S
H523 C510 0.962 . S
H524 C510 0.960 . S
H525 C511 0.961 . S
H526 C511 0.961 . S
H527 C511 0.961 . S
H528 C512 0.931 . S
H529 C517 0.930 . S
H530 C518 0.956 . S
H531 C518 0.961 . S
H532 C518 0.961 . S
H533 C519 0.958 . S
H534 C519 0.961 . S
H535 C519 0.960 . S
C536 C537 1.391 . S
C536 C538 1.394 . S
C536 H552 0.931 . S
C537 C536 1.391 . S
C537 C541 1.376 . S
C538 C536 1.394 . S
C538 C539 1.369 . S
C538 C542 1.531 . S
C539 C538 1.369 . S
C539 C540 1.410 . S
C539 C547 1.503 1_545 S
C540 C539 1.410 . S
C540 C541 1.392 . S
C540 C543 1.511 1_545 S
C541 C537 1.376 . S
C541 C540 1.392 . S
C541 H553 0.929 . S
C542 C538 1.531 . S
C542 H554 0.960 1_545 S
C542 H555 0.962 . S
C542 H556 0.960 . S
C543 C540 1.511 1_565 S
C543 H557 0.961 1_565 S
C543 H558 0.961 . S
C543 H559 0.961 . S
C544 C545 1.370 . S
C544 C546 1.363 . S
C544 H560 0.931 . S
C545 C544 1.370 . S
C545 C549 1.408 . S
C546 C544 1.363 . S
C546 C547 1.370 . S
C546 C550 1.524 1_565 S
C547 C539 1.503 1_565 S
C547 C546 1.370 . S
C547 C548 1.403 . S
C548 C547 1.403 . S
C548 C549 1.404 . S
C548 C551 1.539 . S
C549 C545 1.408 . S
C549 C548 1.404 . S
C549 H561 0.930 . S
C550 C546 1.524 1_545 S
C550 H562 0.956 . S
C550 H563 0.961 . S
C550 H564 0.961 . S
C551 C548 1.539 . S
C551 H565 0.958 . S
C551 H566 0.961 . S
C551 H567 0.960 . S
H552 C536 0.931 . S
H553 C541 0.929 . S
H554 C542 0.960 1_565 S
H555 C542 0.962 . S
H556 C542 0.960 . S
H557 C543 0.961 1_545 S
H558 C543 0.961 . S
H559 C543 0.961 . S
H560 C544 0.931 . S
H561 C549 0.930 . S
H562 C550 0.956 . S
H563 C550 0.961 . S
H564 C550 0.961 . S
H565 C551 0.958 . S
H566 C551 0.961 . S
H567 C551 0.960 . S
C568 C569 1.391 . S
C568 C570 1.394 . S
C568 H584 0.931 . S
C569 C568 1.391 . S
C569 C573 1.376 . S
C570 C568 1.394 . S
C570 C571 1.369 . S
C570 C574 1.531 . S
C571 C570 1.369 . S
C571 C572 1.410 . S
C571 C579 1.503 . S
C572 C571 1.410 . S
C572 C573 1.392 . S
C572 C575 1.511 . S
C573 C569 1.376 . S
C573 C572 1.392 . S
C573 H585 0.929 . S
C574 C570 1.531 . S
C574 H586 0.960 . S
C574 H587 0.962 . S
C574 H588 0.960 . S
C575 C572 1.511 . S
C575 H589 0.961 . S
C575 H590 0.961 . S
C575 H591 0.961 . S
C576 C577 1.370 . S
C576 C578 1.363 . S
C576 H592 0.931 . S
C577 C576 1.370 . S
C577 C581 1.408 . S
C578 C576 1.363 . S
C578 C579 1.370 . S
C578 C582 1.524 . S
C579 C571 1.503 . S
C579 C578 1.370 . S
C579 C580 1.403 . S
C580 C579 1.403 . S
C580 C581 1.404 . S
C580 C583 1.539 . S
C581 C577 1.408 . S
C581 C580 1.404 . S
C581 H593 0.930 . S
C582 C578 1.524 . S
C582 H594 0.956 . S
C582 H595 0.961 . S
C582 H596 0.961 . S
C583 C580 1.539 . S
C583 H597 0.958 . S
C583 H598 0.961 . S
C583 H599 0.960 . S
H584 C568 0.931 . S
H585 C573 0.929 . S
H586 C574 0.960 . S
H587 C574 0.962 . S
H588 C574 0.960 . S
H589 C575 0.961 . S
H590 C575 0.961 . S
H591 C575 0.961 . S
H592 C576 0.931 . S
H593 C581 0.930 . S
H594 C582 0.956 . S
H595 C582 0.961 . S
H596 C582 0.961 . S
H597 C583 0.958 . S
H598 C583 0.961 . S
H599 C583 0.960 . S
C600 C601 1.391 . S
C600 C602 1.394 . S
C600 H616 0.931 . S
C601 C600 1.391 . S
C601 C605 1.376 . S
C602 C600 1.394 . S
C602 C603 1.369 . S
C602 C606 1.531 . S
C603 C602 1.369 . S
C603 C604 1.410 . S
C603 C611 1.503 . S
C604 C603 1.410 . S
C604 C605 1.392 . S
C604 C607 1.511 . S
C605 C601 1.376 . S
C605 C604 1.392 . S
C605 H617 0.929 . S
C606 C602 1.531 . S
C606 H618 0.960 . S
C606 H619 0.962 . S
C606 H620 0.960 . S
C607 C604 1.511 . S
C607 H621 0.961 . S
C607 H622 0.961 . S
C607 H623 0.961 . S
C608 C609 1.370 . S
C608 C610 1.363 . S
C608 H624 0.931 . S
C609 C608 1.370 . S
C609 C613 1.408 . S
C610 C608 1.363 . S
C610 C611 1.370 . S
C610 C614 1.524 . S
C611 C603 1.503 . S
C611 C610 1.370 . S
C611 C612 1.403 . S
C612 C611 1.403 . S
C612 C613 1.404 . S
C612 C615 1.539 . S
C613 C609 1.408 . S
C613 C612 1.404 . S
C613 H625 0.930 . S
C614 C610 1.524 . S
C614 H626 0.956 . S
C614 H627 0.961 . S
C614 H628 0.961 . S
C615 C612 1.539 . S
C615 H629 0.958 . S
C615 H630 0.961 . S
C615 H631 0.960 . S
H616 C600 0.931 . S
H617 C605 0.929 . S
H618 C606 0.960 . S
H619 C606 0.962 . S
H620 C606 0.960 . S
H621 C607 0.961 . S
H622 C607 0.961 . S
H623 C607 0.961 . S
H624 C608 0.931 . S
H625 C613 0.930 . S
H626 C614 0.956 . S
H627 C614 0.961 . S
H628 C614 0.961 . S
H629 C615 0.958 . S
H630 C615 0.961 . S
H631 C615 0.960 . S
C632 C633 1.391 . S
C632 C634 1.394 . S
C632 H648 0.931 . S
C633 C632 1.391 . S
C633 C637 1.376 . S
C634 C632 1.394 . S
C634 C635 1.369 . S
C634 C638 1.531 1_545 S
C635 C634 1.369 . S
C635 C636 1.410 . S
C635 C643 1.503 1_545 S
C636 C635 1.410 . S
C636 C637 1.392 . S
C636 C639 1.511 . S
C637 C633 1.376 . S
C637 C636 1.392 . S
C637 H649 0.929 . S
C638 C634 1.531 1_565 S
C638 H650 0.960 . S
C638 H651 0.962 . S
C638 H652 0.960 1_565 S
C639 C636 1.511 . S
C639 H653 0.961 . S
C639 H654 0.961 . S
C639 H655 0.961 . S
C640 C641 1.370 . S
C640 C642 1.363 . S
C640 H656 0.931 . S
C641 C640 1.370 . S
C641 C645 1.408 . S
C642 C640 1.363 . S
C642 C643 1.370 . S
C642 C646 1.524 . S
C643 C635 1.503 1_565 S
C643 C642 1.370 . S
C643 C644 1.403 . S
C644 C643 1.403 . S
C644 C645 1.404 . S
C644 C647 1.539 1_565 S
C645 C641 1.408 . S
C645 C644 1.404 . S
C645 H657 0.930 . S
C646 C642 1.524 . S
C646 H658 0.956 . S
C646 H659 0.961 . S
C646 H660 0.961 . S
C647 C644 1.539 1_545 S
C647 H661 0.958 . S
C647 H662 0.961 . S
C647 H663 0.960 . S
H648 C632 0.931 . S
H649 C637 0.929 . S
H650 C638 0.960 . S
H651 C638 0.962 . S
H652 C638 0.960 1_545 S
H653 C639 0.961 . S
H654 C639 0.961 . S
H655 C639 0.961 . S
H656 C640 0.931 . S
H657 C645 0.930 . S
H658 C646 0.956 . S
H659 C646 0.961 . S
H660 C646 0.961 . S
H661 C647 0.958 . S
H662 C647 0.961 . S
H663 C647 0.960 . S
C664 C665 1.391 . S
C664 C666 1.394 . S
C664 H680 0.931 . S
C665 C664 1.391 . S
C665 C669 1.376 . S
C666 C664 1.394 . S
C666 C667 1.369 1_556 S
C666 C670 1.531 1_556 S
C667 C666 1.369 1_554 S
C667 C668 1.410 1_554 S
C667 C675 1.503 . S
C668 C667 1.410 1_556 S
C668 C669 1.392 . S
C668 C671 1.511 . S
C669 C665 1.376 . S
C669 C668 1.392 . S
C669 H681 0.929 . S
C670 C666 1.531 1_554 S
C670 H682 0.960 . S
C670 H683 0.962 . S
C670 H684 0.960 . S
C671 C668 1.511 . S
C671 H685 0.961 . S
C671 H686 0.961 1_556 S
C671 H687 0.961 . S
C672 C673 1.370 . S
C672 C674 1.363 . S
C672 H688 0.931 . S
C673 C672 1.370 . S
C673 C677 1.408 . S
C674 C672 1.363 . S
C674 C675 1.370 . S
C674 C678 1.524 . S
C675 C667 1.503 . S
C675 C674 1.370 . S
C675 C676 1.403 . S
C676 C675 1.403 . S
C676 C677 1.404 . S
C676 C679 1.539 . S
C677 C673 1.408 . S
C677 C676 1.404 . S
C677 H689 0.930 . S
C678 C674 1.524 . S
C678 H690 0.956 . S
C678 H691 0.961 . S
C678 H692 0.961 . S
C679 C676 1.539 . S
C679 H693 0.958 . S
C679 H694 0.961 . S
C679 H695 0.960 . S
H680 C664 0.931 . S
H681 C669 0.929 . S
H682 C670 0.960 . S
H683 C670 0.962 . S
H684 C670 0.960 . S
H685 C671 0.961 . S
H686 C671 0.961 1_554 S
H687 C671 0.961 . S
H688 C672 0.931 . S
H689 C677 0.930 . S
H690 C678 0.956 . S
H691 C678 0.961 . S
H692 C678 0.961 . S
H693 C679 0.958 . S
H694 C679 0.961 . S
H695 C679 0.960 . S
C696 C697 1.391 . S
C696 C698 1.394 . S
C696 H712 0.931 . S
C697 C696 1.391 . S
C697 C701 1.376 . S
C698 C696 1.394 . S
C698 C699 1.369 . S
C698 C702 1.531 . S
C699 C698 1.369 . S
C699 C700 1.410 . S
C699 C707 1.503 . S
C700 C699 1.410 . S
C700 C701 1.392 . S
C700 C703 1.511 . S
C701 C697 1.376 . S
C701 C700 1.392 . S
C701 H713 0.929 . S
C702 C698 1.531 . S
C702 H714 0.960 . S
C702 H715 0.962 . S
C702 H716 0.960 . S
C703 C700 1.511 . S
C703 H717 0.961 . S
C703 H718 0.961 . S
C703 H719 0.961 . S
C704 C705 1.370 . S
C704 C706 1.363 . S
C704 H720 0.931 . S
C705 C704 1.370 . S
C705 C709 1.408 . S
C706 C704 1.363 . S
C706 C707 1.370 . S
C706 C710 1.524 . S
C707 C699 1.503 . S
C707 C706 1.370 . S
C707 C708 1.403 . S
C708 C707 1.403 . S
C708 C709 1.404 . S
C708 C711 1.539 . S
C709 C705 1.408 . S
C709 C708 1.404 . S
C709 H721 0.930 . S
C710 C706 1.524 . S
C710 H722 0.956 . S
C710 H723 0.961 . S
C710 H724 0.961 . S
C711 C708 1.539 . S
C711 H725 0.958 . S
C711 H726 0.961 . S
C711 H727 0.960 . S
H712 C696 0.931 . S
H713 C701 0.929 . S
H714 C702 0.960 . S
H715 C702 0.962 . S
H716 C702 0.960 . S
H717 C703 0.961 . S
H718 C703 0.961 . S
H719 C703 0.961 . S
H720 C704 0.931 . S
H721 C709 0.930 . S
H722 C710 0.956 . S
H723 C710 0.961 . S
H724 C710 0.961 . S
H725 C711 0.958 . S
H726 C711 0.961 . S
H727 C711 0.960 . S
C728 C729 1.391 . S
C728 C730 1.394 . S
C728 H744 0.931 . S
C729 C728 1.391 . S
C729 C733 1.376 . S
C730 C728 1.394 . S
C730 C731 1.369 1_554 S
C730 C734 1.531 . S
C731 C730 1.369 1_556 S
C731 C732 1.410 1_556 S
C731 C739 1.503 . S
C732 C731 1.410 1_554 S
C732 C733 1.392 . S
C732 C735 1.511 1_554 S
C733 C729 1.376 . S
C733 C732 1.392 . S
C733 H745 0.929 . S
C734 C730 1.531 . S
C734 H746 0.960 1_554 S
C734 H747 0.962 . S
C734 H748 0.960 . S
C735 C732 1.511 1_556 S
C735 H749 0.961 . S
C735 H750 0.961 . S
C735 H751 0.961 . S
C736 C737 1.370 . S
C736 C738 1.363 . S
C736 H752 0.931 . S
C737 C736 1.370 . S
C737 C741 1.408 . S
C738 C736 1.363 . S
C738 C739 1.370 . S
C738 C742 1.524 . S
C739 C731 1.503 . S
C739 C738 1.370 . S
C739 C740 1.403 . S
C740 C739 1.403 . S
C740 C741 1.404 . S
C740 C743 1.539 . S
C741 C737 1.408 . S
C741 C740 1.404 . S
C741 H753 0.930 . S
C742 C738 1.524 . S
C742 H754 0.956 . S
C742 H755 0.961 . S
C742 H756 0.961 . S
C743 C740 1.539 . S
C743 H757 0.958 . S
C743 H758 0.961 . S
C743 H759 0.960 . S
H744 C728 0.931 . S
H745 C733 0.929 . S
H746 C734 0.960 1_556 S
H747 C734 0.962 . S
H748 C734 0.960 . S
H749 C735 0.961 . S
H750 C735 0.961 . S
H751 C735 0.961 . S
H752 C736 0.931 . S
H753 C741 0.930 . S
H754 C742 0.956 . S
H755 C742 0.961 . S
H756 C742 0.961 . S
H757 C743 0.958 . S
H758 C743 0.961 . S
H759 C743 0.960 . S
C760 C761 1.391 . S
C760 C762 1.394 . S
C760 H776 0.931 . S
C761 C760 1.391 . S
C761 C765 1.376 . S
C762 C760 1.394 . S
C762 C763 1.369 . S
C762 C766 1.531 . S
C763 C762 1.369 . S
C763 C764 1.410 . S
C763 C771 1.503 . S
C764 C763 1.410 . S
C764 C765 1.392 . S
C764 C767 1.511 . S
C765 C761 1.376 . S
C765 C764 1.392 . S
C765 H777 0.929 . S
C766 C762 1.531 . S
C766 H778 0.960 . S
C766 H779 0.962 . S
C766 H780 0.960 . S
C767 C764 1.511 . S
C767 H781 0.961 . S
C767 H782 0.961 . S
C767 H783 0.961 . S
C768 C769 1.370 . S
C768 C770 1.363 . S
C768 H784 0.931 . S
C769 C768 1.370 . S
C769 C773 1.408 . S
C770 C768 1.363 . S
C770 C771 1.370 . S
C770 C774 1.524 . S
C771 C763 1.503 . S
C771 C770 1.370 . S
C771 C772 1.403 . S
C772 C771 1.403 . S
C772 C773 1.404 . S
C772 C775 1.539 . S
C773 C769 1.408 . S
C773 C772 1.404 . S
C773 H785 0.930 . S
C774 C770 1.524 . S
C774 H786 0.956 . S
C774 H787 0.961 . S
C774 H788 0.961 . S
C775 C772 1.539 . S
C775 H789 0.958 . S
C775 H790 0.961 . S
C775 H791 0.960 . S
H776 C760 0.931 . S
H777 C765 0.929 . S
H778 C766 0.960 . S
H779 C766 0.962 . S
H780 C766 0.960 . S
H781 C767 0.961 . S
H782 C767 0.961 . S
H783 C767 0.961 . S
H784 C768 0.931 . S
H785 C773 0.930 . S
H786 C774 0.956 . S
H787 C774 0.961 . S
H788 C774 0.961 . S
H789 C775 0.958 . S
H790 C775 0.961 . S
H791 C775 0.960 . S
C792 C793 1.391 . S
C792 C794 1.394 . S
C792 H808 0.931 . S
C793 C792 1.391 . S
C793 C797 1.376 . S
C794 C792 1.394 . S
C794 C795 1.369 1_554 S
C794 C798 1.531 . S
C795 C794 1.369 1_556 S
C795 C796 1.410 1_556 S
C795 C803 1.503 . S
C796 C795 1.410 1_554 S
C796 C797 1.392 . S
C796 C799 1.511 1_554 S
C797 C793 1.376 . S
C797 C796 1.392 . S
C797 H809 0.929 . S
C798 C794 1.531 . S
C798 H810 0.960 1_554 S
C798 H811 0.962 . S
C798 H812 0.960 . S
C799 C796 1.511 1_556 S
C799 H813 0.961 . S
C799 H814 0.961 . S
C799 H815 0.961 . S
C800 C801 1.370 . S
C800 C802 1.363 . S
C800 H816 0.931 . S
C801 C800 1.370 . S
C801 C805 1.408 . S
C802 C800 1.363 . S
C802 C803 1.370 . S
C802 C806 1.524 . S
C803 C795 1.503 . S
C803 C802 1.370 . S
C803 C804 1.403 . S
C804 C803 1.403 . S
C804 C805 1.404 . S
C804 C807 1.539 . S
C805 C801 1.408 . S
C805 C804 1.404 . S
C805 H817 0.930 . S
C806 C802 1.524 . S
C806 H818 0.956 . S
C806 H819 0.961 . S
C806 H820 0.961 . S
C807 C804 1.539 . S
C807 H821 0.958 . S
C807 H822 0.961 . S
C807 H823 0.960 . S
H808 C792 0.931 . S
H809 C797 0.929 . S
H810 C798 0.960 1_556 S
H811 C798 0.962 . S
H812 C798 0.960 . S
H813 C799 0.961 . S
H814 C799 0.961 . S
H815 C799 0.961 . S
H816 C800 0.931 . S
H817 C805 0.930 . S
H818 C806 0.956 . S
H819 C806 0.961 . S
H820 C806 0.961 . S
H821 C807 0.958 . S
H822 C807 0.961 . S
H823 C807 0.960 . S
C824 C825 1.391 . S
C824 C826 1.394 . S
C824 H840 0.931 . S
C825 C824 1.391 . S
C825 C829 1.376 . S
C826 C824 1.394 . S
C826 C827 1.369 . S
C826 C830 1.531 . S
C827 C826 1.369 . S
C827 C828 1.410 . S
C827 C835 1.503 . S
C828 C827 1.410 . S
C828 C829 1.392 . S
C828 C831 1.511 . S
C829 C825 1.376 . S
C829 C828 1.392 . S
C829 H841 0.929 . S
C830 C826 1.531 . S
C830 H842 0.960 . S
C830 H843 0.962 . S
C830 H844 0.960 . S
C831 C828 1.511 . S
C831 H845 0.961 . S
C831 H846 0.961 . S
C831 H847 0.961 . S
C832 C833 1.370 . S
C832 C834 1.363 . S
C832 H848 0.931 . S
C833 C832 1.370 . S
C833 C837 1.408 . S
C834 C832 1.363 . S
C834 C835 1.370 . S
C834 C838 1.524 . S
C835 C827 1.503 . S
C835 C834 1.370 . S
C835 C836 1.403 . S
C836 C835 1.403 . S
C836 C837 1.404 . S
C836 C839 1.539 . S
C837 C833 1.408 . S
C837 C836 1.404 . S
C837 H849 0.930 . S
C838 C834 1.524 . S
C838 H850 0.956 . S
C838 H851 0.961 . S
C838 H852 0.961 . S
C839 C836 1.539 . S
C839 H853 0.958 . S
C839 H854 0.961 . S
C839 H855 0.960 . S
H840 C824 0.931 . S
H841 C829 0.929 . S
H842 C830 0.960 . S
H843 C830 0.962 . S
H844 C830 0.960 . S
H845 C831 0.961 . S
H846 C831 0.961 . S
H847 C831 0.961 . S
H848 C832 0.931 . S
H849 C837 0.930 . S
H850 C838 0.956 . S
H851 C838 0.961 . S
H852 C838 0.961 . S
H853 C839 0.958 . S
H854 C839 0.961 . S
H855 C839 0.960 . S
C856 C857 1.391 . S
C856 C858 1.394 . S
C856 H872 0.931 . S
C857 C856 1.391 . S
C857 C861 1.376 . S
C858 C856 1.394 . S
C858 C859 1.369 1_556 S
C858 C862 1.531 . S
C859 C858 1.369 1_554 S
C859 C860 1.410 1_554 S
C859 C867 1.503 . S
C860 C859 1.410 1_556 S
C860 C861 1.392 . S
C860 C863 1.511 1_556 S
C861 C857 1.376 . S
C861 C860 1.392 . S
C861 H873 0.929 . S
C862 C858 1.531 . S
C862 H874 0.960 1_556 S
C862 H875 0.962 . S
C862 H876 0.960 . S
C863 C860 1.511 1_554 S
C863 H877 0.961 . S
C863 H878 0.961 . S
C863 H879 0.961 . S
C864 C865 1.370 . S
C864 C866 1.363 . S
C864 H880 0.931 . S
C865 C864 1.370 . S
C865 C869 1.408 . S
C866 C864 1.363 . S
C866 C867 1.370 . S
C866 C870 1.524 . S
C867 C859 1.503 . S
C867 C866 1.370 . S
C867 C868 1.403 . S
C868 C867 1.403 . S
C868 C869 1.404 . S
C868 C871 1.539 . S
C869 C865 1.408 . S
C869 C868 1.404 . S
C869 H881 0.930 . S
C870 C866 1.524 . S
C870 H882 0.956 . S
C870 H883 0.961 . S
C870 H884 0.961 . S
C871 C868 1.539 . S
C871 H885 0.958 . S
C871 H886 0.961 . S
C871 H887 0.960 . S
H872 C856 0.931 . S
H873 C861 0.929 . S
H874 C862 0.960 1_554 S
H875 C862 0.962 . S
H876 C862 0.960 . S
H877 C863 0.961 . S
H878 C863 0.961 . S
H879 C863 0.961 . S
H880 C864 0.931 . S
H881 C869 0.930 . S
H882 C870 0.956 . S
H883 C870 0.961 . S
H884 C870 0.961 . S
H885 C871 0.958 . S
H886 C871 0.961 . S
H887 C871 0.960 . S
C888 C889 1.391 . S
C888 C890 1.394 . S
C888 H904 0.931 . S
C889 C888 1.391 . S
C889 C893 1.376 . S
C890 C888 1.394 . S
C890 C891 1.369 . S
C890 C894 1.531 . S
C891 C890 1.369 . S
C891 C892 1.410 . S
C891 C899 1.503 . S
C892 C891 1.410 . S
C892 C893 1.392 . S
C892 C895 1.511 . S
C893 C889 1.376 . S
C893 C892 1.392 . S
C893 H905 0.929 . S
C894 C890 1.531 . S
C894 H906 0.960 . S
C894 H907 0.962 . S
C894 H908 0.960 . S
C895 C892 1.511 . S
C895 H909 0.961 . S
C895 H910 0.961 . S
C895 H911 0.961 . S
C896 C897 1.370 . S
C896 C898 1.363 . S
C896 H912 0.931 . S
C897 C896 1.370 . S
C897 C901 1.408 . S
C898 C896 1.363 . S
C898 C899 1.370 . S
C898 C902 1.524 . S
C899 C891 1.503 . S
C899 C898 1.370 . S
C899 C900 1.403 . S
C900 C899 1.403 . S
C900 C901 1.404 . S
C900 C903 1.539 . S
C901 C897 1.408 . S
C901 C900 1.404 . S
C901 H913 0.930 . S
C902 C898 1.524 . S
C902 H914 0.956 . S
C902 H915 0.961 . S
C902 H916 0.961 . S
C903 C900 1.539 . S
C903 H917 0.958 . S
C903 H918 0.961 . S
C903 H919 0.960 . S
H904 C888 0.931 . S
H905 C893 0.929 . S
H906 C894 0.960 . S
H907 C894 0.962 . S
H908 C894 0.960 . S
H909 C895 0.961 . S
H910 C895 0.961 . S
H911 C895 0.961 . S
H912 C896 0.931 . S
H913 C901 0.930 . S
H914 C902 0.956 . S
H915 C902 0.961 . S
H916 C902 0.961 . S
H917 C903 0.958 . S
H918 C903 0.961 . S
H919 C903 0.960 . S
C920 C921 1.391 . S
C920 C922 1.394 . S
C920 H936 0.931 . S
C921 C920 1.391 . S
C921 C925 1.376 . S
C922 C920 1.394 . S
C922 C923 1.369 . S
C922 C926 1.531 . S
C923 C922 1.369 . S
C923 C924 1.410 . S
C923 C931 1.503 . S
C924 C923 1.410 . S
C924 C925 1.392 . S
C924 C927 1.511 . S
C925 C921 1.376 . S
C925 C924 1.392 . S
C925 H937 0.929 . S
C926 C922 1.531 . S
C926 H938 0.960 . S
C926 H939 0.962 . S
C926 H940 0.960 . S
C927 C924 1.511 . S
C927 H941 0.961 . S
C927 H942 0.961 . S
C927 H943 0.961 . S
C928 C929 1.370 . S
C928 C930 1.363 . S
C928 H944 0.931 . S
C929 C928 1.370 . S
C929 C933 1.408 . S
C930 C928 1.363 . S
C930 C931 1.370 . S
C930 C934 1.524 . S
C931 C923 1.503 . S
C931 C930 1.370 . S
C931 C932 1.403 . S
C932 C931 1.403 . S
C932 C933 1.404 . S
C932 C935 1.539 . S
C933 C929 1.408 . S
C933 C932 1.404 . S
C933 H945 0.930 . S
C934 C930 1.524 . S
C934 H946 0.956 . S
C934 H947 0.961 . S
C934 H948 0.961 . S
C935 C932 1.539 . S
C935 H949 0.958 . S
C935 H950 0.961 . S
C935 H951 0.960 . S
H936 C920 0.931 . S
H937 C925 0.929 . S
H938 C926 0.960 . S
H939 C926 0.962 . S
H940 C926 0.960 . S
H941 C927 0.961 . S
H942 C927 0.961 . S
H943 C927 0.961 . S
H944 C928 0.931 . S
H945 C933 0.930 . S
H946 C934 0.956 . S
H947 C934 0.961 . S
H948 C934 0.961 . S
H949 C935 0.958 . S
H950 C935 0.961 . S
H951 C935 0.960 . S
C952 C953 1.391 . S
C952 C954 1.394 . S
C952 H968 0.931 . S
C953 C952 1.391 . S
C953 C957 1.376 . S
C954 C952 1.394 . S
C954 C955 1.369 . S
C954 C958 1.531 . S
C955 C954 1.369 . S
C955 C956 1.410 . S
C955 C963 1.503 . S
C956 C955 1.410 . S
C956 C957 1.392 . S
C956 C959 1.511 . S
C957 C953 1.376 . S
C957 C956 1.392 . S
C957 H969 0.929 . S
C958 C954 1.531 . S
C958 H970 0.960 . S
C958 H971 0.962 . S
C958 H972 0.960 . S
C959 C956 1.511 . S
C959 H973 0.961 . S
C959 H974 0.961 . S
C959 H975 0.961 . S
C960 C961 1.370 . S
C960 C962 1.363 . S
C960 H976 0.931 . S
C961 C960 1.370 . S
C961 C965 1.408 . S
C962 C960 1.363 . S
C962 C963 1.370 . S
C962 C966 1.524 . S
C963 C955 1.503 . S
C963 C962 1.370 . S
C963 C964 1.403 . S
C964 C963 1.403 . S
C964 C965 1.404 . S
C964 C967 1.539 . S
C965 C961 1.408 . S
C965 C964 1.404 . S
C965 H977 0.930 . S
C966 C962 1.524 . S
C966 H978 0.956 . S
C966 H979 0.961 . S
C966 H980 0.961 . S
C967 C964 1.539 . S
C967 H981 0.958 . S
C967 H982 0.961 . S
C967 H983 0.960 . S
H968 C952 0.931 . S
H969 C957 0.929 . S
H970 C958 0.960 . S
H971 C958 0.962 . S
H972 C958 0.960 . S
H973 C959 0.961 . S
H974 C959 0.961 . S
H975 C959 0.961 . S
H976 C960 0.931 . S
H977 C965 0.930 . S
H978 C966 0.956 . S
H979 C966 0.961 . S
H980 C966 0.961 . S
H981 C967 0.958 . S
H982 C967 0.961 . S
H983 C967 0.960 . S
C984 C985 1.391 . S
C984 C986 1.394 . S
C984 H1000 0.931 . S
C985 C984 1.391 . S
C985 C989 1.376 . S
C986 C984 1.394 . S
C986 C987 1.369 . S
C986 C990 1.531 . S
C987 C986 1.369 . S
C987 C988 1.410 . S
C987 C995 1.503 . S
C988 C987 1.410 . S
C988 C989 1.392 . S
C988 C991 1.511 . S
C989 C985 1.376 . S
C989 C988 1.392 . S
C989 H1001 0.929 . S
C990 C986 1.531 . S
C990 H1002 0.960 . S
C990 H1003 0.962 . S
C990 H1004 0.960 . S
C991 C988 1.511 . S
C991 H1005 0.961 . S
C991 H1006 0.961 . S
C991 H1007 0.961 . S
C992 C993 1.370 . S
C992 C994 1.363 . S
C992 H1008 0.931 . S
C993 C992 1.370 . S
C993 C997 1.408 . S
C994 C992 1.363 . S
C994 C995 1.370 . S
C994 C998 1.524 . S
C995 C987 1.503 . S
C995 C994 1.370 . S
C995 C996 1.403 . S
C996 C995 1.403 . S
C996 C997 1.404 . S
C996 C999 1.539 . S
C997 C993 1.408 . S
C997 C996 1.404 . S
C997 H1009 0.930 . S
C998 C994 1.524 . S
C998 H1010 0.956 . S
C998 H1011 0.961 . S
C998 H1012 0.961 . S
C999 C996 1.539 . S
C999 H1013 0.958 . S
C999 H1014 0.961 . S
C999 H1015 0.960 . S
H1000 C984 0.931 . S
H1001 C989 0.929 . S
H1002 C990 0.960 . S
H1003 C990 0.962 . S
H1004 C990 0.960 . S
H1005 C991 0.961 . S
H1006 C991 0.961 . S
H1007 C991 0.961 . S
H1008 C992 0.931 . S
H1009 C997 0.930 . S
H1010 C998 0.956 . S
H1011 C998 0.961 . S
H1012 C998 0.961 . S
H1013 C999 0.958 . S
H1014 C999 0.961 . S
H1015 C999 0.960 . S
C1016 C1017 1.391 . S
C1016 C1018 1.394 . S
C1016 H1032 0.931 . S
C1017 C1016 1.391 . S
C1017 C1021 1.376 . S
C1018 C1016 1.394 . S
C1018 C1019 1.369 . S
C1018 C1022 1.531 . S
C1019 C1018 1.369 . S
C1019 C1020 1.410 . S
C1019 C1027 1.503 . S
C1020 C1019 1.410 . S
C1020 C1021 1.392 . S
C1020 C1023 1.511 . S
C1021 C1017 1.376 . S
C1021 C1020 1.392 . S
C1021 H1033 0.929 . S
C1022 C1018 1.531 . S
C1022 H1034 0.960 . S
C1022 H1035 0.962 . S
C1022 H1036 0.960 . S
C1023 C1020 1.511 . S
C1023 H1037 0.961 . S
C1023 H1038 0.961 . S
C1023 H1039 0.961 . S
C1024 C1025 1.370 . S
C1024 C1026 1.363 . S
C1024 H1040 0.931 . S
C1025 C1024 1.370 . S
C1025 C1029 1.408 . S
C1026 C1024 1.363 . S
C1026 C1027 1.370 . S
C1026 C1030 1.524 . S
C1027 C1019 1.503 . S
C1027 C1026 1.370 . S
C1027 C1028 1.403 . S
C1028 C1027 1.403 . S
C1028 C1029 1.404 . S
C1028 C1031 1.539 . S
C1029 C1025 1.408 . S
C1029 C1028 1.404 . S
C1029 H1041 0.930 . S
C1030 C1026 1.524 . S
C1030 H1042 0.956 . S
C1030 H1043 0.961 . S
C1030 H1044 0.961 . S
C1031 C1028 1.539 . S
C1031 H1045 0.958 . S
C1031 H1046 0.961 . S
C1031 H1047 0.960 . S
H1032 C1016 0.931 . S
H1033 C1021 0.929 . S
H1034 C1022 0.960 . S
H1035 C1022 0.962 . S
H1036 C1022 0.960 . S
H1037 C1023 0.961 . S
H1038 C1023 0.961 . S
H1039 C1023 0.961 . S
H1040 C1024 0.931 . S
H1041 C1029 0.930 . S
H1042 C1030 0.956 . S
H1043 C1030 0.961 . S
H1044 C1030 0.961 . S
H1045 C1031 0.958 . S
H1046 C1031 0.961 . S
H1047 C1031 0.960 . S
C1048 C1049 1.391 . S
C1048 C1050 1.394 . S
C1048 H1064 0.931 . S
C1049 C1048 1.391 . S
C1049 C1053 1.376 . S
C1050 C1048 1.394 . S
C1050 C1051 1.369 . S
C1050 C1054 1.531 . S
C1051 C1050 1.369 . S
C1051 C1052 1.410 . S
C1051 C1059 1.503 . S
C1052 C1051 1.410 . S
C1052 C1053 1.392 . S
C1052 C1055 1.511 . S
C1053 C1049 1.376 . S
C1053 C1052 1.392 . S
C1053 H1065 0.929 . S
C1054 C1050 1.531 . S
C1054 H1066 0.960 . S
C1054 H1067 0.962 . S
C1054 H1068 0.960 . S
C1055 C1052 1.511 . S
C1055 H1069 0.961 . S
C1055 H1070 0.961 . S
C1055 H1071 0.961 . S
C1056 C1057 1.370 . S
C1056 C1058 1.363 . S
C1056 H1072 0.931 . S
C1057 C1056 1.370 . S
C1057 C1061 1.408 . S
C1058 C1056 1.363 . S
C1058 C1059 1.370 . S
C1058 C1062 1.524 . S
C1059 C1051 1.503 . S
C1059 C1058 1.370 . S
C1059 C1060 1.403 . S
C1060 C1059 1.403 . S
C1060 C1061 1.404 . S
C1060 C1063 1.539 . S
C1061 C1057 1.408 . S
C1061 C1060 1.404 . S
C1061 H1073 0.930 . S
C1062 C1058 1.524 . S
C1062 H1074 0.956 . S
C1062 H1075 0.961 . S
C1062 H1076 0.961 . S
C1063 C1060 1.539 . S
C1063 H1077 0.958 . S
C1063 H1078 0.961 . S
C1063 H1079 0.960 . S
H1064 C1048 0.931 . S
H1065 C1053 0.929 . S
H1066 C1054 0.960 . S
H1067 C1054 0.962 . S
H1068 C1054 0.960 . S
H1069 C1055 0.961 . S
H1070 C1055 0.961 . S
H1071 C1055 0.961 . S
H1072 C1056 0.931 . S
H1073 C1061 0.930 . S
H1074 C1062 0.956 . S
H1075 C1062 0.961 . S
H1076 C1062 0.961 . S
H1077 C1063 0.958 . S
H1078 C1063 0.961 . S
H1079 C1063 0.960 . S
C1080 C1081 1.391 . S
C1080 C1082 1.394 . S
C1080 H1096 0.931 . S
C1081 C1080 1.391 . S
C1081 C1085 1.376 . S
C1082 C1080 1.394 . S
C1082 C1083 1.369 . S
C1082 C1086 1.531 . S
C1083 C1082 1.369 . S
C1083 C1084 1.410 . S
C1083 C1091 1.503 . S
C1084 C1083 1.410 . S
C1084 C1085 1.392 . S
C1084 C1087 1.511 . S
C1085 C1081 1.376 . S
C1085 C1084 1.392 . S
C1085 H1097 0.929 . S
C1086 C1082 1.531 . S
C1086 H1098 0.960 . S
C1086 H1099 0.962 . S
C1086 H1100 0.960 . S
C1087 C1084 1.511 . S
C1087 H1101 0.961 . S
C1087 H1102 0.961 . S
C1087 H1103 0.961 . S
C1088 C1089 1.370 . S
C1088 C1090 1.363 . S
C1088 H1104 0.931 . S
C1089 C1088 1.370 . S
C1089 C1093 1.408 . S
C1090 C1088 1.363 . S
C1090 C1091 1.370 . S
C1090 C1094 1.524 . S
C1091 C1083 1.503 . S
C1091 C1090 1.370 . S
C1091 C1092 1.403 . S
C1092 C1091 1.403 . S
C1092 C1093 1.404 . S
C1092 C1095 1.539 . S
C1093 C1089 1.408 . S
C1093 C1092 1.404 . S
C1093 H1105 0.930 . S
C1094 C1090 1.524 . S
C1094 H1106 0.956 . S
C1094 H1107 0.961 . S
C1094 H1108 0.961 . S
C1095 C1092 1.539 . S
C1095 H1109 0.958 . S
C1095 H1110 0.961 . S
C1095 H1111 0.960 . S
H1096 C1080 0.931 . S
H1097 C1085 0.929 . S
H1098 C1086 0.960 . S
H1099 C1086 0.962 . S
H1100 C1086 0.960 . S
H1101 C1087 0.961 . S
H1102 C1087 0.961 . S
H1103 C1087 0.961 . S
H1104 C1088 0.931 . S
H1105 C1093 0.930 . S
H1106 C1094 0.956 . S
H1107 C1094 0.961 . S
H1108 C1094 0.961 . S
H1109 C1095 0.958 . S
H1110 C1095 0.961 . S
H1111 C1095 0.960 . S
C1112 C1113 1.391 . S
C1112 C1114 1.394 . S
C1112 H1128 0.931 . S
C1113 C1112 1.391 . S
C1113 C1117 1.376 . S
C1114 C1112 1.394 . S
C1114 C1115 1.369 . S
C1114 C1118 1.531 . S
C1115 C1114 1.369 . S
C1115 C1116 1.410 . S
C1115 C1123 1.503 . S
C1116 C1115 1.410 . S
C1116 C1117 1.392 . S
C1116 C1119 1.511 . S
C1117 C1113 1.376 . S
C1117 C1116 1.392 . S
C1117 H1129 0.929 . S
C1118 C1114 1.531 . S
C1118 H1130 0.960 . S
C1118 H1131 0.962 . S
C1118 H1132 0.960 . S
C1119 C1116 1.511 . S
C1119 H1133 0.961 . S
C1119 H1134 0.961 . S
C1119 H1135 0.961 . S
C1120 C1121 1.370 . S
C1120 C1122 1.363 . S
C1120 H1136 0.931 . S
C1121 C1120 1.370 . S
C1121 C1125 1.408 . S
C1122 C1120 1.363 . S
C1122 C1123 1.370 . S
C1122 C1126 1.524 . S
C1123 C1115 1.503 . S
C1123 C1122 1.370 . S
C1123 C1124 1.403 . S
C1124 C1123 1.403 . S
C1124 C1125 1.404 . S
C1124 C1127 1.539 . S
C1125 C1121 1.408 . S
C1125 C1124 1.404 . S
C1125 H1137 0.930 . S
C1126 C1122 1.524 . S
C1126 H1138 0.956 . S
C1126 H1139 0.961 . S
C1126 H1140 0.961 . S
C1127 C1124 1.539 . S
C1127 H1141 0.958 . S
C1127 H1142 0.961 . S
C1127 H1143 0.960 . S
H1128 C1112 0.931 . S
H1129 C1117 0.929 . S
H1130 C1118 0.960 . S
H1131 C1118 0.962 . S
H1132 C1118 0.960 . S
H1133 C1119 0.961 . S
H1134 C1119 0.961 . S
H1135 C1119 0.961 . S
H1136 C1120 0.931 . S
H1137 C1125 0.930 . S
H1138 C1126 0.956 . S
H1139 C1126 0.961 . S
H1140 C1126 0.961 . S
H1141 C1127 0.958 . S
H1142 C1127 0.961 . S
H1143 C1127 0.960 . S
C1144 C1145 1.391 . S
C1144 C1146 1.394 . S
C1144 H1160 0.931 . S
C1145 C1144 1.391 . S
C1145 C1149 1.376 . S
C1146 C1144 1.394 . S
C1146 C1147 1.369 . S
C1146 C1150 1.531 . S
C1147 C1146 1.369 . S
C1147 C1148 1.410 . S
C1147 C1155 1.503 . S
C1148 C1147 1.410 . S
C1148 C1149 1.392 . S
C1148 C1151 1.511 . S
C1149 C1145 1.376 . S
C1149 C1148 1.392 . S
C1149 H1161 0.929 . S
C1150 C1146 1.531 . S
C1150 H1162 0.960 . S
C1150 H1163 0.962 . S
C1150 H1164 0.960 . S
C1151 C1148 1.511 . S
C1151 H1165 0.961 . S
C1151 H1166 0.961 . S
C1151 H1167 0.961 . S
C1152 C1153 1.370 . S
C1152 C1154 1.363 . S
C1152 H1168 0.931 . S
C1153 C1152 1.370 . S
C1153 C1157 1.408 . S
C1154 C1152 1.363 . S
C1154 C1155 1.370 . S
C1154 C1158 1.524 . S
C1155 C1147 1.503 . S
C1155 C1154 1.370 . S
C1155 C1156 1.403 . S
C1156 C1155 1.403 . S
C1156 C1157 1.404 . S
C1156 C1159 1.539 . S
C1157 C1153 1.408 . S
C1157 C1156 1.404 . S
C1157 H1169 0.930 . S
C1158 C1154 1.524 . S
C1158 H1170 0.956 . S
C1158 H1171 0.961 . S
C1158 H1172 0.961 . S
C1159 C1156 1.539 . S
C1159 H1173 0.958 . S
C1159 H1174 0.961 . S
C1159 H1175 0.960 . S
H1160 C1144 0.931 . S
H1161 C1149 0.929 . S
H1162 C1150 0.960 . S
H1163 C1150 0.962 . S
H1164 C1150 0.960 . S
H1165 C1151 0.961 . S
H1166 C1151 0.961 . S
H1167 C1151 0.961 . S
H1168 C1152 0.931 . S
H1169 C1157 0.930 . S
H1170 C1158 0.956 . S
H1171 C1158 0.961 . S
H1172 C1158 0.961 . S
H1173 C1159 0.958 . S
H1174 C1159 0.961 . S
H1175 C1159 0.960 . S
C409 C58 1.463 . S
C417 C128 1.443 . S
C449 C212 1.443 . S
C441 C68 1.464 . S
C481 C211 1.456 . S
C473 C40 1.462 . S
C505 C50 1.464 . S
C513 C127 1.458 . S
C545 C308 1.459 . S
C537 C23 1.474 . S
C577 C392 1.456 . S
C569 C32 1.473 . S
C601 C5 1.458 . S
C609 C391 1.461 . S
C633 C14 1.452 . S
C641 C307 1.463 . S
C673 C130 1.348 . S
C665 C13 1.492 . S
C705 C214 1.351 . S
C697 C4 1.489 . S
C737 C226 1.397 . S
C729 C31 1.523 . S
C769 C142 1.393 . S
C761 C22 1.523 . S
C801 C310 1.328 . S
C793 C49 1.497 . S
C825 C41 1.493 . S
C833 C394 1.347 . S
C865 C382 1.379 . S
C857 C67 1.520 . S
C889 C59 1.520 . S
C897 C298 1.380 . S
C929 C139 1.530 . S
C921 C7 1.534 . S
C961 C223 1.530 . S
C953 C16 1.534 . S
C985 C25 1.520 . S
C993 C224 1.513 . S
C1025 C140 1.499 . S
C1017 C34 1.514 . S
C1057 C295 1.530 . S
C1049 C43 1.527 . S
C1081 C52 1.526 . S
C1089 C379 1.532 . S
C1113 C61 1.519 . S
C1121 C380 1.502 . S
C1145 C70 1.527 . S
C1153 C296 1.517 . S
