# Generated by pormake.
# Topology pyr, (3,6)-cn, num edge types: 1
# Building blocks:
#     Node 0, Type 0, BuildingBlock: BETDIP_clean_linker_0, # of connection points: 3
#     Node 1, Type 0, BuildingBlock: BETDIP_clean_linker_0, # of connection points: 3
#     Node 2, Type 0, BuildingBlock: BETDIP_clean_linker_0, # of connection points: 3
#     Node 3, Type 0, BuildingBlock: BETDIP_clean_linker_0, # of connection points: 3
#     Node 4, Type 0, BuildingBlock: BETDIP_clean_linker_0, # of connection points: 3
#     Node 5, Type 0, BuildingBlock: BETDIP_clean_linker_0, # of connection points: 3
#     Node 6, Type 0, BuildingBlock: BETDIP_clean_linker_0, # of connection points: 3
#     Node 7, Type 0, BuildingBlock: BETDIP_clean_linker_0, # of connection points: 3
#     Node 8, Type 1, BuildingBlock: BETGAK_clean_sbu_0, # of connection points: 6
#     Node 9, Type 1, BuildingBlock: BETGAK_clean_sbu_0, # of connection points: 6
#     Node 10, Type 1, BuildingBlock: BETGAK_clean_sbu_0, # of connection points: 6
#     Node 11, Type 1, BuildingBlock: BETGAK_clean_sbu_0, # of connection points: 6
#     Edge 12, Type (0, 1), BuildingBlock: OJICUG_clean_linker_0, # of connection points: 2
#     Edge 13, Type (0, 1), BuildingBlock: OJICUG_clean_linker_0, # of connection points: 2
#     Edge 14, Type (0, 1), BuildingBlock: OJICUG_clean_linker_0, # of connection points: 2
#     Edge 15, Type (0, 1), BuildingBlock: OJICUG_clean_linker_0, # of connection points: 2
#     Edge 16, Type (0, 1), BuildingBlock: OJICUG_clean_linker_0, # of connection points: 2
#     Edge 17, Type (0, 1), BuildingBlock: OJICUG_clean_linker_0, # of connection points: 2
#     Edge 18, Type (0, 1), BuildingBlock: OJICUG_clean_linker_0, # of connection points: 2
#     Edge 19, Type (0, 1), BuildingBlock: OJICUG_clean_linker_0, # of connection points: 2
#     Edge 20, Type (0, 1), BuildingBlock: OJICUG_clean_linker_0, # of connection points: 2
#     Edge 21, Type (0, 1), BuildingBlock: OJICUG_clean_linker_0, # of connection points: 2
#     Edge 22, Type (0, 1), BuildingBlock: OJICUG_clean_linker_0, # of connection points: 2
#     Edge 23, Type (0, 1), BuildingBlock: OJICUG_clean_linker_0, # of connection points: 2
#     Edge 24, Type (0, 1), BuildingBlock: OJICUG_clean_linker_0, # of connection points: 2
#     Edge 25, Type (0, 1), BuildingBlock: OJICUG_clean_linker_0, # of connection points: 2
#     Edge 26, Type (0, 1), BuildingBlock: OJICUG_clean_linker_0, # of connection points: 2
#     Edge 27, Type (0, 1), BuildingBlock: OJICUG_clean_linker_0, # of connection points: 2
#     Edge 28, Type (0, 1), BuildingBlock: OJICUG_clean_linker_0, # of connection points: 2
#     Edge 29, Type (0, 1), BuildingBlock: OJICUG_clean_linker_0, # of connection points: 2
#     Edge 30, Type (0, 1), BuildingBlock: OJICUG_clean_linker_0, # of connection points: 2
#     Edge 31, Type (0, 1), BuildingBlock: OJICUG_clean_linker_0, # of connection points: 2
#     Edge 32, Type (0, 1), BuildingBlock: OJICUG_clean_linker_0, # of connection points: 2
#     Edge 33, Type (0, 1), BuildingBlock: OJICUG_clean_linker_0, # of connection points: 2
#     Edge 34, Type (0, 1), BuildingBlock: OJICUG_clean_linker_0, # of connection points: 2
#     Edge 35, Type (0, 1), BuildingBlock: OJICUG_clean_linker_0, # of connection points: 2
# Relax obj value: 0.195
# Max RMSD: 0.180
# Mean RMSD: 0.138
data_MOF--net-pyr--node1-BETGAK_clean_sbu_0--node2-BETDIP_clean_linker_0--edge1-OJICUG_clean_linker_0
_symmetry_space_group_name_H-M    P1
_symmetry_Int_Tables_number       1
_symmetry_cell_setting            triclinic
loop_
_symmetry_equiv_pos_as_xyz
'x, y, z'
_cell_length_a     28.021258
_cell_length_b     28.878609
_cell_length_c     27.125174
_cell_angle_alpha  91.590911
_cell_angle_beta   86.807603
_cell_angle_gamma 109.45102
loop_
_atom_site_label
_atom_site_type_symbol
_atom_site_fract_x
_atom_site_fract_y
_atom_site_fract_z
_atom_type_partial_charge
H0 H 0.38079 0.37509 0.28412 0.0
H1 H 0.45635 0.33644 0.15695 0.0
H2 H 0.46557 0.27659 0.29772 0.0
H3 H 0.40558 0.45215 0.24151 0.0
C4 C 0.38791 0.43242 0.20895 0.0
C5 C 0.40751 0.35808 0.26913 0.0
C6 C 0.42094 0.32493 0.29784 0.0
C7 C 0.42256 0.36445 0.21886 0.0
C8 C 0.44937 0.33563 0.19668 0.0
C9 C 0.46462 0.30371 0.22531 0.0
C10 C 0.45388 0.30171 0.27631 0.0
N11 N 0.40418 0.39384 0.18898 0.0
H12 H 0.11901 0.85277 0.77478 0.0
H13 H 0.19491 0.80943 0.6489 0.0
H14 H 0.25902 0.8242 0.78991 0.0
H15 H 0.16134 0.85673 0.6067 0.0
C16 C 0.13999 0.87147 0.63367 0.0
C17 C 0.14918 0.84017 0.75961 0.0
C18 C 0.18759 0.83798 0.78961 0.0
C19 C 0.15252 0.83159 0.70875 0.0
C20 C 0.19204 0.81649 0.68816 0.0
C21 C 0.22981 0.81329 0.71785 0.0
C22 C 0.22765 0.82409 0.7682 0.0
N23 N 0.12091 0.8464 0.6785 0.0
H24 H 0.75479 0.49183 0.88591 0.0
H25 H 0.62432 0.36147 0.87445 0.0
H26 H 0.73595 0.3681 0.97963 0.0
H27 H 0.62409 0.39466 0.79493 0.0
C28 C 0.63618 0.43422 0.80018 0.0
C29 C 0.73354 0.45502 0.89816 0.0
C30 C 0.75269 0.43316 0.93524 0.0
C31 C 0.68766 0.42983 0.8753 0.0
C32 C 0.65989 0.38113 0.8908 0.0
C33 C 0.67766 0.35798 0.92815 0.0
C34 C 0.72372 0.38476 0.9497 0.0
N35 N 0.67043 0.45561 0.83869 0.0
H36 H 0.80634 0.66144 0.39162 0.0
H37 H 0.94058 0.79006 0.37975 0.0
H38 H 0.82371 0.78246 0.49225 0.0
H39 H 0.96063 0.75327 0.31039 0.0
C40 C 0.93531 0.71583 0.30619 0.0
C41 C 0.82808 0.69794 0.4042 0.0
C42 C 0.80981 0.71861 0.44561 0.0
C43 C 0.8749 0.72304 0.37945 0.0
C44 C 0.904 0.77044 0.39714 0.0
C45 C 0.88615 0.79187 0.43895 0.0
C46 C 0.83869 0.76574 0.46159 0.0
N47 N 0.89104 0.69798 0.33853 0.0
H48 H 0.60237 0.81316 0.99306 0.0
H49 H 0.68365 0.77907 0.86754 0.0
H50 H 0.59692 0.87549 0.85247 0.0
H51 H 0.66035 0.69879 0.91656 0.0
C52 C 0.68081 0.72486 0.94408 0.0
C53 C 0.61051 0.81475 0.95349 0.0
C54 C 0.59473 0.84624 0.9247 0.0
C55 C 0.63996 0.78806 0.93205 0.0
C56 C 0.65578 0.79496 0.88204 0.0
C57 C 0.64216 0.82789 0.85324 0.0
C58 C 0.60783 0.84992 0.87402 0.0
N59 N 0.66083 0.76144 0.96277 0.0
H60 H 0.89564 0.24999 0.41543 0.0
H61 H 0.83114 0.3237 0.52622 0.0
H62 H 0.76281 0.28561 0.38611 0.0
H63 H 0.84155 0.2388 0.55896 0.0
C64 C 0.87982 0.2445 0.54379 0.0
C65 C 0.86804 0.26766 0.42641 0.0
C66 C 0.83007 0.26679 0.39485 0.0
C67 C 0.86861 0.28876 0.47343 0.0
C68 C 0.83147 0.30914 0.48898 0.0
C69 C 0.79312 0.30781 0.45761 0.0
C70 C 0.79281 0.28707 0.41038 0.0
N71 N 0.9008 0.28101 0.50772 0.0
H72 H 0.32328 0.68377 0.2542 0.0
H73 H 0.45182 0.81489 0.26918 0.0
H74 H 0.34752 0.80311 0.15422 0.0
H75 H 0.44927 0.78016 0.35016 0.0
C76 C 0.437 0.74066 0.3444 0.0
C77 C 0.34518 0.72023 0.24145 0.0
C78 C 0.32803 0.74097 0.20221 0.0
C79 C 0.38979 0.74595 0.26586 0.0
C80 C 0.41795 0.79477 0.25041 0.0
C81 C 0.40258 0.81703 0.21024 0.0
C82 C 0.35815 0.78862 0.18656 0.0
N83 N 0.40516 0.72016 0.30391 0.0
H84 H 0.12564 0.35169 0.77379 0.0
H85 H 0.24936 0.4894 0.76212 0.0
H86 H 0.2451 0.37182 0.661 0.0
H87 H 0.19501 0.51891 0.80229 0.0
C88 C 0.17062 0.49175 0.82766 0.0
C89 C 0.16094 0.37427 0.75593 0.0
C90 C 0.18184 0.35549 0.71433 0.0
C91 C 0.1842 0.42287 0.77366 0.0
C92 C 0.23012 0.45245 0.74932 0.0
C93 C 0.25151 0.43457 0.70769 0.0
C94 C 0.22745 0.38607 0.69159 0.0
N95 N 0.1604 0.44079 0.81522 0.0
La96 La 0.06849 0.08973 0.53277 0.0
La97 La 1.00763 1.05262 0.62537 0.0
C98 C 0.10761 0.12396 0.4512 0.0
C99 C 0.15779 0.16016 0.44161 0.0
C100 C 0.19915 0.15806 0.46743 0.0
C101 C 0.24687 0.1925 0.45876 0.0
C102 C 0.25387 0.22972 0.42444 0.0
C103 C 0.21213 0.2335 0.40051 0.0
C104 C 0.16419 0.19876 0.4091 0.0
C105 C 0.11291 1.05141 0.59617 0.0
C106 C 0.09106 0.15972 0.62522 0.0
C107 C 0.96666 1.0197 0.70684 0.0
C108 C 0.91438 0.9877 0.71687 0.0
C109 C 0.87425 0.99657 0.69435 0.0
C110 C 0.82475 0.96531 0.70266 0.0
C111 C 0.81462 0.92457 0.73329 0.0
C112 C 0.85489 0.9146 0.75424 0.0
C113 C 0.90454 0.94607 0.74606 0.0
C114 C 0.96269 0.09094 0.56281 0.0
C115 C 0.98572 0.98306 0.53215 0.0
O116 O 0.10723 0.08132 0.46681 0.0
O117 O 0.07568 0.1406 0.47674 0.0
O118 O 0.13699 0.08654 0.56625 0.0
O119 O 0.06731 1.03727 0.58624 0.0
O120 O 0.09398 0.15703 0.57646 0.0
O121 O 0.06559 0.12046 0.65192 0.0
O122 O 0.97203 1.06403 0.6922 0.0
O123 O 0.99512 0.99956 0.68035 0.0
O124 O 0.93956 1.05362 0.59051 0.0
O125 O 1.00852 0.10556 0.5725 0.0
O126 O 0.98313 0.98533 0.58102 0.0
O127 O 1.0109 1.02245 0.50576 0.0
H128 H 0.1951 0.1291 0.49339 0.0
H129 H 0.27879 0.18883 0.47711 0.0
H130 H 0.21712 0.26154 0.37311 0.0
H131 H 0.13243 0.20139 0.3897 0.0
H132 H 0.88083 1.02803 0.67091 0.0
H133 H 0.79416 0.97372 0.6864 0.0
H134 H 0.84774 0.88379 0.77878 0.0
H135 H 0.93515 0.93827 0.76294 0.0
La136 La 0.58522 0.09284 0.08123 0.0
La137 La 0.48974 0.08146 1.0429 0.0
C138 C 0.67865 0.1248 0.09409 0.0
C139 C 0.71143 0.13163 0.13515 0.0
C140 C 0.69125 0.11448 0.18221 0.0
C141 C 0.72105 0.12951 0.2229 0.0
C142 C 0.7709 0.16212 0.21665 0.0
C143 C 0.79196 0.17609 0.169 0.0
C144 C 0.76225 0.16081 0.12835 0.0
C145 C 0.52141 1.01357 0.12839 0.0
C146 C 0.51202 0.1393 0.13862 0.0
C147 C 0.4076 0.06667 1.0027 0.0
C148 C 0.36395 1.02923 0.98316 0.0
C149 C 0.34525 1.03979 0.93979 0.0
C150 C 0.30349 1.00552 0.91957 0.0
C151 C 0.2793 0.96014 0.94279 0.0
C152 C 0.29773 0.95001 0.98698 0.0
C153 C 0.34007 0.98438 1.00703 0.0
C154 C 0.56066 0.1678 1.01943 0.0
C155 C 0.54972 1.01569 1.00048 0.0
O156 O 0.65415 0.07937 0.08175 0.0
O157 O 0.64982 0.15243 0.09583 0.0
O158 O 0.56879 1.03454 0.13622 0.0
O159 O 0.50954 1.03884 0.09651 0.0
O160 O 0.5599 0.1441 0.12784 0.0
O161 O 0.47577 0.10591 0.11604 0.0
O162 O 0.45089 0.07418 0.97789 0.0
O163 O 0.41178 0.06798 1.05055 0.0
O164 O 0.51502 0.16125 1.03547 0.0
O165 O 0.56633 0.12588 1.01803 0.0
O166 O 0.5037 1.01628 1.01185 0.0
O167 O 0.58903 1.05203 1.01443 0.0
H168 H 0.6518 0.0921 0.1878 0.0
H169 H 0.70389 0.11893 0.25947 0.0
H170 H 0.83032 0.2013 0.16361 0.0
H171 H 0.77804 0.1742 0.09203 0.0
H172 H 0.3635 0.07439 0.92108 0.0
H173 H 0.29155 1.01401 0.88464 0.0
H174 H 0.27997 0.91534 1.00554 0.0
H175 H 0.35426 0.97585 1.04075 0.0
La176 La 0.52285 0.54344 0.54192 0.0
La177 La 0.53419 0.62445 0.60851 0.0
C178 C 0.5393 0.47712 0.48857 0.0
C179 C 0.57034 0.4459 0.49356 0.0
C180 C 0.56494 0.40612 0.46128 0.0
C181 C 0.59772 0.37899 0.46289 0.0
C182 C 0.63594 0.39107 0.49731 0.0
C183 C 0.63929 0.42945 0.53129 0.0
C184 C 0.60735 0.45714 0.52884 0.0
C185 C 0.43698 0.53783 0.5918 0.0
C186 C 0.56795 0.54133 0.65012 0.0
C187 C 0.51586 0.68945 0.6624 0.0
C188 C 0.48029 0.71637 0.65948 0.0
C189 C 0.48125 0.75353 0.69389 0.0
C190 C 0.44328 0.77492 0.69529 0.0
C191 C 0.40412 0.7596 0.66189 0.0
C192 C 0.4052 0.72427 0.62563 0.0
C193 C 0.44252 0.70233 0.62493 0.0
C194 C 0.62009 0.62932 0.55972 0.0
C195 C 0.49242 0.62814 0.49904 0.0
O196 O 0.50045 0.46923 0.51998 0.0
O197 O 0.56475 0.52389 0.48376 0.0
O198 O 0.44077 0.52633 0.54554 0.0
O199 O 0.48084 0.55152 0.60852 0.0
O200 O 0.55939 0.52232 0.60492 0.0
O201 O 0.55847 0.5822 0.66184 0.0
O202 O 0.55246 0.69904 0.62823 0.0
O203 O 0.4945 0.6423 0.66947 0.0
O204 O 0.61626 0.6422 0.60556 0.0
O205 O 0.57651 0.61608 0.54245 0.0
O206 O 0.49868 0.64605 0.54487 0.0
O207 O 0.50231 0.58744 0.48753 0.0
H208 H 0.53665 0.39721 0.43368 0.0
H209 H 0.59458 0.35015 0.43564 0.0
H210 H 0.66774 0.43925 0.55872 0.0
H211 H 0.61307 0.48838 0.55331 0.0
H212 H 0.51001 0.76445 0.72102 0.0
H213 H 0.44323 0.80149 0.72423 0.0
H214 H 0.37611 0.71216 0.59893 0.0
H215 H 0.44033 0.67293 0.5988 0.0
La216 La 0.03509 0.53988 0.09759 0.0
La217 La 0.03966 0.6358 1.04959 0.0
C218 C 0.05614 0.46721 0.12577 0.0
C219 C 0.10421 0.45986 0.13619 0.0
C220 C 0.11392 0.4522 0.18496 0.0
C221 C 0.16036 0.44802 0.19604 0.0
C222 C 0.19779 0.45095 0.15843 0.0
C223 C 0.1878 0.45785 0.10952 0.0
C224 C 0.14153 0.46245 0.09847 0.0
C225 C 0.99066 0.59509 0.14971 0.0
C226 C 0.13504 0.63697 0.10747 0.0
C227 C 1.01585 0.71161 1.04121 0.0
C228 C 0.97412 0.72189 1.01862 0.0
C229 C 0.95302 0.69743 0.97551 0.0
C230 C 0.90761 0.70102 0.95995 0.0
C231 C 0.88199 0.72827 0.98784 0.0
C232 C 0.9043 0.75363 1.0303 0.0
C233 C 0.94996 0.75065 1.04528 0.0
C234 C 0.07672 0.58335 0.98415 0.0
C235 C 0.94497 0.53704 1.03123 0.0
O236 O 0.04225 0.49698 0.15604 0.0
O237 O 0.04919 0.47444 0.07962 0.0
O238 O 0.97346 0.54737 0.1482 0.0
O239 O 0.03139 0.60912 0.1233 0.0
O240 O 0.11357 0.58843 0.11197 0.0
O241 O 0.11192 0.66378 0.08577 0.0
O242 O 0.05017 0.70161 1.012 0.0
O243 O 1.00082 0.68151 0.07839 0.0
O244 O 0.07456 0.62685 0.97662 0.0
O245 O 0.05893 0.57236 1.02789 0.0
O246 O 0.96382 0.58582 1.03027 0.0
O247 O 0.96865 0.51072 1.05275 0.0
H248 H 0.08575 0.45002 0.21464 0.0
H249 H 0.16686 0.44217 0.23401 0.0
H250 H 0.21618 0.46069 0.0799 0.0
H251 H 0.1354 0.46865 1.06049 0.0
H252 H 0.97059 0.67419 0.95489 0.0
H253 H 0.89214 0.68159 0.92666 0.0
H254 H 0.88548 0.77406 1.05348 0.0
H255 H 0.9651 0.76882 0.0793 0.0
C256 C 0.36417 0.3323 0.37112 0.0
C257 C 0.38989 0.30482 0.34367 0.0
H258 H 0.29878 0.32942 0.41782 0.0
C259 C 0.3765 0.25424 0.35338 0.0
H260 H 0.3745 0.37157 0.36648 0.0
C261 C 0.33495 0.23099 0.38447 0.0
C262 C 0.3052 0.25739 0.4057 0.0
H263 H 0.39416 0.23089 0.33331 0.0
H264 H 0.32303 0.19137 0.38761 0.0
C265 C 0.32117 0.30848 0.40094 0.0
C266 C 0.21754 0.84281 0.87521 0.0
C267 C 0.19268 0.85986 0.83986 0.0
H268 H 0.26627 0.8622 0.93545 0.0
C269 C 0.18409 0.90472 0.84852 0.0
H270 H 0.22317 0.80758 0.87047 0.0
C271 C 0.20692 0.93519 0.88722 0.0
C272 C 0.23978 0.92185 0.91674 0.0
H273 H 0.16471 0.91903 0.82251 0.0
H274 H 0.20321 0.97132 0.89065 0.0
C275 C 0.24176 0.87395 0.91295 0.0
C276 C 0.60132 0.44091 0.71737 0.0
C277 C 0.62115 0.46382 0.76194 0.0
H278 H 0.57041 0.4466 0.64782 0.0
C279 C 0.6243 0.51336 0.76902 0.0
H280 H 0.5981 0.40292 0.71026 0.0
C281 C 0.60725 0.53849 0.73316 0.0
C282 C 0.58739 0.51533 0.68847 0.0
H283 H 0.63901 0.5325 0.80271 0.0
H284 H 0.60971 0.57624 0.74049 0.0
C285 C 0.58535 0.46617 0.68125 0.0
C286 C 0.91778 0.6351 0.25764 0.0
C287 C 0.94781 0.68445 0.26543 0.0
H288 H 0.90739 0.56851 0.21524 0.0
C289 C 0.99114 0.70425 0.2338 0.0
H290 H 0.88415 0.61838 0.28106 0.0
C291 C 1.00441 0.67568 0.19598 0.0
C292 C 0.97476 0.62622 0.18839 0.0
H293 H 1.01522 0.74202 0.23857 0.0
H294 H 0.03849 0.69226 0.17307 0.0
C295 C 0.93111 0.60643 0.21973 0.0
C296 C 0.52366 0.25479 0.21376 0.0
C297 C 0.47934 0.26357 0.20172 0.0
H298 H 0.56912 0.20798 0.20304 0.0
C299 C 0.44473 0.22968 0.17195 0.0
H300 H 0.55017 0.28001 0.23776 0.0
C301 C 0.45434 0.18791 0.15398 0.0
C302 C 0.49931 0.1795 0.16465 0.0
H303 H 0.40957 0.23497 0.16343 0.0
H304 H 0.42702 0.163 0.13043 0.0
C305 C 0.53402 0.21338 0.19463 0.0
C306 C 0.16542 0.94931 0.58662 0.0
C307 C 0.14089 0.92231 0.62835 0.0
H308 H 0.17742 1.01411 0.54431 0.0
C309 C 0.11674 0.94393 0.66432 0.0
H310 H 0.18496 0.93355 0.55889 0.0
C311 C 0.11331 0.9901 0.6564 0.0
C312 C 0.13413 1.01524 0.61275 0.0
H313 H 0.09832 0.9244 0.6974 0.0
H314 H 0.0913 1.00465 0.68271 0.0
C315 C 0.16211 0.99569 0.57882 0.0
C316 C 0.82084 0.51222 0.96414 0.0
C317 C 0.80246 0.46043 0.95938 0.0
H318 H 0.87903 0.57664 0.98975 0.0
C319 C 0.83226 0.43473 0.97861 0.0
H320 H 0.79955 0.53405 0.95085 0.0
C321 C 0.8776 0.45936 1.00205 0.0
C322 C 0.89579 0.51092 1.00675 0.0
H323 H 0.82119 0.3952 0.97509 0.0
H324 H 0.89874 0.4377 1.01608 0.0
C325 C 0.86667 0.53694 0.9871 0.0
C326 C 0.75947 0.69297 0.52595 0.0
C327 C 0.76148 0.69126 0.47396 0.0
H328 H 0.714 0.67448 0.59319 0.0
C329 C 0.7167 0.66548 0.45017 0.0
H330 H 0.79323 0.71163 0.54571 0.0
C331 C 0.67077 0.64391 0.47774 0.0
C332 C 0.66878 0.64738 0.52967 0.0
H333 H 0.71677 0.66349 0.41024 0.0
H334 H 0.63663 0.62565 0.45839 0.0
C335 C 0.71395 0.67136 0.5533 0.0
C336 C 0.31942 0.4689 0.2224 0.0
C337 C 0.34063 0.43867 0.19392 0.0
H338 H 0.25755 0.49657 0.23341 0.0
C339 C 0.31514 0.4131 0.15313 0.0
H340 H 0.33834 0.48883 0.25415 0.0
C341 C 0.26893 0.41746 0.14129 0.0
C342 C 0.24727 0.44712 0.17027 0.0
H343 H 0.33054 0.38937 0.13064 0.0
H344 H 0.24963 0.39685 0.11005 0.0
C345 C 0.27308 0.47299 0.2108 0.0
C346 C 0.67169 0.27297 0.95974 0.0
C347 C 0.64764 0.30696 0.94733 0.0
H348 H 0.66403 0.20257 0.99115 0.0
C349 C 0.59495 0.29295 0.95695 0.0
H350 H 0.71219 0.28199 0.95286 0.0
C351 C 0.56769 0.24779 0.97942 0.0
C352 C 0.59161 0.21411 0.99247 0.0
H353 H 0.57481 0.31775 0.9488 0.0
H354 H 0.52738 0.23948 0.9871 0.0
C355 C 0.64408 0.22712 0.98158 0.0
C356 C 0.91577 0.84643 0.51325 0.0
C357 C 0.91599 0.84063 0.46142 0.0
H358 H 0.93609 0.89468 0.57552 0.0
C359 C 0.94118 0.88239 0.43265 0.0
H360 H 0.89783 0.81523 0.53699 0.0
C361 C 0.96381 0.92872 0.45519 0.0
C362 C 0.96183 0.93444 0.50707 0.0
H363 H 0.94209 0.87959 0.39274 0.0
H364 H 0.98242 0.96011 0.43191 0.0
C365 C 0.93791 0.89235 0.53558 0.0
C366 C 0.26792 0.75545 0.6766 0.0
C367 C 0.27387 0.80219 0.69618 0.0
H368 H 0.30467 0.70483 0.65136 0.0
C369 C 0.32248 0.8369 0.69923 0.0
H370 H 0.23053 0.72828 0.67429 0.0
C371 C 0.36505 0.82411 0.6851 0.0
C372 C 0.35952 0.77613 0.66859 0.0
H373 H 0.32746 0.8734 0.71393 0.0
H374 H 0.40224 0.85125 0.68866 0.0
C375 C 0.31044 0.74233 0.66322 0.0
C376 C 0.69 0.9006 0.80169 0.0
C377 C 0.67472 0.84946 0.80873 0.0
H378 H 0.74633 0.96413 0.77154 0.0
C379 C 0.70011 0.82222 0.78056 0.0
H380 H 0.67242 0.92353 0.82265 0.0
C381 C 0.7443 0.84632 0.75242 0.0
C382 C 0.76226 0.89773 0.75041 0.0
H383 H 0.68851 0.78267 0.7836 0.0
H384 H 0.76607 0.82514 0.73483 0.0
C385 C 0.73307 0.92435 0.77251 0.0
C386 C 0.8144 0.18976 0.34606 0.0
C387 C 0.82578 0.24089 0.34739 0.0
H388 H 0.7877 0.12396 0.30239 0.0
C389 C 0.82553 0.26615 0.3042 0.0
H390 H 0.81387 0.16982 0.37945 0.0
C391 C 0.81137 0.24029 0.26047 0.0
C392 C 0.79657 0.18881 0.25968 0.0
H393 H 0.83378 0.30559 0.30496 0.0
H394 H 0.80851 0.2603 0.22817 0.0
C395 C 0.79937 0.1637 0.30235 0.0
C396 C 0.46562 0.73139 0.42978 0.0
C397 C 0.44877 0.7098 0.38378 0.0
H398 H 0.49113 0.72338 0.50148 0.0
C399 C 0.44522 0.66016 0.37648 0.0
H400 H 0.46902 0.76937 0.43717 0.0
C401 C 0.45906 0.6337 0.41348 0.0
C402 C 0.47592 0.65551 0.4596 0.0
H403 H 0.43272 0.64195 0.34176 0.0
H404 H 0.45652 0.59597 0.40586 0.0
C405 C 0.47834 0.70478 0.46701 0.0
C406 C 0.11578 0.48353 0.90959 0.0
C407 C 0.14518 0.51159 0.86983 0.0
H408 H 0.07135 0.48356 0.9778 0.0
C409 C 0.15212 0.56208 0.86996 0.0
H410 H 0.10971 0.44454 0.91105 0.0
C411 C 0.13027 0.58398 0.9074 0.0
C412 C 0.10083 0.55673 0.94716 0.0
H413 H 0.17449 0.58513 0.84041 0.0
H414 H 0.13663 0.62298 0.90495 0.0
C415 C 0.09405 0.50597 0.94808 0.0
C416 C 0.53539 0.89543 0.93257 0.0
C417 C 0.57767 0.88505 0.94848 0.0
H418 H 0.49254 0.94515 0.93729 0.0
C419 C 0.60924 0.91709 0.98201 0.0
H420 H 0.51102 0.87152 0.90607 0.0
C421 C 0.59988 0.9595 0.99817 0.0
C422 C 0.55824 0.97056 0.98182 0.0
H423 H 0.64269 0.91057 0.99401 0.0
H424 H 0.62549 0.98372 1.0236 0.0
C425 C 0.52517 0.93758 0.94992 0.0
C426 C 0.86913 0.15838 0.56462 0.0
C427 C 0.89991 0.20385 0.54572 0.0
H428 H 0.86449 0.08542 0.5832 0.0
C429 C 0.94913 0.20962 0.52683 0.0
H430 H 0.83067 0.15306 0.57847 0.0
C431 C 0.96821 0.17112 0.52906 0.0
C432 C 0.93834 0.12628 0.55004 0.0
H433 H 0.97344 0.24424 0.51154 0.0
H434 H 1.00717 0.17727 0.51655 0.0
C435 C 0.88815 0.11961 0.56654 0.0
C436 C 0.25003 0.7392 0.15621 0.0
C437 C 0.27869 0.71347 0.17741 0.0
H438 H 0.18426 0.73626 0.1177 0.0
C439 C 0.25918 0.66155 0.17468 0.0
H440 H 0.26195 0.77887 0.15821 0.0
C441 C 0.21323 0.63675 0.15187 0.0
C442 C 0.18518 0.66282 0.13041 0.0
H443 H 0.27955 0.63968 0.18966 0.0
H444 H 0.19975 0.59697 0.15105 0.0
C445 C 0.20464 0.71449 0.13298 0.0
C446 C 0.29968 0.46487 0.62707 0.0
C447 C 0.29819 0.4659 0.67909 0.0
H448 H 0.34364 0.48694 0.5594 0.0
C449 C 0.34232 0.49436 0.70247 0.0
H450 H 0.26641 0.44402 0.6076 0.0
C451 C 0.38721 0.51915 0.67446 0.0
C452 C 0.38882 0.51644 0.62243 0.0
H453 H 0.34273 0.49591 0.74238 0.0
H454 H 0.42097 0.53935 0.69353 0.0
C455 C 0.34409 0.48977 0.59929 0.0
C456 C 0.74726 0.68523 0.9443 0.0
C457 C 0.73213 0.72609 0.95559 0.0
H458 H 0.80555 0.65307 0.94683 0.0
C459 C 0.76693 0.76841 0.97564 0.0
H460 H 0.72111 0.65231 0.92843 0.0
C461 C 0.81595 0.76963 0.98462 0.0
C462 C 0.83099 0.72823 0.97468 0.0
H463 H 0.75666 0.80091 0.98369 0.0
H464 H 0.84207 0.80323 0.99922 0.0
C465 C 0.79595 0.68602 0.95423 0.0
C466 C 0.40914 0.8972 0.16534 0.0
C467 C 0.43253 0.86893 0.19126 0.0
H468 H 0.41755 0.96316 0.12481 0.0
C469 C 0.48514 0.89057 0.19696 0.0
H470 H 0.36872 0.8839 0.16082 0.0
C471 C 0.51283 0.93726 0.17728 0.0
C472 C 0.48961 0.9645 0.15042 0.0
H473 H 0.50568 0.8711 0.2157 0.0
H474 H 0.55319 0.95172 0.18245 0.0
C475 C 0.43714 0.94358 0.14484 0.0
C476 C 0.1313 0.26364 0.72226 0.0
C477 C 0.15653 0.30489 0.69266 0.0
H478 H 0.09135 0.18565 0.72487 0.0
C479 C 0.15924 0.29723 0.64111 0.0
H480 H 0.1284 0.26764 0.76201 0.0
C481 C 0.13896 0.25038 0.62004 0.0
C482 C 0.11438 0.20901 0.64943 0.0
H483 H 0.17689 0.32772 0.61647 0.0
H484 H 0.1423 0.24685 0.58024 0.0
C485 C 0.11049 0.21637 0.70095 0.0
C486 C 0.76468 0.37566 0.49058 0.0
C487 C 0.75257 0.32697 0.47417 0.0
H488 H 0.73728 0.43457 0.50964 0.0
C489 C 0.70169 0.29768 0.47045 0.0
H490 H 0.80385 0.39875 0.49348 0.0
C491 C 0.6633 0.31767 0.48076 0.0
C492 C 0.67541 0.36745 0.49415 0.0
H493 H 0.69176 0.25966 0.45852 0.0
H494 H 0.62433 0.29455 0.4769 0.0
C495 C 0.72645 0.39591 0.50013 0.0
loop_
_geom_bond_atom_site_label_1
_geom_bond_atom_site_label_2
_geom_bond_distance
_geom_bond_site_symmetry_2
_ccdc_geom_bond_type
H0 C5 0.930 . S
H1 C8 0.930 . S
H2 C10 0.930 . S
H3 C4 1.016 . S
C4 H3 1.016 . S
C4 N11 1.286 . S
C5 H0 0.930 . S
C5 C6 1.397 . S
C5 C7 1.361 . S
C6 C5 1.397 . S
C6 C10 1.390 . S
C7 C5 1.361 . S
C7 C8 1.393 . S
C7 N11 1.413 . S
C8 H1 0.930 . S
C8 C7 1.393 . S
C8 C9 1.399 . S
C9 C8 1.399 . S
C9 C10 1.381 . S
C10 H2 0.930 . S
C10 C6 1.390 . S
C10 C9 1.381 . S
N11 C4 1.286 . S
N11 C7 1.413 . S
H12 C17 0.930 . S
H13 C20 0.930 . S
H14 C22 0.930 . S
H15 C16 1.016 . S
C16 H15 1.016 . S
C16 N23 1.286 . S
C17 H12 0.930 . S
C17 C18 1.397 . S
C17 C19 1.361 . S
C18 C17 1.397 . S
C18 C22 1.390 . S
C19 C17 1.361 . S
C19 C20 1.393 . S
C19 N23 1.413 . S
C20 H13 0.930 . S
C20 C19 1.393 . S
C20 C21 1.399 . S
C21 C20 1.399 . S
C21 C22 1.381 . S
C22 H14 0.930 . S
C22 C18 1.390 . S
C22 C21 1.381 . S
N23 C16 1.286 . S
N23 C19 1.413 . S
H24 C29 0.930 . S
H25 C32 0.930 . S
H26 C34 0.930 . S
H27 C28 1.016 . S
C28 H27 1.016 . S
C28 N35 1.286 . S
C29 H24 0.930 . S
C29 C30 1.397 . S
C29 C31 1.361 . S
C30 C29 1.397 . S
C30 C34 1.390 . S
C31 C29 1.361 . S
C31 C32 1.393 . S
C31 N35 1.413 . S
C32 H25 0.930 . S
C32 C31 1.393 . S
C32 C33 1.399 . S
C33 C32 1.399 . S
C33 C34 1.381 . S
C34 H26 0.930 . S
C34 C30 1.390 . S
C34 C33 1.381 . S
N35 C28 1.286 . S
N35 C31 1.413 . S
H36 C41 0.930 . S
H37 C44 0.930 . S
H38 C46 0.930 . S
H39 C40 1.016 . S
C40 H39 1.016 . S
C40 N47 1.286 . S
C41 H36 0.930 . S
C41 C42 1.397 . S
C41 C43 1.361 . S
C42 C41 1.397 . S
C42 C46 1.390 . S
C43 C41 1.361 . S
C43 C44 1.393 . S
C43 N47 1.413 . S
C44 H37 0.930 . S
C44 C43 1.393 . S
C44 C45 1.399 . S
C45 C44 1.399 . S
C45 C46 1.381 . S
C46 H38 0.930 . S
C46 C42 1.390 . S
C46 C45 1.381 . S
N47 C40 1.286 . S
N47 C43 1.413 . S
H48 C53 0.930 . S
H49 C56 0.930 . S
H50 C58 0.930 . S
H51 C52 1.016 . S
C52 H51 1.016 . S
C52 N59 1.286 . S
C53 H48 0.930 . S
C53 C54 1.397 . S
C53 C55 1.361 . S
C54 C53 1.397 . S
C54 C58 1.390 . S
C55 C53 1.361 . S
C55 C56 1.393 . S
C55 N59 1.413 . S
C56 H49 0.930 . S
C56 C55 1.393 . S
C56 C57 1.399 . S
C57 C56 1.399 . S
C57 C58 1.381 . S
C58 H50 0.930 . S
C58 C54 1.390 . S
C58 C57 1.381 . S
N59 C52 1.286 . S
N59 C55 1.413 . S
H60 C65 0.930 . S
H61 C68 0.930 . S
H62 C70 0.930 . S
H63 C64 1.016 . S
C64 H63 1.016 . S
C64 N71 1.286 . S
C65 H60 0.930 . S
C65 C66 1.397 . S
C65 C67 1.361 . S
C66 C65 1.397 . S
C66 C70 1.390 . S
C67 C65 1.361 . S
C67 C68 1.393 . S
C67 N71 1.413 . S
C68 H61 0.930 . S
C68 C67 1.393 . S
C68 C69 1.399 . S
C69 C68 1.399 . S
C69 C70 1.381 . S
C70 H62 0.930 . S
C70 C66 1.390 . S
C70 C69 1.381 . S
N71 C64 1.286 . S
N71 C67 1.413 . S
H72 C77 0.930 . S
H73 C80 0.930 . S
H74 C82 0.930 . S
H75 C76 1.016 . S
C76 H75 1.016 . S
C76 N83 1.286 . S
C77 H72 0.930 . S
C77 C78 1.397 . S
C77 C79 1.361 . S
C78 C77 1.397 . S
C78 C82 1.390 . S
C79 C77 1.361 . S
C79 C80 1.393 . S
C79 N83 1.413 . S
C80 H73 0.930 . S
C80 C79 1.393 . S
C80 C81 1.399 . S
C81 C80 1.399 . S
C81 C82 1.381 . S
C82 H74 0.930 . S
C82 C78 1.390 . S
C82 C81 1.381 . S
N83 C76 1.286 . S
N83 C79 1.413 . S
H84 C89 0.930 . S
H85 C92 0.930 . S
H86 C94 0.930 . S
H87 C88 1.016 . S
C88 H87 1.016 . S
C88 N95 1.286 . S
C89 H84 0.930 . S
C89 C90 1.397 . S
C89 C91 1.361 . S
C90 C89 1.397 . S
C90 C94 1.390 . S
C91 C89 1.361 . S
C91 C92 1.393 . S
C91 N95 1.413 . S
C92 H85 0.930 . S
C92 C91 1.393 . S
C92 C93 1.399 . S
C93 C92 1.399 . S
C93 C94 1.381 . S
C94 H86 0.930 . S
C94 C90 1.390 . S
C94 C93 1.381 . S
N95 C88 1.286 . S
N95 C91 1.413 . S
La96 C98 2.928 . S
La96 O116 2.521 . S
La96 O117 2.628 . S
La96 O118 2.554 1_545 S
La96 O119 2.757 1_545 S
La96 O120 2.470 . S
La96 O125 2.482 1_455 S
La96 O127 2.503 1_445 S
La97 C107 2.928 1_545 S
La97 O119 2.482 1_645 S
La97 O121 2.503 1_655 S
La97 O122 2.521 1_545 S
La97 O123 2.628 1_545 S
La97 O124 2.554 . S
La97 O125 2.757 . S
La97 O126 2.470 1_545 S
C98 La96 2.928 . S
C98 C99 1.503 . S
C98 O116 1.261 . S
C98 O117 1.243 . S
C99 C98 1.503 . S
C99 C100 1.394 . S
C99 C104 1.373 . S
C100 C99 1.394 . S
C100 C101 1.380 . S
C100 H128 0.930 . S
C101 C100 1.380 . S
C101 C102 1.376 . S
C101 H129 0.930 . S
C102 C101 1.376 . S
C102 C103 1.370 . S
C103 C102 1.370 . S
C103 C104 1.396 . S
C103 H130 0.929 . S
C104 C99 1.373 . S
C104 C103 1.396 . S
C104 H131 0.929 . S
C105 O118 1.240 . S
C105 O119 1.289 . S
C106 O120 1.258 . S
C106 O121 1.256 . S
C107 La97 2.928 1_565 S
C107 C108 1.503 . S
C107 O122 1.261 . S
C107 O123 1.243 . S
C108 C107 1.503 . S
C108 C109 1.394 . S
C108 C113 1.373 . S
C109 C108 1.394 . S
C109 C110 1.380 . S
C109 H132 0.930 . S
C110 C109 1.380 . S
C110 C111 1.376 . S
C110 H133 0.930 . S
C111 C110 1.376 . S
C111 C112 1.370 . S
C112 C111 1.370 . S
C112 C113 1.396 . S
C112 H134 0.929 . S
C113 C108 1.373 . S
C113 C112 1.396 . S
C113 H135 0.929 . S
C114 O124 1.240 . S
C114 O125 1.289 . S
C115 O126 1.258 . S
C115 O127 1.256 . S
O116 La96 2.521 . S
O116 C98 1.261 . S
O117 La96 2.628 . S
O117 C98 1.243 . S
O118 La96 2.554 1_565 S
O118 C105 1.240 . S
O119 La96 2.757 1_565 S
O119 La97 2.482 1_465 S
O119 C105 1.289 . S
O120 La96 2.470 . S
O120 C106 1.258 . S
O121 La97 2.503 1_455 S
O121 C106 1.256 . S
O122 La97 2.521 1_565 S
O122 C107 1.261 . S
O123 La97 2.628 1_565 S
O123 C107 1.243 . S
O124 La97 2.554 . S
O124 C114 1.240 . S
O125 La96 2.482 1_655 S
O125 La97 2.757 . S
O125 C114 1.289 . S
O126 La97 2.470 1_565 S
O126 C115 1.258 . S
O127 La96 2.503 1_665 S
O127 C115 1.256 . S
H128 C100 0.930 . S
H129 C101 0.930 . S
H130 C103 0.929 . S
H131 C104 0.929 . S
H132 C109 0.930 . S
H133 C110 0.930 . S
H134 C112 0.929 . S
H135 C113 0.929 . S
La136 C138 2.928 . S
La136 O156 2.521 . S
La136 O157 2.628 . S
La136 O158 2.554 1_545 S
La136 O159 2.757 1_545 S
La136 O160 2.470 . S
La136 O165 2.468 1_554 S
La136 O167 2.503 1_544 S
La137 C147 2.928 1_545 S
La137 O159 2.482 1_546 S
La137 O161 2.503 1_556 S
La137 O162 2.521 1_545 S
La137 O163 2.628 1_545 S
La137 O164 2.554 . S
La137 O165 2.762 . S
La137 O166 2.470 1_545 S
C138 La136 2.928 . S
C138 C139 1.503 . S
C138 O156 1.261 . S
C138 O157 1.243 . S
C139 C138 1.503 . S
C139 C140 1.394 . S
C139 C144 1.373 . S
C140 C139 1.394 . S
C140 C141 1.380 . S
C140 H168 0.930 . S
C141 C140 1.380 . S
C141 C142 1.376 . S
C141 H169 0.930 . S
C142 C141 1.376 . S
C142 C143 1.370 . S
C143 C142 1.370 . S
C143 C144 1.396 . S
C143 H170 0.929 . S
C144 C139 1.373 . S
C144 C143 1.396 . S
C144 H171 0.929 . S
C145 O158 1.240 . S
C145 O159 1.289 . S
C146 O160 1.258 . S
C146 O161 1.256 . S
C147 La137 2.928 1_565 S
C147 C148 1.503 . S
C147 O162 1.261 . S
C147 O163 1.243 . S
C148 C147 1.503 . S
C148 C149 1.394 . S
C148 C153 1.373 . S
C149 C148 1.394 . S
C149 C150 1.380 . S
C149 H172 0.930 . S
C150 C149 1.380 . S
C150 C151 1.376 . S
C150 H173 0.930 . S
C151 C150 1.376 . S
C151 C152 1.370 . S
C152 C151 1.370 . S
C152 C153 1.396 . S
C152 H174 0.929 . S
C153 C148 1.373 . S
C153 C152 1.396 . S
C153 H175 0.929 . S
C154 O164 1.240 . S
C154 O165 1.306 . S
C155 O166 1.258 . S
C155 O167 1.256 . S
O156 La136 2.521 . S
O156 C138 1.261 . S
O157 La136 2.628 . S
O157 C138 1.243 . S
O158 La136 2.554 1_565 S
O158 C145 1.240 . S
O159 La136 2.757 1_565 S
O159 La137 2.482 1_564 S
O159 C145 1.289 . S
O160 La136 2.470 . S
O160 C146 1.258 . S
O161 La137 2.503 1_554 S
O161 C146 1.256 . S
O162 La137 2.521 1_565 S
O162 C147 1.261 . S
O163 La137 2.628 1_565 S
O163 C147 1.243 . S
O164 La137 2.554 . S
O164 C154 1.240 . S
O165 La136 2.468 1_556 S
O165 La137 2.762 . S
O165 C154 1.306 . S
O166 La137 2.470 1_565 S
O166 C155 1.258 . S
O167 La136 2.503 1_566 S
O167 C155 1.256 . S
H168 C140 0.930 . S
H169 C141 0.930 . S
H170 C143 0.929 . S
H171 C144 0.929 . S
H172 C149 0.930 . S
H173 C150 0.930 . S
H174 C152 0.929 . S
H175 C153 0.929 . S
La176 C178 2.928 . S
La176 O196 2.521 . S
La176 O197 2.628 . S
La176 O198 2.554 . S
La176 O199 2.757 . S
La176 O200 2.470 . S
La176 O205 2.482 . S
La176 O207 2.503 . S
La177 C187 2.928 . S
La177 O199 2.482 . S
La177 O201 2.503 . S
La177 O202 2.521 . S
La177 O203 2.628 . S
La177 O204 2.554 . S
La177 O205 2.757 . S
La177 O206 2.470 . S
C178 La176 2.928 . S
C178 C179 1.503 . S
C178 O196 1.261 . S
C178 O197 1.243 . S
C179 C178 1.503 . S
C179 C180 1.394 . S
C179 C184 1.373 . S
C180 C179 1.394 . S
C180 C181 1.380 . S
C180 H208 0.930 . S
C181 C180 1.380 . S
C181 C182 1.376 . S
C181 H209 0.930 . S
C182 C181 1.376 . S
C182 C183 1.370 . S
C183 C182 1.370 . S
C183 C184 1.396 . S
C183 H210 0.929 . S
C184 C179 1.373 . S
C184 C183 1.396 . S
C184 H211 0.929 . S
C185 O198 1.240 . S
C185 O199 1.289 . S
C186 O200 1.258 . S
C186 O201 1.256 . S
C187 La177 2.928 . S
C187 C188 1.503 . S
C187 O202 1.261 . S
C187 O203 1.243 . S
C188 C187 1.503 . S
C188 C189 1.394 . S
C188 C193 1.373 . S
C189 C188 1.394 . S
C189 C190 1.380 . S
C189 H212 0.930 . S
C190 C189 1.380 . S
C190 C191 1.376 . S
C190 H213 0.930 . S
C191 C190 1.376 . S
C191 C192 1.370 . S
C192 C191 1.370 . S
C192 C193 1.396 . S
C192 H214 0.929 . S
C193 C188 1.373 . S
C193 C192 1.396 . S
C193 H215 0.929 . S
C194 O204 1.240 . S
C194 O205 1.289 . S
C195 O206 1.258 . S
C195 O207 1.256 . S
O196 La176 2.521 . S
O196 C178 1.261 . S
O197 La176 2.628 . S
O197 C178 1.243 . S
O198 La176 2.554 . S
O198 C185 1.240 . S
O199 La176 2.757 . S
O199 La177 2.482 . S
O199 C185 1.289 . S
O200 La176 2.470 . S
O200 C186 1.258 . S
O201 La177 2.503 . S
O201 C186 1.256 . S
O202 La177 2.521 . S
O202 C187 1.261 . S
O203 La177 2.628 . S
O203 C187 1.243 . S
O204 La177 2.554 . S
O204 C194 1.240 . S
O205 La176 2.482 . S
O205 La177 2.757 . S
O205 C194 1.289 . S
O206 La177 2.470 . S
O206 C195 1.258 . S
O207 La176 2.503 . S
O207 C195 1.256 . S
H208 C180 0.930 . S
H209 C181 0.930 . S
H210 C183 0.929 . S
H211 C184 0.929 . S
H212 C189 0.930 . S
H213 C190 0.930 . S
H214 C192 0.929 . S
H215 C193 0.929 . S
La216 C218 2.928 . S
La216 O236 2.521 . S
La216 O237 2.628 . S
La216 O238 2.554 1_455 S
La216 O239 2.757 1_455 S
La216 O240 2.470 . S
La216 O245 2.482 1_554 S
La216 O247 2.503 1_454 S
La217 C227 2.928 1_455 S
La217 O239 2.482 1_456 S
La217 O241 2.503 1_556 S
La217 O242 2.521 1_455 S
La217 O243 2.628 1_455 S
La217 O244 2.554 . S
La217 O245 2.757 . S
La217 O246 2.470 1_455 S
C218 La216 2.928 . S
C218 C219 1.503 . S
C218 O236 1.261 . S
C218 O237 1.243 . S
C219 C218 1.503 . S
C219 C220 1.394 . S
C219 C224 1.373 . S
C220 C219 1.394 . S
C220 C221 1.380 . S
C220 H248 0.930 . S
C221 C220 1.380 . S
C221 C222 1.376 . S
C221 H249 0.930 . S
C222 C221 1.376 . S
C222 C223 1.370 . S
C223 C222 1.370 . S
C223 C224 1.396 . S
C223 H250 0.929 . S
C224 C219 1.373 . S
C224 C223 1.396 . S
C224 H251 0.929 . S
C225 O238 1.240 . S
C225 O239 1.289 . S
C226 O240 1.258 . S
C226 O241 1.256 . S
C227 La217 2.928 1_655 S
C227 C228 1.503 . S
C227 O242 1.261 . S
C227 O243 1.243 . S
C228 C227 1.503 . S
C228 C229 1.394 . S
C228 C233 1.373 . S
C229 C228 1.394 . S
C229 C230 1.380 . S
C229 H252 0.930 . S
C230 C229 1.380 . S
C230 C231 1.376 . S
C230 H253 0.930 . S
C231 C230 1.376 . S
C231 C232 1.370 . S
C232 C231 1.370 . S
C232 C233 1.396 . S
C232 H254 0.929 . S
C233 C228 1.373 . S
C233 C232 1.396 . S
C233 H255 0.929 . S
C234 O244 1.240 . S
C234 O245 1.289 . S
C235 O246 1.258 . S
C235 O247 1.256 . S
O236 La216 2.521 . S
O236 C218 1.261 . S
O237 La216 2.628 . S
O237 C218 1.243 . S
O238 La216 2.554 1_655 S
O238 C225 1.240 . S
O239 La216 2.757 1_655 S
O239 La217 2.482 1_654 S
O239 C225 1.289 . S
O240 La216 2.470 . S
O240 C226 1.258 . S
O241 La217 2.503 1_554 S
O241 C226 1.256 . S
O242 La217 2.521 1_655 S
O242 C227 1.261 . S
O243 La217 2.628 1_655 S
O243 C227 1.243 . S
O244 La217 2.554 . S
O244 C234 1.240 . S
O245 La216 2.482 1_556 S
O245 La217 2.757 . S
O245 C234 1.289 . S
O246 La217 2.470 1_655 S
O246 C235 1.258 . S
O247 La216 2.503 1_656 S
O247 C235 1.256 . S
H248 C220 0.930 . S
H249 C221 0.930 . S
H250 C223 0.929 . S
H251 C224 0.929 . S
H252 C229 0.930 . S
H253 C230 0.930 . S
H254 C232 0.929 . S
H255 C233 0.929 . S
C256 C257 1.387 . S
C256 H260 0.950 . S
C256 C265 1.390 . S
C257 C256 1.387 . S
C257 C259 1.387 . S
H258 C265 0.950 . S
C259 C257 1.387 . S
C259 C261 1.390 . S
C259 H263 0.950 . S
H260 C256 0.950 . S
C261 C259 1.390 . S
C261 C262 1.387 . S
C261 H264 0.950 . S
C262 C261 1.387 . S
C262 C265 1.387 . S
H263 C259 0.950 . S
H264 C261 0.950 . S
C265 C256 1.390 . S
C265 H258 0.950 . S
C265 C262 1.387 . S
C266 C267 1.387 . S
C266 H270 0.950 . S
C266 C275 1.390 . S
C267 C266 1.387 . S
C267 C269 1.387 . S
H268 C275 0.950 . S
C269 C267 1.387 . S
C269 C271 1.390 . S
C269 H273 0.950 . S
H270 C266 0.950 . S
C271 C269 1.390 . S
C271 C272 1.387 . S
C271 H274 0.950 . S
C272 C271 1.387 . S
C272 C275 1.387 . S
H273 C269 0.950 . S
H274 C271 0.950 . S
C275 C266 1.390 . S
C275 H268 0.950 . S
C275 C272 1.387 . S
C276 C277 1.387 . S
C276 H280 0.950 . S
C276 C285 1.390 . S
C277 C276 1.387 . S
C277 C279 1.387 . S
H278 C285 0.950 . S
C279 C277 1.387 . S
C279 C281 1.390 . S
C279 H283 0.950 . S
H280 C276 0.950 . S
C281 C279 1.390 . S
C281 C282 1.387 . S
C281 H284 0.950 . S
C282 C281 1.387 . S
C282 C285 1.387 . S
H283 C279 0.950 . S
H284 C281 0.950 . S
C285 C276 1.390 . S
C285 H278 0.950 . S
C285 C282 1.387 . S
C286 C287 1.387 . S
C286 H290 0.950 . S
C286 C295 1.390 . S
C287 C286 1.387 . S
C287 C289 1.387 . S
H288 C295 0.950 . S
C289 C287 1.387 . S
C289 C291 1.390 . S
C289 H293 0.950 . S
H290 C286 0.950 . S
C291 C289 1.390 . S
C291 C292 1.387 . S
C291 H294 0.950 . S
C292 C291 1.387 . S
C292 C295 1.387 . S
H293 C289 0.950 . S
H294 C291 0.950 . S
C295 C286 1.390 . S
C295 H288 0.950 . S
C295 C292 1.387 . S
C296 C297 1.387 . S
C296 H300 0.950 . S
C296 C305 1.390 . S
C297 C296 1.387 . S
C297 C299 1.387 . S
H298 C305 0.950 . S
C299 C297 1.387 . S
C299 C301 1.390 . S
C299 H303 0.950 . S
H300 C296 0.950 . S
C301 C299 1.390 . S
C301 C302 1.387 . S
C301 H304 0.950 . S
C302 C301 1.387 . S
C302 C305 1.387 . S
H303 C299 0.950 . S
H304 C301 0.950 . S
C305 C296 1.390 . S
C305 H298 0.950 . S
C305 C302 1.387 . S
C306 C307 1.387 . S
C306 H310 0.950 . S
C306 C315 1.390 . S
C307 C306 1.387 . S
C307 C309 1.387 . S
H308 C315 0.950 . S
C309 C307 1.387 . S
C309 C311 1.390 . S
C309 H313 0.950 . S
H310 C306 0.950 . S
C311 C309 1.390 . S
C311 C312 1.387 . S
C311 H314 0.950 . S
C312 C311 1.387 . S
C312 C315 1.387 . S
H313 C309 0.950 . S
H314 C311 0.950 . S
C315 C306 1.390 . S
C315 H308 0.950 . S
C315 C312 1.387 . S
C316 C317 1.387 . S
C316 H320 0.950 . S
C316 C325 1.390 . S
C317 C316 1.387 . S
C317 C319 1.387 . S
H318 C325 0.950 . S
C319 C317 1.387 . S
C319 C321 1.390 . S
C319 H323 0.950 . S
H320 C316 0.950 . S
C321 C319 1.390 . S
C321 C322 1.387 . S
C321 H324 0.950 . S
C322 C321 1.387 . S
C322 C325 1.387 . S
H323 C319 0.950 . S
H324 C321 0.950 . S
C325 C316 1.390 . S
C325 H318 0.950 . S
C325 C322 1.387 . S
C326 C327 1.387 . S
C326 H330 0.950 . S
C326 C335 1.390 . S
C327 C326 1.387 . S
C327 C329 1.387 . S
H328 C335 0.950 . S
C329 C327 1.387 . S
C329 C331 1.390 . S
C329 H333 0.950 . S
H330 C326 0.950 . S
C331 C329 1.390 . S
C331 C332 1.387 . S
C331 H334 0.950 . S
C332 C331 1.387 . S
C332 C335 1.387 . S
H333 C329 0.950 . S
H334 C331 0.950 . S
C335 C326 1.390 . S
C335 H328 0.950 . S
C335 C332 1.387 . S
C336 C337 1.387 . S
C336 H340 0.950 . S
C336 C345 1.390 . S
C337 C336 1.387 . S
C337 C339 1.387 . S
H338 C345 0.950 . S
C339 C337 1.387 . S
C339 C341 1.390 . S
C339 H343 0.950 . S
H340 C336 0.950 . S
C341 C339 1.390 . S
C341 C342 1.387 . S
C341 H344 0.950 . S
C342 C341 1.387 . S
C342 C345 1.387 . S
H343 C339 0.950 . S
H344 C341 0.950 . S
C345 C336 1.390 . S
C345 H338 0.950 . S
C345 C342 1.387 . S
C346 C347 1.387 . S
C346 H350 0.950 . S
C346 C355 1.390 . S
C347 C346 1.387 . S
C347 C349 1.387 . S
H348 C355 0.950 . S
C349 C347 1.387 . S
C349 C351 1.390 . S
C349 H353 0.950 . S
H350 C346 0.950 . S
C351 C349 1.390 . S
C351 C352 1.387 . S
C351 H354 0.950 . S
C352 C351 1.387 . S
C352 C355 1.387 . S
H353 C349 0.950 . S
H354 C351 0.950 . S
C355 C346 1.390 . S
C355 H348 0.950 . S
C355 C352 1.387 . S
C356 C357 1.387 . S
C356 H360 0.950 . S
C356 C365 1.390 . S
C357 C356 1.387 . S
C357 C359 1.387 . S
H358 C365 0.950 . S
C359 C357 1.387 . S
C359 C361 1.390 . S
C359 H363 0.950 . S
H360 C356 0.950 . S
C361 C359 1.390 . S
C361 C362 1.387 . S
C361 H364 0.950 . S
C362 C361 1.387 . S
C362 C365 1.387 . S
H363 C359 0.950 . S
H364 C361 0.950 . S
C365 C356 1.390 . S
C365 H358 0.950 . S
C365 C362 1.387 . S
C366 C367 1.387 . S
C366 H370 0.950 . S
C366 C375 1.390 . S
C367 C366 1.387 . S
C367 C369 1.387 . S
H368 C375 0.950 . S
C369 C367 1.387 . S
C369 C371 1.390 . S
C369 H373 0.950 . S
H370 C366 0.950 . S
C371 C369 1.390 . S
C371 C372 1.387 . S
C371 H374 0.950 . S
C372 C371 1.387 . S
C372 C375 1.387 . S
H373 C369 0.950 . S
H374 C371 0.950 . S
C375 C366 1.390 . S
C375 H368 0.950 . S
C375 C372 1.387 . S
C376 C377 1.387 . S
C376 H380 0.950 . S
C376 C385 1.390 . S
C377 C376 1.387 . S
C377 C379 1.387 . S
H378 C385 0.950 . S
C379 C377 1.387 . S
C379 C381 1.390 . S
C379 H383 0.950 . S
H380 C376 0.950 . S
C381 C379 1.390 . S
C381 C382 1.387 . S
C381 H384 0.950 . S
C382 C381 1.387 . S
C382 C385 1.387 . S
H383 C379 0.950 . S
H384 C381 0.950 . S
C385 C376 1.390 . S
C385 H378 0.950 . S
C385 C382 1.387 . S
C386 C387 1.387 . S
C386 H390 0.950 . S
C386 C395 1.390 . S
C387 C386 1.387 . S
C387 C389 1.387 . S
H388 C395 0.950 . S
C389 C387 1.387 . S
C389 C391 1.390 . S
C389 H393 0.950 . S
H390 C386 0.950 . S
C391 C389 1.390 . S
C391 C392 1.387 . S
C391 H394 0.950 . S
C392 C391 1.387 . S
C392 C395 1.387 . S
H393 C389 0.950 . S
H394 C391 0.950 . S
C395 C386 1.390 . S
C395 H388 0.950 . S
C395 C392 1.387 . S
C396 C397 1.387 . S
C396 H400 0.950 . S
C396 C405 1.390 . S
C397 C396 1.387 . S
C397 C399 1.387 . S
H398 C405 0.950 . S
C399 C397 1.387 . S
C399 C401 1.390 . S
C399 H403 0.950 . S
H400 C396 0.950 . S
C401 C399 1.390 . S
C401 C402 1.387 . S
C401 H404 0.950 . S
C402 C401 1.387 . S
C402 C405 1.387 . S
H403 C399 0.950 . S
H404 C401 0.950 . S
C405 C396 1.390 . S
C405 H398 0.950 . S
C405 C402 1.387 . S
C406 C407 1.387 . S
C406 H410 0.950 . S
C406 C415 1.390 . S
C407 C406 1.387 . S
C407 C409 1.387 . S
H408 C415 0.950 . S
C409 C407 1.387 . S
C409 C411 1.390 . S
C409 H413 0.950 . S
H410 C406 0.950 . S
C411 C409 1.390 . S
C411 C412 1.387 . S
C411 H414 0.950 . S
C412 C411 1.387 . S
C412 C415 1.387 . S
H413 C409 0.950 . S
H414 C411 0.950 . S
C415 C406 1.390 . S
C415 H408 0.950 . S
C415 C412 1.387 . S
C416 C417 1.387 . S
C416 H420 0.950 . S
C416 C425 1.390 . S
C417 C416 1.387 . S
C417 C419 1.387 . S
H418 C425 0.950 . S
C419 C417 1.387 . S
C419 C421 1.390 . S
C419 H423 0.950 . S
H420 C416 0.950 . S
C421 C419 1.390 . S
C421 C422 1.387 . S
C421 H424 0.950 . S
C422 C421 1.387 . S
C422 C425 1.387 . S
H423 C419 0.950 . S
H424 C421 0.950 . S
C425 C416 1.390 . S
C425 H418 0.950 . S
C425 C422 1.387 . S
C426 C427 1.387 . S
C426 H430 0.950 . S
C426 C435 1.390 . S
C427 C426 1.387 . S
C427 C429 1.387 . S
H428 C435 0.950 . S
C429 C427 1.387 . S
C429 C431 1.390 . S
C429 H433 0.950 . S
H430 C426 0.950 . S
C431 C429 1.390 . S
C431 C432 1.387 . S
C431 H434 0.950 . S
C432 C431 1.387 . S
C432 C435 1.387 . S
H433 C429 0.950 . S
H434 C431 0.950 . S
C435 C426 1.390 . S
C435 H428 0.950 . S
C435 C432 1.387 . S
C436 C437 1.387 . S
C436 H440 0.950 . S
C436 C445 1.390 . S
C437 C436 1.387 . S
C437 C439 1.387 . S
H438 C445 0.950 . S
C439 C437 1.387 . S
C439 C441 1.390 . S
C439 H443 0.950 . S
H440 C436 0.950 . S
C441 C439 1.390 . S
C441 C442 1.387 . S
C441 H444 0.950 . S
C442 C441 1.387 . S
C442 C445 1.387 . S
H443 C439 0.950 . S
H444 C441 0.950 . S
C445 C436 1.390 . S
C445 H438 0.950 . S
C445 C442 1.387 . S
C446 C447 1.387 . S
C446 H450 0.950 . S
C446 C455 1.390 . S
C447 C446 1.387 . S
C447 C449 1.387 . S
H448 C455 0.950 . S
C449 C447 1.387 . S
C449 C451 1.390 . S
C449 H453 0.950 . S
H450 C446 0.950 . S
C451 C449 1.390 . S
C451 C452 1.387 . S
C451 H454 0.950 . S
C452 C451 1.387 . S
C452 C455 1.387 . S
H453 C449 0.950 . S
H454 C451 0.950 . S
C455 C446 1.390 . S
C455 H448 0.950 . S
C455 C452 1.387 . S
C456 C457 1.387 . S
C456 H460 0.950 . S
C456 C465 1.390 . S
C457 C456 1.387 . S
C457 C459 1.387 . S
H458 C465 0.950 . S
C459 C457 1.387 . S
C459 C461 1.390 . S
C459 H463 0.950 . S
H460 C456 0.950 . S
C461 C459 1.390 . S
C461 C462 1.387 . S
C461 H464 0.950 . S
C462 C461 1.387 . S
C462 C465 1.387 . S
H463 C459 0.950 . S
H464 C461 0.950 . S
C465 C456 1.390 . S
C465 H458 0.950 . S
C465 C462 1.387 . S
C466 C467 1.387 . S
C466 H470 0.950 . S
C466 C475 1.390 . S
C467 C466 1.387 . S
C467 C469 1.387 . S
H468 C475 0.950 . S
C469 C467 1.387 . S
C469 C471 1.390 . S
C469 H473 0.950 . S
H470 C466 0.950 . S
C471 C469 1.390 . S
C471 C472 1.387 . S
C471 H474 0.950 . S
C472 C471 1.387 . S
C472 C475 1.387 . S
H473 C469 0.950 . S
H474 C471 0.950 . S
C475 C466 1.390 . S
C475 H468 0.950 . S
C475 C472 1.387 . S
C476 C477 1.387 . S
C476 H480 0.950 . S
C476 C485 1.390 . S
C477 C476 1.387 . S
C477 C479 1.387 . S
H478 C485 0.950 . S
C479 C477 1.387 . S
C479 C481 1.390 . S
C479 H483 0.950 . S
H480 C476 0.950 . S
C481 C479 1.390 . S
C481 C482 1.387 . S
C481 H484 0.950 . S
C482 C481 1.387 . S
C482 C485 1.387 . S
H483 C479 0.950 . S
H484 C481 0.950 . S
C485 C476 1.390 . S
C485 H478 0.950 . S
C485 C482 1.387 . S
C486 C487 1.387 . S
C486 H490 0.950 . S
C486 C495 1.390 . S
C487 C486 1.387 . S
C487 C489 1.387 . S
H488 C495 0.950 . S
C489 C487 1.387 . S
C489 C491 1.390 . S
C489 H493 0.950 . S
H490 C486 0.950 . S
C491 C489 1.390 . S
C491 C492 1.387 . S
C491 H494 0.950 . S
C492 C491 1.387 . S
C492 C495 1.387 . S
H493 C489 0.950 . S
H494 C491 0.950 . S
C495 C486 1.390 . S
C495 H488 0.950 . S
C495 C492 1.387 . S
C257 C6 1.040 . S
C262 C102 1.069 . S
C267 C18 1.251 . S
C272 C151 1.238 . S
C282 C186 2.597 . S
C277 C28 2.682 . S
C287 C40 1.994 . S
C292 C225 1.946 . S
C302 C146 2.223 . S
C297 C9 2.044 . S
C312 C105 0.877 . S
C307 C16 0.887 . S
C322 C235 1.935 . S
C317 C30 1.985 . S
C332 C194 1.486 . S
C327 C42 1.516 . S
C337 C4 1.495 . S
C342 C222 1.543 . S
C352 C154 2.525 . S
C347 C33 2.622 . S
C357 C45 2.126 . S
C362 C115 2.112 . S
C367 C21 1.202 . S
C372 C191 1.250 . S
C382 C111 1.078 . S
C377 C57 1.070 . S
C387 C66 1.300 . S
C392 C142 1.273 . S
C397 C76 2.731 . S
C402 C195 2.637 . S
C407 C88 1.931 . S
C412 C234 1.900 . S
C417 C54 2.042 . S
C422 C155 2.222 . S
C432 C114 0.990 . S
C427 C64 1.020 . S
C442 C226 1.859 . S
C437 C78 1.927 . S
C452 C185 1.532 . S
C447 C93 1.561 . S
C457 C52 1.457 . S
C462 C231 1.581 . S
C472 C145 2.510 . S
C467 C81 2.612 . S
C482 C106 2.100 . S
C477 C90 2.109 . S
C487 C69 1.186 . S
C492 C182 1.252 . S
