# Generated by pormake.
# Topology pyr, (3,6)-cn, num edge types: 1
# Building blocks:
#     Node 0, Type 0, BuildingBlock: BETDAH_clean_linker_0, # of connection points: 3
#     Node 1, Type 0, BuildingBlock: BETDAH_clean_linker_0, # of connection points: 3
#     Node 2, Type 0, BuildingBlock: BETDAH_clean_linker_0, # of connection points: 3
#     Node 3, Type 0, BuildingBlock: BETDAH_clean_linker_0, # of connection points: 3
#     Node 4, Type 0, BuildingBlock: BETDAH_clean_linker_0, # of connection points: 3
#     Node 5, Type 0, BuildingBlock: BETDAH_clean_linker_0, # of connection points: 3
#     Node 6, Type 0, BuildingBlock: BETDAH_clean_linker_0, # of connection points: 3
#     Node 7, Type 0, BuildingBlock: BETDAH_clean_linker_0, # of connection points: 3
#     Node 8, Type 1, BuildingBlock: LEVNOQ01_clean_sbu_1, # of connection points: 6
#     Node 9, Type 1, BuildingBlock: LEVNOQ01_clean_sbu_1, # of connection points: 6
#     Node 10, Type 1, BuildingBlock: LEVNOQ01_clean_sbu_1, # of connection points: 6
#     Node 11, Type 1, BuildingBlock: LEVNOQ01_clean_sbu_1, # of connection points: 6
#     Edge 12, Type (0, 1), BuildingBlock: AJUNOK_clean_linker_0, # of connection points: 2
#     Edge 13, Type (0, 1), BuildingBlock: AJUNOK_clean_linker_0, # of connection points: 2
#     Edge 14, Type (0, 1), BuildingBlock: AJUNOK_clean_linker_0, # of connection points: 2
#     Edge 15, Type (0, 1), BuildingBlock: AJUNOK_clean_linker_0, # of connection points: 2
#     Edge 16, Type (0, 1), BuildingBlock: AJUNOK_clean_linker_0, # of connection points: 2
#     Edge 17, Type (0, 1), BuildingBlock: AJUNOK_clean_linker_0, # of connection points: 2
#     Edge 18, Type (0, 1), BuildingBlock: AJUNOK_clean_linker_0, # of connection points: 2
#     Edge 19, Type (0, 1), BuildingBlock: AJUNOK_clean_linker_0, # of connection points: 2
#     Edge 20, Type (0, 1), BuildingBlock: AJUNOK_clean_linker_0, # of connection points: 2
#     Edge 21, Type (0, 1), BuildingBlock: AJUNOK_clean_linker_0, # of connection points: 2
#     Edge 22, Type (0, 1), BuildingBlock: AJUNOK_clean_linker_0, # of connection points: 2
#     Edge 23, Type (0, 1), BuildingBlock: AJUNOK_clean_linker_0, # of connection points: 2
#     Edge 24, Type (0, 1), BuildingBlock: AJUNOK_clean_linker_0, # of connection points: 2
#     Edge 25, Type (0, 1), BuildingBlock: AJUNOK_clean_linker_0, # of connection points: 2
#     Edge 26, Type (0, 1), BuildingBlock: AJUNOK_clean_linker_0, # of connection points: 2
#     Edge 27, Type (0, 1), BuildingBlock: AJUNOK_clean_linker_0, # of connection points: 2
#     Edge 28, Type (0, 1), BuildingBlock: AJUNOK_clean_linker_0, # of connection points: 2
#     Edge 29, Type (0, 1), BuildingBlock: AJUNOK_clean_linker_0, # of connection points: 2
#     Edge 30, Type (0, 1), BuildingBlock: AJUNOK_clean_linker_0, # of connection points: 2
#     Edge 31, Type (0, 1), BuildingBlock: AJUNOK_clean_linker_0, # of connection points: 2
#     Edge 32, Type (0, 1), BuildingBlock: AJUNOK_clean_linker_0, # of connection points: 2
#     Edge 33, Type (0, 1), BuildingBlock: AJUNOK_clean_linker_0, # of connection points: 2
#     Edge 34, Type (0, 1), BuildingBlock: AJUNOK_clean_linker_0, # of connection points: 2
#     Edge 35, Type (0, 1), BuildingBlock: AJUNOK_clean_linker_0, # of connection points: 2
# Relax obj value: 0.083
# Max RMSD: 0.171
# Mean RMSD: 0.132
data_MOF--net-pry--node1-LEVNOQ01_clean_sbu_1--node2-BETDAH_clean_linker_0--edge1-AJUNOK_clean_linker_0
_symmetry_space_group_name_H-M    P1
_symmetry_Int_Tables_number       1
_symmetry_cell_setting            triclinic
loop_
_symmetry_equiv_pos_as_xyz
'x, y, z'
_cell_length_a     26.577458
_cell_length_b     25.866693
_cell_length_c     26.41642
_cell_angle_alpha  92.905664
_cell_angle_beta   92.492386
_cell_angle_gamma 100.32698
loop_
_atom_site_label
_atom_site_type_symbol
_atom_site_fract_x
_atom_site_fract_y
_atom_site_fract_z
_atom_type_partial_charge
H0 H 0.22788 0.11884 0.24703 0.0
H1 H 0.19894 0.16518 0.09618 0.0
H2 H 0.09321 0.18439 0.21067 0.0
C3 C 0.20406 0.13524 0.22016 0.0
C4 C 0.15809 0.14987 0.23558 0.0
C5 C 0.21848 0.13906 0.16967 0.0
C6 C 0.18833 0.1616 0.13516 0.0
C7 C 0.14449 0.17996 0.1503 0.0
C8 C 0.12918 0.17374 0.20038 0.0
N9 N 0.11219 0.19658 0.11253 0.0
C10 C 0.10231 0.2476 0.11102 0.0
H11 H 0.44952 0.85648 0.73274 0.0
H12 H 0.36641 0.97834 0.69284 0.0
H13 H 0.41392 0.87915 0.57578 0.0
C14 C 0.43308 0.87783 0.70394 0.0
C15 C 0.43458 0.86232 0.65221 0.0
C16 C 0.40929 0.92023 0.71883 0.0
C17 C 0.38531 0.94608 0.68169 0.0
C18 C 0.38698 0.93062 0.62999 0.0
C19 C 0.41245 0.88999 0.61581 0.0
N20 N 0.36517 0.95598 0.59066 0.0
C21 C 0.31844 0.97238 0.59256 0.0
H22 H 0.68844 0.3022 0.96808 0.0
H23 H 0.7326 0.43663 0.88053 0.0
H24 H 0.60255 0.31982 0.82944 0.0
C25 C 0.68402 0.32282 0.93388 0.0
C26 C 0.64312 0.30387 0.89813 0.0
C27 C 0.71607 0.37097 0.92781 0.0
C28 C 0.70854 0.39873 0.8851 0.0
C29 C 0.66907 0.37997 0.84909 0.0
C30 C 0.6358 0.33236 0.85531 0.0
N31 N 0.65895 0.41511 0.81276 0.0
C32 C 0.64781 0.40259 0.76163 0.0
H33 H 0.84418 0.71358 0.50424 0.0
H34 H 0.97634 0.6743 0.43313 0.0
H35 H 0.83988 0.55841 0.43594 0.0
C36 C 0.86413 0.68437 0.4876 0.0
C37 C 0.83662 0.63374 0.47358 0.0
C38 C 0.91504 0.69938 0.47374 0.0
C39 C 0.9382 0.66267 0.44651 0.0
C40 C 0.91103 0.61198 0.43315 0.0
C41 C 0.86127 0.597 0.44849 0.0
N42 N 0.93034 0.57842 0.39814 0.0
C43 C 0.94217 0.59452 0.35004 0.0
H44 H 0.93588 0.83857 0.82447 0.0
H45 H 0.87029 0.87496 0.96569 0.0
H46 H 0.87047 0.97838 0.84385 0.0
C47 C 0.9159 0.86344 0.84744 0.0
C48 C 0.90274 0.90887 0.827 0.0
C49 C 0.90453 0.85052 0.89762 0.0
C50 C 0.8793 0.88384 0.92713 0.0
C51 C 0.8665 0.92949 0.90734 0.0
C52 C 0.87839 0.94177 0.8577 0.0
N53 N 0.84852 0.96717 0.93925 0.0
C54 C 0.79802 0.96169 0.95301 0.0
H55 H 0.69924 0.08792 0.35967 0.0
H56 H 0.67816 0.16216 0.50447 0.0
H57 H 0.56074 0.14804 0.38466 0.0
C58 C 0.67614 0.10788 0.38417 0.0
C59 C 0.62765 0.1153 0.366 0.0
C60 C 0.69528 0.12574 0.43351 0.0
C61 C 0.6643 0.14917 0.46592 0.0
C62 C 0.61604 0.15765 0.44828 0.0
C63 C 0.59787 0.14108 0.3982 0.0
N64 N 0.58514 0.17997 0.48252 0.0
C65 C 0.56836 0.22709 0.47509 0.0
H66 H 0.29929 0.79814 0.15533 0.0
H67 H 0.21708 0.68898 0.25282 0.0
H68 H 0.33821 0.81167 0.31606 0.0
C69 C 0.29193 0.78535 0.19326 0.0
C70 C 0.32186 0.81128 0.2352 0.0
C71 C 0.25487 0.7411 0.19923 0.0
C72 C 0.24591 0.72346 0.24792 0.0
C73 C 0.27532 0.74939 0.29021 0.0
C74 C 0.31422 0.79275 0.28372 0.0
N75 N 0.26646 0.73073 0.33897 0.0
C76 C 0.3004 0.70314 0.36199 0.0
H77 H 0.16148 0.37185 0.56287 0.0
H78 H 0.18044 0.53366 0.61753 0.0
H79 H 0.03633 0.43112 0.62959 0.0
C80 C 0.14486 0.40443 0.57779 0.0
C81 C 0.09409 0.39549 0.59308 0.0
C82 C 0.17586 0.45434 0.58594 0.0
C83 C 0.15581 0.49583 0.60844 0.0
C84 C 0.10613 0.48707 0.62516 0.0
C85 C 0.07483 0.43741 0.61635 0.0
N86 N 0.09083 0.52616 0.65711 0.0
C87 C 0.07767 0.51507 0.70614 0.0
O88 O 0.02601 0.03722 0.66132 0.0
Mg89 Mg 0.05647 0.09306 0.61122 0.0
O90 O 0.96501 0.00948 0.60289 0.0
Mg91 Mg 0.00494 0.04968 0.5306 0.0
O92 O 0.02061 0.13842 0.56567 0.0
O93 O 0.05317 0.16293 0.64507 0.0
O94 O 0.0489 0.08941 0.45839 0.0
O95 O 0.92395 0.07482 0.51181 0.0
Mg96 Mg 0.96339 0.00799 0.4399 0.0
O97 O 0.98335 0.96089 0.49562 0.0
O98 O 0.01707 0.03866 0.39124 0.0
O99 O 0.89601 0.03703 0.43715 0.0
O100 O 0.94551 0.93217 0.41886 0.0
C101 C 0.13031 0.05092 0.56899 0.0
C102 C 0.98389 0.00804 0.64807 0.0
C103 C 0.03298 0.17423 0.60281 0.0
C104 C 0.04912 0.07685 0.41073 0.0
C105 C 0.89004 0.06614 0.47513 0.0
C106 C 0.96501 0.92258 0.46208 0.0
O107 O 0.13074 0.09353 0.59412 0.0
O108 O 0.08757 0.02496 0.54946 0.0
O109 O 0.44737 0.10487 0.12372 0.0
Mg110 Mg 0.51532 0.10702 0.0848 0.0
O111 O 0.41158 0.04211 0.06836 0.0
Mg112 Mg 0.49153 0.01994 0.04671 0.0
O113 O 0.5188 0.10239 1.00829 0.0
O114 O 0.52437 0.17762 0.05641 0.0
O115 O 0.57138 0.99829 0.02468 0.0
O116 O 0.45719 0.99511 0.96225 0.0
Mg117 Mg 0.48146 0.89568 0.01587 0.0
O118 O 0.46554 0.93939 0.07694 0.0
O119 O 0.56121 0.91194 1.00766 0.0
O120 O 0.43531 0.90799 0.95257 0.0
O121 O 0.45155 0.85205 0.07425 0.0
C122 C 0.56421 0.06815 0.15323 0.0
C123 C 0.40723 0.07618 0.10393 0.0
C124 C 0.52636 0.15362 1.01288 0.0
C125 C 0.58967 0.9571 1.01187 0.0
C126 C 0.43638 0.95317 0.9357 0.0
C127 C 0.44973 0.89617 0.09853 0.0
O128 O 0.58312 0.10503 0.12675 0.0
O129 O 0.52505 0.03571 0.13455 0.0
O130 O 0.50644 0.64716 0.64566 0.0
Mg131 Mg 0.49096 0.5664 0.65431 0.0
O132 O 0.49695 0.63898 0.56127 0.0
Mg133 Mg 0.50516 0.55165 0.53303 0.0
O134 O 0.5364 0.53271 0.60888 0.0
O135 O 0.54388 0.53179 0.6927 0.0
O136 O 0.51472 0.46457 0.50907 0.0
O137 O 0.58993 0.58278 0.51208 0.0
Mg138 Mg 0.51365 0.52581 0.41719 0.0
O139 O 0.46944 0.56857 0.45625 0.0
O140 O 0.4975 0.44442 0.42721 0.0
O141 O 0.59103 0.56221 0.4297 0.0
O142 O 0.46465 0.55817 0.37168 0.0
C143 C 0.39541 0.51182 0.59209 0.0
C144 C 0.5019 0.66713 0.60334 0.0
C145 C 0.55773 0.51747 0.64876 0.0
C146 C 0.50847 0.43091 0.47108 0.0
C147 C 0.61405 0.582 0.4712 0.0
C148 C 0.44941 0.57801 0.41281 0.0
O149 O 0.41495 0.5253 0.63663 0.0
O150 O 0.42159 0.5198 0.55293 0.0
O151 O 0.03418 0.47462 0.12406 0.0
Mg152 Mg 0.04883 0.54878 0.09668 0.0
O153 O 0.04587 0.47528 0.04308 0.0
Mg154 Mg 0.01011 0.5575 0.02685 0.0
O155 O 0.98857 0.58531 0.11052 0.0
O156 O 0.06087 0.59851 0.15929 0.0
O157 O 0.97362 0.63923 1.00575 0.0
O158 O 0.93481 0.49409 0.0265 0.0
Mg159 Mg 0.96672 0.55916 0.95772 0.0
O160 O 0.03188 0.53031 0.94399 0.0
O161 O 0.97507 0.62886 0.92351 0.0
O162 O 0.8921 0.54286 0.98554 0.0
O163 O 0.95783 0.50309 0.89985 0.0
C164 C 0.12747 0.60784 0.0507 0.0
C165 C 0.0458 0.45135 0.0846 0.0
C166 C 0.01381 0.60322 0.15291 0.0
C167 C 0.96863 0.65751 0.96155 0.0
C168 C 0.89185 0.50345 1.01124 0.0
C169 C 0.00646 0.50557 0.90426 0.0
O170 O 0.12352 0.56368 0.06905 0.0
O171 O 0.08641 0.61975 0.03258 0.0
C172 C 0.11244 0.16872 0.31543 0.0
C173 C 0.13777 0.13494 0.28617 0.0
C174 C 0.08792 0.1523 0.35986 0.0
C175 C 0.08834 0.10172 0.37689 0.0
H176 H 0.10992 0.20744 0.30291 0.0
H177 H 0.06574 0.17794 0.37894 0.0
S178 S 0.1496 0.99836 0.31605 0.0
N179 N 0.1612 0.04803 0.2789 0.0
N180 N 0.11779 0.01907 0.3629 0.0
C181 C 0.11575 0.06886 0.34975 0.0
C182 C 0.13973 0.08489 0.30434 0.0
C183 C 0.44812 0.97584 0.79611 0.0
C184 C 0.40919 0.93624 0.77349 0.0
C185 C 0.45376 0.98517 0.84923 0.0
C186 C 0.42094 0.95472 0.88128 0.0
H187 H 0.47595 0.99776 0.77277 0.0
H188 H 0.48628 0.01351 0.86531 0.0
S189 S 0.30967 0.85049 0.83995 0.0
N190 N 0.33484 0.86989 0.78647 0.0
N191 N 0.34542 0.88682 0.88602 0.0
C192 C 0.38004 0.91732 0.85866 0.0
C193 C 0.37424 0.90813 0.80482 0.0
C194 C 0.66458 0.46093 0.6941 0.0
C195 C 0.63656 0.414 0.71045 0.0
C196 C 0.64094 0.49243 0.66267 0.0
C197 C 0.58922 0.47696 0.6467 0.0
H198 H 0.70195 0.47742 0.71191 0.0
H199 H 0.66058 0.5322 0.65766 0.0
S200 S 0.50561 0.34978 0.66596 0.0
N201 N 0.55929 0.34782 0.69926 0.0
N202 N 0.51525 0.40635 0.63832 0.0
C203 C 0.56451 0.42563 0.65477 0.0
C204 C 0.58818 0.39406 0.68754 0.0
C205 C 0.00125 0.63854 0.29012 0.0
C206 C 0.95382 0.60795 0.29906 0.0
C207 C 0.01783 0.64284 0.24067 0.0
C208 C 0.98767 0.61611 0.19882 0.0
H209 H 0.02705 0.65642 0.32163 0.0
H210 H 0.05639 0.66346 0.2357 0.0
S211 S 0.8564 0.53838 0.20284 0.0
N212 N 0.87373 0.55682 0.26281 0.0
N213 N 0.90501 0.56391 0.16955 0.0
C214 C 0.93787 0.58989 0.20715 0.0
C215 C 0.92101 0.58575 0.25759 0.0
C216 C 0.31132 0.1333 0.18219 0.0
C217 C 0.26493 0.1191 0.15312 0.0
C218 C 0.35618 0.11735 0.1666 0.0
C219 C 0.35694 0.08635 0.12116 0.0
H220 H 0.31339 0.1582 0.21672 0.0
H221 H 0.39095 0.13046 0.1902 0.0
S222 S 0.24408 0.03355 0.03408 0.0
N223 N 0.22119 0.06826 0.0789 0.0
N224 N 0.3059 0.03902 0.04904 0.0
C225 C 0.31032 0.07006 0.09263 0.0
C226 C 0.26437 0.08634 0.10865 0.0
C227 C 0.2241 0.95678 0.57943 0.0
C228 C 0.27121 0.99169 0.58626 0.0
C229 C 0.17824 0.97572 0.57077 0.0
C230 C 0.17856 0.03004 0.56883 0.0
H231 H 0.22266 0.91477 0.58111 0.0
H232 H 0.14235 0.94797 0.56745 0.0
S233 S 0.29361 0.13636 0.58006 0.0
N234 N 0.31641 0.08176 0.58753 0.0
N235 N 0.23094 0.11785 0.57111 0.0
C236 C 0.22609 0.06486 0.57396 0.0
C237 C 0.27232 0.04552 0.58281 0.0
C238 C 0.75345 0.44728 0.98612 0.0
C239 C 0.7555 0.39611 0.9667 0.0
C240 C 0.79745 0.48055 1.00709 0.0
C241 C 0.84472 0.46349 1.00976 0.0
H242 H 0.71882 0.46338 0.98036 0.0
H243 H 0.79545 0.52133 0.0168 0.0
S244 S 0.86754 0.32966 0.97317 0.0
N245 N 0.80618 0.32734 0.95799 0.0
N246 N 0.88921 0.38956 0.99878 0.0
C247 C 0.84572 0.41028 0.99662 0.0
C248 C 0.80085 0.37654 0.9746 0.0
C249 C 0.75405 0.6247 0.51872 0.0
C250 C 0.78 0.62314 0.47359 0.0
C251 C 0.70015 0.61301 0.51788 0.0
C252 C 0.67059 0.60004 0.47178 0.0
H253 H 0.77555 0.6338 0.55483 0.0
H254 H 0.68168 0.61297 0.55363 0.0
S255 S 0.72156 0.59674 0.34272 0.0
N256 N 0.77287 0.61176 0.38168 0.0
N257 N 0.67248 0.59059 0.37944 0.0
C258 C 0.69668 0.60076 0.42628 0.0
C259 C 0.75111 0.61209 0.42736 0.0
C260 C 0.06787 0.31072 0.05736 0.0
C261 C 0.09042 0.29947 0.10383 0.0
C262 C 0.05483 0.36049 0.05018 0.0
C263 C 0.06353 0.40027 0.08955 0.0
H264 H 0.05974 0.28067 0.02654 0.0
H265 H 0.03657 0.3673 0.01428 0.0
S266 S 0.12588 0.39112 0.21693 0.0
N267 N 0.1237 0.33244 0.18832 0.0
N268 N 0.0996 0.42554 0.17562 0.0
C269 C 0.08753 0.38948 0.13569 0.0
C270 C 0.10086 0.33915 0.14268 0.0
C271 C 0.56597 0.27632 0.94489 0.0
C272 C 0.60248 0.26192 0.9129 0.0
C273 C 0.5369 0.23909 0.97329 0.0
C274 C 0.5435 0.18626 0.97064 0.0
H275 H 0.56302 0.31737 0.95126 0.0
H276 H 0.51208 0.25269 1.00051 0.0
S277 S 0.62649 0.1273 0.88391 0.0
N278 N 0.63835 0.19077 0.87378 0.0
N279 N 0.58297 0.1199 0.92706 0.0
C280 C 0.57561 0.17031 0.93434 0.0
C281 C 0.60561 0.20856 0.90559 0.0
C282 C 0.95696 0.77844 0.43203 0.0
C283 C 0.93905 0.75588 0.47665 0.0
C284 C 0.96965 0.83283 0.42955 0.0
C285 C 0.96493 0.86699 0.47146 0.0
H286 H 0.95775 0.75421 0.39749 0.0
H287 H 0.98031 0.84835 0.39339 0.0
S288 S 0.92834 0.82786 0.59965 0.0
N289 N 0.92383 0.7715 0.56581 0.0
N290 N 0.94736 0.87475 0.56077 0.0
C291 C 0.9515 0.84523 0.51766 0.0
C292 C 0.93836 0.78937 0.52024 0.0
C293 C 0.42844 0.77799 0.59934 0.0
C294 C 0.45639 0.81562 0.63539 0.0
C295 C 0.44614 0.73178 0.58497 0.0
C296 C 0.49251 0.7216 0.60591 0.0
H297 H 0.39134 0.78306 0.58384 0.0
H298 H 0.42159 0.7022 0.56015 0.0
S299 S 0.58274 0.80945 0.69757 0.0
N300 N 0.53496 0.84143 0.68822 0.0
N301 N 0.56773 0.754 0.66189 0.0
C302 C 0.52199 0.75988 0.6401 0.0
C303 C 0.50404 0.80698 0.65472 0.0
C304 C 0.9712 0.92871 0.76485 0.0
C305 C 0.91958 0.9256 0.77607 0.0
C306 C 0.99039 0.95237 0.72133 0.0
C307 C 0.95885 0.97348 0.68664 0.0
H308 H 0.99775 0.9155 0.79138 0.0
H309 H 0.03105 0.95615 0.7159 0.0
S310 S 0.81935 0.96931 0.69499 0.0
N311 N 0.83597 0.94115 0.74638 0.0
N312 N 0.87225 0.98541 0.66424 0.0
C313 C 0.9064 0.9674 0.6954 0.0
C314 C 0.88682 0.94372 0.74025 0.0
C315 C 0.6446 0.1127 0.27391 0.0
C316 C 0.61058 0.09871 0.31231 0.0
C317 C 0.63011 0.09934 0.22278 0.0
C318 C 0.58097 0.07126 0.20766 0.0
H319 H 0.68243 0.13566 0.2833 0.0
H320 H 0.65721 0.11277 0.19465 0.0
S321 S 0.47854 0.02158 0.29344 0.0
N322 N 0.52643 0.05222 0.33206 0.0
N323 N 0.49886 0.02741 0.23542 0.0
C324 C 0.54707 0.05501 0.24567 0.0
C325 C 0.56183 0.06894 0.29807 0.0
C326 C 0.32703 0.61765 0.36658 0.0
C327 C 0.33528 0.67142 0.38135 0.0
C328 C 0.36323 0.58684 0.37981 0.0
C329 C 0.40832 0.60881 0.40876 0.0
H330 H 0.29336 0.59974 0.34305 0.0
H331 H 0.35677 0.54592 0.3659 0.0
S332 S 0.44732 0.748 0.45629 0.0
N333 N 0.39108 0.74568 0.42615 0.0
N334 N 0.45903 0.6873 0.45211 0.0
C335 C 0.41605 0.66216 0.42535 0.0
C336 C 0.37944 0.69372 0.41121 0.0
C337 C 0.09498 0.53183 0.79826 0.0
C338 C 0.06514 0.5037 0.75731 0.0
C339 C 0.07896 0.52724 0.84799 0.0
C340 C 0.03249 0.49456 0.85781 0.0
H341 H 0.12928 0.55973 0.79155 0.0
H342 H 0.10073 0.55293 0.87801 0.0
S343 S 0.94554 0.40646 0.7636 0.0
N344 N 0.99097 0.43767 0.7297 0.0
N345 N 0.9609 0.42824 0.8231 0.0
C346 C 0.00517 0.46252 0.81738 0.0
C347 C 0.02138 0.46749 0.76694 0.0
C348 C 0.71422 0.91417 0.97688 0.0
C349 C 0.74649 0.96164 0.96865 0.0
C350 C 0.66416 0.91359 0.99192 0.0
C351 C 0.64438 0.96053 0.99936 0.0
H352 H 0.72762 0.8772 0.97145 0.0
H353 H 0.64071 0.8757 0.9974 0.0
S354 S 0.71562 0.09546 0.9834 0.0
N355 N 0.7568 0.05672 0.96941 0.0
N356 N 0.6627 0.05613 0.9978 0.0
C357 C 0.67705 0.00845 0.99179 0.0
C358 C 0.72807 0.00884 0.97631 0.0
C359 C 0.75663 0.09269 0.49385 0.0
C360 C 0.74791 0.1197 0.45022 0.0
C361 C 0.80475 0.07911 0.50505 0.0
C362 C 0.84537 0.09253 0.47304 0.0
H363 H 0.72531 0.07921 0.51765 0.0
H364 H 0.80913 0.05503 0.53676 0.0
S365 S 0.84446 0.16984 0.35881 0.0
N366 N 0.78574 0.16458 0.37855 0.0
N367 N 0.8755 0.13864 0.39932 0.0
C368 C 0.83804 0.12268 0.43157 0.0
C369 C 0.78947 0.13642 0.42021 0.0
C370 C 0.18655 0.72876 0.12979 0.0
C371 C 0.22814 0.7116 0.15386 0.0
C372 C 0.15754 0.69806 0.08978 0.0
C373 C 0.16932 0.6492 0.07301 0.0
H374 H 0.17474 0.76459 0.14381 0.0
H375 H 0.12296 0.7103 0.0755 0.0
S376 S 0.282 0.59375 0.11671 0.0
N377 N 0.28516 0.64816 0.15319 0.0
N378 N 0.231 0.59031 0.07774 0.0
C379 C 0.21453 0.63508 0.09315 0.0
C380 C 0.24367 0.66612 0.13402 0.0
C381 C 0.25626 0.49394 0.546 0.0
C382 C 0.23169 0.46109 0.58168 0.0
C383 C 0.30989 0.50757 0.54753 0.0
C384 C 0.3402 0.49001 0.58578 0.0
H385 H 0.23384 0.51051 0.51794 0.0
H386 H 0.32752 0.53437 0.52047 0.0
S387 S 0.29373 0.40125 0.68636 0.0
N388 N 0.24117 0.40927 0.65438 0.0
N389 N 0.34182 0.43593 0.65825 0.0
C390 C 0.31594 0.45579 0.62055 0.0
C391 C 0.26163 0.4411 0.61827 0.0
C392 C 0.90729 0.75443 0.88809 0.0
C393 C 0.91855 0.80172 0.91818 0.0
C394 C 0.92208 0.7084 0.90411 0.0
C395 C 0.94913 0.70691 0.95114 0.0
H396 H 0.88703 0.75293 0.8514 0.0
H397 H 0.91264 0.6735 0.87861 0.0
S398 S 0.98745 0.8199 0.04516 0.0
N399 N 0.9578 0.84435 0.99819 0.0
N400 N 0.98541 0.75707 0.0284 0.0
C401 C 0.95939 0.75342 0.98261 0.0
C402 C 0.94424 0.80089 0.96611 0.0
C403 C 0.41261 0.83755 0.21949 0.0
C404 C 0.36493 0.85274 0.22458 0.0
C405 C 0.44472 0.85823 0.18207 0.0
C406 C 0.43014 0.89499 0.14956 0.0
H407 H 0.42153 0.80406 0.2388 0.0
H408 H 0.47799 0.84075 0.17457 0.0
S409 S 0.31566 0.95714 0.15808 0.0
N410 N 0.31003 0.91449 0.20281 0.0
N411 N 0.37035 0.95334 0.13191 0.0
C412 C 0.38701 0.91689 0.16035 0.0
C413 C 0.35441 0.89587 0.19855 0.0
C414 C 0.06403 0.30672 0.5483 0.0
C415 C 0.06496 0.34073 0.59186 0.0
C416 C 0.04753 0.25218 0.55007 0.0
C417 C 0.03182 0.23012 0.59561 0.0
H418 H 0.07916 0.32201 0.51353 0.0
H419 H 0.05152 0.22699 0.517 0.0
S420 S 0.01944 0.30224 0.7179 0.0
N421 N 0.04327 0.34843 0.68023 0.0
N422 N 0.01111 0.24643 0.68288 0.0
C423 C 0.02764 0.26408 0.63777 0.0
C424 C 0.04458 0.31934 0.63614 0.0
C425 C 0.51085 0.28556 0.44396 0.0
C426 C 0.55281 0.27792 0.47492 0.0
C427 C 0.49548 0.33485 0.44425 0.0
C428 C 0.52116 0.37778 0.47606 0.0
H429 H 0.49011 0.25347 0.41907 0.0
H430 H 0.46359 0.33956 0.41902 0.0
S431 S 0.63551 0.37773 0.56186 0.0
N432 N 0.6208 0.31679 0.5368 0.0
N433 N 0.59228 0.40936 0.53748 0.0
C434 C 0.56315 0.37017 0.5073 0.0
C435 C 0.57893 0.3202 0.50662 0.0
loop_
_geom_bond_atom_site_label_1
_geom_bond_atom_site_label_2
_geom_bond_distance
_geom_bond_site_symmetry_2
_ccdc_geom_bond_type
H0 C3 0.929 . S
H1 C6 0.929 . S
H2 C8 0.930 . S
C3 H0 0.929 . S
C3 C4 1.398 . S
C3 C5 1.396 . S
C4 C3 1.398 . S
C4 C8 1.407 . S
C5 C3 1.396 . S
C5 C6 1.394 . S
C6 H1 0.929 . S
C6 C5 1.394 . S
C6 C7 1.382 . S
C7 C6 1.382 . S
C7 C8 1.392 . S
C7 N9 1.420 . S
C8 H2 0.930 . S
C8 C4 1.407 . S
C8 C7 1.392 . S
N9 C7 1.420 . S
N9 C10 1.244 . S
C10 N9 1.244 . S
H11 C14 0.929 . S
H12 C17 0.929 . S
H13 C19 0.930 . S
C14 H11 0.929 . S
C14 C15 1.398 . S
C14 C16 1.396 . S
C15 C14 1.398 . S
C15 C19 1.407 . S
C16 C14 1.396 . S
C16 C17 1.394 . S
C17 H12 0.929 . S
C17 C16 1.394 . S
C17 C18 1.382 . S
C18 C17 1.382 . S
C18 C19 1.392 . S
C18 N20 1.420 . S
C19 H13 0.930 . S
C19 C15 1.407 . S
C19 C18 1.392 . S
N20 C18 1.420 . S
N20 C21 1.244 . S
C21 N20 1.244 . S
H22 C25 0.929 . S
H23 C28 0.929 . S
H24 C30 0.930 . S
C25 H22 0.929 . S
C25 C26 1.398 . S
C25 C27 1.396 . S
C26 C25 1.398 . S
C26 C30 1.407 . S
C27 C25 1.396 . S
C27 C28 1.394 . S
C28 H23 0.929 . S
C28 C27 1.394 . S
C28 C29 1.382 . S
C29 C28 1.382 . S
C29 C30 1.392 . S
C29 N31 1.420 . S
C30 H24 0.930 . S
C30 C26 1.407 . S
C30 C29 1.392 . S
N31 C29 1.420 . S
N31 C32 1.244 . S
C32 N31 1.244 . S
H33 C36 0.929 . S
H34 C39 0.929 . S
H35 C41 0.930 . S
C36 H33 0.929 . S
C36 C37 1.398 . S
C36 C38 1.396 . S
C37 C36 1.398 . S
C37 C41 1.407 . S
C38 C36 1.396 . S
C38 C39 1.394 . S
C39 H34 0.929 . S
C39 C38 1.394 . S
C39 C40 1.382 . S
C40 C39 1.382 . S
C40 C41 1.392 . S
C40 N42 1.420 . S
C41 H35 0.930 . S
C41 C37 1.407 . S
C41 C40 1.392 . S
N42 C40 1.420 . S
N42 C43 1.244 . S
C43 N42 1.244 . S
H44 C47 0.929 . S
H45 C50 0.929 . S
H46 C52 0.930 . S
C47 H44 0.929 . S
C47 C48 1.398 . S
C47 C49 1.396 . S
C48 C47 1.398 . S
C48 C52 1.407 . S
C49 C47 1.396 . S
C49 C50 1.394 . S
C50 H45 0.929 . S
C50 C49 1.394 . S
C50 C51 1.382 . S
C51 C50 1.382 . S
C51 C52 1.392 . S
C51 N53 1.420 . S
C52 H46 0.930 . S
C52 C48 1.407 . S
C52 C51 1.392 . S
N53 C51 1.420 . S
N53 C54 1.244 . S
C54 N53 1.244 . S
H55 C58 0.929 . S
H56 C61 0.929 . S
H57 C63 0.930 . S
C58 H55 0.929 . S
C58 C59 1.398 . S
C58 C60 1.396 . S
C59 C58 1.398 . S
C59 C63 1.407 . S
C60 C58 1.396 . S
C60 C61 1.394 . S
C61 H56 0.929 . S
C61 C60 1.394 . S
C61 C62 1.382 . S
C62 C61 1.382 . S
C62 C63 1.392 . S
C62 N64 1.420 . S
C63 H57 0.930 . S
C63 C59 1.407 . S
C63 C62 1.392 . S
N64 C62 1.420 . S
N64 C65 1.244 . S
C65 N64 1.244 . S
H66 C69 0.929 . S
H67 C72 0.929 . S
H68 C74 0.930 . S
C69 H66 0.929 . S
C69 C70 1.398 . S
C69 C71 1.396 . S
C70 C69 1.398 . S
C70 C74 1.407 . S
C71 C69 1.396 . S
C71 C72 1.394 . S
C72 H67 0.929 . S
C72 C71 1.394 . S
C72 C73 1.382 . S
C73 C72 1.382 . S
C73 C74 1.392 . S
C73 N75 1.420 . S
C74 H68 0.930 . S
C74 C70 1.407 . S
C74 C73 1.392 . S
N75 C73 1.420 . S
N75 C76 1.244 . S
C76 N75 1.244 . S
H77 C80 0.929 . S
H78 C83 0.929 . S
H79 C85 0.930 . S
C80 H77 0.929 . S
C80 C81 1.398 . S
C80 C82 1.396 . S
C81 C80 1.398 . S
C81 C85 1.407 . S
C82 C80 1.396 . S
C82 C83 1.394 . S
C83 H78 0.929 . S
C83 C82 1.394 . S
C83 C84 1.382 . S
C84 C83 1.382 . S
C84 C85 1.392 . S
C84 N86 1.420 . S
C85 H79 0.930 . S
C85 C81 1.407 . S
C85 C84 1.392 . S
N86 C84 1.420 . S
N86 C87 1.244 . S
C87 N86 1.244 . S
O88 Mg89 1.990 . S
O88 C102 1.253 1_445 S
Mg89 O88 1.990 . S
Mg89 O92 2.180 . S
Mg89 O93 2.117 . S
Mg89 O107 2.030 . S
O90 Mg91 2.072 1_665 S
O90 C102 1.260 . S
Mg91 O90 2.072 1_445 S
Mg91 O92 2.099 . S
Mg91 O94 2.079 . S
Mg91 O95 2.072 1_455 S
Mg91 O97 2.099 1_445 S
Mg91 O108 2.079 . S
O92 Mg89 2.180 . S
O92 Mg91 2.099 . S
O92 C103 1.279 . S
O93 Mg89 2.117 . S
O93 C103 1.250 . S
O94 Mg91 2.079 . S
O94 C104 1.264 . S
O95 Mg91 2.072 1_655 S
O95 C105 1.260 . S
Mg96 O97 2.180 . S
Mg96 O98 2.030 1_565 S
Mg96 O99 1.990 1_565 S
Mg96 O100 2.117 . S
O97 Mg91 2.099 1_665 S
O97 Mg96 2.180 . S
O97 C106 1.279 . S
O98 Mg96 2.030 1_545 S
O98 C104 1.248 1_655 S
O99 Mg96 1.990 1_545 S
O99 C105 1.253 . S
O100 Mg96 2.117 . S
O100 C106 1.250 . S
C101 O107 1.248 1_565 S
C101 O108 1.264 1_565 S
C102 O88 1.253 1_665 S
C102 O90 1.260 . S
C103 O92 1.279 . S
C103 O93 1.250 . S
C104 O94 1.264 . S
C104 O98 1.248 1_455 S
C105 O95 1.260 . S
C105 O99 1.253 . S
C106 O97 1.279 . S
C106 O100 1.250 . S
O107 Mg89 2.030 . S
O107 C101 1.248 1_545 S
O108 Mg91 2.079 . S
O108 C101 1.264 1_545 S
O109 Mg110 1.990 . S
O109 C123 1.253 . S
Mg110 O109 1.990 . S
Mg110 O113 2.180 . S
Mg110 O114 2.117 . S
Mg110 O128 2.030 . S
O111 Mg112 2.072 . S
O111 C123 1.260 . S
Mg112 O111 2.072 . S
Mg112 O113 2.099 . S
Mg112 O115 2.079 . S
Mg112 O116 2.072 1_554 S
Mg112 O118 2.099 1_545 S
Mg112 O129 2.079 . S
O113 Mg110 2.180 . S
O113 Mg112 2.099 . S
O113 C124 1.265 1_554 S
O114 Mg110 2.117 . S
O114 C124 1.245 1_554 S
O115 Mg112 2.079 . S
O115 C125 1.264 1_544 S
O116 Mg112 2.072 1_556 S
O116 C126 1.260 1_545 S
Mg117 O118 2.180 1_556 S
Mg117 O119 2.030 . S
Mg117 O120 1.990 . S
Mg117 O121 2.117 1_556 S
O118 Mg112 2.099 1_565 S
O118 Mg117 2.180 1_554 S
O118 C127 1.279 . S
O119 Mg117 2.030 . S
O119 C125 1.248 . S
O120 Mg117 1.990 . S
O120 C126 1.253 . S
O121 Mg117 2.117 1_554 S
O121 C127 1.250 . S
C122 O128 1.248 . S
C122 O129 1.264 . S
C123 O109 1.253 . S
C123 O111 1.260 . S
C124 O113 1.265 1_556 S
C124 O114 1.245 1_556 S
C125 O115 1.264 1_566 S
C125 O119 1.248 . S
C126 O116 1.260 1_565 S
C126 O120 1.253 . S
C127 O118 1.279 . S
C127 O121 1.250 . S
O128 Mg110 2.030 . S
O128 C122 1.248 . S
O129 Mg112 2.079 . S
O129 C122 1.264 . S
O130 Mg131 1.990 . S
O130 C144 1.253 . S
Mg131 O130 1.990 . S
Mg131 O134 2.180 . S
Mg131 O135 2.117 . S
Mg131 O149 2.030 . S
O132 Mg133 2.072 . S
O132 C144 1.260 . S
Mg133 O132 2.072 . S
Mg133 O134 2.099 . S
Mg133 O136 2.079 . S
Mg133 O137 2.072 . S
Mg133 O139 2.099 . S
Mg133 O150 2.079 . S
O134 Mg131 2.180 . S
O134 Mg133 2.099 . S
O134 C145 1.279 . S
O135 Mg131 2.117 . S
O135 C145 1.250 . S
O136 Mg133 2.079 . S
O136 C146 1.264 . S
O137 Mg133 2.072 . S
O137 C147 1.260 . S
Mg138 O139 2.180 . S
Mg138 O140 2.030 . S
Mg138 O141 1.990 . S
Mg138 O142 2.117 . S
O139 Mg133 2.099 . S
O139 Mg138 2.180 . S
O139 C148 1.279 . S
O140 Mg138 2.030 . S
O140 C146 1.248 . S
O141 Mg138 1.990 . S
O141 C147 1.253 . S
O142 Mg138 2.117 . S
O142 C148 1.250 . S
C143 O149 1.248 . S
C143 O150 1.264 . S
C144 O130 1.253 . S
C144 O132 1.260 . S
C145 O134 1.279 . S
C145 O135 1.250 . S
C146 O136 1.264 . S
C146 O140 1.248 . S
C147 O137 1.260 . S
C147 O141 1.253 . S
C148 O139 1.279 . S
C148 O142 1.250 . S
O149 Mg131 2.030 . S
O149 C143 1.248 . S
O150 Mg133 2.079 . S
O150 C143 1.264 . S
O151 Mg152 1.990 . S
O151 C165 1.253 . S
Mg152 O151 1.990 . S
Mg152 O155 2.180 . S
Mg152 O156 2.117 1_455 S
Mg152 O170 2.030 . S
O153 Mg154 2.072 . S
O153 C165 1.260 . S
Mg154 O153 2.072 . S
Mg154 O155 2.099 . S
Mg154 O157 2.079 1_554 S
Mg154 O158 2.072 1_455 S
Mg154 O160 2.099 1_554 S
Mg154 O171 2.079 . S
O155 Mg152 2.180 . S
O155 Mg154 2.099 . S
O155 C166 1.279 1_455 S
O156 Mg152 2.117 1_655 S
O156 C166 1.250 . S
O157 Mg154 2.079 1_556 S
O157 C167 1.264 1_455 S
O158 Mg154 2.072 1_655 S
O158 C168 1.259 1_554 S
Mg159 O160 2.180 1_655 S
Mg159 O161 2.030 . S
Mg159 O162 1.990 . S
Mg159 O163 2.117 1_655 S
O160 Mg154 2.099 1_556 S
O160 Mg159 2.180 1_455 S
O160 C169 1.279 . S
O161 Mg159 2.030 . S
O161 C167 1.248 . S
O162 Mg159 1.990 . S
O162 C168 1.253 . S
O163 Mg159 2.117 1_455 S
O163 C169 1.250 . S
C164 O170 1.248 . S
C164 O171 1.264 . S
C165 O151 1.253 . S
C165 O153 1.260 . S
C166 O155 1.279 1_655 S
C166 O156 1.250 . S
C167 O157 1.264 1_655 S
C167 O161 1.248 . S
C168 O158 1.259 1_556 S
C168 O162 1.253 . S
C169 O160 1.279 . S
C169 O163 1.250 . S
O170 Mg152 2.030 . S
O170 C164 1.248 . S
O171 Mg154 2.079 . S
O171 C164 1.264 . S
C172 C173 1.369 . S
C172 C174 1.419 . S
C172 H176 0.930 . S
C173 C172 1.369 . S
C173 C182 1.429 . S
C174 C172 1.419 . S
C174 C175 1.363 . S
C174 H177 0.929 . S
C175 C174 1.363 . S
C175 C181 1.428 . S
H176 C172 0.930 . S
H177 C174 0.929 . S
S178 N179 1.613 . S
S178 N180 1.610 . S
N179 S178 1.613 . S
N179 C182 1.350 . S
N180 S178 1.610 . S
N180 C181 1.351 . S
C181 C175 1.428 . S
C181 N180 1.351 . S
C181 C182 1.434 . S
C182 C173 1.429 . S
C182 N179 1.350 . S
C182 C181 1.434 . S
C183 C184 1.369 . S
C183 C185 1.419 1_565 S
C183 H187 0.930 1_565 S
C184 C183 1.369 . S
C184 C193 1.429 . S
C185 C183 1.419 1_545 S
C185 C186 1.363 1_545 S
C185 H188 0.929 . S
C186 C185 1.363 1_565 S
C186 C192 1.428 . S
H187 C183 0.930 1_545 S
H188 C185 0.929 . S
S189 N190 1.613 . S
S189 N191 1.610 . S
N190 S189 1.613 . S
N190 C193 1.350 . S
N191 S189 1.610 . S
N191 C192 1.351 . S
C192 C186 1.428 . S
C192 N191 1.351 . S
C192 C193 1.434 . S
C193 C184 1.429 . S
C193 N190 1.350 . S
C193 C192 1.434 . S
C194 C195 1.369 . S
C194 C196 1.419 . S
C194 H198 0.930 . S
C195 C194 1.369 . S
C195 C204 1.429 . S
C196 C194 1.419 . S
C196 C197 1.363 . S
C196 H199 0.929 . S
C197 C196 1.363 . S
C197 C203 1.428 . S
H198 C194 0.930 . S
H199 C196 0.929 . S
S200 N201 1.613 . S
S200 N202 1.610 . S
N201 S200 1.613 . S
N201 C204 1.350 . S
N202 S200 1.610 . S
N202 C203 1.351 . S
C203 C197 1.428 . S
C203 N202 1.351 . S
C203 C204 1.434 . S
C204 C195 1.429 . S
C204 N201 1.350 . S
C204 C203 1.434 . S
C205 C206 1.369 . S
C205 C207 1.419 . S
C205 H209 0.930 . S
C206 C205 1.369 . S
C206 C215 1.429 . S
C207 C205 1.419 . S
C207 C208 1.363 . S
C207 H210 0.929 . S
C208 C207 1.363 . S
C208 C214 1.428 . S
H209 C205 0.930 . S
H210 C207 0.929 . S
S211 N212 1.613 . S
S211 N213 1.610 . S
N212 S211 1.613 . S
N212 C215 1.350 . S
N213 S211 1.610 . S
N213 C214 1.351 . S
C214 C208 1.428 . S
C214 N213 1.351 . S
C214 C215 1.434 . S
C215 C206 1.429 . S
C215 N212 1.350 . S
C215 C214 1.434 . S
C216 C217 1.369 . S
C216 C218 1.419 . S
C216 H220 0.930 . S
C217 C216 1.369 . S
C217 C226 1.429 . S
C218 C216 1.419 . S
C218 C219 1.363 . S
C218 H221 0.929 . S
C219 C218 1.363 . S
C219 C225 1.428 . S
H220 C216 0.930 . S
H221 C218 0.929 . S
S222 N223 1.613 1_556 S
S222 N224 1.610 1_556 S
N223 S222 1.613 1_554 S
N223 C226 1.350 . S
N224 S222 1.610 1_554 S
N224 C225 1.351 . S
C225 C219 1.428 . S
C225 N224 1.351 . S
C225 C226 1.434 . S
C226 C217 1.429 . S
C226 N223 1.350 . S
C226 C225 1.434 . S
C227 C228 1.369 . S
C227 C229 1.419 . S
C227 H231 0.930 . S
C228 C227 1.369 . S
C228 C237 1.429 1_565 S
C229 C227 1.419 . S
C229 C230 1.363 . S
C229 H232 0.929 . S
C230 C229 1.363 . S
C230 C236 1.428 1_565 S
H231 C227 0.930 . S
H232 C229 0.929 . S
S233 N234 1.613 . S
S233 N235 1.610 . S
N234 S233 1.613 . S
N234 C237 1.350 . S
N235 S233 1.610 . S
N235 C236 1.351 . S
C236 C230 1.428 1_545 S
C236 N235 1.351 . S
C236 C237 1.434 . S
C237 C228 1.429 1_545 S
C237 N234 1.350 . S
C237 C236 1.434 . S
C238 C239 1.369 . S
C238 C240 1.419 . S
C238 H242 0.930 . S
C239 C238 1.369 . S
C239 C248 1.429 . S
C240 C238 1.419 . S
C240 C241 1.363 . S
C240 H243 0.929 . S
C241 C240 1.363 . S
C241 C247 1.428 . S
H242 C238 0.930 . S
H243 C240 0.929 . S
S244 N245 1.613 . S
S244 N246 1.610 . S
N245 S244 1.613 . S
N245 C248 1.350 . S
N246 S244 1.610 . S
N246 C247 1.351 . S
C247 C241 1.428 . S
C247 N246 1.351 . S
C247 C248 1.434 . S
C248 C239 1.429 . S
C248 N245 1.350 . S
C248 C247 1.434 . S
C249 C250 1.369 . S
C249 C251 1.419 . S
C249 H253 0.930 . S
C250 C249 1.369 . S
C250 C259 1.429 . S
C251 C249 1.419 . S
C251 C252 1.363 . S
C251 H254 0.929 . S
C252 C251 1.363 . S
C252 C258 1.428 . S
H253 C249 0.930 . S
H254 C251 0.929 . S
S255 N256 1.613 . S
S255 N257 1.610 . S
N256 S255 1.613 . S
N256 C259 1.350 . S
N257 S255 1.610 . S
N257 C258 1.351 . S
C258 C252 1.428 . S
C258 N257 1.351 . S
C258 C259 1.434 . S
C259 C250 1.429 . S
C259 N256 1.350 . S
C259 C258 1.434 . S
C260 C261 1.369 . S
C260 C262 1.419 . S
C260 H264 0.930 . S
C261 C260 1.369 . S
C261 C270 1.429 . S
C262 C260 1.419 . S
C262 C263 1.363 . S
C262 H265 0.929 1_554 S
C263 C262 1.363 . S
C263 C269 1.428 . S
H264 C260 0.930 . S
H265 C262 0.929 1_556 S
S266 N267 1.613 . S
S266 N268 1.610 . S
N267 S266 1.613 . S
N267 C270 1.350 . S
N268 S266 1.610 . S
N268 C269 1.351 . S
C269 C263 1.428 . S
C269 N268 1.351 . S
C269 C270 1.434 . S
C270 C261 1.429 . S
C270 N267 1.350 . S
C270 C269 1.434 . S
C271 C272 1.369 . S
C271 C273 1.419 1_556 S
C271 H275 0.930 1_556 S
C272 C271 1.369 . S
C272 C281 1.429 . S
C273 C271 1.419 1_554 S
C273 C274 1.363 1_554 S
C273 H276 0.929 . S
C274 C273 1.363 1_556 S
C274 C280 1.428 . S
H275 C271 0.930 1_554 S
H276 C273 0.929 . S
S277 N278 1.613 . S
S277 N279 1.610 . S
N278 S277 1.613 . S
N278 C281 1.350 . S
N279 S277 1.610 . S
N279 C280 1.351 . S
C280 C274 1.428 . S
C280 N279 1.351 . S
C280 C281 1.434 . S
C281 C272 1.429 . S
C281 N278 1.350 . S
C281 C280 1.434 . S
C282 C283 1.369 . S
C282 C284 1.419 . S
C282 H286 0.930 . S
C283 C282 1.369 . S
C283 C292 1.429 . S
C284 C282 1.419 . S
C284 C285 1.363 . S
C284 H287 0.929 . S
C285 C284 1.363 . S
C285 C291 1.428 . S
H286 C282 0.930 . S
H287 C284 0.929 . S
S288 N289 1.613 1_455 S
S288 N290 1.610 . S
N289 S288 1.613 1_655 S
N289 C292 1.350 . S
N290 S288 1.610 . S
N290 C291 1.351 1_455 S
C291 C285 1.428 . S
C291 N290 1.351 1_655 S
C291 C292 1.434 . S
C292 C283 1.429 . S
C292 N289 1.350 . S
C292 C291 1.434 . S
C293 C294 1.369 . S
C293 C295 1.419 . S
C293 H297 0.930 . S
C294 C293 1.369 . S
C294 C303 1.429 . S
C295 C293 1.419 . S
C295 C296 1.363 . S
C295 H298 0.929 . S
C296 C295 1.363 . S
C296 C302 1.428 . S
H297 C293 0.930 . S
H298 C295 0.929 . S
S299 N300 1.613 . S
S299 N301 1.610 . S
N300 S299 1.613 . S
N300 C303 1.350 . S
N301 S299 1.610 . S
N301 C302 1.351 . S
C302 C296 1.428 . S
C302 N301 1.351 . S
C302 C303 1.434 . S
C303 C294 1.429 . S
C303 N300 1.350 . S
C303 C302 1.434 . S
C304 C305 1.369 . S
C304 C306 1.419 . S
C304 H308 0.930 1_655 S
C305 C304 1.369 . S
C305 C314 1.429 . S
C306 C304 1.419 . S
C306 C307 1.363 . S
C306 H309 0.931 1_655 S
C307 C306 1.363 . S
C307 C313 1.428 . S
H308 C304 0.930 1_455 S
H309 C306 0.931 1_455 S
S310 N311 1.613 . S
S310 N312 1.610 . S
N311 S310 1.613 . S
N311 C314 1.350 . S
N312 S310 1.610 . S
N312 C313 1.351 . S
C313 C307 1.428 . S
C313 N312 1.351 . S
C313 C314 1.434 . S
C314 C305 1.429 . S
C314 N311 1.350 . S
C314 C313 1.434 . S
C315 C316 1.369 . S
C315 C317 1.419 . S
C315 H319 0.930 . S
C316 C315 1.369 . S
C316 C325 1.429 . S
C317 C315 1.419 . S
C317 C318 1.363 . S
C317 H320 0.929 . S
C318 C317 1.363 . S
C318 C324 1.428 . S
H319 C315 0.930 . S
H320 C317 0.929 . S
S321 N322 1.613 . S
S321 N323 1.610 . S
N322 S321 1.613 . S
N322 C325 1.350 . S
N323 S321 1.610 . S
N323 C324 1.351 . S
C324 C318 1.428 . S
C324 N323 1.351 . S
C324 C325 1.434 . S
C325 C316 1.429 . S
C325 N322 1.350 . S
C325 C324 1.434 . S
C326 C327 1.369 . S
C326 C328 1.419 . S
C326 H330 0.930 . S
C327 C326 1.369 . S
C327 C336 1.429 . S
C328 C326 1.419 . S
C328 C329 1.363 . S
C328 H331 0.929 . S
C329 C328 1.363 . S
C329 C335 1.428 . S
H330 C326 0.930 . S
H331 C328 0.929 . S
S332 N333 1.613 . S
S332 N334 1.610 . S
N333 S332 1.613 . S
N333 C336 1.350 . S
N334 S332 1.610 . S
N334 C335 1.351 . S
C335 C329 1.428 . S
C335 N334 1.351 . S
C335 C336 1.434 . S
C336 C327 1.429 . S
C336 N333 1.350 . S
C336 C335 1.434 . S
C337 C338 1.369 . S
C337 C339 1.419 . S
C337 H341 0.930 . S
C338 C337 1.369 . S
C338 C347 1.429 . S
C339 C337 1.419 . S
C339 C340 1.363 . S
C339 H342 0.929 . S
C340 C339 1.363 . S
C340 C346 1.428 . S
H341 C337 0.930 . S
H342 C339 0.929 . S
S343 N344 1.613 . S
S343 N345 1.610 . S
N344 S343 1.613 . S
N344 C347 1.350 1_655 S
N345 S343 1.610 . S
N345 C346 1.351 1_655 S
C346 C340 1.428 . S
C346 N345 1.351 1_455 S
C346 C347 1.434 . S
C347 C338 1.429 . S
C347 N344 1.350 1_455 S
C347 C346 1.434 . S
C348 C349 1.369 . S
C348 C350 1.419 . S
C348 H352 0.930 . S
C349 C348 1.369 . S
C349 C358 1.429 1_565 S
C350 C348 1.419 . S
C350 C351 1.363 . S
C350 H353 0.929 . S
C351 C350 1.363 . S
C351 C357 1.428 1_565 S
H352 C348 0.930 . S
H353 C350 0.929 . S
S354 N355 1.613 . S
S354 N356 1.610 . S
N355 S354 1.613 . S
N355 C358 1.350 . S
N356 S354 1.610 . S
N356 C357 1.351 . S
C357 C351 1.428 1_545 S
C357 N356 1.351 . S
C357 C358 1.434 . S
C358 C349 1.429 1_545 S
C358 N355 1.350 . S
C358 C357 1.434 . S
C359 C360 1.369 . S
C359 C361 1.419 . S
C359 H363 0.930 . S
C360 C359 1.369 . S
C360 C369 1.429 . S
C361 C359 1.419 . S
C361 C362 1.363 . S
C361 H364 0.929 . S
C362 C361 1.363 . S
C362 C368 1.428 . S
H363 C359 0.930 . S
H364 C361 0.929 . S
S365 N366 1.613 . S
S365 N367 1.610 . S
N366 S365 1.613 . S
N366 C369 1.350 . S
N367 S365 1.610 . S
N367 C368 1.351 . S
C368 C362 1.428 . S
C368 N367 1.351 . S
C368 C369 1.434 . S
C369 C360 1.429 . S
C369 N366 1.350 . S
C369 C368 1.434 . S
C370 C371 1.369 . S
C370 C372 1.419 . S
C370 H374 0.930 . S
C371 C370 1.369 . S
C371 C380 1.429 . S
C372 C370 1.419 . S
C372 C373 1.363 . S
C372 H375 0.929 . S
C373 C372 1.363 . S
C373 C379 1.428 . S
H374 C370 0.930 . S
H375 C372 0.929 . S
S376 N377 1.613 . S
S376 N378 1.610 . S
N377 S376 1.613 . S
N377 C380 1.350 . S
N378 S376 1.610 . S
N378 C379 1.351 . S
C379 C373 1.428 . S
C379 N378 1.351 . S
C379 C380 1.434 . S
C380 C371 1.429 . S
C380 N377 1.350 . S
C380 C379 1.434 . S
C381 C382 1.369 . S
C381 C383 1.419 . S
C381 H385 0.930 . S
C382 C381 1.369 . S
C382 C391 1.429 . S
C383 C381 1.419 . S
C383 C384 1.363 . S
C383 H386 0.929 . S
C384 C383 1.363 . S
C384 C390 1.428 . S
H385 C381 0.930 . S
H386 C383 0.929 . S
S387 N388 1.613 . S
S387 N389 1.610 . S
N388 S387 1.613 . S
N388 C391 1.350 . S
N389 S387 1.610 . S
N389 C390 1.351 . S
C390 C384 1.428 . S
C390 N389 1.351 . S
C390 C391 1.434 . S
C391 C382 1.429 . S
C391 N388 1.350 . S
C391 C390 1.434 . S
C392 C393 1.369 . S
C392 C394 1.419 . S
C392 H396 0.930 . S
C393 C392 1.369 . S
C393 C402 1.429 . S
C394 C392 1.419 . S
C394 C395 1.363 . S
C394 H397 0.929 . S
C395 C394 1.363 . S
C395 C401 1.428 . S
H396 C392 0.930 . S
H397 C394 0.929 . S
S398 N399 1.613 . S
S398 N400 1.610 . S
N399 S398 1.613 . S
N399 C402 1.350 1_554 S
N400 S398 1.610 . S
N400 C401 1.351 1_554 S
C401 C395 1.428 . S
C401 N400 1.351 1_556 S
C401 C402 1.434 . S
C402 C393 1.429 . S
C402 N399 1.350 1_556 S
C402 C401 1.434 . S
C403 C404 1.369 . S
C403 C405 1.419 . S
C403 H407 0.930 . S
C404 C403 1.369 . S
C404 C413 1.429 . S
C405 C403 1.419 . S
C405 C406 1.363 . S
C405 H408 0.929 . S
C406 C405 1.363 . S
C406 C412 1.428 . S
H407 C403 0.930 . S
H408 C405 0.929 . S
S409 N410 1.613 . S
S409 N411 1.610 . S
N410 S409 1.613 . S
N410 C413 1.350 . S
N411 S409 1.610 . S
N411 C412 1.351 . S
C412 C406 1.428 . S
C412 N411 1.351 . S
C412 C413 1.434 . S
C413 C404 1.429 . S
C413 N410 1.350 . S
C413 C412 1.434 . S
C414 C415 1.369 . S
C414 C416 1.419 . S
C414 H418 0.930 . S
C415 C414 1.369 . S
C415 C424 1.429 . S
C416 C414 1.419 . S
C416 C417 1.363 . S
C416 H419 0.929 . S
C417 C416 1.363 . S
C417 C423 1.428 . S
H418 C414 0.930 . S
H419 C416 0.929 . S
S420 N421 1.613 . S
S420 N422 1.610 . S
N421 S420 1.613 . S
N421 C424 1.350 . S
N422 S420 1.610 . S
N422 C423 1.351 . S
C423 C417 1.428 . S
C423 N422 1.351 . S
C423 C424 1.434 . S
C424 C415 1.429 . S
C424 N421 1.350 . S
C424 C423 1.434 . S
C425 C426 1.369 . S
C425 C427 1.419 . S
C425 H429 0.930 . S
C426 C425 1.369 . S
C426 C435 1.429 . S
C427 C425 1.419 . S
C427 C428 1.363 . S
C427 H430 0.929 . S
C428 C427 1.363 . S
C428 C434 1.428 . S
H429 C425 0.930 . S
H430 C427 0.929 . S
S431 N432 1.613 . S
S431 N433 1.610 . S
N432 S431 1.613 . S
N432 C435 1.350 . S
N433 S431 1.610 . S
N433 C434 1.351 . S
C434 C428 1.428 . S
C434 N433 1.351 . S
C434 C435 1.434 . S
C435 C426 1.429 . S
C435 N432 1.350 . S
C435 C434 1.434 . S
C173 C4 1.722 . S
C175 C104 1.670 . S
C184 C16 1.717 . S
C186 C126 1.660 . S
C197 C145 1.020 . S
C195 C32 1.217 . S
C206 C43 1.608 . S
C208 C166 1.280 . S
C219 C123 1.975 . S
C217 C5 2.050 . S
C230 C101 1.385 . S
C228 C21 1.447 . S
C241 C168 1.274 . S
C239 C27 1.305 . S
C252 C147 1.321 . S
C250 C37 1.417 . S
C261 C10 1.654 . S
C263 C165 1.617 . S
C274 C124 1.371 . S
C272 C26 1.660 . S
C283 C38 1.462 . S
C285 C106 1.320 . S
C294 C15 1.618 . S
C296 C144 1.575 . S
C307 C102 1.721 . S
C305 C48 1.820 . S
C316 C59 1.468 . S
C318 C122 1.458 . S
C327 C76 1.429 . S
C329 C148 1.188 . S
C338 C87 1.422 . S
C340 C169 1.120 . S
C349 C54 1.512 . S
C351 C125 1.483 . S
C362 C105 1.941 . S
C360 C60 1.973 . S
C373 C164 1.171 . S
C371 C71 1.262 . S
C384 C143 1.412 . S
C382 C82 1.427 . S
C393 C49 1.747 . S
C395 C167 1.681 . S
C406 C127 1.080 . S
C404 C70 1.297 . S
C417 C103 1.378 . S
C415 C81 1.556 . S
C426 C65 1.505 . S
C428 C146 1.478 . S
