# Generated by pormake.
# Topology pyr, (3,6)-cn, num edge types: 1
# Building blocks:
#     Node 0, Type 0, BuildingBlock: ESEHIV_clean_linker_0, # of connection points: 3
#     Node 1, Type 0, BuildingBlock: ESEHIV_clean_linker_0, # of connection points: 3
#     Node 2, Type 0, BuildingBlock: ESEHIV_clean_linker_0, # of connection points: 3
#     Node 3, Type 0, BuildingBlock: ESEHIV_clean_linker_0, # of connection points: 3
#     Node 4, Type 0, BuildingBlock: ESEHIV_clean_linker_0, # of connection points: 3
#     Node 5, Type 0, BuildingBlock: ESEHIV_clean_linker_0, # of connection points: 3
#     Node 6, Type 0, BuildingBlock: ESEHIV_clean_linker_0, # of connection points: 3
#     Node 7, Type 0, BuildingBlock: ESEHIV_clean_linker_0, # of connection points: 3
#     Node 8, Type 1, BuildingBlock: FUNLAD_clean_sbu_0, # of connection points: 6
#     Node 9, Type 1, BuildingBlock: FUNLAD_clean_sbu_0, # of connection points: 6
#     Node 10, Type 1, BuildingBlock: FUNLAD_clean_sbu_0, # of connection points: 6
#     Node 11, Type 1, BuildingBlock: FUNLAD_clean_sbu_0, # of connection points: 6
#     Edge 12, Type (0, 1), BuildingBlock: EZIPEK_clean_linker_0, # of connection points: 2
#     Edge 13, Type (0, 1), BuildingBlock: EZIPEK_clean_linker_0, # of connection points: 2
#     Edge 14, Type (0, 1), BuildingBlock: EZIPEK_clean_linker_0, # of connection points: 2
#     Edge 15, Type (0, 1), BuildingBlock: EZIPEK_clean_linker_0, # of connection points: 2
#     Edge 16, Type (0, 1), BuildingBlock: EZIPEK_clean_linker_0, # of connection points: 2
#     Edge 17, Type (0, 1), BuildingBlock: EZIPEK_clean_linker_0, # of connection points: 2
#     Edge 18, Type (0, 1), BuildingBlock: EZIPEK_clean_linker_0, # of connection points: 2
#     Edge 19, Type (0, 1), BuildingBlock: EZIPEK_clean_linker_0, # of connection points: 2
#     Edge 20, Type (0, 1), BuildingBlock: EZIPEK_clean_linker_0, # of connection points: 2
#     Edge 21, Type (0, 1), BuildingBlock: EZIPEK_clean_linker_0, # of connection points: 2
#     Edge 22, Type (0, 1), BuildingBlock: EZIPEK_clean_linker_0, # of connection points: 2
#     Edge 23, Type (0, 1), BuildingBlock: EZIPEK_clean_linker_0, # of connection points: 2
#     Edge 24, Type (0, 1), BuildingBlock: EZIPEK_clean_linker_0, # of connection points: 2
#     Edge 25, Type (0, 1), BuildingBlock: EZIPEK_clean_linker_0, # of connection points: 2
#     Edge 26, Type (0, 1), BuildingBlock: EZIPEK_clean_linker_0, # of connection points: 2
#     Edge 27, Type (0, 1), BuildingBlock: EZIPEK_clean_linker_0, # of connection points: 2
#     Edge 28, Type (0, 1), BuildingBlock: EZIPEK_clean_linker_0, # of connection points: 2
#     Edge 29, Type (0, 1), BuildingBlock: EZIPEK_clean_linker_0, # of connection points: 2
#     Edge 30, Type (0, 1), BuildingBlock: EZIPEK_clean_linker_0, # of connection points: 2
#     Edge 31, Type (0, 1), BuildingBlock: EZIPEK_clean_linker_0, # of connection points: 2
#     Edge 32, Type (0, 1), BuildingBlock: EZIPEK_clean_linker_0, # of connection points: 2
#     Edge 33, Type (0, 1), BuildingBlock: EZIPEK_clean_linker_0, # of connection points: 2
#     Edge 34, Type (0, 1), BuildingBlock: EZIPEK_clean_linker_0, # of connection points: 2
#     Edge 35, Type (0, 1), BuildingBlock: EZIPEK_clean_linker_0, # of connection points: 2
# Relax obj value: 0.161
# Max RMSD: 0.089
# Mean RMSD: 0.048
data_MOF--net-pry--node1-FUNLAD_clean_sbu_0--node2-ESEHIV_clean_linker_0--edge1-EZIPEK_clean_linker_0
_symmetry_space_group_name_H-M    P1
_symmetry_Int_Tables_number       1
_symmetry_cell_setting            triclinic
loop_
_symmetry_equiv_pos_as_xyz
'x, y, z'
_cell_length_a     23.996382
_cell_length_b     26.192233
_cell_length_c     26.183703
_cell_angle_alpha  90.28985
_cell_angle_beta   90.095104
_cell_angle_gamma 81.494598
loop_
_atom_site_label
_atom_site_type_symbol
_atom_site_fract_x
_atom_site_fract_y
_atom_site_fract_z
_atom_type_partial_charge
H0 H 0.05425 0.23076 0.24055 0.0
H1 H 0.19215 0.10451 0.23786 0.0
H2 H 0.19008 0.22902 0.13184 0.0
C3 C 0.09389 0.21266 0.22448 0.0
C4 C 0.11824 0.23675 0.18268 0.0
C5 C 0.12125 0.16541 0.24607 0.0
C6 C 0.17154 0.14105 0.22302 0.0
C7 C 0.19559 0.16334 0.18108 0.0
C8 C 0.16999 0.21159 0.16296 0.0
H9 H 0.31177 0.95623 0.73586 0.0
H10 H 0.45421 0.83401 0.73966 0.0
H11 H 0.32965 0.83776 0.62028 0.0
C12 C 0.33534 0.92138 0.7198 0.0
C13 C 0.31512 0.89969 0.67514 0.0
C14 C 0.38565 0.89834 0.74394 0.0
C15 C 0.41578 0.85248 0.72178 0.0
C16 C 0.39566 0.83022 0.67681 0.0
C17 C 0.34545 0.85443 0.6544 0.0
H18 H 0.67192 0.42277 0.06179 0.0
H19 H 0.65906 0.50667 0.92089 0.0
H20 H 0.52479 0.42855 0.96525 0.0
C21 C 0.64688 0.43701 1.02935 0.0
C22 C 0.5919 0.42461 1.02193 0.0
C23 C 0.67107 0.46768 0.99361 0.0
C24 C 0.64053 0.48479 0.9497 0.0
C25 C 0.58896 0.46855 0.93994 0.0
C26 C 0.56407 0.44119 0.97626 0.0
H27 H 0.86919 0.60972 0.60056 0.0
H28 H 0.98914 0.63999 0.48639 0.0
H29 H 0.8593 0.55147 0.44798 0.0
C30 C 0.88767 0.60323 0.56305 0.0
C31 C 0.86037 0.57596 0.5266 0.0
C32 C 0.93269 0.62895 0.54836 0.0
C33 C 0.95619 0.619 0.49952 0.0
C34 C 0.92969 0.59139 0.46345 0.0
C35 C 0.88233 0.56927 0.47714 0.0
H36 H 0.81688 0.95917 0.81635 0.0
H37 H 0.95492 0.83275 0.81521 0.0
H38 H 0.82946 0.84429 0.93426 0.0
C39 C 0.83921 0.92436 0.83331 0.0
C40 C 0.81771 0.90497 0.87832 0.0
C41 C 0.88916 0.89936 0.80999 0.0
C42 C 0.91714 0.85302 0.83279 0.0
C43 C 0.89561 0.83251 0.87792 0.0
C44 C 0.84637 0.85946 0.90007 0.0
H45 H 0.55693 0.23469 0.31367 0.0
H46 H 0.70172 0.11435 0.31233 0.0
H47 H 0.68458 0.23026 0.43002 0.0
C48 C 0.59634 0.21637 0.32993 0.0
C49 C 0.61834 0.23913 0.37374 0.0
C50 C 0.62596 0.17074 0.3065 0.0
C51 C 0.67758 0.14843 0.3293 0.0
C52 C 0.69772 0.16863 0.37475 0.0
C53 C 0.66816 0.21398 0.39598 0.0
H54 H 0.34688 0.6481 0.05227 0.0
H55 H 0.36487 0.50117 0.12591 0.0
H56 H 0.5043 0.58858 0.11949 0.0
C57 C 0.37343 0.61637 0.07071 0.0
C58 C 0.42855 0.62148 0.08418 0.0
C59 C 0.35085 0.57246 0.08572 0.0
C60 C 0.38444 0.53326 0.11312 0.0
C61 C 0.44096 0.5372 0.12549 0.0
C62 C 0.46257 0.58143 0.10874 0.0
H63 H 0.0483 0.44887 0.60891 0.0
H64 H 0.16895 0.42853 0.48777 0.0
H65 H 0.17184 0.55047 0.59848 0.0
C66 C 0.08057 0.46401 0.58695 0.0
C67 C 0.10699 0.50288 0.60816 0.0
C68 C 0.1046 0.43539 0.54563 0.0
C69 C 0.14895 0.45215 0.51865 0.0
C70 C 0.17401 0.49385 0.53769 0.0
C71 C 0.15051 0.52101 0.58113 0.0
C72 C 0.04871 0.06002 0.43055 0.0
N73 N 0.02142 0.13451 0.57075 0.0
C74 C 0.07458 0.14349 0.56011 0.0
C75 C 0.08652 0.19337 0.55792 0.0
C76 C 0.04331 0.23418 0.56651 0.0
C77 C 0.98966 0.22457 0.58089 0.0
C78 C 0.97946 0.17353 0.58284 0.0
Zn79 Zn 1.00551 0.06568 0.5461 0.0
C80 C 0.89902 0.07503 0.48636 0.0
N81 N 0.98464 0.92356 0.48174 0.0
C82 C 0.02387 0.88254 0.46892 0.0
C83 C 0.9334 0.91674 0.5003 0.0
C84 C 0.92399 0.86864 0.5161 0.0
C85 C 0.96469 0.82557 0.50697 0.0
C86 C 0.01354 0.83233 0.4795 0.0
Zn87 Zn 1.00272 0.9931 0.50522 0.0
O88 O 0.04133 0.08615 0.47188 0.0
C89 C 0.10965 0.9844 0.56453 0.0
O90 O 0.03764 1.01371 0.43123 0.0
H91 H 0.90289 0.94936 0.5112 0.0
H92 H 0.10679 0.11251 0.5485 0.0
H93 H 0.06482 0.88877 0.45521 0.0
O94 O 0.08647 0.02989 0.57551 0.0
O95 O 0.08514 0.95814 0.53276 0.0
H96 H 0.93736 0.1654 0.59033 0.0
O97 O 0.96872 0.9727 0.58095 0.0
O98 O 0.96954 0.04619 0.61992 0.0
O99 O 0.92093 0.02895 0.47629 0.0
O100 O 0.92437 0.10108 0.51745 0.0
C101 C 0.96003 0.99954 0.62163 0.0
H102 H 0.12838 0.20021 0.54716 0.0
H103 H 0.95595 0.25601 0.5884 0.0
H104 H 0.88631 0.86588 0.53803 0.0
H105 H 0.04566 0.79979 0.47111 0.0
C106 C 0.60969 0.99837 0.9814 0.0
N107 N 0.50545 0.14535 0.97948 0.0
C108 C 0.55616 0.16087 0.9698 0.0
C109 C 0.56447 0.21135 0.98119 0.0
C110 C 0.52173 0.24438 1.00653 0.0
C111 C 0.46864 0.22878 1.01136 0.0
C112 C 0.46043 0.18049 0.99354 0.0
Zn113 Zn 0.50438 0.07117 1.00532 0.0
C114 C 0.45604 0.99938 0.93288 0.0
N115 N 0.50011 0.92586 0.07184 0.0
C116 C 0.5468 0.89336 0.08683 0.0
C117 C 0.4497 0.90894 0.06475 0.0
C118 C 0.44494 0.85741 0.07124 0.0
C119 C 0.49268 0.82283 0.08416 0.0
C120 C 0.54406 0.8408 0.09305 0.0
Zn121 Zn 0.50274 0.99741 0.04503 0.0
O122 O 0.58538 0.04359 0.97075 0.0
C123 C 0.55124 0.07028 0.11698 0.0
O124 O 0.586 0.97151 1.01286 0.0
H125 H 0.41362 0.93468 0.05085 0.0
H126 H 0.59189 0.13351 0.95792 0.0
H127 H 0.58658 0.90762 0.09134 0.0
O128 O 0.54528 0.09529 0.07515 0.0
O129 O 0.53804 1.02468 0.11659 0.0
H130 H 0.4188 0.17011 0.99621 0.0
O131 O 0.42061 1.02205 0.0784 0.0
O132 O 0.42254 0.09613 0.04209 0.0
O133 O 0.46676 0.97192 0.97282 0.0
O134 O 0.46442 0.04647 0.93502 0.0
C135 C 0.39776 0.06814 0.07115 0.0
H136 H 0.60561 0.22264 0.97524 0.0
H137 H 0.43402 0.25312 1.02987 0.0
H138 H 0.40494 0.84418 0.06394 0.0
H139 H 0.58151 0.81438 0.10309 0.0
C140 C 0.54369 0.43597 0.48233 0.0
N141 N 0.51435 0.49563 0.63152 0.0
C142 C 0.48569 0.45824 0.64925 0.0
C143 C 0.48579 0.44774 0.70157 0.0
C144 C 0.51596 0.47612 0.73444 0.0
C145 C 0.54405 0.51469 0.71516 0.0
C146 C 0.5426 0.52395 0.66345 0.0
Zn147 Zn 0.51602 0.51825 0.55875 0.0
C148 C 0.62753 0.54545 0.5339 0.0
N149 N 0.5185 0.57995 0.41193 0.0
C150 C 0.56441 0.55318 0.38843 0.0
C151 C 0.47215 0.60038 0.38491 0.0
C152 C 0.4683 0.58823 0.33313 0.0
C153 C 0.51176 0.55361 0.31057 0.0
C154 C 0.56111 0.53781 0.33806 0.0
Zn155 Zn 0.51262 0.5586 0.48556 0.0
O156 O 0.53819 0.4392 0.53067 0.0
C157 C 0.40164 0.53091 0.51064 0.0
O158 O 0.53578 0.47799 0.45717 0.0
H159 H 0.43587 0.62095 0.40446 0.0
H160 H 0.46298 0.43683 0.62297 0.0
H161 H 0.60066 0.53662 0.41025 0.0
O162 O 0.42926 0.51325 0.54981 0.0
O163 O 0.42635 0.55169 0.4753 0.0
H164 H 0.56417 0.55421 0.64897 0.0
O165 O 0.48766 0.63763 0.51411 0.0
O166 O 0.49312 0.59781 0.5874 0.0
O167 O 0.59903 0.56647 0.4968 0.0
O168 O 0.60338 0.52168 0.56715 0.0
C169 C 0.48277 0.63992 0.56267 0.0
H170 H 0.46392 0.41751 0.71607 0.0
H171 H 0.56766 0.53697 0.73996 0.0
H172 H 0.42973 0.60128 0.31242 0.0
H173 H 0.59523 0.5109 0.32185 0.0
C174 C 0.9741 0.63908 0.99062 0.0
N175 N 0.97236 0.58385 0.1431 0.0
C176 C 0.99501 0.62323 0.16526 0.0
C177 C 0.98935 0.63196 0.21778 0.0
C178 C 0.95942 0.60023 0.24668 0.0
C179 C 0.93363 0.56229 0.22245 0.0
C180 C 0.94106 0.55451 0.17038 0.0
Zn181 Zn 0.99533 0.55799 0.07221 0.0
C182 C 0.89899 0.51648 1.01755 0.0
N183 N 0.04267 0.49939 0.92664 0.0
C184 C 0.07575 0.5319 0.90577 0.0
C185 C 0.02045 0.46424 0.89743 0.0
C186 C 0.0302 0.4622 0.84468 0.0
C187 C 0.06288 0.49671 0.82303 0.0
C188 C 0.08677 0.53085 0.85404 0.0
Zn189 Zn 0.01754 0.52022 0.99864 0.0
O190 O 0.97096 0.63612 0.0392 0.0
C191 C 0.11467 0.55773 0.05425 0.0
O192 O 0.99184 0.59775 0.96622 0.0
H193 H 0.99309 0.43975 0.91446 0.0
H194 H 0.02012 0.64586 0.14282 0.0
H195 H 0.09078 0.56161 0.92831 0.0
O196 O 0.07765 0.57305 0.08748 0.0
O197 O 0.10006 0.53614 1.01409 0.0
H198 H 0.92496 0.52284 0.15245 0.0
O199 O 0.04051 0.44288 1.03067 0.0
O200 O 0.02152 0.4793 0.10453 0.0
O201 O 0.93715 0.50188 0.98503 0.0
O202 O 0.91148 0.54159 0.05668 0.0
C203 C 0.03825 0.43807 0.07913 0.0
H204 H 0.00977 0.66152 0.23593 0.0
H205 H 0.9106 0.53711 0.24412 0.0
H206 H 0.01148 0.43526 0.82099 0.0
H207 H 0.11197 0.55792 0.83799 0.0
C208 C 0.12802 0.14327 0.34124 0.0
C209 C 0.09949 0.14093 0.29372 0.0
C210 C 0.03536 0.08767 0.33609 0.0
C211 C 0.06765 0.08549 0.38219 0.0
N212 N 0.15099 0.10545 0.42465 0.0
N213 N 0.03021 0.10444 0.24456 0.0
C214 C 0.11553 0.11201 0.38358 0.0
C215 C 0.05431 0.1113 0.2909 0.0
N216 N 0.16652 0.17654 0.34641 0.0
N217 N 0.98479 0.0696 0.33594 0.0
H218 H 0.0418 0.12191 0.21128 0.0
H219 H 1.00189 0.0785 0.23842 0.0
H220 H 0.96876 0.05305 0.3678 0.0
H221 H 0.95622 0.07541 0.3058 0.0
H222 H 0.18432 0.18472 0.38125 0.0
H223 H 0.1768 0.19977 0.31663 0.0
H224 H 0.18965 0.11895 0.42611 0.0
H225 H 0.14452 0.08188 0.45533 0.0
C226 C 0.3772 0.9183 0.83994 0.0
C227 C 0.40548 0.92277 0.79269 0.0
C228 C 0.46866 0.97561 0.83751 0.0
C229 C 0.43716 0.975 0.88374 0.0
N230 N 0.35525 0.95187 0.92565 0.0
N231 N 0.47317 0.9626 0.7453 0.0
C232 C 0.38987 0.94777 0.88396 0.0
C233 C 0.44983 0.95337 0.79129 0.0
N234 N 0.33895 0.88464 0.84318 0.0
N235 N 0.5184 0.99516 0.83806 0.0
H236 H 0.4616 0.94637 0.71114 0.0
H237 H 0.5007 0.98941 0.74039 0.0
H238 H 0.53415 1.0113 0.87049 0.0
H239 H 0.5467 0.99115 0.8077 0.0
H240 H 0.32131 0.87491 0.87743 0.0
H241 H 0.32848 0.86282 0.81211 0.0
H242 H 0.31689 0.93782 0.92658 0.0
H243 H 0.36214 0.97374 0.95782 0.0
C244 C 0.52144 0.50636 0.87286 0.0
C245 C 0.5666 0.46835 0.88775 0.0
C246 C 0.56758 0.42641 0.80428 0.0
C247 C 0.52303 0.46487 0.78903 0.0
N248 N 0.44855 0.5335 0.81005 0.0
N249 N 0.62211 0.38441 0.87381 0.0
C250 C 0.49672 0.50213 0.82411 0.0
C251 C 0.58633 0.42581 0.8554 0.0
N252 N 0.50354 0.54694 0.90476 0.0
N253 N 0.59431 0.39249 0.76916 0.0
H254 H 0.63816 0.38254 0.91088 0.0
H255 H 0.63233 0.34992 0.85367 0.0
H256 H 0.58046 0.3902 0.73158 0.0
H257 H 0.6321 0.36853 0.77643 0.0
H258 H 0.47424 0.57856 0.89445 0.0
H259 H 0.52083 0.5506 0.94096 0.0
H260 H 0.42466 0.55922 0.83473 0.0
H261 H 0.42987 0.53039 0.77434 0.0
C262 C 0.98116 0.55835 0.38405 0.0
C263 C 0.94283 0.59681 0.40882 0.0
C264 C 0.92104 0.64163 0.32774 0.0
C265 C 0.95852 0.60281 0.30286 0.0
N266 N 0.03366 0.53089 0.30702 0.0
N267 N 0.88049 0.67906 0.40425 0.0
C268 C 0.99157 0.56311 0.33102 0.0
C269 C 0.91475 0.63966 0.38106 0.0
N270 N 1.00593 0.51645 0.41088 0.0
N271 N 0.89032 0.68044 0.30051 0.0
H272 H 0.87332 0.6818 0.44348 0.0
H273 H 0.87332 0.6818 0.44348 0.0
H274 H 0.89295 0.68351 0.26092 0.0
H275 H 0.86188 0.70942 0.31776 0.0
H276 H 0.0287 0.48401 0.39375 0.0
H277 H 1.0008 0.51281 0.4502 0.0
H278 H 0.06291 0.50427 0.32597 0.0
H279 H 0.04251 0.53374 0.26822 0.0
C280 C 0.30173 0.13599 0.17621 0.0
C281 C 0.24742 0.13596 0.15448 0.0
C282 C 0.2917 0.09328 0.07703 0.0
C283 C 0.34569 0.09057 0.10002 0.0
N284 N 0.40185 0.10284 0.17425 0.0
N285 N 0.18989 0.1072 0.08785 0.0
C286 C 0.35052 0.10993 0.15052 0.0
C287 C 0.24226 0.11251 0.10583 0.0
N288 N 0.30689 0.16274 0.22052 0.0
N289 N 0.28777 0.0783 1.02723 0.0
H290 H 0.153 0.1204 0.10791 0.0
H291 H 0.18298 0.08601 0.05532 0.0
H292 H 0.32276 0.0626 1.0057 0.0
H293 H 0.25062 0.08458 1.00611 0.0
H294 H 0.34532 0.16962 0.23547 0.0
H295 H 0.27231 0.18151 0.24071 0.0
H296 H 0.40762 0.11074 0.21274 0.0
H297 H 0.43857 0.08539 0.15635 0.0
C298 C 0.21019 0.90522 0.65918 0.0
C299 C 0.26179 0.92376 0.64891 0.0
C300 C 0.21364 0.98269 0.58397 0.0
C301 C 0.16285 0.96172 0.59173 0.0
N302 N 0.1133 0.90043 0.63434 0.0
N303 N 0.31473 0.976 0.59816 0.0
C304 C 0.16141 0.92208 0.62859 0.0
C305 C 0.26395 0.96157 0.61051 0.0
N306 N 0.20759 0.87246 0.69935 0.0
N307 N 0.21369 1.02317 0.55127 0.0
H308 H 0.3519 0.96285 0.61781 0.0
H309 H 0.32103 0.9985 0.56665 0.0
H310 H 0.17926 0.03695 0.52839 0.0
H311 H 0.24656 0.04484 0.54849 0.0
H312 H 0.17044 0.86141 0.71285 0.0
H313 H 0.24244 0.85904 0.72201 0.0
H314 H 0.11094 0.86753 0.65583 0.0
H315 H 0.07581 0.9136 0.61526 0.0
C316 C 0.74832 0.49765 0.04676 0.0
C317 C 0.73003 0.47895 0.99978 0.0
C318 C 0.81937 0.49317 0.96166 0.0
C319 C 0.84106 0.50284 1.01086 0.0
N320 N 0.82904 0.49021 0.10161 0.0
N321 N 0.75909 0.44202 0.91713 0.0
C322 C 0.80644 0.49837 0.05411 0.0
C323 C 0.76884 0.47141 0.95846 0.0
N324 N 0.71079 0.51616 0.08377 0.0
N325 N 0.84456 0.50645 0.91796 0.0
H326 H 0.72518 0.4214 0.91527 0.0
H327 H 0.78865 0.43313 0.88805 0.0
H328 H 0.8779 0.52773 0.91762 0.0
H329 H 0.82701 0.50241 0.88195 0.0
H330 H 0.72328 0.53223 0.11771 0.0
H331 H 0.6675 0.52157 0.07722 0.0
H332 H 0.80457 0.48489 0.13352 0.0
H333 H 0.87216 0.47937 0.10678 0.0
C334 C 0.78821 0.5167 0.54147 0.0
C335 C 0.80122 0.56733 0.53501 0.0
C336 C 0.70117 0.60236 0.54129 0.0
C337 C 0.68746 0.55179 0.53959 0.0
N338 N 0.71739 0.45979 0.53362 0.0
N339 N 0.76833 0.65733 0.517 0.0
C340 C 0.73081 0.50845 0.53905 0.0
C341 C 0.75726 0.61 0.53198 0.0
N342 N 0.83063 0.47677 0.54993 0.0
N343 N 0.66073 0.64312 0.55298 0.0
H344 H 0.80848 0.66436 0.50736 0.0
H345 H 0.73684 0.68816 0.50912 0.0
H346 H 0.61963 0.63832 0.56246 0.0
H347 H 0.66964 0.68043 0.5591 0.0
H348 H 0.82364 0.43975 0.55969 0.0
H349 H 0.87294 0.48184 0.55129 0.0
H350 H 0.74724 0.42727 0.52737 0.0
H351 H 0.67597 0.45226 0.53162 0.0
C352 C 0.07043 0.33293 0.18531 0.0
C353 C 0.09118 0.28734 0.15726 0.0
C354 C 0.08467 0.34145 0.07956 0.0
C355 C 0.05542 0.38549 0.10595 0.0
N356 N 1.00307 0.41103 0.18392 0.0
N357 N 0.09556 0.24837 0.07318 0.0
C358 C 0.04312 0.37782 0.15888 0.0
C359 C 0.09082 0.29167 0.10298 0.0
N360 N 0.07816 0.33491 0.23685 0.0
N361 N 0.11042 0.34626 0.03375 0.0
H362 H 0.09609 0.2116 0.0885 0.0
H363 H 0.09181 0.25006 0.0335 0.0
H364 H 0.11606 0.38148 1.01804 0.0
H365 H 0.13438 0.31493 1.01554 0.0
H366 H 0.06752 0.36889 0.25788 0.0
H367 H 0.10095 0.3048 0.25734 0.0
H368 H 0.99139 0.40499 0.22151 0.0
H369 H 0.9752 0.43894 0.16523 0.0
C370 C 0.5077 0.38551 0.04633 0.0
C371 C 0.5649 0.38852 0.05561 0.0
C372 C 0.58199 0.2948 0.06145 0.0
C373 C 0.53318 0.29366 1.03014 0.0
N374 N 0.45126 0.34293 0.98917 0.0
N375 N 0.63771 0.34867 0.11064 0.0
C376 C 0.49486 0.34004 1.02318 0.0
C377 C 0.59748 0.34367 0.07495 0.0
N378 N 0.46887 0.42874 0.04977 0.0
N379 N 0.61258 0.24987 0.07821 0.0
H380 H 0.64138 0.38472 0.12641 0.0
H381 H 0.66222 0.31784 0.1286 0.0
H382 H 0.59827 0.21432 0.07471 0.0
H383 H 0.65154 0.24777 0.09618 0.0
H384 H 0.42575 0.42792 0.04582 0.0
H385 H 0.48095 0.46415 0.05925 0.0
H386 H 0.42536 0.37747 0.98082 0.0
H387 H 0.44532 0.31293 0.96445 0.0
C388 C 0.99433 0.69449 0.57291 0.0
C389 C 0.93971 0.6798 0.57147 0.0
C390 C 0.90297 0.75947 0.53018 0.0
C391 C 0.95706 0.77529 0.53027 0.0
N392 N 0.04758 0.76599 0.57379 0.0
N393 N 0.84245 0.7173 0.58332 0.0
C394 C 1.00105 0.74556 0.55873 0.0
C395 C 0.89398 0.71896 0.56244 0.0
N396 N 0.03984 0.65885 0.58412 0.0
N397 N 0.86111 0.78061 0.49806 0.0
H398 H 0.83617 0.69027 0.61095 0.0
H399 H 0.8087 0.74678 0.57761 0.0
H400 H 0.86777 0.80622 0.46909 0.0
H401 H 0.82215 0.76741 0.49663 0.0
H402 H 0.08125 0.66584 0.57991 0.0
H403 H 0.03529 0.62162 0.59509 0.0
H404 H 0.07851 0.74616 0.5973 0.0
H405 H 0.05173 0.80463 0.56823 0.0
C406 C 0.4649 0.7819 0.6126 0.0
C407 C 0.42447 0.78061 0.65215 0.0
C408 C 0.41742 0.69033 0.62801 0.0
C409 C 0.46148 0.68979 0.59132 0.0
N410 N 0.53215 0.73452 0.55368 0.0
N411 N 0.36969 0.73042 0.70315 0.0
C412 C 0.4865 0.73554 0.58493 0.0
C413 C 0.40337 0.73367 0.66163 0.0
N414 N 0.48152 0.82799 0.60034 0.0
N415 N 0.38603 0.65079 0.62855 0.0
H416 H 0.35774 0.69591 0.71559 0.0
H417 H 0.35814 0.76136 0.7281 0.0
H418 H 0.39206 0.62005 0.60273 0.0
H419 H 0.34984 0.6513 0.65055 0.0
H420 H 0.50514 0.83341 0.56802 0.0
H421 H 0.4687 0.86186 0.621 0.0
H422 H 0.5566 0.76415 0.55209 0.0
H423 H 0.54822 0.70246 0.53177 0.0
C424 C 0.95649 0.95067 0.76211 0.0
C425 C 0.91019 0.92227 0.76109 0.0
C426 C 0.89306 0.94928 0.6707 0.0
C427 C 0.9417 0.97477 0.67057 0.0
N428 N 0.02643 0.98939 0.7144 0.0
N429 N 0.84089 0.88713 0.71074 0.0
C430 C 0.97514 0.9727 0.71592 0.0
C431 C 0.88049 0.9195 0.7142 0.0
N432 N 0.98193 0.95806 0.8077 0.0
N433 N 0.85714 0.95539 0.62993 0.0
H434 H 0.83069 0.86493 0.74137 0.0
H435 H 0.82201 0.87858 0.67653 0.0
H436 H 0.86385 0.97777 0.59837 0.0
H437 H 0.81809 0.94257 0.62938 0.0
H438 H 0.01128 0.98329 0.81244 0.0
H439 H 0.97051 0.94193 0.84177 0.0
H440 H 0.0557 0.98351 0.74398 0.0
H441 H 0.04212 1.00481 0.68172 0.0
C442 C 0.60517 0.09091 0.25523 0.0
C443 C 0.60417 0.14555 0.25847 0.0
C444 C 0.55786 0.15086 0.17349 0.0
C445 C 0.56953 0.09601 0.16608 0.0
N446 N 0.61942 1.016 0.1997 0.0
N447 N 0.59138 0.22545 0.21105 0.0
C448 C 0.59752 0.06663 0.20692 0.0
C449 C 0.584 0.17493 0.21474 0.0
N450 N 0.61085 0.06185 0.29855 0.0
N451 N 0.51923 0.18036 0.1435 0.0
H452 H 0.61443 0.24346 0.23763 0.0
H453 H 0.58035 0.24744 0.17853 0.0
H454 H 0.49366 0.1648 0.11727 0.0
H455 H 0.50694 0.21973 0.14996 0.0
H456 H 0.60744 1.02261 0.29854 0.0
H457 H 0.61156 0.07815 0.3349 0.0
H458 H 0.64379 0.99452 0.22734 0.0
H459 H 0.61985 0.99754 0.16436 0.0
C460 C 0.53023 0.50989 0.17278 0.0
C461 C 0.47462 0.50165 0.16307 0.0
C462 C 0.45853 0.49923 0.2544 0.0
C463 C 0.50342 0.5289 0.26086 0.0
N464 N 0.58517 0.56008 0.22444 0.0
N465 N 0.4132 0.44579 0.19554 0.0
C466 C 0.54177 0.53194 0.22011 0.0
C467 C 0.44626 0.48292 0.20431 0.0
N468 N 0.56914 0.5024 0.13493 0.0
N469 N 0.42825 0.48692 0.29547 0.0
H470 H 0.41061 0.42988 0.15908 0.0
H471 H 0.394 0.42735 0.22432 0.0
H472 H 0.43978 0.49379 0.33303 0.0
H473 H 0.39146 0.47047 0.29212 0.0
H474 H 0.61178 0.50298 0.14186 0.0
H475 H 0.55812 0.49167 0.09837 0.0
H476 H 0.61069 0.56657 0.19366 0.0
H477 H 0.59248 0.58096 0.25712 0.0
C478 C 0.14096 0.48632 0.69807 0.0
C479 C 0.09877 0.51094 0.664 0.0
C480 C 0.03327 0.52861 0.73597 0.0
C481 C 0.07292 0.49854 0.76777 0.0
N482 N 0.1603 0.44148 0.77824 0.0
N483 N 1.00083 0.54635 0.64976 0.0
C484 C 0.12563 0.47551 0.74861 0.0
C485 C 0.04386 0.52997 0.68283 0.0
N486 N 0.19556 0.47225 0.68269 0.0
N487 N 0.98574 0.55625 0.75656 0.0
H488 H 1.00608 0.54713 0.61031 0.0
H489 H 0.95886 0.55491 0.66106 0.0
H490 H 0.97555 0.55484 0.79521 0.0
H491 H 0.9587 0.58351 0.73601 0.0
H492 H 0.22849 0.46129 0.70817 0.0
H493 H 0.20997 0.4745 0.64561 0.0
H494 H 0.19608 0.41824 0.76432 0.0
H495 H 0.15048 0.4326 0.81566 0.0
C496 C 0.71325 0.90891 0.89668 0.0
C497 C 0.76364 0.93102 0.90247 0.0
C498 C 0.71376 0.99639 0.96158 0.0
C499 C 0.6629 0.97544 0.95422 0.0
N500 N 0.61188 0.91685 0.90858 0.0
N501 N 0.81077 0.99914 0.93577 0.0
C502 C 0.66214 0.93292 0.92022 0.0
C503 C 0.7634 0.97593 0.93341 0.0
N504 N 0.7144 0.86434 0.86899 0.0
N505 N 0.71526 0.03433 0.99742 0.0
H506 H 0.8485 0.98396 0.91801 0.0
H507 H 0.81202 0.03504 0.95255 0.0
H508 H 0.68004 0.05007 1.01862 0.0
H509 H 0.75195 0.04778 1.00907 0.0
H510 H 0.68182 0.84216 0.86878 0.0
H511 H 0.74943 0.8477 0.84805 0.0
H512 H 0.60682 0.89056 0.87963 0.0
H513 H 0.57375 0.93281 0.92513 0.0
C514 C 0.80153 0.16341 0.39645 0.0
C515 C 0.75022 0.14272 0.40113 0.0
C516 C 0.79521 0.08035 0.46484 0.0
C517 C 0.84725 0.09929 0.45816 0.0
N518 N 0.90246 0.15335 0.41164 0.0
N519 N 0.6992 0.07824 0.43574 0.0
C520 C 0.85099 0.13951 0.42249 0.0
C521 C 0.74753 0.10005 0.43403 0.0
N522 N 0.80277 0.20656 0.36753 0.0
N523 N 0.79074 0.04511 0.50241 0.0
H524 H 0.66263 0.09319 0.41612 0.0
H525 H 0.69611 0.04356 0.45395 0.0
H526 H 0.82448 0.03035 0.52576 0.0
H527 H 0.75297 0.03339 0.51336 0.0
H528 H 0.8362 0.22776 0.36769 0.0
H529 H 0.76878 0.22318 0.34535 0.0
H530 H 0.9095 0.17764 0.38175 0.0
H531 H 0.93952 0.13736 0.4299 0.0
C532 C 0.27427 0.52757 0.04917 0.0
C533 C 0.29021 0.56949 0.07714 0.0
C534 C 0.19104 0.60734 0.08471 0.0
C535 C 0.17493 0.56192 0.063 0.0
N536 N 0.20328 0.47217 0.03929 0.0
N537 N 0.26218 0.64238 0.13336 0.0
C538 C 0.21708 0.52003 0.04927 0.0
C539 C 0.24817 0.60747 0.09845 0.0
N540 N 0.31332 0.49555 1.0216 0.0
N541 N 0.15277 0.6511 0.09039 0.0
H542 H 0.30318 0.64227 0.14658 0.0
H543 H 0.23214 0.66764 0.15331 0.0
H544 H 0.11105 0.65385 0.07842 0.0
H545 H 0.16417 0.68635 0.10169 0.0
H546 H 0.30252 0.46704 0.99713 0.0
H547 H 0.35534 0.50119 1.01892 0.0
H548 H 0.23348 0.43979 0.03325 0.0
H549 H 0.16263 0.46328 0.0436 0.0
C550 C 0.27763 0.46143 0.52099 0.0
C551 C 0.23122 0.50244 0.52012 0.0
C552 C 0.2974 0.56413 0.50566 0.0
C553 C 0.34243 0.52251 0.50491 0.0
N554 N 0.37199 0.43196 0.49081 0.0
N555 N 0.19652 0.59056 0.49712 0.0
C556 C 0.33121 0.4713 0.50533 0.0
C557 C 0.24099 0.55318 0.50756 0.0
N558 N 0.27266 0.41421 0.54083 0.0
N559 N 0.30838 0.61381 0.50691 0.0
H560 H 0.15492 0.58325 0.49695 0.0
H561 H 0.20128 0.62707 0.48377 0.0
H562 H 0.34912 0.62306 0.50484 0.0
H563 H 0.2774 0.64547 0.5133 0.0
H564 H 0.30719 0.38561 0.54659 0.0
H565 H 0.23609 0.40515 0.55707 0.0
H566 H 0.36441 0.39399 0.48646 0.0
H567 H 0.41107 0.43874 0.47717 0.0
C568 C 0.90251 0.73499 0.88915 0.0
C569 C 0.9219 0.782 0.90278 0.0
C570 C 0.97914 0.7349 0.97187 0.0
C571 C 0.95531 0.68915 0.96147 0.0
N572 N 0.88605 0.64944 0.91501 0.0
N573 N 0.97441 0.82786 0.96109 0.0
C574 C 0.9151 0.69021 0.92106 0.0
C575 C 0.95908 0.78213 0.94528 0.0
N576 N 0.87192 0.73303 0.84531 0.0
N577 N 0.02281 0.73284 1.00567 0.0
H578 H 0.96308 0.86232 0.94129 0.0
H579 H 0.99539 0.83229 0.9953 0.0
H580 H 0.03879 0.69938 1.02534 0.0
H581 H 0.04632 0.76281 1.01105 0.0
H582 H 0.86169 0.6989 0.82984 0.0
H583 H 0.86101 0.76501 0.8218 0.0
H584 H 0.85225 0.6496 0.89002 0.0
H585 H 0.89173 0.6173 0.9388 0.0
C586 C 0.47199 0.68972 0.0389 0.0
C587 C 0.4476 0.67241 0.08356 0.0
C588 C 0.46966 0.74726 0.13161 0.0
C589 C 0.48748 0.76763 0.08562 0.0
N590 N 0.5049 0.76092 0.99499 0.0
N591 N 0.41824 0.68551 0.17161 0.0
C592 C 0.48901 0.73936 0.03911 0.0
C593 C 0.44537 0.70125 0.12987 0.0
N594 N 0.47959 0.65833 0.99683 0.0
N595 N 0.47618 0.77204 0.17685 0.0
H596 H 0.40028 0.65164 0.17235 0.0
H597 H 0.40964 0.70778 0.20447 0.0
H598 H 0.49341 0.80629 0.1791 0.0
H599 H 0.46937 0.75658 0.21245 0.0
H600 H 0.50247 0.66624 0.96484 0.0
H601 H 0.46586 0.62238 0.99519 0.0
H602 H 0.50048 0.74531 0.95884 0.0
H603 H 0.52047 0.79607 0.99435 0.0
C604 C 0.06156 0.36226 0.50701 0.0
C605 C 0.09584 0.38071 0.5448 0.0
C606 C 0.08787 0.30654 0.59906 0.0
C607 C 0.05608 0.28674 0.56039 0.0
N608 N 0.01927 0.29002 0.47442 0.0
N609 N 0.1533 0.36443 0.62081 0.0
C610 C 0.04473 0.31292 0.5133 0.0
C611 C 0.11298 0.35062 0.58877 0.0
N612 N 0.04409 0.39249 0.46608 0.0
N613 N 0.09265 0.28396 0.64621 0.0
H614 H 0.17202 0.3973 0.61542 0.0
H615 H 0.17174 0.34104 0.65015 0.0
H616 H 0.07431 0.25143 0.65526 0.0
H617 H 0.11006 0.30021 0.67773 0.0
H618 H 0.01359 0.38428 0.44021 0.0
H619 H 0.05899 0.42722 0.4594 0.0
H620 H 0.01522 0.30465 0.43749 0.0
H621 H 1.00506 0.25447 0.47828 0.0
C622 C 0.61387 0.33609 0.38369 0.0
C623 C 0.59212 0.29037 0.39702 0.0
C624 C 0.53525 0.34004 0.46488 0.0
C625 C 0.56138 0.38461 0.45471 0.0
N626 N 0.63701 0.41864 0.41209 0.0
N627 N 0.53701 0.24722 0.45473 0.0
C628 C 0.60348 0.38095 0.41585 0.0
C629 C 0.55406 0.29204 0.43883 0.0
N630 N 0.64499 0.33665 0.34011 0.0
N631 N 0.49112 0.34358 0.49822 0.0
H632 H 0.54762 0.21226 0.43529 0.0
H633 H 0.51541 0.24396 0.48874 0.0
H634 H 0.47674 0.37675 0.51914 0.0
H635 H 0.46588 0.31478 0.50244 0.0
H636 H 0.65701 0.37018 0.3252 0.0
H637 H 0.65408 0.30451 0.3162 0.0
H638 H 0.67173 0.41606 0.38789 0.0
H639 H 0.63473 0.4495 0.43765 0.0
loop_
_geom_bond_atom_site_label_1
_geom_bond_atom_site_label_2
_geom_bond_distance
_geom_bond_site_symmetry_2
_ccdc_geom_bond_type
H0 C3 0.931 . S
H1 C6 0.928 . S
H2 C8 0.930 . S
C3 H0 0.931 . S
C3 C4 1.413 . S
C3 C5 1.360 . S
C4 C3 1.413 . S
C4 C8 1.429 . S
C5 C3 1.360 . S
C5 C6 1.372 . S
C6 H1 0.928 . S
C6 C5 1.372 . S
C6 C7 1.404 . S
C7 C6 1.404 . S
C7 C8 1.391 . S
C8 H2 0.930 . S
C8 C4 1.429 . S
C8 C7 1.391 . S
H9 C12 0.931 . S
H10 C15 0.928 . S
H11 C17 0.930 . S
C12 H9 0.931 . S
C12 C13 1.413 . S
C12 C14 1.360 . S
C13 C12 1.413 . S
C13 C17 1.429 . S
C14 C12 1.360 . S
C14 C15 1.372 . S
C15 H10 0.928 . S
C15 C14 1.372 . S
C15 C16 1.404 . S
C16 C15 1.404 . S
C16 C17 1.391 . S
C17 H11 0.930 . S
C17 C13 1.429 . S
C17 C16 1.391 . S
H18 C21 0.931 . S
H19 C24 0.928 . S
H20 C26 0.930 . S
C21 H18 0.931 . S
C21 C22 1.413 . S
C21 C23 1.360 . S
C22 C21 1.413 . S
C22 C26 1.429 . S
C23 C21 1.360 . S
C23 C24 1.372 . S
C24 H19 0.928 . S
C24 C23 1.372 . S
C24 C25 1.404 . S
C25 C24 1.404 . S
C25 C26 1.391 . S
C26 H20 0.930 . S
C26 C22 1.429 . S
C26 C25 1.391 . S
H27 C30 0.931 . S
H28 C33 0.928 . S
H29 C35 0.930 . S
C30 H27 0.931 . S
C30 C31 1.413 . S
C30 C32 1.360 . S
C31 C30 1.413 . S
C31 C35 1.429 . S
C32 C30 1.360 . S
C32 C33 1.372 . S
C33 H28 0.928 . S
C33 C32 1.372 . S
C33 C34 1.404 . S
C34 C33 1.404 . S
C34 C35 1.391 . S
C35 H29 0.930 . S
C35 C31 1.429 . S
C35 C34 1.391 . S
H36 C39 0.931 . S
H37 C42 0.928 . S
H38 C44 0.930 . S
C39 H36 0.931 . S
C39 C40 1.413 . S
C39 C41 1.360 . S
C40 C39 1.413 . S
C40 C44 1.429 . S
C41 C39 1.360 . S
C41 C42 1.372 . S
C42 H37 0.928 . S
C42 C41 1.372 . S
C42 C43 1.404 . S
C43 C42 1.404 . S
C43 C44 1.391 . S
C44 H38 0.930 . S
C44 C40 1.429 . S
C44 C43 1.391 . S
H45 C48 0.931 . S
H46 C51 0.928 . S
H47 C53 0.930 . S
C48 H45 0.931 . S
C48 C49 1.413 . S
C48 C50 1.360 . S
C49 C48 1.413 . S
C49 C53 1.429 . S
C50 C48 1.360 . S
C50 C51 1.372 . S
C51 H46 0.928 . S
C51 C50 1.372 . S
C51 C52 1.404 . S
C52 C51 1.404 . S
C52 C53 1.391 . S
C53 H47 0.930 . S
C53 C49 1.429 . S
C53 C52 1.391 . S
H54 C57 0.931 . S
H55 C60 0.928 . S
H56 C62 0.930 . S
C57 H54 0.931 . S
C57 C58 1.413 . S
C57 C59 1.360 . S
C58 C57 1.413 . S
C58 C62 1.429 . S
C59 C57 1.360 . S
C59 C60 1.372 . S
C60 H55 0.928 . S
C60 C59 1.372 . S
C60 C61 1.404 . S
C61 C60 1.404 . S
C61 C62 1.391 . S
C62 H56 0.930 . S
C62 C58 1.429 . S
C62 C61 1.391 . S
H63 C66 0.931 . S
H64 C69 0.928 . S
H65 C71 0.930 . S
C66 H63 0.931 . S
C66 C67 1.413 . S
C66 C68 1.360 . S
C67 C66 1.413 . S
C67 C71 1.429 . S
C68 C66 1.360 . S
C68 C69 1.372 . S
C69 H64 0.928 . S
C69 C68 1.372 . S
C69 C70 1.404 . S
C70 C69 1.404 . S
C70 C71 1.391 . S
C71 H65 0.930 . S
C71 C67 1.429 . S
C71 C70 1.391 . S
C72 O88 1.251 . S
C72 O90 1.254 1_545 S
N73 C74 1.333 . S
N73 C78 1.307 . S
N73 Zn79 2.020 . S
C74 N73 1.333 . S
C74 C75 1.379 . S
C74 H92 0.952 . S
C75 C74 1.379 . S
C75 C76 1.390 . S
C75 H102 0.949 . S
C76 C75 1.390 . S
C76 C77 1.357 . S
C77 C76 1.357 . S
C77 C78 1.370 . S
C77 H103 0.950 . S
C78 N73 1.307 . S
C78 C77 1.370 . S
C78 H96 0.948 1_455 S
Zn79 N73 2.020 . S
Zn79 O88 2.039 . S
Zn79 O94 2.034 . S
Zn79 O98 2.025 1_455 S
Zn79 O100 2.024 1_455 S
C80 O99 1.246 1_545 S
C80 O100 1.249 . S
N81 C82 1.307 . S
N81 C83 1.333 . S
N81 Zn87 2.020 . S
C82 N81 1.307 . S
C82 C86 1.370 . S
C82 H93 0.948 1_655 S
C83 N81 1.333 . S
C83 C84 1.379 . S
C83 H91 0.952 . S
C84 C83 1.379 . S
C84 C85 1.390 . S
C84 H104 0.949 . S
C85 C84 1.390 . S
C85 C86 1.357 . S
C86 C82 1.370 . S
C86 C85 1.357 . S
C86 H105 0.947 1_655 S
Zn87 N81 2.020 . S
Zn87 O90 2.025 1_655 S
Zn87 O95 2.024 1_655 S
Zn87 O97 2.039 . S
Zn87 O99 2.034 . S
O88 C72 1.251 . S
O88 Zn79 2.039 . S
C89 O94 1.246 1_565 S
C89 O95 1.249 . S
O90 C72 1.254 1_565 S
O90 Zn87 2.025 1_455 S
H91 C83 0.952 . S
H92 C74 0.952 . S
H93 C82 0.948 1_455 S
O94 Zn79 2.034 . S
O94 C89 1.246 1_545 S
O95 Zn87 2.024 1_455 S
O95 C89 1.249 . S
H96 C78 0.948 1_655 S
O97 Zn87 2.039 . S
O97 C101 1.251 . S
O98 Zn79 2.025 1_655 S
O98 C101 1.254 1_545 S
O99 C80 1.246 1_565 S
O99 Zn87 2.034 . S
O100 Zn79 2.024 1_655 S
O100 C80 1.249 . S
C101 O97 1.251 . S
C101 O98 1.254 1_565 S
H102 C75 0.949 . S
H103 C77 0.950 . S
H104 C84 0.949 . S
H105 C86 0.947 1_455 S
C106 O122 1.251 1_565 S
C106 O124 1.254 . S
N107 C108 1.333 . S
N107 C112 1.307 . S
N107 Zn113 2.020 . S
C108 N107 1.333 . S
C108 C109 1.379 . S
C108 H126 0.952 . S
C109 C108 1.379 . S
C109 C110 1.390 . S
C109 H136 0.949 . S
C110 C109 1.390 . S
C110 C111 1.357 . S
C111 C110 1.357 . S
C111 C112 1.370 . S
C111 H137 0.950 . S
C112 N107 1.307 . S
C112 C111 1.370 . S
C112 H130 0.948 . S
Zn113 N107 2.020 . S
Zn113 O122 2.039 . S
Zn113 O128 2.034 1_556 S
Zn113 O132 2.025 1_556 S
Zn113 O134 2.024 . S
C114 O133 1.246 . S
C114 O134 1.249 1_565 S
N115 C116 1.307 . S
N115 C117 1.333 . S
N115 Zn121 2.020 . S
C116 N115 1.307 . S
C116 C120 1.370 . S
C116 H127 0.948 . S
C117 N115 1.333 . S
C117 C118 1.379 . S
C117 H125 0.952 . S
C118 C117 1.379 . S
C118 C119 1.390 . S
C118 H138 0.949 . S
C119 C118 1.390 . S
C119 C120 1.357 . S
C120 C116 1.370 . S
C120 C119 1.357 . S
C120 H139 0.950 . S
Zn121 N115 2.020 . S
Zn121 O124 2.025 1_554 S
Zn121 O129 2.024 . S
Zn121 O131 2.039 . S
Zn121 O133 2.034 1_554 S
O122 C106 1.251 1_545 S
O122 Zn113 2.039 . S
C123 O128 1.246 . S
C123 O129 1.249 1_545 S
O124 C106 1.254 . S
O124 Zn121 2.025 1_556 S
H125 C117 0.952 . S
H126 C108 0.952 . S
H127 C116 0.948 . S
O128 Zn113 2.034 1_554 S
O128 C123 1.246 . S
O129 Zn121 2.024 . S
O129 C123 1.249 1_565 S
H130 C112 0.948 . S
O131 Zn121 2.039 . S
O131 C135 1.251 1_565 S
O132 Zn113 2.025 1_554 S
O132 C135 1.254 . S
O133 C114 1.246 . S
O133 Zn121 2.034 1_556 S
O134 Zn113 2.024 . S
O134 C114 1.249 1_545 S
C135 O131 1.251 1_545 S
C135 O132 1.254 . S
H136 C109 0.949 . S
H137 C111 0.950 . S
H138 C118 0.949 . S
H139 C120 0.950 . S
C140 O156 1.251 . S
C140 O158 1.254 . S
N141 C142 1.333 . S
N141 C146 1.307 . S
N141 Zn147 2.020 . S
C142 N141 1.333 . S
C142 C143 1.379 . S
C142 H160 0.952 . S
C143 C142 1.379 . S
C143 C144 1.390 . S
C143 H170 0.949 . S
C144 C143 1.390 . S
C144 C145 1.357 . S
C145 C144 1.357 . S
C145 C146 1.370 . S
C145 H171 0.950 . S
C146 N141 1.307 . S
C146 C145 1.370 . S
C146 H164 0.948 . S
Zn147 N141 2.020 . S
Zn147 O156 2.039 . S
Zn147 O162 2.034 . S
Zn147 O166 2.025 . S
Zn147 O168 2.024 . S
C148 O167 1.246 . S
C148 O168 1.249 . S
N149 C150 1.307 . S
N149 C151 1.333 . S
N149 Zn155 2.020 . S
C150 N149 1.307 . S
C150 C154 1.370 . S
C150 H161 0.948 . S
C151 N149 1.333 . S
C151 C152 1.379 . S
C151 H159 0.952 . S
C152 C151 1.379 . S
C152 C153 1.390 . S
C152 H172 0.949 . S
C153 C152 1.390 . S
C153 C154 1.357 . S
C154 C150 1.370 . S
C154 C153 1.357 . S
C154 H173 0.950 . S
Zn155 N149 2.020 . S
Zn155 O158 2.025 . S
Zn155 O163 2.024 . S
Zn155 O165 2.039 . S
Zn155 O167 2.034 . S
O156 C140 1.251 . S
O156 Zn147 2.039 . S
C157 O162 1.246 . S
C157 O163 1.249 . S
O158 C140 1.254 . S
O158 Zn155 2.025 . S
H159 C151 0.952 . S
H160 C142 0.952 . S
H161 C150 0.948 . S
O162 Zn147 2.034 . S
O162 C157 1.246 . S
O163 Zn155 2.024 . S
O163 C157 1.249 . S
H164 C146 0.948 . S
O165 Zn155 2.039 . S
O165 C169 1.251 . S
O166 Zn147 2.025 . S
O166 C169 1.254 . S
O167 C148 1.246 . S
O167 Zn155 2.034 . S
O168 Zn147 2.024 . S
O168 C148 1.249 . S
C169 O165 1.251 . S
C169 O166 1.254 . S
H170 C143 0.949 . S
H171 C145 0.950 . S
H172 C152 0.949 . S
H173 C154 0.950 . S
C174 O190 1.251 1_556 S
C174 O192 1.254 . S
N175 C176 1.333 . S
N175 C180 1.307 . S
N175 Zn181 2.020 . S
C176 N175 1.333 . S
C176 C177 1.379 . S
C176 H194 0.952 . S
C177 C176 1.379 . S
C177 C178 1.390 . S
C177 H204 0.949 . S
C178 C177 1.390 . S
C178 C179 1.357 . S
C179 C178 1.357 . S
C179 C180 1.370 . S
C179 H205 0.950 . S
C180 N175 1.307 . S
C180 C179 1.370 . S
C180 H198 0.948 . S
Zn181 N175 2.020 . S
Zn181 O190 2.039 . S
Zn181 O196 2.034 1_655 S
Zn181 O200 2.025 1_655 S
Zn181 O202 2.024 . S
C182 O201 1.246 . S
C182 O202 1.249 1_556 S
N183 C184 1.307 . S
N183 C185 1.333 . S
N183 Zn189 2.020 . S
C184 N183 1.307 . S
C184 C188 1.370 . S
C184 H195 0.948 . S
C185 N183 1.333 . S
C185 C186 1.379 . S
C185 H193 0.952 . S
C186 C185 1.379 . S
C186 C187 1.390 . S
C186 H206 0.949 . S
C187 C186 1.390 . S
C187 C188 1.357 . S
C188 C184 1.370 . S
C188 C187 1.357 . S
C188 H207 0.950 . S
Zn189 N183 2.020 . S
Zn189 O192 2.025 1_455 S
Zn189 O197 2.024 . S
Zn189 O199 2.039 . S
Zn189 O201 2.034 1_455 S
O190 C174 1.251 1_554 S
O190 Zn181 2.039 . S
C191 O196 1.246 . S
C191 O197 1.249 1_554 S
O192 C174 1.254 . S
O192 Zn189 2.025 1_655 S
H193 C185 0.952 . S
H194 C176 0.952 . S
H195 C184 0.948 . S
O196 Zn181 2.034 1_455 S
O196 C191 1.246 . S
O197 Zn189 2.024 . S
O197 C191 1.249 1_556 S
H198 C180 0.948 . S
O199 Zn189 2.039 . S
O199 C203 1.251 1_556 S
O200 Zn181 2.025 1_455 S
O200 C203 1.254 . S
O201 C182 1.246 . S
O201 Zn189 2.034 1_655 S
O202 Zn181 2.024 . S
O202 C182 1.249 1_554 S
C203 O199 1.251 1_554 S
C203 O200 1.254 . S
H204 C177 0.949 . S
H205 C179 0.950 . S
H206 C186 0.949 . S
H207 C188 0.950 . S
C208 C209 1.363 . S
C208 C214 1.379 . S
C208 N216 1.356 . S
C209 C208 1.363 . S
C209 C215 1.363 . S
C210 C211 1.363 . S
C210 C215 1.379 . S
C210 N217 1.356 1_445 S
C211 C210 1.363 . S
C211 C214 1.363 . S
N212 C214 1.356 . S
N212 H224 0.984 . S
N212 H225 0.985 . S
N213 C215 1.356 . S
N213 H218 0.984 . S
N213 H219 0.985 1_455 S
C214 C208 1.379 . S
C214 C211 1.363 . S
C214 N212 1.356 . S
C215 C209 1.363 . S
C215 C210 1.379 . S
C215 N213 1.356 . S
N216 C208 1.356 . S
N216 H222 0.984 . S
N216 H223 0.984 . S
N217 C210 1.356 1_665 S
N217 H220 0.984 . S
N217 H221 0.985 . S
H218 N213 0.984 . S
H219 N213 0.985 1_655 S
H220 N217 0.984 . S
H221 N217 0.985 . S
H222 N216 0.984 . S
H223 N216 0.984 . S
H224 N212 0.984 . S
H225 N212 0.985 . S
C226 C227 1.363 . S
C226 C232 1.379 . S
C226 N234 1.356 . S
C227 C226 1.363 . S
C227 C233 1.363 . S
C228 C229 1.363 . S
C228 C233 1.379 . S
C228 N235 1.356 . S
C229 C228 1.363 . S
C229 C232 1.363 . S
N230 C232 1.356 . S
N230 H242 0.984 . S
N230 H243 0.985 . S
N231 C233 1.356 . S
N231 H236 0.984 . S
N231 H237 0.985 . S
C232 C226 1.379 . S
C232 C229 1.363 . S
C232 N230 1.356 . S
C233 C227 1.363 . S
C233 C228 1.379 . S
C233 N231 1.356 . S
N234 C226 1.356 . S
N234 H240 0.984 . S
N234 H241 0.984 . S
N235 C228 1.356 . S
N235 H238 0.984 . S
N235 H239 0.985 . S
H236 N231 0.984 . S
H237 N231 0.985 . S
H238 N235 0.984 . S
H239 N235 0.985 . S
H240 N234 0.984 . S
H241 N234 0.984 . S
H242 N230 0.984 . S
H243 N230 0.985 . S
C244 C245 1.363 . S
C244 C250 1.379 . S
C244 N252 1.356 . S
C245 C244 1.363 . S
C245 C251 1.363 . S
C246 C247 1.363 . S
C246 C251 1.379 . S
C246 N253 1.356 . S
C247 C246 1.363 . S
C247 C250 1.363 . S
N248 C250 1.356 . S
N248 H260 0.984 . S
N248 H261 0.985 . S
N249 C251 1.356 . S
N249 H254 0.984 . S
N249 H255 0.985 . S
C250 C244 1.379 . S
C250 C247 1.363 . S
C250 N248 1.356 . S
C251 C245 1.363 . S
C251 C246 1.379 . S
C251 N249 1.356 . S
N252 C244 1.356 . S
N252 H258 0.984 . S
N252 H259 0.984 . S
N253 C246 1.356 . S
N253 H256 0.984 . S
N253 H257 0.985 . S
H254 N249 0.984 . S
H255 N249 0.985 . S
H256 N253 0.984 . S
H257 N253 0.985 . S
H258 N252 0.984 . S
H259 N252 0.984 . S
H260 N248 0.984 . S
H261 N248 0.985 . S
C262 C263 1.363 . S
C262 C268 1.379 . S
C262 N270 1.356 . S
C263 C262 1.363 . S
C263 C269 1.363 . S
C264 C265 1.363 . S
C264 C269 1.379 . S
C264 N271 1.356 . S
C265 C264 1.363 . S
C265 C268 1.363 . S
N266 C268 1.356 . S
N266 H278 0.984 . S
N266 H279 0.985 . S
N267 C269 1.356 . S
N267 H272 0.984 . S
N267 H273 0.985 . S
C268 C262 1.379 . S
C268 C265 1.363 . S
C268 N266 1.356 . S
C269 C263 1.363 . S
C269 C264 1.379 . S
C269 N267 1.356 . S
N270 C262 1.356 . S
N270 H276 0.984 . S
N270 H277 0.984 . S
N271 C264 1.356 . S
N271 H274 0.984 . S
N271 H275 0.985 . S
H272 N267 0.984 . S
H273 N267 0.985 . S
H274 N271 0.984 . S
H275 N271 0.985 . S
H276 N270 0.984 . S
H277 N270 0.984 . S
H278 N266 0.984 . S
H279 N266 0.985 . S
C280 C281 1.363 . S
C280 C286 1.379 . S
C280 N288 1.356 . S
C281 C280 1.363 . S
C281 C287 1.363 . S
C282 C283 1.363 . S
C282 C287 1.379 . S
C282 N289 1.356 1_554 S
C283 C282 1.363 . S
C283 C286 1.363 . S
N284 C286 1.356 . S
N284 H296 0.984 . S
N284 H297 0.985 . S
N285 C287 1.356 . S
N285 H290 0.984 . S
N285 H291 0.985 1_554 S
C286 C280 1.379 . S
C286 C283 1.363 . S
C286 N284 1.356 . S
C287 C281 1.363 . S
C287 C282 1.379 . S
C287 N285 1.356 . S
N288 C280 1.356 . S
N288 H294 0.984 . S
N288 H295 0.984 . S
N289 C282 1.356 1_556 S
N289 H292 0.984 . S
N289 H293 0.985 . S
H290 N285 0.984 . S
H291 N285 0.985 1_556 S
H292 N289 0.984 . S
H293 N289 0.985 . S
H294 N288 0.984 . S
H295 N288 0.984 . S
H296 N284 0.984 . S
H297 N284 0.985 . S
C298 C299 1.363 . S
C298 C304 1.379 . S
C298 N306 1.356 . S
C299 C298 1.363 . S
C299 C305 1.363 . S
C300 C301 1.363 . S
C300 C305 1.379 . S
C300 N307 1.356 1_565 S
C301 C300 1.363 . S
C301 C304 1.363 . S
N302 C304 1.356 . S
N302 H314 0.984 . S
N302 H315 0.985 . S
N303 C305 1.356 . S
N303 H308 0.984 . S
N303 H309 0.985 1_565 S
C304 C298 1.379 . S
C304 C301 1.363 . S
C304 N302 1.356 . S
C305 C299 1.363 . S
C305 C300 1.379 . S
C305 N303 1.356 . S
N306 C298 1.356 . S
N306 H312 0.984 . S
N306 H313 0.984 . S
N307 C300 1.356 1_545 S
N307 H310 0.984 . S
N307 H311 0.985 . S
H308 N303 0.984 . S
H309 N303 0.985 1_545 S
H310 N307 0.984 . S
H311 N307 0.985 . S
H312 N306 0.984 . S
H313 N306 0.984 . S
H314 N302 0.984 . S
H315 N302 0.985 . S
C316 C317 1.363 . S
C316 C322 1.379 1_556 S
C316 N324 1.356 1_556 S
C317 C316 1.363 . S
C317 C323 1.363 . S
C318 C319 1.363 . S
C318 C323 1.379 . S
C318 N325 1.356 . S
C319 C318 1.363 . S
C319 C322 1.363 1_556 S
N320 C322 1.356 . S
N320 H332 0.984 . S
N320 H333 0.985 . S
N321 C323 1.356 . S
N321 H326 0.984 . S
N321 H327 0.985 . S
C322 C316 1.379 1_554 S
C322 C319 1.363 1_554 S
C322 N320 1.356 . S
C323 C317 1.363 . S
C323 C318 1.379 . S
C323 N321 1.356 . S
N324 C316 1.356 1_554 S
N324 H330 0.984 . S
N324 H331 0.984 . S
N325 C318 1.356 . S
N325 H328 0.984 . S
N325 H329 0.985 . S
H326 N321 0.984 . S
H327 N321 0.985 . S
H328 N325 0.984 . S
H329 N325 0.985 . S
H330 N324 0.984 . S
H331 N324 0.984 . S
H332 N320 0.984 . S
H333 N320 0.985 . S
C334 C335 1.363 . S
C334 C340 1.379 . S
C334 N342 1.356 . S
C335 C334 1.363 . S
C335 C341 1.363 . S
C336 C337 1.363 . S
C336 C341 1.379 . S
C336 N343 1.356 . S
C337 C336 1.363 . S
C337 C340 1.363 . S
N338 C340 1.356 . S
N338 H350 0.984 . S
N338 H351 0.985 . S
N339 C341 1.356 . S
N339 H344 0.984 . S
N339 H345 0.985 . S
C340 C334 1.379 . S
C340 C337 1.363 . S
C340 N338 1.356 . S
C341 C335 1.363 . S
C341 C336 1.379 . S
C341 N339 1.356 . S
N342 C334 1.356 . S
N342 H348 0.984 . S
N342 H349 0.984 . S
N343 C336 1.356 . S
N343 H346 0.984 . S
N343 H347 0.985 . S
H344 N339 0.984 . S
H345 N339 0.985 . S
H346 N343 0.984 . S
H347 N343 0.985 . S
H348 N342 0.984 . S
H349 N342 0.984 . S
H350 N338 0.984 . S
H351 N338 0.985 . S
C352 C353 1.363 . S
C352 C358 1.379 . S
C352 N360 1.356 . S
C353 C352 1.363 . S
C353 C359 1.363 . S
C354 C355 1.363 . S
C354 C359 1.379 . S
C354 N361 1.356 1_554 S
C355 C354 1.363 . S
C355 C358 1.363 . S
N356 C358 1.356 . S
N356 H368 0.984 1_455 S
N356 H369 0.985 . S
N357 C359 1.356 . S
N357 H362 0.984 . S
N357 H363 0.985 1_554 S
C358 C352 1.379 . S
C358 C355 1.363 . S
C358 N356 1.356 . S
C359 C353 1.363 . S
C359 C354 1.379 . S
C359 N357 1.356 . S
N360 C352 1.356 . S
N360 H366 0.984 . S
N360 H367 0.984 . S
N361 C354 1.356 1_556 S
N361 H364 0.984 . S
N361 H365 0.985 . S
H362 N357 0.984 . S
H363 N357 0.985 1_556 S
H364 N361 0.984 . S
H365 N361 0.985 . S
H366 N360 0.984 . S
H367 N360 0.984 . S
H368 N356 0.984 1_655 S
H369 N356 0.985 . S
C370 C371 1.363 . S
C370 C376 1.379 . S
C370 N378 1.356 . S
C371 C370 1.363 . S
C371 C377 1.363 . S
C372 C373 1.363 . S
C372 C377 1.379 . S
C372 N379 1.356 . S
C373 C372 1.363 . S
C373 C376 1.363 . S
N374 C376 1.356 . S
N374 H386 0.984 . S
N374 H387 0.985 . S
N375 C377 1.356 1_554 S
N375 H380 0.984 1_554 S
N375 H381 0.985 . S
C376 C370 1.379 . S
C376 C373 1.363 . S
C376 N374 1.356 . S
C377 C371 1.363 . S
C377 C372 1.379 . S
C377 N375 1.356 1_556 S
N378 C370 1.356 . S
N378 H384 0.984 . S
N378 H385 0.984 . S
N379 C372 1.356 . S
N379 H382 0.984 . S
N379 H383 0.985 1_556 S
H380 N375 0.984 1_556 S
H381 N375 0.985 . S
H382 N379 0.984 . S
H383 N379 0.985 1_554 S
H384 N378 0.984 . S
H385 N378 0.984 . S
H386 N374 0.984 . S
H387 N374 0.985 . S
C388 C389 1.363 . S
C388 C394 1.379 . S
C388 N396 1.356 . S
C389 C388 1.363 . S
C389 C395 1.363 . S
C390 C391 1.363 . S
C390 C395 1.379 . S
C390 N397 1.356 . S
C391 C390 1.363 . S
C391 C394 1.363 . S
N392 C394 1.356 . S
N392 H404 0.984 . S
N392 H405 0.985 . S
N393 C395 1.356 . S
N393 H398 0.984 . S
N393 H399 0.985 . S
C394 C388 1.379 . S
C394 C391 1.363 . S
C394 N392 1.356 . S
C395 C389 1.363 . S
C395 C390 1.379 . S
C395 N393 1.356 . S
N396 C388 1.356 . S
N396 H402 0.984 . S
N396 H403 0.984 . S
N397 C390 1.356 . S
N397 H400 0.984 . S
N397 H401 0.985 . S
H398 N393 0.984 . S
H399 N393 0.985 . S
H400 N397 0.984 . S
H401 N397 0.985 . S
H402 N396 0.984 . S
H403 N396 0.984 . S
H404 N392 0.984 . S
H405 N392 0.985 . S
C406 C407 1.363 . S
C406 C412 1.379 . S
C406 N414 1.356 . S
C407 C406 1.363 . S
C407 C413 1.363 . S
C408 C409 1.363 . S
C408 C413 1.379 . S
C408 N415 1.356 . S
C409 C408 1.363 . S
C409 C412 1.363 . S
N410 C412 1.356 . S
N410 H422 0.984 . S
N410 H423 0.985 . S
N411 C413 1.356 . S
N411 H416 0.984 . S
N411 H417 0.985 . S
C412 C406 1.379 . S
C412 C409 1.363 . S
C412 N410 1.356 . S
C413 C407 1.363 . S
C413 C408 1.379 . S
C413 N411 1.356 . S
N414 C406 1.356 . S
N414 H420 0.984 . S
N414 H421 0.984 . S
N415 C408 1.356 . S
N415 H418 0.984 . S
N415 H419 0.985 . S
H416 N411 0.984 . S
H417 N411 0.985 . S
H418 N415 0.984 . S
H419 N415 0.985 . S
H420 N414 0.984 . S
H421 N414 0.984 . S
H422 N410 0.984 . S
H423 N410 0.985 . S
C424 C425 1.363 . S
C424 C430 1.379 . S
C424 N432 1.356 . S
C425 C424 1.363 . S
C425 C431 1.363 . S
C426 C427 1.363 . S
C426 C431 1.379 . S
C426 N433 1.356 . S
C427 C426 1.363 . S
C427 C430 1.363 . S
N428 C430 1.356 1_445 S
N428 H440 0.984 . S
N428 H441 0.985 . S
N429 C431 1.356 . S
N429 H434 0.984 . S
N429 H435 0.985 . S
C430 C424 1.379 . S
C430 C427 1.363 . S
C430 N428 1.356 1_665 S
C431 C425 1.363 . S
C431 C426 1.379 . S
C431 N429 1.356 . S
N432 C424 1.356 . S
N432 H438 0.984 1_655 S
N432 H439 0.984 . S
N433 C426 1.356 . S
N433 H436 0.984 . S
N433 H437 0.985 . S
H434 N429 0.984 . S
H435 N429 0.985 . S
H436 N433 0.984 . S
H437 N433 0.985 . S
H438 N432 0.984 1_455 S
H439 N432 0.984 . S
H440 N428 0.984 . S
H441 N428 0.985 . S
C442 C443 1.363 . S
C442 C448 1.379 . S
C442 N450 1.356 . S
C443 C442 1.363 . S
C443 C449 1.363 . S
C444 C445 1.363 . S
C444 C449 1.379 . S
C444 N451 1.356 . S
C445 C444 1.363 . S
C445 C448 1.363 . S
N446 C448 1.356 1_565 S
N446 H458 0.984 . S
N446 H459 0.985 . S
N447 C449 1.356 . S
N447 H452 0.984 . S
N447 H453 0.985 . S
C448 C442 1.379 . S
C448 C445 1.363 . S
C448 N446 1.356 1_545 S
C449 C443 1.363 . S
C449 C444 1.379 . S
C449 N447 1.356 . S
N450 C442 1.356 . S
N450 H456 0.984 1_545 S
N450 H457 0.984 . S
N451 C444 1.356 . S
N451 H454 0.984 . S
N451 H455 0.985 . S
H452 N447 0.984 . S
H453 N447 0.985 . S
H454 N451 0.984 . S
H455 N451 0.985 . S
H456 N450 0.984 1_565 S
H457 N450 0.984 . S
H458 N446 0.984 . S
H459 N446 0.985 . S
C460 C461 1.363 . S
C460 C466 1.379 . S
C460 N468 1.356 . S
C461 C460 1.363 . S
C461 C467 1.363 . S
C462 C463 1.363 . S
C462 C467 1.379 . S
C462 N469 1.356 . S
C463 C462 1.363 . S
C463 C466 1.363 . S
N464 C466 1.356 . S
N464 H476 0.984 . S
N464 H477 0.985 . S
N465 C467 1.356 . S
N465 H470 0.984 . S
N465 H471 0.985 . S
C466 C460 1.379 . S
C466 C463 1.363 . S
C466 N464 1.356 . S
C467 C461 1.363 . S
C467 C462 1.379 . S
C467 N465 1.356 . S
N468 C460 1.356 . S
N468 H474 0.984 . S
N468 H475 0.984 . S
N469 C462 1.356 . S
N469 H472 0.984 . S
N469 H473 0.985 . S
H470 N465 0.984 . S
H471 N465 0.985 . S
H472 N469 0.984 . S
H473 N469 0.985 . S
H474 N468 0.984 . S
H475 N468 0.984 . S
H476 N464 0.984 . S
H477 N464 0.985 . S
C478 C479 1.363 . S
C478 C484 1.379 . S
C478 N486 1.356 . S
C479 C478 1.363 . S
C479 C485 1.363 . S
C480 C481 1.363 . S
C480 C485 1.379 . S
C480 N487 1.356 . S
C481 C480 1.363 . S
C481 C484 1.363 . S
N482 C484 1.356 . S
N482 H494 0.984 . S
N482 H495 0.985 . S
N483 C485 1.356 . S
N483 H488 0.984 . S
N483 H489 0.985 . S
C484 C478 1.379 . S
C484 C481 1.363 . S
C484 N482 1.356 . S
C485 C479 1.363 . S
C485 C480 1.379 . S
C485 N483 1.356 . S
N486 C478 1.356 . S
N486 H492 0.984 . S
N486 H493 0.984 . S
N487 C480 1.356 . S
N487 H490 0.984 . S
N487 H491 0.985 . S
H488 N483 0.984 . S
H489 N483 0.985 . S
H490 N487 0.984 . S
H491 N487 0.985 . S
H492 N486 0.984 . S
H493 N486 0.984 . S
H494 N482 0.984 . S
H495 N482 0.985 . S
C496 C497 1.363 . S
C496 C502 1.379 . S
C496 N504 1.356 . S
C497 C496 1.363 . S
C497 C503 1.363 . S
C498 C499 1.363 . S
C498 C503 1.379 . S
C498 N505 1.356 1_565 S
C499 C498 1.363 . S
C499 C502 1.363 . S
N500 C502 1.356 . S
N500 H512 0.984 . S
N500 H513 0.985 . S
N501 C503 1.356 . S
N501 H506 0.984 . S
N501 H507 0.985 1_565 S
C502 C496 1.379 . S
C502 C499 1.363 . S
C502 N500 1.356 . S
C503 C497 1.363 . S
C503 C498 1.379 . S
C503 N501 1.356 . S
N504 C496 1.356 . S
N504 H510 0.984 . S
N504 H511 0.984 . S
N505 C498 1.356 1_545 S
N505 H508 0.984 . S
N505 H509 0.985 . S
H506 N501 0.984 . S
H507 N501 0.985 1_545 S
H508 N505 0.984 . S
H509 N505 0.985 . S
H510 N504 0.984 . S
H511 N504 0.984 . S
H512 N500 0.984 . S
H513 N500 0.985 . S
C514 C515 1.363 . S
C514 C520 1.379 . S
C514 N522 1.356 . S
C515 C514 1.363 . S
C515 C521 1.363 . S
C516 C517 1.363 . S
C516 C521 1.379 . S
C516 N523 1.356 . S
C517 C516 1.363 . S
C517 C520 1.363 . S
N518 C520 1.356 . S
N518 H530 0.984 . S
N518 H531 0.985 . S
N519 C521 1.356 . S
N519 H524 0.984 . S
N519 H525 0.985 . S
C520 C514 1.379 . S
C520 C517 1.363 . S
C520 N518 1.356 . S
C521 C515 1.363 . S
C521 C516 1.379 . S
C521 N519 1.356 . S
N522 C514 1.356 . S
N522 H528 0.984 . S
N522 H529 0.984 . S
N523 C516 1.356 . S
N523 H526 0.984 . S
N523 H527 0.985 . S
H524 N519 0.984 . S
H525 N519 0.985 . S
H526 N523 0.984 . S
H527 N523 0.985 . S
H528 N522 0.984 . S
H529 N522 0.984 . S
H530 N518 0.984 . S
H531 N518 0.985 . S
C532 C533 1.363 . S
C532 C538 1.379 . S
C532 N540 1.356 1_554 S
C533 C532 1.363 . S
C533 C539 1.363 . S
C534 C535 1.363 . S
C534 C539 1.379 . S
C534 N541 1.356 . S
C535 C534 1.363 . S
C535 C538 1.363 . S
N536 C538 1.356 1_556 S
N536 H548 0.984 . S
N536 H549 0.985 . S
N537 C539 1.356 . S
N537 H542 0.984 . S
N537 H543 0.985 . S
C538 C532 1.379 . S
C538 C535 1.363 . S
C538 N536 1.356 1_554 S
C539 C533 1.363 . S
C539 C534 1.379 . S
C539 N537 1.356 . S
N540 C532 1.356 1_556 S
N540 H546 0.984 . S
N540 H547 0.984 1_556 S
N541 C534 1.356 . S
N541 H544 0.984 . S
N541 H545 0.985 . S
H542 N537 0.984 . S
H543 N537 0.985 . S
H544 N541 0.984 . S
H545 N541 0.985 . S
H546 N540 0.984 . S
H547 N540 0.984 1_554 S
H548 N536 0.984 . S
H549 N536 0.985 . S
C550 C551 1.363 . S
C550 C556 1.379 . S
C550 N558 1.356 . S
C551 C550 1.363 . S
C551 C557 1.363 . S
C552 C553 1.363 . S
C552 C557 1.379 . S
C552 N559 1.356 . S
C553 C552 1.363 . S
C553 C556 1.363 . S
N554 C556 1.356 . S
N554 H566 0.984 . S
N554 H567 0.985 . S
N555 C557 1.356 . S
N555 H560 0.984 . S
N555 H561 0.985 . S
C556 C550 1.379 . S
C556 C553 1.363 . S
C556 N554 1.356 . S
C557 C551 1.363 . S
C557 C552 1.379 . S
C557 N555 1.356 . S
N558 C550 1.356 . S
N558 H564 0.984 . S
N558 H565 0.984 . S
N559 C552 1.356 . S
N559 H562 0.984 . S
N559 H563 0.985 . S
H560 N555 0.984 . S
H561 N555 0.985 . S
H562 N559 0.984 . S
H563 N559 0.985 . S
H564 N558 0.984 . S
H565 N558 0.984 . S
H566 N554 0.984 . S
H567 N554 0.985 . S
C568 C569 1.363 . S
C568 C574 1.379 . S
C568 N576 1.356 . S
C569 C568 1.363 . S
C569 C575 1.363 . S
C570 C571 1.363 . S
C570 C575 1.379 . S
C570 N577 1.356 1_556 S
C571 C570 1.363 . S
C571 C574 1.363 . S
N572 C574 1.356 . S
N572 H584 0.984 . S
N572 H585 0.985 . S
N573 C575 1.356 . S
N573 H578 0.984 . S
N573 H579 0.984 1_556 S
C574 C568 1.379 . S
C574 C571 1.363 . S
C574 N572 1.356 . S
C575 C569 1.363 . S
C575 C570 1.379 . S
C575 N573 1.356 . S
N576 C568 1.356 . S
N576 H582 0.984 . S
N576 H583 0.984 . S
N577 C570 1.356 1_554 S
N577 H580 0.984 . S
N577 H581 0.985 1_655 S
H578 N573 0.984 . S
H579 N573 0.984 1_554 S
H580 N577 0.984 . S
H581 N577 0.985 1_455 S
H582 N576 0.984 . S
H583 N576 0.984 . S
H584 N572 0.984 . S
H585 N572 0.985 . S
C586 C587 1.363 . S
C586 C592 1.379 . S
C586 N594 1.356 1_554 S
C587 C586 1.363 . S
C587 C593 1.363 . S
C588 C589 1.363 . S
C588 C593 1.379 . S
C588 N595 1.356 . S
C589 C588 1.363 . S
C589 C592 1.363 . S
N590 C592 1.356 . S
N590 H602 0.984 1_554 S
N590 H603 0.985 . S
N591 C593 1.356 . S
N591 H596 0.984 . S
N591 H597 0.985 . S
C592 C586 1.379 . S
C592 C589 1.363 . S
C592 N590 1.356 . S
C593 C587 1.363 . S
C593 C588 1.379 . S
C593 N591 1.356 . S
N594 C586 1.356 1_556 S
N594 H600 0.984 . S
N594 H601 0.984 1_556 S
N595 C588 1.356 . S
N595 H598 0.984 . S
N595 H599 0.985 . S
H596 N591 0.984 . S
H597 N591 0.985 . S
H598 N595 0.984 . S
H599 N595 0.985 . S
H600 N594 0.984 . S
H601 N594 0.984 1_554 S
H602 N590 0.984 1_556 S
H603 N590 0.985 . S
C604 C605 1.363 . S
C604 C610 1.379 . S
C604 N612 1.356 . S
C605 C604 1.363 . S
C605 C611 1.363 . S
C606 C607 1.363 . S
C606 C611 1.379 . S
C606 N613 1.356 . S
C607 C606 1.363 . S
C607 C610 1.363 . S
N608 C610 1.355 1_655 S
N608 H620 0.985 . S
N608 H621 0.985 . S
N609 C611 1.356 . S
N609 H614 0.984 . S
N609 H615 0.985 . S
C610 C604 1.379 . S
C610 C607 1.363 . S
C610 N608 1.355 1_455 S
C611 C605 1.363 . S
C611 C606 1.379 . S
C611 N609 1.356 . S
N612 C604 1.356 . S
N612 H618 0.984 . S
N612 H619 0.984 . S
N613 C606 1.356 . S
N613 H616 0.984 . S
N613 H617 0.985 . S
H614 N609 0.984 . S
H615 N609 0.985 . S
H616 N613 0.984 . S
H617 N613 0.985 . S
H618 N612 0.984 . S
H619 N612 0.984 . S
H620 N608 0.985 . S
H621 N608 0.985 . S
C622 C623 1.363 . S
C622 C628 1.379 . S
C622 N630 1.356 . S
C623 C622 1.363 . S
C623 C629 1.363 . S
C624 C625 1.363 . S
C624 C629 1.379 . S
C624 N631 1.356 . S
C625 C624 1.363 . S
C625 C628 1.363 . S
N626 C628 1.356 . S
N626 H638 0.984 . S
N626 H639 0.985 . S
N627 C629 1.356 . S
N627 H632 0.984 . S
N627 H633 0.985 . S
C628 C622 1.379 . S
C628 C625 1.363 . S
C628 N626 1.356 . S
C629 C623 1.363 . S
C629 C624 1.379 . S
C629 N627 1.356 . S
N630 C622 1.356 . S
N630 H636 0.984 . S
N630 H637 0.984 . S
N631 C624 1.356 . S
N631 H634 0.984 . S
N631 H635 0.985 . S
H632 N627 0.984 . S
H633 N627 0.985 . S
H634 N631 0.984 . S
H635 N631 0.985 . S
H636 N630 0.984 . S
H637 N630 0.984 . S
H638 N626 0.984 . S
H639 N626 0.985 . S
C209 C5 2.295 . S
C211 C72 2.307 . S
C227 C14 2.269 . S
C229 C114 2.276 . S
C247 C144 1.006 . S
C245 C25 1.003 . S
C263 C34 1.029 . S
C265 C178 1.039 . S
C283 C135 1.800 . S
C281 C7 1.785 . S
C301 C89 1.816 . S
C299 C13 1.804 . S
C319 C182 1.262 . S
C317 C23 1.245 . S
C337 C148 1.300 . S
C335 C31 1.275 . S
C353 C4 2.168 . S
C355 C203 2.180 . S
C373 C110 1.154 . S
C371 C22 1.141 . S
C389 C32 1.128 . S
C391 C85 1.156 . S
C407 C16 2.148 . S
C409 C169 2.155 . S
C427 C101 2.297 . S
C425 C41 2.286 . S
C443 C50 2.274 . S
C445 C123 2.282 . S
C461 C61 0.998 . S
C463 C153 1.004 . S
C479 C67 1.041 . S
C481 C187 1.048 . S
C497 C40 1.796 . S
C499 C106 1.812 . S
C517 C80 1.802 . S
C515 C52 1.792 . S
C535 C191 1.268 . S
C533 C59 1.246 . S
C553 C157 1.296 . S
C551 C70 1.271 . S
C569 C43 2.168 . S
C571 C174 2.178 . S
C589 C119 1.158 . S
C587 C58 1.143 . S
C607 C76 1.153 . S
C605 C68 1.129 . S
C623 C49 2.154 . S
C625 C140 2.164 . S
