# Generated by pormake.
# Topology zzz, (3,6)-cn, num edge types: 1
# Building blocks:
#     Node 0, Type 0, BuildingBlock: ESEHIV_clean_linker_0, # of connection points: 3
#     Node 1, Type 0, BuildingBlock: ESEHIV_clean_linker_0, # of connection points: 3
#     Node 2, Type 0, BuildingBlock: ESEHIV_clean_linker_0, # of connection points: 3
#     Node 3, Type 0, BuildingBlock: ESEHIV_clean_linker_0, # of connection points: 3
#     Node 4, Type 0, BuildingBlock: ESEHIV_clean_linker_0, # of connection points: 3
#     Node 5, Type 0, BuildingBlock: ESEHIV_clean_linker_0, # of connection points: 3
#     Node 6, Type 0, BuildingBlock: ESEHIV_clean_linker_0, # of connection points: 3
#     Node 7, Type 0, BuildingBlock: ESEHIV_clean_linker_0, # of connection points: 3
#     Node 8, Type 1, BuildingBlock: BETFEN_clean_sbu_0, # of connection points: 6
#     Node 9, Type 1, BuildingBlock: BETFEN_clean_sbu_0, # of connection points: 6
#     Node 10, Type 1, BuildingBlock: BETFEN_clean_sbu_0, # of connection points: 6
#     Node 11, Type 1, BuildingBlock: BETFEN_clean_sbu_0, # of connection points: 6
#     Edge 12, Type (0, 1), BuildingBlock: AJUNOK_clean_linker_0, # of connection points: 2
#     Edge 13, Type (0, 1), BuildingBlock: AJUNOK_clean_linker_0, # of connection points: 2
#     Edge 14, Type (0, 1), BuildingBlock: AJUNOK_clean_linker_0, # of connection points: 2
#     Edge 15, Type (0, 1), BuildingBlock: AJUNOK_clean_linker_0, # of connection points: 2
#     Edge 16, Type (0, 1), BuildingBlock: AJUNOK_clean_linker_0, # of connection points: 2
#     Edge 17, Type (0, 1), BuildingBlock: AJUNOK_clean_linker_0, # of connection points: 2
#     Edge 18, Type (0, 1), BuildingBlock: AJUNOK_clean_linker_0, # of connection points: 2
#     Edge 19, Type (0, 1), BuildingBlock: AJUNOK_clean_linker_0, # of connection points: 2
#     Edge 20, Type (0, 1), BuildingBlock: AJUNOK_clean_linker_0, # of connection points: 2
#     Edge 21, Type (0, 1), BuildingBlock: AJUNOK_clean_linker_0, # of connection points: 2
#     Edge 22, Type (0, 1), BuildingBlock: AJUNOK_clean_linker_0, # of connection points: 2
#     Edge 23, Type (0, 1), BuildingBlock: AJUNOK_clean_linker_0, # of connection points: 2
#     Edge 24, Type (0, 1), BuildingBlock: AJUNOK_clean_linker_0, # of connection points: 2
#     Edge 25, Type (0, 1), BuildingBlock: AJUNOK_clean_linker_0, # of connection points: 2
#     Edge 26, Type (0, 1), BuildingBlock: AJUNOK_clean_linker_0, # of connection points: 2
#     Edge 27, Type (0, 1), BuildingBlock: AJUNOK_clean_linker_0, # of connection points: 2
#     Edge 28, Type (0, 1), BuildingBlock: AJUNOK_clean_linker_0, # of connection points: 2
#     Edge 29, Type (0, 1), BuildingBlock: AJUNOK_clean_linker_0, # of connection points: 2
#     Edge 30, Type (0, 1), BuildingBlock: AJUNOK_clean_linker_0, # of connection points: 2
#     Edge 31, Type (0, 1), BuildingBlock: AJUNOK_clean_linker_0, # of connection points: 2
#     Edge 32, Type (0, 1), BuildingBlock: AJUNOK_clean_linker_0, # of connection points: 2
#     Edge 33, Type (0, 1), BuildingBlock: AJUNOK_clean_linker_0, # of connection points: 2
#     Edge 34, Type (0, 1), BuildingBlock: AJUNOK_clean_linker_0, # of connection points: 2
#     Edge 35, Type (0, 1), BuildingBlock: AJUNOK_clean_linker_0, # of connection points: 2
# Relax obj value: 0.635
# Max RMSD: 0.271
# Mean RMSD: 0.252
data_MOF--net-zzz--node1-BETFEN_clean_sbu_0--node2-ESEHIV_clean_linker_0--edge1-AJUNOK_clean_linker_0
_symmetry_space_group_name_H-M    P1
_symmetry_Int_Tables_number       1
_symmetry_cell_setting            triclinic
loop_
_symmetry_equiv_pos_as_xyz
'x, y, z'
_cell_length_a     32.556272
_cell_length_b     32.475637
_cell_length_c     10.63797
_cell_angle_alpha  89.856216
_cell_angle_beta   89.693954
_cell_angle_gamma 90.127108
loop_
_atom_site_label
_atom_site_type_symbol
_atom_site_fract_x
_atom_site_fract_y
_atom_site_fract_z
_atom_type_partial_charge
H0 H 0.81405 0.44491 0.38708 0.0
H1 H 0.69726 0.44935 0.2014 0.0
H2 H 0.74889 0.55927 0.36325 0.0
C3 C 0.78635 0.4613 0.36152 0.0
C4 C 0.78323 0.50278 0.39635 0.0
C5 C 0.7569 0.44224 0.28452 0.0
C6 C 0.72143 0.46426 0.25398 0.0
C7 C 0.7187 0.50671 0.27591 0.0
C8 C 0.75007 0.52638 0.34729 0.0
H9 H 0.11225 0.82418 0.30094 0.0
H10 H 0.09809 0.70794 0.11931 0.0
H11 H 1.00552 0.74906 0.38271 0.0
C12 C 0.09509 0.79572 0.29079 0.0
C13 C 0.05814 0.79025 0.35836 0.0
C14 C 0.10885 0.7665 0.20354 0.0
C15 C 0.08694 0.73016 0.18744 0.0
C16 C 0.04968 0.72308 0.25013 0.0
C17 C 0.03446 0.7539 0.33424 0.0
H18 H 0.73156 0.10239 0.38051 0.0
H19 H 0.84439 0.0982 0.17373 0.0
H20 H 0.80523 0.99235 0.3923 0.0
C21 C 0.7596 0.08613 0.35635 0.0
C22 C 0.76471 0.04582 0.39982 0.0
C23 C 0.78817 0.10489 0.27563 0.0
C24 C 0.82328 0.08355 0.23932 0.0
C25 C 0.83088 0.0433 0.282 0.0
C26 C 0.80063 1.02371 0.36082 0.0
H27 H 0.44535 0.73962 0.43224 0.0
H28 H 0.56252 0.79681 0.36534 0.0
H29 H 0.45252 0.84911 0.20643 0.0
C30 C 0.46295 0.76522 0.39429 0.0
C31 C 0.44374 0.79427 0.31628 0.0
C32 C 0.50535 0.76566 0.41461 0.0
C33 C 0.52944 0.79683 0.35528 0.0
C34 C 0.50998 0.82792 0.28193 0.0
C35 C 0.46726 0.8263 0.26542 0.0
H36 H 0.22397 0.60684 0.18243 0.0
H37 H 0.33945 0.60446 0.37788 0.0
H38 H 0.28966 0.49341 0.21934 0.0
C39 C 0.25148 0.59106 0.21264 0.0
C40 C 0.25517 0.54932 0.1814 0.0
C41 C 0.28034 0.61126 0.28961 0.0
C42 C 0.31533 0.58925 0.3262 0.0
C43 C 0.31836 0.54659 0.30717 0.0
C44 C 0.28794 0.52633 0.2342 0.0
H45 H 0.94631 0.22386 0.20879 0.0
H46 H 0.94273 0.34394 0.37736 0.0
H47 H 0.05284 0.30142 0.19131 0.0
C48 C 0.96031 0.2535 0.22757 0.0
C49 C 1.00031 0.25999 0.18304 0.0
C50 C 0.9395 0.28276 0.30169 0.0
C51 C 0.95903 0.32036 0.32587 0.0
C52 C 1.00023 0.3274 0.29113 0.0
C53 C 1.02115 0.2967 0.21916 0.0
H54 H 0.31883 0.94296 0.28402 0.0
H55 H 0.20316 0.96554 0.45856 0.0
H56 H 0.2457 0.0463 0.16054 0.0
C57 C 0.29049 0.96046 0.28506 0.0
C58 C 0.2859 0.99438 0.20354 0.0
C59 C 0.26042 0.94986 0.37398 0.0
C60 C 0.22526 0.9734 0.38545 0.0
C61 C 0.21918 1.00818 0.30977 0.0
C62 C 0.24992 1.01927 0.21875 0.0
H63 H 0.57871 0.3057 0.10946 0.0
H64 H 0.46351 0.24705 0.19523 0.0
H65 H 0.57679 0.19781 0.34096 0.0
C66 C 0.56208 0.27952 0.14801 0.0
C67 C 0.58267 0.25137 0.22467 0.0
C68 C 0.51944 0.27887 0.13569 0.0
C69 C 0.49674 0.24717 0.19853 0.0
C70 C 0.51798 0.21606 0.26779 0.0
C71 C 0.56077 0.21897 0.2793 0.0
Pr72 Pr 0.06288 1.01414 0.8541 0.0
Pr73 Pr 0.9944 0.02973 0.73359 0.0
C74 C 0.12958 0.9855 0.97452 0.0
C75 C 0.16001 0.95353 0.94774 0.0
C76 C 0.15957 0.93203 0.83363 0.0
C77 C 0.17835 0.89338 0.82538 0.0
C78 C 0.19517 0.87491 0.93386 0.0
C79 C 0.20336 0.90118 0.03692 0.0
C80 C 0.18518 0.93979 0.04435 0.0
C81 C 0.08418 0.04842 0.61875 0.0
C82 C 0.02795 0.93862 0.668 0.0
C83 C 0.92863 0.06021 0.61279 0.0
C84 C 0.90312 0.09688 0.62823 0.0
C85 C 0.86421 0.09872 0.57396 0.0
C86 C 0.84524 0.13684 0.55699 0.0
C87 C 0.86544 0.17343 0.59208 0.0
C88 C 0.90126 0.17014 0.66526 0.0
C89 C 0.9198 0.13215 0.68313 0.0
C90 C 0.9715 0.99899 0.97148 0.0
C91 C 0.03128 0.10502 0.91606 0.0
O92 O 0.09234 0.97203 0.99675 0.0
O93 O 0.13046 1.01789 0.90214 0.0
O94 O 0.05781 1.02009 0.6359 0.0
O95 O 0.09508 0.0635 0.72606 0.0
O96 O 1.00436 0.96787 0.62333 0.0
O97 O 0.05044 0.94699 0.76799 0.0
O98 O 0.96653 0.06713 0.57765 0.0
O99 O 0.92561 0.03238 0.70041 0.0
O100 O 0.99936 0.0257 0.95136 0.0
O101 O 0.96108 0.98208 0.86608 0.0
O102 O 0.0504 0.07418 0.96962 0.0
O103 O 1.01198 0.09738 0.80944 0.0
H104 H 0.14193 0.94343 0.75481 0.0
H105 H 0.1758 0.87682 0.73792 0.0
H106 H 0.21864 0.89059 0.12073 0.0
H107 H 0.18739 0.95679 0.13089 0.0
H108 H 0.85018 0.07132 0.53551 0.0
H109 H 0.81713 0.13773 0.5048 0.0
H110 H 0.91831 0.197 0.69505 0.0
H111 H 0.94924 0.1311 0.72883 0.0
Pr112 Pr 0.53096 0.05246 0.8576 0.0
Pr113 Pr 0.51329 0.99107 0.69957 0.0
C114 C 0.56107 0.10732 1.02316 0.0
C115 C 0.59537 0.13564 0.04447 0.0
C116 C 0.61398 0.15813 0.94651 0.0
C117 C 0.65017 0.18033 0.96875 0.0
C118 C 0.66809 0.18005 0.0889 0.0
C119 C 0.64707 0.16001 0.18799 0.0
C120 C 0.61135 0.13791 0.16559 0.0
C121 C 0.49708 0.08719 0.63811 0.0
C122 C 0.60667 1.02278 0.66152 0.0
C123 C 0.48177 0.93546 0.53981 0.0
C124 C 0.44947 0.90413 0.54676 0.0
C125 C 0.43793 0.88652 0.66249 0.0
C126 C 0.39994 0.86672 0.67445 0.0
C127 C 0.37316 0.8652 0.57178 0.0
C128 C 0.38806 0.87675 0.45217 0.0
C129 C 0.42554 0.89701 0.44048 0.0
C130 C 0.54495 0.95637 0.9214 0.0
C131 C 0.43827 1.01803 0.90332 0.0
O132 O 0.56938 0.06803 0.02771 0.0
O133 O 0.53476 0.11695 0.93621 0.0
O134 O 0.5244 0.05925 0.63908 0.0
O135 O 0.48396 0.09408 0.75111 0.0
O136 O 0.57624 1.00575 0.59974 0.0
O137 O 0.59833 0.03941 0.77228 0.0
O138 O 0.46913 0.9736 0.54524 0.0
O139 O 0.51471 0.92873 0.60577 0.0
O140 O 0.51827 0.98475 0.91733 0.0
O141 O 0.55889 0.94881 0.80969 0.0
O142 O 0.46751 0.03939 0.95757 0.0
O143 O 0.4468 0.999 0.79636 0.0
H144 H 0.60188 0.15675 0.85195 0.0
H145 H 0.66572 0.19511 0.89044 0.0
H146 H 0.65997 0.15794 0.28135 0.0
H147 H 0.59737 0.12076 0.24225 0.0
H148 H 0.45629 0.89148 0.74578 0.0
H149 H 0.38939 0.85729 0.76646 0.0
H150 H 0.36827 0.876 0.37059 0.0
H151 H 0.43385 0.91046 0.35057 0.0
Pr152 Pr 0.49119 0.53851 0.88236 0.0
Pr153 Pr 0.5439 0.51175 0.70475 0.0
C154 C 0.44743 0.57407 0.06806 0.0
C155 C 0.41881 0.60734 0.0991 0.0
C156 C 0.38736 0.61995 1.01762 0.0
C157 C 0.36273 0.65384 0.04889 0.0
C158 C 0.36947 0.67537 0.1616 0.0
C159 C 0.39905 0.66017 0.24627 0.0
C160 C 0.42351 0.62682 0.21485 0.0
C161 C 0.44609 0.51325 0.66889 0.0
C162 C 0.52403 0.60886 0.67721 0.0
C163 C 0.58788 0.47772 0.51662 0.0
C164 C 0.61539 0.44442 0.47848 0.0
C165 C 0.64278 0.42551 0.5621 0.0
C166 C 0.66478 0.39058 0.52423 0.0
C167 C 0.65947 0.37442 0.40264 0.0
C168 C 0.63462 0.39605 0.31694 0.0
C169 C 0.6126 0.43036 0.35499 0.0
C170 C 0.58908 0.53776 0.91753 0.0
C171 C 0.50858 0.44111 0.90623 0.0
O172 O 0.48532 0.58438 0.04158 0.0
O173 O 0.43366 0.54366 1.0005 0.0
O174 O 0.47813 0.53546 0.66585 0.0
O175 O 0.43844 0.5016 0.78298 0.0
O176 O 0.53289 0.57611 0.61038 0.0
O177 O 0.51167 0.60336 0.79457 0.0
O178 O 0.54964 0.46805 0.54007 0.0
O179 O 0.60241 0.50595 0.59109 0.0
O180 O 0.55729 0.5151 0.92143 0.0
O181 O 0.59598 0.54973 0.80328 0.0
O182 O 0.50068 0.47376 0.9745 0.0
O183 O 0.52164 0.44684 0.78951 0.0
H184 H 0.3829 0.60471 0.92824 0.0
H185 H 0.3402 0.66465 0.98204 0.0
H186 H 0.40582 0.67592 0.33335 0.0
H187 H 0.44717 0.61703 0.27971 0.0
H188 H 0.64549 0.43634 0.65795 0.0
H189 H 0.68332 0.37438 0.59253 0.0
H190 H 0.62873 0.38434 0.22351 0.0
H191 H 0.59172 0.44478 0.28921 0.0
Pr192 Pr 1.01111 0.49115 0.84886 0.0
Pr193 Pr 0.03096 0.55796 0.71717 0.0
C194 C 0.9789 0.42775 0.98155 0.0
C195 C 0.94142 0.40295 0.97031 0.0
C196 C 0.93831 0.36395 0.02605 0.0
C197 C 0.89973 0.34521 0.04059 0.0
C198 C 0.864 0.36578 1.00087 0.0
C199 C 0.86877 0.40196 0.92815 0.0
C200 C 0.90703 0.4201 0.91296 0.0
C201 C 0.04188 0.46477 0.61443 0.0
C202 C 0.93818 0.53008 0.6633 0.0
C203 C 0.06251 0.62263 0.58906 0.0
C204 C 0.0975 0.65079 0.60428 0.0
C205 C 0.09852 0.68862 0.54093 0.0
C206 C 0.13602 0.70896 0.52143 0.0
C207 C 0.17279 0.69126 0.56495 0.0
C208 C 0.16977 0.65747 0.64851 0.0
C209 C 0.13247 0.63747 0.66767 0.0
C210 C 1.00171 0.58327 0.95505 0.0
C211 C 0.10448 0.51906 0.89908 0.0
O212 O 0.97328 0.46643 1.01085 0.0
O213 O 1.0063 0.42287 0.89343 0.0
O214 O 1.01603 0.49365 0.62945 0.0
O215 O 0.05712 0.45436 0.72212 0.0
O216 O 0.96978 0.54736 0.60716 0.0
O217 O 0.94475 0.51131 0.77188 0.0
O218 O 0.07179 0.58426 0.56503 0.0
O219 O 0.03248 0.62622 0.6694 0.0
O220 O 0.02741 0.55469 0.93565 0.0
O221 O 0.98554 0.59427 0.84922 0.0
O222 O 0.07312 0.50132 0.95543 0.0
O223 O 0.09763 0.53838 0.79164 0.0
H224 H 0.9652 0.34932 0.06472 0.0
H225 H 0.89745 0.31659 0.09242 0.0
H226 H 0.84284 0.41958 0.89508 0.0
H227 H 0.90902 0.44954 0.86599 0.0
H228 H 0.07104 0.70033 0.49742 0.0
H229 H 0.13674 0.73592 0.46145 0.0
H230 H 0.19662 0.64271 0.68672 0.0
H231 H 0.13184 0.60928 0.72192 0.0
C232 C 0.14272 1.01156 0.32956 0.0
C233 C 0.181 0.03194 0.34022 0.0
C234 C 0.10974 1.01988 0.41206 0.0
C235 C 0.11346 0.04908 0.50893 0.0
H236 H 0.13971 0.98552 0.26712 0.0
H237 H 0.08257 1.00064 0.4068 0.0
S238 S 0.20358 0.11748 0.55893 0.0
N239 N 0.21793 0.08721 0.44224 0.0
N240 N 0.15601 0.10386 0.59473 0.0
C241 C 0.14954 0.0734 0.50975 0.0
C242 C 0.18317 0.06468 0.42592 0.0
C243 C 0.50802 0.14126 0.31886 0.0
C244 C 0.49821 0.18269 0.34521 0.0
C245 C 0.50583 0.11016 0.41169 0.0
C246 C 0.49298 0.11889 0.53528 0.0
H247 H 0.52048 0.13349 0.22796 0.0
H248 H 0.51604 0.07941 0.3877 0.0
S249 S 0.46006 0.22184 0.65092 0.0
N250 N 0.47284 0.2301 0.50254 0.0
N251 N 0.46681 0.17208 0.67557 0.0
C252 C 0.47991 0.15966 0.56032 0.0
C253 C 0.48287 0.19134 0.46585 0.0
C254 C 0.39255 0.53262 0.35453 0.0
C255 C 0.35085 0.52491 0.38145 0.0
C256 C 0.4235 0.52706 0.44542 0.0
C257 C 0.41409 0.51286 0.56747 0.0
H258 H 0.40084 0.54541 0.26463 0.0
H259 H 0.45477 0.53561 0.42131 0.0
S260 S 0.30997 0.48303 0.68141 0.0
N261 N 0.30227 0.49915 0.53607 0.0
N262 N 0.3599 0.48695 0.7054 0.0
C263 C 0.37281 0.50171 0.59229 0.0
C264 C 0.34139 0.50804 0.49986 0.0
C265 C 0.9997 0.40394 0.33516 0.0
C266 C 1.02012 0.36561 0.34391 0.0
C267 C 1.00903 0.43712 0.41593 0.0
C268 C 0.03926 0.43363 0.50967 0.0
H269 H 0.97414 0.40734 0.27124 0.0
H270 H 0.99047 0.46471 0.41008 0.0
S271 S 0.10581 0.34217 0.56051 0.0
N272 N 0.07491 0.32799 0.44581 0.0
N273 N 0.09311 0.39004 0.5952 0.0
C274 C 0.06238 0.39677 0.51177 0.0
C275 C 0.05273 0.36298 0.4296 0.0
C276 C 0.86927 0.98977 0.153 0.0
C277 C 0.87019 1.02386 0.23465 0.0
C278 C 0.90339 0.97981 0.07534 0.0
C279 C 0.94003 1.00345 0.07566 0.0
H280 H 0.84095 0.97267 0.1415 0.0
H281 H 0.89999 0.95489 1.00869 0.0
S282 S 0.95967 0.09355 0.28112 0.0
N283 N 0.91239 0.07925 0.31731 0.0
N284 N 0.97582 0.06039 0.17461 0.0
C285 C 0.94236 0.03554 0.16418 0.0
C286 C 0.90775 0.04572 0.24248 0.0
C287 C 0.52296 0.90232 0.23334 0.0
C288 C 0.53213 0.86071 0.20888 0.0
C289 C 0.52948 0.93349 0.14311 0.0
C290 C 0.54588 0.92449 1.02377 0.0
H291 H 0.50772 0.91038 0.3197 0.0
H292 H 0.51957 0.9645 0.1648 0.0
S293 S 0.5787 0.82076 0.91525 0.0
N294 N 0.56085 0.81262 0.05882 0.0
N295 N 0.57452 0.87078 0.89002 0.0
C296 C 0.55819 0.88338 1.00122 0.0
C297 C 0.55103 0.85164 0.09331 0.0
C298 C 0.64456 0.52336 0.23297 0.0
C299 C 0.68636 0.52866 0.20146 0.0
C300 C 0.61305 0.52779 0.14276 0.0
C301 C 0.62195 0.53844 1.01692 0.0
H302 H 0.6365 0.5132 0.32647 0.0
H303 H 0.58165 0.52131 0.17084 0.0
S304 S 0.72649 0.55911 0.88803 0.0
N305 N 0.7346 0.54723 0.03682 0.0
N306 N 0.67621 0.55729 0.86894 0.0
C307 C 0.66351 0.54682 0.98666 0.0
C308 C 0.69541 0.54165 0.07827 0.0
C309 C 0.99358 0.68481 0.13635 0.0
C310 C 0.02813 0.6837 0.21538 0.0
C311 C 0.98289 0.65073 0.06027 0.0
C312 C 1.00629 0.61406 0.05985 0.0
H313 H 0.97702 0.71342 0.12416 0.0
H314 H 0.95785 0.65433 0.99457 0.0
S315 S 0.0971 0.59381 0.25997 0.0
N316 N 0.08363 0.64138 0.29511 0.0
N317 N 0.06302 0.57764 0.15689 0.0
C318 C 0.03849 0.6113 0.14725 0.0
C319 C 0.04949 0.64595 0.22359 0.0
C320 C 0.87595 0.2395 0.31348 0.0
C321 C 0.90058 0.27035 0.36779 0.0
C322 C 0.85672 0.20992 0.38924 0.0
C323 C 0.85868 0.21246 0.52122 0.0
H324 H 0.87711 0.23403 0.2131 0.0
H325 H 0.84641 0.18205 0.34369 0.0
S326 S 0.89505 0.30203 0.70383 0.0
N327 N 0.91087 0.31105 0.55862 0.0
N328 N 0.86872 0.25859 0.69754 0.0
C329 C 0.87145 0.25012 0.57266 0.0
C330 C 0.89401 0.27865 0.49681 0.0
C331 C 0.28869 0.93299 0.58088 0.0
C332 C 0.27024 0.91898 0.47018 0.0
C333 C 0.31717 0.90827 0.64316 0.0
C334 C 0.3285 0.86984 0.59261 0.0
H335 H 0.28607 0.96503 0.60799 0.0
H336 H 0.33639 0.92321 0.71197 0.0
S337 S 0.27252 0.81252 0.34881 0.0
N338 N 0.25329 0.85957 0.34237 0.0
N339 N 0.30596 0.81268 0.46481 0.0
C340 C 0.30182 0.85195 0.50548 0.0
C341 C 0.27348 0.87721 0.43967 0.0
C342 C 0.62549 0.26936 0.40739 0.0
C343 C 0.62276 0.2641 0.27628 0.0
C344 C 0.64828 0.30197 0.45704 0.0
C345 C 0.66765 0.33039 0.37599 0.0
H346 H 0.60497 0.25293 0.47047 0.0
H347 H 0.64371 0.3092 0.55549 0.0
S348 S 0.68789 0.31532 0.0367 0.0
N349 N 0.6547 0.27876 0.07422 0.0
N350 N 0.69762 0.3401 0.16869 0.0
C351 C 0.67442 0.3181 0.25105 0.0
C352 C 0.65108 0.28523 0.19993 0.0
C353 C 0.23955 0.67692 0.2911 0.0
C354 C 0.26888 0.65154 0.35002 0.0
C355 C 0.21087 0.6989 0.3629 0.0
C356 C 0.21232 0.69781 0.49529 0.0
H357 H 0.23471 0.67511 0.19063 0.0
H358 H 0.18427 0.71082 0.31451 0.0
S359 S 0.30016 0.6622 0.68532 0.0
N360 N 0.30852 0.64314 0.54385 0.0
N361 N 0.25792 0.68989 0.67328 0.0
C362 C 0.24935 0.68482 0.5493 0.0
C363 C 0.27689 0.65974 0.47838 0.0
C364 C 0.18022 0.79085 0.15376 0.0
C365 C 0.14157 0.77763 0.11285 0.0
C366 C 0.20583 0.81375 0.07319 0.0
C367 C 0.19057 0.82933 0.95854 0.0
H368 H 0.18933 0.78597 0.25034 0.0
H369 H 0.23456 0.82513 0.1095 0.0
S370 S 0.10281 0.78241 0.78703 0.0
N371 N 0.09831 0.76498 0.93197 0.0
N372 N 0.14449 0.81146 0.78571 0.0
C373 C 0.1571 0.80748 0.90657 0.0
C374 C 0.13224 0.78191 0.9851 0.0
C375 C 0.77082 0.14299 0.08191 0.0
C376 C 0.77666 0.14371 0.21272 0.0
C377 C 0.73936 0.1663 0.02789 0.0
C378 C 0.71254 0.18897 0.10538 0.0
H379 H 0.78566 0.11975 0.02471 0.0
H380 H 0.73122 0.15968 0.93155 0.0
S381 S 0.73089 0.21789 0.43665 0.0
N382 N 0.76473 0.18158 0.40609 0.0
N383 N 0.70674 0.22576 0.30299 0.0
C384 C 0.72671 0.19929 0.22582 0.0
C385 C 0.75811 0.17542 0.28162 0.0
C386 C 0.37414 0.76426 0.34889 0.0
C387 C 0.40188 0.78484 0.26845 0.0
C388 C 0.34983 0.73201 0.30328 0.0
C389 C 0.35531 0.71849 0.1787 0.0
H390 H 0.37649 0.76806 0.44979 0.0
H391 H 0.33541 0.71193 0.37164 0.0
S392 S 0.40061 0.78005 0.92004 0.0
N393 N 0.41588 0.80319 0.0497 0.0
N394 N 0.37084 0.74168 0.96647 0.0
C395 C 0.37131 0.74733 0.09295 0.0
C396 C 0.39571 0.78054 0.13816 0.0
C397 C 0.79594 0.37585 0.27053 0.0
C398 C 0.76837 0.40387 0.21506 0.0
C399 C 0.82371 0.35367 0.19604 0.0
C400 C 0.82361 0.35821 0.0642 0.0
H401 H 0.80009 0.3754 0.37148 0.0
H402 H 0.84907 0.33884 0.24332 0.0
S403 S 0.74132 0.40532 0.87476 0.0
N404 N 0.73259 0.42117 1.01972 0.0
N405 N 0.78078 0.37368 0.88445 0.0
C406 C 0.78798 0.37464 1.01025 0.0
C407 C 0.76167 0.39999 0.08418 0.0
C408 C 1.00422 0.21873 0.98258 0.0
C409 C 1.01851 0.22553 0.10596 0.0
C410 C 1.00989 0.18063 0.92025 0.0
C411 C 0.02955 0.14697 0.97881 0.0
H412 H 0.98647 0.24243 0.93612 0.0
H413 H 0.99743 0.17724 0.82677 0.0
S414 S 0.07314 0.14873 0.30182 0.0
N415 N 0.05374 0.19531 0.28349 0.0
N416 N 0.0647 0.12431 0.16839 0.0
C417 C 0.04526 0.15395 0.10094 0.0
C418 C 0.03957 0.19285 0.16384 0.0
C419 C 0.34045 0.04108 0.1005 0.0
C420 C 0.32047 1.00251 0.10935 0.0
C421 C 0.37786 0.04615 0.0321 0.0
C422 C 0.39683 1.0131 0.96755 0.0
H423 H 0.32826 0.06711 0.15191 0.0
H424 H 0.39244 0.07615 0.03159 0.0
S425 S 0.35851 0.90542 0.96624 0.0
N426 N 0.3232 0.93074 0.04591 0.0
N427 N 0.39301 0.94006 0.92266 0.0
C428 C 0.37672 0.97472 0.9737 0.0
C429 C 0.33884 0.96957 0.0427 0.0
C430 C 0.51028 0.32291 0.94325 0.0
C431 C 0.50194 0.31635 0.07232 0.0
C432 C 0.51091 0.36283 0.88945 0.0
C433 C 0.5037 0.39841 0.96228 0.0
H434 H 0.51945 0.29712 0.88517 0.0
H435 H 0.51896 0.36586 0.79095 0.0
S436 S 0.4791 0.39821 0.30464 0.0
N437 N 0.48511 0.34903 0.27022 0.0
N438 N 0.4858 0.4235 0.17121 0.0
C439 C 0.49331 0.39203 0.09037 0.0
C440 C 0.49252 0.35133 0.14456 0.0
C441 C 0.18613 0.51478 0.15912 0.0
C442 C 0.22157 0.53142 0.10183 0.0
C443 C 0.14931 0.50909 0.09126 0.0
C444 C 0.14584 0.5204 0.96317 0.0
H445 H 0.1861 0.5084 0.25908 0.0
H446 H 0.12269 0.4976 0.14198 0.0
S447 S 0.2312 0.56189 0.76663 0.0
N448 N 0.25166 0.55677 0.90755 0.0
N449 N 0.1832 0.54574 0.77995 0.0
C450 C 0.18184 0.53513 0.90343 0.0
C451 C 0.21931 0.54079 0.97269 0.0
C452 C 0.07568 0.83952 0.53459 0.0
C453 C 0.04612 0.82405 0.44988 0.0
C454 C 0.06869 0.87492 0.60872 0.0
C455 C 0.03221 0.89799 0.59911 0.0
H456 H 0.10534 0.82466 0.54091 0.0
H457 H 0.09304 0.88531 0.66998 0.0
S458 S 0.94466 0.87191 0.39017 0.0
N459 N 0.97835 0.835 0.36246 0.0
N460 N 0.96563 0.9021 0.49708 0.0
C461 C 1.00208 0.88281 0.51546 0.0
C462 C 1.00887 0.84592 0.44231 0.0
C463 C 0.69637 1.00913 0.42434 0.0
C464 C 0.72989 0.02944 0.48067 0.0
C465 C 0.6575 1.00604 0.48483 0.0
C466 C 0.64972 1.02357 0.60448 0.0
H467 H 0.69944 0.99775 0.32916 0.0
H468 H 0.63282 0.99103 0.43454 0.0
S469 S 0.72769 0.07892 0.79479 0.0
N470 N 0.75278 0.06636 0.66519 0.0
N471 N 0.68068 0.06051 0.77866 0.0
C472 C 0.68355 0.04262 0.66372 0.0
C473 C 0.72311 0.04559 0.60206 0.0
C474 C 0.53285 0.69348 0.42428 0.0
C475 C 0.52203 0.72987 0.48805 0.0
C476 C 0.53495 0.65513 0.4871 0.0
C477 C 0.52585 0.65106 0.61677 0.0
H478 H 0.53708 0.69418 0.32325 0.0
H479 H 0.54203 0.6281 0.43162 0.0
S480 S 0.49865 0.73768 0.8289 0.0
N481 N 0.50407 0.7597 0.68961 0.0
N482 N 0.50835 0.68827 0.8078 0.0
C483 C 0.5169 0.68767 0.68274 0.0
C484 C 0.51484 0.72671 0.61848 0.0
C485 C 0.82448 0.50508 0.59635 0.0
C486 C 0.81823 0.51977 0.47283 0.0
C487 C 0.8624 0.51011 0.65904 0.0
C488 C 0.89642 0.52946 0.60062 0.0
H489 H 0.80037 0.48762 0.64284 0.0
H490 H 0.86539 0.49728 0.75246 0.0
S491 S 0.89598 0.57427 0.27789 0.0
N492 N 0.84915 0.55541 0.2958 0.0
N493 N 0.92 0.56499 0.41134 0.0
C494 C 0.88998 0.54566 0.47847 0.0
C495 C 0.8512 0.54074 0.41529 0.0
loop_
_geom_bond_atom_site_label_1
_geom_bond_atom_site_label_2
_geom_bond_distance
_geom_bond_site_symmetry_2
_ccdc_geom_bond_type
H0 C3 0.931 . S
H1 C6 0.928 . S
H2 C8 0.930 . S
C3 H0 0.931 . S
C3 C4 1.413 . S
C3 C5 1.360 . S
C4 C3 1.413 . S
C4 C8 1.429 . S
C5 C3 1.360 . S
C5 C6 1.372 . S
C6 H1 0.928 . S
C6 C5 1.372 . S
C6 C7 1.404 . S
C7 C6 1.404 . S
C7 C8 1.391 . S
C8 H2 0.930 . S
C8 C4 1.429 . S
C8 C7 1.391 . S
H9 C12 0.931 . S
H10 C15 0.928 . S
H11 C17 0.930 . S
C12 H9 0.931 . S
C12 C13 1.413 . S
C12 C14 1.360 . S
C13 C12 1.413 . S
C13 C17 1.429 1_655 S
C14 C12 1.360 . S
C14 C15 1.372 . S
C15 H10 0.928 . S
C15 C14 1.372 . S
C15 C16 1.404 . S
C16 C15 1.404 . S
C16 C17 1.390 1_655 S
C17 H11 0.930 . S
C17 C13 1.429 1_455 S
C17 C16 1.390 1_455 S
H18 C21 0.931 . S
H19 C24 0.928 . S
H20 C26 0.930 . S
C21 H18 0.931 . S
C21 C22 1.413 . S
C21 C23 1.360 . S
C22 C21 1.413 . S
C22 C26 1.429 1_565 S
C23 C21 1.360 . S
C23 C24 1.372 . S
C24 H19 0.928 . S
C24 C23 1.372 . S
C24 C25 1.405 . S
C25 C24 1.405 . S
C25 C26 1.390 1_565 S
C26 H20 0.930 . S
C26 C22 1.429 1_545 S
C26 C25 1.390 1_545 S
H27 C30 0.931 . S
H28 C33 0.928 . S
H29 C35 0.930 . S
C30 H27 0.931 . S
C30 C31 1.413 . S
C30 C32 1.360 . S
C31 C30 1.413 . S
C31 C35 1.429 . S
C32 C30 1.360 . S
C32 C33 1.372 . S
C33 H28 0.928 . S
C33 C32 1.372 . S
C33 C34 1.404 . S
C34 C33 1.404 . S
C34 C35 1.391 . S
C35 H29 0.930 . S
C35 C31 1.429 . S
C35 C34 1.391 . S
H36 C39 0.931 1_556 S
H37 C42 0.928 . S
H38 C44 0.930 . S
C39 H36 0.931 1_554 S
C39 C40 1.413 1_554 S
C39 C41 1.360 . S
C40 C39 1.413 1_556 S
C40 C44 1.429 . S
C41 C39 1.360 . S
C41 C42 1.372 . S
C42 H37 0.928 . S
C42 C41 1.372 . S
C42 C43 1.404 . S
C43 C42 1.404 . S
C43 C44 1.391 1_554 S
C44 H38 0.930 . S
C44 C40 1.429 . S
C44 C43 1.391 1_556 S
H45 C48 0.932 . S
H46 C51 0.928 . S
H47 C53 0.930 . S
C48 H45 0.932 . S
C48 C49 1.413 1_554 S
C48 C50 1.360 . S
C49 C48 1.413 1_556 S
C49 C53 1.429 1_655 S
C50 C48 1.360 . S
C50 C51 1.372 . S
C51 H46 0.928 . S
C51 C50 1.372 . S
C51 C52 1.404 . S
C52 C51 1.404 . S
C52 C53 1.391 1_654 S
C53 H47 0.930 . S
C53 C49 1.429 1_455 S
C53 C52 1.391 1_456 S
H54 C57 0.931 1_556 S
H55 C60 0.928 . S
H56 C62 0.930 . S
C57 H54 0.931 1_554 S
C57 C58 1.413 1_554 S
C57 C59 1.360 . S
C58 C57 1.413 1_556 S
C58 C62 1.429 1_565 S
C59 C57 1.360 . S
C59 C60 1.372 . S
C60 H55 0.928 . S
C60 C59 1.372 . S
C60 C61 1.404 . S
C61 C60 1.404 . S
C61 C62 1.391 1_564 S
C62 H56 0.930 . S
C62 C58 1.429 1_545 S
C62 C61 1.391 1_546 S
H63 C66 0.931 1_556 S
H64 C69 0.928 . S
H65 C71 0.930 . S
C66 H63 0.931 1_554 S
C66 C67 1.413 . S
C66 C68 1.360 1_554 S
C67 C66 1.413 . S
C67 C71 1.429 . S
C68 C66 1.360 1_556 S
C68 C69 1.372 . S
C69 H64 0.928 . S
C69 C68 1.372 . S
C69 C70 1.404 1_556 S
C70 C69 1.404 1_554 S
C70 C71 1.391 . S
C71 H65 0.930 . S
C71 C67 1.429 . S
C71 C70 1.391 . S
Pr72 C74 2.880 1_556 S
Pr72 O92 2.562 1_556 S
Pr72 O93 2.490 . S
Pr72 O94 2.695 1_565 S
Pr72 O95 2.512 . S
Pr72 O97 2.437 . S
Pr72 O100 2.436 1_455 S
Pr72 O102 2.438 1_565 S
Pr73 C83 2.880 . S
Pr73 O94 2.436 1_655 S
Pr73 O96 2.438 1_545 S
Pr73 O98 2.562 . S
Pr73 O99 2.490 . S
Pr73 O100 2.695 1_545 S
Pr73 O101 2.512 . S
Pr73 O103 2.437 . S
C74 Pr72 2.880 1_554 S
C74 C75 1.491 . S
C74 O92 1.254 . S
C74 O93 1.225 1_554 S
C75 C74 1.491 . S
C75 C76 1.392 . S
C75 C80 1.356 . S
C76 C75 1.392 . S
C76 C77 1.368 . S
C76 H104 0.929 . S
C77 C76 1.368 . S
C77 C78 1.386 . S
C77 H105 0.929 . S
C78 C77 1.386 . S
C78 C79 1.373 . S
C79 C78 1.373 . S
C79 C80 1.409 . S
C79 H106 0.931 . S
C80 C75 1.356 . S
C80 C79 1.409 . S
C80 H107 0.930 . S
C81 O94 1.270 1_565 S
C81 O95 1.248 . S
C82 O96 1.267 . S
C82 O97 1.278 1_655 S
C83 Pr73 2.880 . S
C83 C84 1.491 . S
C83 O98 1.254 . S
C83 O99 1.225 . S
C84 C83 1.491 . S
C84 C85 1.392 . S
C84 C89 1.356 . S
C85 C84 1.392 . S
C85 C86 1.368 . S
C85 H108 0.929 . S
C86 C85 1.368 . S
C86 C87 1.386 . S
C86 H109 0.929 . S
C87 C86 1.386 . S
C87 C88 1.373 . S
C88 C87 1.373 . S
C88 C89 1.409 . S
C88 H110 0.931 . S
C89 C84 1.356 . S
C89 C88 1.409 . S
C89 H111 0.930 . S
C90 O100 1.270 1_545 S
C90 O101 1.248 . S
C91 O102 1.267 . S
C91 O103 1.278 1_455 S
O92 Pr72 2.562 1_554 S
O92 C74 1.254 . S
O93 Pr72 2.490 . S
O93 C74 1.225 1_556 S
O94 Pr72 2.695 1_545 S
O94 Pr73 2.436 1_455 S
O94 C81 1.270 1_545 S
O95 Pr72 2.512 . S
O95 C81 1.248 . S
O96 Pr73 2.438 1_565 S
O96 C82 1.267 . S
O97 Pr72 2.437 . S
O97 C82 1.278 1_455 S
O98 Pr73 2.562 . S
O98 C83 1.254 . S
O99 Pr73 2.490 . S
O99 C83 1.225 . S
O100 Pr72 2.436 1_655 S
O100 Pr73 2.695 1_565 S
O100 C90 1.270 1_565 S
O101 Pr73 2.512 . S
O101 C90 1.248 . S
O102 Pr72 2.438 1_545 S
O102 C91 1.267 . S
O103 Pr73 2.437 . S
O103 C91 1.278 1_655 S
H104 C76 0.929 . S
H105 C77 0.929 . S
H106 C79 0.931 . S
H107 C80 0.930 . S
H108 C85 0.929 . S
H109 C86 0.929 . S
H110 C88 0.931 . S
H111 C89 0.930 . S
Pr112 C114 2.880 1_556 S
Pr112 O132 2.562 1_556 S
Pr112 O133 2.490 . S
Pr112 O134 2.695 . S
Pr112 O135 2.512 . S
Pr112 O137 2.437 . S
Pr112 O140 2.436 1_545 S
Pr112 O142 2.438 . S
Pr113 C123 2.880 . S
Pr113 O134 2.436 1_565 S
Pr113 O136 2.438 . S
Pr113 O138 2.562 . S
Pr113 O139 2.490 . S
Pr113 O140 2.695 . S
Pr113 O141 2.512 . S
Pr113 O143 2.437 . S
C114 Pr112 2.880 1_554 S
C114 C115 1.491 . S
C114 O132 1.254 . S
C114 O133 1.225 1_554 S
C115 C114 1.491 . S
C115 C116 1.392 . S
C115 C120 1.356 . S
C116 C115 1.392 . S
C116 C117 1.368 . S
C116 H144 0.929 . S
C117 C116 1.368 . S
C117 C118 1.386 . S
C117 H145 0.929 . S
C118 C117 1.386 . S
C118 C119 1.373 . S
C119 C118 1.373 . S
C119 C120 1.409 . S
C119 H146 0.931 . S
C120 C115 1.356 . S
C120 C119 1.409 . S
C120 H147 0.934 . S
C121 O134 1.270 . S
C121 O135 1.248 . S
C122 O136 1.267 . S
C122 O137 1.278 1_565 S
C123 Pr113 2.880 . S
C123 C124 1.491 . S
C123 O138 1.254 . S
C123 O139 1.225 . S
C124 C123 1.491 . S
C124 C125 1.392 . S
C124 C129 1.356 . S
C125 C124 1.392 . S
C125 C126 1.368 . S
C125 H148 0.929 . S
C126 C125 1.368 . S
C126 C127 1.386 . S
C126 H149 0.929 . S
C127 C126 1.386 . S
C127 C128 1.373 . S
C128 C127 1.373 . S
C128 C129 1.409 . S
C128 H150 0.931 . S
C129 C124 1.356 . S
C129 C128 1.409 . S
C129 H151 0.928 . S
C130 O140 1.270 . S
C130 O141 1.248 . S
C131 O142 1.267 . S
C131 O143 1.278 1_545 S
O132 Pr112 2.562 1_554 S
O132 C114 1.254 . S
O133 Pr112 2.490 . S
O133 C114 1.225 1_556 S
O134 Pr112 2.695 . S
O134 Pr113 2.436 1_545 S
O134 C121 1.270 . S
O135 Pr112 2.512 . S
O135 C121 1.248 . S
O136 Pr113 2.438 . S
O136 C122 1.267 . S
O137 Pr112 2.437 . S
O137 C122 1.278 1_545 S
O138 Pr113 2.562 . S
O138 C123 1.254 . S
O139 Pr113 2.490 . S
O139 C123 1.225 . S
O140 Pr112 2.436 1_565 S
O140 Pr113 2.695 . S
O140 C130 1.270 . S
O141 Pr113 2.512 . S
O141 C130 1.248 . S
O142 Pr112 2.438 . S
O142 C131 1.267 . S
O143 Pr113 2.437 . S
O143 C131 1.278 1_565 S
H144 C116 0.929 . S
H145 C117 0.929 . S
H146 C119 0.931 . S
H147 C120 0.934 . S
H148 C125 0.929 . S
H149 C126 0.929 . S
H150 C128 0.931 . S
H151 C129 0.928 . S
Pr152 C154 2.880 1_556 S
Pr152 O172 2.562 1_556 S
Pr152 O173 2.490 . S
Pr152 O174 2.695 . S
Pr152 O175 2.512 . S
Pr152 O177 2.437 . S
Pr152 O180 2.436 . S
Pr152 O182 2.438 . S
Pr153 C163 2.880 . S
Pr153 O174 2.436 . S
Pr153 O176 2.438 . S
Pr153 O178 2.562 . S
Pr153 O179 2.490 . S
Pr153 O180 2.695 . S
Pr153 O181 2.512 . S
Pr153 O183 2.437 . S
C154 Pr152 2.880 1_554 S
C154 C155 1.491 . S
C154 O172 1.254 . S
C154 O173 1.225 1_554 S
C155 C154 1.491 . S
C155 C156 1.392 . S
C155 C160 1.356 . S
C156 C155 1.392 . S
C156 C157 1.368 . S
C156 H184 0.929 . S
C157 C156 1.368 . S
C157 C158 1.386 . S
C157 H185 0.929 . S
C158 C157 1.386 . S
C158 C159 1.373 . S
C159 C158 1.373 . S
C159 C160 1.409 . S
C159 H186 0.931 . S
C160 C155 1.356 . S
C160 C159 1.409 . S
C160 H187 0.930 . S
C161 O174 1.270 . S
C161 O175 1.248 . S
C162 O176 1.267 . S
C162 O177 1.278 . S
C163 Pr153 2.880 . S
C163 C164 1.491 . S
C163 O178 1.254 . S
C163 O179 1.225 . S
C164 C163 1.491 . S
C164 C165 1.392 . S
C164 C169 1.356 . S
C165 C164 1.392 . S
C165 C166 1.368 . S
C165 H188 0.929 . S
C166 C165 1.368 . S
C166 C167 1.386 . S
C166 H189 0.929 . S
C167 C166 1.386 . S
C167 C168 1.373 . S
C168 C167 1.373 . S
C168 C169 1.409 . S
C168 H190 0.931 . S
C169 C164 1.356 . S
C169 C168 1.409 . S
C169 H191 0.930 . S
C170 O180 1.270 . S
C170 O181 1.248 . S
C171 O182 1.267 . S
C171 O183 1.278 . S
O172 Pr152 2.562 1_554 S
O172 C154 1.254 . S
O173 Pr152 2.490 . S
O173 C154 1.225 1_556 S
O174 Pr152 2.695 . S
O174 Pr153 2.436 . S
O174 C161 1.270 . S
O175 Pr152 2.512 . S
O175 C161 1.248 . S
O176 Pr153 2.438 . S
O176 C162 1.267 . S
O177 Pr152 2.437 . S
O177 C162 1.278 . S
O178 Pr153 2.562 . S
O178 C163 1.254 . S
O179 Pr153 2.490 . S
O179 C163 1.225 . S
O180 Pr152 2.436 . S
O180 Pr153 2.695 . S
O180 C170 1.270 . S
O181 Pr153 2.512 . S
O181 C170 1.248 . S
O182 Pr152 2.438 . S
O182 C171 1.267 . S
O183 Pr153 2.437 . S
O183 C171 1.278 . S
H184 C156 0.929 . S
H185 C157 0.929 . S
H186 C159 0.931 . S
H187 C160 0.930 . S
H188 C165 0.929 . S
H189 C166 0.929 . S
H190 C168 0.931 . S
H191 C169 0.930 . S
Pr192 C194 2.880 1_556 S
Pr192 O212 2.562 1_556 S
Pr192 O213 2.490 . S
Pr192 O214 2.695 1_655 S
Pr192 O215 2.512 . S
Pr192 O217 2.437 . S
Pr192 O220 2.436 . S
Pr192 O222 2.438 1_655 S
Pr193 C203 2.880 . S
Pr193 O214 2.436 . S
Pr193 O216 2.438 1_455 S
Pr193 O218 2.562 . S
Pr193 O219 2.490 . S
Pr193 O220 2.695 1_455 S
Pr193 O221 2.512 . S
Pr193 O223 2.437 . S
C194 Pr192 2.880 1_554 S
C194 C195 1.491 . S
C194 O212 1.254 . S
C194 O213 1.225 1_554 S
C195 C194 1.491 . S
C195 C196 1.392 . S
C195 C200 1.356 . S
C196 C195 1.392 . S
C196 C197 1.368 . S
C196 H224 0.929 . S
C197 C196 1.368 . S
C197 C198 1.386 . S
C197 H225 0.929 . S
C198 C197 1.386 . S
C198 C199 1.373 . S
C199 C198 1.373 . S
C199 C200 1.409 . S
C199 H226 0.931 . S
C200 C195 1.356 . S
C200 C199 1.409 . S
C200 H227 0.930 . S
C201 O214 1.270 1_655 S
C201 O215 1.249 . S
C202 O216 1.267 . S
C202 O217 1.278 . S
C203 Pr193 2.880 . S
C203 C204 1.491 . S
C203 O218 1.254 . S
C203 O219 1.225 . S
C204 C203 1.491 . S
C204 C205 1.392 . S
C204 C209 1.356 . S
C205 C204 1.392 . S
C205 C206 1.368 . S
C205 H228 0.929 . S
C206 C205 1.368 . S
C206 C207 1.386 . S
C206 H229 0.929 . S
C207 C206 1.386 . S
C207 C208 1.373 . S
C208 C207 1.373 . S
C208 C209 1.409 . S
C208 H230 0.931 . S
C209 C204 1.356 . S
C209 C208 1.409 . S
C209 H231 0.930 . S
C210 O220 1.268 1_455 S
C210 O221 1.252 . S
C211 O222 1.267 . S
C211 O223 1.278 . S
O212 Pr192 2.562 1_554 S
O212 C194 1.254 . S
O213 Pr192 2.490 . S
O213 C194 1.225 1_556 S
O214 Pr192 2.695 1_455 S
O214 Pr193 2.436 . S
O214 C201 1.270 1_455 S
O215 Pr192 2.512 . S
O215 C201 1.249 . S
O216 Pr193 2.438 1_655 S
O216 C202 1.267 . S
O217 Pr192 2.437 . S
O217 C202 1.278 . S
O218 Pr193 2.562 . S
O218 C203 1.254 . S
O219 Pr193 2.490 . S
O219 C203 1.225 . S
O220 Pr192 2.436 . S
O220 Pr193 2.695 1_655 S
O220 C210 1.268 1_655 S
O221 Pr193 2.512 . S
O221 C210 1.252 . S
O222 Pr192 2.438 1_455 S
O222 C211 1.267 . S
O223 Pr193 2.437 . S
O223 C211 1.278 . S
H224 C196 0.929 . S
H225 C197 0.929 . S
H226 C199 0.931 . S
H227 C200 0.930 . S
H228 C205 0.929 . S
H229 C206 0.929 . S
H230 C208 0.931 . S
H231 C209 0.930 . S
C232 C233 1.364 1_565 S
C232 C234 1.419 . S
C232 H236 0.930 . S
C233 C232 1.364 1_545 S
C233 C242 1.434 . S
C234 C232 1.419 . S
C234 C235 1.359 1_565 S
C234 H237 0.929 . S
C235 C234 1.359 1_545 S
C235 C241 1.432 . S
H236 C232 0.930 . S
H237 C234 0.929 . S
S238 N239 1.613 . S
S238 N240 1.610 . S
N239 S238 1.613 . S
N239 C242 1.350 . S
N240 S238 1.610 . S
N240 C241 1.351 . S
C241 C235 1.432 . S
C241 N240 1.351 . S
C241 C242 1.434 . S
C242 C233 1.434 . S
C242 N239 1.350 . S
C242 C241 1.434 . S
C243 C244 1.369 . S
C243 C245 1.419 . S
C243 H247 0.930 . S
C244 C243 1.369 . S
C244 C253 1.429 . S
C245 C243 1.419 . S
C245 C246 1.363 . S
C245 H248 0.929 . S
C246 C245 1.363 . S
C246 C252 1.428 . S
H247 C243 0.930 . S
H248 C245 0.929 . S
S249 N250 1.613 . S
S249 N251 1.610 . S
N250 S249 1.613 . S
N250 C253 1.350 . S
N251 S249 1.610 . S
N251 C252 1.351 . S
C252 C246 1.428 . S
C252 N251 1.351 . S
C252 C253 1.434 . S
C253 C244 1.429 . S
C253 N250 1.350 . S
C253 C252 1.434 . S
C254 C255 1.369 . S
C254 C256 1.419 . S
C254 H258 0.930 . S
C255 C254 1.369 . S
C255 C264 1.429 . S
C256 C254 1.419 . S
C256 C257 1.363 . S
C256 H259 0.929 . S
C257 C256 1.363 . S
C257 C263 1.428 . S
H258 C254 0.930 . S
H259 C256 0.929 . S
S260 N261 1.613 . S
S260 N262 1.610 . S
N261 S260 1.613 . S
N261 C264 1.350 . S
N262 S260 1.610 . S
N262 C263 1.351 . S
C263 C257 1.428 . S
C263 N262 1.351 . S
C263 C264 1.434 . S
C264 C255 1.429 . S
C264 N261 1.350 . S
C264 C263 1.434 . S
C265 C266 1.369 1_655 S
C265 C267 1.419 . S
C265 H269 0.930 . S
C266 C265 1.369 1_455 S
C266 C275 1.429 . S
C267 C265 1.419 . S
C267 C268 1.363 1_655 S
C267 H270 0.929 . S
C268 C267 1.363 1_455 S
C268 C274 1.428 . S
H269 C265 0.930 . S
H270 C267 0.929 . S
S271 N272 1.613 . S
S271 N273 1.610 . S
N272 S271 1.613 . S
N272 C275 1.350 . S
N273 S271 1.610 . S
N273 C274 1.351 . S
C274 C268 1.428 . S
C274 N273 1.351 . S
C274 C275 1.434 . S
C275 C266 1.429 . S
C275 N272 1.350 . S
C275 C274 1.434 . S
C276 C277 1.356 1_565 S
C276 C278 1.419 . S
C276 H280 0.930 . S
C277 C276 1.356 1_545 S
C277 C286 1.441 . S
C278 C276 1.419 . S
C278 C279 1.355 1_565 S
C278 H281 0.929 . S
C279 C278 1.355 1_545 S
C279 C285 1.437 . S
H280 C276 0.930 . S
H281 C278 0.929 . S
S282 N283 1.613 . S
S282 N284 1.610 . S
N283 S282 1.613 . S
N283 C286 1.350 . S
N284 S282 1.610 . S
N284 C285 1.351 . S
C285 C279 1.437 . S
C285 N284 1.351 . S
C285 C286 1.434 . S
C286 C277 1.441 . S
C286 N283 1.350 . S
C286 C285 1.434 . S
C287 C288 1.369 . S
C287 C289 1.419 . S
C287 H291 0.930 . S
C288 C287 1.369 . S
C288 C297 1.429 . S
C289 C287 1.419 . S
C289 C290 1.363 . S
C289 H292 0.929 . S
C290 C289 1.363 . S
C290 C296 1.428 . S
H291 C287 0.930 . S
H292 C289 0.929 . S
S293 N294 1.613 . S
S293 N295 1.610 . S
N294 S293 1.613 . S
N294 C297 1.350 . S
N295 S293 1.610 . S
N295 C296 1.351 . S
C296 C290 1.428 . S
C296 N295 1.351 . S
C296 C297 1.434 . S
C297 C288 1.429 . S
C297 N294 1.350 . S
C297 C296 1.434 . S
C298 C299 1.369 . S
C298 C300 1.419 . S
C298 H302 0.930 . S
C299 C298 1.369 . S
C299 C308 1.429 . S
C300 C298 1.419 . S
C300 C301 1.363 . S
C300 H303 0.929 . S
C301 C300 1.363 . S
C301 C307 1.428 . S
H302 C298 0.930 . S
H303 C300 0.929 . S
S304 N305 1.613 . S
S304 N306 1.610 . S
N305 S304 1.613 . S
N305 C308 1.350 . S
N306 S304 1.610 . S
N306 C307 1.351 . S
C307 C301 1.428 . S
C307 N306 1.351 . S
C307 C308 1.434 . S
C308 C299 1.429 . S
C308 N305 1.350 . S
C308 C307 1.434 . S
C309 C310 1.380 . S
C309 C311 1.419 . S
C309 H313 0.930 . S
C310 C309 1.380 . S
C310 C319 1.418 1_655 S
C311 C309 1.419 . S
C311 C312 1.363 . S
C311 H314 0.929 . S
C312 C311 1.363 . S
C312 C318 1.428 1_655 S
H313 C309 0.930 . S
H314 C311 0.929 . S
S315 N316 1.613 . S
S315 N317 1.610 . S
N316 S315 1.613 . S
N316 C319 1.350 . S
N317 S315 1.610 . S
N317 C318 1.351 . S
C318 C312 1.428 1_455 S
C318 N317 1.351 . S
C318 C319 1.434 . S
C319 C310 1.418 1_455 S
C319 N316 1.350 . S
C319 C318 1.434 . S
C320 C321 1.369 . S
C320 C322 1.419 . S
C320 H324 0.930 . S
C321 C320 1.369 . S
C321 C330 1.429 . S
C322 C320 1.419 . S
C322 C323 1.363 . S
C322 H325 0.929 . S
C323 C322 1.363 . S
C323 C329 1.428 . S
H324 C320 0.930 . S
H325 C322 0.929 . S
S326 N327 1.613 . S
S326 N328 1.610 . S
N327 S326 1.613 . S
N327 C330 1.350 . S
N328 S326 1.610 . S
N328 C329 1.351 . S
C329 C323 1.428 . S
C329 N328 1.351 . S
C329 C330 1.434 . S
C330 C321 1.429 . S
C330 N327 1.350 . S
C330 C329 1.434 . S
C331 C332 1.369 . S
C331 C333 1.419 . S
C331 H335 0.930 1_565 S
C332 C331 1.369 . S
C332 C341 1.429 . S
C333 C331 1.419 . S
C333 C334 1.363 . S
C333 H336 0.929 . S
C334 C333 1.363 . S
C334 C340 1.428 . S
H335 C331 0.930 1_545 S
H336 C333 0.929 . S
S337 N338 1.613 . S
S337 N339 1.610 1_556 S
N338 S337 1.613 . S
N338 C341 1.350 1_556 S
N339 S337 1.610 1_554 S
N339 C340 1.351 . S
C340 C334 1.428 . S
C340 N339 1.351 . S
C340 C341 1.434 . S
C341 C332 1.429 . S
C341 N338 1.350 1_554 S
C341 C340 1.434 . S
C342 C343 1.369 . S
C342 C344 1.419 . S
C342 H346 0.930 . S
C343 C342 1.369 . S
C343 C352 1.429 . S
C344 C342 1.419 . S
C344 C345 1.363 . S
C344 H347 0.929 . S
C345 C344 1.363 . S
C345 C351 1.428 . S
H346 C342 0.930 . S
H347 C344 0.929 . S
S348 N349 1.613 . S
S348 N350 1.610 . S
N349 S348 1.613 . S
N349 C352 1.350 . S
N350 S348 1.610 . S
N350 C351 1.351 . S
C351 C345 1.428 . S
C351 N350 1.351 . S
C351 C352 1.434 . S
C352 C343 1.429 . S
C352 N349 1.350 . S
C352 C351 1.434 . S
C353 C354 1.369 . S
C353 C355 1.419 . S
C353 H357 0.930 . S
C354 C353 1.369 . S
C354 C363 1.429 . S
C355 C353 1.419 . S
C355 C356 1.363 . S
C355 H358 0.929 . S
C356 C355 1.363 . S
C356 C362 1.428 . S
H357 C353 0.930 . S
H358 C355 0.929 . S
S359 N360 1.613 . S
S359 N361 1.610 . S
N360 S359 1.613 . S
N360 C363 1.350 . S
N361 S359 1.610 . S
N361 C362 1.351 . S
C362 C356 1.428 . S
C362 N361 1.351 . S
C362 C363 1.434 . S
C363 C354 1.429 . S
C363 N360 1.350 . S
C363 C362 1.434 . S
C364 C365 1.369 . S
C364 C366 1.419 . S
C364 H368 0.930 . S
C365 C364 1.369 . S
C365 C374 1.430 . S
C366 C364 1.419 . S
C366 C367 1.363 . S
C366 H369 0.929 . S
C367 C366 1.363 . S
C367 C373 1.428 . S
H368 C364 0.930 . S
H369 C366 0.929 . S
S370 N371 1.613 . S
S370 N372 1.610 1_655 S
N371 S370 1.613 . S
N371 C374 1.340 1_655 S
N372 S370 1.610 1_455 S
N372 C373 1.351 . S
C373 C367 1.428 . S
C373 N372 1.351 . S
C373 C374 1.442 . S
C374 C365 1.430 . S
C374 N371 1.340 1_455 S
C374 C373 1.442 . S
C375 C376 1.369 . S
C375 C377 1.419 . S
C375 H379 0.930 . S
C376 C375 1.369 . S
C376 C385 1.429 . S
C377 C375 1.419 . S
C377 C378 1.363 . S
C377 H380 0.929 . S
C378 C377 1.363 . S
C378 C384 1.428 . S
H379 C375 0.930 . S
H380 C377 0.929 . S
S381 N382 1.613 . S
S381 N383 1.610 . S
N382 S381 1.613 . S
N382 C385 1.350 . S
N383 S381 1.610 . S
N383 C384 1.351 . S
C384 C378 1.428 . S
C384 N383 1.351 . S
C384 C385 1.434 . S
C385 C376 1.429 . S
C385 N382 1.350 . S
C385 C384 1.434 . S
C386 C387 1.369 . S
C386 C388 1.419 . S
C386 H390 0.930 . S
C387 C386 1.369 . S
C387 C396 1.429 . S
C388 C386 1.419 . S
C388 C389 1.363 . S
C388 H391 0.929 . S
C389 C388 1.363 . S
C389 C395 1.428 . S
H390 C386 0.930 . S
H391 C388 0.929 . S
S392 N393 1.613 . S
S392 N394 1.610 . S
N393 S392 1.613 . S
N393 C396 1.350 . S
N394 S392 1.610 . S
N394 C395 1.351 . S
C395 C389 1.428 . S
C395 N394 1.351 . S
C395 C396 1.434 . S
C396 C387 1.429 . S
C396 N393 1.350 . S
C396 C395 1.434 . S
C397 C398 1.369 . S
C397 C399 1.419 . S
C397 H401 0.930 . S
C398 C397 1.369 . S
C398 C407 1.429 . S
C399 C397 1.419 . S
C399 C400 1.363 . S
C399 H402 0.929 . S
C400 C399 1.363 . S
C400 C406 1.428 . S
H401 C397 0.930 . S
H402 C399 0.929 . S
S403 N404 1.613 . S
S403 N405 1.610 . S
N404 S403 1.613 . S
N404 C407 1.350 . S
N405 S403 1.610 . S
N405 C406 1.351 . S
C406 C400 1.428 . S
C406 N405 1.351 . S
C406 C407 1.434 . S
C407 C398 1.429 . S
C407 N404 1.350 . S
C407 C406 1.434 . S
C408 C409 1.369 1_655 S
C408 C410 1.419 . S
C408 H412 0.930 . S
C409 C408 1.369 1_455 S
C409 C418 1.429 . S
C410 C408 1.419 . S
C410 C411 1.363 1_655 S
C410 H413 0.929 . S
C411 C410 1.363 1_455 S
C411 C417 1.428 . S
H412 C408 0.930 . S
H413 C410 0.929 . S
S414 N415 1.613 . S
S414 N416 1.610 . S
N415 S414 1.613 . S
N415 C418 1.350 . S
N416 S414 1.610 . S
N416 C417 1.351 . S
C417 C411 1.428 . S
C417 N416 1.351 . S
C417 C418 1.434 . S
C418 C409 1.429 . S
C418 N415 1.350 . S
C418 C417 1.434 . S
C419 C420 1.369 . S
C419 C421 1.419 . S
C419 H423 0.930 . S
C420 C419 1.369 . S
C420 C429 1.429 1_545 S
C421 C419 1.419 . S
C421 C422 1.363 . S
C421 H424 0.929 . S
C422 C421 1.363 . S
C422 C428 1.428 1_545 S
H423 C419 0.930 . S
H424 C421 0.929 . S
S425 N426 1.613 . S
S425 N427 1.610 . S
N426 S425 1.613 . S
N426 C429 1.350 . S
N427 S425 1.610 . S
N427 C428 1.351 . S
C428 C422 1.428 1_565 S
C428 N427 1.351 . S
C428 C429 1.434 . S
C429 C420 1.429 1_565 S
C429 N426 1.350 . S
C429 C428 1.434 . S
C430 C431 1.369 . S
C430 C432 1.419 . S
C430 H434 0.930 . S
C431 C430 1.369 . S
C431 C440 1.429 . S
C432 C430 1.419 . S
C432 C433 1.363 . S
C432 H435 0.929 . S
C433 C432 1.363 . S
C433 C439 1.428 . S
H434 C430 0.930 . S
H435 C432 0.929 . S
S436 N437 1.613 . S
S436 N438 1.610 . S
N437 S436 1.613 . S
N437 C440 1.350 . S
N438 S436 1.610 . S
N438 C439 1.351 . S
C439 C433 1.428 . S
C439 N438 1.351 . S
C439 C440 1.434 . S
C440 C431 1.429 . S
C440 N437 1.350 . S
C440 C439 1.434 . S
C441 C442 1.369 . S
C441 C443 1.419 . S
C441 H445 0.930 1_556 S
C442 C441 1.369 . S
C442 C451 1.429 . S
C443 C441 1.419 . S
C443 C444 1.363 . S
C443 H446 0.929 1_556 S
C444 C443 1.363 . S
C444 C450 1.428 . S
H445 C441 0.930 1_554 S
H446 C443 0.929 1_554 S
S447 N448 1.613 . S
S447 N449 1.610 . S
N448 S447 1.613 . S
N448 C451 1.350 . S
N449 S447 1.610 . S
N449 C450 1.351 . S
C450 C444 1.428 . S
C450 N449 1.351 . S
C450 C451 1.434 . S
C451 C442 1.429 . S
C451 N448 1.350 . S
C451 C450 1.434 . S
C452 C453 1.369 1_455 S
C452 C454 1.419 1_455 S
C452 H456 0.930 . S
C453 C452 1.369 1_655 S
C453 C462 1.429 . S
C454 C452 1.419 1_655 S
C454 C455 1.363 . S
C454 H457 0.929 1_655 S
C455 C454 1.363 . S
C455 C461 1.428 . S
H456 C452 0.930 . S
H457 C454 0.929 1_455 S
S458 N459 1.613 . S
S458 N460 1.610 . S
N459 S458 1.613 . S
N459 C462 1.350 . S
N460 S458 1.610 . S
N460 C461 1.351 . S
C461 C455 1.428 . S
C461 N460 1.351 . S
C461 C462 1.434 . S
C462 C453 1.429 . S
C462 N459 1.350 . S
C462 C461 1.434 . S
C463 C464 1.369 . S
C463 C465 1.419 . S
C463 H467 0.930 . S
C464 C463 1.369 . S
C464 C473 1.429 1_565 S
C465 C463 1.419 . S
C465 C466 1.363 . S
C465 H468 0.929 . S
C466 C465 1.363 . S
C466 C472 1.428 . S
H467 C463 0.930 . S
H468 C465 0.929 . S
S469 N470 1.613 . S
S469 N471 1.610 . S
N470 S469 1.613 . S
N470 C473 1.350 . S
N471 S469 1.610 . S
N471 C472 1.351 1_545 S
C472 C466 1.428 . S
C472 N471 1.351 1_565 S
C472 C473 1.434 1_565 S
C473 C464 1.429 1_545 S
C473 N470 1.350 . S
C473 C472 1.434 1_545 S
C474 C475 1.369 . S
C474 C476 1.419 . S
C474 H478 0.930 . S
C475 C474 1.369 . S
C475 C484 1.429 . S
C476 C474 1.419 . S
C476 C477 1.363 . S
C476 H479 0.929 . S
C477 C476 1.363 . S
C477 C483 1.428 . S
H478 C474 0.930 . S
H479 C476 0.929 . S
S480 N481 1.613 . S
S480 N482 1.610 . S
N481 S480 1.613 . S
N481 C484 1.350 . S
N482 S480 1.610 . S
N482 C483 1.351 . S
C483 C477 1.428 . S
C483 N482 1.351 . S
C483 C484 1.434 . S
C484 C475 1.429 . S
C484 N481 1.350 . S
C484 C483 1.434 . S
C485 C486 1.369 . S
C485 C487 1.419 . S
C485 H489 0.930 . S
C486 C485 1.369 . S
C486 C495 1.429 . S
C487 C485 1.419 . S
C487 C488 1.363 . S
C487 H490 0.929 . S
C488 C487 1.363 . S
C488 C494 1.428 . S
H489 C485 0.930 . S
H490 C487 0.929 . S
S491 N492 1.613 . S
S491 N493 1.610 . S
N492 S491 1.613 . S
N492 C495 1.350 . S
N493 S491 1.610 . S
N493 C494 1.351 . S
C494 C488 1.428 . S
C494 N493 1.351 . S
C494 C495 1.434 . S
C495 C486 1.429 . S
C495 N492 1.350 . S
C495 C494 1.434 . S
C233 C61 1.984 1_545 S
C235 C81 2.247 1_545 S
C246 C121 2.274 . S
C244 C70 2.020 . S
C257 C161 2.284 . S
C255 C43 2.022 . S
C268 C201 2.265 1_455 S
C266 C52 1.996 1_455 S
C279 C90 2.248 1_554 S
C277 C25 1.980 1_545 S
C288 C34 2.025 . S
C290 C130 2.276 1_554 S
C299 C7 2.023 . S
C301 C170 2.285 1_554 S
C310 C16 2.000 . S
C312 C210 2.263 1_654 S
C323 C87 0.898 . S
C321 C50 0.946 . S
C334 C127 0.889 . S
C332 C59 0.908 . S
C345 C167 0.875 . S
C343 C67 0.897 . S
C354 C41 0.931 . S
C356 C207 0.865 . S
C365 C14 0.956 1_455 S
C367 C78 0.893 . S
C378 C118 0.879 . S
C376 C23 0.922 1_545 S
C389 C158 0.856 . S
C387 C31 0.911 . S
C398 C5 0.931 . S
C400 C198 0.879 . S
C409 C49 2.300 1_455 S
C411 C91 2.603 . S
C420 C58 2.239 1_545 S
C422 C131 2.544 . S
C433 C171 2.532 . S
C431 C68 2.228 . S
C444 C211 2.586 . S
C442 C40 2.285 . S
C453 C13 2.291 . S
C455 C82 2.608 . S
C466 C122 2.544 . S
C464 C22 2.238 . S
C477 C162 2.532 . S
C475 C32 2.238 . S
C486 C4 2.274 . S
C488 C202 2.590 . S
