# Generated by pormake.
# Topology anh, (6,3)-cn, num edge types: 1
# Building blocks:
#     Node 0, Type 0, BuildingBlock: PAMTOO_clean_sbu_0, # of connection points: 6
#     Node 1, Type 0, BuildingBlock: PAMTOO_clean_sbu_0, # of connection points: 6
#     Node 2, Type 0, BuildingBlock: PAMTOO_clean_sbu_0, # of connection points: 6
#     Node 3, Type 1, BuildingBlock: CUQRIR_clean_linker_1, # of connection points: 3
#     Node 4, Type 1, BuildingBlock: CUQRIR_clean_linker_1, # of connection points: 3
#     Node 5, Type 1, BuildingBlock: CUQRIR_clean_linker_1, # of connection points: 3
#     Node 6, Type 1, BuildingBlock: CUQRIR_clean_linker_1, # of connection points: 3
#     Node 7, Type 1, BuildingBlock: CUQRIR_clean_linker_1, # of connection points: 3
#     Node 8, Type 1, BuildingBlock: CUQRIR_clean_linker_1, # of connection points: 3
#     Edge 9, Type (0, 1), BuildingBlock: EZIPEK_clean_linker_0, # of connection points: 2
#     Edge 10, Type (0, 1), BuildingBlock: EZIPEK_clean_linker_0, # of connection points: 2
#     Edge 11, Type (0, 1), BuildingBlock: EZIPEK_clean_linker_0, # of connection points: 2
#     Edge 12, Type (0, 1), BuildingBlock: EZIPEK_clean_linker_0, # of connection points: 2
#     Edge 13, Type (0, 1), BuildingBlock: EZIPEK_clean_linker_0, # of connection points: 2
#     Edge 14, Type (0, 1), BuildingBlock: EZIPEK_clean_linker_0, # of connection points: 2
#     Edge 15, Type (0, 1), BuildingBlock: EZIPEK_clean_linker_0, # of connection points: 2
#     Edge 16, Type (0, 1), BuildingBlock: EZIPEK_clean_linker_0, # of connection points: 2
#     Edge 17, Type (0, 1), BuildingBlock: EZIPEK_clean_linker_0, # of connection points: 2
#     Edge 18, Type (0, 1), BuildingBlock: EZIPEK_clean_linker_0, # of connection points: 2
#     Edge 19, Type (0, 1), BuildingBlock: EZIPEK_clean_linker_0, # of connection points: 2
#     Edge 20, Type (0, 1), BuildingBlock: EZIPEK_clean_linker_0, # of connection points: 2
#     Edge 21, Type (0, 1), BuildingBlock: EZIPEK_clean_linker_0, # of connection points: 2
#     Edge 22, Type (0, 1), BuildingBlock: EZIPEK_clean_linker_0, # of connection points: 2
#     Edge 23, Type (0, 1), BuildingBlock: EZIPEK_clean_linker_0, # of connection points: 2
#     Edge 24, Type (0, 1), BuildingBlock: EZIPEK_clean_linker_0, # of connection points: 2
#     Edge 25, Type (0, 1), BuildingBlock: EZIPEK_clean_linker_0, # of connection points: 2
#     Edge 26, Type (0, 1), BuildingBlock: EZIPEK_clean_linker_0, # of connection points: 2
# Relax obj value: 0.290
# Max RMSD: 0.217
# Mean RMSD: 0.175
data_MOF--net-anh--node1-PAMTOO_clean_sbu_0--node2-CUQRIR_clean_linker_1--edge1-EZIPEK_clean_linker_0
_symmetry_space_group_name_H-M    P1
_symmetry_Int_Tables_number       1
_symmetry_cell_setting            triclinic
loop_
_symmetry_equiv_pos_as_xyz
'x, y, z'
_cell_length_a     20.957829
_cell_length_b     19.41729
_cell_length_c     33.451974
_cell_angle_alpha  86.459575
_cell_angle_beta   92.016969
_cell_angle_gamma 98.284018
loop_
_atom_site_label
_atom_site_type_symbol
_atom_site_fract_x
_atom_site_fract_y
_atom_site_fract_z
_atom_type_partial_charge
Dy0 Dy 1.09101 0.56408 0.11154 0.0
Dy1 Dy 1.06271 0.40583 0.13983 0.0
C2 C 1.06889 0.44606 0.04745 0.0
O3 O 0.97717 0.5489 0.11861 0.0
O4 O 0.95722 0.43084 0.12281 0.0
O5 O 0.13249 0.65243 0.07364 0.0
O6 O 1.0823 0.66879 0.12703 0.0
O7 O 1.04195 0.46643 0.19069 0.0
O8 O 0.12448 0.54916 0.17528 0.0
O9 O 0.17912 0.42711 0.13945 0.0
O10 O 0.19558 0.53595 0.1083 0.0
O11 O 1.0662 0.32638 0.18814 0.0
O12 O 1.02438 0.29888 0.13021 0.0
C13 C 0.93281 0.49132 0.11945 0.0
O14 O 1.06158 0.51035 0.05466 0.0
O15 O 1.08197 0.40124 0.07607 0.0
C16 C 0.17943 0.74423 0.11444 0.0
C17 C 0.28753 0.82343 0.15095 0.0
C18 C 0.29606 0.77415 0.1233 0.0
C19 C 0.24263 0.73473 0.10535 0.0
C20 C 0.17116 0.79532 0.14109 0.0
C21 C 0.22465 0.83431 0.1593 0.0
C22 C 0.12237 0.69704 0.09963 0.0
C23 C 1.0858 0.51605 0.2019 0.0
C24 C 0.22132 0.48063 0.12358 0.0
C25 C 0.97221 0.2398 0.18666 0.0
C26 C 0.85546 0.17111 0.21908 0.0
C27 C 0.89928 0.214 0.24276 0.0
C28 C 0.95708 0.24839 0.22663 0.0
C29 C 0.92898 0.19486 0.16369 0.0
C30 C 0.8712 0.16124 0.17965 0.0
C31 C 1.03107 0.27864 0.16783 0.0
H32 H 0.34414 0.76481 0.11652 0.0
H33 H 0.251 0.69548 0.08528 0.0
H34 H 0.12317 0.80356 0.14882 0.0
H35 H 0.21699 0.87195 0.1806 0.0
H36 H 0.88814 0.22177 0.27339 0.0
H37 H 0.98936 0.28229 0.24528 0.0
H38 H 0.93936 0.18654 0.133 0.0
H39 H 0.83829 0.12788 0.16103 0.0
Dy40 Dy 0.59011 0.04527 0.53663 0.0
Dy41 Dy 0.74428 0.07137 0.52381 0.0
C42 C 0.68865 0.06662 0.6103 0.0
O43 O 0.61248 0.15897 0.51656 0.0
O44 O 0.71886 0.17748 0.53586 0.0
O45 O 0.5076 0.99918 0.57097 0.0
O46 O 0.49503 0.0656 0.51761 0.0
O47 O 0.69546 0.09202 0.46446 0.0
O48 O 0.60595 1.013 0.4755 0.0
O49 O 0.7196 0.95434 0.52204 0.0
O50 O 0.61846 0.93803 0.54856 0.0
O51 O 0.82359 0.06222 0.48569 0.0
O52 O 0.8417 0.1108 0.54227 0.0
C53 C 0.66453 0.20186 0.52612 0.0
O54 O 0.6362 0.08574 0.59322 0.0
O55 O 0.7307 0.04134 0.58918 0.0
C56 C 0.41999 0.96485 0.5278 0.0
C57 C 0.33428 0.85446 0.49783 0.0
C58 C 0.3212 0.88314 0.53366 0.0
C59 C 0.36391 0.93839 0.54855 0.0
C60 C 0.43307 0.93553 0.49216 0.0
C61 C 0.39033 0.88101 0.47718 0.0
C62 C 0.4669 1.02015 0.54412 0.0
C63 C 0.64578 0.05039 0.45076 0.0
C64 C 0.66914 0.91286 0.53642 0.0
C65 C 0.90408 0.16031 0.48709 0.0
C66 C 0.97591 0.27475 0.44568 0.0
C67 C 0.97453 0.20726 0.4326 0.0
C68 C 0.93912 0.15033 0.45336 0.0
C69 C 0.90465 0.22826 0.49954 0.0
C70 C 0.9404 0.28487 0.47906 0.0
C71 C 0.8653 0.10011 0.50799 0.0
H72 H 0.27821 0.86264 0.55 0.0
H73 H 0.35363 0.9599 0.57634 0.0
H74 H 0.47661 0.95443 0.47601 0.0
H75 H 0.40122 0.85899 0.44965 0.0
H76 H 1.0016 0.1987 0.4068 0.0
H77 H 0.93892 0.0985 0.44303 0.0
H78 H 0.87747 0.2379 0.52506 0.0
H79 H 0.94079 0.33671 0.48943 0.0
Dy80 Dy 0.76804 0.69092 0.83114 0.0
Dy81 Dy 0.61312 0.6744 0.83334 0.0
C82 C 0.68037 0.67571 0.75031 0.0
O83 O 0.74588 0.79565 0.84858 0.0
O84 O 0.65095 0.78595 0.81344 0.0
O85 O 0.85426 0.74364 0.80256 0.0
O86 O 0.86148 0.66221 0.84863 0.0
O87 O 0.64061 0.66578 0.89827 0.0
O88 O 0.74822 0.65406 0.89573 0.0
O89 O 0.63442 0.56344 0.84564 0.0
O90 O 0.73313 0.57908 0.81652 0.0
O91 O 0.51573 0.63288 0.81583 0.0
O92 O 0.53407 0.72245 0.85253 0.0
C93 C 0.69927 0.82545 0.83046 0.0
O94 O 0.73261 0.7077 0.76755 0.0
O95 O 0.63005 0.64963 0.77107 0.0
C96 C 0.92672 0.66285 0.79253 0.0
C97 C 0.96931 0.56115 0.74691 0.0
C98 C 0.93362 0.61057 0.72839 0.0
C99 C 0.9127 0.66143 0.75098 0.0
C100 C 0.96856 0.61874 0.80975 0.0
C101 C 0.98932 0.56851 0.78732 0.0
C102 C 0.89057 0.70043 0.81939 0.0
C103 C 0.69436 0.65058 0.91556 0.0
C104 C 0.68306 0.5372 0.83106 0.0
C105 C 0.43593 0.64848 0.8606 0.0
C106 C 0.32973 0.58148 0.90292 0.0
C107 C 0.32202 0.60736 0.86317 0.0
C108 C 0.37473 0.64067 0.84221 0.0
C109 C 0.44367 0.62642 0.90111 0.0
C110 C 0.39035 0.59343 0.92241 0.0
C111 C 0.4907 0.67717 0.83611 0.0
H112 H 0.91747 0.60624 0.69744 0.0
H113 H 0.88143 0.69584 0.73658 0.0
H114 H 0.98047 0.61873 0.84155 0.0
H115 H 1.01459 0.5303 0.80323 0.0
H116 H 0.27558 0.59837 0.84762 0.0
H117 H 0.36811 0.65792 0.81109 0.0
H118 H 0.49095 0.63262 0.91572 0.0
H119 H 0.39695 0.57394 0.9531 0.0
C120 C 0.56426 0.99816 0.22197 0.0
N121 N 0.60345 1.02389 0.25228 0.0
N122 N 0.50667 0.96708 0.23604 0.0
C123 C 0.58222 1.00353 0.17871 0.0
C124 C 0.51236 0.97454 0.27606 0.0
N125 N 0.57128 1.00855 0.28606 0.0
C126 C 0.46098 0.94721 0.30549 0.0
H127 H 0.57365 0.05522 0.16533 0.0
H128 H 0.55265 0.96245 0.16175 0.0
H129 H 0.63415 0.99948 0.17599 0.0
H130 H 0.46928 0.89458 0.31749 0.0
H131 H 0.41236 0.94292 0.29084 0.0
H132 H 0.46318 0.98148 0.331 0.0
C133 C 0.66054 0.55828 0.5287 0.0
N134 N 0.66185 0.61101 0.55411 0.0
N135 N 0.65775 0.49501 0.54942 0.0
C136 C 0.66514 0.56897 0.48408 0.0
C137 C 0.65697 0.51134 0.58814 0.0
N138 N 0.66046 0.58113 0.59107 0.0
C139 C 0.65656 0.45884 0.62333 0.0
H140 H 0.62964 0.60269 0.47212 0.0
H141 H 0.65685 0.51858 0.46946 0.0
H142 H 0.71388 0.59638 0.47676 0.0
H143 H 0.70351 0.43854 0.6254 0.0
H144 H 0.61837 0.41399 0.619 0.0
H145 H 0.64828 0.48162 0.65196 0.0
C146 C 1.09441 0.4321 0.83298 0.0
N147 N 1.10355 0.42572 0.87288 0.0
N148 N 1.04351 0.38503 0.82075 0.0
C149 C 0.13864 0.48308 0.80674 0.0
C150 C 1.02542 0.34799 0.85561 0.0
N151 N 1.06005 0.37524 0.8873 0.0
C152 C 0.98803 0.27578 0.85794 0.0
H153 H 0.11214 0.51254 0.78421 0.0
H154 H 0.17154 0.45434 0.79123 0.0
H155 H 0.16913 0.52216 0.82452 0.0
H156 H 0.96701 0.26074 0.82827 0.0
H157 H 0.94983 0.27228 0.88045 0.0
H158 H 1.02095 0.23816 0.86849 0.0
C159 C 0.14603 0.57416 0.43139 0.0
N160 N 0.12163 0.53642 0.40027 0.0
N161 N 0.1814 0.63425 0.41799 0.0
C162 C 0.13637 0.55201 0.47485 0.0
C163 C 0.17738 0.63251 0.37768 0.0
N164 N 0.14018 0.57347 0.36673 0.0
C165 C 0.20998 0.68846 0.3492 0.0
H166 H 0.13875 0.59812 0.49315 0.0
H167 H 0.17537 0.52188 0.48559 0.0
H168 H 1.08937 0.51826 0.47902 0.0
H169 H 0.25677 0.71238 0.36226 0.0
H170 H 0.17879 0.7299 0.34404 0.0
H171 H 0.21798 0.66747 0.31997 0.0
C172 C 0.68651 0.1785 0.8314 0.0
N173 N 0.69309 0.12626 0.80675 0.0
N174 N 0.68962 0.24183 0.81044 0.0
C175 C 0.67659 0.16754 0.87571 0.0
C176 C 0.69829 0.22576 0.77229 0.0
N177 N 0.70078 0.15667 0.77003 0.0
C178 C 0.70205 0.27718 0.73648 0.0
H179 H 0.62553 0.14615 0.88118 0.0
H180 H 0.68751 0.21715 0.89093 0.0
H181 H 0.70708 0.12925 0.88887 0.0
H182 H 0.74833 0.27782 0.72133 0.0
H183 H 0.69872 0.33097 0.74456 0.0
H184 H 0.66265 0.26034 0.71464 0.0
C185 C 0.5783 0.48662 0.12603 0.0
N186 N 0.63442 0.50694 0.10325 0.0
N187 N 0.51973 0.49873 0.1062 0.0
C188 C 0.58037 0.457 0.16828 0.0
C189 C 0.5436 0.52675 0.07052 0.0
N190 N 0.60978 0.53328 0.06902 0.0
C191 C 0.50094 0.54858 0.03621 0.0
H192 H 0.56185 0.40047 0.16885 0.0
H193 H 0.54821 0.48202 0.18673 0.0
H194 H 0.6303 0.46444 0.18105 0.0
H195 H 0.45406 0.5138 0.03568 0.0
H196 H 0.52407 0.54796 0.00694 0.0
H197 H 0.49102 0.60228 0.04028 0.0
C198 C 0.33154 0.42443 0.11097 0.0
C199 C 0.30011 0.48153 0.12301 0.0
C200 C 0.41612 0.54805 0.12674 0.0
C201 C 0.44747 0.49006 0.11699 0.0
N202 N 0.42974 0.36941 0.10346 0.0
N203 N 0.32206 0.59451 0.15048 0.0
C204 C 0.40309 0.42744 0.1104 0.0
C205 C 0.34563 0.54224 0.13283 0.0
N206 N 0.2928 0.36745 0.0976 0.0
N207 N 0.45413 0.61086 0.12949 0.0
H208 H 0.27356 0.59214 0.15713 0.0
H209 H 0.35129 0.63654 0.1625 0.0
H210 H 0.50423 0.61617 0.12763 0.0
H211 H 0.43602 0.65784 0.13086 0.0
H212 H 0.30977 0.32713 0.08401 0.0
H213 H 0.24266 0.36303 0.09723 0.0
H214 H 0.40366 0.31971 0.10245 0.0
H215 H 0.47957 0.37068 0.1019 0.0
C216 C 1.08351 0.3472 0.4334 0.0
C217 C 1.01592 0.33568 0.42575 0.0
C218 C 1.01922 0.45525 0.39741 0.0
C219 C 1.08694 0.46648 0.40372 0.0
N220 N 0.18541 0.42125 0.42244 0.0
N221 N 0.92212 0.37162 0.3916 0.0
C222 C 0.11966 0.41129 0.41952 0.0
C223 C 0.98482 0.38735 0.40447 0.0
N224 N 0.11244 0.29913 0.45638 0.0
N225 N 0.98714 0.51069 0.3883 0.0
H226 H 0.89577 0.32211 0.39651 0.0
H227 H 0.89858 0.40538 0.3729 0.0
H228 H 1.0108 0.56161 0.38649 0.0
H229 H 0.93705 0.50702 0.38699 0.0
H230 H 0.15988 0.30817 0.46724 0.0
H231 H 1.08789 0.25139 0.46704 0.0
H232 H 0.21282 0.38115 0.42906 0.0
H233 H 0.21291 0.46938 0.41594 0.0
C234 C 0.75466 0.95069 0.8139 0.0
C235 C 0.70027 0.90425 0.82826 0.0
C236 C 0.64061 1.00572 0.82992 0.0
C237 C 0.69604 0.05205 0.81739 0.0
N238 N 0.81069 0.06947 0.81081 0.0
N239 N 0.59781 0.89237 0.86039 0.0
C240 C 0.75449 1.02457 0.81333 0.0
C241 C 0.64497 0.93327 0.83917 0.0
N242 N 0.80553 0.92476 0.79897 0.0
N243 N 0.58325 0.0304 0.83233 0.0
H244 H 0.60138 0.84093 0.86995 0.0
H245 H 0.55919 0.91148 0.87248 0.0
H246 H 0.5788 0.08298 0.8274 0.0
H247 H 0.53948 0.99818 0.83647 0.0
H248 H 0.84331 0.95616 0.78444 0.0
H249 H 0.80701 0.87157 0.79754 0.0
H250 H 0.85592 0.05313 0.81093 0.0
H251 H 0.81194 0.12278 0.81389 0.0
C252 C 0.826 0.55629 0.10244 0.0
C253 C 0.85409 0.49466 0.11657 0.0
C254 C 0.73403 0.43864 0.1205 0.0
C255 C 0.70747 0.50254 0.11132 0.0
N256 N 0.73824 0.62628 0.10664 0.0
N257 N 0.82276 0.37989 0.14875 0.0
C258 C 0.75678 0.56205 0.10607 0.0
C259 C 0.8043 0.43684 0.12814 0.0
N260 N 0.86411 0.60981 0.08293 0.0
N261 N 0.6924 0.37787 0.12103 0.0
H262 H 0.86992 0.37716 0.15864 0.0
H263 H 0.78994 0.33903 0.16059 0.0
H264 H 0.64297 0.37683 0.11568 0.0
H265 H 0.70759 0.32896 0.12274 0.0
H266 H 0.84578 0.65269 0.06908 0.0
H267 H 0.91139 0.60712 0.07551 0.0
H268 H 0.77089 0.67219 0.10641 0.0
H269 H 0.69104 0.632 0.113 0.0
C270 C 0.23127 0.80698 0.46232 0.0
C271 C 0.29047 0.79541 0.48171 0.0
C272 C 0.27703 0.67668 0.4591 0.0
C273 C 0.21689 0.68739 0.44123 0.0
N274 N 0.13022 0.75546 0.43173 0.0
N275 N 0.36346 0.71589 0.506 0.0
C276 C 0.19192 0.75043 0.44481 0.0
C277 C 0.31137 0.72899 0.48248 0.0
N278 N 0.21425 0.87251 0.45898 0.0
N279 N 0.30232 0.61766 0.45216 0.0
H280 H 0.38945 0.75313 0.52375 0.0
H281 H 0.37744 0.66664 0.5107 0.0
H282 H 0.27814 0.57878 0.43481 0.0
H283 H 0.34903 0.60971 0.46082 0.0
H284 H 0.17529 0.88558 0.44142 0.0
H285 H 0.24174 0.91534 0.4715 0.0
H286 H 0.10653 0.79756 0.43683 0.0
H287 H 1.10081 0.7145 0.41856 0.0
C288 C 0.73462 0.42544 0.84644 0.0
C289 C 0.68156 0.4584 0.83027 0.0
C290 C 0.62784 0.34252 0.81036 0.0
C291 C 0.6828 0.31137 0.82323 0.0
N292 N 0.78242 0.31862 0.86085 0.0
N293 N 0.58133 0.44794 0.79173 0.0
C294 C 0.73417 0.35162 0.84365 0.0
C295 C 0.62856 0.41647 0.81153 0.0
N296 N 0.78718 0.46515 0.86281 0.0
N297 N 0.5744 0.30032 0.79722 0.0
H298 H 0.58099 0.50162 0.79008 0.0
H299 H 0.54535 0.42191 0.77373 0.0
H300 H 0.57321 0.2465 0.79625 0.0
H301 H 0.52991 0.31701 0.79097 0.0
H302 H 0.83006 0.44675 0.87139 0.0
H303 H 0.78978 0.51823 0.86664 0.0
H304 H 0.81649 0.34072 0.88144 0.0
H305 H 0.78654 0.26695 0.85607 0.0
C306 C 0.72191 0.80419 0.55553 0.0
C307 C 0.66856 0.83458 0.53836 0.0
C308 C 0.61095 0.71557 0.52925 0.0
C309 C 0.66575 0.6861 0.54443 0.0
N310 N 0.77919 0.70376 0.55923 0.0
N311 N 0.56853 0.81761 0.49962 0.0
C312 C 0.72297 0.73103 0.55371 0.0
C313 C 0.61472 0.78973 0.5226 0.0
N314 N 0.77028 0.8442 0.57547 0.0
N315 N 0.55476 0.67274 0.52188 0.0
H316 H 0.57086 0.87086 0.49241 0.0
H317 H 0.53145 0.78766 0.48426 0.0
H318 H 0.55112 0.61857 0.52525 0.0
H319 H 0.51095 0.69088 0.51532 0.0
H320 H 0.80689 0.82325 0.5918 0.0
H321 H 0.77025 0.89705 0.57931 0.0
H322 H 0.82393 0.73413 0.56316 0.0
H323 H 0.78146 0.6516 0.5545 0.0
C324 C 1.02964 0.47006 0.72407 0.0
C325 C 0.96961 0.49206 0.72971 0.0
C326 C 0.94201 0.40011 0.77954 0.0
C327 C 1.00853 0.38959 0.78236 0.0
N328 N 1.09794 0.38013 0.74103 0.0
N329 N 0.8598 0.43947 0.73412 0.0
C330 C 1.04535 0.41086 0.7478 0.0
C331 C 0.92246 0.44128 0.74633 0.0
N332 N 1.07309 0.50993 0.70004 0.0
N333 N 0.89952 0.3807 0.80921 0.0
H334 H 0.84763 0.4706 0.70931 0.0
H335 H 0.82316 0.40196 0.74547 0.0
H336 H 0.90921 0.35331 0.83549 0.0
H337 H 0.85422 0.39684 0.80799 0.0
H338 H 0.12041 0.50023 0.69767 0.0
H339 H 1.0607 0.55396 0.68372 0.0
H340 H 0.12591 0.39287 0.71576 0.0
H341 H 0.10987 0.33885 0.76004 0.0
C342 C 0.38053 0.82349 0.20091 0.0
C343 C 0.34441 0.86105 0.17267 0.0
C344 C 0.41321 0.96992 0.18874 0.0
C345 C 0.4526 0.93131 0.2139 0.0
N346 N 0.48166 0.82082 0.23816 0.0
N347 N 0.33255 0.96858 0.13484 0.0
C348 C 0.43851 0.85782 0.21825 0.0
C349 C 0.36246 0.93402 0.16521 0.0
N350 N 0.35802 0.75588 0.21251 0.0
N351 N 0.42331 0.041 0.18837 0.0
H352 H 0.29566 0.94393 0.11679 0.0
H353 H 0.34788 1.02022 0.12535 0.0
H354 H 0.45998 0.06831 0.20549 0.0
H355 H 0.39241 0.07245 0.17383 0.0
H356 H 0.37903 0.72808 0.23579 0.0
H357 H 0.31466 0.72958 0.20152 0.0
H358 H 0.47746 0.76665 0.23905 0.0
H359 H 0.5249 0.84481 0.25064 0.0
C360 C 0.60572 0.30261 0.54341 0.0
C361 C 0.66087 0.27921 0.52769 0.0
C362 C 0.71369 0.40199 0.52313 0.0
C363 C 0.65671 0.42482 0.53575 0.0
N364 N 0.54354 0.39829 0.54728 0.0
N365 N 0.76032 0.31166 0.49219 0.0
C366 C 0.60096 0.37534 0.54181 0.0
C367 C 0.71289 0.33044 0.51444 0.0
N368 N 0.5603 0.25663 0.5632 0.0
N369 N 0.76931 0.44798 0.52089 0.0
H370 H 0.7594 0.26125 0.4829 0.0
H371 H 0.79643 0.34767 0.47913 0.0
H372 H 0.77122 0.50029 0.52696 0.0
H373 H 0.81404 0.43293 0.51605 0.0
H374 H 0.52251 0.2723 0.57814 0.0
H375 H 0.56453 0.20425 0.56937 0.0
H376 H 0.49977 0.36514 0.54846 0.0
H377 H 0.53944 0.45132 0.54666 0.0
C378 C 0.21736 0.56128 0.92455 0.0
C379 C 0.27514 0.53343 0.91999 0.0
C380 C 0.21531 0.42576 0.89763 0.0
C381 C 0.15869 0.45783 0.89509 0.0
N382 N 1.10291 0.55375 0.90732 0.0
N383 N 0.32794 0.43215 0.91513 0.0
C384 C 0.1583 0.52427 0.91022 0.0
C385 C 0.27312 0.46261 0.91221 0.0
N386 N 0.22084 0.62498 0.94018 0.0
N387 N 0.21684 0.36214 0.88306 0.0
H388 H 0.37145 0.45756 0.9264 0.0
H389 H 0.32857 0.38053 0.90825 0.0
H390 H 0.17724 0.33273 0.86958 0.0
H391 H 0.17724 0.33273 0.86958 0.0
H392 H 0.18094 0.64873 0.9459 0.0
H393 H 0.26496 0.65166 0.94999 0.0
H394 H 1.09946 0.60388 0.91547 0.0
H395 H 1.06035 0.5284 0.89478 0.0
C396 C 0.78496 0.06374 0.24602 0.0
C397 C 0.7924 0.13597 0.23464 0.0
C398 C 0.67536 0.13493 0.238 0.0
C399 C 0.66769 0.06238 0.24844 0.0
N400 N 0.71214 0.955 0.2542 0.0
N401 N 0.74769 0.24368 0.22755 0.0
C402 C 0.72187 0.02613 0.25084 0.0
C403 C 0.73841 0.17266 0.23317 0.0
N404 N 0.83856 0.03159 0.25276 0.0
N405 N 0.62182 0.1664 0.22956 0.0
H406 H 0.79314 0.27267 0.22368 0.0
H407 H 0.71154 0.2746 0.22998 0.0
H408 H 0.57524 0.13924 0.23085 0.0
H409 H 0.6231 0.21744 0.21782 0.0
H410 H 0.83736 0.98077 0.26486 0.0
H411 H 0.88527 0.05795 0.24942 0.0
H412 H 0.74853 0.92416 0.25255 0.0
H413 H 0.66616 0.92638 0.25462 0.0
C414 C 1.00368 0.43017 0.98302 0.0
C415 C 1.05981 0.42046 0.00649 0.0
C416 C 1.08933 0.3451 0.95629 0.0
C417 C 1.04404 0.3695 0.92904 0.0
N418 N 0.95702 0.43733 0.91608 0.0
N419 N 0.16209 0.37566 0.01183 0.0
C420 C 0.99982 0.4114 0.94253 0.0
C421 C 1.10402 0.37888 0.99245 0.0
N422 N 0.95348 0.4553 -0.00059 0.0
N423 N 0.12027 0.29183 0.94637 0.0
H424 H 0.17748 0.40461 0.03649 0.0
H425 H 0.1979 0.35075 0.00056 0.0
H426 H 0.10837 0.26656 0.91988 0.0
H427 H 0.1517 0.26871 0.96603 0.0
H428 H 0.90927 0.45718 0.9844 0.0
H429 H 0.95332 0.46729 0.02933 0.0
H430 H 0.92944 0.47528 0.92307 0.0
H431 H 0.95242 0.4245 0.8863 0.0
C432 C 0.61609 0.09868 0.38215 0.0
C433 C 0.63507 0.04277 0.40698 0.0
C434 C 0.61832 0.96643 0.35036 0.0
C435 C 0.59592 1.02123 0.32632 0.0
N436 N 0.56018 0.13328 0.32106 0.0
N437 N 0.65674 0.92413 0.41557 0.0
C438 C 0.59201 0.08606 0.34253 0.0
C439 C 0.63723 0.97683 0.39118 0.0
N440 N 0.61999 0.16354 0.39661 0.0
N441 N 0.62006 0.90401 0.334 0.0
H442 H 0.67554 0.93158 0.4445 0.0
H443 H 0.65416 0.87276 0.40788 0.0
H444 H 0.60096 0.89325 0.30555 0.0
H445 H 0.6407 0.86288 0.34785 0.0
H446 H 0.61387 0.20802 0.37872 0.0
H447 H 0.63383 0.17416 0.42608 0.0
H448 H 0.54981 0.1792 0.33218 0.0
H449 H 0.53802 0.12285 0.29332 0.0
C450 C 0.62802 0.67742 0.68136 0.0
C451 C 0.68027 0.66236 0.707 0.0
C452 C 0.72656 0.61137 0.65144 0.0
C453 C 0.66981 0.61656 0.62804 0.0
N454 N 0.56141 0.64341 0.62318 0.0
N455 N 0.77225 0.60089 0.71801 0.0
C456 C 0.6193 0.64741 0.64342 0.0
C457 C 0.72838 0.62671 0.69233 0.0
N458 N 0.58705 0.7205 0.69316 0.0
N459 N 0.77798 0.58883 0.63497 0.0
H460 H 0.77547 0.60824 0.74851 0.0
H461 H 0.80166 0.56604 0.7095 0.0
H462 H 0.77665 0.57204 0.60594 0.0
H463 H 0.82326 0.59159 0.64916 0.0
H464 H 0.55144 0.73803 0.67426 0.0
H465 H 0.59295 0.74411 0.72049 0.0
H466 H 0.52061 0.65926 0.63458 0.0
H467 H 0.55277 0.6176 0.59672 0.0
C468 C 0.64803 0.0525 0.68003 0.0
C469 C 0.69957 0.07621 0.65401 0.0
C470 C 0.75911 0.13554 0.70971 0.0
C471 C 0.70299 0.12205 0.73301 0.0
N472 N 0.58948 0.0806 0.73625 0.0
N473 N 0.80254 0.14789 0.64316 0.0
C474 C 0.64639 0.08303 0.71736 0.0
C475 C 0.75547 0.11861 0.66875 0.0
N476 N 0.60029 1.00118 0.66888 0.0
N477 N 0.81527 0.16716 0.72639 0.0
H478 H 0.80114 0.13919 0.61276 0.0
H479 H 0.84044 0.18563 0.65131 0.0
H480 H 0.81781 0.18556 0.75508 0.0
H481 H 0.85966 0.17139 0.71271 0.0
H482 H 0.56429 0.97808 0.68814 0.0
H483 H 0.60097 0.97672 0.642 0.0
H484 H 0.54535 0.05796 0.72434 0.0
H485 H 0.58555 0.10879 0.76129 0.0
C486 C 0.67549 0.66738 0.9879 0.0
C487 C 0.69047 0.62313 0.95853 0.0
C488 C 0.66935 0.52216 0.0074 0.0
C489 C 0.64609 0.56509 0.03462 0.0
N490 N 0.62163 0.67787 0.0498 0.0
N491 N 0.69928 0.50737 0.93947 0.0
C492 C 0.64857 0.6378 0.02477 0.0
C493 C 0.68827 0.55037 0.96842 0.0
N494 N 0.68728 0.73797 0.98038 0.0
N495 N 0.67033 0.45338 0.01826 0.0
H496 H 0.71351 0.52639 0.91107 0.0
H497 H 0.69108 0.45319 0.94257 0.0
H498 H 0.65055 0.42995 0.04472 0.0
H499 H 0.69356 0.42039 0.0023 0.0
H500 H 0.6832 0.77378 0.00173 0.0
H501 H 0.70714 0.76064 0.95367 0.0
H502 H 0.61452 0.72913 0.04242 0.0
H503 H 0.60232 0.65826 0.07719 0.0
C504 C 1.06083 0.57236 0.26363 0.0
C505 C 1.0971 0.52787 0.24489 0.0
C506 C 0.16031 0.51216 0.30694 0.0
C507 C 0.12329 0.55528 0.32611 0.0
N508 N 1.04928 0.63952 0.32107 0.0
N509 N 0.17357 0.44596 0.24942 0.0
C510 C 1.07606 0.58861 0.30407 0.0
C511 C 0.14456 0.4949 0.2668 0.0
N512 N 1.01098 0.59781 0.24291 0.0
N513 N 0.21423 0.49317 0.32606 0.0
H514 H 0.16411 0.43297 0.21981 0.0
H515 H 0.20311 0.41428 0.26508 0.0
H516 H 0.22988 0.51063 0.35401 0.0
H517 H 0.24727 0.46718 0.31275 0.0
H518 H 0.97784 0.62409 0.25591 0.0
H519 H 0.99978 0.58849 0.2129 0.0
H520 H 1.01989 0.67152 0.30559 0.0
H521 H 1.06048 0.65383 0.35028 0.0
loop_
_geom_bond_atom_site_label_1
_geom_bond_atom_site_label_2
_geom_bond_distance
_geom_bond_site_symmetry_2
_ccdc_geom_bond_type
Dy0 O3 2.307 1_455 S
Dy0 O5 2.395 . S
Dy0 O6 2.379 . S
Dy0 O8 2.339 . S
Dy0 O10 2.298 . S
Dy0 O14 2.275 . S
Dy0 C22 2.738 . S
Dy1 O4 2.298 . S
Dy1 O7 2.275 1_655 S
Dy1 O9 2.307 1_655 S
Dy1 O11 2.395 . S
Dy1 O12 2.379 . S
Dy1 O15 2.339 . S
Dy1 C31 2.738 . S
C2 O14 1.254 . S
C2 O15 1.257 1_455 S
O3 Dy0 2.307 1_655 S
O3 C13 1.266 . S
O4 Dy1 2.298 . S
O4 C13 1.236 . S
O5 Dy0 2.395 . S
O5 C22 1.255 . S
O6 Dy0 2.379 . S
O6 C22 1.249 . S
O7 Dy1 2.275 1_455 S
O7 C23 1.254 . S
O8 Dy0 2.339 . S
O8 C23 1.257 . S
O9 Dy1 2.307 1_455 S
O9 C24 1.266 . S
O10 Dy0 2.298 . S
O10 C24 1.236 . S
O11 Dy1 2.395 . S
O11 C31 1.255 . S
O12 Dy1 2.379 . S
O12 C31 1.249 . S
C13 O3 1.266 . S
C13 O4 1.236 . S
O14 Dy0 2.275 . S
O14 C2 1.254 . S
O15 Dy1 2.339 . S
O15 C2 1.257 1_655 S
C16 C19 1.344 . S
C16 C20 1.328 . S
C16 C22 1.516 . S
C17 C18 1.304 . S
C17 C21 1.323 . S
C18 C17 1.304 . S
C18 C19 1.371 . S
C18 H32 0.930 . S
C19 C16 1.344 . S
C19 C18 1.371 . S
C19 H33 0.931 . S
C20 C16 1.328 . S
C20 C21 1.433 . S
C20 H34 0.931 . S
C21 C17 1.323 . S
C21 C20 1.433 . S
C21 H35 0.933 . S
C22 Dy0 2.738 . S
C22 O5 1.255 . S
C22 O6 1.249 . S
C22 C16 1.516 . S
C23 O7 1.254 . S
C23 O8 1.257 . S
C24 O9 1.266 . S
C24 O10 1.236 . S
C25 C28 1.344 . S
C25 C29 1.328 . S
C25 C31 1.516 . S
C26 C27 1.304 . S
C26 C30 1.323 . S
C27 C26 1.304 . S
C27 C28 1.371 . S
C27 H36 0.930 . S
C28 C25 1.344 . S
C28 C27 1.371 . S
C28 H37 0.931 . S
C29 C25 1.328 . S
C29 C30 1.433 . S
C29 H38 0.931 . S
C30 C26 1.323 . S
C30 C29 1.433 . S
C30 H39 0.933 . S
C31 Dy1 2.738 . S
C31 O11 1.255 . S
C31 O12 1.249 . S
C31 C25 1.516 . S
H32 C18 0.930 . S
H33 C19 0.931 . S
H34 C20 0.931 . S
H35 C21 0.933 . S
H36 C27 0.930 . S
H37 C28 0.931 . S
H38 C29 0.931 . S
H39 C30 0.933 . S
Dy40 O43 2.307 1_565 S
Dy40 O45 2.395 . S
Dy40 O46 2.379 . S
Dy40 O48 2.339 . S
Dy40 O50 2.298 . S
Dy40 O54 2.275 . S
Dy40 C62 2.738 . S
Dy41 O44 2.298 . S
Dy41 O47 2.275 . S
Dy41 O49 2.307 1_545 S
Dy41 O51 2.395 . S
Dy41 O52 2.379 . S
Dy41 O55 2.339 . S
Dy41 C71 2.738 . S
C42 O54 1.254 1_545 S
C42 O55 1.258 . S
O43 Dy40 2.307 1_545 S
O43 C53 1.266 . S
O44 Dy41 2.298 . S
O44 C53 1.236 . S
O45 Dy40 2.395 . S
O45 C62 1.255 . S
O46 Dy40 2.379 . S
O46 C62 1.249 . S
O47 Dy41 2.275 . S
O47 C63 1.254 . S
O48 Dy40 2.339 . S
O48 C63 1.257 1_565 S
O49 Dy41 2.307 1_565 S
O49 C64 1.266 . S
O50 Dy40 2.298 . S
O50 C64 1.236 . S
O51 Dy41 2.395 . S
O51 C71 1.255 . S
O52 Dy41 2.379 . S
O52 C71 1.249 . S
C53 O43 1.266 . S
C53 O44 1.236 . S
O54 Dy40 2.275 . S
O54 C42 1.254 1_565 S
O55 Dy41 2.339 . S
O55 C42 1.258 . S
C56 C59 1.344 . S
C56 C60 1.328 . S
C56 C62 1.516 . S
C57 C58 1.304 . S
C57 C61 1.323 . S
C58 C57 1.304 . S
C58 C59 1.371 . S
C58 H72 0.930 . S
C59 C56 1.344 . S
C59 C58 1.371 . S
C59 H73 0.931 . S
C60 C56 1.328 . S
C60 C61 1.433 . S
C60 H74 0.931 . S
C61 C57 1.323 . S
C61 C60 1.433 . S
C61 H75 0.933 . S
C62 Dy40 2.738 . S
C62 O45 1.255 . S
C62 O46 1.249 . S
C62 C56 1.516 . S
C63 O47 1.254 . S
C63 O48 1.257 1_545 S
C64 O49 1.266 . S
C64 O50 1.236 . S
C65 C68 1.344 . S
C65 C69 1.328 . S
C65 C71 1.516 . S
C66 C67 1.304 . S
C66 C70 1.323 . S
C67 C66 1.304 . S
C67 C68 1.371 . S
C67 H76 0.930 . S
C68 C65 1.344 . S
C68 C67 1.371 . S
C68 H77 0.931 . S
C69 C65 1.328 . S
C69 C70 1.433 . S
C69 H78 0.931 . S
C70 C66 1.323 . S
C70 C69 1.433 . S
C70 H79 0.933 . S
C71 Dy41 2.738 . S
C71 O51 1.255 . S
C71 O52 1.249 . S
C71 C65 1.516 . S
H72 C58 0.930 . S
H73 C59 0.931 . S
H74 C60 0.931 . S
H75 C61 0.933 . S
H76 C67 0.930 . S
H77 C68 0.931 . S
H78 C69 0.931 . S
H79 C70 0.933 . S
Dy80 O83 2.307 . S
Dy80 O85 2.395 . S
Dy80 O86 2.379 . S
Dy80 O88 2.339 . S
Dy80 O90 2.298 . S
Dy80 O94 2.275 . S
Dy80 C102 2.738 . S
Dy81 O84 2.298 . S
Dy81 O87 2.275 . S
Dy81 O89 2.307 . S
Dy81 O91 2.395 . S
Dy81 O92 2.379 . S
Dy81 O95 2.339 . S
Dy81 C111 2.738 . S
C82 O94 1.254 . S
C82 O95 1.257 . S
O83 Dy80 2.307 . S
O83 C93 1.266 . S
O84 Dy81 2.298 . S
O84 C93 1.236 . S
O85 Dy80 2.395 . S
O85 C102 1.255 . S
O86 Dy80 2.379 . S
O86 C102 1.249 . S
O87 Dy81 2.275 . S
O87 C103 1.254 . S
O88 Dy80 2.339 . S
O88 C103 1.257 . S
O89 Dy81 2.307 . S
O89 C104 1.266 . S
O90 Dy80 2.298 . S
O90 C104 1.236 . S
O91 Dy81 2.395 . S
O91 C111 1.255 . S
O92 Dy81 2.379 . S
O92 C111 1.249 . S
C93 O83 1.266 . S
C93 O84 1.236 . S
O94 Dy80 2.275 . S
O94 C82 1.254 . S
O95 Dy81 2.339 . S
O95 C82 1.257 . S
C96 C99 1.344 . S
C96 C100 1.328 . S
C96 C102 1.516 . S
C97 C98 1.304 . S
C97 C101 1.323 . S
C98 C97 1.304 . S
C98 C99 1.371 . S
C98 H112 0.930 . S
C99 C96 1.344 . S
C99 C98 1.371 . S
C99 H113 0.931 . S
C100 C96 1.328 . S
C100 C101 1.433 . S
C100 H114 0.931 . S
C101 C97 1.323 . S
C101 C100 1.433 . S
C101 H115 0.933 . S
C102 Dy80 2.738 . S
C102 O85 1.255 . S
C102 O86 1.249 . S
C102 C96 1.516 . S
C103 O87 1.254 . S
C103 O88 1.257 . S
C104 O89 1.266 . S
C104 O90 1.236 . S
C105 C108 1.344 . S
C105 C109 1.328 . S
C105 C111 1.516 . S
C106 C107 1.304 . S
C106 C110 1.323 . S
C107 C106 1.304 . S
C107 C108 1.371 . S
C107 H116 0.930 . S
C108 C105 1.344 . S
C108 C107 1.371 . S
C108 H117 0.931 . S
C109 C105 1.328 . S
C109 C110 1.433 . S
C109 H118 0.931 . S
C110 C106 1.323 . S
C110 C109 1.433 . S
C110 H119 0.933 . S
C111 Dy81 2.738 . S
C111 O91 1.255 . S
C111 O92 1.249 . S
C111 C105 1.516 . S
H112 C98 0.930 . S
H113 C99 0.931 . S
H114 C100 0.931 . S
H115 C101 0.933 . S
H116 C107 0.930 . S
H117 C108 0.931 . S
H118 C109 0.931 . S
H119 C110 0.933 . S
C120 N121 1.317 . S
C120 N122 1.348 1_545 S
C120 C123 1.485 . S
N121 C120 1.317 . S
N121 N125 1.370 . S
N122 C120 1.348 1_565 S
N122 C124 1.346 . S
C123 C120 1.485 . S
C123 H127 0.960 . S
C123 H128 0.961 1_545 S
C123 H129 0.960 . S
C124 N122 1.346 . S
C124 N125 1.307 1_565 S
C124 C126 1.486 . S
N125 N121 1.370 . S
N125 C124 1.307 1_545 S
C126 C124 1.486 . S
C126 H130 0.960 . S
C126 H131 0.960 . S
C126 H132 0.959 . S
H127 C123 0.960 . S
H128 C123 0.961 1_565 S
H129 C123 0.960 . S
H130 C126 0.960 . S
H131 C126 0.960 . S
H132 C126 0.959 . S
C133 N134 1.317 . S
C133 N135 1.348 . S
C133 C136 1.485 . S
N134 C133 1.317 . S
N134 N138 1.370 . S
N135 C133 1.348 . S
N135 C137 1.346 . S
C136 C133 1.485 . S
C136 H140 0.960 . S
C136 H141 0.961 . S
C136 H142 0.960 . S
C137 N135 1.346 . S
C137 N138 1.307 . S
C137 C139 1.486 . S
N138 N134 1.370 . S
N138 C137 1.307 . S
C139 C137 1.486 . S
C139 H143 0.960 . S
C139 H144 0.960 . S
C139 H145 0.959 . S
H140 C136 0.960 . S
H141 C136 0.961 . S
H142 C136 0.960 . S
H143 C139 0.960 . S
H144 C139 0.960 . S
H145 C139 0.959 . S
C146 N147 1.317 . S
C146 N148 1.348 1_455 S
C146 C149 1.485 . S
N147 C146 1.317 . S
N147 N151 1.370 . S
N148 C146 1.348 1_655 S
N148 C150 1.346 . S
C149 C146 1.485 . S
C149 H153 0.960 . S
C149 H154 0.961 1_455 S
C149 H155 0.960 . S
C150 N148 1.346 . S
C150 N151 1.307 1_655 S
C150 C152 1.486 . S
N151 N147 1.370 . S
N151 C150 1.307 1_455 S
C152 C150 1.486 . S
C152 H156 0.960 . S
C152 H157 0.960 . S
C152 H158 0.959 . S
H153 C149 0.960 . S
H154 C149 0.961 1_655 S
H155 C149 0.960 . S
H156 C152 0.960 . S
H157 C152 0.960 . S
H158 C152 0.959 . S
C159 N160 1.317 . S
C159 N161 1.348 . S
C159 C162 1.485 . S
N160 C159 1.317 . S
N160 N164 1.370 . S
N161 C159 1.348 . S
N161 C163 1.346 . S
C162 C159 1.485 . S
C162 H166 0.960 . S
C162 H167 0.961 . S
C162 H168 0.960 . S
C163 N161 1.346 . S
C163 N164 1.307 . S
C163 C165 1.486 . S
N164 N160 1.370 . S
N164 C163 1.307 . S
C165 C163 1.486 . S
C165 H169 0.960 . S
C165 H170 0.960 . S
C165 H171 0.959 . S
H166 C162 0.960 . S
H167 C162 0.961 . S
H168 C162 0.960 . S
H169 C165 0.960 . S
H170 C165 0.960 . S
H171 C165 0.959 . S
C172 N173 1.317 1_545 S
C172 N174 1.348 . S
C172 C175 1.485 . S
N173 C172 1.317 1_565 S
N173 N177 1.370 1_565 S
N174 C172 1.348 . S
N174 C176 1.346 . S
C175 C172 1.485 . S
C175 H179 0.960 . S
C175 H180 0.961 . S
C175 H181 0.960 1_545 S
C176 N174 1.346 . S
C176 N177 1.307 . S
C176 C178 1.486 . S
N177 N173 1.370 1_545 S
N177 C176 1.307 . S
C178 C176 1.486 . S
C178 H182 0.960 . S
C178 H183 0.960 . S
C178 H184 0.959 . S
H179 C175 0.960 . S
H180 C175 0.961 . S
H181 C175 0.960 1_565 S
H182 C178 0.960 . S
H183 C178 0.960 . S
H184 C178 0.959 . S
C185 N186 1.317 . S
C185 N187 1.348 . S
C185 C188 1.485 . S
N186 C185 1.317 . S
N186 N190 1.370 . S
N187 C185 1.348 . S
N187 C189 1.346 . S
C188 C185 1.485 . S
C188 H192 0.960 . S
C188 H193 0.961 . S
C188 H194 0.960 . S
C189 N187 1.346 . S
C189 N190 1.307 . S
C189 C191 1.486 . S
N190 N186 1.370 . S
N190 C189 1.307 . S
C191 C189 1.486 . S
C191 H195 0.960 . S
C191 H196 0.960 . S
C191 H197 0.959 . S
H192 C188 0.960 . S
H193 C188 0.961 . S
H194 C188 0.960 . S
H195 C191 0.960 . S
H196 C191 0.960 . S
H197 C191 0.959 . S
C198 C199 1.363 . S
C198 C204 1.379 . S
C198 N206 1.356 . S
C199 C198 1.363 . S
C199 C205 1.363 . S
C200 C201 1.363 . S
C200 C205 1.379 . S
C200 N207 1.356 . S
C201 C200 1.363 . S
C201 C204 1.363 . S
N202 C204 1.356 . S
N202 H214 0.984 . S
N202 H215 0.985 . S
N203 C205 1.356 . S
N203 H208 0.984 . S
N203 H209 0.985 . S
C204 C198 1.379 . S
C204 C201 1.363 . S
C204 N202 1.356 . S
C205 C199 1.363 . S
C205 C200 1.379 . S
C205 N203 1.356 . S
N206 C198 1.356 . S
N206 H212 0.984 . S
N206 H213 0.984 . S
N207 C200 1.356 . S
N207 H210 0.984 . S
N207 H211 0.985 . S
H208 N203 0.984 . S
H209 N203 0.985 . S
H210 N207 0.984 . S
H211 N207 0.985 . S
H212 N206 0.984 . S
H213 N206 0.984 . S
H214 N202 0.984 . S
H215 N202 0.985 . S
C216 C217 1.363 . S
C216 C222 1.379 . S
C216 N224 1.356 . S
C217 C216 1.363 . S
C217 C223 1.363 . S
C218 C219 1.363 . S
C218 C223 1.379 . S
C218 N225 1.356 . S
C219 C218 1.363 . S
C219 C222 1.363 . S
N220 C222 1.356 1_455 S
N220 H232 0.984 . S
N220 H233 0.985 . S
N221 C223 1.356 . S
N221 H226 0.984 . S
N221 H227 0.985 . S
C222 C216 1.379 . S
C222 C219 1.363 . S
C222 N220 1.356 1_655 S
C223 C217 1.363 . S
C223 C218 1.379 . S
C223 N221 1.356 . S
N224 C216 1.356 . S
N224 H230 0.984 1_655 S
N224 H231 0.984 . S
N225 C218 1.356 . S
N225 H228 0.984 . S
N225 H229 0.985 . S
H226 N221 0.984 . S
H227 N221 0.985 . S
H228 N225 0.984 . S
H229 N225 0.985 . S
H230 N224 0.984 1_455 S
H231 N224 0.984 . S
H232 N220 0.984 . S
H233 N220 0.985 . S
C234 C235 1.363 . S
C234 C240 1.379 . S
C234 N242 1.356 . S
C235 C234 1.363 . S
C235 C241 1.363 . S
C236 C237 1.363 . S
C236 C241 1.379 . S
C236 N243 1.356 . S
C237 C236 1.363 . S
C237 C240 1.363 . S
N238 C240 1.356 . S
N238 H250 0.984 . S
N238 H251 0.985 . S
N239 C241 1.356 . S
N239 H244 0.984 . S
N239 H245 0.985 . S
C240 C234 1.379 . S
C240 C237 1.363 . S
C240 N238 1.356 . S
C241 C235 1.363 . S
C241 C236 1.379 . S
C241 N239 1.356 . S
N242 C234 1.356 . S
N242 H248 0.984 . S
N242 H249 0.984 . S
N243 C236 1.356 . S
N243 H246 0.984 . S
N243 H247 0.985 . S
H244 N239 0.984 . S
H245 N239 0.985 . S
H246 N243 0.984 . S
H247 N243 0.985 . S
H248 N242 0.984 . S
H249 N242 0.984 . S
H250 N238 0.984 . S
H251 N238 0.985 . S
C252 C253 1.363 . S
C252 C258 1.379 . S
C252 N260 1.356 . S
C253 C252 1.363 . S
C253 C259 1.363 . S
C254 C255 1.363 . S
C254 C259 1.379 . S
C254 N261 1.356 . S
C255 C254 1.363 . S
C255 C258 1.363 . S
N256 C258 1.356 . S
N256 H268 0.984 . S
N256 H269 0.985 . S
N257 C259 1.356 . S
N257 H262 0.984 . S
N257 H263 0.985 . S
C258 C252 1.379 . S
C258 C255 1.363 . S
C258 N256 1.356 . S
C259 C253 1.363 . S
C259 C254 1.379 . S
C259 N257 1.356 . S
N260 C252 1.356 . S
N260 H266 0.984 . S
N260 H267 0.984 . S
N261 C254 1.356 . S
N261 H264 0.984 . S
N261 H265 0.985 . S
H262 N257 0.984 . S
H263 N257 0.985 . S
H264 N261 0.984 . S
H265 N261 0.985 . S
H266 N260 0.984 . S
H267 N260 0.984 . S
H268 N256 0.984 . S
H269 N256 0.985 . S
C270 C271 1.363 . S
C270 C276 1.379 . S
C270 N278 1.356 . S
C271 C270 1.363 . S
C271 C277 1.363 . S
C272 C273 1.363 . S
C272 C277 1.379 . S
C272 N279 1.356 . S
C273 C272 1.363 . S
C273 C276 1.363 . S
N274 C276 1.356 . S
N274 H286 0.984 . S
N274 H287 0.985 . S
N275 C277 1.356 . S
N275 H280 0.984 . S
N275 H281 0.985 . S
C276 C270 1.379 . S
C276 C273 1.363 . S
C276 N274 1.356 . S
C277 C271 1.363 . S
C277 C272 1.379 . S
C277 N275 1.356 . S
N278 C270 1.356 . S
N278 H284 0.984 . S
N278 H285 0.984 . S
N279 C272 1.356 . S
N279 H282 0.984 . S
N279 H283 0.985 . S
H280 N275 0.984 . S
H281 N275 0.985 . S
H282 N279 0.984 . S
H283 N279 0.985 . S
H284 N278 0.984 . S
H285 N278 0.984 . S
H286 N274 0.984 . S
H287 N274 0.985 . S
C288 C289 1.363 . S
C288 C294 1.379 . S
C288 N296 1.356 . S
C289 C288 1.363 . S
C289 C295 1.363 . S
C290 C291 1.363 . S
C290 C295 1.379 . S
C290 N297 1.356 . S
C291 C290 1.363 . S
C291 C294 1.363 . S
N292 C294 1.356 . S
N292 H304 0.984 . S
N292 H305 0.985 . S
N293 C295 1.356 . S
N293 H298 0.984 . S
N293 H299 0.985 . S
C294 C288 1.379 . S
C294 C291 1.363 . S
C294 N292 1.356 . S
C295 C289 1.363 . S
C295 C290 1.379 . S
C295 N293 1.356 . S
N296 C288 1.356 . S
N296 H302 0.984 . S
N296 H303 0.984 . S
N297 C290 1.356 . S
N297 H300 0.984 . S
N297 H301 0.985 . S
H298 N293 0.984 . S
H299 N293 0.985 . S
H300 N297 0.984 . S
H301 N297 0.985 . S
H302 N296 0.984 . S
H303 N296 0.984 . S
H304 N292 0.984 . S
H305 N292 0.985 . S
C306 C307 1.363 . S
C306 C312 1.379 . S
C306 N314 1.356 . S
C307 C306 1.363 . S
C307 C313 1.363 . S
C308 C309 1.363 . S
C308 C313 1.379 . S
C308 N315 1.356 . S
C309 C308 1.363 . S
C309 C312 1.363 . S
N310 C312 1.356 . S
N310 H322 0.984 . S
N310 H323 0.985 . S
N311 C313 1.356 . S
N311 H316 0.984 . S
N311 H317 0.985 . S
C312 C306 1.379 . S
C312 C309 1.363 . S
C312 N310 1.356 . S
C313 C307 1.363 . S
C313 C308 1.379 . S
C313 N311 1.356 . S
N314 C306 1.356 . S
N314 H320 0.984 . S
N314 H321 0.984 . S
N315 C308 1.356 . S
N315 H318 0.984 . S
N315 H319 0.985 . S
H316 N311 0.984 . S
H317 N311 0.985 . S
H318 N315 0.984 . S
H319 N315 0.985 . S
H320 N314 0.984 . S
H321 N314 0.984 . S
H322 N310 0.984 . S
H323 N310 0.985 . S
C324 C325 1.363 . S
C324 C330 1.379 . S
C324 N332 1.356 . S
C325 C324 1.363 . S
C325 C331 1.363 . S
C326 C327 1.363 . S
C326 C331 1.379 . S
C326 N333 1.356 . S
C327 C326 1.363 . S
C327 C330 1.363 . S
N328 C330 1.357 1_455 S
N328 H340 0.984 . S
N328 H341 0.984 . S
N329 C331 1.356 . S
N329 H334 0.984 . S
N329 H335 0.985 . S
C330 C324 1.379 . S
C330 C327 1.363 . S
C330 N328 1.357 1_655 S
C331 C325 1.363 . S
C331 C326 1.379 . S
C331 N329 1.356 . S
N332 C324 1.356 . S
N332 H338 0.984 . S
N332 H339 0.984 . S
N333 C326 1.356 . S
N333 H336 0.984 . S
N333 H337 0.985 . S
H334 N329 0.984 . S
H335 N329 0.985 . S
H336 N333 0.984 . S
H337 N333 0.985 . S
H338 N332 0.984 . S
H339 N332 0.984 . S
H340 N328 0.984 . S
H341 N328 0.984 . S
C342 C343 1.363 . S
C342 C348 1.379 . S
C342 N350 1.356 . S
C343 C342 1.363 . S
C343 C349 1.363 . S
C344 C345 1.363 . S
C344 C349 1.379 . S
C344 N351 1.356 . S
C345 C344 1.363 . S
C345 C348 1.363 . S
N346 C348 1.356 . S
N346 H358 0.984 . S
N346 H359 0.985 . S
N347 C349 1.356 . S
N347 H352 0.984 . S
N347 H353 0.985 . S
C348 C342 1.379 . S
C348 C345 1.363 . S
C348 N346 1.356 . S
C349 C343 1.363 . S
C349 C344 1.379 . S
C349 N347 1.356 . S
N350 C342 1.356 . S
N350 H356 0.984 . S
N350 H357 0.984 . S
N351 C344 1.356 . S
N351 H354 0.984 1_565 S
N351 H355 0.985 1_565 S
H352 N347 0.984 . S
H353 N347 0.985 . S
H354 N351 0.984 1_545 S
H355 N351 0.985 1_545 S
H356 N350 0.984 . S
H357 N350 0.984 . S
H358 N346 0.984 . S
H359 N346 0.985 . S
C360 C361 1.363 . S
C360 C366 1.379 . S
C360 N368 1.356 . S
C361 C360 1.363 . S
C361 C367 1.363 . S
C362 C363 1.363 . S
C362 C367 1.379 . S
C362 N369 1.356 . S
C363 C362 1.363 . S
C363 C366 1.363 . S
N364 C366 1.356 . S
N364 H376 0.984 . S
N364 H377 0.985 . S
N365 C367 1.356 . S
N365 H370 0.984 . S
N365 H371 0.985 . S
C366 C360 1.379 . S
C366 C363 1.363 . S
C366 N364 1.356 . S
C367 C361 1.363 . S
C367 C362 1.379 . S
C367 N365 1.356 . S
N368 C360 1.356 . S
N368 H374 0.984 . S
N368 H375 0.984 . S
N369 C362 1.356 . S
N369 H372 0.984 . S
N369 H373 0.985 . S
H370 N365 0.984 . S
H371 N365 0.985 . S
H372 N369 0.984 . S
H373 N369 0.985 . S
H374 N368 0.984 . S
H375 N368 0.984 . S
H376 N364 0.984 . S
H377 N364 0.985 . S
C378 C379 1.363 . S
C378 C384 1.379 . S
C378 N386 1.356 . S
C379 C378 1.363 . S
C379 C385 1.363 . S
C380 C381 1.363 . S
C380 C385 1.379 . S
C380 N387 1.356 . S
C381 C380 1.363 . S
C381 C384 1.363 . S
N382 C384 1.356 . S
N382 H394 0.984 . S
N382 H395 0.985 . S
N383 C385 1.356 . S
N383 H388 0.984 . S
N383 H389 0.985 . S
C384 C378 1.379 . S
C384 C381 1.363 . S
C384 N382 1.356 . S
C385 C379 1.363 . S
C385 C380 1.379 . S
C385 N383 1.356 . S
N386 C378 1.356 . S
N386 H392 0.984 . S
N386 H393 0.984 . S
N387 C380 1.356 . S
N387 H390 0.984 1_455 S
N387 H391 0.985 1_455 S
H388 N383 0.984 . S
H389 N383 0.985 . S
H390 N387 0.984 1_655 S
H391 N387 0.985 1_655 S
H392 N386 0.984 . S
H393 N386 0.984 . S
H394 N382 0.984 . S
H395 N382 0.985 . S
C396 C397 1.363 . S
C396 C402 1.379 . S
C396 N404 1.356 . S
C397 C396 1.363 . S
C397 C403 1.363 . S
C398 C399 1.363 . S
C398 C403 1.379 . S
C398 N405 1.356 . S
C399 C398 1.363 . S
C399 C402 1.363 . S
N400 C402 1.356 . S
N400 H412 0.984 1_545 S
N400 H413 0.985 . S
N401 C403 1.356 . S
N401 H406 0.984 . S
N401 H407 0.985 . S
C402 C396 1.379 . S
C402 C399 1.363 . S
C402 N400 1.356 . S
C403 C397 1.363 . S
C403 C398 1.379 . S
C403 N401 1.356 . S
N404 C396 1.356 . S
N404 H410 0.984 . S
N404 H411 0.984 . S
N405 C398 1.356 . S
N405 H408 0.984 . S
N405 H409 0.985 . S
H406 N401 0.984 . S
H407 N401 0.985 . S
H408 N405 0.984 . S
H409 N405 0.985 . S
H410 N404 0.984 . S
H411 N404 0.984 . S
H412 N400 0.984 1_565 S
H413 N400 0.985 . S
C414 C415 1.363 . S
C414 C420 1.379 1_554 S
C414 N422 1.356 . S
C415 C414 1.363 . S
C415 C421 1.363 . S
C416 C417 1.363 . S
C416 C421 1.379 1_556 S
C416 N423 1.356 . S
C417 C416 1.363 . S
C417 C420 1.363 . S
N418 C420 1.356 . S
N418 H430 0.984 . S
N418 H431 0.985 . S
N419 C421 1.356 . S
N419 H424 0.984 . S
N419 H425 0.985 . S
C420 C414 1.379 1_556 S
C420 C417 1.363 . S
C420 N418 1.356 . S
C421 C415 1.363 . S
C421 C416 1.379 1_554 S
C421 N419 1.356 . S
N422 C414 1.356 . S
N422 H428 0.984 . S
N422 H429 0.984 . S
N423 C416 1.356 . S
N423 H426 0.984 . S
N423 H427 0.985 . S
H424 N419 0.984 . S
H425 N419 0.985 . S
H426 N423 0.984 . S
H427 N423 0.985 . S
H428 N422 0.984 . S
H429 N422 0.984 . S
H430 N418 0.984 . S
H431 N418 0.985 . S
C432 C433 1.363 . S
C432 C438 1.379 . S
C432 N440 1.356 . S
C433 C432 1.363 . S
C433 C439 1.363 1_545 S
C434 C435 1.363 1_565 S
C434 C439 1.379 . S
C434 N441 1.356 . S
C435 C434 1.363 1_545 S
C435 C438 1.363 . S
N436 C438 1.356 . S
N436 H448 0.984 . S
N436 H449 0.985 . S
N437 C439 1.356 . S
N437 H442 0.984 . S
N437 H443 0.985 . S
C438 C432 1.379 . S
C438 C435 1.363 . S
C438 N436 1.356 . S
C439 C433 1.363 1_565 S
C439 C434 1.379 . S
C439 N437 1.356 . S
N440 C432 1.356 . S
N440 H446 0.984 . S
N440 H447 0.984 . S
N441 C434 1.356 . S
N441 H444 0.984 . S
N441 H445 0.985 . S
H442 N437 0.984 . S
H443 N437 0.985 . S
H444 N441 0.984 . S
H445 N441 0.985 . S
H446 N440 0.984 . S
H447 N440 0.984 . S
H448 N436 0.984 . S
H449 N436 0.985 . S
C450 C451 1.363 . S
C450 C456 1.379 . S
C450 N458 1.356 . S
C451 C450 1.363 . S
C451 C457 1.363 . S
C452 C453 1.363 . S
C452 C457 1.379 . S
C452 N459 1.356 . S
C453 C452 1.363 . S
C453 C456 1.363 . S
N454 C456 1.356 . S
N454 H466 0.984 . S
N454 H467 0.985 . S
N455 C457 1.356 . S
N455 H460 0.984 . S
N455 H461 0.985 . S
C456 C450 1.379 . S
C456 C453 1.363 . S
C456 N454 1.356 . S
C457 C451 1.363 . S
C457 C452 1.379 . S
C457 N455 1.356 . S
N458 C450 1.356 . S
N458 H464 0.984 . S
N458 H465 0.984 . S
N459 C452 1.356 . S
N459 H462 0.984 . S
N459 H463 0.985 . S
H460 N455 0.984 . S
H461 N455 0.985 . S
H462 N459 0.984 . S
H463 N459 0.985 . S
H464 N458 0.984 . S
H465 N458 0.984 . S
H466 N454 0.984 . S
H467 N454 0.985 . S
C468 C469 1.363 . S
C468 C474 1.379 . S
C468 N476 1.356 . S
C469 C468 1.363 . S
C469 C475 1.363 1_565 S
C470 C471 1.363 . S
C470 C475 1.379 . S
C470 N477 1.356 . S
C471 C470 1.363 . S
C471 C474 1.363 1_545 S
N472 C474 1.356 . S
N472 H484 0.984 . S
N472 H485 0.985 . S
N473 C475 1.356 . S
N473 H478 0.984 . S
N473 H479 0.985 . S
C474 C468 1.379 . S
C474 C471 1.363 1_565 S
C474 N472 1.356 . S
C475 C469 1.363 1_545 S
C475 C470 1.379 . S
C475 N473 1.356 . S
N476 C468 1.356 . S
N476 H482 0.984 . S
N476 H483 0.984 . S
N477 C470 1.356 . S
N477 H480 0.984 . S
N477 H481 0.985 . S
H478 N473 0.984 . S
H479 N473 0.985 . S
H480 N477 0.984 . S
H481 N477 0.985 . S
H482 N476 0.984 . S
H483 N476 0.984 . S
H484 N472 0.984 . S
H485 N472 0.985 . S
C486 C487 1.363 . S
C486 C492 1.379 1_556 S
C486 N494 1.356 . S
C487 C486 1.363 . S
C487 C493 1.363 . S
C488 C489 1.363 . S
C488 C493 1.379 1_554 S
C488 N495 1.356 . S
C489 C488 1.363 . S
C489 C492 1.363 . S
N490 C492 1.356 . S
N490 H502 0.984 . S
N490 H503 0.985 . S
N491 C493 1.356 . S
N491 H496 0.984 . S
N491 H497 0.985 . S
C492 C486 1.379 1_554 S
C492 C489 1.363 . S
C492 N490 1.356 . S
C493 C487 1.363 . S
C493 C488 1.379 1_556 S
C493 N491 1.356 . S
N494 C486 1.356 . S
N494 H500 0.984 . S
N494 H501 0.984 . S
N495 C488 1.356 . S
N495 H498 0.984 . S
N495 H499 0.985 . S
H496 N491 0.984 . S
H497 N491 0.985 . S
H498 N495 0.984 . S
H499 N495 0.985 . S
H500 N494 0.984 . S
H501 N494 0.984 . S
H502 N490 0.984 . S
H503 N490 0.985 . S
C504 C505 1.363 . S
C504 C510 1.379 . S
C504 N512 1.356 . S
C505 C504 1.363 . S
C505 C511 1.363 . S
C506 C507 1.363 . S
C506 C511 1.379 . S
C506 N513 1.356 . S
C507 C506 1.363 . S
C507 C510 1.363 . S
N508 C510 1.356 . S
N508 H520 0.984 . S
N508 H521 0.985 . S
N509 C511 1.356 1_655 S
N509 H514 0.984 . S
N509 H515 0.985 . S
C510 C504 1.379 . S
C510 C507 1.363 . S
C510 N508 1.356 . S
C511 C505 1.363 . S
C511 C506 1.379 . S
C511 N509 1.356 1_455 S
N512 C504 1.356 . S
N512 H518 0.984 . S
N512 H519 0.984 . S
N513 C506 1.356 . S
N513 H516 0.984 . S
N513 H517 0.985 . S
H514 N509 0.984 . S
H515 N509 0.985 . S
H516 N513 0.984 . S
H517 N513 0.985 . S
H518 N512 0.984 . S
H519 N512 0.984 . S
H520 N508 0.984 . S
H521 N508 0.985 . S
C199 C24 2.883 . S
C201 N187 2.856 . S
C217 C66 1.254 . S
C219 N160 1.284 1_655 S
C235 C93 1.798 . S
C237 N173 1.824 . S
C253 C13 3.297 . S
C255 N186 3.325 . S
C273 N161 1.491 . S
C271 C57 1.451 . S
C291 N174 1.966 . S
C289 C104 1.994 . S
C307 C64 1.867 . S
C309 N134 1.865 . S
C325 C97 0.790 . S
C327 N148 0.804 . S
C343 C17 1.503 . S
C345 N122 1.583 . S
C363 N135 1.884 . S
C361 C53 1.893 . S
C381 N147 0.913 . S
C379 C106 0.871 . S
C397 C26 1.371 . S
C399 N121 1.422 . S
C417 N151 1.125 . S
C415 C2 1.162 . S
C433 C63 1.488 . S
C435 N125 1.576 . S
C451 C82 1.429 . S
C453 N138 1.422 . S
C471 N177 1.538 . S
C469 C42 1.522 1_565 S
C489 N190 1.781 . S
C487 C103 1.740 . S
C505 C23 1.493 . S
C507 N164 1.568 . S
