# Generated by pormake.
# Topology anh, (6,3)-cn, num edge types: 1
# Building blocks:
#     Node 0, Type 0, BuildingBlock: INOVEN_clean_sbu_0, # of connection points: 6
#     Node 1, Type 0, BuildingBlock: INOVEN_clean_sbu_0, # of connection points: 6
#     Node 2, Type 0, BuildingBlock: INOVEN_clean_sbu_0, # of connection points: 6
#     Node 3, Type 1, BuildingBlock: QEWDON_clean_linker_0, # of connection points: 3
#     Node 4, Type 1, BuildingBlock: QEWDON_clean_linker_0, # of connection points: 3
#     Node 5, Type 1, BuildingBlock: QEWDON_clean_linker_0, # of connection points: 3
#     Node 6, Type 1, BuildingBlock: QEWDON_clean_linker_0, # of connection points: 3
#     Node 7, Type 1, BuildingBlock: QEWDON_clean_linker_0, # of connection points: 3
#     Node 8, Type 1, BuildingBlock: QEWDON_clean_linker_0, # of connection points: 3
#     Edge 9, Type (0, 1), BuildingBlock: EZIPEK_clean_linker_0, # of connection points: 2
#     Edge 10, Type (0, 1), BuildingBlock: EZIPEK_clean_linker_0, # of connection points: 2
#     Edge 11, Type (0, 1), BuildingBlock: EZIPEK_clean_linker_0, # of connection points: 2
#     Edge 12, Type (0, 1), BuildingBlock: EZIPEK_clean_linker_0, # of connection points: 2
#     Edge 13, Type (0, 1), BuildingBlock: EZIPEK_clean_linker_0, # of connection points: 2
#     Edge 14, Type (0, 1), BuildingBlock: EZIPEK_clean_linker_0, # of connection points: 2
#     Edge 15, Type (0, 1), BuildingBlock: EZIPEK_clean_linker_0, # of connection points: 2
#     Edge 16, Type (0, 1), BuildingBlock: EZIPEK_clean_linker_0, # of connection points: 2
#     Edge 17, Type (0, 1), BuildingBlock: EZIPEK_clean_linker_0, # of connection points: 2
#     Edge 18, Type (0, 1), BuildingBlock: EZIPEK_clean_linker_0, # of connection points: 2
#     Edge 19, Type (0, 1), BuildingBlock: EZIPEK_clean_linker_0, # of connection points: 2
#     Edge 20, Type (0, 1), BuildingBlock: EZIPEK_clean_linker_0, # of connection points: 2
#     Edge 21, Type (0, 1), BuildingBlock: EZIPEK_clean_linker_0, # of connection points: 2
#     Edge 22, Type (0, 1), BuildingBlock: EZIPEK_clean_linker_0, # of connection points: 2
#     Edge 23, Type (0, 1), BuildingBlock: EZIPEK_clean_linker_0, # of connection points: 2
#     Edge 24, Type (0, 1), BuildingBlock: EZIPEK_clean_linker_0, # of connection points: 2
#     Edge 25, Type (0, 1), BuildingBlock: EZIPEK_clean_linker_0, # of connection points: 2
#     Edge 26, Type (0, 1), BuildingBlock: EZIPEK_clean_linker_0, # of connection points: 2
# Relax obj value: 0.182
# Max RMSD: 0.204
# Mean RMSD: 0.127
data_MOF--net-anh--node1-INOVEN_clean_sbu_0--node2-QEWDON_clean_linker_0--edge1-EZIPEK_clean_linker_0
_symmetry_space_group_name_H-M    P1
_symmetry_Int_Tables_number       1
_symmetry_cell_setting            triclinic
loop_
_symmetry_equiv_pos_as_xyz
'x, y, z'
_cell_length_a     25.86195
_cell_length_b     31.264654
_cell_length_c     35.505793
_cell_angle_alpha  96.733315
_cell_angle_beta   92.453373
_cell_angle_gamma 131.92367
loop_
_atom_site_label
_atom_site_type_symbol
_atom_site_fract_x
_atom_site_fract_y
_atom_site_fract_z
_atom_type_partial_charge
Gd0 Gd 0.11895 0.4997 0.14336 0.0
Gd1 Gd 1.03668 0.53188 0.16132 0.0
C2 C 0.20435 0.64022 0.16037 0.0
C3 C 0.1999 0.48992 0.1133 0.0
C4 C 0.2628 0.53368 0.09676 0.0
C5 C 0.3269 0.55123 0.11141 0.0
C6 C 0.26281 0.56735 0.07364 0.0
C7 C 0.39017 0.64116 0.08698 0.0
C8 C 0.32637 0.62073 0.0686 0.0
C9 C 0.39031 0.60484 0.10667 0.0
C10 C 0.10175 0.50443 0.21824 0.0
C11 C 0.95362 0.39327 0.14771 0.0
C12 C 0.98856 0.57546 0.19258 0.0
C13 C 0.93237 0.57589 0.19419 0.0
C14 C 0.90262 0.57786 0.16125 0.0
C15 C 0.91858 0.58602 0.23039 0.0
C16 C 0.85802 0.61138 0.20148 0.0
C17 C 0.88107 0.60342 0.23405 0.0
C18 C 0.86575 0.59566 0.16495 0.0
C19 C 1.02883 0.50181 0.08435 0.0
O20 O 0.20723 0.59986 0.14903 0.0
O21 O 0.14471 0.62413 0.16855 0.0
O22 O 0.20684 0.50538 0.15038 0.0
O23 O 0.13916 0.46706 0.0945 0.0
O24 O 0.10051 0.46584 0.19882 0.0
O25 O 0.11461 0.53953 0.19742 0.0
O26 O 0.95658 0.43477 0.16559 0.0
O27 O 1.00733 0.40822 0.13097 0.0
O28 O 1.02227 0.59224 0.1633 0.0
O29 O 0.98088 0.53389 0.20468 0.0
O30 O 0.97665 0.48914 0.10002 0.0
O31 O 0.08195 0.53185 0.11013 0.0
H32 H 0.32805 0.52616 0.12949 0.0
H33 H 0.21407 0.55499 0.06211 0.0
H34 H 0.32574 0.6479 0.05272 0.0
H35 H 0.4394 0.62009 0.12091 0.0
H36 H 0.91228 0.56996 0.13302 0.0
H37 H 0.94136 0.58483 0.25612 0.0
H38 H 0.87509 0.61519 0.26237 0.0
H39 H 0.84757 0.6012 0.13952 0.0
Gd40 Gd 0.67975 0.04098 0.47784 0.0
Gd41 Gd 0.58702 0.06257 0.47088 0.0
C42 C 0.50714 0.92664 0.4635 0.0
C43 C 0.73827 1.00393 0.49985 0.0
C44 C 0.71144 0.94524 0.50057 0.0
C45 C 0.74542 0.93824 0.52747 0.0
C46 C 0.64933 0.89554 0.47619 0.0
C47 C 0.65502 0.83257 0.50601 0.0
C48 C 0.62117 0.83954 0.47899 0.0
C49 C 0.71748 0.88214 0.5301 0.0
C50 C 0.64705 0.04082 0.40447 0.0
C51 C 0.75981 0.17538 0.47885 0.0
C52 C 0.52198 0.09718 0.4569 0.0
C53 C 0.53499 0.15107 0.4689 0.0
C54 C 0.51185 0.15808 0.5022 0.0
C55 C 0.56889 0.19528 0.44687 0.0
C56 C 0.55599 0.25185 0.49122 0.0
C57 C 0.57929 0.24534 0.45797 0.0
C58 C 0.5225 0.20807 0.51329 0.0
C59 C 0.61749 0.05833 0.54377 0.0
O60 O 0.57148 0.94799 0.47421 0.0
O61 O 0.49989 0.96307 0.45586 0.0
O62 O 0.73945 0.01659 0.46591 0.0
O63 O 0.71427 0.02036 0.52319 0.0
O64 O 0.70871 0.06309 0.42004 0.0
O65 O 0.60411 0.01757 0.42805 0.0
O66 O 0.69503 0.15427 0.46983 0.0
O67 O 0.76855 0.14015 0.48722 0.0
O68 O 0.50936 0.067 0.48334 0.0
O69 O 0.56253 0.10008 0.43452 0.0
O70 O 0.5574 0.03844 0.52812 0.0
O71 O 0.66097 0.08423 0.52083 0.0
H72 H 0.79303 0.97607 0.5467 0.0
H73 H 0.62223 0.89995 0.45524 0.0
H74 H 0.5729 0.80161 0.46022 0.0
H75 H 0.74407 0.8773 0.55109 0.0
H76 H 0.48487 0.12469 0.5196 0.0
H77 H 0.58674 0.19094 0.42088 0.0
H78 H 0.60458 0.27855 0.44042 0.0
H79 H 0.50357 0.21223 0.53883 0.0
Gd80 Gd 0.69005 0.61324 0.8444 0.0
Gd81 Gd 0.59522 0.49389 0.84919 0.0
C82 C 0.52134 0.55122 0.85084 0.0
C83 C 0.7726 0.71592 0.82618 0.0
C84 C 0.76792 0.76034 0.82499 0.0
C85 C 0.7308 0.7655 0.84991 0.0
C86 C 0.79508 0.7942 0.7963 0.0
C87 C 0.74674 0.83663 0.81682 0.0
C88 C 0.78455 0.83207 0.7922 0.0
C89 C 0.72052 0.80351 0.84592 0.0
C90 C 0.66104 0.59859 0.91637 0.0
C91 C 0.76539 0.55609 0.84904 0.0
C92 C 0.53228 0.38821 0.85786 0.0
C93 C 0.54842 0.35084 0.84965 0.0
C94 C 0.49849 0.29614 0.82464 0.0
C95 C 0.61468 0.37075 0.86295 0.0
C96 C 0.58105 0.28271 0.82522 0.0
C97 C 0.63067 0.33681 0.85099 0.0
C98 C 0.51469 0.26262 0.81241 0.0
C99 C 0.58607 0.51168 0.77727 0.0
O100 O 0.58156 0.59265 0.83749 0.0
O101 O 0.51861 0.51018 0.86271 0.0
O102 O 0.7814 0.70701 0.86001 0.0
O103 O 0.72597 0.66712 0.80122 0.0
O104 O 0.66368 0.63358 0.89859 0.0
O105 O 0.67314 0.5719 0.8949 0.0
O106 O 0.69709 0.50643 0.84572 0.0
O107 O 0.77623 0.60505 0.85045 0.0
O108 O 0.51771 0.40021 0.82757 0.0
O109 O 0.5719 0.43359 0.88624 0.0
O110 O 0.5326 0.4766 0.794 0.0
O111 O 0.64231 0.53649 0.79953 0.0
H112 H 0.70839 0.73917 0.87187 0.0
H113 H 0.82296 0.79025 0.77645 0.0
H114 H 0.80472 0.85699 0.76944 0.0
H115 H 0.69072 0.80612 0.86497 0.0
H116 H 0.44735 0.28001 0.81365 0.0
H117 H 0.65464 0.413 0.88188 0.0
H118 H 0.68225 0.35326 0.86121 0.0
H119 H 0.47566 0.22119 0.7925 0.0
H120 H 0.63486 0.05863 0.22755 0.0
C121 C 0.5896 0.01321 0.21485 0.0
C122 C 0.55923 0.97158 0.23866 0.0
C123 C 0.55828 0.99799 0.17645 0.0
H124 H 0.47759 0.88138 0.24258 0.0
C125 C 0.49953 0.91265 0.22361 0.0
C126 C 0.46403 0.89415 0.18588 0.0
C127 C 0.4941 0.9376 0.16234 0.0
C128 C 0.58783 0.04706 0.15388 0.0
H129 H 0.46678 0.9243 0.13345 0.0
C130 C 0.66097 0.10141 0.16008 0.0
C131 C 0.6842 0.14842 0.14096 0.0
C132 C 0.54042 0.04163 0.1278 0.0
H133 H 0.4847 1.00293 0.12265 0.0
C134 C 0.56286 0.08695 0.10903 0.0
H135 H 0.69955 0.10738 0.17956 0.0
C136 C 0.63318 0.13948 0.11569 0.0
H137 H 0.64799 0.1737 0.10078 0.0
H138 H 0.52488 0.0816 0.08943 0.0
H139 H 0.53015 0.52969 0.60334 0.0
C140 C 0.54312 0.506 0.5891 0.0
C141 C 0.5661 0.48511 0.61106 0.0
C142 C 0.53448 0.49458 0.54874 0.0
H143 H 0.59642 0.43518 0.60856 0.0
C144 C 0.58034 0.45272 0.59205 0.0
C145 C 0.56756 0.43805 0.55186 0.0
C146 C 0.54679 0.46051 0.53033 0.0
C147 C 0.50809 0.51463 0.5254 0.0
H148 H 0.53741 0.44933 0.4992 0.0
C149 C 0.5429 0.57423 0.53095 0.0
C150 C 0.52046 0.59321 0.50654 0.0
C151 C 0.44936 0.47416 0.49611 0.0
H152 H 0.4215 0.42799 0.49148 0.0
C153 C 0.42613 0.4929 0.47253 0.0
H154 H 0.58879 0.60601 0.55311 0.0
C155 C 0.46176 0.55221 0.4775 0.0
H156 H 0.44394 0.5663 0.45853 0.0
H157 H 0.38091 0.46144 0.45004 0.0
H158 H 0.13826 0.53683 0.92095 0.0
C159 C 0.10436 0.54036 0.90587 0.0
C160 C 1.05483 0.53581 0.92571 0.0
C161 C 0.11097 0.54906 0.8677 0.0
H162 H 0.97229 0.53651 0.92544 0.0
C163 C 1.00854 0.54018 0.90846 0.0
C164 C 1.00741 0.54969 0.87087 0.0
C165 C 1.06019 0.55372 0.85034 0.0
C166 C 0.17027 0.55245 0.84817 0.0
H167 H 1.06177 0.56103 0.82128 0.0
C168 C 0.22375 0.55008 0.86485 0.0
C169 C 0.27504 0.55335 0.84267 0.0
C170 C 0.17286 0.55794 0.80951 0.0
H171 H 0.13759 0.55986 0.79429 0.0
C172 C 0.21975 0.56084 0.78873 0.0
H173 H 0.22577 0.54593 0.89454 0.0
C174 C 0.26843 0.55863 0.80449 0.0
H175 H 0.30232 0.56129 0.78593 0.0
H176 H 0.21829 0.56499 0.75894 0.0
H177 H 0.08894 0.50301 0.39733 0.0
C178 C 0.13576 0.54817 0.40937 0.0
C179 C 0.17875 0.58451 0.38405 0.0
C180 C 0.14938 0.57039 0.44891 0.0
H181 H 0.27025 0.67132 0.37792 0.0
C182 C 0.23821 0.64396 0.39806 0.0
C183 C 0.25506 0.66938 0.43712 0.0
C184 C 0.21033 0.63197 0.46258 0.0
C185 C 0.09521 0.53036 0.47407 0.0
H186 H 0.22287 0.65131 0.49267 0.0
C187 C 1.04808 0.46715 0.46578 0.0
C188 C 0.99363 0.43147 0.48814 0.0
C189 C 0.08624 0.55559 0.50548 0.0
H190 H 0.11813 0.60241 0.51263 0.0
C191 C 1.0339 0.52103 0.5275 0.0
H192 H 1.05328 0.44556 0.44226 0.0
C193 C 0.98814 0.46011 0.5189 0.0
H194 H 0.94775 0.43494 0.53651 0.0
H195 H 1.02802 0.54178 0.5513 0.0
H196 H 0.65251 0.02717 0.72008 0.0
C197 C 0.65198 0.06002 0.73298 0.0
C198 C 0.64775 0.09081 0.70912 0.0
C199 C 0.65051 0.06865 0.77264 0.0
H200 H 0.63357 0.15099 0.70608 0.0
C201 C 0.6406 0.12969 0.72483 0.0
C202 C 0.64058 0.13998 0.76443 0.0
C203 C 0.64846 0.11112 0.7882 0.0
C204 C 0.64261 0.02909 0.79701 0.0
H205 H 0.64912 0.11974 0.81876 0.0
C206 C 0.67472 1.0063 0.79133 0.0
C207 C 0.66268 0.96662 0.8136 0.0
C208 C 0.59872 1.01118 0.8253 0.0
H209 H 0.571 0.02567 0.82978 0.0
C210 C 0.58791 0.97273 0.84758 0.0
H211 H 0.70849 0.01888 0.76976 0.0
C212 C 0.61953 0.9505 0.84178 0.0
H213 H 0.60978 0.92009 0.85907 0.0
H214 H 0.55396 0.95944 0.8691 0.0
H215 H 0.72105 0.75265 0.05987 0.0
C216 C 0.73678 0.74267 0.08365 0.0
C217 C 0.7379 0.69839 0.07662 0.0
C218 C 0.75526 0.7738 0.12118 0.0
H219 H 0.75928 0.65123 0.10146 0.0
C220 C 0.75786 0.68528 0.10707 0.0
C221 C 0.77572 0.71564 0.14473 0.0
C222 C 0.77423 0.75991 0.1519 0.0
C223 C 0.74692 0.81609 0.12793 0.0
H224 H 0.7867 0.78261 0.18109 0.0
C225 C 0.68022 0.79577 0.11746 0.0
C226 C 0.66973 0.8344 0.1204 0.0
C227 C 0.80409 0.876 0.14242 0.0
H228 H 0.85628 0.89251 0.15061 0.0
C229 C 0.79408 0.91511 0.14521 0.0
H230 H 0.63583 0.74924 0.10679 0.0
C231 C 0.7271 0.89454 0.13388 0.0
H232 H 0.71987 0.92504 0.13602 0.0
H233 H 0.83836 0.96144 0.15593 0.0
C234 C 0.48151 0.73993 0.12873 0.0
C235 C 0.45563 0.70363 0.09179 0.0
C236 C 0.56594 0.78047 0.07036 0.0
C237 C 0.59678 0.80835 0.10926 0.0
N238 N 0.58427 0.82263 0.17501 0.0
N239 N 0.46889 0.69061 0.02578 0.0
C240 C 0.55405 0.79164 0.13816 0.0
C241 C 0.49583 0.72499 0.06167 0.0
N242 N 0.43667 0.72406 0.15468 0.0
N243 N 0.60593 0.8061 0.04244 0.0
H244 H 0.41742 0.64991 0.01863 0.0
H245 H 0.49812 0.70109 0.00354 0.0
H246 H 0.65784 0.84655 0.04924 0.0
H247 H 0.58644 0.79032 0.01312 0.0
H248 H 0.45056 0.75061 0.18101 0.0
H249 H 0.38315 0.68618 0.14829 0.0
H250 H 0.55831 0.80915 0.1986 0.0
H251 H 0.63678 0.862 0.18204 0.0
C252 C 0.8778 0.27715 0.51229 0.0
C253 C 0.82406 0.24027 0.47933 0.0
C254 C 0.88537 0.32835 0.44946 0.0
C255 C 0.94107 0.36433 0.48152 0.0
N256 N 0.99763 0.36792 0.53898 0.0
N257 N 0.79037 0.22997 0.4123 0.0
C258 C 0.93945 0.33685 0.51138 0.0
C259 C 0.83186 0.26579 0.44671 0.0
N260 N 0.86837 0.2565 0.54552 0.0
N261 N 0.88159 0.35384 0.42213 0.0
H262 H 0.75523 0.18452 0.4087 0.0
H263 H 0.79707 0.24505 0.38667 0.0
H264 H 0.91959 0.39878 0.42271 0.0
H265 H 0.83808 0.33094 0.40058 0.0
H266 H 0.90173 0.28281 0.57164 0.0
H267 H 0.82314 0.21451 0.54791 0.0
H268 H 1.00283 0.34918 0.55944 0.0
H269 H 1.04363 0.41096 0.53882 0.0
C270 C 0.66806 0.84883 0.78727 0.0
C271 C 0.73125 0.87382 0.81111 0.0
C272 C 0.75656 0.96492 0.83111 0.0
C273 C 0.69287 0.93958 0.80772 0.0
N274 N 0.59582 0.86352 0.75746 0.0
N275 N 0.84257 0.95855 0.8496 0.0
C276 C 0.6513 0.88346 0.78371 0.0
C277 C 0.77787 0.93299 0.831 0.0
N278 N 0.62277 0.79123 0.76925 0.0
N279 N 0.79502 0.01855 0.85461 0.0
H280 H 0.859 0.93594 0.85072 0.0
H281 H 0.88198 1.00303 0.86151 0.0
H282 H 0.78261 0.04412 0.85399 0.0
H283 H 0.83719 0.03673 0.87587 0.0
H284 H 0.57206 0.76811 0.75526 0.0
H285 H 0.63435 0.76511 0.77008 0.0
H286 H 0.56709 0.82551 0.73652 0.0
H287 H 0.58207 0.88777 0.75449 0.0
C288 C 0.76259 0.61266 0.19595 0.0
C289 C 0.83504 0.64384 0.2048 0.0
C290 C 0.86741 0.73229 0.18929 0.0
C291 C 0.79527 0.699 0.17583 0.0
N292 N 0.67383 0.61604 0.17761 0.0
N293 N 0.95448 0.73659 0.22348 0.0
C294 C 0.74262 0.64207 0.18359 0.0
C295 C 0.88674 0.70515 0.20659 0.0
N296 N 0.71376 0.55438 0.19716 0.0
N297 N 0.91748 0.78781 0.18254 0.0
H298 H 0.97 0.71728 0.23578 0.0
H299 H 0.99354 0.78215 0.22852 0.0
H300 H 0.90505 0.80953 0.17077 0.0
H301 H 0.97123 0.81155 0.18704 0.0
H302 H 0.66017 0.52711 0.18709 0.0
H303 H 0.72791 0.53303 0.20762 0.0
H304 H 0.6327 0.57582 0.1846 0.0
H305 H 0.65907 0.63761 0.16845 0.0
C306 C 0.43833 0.8242 0.48206 0.0
C307 C 0.44223 0.86038 0.45846 0.0
C308 C 0.31748 0.77386 0.42983 0.0
C309 C 0.3171 0.73601 0.44885 0.0
N310 N 0.38512 0.7258 0.48826 0.0
N311 N 0.38768 0.85951 0.40083 0.0
C312 C 0.37979 0.76145 0.47368 0.0
C313 C 0.38219 0.83243 0.42999 0.0
N314 N 0.48856 0.84911 0.51357 0.0
N315 N 0.25554 0.75398 0.41141 0.0
H316 H 0.43531 0.89868 0.39652 0.0
H317 H 0.34709 0.83889 0.37776 0.0
H318 H 0.20707 0.71224 0.41149 0.0
H319 H 0.25175 0.78116 0.39993 0.0
H320 H 0.48429 0.82538 0.53354 0.0
H321 H 0.53052 0.89402 0.5224 0.0
H322 H 0.43224 0.741 0.50259 0.0
H323 H 0.34408 0.68033 0.48308 0.0
C324 C 0.65167 0.26903 0.78759 0.0
C325 C 0.59842 0.24723 0.81085 0.0
C326 C 0.5673 0.15293 0.79954 0.0
C327 C 0.6266 0.17734 0.78069 0.0
N328 N 0.73409 0.26362 0.76424 0.0
N329 N 0.51545 0.17204 0.84563 0.0
C330 C 0.67147 0.23693 0.7769 0.0
C331 C 0.55926 0.19024 0.81888 0.0
N332 N 0.68101 0.31887 0.77402 0.0
N333 N 0.5165 0.0937 0.79738 0.0
H334 H 0.50927 0.19853 0.86101 0.0
H335 H 0.49098 0.1331 0.85526 0.0
H336 H 0.51791 0.06423 0.7817 0.0
H337 H 0.46912 0.07336 0.80753 0.0
H338 H 0.71452 0.33312 0.75364 0.0
H339 H 0.66626 0.34255 0.78006 0.0
H340 H 0.77166 0.30848 0.76449 0.0
H341 H 0.75155 0.24222 0.75723 0.0
C342 C 0.5699 0.73979 0.53098 0.0
C343 C 0.62455 0.7729 0.50891 0.0
C344 C 0.61873 0.69143 0.49099 0.0
C345 C 0.55966 0.65642 0.51001 0.0
N346 N 0.47551 0.64457 0.54628 0.0
N347 N 0.69789 0.78023 0.46525 0.0
C348 C 0.53445 0.67997 0.52969 0.0
C349 C 0.64855 0.74888 0.48841 0.0
N350 N 0.5529 0.76604 0.55365 0.0
N351 N 0.64643 0.6697 0.47553 0.0
H352 H 0.72212 0.82296 0.46334 0.0
H353 H 0.71176 0.76294 0.44599 0.0
H354 H 0.62442 0.62706 0.47552 0.0
H355 H 0.69396 0.69492 0.46509 0.0
H356 H 0.51862 0.74649 0.57343 0.0
H357 H 0.57698 0.80947 0.55473 0.0
H358 H 0.4491 0.65656 0.557 0.0
H359 H 0.45039 0.60145 0.5476 0.0
C360 C 0.89694 0.60051 0.87769 0.0
C361 C 0.83024 0.55651 0.85176 0.0
C362 C 0.88186 0.50948 0.8348 0.0
C363 C 0.95018 0.55568 0.85857 0.0
N364 N 1.02124 0.65126 0.89821 0.0
N365 N 0.77136 0.47388 0.7997 0.0
C366 C 0.95635 0.60256 0.87843 0.0
C367 C 0.82673 0.51248 0.82899 0.0
N368 N 0.90301 0.6395 0.90421 0.0
N369 N 0.86757 0.4603 0.81828 0.0
H370 H 0.73188 0.4743 0.79391 0.0
H371 H 0.76883 0.44605 0.77873 0.0
H372 H 0.9053 0.45719 0.82044 0.0
H373 H 0.81752 0.42165 0.80497 0.0
H374 H 0.9446 0.66798 0.92705 0.0
H375 H 0.86266 0.63913 0.90588 0.0
H376 H 1.03422 0.69013 0.90974 0.0
H377 H 1.06431 0.65469 0.89956 0.0
C378 C 0.2885 0.74586 0.19869 0.0
C379 C 0.26957 0.70574 0.16493 0.0
C380 C 0.37643 0.7899 0.14182 0.0
C381 C 0.39258 0.83034 0.17463 0.0
N382 N 0.34532 0.84557 0.22612 0.0
N383 N 0.28524 0.69538 0.09915 0.0
C384 C 0.3426 0.80776 0.20042 0.0
C385 C 0.31056 0.72949 0.13493 0.0
N386 N 0.25728 0.72534 0.23017 0.0
N387 N 0.42468 0.80791 0.11788 0.0
H388 H 0.2371 0.65201 0.09272 0.0
H389 H 0.30824 0.71229 0.07519 0.0
H390 H 0.47414 0.85029 0.12264 0.0
H391 H 0.41785 0.7793 0.09524 0.0
H392 H 0.27395 0.75279 0.25662 0.0
H393 H 0.22049 0.68087 0.23122 0.0
H394 H 0.30688 0.83145 0.24335 0.0
H395 H 0.38112 0.89062 0.22676 0.0
C396 C 0.6272 0.35815 0.52037 0.0
C397 C 0.56195 0.30246 0.50211 0.0
C398 C 0.50092 0.33584 0.51621 0.0
C399 C 0.56656 0.3926 0.53266 0.0
N400 N 0.69338 0.46131 0.54387 0.0
N401 N 0.4405 0.24278 0.47397 0.0
C402 C 0.63022 0.40489 0.53267 0.0
C403 C 0.50004 0.29285 0.4972 0.0
N404 N 0.68546 0.36568 0.52736 0.0
N405 N 0.4391 0.32176 0.52063 0.0
H406 H 0.43809 0.21036 0.4594 0.0
H407 H 0.39599 0.23614 0.46615 0.0
H408 H 0.43676 0.3512 0.53529 0.0
H409 H 0.38998 0.27921 0.51294 0.0
H410 H 0.73248 0.40318 0.54437 0.0
H411 H 0.68539 0.33267 0.5183 0.0
H412 H 0.74166 0.47404 0.54104 0.0
H413 H 0.69716 0.49641 0.55298 0.0
C414 C 0.46919 0.60413 0.8629 0.0
C415 C 0.45703 0.55132 0.85249 0.0
C416 C 0.32501 0.49951 0.8467 0.0
C417 C 0.33738 0.55255 0.85359 0.0
N418 N 0.42939 0.65716 0.86262 0.0
N419 N 0.36414 0.44746 0.82867 0.0
C420 C 0.41198 0.60488 0.86004 0.0
C421 C 0.38212 0.49893 0.84336 0.0
N422 N 0.53647 0.65496 0.87773 0.0
N423 N 0.25685 0.44798 0.84336 0.0
H424 H 0.40149 0.44466 0.82453 0.0
H425 H 0.31296 0.4088 0.81699 0.0
H426 H 0.2156 0.44668 0.84491 0.0
H427 H 0.24198 0.40766 0.8428 0.0
H428 H 0.54978 0.69375 0.88998 0.0
H429 H 0.57811 0.65682 0.88162 0.0
H430 H 0.47995 0.69637 0.8617 0.0
H431 H 0.39177 0.66037 0.86313 0.0
C432 C 0.86349 0.30798 0.18159 0.0
C433 C 0.88861 0.32843 0.14694 0.0
C434 C 0.79264 0.22568 0.11187 0.0
C435 C 0.76036 0.20769 0.14533 0.0
N436 N 0.76357 0.23665 0.21201 0.0
N437 N 0.86713 0.30545 0.0777 0.0
C438 C 0.79568 0.2502 0.18026 0.0
C439 C 0.85078 0.28668 0.11173 0.0
N440 N 0.90589 0.3427 0.21604 0.0
N441 N 0.76787 0.18407 0.07998 0.0
H442 H 0.90582 0.34958 0.07629 0.0
H443 H 0.8372 0.27813 0.0511 0.0
H444 H 0.72688 0.13934 0.07938 0.0
H445 H 0.7928 0.19342 0.0559 0.0
H446 H 0.89351 0.32872 0.24214 0.0
H447 H 0.95724 0.38265 0.21788 0.0
H448 H 0.7829 0.26771 0.2369 0.0
H449 H 0.71478 0.19546 0.21245 0.0
C450 C 1.06087 0.56369 0.03437 0.0
C451 C 1.03602 0.51032 0.04372 0.0
C452 C 1.02292 0.4731 0.97563 0.0
C453 C 1.0518 0.52773 0.96667 0.0
N454 N 0.11202 0.62913 -0.01119 0.0
N455 N 1.00943 0.42015 0.02494 0.0
C456 C 1.07475 0.57424 -0.00352 0.0
C457 C 1.02177 0.46674 0.01482 0.0
N458 N 1.0701 0.60404 0.06151 0.0
N459 N 0.99426 0.42656 0.94665 0.0
H460 H 1.0098 0.41497 0.05337 0.0
H461 H 1.00573 0.38996 0.0058 0.0
H462 H 0.99412 0.42941 0.91768 0.0
H463 H 0.96556 0.38404 0.95113 0.0
H464 H 0.08021 0.64055 0.05534 0.0
H465 H 1.06235 0.59891 0.08979 0.0
H466 H 0.13686 0.66628 0.00999 0.0
H467 H 0.12385 0.63865 0.96158 0.0
C468 C 0.62492 0.98174 0.34074 0.0
C469 C 0.62458 0.02297 0.36203 0.0
C470 C 0.57552 0.02605 0.30297 0.0
C471 C 0.58397 0.9906 0.28105 0.0
N472 N 0.62757 0.9423 0.27854 0.0
N473 N 0.61469 0.09425 0.3618 0.0
C474 C 0.61188 0.97061 0.29981 0.0
C475 C 0.60417 0.04795 0.34268 0.0
N476 N 0.6352 0.95164 0.35956 0.0
N477 N 0.53743 0.03683 0.28641 0.0
H478 H 0.638 0.11258 0.3905 0.0
H479 H 0.60741 0.11807 0.34822 0.0
H480 H 0.51314 0.02 0.25772 0.0
H481 H 0.52382 0.0574 0.30217 0.0
H482 H 0.62891 0.91688 0.34556 0.0
H483 H 0.64339 0.95757 0.38945 0.0
H484 H 0.6545 0.93187 0.29058 0.0
H485 H 0.6194 0.93402 0.24855 0.0
C486 C 0.54856 0.45041 0.71162 0.0
C487 C 0.57978 0.50492 0.73479 0.0
C488 C 0.60775 0.54828 0.67738 0.0
C489 C 0.5693 0.49222 0.65375 0.0
N490 N 0.48299 0.38701 0.6496 0.0
N491 N 0.61507 0.59875 0.73726 0.0
C492 C 0.53364 0.44225 0.67119 0.0
C493 C 0.60258 0.55204 0.71705 0.0
N494 N 0.53457 0.40679 0.72783 0.0
N495 N 0.65102 0.59807 0.66264 0.0
H496 H 0.6046 0.59969 0.76522 0.0
H497 H 0.62689 0.6323 0.72465 0.0
H498 H 0.65967 0.59769 0.63424 0.0
H499 H 0.68396 0.63988 0.67985 0.0
H500 H 0.51745 0.3682 0.71152 0.0
H501 H 0.54723 0.41176 0.75722 0.0
H502 H 0.45186 0.3497 0.66174 0.0
H503 H 0.46617 0.379 0.62032 0.0
C504 C 0.69939 0.1041 0.60866 0.0
C505 C 0.63196 0.05931 0.58554 0.0
C506 C 0.5782 0.02859 0.64381 0.0
C507 C 0.64369 0.07799 0.66675 0.0
N508 N 0.76678 0.16413 0.67197 0.0
N509 N 0.51568 0.96429 0.58154 0.0
C510 C 0.70454 0.11584 0.64945 0.0
C511 C 0.57379 0.01714 0.60331 0.0
N512 N 0.75866 0.13233 0.59219 0.0
N513 N 0.51917 0.99424 0.66053 0.0
H514 H 0.51258 0.95272 0.55224 0.0
H515 H 0.47442 0.92927 0.593 0.0
H516 H 0.52012 1.00032 0.69016 0.0
H517 H 0.46836 0.9624 0.64497 0.0
H518 H 0.80956 0.16238 0.60769 0.0
H519 H 0.7573 0.11985 0.56346 0.0
H520 H 0.8108 0.19769 0.66107 0.0
H521 H 0.77318 0.17262 0.70193 0.0
C522 C 0.75416 0.66281 0.97435 0.0
C523 C 0.68199 0.61502 0.95854 0.0
C524 C 0.64891 0.61426 0.02228 0.0
C525 C 0.71963 0.66665 0.03687 0.0
N526 N 0.84021 0.74188 0.02817 0.0
N527 N 0.56034 0.54383 0.96616 0.0
C528 C 0.77268 0.69079 0.0134 0.0
C529 C 0.6293 0.58981 0.98227 0.0
N530 N 0.80485 0.68147 0.95191 0.0
N531 N 0.6009 0.58805 0.04679 0.0
H532 H 0.54514 0.52277 0.93749 0.0
H533 H 0.51804 0.52764 0.98054 0.0
H534 H 0.61333 0.60571 0.07607 0.0
H535 H 0.55011 0.54702 0.03893 0.0
H536 H 0.85859 0.71168 0.96244 0.0
H537 H 0.79328 0.66355 0.92283 0.0
H538 H 0.87974 0.76605 0.01167 0.0
H539 H 0.85638 0.76225 0.05709 0.0
C540 C 0.18489 0.5431 0.27989 0.0
C541 C 0.11979 0.52157 0.26095 0.0
C542 C 0.09669 0.54603 0.32229 0.0
C543 C 0.15775 0.56149 0.34175 0.0
N544 N 0.25328 0.56461 0.33998 0.0
N545 N 1.00708 0.49116 0.26577 0.0
C546 C 0.19987 0.55693 0.3208 0.0
C547 C 1.07374 0.5197 0.28265 0.0
N548 N 0.23399 0.55307 0.25895 0.0
N549 N 1.06219 0.55882 0.34116 0.0
H550 H 0.98822 0.47065 0.23699 0.0
H551 H 0.96868 0.48295 0.28107 0.0
H552 H 0.07807 0.57941 0.37 0.0
H553 H 1.02203 0.55429 0.32725 0.0
H554 H 0.28511 0.57459 0.27128 0.0
H555 H 0.22615 0.54503 0.22901 0.0
H556 H 0.28108 0.55589 0.32638 0.0
H557 H 0.26551 0.57452 0.36991 0.0
loop_
_geom_bond_atom_site_label_1
_geom_bond_atom_site_label_2
_geom_bond_distance
_geom_bond_site_symmetry_2
_ccdc_geom_bond_type
Gd0 C3 2.818 . S
Gd0 O20 2.377 . S
Gd0 O22 2.448 . S
Gd0 O23 2.506 . S
Gd0 O24 2.435 . S
Gd0 O25 2.717 . S
Gd0 O27 2.395 1_455 S
Gd0 O31 2.327 . S
Gd1 C12 2.818 1_455 S
Gd1 O21 2.395 . S
Gd1 O25 2.327 . S
Gd1 O26 2.377 1_455 S
Gd1 O28 2.448 1_455 S
Gd1 O29 2.506 1_455 S
Gd1 O30 2.435 . S
Gd1 O31 2.717 . S
C2 O20 1.240 . S
C2 O21 1.240 . S
C3 Gd0 2.818 . S
C3 C4 1.510 . S
C3 O22 1.249 . S
C3 O23 1.252 . S
C4 C3 1.510 . S
C4 C5 1.404 . S
C4 C6 1.352 . S
C5 C4 1.404 . S
C5 C9 1.389 . S
C5 H32 0.930 . S
C6 C4 1.352 . S
C6 C8 1.374 . S
C6 H33 0.931 . S
C7 C8 1.359 . S
C7 C9 1.364 . S
C8 C6 1.374 . S
C8 C7 1.359 . S
C8 H34 0.931 . S
C9 C5 1.389 . S
C9 C7 1.364 . S
C9 H35 0.931 . S
C10 O24 1.256 . S
C10 O25 1.257 . S
C11 O26 1.240 . S
C11 O27 1.240 . S
C12 Gd1 2.818 1_655 S
C12 C13 1.510 . S
C12 O28 1.249 . S
C12 O29 1.252 . S
C13 C12 1.510 . S
C13 C14 1.404 . S
C13 C15 1.352 . S
C14 C13 1.404 . S
C14 C18 1.389 . S
C14 H36 0.930 . S
C15 C13 1.352 . S
C15 C17 1.374 . S
C15 H37 0.931 . S
C16 C17 1.359 . S
C16 C18 1.364 . S
C17 C15 1.374 . S
C17 C16 1.359 . S
C17 H38 0.931 . S
C18 C14 1.389 . S
C18 C16 1.364 . S
C18 H39 0.931 . S
C19 O30 1.256 . S
C19 O31 1.257 . S
O20 Gd0 2.377 . S
O20 C2 1.240 . S
O21 Gd1 2.395 . S
O21 C2 1.240 . S
O22 Gd0 2.448 . S
O22 C3 1.249 . S
O23 Gd0 2.506 . S
O23 C3 1.252 . S
O24 Gd0 2.435 . S
O24 C10 1.256 . S
O25 Gd0 2.717 . S
O25 Gd1 2.327 . S
O25 C10 1.257 . S
O26 Gd1 2.377 1_655 S
O26 C11 1.240 . S
O27 Gd0 2.395 1_655 S
O27 C11 1.240 . S
O28 Gd1 2.448 1_655 S
O28 C12 1.249 . S
O29 Gd1 2.506 1_655 S
O29 C12 1.252 . S
O30 Gd1 2.435 . S
O30 C19 1.256 . S
O31 Gd0 2.327 . S
O31 Gd1 2.717 . S
O31 C19 1.257 . S
H32 C5 0.930 . S
H33 C6 0.931 . S
H34 C8 0.931 . S
H35 C9 0.931 . S
H36 C14 0.930 . S
H37 C15 0.931 . S
H38 C17 0.931 . S
H39 C18 0.931 . S
Gd40 C43 2.818 1_545 S
Gd40 O60 2.377 1_545 S
Gd40 O62 2.448 1_545 S
Gd40 O63 2.506 1_545 S
Gd40 O64 2.435 . S
Gd40 O65 2.717 . S
Gd40 O67 2.395 . S
Gd40 O71 2.327 . S
Gd41 C52 2.818 . S
Gd41 O61 2.395 1_545 S
Gd41 O65 2.327 . S
Gd41 O66 2.377 . S
Gd41 O68 2.448 . S
Gd41 O69 2.506 . S
Gd41 O70 2.435 . S
Gd41 O71 2.717 . S
C42 O60 1.240 . S
C42 O61 1.240 . S
C43 Gd40 2.818 1_565 S
C43 C44 1.510 . S
C43 O62 1.249 . S
C43 O63 1.252 . S
C44 C43 1.510 . S
C44 C45 1.404 . S
C44 C46 1.352 . S
C45 C44 1.404 . S
C45 C49 1.389 . S
C45 H72 0.930 . S
C46 C44 1.352 . S
C46 C48 1.374 . S
C46 H73 0.931 . S
C47 C48 1.359 . S
C47 C49 1.364 . S
C48 C46 1.374 . S
C48 C47 1.359 . S
C48 H74 0.931 . S
C49 C45 1.389 . S
C49 C47 1.364 . S
C49 H75 0.931 . S
C50 O64 1.256 . S
C50 O65 1.257 . S
C51 O66 1.240 . S
C51 O67 1.240 . S
C52 Gd41 2.818 . S
C52 C53 1.510 . S
C52 O68 1.249 . S
C52 O69 1.252 . S
C53 C52 1.510 . S
C53 C54 1.404 . S
C53 C55 1.352 . S
C54 C53 1.404 . S
C54 C58 1.389 . S
C54 H76 0.930 . S
C55 C53 1.352 . S
C55 C57 1.374 . S
C55 H77 0.931 . S
C56 C57 1.359 . S
C56 C58 1.364 . S
C57 C55 1.374 . S
C57 C56 1.359 . S
C57 H78 0.931 . S
C58 C54 1.389 . S
C58 C56 1.364 . S
C58 H79 0.931 . S
C59 O70 1.256 . S
C59 O71 1.257 . S
O60 Gd40 2.377 1_565 S
O60 C42 1.240 . S
O61 Gd41 2.395 1_565 S
O61 C42 1.240 . S
O62 Gd40 2.448 1_565 S
O62 C43 1.249 . S
O63 Gd40 2.506 1_565 S
O63 C43 1.252 . S
O64 Gd40 2.435 . S
O64 C50 1.256 . S
O65 Gd40 2.717 . S
O65 Gd41 2.327 . S
O65 C50 1.257 . S
O66 Gd41 2.377 . S
O66 C51 1.240 . S
O67 Gd40 2.395 . S
O67 C51 1.240 . S
O68 Gd41 2.448 . S
O68 C52 1.249 . S
O69 Gd41 2.506 . S
O69 C52 1.252 . S
O70 Gd41 2.435 . S
O70 C59 1.256 . S
O71 Gd40 2.327 . S
O71 Gd41 2.717 . S
O71 C59 1.257 . S
H72 C45 0.930 . S
H73 C46 0.931 . S
H74 C48 0.931 . S
H75 C49 0.931 . S
H76 C54 0.930 . S
H77 C55 0.931 . S
H78 C57 0.931 . S
H79 C58 0.931 . S
Gd80 C83 2.818 . S
Gd80 O100 2.377 . S
Gd80 O102 2.448 . S
Gd80 O103 2.506 . S
Gd80 O104 2.435 . S
Gd80 O105 2.717 . S
Gd80 O107 2.395 . S
Gd80 O111 2.327 . S
Gd81 C92 2.818 . S
Gd81 O101 2.395 . S
Gd81 O105 2.327 . S
Gd81 O106 2.377 . S
Gd81 O108 2.448 . S
Gd81 O109 2.506 . S
Gd81 O110 2.435 . S
Gd81 O111 2.717 . S
C82 O100 1.240 . S
C82 O101 1.240 . S
C83 Gd80 2.818 . S
C83 C84 1.510 . S
C83 O102 1.249 . S
C83 O103 1.252 . S
C84 C83 1.510 . S
C84 C85 1.404 . S
C84 C86 1.352 . S
C85 C84 1.404 . S
C85 C89 1.389 . S
C85 H112 0.930 . S
C86 C84 1.352 . S
C86 C88 1.374 . S
C86 H113 0.931 . S
C87 C88 1.359 . S
C87 C89 1.364 . S
C88 C86 1.374 . S
C88 C87 1.359 . S
C88 H114 0.931 . S
C89 C85 1.389 . S
C89 C87 1.364 . S
C89 H115 0.931 . S
C90 O104 1.256 . S
C90 O105 1.257 . S
C91 O106 1.240 . S
C91 O107 1.240 . S
C92 Gd81 2.818 . S
C92 C93 1.510 . S
C92 O108 1.249 . S
C92 O109 1.252 . S
C93 C92 1.510 . S
C93 C94 1.404 . S
C93 C95 1.352 . S
C94 C93 1.404 . S
C94 C98 1.389 . S
C94 H116 0.930 . S
C95 C93 1.352 . S
C95 C97 1.374 . S
C95 H117 0.931 . S
C96 C97 1.359 . S
C96 C98 1.364 . S
C97 C95 1.374 . S
C97 C96 1.359 . S
C97 H118 0.931 . S
C98 C94 1.389 . S
C98 C96 1.364 . S
C98 H119 0.931 . S
C99 O110 1.256 . S
C99 O111 1.257 . S
O100 Gd80 2.377 . S
O100 C82 1.240 . S
O101 Gd81 2.395 . S
O101 C82 1.240 . S
O102 Gd80 2.448 . S
O102 C83 1.249 . S
O103 Gd80 2.506 . S
O103 C83 1.252 . S
O104 Gd80 2.435 . S
O104 C90 1.256 . S
O105 Gd80 2.717 . S
O105 Gd81 2.327 . S
O105 C90 1.257 . S
O106 Gd81 2.377 . S
O106 C91 1.240 . S
O107 Gd80 2.395 . S
O107 C91 1.240 . S
O108 Gd81 2.448 . S
O108 C92 1.249 . S
O109 Gd81 2.506 . S
O109 C92 1.252 . S
O110 Gd81 2.435 . S
O110 C99 1.256 . S
O111 Gd80 2.327 . S
O111 Gd81 2.717 . S
O111 C99 1.257 . S
H112 C85 0.930 . S
H113 C86 0.931 . S
H114 C88 0.931 . S
H115 C89 0.931 . S
H116 C94 0.930 . S
H117 C95 0.931 . S
H118 C97 0.931 . S
H119 C98 0.931 . S
H120 C121 0.949 . S
C121 H120 0.949 . S
C121 C122 1.395 . S
C121 C123 1.391 . S
C122 C121 1.395 . S
C122 C125 1.390 1_545 S
C123 C121 1.391 . S
C123 C127 1.387 . S
C123 C128 1.491 . S
H124 C125 0.950 . S
C125 C122 1.390 1_565 S
C125 H124 0.950 . S
C125 C126 1.378 . S
C126 C125 1.378 . S
C126 C127 1.409 1_565 S
C127 C123 1.387 . S
C127 C126 1.409 1_545 S
C127 H129 0.951 1_545 S
C128 C123 1.491 . S
C128 C130 1.382 . S
C128 C132 1.404 . S
H129 C127 0.951 1_565 S
C130 C128 1.382 . S
C130 C131 1.390 . S
C130 H135 0.949 . S
C131 C130 1.390 . S
C131 C136 1.399 . S
C132 C128 1.404 . S
C132 H133 0.950 . S
C132 C134 1.375 . S
H133 C132 0.950 . S
C134 C132 1.375 . S
C134 C136 1.382 . S
C134 H138 0.950 . S
H135 C130 0.949 . S
C136 C131 1.399 . S
C136 C134 1.382 . S
C136 H137 0.952 . S
H137 C136 0.952 . S
H138 C134 0.950 . S
H139 C140 0.949 . S
C140 H139 0.949 . S
C140 C141 1.395 . S
C140 C142 1.391 . S
C141 C140 1.395 . S
C141 C144 1.390 . S
C142 C140 1.391 . S
C142 C146 1.387 . S
C142 C147 1.491 . S
H143 C144 0.950 . S
C144 C141 1.390 . S
C144 H143 0.950 . S
C144 C145 1.378 . S
C145 C144 1.378 . S
C145 C146 1.409 . S
C146 C142 1.387 . S
C146 C145 1.409 . S
C146 H148 0.951 . S
C147 C142 1.491 . S
C147 C149 1.382 . S
C147 C151 1.404 . S
H148 C146 0.951 . S
C149 C147 1.382 . S
C149 C150 1.390 . S
C149 H154 0.949 . S
C150 C149 1.390 . S
C150 C155 1.399 . S
C151 C147 1.404 . S
C151 H152 0.950 . S
C151 C153 1.375 . S
H152 C151 0.950 . S
C153 C151 1.375 . S
C153 C155 1.382 . S
C153 H157 0.950 . S
H154 C149 0.949 . S
C155 C150 1.399 . S
C155 C153 1.382 . S
C155 H156 0.952 . S
H156 C155 0.952 . S
H157 C153 0.950 . S
H158 C159 0.949 . S
C159 H158 0.949 . S
C159 C160 1.395 . S
C159 C161 1.391 . S
C160 C159 1.395 . S
C160 C163 1.390 . S
C161 C159 1.391 . S
C161 C165 1.387 . S
C161 C166 1.491 . S
H162 C163 0.950 1_655 S
C163 C160 1.390 . S
C163 H162 0.950 1_455 S
C163 C164 1.378 . S
C164 C163 1.378 . S
C164 C165 1.413 . S
C165 C161 1.387 . S
C165 C164 1.413 . S
C165 H167 0.951 . S
C166 C161 1.491 . S
C166 C168 1.382 . S
C166 C170 1.404 . S
H167 C165 0.951 . S
C168 C166 1.382 . S
C168 C169 1.390 . S
C168 H173 0.949 . S
C169 C168 1.390 . S
C169 C174 1.399 . S
C170 C166 1.404 . S
C170 H171 0.950 . S
C170 C172 1.375 . S
H171 C170 0.950 . S
C172 C170 1.375 . S
C172 C174 1.382 . S
C172 H176 0.950 . S
H173 C168 0.949 . S
C174 C169 1.399 . S
C174 C172 1.382 . S
C174 H175 0.952 . S
H175 C174 0.952 . S
H176 C172 0.950 . S
H177 C178 0.947 1_655 S
C178 H177 0.947 1_455 S
C178 C179 1.398 . S
C178 C180 1.390 . S
C179 C178 1.398 . S
C179 C182 1.390 . S
C180 C178 1.390 . S
C180 C184 1.387 . S
C180 C185 1.491 1_455 S
H181 C182 0.950 . S
C182 C179 1.390 . S
C182 H181 0.950 . S
C182 C183 1.378 . S
C183 C182 1.378 . S
C183 C184 1.409 . S
C184 C180 1.387 . S
C184 C183 1.409 . S
C184 H186 0.951 . S
C185 C180 1.491 1_655 S
C185 C187 1.382 . S
C185 C189 1.404 . S
H186 C184 0.951 . S
C187 C185 1.382 . S
C187 C188 1.390 . S
C187 H192 0.949 . S
C188 C187 1.390 . S
C188 C193 1.399 . S
C189 C185 1.404 . S
C189 H190 0.950 . S
C189 C191 1.375 . S
H190 C189 0.950 . S
C191 C189 1.375 . S
C191 C193 1.382 . S
C191 H195 0.950 . S
H192 C187 0.949 . S
C193 C188 1.399 . S
C193 C191 1.382 . S
C193 H194 0.952 . S
H194 C193 0.952 . S
H195 C191 0.950 . S
H196 C197 0.963 . S
C197 H196 0.963 . S
C197 C198 1.395 . S
C197 C199 1.391 . S
C198 C197 1.395 . S
C198 C201 1.390 . S
C199 C197 1.391 . S
C199 C203 1.387 . S
C199 C204 1.491 . S
H200 C201 0.950 . S
C201 C198 1.390 . S
C201 H200 0.950 . S
C201 C202 1.378 . S
C202 C201 1.378 . S
C202 C203 1.409 . S
C203 C199 1.387 . S
C203 C202 1.409 . S
C203 H205 0.951 . S
C204 C199 1.491 . S
C204 C206 1.382 1_545 S
C204 C208 1.404 1_545 S
H205 C203 0.951 . S
C206 C204 1.382 1_565 S
C206 C207 1.390 . S
C206 H211 0.949 . S
C207 C206 1.390 . S
C207 C212 1.399 . S
C208 C204 1.404 1_565 S
C208 H209 0.957 . S
C208 C210 1.375 . S
H209 C208 0.957 . S
C210 C208 1.375 . S
C210 C212 1.382 . S
C210 H214 0.950 . S
H211 C206 0.949 . S
C212 C207 1.399 . S
C212 C210 1.382 . S
C212 H213 0.952 . S
H213 C212 0.952 . S
H214 C210 0.950 . S
H215 C216 0.949 . S
C216 H215 0.949 . S
C216 C217 1.395 . S
C216 C218 1.391 . S
C217 C216 1.395 . S
C217 C220 1.390 . S
C218 C216 1.391 . S
C218 C222 1.387 . S
C218 C223 1.491 . S
H219 C220 0.950 . S
C220 C217 1.390 . S
C220 H219 0.950 . S
C220 C221 1.378 . S
C221 C220 1.378 . S
C221 C222 1.409 . S
C222 C218 1.387 . S
C222 C221 1.409 . S
C222 H224 0.951 . S
C223 C218 1.491 . S
C223 C225 1.382 . S
C223 C227 1.404 . S
H224 C222 0.951 . S
C225 C223 1.382 . S
C225 C226 1.390 . S
C225 H230 0.949 . S
C226 C225 1.390 . S
C226 C231 1.399 . S
C227 C223 1.404 . S
C227 H228 0.950 . S
C227 C229 1.375 . S
H228 C227 0.950 . S
C229 C227 1.375 . S
C229 C231 1.382 . S
C229 H233 0.950 . S
H230 C225 0.949 . S
C231 C226 1.399 . S
C231 C229 1.382 . S
C231 H232 0.952 . S
H232 C231 0.952 . S
H233 C229 0.950 . S
C234 C235 1.363 . S
C234 C240 1.379 . S
C234 N242 1.356 . S
C235 C234 1.363 . S
C235 C241 1.363 . S
C236 C237 1.363 . S
C236 C241 1.379 . S
C236 N243 1.356 . S
C237 C236 1.363 . S
C237 C240 1.363 . S
N238 C240 1.356 . S
N238 H250 0.984 . S
N238 H251 0.985 . S
N239 C241 1.356 . S
N239 H244 0.984 . S
N239 H245 0.985 . S
C240 C234 1.379 . S
C240 C237 1.363 . S
C240 N238 1.356 . S
C241 C235 1.363 . S
C241 C236 1.379 . S
C241 N239 1.356 . S
N242 C234 1.356 . S
N242 H248 0.984 . S
N242 H249 0.984 . S
N243 C236 1.356 . S
N243 H246 0.984 . S
N243 H247 0.985 . S
H244 N239 0.984 . S
H245 N239 0.985 . S
H246 N243 0.984 . S
H247 N243 0.985 . S
H248 N242 0.984 . S
H249 N242 0.984 . S
H250 N238 0.984 . S
H251 N238 0.985 . S
C252 C253 1.363 . S
C252 C258 1.379 . S
C252 N260 1.356 . S
C253 C252 1.363 . S
C253 C259 1.363 . S
C254 C255 1.363 . S
C254 C259 1.379 . S
C254 N261 1.356 . S
C255 C254 1.363 . S
C255 C258 1.363 . S
N256 C258 1.356 . S
N256 H268 0.984 . S
N256 H269 0.985 . S
N257 C259 1.356 . S
N257 H262 0.984 . S
N257 H263 0.985 . S
C258 C252 1.379 . S
C258 C255 1.363 . S
C258 N256 1.356 . S
C259 C253 1.363 . S
C259 C254 1.379 . S
C259 N257 1.356 . S
N260 C252 1.356 . S
N260 H266 0.984 . S
N260 H267 0.984 . S
N261 C254 1.356 . S
N261 H264 0.984 . S
N261 H265 0.985 . S
H262 N257 0.984 . S
H263 N257 0.985 . S
H264 N261 0.984 . S
H265 N261 0.985 . S
H266 N260 0.984 . S
H267 N260 0.984 . S
H268 N256 0.984 . S
H269 N256 0.985 . S
C270 C271 1.363 . S
C270 C276 1.379 . S
C270 N278 1.356 . S
C271 C270 1.363 . S
C271 C277 1.363 . S
C272 C273 1.363 . S
C272 C277 1.379 . S
C272 N279 1.356 . S
C273 C272 1.363 . S
C273 C276 1.363 . S
N274 C276 1.356 . S
N274 H286 0.984 . S
N274 H287 0.985 . S
N275 C277 1.356 . S
N275 H280 0.984 . S
N275 H281 0.985 . S
C276 C270 1.379 . S
C276 C273 1.363 . S
C276 N274 1.356 . S
C277 C271 1.363 . S
C277 C272 1.379 . S
C277 N275 1.356 . S
N278 C270 1.356 . S
N278 H284 0.984 . S
N278 H285 0.984 . S
N279 C272 1.356 . S
N279 H282 0.984 . S
N279 H283 0.985 . S
H280 N275 0.984 . S
H281 N275 0.985 . S
H282 N279 0.984 . S
H283 N279 0.985 . S
H284 N278 0.984 . S
H285 N278 0.984 . S
H286 N274 0.984 . S
H287 N274 0.985 . S
C288 C289 1.363 . S
C288 C294 1.379 . S
C288 N296 1.356 . S
C289 C288 1.363 . S
C289 C295 1.363 . S
C290 C291 1.363 . S
C290 C295 1.379 . S
C290 N297 1.356 . S
C291 C290 1.363 . S
C291 C294 1.363 . S
N292 C294 1.356 . S
N292 H304 0.984 . S
N292 H305 0.985 . S
N293 C295 1.356 . S
N293 H298 0.984 . S
N293 H299 0.985 . S
C294 C288 1.379 . S
C294 C291 1.363 . S
C294 N292 1.356 . S
C295 C289 1.363 . S
C295 C290 1.379 . S
C295 N293 1.356 . S
N296 C288 1.356 . S
N296 H302 0.984 . S
N296 H303 0.984 . S
N297 C290 1.356 . S
N297 H300 0.984 . S
N297 H301 0.985 . S
H298 N293 0.984 . S
H299 N293 0.985 . S
H300 N297 0.984 . S
H301 N297 0.985 . S
H302 N296 0.984 . S
H303 N296 0.984 . S
H304 N292 0.984 . S
H305 N292 0.985 . S
C306 C307 1.363 . S
C306 C312 1.379 . S
C306 N314 1.356 . S
C307 C306 1.363 . S
C307 C313 1.363 . S
C308 C309 1.363 . S
C308 C313 1.379 . S
C308 N315 1.356 . S
C309 C308 1.363 . S
C309 C312 1.363 . S
N310 C312 1.356 . S
N310 H322 0.984 . S
N310 H323 0.985 . S
N311 C313 1.356 . S
N311 H316 0.984 . S
N311 H317 0.985 . S
C312 C306 1.379 . S
C312 C309 1.363 . S
C312 N310 1.356 . S
C313 C307 1.363 . S
C313 C308 1.379 . S
C313 N311 1.356 . S
N314 C306 1.356 . S
N314 H320 0.984 . S
N314 H321 0.984 . S
N315 C308 1.356 . S
N315 H318 0.984 . S
N315 H319 0.985 . S
H316 N311 0.984 . S
H317 N311 0.985 . S
H318 N315 0.984 . S
H319 N315 0.985 . S
H320 N314 0.984 . S
H321 N314 0.984 . S
H322 N310 0.984 . S
H323 N310 0.985 . S
C324 C325 1.363 . S
C324 C330 1.379 . S
C324 N332 1.356 . S
C325 C324 1.363 . S
C325 C331 1.363 . S
C326 C327 1.363 . S
C326 C331 1.379 . S
C326 N333 1.356 . S
C327 C326 1.363 . S
C327 C330 1.363 . S
N328 C330 1.356 . S
N328 H340 0.984 . S
N328 H341 0.985 . S
N329 C331 1.356 . S
N329 H334 0.984 . S
N329 H335 0.985 . S
C330 C324 1.379 . S
C330 C327 1.363 . S
C330 N328 1.356 . S
C331 C325 1.363 . S
C331 C326 1.379 . S
C331 N329 1.356 . S
N332 C324 1.356 . S
N332 H338 0.984 . S
N332 H339 0.984 . S
N333 C326 1.356 . S
N333 H336 0.984 . S
N333 H337 0.985 . S
H334 N329 0.984 . S
H335 N329 0.985 . S
H336 N333 0.984 . S
H337 N333 0.985 . S
H338 N332 0.984 . S
H339 N332 0.984 . S
H340 N328 0.984 . S
H341 N328 0.985 . S
C342 C343 1.363 . S
C342 C348 1.379 . S
C342 N350 1.356 . S
C343 C342 1.363 . S
C343 C349 1.363 . S
C344 C345 1.363 . S
C344 C349 1.379 . S
C344 N351 1.356 . S
C345 C344 1.363 . S
C345 C348 1.363 . S
N346 C348 1.356 . S
N346 H358 0.984 . S
N346 H359 0.985 . S
N347 C349 1.356 . S
N347 H352 0.984 . S
N347 H353 0.985 . S
C348 C342 1.379 . S
C348 C345 1.363 . S
C348 N346 1.356 . S
C349 C343 1.363 . S
C349 C344 1.379 . S
C349 N347 1.356 . S
N350 C342 1.356 . S
N350 H356 0.984 . S
N350 H357 0.984 . S
N351 C344 1.356 . S
N351 H354 0.984 . S
N351 H355 0.985 . S
H352 N347 0.984 . S
H353 N347 0.985 . S
H354 N351 0.984 . S
H355 N351 0.985 . S
H356 N350 0.984 . S
H357 N350 0.984 . S
H358 N346 0.984 . S
H359 N346 0.985 . S
C360 C361 1.363 . S
C360 C366 1.379 . S
C360 N368 1.356 . S
C361 C360 1.363 . S
C361 C367 1.363 . S
C362 C363 1.363 . S
C362 C367 1.379 . S
C362 N369 1.356 . S
C363 C362 1.363 . S
C363 C366 1.363 . S
N364 C366 1.356 . S
N364 H376 0.984 . S
N364 H377 0.985 . S
N365 C367 1.356 . S
N365 H370 0.984 . S
N365 H371 0.985 . S
C366 C360 1.379 . S
C366 C363 1.363 . S
C366 N364 1.356 . S
C367 C361 1.363 . S
C367 C362 1.379 . S
C367 N365 1.356 . S
N368 C360 1.356 . S
N368 H374 0.984 . S
N368 H375 0.984 . S
N369 C362 1.356 . S
N369 H372 0.984 . S
N369 H373 0.985 . S
H370 N365 0.984 . S
H371 N365 0.985 . S
H372 N369 0.984 . S
H373 N369 0.985 . S
H374 N368 0.984 . S
H375 N368 0.984 . S
H376 N364 0.984 . S
H377 N364 0.985 . S
C378 C379 1.363 . S
C378 C384 1.379 . S
C378 N386 1.356 . S
C379 C378 1.363 . S
C379 C385 1.363 . S
C380 C381 1.363 . S
C380 C385 1.379 . S
C380 N387 1.356 . S
C381 C380 1.363 . S
C381 C384 1.363 . S
N382 C384 1.356 . S
N382 H394 0.984 . S
N382 H395 0.985 . S
N383 C385 1.356 . S
N383 H388 0.984 . S
N383 H389 0.985 . S
C384 C378 1.379 . S
C384 C381 1.363 . S
C384 N382 1.356 . S
C385 C379 1.363 . S
C385 C380 1.379 . S
C385 N383 1.356 . S
N386 C378 1.356 . S
N386 H392 0.984 . S
N386 H393 0.984 . S
N387 C380 1.356 . S
N387 H390 0.984 . S
N387 H391 0.985 . S
H388 N383 0.984 . S
H389 N383 0.985 . S
H390 N387 0.984 . S
H391 N387 0.985 . S
H392 N386 0.984 . S
H393 N386 0.984 . S
H394 N382 0.984 . S
H395 N382 0.985 . S
C396 C397 1.363 . S
C396 C402 1.379 . S
C396 N404 1.356 . S
C397 C396 1.363 . S
C397 C403 1.363 . S
C398 C399 1.363 . S
C398 C403 1.379 . S
C398 N405 1.356 . S
C399 C398 1.363 . S
C399 C402 1.363 . S
N400 C402 1.356 . S
N400 H412 0.984 . S
N400 H413 0.985 . S
N401 C403 1.356 . S
N401 H406 0.984 . S
N401 H407 0.985 . S
C402 C396 1.379 . S
C402 C399 1.363 . S
C402 N400 1.356 . S
C403 C397 1.363 . S
C403 C398 1.379 . S
C403 N401 1.356 . S
N404 C396 1.356 . S
N404 H410 0.984 . S
N404 H411 0.984 . S
N405 C398 1.356 . S
N405 H408 0.984 . S
N405 H409 0.985 . S
H406 N401 0.984 . S
H407 N401 0.985 . S
H408 N405 0.984 . S
H409 N405 0.985 . S
H410 N404 0.984 . S
H411 N404 0.984 . S
H412 N400 0.984 . S
H413 N400 0.985 . S
C414 C415 1.363 . S
C414 C420 1.379 . S
C414 N422 1.356 . S
C415 C414 1.363 . S
C415 C421 1.363 . S
C416 C417 1.363 . S
C416 C421 1.379 . S
C416 N423 1.356 . S
C417 C416 1.363 . S
C417 C420 1.363 . S
N418 C420 1.356 . S
N418 H430 0.984 . S
N418 H431 0.985 . S
N419 C421 1.356 . S
N419 H424 0.984 . S
N419 H425 0.985 . S
C420 C414 1.379 . S
C420 C417 1.363 . S
C420 N418 1.356 . S
C421 C415 1.363 . S
C421 C416 1.379 . S
C421 N419 1.356 . S
N422 C414 1.356 . S
N422 H428 0.984 . S
N422 H429 0.984 . S
N423 C416 1.356 . S
N423 H426 0.984 . S
N423 H427 0.985 . S
H424 N419 0.984 . S
H425 N419 0.985 . S
H426 N423 0.984 . S
H427 N423 0.985 . S
H428 N422 0.984 . S
H429 N422 0.984 . S
H430 N418 0.984 . S
H431 N418 0.985 . S
C432 C433 1.363 . S
C432 C438 1.379 . S
C432 N440 1.356 . S
C433 C432 1.363 . S
C433 C439 1.363 . S
C434 C435 1.363 . S
C434 C439 1.379 . S
C434 N441 1.356 . S
C435 C434 1.363 . S
C435 C438 1.363 . S
N436 C438 1.356 . S
N436 H448 0.984 . S
N436 H449 0.985 . S
N437 C439 1.356 . S
N437 H442 0.984 . S
N437 H443 0.985 . S
C438 C432 1.379 . S
C438 C435 1.363 . S
C438 N436 1.356 . S
C439 C433 1.363 . S
C439 C434 1.379 . S
C439 N437 1.356 . S
N440 C432 1.356 . S
N440 H446 0.984 . S
N440 H447 0.984 . S
N441 C434 1.356 . S
N441 H444 0.984 . S
N441 H445 0.985 . S
H442 N437 0.984 . S
H443 N437 0.985 . S
H444 N441 0.984 . S
H445 N441 0.985 . S
H446 N440 0.984 . S
H447 N440 0.984 . S
H448 N436 0.984 . S
H449 N436 0.985 . S
C450 C451 1.363 . S
C450 C456 1.379 1_554 S
C450 N458 1.356 . S
C451 C450 1.363 . S
C451 C457 1.363 . S
C452 C453 1.354 1_554 S
C452 C457 1.393 . S
C452 N459 1.347 1_554 S
C453 C452 1.354 1_556 S
C453 C456 1.363 . S
N454 C456 1.356 . S
N454 H466 0.984 . S
N454 H467 0.985 . S
N455 C457 1.356 . S
N455 H460 0.984 . S
N455 H461 0.985 . S
C456 C450 1.379 1_556 S
C456 C453 1.363 . S
C456 N454 1.356 . S
C457 C451 1.363 . S
C457 C452 1.393 . S
C457 N455 1.356 . S
N458 C450 1.356 . S
N458 H464 0.984 . S
N458 H465 0.984 . S
N459 C452 1.347 1_556 S
N459 H462 0.984 . S
N459 H463 0.985 . S
H460 N455 0.984 . S
H461 N455 0.985 . S
H462 N459 0.984 . S
H463 N459 0.985 . S
H464 N458 0.984 . S
H465 N458 0.984 . S
H466 N454 0.984 . S
H467 N454 0.985 . S
C468 C469 1.363 . S
C468 C474 1.379 . S
C468 N476 1.356 1_545 S
C469 C468 1.363 . S
C469 C475 1.363 . S
C470 C471 1.363 . S
C470 C475 1.379 . S
C470 N477 1.356 . S
C471 C470 1.363 . S
C471 C474 1.363 . S
N472 C474 1.356 1_565 S
N472 H484 0.984 . S
N472 H485 0.985 . S
N473 C475 1.356 . S
N473 H478 0.984 . S
N473 H479 0.985 . S
C474 C468 1.379 . S
C474 C471 1.363 . S
C474 N472 1.356 1_545 S
C475 C469 1.363 . S
C475 C470 1.379 . S
C475 N473 1.356 . S
N476 C468 1.356 1_565 S
N476 H482 0.984 . S
N476 H483 0.984 . S
N477 C470 1.356 . S
N477 H480 0.984 . S
N477 H481 0.985 . S
H478 N473 0.984 . S
H479 N473 0.985 . S
H480 N477 0.984 . S
H481 N477 0.985 . S
H482 N476 0.984 . S
H483 N476 0.984 . S
H484 N472 0.984 . S
H485 N472 0.985 . S
C486 C487 1.363 . S
C486 C492 1.379 . S
C486 N494 1.356 . S
C487 C486 1.363 . S
C487 C493 1.363 . S
C488 C489 1.363 . S
C488 C493 1.379 . S
C488 N495 1.356 . S
C489 C488 1.363 . S
C489 C492 1.363 . S
N490 C492 1.356 . S
N490 H502 0.984 . S
N490 H503 0.985 . S
N491 C493 1.356 . S
N491 H496 0.984 . S
N491 H497 0.985 . S
C492 C486 1.379 . S
C492 C489 1.363 . S
C492 N490 1.356 . S
C493 C487 1.363 . S
C493 C488 1.379 . S
C493 N491 1.356 . S
N494 C486 1.356 . S
N494 H500 0.984 . S
N494 H501 0.984 . S
N495 C488 1.356 . S
N495 H498 0.984 . S
N495 H499 0.985 . S
H496 N491 0.984 . S
H497 N491 0.985 . S
H498 N495 0.984 . S
H499 N495 0.985 . S
H500 N494 0.984 . S
H501 N494 0.984 . S
H502 N490 0.984 . S
H503 N490 0.985 . S
C504 C505 1.363 . S
C504 C510 1.379 . S
C504 N512 1.356 . S
C505 C504 1.363 . S
C505 C511 1.363 . S
C506 C507 1.363 . S
C506 C511 1.379 . S
C506 N513 1.356 1_545 S
C507 C506 1.363 . S
C507 C510 1.363 . S
N508 C510 1.356 . S
N508 H520 0.984 . S
N508 H521 0.985 . S
N509 C511 1.356 1_565 S
N509 H514 0.984 . S
N509 H515 0.985 . S
C510 C504 1.379 . S
C510 C507 1.363 . S
C510 N508 1.356 . S
C511 C505 1.363 . S
C511 C506 1.379 . S
C511 N509 1.356 1_545 S
N512 C504 1.356 . S
N512 H518 0.984 . S
N512 H519 0.984 . S
N513 C506 1.356 1_565 S
N513 H516 0.984 . S
N513 H517 0.985 . S
H514 N509 0.984 . S
H515 N509 0.985 . S
H516 N513 0.984 . S
H517 N513 0.985 . S
H518 N512 0.984 . S
H519 N512 0.984 . S
H520 N508 0.984 . S
H521 N508 0.985 . S
C522 C523 1.363 . S
C522 C528 1.379 1_556 S
C522 N530 1.356 . S
C523 C522 1.363 . S
C523 C529 1.363 . S
C524 C525 1.363 1_556 S
C524 C529 1.379 . S
C524 N531 1.356 . S
C525 C524 1.363 1_554 S
C525 C528 1.363 . S
N526 C528 1.356 . S
N526 H538 0.984 . S
N526 H539 0.985 . S
N527 C529 1.356 . S
N527 H532 0.984 . S
N527 H533 0.985 . S
C528 C522 1.379 1_554 S
C528 C525 1.363 . S
C528 N526 1.356 . S
C529 C523 1.363 . S
C529 C524 1.379 . S
C529 N527 1.356 . S
N530 C522 1.356 . S
N530 H536 0.984 . S
N530 H537 0.984 . S
N531 C524 1.356 . S
N531 H534 0.984 1_556 S
N531 H535 0.985 . S
H532 N527 0.984 . S
H533 N527 0.985 . S
H534 N531 0.984 1_554 S
H535 N531 0.985 . S
H536 N530 0.984 . S
H537 N530 0.984 . S
H538 N526 0.984 . S
H539 N526 0.985 . S
C540 C541 1.363 . S
C540 C546 1.379 . S
C540 N548 1.356 . S
C541 C540 1.363 . S
C541 C547 1.363 1_455 S
C542 C543 1.363 1_655 S
C542 C547 1.379 . S
C542 N549 1.356 . S
C543 C542 1.363 1_455 S
C543 C546 1.363 . S
N544 C546 1.356 . S
N544 H556 0.984 . S
N544 H557 0.985 . S
N545 C547 1.356 . S
N545 H550 0.984 . S
N545 H551 0.985 . S
C546 C540 1.379 . S
C546 C543 1.363 . S
C546 N544 1.356 . S
C547 C541 1.363 1_655 S
C547 C542 1.379 . S
C547 N545 1.356 . S
N548 C540 1.356 . S
N548 H554 0.984 . S
N548 H555 0.984 . S
N549 C542 1.356 . S
N549 H552 0.984 . S
N549 H553 0.985 . S
H550 N545 0.984 . S
H551 N545 0.985 . S
H552 N549 0.984 . S
H553 N549 0.985 . S
H554 N548 0.984 . S
H555 N548 0.984 . S
H556 N544 0.984 . S
H557 N544 0.985 . S
C235 C7 1.155 . S
C237 C226 1.031 . S
C253 C51 2.001 . S
C255 C188 1.944 . S
C271 C87 1.355 . S
C273 C207 1.310 . S
C289 C16 0.587 . S
C291 C221 0.469 . S
C309 C183 1.895 . S
C307 C42 1.947 . S
C327 C202 1.193 . S
C325 C96 1.201 . S
C343 C47 1.370 . S
C345 C150 1.267 . S
C361 C91 3.111 . S
C363 C164 3.062 1_655 S
C379 C2 1.977 . S
C381 C126 1.953 . S
C399 C145 1.185 . S
C397 C56 1.181 . S
C417 C169 3.058 . S
C415 C82 3.120 . S
C433 C11 2.018 . S
C435 C131 1.967 . S
C453 C160 1.742 . S
C451 C19 1.718 . S
C469 C50 1.443 . S
C471 C122 1.510 . S
C487 C99 1.540 . S
C489 C141 1.554 . S
C507 C198 1.530 . S
C505 C59 1.545 . S
C525 C217 1.313 . S
C523 C90 1.321 . S
C541 C10 1.416 . S
C543 C179 1.455 . S
