# Generated by pormake.
# Topology rtl, (3,6)-cn, num edge types: 1
# Building blocks:
#     Node 0, Type 0, BuildingBlock: BETDIP_clean_linker_0, # of connection points: 3
#     Node 1, Type 0, BuildingBlock: BETDIP_clean_linker_0, # of connection points: 3
#     Node 2, Type 0, BuildingBlock: BETDIP_clean_linker_0, # of connection points: 3
#     Node 3, Type 0, BuildingBlock: BETDIP_clean_linker_0, # of connection points: 3
#     Node 4, Type 1, BuildingBlock: KUMBOL_clean_sbu_1, # of connection points: 6
#     Node 5, Type 1, BuildingBlock: KUMBOL_clean_sbu_1, # of connection points: 6
#     Edge 6, Type (0, 1), BuildingBlock: MIFKUJ_clean_linker_0, # of connection points: 2
#     Edge 7, Type (0, 1), BuildingBlock: MIFKUJ_clean_linker_0, # of connection points: 2
#     Edge 8, Type (0, 1), BuildingBlock: MIFKUJ_clean_linker_0, # of connection points: 2
#     Edge 9, Type (0, 1), BuildingBlock: MIFKUJ_clean_linker_0, # of connection points: 2
#     Edge 10, Type (0, 1), BuildingBlock: MIFKUJ_clean_linker_0, # of connection points: 2
#     Edge 11, Type (0, 1), BuildingBlock: MIFKUJ_clean_linker_0, # of connection points: 2
#     Edge 12, Type (0, 1), BuildingBlock: MIFKUJ_clean_linker_0, # of connection points: 2
#     Edge 13, Type (0, 1), BuildingBlock: MIFKUJ_clean_linker_0, # of connection points: 2
#     Edge 14, Type (0, 1), BuildingBlock: MIFKUJ_clean_linker_0, # of connection points: 2
#     Edge 15, Type (0, 1), BuildingBlock: MIFKUJ_clean_linker_0, # of connection points: 2
#     Edge 16, Type (0, 1), BuildingBlock: MIFKUJ_clean_linker_0, # of connection points: 2
#     Edge 17, Type (0, 1), BuildingBlock: MIFKUJ_clean_linker_0, # of connection points: 2
# Relax obj value: 0.051
# Max RMSD: 0.207
# Mean RMSD: 0.154
data_MOF--net-rtl--node1-KUMBOL_clean_sbu_1--node2-BETDIP_clean_linker_0--edge1-MIFKUJ_clean_linker_0
_symmetry_space_group_name_H-M    P1
_symmetry_Int_Tables_number       1
_symmetry_cell_setting            triclinic
loop_
_symmetry_equiv_pos_as_xyz
'x, y, z'
_cell_length_a     45.742043
_cell_length_b     45.731116
_cell_length_c     34.33844
_cell_angle_alpha  80.863432
_cell_angle_beta   100.15634
_cell_angle_gamma 90.879968
loop_
_atom_site_label
_atom_site_type_symbol
_atom_site_fract_x
_atom_site_fract_y
_atom_site_fract_z
_atom_type_partial_charge
H0 H 0.22357 0.82714 0.96119 0.0
H1 H 0.22323 0.81085 0.08805 0.0
H2 H 0.16542 0.87761 0.01136 0.0
H3 H 0.25329 0.7732 0.08989 0.0
C4 C 0.2606 0.77349 0.06147 0.0
C5 C 0.21493 0.83215 0.98685 0.0
C6 C 0.19293 0.85419 0.9816 0.0
C7 C 0.22613 0.81637 0.02485 0.0
C8 C 0.21512 0.82289 0.0585 0.0
C9 C 0.19295 0.84494 0.05386 0.0
C10 C 0.18234 0.86056 0.0153 0.0
N11 N 0.24824 0.79419 0.02724 0.0
H12 H 0.70362 0.71624 0.68854 0.0
H13 H 0.70824 0.71292 0.56495 0.0
H14 H 0.64085 0.66486 0.6192 0.0
H15 H 0.75654 0.72138 0.58638 0.0
C16 C 0.75555 0.73838 0.60493 0.0
C17 C 0.69515 0.70834 0.66062 0.0
C18 C 0.67028 0.68966 0.65796 0.0
C19 C 0.7093 0.71677 0.62739 0.0
C20 C 0.69821 0.70632 0.59122 0.0
C21 C 0.67349 0.68778 0.58822 0.0
C22 C 0.6595 0.6798 0.62142 0.0
N23 N 0.73407 0.73619 0.63069 0.0
H24 H 0.79864 0.2107 0.97044 0.0
H25 H 0.79713 0.19253 0.09683 0.0
H26 H 0.85648 0.14349 0.04688 0.0
H27 H 0.74523 0.2032 0.06935 0.0
C28 C 0.74903 0.22396 0.05073 0.0
C29 C 0.80669 0.19791 0.99964 0.0
C30 C 0.82938 0.17646 0.00434 0.0
C31 C 0.79427 0.20313 0.03259 0.0
C32 C 0.80548 0.18752 0.07099 0.0
C33 C 0.8286 0.16659 0.07641 0.0
C34 C 0.83969 0.16069 0.04283 0.0
N35 N 0.77161 0.22521 0.02681 0.0
H36 H 0.32216 0.29433 0.3856 0.0
H37 H 0.31707 0.30037 0.50798 0.0
H38 H 0.38188 0.3508 0.45003 0.0
H39 H 0.30902 0.24922 0.50717 0.0
C40 C 0.29163 0.25133 0.4808 0.0
C41 C 0.3301 0.30352 0.4127 0.0
C42 C 0.35354 0.32388 0.41372 0.0
C43 C 0.31774 0.29394 0.4472 0.0
C44 C 0.32773 0.30637 0.48214 0.0
C45 C 0.35066 0.32724 0.48343 0.0
C46 C 0.36373 0.33528 0.44924 0.0
N47 N 0.29522 0.27198 0.44629 0.0
C48 C 0.96194 0.09023 0.48637 0.0
C49 C 0.90955 0.08023 0.46635 0.0
C50 C 0.93765 0.07198 0.48957 0.0
C51 C 0.90646 0.10655 0.43858 0.0
C52 C 0.95858 0.11729 0.45966 0.0
C53 C 0.93094 0.12498 0.43514 0.0
N54 N 0.9884 0.08224 0.51068 0.0
C55 C 0.01112 0.10198 0.51299 0.0
C56 C 0.98284 0.13625 0.45928 0.0
C57 C 0.00902 0.12883 0.48666 0.0
Gd58 Gd 0.03059 0.97869 0.49863 0.0
Gd59 Gd 0.98952 0.03545 0.55158 0.0
N60 N 0.94153 0.04602 0.51544 0.0
C61 C 0.88542 0.06172 0.47177 0.0
C62 C 0.91795 0.02849 0.52218 0.0
C63 C 0.88959 0.03593 0.50018 0.0
H64 H 0.92117 0.00866 0.54428 0.0
H65 H 0.87098 0.02178 0.50509 0.0
H66 H 0.08649 0.01415 0.46039 0.0
H67 H 0.03066 0.09764 0.53575 0.0
H68 H 0.14121 0.01306 0.47318 0.0
H69 H 0.86347 0.0673 0.45453 0.0
H70 H 0.88517 0.11304 0.41998 0.0
H71 H 0.00929 0.91319 0.54105 0.0
H72 H 0.98118 0.15722 0.4392 0.0
H73 H 0.02741 0.14403 0.48804 0.0
H74 H 0.16641 0.92627 0.57112 0.0
H75 H 0.92807 0.1455 0.41412 0.0
H76 H 0.08656 0.86438 0.60629 0.0
H77 H 0.03199 0.86796 0.58451 0.0
N78 N 0.05039 0.93526 0.54 0.0
C79 C 0.0804 0.93315 0.54982 0.0
C80 C 0.03304 0.91187 0.55084 0.0
C81 C 0.07665 0.88432 0.58755 0.0
C82 C 0.04585 0.88623 0.57526 0.0
C83 C 0.09439 0.90771 0.57421 0.0
H84 H 0.13672 0.88662 0.60178 0.0
N85 N 0.0827 0.97848 0.50695 0.0
C86 C 0.09709 0.95564 0.53306 0.0
C87 C 0.14436 0.97476 0.51933 0.0
C88 C 0.12833 0.9532 0.54006 0.0
C89 C 0.09812 0.99815 0.48433 0.0
C90 C 0.12914 0.9971 0.49085 0.0
O91 O 0.97023 0.02095 0.49225 0.0
O92 O 0.01125 0.02168 0.46393 0.0
O93 O 0.04709 0.96037 0.45112 0.0
O94 O 0.99984 0.95883 0.45504 0.0
O95 O 0.97635 0.98763 0.56621 0.0
O96 O 0.98537 0.96469 0.51344 0.0
O97 O 0.03356 0.97004 0.56622 0.0
O98 O 0.03394 0.01628 0.58468 0.0
O99 O 0.97268 0.0256 0.6077 0.0
O100 O 0.98098 0.07075 0.58357 0.0
O101 O 0.04504 0.02696 0.49064 0.0
O102 O 0.03802 0.04527 0.54753 0.0
C103 C 0.98293 0.02699 0.46065 0.0
C104 C 0.97164 0.96647 0.54384 0.0
C105 C 0.01396 0.93741 0.40051 0.0
C106 C 0.02866 0.92018 0.34259 0.0
C107 C 0.97864 0.91167 0.35679 0.0
C108 C 0.98548 0.92598 0.3901 0.0
C109 C 0.99997 0.90873 0.33324 0.0
C110 C 0.03558 0.93439 0.37666 0.0
C111 C 0.02057 0.95253 0.43604 0.0
C112 C 0.14245 0.92855 0.56574 0.0
C113 C 0.12553 0.90591 0.58298 0.0
H114 H 0.16835 0.97347 0.52376 0.0
C115 C 0.04222 0.98822 0.59198 0.0
C116 C 0.05261 0.04458 0.51766 0.0
C117 C 0.98645 0.05899 0.65346 0.0
C118 C 0.98077 0.07536 0.71629 0.0
C119 C 0.02995 0.06497 0.70296 0.0
C120 C 0.01731 0.05772 0.66577 0.0
C121 C 0.01194 0.07393 0.72793 0.0
C122 C 0.96824 0.06753 0.6788 0.0
C123 C 0.97313 0.05308 0.61336 0.0
H124 H 0.95667 0.90278 0.34919 0.0
H125 H 0.96843 0.92795 0.40782 0.0
H126 H 0.99403 0.89713 0.30788 0.0
H127 H 0.05747 0.94351 0.38417 0.0
H128 H 0.05384 0.06416 0.7122 0.0
H129 H 0.03156 0.05164 0.64625 0.0
H130 H 0.02262 0.08038 0.75595 0.0
H131 H 0.94437 0.06815 0.66906 0.0
C132 C 0.58773 0.56899 0.0366 0.0
C133 C 0.5673 0.61892 0.01837 0.0
C134 C 0.56433 0.58875 0.03391 0.0
C135 C 0.59335 0.62857 0.00414 0.0
C136 C 0.61404 0.57871 0.02276 0.0
C137 C 0.61656 0.60851 0.00612 0.0
N138 N 0.58462 0.54015 0.05234 0.0
C139 C 0.60713 0.52006 0.05628 0.0
C140 C 0.63705 0.55812 0.02601 0.0
C141 C 0.6336 0.52869 0.04296 0.0
Gd142 Gd 0.48044 0.49393 0.9945 0.0
Gd143 Gd 0.54015 0.52809 0.07546 0.0
N144 N 0.53941 0.57885 0.04829 0.0
C145 C 0.54448 0.63876 0.01899 0.0
C146 C 0.51868 0.59872 0.05259 0.0
C147 C 0.52026 0.62866 0.03668 0.0
H148 H 0.50155 0.59207 0.06985 0.0
H149 H 0.50326 0.6441 0.03919 0.0
H150 H 0.49895 0.4239 0.03857 0.0
H151 H 0.60461 0.49741 0.06973 0.0
H152 H 0.47425 0.37979 0.06847 0.0
H153 H 0.54598 0.66212 0.00775 0.0
H154 H 0.59604 0.65165 0.99228 0.0
H155 H 0.42635 0.54391 0.95351 0.0
H156 H 0.65757 0.56473 0.01564 0.0
H157 H 0.65133 0.51267 0.04583 0.0
H158 H 0.37198 0.40977 0.05036 0.0
H159 H 0.63655 0.61635 0.99518 0.0
H160 H 0.34436 0.50779 0.98202 0.0
H161 H 0.3723 0.54921 0.95094 0.0
N162 N 0.42908 0.50076 0.98779 0.0
C163 C 0.41406 0.47736 0.004 0.0
C164 C 0.41444 0.52608 0.96814 0.0
C165 C 0.36811 0.50551 0.98371 0.0
C166 C 0.38381 0.52897 0.96619 0.0
C167 C 0.38313 0.47918 1.00254 0.0
H168 H 0.34444 0.45573 0.01892 0.0
N169 N 0.45956 0.45038 0.02332 0.0
C170 C 0.4296 0.45128 0.02163 0.0
C171 C 0.43099 0.40072 0.05573 0.0
C172 C 0.4146 0.42657 0.03837 0.0
C173 C 0.47546 0.42488 0.03871 0.0
C174 C 0.46149 0.39981 0.05558 0.0
O175 O 0.54754 0.52658 0.01181 0.0
O176 O 0.50173 0.53706 0.97423 0.0
O177 O 0.49901 0.47581 0.94899 0.0
O178 O 0.45224 0.48687 0.93929 0.0
O179 O 0.49118 0.54013 0.06804 0.0
O180 O 0.4751 0.54176 1.00058 0.0
O181 O 0.47359 0.4834 0.05893 0.0
O182 O 0.51772 0.48752 0.10286 0.0
O183 O 0.53996 0.55011 0.12723 0.0
O184 O 0.57719 0.52248 0.12515 0.0
O185 O 0.52498 0.4698 0.01412 0.0
O186 O 0.55046 0.48017 0.07549 0.0
C187 C 0.53065 0.53962 0.97885 0.0
C188 C 0.47226 0.54953 0.03493 0.0
C189 C 0.47389 0.48949 0.88207 0.0
C190 C 0.46256 0.48265 0.81173 0.0
C191 C 0.4756 0.53136 0.82972 0.0
C192 C 0.47852 0.51967 0.8703 0.0
C193 C 0.46736 0.51316 0.80061 0.0
C194 C 0.46648 0.47102 0.85294 0.0
C195 C 0.47373 0.4774 0.92423 0.0
C196 C 0.38386 0.42848 0.03745 0.0
C197 C 0.36818 0.45469 0.0196 0.0
H198 H 0.42028 0.38129 0.06902 0.0
C199 C 0.49038 0.47799 0.0946 0.0
C200 C 0.54612 0.46429 0.04612 0.0
C201 C 0.5658 0.52512 0.18878 0.0
C202 C 0.57555 0.53067 0.25936 0.0
C203 C 0.56297 0.48253 0.24003 0.0
C204 C 0.56074 0.49483 0.19969 0.0
C205 C 0.57069 0.50024 0.26979 0.0
C206 C 0.57278 0.54305 0.21867 0.0
C207 C 0.56499 0.5381 0.14657 0.0
H208 H 0.47896 0.55477 0.82075 0.0
H209 H 0.48363 0.53419 0.89245 0.0
H210 H 0.46398 0.52333 0.76946 0.0
H211 H 0.46333 0.44766 0.8627 0.0
H212 H 0.55904 0.45914 0.24828 0.0
H213 H 0.55556 0.48068 0.17705 0.0
H214 H 0.57262 0.49025 0.30094 0.0
H215 H 0.57694 0.56642 0.21034 0.0
H216 H 0.23923 0.2519 0.42615 0.0
H217 H 0.19756 0.2175 0.4303 0.0
H218 H 0.24555 0.16989 0.54107 0.0
H219 H 0.28685 0.2042 0.53726 0.0
H220 H 0.22092 0.13251 0.48906 0.0
H221 H 0.19132 0.21609 0.54373 0.0
H222 H 0.1796 0.26873 0.54237 0.0
H223 H 0.11011 0.26652 0.44096 0.0
H224 H 0.12172 0.21393 0.44137 0.0
H225 H 0.08431 0.07426 0.57425 0.0
H226 H 0.12408 0.11007 0.56596 0.0
H227 H 0.1166 0.09884 0.44241 0.0
H228 H 0.07556 0.06453 0.44962 0.0
H229 H 0.12026 0.16573 0.49962 0.0
H230 H 0.1977 0.09238 0.44064 0.0
H231 H 0.21385 0.04029 0.44745 0.0
H232 H 0.18998 0.02216 0.5643 0.0
H233 H 0.17403 0.07419 0.55835 0.0
C234 C 0.24086 0.23403 0.45126 0.0
C235 C 0.26631 0.23064 0.48137 0.0
C236 C 0.21702 0.21447 0.45369 0.0
C237 C 0.21839 0.19113 0.48608 0.0
C238 C 0.24398 0.18764 0.51578 0.0
C239 C 0.26754 0.20729 0.5136 0.0
C240 C 0.19337 0.17017 0.48948 0.0
C241 C 0.19886 0.13985 0.49104 0.0
C242 C 0.16464 0.17962 0.49252 0.0
C243 C 0.15762 0.21119 0.49229 0.0
C244 C 0.17372 0.2269 0.52091 0.0
C245 C 0.16706 0.25671 0.52036 0.0
C246 C 0.14418 0.27099 0.49152 0.0
C247 C 0.12786 0.25545 0.46323 0.0
C248 C 0.13446 0.22564 0.46363 0.0
C249 C 0.09098 0.07951 0.54522 0.0
C250 C 0.07704 0.06603 0.51279 0.0
C251 C 0.11373 0.09996 0.54058 0.0
C252 C 0.12344 0.10687 0.50368 0.0
C253 C 0.10964 0.09354 0.47125 0.0
C254 C 0.0864 0.07364 0.4756 0.0
C255 C 0.1479 0.12818 0.49899 0.0
C256 C 0.14224 0.15852 0.49707 0.0
C257 C 0.17656 0.11877 0.49585 0.0
C258 C 0.18431 0.08707 0.49879 0.0
C259 C 0.19575 0.07721 0.46768 0.0
C260 C 0.20497 0.04775 0.47145 0.0
C261 C 0.20305 0.02798 0.50634 0.0
C262 C 0.19149 0.03752 0.53731 0.0
C263 C 0.18219 0.06697 0.53365 0.0
H264 H 0.21052 0.00527 0.50934 0.0
H265 H 0.13905 0.29407 0.49115 0.0
H266 H 0.28515 0.76638 0.99582 0.0
H267 H 0.32074 0.72835 0.99112 0.0
H268 H 0.32128 0.691 0.11477 0.0
H269 H 0.28592 0.72943 0.11982 0.0
H270 H 0.37648 0.69318 0.09893 0.0
H271 H 0.28253 0.65875 0.03727 0.0
H272 H 0.23501 0.6623 0.98985 0.0
H273 H 0.28192 0.67656 0.89074 0.0
H274 H 0.32973 0.6735 0.9376 0.0
H275 H 0.44675 0.5565 0.09887 0.0
H276 H 0.41037 0.59414 0.10259 0.0
H277 H 0.40943 0.63004 0.97832 0.0
H278 H 0.44551 0.59206 0.97434 0.0
H279 H 0.35463 0.62887 0.99407 0.0
H280 H 0.4488 0.66298 0.05598 0.0
H281 H 0.49623 0.65901 0.10374 0.0
H282 H 0.44895 0.6449 0.2024 0.0
H283 H 0.40123 0.64855 0.15531 0.0
C284 C 0.29282 0.75011 0.02206 0.0
C285 C 0.28259 0.7508 0.05823 0.0
C286 C 0.31312 0.72826 0.01926 0.0
C287 C 0.32344 0.70648 0.05242 0.0
C288 C 0.31362 0.70748 0.08874 0.0
C289 C 0.29336 0.72938 0.09157 0.0
C290 C 0.34448 0.68272 0.04926 0.0
C291 C 0.37151 0.67888 0.07631 0.0
C292 C 0.33841 0.66444 0.01917 0.0
C293 C 0.30969 0.66619 0.99095 0.0
C294 C 0.2827 0.66287 0.00536 0.0
C295 C 0.25572 0.66476 0.97859 0.0
C296 C 0.25544 0.66973 0.93731 0.0
C297 C 0.28216 0.67275 0.92272 0.0
C298 C 0.30921 0.67092 0.94937 0.0
C299 C 0.43867 0.57235 0.0723 0.0
C300 C 0.44891 0.57129 0.03629 0.0
C301 C 0.41798 0.59395 0.07449 0.0
C302 C 0.40747 0.61532 0.04092 0.0
C303 C 0.41719 0.61386 0.00465 0.0
C304 C 0.43774 0.59208 1.00236 0.0
C305 C 0.3866 0.6393 0.04377 0.0
C306 C 0.35962 0.6432 0.01664 0.0
C307 C 0.39274 0.65766 0.07376 0.0
C308 C 0.42143 0.6558 0.1021 0.0
C309 C 0.44851 0.65886 0.08786 0.0
C310 C 0.47544 0.65668 0.11479 0.0
C311 C 0.47559 0.65158 0.15603 0.0
C312 C 0.4488 0.6488 0.17044 0.0
C313 C 0.4218 0.65099 0.14366 0.0
H314 H 0.49646 0.64987 0.17682 0.0
H315 H 0.23452 0.67118 0.91663 0.0
H316 H 0.79579 0.74697 0.55582 0.0
H317 H 0.83197 0.78648 0.54989 0.0
H318 H 0.80113 0.82443 0.64284 0.0
H319 H 0.7642 0.78498 0.64827 0.0
H320 H 0.81042 0.86721 0.58255 0.0
H321 H 0.86695 0.78532 0.6624 0.0
H322 H 0.88543 0.73372 0.68062 0.0
H323 H 0.92364 0.74255 0.57382 0.0
H324 H 0.90503 0.7941 0.55466 0.0
H325 H 0.93723 0.96181 0.60261 0.0
H326 H 0.90043 0.92409 0.61691 0.0
H327 H 0.91858 0.88127 0.52041 0.0
H328 H 0.95517 0.91889 0.50559 0.0
H329 H 0.9164 0.84158 0.58918 0.0
H330 H 0.85707 0.92242 0.50775 0.0
H331 H 0.83946 0.97432 0.49018 0.0
H332 H 0.80751 0.96765 0.60154 0.0
H333 H 0.82528 0.91575 0.62 0.0
C334 C 0.79675 0.7637 0.57509 0.0
C335 C 0.77733 0.76274 0.60269 0.0
C336 C 0.81753 0.78624 0.57178 0.0
C337 C 0.81972 0.80823 0.59639 0.0
C338 C 0.79999 0.80765 0.62365 0.0
C339 C 0.77898 0.78504 0.62685 0.0
C340 C 0.84264 0.83166 0.59323 0.0
C341 C 0.83367 0.8616 0.58475 0.0
C342 C 0.873 0.82447 0.59543 0.0
C343 C 0.88439 0.79352 0.60695 0.0
C344 C 0.87912 0.7762 0.64266 0.0
C345 C 0.88965 0.74697 0.65318 0.0
C346 C 0.90565 0.73485 0.62835 0.0
C347 C 0.91123 0.75197 0.593 0.0
C348 C 0.90072 0.7812 0.58233 0.0
C349 C 0.93343 0.94441 0.58434 0.0
C350 C 0.94933 0.94349 0.55293 0.0
C351 C 0.91229 0.92288 0.59254 0.0
C352 C 0.90662 0.8999 0.56962 0.0
C353 C 0.92261 0.89874 0.53856 0.0
C354 C 0.94355 0.92037 0.53011 0.0
C355 C 0.88408 0.87698 0.5779 0.0
C356 C 0.89318 0.84716 0.58737 0.0
C357 C 0.85394 0.8843 0.57675 0.0
C358 C 0.84278 0.91531 0.56544 0.0
C359 C 0.84647 0.93208 0.52861 0.0
C360 C 0.83643 0.96149 0.51847 0.0
C361 C 0.82248 0.97431 0.5448 0.0
C362 C 0.81838 0.9577 0.58122 0.0
C363 C 0.82839 0.92828 0.59152 0.0
H364 H 0.81477 0.9971 0.53692 0.0
H365 H 0.91378 0.71221 0.63655 0.0
H366 H 0.75642 0.28269 0.02107 0.0
H367 H 0.72372 0.32451 0.02181 0.0
H368 H 0.66281 0.26416 0.07471 0.0
H369 H 0.69618 0.22269 0.07585 0.0
H370 H 0.67159 0.34209 0.98894 0.0
H371 H 0.62641 0.29434 0.13424 0.0
H372 H 0.64367 0.26209 0.19876 0.0
H373 H 0.73421 0.2832 0.18936 0.0
H374 H 0.71748 0.31588 0.12509 0.0
H375 H 0.54386 0.42392 0.99445 0.0
H376 H 0.5792 0.38416 0.99636 0.0
H377 H 0.63146 0.40802 0.10382 0.0
H378 H 0.59546 0.44697 0.10325 0.0
H379 H 0.63128 0.35176 0.11136 0.0
H380 H 0.65126 0.42766 0.00875 0.0
H381 H 0.63997 0.46499 0.94775 0.0
H382 H 0.61127 0.3965 0.87788 0.0
H383 H 0.62194 0.35877 0.93861 0.0
C384 C 0.73604 0.27842 0.03283 0.0
C385 C 0.72887 0.24947 0.04861 0.0
C386 C 0.71731 0.30233 0.0332 0.0
C387 C 0.69092 0.29773 0.04901 0.0
C388 C 0.68336 0.26858 0.06342 0.0
C389 C 0.70233 0.24482 0.06377 0.0
C390 C 0.67131 0.32324 0.05052 0.0
C391 C 0.66284 0.34416 0.01576 0.0
C392 C 0.66042 0.32669 0.08576 0.0
C393 C 0.67068 0.30733 0.12465 0.0
C394 C 0.64999 0.2922 0.14603 0.0
C395 C 0.65968 0.27382 0.18254 0.0
C396 C 0.69002 0.27053 0.19808 0.0
C397 C 0.71072 0.28569 0.17722 0.0
C398 C 0.70115 0.30411 0.14073 0.0
C399 C 0.56277 0.4207 0.01867 0.0
C400 C 0.5669 0.43906 0.04841 0.0
C401 C 0.58315 0.398 0.01954 0.0
C402 C 0.60849 0.3934 0.0497 0.0
C403 C 0.61224 0.41114 0.08006 0.0
C404 C 0.59163 0.43359 0.07955 0.0
C405 C 0.63103 0.37015 0.04954 0.0
C406 C 0.64007 0.34968 0.08456 0.0
C407 C 0.64337 0.36784 0.01503 0.0
C408 C 0.63717 0.3904 0.97831 0.0
C409 C 0.64236 0.42057 0.98042 0.0
C410 C 0.63609 0.4418 0.94589 0.0
C411 C 0.62485 0.43313 0.90898 0.0
C412 C 0.61994 0.40319 0.90651 0.0
C413 C 0.62612 0.38186 0.94098 0.0
H414 H 0.62 0.4496 0.88227 0.0
H415 H 0.69748 0.25628 0.22633 0.0
H416 H 0.22197 0.8488 0.1305 0.0
H417 H 0.20069 0.86348 0.18553 0.0
H418 H 0.11419 0.87192 0.11049 0.0
H419 H 0.13483 0.85639 0.05622 0.0
H420 H 0.13096 0.92191 0.14814 0.0
H421 H 0.12908 0.81421 0.18124 0.0
H422 H 0.15257 0.76456 0.19837 0.0
H423 H 0.20775 0.79068 0.30151 0.0
H424 H 0.18484 0.84064 0.28465 0.0
H425 H 0.01935 0.92645 0.26087 0.0
H426 H 0.05381 0.91608 0.2183 0.0
H427 H 0.12345 0.89743 0.32171 0.0
H428 H 0.08832 0.90629 0.3651 0.0
H429 H 0.12473 0.8568 0.27644 0.0
H430 H 0.1233 0.96141 0.2508 0.0
H431 H 0.10183 0.01191 0.23537 0.0
H432 H 0.05713 0.99442 0.1207 0.0
H433 H 0.07796 0.94364 0.13565 0.0
C434 C 0.19834 0.85332 0.12595 0.0
C435 C 0.18022 0.85175 0.08866 0.0
C436 C 0.18626 0.86187 0.15735 0.0
C437 C 0.1559 0.86906 0.15195 0.0
C438 C 0.13774 0.86685 0.11515 0.0
C439 C 0.14966 0.85807 0.08406 0.0
C440 C 0.14266 0.87936 0.18401 0.0
C441 C 0.12947 0.90767 0.17616 0.0
C442 C 0.14188 0.86128 0.22126 0.0
C443 C 0.15552 0.83124 0.23141 0.0
C444 C 0.14641 0.80944 0.20736 0.0
C445 C 0.15958 0.78123 0.21707 0.0
C446 C 0.18171 0.7745 0.25093 0.0
C447 C 0.19065 0.79594 0.27524 0.0
C448 C 0.17757 0.8242 0.26564 0.0
C449 C 0.04196 0.92006 0.27473 0.0
C450 C 0.05093 0.91695 0.31655 0.0
C451 C 0.06184 0.91451 0.25019 0.0
C452 C 0.09146 0.90632 0.26658 0.0
C453 C 0.10076 0.9038 0.30827 0.0
C454 C 0.08072 0.90915 0.33301 0.0
C455 C 0.11195 0.89908 0.24001 0.0
C456 C 0.12661 0.87138 0.24884 0.0
C457 C 0.11452 0.91796 0.20385 0.0
C458 C 0.10209 0.94861 0.19448 0.0
C459 C 0.10875 0.96825 0.22239 0.0
C460 C 0.0967 0.99694 0.21371 0.0
C461 C 0.07809 0.00635 0.17711 0.0
C462 C 0.07155 0.9871 0.14905 0.0
C463 C 0.08352 0.95837 0.15759 0.0
H464 H 0.06877 0.02857 0.17047 0.0
H465 H 0.19187 0.75265 0.2584 0.0
H466 H 0.69733 0.66598 0.73386 0.0
H467 H 0.67339 0.64257 0.78933 0.0
H468 H 0.58729 0.66492 0.71697 0.0
H469 H 0.61107 0.68839 0.66159 0.0
H470 H 0.59006 0.67399 0.79534 0.0
H471 H 0.61404 0.5972 0.72516 0.0
H472 H 0.64706 0.56803 0.69605 0.0
H473 H 0.70043 0.54228 0.8123 0.0
H474 H 0.66796 0.57169 0.84202 0.0
H475 H 0.50411 0.57977 0.91483 0.0
H476 H 0.52665 0.60617 0.86032 0.0
H477 H 0.61158 0.56574 0.91622 0.0
H478 H 0.5881 0.53642 0.9675 0.0
H479 H 0.60913 0.5669 0.84454 0.0
H480 H 0.5881 0.6473 0.9142 0.0
H481 H 0.55674 0.67914 0.94234 0.0
H482 H 0.49881 0.69826 0.82853 0.0
H483 H 0.53011 0.66711 0.79947 0.0
C484 C 0.67331 0.66638 0.73009 0.0
C485 C 0.65608 0.67894 0.69333 0.0
C486 C 0.65965 0.65278 0.76165 0.0
C487 C 0.62852 0.65165 0.75713 0.0
C488 C 0.61131 0.66541 0.72111 0.0
C489 C 0.62493 0.67873 0.68946 0.0
C490 C 0.61381 0.63523 0.78927 0.0
C491 C 0.59406 0.65052 0.80601 0.0
C492 C 0.61928 0.60471 0.80353 0.0
C493 C 0.63875 0.58691 0.78574 0.0
C494 C 0.63296 0.58553 0.74446 0.0
C495 C 0.65156 0.56892 0.72786 0.0
C496 C 0.67588 0.55338 0.75229 0.0
C497 C 0.68161 0.55437 0.7934 0.0
C498 C 0.66311 0.57099 0.81014 0.0
C499 C 0.52752 0.57624 0.91519 0.0
C500 C 0.5444 0.55625 0.94597 0.0
C501 C 0.54062 0.5919 0.88434 0.0
C502 C 0.57124 0.58895 0.88441 0.0
C503 C 0.58801 0.56881 0.91519 0.0
C504 C 0.57464 0.55231 0.94506 0.0
C505 C 0.58572 0.60575 0.85187 0.0
C506 C 0.60529 0.59045 0.83455 0.0
C507 C 0.58024 0.63636 0.83728 0.0
C508 C 0.56122 0.65466 0.85488 0.0
C509 C 0.56855 0.65815 0.89533 0.0
C510 C 0.55084 0.67609 0.9114 0.0
C511 C 0.52565 0.6904 0.88742 0.0
C512 C 0.51826 0.68708 0.84713 0.0
C513 C 0.53606 0.66944 0.83078 0.0
H514 H 0.51196 0.70421 0.9 0.0
H515 H 0.69025 0.54052 0.73938 0.0
H516 H 0.80087 0.14173 0.1384 0.0
H517 H 0.8243 0.11591 0.20449 0.0
H518 H 0.91074 0.13216 0.17214 0.0
H519 H 0.88757 0.15772 0.10638 0.0
H520 H 0.90789 0.07669 0.20723 0.0
H521 H 0.8829 0.17243 0.23446 0.0
H522 H 0.84979 0.21428 0.23533 0.0
H523 H 0.79818 0.15689 0.30767 0.0
H524 H 0.83076 0.11458 0.30674 0.0
H525 H 1.00309 0.05825 0.39659 0.0
H526 H 0.97376 0.07962 0.33185 0.0
H527 H 0.8938 0.04506 0.37128 0.0
H528 H 0.92319 0.02266 0.43559 0.0
H529 H 0.8901 0.1064 0.33403 0.0
H530 H 0.91792 0.01124 0.31014 0.0
H531 H 0.95329 0.97073 0.31196 0.0
H532 H 1.00132 0.02818 0.2347 0.0
H533 H 0.96648 0.06926 0.23295 0.0
C534 C 0.82487 0.13995 0.14557 0.0
C535 C 0.84235 0.15162 0.11708 0.0
C536 C 0.83824 0.12517 0.18329 0.0
C537 C 0.86933 0.12214 0.19336 0.0
C538 C 0.88674 0.13397 0.16501 0.0
C539 C 0.87343 0.14857 0.12738 0.0
C540 C 0.884 0.10666 0.23329 0.0
C541 C 0.90412 0.08337 0.23489 0.0
C542 C 0.87866 0.11487 0.26954 0.0
C543 C 0.85903 0.14027 0.27007 0.0
C544 C 0.86432 0.16868 0.25023 0.0
C545 C 0.84569 0.19249 0.2508 0.0
C546 C 0.82183 0.18822 0.27142 0.0
C547 C 0.81662 0.16014 0.29162 0.0
C548 C 0.83517 0.13624 0.29109 0.0
C549 C 0.97929 0.05499 0.39132 0.0
C550 C 0.96532 0.03912 0.42125 0.0
C551 C 0.96258 0.06729 0.35445 0.0
C552 C 0.93164 0.06394 0.3469 0.0
C553 C 0.91764 0.04803 0.37667 0.0
C554 C 0.93441 0.03536 0.41337 0.0
C555 C 0.91409 0.07688 0.30766 0.0
C556 C 0.89353 0.09961 0.30627 0.0
C557 C 0.91912 0.06828 0.27161 0.0
C558 C 0.93971 0.04343 0.2717 0.0
C559 C 0.93614 0.01532 0.29374 0.0
C560 C 0.95609 0.99224 0.29476 0.0
C561 C 0.9796 0.99689 0.27357 0.0
C562 C 0.98311 0.02462 0.25115 0.0
C563 C 0.96324 0.04781 0.2501 0.0
H564 H 0.99506 0.979 0.27448 0.0
H565 H 0.80743 0.20669 0.27184 0.0
H566 H 0.36865 0.38439 0.48763 0.0
H567 H 0.38859 0.40597 0.54715 0.0
H568 H 0.37444 0.32405 0.62229 0.0
H569 H 0.35601 0.30141 0.56271 0.0
H570 H 0.35316 0.38391 0.64138 0.0
H571 H 0.43822 0.33112 0.61937 0.0
H572 H 0.47275 0.31729 0.57751 0.0
H573 H 0.49709 0.40835 0.55045 0.0
H574 H 0.46233 0.42279 0.59166 0.0
H575 H 0.42638 0.43371 0.81693 0.0
H576 H 0.40934 0.40307 0.7661 0.0
H577 H 0.45516 0.45873 0.68318 0.0
H578 H 0.47524 0.48746 0.7353 0.0
H579 H 0.46034 0.40716 0.67067 0.0
H580 H 0.37525 0.46232 0.68524 0.0
H581 H 0.33863 0.48017 0.72117 0.0
H582 H 0.31184 0.39077 0.75566 0.0
H583 H 0.34856 0.37236 0.72033 0.0
C584 C 0.37015 0.37064 0.51666 0.0
C585 C 0.36103 0.34091 0.52011 0.0
C586 C 0.38131 0.38319 0.55068 0.0
C587 C 0.3831 0.36652 0.58895 0.0
C588 C 0.37317 0.33722 0.59288 0.0
C589 C 0.36248 0.32441 0.55875 0.0
C590 C 0.39584 0.3799 0.62462 0.0
C591 C 0.37666 0.38858 0.6484 0.0
C592 C 0.4263 0.38674 0.63269 0.0
C593 C 0.44747 0.37806 0.6083 0.0
C594 C 0.45074 0.34823 0.6042 0.0
C595 C 0.47039 0.34027 0.58065 0.0
C596 C 0.48705 0.36194 0.56125 0.0
C597 C 0.48415 0.3916 0.56546 0.0
C598 C 0.4645 0.39967 0.58895 0.0
C599 C 0.43361 0.43915 0.78833 0.0
C600 C 0.45227 0.46343 0.78059 0.0
C601 C 0.42322 0.42182 0.75881 0.0
C602 C 0.43017 0.42895 0.72021 0.0
C603 C 0.44918 0.45278 0.71255 0.0
C604 C 0.46033 0.46958 0.7424 0.0
C605 C 0.41763 0.41181 0.68769 0.0
C606 C 0.43684 0.4024 0.66424 0.0
C607 C 0.387 0.40491 0.67935 0.0
C608 C 0.36487 0.41595 0.70052 0.0
C609 C 0.36168 0.44646 0.70072 0.0
C610 C 0.34089 0.45668 0.72094 0.0
C611 C 0.32298 0.43661 0.74079 0.0
C612 C 0.32576 0.40629 0.74034 0.0
C613 C 0.34654 0.39595 0.7202 0.0
H614 H 0.3069 0.44457 0.75643 0.0
H615 H 0.50225 0.35574 0.54302 0.0
H616 H 0.61852 0.69388 0.54153 0.0
H617 H 0.60057 0.67149 0.48157 0.0
H618 H 0.68654 0.63001 0.49308 0.0
H619 H 0.70484 0.65393 0.55148 0.0
H620 H 0.66773 0.64603 0.41933 0.0
H621 H 0.62251 0.59309 0.5251 0.0
H622 H 0.5931 0.58723 0.57947 0.0
H623 H 0.5163 0.62385 0.49617 0.0
H624 H 0.54539 0.6303 0.44139 0.0
H625 H 0.62183 0.52109 0.32175 0.0
H626 H 0.63715 0.55198 0.37389 0.0
H627 H 0.56439 0.61249 0.32095 0.0
H628 H 0.5494 0.58198 0.268 0.0
H629 H 0.57399 0.58948 0.41163 0.0
H630 H 0.6222 0.63817 0.3048 0.0
H631 H 0.65362 0.63957 0.25312 0.0
H632 H 0.72751 0.60475 0.34317 0.0
H633 H 0.69638 0.60269 0.39533 0.0
C634 C 0.63354 0.68018 0.53087 0.0
C635 C 0.66298 0.6755 0.55095 0.0
C636 C 0.62326 0.66719 0.49684 0.0
C637 C 0.64195 0.64842 0.48315 0.0
C638 C 0.67161 0.64433 0.5029 0.0
C639 C 0.68207 0.65792 0.53629 0.0
C640 C 0.63064 0.63263 0.44881 0.0
C641 C 0.64736 0.63349 0.41799 0.0
C642 C 0.60379 0.6165 0.44642 0.0
C643 C 0.58621 0.61247 0.47925 0.0
C644 C 0.5994 0.60007 0.51844 0.0
C645 C 0.58278 0.59662 0.54932 0.0
C646 C 0.55287 0.60524 0.5413 0.0
C647 C 0.53949 0.61723 0.50235 0.0
C648 C 0.55602 0.62077 0.47137 0.0
C649 C 0.60913 0.54097 0.32131 0.0
C650 C 0.58447 0.54923 0.29099 0.0
C651 C 0.61792 0.55859 0.35094 0.0
C652 C 0.60191 0.58447 0.35111 0.0
C653 C 0.57701 0.59258 0.3212 0.0
C654 C 0.56856 0.57527 0.29102 0.0
C655 C 0.61124 0.60283 0.38286 0.0
C656 C 0.5942 0.60231 0.41309 0.0
C657 C 0.63809 0.61867 0.38521 0.0
C658 C 0.65686 0.62 0.35391 0.0
C659 C 0.64506 0.63053 0.31353 0.0
C660 C 0.66284 0.6315 0.28416 0.0
C661 C 0.69252 0.62218 0.29484 0.0
C662 C 0.70451 0.61193 0.33493 0.0
C663 C 0.68681 0.61088 0.36441 0.0
H664 H 0.70625 0.62296 0.27205 0.0
H665 H 0.54004 0.60256 0.56524 0.0
H666 H 0.88763 0.16364 0.00393 0.0
H667 H 0.90908 0.14893 0.95022 0.0
H668 H 0.82437 0.16287 0.87105 0.0
H669 H 0.80195 0.17537 0.92616 0.0
H670 H 0.84742 0.11515 0.85902 0.0
H671 H 0.88539 0.21159 0.86338 0.0
H672 H 0.90904 0.25362 0.89313 0.0
H673 H 0.98994 0.20301 0.93454 0.0
H674 H 0.96666 0.1605 0.90553 0.0
H675 H 0.92864 0.10825 0.69425 0.0
H676 H 0.89902 0.12697 0.73798 0.0
H677 H 0.96063 0.08679 0.84171 0.0
H678 H 0.98944 0.06637 0.79873 0.0
H679 H 0.94561 0.15259 0.8328 0.0
H680 H 0.9023 0.0546 0.83006 0.0
H681 H 0.8769 0.01545 0.79557 0.0
H682 H 0.80349 0.07471 0.74351 0.0
H683 H 0.82869 0.11437 0.77724 0.0
C684 C 0.87331 0.16332 0.97531 0.0
C685 C 0.84286 0.17041 0.96974 0.0
C686 C 0.88583 0.15537 0.94422 0.0
C687 C 0.86858 0.15525 0.90613 0.0
C688 C 0.83826 0.16287 0.90007 0.0
C689 C 0.82551 0.17035 0.93154 0.0
C690 C 0.88225 0.14605 0.87348 0.0
C691 C 0.86861 0.12383 0.85282 0.0
C692 C 0.90998 0.15721 0.86511 0.0
C693 C 0.92419 0.18277 0.88247 0.0
C694 C 0.90816 0.20935 0.87904 0.0
C695 C 0.92152 0.23327 0.89575 0.0
C696 C 0.95096 0.23097 0.91577 0.0
C697 C 0.96713 0.20476 0.91903 0.0
C698 C 0.95388 0.18075 0.9024 0.0
C699 C 0.93564 0.10273 0.72635 0.0
C700 C 0.96172 0.08581 0.74273 0.0
C701 C 0.91874 0.11371 0.75127 0.0
C702 C 0.92776 0.10837 0.79298 0.0
C703 C 0.95345 0.09132 0.80952 0.0
C704 C 0.97003 0.07986 0.78476 0.0
C705 C 0.91113 0.12135 0.81959 0.0
C706 C 0.92424 0.14432 0.83887 0.0
C707 C 0.88268 0.11141 0.8259 0.0
C708 C 0.86755 0.08756 0.80574 0.0
C709 C 0.88089 0.05938 0.8109 0.0
C710 C 0.8665 0.03708 0.79158 0.0
C711 C 0.83865 0.04262 0.76725 0.0
C712 C 0.82509 0.07047 0.76229 0.0
C713 C 0.83942 0.09286 0.78152 0.0
H714 H 0.82753 0.02532 0.75233 0.0
H715 H 0.96125 0.24951 0.92869 0.0
H716 H 0.32641 0.34469 0.33668 0.0
H717 H 0.3502 0.36776 0.28094 0.0
H718 H 0.4364 0.34912 0.355 0.0
H719 H 0.41271 0.32654 0.41072 0.0
H720 H 0.43401 0.40434 0.32012 0.0
H721 H 0.40918 0.31151 0.27525 0.0
H722 H 0.37653 0.27067 0.25673 0.0
H723 H 0.32327 0.33109 0.16368 0.0
H724 H 0.35537 0.3724 0.182 0.0
H725 H 0.51892 0.44489 0.16446 0.0
H726 H 0.49628 0.41609 0.21766 0.0
H727 H 0.40913 0.44127 0.15041 0.0
H728 H 0.43153 0.47089 0.09808 0.0
H729 H 0.41292 0.38187 0.18132 0.0
H730 H 0.43636 0.47457 0.22759 0.0
H731 H 0.46897 0.51567 0.24522 0.0
H732 H 0.52499 0.45526 0.335 0.0
H733 H 0.4929 0.41367 0.31753 0.0
C734 C 0.35043 0.345 0.34072 0.0
C735 C 0.36768 0.33392 0.37809 0.0
C736 C 0.36405 0.35823 0.30888 0.0
C737 C 0.39519 0.36021 0.31364 0.0
C738 C 0.41239 0.34812 0.35056 0.0
C739 C 0.39881 0.33513 0.38237 0.0
C740 C 0.4099 0.37619 0.28108 0.0
C741 C 0.42972 0.39902 0.28996 0.0
C742 C 0.40386 0.3699 0.24136 0.0
C743 C 0.38452 0.3451 0.23028 0.0
C744 C 0.39036 0.31614 0.25106 0.0
C745 C 0.37198 0.2929 0.24055 0.0
C746 C 0.3478 0.2983 0.20912 0.0
C747 C 0.34199 0.32695 0.18806 0.0
C748 C 0.36028 0.35028 0.19847 0.0
C749 C 0.49498 0.44466 0.16131 0.0
C750 C 0.4771 0.46034 0.12708 0.0
C751 C 0.48204 0.42799 0.19156 0.0
C752 C 0.45098 0.4266 0.18808 0.0
C753 C 0.43312 0.44188 0.15368 0.0
C754 C 0.44602 0.45875 0.12371 0.0
C755 C 0.43698 0.40975 0.22058 0.0
C756 C 0.41728 0.38693 0.21162 0.0
C757 C 0.44311 0.41601 0.26023 0.0
C758 C 0.46236 0.44097 0.27103 0.0
C759 C 0.45575 0.47001 0.25091 0.0
C760 C 0.47411 0.49339 0.2609 0.0
C761 C 0.49901 0.48808 0.29124 0.0
C762 C 0.50565 0.45934 0.31157 0.0
C763 C 0.48738 0.43585 0.30164 0.0
H764 H 0.51312 0.50624 0.29903 0.0
H765 H 0.3336 0.28027 0.20103 0.0
H766 H 0.17966 0.91342 0.95851 0.0
H767 H 0.15642 0.93866 0.89229 0.0
H768 H 0.15428 0.85605 0.84631 0.0
H769 H 0.17735 0.83064 0.91245 0.0
H770 H 0.17203 0.90023 0.79489 0.0
H771 H 0.09224 0.88456 0.86969 0.0
H772 H 0.06655 0.88777 0.92628 0.0
H773 H 0.06812 0.98274 0.90095 0.0
H774 H 0.09424 0.9801 0.84454 0.0
H775 H 0.05349 0.93031 0.6259 0.0
H776 H 0.08375 0.91096 0.69049 0.0
H777 H 0.10063 0.99999 0.71419 0.0
H778 H 0.07222 0.01961 0.64801 0.0
H779 H 0.07731 0.95629 0.77671 0.0
H780 H 0.15479 0.97163 0.69947 0.0
H781 H 0.18343 0.96826 0.64588 0.0
H782 H 0.18655 0.87348 0.6764 0.0
H783 H 0.15734 0.8762 0.72963 0.0
C784 C 0.17412 0.90059 0.93435 0.0
C785 C 0.18026 0.86996 0.94086 0.0
C786 C 0.16085 0.91507 0.89649 0.0
C787 C 0.15325 0.89919 0.86442 0.0
C788 C 0.15996 0.86877 0.87059 0.0
C789 C 0.17326 0.85429 0.90841 0.0
C790 C 0.13813 0.91416 0.82445 0.0
C791 C 0.15113 0.91218 0.79086 0.0
C792 C 0.11127 0.93048 0.81934 0.0
C793 C 0.09551 0.93213 0.85318 0.0
C794 C 0.08734 0.90613 0.8764 0.0
C795 C 0.07267 0.90785 0.90841 0.0
C796 C 0.0658 0.93544 0.91729 0.0
C797 C 0.07352 0.96138 0.89409 0.0
C798 C 0.08825 0.95979 0.86209 0.0
C799 C 0.06428 0.94583 0.64417 0.0
C800 C 0.06057 0.97652 0.6314 0.0
C801 C 0.08136 0.93471 0.68133 0.0
C802 C 0.09448 0.95406 0.70699 0.0
C803 C 0.09066 0.98471 0.69473 0.0
C804 C 0.07421 0.99586 0.65702 0.0
C805 C 0.1111 0.942 0.74725 0.0
C806 C 0.09829 0.94445 0.78084 0.0
C807 C 0.13804 0.92598 0.75234 0.0
C808 C 0.15363 0.92412 0.71838 0.0
C809 C 0.16107 0.95003 0.6943 0.0
C810 C 0.17759 0.94825 0.66414 0.0
C811 C 0.18702 0.92069 0.65801 0.0
C812 C 0.1794 0.89482 0.68139 0.0
C813 C 0.16281 0.89647 0.7115 0.0
H814 H 0.20025 0.91937 0.63514 0.0
H815 H 0.05442 0.93672 0.94208 0.0
loop_
_geom_bond_atom_site_label_1
_geom_bond_atom_site_label_2
_geom_bond_distance
_geom_bond_site_symmetry_2
_ccdc_geom_bond_type
H0 C5 0.930 . S
H1 C8 0.930 . S
H2 C10 0.930 . S
H3 C4 1.016 . S
C4 H3 1.016 . S
C4 N11 1.286 . S
C5 H0 0.930 . S
C5 C6 1.397 . S
C5 C7 1.361 1_556 S
C6 C5 1.397 . S
C6 C10 1.390 1_556 S
C7 C5 1.361 1_554 S
C7 C8 1.393 . S
C7 N11 1.413 . S
C8 H1 0.930 . S
C8 C7 1.393 . S
C8 C9 1.399 . S
C9 C8 1.399 . S
C9 C10 1.381 . S
C10 H2 0.930 . S
C10 C6 1.390 1_554 S
C10 C9 1.381 . S
N11 C4 1.286 . S
N11 C7 1.413 . S
H12 C17 0.930 . S
H13 C20 0.930 . S
H14 C22 0.930 . S
H15 C16 1.016 . S
C16 H15 1.016 . S
C16 N23 1.286 . S
C17 H12 0.930 . S
C17 C18 1.397 . S
C17 C19 1.361 . S
C18 C17 1.397 . S
C18 C22 1.390 . S
C19 C17 1.361 . S
C19 C20 1.393 . S
C19 N23 1.413 . S
C20 H13 0.930 . S
C20 C19 1.393 . S
C20 C21 1.399 . S
C21 C20 1.399 . S
C21 C22 1.381 . S
C22 H14 0.930 . S
C22 C18 1.390 . S
C22 C21 1.381 . S
N23 C16 1.286 . S
N23 C19 1.413 . S
H24 C29 0.930 . S
H25 C32 0.930 . S
H26 C34 0.930 . S
H27 C28 1.016 . S
C28 H27 1.016 . S
C28 N35 1.286 . S
C29 H24 0.930 . S
C29 C30 1.397 . S
C29 C31 1.361 1_556 S
C30 C29 1.397 . S
C30 C34 1.390 1_556 S
C31 C29 1.361 1_554 S
C31 C32 1.393 . S
C31 N35 1.413 . S
C32 H25 0.930 . S
C32 C31 1.393 . S
C32 C33 1.399 . S
C33 C32 1.399 . S
C33 C34 1.381 . S
C34 H26 0.930 . S
C34 C30 1.390 1_554 S
C34 C33 1.381 . S
N35 C28 1.286 . S
N35 C31 1.413 . S
H36 C41 0.930 . S
H37 C44 0.930 . S
H38 C46 0.930 . S
H39 C40 1.016 . S
C40 H39 1.016 . S
C40 N47 1.286 . S
C41 H36 0.930 . S
C41 C42 1.397 . S
C41 C43 1.361 . S
C42 C41 1.397 . S
C42 C46 1.390 . S
C43 C41 1.361 . S
C43 C44 1.393 . S
C43 N47 1.413 . S
C44 H37 0.930 . S
C44 C43 1.393 . S
C44 C45 1.399 . S
C45 C44 1.399 . S
C45 C46 1.381 . S
C46 H38 0.930 . S
C46 C42 1.390 . S
C46 C45 1.381 . S
N47 C40 1.286 . S
N47 C43 1.413 . S
C48 C50 1.422 . S
C48 C52 1.415 . S
C48 N54 1.369 . S
C49 C50 1.421 . S
C49 C51 1.417 . S
C49 C61 1.422 . S
C50 C48 1.422 . S
C50 C49 1.421 . S
C50 N60 1.359 . S
C51 C49 1.417 . S
C51 C53 1.329 . S
C51 H70 0.930 . S
C52 C48 1.415 . S
C52 C53 1.437 . S
C52 C56 1.413 . S
C53 C51 1.329 . S
C53 C52 1.437 . S
C53 H75 0.929 . S
N54 C48 1.369 . S
N54 C55 1.338 1_655 S
N54 Gd59 2.622 . S
C55 N54 1.338 1_455 S
C55 C57 1.378 . S
C55 H67 0.929 . S
C56 C52 1.413 . S
C56 C57 1.348 1_655 S
C56 H72 0.931 . S
C57 C55 1.378 . S
C57 C56 1.348 1_455 S
C57 H73 0.930 . S
Gd58 N78 2.622 . S
Gd58 N85 2.570 . S
Gd58 O92 2.353 1_465 S
Gd58 O93 2.468 . S
Gd58 O94 2.427 . S
Gd58 O96 2.388 1_455 S
Gd58 O97 2.386 . S
Gd58 O101 2.307 1_565 S
Gd58 C111 2.805 . S
Gd59 N54 2.622 . S
Gd59 N60 2.570 . S
Gd59 O91 2.386 . S
Gd59 O95 2.307 1_545 S
Gd59 O98 2.353 1_655 S
Gd59 O99 2.468 . S
Gd59 O100 2.427 . S
Gd59 O102 2.388 1_655 S
Gd59 C123 2.805 . S
N60 C50 1.359 . S
N60 Gd59 2.570 . S
N60 C62 1.343 . S
C61 C49 1.422 . S
C61 C63 1.321 . S
C61 H69 0.931 . S
C62 N60 1.343 . S
C62 C63 1.390 . S
C62 H64 0.931 . S
C63 C61 1.321 . S
C63 C62 1.390 . S
C63 H65 0.930 . S
H64 C62 0.931 . S
H65 C63 0.930 . S
H66 C89 0.931 . S
H67 C55 0.929 . S
H68 C90 0.930 . S
H69 C61 0.931 . S
H70 C51 0.930 . S
H71 C80 0.929 1_655 S
H72 C56 0.931 . S
H73 C57 0.930 . S
H74 C112 0.930 . S
H75 C53 0.929 . S
H76 C81 0.931 . S
H77 C82 0.930 1_655 S
N78 Gd58 2.622 . S
N78 C79 1.369 . S
N78 C80 1.338 . S
C79 N78 1.369 . S
C79 C83 1.415 . S
C79 C86 1.422 . S
C80 H71 0.929 1_455 S
C80 N78 1.338 . S
C80 C82 1.378 . S
C81 H76 0.931 . S
C81 C82 1.348 . S
C81 C83 1.413 . S
C82 H77 0.930 1_455 S
C82 C80 1.378 . S
C82 C81 1.348 . S
C83 C79 1.415 . S
C83 C81 1.413 . S
C83 C113 1.437 . S
H84 C113 0.929 . S
N85 Gd58 2.570 . S
N85 C86 1.359 . S
N85 C89 1.343 . S
C86 C79 1.422 . S
C86 N85 1.359 . S
C86 C88 1.421 . S
C87 C88 1.422 . S
C87 C90 1.321 . S
C87 H114 0.931 . S
C88 C86 1.421 . S
C88 C87 1.422 . S
C88 C112 1.417 . S
C89 H66 0.931 . S
C89 N85 1.343 . S
C89 C90 1.390 . S
C90 H68 0.930 . S
C90 C87 1.321 . S
C90 C89 1.390 . S
O91 Gd59 2.386 . S
O91 C103 1.265 . S
O92 Gd58 2.353 1_645 S
O92 C103 1.242 . S
O93 Gd58 2.468 . S
O93 C111 1.263 . S
O94 Gd58 2.427 . S
O94 C111 1.252 . S
O95 Gd59 2.307 1_565 S
O95 C104 1.261 . S
O96 Gd58 2.388 1_655 S
O96 C104 1.252 . S
O97 Gd58 2.386 . S
O97 C115 1.265 . S
O98 Gd59 2.353 1_455 S
O98 C115 1.242 1_545 S
O99 Gd59 2.468 . S
O99 C123 1.263 . S
O100 Gd59 2.427 . S
O100 C123 1.252 . S
O101 Gd58 2.307 1_545 S
O101 C116 1.261 . S
O102 Gd59 2.388 1_455 S
O102 C116 1.252 . S
C103 O91 1.265 . S
C103 O92 1.242 . S
C104 O95 1.261 . S
C104 O96 1.252 . S
C105 C108 1.394 . S
C105 C110 1.370 . S
C105 C111 1.500 . S
C106 C109 1.383 . S
C106 C110 1.395 . S
C107 C108 1.396 . S
C107 C109 1.365 . S
C107 H124 0.929 . S
C108 C105 1.394 . S
C108 C107 1.396 . S
C108 H125 0.930 . S
C109 C106 1.383 . S
C109 C107 1.365 . S
C109 H126 0.931 . S
C110 C105 1.370 . S
C110 C106 1.395 . S
C110 H127 0.930 . S
C111 Gd58 2.805 . S
C111 O93 1.263 . S
C111 O94 1.252 . S
C111 C105 1.500 . S
C112 H74 0.930 . S
C112 C88 1.417 . S
C112 C113 1.329 . S
C113 C83 1.437 . S
C113 H84 0.929 . S
C113 C112 1.329 . S
H114 C87 0.931 . S
C115 O97 1.265 . S
C115 O98 1.242 1_565 S
C116 O101 1.261 . S
C116 O102 1.252 . S
C117 C120 1.394 . S
C117 C122 1.370 . S
C117 C123 1.500 . S
C118 C121 1.383 . S
C118 C122 1.395 . S
C119 C120 1.396 . S
C119 C121 1.365 . S
C119 H128 0.929 . S
C120 C117 1.394 . S
C120 C119 1.396 . S
C120 H129 0.930 . S
C121 C118 1.383 . S
C121 C119 1.365 . S
C121 H130 0.931 . S
C122 C117 1.370 . S
C122 C118 1.395 . S
C122 H131 0.930 . S
C123 Gd59 2.805 . S
C123 O99 1.263 . S
C123 O100 1.252 . S
C123 C117 1.500 . S
H124 C107 0.929 . S
H125 C108 0.930 . S
H126 C109 0.931 . S
H127 C110 0.930 . S
H128 C119 0.929 . S
H129 C120 0.930 . S
H130 C121 0.931 . S
H131 C122 0.930 . S
C132 C134 1.422 . S
C132 C136 1.415 . S
C132 N138 1.369 . S
C133 C134 1.421 . S
C133 C135 1.417 . S
C133 C145 1.422 . S
C134 C132 1.422 . S
C134 C133 1.421 . S
C134 N144 1.359 . S
C135 C133 1.417 . S
C135 C137 1.329 . S
C135 H154 0.930 . S
C136 C132 1.415 . S
C136 C137 1.437 . S
C136 C140 1.413 . S
C137 C135 1.329 . S
C137 C136 1.437 . S
C137 H159 0.929 . S
N138 C132 1.369 . S
N138 C139 1.338 . S
N138 Gd143 2.622 . S
C139 N138 1.338 . S
C139 C141 1.378 . S
C139 H151 0.929 . S
C140 C136 1.413 . S
C140 C141 1.348 . S
C140 H156 0.931 . S
C141 C139 1.378 . S
C141 C140 1.348 . S
C141 H157 0.930 . S
Gd142 N162 2.625 . S
Gd142 N169 2.570 1_556 S
Gd142 O176 2.353 . S
Gd142 O177 2.468 . S
Gd142 O178 2.427 . S
Gd142 O180 2.388 1_556 S
Gd142 O181 2.386 1_556 S
Gd142 O185 2.307 1_556 S
Gd142 C195 2.805 . S
Gd143 N138 2.622 . S
Gd143 N144 2.570 . S
Gd143 O175 2.386 . S
Gd143 O179 2.307 . S
Gd143 O182 2.353 . S
Gd143 O183 2.468 . S
Gd143 O184 2.427 . S
Gd143 O186 2.388 . S
Gd143 C207 2.805 . S
N144 C134 1.359 . S
N144 Gd143 2.570 . S
N144 C146 1.343 . S
C145 C133 1.422 . S
C145 C147 1.321 . S
C145 H153 0.931 . S
C146 N144 1.343 . S
C146 C147 1.390 . S
C146 H148 0.931 . S
C147 C145 1.321 . S
C147 C146 1.390 . S
C147 H149 0.930 . S
H148 C146 0.931 . S
H149 C147 0.930 . S
H150 C173 0.931 . S
H151 C139 0.929 . S
H152 C174 0.930 . S
H153 C145 0.931 . S
H154 C135 0.930 . S
H155 C164 0.929 . S
H156 C140 0.931 . S
H157 C141 0.930 . S
H158 C196 0.930 . S
H159 C137 0.929 . S
H160 C165 0.931 . S
H161 C166 0.930 . S
N162 Gd142 2.625 . S
N162 C163 1.365 1_556 S
N162 C164 1.337 . S
C163 N162 1.365 1_554 S
C163 C167 1.415 . S
C163 C170 1.422 . S
C164 H155 0.929 . S
C164 N162 1.337 . S
C164 C166 1.378 . S
C165 H160 0.931 . S
C165 C166 1.348 1_554 S
C165 C167 1.413 . S
C166 H161 0.930 . S
C166 C164 1.378 . S
C166 C165 1.348 1_556 S
C167 C163 1.415 . S
C167 C165 1.413 . S
C167 C197 1.437 . S
H168 C197 0.929 . S
N169 Gd142 2.570 1_554 S
N169 C170 1.359 . S
N169 C173 1.343 . S
C170 C163 1.422 . S
C170 N169 1.359 . S
C170 C172 1.421 . S
C171 C172 1.422 . S
C171 C174 1.321 . S
C171 H198 0.931 . S
C172 C170 1.421 . S
C172 C171 1.422 . S
C172 C196 1.417 . S
C173 H150 0.931 . S
C173 N169 1.343 . S
C173 C174 1.390 . S
C174 H152 0.930 . S
C174 C171 1.321 . S
C174 C173 1.390 . S
O175 Gd143 2.386 . S
O175 C187 1.265 1_554 S
O176 Gd142 2.353 . S
O176 C187 1.242 . S
O177 Gd142 2.468 . S
O177 C195 1.263 . S
O178 Gd142 2.427 . S
O178 C195 1.252 . S
O179 Gd143 2.307 . S
O179 C188 1.261 . S
O180 Gd142 2.388 1_554 S
O180 C188 1.252 . S
O181 Gd142 2.386 1_554 S
O181 C199 1.265 . S
O182 Gd143 2.353 . S
O182 C199 1.242 . S
O183 Gd143 2.468 . S
O183 C207 1.263 . S
O184 Gd143 2.427 . S
O184 C207 1.252 . S
O185 Gd142 2.307 1_554 S
O185 C200 1.261 . S
O186 Gd143 2.388 . S
O186 C200 1.252 . S
C187 O175 1.265 1_556 S
C187 O176 1.242 . S
C188 O179 1.261 . S
C188 O180 1.252 . S
C189 C192 1.394 . S
C189 C194 1.370 . S
C189 C195 1.500 . S
C190 C193 1.383 . S
C190 C194 1.395 . S
C191 C192 1.396 . S
C191 C193 1.365 . S
C191 H208 0.929 . S
C192 C189 1.394 . S
C192 C191 1.396 . S
C192 H209 0.930 . S
C193 C190 1.383 . S
C193 C191 1.365 . S
C193 H210 0.931 . S
C194 C189 1.370 . S
C194 C190 1.395 . S
C194 H211 0.930 . S
C195 Gd142 2.805 . S
C195 O177 1.263 . S
C195 O178 1.252 . S
C195 C189 1.500 . S
C196 H158 0.930 . S
C196 C172 1.417 . S
C196 C197 1.329 . S
C197 C167 1.437 . S
C197 H168 0.929 . S
C197 C196 1.329 . S
H198 C171 0.931 . S
C199 O181 1.265 . S
C199 O182 1.242 . S
C200 O185 1.261 . S
C200 O186 1.252 . S
C201 C204 1.394 . S
C201 C206 1.370 . S
C201 C207 1.500 . S
C202 C205 1.383 . S
C202 C206 1.395 . S
C203 C204 1.396 . S
C203 C205 1.365 . S
C203 H212 0.929 . S
C204 C201 1.394 . S
C204 C203 1.396 . S
C204 H213 0.930 . S
C205 C202 1.383 . S
C205 C203 1.365 . S
C205 H214 0.931 . S
C206 C201 1.370 . S
C206 C202 1.395 . S
C206 H215 0.930 . S
C207 Gd143 2.805 . S
C207 O183 1.263 . S
C207 O184 1.252 . S
C207 C201 1.500 . S
H208 C191 0.929 . S
H209 C192 0.930 . S
H210 C193 0.931 . S
H211 C194 0.930 . S
H212 C203 0.929 . S
H213 C204 0.930 . S
H214 C205 0.931 . S
H215 C206 0.930 . S
H216 C234 0.951 . S
H217 C236 0.951 . S
H218 C238 0.950 . S
H219 C239 0.950 . S
H220 C241 0.950 . S
H221 C244 0.950 . S
H222 C245 0.950 . S
H223 C247 0.950 . S
H224 C248 0.950 . S
H225 C249 0.951 . S
H226 C251 0.951 . S
H227 C253 0.950 . S
H228 C254 0.950 . S
H229 C256 0.950 . S
H230 C259 0.950 . S
H231 C260 0.950 . S
H232 C262 0.950 . S
H233 C263 0.950 . S
C234 H216 0.951 . S
C234 C235 1.366 . S
C234 C236 1.388 . S
C235 C234 1.366 . S
C235 C239 1.385 . S
C236 H217 0.951 . S
C236 C234 1.388 . S
C236 C237 1.366 . S
C237 C236 1.366 . S
C237 C238 1.414 . S
C237 C240 1.499 . S
C238 H218 0.950 . S
C238 C237 1.414 . S
C238 C239 1.374 . S
C239 H219 0.950 . S
C239 C235 1.385 . S
C239 C238 1.374 . S
C240 C237 1.499 . S
C240 C241 1.373 . S
C240 C242 1.389 . S
C241 H220 0.950 . S
C241 C240 1.373 . S
C241 C257 1.377 . S
C242 C240 1.389 . S
C242 C243 1.524 . S
C242 C256 1.377 . S
C243 C242 1.524 . S
C243 C244 1.397 . S
C243 C248 1.363 . S
C244 H221 0.950 . S
C244 C243 1.397 . S
C244 C245 1.334 . S
C245 H222 0.950 . S
C245 C244 1.334 . S
C245 C246 1.287 . S
C246 C245 1.287 . S
C246 C247 1.524 . S
C246 H265 0.913 . S
C247 H223 0.950 . S
C247 C246 1.524 . S
C247 C248 1.415 . S
C248 H224 0.950 . S
C248 C243 1.363 . S
C248 C247 1.415 . S
C249 H225 0.951 . S
C249 C250 1.366 . S
C249 C251 1.388 . S
C250 C249 1.366 . S
C250 C254 1.385 . S
C251 H226 0.951 . S
C251 C249 1.388 . S
C251 C252 1.366 . S
C252 C251 1.366 . S
C252 C253 1.414 . S
C252 C255 1.499 . S
C253 H227 0.950 . S
C253 C252 1.414 . S
C253 C254 1.374 . S
C254 H228 0.950 . S
C254 C250 1.385 . S
C254 C253 1.374 . S
C255 C252 1.499 . S
C255 C256 1.373 . S
C255 C257 1.389 . S
C256 H229 0.950 . S
C256 C242 1.377 . S
C256 C255 1.373 . S
C257 C241 1.377 . S
C257 C255 1.389 . S
C257 C258 1.524 . S
C258 C257 1.524 . S
C258 C259 1.397 . S
C258 C263 1.363 . S
C259 H230 0.950 . S
C259 C258 1.397 . S
C259 C260 1.334 . S
C260 H231 0.950 . S
C260 C259 1.334 . S
C260 C261 1.287 . S
C261 C260 1.287 . S
C261 C262 1.524 . S
C261 H264 0.999 . S
C262 H232 0.950 . S
C262 C261 1.524 . S
C262 C263 1.415 . S
C263 H233 0.950 . S
C263 C258 1.363 . S
C263 C262 1.415 . S
H264 C261 0.999 . S
H265 C246 0.913 . S
H266 C284 0.951 1_556 S
H267 C286 0.951 1_556 S
H268 C288 0.950 . S
H269 C289 0.950 . S
H270 C291 0.950 . S
H271 C294 0.953 . S
H272 C295 0.950 . S
H273 C297 0.950 . S
H274 C298 0.950 . S
H275 C299 0.951 . S
H276 C301 0.951 . S
H277 C303 0.950 1_556 S
H278 C304 0.950 1_556 S
H279 C306 0.950 1_556 S
H280 C309 0.950 . S
H281 C310 0.950 . S
H282 C312 0.950 . S
H283 C313 0.950 . S
C284 H266 0.951 1_554 S
C284 C285 1.366 . S
C284 C286 1.388 . S
C285 C284 1.366 . S
C285 C289 1.385 . S
C286 H267 0.951 1_554 S
C286 C284 1.388 . S
C286 C287 1.366 . S
C287 C286 1.366 . S
C287 C288 1.414 . S
C287 C290 1.499 . S
C288 H268 0.950 . S
C288 C287 1.414 . S
C288 C289 1.374 . S
C289 H269 0.950 . S
C289 C285 1.385 . S
C289 C288 1.374 . S
C290 C287 1.499 . S
C290 C291 1.373 . S
C290 C292 1.389 . S
C291 H270 0.950 . S
C291 C290 1.373 . S
C291 C307 1.377 . S
C292 C290 1.389 . S
C292 C293 1.524 1_554 S
C292 C306 1.377 . S
C293 C292 1.524 1_556 S
C293 C294 1.395 1_556 S
C293 C298 1.363 . S
C294 H271 0.953 . S
C294 C293 1.395 1_554 S
C294 C295 1.332 1_554 S
C295 H272 0.950 . S
C295 C294 1.332 1_556 S
C295 C296 1.287 . S
C296 C295 1.287 . S
C296 C297 1.524 . S
C296 H315 0.913 . S
C297 H273 0.950 . S
C297 C296 1.524 . S
C297 C298 1.415 . S
C298 H274 0.950 . S
C298 C293 1.363 . S
C298 C297 1.415 . S
C299 H275 0.951 . S
C299 C300 1.366 . S
C299 C301 1.388 . S
C300 C299 1.366 . S
C300 C304 1.385 . S
C301 H276 0.951 . S
C301 C299 1.388 . S
C301 C302 1.366 . S
C302 C301 1.366 . S
C302 C303 1.414 . S
C302 C305 1.499 . S
C303 H277 0.950 1_554 S
C303 C302 1.414 . S
C303 C304 1.374 . S
C304 H278 0.950 1_554 S
C304 C300 1.385 . S
C304 C303 1.374 . S
C305 C302 1.499 . S
C305 C306 1.373 . S
C305 C307 1.389 . S
C306 H279 0.950 1_554 S
C306 C292 1.377 . S
C306 C305 1.373 . S
C307 C291 1.377 . S
C307 C305 1.389 . S
C307 C308 1.524 . S
C308 C307 1.524 . S
C308 C309 1.397 . S
C308 C313 1.363 . S
C309 H280 0.950 . S
C309 C308 1.397 . S
C309 C310 1.334 . S
C310 H281 0.950 . S
C310 C309 1.334 . S
C310 C311 1.287 . S
C311 C310 1.287 . S
C311 C312 1.524 . S
C311 H314 0.999 . S
C312 H282 0.950 . S
C312 C311 1.524 . S
C312 C313 1.415 . S
C313 H283 0.950 . S
C313 C308 1.363 . S
C313 C312 1.415 . S
H314 C311 0.999 . S
H315 C296 0.913 . S
H316 C334 0.951 . S
H317 C336 0.951 . S
H318 C338 0.950 . S
H319 C339 0.950 . S
H320 C341 0.950 . S
H321 C344 0.950 . S
H322 C345 0.950 . S
H323 C347 0.950 . S
H324 C348 0.950 . S
H325 C349 0.951 . S
H326 C351 0.951 . S
H327 C353 0.950 . S
H328 C354 0.950 . S
H329 C356 0.950 . S
H330 C359 0.950 . S
H331 C360 0.950 . S
H332 C362 0.950 . S
H333 C363 0.950 . S
C334 H316 0.951 . S
C334 C335 1.366 . S
C334 C336 1.388 . S
C335 C334 1.366 . S
C335 C339 1.385 . S
C336 H317 0.951 . S
C336 C334 1.388 . S
C336 C337 1.366 . S
C337 C336 1.366 . S
C337 C338 1.414 . S
C337 C340 1.499 . S
C338 H318 0.950 . S
C338 C337 1.414 . S
C338 C339 1.374 . S
C339 H319 0.950 . S
C339 C335 1.385 . S
C339 C338 1.374 . S
C340 C337 1.499 . S
C340 C341 1.373 . S
C340 C342 1.389 . S
C341 H320 0.950 . S
C341 C340 1.373 . S
C341 C357 1.377 . S
C342 C340 1.389 . S
C342 C343 1.524 . S
C342 C356 1.377 . S
C343 C342 1.524 . S
C343 C344 1.397 . S
C343 C348 1.363 . S
C344 H321 0.950 . S
C344 C343 1.397 . S
C344 C345 1.334 . S
C345 H322 0.950 . S
C345 C344 1.334 . S
C345 C346 1.287 . S
C346 C345 1.287 . S
C346 C347 1.524 . S
C346 H365 0.913 . S
C347 H323 0.950 . S
C347 C346 1.524 . S
C347 C348 1.415 . S
C348 H324 0.950 . S
C348 C343 1.363 . S
C348 C347 1.415 . S
C349 H325 0.951 . S
C349 C350 1.366 . S
C349 C351 1.388 . S
C350 C349 1.366 . S
C350 C354 1.385 . S
C351 H326 0.951 . S
C351 C349 1.388 . S
C351 C352 1.366 . S
C352 C351 1.366 . S
C352 C353 1.414 . S
C352 C355 1.499 . S
C353 H327 0.950 . S
C353 C352 1.414 . S
C353 C354 1.374 . S
C354 H328 0.950 . S
C354 C350 1.385 . S
C354 C353 1.374 . S
C355 C352 1.499 . S
C355 C356 1.373 . S
C355 C357 1.389 . S
C356 H329 0.950 . S
C356 C342 1.377 . S
C356 C355 1.373 . S
C357 C341 1.377 . S
C357 C355 1.389 . S
C357 C358 1.524 . S
C358 C357 1.524 . S
C358 C359 1.397 . S
C358 C363 1.363 . S
C359 H330 0.950 . S
C359 C358 1.397 . S
C359 C360 1.334 . S
C360 H331 0.950 . S
C360 C359 1.334 . S
C360 C361 1.287 . S
C361 C360 1.287 . S
C361 C362 1.524 . S
C361 H364 0.999 1_565 S
C362 H332 0.950 . S
C362 C361 1.524 . S
C362 C363 1.415 . S
C363 H333 0.950 . S
C363 C358 1.363 . S
C363 C362 1.415 . S
H364 C361 0.999 1_545 S
H365 C346 0.913 . S
H366 C384 0.951 . S
H367 C386 0.951 . S
H368 C388 0.950 1_556 S
H369 C389 0.950 1_556 S
H370 C391 0.950 . S
H371 C394 0.950 . S
H372 C395 0.950 . S
H373 C397 0.950 . S
H374 C398 0.950 . S
H375 C399 0.951 1_556 S
H376 C401 0.951 1_556 S
H377 C403 0.950 . S
H378 C404 0.950 . S
H379 C406 0.950 . S
H380 C409 0.950 . S
H381 C410 0.950 . S
H382 C412 0.950 . S
H383 C413 0.950 . S
C384 H366 0.951 . S
C384 C385 1.366 . S
C384 C386 1.388 . S
C385 C384 1.366 . S
C385 C389 1.385 . S
C386 H367 0.951 . S
C386 C384 1.388 . S
C386 C387 1.366 . S
C387 C386 1.366 . S
C387 C388 1.414 . S
C387 C390 1.499 . S
C388 H368 0.950 1_554 S
C388 C387 1.414 . S
C388 C389 1.374 . S
C389 H369 0.950 1_554 S
C389 C385 1.385 . S
C389 C388 1.374 . S
C390 C387 1.499 . S
C390 C391 1.373 1_554 S
C390 C392 1.389 . S
C391 H370 0.950 . S
C391 C390 1.373 1_556 S
C391 C407 1.377 . S
C392 C390 1.389 . S
C392 C393 1.524 . S
C392 C406 1.377 . S
C393 C392 1.524 . S
C393 C394 1.397 . S
C393 C398 1.363 . S
C394 H371 0.950 . S
C394 C393 1.397 . S
C394 C395 1.334 . S
C395 H372 0.950 . S
C395 C394 1.334 . S
C395 C396 1.287 . S
C396 C395 1.287 . S
C396 C397 1.524 . S
C396 H415 0.913 . S
C397 H373 0.950 . S
C397 C396 1.524 . S
C397 C398 1.415 . S
C398 H374 0.950 . S
C398 C393 1.363 . S
C398 C397 1.415 . S
C399 H375 0.951 1_554 S
C399 C400 1.366 . S
C399 C401 1.388 . S
C400 C399 1.366 . S
C400 C404 1.385 . S
C401 H376 0.951 1_554 S
C401 C399 1.388 . S
C401 C402 1.366 . S
C402 C401 1.366 . S
C402 C403 1.414 . S
C402 C405 1.499 . S
C403 H377 0.950 . S
C403 C402 1.414 . S
C403 C404 1.374 . S
C404 H378 0.950 . S
C404 C400 1.385 . S
C404 C403 1.374 . S
C405 C402 1.499 . S
C405 C406 1.373 . S
C405 C407 1.389 1_554 S
C406 H379 0.950 . S
C406 C392 1.377 . S
C406 C405 1.373 . S
C407 C391 1.377 . S
C407 C405 1.389 1_556 S
C407 C408 1.524 . S
C408 C407 1.524 . S
C408 C409 1.397 . S
C408 C413 1.363 . S
C409 H380 0.950 . S
C409 C408 1.397 . S
C409 C410 1.334 . S
C410 H381 0.950 . S
C410 C409 1.334 . S
C410 C411 1.287 . S
C411 C410 1.287 . S
C411 C412 1.524 . S
C411 H414 0.999 . S
C412 H382 0.950 . S
C412 C411 1.524 . S
C412 C413 1.415 . S
C413 H383 0.950 . S
C413 C408 1.363 . S
C413 C412 1.415 . S
H414 C411 0.999 . S
H415 C396 0.913 . S
H416 C434 0.951 . S
H417 C436 0.951 . S
H418 C438 0.950 . S
H419 C439 0.950 . S
H420 C441 0.950 . S
H421 C444 0.950 . S
H422 C445 0.950 . S
H423 C447 0.950 . S
H424 C448 0.950 . S
H425 C449 0.951 . S
H426 C451 0.951 . S
H427 C453 0.950 . S
H428 C454 0.950 . S
H429 C456 0.950 . S
H430 C459 0.950 . S
H431 C460 0.950 . S
H432 C462 0.950 . S
H433 C463 0.950 . S
C434 H416 0.951 . S
C434 C435 1.366 . S
C434 C436 1.388 . S
C435 C434 1.366 . S
C435 C439 1.385 . S
C436 H417 0.951 . S
C436 C434 1.388 . S
C436 C437 1.366 . S
C437 C436 1.366 . S
C437 C438 1.414 . S
C437 C440 1.499 . S
C438 H418 0.950 . S
C438 C437 1.414 . S
C438 C439 1.374 . S
C439 H419 0.950 . S
C439 C435 1.385 . S
C439 C438 1.374 . S
C440 C437 1.499 . S
C440 C441 1.373 . S
C440 C442 1.389 . S
C441 H420 0.950 . S
C441 C440 1.373 . S
C441 C457 1.377 . S
C442 C440 1.389 . S
C442 C443 1.524 . S
C442 C456 1.377 . S
C443 C442 1.524 . S
C443 C444 1.397 . S
C443 C448 1.363 . S
C444 H421 0.950 . S
C444 C443 1.397 . S
C444 C445 1.334 . S
C445 H422 0.950 . S
C445 C444 1.334 . S
C445 C446 1.287 . S
C446 C445 1.287 . S
C446 C447 1.524 . S
C446 H465 0.913 . S
C447 H423 0.950 . S
C447 C446 1.524 . S
C447 C448 1.415 . S
C448 H424 0.950 . S
C448 C443 1.363 . S
C448 C447 1.415 . S
C449 H425 0.951 . S
C449 C450 1.366 . S
C449 C451 1.388 . S
C450 C449 1.366 . S
C450 C454 1.385 . S
C451 H426 0.951 . S
C451 C449 1.388 . S
C451 C452 1.366 . S
C452 C451 1.366 . S
C452 C453 1.414 . S
C452 C455 1.499 . S
C453 H427 0.950 . S
C453 C452 1.414 . S
C453 C454 1.374 . S
C454 H428 0.950 . S
C454 C450 1.385 . S
C454 C453 1.374 . S
C455 C452 1.499 . S
C455 C456 1.373 . S
C455 C457 1.389 . S
C456 H429 0.950 . S
C456 C442 1.377 . S
C456 C455 1.373 . S
C457 C441 1.377 . S
C457 C455 1.389 . S
C457 C458 1.524 . S
C458 C457 1.524 . S
C458 C459 1.397 . S
C458 C463 1.363 . S
C459 H430 0.950 . S
C459 C458 1.397 . S
C459 C460 1.334 1_565 S
C460 H431 0.950 . S
C460 C459 1.334 1_545 S
C460 C461 1.287 . S
C461 C460 1.287 . S
C461 C462 1.524 1_545 S
C461 H464 0.999 . S
C462 H432 0.950 . S
C462 C461 1.524 1_565 S
C462 C463 1.415 . S
C463 H433 0.950 . S
C463 C458 1.363 . S
C463 C462 1.415 . S
H464 C461 0.999 . S
H465 C446 0.913 . S
H466 C484 0.951 . S
H467 C486 0.951 . S
H468 C488 0.950 . S
H469 C489 0.950 . S
H470 C491 0.950 . S
H471 C494 0.950 . S
H472 C495 0.950 . S
H473 C497 0.950 . S
H474 C498 0.950 . S
H475 C499 0.951 . S
H476 C501 0.951 . S
H477 C503 0.950 . S
H478 C504 0.950 . S
H479 C506 0.950 . S
H480 C509 0.950 . S
H481 C510 0.950 . S
H482 C512 0.950 . S
H483 C513 0.950 . S
C484 H466 0.951 . S
C484 C485 1.366 . S
C484 C486 1.388 . S
C485 C484 1.366 . S
C485 C489 1.385 . S
C486 H467 0.951 . S
C486 C484 1.388 . S
C486 C487 1.366 . S
C487 C486 1.366 . S
C487 C488 1.414 . S
C487 C490 1.499 . S
C488 H468 0.950 . S
C488 C487 1.414 . S
C488 C489 1.374 . S
C489 H469 0.950 . S
C489 C485 1.385 . S
C489 C488 1.374 . S
C490 C487 1.499 . S
C490 C491 1.373 . S
C490 C492 1.389 . S
C491 H470 0.950 . S
C491 C490 1.373 . S
C491 C507 1.377 . S
C492 C490 1.389 . S
C492 C493 1.524 . S
C492 C506 1.377 . S
C493 C492 1.524 . S
C493 C494 1.397 . S
C493 C498 1.363 . S
C494 H471 0.950 . S
C494 C493 1.397 . S
C494 C495 1.334 . S
C495 H472 0.950 . S
C495 C494 1.334 . S
C495 C496 1.287 . S
C496 C495 1.287 . S
C496 C497 1.524 . S
C496 H515 0.913 . S
C497 H473 0.950 . S
C497 C496 1.524 . S
C497 C498 1.415 . S
C498 H474 0.950 . S
C498 C493 1.363 . S
C498 C497 1.415 . S
C499 H475 0.951 . S
C499 C500 1.366 . S
C499 C501 1.388 . S
C500 C499 1.366 . S
C500 C504 1.385 . S
C501 H476 0.951 . S
C501 C499 1.388 . S
C501 C502 1.366 . S
C502 C501 1.366 . S
C502 C503 1.414 . S
C502 C505 1.499 . S
C503 H477 0.950 . S
C503 C502 1.414 . S
C503 C504 1.374 . S
C504 H478 0.950 . S
C504 C500 1.385 . S
C504 C503 1.374 . S
C505 C502 1.499 . S
C505 C506 1.373 . S
C505 C507 1.389 . S
C506 H479 0.950 . S
C506 C492 1.377 . S
C506 C505 1.373 . S
C507 C491 1.377 . S
C507 C505 1.389 . S
C507 C508 1.524 . S
C508 C507 1.524 . S
C508 C509 1.397 . S
C508 C513 1.363 . S
C509 H480 0.950 . S
C509 C508 1.397 . S
C509 C510 1.334 . S
C510 H481 0.950 . S
C510 C509 1.334 . S
C510 C511 1.287 . S
C511 C510 1.287 . S
C511 C512 1.524 . S
C511 H514 0.999 . S
C512 H482 0.950 . S
C512 C511 1.524 . S
C512 C513 1.415 . S
C513 H483 0.950 . S
C513 C508 1.363 . S
C513 C512 1.415 . S
H514 C511 0.999 . S
H515 C496 0.913 . S
H516 C534 0.951 . S
H517 C536 0.951 . S
H518 C538 0.950 . S
H519 C539 0.950 . S
H520 C541 0.950 . S
H521 C544 0.950 . S
H522 C545 0.950 . S
H523 C547 0.950 . S
H524 C548 0.950 . S
H525 C549 0.951 . S
H526 C551 0.951 . S
H527 C553 0.950 . S
H528 C554 0.950 . S
H529 C556 0.950 . S
H530 C559 0.950 . S
H531 C560 0.950 . S
H532 C562 0.950 . S
H533 C563 0.950 . S
C534 H516 0.951 . S
C534 C535 1.366 . S
C534 C536 1.388 . S
C535 C534 1.366 . S
C535 C539 1.385 . S
C536 H517 0.951 . S
C536 C534 1.388 . S
C536 C537 1.366 . S
C537 C536 1.366 . S
C537 C538 1.414 . S
C537 C540 1.499 . S
C538 H518 0.950 . S
C538 C537 1.414 . S
C538 C539 1.374 . S
C539 H519 0.950 . S
C539 C535 1.385 . S
C539 C538 1.374 . S
C540 C537 1.499 . S
C540 C541 1.373 . S
C540 C542 1.389 . S
C541 H520 0.950 . S
C541 C540 1.373 . S
C541 C557 1.377 . S
C542 C540 1.389 . S
C542 C543 1.524 . S
C542 C556 1.377 . S
C543 C542 1.524 . S
C543 C544 1.397 . S
C543 C548 1.363 . S
C544 H521 0.950 . S
C544 C543 1.397 . S
C544 C545 1.334 . S
C545 H522 0.950 . S
C545 C544 1.334 . S
C545 C546 1.287 . S
C546 C545 1.287 . S
C546 C547 1.524 . S
C546 H565 0.913 . S
C547 H523 0.950 . S
C547 C546 1.524 . S
C547 C548 1.415 . S
C548 H524 0.950 . S
C548 C543 1.363 . S
C548 C547 1.415 . S
C549 H525 0.951 . S
C549 C550 1.366 . S
C549 C551 1.388 . S
C550 C549 1.366 . S
C550 C554 1.385 . S
C551 H526 0.951 . S
C551 C549 1.388 . S
C551 C552 1.366 . S
C552 C551 1.366 . S
C552 C553 1.414 . S
C552 C555 1.499 . S
C553 H527 0.950 . S
C553 C552 1.414 . S
C553 C554 1.374 . S
C554 H528 0.950 . S
C554 C550 1.385 . S
C554 C553 1.374 . S
C555 C552 1.499 . S
C555 C556 1.373 . S
C555 C557 1.389 . S
C556 H529 0.950 . S
C556 C542 1.377 . S
C556 C555 1.373 . S
C557 C541 1.377 . S
C557 C555 1.389 . S
C557 C558 1.524 . S
C558 C557 1.524 . S
C558 C559 1.397 . S
C558 C563 1.363 . S
C559 H530 0.950 . S
C559 C558 1.397 . S
C559 C560 1.334 1_545 S
C560 H531 0.950 . S
C560 C559 1.334 1_565 S
C560 C561 1.287 . S
C561 C560 1.287 . S
C561 C562 1.524 . S
C561 H564 0.999 . S
C562 H532 0.950 . S
C562 C561 1.524 . S
C562 C563 1.415 1_565 S
C563 H533 0.950 . S
C563 C558 1.363 . S
C563 C562 1.415 1_545 S
H564 C561 0.999 . S
H565 C546 0.913 . S
H566 C584 0.951 . S
H567 C586 0.951 . S
H568 C588 0.950 . S
H569 C589 0.950 . S
H570 C591 0.950 . S
H571 C594 0.950 . S
H572 C595 0.950 . S
H573 C597 0.950 . S
H574 C598 0.950 . S
H575 C599 0.951 . S
H576 C601 0.951 . S
H577 C603 0.950 . S
H578 C604 0.950 . S
H579 C606 0.950 . S
H580 C609 0.950 . S
H581 C610 0.950 . S
H582 C612 0.950 . S
H583 C613 0.950 . S
C584 H566 0.951 . S
C584 C585 1.366 . S
C584 C586 1.388 . S
C585 C584 1.366 . S
C585 C589 1.385 . S
C586 H567 0.951 . S
C586 C584 1.388 . S
C586 C587 1.366 . S
C587 C586 1.366 . S
C587 C588 1.414 . S
C587 C590 1.499 . S
C588 H568 0.950 . S
C588 C587 1.414 . S
C588 C589 1.374 . S
C589 H569 0.950 . S
C589 C585 1.385 . S
C589 C588 1.374 . S
C590 C587 1.499 . S
C590 C591 1.373 . S
C590 C592 1.389 . S
C591 H570 0.950 . S
C591 C590 1.373 . S
C591 C607 1.377 . S
C592 C590 1.389 . S
C592 C593 1.524 . S
C592 C606 1.377 . S
C593 C592 1.524 . S
C593 C594 1.397 . S
C593 C598 1.363 . S
C594 H571 0.950 . S
C594 C593 1.397 . S
C594 C595 1.334 . S
C595 H572 0.950 . S
C595 C594 1.334 . S
C595 C596 1.287 . S
C596 C595 1.287 . S
C596 C597 1.524 . S
C596 H615 0.913 . S
C597 H573 0.950 . S
C597 C596 1.524 . S
C597 C598 1.415 . S
C598 H574 0.950 . S
C598 C593 1.363 . S
C598 C597 1.415 . S
C599 H575 0.951 . S
C599 C600 1.366 . S
C599 C601 1.388 . S
C600 C599 1.366 . S
C600 C604 1.385 . S
C601 H576 0.951 . S
C601 C599 1.388 . S
C601 C602 1.366 . S
C602 C601 1.366 . S
C602 C603 1.414 . S
C602 C605 1.499 . S
C603 H577 0.950 . S
C603 C602 1.414 . S
C603 C604 1.374 . S
C604 H578 0.950 . S
C604 C600 1.385 . S
C604 C603 1.374 . S
C605 C602 1.499 . S
C605 C606 1.373 . S
C605 C607 1.389 . S
C606 H579 0.950 . S
C606 C592 1.377 . S
C606 C605 1.373 . S
C607 C591 1.377 . S
C607 C605 1.389 . S
C607 C608 1.524 . S
C608 C607 1.524 . S
C608 C609 1.397 . S
C608 C613 1.363 . S
C609 H580 0.950 . S
C609 C608 1.397 . S
C609 C610 1.334 . S
C610 H581 0.950 . S
C610 C609 1.334 . S
C610 C611 1.287 . S
C611 C610 1.287 . S
C611 C612 1.524 . S
C611 H614 0.999 . S
C612 H582 0.950 . S
C612 C611 1.524 . S
C612 C613 1.415 . S
C613 H583 0.950 . S
C613 C608 1.363 . S
C613 C612 1.415 . S
H614 C611 0.999 . S
H615 C596 0.913 . S
H616 C634 0.951 . S
H617 C636 0.951 . S
H618 C638 0.950 . S
H619 C639 0.950 . S
H620 C641 0.950 . S
H621 C644 0.950 . S
H622 C645 0.950 . S
H623 C647 0.950 . S
H624 C648 0.950 . S
H625 C649 0.951 . S
H626 C651 0.951 . S
H627 C653 0.950 . S
H628 C654 0.950 . S
H629 C656 0.950 . S
H630 C659 0.950 . S
H631 C660 0.950 . S
H632 C662 0.950 . S
H633 C663 0.950 . S
C634 H616 0.951 . S
C634 C635 1.366 . S
C634 C636 1.388 . S
C635 C634 1.366 . S
C635 C639 1.385 . S
C636 H617 0.951 . S
C636 C634 1.388 . S
C636 C637 1.366 . S
C637 C636 1.366 . S
C637 C638 1.414 . S
C637 C640 1.499 . S
C638 H618 0.950 . S
C638 C637 1.414 . S
C638 C639 1.374 . S
C639 H619 0.950 . S
C639 C635 1.385 . S
C639 C638 1.374 . S
C640 C637 1.499 . S
C640 C641 1.373 . S
C640 C642 1.389 . S
C641 H620 0.950 . S
C641 C640 1.373 . S
C641 C657 1.377 . S
C642 C640 1.389 . S
C642 C643 1.524 . S
C642 C656 1.377 . S
C643 C642 1.524 . S
C643 C644 1.397 . S
C643 C648 1.363 . S
C644 H621 0.950 . S
C644 C643 1.397 . S
C644 C645 1.334 . S
C645 H622 0.950 . S
C645 C644 1.334 . S
C645 C646 1.287 . S
C646 C645 1.287 . S
C646 C647 1.524 . S
C646 H665 0.913 . S
C647 H623 0.950 . S
C647 C646 1.524 . S
C647 C648 1.415 . S
C648 H624 0.950 . S
C648 C643 1.363 . S
C648 C647 1.415 . S
C649 H625 0.951 . S
C649 C650 1.366 . S
C649 C651 1.388 . S
C650 C649 1.366 . S
C650 C654 1.385 . S
C651 H626 0.951 . S
C651 C649 1.388 . S
C651 C652 1.366 . S
C652 C651 1.366 . S
C652 C653 1.414 . S
C652 C655 1.499 . S
C653 H627 0.950 . S
C653 C652 1.414 . S
C653 C654 1.374 . S
C654 H628 0.950 . S
C654 C650 1.385 . S
C654 C653 1.374 . S
C655 C652 1.499 . S
C655 C656 1.373 . S
C655 C657 1.389 . S
C656 H629 0.950 . S
C656 C642 1.377 . S
C656 C655 1.373 . S
C657 C641 1.377 . S
C657 C655 1.389 . S
C657 C658 1.524 . S
C658 C657 1.524 . S
C658 C659 1.397 . S
C658 C663 1.363 . S
C659 H630 0.950 . S
C659 C658 1.397 . S
C659 C660 1.334 . S
C660 H631 0.950 . S
C660 C659 1.334 . S
C660 C661 1.287 . S
C661 C660 1.287 . S
C661 C662 1.524 . S
C661 H664 0.999 . S
C662 H632 0.950 . S
C662 C661 1.524 . S
C662 C663 1.415 . S
C663 H633 0.950 . S
C663 C658 1.363 . S
C663 C662 1.415 . S
H664 C661 0.999 . S
H665 C646 0.913 . S
H666 C684 0.951 1_554 S
H667 C686 0.951 . S
H668 C688 0.950 . S
H669 C689 0.950 . S
H670 C691 0.950 . S
H671 C694 0.950 . S
H672 C695 0.950 . S
H673 C697 0.950 . S
H674 C698 0.950 . S
H675 C699 0.951 . S
H676 C701 0.951 . S
H677 C703 0.950 . S
H678 C704 0.950 . S
H679 C706 0.950 . S
H680 C709 0.950 . S
H681 C710 0.919 1_565 S
H682 C712 0.950 . S
H683 C713 0.950 . S
C684 H666 0.951 1_556 S
C684 C685 1.366 . S
C684 C686 1.388 . S
C685 C684 1.366 . S
C685 C689 1.385 . S
C686 H667 0.951 . S
C686 C684 1.388 . S
C686 C687 1.366 . S
C687 C686 1.366 . S
C687 C688 1.414 . S
C687 C690 1.499 . S
C688 H668 0.950 . S
C688 C687 1.414 . S
C688 C689 1.374 . S
C689 H669 0.950 . S
C689 C685 1.385 . S
C689 C688 1.374 . S
C690 C687 1.499 . S
C690 C691 1.373 . S
C690 C692 1.389 . S
C691 H670 0.950 . S
C691 C690 1.373 . S
C691 C707 1.377 . S
C692 C690 1.389 . S
C692 C693 1.524 . S
C692 C706 1.377 . S
C693 C692 1.524 . S
C693 C694 1.397 . S
C693 C698 1.363 . S
C694 H671 0.950 . S
C694 C693 1.397 . S
C694 C695 1.334 . S
C695 H672 0.950 . S
C695 C694 1.334 . S
C695 C696 1.287 . S
C696 C695 1.287 . S
C696 C697 1.524 . S
C696 H715 0.913 . S
C697 H673 0.950 . S
C697 C696 1.524 . S
C697 C698 1.415 . S
C698 H674 0.950 . S
C698 C693 1.363 . S
C698 C697 1.415 . S
C699 H675 0.951 . S
C699 C700 1.366 . S
C699 C701 1.388 . S
C700 C699 1.366 . S
C700 C704 1.385 . S
C701 H676 0.951 . S
C701 C699 1.388 . S
C701 C702 1.366 . S
C702 C701 1.366 . S
C702 C703 1.414 . S
C702 C705 1.499 . S
C703 H677 0.950 . S
C703 C702 1.414 . S
C703 C704 1.374 . S
C704 H678 0.950 . S
C704 C700 1.385 . S
C704 C703 1.374 . S
C705 C702 1.499 . S
C705 C706 1.373 . S
C705 C707 1.389 . S
C706 H679 0.950 . S
C706 C692 1.377 . S
C706 C705 1.373 . S
C707 C691 1.377 . S
C707 C705 1.389 . S
C707 C708 1.524 . S
C708 C707 1.524 . S
C708 C709 1.397 . S
C708 C713 1.363 . S
C709 H680 0.950 . S
C709 C708 1.397 . S
C709 C710 1.361 . S
C710 H681 0.919 1_545 S
C710 C709 1.361 . S
C710 C711 1.293 . S
C711 C710 1.293 . S
C711 C712 1.524 . S
C711 H714 0.999 1_545 S
C712 H682 0.950 . S
C712 C711 1.524 . S
C712 C713 1.415 . S
C713 H683 0.950 . S
C713 C708 1.363 . S
C713 C712 1.415 . S
H714 C711 0.999 1_565 S
H715 C696 0.913 . S
H716 C734 0.951 . S
H717 C736 0.951 . S
H718 C738 0.950 . S
H719 C739 0.950 . S
H720 C741 0.950 . S
H721 C744 0.950 . S
H722 C745 0.950 . S
H723 C747 0.950 . S
H724 C748 0.950 . S
H725 C749 0.951 . S
H726 C751 0.951 . S
H727 C753 0.950 . S
H728 C754 0.950 . S
H729 C756 0.950 . S
H730 C759 0.950 . S
H731 C760 0.950 . S
H732 C762 0.950 . S
H733 C763 0.950 . S
C734 H716 0.951 . S
C734 C735 1.366 . S
C734 C736 1.388 . S
C735 C734 1.366 . S
C735 C739 1.385 . S
C736 H717 0.951 . S
C736 C734 1.388 . S
C736 C737 1.366 . S
C737 C736 1.366 . S
C737 C738 1.414 . S
C737 C740 1.499 . S
C738 H718 0.950 . S
C738 C737 1.414 . S
C738 C739 1.374 . S
C739 H719 0.950 . S
C739 C735 1.385 . S
C739 C738 1.374 . S
C740 C737 1.499 . S
C740 C741 1.373 . S
C740 C742 1.389 . S
C741 H720 0.950 . S
C741 C740 1.373 . S
C741 C757 1.377 . S
C742 C740 1.389 . S
C742 C743 1.524 . S
C742 C756 1.377 . S
C743 C742 1.524 . S
C743 C744 1.397 . S
C743 C748 1.363 . S
C744 H721 0.950 . S
C744 C743 1.397 . S
C744 C745 1.334 . S
C745 H722 0.950 . S
C745 C744 1.334 . S
C745 C746 1.287 . S
C746 C745 1.287 . S
C746 C747 1.524 . S
C746 H765 0.913 . S
C747 H723 0.950 . S
C747 C746 1.524 . S
C747 C748 1.415 . S
C748 H724 0.950 . S
C748 C743 1.363 . S
C748 C747 1.415 . S
C749 H725 0.951 . S
C749 C750 1.366 . S
C749 C751 1.388 . S
C750 C749 1.366 . S
C750 C754 1.385 . S
C751 H726 0.951 . S
C751 C749 1.388 . S
C751 C752 1.366 . S
C752 C751 1.366 . S
C752 C753 1.414 . S
C752 C755 1.499 . S
C753 H727 0.950 . S
C753 C752 1.414 . S
C753 C754 1.374 . S
C754 H728 0.950 . S
C754 C750 1.385 . S
C754 C753 1.374 . S
C755 C752 1.499 . S
C755 C756 1.373 . S
C755 C757 1.389 . S
C756 H729 0.950 . S
C756 C742 1.377 . S
C756 C755 1.373 . S
C757 C741 1.377 . S
C757 C755 1.389 . S
C757 C758 1.524 . S
C758 C757 1.524 . S
C758 C759 1.397 . S
C758 C763 1.363 . S
C759 H730 0.950 . S
C759 C758 1.397 . S
C759 C760 1.334 . S
C760 H731 0.950 . S
C760 C759 1.334 . S
C760 C761 1.287 . S
C761 C760 1.287 . S
C761 C762 1.524 . S
C761 H764 0.999 . S
C762 H732 0.950 . S
C762 C761 1.524 . S
C762 C763 1.415 . S
C763 H733 0.950 . S
C763 C758 1.363 . S
C763 C762 1.415 . S
H764 C761 0.999 . S
H765 C746 0.913 . S
H766 C784 0.951 . S
H767 C786 0.951 . S
H768 C788 0.950 . S
H769 C789 0.950 . S
H770 C791 0.950 . S
H771 C794 0.950 . S
H772 C795 0.950 . S
H773 C797 0.950 . S
H774 C798 0.950 . S
H775 C799 0.951 . S
H776 C801 0.951 . S
H777 C803 0.950 . S
H778 C804 0.950 1_545 S
H779 C806 0.950 . S
H780 C809 0.950 . S
H781 C810 0.950 . S
H782 C812 0.950 . S
H783 C813 0.950 . S
C784 H766 0.951 . S
C784 C785 1.366 . S
C784 C786 1.388 . S
C785 C784 1.366 . S
C785 C789 1.385 . S
C786 H767 0.951 . S
C786 C784 1.388 . S
C786 C787 1.366 . S
C787 C786 1.366 . S
C787 C788 1.414 . S
C787 C790 1.499 . S
C788 H768 0.950 . S
C788 C787 1.414 . S
C788 C789 1.374 . S
C789 H769 0.950 . S
C789 C785 1.385 . S
C789 C788 1.374 . S
C790 C787 1.499 . S
C790 C791 1.373 . S
C790 C792 1.389 . S
C791 H770 0.950 . S
C791 C790 1.373 . S
C791 C807 1.377 . S
C792 C790 1.389 . S
C792 C793 1.524 . S
C792 C806 1.377 . S
C793 C792 1.524 . S
C793 C794 1.397 . S
C793 C798 1.363 . S
C794 H771 0.950 . S
C794 C793 1.397 . S
C794 C795 1.334 . S
C795 H772 0.950 . S
C795 C794 1.334 . S
C795 C796 1.287 . S
C796 C795 1.287 . S
C796 C797 1.524 . S
C796 H815 0.913 . S
C797 H773 0.950 . S
C797 C796 1.524 . S
C797 C798 1.415 . S
C798 H774 0.950 . S
C798 C793 1.363 . S
C798 C797 1.415 . S
C799 H775 0.951 . S
C799 C800 1.366 . S
C799 C801 1.388 . S
C800 C799 1.366 . S
C800 C804 1.385 . S
C801 H776 0.951 . S
C801 C799 1.388 . S
C801 C802 1.366 . S
C802 C801 1.366 . S
C802 C803 1.414 . S
C802 C805 1.499 . S
C803 H777 0.950 . S
C803 C802 1.414 . S
C803 C804 1.374 . S
C804 H778 0.950 1_565 S
C804 C800 1.385 . S
C804 C803 1.374 . S
C805 C802 1.499 . S
C805 C806 1.373 . S
C805 C807 1.389 . S
C806 H779 0.950 . S
C806 C792 1.377 . S
C806 C805 1.373 . S
C807 C791 1.377 . S
C807 C805 1.389 . S
C807 C808 1.524 . S
C808 C807 1.524 . S
C808 C809 1.397 . S
C808 C813 1.363 . S
C809 H780 0.950 . S
C809 C808 1.397 . S
C809 C810 1.334 . S
C810 H781 0.950 . S
C810 C809 1.334 . S
C810 C811 1.287 . S
C811 C810 1.287 . S
C811 C812 1.524 . S
C811 H814 0.999 . S
C812 H782 0.950 . S
C812 C811 1.524 . S
C812 C813 1.415 . S
C813 H783 0.950 . S
C813 C808 1.363 . S
C813 C812 1.415 . S
H814 C811 0.999 . S
H815 C796 0.913 . S
C250 C116 1.679 . S
C235 C40 1.689 . S
C285 C4 1.691 . S
C300 C188 1.669 . S
C335 C16 1.690 . S
C350 C104 1.695 . S
C385 C28 1.660 . S
C400 C200 1.656 . S
C450 C106 1.462 . S
C435 C9 1.633 . S
C500 C187 1.735 . S
C485 C18 1.735 . S
C535 C33 1.655 . S
C550 C103 1.666 . S
C585 C45 1.625 . S
C600 C190 1.456 . S
C650 C202 1.410 . S
C635 C21 1.579 . S
C700 C118 1.408 . S
C685 C30 1.584 . S
C750 C199 1.659 . S
C735 C42 1.650 . S
C785 C6 1.587 . S
C800 C115 1.598 . S
