# Generated by pormake.
# Topology ctn, (3,4)-cn, num edge types: 1
# Building blocks:
#     Node 0, Type 0, BuildingBlock: ESEHIV_clean_linker_0, # of connection points: 3
#     Node 1, Type 0, BuildingBlock: ESEHIV_clean_linker_0, # of connection points: 3
#     Node 2, Type 0, BuildingBlock: ESEHIV_clean_linker_0, # of connection points: 3
#     Node 3, Type 0, BuildingBlock: ESEHIV_clean_linker_0, # of connection points: 3
#     Node 4, Type 0, BuildingBlock: ESEHIV_clean_linker_0, # of connection points: 3
#     Node 5, Type 0, BuildingBlock: ESEHIV_clean_linker_0, # of connection points: 3
#     Node 6, Type 0, BuildingBlock: ESEHIV_clean_linker_0, # of connection points: 3
#     Node 7, Type 0, BuildingBlock: ESEHIV_clean_linker_0, # of connection points: 3
#     Node 8, Type 0, BuildingBlock: ESEHIV_clean_linker_0, # of connection points: 3
#     Node 9, Type 0, BuildingBlock: ESEHIV_clean_linker_0, # of connection points: 3
#     Node 10, Type 0, BuildingBlock: ESEHIV_clean_linker_0, # of connection points: 3
#     Node 11, Type 0, BuildingBlock: ESEHIV_clean_linker_0, # of connection points: 3
#     Node 12, Type 0, BuildingBlock: ESEHIV_clean_linker_0, # of connection points: 3
#     Node 13, Type 0, BuildingBlock: ESEHIV_clean_linker_0, # of connection points: 3
#     Node 14, Type 0, BuildingBlock: ESEHIV_clean_linker_0, # of connection points: 3
#     Node 15, Type 0, BuildingBlock: ESEHIV_clean_linker_0, # of connection points: 3
#     Node 16, Type 1, BuildingBlock: AZAVOO_clean_sbu_0, # of connection points: 4
#     Node 17, Type 1, BuildingBlock: AZAVOO_clean_sbu_0, # of connection points: 4
#     Node 18, Type 1, BuildingBlock: AZAVOO_clean_sbu_0, # of connection points: 4
#     Node 19, Type 1, BuildingBlock: AZAVOO_clean_sbu_0, # of connection points: 4
#     Node 20, Type 1, BuildingBlock: AZAVOO_clean_sbu_0, # of connection points: 4
#     Node 21, Type 1, BuildingBlock: AZAVOO_clean_sbu_0, # of connection points: 4
#     Node 22, Type 1, BuildingBlock: AZAVOO_clean_sbu_0, # of connection points: 4
#     Node 23, Type 1, BuildingBlock: AZAVOO_clean_sbu_0, # of connection points: 4
#     Node 24, Type 1, BuildingBlock: AZAVOO_clean_sbu_0, # of connection points: 4
#     Node 25, Type 1, BuildingBlock: AZAVOO_clean_sbu_0, # of connection points: 4
#     Node 26, Type 1, BuildingBlock: AZAVOO_clean_sbu_0, # of connection points: 4
#     Node 27, Type 1, BuildingBlock: AZAVOO_clean_sbu_0, # of connection points: 4
#     Edge 28, Type (0, 1), BuildingBlock: XUDNAN_clean_linker_2, # of connection points: 2
#     Edge 29, Type (0, 1), BuildingBlock: XUDNAN_clean_linker_2, # of connection points: 2
#     Edge 30, Type (0, 1), BuildingBlock: XUDNAN_clean_linker_2, # of connection points: 2
#     Edge 31, Type (0, 1), BuildingBlock: XUDNAN_clean_linker_2, # of connection points: 2
#     Edge 32, Type (0, 1), BuildingBlock: XUDNAN_clean_linker_2, # of connection points: 2
#     Edge 33, Type (0, 1), BuildingBlock: XUDNAN_clean_linker_2, # of connection points: 2
#     Edge 34, Type (0, 1), BuildingBlock: XUDNAN_clean_linker_2, # of connection points: 2
#     Edge 35, Type (0, 1), BuildingBlock: XUDNAN_clean_linker_2, # of connection points: 2
#     Edge 36, Type (0, 1), BuildingBlock: XUDNAN_clean_linker_2, # of connection points: 2
#     Edge 37, Type (0, 1), BuildingBlock: XUDNAN_clean_linker_2, # of connection points: 2
#     Edge 38, Type (0, 1), BuildingBlock: XUDNAN_clean_linker_2, # of connection points: 2
#     Edge 39, Type (0, 1), BuildingBlock: XUDNAN_clean_linker_2, # of connection points: 2
#     Edge 40, Type (0, 1), BuildingBlock: XUDNAN_clean_linker_2, # of connection points: 2
#     Edge 41, Type (0, 1), BuildingBlock: XUDNAN_clean_linker_2, # of connection points: 2
#     Edge 42, Type (0, 1), BuildingBlock: XUDNAN_clean_linker_2, # of connection points: 2
#     Edge 43, Type (0, 1), BuildingBlock: XUDNAN_clean_linker_2, # of connection points: 2
#     Edge 44, Type (0, 1), BuildingBlock: XUDNAN_clean_linker_2, # of connection points: 2
#     Edge 45, Type (0, 1), BuildingBlock: XUDNAN_clean_linker_2, # of connection points: 2
#     Edge 46, Type (0, 1), BuildingBlock: XUDNAN_clean_linker_2, # of connection points: 2
#     Edge 47, Type (0, 1), BuildingBlock: XUDNAN_clean_linker_2, # of connection points: 2
#     Edge 48, Type (0, 1), BuildingBlock: XUDNAN_clean_linker_2, # of connection points: 2
#     Edge 49, Type (0, 1), BuildingBlock: XUDNAN_clean_linker_2, # of connection points: 2
#     Edge 50, Type (0, 1), BuildingBlock: XUDNAN_clean_linker_2, # of connection points: 2
#     Edge 51, Type (0, 1), BuildingBlock: XUDNAN_clean_linker_2, # of connection points: 2
#     Edge 52, Type (0, 1), BuildingBlock: XUDNAN_clean_linker_2, # of connection points: 2
#     Edge 53, Type (0, 1), BuildingBlock: XUDNAN_clean_linker_2, # of connection points: 2
#     Edge 54, Type (0, 1), BuildingBlock: XUDNAN_clean_linker_2, # of connection points: 2
#     Edge 55, Type (0, 1), BuildingBlock: XUDNAN_clean_linker_2, # of connection points: 2
#     Edge 56, Type (0, 1), BuildingBlock: XUDNAN_clean_linker_2, # of connection points: 2
#     Edge 57, Type (0, 1), BuildingBlock: XUDNAN_clean_linker_2, # of connection points: 2
#     Edge 58, Type (0, 1), BuildingBlock: XUDNAN_clean_linker_2, # of connection points: 2
#     Edge 59, Type (0, 1), BuildingBlock: XUDNAN_clean_linker_2, # of connection points: 2
#     Edge 60, Type (0, 1), BuildingBlock: XUDNAN_clean_linker_2, # of connection points: 2
#     Edge 61, Type (0, 1), BuildingBlock: XUDNAN_clean_linker_2, # of connection points: 2
#     Edge 62, Type (0, 1), BuildingBlock: XUDNAN_clean_linker_2, # of connection points: 2
#     Edge 63, Type (0, 1), BuildingBlock: XUDNAN_clean_linker_2, # of connection points: 2
#     Edge 64, Type (0, 1), BuildingBlock: XUDNAN_clean_linker_2, # of connection points: 2
#     Edge 65, Type (0, 1), BuildingBlock: XUDNAN_clean_linker_2, # of connection points: 2
#     Edge 66, Type (0, 1), BuildingBlock: XUDNAN_clean_linker_2, # of connection points: 2
#     Edge 67, Type (0, 1), BuildingBlock: XUDNAN_clean_linker_2, # of connection points: 2
#     Edge 68, Type (0, 1), BuildingBlock: XUDNAN_clean_linker_2, # of connection points: 2
#     Edge 69, Type (0, 1), BuildingBlock: XUDNAN_clean_linker_2, # of connection points: 2
#     Edge 70, Type (0, 1), BuildingBlock: XUDNAN_clean_linker_2, # of connection points: 2
#     Edge 71, Type (0, 1), BuildingBlock: XUDNAN_clean_linker_2, # of connection points: 2
#     Edge 72, Type (0, 1), BuildingBlock: XUDNAN_clean_linker_2, # of connection points: 2
#     Edge 73, Type (0, 1), BuildingBlock: XUDNAN_clean_linker_2, # of connection points: 2
#     Edge 74, Type (0, 1), BuildingBlock: XUDNAN_clean_linker_2, # of connection points: 2
#     Edge 75, Type (0, 1), BuildingBlock: XUDNAN_clean_linker_2, # of connection points: 2
# Relax obj value: 0.002
# Max RMSD: 0.042
# Mean RMSD: 0.023
data_MOF--net-ctn--node1-AZAVOO_clean_sbu_0--node2-ESEHIV_clean_linker_0--edge1-XUDNAN_clean_linker_2
_symmetry_space_group_name_H-M    P1
_symmetry_Int_Tables_number       1
_symmetry_cell_setting            triclinic
loop_
_symmetry_equiv_pos_as_xyz
'x, y, z'
_cell_length_a     50.982253
_cell_length_b     51.997035
_cell_length_c     51.765092
_cell_angle_alpha  90.174211
_cell_angle_beta   93.159709
_cell_angle_gamma 93.470906
loop_
_atom_site_label
_atom_site_type_symbol
_atom_site_fract_x
_atom_site_fract_y
_atom_site_fract_z
_atom_type_partial_charge
H0 H 0.00189 0.0439 0.03398 0.0
H1 H 0.05333 0.98197 0.04855 0.0
H2 H 0.06088 0.02794 0.98088 0.0
C3 C 0.01703 0.03184 0.02798 0.0
C4 C 0.02936 0.03768 0.00481 0.0
C5 C 0.02528 0.01172 0.04417 0.0
C6 C 0.04638 0.99752 0.03666 0.0
C7 C 0.05981 0.00414 0.01451 0.0
C8 C 0.05076 0.0236 0.99835 0.0
H9 H 0.31541 0.69348 0.26069 0.0
H10 H 0.35549 0.7516 0.21568 0.0
H11 H 0.27554 0.72506 0.19409 0.0
C12 C 0.31566 0.70649 0.24436 0.0
C13 C 0.29307 0.70728 0.22778 0.0
C14 C 0.33832 0.72241 0.24035 0.0
C15 C 0.33804 0.7395 0.2193 0.0
C16 C 0.31534 0.74075 0.20266 0.0
C17 C 0.29283 0.72477 0.20724 0.0
H18 H 0.98649 0.51762 0.06734 0.0
H19 H 0.02643 0.44744 0.06399 0.0
H20 H 0.95622 0.45639 0.01561 0.0
C21 C 0.98785 0.49855 0.05918 0.0
C22 C 0.96855 0.48881 0.04062 0.0
C23 C 0.00867 0.48374 0.06774 0.0
C24 C 0.01038 0.45899 0.05739 0.0
C25 C 0.99185 0.44927 0.03816 0.0
C26 C 0.97107 0.46431 0.02971 0.0
H27 H 0.68543 0.77317 0.20631 0.0
H28 H 0.76045 0.81144 0.19322 0.0
H29 H 0.70592 0.84698 0.24114 0.0
C30 C 0.69936 0.78962 0.20948 0.0
C31 C 0.69317 0.80986 0.22558 0.0
C32 C 0.72324 0.79056 0.19714 0.0
C33 C 0.74155 0.81169 0.20172 0.0
C34 C 0.73596 0.83216 0.21816 0.0
C35 C 0.71115 0.83128 0.22909 0.0
H36 H 0.02273 0.93924 0.46747 0.0
H37 H 0.06191 0.01366 0.45616 0.0
H38 H 0.09643 0.95973 0.50893 0.0
C39 C 0.03894 0.95324 0.47217 0.0
C40 C 0.05948 0.94669 0.48968 0.0
C41 C 0.0396 0.97745 0.4601 0.0
C42 C 0.06095 0.99532 0.46605 0.0
C43 C 0.08178 0.98908 0.48346 0.0
C44 C 0.08073 0.96471 0.49523 0.0
H45 H 0.16519 0.73219 0.77499 0.0
H46 H 0.2433 0.7117 0.79879 0.0
H47 H 0.20429 0.67716 0.73067 0.0
C48 C 0.18237 0.72158 0.77177 0.0
C49 C 0.18197 0.70439 0.75061 0.0
C50 C 0.20442 0.72425 0.78941 0.0
C51 C 0.22623 0.70971 0.78539 0.0
C52 C 0.22629 0.69239 0.76456 0.0
C53 C 0.20411 0.68999 0.74718 0.0
H54 H 0.92739 0.508 0.49661 0.0
H55 H 0.99164 0.54178 0.45481 0.0
H56 H 0.95227 0.46994 0.42939 0.0
C57 C 0.94037 0.50757 0.48076 0.0
C58 C 0.93771 0.48661 0.46347 0.0
C59 C 0.95998 0.52756 0.4781 0.0
C60 C 0.97645 0.52662 0.45712 0.0
C61 C 0.97358 0.50608 0.43917 0.0
C62 C 0.95426 0.48615 0.44271 0.0
H63 H 0.77147 0.78869 0.81825 0.0
H64 H 0.80798 0.82339 0.75337 0.0
H65 H 0.83164 0.75001 0.78164 0.0
C66 C 0.78547 0.78797 0.80338 0.0
C67 C 0.80218 0.76742 0.80293 0.0
C68 C 0.78674 0.80781 0.78505 0.0
C69 C 0.80574 0.80727 0.76639 0.0
C70 C 0.82225 0.78656 0.76482 0.0
C71 C 0.8199 0.76654 0.78304 0.0
H72 H 0.25079 0.29549 0.29806 0.0
H73 H 0.30392 0.31759 0.23975 0.0
H74 H 0.32228 0.25705 0.29373 0.0
C75 C 0.26915 0.29323 0.28894 0.0
C76 C 0.28549 0.27391 0.29756 0.0
C77 C 0.27606 0.30945 0.26853 0.0
C78 C 0.29943 0.30564 0.25613 0.0
C79 C 0.31665 0.2867 0.26469 0.0
C80 C 0.30954 0.2714 0.28608 0.0
H81 H 0.46808 0.02296 0.57789 0.0
H82 H 0.49933 0.95286 0.55203 0.0
H83 H 0.43874 0.98856 0.50581 0.0
C84 C 0.46846 0.00772 0.5636 0.0
C85 C 0.45131 0.00786 0.54148 0.0
C86 C 0.48588 0.98796 0.56759 0.0
C87 C 0.48634 0.96841 0.54876 0.0
C88 C 0.4691 0.96817 0.52646 0.0
C89 C 0.45173 0.98809 0.52307 0.0
H90 H 0.18799 0.27427 0.72178 0.0
H91 H 0.24104 0.33108 0.68909 0.0
H92 H 0.21413 0.3424 0.76559 0.0
C93 C 0.19943 0.29253 0.72336 0.0
C94 C 0.19897 0.3076 0.74587 0.0
C95 C 0.21423 0.30117 0.70273 0.0
C96 C 0.22938 0.32459 0.70499 0.0
C97 C 0.22966 0.33959 0.72769 0.0
C98 C 0.21388 0.3312 0.74786 0.0
H99 H 0.81443 0.19692 0.75716 0.0
H100 H 0.83115 0.26935 0.719 0.0
H101 H 0.76666 0.21807 0.69085 0.0
C102 C 0.81032 0.21074 0.7421 0.0
C103 C 0.78942 0.20483 0.72384 0.0
C104 C 0.82545 0.23431 0.74104 0.0
C105 C 0.81913 0.25168 0.7211 0.0
C106 C 0.79781 0.24622 0.70314 0.0
C107 C 0.78305 0.22267 0.70467 0.0
H108 H 0.5051 0.56282 0.54622 0.0
H109 H 0.54926 0.49486 0.54732 0.0
H110 H 0.56705 0.55533 0.49393 0.0
C111 C 0.52018 0.5517 0.53858 0.0
C112 C 0.53488 0.56196 0.51827 0.0
C113 C 0.52543 0.52776 0.54977 0.0
C114 C 0.54516 0.5136 0.53953 0.0
C115 C 0.56003 0.52343 0.51936 0.0
C116 C 0.55472 0.54746 0.50873 0.0
H117 H 0.51788 0.45052 0.97379 0.0
H118 H 0.55905 0.52284 0.95691 0.0
H119 H 0.59319 0.47136 0.01218 0.0
C120 C 0.53451 0.4643 0.97743 0.0
C121 C 0.55533 0.45813 0.99483 0.0
C122 C 0.53553 0.4878 0.9639 0.0
C123 C 0.55762 0.50523 0.96805 0.0
C124 C 0.57877 0.49912 0.98501 0.0
C125 C 0.57711 0.47587 0.99869 0.0
H126 H 0.66928 0.23086 0.27506 0.0
H127 H 0.74226 0.20421 0.30716 0.0
H128 H 0.70753 0.17091 0.23662 0.0
C129 C 0.68567 0.21871 0.27371 0.0
C130 C 0.68594 0.20111 0.25295 0.0
C131 C 0.70588 0.22001 0.29343 0.0
C132 C 0.72633 0.20313 0.29237 0.0
C133 C 0.72675 0.185 0.27228 0.0
C134 C 0.70686 0.18456 0.25236 0.0
H135 H 0.42972 0.03106 0.99313 0.0
H136 H 0.50256 0.05069 0.95791 0.0
H137 H 0.45025 0.98829 0.92697 0.0
C138 C 0.44332 0.02776 0.97824 0.0
C139 C 0.43731 0.00784 0.96019 0.0
C140 C 0.46677 0.04328 0.97758 0.0
C141 C 0.48425 0.039 0.95814 0.0
C142 C 0.47871 0.01895 0.93984 0.0
C143 C 0.45512 0.00345 0.94113 0.0
Mg144 Mg 0.239 0.84887 0.00662 0.0
O145 O 0.27436 0.87596 0.99639 0.0
O146 O 0.30849 0.85185 0.99092 0.0
Mg147 Mg 0.29563 0.80977 0.9995 0.0
C148 C 0.29829 0.8737 0.99097 0.0
C149 C 0.21553 0.90332 0.00632 0.0
O150 O 0.23887 0.90955 0.01735 0.0
O151 O 0.23429 0.83476 0.96466 0.0
O152 O 0.26705 0.80812 0.96326 0.0
O153 O 0.24967 0.85222 0.04904 0.0
O154 O 0.26489 0.82331 0.02339 0.0
C155 C 0.24671 0.81807 0.95288 0.0
C156 C 0.2647 0.83336 0.04614 0.0
O157 O 0.20995 0.88017 0.99902 0.0
Mg158 Mg 0.15366 0.51458 0.27485 0.0
O159 O 0.13246 0.51558 0.23407 0.0
O160 O 0.16329 0.52659 0.20619 0.0
Mg161 Mg 0.20365 0.52786 0.22744 0.0
C162 C 0.13938 0.52114 0.21126 0.0
C163 C 0.11509 0.50657 0.31685 0.0
O164 O 0.13592 0.51911 0.32789 0.0
O165 O 0.16739 0.47426 0.26601 0.0
O166 O 0.19695 0.48485 0.23673 0.0
O167 O 0.15192 0.55744 0.27851 0.0
O168 O 0.185 0.53829 0.26259 0.0
C169 C 0.18437 0.46811 0.25012 0.0
C170 C 0.17422 0.55931 0.26769 0.0
O171 O 0.11581 0.49973 0.29326 0.0
Mg172 Mg 0.78856 0.65211 0.02212 0.0
O173 O 0.75014 0.62753 0.01326 0.0
O174 O 0.7168 0.65333 0.00878 0.0
Mg175 Mg 0.73451 0.69483 0.01397 0.0
C176 C 0.72567 0.63089 0.00902 0.0
C177 C 0.82671 0.60855 0.03277 0.0
O178 O 0.82604 0.619 0.05584 0.0
O179 O 0.78942 0.66448 0.98013 0.0
O180 O 0.75677 0.6913 0.9763 0.0
O181 O 0.78181 0.65088 0.06427 0.0
O182 O 0.76816 0.68154 0.03825 0.0
C183 C 0.77566 0.67991 0.96681 0.0
C184 C 0.76947 0.67178 0.06112 0.0
O185 O 0.8127 0.61744 0.01418 0.0
Mg186 Mg 0.90966 0.02494 0.24677 0.0
O187 O 0.8813 0.98882 0.243 0.0
O188 O 0.90458 0.95427 0.23758 0.0
Mg189 Mg 0.94825 0.96806 0.24018 0.0
C190 C 0.8827 0.96466 0.23935 0.0
C191 C 0.86419 0.06386 0.2439 0.0
O192 O 0.87106 0.06542 0.21984 0.0
O193 O 0.92147 0.0143 0.28875 0.0
O194 O 0.94585 0.98063 0.28273 0.0
O195 O 0.91105 0.02873 0.20311 0.0
O196 O 0.93816 0.00666 0.22755 0.0
C197 C 0.93606 0.99679 0.29761 0.0
C198 C 0.9309 0.01433 0.20488 0.0
O199 O 0.87602 0.04884 0.25936 0.0
Mg200 Mg 0.26812 0.17238 0.51683 0.0
O201 O 0.23579 0.13877 0.51365 0.0
O202 O 0.19748 0.15726 0.50742 0.0
Mg203 Mg 0.20434 0.20097 0.50673 0.0
C204 C 0.21067 0.13723 0.51003 0.0
C205 C 0.30396 0.12081 0.51783 0.0
O206 O 0.30354 0.14542 0.513 0.0
O207 O 0.26419 0.17876 0.47298 0.0
O208 O 0.22558 0.19717 0.46898 0.0
O209 O 0.26409 0.17717 0.55974 0.0
O210 O 0.24129 0.19747 0.52971 0.0
C211 C 0.24608 0.18908 0.45925 0.0
C212 C 0.24644 0.1934 0.55388 0.0
O213 O 0.30307 0.1449 0.51321 0.0
Mg214 Mg 0.40811 0.53004 0.74841 0.0
O215 O 0.37648 0.4963 0.74547 0.0
O216 O 0.39752 0.45999 0.74288 0.0
Mg217 Mg 0.44195 0.47011 0.74424 0.0
C218 C 0.37629 0.47177 0.74351 0.0
C219 C 0.35448 0.55921 0.75016 0.0
O220 O 0.34481 0.54055 0.73462 0.0
O221 O 0.41884 0.52024 0.79081 0.0
O222 O 0.44127 0.48499 0.78627 0.0
O223 O 0.40909 0.53279 0.70512 0.0
O224 O 0.43448 0.50862 0.72929 0.0
C225 C 0.43251 0.50239 0.80044 0.0
C226 C 0.42744 0.51661 0.70661 0.0
O227 O 0.37818 0.55893 0.75927 0.0
Mg228 Mg 0.72575 0.3579 0.50466 0.0
O229 O 0.76863 0.37244 0.49757 0.0
O230 O 0.79204 0.33751 0.50199 0.0
Mg231 Mg 0.76612 0.30224 0.51285 0.0
C232 C 0.79045 0.36149 0.49726 0.0
C233 C 0.70706 0.41332 0.50466 0.0
O234 O 0.71941 0.41203 0.52751 0.0
O235 O 0.72213 0.33821 0.46485 0.0
O236 O 0.74472 0.30322 0.47252 0.0
O237 O 0.7326 0.36565 0.5471 0.0
O238 O 0.73926 0.32859 0.52864 0.0
C239 C 0.73039 0.31678 0.45752 0.0
C240 C 0.74071 0.34265 0.54922 0.0
O241 O 0.70824 0.39472 0.48882 0.0
Mg242 Mg 0.65301 0.00959 0.76689 0.0
O243 O 0.62437 0.0029 0.73109 0.0
O244 O 0.64795 0.99726 0.69668 0.0
Mg245 Mg 0.69169 0.00229 0.70984 0.0
C246 C 0.62584 0.99845 0.70692 0.0
C247 C 0.60987 0.02006 0.8065 0.0
O248 O 0.61939 0.0438 0.80321 0.0
O249 O 0.6633 0.96724 0.76751 0.0
O250 O 0.68907 0.96528 0.734 0.0
O251 O 0.6567 0.05257 0.76025 0.0
O252 O 0.68231 0.02485 0.7439 0.0
C253 C 0.67844 0.95501 0.75358 0.0
C254 C 0.67641 0.04836 0.74639 0.0
O255 O 0.61918 0.00188 0.79401 0.0
Mg256 Mg 0.02768 0.24784 0.90599 0.0
O257 O 0.99172 0.24953 0.87702 0.0
O258 O 0.95672 0.23488 0.89832 0.0
Mg259 Mg 0.96935 0.22403 0.93976 0.0
C260 C 0.96706 0.2437 0.87801 0.0
C261 C 0.07787 0.25945 0.88185 0.0
O262 O 0.08086 0.2422 0.90012 0.0
O263 O 0.0157 0.28415 0.92706 0.0
O264 O 0.98354 0.26576 0.94987 0.0
O265 O 0.03359 0.20644 0.89604 0.0
O266 O 0.00819 0.2185 0.92633 0.0
C267 C 0.99886 0.28513 0.94445 0.0
C268 C 0.01745 0.20017 0.91368 0.0
O269 O 0.05564 0.26929 0.87887 0.0
Mg270 Mg 0.53127 0.77137 0.40472 0.0
O271 O 0.49504 0.75719 0.37889 0.0
O272 O 0.46334 0.74309 0.40454 0.0
Mg273 Mg 0.47765 0.75164 0.44648 0.0
C274 C 0.47209 0.74698 0.38218 0.0
C275 C 0.56374 0.77227 0.35537 0.0
O276 O 0.56471 0.74805 0.36229 0.0
O277 O 0.51251 0.80948 0.41319 0.0
O278 O 0.48046 0.79505 0.43842 0.0
O279 O 0.54363 0.73038 0.40934 0.0
O280 O 0.51838 0.74941 0.43573 0.0
C281 C 0.493 0.8133 0.42696 0.0
C282 C 0.52977 0.72914 0.42953 0.0
O283 O 0.551 0.7873 0.36875 0.0
Mg284 Mg 0.98324 0.73695 0.59217 0.0
O285 O 0.01923 0.72681 0.61904 0.0
O286 O 0.04635 0.70779 0.59329 0.0
Mg287 Mg 0.03071 0.70917 0.55119 0.0
C288 C 0.0403 0.71538 0.61555 0.0
C289 C 0.9602 0.75111 0.64598 0.0
O290 O 0.96918 0.72886 0.65293 0.0
O291 O 0.00631 0.77248 0.57702 0.0
O292 O 0.03428 0.75367 0.55219 0.0
O293 O 0.96512 0.69702 0.59657 0.0
O294 O 0.99105 0.70848 0.56533 0.0
C295 C 0.02506 0.77383 0.56157 0.0
C296 C 0.97751 0.69056 0.57661 0.0
O297 O 0.96498 0.76002 0.62373 0.0
Mg298 Mg 0.48765 0.24619 0.10193 0.0
O299 O 0.52645 0.23432 0.12277 0.0
O300 O 0.55094 0.21814 0.09275 0.0
Mg301 Mg 0.53083 0.22436 0.05295 0.0
C302 C 0.54701 0.22359 0.11621 0.0
C303 C 0.45644 0.27757 0.14232 0.0
O304 O 0.44745 0.28948 0.12162 0.0
O305 O 0.50798 0.28424 0.08886 0.0
O306 O 0.53361 0.26832 0.05966 0.0
O307 O 0.47156 0.20556 0.10376 0.0
O308 O 0.49281 0.22108 0.07067 0.0
C309 C 0.52525 0.2873 0.07193 0.0
C310 C 0.4818 0.20153 0.08192 0.0
O311 O 0.47441 0.26187 0.14021 0.0
H312 H 0.22584 0.71592 0.83826 0.0
H313 H 0.18461 0.77245 0.79275 0.0
H314 H 0.18904 0.80241 0.83023 0.0
H315 H 0.20146 0.73027 0.90041 0.0
H316 H 0.23265 0.72579 0.91742 0.0
H317 H 0.22367 0.7082 0.88791 0.0
H318 H 0.26672 0.72616 0.86828 0.0
H319 H 0.27578 0.74389 0.89766 0.0
H320 H 0.27381 0.76052 0.86718 0.0
H321 H 0.19965 0.82675 0.87322 0.0
H322 H 0.21637 0.8432 0.91646 0.0
H323 H 0.25384 0.77154 0.93093 0.0
C324 C 0.2178 0.73462 0.83594 0.0
C325 C 0.205 0.7418 0.81236 0.0
C326 C 0.19424 0.7663 0.81065 0.0
C327 C 0.19682 0.78353 0.8318 0.0
C328 C 0.2103 0.77601 0.85447 0.0
C329 C 0.22063 0.75211 0.85654 0.0
C330 C 0.23551 0.74894 0.88229 0.0
C331 C 0.22254 0.727 0.89793 0.0
C332 C 0.26468 0.74463 0.87862 0.0
C333 C 0.2322 0.7749 0.89444 0.0
C334 C 0.21731 0.79021 0.87836 0.0
C335 C 0.21139 0.81491 0.88588 0.0
C336 C 0.22095 0.82409 0.91044 0.0
C337 C 0.23663 0.80876 0.92693 0.0
C338 C 0.24224 0.78389 0.91865 0.0
H339 H 0.027 0.51829 0.43878 0.0
H340 H 0.95951 0.49108 0.38918 0.0
H341 H 0.9884 0.48667 0.35292 0.0
H342 H 0.05943 0.55609 0.38988 0.0
H343 H 0.09196 0.54847 0.40165 0.0
H344 H 0.06587 0.5492 0.42367 0.0
H345 H 0.07439 0.50248 0.43764 0.0
H346 H 0.10034 0.50152 0.41548 0.0
H347 H 0.0734 0.47737 0.41346 0.0
H348 H 0.02498 0.48472 0.32196 0.0
H349 H 0.06596 0.48779 0.29833 0.0
H350 H 0.10909 0.51724 0.36794 0.0
C351 C 0.0182 0.51171 0.42023 0.0
C352 C 0.99094 0.50488 0.41696 0.0
C353 C 0.98038 0.49603 0.39236 0.0
C354 C 0.99662 0.49355 0.37158 0.0
C355 C 0.02343 0.5001 0.37558 0.0
C356 C 0.03412 0.50919 0.39923 0.0
C357 C 0.0635 0.51516 0.39837 0.0
C358 C 0.0706 0.54394 0.4037 0.0
C359 C 0.0788 0.49811 0.41737 0.0
C360 C 0.06766 0.50806 0.37054 0.0
C361 C 0.04435 0.49928 0.35772 0.0
C362 C 0.04335 0.49161 0.3318 0.0
C363 C 0.06674 0.49333 0.31856 0.0
C364 C 0.09076 0.50275 0.33122 0.0
C365 C 0.09109 0.50995 0.35763 0.0
H366 H 0.75995 0.74868 0.83045 0.0
H367 H 0.844 0.74202 0.82435 0.0
H368 H 0.84464 0.71367 0.86226 0.0
H369 H 0.76441 0.75763 0.89708 0.0
H370 H 0.73341 0.74066 0.90282 0.0
H371 H 0.7382 0.75592 0.87217 0.0
H372 H 0.72587 0.71251 0.84851 0.0
H373 H 0.721 0.69708 0.87916 0.0
H374 H 0.74349 0.68452 0.85732 0.0
H375 H 0.83722 0.68948 0.90346 0.0
H376 H 0.82311 0.67416 0.94589 0.0
H377 H 0.7452 0.70079 0.92774 0.0
C378 C 0.77858 0.74129 0.83685 0.0
C379 C 0.80191 0.74776 0.82402 0.0
C380 C 0.82563 0.73705 0.83317 0.0
C381 C 0.82626 0.72097 0.85491 0.0
C382 C 0.8031 0.71586 0.86753 0.0
C383 C 0.77971 0.72581 0.85889 0.0
C384 C 0.7583 0.72003 0.87758 0.0
C385 C 0.74799 0.74505 0.88803 0.0
C386 C 0.73584 0.70249 0.86488 0.0
C387 C 0.77351 0.70594 0.89851 0.0
C388 C 0.79913 0.70314 0.89202 0.0
C389 C 0.81716 0.6914 0.90865 0.0
C390 C 0.80893 0.68273 0.93271 0.0
C391 C 0.78306 0.68632 0.94018 0.0
C392 C 0.76509 0.69776 0.9226 0.0
H393 H 0.02101 0.94753 0.41875 0.0
H394 H 0.0126 0.02143 0.45536 0.0
H395 H 0.98077 0.03263 0.41987 0.0
H396 H 0.02157 0.9706 0.35569 0.0
H397 H 0.00377 0.94282 0.34097 0.0
H398 H 0.02303 0.93948 0.37079 0.0
H399 H 0.98192 0.91954 0.3924 0.0
H400 H 0.96249 0.92286 0.36257 0.0
H401 H 0.95238 0.93695 0.392 0.0
H402 H 0.95205 0.03676 0.37859 0.0
H403 H 0.9318 0.0348 0.33404 0.0
H404 H 0.96018 0.95852 0.32432 0.0
C405 C 0.01194 0.96579 0.41963 0.0
C406 C 0.01899 0.9835 0.43995 0.0
C407 C 0.00737 0.00757 0.43999 0.0
C408 C 0.98918 0.01401 0.42001 0.0
C409 C 0.98288 0.99621 0.40007 0.0
C410 C 0.994 0.97262 0.39973 0.0
C411 C 0.98586 0.95784 0.37504 0.0
C412 C 0.00999 0.95239 0.35972 0.0
C413 C 0.9697 0.93282 0.38086 0.0
C414 C 0.96893 0.97703 0.36122 0.0
C415 C 0.96701 -0.00114 0.37612 0.0
C416 C 0.95324 0.01965 0.36687 0.0
C417 C 0.94172 0.01832 0.34154 0.0
C418 C 0.94435 0.99652 0.3256 0.0
C419 C 0.95768 0.97545 0.33595 0.0
H420 H 0.23742 0.25599 0.69413 0.0
H421 H 0.18984 0.31294 0.65688 0.0
H422 H 0.18908 0.28864 0.61558 0.0
H423 H 0.27774 0.24782 0.64148 0.0
H424 H 0.28068 0.21375 0.64613 0.0
H425 H 0.27516 0.23409 0.67325 0.0
H426 H 0.23379 0.20512 0.68308 0.0
H427 H 0.23913 0.18476 0.65586 0.0
H428 H 0.20804 0.19915 0.65812 0.0
H429 H 0.19522 0.25967 0.57826 0.0
H430 H 0.21065 0.23001 0.54612 0.0
H431 H 0.25572 0.19202 0.60686 0.0
C432 C 0.22657 0.26301 0.67728 0.0
C433 C 0.21342 0.28608 0.67848 0.0
C434 C 0.19984 0.29518 0.65614 0.0
C435 C 0.19923 0.28146 0.63273 0.0
C436 C 0.21246 0.25879 0.63204 0.0
C437 C 0.22606 0.24969 0.65364 0.0
C438 C 0.24034 0.22594 0.64707 0.0
C439 C 0.27025 0.2307 0.65228 0.0
C440 C 0.22968 0.20235 0.66192 0.0
C441 C 0.233 0.22339 0.61833 0.0
C442 C 0.21657 0.24231 0.61021 0.0
C443 C 0.2079 0.24463 0.58441 0.0
C444 C 0.21674 0.22756 0.56627 0.0
C445 C 0.23426 0.20848 0.57391 0.0
C446 C 0.24208 0.20615 0.60042 0.0
H447 H 0.47457 0.53591 0.56364 0.0
H448 H 0.54574 0.4997 0.59047 0.0
H449 H 0.52502 0.48721 0.63052 0.0
H450 H 0.46546 0.56505 0.6231 0.0
H451 H 0.43001 0.56177 0.62043 0.0
H452 H 0.44828 0.56374 0.59169 0.0
H453 H 0.4251 0.52057 0.57527 0.0
H454 H 0.4068 0.51841 0.60409 0.0
H455 H 0.42645 0.49238 0.59538 0.0
H456 H 0.49874 0.48202 0.66946 0.0
H457 H 0.47039 0.48777 0.70575 0.0
H458 H 0.41767 0.53058 0.65583 0.0
C459 C 0.48589 0.52523 0.57775 0.0
C460 C 0.51184 0.51855 0.57331 0.0
C461 C 0.52559 0.50441 0.5926 0.0
C462 C 0.51403 0.49732 0.61568 0.0
C463 C 0.48872 0.50465 0.61952 0.0
C464 C 0.47486 0.51846 0.6012 0.0
C465 C 0.4492 0.52648 0.61137 0.0
C466 C 0.4482 0.55601 0.61167 0.0
C467 C 0.42548 0.51369 0.59558 0.0
C468 C 0.45124 0.51571 0.63856 0.0
C469 C 0.47391 0.50265 0.64259 0.0
C470 C 0.48079 0.49197 0.66647 0.0
C471 C 0.46448 0.49531 0.68699 0.0
C472 C 0.4417 0.50954 0.68367 0.0
C473 C 0.43477 0.51937 0.65893 0.0
H474 H 0.78466 0.23688 0.65159 0.0
H475 H 0.79554 0.29836 0.70878 0.0
H476 H 0.78389 0.32998 0.6752 0.0
H477 H 0.81067 0.27318 0.59817 0.0
H478 H 0.78704 0.25858 0.57451 0.0
H479 H 0.797 0.24084 0.60287 0.0
H480 H 0.74827 0.23362 0.61434 0.0
H481 H 0.73816 0.25123 0.58598 0.0
H482 H 0.72859 0.26102 0.61737 0.0
H483 H 0.76939 0.35462 0.63587 0.0
H484 H 0.75335 0.37066 0.59339 0.0
H485 H 0.75209 0.29314 0.56176 0.0
C486 C 0.78451 0.25698 0.65706 0.0
C487 C 0.79106 0.26518 0.6828 0.0
C488 C 0.79091 0.2917 0.68912 0.0
C489 C 0.78422 0.30978 0.67021 0.0
C490 C 0.77784 0.30105 0.64505 0.0
C491 C 0.77797 0.2753 0.63842 0.0
C492 C 0.76996 0.27093 0.61006 0.0
C493 C 0.79252 0.26025 0.59555 0.0
C494 C 0.74475 0.25315 0.60676 0.0
C495 C 0.76502 0.29822 0.60184 0.0
C496 C 0.76972 0.3153 0.62231 0.0
C497 C 0.76581 0.34146 0.61965 0.0
C498 C 0.75667 0.35038 0.59545 0.0
C499 C 0.75163 0.33319 0.57423 0.0
C500 C 0.75607 0.30681 0.57752 0.0
H501 H 0.53912 0.98126 0.57326 0.0
H502 H 0.47079 0.99408 0.61686 0.0
H503 H 0.49878 0.99602 0.65738 0.0
H504 H 0.57286 0.94177 0.62193 0.0
H505 H 0.60503 0.95576 0.61546 0.0
H506 H 0.57935 0.95359 0.59006 0.0
H507 H 0.5857 0.00277 0.58265 0.0
H508 H 0.61131 0.00511 0.60806 0.0
H509 H 0.58336 0.02461 0.60943 0.0
H510 H 0.5343 0.9984 0.69295 0.0
H511 H 0.57503 0.00182 0.72107 0.0
H512 H 0.6207 0.98807 0.6545 0.0
C513 C 0.53004 0.98407 0.59141 0.0
C514 C 0.50277 0.98753 0.59193 0.0
C515 C 0.49166 0.99159 0.616 0.0
C516 C 0.50737 0.99258 0.63913 0.0
C517 C 0.53423 0.98952 0.63793 0.0
C518 C 0.54552 0.98533 0.61472 0.0
C519 C 0.5751 0.98389 0.61875 0.0
C520 C 0.58358 0.95716 0.6111 0.0
C521 C 0.58972 0.00538 0.60384 0.0
C522 C 0.57867 0.98825 0.64776 0.0
C523 C 0.55481 0.99123 0.65847 0.0
C524 C 0.5531 0.99598 0.68481 0.0
C525 C 0.5764 0.9979 0.70065 0.0
C526 C 0.60119 0.99523 0.69012 0.0
C527 C 0.60215 0.99017 0.66327 0.0
H528 H 0.85797 0.20123 0.76787 0.0
H529 H 0.84358 0.2825 0.75942 0.0
H530 H 0.88101 0.29357 0.79006 0.0
H531 H 0.87076 0.20545 0.83655 0.0
H532 H 0.89515 0.18174 0.83723 0.0
H533 H 0.86896 0.18027 0.81239 0.0
H534 H 0.90337 0.18116 0.77732 0.0
H535 H 0.92969 0.18292 0.80208 0.0
H536 H 0.92845 0.20714 0.77728 0.0
H537 H 0.92036 0.29614 0.82181 0.0
H538 H 0.9545 0.28934 0.85676 0.0
H539 H 0.93943 0.20675 0.84868 0.0
C540 C 0.86235 0.22139 0.77247 0.0
C541 C 0.8478 0.24091 0.76045 0.0
C542 C 0.85476 0.26704 0.76731 0.0
C543 C 0.87597 0.27361 0.78496 0.0
C544 C 0.88986 0.2539 0.79618 0.0
C545 C 0.88301 0.22831 0.7906 0.0
C546 C 0.89976 0.21074 0.80694 0.0
C547 C 0.88263 0.19354 0.82431 0.0
C548 C 0.9163 0.19454 0.78988 0.0
C549 C 0.91695 0.2305 0.82269 0.0
C550 C 0.91134 0.25531 0.81577 0.0
C551 C 0.92488 0.27681 0.82744 0.0
C552 C 0.94427 0.27282 0.84711 0.0
C553 C 0.94945 0.2476 0.85512 0.0
C554 C 0.93578 0.22621 0.84268 0.0
H555 H 0.51072 0.94281 0.50828 0.0
H556 H 0.42554 0.94441 0.50128 0.0
H557 H 0.42355 0.90906 0.46947 0.0
H558 H 0.52026 0.92565 0.44036 0.0
H559 H 0.54593 0.90436 0.44892 0.0
H560 H 0.54127 0.93182 0.46915 0.0
H561 H 0.53636 0.90197 0.50881 0.0
H562 H 0.54136 0.87455 0.4888 0.0
H563 H 0.51223 0.87512 0.50696 0.0
H564 H 0.42985 0.87097 0.44217 0.0
H565 H 0.44416 0.83102 0.42282 0.0
H566 H 0.52518 0.85352 0.44635 0.0
C567 C 0.49166 0.93583 0.49995 0.0
C568 C 0.46831 0.94677 0.5071 0.0
C569 C 0.44378 0.93692 0.49573 0.0
C570 C 0.44242 0.91675 0.47763 0.0
C571 C 0.46574 0.90652 0.47095 0.0
C572 C 0.48991 0.91561 0.48179 0.0
C573 C 0.51176 0.89982 0.47266 0.0
C574 C 0.53094 0.91641 0.45683 0.0
C575 C 0.52627 0.88711 0.49567 0.0
C576 C 0.49596 0.87998 0.45564 0.0
C577 C 0.46946 0.88447 0.4547 0.0
C578 C 0.45058 0.86754 0.44226 0.0
C579 C 0.45886 0.84498 0.43124 0.0
C580 C 0.48577 0.83966 0.43251 0.0
C581 C 0.50462 0.85771 0.44424 0.0
H582 H 0.15499 0.3265 0.76565 0.0
H583 H 0.20982 0.26628 0.77525 0.0
H584 H 0.18562 0.24884 0.81212 0.0
H585 H 0.14404 0.33626 0.83379 0.0
H586 H 0.10938 0.34066 0.8284 0.0
H587 H 0.1317 0.34936 0.80361 0.0
H588 H 0.10399 0.31963 0.77091 0.0
H589 H 0.08157 0.31086 0.79556 0.0
H590 H 0.09735 0.28618 0.77873 0.0
H591 H 0.15629 0.23822 0.84758 0.0
H592 H 0.12135 0.23236 0.87814 0.0
H593 H 0.0829 0.29781 0.84473 0.0
C594 C 0.16187 0.30976 0.77574 0.0
C595 C 0.1843 0.29772 0.76795 0.0
C596 C 0.19269 0.27568 0.78114 0.0
C597 C 0.17913 0.26574 0.80207 0.0
C598 C 0.15704 0.27793 0.80931 0.0
C599 C 0.14823 0.29929 0.79646 0.0
C600 C 0.12313 0.3078 0.80754 0.0
C601 C 0.12732 0.33514 0.81902 0.0
C602 C 0.10015 0.306 0.78696 0.0
C603 C 0.11924 0.28787 0.82859 0.0
C604 C 0.13929 0.27109 0.82936 0.0
C605 C 0.14043 0.25117 0.84714 0.0
C606 C 0.12044 0.24808 0.86451 0.0
C607 C 0.09927 0.2646 0.86389 0.0
C608 C 0.09876 0.28485 0.84567 0.0
H609 H 0.54055 0.58088 0.46858 0.0
H610 H 0.52099 0.60404 0.5457 0.0
H611 H 0.51448 0.64768 0.52999 0.0
H612 H 0.57948 0.6388 0.45682 0.0
H613 H 0.56982 0.63995 0.42284 0.0
H614 H 0.57023 0.60942 0.43915 0.0
H615 H 0.52136 0.59928 0.42419 0.0
H616 H 0.52078 0.62982 0.40787 0.0
H617 H 0.49718 0.62168 0.43166 0.0
H618 H 0.5107 0.68884 0.50687 0.0
H619 H 0.51355 0.72653 0.47844 0.0
H620 H 0.53992 0.67894 0.41702 0.0
C621 C 0.53495 0.59504 0.48227 0.0
C622 C 0.53073 0.58849 0.50837 0.0
C623 C 0.52338 0.60792 0.52542 0.0
C624 C 0.51987 0.63299 0.51674 0.0
C625 C 0.5242 0.63867 0.49104 0.0
C626 C 0.5319 0.62043 0.47408 0.0
C627 C 0.53703 0.63226 0.44789 0.0
C628 C 0.56585 0.62997 0.4413 0.0
C629 C 0.51795 0.62003 0.42665 0.0
C630 C 0.53124 0.66006 0.45298 0.0
C631 C 0.52344 0.66309 0.47791 0.0
C632 C 0.5168 0.68676 0.48732 0.0
C633 C 0.51843 0.70805 0.47095 0.0
C634 C 0.52698 0.7057 0.44551 0.0
C635 C 0.5334 0.68132 0.43639 0.0
H636 H 0.87061 0.7642 0.76654 0.0
H637 H 0.81835 0.80666 0.71544 0.0
H638 H 0.85054 0.80639 0.68194 0.0
H639 H 0.93282 0.79118 0.74544 0.0
H640 H 0.94813 0.76082 0.74658 0.0
H641 H 0.9225 0.76681 0.76806 0.0
H642 H 0.89575 0.72564 0.75114 0.0
H643 H 0.9214 0.71939 0.72984 0.0
H644 H 0.88808 0.72171 0.71688 0.0
H645 H 0.888 0.80108 0.65339 0.0
H646 H 0.92492 0.78601 0.62979 0.0
H647 H 0.95047 0.74271 0.69722 0.0
C648 C 0.86563 0.77335 0.74834 0.0
C649 C 0.8418 0.78591 0.74419 0.0
C650 C 0.83666 0.79769 0.71984 0.0
C651 C 0.85481 0.7975 0.70046 0.0
C652 C 0.87797 0.78504 0.70533 0.0
C653 C 0.88322 0.77278 0.72848 0.0
C654 C 0.90848 0.75881 0.7279 0.0
C655 C 0.92921 0.77009 0.7482 0.0
C656 C 0.9031 0.72966 0.73165 0.0
C657 C 0.9164 0.7649 0.70066 0.0
C658 C 0.89882 0.78056 0.68822 0.0
C659 C 0.90187 0.78878 0.66292 0.0
C660 C 0.92302 0.78019 0.6497 0.0
C661 C 0.9406 0.76312 0.6616 0.0
C662 C 0.9374 0.75575 0.68759 0.0
H663 H 0.01989 0.92015 0.51456 0.0
H664 H 0.09938 0.91418 0.49026 0.0
H665 H 0.09998 0.87025 0.50822 0.0
H666 H 0.02954 0.88498 0.57529 0.0
H667 H 0.99689 0.86949 0.57316 0.0
H668 H 0.00284 0.90079 0.55903 0.0
H669 H 0.98331 0.88328 0.51471 0.0
H670 H 0.97721 0.85198 0.5287 0.0
H671 H 0.9966 0.85542 0.50069 0.0
H672 H 0.09111 0.82633 0.52617 0.0
H673 H 0.07383 0.78525 0.54412 0.0
H674 H 1.00063 0.81975 0.55887 0.0
C675 C 0.0374 0.90955 0.51312 0.0
C676 C 0.05964 0.92053 0.50108 0.0
C677 C 0.08227 0.9062 0.49964 0.0
C678 C 0.08276 0.88124 0.50973 0.0
C679 C 0.06058 0.87097 0.52151 0.0
C680 C 0.03837 0.88469 0.52346 0.0
C681 C 0.01717 0.86898 0.53698 0.0
C682 C 0.01127 0.88183 0.56264 0.0
C683 C 0.9921 0.86466 0.5192 0.0
C684 C 0.03069 0.84407 0.54168 0.0
C685 C 0.05574 0.84573 0.53263 0.0
C686 C 0.07165 0.82488 0.53359 0.0
C687 C 0.06163 0.8016 0.54379 0.0
C688 C 0.03597 0.79931 0.55309 0.0
C689 C 0.02048 0.82102 0.55233 0.0
H690 H 0.15013 0.74157 0.73037 0.0
H691 H 0.16017 0.65922 0.72942 0.0
H692 H 0.12305 0.65319 0.69707 0.0
H693 H 0.07739 0.7363 0.72287 0.0
H694 H 0.07597 0.76426 0.70246 0.0
H695 H 0.1025 0.76218 0.72672 0.0
H696 H 0.13639 0.76937 0.69158 0.0
H697 H 0.11002 0.77144 0.66724 0.0
H698 H 0.13454 0.74831 0.66373 0.0
H699 H 0.08802 0.65621 0.66223 0.0
H700 H 0.05553 0.66805 0.62783 0.0
H701 H 0.06531 0.74793 0.65255 0.0
C702 C 0.14421 0.72221 0.72372 0.0
C703 C 0.15833 0.70089 0.73234 0.0
C704 C 0.15009 0.67593 0.72281 0.0
C705 C 0.12885 0.67226 0.70458 0.0
C706 C 0.11569 0.69367 0.69621 0.0
C707 C 0.12283 0.71814 0.70558 0.0
C708 C 0.10582 0.73791 0.69255 0.0
C709 C 0.08945 0.75093 0.71233 0.0
C710 C 0.12271 0.75793 0.6779 0.0
C711 C 0.08845 0.72075 0.67401 0.0
C712 C 0.09454 0.69529 0.67655 0.0
C713 C 0.08271 0.67598 0.66038 0.0
C714 C 0.06434 0.68287 0.6409 0.0
C715 C 0.0577 0.70875 0.63794 0.0
C716 C 0.06961 0.72791 0.65493 0.0
H717 H 0.97357 0.57916 0.46991 0.0
H718 H 0.95461 0.52474 0.53065 0.0
H719 H 0.95812 0.5602 0.56249 0.0
H720 H 0.0225 0.61844 0.50965 0.0
H721 H 0.01356 0.64812 0.4946 0.0
H722 H 0.00972 0.61836 0.47647 0.0
H723 H 0.96047 0.62599 0.46631 0.0
H724 H 0.96414 0.65571 0.48444 0.0
H725 H 0.93954 0.63114 0.49258 0.0
H726 H 0.96093 0.60199 0.5874 0.0
H727 H 0.96534 0.64686 0.60383 0.0
H728 H 0.98606 0.67355 0.52786 0.0
C729 C 0.97056 0.57453 0.48994 0.0
C730 C 0.96345 0.54901 0.49754 0.0
C731 C 0.95938 0.5441 0.52404 0.0
C732 C 0.96159 0.56412 0.5424 0.0
C733 C 0.96833 0.58899 0.53417 0.0
C734 C 0.97307 0.59423 0.50864 0.0
C735 C 0.97997 0.6227 0.50488 0.0
C736 C 0.00811 0.62716 0.49587 0.0
C737 C 0.95982 0.63458 0.48593 0.0
C738 C 0.97794 0.63268 0.5322 0.0
C739 C 0.9711 0.61292 0.54879 0.0
C740 C 0.96664 0.61757 0.57468 0.0
C741 C 0.96912 0.6431 0.58382 0.0
C742 C 0.9763 0.6636 0.5672 0.0
C743 C 0.98101 0.6582 0.54113 0.0
H744 H 0.77771 0.85212 0.18983 0.0
H745 H 0.74161 0.86092 0.26343 0.0
H746 H 0.77264 0.89736 0.27438 0.0
H747 H 0.84386 0.86271 0.21845 0.0
H748 H 0.85627 0.87889 0.19047 0.0
H749 H 0.82926 0.85496 0.18665 0.0
H750 H 0.80112 0.88815 0.16256 0.0
H751 H 0.82797 0.91226 0.16649 0.0
H752 H 0.79622 0.91849 0.17799 0.0
H753 H 0.80643 0.93408 0.27727 0.0
H754 H 0.84577 0.96409 0.27495 0.0
H755 H 0.86502 0.92746 0.20366 0.0
C756 C 0.77624 0.86143 0.20835 0.0
C757 C 0.75607 0.85379 0.22512 0.0
C758 C 0.75553 0.86686 0.24927 0.0
C759 C 0.77343 0.88757 0.25598 0.0
C760 C 0.79258 0.8947 0.23888 0.0
C761 C 0.79462 0.88165 0.21588 0.0
C762 C 0.81859 0.89195 0.20212 0.0
C763 C 0.83815 0.87087 0.19926 0.0
C764 C 0.81048 0.90339 0.17572 0.0
C765 C 0.82954 0.91283 0.221 0.0
C766 C 0.81381 0.91442 0.24177 0.0
C767 C 0.8191 0.93285 0.26127 0.0
C768 C 0.84136 0.94986 0.25976 0.0
C769 C 0.85836 0.94786 0.23928 0.0
C770 C 0.85237 0.92914 0.21963 0.0
H771 H 0.75497 0.16836 0.23197 0.0
H772 H 0.74484 0.1579 0.31406 0.0
H773 H 0.77855 0.12577 0.31568 0.0
H774 H 0.76401 0.10165 0.21721 0.0
H775 H 0.78847 0.10899 0.19404 0.0
H776 H 0.76359 0.13132 0.1993 0.0
H777 H 0.79982 0.16755 0.20969 0.0
H778 H 0.82481 0.14535 0.20444 0.0
H779 H 0.82503 0.16265 0.23469 0.0
H780 H 0.8131 0.09448 0.30844 0.0
H781 H 0.84684 0.06692 0.29298 0.0
H782 H 0.83458 0.09748 0.21555 0.0
C783 C 0.75974 0.1592 0.25025 0.0
C784 C 0.74731 0.16578 0.27293 0.0
C785 C 0.75435 0.1535 0.29652 0.0
C786 C 0.77336 0.13509 0.29761 0.0
C787 C 0.78523 0.12908 0.27494 0.0
C788 C 0.77876 0.14079 0.25171 0.0
C789 C 0.79468 0.13096 0.23025 0.0
C790 C 0.7766 0.11743 0.20894 0.0
C791 C 0.81212 0.15294 0.21912 0.0
C792 C 0.81107 0.11191 0.24505 0.0
C793 C 0.80525 0.11108 0.27079 0.0
C794 C 0.81784 0.09496 0.28832 0.0
C795 C 0.83697 0.07935 0.27933 0.0
C796 C 0.84343 0.07999 0.25305 0.0
C797 C 0.83015 0.0965 0.23576 0.0
H798 H 0.43108 0.955 0.95967 0.0
H799 H 0.3878 0.0239 0.96523 0.0
H800 H 0.34709 0.99702 0.97186 0.0
H801 H 0.37803 0.91441 0.92638 0.0
H802 H 0.38639 0.88595 0.94403 0.0
H803 H 0.41162 0.91057 0.93776 0.0
H804 H 0.4243 0.91407 0.98687 0.0
H805 H 0.39903 0.88961 0.99331 0.0
H806 H 0.39942 0.92062 0.00903 0.0
H807 H 0.31163 0.96281 0.98004 0.0
H808 H 0.28388 0.92376 0.98917 0.0
H809 H 0.35036 0.87697 0.97888 0.0
C810 C 0.4129 0.96436 0.96175 0.0
C811 C 0.41252 0.99151 0.96182 0.0
C812 C 0.38849 0.00312 0.96519 0.0
C813 C 0.36528 0.98802 0.96889 0.0
C814 C 0.3664 0.96132 0.9692 0.0
C815 C 0.38956 0.94956 0.96566 0.0
C816 C 0.38566 0.92055 0.96812 0.0
C817 C 0.39072 0.90708 0.94255 0.0
C818 C 0.40314 0.91064 0.99068 0.0
C819 C 0.35678 0.91788 0.97386 0.0
C820 C 0.34601 0.94161 0.97424 0.0
C821 C 0.31981 0.9441 0.97966 0.0
C822 C 0.3042 0.92176 0.98489 0.0
C823 C 0.31483 0.89718 0.98479 0.0
C824 C 0.34151 0.89538 0.97907 0.0
H825 H 0.25108 0.3422 0.29945 0.0
H826 H 0.26207 0.32427 0.21895 0.0
H827 H 0.23522 0.36036 0.2055 0.0
H828 H 0.18247 0.36152 0.28962 0.0
H829 H 0.18733 0.38683 0.31359 0.0
H830 H 0.2056 0.35828 0.31686 0.0
H831 H 0.24935 0.38649 0.31945 0.0
H832 H 0.23126 0.41505 0.31628 0.0
H833 H 0.25611 0.40905 0.29393 0.0
H834 H 0.21122 0.40069 0.20095 0.0
H835 H 0.192 0.44281 0.20561 0.0
H836 H 0.19418 0.43351 0.28885 0.0
C837 C 0.24736 0.34547 0.27896 0.0
C838 C 0.25876 0.33036 0.26025 0.0
C839 C 0.25389 0.33574 0.23366 0.0
C840 C 0.23842 0.35604 0.22583 0.0
C841 C 0.22769 0.37064 0.24478 0.0
C842 C 0.23183 0.36555 0.27081 0.0
C843 C 0.21938 0.38513 0.28731 0.0
C844 C 0.19739 0.37216 0.30276 0.0
C845 C 0.24027 0.3998 0.30529 0.0
C846 C 0.20826 0.40252 0.26652 0.0
C847 C 0.21311 0.39364 0.24211 0.0
C848 C 0.20684 0.40755 0.2199 0.0
C849 C 0.19593 0.43142 0.22272 0.0
C850 C 0.19118 0.44108 0.24752 0.0
C851 C 0.19684 0.42614 0.26964 0.0
H852 H 0.08244 0.04176 0.4898 0.0
H853 H 0.13397 0.97834 0.48852 0.0
H854 H 0.17253 0.00886 0.49685 0.0
H855 H 0.12433 0.08673 0.45658 0.0
H856 H 0.11613 0.11408 0.47534 0.0
H857 H 0.09263 0.08703 0.47034 0.0
H858 H 0.08952 0.08249 0.51995 0.0
H859 H 0.11309 0.10949 0.5251 0.0
H860 H 0.11907 0.07899 0.54008 0.0
H861 H 0.20586 0.04689 0.50446 0.0
H862 H 0.23078 0.08911 0.50988 0.0
H863 H 0.15718 0.12723 0.50525 0.0
C864 C 0.10182 0.03425 0.49115 0.0
C865 C 0.10505 0.00755 0.48865 0.0
C866 C 0.13084 0.99861 0.49082 0.0
C867 C 0.15293 0.01583 0.49541 0.0
C868 C 0.149 0.042 0.49777 0.0
C869 C 0.12407 0.05115 0.49567 0.0
C870 C 0.12517 0.08019 0.49846 0.0
C871 C 0.1139 0.09274 0.4737 0.0
C872 C 0.11087 0.08826 0.52232 0.0
C873 C 0.15461 0.08598 0.50224 0.0
C874 C 0.16807 0.06374 0.50191 0.0
C875 C 0.19549 0.06444 0.5048 0.0
C876 C 0.20949 0.08851 0.5079 0.0
C877 C 0.19605 0.11159 0.508 0.0
C878 C 0.1682 0.11006 0.50528 0.0
H879 H 0.74025 0.19248 0.74077 0.0
H880 H 0.80664 0.16012 0.70652 0.0
H881 H 0.78273 0.11718 0.70465 0.0
H882 H 0.72536 0.13875 0.78154 0.0
H883 H 0.6902 0.14106 0.77819 0.0
H884 H 0.71177 0.16945 0.77508 0.0
H885 H 0.6896 0.17784 0.72989 0.0
H886 H 0.66812 0.14928 0.73277 0.0
H887 H 0.68831 0.15303 0.70537 0.0
H888 H 0.75242 0.0781 0.70731 0.0
H889 H 0.71965 0.04388 0.71832 0.0
H890 H 0.67278 0.10079 0.75239 0.0
C891 C 0.74956 0.17626 0.73282 0.0
C892 C 0.77514 0.17931 0.7237 0.0
C893 C 0.78702 0.1579 0.71359 0.0
C894 C 0.77355 0.13359 0.71231 0.0
C895 C 0.74827 0.1311 0.72137 0.0
C896 C 0.73646 0.15175 0.7317 0.0
C897 C 0.7098 0.14338 0.74157 0.0
C898 C 0.70926 0.14845 0.77083 0.0
C899 C 0.68765 0.15668 0.72649 0.0
C900 C 0.70867 0.11475 0.73552 0.0
C901 C 0.7309 0.10825 0.72347 0.0
C902 C 0.73486 0.08295 0.71661 0.0
C903 C 0.716 0.06362 0.72289 0.0
C904 C 0.69349 0.06958 0.73611 0.0
C905 C 0.68958 0.09562 0.74201 0.0
H906 H 0.39777 0.00302 0.53185 0.0
H907 H 0.46352 0.05961 0.54262 0.0
H908 H 0.43314 0.09468 0.5361 0.0
H909 H 0.36024 0.03717 0.48291 0.0
H910 H 0.32886 0.02788 0.4956 0.0
H911 H 0.35584 0.00721 0.50001 0.0
H912 H 0.35117 0.00798 0.54958 0.0
H913 H 0.32415 0.0286 0.54533 0.0
H914 H 0.35233 0.03848 0.56638 0.0
H915 H 0.39597 0.12336 0.52797 0.0
H916 H 0.35407 0.14432 0.52209 0.0
H917 H 0.3115 0.06938 0.51881 0.0
C918 C 0.4057 0.02282 0.53262 0.0
C919 C 0.43296 0.02873 0.53756 0.0
C920 C 0.44268 0.05479 0.5389 0.0
C921 C 0.42561 0.07477 0.53511 0.0
C922 C 0.39883 0.06834 0.53029 0.0
C923 C 0.38885 0.04303 0.5293 0.0
C924 C 0.3591 0.04148 0.52498 0.0
C925 C 0.35051 0.02762 0.49935 0.0
C926 C 0.34592 0.02836 0.54794 0.0
C927 C 0.35392 0.06989 0.52369 0.0
C928 C 0.37719 0.08498 0.52651 0.0
C929 C 0.37763 0.11175 0.52579 0.0
C930 C 0.35366 0.12348 0.52234 0.0
C931 C 0.32944 0.10844 0.5199 0.0
C932 C 0.32969 0.08131 0.52057 0.0
H933 H 0.60044 0.506 0.54959 0.0
H934 H 0.57008 0.50936 0.46991 0.0
H935 H 0.60693 0.48428 0.45626 0.0
H936 H 0.67022 0.51221 0.53564 0.0
H937 H 0.6795 0.49062 0.56128 0.0
H938 H 0.65154 0.50984 0.5642 0.0
H939 H 0.6219 0.46855 0.57179 0.0
H940 H 0.64974 0.44927 0.56904 0.0
H941 H 0.62044 0.44265 0.54842 0.0
H942 H 0.64505 0.45507 0.45241 0.0
H943 H 0.68157 0.42591 0.4585 0.0
H944 H 0.68784 0.44461 0.54043 0.0
C945 C 0.60165 0.50153 0.52925 0.0
C946 C 0.58243 0.50934 0.51077 0.0
C947 C 0.58472 0.50347 0.4843 0.0
C948 C 0.60554 0.4893 0.47642 0.0
C949 C 0.62411 0.48164 0.49523 0.0
C950 C 0.62246 0.48784 0.52107 0.0
C951 C 0.64447 0.47699 0.53761 0.0
C952 C 0.6625 0.49871 0.55043 0.0
C953 C 0.63347 0.45825 0.5579 0.0
C954 C 0.65838 0.46303 0.51721 0.0
C955 C 0.64647 0.46591 0.49285 0.0
C956 C 0.65481 0.45307 0.47134 0.0
C957 C 0.67556 0.43656 0.47495 0.0
C958 C 0.68779 0.43321 0.49986 0.0
C959 C 0.67933 0.44711 0.52104 0.0
H960 H 0.72021 0.21191 0.34457 0.0
H961 H 0.69097 0.27015 0.29236 0.0
H962 H 0.69216 0.30105 0.32889 0.0
H963 H 0.68647 0.22984 0.40063 0.0
H964 H 0.71379 0.22359 0.42284 0.0
H965 H 0.7089 0.2058 0.39288 0.0
H966 H 0.75629 0.22017 0.38096 0.0
H967 H 0.76132 0.23798 0.41087 0.0
H968 H 0.76622 0.25403 0.38055 0.0
H969 H 0.69799 0.32608 0.37163 0.0
H970 H 0.70866 0.34284 0.41605 0.0
H971 H 0.736 0.2683 0.43878 0.0
C972 C 0.71417 0.23118 0.34066 0.0
C973 C 0.70554 0.23853 0.31547 0.0
C974 C 0.69735 0.26388 0.3115 0.0
C975 C 0.69809 0.28164 0.33211 0.0
C976 C 0.70712 0.27379 0.35659 0.0
C977 C 0.71503 0.24913 0.36086 0.0
C978 C 0.72479 0.24559 0.38866 0.0
C979 C 0.70745 0.22499 0.40204 0.0
C980 C 0.75388 0.23907 0.39035 0.0
C981 C 0.72139 0.27217 0.39941 0.0
C982 C 0.71096 0.28817 0.38075 0.0
C983 C 0.70615 0.31368 0.38636 0.0
C984 C 0.71225 0.32303 0.41165 0.0
C985 C 0.72329 0.30697 0.43093 0.0
C986 C 0.72775 0.2812 0.42454 0.0
H987 H 0.50851 0.05429 0.91231 0.0
H988 H 0.49212 0.97203 0.9218 0.0
H989 H 0.5228 0.96343 0.88805 0.0
H990 H 0.51453 0.05349 0.84356 0.0
H991 H 0.54125 0.07786 0.8442 0.0
H992 H 0.51757 0.07765 0.86878 0.0
H993 H 0.55514 0.07606 0.90443 0.0
H994 H 0.57896 0.07638 0.87998 0.0
H995 H 0.57791 0.0509 0.9035 0.0
H996 H 0.55547 0.96367 0.8532 0.0
H997 H 0.58858 0.97283 0.82083 0.0
H998 H 0.58471 0.05484 0.83499 0.0
C999 C 0.51149 0.03445 0.90748 0.0
C1000 C 0.49764 0.01386 0.91968 0.0
C1001 C 0.50202 0.98819 0.91246 0.0
C1002 C 0.51957 0.98307 0.8934 0.0
C1003 C 0.53276 0.0038 0.88172 0.0
C1004 C 0.52904 0.02898 0.88856 0.0
C1005 C 0.54594 0.04775 0.87329 0.0
C1006 C 0.52879 0.06521 0.85646 0.0
C1007 C 0.56566 0.06371 0.89138 0.0
C1008 C 0.55979 0.02919 0.85683 0.0
C1009 C 0.55183 0.00393 0.86192 0.0
C1010 C 0.56187 0.98339 0.84908 0.0
C1011 C 0.58065 0.98879 0.83068 0.0
C1012 C 0.58932 0.01454 0.82532 0.0
C1013 C 0.57857 0.03493 0.83859 0.0
H1014 H 0.3135 0.25827 0.34132 0.0
H1015 H 0.23724 0.2488 0.29976 0.0
H1016 H 0.22075 0.22105 0.33458 0.0
H1017 H 0.31286 0.19194 0.36914 0.0
H1018 H 0.32863 0.20325 0.39943 0.0
H1019 H 0.33558 0.21992 0.36986 0.0
H1020 H 0.32208 0.26257 0.38985 0.0
H1021 H 0.31517 0.24608 0.41943 0.0
H1022 H 0.29006 0.26374 0.4028 0.0
H1023 H 0.2108 0.19912 0.37554 0.0
H1024 H 0.20794 0.18435 0.42062 0.0
H1025 H 0.29083 0.20599 0.4358 0.0
C1026 C 0.29354 0.24983 0.33933 0.0
C1027 C 0.2766 0.25575 0.31788 0.0
C1028 C 0.25045 0.24476 0.31616 0.0
C1029 C 0.24098 0.22878 0.33572 0.0
C1030 C 0.25796 0.22371 0.35683 0.0
C1031 C 0.28373 0.23377 0.35876 0.0
C1032 C 0.29714 0.22686 0.3845 0.0
C1033 C 0.3199 0.20945 0.38048 0.0
C1034 C 0.30666 0.25127 0.40006 0.0
C1035 C 0.27459 0.21221 0.39706 0.0
C1036 C 0.25228 0.21039 0.38056 0.0
C1037 C 0.22825 0.1999 0.38846 0.0
C1038 C 0.2268 0.1916 0.41407 0.0
C1039 C 0.24925 0.19365 0.43145 0.0
C1040 C 0.2736 0.2035 0.42263 0.0
H1041 H 0.51623 0.45631 0.92402 0.0
H1042 H 0.50912 0.53191 0.95745 0.0
H1043 H 0.47745 0.54218 0.92146 0.0
H1044 H 0.51743 0.47685 0.86019 0.0
H1045 H 0.49925 0.44884 0.84638 0.0
H1046 H 0.51825 0.44628 0.87647 0.0
H1047 H 0.47671 0.42794 0.89847 0.0
H1048 H 0.45754 0.43045 0.86836 0.0
H1049 H 0.44749 0.44587 0.89713 0.0
H1050 H 0.44901 0.54518 0.87993 0.0
H1051 H 0.42896 0.54189 0.83537 0.0
H1052 H 0.45603 0.4647 0.82873 0.0
C1053 C 0.50742 0.47475 0.92412 0.0
C1054 C 0.51478 0.4932 0.94369 0.0
C1055 C 0.50358 0.51748 0.9427 0.0
C1056 C 0.48551 0.5234 0.92241 0.0
C1057 C 0.47894 0.50489 0.90319 0.0
C1058 C 0.48964 0.48107 0.90387 0.0
C1059 C 0.48141 0.4655 0.87968 0.0
C1060 C 0.50551 0.459 0.86481 0.0
C1061 C 0.46479 0.44099 0.88631 0.0
C1062 C 0.4649 0.48446 0.86498 0.0
C1063 C 0.46328 0.5069 0.87902 0.0
C1064 C 0.44997 0.52759 0.86887 0.0
C1065 C 0.43856 0.52552 0.84353 0.0
C1066 C 0.44086 0.50305 0.82844 0.0
C1067 C 0.45377 0.48213 0.83969 0.0
H1068 H 0.73794 0.79292 0.14695 0.0
H1069 H 0.72154 0.73943 0.20893 0.0
H1070 H 0.72994 0.70294 0.18035 0.0
H1071 H 0.70653 0.7529 0.09554 0.0
H1072 H 0.73035 0.7623 0.07232 0.0
H1073 H 0.72362 0.78429 0.09776 0.0
H1074 H 0.77311 0.78815 0.11249 0.0
H1075 H 0.78001 0.76637 0.08697 0.0
H1076 H 0.78994 0.75937 0.12003 0.0
H1077 H 0.74178 0.67249 0.14557 0.0
H1078 H 0.75522 0.65011 0.10665 0.0
H1079 H 0.76111 0.72304 0.06629 0.0
C1080 C 0.73632 0.77351 0.15448 0.0
C1081 C 0.72923 0.7689 0.18014 0.0
C1082 C 0.72691 0.74328 0.18929 0.0
C1083 C 0.73164 0.72248 0.17322 0.0
C1084 C 0.73834 0.72761 0.14793 0.0
C1085 C 0.74055 0.75247 0.13854 0.0
C1086 C 0.74762 0.75263 0.11046 0.0
C1087 C 0.72572 0.76368 0.09299 0.0
C1088 C 0.77426 0.76751 0.10732 0.0
C1089 C 0.74935 0.72403 0.10563 0.0
C1090 C 0.74404 0.70994 0.12754 0.0
C1091 C 0.74569 0.68328 0.12821 0.0
C1092 C 0.7533 0.67073 0.10603 0.0
C1093 C 0.75884 0.68478 0.08339 0.0
C1094 C 0.75645 0.71173 0.08315 0.0
H1095 H 0.97445 0.02004 0.05851 0.0
H1096 H 0.04955 0.99407 0.08915 0.0
H1097 H 0.0311 0.98729 0.1313 0.0
H1098 H 0.96454 0.0578 0.11411 0.0
H1099 H 0.92931 0.05167 0.11277 0.0
H1100 H 0.9468 0.05094 0.08353 0.0
H1101 H 0.92691 0.00467 0.07383 0.0
H1102 H 0.90943 0.00522 0.10315 0.0
H1103 H 0.93113 0.97987 0.0977 0.0
H1104 H 0.00607 0.98494 0.17065 0.0
H1105 H 0.97742 0.99148 0.2063 0.0
H1106 H 0.91963 0.02358 0.15273 0.0
C1107 C 0.98717 0.01291 0.07394 0.0
C1108 C 0.01348 0.00701 0.06979 0.0
C1109 C 0.02908 0.99773 0.09096 0.0
C1110 C 0.01884 0.99402 0.11528 0.0
C1111 C 0.99306 0.00013 0.11858 0.0
C1112 C 0.9775 0.00974 0.09867 0.0
C1113 C 0.95131 0.01716 0.10826 0.0
C1114 C 0.9478 0.04611 0.10444 0.0
C1115 C 0.92834 0.00074 0.09494 0.0
C1116 C 0.95486 0.01053 0.13675 0.0
C1117 C 0.97892 0.00023 0.142 0.0
C1118 C 0.98713 0.99289 0.1668 0.0
C1119 C 0.97058 0.99663 0.18695 0.0
C1120 C 0.94615 0.00796 0.18238 0.0
C1121 C 0.93808 0.01473 0.15682 0.0
H1122 H 0.27861 0.77453 0.18699 0.0
H1123 H 0.35167 0.74385 0.16575 0.0
H1124 H 0.34899 0.76767 0.12445 0.0
H1125 H 0.24605 0.77002 0.12628 0.0
H1126 H 0.22966 0.79962 0.12866 0.0
H1127 H 0.23882 0.78239 0.15751 0.0
H1128 H 0.26519 0.82318 0.17591 0.0
H1129 H 0.25603 0.84062 0.14709 0.0
H1130 H 0.29027 0.83885 0.15721 0.0
H1131 H 0.33491 0.78989 0.0831 0.0
H1132 H 0.31237 0.8116 0.04643 0.0
H1133 H 0.25004 0.83 0.09576 0.0
C1134 C 0.29426 0.77324 0.17381 0.0
C1135 C 0.31539 0.75746 0.1795 0.0
C1136 C 0.3355 0.75611 0.16183 0.0
C1137 C 0.33408 0.76949 0.13833 0.0
C1138 C 0.31268 0.78449 0.13304 0.0
C1139 C 0.29335 0.78678 0.15048 0.0
C1140 C 0.27185 0.80324 0.13975 0.0
C1141 C 0.24502 0.78789 0.13794 0.0
C1142 C 0.27079 0.82794 0.15595 0.0
C1143 C 0.28162 0.80918 0.11319 0.0
C1144 C 0.3052 0.79818 0.10965 0.0
C1145 C 0.31676 0.79906 0.08584 0.0
C1146 C 0.30379 0.8113 0.06509 0.0
C1147 C 0.27971 0.82274 0.06842 0.0
C1148 C 0.2688 0.82201 0.0929 0.0
H1149 H 0.02461 0.46164 0.1136 0.0
H1150 H 0.03734 0.52957 0.06646 0.0
H1151 H 0.07079 0.54741 0.09919 0.0
H1152 H 0.03114 0.49542 0.17559 0.0
H1153 H 0.04758 0.46992 0.19206 0.0
H1154 H 0.02455 0.46248 0.16502 0.0
H1155 H 0.06031 0.43928 0.14187 0.0
H1156 H 0.08339 0.44654 0.16887 0.0
H1157 H 0.09142 0.45633 0.13673 0.0
H1158 H 0.10474 0.55639 0.13525 0.0
H1159 H 0.13569 0.55715 0.17376 0.0
H1160 H 0.09893 0.48504 0.19947 0.0
C1161 C 0.03452 0.48025 0.11024 0.0
C1162 C 0.02858 0.49426 0.08753 0.0
C1163 C 0.04163 0.51865 0.08381 0.0
C1164 C 0.06063 0.52889 0.10225 0.0
C1165 C 0.06603 0.51464 0.12447 0.0
C1166 C 0.05322 0.49097 0.1287 0.0
C1167 C 0.06267 0.47972 0.15432 0.0
C1168 C 0.04014 0.47672 0.17284 0.0
C1169 C 0.07519 0.45394 0.15019 0.0
C1170 C 0.0831 0.50059 0.16363 0.0
C1171 C 0.08478 0.52048 0.146 0.0
C1172 C 0.10335 0.54115 0.14939 0.0
C1173 C 0.12082 0.54142 0.17126 0.0
C1174 C 0.11933 0.52139 0.18965 0.0
C1175 C 0.10001 0.50089 0.18596 0.0
H1176 H 0.37133 0.76226 0.26088 0.0
H1177 H 0.35863 0.67893 0.26086 0.0
H1178 H 0.39367 0.67621 0.29524 0.0
H1179 H 0.44434 0.76302 0.27347 0.0
H1180 H 0.44494 0.79141 0.29362 0.0
H1181 H 0.42043 0.78674 0.26731 0.0
H1182 H 0.3837 0.79166 0.29928 0.0
H1183 H 0.40801 0.79608 0.3257 0.0
H1184 H 0.38219 0.77094 0.3271 0.0
H1185 H 0.42532 0.68265 0.33335 0.0
H1186 H 0.45525 0.69789 0.37026 0.0
H1187 H 0.45061 0.77655 0.34386 0.0
C1188 C 0.37641 0.74341 0.2676 0.0
C1189 C 0.36196 0.72084 0.25836 0.0
C1190 C 0.36902 0.69655 0.26798 0.0
C1191 C 0.38904 0.69476 0.28739 0.0
C1192 C 0.40225 0.7174 0.2967 0.0
C1193 C 0.39663 0.74124 0.28685 0.0
C1194 C 0.41319 0.76261 0.30108 0.0
C1195 C 0.43183 0.77678 0.28278 0.0
C1196 C 0.39572 0.78142 0.31406 0.0
C1197 C 0.4283 0.74708 0.32099 0.0
C1198 C 0.42164 0.72101 0.31808 0.0
C1199 C 0.43119 0.70293 0.33547 0.0
C1200 C 0.44803 0.71171 0.35638 0.0
C1201 C 0.45539 0.73822 0.35945 0.0
C1202 C 0.44564 0.7561 0.34144 0.0
H1203 H 0.9932 0.43332 0.98746 0.0
H1204 H 0.99427 0.40561 0.06643 0.0
H1205 H 0.99702 0.36106 0.05061 0.0
H1206 H 0.95451 0.37969 0.95799 0.0
H1207 H 0.9729 0.37907 0.92926 0.0
H1208 H 0.97079 0.4089 0.94659 0.0
H1209 H 0.02167 0.41459 0.95084 0.0
H1210 H 0.02393 0.38474 0.93356 0.0
H1211 H 0.04019 0.38931 0.9652 0.0
H1212 H 0.99743 0.31997 0.02683 0.0
H1213 H 0.99817 0.28374 0.99623 0.0
H1214 H 1.00006 0.33714 0.93201 0.0
C1215 C 0.99396 0.41777 0.0013 0.0
C1216 C 0.99346 0.42274 0.02816 0.0
C1217 C 0.99474 0.4021 0.04582 0.0
C1218 C 0.99625 0.3768 0.03702 0.0
C1219 C 0.99681 0.3725 0.01049 0.0
C1220 C 0.99595 0.39233 0.99283 0.0
C1221 C 0.99736 0.38219 0.96539 0.0
C1222 C 0.9724 0.3878 0.94884 0.0
C1223 C 0.02227 0.39338 0.95302 0.0
C1224 C 0.9988 0.35354 0.97044 0.0
C1225 C 0.99825 0.34853 0.99664 0.0
C1226 C 0.99812 0.32362 0.0063 0.0
C1227 C 0.99846 0.30319 0.98876 0.0
C1228 C 0.99929 0.3077 0.96185 0.0
C1229 C 0.99976 0.33325 0.95254 0.0
H1230 H 0.67321 0.76811 0.25185 0.0
H1231 H 0.65885 0.84758 0.23357 0.0
H1232 H 0.622 0.84585 0.26274 0.0
H1233 H 0.60331 0.74558 0.25725 0.0
H1234 H 0.61128 0.72436 0.28364 0.0
H1235 H 0.63468 0.73124 0.25935 0.0
H1236 H 0.66973 0.7465 0.29517 0.0
H1237 H 0.64643 0.73992 0.31951 0.0
H1238 H 0.66249 0.77162 0.3173 0.0
H1239 H 0.58946 0.8366 0.29718 0.0
H1240 H 0.56303 0.82011 0.33292 0.0
H1241 H 0.59826 0.74646 0.32772 0.0
C1242 C 0.66185 0.78492 0.25338 0.0
C1243 C 0.6689 0.80797 0.24037 0.0
C1244 C 0.65393 0.82977 0.24348 0.0
C1245 C 0.63289 0.82893 0.2599 0.0
C1246 C 0.6269 0.80609 0.27295 0.0
C1247 C 0.64079 0.7844 0.26965 0.0
C1248 C 0.63143 0.76272 0.28699 0.0
C1249 C 0.61946 0.73961 0.27084 0.0
C1250 C 0.65386 0.75474 0.30586 0.0
C1251 C 0.61055 0.77578 0.30103 0.0
C1252 C 0.60808 0.80073 0.29257 0.0
C1253 C 0.59098 0.81697 0.30371 0.0
C1254 C 0.57611 0.80746 0.32406 0.0
C1255 C 0.57845 0.78196 0.33308 0.0
C1256 C 0.59576 0.76595 0.32114 0.0
H1257 H 0.06081 0.07153 0.97747 0.0
H1258 H 0.97926 0.05387 0.99479 0.0
H1259 H 0.96631 0.09157 0.96931 0.0
H1260 H 0.06104 0.13773 0.98121 0.0
H1261 H 0.08181 0.14388 0.95456 0.0
H1262 H 0.08423 0.11467 0.97279 0.0
H1263 H 0.07545 0.08775 0.93064 0.0
H1264 H 0.07295 0.11695 0.91222 0.0
H1265 H 0.04635 0.09244 0.91021 0.0
H1266 H 0.96325 0.13406 0.94617 0.0
H1267 H 0.97033 0.17689 0.92605 0.0
H1268 H 0.05285 0.16371 0.92006 0.0
C1269 C 0.04008 0.07495 0.97538 0.0
C1270 C 0.0211 0.05952 0.98824 0.0
C1271 C 0.99431 0.06552 0.98552 0.0
C1272 C 0.98669 0.08675 0.97083 0.0
C1273 C 0.00598 0.1015 0.95852 0.0
C1274 C 0.03208 0.09565 0.96039 0.0
C1275 C 0.04921 0.11506 0.9462 0.0
C1276 C 0.0703 0.12863 0.9648 0.0
C1277 C 0.06172 0.10228 0.92346 0.0
C1278 C 0.02881 0.13329 0.93673 0.0
C1279 C 0.00396 0.12516 0.94399 0.0
C1280 C 0.98248 0.1403 0.93984 0.0
C1281 C 0.98665 0.16458 0.92848 0.0
C1282 C 0.01199 0.17321 0.92113 0.0
C1283 C 0.03312 0.15709 0.92471 0.0
H1284 H 0.34553 0.32056 0.23322 0.0
H1285 H 0.34422 0.24214 0.26296 0.0
H1286 H 0.38372 0.23474 0.24024 0.0
H1287 H 0.35871 0.30076 0.16999 0.0
H1288 H 0.3785 0.32956 0.16305 0.0
H1289 H 0.35295 0.3308 0.18558 0.0
H1290 H 0.38706 0.34983 0.22054 0.0
H1291 H 0.4128 0.34841 0.19815 0.0
H1292 H 0.41597 0.3327 0.22907 0.0
H1293 H 0.42268 0.23467 0.21313 0.0
H1294 H 0.45325 0.23928 0.17801 0.0
H1295 H 0.42493 0.31455 0.15982 0.0
C1296 C 0.3531 0.30167 0.23512 0.0
C1297 C 0.34133 0.2823 0.25088 0.0
C1298 C 0.35289 0.25806 0.25236 0.0
C1299 C 0.37545 0.25342 0.23919 0.0
C1300 C 0.38613 0.27284 0.22384 0.0
C1301 C 0.375 0.29627 0.22123 0.0
C1302 C 0.38825 0.31261 0.20084 0.0
C1303 C 0.36842 0.31878 0.17855 0.0
C1304 C 0.40183 0.33735 0.21288 0.0
C1305 C 0.40828 0.29446 0.19212 0.0
C1306 C 0.40723 0.27197 0.20628 0.0
C1307 C 0.42368 0.25218 0.20188 0.0
C1308 C 0.4411 0.25506 0.18194 0.0
C1309 C 0.44149 0.27727 0.16611 0.0
C1310 C 0.42513 0.2974 0.17162 0.0
H1311 H 0.51494 0.43078 0.01847 0.0
H1312 H 0.59652 0.42713 0.99939 0.0
H1313 H 0.5984 0.38507 0.02078 0.0
H1314 H 0.52157 0.39959 0.08159 0.0
H1315 H 0.49005 0.38192 0.07789 0.0
H1316 H 0.4951 0.41259 0.06222 0.0
H1317 H 0.4805 0.39159 0.01789 0.0
H1318 H 0.47518 0.36095 0.03345 0.0
H1319 H 0.49681 0.36402 0.00709 0.0
H1320 H 0.59131 0.34277 0.04161 0.0
H1321 H 0.575 0.30145 0.05979 0.0
H1322 H 0.49814 0.33151 0.0667 0.0
C1323 C 0.53318 0.42111 0.01886 0.0
C1324 C 0.55571 0.43248 0.00754 0.0
C1325 C 0.57918 0.41915 0.0084 0.0
C1326 C 0.58045 0.39518 0.02045 0.0
C1327 C 0.55808 0.38466 0.03166 0.0
C1328 C 0.53484 0.39706 0.03097 0.0
C1329 C 0.51347 0.38082 0.04376 0.0
C1330 C 0.50453 0.39455 0.06779 0.0
C1331 C 0.49012 0.37393 0.02439 0.0
C1332 C 0.52827 0.3572 0.05124 0.0
C1333 C 0.55403 0.36002 0.04415 0.0
C1334 C 0.57129 0.34041 0.04754 0.0
C1335 C 0.56186 0.31703 0.05789 0.0
C1336 C 0.53546 0.31343 0.06494 0.0
C1337 C 0.51859 0.33399 0.06206 0.0
H1338 H 0.65651 0.24033 0.23266 0.0
H1339 H 0.6649 0.15781 0.22666 0.0
H1340 H 0.63048 0.15502 0.19152 0.0
H1341 H 0.58477 0.23556 0.22269 0.0
H1342 H 0.58387 0.26524 0.20485 0.0
H1343 H 0.60978 0.26109 0.22932 0.0
H1344 H 0.64461 0.27152 0.19569 0.0
H1345 H 0.61884 0.27559 0.1711 0.0
H1346 H 0.64354 0.25298 0.16611 0.0
H1347 H 0.59735 0.16132 0.15514 0.0
H1348 H 0.56441 0.17586 0.12238 0.0
H1349 H 0.57321 0.25302 0.15489 0.0
C1350 C 0.65095 0.22156 0.22431 0.0
C1351 C 0.66406 0.19939 0.23236 0.0
C1352 C 0.65604 0.17532 0.22048 0.0
C1353 C 0.63621 0.17343 0.20061 0.0
C1354 C 0.62401 0.19564 0.19307 0.0
C1355 C 0.63072 0.21918 0.20479 0.0
C1356 C 0.61404 0.23996 0.19326 0.0
C1357 C 0.59711 0.25112 0.21375 0.0
C1358 C 0.63129 0.26127 0.1808 0.0
C1359 C 0.59719 0.22444 0.17298 0.0
C1360 C 0.60351 0.19895 0.17308 0.0
C1361 C 0.59191 0.18112 0.15513 0.0
C1362 C 0.57333 0.18953 0.13659 0.0
C1363 C 0.56615 0.21538 0.13644 0.0
C1364 C 0.57806 0.23302 0.15499 0.0
H1365 H 0.48307 0.09425 0.97102 0.0
H1366 H 0.46346 0.03791 0.02963 0.0
H1367 H 0.46838 0.07198 0.06309 0.0
H1368 H 0.53162 0.13446 0.01259 0.0
H1369 H 0.52139 0.1641 0.9984 0.0
H1370 H 0.51906 0.13489 0.97936 0.0
H1371 H 0.46948 0.14068 0.96906 0.0
H1372 H 0.4716 0.16976 0.98818 0.0
H1373 H 0.44803 0.14386 0.9953 0.0
H1374 H 0.47083 0.11222 0.08933 0.0
H1375 H 0.47241 0.1563 0.10726 0.0
H1376 H 0.49142 0.18715 0.03228 0.0
C1377 C 0.48047 0.08906 0.991 0.0
C1378 C 0.47283 0.06346 0.99776 0.0
C1379 C 0.4691 0.05744 0.02402 0.0
C1380 C 0.47197 0.07662 0.04318 0.0
C1381 C 0.47878 0.10177 0.03583 0.0
C1382 C 0.48323 0.10806 0.01044 0.0
C1383 C 0.48884 0.1369 0.00764 0.0
C1384 C 0.5169 0.14294 0.99899 0.0
C1385 C 0.46826 0.14847 0.98894 0.0
C1386 C 0.48615 0.14581 0.03526 0.0
C1387 C 0.4805 0.12517 0.05118 0.0
C1388 C 0.47562 0.12852 0.07715 0.0
C1389 C 0.47644 0.15365 0.08713 0.0
C1390 C 0.48218 0.17514 0.07122 0.0
C1391 C 0.48735 0.17108 0.045 0.0
H1392 H 0.28184 0.34507 0.71796 0.0
H1393 H 0.21771 0.38726 0.74488 0.0
H1394 H 0.24786 0.42631 0.75083 0.0
H1395 H 0.33126 0.37287 0.76266 0.0
H1396 H 0.35694 0.37348 0.74005 0.0
H1397 H 0.32999 0.34947 0.73678 0.0
H1398 H 0.3197 0.36399 0.68964 0.0
H1399 H 0.34666 0.38803 0.69274 0.0
H1400 H 0.31404 0.39733 0.68328 0.0
H1401 H 0.28548 0.46085 0.75362 0.0
H1402 H 0.32764 0.48716 0.75531 0.0
H1403 H 0.36709 0.4214 0.728 0.0
C1404 C 0.27407 0.36263 0.72479 0.0
C1405 C 0.2474 0.36326 0.73075 0.0
C1406 C 0.23809 0.38641 0.74023 0.0
C1407 C 0.25504 0.40867 0.74356 0.0
C1408 C 0.28127 0.40736 0.73754 0.0
C1409 C 0.29074 0.38486 0.7285 0.0
C1410 C 0.31993 0.38812 0.72444 0.0
C1411 C 0.33543 0.36991 0.74204 0.0
C1412 C 0.32539 0.38414 0.69583 0.0
C1413 C 0.32549 0.41597 0.73265 0.0
C1414 C 0.30293 0.42685 0.73991 0.0
C1415 C 0.30327 0.45248 0.74803 0.0
C1416 C 0.32731 0.46729 0.74888 0.0
C1417 C 0.35075 0.45636 0.74192 0.0
C1418 C 0.34962 0.43034 0.73364 0.0
H1419 H 0.22637 0.64128 0.74966 0.0
H1420 H 0.27869 0.70735 0.7729 0.0
H1421 H 0.31656 0.68015 0.77283 0.0
H1422 H 0.25908 0.59406 0.78612 0.0
H1423 H 0.25456 0.56929 0.76157 0.0
H1424 H 0.23125 0.59386 0.76304 0.0
H1425 H 0.23863 0.60602 0.71539 0.0
H1426 H 0.26172 0.58126 0.71365 0.0
H1427 H 0.27155 0.61405 0.70575 0.0
H1428 H 0.34843 0.6455 0.77292 0.0
H1429 H 0.37315 0.6066 0.76826 0.0
H1430 H 0.301 0.56336 0.74202 0.0
C1431 C 0.24582 0.65018 0.75429 0.0
C1432 C 0.24938 0.67647 0.76167 0.0
C1433 C 0.27525 0.68717 0.76781 0.0
C1434 C 0.29696 0.6719 0.76769 0.0
C1435 C 0.29265 0.64599 0.76101 0.0
C1436 C 0.26783 0.63526 0.75397 0.0
C1437 C 0.26877 0.60691 0.74727 0.0
C1438 C 0.25245 0.59004 0.7656 0.0
C1439 C 0.25963 0.60177 0.71882 0.0
C1440 C 0.29798 0.60337 0.75188 0.0
C1441 C 0.3113 0.62613 0.76004 0.0
C1442 C 0.33827 0.62761 0.7663 0.0
C1443 C 0.35211 0.60534 0.76373 0.0
C1444 C 0.33906 0.58193 0.75468 0.0
C1445 C 0.31157 0.58099 0.74883 0.0
H1446 H 0.88562 0.48764 0.47555 0.0
H1447 H 0.9467 0.43553 0.46127 0.0
H1448 H 0.91551 0.39838 0.46796 0.0
H1449 H 0.85555 0.44998 0.52595 0.0
H1450 H 0.82242 0.45718 0.51581 0.0
H1451 H 0.84948 0.47991 0.50986 0.0
H1452 H 0.83544 0.47946 0.461 0.0
H1453 H 0.80838 0.45668 0.46679 0.0
H1454 H 0.832 0.44922 0.44364 0.0
H1455 H 0.87851 0.36702 0.47658 0.0
H1456 H 0.83737 0.34275 0.48611 0.0
H1457 H 0.79922 0.41458 0.49466 0.0
C1458 C 0.89242 0.4684 0.47396 0.0
C1459 C 0.91858 0.46448 0.46771 0.0
C1460 C 0.92668 0.439 0.46563 0.0
C1461 C 0.90915 0.41777 0.46954 0.0
C1462 C 0.88352 0.42228 0.4755 0.0
C1463 C 0.87508 0.44689 0.47769 0.0
C1464 C 0.84634 0.44617 0.48418 0.0
C1465 C 0.84328 0.45908 0.51052 0.0
C1466 C 0.82955 0.45862 0.46261 0.0
C1467 C 0.84004 0.41729 0.48529 0.0
C1468 C 0.86187 0.40397 0.48029 0.0
C1469 C 0.86125 0.37721 0.48049 0.0
C1470 C 0.83772 0.36359 0.48598 0.0
C1471 C 0.81493 0.37668 0.49115 0.0
C1472 C 0.81619 0.40396 0.49067 0.0
H1473 H 0.76471 0.83362 0.74344 0.0
H1474 H 0.76656 0.83061 0.82743 0.0
H1475 H 0.73409 0.86369 0.82766 0.0
H1476 H 0.76393 0.90195 0.74049 0.0
H1477 H 0.74318 0.90185 0.71115 0.0
H1478 H 0.76429 0.87584 0.71755 0.0
H1479 H 0.72385 0.84319 0.71214 0.0
H1480 H 0.70254 0.86919 0.70614 0.0
H1481 H 0.69612 0.84666 0.73175 0.0
H1482 H 0.70198 0.89801 0.81896 0.0
H1483 H 0.67831 0.93523 0.80258 0.0
H1484 H 0.70035 0.91839 0.72479 0.0
C1485 C 0.7585 0.83992 0.76196 0.0
C1486 C 0.76804 0.82891 0.78538 0.0
C1487 C 0.75908 0.83791 0.80909 0.0
C1488 C 0.74064 0.85685 0.80947 0.0
C1489 C 0.73149 0.86698 0.78603 0.0
C1490 C 0.74048 0.85916 0.76276 0.0
C1491 C 0.72934 0.8747 0.74048 0.0
C1492 C 0.7515 0.88946 0.72661 0.0
C1493 C 0.71193 0.8574 0.72151 0.0
C1494 C 0.71304 0.8928 0.75494 0.0
C1495 C 0.71404 0.88764 0.78112 0.0
C1496 C 0.701 0.9022 0.79847 0.0
C1497 C 0.68744 0.92321 0.78895 0.0
C1498 C 0.68745 0.92975 0.7624 0.0
C1499 C 0.69987 0.91385 0.74517 0.0
H1500 H 0.58535 0.552 0.99147 0.0
H1501 H 0.62854 0.48339 0.98267 0.0
H1502 H 0.67041 0.50969 0.98718 0.0
H1503 H 0.62916 0.59528 0.95615 0.0
H1504 H 0.62625 0.62225 0.97755 0.0
H1505 H 0.59944 0.59817 0.973 0.0
H1506 H 0.60017 0.59073 0.02249 0.0
H1507 H 0.62701 0.61473 0.02718 0.0
H1508 H 0.63036 0.58263 0.03947 0.0
H1509 H 0.70756 0.54279 0.99374 0.0
H1510 H 0.73797 0.58101 0.00143 0.0
H1511 H 0.67129 0.62879 0.00578 0.0
C1512 C 0.60364 0.54262 0.99028 0.0
C1513 C 0.60369 0.51561 0.98693 0.0
C1514 C 0.62803 0.50398 0.98564 0.0
C1515 C 0.65192 0.51877 0.98803 0.0
C1516 C 0.65125 0.54524 0.99168 0.0
C1517 C 0.6278 0.55714 0.99277 0.0
C1518 C 0.63281 0.5859 0.99742 0.0
C1519 C 0.62123 0.60131 0.97467 0.0
C1520 C 0.62194 0.59396 0.02317 0.0
C1521 C 0.66269 0.58821 0.99873 0.0
C1522 C 0.67286 0.56449 0.99539 0.0
C1523 C 0.69985 0.56152 0.99629 0.0
C1524 C 0.71699 0.58338 0.00074 0.0
C1525 C 0.70712 0.608 0.00419 0.0
C1526 C 0.67953 0.61033 0.00309 0.0
H1527 H 0.2941 0.65536 0.23293 0.0
H1528 H 0.24108 0.71748 0.23085 0.0
H1529 H 0.20391 0.68622 0.23966 0.0
H1530 H 0.24802 0.60716 0.20174 0.0
H1531 H 0.2601 0.58133 0.22131 0.0
H1532 H 0.28188 0.60859 0.21396 0.0
H1533 H 0.29292 0.61639 0.26297 0.0
H1534 H 0.27114 0.58923 0.27046 0.0
H1535 H 0.26658 0.62043 0.2842 0.0
H1536 H 0.17334 0.64795 0.252 0.0
H1537 H 0.15163 0.60595 0.26368 0.0
H1538 H 0.2251 0.56948 0.25574 0.0
C1539 C 0.27462 0.66234 0.23424 0.0
C1540 C 0.27036 0.68876 0.23142 0.0
C1541 C 0.24462 0.69724 0.23292 0.0
C1542 C 0.22349 0.67966 0.23798 0.0
C1543 C 0.22847 0.65371 0.24107 0.0
C1544 C 0.25339 0.6451 0.23893 0.0
C1545 C 0.25378 0.61637 0.24313 0.0
C1546 C 0.26139 0.60255 0.21857 0.0
C1547 C 0.27219 0.61026 0.26659 0.0
C1548 C 0.22527 0.61012 0.24847 0.0
C1549 C 0.21091 0.63184 0.24728 0.0
C1550 C 0.18435 0.63079 0.25267 0.0
C1551 C 0.17221 0.60691 0.25936 0.0
C1552 C 0.18663 0.58446 0.26037 0.0
C1553 C 0.21344 0.58622 0.25475 0.0
H1554 H 0.94003 0.51577 0.07347 0.0
H1555 H 0.94439 0.49592 0.99241 0.0
H1556 H 0.90654 0.52237 0.98149 0.0
H1557 H 0.86899 0.51647 0.07379 0.0
H1558 H 0.87018 0.54346 0.09584 0.0
H1559 H 0.89636 0.52165 0.09715 0.0
H1560 H 0.93046 0.55995 0.09131 0.0
H1561 H 0.90443 0.58186 0.09004 0.0
H1562 H 0.92635 0.58096 0.06394 0.0
H1563 H 0.86935 0.55318 0.97955 0.0
H1564 H 0.83677 0.58554 0.98666 0.0
H1565 H 0.85806 0.58515 0.06901 0.0
C1566 C 0.93313 0.51701 0.05337 0.0
C1567 C 0.9453 0.50389 0.03376 0.0
C1568 C 0.93527 0.50566 0.00778 0.0
C1569 C 0.91384 0.52069 0.0014 0.0
C1570 C 0.90258 0.53367 0.02125 0.0
C1571 C 0.9119 0.53186 0.04671 0.0
C1572 C 0.89709 0.54825 0.06442 0.0
C1573 C 0.88227 0.53145 0.08395 0.0
C1574 C 0.91569 0.56899 0.07823 0.0
C1575 C 0.87823 0.56003 0.04493 0.0
C1576 C 0.88148 0.55126 0.02014 0.0
C1577 C 0.86657 0.56004 0.99891 0.0
C1578 C 0.84811 0.57841 0.00314 0.0
C1579 C 0.84483 0.58791 0.02839 0.0
C1580 C 0.85999 0.57829 0.04947 0.0
H1581 H 0.07051 0.95319 0.00871 0.0
H1582 H 0.10667 0.03086 0.01106 0.0
H1583 H 0.15037 0.01365 0.00688 0.0
H1584 H 0.12037 0.92308 0.04495 0.0
H1585 H 0.1186 0.894 0.02572 0.0
H1586 H 0.09 0.91243 0.0276 0.0
H1587 H 0.08634 0.91581 0.9776 0.0
H1588 H 0.11496 0.89732 0.97557 0.0
H1589 H 0.11423 0.92863 0.96078 0.0
H1590 H 0.19026 0.98806 0.0065 0.0
H1591 H 0.22378 0.95566 0.00699 0.0
H1592 H 0.16184 0.89451 0.00199 0.0
C1593 C 0.08766 0.96647 0.00804 0.0
C1594 C 0.08537 0.99331 0.01008 0.0
C1595 C 0.10812 0.01024 0.00922 0.0
C1596 C 0.13297 0.00065 0.00692 0.0
C1597 C 0.13467 0.9741 0.00507 0.0
C1598 C 0.11263 0.95723 0.00521 0.0
C1599 C 0.12005 0.92954 0.00308 0.0
C1600 C 0.11177 0.91385 0.02675 0.0
C1601 C 0.10819 0.91709 0.97775 0.0
C1602 C 0.14974 0.93348 0.00266 0.0
C1603 C 0.15773 0.95934 0.00378 0.0
C1604 C 0.18425 0.96775 0.00518 0.0
C1605 C 0.20314 0.94922 0.00552 0.0
C1606 C 0.19541 0.92262 0.00426 0.0
C1607 C 0.16833 0.91473 0.00251 0.0
loop_
_geom_bond_atom_site_label_1
_geom_bond_atom_site_label_2
_geom_bond_distance
_geom_bond_site_symmetry_2
_ccdc_geom_bond_type
H0 C3 0.931 . S
H1 C6 0.928 . S
H2 C8 0.930 1_556 S
C3 H0 0.931 . S
C3 C4 1.413 . S
C3 C5 1.360 . S
C4 C3 1.413 . S
C4 C8 1.429 . S
C5 C3 1.360 . S
C5 C6 1.372 . S
C6 H1 0.928 . S
C6 C5 1.372 . S
C6 C7 1.404 . S
C7 C6 1.404 . S
C7 C8 1.391 . S
C8 H2 0.930 1_554 S
C8 C4 1.429 . S
C8 C7 1.391 . S
H9 C12 0.931 . S
H10 C15 0.928 . S
H11 C17 0.930 . S
C12 H9 0.931 . S
C12 C13 1.413 . S
C12 C14 1.360 . S
C13 C12 1.413 . S
C13 C17 1.429 . S
C14 C12 1.360 . S
C14 C15 1.372 . S
C15 H10 0.928 . S
C15 C14 1.372 . S
C15 C16 1.404 . S
C16 C15 1.404 . S
C16 C17 1.391 . S
C17 H11 0.930 . S
C17 C13 1.429 . S
C17 C16 1.391 . S
H18 C21 0.931 . S
H19 C24 0.928 . S
H20 C26 0.930 . S
C21 H18 0.931 . S
C21 C22 1.413 . S
C21 C23 1.360 . S
C22 C21 1.413 . S
C22 C26 1.429 . S
C23 C21 1.360 . S
C23 C24 1.372 1_655 S
C24 H19 0.928 . S
C24 C23 1.372 1_455 S
C24 C25 1.404 1_455 S
C25 C24 1.404 1_655 S
C25 C26 1.391 . S
C26 H20 0.930 . S
C26 C22 1.429 . S
C26 C25 1.391 . S
H27 C30 0.931 . S
H28 C33 0.928 . S
H29 C35 0.930 . S
C30 H27 0.931 . S
C30 C31 1.413 . S
C30 C32 1.360 . S
C31 C30 1.413 . S
C31 C35 1.429 . S
C32 C30 1.360 . S
C32 C33 1.372 . S
C33 H28 0.928 . S
C33 C32 1.372 . S
C33 C34 1.404 . S
C34 C33 1.404 . S
C34 C35 1.391 . S
C35 H29 0.930 . S
C35 C31 1.429 . S
C35 C34 1.391 . S
H36 C39 0.931 . S
H37 C42 0.928 1_545 S
H38 C44 0.930 . S
C39 H36 0.931 . S
C39 C40 1.413 . S
C39 C41 1.360 . S
C40 C39 1.413 . S
C40 C44 1.429 . S
C41 C39 1.360 . S
C41 C42 1.372 . S
C42 H37 0.928 1_565 S
C42 C41 1.372 . S
C42 C43 1.404 . S
C43 C42 1.404 . S
C43 C44 1.391 . S
C44 H38 0.930 . S
C44 C40 1.429 . S
C44 C43 1.391 . S
H45 C48 0.931 . S
H46 C51 0.928 . S
H47 C53 0.930 . S
C48 H45 0.931 . S
C48 C49 1.413 . S
C48 C50 1.360 . S
C49 C48 1.413 . S
C49 C53 1.429 . S
C50 C48 1.360 . S
C50 C51 1.372 . S
C51 H46 0.928 . S
C51 C50 1.372 . S
C51 C52 1.404 . S
C52 C51 1.404 . S
C52 C53 1.391 . S
C53 H47 0.930 . S
C53 C49 1.429 . S
C53 C52 1.391 . S
H54 C57 0.931 . S
H55 C60 0.939 . S
H56 C62 0.930 . S
C57 H54 0.931 . S
C57 C58 1.413 . S
C57 C59 1.360 . S
C58 C57 1.413 . S
C58 C62 1.429 . S
C59 C57 1.360 . S
C59 C60 1.372 . S
C60 H55 0.939 . S
C60 C59 1.372 . S
C60 C61 1.404 . S
C61 C60 1.404 . S
C61 C62 1.391 . S
C62 H56 0.930 . S
C62 C58 1.429 . S
C62 C61 1.391 . S
H63 C66 0.931 . S
H64 C69 0.928 . S
H65 C71 0.930 . S
C66 H63 0.931 . S
C66 C67 1.413 . S
C66 C68 1.360 . S
C67 C66 1.413 . S
C67 C71 1.429 . S
C68 C66 1.360 . S
C68 C69 1.372 . S
C69 H64 0.928 . S
C69 C68 1.372 . S
C69 C70 1.404 . S
C70 C69 1.404 . S
C70 C71 1.391 . S
C71 H65 0.930 . S
C71 C67 1.429 . S
C71 C70 1.391 . S
H72 C75 0.931 . S
H73 C78 0.928 . S
H74 C80 0.930 . S
C75 H72 0.931 . S
C75 C76 1.413 . S
C75 C77 1.360 . S
C76 C75 1.413 . S
C76 C80 1.429 . S
C77 C75 1.360 . S
C77 C78 1.372 . S
C78 H73 0.928 . S
C78 C77 1.372 . S
C78 C79 1.404 . S
C79 C78 1.404 . S
C79 C80 1.391 . S
C80 H74 0.930 . S
C80 C76 1.429 . S
C80 C79 1.391 . S
H81 C84 0.952 . S
H82 C87 0.928 . S
H83 C89 0.930 . S
C84 H81 0.952 . S
C84 C85 1.413 . S
C84 C86 1.360 . S
C85 C84 1.413 . S
C85 C89 1.429 . S
C86 C84 1.360 . S
C86 C87 1.372 . S
C87 H82 0.928 . S
C87 C86 1.372 . S
C87 C88 1.404 . S
C88 C87 1.404 . S
C88 C89 1.391 . S
C89 H83 0.930 . S
C89 C85 1.429 . S
C89 C88 1.391 . S
H90 C93 0.931 . S
H91 C96 0.928 . S
H92 C98 0.930 . S
C93 H90 0.931 . S
C93 C94 1.413 . S
C93 C95 1.360 . S
C94 C93 1.413 . S
C94 C98 1.429 . S
C95 C93 1.360 . S
C95 C96 1.372 . S
C96 H91 0.928 . S
C96 C95 1.372 . S
C96 C97 1.404 . S
C97 C96 1.404 . S
C97 C98 1.391 . S
C98 H92 0.930 . S
C98 C94 1.429 . S
C98 C97 1.391 . S
H99 C102 0.931 . S
H100 C105 0.928 . S
H101 C107 0.930 . S
C102 H99 0.931 . S
C102 C103 1.413 . S
C102 C104 1.360 . S
C103 C102 1.413 . S
C103 C107 1.429 . S
C104 C102 1.360 . S
C104 C105 1.372 . S
C105 H100 0.928 . S
C105 C104 1.372 . S
C105 C106 1.404 . S
C106 C105 1.404 . S
C106 C107 1.391 . S
C107 H101 0.930 . S
C107 C103 1.429 . S
C107 C106 1.391 . S
H108 C111 0.931 . S
H109 C114 0.928 . S
H110 C116 0.930 . S
C111 H108 0.931 . S
C111 C112 1.413 . S
C111 C113 1.360 . S
C112 C111 1.413 . S
C112 C116 1.429 . S
C113 C111 1.360 . S
C113 C114 1.372 . S
C114 H109 0.928 . S
C114 C113 1.372 . S
C114 C115 1.404 . S
C115 C114 1.404 . S
C115 C116 1.391 . S
C116 H110 0.930 . S
C116 C112 1.429 . S
C116 C115 1.391 . S
H117 C120 0.931 . S
H118 C123 0.928 . S
H119 C125 0.909 1_554 S
C120 H117 0.931 . S
C120 C121 1.413 . S
C120 C122 1.360 . S
C121 C120 1.413 . S
C121 C125 1.429 . S
C122 C120 1.360 . S
C122 C123 1.372 . S
C123 H118 0.928 . S
C123 C122 1.372 . S
C123 C124 1.404 . S
C124 C123 1.404 . S
C124 C125 1.391 . S
C125 H119 0.909 1_556 S
C125 C121 1.429 . S
C125 C124 1.391 . S
H126 C129 0.931 . S
H127 C132 0.928 . S
H128 C134 0.930 . S
C129 H126 0.931 . S
C129 C130 1.413 . S
C129 C131 1.360 . S
C130 C129 1.413 . S
C130 C134 1.429 . S
C131 C129 1.360 . S
C131 C132 1.372 . S
C132 H127 0.928 . S
C132 C131 1.372 . S
C132 C133 1.404 . S
C133 C132 1.404 . S
C133 C134 1.391 . S
C134 H128 0.930 . S
C134 C130 1.429 . S
C134 C133 1.391 . S
H135 C138 0.931 1_554 S
H136 C141 0.928 . S
H137 C143 0.930 1_565 S
C138 H135 0.931 1_556 S
C138 C139 1.413 . S
C138 C140 1.360 . S
C139 C138 1.413 . S
C139 C143 1.429 . S
C140 C138 1.360 . S
C140 C141 1.372 . S
C141 H136 0.928 . S
C141 C140 1.372 . S
C141 C142 1.404 . S
C142 C141 1.404 . S
C142 C143 1.391 . S
C143 H137 0.930 1_545 S
C143 C139 1.429 . S
C143 C142 1.391 . S
Mg144 O145 2.027 1_554 S
Mg144 O151 1.986 1_554 S
Mg144 O153 2.114 . S
Mg144 O154 2.251 . S
Mg144 O157 2.010 . S
O145 Mg144 2.027 1_556 S
O145 C148 1.252 . S
O146 Mg147 2.028 . S
O146 C148 1.248 . S
Mg147 O146 2.028 . S
Mg147 O152 2.032 . S
Mg147 O154 2.079 1_556 S
C148 O145 1.252 . S
C148 O146 1.248 . S
C149 O150 1.264 . S
C149 O157 1.249 . S
O150 C149 1.264 . S
O151 Mg144 1.986 1_556 S
O151 C155 1.246 . S
O152 Mg147 2.032 . S
O152 C155 1.259 . S
O153 Mg144 2.114 . S
O153 C156 1.252 . S
O154 Mg144 2.251 . S
O154 Mg147 2.079 1_554 S
O154 C156 1.273 . S
C155 O151 1.246 . S
C155 O152 1.259 . S
C156 O153 1.252 . S
C156 O154 1.273 . S
O157 Mg144 2.010 . S
O157 C149 1.249 . S
Mg158 O159 2.028 . S
Mg158 O165 1.986 . S
Mg158 O167 2.114 . S
Mg158 O168 2.251 . S
Mg158 O171 2.010 . S
O159 Mg158 2.028 . S
O159 C162 1.250 . S
O160 Mg161 2.028 . S
O160 C162 1.248 . S
Mg161 O160 2.028 . S
Mg161 O166 2.032 . S
Mg161 O168 2.079 . S
C162 O159 1.250 . S
C162 O160 1.248 . S
C163 O164 1.264 . S
C163 O171 1.249 . S
O164 C163 1.264 . S
O165 Mg158 1.986 . S
O165 C169 1.246 . S
O166 Mg161 2.032 . S
O166 C169 1.259 . S
O167 Mg158 2.114 . S
O167 C170 1.252 . S
O168 Mg158 2.251 . S
O168 Mg161 2.079 . S
O168 C170 1.273 . S
C169 O165 1.246 . S
C169 O166 1.259 . S
C170 O167 1.252 . S
C170 O168 1.273 . S
O171 Mg158 2.010 . S
O171 C163 1.249 . S
Mg172 O173 2.028 . S
Mg172 O179 1.986 1_554 S
Mg172 O181 2.114 . S
Mg172 O182 2.251 . S
Mg172 O185 2.010 . S
O173 Mg172 2.028 . S
O173 C176 1.250 . S
O174 Mg175 2.028 . S
O174 C176 1.248 1_556 S
Mg175 O174 2.028 . S
Mg175 O180 2.032 . S
Mg175 O182 2.079 1_556 S
C176 O173 1.250 . S
C176 O174 1.248 1_554 S
C177 O178 1.264 . S
C177 O185 1.249 . S
O178 C177 1.264 . S
O179 Mg172 1.986 1_556 S
O179 C183 1.246 . S
O180 Mg175 2.032 . S
O180 C183 1.259 . S
O181 Mg172 2.114 . S
O181 C184 1.252 . S
O182 Mg172 2.251 . S
O182 Mg175 2.079 1_554 S
O182 C184 1.273 . S
C183 O179 1.246 . S
C183 O180 1.259 . S
C184 O181 1.252 . S
C184 O182 1.273 . S
O185 Mg172 2.010 . S
O185 C177 1.249 . S
Mg186 O187 2.025 1_545 S
Mg186 O193 1.986 . S
Mg186 O195 2.114 . S
Mg186 O196 2.251 . S
Mg186 O199 2.010 . S
O187 Mg186 2.025 1_565 S
O187 C190 1.255 . S
O188 Mg189 2.028 . S
O188 C190 1.248 . S
Mg189 O188 2.028 . S
Mg189 O194 2.032 . S
Mg189 O196 2.079 1_565 S
C190 O187 1.255 . S
C190 O188 1.248 . S
C191 O192 1.264 . S
C191 O199 1.249 . S
O192 C191 1.264 . S
O193 Mg186 1.986 . S
O193 C197 1.246 . S
O194 Mg189 2.032 . S
O194 C197 1.259 1_565 S
O195 Mg186 2.114 . S
O195 C198 1.252 . S
O196 Mg186 2.251 . S
O196 Mg189 2.079 1_545 S
O196 C198 1.273 . S
C197 O193 1.246 . S
C197 O194 1.259 1_545 S
C198 O195 1.252 . S
C198 O196 1.273 . S
O199 Mg186 2.010 . S
O199 C191 1.249 . S
Mg200 O201 2.028 . S
Mg200 O207 1.986 . S
Mg200 O209 2.114 . S
Mg200 O210 2.251 . S
Mg200 O213 2.010 . S
O201 Mg200 2.028 . S
O201 C204 1.250 . S
O202 Mg203 2.028 . S
O202 C204 1.248 . S
Mg203 O202 2.028 . S
Mg203 O208 2.032 . S
Mg203 O210 2.079 . S
C204 O201 1.250 . S
C204 O202 1.248 . S
C205 O206 1.264 . S
C205 O213 1.249 . S
O206 C205 1.264 . S
O207 Mg200 1.986 . S
O207 C211 1.246 . S
O208 Mg203 2.032 . S
O208 C211 1.259 . S
O209 Mg200 2.114 . S
O209 C212 1.252 . S
O210 Mg200 2.251 . S
O210 Mg203 2.079 . S
O210 C212 1.273 . S
C211 O207 1.246 . S
C211 O208 1.259 . S
C212 O209 1.252 . S
C212 O210 1.273 . S
O213 Mg200 2.010 . S
O213 C205 1.249 . S
Mg214 O215 2.028 . S
Mg214 O221 1.986 . S
Mg214 O223 2.114 . S
Mg214 O224 2.251 . S
Mg214 O227 2.010 . S
O215 Mg214 2.028 . S
O215 C218 1.250 . S
O216 Mg217 2.028 . S
O216 C218 1.248 . S
Mg217 O216 2.028 . S
Mg217 O222 2.032 . S
Mg217 O224 2.079 . S
C218 O215 1.250 . S
C218 O216 1.248 . S
C219 O220 1.264 . S
C219 O227 1.249 . S
O220 C219 1.264 . S
O221 Mg214 1.986 . S
O221 C225 1.246 . S
O222 Mg217 2.032 . S
O222 C225 1.259 . S
O223 Mg214 2.114 . S
O223 C226 1.252 . S
O224 Mg214 2.251 . S
O224 Mg217 2.079 . S
O224 C226 1.273 . S
C225 O221 1.246 . S
C225 O222 1.259 . S
C226 O223 1.252 . S
C226 O224 1.273 . S
O227 Mg214 2.010 . S
O227 C219 1.249 . S
Mg228 O229 2.028 . S
Mg228 O235 1.986 . S
Mg228 O237 2.114 . S
Mg228 O238 2.251 . S
Mg228 O241 2.010 . S
O229 Mg228 2.028 . S
O229 C232 1.250 . S
O230 Mg231 2.028 . S
O230 C232 1.248 . S
Mg231 O230 2.028 . S
Mg231 O236 2.032 . S
Mg231 O238 2.079 . S
C232 O229 1.250 . S
C232 O230 1.248 . S
C233 O234 1.264 . S
C233 O241 1.249 . S
O234 C233 1.264 . S
O235 Mg228 1.986 . S
O235 C239 1.246 . S
O236 Mg231 2.032 . S
O236 C239 1.259 . S
O237 Mg228 2.114 . S
O237 C240 1.252 . S
O238 Mg228 2.251 . S
O238 Mg231 2.079 . S
O238 C240 1.273 . S
C239 O235 1.246 . S
C239 O236 1.259 . S
C240 O237 1.252 . S
C240 O238 1.273 . S
O241 Mg228 2.010 . S
O241 C233 1.249 . S
Mg242 O243 2.028 1_545 S
Mg242 O249 1.986 1_545 S
Mg242 O251 2.114 . S
Mg242 O252 2.251 . S
Mg242 O255 2.010 . S
O243 Mg242 2.028 1_565 S
O243 C246 1.250 . S
O244 Mg245 2.028 . S
O244 C246 1.248 . S
Mg245 O244 2.028 . S
Mg245 O250 2.032 . S
Mg245 O252 2.079 1_565 S
C246 O243 1.250 . S
C246 O244 1.248 . S
C247 O248 1.264 . S
C247 O255 1.249 . S
O248 C247 1.264 . S
O249 Mg242 1.986 1_565 S
O249 C253 1.246 . S
O250 Mg245 2.032 . S
O250 C253 1.259 . S
O251 Mg242 2.114 . S
O251 C254 1.252 . S
O252 Mg242 2.251 . S
O252 Mg245 2.079 1_545 S
O252 C254 1.273 . S
C253 O249 1.246 . S
C253 O250 1.259 . S
C254 O251 1.252 . S
C254 O252 1.273 . S
O255 Mg242 2.010 . S
O255 C247 1.249 . S
Mg256 O257 2.045 . S
Mg256 O263 1.986 . S
Mg256 O265 2.114 . S
Mg256 O266 2.251 . S
Mg256 O269 2.010 . S
O257 Mg256 2.045 . S
O257 C260 1.226 1_455 S
O258 Mg259 2.028 . S
O258 C260 1.248 . S
Mg259 O258 2.028 . S
Mg259 O264 2.032 . S
Mg259 O266 2.079 1_655 S
C260 O257 1.226 1_655 S
C260 O258 1.248 . S
C261 O262 1.264 . S
C261 O269 1.249 . S
O262 C261 1.264 . S
O263 Mg256 1.986 . S
O263 C267 1.246 . S
O264 Mg259 2.032 . S
O264 C267 1.259 1_655 S
O265 Mg256 2.114 . S
O265 C268 1.252 . S
O266 Mg256 2.251 . S
O266 Mg259 2.079 1_455 S
O266 C268 1.273 . S
C267 O263 1.246 . S
C267 O264 1.259 1_455 S
C268 O265 1.252 . S
C268 O266 1.273 . S
O269 Mg256 2.010 . S
O269 C261 1.249 . S
Mg270 O271 2.028 . S
Mg270 O277 1.986 . S
Mg270 O279 2.114 . S
Mg270 O280 2.251 . S
Mg270 O283 2.010 . S
O271 Mg270 2.028 . S
O271 C274 1.250 . S
O272 Mg273 2.028 . S
O272 C274 1.248 . S
Mg273 O272 2.028 . S
Mg273 O278 2.032 . S
Mg273 O280 2.079 . S
C274 O271 1.250 . S
C274 O272 1.248 . S
C275 O276 1.264 . S
C275 O283 1.249 . S
O276 C275 1.264 . S
O277 Mg270 1.986 . S
O277 C281 1.246 . S
O278 Mg273 2.032 . S
O278 C281 1.259 . S
O279 Mg270 2.114 . S
O279 C282 1.252 . S
O280 Mg270 2.251 . S
O280 Mg273 2.079 . S
O280 C282 1.273 . S
C281 O277 1.246 . S
C281 O278 1.259 . S
C282 O279 1.252 . S
C282 O280 1.273 . S
O283 Mg270 2.010 . S
O283 C275 1.249 . S
Mg284 O285 2.028 1_655 S
Mg284 O291 1.986 . S
Mg284 O293 2.114 . S
Mg284 O294 2.251 1_655 S
Mg284 O297 2.010 . S
O285 Mg284 2.028 1_455 S
O285 C288 1.250 . S
O286 Mg287 2.028 . S
O286 C288 1.248 . S
Mg287 O286 2.028 . S
Mg287 O292 2.032 . S
Mg287 O294 2.079 . S
C288 O285 1.250 . S
C288 O286 1.248 . S
C289 O290 1.264 . S
C289 O297 1.249 . S
O290 C289 1.264 . S
O291 Mg284 1.986 . S
O291 C295 1.246 1_655 S
O292 Mg287 2.032 . S
O292 C295 1.259 . S
O293 Mg284 2.114 . S
O293 C296 1.252 . S
O294 Mg284 2.251 1_455 S
O294 Mg287 2.079 . S
O294 C296 1.273 1_455 S
C295 O291 1.246 1_455 S
C295 O292 1.259 . S
C296 O293 1.252 . S
C296 O294 1.273 1_655 S
O297 Mg284 2.010 . S
O297 C289 1.249 . S
Mg298 O299 2.028 . S
Mg298 O305 1.986 . S
Mg298 O307 2.114 . S
Mg298 O308 2.251 . S
Mg298 O311 2.010 . S
O299 Mg298 2.028 . S
O299 C302 1.250 . S
O300 Mg301 2.028 . S
O300 C302 1.248 . S
Mg301 O300 2.028 . S
Mg301 O306 2.032 . S
Mg301 O308 2.079 . S
C302 O299 1.250 . S
C302 O300 1.248 . S
C303 O304 1.264 . S
C303 O311 1.249 . S
O304 C303 1.264 . S
O305 Mg298 1.986 . S
O305 C309 1.246 . S
O306 Mg301 2.032 . S
O306 C309 1.259 . S
O307 Mg298 2.114 . S
O307 C310 1.252 . S
O308 Mg298 2.251 . S
O308 Mg301 2.079 . S
O308 C310 1.273 . S
C309 O305 1.246 . S
C309 O306 1.259 . S
C310 O307 1.252 . S
C310 O308 1.273 . S
O311 Mg298 2.010 . S
O311 C303 1.249 . S
H312 C324 0.930 . S
H313 C326 0.930 . S
H314 C327 0.930 . S
H315 C331 0.959 . S
H316 C331 0.959 . S
H317 C331 0.961 . S
H318 C332 0.960 . S
H319 C332 0.961 . S
H320 C332 0.959 . S
H321 C335 0.929 . S
H322 C336 0.931 . S
H323 C338 0.930 . S
C324 H312 0.930 . S
C324 C325 1.399 . S
C324 C329 1.399 . S
C325 C324 1.399 . S
C325 C326 1.376 . S
C326 H313 0.930 . S
C326 C325 1.376 . S
C326 C327 1.388 . S
C327 H314 0.930 . S
C327 C326 1.388 . S
C327 C328 1.390 . S
C328 C327 1.390 . S
C328 C329 1.394 . S
C328 C334 1.465 . S
C329 C324 1.399 . S
C329 C328 1.394 . S
C329 C330 1.516 . S
C330 C329 1.516 . S
C330 C331 1.502 . S
C330 C332 1.561 . S
C330 C333 1.526 . S
C331 H315 0.959 . S
C331 H316 0.959 . S
C331 H317 0.961 . S
C331 C330 1.502 . S
C332 H318 0.960 . S
C332 H319 0.961 . S
C332 H320 0.959 . S
C332 C330 1.561 . S
C333 C330 1.526 . S
C333 C334 1.396 . S
C333 C338 1.390 . S
C334 C328 1.465 . S
C334 C333 1.396 . S
C334 C335 1.399 . S
C335 H321 0.929 . S
C335 C334 1.399 . S
C335 C336 1.385 . S
C336 H322 0.931 . S
C336 C335 1.385 . S
C336 C337 1.389 . S
C337 C336 1.389 . S
C337 C338 1.387 . S
C338 H323 0.930 . S
C338 C333 1.390 . S
C338 C337 1.387 . S
H339 C351 0.930 . S
H340 C353 0.930 . S
H341 C354 0.930 1_655 S
H342 C358 0.959 . S
H343 C358 0.959 . S
H344 C358 0.961 . S
H345 C359 0.960 . S
H346 C359 0.961 . S
H347 C359 0.959 . S
H348 C362 0.929 . S
H349 C363 0.931 . S
H350 C365 0.930 . S
C351 H339 0.930 . S
C351 C352 1.399 1_455 S
C351 C356 1.399 . S
C352 C351 1.399 1_655 S
C352 C353 1.376 . S
C353 H340 0.930 . S
C353 C352 1.376 . S
C353 C354 1.388 1_655 S
C354 H341 0.930 1_455 S
C354 C353 1.388 1_455 S
C354 C355 1.390 . S
C355 C354 1.390 . S
C355 C356 1.394 . S
C355 C361 1.465 . S
C356 C351 1.399 . S
C356 C355 1.394 . S
C356 C357 1.516 . S
C357 C356 1.516 . S
C357 C358 1.502 . S
C357 C359 1.561 . S
C357 C360 1.526 . S
C358 H342 0.959 . S
C358 H343 0.959 . S
C358 H344 0.961 . S
C358 C357 1.502 . S
C359 H345 0.960 . S
C359 H346 0.961 . S
C359 H347 0.959 . S
C359 C357 1.561 . S
C360 C357 1.526 . S
C360 C361 1.396 . S
C360 C365 1.390 . S
C361 C355 1.465 . S
C361 C360 1.396 . S
C361 C362 1.399 . S
C362 H348 0.929 . S
C362 C361 1.399 . S
C362 C363 1.385 . S
C363 H349 0.931 . S
C363 C362 1.385 . S
C363 C364 1.389 . S
C364 C363 1.389 . S
C364 C365 1.387 . S
C365 H350 0.930 . S
C365 C360 1.390 . S
C365 C364 1.387 . S
H366 C378 0.930 . S
H367 C380 0.930 . S
H368 C381 0.930 . S
H369 C385 0.959 . S
H370 C385 0.959 . S
H371 C385 0.961 . S
H372 C386 0.960 . S
H373 C386 0.961 . S
H374 C386 0.959 . S
H375 C389 0.929 . S
H376 C390 0.931 . S
H377 C392 0.930 . S
C378 H366 0.930 . S
C378 C379 1.399 . S
C378 C383 1.399 . S
C379 C378 1.399 . S
C379 C380 1.376 . S
C380 H367 0.930 . S
C380 C379 1.376 . S
C380 C381 1.388 . S
C381 H368 0.930 . S
C381 C380 1.388 . S
C381 C382 1.390 . S
C382 C381 1.390 . S
C382 C383 1.394 . S
C382 C388 1.465 . S
C383 C378 1.399 . S
C383 C382 1.394 . S
C383 C384 1.516 . S
C384 C383 1.516 . S
C384 C385 1.502 . S
C384 C386 1.561 . S
C384 C387 1.526 . S
C385 H369 0.959 . S
C385 H370 0.959 . S
C385 H371 0.961 . S
C385 C384 1.502 . S
C386 H372 0.960 . S
C386 H373 0.961 . S
C386 H374 0.959 . S
C386 C384 1.561 . S
C387 C384 1.526 . S
C387 C388 1.396 . S
C387 C392 1.390 . S
C388 C382 1.465 . S
C388 C387 1.396 . S
C388 C389 1.399 . S
C389 H375 0.929 . S
C389 C388 1.399 . S
C389 C390 1.385 . S
C390 H376 0.931 . S
C390 C389 1.385 . S
C390 C391 1.389 . S
C391 C390 1.389 . S
C391 C392 1.387 . S
C392 H377 0.930 . S
C392 C387 1.390 . S
C392 C391 1.387 . S
H393 C405 0.930 . S
H394 C407 0.930 . S
H395 C408 0.930 . S
H396 C412 0.959 1_455 S
H397 C412 0.959 . S
H398 C412 0.961 1_455 S
H399 C413 0.960 . S
H400 C413 0.961 . S
H401 C413 0.959 . S
H402 C416 0.929 . S
H403 C417 0.931 . S
H404 C419 0.930 . S
C405 H393 0.930 . S
C405 C406 1.399 . S
C405 C410 1.399 1_455 S
C406 C405 1.399 . S
C406 C407 1.376 1_565 S
C407 H394 0.930 . S
C407 C406 1.376 1_545 S
C407 C408 1.388 1_455 S
C408 H395 0.930 . S
C408 C407 1.388 1_655 S
C408 C409 1.390 . S
C409 C408 1.390 . S
C409 C410 1.394 1_545 S
C409 C415 1.465 . S
C410 C405 1.399 1_655 S
C410 C409 1.394 1_565 S
C410 C411 1.516 . S
C411 C410 1.516 . S
C411 C412 1.502 . S
C411 C413 1.561 . S
C411 C414 1.526 . S
C412 H396 0.959 1_655 S
C412 H397 0.959 . S
C412 H398 0.961 1_655 S
C412 C411 1.502 . S
C413 H399 0.960 . S
C413 H400 0.961 . S
C413 H401 0.959 . S
C413 C411 1.561 . S
C414 C411 1.526 . S
C414 C415 1.396 1_565 S
C414 C419 1.390 . S
C415 C409 1.465 . S
C415 C414 1.396 1_545 S
C415 C416 1.399 . S
C416 H402 0.929 . S
C416 C415 1.399 . S
C416 C417 1.385 . S
C417 H403 0.931 . S
C417 C416 1.385 . S
C417 C418 1.389 . S
C418 C417 1.389 . S
C418 C419 1.387 1_545 S
C419 H404 0.930 . S
C419 C414 1.390 . S
C419 C418 1.387 1_565 S
H420 C432 0.930 . S
H421 C434 0.930 . S
H422 C435 0.930 . S
H423 C439 0.959 . S
H424 C439 0.959 . S
H425 C439 0.961 . S
H426 C440 0.960 . S
H427 C440 0.961 . S
H428 C440 0.959 . S
H429 C443 0.929 . S
H430 C444 0.931 . S
H431 C446 0.930 . S
C432 H420 0.930 . S
C432 C433 1.399 . S
C432 C437 1.399 . S
C433 C432 1.399 . S
C433 C434 1.376 . S
C434 H421 0.930 . S
C434 C433 1.376 . S
C434 C435 1.388 . S
C435 H422 0.930 . S
C435 C434 1.388 . S
C435 C436 1.390 . S
C436 C435 1.390 . S
C436 C437 1.394 . S
C436 C442 1.465 . S
C437 C432 1.399 . S
C437 C436 1.394 . S
C437 C438 1.516 . S
C438 C437 1.516 . S
C438 C439 1.502 . S
C438 C440 1.561 . S
C438 C441 1.526 . S
C439 H423 0.959 . S
C439 H424 0.959 . S
C439 H425 0.961 . S
C439 C438 1.502 . S
C440 H426 0.960 . S
C440 H427 0.961 . S
C440 H428 0.959 . S
C440 C438 1.561 . S
C441 C438 1.526 . S
C441 C442 1.396 . S
C441 C446 1.390 . S
C442 C436 1.465 . S
C442 C441 1.396 . S
C442 C443 1.399 . S
C443 H429 0.929 . S
C443 C442 1.399 . S
C443 C444 1.385 . S
C444 H430 0.931 . S
C444 C443 1.385 . S
C444 C445 1.389 . S
C445 C444 1.389 . S
C445 C446 1.387 . S
C446 H431 0.930 . S
C446 C441 1.390 . S
C446 C445 1.387 . S
H447 C459 0.930 . S
H448 C461 0.930 . S
H449 C462 0.930 . S
H450 C466 0.959 . S
H451 C466 0.959 . S
H452 C466 0.961 . S
H453 C467 0.960 . S
H454 C467 0.961 . S
H455 C467 0.959 . S
H456 C470 0.929 . S
H457 C471 0.931 . S
H458 C473 0.930 . S
C459 H447 0.930 . S
C459 C460 1.399 . S
C459 C464 1.399 . S
C460 C459 1.399 . S
C460 C461 1.376 . S
C461 H448 0.930 . S
C461 C460 1.376 . S
C461 C462 1.388 . S
C462 H449 0.930 . S
C462 C461 1.388 . S
C462 C463 1.390 . S
C463 C462 1.390 . S
C463 C464 1.394 . S
C463 C469 1.465 . S
C464 C459 1.399 . S
C464 C463 1.394 . S
C464 C465 1.516 . S
C465 C464 1.516 . S
C465 C466 1.502 . S
C465 C467 1.561 . S
C465 C468 1.526 . S
C466 H450 0.959 . S
C466 H451 0.959 . S
C466 H452 0.961 . S
C466 C465 1.502 . S
C467 H453 0.960 . S
C467 H454 0.961 . S
C467 H455 0.959 . S
C467 C465 1.561 . S
C468 C465 1.526 . S
C468 C469 1.396 . S
C468 C473 1.390 . S
C469 C463 1.465 . S
C469 C468 1.396 . S
C469 C470 1.399 . S
C470 H456 0.929 . S
C470 C469 1.399 . S
C470 C471 1.385 . S
C471 H457 0.931 . S
C471 C470 1.385 . S
C471 C472 1.389 . S
C472 C471 1.389 . S
C472 C473 1.387 . S
C473 H458 0.930 . S
C473 C468 1.390 . S
C473 C472 1.387 . S
H474 C486 0.930 . S
H475 C488 0.930 . S
H476 C489 0.930 . S
H477 C493 0.959 . S
H478 C493 0.959 . S
H479 C493 0.961 . S
H480 C494 0.960 . S
H481 C494 0.961 . S
H482 C494 0.959 . S
H483 C497 0.929 . S
H484 C498 0.931 . S
H485 C500 0.930 . S
C486 H474 0.930 . S
C486 C487 1.399 . S
C486 C491 1.399 . S
C487 C486 1.399 . S
C487 C488 1.376 . S
C488 H475 0.930 . S
C488 C487 1.376 . S
C488 C489 1.388 . S
C489 H476 0.930 . S
C489 C488 1.388 . S
C489 C490 1.390 . S
C490 C489 1.390 . S
C490 C491 1.394 . S
C490 C496 1.465 . S
C491 C486 1.399 . S
C491 C490 1.394 . S
C491 C492 1.516 . S
C492 C491 1.516 . S
C492 C493 1.502 . S
C492 C494 1.561 . S
C492 C495 1.526 . S
C493 H477 0.959 . S
C493 H478 0.959 . S
C493 H479 0.961 . S
C493 C492 1.502 . S
C494 H480 0.960 . S
C494 H481 0.961 . S
C494 H482 0.959 . S
C494 C492 1.561 . S
C495 C492 1.526 . S
C495 C496 1.396 . S
C495 C500 1.390 . S
C496 C490 1.465 . S
C496 C495 1.396 . S
C496 C497 1.399 . S
C497 H483 0.929 . S
C497 C496 1.399 . S
C497 C498 1.385 . S
C498 H484 0.931 . S
C498 C497 1.385 . S
C498 C499 1.389 . S
C499 C498 1.389 . S
C499 C500 1.387 . S
C500 H485 0.930 . S
C500 C495 1.390 . S
C500 C499 1.387 . S
H501 C513 0.932 1_545 S
H502 C515 0.930 . S
H503 C516 0.930 . S
H504 C520 0.959 1_565 S
H505 C520 0.959 . S
H506 C520 0.961 . S
H507 C521 0.960 . S
H508 C521 0.961 . S
H509 C521 0.959 . S
H510 C524 0.929 . S
H511 C525 0.931 . S
H512 C527 0.930 . S
C513 H501 0.932 1_565 S
C513 C514 1.399 . S
C513 C518 1.399 . S
C514 C513 1.399 . S
C514 C515 1.376 . S
C515 H502 0.930 . S
C515 C514 1.376 . S
C515 C516 1.388 . S
C516 H503 0.930 . S
C516 C515 1.388 . S
C516 C517 1.390 . S
C517 C516 1.390 . S
C517 C518 1.394 . S
C517 C523 1.465 . S
C518 C513 1.399 . S
C518 C517 1.394 . S
C518 C519 1.516 1_565 S
C519 C518 1.516 1_545 S
C519 C520 1.502 . S
C519 C521 1.561 . S
C519 C522 1.526 1_545 S
C520 H504 0.959 1_545 S
C520 H505 0.959 . S
C520 H506 0.961 . S
C520 C519 1.502 . S
C521 H507 0.960 . S
C521 H508 0.961 . S
C521 H509 0.959 . S
C521 C519 1.561 . S
C522 C519 1.526 1_565 S
C522 C523 1.396 . S
C522 C527 1.390 1_565 S
C523 C517 1.465 . S
C523 C522 1.396 . S
C523 C524 1.399 . S
C524 H510 0.929 . S
C524 C523 1.399 . S
C524 C525 1.385 . S
C525 H511 0.931 . S
C525 C524 1.385 . S
C525 C526 1.389 . S
C526 C525 1.389 . S
C526 C527 1.387 1_565 S
C527 H512 0.930 . S
C527 C522 1.390 1_545 S
C527 C526 1.387 1_545 S
H528 C540 0.930 . S
H529 C542 0.930 . S
H530 C543 0.930 . S
H531 C547 0.959 . S
H532 C547 0.959 . S
H533 C547 0.961 . S
H534 C548 0.960 . S
H535 C548 0.961 . S
H536 C548 0.959 . S
H537 C551 0.929 . S
H538 C552 0.931 . S
H539 C554 0.930 . S
C540 H528 0.930 . S
C540 C541 1.399 . S
C540 C545 1.399 . S
C541 C540 1.399 . S
C541 C542 1.376 . S
C542 H529 0.930 . S
C542 C541 1.376 . S
C542 C543 1.388 . S
C543 H530 0.930 . S
C543 C542 1.388 . S
C543 C544 1.390 . S
C544 C543 1.390 . S
C544 C545 1.394 . S
C544 C550 1.465 . S
C545 C540 1.399 . S
C545 C544 1.394 . S
C545 C546 1.516 . S
C546 C545 1.516 . S
C546 C547 1.502 . S
C546 C548 1.561 . S
C546 C549 1.526 . S
C547 H531 0.959 . S
C547 H532 0.959 . S
C547 H533 0.961 . S
C547 C546 1.502 . S
C548 H534 0.960 . S
C548 H535 0.961 . S
C548 H536 0.959 . S
C548 C546 1.561 . S
C549 C546 1.526 . S
C549 C550 1.396 . S
C549 C554 1.390 . S
C550 C544 1.465 . S
C550 C549 1.396 . S
C550 C551 1.399 . S
C551 H537 0.929 . S
C551 C550 1.399 . S
C551 C552 1.385 . S
C552 H538 0.931 . S
C552 C551 1.385 . S
C552 C553 1.389 . S
C553 C552 1.389 . S
C553 C554 1.387 . S
C554 H539 0.930 . S
C554 C549 1.390 . S
C554 C553 1.387 . S
H555 C567 0.930 . S
H556 C569 0.930 . S
H557 C570 0.930 . S
H558 C574 0.959 . S
H559 C574 0.959 . S
H560 C574 0.961 . S
H561 C575 0.960 . S
H562 C575 0.961 . S
H563 C575 0.959 . S
H564 C578 0.929 . S
H565 C579 0.931 . S
H566 C581 0.930 . S
C567 H555 0.930 . S
C567 C568 1.399 . S
C567 C572 1.399 . S
C568 C567 1.399 . S
C568 C569 1.376 . S
C569 H556 0.930 . S
C569 C568 1.376 . S
C569 C570 1.388 . S
C570 H557 0.930 . S
C570 C569 1.388 . S
C570 C571 1.390 . S
C571 C570 1.390 . S
C571 C572 1.394 . S
C571 C577 1.465 . S
C572 C567 1.399 . S
C572 C571 1.394 . S
C572 C573 1.516 . S
C573 C572 1.516 . S
C573 C574 1.502 . S
C573 C575 1.561 . S
C573 C576 1.526 . S
C574 H558 0.959 . S
C574 H559 0.959 . S
C574 H560 0.961 . S
C574 C573 1.502 . S
C575 H561 0.960 . S
C575 H562 0.961 . S
C575 H563 0.959 . S
C575 C573 1.561 . S
C576 C573 1.526 . S
C576 C577 1.396 . S
C576 C581 1.390 . S
C577 C571 1.465 . S
C577 C576 1.396 . S
C577 C578 1.399 . S
C578 H564 0.929 . S
C578 C577 1.399 . S
C578 C579 1.385 . S
C579 H565 0.931 . S
C579 C578 1.385 . S
C579 C580 1.389 . S
C580 C579 1.389 . S
C580 C581 1.387 . S
C581 H566 0.930 . S
C581 C576 1.390 . S
C581 C580 1.387 . S
H582 C594 0.930 . S
H583 C596 0.930 . S
H584 C597 0.930 . S
H585 C601 0.959 . S
H586 C601 0.959 . S
H587 C601 0.961 . S
H588 C602 0.960 . S
H589 C602 0.961 . S
H590 C602 0.959 . S
H591 C605 0.929 . S
H592 C606 0.931 . S
H593 C608 0.930 . S
C594 H582 0.930 . S
C594 C595 1.399 . S
C594 C599 1.399 . S
C595 C594 1.399 . S
C595 C596 1.376 . S
C596 H583 0.930 . S
C596 C595 1.376 . S
C596 C597 1.388 . S
C597 H584 0.930 . S
C597 C596 1.388 . S
C597 C598 1.390 . S
C598 C597 1.390 . S
C598 C599 1.394 . S
C598 C604 1.465 . S
C599 C594 1.399 . S
C599 C598 1.394 . S
C599 C600 1.516 . S
C600 C599 1.516 . S
C600 C601 1.502 . S
C600 C602 1.561 . S
C600 C603 1.526 . S
C601 H585 0.959 . S
C601 H586 0.959 . S
C601 H587 0.961 . S
C601 C600 1.502 . S
C602 H588 0.960 . S
C602 H589 0.961 . S
C602 H590 0.959 . S
C602 C600 1.561 . S
C603 C600 1.526 . S
C603 C604 1.396 . S
C603 C608 1.390 . S
C604 C598 1.465 . S
C604 C603 1.396 . S
C604 C605 1.399 . S
C605 H591 0.929 . S
C605 C604 1.399 . S
C605 C606 1.385 . S
C606 H592 0.931 . S
C606 C605 1.385 . S
C606 C607 1.389 . S
C607 C606 1.389 . S
C607 C608 1.387 . S
C608 H593 0.930 . S
C608 C603 1.390 . S
C608 C607 1.387 . S
H609 C621 0.930 . S
H610 C623 0.930 . S
H611 C624 0.930 . S
H612 C628 0.959 . S
H613 C628 0.959 . S
H614 C628 0.961 . S
H615 C629 0.960 . S
H616 C629 0.961 . S
H617 C629 0.959 . S
H618 C632 0.929 . S
H619 C633 0.931 . S
H620 C635 0.930 . S
C621 H609 0.930 . S
C621 C622 1.399 . S
C621 C626 1.399 . S
C622 C621 1.399 . S
C622 C623 1.376 . S
C623 H610 0.930 . S
C623 C622 1.376 . S
C623 C624 1.388 . S
C624 H611 0.930 . S
C624 C623 1.388 . S
C624 C625 1.390 . S
C625 C624 1.390 . S
C625 C626 1.394 . S
C625 C631 1.465 . S
C626 C621 1.399 . S
C626 C625 1.394 . S
C626 C627 1.516 . S
C627 C626 1.516 . S
C627 C628 1.502 . S
C627 C629 1.561 . S
C627 C630 1.526 . S
C628 H612 0.959 . S
C628 H613 0.959 . S
C628 H614 0.961 . S
C628 C627 1.502 . S
C629 H615 0.960 . S
C629 H616 0.961 . S
C629 H617 0.959 . S
C629 C627 1.561 . S
C630 C627 1.526 . S
C630 C631 1.396 . S
C630 C635 1.390 . S
C631 C625 1.465 . S
C631 C630 1.396 . S
C631 C632 1.399 . S
C632 H618 0.929 . S
C632 C631 1.399 . S
C632 C633 1.385 . S
C633 H619 0.931 . S
C633 C632 1.385 . S
C633 C634 1.389 . S
C634 C633 1.389 . S
C634 C635 1.387 . S
C635 H620 0.930 . S
C635 C630 1.390 . S
C635 C634 1.387 . S
H636 C648 0.930 . S
H637 C650 0.930 . S
H638 C651 0.930 . S
H639 C655 0.959 . S
H640 C655 0.959 . S
H641 C655 0.961 . S
H642 C656 0.960 . S
H643 C656 0.961 . S
H644 C656 0.959 . S
H645 C659 0.929 . S
H646 C660 0.931 . S
H647 C662 0.930 . S
C648 H636 0.930 . S
C648 C649 1.399 . S
C648 C653 1.399 . S
C649 C648 1.399 . S
C649 C650 1.376 . S
C650 H637 0.930 . S
C650 C649 1.376 . S
C650 C651 1.388 . S
C651 H638 0.930 . S
C651 C650 1.388 . S
C651 C652 1.390 . S
C652 C651 1.390 . S
C652 C653 1.394 . S
C652 C658 1.465 . S
C653 C648 1.399 . S
C653 C652 1.394 . S
C653 C654 1.516 . S
C654 C653 1.516 . S
C654 C655 1.502 . S
C654 C656 1.561 . S
C654 C657 1.526 . S
C655 H639 0.959 . S
C655 H640 0.959 . S
C655 H641 0.961 . S
C655 C654 1.502 . S
C656 H642 0.960 . S
C656 H643 0.961 . S
C656 H644 0.959 . S
C656 C654 1.561 . S
C657 C654 1.526 . S
C657 C658 1.396 . S
C657 C662 1.390 . S
C658 C652 1.465 . S
C658 C657 1.396 . S
C658 C659 1.399 . S
C659 H645 0.929 . S
C659 C658 1.399 . S
C659 C660 1.385 . S
C660 H646 0.931 . S
C660 C659 1.385 . S
C660 C661 1.389 . S
C661 C660 1.389 . S
C661 C662 1.387 . S
C662 H647 0.930 . S
C662 C657 1.390 . S
C662 C661 1.387 . S
H663 C675 0.930 . S
H664 C677 0.930 . S
H665 C678 0.930 . S
H666 C682 0.959 . S
H667 C682 0.959 . S
H668 C682 0.961 . S
H669 C683 0.960 . S
H670 C683 0.961 . S
H671 C683 0.959 . S
H672 C686 0.929 1_655 S
H673 C687 0.931 1_655 S
H674 C689 0.930 . S
C675 H663 0.930 . S
C675 C676 1.399 . S
C675 C680 1.399 . S
C676 C675 1.399 . S
C676 C677 1.376 . S
C677 H664 0.930 . S
C677 C676 1.376 . S
C677 C678 1.388 . S
C678 H665 0.930 . S
C678 C677 1.388 . S
C678 C679 1.390 . S
C679 C678 1.390 . S
C679 C680 1.394 . S
C679 C685 1.465 . S
C680 C675 1.399 . S
C680 C679 1.394 . S
C680 C681 1.516 . S
C681 C680 1.516 . S
C681 C682 1.502 . S
C681 C683 1.561 . S
C681 C684 1.526 . S
C682 H666 0.959 . S
C682 H667 0.959 . S
C682 H668 0.961 . S
C682 C681 1.502 . S
C683 H669 0.960 . S
C683 H670 0.961 . S
C683 H671 0.959 . S
C683 C681 1.561 . S
C684 C681 1.526 . S
C684 C685 1.396 . S
C684 C689 1.390 . S
C685 C679 1.465 . S
C685 C684 1.396 . S
C685 C686 1.399 . S
C686 H672 0.929 1_455 S
C686 C685 1.399 . S
C686 C687 1.385 . S
C687 H673 0.931 1_455 S
C687 C686 1.385 . S
C687 C688 1.389 . S
C688 C687 1.389 . S
C688 C689 1.387 . S
C689 H674 0.930 . S
C689 C684 1.390 . S
C689 C688 1.387 . S
H690 C702 0.930 . S
H691 C704 0.930 . S
H692 C705 0.930 . S
H693 C709 0.959 . S
H694 C709 0.959 . S
H695 C709 0.961 . S
H696 C710 0.960 . S
H697 C710 0.961 . S
H698 C710 0.959 . S
H699 C713 0.929 . S
H700 C714 0.931 . S
H701 C716 0.930 . S
C702 H690 0.930 . S
C702 C703 1.399 . S
C702 C707 1.399 . S
C703 C702 1.399 . S
C703 C704 1.376 . S
C704 H691 0.930 . S
C704 C703 1.376 . S
C704 C705 1.388 . S
C705 H692 0.930 . S
C705 C704 1.388 . S
C705 C706 1.390 . S
C706 C705 1.390 . S
C706 C707 1.394 . S
C706 C712 1.465 . S
C707 C702 1.399 . S
C707 C706 1.394 . S
C707 C708 1.516 . S
C708 C707 1.516 . S
C708 C709 1.502 . S
C708 C710 1.561 . S
C708 C711 1.526 . S
C709 H693 0.959 . S
C709 H694 0.959 . S
C709 H695 0.961 . S
C709 C708 1.502 . S
C710 H696 0.960 . S
C710 H697 0.961 . S
C710 H698 0.959 . S
C710 C708 1.561 . S
C711 C708 1.526 . S
C711 C712 1.396 . S
C711 C716 1.390 . S
C712 C706 1.465 . S
C712 C711 1.396 . S
C712 C713 1.399 . S
C713 H699 0.929 . S
C713 C712 1.399 . S
C713 C714 1.385 . S
C714 H700 0.931 . S
C714 C713 1.385 . S
C714 C715 1.389 . S
C715 C714 1.389 . S
C715 C716 1.387 . S
C716 H701 0.930 . S
C716 C711 1.390 . S
C716 C715 1.387 . S
H717 C729 0.930 . S
H718 C731 0.930 . S
H719 C732 0.930 . S
H720 C736 0.959 . S
H721 C736 0.959 . S
H722 C736 0.961 . S
H723 C737 0.960 . S
H724 C737 0.961 . S
H725 C737 0.959 . S
H726 C740 0.929 . S
H727 C741 0.931 . S
H728 C743 0.930 1_455 S
C729 H717 0.930 . S
C729 C730 1.399 . S
C729 C734 1.399 . S
C730 C729 1.399 . S
C730 C731 1.376 . S
C731 H718 0.930 . S
C731 C730 1.376 . S
C731 C732 1.388 . S
C732 H719 0.930 . S
C732 C731 1.388 . S
C732 C733 1.390 . S
C733 C732 1.390 . S
C733 C734 1.394 . S
C733 C739 1.465 . S
C734 C729 1.399 . S
C734 C733 1.394 . S
C734 C735 1.516 . S
C735 C734 1.516 . S
C735 C736 1.502 1_655 S
C735 C737 1.561 . S
C735 C738 1.526 . S
C736 H720 0.959 . S
C736 H721 0.959 . S
C736 H722 0.961 . S
C736 C735 1.502 1_455 S
C737 H723 0.960 . S
C737 H724 0.961 . S
C737 H725 0.959 . S
C737 C735 1.561 . S
C738 C735 1.526 . S
C738 C739 1.396 . S
C738 C743 1.390 . S
C739 C733 1.465 . S
C739 C738 1.396 . S
C739 C740 1.399 . S
C740 H726 0.929 . S
C740 C739 1.399 . S
C740 C741 1.385 . S
C741 H727 0.931 . S
C741 C740 1.385 . S
C741 C742 1.389 . S
C742 C741 1.389 . S
C742 C743 1.387 . S
C743 H728 0.930 1_655 S
C743 C738 1.390 . S
C743 C742 1.387 . S
H744 C756 0.930 . S
H745 C758 0.930 . S
H746 C759 0.930 . S
H747 C763 0.959 . S
H748 C763 0.959 . S
H749 C763 0.961 . S
H750 C764 0.960 . S
H751 C764 0.961 . S
H752 C764 0.959 . S
H753 C767 0.929 . S
H754 C768 0.931 . S
H755 C770 0.930 . S
C756 H744 0.930 . S
C756 C757 1.399 . S
C756 C761 1.399 . S
C757 C756 1.399 . S
C757 C758 1.376 . S
C758 H745 0.930 . S
C758 C757 1.376 . S
C758 C759 1.388 . S
C759 H746 0.930 . S
C759 C758 1.388 . S
C759 C760 1.390 . S
C760 C759 1.390 . S
C760 C761 1.394 . S
C760 C766 1.465 . S
C761 C756 1.399 . S
C761 C760 1.394 . S
C761 C762 1.516 . S
C762 C761 1.516 . S
C762 C763 1.502 . S
C762 C764 1.561 . S
C762 C765 1.526 . S
C763 H747 0.959 . S
C763 H748 0.959 . S
C763 H749 0.961 . S
C763 C762 1.502 . S
C764 H750 0.960 . S
C764 H751 0.961 . S
C764 H752 0.959 . S
C764 C762 1.561 . S
C765 C762 1.526 . S
C765 C766 1.396 . S
C765 C770 1.390 . S
C766 C760 1.465 . S
C766 C765 1.396 . S
C766 C767 1.399 . S
C767 H753 0.929 . S
C767 C766 1.399 . S
C767 C768 1.385 . S
C768 H754 0.931 . S
C768 C767 1.385 . S
C768 C769 1.389 . S
C769 C768 1.389 . S
C769 C770 1.387 . S
C770 H755 0.930 . S
C770 C765 1.390 . S
C770 C769 1.387 . S
H771 C783 0.930 . S
H772 C785 0.930 . S
H773 C786 0.930 . S
H774 C790 0.959 . S
H775 C790 0.959 . S
H776 C790 0.961 . S
H777 C791 0.960 . S
H778 C791 0.961 . S
H779 C791 0.959 . S
H780 C794 0.929 . S
H781 C795 0.931 . S
H782 C797 0.930 . S
C783 H771 0.930 . S
C783 C784 1.399 . S
C783 C788 1.399 . S
C784 C783 1.399 . S
C784 C785 1.376 . S
C785 H772 0.930 . S
C785 C784 1.376 . S
C785 C786 1.388 . S
C786 H773 0.930 . S
C786 C785 1.388 . S
C786 C787 1.390 . S
C787 C786 1.390 . S
C787 C788 1.394 . S
C787 C793 1.465 . S
C788 C783 1.399 . S
C788 C787 1.394 . S
C788 C789 1.516 . S
C789 C788 1.516 . S
C789 C790 1.502 . S
C789 C791 1.561 . S
C789 C792 1.526 . S
C790 H774 0.959 . S
C790 H775 0.959 . S
C790 H776 0.961 . S
C790 C789 1.502 . S
C791 H777 0.960 . S
C791 H778 0.961 . S
C791 H779 0.959 . S
C791 C789 1.561 . S
C792 C789 1.526 . S
C792 C793 1.396 . S
C792 C797 1.390 . S
C793 C787 1.465 . S
C793 C792 1.396 . S
C793 C794 1.399 . S
C794 H780 0.929 . S
C794 C793 1.399 . S
C794 C795 1.385 . S
C795 H781 0.931 . S
C795 C794 1.385 . S
C795 C796 1.389 . S
C796 C795 1.389 . S
C796 C797 1.387 . S
C797 H782 0.930 . S
C797 C792 1.390 . S
C797 C796 1.387 . S
H798 C810 0.930 . S
H799 C812 0.930 1_554 S
H800 C813 0.930 1_545 S
H801 C817 0.959 . S
H802 C817 0.959 . S
H803 C817 0.961 . S
H804 C818 0.960 . S
H805 C818 0.961 . S
H806 C818 0.959 . S
H807 C821 0.929 . S
H808 C822 0.931 . S
H809 C824 0.930 . S
C810 H798 0.930 . S
C810 C811 1.399 . S
C810 C815 1.399 . S
C811 C810 1.399 . S
C811 C812 1.377 1_565 S
C812 H799 0.930 1_556 S
C812 C811 1.377 1_545 S
C812 C813 1.388 1_546 S
C813 H800 0.930 1_565 S
C813 C812 1.388 1_564 S
C813 C814 1.390 1_554 S
C814 C813 1.390 1_556 S
C814 C815 1.394 . S
C814 C820 1.465 . S
C815 C810 1.399 . S
C815 C814 1.394 . S
C815 C816 1.516 . S
C816 C815 1.516 . S
C816 C817 1.502 . S
C816 C818 1.561 . S
C816 C819 1.526 . S
C817 H801 0.959 . S
C817 H802 0.959 . S
C817 H803 0.961 . S
C817 C816 1.502 . S
C818 H804 0.960 . S
C818 H805 0.961 . S
C818 H806 0.959 . S
C818 C816 1.561 . S
C819 C816 1.526 . S
C819 C820 1.396 . S
C819 C824 1.390 . S
C820 C814 1.465 . S
C820 C819 1.396 . S
C820 C821 1.399 1_556 S
C821 H807 0.929 . S
C821 C820 1.399 1_554 S
C821 C822 1.385 . S
C822 H808 0.931 . S
C822 C821 1.385 . S
C822 C823 1.389 1_554 S
C823 C822 1.389 1_556 S
C823 C824 1.387 . S
C824 H809 0.930 . S
C824 C819 1.390 . S
C824 C823 1.387 . S
H825 C837 0.930 . S
H826 C839 0.930 . S
H827 C840 0.930 . S
H828 C844 0.959 . S
H829 C844 0.959 . S
H830 C844 0.961 . S
H831 C845 0.960 . S
H832 C845 0.961 . S
H833 C845 0.959 . S
H834 C848 0.929 . S
H835 C849 0.931 . S
H836 C851 0.930 . S
C837 H825 0.930 . S
C837 C838 1.399 . S
C837 C842 1.399 . S
C838 C837 1.399 . S
C838 C839 1.376 . S
C839 H826 0.930 . S
C839 C838 1.376 . S
C839 C840 1.388 . S
C840 H827 0.930 . S
C840 C839 1.388 . S
C840 C841 1.390 . S
C841 C840 1.390 . S
C841 C842 1.394 . S
C841 C847 1.465 . S
C842 C837 1.399 . S
C842 C841 1.394 . S
C842 C843 1.516 . S
C843 C842 1.516 . S
C843 C844 1.502 . S
C843 C845 1.561 . S
C843 C846 1.526 . S
C844 H828 0.959 . S
C844 H829 0.959 . S
C844 H830 0.961 . S
C844 C843 1.502 . S
C845 H831 0.960 . S
C845 H832 0.961 . S
C845 H833 0.959 . S
C845 C843 1.561 . S
C846 C843 1.526 . S
C846 C847 1.396 . S
C846 C851 1.390 . S
C847 C841 1.465 . S
C847 C846 1.396 . S
C847 C848 1.399 . S
C848 H834 0.929 . S
C848 C847 1.399 . S
C848 C849 1.385 . S
C849 H835 0.931 . S
C849 C848 1.385 . S
C849 C850 1.389 . S
C850 C849 1.389 . S
C850 C851 1.387 . S
C851 H836 0.930 . S
C851 C846 1.390 . S
C851 C850 1.387 . S
H852 C864 0.914 1_565 S
H853 C866 0.930 . S
H854 C867 0.930 . S
H855 C871 0.959 . S
H856 C871 0.959 . S
H857 C871 0.961 . S
H858 C872 0.960 1_565 S
H859 C872 0.961 . S
H860 C872 0.959 . S
H861 C875 0.929 . S
H862 C876 0.931 . S
H863 C878 0.930 . S
C864 H852 0.914 1_545 S
C864 C865 1.399 . S
C864 C869 1.399 . S
C865 C864 1.399 . S
C865 C866 1.376 . S
C866 H853 0.930 . S
C866 C865 1.376 . S
C866 C867 1.388 . S
C867 H854 0.930 . S
C867 C866 1.388 . S
C867 C868 1.390 . S
C868 C867 1.390 . S
C868 C869 1.394 . S
C868 C874 1.465 . S
C869 C864 1.399 . S
C869 C868 1.394 . S
C869 C870 1.516 . S
C870 C869 1.516 . S
C870 C871 1.502 . S
C870 C872 1.561 . S
C870 C873 1.526 . S
C871 H855 0.959 . S
C871 H856 0.959 . S
C871 H857 0.961 . S
C871 C870 1.502 . S
C872 H858 0.960 1_545 S
C872 H859 0.961 . S
C872 H860 0.959 . S
C872 C870 1.561 . S
C873 C870 1.526 . S
C873 C874 1.396 . S
C873 C878 1.390 . S
C874 C868 1.465 . S
C874 C873 1.396 . S
C874 C875 1.399 . S
C875 H861 0.929 . S
C875 C874 1.399 . S
C875 C876 1.385 . S
C876 H862 0.931 . S
C876 C875 1.385 . S
C876 C877 1.389 . S
C877 C876 1.389 . S
C877 C878 1.387 . S
C878 H863 0.930 . S
C878 C873 1.390 . S
C878 C877 1.387 . S
H879 C891 0.930 . S
H880 C893 0.930 . S
H881 C894 0.930 . S
H882 C898 0.959 . S
H883 C898 0.959 . S
H884 C898 0.961 . S
H885 C899 0.960 . S
H886 C899 0.961 . S
H887 C899 0.959 . S
H888 C902 0.929 . S
H889 C903 0.931 . S
H890 C905 0.930 . S
C891 H879 0.930 . S
C891 C892 1.399 . S
C891 C896 1.399 . S
C892 C891 1.399 . S
C892 C893 1.376 . S
C893 H880 0.930 . S
C893 C892 1.376 . S
C893 C894 1.388 . S
C894 H881 0.930 . S
C894 C893 1.388 . S
C894 C895 1.390 . S
C895 C894 1.390 . S
C895 C896 1.394 . S
C895 C901 1.465 . S
C896 C891 1.399 . S
C896 C895 1.394 . S
C896 C897 1.516 . S
C897 C896 1.516 . S
C897 C898 1.502 . S
C897 C899 1.561 . S
C897 C900 1.526 . S
C898 H882 0.959 . S
C898 H883 0.959 . S
C898 H884 0.961 . S
C898 C897 1.502 . S
C899 H885 0.960 . S
C899 H886 0.961 . S
C899 H887 0.959 . S
C899 C897 1.561 . S
C900 C897 1.526 . S
C900 C901 1.396 . S
C900 C905 1.390 . S
C901 C895 1.465 . S
C901 C900 1.396 . S
C901 C902 1.399 . S
C902 H888 0.929 . S
C902 C901 1.399 . S
C902 C903 1.385 . S
C903 H889 0.931 . S
C903 C902 1.385 . S
C903 C904 1.389 . S
C904 C903 1.389 . S
C904 C905 1.387 . S
C905 H890 0.930 . S
C905 C900 1.390 . S
C905 C904 1.387 . S
H906 C918 0.930 . S
H907 C920 0.930 . S
H908 C921 0.930 . S
H909 C925 0.959 . S
H910 C925 0.959 . S
H911 C925 0.961 1_565 S
H912 C926 0.960 . S
H913 C926 0.961 . S
H914 C926 0.959 1_545 S
H915 C929 0.929 . S
H916 C930 0.931 . S
H917 C932 0.930 . S
C918 H906 0.930 . S
C918 C919 1.393 1_565 S
C918 C923 1.399 1_565 S
C919 C918 1.393 1_545 S
C919 C920 1.418 . S
C920 H907 0.930 . S
C920 C919 1.418 . S
C920 C921 1.388 . S
C921 H908 0.930 . S
C921 C920 1.388 . S
C921 C922 1.390 . S
C922 C921 1.390 . S
C922 C923 1.394 . S
C922 C928 1.465 . S
C923 C918 1.399 1_545 S
C923 C922 1.394 . S
C923 C924 1.516 . S
C924 C923 1.516 . S
C924 C925 1.502 . S
C924 C926 1.561 1_545 S
C924 C927 1.526 . S
C925 H909 0.959 . S
C925 H910 0.959 . S
C925 H911 0.961 1_545 S
C925 C924 1.502 . S
C926 H912 0.960 . S
C926 H913 0.961 . S
C926 H914 0.959 1_565 S
C926 C924 1.561 1_565 S
C927 C924 1.526 . S
C927 C928 1.396 . S
C927 C932 1.390 . S
C928 C922 1.465 . S
C928 C927 1.396 . S
C928 C929 1.399 . S
C929 H915 0.929 . S
C929 C928 1.399 . S
C929 C930 1.385 . S
C930 H916 0.931 . S
C930 C929 1.385 . S
C930 C931 1.389 . S
C931 C930 1.389 . S
C931 C932 1.387 . S
C932 H917 0.930 . S
C932 C927 1.390 . S
C932 C931 1.387 . S
H933 C945 0.930 . S
H934 C947 0.930 . S
H935 C948 0.930 . S
H936 C952 0.959 . S
H937 C952 0.959 . S
H938 C952 0.961 . S
H939 C953 0.960 . S
H940 C953 0.961 . S
H941 C953 0.959 . S
H942 C956 0.929 . S
H943 C957 0.931 . S
H944 C959 0.930 . S
C945 H933 0.930 . S
C945 C946 1.399 . S
C945 C950 1.399 . S
C946 C945 1.399 . S
C946 C947 1.376 . S
C947 H934 0.930 . S
C947 C946 1.376 . S
C947 C948 1.388 . S
C948 H935 0.930 . S
C948 C947 1.388 . S
C948 C949 1.390 . S
C949 C948 1.390 . S
C949 C950 1.394 . S
C949 C955 1.465 . S
C950 C945 1.399 . S
C950 C949 1.394 . S
C950 C951 1.516 . S
C951 C950 1.516 . S
C951 C952 1.502 . S
C951 C953 1.561 . S
C951 C954 1.526 . S
C952 H936 0.959 . S
C952 H937 0.959 . S
C952 H938 0.961 . S
C952 C951 1.502 . S
C953 H939 0.960 . S
C953 H940 0.961 . S
C953 H941 0.959 . S
C953 C951 1.561 . S
C954 C951 1.526 . S
C954 C955 1.396 . S
C954 C959 1.390 . S
C955 C949 1.465 . S
C955 C954 1.396 . S
C955 C956 1.399 . S
C956 H942 0.929 . S
C956 C955 1.399 . S
C956 C957 1.385 . S
C957 H943 0.931 . S
C957 C956 1.385 . S
C957 C958 1.389 . S
C958 C957 1.389 . S
C958 C959 1.387 . S
C959 H944 0.930 . S
C959 C954 1.390 . S
C959 C958 1.387 . S
H960 C972 0.930 . S
H961 C974 0.930 . S
H962 C975 0.930 . S
H963 C979 0.959 . S
H964 C979 0.959 . S
H965 C979 0.961 . S
H966 C980 0.960 . S
H967 C980 0.961 . S
H968 C980 0.959 . S
H969 C983 0.929 . S
H970 C984 0.931 . S
H971 C986 0.930 . S
C972 H960 0.930 . S
C972 C973 1.399 . S
C972 C977 1.399 . S
C973 C972 1.399 . S
C973 C974 1.376 . S
C974 H961 0.930 . S
C974 C973 1.376 . S
C974 C975 1.388 . S
C975 H962 0.930 . S
C975 C974 1.388 . S
C975 C976 1.390 . S
C976 C975 1.390 . S
C976 C977 1.394 . S
C976 C982 1.465 . S
C977 C972 1.399 . S
C977 C976 1.394 . S
C977 C978 1.516 . S
C978 C977 1.516 . S
C978 C979 1.502 . S
C978 C980 1.561 . S
C978 C981 1.526 . S
C979 H963 0.959 . S
C979 H964 0.959 . S
C979 H965 0.961 . S
C979 C978 1.502 . S
C980 H966 0.960 . S
C980 H967 0.961 . S
C980 H968 0.959 . S
C980 C978 1.561 . S
C981 C978 1.526 . S
C981 C982 1.396 . S
C981 C986 1.390 . S
C982 C976 1.465 . S
C982 C981 1.396 . S
C982 C983 1.399 . S
C983 H969 0.929 . S
C983 C982 1.399 . S
C983 C984 1.385 . S
C984 H970 0.931 . S
C984 C983 1.385 . S
C984 C985 1.389 . S
C985 C984 1.389 . S
C985 C986 1.387 . S
C986 H971 0.930 . S
C986 C981 1.390 . S
C986 C985 1.387 . S
H987 C999 0.930 . S
H988 C1001 0.918 1_565 S
H989 C1002 0.919 1_565 S
H990 C1006 0.959 . S
H991 C1006 0.959 . S
H992 C1006 0.961 . S
H993 C1007 0.960 . S
H994 C1007 0.961 . S
H995 C1007 0.959 . S
H996 C1010 0.929 . S
H997 C1011 0.931 . S
H998 C1013 0.930 . S
C999 H987 0.930 . S
C999 C1000 1.399 . S
C999 C1004 1.399 . S
C1000 C999 1.399 . S
C1000 C1001 1.376 . S
C1001 H988 0.918 1_545 S
C1001 C1000 1.376 . S
C1001 C1002 1.393 . S
C1002 H989 0.919 1_545 S
C1002 C1001 1.393 . S
C1002 C1003 1.397 . S
C1003 C1002 1.397 . S
C1003 C1004 1.394 . S
C1003 C1009 1.465 . S
C1004 C999 1.399 . S
C1004 C1003 1.394 . S
C1004 C1005 1.516 . S
C1005 C1004 1.516 . S
C1005 C1006 1.502 . S
C1005 C1007 1.561 . S
C1005 C1008 1.526 . S
C1006 H990 0.959 . S
C1006 H991 0.959 . S
C1006 H992 0.961 . S
C1006 C1005 1.502 . S
C1007 H993 0.960 . S
C1007 H994 0.961 . S
C1007 H995 0.959 . S
C1007 C1005 1.561 . S
C1008 C1005 1.526 . S
C1008 C1009 1.396 . S
C1008 C1013 1.390 . S
C1009 C1003 1.465 . S
C1009 C1008 1.396 . S
C1009 C1010 1.399 1_545 S
C1010 H996 0.929 . S
C1010 C1009 1.399 1_565 S
C1010 C1011 1.385 . S
C1011 H997 0.931 . S
C1011 C1010 1.385 . S
C1011 C1012 1.389 1_565 S
C1012 C1011 1.389 1_545 S
C1012 C1013 1.387 . S
C1013 H998 0.930 . S
C1013 C1008 1.390 . S
C1013 C1012 1.387 . S
H1014 C1026 0.930 . S
H1015 C1028 0.930 . S
H1016 C1029 0.930 . S
H1017 C1033 0.959 . S
H1018 C1033 0.959 . S
H1019 C1033 0.961 . S
H1020 C1034 0.960 . S
H1021 C1034 0.961 . S
H1022 C1034 0.959 . S
H1023 C1037 0.929 . S
H1024 C1038 0.931 . S
H1025 C1040 0.930 . S
C1026 H1014 0.930 . S
C1026 C1027 1.399 . S
C1026 C1031 1.399 . S
C1027 C1026 1.399 . S
C1027 C1028 1.376 . S
C1028 H1015 0.930 . S
C1028 C1027 1.376 . S
C1028 C1029 1.388 . S
C1029 H1016 0.930 . S
C1029 C1028 1.388 . S
C1029 C1030 1.390 . S
C1030 C1029 1.390 . S
C1030 C1031 1.394 . S
C1030 C1036 1.465 . S
C1031 C1026 1.399 . S
C1031 C1030 1.394 . S
C1031 C1032 1.516 . S
C1032 C1031 1.516 . S
C1032 C1033 1.502 . S
C1032 C1034 1.561 . S
C1032 C1035 1.526 . S
C1033 H1017 0.959 . S
C1033 H1018 0.959 . S
C1033 H1019 0.961 . S
C1033 C1032 1.502 . S
C1034 H1020 0.960 . S
C1034 H1021 0.961 . S
C1034 H1022 0.959 . S
C1034 C1032 1.561 . S
C1035 C1032 1.526 . S
C1035 C1036 1.396 . S
C1035 C1040 1.390 . S
C1036 C1030 1.465 . S
C1036 C1035 1.396 . S
C1036 C1037 1.399 . S
C1037 H1023 0.929 . S
C1037 C1036 1.399 . S
C1037 C1038 1.385 . S
C1038 H1024 0.931 . S
C1038 C1037 1.385 . S
C1038 C1039 1.389 . S
C1039 C1038 1.389 . S
C1039 C1040 1.387 . S
C1040 H1025 0.930 . S
C1040 C1035 1.390 . S
C1040 C1039 1.387 . S
H1041 C1053 0.930 . S
H1042 C1055 0.930 . S
H1043 C1056 0.930 . S
H1044 C1060 0.959 . S
H1045 C1060 0.959 . S
H1046 C1060 0.961 . S
H1047 C1061 0.960 . S
H1048 C1061 0.961 . S
H1049 C1061 0.959 . S
H1050 C1064 0.929 . S
H1051 C1065 0.931 . S
H1052 C1067 0.930 . S
C1053 H1041 0.930 . S
C1053 C1054 1.399 . S
C1053 C1058 1.399 . S
C1054 C1053 1.399 . S
C1054 C1055 1.376 . S
C1055 H1042 0.930 . S
C1055 C1054 1.376 . S
C1055 C1056 1.388 . S
C1056 H1043 0.930 . S
C1056 C1055 1.388 . S
C1056 C1057 1.390 . S
C1057 C1056 1.390 . S
C1057 C1058 1.394 . S
C1057 C1063 1.465 . S
C1058 C1053 1.399 . S
C1058 C1057 1.394 . S
C1058 C1059 1.516 . S
C1059 C1058 1.516 . S
C1059 C1060 1.502 . S
C1059 C1061 1.561 . S
C1059 C1062 1.526 . S
C1060 H1044 0.959 . S
C1060 H1045 0.959 . S
C1060 H1046 0.961 . S
C1060 C1059 1.502 . S
C1061 H1047 0.960 . S
C1061 H1048 0.961 . S
C1061 H1049 0.959 . S
C1061 C1059 1.561 . S
C1062 C1059 1.526 . S
C1062 C1063 1.396 . S
C1062 C1067 1.390 . S
C1063 C1057 1.465 . S
C1063 C1062 1.396 . S
C1063 C1064 1.399 . S
C1064 H1050 0.929 . S
C1064 C1063 1.399 . S
C1064 C1065 1.385 . S
C1065 H1051 0.931 . S
C1065 C1064 1.385 . S
C1065 C1066 1.389 . S
C1066 C1065 1.389 . S
C1066 C1067 1.387 . S
C1067 H1052 0.930 . S
C1067 C1062 1.390 . S
C1067 C1066 1.387 . S
H1068 C1080 0.930 . S
H1069 C1082 0.930 . S
H1070 C1083 0.930 . S
H1071 C1087 0.959 . S
H1072 C1087 0.959 . S
H1073 C1087 0.961 . S
H1074 C1088 0.960 . S
H1075 C1088 0.961 . S
H1076 C1088 0.959 . S
H1077 C1091 0.929 . S
H1078 C1092 0.931 . S
H1079 C1094 0.930 . S
C1080 H1068 0.930 . S
C1080 C1081 1.399 . S
C1080 C1085 1.399 . S
C1081 C1080 1.399 . S
C1081 C1082 1.376 . S
C1082 H1069 0.930 . S
C1082 C1081 1.376 . S
C1082 C1083 1.388 . S
C1083 H1070 0.930 . S
C1083 C1082 1.388 . S
C1083 C1084 1.390 . S
C1084 C1083 1.390 . S
C1084 C1085 1.394 . S
C1084 C1090 1.465 . S
C1085 C1080 1.399 . S
C1085 C1084 1.394 . S
C1085 C1086 1.516 . S
C1086 C1085 1.516 . S
C1086 C1087 1.502 . S
C1086 C1088 1.561 . S
C1086 C1089 1.526 . S
C1087 H1071 0.959 . S
C1087 H1072 0.959 . S
C1087 H1073 0.961 . S
C1087 C1086 1.502 . S
C1088 H1074 0.960 . S
C1088 H1075 0.961 . S
C1088 H1076 0.959 . S
C1088 C1086 1.561 . S
C1089 C1086 1.526 . S
C1089 C1090 1.396 . S
C1089 C1094 1.390 . S
C1090 C1084 1.465 . S
C1090 C1089 1.396 . S
C1090 C1091 1.399 . S
C1091 H1077 0.929 . S
C1091 C1090 1.399 . S
C1091 C1092 1.385 . S
C1092 H1078 0.931 . S
C1092 C1091 1.385 . S
C1092 C1093 1.389 . S
C1093 C1092 1.389 . S
C1093 C1094 1.387 . S
C1094 H1079 0.930 . S
C1094 C1089 1.390 . S
C1094 C1093 1.387 . S
H1095 C1107 0.930 . S
H1096 C1109 0.930 . S
H1097 C1110 0.930 . S
H1098 C1114 0.959 . S
H1099 C1114 0.959 . S
H1100 C1114 0.961 . S
H1101 C1115 0.960 . S
H1102 C1115 0.961 . S
H1103 C1115 0.959 . S
H1104 C1118 0.929 . S
H1105 C1119 0.931 . S
H1106 C1121 0.930 . S
C1107 H1095 0.930 . S
C1107 C1108 1.399 1_655 S
C1107 C1112 1.399 . S
C1108 C1107 1.399 1_455 S
C1108 C1109 1.376 . S
C1109 H1096 0.930 . S
C1109 C1108 1.376 . S
C1109 C1110 1.388 . S
C1110 H1097 0.930 . S
C1110 C1109 1.388 . S
C1110 C1111 1.390 1_455 S
C1111 C1110 1.390 1_655 S
C1111 C1112 1.394 . S
C1111 C1117 1.465 . S
C1112 C1107 1.399 . S
C1112 C1111 1.394 . S
C1112 C1113 1.516 . S
C1113 C1112 1.516 . S
C1113 C1114 1.502 . S
C1113 C1115 1.561 1_545 S
C1113 C1116 1.526 . S
C1114 H1098 0.959 . S
C1114 H1099 0.959 . S
C1114 H1100 0.961 . S
C1114 C1113 1.502 . S
C1115 H1101 0.960 . S
C1115 H1102 0.961 . S
C1115 H1103 0.959 . S
C1115 C1113 1.561 1_565 S
C1116 C1113 1.526 . S
C1116 C1117 1.396 . S
C1116 C1121 1.390 . S
C1117 C1111 1.465 . S
C1117 C1116 1.396 . S
C1117 C1118 1.399 . S
C1118 H1104 0.929 . S
C1118 C1117 1.399 . S
C1118 C1119 1.385 . S
C1119 H1105 0.931 . S
C1119 C1118 1.385 . S
C1119 C1120 1.389 . S
C1120 C1119 1.389 . S
C1120 C1121 1.387 . S
C1121 H1106 0.930 . S
C1121 C1116 1.390 . S
C1121 C1120 1.387 . S
H1122 C1134 0.930 . S
H1123 C1136 0.930 . S
H1124 C1137 0.930 . S
H1125 C1141 0.959 . S
H1126 C1141 0.959 . S
H1127 C1141 0.961 . S
H1128 C1142 0.960 . S
H1129 C1142 0.961 . S
H1130 C1142 0.959 . S
H1131 C1145 0.929 . S
H1132 C1146 0.931 . S
H1133 C1148 0.930 . S
C1134 H1122 0.930 . S
C1134 C1135 1.399 . S
C1134 C1139 1.399 . S
C1135 C1134 1.399 . S
C1135 C1136 1.376 . S
C1136 H1123 0.930 . S
C1136 C1135 1.376 . S
C1136 C1137 1.388 . S
C1137 H1124 0.930 . S
C1137 C1136 1.388 . S
C1137 C1138 1.390 . S
C1138 C1137 1.390 . S
C1138 C1139 1.394 . S
C1138 C1144 1.465 . S
C1139 C1134 1.399 . S
C1139 C1138 1.394 . S
C1139 C1140 1.516 . S
C1140 C1139 1.516 . S
C1140 C1141 1.502 . S
C1140 C1142 1.561 . S
C1140 C1143 1.526 . S
C1141 H1125 0.959 . S
C1141 H1126 0.959 . S
C1141 H1127 0.961 . S
C1141 C1140 1.502 . S
C1142 H1128 0.960 . S
C1142 H1129 0.961 . S
C1142 H1130 0.959 . S
C1142 C1140 1.561 . S
C1143 C1140 1.526 . S
C1143 C1144 1.396 . S
C1143 C1148 1.390 . S
C1144 C1138 1.465 . S
C1144 C1143 1.396 . S
C1144 C1145 1.399 . S
C1145 H1131 0.929 . S
C1145 C1144 1.399 . S
C1145 C1146 1.385 . S
C1146 H1132 0.931 . S
C1146 C1145 1.385 . S
C1146 C1147 1.389 . S
C1147 C1146 1.389 . S
C1147 C1148 1.387 . S
C1148 H1133 0.930 . S
C1148 C1143 1.390 . S
C1148 C1147 1.387 . S
H1149 C1161 0.930 . S
H1150 C1163 0.930 . S
H1151 C1164 0.930 . S
H1152 C1168 0.959 . S
H1153 C1168 0.959 . S
H1154 C1168 0.961 . S
H1155 C1169 0.960 . S
H1156 C1169 0.961 . S
H1157 C1169 0.959 . S
H1158 C1172 0.929 . S
H1159 C1173 0.931 . S
H1160 C1175 0.930 . S
C1161 H1149 0.930 . S
C1161 C1162 1.399 . S
C1161 C1166 1.399 . S
C1162 C1161 1.399 . S
C1162 C1163 1.376 . S
C1163 H1150 0.930 . S
C1163 C1162 1.376 . S
C1163 C1164 1.388 . S
C1164 H1151 0.930 . S
C1164 C1163 1.388 . S
C1164 C1165 1.390 . S
C1165 C1164 1.390 . S
C1165 C1166 1.394 . S
C1165 C1171 1.465 . S
C1166 C1161 1.399 . S
C1166 C1165 1.394 . S
C1166 C1167 1.516 . S
C1167 C1166 1.516 . S
C1167 C1168 1.502 . S
C1167 C1169 1.561 . S
C1167 C1170 1.526 . S
C1168 H1152 0.959 . S
C1168 H1153 0.959 . S
C1168 H1154 0.961 . S
C1168 C1167 1.502 . S
C1169 H1155 0.960 . S
C1169 H1156 0.961 . S
C1169 H1157 0.959 . S
C1169 C1167 1.561 . S
C1170 C1167 1.526 . S
C1170 C1171 1.396 . S
C1170 C1175 1.390 . S
C1171 C1165 1.465 . S
C1171 C1170 1.396 . S
C1171 C1172 1.399 . S
C1172 H1158 0.929 . S
C1172 C1171 1.399 . S
C1172 C1173 1.385 . S
C1173 H1159 0.931 . S
C1173 C1172 1.385 . S
C1173 C1174 1.389 . S
C1174 C1173 1.389 . S
C1174 C1175 1.387 . S
C1175 H1160 0.930 . S
C1175 C1170 1.390 . S
C1175 C1174 1.387 . S
H1176 C1188 0.930 . S
H1177 C1190 0.930 . S
H1178 C1191 0.930 . S
H1179 C1195 0.959 . S
H1180 C1195 0.959 . S
H1181 C1195 0.961 . S
H1182 C1196 0.960 . S
H1183 C1196 0.961 . S
H1184 C1196 0.959 . S
H1185 C1199 0.929 . S
H1186 C1200 0.931 . S
H1187 C1202 0.930 . S
C1188 H1176 0.930 . S
C1188 C1189 1.399 . S
C1188 C1193 1.399 . S
C1189 C1188 1.399 . S
C1189 C1190 1.376 . S
C1190 H1177 0.930 . S
C1190 C1189 1.376 . S
C1190 C1191 1.388 . S
C1191 H1178 0.930 . S
C1191 C1190 1.388 . S
C1191 C1192 1.390 . S
C1192 C1191 1.390 . S
C1192 C1193 1.394 . S
C1192 C1198 1.465 . S
C1193 C1188 1.399 . S
C1193 C1192 1.394 . S
C1193 C1194 1.516 . S
C1194 C1193 1.516 . S
C1194 C1195 1.502 . S
C1194 C1196 1.561 . S
C1194 C1197 1.526 . S
C1195 H1179 0.959 . S
C1195 H1180 0.959 . S
C1195 H1181 0.961 . S
C1195 C1194 1.502 . S
C1196 H1182 0.960 . S
C1196 H1183 0.961 . S
C1196 H1184 0.959 . S
C1196 C1194 1.561 . S
C1197 C1194 1.526 . S
C1197 C1198 1.396 . S
C1197 C1202 1.390 . S
C1198 C1192 1.465 . S
C1198 C1197 1.396 . S
C1198 C1199 1.399 . S
C1199 H1185 0.929 . S
C1199 C1198 1.399 . S
C1199 C1200 1.385 . S
C1200 H1186 0.931 . S
C1200 C1199 1.385 . S
C1200 C1201 1.389 . S
C1201 C1200 1.389 . S
C1201 C1202 1.387 . S
C1202 H1187 0.930 . S
C1202 C1197 1.390 . S
C1202 C1201 1.387 . S
H1203 C1215 0.930 . S
H1204 C1217 0.930 . S
H1205 C1218 0.930 . S
H1206 C1222 0.959 . S
H1207 C1222 0.959 . S
H1208 C1222 0.961 . S
H1209 C1223 0.960 . S
H1210 C1223 0.961 . S
H1211 C1223 0.959 . S
H1212 C1226 0.927 1_655 S
H1213 C1227 0.931 . S
H1214 C1229 0.930 . S
C1215 H1203 0.930 . S
C1215 C1216 1.399 1_556 S
C1215 C1220 1.399 . S
C1216 C1215 1.399 1_554 S
C1216 C1217 1.376 . S
C1217 H1204 0.930 . S
C1217 C1216 1.376 . S
C1217 C1218 1.388 . S
C1218 H1205 0.930 . S
C1218 C1217 1.388 . S
C1218 C1219 1.390 1_554 S
C1219 C1218 1.390 1_556 S
C1219 C1220 1.394 . S
C1219 C1225 1.470 . S
C1220 C1215 1.399 . S
C1220 C1219 1.394 . S
C1220 C1221 1.516 1_655 S
C1221 C1220 1.516 1_455 S
C1221 C1222 1.502 1_455 S
C1221 C1223 1.561 . S
C1221 C1224 1.526 . S
C1222 H1206 0.959 . S
C1222 H1207 0.959 . S
C1222 H1208 0.961 . S
C1222 C1221 1.502 1_655 S
C1223 H1209 0.960 . S
C1223 H1210 0.961 . S
C1223 H1211 0.959 . S
C1223 C1221 1.561 . S
C1224 C1221 1.526 . S
C1224 C1225 1.393 1_455 S
C1224 C1229 1.390 . S
C1225 C1219 1.470 . S
C1225 C1224 1.393 1_655 S
C1225 C1226 1.396 1_655 S
C1226 H1212 0.927 1_455 S
C1226 C1225 1.396 1_455 S
C1226 C1227 1.386 . S
C1227 H1213 0.931 . S
C1227 C1226 1.386 . S
C1227 C1228 1.389 . S
C1228 C1227 1.389 . S
C1228 C1229 1.387 . S
C1229 H1214 0.930 . S
C1229 C1224 1.390 . S
C1229 C1228 1.387 . S
H1230 C1242 0.930 . S
H1231 C1244 0.930 . S
H1232 C1245 0.930 . S
H1233 C1249 0.959 . S
H1234 C1249 0.959 . S
H1235 C1249 0.961 . S
H1236 C1250 0.960 . S
H1237 C1250 0.961 . S
H1238 C1250 0.959 . S
H1239 C1253 0.929 . S
H1240 C1254 0.931 . S
H1241 C1256 0.930 . S
C1242 H1230 0.930 . S
C1242 C1243 1.399 . S
C1242 C1247 1.399 . S
C1243 C1242 1.399 . S
C1243 C1244 1.376 . S
C1244 H1231 0.930 . S
C1244 C1243 1.376 . S
C1244 C1245 1.388 . S
C1245 H1232 0.930 . S
C1245 C1244 1.388 . S
C1245 C1246 1.390 . S
C1246 C1245 1.390 . S
C1246 C1247 1.394 . S
C1246 C1252 1.465 . S
C1247 C1242 1.399 . S
C1247 C1246 1.394 . S
C1247 C1248 1.516 . S
C1248 C1247 1.516 . S
C1248 C1249 1.502 . S
C1248 C1250 1.561 . S
C1248 C1251 1.526 . S
C1249 H1233 0.959 . S
C1249 H1234 0.959 . S
C1249 H1235 0.961 . S
C1249 C1248 1.502 . S
C1250 H1236 0.960 . S
C1250 H1237 0.961 . S
C1250 H1238 0.959 . S
C1250 C1248 1.561 . S
C1251 C1248 1.526 . S
C1251 C1252 1.396 . S
C1251 C1256 1.390 . S
C1252 C1246 1.465 . S
C1252 C1251 1.396 . S
C1252 C1253 1.399 . S
C1253 H1239 0.929 . S
C1253 C1252 1.399 . S
C1253 C1254 1.385 . S
C1254 H1240 0.931 . S
C1254 C1253 1.385 . S
C1254 C1255 1.389 . S
C1255 C1254 1.389 . S
C1255 C1256 1.387 . S
C1256 H1241 0.930 . S
C1256 C1251 1.390 . S
C1256 C1255 1.387 . S
H1257 C1269 0.930 1_554 S
H1258 C1271 0.925 1_655 S
H1259 C1272 0.930 1_655 S
H1260 C1276 0.954 1_554 S
H1261 C1276 0.959 . S
H1262 C1276 0.961 1_554 S
H1263 C1277 0.960 . S
H1264 C1277 0.961 . S
H1265 C1277 0.959 . S
H1266 C1280 0.929 . S
H1267 C1281 0.920 1_655 S
H1268 C1283 0.930 . S
C1269 H1257 0.930 1_556 S
C1269 C1270 1.399 . S
C1269 C1274 1.399 . S
C1270 C1269 1.399 . S
C1270 C1271 1.376 . S
C1271 H1258 0.925 1_455 S
C1271 C1270 1.376 . S
C1271 C1272 1.388 . S
C1272 H1259 0.930 1_455 S
C1272 C1271 1.388 . S
C1272 C1273 1.390 . S
C1273 C1272 1.390 . S
C1273 C1274 1.394 . S
C1273 C1279 1.465 . S
C1274 C1269 1.399 . S
C1274 C1273 1.394 . S
C1274 C1275 1.516 . S
C1275 C1274 1.516 . S
C1275 C1276 1.502 . S
C1275 C1277 1.561 . S
C1275 C1278 1.526 . S
C1276 H1260 0.954 1_556 S
C1276 H1261 0.959 . S
C1276 H1262 0.961 1_556 S
C1276 C1275 1.502 . S
C1277 H1263 0.960 . S
C1277 H1264 0.961 . S
C1277 H1265 0.959 . S
C1277 C1275 1.561 . S
C1278 C1275 1.526 . S
C1278 C1279 1.396 . S
C1278 C1283 1.390 . S
C1279 C1273 1.465 . S
C1279 C1278 1.396 . S
C1279 C1280 1.399 1_455 S
C1280 H1266 0.929 . S
C1280 C1279 1.399 1_655 S
C1280 C1281 1.385 1_655 S
C1281 H1267 0.920 1_455 S
C1281 C1280 1.385 1_455 S
C1281 C1282 1.401 . S
C1282 C1281 1.401 . S
C1282 C1283 1.387 . S
C1283 H1268 0.930 . S
C1283 C1278 1.390 . S
C1283 C1282 1.387 . S
H1284 C1296 0.930 . S
H1285 C1298 0.930 . S
H1286 C1299 0.930 . S
H1287 C1303 0.959 . S
H1288 C1303 0.959 . S
H1289 C1303 0.961 . S
H1290 C1304 0.960 . S
H1291 C1304 0.961 . S
H1292 C1304 0.959 . S
H1293 C1307 0.929 . S
H1294 C1308 0.931 . S
H1295 C1310 0.930 . S
C1296 H1284 0.930 . S
C1296 C1297 1.399 . S
C1296 C1301 1.399 . S
C1297 C1296 1.399 . S
C1297 C1298 1.376 . S
C1298 H1285 0.930 . S
C1298 C1297 1.376 . S
C1298 C1299 1.388 . S
C1299 H1286 0.930 . S
C1299 C1298 1.388 . S
C1299 C1300 1.390 . S
C1300 C1299 1.390 . S
C1300 C1301 1.394 . S
C1300 C1306 1.465 . S
C1301 C1296 1.399 . S
C1301 C1300 1.394 . S
C1301 C1302 1.516 . S
C1302 C1301 1.516 . S
C1302 C1303 1.502 . S
C1302 C1304 1.561 . S
C1302 C1305 1.526 . S
C1303 H1287 0.959 . S
C1303 H1288 0.959 . S
C1303 H1289 0.961 . S
C1303 C1302 1.502 . S
C1304 H1290 0.960 . S
C1304 H1291 0.961 . S
C1304 H1292 0.959 . S
C1304 C1302 1.561 . S
C1305 C1302 1.526 . S
C1305 C1306 1.396 . S
C1305 C1310 1.390 . S
C1306 C1300 1.465 . S
C1306 C1305 1.396 . S
C1306 C1307 1.399 . S
C1307 H1293 0.929 . S
C1307 C1306 1.399 . S
C1307 C1308 1.385 . S
C1308 H1294 0.931 . S
C1308 C1307 1.385 . S
C1308 C1309 1.389 . S
C1309 C1308 1.389 . S
C1309 C1310 1.387 . S
C1310 H1295 0.930 . S
C1310 C1305 1.390 . S
C1310 C1309 1.387 . S
H1311 C1323 0.919 1_556 S
H1312 C1325 0.930 . S
H1313 C1326 0.930 . S
H1314 C1330 0.959 . S
H1315 C1330 0.959 . S
H1316 C1330 0.961 . S
H1317 C1331 0.960 . S
H1318 C1331 0.961 1_554 S
H1319 C1331 0.959 . S
H1320 C1334 0.929 . S
H1321 C1335 0.931 . S
H1322 C1337 0.930 . S
C1323 H1311 0.919 1_554 S
C1323 C1324 1.395 1_554 S
C1323 C1328 1.414 . S
C1324 C1323 1.395 1_556 S
C1324 C1325 1.376 1_556 S
C1325 H1312 0.930 . S
C1325 C1324 1.376 1_554 S
C1325 C1326 1.388 . S
C1326 H1313 0.930 . S
C1326 C1325 1.388 . S
C1326 C1327 1.390 . S
C1327 C1326 1.390 . S
C1327 C1328 1.394 . S
C1327 C1333 1.465 . S
C1328 C1323 1.414 . S
C1328 C1327 1.394 . S
C1328 C1329 1.516 . S
C1329 C1328 1.516 . S
C1329 C1330 1.502 . S
C1329 C1331 1.561 1_554 S
C1329 C1332 1.526 . S
C1330 H1314 0.959 . S
C1330 H1315 0.959 . S
C1330 H1316 0.961 . S
C1330 C1329 1.502 . S
C1331 H1317 0.960 . S
C1331 H1318 0.961 1_556 S
C1331 H1319 0.959 . S
C1331 C1329 1.561 1_556 S
C1332 C1329 1.526 . S
C1332 C1333 1.396 . S
C1332 C1337 1.390 . S
C1333 C1327 1.465 . S
C1333 C1332 1.396 . S
C1333 C1334 1.399 . S
C1334 H1320 0.929 . S
C1334 C1333 1.399 . S
C1334 C1335 1.385 . S
C1335 H1321 0.931 . S
C1335 C1334 1.385 . S
C1335 C1336 1.389 . S
C1336 C1335 1.389 . S
C1336 C1337 1.387 . S
C1337 H1322 0.930 . S
C1337 C1332 1.390 . S
C1337 C1336 1.387 . S
H1338 C1350 0.930 . S
H1339 C1352 0.930 . S
H1340 C1353 0.930 . S
H1341 C1357 0.959 . S
H1342 C1357 0.959 . S
H1343 C1357 0.961 . S
H1344 C1358 0.960 . S
H1345 C1358 0.961 . S
H1346 C1358 0.959 . S
H1347 C1361 0.929 . S
H1348 C1362 0.931 . S
H1349 C1364 0.930 . S
C1350 H1338 0.930 . S
C1350 C1351 1.399 . S
C1350 C1355 1.399 . S
C1351 C1350 1.399 . S
C1351 C1352 1.376 . S
C1352 H1339 0.930 . S
C1352 C1351 1.376 . S
C1352 C1353 1.388 . S
C1353 H1340 0.930 . S
C1353 C1352 1.388 . S
C1353 C1354 1.390 . S
C1354 C1353 1.390 . S
C1354 C1355 1.394 . S
C1354 C1360 1.465 . S
C1355 C1350 1.399 . S
C1355 C1354 1.394 . S
C1355 C1356 1.516 . S
C1356 C1355 1.516 . S
C1356 C1357 1.502 . S
C1356 C1358 1.561 . S
C1356 C1359 1.526 . S
C1357 H1341 0.959 . S
C1357 H1342 0.959 . S
C1357 H1343 0.961 . S
C1357 C1356 1.502 . S
C1358 H1344 0.960 . S
C1358 H1345 0.961 . S
C1358 H1346 0.959 . S
C1358 C1356 1.561 . S
C1359 C1356 1.526 . S
C1359 C1360 1.396 . S
C1359 C1364 1.390 . S
C1360 C1354 1.465 . S
C1360 C1359 1.396 . S
C1360 C1361 1.399 . S
C1361 H1347 0.929 . S
C1361 C1360 1.399 . S
C1361 C1362 1.385 . S
C1362 H1348 0.931 . S
C1362 C1361 1.385 . S
C1362 C1363 1.389 . S
C1363 C1362 1.389 . S
C1363 C1364 1.387 . S
C1364 H1349 0.930 . S
C1364 C1359 1.390 . S
C1364 C1363 1.387 . S
H1365 C1377 0.930 . S
H1366 C1379 0.930 . S
H1367 C1380 0.930 . S
H1368 C1384 0.959 . S
H1369 C1384 0.959 . S
H1370 C1384 0.961 1_556 S
H1371 C1385 0.960 . S
H1372 C1385 0.961 . S
H1373 C1385 0.959 1_554 S
H1374 C1388 0.929 . S
H1375 C1389 0.931 . S
H1376 C1391 0.930 . S
C1377 H1365 0.930 . S
C1377 C1378 1.399 1_556 S
C1377 C1382 1.399 1_556 S
C1378 C1377 1.399 1_554 S
C1378 C1379 1.376 . S
C1379 H1366 0.930 . S
C1379 C1378 1.376 . S
C1379 C1380 1.388 . S
C1380 H1367 0.930 . S
C1380 C1379 1.388 . S
C1380 C1381 1.390 . S
C1381 C1380 1.390 . S
C1381 C1382 1.394 . S
C1381 C1387 1.465 . S
C1382 C1377 1.399 1_554 S
C1382 C1381 1.394 . S
C1382 C1383 1.516 . S
C1383 C1382 1.516 . S
C1383 C1384 1.502 . S
C1383 C1385 1.561 1_554 S
C1383 C1386 1.526 . S
C1384 H1368 0.959 . S
C1384 H1369 0.959 . S
C1384 H1370 0.961 1_554 S
C1384 C1383 1.502 . S
C1385 H1371 0.960 . S
C1385 H1372 0.961 . S
C1385 H1373 0.959 1_556 S
C1385 C1383 1.561 1_556 S
C1386 C1383 1.526 . S
C1386 C1387 1.396 . S
C1386 C1391 1.390 . S
C1387 C1381 1.465 . S
C1387 C1386 1.396 . S
C1387 C1388 1.399 . S
C1388 H1374 0.929 . S
C1388 C1387 1.399 . S
C1388 C1389 1.385 . S
C1389 H1375 0.931 . S
C1389 C1388 1.385 . S
C1389 C1390 1.389 . S
C1390 C1389 1.389 . S
C1390 C1391 1.387 . S
C1391 H1376 0.930 . S
C1391 C1386 1.390 . S
C1391 C1390 1.387 . S
H1392 C1404 0.930 . S
H1393 C1406 0.930 . S
H1394 C1407 0.930 . S
H1395 C1411 0.959 . S
H1396 C1411 0.959 . S
H1397 C1411 0.961 . S
H1398 C1412 0.960 . S
H1399 C1412 0.961 . S
H1400 C1412 0.959 . S
H1401 C1415 0.929 . S
H1402 C1416 0.931 . S
H1403 C1418 0.930 . S
C1404 H1392 0.930 . S
C1404 C1405 1.399 . S
C1404 C1409 1.399 . S
C1405 C1404 1.399 . S
C1405 C1406 1.376 . S
C1406 H1393 0.930 . S
C1406 C1405 1.376 . S
C1406 C1407 1.388 . S
C1407 H1394 0.930 . S
C1407 C1406 1.388 . S
C1407 C1408 1.390 . S
C1408 C1407 1.390 . S
C1408 C1409 1.394 . S
C1408 C1414 1.465 . S
C1409 C1404 1.399 . S
C1409 C1408 1.394 . S
C1409 C1410 1.516 . S
C1410 C1409 1.516 . S
C1410 C1411 1.502 . S
C1410 C1412 1.561 . S
C1410 C1413 1.526 . S
C1411 H1395 0.959 . S
C1411 H1396 0.959 . S
C1411 H1397 0.961 . S
C1411 C1410 1.502 . S
C1412 H1398 0.960 . S
C1412 H1399 0.961 . S
C1412 H1400 0.959 . S
C1412 C1410 1.561 . S
C1413 C1410 1.526 . S
C1413 C1414 1.396 . S
C1413 C1418 1.390 . S
C1414 C1408 1.465 . S
C1414 C1413 1.396 . S
C1414 C1415 1.399 . S
C1415 H1401 0.929 . S
C1415 C1414 1.399 . S
C1415 C1416 1.385 . S
C1416 H1402 0.931 . S
C1416 C1415 1.385 . S
C1416 C1417 1.389 . S
C1417 C1416 1.389 . S
C1417 C1418 1.387 . S
C1418 H1403 0.930 . S
C1418 C1413 1.390 . S
C1418 C1417 1.387 . S
H1419 C1431 0.930 . S
H1420 C1433 0.930 . S
H1421 C1434 0.930 . S
H1422 C1438 0.959 . S
H1423 C1438 0.959 . S
H1424 C1438 0.961 . S
H1425 C1439 0.960 . S
H1426 C1439 0.961 . S
H1427 C1439 0.959 . S
H1428 C1442 0.929 . S
H1429 C1443 0.931 . S
H1430 C1445 0.930 . S
C1431 H1419 0.930 . S
C1431 C1432 1.399 . S
C1431 C1436 1.399 . S
C1432 C1431 1.399 . S
C1432 C1433 1.376 . S
C1433 H1420 0.930 . S
C1433 C1432 1.376 . S
C1433 C1434 1.388 . S
C1434 H1421 0.930 . S
C1434 C1433 1.388 . S
C1434 C1435 1.390 . S
C1435 C1434 1.390 . S
C1435 C1436 1.394 . S
C1435 C1441 1.465 . S
C1436 C1431 1.399 . S
C1436 C1435 1.394 . S
C1436 C1437 1.516 . S
C1437 C1436 1.516 . S
C1437 C1438 1.502 . S
C1437 C1439 1.561 . S
C1437 C1440 1.526 . S
C1438 H1422 0.959 . S
C1438 H1423 0.959 . S
C1438 H1424 0.961 . S
C1438 C1437 1.502 . S
C1439 H1425 0.960 . S
C1439 H1426 0.961 . S
C1439 H1427 0.959 . S
C1439 C1437 1.561 . S
C1440 C1437 1.526 . S
C1440 C1441 1.396 . S
C1440 C1445 1.390 . S
C1441 C1435 1.465 . S
C1441 C1440 1.396 . S
C1441 C1442 1.399 . S
C1442 H1428 0.929 . S
C1442 C1441 1.399 . S
C1442 C1443 1.385 . S
C1443 H1429 0.931 . S
C1443 C1442 1.385 . S
C1443 C1444 1.389 . S
C1444 C1443 1.389 . S
C1444 C1445 1.387 . S
C1445 H1430 0.930 . S
C1445 C1440 1.390 . S
C1445 C1444 1.387 . S
H1446 C1458 0.930 . S
H1447 C1460 0.930 . S
H1448 C1461 0.930 . S
H1449 C1465 0.959 . S
H1450 C1465 0.959 . S
H1451 C1465 0.961 . S
H1452 C1466 0.960 . S
H1453 C1466 0.961 . S
H1454 C1466 0.959 . S
H1455 C1469 0.929 . S
H1456 C1470 0.931 . S
H1457 C1472 0.930 . S
C1458 H1446 0.930 . S
C1458 C1459 1.399 . S
C1458 C1463 1.399 . S
C1459 C1458 1.399 . S
C1459 C1460 1.376 . S
C1460 H1447 0.930 . S
C1460 C1459 1.376 . S
C1460 C1461 1.388 . S
C1461 H1448 0.930 . S
C1461 C1460 1.388 . S
C1461 C1462 1.390 . S
C1462 C1461 1.390 . S
C1462 C1463 1.394 . S
C1462 C1468 1.465 . S
C1463 C1458 1.399 . S
C1463 C1462 1.394 . S
C1463 C1464 1.516 . S
C1464 C1463 1.516 . S
C1464 C1465 1.502 . S
C1464 C1466 1.561 . S
C1464 C1467 1.526 . S
C1465 H1449 0.959 . S
C1465 H1450 0.959 . S
C1465 H1451 0.961 . S
C1465 C1464 1.502 . S
C1466 H1452 0.960 . S
C1466 H1453 0.961 . S
C1466 H1454 0.959 . S
C1466 C1464 1.561 . S
C1467 C1464 1.526 . S
C1467 C1468 1.396 . S
C1467 C1472 1.390 . S
C1468 C1462 1.465 . S
C1468 C1467 1.396 . S
C1468 C1469 1.399 . S
C1469 H1455 0.929 . S
C1469 C1468 1.399 . S
C1469 C1470 1.385 . S
C1470 H1456 0.931 . S
C1470 C1469 1.385 . S
C1470 C1471 1.389 . S
C1471 C1470 1.389 . S
C1471 C1472 1.387 . S
C1472 H1457 0.930 . S
C1472 C1467 1.390 . S
C1472 C1471 1.387 . S
H1473 C1485 0.930 . S
H1474 C1487 0.930 . S
H1475 C1488 0.930 . S
H1476 C1492 0.959 . S
H1477 C1492 0.959 . S
H1478 C1492 0.961 . S
H1479 C1493 0.960 . S
H1480 C1493 0.961 . S
H1481 C1493 0.959 . S
H1482 C1496 0.929 . S
H1483 C1497 0.931 . S
H1484 C1499 0.930 . S
C1485 H1473 0.930 . S
C1485 C1486 1.399 . S
C1485 C1490 1.399 . S
C1486 C1485 1.399 . S
C1486 C1487 1.376 . S
C1487 H1474 0.930 . S
C1487 C1486 1.376 . S
C1487 C1488 1.388 . S
C1488 H1475 0.930 . S
C1488 C1487 1.388 . S
C1488 C1489 1.390 . S
C1489 C1488 1.390 . S
C1489 C1490 1.394 . S
C1489 C1495 1.465 . S
C1490 C1485 1.399 . S
C1490 C1489 1.394 . S
C1490 C1491 1.516 . S
C1491 C1490 1.516 . S
C1491 C1492 1.502 . S
C1491 C1493 1.561 . S
C1491 C1494 1.526 . S
C1492 H1476 0.959 . S
C1492 H1477 0.959 . S
C1492 H1478 0.961 . S
C1492 C1491 1.502 . S
C1493 H1479 0.960 . S
C1493 H1480 0.961 . S
C1493 H1481 0.959 . S
C1493 C1491 1.561 . S
C1494 C1491 1.526 . S
C1494 C1495 1.396 . S
C1494 C1499 1.390 . S
C1495 C1489 1.465 . S
C1495 C1494 1.396 . S
C1495 C1496 1.399 . S
C1496 H1482 0.929 . S
C1496 C1495 1.399 . S
C1496 C1497 1.385 . S
C1497 H1483 0.931 . S
C1497 C1496 1.385 . S
C1497 C1498 1.389 . S
C1498 C1497 1.389 . S
C1498 C1499 1.387 . S
C1499 H1484 0.930 . S
C1499 C1494 1.390 . S
C1499 C1498 1.387 . S
H1500 C1512 0.930 1_554 S
H1501 C1514 0.930 . S
H1502 C1515 0.930 . S
H1503 C1519 0.959 . S
H1504 C1519 0.959 . S
H1505 C1519 0.961 . S
H1506 C1520 0.960 . S
H1507 C1520 0.961 . S
H1508 C1520 0.959 . S
H1509 C1523 0.929 . S
H1510 C1524 0.931 . S
H1511 C1526 0.930 . S
C1512 H1500 0.930 1_556 S
C1512 C1513 1.399 . S
C1512 C1517 1.399 . S
C1513 C1512 1.399 . S
C1513 C1514 1.376 . S
C1514 H1501 0.930 . S
C1514 C1513 1.376 . S
C1514 C1515 1.388 . S
C1515 H1502 0.930 . S
C1515 C1514 1.388 . S
C1515 C1516 1.390 . S
C1516 C1515 1.390 . S
C1516 C1517 1.394 . S
C1516 C1522 1.465 . S
C1517 C1512 1.399 . S
C1517 C1516 1.394 . S
C1517 C1518 1.516 1_556 S
C1518 C1517 1.516 1_554 S
C1518 C1519 1.502 . S
C1518 C1520 1.561 . S
C1518 C1521 1.526 . S
C1519 H1503 0.959 . S
C1519 H1504 0.959 . S
C1519 H1505 0.961 . S
C1519 C1518 1.502 . S
C1520 H1506 0.960 . S
C1520 H1507 0.961 . S
C1520 H1508 0.959 . S
C1520 C1518 1.561 . S
C1521 C1518 1.526 . S
C1521 C1522 1.396 1_554 S
C1521 C1526 1.390 . S
C1522 C1516 1.465 . S
C1522 C1521 1.396 1_556 S
C1522 C1523 1.399 . S
C1523 H1509 0.929 . S
C1523 C1522 1.399 . S
C1523 C1524 1.385 . S
C1524 H1510 0.931 . S
C1524 C1523 1.385 . S
C1524 C1525 1.389 . S
C1525 C1524 1.389 . S
C1525 C1526 1.387 1_556 S
C1526 H1511 0.930 . S
C1526 C1521 1.390 . S
C1526 C1525 1.387 1_554 S
H1527 C1539 0.930 . S
H1528 C1541 0.930 . S
H1529 C1542 0.930 . S
H1530 C1546 0.959 . S
H1531 C1546 0.959 . S
H1532 C1546 0.961 . S
H1533 C1547 0.960 . S
H1534 C1547 0.961 . S
H1535 C1547 0.959 . S
H1536 C1550 0.929 . S
H1537 C1551 0.931 . S
H1538 C1553 0.930 . S
C1539 H1527 0.930 . S
C1539 C1540 1.399 . S
C1539 C1544 1.399 . S
C1540 C1539 1.399 . S
C1540 C1541 1.376 . S
C1541 H1528 0.930 . S
C1541 C1540 1.376 . S
C1541 C1542 1.388 . S
C1542 H1529 0.930 . S
C1542 C1541 1.388 . S
C1542 C1543 1.390 . S
C1543 C1542 1.390 . S
C1543 C1544 1.394 . S
C1543 C1549 1.465 . S
C1544 C1539 1.399 . S
C1544 C1543 1.394 . S
C1544 C1545 1.516 . S
C1545 C1544 1.516 . S
C1545 C1546 1.502 . S
C1545 C1547 1.561 . S
C1545 C1548 1.526 . S
C1546 H1530 0.959 . S
C1546 H1531 0.959 . S
C1546 H1532 0.961 . S
C1546 C1545 1.502 . S
C1547 H1533 0.960 . S
C1547 H1534 0.961 . S
C1547 H1535 0.959 . S
C1547 C1545 1.561 . S
C1548 C1545 1.526 . S
C1548 C1549 1.396 . S
C1548 C1553 1.390 . S
C1549 C1543 1.465 . S
C1549 C1548 1.396 . S
C1549 C1550 1.399 . S
C1550 H1536 0.929 . S
C1550 C1549 1.399 . S
C1550 C1551 1.385 . S
C1551 H1537 0.931 . S
C1551 C1550 1.385 . S
C1551 C1552 1.389 . S
C1552 C1551 1.389 . S
C1552 C1553 1.387 . S
C1553 H1538 0.930 . S
C1553 C1548 1.390 . S
C1553 C1552 1.387 . S
H1554 C1566 0.930 . S
H1555 C1568 0.930 1_556 S
H1556 C1569 0.930 1_556 S
H1557 C1573 0.959 . S
H1558 C1573 0.959 . S
H1559 C1573 0.961 . S
H1560 C1574 0.960 . S
H1561 C1574 0.961 . S
H1562 C1574 0.959 . S
H1563 C1577 0.929 . S
H1564 C1578 0.931 . S
H1565 C1580 0.930 . S
C1566 H1554 0.930 . S
C1566 C1567 1.399 . S
C1566 C1571 1.399 . S
C1567 C1566 1.399 . S
C1567 C1568 1.376 . S
C1568 H1555 0.930 1_554 S
C1568 C1567 1.376 . S
C1568 C1569 1.388 . S
C1569 H1556 0.930 1_554 S
C1569 C1568 1.388 . S
C1569 C1570 1.390 . S
C1570 C1569 1.390 . S
C1570 C1571 1.394 . S
C1570 C1576 1.465 . S
C1571 C1566 1.399 . S
C1571 C1570 1.394 . S
C1571 C1572 1.516 . S
C1572 C1571 1.516 . S
C1572 C1573 1.502 . S
C1572 C1574 1.561 . S
C1572 C1575 1.526 . S
C1573 H1557 0.959 . S
C1573 H1558 0.959 . S
C1573 H1559 0.961 . S
C1573 C1572 1.502 . S
C1574 H1560 0.960 . S
C1574 H1561 0.961 . S
C1574 H1562 0.959 . S
C1574 C1572 1.561 . S
C1575 C1572 1.526 . S
C1575 C1576 1.396 . S
C1575 C1580 1.390 . S
C1576 C1570 1.465 . S
C1576 C1575 1.396 . S
C1576 C1577 1.399 1_554 S
C1577 H1563 0.929 . S
C1577 C1576 1.399 1_556 S
C1577 C1578 1.385 . S
C1578 H1564 0.931 . S
C1578 C1577 1.385 . S
C1578 C1579 1.389 1_556 S
C1579 C1578 1.389 1_554 S
C1579 C1580 1.387 . S
C1580 H1565 0.930 . S
C1580 C1575 1.390 . S
C1580 C1579 1.387 . S
H1581 C1593 0.930 1_546 S
H1582 C1595 0.930 . S
H1583 C1596 0.930 . S
H1584 C1600 0.959 . S
H1585 C1600 0.959 . S
H1586 C1600 0.961 . S
H1587 C1601 0.960 . S
H1588 C1601 0.961 1_565 S
H1589 C1601 0.959 . S
H1590 C1604 0.929 . S
H1591 C1605 0.931 . S
H1592 C1607 0.930 . S
C1593 H1581 0.930 1_564 S
C1593 C1594 1.399 1_565 S
C1593 C1598 1.399 . S
C1594 C1593 1.399 1_545 S
C1594 C1595 1.376 1_545 S
C1595 H1582 0.930 . S
C1595 C1594 1.376 1_565 S
C1595 C1596 1.388 . S
C1596 H1583 0.930 . S
C1596 C1595 1.388 . S
C1596 C1597 1.390 . S
C1597 C1596 1.390 . S
C1597 C1598 1.394 . S
C1597 C1603 1.465 . S
C1598 C1593 1.399 . S
C1598 C1597 1.394 . S
C1598 C1599 1.516 1_554 S
C1599 C1598 1.516 1_556 S
C1599 C1600 1.502 . S
C1599 C1601 1.561 1_565 S
C1599 C1602 1.526 1_556 S
C1600 H1584 0.959 . S
C1600 H1585 0.959 . S
C1600 H1586 0.961 . S
C1600 C1599 1.502 . S
C1601 H1587 0.960 . S
C1601 H1588 0.961 1_545 S
C1601 H1589 0.959 . S
C1601 C1599 1.561 1_545 S
C1602 C1599 1.526 1_554 S
C1602 C1603 1.396 . S
C1602 C1607 1.390 1_554 S
C1603 C1597 1.465 . S
C1603 C1602 1.396 . S
C1603 C1604 1.399 . S
C1604 H1590 0.929 . S
C1604 C1603 1.399 . S
C1604 C1605 1.385 . S
C1605 H1591 0.931 . S
C1605 C1604 1.385 . S
C1605 C1606 1.389 . S
C1606 C1605 1.389 . S
C1606 C1607 1.387 1_554 S
C1607 H1592 0.930 . S
C1607 C1602 1.390 1_556 S
C1607 C1606 1.387 1_556 S
C337 C155 1.455 . S
C325 C50 1.472 . S
C364 C163 1.328 . S
C352 C61 1.510 . S
C379 C67 1.437 . S
C391 C183 1.415 . S
C418 C197 1.509 . S
C406 C41 1.511 . S
C445 C212 1.508 . S
C433 C95 1.513 . S
C472 C226 1.502 . S
C460 C113 1.491 . S
C487 C106 1.540 . S
C499 C240 1.535 . S
C526 C246 1.468 . S
C514 C86 1.483 . S
C541 C104 1.509 . S
C553 C260 1.486 . S
C580 C281 1.499 . S
C568 C88 1.540 . S
C595 C94 1.481 . S
C607 C261 1.279 . S
C634 C282 1.507 . S
C622 C112 1.500 . S
C649 C70 1.469 . S
C661 C289 1.161 . S
C676 C40 1.504 . S
C688 C295 1.485 . S
C703 C49 1.504 . S
C715 C288 1.456 . S
C730 C59 1.480 . S
C742 C296 1.475 . S
C757 C34 1.487 . S
C769 C190 1.461 . S
C784 C133 1.482 . S
C796 C191 1.233 . S
C823 C148 1.525 . S
C811 C139 1.543 1_565 S
C850 C169 1.415 . S
C838 C77 1.466 . S
C865 C43 1.471 1_545 S
C877 C204 1.422 . S
C904 C254 1.520 . S
C892 C103 1.517 . S
C931 C205 1.153 . S
C919 C85 1.432 1_545 S
C958 C233 1.193 . S
C946 C115 1.525 . S
C985 C239 1.436 . S
C973 C131 1.471 . S
C1000 C142 1.521 . S
C1012 C247 1.213 . S
C1027 C76 1.446 . S
C1039 C211 1.402 . S
C1066 C225 1.506 . S
C1054 C122 1.509 . S
C1081 C32 1.511 . S
C1093 C184 1.511 . S
C1120 C198 1.503 . S
C1108 C5 1.492 . S
C1147 C156 1.542 . S
C1135 C16 1.538 . S
C1174 C162 1.437 . S
C1162 C23 1.483 1_455 S
C1189 C14 1.506 . S
C1201 C274 1.460 . S
C1216 C25 1.538 . S
C1228 C267 1.499 . S
C1243 C31 1.472 . S
C1255 C275 1.230 . S
C1270 C4 1.514 1_556 S
C1282 C268 1.512 . S
C1309 C303 1.267 . S
C1297 C79 1.467 . S
C1336 C309 1.466 . S
C1324 C121 1.501 . S
C1363 C302 1.439 . S
C1351 C130 1.506 . S
C1378 C140 1.481 1_554 S
C1390 C310 1.475 . S
C1405 C97 1.486 . S
C1417 C218 1.447 . S
C1444 C219 1.168 . S
C1432 C52 1.486 . S
C1471 C232 1.469 . S
C1459 C58 1.543 . S
C1498 C253 1.466 . S
C1486 C68 1.464 . S
C1513 C124 1.471 . S
C1525 C176 1.440 1_556 S
C1552 C170 1.520 . S
C1540 C13 1.518 . S
C1567 C22 1.466 . S
C1579 C177 1.243 . S
C1606 C149 1.238 . S
C1594 C7 1.508 . S
