# Generated by pormake.
# Topology pyr, (3,6)-cn, num edge types: 1
# Building blocks:
#     Node 0, Type 0, BuildingBlock: BETDAH_clean_linker_0, # of connection points: 3
#     Node 1, Type 0, BuildingBlock: BETDAH_clean_linker_0, # of connection points: 3
#     Node 2, Type 0, BuildingBlock: BETDAH_clean_linker_0, # of connection points: 3
#     Node 3, Type 0, BuildingBlock: BETDAH_clean_linker_0, # of connection points: 3
#     Node 4, Type 0, BuildingBlock: BETDAH_clean_linker_0, # of connection points: 3
#     Node 5, Type 0, BuildingBlock: BETDAH_clean_linker_0, # of connection points: 3
#     Node 6, Type 0, BuildingBlock: BETDAH_clean_linker_0, # of connection points: 3
#     Node 7, Type 0, BuildingBlock: BETDAH_clean_linker_0, # of connection points: 3
#     Node 8, Type 1, BuildingBlock: BETDIP_clean_sbu_0, # of connection points: 6
#     Node 9, Type 1, BuildingBlock: BETDIP_clean_sbu_0, # of connection points: 6
#     Node 10, Type 1, BuildingBlock: BETDIP_clean_sbu_0, # of connection points: 6
#     Node 11, Type 1, BuildingBlock: BETDIP_clean_sbu_0, # of connection points: 6
#     Edge 12, Type (0, 1), BuildingBlock: EZIPEK_clean_linker_0, # of connection points: 2
#     Edge 13, Type (0, 1), BuildingBlock: EZIPEK_clean_linker_0, # of connection points: 2
#     Edge 14, Type (0, 1), BuildingBlock: EZIPEK_clean_linker_0, # of connection points: 2
#     Edge 15, Type (0, 1), BuildingBlock: EZIPEK_clean_linker_0, # of connection points: 2
#     Edge 16, Type (0, 1), BuildingBlock: EZIPEK_clean_linker_0, # of connection points: 2
#     Edge 17, Type (0, 1), BuildingBlock: EZIPEK_clean_linker_0, # of connection points: 2
#     Edge 18, Type (0, 1), BuildingBlock: EZIPEK_clean_linker_0, # of connection points: 2
#     Edge 19, Type (0, 1), BuildingBlock: EZIPEK_clean_linker_0, # of connection points: 2
#     Edge 20, Type (0, 1), BuildingBlock: EZIPEK_clean_linker_0, # of connection points: 2
#     Edge 21, Type (0, 1), BuildingBlock: EZIPEK_clean_linker_0, # of connection points: 2
#     Edge 22, Type (0, 1), BuildingBlock: EZIPEK_clean_linker_0, # of connection points: 2
#     Edge 23, Type (0, 1), BuildingBlock: EZIPEK_clean_linker_0, # of connection points: 2
#     Edge 24, Type (0, 1), BuildingBlock: EZIPEK_clean_linker_0, # of connection points: 2
#     Edge 25, Type (0, 1), BuildingBlock: EZIPEK_clean_linker_0, # of connection points: 2
#     Edge 26, Type (0, 1), BuildingBlock: EZIPEK_clean_linker_0, # of connection points: 2
#     Edge 27, Type (0, 1), BuildingBlock: EZIPEK_clean_linker_0, # of connection points: 2
#     Edge 28, Type (0, 1), BuildingBlock: EZIPEK_clean_linker_0, # of connection points: 2
#     Edge 29, Type (0, 1), BuildingBlock: EZIPEK_clean_linker_0, # of connection points: 2
#     Edge 30, Type (0, 1), BuildingBlock: EZIPEK_clean_linker_0, # of connection points: 2
#     Edge 31, Type (0, 1), BuildingBlock: EZIPEK_clean_linker_0, # of connection points: 2
#     Edge 32, Type (0, 1), BuildingBlock: EZIPEK_clean_linker_0, # of connection points: 2
#     Edge 33, Type (0, 1), BuildingBlock: EZIPEK_clean_linker_0, # of connection points: 2
#     Edge 34, Type (0, 1), BuildingBlock: EZIPEK_clean_linker_0, # of connection points: 2
#     Edge 35, Type (0, 1), BuildingBlock: EZIPEK_clean_linker_0, # of connection points: 2
# Relax obj value: 0.213
# Max RMSD: 0.234
# Mean RMSD: 0.136
data_MOF--net-pyr--node1-BETDIP_clean_sbu_0--node2-BETDAH_clean_linker_0--edge1-EZIPEK_clean_linker_0
_symmetry_space_group_name_H-M    P1
_symmetry_Int_Tables_number       1
_symmetry_cell_setting            triclinic
loop_
_symmetry_equiv_pos_as_xyz
'x, y, z'
_cell_length_a     25.202207
_cell_length_b     29.668322
_cell_length_c     29.814573
_cell_angle_alpha  88.438931
_cell_angle_beta   93.892857
_cell_angle_gamma 112.19533
loop_
_atom_site_label
_atom_site_type_symbol
_atom_site_fract_x
_atom_site_fract_y
_atom_site_fract_z
_atom_type_partial_charge
H0 H 0.44751 0.23233 0.2962 0.0
H1 H 0.49359 0.31837 0.17626 0.0
H2 H 0.39981 0.35606 0.27471 0.0
C3 C 0.44958 0.2642 0.27654 0.0
C4 C 0.42264 0.29426 0.29088 0.0
C5 C 0.47482 0.27251 0.23513 0.0
C6 C 0.47555 0.31265 0.2089 0.0
C7 C 0.44846 0.34287 0.22281 0.0
C8 C 0.42202 0.33364 0.26404 0.0
N9 N 0.44483 0.38002 0.19332 0.0
C10 C 0.39727 0.39304 0.19049 0.0
H11 H 0.24049 0.76832 0.83691 0.0
H12 H 0.11221 0.82519 0.78809 0.0
H13 H 0.2107 0.7875 0.69629 0.0
C14 C 0.21447 0.77697 0.81032 0.0
C15 C 0.22914 0.77512 0.76608 0.0
C16 C 0.17016 0.79301 0.82008 0.0
C17 C 0.14341 0.80948 0.78338 0.0
C18 C 0.15756 0.80699 0.73897 0.0
C19 C 0.19916 0.78855 0.73052 0.0
N20 N 0.13218 0.8247 0.70225 0.0
C21 C 0.11703 0.86485 0.70572 0.0
H22 H 0.72926 0.37081 0.99319 0.0
H23 H 0.72841 0.47412 0.88808 0.0
H24 H 0.59819 0.32857 0.88547 0.0
C25 C 0.70982 0.37962 0.96235 0.0
C26 C 0.66041 0.34362 0.94216 0.0
C27 C 0.73483 0.42674 0.94362 0.0
C28 C 0.70926 0.43833 0.9029 0.0
C29 C 0.65948 0.40294 0.88129 0.0
C30 C 0.63606 0.35593 0.90156 0.0
N31 N 0.63156 0.41089 0.8392 0.0
C32 C 0.63871 0.45241 0.81152 0.0
H33 H 0.8612 0.7994 0.49168 0.0
H34 H 0.98412 0.84233 0.3903 0.0
H35 H 0.85412 0.6965 0.38884 0.0
C36 C 0.87805 0.7908 0.46195 0.0
C37 C 0.85145 0.74371 0.44298 0.0
C38 C 0.92604 0.82695 0.44382 0.0
C39 C 0.94727 0.81487 0.40468 0.0
C40 C 0.92232 0.76798 0.3838 0.0
C41 C 0.87406 0.73237 0.40367 0.0
N42 N 0.94809 0.76056 0.34351 0.0
C43 C 0.93964 0.72099 0.31379 0.0
H44 H 0.75524 0.77894 0.85707 0.0
H45 H 0.65479 0.79815 0.95907 0.0
H46 H 0.59941 0.80467 0.82199 0.0
C47 C 0.71622 0.78307 0.8651 0.0
C48 C 0.67613 0.7868 0.83105 0.0
C49 C 0.70842 0.7864 0.91083 0.0
C50 C 0.66121 0.79577 0.92378 0.0
C51 C 0.62202 0.80154 0.89079 0.0
C52 C 0.62953 0.79718 0.84532 0.0
N53 N 0.57316 0.81008 0.90241 0.0
C54 C 0.57715 0.85053 0.92677 0.0
H55 H 0.93471 0.2536 0.35869 0.0
H56 H 0.98529 0.32912 0.48518 0.0
H57 H 0.90251 0.38378 0.37845 0.0
C58 C 0.93887 0.28425 0.37961 0.0
C59 C 0.91718 0.31905 0.36329 0.0
C60 C 0.96246 0.2871 0.42384 0.0
C61 C 0.96739 0.32672 0.45081 0.0
C62 C 0.94603 0.36167 0.43464 0.0
C63 C 0.9206 0.35766 0.39082 0.0
N64 N 0.94695 0.39867 0.46392 0.0
C65 C 0.8975 0.40751 0.46922 0.0
H66 H 0.35615 0.79097 0.17571 0.0
H67 H 0.35663 0.68992 0.28304 0.0
H68 H 0.4956 0.83048 0.2766 0.0
C69 C 0.37633 0.78232 0.20624 0.0
C70 C 0.4288 0.81669 0.22351 0.0
C71 C 0.34986 0.7366 0.22699 0.0
C72 C 0.37657 0.72498 0.26707 0.0
C73 C 0.42955 0.759 0.28573 0.0
C74 C 0.45488 0.80441 0.26313 0.0
N75 N 0.46075 0.75038 0.32565 0.0
C76 C 0.44905 0.71266 0.35843 0.0
H77 H 0.23295 0.38006 0.68856 0.0
H78 H 0.24116 0.48073 0.7939 0.0
H79 H 0.10592 0.33742 0.78655 0.0
C80 C 0.21552 0.38857 0.71802 0.0
C81 C 0.16642 0.35279 0.73491 0.0
C82 C 0.2433 0.4348 0.7384 0.0
C83 C 0.21993 0.44582 0.7775 0.0
C84 C 0.1694 0.41083 0.79531 0.0
C85 C 0.14394 0.36462 0.77338 0.0
N86 N 0.14274 0.41754 0.83533 0.0
C87 C 0.1484 0.45704 0.86418 0.0
Tb88 Tb 0.98567 0.0738 0.60908 0.0
Tb89 Tb 0.10687 0.10228 0.57941 0.0
C90 C 0.88545 0.02926 0.63238 0.0
C91 C 0.85184 0.98193 0.65247 0.0
C92 C 0.83847 0.93761 0.62977 0.0
C93 C 0.805 0.89361 0.64967 0.0
C94 C 0.78527 0.89356 0.69256 0.0
C95 C 0.79897 0.93764 0.71522 0.0
C96 C 0.83174 0.98143 0.69529 0.0
C97 C 0.05705 0.16284 0.6373 0.0
C98 C 0.07123 0.03108 0.66074 0.0
C99 C 0.20954 0.15397 0.56664 0.0
C100 C 0.24084 0.17731 0.52694 0.0
C101 C 0.2167 0.20028 0.49429 0.0
C102 C 0.24675 0.22246 0.45692 0.0
C103 C 0.30099 0.22134 0.45117 0.0
C104 C 0.32527 0.19847 0.48367 0.0
C105 C 0.29543 0.17675 0.52144 0.0
C106 C 0.03846 1.01965 0.5353 0.0
C107 C 0.01967 0.14101 0.52468 0.0
O108 O 0.90026 0.02951 0.59095 0.0
O109 O 0.9268 0.05908 0.65875 0.0
O110 O 0.06928 0.12493 0.63378 0.0
O111 O 1.00225 0.14862 0.62827 0.0
O112 O 1.0177 1.02548 0.64873 0.0
O113 O 0.11464 0.06341 0.64053 0.0
O114 O 0.17214 0.17134 0.57913 0.0
O115 O 0.19004 0.10629 0.56805 0.0
O116 O 0.02546 0.04483 0.56333 0.0
O117 O 0.09309 0.04216 0.53126 0.0
O118 O 0.07216 0.14132 0.53054 0.0
O119 O 0.97705 0.11295 0.5485 0.0
H120 H 0.85338 0.93689 0.59667 0.0
H121 H 0.79432 0.85976 0.6317 0.0
H122 H 0.78366 0.93812 0.74824 0.0
H123 H 0.84115 1.01507 0.71331 0.0
H124 H 0.1745 0.2009 0.49742 0.0
H125 H 0.2273 0.23974 0.43201 0.0
H126 H 0.36702 0.19711 0.47955 0.0
H127 H 0.31476 0.15922 0.54619 0.0
Tb128 Tb 0.6097 0.09 0.09399 0.0
Tb129 Tb 0.47898 0.06208 0.05798 0.0
C130 C 0.71576 0.13781 0.10119 0.0
C131 C 0.75198 0.18293 0.1243 0.0
C132 C 0.72895 0.21704 0.1361 0.0
C133 C 0.75778 0.25198 0.16902 0.0
C134 C 0.80907 0.25221 0.19077 0.0
C135 C 0.83462 0.2213 0.17573 0.0
C136 C 0.80618 0.18682 0.14259 0.0
C137 C 0.54201 1.00525 0.13054 0.0
C138 C 0.5276 0.12736 0.14598 0.0
C139 C 0.37256 1.01841 0.04401 0.0
C140 C 0.33409 0.9722 1.02334 0.0
C141 C 0.27762 0.95004 1.03655 0.0
C142 C 0.23809 0.91028 1.01251 0.0
C143 C 0.2546 0.89307 0.97454 0.0
C144 C 0.31195 0.91333 0.96311 0.0
C145 C 0.35156 0.95247 0.98748 0.0
C146 C 0.54899 0.14892 1.02488 0.0
C147 C 0.55652 1.01232 1.01586 0.0
O148 O 0.68282 0.14139 0.06635 0.0
O149 O 0.6887 0.10251 0.12849 0.0
O150 O 0.52838 0.03322 0.10275 0.0
O151 O 0.59704 0.02687 0.13926 0.0
O152 O 0.58085 0.13169 0.13909 0.0
O153 O 0.48265 0.10137 0.11921 0.0
O154 O 0.40017 1.01579 0.08223 0.0
O155 O 0.40522 0.05033 1.01633 0.0
O156 O 0.56021 0.11823 0.05017 0.0
O157 O 0.49379 0.12973 1.01721 0.0
O158 O 0.50539 1.01513 1.01743 0.0
O159 O 0.60345 0.04096 1.03908 0.0
H160 H 0.68684 0.21428 0.12253 0.0
H161 H 0.73765 0.27571 0.18037 0.0
H162 H 0.8742 0.22114 0.19224 0.0
H163 H 0.82428 0.16057 0.13402 0.0
H164 H 0.26353 0.96466 0.06429 0.0
H165 H 0.19405 0.89461 1.022 0.0
H166 H 0.32549 0.90006 0.9342 0.0
H167 H 0.3951 0.9687 0.97698 0.0
Tb168 Tb 0.55792 0.63764 0.6123 0.0
Tb169 Tb 0.53478 0.53749 0.56424 0.0
C170 C 0.54224 0.71436 0.62602 0.0
C171 C 0.50633 0.72638 0.65646 0.0
C172 C 0.48804 0.76454 0.64514 0.0
C173 C 0.44604 0.77135 0.66918 0.0
C174 C 0.42172 0.73993 0.7047 0.0
C175 C 0.44183 0.70301 0.71739 0.0
C176 C 0.48364 0.69599 0.6931 0.0
C177 C 0.59174 0.57846 0.66783 0.0
C178 C 0.44467 0.54222 0.63338 0.0
C179 C 0.54553 0.45886 0.54798 0.0
C180 C 0.59439 0.44886 0.53305 0.0
C181 C 0.65071 0.4817 0.54341 0.0
C182 C 0.69738 0.47224 0.53018 0.0
C183 C 0.68851 0.43019 0.50566 0.0
C184 C 0.63229 0.39781 0.494 0.0
C185 C 0.58534 0.40703 0.50787 0.0
C186 C 0.49678 0.59649 0.51047 0.0
C187 C 0.65044 0.63153 0.54631 0.0
O188 O 0.51255 0.68226 0.59545 0.0
O189 O 0.58646 0.70572 0.64421 0.0
O190 O 0.57144 0.57223 0.62696 0.0
O191 O 0.59567 0.62217 0.67763 0.0
O192 O 0.47528 0.58969 0.63933 0.0
O193 O 0.45892 0.51516 0.605 0.0
O194 O 0.55263 0.47747 0.5883 0.0
O195 O 0.52266 0.481 0.51877 0.0
O196 O 0.52204 0.60329 0.54972 0.0
O197 O 0.48967 0.55177 0.50169 0.0
O198 O 0.62106 0.58369 0.54219 0.0
O199 O 0.63422 0.65955 0.57197 0.0
H200 H 0.50462 0.78787 0.61661 0.0
H201 H 0.43101 0.80007 0.6591 0.0
H202 H 0.42353 0.67857 0.74481 0.0
H203 H 0.49685 0.66596 0.70194 0.0
H204 H 0.65879 0.51463 0.56194 0.0
H205 H 0.74051 0.49769 0.53913 0.0
H206 H 0.62493 0.36526 0.47486 0.0
H207 H 0.54216 0.38157 0.49913 0.0
Tb208 Tb 0.0486 0.63045 0.06191 0.0
Tb209 Tb 0.02924 0.54331 0.11375 0.0
C210 C 0.0332 0.69717 1.0152 0.0
C211 C 0.98991 0.71939 1.01012 0.0
C212 C 0.97476 0.73177 0.96677 0.0
C213 C 0.92832 0.7463 0.95938 0.0
C214 C 0.89647 0.74894 0.99529 0.0
C215 C 0.91318 0.7389 1.03915 0.0
C216 C 0.95946 0.72378 0.04649 0.0
C217 C 0.14271 0.63503 0.11172 0.0
C218 C 0.99246 0.62138 0.15938 0.0
C219 C 0.04682 0.4766 0.15867 0.0
C220 C 0.09631 0.46174 0.16169 0.0
C221 C 0.14995 0.49451 0.14898 0.0
C222 C 0.19797 0.48182 0.15364 0.0
C223 C 0.19294 0.43613 0.17102 0.0
C224 C 0.1392 0.40294 0.1831 0.0
C225 C 0.09101 0.41572 0.1784 0.0
C226 C 0.93584 0.53836 0.06189 0.0
C227 C 0.08759 0.55271 1.01753 0.0
O228 O 1.0146 0.6517 1.00288 0.0
O229 O 0.06574 0.70515 0.05249 0.0
O230 O 0.09106 0.61629 0.12248 0.0
O231 O 0.14223 0.65339 0.07175 0.0
O232 O 1.00249 0.64376 0.11951 0.0
O233 O 1.0003 0.5798 0.16517 0.0
O234 O 0.05752 0.52 0.17428 0.0
O235 O 1.01711 0.46919 0.12011 0.0
O236 O 0.98796 0.55726 0.05258 0.0
O237 O 0.93548 0.51972 0.10186 0.0
O238 O 0.07723 0.53061 0.05742 0.0
O239 O 0.07856 0.59377 1.01109 0.0
H240 H 0.99762 0.72846 0.9383 0.0
H241 H 0.91616 0.75418 0.9254 0.0
H242 H 0.88909 0.74094 0.06724 0.0
H243 H 0.9703 0.71424 0.08021 0.0
H244 H 0.15475 0.5302 0.13605 0.0
H245 H 0.23912 0.50772 0.14405 0.0
H246 H 0.13479 0.36747 0.19645 0.0
H247 H 0.04991 0.38996 0.18816 0.0
C248 C 0.41331 0.3018 0.37357 0.0
C249 C 0.38904 0.2801 0.33142 0.0
C250 C 0.30879 0.219 0.36796 0.0
C251 C 0.33111 0.24224 0.4099 0.0
N252 N 0.39821 0.31096 0.45177 0.0
N253 N 0.30769 0.22593 0.28684 0.0
C254 C 0.38157 0.28527 0.41249 0.0
C255 C 0.33478 0.24117 0.32813 0.0
N256 N 0.46728 0.33713 0.37656 0.0
N257 N 0.26441 0.17461 0.36633 0.0
H258 H 0.32519 0.24191 0.25692 0.0
H259 H 0.26558 0.20095 0.2824 0.0
H260 H 0.24472 0.15655 0.39484 0.0
H261 H 0.25059 0.15358 0.33729 0.0
H262 H 0.49004 0.35042 0.40697 0.0
H263 H 0.49092 0.35106 0.3485 0.0
H264 H 0.43123 0.34511 0.45458 0.0
H265 H 0.37581 0.3 0.48085 0.0
C266 C 0.14137 0.83668 0.88061 0.0
C267 C 0.15978 0.79953 0.86862 0.0
C268 C 0.21329 0.80891 0.94152 0.0
C269 C 0.2119 0.8562 0.94438 0.0
N270 N 0.16952 0.91391 0.91768 0.0
N271 N 0.17752 0.73159 0.90127 0.0
C272 C 0.17351 0.86949 0.91487 0.0
C273 C 0.1842 0.77925 0.90385 0.0
N274 N 0.08948 0.8363 0.86421 0.0
N275 N 0.24457 0.79381 0.97332 0.0
H276 H 0.15393 0.71 0.87415 0.0
H277 H 0.1908 0.71295 0.92689 0.0
H278 H 0.26407 0.81426 1.00207 0.0
H279 H 0.25218 0.76188 0.97079 0.0
H280 H 0.07225 0.86084 0.87479 0.0
H281 H 0.06084 0.80687 0.84546 0.0
H282 H 0.14569 0.92593 0.8937 0.0
H283 H 0.19264 0.93972 0.94195 0.0
C284 C 0.59824 0.51531 0.78327 0.0
C285 C 0.63019 0.48607 0.7753 0.0
C286 C 0.63797 0.51706 0.69613 0.0
C287 C 0.60149 0.54279 0.70301 0.0
N288 N 0.53811 0.5578 0.75259 0.0
N289 N 0.67407 0.45438 0.72144 0.0
C290 C 0.57956 0.53965 0.74659 0.0
C291 C 0.64802 0.48557 0.73086 0.0
N292 N 0.58617 0.52053 0.82638 0.0
N293 N 0.6659 0.5248 0.65732 0.0
H294 H 0.68409 0.43258 0.74595 0.0
H295 H 0.6822 0.44779 0.68897 0.0
H296 H 0.66071 0.5482 0.63222 0.0
H297 H 0.69767 0.51154 0.65168 0.0
H298 H 0.56897 0.54552 0.83565 0.0
H299 H 0.59829 0.50297 0.85365 0.0
H300 H 0.51582 0.55233 0.78169 0.0
H301 H 0.52086 0.57335 0.72666 0.0
C302 C 0.92233 0.69201 0.23136 0.0
C303 C 0.94739 0.69119 0.27571 0.0
C304 C 1.0041 0.64771 0.24362 0.0
C305 C 0.97582 0.64496 0.19968 0.0
N306 N 0.89903 0.65787 0.15565 0.0
N307 N 1.00488 0.65957 0.32448 0.0
C308 C 0.93259 0.66551 0.19477 0.0
C309 C 0.98577 0.66616 0.28177 0.0
N310 N 0.8893 0.71915 0.2237 0.0
N311 N 0.05156 0.63587 0.24883 0.0
H312 H 0.99332 0.67297 0.35269 0.0
H313 H 0.0275 0.63707 0.33219 0.0
H314 H 0.06856 0.62453 0.22248 0.0
H315 H 0.07804 0.64241 0.27825 0.0
H316 H 0.8755 0.7267 0.19168 0.0
H317 H 0.87894 0.73698 0.24941 0.0
H318 H 0.86315 0.66722 0.15104 0.0
H319 H 0.90365 0.63778 0.12915 0.0
C320 C 0.4458 0.19012 0.20155 0.0
C321 C 0.49052 0.23392 0.21614 0.0
C322 C 0.562 0.1995 0.20052 0.0
C323 C 0.51707 0.15816 0.18096 0.0
N324 N 0.41878 0.10444 0.18854 0.0
N325 N 0.59135 0.28201 0.22899 0.0
C326 C 0.45956 0.15049 0.18917 0.0
C327 C 0.5488 0.23906 0.21572 0.0
N328 N 0.39013 0.18699 0.19738 0.0
N329 N 0.61557 0.19874 0.20906 0.0
H330 H 0.58296 0.31078 0.24196 0.0
H331 H 0.63464 0.29043 0.2244 0.0
H332 H 0.62399 0.16722 0.20606 0.0
H333 H 0.64925 0.22637 0.22585 0.0
H334 H 0.35687 0.15754 0.18225 0.0
H335 H 0.37798 0.21576 0.20468 0.0
H336 H 0.37707 0.09609 0.19801 0.0
H337 H 0.42934 0.07408 0.18516 0.0
C338 C 0.1516 0.95485 0.70757 0.0
C339 C 0.10525 0.90901 0.70704 0.0
C340 C 0.03682 0.94971 0.70111 0.0
C341 C 0.08242 0.99379 0.69088 0.0
N342 N 0.18135 0.04288 0.70969 0.0
N343 N 1.00365 0.86173 0.70662 0.0
C344 C 0.13962 0.99789 0.70195 0.0
C345 C 0.04775 0.90612 0.70556 0.0
N346 N 0.20689 0.957 0.71143 0.0
N347 N 0.98452 0.95025 0.70967 0.0
H348 H 1.01035 0.82929 0.71175 0.0
H349 H 0.9607 0.85688 0.7 0.0
H350 H 0.97811 0.98271 0.71296 0.0
H351 H 0.95047 0.91981 0.71999 0.0
H352 H 0.24251 0.98865 0.70662 0.0
H353 H 0.21704 0.92629 0.71758 0.0
H354 H 0.22349 0.04872 0.72082 0.0
H355 H 0.17168 0.07409 0.71033 0.0
C356 C 0.84096 0.45311 0.96699 0.0
C357 C 0.78944 0.46214 0.96737 0.0
C358 C 0.83889 0.52834 1.02244 0.0
C359 C 0.88717 0.51436 1.02689 0.0
N360 N 0.93037 0.45823 1.00659 0.0
N361 N 0.73802 0.50668 0.99821 0.0
C362 C 0.88739 0.47562 0.99968 0.0
C363 C 0.78826 0.49967 0.9956 0.0
N364 N 0.84571 0.42314 0.93483 0.0
N365 N 0.84184 0.56969 0.04333 0.0
H366 H 0.7009 0.48738 0.97849 0.0
H367 H 0.73203 0.52932 1.02177 0.0
H368 H 0.87833 0.59149 0.06241 0.0
H369 H 0.8106 0.58465 1.03855 0.0
H370 H 0.88397 0.41893 0.92943 0.0
H371 H 0.81276 0.40629 0.91052 0.0
H372 H 0.92967 0.42675 0.9915 0.0
H373 H 0.96454 0.47261 1.0304 0.0
C374 C 0.74286 0.69568 0.44719 0.0
C375 C 0.79991 0.70763 0.46623 0.0
C376 C 0.7592 0.66884 0.53787 0.0
C377 C 0.7023 0.65555 0.51831 0.0
N378 N 0.64064 0.64809 0.45124 0.0
N379 N 0.86176 0.69682 0.52707 0.0
C380 C 0.69451 0.66628 0.47194 0.0
C381 C 0.80768 0.69146 0.51085 0.0
N382 N 0.73451 0.71463 0.40626 0.0
N383 N 0.76703 0.66058 0.58269 0.0
H384 H 0.8976 0.71234 0.50809 0.0
H385 H 0.87059 0.68208 0.55739 0.0
H386 H 0.73295 0.64243 0.60277 0.0
H387 H 0.80672 0.67419 0.60061 0.0
H388 H 0.6945 0.71274 0.39283 0.0
H389 H 0.76822 0.7355 0.38693 0.0
H390 H 0.63236 0.64985 0.41668 0.0
H391 H 0.60437 0.62756 0.46813 0.0
C392 C 0.33623 0.43398 0.21783 0.0
C393 C 0.34533 0.40334 0.18612 0.0
C394 C 0.25546 0.39526 0.14375 0.0
C395 C 0.24454 0.4235 0.17691 0.0
N396 N 0.26919 0.46405 0.24873 0.0
N397 N 0.31085 0.34844 0.1231 0.0
C398 C 0.28346 0.44128 0.21494 0.0
C399 C 0.30409 0.38206 0.15029 0.0
N400 N 0.37853 0.45685 0.25008 0.0
N401 N 0.22037 0.38249 0.10532 0.0
H402 H 0.34658 0.33864 0.12629 0.0
H403 H 0.27927 0.32757 0.0996 0.0
H404 H 0.18379 0.39083 0.09967 0.0
H405 H 0.2296 0.36679 0.07759 0.0
H406 H 0.37732 0.48377 0.27119 0.0
H407 H 0.41708 0.45128 0.25381 0.0
H408 H 0.2927 0.4734 0.27946 0.0
H409 H 0.23114 0.47043 0.2475 0.0
C410 C 0.63901 0.25133 0.94549 0.0
C411 C 0.6345 0.29333 0.96443 0.0
C412 C 0.58822 0.2418 1.02908 0.0
C413 C 0.58707 0.199 1.00781 0.0
N414 N 0.60739 0.16281 0.94332 0.0
N415 N 0.59856 0.32672 1.02264 0.0
C416 C 0.61171 0.2039 0.96542 0.0
C417 C 0.6078 0.28799 1.00603 0.0
N418 N 0.67102 0.25693 0.90906 0.0
N419 N 0.57104 0.23835 0.07191 0.0
H420 H 0.61135 0.3606 1.00678 0.0
H421 H 0.574 0.3244 0.04993 0.0
H422 H 0.55607 0.20538 0.08913 0.0
H423 H 0.57636 0.26827 0.09175 0.0
H424 H 0.68148 0.22923 0.89631 0.0
H425 H 0.69118 0.29053 0.89362 0.0
H426 H 0.61758 0.16261 0.91009 0.0
H427 H 0.59044 0.12819 0.95764 0.0
C428 C 0.94783 0.91944 0.44831 0.0
C429 C 0.95409 0.87686 0.46729 0.0
C430 C 1.00468 0.92635 0.53484 0.0
C431 C 1.00281 0.96976 0.51425 0.0
N432 N 0.97863 1.00797 0.44815 0.0
N433 N 0.99551 0.84204 0.52702 0.0
C434 C 0.97586 0.9662 0.4701 0.0
C435 C 0.98415 0.88105 0.51031 0.0
N436 N 0.9134 0.91501 0.40995 0.0
N437 N 0.02594 0.92832 0.5784 0.0
H438 H 0.98207 0.80887 0.51017 0.0
H439 H 0.02231 0.84352 0.55554 0.0
H440 H 0.04282 0.96068 0.59649 0.0
H441 H 0.02285 0.89777 0.59771 0.0
H442 H 0.90148 0.94293 0.39685 0.0
H443 H 0.89293 0.88205 0.39302 0.0
H444 H 0.96624 1.00921 0.41426 0.0
H445 H 0.99702 0.04217 0.46326 0.0
C446 C 0.26951 0.71789 0.73527 0.0
C447 C 0.27907 0.7626 0.75666 0.0
C448 C 0.38305 0.78551 0.75425 0.0
C449 C 0.37295 0.74461 0.72664 0.0
N450 N 0.30639 0.67366 0.68699 0.0
N451 N 0.34456 0.84166 0.78296 0.0
C452 C 0.31613 0.71089 0.71647 0.0
C453 C 0.33582 0.79701 0.76568 0.0
N454 N 0.2159 0.682 0.73339 0.0
N455 N 0.43782 0.813 0.76983 0.0
H456 H 0.31124 0.85175 0.79171 0.0
H457 H 0.38454 0.87013 0.7854 0.0
H458 H 0.47328 0.80529 0.76209 0.0
H459 H 0.4475 0.84041 0.79367 0.0
H460 H 0.20732 0.64682 0.72227 0.0
H461 H 0.18087 0.68611 0.74693 0.0
H462 H 0.26558 0.65144 0.67429 0.0
H463 H 0.3392 0.66708 0.6724 0.0
C464 C 0.73884 0.78333 0.76857 0.0
C465 C 0.68796 0.78741 0.78162 0.0
C466 C 0.68876 0.83887 0.71649 0.0
C467 C 0.748 0.84815 0.71405 0.0
N468 N 0.82783 0.82325 0.73235 0.0
N469 N 0.59901 0.78411 0.74476 0.0
C470 C 0.7723 0.81759 0.7375 0.0
C471 C 0.65739 0.80451 0.7484 0.0
N472 N 0.75213 0.74474 0.78316 0.0
N473 N 0.66341 0.86401 0.68965 0.0
H474 H 0.57661 0.75383 0.76414 0.0
H475 H 0.57404 0.7941 0.72034 0.0
H476 H 0.68493 0.88761 0.66442 0.0
H477 H 0.62204 0.86261 0.69355 0.0
H478 H 0.78637 0.73755 0.77185 0.0
H479 H 0.72463 0.71758 0.80316 0.0
H480 H 0.84913 0.80535 0.75254 0.0
H481 H 0.85313 0.84746 0.70917 0.0
C482 C 0.91266 0.33303 0.27987 0.0
C483 C 0.88481 0.31107 0.31909 0.0
C484 C 0.80287 0.25599 0.27383 0.0
C485 C 0.8308 0.27737 0.23431 0.0
N486 N 0.90488 0.34263 0.19871 0.0
N487 N 0.79786 0.26276 0.35406 0.0
C488 C 0.88335 0.31827 0.23706 0.0
C489 C 0.82783 0.2764 0.31618 0.0
N490 N 0.96778 0.36638 0.28363 0.0
N491 N 0.75483 0.21408 0.2713 0.0
H492 H 0.8153 0.27679 0.3858 0.0
H493 H 0.7542 0.24132 0.35344 0.0
H494 H 0.73515 0.19705 0.24114 0.0
H495 H 0.7369 0.19381 0.29936 0.0
H496 H 0.99285 0.38 0.25636 0.0
H497 H 0.98958 0.37889 0.31461 0.0
H498 H 0.94046 0.37519 0.1985 0.0
H499 H 0.88394 0.33225 0.16705 0.0
C500 C 0.42319 0.63394 0.40482 0.0
C501 C 0.45609 0.6844 0.39975 0.0
C502 C 0.51271 0.68055 0.47085 0.0
C503 C 0.47893 0.62997 0.47683 0.0
N504 N 0.38987 0.56428 0.45517 0.0
N505 N 0.52358 0.75783 0.43448 0.0
C506 C 0.43071 0.60847 0.44529 0.0
C507 C 0.49802 0.70817 0.43486 0.0
N508 N 0.38507 0.60981 0.3706 0.0
N509 N 0.56078 0.70234 0.49813 0.0
H510 H 0.51492 0.77929 0.40897 0.0
H511 H 0.54925 0.77805 0.46139 0.0
H512 H 0.57082 0.68525 0.52617 0.0
H513 H 0.59213 0.73626 0.49156 0.0
H514 H 0.36451 0.57206 0.36953 0.0
H515 H 0.37728 0.62746 0.34162 0.0
H516 H 0.35138 0.54833 0.43599 0.0
H517 H 0.39108 0.54642 0.48561 0.0
C518 C 0.17046 0.49531 0.94293 0.0
C519 C 0.13686 0.4858 0.9013 0.0
C520 C 0.07278 0.52151 0.93486 0.0
C521 C 0.10477 0.52889 0.97765 0.0
N522 N 0.17956 0.51384 1.02291 0.0
N523 N 0.0521 0.48584 0.85946 0.0
C524 C 0.15227 0.51317 0.98165 0.0
C525 C 0.08728 0.4983 0.89786 0.0
N526 N 0.22104 0.48815 0.94533 0.0
N527 N 0.02696 0.53559 0.92958 0.0
H528 H 0.06231 0.47119 0.8314 0.0
H529 H 1.01145 0.48733 0.85589 0.0
H530 H 1.00893 0.5453 0.95628 0.0
H531 H 1.00722 0.53881 0.89853 0.0
H532 H 0.25144 0.49922 0.97232 0.0
H533 H 0.235 0.47483 0.9183 0.0
H534 H 0.20933 0.49761 1.02978 0.0
H535 H 0.16918 0.52712 0.05149 0.0
C536 C 0.60264 0.93973 0.93326 0.0
C537 C 0.5746 0.89194 0.94998 0.0
C538 C 0.52896 0.92238 1.00527 0.0
C539 C 0.56025 0.97098 0.991 0.0
N540 N 0.62985 0.02672 0.94369 0.0
N541 N 0.52012 0.83811 1.00651 0.0
C542 C 0.59821 0.97989 0.95573 0.0
C543 C 0.54031 0.88337 0.98724 0.0
N544 N 0.63226 0.94647 0.89524 0.0
N545 N 0.48797 0.91303 1.03582 0.0
H546 H 0.52722 0.80849 0.99399 0.0
H547 H 0.50098 0.83085 1.03716 0.0
H548 H 0.48038 0.93981 0.05298 0.0
H549 H 0.45869 0.87821 0.0425 0.0
H550 H 0.64847 0.97948 0.87822 0.0
H551 H 0.63798 0.91804 0.87902 0.0
H552 H 0.66321 0.03611 0.92217 0.0
H553 H 0.62443 0.05681 0.95683 0.0
C554 C 0.03669 0.25836 0.4598 0.0
C555 C 0.9793 0.2474 0.44324 0.0
C556 C 0.9552 0.16291 0.46763 0.0
C557 C 1.00887 0.17653 0.49266 0.0
N558 N 0.09693 0.24277 0.51904 0.0
N559 N 0.88074 0.18996 0.43784 0.0
C560 C 0.0492 0.22559 0.49012 0.0
C561 C 0.93758 0.19974 0.44855 0.0
N562 N 0.07922 0.30027 0.4469 0.0
N563 N 0.92146 0.11491 0.46125 0.0
H564 H 0.86524 0.21615 0.42551 0.0
H565 H 0.84841 0.15691 0.44548 0.0
H566 H 0.9342 0.08683 0.47278 0.0
H567 H 0.88419 0.1033 0.44005 0.0
H568 H 0.12264 0.30769 0.45484 0.0
H569 H 0.07145 0.32489 0.4243 0.0
H570 H 0.12391 0.27941 0.52063 0.0
H571 H 0.10606 0.22275 0.54545 0.0
C572 C 0.24182 0.70601 0.21244 0.0
C573 C 0.29453 0.70177 0.20417 0.0
C574 C 0.24541 0.64797 0.13953 0.0
C575 C 0.19416 0.65642 0.14501 0.0
N576 N 0.1493 0.70341 0.18146 0.0
N577 N 0.34781 0.67057 0.15844 0.0
C578 C 0.19359 0.6876 0.18046 0.0
C579 C 0.2964 0.67274 0.16755 0.0
N580 N 0.23801 0.72824 0.25093 0.0
N581 N 0.24533 0.61615 0.10728 0.0
H582 H 0.38495 0.68608 0.17939 0.0
H583 H 0.35458 0.65547 0.12932 0.0
H584 H 0.21041 0.60024 0.08446 0.0
H585 H 0.27816 0.60336 0.10462 0.0
H586 H 0.19942 0.72813 0.26154 0.0
H587 H 0.27266 0.74263 0.27449 0.0
H588 H 0.1492 0.72998 0.20353 0.0
H589 H 0.1152 0.69404 0.15725 0.0
C590 C 0.34732 0.45488 0.72012 0.0
C591 C 0.29879 0.46874 0.71821 0.0
C592 C 0.34614 0.53178 0.66134 0.0
C593 C 0.39425 0.51733 0.66283 0.0
N594 N 0.44445 0.47023 0.69943 0.0
N595 N 0.25578 0.52513 0.69179 0.0
C596 C 0.39567 0.4802 0.69382 0.0
C597 C 0.29972 0.50895 0.69047 0.0
N598 N 0.34654 0.4164 0.74677 0.0
N599 N 0.34339 0.56564 0.63018 0.0
H600 H 0.22062 0.50833 0.71112 0.0
H601 H 0.2556 0.55696 0.67642 0.0
H602 H 0.37565 0.58237 0.60819 0.0
H603 H 0.30786 0.57509 0.6237 0.0
H604 H 0.3754 0.39911 0.74531 0.0
H605 H 0.31519 0.40029 0.76967 0.0
H606 H 0.4519 0.44831 0.72491 0.0
H607 H 0.48008 0.48683 0.68058 0.0
C608 C 0.74352 0.72989 0.95624 0.0
C609 C 0.75023 0.77831 0.94446 0.0
C610 C 0.84955 0.80875 0.97652 0.0
C611 C 0.84405 0.76001 0.98555 0.0
N612 N 0.78392 0.67532 0.99377 0.0
N613 N 0.80312 0.86448 0.95175 0.0
C614 C 0.79011 0.72096 0.97893 0.0
C615 C 0.8012 0.81804 0.9577 0.0
N616 N 0.6935 0.69236 0.94344 0.0
N617 N 0.90176 0.84571 0.98432 0.0
H618 H 0.76828 0.87199 0.93772 0.0
H619 H 0.83713 0.89537 0.96356 0.0
H620 H 0.93699 0.84014 1.00019 0.0
H621 H 0.91106 0.8815 0.97398 0.0
H622 H 0.68779 0.65579 0.94567 0.0
H623 H 0.65768 0.69792 0.92876 0.0
H624 H 0.74475 0.64602 0.99391 0.0
H625 H 0.81768 0.66724 1.00911 0.0
C626 C 0.43738 0.90385 0.20326 0.0
C627 C 0.45657 0.86483 0.19857 0.0
C628 C 0.5267 0.91596 0.14532 0.0
C629 C 0.50681 0.95486 0.14912 0.0
N630 N 0.43755 0.98258 0.17735 0.0
N631 N 0.51189 0.83068 0.15824 0.0
C632 C 0.4601 0.94751 0.17657 0.0
C633 C 0.49916 0.87018 0.16766 0.0
N634 N 0.39867 0.8998 0.23461 0.0
N635 N 0.57265 0.92278 0.12031 0.0
H636 H 0.49387 0.7972 0.17441 0.0
H637 H 0.53679 0.82968 0.1321 0.0
H638 H 0.59004 0.95285 0.09945 0.0
H639 H 0.59483 0.89942 0.12117 0.0
H640 H 0.38682 0.92814 0.24363 0.0
H641 H 0.38102 0.86863 0.25418 0.0
H642 H 0.39993 0.97837 0.19242 0.0
H643 H 0.45471 1.01505 0.15975 0.0
C644 C 0.15116 0.26237 0.725 0.0
C645 C 0.13847 0.30362 0.71049 0.0
C646 C 0.07804 0.25412 0.64641 0.0
C647 C 0.09153 0.21258 0.66008 0.0
N648 N 0.15191 0.18261 0.70865 0.0
N649 N 0.09664 0.34058 0.6531 0.0
C650 C 0.13141 0.21838 0.6982 0.0
C651 C 0.10384 0.29978 0.67 0.0
N652 N 0.18154 0.26488 0.76523 0.0
N653 N 0.03966 0.25021 0.6106 0.0
H654 H 0.11106 0.37351 0.67044 0.0
H655 H 0.07967 0.34301 0.62072 0.0
H656 H 0.02571 0.22137 0.58803 0.0
H657 H 0.0201 0.27508 0.60366 0.0
H658 H 0.18655 0.23496 0.78116 0.0
H659 H 0.19826 0.29646 0.78463 0.0
H660 H 0.18554 0.18662 0.73244 0.0
H661 H 0.13954 0.1503 0.69089 0.0
C662 C 0.81343 0.38806 0.51479 0.0
C663 C 0.84357 0.41189 0.47704 0.0
C664 C 0.76991 0.44512 0.45605 0.0
C665 C 0.73903 0.42034 0.49325 0.0
N666 N 0.72592 0.36323 0.55457 0.0
N667 N 0.84914 0.45807 0.40862 0.0
C668 C 0.7591 0.39012 0.52151 0.0
C669 C 0.82135 0.43892 0.44666 0.0
N670 N 0.83778 0.3648 0.54501 0.0
N671 N 0.75064 0.47551 0.43051 0.0
H672 H 0.88831 0.45614 0.40189 0.0
H673 H 0.8323 0.47358 0.38248 0.0
H674 H 0.71155 0.47881 0.43491 0.0
H675 H 0.77419 0.49916 0.40629 0.0
H676 H 0.82148 0.3514 0.57587 0.0
H677 H 0.87687 0.36148 0.54062 0.0
H678 H 0.73476 0.33643 0.57317 0.0
H679 H 0.68692 0.36522 0.56164 0.0
loop_
_geom_bond_atom_site_label_1
_geom_bond_atom_site_label_2
_geom_bond_distance
_geom_bond_site_symmetry_2
_ccdc_geom_bond_type
H0 C3 0.929 . S
H1 C6 0.929 . S
H2 C8 0.930 . S
C3 H0 0.929 . S
C3 C4 1.398 . S
C3 C5 1.396 . S
C4 C3 1.398 . S
C4 C8 1.407 . S
C5 C3 1.396 . S
C5 C6 1.394 . S
C6 H1 0.929 . S
C6 C5 1.394 . S
C6 C7 1.382 . S
C7 C6 1.382 . S
C7 C8 1.392 . S
C7 N9 1.420 . S
C8 H2 0.930 . S
C8 C4 1.407 . S
C8 C7 1.392 . S
N9 C7 1.420 . S
N9 C10 1.244 . S
C10 N9 1.244 . S
H11 C14 0.929 . S
H12 C17 0.929 . S
H13 C19 0.930 . S
C14 H11 0.929 . S
C14 C15 1.398 . S
C14 C16 1.396 . S
C15 C14 1.398 . S
C15 C19 1.407 . S
C16 C14 1.396 . S
C16 C17 1.394 . S
C17 H12 0.929 . S
C17 C16 1.394 . S
C17 C18 1.382 . S
C18 C17 1.382 . S
C18 C19 1.392 . S
C18 N20 1.420 . S
C19 H13 0.930 . S
C19 C15 1.407 . S
C19 C18 1.392 . S
N20 C18 1.420 . S
N20 C21 1.244 1_455 S
C21 N20 1.244 1_655 S
H22 C25 0.929 . S
H23 C28 0.929 . S
H24 C30 0.930 . S
C25 H22 0.929 . S
C25 C26 1.398 . S
C25 C27 1.396 . S
C26 C25 1.398 . S
C26 C30 1.407 . S
C27 C25 1.396 . S
C27 C28 1.394 . S
C28 H23 0.929 . S
C28 C27 1.394 . S
C28 C29 1.382 . S
C29 C28 1.382 . S
C29 C30 1.392 . S
C29 N31 1.420 . S
C30 H24 0.930 . S
C30 C26 1.407 . S
C30 C29 1.392 . S
N31 C29 1.420 . S
N31 C32 1.244 . S
C32 N31 1.244 . S
H33 C36 0.929 . S
H34 C39 0.929 . S
H35 C41 0.930 . S
C36 H33 0.929 . S
C36 C37 1.398 . S
C36 C38 1.396 . S
C37 C36 1.398 . S
C37 C41 1.407 . S
C38 C36 1.396 . S
C38 C39 1.394 . S
C39 H34 0.929 . S
C39 C38 1.394 . S
C39 C40 1.382 . S
C40 C39 1.382 . S
C40 C41 1.392 . S
C40 N42 1.420 . S
C41 H35 0.930 . S
C41 C37 1.407 . S
C41 C40 1.392 . S
N42 C40 1.420 . S
N42 C43 1.244 . S
C43 N42 1.244 . S
H44 C47 0.929 . S
H45 C50 0.929 . S
H46 C52 0.930 . S
C47 H44 0.929 . S
C47 C48 1.398 . S
C47 C49 1.396 . S
C48 C47 1.398 . S
C48 C52 1.407 . S
C49 C47 1.396 . S
C49 C50 1.394 . S
C50 H45 0.929 . S
C50 C49 1.394 . S
C50 C51 1.382 . S
C51 C50 1.382 . S
C51 C52 1.392 . S
C51 N53 1.420 . S
C52 H46 0.930 . S
C52 C48 1.407 . S
C52 C51 1.392 . S
N53 C51 1.420 . S
N53 C54 1.244 . S
C54 N53 1.244 . S
H55 C58 0.929 . S
H56 C61 0.929 . S
H57 C63 0.930 . S
C58 H55 0.929 . S
C58 C59 1.398 . S
C58 C60 1.396 . S
C59 C58 1.398 . S
C59 C63 1.407 . S
C60 C58 1.396 . S
C60 C61 1.394 . S
C61 H56 0.929 . S
C61 C60 1.394 . S
C61 C62 1.382 . S
C62 C61 1.382 . S
C62 C63 1.392 . S
C62 N64 1.420 . S
C63 H57 0.930 . S
C63 C59 1.407 . S
C63 C62 1.392 . S
N64 C62 1.420 . S
N64 C65 1.244 . S
C65 N64 1.244 . S
H66 C69 0.929 . S
H67 C72 0.929 . S
H68 C74 0.930 . S
C69 H66 0.929 . S
C69 C70 1.398 . S
C69 C71 1.396 . S
C70 C69 1.398 . S
C70 C74 1.407 . S
C71 C69 1.396 . S
C71 C72 1.394 . S
C72 H67 0.929 . S
C72 C71 1.394 . S
C72 C73 1.382 . S
C73 C72 1.382 . S
C73 C74 1.392 . S
C73 N75 1.420 . S
C74 H68 0.930 . S
C74 C70 1.407 . S
C74 C73 1.392 . S
N75 C73 1.420 . S
N75 C76 1.244 . S
C76 N75 1.244 . S
H77 C80 0.929 . S
H78 C83 0.929 . S
H79 C85 0.930 . S
C80 H77 0.929 . S
C80 C81 1.398 . S
C80 C82 1.396 . S
C81 C80 1.398 . S
C81 C85 1.407 . S
C82 C80 1.396 . S
C82 C83 1.394 . S
C83 H78 0.929 . S
C83 C82 1.394 . S
C83 C84 1.382 . S
C84 C83 1.382 . S
C84 C85 1.392 . S
C84 N86 1.420 . S
C85 H79 0.930 . S
C85 C81 1.407 . S
C85 C84 1.392 . S
N86 C84 1.420 . S
N86 C87 1.244 . S
C87 N86 1.244 . S
Tb88 C90 2.809 1_545 S
Tb88 O108 2.484 1_545 S
Tb88 O109 2.443 . S
Tb88 O110 2.658 1_655 S
Tb88 O111 2.409 1_655 S
Tb88 O112 2.378 1_645 S
Tb88 O116 2.325 1_545 S
Tb88 O119 2.341 . S
Tb89 C99 2.809 . S
Tb89 O110 2.325 . S
Tb89 O113 2.341 1_545 S
Tb89 O114 2.484 . S
Tb89 O115 2.440 . S
Tb89 O116 2.658 1_445 S
Tb89 O117 2.409 1_545 S
Tb89 O118 2.378 . S
C90 Tb88 2.809 1_565 S
C90 C91 1.514 . S
C90 O108 1.248 . S
C90 O109 1.243 1_565 S
C91 C90 1.514 . S
C91 C92 1.359 . S
C91 C96 1.348 . S
C92 C91 1.359 . S
C92 C93 1.380 . S
C92 H120 0.929 . S
C93 C92 1.380 . S
C93 C94 1.347 . S
C93 H121 0.931 . S
C94 C93 1.347 . S
C94 C95 1.369 . S
C95 C94 1.369 . S
C95 C96 1.408 . S
C95 H122 0.930 . S
C96 C91 1.348 . S
C96 C95 1.408 . S
C96 H123 0.930 . S
C97 O110 1.281 . S
C97 O111 1.254 . S
C98 O112 1.236 . S
C98 O113 1.266 . S
C99 Tb89 2.809 . S
C99 C100 1.514 . S
C99 O114 1.248 . S
C99 O115 1.266 . S
C100 C99 1.514 . S
C100 C101 1.359 . S
C100 C105 1.348 . S
C101 C100 1.359 . S
C101 C102 1.380 . S
C101 H124 0.929 . S
C102 C101 1.380 . S
C102 C103 1.347 . S
C102 H125 0.931 . S
C103 C102 1.347 . S
C103 C104 1.369 . S
C104 C103 1.369 . S
C104 C105 1.408 . S
C104 H126 0.930 . S
C105 C100 1.348 . S
C105 C104 1.408 . S
C105 H127 0.930 . S
C106 O116 1.281 . S
C106 O117 1.254 1_655 S
C107 O118 1.236 1_655 S
C107 O119 1.266 . S
O108 Tb88 2.484 1_565 S
O108 C90 1.248 . S
O109 Tb88 2.443 . S
O109 C90 1.243 1_545 S
O110 Tb88 2.658 1_455 S
O110 Tb89 2.325 . S
O110 C97 1.281 . S
O111 Tb88 2.409 1_455 S
O111 C97 1.254 . S
O112 Tb88 2.378 1_465 S
O112 C98 1.236 . S
O113 Tb89 2.341 1_565 S
O113 C98 1.266 . S
O114 Tb89 2.484 . S
O114 C99 1.248 . S
O115 Tb89 2.440 . S
O115 C99 1.266 . S
O116 Tb88 2.325 1_565 S
O116 Tb89 2.658 1_665 S
O116 C106 1.281 . S
O117 Tb89 2.409 1_565 S
O117 C106 1.254 1_455 S
O118 Tb89 2.378 . S
O118 C107 1.236 1_455 S
O119 Tb88 2.341 . S
O119 C107 1.266 . S
H120 C92 0.929 . S
H121 C93 0.931 . S
H122 C95 0.930 . S
H123 C96 0.930 . S
H124 C101 0.929 . S
H125 C102 0.931 . S
H126 C104 0.930 . S
H127 C105 0.930 . S
Tb128 C130 2.809 . S
Tb128 O148 2.484 . S
Tb128 O149 2.440 . S
Tb128 O150 2.658 1_545 S
Tb128 O151 2.409 1_545 S
Tb128 O152 2.378 . S
Tb128 O156 2.325 . S
Tb128 O159 2.341 1_545 S
Tb129 C139 2.809 1_544 S
Tb129 O150 2.325 1_545 S
Tb129 O153 2.341 . S
Tb129 O154 2.484 1_544 S
Tb129 O155 2.440 1_544 S
Tb129 O156 2.658 . S
Tb129 O157 2.409 1_554 S
Tb129 O158 2.378 1_544 S
C130 Tb128 2.809 . S
C130 C131 1.514 . S
C130 O148 1.248 . S
C130 O149 1.266 . S
C131 C130 1.514 . S
C131 C132 1.359 . S
C131 C136 1.348 . S
C132 C131 1.359 . S
C132 C133 1.380 . S
C132 H160 0.929 . S
C133 C132 1.380 . S
C133 C134 1.347 . S
C133 H161 0.931 . S
C134 C133 1.347 . S
C134 C135 1.369 . S
C135 C134 1.369 . S
C135 C136 1.408 . S
C135 H162 0.930 . S
C136 C131 1.348 . S
C136 C135 1.408 . S
C136 H163 0.930 . S
C137 O150 1.281 . S
C137 O151 1.254 . S
C138 O152 1.236 . S
C138 O153 1.266 . S
C139 Tb129 2.809 1_566 S
C139 C140 1.514 . S
C139 O154 1.248 . S
C139 O155 1.266 . S
C140 C139 1.514 . S
C140 C141 1.359 . S
C140 C145 1.348 . S
C141 C140 1.359 . S
C141 C142 1.380 . S
C141 H164 0.929 . S
C142 C141 1.380 . S
C142 C143 1.347 . S
C142 H165 0.931 . S
C143 C142 1.347 . S
C143 C144 1.369 . S
C144 C143 1.369 . S
C144 C145 1.408 . S
C144 H166 0.930 . S
C145 C140 1.348 . S
C145 C144 1.408 . S
C145 H167 0.930 . S
C146 O156 1.281 . S
C146 O157 1.254 1_554 S
C147 O158 1.236 1_554 S
C147 O159 1.266 . S
O148 Tb128 2.484 . S
O148 C130 1.248 . S
O149 Tb128 2.440 . S
O149 C130 1.266 . S
O150 Tb128 2.658 1_565 S
O150 Tb129 2.325 1_565 S
O150 C137 1.281 . S
O151 Tb128 2.409 1_565 S
O151 C137 1.254 . S
O152 Tb128 2.378 . S
O152 C138 1.236 . S
O153 Tb129 2.341 . S
O153 C138 1.266 . S
O154 Tb129 2.484 1_566 S
O154 C139 1.248 . S
O155 Tb129 2.440 1_566 S
O155 C139 1.266 . S
O156 Tb128 2.325 . S
O156 Tb129 2.658 . S
O156 C146 1.281 . S
O157 Tb129 2.409 1_556 S
O157 C146 1.254 1_556 S
O158 Tb129 2.378 1_566 S
O158 C147 1.236 1_556 S
O159 Tb128 2.341 1_565 S
O159 C147 1.266 . S
H160 C132 0.929 . S
H161 C133 0.931 . S
H162 C135 0.930 . S
H163 C136 0.930 . S
H164 C141 0.929 . S
H165 C142 0.931 . S
H166 C144 0.930 . S
H167 C145 0.930 . S
Tb168 C170 2.809 . S
Tb168 O188 2.484 . S
Tb168 O189 2.440 . S
Tb168 O190 2.658 . S
Tb168 O191 2.409 . S
Tb168 O192 2.378 . S
Tb168 O196 2.325 . S
Tb168 O199 2.341 . S
Tb169 C179 2.809 . S
Tb169 O190 2.325 . S
Tb169 O193 2.341 . S
Tb169 O194 2.484 . S
Tb169 O195 2.440 . S
Tb169 O196 2.658 . S
Tb169 O197 2.409 . S
Tb169 O198 2.378 . S
C170 Tb168 2.809 . S
C170 C171 1.514 . S
C170 O188 1.248 . S
C170 O189 1.266 . S
C171 C170 1.514 . S
C171 C172 1.359 . S
C171 C176 1.348 . S
C172 C171 1.359 . S
C172 C173 1.380 . S
C172 H200 0.929 . S
C173 C172 1.380 . S
C173 C174 1.347 . S
C173 H201 0.931 . S
C174 C173 1.347 . S
C174 C175 1.369 . S
C175 C174 1.369 . S
C175 C176 1.408 . S
C175 H202 0.930 . S
C176 C171 1.348 . S
C176 C175 1.408 . S
C176 H203 0.930 . S
C177 O190 1.281 . S
C177 O191 1.254 . S
C178 O192 1.236 . S
C178 O193 1.266 . S
C179 Tb169 2.809 . S
C179 C180 1.514 . S
C179 O194 1.248 . S
C179 O195 1.266 . S
C180 C179 1.514 . S
C180 C181 1.359 . S
C180 C185 1.348 . S
C181 C180 1.359 . S
C181 C182 1.380 . S
C181 H204 0.929 . S
C182 C181 1.380 . S
C182 C183 1.347 . S
C182 H205 0.931 . S
C183 C182 1.347 . S
C183 C184 1.369 . S
C184 C183 1.369 . S
C184 C185 1.408 . S
C184 H206 0.930 . S
C185 C180 1.348 . S
C185 C184 1.408 . S
C185 H207 0.930 . S
C186 O196 1.281 . S
C186 O197 1.254 . S
C187 O198 1.236 . S
C187 O199 1.266 . S
O188 Tb168 2.484 . S
O188 C170 1.248 . S
O189 Tb168 2.440 . S
O189 C170 1.266 . S
O190 Tb168 2.658 . S
O190 Tb169 2.325 . S
O190 C177 1.281 . S
O191 Tb168 2.409 . S
O191 C177 1.254 . S
O192 Tb168 2.378 . S
O192 C178 1.236 . S
O193 Tb169 2.341 . S
O193 C178 1.266 . S
O194 Tb169 2.484 . S
O194 C179 1.248 . S
O195 Tb169 2.440 . S
O195 C179 1.266 . S
O196 Tb168 2.325 . S
O196 Tb169 2.658 . S
O196 C186 1.281 . S
O197 Tb169 2.409 . S
O197 C186 1.254 . S
O198 Tb169 2.378 . S
O198 C187 1.236 . S
O199 Tb168 2.341 . S
O199 C187 1.266 . S
H200 C172 0.929 . S
H201 C173 0.931 . S
H202 C175 0.930 . S
H203 C176 0.930 . S
H204 C181 0.929 . S
H205 C182 0.931 . S
H206 C184 0.930 . S
H207 C185 0.930 . S
Tb208 C210 2.809 1_455 S
Tb208 O228 2.484 1_455 S
Tb208 O229 2.440 . S
Tb208 O230 2.658 1_556 S
Tb208 O231 2.409 1_556 S
Tb208 O232 2.378 1_556 S
Tb208 O236 2.325 1_455 S
Tb208 O239 2.341 . S
Tb209 C219 2.809 . S
Tb209 O230 2.325 . S
Tb209 O233 2.338 1_455 S
Tb209 O234 2.484 . S
Tb209 O235 2.440 . S
Tb209 O236 2.658 1_454 S
Tb209 O237 2.409 1_455 S
Tb209 O238 2.378 1_554 S
C210 Tb208 2.809 1_655 S
C210 C211 1.514 . S
C210 O228 1.248 . S
C210 O229 1.266 1_655 S
C211 C210 1.514 . S
C211 C212 1.359 . S
C211 C216 1.348 . S
C212 C211 1.359 . S
C212 C213 1.380 . S
C212 H240 0.929 . S
C213 C212 1.380 . S
C213 C214 1.347 . S
C213 H241 0.931 . S
C214 C213 1.347 . S
C214 C215 1.369 . S
C215 C214 1.369 . S
C215 C216 1.408 . S
C215 H242 0.930 . S
C216 C211 1.348 . S
C216 C215 1.408 . S
C216 H243 0.930 1_655 S
C217 O230 1.281 . S
C217 O231 1.254 . S
C218 O232 1.236 1_655 S
C218 O233 1.268 . S
C219 Tb209 2.809 . S
C219 C220 1.514 . S
C219 O234 1.248 . S
C219 O235 1.266 . S
C220 C219 1.514 . S
C220 C221 1.359 . S
C220 C225 1.348 . S
C221 C220 1.359 . S
C221 C222 1.380 . S
C221 H244 0.929 . S
C222 C221 1.380 . S
C222 C223 1.347 . S
C222 H245 0.931 . S
C223 C222 1.347 . S
C223 C224 1.369 . S
C224 C223 1.369 . S
C224 C225 1.408 . S
C224 H246 0.930 . S
C225 C220 1.348 . S
C225 C224 1.408 . S
C225 H247 0.930 . S
C226 O236 1.281 . S
C226 O237 1.254 1_556 S
C227 O238 1.236 . S
C227 O239 1.266 . S
O228 Tb208 2.484 1_655 S
O228 C210 1.248 . S
O229 Tb208 2.440 . S
O229 C210 1.266 1_455 S
O230 Tb208 2.658 1_554 S
O230 Tb209 2.325 . S
O230 C217 1.281 . S
O231 Tb208 2.409 1_554 S
O231 C217 1.254 . S
O232 Tb208 2.378 1_554 S
O232 C218 1.236 1_455 S
O233 Tb209 2.338 1_655 S
O233 C218 1.268 . S
O234 Tb209 2.484 . S
O234 C219 1.248 . S
O235 Tb209 2.440 . S
O235 C219 1.266 . S
O236 Tb208 2.325 1_655 S
O236 Tb209 2.658 1_656 S
O236 C226 1.281 . S
O237 Tb209 2.409 1_655 S
O237 C226 1.254 1_554 S
O238 Tb209 2.378 1_556 S
O238 C227 1.236 . S
O239 Tb208 2.341 . S
O239 C227 1.266 . S
H240 C212 0.929 . S
H241 C213 0.931 . S
H242 C215 0.930 . S
H243 C216 0.930 1_455 S
H244 C221 0.929 . S
H245 C222 0.931 . S
H246 C224 0.930 . S
H247 C225 0.930 . S
C248 C249 1.363 . S
C248 C254 1.379 . S
C248 N256 1.356 . S
C249 C248 1.363 . S
C249 C255 1.363 . S
C250 C251 1.363 . S
C250 C255 1.379 . S
C250 N257 1.356 . S
C251 C250 1.363 . S
C251 C254 1.363 . S
N252 C254 1.356 . S
N252 H264 0.984 . S
N252 H265 0.985 . S
N253 C255 1.356 . S
N253 H258 0.984 . S
N253 H259 0.985 . S
C254 C248 1.379 . S
C254 C251 1.363 . S
C254 N252 1.356 . S
C255 C249 1.363 . S
C255 C250 1.379 . S
C255 N253 1.356 . S
N256 C248 1.356 . S
N256 H262 0.984 . S
N256 H263 0.984 . S
N257 C250 1.356 . S
N257 H260 0.984 . S
N257 H261 0.985 . S
H258 N253 0.984 . S
H259 N253 0.985 . S
H260 N257 0.984 . S
H261 N257 0.985 . S
H262 N256 0.984 . S
H263 N256 0.984 . S
H264 N252 0.984 . S
H265 N252 0.985 . S
C266 C267 1.363 . S
C266 C272 1.379 . S
C266 N274 1.356 . S
C267 C266 1.363 . S
C267 C273 1.363 . S
C268 C269 1.363 . S
C268 C273 1.379 . S
C268 N275 1.356 . S
C269 C268 1.363 . S
C269 C272 1.363 . S
N270 C272 1.356 . S
N270 H282 0.984 . S
N270 H283 0.985 . S
N271 C273 1.356 . S
N271 H276 0.984 . S
N271 H277 0.985 . S
C272 C266 1.379 . S
C272 C269 1.363 . S
C272 N270 1.356 . S
C273 C267 1.363 . S
C273 C268 1.379 . S
C273 N271 1.356 . S
N274 C266 1.356 . S
N274 H280 0.984 . S
N274 H281 0.984 . S
N275 C268 1.356 . S
N275 H278 0.984 . S
N275 H279 0.985 . S
H276 N271 0.984 . S
H277 N271 0.985 . S
H278 N275 0.984 . S
H279 N275 0.985 . S
H280 N274 0.984 . S
H281 N274 0.984 . S
H282 N270 0.984 . S
H283 N270 0.985 . S
C284 C285 1.363 . S
C284 C290 1.379 . S
C284 N292 1.356 . S
C285 C284 1.363 . S
C285 C291 1.363 . S
C286 C287 1.363 . S
C286 C291 1.379 . S
C286 N293 1.356 . S
C287 C286 1.363 . S
C287 C290 1.363 . S
N288 C290 1.356 . S
N288 H300 0.984 . S
N288 H301 0.985 . S
N289 C291 1.356 . S
N289 H294 0.984 . S
N289 H295 0.985 . S
C290 C284 1.379 . S
C290 C287 1.363 . S
C290 N288 1.356 . S
C291 C285 1.363 . S
C291 C286 1.379 . S
C291 N289 1.356 . S
N292 C284 1.356 . S
N292 H298 0.984 . S
N292 H299 0.984 . S
N293 C286 1.356 . S
N293 H296 0.984 . S
N293 H297 0.985 . S
H294 N289 0.984 . S
H295 N289 0.985 . S
H296 N293 0.984 . S
H297 N293 0.985 . S
H298 N292 0.984 . S
H299 N292 0.984 . S
H300 N288 0.984 . S
H301 N288 0.985 . S
C302 C303 1.363 . S
C302 C308 1.379 . S
C302 N310 1.356 . S
C303 C302 1.363 . S
C303 C309 1.363 . S
C304 C305 1.363 . S
C304 C309 1.379 . S
C304 N311 1.356 . S
C305 C304 1.363 . S
C305 C308 1.363 . S
N306 C308 1.356 . S
N306 H318 0.984 . S
N306 H319 0.985 . S
N307 C309 1.356 . S
N307 H312 0.984 . S
N307 H313 0.985 . S
C308 C302 1.379 . S
C308 C305 1.363 . S
C308 N306 1.356 . S
C309 C303 1.363 . S
C309 C304 1.379 . S
C309 N307 1.356 . S
N310 C302 1.356 . S
N310 H316 0.984 . S
N310 H317 0.984 . S
N311 C304 1.356 . S
N311 H314 0.984 . S
N311 H315 0.985 1_655 S
H312 N307 0.984 . S
H313 N307 0.985 . S
H314 N311 0.984 . S
H315 N311 0.985 1_455 S
H316 N310 0.984 . S
H317 N310 0.984 . S
H318 N306 0.984 . S
H319 N306 0.985 . S
C320 C321 1.363 . S
C320 C326 1.379 . S
C320 N328 1.356 . S
C321 C320 1.363 . S
C321 C327 1.363 . S
C322 C323 1.363 . S
C322 C327 1.379 . S
C322 N329 1.356 . S
C323 C322 1.363 . S
C323 C326 1.363 . S
N324 C326 1.356 . S
N324 H336 0.984 . S
N324 H337 0.985 . S
N325 C327 1.356 . S
N325 H330 0.984 . S
N325 H331 0.985 . S
C326 C320 1.379 . S
C326 C323 1.363 . S
C326 N324 1.356 . S
C327 C321 1.363 . S
C327 C322 1.379 . S
C327 N325 1.356 . S
N328 C320 1.356 . S
N328 H334 0.984 . S
N328 H335 0.984 . S
N329 C322 1.356 . S
N329 H332 0.984 . S
N329 H333 0.985 . S
H330 N325 0.984 . S
H331 N325 0.985 . S
H332 N329 0.984 . S
H333 N329 0.985 . S
H334 N328 0.984 . S
H335 N328 0.984 . S
H336 N324 0.984 . S
H337 N324 0.985 . S
C338 C339 1.363 1_455 S
C338 C344 1.379 . S
C338 N346 1.356 . S
C339 C338 1.363 1_655 S
C339 C345 1.363 . S
C340 C341 1.363 1_655 S
C340 C345 1.379 . S
C340 N347 1.356 . S
C341 C340 1.363 1_455 S
C341 C344 1.363 . S
N342 C344 1.356 . S
N342 H354 0.984 . S
N342 H355 0.985 . S
N343 C345 1.356 . S
N343 H348 0.984 . S
N343 H349 0.985 . S
C344 C338 1.379 . S
C344 C341 1.363 . S
C344 N342 1.356 . S
C345 C339 1.363 . S
C345 C340 1.379 . S
C345 N343 1.356 . S
N346 C338 1.356 . S
N346 H352 0.984 . S
N346 H353 0.984 . S
N347 C340 1.356 . S
N347 H350 0.984 . S
N347 H351 0.985 . S
H348 N343 0.984 . S
H349 N343 0.985 . S
H350 N347 0.984 . S
H351 N347 0.985 . S
H352 N346 0.984 . S
H353 N346 0.984 . S
H354 N342 0.984 . S
H355 N342 0.985 . S
C356 C357 1.363 . S
C356 C362 1.379 . S
C356 N364 1.356 . S
C357 C356 1.363 . S
C357 C363 1.363 . S
C358 C359 1.363 . S
C358 C363 1.379 . S
C358 N365 1.356 . S
C359 C358 1.363 . S
C359 C362 1.363 . S
N360 C362 1.356 . S
N360 H372 0.984 . S
N360 H373 0.985 . S
N361 C363 1.356 . S
N361 H366 0.984 . S
N361 H367 0.985 . S
C362 C356 1.379 . S
C362 C359 1.363 . S
C362 N360 1.356 . S
C363 C357 1.363 . S
C363 C358 1.379 . S
C363 N361 1.356 . S
N364 C356 1.356 . S
N364 H370 0.984 . S
N364 H371 0.984 . S
N365 C358 1.356 . S
N365 H368 0.984 . S
N365 H369 0.985 . S
H366 N361 0.984 . S
H367 N361 0.985 . S
H368 N365 0.984 . S
H369 N365 0.985 . S
H370 N364 0.984 . S
H371 N364 0.984 . S
H372 N360 0.984 . S
H373 N360 0.985 . S
C374 C375 1.363 . S
C374 C380 1.379 . S
C374 N382 1.356 . S
C375 C374 1.363 . S
C375 C381 1.363 . S
C376 C377 1.363 . S
C376 C381 1.379 . S
C376 N383 1.356 . S
C377 C376 1.363 . S
C377 C380 1.363 . S
N378 C380 1.356 . S
N378 H390 0.984 . S
N378 H391 0.985 . S
N379 C381 1.356 . S
N379 H384 0.984 . S
N379 H385 0.985 . S
C380 C374 1.379 . S
C380 C377 1.363 . S
C380 N378 1.356 . S
C381 C375 1.363 . S
C381 C376 1.379 . S
C381 N379 1.356 . S
N382 C374 1.356 . S
N382 H388 0.984 . S
N382 H389 0.984 . S
N383 C376 1.356 . S
N383 H386 0.984 . S
N383 H387 0.985 . S
H384 N379 0.984 . S
H385 N379 0.985 . S
H386 N383 0.984 . S
H387 N383 0.985 . S
H388 N382 0.984 . S
H389 N382 0.984 . S
H390 N378 0.984 . S
H391 N378 0.985 . S
C392 C393 1.363 . S
C392 C398 1.379 . S
C392 N400 1.356 . S
C393 C392 1.363 . S
C393 C399 1.363 . S
C394 C395 1.363 . S
C394 C399 1.379 . S
C394 N401 1.356 . S
C395 C394 1.363 . S
C395 C398 1.363 . S
N396 C398 1.356 . S
N396 H408 0.984 . S
N396 H409 0.985 . S
N397 C399 1.356 . S
N397 H402 0.984 . S
N397 H403 0.985 . S
C398 C392 1.379 . S
C398 C395 1.363 . S
C398 N396 1.356 . S
C399 C393 1.363 . S
C399 C394 1.379 . S
C399 N397 1.356 . S
N400 C392 1.356 . S
N400 H406 0.984 . S
N400 H407 0.984 . S
N401 C394 1.356 . S
N401 H404 0.984 . S
N401 H405 0.985 . S
H402 N397 0.984 . S
H403 N397 0.985 . S
H404 N401 0.984 . S
H405 N401 0.985 . S
H406 N400 0.984 . S
H407 N400 0.984 . S
H408 N396 0.984 . S
H409 N396 0.985 . S
C410 C411 1.363 . S
C410 C416 1.379 . S
C410 N418 1.356 . S
C411 C410 1.363 . S
C411 C417 1.363 . S
C412 C413 1.363 . S
C412 C417 1.379 . S
C412 N419 1.356 1_556 S
C413 C412 1.363 . S
C413 C416 1.363 . S
N414 C416 1.356 . S
N414 H426 0.984 . S
N414 H427 0.985 . S
N415 C417 1.356 . S
N415 H420 0.984 . S
N415 H421 0.987 . S
C416 C410 1.379 . S
C416 C413 1.363 . S
C416 N414 1.356 . S
C417 C411 1.363 . S
C417 C412 1.379 . S
C417 N415 1.356 . S
N418 C410 1.356 . S
N418 H424 0.984 . S
N418 H425 0.984 . S
N419 C412 1.356 1_554 S
N419 H422 0.984 . S
N419 H423 0.985 . S
H420 N415 0.984 . S
H421 N415 0.987 . S
H422 N419 0.984 . S
H423 N419 0.985 . S
H424 N418 0.984 . S
H425 N418 0.984 . S
H426 N414 0.984 . S
H427 N414 0.985 . S
C428 C429 1.363 . S
C428 C434 1.379 . S
C428 N436 1.356 . S
C429 C428 1.363 . S
C429 C435 1.363 . S
C430 C431 1.363 . S
C430 C435 1.379 . S
C430 N437 1.356 . S
C431 C430 1.363 . S
C431 C434 1.363 . S
N432 C434 1.356 . S
N432 H444 0.984 . S
N432 H445 0.985 . S
N433 C435 1.356 . S
N433 H438 0.984 . S
N433 H439 0.985 . S
C434 C428 1.379 . S
C434 C431 1.363 . S
C434 N432 1.356 . S
C435 C429 1.363 . S
C435 C430 1.379 . S
C435 N433 1.356 . S
N436 C428 1.356 . S
N436 H442 0.984 . S
N436 H443 0.984 . S
N437 C430 1.356 . S
N437 H440 0.984 . S
N437 H441 0.985 . S
H438 N433 0.984 . S
H439 N433 0.985 . S
H440 N437 0.984 . S
H441 N437 0.985 . S
H442 N436 0.984 . S
H443 N436 0.984 . S
H444 N432 0.984 . S
H445 N432 0.985 . S
C446 C447 1.363 . S
C446 C452 1.379 . S
C446 N454 1.356 . S
C447 C446 1.363 . S
C447 C453 1.363 . S
C448 C449 1.363 . S
C448 C453 1.379 . S
C448 N455 1.356 . S
C449 C448 1.363 . S
C449 C452 1.363 . S
N450 C452 1.356 . S
N450 H462 0.984 . S
N450 H463 0.985 . S
N451 C453 1.356 . S
N451 H456 0.984 . S
N451 H457 0.985 . S
C452 C446 1.379 . S
C452 C449 1.363 . S
C452 N450 1.356 . S
C453 C447 1.363 . S
C453 C448 1.379 . S
C453 N451 1.356 . S
N454 C446 1.356 . S
N454 H460 0.984 . S
N454 H461 0.984 . S
N455 C448 1.356 . S
N455 H458 0.984 . S
N455 H459 0.985 . S
H456 N451 0.984 . S
H457 N451 0.985 . S
H458 N455 0.984 . S
H459 N455 0.985 . S
H460 N454 0.984 . S
H461 N454 0.984 . S
H462 N450 0.984 . S
H463 N450 0.985 . S
C464 C465 1.363 . S
C464 C470 1.379 . S
C464 N472 1.356 . S
C465 C464 1.363 . S
C465 C471 1.363 . S
C466 C467 1.363 . S
C466 C471 1.379 . S
C466 N473 1.356 . S
C467 C466 1.363 . S
C467 C470 1.363 . S
N468 C470 1.356 . S
N468 H480 0.984 . S
N468 H481 0.985 . S
N469 C471 1.356 . S
N469 H474 0.984 . S
N469 H475 0.985 . S
C470 C464 1.379 . S
C470 C467 1.363 . S
C470 N468 1.356 . S
C471 C465 1.363 . S
C471 C466 1.379 . S
C471 N469 1.356 . S
N472 C464 1.356 . S
N472 H478 0.984 . S
N472 H479 0.984 . S
N473 C466 1.356 . S
N473 H476 0.984 . S
N473 H477 0.985 . S
H474 N469 0.984 . S
H475 N469 0.985 . S
H476 N473 0.984 . S
H477 N473 0.985 . S
H478 N472 0.984 . S
H479 N472 0.984 . S
H480 N468 0.984 . S
H481 N468 0.985 . S
C482 C483 1.363 . S
C482 C488 1.379 . S
C482 N490 1.356 . S
C483 C482 1.363 . S
C483 C489 1.363 . S
C484 C485 1.363 . S
C484 C489 1.379 . S
C484 N491 1.356 . S
C485 C484 1.363 . S
C485 C488 1.363 . S
N486 C488 1.356 . S
N486 H498 0.984 . S
N486 H499 0.985 . S
N487 C489 1.356 . S
N487 H492 0.984 . S
N487 H493 0.985 . S
C488 C482 1.379 . S
C488 C485 1.363 . S
C488 N486 1.356 . S
C489 C483 1.363 . S
C489 C484 1.379 . S
C489 N487 1.356 . S
N490 C482 1.356 . S
N490 H496 0.984 . S
N490 H497 0.984 . S
N491 C484 1.356 . S
N491 H494 0.984 . S
N491 H495 0.985 . S
H492 N487 0.984 . S
H493 N487 0.985 . S
H494 N491 0.984 . S
H495 N491 0.985 . S
H496 N490 0.984 . S
H497 N490 0.984 . S
H498 N486 0.984 . S
H499 N486 0.985 . S
C500 C501 1.363 . S
C500 C506 1.379 . S
C500 N508 1.356 . S
C501 C500 1.363 . S
C501 C507 1.363 . S
C502 C503 1.363 . S
C502 C507 1.379 . S
C502 N509 1.356 . S
C503 C502 1.363 . S
C503 C506 1.363 . S
N504 C506 1.356 . S
N504 H516 0.984 . S
N504 H517 0.985 . S
N505 C507 1.356 . S
N505 H510 0.984 . S
N505 H511 0.985 . S
C506 C500 1.379 . S
C506 C503 1.363 . S
C506 N504 1.356 . S
C507 C501 1.363 . S
C507 C502 1.379 . S
C507 N505 1.356 . S
N508 C500 1.356 . S
N508 H514 0.984 . S
N508 H515 0.984 . S
N509 C502 1.356 . S
N509 H512 0.984 . S
N509 H513 0.985 . S
H510 N505 0.984 . S
H511 N505 0.985 . S
H512 N509 0.984 . S
H513 N509 0.985 . S
H514 N508 0.984 . S
H515 N508 0.984 . S
H516 N504 0.984 . S
H517 N504 0.985 . S
C518 C519 1.363 . S
C518 C524 1.379 . S
C518 N526 1.356 . S
C519 C518 1.363 . S
C519 C525 1.363 . S
C520 C521 1.363 . S
C520 C525 1.379 . S
C520 N527 1.356 . S
C521 C520 1.363 . S
C521 C524 1.363 . S
N522 C524 1.356 . S
N522 H534 0.984 . S
N522 H535 0.985 . S
N523 C525 1.356 . S
N523 H528 0.984 . S
N523 H529 0.985 . S
C524 C518 1.379 . S
C524 C521 1.363 . S
C524 N522 1.356 . S
C525 C519 1.363 . S
C525 C520 1.379 . S
C525 N523 1.356 . S
N526 C518 1.356 . S
N526 H532 0.984 . S
N526 H533 0.984 . S
N527 C520 1.356 . S
N527 H530 0.984 . S
N527 H531 0.985 . S
H528 N523 0.984 . S
H529 N523 0.985 . S
H530 N527 0.984 . S
H531 N527 0.985 . S
H532 N526 0.984 . S
H533 N526 0.984 . S
H534 N522 0.984 . S
H535 N522 0.985 . S
C536 C537 1.363 . S
C536 C542 1.379 . S
C536 N544 1.356 . S
C537 C536 1.363 . S
C537 C543 1.363 . S
C538 C539 1.363 . S
C538 C543 1.379 . S
C538 N545 1.356 1_556 S
C539 C538 1.363 . S
C539 C542 1.363 . S
N540 C542 1.356 . S
N540 H552 0.984 . S
N540 H553 0.985 1_565 S
N541 C543 1.356 . S
N541 H546 0.984 . S
N541 H547 0.985 1_556 S
C542 C536 1.379 . S
C542 C539 1.363 . S
C542 N540 1.356 . S
C543 C537 1.363 . S
C543 C538 1.379 . S
C543 N541 1.356 . S
N544 C536 1.356 . S
N544 H550 0.984 . S
N544 H551 0.984 . S
N545 C538 1.356 1_554 S
N545 H548 0.984 . S
N545 H549 0.985 . S
H546 N541 0.984 . S
H547 N541 0.985 1_554 S
H548 N545 0.984 . S
H549 N545 0.985 . S
H550 N544 0.984 . S
H551 N544 0.984 . S
H552 N540 0.984 . S
H553 N540 0.985 1_545 S
C554 C555 1.363 1_455 S
C554 C560 1.379 . S
C554 N562 1.356 . S
C555 C554 1.363 1_655 S
C555 C561 1.363 . S
C556 C557 1.363 . S
C556 C561 1.379 . S
C556 N563 1.356 . S
C557 C556 1.363 . S
C557 C560 1.363 1_655 S
N558 C560 1.356 . S
N558 H570 0.984 . S
N558 H571 0.985 . S
N559 C561 1.356 . S
N559 H564 0.984 . S
N559 H565 0.985 . S
C560 C554 1.379 . S
C560 C557 1.363 1_455 S
C560 N558 1.356 . S
C561 C555 1.363 . S
C561 C556 1.379 . S
C561 N559 1.356 . S
N562 C554 1.356 . S
N562 H568 0.984 . S
N562 H569 0.984 . S
N563 C556 1.356 . S
N563 H566 0.984 . S
N563 H567 0.985 . S
H564 N559 0.984 . S
H565 N559 0.985 . S
H566 N563 0.984 . S
H567 N563 0.985 . S
H568 N562 0.984 . S
H569 N562 0.984 . S
H570 N558 0.984 . S
H571 N558 0.985 . S
C572 C573 1.363 . S
C572 C578 1.379 . S
C572 N580 1.356 . S
C573 C572 1.363 . S
C573 C579 1.363 . S
C574 C575 1.363 . S
C574 C579 1.379 . S
C574 N581 1.356 . S
C575 C574 1.363 . S
C575 C578 1.363 . S
N576 C578 1.356 . S
N576 H588 0.984 . S
N576 H589 0.985 . S
N577 C579 1.356 . S
N577 H582 0.984 . S
N577 H583 0.985 . S
C578 C572 1.379 . S
C578 C575 1.363 . S
C578 N576 1.356 . S
C579 C573 1.363 . S
C579 C574 1.379 . S
C579 N577 1.356 . S
N580 C572 1.356 . S
N580 H586 0.984 . S
N580 H587 0.984 . S
N581 C574 1.356 . S
N581 H584 0.984 . S
N581 H585 0.985 . S
H582 N577 0.984 . S
H583 N577 0.985 . S
H584 N581 0.984 . S
H585 N581 0.985 . S
H586 N580 0.984 . S
H587 N580 0.984 . S
H588 N576 0.984 . S
H589 N576 0.985 . S
C590 C591 1.363 . S
C590 C596 1.379 . S
C590 N598 1.356 . S
C591 C590 1.363 . S
C591 C597 1.363 . S
C592 C593 1.363 . S
C592 C597 1.379 . S
C592 N599 1.356 . S
C593 C592 1.363 . S
C593 C596 1.363 . S
N594 C596 1.356 . S
N594 H606 0.984 . S
N594 H607 0.985 . S
N595 C597 1.356 . S
N595 H600 0.984 . S
N595 H601 0.985 . S
C596 C590 1.379 . S
C596 C593 1.363 . S
C596 N594 1.356 . S
C597 C591 1.363 . S
C597 C592 1.379 . S
C597 N595 1.356 . S
N598 C590 1.356 . S
N598 H604 0.984 . S
N598 H605 0.984 . S
N599 C592 1.356 . S
N599 H602 0.984 . S
N599 H603 0.985 . S
H600 N595 0.984 . S
H601 N595 0.985 . S
H602 N599 0.984 . S
H603 N599 0.985 . S
H604 N598 0.984 . S
H605 N598 0.984 . S
H606 N594 0.984 . S
H607 N594 0.985 . S
C608 C609 1.363 . S
C608 C614 1.379 . S
C608 N616 1.356 . S
C609 C608 1.363 . S
C609 C615 1.363 . S
C610 C611 1.363 . S
C610 C615 1.379 . S
C610 N617 1.356 . S
C611 C610 1.363 . S
C611 C614 1.363 . S
N612 C614 1.356 . S
N612 H624 0.984 . S
N612 H625 0.985 . S
N613 C615 1.356 . S
N613 H618 0.984 . S
N613 H619 0.985 . S
C614 C608 1.379 . S
C614 C611 1.363 . S
C614 N612 1.356 . S
C615 C609 1.363 . S
C615 C610 1.379 . S
C615 N613 1.356 . S
N616 C608 1.356 . S
N616 H622 0.984 . S
N616 H623 0.984 . S
N617 C610 1.356 . S
N617 H620 0.984 . S
N617 H621 0.985 . S
H618 N613 0.984 . S
H619 N613 0.985 . S
H620 N617 0.984 . S
H621 N617 0.985 . S
H622 N616 0.984 . S
H623 N616 0.984 . S
H624 N612 0.984 . S
H625 N612 0.985 . S
C626 C627 1.363 . S
C626 C632 1.379 . S
C626 N634 1.356 . S
C627 C626 1.363 . S
C627 C633 1.363 . S
C628 C629 1.363 . S
C628 C633 1.379 . S
C628 N635 1.356 . S
C629 C628 1.363 . S
C629 C632 1.363 . S
N630 C632 1.356 . S
N630 H642 0.984 . S
N630 H643 0.985 . S
N631 C633 1.356 . S
N631 H636 0.984 . S
N631 H637 0.985 . S
C632 C626 1.379 . S
C632 C629 1.363 . S
C632 N630 1.356 . S
C633 C627 1.363 . S
C633 C628 1.379 . S
C633 N631 1.356 . S
N634 C626 1.356 . S
N634 H640 0.984 . S
N634 H641 0.984 . S
N635 C628 1.356 . S
N635 H638 0.984 . S
N635 H639 0.985 . S
H636 N631 0.984 . S
H637 N631 0.985 . S
H638 N635 0.984 . S
H639 N635 0.985 . S
H640 N634 0.984 . S
H641 N634 0.984 . S
H642 N630 0.984 . S
H643 N630 0.985 . S
C644 C645 1.363 . S
C644 C650 1.379 . S
C644 N652 1.356 . S
C645 C644 1.363 . S
C645 C651 1.363 . S
C646 C647 1.363 . S
C646 C651 1.379 . S
C646 N653 1.356 . S
C647 C646 1.363 . S
C647 C650 1.363 . S
N648 C650 1.356 . S
N648 H660 0.984 . S
N648 H661 0.985 . S
N649 C651 1.356 . S
N649 H654 0.984 . S
N649 H655 0.985 . S
C650 C644 1.379 . S
C650 C647 1.363 . S
C650 N648 1.356 . S
C651 C645 1.363 . S
C651 C646 1.379 . S
C651 N649 1.356 . S
N652 C644 1.356 . S
N652 H658 0.984 . S
N652 H659 0.984 . S
N653 C646 1.356 . S
N653 H656 0.984 . S
N653 H657 0.985 . S
H654 N649 0.984 . S
H655 N649 0.985 . S
H656 N653 0.984 . S
H657 N653 0.985 . S
H658 N652 0.984 . S
H659 N652 0.984 . S
H660 N648 0.984 . S
H661 N648 0.985 . S
C662 C663 1.363 . S
C662 C668 1.379 . S
C662 N670 1.356 . S
C663 C662 1.363 . S
C663 C669 1.363 . S
C664 C665 1.363 . S
C664 C669 1.379 . S
C664 N671 1.356 . S
C665 C664 1.363 . S
C665 C668 1.363 . S
N666 C668 1.356 . S
N666 H678 0.984 . S
N666 H679 0.985 . S
N667 C669 1.356 . S
N667 H672 0.984 . S
N667 H673 0.985 . S
C668 C662 1.379 . S
C668 C665 1.363 . S
C668 N666 1.356 . S
C669 C663 1.363 . S
C669 C664 1.379 . S
C669 N667 1.356 . S
N670 C662 1.356 . S
N670 H676 0.984 . S
N670 H677 0.984 . S
N671 C664 1.356 . S
N671 H674 0.984 . S
N671 H675 0.985 . S
H672 N667 0.984 . S
H673 N667 0.985 . S
H674 N671 0.984 . S
H675 N671 0.985 . S
H676 N670 0.984 . S
H677 N670 0.984 . S
H678 N666 0.984 . S
H679 N666 0.985 . S
C249 C4 1.312 . S
C251 C103 1.330 . S
C267 C16 1.162 . S
C269 C143 1.230 . S
C287 C177 2.161 . S
C285 C32 2.099 . S
C303 C43 2.575 . S
C305 C218 2.512 . S
C323 C138 1.880 . S
C321 C5 1.772 . S
C341 C98 1.859 . S
C339 C21 1.650 . S
C359 C226 1.646 . S
C357 C27 1.705 . S
C377 C187 1.836 . S
C375 C37 1.933 . S
C393 C10 1.415 . S
C395 C223 1.434 . S
C413 C146 2.248 1_556 S
C411 C26 2.327 . S
C429 C38 2.127 . S
C431 C106 2.069 . S
C447 C15 1.796 . S
C449 C174 1.884 . S
C467 C94 1.361 . S
C465 C48 1.352 . S
C483 C59 1.048 . S
C485 C134 1.078 . S
C501 C76 2.299 . S
C503 C186 2.257 . S
C519 C87 2.398 . S
C521 C227 2.327 . S
C537 C54 1.296 . S
C539 C147 1.408 1_556 S
C557 C107 2.322 . S
C555 C60 2.165 . S
C575 C217 1.812 . S
C573 C71 1.707 . S
C593 C178 1.791 . S
C591 C82 1.843 . S
C609 C49 1.886 . S
C611 C214 1.956 . S
C629 C137 1.773 . S
C627 C70 1.824 . S
C647 C97 2.430 . S
C645 C81 2.539 . S
C663 C65 1.479 . S
C665 C183 1.528 . S
