# Generated by pormake.
# Topology ssa, (4,4)-cn, num edge types: 1
# Building blocks:
#     Node 0, Type 0, BuildingBlock: KOZSID_clean_sbu_0, # of connection points: 4
#     Node 1, Type 0, BuildingBlock: KOZSID_clean_sbu_0, # of connection points: 4
#     Node 2, Type 0, BuildingBlock: KOZSID_clean_sbu_0, # of connection points: 4
#     Node 3, Type 0, BuildingBlock: KOZSID_clean_sbu_0, # of connection points: 4
#     Node 4, Type 0, BuildingBlock: KOZSID_clean_sbu_0, # of connection points: 4
#     Node 5, Type 0, BuildingBlock: KOZSID_clean_sbu_0, # of connection points: 4
#     Node 6, Type 1, BuildingBlock: NAWXER_clean_linker_0, # of connection points: 4
#     Node 7, Type 1, BuildingBlock: NAWXER_clean_linker_0, # of connection points: 4
#     Node 8, Type 1, BuildingBlock: NAWXER_clean_linker_0, # of connection points: 4
#     Node 9, Type 1, BuildingBlock: NAWXER_clean_linker_0, # of connection points: 4
#     Node 10, Type 1, BuildingBlock: NAWXER_clean_linker_0, # of connection points: 4
#     Node 11, Type 1, BuildingBlock: NAWXER_clean_linker_0, # of connection points: 4
#     Edge 12, Type (0, 1), BuildingBlock: KIFKEQ_clean_linker_1, # of connection points: 2
#     Edge 13, Type (0, 1), BuildingBlock: KIFKEQ_clean_linker_1, # of connection points: 2
#     Edge 14, Type (0, 1), BuildingBlock: KIFKEQ_clean_linker_1, # of connection points: 2
#     Edge 15, Type (0, 1), BuildingBlock: KIFKEQ_clean_linker_1, # of connection points: 2
#     Edge 16, Type (0, 1), BuildingBlock: KIFKEQ_clean_linker_1, # of connection points: 2
#     Edge 17, Type (0, 1), BuildingBlock: KIFKEQ_clean_linker_1, # of connection points: 2
#     Edge 18, Type (0, 1), BuildingBlock: KIFKEQ_clean_linker_1, # of connection points: 2
#     Edge 19, Type (0, 1), BuildingBlock: KIFKEQ_clean_linker_1, # of connection points: 2
#     Edge 20, Type (0, 1), BuildingBlock: KIFKEQ_clean_linker_1, # of connection points: 2
#     Edge 21, Type (0, 1), BuildingBlock: KIFKEQ_clean_linker_1, # of connection points: 2
#     Edge 22, Type (0, 1), BuildingBlock: KIFKEQ_clean_linker_1, # of connection points: 2
#     Edge 23, Type (0, 1), BuildingBlock: KIFKEQ_clean_linker_1, # of connection points: 2
#     Edge 24, Type (0, 1), BuildingBlock: KIFKEQ_clean_linker_1, # of connection points: 2
#     Edge 25, Type (0, 1), BuildingBlock: KIFKEQ_clean_linker_1, # of connection points: 2
#     Edge 26, Type (0, 1), BuildingBlock: KIFKEQ_clean_linker_1, # of connection points: 2
#     Edge 27, Type (0, 1), BuildingBlock: KIFKEQ_clean_linker_1, # of connection points: 2
#     Edge 28, Type (0, 1), BuildingBlock: KIFKEQ_clean_linker_1, # of connection points: 2
#     Edge 29, Type (0, 1), BuildingBlock: KIFKEQ_clean_linker_1, # of connection points: 2
#     Edge 30, Type (0, 1), BuildingBlock: KIFKEQ_clean_linker_1, # of connection points: 2
#     Edge 31, Type (0, 1), BuildingBlock: KIFKEQ_clean_linker_1, # of connection points: 2
#     Edge 32, Type (0, 1), BuildingBlock: KIFKEQ_clean_linker_1, # of connection points: 2
#     Edge 33, Type (0, 1), BuildingBlock: KIFKEQ_clean_linker_1, # of connection points: 2
#     Edge 34, Type (0, 1), BuildingBlock: KIFKEQ_clean_linker_1, # of connection points: 2
#     Edge 35, Type (0, 1), BuildingBlock: KIFKEQ_clean_linker_1, # of connection points: 2
# Relax obj value: 0.006
# Max RMSD: 0.022
# Mean RMSD: 0.013
data_MOF--net-ssa--node1-KOZSID_clean_sbu_0--node2-NAWXER_clean_linker_0--edge1-KIFKEQ_clean_linker_1
_symmetry_space_group_name_H-M    P1
_symmetry_Int_Tables_number       1
_symmetry_cell_setting            triclinic
loop_
_symmetry_equiv_pos_as_xyz
'x, y, z'
_cell_length_a     63.843723
_cell_length_b     65.197106
_cell_length_c     45.506655
_cell_angle_alpha  87.704278
_cell_angle_beta   89.988523
_cell_angle_gamma 122.16
loop_
_atom_site_label
_atom_site_type_symbol
_atom_site_fract_x
_atom_site_fract_y
_atom_site_fract_z
_atom_type_partial_charge
C0 C 0.96 0.51259 0.99522 0.0
C1 C 0.93826 0.50724 0.00932 0.0
C2 C 0.93548 0.49334 0.034 0.0
C3 C 0.95556 0.49099 0.03355 0.0
N4 N 0.97122 0.50281 0.01025 0.0
Co5 Co 0.00233 0.50365 0.00046 0.0
N6 N 0.99689 0.48121 0.03517 0.0
C7 C 0.97749 0.47069 0.05459 0.0
C8 C 0.9791 0.45644 0.0763 0.0
C9 C 0.00099 0.45818 0.07066 0.0
C10 C 0.01151 0.47352 0.04579 0.0
N11 N 0.03362 0.50476 0.99091 0.0
C12 C 0.04484 0.49501 0.006 0.0
C13 C 0.067 0.501 0.99242 0.0
C14 C 0.07003 0.51527 0.96803 0.0
C15 C 0.0497 0.51722 0.96814 0.0
N16 N 0.00755 0.5258 0.9655 0.0
C17 C 0.02667 0.53591 0.9457 0.0
C18 C 0.02469 0.54958 0.92352 0.0
C19 C 0.00278 0.54779 0.92917 0.0
C20 C 0.99265 0.53305 0.95456 0.0
N21 N 0.02143 0.53201 0.02535 0.0
C22 C 0.04999 0.57097 0.06186 0.0
C23 C 0.0572 0.57204 0.0326 0.0
C24 C 0.04284 0.55247 0.01493 0.0
C25 C 0.028 0.55035 0.07237 0.0
C26 C 0.01401 0.53135 0.05383 0.0
N27 N 0.98326 0.4753 0.97562 0.0
C28 C 0.97827 0.45563 0.92988 0.0
C29 C 0.95524 0.43589 0.93949 0.0
C30 C 0.94662 0.43608 0.96761 0.0
C31 C 0.96075 0.45581 0.9851 0.0
C32 C 0.99192 0.47491 0.9482 0.0
H33 H 0.95291 0.45498 0.00606 0.0
H34 H 0.00933 0.48936 0.93961 0.0
H35 H 0.04967 0.5542 0.99307 0.0
H36 H 0.9974 0.51625 0.06318 0.0
C37 C 0.95907 0.4761 0.05318 0.0
C38 C 0.96841 0.52569 0.96672 0.0
C39 C 0.03593 0.48113 0.03398 0.0
C40 C 0.04569 0.53138 0.94789 0.0
H41 H 0.92539 0.51229 0.0021 0.0
H42 H 0.92016 0.48518 0.04981 0.0
H43 H 0.96627 0.44658 0.09457 0.0
H44 H 0.00866 0.4496 0.08375 0.0
H45 H 0.0799 0.49602 0.99973 0.0
H46 H 0.08552 0.52372 0.95246 0.0
H47 H 0.03737 0.55923 0.90507 0.0
H48 H 0.99487 0.55601 0.91583 0.0
H49 H 0.07421 0.58765 0.02357 0.0
H50 H 0.02153 0.5489 0.09482 0.0
H51 H 0.98585 0.45615 0.90836 0.0
H52 H 0.92873 0.42131 0.9759 0.0
C53 C 0.538 0.01158 0.55134 0.0
C54 C 0.53955 0.00055 0.57726 0.0
C55 C 0.51758 0.97889 0.58098 0.0
C56 C 0.50401 0.97788 0.55713 0.0
N57 N 0.51606 0.99748 0.53824 0.0
Co58 Co 0.50328 0.00333 0.50061 0.0
N59 N 0.46984 0.97307 0.50807 0.0
C60 C 0.46225 0.95789 0.53229 0.0
C61 C 0.43841 0.93848 0.53104 0.0
C62 C 0.43032 0.94128 0.50433 0.0
C63 C 0.44979 0.96237 0.49076 0.0
N64 N 0.49089 0.00856 0.46229 0.0
C65 C 0.46922 0.99402 0.44884 0.0
C66 C 0.4685 0.00389 0.42154 0.0
C67 C 0.49074 0.02518 0.41727 0.0
C68 C 0.50367 0.02708 0.44211 0.0
N69 N 0.53635 0.03424 0.49388 0.0
C70 C 0.5433 0.05051 0.47085 0.0
C71 C 0.56643 0.07082 0.47322 0.0
C72 C 0.57464 0.06759 0.49962 0.0
C73 C 0.55599 0.0453 0.51177 0.0
N74 N 0.51483 0.98477 0.47975 0.0
C75 C 0.52896 0.95743 0.44804 0.0
C76 C 0.5382 0.98178 0.44008 0.0
C77 C 0.53085 0.99493 0.45594 0.0
C78 C 0.51294 0.94724 0.47263 0.0
C79 C 0.50639 0.96114 0.48815 0.0
N80 N 0.49177 0.0219 0.52149 0.0
C81 C 0.48673 0.0561 0.52327 0.0
C82 C 0.47903 0.05033 0.55277 0.0
C83 C 0.47704 0.02969 0.56609 0.0
C84 C 0.48319 0.01571 0.5501 0.0
C85 C 0.49307 0.04182 0.5082 0.0
H86 H 0.48116 1.00015 0.56153 0.0
H87 H 0.49939 0.04754 0.48598 0.0
H88 H 0.53823 0.01323 0.44833 0.0
H89 H 0.49416 0.9522 0.50664 0.0
C90 C 0.47896 0.9605 0.55385 0.0
C91 C 0.55731 0.03594 0.54091 0.0
C92 C 0.44908 0.97052 0.46064 0.0
C93 C 0.52767 0.04615 0.44733 0.0
H94 H 0.55474 0.00776 0.59233 0.0
H95 H 0.5118 0.96593 0.5995 0.0
H96 H 0.42851 0.92344 0.547 0.0
H97 H 0.41243 0.92869 0.49549 0.0
H98 H 0.45353 0.99633 0.40617 0.0
H99 H 0.49683 0.03767 0.39822 0.0
H100 H 0.57601 0.08632 0.45782 0.0
H101 H 0.59218 0.08043 0.50905 0.0
H102 H 0.55108 0.99081 0.42163 0.0
H103 H 0.50491 0.9284 0.47965 0.0
H104 H 0.48861 0.07201 0.5121 0.0
H105 H 0.47077 0.02434 0.58882 0.0
C106 C 0.54321 0.53279 0.95544 0.0
C107 C 0.54952 0.54841 0.93081 0.0
C108 C 0.52963 0.55036 0.92535 0.0
C109 C 0.51242 0.53592 0.94689 0.0
N110 N 0.52024 0.52513 0.96608 0.0
Co111 Co 0.50094 0.50199 1.00015 0.0
N112 N 0.47094 0.50327 0.99068 0.0
C113 C 0.46854 0.516 0.96815 0.0
C114 C 0.44601 0.5139 0.96793 0.0
C115 C 0.43335 0.49921 0.99199 0.0
C116 C 0.44896 0.49317 0.0055 0.0
N117 N 0.48165 0.47883 0.0342 0.0
C118 C 0.45866 0.47113 0.04481 0.0
C119 C 0.45232 0.45545 0.06938 0.0
C120 C 0.47222 0.4535 0.07484 0.0
C121 C 0.48945 0.46799 0.05335 0.0
N122 N 0.53095 0.50072 0.00962 0.0
C123 C 0.53337 0.48803 0.03219 0.0
C124 C 0.55592 0.49018 0.03245 0.0
C125 C 0.56858 0.50485 0.00838 0.0
C126 C 0.55294 0.51084 0.99482 0.0
N127 N 0.5124 0.52963 0.02614 0.0
C128 C 0.52583 0.56758 0.06424 0.0
C129 C 0.52654 0.54727 0.07339 0.0
C130 C 0.51997 0.52876 0.05409 0.0
C131 C 0.51881 0.56883 0.0355 0.0
C132 C 0.51216 0.5498 0.01702 0.0
N133 N 0.48947 0.47434 0.97416 0.0
C134 C 0.48291 0.43508 0.96483 0.0
C135 C 0.47562 0.43621 0.9362 0.0
C136 C 0.4749 0.45652 0.92707 0.0
C137 C 0.48169 0.47513 0.9463 0.0
C138 C 0.48978 0.4542 0.98323 0.0
H139 H 0.48071 0.49007 0.93799 0.0
H140 H 0.49562 0.4524 0.00454 0.0
H141 H 0.52093 0.51381 0.06243 0.0
H142 H 0.50652 0.55168 0.99562 0.0
C143 C 0.4883 0.53098 0.94864 0.0
C144 C 0.55922 0.52495 0.96703 0.0
C145 C 0.44267 0.479 0.03326 0.0
C146 C 0.5136 0.473 0.05165 0.0
H147 H 0.56656 0.55705 0.9178 0.0
H148 H 0.52768 0.56054 0.90735 0.0
H149 H 0.43981 0.5226 0.95261 0.0
H150 H 0.41494 0.49404 0.99919 0.0
H151 H 0.43527 0.44677 0.08236 0.0
H152 H 0.47415 0.44329 0.09281 0.0
H153 H 0.56214 0.4815 0.04779 0.0
H154 H 0.587 0.51005 0.00119 0.0
H155 H 0.53219 0.54567 0.09538 0.0
H156 H 0.51778 0.58414 0.02749 0.0
H157 H 0.48398 0.41978 0.97279 0.0
H158 H 0.46906 0.45806 0.90517 0.0
C159 C 0.95591 0.44766 0.51004 0.0
C160 C 0.93345 0.43081 0.49815 0.0
C161 C 0.93069 0.4419 0.47373 0.0
C162 C 0.95151 0.46478 0.47213 0.0
N163 N 0.9676 0.4689 0.49383 0.0
Co164 Co 0.99975 0.49992 0.50059 0.0
N165 N 0.99459 0.51689 0.46623 0.0
C166 C 0.97488 0.50757 0.44847 0.0
C167 C 0.97684 0.5235 0.42644 0.0
C168 C 0.99932 0.54416 0.43004 0.0
C169 C 0.00982 0.53953 0.45409 0.0
N170 N 0.03196 0.53092 0.50729 0.0
C171 C 0.04365 0.55217 0.49107 0.0
C172 C 0.06631 0.56886 0.50271 0.0
C173 C 0.06915 0.5577 0.527 0.0
C174 C 0.04821 0.53492 0.52877 0.0
N175 N 0.00483 0.48296 0.53507 0.0
C176 C 0.02445 0.49232 0.55299 0.0
C177 C 0.02226 0.47649 0.57531 0.0
C178 C 0.99971 0.4559 0.57176 0.0
C179 C 0.98944 0.46044 0.54741 0.0
N180 N 0.01723 0.49 0.47413 0.0
C181 C 0.044 0.47909 0.43522 0.0
C182 C 0.05241 0.48674 0.46342 0.0
C183 C 0.03891 0.49207 0.48228 0.0
C184 C 0.02153 0.47627 0.42715 0.0
C185 C 0.00852 0.48171 0.44681 0.0
N186 N 0.98229 0.50986 0.52706 0.0
C187 C 0.97884 0.52438 0.57378 0.0
C188 C 0.95619 0.52128 0.56622 0.0
C189 C 0.94707 0.51291 0.53847 0.0
C190 C 0.96027 0.50727 0.51943 0.0
C191 C 0.99155 0.51877 0.55398 0.0
H192 H 0.95208 0.5005 0.49886 0.0
H193 H 0.00869 0.52155 0.56111 0.0
H194 H 0.04658 0.49811 0.50322 0.0
H195 H 0.99167 0.47942 0.43923 0.0
C196 C 0.95557 0.48331 0.4519 0.0
C197 C 0.96459 0.44319 0.53771 0.0
C198 C 0.03473 0.55681 0.46365 0.0
C199 C 0.04398 0.51648 0.54926 0.0
H200 H 0.92012 0.41262 0.5067 0.0
H201 H 0.91499 0.43445 0.45942 0.0
H202 H 0.9638 0.52026 0.40932 0.0
H203 H 0.00737 0.5606 0.41615 0.0
H204 H 0.07973 0.58701 0.49414 0.0
H205 H 0.08494 0.56507 0.54116 0.0
H206 H 0.0352 0.47977 0.59257 0.0
H207 H 0.99148 0.43956 0.58586 0.0
H208 H 0.06942 0.48869 0.47103 0.0
H209 H 0.01426 0.47049 0.40548 0.0
H210 H 0.98679 0.53116 0.59493 0.0
H211 H 0.92947 0.51007 0.53174 0.0
C212 C 0.46375 0.99078 0.04842 0.0
C213 C 0.46273 0.00194 0.07325 0.0
C214 C 0.48472 0.02361 0.07393 0.0
C215 C 0.4978 0.02442 0.04957 0.0
N216 N 0.48535 0.00479 0.03302 0.0
Co217 Co 0.49781 0.99785 0.99656 0.0
N218 N 0.53101 0.0287 0.99898 0.0
C219 C 0.53815 0.04562 0.01937 0.0
C220 C 0.56158 0.06542 0.01454 0.0
C221 C 0.56988 0.06109 0.98937 0.0
C222 C 0.55097 0.03868 0.98034 0.0
N223 N 0.51039 0.99068 0.9604 0.0
C224 C 0.53249 0.00405 0.9458 0.0
C225 C 0.53376 0.99233 0.92168 0.0
C226 C 0.51147 0.971 0.92063 0.0
C227 C 0.49798 0.97085 0.94415 0.0
N228 N 0.4645 0.96718 0.99392 0.0
C229 C 0.45688 0.95084 0.97274 0.0
C230 C 0.43325 0.93127 0.97734 0.0
C231 C 0.42537 0.93515 0.0032 0.0
C232 C 0.44474 0.95698 0.01288 0.0
N233 N 0.48624 0.01551 0.97174 0.0
C234 C 0.4721 0.04174 0.93516 0.0
C235 C 0.46863 0.01986 0.92662 0.0
C236 C 0.47556 0.00703 0.94521 0.0
C237 C 0.48226 0.05007 0.96251 0.0
C238 C 0.48927 0.03686 0.98023 0.0
N239 N 0.50929 0.98019 0.02137 0.0
C240 C 0.50975 0.94395 0.03289 0.0
C241 C 0.52185 0.95326 0.05914 0.0
C242 C 0.52841 0.97671 0.06558 0.0
C243 C 0.52212 0.98979 0.04646 0.0
C244 C 0.50366 0.95756 0.01454 0.0
H245 H 0.52739 0.00744 0.05274 0.0
H246 H 0.49407 0.94921 0.9952 0.0
H247 H 0.47229 0.99044 0.93745 0.0
H248 H 0.49742 0.04451 0.00047 0.0
C249 C 0.52216 0.0428 0.0423 0.0
C250 C 0.44418 0.96647 0.04113 0.0
C251 C 0.55239 0.02824 0.95318 0.0
C252 C 0.47316 0.95315 0.95046 0.0
H253 H 0.4478 0.99489 0.08949 0.0
H254 H 0.4907 0.0369 0.09058 0.0
H255 H 0.57127 0.08137 0.02742 0.0
H256 H 0.58766 0.07335 0.97862 0.0
H257 H 0.54907 0.99877 0.90613 0.0
H258 H 0.50559 0.9575 0.90426 0.0
H259 H 0.4233 0.91557 0.9641 0.0
H260 H 0.40766 0.92289 0.01412 0.0
H261 H 0.46054 0.01261 0.90569 0.0
H262 H 0.48547 0.06709 0.96988 0.0
H263 H 0.50479 0.9261 0.0265 0.0
H264 H 0.53772 0.98474 0.0857 0.0
C265 C 0.51291 0.55333 0.49241 0.0
C266 C 0.50811 0.56968 0.50448 0.0
C267 C 0.49266 0.55791 0.52826 0.0
C268 C 0.4889 0.53515 0.52932 0.0
N269 N 0.50129 0.53174 0.50786 0.0
Co270 Co 0.50057 0.50122 0.50057 0.0
N271 N 0.47632 0.48334 0.53417 0.0
C272 C 0.46602 0.49201 0.55188 0.0
C273 C 0.45041 0.47554 0.57336 0.0
C274 C 0.45101 0.45523 0.56944 0.0
C275 C 0.46708 0.46057 0.54573 0.0
N276 N 0.49993 0.47072 0.49337 0.0
C277 C 0.48843 0.44918 0.50894 0.0
C278 C 0.49344 0.43291 0.49706 0.0
C279 C 0.50889 0.44468 0.47327 0.0
C280 C 0.51244 0.46737 0.47203 0.0
N281 N 0.52475 0.51908 0.4669 0.0
C282 C 0.5349 0.51036 0.44904 0.0
C283 C 0.55036 0.52677 0.42742 0.0
C284 C 0.54981 0.54711 0.43141 0.0
C285 C 0.53395 0.54184 0.45531 0.0
N286 N 0.52834 0.51113 0.52785 0.0
C287 C 0.56644 0.52274 0.56777 0.0
C288 C 0.56742 0.51548 0.53962 0.0
C289 C 0.5483 0.50973 0.52022 0.0
C290 C 0.54634 0.52456 0.57541 0.0
C291 C 0.52774 0.51886 0.55523 0.0
N292 N 0.47278 0.49126 0.47331 0.0
C293 C 0.45387 0.47629 0.42651 0.0
C294 C 0.4338 0.47815 0.43422 0.0
C295 C 0.43351 0.48657 0.46185 0.0
C296 C 0.45304 0.49305 0.48081 0.0
C297 C 0.47294 0.48278 0.44628 0.0
H298 H 0.45183 0.49967 0.5013 0.0
H299 H 0.48764 0.48086 0.43911 0.0
H300 H 0.54993 0.50386 0.49935 0.0
H301 H 0.51296 0.52064 0.56244 0.0
C302 C 0.47263 0.51616 0.54895 0.0
C303 C 0.52735 0.55865 0.46527 0.0
C304 C 0.47386 0.44383 0.53598 0.0
C305 C 0.5285 0.48628 0.45219 0.0
H306 H 0.51463 0.58803 0.4965 0.0
H307 H 0.48453 0.56487 0.54254 0.0
H308 H 0.44034 0.47822 0.59036 0.0
H309 H 0.4412 0.43854 0.58289 0.0
H310 H 0.48707 0.41463 0.50516 0.0
H311 H 0.51711 0.43776 0.45908 0.0
H312 H 0.56034 0.52407 0.41034 0.0
H313 H 0.55955 0.56378 0.41791 0.0
H314 H 0.58254 0.51359 0.53281 0.0
H315 H 0.54496 0.53042 0.59688 0.0
H316 H 0.4548 0.46967 0.40539 0.0
H317 H 0.41851 0.48866 0.46864 0.0
C318 C 0.30581 0.47183 0.18051 0.0
C319 C 0.30032 0.45502 0.15882 0.0
C320 C 0.28692 0.47038 0.19769 0.0
C321 C 0.26215 0.45183 0.19392 0.0
C322 C 0.27546 0.43679 0.15459 0.0
C323 C 0.25654 0.43527 0.17194 0.0
C324 C 0.24203 0.45042 0.21181 0.0
C325 C 0.28809 0.43716 0.27618 0.0
C326 C 0.29915 0.45472 0.29751 0.0
C327 C 0.26993 0.43626 0.25804 0.0
C328 C 0.26273 0.45307 0.26073 0.0
C329 C 0.29189 0.47151 0.30001 0.0
C330 C 0.27378 0.47058 0.28196 0.0
C331 C 0.2429 0.45202 0.24272 0.0
C332 C 0.14461 0.43799 0.27651 0.0
C333 C 0.1529 0.45545 0.298 0.0
C334 C 0.1616 0.43692 0.25821 0.0
C335 C 0.18714 0.45347 0.26088 0.0
C336 C 0.17848 0.47199 0.30047 0.0
C337 C 0.19537 0.47091 0.28224 0.0
C338 C 0.20565 0.45221 0.24278 0.0
C339 C 0.16469 0.47272 0.18078 0.0
C340 C 0.15182 0.45604 0.159 0.0
C341 C 0.18187 0.47101 0.19792 0.0
C342 C 0.18624 0.45232 0.19403 0.0
C343 C 0.15662 0.43767 0.15466 0.0
C344 C 0.17375 0.43588 0.17197 0.0
C345 C 0.20472 0.45065 0.21188 0.0
H346 H 0.32471 0.48642 0.18383 0.0
H347 H 0.29167 0.48396 0.2137 0.0
H348 H 0.27066 0.42355 0.1381 0.0
H349 H 0.23754 0.42102 0.16839 0.0
H350 H 0.29303 0.42377 0.27396 0.0
H351 H 0.26124 0.4222 0.2423 0.0
H352 H 0.30031 0.48552 0.31585 0.0
H353 H 0.2685 0.48371 0.28447 0.0
H354 H 0.12504 0.42482 0.27431 0.0
H355 H 0.15481 0.42292 0.24236 0.0
H356 H 0.18548 0.48592 0.31643 0.0
H357 H 0.21498 0.48384 0.28474 0.0
H358 H 0.16185 0.48743 0.18419 0.0
H359 H 0.19197 0.48451 0.21399 0.0
H360 H 0.14694 0.42451 0.1381 0.0
H361 H 0.17707 0.42151 0.16832 0.0
N362 N 0.22286 0.44962 0.1976 0.0
N363 N 0.22475 0.45295 0.25688 0.0
C364 C 0.84809 0.28912 0.78978 0.0
C365 C 0.84022 0.29869 0.81129 0.0
C366 C 0.83087 0.27061 0.77235 0.0
C367 C 0.80547 0.26146 0.77595 0.0
C368 C 0.81475 0.28933 0.81487 0.0
C369 C 0.79759 0.27081 0.79754 0.0
C370 C 0.78681 0.24156 0.75821 0.0
C371 C 0.83051 0.30562 0.6949 0.0
C372 C 0.84304 0.30199 0.67227 0.0
C373 C 0.8129 0.28611 0.71294 0.0
C374 C 0.80772 0.2626 0.70904 0.0
C375 C 0.83767 0.27839 0.66827 0.0
C376 C 0.82008 0.25887 0.68639 0.0
C377 C 0.78834 0.24166 0.72724 0.0
C378 C 0.68714 0.16045 0.69663 0.0
C379 C 0.69297 0.15011 0.67396 0.0
C380 C 0.70568 0.17752 0.71425 0.0
C381 C 0.73041 0.18437 0.70986 0.0
C382 C 0.71779 0.15723 0.66941 0.0
C383 C 0.73633 0.17428 0.6871 0.0
C384 C 0.75033 0.20311 0.72768 0.0
C385 C 0.7014 0.13989 0.79075 0.0
C386 C 0.69144 0.1455 0.81439 0.0
C387 C 0.7201 0.15842 0.7725 0.0
C388 C 0.72869 0.18285 0.77715 0.0
C389 C 0.70032 0.16992 0.81926 0.0
C390 C 0.71874 0.18837 0.80084 0.0
C391 C 0.74893 0.20294 0.75872 0.0
H392 H 0.86751 0.2956 0.78677 0.0
H393 H 0.83737 0.26325 0.75634 0.0
H394 H 0.80803 0.29649 0.83088 0.0
H395 H 0.77809 0.26398 0.80078 0.0
H396 H 0.8343 0.32357 0.69871 0.0
H397 H 0.80308 0.28938 0.72967 0.0
H398 H 0.84669 0.27491 0.65075 0.0
H399 H 0.81609 0.24083 0.6827 0.0
H400 H 0.6683 0.15577 0.70032 0.0
H401 H 0.70073 0.18565 0.73101 0.0
H402 H 0.72289 0.1495 0.65229 0.0
H403 H 0.75531 0.17949 0.6831 0.0
H404 H 0.6951 0.12122 0.78678 0.0
H405 H 0.72804 0.15363 0.75507 0.0
H406 H 0.69282 0.17475 0.83717 0.0
H407 H 0.72515 0.20704 0.80506 0.0
N408 N 0.76715 0.22225 0.77265 0.0
N409 N 0.77011 0.22237 0.71321 0.0
C410 C 0.5725 0.71201 0.21511 0.0
C411 C 0.55282 0.7001 0.19571 0.0
C412 C 0.57478 0.73058 0.23192 0.0
C413 C 0.55746 0.73757 0.22952 0.0
C414 C 0.53573 0.70736 0.19312 0.0
C415 C 0.53816 0.72604 0.20969 0.0
C416 C 0.55943 0.75713 0.24708 0.0
C417 C 0.53819 0.69483 0.31112 0.0
C418 C 0.55541 0.69941 0.33314 0.0
C419 C 0.5406 0.71374 0.29296 0.0
C420 C 0.56054 0.73763 0.29603 0.0
C421 C 0.57535 0.72335 0.33624 0.0
C422 C 0.57778 0.74231 0.31795 0.0
C423 C 0.56225 0.75784 0.27792 0.0
C424 C 0.53702 0.82937 0.31097 0.0
C425 C 0.55681 0.84585 0.32813 0.0
C426 C 0.53886 0.81274 0.29457 0.0
C427 C 0.56043 0.81205 0.29509 0.0
C428 C 0.57835 0.84487 0.3288 0.0
C429 C 0.58002 0.82795 0.31264 0.0
C430 C 0.56215 0.79437 0.27761 0.0
C431 C 0.57083 0.85324 0.21426 0.0
C432 C 0.55058 0.84523 0.1957 0.0
C433 C 0.57371 0.8365 0.23105 0.0
C434 C 0.55642 0.81151 0.22942 0.0
C435 C 0.53347 0.82021 0.19395 0.0
C436 C 0.53648 0.80351 0.21048 0.0
C437 C 0.5591 0.79349 0.2469 0.0
H438 H 0.58592 0.70676 0.21755 0.0
H439 H 0.5901 0.73953 0.2467 0.0
H440 H 0.52061 0.69876 0.17803 0.0
H441 H 0.5247 0.73126 0.20731 0.0
H442 H 0.52274 0.67658 0.30796 0.0
H443 H 0.52657 0.70971 0.27687 0.0
H444 H 0.58873 0.72752 0.35326 0.0
H445 H 0.59307 0.76067 0.32101 0.0
H446 H 0.51989 0.82904 0.31046 0.0
H447 H 0.52331 0.80025 0.28162 0.0
H448 H 0.59407 0.85739 0.34147 0.0
H449 H 0.59677 0.82757 0.31338 0.0
H450 H 0.58427 0.87244 0.216 0.0
H451 H 0.5895 0.84306 0.24513 0.0
H452 H 0.51789 0.81353 0.17949 0.0
H453 H 0.52304 0.78431 0.20875 0.0
N454 N 0.55778 0.77489 0.23281 0.0
N455 N 0.56368 0.77656 0.29201 0.0
C456 C 0.85511 0.562 0.72369 0.0
C457 C 0.84695 0.54265 0.70495 0.0
C458 C 0.83812 0.56365 0.74125 0.0
C459 C 0.81272 0.54601 0.74023 0.0
C460 C 0.82151 0.52514 0.7039 0.0
C461 C 0.80455 0.52694 0.72118 0.0
C462 C 0.79436 0.54762 0.75808 0.0
C463 C 0.83692 0.52956 0.82055 0.0
C464 C 0.85019 0.54699 0.84145 0.0
C465 C 0.81931 0.53059 0.80349 0.0
C466 C 0.81487 0.54932 0.80656 0.0
C467 C 0.84533 0.56543 0.84498 0.0
C468 C 0.82777 0.56653 0.82775 0.0
C469 C 0.79591 0.55024 0.78882 0.0
C470 C 0.69522 0.52984 0.82093 0.0
C471 C 0.70099 0.54728 0.84183 0.0
C472 C 0.7139 0.53079 0.80385 0.0
C473 C 0.73872 0.54947 0.8069 0.0
C474 C 0.72591 0.56564 0.8454 0.0
C475 C 0.74462 0.56667 0.82813 0.0
C476 C 0.75858 0.55037 0.78899 0.0
C477 C 0.71202 0.56264 0.72482 0.0
C478 C 0.69904 0.54347 0.70585 0.0
C479 C 0.73087 0.56411 0.74207 0.0
C480 C 0.73706 0.54647 0.74055 0.0
C481 C 0.70545 0.52599 0.70424 0.0
C482 C 0.72441 0.5276 0.72124 0.0
C483 C 0.75715 0.54782 0.75824 0.0
H484 H 0.87463 0.57572 0.72492 0.0
H485 H 0.84478 0.57876 0.75543 0.0
H486 H 0.81469 0.51023 0.68935 0.0
H487 H 0.78502 0.51327 0.71987 0.0
H488 H 0.83978 0.51479 0.81779 0.0
H489 H 0.80891 0.5165 0.78817 0.0
H490 H 0.8553 0.57916 0.86085 0.0
H491 H 0.82441 0.58095 0.83077 0.0
H492 H 0.67628 0.51513 0.81816 0.0
H493 H 0.70892 0.51672 0.78849 0.0
H494 H 0.73091 0.57935 0.86131 0.0
H495 H 0.76368 0.58104 0.83113 0.0
H496 H 0.70744 0.57634 0.72649 0.0
H497 H 0.74071 0.57908 0.75643 0.0
H498 H 0.69602 0.51124 0.68949 0.0
H499 H 0.72905 0.51393 0.71954 0.0
N500 N 0.77499 0.54639 0.74404 0.0
N501 N 0.77802 0.55167 0.80309 0.0
C502 C 0.1717 0.70007 0.21904 0.0
C503 C 0.16187 0.70576 0.19471 0.0
C504 C 0.1887 0.71831 0.23684 0.0
C505 C 0.19565 0.74253 0.2312 0.0
C506 C 0.16919 0.73002 0.18869 0.0
C507 C 0.18591 0.74822 0.20678 0.0
C508 C 0.21448 0.76226 0.2491 0.0
C509 C 0.15174 0.71149 0.31165 0.0
C510 C 0.1584 0.70027 0.33353 0.0
C511 C 0.16995 0.73129 0.29438 0.0
C512 C 0.19512 0.74006 0.29849 0.0
C513 C 0.18363 0.70955 0.33807 0.0
C514 C 0.20178 0.7293 0.32082 0.0
C515 C 0.21476 0.76069 0.28018 0.0
C516 C 0.30188 0.85956 0.30913 0.0
C517 C 0.31177 0.85227 0.33194 0.0
C518 C 0.28276 0.84233 0.29216 0.0
C519 C 0.27341 0.81749 0.29735 0.0
C520 C 0.30186 0.82734 0.33754 0.0
C521 C 0.28289 0.81018 0.32049 0.0
C522 C 0.25325 0.79882 0.27963 0.0
C523 C 0.31702 0.84303 0.21508 0.0
C524 C 0.31208 0.8546 0.19181 0.0
C525 C 0.29792 0.82576 0.23394 0.0
C526 C 0.27355 0.81996 0.23016 0.0
C527 C 0.28766 0.84879 0.18816 0.0
C528 C 0.26858 0.83153 0.20705 0.0
C529 C 0.25289 0.80046 0.24858 0.0
H530 H 0.16677 0.68158 0.22382 0.0
H531 H 0.19675 0.71348 0.25466 0.0
H532 H 0.16188 0.73489 0.17006 0.0
H533 H 0.19127 0.76679 0.20166 0.0
H534 H 0.13246 0.70474 0.30758 0.0
H535 H 0.16437 0.73968 0.27775 0.0
H536 H 0.18939 0.70164 0.35512 0.0
H537 H 0.22108 0.73595 0.32465 0.0
H538 H 0.30909 0.87859 0.30414 0.0
H539 H 0.27528 0.84846 0.27505 0.0
H540 H 0.30861 0.82102 0.35533 0.0
H541 H 0.27575 0.79112 0.32523 0.0
H542 H 0.33564 0.84719 0.2186 0.0
H543 H 0.30214 0.8166 0.25109 0.0
H544 H 0.28317 0.85708 0.17019 0.0
H545 H 0.24985 0.82706 0.20346 0.0
N546 N 0.23347 0.78221 0.23462 0.0
N547 N 0.23421 0.77894 0.29412 0.0
C548 C 0.42747 0.14862 0.78716 0.0
C549 C 0.44651 0.15562 0.80737 0.0
C550 C 0.42596 0.16615 0.77025 0.0
C551 C 0.4434 0.19092 0.77344 0.0
C552 C 0.46361 0.18041 0.8109 0.0
C553 C 0.46193 0.1979 0.79427 0.0
C554 C 0.44254 0.20975 0.75534 0.0
C555 C 0.46601 0.17251 0.69539 0.0
C556 C 0.45085 0.16174 0.6712 0.0
C557 C 0.46304 0.1881 0.71254 0.0
C558 C 0.4443 0.19273 0.70661 0.0
C559 C 0.43242 0.16683 0.66489 0.0
C560 C 0.42923 0.18219 0.68238 0.0
C561 C 0.44154 0.20983 0.7243 0.0
C562 C 0.46183 0.30869 0.69161 0.0
C563 C 0.44451 0.3034 0.66951 0.0
C564 C 0.46054 0.29009 0.70939 0.0
C565 C 0.44164 0.26585 0.7058 0.0
C566 C 0.42582 0.27908 0.66563 0.0
C567 C 0.42446 0.26046 0.68358 0.0
C568 C 0.44064 0.24599 0.72391 0.0
C569 C 0.42835 0.29087 0.78636 0.0
C570 C 0.44791 0.30292 0.80587 0.0
C571 C 0.42629 0.27231 0.76971 0.0
C572 C 0.44373 0.26549 0.77242 0.0
C573 C 0.46506 0.29576 0.80883 0.0
C574 C 0.46286 0.2771 0.79244 0.0
C575 C 0.44223 0.24615 0.75488 0.0
H576 H 0.41407 0.12961 0.78406 0.0
H577 H 0.41126 0.1604 0.75463 0.0
H578 H 0.47825 0.18627 0.82662 0.0
H579 H 0.47543 0.21692 0.79723 0.0
H580 H 0.48023 0.16891 0.70122 0.0
H581 H 0.47568 0.19675 0.73026 0.0
H582 H 0.42072 0.15929 0.64612 0.0
H583 H 0.41499 0.18588 0.67696 0.0
H584 H 0.47679 0.32719 0.69468 0.0
H585 H 0.47461 0.29466 0.72561 0.0
H586 H 0.41217 0.27446 0.64884 0.0
H587 H 0.40991 0.24185 0.68019 0.0
H588 H 0.41489 0.29604 0.78365 0.0
H589 H 0.41112 0.26329 0.75475 0.0
H590 H 0.48009 0.30447 0.82404 0.0
H591 H 0.47639 0.27199 0.79506 0.0
N592 N 0.44314 0.22804 0.76936 0.0
N593 N 0.4403 0.2278 0.70982 0.0
H594 H 0.06188 0.5059 0.08078 0.0
H595 H 0.04713 0.44663 0.02756 0.0
H596 H 0.08951 0.49909 0.111 0.0
H597 H 0.07432 0.43921 0.05808 0.0
H598 H 0.14608 0.4519 0.09948 0.0
H599 H 0.11769 0.45731 0.06915 0.0
H600 H 0.08825 0.47022 0.14688 0.0
H601 H 0.11678 0.46504 0.17708 0.0
C602 C 0.0646 0.49135 0.07574 0.0
C603 C 0.05265 0.47681 0.052 0.0
C604 C 0.08022 0.48731 0.09308 0.0
C605 C 0.08409 0.46854 0.08703 0.0
C606 C 0.07199 0.45398 0.06313 0.0
C607 C 0.05638 0.45809 0.04576 0.0
C608 C 0.13335 0.45563 0.11009 0.0
C609 C 0.13376 0.45817 0.14065 0.0
C610 C 0.11707 0.45872 0.09272 0.0
C611 C 0.10078 0.46434 0.10555 0.0
C612 C 0.10088 0.46639 0.1362 0.0
C613 C 0.1172 0.46338 0.15353 0.0
H614 H 0.55344 0.05743 0.58858 0.0
H615 H 0.60579 0.04983 0.538 0.0
H616 H 0.58637 0.08447 0.62119 0.0
H617 H 0.63887 0.07657 0.57076 0.0
H618 H 0.64621 0.11278 0.6902 0.0
H619 H 0.61356 0.08445 0.65853 0.0
H620 H 0.66251 0.11911 0.5826 0.0
H621 H 0.69513 0.14741 0.61425 0.0
C622 C 0.57206 0.06153 0.58468 0.0
C623 C 0.57731 0.05184 0.56089 0.0
C624 C 0.59087 0.07685 0.60335 0.0
C625 C 0.61528 0.08272 0.59857 0.0
C626 C 0.62036 0.0727 0.57481 0.0
C627 C 0.60151 0.05735 0.55617 0.0
C628 C 0.64996 0.11443 0.66673 0.0
C629 C 0.67328 0.13239 0.65477 0.0
C630 C 0.63124 0.09819 0.64857 0.0
C631 C 0.6354 0.09953 0.61801 0.0
C632 C 0.6588 0.11734 0.60609 0.0
C633 C 0.67751 0.13357 0.62425 0.0
H634 H 0.55424 0.6167 0.05323 0.0
H635 H 0.51022 0.56219 0.12147 0.0
H636 H 0.56181 0.6485 0.08628 0.0
H637 H 0.51809 0.59397 0.15463 0.0
H638 H 0.51072 0.65628 0.18762 0.0
H639 H 0.50548 0.62417 0.15675 0.0
H640 H 0.58338 0.6667 0.13319 0.0
H641 H 0.58856 0.69903 0.16387 0.0
C642 C 0.54628 0.61154 0.07532 0.0
C643 C 0.53159 0.58696 0.08474 0.0
C644 C 0.55079 0.62973 0.09431 0.0
C645 C 0.54051 0.62371 0.12302 0.0
C646 C 0.5261 0.59914 0.13255 0.0
C647 C 0.52178 0.58097 0.11366 0.0
C648 C 0.52671 0.65876 0.17583 0.0
C649 C 0.55003 0.68018 0.17805 0.0
C650 C 0.52376 0.6403 0.15838 0.0
C651 C 0.54402 0.64293 0.14256 0.0
C652 C 0.56741 0.66426 0.14498 0.0
C653 C 0.57041 0.68265 0.1627 0.0
H654 H 0.94706 0.50731 0.62445 0.0
H655 H 0.9328 0.54577 0.55589 0.0
H656 H 0.92226 0.51385 0.65925 0.0
H657 H 0.90774 0.55208 0.59067 0.0
H658 H 0.88456 0.57824 0.66988 0.0
H659 H 0.91254 0.57434 0.63706 0.0
H660 H 0.87703 0.49869 0.66475 0.0
H661 H 0.84927 0.50264 0.69764 0.0
C662 C 0.9388 0.51735 0.61691 0.0
C663 C 0.94183 0.52603 0.58747 0.0
C664 C 0.92446 0.52092 0.63675 0.0
C665 C 0.91306 0.53343 0.62763 0.0
C666 C 0.91648 0.54253 0.59834 0.0
C667 C 0.93062 0.53874 0.5784 0.0
C668 C 0.88296 0.56088 0.66914 0.0
C669 C 0.86474 0.54072 0.68621 0.0
C670 C 0.8988 0.5586 0.65022 0.0
C671 C 0.89691 0.53621 0.64835 0.0
C672 C 0.87903 0.51621 0.66592 0.0
C673 C 0.86304 0.51842 0.68455 0.0
H674 H 0.44964 0.94451 0.08963 0.0
H675 H 0.39594 0.95338 0.04319 0.0
H676 H 0.41819 0.91836 0.12731 0.0
H677 H 0.36414 0.92681 0.08042 0.0
H678 H 0.32057 0.89775 0.16805 0.0
H679 H 0.35275 0.92543 0.13214 0.0
H680 H 0.38083 0.87803 0.13179 0.0
H681 H 0.34874 0.85043 0.16759 0.0
C682 C 0.43099 0.94069 0.08759 0.0
C683 C 0.42494 0.95062 0.06367 0.0
C684 C 0.41299 0.92569 0.10896 0.0
C685 C 0.38863 0.92043 0.10679 0.0
C686 C 0.38277 0.93071 0.08289 0.0
C687 C 0.40081 0.94571 0.0615 0.0
C688 C 0.33357 0.89322 0.16021 0.0
C689 C 0.33211 0.87191 0.17072 0.0
C690 C 0.35198 0.90905 0.13963 0.0
C691 C 0.36934 0.90393 0.12911 0.0
C692 C 0.36799 0.88271 0.1398 0.0
C693 C 0.3496 0.8669 0.16035 0.0
H694 H 0.43725 0.39651 0.53089 0.0
H695 H 0.49822 0.44428 0.58473 0.0
H696 H 0.4282 0.3618 0.5637 0.0
H697 H 0.48976 0.40978 0.61728 0.0
H698 H 0.45366 0.34734 0.68537 0.0
H699 H 0.45937 0.38087 0.65323 0.0
H700 H 0.44594 0.33785 0.57756 0.0
H701 H 0.44002 0.30425 0.60978 0.0
C702 C 0.4487 0.39941 0.54976 0.0
C703 C 0.4684 0.42277 0.55549 0.0
C704 C 0.44366 0.37966 0.56843 0.0
C705 C 0.45824 0.38303 0.59313 0.0
C706 C 0.47794 0.40659 0.59873 0.0
C707 C 0.48293 0.42629 0.58009 0.0
C708 C 0.45194 0.34508 0.66187 0.0
C709 C 0.44651 0.32322 0.65009 0.0
C710 C 0.45525 0.36428 0.64345 0.0
C711 C 0.45329 0.3621 0.61281 0.0
C712 C 0.44729 0.34003 0.60109 0.0
C713 C 0.44391 0.32078 0.61954 0.0
H714 H 0.53718 0.96033 0.38829 0.0
H715 H 0.53533 0.92067 0.46774 0.0
H716 H 0.5467 0.93565 0.35957 0.0
H717 H 0.54269 0.8946 0.43871 0.0
H718 H 0.57531 0.86252 0.38263 0.0
H719 H 0.5713 0.89123 0.41075 0.0
H720 H 0.52794 0.897 0.3417 0.0
H721 H 0.53373 0.87 0.31263 0.0
C722 C 0.53888 0.94643 0.39974 0.0
C723 C 0.5354 0.94258 0.43047 0.0
C724 C 0.54394 0.93192 0.38312 0.0
C725 C 0.54527 0.91287 0.39666 0.0
C726 C 0.54211 0.90922 0.42743 0.0
C727 C 0.53743 0.92398 0.44411 0.0
C728 C 0.56535 0.87028 0.37315 0.0
C729 C 0.55478 0.86377 0.34531 0.0
C730 C 0.5627 0.88651 0.38954 0.0
C731 C 0.54915 0.89644 0.3787 0.0
C732 C 0.5388 0.89008 0.35073 0.0
C733 C 0.54175 0.87416 0.33419 0.0
H734 H 0.60793 0.55982 0.97247 0.0
H735 H 0.55789 0.49942 0.92094 0.0
H736 H 0.64296 0.56682 0.94179 0.0
H737 H 0.59268 0.50581 0.89059 0.0
H738 H 0.65622 0.5384 0.82383 0.0
H739 H 0.62245 0.5341 0.854 0.0
H740 H 0.66662 0.54853 0.93135 0.0
H741 H 0.70053 0.55308 0.90104 0.0
C742 C 0.6046 0.54803 0.95459 0.0
C743 C 0.58049 0.52911 0.94886 0.0
C744 C 0.62454 0.55191 0.93714 0.0
C745 C 0.62063 0.5369 0.91368 0.0
C746 C 0.59633 0.51794 0.90814 0.0
C747 C 0.57644 0.51414 0.92555 0.0
C748 C 0.65869 0.54061 0.84729 0.0
C749 C 0.68098 0.54594 0.86008 0.0
C750 C 0.63932 0.5381 0.8646 0.0
C751 C 0.64174 0.54078 0.89514 0.0
C752 C 0.66424 0.54662 0.90785 0.0
C753 C 0.68367 0.54921 0.8905 0.0
H754 H 0.0512 0.60445 0.46988 0.0
H755 H 0.05628 0.55597 0.41289 0.0
H756 H 0.08044 0.63917 0.43749 0.0
H757 H 0.08503 0.5904 0.38 0.0
H758 H 0.15781 0.65916 0.34956 0.0
H759 H 0.12736 0.62469 0.38064 0.0
H760 H 0.08456 0.65796 0.38847 0.0
H761 H 0.1156 0.69296 0.35818 0.0
C762 C 0.05857 0.60136 0.45027 0.0
C763 C 0.05187 0.57781 0.4438 0.0
C764 C 0.0751 0.6211 0.43164 0.0
C765 C 0.08513 0.61755 0.40621 0.0
C766 C 0.07795 0.5938 0.39962 0.0
C767 C 0.06146 0.57411 0.41826 0.0
C768 C 0.142 0.65922 0.35809 0.0
C769 C 0.13921 0.67887 0.35154 0.0
C770 C 0.12439 0.63932 0.37562 0.0
C771 C 0.10351 0.63856 0.38702 0.0
C772 C 0.10057 0.6581 0.38026 0.0
C773 C 0.1182 0.67803 0.36266 0.0
H774 H 0.48466 0.05368 0.87706 0.0
H775 H 0.44618 0.06273 0.94849 0.0
H776 H 0.4769 0.07969 0.84473 0.0
H777 H 0.43841 0.08878 0.91612 0.0
H778 H 0.41031 0.11578 0.83899 0.0
H779 H 0.41481 0.08633 0.86903 0.0
H780 H 0.49246 0.12482 0.84451 0.0
H781 H 0.48797 0.15415 0.81459 0.0
C782 C 0.47429 0.06101 0.8857 0.0
C783 C 0.46605 0.05627 0.91524 0.0
C784 C 0.47 0.07598 0.8673 0.0
C785 C 0.45711 0.08624 0.87799 0.0
C786 C 0.44825 0.08096 0.9073 0.0
C787 C 0.45284 0.06624 0.92584 0.0
C788 C 0.42825 0.11776 0.83989 0.0
C789 C 0.44882 0.13723 0.82462 0.0
C790 C 0.43085 0.10105 0.85717 0.0
C791 C 0.45397 0.10334 0.85903 0.0
C792 C 0.47439 0.12254 0.84325 0.0
C793 C 0.47187 0.1394 0.82635 0.0
H794 H 0.38405 0.45211 0.44632 0.0
H795 H 0.43777 0.49009 0.37532 0.0
H796 H 0.35082 0.44385 0.41299 0.0
H797 H 0.4046 0.4822 0.34201 0.0
H798 H 0.33735 0.44865 0.28388 0.0
H799 H 0.36904 0.45146 0.31658 0.0
H800 H 0.33569 0.46646 0.38852 0.0
H801 H 0.30353 0.46253 0.35631 0.0
C802 C 0.38874 0.45873 0.42358 0.0
C803 C 0.41352 0.47188 0.41348 0.0
C804 C 0.36971 0.45404 0.40447 0.0
C805 C 0.37503 0.46252 0.37485 0.0
C806 C 0.39979 0.47513 0.36458 0.0
C807 C 0.41882 0.47971 0.38367 0.0
C808 C 0.3366 0.45218 0.30679 0.0
C809 C 0.318 0.45552 0.31743 0.0
C810 C 0.35491 0.45405 0.32545 0.0
C811 C 0.35497 0.45926 0.35517 0.0
C812 C 0.33608 0.46215 0.36587 0.0
C813 C 0.31781 0.46023 0.34727 0.0
H814 H 0.94656 0.43827 0.88101 0.0
H815 H 0.92953 0.38734 0.95445 0.0
H816 H 0.91988 0.40484 0.84995 0.0
H817 H 0.90319 0.35383 0.92334 0.0
H818 H 0.83563 0.30354 0.87002 0.0
H819 H 0.86418 0.33651 0.90026 0.0
H820 H 0.91521 0.37059 0.82594 0.0
H821 H 0.88596 0.33818 0.7952 0.0
C822 C 0.93739 0.41989 0.89039 0.0
C823 C 0.94005 0.41544 0.9202 0.0
C824 C 0.92213 0.4007 0.87258 0.0
C825 C 0.90927 0.3766 0.88414 0.0
C826 C 0.91241 0.37217 0.91383 0.0
C827 C 0.92754 0.39136 0.93167 0.0
C828 C 0.85283 0.31817 0.86001 0.0
C829 C 0.85838 0.31827 0.83008 0.0
C830 C 0.8694 0.33694 0.8775 0.0
C831 C 0.89205 0.35625 0.86559 0.0
C832 C 0.89781 0.35617 0.83576 0.0
C833 C 0.88116 0.33742 0.81821 0.0
H834 H 0.95746 0.56051 0.97171 0.0
H835 H 0.94149 0.49948 0.92125 0.0
H836 H 0.92974 0.56707 0.94107 0.0
H837 H 0.91334 0.50544 0.89093 0.0
H838 H 0.88497 0.53756 0.82365 0.0
H839 H 0.91408 0.53333 0.85388 0.0
H840 H 0.88612 0.54868 0.93097 0.0
H841 H 0.85714 0.55313 0.9006 0.0
C842 C 0.94782 0.54848 0.95409 0.0
C843 C 0.95135 0.5295 0.94866 0.0
C844 C 0.93191 0.5521 0.93666 0.0
C845 C 0.91933 0.5368 0.91349 0.0
C846 C 0.92301 0.51779 0.90825 0.0
C847 C 0.93892 0.51422 0.92565 0.0
C848 C 0.885 0.53996 0.84707 0.0
C849 C 0.86867 0.54556 0.85975 0.0
C850 C 0.90165 0.5375 0.86441 0.0
C851 C 0.90233 0.54049 0.8949 0.0
C852 C 0.8863 0.54653 0.90751 0.0
C853 C 0.86968 0.54907 0.89012 0.0
H854 H 0.45296 0.94771 0.4144 0.0
H855 H 0.40054 0.95669 0.46272 0.0
H856 H 0.42027 0.92028 0.38192 0.0
H857 H 0.3674 0.92852 0.43109 0.0
H858 H 0.31843 0.89435 0.35248 0.0
H859 H 0.35203 0.9239 0.38214 0.0
H860 H 0.38448 0.88022 0.383 0.0
H861 H 0.35173 0.85146 0.3521 0.0
C862 C 0.43432 0.94364 0.41803 0.0
C863 C 0.42905 0.954 0.44102 0.0
C864 C 0.41556 0.92784 0.39964 0.0
C865 C 0.39112 0.92202 0.40398 0.0
C866 C 0.38603 0.93277 0.42688 0.0
C867 C 0.40487 0.9487 0.44515 0.0
C868 C 0.33293 0.89124 0.35864 0.0
C869 C 0.33231 0.87048 0.3499 0.0
C870 C 0.35204 0.90803 0.37599 0.0
C871 C 0.37097 0.90445 0.38506 0.0
C872 C 0.3704 0.88376 0.37616 0.0
C873 C 0.35139 0.86705 0.35874 0.0
H874 H 0.44713 0.38714 0.94757 0.0
H875 H 0.49065 0.4413 0.87878 0.0
H876 H 0.43918 0.35515 0.91463 0.0
H877 H 0.48241 0.40933 0.84575 0.0
H878 H 0.4899 0.3469 0.81338 0.0
H879 H 0.49514 0.3792 0.84387 0.0
H880 H 0.41732 0.33664 0.86783 0.0
H881 H 0.41213 0.30412 0.83748 0.0
C882 C 0.45489 0.39218 0.92537 0.0
C883 C 0.46957 0.41671 0.91577 0.0
C884 C 0.45016 0.37388 0.90645 0.0
C885 C 0.46021 0.37975 0.87764 0.0
C886 C 0.47457 0.40427 0.86791 0.0
C887 C 0.47911 0.42255 0.88673 0.0
C888 C 0.47392 0.34446 0.82516 0.0
C889 C 0.45063 0.32297 0.82318 0.0
C890 C 0.47687 0.36302 0.84239 0.0
C891 C 0.45664 0.36043 0.85823 0.0
C892 C 0.43326 0.33905 0.85601 0.0
C893 C 0.43026 0.32055 0.83849 0.0
H894 H 0.09419 0.5056 0.42688 0.0
H895 H 0.02775 0.44291 0.39597 0.0
H896 H 0.1191 0.49816 0.39381 0.0
H897 H 0.05287 0.4357 0.36239 0.0
H898 H 0.10854 0.45055 0.28474 0.0
H899 H 0.08103 0.45501 0.31765 0.0
H900 H 0.12989 0.46711 0.38954 0.0
H901 H 0.15715 0.46244 0.35693 0.0
C902 C 0.08489 0.49009 0.41322 0.0
C903 C 0.05897 0.4747 0.41433 0.0
C904 C 0.09919 0.48586 0.39422 0.0
C905 C 0.08795 0.46622 0.3757 0.0
C906 C 0.06201 0.45106 0.3763 0.0
C907 C 0.04765 0.45522 0.39549 0.0
C908 C 0.1132 0.45382 0.30767 0.0
C909 C 0.13519 0.45646 0.31814 0.0
C910 C 0.09746 0.45639 0.32648 0.0
C911 C 0.10348 0.46171 0.35607 0.0
C912 C 0.12504 0.46354 0.3667 0.0
C913 C 0.14067 0.4609 0.34799 0.0
H914 H 0.60081 0.04247 0.95817 0.0
H915 H 0.55006 0.04711 0.89999 0.0
H916 H 0.63524 0.06895 0.92362 0.0
H917 H 0.58428 0.07345 0.86529 0.0
H918 H 0.64915 0.10402 0.79902 0.0
H919 H 0.61569 0.07335 0.83182 0.0
H920 H 0.65623 0.11287 0.907 0.0
H921 H 0.68965 0.14331 0.87431 0.0
C922 C 0.59713 0.04913 0.93786 0.0
C923 C 0.57305 0.04311 0.93166 0.0
C924 C 0.61672 0.06424 0.91818 0.0
C925 C 0.61242 0.0733 0.89182 0.0
C926 C 0.5881 0.06656 0.88528 0.0
C927 C 0.56859 0.05164 0.9051 0.0
C928 C 0.65099 0.10593 0.82257 0.0
C929 C 0.67189 0.12608 0.83415 0.0
C930 C 0.63181 0.08851 0.8413 0.0
C931 C 0.63335 0.09077 0.87194 0.0
C932 C 0.65461 0.11055 0.8835 0.0
C933 C 0.67363 0.12807 0.8648 0.0
H934 H 0.56496 0.60581 0.46857 0.0
H935 H 0.50114 0.5581 0.41841 0.0
H936 H 0.57254 0.64056 0.43675 0.0
H937 H 0.50867 0.59253 0.38629 0.0
H938 H 0.51236 0.66241 0.35878 0.0
H939 H 0.50636 0.6287 0.39057 0.0
H940 H 0.58482 0.6572 0.38525 0.0
H941 H 0.59085 0.691 0.35313 0.0
C942 C 0.55271 0.6029 0.45057 0.0
C943 C 0.53247 0.57959 0.44576 0.0
C944 C 0.55705 0.62263 0.43233 0.0
C945 C 0.54113 0.61927 0.40911 0.0
C946 C 0.52104 0.59575 0.40425 0.0
C947 C 0.51678 0.57607 0.42242 0.0
C948 C 0.52832 0.66139 0.36413 0.0
C949 C 0.55206 0.67928 0.3532 0.0
C950 C 0.52487 0.64208 0.38238 0.0
C951 C 0.54509 0.6402 0.39024 0.0
C952 C 0.56891 0.65828 0.37976 0.0
C953 C 0.57236 0.67763 0.3614 0.0
H954 H 0.45082 0.06899 0.5372 0.0
H955 H 0.49607 0.06757 0.60677 0.0
H956 H 0.44343 0.09597 0.56529 0.0
H957 H 0.48876 0.09452 0.63471 0.0
H958 H 0.49462 0.16617 0.65543 0.0
H959 H 0.50063 0.13878 0.62701 0.0
H960 H 0.42189 0.09379 0.61491 0.0
H961 H 0.41556 0.12062 0.64444 0.0
C962 C 0.45916 0.07446 0.55847 0.0
C963 C 0.47398 0.06619 0.56986 0.0
C964 C 0.45482 0.08974 0.57458 0.0
C965 C 0.46558 0.09735 0.60211 0.0
C966 C 0.48039 0.08906 0.61345 0.0
C967 C 0.48441 0.07352 0.59759 0.0
C968 C 0.47848 0.15028 0.64715 0.0
C969 C 0.45455 0.14555 0.65259 0.0
C970 C 0.48199 0.13467 0.63071 0.0
C971 C 0.46172 0.11414 0.6189 0.0
C972 C 0.43785 0.10962 0.62362 0.0
C973 C 0.43427 0.12506 0.64044 0.0
H974 H 0.44394 0.50388 0.08006 0.0
H975 H 0.39392 0.44457 0.02712 0.0
H976 H 0.40907 0.49725 0.11047 0.0
H977 H 0.35881 0.43733 0.05782 0.0
H978 H 0.30133 0.45071 0.09933 0.0
H979 H 0.3354 0.45577 0.0689 0.0
H980 H 0.37895 0.46842 0.14649 0.0
H981 H 0.34499 0.46358 0.17679 0.0
C982 C 0.42537 0.48936 0.07514 0.0
C983 C 0.42135 0.47475 0.05142 0.0
C984 C 0.40544 0.48542 0.09258 0.0
C985 C 0.38113 0.4667 0.08664 0.0
C986 C 0.37725 0.45207 0.06277 0.0
C987 C 0.39723 0.45607 0.04531 0.0
C988 C 0.31809 0.4543 0.10989 0.0
C989 C 0.32053 0.45688 0.14043 0.0
C990 C 0.33761 0.45719 0.09246 0.0
C991 C 0.35997 0.46265 0.10522 0.0
C992 C 0.36218 0.46471 0.13587 0.0
C993 C 0.34271 0.4619 0.15325 0.0
H994 H 0.93955 0.44397 0.58516 0.0
H995 H 0.95101 0.39605 0.53475 0.0
H996 H 0.91052 0.40977 0.61821 0.0
H997 H 0.92169 0.36156 0.56745 0.0
H998 H 0.8878 0.31165 0.65118 0.0
H999 H 0.91751 0.34568 0.61869 0.0
H1000 H 0.86904 0.3731 0.61623 0.0
H1001 H 0.83932 0.33908 0.64847 0.0
C1002 C 0.93571 0.426 0.58126 0.0
C1003 C 0.94722 0.42237 0.5576 0.0
C1004 C 0.91907 0.40645 0.59998 0.0
C1005 C 0.91373 0.38294 0.59536 0.0
C1006 C 0.92558 0.37947 0.57173 0.0
C1007 C 0.94219 0.39906 0.55296 0.0
C1008 C 0.8834 0.32483 0.6435 0.0
C1009 C 0.86122 0.32268 0.65252 0.0
C1010 C 0.90043 0.34433 0.6249 0.0
C1011 C 0.89566 0.36212 0.61497 0.0
C1012 C 0.87345 0.35992 0.62391 0.0
C1013 C 0.85643 0.34043 0.64242 0.0
H1014 H 0.56288 0.96776 0.0926 0.0
H1015 H 0.49183 0.90479 0.07314 0.0
H1016 H 0.57016 0.943 0.12763 0.0
H1017 H 0.49969 0.87991 0.10672 0.0
H1018 H 0.50839 0.84562 0.18957 0.0
H1019 H 0.50205 0.87285 0.15803 0.0
H1020 H 0.5789 0.91127 0.12944 0.0
H1021 H 0.58528 0.88428 0.16166 0.0
C1022 C 0.54883 0.94865 0.09576 0.0
C1023 C 0.52679 0.93827 0.08 0.0
C1024 C 0.55312 0.93441 0.11559 0.0
C1025 C 0.53548 0.90946 0.12006 0.0
C1026 C 0.51352 0.89912 0.10419 0.0
C1027 C 0.50918 0.91334 0.08454 0.0
C1028 C 0.52391 0.85993 0.17656 0.0
C1029 C 0.54727 0.86276 0.17787 0.0
C1030 C 0.52029 0.87548 0.15842 0.0
C1031 C 0.5399 0.89409 0.14092 0.0
C1032 C 0.56345 0.8973 0.14283 0.0
C1033 C 0.56712 0.88183 0.16121 0.0
H1034 H 0.56008 0.50754 0.62565 0.0
H1035 H 0.61661 0.54885 0.55832 0.0
H1036 H 0.59189 0.51403 0.66056 0.0
H1037 H 0.64841 0.55504 0.59313 0.0
H1038 H 0.6997 0.57951 0.67219 0.0
H1039 H 0.66734 0.57595 0.63993 0.0
H1040 H 0.6212 0.49978 0.66547 0.0
H1041 H 0.65335 0.50341 0.6979 0.0
C1042 C 0.57932 0.51821 0.61841 0.0
C1043 C 0.58587 0.52766 0.58925 0.0
C1044 C 0.5975 0.52174 0.63831 0.0
C1045 C 0.62261 0.53498 0.62954 0.0
C1046 C 0.62921 0.54492 0.60057 0.0
C1047 C 0.61102 0.54119 0.58059 0.0
C1048 C 0.68251 0.5621 0.67113 0.0
C1049 C 0.67904 0.54172 0.68746 0.0
C1050 C 0.66411 0.56002 0.65252 0.0
C1051 C 0.64178 0.53758 0.65016 0.0
C1052 C 0.63812 0.51735 0.66702 0.0
C1053 C 0.6566 0.51937 0.68537 0.0
H1054 H 0.07105 0.61964 0.05059 0.0
H1055 H 0.0642 0.56732 0.11727 0.0
H1056 H 0.09691 0.65248 0.08284 0.0
H1057 H 0.09077 0.60002 0.14917 0.0
H1058 H 0.12094 0.66176 0.21078 0.0
H1059 H 0.09294 0.62964 0.17889 0.0
H1060 H 0.13657 0.67391 0.10281 0.0
H1061 H 0.16388 0.70627 0.13479 0.0
C1062 C 0.07527 0.61522 0.0721 0.0
C1063 C 0.06558 0.59096 0.08148 0.0
C1064 C 0.09018 0.63402 0.09057 0.0
C1065 C 0.09603 0.629 0.11871 0.0
C1066 C 0.08631 0.60464 0.12796 0.0
C1067 C 0.07114 0.58585 0.10964 0.0
C1068 C 0.12444 0.66456 0.18722 0.0
C1069 C 0.14455 0.68647 0.17524 0.0
C1070 C 0.10849 0.64612 0.1689 0.0
C1071 C 0.11247 0.64903 0.13817 0.0
C1072 C 0.13259 0.6711 0.12627 0.0
C1073 C 0.14833 0.68965 0.14458 0.0
loop_
_geom_bond_atom_site_label_1
_geom_bond_atom_site_label_2
_geom_bond_distance
_geom_bond_site_symmetry_2
_ccdc_geom_bond_type
C0 C1 1.443 . S
C0 N4 1.376 1_556 S
C0 C38 1.389 . S
C1 C0 1.443 . S
C1 C2 1.340 1_556 S
C1 H41 0.951 . S
C2 C1 1.340 1_554 S
C2 C3 1.439 . S
C2 H42 0.950 . S
C3 C2 1.439 . S
C3 N4 1.374 . S
C3 C37 1.395 . S
N4 C0 1.376 1_554 S
N4 C3 1.374 . S
N4 Co5 1.975 1_655 S
Co5 N4 1.975 1_455 S
Co5 N6 2.016 1_455 S
Co5 N11 2.042 1_554 S
Co5 N16 1.974 1_554 S
Co5 N21 2.296 . S
Co5 N27 2.269 1_454 S
N6 Co5 2.016 1_655 S
N6 C7 1.376 . S
N6 C10 1.383 1_655 S
C7 N6 1.376 . S
C7 C8 1.446 . S
C7 C37 1.391 . S
C8 C7 1.446 . S
C8 C9 1.339 1_655 S
C8 H43 0.949 . S
C9 C8 1.339 1_455 S
C9 C10 1.439 . S
C9 H44 0.950 . S
C10 N6 1.383 1_455 S
C10 C9 1.439 . S
C10 C39 1.392 . S
N11 Co5 2.042 1_556 S
N11 C12 1.376 1_556 S
N11 C15 1.374 . S
C12 N11 1.376 1_554 S
C12 C13 1.443 . S
C12 C39 1.389 . S
C13 C12 1.443 . S
C13 C14 1.340 1_554 S
C13 H45 0.951 . S
C14 C13 1.340 1_556 S
C14 C15 1.439 . S
C14 H46 0.950 . S
C15 N11 1.374 . S
C15 C14 1.439 . S
C15 C40 1.395 . S
N16 Co5 1.974 1_556 S
N16 C17 1.376 . S
N16 C20 1.383 1_455 S
C17 N16 1.376 . S
C17 C18 1.446 . S
C17 C40 1.391 . S
C18 C17 1.446 . S
C18 C19 1.339 1_455 S
C18 H47 0.949 . S
C19 C18 1.339 1_655 S
C19 C20 1.439 . S
C19 H48 0.950 . S
C20 N16 1.383 1_655 S
C20 C19 1.439 . S
C20 C38 1.392 . S
N21 Co5 2.296 . S
N21 C24 1.332 . S
N21 C26 1.332 . S
C22 C23 1.386 . S
C22 C25 1.388 . S
C23 C22 1.386 . S
C23 C24 1.382 . S
C23 H49 0.950 . S
C24 N21 1.332 . S
C24 C23 1.382 . S
C24 H35 0.952 1_554 S
C25 C22 1.388 . S
C25 C26 1.382 . S
C25 H50 0.950 . S
C26 N21 1.332 . S
C26 C25 1.382 . S
C26 H36 0.948 . S
N27 Co5 2.269 1_656 S
N27 C31 1.332 . S
N27 C32 1.332 . S
C28 C29 1.388 . S
C28 C32 1.382 . S
C28 H51 0.950 . S
C29 C28 1.388 . S
C29 C30 1.386 . S
C30 C29 1.386 . S
C30 C31 1.382 . S
C30 H52 0.950 . S
C31 N27 1.332 . S
C31 C30 1.382 . S
C31 H33 0.952 1_556 S
C32 N27 1.332 . S
C32 C28 1.382 . S
C32 H34 0.948 . S
H33 C31 0.952 1_554 S
H34 C32 0.948 . S
H35 C24 0.952 1_556 S
H36 C26 0.948 . S
C37 C3 1.395 . S
C37 C7 1.391 . S
C38 C0 1.389 . S
C38 C20 1.392 . S
C39 C10 1.392 . S
C39 C12 1.389 . S
C40 C15 1.395 . S
C40 C17 1.391 . S
H41 C1 0.951 . S
H42 C2 0.950 . S
H43 C8 0.949 . S
H44 C9 0.950 . S
H45 C13 0.951 . S
H46 C14 0.950 . S
H47 C18 0.949 . S
H48 C19 0.950 . S
H49 C23 0.950 . S
H50 C25 0.950 . S
H51 C28 0.950 . S
H52 C30 0.950 . S
C53 C54 1.443 . S
C53 N57 1.376 1_545 S
C53 C91 1.389 . S
C54 C53 1.443 . S
C54 C55 1.340 1_545 S
C54 H94 0.951 . S
C55 C54 1.340 1_565 S
C55 C56 1.439 . S
C55 H95 0.950 . S
C56 C55 1.439 . S
C56 N57 1.374 . S
C56 C90 1.395 . S
N57 C53 1.376 1_565 S
N57 C56 1.374 . S
N57 Co58 1.996 1_565 S
Co58 N57 1.996 1_545 S
Co58 N59 1.971 1_545 S
Co58 N64 2.021 . S
Co58 N69 2.019 . S
Co58 N74 2.238 1_545 S
Co58 N80 2.327 . S
N59 Co58 1.971 1_565 S
N59 C60 1.376 . S
N59 C63 1.383 . S
C60 N59 1.376 . S
C60 C61 1.446 . S
C60 C90 1.391 . S
C61 C60 1.446 . S
C61 C62 1.339 . S
C61 H96 0.949 . S
C62 C61 1.339 . S
C62 C63 1.439 . S
C62 H97 0.950 . S
C63 N59 1.383 . S
C63 C62 1.439 . S
C63 C92 1.392 . S
N64 Co58 2.021 . S
N64 C65 1.376 1_545 S
N64 C68 1.374 . S
C65 N64 1.376 1_565 S
C65 C66 1.443 . S
C65 C92 1.389 . S
C66 C65 1.443 . S
C66 C67 1.340 1_565 S
C66 H98 0.951 . S
C67 C66 1.340 1_545 S
C67 C68 1.439 . S
C67 H99 0.950 . S
C68 N64 1.374 . S
C68 C67 1.439 . S
C68 C93 1.395 . S
N69 Co58 2.019 . S
N69 C70 1.376 . S
N69 C73 1.383 . S
C70 N69 1.376 . S
C70 C71 1.446 . S
C70 C93 1.391 . S
C71 C70 1.446 . S
C71 C72 1.339 . S
C71 H100 0.949 . S
C72 C71 1.339 . S
C72 C73 1.439 . S
C72 H101 0.950 . S
C73 N69 1.383 . S
C73 C72 1.439 . S
C73 C91 1.392 . S
N74 Co58 2.238 1_565 S
N74 C77 1.332 . S
N74 C79 1.332 . S
C75 C76 1.386 . S
C75 C78 1.388 . S
C76 C75 1.386 . S
C76 C77 1.382 . S
C76 H102 0.950 . S
C77 N74 1.332 . S
C77 C76 1.382 . S
C77 H88 0.952 1_565 S
C78 C75 1.388 . S
C78 C79 1.382 . S
C78 H103 0.950 . S
C79 N74 1.332 . S
C79 C78 1.382 . S
C79 H89 0.948 . S
N80 Co58 2.327 . S
N80 C84 1.332 . S
N80 C85 1.332 . S
C81 C82 1.388 . S
C81 C85 1.382 . S
C81 H104 0.950 . S
C82 C81 1.388 . S
C82 C83 1.386 . S
C83 C82 1.386 . S
C83 C84 1.382 . S
C83 H105 0.950 . S
C84 N80 1.332 . S
C84 C83 1.382 . S
C84 H86 0.952 1_545 S
C85 N80 1.332 . S
C85 C81 1.382 . S
C85 H87 0.948 . S
H86 C84 0.952 1_565 S
H87 C85 0.948 . S
H88 C77 0.952 1_545 S
H89 C79 0.948 . S
C90 C56 1.395 . S
C90 C60 1.391 . S
C91 C53 1.389 . S
C91 C73 1.392 . S
C92 C63 1.392 . S
C92 C65 1.389 . S
C93 C68 1.395 . S
C93 C70 1.391 . S
H94 C54 0.951 . S
H95 C55 0.950 . S
H96 C61 0.949 . S
H97 C62 0.950 . S
H98 C66 0.951 . S
H99 C67 0.950 . S
H100 C71 0.949 . S
H101 C72 0.950 . S
H102 C76 0.950 . S
H103 C78 0.950 . S
H104 C81 0.950 . S
H105 C83 0.950 . S
C106 C107 1.443 . S
C106 N110 1.376 . S
C106 C144 1.389 . S
C107 C106 1.443 . S
C107 C108 1.340 . S
C107 H147 0.951 . S
C108 C107 1.340 . S
C108 C109 1.439 . S
C108 H148 0.950 . S
C109 C108 1.439 . S
C109 N110 1.374 . S
C109 C143 1.395 . S
N110 C106 1.376 . S
N110 C109 1.374 . S
N110 Co111 1.992 1_556 S
Co111 N110 1.992 1_554 S
Co111 N112 1.991 1_554 S
Co111 N117 2.024 . S
Co111 N122 1.998 . S
Co111 N127 2.292 . S
Co111 N133 2.273 1_554 S
N112 Co111 1.991 1_556 S
N112 C113 1.376 . S
N112 C116 1.383 1_556 S
C113 N112 1.376 . S
C113 C114 1.446 . S
C113 C143 1.391 . S
C114 C113 1.446 . S
C114 C115 1.339 . S
C114 H149 0.949 . S
C115 C114 1.339 . S
C115 C116 1.439 1_556 S
C115 H150 0.950 1_556 S
C116 N112 1.383 1_554 S
C116 C115 1.439 1_554 S
C116 C145 1.392 . S
N117 Co111 2.024 . S
N117 C118 1.376 . S
N117 C121 1.374 . S
C118 N117 1.376 . S
C118 C119 1.443 . S
C118 C145 1.389 . S
C119 C118 1.443 . S
C119 C120 1.340 . S
C119 H151 0.951 . S
C120 C119 1.340 . S
C120 C121 1.439 . S
C120 H152 0.950 . S
C121 N117 1.374 . S
C121 C120 1.439 . S
C121 C146 1.395 . S
N122 Co111 1.998 . S
N122 C123 1.376 . S
N122 C126 1.383 1_554 S
C123 N122 1.376 . S
C123 C124 1.446 . S
C123 C146 1.391 . S
C124 C123 1.446 . S
C124 C125 1.339 . S
C124 H153 0.949 . S
C125 C124 1.339 . S
C125 C126 1.439 1_554 S
C125 H154 0.950 1_554 S
C126 N122 1.383 1_556 S
C126 C125 1.439 1_556 S
C126 C144 1.392 . S
N127 Co111 2.292 . S
N127 C130 1.332 . S
N127 C132 1.332 . S
C128 C129 1.386 . S
C128 C131 1.388 . S
C129 C128 1.386 . S
C129 C130 1.382 . S
C129 H155 0.950 . S
C130 N127 1.332 . S
C130 C129 1.382 . S
C130 H141 0.952 . S
C131 C128 1.388 . S
C131 C132 1.382 . S
C131 H156 0.950 . S
C132 N127 1.332 . S
C132 C131 1.382 . S
C132 H142 0.948 . S
N133 Co111 2.273 1_556 S
N133 C137 1.332 . S
N133 C138 1.332 . S
C134 C135 1.388 . S
C134 C138 1.382 . S
C134 H157 0.950 . S
C135 C134 1.388 . S
C135 C136 1.386 . S
C136 C135 1.386 . S
C136 C137 1.382 . S
C136 H158 0.950 . S
C137 N133 1.332 . S
C137 C136 1.382 . S
C137 H139 0.952 . S
C138 N133 1.332 . S
C138 C134 1.382 . S
C138 H140 0.948 . S
H139 C137 0.952 . S
H140 C138 0.948 . S
H141 C130 0.952 . S
H142 C132 0.948 . S
C143 C109 1.395 . S
C143 C113 1.391 . S
C144 C106 1.389 . S
C144 C126 1.392 . S
C145 C116 1.392 . S
C145 C118 1.389 . S
C146 C121 1.395 . S
C146 C123 1.391 . S
H147 C107 0.951 . S
H148 C108 0.950 . S
H149 C114 0.949 . S
H150 C115 0.950 1_554 S
H151 C119 0.951 . S
H152 C120 0.950 . S
H153 C124 0.949 . S
H154 C125 0.950 1_556 S
H155 C129 0.950 . S
H156 C131 0.950 . S
H157 C134 0.950 . S
H158 C136 0.950 . S
C159 C160 1.443 . S
C159 N163 1.376 . S
C159 C197 1.389 . S
C160 C159 1.443 . S
C160 C161 1.340 . S
C160 H200 0.951 . S
C161 C160 1.340 . S
C161 C162 1.439 . S
C161 H201 0.950 . S
C162 C161 1.439 . S
C162 N163 1.374 . S
C162 C196 1.395 . S
N163 C159 1.376 . S
N163 C162 1.374 . S
N163 Co164 1.986 1_655 S
Co164 N163 1.986 1_455 S
Co164 N165 1.980 1_455 S
Co164 N170 2.030 . S
Co164 N175 2.009 . S
Co164 N180 2.310 . S
Co164 N186 2.255 1_455 S
N165 Co164 1.980 1_655 S
N165 C166 1.376 . S
N165 C169 1.383 1_655 S
C166 N165 1.376 . S
C166 C167 1.446 . S
C166 C196 1.391 . S
C167 C166 1.446 . S
C167 C168 1.339 1_655 S
C167 H202 0.949 . S
C168 C167 1.339 1_455 S
C168 C169 1.439 . S
C168 H203 0.950 . S
C169 N165 1.383 1_455 S
C169 C168 1.439 . S
C169 C198 1.392 . S
N170 Co164 2.030 . S
N170 C171 1.376 . S
N170 C174 1.374 . S
C171 N170 1.376 . S
C171 C172 1.443 . S
C171 C198 1.389 . S
C172 C171 1.443 . S
C172 C173 1.340 . S
C172 H204 0.951 . S
C173 C172 1.340 . S
C173 C174 1.439 . S
C173 H205 0.950 . S
C174 N170 1.374 . S
C174 C173 1.439 . S
C174 C199 1.395 . S
N175 Co164 2.009 . S
N175 C176 1.376 . S
N175 C179 1.383 1_455 S
C176 N175 1.376 . S
C176 C177 1.446 . S
C176 C199 1.391 . S
C177 C176 1.446 . S
C177 C178 1.339 1_455 S
C177 H206 0.949 . S
C178 C177 1.339 1_655 S
C178 C179 1.439 . S
C178 H207 0.950 . S
C179 N175 1.383 1_655 S
C179 C178 1.439 . S
C179 C197 1.392 . S
N180 Co164 2.310 . S
N180 C183 1.332 . S
N180 C185 1.332 . S
C181 C182 1.386 . S
C181 C184 1.388 . S
C182 C181 1.386 . S
C182 C183 1.382 . S
C182 H208 0.950 . S
C183 N180 1.332 . S
C183 C182 1.382 . S
C183 H194 0.952 . S
C184 C181 1.388 . S
C184 C185 1.382 . S
C184 H209 0.950 . S
C185 N180 1.332 . S
C185 C184 1.382 . S
C185 H195 0.948 . S
N186 Co164 2.255 1_655 S
N186 C190 1.332 . S
N186 C191 1.332 . S
C187 C188 1.388 . S
C187 C191 1.382 . S
C187 H210 0.950 . S
C188 C187 1.388 . S
C188 C189 1.386 . S
C189 C188 1.386 . S
C189 C190 1.382 . S
C189 H211 0.950 . S
C190 N186 1.332 . S
C190 C189 1.382 . S
C190 H192 0.952 . S
C191 N186 1.332 . S
C191 C187 1.382 . S
C191 H193 0.948 . S
H192 C190 0.952 . S
H193 C191 0.948 . S
H194 C183 0.952 . S
H195 C185 0.948 . S
C196 C162 1.395 . S
C196 C166 1.391 . S
C197 C159 1.389 . S
C197 C179 1.392 . S
C198 C169 1.392 . S
C198 C171 1.389 . S
C199 C174 1.395 . S
C199 C176 1.391 . S
H200 C160 0.951 . S
H201 C161 0.950 . S
H202 C167 0.949 . S
H203 C168 0.950 . S
H204 C172 0.951 . S
H205 C173 0.950 . S
H206 C177 0.949 . S
H207 C178 0.950 . S
H208 C182 0.950 . S
H209 C184 0.950 . S
H210 C187 0.950 . S
H211 C189 0.950 . S
C212 C213 1.443 . S
C212 N216 1.376 1_565 S
C212 C250 1.389 . S
C213 C212 1.443 . S
C213 C214 1.340 1_565 S
C213 H253 0.951 . S
C214 C213 1.340 1_545 S
C214 C215 1.439 . S
C214 H254 0.950 . S
C215 C214 1.439 . S
C215 N216 1.374 . S
C215 C249 1.395 . S
N216 C212 1.376 1_545 S
N216 C215 1.374 . S
N216 Co217 2.041 . S
Co217 N216 2.041 . S
Co217 N218 2.023 . S
Co217 N223 1.976 1_544 S
Co217 N228 1.968 1_544 S
Co217 N233 2.317 1_554 S
Co217 N239 2.249 1_545 S
N218 Co217 2.023 . S
N218 C219 1.376 . S
N218 C222 1.383 1_554 S
C219 N218 1.376 . S
C219 C220 1.446 . S
C219 C249 1.391 . S
C220 C219 1.446 . S
C220 C221 1.339 1_554 S
C220 H255 0.949 . S
C221 C220 1.339 1_556 S
C221 C222 1.439 . S
C221 H256 0.950 . S
C222 N218 1.383 1_556 S
C222 C221 1.439 . S
C222 C251 1.392 . S
N223 Co217 1.976 1_566 S
N223 C224 1.376 1_565 S
N223 C227 1.374 . S
C224 N223 1.376 1_545 S
C224 C225 1.443 . S
C224 C251 1.389 . S
C225 C224 1.443 . S
C225 C226 1.340 1_545 S
C225 H257 0.951 . S
C226 C225 1.340 1_565 S
C226 C227 1.439 . S
C226 H258 0.950 . S
C227 N223 1.374 . S
C227 C226 1.439 . S
C227 C252 1.395 . S
N228 Co217 1.968 1_566 S
N228 C229 1.376 . S
N228 C232 1.383 1_556 S
C229 N228 1.376 . S
C229 C230 1.446 . S
C229 C252 1.391 . S
C230 C229 1.446 . S
C230 C231 1.339 1_556 S
C230 H259 0.949 . S
C231 C230 1.339 1_554 S
C231 C232 1.439 . S
C231 H260 0.950 . S
C232 N228 1.383 1_554 S
C232 C231 1.439 . S
C232 C250 1.392 . S
N233 Co217 2.317 1_556 S
N233 C236 1.332 . S
N233 C238 1.332 . S
C234 C235 1.386 . S
C234 C237 1.388 . S
C235 C234 1.386 . S
C235 C236 1.382 . S
C235 H261 0.950 . S
C236 N233 1.332 . S
C236 C235 1.382 . S
C236 H247 0.952 1_545 S
C237 C234 1.388 . S
C237 C238 1.382 . S
C237 H262 0.950 . S
C238 N233 1.332 . S
C238 C237 1.382 . S
C238 H248 0.948 . S
N239 Co217 2.249 1_565 S
N239 C243 1.332 . S
N239 C244 1.332 . S
C240 C241 1.388 . S
C240 C244 1.382 . S
C240 H263 0.950 . S
C241 C240 1.388 . S
C241 C242 1.386 . S
C242 C241 1.386 . S
C242 C243 1.382 . S
C242 H264 0.950 . S
C243 N239 1.332 . S
C243 C242 1.382 . S
C243 H245 0.952 1_565 S
C244 N239 1.332 . S
C244 C240 1.382 . S
C244 H246 0.948 . S
H245 C243 0.952 1_545 S
H246 C244 0.948 . S
H247 C236 0.952 1_565 S
H248 C238 0.948 . S
C249 C215 1.395 . S
C249 C219 1.391 . S
C250 C212 1.389 . S
C250 C232 1.392 . S
C251 C222 1.392 . S
C251 C224 1.389 . S
C252 C227 1.395 . S
C252 C229 1.391 . S
H253 C213 0.951 . S
H254 C214 0.950 . S
H255 C220 0.949 . S
H256 C221 0.950 . S
H257 C225 0.951 . S
H258 C226 0.950 . S
H259 C230 0.949 . S
H260 C231 0.950 . S
H261 C235 0.950 . S
H262 C237 0.950 . S
H263 C240 0.950 . S
H264 C242 0.950 . S
C265 C266 1.443 . S
C265 N269 1.376 . S
C265 C303 1.389 . S
C266 C265 1.443 . S
C266 C267 1.340 . S
C266 H306 0.951 . S
C267 C266 1.340 . S
C267 C268 1.439 . S
C267 H307 0.950 . S
C268 C267 1.439 . S
C268 N269 1.374 . S
C268 C302 1.395 . S
N269 C265 1.376 . S
N269 C268 1.374 . S
N269 Co270 2.008 . S
Co270 N269 2.008 . S
Co270 N271 1.995 . S
Co270 N276 2.008 . S
Co270 N281 1.995 . S
Co270 N286 2.282 . S
Co270 N292 2.282 . S
N271 Co270 1.995 . S
N271 C272 1.376 . S
N271 C275 1.383 . S
C272 N271 1.376 . S
C272 C273 1.446 . S
C272 C302 1.391 . S
C273 C272 1.446 . S
C273 C274 1.339 . S
C273 H308 0.949 . S
C274 C273 1.339 . S
C274 C275 1.439 . S
C274 H309 0.950 . S
C275 N271 1.383 . S
C275 C274 1.439 . S
C275 C304 1.392 . S
N276 Co270 2.008 . S
N276 C277 1.376 . S
N276 C280 1.374 . S
C277 N276 1.376 . S
C277 C278 1.443 . S
C277 C304 1.389 . S
C278 C277 1.443 . S
C278 C279 1.340 . S
C278 H310 0.951 . S
C279 C278 1.340 . S
C279 C280 1.439 . S
C279 H311 0.950 . S
C280 N276 1.374 . S
C280 C279 1.439 . S
C280 C305 1.395 . S
N281 Co270 1.995 . S
N281 C282 1.376 . S
N281 C285 1.383 . S
C282 N281 1.376 . S
C282 C283 1.446 . S
C282 C305 1.391 . S
C283 C282 1.446 . S
C283 C284 1.339 . S
C283 H312 0.949 . S
C284 C283 1.339 . S
C284 C285 1.439 . S
C284 H313 0.950 . S
C285 N281 1.383 . S
C285 C284 1.439 . S
C285 C303 1.392 . S
N286 Co270 2.282 . S
N286 C289 1.332 . S
N286 C291 1.332 . S
C287 C288 1.386 . S
C287 C290 1.388 . S
C288 C287 1.386 . S
C288 C289 1.382 . S
C288 H314 0.950 . S
C289 N286 1.332 . S
C289 C288 1.382 . S
C289 H300 0.952 . S
C290 C287 1.388 . S
C290 C291 1.382 . S
C290 H315 0.950 . S
C291 N286 1.332 . S
C291 C290 1.382 . S
C291 H301 0.948 . S
N292 Co270 2.282 . S
N292 C296 1.332 . S
N292 C297 1.332 . S
C293 C294 1.388 . S
C293 C297 1.382 . S
C293 H316 0.950 . S
C294 C293 1.388 . S
C294 C295 1.386 . S
C295 C294 1.386 . S
C295 C296 1.382 . S
C295 H317 0.950 . S
C296 N292 1.332 . S
C296 C295 1.382 . S
C296 H298 0.952 . S
C297 N292 1.332 . S
C297 C293 1.382 . S
C297 H299 0.948 . S
H298 C296 0.952 . S
H299 C297 0.948 . S
H300 C289 0.952 . S
H301 C291 0.948 . S
C302 C268 1.395 . S
C302 C272 1.391 . S
C303 C265 1.389 . S
C303 C285 1.392 . S
C304 C275 1.392 . S
C304 C277 1.389 . S
C305 C280 1.395 . S
C305 C282 1.391 . S
H306 C266 0.951 . S
H307 C267 0.950 . S
H308 C273 0.949 . S
H309 C274 0.950 . S
H310 C278 0.951 . S
H311 C279 0.950 . S
H312 C283 0.949 . S
H313 C284 0.950 . S
H314 C288 0.950 . S
H315 C290 0.950 . S
H316 C293 0.950 . S
H317 C295 0.950 . S
C318 C319 1.384 . S
C318 C320 1.384 . S
C318 H346 0.931 . S
C319 C318 1.384 . S
C319 C322 1.382 . S
C320 C318 1.384 . S
C320 C321 1.381 . S
C320 H347 0.930 . S
C321 C320 1.381 . S
C321 C323 1.381 . S
C321 C324 1.487 . S
C322 C319 1.382 . S
C322 C323 1.387 . S
C322 H348 0.930 . S
C323 C321 1.381 . S
C323 C322 1.387 . S
C323 H349 0.931 . S
C324 C321 1.487 . S
C324 C331 1.399 . S
C324 N362 1.343 . S
C325 C326 1.384 . S
C325 C327 1.384 . S
C325 H350 0.931 . S
C326 C325 1.384 . S
C326 C329 1.382 . S
C327 C325 1.384 . S
C327 C328 1.381 . S
C327 H351 0.930 . S
C328 C327 1.381 . S
C328 C330 1.381 . S
C328 C331 1.487 . S
C329 C326 1.382 . S
C329 C330 1.387 . S
C329 H352 0.930 . S
C330 C328 1.381 . S
C330 C329 1.387 . S
C330 H353 0.931 . S
C331 C324 1.399 . S
C331 C328 1.487 . S
C331 N363 1.343 . S
C332 C333 1.384 . S
C332 C334 1.384 . S
C332 H354 0.931 . S
C333 C332 1.384 . S
C333 C336 1.382 . S
C334 C332 1.384 . S
C334 C335 1.381 . S
C334 H355 0.930 . S
C335 C334 1.381 . S
C335 C337 1.381 . S
C335 C338 1.487 . S
C336 C333 1.382 . S
C336 C337 1.387 . S
C336 H356 0.930 . S
C337 C335 1.381 . S
C337 C336 1.387 . S
C337 H357 0.931 . S
C338 C335 1.487 . S
C338 C345 1.399 . S
C338 N363 1.343 . S
C339 C340 1.384 . S
C339 C341 1.384 . S
C339 H358 0.931 . S
C340 C339 1.384 . S
C340 C343 1.382 . S
C341 C339 1.384 . S
C341 C342 1.381 . S
C341 H359 0.930 . S
C342 C341 1.381 . S
C342 C344 1.381 . S
C342 C345 1.487 . S
C343 C340 1.382 . S
C343 C344 1.387 . S
C343 H360 0.930 . S
C344 C342 1.381 . S
C344 C343 1.387 . S
C344 H361 0.931 . S
C345 C338 1.399 . S
C345 C342 1.487 . S
C345 N362 1.343 . S
H346 C318 0.931 . S
H347 C320 0.930 . S
H348 C322 0.930 . S
H349 C323 0.931 . S
H350 C325 0.931 . S
H351 C327 0.930 . S
H352 C329 0.930 . S
H353 C330 0.931 . S
H354 C332 0.931 . S
H355 C334 0.930 . S
H356 C336 0.930 . S
H357 C337 0.931 . S
H358 C339 0.931 . S
H359 C341 0.930 . S
H360 C343 0.930 . S
H361 C344 0.931 . S
N362 C324 1.343 . S
N362 C345 1.343 . S
N363 C331 1.343 . S
N363 C338 1.343 . S
C364 C365 1.384 . S
C364 C366 1.384 . S
C364 H392 0.931 . S
C365 C364 1.384 . S
C365 C368 1.382 . S
C366 C364 1.384 . S
C366 C367 1.381 . S
C366 H393 0.930 . S
C367 C366 1.381 . S
C367 C369 1.381 . S
C367 C370 1.487 . S
C368 C365 1.382 . S
C368 C369 1.387 . S
C368 H394 0.930 . S
C369 C367 1.381 . S
C369 C368 1.387 . S
C369 H395 0.931 . S
C370 C367 1.487 . S
C370 C377 1.399 . S
C370 N408 1.343 . S
C371 C372 1.384 . S
C371 C373 1.384 . S
C371 H396 0.931 . S
C372 C371 1.384 . S
C372 C375 1.382 . S
C373 C371 1.384 . S
C373 C374 1.381 . S
C373 H397 0.930 . S
C374 C373 1.381 . S
C374 C376 1.381 . S
C374 C377 1.487 . S
C375 C372 1.382 . S
C375 C376 1.387 . S
C375 H398 0.930 . S
C376 C374 1.381 . S
C376 C375 1.387 . S
C376 H399 0.931 . S
C377 C370 1.399 . S
C377 C374 1.487 . S
C377 N409 1.343 . S
C378 C379 1.384 . S
C378 C380 1.384 . S
C378 H400 0.931 . S
C379 C378 1.384 . S
C379 C382 1.382 . S
C380 C378 1.384 . S
C380 C381 1.381 . S
C380 H401 0.930 . S
C381 C380 1.381 . S
C381 C383 1.381 . S
C381 C384 1.487 . S
C382 C379 1.382 . S
C382 C383 1.387 . S
C382 H402 0.930 . S
C383 C381 1.381 . S
C383 C382 1.387 . S
C383 H403 0.931 . S
C384 C381 1.487 . S
C384 C391 1.399 . S
C384 N409 1.343 . S
C385 C386 1.384 . S
C385 C387 1.384 . S
C385 H404 0.931 . S
C386 C385 1.384 . S
C386 C389 1.382 . S
C387 C385 1.384 . S
C387 C388 1.381 . S
C387 H405 0.930 . S
C388 C387 1.381 . S
C388 C390 1.381 . S
C388 C391 1.487 . S
C389 C386 1.382 . S
C389 C390 1.387 . S
C389 H406 0.930 . S
C390 C388 1.381 . S
C390 C389 1.387 . S
C390 H407 0.931 . S
C391 C384 1.399 . S
C391 C388 1.487 . S
C391 N408 1.343 . S
H392 C364 0.931 . S
H393 C366 0.930 . S
H394 C368 0.930 . S
H395 C369 0.931 . S
H396 C371 0.931 . S
H397 C373 0.930 . S
H398 C375 0.930 . S
H399 C376 0.931 . S
H400 C378 0.931 . S
H401 C380 0.930 . S
H402 C382 0.930 . S
H403 C383 0.931 . S
H404 C385 0.931 . S
H405 C387 0.930 . S
H406 C389 0.930 . S
H407 C390 0.931 . S
N408 C370 1.343 . S
N408 C391 1.343 . S
N409 C377 1.343 . S
N409 C384 1.343 . S
C410 C411 1.384 . S
C410 C412 1.384 . S
C410 H438 0.931 . S
C411 C410 1.384 . S
C411 C414 1.382 . S
C412 C410 1.384 . S
C412 C413 1.381 . S
C412 H439 0.930 . S
C413 C412 1.381 . S
C413 C415 1.381 . S
C413 C416 1.487 . S
C414 C411 1.382 . S
C414 C415 1.387 . S
C414 H440 0.930 . S
C415 C413 1.381 . S
C415 C414 1.387 . S
C415 H441 0.931 . S
C416 C413 1.487 . S
C416 C423 1.399 . S
C416 N454 1.343 . S
C417 C418 1.384 . S
C417 C419 1.384 . S
C417 H442 0.931 . S
C418 C417 1.384 . S
C418 C421 1.382 . S
C419 C417 1.384 . S
C419 C420 1.381 . S
C419 H443 0.930 . S
C420 C419 1.381 . S
C420 C422 1.381 . S
C420 C423 1.487 . S
C421 C418 1.382 . S
C421 C422 1.387 . S
C421 H444 0.930 . S
C422 C420 1.381 . S
C422 C421 1.387 . S
C422 H445 0.931 . S
C423 C416 1.399 . S
C423 C420 1.487 . S
C423 N455 1.343 . S
C424 C425 1.384 . S
C424 C426 1.384 . S
C424 H446 0.931 . S
C425 C424 1.384 . S
C425 C428 1.382 . S
C426 C424 1.384 . S
C426 C427 1.381 . S
C426 H447 0.930 . S
C427 C426 1.381 . S
C427 C429 1.381 . S
C427 C430 1.487 . S
C428 C425 1.382 . S
C428 C429 1.387 . S
C428 H448 0.930 . S
C429 C427 1.381 . S
C429 C428 1.387 . S
C429 H449 0.931 . S
C430 C427 1.487 . S
C430 C437 1.399 . S
C430 N455 1.343 . S
C431 C432 1.384 . S
C431 C433 1.384 . S
C431 H450 0.931 . S
C432 C431 1.384 . S
C432 C435 1.382 . S
C433 C431 1.384 . S
C433 C434 1.381 . S
C433 H451 0.930 . S
C434 C433 1.381 . S
C434 C436 1.381 . S
C434 C437 1.487 . S
C435 C432 1.382 . S
C435 C436 1.387 . S
C435 H452 0.930 . S
C436 C434 1.381 . S
C436 C435 1.387 . S
C436 H453 0.931 . S
C437 C430 1.399 . S
C437 C434 1.487 . S
C437 N454 1.343 . S
H438 C410 0.931 . S
H439 C412 0.930 . S
H440 C414 0.930 . S
H441 C415 0.931 . S
H442 C417 0.931 . S
H443 C419 0.930 . S
H444 C421 0.930 . S
H445 C422 0.931 . S
H446 C424 0.931 . S
H447 C426 0.930 . S
H448 C428 0.930 . S
H449 C429 0.931 . S
H450 C431 0.931 . S
H451 C433 0.930 . S
H452 C435 0.930 . S
H453 C436 0.931 . S
N454 C416 1.343 . S
N454 C437 1.343 . S
N455 C423 1.343 . S
N455 C430 1.343 . S
C456 C457 1.384 . S
C456 C458 1.384 . S
C456 H484 0.931 . S
C457 C456 1.384 . S
C457 C460 1.382 . S
C458 C456 1.384 . S
C458 C459 1.381 . S
C458 H485 0.930 . S
C459 C458 1.381 . S
C459 C461 1.381 . S
C459 C462 1.487 . S
C460 C457 1.382 . S
C460 C461 1.387 . S
C460 H486 0.930 . S
C461 C459 1.381 . S
C461 C460 1.387 . S
C461 H487 0.931 . S
C462 C459 1.487 . S
C462 C469 1.399 . S
C462 N500 1.343 . S
C463 C464 1.384 . S
C463 C465 1.384 . S
C463 H488 0.931 . S
C464 C463 1.384 . S
C464 C467 1.382 . S
C465 C463 1.384 . S
C465 C466 1.381 . S
C465 H489 0.930 . S
C466 C465 1.381 . S
C466 C468 1.381 . S
C466 C469 1.487 . S
C467 C464 1.382 . S
C467 C468 1.387 . S
C467 H490 0.930 . S
C468 C466 1.381 . S
C468 C467 1.387 . S
C468 H491 0.931 . S
C469 C462 1.399 . S
C469 C466 1.487 . S
C469 N501 1.343 . S
C470 C471 1.384 . S
C470 C472 1.384 . S
C470 H492 0.931 . S
C471 C470 1.384 . S
C471 C474 1.382 . S
C472 C470 1.384 . S
C472 C473 1.381 . S
C472 H493 0.930 . S
C473 C472 1.381 . S
C473 C475 1.381 . S
C473 C476 1.487 . S
C474 C471 1.382 . S
C474 C475 1.387 . S
C474 H494 0.930 . S
C475 C473 1.381 . S
C475 C474 1.387 . S
C475 H495 0.931 . S
C476 C473 1.487 . S
C476 C483 1.399 . S
C476 N501 1.343 . S
C477 C478 1.384 . S
C477 C479 1.384 . S
C477 H496 0.931 . S
C478 C477 1.384 . S
C478 C481 1.382 . S
C479 C477 1.384 . S
C479 C480 1.381 . S
C479 H497 0.930 . S
C480 C479 1.381 . S
C480 C482 1.381 . S
C480 C483 1.487 . S
C481 C478 1.382 . S
C481 C482 1.387 . S
C481 H498 0.930 . S
C482 C480 1.381 . S
C482 C481 1.387 . S
C482 H499 0.931 . S
C483 C476 1.399 . S
C483 C480 1.487 . S
C483 N500 1.343 . S
H484 C456 0.931 . S
H485 C458 0.930 . S
H486 C460 0.930 . S
H487 C461 0.931 . S
H488 C463 0.931 . S
H489 C465 0.930 . S
H490 C467 0.930 . S
H491 C468 0.931 . S
H492 C470 0.931 . S
H493 C472 0.930 . S
H494 C474 0.930 . S
H495 C475 0.931 . S
H496 C477 0.931 . S
H497 C479 0.930 . S
H498 C481 0.930 . S
H499 C482 0.931 . S
N500 C462 1.343 . S
N500 C483 1.343 . S
N501 C469 1.343 . S
N501 C476 1.343 . S
C502 C503 1.384 . S
C502 C504 1.384 . S
C502 H530 0.931 . S
C503 C502 1.384 . S
C503 C506 1.382 . S
C504 C502 1.384 . S
C504 C505 1.381 . S
C504 H531 0.930 . S
C505 C504 1.381 . S
C505 C507 1.381 . S
C505 C508 1.487 . S
C506 C503 1.382 . S
C506 C507 1.387 . S
C506 H532 0.930 . S
C507 C505 1.381 . S
C507 C506 1.387 . S
C507 H533 0.931 . S
C508 C505 1.487 . S
C508 C515 1.399 . S
C508 N546 1.343 . S
C509 C510 1.384 . S
C509 C511 1.384 . S
C509 H534 0.931 . S
C510 C509 1.384 . S
C510 C513 1.382 . S
C511 C509 1.384 . S
C511 C512 1.381 . S
C511 H535 0.930 . S
C512 C511 1.381 . S
C512 C514 1.381 . S
C512 C515 1.487 . S
C513 C510 1.382 . S
C513 C514 1.387 . S
C513 H536 0.930 . S
C514 C512 1.381 . S
C514 C513 1.387 . S
C514 H537 0.931 . S
C515 C508 1.399 . S
C515 C512 1.487 . S
C515 N547 1.343 . S
C516 C517 1.384 . S
C516 C518 1.384 . S
C516 H538 0.931 . S
C517 C516 1.384 . S
C517 C520 1.382 . S
C518 C516 1.384 . S
C518 C519 1.381 . S
C518 H539 0.930 . S
C519 C518 1.381 . S
C519 C521 1.381 . S
C519 C522 1.487 . S
C520 C517 1.382 . S
C520 C521 1.387 . S
C520 H540 0.930 . S
C521 C519 1.381 . S
C521 C520 1.387 . S
C521 H541 0.931 . S
C522 C519 1.487 . S
C522 C529 1.399 . S
C522 N547 1.343 . S
C523 C524 1.384 . S
C523 C525 1.384 . S
C523 H542 0.931 . S
C524 C523 1.384 . S
C524 C527 1.382 . S
C525 C523 1.384 . S
C525 C526 1.381 . S
C525 H543 0.930 . S
C526 C525 1.381 . S
C526 C528 1.381 . S
C526 C529 1.487 . S
C527 C524 1.382 . S
C527 C528 1.387 . S
C527 H544 0.930 . S
C528 C526 1.381 . S
C528 C527 1.387 . S
C528 H545 0.931 . S
C529 C522 1.399 . S
C529 C526 1.487 . S
C529 N546 1.343 . S
H530 C502 0.931 . S
H531 C504 0.930 . S
H532 C506 0.930 . S
H533 C507 0.931 . S
H534 C509 0.931 . S
H535 C511 0.930 . S
H536 C513 0.930 . S
H537 C514 0.931 . S
H538 C516 0.931 . S
H539 C518 0.930 . S
H540 C520 0.930 . S
H541 C521 0.931 . S
H542 C523 0.931 . S
H543 C525 0.930 . S
H544 C527 0.930 . S
H545 C528 0.931 . S
N546 C508 1.343 . S
N546 C529 1.343 . S
N547 C515 1.343 . S
N547 C522 1.343 . S
C548 C549 1.384 . S
C548 C550 1.384 . S
C548 H576 0.931 . S
C549 C548 1.384 . S
C549 C552 1.382 . S
C550 C548 1.384 . S
C550 C551 1.381 . S
C550 H577 0.930 . S
C551 C550 1.381 . S
C551 C553 1.381 . S
C551 C554 1.487 . S
C552 C549 1.382 . S
C552 C553 1.387 . S
C552 H578 0.930 . S
C553 C551 1.381 . S
C553 C552 1.387 . S
C553 H579 0.931 . S
C554 C551 1.487 . S
C554 C561 1.399 . S
C554 N592 1.343 . S
C555 C556 1.384 . S
C555 C557 1.384 . S
C555 H580 0.931 . S
C556 C555 1.384 . S
C556 C559 1.382 . S
C557 C555 1.384 . S
C557 C558 1.381 . S
C557 H581 0.930 . S
C558 C557 1.381 . S
C558 C560 1.381 . S
C558 C561 1.487 . S
C559 C556 1.382 . S
C559 C560 1.387 . S
C559 H582 0.930 . S
C560 C558 1.381 . S
C560 C559 1.387 . S
C560 H583 0.931 . S
C561 C554 1.399 . S
C561 C558 1.487 . S
C561 N593 1.343 . S
C562 C563 1.384 . S
C562 C564 1.384 . S
C562 H584 0.931 . S
C563 C562 1.384 . S
C563 C566 1.382 . S
C564 C562 1.384 . S
C564 C565 1.381 . S
C564 H585 0.930 . S
C565 C564 1.381 . S
C565 C567 1.381 . S
C565 C568 1.487 . S
C566 C563 1.382 . S
C566 C567 1.387 . S
C566 H586 0.930 . S
C567 C565 1.381 . S
C567 C566 1.387 . S
C567 H587 0.931 . S
C568 C565 1.487 . S
C568 C575 1.399 . S
C568 N593 1.343 . S
C569 C570 1.384 . S
C569 C571 1.384 . S
C569 H588 0.931 . S
C570 C569 1.384 . S
C570 C573 1.382 . S
C571 C569 1.384 . S
C571 C572 1.381 . S
C571 H589 0.930 . S
C572 C571 1.381 . S
C572 C574 1.381 . S
C572 C575 1.487 . S
C573 C570 1.382 . S
C573 C574 1.387 . S
C573 H590 0.930 . S
C574 C572 1.381 . S
C574 C573 1.387 . S
C574 H591 0.931 . S
C575 C568 1.399 . S
C575 C572 1.487 . S
C575 N592 1.343 . S
H576 C548 0.931 . S
H577 C550 0.930 . S
H578 C552 0.930 . S
H579 C553 0.931 . S
H580 C555 0.931 . S
H581 C557 0.930 . S
H582 C559 0.930 . S
H583 C560 0.931 . S
H584 C562 0.931 . S
H585 C564 0.930 . S
H586 C566 0.930 . S
H587 C567 0.931 . S
H588 C569 0.931 . S
H589 C571 0.930 . S
H590 C573 0.930 . S
H591 C574 0.931 . S
N592 C554 1.343 . S
N592 C575 1.343 . S
N593 C561 1.343 . S
N593 C568 1.343 . S
H594 C602 0.950 . S
H595 C607 0.950 . S
H596 C604 0.950 . S
H597 C606 0.950 . S
H598 C608 0.950 . S
H599 C610 0.950 . S
H600 C612 0.950 . S
H601 C613 0.950 . S
C602 H594 0.950 . S
C602 C603 1.386 . S
C602 C604 1.391 . S
C603 C602 1.386 . S
C603 C607 1.393 . S
C604 H596 0.950 . S
C604 C602 1.391 . S
C604 C605 1.400 . S
C605 C604 1.400 . S
C605 C606 1.398 . S
C605 C611 1.491 . S
C606 H597 0.950 . S
C606 C605 1.398 . S
C606 C607 1.391 . S
C607 H595 0.950 . S
C607 C603 1.393 . S
C607 C606 1.391 . S
C608 H598 0.950 . S
C608 C609 1.386 . S
C608 C610 1.391 . S
C609 C608 1.386 . S
C609 C613 1.393 . S
C610 H599 0.950 . S
C610 C608 1.391 . S
C610 C611 1.400 . S
C611 C605 1.491 . S
C611 C610 1.400 . S
C611 C612 1.398 . S
C612 H600 0.950 . S
C612 C611 1.398 . S
C612 C613 1.391 . S
C613 H601 0.950 . S
C613 C609 1.393 . S
C613 C612 1.391 . S
H614 C622 0.950 . S
H615 C627 0.950 . S
H616 C624 0.950 . S
H617 C626 0.950 . S
H618 C628 0.950 . S
H619 C630 0.950 . S
H620 C632 0.950 . S
H621 C633 0.950 . S
C622 H614 0.950 . S
C622 C623 1.386 . S
C622 C624 1.391 . S
C623 C622 1.386 . S
C623 C627 1.393 . S
C624 H616 0.950 . S
C624 C622 1.391 . S
C624 C625 1.400 . S
C625 C624 1.400 . S
C625 C626 1.398 . S
C625 C631 1.491 . S
C626 H617 0.950 . S
C626 C625 1.398 . S
C626 C627 1.391 . S
C627 H615 0.950 . S
C627 C623 1.393 . S
C627 C626 1.391 . S
C628 H618 0.950 . S
C628 C629 1.386 . S
C628 C630 1.391 . S
C629 C628 1.386 . S
C629 C633 1.393 . S
C630 H619 0.950 . S
C630 C628 1.391 . S
C630 C631 1.400 . S
C631 C625 1.491 . S
C631 C630 1.400 . S
C631 C632 1.398 . S
C632 H620 0.950 . S
C632 C631 1.398 . S
C632 C633 1.391 . S
C633 H621 0.950 . S
C633 C629 1.393 . S
C633 C632 1.391 . S
H634 C642 0.950 . S
H635 C647 0.950 . S
H636 C644 0.950 . S
H637 C646 0.950 . S
H638 C648 0.950 . S
H639 C650 0.950 . S
H640 C652 0.950 . S
H641 C653 0.950 . S
C642 H634 0.950 . S
C642 C643 1.386 . S
C642 C644 1.391 . S
C643 C642 1.386 . S
C643 C647 1.393 . S
C644 H636 0.950 . S
C644 C642 1.391 . S
C644 C645 1.400 . S
C645 C644 1.400 . S
C645 C646 1.398 . S
C645 C651 1.491 . S
C646 H637 0.950 . S
C646 C645 1.398 . S
C646 C647 1.391 . S
C647 H635 0.950 . S
C647 C643 1.393 . S
C647 C646 1.391 . S
C648 H638 0.950 . S
C648 C649 1.386 . S
C648 C650 1.391 . S
C649 C648 1.386 . S
C649 C653 1.393 . S
C650 H639 0.950 . S
C650 C648 1.391 . S
C650 C651 1.400 . S
C651 C645 1.491 . S
C651 C650 1.400 . S
C651 C652 1.398 . S
C652 H640 0.950 . S
C652 C651 1.398 . S
C652 C653 1.391 . S
C653 H641 0.950 . S
C653 C649 1.393 . S
C653 C652 1.391 . S
H654 C662 0.950 . S
H655 C667 0.950 . S
H656 C664 0.950 . S
H657 C666 0.950 . S
H658 C668 0.950 . S
H659 C670 0.950 . S
H660 C672 0.950 . S
H661 C673 0.950 . S
C662 H654 0.950 . S
C662 C663 1.386 . S
C662 C664 1.391 . S
C663 C662 1.386 . S
C663 C667 1.393 . S
C664 H656 0.950 . S
C664 C662 1.391 . S
C664 C665 1.400 . S
C665 C664 1.400 . S
C665 C666 1.398 . S
C665 C671 1.491 . S
C666 H657 0.950 . S
C666 C665 1.398 . S
C666 C667 1.391 . S
C667 H655 0.950 . S
C667 C663 1.393 . S
C667 C666 1.391 . S
C668 H658 0.950 . S
C668 C669 1.386 . S
C668 C670 1.391 . S
C669 C668 1.386 . S
C669 C673 1.393 . S
C670 H659 0.950 . S
C670 C668 1.391 . S
C670 C671 1.400 . S
C671 C665 1.491 . S
C671 C670 1.400 . S
C671 C672 1.398 . S
C672 H660 0.950 . S
C672 C671 1.398 . S
C672 C673 1.391 . S
C673 H661 0.950 . S
C673 C669 1.393 . S
C673 C672 1.391 . S
H674 C682 0.950 . S
H675 C687 0.950 . S
H676 C684 0.950 . S
H677 C686 0.950 . S
H678 C688 0.950 . S
H679 C690 0.950 . S
H680 C692 0.950 . S
H681 C693 0.950 . S
C682 H674 0.950 . S
C682 C683 1.386 . S
C682 C684 1.391 . S
C683 C682 1.386 . S
C683 C687 1.393 . S
C684 H676 0.950 . S
C684 C682 1.391 . S
C684 C685 1.400 . S
C685 C684 1.400 . S
C685 C686 1.398 . S
C685 C691 1.491 . S
C686 H677 0.950 . S
C686 C685 1.398 . S
C686 C687 1.391 . S
C687 H675 0.950 . S
C687 C683 1.393 . S
C687 C686 1.391 . S
C688 H678 0.950 . S
C688 C689 1.386 . S
C688 C690 1.391 . S
C689 C688 1.386 . S
C689 C693 1.393 . S
C690 H679 0.950 . S
C690 C688 1.391 . S
C690 C691 1.400 . S
C691 C685 1.491 . S
C691 C690 1.400 . S
C691 C692 1.398 . S
C692 H680 0.950 . S
C692 C691 1.398 . S
C692 C693 1.391 . S
C693 H681 0.950 . S
C693 C689 1.393 . S
C693 C692 1.391 . S
H694 C702 0.950 . S
H695 C707 0.950 . S
H696 C704 0.950 . S
H697 C706 0.950 . S
H698 C708 0.950 . S
H699 C710 0.950 . S
H700 C712 0.950 . S
H701 C713 0.950 . S
C702 H694 0.950 . S
C702 C703 1.386 . S
C702 C704 1.391 . S
C703 C702 1.386 . S
C703 C707 1.393 . S
C704 H696 0.950 . S
C704 C702 1.391 . S
C704 C705 1.400 . S
C705 C704 1.400 . S
C705 C706 1.398 . S
C705 C711 1.491 . S
C706 H697 0.950 . S
C706 C705 1.398 . S
C706 C707 1.391 . S
C707 H695 0.950 . S
C707 C703 1.393 . S
C707 C706 1.391 . S
C708 H698 0.950 . S
C708 C709 1.386 . S
C708 C710 1.391 . S
C709 C708 1.386 . S
C709 C713 1.393 . S
C710 H699 0.950 . S
C710 C708 1.391 . S
C710 C711 1.400 . S
C711 C705 1.491 . S
C711 C710 1.400 . S
C711 C712 1.398 . S
C712 H700 0.950 . S
C712 C711 1.398 . S
C712 C713 1.391 . S
C713 H701 0.950 . S
C713 C709 1.393 . S
C713 C712 1.391 . S
H714 C722 0.950 . S
H715 C727 0.950 . S
H716 C724 0.950 . S
H717 C726 0.950 . S
H718 C728 0.950 . S
H719 C730 0.950 . S
H720 C732 0.950 . S
H721 C733 0.950 . S
C722 H714 0.950 . S
C722 C723 1.386 . S
C722 C724 1.391 . S
C723 C722 1.386 . S
C723 C727 1.393 . S
C724 H716 0.950 . S
C724 C722 1.391 . S
C724 C725 1.400 . S
C725 C724 1.400 . S
C725 C726 1.398 . S
C725 C731 1.491 . S
C726 H717 0.950 . S
C726 C725 1.398 . S
C726 C727 1.391 . S
C727 H715 0.950 . S
C727 C723 1.393 . S
C727 C726 1.391 . S
C728 H718 0.950 . S
C728 C729 1.386 . S
C728 C730 1.391 . S
C729 C728 1.386 . S
C729 C733 1.393 . S
C730 H719 0.950 . S
C730 C728 1.391 . S
C730 C731 1.400 . S
C731 C725 1.491 . S
C731 C730 1.400 . S
C731 C732 1.398 . S
C732 H720 0.950 . S
C732 C731 1.398 . S
C732 C733 1.391 . S
C733 H721 0.950 . S
C733 C729 1.393 . S
C733 C732 1.391 . S
H734 C742 0.950 . S
H735 C747 0.950 . S
H736 C744 0.950 . S
H737 C746 0.950 . S
H738 C748 0.950 . S
H739 C750 0.950 . S
H740 C752 0.950 . S
H741 C753 0.950 . S
C742 H734 0.950 . S
C742 C743 1.386 . S
C742 C744 1.391 . S
C743 C742 1.386 . S
C743 C747 1.393 . S
C744 H736 0.950 . S
C744 C742 1.391 . S
C744 C745 1.400 . S
C745 C744 1.400 . S
C745 C746 1.398 . S
C745 C751 1.491 . S
C746 H737 0.950 . S
C746 C745 1.398 . S
C746 C747 1.391 . S
C747 H735 0.950 . S
C747 C743 1.393 . S
C747 C746 1.391 . S
C748 H738 0.950 . S
C748 C749 1.386 . S
C748 C750 1.391 . S
C749 C748 1.386 . S
C749 C753 1.393 . S
C750 H739 0.950 . S
C750 C748 1.391 . S
C750 C751 1.400 . S
C751 C745 1.491 . S
C751 C750 1.400 . S
C751 C752 1.398 . S
C752 H740 0.950 . S
C752 C751 1.398 . S
C752 C753 1.391 . S
C753 H741 0.950 . S
C753 C749 1.393 . S
C753 C752 1.391 . S
H754 C762 0.950 . S
H755 C767 0.950 . S
H756 C764 0.950 . S
H757 C766 0.950 . S
H758 C768 0.950 . S
H759 C770 0.950 . S
H760 C772 0.950 . S
H761 C773 0.950 . S
C762 H754 0.950 . S
C762 C763 1.386 . S
C762 C764 1.391 . S
C763 C762 1.386 . S
C763 C767 1.393 . S
C764 H756 0.950 . S
C764 C762 1.391 . S
C764 C765 1.400 . S
C765 C764 1.400 . S
C765 C766 1.398 . S
C765 C771 1.491 . S
C766 H757 0.950 . S
C766 C765 1.398 . S
C766 C767 1.391 . S
C767 H755 0.950 . S
C767 C763 1.393 . S
C767 C766 1.391 . S
C768 H758 0.950 . S
C768 C769 1.386 . S
C768 C770 1.391 . S
C769 C768 1.386 . S
C769 C773 1.393 . S
C770 H759 0.950 . S
C770 C768 1.391 . S
C770 C771 1.400 . S
C771 C765 1.491 . S
C771 C770 1.400 . S
C771 C772 1.398 . S
C772 H760 0.950 . S
C772 C771 1.398 . S
C772 C773 1.391 . S
C773 H761 0.950 . S
C773 C769 1.393 . S
C773 C772 1.391 . S
H774 C782 0.950 . S
H775 C787 0.950 . S
H776 C784 0.950 . S
H777 C786 0.950 . S
H778 C788 0.950 . S
H779 C790 0.950 . S
H780 C792 0.950 . S
H781 C793 0.950 . S
C782 H774 0.950 . S
C782 C783 1.386 . S
C782 C784 1.391 . S
C783 C782 1.386 . S
C783 C787 1.393 . S
C784 H776 0.950 . S
C784 C782 1.391 . S
C784 C785 1.400 . S
C785 C784 1.400 . S
C785 C786 1.398 . S
C785 C791 1.491 . S
C786 H777 0.950 . S
C786 C785 1.398 . S
C786 C787 1.391 . S
C787 H775 0.950 . S
C787 C783 1.393 . S
C787 C786 1.391 . S
C788 H778 0.950 . S
C788 C789 1.386 . S
C788 C790 1.391 . S
C789 C788 1.386 . S
C789 C793 1.393 . S
C790 H779 0.950 . S
C790 C788 1.391 . S
C790 C791 1.400 . S
C791 C785 1.491 . S
C791 C790 1.400 . S
C791 C792 1.398 . S
C792 H780 0.950 . S
C792 C791 1.398 . S
C792 C793 1.391 . S
C793 H781 0.950 . S
C793 C789 1.393 . S
C793 C792 1.391 . S
H794 C802 0.950 . S
H795 C807 0.950 . S
H796 C804 0.950 . S
H797 C806 0.950 . S
H798 C808 0.950 . S
H799 C810 0.950 . S
H800 C812 0.950 . S
H801 C813 0.950 . S
C802 H794 0.950 . S
C802 C803 1.386 . S
C802 C804 1.391 . S
C803 C802 1.386 . S
C803 C807 1.393 . S
C804 H796 0.950 . S
C804 C802 1.391 . S
C804 C805 1.400 . S
C805 C804 1.400 . S
C805 C806 1.398 . S
C805 C811 1.491 . S
C806 H797 0.950 . S
C806 C805 1.398 . S
C806 C807 1.391 . S
C807 H795 0.950 . S
C807 C803 1.393 . S
C807 C806 1.391 . S
C808 H798 0.950 . S
C808 C809 1.386 . S
C808 C810 1.391 . S
C809 C808 1.386 . S
C809 C813 1.393 . S
C810 H799 0.950 . S
C810 C808 1.391 . S
C810 C811 1.400 . S
C811 C805 1.491 . S
C811 C810 1.400 . S
C811 C812 1.398 . S
C812 H800 0.950 . S
C812 C811 1.398 . S
C812 C813 1.391 . S
C813 H801 0.950 . S
C813 C809 1.393 . S
C813 C812 1.391 . S
H814 C822 0.950 . S
H815 C827 0.950 . S
H816 C824 0.950 . S
H817 C826 0.950 . S
H818 C828 0.950 . S
H819 C830 0.950 . S
H820 C832 0.950 . S
H821 C833 0.950 . S
C822 H814 0.950 . S
C822 C823 1.386 . S
C822 C824 1.391 . S
C823 C822 1.386 . S
C823 C827 1.393 . S
C824 H816 0.950 . S
C824 C822 1.391 . S
C824 C825 1.400 . S
C825 C824 1.400 . S
C825 C826 1.398 . S
C825 C831 1.491 . S
C826 H817 0.950 . S
C826 C825 1.398 . S
C826 C827 1.391 . S
C827 H815 0.950 . S
C827 C823 1.393 . S
C827 C826 1.391 . S
C828 H818 0.950 . S
C828 C829 1.386 . S
C828 C830 1.391 . S
C829 C828 1.386 . S
C829 C833 1.393 . S
C830 H819 0.950 . S
C830 C828 1.391 . S
C830 C831 1.400 . S
C831 C825 1.491 . S
C831 C830 1.400 . S
C831 C832 1.398 . S
C832 H820 0.950 . S
C832 C831 1.398 . S
C832 C833 1.391 . S
C833 H821 0.950 . S
C833 C829 1.393 . S
C833 C832 1.391 . S
H834 C842 0.950 . S
H835 C847 0.950 . S
H836 C844 0.950 . S
H837 C846 0.950 . S
H838 C848 0.950 . S
H839 C850 0.950 . S
H840 C852 0.950 . S
H841 C853 0.950 . S
C842 H834 0.950 . S
C842 C843 1.386 . S
C842 C844 1.391 . S
C843 C842 1.386 . S
C843 C847 1.393 . S
C844 H836 0.950 . S
C844 C842 1.391 . S
C844 C845 1.400 . S
C845 C844 1.400 . S
C845 C846 1.398 . S
C845 C851 1.491 . S
C846 H837 0.950 . S
C846 C845 1.398 . S
C846 C847 1.391 . S
C847 H835 0.950 . S
C847 C843 1.393 . S
C847 C846 1.391 . S
C848 H838 0.950 . S
C848 C849 1.386 . S
C848 C850 1.391 . S
C849 C848 1.386 . S
C849 C853 1.393 . S
C850 H839 0.950 . S
C850 C848 1.391 . S
C850 C851 1.400 . S
C851 C845 1.491 . S
C851 C850 1.400 . S
C851 C852 1.398 . S
C852 H840 0.950 . S
C852 C851 1.398 . S
C852 C853 1.391 . S
C853 H841 0.950 . S
C853 C849 1.393 . S
C853 C852 1.391 . S
H854 C862 0.950 . S
H855 C867 0.950 . S
H856 C864 0.950 . S
H857 C866 0.950 . S
H858 C868 0.950 . S
H859 C870 0.950 . S
H860 C872 0.950 . S
H861 C873 0.950 . S
C862 H854 0.950 . S
C862 C863 1.386 . S
C862 C864 1.391 . S
C863 C862 1.386 . S
C863 C867 1.393 . S
C864 H856 0.950 . S
C864 C862 1.391 . S
C864 C865 1.400 . S
C865 C864 1.400 . S
C865 C866 1.398 . S
C865 C871 1.491 . S
C866 H857 0.950 . S
C866 C865 1.398 . S
C866 C867 1.391 . S
C867 H855 0.950 . S
C867 C863 1.393 . S
C867 C866 1.391 . S
C868 H858 0.950 . S
C868 C869 1.386 . S
C868 C870 1.391 . S
C869 C868 1.386 . S
C869 C873 1.393 . S
C870 H859 0.950 . S
C870 C868 1.391 . S
C870 C871 1.400 . S
C871 C865 1.491 . S
C871 C870 1.400 . S
C871 C872 1.398 . S
C872 H860 0.950 . S
C872 C871 1.398 . S
C872 C873 1.391 . S
C873 H861 0.950 . S
C873 C869 1.393 . S
C873 C872 1.391 . S
H874 C882 0.950 . S
H875 C887 0.950 . S
H876 C884 0.950 . S
H877 C886 0.950 . S
H878 C888 0.950 . S
H879 C890 0.950 . S
H880 C892 0.950 . S
H881 C893 0.950 . S
C882 H874 0.950 . S
C882 C883 1.386 . S
C882 C884 1.391 . S
C883 C882 1.386 . S
C883 C887 1.393 . S
C884 H876 0.950 . S
C884 C882 1.391 . S
C884 C885 1.400 . S
C885 C884 1.400 . S
C885 C886 1.398 . S
C885 C891 1.491 . S
C886 H877 0.950 . S
C886 C885 1.398 . S
C886 C887 1.391 . S
C887 H875 0.950 . S
C887 C883 1.393 . S
C887 C886 1.391 . S
C888 H878 0.950 . S
C888 C889 1.386 . S
C888 C890 1.391 . S
C889 C888 1.386 . S
C889 C893 1.393 . S
C890 H879 0.950 . S
C890 C888 1.391 . S
C890 C891 1.400 . S
C891 C885 1.491 . S
C891 C890 1.400 . S
C891 C892 1.398 . S
C892 H880 0.950 . S
C892 C891 1.398 . S
C892 C893 1.391 . S
C893 H881 0.950 . S
C893 C889 1.393 . S
C893 C892 1.391 . S
H894 C902 0.950 . S
H895 C907 0.950 . S
H896 C904 0.950 . S
H897 C906 0.950 . S
H898 C908 0.950 . S
H899 C910 0.950 . S
H900 C912 0.950 . S
H901 C913 0.950 . S
C902 H894 0.950 . S
C902 C903 1.386 . S
C902 C904 1.391 . S
C903 C902 1.386 . S
C903 C907 1.393 . S
C904 H896 0.950 . S
C904 C902 1.391 . S
C904 C905 1.400 . S
C905 C904 1.400 . S
C905 C906 1.398 . S
C905 C911 1.491 . S
C906 H897 0.950 . S
C906 C905 1.398 . S
C906 C907 1.391 . S
C907 H895 0.950 . S
C907 C903 1.393 . S
C907 C906 1.391 . S
C908 H898 0.950 . S
C908 C909 1.386 . S
C908 C910 1.391 . S
C909 C908 1.386 . S
C909 C913 1.393 . S
C910 H899 0.950 . S
C910 C908 1.391 . S
C910 C911 1.400 . S
C911 C905 1.491 . S
C911 C910 1.400 . S
C911 C912 1.398 . S
C912 H900 0.950 . S
C912 C911 1.398 . S
C912 C913 1.391 . S
C913 H901 0.950 . S
C913 C909 1.393 . S
C913 C912 1.391 . S
H914 C922 0.950 . S
H915 C927 0.950 . S
H916 C924 0.950 . S
H917 C926 0.950 . S
H918 C928 0.950 . S
H919 C930 0.950 . S
H920 C932 0.950 . S
H921 C933 0.950 . S
C922 H914 0.950 . S
C922 C923 1.386 . S
C922 C924 1.391 . S
C923 C922 1.386 . S
C923 C927 1.393 . S
C924 H916 0.950 . S
C924 C922 1.391 . S
C924 C925 1.400 . S
C925 C924 1.400 . S
C925 C926 1.398 . S
C925 C931 1.491 . S
C926 H917 0.950 . S
C926 C925 1.398 . S
C926 C927 1.391 . S
C927 H915 0.950 . S
C927 C923 1.393 . S
C927 C926 1.391 . S
C928 H918 0.950 . S
C928 C929 1.386 . S
C928 C930 1.391 . S
C929 C928 1.386 . S
C929 C933 1.393 . S
C930 H919 0.950 . S
C930 C928 1.391 . S
C930 C931 1.400 . S
C931 C925 1.491 . S
C931 C930 1.400 . S
C931 C932 1.398 . S
C932 H920 0.950 . S
C932 C931 1.398 . S
C932 C933 1.391 . S
C933 H921 0.950 . S
C933 C929 1.393 . S
C933 C932 1.391 . S
H934 C942 0.950 . S
H935 C947 0.950 . S
H936 C944 0.950 . S
H937 C946 0.950 . S
H938 C948 0.950 . S
H939 C950 0.950 . S
H940 C952 0.950 . S
H941 C953 0.950 . S
C942 H934 0.950 . S
C942 C943 1.386 . S
C942 C944 1.391 . S
C943 C942 1.386 . S
C943 C947 1.393 . S
C944 H936 0.950 . S
C944 C942 1.391 . S
C944 C945 1.400 . S
C945 C944 1.400 . S
C945 C946 1.398 . S
C945 C951 1.491 . S
C946 H937 0.950 . S
C946 C945 1.398 . S
C946 C947 1.391 . S
C947 H935 0.950 . S
C947 C943 1.393 . S
C947 C946 1.391 . S
C948 H938 0.950 . S
C948 C949 1.386 . S
C948 C950 1.391 . S
C949 C948 1.386 . S
C949 C953 1.393 . S
C950 H939 0.950 . S
C950 C948 1.391 . S
C950 C951 1.400 . S
C951 C945 1.491 . S
C951 C950 1.400 . S
C951 C952 1.398 . S
C952 H940 0.950 . S
C952 C951 1.398 . S
C952 C953 1.391 . S
C953 H941 0.950 . S
C953 C949 1.393 . S
C953 C952 1.391 . S
H954 C962 0.950 . S
H955 C967 0.950 . S
H956 C964 0.950 . S
H957 C966 0.950 . S
H958 C968 0.950 . S
H959 C970 0.950 . S
H960 C972 0.950 . S
H961 C973 0.950 . S
C962 H954 0.950 . S
C962 C963 1.386 . S
C962 C964 1.391 . S
C963 C962 1.386 . S
C963 C967 1.393 . S
C964 H956 0.950 . S
C964 C962 1.391 . S
C964 C965 1.400 . S
C965 C964 1.400 . S
C965 C966 1.398 . S
C965 C971 1.491 . S
C966 H957 0.950 . S
C966 C965 1.398 . S
C966 C967 1.391 . S
C967 H955 0.950 . S
C967 C963 1.393 . S
C967 C966 1.391 . S
C968 H958 0.950 . S
C968 C969 1.386 . S
C968 C970 1.391 . S
C969 C968 1.386 . S
C969 C973 1.393 . S
C970 H959 0.950 . S
C970 C968 1.391 . S
C970 C971 1.400 . S
C971 C965 1.491 . S
C971 C970 1.400 . S
C971 C972 1.398 . S
C972 H960 0.950 . S
C972 C971 1.398 . S
C972 C973 1.391 . S
C973 H961 0.950 . S
C973 C969 1.393 . S
C973 C972 1.391 . S
H974 C982 0.950 . S
H975 C987 0.950 . S
H976 C984 0.950 . S
H977 C986 0.950 . S
H978 C988 0.950 . S
H979 C990 0.950 . S
H980 C992 0.950 . S
H981 C993 0.950 . S
C982 H974 0.950 . S
C982 C983 1.386 . S
C982 C984 1.391 . S
C983 C982 1.386 . S
C983 C987 1.393 . S
C984 H976 0.950 . S
C984 C982 1.391 . S
C984 C985 1.400 . S
C985 C984 1.400 . S
C985 C986 1.398 . S
C985 C991 1.491 . S
C986 H977 0.950 . S
C986 C985 1.398 . S
C986 C987 1.391 . S
C987 H975 0.950 . S
C987 C983 1.393 . S
C987 C986 1.391 . S
C988 H978 0.950 . S
C988 C989 1.386 . S
C988 C990 1.391 . S
C989 C988 1.386 . S
C989 C993 1.393 . S
C990 H979 0.950 . S
C990 C988 1.391 . S
C990 C991 1.400 . S
C991 C985 1.491 . S
C991 C990 1.400 . S
C991 C992 1.398 . S
C992 H980 0.950 . S
C992 C991 1.398 . S
C992 C993 1.391 . S
C993 H981 0.950 . S
C993 C989 1.393 . S
C993 C992 1.391 . S
H994 C1002 0.950 . S
H995 C1007 0.950 . S
H996 C1004 0.950 . S
H997 C1006 0.950 . S
H998 C1008 0.950 . S
H999 C1010 0.950 . S
H1000 C1012 0.950 . S
H1001 C1013 0.950 . S
C1002 H994 0.950 . S
C1002 C1003 1.386 . S
C1002 C1004 1.391 . S
C1003 C1002 1.386 . S
C1003 C1007 1.393 . S
C1004 H996 0.950 . S
C1004 C1002 1.391 . S
C1004 C1005 1.400 . S
C1005 C1004 1.400 . S
C1005 C1006 1.398 . S
C1005 C1011 1.491 . S
C1006 H997 0.950 . S
C1006 C1005 1.398 . S
C1006 C1007 1.391 . S
C1007 H995 0.950 . S
C1007 C1003 1.393 . S
C1007 C1006 1.391 . S
C1008 H998 0.950 . S
C1008 C1009 1.386 . S
C1008 C1010 1.391 . S
C1009 C1008 1.386 . S
C1009 C1013 1.393 . S
C1010 H999 0.950 . S
C1010 C1008 1.391 . S
C1010 C1011 1.400 . S
C1011 C1005 1.491 . S
C1011 C1010 1.400 . S
C1011 C1012 1.398 . S
C1012 H1000 0.950 . S
C1012 C1011 1.398 . S
C1012 C1013 1.391 . S
C1013 H1001 0.950 . S
C1013 C1009 1.393 . S
C1013 C1012 1.391 . S
H1014 C1022 0.950 . S
H1015 C1027 0.950 . S
H1016 C1024 0.950 . S
H1017 C1026 0.950 . S
H1018 C1028 0.950 . S
H1019 C1030 0.950 . S
H1020 C1032 0.950 . S
H1021 C1033 0.950 . S
C1022 H1014 0.950 . S
C1022 C1023 1.386 . S
C1022 C1024 1.391 . S
C1023 C1022 1.386 . S
C1023 C1027 1.393 . S
C1024 H1016 0.950 . S
C1024 C1022 1.391 . S
C1024 C1025 1.400 . S
C1025 C1024 1.400 . S
C1025 C1026 1.398 . S
C1025 C1031 1.491 . S
C1026 H1017 0.950 . S
C1026 C1025 1.398 . S
C1026 C1027 1.391 . S
C1027 H1015 0.950 . S
C1027 C1023 1.393 . S
C1027 C1026 1.391 . S
C1028 H1018 0.950 . S
C1028 C1029 1.386 . S
C1028 C1030 1.391 . S
C1029 C1028 1.386 . S
C1029 C1033 1.393 . S
C1030 H1019 0.950 . S
C1030 C1028 1.391 . S
C1030 C1031 1.400 . S
C1031 C1025 1.491 . S
C1031 C1030 1.400 . S
C1031 C1032 1.398 . S
C1032 H1020 0.950 . S
C1032 C1031 1.398 . S
C1032 C1033 1.391 . S
C1033 H1021 0.950 . S
C1033 C1029 1.393 . S
C1033 C1032 1.391 . S
H1034 C1042 0.950 . S
H1035 C1047 0.950 . S
H1036 C1044 0.950 . S
H1037 C1046 0.950 . S
H1038 C1048 0.950 . S
H1039 C1050 0.950 . S
H1040 C1052 0.950 . S
H1041 C1053 0.950 . S
C1042 H1034 0.950 . S
C1042 C1043 1.386 . S
C1042 C1044 1.391 . S
C1043 C1042 1.386 . S
C1043 C1047 1.393 . S
C1044 H1036 0.950 . S
C1044 C1042 1.391 . S
C1044 C1045 1.400 . S
C1045 C1044 1.400 . S
C1045 C1046 1.398 . S
C1045 C1051 1.491 . S
C1046 H1037 0.950 . S
C1046 C1045 1.398 . S
C1046 C1047 1.391 . S
C1047 H1035 0.950 . S
C1047 C1043 1.393 . S
C1047 C1046 1.391 . S
C1048 H1038 0.950 . S
C1048 C1049 1.386 . S
C1048 C1050 1.391 . S
C1049 C1048 1.386 . S
C1049 C1053 1.393 . S
C1050 H1039 0.950 . S
C1050 C1048 1.391 . S
C1050 C1051 1.400 . S
C1051 C1045 1.491 . S
C1051 C1050 1.400 . S
C1051 C1052 1.398 . S
C1052 H1040 0.950 . S
C1052 C1051 1.398 . S
C1052 C1053 1.391 . S
C1053 H1041 0.950 . S
C1053 C1049 1.393 . S
C1053 C1052 1.391 . S
H1054 C1062 0.950 . S
H1055 C1067 0.950 . S
H1056 C1064 0.950 . S
H1057 C1066 0.950 . S
H1058 C1068 0.950 . S
H1059 C1070 0.950 . S
H1060 C1072 0.950 . S
H1061 C1073 0.950 . S
C1062 H1054 0.950 . S
C1062 C1063 1.386 . S
C1062 C1064 1.391 . S
C1063 C1062 1.386 . S
C1063 C1067 1.393 . S
C1064 H1056 0.950 . S
C1064 C1062 1.391 . S
C1064 C1065 1.400 . S
C1065 C1064 1.400 . S
C1065 C1066 1.398 . S
C1065 C1071 1.491 . S
C1066 H1057 0.950 . S
C1066 C1065 1.398 . S
C1066 C1067 1.391 . S
C1067 H1055 0.950 . S
C1067 C1063 1.393 . S
C1067 C1066 1.391 . S
C1068 H1058 0.950 . S
C1068 C1069 1.386 . S
C1068 C1070 1.391 . S
C1069 C1068 1.386 . S
C1069 C1073 1.393 . S
C1070 H1059 0.950 . S
C1070 C1068 1.391 . S
C1070 C1071 1.400 . S
C1071 C1065 1.491 . S
C1071 C1070 1.400 . S
C1071 C1072 1.398 . S
C1072 H1060 0.950 . S
C1072 C1071 1.398 . S
C1072 C1073 1.391 . S
C1073 H1061 0.950 . S
C1073 C1069 1.393 . S
C1073 C1072 1.391 . S
C603 C39 1.772 . S
C609 C340 1.750 . S
C623 C91 1.748 . S
C629 C379 1.738 . S
C649 C411 1.588 . S
C643 C128 1.614 . S
C669 C457 1.536 . S
C663 C188 1.561 . S
C689 C524 1.661 . S
C683 C250 1.669 . S
C709 C563 1.732 . S
C703 C304 1.751 . S
C723 C75 1.657 . S
C729 C425 1.633 . S
C743 C144 1.769 . S
C749 C471 1.753 . S
C769 C510 1.682 . S
C763 C198 1.711 . S
C789 C549 1.553 . S
C783 C234 1.581 . S
C803 C294 1.555 . S
C809 C326 1.536 . S
C829 C365 1.552 . S
C823 C29 1.577 . S
C849 C464 1.751 . S
C843 C38 1.773 . S
C863 C92 1.745 . S
C869 C517 1.718 . S
C889 C570 1.578 . S
C883 C135 1.610 . S
C903 C181 1.559 . S
C909 C333 1.531 . S
C923 C251 1.663 . S
C929 C386 1.636 . S
C943 C303 1.747 . S
C949 C418 1.727 . S
C963 C82 1.660 . S
C969 C556 1.640 . S
C989 C319 1.753 . S
C983 C145 1.769 . S
C1003 C197 1.709 . S
C1009 C372 1.692 . S
C1023 C241 1.581 . S
C1029 C432 1.554 . S
C1043 C287 1.553 . S
C1049 C478 1.529 . S
C1063 C22 1.577 . S
C1069 C503 1.567 . S
