# Generated by pormake.
# Topology ssb, (4,4)-cn, num edge types: 1
# Building blocks:
#     Node 0, Type 0, BuildingBlock: MIFKUJ_clean_linker_1, # of connection points: 4
#     Node 1, Type 0, BuildingBlock: MIFKUJ_clean_linker_1, # of connection points: 4
#     Node 2, Type 0, BuildingBlock: MIFKUJ_clean_linker_1, # of connection points: 4
#     Node 3, Type 0, BuildingBlock: MIFKUJ_clean_linker_1, # of connection points: 4
#     Node 4, Type 0, BuildingBlock: MIFKUJ_clean_linker_1, # of connection points: 4
#     Node 5, Type 0, BuildingBlock: MIFKUJ_clean_linker_1, # of connection points: 4
#     Node 6, Type 0, BuildingBlock: MIFKUJ_clean_linker_1, # of connection points: 4
#     Node 7, Type 0, BuildingBlock: MIFKUJ_clean_linker_1, # of connection points: 4
#     Node 8, Type 1, BuildingBlock: KOZSID_clean_sbu_0, # of connection points: 4
#     Node 9, Type 1, BuildingBlock: KOZSID_clean_sbu_0, # of connection points: 4
#     Node 10, Type 1, BuildingBlock: KOZSID_clean_sbu_0, # of connection points: 4
#     Node 11, Type 1, BuildingBlock: KOZSID_clean_sbu_0, # of connection points: 4
#     Node 12, Type 1, BuildingBlock: KOZSID_clean_sbu_0, # of connection points: 4
#     Node 13, Type 1, BuildingBlock: KOZSID_clean_sbu_0, # of connection points: 4
#     Node 14, Type 1, BuildingBlock: KOZSID_clean_sbu_0, # of connection points: 4
#     Node 15, Type 1, BuildingBlock: KOZSID_clean_sbu_0, # of connection points: 4
#     Edge 16, Type (0, 1), BuildingBlock: OJICUG_clean_linker_0, # of connection points: 2
#     Edge 17, Type (0, 1), BuildingBlock: OJICUG_clean_linker_0, # of connection points: 2
#     Edge 18, Type (0, 1), BuildingBlock: OJICUG_clean_linker_0, # of connection points: 2
#     Edge 19, Type (0, 1), BuildingBlock: OJICUG_clean_linker_0, # of connection points: 2
#     Edge 20, Type (0, 1), BuildingBlock: OJICUG_clean_linker_0, # of connection points: 2
#     Edge 21, Type (0, 1), BuildingBlock: OJICUG_clean_linker_0, # of connection points: 2
#     Edge 22, Type (0, 1), BuildingBlock: OJICUG_clean_linker_0, # of connection points: 2
#     Edge 23, Type (0, 1), BuildingBlock: OJICUG_clean_linker_0, # of connection points: 2
#     Edge 24, Type (0, 1), BuildingBlock: OJICUG_clean_linker_0, # of connection points: 2
#     Edge 25, Type (0, 1), BuildingBlock: OJICUG_clean_linker_0, # of connection points: 2
#     Edge 26, Type (0, 1), BuildingBlock: OJICUG_clean_linker_0, # of connection points: 2
#     Edge 27, Type (0, 1), BuildingBlock: OJICUG_clean_linker_0, # of connection points: 2
#     Edge 28, Type (0, 1), BuildingBlock: OJICUG_clean_linker_0, # of connection points: 2
#     Edge 29, Type (0, 1), BuildingBlock: OJICUG_clean_linker_0, # of connection points: 2
#     Edge 30, Type (0, 1), BuildingBlock: OJICUG_clean_linker_0, # of connection points: 2
#     Edge 31, Type (0, 1), BuildingBlock: OJICUG_clean_linker_0, # of connection points: 2
#     Edge 32, Type (0, 1), BuildingBlock: OJICUG_clean_linker_0, # of connection points: 2
#     Edge 33, Type (0, 1), BuildingBlock: OJICUG_clean_linker_0, # of connection points: 2
#     Edge 34, Type (0, 1), BuildingBlock: OJICUG_clean_linker_0, # of connection points: 2
#     Edge 35, Type (0, 1), BuildingBlock: OJICUG_clean_linker_0, # of connection points: 2
#     Edge 36, Type (0, 1), BuildingBlock: OJICUG_clean_linker_0, # of connection points: 2
#     Edge 37, Type (0, 1), BuildingBlock: OJICUG_clean_linker_0, # of connection points: 2
#     Edge 38, Type (0, 1), BuildingBlock: OJICUG_clean_linker_0, # of connection points: 2
#     Edge 39, Type (0, 1), BuildingBlock: OJICUG_clean_linker_0, # of connection points: 2
#     Edge 40, Type (0, 1), BuildingBlock: OJICUG_clean_linker_0, # of connection points: 2
#     Edge 41, Type (0, 1), BuildingBlock: OJICUG_clean_linker_0, # of connection points: 2
#     Edge 42, Type (0, 1), BuildingBlock: OJICUG_clean_linker_0, # of connection points: 2
#     Edge 43, Type (0, 1), BuildingBlock: OJICUG_clean_linker_0, # of connection points: 2
#     Edge 44, Type (0, 1), BuildingBlock: OJICUG_clean_linker_0, # of connection points: 2
#     Edge 45, Type (0, 1), BuildingBlock: OJICUG_clean_linker_0, # of connection points: 2
#     Edge 46, Type (0, 1), BuildingBlock: OJICUG_clean_linker_0, # of connection points: 2
#     Edge 47, Type (0, 1), BuildingBlock: OJICUG_clean_linker_0, # of connection points: 2
# Relax obj value: 0.003
# Max RMSD: 0.028
# Mean RMSD: 0.017
data_MOF--net-ssb--node1-KOZSID_clean_sbu_0--node2-MIFKUJ_clean_linker_1--edge1-OJICUG_clean_linker_0
_symmetry_space_group_name_H-M    P1
_symmetry_Int_Tables_number       1
_symmetry_cell_setting            triclinic
loop_
_symmetry_equiv_pos_as_xyz
'x, y, z'
_cell_length_a     50.419448
_cell_length_b     50.13798
_cell_length_c     37.09166
_cell_angle_alpha  92.650668
_cell_angle_beta   95.447688
_cell_angle_gamma 90.000785
loop_
_atom_site_label
_atom_site_type_symbol
_atom_site_fract_x
_atom_site_fract_y
_atom_site_fract_z
_atom_type_partial_charge
H0 H 0.30097 0.21062 0.21432 0.0
H1 H 0.34011 0.21351 0.18019 0.0
H2 H 0.35377 0.29459 0.22189 0.0
H3 H 0.31555 0.29129 0.25756 0.0
H4 H 0.29333 0.21183 0.2812 0.0
H5 H 0.26756 0.26927 0.18369 0.0
H6 H 0.26915 0.30723 0.14475 0.0
H7 H 0.25597 0.36103 0.23543 0.0
H8 H 0.25502 0.32312 0.27449 0.0
H9 H 0.23044 0.27605 0.36239 0.0
H10 H 0.19306 0.2747 0.39936 0.0
H11 H 0.15521 0.21404 0.32477 0.0
H12 H 0.19388 0.21422 0.28982 0.0
H13 H 0.22497 0.28296 0.27889 0.0
H14 H 0.25315 0.22457 0.37608 0.0
H15 H 0.2497 0.18635 0.41361 0.0
H16 H 0.25706 0.13317 0.3201 0.0
H17 H 0.25883 0.17166 0.28228 0.0
C18 C 0.3049 0.25089 0.23808 0.0
C19 C 0.31253 0.22894 0.21651 0.0
C20 C 0.33483 0.23059 0.19697 0.0
C21 C 0.34972 0.25434 0.19825 0.0
C22 C 0.34237 0.27618 0.22014 0.0
C23 C 0.32046 0.27432 0.24035 0.0
C24 C 0.2808 0.24926 0.25826 0.0
C25 C 0.27816 0.22718 0.28025 0.0
C26 C 0.26113 0.26968 0.25707 0.0
C27 C 0.26155 0.29298 0.23256 0.0
C28 C 0.26534 0.28921 0.19548 0.0
C29 C 0.26623 0.31107 0.17306 0.0
C30 C 0.26277 0.33743 0.18673 0.0
C31 C 0.25848 0.34113 0.22365 0.0
C32 C 0.25793 0.31931 0.24615 0.0
C33 C 0.2149 0.24515 0.32359 0.0
C34 C 0.21407 0.2624 0.35425 0.0
C35 C 0.19247 0.26172 0.37516 0.0
C36 C 0.17072 0.24436 0.36519 0.0
C37 C 0.17163 0.22731 0.33398 0.0
C38 C 0.19363 0.22753 0.31364 0.0
C39 C 0.23794 0.24588 0.30177 0.0
C40 C 0.24019 0.26766 0.27943 0.0
C41 C 0.25701 0.22508 0.30224 0.0
C42 C 0.25561 0.20138 0.3258 0.0
C43 C 0.25342 0.20474 0.36332 0.0
C44 C 0.25193 0.18261 0.38509 0.0
C45 C 0.253 0.15621 0.3703 0.0
C46 C 0.25561 0.15293 0.33276 0.0
C47 C 0.25692 0.1751 0.31096 0.0
H48 H 0.6826 0.27103 0.27548 0.0
H49 H 0.64078 0.2722 0.23664 0.0
H50 H 0.68472 0.26527 0.14193 0.0
H51 H 0.72647 0.26554 0.18123 0.0
H52 H 0.71938 0.22778 0.27271 0.0
H53 H 0.71439 0.32136 0.25804 0.0
H54 H 0.71071 0.3626 0.22511 0.0
H55 H 0.78555 0.3453 0.18152 0.0
H56 H 0.78868 0.30351 0.21308 0.0
H57 H 0.83125 0.25774 0.27727 0.0
H58 H 0.87311 0.25358 0.31528 0.0
H59 H 0.82913 0.2381 0.40679 0.0
H60 H 0.78756 0.2445 0.36939 0.0
H61 H 0.79375 0.29313 0.28014 0.0
H62 H 0.78607 0.19286 0.27464 0.0
H63 H 0.78502 0.14875 0.30008 0.0
H64 H 0.73651 0.18073 0.38208 0.0
H65 H 0.73622 0.22396 0.35474 0.0
C66 C 0.70754 0.26836 0.23117 0.0
C67 C 0.68314 0.27013 0.24632 0.0
C68 C 0.65924 0.27051 0.22401 0.0
C69 C 0.65922 0.26852 0.18601 0.0
C70 C 0.68386 0.26721 0.17099 0.0
C71 C 0.70779 0.26727 0.19338 0.0
C72 C 0.73254 0.26534 0.2549 0.0
C73 C 0.73552 0.24227 0.27457 0.0
C74 C 0.75379 0.2839 0.25677 0.0
C75 C 0.75156 0.30907 0.23746 0.0
C76 C 0.72978 0.32617 0.24091 0.0
C77 C 0.72779 0.3498 0.22243 0.0
C78 C 0.7479 0.35698 0.20103 0.0
C79 C 0.76996 0.34022 0.19822 0.0
C80 C 0.77171 0.31638 0.21615 0.0
C81 C 0.80615 0.251 0.32021 0.0
C82 C 0.83065 0.25347 0.30555 0.0
C83 C 0.85462 0.25077 0.3273 0.0
C84 C 0.85464 0.24537 0.36422 0.0
C85 C 0.83001 0.24257 0.37866 0.0
C86 C 0.80609 0.2457 0.35703 0.0
C87 C 0.78075 0.2553 0.29744 0.0
C88 C 0.77764 0.27863 0.27804 0.0
C89 C 0.75935 0.23698 0.29538 0.0
C90 C 0.76136 0.21143 0.31312 0.0
C91 C 0.77538 0.19018 0.29822 0.0
C92 C 0.77478 0.16507 0.31287 0.0
C93 C 0.76043 0.16104 0.34294 0.0
C94 C 0.74709 0.1828 0.35829 0.0
C95 C 0.74719 0.20764 0.34311 0.0
H96 H 0.70899 0.78827 0.19101 0.0
H97 H 0.6672 0.78677 0.15173 0.0
H98 H 0.64697 0.71192 0.19577 0.0
H99 H 0.68859 0.71385 0.23562 0.0
H100 H 0.71583 0.79106 0.26377 0.0
H101 H 0.73645 0.72904 0.16718 0.0
H102 H 0.73343 0.68941 0.12616 0.0
H103 H 0.74931 0.63961 0.21767 0.0
H104 H 0.75098 0.67923 0.25859 0.0
H105 H 0.7909 0.7223 0.34121 0.0
H106 H 0.83394 0.72331 0.37777 0.0
H107 H 0.85338 0.79752 0.33139 0.0
H108 H 0.81051 0.79611 0.29435 0.0
H109 H 0.78327 0.71911 0.26828 0.0
H110 H 0.76401 0.7814 0.36478 0.0
H111 H 0.76799 0.82112 0.40553 0.0
H112 H 0.75001 0.87066 0.31419 0.0
H113 H 0.7475 0.83094 0.27344 0.0
C114 C 0.70198 0.75108 0.21603 0.0
C115 C 0.69556 0.77152 0.19215 0.0
C116 C 0.67177 0.77055 0.16956 0.0
C117 C 0.65382 0.7492 0.17061 0.0
C118 C 0.6603 0.72873 0.19456 0.0
C119 C 0.68417 0.72968 0.21709 0.0
C120 C 0.72684 0.75275 0.24075 0.0
C121 C 0.73085 0.77555 0.26455 0.0
C122 C 0.74586 0.73185 0.24196 0.0
C123 C 0.74356 0.70745 0.2164 0.0
C124 C 0.73881 0.7096 0.1786 0.0
C125 C 0.73747 0.68675 0.15495 0.0
C126 C 0.7411 0.66093 0.16823 0.0
C127 C 0.74594 0.65889 0.2061 0.0
C128 C 0.74717 0.68172 0.22971 0.0
C129 C 0.79746 0.75921 0.31528 0.0
C130 C 0.8044 0.73885 0.3391 0.0
C131 C 0.82891 0.73953 0.36008 0.0
C132 C 0.84704 0.76046 0.35736 0.0
C133 C 0.83992 0.78099 0.33375 0.0
C134 C 0.81535 0.78036 0.31288 0.0
C135 C 0.77227 0.7574 0.29129 0.0
C136 C 0.76822 0.73459 0.26759 0.0
C137 C 0.75327 0.77831 0.29015 0.0
C138 C 0.75584 0.80282 0.31558 0.0
C139 C 0.76139 0.8008 0.3533 0.0
C140 C 0.76328 0.82372 0.37683 0.0
C141 C 0.75937 0.84951 0.36355 0.0
C142 C 0.75365 0.85142 0.32576 0.0
C143 C 0.75191 0.82851 0.30225 0.0
H144 H 0.20255 0.72349 0.29655 0.0
H145 H 0.16588 0.72536 0.33517 0.0
H146 H 0.1432 0.80243 0.29551 0.0
H147 H 0.17914 0.80003 0.2554 0.0
H148 H 0.20745 0.7204 0.2302 0.0
H149 H 0.23549 0.78593 0.32256 0.0
H150 H 0.23852 0.82667 0.36131 0.0
H151 H 0.2374 0.87378 0.26637 0.0
H152 H 0.23297 0.83295 0.22771 0.0
H153 H 0.27922 0.78995 0.16193 0.0
H154 H 0.32062 0.7879 0.13228 0.0
H155 H 0.3416 0.71461 0.18414 0.0
H156 H 0.301 0.71742 0.21564 0.0
H157 H 0.27087 0.79576 0.22884 0.0
H158 H 0.25215 0.72392 0.13908 0.0
H159 H 0.26262 0.68103 0.11023 0.0
H160 H 0.2523 0.64241 0.21001 0.0
H161 H 0.24428 0.68557 0.2394 0.0
C162 C 0.19397 0.76173 0.27313 0.0
C163 C 0.18952 0.74067 0.29563 0.0
C164 C 0.16859 0.74175 0.31783 0.0
C165 C 0.1518 0.76409 0.31845 0.0
C166 C 0.15605 0.78511 0.29584 0.0
C167 C 0.17668 0.78378 0.27303 0.0
C168 C 0.2169 0.76054 0.25034 0.0
C169 C 0.22136 0.7369 0.23015 0.0
C170 C 0.23496 0.78203 0.24926 0.0
C171 C 0.23371 0.80655 0.27236 0.0
C172 C 0.23519 0.80507 0.31012 0.0
C173 C 0.23735 0.82832 0.33218 0.0
C174 C 0.23854 0.85334 0.31681 0.0
C175 C 0.23632 0.85479 0.27893 0.0
C176 C 0.23391 0.83153 0.25686 0.0
C177 C 0.28659 0.75359 0.1906 0.0
C178 C 0.29274 0.77348 0.16717 0.0
C179 C 0.31634 0.77232 0.1502 0.0
C180 C 0.33407 0.75102 0.15584 0.0
C181 C 0.32803 0.73107 0.17913 0.0
C182 C 0.30474 0.73259 0.19689 0.0
C183 C 0.26169 0.75553 0.20934 0.0
C184 C 0.2567 0.77942 0.22841 0.0
C185 C 0.24361 0.734 0.21014 0.0
C186 C 0.24781 0.70794 0.19149 0.0
C187 C 0.25249 0.70621 0.15478 0.0
C188 C 0.25821 0.68163 0.13825 0.0
C189 C 0.25851 0.65826 0.15787 0.0
C190 C 0.25297 0.66005 0.19433 0.0
C191 C 0.24788 0.68467 0.21103 0.0
H192 H 0.18234 0.76972 0.75291 0.0
H193 H 0.14071 0.77041 0.71415 0.0
H194 H 0.18489 0.77809 0.62061 0.0
H195 H 0.2264 0.77472 0.65922 0.0
H196 H 0.21852 0.73525 0.75746 0.0
H197 H 0.21709 0.82767 0.7258 0.0
H198 H 0.2149 0.86576 0.68686 0.0
H199 H 0.28883 0.84107 0.64573 0.0
H200 H 0.29019 0.80237 0.68345 0.0
H201 H 0.32946 0.75019 0.75442 0.0
H202 H 0.37143 0.74494 0.79199 0.0
H203 H 0.33091 0.76222 0.8881 0.0
H204 H 0.28886 0.76615 0.85023 0.0
H205 H 0.29551 0.79585 0.75204 0.0
H206 H 0.29711 0.70442 0.78781 0.0
H207 H 0.29872 0.66732 0.82847 0.0
H208 H 0.22343 0.69198 0.865 0.0
H209 H 0.22235 0.72976 0.82541 0.0
C210 C 0.20762 0.77245 0.70917 0.0
C211 C 0.18306 0.7714 0.72401 0.0
C212 C 0.15917 0.77218 0.70173 0.0
C213 C 0.1592 0.77446 0.66404 0.0
C214 C 0.1839 0.7759 0.64934 0.0
C215 C 0.20779 0.77447 0.67156 0.0
C216 C 0.23291 0.77008 0.7329 0.0
C217 C 0.2352 0.74881 0.75686 0.0
C218 C 0.25487 0.78763 0.73106 0.0
C219 C 0.25362 0.81157 0.70754 0.0
C220 C 0.23271 0.83019 0.7081 0.0
C221 C 0.23166 0.85233 0.68595 0.0
C222 C 0.25164 0.85684 0.66267 0.0
C223 C 0.27273 0.83832 0.66255 0.0
C224 C 0.27371 0.81615 0.68459 0.0
C225 C 0.30613 0.75842 0.79962 0.0
C226 C 0.32971 0.75277 0.78362 0.0
C227 C 0.35371 0.74992 0.80518 0.0
C228 C 0.35468 0.75318 0.84319 0.0
C229 C 0.33091 0.75904 0.85903 0.0
C230 C 0.30686 0.76152 0.83745 0.0
C231 C 0.28079 0.7613 0.77661 0.0
C232 C 0.27861 0.78256 0.75279 0.0
C233 C 0.25881 0.744 0.779 0.0
C234 C 0.25988 0.72068 0.80369 0.0
C235 C 0.28117 0.70238 0.80508 0.0
C236 C 0.28202 0.6809 0.82833 0.0
C237 C 0.26126 0.67652 0.85032 0.0
C238 C 0.23972 0.69448 0.8484 0.0
C239 C 0.2391 0.71622 0.82562 0.0
H240 H 0.31645 0.27088 0.79602 0.0
H241 H 0.36003 0.2744 0.83056 0.0
H242 H 0.32296 0.26323 0.9294 0.0
H243 H 0.27927 0.26134 0.89456 0.0
H244 H 0.28128 0.22527 0.79656 0.0
H245 H 0.28421 0.31886 0.81611 0.0
H246 H 0.28796 0.36276 0.84744 0.0
H247 H 0.22138 0.34365 0.90713 0.0
H248 H 0.2183 0.29931 0.87644 0.0
H249 H 0.16897 0.24841 0.79241 0.0
H250 H 0.12888 0.24654 0.74975 0.0
H251 H 0.17759 0.25579 0.66111 0.0
H252 H 0.21746 0.2563 0.70384 0.0
H253 H 0.20772 0.29053 0.80245 0.0
H254 H 0.20237 0.19729 0.76875 0.0
H255 H 0.2014 0.15554 0.7315 0.0
H256 H 0.27575 0.17729 0.69154 0.0
H257 H 0.27626 0.21934 0.72757 0.0
C258 C 0.29475 0.26585 0.84281 0.0
C259 C 0.31778 0.26949 0.82521 0.0
C260 C 0.34271 0.27125 0.84503 0.0
C261 C 0.34522 0.26875 0.88286 0.0
C262 C 0.3219 0.26559 0.90044 0.0
C263 C 0.29688 0.26434 0.88059 0.0
C264 C 0.26873 0.26208 0.82119 0.0
C265 C 0.26522 0.23962 0.79759 0.0
C266 C 0.24767 0.2804 0.82328 0.0
C267 C 0.25124 0.30583 0.84447 0.0
C268 C 0.27084 0.32392 0.83656 0.0
C269 C 0.27272 0.34907 0.85407 0.0
C270 C 0.25485 0.35656 0.87947 0.0
C271 C 0.23554 0.33823 0.88786 0.0
C272 C 0.23369 0.31302 0.87034 0.0
C273 C 0.19613 0.25221 0.7512 0.0
C274 C 0.17091 0.24984 0.76372 0.0
C275 C 0.148 0.249 0.73927 0.0
C276 C 0.14986 0.25104 0.70182 0.0
C277 C 0.17529 0.2536 0.68955 0.0
C278 C 0.19816 0.25403 0.71396 0.0
C279 C 0.22039 0.25389 0.77705 0.0
C280 C 0.22354 0.27589 0.80171 0.0
C281 C 0.24143 0.23542 0.77526 0.0
C282 C 0.23934 0.21141 0.75074 0.0
C283 C 0.21813 0.19334 0.75134 0.0
C284 C 0.21767 0.1695 0.73039 0.0
C285 C 0.23869 0.16333 0.70929 0.0
C286 C 0.25958 0.1816 0.70817 0.0
C287 C 0.25982 0.20555 0.72858 0.0
H288 H 0.72041 0.22652 0.84437 0.0
H289 H 0.68346 0.22901 0.8823 0.0
H290 H 0.64847 0.29231 0.81817 0.0
H291 H 0.68651 0.29066 0.78197 0.0
H292 H 0.71771 0.21842 0.76497 0.0
H293 H 0.74374 0.28265 0.86299 0.0
H294 H 0.74021 0.32268 0.9021 0.0
H295 H 0.74606 0.37157 0.81024 0.0
H296 H 0.74802 0.33131 0.77091 0.0
H297 H 0.78849 0.29164 0.70056 0.0
H298 H 0.8279 0.29062 0.6667 0.0
H299 H 0.84721 0.21219 0.70434 0.0
H300 H 0.8086 0.21371 0.73977 0.0
H301 H 0.78283 0.2927 0.76761 0.0
H302 H 0.75838 0.22887 0.66904 0.0
H303 H 0.76161 0.18901 0.62951 0.0
H304 H 0.751 0.13968 0.71963 0.0
H305 H 0.74962 0.17961 0.75942 0.0
C306 C 0.70619 0.25845 0.81051 0.0
C307 C 0.70473 0.24091 0.8386 0.0
C308 C 0.68341 0.24228 0.8601 0.0
C309 C 0.66268 0.26081 0.85342 0.0
C310 C 0.66416 0.27813 0.82477 0.0
C311 C 0.68579 0.27707 0.80374 0.0
C312 C 0.72919 0.25733 0.78843 0.0
C313 C 0.73223 0.23444 0.76559 0.0
C314 C 0.74745 0.27889 0.78909 0.0
C315 C 0.74562 0.30361 0.81352 0.0
C316 C 0.74373 0.30192 0.85098 0.0
C317 C 0.74214 0.32505 0.87362 0.0
C318 C 0.74278 0.35075 0.85969 0.0
C319 C 0.74498 0.35236 0.82219 0.0
C320 C 0.7464 0.32919 0.79955 0.0
C321 C 0.79522 0.25259 0.7224 0.0
C322 C 0.80127 0.27427 0.70181 0.0
C323 C 0.82374 0.27369 0.68244 0.0
C324 C 0.84043 0.25128 0.68283 0.0
C325 C 0.83445 0.22957 0.70332 0.0
C326 C 0.8123 0.23039 0.72337 0.0
C327 C 0.77158 0.25369 0.74366 0.0
C328 C 0.76833 0.27664 0.76652 0.0
C329 C 0.75298 0.23222 0.74267 0.0
C330 C 0.75421 0.20762 0.71774 0.0
C331 C 0.75717 0.2095 0.68055 0.0
C332 C 0.75863 0.18645 0.65766 0.0
C333 C 0.75667 0.16064 0.67095 0.0
C334 C 0.75319 0.1589 0.7081 0.0
C335 C 0.75205 0.18193 0.73103 0.0
H336 H 0.78718 0.73252 0.68183 0.0
H337 H 0.82334 0.73569 0.643 0.0
H338 H 0.86659 0.78773 0.72463 0.0
H339 H 0.82935 0.78578 0.76194 0.0
H340 H 0.78841 0.71575 0.75592 0.0
H341 H 0.76332 0.78703 0.68345 0.0
H342 H 0.76242 0.82885 0.65251 0.0
H343 H 0.77566 0.87267 0.75578 0.0
H344 H 0.77739 0.83041 0.78676 0.0
H345 H 0.73483 0.77799 0.85837 0.0
H346 H 0.69637 0.77586 0.89341 0.0
H347 H 0.65447 0.72758 0.80627 0.0
H348 H 0.69382 0.72845 0.77277 0.0
H349 H 0.7353 0.7962 0.78371 0.0
H350 H 0.75389 0.72159 0.85508 0.0
H351 H 0.7442 0.67933 0.88113 0.0
H352 H 0.73816 0.6402 0.77448 0.0
H353 H 0.74685 0.68303 0.74805 0.0
C354 C 0.80559 0.75891 0.72472 0.0
C355 C 0.8045 0.74459 0.69124 0.0
C356 C 0.82539 0.74633 0.66917 0.0
C357 C 0.84826 0.7619 0.68047 0.0
C358 C 0.84928 0.77596 0.7144 0.0
C359 C 0.82808 0.77468 0.73607 0.0
C360 C 0.78303 0.75767 0.74759 0.0
C361 C 0.77667 0.73329 0.76174 0.0
C362 C 0.76795 0.78055 0.75573 0.0
C363 C 0.77081 0.80566 0.73732 0.0
C364 C 0.76678 0.80556 0.69941 0.0
C365 C 0.76584 0.82947 0.68182 0.0
C366 C 0.7686 0.85393 0.70185 0.0
C367 C 0.77354 0.85404 0.73976 0.0
C368 C 0.7745 0.83001 0.75742 0.0
C369 C 0.71718 0.75328 0.81312 0.0
C370 C 0.71733 0.76688 0.84701 0.0
C371 C 0.69514 0.76578 0.86686 0.0
C372 C 0.67198 0.75162 0.85282 0.0
C373 C 0.67195 0.73823 0.81853 0.0
C374 C 0.69438 0.73888 0.79907 0.0
C375 C 0.74077 0.7544 0.79216 0.0
C376 C 0.74732 0.77876 0.77836 0.0
C377 C 0.75572 0.73141 0.78396 0.0
C378 C 0.75049 0.70557 0.79955 0.0
C379 C 0.74991 0.70409 0.83714 0.0
C380 C 0.74443 0.67997 0.852 0.0
C381 C 0.74008 0.65675 0.82964 0.0
C382 C 0.74131 0.65797 0.79212 0.0
C383 C 0.74635 0.68231 0.77712 0.0
C384 C 0.04456 0.27439 0.58444 0.0
C385 C 0.05407 0.2996 0.59628 0.0
C386 C 0.04031 0.31745 0.57516 0.0
C387 C 0.0234 0.30224 0.5515 0.0
N388 N 0.02526 0.27571 0.55645 0.0
Co389 Co 0.006 0.2464 0.52582 0.0
N390 N 0.98607 0.27279 0.49446 0.0
C391 C 0.98817 0.29973 0.49745 0.0
C392 C 0.97145 0.31257 0.47271 0.0
C393 C 0.95736 0.29269 0.45319 0.0
C394 C 0.9663 0.26878 0.46738 0.0
N395 N 0.98727 0.2171 0.49461 0.0
C396 C 0.96748 0.21839 0.46727 0.0
C397 C 0.95947 0.19312 0.45356 0.0
C398 C 0.97466 0.17527 0.47295 0.0
C399 C 0.99094 0.19053 0.49742 0.0
N400 N 0.02522 0.22002 0.55792 0.0
C401 C 0.02259 0.19312 0.55531 0.0
C402 C 0.03777 0.18029 0.58172 0.0
C403 C 0.05115 0.20014 0.60226 0.0
C404 C 0.04352 0.22402 0.58685 0.0
N405 N 0.97649 0.24746 0.55772 0.0
C406 C 0.93267 0.24881 0.60004 0.0
C407 C 0.944 0.2246 0.58923 0.0
C408 C 0.96547 0.22438 0.56804 0.0
C409 C 0.94415 0.27237 0.58969 0.0
C410 C 0.96601 0.27125 0.5691 0.0
N411 N 0.03562 0.24533 0.49374 0.0
C412 C 0.07157 0.22162 0.46746 0.0
C413 C 0.07914 0.24445 0.45057 0.0
C414 C 0.06407 0.26757 0.4553 0.0
C415 C 0.04293 0.26767 0.47707 0.0
C416 C 0.0498 0.2224 0.48822 0.0
H417 H 0.03296 0.28618 0.48 0.0
H418 H 0.04507 0.20417 0.49979 0.0
H419 H 0.97269 0.20525 0.5601 0.0
H420 H 0.97389 0.28989 0.5623 0.0
C421 C 0.00593 0.3123 0.52403 0.0
C422 C 0.05525 0.24976 0.59957 0.0
C423 C 0.95465 0.24293 0.45513 0.0
C424 C 0.0071 0.18049 0.52627 0.0
H425 H 0.0697 0.30468 0.61751 0.0
H426 H 0.04271 0.33894 0.57644 0.0
H427 H 0.96946 0.33386 0.4696 0.0
H428 H 0.94192 0.29547 0.43137 0.0
H429 H 0.94369 0.18797 0.43259 0.0
H430 H 0.97309 0.15371 0.47069 0.0
H431 H 0.03941 0.159 0.5851 0.0
H432 H 0.06539 0.19731 0.62548 0.0
H433 H 0.93647 0.20571 0.59708 0.0
H434 H 0.93612 0.29173 0.59676 0.0
H435 H 0.08257 0.20317 0.46535 0.0
H436 H 0.06835 0.28573 0.44222 0.0
C437 C 0.73553 0.05116 0.55957 0.0
C438 C 0.71063 0.06121 0.56583 0.0
C439 C 0.69221 0.0449 0.54662 0.0
C440 C 0.70674 0.02574 0.5299 0.0
N441 N 0.73339 0.02862 0.53744 0.0
Co442 Co 0.76145 0.00485 0.51804 0.0
N443 N 0.7341 0.98009 0.49115 0.0
C444 C 0.70735 0.98219 0.49117 0.0
C445 C 0.69342 0.96249 0.4707 0.0
C446 C 0.71235 0.94665 0.4569 0.0
C447 C 0.73693 0.95755 0.46989 0.0
N448 N 0.78948 0.98167 0.49745 0.0
C449 C 0.78727 0.95937 0.47482 0.0
C450 C 0.81212 0.94988 0.46735 0.0
C451 C 0.83059 0.96678 0.48541 0.0
C452 C 0.81614 0.98557 0.50299 0.0
N453 N 0.78879 0.02898 0.5462 0.0
C454 C 0.81555 0.02611 0.54765 0.0
C455 C 0.82944 0.04547 0.56888 0.0
C456 C 0.81047 0.06165 0.58201 0.0
C457 C 0.78591 0.05118 0.56815 0.0
N458 N 0.76163 0.98244 0.56048 0.0
C459 C 0.76171 0.9468 0.61659 0.0
C460 C 0.78551 0.95467 0.60386 0.0
C461 C 0.78502 0.97244 0.5761 0.0
C462 C 0.73798 0.95815 0.60216 0.0
C463 C 0.7384 0.97587 0.57436 0.0
N464 N 0.76131 0.02733 0.47558 0.0
C465 C 0.78403 0.05826 0.44111 0.0
C466 C 0.76029 0.06407 0.42045 0.0
C467 C 0.73742 0.04975 0.42631 0.0
C468 C 0.7383 0.03181 0.45401 0.0
C469 C 0.78415 0.03969 0.46781 0.0
H470 H 0.71999 0.02232 0.45789 0.0
H471 H 0.80289 0.03631 0.48244 0.0
H472 H 0.80377 0.97719 0.56715 0.0
H473 H 0.71965 0.98351 0.56404 0.0
C474 C 0.69592 0.00386 0.50887 0.0
C475 C 0.76051 0.06355 0.57587 0.0
C476 C 0.76227 0.94604 0.46045 0.0
C477 C 0.82701 0.00609 0.5267 0.0
H478 H 0.70612 0.07841 0.58285 0.0
H479 H 0.67074 0.04654 0.5455 0.0
H480 H 0.67201 0.96018 0.46586 0.0
H481 H 0.70842 0.92922 0.43887 0.0
H482 H 0.81651 0.93233 0.45092 0.0
H483 H 0.85205 0.96525 0.48618 0.0
H484 H 0.85084 0.04786 0.57362 0.0
H485 H 0.81438 0.07941 0.59939 0.0
H486 H 0.8044 0.94625 0.61401 0.0
H487 H 0.71908 0.95294 0.61169 0.0
H488 H 0.80238 0.06876 0.43803 0.0
H489 H 0.71866 0.05279 0.4103 0.0
C490 C 0.0461 0.79635 0.56012 0.0
C491 C 0.05502 0.82181 0.5718 0.0
C492 C 0.0387 0.83937 0.55362 0.0
C493 C 0.02097 0.82378 0.53172 0.0
N494 N 0.02478 0.79725 0.53497 0.0
Co495 Co 0.00462 0.76757 0.50627 0.0
N496 N 0.98215 0.79362 0.47737 0.0
C497 C 0.98374 0.82058 0.4803 0.0
C498 C 0.96512 0.83316 0.45782 0.0
C499 C 0.95049 0.81306 0.43967 0.0
C500 C 0.96119 0.78926 0.45212 0.0
N501 N 0.98441 0.73788 0.47774 0.0
C502 C 0.96314 0.73886 0.45259 0.0
C503 C 0.95466 0.71353 0.43984 0.0
C504 C 0.97085 0.69585 0.45808 0.0
C505 C 0.98826 0.71134 0.48072 0.0
N506 N 0.02716 0.74151 0.53504 0.0
C507 C 0.02553 0.71453 0.53217 0.0
C508 C 0.04347 0.70199 0.55569 0.0
C509 C 0.05774 0.72213 0.57438 0.0
C510 C 0.04777 0.74589 0.56086 0.0
N511 N 0.97785 0.76758 0.54254 0.0
C512 C 0.93666 0.76656 0.58951 0.0
C513 C 0.95039 0.74336 0.58019 0.0
C514 C 0.97041 0.74426 0.5567 0.0
C515 C 0.94474 0.79049 0.5757 0.0
C516 C 0.96539 0.79059 0.55293 0.0
N517 N 0.03126 0.76746 0.46983 0.0
C518 C 0.06173 0.74352 0.43341 0.0
C519 C 0.06968 0.76713 0.41872 0.0
C520 C 0.05788 0.79094 0.43023 0.0
C521 C 0.03911 0.79067 0.45572 0.0
C522 C 0.04258 0.74411 0.45832 0.0
H523 H 0.03125 0.80952 0.4636 0.0
H524 H 0.03741 0.72537 0.46805 0.0
H525 H 0.97932 0.72569 0.5501 0.0
H526 H 0.97061 0.80949 0.5436 0.0
C527 C 0.00187 0.8335 0.50602 0.0
C528 C 0.05922 0.77198 0.5725 0.0
C529 C 0.94982 0.76317 0.44074 0.0
C530 C 0.00735 0.70154 0.50645 0.0
H531 H 0.07195 0.82731 0.59078 0.0
H532 H 0.04015 0.86094 0.55527 0.0
H533 H 0.96203 0.85442 0.4557 0.0
H534 H 0.93344 0.81571 0.42019 0.0
H535 H 0.93816 0.70838 0.41988 0.0
H536 H 0.96966 0.67427 0.45575 0.0
H537 H 0.04611 0.68074 0.55855 0.0
H538 H 0.07394 0.71957 0.59523 0.0
H539 H 0.94579 0.72433 0.59082 0.0
H540 H 0.93488 0.80914 0.58164 0.0
H541 H 0.07047 0.72452 0.42625 0.0
H542 H 0.06284 0.80982 0.41949 0.0
C543 C 0.27447 0.96299 0.56479 0.0
C544 C 0.29907 0.95462 0.58018 0.0
C545 C 0.31776 0.97108 0.56863 0.0
C546 C 0.30364 0.98867 0.54713 0.0
N547 N 0.27702 0.98445 0.54406 0.0
Co548 Co 0.24943 0.00679 0.51678 0.0
N549 N 0.27718 0.03011 0.49815 0.0
C550 C 0.30388 0.02705 0.50394 0.0
C551 C 0.31816 0.04478 0.48639 0.0
C552 C 0.29953 0.06012 0.46812 0.0
C553 C 0.27476 0.05108 0.47593 0.0
N554 N 0.22183 0.02989 0.49084 0.0
C555 C 0.2244 0.05174 0.47078 0.0
C556 C 0.19973 0.06249 0.45983 0.0
C557 C 0.181 0.04684 0.47289 0.0
C558 C 0.19514 0.02759 0.49137 0.0
N559 N 0.22173 0.98259 0.53389 0.0
C560 C 0.19508 0.9843 0.52567 0.0
C561 C 0.18092 0.96464 0.53988 0.0
C562 C 0.19961 0.94934 0.5582 0.0
C563 C 0.22424 0.96069 0.55442 0.0
N564 N 0.2483 0.0306 0.56053 0.0
C565 C 0.24496 0.06893 0.61736 0.0
C566 C 0.22293 0.0533 0.60448 0.0
C567 C 0.22498 0.0345 0.57619 0.0
C568 C 0.26917 0.06388 0.60294 0.0
C569 C 0.27045 0.04451 0.57504 0.0
N570 N 0.25034 0.98308 0.47308 0.0
C571 C 0.22687 0.95811 0.42292 0.0
C572 C 0.2504 0.9456 0.41476 0.0
C573 C 0.27417 0.95318 0.43505 0.0
C574 C 0.27369 0.97187 0.46394 0.0
C575 C 0.22733 0.97676 0.45181 0.0
H576 H 0.29232 0.9765 0.47891 0.0
H577 H 0.20866 0.98525 0.45694 0.0
H578 H 0.2072 0.02387 0.56713 0.0
H579 H 0.28942 0.04168 0.56511 0.0
C580 C 0.31488 0.00818 0.52751 0.0
C581 C 0.24936 0.9499 0.57098 0.0
C582 C 0.24962 0.06319 0.46157 0.0
C583 C 0.18396 0.0059 0.50704 0.0
H584 H 0.30313 0.93826 0.5979 0.0
H585 H 0.33914 0.97012 0.57481 0.0
H586 H 0.3396 0.04646 0.48698 0.0
H587 H 0.30379 0.07618 0.45102 0.0
H588 H 0.19563 0.07983 0.44393 0.0
H589 H 0.15958 0.04902 0.46894 0.0
H590 H 0.15951 0.962 0.5377 0.0
H591 H 0.19553 0.9319 0.57293 0.0
H592 H 0.20394 0.05592 0.61559 0.0
H593 H 0.28687 0.07547 0.61203 0.0
H594 H 0.2079 0.95274 0.40816 0.0
H595 H 0.29298 0.94434 0.42917 0.0
C596 C 0.5429 0.77364 0.06802 0.0
C597 C 0.55178 0.79812 0.08361 0.0
C598 C 0.53791 0.81721 0.06484 0.0
C599 C 0.5214 0.80335 0.03907 0.0
N600 N 0.52351 0.77652 0.0406 0.0
Co601 Co 0.50413 0.74882 0.00732 0.0
N602 N 0.48509 0.77697 0.97797 0.0
C603 C 0.48749 0.80377 0.98363 0.0
C604 C 0.47071 0.81802 0.96065 0.0
C605 C 0.45639 0.79925 0.93929 0.0
C606 C 0.46548 0.77448 0.95035 0.0
N607 N 0.48502 0.72113 0.97379 0.0
C608 C 0.46587 0.72396 0.94604 0.0
C609 C 0.45783 0.69948 0.92959 0.0
C610 C 0.47194 0.68044 0.94817 0.0
C611 C 0.48784 0.69433 0.97463 0.0
N612 N 0.52285 0.72068 0.037 0.0
C613 C 0.52 0.69389 0.03191 0.0
C614 C 0.53608 0.67967 0.05585 0.0
C615 C 0.55035 0.69846 0.07727 0.0
C616 C 0.54205 0.72317 0.06512 0.0
N617 N 0.47427 0.7487 0.0388 0.0
C618 C 0.42974 0.74862 0.07999 0.0
C619 C 0.44155 0.72475 0.06875 0.0
C620 C 0.46338 0.72525 0.04814 0.0
C621 C 0.44113 0.77252 0.07068 0.0
C622 C 0.46332 0.7721 0.05077 0.0
N623 N 0.53401 0.74895 0.97581 0.0
C624 C 0.56876 0.72568 0.94634 0.0
C625 C 0.57834 0.74958 0.93423 0.0
C626 C 0.56484 0.77307 0.94287 0.0
C627 C 0.54319 0.77234 0.96373 0.0
C628 C 0.54664 0.72579 0.96644 0.0
H629 H 0.53436 0.79105 0.96993 0.0
H630 H 0.54038 0.70687 0.97445 0.0
H631 H 0.47095 0.70636 0.03982 0.0
H632 H 0.47099 0.79101 0.04496 0.0
C633 C 0.50458 0.81495 0.01218 0.0
C634 C 0.55428 0.7483 0.07933 0.0
C635 C 0.4539 0.74921 0.93527 0.0
C636 C 0.50392 0.68272 0.00232 0.0
H637 H 0.56708 0.80177 0.1058 0.0
H638 H 0.54006 0.83865 0.06894 0.0
H639 H 0.4685 0.83948 0.96027 0.0
H640 H 0.44054 0.8035 0.91866 0.0
H641 H 0.44286 0.69577 0.90701 0.0
H642 H 0.47021 0.65901 0.94363 0.0
H643 H 0.53797 0.6582 0.05669 0.0
H644 H 0.56575 0.69435 0.09862 0.0
H645 H 0.43411 0.7056 0.07574 0.0
H646 H 0.43276 0.79167 0.07798 0.0
H647 H 0.57848 0.70685 0.94103 0.0
H648 H 0.57078 0.79213 0.93359 0.0
C649 C 0.24383 0.54076 0.08094 0.0
C650 C 0.22047 0.54773 0.09595 0.0
C651 C 0.20014 0.53571 0.07421 0.0
C652 C 0.21229 0.52204 0.04749 0.0
N653 N 0.23916 0.52425 0.05127 0.0
Co654 Co 0.26502 0.50723 0.01976 0.0
N655 N 0.23524 0.49189 0.98563 0.0
C656 C 0.2088 0.49579 0.98694 0.0
C657 C 0.19335 0.48248 0.9594 0.0
C658 C 0.211 0.46904 0.9396 0.0
C659 C 0.23619 0.47498 0.9564 0.0
N660 N 0.29091 0.48946 0.98877 0.0
C661 C 0.28627 0.47229 0.9597 0.0
C662 C 0.30976 0.46335 0.94665 0.0
C663 C 0.33008 0.47506 0.96872 0.0
C664 C 0.31782 0.49029 0.99386 0.0
N665 N 0.2948 0.52332 0.05342 0.0
C666 C 0.32126 0.5206 0.05099 0.0
C667 C 0.33672 0.53568 0.07664 0.0
C668 C 0.31907 0.5493 0.09619 0.0
C669 C 0.2938 0.54151 0.08135 0.0
N670 N 0.26515 0.47451 0.04933 0.0
C671 C 0.26487 0.42912 0.09318 0.0
C672 C 0.28876 0.4406 0.08474 0.0
C673 C 0.28846 0.46305 0.06316 0.0
C674 C 0.24117 0.44063 0.07847 0.0
C675 C 0.24175 0.46282 0.05671 0.0
N676 N 0.26477 0.53993 0.99013 0.0
C677 C 0.28729 0.57068 0.95403 0.0
C678 C 0.26387 0.58525 0.94569 0.0
C679 C 0.24105 0.57669 0.96096 0.0
C680 C 0.24188 0.55429 0.98257 0.0
C681 C 0.28736 0.54862 0.97623 0.0
H682 H 0.22366 0.54897 0.99292 0.0
H683 H 0.30599 0.53882 0.98162 0.0
H684 H 0.30738 0.47088 0.05815 0.0
H685 H 0.2229 0.47017 0.04612 0.0
C686 C 0.19905 0.50938 0.0166 0.0
C687 C 0.26938 0.55323 0.09263 0.0
C688 C 0.26019 0.46222 0.94567 0.0
C689 C 0.33093 0.50507 0.02299 0.0
H690 H 0.21836 0.56125 0.11911 0.0
H691 H 0.179 0.53772 0.07661 0.0
H692 H 0.17182 0.48168 0.95518 0.0
H693 H 0.20596 0.45562 0.91624 0.0
H694 H 0.31193 0.44928 0.92412 0.0
H695 H 0.35124 0.47228 0.96717 0.0
H696 H 0.35823 0.53733 0.07989 0.0
H697 H 0.3243 0.56385 0.11813 0.0
H698 H 0.30775 0.43266 0.09535 0.0
H699 H 0.22206 0.43235 0.08332 0.0
H700 H 0.30564 0.57584 0.94307 0.0
H701 H 0.22241 0.5873 0.95664 0.0
C702 C 0.46338 0.29041 0.97534 0.0
C703 C 0.45545 0.3151 0.96278 0.0
C704 C 0.47199 0.33364 0.98125 0.0
C705 C 0.48914 0.31927 0.00368 0.0
N706 N 0.48475 0.29265 1.00034 0.0
Co707 Co 0.50571 0.26445 0.02667 0.0
N708 N 0.52635 0.2919 0.05896 0.0
C709 C 0.52304 0.31868 0.05908 0.0
C710 C 0.53927 0.33243 0.08528 0.0
C711 C 0.55403 0.3133 0.10276 0.0
C712 C 0.54616 0.28892 0.08575 0.0
N713 N 0.52763 0.23625 0.05186 0.0
C714 C 0.54877 0.23863 0.07736 0.0
C715 C 0.56008 0.21396 0.08467 0.0
C716 C 0.5456 0.1954 0.06312 0.0
C717 C 0.52652 0.20969 0.04368 0.0
N718 N 0.48371 0.237 0.99595 0.0
C719 C 0.48617 0.21016 0.99683 0.0
C720 C 0.46668 0.19632 0.97553 0.0
C721 C 0.45044 0.21544 0.96059 0.0
C722 C 0.46126 0.23999 0.97332 0.0
N723 N 0.53254 0.26543 0.9904 0.0
C724 C 0.57364 0.26495 0.94323 0.0
C725 C 0.55628 0.24325 0.94377 0.0
C726 C 0.53628 0.24381 0.9674 0.0
C727 C 0.56933 0.28732 0.96587 0.0
C728 C 0.5487 0.28728 0.98858 0.0
N729 N 0.47911 0.26335 0.06265 0.0
C730 C 0.451 0.23797 0.09789 0.0
C731 C 0.43841 0.26121 0.10984 0.0
C732 C 0.44723 0.28562 0.0983 0.0
C733 C 0.46726 0.28622 0.07471 0.0
C734 C 0.47131 0.23952 0.07494 0.0
H735 H 0.47268 0.30538 0.06622 0.0
H736 H 0.48012 0.2211 0.06691 0.0
H737 H 0.52435 0.22627 0.96654 0.0
H738 H 0.54659 0.30515 0.00471 0.0
C739 C 0.50655 0.33033 0.03188 0.0
C740 C 0.44923 0.26559 0.96405 0.0
C741 C 0.55944 0.26382 0.09419 0.0
C742 C 0.50685 0.19868 0.01842 0.0
H743 H 0.43891 0.31933 0.94311 0.0
H744 H 0.47079 0.35513 0.97979 0.0
H745 H 0.54082 0.35384 0.09028 0.0
H746 H 0.56947 0.31697 0.12476 0.0
H747 H 0.57728 0.20974 0.1032 0.0
H748 H 0.54875 0.17404 0.06157 0.0
H749 H 0.4642 0.17489 0.97197 0.0
H750 H 0.43242 0.21158 0.94288 0.0
H751 H 0.558 0.22569 0.92605 0.0
H752 H 0.58213 0.30472 0.96687 0.0
H753 H 0.4449 0.21845 0.10541 0.0
H754 H 0.43877 0.30434 0.10729 0.0
C755 C 0.71413 0.55233 0.05554 0.0
C756 C 0.6894 0.56268 0.06208 0.0
C757 C 0.67069 0.54594 0.04423 0.0
C758 C 0.68491 0.5265 0.02752 0.0
N759 N 0.71163 0.52968 0.03366 0.0
Co760 Co 0.73933 0.50644 0.01233 0.0
N761 N 0.71172 0.48152 0.98656 0.0
C762 C 0.68512 0.48292 0.98866 0.0
C763 C 0.67106 0.46255 0.96974 0.0
C764 C 0.68977 0.44708 0.9547 0.0
C765 C 0.71432 0.45904 0.96505 0.0
N766 N 0.76704 0.4838 0.98998 0.0
C767 C 0.76452 0.46176 0.96699 0.0
C768 C 0.78911 0.45332 0.95691 0.0
C769 C 0.80779 0.47018 0.97453 0.0
C770 C 0.79367 0.48811 0.99402 0.0
N771 N 0.76702 0.53083 0.03907 0.0
C772 C 0.79374 0.52808 0.03954 0.0
C773 C 0.80793 0.54695 0.06124 0.0
C774 C 0.78922 0.56278 0.07562 0.0
C775 C 0.7645 0.55279 0.06156 0.0
N776 N 0.74109 0.48366 0.05467 0.0
C777 C 0.74265 0.4471 0.11008 0.0
C778 C 0.76581 0.45399 0.09471 0.0
C779 C 0.76463 0.47239 0.0676 0.0
C780 C 0.71898 0.4599 0.09852 0.0
C781 C 0.71862 0.47786 0.07092 0.0
N782 N 0.73747 0.5291 0.96995 0.0
C783 C 0.75907 0.55752 0.93078 0.0
C784 C 0.73451 0.56438 0.91319 0.0
C785 C 0.71154 0.55247 0.92333 0.0
C786 C 0.71349 0.53482 0.95139 0.0
C787 C 0.76008 0.54002 0.95893 0.0
H788 H 0.69527 0.52647 0.95798 0.0
H789 H 0.77932 0.53615 0.97191 0.0
H790 H 0.78295 0.47665 0.057 0.0
H791 H 0.69981 0.48639 0.06286 0.0
C792 C 0.67385 0.50428 0.00734 0.0
C793 C 0.73932 0.56488 0.07065 0.0
C794 C 0.73947 0.44804 0.95403 0.0
C795 C 0.80489 0.50838 0.01782 0.0
H796 H 0.68525 0.5805 0.07812 0.0
H797 H 0.64926 0.54766 0.04369 0.0
H798 H 0.64972 0.45938 0.96707 0.0
H799 H 0.68574 0.42897 0.93806 0.0
H800 H 0.79322 0.43662 0.93878 0.0
H801 H 0.82916 0.46931 0.97351 0.0
H802 H 0.82937 0.5491 0.06582 0.0
H803 H 0.79337 0.57979 0.09433 0.0
H804 H 0.78469 0.44459 0.1025 0.0
H805 H 0.70062 0.45583 0.11026 0.0
H806 H 0.77737 0.56654 0.92399 0.0
H807 H 0.69211 0.5571 0.91008 0.0
C808 C 0.13945 0.26771 0.40551 0.0
C809 C 0.14722 0.24427 0.38702 0.0
H810 H 0.11316 0.286 0.4409 0.0
C811 C 0.13226 0.22083 0.38963 0.0
H812 H 0.14994 0.28637 0.40382 0.0
C813 C 0.11013 0.22092 0.40973 0.0
C814 C 0.10258 0.24431 0.42859 0.0
H815 H 0.13769 0.2022 0.37642 0.0
H816 H 0.09886 0.20259 0.41011 0.0
C817 C 0.11777 0.26764 0.42633 0.0
C818 C 0.78166 0.11754 0.36021 0.0
C819 C 0.75938 0.13443 0.35862 0.0
H820 H 0.799 0.08138 0.37925 0.0
C821 C 0.73635 0.12625 0.37372 0.0
H822 H 0.79976 0.12313 0.34887 0.0
C823 C 0.73629 0.10285 0.39246 0.0
C824 C 0.75904 0.08661 0.39576 0.0
H825 H 0.71849 0.13829 0.372 0.0
H826 H 0.71874 0.09828 0.40576 0.0
C827 C 0.78136 0.09373 0.37819 0.0
C828 C 0.89657 0.7671 0.36222 0.0
C829 C 0.8735 0.76062 0.37858 0.0
H830 H 0.93901 0.7726 0.36925 0.0
C831 C 0.8759 0.75418 0.41525 0.0
H832 H 0.89538 0.77174 0.33388 0.0
C833 C 0.90082 0.75463 0.43527 0.0
C834 C 0.92367 0.76145 0.41892 0.0
H835 H 0.85847 0.74928 0.42863 0.0
H836 H 0.90225 0.75004 0.46365 0.0
C837 C 0.92147 0.76742 0.38223 0.0
C838 C 0.22891 0.90121 0.3322 0.0
C839 C 0.24295 0.87774 0.34035 0.0
H840 H 0.22088 0.94153 0.34893 0.0
C841 C 0.26113 0.87755 0.37146 0.0
H842 H 0.21476 0.90191 0.30839 0.0
C843 C 0.26432 0.90002 0.39488 0.0
C844 C 0.24956 0.9232 0.38748 0.0
H845 H 0.27266 0.85989 0.37797 0.0
H846 H 0.27759 0.89884 0.41949 0.0
C847 C 0.23226 0.9238 0.35552 0.0
C848 C 0.11046 0.78592 0.65279 0.0
C849 C 0.13365 0.77461 0.64018 0.0
H850 H 0.06864 0.79337 0.64153 0.0
C851 C 0.13202 0.76287 0.60477 0.0
H852 H 0.11088 0.79559 0.67954 0.0
C853 C 0.108 0.76256 0.58268 0.0
C854 C 0.08494 0.77348 0.59566 0.0
H855 H 0.14915 0.7534 0.59422 0.0
H856 H 0.10728 0.75339 0.55556 0.0
C857 C 0.0863 0.78501 0.63094 0.0
C858 C 0.21766 0.13042 0.66324 0.0
C859 C 0.23913 0.13782 0.68843 0.0
H860 H 0.20297 0.10309 0.62027 0.0
C861 C 0.26172 0.12152 0.69221 0.0
H862 H 0.20016 0.14293 0.65985 0.0
C863 C 0.26321 0.09844 0.67018 0.0
C864 C 0.24226 0.09156 0.64367 0.0
H865 H 0.27835 0.12686 0.71191 0.0
H866 H 0.28092 0.08625 0.6735 0.0
C867 C 0.21928 0.10756 0.64082 0.0
C868 C 0.88295 0.2713 0.66654 0.0
C869 C 0.86405 0.25058 0.66193 0.0
H870 H 0.91981 0.28657 0.65197 0.0
C871 C 0.86773 0.22928 0.63707 0.0
H872 H 0.88064 0.28784 0.68582 0.0
C873 C 0.88977 0.22883 0.61684 0.0
C874 C 0.90901 0.24942 0.62155 0.0
H875 H 0.85324 0.21321 0.63277 0.0
H876 H 0.89141 0.21247 0.5971 0.0
C877 C 0.90531 0.2706 0.64688 0.0
C878 C 0.74449 0.88168 0.6555 0.0
C879 C 0.76537 0.87913 0.68295 0.0
H880 H 0.72702 0.9051 0.613 0.0
C881 C 0.78356 0.90024 0.69101 0.0
H882 H 0.7299 0.86587 0.64923 0.0
C883 C 0.7817 0.92296 0.67055 0.0
C884 C 0.76155 0.9249 0.64186 0.0
H885 H 0.7998 0.89874 0.71213 0.0
H886 H 0.79639 0.93869 0.67654 0.0
C887 C 0.74261 0.90432 0.63513 0.0
C888 C 0.88681 0.7864 0.65745 0.0
C889 C 0.8709 0.76326 0.65713 0.0
H890 H 0.92018 0.80541 0.63781 0.0
C891 C 0.8769 0.74134 0.63426 0.0
H892 H 0.88273 0.80394 0.67409 0.0
C893 C 0.89783 0.74259 0.61221 0.0
C894 C 0.914 0.76556 0.61287 0.0
H895 H 0.86561 0.72293 0.63346 0.0
H896 H 0.90108 0.72544 0.59439 0.0
C897 C 0.90816 0.78744 0.63595 0.0
C898 C 0.26036 0.87908 0.60433 0.0
C899 C 0.25063 0.88069 0.63886 0.0
H900 H 0.26749 0.89933 0.55615 0.0
C901 C 0.24012 0.90543 0.6504 0.0
H902 H 0.26821 0.86049 0.59388 0.0
C903 C 0.23951 0.92764 0.62841 0.0
C904 C 0.24943 0.92591 0.5942 0.0
H905 H 0.23276 0.90788 0.67682 0.0
H906 H 0.23152 0.94635 0.63832 0.0
C907 C 0.2598 0.90133 0.58244 0.0
C908 C 0.10164 0.26257 0.68534 0.0
C909 C 0.12545 0.2507 0.67569 0.0
H910 H 0.06067 0.27127 0.66889 0.0
C911 C 0.1258 0.23864 0.64068 0.0
H912 H 0.10063 0.27242 0.71177 0.0
C913 C 0.10312 0.23872 0.61596 0.0
C914 C 0.07948 0.2505 0.6258 0.0
H915 H 0.14351 0.22882 0.6324 0.0
H916 H 0.10393 0.22936 0.58916 0.0
C917 C 0.07882 0.26224 0.66074 0.0
C918 C 0.76881 0.11172 0.65962 0.0
C919 C 0.75804 0.13579 0.64634 0.0
H920 H 0.77781 0.07038 0.64821 0.0
C921 C 0.74845 0.1357 0.60929 0.0
H922 H 0.77691 0.11075 0.68761 0.0
C923 C 0.74956 0.11254 0.58655 0.0
C924 C 0.76001 0.08859 0.60009 0.0
H925 H 0.73959 0.15342 0.59776 0.0
H926 H 0.74198 0.11327 0.55829 0.0
C927 C 0.76963 0.08851 0.63693 0.0
C928 C 0.88193 0.25352 0.42416 0.0
C929 C 0.88017 0.24361 0.38785 0.0
H930 H 0.90686 0.26058 0.47385 0.0
C931 C 0.90315 0.23268 0.37419 0.0
H932 H 0.86493 0.26262 0.43552 0.0
C933 C 0.92731 0.23215 0.39607 0.0
C934 C 0.92883 0.24203 0.43219 0.0
H935 H 0.90255 0.22453 0.34659 0.0
H936 H 0.94486 0.2242 0.38474 0.0
C937 C 0.90596 0.25258 0.44611 0.0
C938 C 0.77046 0.89873 0.37804 0.0
C939 C 0.76085 0.87416 0.38885 0.0
H940 H 0.77842 0.94035 0.39185 0.0
C941 C 0.75232 0.87355 0.42399 0.0
H942 H 0.77767 0.9002 0.35162 0.0
C943 C 0.75319 0.89661 0.44722 0.0
C944 C 0.76245 0.92108 0.43607 0.0
H945 H 0.7444 0.85536 0.43346 0.0
H946 H 0.74627 0.89542 0.47387 0.0
C947 C 0.77118 0.92181 0.40124 0.0
C948 C 0.11236 0.74396 0.34367 0.0
C949 C 0.13014 0.76543 0.34297 0.0
H950 H 0.07886 0.72802 0.36671 0.0
C951 C 0.12758 0.7878 0.36655 0.0
H952 H 0.11371 0.72658 0.32547 0.0
C953 C 0.10801 0.78843 0.39099 0.0
C954 C 0.0902 0.76685 0.392 0.0
H955 H 0.14122 0.80452 0.36681 0.0
H956 H 0.10734 0.80561 0.40963 0.0
C957 C 0.09249 0.74476 0.36759 0.0
C958 C 0.26251 0.13364 0.4305 0.0
C959 C 0.25172 0.13238 0.39388 0.0
H960 H 0.27007 0.11325 0.48025 0.0
C961 C 0.2398 0.10802 0.38011 0.0
H962 H 0.27227 0.15163 0.44234 0.0
C963 C 0.23895 0.08582 0.40196 0.0
C964 C 0.24985 0.08721 0.43835 0.0
H965 H 0.23082 0.10606 0.35244 0.0
H966 H 0.22984 0.06743 0.39032 0.0
C967 C 0.26148 0.11149 0.45234 0.0
C968 C 0.64176 0.77294 0.89644 0.0
C969 C 0.64797 0.75103 0.87367 0.0
H970 H 0.61602 0.7894 0.93405 0.0
C971 C 0.63093 0.72862 0.87099 0.0
H972 H 0.65395 0.79082 0.89892 0.0
C973 C 0.60832 0.72825 0.89014 0.0
C974 C 0.60228 0.75006 0.91321 0.0
H975 H 0.63509 0.71111 0.85432 0.0
H976 H 0.5955 0.71084 0.88649 0.0
C977 C 0.61949 0.77235 0.91617 0.0
C978 C 0.28552 0.6463 0.89573 0.0
C979 C 0.26195 0.65326 0.87483 0.0
H980 H 0.30457 0.6207 0.93487 0.0
C981 C 0.23902 0.63771 0.87757 0.0
H982 H 0.30352 0.65793 0.89481 0.0
C983 C 0.23967 0.61584 0.90014 0.0
C984 C 0.26321 0.60886 0.92136 0.0
H985 H 0.22056 0.64211 0.86162 0.0
H986 H 0.22165 0.60415 0.90032 0.0
C987 C 0.2861 0.62468 0.91874 0.0
C988 C 0.37606 0.27949 0.9393 0.0
C989 C 0.37206 0.26852 0.90355 0.0
H990 H 0.40366 0.2868 0.98649 0.0
C991 C 0.39391 0.25686 0.88783 0.0
H992 H 0.35993 0.28909 0.95213 0.0
C993 C 0.419 0.25623 0.90726 0.0
C994 C 0.42266 0.2666 0.94311 0.0
H995 H 0.39164 0.24777 0.86067 0.0
H996 H 0.43552 0.24732 0.89446 0.0
C997 C 0.40109 0.27841 0.95892 0.0
C998 C 0.72879 0.399 0.8715 0.0
C999 C 0.74149 0.37564 0.88411 0.0
H1000 H 0.71826 0.43989 0.88339 0.0
C1001 C 0.75314 0.37643 0.92031 0.0
H1002 H 0.71917 0.39933 0.84416 0.0
C1003 C 0.75218 0.39966 0.94291 0.0
C1004 C 0.73972 0.42292 0.93005 0.0
H1005 H 0.76349 0.35923 0.93117 0.0
H1006 H 0.76143 0.39954 0.97048 0.0
C1007 C 0.728 0.42228 0.89409 0.0
C1008 C 0.63128 0.27895 0.12843 0.0
C1009 C 0.63363 0.26717 0.1623 0.0
H1010 H 0.606 0.28666 0.0802 0.0
C1011 C 0.61131 0.25387 0.17324 0.0
H1012 H 0.6478 0.28972 0.11926 0.0
C1013 C 0.58725 0.25273 0.15116 0.0
C1014 C 0.58514 0.26438 0.11742 0.0
H1015 H 0.61242 0.24407 0.19874 0.0
H1016 H 0.57027 0.2427 0.16038 0.0
C1017 C 0.60733 0.27741 0.10614 0.0
C1018 C 0.73002 0.61185 0.15298 0.0
C1019 C 0.74022 0.63636 0.14287 0.0
H1020 H 0.72182 0.57039 0.13844 0.0
C1021 C 0.74983 0.637 0.10838 0.0
H1022 H 0.72201 0.61038 0.17888 0.0
C1023 C 0.74937 0.61402 0.08504 0.0
C1024 C 0.73937 0.58963 0.09543 0.0
H1025 H 0.75822 0.65517 0.09952 0.0
H1026 H 0.757 0.61524 0.05883 0.0
C1027 C 0.72967 0.58887 0.12967 0.0
C1028 C 0.37768 0.77058 0.14339 0.0
C1029 C 0.35891 0.74983 0.13756 0.0
H1030 H 0.41516 0.78595 0.13145 0.0
C1031 C 0.36368 0.7283 0.11359 0.0
H1032 H 0.37447 0.78727 0.16206 0.0
C1033 C 0.38659 0.72785 0.095 0.0
C1034 C 0.40557 0.74867 0.10059 0.0
H1035 H 0.34932 0.71217 0.10851 0.0
H1036 H 0.389 0.71143 0.07563 0.0
C1037 C 0.40089 0.76986 0.12551 0.0
C1038 C 0.28204 0.36233 0.13674 0.0
C1039 C 0.26341 0.3609 0.16267 0.0
H1040 H 0.29728 0.38457 0.09493 0.0
C1041 C 0.24537 0.38222 0.16544 0.0
H1042 H 0.29642 0.34652 0.13386 0.0
C1043 C 0.24582 0.40406 0.14299 0.0
C1044 C 0.26451 0.40558 0.11717 0.0
H1045 H 0.23056 0.38189 0.18473 0.0
H1046 H 0.23163 0.42 0.14622 0.0
C1047 C 0.2827 0.38437 0.11456 0.0
C1048 C 0.39338 0.23776 0.17929 0.0
C1049 C 0.37268 0.25645 0.1764 0.0
H1050 H 0.43081 0.2252 0.16205 0.0
C1051 C 0.37382 0.277 0.15218 0.0
H1052 H 0.39304 0.22187 0.19808 0.0
C1053 C 0.39506 0.27855 0.13067 0.0
C1054 C 0.41599 0.25989 0.13342 0.0
H1055 H 0.35793 0.2915 0.14925 0.0
H1056 H 0.39468 0.29411 0.11136 0.0
C1057 C 0.41493 0.23962 0.15838 0.0
C1058 C 0.72271 0.38572 0.15696 0.0
C1059 C 0.74555 0.38142 0.18052 0.0
H1060 H 0.70413 0.40945 0.11557 0.0
C1061 C 0.76671 0.39976 0.18281 0.0
H1062 H 0.70627 0.37163 0.15459 0.0
C1063 C 0.76533 0.42178 0.16108 0.0
C1064 C 0.74295 0.42556 0.1362 0.0
H1065 H 0.78441 0.39689 0.20116 0.0
H1066 H 0.78197 0.4356 0.16343 0.0
C1067 C 0.72148 0.40748 0.1348 0.0
C1068 C 0.62756 0.75547 0.11072 0.0
C1069 C 0.62829 0.74854 0.14711 0.0
H1070 H 0.60332 0.76063 0.06076 0.0
C1071 C 0.60441 0.74139 0.16103 0.0
H1072 H 0.64564 0.76081 0.09913 0.0
C1073 C 0.5803 0.74132 0.13905 0.0
C1074 C 0.57975 0.74818 0.10279 0.0
H1075 H 0.60429 0.73631 0.18908 0.0
H1076 H 0.56208 0.73599 0.15031 0.0
C1077 C 0.60347 0.75528 0.08875 0.0
C1078 C 0.25377 0.62615 0.10398 0.0
C1079 C 0.26365 0.63194 0.14021 0.0
H1080 H 0.24856 0.59654 0.06044 0.0
C1081 C 0.27729 0.61196 0.15992 0.0
H1082 H 0.24279 0.64084 0.08816 0.0
C1083 C 0.27982 0.58639 0.14427 0.0
C1084 C 0.26944 0.5807 0.10842 0.0
H1085 H 0.28562 0.61589 0.18765 0.0
H1086 H 0.2893 0.57093 0.16035 0.0
C1087 C 0.25684 0.60079 0.08816 0.0
C1088 C 0.40427 0.76038 0.8542 0.0
C1089 C 0.38041 0.75103 0.86616 0.0
H1090 H 0.44633 0.76665 0.86656 0.0
C1091 C 0.38131 0.74009 0.90055 0.0
H1092 H 0.4044 0.76925 0.82815 0.0
C1093 C 0.40525 0.73927 0.92275 0.0
C1094 C 0.42879 0.74909 0.9109 0.0
H1095 H 0.36352 0.73214 0.91039 0.0
H1096 H 0.40537 0.73119 0.94937 0.0
C1097 C 0.42826 0.75916 0.87623 0.0
C1098 C 0.25887 0.40587 0.87513 0.0
C1099 C 0.25588 0.38373 0.89636 0.0
H1100 H 0.26243 0.4485 0.87452 0.0
C1101 C 0.25379 0.38773 0.93369 0.0
H1102 H 0.26013 0.4033 0.84618 0.0
C1103 C 0.25493 0.41344 0.94959 0.0
C1104 C 0.25814 0.43534 0.92832 0.0
H1105 H 0.2517 0.37097 0.95064 0.0
H1106 H 0.25359 0.41628 0.97851 0.0
C1107 C 0.26 0.43159 0.89108 0.0
C1108 C 0.62693 0.28628 0.88374 0.0
C1109 C 0.63967 0.26195 0.87612 0.0
H1110 H 0.5959 0.3063 0.90953 0.0
C1111 C 0.63027 0.23866 0.89055 0.0
H1112 H 0.63372 0.30477 0.87369 0.0
C1113 C 0.60911 0.23971 0.91233 0.0
C1114 C 0.59624 0.26399 0.91979 0.0
H1115 H 0.6391 0.21942 0.88492 0.0
H1116 H 0.60313 0.22138 0.92364 0.0
C1117 C 0.60541 0.28725 0.90498 0.0
C1118 C 0.71657 0.62968 0.87138 0.0
C1119 C 0.73553 0.63124 0.84621 0.0
H1120 H 0.70125 0.60692 0.91215 0.0
C1121 C 0.75204 0.6093 0.84 0.0
H1122 H 0.70356 0.64638 0.87639 0.0
C1123 C 0.75082 0.58678 0.86055 0.0
C1124 C 0.73286 0.58583 0.88719 0.0
H1125 H 0.76687 0.61019 0.82079 0.0
H1126 H 0.76455 0.57053 0.85656 0.0
C1127 C 0.71514 0.60708 0.89159 0.0
loop_
_geom_bond_atom_site_label_1
_geom_bond_atom_site_label_2
_geom_bond_distance
_geom_bond_site_symmetry_2
_ccdc_geom_bond_type
H0 C19 0.949 . S
H1 C20 0.950 . S
H2 C22 0.950 . S
H3 C23 0.950 . S
H4 C25 0.950 . S
H5 C28 0.950 . S
H6 C29 0.950 . S
H7 C31 0.951 . S
H8 C32 0.949 . S
H9 C34 0.949 . S
H10 C35 0.950 . S
H11 C37 0.950 . S
H12 C38 0.950 . S
H13 C40 0.950 . S
H14 C43 0.950 . S
H15 C44 0.950 . S
H16 C46 0.951 . S
H17 C47 0.949 . S
C18 C19 1.376 . S
C18 C23 1.386 . S
C18 C24 1.483 . S
C19 H0 0.949 . S
C19 C18 1.376 . S
C19 C20 1.397 . S
C20 H1 0.950 . S
C20 C19 1.397 . S
C20 C21 1.391 . S
C21 C20 1.391 . S
C21 C22 1.405 . S
C22 H2 0.950 . S
C22 C21 1.405 . S
C22 C23 1.367 . S
C23 H3 0.950 . S
C23 C18 1.386 . S
C23 C22 1.367 . S
C24 C18 1.483 . S
C24 C25 1.382 . S
C24 C26 1.403 . S
C25 H4 0.950 . S
C25 C24 1.382 . S
C25 C41 1.411 . S
C26 C24 1.403 . S
C26 C27 1.489 . S
C26 C40 1.411 . S
C27 C26 1.489 . S
C27 C28 1.383 . S
C27 C32 1.382 . S
C28 H5 0.950 . S
C28 C27 1.383 . S
C28 C29 1.395 . S
C29 H6 0.950 . S
C29 C28 1.395 . S
C29 C30 1.288 . S
C30 C29 1.288 . S
C30 C31 1.392 . S
C31 H7 0.951 . S
C31 C30 1.392 . S
C31 C32 1.392 . S
C32 H8 0.949 . S
C32 C27 1.382 . S
C32 C31 1.392 . S
C33 C34 1.376 . S
C33 C38 1.386 . S
C33 C39 1.483 . S
C34 H9 0.949 . S
C34 C33 1.376 . S
C34 C35 1.397 . S
C35 H10 0.950 . S
C35 C34 1.397 . S
C35 C36 1.391 . S
C36 C35 1.391 . S
C36 C37 1.405 . S
C37 H11 0.950 . S
C37 C36 1.405 . S
C37 C38 1.367 . S
C38 H12 0.950 . S
C38 C33 1.386 . S
C38 C37 1.367 . S
C39 C33 1.483 . S
C39 C40 1.382 . S
C39 C41 1.403 . S
C40 H13 0.950 . S
C40 C26 1.411 . S
C40 C39 1.382 . S
C41 C25 1.411 . S
C41 C39 1.403 . S
C41 C42 1.489 . S
C42 C41 1.489 . S
C42 C43 1.383 . S
C42 C47 1.382 . S
C43 H14 0.950 . S
C43 C42 1.383 . S
C43 C44 1.395 . S
C44 H15 0.950 . S
C44 C43 1.395 . S
C44 C45 1.288 . S
C45 C44 1.288 . S
C45 C46 1.392 . S
C46 H16 0.951 . S
C46 C45 1.392 . S
C46 C47 1.392 . S
C47 H17 0.949 . S
C47 C42 1.382 . S
C47 C46 1.392 . S
H48 C67 0.949 . S
H49 C68 0.950 . S
H50 C70 0.950 . S
H51 C71 0.950 . S
H52 C73 0.950 . S
H53 C76 0.950 . S
H54 C77 0.950 . S
H55 C79 0.951 . S
H56 C80 0.949 . S
H57 C82 0.949 . S
H58 C83 0.950 . S
H59 C85 0.950 . S
H60 C86 0.950 . S
H61 C88 0.950 . S
H62 C91 0.950 . S
H63 C92 0.950 . S
H64 C94 0.951 . S
H65 C95 0.949 . S
C66 C67 1.376 . S
C66 C71 1.386 . S
C66 C72 1.483 . S
C67 H48 0.949 . S
C67 C66 1.376 . S
C67 C68 1.397 . S
C68 H49 0.950 . S
C68 C67 1.397 . S
C68 C69 1.391 . S
C69 C68 1.391 . S
C69 C70 1.405 . S
C70 H50 0.950 . S
C70 C69 1.405 . S
C70 C71 1.367 . S
C71 H51 0.950 . S
C71 C66 1.386 . S
C71 C70 1.367 . S
C72 C66 1.483 . S
C72 C73 1.382 . S
C72 C74 1.403 . S
C73 H52 0.950 . S
C73 C72 1.382 . S
C73 C89 1.411 . S
C74 C72 1.403 . S
C74 C75 1.489 . S
C74 C88 1.411 . S
C75 C74 1.489 . S
C75 C76 1.383 . S
C75 C80 1.382 . S
C76 H53 0.950 . S
C76 C75 1.383 . S
C76 C77 1.395 . S
C77 H54 0.950 . S
C77 C76 1.395 . S
C77 C78 1.288 . S
C78 C77 1.288 . S
C78 C79 1.392 . S
C79 H55 0.951 . S
C79 C78 1.392 . S
C79 C80 1.392 . S
C80 H56 0.949 . S
C80 C75 1.382 . S
C80 C79 1.392 . S
C81 C82 1.376 . S
C81 C86 1.386 . S
C81 C87 1.483 . S
C82 H57 0.949 . S
C82 C81 1.376 . S
C82 C83 1.397 . S
C83 H58 0.950 . S
C83 C82 1.397 . S
C83 C84 1.391 . S
C84 C83 1.391 . S
C84 C85 1.405 . S
C85 H59 0.950 . S
C85 C84 1.405 . S
C85 C86 1.367 . S
C86 H60 0.950 . S
C86 C81 1.386 . S
C86 C85 1.367 . S
C87 C81 1.483 . S
C87 C88 1.382 . S
C87 C89 1.403 . S
C88 H61 0.950 . S
C88 C74 1.411 . S
C88 C87 1.382 . S
C89 C73 1.411 . S
C89 C87 1.403 . S
C89 C90 1.489 . S
C90 C89 1.489 . S
C90 C91 1.383 . S
C90 C95 1.382 . S
C91 H62 0.950 . S
C91 C90 1.383 . S
C91 C92 1.395 . S
C92 H63 0.950 . S
C92 C91 1.395 . S
C92 C93 1.288 . S
C93 C92 1.288 . S
C93 C94 1.392 . S
C94 H64 0.951 . S
C94 C93 1.392 . S
C94 C95 1.392 . S
C95 H65 0.949 . S
C95 C90 1.382 . S
C95 C94 1.392 . S
H96 C115 0.949 . S
H97 C116 0.950 . S
H98 C118 0.950 . S
H99 C119 0.950 . S
H100 C121 0.950 . S
H101 C124 0.950 . S
H102 C125 0.950 . S
H103 C127 0.951 . S
H104 C128 0.949 . S
H105 C130 0.949 . S
H106 C131 0.950 . S
H107 C133 0.950 . S
H108 C134 0.950 . S
H109 C136 0.950 . S
H110 C139 0.950 . S
H111 C140 0.950 . S
H112 C142 0.951 . S
H113 C143 0.949 . S
C114 C115 1.376 . S
C114 C119 1.386 . S
C114 C120 1.483 . S
C115 H96 0.949 . S
C115 C114 1.376 . S
C115 C116 1.397 . S
C116 H97 0.950 . S
C116 C115 1.397 . S
C116 C117 1.391 . S
C117 C116 1.391 . S
C117 C118 1.405 . S
C118 H98 0.950 . S
C118 C117 1.405 . S
C118 C119 1.367 . S
C119 H99 0.950 . S
C119 C114 1.386 . S
C119 C118 1.367 . S
C120 C114 1.483 . S
C120 C121 1.382 . S
C120 C122 1.403 . S
C121 H100 0.950 . S
C121 C120 1.382 . S
C121 C137 1.411 . S
C122 C120 1.403 . S
C122 C123 1.489 . S
C122 C136 1.411 . S
C123 C122 1.489 . S
C123 C124 1.383 . S
C123 C128 1.382 . S
C124 H101 0.950 . S
C124 C123 1.383 . S
C124 C125 1.395 . S
C125 H102 0.950 . S
C125 C124 1.395 . S
C125 C126 1.288 . S
C126 C125 1.288 . S
C126 C127 1.392 . S
C127 H103 0.951 . S
C127 C126 1.392 . S
C127 C128 1.392 . S
C128 H104 0.949 . S
C128 C123 1.382 . S
C128 C127 1.392 . S
C129 C130 1.376 . S
C129 C134 1.386 . S
C129 C135 1.483 . S
C130 H105 0.949 . S
C130 C129 1.376 . S
C130 C131 1.397 . S
C131 H106 0.950 . S
C131 C130 1.397 . S
C131 C132 1.391 . S
C132 C131 1.391 . S
C132 C133 1.405 . S
C133 H107 0.950 . S
C133 C132 1.405 . S
C133 C134 1.367 . S
C134 H108 0.950 . S
C134 C129 1.386 . S
C134 C133 1.367 . S
C135 C129 1.483 . S
C135 C136 1.382 . S
C135 C137 1.403 . S
C136 H109 0.950 . S
C136 C122 1.411 . S
C136 C135 1.382 . S
C137 C121 1.411 . S
C137 C135 1.403 . S
C137 C138 1.489 . S
C138 C137 1.489 . S
C138 C139 1.383 . S
C138 C143 1.382 . S
C139 H110 0.950 . S
C139 C138 1.383 . S
C139 C140 1.395 . S
C140 H111 0.950 . S
C140 C139 1.395 . S
C140 C141 1.288 . S
C141 C140 1.288 . S
C141 C142 1.392 . S
C142 H112 0.951 . S
C142 C141 1.392 . S
C142 C143 1.392 . S
C143 H113 0.949 . S
C143 C138 1.382 . S
C143 C142 1.392 . S
H144 C163 0.949 . S
H145 C164 0.950 . S
H146 C166 0.950 . S
H147 C167 0.950 . S
H148 C169 0.950 . S
H149 C172 0.950 . S
H150 C173 0.950 . S
H151 C175 0.951 . S
H152 C176 0.949 . S
H153 C178 0.949 . S
H154 C179 0.950 . S
H155 C181 0.950 . S
H156 C182 0.950 . S
H157 C184 0.950 . S
H158 C187 0.950 . S
H159 C188 0.950 . S
H160 C190 0.951 . S
H161 C191 0.949 . S
C162 C163 1.376 . S
C162 C167 1.386 . S
C162 C168 1.483 . S
C163 H144 0.949 . S
C163 C162 1.376 . S
C163 C164 1.397 . S
C164 H145 0.950 . S
C164 C163 1.397 . S
C164 C165 1.391 . S
C165 C164 1.391 . S
C165 C166 1.405 . S
C166 H146 0.950 . S
C166 C165 1.405 . S
C166 C167 1.367 . S
C167 H147 0.950 . S
C167 C162 1.386 . S
C167 C166 1.367 . S
C168 C162 1.483 . S
C168 C169 1.382 . S
C168 C170 1.403 . S
C169 H148 0.950 . S
C169 C168 1.382 . S
C169 C185 1.411 . S
C170 C168 1.403 . S
C170 C171 1.489 . S
C170 C184 1.411 . S
C171 C170 1.489 . S
C171 C172 1.383 . S
C171 C176 1.382 . S
C172 H149 0.950 . S
C172 C171 1.383 . S
C172 C173 1.395 . S
C173 H150 0.950 . S
C173 C172 1.395 . S
C173 C174 1.288 . S
C174 C173 1.288 . S
C174 C175 1.392 . S
C175 H151 0.951 . S
C175 C174 1.392 . S
C175 C176 1.392 . S
C176 H152 0.949 . S
C176 C171 1.382 . S
C176 C175 1.392 . S
C177 C178 1.376 . S
C177 C182 1.386 . S
C177 C183 1.483 . S
C178 H153 0.949 . S
C178 C177 1.376 . S
C178 C179 1.397 . S
C179 H154 0.950 . S
C179 C178 1.397 . S
C179 C180 1.391 . S
C180 C179 1.391 . S
C180 C181 1.405 . S
C181 H155 0.950 . S
C181 C180 1.405 . S
C181 C182 1.367 . S
C182 H156 0.950 . S
C182 C177 1.386 . S
C182 C181 1.367 . S
C183 C177 1.483 . S
C183 C184 1.382 . S
C183 C185 1.403 . S
C184 H157 0.950 . S
C184 C170 1.411 . S
C184 C183 1.382 . S
C185 C169 1.411 . S
C185 C183 1.403 . S
C185 C186 1.489 . S
C186 C185 1.489 . S
C186 C187 1.383 . S
C186 C191 1.382 . S
C187 H158 0.950 . S
C187 C186 1.383 . S
C187 C188 1.395 . S
C188 H159 0.950 . S
C188 C187 1.395 . S
C188 C189 1.288 . S
C189 C188 1.288 . S
C189 C190 1.392 . S
C190 H160 0.951 . S
C190 C189 1.392 . S
C190 C191 1.392 . S
C191 H161 0.949 . S
C191 C186 1.382 . S
C191 C190 1.392 . S
H192 C211 0.949 . S
H193 C212 0.950 . S
H194 C214 0.950 . S
H195 C215 0.950 . S
H196 C217 0.950 . S
H197 C220 0.950 . S
H198 C221 0.950 . S
H199 C223 0.951 . S
H200 C224 0.949 . S
H201 C226 0.949 . S
H202 C227 0.950 . S
H203 C229 0.950 . S
H204 C230 0.950 . S
H205 C232 0.950 . S
H206 C235 0.950 . S
H207 C236 0.950 . S
H208 C238 0.951 . S
H209 C239 0.949 . S
C210 C211 1.376 . S
C210 C215 1.386 . S
C210 C216 1.483 . S
C211 H192 0.949 . S
C211 C210 1.376 . S
C211 C212 1.397 . S
C212 H193 0.950 . S
C212 C211 1.397 . S
C212 C213 1.391 . S
C213 C212 1.391 . S
C213 C214 1.405 . S
C214 H194 0.950 . S
C214 C213 1.405 . S
C214 C215 1.367 . S
C215 H195 0.950 . S
C215 C210 1.386 . S
C215 C214 1.367 . S
C216 C210 1.483 . S
C216 C217 1.382 . S
C216 C218 1.403 . S
C217 H196 0.950 . S
C217 C216 1.382 . S
C217 C233 1.411 . S
C218 C216 1.403 . S
C218 C219 1.489 . S
C218 C232 1.411 . S
C219 C218 1.489 . S
C219 C220 1.383 . S
C219 C224 1.382 . S
C220 H197 0.950 . S
C220 C219 1.383 . S
C220 C221 1.395 . S
C221 H198 0.950 . S
C221 C220 1.395 . S
C221 C222 1.288 . S
C222 C221 1.288 . S
C222 C223 1.392 . S
C223 H199 0.951 . S
C223 C222 1.392 . S
C223 C224 1.392 . S
C224 H200 0.949 . S
C224 C219 1.382 . S
C224 C223 1.392 . S
C225 C226 1.376 . S
C225 C230 1.386 . S
C225 C231 1.483 . S
C226 H201 0.949 . S
C226 C225 1.376 . S
C226 C227 1.397 . S
C227 H202 0.950 . S
C227 C226 1.397 . S
C227 C228 1.391 . S
C228 C227 1.391 . S
C228 C229 1.405 . S
C229 H203 0.950 . S
C229 C228 1.405 . S
C229 C230 1.367 . S
C230 H204 0.950 . S
C230 C225 1.386 . S
C230 C229 1.367 . S
C231 C225 1.483 . S
C231 C232 1.382 . S
C231 C233 1.403 . S
C232 H205 0.950 . S
C232 C218 1.411 . S
C232 C231 1.382 . S
C233 C217 1.411 . S
C233 C231 1.403 . S
C233 C234 1.489 . S
C234 C233 1.489 . S
C234 C235 1.383 . S
C234 C239 1.382 . S
C235 H206 0.950 . S
C235 C234 1.383 . S
C235 C236 1.395 . S
C236 H207 0.950 . S
C236 C235 1.395 . S
C236 C237 1.288 . S
C237 C236 1.288 . S
C237 C238 1.392 . S
C238 H208 0.951 . S
C238 C237 1.392 . S
C238 C239 1.392 . S
C239 H209 0.949 . S
C239 C234 1.382 . S
C239 C238 1.392 . S
H240 C259 0.949 . S
H241 C260 0.950 . S
H242 C262 0.950 . S
H243 C263 0.950 . S
H244 C265 0.950 . S
H245 C268 0.950 . S
H246 C269 0.950 . S
H247 C271 0.951 . S
H248 C272 0.949 . S
H249 C274 0.949 . S
H250 C275 0.950 . S
H251 C277 0.950 . S
H252 C278 0.950 . S
H253 C280 0.950 . S
H254 C283 0.950 . S
H255 C284 0.950 . S
H256 C286 0.951 . S
H257 C287 0.949 . S
C258 C259 1.376 . S
C258 C263 1.386 . S
C258 C264 1.483 . S
C259 H240 0.949 . S
C259 C258 1.376 . S
C259 C260 1.397 . S
C260 H241 0.950 . S
C260 C259 1.397 . S
C260 C261 1.391 . S
C261 C260 1.391 . S
C261 C262 1.405 . S
C262 H242 0.950 . S
C262 C261 1.405 . S
C262 C263 1.367 . S
C263 H243 0.950 . S
C263 C258 1.386 . S
C263 C262 1.367 . S
C264 C258 1.483 . S
C264 C265 1.382 . S
C264 C266 1.403 . S
C265 H244 0.950 . S
C265 C264 1.382 . S
C265 C281 1.411 . S
C266 C264 1.403 . S
C266 C267 1.489 . S
C266 C280 1.411 . S
C267 C266 1.489 . S
C267 C268 1.383 . S
C267 C272 1.382 . S
C268 H245 0.950 . S
C268 C267 1.383 . S
C268 C269 1.395 . S
C269 H246 0.950 . S
C269 C268 1.395 . S
C269 C270 1.288 . S
C270 C269 1.288 . S
C270 C271 1.392 . S
C271 H247 0.951 . S
C271 C270 1.392 . S
C271 C272 1.392 . S
C272 H248 0.949 . S
C272 C267 1.382 . S
C272 C271 1.392 . S
C273 C274 1.376 . S
C273 C278 1.386 . S
C273 C279 1.483 . S
C274 H249 0.949 . S
C274 C273 1.376 . S
C274 C275 1.397 . S
C275 H250 0.950 . S
C275 C274 1.397 . S
C275 C276 1.391 . S
C276 C275 1.391 . S
C276 C277 1.405 . S
C277 H251 0.950 . S
C277 C276 1.405 . S
C277 C278 1.367 . S
C278 H252 0.950 . S
C278 C273 1.386 . S
C278 C277 1.367 . S
C279 C273 1.483 . S
C279 C280 1.382 . S
C279 C281 1.403 . S
C280 H253 0.950 . S
C280 C266 1.411 . S
C280 C279 1.382 . S
C281 C265 1.411 . S
C281 C279 1.403 . S
C281 C282 1.489 . S
C282 C281 1.489 . S
C282 C283 1.383 . S
C282 C287 1.382 . S
C283 H254 0.950 . S
C283 C282 1.383 . S
C283 C284 1.395 . S
C284 H255 0.950 . S
C284 C283 1.395 . S
C284 C285 1.288 . S
C285 C284 1.288 . S
C285 C286 1.392 . S
C286 H256 0.951 . S
C286 C285 1.392 . S
C286 C287 1.392 . S
C287 H257 0.949 . S
C287 C282 1.382 . S
C287 C286 1.392 . S
H288 C307 0.949 . S
H289 C308 0.950 . S
H290 C310 0.950 . S
H291 C311 0.950 . S
H292 C313 0.950 . S
H293 C316 0.950 . S
H294 C317 0.950 . S
H295 C319 0.951 . S
H296 C320 0.949 . S
H297 C322 0.949 . S
H298 C323 0.950 . S
H299 C325 0.950 . S
H300 C326 0.950 . S
H301 C328 0.950 . S
H302 C331 0.950 . S
H303 C332 0.950 . S
H304 C334 0.951 . S
H305 C335 0.949 . S
C306 C307 1.376 . S
C306 C311 1.386 . S
C306 C312 1.483 . S
C307 H288 0.949 . S
C307 C306 1.376 . S
C307 C308 1.397 . S
C308 H289 0.950 . S
C308 C307 1.397 . S
C308 C309 1.391 . S
C309 C308 1.391 . S
C309 C310 1.405 . S
C310 H290 0.950 . S
C310 C309 1.405 . S
C310 C311 1.367 . S
C311 H291 0.950 . S
C311 C306 1.386 . S
C311 C310 1.367 . S
C312 C306 1.483 . S
C312 C313 1.382 . S
C312 C314 1.403 . S
C313 H292 0.950 . S
C313 C312 1.382 . S
C313 C329 1.411 . S
C314 C312 1.403 . S
C314 C315 1.489 . S
C314 C328 1.411 . S
C315 C314 1.489 . S
C315 C316 1.383 . S
C315 C320 1.382 . S
C316 H293 0.950 . S
C316 C315 1.383 . S
C316 C317 1.395 . S
C317 H294 0.950 . S
C317 C316 1.395 . S
C317 C318 1.288 . S
C318 C317 1.288 . S
C318 C319 1.392 . S
C319 H295 0.951 . S
C319 C318 1.392 . S
C319 C320 1.392 . S
C320 H296 0.949 . S
C320 C315 1.382 . S
C320 C319 1.392 . S
C321 C322 1.376 . S
C321 C326 1.386 . S
C321 C327 1.483 . S
C322 H297 0.949 . S
C322 C321 1.376 . S
C322 C323 1.397 . S
C323 H298 0.950 . S
C323 C322 1.397 . S
C323 C324 1.391 . S
C324 C323 1.391 . S
C324 C325 1.405 . S
C325 H299 0.950 . S
C325 C324 1.405 . S
C325 C326 1.367 . S
C326 H300 0.950 . S
C326 C321 1.386 . S
C326 C325 1.367 . S
C327 C321 1.483 . S
C327 C328 1.382 . S
C327 C329 1.403 . S
C328 H301 0.950 . S
C328 C314 1.411 . S
C328 C327 1.382 . S
C329 C313 1.411 . S
C329 C327 1.403 . S
C329 C330 1.489 . S
C330 C329 1.489 . S
C330 C331 1.383 . S
C330 C335 1.382 . S
C331 H302 0.950 . S
C331 C330 1.383 . S
C331 C332 1.395 . S
C332 H303 0.950 . S
C332 C331 1.395 . S
C332 C333 1.288 . S
C333 C332 1.288 . S
C333 C334 1.392 . S
C334 H304 0.951 . S
C334 C333 1.392 . S
C334 C335 1.392 . S
C335 H305 0.949 . S
C335 C330 1.382 . S
C335 C334 1.392 . S
H336 C355 0.949 . S
H337 C356 0.950 . S
H338 C358 0.950 . S
H339 C359 0.950 . S
H340 C361 0.950 . S
H341 C364 0.950 . S
H342 C365 0.950 . S
H343 C367 0.951 . S
H344 C368 0.949 . S
H345 C370 0.949 . S
H346 C371 0.950 . S
H347 C373 0.950 . S
H348 C374 0.950 . S
H349 C376 0.950 . S
H350 C379 0.950 . S
H351 C380 0.950 . S
H352 C382 0.951 . S
H353 C383 0.949 . S
C354 C355 1.376 . S
C354 C359 1.386 . S
C354 C360 1.483 . S
C355 H336 0.949 . S
C355 C354 1.376 . S
C355 C356 1.397 . S
C356 H337 0.950 . S
C356 C355 1.397 . S
C356 C357 1.391 . S
C357 C356 1.391 . S
C357 C358 1.405 . S
C358 H338 0.950 . S
C358 C357 1.405 . S
C358 C359 1.367 . S
C359 H339 0.950 . S
C359 C354 1.386 . S
C359 C358 1.367 . S
C360 C354 1.483 . S
C360 C361 1.382 . S
C360 C362 1.403 . S
C361 H340 0.950 . S
C361 C360 1.382 . S
C361 C377 1.411 . S
C362 C360 1.403 . S
C362 C363 1.489 . S
C362 C376 1.411 . S
C363 C362 1.489 . S
C363 C364 1.383 . S
C363 C368 1.382 . S
C364 H341 0.950 . S
C364 C363 1.383 . S
C364 C365 1.395 . S
C365 H342 0.950 . S
C365 C364 1.395 . S
C365 C366 1.288 . S
C366 C365 1.288 . S
C366 C367 1.392 . S
C367 H343 0.951 . S
C367 C366 1.392 . S
C367 C368 1.392 . S
C368 H344 0.949 . S
C368 C363 1.382 . S
C368 C367 1.392 . S
C369 C370 1.376 . S
C369 C374 1.386 . S
C369 C375 1.483 . S
C370 H345 0.949 . S
C370 C369 1.376 . S
C370 C371 1.397 . S
C371 H346 0.950 . S
C371 C370 1.397 . S
C371 C372 1.391 . S
C372 C371 1.391 . S
C372 C373 1.405 . S
C373 H347 0.950 . S
C373 C372 1.405 . S
C373 C374 1.367 . S
C374 H348 0.950 . S
C374 C369 1.386 . S
C374 C373 1.367 . S
C375 C369 1.483 . S
C375 C376 1.382 . S
C375 C377 1.403 . S
C376 H349 0.950 . S
C376 C362 1.411 . S
C376 C375 1.382 . S
C377 C361 1.411 . S
C377 C375 1.403 . S
C377 C378 1.489 . S
C378 C377 1.489 . S
C378 C379 1.383 . S
C378 C383 1.382 . S
C379 H350 0.950 . S
C379 C378 1.383 . S
C379 C380 1.395 . S
C380 H351 0.950 . S
C380 C379 1.395 . S
C380 C381 1.288 . S
C381 C380 1.288 . S
C381 C382 1.392 . S
C382 H352 0.951 . S
C382 C381 1.392 . S
C382 C383 1.392 . S
C383 H353 0.949 . S
C383 C378 1.382 . S
C383 C382 1.392 . S
C384 C385 1.443 . S
C384 N388 1.376 . S
C384 C422 1.389 . S
C385 C384 1.443 . S
C385 C386 1.340 . S
C385 H425 0.951 . S
C386 C385 1.340 . S
C386 C387 1.439 . S
C386 H426 0.950 . S
C387 C386 1.439 . S
C387 N388 1.374 . S
C387 C421 1.395 . S
N388 C384 1.376 . S
N388 C387 1.374 . S
N388 Co389 2.008 . S
Co389 N388 2.008 . S
Co389 N390 1.995 1_455 S
Co389 N395 2.008 1_455 S
Co389 N400 1.995 . S
Co389 N405 2.282 1_455 S
Co389 N411 2.282 . S
N390 Co389 1.995 1_655 S
N390 C391 1.376 . S
N390 C394 1.383 . S
C391 N390 1.376 . S
C391 C392 1.446 . S
C391 C421 1.391 1_655 S
C392 C391 1.446 . S
C392 C393 1.339 . S
C392 H427 0.949 . S
C393 C392 1.339 . S
C393 C394 1.439 . S
C393 H428 0.950 . S
C394 N390 1.383 . S
C394 C393 1.439 . S
C394 C423 1.392 . S
N395 Co389 2.008 1_655 S
N395 C396 1.376 . S
N395 C399 1.374 . S
C396 N395 1.376 . S
C396 C397 1.443 . S
C396 C423 1.389 . S
C397 C396 1.443 . S
C397 C398 1.340 . S
C397 H429 0.951 . S
C398 C397 1.340 . S
C398 C399 1.439 . S
C398 H430 0.950 . S
C399 N395 1.374 . S
C399 C398 1.439 . S
C399 C424 1.396 . S
N400 Co389 1.995 . S
N400 C401 1.376 . S
N400 C404 1.383 . S
C401 N400 1.376 . S
C401 C402 1.446 . S
C401 C424 1.391 1_455 S
C402 C401 1.446 . S
C402 C403 1.339 . S
C402 H431 0.949 . S
C403 C402 1.339 . S
C403 C404 1.439 . S
C403 H432 0.950 . S
C404 N400 1.383 . S
C404 C403 1.439 . S
C404 C422 1.392 . S
N405 Co389 2.282 1_655 S
N405 C408 1.332 . S
N405 C410 1.332 . S
C406 C407 1.386 . S
C406 C409 1.388 . S
C407 C406 1.386 . S
C407 C408 1.382 . S
C407 H433 0.950 . S
C408 N405 1.332 . S
C408 C407 1.382 . S
C408 H419 0.952 . S
C409 C406 1.388 . S
C409 C410 1.382 . S
C409 H434 0.950 . S
C410 N405 1.332 . S
C410 C409 1.382 . S
C410 H420 0.948 . S
N411 Co389 2.282 . S
N411 C415 1.332 . S
N411 C416 1.332 . S
C412 C413 1.388 . S
C412 C416 1.382 . S
C412 H435 0.950 . S
C413 C412 1.388 . S
C413 C414 1.386 . S
C414 C413 1.386 . S
C414 C415 1.382 . S
C414 H436 0.950 . S
C415 N411 1.332 . S
C415 C414 1.382 . S
C415 H417 0.952 . S
C416 N411 1.332 . S
C416 C412 1.382 . S
C416 H418 0.948 . S
H417 C415 0.952 . S
H418 C416 0.948 . S
H419 C408 0.952 . S
H420 C410 0.948 . S
C421 C387 1.395 . S
C421 C391 1.391 1_455 S
C422 C384 1.389 . S
C422 C404 1.392 . S
C423 C394 1.392 . S
C423 C396 1.389 . S
C424 C399 1.396 . S
C424 C401 1.391 1_655 S
H425 C385 0.951 . S
H426 C386 0.950 . S
H427 C392 0.949 . S
H428 C393 0.950 . S
H429 C397 0.951 . S
H430 C398 0.950 . S
H431 C402 0.949 . S
H432 C403 0.950 . S
H433 C407 0.950 . S
H434 C409 0.950 . S
H435 C412 0.950 . S
H436 C414 0.950 . S
C437 C438 1.443 . S
C437 N441 1.376 . S
C437 C475 1.389 . S
C438 C437 1.443 . S
C438 C439 1.340 . S
C438 H478 0.951 . S
C439 C438 1.340 . S
C439 C440 1.439 . S
C439 H479 0.950 . S
C440 C439 1.439 . S
C440 N441 1.374 . S
C440 C474 1.395 . S
N441 C437 1.376 . S
N441 C440 1.374 . S
N441 Co442 2.008 . S
Co442 N441 2.008 . S
Co442 N443 1.995 1_545 S
Co442 N448 2.008 1_545 S
Co442 N453 1.995 . S
Co442 N458 2.282 1_545 S
Co442 N464 2.282 . S
N443 Co442 1.995 1_565 S
N443 C444 1.376 . S
N443 C447 1.383 . S
C444 N443 1.376 . S
C444 C445 1.446 . S
C444 C474 1.391 1_565 S
C445 C444 1.446 . S
C445 C446 1.339 . S
C445 H480 0.949 . S
C446 C445 1.339 . S
C446 C447 1.439 . S
C446 H481 0.950 . S
C447 N443 1.383 . S
C447 C446 1.439 . S
C447 C476 1.392 . S
N448 Co442 2.008 1_565 S
N448 C449 1.376 . S
N448 C452 1.374 . S
C449 N448 1.376 . S
C449 C450 1.443 . S
C449 C476 1.389 . S
C450 C449 1.443 . S
C450 C451 1.340 . S
C450 H482 0.951 . S
C451 C450 1.340 . S
C451 C452 1.439 . S
C451 H483 0.950 . S
C452 N448 1.374 . S
C452 C451 1.439 . S
C452 C477 1.378 1_565 S
N453 Co442 1.995 . S
N453 C454 1.376 . S
N453 C457 1.383 . S
C454 N453 1.376 . S
C454 C455 1.446 . S
C454 C477 1.410 . S
C455 C454 1.446 . S
C455 C456 1.339 . S
C455 H484 0.949 . S
C456 C455 1.339 . S
C456 C457 1.439 . S
C456 H485 0.950 . S
C457 N453 1.383 . S
C457 C456 1.439 . S
C457 C475 1.392 . S
N458 Co442 2.282 1_565 S
N458 C461 1.332 . S
N458 C463 1.332 . S
C459 C460 1.386 . S
C459 C462 1.388 . S
C460 C459 1.386 . S
C460 C461 1.382 . S
C460 H486 0.950 . S
C461 N458 1.332 . S
C461 C460 1.382 . S
C461 H472 0.952 . S
C462 C459 1.388 . S
C462 C463 1.382 . S
C462 H487 0.950 . S
C463 N458 1.332 . S
C463 C462 1.382 . S
C463 H473 0.948 . S
N464 Co442 2.282 . S
N464 C468 1.332 . S
N464 C469 1.332 . S
C465 C466 1.388 . S
C465 C469 1.382 . S
C465 H488 0.950 . S
C466 C465 1.388 . S
C466 C467 1.386 . S
C467 C466 1.386 . S
C467 C468 1.382 . S
C467 H489 0.950 . S
C468 N464 1.332 . S
C468 C467 1.382 . S
C468 H470 0.952 . S
C469 N464 1.332 . S
C469 C465 1.382 . S
C469 H471 0.948 . S
H470 C468 0.952 . S
H471 C469 0.948 . S
H472 C461 0.952 . S
H473 C463 0.948 . S
C474 C440 1.395 . S
C474 C444 1.391 1_545 S
C475 C437 1.389 . S
C475 C457 1.392 . S
C476 C447 1.392 . S
C476 C449 1.389 . S
C477 C452 1.378 1_545 S
C477 C454 1.410 . S
H478 C438 0.951 . S
H479 C439 0.950 . S
H480 C445 0.949 . S
H481 C446 0.950 . S
H482 C450 0.951 . S
H483 C451 0.950 . S
H484 C455 0.949 . S
H485 C456 0.950 . S
H486 C460 0.950 . S
H487 C462 0.950 . S
H488 C465 0.950 . S
H489 C467 0.950 . S
C490 C491 1.443 . S
C490 N494 1.376 . S
C490 C528 1.389 . S
C491 C490 1.443 . S
C491 C492 1.340 . S
C491 H531 0.951 . S
C492 C491 1.340 . S
C492 C493 1.439 . S
C492 H532 0.950 . S
C493 C492 1.439 . S
C493 N494 1.374 . S
C493 C527 1.395 . S
N494 C490 1.376 . S
N494 C493 1.374 . S
N494 Co495 2.008 . S
Co495 N494 2.008 . S
Co495 N496 1.995 1_455 S
Co495 N501 2.008 1_455 S
Co495 N506 1.995 . S
Co495 N511 2.282 1_455 S
Co495 N517 2.282 . S
N496 Co495 1.995 1_655 S
N496 C497 1.376 . S
N496 C500 1.383 . S
C497 N496 1.376 . S
C497 C498 1.446 . S
C497 C527 1.391 1_655 S
C498 C497 1.446 . S
C498 C499 1.339 . S
C498 H533 0.949 . S
C499 C498 1.339 . S
C499 C500 1.439 . S
C499 H534 0.950 . S
C500 N496 1.383 . S
C500 C499 1.439 . S
C500 C529 1.392 . S
N501 Co495 2.008 1_655 S
N501 C502 1.376 . S
N501 C505 1.374 . S
C502 N501 1.376 . S
C502 C503 1.443 . S
C502 C529 1.389 . S
C503 C502 1.443 . S
C503 C504 1.340 . S
C503 H535 0.951 . S
C504 C503 1.340 . S
C504 C505 1.439 . S
C504 H536 0.950 . S
C505 N501 1.374 . S
C505 C504 1.439 . S
C505 C530 1.395 . S
N506 Co495 1.995 . S
N506 C507 1.376 . S
N506 C510 1.383 . S
C507 N506 1.376 . S
C507 C508 1.446 . S
C507 C530 1.391 1_455 S
C508 C507 1.446 . S
C508 C509 1.339 . S
C508 H537 0.949 . S
C509 C508 1.339 . S
C509 C510 1.439 . S
C509 H538 0.950 . S
C510 N506 1.383 . S
C510 C509 1.439 . S
C510 C528 1.392 . S
N511 Co495 2.282 1_655 S
N511 C514 1.332 . S
N511 C516 1.332 . S
C512 C513 1.386 . S
C512 C515 1.388 . S
C513 C512 1.386 . S
C513 C514 1.382 . S
C513 H539 0.950 . S
C514 N511 1.332 . S
C514 C513 1.382 . S
C514 H525 0.952 . S
C515 C512 1.388 . S
C515 C516 1.382 . S
C515 H540 0.950 . S
C516 N511 1.332 . S
C516 C515 1.382 . S
C516 H526 0.948 . S
N517 Co495 2.282 . S
N517 C521 1.332 . S
N517 C522 1.332 . S
C518 C519 1.388 . S
C518 C522 1.382 . S
C518 H541 0.950 . S
C519 C518 1.388 . S
C519 C520 1.386 . S
C520 C519 1.386 . S
C520 C521 1.382 . S
C520 H542 0.950 . S
C521 N517 1.332 . S
C521 C520 1.382 . S
C521 H523 0.952 . S
C522 N517 1.332 . S
C522 C518 1.382 . S
C522 H524 0.948 . S
H523 C521 0.952 . S
H524 C522 0.948 . S
H525 C514 0.952 . S
H526 C516 0.948 . S
C527 C493 1.395 . S
C527 C497 1.391 1_455 S
C528 C490 1.389 . S
C528 C510 1.392 . S
C529 C500 1.392 . S
C529 C502 1.389 . S
C530 C505 1.395 . S
C530 C507 1.391 1_655 S
H531 C491 0.951 . S
H532 C492 0.950 . S
H533 C498 0.949 . S
H534 C499 0.950 . S
H535 C503 0.951 . S
H536 C504 0.950 . S
H537 C508 0.949 . S
H538 C509 0.950 . S
H539 C513 0.950 . S
H540 C515 0.950 . S
H541 C518 0.950 . S
H542 C520 0.950 . S
C543 C544 1.443 . S
C543 N547 1.376 . S
C543 C581 1.389 . S
C544 C543 1.443 . S
C544 C545 1.340 . S
C544 H584 0.951 . S
C545 C544 1.340 . S
C545 C546 1.439 . S
C545 H585 0.950 . S
C546 C545 1.439 . S
C546 N547 1.374 . S
C546 C580 1.401 . S
N547 C543 1.376 . S
N547 C546 1.374 . S
N547 Co548 2.008 1_565 S
Co548 N547 2.008 1_545 S
Co548 N549 1.995 . S
Co548 N554 2.008 . S
Co548 N559 1.995 1_545 S
Co548 N564 2.282 . S
Co548 N570 2.282 1_545 S
N549 Co548 1.995 . S
N549 C550 1.376 . S
N549 C553 1.383 . S
C550 N549 1.376 . S
C550 C551 1.446 . S
C550 C580 1.385 1_545 S
C551 C550 1.446 . S
C551 C552 1.339 . S
C551 H586 0.949 . S
C552 C551 1.339 . S
C552 C553 1.439 . S
C552 H587 0.950 . S
C553 N549 1.383 . S
C553 C552 1.439 . S
C553 C582 1.392 . S
N554 Co548 2.008 . S
N554 C555 1.376 . S
N554 C558 1.374 . S
C555 N554 1.376 . S
C555 C556 1.443 . S
C555 C582 1.389 . S
C556 C555 1.443 . S
C556 C557 1.340 . S
C556 H588 0.951 . S
C557 C556 1.340 . S
C557 C558 1.439 . S
C557 H589 0.950 . S
C558 N554 1.374 . S
C558 C557 1.439 . S
C558 C583 1.395 . S
N559 Co548 1.995 1_565 S
N559 C560 1.376 . S
N559 C563 1.383 . S
C560 N559 1.376 . S
C560 C561 1.446 . S
C560 C583 1.391 1_565 S
C561 C560 1.446 . S
C561 C562 1.339 . S
C561 H590 0.949 . S
C562 C561 1.339 . S
C562 C563 1.439 . S
C562 H591 0.950 . S
C563 N559 1.383 . S
C563 C562 1.439 . S
C563 C581 1.392 . S
N564 Co548 2.282 . S
N564 C567 1.332 . S
N564 C569 1.332 . S
C565 C566 1.386 . S
C565 C568 1.388 . S
C566 C565 1.386 . S
C566 C567 1.382 . S
C566 H592 0.950 . S
C567 N564 1.332 . S
C567 C566 1.382 . S
C567 H578 0.952 . S
C568 C565 1.388 . S
C568 C569 1.382 . S
C568 H593 0.950 . S
C569 N564 1.332 . S
C569 C568 1.382 . S
C569 H579 0.948 . S
N570 Co548 2.282 1_565 S
N570 C574 1.332 . S
N570 C575 1.332 . S
C571 C572 1.388 . S
C571 C575 1.382 . S
C571 H594 0.950 . S
C572 C571 1.388 . S
C572 C573 1.386 . S
C573 C572 1.386 . S
C573 C574 1.382 . S
C573 H595 0.950 . S
C574 N570 1.332 . S
C574 C573 1.382 . S
C574 H576 0.952 . S
C575 N570 1.332 . S
C575 C571 1.382 . S
C575 H577 0.948 . S
H576 C574 0.952 . S
H577 C575 0.948 . S
H578 C567 0.952 . S
H579 C569 0.948 . S
C580 C546 1.401 . S
C580 C550 1.385 1_565 S
C581 C543 1.389 . S
C581 C563 1.392 . S
C582 C553 1.392 . S
C582 C555 1.389 . S
C583 C558 1.395 . S
C583 C560 1.391 1_545 S
H584 C544 0.951 . S
H585 C545 0.950 . S
H586 C551 0.949 . S
H587 C552 0.950 . S
H588 C556 0.951 . S
H589 C557 0.950 . S
H590 C561 0.949 . S
H591 C562 0.950 . S
H592 C566 0.950 . S
H593 C568 0.950 . S
H594 C571 0.950 . S
H595 C573 0.950 . S
C596 C597 1.443 . S
C596 N600 1.376 . S
C596 C634 1.389 . S
C597 C596 1.443 . S
C597 C598 1.340 . S
C597 H637 0.951 . S
C598 C597 1.340 . S
C598 C599 1.439 . S
C598 H638 0.950 . S
C599 C598 1.439 . S
C599 N600 1.374 . S
C599 C633 1.390 1_554 S
N600 C596 1.376 . S
N600 C599 1.374 . S
N600 Co601 2.008 . S
Co601 N600 2.008 . S
Co601 N602 1.995 1_554 S
Co601 N607 2.008 1_554 S
Co601 N612 1.995 . S
Co601 N617 2.282 . S
Co601 N623 2.282 1_554 S
N602 Co601 1.995 1_556 S
N602 C603 1.376 . S
N602 C606 1.383 . S
C603 N602 1.376 . S
C603 C604 1.446 . S
C603 C633 1.395 . S
C604 C603 1.446 . S
C604 C605 1.339 . S
C604 H639 0.949 . S
C605 C604 1.339 . S
C605 C606 1.439 . S
C605 H640 0.950 . S
C606 N602 1.383 . S
C606 C605 1.439 . S
C606 C635 1.392 . S
N607 Co601 2.008 1_556 S
N607 C608 1.376 . S
N607 C611 1.374 . S
C608 N607 1.376 . S
C608 C609 1.443 . S
C608 C635 1.389 . S
C609 C608 1.443 . S
C609 C610 1.340 . S
C609 H641 0.951 . S
C610 C609 1.340 . S
C610 C611 1.439 . S
C610 H642 0.950 . S
C611 N607 1.374 . S
C611 C610 1.439 . S
C611 C636 1.386 1_556 S
N612 Co601 1.995 . S
N612 C613 1.376 . S
N612 C616 1.383 . S
C613 N612 1.376 . S
C613 C614 1.446 . S
C613 C636 1.399 . S
C614 C613 1.446 . S
C614 C615 1.339 . S
C614 H643 0.949 . S
C615 C614 1.339 . S
C615 C616 1.439 . S
C615 H644 0.950 . S
C616 N612 1.383 . S
C616 C615 1.439 . S
C616 C634 1.392 . S
N617 Co601 2.282 . S
N617 C620 1.332 . S
N617 C622 1.332 . S
C618 C619 1.386 . S
C618 C621 1.388 . S
C619 C618 1.386 . S
C619 C620 1.382 . S
C619 H645 0.950 . S
C620 N617 1.332 . S
C620 C619 1.382 . S
C620 H631 0.952 . S
C621 C618 1.388 . S
C621 C622 1.382 . S
C621 H646 0.950 . S
C622 N617 1.332 . S
C622 C621 1.382 . S
C622 H632 0.948 . S
N623 Co601 2.282 1_556 S
N623 C627 1.332 . S
N623 C628 1.332 . S
C624 C625 1.388 . S
C624 C628 1.382 . S
C624 H647 0.950 . S
C625 C624 1.388 . S
C625 C626 1.386 . S
C626 C625 1.386 . S
C626 C627 1.382 . S
C626 H648 0.950 . S
C627 N623 1.332 . S
C627 C626 1.382 . S
C627 H629 0.952 . S
C628 N623 1.332 . S
C628 C624 1.382 . S
C628 H630 0.948 . S
H629 C627 0.952 . S
H630 C628 0.948 . S
H631 C620 0.952 . S
H632 C622 0.948 . S
C633 C599 1.390 1_556 S
C633 C603 1.395 . S
C634 C596 1.389 . S
C634 C616 1.392 . S
C635 C606 1.392 . S
C635 C608 1.389 . S
C636 C611 1.386 1_554 S
C636 C613 1.399 . S
H637 C597 0.951 . S
H638 C598 0.950 . S
H639 C604 0.949 . S
H640 C605 0.950 . S
H641 C609 0.951 . S
H642 C610 0.950 . S
H643 C614 0.949 . S
H644 C615 0.950 . S
H645 C619 0.950 . S
H646 C621 0.950 . S
H647 C624 0.950 . S
H648 C626 0.950 . S
C649 C650 1.443 . S
C649 N653 1.376 . S
C649 C687 1.389 . S
C650 C649 1.443 . S
C650 C651 1.340 . S
C650 H690 0.951 . S
C651 C650 1.340 . S
C651 C652 1.439 . S
C651 H691 0.950 . S
C652 C651 1.439 . S
C652 N653 1.374 . S
C652 C686 1.395 . S
N653 C649 1.376 . S
N653 C652 1.374 . S
N653 Co654 2.008 . S
Co654 N653 2.008 . S
Co654 N655 1.995 1_554 S
Co654 N660 2.008 . S
Co654 N665 1.995 . S
Co654 N670 2.282 . S
Co654 N676 2.282 1_554 S
N655 Co654 1.995 1_556 S
N655 C656 1.376 . S
N655 C659 1.383 . S
C656 N655 1.376 . S
C656 C657 1.446 . S
C656 C686 1.391 1_556 S
C657 C656 1.446 . S
C657 C658 1.339 . S
C657 H692 0.949 . S
C658 C657 1.339 . S
C658 C659 1.439 . S
C658 H693 0.950 . S
C659 N655 1.383 . S
C659 C658 1.439 . S
C659 C688 1.392 . S
N660 Co654 2.008 . S
N660 C661 1.376 1_554 S
N660 C664 1.374 . S
C661 N660 1.376 1_556 S
C661 C662 1.443 . S
C661 C688 1.389 . S
C662 C661 1.443 . S
C662 C663 1.340 . S
C662 H694 0.951 . S
C663 C662 1.340 . S
C663 C664 1.439 1_556 S
C663 H695 0.950 1_556 S
C664 N660 1.374 . S
C664 C663 1.439 1_554 S
C664 C689 1.395 . S
N665 Co654 1.995 . S
N665 C666 1.376 . S
N665 C669 1.383 . S
C666 N665 1.376 . S
C666 C667 1.446 . S
C666 C689 1.391 . S
C667 C666 1.446 . S
C667 C668 1.339 . S
C667 H696 0.949 . S
C668 C667 1.339 . S
C668 C669 1.439 . S
C668 H697 0.950 . S
C669 N665 1.383 . S
C669 C668 1.439 . S
C669 C687 1.392 . S
N670 Co654 2.282 . S
N670 C673 1.332 . S
N670 C675 1.332 . S
C671 C672 1.386 . S
C671 C674 1.388 . S
C672 C671 1.386 . S
C672 C673 1.382 . S
C672 H698 0.950 . S
C673 N670 1.332 . S
C673 C672 1.382 . S
C673 H684 0.952 . S
C674 C671 1.388 . S
C674 C675 1.382 . S
C674 H699 0.950 . S
C675 N670 1.332 . S
C675 C674 1.382 . S
C675 H685 0.948 . S
N676 Co654 2.282 1_556 S
N676 C680 1.332 . S
N676 C681 1.332 . S
C677 C678 1.388 . S
C677 C681 1.382 . S
C677 H700 0.950 . S
C678 C677 1.388 . S
C678 C679 1.386 . S
C679 C678 1.386 . S
C679 C680 1.382 . S
C679 H701 0.950 . S
C680 N676 1.332 . S
C680 C679 1.382 . S
C680 H682 0.952 . S
C681 N676 1.332 . S
C681 C677 1.382 . S
C681 H683 0.948 . S
H682 C680 0.952 . S
H683 C681 0.948 . S
H684 C673 0.952 . S
H685 C675 0.948 . S
C686 C652 1.395 . S
C686 C656 1.391 1_554 S
C687 C649 1.389 . S
C687 C669 1.392 . S
C688 C659 1.392 . S
C688 C661 1.389 . S
C689 C664 1.395 . S
C689 C666 1.391 . S
H690 C650 0.951 . S
H691 C651 0.950 . S
H692 C657 0.949 . S
H693 C658 0.950 . S
H694 C662 0.951 . S
H695 C663 0.950 1_554 S
H696 C667 0.949 . S
H697 C668 0.950 . S
H698 C672 0.950 . S
H699 C674 0.950 . S
H700 C677 0.950 . S
H701 C679 0.950 . S
C702 C703 1.443 . S
C702 N706 1.376 1_556 S
C702 C740 1.389 . S
C703 C702 1.443 . S
C703 C704 1.340 1_556 S
C703 H743 0.951 . S
C704 C703 1.340 1_554 S
C704 C705 1.439 . S
C704 H744 0.950 . S
C705 C704 1.439 . S
C705 N706 1.374 . S
C705 C739 1.395 . S
N706 C702 1.376 1_554 S
N706 C705 1.374 . S
N706 Co707 2.008 . S
Co707 N706 2.008 . S
Co707 N708 1.995 . S
Co707 N713 2.008 . S
Co707 N718 1.986 1_554 S
Co707 N723 2.282 1_554 S
Co707 N729 2.282 . S
N708 Co707 1.995 . S
N708 C709 1.376 . S
N708 C712 1.383 . S
C709 N708 1.376 . S
C709 C710 1.446 . S
C709 C739 1.391 . S
C710 C709 1.446 . S
C710 C711 1.339 . S
C710 H745 0.949 . S
C711 C710 1.339 . S
C711 C712 1.439 . S
C711 H746 0.950 . S
C712 N708 1.383 . S
C712 C711 1.439 . S
C712 C741 1.392 . S
N713 Co707 2.008 . S
N713 C714 1.376 . S
N713 C717 1.374 . S
C714 N713 1.376 . S
C714 C715 1.443 . S
C714 C741 1.389 . S
C715 C714 1.443 . S
C715 C716 1.340 . S
C715 H747 0.951 . S
C716 C715 1.340 . S
C716 C717 1.439 . S
C716 H748 0.950 . S
C717 N713 1.374 . S
C717 C716 1.439 . S
C717 C742 1.395 . S
N718 Co707 1.986 1_556 S
N718 C719 1.377 . S
N718 C722 1.392 . S
C719 N718 1.377 . S
C719 C720 1.446 . S
C719 C742 1.391 1_556 S
C720 C719 1.446 . S
C720 C721 1.339 . S
C720 H749 0.949 . S
C721 C720 1.339 . S
C721 C722 1.439 . S
C721 H750 0.950 . S
C722 N718 1.392 . S
C722 C721 1.439 . S
C722 C740 1.392 . S
N723 Co707 2.282 1_556 S
N723 C726 1.332 . S
N723 C728 1.332 . S
C724 C725 1.386 . S
C724 C727 1.388 . S
C725 C724 1.386 . S
C725 C726 1.382 . S
C725 H751 0.950 . S
C726 N723 1.332 . S
C726 C725 1.382 . S
C726 H737 0.952 . S
C727 C724 1.388 . S
C727 C728 1.382 . S
C727 H752 0.950 . S
C728 N723 1.332 . S
C728 C727 1.382 . S
C728 H738 0.959 . S
N729 Co707 2.282 . S
N729 C733 1.332 . S
N729 C734 1.332 . S
C730 C731 1.388 . S
C730 C734 1.382 . S
C730 H753 0.950 . S
C731 C730 1.388 . S
C731 C732 1.386 . S
C732 C731 1.386 . S
C732 C733 1.382 . S
C732 H754 0.950 . S
C733 N729 1.332 . S
C733 C732 1.382 . S
C733 H735 0.952 . S
C734 N729 1.332 . S
C734 C730 1.382 . S
C734 H736 0.948 . S
H735 C733 0.952 . S
H736 C734 0.948 . S
H737 C726 0.952 . S
H738 C728 0.959 . S
C739 C705 1.395 . S
C739 C709 1.391 . S
C740 C702 1.389 . S
C740 C722 1.392 . S
C741 C712 1.392 . S
C741 C714 1.389 . S
C742 C717 1.395 . S
C742 C719 1.391 1_554 S
H743 C703 0.951 . S
H744 C704 0.950 . S
H745 C710 0.949 . S
H746 C711 0.950 . S
H747 C715 0.951 . S
H748 C716 0.950 . S
H749 C720 0.949 . S
H750 C721 0.950 . S
H751 C725 0.950 . S
H752 C727 0.950 . S
H753 C730 0.950 . S
H754 C732 0.950 . S
C755 C756 1.443 . S
C755 N759 1.376 . S
C755 C793 1.389 . S
C756 C755 1.443 . S
C756 C757 1.340 . S
C756 H796 0.951 . S
C757 C756 1.340 . S
C757 C758 1.439 . S
C757 H797 0.950 . S
C758 C757 1.439 . S
C758 N759 1.374 . S
C758 C792 1.395 1_554 S
N759 C755 1.376 . S
N759 C758 1.374 . S
N759 Co760 2.008 . S
Co760 N759 2.008 . S
Co760 N761 1.995 1_554 S
Co760 N766 2.008 1_554 S
Co760 N771 1.995 . S
Co760 N776 2.282 . S
Co760 N782 2.282 1_554 S
N761 Co760 1.995 1_556 S
N761 C762 1.376 . S
N761 C765 1.383 . S
C762 N761 1.376 . S
C762 C763 1.446 . S
C762 C792 1.391 . S
C763 C762 1.446 . S
C763 C764 1.339 . S
C763 H798 0.949 . S
C764 C763 1.339 . S
C764 C765 1.439 . S
C764 H799 0.950 . S
C765 N761 1.383 . S
C765 C764 1.439 . S
C765 C794 1.392 . S
N766 Co760 2.008 1_556 S
N766 C767 1.376 . S
N766 C770 1.374 1_556 S
C767 N766 1.376 . S
C767 C768 1.443 . S
C767 C794 1.389 . S
C768 C767 1.443 . S
C768 C769 1.340 . S
C768 H800 0.951 . S
C769 C768 1.340 . S
C769 C770 1.439 1_556 S
C769 H801 0.950 . S
C770 N766 1.374 1_554 S
C770 C769 1.439 1_554 S
C770 C795 1.395 . S
N771 Co760 1.995 . S
N771 C772 1.376 . S
N771 C775 1.383 . S
C772 N771 1.376 . S
C772 C773 1.446 . S
C772 C795 1.391 . S
C773 C772 1.446 . S
C773 C774 1.339 . S
C773 H802 0.949 . S
C774 C773 1.339 . S
C774 C775 1.439 . S
C774 H803 0.950 . S
C775 N771 1.383 . S
C775 C774 1.439 . S
C775 C793 1.392 . S
N776 Co760 2.282 . S
N776 C779 1.332 . S
N776 C781 1.332 . S
C777 C778 1.386 . S
C777 C780 1.388 . S
C778 C777 1.386 . S
C778 C779 1.382 . S
C778 H804 0.950 . S
C779 N776 1.332 . S
C779 C778 1.382 . S
C779 H790 0.952 . S
C780 C777 1.388 . S
C780 C781 1.382 . S
C780 H805 0.950 . S
C781 N776 1.332 . S
C781 C780 1.382 . S
C781 H791 0.948 . S
N782 Co760 2.282 1_556 S
N782 C786 1.332 . S
N782 C787 1.332 . S
C783 C784 1.388 . S
C783 C787 1.382 . S
C783 H806 0.950 . S
C784 C783 1.388 . S
C784 C785 1.386 . S
C785 C784 1.386 . S
C785 C786 1.382 . S
C785 H807 0.950 . S
C786 N782 1.332 . S
C786 C785 1.382 . S
C786 H788 0.952 . S
C787 N782 1.332 . S
C787 C783 1.382 . S
C787 H789 0.948 . S
H788 C786 0.952 . S
H789 C787 0.948 . S
H790 C779 0.952 . S
H791 C781 0.948 . S
C792 C758 1.395 1_556 S
C792 C762 1.391 . S
C793 C755 1.389 . S
C793 C775 1.392 . S
C794 C765 1.392 . S
C794 C767 1.389 . S
C795 C770 1.395 . S
C795 C772 1.391 . S
H796 C756 0.951 . S
H797 C757 0.950 . S
H798 C763 0.949 . S
H799 C764 0.950 . S
H800 C768 0.951 . S
H801 C769 0.950 . S
H802 C773 0.949 . S
H803 C774 0.950 . S
H804 C778 0.950 . S
H805 C780 0.950 . S
H806 C783 0.950 . S
H807 C785 0.950 . S
C808 C809 1.387 . S
C808 H812 0.950 . S
C808 C817 1.390 . S
C809 C808 1.387 . S
C809 C811 1.387 . S
H810 C817 0.950 . S
C811 C809 1.387 . S
C811 C813 1.390 . S
C811 H815 0.950 . S
H812 C808 0.950 . S
C813 C811 1.390 . S
C813 C814 1.387 . S
C813 H816 0.950 . S
C814 C813 1.387 . S
C814 C817 1.387 . S
H815 C811 0.950 . S
H816 C813 0.950 . S
C817 C808 1.390 . S
C817 H810 0.950 . S
C817 C814 1.387 . S
C818 C819 1.387 . S
C818 H822 0.950 . S
C818 C827 1.390 . S
C819 C818 1.387 . S
C819 C821 1.387 . S
H820 C827 0.950 . S
C821 C819 1.387 . S
C821 C823 1.390 . S
C821 H825 0.950 . S
H822 C818 0.950 . S
C823 C821 1.390 . S
C823 C824 1.387 . S
C823 H826 0.950 . S
C824 C823 1.387 . S
C824 C827 1.387 . S
H825 C821 0.950 . S
H826 C823 0.950 . S
C827 C818 1.390 . S
C827 H820 0.950 . S
C827 C824 1.387 . S
C828 C829 1.387 . S
C828 H832 0.950 . S
C828 C837 1.390 . S
C829 C828 1.387 . S
C829 C831 1.387 . S
H830 C837 0.950 . S
C831 C829 1.387 . S
C831 C833 1.390 . S
C831 H835 0.950 . S
H832 C828 0.950 . S
C833 C831 1.390 . S
C833 C834 1.387 . S
C833 H836 0.950 . S
C834 C833 1.387 . S
C834 C837 1.387 . S
H835 C831 0.950 . S
H836 C833 0.950 . S
C837 C828 1.390 . S
C837 H830 0.950 . S
C837 C834 1.387 . S
C838 C839 1.387 . S
C838 H842 0.950 . S
C838 C847 1.390 . S
C839 C838 1.387 . S
C839 C841 1.387 . S
H840 C847 0.950 . S
C841 C839 1.387 . S
C841 C843 1.390 . S
C841 H845 0.950 . S
H842 C838 0.950 . S
C843 C841 1.390 . S
C843 C844 1.387 . S
C843 H846 0.950 . S
C844 C843 1.387 . S
C844 C847 1.387 . S
H845 C841 0.950 . S
H846 C843 0.950 . S
C847 C838 1.390 . S
C847 H840 0.950 . S
C847 C844 1.387 . S
C848 C849 1.387 . S
C848 H852 0.950 . S
C848 C857 1.390 . S
C849 C848 1.387 . S
C849 C851 1.387 . S
H850 C857 0.950 . S
C851 C849 1.387 . S
C851 C853 1.390 . S
C851 H855 0.950 . S
H852 C848 0.950 . S
C853 C851 1.390 . S
C853 C854 1.387 . S
C853 H856 0.950 . S
C854 C853 1.387 . S
C854 C857 1.387 . S
H855 C851 0.950 . S
H856 C853 0.950 . S
C857 C848 1.390 . S
C857 H850 0.950 . S
C857 C854 1.387 . S
C858 C859 1.387 . S
C858 H862 0.950 . S
C858 C867 1.390 . S
C859 C858 1.387 . S
C859 C861 1.387 . S
H860 C867 0.950 . S
C861 C859 1.387 . S
C861 C863 1.390 . S
C861 H865 0.950 . S
H862 C858 0.950 . S
C863 C861 1.390 . S
C863 C864 1.387 . S
C863 H866 0.950 . S
C864 C863 1.387 . S
C864 C867 1.387 . S
H865 C861 0.950 . S
H866 C863 0.950 . S
C867 C858 1.390 . S
C867 H860 0.950 . S
C867 C864 1.387 . S
C868 C869 1.387 . S
C868 H872 0.950 . S
C868 C877 1.390 . S
C869 C868 1.387 . S
C869 C871 1.387 . S
H870 C877 0.950 . S
C871 C869 1.387 . S
C871 C873 1.390 . S
C871 H875 0.950 . S
H872 C868 0.950 . S
C873 C871 1.390 . S
C873 C874 1.387 . S
C873 H876 0.950 . S
C874 C873 1.387 . S
C874 C877 1.387 . S
H875 C871 0.950 . S
H876 C873 0.950 . S
C877 C868 1.390 . S
C877 H870 0.950 . S
C877 C874 1.387 . S
C878 C879 1.387 . S
C878 H882 0.950 . S
C878 C887 1.390 . S
C879 C878 1.387 . S
C879 C881 1.387 . S
H880 C887 0.950 . S
C881 C879 1.387 . S
C881 C883 1.390 . S
C881 H885 0.950 . S
H882 C878 0.950 . S
C883 C881 1.390 . S
C883 C884 1.387 . S
C883 H886 0.950 . S
C884 C883 1.387 . S
C884 C887 1.387 . S
H885 C881 0.950 . S
H886 C883 0.950 . S
C887 C878 1.390 . S
C887 H880 0.950 . S
C887 C884 1.387 . S
C888 C889 1.387 . S
C888 H892 0.950 . S
C888 C897 1.390 . S
C889 C888 1.387 . S
C889 C891 1.387 . S
H890 C897 0.950 . S
C891 C889 1.387 . S
C891 C893 1.390 . S
C891 H895 0.950 . S
H892 C888 0.950 . S
C893 C891 1.390 . S
C893 C894 1.387 . S
C893 H896 0.950 . S
C894 C893 1.387 . S
C894 C897 1.387 . S
H895 C891 0.950 . S
H896 C893 0.950 . S
C897 C888 1.390 . S
C897 H890 0.950 . S
C897 C894 1.387 . S
C898 C899 1.387 . S
C898 H902 0.950 . S
C898 C907 1.390 . S
C899 C898 1.387 . S
C899 C901 1.387 . S
H900 C907 0.950 . S
C901 C899 1.387 . S
C901 C903 1.390 . S
C901 H905 0.950 . S
H902 C898 0.950 . S
C903 C901 1.390 . S
C903 C904 1.387 . S
C903 H906 0.950 . S
C904 C903 1.387 . S
C904 C907 1.387 . S
H905 C901 0.950 . S
H906 C903 0.950 . S
C907 C898 1.390 . S
C907 H900 0.950 . S
C907 C904 1.387 . S
C908 C909 1.387 . S
C908 H912 0.950 . S
C908 C917 1.390 . S
C909 C908 1.387 . S
C909 C911 1.387 . S
H910 C917 0.950 . S
C911 C909 1.387 . S
C911 C913 1.390 . S
C911 H915 0.950 . S
H912 C908 0.950 . S
C913 C911 1.390 . S
C913 C914 1.387 . S
C913 H916 0.950 . S
C914 C913 1.387 . S
C914 C917 1.387 . S
H915 C911 0.950 . S
H916 C913 0.950 . S
C917 C908 1.390 . S
C917 H910 0.950 . S
C917 C914 1.387 . S
C918 C919 1.387 . S
C918 H922 0.950 . S
C918 C927 1.390 . S
C919 C918 1.387 . S
C919 C921 1.387 . S
H920 C927 0.950 . S
C921 C919 1.387 . S
C921 C923 1.390 . S
C921 H925 0.950 . S
H922 C918 0.950 . S
C923 C921 1.390 . S
C923 C924 1.387 . S
C923 H926 0.950 . S
C924 C923 1.387 . S
C924 C927 1.387 . S
H925 C921 0.950 . S
H926 C923 0.950 . S
C927 C918 1.390 . S
C927 H920 0.950 . S
C927 C924 1.387 . S
C928 C929 1.387 . S
C928 H932 0.950 . S
C928 C937 1.390 . S
C929 C928 1.387 . S
C929 C931 1.387 . S
H930 C937 0.950 . S
C931 C929 1.387 . S
C931 C933 1.390 . S
C931 H935 0.950 . S
H932 C928 0.950 . S
C933 C931 1.390 . S
C933 C934 1.387 . S
C933 H936 0.950 . S
C934 C933 1.387 . S
C934 C937 1.387 . S
H935 C931 0.950 . S
H936 C933 0.950 . S
C937 C928 1.390 . S
C937 H930 0.950 . S
C937 C934 1.387 . S
C938 C939 1.387 . S
C938 H942 0.950 . S
C938 C947 1.390 . S
C939 C938 1.387 . S
C939 C941 1.387 . S
H940 C947 0.950 . S
C941 C939 1.387 . S
C941 C943 1.390 . S
C941 H945 0.950 . S
H942 C938 0.950 . S
C943 C941 1.390 . S
C943 C944 1.387 . S
C943 H946 0.950 . S
C944 C943 1.387 . S
C944 C947 1.387 . S
H945 C941 0.950 . S
H946 C943 0.950 . S
C947 C938 1.390 . S
C947 H940 0.950 . S
C947 C944 1.387 . S
C948 C949 1.387 . S
C948 H952 0.950 . S
C948 C957 1.390 . S
C949 C948 1.387 . S
C949 C951 1.387 . S
H950 C957 0.950 . S
C951 C949 1.387 . S
C951 C953 1.390 . S
C951 H955 0.950 . S
H952 C948 0.950 . S
C953 C951 1.390 . S
C953 C954 1.387 . S
C953 H956 0.950 . S
C954 C953 1.387 . S
C954 C957 1.387 . S
H955 C951 0.950 . S
H956 C953 0.950 . S
C957 C948 1.390 . S
C957 H950 0.950 . S
C957 C954 1.387 . S
C958 C959 1.387 . S
C958 H962 0.950 . S
C958 C967 1.390 . S
C959 C958 1.387 . S
C959 C961 1.387 . S
H960 C967 0.950 . S
C961 C959 1.387 . S
C961 C963 1.390 . S
C961 H965 0.950 . S
H962 C958 0.950 . S
C963 C961 1.390 . S
C963 C964 1.387 . S
C963 H966 0.950 . S
C964 C963 1.387 . S
C964 C967 1.387 . S
H965 C961 0.950 . S
H966 C963 0.950 . S
C967 C958 1.390 . S
C967 H960 0.950 . S
C967 C964 1.387 . S
C968 C969 1.387 . S
C968 H972 0.950 . S
C968 C977 1.390 . S
C969 C968 1.387 . S
C969 C971 1.387 . S
H970 C977 0.950 . S
C971 C969 1.387 . S
C971 C973 1.390 . S
C971 H975 0.950 . S
H972 C968 0.950 . S
C973 C971 1.390 . S
C973 C974 1.387 . S
C973 H976 0.950 . S
C974 C973 1.387 . S
C974 C977 1.387 . S
H975 C971 0.950 . S
H976 C973 0.950 . S
C977 C968 1.390 . S
C977 H970 0.950 . S
C977 C974 1.387 . S
C978 C979 1.387 . S
C978 H982 0.950 . S
C978 C987 1.390 . S
C979 C978 1.387 . S
C979 C981 1.387 . S
H980 C987 0.950 . S
C981 C979 1.387 . S
C981 C983 1.390 . S
C981 H985 0.950 . S
H982 C978 0.950 . S
C983 C981 1.390 . S
C983 C984 1.387 . S
C983 H986 0.950 . S
C984 C983 1.387 . S
C984 C987 1.387 . S
H985 C981 0.950 . S
H986 C983 0.950 . S
C987 C978 1.390 . S
C987 H980 0.950 . S
C987 C984 1.387 . S
C988 C989 1.387 . S
C988 H992 0.950 . S
C988 C997 1.390 . S
C989 C988 1.387 . S
C989 C991 1.387 . S
H990 C997 0.950 . S
C991 C989 1.387 . S
C991 C993 1.390 . S
C991 H995 0.950 . S
H992 C988 0.950 . S
C993 C991 1.390 . S
C993 C994 1.387 . S
C993 H996 0.950 . S
C994 C993 1.387 . S
C994 C997 1.387 . S
H995 C991 0.950 . S
H996 C993 0.950 . S
C997 C988 1.390 . S
C997 H990 0.950 . S
C997 C994 1.387 . S
C998 C999 1.387 . S
C998 H1002 0.950 . S
C998 C1007 1.390 . S
C999 C998 1.387 . S
C999 C1001 1.387 . S
H1000 C1007 0.950 . S
C1001 C999 1.387 . S
C1001 C1003 1.390 . S
C1001 H1005 0.950 . S
H1002 C998 0.950 . S
C1003 C1001 1.390 . S
C1003 C1004 1.387 . S
C1003 H1006 0.950 . S
C1004 C1003 1.387 . S
C1004 C1007 1.387 . S
H1005 C1001 0.950 . S
H1006 C1003 0.950 . S
C1007 C998 1.390 . S
C1007 H1000 0.950 . S
C1007 C1004 1.387 . S
C1008 C1009 1.387 . S
C1008 H1012 0.950 . S
C1008 C1017 1.390 . S
C1009 C1008 1.387 . S
C1009 C1011 1.387 . S
H1010 C1017 0.950 . S
C1011 C1009 1.387 . S
C1011 C1013 1.390 . S
C1011 H1015 0.950 . S
H1012 C1008 0.950 . S
C1013 C1011 1.390 . S
C1013 C1014 1.387 . S
C1013 H1016 0.950 . S
C1014 C1013 1.387 . S
C1014 C1017 1.387 . S
H1015 C1011 0.950 . S
H1016 C1013 0.950 . S
C1017 C1008 1.390 . S
C1017 H1010 0.950 . S
C1017 C1014 1.387 . S
C1018 C1019 1.387 . S
C1018 H1022 0.950 . S
C1018 C1027 1.390 . S
C1019 C1018 1.387 . S
C1019 C1021 1.387 . S
H1020 C1027 0.950 . S
C1021 C1019 1.387 . S
C1021 C1023 1.390 . S
C1021 H1025 0.950 . S
H1022 C1018 0.950 . S
C1023 C1021 1.390 . S
C1023 C1024 1.387 . S
C1023 H1026 0.950 . S
C1024 C1023 1.387 . S
C1024 C1027 1.387 . S
H1025 C1021 0.950 . S
H1026 C1023 0.950 . S
C1027 C1018 1.390 . S
C1027 H1020 0.950 . S
C1027 C1024 1.387 . S
C1028 C1029 1.387 . S
C1028 H1032 0.950 . S
C1028 C1037 1.390 . S
C1029 C1028 1.387 . S
C1029 C1031 1.387 . S
H1030 C1037 0.950 . S
C1031 C1029 1.387 . S
C1031 C1033 1.390 . S
C1031 H1035 0.950 . S
H1032 C1028 0.950 . S
C1033 C1031 1.390 . S
C1033 C1034 1.387 . S
C1033 H1036 0.950 . S
C1034 C1033 1.387 . S
C1034 C1037 1.387 . S
H1035 C1031 0.950 . S
H1036 C1033 0.950 . S
C1037 C1028 1.390 . S
C1037 H1030 0.950 . S
C1037 C1034 1.387 . S
C1038 C1039 1.387 . S
C1038 H1042 0.950 . S
C1038 C1047 1.390 . S
C1039 C1038 1.387 . S
C1039 C1041 1.387 . S
H1040 C1047 0.950 . S
C1041 C1039 1.387 . S
C1041 C1043 1.390 . S
C1041 H1045 0.950 . S
H1042 C1038 0.950 . S
C1043 C1041 1.390 . S
C1043 C1044 1.387 . S
C1043 H1046 0.950 . S
C1044 C1043 1.387 . S
C1044 C1047 1.387 . S
H1045 C1041 0.950 . S
H1046 C1043 0.950 . S
C1047 C1038 1.390 . S
C1047 H1040 0.950 . S
C1047 C1044 1.387 . S
C1048 C1049 1.387 . S
C1048 H1052 0.950 . S
C1048 C1057 1.390 . S
C1049 C1048 1.387 . S
C1049 C1051 1.387 . S
H1050 C1057 0.950 . S
C1051 C1049 1.387 . S
C1051 C1053 1.390 . S
C1051 H1055 0.950 . S
H1052 C1048 0.950 . S
C1053 C1051 1.390 . S
C1053 C1054 1.387 . S
C1053 H1056 0.950 . S
C1054 C1053 1.387 . S
C1054 C1057 1.387 . S
H1055 C1051 0.950 . S
H1056 C1053 0.950 . S
C1057 C1048 1.390 . S
C1057 H1050 0.950 . S
C1057 C1054 1.387 . S
C1058 C1059 1.387 . S
C1058 H1062 0.950 . S
C1058 C1067 1.390 . S
C1059 C1058 1.387 . S
C1059 C1061 1.387 . S
H1060 C1067 0.950 . S
C1061 C1059 1.387 . S
C1061 C1063 1.390 . S
C1061 H1065 0.950 . S
H1062 C1058 0.950 . S
C1063 C1061 1.390 . S
C1063 C1064 1.387 . S
C1063 H1066 0.950 . S
C1064 C1063 1.387 . S
C1064 C1067 1.387 . S
H1065 C1061 0.950 . S
H1066 C1063 0.950 . S
C1067 C1058 1.390 . S
C1067 H1060 0.950 . S
C1067 C1064 1.387 . S
C1068 C1069 1.387 . S
C1068 H1072 0.950 . S
C1068 C1077 1.390 . S
C1069 C1068 1.387 . S
C1069 C1071 1.387 . S
H1070 C1077 0.950 . S
C1071 C1069 1.387 . S
C1071 C1073 1.390 . S
C1071 H1075 0.950 . S
H1072 C1068 0.950 . S
C1073 C1071 1.390 . S
C1073 C1074 1.387 . S
C1073 H1076 0.950 . S
C1074 C1073 1.387 . S
C1074 C1077 1.387 . S
H1075 C1071 0.950 . S
H1076 C1073 0.950 . S
C1077 C1068 1.390 . S
C1077 H1070 0.950 . S
C1077 C1074 1.387 . S
C1078 C1079 1.387 . S
C1078 H1082 0.950 . S
C1078 C1087 1.390 . S
C1079 C1078 1.387 . S
C1079 C1081 1.387 . S
H1080 C1087 0.950 . S
C1081 C1079 1.387 . S
C1081 C1083 1.390 . S
C1081 H1085 0.950 . S
H1082 C1078 0.950 . S
C1083 C1081 1.390 . S
C1083 C1084 1.387 . S
C1083 H1086 0.950 . S
C1084 C1083 1.387 . S
C1084 C1087 1.387 . S
H1085 C1081 0.950 . S
H1086 C1083 0.950 . S
C1087 C1078 1.390 . S
C1087 H1080 0.950 . S
C1087 C1084 1.387 . S
C1088 C1089 1.387 . S
C1088 H1092 0.950 . S
C1088 C1097 1.390 . S
C1089 C1088 1.387 . S
C1089 C1091 1.387 . S
H1090 C1097 0.950 . S
C1091 C1089 1.387 . S
C1091 C1093 1.390 . S
C1091 H1095 0.950 . S
H1092 C1088 0.950 . S
C1093 C1091 1.390 . S
C1093 C1094 1.387 . S
C1093 H1096 0.950 . S
C1094 C1093 1.387 . S
C1094 C1097 1.387 . S
H1095 C1091 0.950 . S
H1096 C1093 0.950 . S
C1097 C1088 1.390 . S
C1097 H1090 0.950 . S
C1097 C1094 1.387 . S
C1098 C1099 1.387 . S
C1098 H1102 0.950 . S
C1098 C1107 1.390 . S
C1099 C1098 1.387 . S
C1099 C1101 1.387 . S
H1100 C1107 0.950 . S
C1101 C1099 1.387 . S
C1101 C1103 1.390 . S
C1101 H1105 0.950 . S
H1102 C1098 0.950 . S
C1103 C1101 1.390 . S
C1103 C1104 1.387 . S
C1103 H1106 0.950 . S
C1104 C1103 1.387 . S
C1104 C1107 1.387 . S
H1105 C1101 0.950 . S
H1106 C1103 0.950 . S
C1107 C1098 1.390 . S
C1107 H1100 0.950 . S
C1107 C1104 1.387 . S
C1108 C1109 1.387 . S
C1108 H1112 0.950 . S
C1108 C1117 1.390 . S
C1109 C1108 1.387 . S
C1109 C1111 1.387 . S
H1110 C1117 0.950 . S
C1111 C1109 1.387 . S
C1111 C1113 1.390 . S
C1111 H1115 0.950 . S
H1112 C1108 0.950 . S
C1113 C1111 1.390 . S
C1113 C1114 1.387 . S
C1113 H1116 0.950 . S
C1114 C1113 1.387 . S
C1114 C1117 1.387 . S
H1115 C1111 0.950 . S
H1116 C1113 0.950 . S
C1117 C1108 1.390 . S
C1117 H1110 0.950 . S
C1117 C1114 1.387 . S
C1118 C1119 1.387 . S
C1118 H1122 0.950 . S
C1118 C1127 1.390 . S
C1119 C1118 1.387 . S
C1119 C1121 1.387 . S
H1120 C1127 0.950 . S
C1121 C1119 1.387 . S
C1121 C1123 1.390 . S
C1121 H1125 0.950 . S
H1122 C1118 0.950 . S
C1123 C1121 1.390 . S
C1123 C1124 1.387 . S
C1123 H1126 0.950 . S
C1124 C1123 1.387 . S
C1124 C1127 1.387 . S
H1125 C1121 0.950 . S
H1126 C1123 0.950 . S
C1127 C1118 1.390 . S
C1127 H1120 0.950 . S
C1127 C1124 1.387 . S
C814 C413 1.461 . S
C809 C36 1.461 . S
C824 C466 1.288 . S
C819 C93 1.283 . S
C834 C529 1.538 . S
C829 C132 1.538 . S
C844 C572 1.266 . S
C839 C174 1.267 . S
C849 C213 1.530 . S
C854 C528 1.532 . S
C864 C565 1.323 . S
C859 C285 1.312 . S
C874 C406 1.466 . S
C869 C324 1.466 . S
C884 C459 1.225 . S
C879 C366 1.224 . S
C894 C512 1.490 . S
C889 C357 1.483 . S
C904 C581 1.805 . S
C899 C222 1.808 . S
C914 C422 1.558 . S
C909 C276 1.558 . S
C924 C475 1.726 . S
C919 C333 1.721 . S
C934 C423 1.549 . S
C929 C84 1.549 . S
C944 C476 1.791 . S
C939 C141 1.783 . S
C954 C519 1.500 . S
C949 C165 1.494 . S
C964 C582 1.748 . S
C959 C45 1.732 . S
C974 C625 1.436 . S
C969 C372 1.434 . S
C979 C237 1.662 . S
C984 C678 1.672 . S
C989 C261 1.561 . S
C994 C740 1.563 . S
C999 C318 1.664 . S
C1004 C794 1.668 . S
C1009 C69 1.493 . S
C1014 C741 1.498 . S
C1019 C126 1.732 . S
C1024 C793 1.737 . S
C1029 C180 1.490 . S
C1034 C618 1.490 . S
C1044 C671 1.617 . S
C1039 C30 1.617 . S
C1054 C731 1.463 . S
C1049 C21 1.456 . S
C1059 C78 1.349 . S
C1064 C777 1.349 . S
C1069 C117 1.578 . S
C1074 C634 1.580 . S
C1079 C189 1.329 . S
C1084 C687 1.343 . S
C1094 C635 1.515 . S
C1089 C228 1.513 . S
C1104 C688 1.405 . S
C1099 C270 1.407 . S
C1109 C309 1.510 . S
C1114 C724 1.516 . S
C1124 C784 1.295 . S
C1119 C381 1.290 . S
