# Generated by pormake.
# Topology nom, (4,4)-cn, num edge types: 1
# Building blocks:
#     Node 0, Type 0, BuildingBlock: MUDLON_clean_linker_0, # of connection points: 4
#     Node 1, Type 0, BuildingBlock: MUDLON_clean_linker_0, # of connection points: 4
#     Node 2, Type 0, BuildingBlock: MUDLON_clean_linker_0, # of connection points: 4
#     Node 3, Type 0, BuildingBlock: MUDLON_clean_linker_0, # of connection points: 4
#     Node 4, Type 0, BuildingBlock: MUDLON_clean_linker_0, # of connection points: 4
#     Node 5, Type 0, BuildingBlock: MUDLON_clean_linker_0, # of connection points: 4
#     Node 6, Type 1, BuildingBlock: AZAVOO_clean_sbu_0, # of connection points: 4
#     Node 7, Type 1, BuildingBlock: AZAVOO_clean_sbu_0, # of connection points: 4
#     Node 8, Type 1, BuildingBlock: AZAVOO_clean_sbu_0, # of connection points: 4
#     Node 9, Type 1, BuildingBlock: AZAVOO_clean_sbu_0, # of connection points: 4
#     Node 10, Type 1, BuildingBlock: AZAVOO_clean_sbu_0, # of connection points: 4
#     Node 11, Type 1, BuildingBlock: AZAVOO_clean_sbu_0, # of connection points: 4
#     Edge 12, Type (0, 1), BuildingBlock: AJUNOK_clean_linker_0, # of connection points: 2
#     Edge 13, Type (0, 1), BuildingBlock: AJUNOK_clean_linker_0, # of connection points: 2
#     Edge 14, Type (0, 1), BuildingBlock: AJUNOK_clean_linker_0, # of connection points: 2
#     Edge 15, Type (0, 1), BuildingBlock: AJUNOK_clean_linker_0, # of connection points: 2
#     Edge 16, Type (0, 1), BuildingBlock: AJUNOK_clean_linker_0, # of connection points: 2
#     Edge 17, Type (0, 1), BuildingBlock: AJUNOK_clean_linker_0, # of connection points: 2
#     Edge 18, Type (0, 1), BuildingBlock: AJUNOK_clean_linker_0, # of connection points: 2
#     Edge 19, Type (0, 1), BuildingBlock: AJUNOK_clean_linker_0, # of connection points: 2
#     Edge 20, Type (0, 1), BuildingBlock: AJUNOK_clean_linker_0, # of connection points: 2
#     Edge 21, Type (0, 1), BuildingBlock: AJUNOK_clean_linker_0, # of connection points: 2
#     Edge 22, Type (0, 1), BuildingBlock: AJUNOK_clean_linker_0, # of connection points: 2
#     Edge 23, Type (0, 1), BuildingBlock: AJUNOK_clean_linker_0, # of connection points: 2
#     Edge 24, Type (0, 1), BuildingBlock: AJUNOK_clean_linker_0, # of connection points: 2
#     Edge 25, Type (0, 1), BuildingBlock: AJUNOK_clean_linker_0, # of connection points: 2
#     Edge 26, Type (0, 1), BuildingBlock: AJUNOK_clean_linker_0, # of connection points: 2
#     Edge 27, Type (0, 1), BuildingBlock: AJUNOK_clean_linker_0, # of connection points: 2
#     Edge 28, Type (0, 1), BuildingBlock: AJUNOK_clean_linker_0, # of connection points: 2
#     Edge 29, Type (0, 1), BuildingBlock: AJUNOK_clean_linker_0, # of connection points: 2
#     Edge 30, Type (0, 1), BuildingBlock: AJUNOK_clean_linker_0, # of connection points: 2
#     Edge 31, Type (0, 1), BuildingBlock: AJUNOK_clean_linker_0, # of connection points: 2
#     Edge 32, Type (0, 1), BuildingBlock: AJUNOK_clean_linker_0, # of connection points: 2
#     Edge 33, Type (0, 1), BuildingBlock: AJUNOK_clean_linker_0, # of connection points: 2
#     Edge 34, Type (0, 1), BuildingBlock: AJUNOK_clean_linker_0, # of connection points: 2
#     Edge 35, Type (0, 1), BuildingBlock: AJUNOK_clean_linker_0, # of connection points: 2
# Relax obj value: 0.037
# Max RMSD: 0.158
# Mean RMSD: 0.121
data_MOF--net-nom--node1-AZAVOO_clean_sbu_0--node2-MUDLON_clean_linker_0--edge1-AJUNOK_clean_linker_0
_symmetry_space_group_name_H-M    P1
_symmetry_Int_Tables_number       1
_symmetry_cell_setting            triclinic
loop_
_symmetry_equiv_pos_as_xyz
'x, y, z'
_cell_length_a     48.686692
_cell_length_b     49.620301
_cell_length_c     46.980509
_cell_angle_alpha  91.445392
_cell_angle_beta   90.866489
_cell_angle_gamma 120.36299
loop_
_atom_site_label
_atom_site_type_symbol
_atom_site_fract_x
_atom_site_fract_y
_atom_site_fract_z
_atom_type_partial_charge
H0 H 0.16836 0.54152 0.32706 0.0
N1 N 0.11838 0.54232 0.34815 0.0
H2 H 0.2085 0.57949 0.29574 0.0
H3 H 0.11791 0.59221 0.32413 0.0
H4 H 0.15746 0.62956 0.2928 0.0
H5 H 0.15062 0.601 0.37448 0.0
H6 H 0.17534 0.6138 0.42186 0.0
H7 H 0.11019 0.50274 0.38882 0.0
H8 H 0.13226 0.51534 0.43767 0.0
H9 H 0.07874 0.49258 0.3157 0.0
H10 H 0.08336 0.56799 0.36709 0.0
H11 H 0.02356 0.47535 0.30136 0.0
H12 H 0.0287 0.55168 0.35229 0.0
H13 H 0.88047 0.42941 0.26396 0.0
H14 H 0.85252 0.40418 0.21847 0.0
H15 H 0.86424 0.49197 0.192 0.0
H16 H 0.8917 0.51687 0.23758 0.0
H17 H 0.86732 0.51816 0.29205 0.0
H18 H 0.81831 0.49872 0.31806 0.0
H19 H 0.82429 0.41805 0.3413 0.0
H20 H 0.87281 0.43719 0.31395 0.0
H21 H 0.94513 0.48329 0.25291 0.0
H22 H 0.99625 0.49339 0.27131 0.0
H23 H 0.97389 0.5127 0.35522 0.0
N24 N 0.89989 0.48955 0.28211 0.0
H25 H 0.9231 0.50373 0.33681 0.0
C26 C 0.13983 0.56353 0.32769 0.0
C27 C 0.16564 0.56044 0.31929 0.0
C28 C 0.18853 0.58214 0.30159 0.0
C29 C 0.1858 0.60719 0.29175 0.0
C30 C 0.15974 0.6101 0.29972 0.0
C31 C 0.13704 0.58861 0.31763 0.0
C32 C 0.12932 0.55071 0.37759 0.0
C33 C 0.14668 0.58204 0.38787 0.0
C34 C 0.16064 0.5894 0.41527 0.0
C35 C 0.15674 0.56567 0.43344 0.0
C36 C 0.13717 0.53432 0.42388 0.0
C37 C 0.12404 0.527 0.39613 0.0
C38 C 0.0851 0.53141 0.34243 0.0
C39 C 0.06766 0.5052 0.32406 0.0
C40 C 0.03627 0.4956 0.31572 0.0
C41 C 0.02167 0.51221 0.32551 0.0
C42 C 0.03896 0.53804 0.34462 0.0
C43 C 0.07032 0.5475 0.35306 0.0
C44 C 0.8881 0.47509 0.2541 0.0
C45 C 0.87733 0.44325 0.24822 0.0
C46 C 0.86141 0.4289 0.22227 0.0
C47 C 0.85571 0.44602 0.20201 0.0
C48 C 0.86774 0.47809 0.2075 0.0
C49 C 0.88371 0.4924 0.2333 0.0
C50 C 0.87373 0.47931 0.30117 0.0
C51 C 0.85838 0.49664 0.30327 0.0
C52 C 0.83055 0.48559 0.31843 0.0
C53 C 0.81767 0.45709 0.33228 0.0
C54 C 0.83367 0.44013 0.33093 0.0
C55 C 0.86138 0.45104 0.31537 0.0
C56 C 0.92859 0.49089 0.29354 0.0
C57 C 0.95035 0.48865 0.27549 0.0
C58 C 0.97998 0.49459 0.28606 0.0
C59 C 0.98916 0.50357 0.31485 0.0
C60 C 0.96769 0.5059 0.33291 0.0
C61 C 0.93816 0.50014 0.32235 0.0
H62 H 0.48415 0.85007 0.46684 0.0
N63 N 0.48039 0.89866 0.44957 0.0
H64 H 0.44732 0.80835 0.4973 0.0
H65 H 0.42997 0.89638 0.47714 0.0
H66 H 0.39306 0.85479 0.50722 0.0
H67 H 0.42029 0.87254 0.42512 0.0
H68 H 0.40419 0.84925 0.37737 0.0
H69 H 0.51839 0.90425 0.40727 0.0
H70 H 0.50279 0.8836 0.35814 0.0
H71 H 0.53625 0.93455 0.47598 0.0
H72 H 0.45502 0.93615 0.44061 0.0
H73 H 0.56135 0.98995 0.48973 0.0
H74 H 0.47934 0.99155 0.45523 0.0
H75 H 0.64613 0.16161 0.53441 0.0
H76 H 0.65154 0.18292 0.58322 0.0
H77 H 0.54921 0.13827 0.58672 0.0
H78 H 0.54401 0.11704 0.53791 0.0
H79 H 0.5455 0.1412 0.49413 0.0
H80 H 0.54818 0.18204 0.46403 0.0
H81 H 0.642 0.20436 0.43854 0.0
H82 H 0.63917 0.16349 0.46882 0.0
H83 H 0.58806 0.08063 0.53405 0.0
H84 H 0.55793 0.02496 0.52243 0.0
H85 H 0.52248 0.04262 0.44452 0.0
N86 N 0.59287 0.12761 0.50318 0.0
H87 H 0.55138 0.09807 0.45654 0.0
C88 C 0.46016 0.87651 0.46996 0.0
C89 C 0.46463 0.85146 0.47605 0.0
C90 C 0.44349 0.82762 0.49322 0.0
C91 C 0.41747 0.82846 0.50472 0.0
C92 C 0.41327 0.85385 0.49907 0.0
C93 C 0.43441 0.87769 0.48185 0.0
C94 C 0.47065 0.88962 0.42004 0.0
C95 C 0.43854 0.87519 0.41073 0.0
C96 C 0.42935 0.86223 0.38306 0.0
C97 C 0.45216 0.86457 0.36367 0.0
C98 C 0.48449 0.88085 0.37258 0.0
C99 C 0.49353 0.89298 0.40053 0.0
C100 C 0.49389 0.93129 0.45742 0.0
C101 C 0.52377 0.94694 0.47144 0.0
C102 C 0.53789 0.97855 0.47949 0.0
C103 C 0.52227 0.9953 0.47389 0.0
C104 C 0.49218 0.9795 0.45972 0.0
C105 C 0.47812 0.94779 0.4515 0.0
C106 C 0.59481 0.13797 0.53253 0.0
C107 C 0.62492 0.1563 0.54584 0.0
C108 C 0.62794 0.16836 0.57364 0.0
C109 C 0.60081 0.1625 0.58859 0.0
C110 C 0.57053 0.1436 0.57547 0.0
C111 C 0.56752 0.13142 0.54766 0.0
C112 C 0.59233 0.14948 0.48379 0.0
C113 C 0.56663 0.15489 0.48212 0.0
C114 C 0.56823 0.17828 0.46499 0.0
C115 C 0.59549 0.19662 0.44928 0.0
C116 C 0.62071 0.19056 0.45042 0.0
C117 C 0.61914 0.16728 0.46761 0.0
C118 C 0.57166 0.0943 0.49697 0.0
C119 C 0.57312 0.07267 0.51483 0.0
C120 C 0.55617 0.04066 0.50791 0.0
C121 C 0.53782 0.02916 0.48243 0.0
C122 C 0.53591 0.05052 0.46457 0.0
C123 C 0.55269 0.08262 0.4716 0.0
H124 H 0.48678 0.64945 0.63721 0.0
N125 N 0.49361 0.60236 0.65321 0.0
H126 H 0.4399 0.64627 0.61414 0.0
H127 H 0.44407 0.5495 0.62686 0.0
H128 H 0.39784 0.54629 0.6024 0.0
H129 H 0.44387 0.55628 0.68167 0.0
H130 H 0.42818 0.56068 0.72948 0.0
H131 H 0.5248 0.64971 0.69092 0.0
H132 H 0.5069 0.65569 0.73791 0.0
H133 H 0.54544 0.62382 0.62264 0.0
H134 H 0.47663 0.54156 0.66496 0.0
H135 H 0.57411 0.59683 0.60897 0.0
H136 H 0.505 0.51501 0.65168 0.0
H137 H 0.66032 0.50692 0.56964 0.0
H138 H 0.66071 0.48853 0.52071 0.0
H139 H 0.55809 0.43263 0.51919 0.0
H140 H 0.55779 0.45145 0.56781 0.0
H141 H 0.55378 0.43833 0.61528 0.0
H142 H 0.54747 0.39521 0.64399 0.0
H143 H 0.64943 0.44184 0.65788 0.0
H144 H 0.65568 0.48484 0.62871 0.0
H145 H 0.59518 0.52423 0.56654 0.0
H146 H 0.56632 0.55094 0.57822 0.0
H147 H 0.55862 0.52168 0.66482 0.0
N148 N 0.61022 0.49004 0.60189 0.0
H149 H 0.58752 0.49513 0.65362 0.0
C150 C 0.469 0.59988 0.63396 0.0
C151 C 0.46774 0.62696 0.62906 0.0
C152 C 0.44095 0.62507 0.6158 0.0
C153 C 0.41484 0.59593 0.60694 0.0
C154 C 0.4172 0.56899 0.60971 0.0
C155 C 0.44386 0.57086 0.62342 0.0
C156 C 0.48615 0.60251 0.68281 0.0
C157 C 0.45889 0.57748 0.69422 0.0
C158 C 0.44938 0.58035 0.72143 0.0
C159 C 0.46568 0.60888 0.73719 0.0
C160 C 0.49381 0.63336 0.72638 0.0
C161 C 0.50401 0.63005 0.69951 0.0
C162 C 0.50913 0.58517 0.64516 0.0
C163 C 0.5365 0.60003 0.62896 0.0
C164 C 0.55272 0.58458 0.62108 0.0
C165 C 0.54187 0.55391 0.62947 0.0
C166 C 0.51418 0.53883 0.64532 0.0
C167 C 0.49786 0.55417 0.65296 0.0
C168 C 0.6092 0.48047 0.57242 0.0
C169 C 0.63796 0.49094 0.55861 0.0
C170 C 0.63812 0.48042 0.5308 0.0
C171 C 0.60944 0.45891 0.51645 0.0
C172 C 0.58052 0.44878 0.53005 0.0
C173 C 0.58035 0.45952 0.55779 0.0
C174 C 0.60536 0.46493 0.61995 0.0
C175 C 0.57479 0.43929 0.62442 0.0
C176 C 0.57116 0.41481 0.64104 0.0
C177 C 0.59796 0.41539 0.65325 0.0
C178 C 0.62842 0.44088 0.64865 0.0
C179 C 0.63202 0.46544 0.63218 0.0
C180 C 0.59167 0.50498 0.60841 0.0
C181 C 0.58661 0.52253 0.58791 0.0
C182 C 0.57046 0.53836 0.59466 0.0
C183 C 0.55953 0.5377 0.62223 0.0
C184 C 0.56583 0.52168 0.64312 0.0
C185 C 0.58222 0.50613 0.6365 0.0
H186 H 0.17377 0.66345 0.81041 0.0
N187 N 0.11729 0.61433 0.79649 0.0
H188 H 0.21783 0.66378 0.83614 0.0
H189 H 0.11273 0.56636 0.82921 0.0
H190 H 0.1561 0.56705 0.85576 0.0
H191 H 0.13997 0.57895 0.77204 0.0
H192 H 0.16198 0.58521 0.72486 0.0
H193 H 0.11253 0.64717 0.75476 0.0
H194 H 0.13204 0.6516 0.70636 0.0
H195 H 0.07927 0.63404 0.81519 0.0
H196 H 0.07984 0.55103 0.78732 0.0
H197 H 0.02216 0.60335 0.82175 0.0
H198 H 0.02337 0.5193 0.79673 0.0
H199 H 0.83969 0.49618 0.85704 0.0
H200 H 0.82128 0.48178 0.90556 0.0
H201 H 0.88967 0.45181 0.91852 0.0
H202 H 0.90729 0.46542 0.86972 0.0
H203 H 0.86574 0.42621 0.83373 0.0
H204 H 0.82217 0.38248 0.80711 0.0
H205 H 0.81246 0.44706 0.75369 0.0
H206 H 0.85394 0.49088 0.78275 0.0
H207 H 0.92662 0.54122 0.85635 0.0
H208 H 0.98346 0.57015 0.84973 0.0
H209 H 0.97237 0.50326 0.783 0.0
N210 N 0.88278 0.48796 0.83024 0.0
H211 H 0.91614 0.4726 0.79196 0.0
C212 C 0.13985 0.61503 0.81738 0.0
C213 C 0.1695 0.64258 0.82097 0.0
C214 C 0.19462 0.64277 0.8359 0.0
C215 C 0.19045 0.61541 0.84806 0.0
C216 C 0.16009 0.58843 0.84641 0.0
C217 C 0.13508 0.58811 0.83112 0.0
C218 C 0.12566 0.61356 0.76727 0.0
C219 C 0.13818 0.59491 0.7579 0.0
C220 C 0.15046 0.59827 0.73072 0.0
C221 C 0.14967 0.61965 0.71208 0.0
C222 C 0.13429 0.63595 0.72059 0.0
C223 C 0.12281 0.63321 0.74807 0.0
C224 C 0.08388 0.59479 0.80158 0.0
C225 C 0.06705 0.60896 0.81123 0.0
C226 C 0.03435 0.59118 0.81521 0.0
C227 C 0.01778 0.55847 0.81035 0.0
C228 C 0.03489 0.54434 0.80046 0.0
C229 C 0.06744 0.56239 0.79554 0.0
C230 C 0.87464 0.48179 0.85976 0.0
C231 C 0.85086 0.4868 0.8705 0.0
C232 C 0.84057 0.47876 0.8982 0.0
C233 C 0.85392 0.46548 0.9157 0.0
C234 C 0.87866 0.46158 0.90534 0.0
C235 C 0.88884 0.46949 0.87755 0.0
C236 C 0.86202 0.46192 0.81111 0.0
C237 C 0.85415 0.43107 0.81647 0.0
C238 C 0.82942 0.40595 0.80085 0.0
C239 C 0.81281 0.41114 0.77891 0.0
C240 C 0.82353 0.44213 0.77139 0.0
C241 C 0.84751 0.46723 0.78769 0.0
C242 C 0.91668 0.5043 0.82522 0.0
C243 C 0.93651 0.53244 0.84063 0.0
C244 C 0.96915 0.54934 0.83641 0.0
C245 C 0.98294 0.53944 0.81557 0.0
C246 C 0.96303 0.51148 0.79969 0.0
C247 C 0.93041 0.49391 0.80466 0.0
H248 H 0.52512 0.18458 0.98457 0.0
N249 N 0.5161 0.13046 0.96372 0.0
H250 H 0.57019 0.22389 0.01384 0.0
H251 H 0.56341 0.12309 0.98852 0.0
H252 H 0.60766 0.16158 0.01903 0.0
H253 H 0.57401 0.15639 0.93776 0.0
H254 H 0.58451 0.17362 0.88923 0.0
H255 H 0.47379 0.1217 0.92265 0.0
H256 H 0.48381 0.13627 0.87289 0.0
H257 H 0.46705 0.09805 0.99662 0.0
H258 H 0.53224 0.08882 0.94181 0.0
H259 H 0.43953 0.04198 0.00452 0.0
H260 H 0.50397 0.03255 0.94828 0.0
H261 H 0.34825 0.86321 0.02453 0.0
H262 H 0.34476 0.84515 0.07313 0.0
H263 H 0.44585 0.90785 0.08663 0.0
H264 H 0.44941 0.92523 0.03814 0.0
H265 H 0.44712 0.88559 0.00191 0.0
H266 H 0.44951 0.84471 0.97401 0.0
H267 H 0.36512 0.82601 0.92574 0.0
H268 H 0.36314 0.8675 0.95351 0.0
H269 H 0.37636 0.93785 0.98979 0.0
H270 H 0.40484 0.99363 0.98053 0.0
H271 H 0.49372 0.99369 0.98147 0.0
N272 N 0.4006 0.90132 0.99752 0.0
H273 H 0.46489 0.93787 0.98924 0.0
C274 C 0.54061 0.15086 0.98443 0.0
C275 C 0.54271 0.17919 0.99256 0.0
C276 C 0.56834 0.20147 0.00957 0.0
C277 C 0.59233 0.1957 0.01919 0.0
C278 C 0.58954 0.1667 0.01202 0.0
C279 C 0.56406 0.14455 0.99467 0.0
C280 C 0.52306 0.13876 0.93431 0.0
C281 C 0.55413 0.15227 0.92403 0.0
C282 C 0.56009 0.16172 0.89596 0.0
C283 C 0.53511 0.15704 0.87722 0.0
C284 C 0.50381 0.14146 0.88699 0.0
C285 C 0.49797 0.13285 0.91534 0.0
C286 C 0.50132 0.0975 0.96848 0.0
C287 C 0.47525 0.0838 0.9862 0.0
C288 C 0.45941 0.05173 0.99042 0.0
C289 C 0.46924 0.03261 0.97672 0.0
C290 C 0.49587 0.04654 0.95933 0.0
C291 C 0.51192 0.07871 0.9554 0.0
C292 C 0.39894 0.89532 0.0275 0.0
C293 C 0.36949 0.8735 0.03822 0.0
C294 C 0.36753 0.86337 0.06595 0.0
C295 C 0.39512 0.87493 0.08342 0.0
C296 C 0.42431 0.89833 0.0734 0.0
C297 C 0.42629 0.90835 0.04562 0.0
C298 C 0.40478 0.8796 0.97977 0.0
C299 C 0.42934 0.87308 0.98512 0.0
C300 C 0.43054 0.84946 0.96934 0.0
C301 C 0.40721 0.83189 0.94804 0.0
C302 C 0.38342 0.83922 0.94204 0.0
C303 C 0.38224 0.86284 0.95781 0.0
C304 C 0.41833 0.93368 0.99032 0.0
C305 C 0.40195 0.94995 0.98765 0.0
C306 C 0.41834 0.98186 0.98268 0.0
C307 C 0.45168 0.99831 0.98059 0.0
C308 C 0.46804 0.98177 0.98267 0.0
C309 C 0.45153 0.94974 0.98731 0.0
H310 H 0.50671 0.36737 0.1316 0.0
N311 N 0.50627 0.41746 0.15194 0.0
H312 H 0.54994 0.3655 0.10714 0.0
H313 H 0.5617 0.46813 0.13405 0.0
H314 H 0.60458 0.46632 0.10991 0.0
H315 H 0.55813 0.45555 0.1865 0.0
H316 H 0.56787 0.44486 0.23466 0.0
H317 H 0.46433 0.37378 0.18492 0.0
H318 H 0.47328 0.36363 0.23404 0.0
H319 H 0.4512 0.3983 0.12469 0.0
H320 H 0.532 0.48041 0.16305 0.0
H321 H 0.42654 0.4289 0.11276 0.0
H322 H 0.50945 0.51204 0.14867 0.0
H323 H 0.34858 0.5338 0.07802 0.0
H324 H 0.34488 0.55015 0.02981 0.0
H325 H 0.44435 0.58206 0.01886 0.0
H326 H 0.44834 0.56671 0.06741 0.0
H327 H 0.44364 0.60284 0.10686 0.0
H328 H 0.44399 0.6424 0.1388 0.0
H329 H 0.36711 0.56985 0.185 0.0
H330 H 0.36506 0.5305 0.15106 0.0
H331 H 0.39631 0.49163 0.07541 0.0
H332 H 0.42483 0.46416 0.08424 0.0
H333 H 0.47227 0.52542 0.15804 0.0
N334 N 0.39998 0.54014 0.10521 0.0
H335 H 0.44644 0.55461 0.14751 0.0
C336 C 0.53052 0.41771 0.13444 0.0
C337 C 0.52777 0.38903 0.1264 0.0
C338 C 0.5525 0.38801 0.11268 0.0
C339 C 0.58049 0.41578 0.10657 0.0
C340 C 0.58304 0.44457 0.11397 0.0
C341 C 0.55835 0.44557 0.12784 0.0
C342 C 0.51056 0.41513 0.18199 0.0
C343 C 0.53923 0.43581 0.19683 0.0
C344 C 0.54463 0.42983 0.22462 0.0
C345 C 0.52126 0.40344 0.23831 0.0
C346 C 0.4918 0.38403 0.22402 0.0
C347 C 0.48659 0.38983 0.19608 0.0
C348 C 0.4936 0.43703 0.14417 0.0
C349 C 0.46393 0.42316 0.12989 0.0
C350 C 0.45007 0.44091 0.12282 0.0
C351 C 0.466 0.47331 0.12933 0.0
C352 C 0.49606 0.4872 0.14353 0.0
C353 C 0.50942 0.46917 0.15135 0.0
C354 C 0.39849 0.54856 0.07618 0.0
C355 C 0.36952 0.54418 0.06516 0.0
C356 C 0.36747 0.55359 0.03781 0.0
C357 C 0.39432 0.56717 0.02087 0.0
C358 C 0.42335 0.57144 0.03165 0.0
C359 C 0.42556 0.56255 0.05924 0.0
C360 C 0.40333 0.56376 0.12589 0.0
C361 C 0.42662 0.59544 0.12364 0.0
C362 C 0.42711 0.61804 0.14228 0.0
C363 C 0.40498 0.60943 0.16409 0.0
C364 C 0.38359 0.57745 0.16776 0.0
C365 C 0.38254 0.55491 0.14858 0.0
C366 C 0.41916 0.52573 0.11023 0.0
C367 C 0.41348 0.49968 0.09309 0.0
C368 C 0.42951 0.48356 0.09853 0.0
C369 C 0.45084 0.49215 0.12212 0.0
C370 C 0.45664 0.51827 0.13932 0.0
C371 C 0.44135 0.53501 0.13334 0.0
Mg372 Mg 0.61173 0.35825 0.35922 0.0
O373 O 0.61005 0.38753 0.39708 0.0
O374 O 0.62627 0.43568 0.38258 0.0
Mg375 Mg 0.6374 0.43725 0.33546 0.0
C376 C 0.61636 0.41557 0.40196 0.0
C377 C 0.6085 0.29751 0.37907 0.0
O378 O 0.61402 0.29661 0.35188 0.0
O379 O 0.666 0.38363 0.36341 0.0
O380 O 0.67947 0.43073 0.34736 0.0
O381 O 0.56194 0.34395 0.34478 0.0
O382 O 0.6051 0.38643 0.33137 0.0
C383 C 0.68689 0.4114 0.35719 0.0
C384 C 0.57456 0.36939 0.33074 0.0
O385 O 0.60651 0.32048 0.38906 0.0
Mg386 Mg 0.27945 0.65678 0.58682 0.0
O387 O 0.24499 0.62917 0.54923 0.0
O388 O 0.21488 0.57986 0.56279 0.0
Mg389 Mg 0.22583 0.57764 0.61003 0.0
C390 C 0.22338 0.60071 0.54417 0.0
C391 C 0.32555 0.72345 0.56927 0.0
O392 O 0.31876 0.72718 0.59551 0.0
O393 O 0.3071 0.63132 0.58041 0.0
O394 O 0.27535 0.58544 0.59967 0.0
O395 O 0.24618 0.67151 0.60331 0.0
O396 O 0.24542 0.6284 0.61522 0.0
C397 C 0.30171 0.6048 0.58871 0.0
C398 C 0.23336 0.64619 0.61753 0.0
O399 O 0.31248 0.69588 0.55826 0.0
Mg400 Mg 0.61346 0.27231 0.74441 0.0
O401 O 0.6108 0.24048 0.70725 0.0
O402 O 0.63358 0.21366 0.72148 0.0
Mg403 Mg 0.64709 0.22583 0.76915 0.0
C404 C 0.61971 0.22072 0.70224 0.0
C405 C 0.59118 0.31667 0.72214 0.0
O406 O 0.58009 0.31237 0.74797 0.0
O407 O 0.66659 0.30333 0.74061 0.0
O408 O 0.68691 0.2764 0.76021 0.0
O409 O 0.56593 0.23649 0.75911 0.0
O410 O 0.61142 0.24079 0.77361 0.0
C411 C 0.69033 0.30134 0.7495 0.0
C412 C 0.58085 0.22657 0.77485 0.0
O413 O 0.60519 0.30228 0.71386 0.0
Mg414 Mg 0.38616 0.66098 0.86696 0.0
O415 O 0.38818 0.63258 0.90396 0.0
O416 O 0.36357 0.58249 0.88876 0.0
Mg417 Mg 0.34658 0.57901 0.8423 0.0
C418 C 0.37855 0.60384 0.9081 0.0
C419 C 0.39799 0.72502 0.88486 0.0
O420 O 0.39022 0.72185 0.85756 0.0
O421 O 0.33369 0.64281 0.87392 0.0
O422 O 0.31067 0.59407 0.85541 0.0
O423 O 0.43139 0.66682 0.84872 0.0
O424 O 0.3831 0.62811 0.83738 0.0
C425 C 0.30885 0.61683 0.86671 0.0
C426 C 0.41317 0.64146 0.83366 0.0
O427 O 0.39976 0.70309 0.89653 0.0
Mg428 Mg 0.73167 0.38422 0.04612 0.0
O429 O 0.76375 0.39526 0.08603 0.0
O430 O 0.79489 0.37503 0.07866 0.0
Mg431 Mg 0.78491 0.35395 0.03295 0.0
C432 C 0.78548 0.38986 0.09452 0.0
C433 C 0.68498 0.40756 0.05683 0.0
O434 O 0.69321 0.41546 0.03049 0.0
O435 O 0.70251 0.33292 0.05605 0.0
O436 O 0.73401 0.31465 0.0425 0.0
O437 O 0.767 0.42892 0.02697 0.0
O438 O 0.76608 0.38435 0.0204 0.0
C439 C 0.70729 0.31025 0.05111 0.0
C440 C 0.77909 0.41355 0.01515 0.0
O441 O 0.69774 0.39459 0.07034 0.0
Mg442 Mg 0.35525 0.74853 0.2084 0.0
O443 O 0.38439 0.77991 0.24677 0.0
O444 O 0.43568 0.80412 0.23548 0.0
Mg445 Mg 0.43822 0.79267 0.18837 0.0
C446 C 0.41383 0.79832 0.25308 0.0
C447 C 0.28676 0.70109 0.22486 0.0
O448 O 0.28323 0.70182 0.19717 0.0
O449 O 0.37403 0.71542 0.2141 0.0
O450 O 0.42273 0.74143 0.19663 0.0
O451 O 0.34776 0.78625 0.1923 0.0
O452 O 0.38786 0.7798 0.18072 0.0
C453 C 0.39956 0.7166 0.20625 0.0
C454 C 0.37353 0.79549 0.17823 0.0
O455 O 0.31399 0.71894 0.23662 0.0
C456 C 0.24278 0.64664 0.2843 0.0
C457 C 0.21092 0.63111 0.27428 0.0
C458 C 0.267 0.66973 0.26845 0.0
C459 C 0.26031 0.67783 0.24178 0.0
H460 H 0.249 0.64109 0.30469 0.0
H461 H 0.29123 0.68091 0.27701 0.0
S462 S 0.18044 0.64375 0.20617 0.0
N463 N 0.17372 0.62528 0.2363 0.0
N464 N 0.21922 0.6685 0.20622 0.0
C465 C 0.22844 0.66243 0.23155 0.0
C466 C 0.20374 0.63914 0.24789 0.0
C467 C 0.60669 0.22408 0.40325 0.0
C468 C 0.59792 0.22223 0.43181 0.0
C469 C 0.60985 0.24838 0.38644 0.0
C470 C 0.60465 0.27201 0.39757 0.0
H471 H 0.61098 0.20647 0.39375 0.0
H472 H 0.61663 0.24864 0.36455 0.0
S473 S 0.58203 0.27819 0.47163 0.0
N474 N 0.58462 0.24626 0.4708 0.0
N475 N 0.59048 0.29197 0.43932 0.0
C476 C 0.59592 0.27044 0.42622 0.0
C477 C 0.59253 0.24554 0.44328 0.0
C478 C 0.38422 0.61588 0.5799 0.0
C479 C 0.38427 0.59379 0.5981 0.0
C480 C 0.35683 0.61802 0.57553 0.0
C481 C 0.32829 0.59811 0.58913 0.0
H482 H 0.40591 0.63246 0.56981 0.0
H483 H 0.3585 0.63632 0.56229 0.0
S484 S 0.31525 0.5346 0.63729 0.0
N485 N 0.3529 0.55057 0.62872 0.0
N486 N 0.30129 0.55387 0.61994 0.0
C487 C 0.32748 0.57455 0.60593 0.0
C488 C 0.35547 0.57258 0.61056 0.0
C489 C 0.77964 0.35507 0.76099 0.0
C490 C 0.78253 0.3845 0.76641 0.0
C491 C 0.74999 0.32844 0.75402 0.0
C492 C 0.72213 0.33025 0.75167 0.0
H493 H 0.80027 0.35235 0.76313 0.0
H494 H 0.74875 0.3061 0.7513 0.0
S495 S 0.7167 0.40185 0.76252 0.0
N496 N 0.75468 0.41371 0.76839 0.0
N497 N 0.69957 0.36423 0.75397 0.0
C498 C 0.72496 0.35983 0.75538 0.0
C499 C 0.75497 0.38679 0.76305 0.0
C500 C 0.40376 0.80281 0.90262 0.0
C501 C 0.40699 0.80537 0.93248 0.0
C502 C 0.40165 0.77711 0.8875 0.0
C503 C 0.40253 0.75283 0.90162 0.0
H504 H 0.4027 0.82077 0.89083 0.0
H505 H 0.39889 0.77618 0.86451 0.0
S506 S 0.41034 0.74835 0.97989 0.0
N507 N 0.41075 0.7815 0.97579 0.0
N508 N 0.40704 0.73324 0.94743 0.0
C509 C 0.40621 0.75535 0.93154 0.0
C510 C 0.40839 0.78159 0.94694 0.0
C511 C 0.61914 0.39664 0.10598 0.0
C512 C 0.6075 0.41461 0.09368 0.0
C513 C 0.64467 0.39512 0.09432 0.0
C514 C 0.65933 0.41124 0.06968 0.0
H515 H 0.60853 0.38378 0.12491 0.0
H516 H 0.65256 0.38074 0.10447 0.0
S517 S 0.63762 0.46168 0.02945 0.0
N518 N 0.61246 0.44895 0.05571 0.0
N519 N 0.66041 0.44617 0.03362 0.0
C520 C 0.64799 0.42949 0.05729 0.0
C521 C 0.62213 0.43119 0.06934 0.0
C522 C 0.38077 0.77125 0.51094 0.0
C523 C 0.39409 0.80222 0.52164 0.0
C524 C 0.35845 0.74602 0.52633 0.0
C525 C 0.3487 0.75073 0.55316 0.0
H526 H 0.38743 0.76648 0.49033 0.0
H527 H 0.34892 0.72264 0.51713 0.0
S528 S 0.37724 0.82756 0.59084 0.0
N529 N 0.39651 0.83633 0.56077 0.0
N530 N 0.3545 0.78912 0.58978 0.0
C531 C 0.36196 0.7817 0.56411 0.0
C532 C 0.38461 0.80737 0.54833 0.0
C533 C 0.61201 0.37471 0.66373 0.0
C534 C 0.59441 0.38924 0.67037 0.0
C535 C 0.61001 0.35064 0.6801 0.0
C536 C 0.5906 0.34039 0.70397 0.0
H537 H 0.62754 0.38208 0.64575 0.0
H538 H 0.62442 0.34051 0.6743 0.0
S539 S 0.53922 0.37067 0.72988 0.0
N540 N 0.55655 0.39154 0.70194 0.0
N541 N 0.55271 0.34627 0.73289 0.0
C542 C 0.57245 0.35445 0.71055 0.0
C543 C 0.57435 0.37885 0.69369 0.0
C544 C 0.22233 0.58879 0.84833 0.0
C545 C 0.21858 0.61369 0.85825 0.0
C546 C 0.25089 0.58903 0.85297 0.0
C547 C 0.27711 0.61433 0.86755 0.0
H548 H 0.20375 0.56976 0.83533 0.0
H549 H 0.25289 0.56997 0.84355 0.0
S550 S 0.27745 0.68259 0.9024 0.0
N551 N 0.24176 0.66216 0.88681 0.0
N552 N 0.29584 0.66303 0.89524 0.0
C553 C 0.27284 0.63828 0.8795 0.0
C554 C 0.24356 0.6379 0.87486 0.0
C555 C 0.65176 0.22771 0.02311 0.0
C556 C 0.62207 0.22142 0.03315 0.0
C557 C 0.67984 0.25536 0.03127 0.0
C558 C 0.67934 0.27803 0.04955 0.0
H559 H 0.65315 0.21227 0.00723 0.0
H560 H 0.70167 0.25994 0.02137 0.0
S561 S 0.60882 0.26955 0.08676 0.0
N562 N 0.59466 0.23747 0.06628 0.0
N563 N 0.64738 0.28994 0.08108 0.0
C564 C 0.65027 0.27069 0.06183 0.0
C565 C 0.62167 0.24232 0.05371 0.0
C566 C 0.4306 0.66199 0.1897 0.0
C567 C 0.40272 0.63407 0.18094 0.0
C568 C 0.42932 0.68803 0.20017 0.0
C569 C 0.40008 0.68705 0.20272 0.0
H570 H 0.45375 0.66427 0.18716 0.0
H571 H 0.45152 0.70958 0.20494 0.0
S572 S 0.31985 0.61854 0.18563 0.0
N573 N 0.34479 0.60646 0.17738 0.0
N574 N 0.34232 0.6548 0.1982 0.0
C575 C 0.37186 0.65845 0.19638 0.0
C576 C 0.37319 0.63211 0.18521 0.0
C577 C 0.76226 0.41243 0.33826 0.0
C578 C 0.78582 0.44367 0.34504 0.0
C579 C 0.7303 0.40109 0.34469 0.0
C580 C 0.72082 0.42075 0.35774 0.0
H581 H 0.76809 0.39723 0.32614 0.0
H582 H 0.71262 0.3776 0.33737 0.0
S583 S 0.77382 0.50209 0.3852 0.0
N584 N 0.79804 0.4922 0.37009 0.0
N585 N 0.73771 0.47124 0.3809 0.0
C586 C 0.74437 0.45109 0.36674 0.0
C587 C 0.77694 0.46247 0.36072 0.0
C588 C 0.17643 0.59927 0.47858 0.0
C589 C 0.17359 0.57387 0.46194 0.0
C590 C 0.1931 0.60819 0.50495 0.0
C591 C 0.20691 0.5916 0.51599 0.0
H592 H 0.16549 0.61232 0.47132 0.0
H593 H 0.19464 0.62782 0.51705 0.0
S594 S 0.20857 0.5249 0.48073 0.0
N595 N 0.18836 0.53374 0.45803 0.0
N596 N 0.21785 0.54947 0.5084 0.0
C597 C 0.20433 0.56623 0.49986 0.0
C598 C 0.1881 0.55759 0.47267 0.0
C599 C 0.62344 0.17366 0.6386 0.0
C600 C 0.60438 0.17668 0.61761 0.0
C601 C 0.62797 0.18767 0.66589 0.0
C602 C 0.61389 0.2056 0.67324 0.0
H603 H 0.63489 0.16024 0.6339 0.0
H604 H 0.64294 0.18464 0.68123 0.0
S605 S 0.56219 0.22104 0.6254 0.0
N606 N 0.57164 0.19911 0.60565 0.0
N607 N 0.5799 0.22544 0.65681 0.0
C608 C 0.59469 0.20874 0.6523 0.0
C609 C 0.58997 0.19427 0.62458 0.0
C610 C 0.4707 0.63103 0.78718 0.0
C611 C 0.4515 0.61434 0.76301 0.0
C612 C 0.45805 0.63891 0.81052 0.0
C613 C 0.42566 0.63002 0.81068 0.0
H614 H 0.49582 0.63853 0.78785 0.0
H615 H 0.47384 0.65245 0.82834 0.0
S616 S 0.36549 0.58727 0.7522 0.0
N617 N 0.39865 0.59041 0.74037 0.0
N618 N 0.37474 0.60393 0.78443 0.0
C619 C 0.40608 0.61275 0.78692 0.0
C620 C 0.41902 0.60523 0.76305 0.0
C621 C 0.83366 0.47198 0.96256 0.0
C622 C 0.83996 0.45347 0.94367 0.0
C623 C 0.81585 0.45942 0.98688 0.0
C624 C 0.80348 0.42781 0.99315 0.0
H625 H 0.84159 0.49607 0.95794 0.0
H626 H 0.81048 0.47427 8e-05 0.0
S627 S 0.81521 0.37005 0.95123 0.0
N628 N 0.83402 0.4025 0.93355 0.0
N629 N 0.80078 0.37886 0.9792 0.0
C630 C 0.81125 0.40956 0.97524 0.0
C631 C 0.82941 0.42239 0.9505 0.0
C632 C 0.37068 0.85436 0.13029 0.0
C633 C 0.39386 0.85949 0.11031 0.0
C634 C 0.36577 0.83531 0.15345 0.0
C635 C 0.3836 0.82038 0.15724 0.0
H636 H 0.3555 0.86428 0.12743 0.0
H637 H 0.3468 0.83109 0.16767 0.0
S638 S 0.44822 0.82759 0.11113 0.0
N639 N 0.43572 0.84939 0.09626 0.0
N640 N 0.42655 0.81353 0.1395 0.0
C641 C 0.40793 0.82664 0.13805 0.0
C642 C 0.41302 0.84618 0.11463 0.0
C643 C 0.52239 0.36292 0.26813 0.0
C644 C 0.52932 0.39397 0.26553 0.0
C645 C 0.53502 0.35451 0.29094 0.0
C646 C 0.55528 0.3769 0.31171 0.0
H647 H 0.50886 0.34539 0.25148 0.0
H648 H 0.53081 0.33088 0.29112 0.0
S649 S 0.57527 0.45945 0.31822 0.0
N650 N 0.55344 0.44582 0.28841 0.0
N651 N 0.57776 0.42999 0.33091 0.0
C652 C 0.56032 0.40729 0.31073 0.0
C653 C 0.54717 0.41583 0.28771 0.0
C654 C 0.45726 0.83252 0.32406 0.0
C655 C 0.44228 0.84844 0.33495 0.0
C656 C 0.44802 0.81642 0.29751 0.0
C657 C 0.4229 0.81492 0.28116 0.0
H658 H 0.47603 0.83205 0.33631 0.0
H659 H 0.46026 0.80461 0.28994 0.0
S660 S 0.37746 0.85437 0.29831 0.0
N661 N 0.40259 0.86354 0.32575 0.0
N662 N 0.38414 0.83172 0.27665 0.0
C663 C 0.40775 0.83071 0.29152 0.0
C664 C 0.41767 0.84781 0.31821 0.0
C665 C 0.62572 0.46829 0.46591 0.0
C666 C 0.6099 0.4471 0.48733 0.0
C667 C 0.62719 0.4578 0.43834 0.0
C668 C 0.61322 0.42565 0.43119 0.0
H669 H 0.637 0.49323 0.47049 0.0
H670 H 0.63983 0.47515 0.42267 0.0
S671 S 0.56931 0.36069 0.48018 0.0
N672 N 0.58013 0.39268 0.49997 0.0
N673 N 0.58288 0.3727 0.44819 0.0
C674 C 0.59724 0.40419 0.45256 0.0
C675 C 0.59554 0.41496 0.48059 0.0
C676 C 0.1667 0.60237 0.66841 0.0
C677 C 0.16731 0.62667 0.6851 0.0
C678 C 0.187 0.60875 0.64553 0.0
C679 C 0.2083 0.63963 0.63815 0.0
H680 H 0.15112 0.57822 0.67363 0.0
H681 H 0.18655 0.58935 0.63402 0.0
S682 S 0.21869 0.71174 0.67415 0.0
N683 N 0.19094 0.68299 0.69215 0.0
N684 N 0.22795 0.69476 0.64843 0.0
C685 C 0.20796 0.6641 0.65358 0.0
C686 C 0.18775 0.65768 0.67721 0.0
C687 C 0.56615 0.16927 0.8324 0.0
C688 C 0.54236 0.17027 0.84832 0.0
C689 C 0.57721 0.186 0.80747 0.0
C690 C 0.56442 0.20382 0.79716 0.0
H691 H 0.5772 0.15637 0.83981 0.0
H692 H 0.59666 0.18582 0.79676 0.0
S693 S 0.50053 0.21301 0.82971 0.0
N694 N 0.50578 0.19012 0.85124 0.0
N695 N 0.52547 0.22016 0.80372 0.0
C696 C 0.5392 0.2034 0.81173 0.0
C697 C 0.52841 0.18696 0.83746 0.0
C698 C 0.38789 0.60282 0.98843 0.0
C699 C 0.39188 0.57697 0.99197 0.0
C700 C 0.38441 0.61185 0.96116 0.0
C701 C 0.38407 0.59486 0.93655 0.0
H702 H 0.38738 0.61608 0.0069 0.0
H703 H 0.38115 0.63179 0.9594 0.0
S704 S 0.39439 0.52565 0.93476 0.0
N705 N 0.39621 0.53502 0.96901 0.0
N706 N 0.38889 0.55134 0.91769 0.0
C707 C 0.38825 0.56903 0.93994 0.0
C708 C 0.39238 0.56025 0.96768 0.0
C709 C 0.84439 0.41257 0.1575 0.0
C710 C 0.83645 0.43045 0.17553 0.0
C711 C 0.82739 0.39904 0.1317 0.0
C712 C 0.8016 0.40266 0.12298 0.0
H713 H 0.8644 0.40967 0.16303 0.0
H714 H 0.83498 0.38607 0.11829 0.0
S715 S 0.76941 0.44483 0.16445 0.0
N716 N 0.79986 0.44926 0.18418 0.0
N717 N 0.76784 0.42399 0.13588 0.0
C718 C 0.79279 0.41966 0.14148 0.0
C719 C 0.81023 0.43351 0.16765 0.0
loop_
_geom_bond_atom_site_label_1
_geom_bond_atom_site_label_2
_geom_bond_distance
_geom_bond_site_symmetry_2
_ccdc_geom_bond_type
H0 C27 0.929 . S
N1 C26 1.433 . S
N1 C32 1.435 . S
N1 C38 1.423 . S
H2 C28 0.930 . S
H3 C31 0.931 . S
H4 C30 0.929 . S
H5 C33 0.930 . S
H6 C34 0.932 . S
H7 C37 0.929 . S
H8 C36 0.931 . S
H9 C39 0.929 . S
H10 C43 0.932 . S
H11 C40 0.931 . S
H12 C42 0.929 . S
H13 C45 0.929 . S
H14 C46 0.930 . S
H15 C48 0.929 . S
H16 C49 0.931 . S
H17 C51 0.930 . S
H18 C52 0.932 . S
H19 C54 0.931 . S
H20 C55 0.929 . S
H21 C57 0.929 . S
H22 C58 0.931 . S
H23 C60 0.929 . S
N24 C44 1.433 . S
N24 C50 1.435 . S
N24 C56 1.423 . S
H25 C61 0.932 . S
C26 N1 1.433 . S
C26 C27 1.363 . S
C26 C31 1.370 . S
C27 H0 0.929 . S
C27 C26 1.363 . S
C27 C28 1.385 . S
C28 H2 0.930 . S
C28 C27 1.385 . S
C28 C29 1.357 . S
C29 C28 1.357 . S
C29 C30 1.406 . S
C30 H4 0.929 . S
C30 C29 1.406 . S
C30 C31 1.391 . S
C31 H3 0.931 . S
C31 C26 1.370 . S
C31 C30 1.391 . S
C32 N1 1.435 . S
C32 C33 1.358 . S
C32 C37 1.371 . S
C33 H5 0.930 . S
C33 C32 1.358 . S
C33 C34 1.405 . S
C34 H6 0.932 . S
C34 C33 1.405 . S
C34 C35 1.383 . S
C35 C34 1.383 . S
C35 C36 1.393 . S
C36 H8 0.931 . S
C36 C35 1.393 . S
C36 C37 1.382 . S
C37 H7 0.929 . S
C37 C32 1.371 . S
C37 C36 1.382 . S
C38 N1 1.423 . S
C38 C39 1.362 . S
C38 C43 1.388 . S
C39 H9 0.929 . S
C39 C38 1.362 . S
C39 C40 1.376 . S
C40 H11 0.931 . S
C40 C39 1.376 . S
C40 C41 1.396 . S
C41 C40 1.396 . S
C41 C42 1.348 . S
C41 C59 1.472 1_455 S
C42 H12 0.929 . S
C42 C41 1.348 . S
C42 C43 1.443 . S
C43 H10 0.932 . S
C43 C38 1.388 . S
C43 C42 1.443 . S
C44 N24 1.433 . S
C44 C45 1.363 . S
C44 C49 1.370 . S
C45 H13 0.929 . S
C45 C44 1.363 . S
C45 C46 1.385 . S
C46 H14 0.930 . S
C46 C45 1.385 . S
C46 C47 1.357 . S
C47 C46 1.357 . S
C47 C48 1.406 . S
C48 H15 0.929 . S
C48 C47 1.406 . S
C48 C49 1.391 . S
C49 H16 0.931 . S
C49 C44 1.370 . S
C49 C48 1.391 . S
C50 N24 1.435 . S
C50 C51 1.358 . S
C50 C55 1.371 . S
C51 H17 0.930 . S
C51 C50 1.358 . S
C51 C52 1.405 . S
C52 H18 0.932 . S
C52 C51 1.405 . S
C52 C53 1.383 . S
C53 C52 1.383 . S
C53 C54 1.393 . S
C54 H19 0.931 . S
C54 C53 1.393 . S
C54 C55 1.382 . S
C55 H20 0.929 . S
C55 C50 1.371 . S
C55 C54 1.382 . S
C56 N24 1.423 . S
C56 C57 1.362 . S
C56 C61 1.388 . S
C57 H21 0.929 . S
C57 C56 1.362 . S
C57 C58 1.376 . S
C58 H22 0.931 . S
C58 C57 1.376 . S
C58 C59 1.396 . S
C59 C41 1.472 1_655 S
C59 C58 1.396 . S
C59 C60 1.348 . S
C60 H23 0.929 . S
C60 C59 1.348 . S
C60 C61 1.443 . S
C61 H25 0.932 . S
C61 C56 1.388 . S
C61 C60 1.443 . S
H62 C89 0.929 . S
N63 C88 1.433 . S
N63 C94 1.435 . S
N63 C100 1.423 . S
H64 C90 0.930 . S
H65 C93 0.931 . S
H66 C92 0.929 . S
H67 C95 0.930 . S
H68 C96 0.932 . S
H69 C99 0.929 . S
H70 C98 0.931 . S
H71 C101 0.929 . S
H72 C105 0.932 . S
H73 C102 0.931 . S
H74 C104 0.929 1_545 S
H75 C107 0.929 . S
H76 C108 0.930 . S
H77 C110 0.929 . S
H78 C111 0.931 . S
H79 C113 0.930 . S
H80 C114 0.932 . S
H81 C116 0.931 . S
H82 C117 0.929 . S
H83 C119 0.929 . S
H84 C120 0.931 . S
H85 C122 0.929 . S
N86 C106 1.433 . S
N86 C112 1.435 . S
N86 C118 1.423 . S
H87 C123 0.932 . S
C88 N63 1.433 . S
C88 C89 1.363 . S
C88 C93 1.370 . S
C89 H62 0.929 . S
C89 C88 1.363 . S
C89 C90 1.385 . S
C90 H64 0.930 . S
C90 C89 1.385 . S
C90 C91 1.357 . S
C91 C90 1.357 . S
C91 C92 1.406 . S
C92 H66 0.929 . S
C92 C91 1.406 . S
C92 C93 1.391 . S
C93 H65 0.931 . S
C93 C88 1.370 . S
C93 C92 1.391 . S
C94 N63 1.435 . S
C94 C95 1.358 . S
C94 C99 1.371 . S
C95 H67 0.930 . S
C95 C94 1.358 . S
C95 C96 1.405 . S
C96 H68 0.932 . S
C96 C95 1.405 . S
C96 C97 1.383 . S
C97 C96 1.383 . S
C97 C98 1.393 . S
C98 H70 0.931 . S
C98 C97 1.393 . S
C98 C99 1.382 . S
C99 H69 0.929 . S
C99 C94 1.371 . S
C99 C98 1.382 . S
C100 N63 1.423 . S
C100 C101 1.362 . S
C100 C105 1.388 . S
C101 H71 0.929 . S
C101 C100 1.362 . S
C101 C102 1.376 . S
C102 H73 0.931 . S
C102 C101 1.376 . S
C102 C103 1.396 1_565 S
C103 C102 1.396 1_545 S
C103 C104 1.348 1_545 S
C103 C121 1.472 . S
C104 H74 0.929 1_565 S
C104 C103 1.348 1_565 S
C104 C105 1.443 . S
C105 H72 0.932 . S
C105 C100 1.388 . S
C105 C104 1.443 . S
C106 N86 1.433 . S
C106 C107 1.363 . S
C106 C111 1.370 . S
C107 H75 0.929 . S
C107 C106 1.363 . S
C107 C108 1.385 . S
C108 H76 0.930 . S
C108 C107 1.385 . S
C108 C109 1.357 . S
C109 C108 1.357 . S
C109 C110 1.406 . S
C110 H77 0.929 . S
C110 C109 1.406 . S
C110 C111 1.391 . S
C111 H78 0.931 . S
C111 C106 1.370 . S
C111 C110 1.391 . S
C112 N86 1.435 . S
C112 C113 1.358 . S
C112 C117 1.371 . S
C113 H79 0.930 . S
C113 C112 1.358 . S
C113 C114 1.405 . S
C114 H80 0.932 . S
C114 C113 1.405 . S
C114 C115 1.383 . S
C115 C114 1.383 . S
C115 C116 1.393 . S
C116 H81 0.931 . S
C116 C115 1.393 . S
C116 C117 1.382 . S
C117 H82 0.929 . S
C117 C112 1.371 . S
C117 C116 1.382 . S
C118 N86 1.423 . S
C118 C119 1.362 . S
C118 C123 1.388 . S
C119 H83 0.929 . S
C119 C118 1.362 . S
C119 C120 1.376 . S
C120 H84 0.931 . S
C120 C119 1.376 . S
C120 C121 1.396 . S
C121 C103 1.472 . S
C121 C120 1.396 . S
C121 C122 1.348 . S
C122 H85 0.929 . S
C122 C121 1.348 . S
C122 C123 1.443 . S
C123 H87 0.932 . S
C123 C118 1.388 . S
C123 C122 1.443 . S
H124 C151 0.929 . S
N125 C150 1.433 . S
N125 C156 1.435 . S
N125 C162 1.423 . S
H126 C152 0.930 . S
H127 C155 0.931 . S
H128 C154 0.929 . S
H129 C157 0.930 . S
H130 C158 0.932 . S
H131 C161 0.929 . S
H132 C160 0.931 . S
H133 C163 0.929 . S
H134 C167 0.932 . S
H135 C164 0.931 . S
H136 C166 0.929 . S
H137 C169 0.929 . S
H138 C170 0.930 . S
H139 C172 0.929 . S
H140 C173 0.931 . S
H141 C175 0.930 . S
H142 C176 0.932 . S
H143 C178 0.931 . S
H144 C179 0.929 . S
H145 C181 0.929 . S
H146 C182 0.931 . S
H147 C184 0.929 . S
N148 C168 1.433 . S
N148 C174 1.435 . S
N148 C180 1.423 . S
H149 C185 0.932 . S
C150 N125 1.433 . S
C150 C151 1.363 . S
C150 C155 1.370 . S
C151 H124 0.929 . S
C151 C150 1.363 . S
C151 C152 1.385 . S
C152 H126 0.930 . S
C152 C151 1.385 . S
C152 C153 1.357 . S
C153 C152 1.357 . S
C153 C154 1.406 . S
C154 H128 0.929 . S
C154 C153 1.406 . S
C154 C155 1.391 . S
C155 H127 0.931 . S
C155 C150 1.370 . S
C155 C154 1.391 . S
C156 N125 1.435 . S
C156 C157 1.358 . S
C156 C161 1.371 . S
C157 H129 0.930 . S
C157 C156 1.358 . S
C157 C158 1.405 . S
C158 H130 0.932 . S
C158 C157 1.405 . S
C158 C159 1.383 . S
C159 C158 1.383 . S
C159 C160 1.393 . S
C160 H132 0.931 . S
C160 C159 1.393 . S
C160 C161 1.382 . S
C161 H131 0.929 . S
C161 C156 1.371 . S
C161 C160 1.382 . S
C162 N125 1.423 . S
C162 C163 1.362 . S
C162 C167 1.388 . S
C163 H133 0.929 . S
C163 C162 1.362 . S
C163 C164 1.376 . S
C164 H135 0.931 . S
C164 C163 1.376 . S
C164 C165 1.396 . S
C165 C164 1.396 . S
C165 C166 1.348 . S
C165 C183 1.472 . S
C166 H136 0.929 . S
C166 C165 1.348 . S
C166 C167 1.443 . S
C167 H134 0.932 . S
C167 C162 1.388 . S
C167 C166 1.443 . S
C168 N148 1.433 . S
C168 C169 1.363 . S
C168 C173 1.370 . S
C169 H137 0.929 . S
C169 C168 1.363 . S
C169 C170 1.385 . S
C170 H138 0.930 . S
C170 C169 1.385 . S
C170 C171 1.357 . S
C171 C170 1.357 . S
C171 C172 1.406 . S
C172 H139 0.929 . S
C172 C171 1.406 . S
C172 C173 1.391 . S
C173 H140 0.931 . S
C173 C168 1.370 . S
C173 C172 1.391 . S
C174 N148 1.435 . S
C174 C175 1.358 . S
C174 C179 1.371 . S
C175 H141 0.930 . S
C175 C174 1.358 . S
C175 C176 1.405 . S
C176 H142 0.932 . S
C176 C175 1.405 . S
C176 C177 1.383 . S
C177 C176 1.383 . S
C177 C178 1.393 . S
C178 H143 0.931 . S
C178 C177 1.393 . S
C178 C179 1.382 . S
C179 H144 0.929 . S
C179 C174 1.371 . S
C179 C178 1.382 . S
C180 N148 1.423 . S
C180 C181 1.362 . S
C180 C185 1.388 . S
C181 H145 0.929 . S
C181 C180 1.362 . S
C181 C182 1.376 . S
C182 H146 0.931 . S
C182 C181 1.376 . S
C182 C183 1.396 . S
C183 C165 1.472 . S
C183 C182 1.396 . S
C183 C184 1.348 . S
C184 H147 0.929 . S
C184 C183 1.348 . S
C184 C185 1.443 . S
C185 H149 0.932 . S
C185 C180 1.388 . S
C185 C184 1.443 . S
H186 C213 0.929 . S
N187 C212 1.433 . S
N187 C218 1.435 . S
N187 C224 1.423 . S
H188 C214 0.930 . S
H189 C217 0.931 . S
H190 C216 0.929 . S
H191 C219 0.930 . S
H192 C220 0.932 . S
H193 C223 0.929 . S
H194 C222 0.931 . S
H195 C225 0.929 . S
H196 C229 0.932 . S
H197 C226 0.931 . S
H198 C228 0.929 . S
H199 C231 0.929 . S
H200 C232 0.930 . S
H201 C234 0.929 . S
H202 C235 0.931 . S
H203 C237 0.930 . S
H204 C238 0.932 . S
H205 C240 0.931 . S
H206 C241 0.929 . S
H207 C243 0.929 . S
H208 C244 0.931 . S
H209 C246 0.929 . S
N210 C230 1.433 . S
N210 C236 1.435 . S
N210 C242 1.423 . S
H211 C247 0.932 . S
C212 N187 1.433 . S
C212 C213 1.363 . S
C212 C217 1.370 . S
C213 H186 0.929 . S
C213 C212 1.363 . S
C213 C214 1.385 . S
C214 H188 0.930 . S
C214 C213 1.385 . S
C214 C215 1.357 . S
C215 C214 1.357 . S
C215 C216 1.406 . S
C216 H190 0.929 . S
C216 C215 1.406 . S
C216 C217 1.391 . S
C217 H189 0.931 . S
C217 C212 1.370 . S
C217 C216 1.391 . S
C218 N187 1.435 . S
C218 C219 1.358 . S
C218 C223 1.371 . S
C219 H191 0.930 . S
C219 C218 1.358 . S
C219 C220 1.405 . S
C220 H192 0.932 . S
C220 C219 1.405 . S
C220 C221 1.383 . S
C221 C220 1.383 . S
C221 C222 1.393 . S
C222 H194 0.931 . S
C222 C221 1.393 . S
C222 C223 1.382 . S
C223 H193 0.929 . S
C223 C218 1.371 . S
C223 C222 1.382 . S
C224 N187 1.423 . S
C224 C225 1.362 . S
C224 C229 1.388 . S
C225 H195 0.929 . S
C225 C224 1.362 . S
C225 C226 1.376 . S
C226 H197 0.931 . S
C226 C225 1.376 . S
C226 C227 1.396 . S
C227 C226 1.396 . S
C227 C228 1.348 . S
C227 C245 1.472 1_455 S
C228 H198 0.929 . S
C228 C227 1.348 . S
C228 C229 1.443 . S
C229 H196 0.932 . S
C229 C224 1.388 . S
C229 C228 1.443 . S
C230 N210 1.433 . S
C230 C231 1.363 . S
C230 C235 1.370 . S
C231 H199 0.929 . S
C231 C230 1.363 . S
C231 C232 1.385 . S
C232 H200 0.930 . S
C232 C231 1.385 . S
C232 C233 1.357 . S
C233 C232 1.357 . S
C233 C234 1.406 . S
C234 H201 0.929 . S
C234 C233 1.406 . S
C234 C235 1.391 . S
C235 H202 0.931 . S
C235 C230 1.370 . S
C235 C234 1.391 . S
C236 N210 1.435 . S
C236 C237 1.358 . S
C236 C241 1.371 . S
C237 H203 0.930 . S
C237 C236 1.358 . S
C237 C238 1.405 . S
C238 H204 0.932 . S
C238 C237 1.405 . S
C238 C239 1.383 . S
C239 C238 1.383 . S
C239 C240 1.393 . S
C240 H205 0.931 . S
C240 C239 1.393 . S
C240 C241 1.382 . S
C241 H206 0.929 . S
C241 C236 1.371 . S
C241 C240 1.382 . S
C242 N210 1.423 . S
C242 C243 1.362 . S
C242 C247 1.388 . S
C243 H207 0.929 . S
C243 C242 1.362 . S
C243 C244 1.376 . S
C244 H208 0.931 . S
C244 C243 1.376 . S
C244 C245 1.396 . S
C245 C227 1.472 1_655 S
C245 C244 1.396 . S
C245 C246 1.348 . S
C246 H209 0.929 . S
C246 C245 1.348 . S
C246 C247 1.443 . S
C247 H211 0.932 . S
C247 C242 1.388 . S
C247 C246 1.443 . S
H248 C275 0.929 . S
N249 C274 1.433 . S
N249 C280 1.435 . S
N249 C286 1.423 . S
H250 C276 0.930 . S
H251 C279 0.931 . S
H252 C278 0.929 . S
H253 C281 0.930 . S
H254 C282 0.932 . S
H255 C285 0.929 . S
H256 C284 0.931 . S
H257 C287 0.929 . S
H258 C291 0.932 . S
H259 C288 0.931 . S
H260 C290 0.929 . S
H261 C293 0.929 . S
H262 C294 0.930 . S
H263 C296 0.929 . S
H264 C297 0.931 . S
H265 C299 0.930 1_554 S
H266 C300 0.932 . S
H267 C302 0.931 . S
H268 C303 0.929 . S
H269 C305 0.929 . S
H270 C306 0.905 1_544 S
H271 C308 0.929 . S
N272 C292 1.433 . S
N272 C298 1.435 1_554 S
N272 C304 1.423 1_554 S
H273 C309 0.932 . S
C274 N249 1.433 . S
C274 C275 1.363 . S
C274 C279 1.370 . S
C275 H248 0.929 . S
C275 C274 1.363 . S
C275 C276 1.385 . S
C276 H250 0.930 . S
C276 C275 1.385 . S
C276 C277 1.357 1_556 S
C277 C276 1.357 1_554 S
C277 C278 1.406 . S
C278 H252 0.929 . S
C278 C277 1.406 . S
C278 C279 1.391 1_554 S
C279 H251 0.931 . S
C279 C274 1.370 . S
C279 C278 1.391 1_556 S
C280 N249 1.435 . S
C280 C281 1.358 . S
C280 C285 1.371 . S
C281 H253 0.930 . S
C281 C280 1.358 . S
C281 C282 1.405 . S
C282 H254 0.932 . S
C282 C281 1.405 . S
C282 C283 1.383 . S
C283 C282 1.383 . S
C283 C284 1.393 . S
C284 H256 0.931 . S
C284 C283 1.393 . S
C284 C285 1.382 . S
C285 H255 0.929 . S
C285 C280 1.371 . S
C285 C284 1.382 . S
C286 N249 1.423 . S
C286 C287 1.362 . S
C286 C291 1.388 . S
C287 H257 0.929 . S
C287 C286 1.362 . S
C287 C288 1.376 . S
C288 H259 0.931 . S
C288 C287 1.376 . S
C288 C289 1.396 . S
C289 C288 1.396 . S
C289 C290 1.348 . S
C289 C307 1.472 1_545 S
C290 H260 0.929 . S
C290 C289 1.348 . S
C290 C291 1.443 . S
C291 H258 0.932 . S
C291 C286 1.388 . S
C291 C290 1.443 . S
C292 N272 1.433 . S
C292 C293 1.363 . S
C292 C297 1.370 . S
C293 H261 0.929 . S
C293 C292 1.363 . S
C293 C294 1.385 . S
C294 H262 0.930 . S
C294 C293 1.385 . S
C294 C295 1.357 . S
C295 C294 1.357 . S
C295 C296 1.406 . S
C296 H263 0.929 . S
C296 C295 1.406 . S
C296 C297 1.391 . S
C297 H264 0.931 . S
C297 C292 1.370 . S
C297 C296 1.391 . S
C298 N272 1.435 1_556 S
C298 C299 1.358 . S
C298 C303 1.371 . S
C299 H265 0.930 1_556 S
C299 C298 1.358 . S
C299 C300 1.405 . S
C300 H266 0.932 . S
C300 C299 1.405 . S
C300 C301 1.383 . S
C301 C300 1.383 . S
C301 C302 1.393 . S
C302 H267 0.931 . S
C302 C301 1.393 . S
C302 C303 1.382 . S
C303 H268 0.929 . S
C303 C298 1.371 . S
C303 C302 1.382 . S
C304 N272 1.423 1_556 S
C304 C305 1.362 1_556 S
C304 C309 1.388 . S
C305 H269 0.929 . S
C305 C304 1.362 1_554 S
C305 C306 1.376 1_554 S
C306 H270 0.905 1_566 S
C306 C305 1.376 1_556 S
C306 C307 1.396 . S
C307 C289 1.472 1_565 S
C307 C306 1.396 . S
C307 C308 1.348 . S
C308 H271 0.929 . S
C308 C307 1.348 . S
C308 C309 1.443 . S
C309 H273 0.932 . S
C309 C304 1.388 . S
C309 C308 1.443 . S
H310 C337 0.929 . S
N311 C336 1.433 . S
N311 C342 1.435 . S
N311 C348 1.423 . S
H312 C338 0.930 . S
H313 C341 0.931 . S
H314 C340 0.929 . S
H315 C343 0.930 . S
H316 C344 0.932 . S
H317 C347 0.929 . S
H318 C346 0.931 . S
H319 C349 0.929 . S
H320 C353 0.932 . S
H321 C350 0.931 . S
H322 C352 0.929 . S
H323 C355 0.929 . S
H324 C356 0.930 . S
H325 C358 0.929 . S
H326 C359 0.931 . S
H327 C361 0.930 . S
H328 C362 0.932 . S
H329 C364 0.931 . S
H330 C365 0.929 . S
H331 C367 0.929 . S
H332 C368 0.931 . S
H333 C370 0.929 . S
N334 C354 1.433 . S
N334 C360 1.435 . S
N334 C366 1.423 . S
H335 C371 0.932 . S
C336 N311 1.433 . S
C336 C337 1.363 . S
C336 C341 1.370 . S
C337 H310 0.929 . S
C337 C336 1.363 . S
C337 C338 1.385 . S
C338 H312 0.930 . S
C338 C337 1.385 . S
C338 C339 1.357 . S
C339 C338 1.357 . S
C339 C340 1.406 . S
C340 H314 0.929 . S
C340 C339 1.406 . S
C340 C341 1.391 . S
C341 H313 0.931 . S
C341 C336 1.370 . S
C341 C340 1.391 . S
C342 N311 1.435 . S
C342 C343 1.358 . S
C342 C347 1.371 . S
C343 H315 0.930 . S
C343 C342 1.358 . S
C343 C344 1.405 . S
C344 H316 0.932 . S
C344 C343 1.405 . S
C344 C345 1.383 . S
C345 C344 1.383 . S
C345 C346 1.393 . S
C346 H318 0.931 . S
C346 C345 1.393 . S
C346 C347 1.382 . S
C347 H317 0.929 . S
C347 C342 1.371 . S
C347 C346 1.382 . S
C348 N311 1.423 . S
C348 C349 1.362 . S
C348 C353 1.388 . S
C349 H319 0.929 . S
C349 C348 1.362 . S
C349 C350 1.376 . S
C350 H321 0.931 . S
C350 C349 1.376 . S
C350 C351 1.396 . S
C351 C350 1.396 . S
C351 C352 1.348 . S
C351 C369 1.472 . S
C352 H322 0.929 . S
C352 C351 1.348 . S
C352 C353 1.443 . S
C353 H320 0.932 . S
C353 C348 1.388 . S
C353 C352 1.443 . S
C354 N334 1.433 . S
C354 C355 1.363 . S
C354 C359 1.370 . S
C355 H323 0.929 . S
C355 C354 1.363 . S
C355 C356 1.385 . S
C356 H324 0.930 . S
C356 C355 1.385 . S
C356 C357 1.357 . S
C357 C356 1.357 . S
C357 C358 1.406 . S
C358 H325 0.929 . S
C358 C357 1.406 . S
C358 C359 1.391 . S
C359 H326 0.931 . S
C359 C354 1.370 . S
C359 C358 1.391 . S
C360 N334 1.435 . S
C360 C361 1.358 . S
C360 C365 1.371 . S
C361 H327 0.930 . S
C361 C360 1.358 . S
C361 C362 1.405 . S
C362 H328 0.932 . S
C362 C361 1.405 . S
C362 C363 1.383 . S
C363 C362 1.383 . S
C363 C364 1.393 . S
C364 H329 0.931 . S
C364 C363 1.393 . S
C364 C365 1.382 . S
C365 H330 0.929 . S
C365 C360 1.371 . S
C365 C364 1.382 . S
C366 N334 1.423 . S
C366 C367 1.362 . S
C366 C371 1.388 . S
C367 H331 0.929 . S
C367 C366 1.362 . S
C367 C368 1.376 . S
C368 H332 0.931 . S
C368 C367 1.376 . S
C368 C369 1.396 . S
C369 C351 1.472 . S
C369 C368 1.396 . S
C369 C370 1.348 . S
C370 H333 0.929 . S
C370 C369 1.348 . S
C370 C371 1.443 . S
C371 H335 0.932 . S
C371 C366 1.388 . S
C371 C370 1.443 . S
Mg372 O373 2.028 . S
Mg372 O379 1.986 . S
Mg372 O381 2.114 . S
Mg372 O382 2.251 . S
Mg372 O385 2.010 . S
O373 Mg372 2.028 . S
O373 C376 1.250 . S
O374 Mg375 2.028 . S
O374 C376 1.248 . S
Mg375 O374 2.028 . S
Mg375 O380 2.032 . S
Mg375 O382 2.079 . S
C376 O373 1.250 . S
C376 O374 1.248 . S
C377 O378 1.264 . S
C377 O385 1.249 . S
O378 C377 1.264 . S
O379 Mg372 1.986 . S
O379 C383 1.246 . S
O380 Mg375 2.032 . S
O380 C383 1.259 . S
O381 Mg372 2.114 . S
O381 C384 1.252 . S
O382 Mg372 2.251 . S
O382 Mg375 2.079 . S
O382 C384 1.273 . S
C383 O379 1.246 . S
C383 O380 1.259 . S
C384 O381 1.252 . S
C384 O382 1.273 . S
O385 Mg372 2.010 . S
O385 C377 1.249 . S
Mg386 O387 2.028 . S
Mg386 O393 1.986 . S
Mg386 O395 2.114 . S
Mg386 O396 2.251 . S
Mg386 O399 2.010 . S
O387 Mg386 2.028 . S
O387 C390 1.250 . S
O388 Mg389 2.028 . S
O388 C390 1.248 . S
Mg389 O388 2.028 . S
Mg389 O394 2.032 . S
Mg389 O396 2.079 . S
C390 O387 1.250 . S
C390 O388 1.248 . S
C391 O392 1.264 . S
C391 O399 1.249 . S
O392 C391 1.264 . S
O393 Mg386 1.986 . S
O393 C397 1.246 . S
O394 Mg389 2.032 . S
O394 C397 1.259 . S
O395 Mg386 2.114 . S
O395 C398 1.252 . S
O396 Mg386 2.251 . S
O396 Mg389 2.079 . S
O396 C398 1.273 . S
C397 O393 1.246 . S
C397 O394 1.259 . S
C398 O395 1.252 . S
C398 O396 1.273 . S
O399 Mg386 2.010 . S
O399 C391 1.249 . S
Mg400 O401 2.028 . S
Mg400 O407 1.986 . S
Mg400 O409 2.114 . S
Mg400 O410 2.251 . S
Mg400 O413 2.010 . S
O401 Mg400 2.028 . S
O401 C404 1.250 . S
O402 Mg403 2.028 . S
O402 C404 1.248 . S
Mg403 O402 2.028 . S
Mg403 O408 2.032 . S
Mg403 O410 2.079 . S
C404 O401 1.250 . S
C404 O402 1.248 . S
C405 O406 1.264 . S
C405 O413 1.249 . S
O406 C405 1.264 . S
O407 Mg400 1.986 . S
O407 C411 1.246 . S
O408 Mg403 2.032 . S
O408 C411 1.259 . S
O409 Mg400 2.114 . S
O409 C412 1.252 . S
O410 Mg400 2.251 . S
O410 Mg403 2.079 . S
O410 C412 1.273 . S
C411 O407 1.246 . S
C411 O408 1.259 . S
C412 O409 1.252 . S
C412 O410 1.273 . S
O413 Mg400 2.010 . S
O413 C405 1.249 . S
Mg414 O415 2.028 . S
Mg414 O421 1.986 . S
Mg414 O423 2.114 . S
Mg414 O424 2.251 . S
Mg414 O427 2.010 . S
O415 Mg414 2.028 . S
O415 C418 1.250 . S
O416 Mg417 2.028 . S
O416 C418 1.248 . S
Mg417 O416 2.028 . S
Mg417 O422 2.032 . S
Mg417 O424 2.079 . S
C418 O415 1.250 . S
C418 O416 1.248 . S
C419 O420 1.264 . S
C419 O427 1.249 . S
O420 C419 1.264 . S
O421 Mg414 1.986 . S
O421 C425 1.246 . S
O422 Mg417 2.032 . S
O422 C425 1.259 . S
O423 Mg414 2.114 . S
O423 C426 1.252 . S
O424 Mg414 2.251 . S
O424 Mg417 2.079 . S
O424 C426 1.273 . S
C425 O421 1.246 . S
C425 O422 1.259 . S
C426 O423 1.252 . S
C426 O424 1.273 . S
O427 Mg414 2.010 . S
O427 C419 1.249 . S
Mg428 O429 2.028 . S
Mg428 O435 1.986 . S
Mg428 O437 2.114 . S
Mg428 O438 2.251 . S
Mg428 O441 2.010 . S
O429 Mg428 2.028 . S
O429 C432 1.250 . S
O430 Mg431 2.028 . S
O430 C432 1.248 . S
Mg431 O430 2.028 . S
Mg431 O436 2.032 . S
Mg431 O438 2.079 . S
C432 O429 1.250 . S
C432 O430 1.248 . S
C433 O434 1.264 . S
C433 O441 1.249 . S
O434 C433 1.264 . S
O435 Mg428 1.986 . S
O435 C439 1.246 . S
O436 Mg431 2.032 . S
O436 C439 1.259 . S
O437 Mg428 2.114 . S
O437 C440 1.252 . S
O438 Mg428 2.251 . S
O438 Mg431 2.079 . S
O438 C440 1.273 . S
C439 O435 1.246 . S
C439 O436 1.259 . S
C440 O437 1.252 . S
C440 O438 1.273 . S
O441 Mg428 2.010 . S
O441 C433 1.249 . S
Mg442 O443 2.028 . S
Mg442 O449 1.986 . S
Mg442 O451 2.114 . S
Mg442 O452 2.251 . S
Mg442 O455 2.010 . S
O443 Mg442 2.028 . S
O443 C446 1.250 . S
O444 Mg445 2.028 . S
O444 C446 1.248 . S
Mg445 O444 2.028 . S
Mg445 O450 2.032 . S
Mg445 O452 2.079 . S
C446 O443 1.250 . S
C446 O444 1.248 . S
C447 O448 1.264 . S
C447 O455 1.249 . S
O448 C447 1.264 . S
O449 Mg442 1.986 . S
O449 C453 1.246 . S
O450 Mg445 2.032 . S
O450 C453 1.259 . S
O451 Mg442 2.114 . S
O451 C454 1.252 . S
O452 Mg442 2.251 . S
O452 Mg445 2.079 . S
O452 C454 1.273 . S
C453 O449 1.246 . S
C453 O450 1.259 . S
C454 O451 1.252 . S
C454 O452 1.273 . S
O455 Mg442 2.010 . S
O455 C447 1.249 . S
C456 C457 1.369 . S
C456 C458 1.419 . S
C456 H460 0.930 . S
C457 C456 1.369 . S
C457 C466 1.429 . S
C458 C456 1.419 . S
C458 C459 1.363 . S
C458 H461 0.929 . S
C459 C458 1.363 . S
C459 C465 1.428 . S
H460 C456 0.930 . S
H461 C458 0.929 . S
S462 N463 1.613 . S
S462 N464 1.610 . S
N463 S462 1.613 . S
N463 C466 1.350 . S
N464 S462 1.610 . S
N464 C465 1.351 . S
C465 C459 1.428 . S
C465 N464 1.351 . S
C465 C466 1.434 . S
C466 C457 1.429 . S
C466 N463 1.350 . S
C466 C465 1.434 . S
C467 C468 1.369 . S
C467 C469 1.419 . S
C467 H471 0.930 . S
C468 C467 1.369 . S
C468 C477 1.429 . S
C469 C467 1.419 . S
C469 C470 1.363 . S
C469 H472 0.929 . S
C470 C469 1.363 . S
C470 C476 1.428 . S
H471 C467 0.930 . S
H472 C469 0.929 . S
S473 N474 1.613 . S
S473 N475 1.610 . S
N474 S473 1.613 . S
N474 C477 1.350 . S
N475 S473 1.610 . S
N475 C476 1.351 . S
C476 C470 1.428 . S
C476 N475 1.351 . S
C476 C477 1.434 . S
C477 C468 1.429 . S
C477 N474 1.350 . S
C477 C476 1.434 . S
C478 C479 1.369 . S
C478 C480 1.419 . S
C478 H482 0.930 . S
C479 C478 1.369 . S
C479 C488 1.429 . S
C480 C478 1.419 . S
C480 C481 1.363 . S
C480 H483 0.929 . S
C481 C480 1.363 . S
C481 C487 1.428 . S
H482 C478 0.930 . S
H483 C480 0.929 . S
S484 N485 1.613 . S
S484 N486 1.610 . S
N485 S484 1.613 . S
N485 C488 1.350 . S
N486 S484 1.610 . S
N486 C487 1.351 . S
C487 C481 1.428 . S
C487 N486 1.351 . S
C487 C488 1.434 . S
C488 C479 1.429 . S
C488 N485 1.350 . S
C488 C487 1.434 . S
C489 C490 1.369 . S
C489 C491 1.419 . S
C489 H493 0.930 . S
C490 C489 1.369 . S
C490 C499 1.429 . S
C491 C489 1.419 . S
C491 C492 1.363 . S
C491 H494 0.929 . S
C492 C491 1.363 . S
C492 C498 1.428 . S
H493 C489 0.930 . S
H494 C491 0.929 . S
S495 N496 1.613 . S
S495 N497 1.610 . S
N496 S495 1.613 . S
N496 C499 1.350 . S
N497 S495 1.610 . S
N497 C498 1.351 . S
C498 C492 1.428 . S
C498 N497 1.351 . S
C498 C499 1.434 . S
C499 C490 1.429 . S
C499 N496 1.350 . S
C499 C498 1.434 . S
C500 C501 1.369 . S
C500 C502 1.419 . S
C500 H504 0.930 . S
C501 C500 1.369 . S
C501 C510 1.429 . S
C502 C500 1.419 . S
C502 C503 1.363 . S
C502 H505 0.929 . S
C503 C502 1.363 . S
C503 C509 1.428 . S
H504 C500 0.930 . S
H505 C502 0.929 . S
S506 N507 1.613 1_554 S
S506 N508 1.610 1_554 S
N507 S506 1.613 1_556 S
N507 C510 1.350 . S
N508 S506 1.610 1_556 S
N508 C509 1.351 . S
C509 C503 1.428 . S
C509 N508 1.351 . S
C509 C510 1.434 . S
C510 C501 1.429 . S
C510 N507 1.350 . S
C510 C509 1.434 . S
C511 C512 1.369 . S
C511 C513 1.419 . S
C511 H515 0.930 . S
C512 C511 1.369 . S
C512 C521 1.429 . S
C513 C511 1.419 . S
C513 C514 1.363 . S
C513 H516 0.929 . S
C514 C513 1.363 . S
C514 C520 1.428 . S
H515 C511 0.930 . S
H516 C513 0.929 . S
S517 N518 1.613 . S
S517 N519 1.610 . S
N518 S517 1.613 . S
N518 C521 1.350 . S
N519 S517 1.610 . S
N519 C520 1.351 . S
C520 C514 1.428 . S
C520 N519 1.351 . S
C520 C521 1.434 . S
C521 C512 1.429 . S
C521 N518 1.350 . S
C521 C520 1.434 . S
C522 C523 1.369 . S
C522 C524 1.419 . S
C522 H526 0.930 . S
C523 C522 1.369 . S
C523 C532 1.429 . S
C524 C522 1.419 . S
C524 C525 1.363 . S
C524 H527 0.929 . S
C525 C524 1.363 . S
C525 C531 1.428 . S
H526 C522 0.930 . S
H527 C524 0.929 . S
S528 N529 1.613 . S
S528 N530 1.610 . S
N529 S528 1.613 . S
N529 C532 1.350 . S
N530 S528 1.610 . S
N530 C531 1.351 . S
C531 C525 1.428 . S
C531 N530 1.351 . S
C531 C532 1.434 . S
C532 C523 1.429 . S
C532 N529 1.350 . S
C532 C531 1.434 . S
C533 C534 1.369 . S
C533 C535 1.419 . S
C533 H537 0.930 . S
C534 C533 1.369 . S
C534 C543 1.429 . S
C535 C533 1.419 . S
C535 C536 1.363 . S
C535 H538 0.929 . S
C536 C535 1.363 . S
C536 C542 1.428 . S
H537 C533 0.930 . S
H538 C535 0.929 . S
S539 N540 1.613 . S
S539 N541 1.610 . S
N540 S539 1.613 . S
N540 C543 1.350 . S
N541 S539 1.610 . S
N541 C542 1.351 . S
C542 C536 1.428 . S
C542 N541 1.351 . S
C542 C543 1.434 . S
C543 C534 1.429 . S
C543 N540 1.350 . S
C543 C542 1.434 . S
C544 C545 1.369 . S
C544 C546 1.419 . S
C544 H548 0.930 . S
C545 C544 1.369 . S
C545 C554 1.429 . S
C546 C544 1.419 . S
C546 C547 1.363 . S
C546 H549 0.929 . S
C547 C546 1.363 . S
C547 C553 1.428 . S
H548 C544 0.930 . S
H549 C546 0.929 . S
S550 N551 1.613 . S
S550 N552 1.610 . S
N551 S550 1.613 . S
N551 C554 1.350 . S
N552 S550 1.610 . S
N552 C553 1.351 . S
C553 C547 1.428 . S
C553 N552 1.351 . S
C553 C554 1.434 . S
C554 C545 1.429 . S
C554 N551 1.350 . S
C554 C553 1.434 . S
C555 C556 1.369 . S
C555 C557 1.419 . S
C555 H559 0.930 . S
C556 C555 1.369 . S
C556 C565 1.429 . S
C557 C555 1.419 . S
C557 C558 1.363 . S
C557 H560 0.929 . S
C558 C557 1.363 . S
C558 C564 1.428 . S
H559 C555 0.930 . S
H560 C557 0.929 . S
S561 N562 1.613 . S
S561 N563 1.610 . S
N562 S561 1.613 . S
N562 C565 1.350 . S
N563 S561 1.610 . S
N563 C564 1.351 . S
C564 C558 1.428 . S
C564 N563 1.351 . S
C564 C565 1.434 . S
C565 C556 1.429 . S
C565 N562 1.350 . S
C565 C564 1.434 . S
C566 C567 1.369 . S
C566 C568 1.419 . S
C566 H570 0.930 . S
C567 C566 1.369 . S
C567 C576 1.429 . S
C568 C566 1.419 . S
C568 C569 1.363 . S
C568 H571 0.929 . S
C569 C568 1.363 . S
C569 C575 1.428 . S
H570 C566 0.930 . S
H571 C568 0.929 . S
S572 N573 1.613 . S
S572 N574 1.610 . S
N573 S572 1.613 . S
N573 C576 1.350 . S
N574 S572 1.610 . S
N574 C575 1.351 . S
C575 C569 1.428 . S
C575 N574 1.351 . S
C575 C576 1.434 . S
C576 C567 1.429 . S
C576 N573 1.350 . S
C576 C575 1.434 . S
C577 C578 1.369 . S
C577 C579 1.419 . S
C577 H581 0.930 . S
C578 C577 1.369 . S
C578 C587 1.429 . S
C579 C577 1.419 . S
C579 C580 1.363 . S
C579 H582 0.929 . S
C580 C579 1.363 . S
C580 C586 1.428 . S
H581 C577 0.930 . S
H582 C579 0.929 . S
S583 N584 1.613 . S
S583 N585 1.610 . S
N584 S583 1.613 . S
N584 C587 1.350 . S
N585 S583 1.610 . S
N585 C586 1.351 . S
C586 C580 1.428 . S
C586 N585 1.351 . S
C586 C587 1.434 . S
C587 C578 1.429 . S
C587 N584 1.350 . S
C587 C586 1.434 . S
C588 C589 1.369 . S
C588 C590 1.419 . S
C588 H592 0.930 . S
C589 C588 1.369 . S
C589 C598 1.429 . S
C590 C588 1.419 . S
C590 C591 1.363 . S
C590 H593 0.929 . S
C591 C590 1.363 . S
C591 C597 1.428 . S
H592 C588 0.930 . S
H593 C590 0.929 . S
S594 N595 1.613 . S
S594 N596 1.610 . S
N595 S594 1.613 . S
N595 C598 1.350 . S
N596 S594 1.610 . S
N596 C597 1.351 . S
C597 C591 1.428 . S
C597 N596 1.351 . S
C597 C598 1.434 . S
C598 C589 1.429 . S
C598 N595 1.350 . S
C598 C597 1.434 . S
C599 C600 1.369 . S
C599 C601 1.419 . S
C599 H603 0.930 . S
C600 C599 1.369 . S
C600 C609 1.429 . S
C601 C599 1.419 . S
C601 C602 1.363 . S
C601 H604 0.929 . S
C602 C601 1.363 . S
C602 C608 1.428 . S
H603 C599 0.930 . S
H604 C601 0.929 . S
S605 N606 1.613 . S
S605 N607 1.610 . S
N606 S605 1.613 . S
N606 C609 1.350 . S
N607 S605 1.610 . S
N607 C608 1.351 . S
C608 C602 1.428 . S
C608 N607 1.351 . S
C608 C609 1.434 . S
C609 C600 1.429 . S
C609 N606 1.350 . S
C609 C608 1.434 . S
C610 C611 1.369 . S
C610 C612 1.419 . S
C610 H614 0.930 . S
C611 C610 1.369 . S
C611 C620 1.429 . S
C612 C610 1.419 . S
C612 C613 1.363 . S
C612 H615 0.929 . S
C613 C612 1.363 . S
C613 C619 1.428 . S
H614 C610 0.930 . S
H615 C612 0.929 . S
S616 N617 1.613 . S
S616 N618 1.610 . S
N617 S616 1.613 . S
N617 C620 1.350 . S
N618 S616 1.610 . S
N618 C619 1.351 . S
C619 C613 1.428 . S
C619 N618 1.351 . S
C619 C620 1.434 . S
C620 C611 1.429 . S
C620 N617 1.350 . S
C620 C619 1.434 . S
C621 C622 1.369 . S
C621 C623 1.419 . S
C621 H625 0.930 . S
C622 C621 1.369 . S
C622 C631 1.429 . S
C623 C621 1.419 . S
C623 C624 1.363 . S
C623 H626 0.929 1_556 S
C624 C623 1.363 . S
C624 C630 1.428 . S
H625 C621 0.930 . S
H626 C623 0.929 1_554 S
S627 N628 1.613 . S
S627 N629 1.610 . S
N628 S627 1.613 . S
N628 C631 1.350 . S
N629 S627 1.610 . S
N629 C630 1.351 . S
C630 C624 1.428 . S
C630 N629 1.351 . S
C630 C631 1.434 . S
C631 C622 1.429 . S
C631 N628 1.350 . S
C631 C630 1.434 . S
C632 C633 1.369 . S
C632 C634 1.419 . S
C632 H636 0.930 . S
C633 C632 1.369 . S
C633 C642 1.429 . S
C634 C632 1.419 . S
C634 C635 1.363 . S
C634 H637 0.929 . S
C635 C634 1.363 . S
C635 C641 1.428 . S
H636 C632 0.930 . S
H637 C634 0.929 . S
S638 N639 1.613 . S
S638 N640 1.610 . S
N639 S638 1.613 . S
N639 C642 1.350 . S
N640 S638 1.610 . S
N640 C641 1.351 . S
C641 C635 1.428 . S
C641 N640 1.351 . S
C641 C642 1.434 . S
C642 C633 1.429 . S
C642 N639 1.350 . S
C642 C641 1.434 . S
C643 C644 1.369 . S
C643 C645 1.419 . S
C643 H647 0.930 . S
C644 C643 1.369 . S
C644 C653 1.429 . S
C645 C643 1.419 . S
C645 C646 1.363 . S
C645 H648 0.929 . S
C646 C645 1.363 . S
C646 C652 1.428 . S
H647 C643 0.930 . S
H648 C645 0.929 . S
S649 N650 1.613 . S
S649 N651 1.610 . S
N650 S649 1.613 . S
N650 C653 1.350 . S
N651 S649 1.610 . S
N651 C652 1.351 . S
C652 C646 1.428 . S
C652 N651 1.351 . S
C652 C653 1.434 . S
C653 C644 1.429 . S
C653 N650 1.350 . S
C653 C652 1.434 . S
C654 C655 1.369 . S
C654 C656 1.419 . S
C654 H658 0.930 . S
C655 C654 1.369 . S
C655 C664 1.429 . S
C656 C654 1.419 . S
C656 C657 1.363 . S
C656 H659 0.929 . S
C657 C656 1.363 . S
C657 C663 1.428 . S
H658 C654 0.930 . S
H659 C656 0.929 . S
S660 N661 1.613 . S
S660 N662 1.610 . S
N661 S660 1.613 . S
N661 C664 1.350 . S
N662 S660 1.610 . S
N662 C663 1.351 . S
C663 C657 1.428 . S
C663 N662 1.351 . S
C663 C664 1.434 . S
C664 C655 1.429 . S
C664 N661 1.350 . S
C664 C663 1.434 . S
C665 C666 1.369 . S
C665 C667 1.419 . S
C665 H669 0.930 . S
C666 C665 1.369 . S
C666 C675 1.429 . S
C667 C665 1.419 . S
C667 C668 1.363 . S
C667 H670 0.929 . S
C668 C667 1.363 . S
C668 C674 1.428 . S
H669 C665 0.930 . S
H670 C667 0.929 . S
S671 N672 1.613 . S
S671 N673 1.610 . S
N672 S671 1.613 . S
N672 C675 1.350 . S
N673 S671 1.610 . S
N673 C674 1.351 . S
C674 C668 1.428 . S
C674 N673 1.351 . S
C674 C675 1.434 . S
C675 C666 1.429 . S
C675 N672 1.350 . S
C675 C674 1.434 . S
C676 C677 1.369 . S
C676 C678 1.419 . S
C676 H680 0.930 . S
C677 C676 1.369 . S
C677 C686 1.429 . S
C678 C676 1.419 . S
C678 C679 1.363 . S
C678 H681 0.929 . S
C679 C678 1.363 . S
C679 C685 1.428 . S
H680 C676 0.930 . S
H681 C678 0.929 . S
S682 N683 1.613 . S
S682 N684 1.610 . S
N683 S682 1.613 . S
N683 C686 1.350 . S
N684 S682 1.610 . S
N684 C685 1.351 . S
C685 C679 1.428 . S
C685 N684 1.351 . S
C685 C686 1.434 . S
C686 C677 1.429 . S
C686 N683 1.350 . S
C686 C685 1.434 . S
C687 C688 1.369 . S
C687 C689 1.419 . S
C687 H691 0.930 . S
C688 C687 1.369 . S
C688 C697 1.429 . S
C689 C687 1.419 . S
C689 C690 1.363 . S
C689 H692 0.929 . S
C690 C689 1.363 . S
C690 C696 1.428 . S
H691 C687 0.930 . S
H692 C689 0.929 . S
S693 N694 1.613 . S
S693 N695 1.610 . S
N694 S693 1.613 . S
N694 C697 1.350 . S
N695 S693 1.610 . S
N695 C696 1.351 . S
C696 C690 1.428 . S
C696 N695 1.351 . S
C696 C697 1.434 . S
C697 C688 1.429 . S
C697 N694 1.350 . S
C697 C696 1.434 . S
C698 C699 1.369 1_554 S
C698 C700 1.419 1_554 S
C698 H702 0.930 . S
C699 C698 1.369 1_556 S
C699 C708 1.429 . S
C700 C698 1.419 1_556 S
C700 C701 1.363 . S
C700 H703 0.929 . S
C701 C700 1.363 . S
C701 C707 1.428 . S
H702 C698 0.930 . S
H703 C700 0.929 . S
S704 N705 1.613 . S
S704 N706 1.610 . S
N705 S704 1.613 . S
N705 C708 1.350 . S
N706 S704 1.610 . S
N706 C707 1.351 . S
C707 C701 1.428 . S
C707 N706 1.351 . S
C707 C708 1.434 . S
C708 C699 1.429 . S
C708 N705 1.350 . S
C708 C707 1.434 . S
C709 C710 1.369 . S
C709 C711 1.419 . S
C709 H713 0.930 . S
C710 C709 1.369 . S
C710 C719 1.429 . S
C711 C709 1.419 . S
C711 C712 1.363 . S
C711 H714 0.929 . S
C712 C711 1.363 . S
C712 C718 1.428 . S
H713 C709 0.930 . S
H714 C711 0.929 . S
S715 N716 1.613 . S
S715 N717 1.610 . S
N716 S715 1.613 . S
N716 C719 1.350 . S
N717 S715 1.610 . S
N717 C718 1.351 . S
C718 C712 1.428 . S
C718 N717 1.351 . S
C718 C719 1.434 . S
C719 C710 1.429 . S
C719 N716 1.350 . S
C719 C718 1.434 . S
C459 C447 1.374 . S
C457 C29 1.588 . S
C468 C115 1.616 . S
C470 C377 1.382 . S
C479 C153 1.519 . S
C481 C397 1.638 . S
C490 C239 1.509 . S
C492 C411 1.516 . S
C503 C419 1.328 . S
C501 C301 1.571 . S
C512 C339 1.768 . S
C514 C433 1.525 . S
C523 C91 1.574 . S
C525 C391 1.379 . S
C534 C177 1.558 . S
C536 C405 1.328 . S
C545 C215 1.496 . S
C547 C425 1.586 . S
C558 C439 1.897 . S
C556 C277 1.755 . S
C569 C453 1.599 . S
C567 C363 1.570 . S
C580 C383 1.570 . S
C578 C53 1.559 . S
C589 C35 1.522 . S
C591 C390 1.541 . S
C600 C109 1.348 . S
C602 C404 1.452 . S
C613 C426 1.438 . S
C611 C159 1.423 . S
C622 C233 1.557 . S
C624 C440 1.728 1_556 S
C635 C454 1.551 . S
C633 C295 1.344 . S
C646 C384 1.326 . S
C644 C345 1.312 . S
C657 C446 1.419 . S
C655 C97 1.423 . S
C666 C171 1.337 . S
C668 C376 1.446 . S
C679 C398 1.551 . S
C677 C221 1.513 . S
C688 C283 1.369 . S
C690 C412 1.382 . S
C699 C357 1.420 1_556 S
C701 C418 1.542 . S
C710 C47 1.589 . S
C712 C432 1.711 . S
