# Generated by pormake.
# Topology rtl, (3,6)-cn, num edge types: 1
# Building blocks:
#     Node 0, Type 0, BuildingBlock: QEWDON_clean_linker_0, # of connection points: 3
#     Node 1, Type 0, BuildingBlock: QEWDON_clean_linker_0, # of connection points: 3
#     Node 2, Type 0, BuildingBlock: QEWDON_clean_linker_0, # of connection points: 3
#     Node 3, Type 0, BuildingBlock: QEWDON_clean_linker_0, # of connection points: 3
#     Node 4, Type 1, BuildingBlock: LEVNOQ01_clean_sbu_1, # of connection points: 6
#     Node 5, Type 1, BuildingBlock: LEVNOQ01_clean_sbu_1, # of connection points: 6
#     Edge 6, Type (0, 1), BuildingBlock: CIFDUS_clean_linker_0, # of connection points: 2
#     Edge 7, Type (0, 1), BuildingBlock: CIFDUS_clean_linker_0, # of connection points: 2
#     Edge 8, Type (0, 1), BuildingBlock: CIFDUS_clean_linker_0, # of connection points: 2
#     Edge 9, Type (0, 1), BuildingBlock: CIFDUS_clean_linker_0, # of connection points: 2
#     Edge 10, Type (0, 1), BuildingBlock: CIFDUS_clean_linker_0, # of connection points: 2
#     Edge 11, Type (0, 1), BuildingBlock: CIFDUS_clean_linker_0, # of connection points: 2
#     Edge 12, Type (0, 1), BuildingBlock: CIFDUS_clean_linker_0, # of connection points: 2
#     Edge 13, Type (0, 1), BuildingBlock: CIFDUS_clean_linker_0, # of connection points: 2
#     Edge 14, Type (0, 1), BuildingBlock: CIFDUS_clean_linker_0, # of connection points: 2
#     Edge 15, Type (0, 1), BuildingBlock: CIFDUS_clean_linker_0, # of connection points: 2
#     Edge 16, Type (0, 1), BuildingBlock: CIFDUS_clean_linker_0, # of connection points: 2
#     Edge 17, Type (0, 1), BuildingBlock: CIFDUS_clean_linker_0, # of connection points: 2
# Relax obj value: 0.038
# Max RMSD: 0.171
# Mean RMSD: 0.135
data_MOF--net-rtl--node1-LEVNOQ01_clean_sbu_1--node2-QEWDON_clean_linker_0--edge1-CIFDUS_clean_linker_0
_symmetry_space_group_name_H-M    P1
_symmetry_Int_Tables_number       1
_symmetry_cell_setting            triclinic
loop_
_symmetry_equiv_pos_as_xyz
'x, y, z'
_cell_length_a     33.37595
_cell_length_b     33.266984
_cell_length_c     19.182823
_cell_angle_alpha  91.611772
_cell_angle_beta   100.70773
_cell_angle_gamma 90.5253
loop_
_atom_site_label
_atom_site_type_symbol
_atom_site_fract_x
_atom_site_fract_y
_atom_site_fract_z
_atom_type_partial_charge
H0 H 0.19517 0.85948 0.22277 0.0
C1 C 0.18637 0.8647 0.16651 0.0
C2 C 0.1522 0.88817 0.14251 0.0
C3 C 0.2101 0.84882 0.11947 0.0
H4 H 0.1145 0.91276 0.05047 0.0
C5 C 0.14004 0.89353 0.06923 0.0
C6 C 0.16249 0.87684 0.02044 0.0
C7 C 0.19763 0.85448 0.04618 0.0
C8 C 0.24968 0.82977 0.14869 0.0
H9 H 0.21605 0.84283 0.00948 0.0
C10 C 0.26296 0.79497 0.11668 0.0
C11 C 0.30081 0.77767 0.14503 0.0
C12 C 0.27478 0.84708 0.20947 0.0
H13 H 0.26605 0.87437 0.23455 0.0
C14 C 0.31188 0.82993 0.23806 0.0
H15 H 0.24368 0.78121 0.07032 0.0
C16 C 0.32492 0.7956 0.20617 0.0
H17 H 0.35459 0.78389 0.22831 0.0
H18 H 0.33096 0.84373 0.28454 0.0
H19 H 0.73618 0.69156 0.4913 0.0
C20 C 0.72204 0.67759 0.53116 0.0
C21 C 0.68279 0.65982 0.51182 0.0
C22 C 0.74319 0.67688 0.60201 0.0
H23 H 0.6355 0.62686 0.55016 0.0
C24 C 0.66528 0.64125 0.56426 0.0
C25 C 0.6857 0.64095 0.63494 0.0
C26 C 0.72439 0.65894 0.65332 0.0
C27 C 0.78479 0.69479 0.62454 0.0
H28 H 0.74001 0.6589 0.70819 0.0
C29 C 0.79433 0.73359 0.60437 0.0
C30 C 0.83184 0.75282 0.63474 0.0
C31 C 0.81416 0.67416 0.67199 0.0
H32 H 0.80806 0.64397 0.68745 0.0
C33 C 0.85128 0.69253 0.70153 0.0
H34 H 0.77201 0.74887 0.56641 0.0
C35 C 0.8598 0.7317 0.68434 0.0
H36 H 0.88818 0.7454 0.71127 0.0
H37 H 0.87324 0.67664 0.73925 0.0
H38 H 0.77152 0.19997 0.07546 0.0
C39 C 0.79215 0.18875 0.04229 0.0
C40 C 0.83105 0.17553 0.07416 0.0
C41 C 0.77911 0.18608 0.96804 0.0
H42 H 0.88717 0.15048 0.05423 0.0
C43 C 0.85725 0.16071 0.03029 0.0
C44 C 0.84474 0.15702 0.95627 0.0
C45 C 0.80564 0.17008 0.92571 0.0
C46 C 0.73716 0.19834 0.93483 0.0
H47 H 0.79545 0.16718 0.86884 0.0
C48 C 0.71945 0.23265 0.96032 0.0
C49 C 0.67942 0.24386 0.93051 0.0
C50 C 0.71432 0.17555 0.8779 0.0
H51 H 0.72654 0.1485 0.85768 0.0
C52 C 0.67496 0.18693 0.84721 0.0
H53 H 0.73706 0.251 0.00297 0.0
C54 C 0.65751 0.22081 0.87327 0.0
H55 H 0.62655 0.22837 0.84974 0.0
H56 H 0.65766 0.16906 0.80364 0.0
H57 H 0.33198 0.3167 0.56209 0.0
C58 C 0.34023 0.33452 0.52033 0.0
C59 C 0.35945 0.37226 0.53739 0.0
C60 C 0.3324 0.31951 0.44947 0.0
H61 H 0.38593 0.42362 0.49619 0.0
C62 C 0.37079 0.3947 0.48306 0.0
C63 C 0.36432 0.37987 0.41268 0.0
C64 C 0.34453 0.34249 0.39619 0.0
C65 C 0.31341 0.27906 0.43076 0.0
H66 H 0.33945 0.3307 0.34199 0.0
C67 C 0.27858 0.26682 0.45678 0.0
C68 C 0.26046 0.22851 0.43807 0.0
C69 C 0.32998 0.25256 0.38561 0.0
H70 H 0.35706 0.26087 0.36547 0.0
C71 C 0.31222 0.21479 0.36674 0.0
H72 H 0.26527 0.28742 0.49051 0.0
C73 C 0.27782 0.20275 0.39275 0.0
H74 H 0.26549 0.17278 0.37867 0.0
H75 H 0.32546 0.19455 0.33238 0.0
O76 O 0.01852 0.07726 0.71043 0.0
Mg77 Mg 0.0591 0.06023 0.64264 0.0
O78 O 0.97011 0.06766 0.61728 0.0
Mg79 Mg 1.00271 0.03175 0.53934 0.0
O80 O 0.05683 0.08051 0.54105 0.0
O81 O 0.09615 0.10723 0.63978 0.0
O82 O 0.02898 0.9963 0.45311 0.0
O83 O 0.97203 0.07764 0.45157 0.0
Mg84 Mg 0.93515 0.01113 0.45025 0.0
O85 O 0.95168 0.98112 0.54085 0.0
O86 O 0.97178 0.9953 0.3735 0.0
O87 O 0.90813 0.06762 0.45453 0.0
O88 O 0.89439 0.9677 0.4609 0.0
C89 C 0.07021 0.98162 0.66514 0.0
C90 C 0.98161 0.07994 0.68114 0.0
C91 C 0.08537 0.10581 0.57172 0.0
C92 C 0.00968 0.98822 0.39017 0.0
C93 C 0.93522 0.0894 0.4366 0.0
C94 C 0.91843 0.95986 0.51955 0.0
O95 O 0.09513 0.01058 0.66993 0.0
O96 O 0.03458 0.98549 0.62755 0.0
O97 O 0.60935 0.55156 0.10065 0.0
Mg98 Mg 0.56522 0.50564 0.09899 0.0
O99 O 0.55088 0.57309 0.11727 0.0
Mg100 Mg 0.51026 0.53013 0.02425 0.0
O101 O 0.55046 0.46996 0.01082 0.0
O102 O 0.59707 0.45496 0.10641 0.0
O103 O 0.46615 0.49593 0.93184 0.0
O104 O 0.5524 0.55469 0.94538 0.0
Mg105 Mg 0.48758 0.58487 0.94903 0.0
O106 O 0.46166 0.58323 0.03646 0.0
O107 O 0.4651 0.54622 0.86028 0.0
O108 O 0.54182 0.61856 0.95668 0.0
O109 O 0.44337 0.62497 0.94629 0.0
C110 C 0.4939 0.49526 0.16771 0.0
C111 C 0.58958 0.57767 0.12795 0.0
C112 C 0.57804 0.4459 0.04321 0.0
C113 C 0.45528 0.51033 0.87049 0.0
C114 C 0.56337 0.5909 0.93841 0.0
C115 C 0.43923 0.61249 0.00746 0.0
O116 O 0.53204 0.50132 0.18365 0.0
O117 O 0.47596 0.50005 0.10403 0.0
H118 H 0.19496 0.18176 0.37345 0.0
H119 H 0.2463 0.24289 0.57225 0.0
H120 H 0.19273 0.21462 0.62694 0.0
H121 H 0.13635 0.16748 0.62272 0.0
H122 H 0.08717 0.1013 0.42845 0.0
H123 H 0.13486 0.13679 0.36752 0.0
C124 C 0.1945 0.18889 0.42878 0.0
C125 C 0.22504 0.21433 0.46862 0.0
C126 C 0.16414 0.17147 0.46083 0.0
C127 C 0.22317 0.22392 0.5398 0.0
C128 C 0.19267 0.20744 0.57145 0.0
C129 C 0.13564 0.16093 0.56679 0.0
C130 C 0.10856 0.13132 0.53044 0.0
C131 C 0.16371 0.18048 0.53301 0.0
C132 C 0.10775 0.12385 0.45775 0.0
C133 C 0.13521 0.14395 0.42309 0.0
H134 H 0.34488 0.71413 0.20523 0.0
H135 H 0.29353 0.76323 1.00234 0.0
H136 H 0.32767 0.7123 0.94229 0.0
H137 H 0.37818 0.65983 0.9477 0.0
H138 H 0.43455 0.6131 0.14947 0.0
H139 H 0.39234 0.65726 0.20977 0.0
C140 C 0.34109 0.71368 0.14785 0.0
C141 C 0.31692 0.74294 0.10858 0.0
C142 C 0.36202 0.68504 0.11354 0.0
C143 C 0.31152 0.74107 0.03411 0.0
C144 C 0.33141 0.71215 0.99963 0.0
C145 C 0.38113 0.65896 0.00492 0.0
C146 C 0.40999 0.63373 0.04424 0.0
C147 C 0.35764 0.6849 0.03894 0.0
C148 C 0.41272 0.6324 0.11806 0.0
C149 C 0.38875 0.6578 0.15248 0.0
H150 H 0.90736 0.78745 0.63617 0.0
H151 H 0.77862 0.81454 0.59274 0.0
H152 H 0.79435 0.88125 0.55648 0.0
H153 H 0.84431 0.93119 0.53215 0.0
H154 H 0.97281 0.90738 0.58932 0.0
H155 H 0.95735 0.84075 0.62962 0.0
C156 C 0.88247 0.80794 0.62083 0.0
C157 C 0.84161 0.79486 0.61627 0.0
C158 C 0.89171 0.84724 0.60344 0.0
C159 C 0.81029 0.82247 0.59445 0.0
C160 C 0.81924 0.86113 0.57464 0.0
C161 C 0.86889 0.91161 0.55466 0.0
C162 C 0.90958 0.92384 0.55733 0.0
C163 C 0.85977 0.87363 0.5781 0.0
C164 C 0.94125 0.89858 0.58713 0.0
C165 C 0.93239 0.86038 0.60942 0.0
H166 H 0.63082 0.30162 0.86003 0.0
H167 H 0.68435 0.2639 0.0702 0.0
H168 H 0.65584 0.32192 0.12237 0.0
H169 H 0.61817 0.38395 0.10912 0.0
H170 H 0.56317 0.42322 0.90109 0.0
H171 H 0.58885 0.36315 0.84717 0.0
C172 C 0.63586 0.3059 0.91724 0.0
C173 C 0.66029 0.2787 0.96107 0.0
C174 C 0.61901 0.33937 0.94722 0.0
C175 C 0.6666 0.28482 0.03512 0.0
C176 C 0.65002 0.31782 0.0651 0.0
C177 C 0.61161 0.37949 0.05187 0.0
C178 C 0.58921 0.40826 0.00908 0.0
C179 C 0.62665 0.34544 0.02169 0.0
C180 C 0.58042 0.40153 0.93516 0.0
C181 C 0.59527 0.36733 0.90441 0.0
H182 H 0.07046 0.8991 0.13471 0.0
H183 H 0.18736 0.92549 0.26802 0.0
H184 H 0.15393 0.95818 0.35646 0.0
H185 H 0.09145 0.97902 0.39692 0.0
H186 H 0.97468 0.95511 0.26138 0.0
H187 H 0.00814 0.92249 0.17287 0.0
C188 C 0.08863 0.91233 0.18278 0.0
C189 C 0.13132 0.90922 0.19493 0.0
C190 C 0.06926 0.93169 0.23324 0.0
C191 C 0.15437 0.92645 0.25786 0.0
C192 C 0.13531 0.94548 0.30839 0.0
C193 C 0.07333 0.96669 0.34804 0.0
C194 C 0.03063 0.96943 0.33614 0.0
C195 C 0.09276 0.94808 0.29689 0.0
C196 C 0.00764 0.95353 0.27211 0.0
C197 C 0.02672 0.93474 0.22134 0.0
H198 H 0.68001 0.67359 0.76349 0.0
H199 H 0.64719 0.56773 0.62939 0.0
H200 H 0.61074 0.53998 0.71711 0.0
H201 H 0.58342 0.54867 0.82733 0.0
H202 H 0.61295 0.65671 0.95692 0.0
H203 H 0.65655 0.68029 0.8768 0.0
C204 C 0.66546 0.64415 0.75408 0.0
C205 C 0.66607 0.6228 0.69006 0.0
C206 C 0.64414 0.62875 0.80413 0.0
C207 C 0.64663 0.58492 0.67799 0.0
C208 C 0.62599 0.56899 0.72822 0.0
C209 C 0.60023 0.57689 0.83874 0.0
C210 C 0.59519 0.60096 0.89775 0.0
C211 C 0.62391 0.59097 0.7909 0.0
C212 C 0.61647 0.63778 0.9116 0.0
C213 C 0.64118 0.65135 0.86569 0.0
H214 H 0.90671 0.18703 0.15829 0.0
H215 H 0.78213 0.15493 0.16795 0.0
H216 H 0.80349 0.13374 0.28915 0.0
H217 H 0.85816 0.1121 0.38256 0.0
H218 H 0.98372 0.13504 0.36738 0.0
H219 H 0.9614 0.17178 0.25855 0.0
C220 C 0.88412 0.17558 0.1869 0.0
C221 C 0.84288 0.17186 0.15278 0.0
C222 C 0.89692 0.16112 0.2555 0.0
C223 C 0.814 0.15841 0.19213 0.0
C224 C 0.82628 0.14573 0.2615 0.0
C225 C 0.88078 0.12579 0.35639 0.0
C226 C 0.92261 0.12007 0.38242 0.0
C227 C 0.8678 0.14513 0.29227 0.0
C228 C 0.95135 0.13859 0.34821 0.0
C229 C 0.93858 0.15939 0.28568 0.0
H230 H 0.34637 0.447 0.58546 0.0
H231 H 0.39899 0.33396 0.65524 0.0
H232 H 0.4307 0.36574 0.76954 0.0
H233 H 0.4506 0.42835 0.84324 0.0
H234 H 0.40087 0.54136 0.7651 0.0
H235 H 0.36144 0.50718 0.66079 0.0
C236 C 0.36432 0.42918 0.62613 0.0
C237 C 0.37068 0.38836 0.61169 0.0
C238 C 0.38369 0.44794 0.68995 0.0
C239 C 0.39348 0.36545 0.6652 0.0
C240 C 0.41202 0.38375 0.73022 0.0
C241 C 0.43071 0.44524 0.8037 0.0
C242 C 0.42916 0.48742 0.81149 0.0
C243 C 0.40851 0.42537 0.74227 0.0
C244 C 0.40322 0.50899 0.75986 0.0
C245 C 0.38046 0.48947 0.7002 0.0
H246 H 0.71315 0.6446 0.39101 0.0
H247 H 0.60129 0.6713 0.46391 0.0
H248 H 0.56196 0.65378 0.34654 0.0
H249 H 0.55888 0.6208 0.22903 0.0
H250 H 0.67097 0.59498 0.15615 0.0
H251 H 0.7104 0.62349 0.26639 0.0
C252 C 0.68029 0.64775 0.38078 0.0
C253 C 0.66024 0.65816 0.43692 0.0
C254 C 0.6577 0.6375 0.31299 0.0
C255 C 0.61752 0.66214 0.42231 0.0
C256 C 0.59493 0.65226 0.35503 0.0
C257 C 0.59187 0.62247 0.23639 0.0
C258 C 0.61187 0.60497 0.18492 0.0
C259 C 0.61458 0.63829 0.30075 0.0
C260 C 0.65471 0.60766 0.19529 0.0
C261 C 0.6774 0.6238 0.25859 0.0
H262 H 0.85238 0.17411 0.8199 0.0
H263 H 0.89803 0.09514 0.99121 0.0
H264 H 0.94544 0.06636 0.92276 0.0
H265 H 0.97452 0.06331 0.81451 0.0
H266 H 0.92275 0.13438 0.63666 0.0
H267 H 0.87619 0.16565 0.70661 0.0
C268 C 0.87208 0.15014 0.84211 0.0
C269 C 0.87202 0.13784 0.91184 0.0
C270 C 0.89811 0.13207 0.80105 0.0
C271 C 0.89826 0.10674 0.93915 0.0
C272 C 0.92517 0.08971 0.89963 0.0
C273 C 0.95293 0.08561 0.79128 0.0
C274 C 0.95214 0.09706 0.72131 0.0
C275 C 0.92557 0.10234 0.83084 0.0
C276 C 0.92371 0.12533 0.69076 0.0
C277 C 0.89727 0.14321 0.73072 0.0
H278 H 0.437 0.41942 0.42947 0.0
H279 H 0.32956 0.39035 0.27245 0.0
H280 H 0.35903 0.42541 0.18291 0.0
H281 H 0.41674 0.46265 0.14878 0.0
H282 H 0.52263 0.49233 0.30928 0.0
H283 H 0.49151 0.45993 0.39834 0.0
C284 C 0.41946 0.42142 0.37613 0.0
C285 C 0.38099 0.40235 0.35803 0.0
C286 C 0.43626 0.44196 0.32546 0.0
C287 C 0.35943 0.40435 0.28784 0.0
C288 C 0.37615 0.42464 0.23669 0.0
C289 C 0.43271 0.46247 0.20342 0.0
C290 C 0.4721 0.47968 0.22208 0.0
C291 C 0.41473 0.44335 0.2548 0.0
C292 C 0.49243 0.47909 0.29317 0.0
C293 C 0.47472 0.46048 0.34428 0.0
H294 H 0.08696 0.87707 0.93482 0.0
H295 H 0.21427 0.90116 0.93496 0.0
H296 H 0.19683 0.92916 0.81737 0.0
H297 H 0.14524 0.95601 0.72328 0.0
H298 H 0.01761 0.93464 0.72313 0.0
H299 H 0.03529 0.89566 0.83078 0.0
C300 C 0.11088 0.88796 0.90859 0.0
C301 C 0.15188 0.88734 0.94418 0.0
C302 C 0.10055 0.90469 0.84102 0.0
C303 C 0.18256 0.90098 0.90895 0.0
C304 C 0.17257 0.91732 0.84177 0.0
C305 C 0.12128 0.94196 0.74579 0.0
C306 C 0.08017 0.94869 0.71579 0.0
C307 C 0.13165 0.92057 0.80849 0.0
C308 C 0.04948 0.92993 0.74506 0.0
C309 C 0.05961 0.90803 0.80717 0.0
loop_
_geom_bond_atom_site_label_1
_geom_bond_atom_site_label_2
_geom_bond_distance
_geom_bond_site_symmetry_2
_ccdc_geom_bond_type
H0 C1 0.949 . S
C1 H0 0.949 . S
C1 C2 1.395 . S
C1 C3 1.391 . S
C2 C1 1.395 . S
C2 C5 1.390 . S
C3 C1 1.391 . S
C3 C7 1.392 . S
C3 C8 1.491 . S
H4 C5 0.950 . S
C5 C2 1.390 . S
C5 H4 0.950 . S
C5 C6 1.378 . S
C6 C5 1.378 . S
C6 C7 1.411 . S
C7 C3 1.392 . S
C7 C6 1.411 . S
C7 H9 0.945 1_554 S
C8 C3 1.491 . S
C8 C10 1.382 . S
C8 C12 1.404 . S
H9 C7 0.945 1_556 S
C10 C8 1.382 . S
C10 C11 1.390 . S
C10 H15 0.949 . S
C11 C10 1.390 . S
C11 C16 1.399 . S
C12 C8 1.404 . S
C12 H13 0.950 1_554 S
C12 C14 1.375 . S
H13 C12 0.950 1_556 S
C14 C12 1.375 . S
C14 C16 1.382 . S
C14 H18 0.950 1_554 S
H15 C10 0.949 . S
C16 C11 1.399 . S
C16 C14 1.382 . S
C16 H17 0.952 . S
H17 C16 0.952 . S
H18 C14 0.950 1_556 S
H19 C20 0.949 . S
C20 H19 0.949 . S
C20 C21 1.395 . S
C20 C22 1.391 . S
C21 C20 1.395 . S
C21 C24 1.390 . S
C22 C20 1.391 . S
C22 C26 1.387 . S
C22 C27 1.491 . S
H23 C24 0.950 . S
C24 C21 1.390 . S
C24 H23 0.950 . S
C24 C25 1.378 . S
C25 C24 1.378 . S
C25 C26 1.409 . S
C26 C22 1.387 . S
C26 C25 1.409 . S
C26 H28 0.951 . S
C27 C22 1.491 . S
C27 C29 1.382 . S
C27 C31 1.404 . S
H28 C26 0.951 . S
C29 C27 1.382 . S
C29 C30 1.390 . S
C29 H34 0.949 . S
C30 C29 1.390 . S
C30 C35 1.399 . S
C31 C27 1.404 . S
C31 H32 0.950 . S
C31 C33 1.375 . S
H32 C31 0.950 . S
C33 C31 1.375 . S
C33 C35 1.382 . S
C33 H37 0.950 . S
H34 C29 0.949 . S
C35 C30 1.399 . S
C35 C33 1.382 . S
C35 H36 0.952 . S
H36 C35 0.952 . S
H37 C33 0.950 . S
H38 C39 0.949 . S
C39 H38 0.949 . S
C39 C40 1.395 . S
C39 C41 1.391 1_554 S
C40 C39 1.395 . S
C40 C43 1.391 1_554 S
C41 C39 1.391 1_556 S
C41 C45 1.387 . S
C41 C46 1.491 . S
H42 C43 0.950 1_554 S
C43 C40 1.391 1_556 S
C43 H42 0.950 1_556 S
C43 C44 1.377 . S
C44 C43 1.377 . S
C44 C45 1.409 . S
C45 C41 1.387 . S
C45 C44 1.409 . S
C45 H47 0.951 . S
C46 C41 1.491 . S
C46 C48 1.392 . S
C46 C50 1.404 . S
H47 C45 0.951 . S
C48 C46 1.392 . S
C48 C49 1.391 . S
C48 H53 0.938 1_556 S
C49 C48 1.391 . S
C49 C54 1.399 . S
C50 C46 1.404 . S
C50 H51 0.950 . S
C50 C52 1.375 . S
H51 C50 0.950 . S
C52 C50 1.375 . S
C52 C54 1.382 . S
C52 H56 0.950 . S
H53 C48 0.938 1_554 S
C54 C49 1.399 . S
C54 C52 1.382 . S
C54 H55 0.952 . S
H55 C54 0.952 . S
H56 C52 0.950 . S
H57 C58 0.949 . S
C58 H57 0.949 . S
C58 C59 1.395 . S
C58 C60 1.391 . S
C59 C58 1.395 . S
C59 C62 1.390 . S
C60 C58 1.391 . S
C60 C64 1.387 . S
C60 C65 1.491 . S
H61 C62 0.950 . S
C62 C59 1.390 . S
C62 H61 0.950 . S
C62 C63 1.378 . S
C63 C62 1.378 . S
C63 C64 1.409 . S
C64 C60 1.387 . S
C64 C63 1.409 . S
C64 H66 0.951 . S
C65 C60 1.491 . S
C65 C67 1.382 . S
C65 C69 1.404 . S
H66 C64 0.951 . S
C67 C65 1.382 . S
C67 C68 1.390 . S
C67 H72 0.949 . S
C68 C67 1.390 . S
C68 C73 1.399 . S
C69 C65 1.404 . S
C69 H70 0.950 . S
C69 C71 1.375 . S
H70 C69 0.950 . S
C71 C69 1.375 . S
C71 C73 1.382 . S
C71 H75 0.950 . S
H72 C67 0.949 . S
C73 C68 1.399 . S
C73 C71 1.382 . S
C73 H74 0.952 . S
H74 C73 0.952 . S
H75 C71 0.950 . S
O76 Mg77 1.990 . S
O76 C90 1.253 1_455 S
Mg77 O76 1.990 . S
Mg77 O80 2.180 . S
Mg77 O81 2.117 . S
Mg77 O95 2.030 . S
O78 Mg79 2.072 1_655 S
O78 C90 1.260 . S
Mg79 O78 2.072 1_455 S
Mg79 O80 2.099 . S
Mg79 O82 2.079 1_545 S
Mg79 O83 2.072 1_455 S
Mg79 O85 2.099 1_445 S
Mg79 O96 2.079 1_545 S
O80 Mg77 2.180 . S
O80 Mg79 2.099 . S
O80 C91 1.279 . S
O81 Mg77 2.117 . S
O81 C91 1.250 . S
O82 Mg79 2.079 1_565 S
O82 C92 1.264 . S
O83 Mg79 2.072 1_655 S
O83 C93 1.260 . S
Mg84 O85 2.180 . S
Mg84 O86 2.030 1_655 S
Mg84 O87 1.990 1_565 S
Mg84 O88 2.117 . S
O85 Mg79 2.099 1_665 S
O85 Mg84 2.180 . S
O85 C94 1.279 . S
O86 Mg84 2.030 1_455 S
O86 C92 1.248 . S
O87 Mg84 1.990 1_545 S
O87 C93 1.253 . S
O88 Mg84 2.117 . S
O88 C94 1.250 . S
C89 O95 1.248 1_565 S
C89 O96 1.264 . S
C90 O76 1.253 1_655 S
C90 O78 1.260 . S
C91 O80 1.279 . S
C91 O81 1.250 . S
C92 O82 1.264 . S
C92 O86 1.248 . S
C93 O83 1.260 . S
C93 O87 1.253 . S
C94 O85 1.279 . S
C94 O88 1.250 . S
O95 Mg77 2.030 . S
O95 C89 1.248 1_545 S
O96 Mg79 2.079 1_565 S
O96 C89 1.264 . S
O97 Mg98 1.990 . S
O97 C111 1.253 . S
Mg98 O97 1.990 . S
Mg98 O101 2.180 . S
Mg98 O102 2.117 . S
Mg98 O116 2.030 . S
O99 Mg100 2.072 . S
O99 C111 1.260 . S
Mg100 O99 2.072 . S
Mg100 O101 2.099 . S
Mg100 O103 2.079 1_554 S
Mg100 O104 2.072 1_554 S
Mg100 O106 2.099 . S
Mg100 O117 2.079 . S
O101 Mg98 2.180 . S
O101 Mg100 2.099 . S
O101 C112 1.279 . S
O102 Mg98 2.117 . S
O102 C112 1.250 . S
O103 Mg100 2.079 1_556 S
O103 C113 1.264 . S
O104 Mg100 2.072 1_556 S
O104 C114 1.260 . S
Mg105 O106 2.180 1_556 S
Mg105 O107 2.030 . S
Mg105 O108 1.990 . S
Mg105 O109 2.117 . S
O106 Mg100 2.099 . S
O106 Mg105 2.180 1_554 S
O106 C115 1.279 . S
O107 Mg105 2.030 . S
O107 C113 1.248 . S
O108 Mg105 1.990 . S
O108 C114 1.253 . S
O109 Mg105 2.117 . S
O109 C115 1.250 1_556 S
C110 O116 1.248 . S
C110 O117 1.264 . S
C111 O97 1.253 . S
C111 O99 1.260 . S
C112 O101 1.279 . S
C112 O102 1.250 . S
C113 O103 1.264 . S
C113 O107 1.248 . S
C114 O104 1.260 . S
C114 O108 1.253 . S
C115 O106 1.279 . S
C115 O109 1.250 1_554 S
O116 Mg98 2.030 . S
O116 C110 1.248 . S
O117 Mg100 2.079 . S
O117 C110 1.264 . S
H118 C124 0.930 . S
H119 C127 0.930 . S
H120 C128 0.930 . S
H121 C129 0.930 . S
H122 C132 0.930 . S
H123 C133 0.930 . S
C124 H118 0.930 . S
C124 C125 1.355 . S
C124 C126 1.415 . S
C125 C124 1.355 . S
C125 C127 1.419 . S
C126 C124 1.415 . S
C126 C131 1.425 . S
C126 C133 1.409 . S
C127 H119 0.930 . S
C127 C125 1.419 . S
C127 C128 1.362 . S
C128 H120 0.930 . S
C128 C127 1.362 . S
C128 C131 1.409 . S
C129 H121 0.930 . S
C129 C130 1.355 . S
C129 C131 1.415 . S
C130 C129 1.355 . S
C130 C132 1.419 . S
C131 C126 1.425 . S
C131 C128 1.409 . S
C131 C129 1.415 . S
C132 H122 0.930 . S
C132 C130 1.419 . S
C132 C133 1.362 . S
C133 H123 0.930 . S
C133 C126 1.409 . S
C133 C132 1.362 . S
H134 C140 0.930 . S
H135 C143 0.930 . S
H136 C144 0.930 . S
H137 C145 0.930 . S
H138 C148 0.930 . S
H139 C149 0.930 . S
C140 H134 0.930 . S
C140 C141 1.355 . S
C140 C142 1.415 . S
C141 C140 1.355 . S
C141 C143 1.419 . S
C142 C140 1.415 . S
C142 C147 1.425 . S
C142 C149 1.409 . S
C143 H135 0.930 . S
C143 C141 1.419 . S
C143 C144 1.362 . S
C144 H136 0.930 . S
C144 C143 1.362 . S
C144 C147 1.409 . S
C145 H137 0.930 . S
C145 C146 1.355 . S
C145 C147 1.415 . S
C146 C145 1.355 . S
C146 C148 1.419 . S
C147 C142 1.425 . S
C147 C144 1.409 . S
C147 C145 1.415 . S
C148 H138 0.930 . S
C148 C146 1.419 . S
C148 C149 1.362 . S
C149 H139 0.930 . S
C149 C142 1.409 . S
C149 C148 1.362 . S
H150 C156 0.930 . S
H151 C159 0.930 . S
H152 C160 0.930 . S
H153 C161 0.930 . S
H154 C164 0.930 . S
H155 C165 0.930 . S
C156 H150 0.930 . S
C156 C157 1.355 . S
C156 C158 1.415 . S
C157 C156 1.355 . S
C157 C159 1.419 . S
C158 C156 1.415 . S
C158 C163 1.425 . S
C158 C165 1.409 . S
C159 H151 0.930 . S
C159 C157 1.419 . S
C159 C160 1.362 . S
C160 H152 0.930 . S
C160 C159 1.362 . S
C160 C163 1.409 . S
C161 H153 0.930 . S
C161 C162 1.355 . S
C161 C163 1.415 . S
C162 C161 1.355 . S
C162 C164 1.419 . S
C163 C158 1.425 . S
C163 C160 1.409 . S
C163 C161 1.415 . S
C164 H154 0.930 . S
C164 C162 1.419 . S
C164 C165 1.362 . S
C165 H155 0.930 . S
C165 C158 1.409 . S
C165 C164 1.362 . S
H166 C172 0.930 . S
H167 C175 0.930 . S
H168 C176 0.930 . S
H169 C177 0.930 . S
H170 C180 0.930 . S
H171 C181 0.930 . S
C172 H166 0.930 . S
C172 C173 1.355 . S
C172 C174 1.415 . S
C173 C172 1.355 . S
C173 C175 1.419 1_554 S
C174 C172 1.415 . S
C174 C179 1.425 . S
C174 C181 1.409 . S
C175 H167 0.930 . S
C175 C173 1.419 1_556 S
C175 C176 1.362 . S
C176 H168 0.930 . S
C176 C175 1.362 . S
C176 C179 1.409 1_556 S
C177 H169 0.930 . S
C177 C178 1.355 1_556 S
C177 C179 1.415 1_556 S
C178 C177 1.355 1_554 S
C178 C180 1.419 . S
C179 C174 1.425 . S
C179 C176 1.409 1_554 S
C179 C177 1.415 1_554 S
C180 H170 0.930 . S
C180 C178 1.419 . S
C180 C181 1.362 . S
C181 H171 0.930 . S
C181 C174 1.409 . S
C181 C180 1.362 . S
H182 C188 0.930 . S
H183 C191 0.930 . S
H184 C192 0.930 . S
H185 C193 0.930 . S
H186 C196 0.930 . S
H187 C197 0.930 . S
C188 H182 0.930 . S
C188 C189 1.355 . S
C188 C190 1.415 . S
C189 C188 1.355 . S
C189 C191 1.419 . S
C190 C188 1.415 . S
C190 C195 1.425 . S
C190 C197 1.409 . S
C191 H183 0.930 . S
C191 C189 1.419 . S
C191 C192 1.362 . S
C192 H184 0.930 . S
C192 C191 1.362 . S
C192 C195 1.409 . S
C193 H185 0.930 . S
C193 C194 1.355 . S
C193 C195 1.415 . S
C194 C193 1.355 . S
C194 C196 1.419 . S
C195 C190 1.425 . S
C195 C192 1.409 . S
C195 C193 1.415 . S
C196 H186 0.930 . S
C196 C194 1.419 . S
C196 C197 1.362 . S
C197 H187 0.930 . S
C197 C190 1.409 . S
C197 C196 1.362 . S
H198 C204 0.930 . S
H199 C207 0.930 . S
H200 C208 0.930 . S
H201 C209 0.930 . S
H202 C212 0.930 . S
H203 C213 0.930 . S
C204 H198 0.930 . S
C204 C205 1.355 . S
C204 C206 1.415 . S
C205 C204 1.355 . S
C205 C207 1.419 . S
C206 C204 1.415 . S
C206 C211 1.425 . S
C206 C213 1.409 . S
C207 H199 0.930 . S
C207 C205 1.419 . S
C207 C208 1.362 . S
C208 H200 0.930 . S
C208 C207 1.362 . S
C208 C211 1.409 . S
C209 H201 0.930 . S
C209 C210 1.355 . S
C209 C211 1.415 . S
C210 C209 1.355 . S
C210 C212 1.419 . S
C211 C206 1.425 . S
C211 C208 1.409 . S
C211 C209 1.415 . S
C212 H202 0.930 . S
C212 C210 1.419 . S
C212 C213 1.362 . S
C213 H203 0.930 . S
C213 C206 1.409 . S
C213 C212 1.362 . S
H214 C220 0.930 . S
H215 C223 0.930 . S
H216 C224 0.930 . S
H217 C225 0.930 . S
H218 C228 0.930 . S
H219 C229 0.930 . S
C220 H214 0.930 . S
C220 C221 1.355 . S
C220 C222 1.415 . S
C221 C220 1.355 . S
C221 C223 1.419 . S
C222 C220 1.415 . S
C222 C227 1.425 . S
C222 C229 1.409 . S
C223 H215 0.930 . S
C223 C221 1.419 . S
C223 C224 1.362 . S
C224 H216 0.930 . S
C224 C223 1.362 . S
C224 C227 1.409 . S
C225 H217 0.930 . S
C225 C226 1.355 . S
C225 C227 1.415 . S
C226 C225 1.355 . S
C226 C228 1.419 . S
C227 C222 1.425 . S
C227 C224 1.409 . S
C227 C225 1.415 . S
C228 H218 0.930 . S
C228 C226 1.419 . S
C228 C229 1.362 . S
C229 H219 0.930 . S
C229 C222 1.409 . S
C229 C228 1.362 . S
H230 C236 0.930 . S
H231 C239 0.930 . S
H232 C240 0.930 . S
H233 C241 0.930 . S
H234 C244 0.930 . S
H235 C245 0.930 . S
C236 H230 0.930 . S
C236 C237 1.355 . S
C236 C238 1.415 . S
C237 C236 1.355 . S
C237 C239 1.419 . S
C238 C236 1.415 . S
C238 C243 1.425 . S
C238 C245 1.409 . S
C239 H231 0.930 . S
C239 C237 1.419 . S
C239 C240 1.362 . S
C240 H232 0.930 . S
C240 C239 1.362 . S
C240 C243 1.409 . S
C241 H233 0.930 . S
C241 C242 1.355 . S
C241 C243 1.415 . S
C242 C241 1.355 . S
C242 C244 1.419 . S
C243 C238 1.425 . S
C243 C240 1.409 . S
C243 C241 1.415 . S
C244 H234 0.930 . S
C244 C242 1.419 . S
C244 C245 1.362 . S
C245 H235 0.930 . S
C245 C238 1.409 . S
C245 C244 1.362 . S
H246 C252 0.930 . S
H247 C255 0.930 . S
H248 C256 0.930 . S
H249 C257 0.930 . S
H250 C260 0.930 . S
H251 C261 0.930 . S
C252 H246 0.930 . S
C252 C253 1.355 . S
C252 C254 1.415 . S
C253 C252 1.355 . S
C253 C255 1.419 . S
C254 C252 1.415 . S
C254 C259 1.425 . S
C254 C261 1.409 . S
C255 H247 0.930 . S
C255 C253 1.419 . S
C255 C256 1.362 . S
C256 H248 0.930 . S
C256 C255 1.362 . S
C256 C259 1.409 . S
C257 H249 0.930 . S
C257 C258 1.355 . S
C257 C259 1.415 . S
C258 C257 1.355 . S
C258 C260 1.419 . S
C259 C254 1.425 . S
C259 C256 1.409 . S
C259 C257 1.415 . S
C260 H250 0.930 . S
C260 C258 1.419 . S
C260 C261 1.362 . S
C261 H251 0.930 . S
C261 C254 1.409 . S
C261 C260 1.362 . S
H262 C268 0.930 . S
H263 C271 0.930 . S
H264 C272 0.930 . S
H265 C273 0.930 . S
H266 C276 0.930 . S
H267 C277 0.930 . S
C268 H262 0.930 . S
C268 C269 1.355 . S
C268 C270 1.415 . S
C269 C268 1.355 . S
C269 C271 1.419 . S
C270 C268 1.415 . S
C270 C275 1.425 . S
C270 C277 1.409 . S
C271 H263 0.930 . S
C271 C269 1.419 . S
C271 C272 1.362 . S
C272 H264 0.930 . S
C272 C271 1.362 . S
C272 C275 1.409 . S
C273 H265 0.930 . S
C273 C274 1.355 . S
C273 C275 1.415 . S
C274 C273 1.355 . S
C274 C276 1.419 . S
C275 C270 1.425 . S
C275 C272 1.409 . S
C275 C273 1.415 . S
C276 H266 0.930 . S
C276 C274 1.419 . S
C276 C277 1.362 . S
C277 H267 0.930 . S
C277 C270 1.409 . S
C277 C276 1.362 . S
H278 C284 0.930 . S
H279 C287 0.930 . S
H280 C288 0.930 . S
H281 C289 0.930 . S
H282 C292 0.930 . S
H283 C293 0.930 . S
C284 H278 0.930 . S
C284 C285 1.355 . S
C284 C286 1.415 . S
C285 C284 1.355 . S
C285 C287 1.419 . S
C286 C284 1.415 . S
C286 C291 1.425 . S
C286 C293 1.409 . S
C287 H279 0.930 . S
C287 C285 1.419 . S
C287 C288 1.362 . S
C288 H280 0.930 . S
C288 C287 1.362 . S
C288 C291 1.409 . S
C289 H281 0.930 . S
C289 C290 1.355 . S
C289 C291 1.415 . S
C290 C289 1.355 . S
C290 C292 1.419 . S
C291 C286 1.425 . S
C291 C288 1.409 . S
C291 C289 1.415 . S
C292 H282 0.930 . S
C292 C290 1.419 . S
C292 C293 1.362 . S
C293 H283 0.930 . S
C293 C286 1.409 . S
C293 C292 1.362 . S
H294 C300 0.930 . S
H295 C303 0.930 . S
H296 C304 0.930 . S
H297 C305 0.930 . S
H298 C308 0.930 . S
H299 C309 0.930 . S
C300 H294 0.930 . S
C300 C301 1.355 . S
C300 C302 1.415 . S
C301 C300 1.355 . S
C301 C303 1.419 . S
C302 C300 1.415 . S
C302 C307 1.425 . S
C302 C309 1.409 . S
C303 H295 0.930 . S
C303 C301 1.419 . S
C303 C304 1.362 . S
C304 H296 0.930 . S
C304 C303 1.362 . S
C304 C307 1.409 . S
C305 H297 0.930 . S
C305 C306 1.355 . S
C305 C307 1.415 . S
C306 C305 1.355 . S
C306 C308 1.419 . S
C307 C302 1.425 . S
C307 C304 1.409 . S
C307 C305 1.415 . S
C308 H298 0.930 . S
C308 C306 1.419 . S
C308 C309 1.362 . S
C309 H299 0.930 . S
C309 C302 1.409 . S
C309 C308 1.362 . S
C130 C91 1.281 . S
C125 C68 1.350 . S
C141 C11 1.394 . S
C146 C115 1.357 . S
C157 C30 1.536 . S
C162 C94 1.398 . S
C173 C49 1.473 1_554 S
C178 C112 1.390 . S
C194 C92 1.526 . S
C189 C2 1.545 . S
C210 C114 1.564 . S
C205 C25 1.641 . S
C221 C40 1.607 . S
C226 C93 1.618 . S
C237 C59 1.533 . S
C242 C113 1.467 . S
C258 C111 1.465 . S
C253 C21 1.516 . S
C274 C90 1.461 . S
C269 C44 1.544 . S
C290 C110 1.413 . S
C285 C63 1.483 . S
C301 C6 1.487 1_556 S
C306 C89 1.456 . S
