# Generated by pormake.
# Topology zzz, (3,6)-cn, num edge types: 1
# Building blocks:
#     Node 0, Type 0, BuildingBlock: BELTOD_clean_linker_0, # of connection points: 3
#     Node 1, Type 0, BuildingBlock: BELTOD_clean_linker_0, # of connection points: 3
#     Node 2, Type 0, BuildingBlock: BELTOD_clean_linker_0, # of connection points: 3
#     Node 3, Type 0, BuildingBlock: BELTOD_clean_linker_0, # of connection points: 3
#     Node 4, Type 0, BuildingBlock: BELTOD_clean_linker_0, # of connection points: 3
#     Node 5, Type 0, BuildingBlock: BELTOD_clean_linker_0, # of connection points: 3
#     Node 6, Type 0, BuildingBlock: BELTOD_clean_linker_0, # of connection points: 3
#     Node 7, Type 0, BuildingBlock: BELTOD_clean_linker_0, # of connection points: 3
#     Node 8, Type 1, BuildingBlock: CUKXOW_clean_sbu_0, # of connection points: 6
#     Node 9, Type 1, BuildingBlock: CUKXOW_clean_sbu_0, # of connection points: 6
#     Node 10, Type 1, BuildingBlock: CUKXOW_clean_sbu_0, # of connection points: 6
#     Node 11, Type 1, BuildingBlock: CUKXOW_clean_sbu_0, # of connection points: 6
#     Edge 12, Type (0, 1), None
#     Edge 13, Type (0, 1), None
#     Edge 14, Type (0, 1), None
#     Edge 15, Type (0, 1), None
#     Edge 16, Type (0, 1), None
#     Edge 17, Type (0, 1), None
#     Edge 18, Type (0, 1), None
#     Edge 19, Type (0, 1), None
#     Edge 20, Type (0, 1), None
#     Edge 21, Type (0, 1), None
#     Edge 22, Type (0, 1), None
#     Edge 23, Type (0, 1), None
#     Edge 24, Type (0, 1), None
#     Edge 25, Type (0, 1), None
#     Edge 26, Type (0, 1), None
#     Edge 27, Type (0, 1), None
#     Edge 28, Type (0, 1), None
#     Edge 29, Type (0, 1), None
#     Edge 30, Type (0, 1), None
#     Edge 31, Type (0, 1), None
#     Edge 32, Type (0, 1), None
#     Edge 33, Type (0, 1), None
#     Edge 34, Type (0, 1), None
#     Edge 35, Type (0, 1), None
# Relax obj value: 0.180
# Max RMSD: 0.216
# Mean RMSD: 0.171
data_MOF--net-zzz--node1-CUKXOW_clean_sbu_0--node2-BELTOD_clean_linker_0--edge1-none
_symmetry_space_group_name_H-M    P1
_symmetry_Int_Tables_number       1
_symmetry_cell_setting            triclinic
loop_
_symmetry_equiv_pos_as_xyz
'x, y, z'
_cell_length_a     27.173699
_cell_length_b     28.416305
_cell_length_c     10.318701
_cell_angle_alpha  94.803433
_cell_angle_beta   86.838785
_cell_angle_gamma 96.893469
loop_
_atom_site_label
_atom_site_type_symbol
_atom_site_fract_x
_atom_site_fract_y
_atom_site_fract_z
_atom_type_partial_charge
P0 P 0.74573 0.39328 0.09091 0.0
H1 H 0.7754 0.33308 0.28015 0.0
H2 H 0.82522 0.35691 0.46874 0.0
H3 H 0.79125 0.50108 0.46007 0.0
H4 H 0.73858 0.47632 0.27603 0.0
H5 H 0.74069 0.46388 0.89901 0.0
H6 H 0.67057 0.49624 0.81395 0.0
H7 H 0.5703 0.41618 0.07714 0.0
H8 H 0.64068 0.38465 0.16245 0.0
H9 H 0.81561 0.3467 0.91077 0.0
H10 H 0.81012 0.48442 0.11857 0.0
O11 O 0.73251 0.33506 0.05265 0.0
H12 H 0.9026 0.36971 0.84543 0.0
H13 H 0.89805 0.50589 0.06126 0.0
C14 C 0.75395 0.40312 0.26289 0.0
C15 C 0.77581 0.36911 0.32396 0.0
C16 C 0.80471 0.38288 0.43139 0.0
C17 C 0.81306 0.43105 0.47585 0.0
C18 C 0.7857 0.46378 0.42616 0.0
C19 C 0.75534 0.44955 0.32157 0.0
C20 C 0.69585 0.42228 0.0381 0.0
C21 C 0.70372 0.45394 0.93983 0.0
C22 C 0.6635 0.47224 0.89081 0.0
C23 C 0.6147 0.45859 0.93802 0.0
C24 C 0.60726 0.42725 0.03772 0.0
C25 C 0.64749 0.40942 0.08739 0.0
C26 C 0.80626 0.41348 0.02121 0.0
C27 C 0.83287 0.3818 0.94241 0.0
C28 C 0.88271 0.3947 0.90662 0.0
C29 C 0.90706 0.4389 0.95215 0.0
C30 C 0.88031 0.47106 0.02845 0.0
C31 C 0.82997 0.45879 0.06046 0.0
P32 P 0.99074 0.75069 0.12251 0.0
H33 H 0.97512 0.73314 0.39868 0.0
H34 H 0.9618 0.79434 0.57237 0.0
H35 H 0.90212 0.87672 0.29845 0.0
H36 H 0.9133 0.81419 0.12611 0.0
H37 H 0.0319 0.71971 0.8716 0.0
H38 H 0.0192 0.64669 0.7368 0.0
H39 H 0.89966 0.5947 -0.00111 0.0
H40 H 0.90871 0.67206 0.12843 0.0
H41 H 0.04087 0.83849 0.23431 0.0
H42 H 0.99189 0.78407 0.85339 0.0
O43 O 0.03764 0.73211 0.1944 0.0
H44 H 0.06137 0.91703 0.15458 0.0
H45 H 0.02406 0.85938 0.76849 0.0
C46 C 0.9474 0.77025 0.2483 0.0
C47 C 0.95602 0.76273 0.37733 0.0
C48 C 0.94874 0.79809 0.47683 0.0
C49 C 0.93307 0.8411 0.44698 0.0
C50 C 0.91527 0.84423 0.32319 0.0
C51 C 0.92122 0.80814 0.22473 0.0
C52 C 0.96947 0.70288 0.0064 0.0
C53 C 0.99981 0.69493 0.89461 0.0
C54 C 0.99299 0.65249 0.81806 0.0
C55 C 0.95827 0.61527 0.85702 0.0
C56 C 0.92575 0.62344 0.96502 0.0
C57 C 0.93129 0.66739 0.03953 0.0
C58 C 0.01557 0.8047 0.05017 0.0
C59 C 0.03642 0.84277 0.13239 0.0
C60 C 0.04812 0.88768 0.08668 0.0
C61 C 0.0417 0.89473 0.95588 0.0
C62 C 0.02562 0.85568 0.8709 0.0
C63 C 0.00971 0.81165 0.91898 0.0
P64 P 0.77355 0.09384 0.17167 0.0
H65 H 0.7384 0.14662 0.40244 0.0
H66 H 0.67473 0.12288 0.56701 0.0
H67 H 0.68021 0.97547 0.43436 0.0
H68 H 0.74451 -0.00049 0.26771 0.0
H69 H 0.78666 0.04287 0.91288 0.0
H70 H 0.85646 0.00693 0.80674 0.0
H71 H 0.93673 0.03657 0.15956 0.0
H72 H 0.86508 0.07036 0.26897 0.0
H73 H 0.71959 0.16774 0.08164 0.0
H74 H 0.71004 0.0146 0.04937 0.0
O75 O 0.80005 0.14987 0.19326 0.0
H76 H 0.64363 0.16325 0.96108 0.0
H77 H 0.63694 0.0108 0.92175 0.0
C78 C 0.74648 0.07484 0.32364 0.0
C79 C 0.72793 0.10906 0.41243 0.0
C80 C 0.69121 0.0955 0.50575 0.0
C81 C 0.67258 0.04749 0.51179 0.0
C82 C 0.69451 0.01267 0.43181 0.0
C83 C 0.73126 0.02639 0.33716 0.0
C84 C 0.82008 0.05843 0.10034 0.0
C85 C 0.81801 0.03971 0.97018 0.0
C86 C 0.8582 0.01923 0.90884 0.0
C87 C 0.90181 0.0189 0.97512 0.0
C88 C 0.90332 0.03623 0.10663 0.0
C89 C 0.86248 0.05546 0.16911 0.0
C90 C 0.72092 0.09148 0.07236 0.0
C91 C 0.70153 0.13322 0.04763 0.0
C92 C 0.658 0.13063 0.97975 0.0
C93 C 0.63308 0.08627 0.93746 0.0
C94 C 0.6531 0.04488 0.96109 0.0
C95 C 0.69599 0.04731 0.0303 0.0
P96 P 0.54722 0.75496 0.24627 0.0
H97 H 0.52821 0.7675 0.52805 0.0
H98 H 0.53416 0.70883 0.68286 0.0
H99 H 0.6354 0.63938 0.41536 0.0
H100 H 0.63218 0.70057 0.26416 0.0
H101 H 0.59792 0.84953 0.30316 0.0
H102 H 0.61196 0.91631 0.16521 0.0
H103 H 0.58356 0.81962 0.8253 0.0
H104 H 0.56683 0.75425 0.96137 0.0
H105 H 0.5971 0.68995 0.06198 0.0
H106 H 0.45072 0.69726 0.24223 0.0
O107 O 0.49759 0.78081 0.30392 0.0
H108 H 0.57011 0.61123 0.96049 0.0
H109 H 0.42338 0.61858 0.13902 0.0
C110 C 0.57765 0.7369 0.38134 0.0
C111 C 0.55399 0.74143 0.50519 0.0
C112 C 0.55708 0.70745 0.59361 0.0
C113 C 0.58324 0.66829 0.55767 0.0
C114 C 0.61384 0.66857 0.44364 0.0
C115 C 0.61192 0.7036 0.35703 0.0
C116 C 0.58174 0.79653 0.14374 0.0
C117 C 0.59713 0.84238 0.19844 0.0
C118 C 0.60486 0.88053 0.11968 0.0
C119 C 0.59811 0.87287 0.98524 0.0
C120 C 0.58915 0.82635 0.92871 0.0
C121 C 0.57999 0.78854 0.00762 0.0
C122 C 0.52559 0.70002 0.1571 0.0
C123 C 0.55893 0.67499 0.07809 0.0
C124 C 0.54351 0.63007 0.01986 0.0
C125 C 0.49459 0.60936 0.04097 0.0
C126 C 0.46123 0.63418 0.12054 0.0
C127 C 0.47673 0.67922 0.17869 0.0
P128 P 0.24452 0.497 0.33135 0.0
H129 H 0.25574 0.4437 0.07941 0.0
H130 H 0.19993 0.4444 0.90369 0.0
H131 H 0.16932 0.58564 0.0445 0.0
H132 H 0.22469 0.58442 0.2228 0.0
H133 H 0.34278 0.55201 0.29358 0.0
H134 H 0.41029 0.57093 0.44451 0.0
H135 H 0.30945 0.5273 0.76212 0.0
H136 H 0.2436 0.5069 0.61202 0.0
H137 H 0.15318 0.44113 0.25802 0.0
H138 H 0.19639 0.56457 0.51746 0.0
O139 O 0.25467 0.44009 0.32751 0.0
H140 H 0.06612 0.44807 0.318 0.0
H141 H 0.10934 0.56875 0.58713 0.0
C142 C 0.24305 0.51336 0.16717 0.0
C143 C 0.2395 0.47606 0.06882 0.0
C144 C 0.2069 0.47613 0.96896 0.0
C145 C 0.17883 0.51422 0.96448 0.0
C146 C 0.18996 0.55546 0.04743 0.0
C147 C 0.22239 0.55512 0.14829 0.0
C148 C 0.2878 0.52914 0.44173 0.0
C149 C 0.33476 0.54883 0.39668 0.0
C150 C 0.37324 0.55988 0.48336 0.0
C151 C 0.36506 0.55051 0.61526 0.0
C152 C 0.3168 0.53517 0.6614 0.0
C153 C 0.27886 0.52376 0.57516 0.0
C154 C 0.18139 0.50064 0.38859 0.0
C155 C 0.14399 0.4691 0.32997 0.0
C156 C 0.09431 0.47354 0.36278 0.0
C157 C 0.08142 0.50874 0.45784 0.0
C158 C 0.1187 0.5411 0.51434 0.0
C159 C 0.16842 0.53796 0.47687 0.0
P160 P 0.13601 0.23008 0.42226 0.0
H161 H 0.2048 0.16763 0.30294 0.0
H162 H 0.19056 0.11166 0.11275 0.0
H163 H 0.08208 0.19575 -0.01095 0.0
H164 H 0.09649 0.25161 0.17894 0.0
H165 H 0.03009 0.24588 0.43299 0.0
H166 H 0.98868 0.31621 0.50184 0.0
H167 H 0.13205 0.39968 0.53451 0.0
H168 H 0.17282 0.32969 0.46542 0.0
H169 H 0.13668 0.17769 0.65263 0.0
H170 H 0.05055 0.16912 0.31063 0.0
O171 O 0.18821 0.23863 0.50342 0.0
H172 H 0.09226 0.10313 0.71089 0.0
H173 H 1.00447 0.09463 0.37482 0.0
C174 C 0.15096 0.21313 0.25575 0.0
C175 C 0.18039 0.17577 0.23041 0.0
C176 C 0.1719 0.14348 0.12236 0.0
C177 C 0.13398 0.1488 0.04009 0.0
C178 C 0.11082 0.19063 0.0535 0.0
C179 C 0.1195 0.22295 0.16116 0.0
C180 C 0.10464 0.2824 0.44791 0.0
C181 C 0.05257 0.27943 0.45336 0.0
C182 C 0.02882 0.3197 0.49215 0.0
C183 C 0.057 0.36321 0.52606 0.0
C184 C 0.10912 0.36649 0.51111 0.0
C185 C 0.13265 0.32648 0.47158 0.0
C186 C 0.09711 0.1792 0.47739 0.0
C187 C 0.10717 0.16064 0.59259 0.0
C188 C 0.08083 0.11829 0.62826 0.0
C189 C 0.0435 0.09394 0.55168 0.0
C190 C 0.03278 0.11291 0.43683 0.0
C191 C 0.05919 0.15547 0.40034 0.0
P192 P 0.316 0.02526 0.32894 0.0
H193 H 0.32616 0.08309 0.10546 0.0
H194 H 0.38763 0.07915 0.92556 0.0
H195 H 0.4062 0.93558 0.00472 0.0
H196 H 0.34269 0.93904 0.18152 0.0
H197 H 0.2292 0.0746 0.34102 0.0
H198 H 0.14734 0.05901 0.44582 0.0
H199 H 0.17819 0.9185 0.52021 0.0
H200 H 0.26121 0.93407 0.41146 0.0
H201 H 0.42122 0.03693 0.27908 0.0
H202 H 0.3198 0.96916 0.56289 0.0
O203 O 0.32465 0.08425 0.35945 0.0
H204 H 0.49059 0.00969 0.37735 0.0
H205 H 0.39042 0.94251 0.66398 0.0
C206 C 0.33125 0.01194 0.1594 0.0
C207 C 0.34129 0.04981 0.07978 0.0
C208 C 0.37706 0.0477 0.97781 0.0
C209 C 0.40332 0.00785 0.95589 0.0
C210 C 0.38754 0.96727 0.02263 0.0
C211 C 0.35055 0.96893 0.12197 0.0
C212 C 0.25228 0.0065 0.37535 0.0
C213 C 0.21844 0.04006 0.37769 0.0
C214 C 0.17146 0.03105 0.43693 0.0
C215 C 0.15712 0.98798 0.49311 0.0
C216 C 0.18874 0.95207 0.47789 0.0
C217 C 0.23628 0.96122 0.4178 0.0
C218 C 0.36492 0.00381 0.41053 0.0
C219 C 0.41362 0.01538 0.36122 0.0
C220 C 0.45338 -0.00023 0.41711 0.0
C221 C 0.44563 0.97368 0.52671 0.0
C222 C 0.397 0.96169 0.5771 0.0
C223 C 0.35668 0.97713 0.5198 0.0
P224 P 0.36504 0.28127 0.38119 0.0
H225 H 0.2946 0.32154 0.23705 0.0
H226 H 0.31429 0.37571 0.06631 0.0
H227 H 0.45505 0.32097 0.98512 0.0
H228 H 0.43681 0.26905 0.16163 0.0
H229 H 0.38504 0.2592 0.63523 0.0
H230 H 0.43138 0.2009 0.71663 0.0
H231 H 0.45104 0.13633 0.32563 0.0
H232 H 0.40373 0.19548 0.24364 0.0
H233 H 0.34121 0.37307 0.4953 0.0
H234 H 0.47324 0.30526 0.39288 0.0
O235 O 0.30776 0.28027 0.44912 0.0
H236 H 0.39192 0.44446 0.57457 0.0
H237 H 0.52504 0.37759 0.47582 0.0
C238 C 0.36418 0.29104 0.21243 0.0
C239 C 0.32847 0.31896 0.17777 0.0
C240 C 0.33987 0.35037 0.0809 0.0
C241 C 0.38646 0.35292 0.01523 0.0
C242 C 0.4188 0.31948 0.03489 0.0
C243 C 0.40801 0.28909 0.1348 0.0
C244 C 0.39206 0.23218 0.43344 0.0
C245 C 0.39891 0.23228 0.56681 0.0
C246 C 0.42567 0.19916 0.61315 0.0
C247 C 0.4457 0.16502 0.52678 0.0
C248 C 0.43669 0.16313 0.39343 0.0
C249 C 0.40977 0.19675 0.34667 0.0
C250 C 0.40328 0.33334 0.44347 0.0
C251 C 0.38116 0.37336 0.49184 0.0
C252 C 0.41044 0.41428 0.53699 0.0
C253 C 0.46254 0.41621 0.53405 0.0
C254 C 0.48504 0.37688 0.47962 0.0
C255 C 0.45544 0.33557 0.4341 0.0
Tb256 Tb 1.00153 0.95928 0.65236 0.0
C257 C 0.11411 0.98591 0.586 0.0
Tb258 Tb 0.06285 0.03002 0.84419 0.0
O259 O 0.00903 0.01101 0.50313 0.0
O260 O 0.01245 0.03337 0.69928 0.0
O261 O 0.0769 0.95111 0.57397 0.0
C262 C 0.1111 0.10766 0.96125 0.0
O263 O 0.11352 0.02236 0.67492 0.0
C264 C 0.04896 0.94335 0.91361 0.0
C265 C 0.94746 0.00747 0.90223 0.0
O266 O 0.12976 0.06794 0.93114 0.0
O267 O 0.06538 0.10316 0.9283 0.0
O268 O 0.05852 0.98055 -0.0061 0.0
O269 O 0.0538 0.95528 0.79766 0.0
O270 O 0.98912 0.03444 0.93234 0.0
O271 O 0.94402 0.97524 0.80101 0.0
C272 C 0.94746 0.88482 0.53006 0.0
O273 O 0.95981 0.92613 0.48556 0.0
O274 O 0.96533 0.88581 0.64412 0.0
C275 C 0.01859 0.04735 0.58635 0.0
Tb276 Tb 0.52343 0.06934 0.68188 0.0
C277 C 0.62507 0.0362 0.58319 0.0
Tb278 Tb 0.55283 0.97716 0.78255 0.0
O279 O 0.58239 0.11516 0.78037 0.0
O280 O 0.55414 0.04975 0.85059 0.0
O281 O 0.58912 0.0616 0.55907 0.0
C282 C 0.58938 0.91255 0.91065 0.0
O283 O 0.62057 0.00369 0.67052 0.0
C284 C 0.48913 0.96621 0.59706 0.0
C285 C 0.44996 0.0111 0.87558 0.0
O286 O 0.58522 0.91031 0.7852 0.0
O287 O 0.57263 0.95086 0.96317 0.0
O288 O 0.49015 0.9354 0.68266 0.0
O289 O 0.52512 -0.00229 0.61323 0.0
O290 O 0.4856 0.98583 0.90269 0.0
O291 O 0.45551 0.04196 0.78531 0.0
C292 C 0.47543 0.13187 0.57881 0.0
O293 O 0.48459 0.13212 0.70088 0.0
O294 O 0.4947 0.0971 0.51295 0.0
C295 C 0.5886 0.08385 0.86094 0.0
Tb296 Tb 0.52475 0.54256 0.70565 0.0
C297 C 0.4069 0.54313 0.69342 0.0
Tb298 Tb 0.45318 0.47711 0.87686 0.0
O299 O 0.5325 0.48149 0.55783 0.0
O300 O 0.47065 0.4848 0.68109 0.0
O301 O 0.45216 0.56434 0.66377 0.0
C302 C 0.40553 0.396 0.9516 0.0
O303 O 0.39955 0.50582 0.76517 0.0
C304 C 0.47875 0.56145 0.98362 0.0
C305 C 0.57174 0.47657 0.88361 0.0
O306 O 0.39452 0.43822 -0.00815 0.0
O307 O 0.44382 0.39956 0.87076 0.0
O308 O 0.43878 0.53507 0.02072 0.0
O309 O 0.50502 0.5373 0.90598 0.0
O310 O 0.52624 0.45617 0.91446 0.0
O311 O 0.58001 0.51384 0.81213 0.0
C312 C 0.56975 0.62409 0.62292 0.0
O313 O 0.53663 0.61998 0.71794 0.0
O314 O 0.57776 0.58179 0.57385 0.0
C315 C 0.49096 0.45827 0.5985 0.0
Tb316 Tb 0.9493 0.47138 0.63051 0.0
C317 C 0.03368 0.40418 0.5883 0.0
Tb318 Tb 0.04179 0.49153 0.79808 0.0
O319 O 0.99281 0.48331 0.44904 0.0
O320 O 0.01736 0.51544 0.62592 0.0
O321 O 0.98535 0.40679 0.57925 0.0
C322 C 0.13266 0.50698 0.89314 0.0
O323 O 0.06317 0.43697 0.65457 0.0
C324 C 0.959 0.4523 0.90989 0.0
C325 C 0.96885 0.56718 0.81083 0.0
O326 O 0.10809 0.46575 0.86458 0.0
O327 O 0.1055 0.53975 0.87111 0.0
O328 O 0.99228 0.48023 0.97359 0.0
O329 O 0.97508 0.44544 0.79545 0.0
O330 O 0.01597 0.56004 0.81312 0.0
O331 O 0.93413 0.53433 0.76208 0.0
C332 C 0.85732 0.44801 0.54957 0.0
O333 O 0.8848 0.48785 0.53261 0.0
O334 O 0.88188 0.42124 0.61159 0.0
C335 C 0.0298 0.50808 0.50735 0.0
loop_
_geom_bond_atom_site_label_1
_geom_bond_atom_site_label_2
_geom_bond_distance
_geom_bond_site_symmetry_2
_ccdc_geom_bond_type
P0 O11 1.490 . S
P0 C14 1.812 . S
P0 C20 1.803 . S
P0 C26 1.819 1_554 S
H1 C15 0.941 . S
H2 C16 0.939 . S
H3 C18 0.940 . S
H4 C19 0.940 . S
H5 C21 0.939 . S
H6 C22 0.942 . S
H7 C24 0.940 . S
H8 C25 0.939 . S
H9 C27 0.941 . S
H10 C31 0.939 . S
O11 P0 1.490 . S
H12 C28 0.939 . S
H13 C30 0.940 . S
C14 P0 1.812 . S
C14 C15 1.389 . S
C14 C19 1.391 . S
C15 H1 0.941 . S
C15 C14 1.389 . S
C15 C16 1.397 . S
C16 H2 0.939 . S
C16 C15 1.397 . S
C16 C17 1.378 . S
C17 C16 1.378 . S
C17 C18 1.378 . S
C18 H3 0.940 . S
C18 C17 1.378 . S
C18 C19 1.396 . S
C19 H4 0.940 . S
C19 C14 1.391 . S
C19 C18 1.396 . S
C20 P0 1.803 . S
C20 C21 1.378 1_554 S
C20 C25 1.400 . S
C21 H5 0.939 . S
C21 C20 1.378 1_556 S
C21 C22 1.361 . S
C22 H6 0.942 . S
C22 C21 1.361 . S
C22 C23 1.369 . S
C23 C22 1.369 . S
C23 C24 1.404 1_556 S
C24 H7 0.940 . S
C24 C23 1.404 1_554 S
C24 C25 1.389 . S
C25 H8 0.939 . S
C25 C20 1.400 . S
C25 C24 1.389 . S
C26 P0 1.819 1_556 S
C26 C27 1.391 . S
C26 C31 1.391 . S
C27 H9 0.941 . S
C27 C26 1.391 . S
C27 C28 1.396 . S
C28 H12 0.939 . S
C28 C27 1.396 . S
C28 C29 1.397 . S
C29 C28 1.397 . S
C29 C30 1.385 . S
C30 H13 0.940 . S
C30 C29 1.385 . S
C30 C31 1.388 . S
C31 H10 0.939 . S
C31 C26 1.391 . S
C31 C30 1.388 . S
P32 O43 1.490 1_655 S
P32 C46 1.812 . S
P32 C52 1.803 1_554 S
P32 C58 1.819 1_554 S
H33 C47 0.941 . S
H34 C48 0.939 . S
H35 C50 0.940 . S
H36 C51 0.940 . S
H37 C53 0.939 . S
H38 C54 0.942 . S
H39 C56 0.940 1_554 S
H40 C57 0.939 . S
H41 C59 0.941 . S
H42 C63 0.939 . S
O43 P32 1.490 1_455 S
H44 C60 0.939 . S
H45 C62 0.940 . S
C46 P32 1.812 . S
C46 C47 1.389 . S
C46 C51 1.391 . S
C47 H33 0.941 . S
C47 C46 1.389 . S
C47 C48 1.397 . S
C48 H34 0.939 . S
C48 C47 1.397 . S
C48 C49 1.378 . S
C49 C48 1.378 . S
C49 C50 1.378 . S
C50 H35 0.940 . S
C50 C49 1.378 . S
C50 C51 1.396 . S
C51 H36 0.940 . S
C51 C46 1.391 . S
C51 C50 1.396 . S
C52 P32 1.803 1_556 S
C52 C53 1.378 . S
C52 C57 1.400 1_556 S
C53 H37 0.939 . S
C53 C52 1.378 . S
C53 C54 1.361 . S
C54 H38 0.942 . S
C54 C53 1.361 . S
C54 C55 1.369 . S
C55 C54 1.369 . S
C55 C56 1.404 . S
C56 H39 0.940 1_556 S
C56 C55 1.404 . S
C56 C57 1.389 1_556 S
C57 H40 0.939 . S
C57 C52 1.400 1_554 S
C57 C56 1.389 1_554 S
C58 P32 1.819 1_556 S
C58 C59 1.391 . S
C58 C63 1.391 . S
C59 H41 0.941 . S
C59 C58 1.391 . S
C59 C60 1.396 . S
C60 H44 0.939 . S
C60 C59 1.396 . S
C60 C61 1.397 . S
C61 C60 1.397 . S
C61 C62 1.385 . S
C62 H45 0.940 . S
C62 C61 1.385 . S
C62 C63 1.388 . S
C63 H42 0.939 . S
C63 C58 1.391 . S
C63 C62 1.388 . S
P64 O75 1.490 . S
P64 C78 1.812 . S
P64 C84 1.803 . S
P64 C90 1.819 . S
H65 C79 0.941 . S
H66 C80 0.939 . S
H67 C82 0.940 . S
H68 C83 0.940 . S
H69 C85 0.939 . S
H70 C86 0.942 . S
H71 C88 0.940 . S
H72 C89 0.939 . S
H73 C91 0.941 . S
H74 C95 0.939 1_565 S
O75 P64 1.490 . S
H76 C92 0.939 . S
H77 C94 0.940 . S
C78 P64 1.812 . S
C78 C79 1.389 . S
C78 C83 1.391 1_545 S
C79 H65 0.941 . S
C79 C78 1.389 . S
C79 C80 1.397 . S
C80 H66 0.939 . S
C80 C79 1.397 . S
C80 C81 1.378 . S
C81 C80 1.378 . S
C81 C82 1.378 1_545 S
C82 H67 0.940 . S
C82 C81 1.378 1_565 S
C82 C83 1.396 . S
C83 H68 0.940 . S
C83 C78 1.391 1_565 S
C83 C82 1.396 . S
C84 P64 1.803 . S
C84 C85 1.378 . S
C84 C89 1.400 1_545 S
C85 H69 0.939 . S
C85 C84 1.378 . S
C85 C86 1.361 1_554 S
C86 H70 0.942 . S
C86 C85 1.361 1_556 S
C86 C87 1.369 1_556 S
C87 C86 1.369 1_554 S
C87 C88 1.404 1_545 S
C88 H71 0.940 . S
C88 C87 1.404 1_565 S
C88 C89 1.389 . S
C89 H72 0.939 . S
C89 C84 1.400 1_565 S
C89 C88 1.389 . S
C90 P64 1.819 . S
C90 C91 1.391 . S
C90 C95 1.391 1_554 S
C91 H73 0.941 . S
C91 C90 1.391 . S
C91 C92 1.396 1_554 S
C92 H76 0.939 . S
C92 C91 1.396 1_556 S
C92 C93 1.397 . S
C93 C92 1.397 . S
C93 C94 1.385 1_545 S
C94 H77 0.940 . S
C94 C93 1.385 1_565 S
C94 C95 1.388 1_565 S
C95 H74 0.939 1_545 S
C95 C90 1.391 1_556 S
C95 C94 1.388 1_545 S
P96 O107 1.490 . S
P96 C110 1.812 . S
P96 C116 1.803 . S
P96 C122 1.819 1_554 S
H97 C111 0.941 . S
H98 C112 0.939 . S
H99 C114 0.940 . S
H100 C115 0.940 . S
H101 C117 0.939 1_556 S
H102 C118 0.942 . S
H103 C120 0.940 . S
H104 C121 0.939 . S
H105 C123 0.941 1_554 S
H106 C127 0.939 . S
O107 P96 1.490 . S
H108 C124 0.939 . S
H109 C126 0.940 . S
C110 P96 1.812 . S
C110 C111 1.389 . S
C110 C115 1.391 . S
C111 H97 0.941 . S
C111 C110 1.389 . S
C111 C112 1.397 . S
C112 H98 0.939 . S
C112 C111 1.397 . S
C112 C113 1.378 . S
C113 C112 1.378 . S
C113 C114 1.378 . S
C114 H99 0.940 . S
C114 C113 1.378 . S
C114 C115 1.396 . S
C115 H100 0.940 . S
C115 C110 1.391 . S
C115 C114 1.396 . S
C116 P96 1.803 . S
C116 C117 1.378 . S
C116 C121 1.400 . S
C117 H101 0.939 1_554 S
C117 C116 1.378 . S
C117 C118 1.361 1_554 S
C118 H102 0.942 . S
C118 C117 1.361 1_556 S
C118 C119 1.369 1_556 S
C119 C118 1.369 1_554 S
C119 C120 1.404 . S
C120 H103 0.940 . S
C120 C119 1.404 . S
C120 C121 1.389 . S
C121 H104 0.939 . S
C121 C116 1.400 . S
C121 C120 1.389 . S
C122 P96 1.819 1_556 S
C122 C123 1.391 . S
C122 C127 1.391 . S
C123 H105 0.941 1_556 S
C123 C122 1.391 . S
C123 C124 1.396 . S
C124 H108 0.939 . S
C124 C123 1.396 . S
C124 C125 1.397 . S
C125 C124 1.397 . S
C125 C126 1.385 . S
C126 H109 0.940 . S
C126 C125 1.385 . S
C126 C127 1.388 . S
C127 H106 0.939 . S
C127 C122 1.391 . S
C127 C126 1.388 . S
P128 O139 1.490 . S
P128 C142 1.812 . S
P128 C148 1.803 . S
P128 C154 1.819 . S
H129 C143 0.941 . S
H130 C144 0.939 1_556 S
H131 C146 0.940 . S
H132 C147 0.940 . S
H133 C149 0.939 . S
H134 C150 0.942 . S
H135 C152 0.940 . S
H136 C153 0.939 . S
H137 C155 0.941 . S
H138 C159 0.939 . S
O139 P128 1.490 . S
H140 C156 0.939 . S
H141 C158 0.940 . S
C142 P128 1.812 . S
C142 C143 1.389 . S
C142 C147 1.391 . S
C143 H129 0.941 . S
C143 C142 1.389 . S
C143 C144 1.397 . S
C144 H130 0.939 1_554 S
C144 C143 1.397 . S
C144 C145 1.378 . S
C145 C144 1.378 . S
C145 C146 1.378 . S
C146 H131 0.940 . S
C146 C145 1.378 . S
C146 C147 1.396 . S
C147 H132 0.940 . S
C147 C142 1.391 . S
C147 C146 1.396 . S
C148 P128 1.803 . S
C148 C149 1.378 . S
C148 C153 1.400 . S
C149 H133 0.939 . S
C149 C148 1.378 . S
C149 C150 1.361 . S
C150 H134 0.942 . S
C150 C149 1.361 . S
C150 C151 1.369 . S
C151 C150 1.369 . S
C151 C152 1.404 . S
C152 H135 0.940 . S
C152 C151 1.404 . S
C152 C153 1.389 . S
C153 H136 0.939 . S
C153 C148 1.400 . S
C153 C152 1.389 . S
C154 P128 1.819 . S
C154 C155 1.391 . S
C154 C159 1.391 . S
C155 H137 0.941 . S
C155 C154 1.391 . S
C155 C156 1.396 . S
C156 H140 0.939 . S
C156 C155 1.396 . S
C156 C157 1.397 . S
C157 C156 1.397 . S
C157 C158 1.385 . S
C158 H141 0.940 . S
C158 C157 1.385 . S
C158 C159 1.388 . S
C159 H138 0.939 . S
C159 C154 1.391 . S
C159 C158 1.388 . S
P160 O171 1.490 . S
P160 C174 1.812 . S
P160 C180 1.803 . S
P160 C186 1.819 . S
H161 C175 0.941 . S
H162 C176 0.934 1_556 S
H163 C178 0.940 . S
H164 C179 0.940 . S
H165 C181 0.939 . S
H166 C182 0.942 . S
H167 C184 0.940 . S
H168 C185 0.939 . S
H169 C187 0.941 . S
H170 C191 0.939 . S
O171 P160 1.490 . S
H172 C188 0.939 . S
H173 C190 0.940 . S
C174 P160 1.812 . S
C174 C175 1.389 . S
C174 C179 1.391 . S
C175 H161 0.941 . S
C175 C174 1.389 . S
C175 C176 1.397 . S
C176 H162 0.934 1_554 S
C176 C175 1.397 . S
C176 C177 1.378 . S
C177 C176 1.378 . S
C177 C178 1.378 . S
C178 H163 0.940 . S
C178 C177 1.378 . S
C178 C179 1.396 . S
C179 H164 0.940 . S
C179 C174 1.391 . S
C179 C178 1.396 . S
C180 P160 1.803 . S
C180 C181 1.378 . S
C180 C185 1.400 . S
C181 H165 0.939 . S
C181 C180 1.378 . S
C181 C182 1.361 . S
C182 H166 0.942 . S
C182 C181 1.361 . S
C182 C183 1.369 . S
C183 C182 1.369 . S
C183 C184 1.404 . S
C184 H167 0.940 . S
C184 C183 1.404 . S
C184 C185 1.389 . S
C185 H168 0.939 . S
C185 C180 1.400 . S
C185 C184 1.389 . S
C186 P160 1.819 . S
C186 C187 1.391 . S
C186 C191 1.391 . S
C187 H169 0.941 . S
C187 C186 1.391 . S
C187 C188 1.396 . S
C188 H172 0.939 . S
C188 C187 1.396 . S
C188 C189 1.397 . S
C189 C188 1.397 . S
C189 C190 1.385 . S
C190 H173 0.940 . S
C190 C189 1.385 . S
C190 C191 1.388 . S
C191 H170 0.939 . S
C191 C186 1.391 . S
C191 C190 1.388 . S
P192 O203 1.490 . S
P192 C206 1.812 . S
P192 C212 1.803 . S
P192 C218 1.819 . S
H193 C207 0.941 . S
H194 C208 0.939 . S
H195 C210 0.940 1_565 S
H196 C211 0.940 . S
H197 C213 0.939 . S
H198 C214 0.942 . S
H199 C216 0.940 1_565 S
H200 C217 0.944 . S
H201 C219 0.941 . S
H202 C223 0.939 . S
O203 P192 1.490 . S
H204 C220 0.939 . S
H205 C222 0.940 1_565 S
C206 P192 1.812 . S
C206 C207 1.389 . S
C206 C211 1.391 . S
C207 H193 0.941 . S
C207 C206 1.389 . S
C207 C208 1.397 1_554 S
C208 H194 0.939 . S
C208 C207 1.397 1_556 S
C208 C209 1.378 . S
C209 C208 1.378 . S
C209 C210 1.378 1_556 S
C210 H195 0.940 1_545 S
C210 C209 1.378 1_554 S
C210 C211 1.396 . S
C211 H196 0.940 . S
C211 C206 1.391 . S
C211 C210 1.396 . S
C212 P192 1.803 . S
C212 C213 1.378 . S
C212 C217 1.400 . S
C213 H197 0.939 . S
C213 C212 1.378 . S
C213 C214 1.361 . S
C214 H198 0.942 . S
C214 C213 1.361 . S
C214 C215 1.369 . S
C215 C214 1.369 . S
C215 C216 1.404 . S
C216 H199 0.940 1_545 S
C216 C215 1.404 . S
C216 C217 1.389 . S
C217 H200 0.944 . S
C217 C212 1.400 . S
C217 C216 1.389 . S
C218 P192 1.819 . S
C218 C219 1.391 . S
C218 C223 1.391 . S
C219 H201 0.941 . S
C219 C218 1.391 . S
C219 C220 1.396 . S
C220 H204 0.939 . S
C220 C219 1.396 . S
C220 C221 1.397 . S
C221 C220 1.397 . S
C221 C222 1.385 . S
C222 H205 0.940 1_545 S
C222 C221 1.385 . S
C222 C223 1.388 . S
C223 H202 0.939 . S
C223 C218 1.391 . S
C223 C222 1.388 . S
P224 O235 1.490 . S
P224 C238 1.812 . S
P224 C244 1.803 . S
P224 C250 1.819 . S
H225 C239 0.941 . S
H226 C240 0.939 1_556 S
H227 C242 0.940 . S
H228 C243 0.940 . S
H229 C245 0.939 . S
H230 C246 0.942 . S
H231 C248 0.940 . S
H232 C249 0.939 . S
H233 C251 0.941 . S
H234 C255 0.939 . S
O235 P224 1.490 . S
H236 C252 0.939 . S
H237 C254 0.940 . S
C238 P224 1.812 . S
C238 C239 1.389 . S
C238 C243 1.391 . S
C239 H225 0.941 . S
C239 C238 1.389 . S
C239 C240 1.397 . S
C240 H226 0.939 1_554 S
C240 C239 1.397 . S
C240 C241 1.378 . S
C241 C240 1.378 . S
C241 C242 1.378 . S
C242 H227 0.940 . S
C242 C241 1.378 . S
C242 C243 1.396 . S
C243 H228 0.940 . S
C243 C238 1.391 . S
C243 C242 1.396 . S
C244 P224 1.803 . S
C244 C245 1.378 . S
C244 C249 1.400 . S
C245 H229 0.939 . S
C245 C244 1.378 . S
C245 C246 1.361 . S
C246 H230 0.942 . S
C246 C245 1.361 . S
C246 C247 1.369 . S
C247 C246 1.369 . S
C247 C248 1.404 . S
C248 H231 0.940 . S
C248 C247 1.404 . S
C248 C249 1.389 . S
C249 H232 0.939 . S
C249 C244 1.400 . S
C249 C248 1.389 . S
C250 P224 1.819 . S
C250 C251 1.391 . S
C250 C255 1.391 . S
C251 H233 0.941 . S
C251 C250 1.391 . S
C251 C252 1.396 . S
C252 H236 0.939 . S
C252 C251 1.396 . S
C252 C253 1.397 . S
C253 C252 1.397 . S
C253 C254 1.385 . S
C254 H237 0.940 . S
C254 C253 1.385 . S
C254 C255 1.388 . S
C255 H234 0.939 . S
C255 C250 1.391 . S
C255 C254 1.388 . S
Tb256 O259 2.453 1_655 S
Tb256 O260 2.596 1_655 S
Tb256 O261 2.374 1_645 S
Tb256 O269 2.343 1_545 S
Tb256 O271 2.353 . S
Tb256 O273 2.427 1_545 S
Tb256 O274 2.513 1_545 S
C257 O261 1.251 . S
C257 O263 1.265 . S
Tb258 O260 2.343 . S
Tb258 O263 2.353 1_545 S
Tb258 O266 2.427 . S
Tb258 O267 2.513 1_556 S
Tb258 O268 2.453 1_545 S
Tb258 O269 2.596 1_445 S
Tb258 O270 2.374 1_455 S
O259 Tb256 2.453 1_455 S
O259 C275 1.245 . S
O260 Tb256 2.596 1_455 S
O260 Tb258 2.343 . S
O260 C275 1.259 . S
O261 Tb256 2.374 1_465 S
O261 C257 1.251 . S
C262 O266 1.275 1_554 S
C262 O267 1.246 . S
O263 C257 1.265 . S
O263 Tb258 2.353 1_565 S
C264 O268 1.245 1_655 S
C264 O269 1.259 . S
C265 O270 1.250 . S
C265 O271 1.263 . S
O266 Tb258 2.427 . S
O266 C262 1.275 1_556 S
O267 Tb258 2.513 1_554 S
O267 C262 1.246 . S
O268 Tb258 2.453 1_565 S
O268 C264 1.245 1_455 S
O269 Tb256 2.343 1_565 S
O269 Tb258 2.596 1_665 S
O269 C264 1.259 . S
O270 Tb258 2.374 1_655 S
O270 C265 1.250 . S
O271 Tb256 2.353 . S
O271 C265 1.263 . S
C272 O273 1.275 . S
C272 O274 1.246 . S
O273 Tb256 2.427 1_565 S
O273 C272 1.275 . S
O274 Tb256 2.513 1_565 S
O274 C272 1.246 . S
C275 O259 1.245 . S
C275 O260 1.259 . S
Tb276 O279 2.453 . S
Tb276 O280 2.605 . S
Tb276 O281 2.374 . S
Tb276 O289 2.343 . S
Tb276 O291 2.353 . S
Tb276 O293 2.427 . S
Tb276 O294 2.513 . S
C277 O281 1.251 . S
C277 O283 1.263 1_545 S
Tb278 O280 2.336 1_565 S
Tb278 O283 2.353 . S
Tb278 O286 2.427 . S
Tb278 O287 2.513 . S
Tb278 O288 2.453 . S
Tb278 O289 2.596 1_565 S
Tb278 O290 2.374 . S
O279 Tb276 2.453 . S
O279 C295 1.245 . S
O280 Tb276 2.605 . S
O280 Tb278 2.336 1_545 S
O280 C295 1.264 . S
O281 Tb276 2.374 . S
O281 C277 1.251 . S
C282 O286 1.275 . S
C282 O287 1.246 . S
O283 C277 1.263 1_565 S
O283 Tb278 2.353 . S
C284 O288 1.245 . S
C284 O289 1.259 1_565 S
C285 O290 1.250 1_545 S
C285 O291 1.263 . S
O286 Tb278 2.427 . S
O286 C282 1.275 . S
O287 Tb278 2.513 . S
O287 C282 1.246 . S
O288 Tb278 2.453 . S
O288 C284 1.245 . S
O289 Tb276 2.343 . S
O289 Tb278 2.596 1_545 S
O289 C284 1.259 1_545 S
O290 Tb278 2.374 . S
O290 C285 1.250 1_565 S
O291 Tb276 2.353 . S
O291 C285 1.263 . S
C292 O293 1.275 . S
C292 O294 1.246 . S
O293 Tb276 2.427 . S
O293 C292 1.275 . S
O294 Tb276 2.513 . S
O294 C292 1.246 . S
C295 O279 1.245 . S
C295 O280 1.264 . S
Tb296 O299 2.453 . S
Tb296 O300 2.596 . S
Tb296 O301 2.374 . S
Tb296 O309 2.343 . S
Tb296 O311 2.353 . S
Tb296 O313 2.427 . S
Tb296 O314 2.513 . S
C297 O301 1.251 . S
C297 O303 1.263 . S
Tb298 O300 2.343 . S
Tb298 O303 2.353 . S
Tb298 O306 2.427 . S
Tb298 O307 2.513 1_556 S
Tb298 O308 2.453 . S
Tb298 O309 2.596 . S
Tb298 O310 2.374 . S
O299 Tb296 2.453 . S
O299 C315 1.245 . S
O300 Tb296 2.596 . S
O300 Tb298 2.343 . S
O300 C315 1.259 . S
O301 Tb296 2.374 . S
O301 C297 1.251 . S
C302 O306 1.275 1_554 S
C302 O307 1.246 . S
O303 C297 1.263 . S
O303 Tb298 2.353 . S
C304 O308 1.245 . S
C304 O309 1.259 . S
C305 O310 1.250 . S
C305 O311 1.263 . S
O306 Tb298 2.427 . S
O306 C302 1.275 1_556 S
O307 Tb298 2.513 1_554 S
O307 C302 1.246 . S
O308 Tb298 2.453 . S
O308 C304 1.245 . S
O309 Tb296 2.343 . S
O309 Tb298 2.596 . S
O309 C304 1.259 . S
O310 Tb298 2.374 . S
O310 C305 1.250 . S
O311 Tb296 2.353 . S
O311 C305 1.263 . S
C312 O313 1.275 . S
C312 O314 1.246 . S
O313 Tb296 2.427 . S
O313 C312 1.275 . S
O314 Tb296 2.513 . S
O314 C312 1.246 . S
C315 O299 1.245 . S
C315 O300 1.259 . S
Tb316 O319 2.453 1_655 S
Tb316 O320 2.596 1_655 S
Tb316 O321 2.374 1_655 S
Tb316 O329 2.343 . S
Tb316 O331 2.353 . S
Tb316 O333 2.427 . S
Tb316 O334 2.513 . S
C317 O321 1.251 . S
C317 O323 1.263 . S
Tb318 O320 2.343 . S
Tb318 O323 2.353 . S
Tb318 O326 2.427 1_556 S
Tb318 O327 2.513 1_556 S
Tb318 O328 2.453 1_455 S
Tb318 O329 2.596 1_455 S
Tb318 O330 2.374 1_455 S
O319 Tb316 2.453 1_455 S
O319 C335 1.245 . S
O320 Tb316 2.596 1_455 S
O320 Tb318 2.343 . S
O320 C335 1.259 . S
O321 Tb316 2.374 1_455 S
O321 C317 1.251 . S
C322 O326 1.275 . S
C322 O327 1.246 . S
O323 C317 1.263 . S
O323 Tb318 2.353 . S
C324 O328 1.245 . S
C324 O329 1.259 . S
C325 O330 1.250 . S
C325 O331 1.263 . S
O326 Tb318 2.427 1_554 S
O326 C322 1.275 . S
O327 Tb318 2.513 1_554 S
O327 C322 1.246 . S
O328 Tb318 2.453 1_655 S
O328 C324 1.245 . S
O329 Tb316 2.343 . S
O329 Tb318 2.596 1_655 S
O329 C324 1.259 . S
O330 Tb318 2.374 1_655 S
O330 C325 1.250 . S
O331 Tb316 2.353 . S
O331 C325 1.263 . S
C332 O333 1.275 . S
C332 O334 1.246 . S
O333 Tb316 2.427 . S
O333 C332 1.275 . S
O334 Tb316 2.513 . S
O334 C332 1.246 . S
C335 O319 1.245 . S
C335 O320 1.259 . S
C215 C257 2.003 1_545 S
C292 C247 3.224 . S
C297 C151 1.555 . S
C317 C183 2.846 . S
C265 C87 1.842 1_556 S
C119 C282 2.745 1_554 S
C23 C305 1.745 . S
C55 C325 2.350 . S
C275 C189 3.286 . S
C284 C221 1.556 1_565 S
C315 C253 3.429 . S
C157 C335 1.727 . S
C61 C264 2.786 . S
C295 C93 1.264 . S
C304 C125 2.866 . S
C29 C324 1.906 . S
C177 C262 2.623 . S
C209 C285 2.620 . S
C302 C241 2.997 . S
C322 C145 2.389 . S
C49 C272 2.317 . S
C277 C81 2.577 . S
C312 C113 2.678 . S
C17 C332 2.555 . S
