# Generated by pormake.
# Topology rtl, (3,6)-cn, num edge types: 1
# Building blocks:
#     Node 0, Type 0, BuildingBlock: MIDCAF_clean_linker_0, # of connection points: 3
#     Node 1, Type 0, BuildingBlock: MIDCAF_clean_linker_0, # of connection points: 3
#     Node 2, Type 0, BuildingBlock: MIDCAF_clean_linker_0, # of connection points: 3
#     Node 3, Type 0, BuildingBlock: MIDCAF_clean_linker_0, # of connection points: 3
#     Node 4, Type 1, BuildingBlock: LEVNOQ01_clean_sbu_1, # of connection points: 6
#     Node 5, Type 1, BuildingBlock: LEVNOQ01_clean_sbu_1, # of connection points: 6
#     Edge 6, Type (0, 1), BuildingBlock: XUDNAN_clean_linker_2, # of connection points: 2
#     Edge 7, Type (0, 1), BuildingBlock: XUDNAN_clean_linker_2, # of connection points: 2
#     Edge 8, Type (0, 1), BuildingBlock: XUDNAN_clean_linker_2, # of connection points: 2
#     Edge 9, Type (0, 1), BuildingBlock: XUDNAN_clean_linker_2, # of connection points: 2
#     Edge 10, Type (0, 1), BuildingBlock: XUDNAN_clean_linker_2, # of connection points: 2
#     Edge 11, Type (0, 1), BuildingBlock: XUDNAN_clean_linker_2, # of connection points: 2
#     Edge 12, Type (0, 1), BuildingBlock: XUDNAN_clean_linker_2, # of connection points: 2
#     Edge 13, Type (0, 1), BuildingBlock: XUDNAN_clean_linker_2, # of connection points: 2
#     Edge 14, Type (0, 1), BuildingBlock: XUDNAN_clean_linker_2, # of connection points: 2
#     Edge 15, Type (0, 1), BuildingBlock: XUDNAN_clean_linker_2, # of connection points: 2
#     Edge 16, Type (0, 1), BuildingBlock: XUDNAN_clean_linker_2, # of connection points: 2
#     Edge 17, Type (0, 1), BuildingBlock: XUDNAN_clean_linker_2, # of connection points: 2
# Relax obj value: 0.027
# Max RMSD: 0.061
# Mean RMSD: 0.047
data_MOF--net-rtl--node1-LEVNOQ01_clean_sbu_1--node2-MIDCAF_clean_linker_0--edge1-XUDNAN_clean_linker_2
_symmetry_space_group_name_H-M    P1
_symmetry_Int_Tables_number       1
_symmetry_cell_setting            triclinic
loop_
_symmetry_equiv_pos_as_xyz
'x, y, z'
_cell_length_a     37.160515
_cell_length_b     42.143002
_cell_length_c     29.644707
_cell_angle_alpha  89.834129
_cell_angle_beta   97.806245
_cell_angle_gamma 90.136752
loop_
_atom_site_label
_atom_site_type_symbol
_atom_site_fract_x
_atom_site_fract_y
_atom_site_fract_z
_atom_type_partial_charge
C0 C 0.20711 0.95225 0.21333 0.0
C1 C 0.22738 0.94639 0.25617 0.0
C2 C 0.26235 0.93345 0.25798 0.0
C3 C 0.27566 0.9243 0.21821 0.0
H4 H 0.32743 0.84358 0.18282 0.0
H5 H 0.35905 0.79261 0.19058 0.0
H6 H 0.35874 0.78955 0.045 0.0
H7 H 0.32708 0.83998 0.0369 0.0
H8 H 0.26923 0.87685 0.97514 0.0
H9 H 0.2375 0.88684 0.8993 0.0
H10 H 0.17596 0.96142 0.95254 0.0
H11 H 0.20796 0.95174 0.02879 0.0
H12 H 0.20357 0.94663 0.14102 0.0
H13 H 0.18 0.96205 0.21073 0.0
H14 H 0.279 0.92931 0.29038 0.0
H15 H 0.30216 0.91323 0.22111 0.0
N16 N 0.29094 0.88953 0.1398 0.0
N17 N 0.28433 0.88239 0.06093 0.0
N18 N 0.25032 0.92151 0.092 0.0
C19 C 0.30018 0.8739 0.10315 0.0
C20 C 0.25953 0.90615 0.05488 0.0
C21 C 0.26624 0.91347 0.1346 0.0
C22 C 0.32408 0.84566 0.10911 0.0
C23 C 0.33456 0.83227 0.1525 0.0
C24 C 0.35273 0.80311 0.15706 0.0
C25 C 0.36062 0.78686 0.11834 0.0
C26 C 0.35218 0.80121 0.07537 0.0
C27 C 0.33413 0.83022 0.07078 0.0
C28 C 0.24114 0.91344 0.00836 0.0
C29 C 0.24904 0.8955 0.97091 0.0
C30 C 0.23068 0.90103 0.92734 0.0
C31 C 0.20408 0.92474 0.91997 0.0
C32 C 0.19653 0.9431 0.95712 0.0
C33 C 0.2148 0.93747 1.00086 0.0
C34 C 0.25444 0.9281 0.17554 0.0
C35 C 0.22058 0.94328 0.17335 0.0
C36 C 0.67781 0.59772 0.45565 0.0
C37 C 0.68644 0.61431 0.41729 0.0
C38 C 0.71391 0.6375 0.42339 0.0
C39 C 0.73219 0.64402 0.46684 0.0
H40 H 0.82347 0.69268 0.53959 0.0
H41 H 0.8655 0.73777 0.55167 0.0
H42 H 0.84137 0.74747 0.68909 0.0
H43 H 0.79979 0.70217 0.67778 0.0
H44 H 0.76888 0.6412 0.72106 0.0
H45 H 0.74874 0.61629 0.78734 0.0
H46 H 0.68409 0.54969 0.70032 0.0
H47 H 0.70432 0.57448 0.63348 0.0
H48 H 0.68837 0.59105 0.52768 0.0
H49 H 0.65644 0.58002 0.45234 0.0
H50 H 0.72155 0.65043 0.39452 0.0
H51 H 0.75314 0.6621 0.47021 0.0
N52 N 0.76669 0.65902 0.55799 0.0
N53 N 0.77297 0.65091 0.63692 0.0
N54 N 0.73298 0.61909 0.58856 0.0
C55 C 0.78233 0.66704 0.60057 0.0
C56 C 0.74855 0.62677 0.63131 0.0
C57 C 0.74185 0.63511 0.55167 0.0
C58 C 0.80832 0.69383 0.60772 0.0
C59 C 0.82721 0.70431 0.57244 0.0
C60 C 0.85132 0.72992 0.57932 0.0
C61 C 0.85653 0.74567 0.62133 0.0
C62 C 0.83781 0.73536 0.65659 0.0
C63 C 0.81412 0.70948 0.65 0.0
C64 C 0.738 0.61007 0.67171 0.0
C65 C 0.75063 0.62107 0.71582 0.0
C66 C 0.73906 0.60685 0.75392 0.0
C67 C 0.71477 0.58113 0.74901 0.0
C68 C 0.7031 0.56931 0.70516 0.0
C69 C 0.71448 0.5837 0.66686 0.0
C70 C 0.72342 0.62751 0.50526 0.0
C71 C 0.69607 0.60418 0.49901 0.0
C72 C 0.8031 0.07269 0.88512 0.0
C73 C 0.79 0.08221 0.84044 0.0
C74 C 0.76347 0.10606 0.83371 0.0
C75 C 0.75184 0.12135 0.87098 0.0
H76 H 0.70058 0.20362 0.90334 0.0
H77 H 0.66664 0.25333 0.89255 0.0
H78 H 0.67487 0.26429 0.03841 0.0
H79 H 0.70904 0.21535 0.04933 0.0
H80 H 0.76567 0.17607 0.11264 0.0
H81 H 0.79504 0.1632 0.18898 0.0
H82 H 0.83577 0.07616 0.1386 0.0
H83 H 0.8061 0.08869 0.06229 0.0
H84 H 0.80299 0.08047 0.95623 0.0
H85 H 0.82327 0.0541 0.89131 0.0
H86 H 0.75309 0.11405 0.79968 0.0
H87 H 0.73235 0.14045 0.86455 0.0
N88 N 0.73638 0.15799 0.94861 0.0
N89 N 0.74494 0.16776 0.02714 0.0
N90 N 0.77232 0.12365 0.99825 0.0
C91 C 0.72987 0.17614 0.98445 0.0
C92 C 0.76614 0.14157 0.03442 0.0
C93 C 0.75749 0.13162 0.95523 0.0
C94 C 0.70785 0.20551 0.97724 0.0
C95 C 0.69511 0.21662 0.93311 0.0
C96 C 0.67559 0.24507 0.92686 0.0
C97 C 0.66853 0.26299 0.96457 0.0
C98 C 0.68063 0.25149 0.00857 0.0
C99 C 0.70006 0.22321 0.01483 0.0
C100 C 0.78343 0.13341 0.08113 0.0
C101 C 0.78074 0.1541 0.11773 0.0
C102 C 0.79778 0.14686 0.16152 0.0
C103 C 0.81772 0.11869 0.16984 0.0
C104 C 0.82023 0.09789 0.13339 0.0
C105 C 0.80336 0.10519 0.08955 0.0
C106 C 0.76642 0.11301 0.91577 0.0
C107 C 0.7914 0.08784 0.92234 0.0
C108 C 0.32715 0.42341 0.62067 0.0
C109 C 0.31973 0.40565 0.65863 0.0
C110 C 0.29531 0.38006 0.65163 0.0
C111 C 0.27873 0.37241 0.60781 0.0
H112 H 0.24305 0.29258 0.52216 0.0
H113 H 0.21171 0.24183 0.50719 0.0
H114 H 0.14313 0.28349 0.39343 0.0
H115 H 0.1751 0.33425 0.40745 0.0
H116 H 0.20938 0.40287 0.3661 0.0
H117 H 0.22263 0.42873 0.29666 0.0
H118 H 0.32987 0.45308 0.36366 0.0
H119 H 0.31555 0.42895 0.43364 0.0
H120 H 0.31693 0.43004 0.54852 0.0
H121 H 0.34625 0.44297 0.62466 0.0
H122 H 0.28855 0.36617 0.68011 0.0
H123 H 0.25992 0.35263 0.60386 0.0
N124 N 0.24815 0.35518 0.51626 0.0
N125 N 0.23491 0.36741 0.43861 0.0
N126 N 0.27214 0.40136 0.48734 0.0
C127 C 0.23143 0.34768 0.47401 0.0
C128 C 0.25534 0.39419 0.44494 0.0
C129 C 0.26823 0.38216 0.52337 0.0
C130 C 0.21148 0.31739 0.466 0.0
C131 C 0.22131 0.29095 0.49394 0.0
C132 C 0.20369 0.26186 0.48514 0.0
C133 C 0.17542 0.25883 0.44886 0.0
C134 C 0.1651 0.2853 0.42135 0.0
C135 C 0.18332 0.31425 0.42946 0.0
C136 C 0.26156 0.41362 0.40512 0.0
C137 C 0.23552 0.41431 0.3661 0.0
C138 C 0.24327 0.42896 0.32617 0.0
C139 C 0.27761 0.4426 0.32394 0.0
C140 C 0.30296 0.44327 0.36388 0.0
C141 C 0.29486 0.42922 0.40413 0.0
C142 C 0.28604 0.39023 0.56986 0.0
C143 C 0.31045 0.41586 0.57687 0.0
O144 O 0.97685 0.06782 0.62736 0.0
Mg145 Mg 0.02863 0.0676 0.60788 0.0
O146 O 0.9596 0.02473 0.58748 0.0
Mg147 Mg 0.00508 0.01138 0.54219 0.0
O148 O 0.0292 0.06201 0.53996 0.0
O149 O 0.04666 0.10669 0.57737 0.0
O150 O 0.05076 0.99735 0.49824 0.0
O151 O 0.96557 0.02969 0.47892 0.0
Mg152 Mg 0.97941 0.95934 0.47418 0.0
O153 O 0.98044 0.96028 0.54363 0.0
O154 O 0.03168 0.95597 0.45546 0.0
O155 O 0.94213 0.98983 0.43671 0.0
O156 O 0.95893 0.91953 0.49913 0.0
C157 C 0.06592 0.00753 0.63945 0.0
C158 C 0.95377 0.04619 0.616 0.0
C159 C 0.0426 0.09052 0.54011 0.0
C160 C 0.0561 0.97591 0.46953 0.0
C161 C 0.94415 0.01925 0.44487 0.0
C162 C 0.96642 0.93193 0.53905 0.0
O163 O 0.06614 0.03733 0.64504 0.0
O164 O 0.04524 0.99467 0.60643 0.0
O165 O 0.54127 0.49379 0.15438 0.0
Mg166 Mg 0.50968 0.46079 0.11312 0.0
O167 O 0.53089 0.53395 0.10589 0.0
Mg168 Mg 0.4956 0.51465 0.03958 0.0
O169 O 0.52057 0.46447 0.04768 0.0
O170 O 0.53442 0.42165 0.0911 0.0
O171 O 0.46053 0.49442 0.97371 0.0
O172 O 0.5457 0.52491 1.00004 0.0
Mg173 Mg 0.48046 0.56563 0.96713 0.0
O174 O 0.47041 0.56547 0.03306 0.0
O175 O 0.44823 0.5339 0.92491 0.0
O176 O 0.53541 0.56907 0.96013 0.0
O177 O 0.45602 0.60568 0.98413 0.0
C178 C 0.43388 0.48218 0.10277 0.0
C179 C 0.54541 0.52271 0.14422 0.0
C180 C 0.53447 0.43625 0.05279 0.0
C181 C 0.4452 0.50498 0.93541 0.0
C182 C 0.55633 0.54658 0.97459 0.0
C183 C 0.45701 0.59369 0.0244 0.0
O184 O 0.45398 0.45928 0.11774 0.0
O185 O 0.4453 0.50397 0.0782 0.0
H186 H 0.10364 0.24894 0.45117 0.0
H187 H 0.20333 0.20048 0.434 0.0
H188 H 0.17157 0.14877 0.43377 0.0
H189 H 0.08143 0.20087 0.53212 0.0
H190 H 0.03288 0.20169 0.51587 0.0
H191 H 0.06013 0.23411 0.50072 0.0
H192 H 0.03363 0.22666 0.41585 0.0
H193 H 0.00657 0.19368 0.43094 0.0
H194 H 0.03705 0.18861 0.38913 0.0
H195 H 0.13282 0.10282 0.45002 0.0
H196 H 0.09491 0.06844 0.49239 0.0
H197 H 0.02143 0.14661 0.50279 0.0
C198 C 0.11819 0.22743 0.44532 0.0
C199 C 0.15555 0.22847 0.44165 0.0
C200 C 0.17447 0.19998 0.43619 0.0
C201 C 0.15655 0.17059 0.43563 0.0
C202 C 0.11976 0.17015 0.44074 0.0
C203 C 0.10083 0.19795 0.44566 0.0
C204 C 0.06392 0.19117 0.45965 0.0
C205 C 0.05938 0.20791 0.50476 0.0
C206 C 0.03349 0.20059 0.42161 0.0
C207 C 0.06604 0.15548 0.46516 0.0
C208 C 0.0977 0.14354 0.45207 0.0
C209 C 0.10755 0.11174 0.45928 0.0
C210 C 0.08574 0.09224 0.48302 0.0
C211 C 0.05513 0.10498 0.49995 0.0
C212 C 0.0442 0.13632 0.48882 0.0
H213 H 0.33641 0.73666 0.06587 0.0
H214 H 0.41819 0.76356 0.17763 0.0
H215 H 0.44567 0.71 0.1764 0.0
H216 H 0.32951 0.65084 0.09634 0.0
H217 H 0.32425 0.63952 0.03722 0.0
H218 H 0.30727 0.67726 0.05345 0.0
H219 H 0.34521 0.70617 0.99845 0.0
H220 H 0.36182 0.66866 0.98179 0.0
H221 H 0.39345 0.69921 0.00366 0.0
H222 H 0.46962 0.65643 0.15388 0.0
H223 H 0.48917 0.61117 0.10956 0.0
H224 H 0.39149 0.62083 0.01303 0.0
C225 C 0.35975 0.7311 0.09064 0.0
C226 C 0.37534 0.75417 0.12168 0.0
C227 C 0.40573 0.74605 0.15375 0.0
C228 C 0.42138 0.71568 0.15336 0.0
C229 C 0.40587 0.69369 0.12122 0.0
C230 C 0.37552 0.70114 0.09065 0.0
C231 C 0.36636 0.67531 0.05584 0.0
C232 C 0.32967 0.65981 0.06105 0.0
C233 C 0.36678 0.6881 0.0071 0.0
C234 C 0.39741 0.65278 0.06986 0.0
C235 C 0.41952 0.66317 0.10836 0.0
C236 C 0.45202 0.64769 0.12443 0.0
C237 C 0.46286 0.62191 0.09934 0.0
C238 C 0.44143 0.61251 0.0585 0.0
C239 C 0.4078 0.62729 0.04481 0.0
H240 H 0.83571 0.80706 0.61233 0.0
H241 H 0.93025 0.74695 0.64108 0.0
H242 H 0.97024 0.79426 0.64309 0.0
H243 H 0.86855 0.85307 0.53437 0.0
H244 H 0.84822 0.88978 0.54903 0.0
H245 H 0.8279 0.8527 0.56141 0.0
H246 H 0.83196 0.86899 0.64628 0.0
H247 H 0.853 0.90609 0.63404 0.0
H248 H 0.87526 0.88001 0.67735 0.0
H249 H -0.00054 0.846 0.6294 0.0
H250 H 0.01519 0.89512 0.59071 0.0
H251 H 0.90188 0.92158 0.56819 0.0
C252 C 0.86482 0.80422 0.62061 0.0
C253 C 0.88019 0.77381 0.62744 0.0
C254 C 0.91826 0.77035 0.63655 0.0
C255 C 0.94103 0.79707 0.63809 0.0
C256 C 0.92515 0.82696 0.63053 0.0
C257 C 0.88783 0.83062 0.62178 0.0
C258 C 0.87767 0.86426 0.60735 0.0
C259 C 0.85426 0.86497 0.56025 0.0
C260 C 0.85833 0.88081 0.64341 0.0
C261 C 0.91502 0.87839 0.60595 0.0
C262 C 0.94212 0.85693 0.62139 0.0
C263 C 0.9786 0.86331 0.61848 0.0
C264 C 0.9874 0.8914 0.59687 0.0
C265 C 0.95976 0.91236 0.57796 0.0
C266 C 0.92347 0.90647 0.5843 0.0
H267 H 0.68409 0.3176 0.01237 0.0
H268 H 0.60712 0.27696 0.90498 0.0
H269 H 0.56951 0.32541 0.90389 0.0
H270 H 0.62159 0.34516 0.07461 0.0
H271 H 0.64593 0.38061 0.09445 0.0
H272 H 0.67041 0.34673 0.07857 0.0
H273 H 0.69992 0.38148 0.02111 0.0
H274 H 0.67508 0.41554 0.03669 0.0
H275 H 0.67142 0.40351 0.97794 0.0
H276 H 0.53482 0.37357 0.92492 0.0
H277 H 0.50582 0.41401 0.96885 0.0
H278 H 0.60503 0.42194 0.06293 0.0
C279 C 0.65972 0.31917 0.98789 0.0
C280 C 0.64851 0.29353 0.9588 0.0
C281 C 0.61649 0.2965 0.9272 0.0
C282 C 0.59498 0.32397 0.92632 0.0
C283 C 0.60616 0.34839 0.95681 0.0
C284 C 0.63801 0.34621 0.98681 0.0
C285 C 0.6417 0.37319 0.02058 0.0
C286 C 0.64506 0.36067 0.06992 0.0
C287 C 0.67395 0.39471 0.01364 0.0
C288 C 0.60598 0.38994 0.00675 0.0
C289 C 0.58616 0.37597 0.96906 0.0
C290 C 0.55049 0.38525 0.9536 0.0
C291 C 0.53425 0.40834 0.97846 0.0
C292 C 0.55368 0.42133 0.01841 0.0
C293 C 0.59022 0.41291 0.03157 0.0
H294 H 0.18377 0.9952 0.27941 0.0
H295 H 0.23188 0.90555 0.32809 0.0
H296 H 0.20023 0.90855 0.3955 0.0
H297 H 0.18288 0.0316 0.39512 0.0
H298 H 0.13969 0.05049 0.37812 0.0
H299 H 0.17055 0.04431 0.33698 0.0
H300 H 0.1204 0.01394 0.28486 0.0
H301 H 0.08942 0.02022 0.32555 0.0
H302 H 0.0983 0.98051 0.30755 0.0
H303 H 0.15704 0.91633 0.45053 0.0
H304 H 0.10443 0.9289 0.49005 0.0
H305 H 0.08435 0.01409 0.40863 0.0
C306 C 0.18817 0.97655 0.30475 0.0
C307 C 0.21079 0.95037 0.29871 0.0
C308 C 0.21552 0.92626 0.33242 0.0
C309 C 0.19755 0.92769 0.37087 0.0
C310 C 0.17515 0.95355 0.37554 0.0
C311 C 0.17053 0.97771 0.34366 0.0
C312 C 0.14241 0.00137 0.35506 0.0
C313 C 0.15994 0.03387 0.36703 0.0
C314 C 0.11076 0.00414 0.31594 0.0
C315 C 0.13052 0.98571 0.39675 0.0
C316 C 0.15032 0.95844 0.4084 0.0
C317 C 0.14205 0.93809 0.44269 0.0
C318 C 0.11226 0.94539 0.46498 0.0
C319 C 0.09136 0.97285 0.4531 0.0
C320 C 0.10097 0.99362 0.41931 0.0
H321 H 0.68773 0.61518 0.81442 0.0
H322 H 0.70582 0.51867 0.77289 0.0
H323 H 0.67597 0.4985 0.83721 0.0
H324 H 0.69788 0.6009 0.9395 0.0
H325 H 0.66184 0.62828 0.94638 0.0
H326 H 0.68984 0.63466 0.90204 0.0
H327 H 0.63241 0.63594 0.84159 0.0
H328 H 0.60438 0.62992 0.88565 0.0
H329 H 0.60105 0.60304 0.83807 0.0
H330 H 0.63831 0.48936 0.90168 0.0
H331 H 0.5911 0.49238 0.95307 0.0
H332 H 0.59768 0.59502 0.95039 0.0
C333 C 0.68647 0.58979 0.81971 0.0
C334 C 0.69956 0.56846 0.78919 0.0
C335 C 0.69608 0.53539 0.79611 0.0
C336 C 0.67948 0.52376 0.83275 0.0
C337 C 0.66654 0.54553 0.86208 0.0
C338 C 0.66977 0.57789 0.85568 0.0
C339 C 0.64983 0.59649 0.88801 0.0
C340 C 0.67645 0.61624 0.92094 0.0
C341 C 0.62017 0.61755 0.86176 0.0
C342 C 0.63367 0.56963 0.91258 0.0
C343 C 0.64427 0.54035 0.89814 0.0
C344 C 0.63031 0.51216 0.91372 0.0
C345 C 0.60371 0.51406 0.94316 0.0
C346 C 0.59099 0.54394 0.95578 0.0
C347 C 0.60727 0.57188 0.94166 0.0
H348 H 0.81998 0.06123 0.21348 0.0
H349 H 0.85711 0.15866 0.23089 0.0
H350 H 0.88939 0.14513 0.30704 0.0
H351 H 0.80768 0.04677 0.33205 0.0
H352 H 0.82361 0.00645 0.33111 0.0
H353 H 0.80119 0.02452 0.27971 0.0
H354 H 0.85672 0.01185 0.23852 0.0
H355 H 0.87914 0.9936 0.28963 0.0
H356 H 0.9012 0.02532 0.26294 0.0
H357 H 0.92122 0.11965 0.37941 0.0
H358 H 0.95057 0.08428 0.44031 0.0
H359 H 0.892 0.00402 0.37431 0.0
C360 C 0.8348 0.07977 0.23333 0.0
C361 C 0.83599 0.11101 0.21628 0.0
C362 C 0.85545 0.13464 0.24353 0.0
C363 C 0.87392 0.12717 0.28676 0.0
C364 C 0.87241 0.09603 0.30238 0.0
C365 C 0.85323 0.07276 0.27646 0.0
C366 C 0.85706 0.04083 0.29994 0.0
C367 C 0.82019 0.02895 0.31138 0.0
C368 C 0.87458 0.01648 0.27104 0.0
C369 C 0.88222 0.04953 0.34255 0.0
C370 C 0.89052 0.08151 0.34374 0.0
C371 C 0.91459 0.09463 0.37905 0.0
C372 C 0.93107 0.07438 0.41355 0.0
C373 C 0.92355 0.04138 0.41217 0.0
C374 C 0.89826 0.02912 0.37656 0.0
H375 H 0.33326 0.46506 0.69473 0.0
H376 H 0.34632 0.36503 0.72812 0.0
H377 H 0.37661 0.37912 0.80491 0.0
H378 H 0.41974 0.48928 0.74977 0.0
H379 H 0.40367 0.52662 0.76869 0.0
H380 H 0.38101 0.50838 0.71777 0.0
H381 H 0.32002 0.51014 0.75106 0.0
H382 H 0.34256 0.52829 0.80221 0.0
H383 H 0.31703 0.49215 0.80569 0.0
H384 H 0.40836 0.40477 0.87761 0.0
H385 H 0.43917 0.43966 0.93822 0.0
H386 H 0.40544 0.52209 0.85499 0.0
C387 C 0.34256 0.44604 0.71802 0.0
C388 C 0.33733 0.41392 0.70527 0.0
C389 C 0.34953 0.38983 0.73723 0.0
C390 C 0.36691 0.39759 0.78089 0.0
C391 C 0.37186 0.42954 0.79214 0.0
C392 C 0.35999 0.45333 0.76152 0.0
C393 C 0.36963 0.4858 0.78109 0.0
C394 C 0.39502 0.50355 0.75264 0.0
C395 C 0.33526 0.50523 0.78526 0.0
C396 C 0.38913 0.4766 0.82734 0.0
C397 C 0.39005 0.44411 0.83341 0.0
C398 C 0.4076 0.43028 0.87329 0.0
C399 C 0.42497 0.45025 0.90755 0.0
C400 C 0.42476 0.48361 0.90146 0.0
C401 C 0.40616 0.49671 0.86093 0.0
H402 H 0.66591 0.55611 0.38161 0.0
H403 H 0.66221 0.65656 0.3488 0.0
H404 H 0.62772 0.64451 0.27337 0.0
H405 H 0.67532 0.52741 0.2694 0.0
H406 H 0.64673 0.49331 0.27433 0.0
H407 H 0.67257 0.51003 0.32448 0.0
H408 H 0.61352 0.5165 0.36121 0.0
H409 H 0.58755 0.49976 0.31123 0.0
H410 H 0.57592 0.53827 0.33116 0.0
H411 H 0.59096 0.62079 0.20177 0.0
H412 H 0.55602 0.58771 0.14191 0.0
H413 H 0.5841 0.50375 0.22436 0.0
C414 C 0.65779 0.57566 0.35873 0.0
C415 C 0.66677 0.60729 0.37124 0.0
C416 C 0.65604 0.63208 0.33982 0.0
C417 C 0.63628 0.62548 0.29697 0.0
C418 C 0.62756 0.59399 0.28601 0.0
C419 C 0.6381 0.56953 0.31609 0.0
C420 C 0.62475 0.5378 0.29698 0.0
C421 C 0.65675 0.51585 0.29093 0.0
C422 C 0.5989 0.52218 0.32692 0.0
C423 C 0.60473 0.54816 0.25157 0.0
C424 C 0.60664 0.58059 0.24552 0.0
C425 C 0.58945 0.59535 0.20615 0.0
C426 C 0.56969 0.5764 0.17232 0.0
C427 C 0.56723 0.54313 0.17833 0.0
C428 C 0.58529 0.52908 0.21848 0.0
H429 H 0.86206 0.07599 0.83626 0.0
H430 H 0.7566 0.0624 0.75626 0.0
H431 H 0.78674 0.04645 0.69004 0.0
H432 H 0.90276 0.11174 0.75102 0.0
H433 H 0.94678 0.09422 0.7676 0.0
H434 H 0.91675 0.10035 0.80943 0.0
H435 H 0.92076 0.04062 0.8308 0.0
H436 H 0.95102 0.03429 0.78908 0.0
H437 H 0.90994 0.0112 0.78699 0.0
H438 H 0.83021 0.03448 0.63094 0.0
H439 H 0.88171 0.03193 0.58521 0.0
H440 H 0.95634 0.05598 0.70559 0.0
C441 C 0.84522 0.06877 0.80526 0.0
C442 C 0.80704 0.0699 0.80156 0.0
C443 C 0.78597 0.06148 0.7598 0.0
C444 C 0.80285 0.05227 0.72216 0.0
C445 C 0.84074 0.05177 0.7269 0.0
C446 C 0.86152 0.05992 0.76756 0.0
C447 C 0.90151 0.06037 0.76342 0.0
C448 C 0.91788 0.09364 0.77344 0.0
C449 C 0.922 0.03511 0.79441 0.0
C450 C 0.90016 0.05184 0.71386 0.0
C451 C 0.8651 0.04633 0.6932 0.0
C452 C 0.85775 0.03866 0.64694 0.0
C453 C 0.88701 0.03719 0.62124 0.0
C454 C 0.92272 0.04409 0.64194 0.0
C455 C 0.92917 0.05092 0.68884 0.0
H456 H 0.32397 0.49146 0.30719 0.0
H457 H 0.25707 0.41627 0.23968 0.0
H458 H 0.28088 0.42818 0.16835 0.0
H459 H 0.32433 0.54516 0.20459 0.0
H460 H 0.37142 0.55524 0.22124 0.0
H461 H 0.3426 0.5467 0.26407 0.0
H462 H 0.38747 0.50323 0.29846 0.0
H463 H 0.4164 0.5118 0.25616 0.0
H464 H 0.39996 0.47194 0.26227 0.0
H465 H 0.3202 0.43979 0.10954 0.0
H466 H 0.37348 0.44927 0.06955 0.0
H467 H 0.41636 0.51606 0.17378 0.0
C468 C 0.31369 0.4779 0.27723 0.0
C469 C 0.28821 0.4531 0.27939 0.0
C470 C 0.27571 0.43599 0.23912 0.0
C471 C 0.28922 0.44252 0.19819 0.0
C472 C 0.31521 0.46632 0.19771 0.0
C473 C 0.32724 0.48388 0.23615 0.0
C474 C 0.35908 0.50484 0.22849 0.0
C475 C 0.34872 0.54008 0.22966 0.0
C476 C 0.39269 0.49748 0.26338 0.0
C477 C 0.36452 0.4948 0.18082 0.0
C478 C 0.33825 0.4732 0.16317 0.0
C479 C 0.3402 0.45746 0.12222 0.0
C480 C 0.3704 0.46303 0.0996 0.0
C481 C 0.39802 0.4842 0.11793 0.0
C482 C 0.39455 0.50094 0.15821 0.0
H483 H 0.18776 0.98174 0.87773 0.0
H484 H 0.17555 0.88016 0.8577 0.0
H485 H 0.14176 0.88957 0.78101 0.0
H486 H 0.09982 0.003 0.82433 0.0
H487 H 0.11487 0.03891 0.79946 0.0
H488 H 0.13938 0.02372 0.85153 0.0
H489 H 0.19863 0.02304 0.81429 0.0
H490 H 0.17421 0.03806 0.76197 0.0
H491 H 0.19962 0.00168 0.76185 0.0
H492 H 0.10594 0.91084 0.70744 0.0
H493 H 0.07208 0.94212 0.64451 0.0
H494 H 0.10979 0.02901 0.71416 0.0
C495 C 0.17793 0.96145 0.85728 0.0
C496 C 0.18426 0.93024 0.87367 0.0
C497 C 0.17132 0.90431 0.8456 0.0
C498 C 0.15202 0.90941 0.80207 0.0
C499 C 0.14613 0.94056 0.78703 0.0
C500 C 0.15887 0.9661 0.81384 0.0
C501 C 0.14839 0.99725 0.79048 0.0
C502 C 0.12417 0.01686 0.81809 0.0
C503 C 0.18223 0.0161 0.78162 0.0
C504 C 0.12735 0.98532 0.74659 0.0
C505 C 0.12628 0.9526 0.74493 0.0
C506 C 0.10691 0.9365 0.70821 0.0
C507 C 0.08781 0.95443 0.67261 0.0
C508 C 0.08835 0.98802 0.67417 0.0
C509 C 0.1089 0.00339 0.71149 0.0
loop_
_geom_bond_atom_site_label_1
_geom_bond_atom_site_label_2
_geom_bond_distance
_geom_bond_site_symmetry_2
_ccdc_geom_bond_type
C0 C1 1.384 . S
C0 H13 0.947 . S
C0 C35 1.382 . S
C1 C0 1.384 . S
C1 C2 1.378 . S
C2 C1 1.378 . S
C2 C3 1.378 . S
C2 H14 0.952 . S
C3 C2 1.378 . S
C3 H15 0.950 . S
C3 C34 1.383 . S
H4 C23 0.947 . S
H5 C24 0.946 . S
H6 C26 0.953 . S
H7 C27 0.945 . S
H8 C29 0.952 . S
H9 C30 0.949 . S
H10 C32 0.950 . S
H11 C33 0.948 . S
H12 C35 0.951 . S
H13 C0 0.947 . S
H14 C2 0.952 . S
H15 C3 0.950 . S
N16 C19 1.382 . S
N16 C21 1.363 . S
N17 C19 1.371 . S
N17 C20 1.372 . S
N18 C20 1.361 . S
N18 C21 1.377 . S
C19 N16 1.382 . S
C19 N17 1.371 . S
C19 C22 1.480 . S
C20 N17 1.372 . S
C20 N18 1.361 . S
C20 C28 1.464 . S
C21 N16 1.363 . S
C21 N18 1.377 . S
C21 C34 1.479 . S
C22 C19 1.480 . S
C22 C23 1.383 . S
C22 C27 1.385 . S
C23 H4 0.947 . S
C23 C22 1.383 . S
C23 C24 1.388 . S
C24 H5 0.946 . S
C24 C23 1.388 . S
C24 C25 1.384 . S
C25 C24 1.384 . S
C25 C26 1.377 . S
C26 H6 0.953 . S
C26 C25 1.377 . S
C26 C27 1.369 . S
C27 H7 0.945 . S
C27 C22 1.385 . S
C27 C26 1.369 . S
C28 C20 1.464 . S
C28 C29 1.365 1_554 S
C28 C33 1.365 . S
C29 H8 0.952 . S
C29 C28 1.365 1_556 S
C29 C30 1.389 . S
C30 H9 0.949 . S
C30 C29 1.389 . S
C30 C31 1.387 . S
C31 C30 1.387 . S
C31 C32 1.372 . S
C32 H10 0.950 . S
C32 C31 1.372 . S
C32 C33 1.379 1_556 S
C33 H11 0.948 . S
C33 C28 1.365 . S
C33 C32 1.379 1_554 S
C34 C3 1.383 . S
C34 C21 1.479 . S
C34 C35 1.398 . S
C35 C0 1.382 . S
C35 H12 0.951 . S
C35 C34 1.398 . S
C36 C37 1.384 . S
C36 H49 0.947 . S
C36 C71 1.382 . S
C37 C36 1.384 . S
C37 C38 1.378 . S
C38 C37 1.378 . S
C38 C39 1.378 . S
C38 H50 0.952 . S
C39 C38 1.378 . S
C39 H51 0.950 . S
C39 C70 1.383 . S
H40 C59 0.947 . S
H41 C60 0.946 . S
H42 C62 0.953 . S
H43 C63 0.945 . S
H44 C65 0.952 . S
H45 C66 0.949 . S
H46 C68 0.950 . S
H47 C69 0.948 . S
H48 C71 0.951 . S
H49 C36 0.947 . S
H50 C38 0.952 . S
H51 C39 0.950 . S
N52 C55 1.382 . S
N52 C57 1.363 . S
N53 C55 1.371 . S
N53 C56 1.372 . S
N54 C56 1.361 . S
N54 C57 1.377 . S
C55 N52 1.382 . S
C55 N53 1.371 . S
C55 C58 1.480 . S
C56 N53 1.372 . S
C56 N54 1.361 . S
C56 C64 1.457 . S
C57 N52 1.363 . S
C57 N54 1.377 . S
C57 C70 1.479 . S
C58 C55 1.480 . S
C58 C59 1.383 . S
C58 C63 1.385 . S
C59 H40 0.947 . S
C59 C58 1.383 . S
C59 C60 1.388 . S
C60 H41 0.946 . S
C60 C59 1.388 . S
C60 C61 1.384 . S
C61 C60 1.384 . S
C61 C62 1.377 . S
C62 H42 0.953 . S
C62 C61 1.377 . S
C62 C63 1.369 . S
C63 H43 0.945 . S
C63 C58 1.385 . S
C63 C62 1.369 . S
C64 C56 1.457 . S
C64 C65 1.372 . S
C64 C69 1.364 . S
C65 H44 0.952 . S
C65 C64 1.372 . S
C65 C66 1.389 . S
C66 H45 0.949 . S
C66 C65 1.389 . S
C66 C67 1.387 . S
C67 C66 1.387 . S
C67 C68 1.372 . S
C68 H46 0.950 . S
C68 C67 1.372 . S
C68 C69 1.379 . S
C69 H47 0.948 . S
C69 C64 1.364 . S
C69 C68 1.379 . S
C70 C39 1.383 . S
C70 C57 1.479 . S
C70 C71 1.398 . S
C71 C36 1.382 . S
C71 H48 0.951 . S
C71 C70 1.398 . S
C72 C73 1.384 . S
C72 H85 0.947 . S
C72 C107 1.382 . S
C73 C72 1.384 . S
C73 C74 1.378 . S
C74 C73 1.378 . S
C74 C75 1.378 . S
C74 H86 0.952 . S
C75 C74 1.378 . S
C75 H87 0.950 . S
C75 C106 1.383 . S
H76 C95 0.947 . S
H77 C96 0.946 . S
H78 C98 0.953 . S
H79 C99 0.945 . S
H80 C101 0.952 . S
H81 C102 0.949 . S
H82 C104 0.950 . S
H83 C105 0.948 . S
H84 C107 0.951 . S
H85 C72 0.947 . S
H86 C74 0.952 . S
H87 C75 0.950 . S
N88 C91 1.382 1_556 S
N88 C93 1.363 . S
N89 C91 1.371 . S
N89 C92 1.372 . S
N90 C92 1.361 . S
N90 C93 1.377 1_554 S
C91 N88 1.382 1_554 S
C91 N89 1.371 . S
C91 C94 1.480 . S
C92 N89 1.372 . S
C92 N90 1.361 . S
C92 C100 1.457 . S
C93 N88 1.363 . S
C93 N90 1.377 1_556 S
C93 C106 1.479 . S
C94 C91 1.480 . S
C94 C95 1.382 1_554 S
C94 C99 1.385 . S
C95 H76 0.947 . S
C95 C94 1.382 1_556 S
C95 C96 1.388 . S
C96 H77 0.946 . S
C96 C95 1.388 . S
C96 C97 1.384 . S
C97 C96 1.384 . S
C97 C98 1.377 1_556 S
C98 H78 0.953 . S
C98 C97 1.377 1_554 S
C98 C99 1.369 . S
C99 H79 0.945 . S
C99 C94 1.385 . S
C99 C98 1.369 . S
C100 C92 1.457 . S
C100 C101 1.372 . S
C100 C105 1.364 . S
C101 H80 0.952 . S
C101 C100 1.372 . S
C101 C102 1.389 . S
C102 H81 0.949 . S
C102 C101 1.389 . S
C102 C103 1.387 . S
C103 C102 1.387 . S
C103 C104 1.372 . S
C104 H82 0.950 . S
C104 C103 1.372 . S
C104 C105 1.379 . S
C105 H83 0.948 . S
C105 C100 1.364 . S
C105 C104 1.379 . S
C106 C75 1.383 . S
C106 C93 1.479 . S
C106 C107 1.398 . S
C107 C72 1.382 . S
C107 H84 0.951 . S
C107 C106 1.398 . S
C108 C109 1.384 . S
C108 H121 0.947 . S
C108 C143 1.382 . S
C109 C108 1.384 . S
C109 C110 1.378 . S
C110 C109 1.378 . S
C110 C111 1.378 . S
C110 H122 0.952 . S
C111 C110 1.378 . S
C111 H123 0.950 . S
C111 C142 1.383 . S
H112 C131 0.947 . S
H113 C132 0.946 . S
H114 C134 0.953 . S
H115 C135 0.945 . S
H116 C137 0.952 . S
H117 C138 0.949 . S
H118 C140 0.950 . S
H119 C141 0.948 . S
H120 C143 0.951 . S
H121 C108 0.947 . S
H122 C110 0.952 . S
H123 C111 0.950 . S
N124 C127 1.382 . S
N124 C129 1.363 . S
N125 C127 1.371 . S
N125 C128 1.372 . S
N126 C128 1.361 . S
N126 C129 1.377 . S
C127 N124 1.382 . S
C127 N125 1.371 . S
C127 C130 1.480 . S
C128 N125 1.372 . S
C128 N126 1.361 . S
C128 C136 1.457 . S
C129 N124 1.363 . S
C129 N126 1.377 . S
C129 C142 1.479 . S
C130 C127 1.480 . S
C130 C131 1.383 . S
C130 C135 1.385 . S
C131 H112 0.947 . S
C131 C130 1.383 . S
C131 C132 1.388 . S
C132 H113 0.946 . S
C132 C131 1.388 . S
C132 C133 1.384 . S
C133 C132 1.384 . S
C133 C134 1.377 . S
C134 H114 0.953 . S
C134 C133 1.377 . S
C134 C135 1.369 . S
C135 H115 0.945 . S
C135 C130 1.385 . S
C135 C134 1.369 . S
C136 C128 1.457 . S
C136 C137 1.372 . S
C136 C141 1.364 . S
C137 H116 0.952 . S
C137 C136 1.372 . S
C137 C138 1.389 . S
C138 H117 0.949 . S
C138 C137 1.389 . S
C138 C139 1.387 . S
C139 C138 1.387 . S
C139 C140 1.372 . S
C140 H118 0.950 . S
C140 C139 1.372 . S
C140 C141 1.379 . S
C141 H119 0.948 . S
C141 C136 1.364 . S
C141 C140 1.379 . S
C142 C111 1.383 . S
C142 C129 1.479 . S
C142 C143 1.398 . S
C143 C108 1.382 . S
C143 H120 0.951 . S
C143 C142 1.398 . S
O144 Mg145 1.990 1_655 S
O144 C158 1.253 . S
Mg145 O144 1.990 1_455 S
Mg145 O148 2.180 . S
Mg145 O149 2.117 . S
Mg145 O163 2.030 . S
O146 Mg147 2.072 1_655 S
O146 C158 1.260 . S
Mg147 O146 2.072 1_455 S
Mg147 O148 2.099 . S
Mg147 O150 2.079 1_545 S
Mg147 O151 2.072 1_455 S
Mg147 O153 2.099 1_445 S
Mg147 O164 2.079 1_545 S
O148 Mg145 2.180 . S
O148 Mg147 2.099 . S
O148 C159 1.279 . S
O149 Mg145 2.117 . S
O149 C159 1.250 . S
O150 Mg147 2.079 1_565 S
O150 C160 1.264 . S
O151 Mg147 2.072 1_655 S
O151 C161 1.260 . S
Mg152 O153 2.180 . S
Mg152 O154 2.030 1_655 S
Mg152 O155 1.990 1_565 S
Mg152 O156 2.117 . S
O153 Mg147 2.099 1_665 S
O153 Mg152 2.180 . S
O153 C162 1.279 . S
O154 Mg152 2.030 1_455 S
O154 C160 1.248 . S
O155 Mg152 1.990 1_545 S
O155 C161 1.253 . S
O156 Mg152 2.117 . S
O156 C162 1.250 . S
C157 O163 1.248 1_565 S
C157 O164 1.264 . S
C158 O144 1.253 . S
C158 O146 1.260 . S
C159 O148 1.279 . S
C159 O149 1.250 . S
C160 O150 1.264 . S
C160 O154 1.248 . S
C161 O151 1.260 . S
C161 O155 1.253 . S
C162 O153 1.279 . S
C162 O156 1.250 . S
O163 Mg145 2.030 . S
O163 C157 1.248 1_545 S
O164 Mg147 2.079 1_565 S
O164 C157 1.264 . S
O165 Mg166 1.990 . S
O165 C179 1.253 . S
Mg166 O165 1.990 . S
Mg166 O169 2.180 . S
Mg166 O170 2.117 . S
Mg166 O184 2.030 . S
O167 Mg168 2.072 . S
O167 C179 1.260 . S
Mg168 O167 2.072 . S
Mg168 O169 2.099 . S
Mg168 O171 2.079 1_554 S
Mg168 O172 2.072 1_554 S
Mg168 O174 2.099 . S
Mg168 O185 2.079 . S
O169 Mg166 2.180 . S
O169 Mg168 2.099 . S
O169 C180 1.279 . S
O170 Mg166 2.117 . S
O170 C180 1.250 . S
O171 Mg168 2.079 1_556 S
O171 C181 1.264 . S
O172 Mg168 2.072 1_556 S
O172 C182 1.260 . S
Mg173 O174 2.180 1_556 S
Mg173 O175 2.030 . S
Mg173 O176 1.990 . S
Mg173 O177 2.117 . S
O174 Mg168 2.099 . S
O174 Mg173 2.180 1_554 S
O174 C183 1.279 . S
O175 Mg173 2.030 . S
O175 C181 1.248 . S
O176 Mg173 1.990 . S
O176 C182 1.253 . S
O177 Mg173 2.117 . S
O177 C183 1.250 1_556 S
C178 O184 1.248 . S
C178 O185 1.264 . S
C179 O165 1.253 . S
C179 O167 1.260 . S
C180 O169 1.279 . S
C180 O170 1.250 . S
C181 O171 1.264 . S
C181 O175 1.248 . S
C182 O172 1.260 . S
C182 O176 1.253 . S
C183 O174 1.279 . S
C183 O177 1.250 1_554 S
O184 Mg166 2.030 . S
O184 C178 1.248 . S
O185 Mg168 2.079 . S
O185 C178 1.264 . S
H186 C198 0.930 . S
H187 C200 0.930 . S
H188 C201 0.930 . S
H189 C205 0.959 . S
H190 C205 0.959 . S
H191 C205 0.961 . S
H192 C206 0.960 . S
H193 C206 0.961 . S
H194 C206 0.959 . S
H195 C209 0.929 . S
H196 C210 0.931 . S
H197 C212 0.930 . S
C198 H186 0.930 . S
C198 C199 1.399 . S
C198 C203 1.399 . S
C199 C198 1.399 . S
C199 C200 1.376 . S
C200 H187 0.930 . S
C200 C199 1.376 . S
C200 C201 1.388 . S
C201 H188 0.930 . S
C201 C200 1.388 . S
C201 C202 1.390 . S
C202 C201 1.390 . S
C202 C203 1.394 . S
C202 C208 1.465 . S
C203 C198 1.399 . S
C203 C202 1.394 . S
C203 C204 1.516 . S
C204 C203 1.516 . S
C204 C205 1.502 . S
C204 C206 1.561 . S
C204 C207 1.526 . S
C205 H189 0.959 . S
C205 H190 0.959 . S
C205 H191 0.961 . S
C205 C204 1.502 . S
C206 H192 0.960 . S
C206 H193 0.961 . S
C206 H194 0.959 . S
C206 C204 1.561 . S
C207 C204 1.526 . S
C207 C208 1.396 . S
C207 C212 1.390 . S
C208 C202 1.465 . S
C208 C207 1.396 . S
C208 C209 1.399 . S
C209 H195 0.929 . S
C209 C208 1.399 . S
C209 C210 1.385 . S
C210 H196 0.931 . S
C210 C209 1.385 . S
C210 C211 1.389 . S
C211 C210 1.389 . S
C211 C212 1.387 . S
C212 H197 0.930 . S
C212 C207 1.390 . S
C212 C211 1.387 . S
H213 C225 0.930 . S
H214 C227 0.930 . S
H215 C228 0.930 . S
H216 C232 0.975 . S
H217 C232 0.945 1_556 S
H218 C232 0.955 1_556 S
H219 C233 0.960 . S
H220 C233 0.961 . S
H221 C233 0.959 . S
H222 C236 0.929 . S
H223 C237 0.931 . S
H224 C239 0.930 . S
C225 H213 0.930 . S
C225 C226 1.399 . S
C225 C230 1.399 . S
C226 C225 1.399 . S
C226 C227 1.376 . S
C227 H214 0.930 . S
C227 C226 1.376 . S
C227 C228 1.388 . S
C228 H215 0.930 . S
C228 C227 1.388 . S
C228 C229 1.390 . S
C229 C228 1.390 . S
C229 C230 1.394 . S
C229 C235 1.465 . S
C230 C225 1.399 . S
C230 C229 1.394 . S
C230 C231 1.516 . S
C231 C230 1.516 . S
C231 C232 1.507 . S
C231 C233 1.561 1_554 S
C231 C234 1.526 . S
C232 H216 0.975 . S
C232 H217 0.945 1_554 S
C232 H218 0.955 1_554 S
C232 C231 1.507 . S
C233 H219 0.960 . S
C233 H220 0.961 . S
C233 H221 0.959 . S
C233 C231 1.561 1_556 S
C234 C231 1.526 . S
C234 C235 1.396 . S
C234 C239 1.390 . S
C235 C229 1.465 . S
C235 C234 1.396 . S
C235 C236 1.399 . S
C236 H222 0.929 . S
C236 C235 1.399 . S
C236 C237 1.385 . S
C237 H223 0.931 . S
C237 C236 1.385 . S
C237 C238 1.389 . S
C238 C237 1.389 . S
C238 C239 1.387 . S
C239 H224 0.930 . S
C239 C234 1.390 . S
C239 C238 1.387 . S
H240 C252 0.930 . S
H241 C254 0.930 . S
H242 C255 0.930 . S
H243 C259 0.959 . S
H244 C259 0.959 . S
H245 C259 0.961 . S
H246 C260 0.960 . S
H247 C260 0.961 . S
H248 C260 0.959 . S
H249 C263 0.929 . S
H250 C264 0.931 . S
H251 C266 0.930 . S
C252 H240 0.930 . S
C252 C253 1.399 . S
C252 C257 1.399 . S
C253 C252 1.399 . S
C253 C254 1.376 . S
C254 H241 0.930 . S
C254 C253 1.376 . S
C254 C255 1.388 . S
C255 H242 0.930 . S
C255 C254 1.388 . S
C255 C256 1.390 . S
C256 C255 1.390 . S
C256 C257 1.394 . S
C256 C262 1.465 . S
C257 C252 1.399 . S
C257 C256 1.394 . S
C257 C258 1.516 . S
C258 C257 1.516 . S
C258 C259 1.502 . S
C258 C260 1.561 . S
C258 C261 1.526 . S
C259 H243 0.959 . S
C259 H244 0.959 . S
C259 H245 0.961 . S
C259 C258 1.502 . S
C260 H246 0.960 . S
C260 H247 0.961 . S
C260 H248 0.959 . S
C260 C258 1.561 . S
C261 C258 1.526 . S
C261 C262 1.396 . S
C261 C266 1.390 . S
C262 C256 1.465 . S
C262 C261 1.396 . S
C262 C263 1.399 . S
C263 H249 0.929 . S
C263 C262 1.399 . S
C263 C264 1.385 . S
C264 H250 0.931 . S
C264 C263 1.385 . S
C264 C265 1.389 . S
C265 C264 1.389 . S
C265 C266 1.387 . S
C266 H251 0.930 . S
C266 C261 1.390 . S
C266 C265 1.387 . S
H267 C279 0.930 . S
H268 C281 0.930 . S
H269 C282 0.930 . S
H270 C286 0.959 . S
H271 C286 0.959 . S
H272 C286 0.961 . S
H273 C287 0.960 . S
H274 C287 0.961 . S
H275 C287 0.959 . S
H276 C290 0.929 . S
H277 C291 0.931 . S
H278 C293 0.930 . S
C279 H267 0.930 . S
C279 C280 1.399 1_554 S
C279 C284 1.399 . S
C280 C279 1.399 1_556 S
C280 C281 1.376 . S
C281 H268 0.930 . S
C281 C280 1.376 . S
C281 C282 1.388 . S
C282 H269 0.930 . S
C282 C281 1.388 . S
C282 C283 1.390 . S
C283 C282 1.390 . S
C283 C284 1.394 1_556 S
C283 C289 1.465 . S
C284 C279 1.399 . S
C284 C283 1.394 1_554 S
C284 C285 1.516 . S
C285 C284 1.516 . S
C285 C286 1.502 . S
C285 C287 1.561 . S
C285 C288 1.526 . S
C286 H270 0.959 . S
C286 H271 0.959 . S
C286 H272 0.961 . S
C286 C285 1.502 . S
C287 H273 0.960 . S
C287 H274 0.961 . S
C287 H275 0.959 . S
C287 C285 1.561 . S
C288 C285 1.526 . S
C288 C289 1.396 1_554 S
C288 C293 1.390 . S
C289 C283 1.465 . S
C289 C288 1.396 1_556 S
C289 C290 1.399 . S
C290 H276 0.929 . S
C290 C289 1.399 . S
C290 C291 1.385 . S
C291 H277 0.931 . S
C291 C290 1.385 . S
C291 C292 1.389 1_556 S
C292 C291 1.389 1_554 S
C292 C293 1.387 . S
C293 H278 0.930 . S
C293 C288 1.390 . S
C293 C292 1.387 . S
H294 C306 0.930 . S
H295 C308 0.930 . S
H296 C309 0.930 . S
H297 C313 0.959 . S
H298 C313 0.959 . S
H299 C313 0.961 . S
H300 C314 0.960 . S
H301 C314 0.961 . S
H302 C314 0.959 . S
H303 C317 0.929 . S
H304 C318 0.931 . S
H305 C320 0.912 1_545 S
C306 H294 0.930 . S
C306 C307 1.399 . S
C306 C311 1.399 . S
C307 C306 1.399 . S
C307 C308 1.376 . S
C308 H295 0.930 . S
C308 C307 1.376 . S
C308 C309 1.388 . S
C309 H296 0.930 . S
C309 C308 1.388 . S
C309 C310 1.390 . S
C310 C309 1.390 . S
C310 C311 1.394 . S
C310 C316 1.465 . S
C311 C306 1.399 . S
C311 C310 1.394 . S
C311 C312 1.516 . S
C312 C311 1.516 . S
C312 C313 1.502 . S
C312 C314 1.561 1_565 S
C312 C315 1.526 . S
C313 H297 0.959 . S
C313 H298 0.959 . S
C313 H299 0.961 . S
C313 C312 1.502 . S
C314 H300 0.960 . S
C314 H301 0.961 . S
C314 H302 0.959 . S
C314 C312 1.561 1_545 S
C315 C312 1.526 . S
C315 C316 1.396 . S
C315 C320 1.390 . S
C316 C310 1.465 . S
C316 C315 1.396 . S
C316 C317 1.399 . S
C317 H303 0.929 . S
C317 C316 1.399 . S
C317 C318 1.385 . S
C318 H304 0.931 . S
C318 C317 1.385 . S
C318 C319 1.389 . S
C319 C318 1.389 . S
C319 C320 1.387 . S
C320 H305 0.912 1_565 S
C320 C315 1.390 . S
C320 C319 1.387 . S
H321 C333 0.930 . S
H322 C335 0.930 . S
H323 C336 0.930 . S
H324 C340 0.959 . S
H325 C340 0.959 . S
H326 C340 0.961 . S
H327 C341 0.960 . S
H328 C341 0.961 . S
H329 C341 0.959 . S
H330 C344 0.929 . S
H331 C345 0.931 . S
H332 C347 0.930 . S
C333 H321 0.930 . S
C333 C334 1.399 . S
C333 C338 1.399 . S
C334 C333 1.399 . S
C334 C335 1.376 . S
C335 H322 0.930 . S
C335 C334 1.376 . S
C335 C336 1.388 . S
C336 H323 0.930 . S
C336 C335 1.388 . S
C336 C337 1.390 . S
C337 C336 1.390 . S
C337 C338 1.394 . S
C337 C343 1.465 . S
C338 C333 1.399 . S
C338 C337 1.394 . S
C338 C339 1.516 . S
C339 C338 1.516 . S
C339 C340 1.502 . S
C339 C341 1.561 . S
C339 C342 1.526 . S
C340 H324 0.959 . S
C340 H325 0.959 . S
C340 H326 0.961 . S
C340 C339 1.502 . S
C341 H327 0.960 . S
C341 H328 0.961 . S
C341 H329 0.959 . S
C341 C339 1.561 . S
C342 C339 1.526 . S
C342 C343 1.396 . S
C342 C347 1.390 . S
C343 C337 1.465 . S
C343 C342 1.396 . S
C343 C344 1.399 . S
C344 H330 0.929 . S
C344 C343 1.399 . S
C344 C345 1.385 . S
C345 H331 0.931 . S
C345 C344 1.385 . S
C345 C346 1.389 . S
C346 C345 1.389 . S
C346 C347 1.387 . S
C347 H332 0.930 . S
C347 C342 1.390 . S
C347 C346 1.387 . S
H348 C360 0.930 . S
H349 C362 0.930 . S
H350 C363 0.930 . S
H351 C367 0.959 . S
H352 C367 0.959 . S
H353 C367 0.961 . S
H354 C368 0.960 . S
H355 C368 0.961 . S
H356 C368 0.959 1_545 S
H357 C371 0.929 . S
H358 C372 0.931 . S
H359 C374 0.930 . S
C360 H348 0.930 . S
C360 C361 1.399 . S
C360 C365 1.399 . S
C361 C360 1.399 . S
C361 C362 1.376 . S
C362 H349 0.930 . S
C362 C361 1.376 . S
C362 C363 1.388 . S
C363 H350 0.930 . S
C363 C362 1.388 . S
C363 C364 1.390 . S
C364 C363 1.390 . S
C364 C365 1.394 . S
C364 C370 1.465 . S
C365 C360 1.399 . S
C365 C364 1.394 . S
C365 C366 1.516 . S
C366 C365 1.516 . S
C366 C367 1.502 . S
C366 C368 1.561 1_545 S
C366 C369 1.526 . S
C367 H351 0.959 . S
C367 H352 0.959 . S
C367 H353 0.961 . S
C367 C366 1.502 . S
C368 H354 0.960 . S
C368 H355 0.961 . S
C368 H356 0.959 1_565 S
C368 C366 1.561 1_565 S
C369 C366 1.526 . S
C369 C370 1.396 . S
C369 C374 1.390 . S
C370 C364 1.465 . S
C370 C369 1.396 . S
C370 C371 1.399 . S
C371 H357 0.929 . S
C371 C370 1.399 . S
C371 C372 1.385 . S
C372 H358 0.931 . S
C372 C371 1.385 . S
C372 C373 1.389 . S
C373 C372 1.389 . S
C373 C374 1.387 . S
C374 H359 0.930 . S
C374 C369 1.390 . S
C374 C373 1.387 . S
H375 C387 0.930 . S
H376 C389 0.930 . S
H377 C390 0.930 . S
H378 C394 0.959 . S
H379 C394 0.959 . S
H380 C394 0.961 . S
H381 C395 0.960 . S
H382 C395 0.961 . S
H383 C395 0.959 . S
H384 C398 0.929 . S
H385 C399 0.931 . S
H386 C401 0.930 . S
C387 H375 0.930 . S
C387 C388 1.399 . S
C387 C392 1.399 . S
C388 C387 1.399 . S
C388 C389 1.376 . S
C389 H376 0.930 . S
C389 C388 1.376 . S
C389 C390 1.388 . S
C390 H377 0.930 . S
C390 C389 1.388 . S
C390 C391 1.390 . S
C391 C390 1.390 . S
C391 C392 1.394 . S
C391 C397 1.465 . S
C392 C387 1.399 . S
C392 C391 1.394 . S
C392 C393 1.516 . S
C393 C392 1.516 . S
C393 C394 1.502 . S
C393 C395 1.561 . S
C393 C396 1.526 . S
C394 H378 0.959 . S
C394 H379 0.959 . S
C394 H380 0.961 . S
C394 C393 1.502 . S
C395 H381 0.960 . S
C395 H382 0.961 . S
C395 H383 0.959 . S
C395 C393 1.561 . S
C396 C393 1.526 . S
C396 C397 1.396 . S
C396 C401 1.390 . S
C397 C391 1.465 . S
C397 C396 1.396 . S
C397 C398 1.399 . S
C398 H384 0.929 . S
C398 C397 1.399 . S
C398 C399 1.385 . S
C399 H385 0.931 . S
C399 C398 1.385 . S
C399 C400 1.389 . S
C400 C399 1.389 . S
C400 C401 1.387 . S
C401 H386 0.930 . S
C401 C396 1.390 . S
C401 C400 1.387 . S
H402 C414 0.930 . S
H403 C416 0.930 . S
H404 C417 0.930 . S
H405 C421 0.959 . S
H406 C421 0.959 . S
H407 C421 0.961 . S
H408 C422 0.960 . S
H409 C422 0.961 . S
H410 C422 0.959 . S
H411 C425 0.929 . S
H412 C426 0.931 . S
H413 C428 0.930 . S
C414 H402 0.930 . S
C414 C415 1.399 . S
C414 C419 1.399 . S
C415 C414 1.399 . S
C415 C416 1.376 . S
C416 H403 0.930 . S
C416 C415 1.376 . S
C416 C417 1.388 . S
C417 H404 0.930 . S
C417 C416 1.388 . S
C417 C418 1.390 . S
C418 C417 1.390 . S
C418 C419 1.394 . S
C418 C424 1.465 . S
C419 C414 1.399 . S
C419 C418 1.394 . S
C419 C420 1.516 . S
C420 C419 1.516 . S
C420 C421 1.502 . S
C420 C422 1.561 . S
C420 C423 1.526 . S
C421 H405 0.959 . S
C421 H406 0.959 . S
C421 H407 0.961 . S
C421 C420 1.502 . S
C422 H408 0.960 . S
C422 H409 0.961 . S
C422 H410 0.959 . S
C422 C420 1.561 . S
C423 C420 1.526 . S
C423 C424 1.396 . S
C423 C428 1.390 . S
C424 C418 1.465 . S
C424 C423 1.396 . S
C424 C425 1.399 . S
C425 H411 0.929 . S
C425 C424 1.399 . S
C425 C426 1.385 . S
C426 H412 0.931 . S
C426 C425 1.385 . S
C426 C427 1.389 . S
C427 C426 1.389 . S
C427 C428 1.387 . S
C428 H413 0.930 . S
C428 C423 1.390 . S
C428 C427 1.387 . S
H429 C441 0.930 . S
H430 C443 0.930 . S
H431 C444 0.930 . S
H432 C448 0.959 . S
H433 C448 0.959 . S
H434 C448 0.961 . S
H435 C449 0.958 1_565 S
H436 C449 0.961 1_565 S
H437 C449 0.957 1_565 S
H438 C452 0.929 . S
H439 C453 0.931 . S
H440 C455 0.930 . S
C441 H429 0.930 . S
C441 C442 1.399 . S
C441 C446 1.399 . S
C442 C441 1.399 . S
C442 C443 1.376 . S
C443 H430 0.930 . S
C443 C442 1.376 . S
C443 C444 1.388 . S
C444 H431 0.930 . S
C444 C443 1.388 . S
C444 C445 1.390 . S
C445 C444 1.390 . S
C445 C446 1.394 . S
C445 C451 1.465 . S
C446 C441 1.399 . S
C446 C445 1.394 . S
C446 C447 1.516 . S
C447 C446 1.516 . S
C447 C448 1.502 . S
C447 C449 1.561 . S
C447 C450 1.526 . S
C448 H432 0.959 . S
C448 H433 0.959 . S
C448 H434 0.961 . S
C448 C447 1.502 . S
C449 H435 0.958 1_545 S
C449 H436 0.961 1_545 S
C449 H437 0.957 1_545 S
C449 C447 1.561 . S
C450 C447 1.526 . S
C450 C451 1.396 . S
C450 C455 1.390 . S
C451 C445 1.465 . S
C451 C450 1.396 . S
C451 C452 1.399 . S
C452 H438 0.929 . S
C452 C451 1.399 . S
C452 C453 1.385 . S
C453 H439 0.931 . S
C453 C452 1.385 . S
C453 C454 1.389 . S
C454 C453 1.389 . S
C454 C455 1.387 . S
C455 H440 0.930 . S
C455 C450 1.390 . S
C455 C454 1.387 . S
H456 C468 0.930 . S
H457 C470 0.930 . S
H458 C471 0.930 . S
H459 C475 0.959 . S
H460 C475 0.959 . S
H461 C475 0.961 . S
H462 C476 0.960 . S
H463 C476 0.961 . S
H464 C476 0.959 . S
H465 C479 0.929 . S
H466 C480 0.931 . S
H467 C482 0.930 . S
C468 H456 0.930 . S
C468 C469 1.399 . S
C468 C473 1.399 . S
C469 C468 1.399 . S
C469 C470 1.376 . S
C470 H457 0.930 . S
C470 C469 1.376 . S
C470 C471 1.388 . S
C471 H458 0.930 . S
C471 C470 1.388 . S
C471 C472 1.390 . S
C472 C471 1.390 . S
C472 C473 1.394 . S
C472 C478 1.465 . S
C473 C468 1.399 . S
C473 C472 1.394 . S
C473 C474 1.516 . S
C474 C473 1.516 . S
C474 C475 1.502 . S
C474 C476 1.561 . S
C474 C477 1.526 . S
C475 H459 0.959 . S
C475 H460 0.959 . S
C475 H461 0.961 . S
C475 C474 1.502 . S
C476 H462 0.960 . S
C476 H463 0.961 . S
C476 H464 0.959 . S
C476 C474 1.561 . S
C477 C474 1.526 . S
C477 C478 1.396 . S
C477 C482 1.390 . S
C478 C472 1.465 . S
C478 C477 1.396 . S
C478 C479 1.399 . S
C479 H465 0.929 . S
C479 C478 1.399 . S
C479 C480 1.385 . S
C480 H466 0.931 . S
C480 C479 1.385 . S
C480 C481 1.389 . S
C481 C480 1.389 . S
C481 C482 1.387 . S
C482 H467 0.930 . S
C482 C477 1.390 . S
C482 C481 1.387 . S
H483 C495 0.930 . S
H484 C497 0.930 . S
H485 C498 0.930 . S
H486 C502 0.946 1_565 S
H487 C502 0.959 . S
H488 C502 0.961 . S
H489 C503 0.960 . S
H490 C503 0.961 . S
H491 C503 0.959 . S
H492 C506 0.929 . S
H493 C507 0.931 . S
H494 C509 0.930 1_545 S
C495 H483 0.930 . S
C495 C496 1.399 . S
C495 C500 1.399 . S
C496 C495 1.399 . S
C496 C497 1.376 . S
C497 H484 0.930 . S
C497 C496 1.376 . S
C497 C498 1.388 . S
C498 H485 0.930 . S
C498 C497 1.388 . S
C498 C499 1.390 . S
C499 C498 1.390 . S
C499 C500 1.394 . S
C499 C505 1.465 . S
C500 C495 1.399 . S
C500 C499 1.394 . S
C500 C501 1.516 1_565 S
C501 C500 1.516 1_545 S
C501 C502 1.502 . S
C501 C503 1.561 . S
C501 C504 1.526 1_545 S
C502 H486 0.946 1_545 S
C502 H487 0.959 . S
C502 H488 0.961 . S
C502 C501 1.502 . S
C503 H489 0.960 . S
C503 H490 0.961 . S
C503 H491 0.959 . S
C503 C501 1.561 . S
C504 C501 1.526 1_565 S
C504 C505 1.396 . S
C504 C509 1.390 . S
C505 C499 1.465 . S
C505 C504 1.396 . S
C505 C506 1.399 . S
C506 H492 0.929 . S
C506 C505 1.399 . S
C506 C507 1.385 . S
C507 H493 0.931 . S
C507 C506 1.385 . S
C507 C508 1.389 . S
C508 C507 1.389 . S
C508 C509 1.387 . S
C509 H494 0.930 1_565 S
C509 C504 1.390 . S
C509 C508 1.387 . S
C211 C159 1.288 . S
C199 C133 1.478 . S
C226 C25 1.552 . S
C238 C183 1.403 . S
C253 C61 1.679 . S
C265 C162 1.406 . S
C280 C97 1.638 . S
C292 C180 1.523 . S
C319 C160 1.585 . S
C307 C1 1.601 . S
C346 C182 1.601 . S
C334 C67 1.598 . S
C361 C103 1.530 . S
C373 C161 1.552 . S
C388 C109 1.571 . S
C400 C181 1.561 . S
C427 C179 1.554 . S
C415 C37 1.578 . S
C454 C158 1.573 . S
C442 C73 1.611 . S
C481 C178 1.591 . S
C469 C139 1.540 . S
C496 C31 1.609 . S
C508 C157 1.566 . S
