# Generated by pormake.
# Topology eea, (3,6)-cn, num edge types: 1
# Building blocks:
#     Node 0, Type 0, BuildingBlock: PAMTOO_clean_linker_0, # of connection points: 3
#     Node 1, Type 0, BuildingBlock: PAMTOO_clean_linker_0, # of connection points: 3
#     Node 2, Type 0, BuildingBlock: PAMTOO_clean_linker_0, # of connection points: 3
#     Node 3, Type 0, BuildingBlock: PAMTOO_clean_linker_0, # of connection points: 3
#     Node 4, Type 0, BuildingBlock: PAMTOO_clean_linker_0, # of connection points: 3
#     Node 5, Type 0, BuildingBlock: PAMTOO_clean_linker_0, # of connection points: 3
#     Node 6, Type 0, BuildingBlock: PAMTOO_clean_linker_0, # of connection points: 3
#     Node 7, Type 0, BuildingBlock: PAMTOO_clean_linker_0, # of connection points: 3
#     Node 8, Type 0, BuildingBlock: PAMTOO_clean_linker_0, # of connection points: 3
#     Node 9, Type 0, BuildingBlock: PAMTOO_clean_linker_0, # of connection points: 3
#     Node 10, Type 0, BuildingBlock: PAMTOO_clean_linker_0, # of connection points: 3
#     Node 11, Type 0, BuildingBlock: PAMTOO_clean_linker_0, # of connection points: 3
#     Node 12, Type 0, BuildingBlock: PAMTOO_clean_linker_0, # of connection points: 3
#     Node 13, Type 0, BuildingBlock: PAMTOO_clean_linker_0, # of connection points: 3
#     Node 14, Type 0, BuildingBlock: PAMTOO_clean_linker_0, # of connection points: 3
#     Node 15, Type 0, BuildingBlock: PAMTOO_clean_linker_0, # of connection points: 3
#     Node 16, Type 0, BuildingBlock: PAMTOO_clean_linker_0, # of connection points: 3
#     Node 17, Type 0, BuildingBlock: PAMTOO_clean_linker_0, # of connection points: 3
#     Node 18, Type 1, BuildingBlock: KUMBOL_clean_sbu_0, # of connection points: 6
#     Node 19, Type 1, BuildingBlock: KUMBOL_clean_sbu_0, # of connection points: 6
#     Node 20, Type 1, BuildingBlock: KUMBOL_clean_sbu_0, # of connection points: 6
#     Node 21, Type 1, BuildingBlock: KUMBOL_clean_sbu_0, # of connection points: 6
#     Node 22, Type 1, BuildingBlock: KUMBOL_clean_sbu_0, # of connection points: 6
#     Node 23, Type 1, BuildingBlock: KUMBOL_clean_sbu_0, # of connection points: 6
#     Node 24, Type 1, BuildingBlock: KUMBOL_clean_sbu_0, # of connection points: 6
#     Node 25, Type 1, BuildingBlock: KUMBOL_clean_sbu_0, # of connection points: 6
#     Node 26, Type 1, BuildingBlock: KUMBOL_clean_sbu_0, # of connection points: 6
#     Edge 27, Type (0, 1), BuildingBlock: EZIPEK_clean_linker_0, # of connection points: 2
#     Edge 28, Type (0, 1), BuildingBlock: EZIPEK_clean_linker_0, # of connection points: 2
#     Edge 29, Type (0, 1), BuildingBlock: EZIPEK_clean_linker_0, # of connection points: 2
#     Edge 30, Type (0, 1), BuildingBlock: EZIPEK_clean_linker_0, # of connection points: 2
#     Edge 31, Type (0, 1), BuildingBlock: EZIPEK_clean_linker_0, # of connection points: 2
#     Edge 32, Type (0, 1), BuildingBlock: EZIPEK_clean_linker_0, # of connection points: 2
#     Edge 33, Type (0, 1), BuildingBlock: EZIPEK_clean_linker_0, # of connection points: 2
#     Edge 34, Type (0, 1), BuildingBlock: EZIPEK_clean_linker_0, # of connection points: 2
#     Edge 35, Type (0, 1), BuildingBlock: EZIPEK_clean_linker_0, # of connection points: 2
#     Edge 36, Type (0, 1), BuildingBlock: EZIPEK_clean_linker_0, # of connection points: 2
#     Edge 37, Type (0, 1), BuildingBlock: EZIPEK_clean_linker_0, # of connection points: 2
#     Edge 38, Type (0, 1), BuildingBlock: EZIPEK_clean_linker_0, # of connection points: 2
#     Edge 39, Type (0, 1), BuildingBlock: EZIPEK_clean_linker_0, # of connection points: 2
#     Edge 40, Type (0, 1), BuildingBlock: EZIPEK_clean_linker_0, # of connection points: 2
#     Edge 41, Type (0, 1), BuildingBlock: EZIPEK_clean_linker_0, # of connection points: 2
#     Edge 42, Type (0, 1), BuildingBlock: EZIPEK_clean_linker_0, # of connection points: 2
#     Edge 43, Type (0, 1), BuildingBlock: EZIPEK_clean_linker_0, # of connection points: 2
#     Edge 44, Type (0, 1), BuildingBlock: EZIPEK_clean_linker_0, # of connection points: 2
#     Edge 45, Type (0, 1), BuildingBlock: EZIPEK_clean_linker_0, # of connection points: 2
#     Edge 46, Type (0, 1), BuildingBlock: EZIPEK_clean_linker_0, # of connection points: 2
#     Edge 47, Type (0, 1), BuildingBlock: EZIPEK_clean_linker_0, # of connection points: 2
#     Edge 48, Type (0, 1), BuildingBlock: EZIPEK_clean_linker_0, # of connection points: 2
#     Edge 49, Type (0, 1), BuildingBlock: EZIPEK_clean_linker_0, # of connection points: 2
#     Edge 50, Type (0, 1), BuildingBlock: EZIPEK_clean_linker_0, # of connection points: 2
#     Edge 51, Type (0, 1), BuildingBlock: EZIPEK_clean_linker_0, # of connection points: 2
#     Edge 52, Type (0, 1), BuildingBlock: EZIPEK_clean_linker_0, # of connection points: 2
#     Edge 53, Type (0, 1), BuildingBlock: EZIPEK_clean_linker_0, # of connection points: 2
#     Edge 54, Type (0, 1), BuildingBlock: EZIPEK_clean_linker_0, # of connection points: 2
#     Edge 55, Type (0, 1), BuildingBlock: EZIPEK_clean_linker_0, # of connection points: 2
#     Edge 56, Type (0, 1), BuildingBlock: EZIPEK_clean_linker_0, # of connection points: 2
#     Edge 57, Type (0, 1), BuildingBlock: EZIPEK_clean_linker_0, # of connection points: 2
#     Edge 58, Type (0, 1), BuildingBlock: EZIPEK_clean_linker_0, # of connection points: 2
#     Edge 59, Type (0, 1), BuildingBlock: EZIPEK_clean_linker_0, # of connection points: 2
#     Edge 60, Type (0, 1), BuildingBlock: EZIPEK_clean_linker_0, # of connection points: 2
#     Edge 61, Type (0, 1), BuildingBlock: EZIPEK_clean_linker_0, # of connection points: 2
#     Edge 62, Type (0, 1), BuildingBlock: EZIPEK_clean_linker_0, # of connection points: 2
#     Edge 63, Type (0, 1), BuildingBlock: EZIPEK_clean_linker_0, # of connection points: 2
#     Edge 64, Type (0, 1), BuildingBlock: EZIPEK_clean_linker_0, # of connection points: 2
#     Edge 65, Type (0, 1), BuildingBlock: EZIPEK_clean_linker_0, # of connection points: 2
#     Edge 66, Type (0, 1), BuildingBlock: EZIPEK_clean_linker_0, # of connection points: 2
#     Edge 67, Type (0, 1), BuildingBlock: EZIPEK_clean_linker_0, # of connection points: 2
#     Edge 68, Type (0, 1), BuildingBlock: EZIPEK_clean_linker_0, # of connection points: 2
#     Edge 69, Type (0, 1), BuildingBlock: EZIPEK_clean_linker_0, # of connection points: 2
#     Edge 70, Type (0, 1), BuildingBlock: EZIPEK_clean_linker_0, # of connection points: 2
#     Edge 71, Type (0, 1), BuildingBlock: EZIPEK_clean_linker_0, # of connection points: 2
#     Edge 72, Type (0, 1), BuildingBlock: EZIPEK_clean_linker_0, # of connection points: 2
#     Edge 73, Type (0, 1), BuildingBlock: EZIPEK_clean_linker_0, # of connection points: 2
#     Edge 74, Type (0, 1), BuildingBlock: EZIPEK_clean_linker_0, # of connection points: 2
#     Edge 75, Type (0, 1), BuildingBlock: EZIPEK_clean_linker_0, # of connection points: 2
#     Edge 76, Type (0, 1), BuildingBlock: EZIPEK_clean_linker_0, # of connection points: 2
#     Edge 77, Type (0, 1), BuildingBlock: EZIPEK_clean_linker_0, # of connection points: 2
#     Edge 78, Type (0, 1), BuildingBlock: EZIPEK_clean_linker_0, # of connection points: 2
#     Edge 79, Type (0, 1), BuildingBlock: EZIPEK_clean_linker_0, # of connection points: 2
#     Edge 80, Type (0, 1), BuildingBlock: EZIPEK_clean_linker_0, # of connection points: 2
# Relax obj value: 0.024
# Max RMSD: 0.186
# Mean RMSD: 0.131
data_MOF--net-eea--node1-KUMBOL_clean_sbu_0--node2-PAMTOO_clean_linker_0--edge1-EZIPEK_clean_linker_0
_symmetry_space_group_name_H-M    P1
_symmetry_Int_Tables_number       1
_symmetry_cell_setting            triclinic
loop_
_symmetry_equiv_pos_as_xyz
'x, y, z'
_cell_length_a     39.06862
_cell_length_b     40.344291
_cell_length_c     52.096641
_cell_angle_alpha  89.841241
_cell_angle_beta   89.933237
_cell_angle_gamma 119.80725
loop_
_atom_site_label
_atom_site_type_symbol
_atom_site_fract_x
_atom_site_fract_y
_atom_site_fract_z
_atom_type_partial_charge
H0 H 0.30492 0.07819 0.42223 0.0
H1 H 0.27837 0.16875 0.43039 0.0
H2 H 0.21255 0.07893 0.37698 0.0
H3 H 0.23877 0.15156 0.35216 0.0
C4 C 0.24666 0.17026 0.36931 0.0
O5 O 0.23045 0.14799 0.39106 0.0
H6 H 0.27921 0.1855 0.37181 0.0
C7 C 0.28736 0.09094 0.41655 0.0
C8 C 0.25756 0.07324 0.39789 0.0
C9 C 0.29262 0.12346 0.42969 0.0
C10 C 0.27308 0.14256 0.4212 0.0
C11 C 0.24598 0.12743 0.40113 0.0
C12 C 0.23608 0.09158 0.39094 0.0
H13 H 0.96905 0.20928 0.43279 0.0
H14 H 0.85992 0.103 0.43393 0.0
H15 H 0.93495 0.1338 0.3675 0.0
H16 H 0.83368 0.0857 0.36433 0.0
C17 C 0.83234 0.06825 0.38119 0.0
O18 O 0.87008 0.07917 0.38951 0.0
H19 H 0.81621 0.07511 0.39593 0.0
C20 C 0.94811 0.18309 0.42327 0.0
C21 C 0.9564 0.17494 0.39852 0.0
C22 C 0.91271 0.15775 0.43572 0.0
C23 C 0.88666 0.12305 0.42398 0.0
C24 C 0.89447 0.11416 0.39953 0.0
C25 C 0.92878 0.14068 0.38641 0.0
H26 H 0.81829 0.76795 0.43098 0.0
H27 H 0.9206 0.75521 0.42367 0.0
H28 H 0.89136 0.80983 0.36329 0.0
H29 H 0.98375 0.81318 0.41 0.0
C30 C 0.98178 0.81884 0.38929 0.0
O31 O 0.94485 0.79249 0.37997 0.0
H32 H 0.98489 0.84766 0.38878 0.0
C33 C 0.8442 0.77281 0.42025 0.0
C34 C 0.85123 0.78979 0.39578 0.0
C35 C 0.86866 0.75972 0.43031 0.0
C36 C 0.90164 0.76531 0.41605 0.0
C37 C 0.91117 0.78511 0.39252 0.0
C38 C 0.88536 0.79655 0.38209 0.0
H39 H 0.06141 0.26456 0.59547 0.0
H40 H 0.16713 0.25632 0.59218 0.0
H41 H 0.08438 0.20252 0.65406 0.0
H42 H 0.1617 0.21551 0.67122 0.0
C43 C 0.17764 0.22728 0.65282 0.0
O44 O 0.15082 0.21259 0.63279 0.0
H45 H 0.18953 0.25853 0.65471 0.0
C46 C 0.08024 0.25462 0.60363 0.0
C47 C 0.06893 0.23336 0.62661 0.0
C48 C 0.11567 0.26322 0.59108 0.0
C49 C 0.13999 0.25021 0.60179 0.0
C50 C 0.12881 0.22809 0.62434 0.0
C51 C 0.09323 0.21975 0.63674 0.0
H52 H 0.73375 0.79927 0.59973 0.0
H53 H 0.74312 0.9101 0.59779 0.0
H54 H 0.79763 0.8812 0.658 0.0
H55 H 0.74759 0.92804 0.66862 0.0
C56 C 0.76076 0.94588 0.65126 0.0
O57 O 0.78487 0.93487 0.63885 0.0
H58 H 0.73484 0.93947 0.63906 0.0
C59 C 0.74105 0.82615 0.60836 0.0
C60 C 0.76562 0.83681 0.63006 0.0
C61 C 0.72792 0.85043 0.59805 0.0
C62 C 0.74709 0.88841 0.60724 0.0
C63 C 0.77057 0.89914 0.62928 0.0
C64 C 0.77914 0.87293 0.64108 0.0
H65 H 0.213 0.95625 0.59697 0.0
H66 H 0.09675 0.86137 0.58546 0.0
H67 H 0.12356 0.92755 0.65483 0.0
H68 H 0.06976 0.81685 0.62868 0.0
C69 C 0.04872 0.82775 0.62728 0.0
O70 O 0.06836 0.86712 0.63045 0.0
H71 H 0.03736 0.82112 0.6073 0.0
C72 C 0.18319 0.9379 0.60393 0.0
C73 C 0.17123 0.94634 0.62723 0.0
C74 C 0.15656 0.90696 0.58903 0.0
C75 C 0.1175 0.88453 0.59746 0.0
C76 C 0.10589 0.89032 0.62187 0.0
C77 C 0.13292 0.92154 0.6367 0.0
H78 H 0.93673 0.39386 0.76355 0.0
H79 H 0.9407 0.50215 0.76782 0.0
H80 H 0.89005 0.43063 0.70177 0.0
H81 H 0.94825 0.52875 0.70023 0.0
C82 C 0.93022 0.53053 0.71602 0.0
O83 O 0.90332 0.4943 0.72466 0.0
H84 H 0.95205 0.54653 0.73133 0.0
C85 C 0.93092 0.41516 0.75509 0.0
C86 C 0.91304 0.40851 0.73083 0.0
C87 C 0.94187 0.44925 0.76836 0.0
C88 C 0.93303 0.47604 0.75758 0.0
C89 C 0.91425 0.46941 0.73371 0.0
C90 C 0.90484 0.4359 0.72012 0.0
H91 H 0.64314 0.54275 0.76112 0.0
H92 H 0.53761 0.43363 0.76575 0.0
H93 H 0.59825 0.47288 0.69345 0.0
H94 H 0.50241 0.42572 0.69414 0.0
C95 C 0.5007 0.40728 0.7105 0.0
O96 O 0.5382 0.41544 0.71755 0.0
H97 H 0.48668 0.41538 0.72598 0.0
C98 C 0.62148 0.51659 0.7519 0.0
C99 C 0.62517 0.51099 0.72567 0.0
C100 C 0.58951 0.48912 0.76617 0.0
C101 C 0.56182 0.45507 0.7545 0.0
C102 C 0.56472 0.44908 0.72831 0.0
C103 C 0.59599 0.47744 0.71372 0.0
H104 H 0.48164 0.10282 0.75997 0.0
H105 H 0.59451 0.10837 0.75686 0.0
H106 H 0.55867 0.15513 0.69504 0.0
H107 H 0.6286 0.1424 0.67758 0.0
C108 C 0.63071 0.13238 0.69707 0.0
O109 O 0.61818 0.1495 0.71495 0.0
H110 H 0.61003 0.10118 0.6959 0.0
C111 C 0.5092 0.11118 0.75006 0.0
C112 C 0.51619 0.12928 0.72597 0.0
C113 C 0.53669 0.10252 0.76112 0.0
C114 C 0.57256 0.11386 0.74825 0.0
C115 C 0.58108 0.13366 0.72483 0.0
C116 C 0.55239 0.14039 0.71334 0.0
H117 H 0.73819 0.59696 0.93086 0.0
H118 H 0.84991 0.60089 0.93529 0.0
H119 H 0.7647 0.54735 0.99599 0.0
H120 H 0.85436 0.54518 0.94697 0.0
C121 C 0.84493 0.53661 0.96721 0.0
O122 O 0.83511 0.56212 0.97831 0.0
H123 H 0.8179 0.50838 0.96572 0.0
C124 C 0.75815 0.59008 0.94095 0.0
C125 C 0.74728 0.57206 0.96511 0.0
C126 C 0.79505 0.6005 0.93006 0.0
C127 C 0.8212 0.5924 0.94347 0.0
C128 C 0.80993 0.57174 0.96665 0.0
C129 C 0.77295 0.56189 0.97761 0.0
H130 H 0.41479 0.14044 0.92639 0.0
H131 H 0.43652 0.25585 0.92454 0.0
H132 H 0.47567 0.21683 0.98897 0.0
H133 H 0.42628 0.26518 0.99563 0.0
C134 C 0.44383 0.28509 0.97999 0.0
O135 O 0.46971 0.27448 0.96983 0.0
H136 H 0.42153 0.28148 0.96535 0.0
C137 C 0.42668 0.16831 0.93522 0.0
C138 C 0.4468 0.17558 0.95866 0.0
C139 C 0.42275 0.19717 0.92283 0.0
C140 C 0.43923 0.23342 0.93412 0.0
C141 C 0.45675 0.24014 0.95841 0.0
C142 C 0.4608 0.21124 0.97063 0.0
H143 H 0.87979 0.29023 0.9292 0.0
H144 H 0.76532 0.1909 0.92195 0.0
H145 H 0.79843 0.25284 0.99308 0.0
H146 H 0.74491 0.14569 0.97101 0.0
C147 C 0.72317 0.15498 0.96666 0.0
O148 O 0.74102 0.1944 0.96872 0.0
H149 H 0.71471 0.14672 0.94634 0.0
C150 C 0.85135 0.27038 0.9375 0.0
C151 C 0.84221 0.27595 0.96269 0.0
C152 C 0.82418 0.23875 0.92319 0.0
C153 C 0.78672 0.2143 0.9335 0.0
C154 C 0.77748 0.21852 0.95891 0.0
C155 C 0.80568 0.249 0.97364 0.0
H156 H 0.60925 0.72858 0.09797 0.0
H157 H 0.59711 0.82799 0.10814 0.0
H158 H 0.56187 0.76621 0.03705 0.0
H159 H 0.61476 0.86159 0.04136 0.0
C160 C 0.59319 0.86141 0.05531 0.0
O161 O 0.56659 0.82443 0.06272 0.0
H162 H 0.61151 0.87766 0.07201 0.0
C163 C 0.60058 0.74846 0.09054 0.0
C164 C 0.58412 0.74306 0.06592 0.0
C165 C 0.60611 0.77946 0.10561 0.0
C166 C 0.59367 0.80443 0.09636 0.0
C167 C 0.57829 0.80004 0.07152 0.0
C168 C 0.57415 0.76975 0.05615 0.0
H169 H 0.30073 0.88132 0.09346 0.0
H170 H 0.20884 0.76444 0.10175 0.0
H171 H 0.27687 0.80109 0.03216 0.0
H172 H 0.17908 0.75183 0.0315 0.0
C173 C 0.17783 0.73324 0.04763 0.0
O174 O 0.2157 0.74367 0.05555 0.0
H175 H 0.16189 0.7392 0.06304 0.0
C176 C 0.28424 0.85257 0.0859 0.0
C177 C 0.29391 0.84424 0.06165 0.0
C178 C 0.25332 0.82384 0.1004 0.0
C179 C 0.23267 0.78662 0.09062 0.0
C180 C 0.23975 0.77865 0.0657 0.0
C181 C 0.27066 0.80743 0.05123 0.0
H182 H 0.15091 0.42933 0.09993 0.0
H183 H 0.25451 0.41824 0.09412 0.0
H184 H 0.22636 0.47331 0.03342 0.0
H185 H 0.31821 0.4729 0.08075 0.0
C186 C 0.31647 0.48111 0.06059 0.0
O187 O 0.27964 0.45573 0.05056 0.0
H188 H 0.31919 0.5097 0.06211 0.0
C189 C 0.17724 0.43457 0.08956 0.0
C190 C 0.18479 0.45174 0.06513 0.0
C191 C 0.20204 0.42222 0.10018 0.0
C192 C 0.23551 0.42817 0.08627 0.0
C193 C 0.24559 0.44821 0.0628 0.0
C194 C 0.21979 0.45954 0.05207 0.0
H195 H 0.3889 0.91242 0.26172 0.0
H196 H 0.49237 0.9021 0.25423 0.0
H197 H 0.42508 0.867 0.32453 0.0
H198 H 0.53918 0.92245 0.29803 0.0
C199 C 0.52746 0.89124 0.29592 0.0
O200 O 0.48698 0.87142 0.30028 0.0
H201 H 0.53315 0.88753 0.27551 0.0
C202 C 0.40918 0.90419 0.2698 0.0
C203 C 0.40259 0.88848 0.29464 0.0
C204 C 0.4424 0.91045 0.25561 0.0
C205 C 0.46761 0.89836 0.26573 0.0
C206 C 0.46221 0.88324 0.29076 0.0
C207 C 0.42983 0.87895 0.30535 0.0
H208 H 0.07641 0.45912 0.27012 0.0
H209 H 0.08949 0.57106 0.26002 0.0
H210 H 0.13686 0.54575 0.32618 0.0
H211 H 0.08257 0.59028 0.32736 0.0
C212 C 0.10085 0.60946 0.31158 0.0
O213 O 0.12672 0.59811 0.3025 0.0
H214 H 0.07908 0.60545 0.29643 0.0
C215 C 0.08431 0.48716 0.27667 0.0
C216 C 0.10715 0.49937 0.29921 0.0
C217 C 0.07356 0.51133 0.26337 0.0
C218 C 0.09266 0.55002 0.27111 0.0
C219 C 0.11363 0.56199 0.29414 0.0
C220 C 0.12018 0.53638 0.30851 0.0
H221 H 0.54034 0.62687 0.26532 0.0
H222 H 0.42672 0.52674 0.25538 0.0
H223 H 0.4543 0.58914 0.32631 0.0
H224 H 0.41391 0.49015 0.31791 0.0
C225 C 0.39078 0.49085 0.30603 0.0
O226 O 0.40044 0.52839 0.30155 0.0
H227 H 0.39182 0.47745 0.28764 0.0
C228 C 0.51118 0.60701 0.27268 0.0
C229 C 0.49997 0.61269 0.29715 0.0
C230 C 0.48516 0.5757 0.25773 0.0
C231 C 0.44711 0.55063 0.26705 0.0
C232 C 0.43627 0.55461 0.29208 0.0
C233 C 0.46283 0.58565 0.30715 0.0
Gd234 Gd 0.51157 0.02631 0.04281 0.0
Gd235 Gd 0.49363 0.98901 0.97589 0.0
C236 C 0.38427 0.87211 0.96316 0.0
C237 C 0.41316 0.8327 0.95237 0.0
C238 C 0.4551 0.90057 0.96042 0.0
C239 C 0.42244 0.90397 0.96551 0.0
C240 C 0.45088 0.86528 0.9527 0.0
C241 C 0.37983 0.83611 0.95762 0.0
C242 C 0.35186 0.87784 0.965 0.0
C243 C 0.35822 0.91493 0.96748 0.0
N244 N 0.42803 0.93931 0.97028 0.0
C245 C 0.39677 0.94557 0.96967 0.0
H246 H 0.40132 0.97409 0.97149 0.0
C247 C 0.52257 0.93283 0.94938 0.0
N248 N 0.49077 0.93283 0.96033 0.0
C249 C 0.52019 0.89849 0.94184 0.0
C250 C 0.48436 0.86435 0.94414 0.0
H251 H 0.54997 0.95934 0.94697 0.0
H252 H 0.35076 0.81115 0.95614 0.0
H253 H 0.59677 0.02851 0.05758 0.0
H254 H 0.32201 0.85416 0.96329 0.0
H255 H 0.33346 0.91995 0.9679 0.0
H256 H 0.4093 0.80516 0.94689 0.0
H257 H 0.46171 0.06775 0.0657 0.0
H258 H 0.68733 0.145 0.0653 0.0
H259 H 0.6662 0.07614 0.06524 0.0
H260 H 0.61454 0.21151 0.06814 0.0
H261 H 0.54587 0.89842 0.93409 0.0
H262 H 0.48243 0.83783 0.93802 0.0
H263 H 0.66783 0.19582 0.0653 0.0
H264 H 0.4738 0.13284 0.07493 0.0
N265 N 0.57844 0.06972 0.05209 0.0
C266 C 0.6567 0.12416 0.06179 0.0
C267 C 0.64486 0.08533 0.06186 0.0
C268 C 0.62829 0.13535 0.05908 0.0
C269 C 0.58879 0.10694 0.05479 0.0
C270 C 0.60533 0.05834 0.05723 0.0
N271 N 0.52147 0.08637 0.05616 0.0
C272 C 0.55907 0.11564 0.05679 0.0
C273 C 0.49806 0.12852 0.06955 0.0
C274 C 0.53641 0.15954 0.0681 0.0
C275 C 0.49126 0.09177 0.06422 0.0
C276 C 0.5677 0.15313 0.06255 0.0
H277 H 0.54175 0.18793 0.0726 0.0
O278 O 0.47732 0.01284 0.07823 0.0
O279 O 0.4709 0.9795 0.01644 0.0
O280 O 0.46685 0.02716 0.9828 0.0
O281 O 0.49779 0.06474 0.01876 0.0
O282 O 0.44536 0.99821 0.043 0.0
O283 O 0.52322 0.99819 0.07426 0.0
O284 O 0.5293 0.01599 0.94189 0.0
O285 O 0.53416 0.03501 1.00277 0.0
O286 O 0.53597 0.98589 0.0365 0.0
O287 O 0.51351 0.95304 0.99746 0.0
O288 O 0.56032 0.01964 0.97439 0.0
O289 O 0.46875 1.00265 0.94271 0.0
C290 C 0.43789 0.97337 0.02527 0.0
C291 C 0.60723 0.18238 0.06416 0.0
C292 C 0.63757 0.17346 0.06249 0.0
C293 C 0.49725 0.99904 0.08951 0.0
C294 C 0.51048 0.01179 0.11586 0.0
C295 C 0.54538 0.04628 0.1204 0.0
C296 C 0.48921 0.9882 0.13666 0.0
C297 C 0.50368 0.99822 0.16186 0.0
C298 C 0.55952 0.05659 0.14537 0.0
C299 C 0.53911 0.03258 0.16595 0.0
C300 C 0.47735 0.05765 0.99729 0.0
C301 C 0.5673 0.04188 0.99377 0.0
C302 C 0.50063 0.01541 0.9289 0.0
C303 C 0.49601 1.00151 0.90223 0.0
C304 C 0.48483 0.96329 0.8974 0.0
C305 C 0.50437 0.02681 0.88136 0.0
C306 C 0.50332 0.01422 0.85592 0.0
C307 C 0.48408 0.95081 0.87238 0.0
C308 C 0.49381 0.97614 0.85182 0.0
C309 C 0.53077 0.9585 0.02015 0.0
H310 H 0.56196 0.06493 0.10465 0.0
H311 H 0.46207 0.96165 0.13325 0.0
H312 H 0.58665 0.08308 0.14875 0.0
H313 H 0.55086 0.04084 0.18516 0.0
H314 H 0.47687 0.94305 0.91292 0.0
H315 H 0.51212 0.0562 0.88488 0.0
H316 H 0.47596 0.92136 0.86892 0.0
H317 H 0.49312 0.96582 0.83255 0.0
Gd318 Gd 0.9943 0.49195 0.04862 0.0
Gd319 Gd 0.03766 0.50161 0.98371 0.0
C320 C 0.15655 0.5056 0.97987 0.0
C321 C 0.20091 0.57152 0.96742 0.0
C322 C 0.13062 0.54796 0.97196 0.0
C323 C 0.12474 0.5128 0.97949 0.0
C324 C 0.16846 0.57725 0.96466 0.0
C325 C 0.19495 0.53564 0.97501 0.0
C326 C 0.14844 0.468 0.98349 0.0
C327 C 0.10928 0.43862 0.98515 0.0
N328 N 0.08719 0.48447 0.98356 0.0
C329 C 0.07887 0.44744 0.98491 0.0
H330 H 0.04883 0.42477 0.9861 0.0
C331 C 0.10109 0.58178 0.95477 0.0
N332 N 0.09836 0.55175 0.96862 0.0
C333 C 0.13801 0.61203 0.94756 0.0
C334 C 0.17201 0.61025 0.9532 0.0
H335 H 0.07473 0.58268 0.9498 0.0
H336 H 0.2199 0.53089 0.97572 0.0
H337 H 0.9784 0.56592 0.04645 0.0
H338 H 0.17198 0.46117 0.98383 0.0
H339 H 0.10248 0.40923 0.98689 0.0
H340 H 0.23037 0.5939 0.96236 0.0
H341 H 0.9621 0.4061 0.07605 0.0
H342 H 0.85455 0.52405 0.05472 0.0
H343 H 0.92224 0.57786 0.04773 0.0
H344 H 0.80455 0.39312 0.07859 0.0
H345 H 0.14017 0.63651 0.93749 0.0
H346 H 0.20055 0.63345 0.94729 0.0
H347 H 0.81063 0.45467 0.0659 0.0
H348 H 0.89923 0.35156 0.09114 0.0
N349 N 0.94266 0.50589 0.05083 0.0
C350 C 0.87908 0.51867 0.05391 0.0
C351 C 0.91722 0.54911 0.05001 0.0
C352 C 0.8734 0.48203 0.05823 0.0
C353 C 0.90636 0.47664 0.05692 0.0
C354 C 0.94894 0.54222 0.04903 0.0
N355 N 0.93608 0.43926 0.06456 0.0
C356 C 0.90304 0.44233 0.06447 0.0
C357 C 0.89985 0.37683 0.08352 0.0
C358 C 0.86514 0.3787 0.08208 0.0
C359 C 0.93541 0.4078 0.07506 0.0
C360 C 0.86655 0.41199 0.07289 0.0
H361 H 0.83765 0.35471 0.08872 0.0
O362 O 0.01683 0.48637 0.08554 0.0
O363 O 0.04323 0.49319 0.02555 0.0
O364 O 0.99144 0.43908 0.99227 0.0
O365 O 0.95381 0.43742 0.02761 0.0
O366 O 0.0258 0.45935 0.05771 0.0
O367 O 1.00672 0.53365 0.07878 0.0
O368 O 0.01467 0.50738 0.94707 0.0
O369 O 0.98892 0.50066 0.00669 0.0
O370 O 0.03552 0.55485 0.03851 0.0
O371 O 0.0752 0.55798 1.00363 0.0
O372 O 1.01009 0.53846 0.97622 0.0
O373 O 0.02635 0.461 0.95294 0.0
C374 C 0.05028 0.47067 0.03882 0.0
C375 C 0.833 0.41626 0.07249 0.0
C376 C 0.83642 0.45126 0.06517 0.0
C377 C 0.0152 0.51495 0.09571 0.0
C378 C 0.99461 0.50679 0.12063 0.0
C379 C 0.95418 0.49467 0.12159 0.0
C380 C 0.01463 0.50851 0.1435 0.0
C381 C 0.99384 0.49689 0.16695 0.0
C382 C 0.93354 0.483 0.14471 0.0
C383 C 0.9531 0.4837 0.16722 0.0
C384 C 0.95945 0.42142 0.00713 0.0
C385 C 0.9846 0.5259 0.99463 0.0
C386 C 0.01629 0.47902 0.93654 0.0
C387 C 0.03515 0.487 0.9111 0.0
C388 C 0.07625 0.50915 0.90867 0.0
C389 C 1.01172 0.47495 0.88891 0.0
C390 C 0.02907 0.48708 0.86445 0.0
C391 C 0.09362 0.5213 0.88456 0.0
C392 C 0.07019 0.51103 0.86261 0.0
C393 C 0.06698 0.57349 0.02342 0.0
H394 H 0.9384 0.49393 0.10447 0.0
H395 H 0.04596 0.51822 0.14305 0.0
H396 H 0.90226 0.47331 0.14517 0.0
H397 H 0.93657 0.47453 0.18503 0.0
H398 H 0.09491 0.5175 0.92537 0.0
H399 H 0.97999 0.4571 0.89067 0.0
H400 H 0.12532 0.53903 0.8829 0.0
H401 H 0.08421 0.52121 0.84407 0.0
Gd402 Gd 0.5165 0.52668 0.98081 0.0
Gd403 Gd 0.54354 0.51753 0.04706 0.0
C404 C 0.65885 0.5153 0.05726 0.0
C405 C 0.6354 0.45044 0.07229 0.0
C406 C 0.58923 0.47314 0.06437 0.0
C407 C 0.61955 0.50774 0.05635 0.0
C408 C 0.59678 0.44445 0.0734 0.0
C409 C 0.66648 0.48592 0.06423 0.0
C410 C 0.68923 0.55265 0.05266 0.0
C411 C 0.67993 0.58158 0.04912 0.0
N412 N 0.61085 0.53534 0.05028 0.0
C413 C 0.64034 0.57236 0.04858 0.0
H414 H 0.63334 0.59468 0.04655 0.0
C415 C 0.52341 0.43888 0.07882 0.0
N416 N 0.5528 0.46916 0.06583 0.0
C417 C 0.52907 0.4092 0.08773 0.0
C418 C 0.56573 0.41159 0.08449 0.0
H419 H 0.4952 0.43714 0.08172 0.0
H420 H 0.69641 0.49092 0.06462 0.0
H421 H 0.4314 0.43957 0.97697 0.0
H422 H 0.71986 0.55977 0.05316 0.0
H423 H 0.70315 0.61095 0.04682 0.0
H424 H 0.64178 0.42854 0.07876 0.0
H425 H 0.558 0.6148 0.95394 0.0
H426 H 0.33522 0.46069 0.97135 0.0
H427 H 0.36059 0.41571 0.97481 0.0
H428 H 0.39757 0.59448 0.95428 0.0
H429 H 0.50522 0.38464 0.0972 0.0
H430 H 0.57022 0.38881 0.09165 0.0
H431 H 0.34936 0.52767 0.96439 0.0
H432 H 0.53739 0.66097 0.94054 0.0
N433 N 0.44742 0.49861 0.97673 0.0
C434 C 0.36672 0.47164 0.97254 0.0
C435 C 0.38093 0.44618 0.97446 0.0
C436 C 0.39342 0.51074 0.97038 0.0
C437 C 0.43421 0.52354 0.972 0.0
C438 C 0.42155 0.46013 0.9761 0.0
N439 N 0.50039 0.57228 0.96562 0.0
C440 C 0.46141 0.5613 0.96606 0.0
C441 C 0.51577 0.63315 0.94782 0.0
C442 C 0.47629 0.62348 0.95013 0.0
C443 C 0.52726 0.60679 0.95512 0.0
C444 C 0.44841 0.58694 0.95875 0.0
H445 H 0.46744 0.64395 0.9444 0.0
O446 O 0.54356 0.50555 0.95379 0.0
O447 O 0.5634 0.52755 0.00586 0.0
O448 O 0.56255 0.58008 0.03886 0.0
O449 O 0.53448 0.58314 1.00013 0.0
O450 O 0.58137 0.56826 0.97763 0.0
O451 O 0.50417 0.52381 0.93976 0.0
O452 O 0.51419 0.50918 0.08402 0.0
O453 O 0.49723 0.51751 0.02176 0.0
O454 O 0.49555 0.46413 0.98992 0.0
O455 O 0.52483 0.46048 0.02838 0.0
O456 O 0.47769 0.47955 0.05193 0.0
O457 O 0.56622 0.56303 0.07513 0.0
C458 C 0.59412 0.55452 0.99522 0.0
C459 C 0.40801 0.57497 0.95934 0.0
C460 C 0.38056 0.53693 0.96516 0.0
C461 C 0.52889 0.51252 0.93359 0.0
C462 C 0.5569 0.53368 0.91269 0.0
C463 C 0.5861 0.57209 0.91585 0.0
C464 C 0.55451 0.51552 0.88923 0.0
C465 C 0.58095 0.53587 0.86918 0.0
C466 C 0.61256 0.59205 0.89609 0.0
C467 C 0.61 0.5741 0.87281 0.0
C468 C 0.55265 0.59848 0.02191 0.0
C469 C 0.46623 0.49176 0.03279 0.0
C470 C 0.54027 0.54255 0.09255 0.0
C471 C 0.55546 0.54377 0.1185 0.0
C472 C 0.59013 0.54209 0.1223 0.0
C473 C 0.53568 0.5479 0.13971 0.0
C474 C 0.55112 0.55158 0.16457 0.0
C475 C 0.60532 0.54536 0.14699 0.0
C476 C 0.58615 0.55037 0.16801 0.0
C477 C 0.50458 0.44523 0.00707 0.0
H478 H 0.58859 0.58696 0.93343 0.0
H479 H 0.53201 0.48596 0.88642 0.0
H480 H 0.63496 0.62162 0.89878 0.0
H481 H 0.63052 0.59006 0.85752 0.0
H482 H 0.60562 0.53867 0.1062 0.0
H483 H 0.50872 0.54893 0.13688 0.0
H484 H 0.63219 0.54427 0.14983 0.0
H485 H 0.5985 0.55314 0.18702 0.0
Gd486 Gd 0.18316 0.35222 0.38436 0.0
Gd487 Gd 0.15825 0.31919 0.31767 0.0
C488 C 0.045 0.20589 0.30452 0.0
C489 C 0.07015 0.16431 0.29115 0.0
C490 C 0.11544 0.23094 0.30114 0.0
C491 C 0.08406 0.2363 0.30687 0.0
C492 C 0.10889 0.19518 0.29251 0.0
C493 C 0.03824 0.16965 0.29718 0.0
C494 C 0.01398 0.21307 0.30913 0.0
C495 C 0.02238 0.2501 0.31503 0.0
N496 N 0.09171 0.27163 0.31392 0.0
C497 C 0.06166 0.27929 0.31705 0.0
H498 H 0.06788 0.30774 0.32161 0.0
C499 C 0.18381 0.25918 0.29298 0.0
N500 N 0.1524 0.26143 0.30264 0.0
C501 C 0.17893 0.22423 0.28453 0.0
C502 C 0.14137 0.1919 0.2847 0.0
H503 H 0.2128 0.28422 0.29255 0.0
H504 H 1.00846 0.14582 0.29552 0.0
H505 H 0.17664 0.28475 0.42483 0.0
H506 H 0.98355 0.19047 0.30765 0.0
H507 H 0.99865 0.25616 0.31818 0.0
H508 H 0.06451 0.13648 0.28483 0.0
H509 H 0.23227 0.44586 0.37285 0.0
H510 H 0.28867 0.32275 0.46006 0.0
H511 H 0.219 0.2729 0.45394 0.0
H512 H 0.36382 0.45278 0.43193 0.0
H513 H 0.20408 0.22231 0.27775 0.0
H514 H 0.13761 0.16491 0.27796 0.0
H515 H 0.34264 0.39002 0.45169 0.0
H516 H 0.29775 0.50172 0.37981 0.0
N517 N 0.22278 0.3388 0.41201 0.0
C518 C 0.27041 0.32762 0.44667 0.0
C519 C 0.23117 0.29941 0.44324 0.0
C520 C 0.28493 0.36261 0.43388 0.0
C521 C 0.2599 0.36748 0.41667 0.0
C522 C 0.20736 0.30599 0.42639 0.0
N523 N 0.24586 0.40648 0.39034 0.0
C524 C 0.27172 0.40259 0.40562 0.0
C525 C 0.29117 0.47388 0.38682 0.0
C526 C 0.31886 0.46991 0.40135 0.0
C527 C 0.25437 0.44186 0.38206 0.0
C528 C 0.30904 0.43409 0.4114 0.0
H529 H 0.34722 0.4948 0.4053 0.0
O530 O 0.17749 0.39283 0.4089 0.0
O531 O 0.13369 0.31628 0.35694 0.0
O532 O 0.13687 0.3612 0.32488 0.0
O533 O 0.16704 0.39248 0.36298 0.0
O534 O 0.13535 0.29226 0.39168 0.0
O535 O 0.14431 0.33301 0.41792 0.0
O536 O 0.19202 0.34369 0.28263 0.0
O537 O 0.20211 0.3659 0.34337 0.0
O538 O 0.20981 0.3145 0.37511 0.0
O539 O 0.17368 0.27949 0.33938 0.0
O540 O 0.22397 0.34588 0.31508 0.0
O541 O 0.13195 0.33122 0.28446 0.0
C542 C 0.11622 0.28609 0.37065 0.0
C543 C 0.33488 0.42903 0.42751 0.0
C544 C 0.32287 0.39329 0.4387 0.0
C545 C 0.1576 0.3674 0.42649 0.0
C546 C 0.17448 0.37478 0.45287 0.0
C547 C 0.21245 0.40593 0.45732 0.0
C548 C 0.15425 0.34936 0.47341 0.0
C549 C 0.17226 0.35482 0.49776 0.0
C550 C 0.23016 0.41128 0.48131 0.0
C551 C 0.21038 0.38589 0.50134 0.0
C552 C 0.14718 0.38926 0.34151 0.0
C553 C 0.23388 0.36992 0.33361 0.0
C554 C 0.16307 0.34307 0.27004 0.0
C555 C 0.15718 0.32783 0.24363 0.0
C556 C 0.14386 0.28895 0.23962 0.0
C557 C 0.16684 0.35244 0.22221 0.0
C558 C 0.16451 0.33831 0.19708 0.0
C559 C 0.14171 0.27493 0.21491 0.0
C560 C 0.15239 0.29943 0.19381 0.0
C561 C 0.19745 0.28527 0.35906 0.0
H562 H 0.22895 0.42602 0.44217 0.0
H563 H 0.12502 0.32517 0.47039 0.0
H564 H 0.25953 0.43515 0.48435 0.0
H565 H 0.2248 0.39056 0.5198 0.0
H566 H 0.1354 0.26939 0.25554 0.0
H567 H 0.1766 0.38245 0.22505 0.0
H568 H 0.13182 0.24493 0.2121 0.0
H569 H 0.15061 0.28792 0.17478 0.0
Gd570 Gd 0.65524 0.82356 0.38492 0.0
Gd571 Gd 0.701 0.83496 0.3198 0.0
C572 C 0.80643 0.81468 0.31643 0.0
C573 C 0.86128 0.87885 0.30966 0.0
C574 C 0.79409 0.86739 0.31193 0.0
C575 C 0.7803 0.82932 0.3166 0.0
C576 C 0.83458 0.89246 0.30739 0.0
C577 C 0.84718 0.83989 0.31408 0.0
C578 C 0.79067 0.7751 0.31736 0.0
C579 C 0.74981 0.75129 0.31738 0.0
N580 N 0.74079 0.806 0.31872 0.0
C581 C 0.72525 0.76734 0.31777 0.0
H582 H 0.69402 0.74862 0.31673 0.0
C583 C 0.77828 0.91371 0.29803 0.0
N584 N 0.76721 0.8789 0.30887 0.0
C585 C 0.81814 0.94008 0.29383 0.0
C586 C 0.84659 0.92971 0.29916 0.0
H587 H 0.75624 0.92127 0.29312 0.0
H588 H 0.86781 0.82931 0.31453 0.0
H589 H 0.62258 0.88529 0.38401 0.0
H590 H 0.80967 0.76266 0.31715 0.0
H591 H 0.73716 0.72058 0.3171 0.0
H592 H 0.89259 0.89778 0.3067 0.0
H593 H 0.63771 0.73881 0.40848 0.0
H594 H 0.49726 0.82473 0.39438 0.0
H595 H 0.5593 0.88532 0.38663 0.0
H596 H 0.47051 0.69864 0.41656 0.0
H597 H 0.8268 0.96816 0.2862 0.0
H598 H 0.87741 0.94991 0.29549 0.0
H599 H 0.46428 0.75482 0.40557 0.0
H600 H 0.58116 0.67798 0.42307 0.0
N601 N 0.59612 0.82536 0.38761 0.0
C602 C 0.52482 0.82457 0.39269 0.0
C603 C 0.55973 0.85879 0.38816 0.0
C604 C 0.52633 0.79102 0.39667 0.0
C605 C 0.56306 0.79256 0.39447 0.0
C606 C 0.59539 0.85867 0.38617 0.0
N607 N 0.60305 0.76477 0.40018 0.0
C608 C 0.56669 0.7614 0.40142 0.0
C609 C 0.57666 0.70117 0.41691 0.0
C610 C 0.53885 0.69673 0.41716 0.0
C611 C 0.60869 0.73572 0.40865 0.0
C612 C 0.53355 0.7272 0.40964 0.0
H613 H 0.51411 0.66993 0.4236 0.0
O614 O 0.67644 0.82218 0.42319 0.0
O615 O 0.70222 0.82305 0.3611 0.0
O616 O 0.65138 0.77325 0.32625 0.0
O617 O 0.61479 0.77089 0.36245 0.0
O618 O 0.69568 0.80088 0.39716 0.0
O619 O 0.66268 0.86644 0.41296 0.0
O620 O 0.69708 0.85347 0.28124 0.0
O621 O 0.65347 0.83614 0.34307 0.0
O622 O 0.69427 0.88677 0.37496 0.0
O623 O 0.7366 0.89022 0.34167 0.0
O624 O 0.67427 0.8724 0.31204 0.0
O625 O 0.67216 0.79327 0.28967 0.0
C626 C 0.71626 0.80857 0.37652 0.0
C627 C 0.49643 0.72476 0.41044 0.0
C628 C 0.49284 0.75667 0.40404 0.0
C629 C 0.67168 0.85013 0.43141 0.0
C630 C 0.64977 0.84275 0.45577 0.0
C631 C 0.60972 0.83235 0.45587 0.0
C632 C 0.66846 0.84412 0.47914 0.0
C633 C 0.64691 0.83438 0.50226 0.0
C634 C 0.58829 0.82243 0.47873 0.0
C635 C 0.60665 0.82315 0.5018 0.0
C636 C 0.61967 0.7559 0.34127 0.0
C637 C 0.6494 0.86129 0.33076 0.0
C638 C 0.68007 0.81901 0.27201 0.0
C639 C 0.69606 0.81384 0.24787 0.0
C640 C 0.73119 0.81238 0.24741 0.0
C641 C 0.67532 0.80944 0.22504 0.0
C642 C 0.68913 0.8028 0.20182 0.0
C643 C 0.74514 0.80603 0.2243 0.0
C644 C 0.72415 0.80106 0.20158 0.0
C645 C 0.72673 0.90568 0.36072 0.0
H646 H 0.59481 0.83173 0.43836 0.0
H647 H 0.69944 0.85237 0.47935 0.0
H648 H 0.55736 0.81418 0.47856 0.0
H649 H 0.5896 0.81548 0.51942 0.0
H650 H 0.74761 0.81589 0.26485 0.0
H651 H 0.6482 0.81066 0.22533 0.0
H652 H 0.77217 0.80477 0.22401 0.0
H653 H 0.73519 0.79594 0.18382 0.0
Gd654 Gd 0.17892 0.85372 0.31356 0.0
Gd655 Gd 0.20376 0.83907 0.37976 0.0
C656 C 0.30625 0.81626 0.3925 0.0
C657 C 0.27265 0.75125 0.40897 0.0
C658 C 0.23574 0.7835 0.39896 0.0
C659 C 0.26964 0.81505 0.3906 0.0
C660 C 0.23692 0.75168 0.40915 0.0
C661 C 0.30737 0.7836 0.40067 0.0
C662 C 0.3407 0.85094 0.38777 0.0
C663 C 0.33803 0.88361 0.38296 0.0
N664 N 0.26732 0.84617 0.38348 0.0
C665 C 0.30087 0.88072 0.3814 0.0
H666 H 0.29904 0.90579 0.37718 0.0
C667 C 0.17001 0.75886 0.41269 0.0
N668 N 0.20226 0.78565 0.39954 0.0
C669 C 0.1694 0.72641 0.42282 0.0
C670 C 0.20273 0.72234 0.42049 0.0
H671 H 0.14425 0.76193 0.41483 0.0
H672 H 0.33512 0.78373 0.40185 0.0
H673 H 0.08701 0.77906 0.31362 0.0
H674 H 0.36946 0.85318 0.38904 0.0
H675 H 0.36448 0.91096 0.38021 0.0
H676 H 0.2741 0.72685 0.41637 0.0
H677 H 0.2366 0.93925 0.28701 0.0
H678 H 1.00653 0.81938 0.29812 0.0
H679 H 0.01889 0.76635 0.30842 0.0
H680 H 0.09207 0.9499 0.27412 0.0
H681 H 0.14327 0.70463 0.43246 0.0
H682 H 0.20235 0.69738 0.42856 0.0
H683 H 0.0342 0.88829 0.28575 0.0
H684 H 0.23055 0.99253 0.26845 0.0
N685 N 0.11302 0.83908 0.30838 0.0
C686 C 0.03651 0.82519 0.30077 0.0
C687 C 0.04336 0.79519 0.3065 0.0
C688 C 0.06857 0.86197 0.29712 0.0
C689 C 0.10699 0.868 0.30095 0.0
C690 C 0.08208 0.80257 0.30967 0.0
N691 N 0.17569 0.90616 0.29653 0.0
C692 C 0.13941 0.90262 0.29454 0.0
C693 C 0.20471 0.96753 0.27589 0.0
C694 C 0.16784 0.96517 0.27494 0.0
C695 C 0.20805 0.93735 0.28644 0.0
C696 C 0.13449 0.9322 0.28396 0.0
H697 H 0.16529 0.98849 0.26663 0.0
O698 O 0.21302 0.85959 0.27911 0.0
O699 O 0.22206 0.84728 0.33838 0.0
O700 O 0.23002 0.90227 0.37005 0.0
O701 O 0.19707 0.9089 0.33502 0.0
O702 O 0.24469 0.88784 0.30945 0.0
O703 O 0.15214 0.81519 0.28122 0.0
O704 O 0.17638 0.83773 0.41652 0.0
O705 O 0.16073 0.84445 0.3546 0.0
O706 O 0.15309 0.79015 0.32278 0.0
O707 O 0.18221 0.78258 0.36014 0.0
O708 O 0.13762 0.80822 0.38557 0.0
O709 O 0.23457 0.88435 0.40723 0.0
C710 C 0.25396 0.87197 0.32756 0.0
C711 C 0.09642 0.92729 0.2818 0.0
C712 C 0.06348 0.89223 0.28844 0.0
C713 C 0.18324 0.83311 0.26664 0.0
C714 C 0.17735 0.84409 0.24071 0.0
C715 C 0.15582 0.86309 0.23735 0.0
C716 C 0.19544 0.83793 0.21931 0.0
C717 C 0.19328 0.85216 0.19497 0.0
C718 C 0.15438 0.87797 0.21347 0.0
C719 C 0.17349 0.87309 0.19247 0.0
C720 C 0.21938 0.92298 0.35577 0.0
C721 C 0.12867 0.82213 0.36613 0.0
C722 C 0.20735 0.86837 0.42478 0.0
C723 C 0.221 0.86659 0.45073 0.0
C724 C 0.25201 0.85897 0.45451 0.0
C725 C 0.20361 0.87383 0.47198 0.0
C726 C 0.21779 0.87447 0.49685 0.0
C727 C 0.26599 0.85936 0.47921 0.0
C728 C 0.24921 0.86733 0.50029 0.0
C729 C 0.16116 0.7693 0.33889 0.0
H730 H 0.14024 0.8666 0.25315 0.0
H731 H 0.21128 0.82238 0.22156 0.0
H732 H 0.13824 0.89317 0.21123 0.0
H733 H 0.17179 0.88457 0.17399 0.0
H734 H 0.26569 0.85314 0.43839 0.0
H735 H 0.17947 0.87949 0.46919 0.0
H736 H 0.29005 0.85368 0.48201 0.0
H737 H 0.26052 0.86771 0.51934 0.0
Gd738 Gd 0.84669 0.69763 0.71287 0.0
Gd739 Gd 0.82431 0.65754 0.64639 0.0
C740 C 0.71361 0.54042 0.63746 0.0
C741 C 0.74142 0.49958 0.62839 0.0
C742 C 0.78421 0.56793 0.63394 0.0
C743 C 0.75205 0.57214 0.63892 0.0
C744 C 0.77925 0.53196 0.62731 0.0
C745 C 0.70855 0.50381 0.63348 0.0
C746 C 0.68159 0.54682 0.63835 0.0
C747 C 0.68855 0.58427 0.63895 0.0
N748 N 0.75826 0.60805 0.64197 0.0
C749 C 0.72732 0.61474 0.64037 0.0
H750 H 0.73227 0.6435 0.64076 0.0
C751 C 0.85044 0.59902 0.62019 0.0
N752 N 0.81986 0.60005 0.63217 0.0
C753 C 0.8474 0.56402 0.61371 0.0
C754 C 0.81193 0.53016 0.61804 0.0
H755 H 0.87744 0.62528 0.61618 0.0
H756 H 0.67929 0.47896 0.63286 0.0
H757 H 0.93597 0.70651 0.72307 0.0
H758 H 0.65157 0.52328 0.63727 0.0
H759 H 0.66408 0.58971 0.63856 0.0
H760 H 0.73703 0.47153 0.62386 0.0
H761 H 0.7945 0.7346 0.73875 0.0
H762 H 0.02146 0.8253 0.72736 0.0
H763 H 1.00496 0.75763 0.72754 0.0
H764 H 0.94138 0.88397 0.73499 0.0
H765 H 0.87225 0.56322 0.60519 0.0
H766 H 0.80941 0.50311 0.61268 0.0
H767 H 0.99734 0.8727 0.72913 0.0
H768 H 0.80288 0.79832 0.74818 0.0
N769 N 0.91337 0.7446 0.71907 0.0
C770 C 0.99104 0.80293 0.72524 0.0
C771 C 0.98183 0.76478 0.72546 0.0
C772 C 0.96053 0.81152 0.72421 0.0
C773 C 0.92147 0.7812 0.72164 0.0
C774 C 0.94256 0.7358 0.72266 0.0
N775 N 0.85367 0.75659 0.72619 0.0
C776 C 0.89031 0.78746 0.72527 0.0
C777 C 0.82768 0.79578 0.74143 0.0
C778 C 0.8647 0.82833 0.73836 0.0
C779 C 0.82295 0.7598 0.73595 0.0
C780 C 0.89693 0.82429 0.73108 0.0
H781 H 0.86848 0.85613 0.74296 0.0
O782 O 0.815 0.68231 0.74938 0.0
O783 O 0.80498 0.65032 0.68737 0.0
O784 O 0.79731 0.69541 0.65382 0.0
O785 O 0.82848 0.73371 0.6896 0.0
O786 O 0.78028 0.66619 0.71637 0.0
O787 O 0.86553 0.67485 0.7441 0.0
O788 O 0.85843 0.68168 0.61146 0.0
O789 O 0.86603 0.70509 0.67198 0.0
O790 O 0.87316 0.65894 0.70534 0.0
O791 O 0.84523 0.62254 0.66814 0.0
O792 O 0.89081 0.68928 0.64295 0.0
O793 O 0.79878 0.67102 0.61355 0.0
C794 C 0.7724 0.64248 0.69782 0.0
C795 C 0.93566 0.85532 0.73101 0.0
C796 C 0.96751 0.84891 0.72762 0.0
C797 C 0.83921 0.67322 0.76021 0.0
C798 C 0.85371 0.68901 0.78595 0.0
C799 C 0.88661 0.72562 0.78865 0.0
C800 C 0.8355 0.66689 0.80802 0.0
C801 C 0.85091 0.68091 0.83261 0.0
C802 C 0.90175 0.73969 0.81296 0.0
C803 C 0.88429 0.71742 0.83478 0.0
C804 C 0.80724 0.7258 0.66836 0.0
C805 C 0.89871 0.71245 0.66189 0.0
C806 C 0.82956 0.68148 0.59897 0.0
C807 C 0.82252 0.6652 0.57295 0.0
C808 C 0.80713 0.62585 0.56956 0.0
C809 C 0.83292 0.68925 0.55126 0.0
C810 C 0.82951 0.67415 0.52639 0.0
C811 C 0.80398 0.61084 0.54504 0.0
C812 C 0.81557 0.63483 0.52362 0.0
C813 C 0.86616 0.63033 0.68955 0.0
H814 H 0.90086 0.74318 0.77199 0.0
H815 H 0.80991 0.63866 0.80608 0.0
H816 H 0.92731 0.76786 0.81487 0.0
H817 H 0.89672 0.72874 0.85346 0.0
H818 H 0.79778 0.60671 0.58581 0.0
H819 H 0.84409 0.7196 0.5537 0.0
H820 H 0.79257 0.58049 0.54264 0.0
H821 H 0.81297 0.6226 0.50474 0.0
Gd822 Gd 0.32181 0.16221 0.70961 0.0
Gd823 Gd 0.36828 0.17666 0.64499 0.0
C824 C 0.47 0.15054 0.64436 0.0
C825 C 0.52732 0.21409 0.64259 0.0
C826 C 0.46117 0.20562 0.64147 0.0
C827 C 0.44516 0.16669 0.64401 0.0
C828 C 0.50241 0.22958 0.63939 0.0
C829 C 0.5111 0.17451 0.64496 0.0
C830 C 0.45292 0.1109 0.64272 0.0
C831 C 0.4122 0.08854 0.63988 0.0
N832 N 0.40528 0.14443 0.6434 0.0
C833 C 0.38876 0.10579 0.64012 0.0
H834 H 0.35753 0.08755 0.63755 0.0
C835 C 0.45034 0.25476 0.62665 0.0
N836 N 0.43621 0.21925 0.63732 0.0
C837 C 0.49093 0.28004 0.62495 0.0
C838 C 0.51718 0.26774 0.63219 0.0
H839 H 0.43019 0.2638 0.62 0.0
H840 H 0.53057 0.16262 0.64596 0.0
H841 H 0.30696 0.23756 0.70998 0.0
H842 H 0.47096 0.09741 0.64275 0.0
H843 H 0.39873 0.0579 0.63776 0.0
H844 H 0.55908 0.23215 0.64164 0.0
H845 H 0.28916 0.07766 0.73826 0.0
H846 H 0.18386 0.19672 0.7204 0.0
H847 H 0.25177 0.25021 0.7138 0.0
H848 H 0.13138 0.06357 0.7379 0.0
H849 H 0.50187 0.30874 0.6177 0.0
H850 H 0.54863 0.28708 0.63039 0.0
H851 H 0.1388 0.12661 0.72833 0.0
H852 H 0.22563 0.02196 0.75139 0.0
N853 N 0.27078 0.17714 0.71309 0.0
C854 C 0.20802 0.19092 0.71858 0.0
C855 C 0.2463 0.22119 0.71494 0.0
C856 C 0.20161 0.1537 0.72083 0.0
C857 C 0.2341 0.14773 0.71827 0.0
C858 C 0.27755 0.2138 0.71262 0.0
N859 N 0.26285 0.10925 0.72418 0.0
C860 C 0.2299 0.11241 0.72373 0.0
C861 C 0.22629 0.04699 0.74327 0.0
C862 C 0.19145 0.04841 0.74073 0.0
C863 C 0.26212 0.07837 0.73563 0.0
C864 C 0.19316 0.08194 0.73175 0.0
H865 H 0.1638 0.02433 0.74706 0.0
O866 O 0.34766 0.15628 0.74504 0.0
O867 O 0.37313 0.16793 0.68671 0.0
O868 O 0.32062 0.1145 0.65088 0.0
O869 O 0.28319 0.10771 0.68776 0.0
O870 O 0.35295 0.12825 0.71597 0.0
O871 O 0.33132 0.19988 0.74198 0.0
O872 O 0.36858 0.20073 0.6076 0.0
O873 O 0.31819 0.1733 0.66807 0.0
O874 O 0.36059 0.22588 0.70041 0.0
O875 O 0.40324 0.23147 0.66701 0.0
O876 O 0.3355 0.20922 0.63701 0.0
O877 O 0.34601 0.1399 0.6117 0.0
C878 C 0.37944 0.14371 0.69829 0.0
C879 C 0.16 0.08681 0.73216 0.0
C880 C 0.16424 0.12272 0.72678 0.0
C881 C 0.34369 0.18231 0.75708 0.0
C882 C 0.32537 0.17113 0.78262 0.0
C883 C 0.28425 0.14931 0.78525 0.0
C884 C 0.34926 0.17997 0.8045 0.0
C885 C 0.3322 0.16563 0.82873 0.0
C886 C 0.26723 0.13487 0.80917 0.0
C887 C 0.29103 0.14247 0.83076 0.0
C888 C 0.28996 0.09442 0.66623 0.0
C889 C 0.31011 0.19558 0.65543 0.0
C890 C 0.35536 0.1682 0.59584 0.0
C891 C 0.37664 0.16847 0.57254 0.0
C892 C 0.41459 0.17299 0.57391 0.0
C893 C 0.35815 0.16282 0.54865 0.0
C894 C 0.37697 0.16063 0.52623 0.0
C895 C 0.43365 0.17142 0.55162 0.0
C896 C 0.41485 0.16496 0.52787 0.0
C897 C 0.39283 0.24597 0.68625 0.0
H898 H 0.26532 0.1431 0.76884 0.0
H899 H 0.38104 0.19732 0.80266 0.0
H900 H 0.2355 0.11759 0.81095 0.0
H901 H 0.27733 0.13086 0.84918 0.0
H902 H 0.42929 0.17731 0.59213 0.0
H903 H 0.32871 0.15906 0.54753 0.0
H904 H 0.46283 0.17471 0.55281 0.0
H905 H 0.42962 0.16302 0.51081 0.0
Gd906 Gd 0.84034 0.19116 0.64796 0.0
Gd907 Gd 0.87382 0.18085 0.71329 0.0
C908 C 1.00761 0.25431 0.72479 0.0
C909 C 0.03086 0.21143 0.71131 0.0
C910 C 0.96034 0.18937 0.71275 0.0
C911 C 0.96828 0.22541 0.72016 0.0
C912 C 0.99168 0.18179 0.70906 0.0
C913 C 0.03881 0.2476 0.71932 0.0
C914 C 0.01441 0.28851 0.73593 0.0
C915 C 0.98244 0.29218 0.74392 0.0
N916 N 0.93755 0.23122 0.72515 0.0
C917 C 0.94413 0.26263 0.73921 0.0
H918 H 0.9198 0.26571 0.74625 0.0
C919 C 0.91375 0.12386 0.70935 0.0
N920 N 0.9221 0.16113 0.711 0.0
C921 C 0.9437 0.11509 0.7052 0.0
C922 C 0.98281 0.14431 0.70428 0.0
H923 H 0.88416 0.10019 0.71145 0.0
H924 H 0.06915 0.26976 0.72215 0.0
H925 H 0.74975 0.1136 0.65488 0.0
H926 H 0.04412 0.31133 0.73976 0.0
H927 H 0.98723 0.31761 0.75393 0.0
H928 H 0.05518 0.20624 0.70799 0.0
H929 H 0.8923 0.27658 0.62068 0.0
H930 H 0.66389 0.14259 0.6303 0.0
H931 H 0.68092 0.09516 0.64688 0.0
H932 H 0.74128 0.27285 0.60327 0.0
H933 H 0.93656 0.08566 0.70305 0.0
H934 H 1.006 0.1374 0.70126 0.0
H935 H 0.6866 0.20916 0.61469 0.0
H936 H 0.88179 0.327 0.60174 0.0
N937 N 0.77277 0.17189 0.64377 0.0
C938 C 0.69448 0.15105 0.63387 0.0
C939 C 0.70397 0.12421 0.64316 0.0
C940 C 0.72462 0.18837 0.62893 0.0
C941 C 0.76398 0.19798 0.63401 0.0
C942 C 0.7434 0.135 0.64771 0.0
N943 N 0.832 0.24055 0.63053 0.0
C944 C 0.7946 0.23362 0.62745 0.0
C945 C 0.85701 0.30111 0.60921 0.0
C946 C 0.81883 0.2954 0.60732 0.0
C947 C 0.86295 0.27276 0.62025 0.0
C948 C 0.78693 0.2609 0.61585 0.0
H949 H 0.81417 0.31707 0.59832 0.0
O950 O 0.8723 0.20036 0.61193 0.0
O951 O 0.88621 0.18626 0.67131 0.0
O952 O 0.88859 0.24186 0.70573 0.0
O953 O 0.85626 0.24607 0.66904 0.0
O954 O 0.90629 0.22729 0.64282 0.0
O955 O 0.81602 0.14913 0.61771 0.0
O956 O 0.86126 0.14038 0.74435 0.0
O957 O 0.82466 0.17724 0.689 0.0
O958 O 0.81553 0.12817 0.65684 0.0
O959 O 0.84801 0.12406 0.69318 0.0
O960 O 0.8109 0.16178 0.7262 0.0
O961 O 0.86423 0.19558 0.75173 0.0
C962 C 0.91715 0.21164 0.66014 0.0
C963 C 0.74777 0.2522 0.612 0.0
C964 C 0.71666 0.21592 0.61844 0.0
C965 C 0.84435 0.16947 0.60159 0.0
C966 C 0.83262 0.17303 0.57543 0.0
C967 C 0.79732 0.17321 0.57076 0.0
C968 C 0.85626 0.1744 0.55471 0.0
C969 C 0.84378 0.17398 0.52937 0.0
C970 C 0.78532 0.17375 0.54562 0.0
C971 C 0.80815 0.1737 0.525 0.0
C972 C 0.87724 0.26054 0.69026 0.0
C973 C 0.79612 0.16491 0.70501 0.0
C974 C 0.85764 0.1628 0.76092 0.0
C975 C 0.84835 0.15238 0.78822 0.0
C976 C 0.83387 0.11429 0.79582 0.0
C977 C 0.85094 0.17934 0.80648 0.0
C978 C 0.8386 0.16788 0.83197 0.0
C979 C 0.8218 0.10302 0.82107 0.0
C980 C 0.82403 0.12956 0.83903 0.0
C981 C 0.82504 0.10871 0.67302 0.0
H982 H 0.77872 0.17226 0.58646 0.0
H983 H 0.88363 0.17443 0.55822 0.0
H984 H 0.75794 0.17358 0.5421 0.0
H985 H 0.79799 0.1733 0.5056 0.0
H986 H 0.83113 0.09296 0.78211 0.0
H987 H 0.86205 0.20888 0.80095 0.0
H988 H 0.81044 0.07354 0.82671 0.0
H989 H 0.8145 0.12024 0.85857 0.0
C990 C 0.36417 0.87224 0.04652 0.0
C991 C 0.32902 0.87425 0.04757 0.0
C992 C 0.36376 0.93812 0.028 0.0
C993 C 0.39923 0.93624 0.02679 0.0
N994 N 0.42771 0.89507 0.02682 0.0
N995 N 0.29258 0.90462 0.03377 0.0
C996 C 0.39775 0.90129 0.03347 0.0
C997 C 0.32797 0.90584 0.03652 0.0
N998 N 0.36629 0.84352 0.05911 0.0
N999 N 0.36446 0.97111 0.02107 0.0
H1000 H 0.26595 0.88134 0.0398 0.0
H1001 H 0.28906 0.92495 0.02357 0.0
H1002 H 0.38863 0.9934 0.01183 0.0
H1003 H 0.34161 0.97664 0.02486 0.0
H1004 H 0.39264 0.84336 0.06181 0.0
H1005 H 0.34245 0.82149 0.06883 0.0
H1006 H 0.42658 0.86886 0.02897 0.0
H1007 H 0.45117 0.91438 0.01586 0.0
C1008 C 0.11647 0.42596 0.04766 0.0
C1009 C 0.15357 0.45818 0.05313 0.0
C1010 C 0.12575 0.49983 0.04315 0.0
C1011 C 0.0871 0.46718 0.04089 0.0
N1012 N 0.04591 0.39879 0.04736 0.0
N1013 N 0.19328 0.52613 0.05828 0.0
C1014 C 0.0826 0.43018 0.04499 0.0
C1015 C 0.15832 0.49527 0.05109 0.0
N1016 N 0.11366 0.39107 0.04459 0.0
N1017 N 0.13148 0.53544 0.03855 0.0
H1018 H 0.21775 0.52395 0.06376 0.0
H1019 H 0.19744 0.55352 0.0605 0.0
H1020 H 0.1084 0.54048 0.03557 0.0
H1021 H 0.15912 0.55958 0.03616 0.0
H1022 H 0.08826 0.36716 0.03794 0.0
H1023 H 0.13807 0.38714 0.04587 0.0
H1024 H 0.04132 0.37218 0.05328 0.0
H1025 H 0.01985 0.39966 0.04585 0.0
C1026 C 0.60881 0.70326 0.04415 0.0
C1027 C 0.57682 0.70874 0.05085 0.0
C1028 C 0.53151 0.64812 0.03009 0.0
C1029 C 0.56206 0.63863 0.0283 0.0
N1030 N 0.63115 0.65919 0.03278 0.0
N1031 N 0.50637 0.68288 0.05373 0.0
C1032 C 0.60113 0.66689 0.03514 0.0
C1033 C 0.53785 0.68047 0.04453 0.0
N1034 N 0.64653 0.73326 0.04562 0.0
N1035 N 0.49636 0.62689 0.01798 0.0
H1036 H 0.50923 0.70519 0.06525 0.0
H1037 H 0.47733 0.66066 0.05209 0.0
H1038 H 0.48878 0.60181 0.00839 0.0
H1039 H 0.47561 0.63581 0.01604 0.0
H1040 H 0.67103 0.73228 0.03871 0.0
H1041 H 0.65299 0.76048 0.05147 0.0
H1042 H 0.65905 0.67597 0.04068 0.0
H1043 H 0.62734 0.63501 0.02341 0.0
C1044 C 0.90824 0.31665 0.984 0.0
C1045 C 0.87064 0.31099 0.97708 0.0
C1046 C 0.88735 0.37218 0.9971 0.0
C1047 C 0.92763 0.38153 0.9997 0.0
N1048 N 0.97536 0.3603 0.99678 0.0
N1049 N 0.8267 0.33658 0.9734 0.0
C1050 C 0.9377 0.35302 0.99336 0.0
C1051 C 0.86069 0.33939 0.98289 0.0
N1052 N 0.91524 0.2867 0.98259 0.0
N1053 N 0.87362 0.39386 0.00821 0.0
H1054 H 0.80657 0.31371 0.96231 0.0
H1055 H 0.82044 0.35883 0.9744 0.0
H1056 H 0.8913 0.42013 0.01658 0.0
H1057 H 0.8436 0.38441 0.01026 0.0
H1058 H 0.94056 0.28754 0.98966 0.0
H1059 H 0.89393 0.25956 0.97653 0.0
H1060 H 0.98635 0.34363 0.98912 0.0
H1061 H 0.9959 0.38382 0.00697 0.0
C1062 C 0.67624 0.52945 0.97982 0.0
C1063 C 0.70971 0.56625 0.97726 0.0
C1064 C 0.66807 0.59468 0.98619 0.0
C1065 C 0.63459 0.55789 0.99153 0.0
N1066 N 0.61166 0.49015 0.99783 0.0
N1067 N 0.73933 0.63343 0.98578 0.0
C1068 C 0.64018 0.5253 0.98988 0.0
C1069 C 0.70613 0.5986 0.98307 0.0
N1070 N 0.67806 0.49828 0.97144 0.0
N1071 N 0.66403 0.62616 0.9828 0.0
H1072 H 0.76768 0.63723 0.98401 0.0
H1073 H 0.73869 0.65738 0.9926 0.0
H1074 H 0.63748 0.62606 0.98399 0.0
H1075 H 0.6869 0.65216 0.97608 0.0
H1076 H 0.65329 0.47128 0.96956 0.0
H1077 H 0.70379 0.49999 0.96422 0.0
H1078 H 0.61626 0.46697 0.99992 0.0
H1079 H 0.58493 0.48483 1.00508 0.0
C1080 C 0.48565 0.1415 0.9584 0.0
C1081 C 0.45528 0.14631 0.96958 0.0
C1082 C 0.4406 0.09437 1.00008 0.0
C1083 C 0.46884 0.08753 0.98756 0.0
N1084 N 0.51489 0.1014 0.95266 0.0
N1085 N 0.40058 0.12508 0.99884 0.0
C1086 C 0.49028 0.11012 0.96604 0.0
C1087 C 0.43194 0.12223 0.98992 0.0
N1088 N 0.51107 0.16789 0.94111 0.0
N1089 N 0.42204 0.07423 0.02171 0.0
H1090 H 0.39386 0.14556 0.99212 0.0
H1091 H 0.3796 0.10568 0.01158 0.0
H1092 H 0.42586 0.05214 0.02872 0.0
H1093 H 0.40483 0.08081 0.03359 0.0
H1094 H 0.5366 0.16863 0.93449 0.0
H1095 H 0.50866 0.19128 0.93499 0.0
H1096 H 0.52713 0.11335 0.9349 0.0
H1097 H 0.52137 0.08044 0.95847 0.0
C1098 C 0.652 0.13859 0.97702 0.0
C1099 C 0.685 0.1337 0.98225 0.0
C1100 C 0.64041 0.07136 1.0014 0.0
C1101 C 0.60743 0.07644 0.99694 0.0
N1102 N 0.58588 0.12214 0.98947 0.0
N1103 N 0.71043 0.10296 0.00991 0.0
C1104 C 0.61461 0.11258 0.98792 0.0
C1105 C 0.6792 0.10255 0.9979 0.0
N1106 N 0.65524 0.16626 0.96041 0.0
N1107 N 0.63496 0.03671 0.00894 0.0
H1108 H 0.73852 0.12704 0.00989 0.0
H1109 H 0.70719 0.08171 0.02274 0.0
H1110 H 0.6074 0.01439 0.01419 0.0
H1111 H 0.65771 0.03028 0.00942 0.0
H1112 H 0.63084 0.16778 0.95386 0.0
H1113 H 0.68147 0.18574 0.95145 0.0
H1114 H 0.59058 0.14932 0.98507 0.0
H1115 H 0.55917 0.10436 0.99831 0.0
C1116 C 0.87654 0.49937 0.98571 0.0
C1117 C 0.87955 0.53537 0.98054 0.0
C1118 C 0.95051 0.56531 0.99103 0.0
C1119 C 0.94781 0.52881 0.99211 0.0
N1120 N 0.90968 0.46385 0.97751 0.0
N1121 N 0.92348 0.60323 0.97383 0.0
C1122 C 0.91122 0.4964 0.98606 0.0
C1123 C 0.91771 0.56866 0.98208 0.0
N1124 N 0.84091 0.4677 0.99035 0.0
N1125 N 0.98424 0.59686 0.99888 0.0
H1126 H 0.90102 0.60753 0.96695 0.0
H1127 H 0.9514 0.62716 0.97175 0.0
H1128 H 1.00792 0.59508 0.00644 0.0
H1129 H 0.98675 0.62368 1.00083 0.0
H1130 H 0.83846 0.44143 0.995 0.0
H1131 H 0.81515 0.46892 0.99322 0.0
H1132 H 0.88395 0.4415 0.96972 0.0
H1133 H 0.93471 0.46118 0.97532 0.0
C1134 C 0.4647 0.33746 0.0139 0.0
C1135 C 0.46555 0.32703 0.98798 0.0
C1136 C 0.50194 0.39519 0.97688 0.0
C1137 C 0.4926 0.40458 1.00115 0.0
N1138 N 0.45762 0.38164 0.04135 0.0
N1139 N 0.48287 0.34767 0.94376 0.0
C1140 C 0.47209 0.37492 0.01939 0.0
C1141 C 0.48356 0.35639 0.96913 0.0
N1142 N 0.45814 0.31236 0.03344 0.0
N1143 N 0.53018 0.423 0.96177 0.0
H1144 H 0.47108 0.31992 0.93697 0.0
H1145 H 0.49159 0.36815 0.92924 0.0
H1146 H 0.54718 0.45091 0.96812 0.0
H1147 H 0.54045 0.4173 0.9448 0.0
H1148 H 0.46007 0.32005 0.05271 0.0
H1149 H 0.45654 0.28607 0.03061 0.0
H1150 H 0.43937 0.35997 0.05405 0.0
H1151 H 0.46032 0.40804 0.04537 0.0
C1152 C 0.14261 0.67916 0.01553 0.0
C1153 C 0.15409 0.69072 0.04123 0.0
C1154 C 0.11326 0.62356 0.05481 0.0
C1155 C 0.09621 0.61397 0.02991 0.0
N1156 N 0.089 0.63649 0.98842 0.0
N1157 N 0.14892 0.6732 0.08609 0.0
C1158 C 0.10942 0.6428 0.01073 0.0
C1159 C 0.13909 0.66265 0.0611 0.0
N1160 N 0.16389 0.70225 0.99557 0.0
N1161 N 0.10632 0.59542 0.07218 0.0
H1162 H 0.16991 0.7007 0.09152 0.0
H1163 H 0.13467 0.65503 0.10154 0.0
H1164 H 0.08831 0.56647 0.06839 0.0
H1165 H 0.12143 0.60054 0.08949 0.0
H1166 H 0.158 0.69354 0.97648 0.0
H1167 H 0.19043 0.72764 0.99819 0.0
H1168 H 0.09541 0.65795 0.97492 0.0
H1169 H 0.06332 0.61093 0.98469 0.0
C1170 C 0.38403 0.51715 0.03902 0.0
C1171 C 0.35109 0.4815 0.04605 0.0
C1172 C 0.39186 0.45185 0.03639 0.0
C1173 C 0.42618 0.48856 0.0341 0.0
N1174 N 0.45368 0.55478 0.04573 0.0
N1175 N 0.32632 0.41429 0.05452 0.0
C1176 C 0.42212 0.52104 0.03851 0.0
C1177 C 0.35558 0.44849 0.04535 0.0
N1178 N 0.37959 0.54774 0.0331 0.0
N1179 N 0.3939 0.42006 0.0301 0.0
H1180 H 0.2993 0.41005 0.06112 0.0
H1181 H 0.33003 0.39071 0.0574 0.0
H1182 H 0.41957 0.42173 0.02288 0.0
H1183 H 0.36926 0.39284 0.02911 0.0
H1184 H 0.40333 0.57372 0.02701 0.0
H1185 H 0.35198 0.54543 0.03081 0.0
H1186 H 0.45027 0.57729 0.05252 0.0
H1187 H 0.48176 0.55842 0.04824 0.0
C1188 C 0.55038 0.89225 0.0625 0.0
C1189 C 0.57156 0.88155 0.04533 0.0
C1190 C 0.56726 0.92222 0.01211 0.0
C1191 C 0.54403 0.93123 0.02852 0.0
N1192 N 0.50333 0.91436 0.06665 0.0
N1193 N 0.58462 0.87448 1.00088 0.0
C1194 C 0.53259 0.91321 0.05298 0.0
C1195 C 0.57505 0.89267 0.01918 0.0
N1196 N 0.54751 0.88293 0.08795 0.0
N1197 N 0.58409 0.9432 0.99049 0.0
H1198 H 0.58694 0.85032 1.00483 0.0
H1199 H 0.58464 0.8801 0.98132 0.0
H1200 H 0.58135 0.9667 0.9854 0.0
H1201 H 0.60421 0.93975 0.97927 0.0
H1202 H 0.5368 0.89424 0.10169 0.0
H1203 H 0.55796 0.86582 0.0957 0.0
H1204 H 0.49125 0.89862 0.0834 0.0
H1205 H 0.48797 0.92749 0.05979 0.0
C1206 C 1.00529 0.24071 0.38242 0.0
C1207 C 0.99507 0.20204 0.38622 0.0
C1208 C 0.06105 0.21787 0.37122 0.0
C1209 C 0.07315 0.25746 0.37141 0.0
N1210 N 0.05786 0.30615 0.38437 0.0
N1211 N 0.01639 0.1552 0.3885 0.0
C1212 C 0.04551 0.26887 0.37878 0.0
C1213 C 0.02362 0.1908 0.38147 0.0
N1214 N 0.97661 0.25065 0.38235 0.0
N1215 N 0.08545 0.20597 0.36144 0.0
H1216 H 0.99015 0.13479 0.39704 0.0
H1217 H 0.03793 0.14715 0.38822 0.0
H1218 H 0.11312 0.22498 0.35412 0.0
H1219 H 0.0767 0.17738 0.35815 0.0
H1220 H 0.98223 0.278 0.37749 0.0
H1221 H 0.94675 0.23054 0.38441 0.0
H1222 H 0.03937 0.31505 0.39247 0.0
H1223 H 0.08725 0.32769 0.3831 0.0
C1224 C 0.8248 0.83326 0.38165 0.0
C1225 C 0.81972 0.79609 0.38434 0.0
C1226 C 0.74836 0.76785 0.37839 0.0
C1227 C 0.75262 0.80478 0.37537 0.0
N1228 N 0.79458 0.87307 0.37772 0.0
N1229 N 0.77936 0.72879 0.37666 0.0
C1230 C 0.79101 0.83769 0.37744 0.0
C1231 C 0.78228 0.7637 0.37997 0.0
N1232 N 0.86189 0.86422 0.3834 0.0
N1233 N 0.71176 0.73658 0.38139 0.0
H1234 H 0.80395 0.72507 0.37684 0.0
H1235 H 0.75356 0.70465 0.37076 0.0
H1236 H 0.68602 0.73813 0.3812 0.0
H1237 H 0.70713 0.7097 0.38659 0.0
H1238 H 0.869 0.89213 0.37922 0.0
H1239 H 0.88662 0.86189 0.38775 0.0
H1240 H 0.82061 0.89853 0.38084 0.0
H1241 H 0.77034 0.87685 0.37632 0.0
C1242 C 0.23657 0.02607 0.36039 0.0
C1243 C 0.24852 0.03542 0.38636 0.0
C1244 C 0.25363 0.97778 0.38796 0.0
C1245 C 0.23143 0.9632 0.36493 0.0
N1246 N 0.18755 0.9735 0.33674 0.0
N1247 N 0.25176 0.00756 0.42721 0.0
C1248 C 0.21891 0.98728 0.35285 0.0
C1249 C 0.25185 0.00744 0.40106 0.0
N1250 N 0.24227 0.0533 0.3427 0.0
N1251 N 0.27902 0.96644 0.39654 0.0
H1252 H 0.24501 0.02546 0.43776 0.0
H1253 H 0.25305 0.98623 0.43785 0.0
H1254 H 0.28912 0.95273 0.38447 0.0
H1255 H 0.29544 0.97743 0.4133 0.0
H1256 H 0.23448 0.0464 0.32347 0.0
H1257 H 0.25908 0.08244 0.34652 0.0
H1258 H 0.17795 0.99121 0.32872 0.0
H1259 H 0.16693 0.94471 0.33588 0.0
C1260 C 0.56294 0.65 0.32195 0.0
C1261 C 0.52787 0.64725 0.31202 0.0
C1262 C 0.54882 0.71206 0.32745 0.0
C1263 C 0.58679 0.71729 0.33344 0.0
N1264 N 0.62917 0.69016 0.33792 0.0
N1265 N 0.4889 0.677 0.30271 0.0
C1266 C 0.59353 0.68584 0.3311 0.0
C1267 C 0.52099 0.67847 0.31433 0.0
N1268 N 0.5664 0.61792 0.32326 0.0
N1269 N 0.53882 0.73878 0.3344 0.0
H1270 H 0.46761 0.65297 0.29304 0.0
H1271 H 0.48506 0.70066 0.30081 0.0
H1272 H 0.55817 0.76457 0.34304 0.0
H1273 H 0.5101 0.73405 0.33342 0.0
H1274 H 0.5894 0.61676 0.33245 0.0
H1275 H 0.5443 0.59126 0.31698 0.0
H1276 H 0.63837 0.67063 0.33363 0.0
H1277 H 0.65027 0.71444 0.34722 0.0
C1278 C 0.36498 0.91475 0.31791 0.0
C1279 C 0.36674 0.88254 0.30895 0.0
C1280 C 0.29724 0.84124 0.32127 0.0
C1281 C 0.29353 0.87413 0.32609 0.0
N1282 N 0.32469 0.94293 0.32868 0.0
N1283 N 0.33403 0.81511 0.30021 0.0
C1284 C 0.32779 0.91109 0.32437 0.0
C1285 C 0.33288 0.8457 0.31047 0.0
N1286 N 0.39915 0.94883 0.3206 0.0
N1287 N 0.26704 0.80567 0.327 0.0
H1288 H 0.35962 0.81693 0.29262 0.0
H1289 H 0.30905 0.7885 0.29747 0.0
H1290 H 0.24082 0.80103 0.33492 0.0
H1291 H 0.26957 0.78118 0.32663 0.0
H1292 H 0.40064 0.97262 0.32944 0.0
H1293 H 0.42677 0.95219 0.31619 0.0
H1294 H 0.34694 0.97053 0.3243 0.0
H1295 H 0.29914 0.94173 0.33579 0.0
C1296 C 0.15751 0.48053 0.3117 0.0
C1297 C 0.1181 0.4732 0.3127 0.0
C1298 C 0.09772 0.41164 0.33395 0.0
C1299 C 0.13758 0.41979 0.33428 0.0
N1300 N 0.20633 0.4656 0.32744 0.0
N1301 N 0.05217 0.43582 0.32943 0.0
C1302 C 0.16772 0.45552 0.3246 0.0
C1303 C 0.08864 0.43994 0.32526 0.0
N1304 N 0.18484 0.51007 0.29703 0.0
N1305 N 0.06829 0.37645 0.34137 0.0
H1306 H 0.04466 0.45609 0.32346 0.0
H1307 H 0.03062 0.41424 0.34078 0.0
H1308 H 0.07398 0.35578 0.34877 0.0
H1309 H 0.03843 0.36692 0.33861 0.0
H1310 H 0.21273 0.51404 0.29292 0.0
H1311 H 0.17865 0.52885 0.28699 0.0
H1312 H 0.22971 0.49303 0.32399 0.0
H1313 H 0.21484 0.44694 0.33476 0.0
C1314 C 0.34304 0.44574 0.33989 0.0
C1315 C 0.34893 0.46677 0.31686 0.0
C1316 C 0.27693 0.43161 0.31016 0.0
C1317 C 0.27222 0.40656 0.33091 0.0
N1318 N 0.30451 0.38426 0.36007 0.0
N1319 N 0.32076 0.47613 0.27806 0.0
C1320 C 0.30631 0.41206 0.34427 0.0
C1321 C 0.31557 0.4591 0.30159 0.0
N1322 N 0.3723 0.45787 0.35778 0.0
N1323 N 0.24447 0.42815 0.29785 0.0
H1324 H 0.34807 0.49674 0.27093 0.0
H1325 H 0.29831 0.46777 0.26459 0.0
H1326 H 0.21581 0.40795 0.30309 0.0
H1327 H 0.2456 0.44777 0.28437 0.0
H1328 H 0.36903 0.44373 0.37515 0.0
H1329 H 0.39764 0.48468 0.3569 0.0
H1330 H 0.32949 0.38505 0.36781 0.0
H1331 H 0.27832 0.35936 0.36409 0.0
C1332 C 0.57986 0.90257 0.32887 0.0
C1333 C 0.55042 0.87693 0.31192 0.0
C1334 C 0.58129 0.83643 0.31227 0.0
C1335 C 0.61272 0.86394 0.32766 0.0
N1336 N 0.64637 0.92831 0.34431 0.0
N1337 N 0.51705 0.8144 0.29286 0.0
C1338 C 0.61324 0.89846 0.33412 0.0
C1339 C 0.54912 0.84212 0.30549 0.0
N1340 N 0.57514 0.9301 0.34085 0.0
N1341 N 0.58454 0.80732 0.30139 0.0
H1342 H 0.49363 0.81792 0.28689 0.0
H1343 H 0.51183 0.78667 0.29035 0.0
H1344 H 0.60752 0.80211 0.30541 0.0
H1345 H 0.56599 0.78965 0.28703 0.0
H1346 H 0.59408 0.94773 0.35511 0.0
H1347 H 0.54937 0.93167 0.33906 0.0
H1348 H 0.65026 0.9557 0.34613 0.0
H1349 H 0.67078 0.9262 0.34971 0.0
C1350 C 0.12203 0.66215 0.34488 0.0
C1351 C 0.12254 0.65157 0.31903 0.0
C1352 C 0.15607 0.71968 0.30715 0.0
C1353 C 0.14756 0.72875 0.33185 0.0
N1354 N 0.11326 0.70529 0.37217 0.0
N1355 N 0.13866 0.67118 0.27463 0.0
C1356 C 0.12815 0.6991 0.35021 0.0
C1357 C 0.13926 0.68063 0.29986 0.0
N1358 N 0.11687 0.63759 0.3645 0.0
N1359 N 0.18163 0.74806 0.29105 0.0
H1360 H 0.12861 0.64334 0.2684 0.0
H1361 H 0.14593 0.69085 0.25972 0.0
H1362 H 0.19612 0.77685 0.29603 0.0
H1363 H 0.19178 0.74276 0.2739 0.0
H1364 H 0.11908 0.6455 0.38374 0.0
H1365 H 0.11606 0.61164 0.36163 0.0
H1366 H 0.09563 0.68343 0.38496 0.0
H1367 H 0.11496 0.73131 0.37608 0.0
C1368 C 0.79884 0.01179 0.35061 0.0
C1369 C 0.80911 0.02526 0.37608 0.0
C1370 C 0.76996 0.95873 0.39146 0.0
C1371 C 0.75413 0.94696 0.36643 0.0
N1372 N 0.74679 0.96624 0.3238 0.0
N1373 N 0.803 0.01078 0.42153 0.0
C1374 C 0.76679 0.97455 0.34642 0.0
C1375 C 0.79429 0.99847 0.39676 0.0
N1376 N 0.82024 0.03386 0.3303 0.0
N1377 N 0.76334 0.93208 0.40995 0.0
H1378 H 0.82306 0.03885 0.42638 0.0
H1379 H 0.78871 0.99343 0.43731 0.0
H1380 H 0.74633 0.90279 0.40691 0.0
H1381 H 0.77774 0.93881 0.42759 0.0
H1382 H 0.81524 0.02375 0.31149 0.0
H1383 H 0.84616 0.05994 0.33255 0.0
H1384 H 0.75282 0.9867 0.30959 0.0
H1385 H 0.72162 0.94013 0.32046 0.0
C1386 C 0.01932 0.78346 0.37757 0.0
C1387 C 0.01564 0.81681 0.37572 0.0
C1388 C 0.08624 0.85427 0.36579 0.0
C1389 C 0.08951 0.82077 0.36547 0.0
N1390 N 0.05518 0.75205 0.36371 0.0
N1391 N 0.04338 0.88011 0.35727 0.0
C1392 C 0.05469 0.78489 0.36902 0.0
C1393 C 0.04826 0.85087 0.36609 0.0
N1394 N 0.99011 0.75078 0.38851 0.0
N1395 N 0.11881 0.88931 0.36844 0.0
H1396 H 0.0156 0.87741 0.35494 0.0
H1397 H 0.06638 0.9046 0.34888 0.0
H1398 H 0.14648 0.89266 0.37195 0.0
H1399 H 0.11715 0.91412 0.37089 0.0
H1400 H 0.99369 0.72752 0.39308 0.0
H1401 H 0.9634 0.74767 0.39475 0.0
H1402 H 0.02993 0.72515 0.36389 0.0
H1403 H 0.07986 0.75247 0.35578 0.0
C1404 C 0.19525 0.19188 0.37373 0.0
C1405 C 0.23286 0.19937 0.36511 0.0
C1406 C 0.24571 0.26237 0.34949 0.0
C1407 C 0.21147 0.2572 0.36261 0.0
N1408 N 0.1573 0.21864 0.3912 0.0
N1409 N 0.29234 0.24062 0.34118 0.0
C1410 C 0.18745 0.22251 0.37598 0.0
C1411 C 0.25766 0.23435 0.35193 0.0
N1412 N 0.16577 0.15521 0.37791 0.0
N1413 N 0.26591 0.29323 0.33373 0.0
H1414 H 0.29914 0.21904 0.33809 0.0
H1415 H 0.31476 0.26747 0.33545 0.0
H1416 H 0.2588 0.31469 0.33201 0.0
H1417 H 0.2879 0.29644 0.32099 0.0
H1418 H 0.13689 0.14827 0.38224 0.0
H1419 H 0.16862 0.13157 0.37328 0.0
H1420 H 0.14152 0.19529 0.40336 0.0
H1421 H 0.15041 0.24023 0.39323 0.0
C1422 C 0.66234 0.57735 0.70718 0.0
C1423 C 0.65975 0.54143 0.71136 0.0
C1424 C 0.73017 0.56944 0.70131 0.0
C1425 C 0.73332 0.6059 0.69746 0.0
N1426 N 0.70005 0.64178 0.69033 0.0
N1427 N 0.68817 0.50088 0.70581 0.0
C1428 C 0.69855 0.6089 0.69854 0.0
C1429 C 0.69259 0.53668 0.70598 0.0
N1430 N 0.63024 0.58144 0.71206 0.0
N1431 N 0.76319 0.56622 0.70256 0.0
H1432 H 0.66181 0.47637 0.71052 0.0
H1433 H 0.7096 0.49508 0.69877 0.0
H1434 H 0.79098 0.58889 0.69906 0.0
H1435 H 0.76341 0.54179 0.70883 0.0
H1436 H 0.63135 0.60772 0.71289 0.0
H1437 H 0.6025 0.55832 0.71641 0.0
H1438 H 0.67547 0.64519 0.68845 0.0
H1439 H 0.72553 0.66424 0.6824 0.0
C1440 C 0.44831 0.10205 0.70682 0.0
C1441 C 0.48409 0.13468 0.71422 0.0
C1442 C 0.45414 0.17514 0.70631 0.0
C1443 C 0.41727 0.14206 0.70023 0.0
N1444 N 0.37884 0.07349 0.69693 0.0
N1445 N 0.52389 0.2031 0.71643 0.0
C1446 C 0.41445 0.10545 0.70114 0.0
C1447 C 0.48788 0.17147 0.71237 0.0
N1448 N 0.44746 0.06798 0.70374 0.0
N1449 N 0.45623 0.20975 0.70862 0.0
H1450 H 0.54834 0.20173 0.72295 0.0
H1451 H 0.53053 0.23074 0.71168 0.0
H1452 H 0.43268 0.21383 0.70477 0.0
H1453 H 0.48019 0.23403 0.71616 0.0
H1454 H 0.42392 0.04385 0.69569 0.0
H1455 H 0.47205 0.06481 0.70682 0.0
H1456 H 0.37271 0.04589 0.70134 0.0
H1457 H 0.35495 0.07478 0.68929 0.0
C1458 C 0.87055 0.33748 0.72905 0.0
C1459 C 0.90101 0.37135 0.71785 0.0
C1460 C 0.91286 0.33278 0.68628 0.0
C1461 C 0.88522 0.29889 0.69934 0.0
N1462 N 0.84467 0.2704 0.73724 0.0
N1463 N 0.95451 0.40191 0.68756 0.0
C1464 C 0.86604 0.30161 0.72188 0.0
C1465 C 0.92286 0.36924 0.69673 0.0
N1466 N 0.84529 0.33954 0.74631 0.0
N1467 N 0.93037 0.33017 0.66429 0.0
H1468 H 0.96242 0.42897 0.69457 0.0
H1469 H 0.97452 0.40218 0.67424 0.0
H1470 H 0.9267 0.30434 0.65756 0.0
H1471 H 0.94695 0.35319 0.6521 0.0
H1472 H 0.81989 0.31559 0.75305 0.0
H1473 H 0.84743 0.36536 0.75182 0.0
H1474 H 0.83434 0.27212 0.75535 0.0
H1475 H 0.84006 0.24327 0.73318 0.0
C1476 C 0.20421 0.01756 0.62748 0.0
C1477 C 0.1982 0.98365 0.63967 0.0
C1478 C 0.24996 0.02215 0.67089 0.0
C1479 C 0.25881 0.05598 0.65698 0.0
N1480 N 0.24839 0.08433 0.61875 0.0
N1481 N 0.21745 0.95271 0.67139 0.0
C1482 C 0.23716 0.05324 0.63432 0.0
C1483 C 0.22144 0.98567 0.66111 0.0
N1484 N 0.17765 0.01573 0.60965 0.0
N1485 N 0.26926 0.02479 0.69325 0.0
H1486 H 0.19628 0.92567 0.66506 0.0
H1487 H 0.2365 0.95198 0.68503 0.0
H1488 H 0.29226 0.05049 0.69987 0.0
H1489 H 0.26111 1.0021 0.70594 0.0
H1490 H 0.17784 0.03979 0.60216 0.0
H1491 H 0.1529 0.99013 0.6043 0.0
H1492 H 0.23692 0.08253 0.60044 0.0
H1493 H 0.27117 0.11161 0.62299 0.0
C1494 C 0.02897 0.25501 0.65264 0.0
C1495 C 0.03104 0.22527 0.6395 0.0
C1496 C 0.95995 0.18271 0.64745 0.0
C1497 C 0.95676 0.21392 0.65758 0.0
N1498 N 0.9885 0.28053 0.66882 0.0
N1499 N 0.99802 0.1616 0.62229 0.0
C1500 C 0.99148 0.25025 0.65989 0.0
C1501 C 0.99646 0.18919 0.63661 0.0
N1502 N 0.06312 0.28759 0.65872 0.0
N1503 N 0.92821 0.1467 0.6482 0.0
H1504 H 0.02413 0.16491 0.61449 0.0
H1505 H 0.97317 0.13654 0.61647 0.0
H1506 H 0.90133 0.14063 0.65599 0.0
H1507 H 0.92956 0.12224 0.64374 0.0
H1508 H 0.06423 0.30879 0.67062 0.0
H1509 H 0.09093 0.29189 0.65376 0.0
H1510 H 1.01128 0.30875 0.66778 0.0
H1511 H 0.96253 0.27742 0.67672 0.0
C1512 C 0.75713 0.78657 0.66235 0.0
C1513 C 0.77751 0.80974 0.64086 0.0
C1514 C 0.81512 0.77612 0.63642 0.0
C1515 C 0.79657 0.75447 0.65895 0.0
N1516 N 0.75298 0.74179 0.695 0.0
N1517 N 0.83012 0.8313 0.60989 0.0
C1518 C 0.76863 0.76069 0.67247 0.0
C1519 C 0.80767 0.80578 0.62857 0.0
N1520 N 0.72569 0.78824 0.67244 0.0
N1521 N 0.83962 0.76811 0.62228 0.0
H1522 H 0.82533 0.8532 0.60352 0.0
H1523 H 0.85552 0.83295 0.60219 0.0
H1524 H 0.84815 0.74857 0.62805 0.0
H1525 H 0.84978 0.77917 0.604 0.0
H1526 H 0.70654 0.76907 0.68608 0.0
H1527 H 0.71689 0.80729 0.66586 0.0
H1528 H 0.73643 0.74839 0.70749 0.0
H1529 H 0.7586 0.72086 0.70207 0.0
C1530 C 0.9791 0.81043 0.64225 0.0
C1531 C 0.0131 0.80649 0.64506 0.0
C1532 C 0.97266 0.74461 0.66601 0.0
C1533 C 0.93839 0.74811 0.66324 0.0
N1534 N 0.91359 0.79166 0.65758 0.0
N1535 N 0.04371 0.77832 0.67033 0.0
C1536 C 0.94316 0.78354 0.65443 0.0
C1537 C 1.01039 0.77634 0.66049 0.0
N1538 N 0.98015 0.83832 0.6268 0.0
N1539 N 0.96936 0.7109 0.67388 0.0
H1540 H 0.07136 0.80276 0.66846 0.0
H1541 H 0.04306 0.75809 0.68312 0.0
H1542 H 0.94293 0.68846 0.68069 0.0
H1543 H 0.99269 0.70533 0.67313 0.0
H1544 H 0.9549 0.83928 0.6216 0.0
H1545 H 1.00568 0.85902 0.61773 0.0
H1546 H 0.91663 0.81831 0.65352 0.0
H1547 H 0.88802 0.77328 0.66735 0.0
C1548 C 0.25006 0.24596 0.64574 0.0
C1549 C 0.21056 0.21694 0.65032 0.0
C1550 C 0.23487 0.17134 0.65637 0.0
C1551 C 0.2748 0.20192 0.65644 0.0
N1552 N 0.31791 0.27006 0.65766 0.0
N1553 N 0.1652 0.15091 0.66061 0.0
C1554 C 0.2816 0.23968 0.65273 0.0
C1555 C 0.20293 0.17924 0.65565 0.0
N1556 N 0.25778 0.2793 0.63404 0.0
N1557 N 0.22714 0.13458 0.6563 0.0
H1558 H 0.14073 0.15456 0.6587 0.0
H1559 H 0.15829 0.12428 0.668 0.0
H1560 H 0.24933 0.12799 0.65799 0.0
H1561 H 0.19938 0.11108 0.65296 0.0
H1562 H 0.28616 0.30015 0.62863 0.0
H1563 H 0.23561 0.28372 0.62657 0.0
H1564 H 0.3239 0.29829 0.65723 0.0
H1565 H 0.33997 0.26645 0.66603 0.0
C1566 C 0.78983 1.00223 0.6824 0.0
C1567 C 0.7828 0.98877 0.65673 0.0
C1568 C 0.81229 0.05537 0.64197 0.0
C1569 C 0.81089 0.06742 0.66744 0.0
N1570 N 0.7912 0.04893 0.71168 0.0
N1571 N 0.78547 1.00364 0.61145 0.0
C1572 C 0.79773 0.03992 0.68762 0.0
C1573 C 0.79343 0.01567 0.63632 0.0
N1574 N 0.79061 0.97982 0.70182 0.0
N1575 N 0.8338 0.08152 0.62341 0.0
H1576 H 0.77386 0.97528 0.60601 0.0
H1577 H 0.7881 0.02174 0.59632 0.0
H1578 H 0.85096 0.11057 0.62708 0.0
H1579 H 0.83876 0.07397 0.60524 0.0
H1580 H 0.79857 0.98972 0.72054 0.0
H1581 H 0.78899 0.95359 0.69863 0.0
H1582 H 0.77742 0.02851 0.72609 0.0
H1583 H 0.79583 0.07575 0.71661 0.0
C1584 C 0.45784 0.33724 0.72465 0.0
C1585 C 0.47513 0.36473 0.70454 0.0
C1586 C 0.43524 0.31533 0.67326 0.0
C1587 C 0.42011 0.28702 0.69289 0.0
N1588 N 0.42585 0.27053 0.73675 0.0
N1589 N 0.49069 0.37492 0.65926 0.0
C1590 C 0.43373 0.29781 0.7185 0.0
C1591 C 0.46711 0.35229 0.67871 0.0
N1592 N 0.46428 0.34847 0.74972 0.0
N1593 N 0.41825 0.30784 0.64958 0.0
H1594 H 0.5164 0.40084 0.66244 0.0
H1595 H 0.48761 0.36548 0.64034 0.0
H1596 H 0.39437 0.2815 0.64468 0.0
H1597 H 0.42573 0.32892 0.63561 0.0
H1598 H 0.44801 0.33061 0.76487 0.0
H1599 H 0.48432 0.3761 0.75545 0.0
H1600 H 0.43876 0.27664 0.75487 0.0
H1601 H 0.40982 0.24142 0.73307 0.0
C1602 C 0.68227 0.11536 0.71371 0.0
C1603 C 0.67365 0.14247 0.70236 0.0
C1604 C 0.74508 0.18625 0.69635 0.0
C1605 C 0.75359 0.15691 0.70334 0.0
N1606 N 0.73037 0.0977 0.72704 0.0
N1607 N 0.6974 0.20564 0.68497 0.0
C1608 C 0.7221 0.12258 0.71437 0.0
C1609 C 0.7053 0.17854 0.69452 0.0
N1610 N 0.65216 0.08204 0.72345 0.0
N1611 N 0.77526 0.22267 0.69373 0.0
H1612 H 0.66963 0.20328 0.68581 0.0
H1613 H 0.71799 0.23002 0.67521 0.0
H1614 H 0.80373 0.2294 0.69761 0.0
H1615 H 0.77213 0.24658 0.69107 0.0
H1616 H 0.65441 0.05785 0.72722 0.0
H1617 H 0.62439 0.07828 0.72773 0.0
H1618 H 0.71093 0.07666 0.73965 0.0
H1619 H 0.75762 0.09925 0.72633 0.0
C1620 C 0.90964 0.56447 0.68324 0.0
C1621 C 0.90934 0.55278 0.70896 0.0
C1622 C 0.87431 0.58695 0.7214 0.0
C1623 C 0.88179 0.60436 0.69669 0.0
N1624 N 0.91726 0.61641 0.65661 0.0
N1625 N 0.89366 0.55609 0.75355 0.0
C1626 C 0.9024 0.59497 0.67828 0.0
C1627 C 0.89236 0.56499 0.72838 0.0
N1628 N 0.91544 0.54589 0.66331 0.0
N1629 N 0.84849 0.58955 0.73783 0.0
H1630 H 0.90449 0.53845 0.75964 0.0
H1631 H 0.88628 0.56836 0.7686 0.0
H1632 H 0.83328 0.60382 0.73323 0.0
H1633 H 0.83892 0.5741 0.75492 0.0
H1634 H 0.91317 0.55222 0.64418 0.0
H1635 H 0.9168 0.52091 0.66572 0.0
H1636 H 0.93568 0.61268 0.64388 0.0
H1637 H 0.9145 0.64027 0.65279 0.0
C1638 C 0.45678 0.91307 0.20825 0.0
C1639 C 0.45221 0.93095 0.23039 0.0
C1640 C 0.47037 0.98841 0.20473 0.0
C1641 C 0.48227 0.97322 0.18427 0.0
N1642 N 0.49209 0.92225 0.16834 0.0
N1643 N 0.46167 0.98893 0.25057 0.0
C1644 C 0.47659 0.93567 0.18635 0.0
C1645 C 0.46054 0.96945 0.22887 0.0
N1646 N 0.44184 0.87444 0.20804 0.0
N1647 N 0.46806 0.02078 0.20104 0.0
H1648 H 0.45667 0.97707 0.26892 0.0
H1649 H 0.47159 0.01816 0.2506 0.0
H1650 H 0.47402 0.03484 0.18337 0.0
H1651 H 0.45616 0.03111 0.21465 0.0
H1652 H 0.44123 0.85949 0.19161 0.0
H1653 H 0.42631 0.85695 0.22356 0.0
H1654 H 0.49221 0.89662 0.17047 0.0
H1655 H 0.50822 0.93824 0.1525 0.0
C1656 C 0.03731 0.46983 0.22348 0.0
C1657 C 0.04405 0.49913 0.24127 0.0
C1658 C 0.01397 0.52394 0.21109 0.0
C1659 C 0.01387 0.4992 0.19177 0.0
N1660 N 0.02643 0.44856 0.1793 0.0
N1661 N 0.01368 0.53458 0.25666 0.0
C1662 C 0.02633 0.47245 0.19778 0.0
C1663 C 0.02475 0.52045 0.23647 0.0
N1664 N 0.03218 0.4358 0.23218 0.0
N1665 N 1.00535 0.55196 0.20501 0.0
H1666 H 0.01775 0.52898 0.27566 0.0
H1667 H 0.99636 0.54743 0.25463 0.0
H1668 H 0.99854 0.55635 0.18641 0.0
H1669 H 1.00891 0.57314 0.21791 0.0
H1670 H 0.02604 0.41281 0.22028 0.0
H1671 H 0.02419 0.42759 0.25122 0.0
H1672 H 0.0395 0.43173 0.18202 0.0
H1673 H 0.01596 0.44746 0.16075 0.0
C1674 C 0.50839 0.59384 0.21203 0.0
C1675 C 0.49886 0.56801 0.23291 0.0
C1676 C 0.5157 0.52781 0.20663 0.0
C1677 C 0.53072 0.55637 0.18725 0.0
N1678 N 0.546 0.61919 0.17277 0.0
N1679 N 0.4999 0.51361 0.25163 0.0
C1680 C 0.52812 0.59007 0.19019 0.0
C1681 C 0.50407 0.53572 0.23061 0.0
N1682 N 0.49798 0.62154 0.21293 0.0
N1683 N 0.51166 0.49272 0.20191 0.0
H1684 H 0.49239 0.51879 0.26979 0.0
H1685 H 0.50759 0.4923 0.25159 0.0
H1686 H 0.51907 0.48558 0.18434 0.0
H1687 H 0.49722 0.46959 0.21441 0.0
H1688 H 0.50061 0.63886 0.19733 0.0
H1689 H 0.48323 0.62485 0.22856 0.0
H1690 H 0.54798 0.6457 0.17508 0.0
H1691 H 0.56175 0.61813 0.15694 0.0
C1692 C 0.94836 0.46731 0.81533 0.0
C1693 C 0.96291 0.4571 0.79349 0.0
C1694 C 0.01484 0.45809 0.82026 0.0
C1695 C 1.0047 0.47502 0.84059 0.0
N1696 N 0.96628 0.50379 0.85456 0.0
N1697 N 0.01687 0.45245 0.77431 0.0
C1698 C 0.97261 0.48186 0.83739 0.0
C1699 C 0.9981 0.45513 0.79567 0.0
N1700 N 0.91103 0.46206 0.81542 0.0
N1701 N 0.03959 0.44386 0.82448 0.0
H1702 H 1.00735 0.45295 0.7557 0.0
H1703 H 0.04441 0.45425 0.77506 0.0
H1704 H 0.05082 0.44356 0.84259 0.0
H1705 H 0.04512 0.42846 0.81065 0.0
H1706 H 0.89815 0.46616 0.83176 0.0
H1707 H 0.8915 0.4495 0.80019 0.0
H1708 H 0.94528 0.51219 0.85161 0.0
H1709 H 0.98472 0.51711 0.87014 0.0
C1710 C 0.56023 0.51384 0.79846 0.0
C1711 C 0.58393 0.49707 0.79316 0.0
C1712 C 0.60234 0.50174 0.83853 0.0
C1713 C 0.57826 0.51809 0.84385 0.0
N1714 N 0.52854 0.53317 0.83052 0.0
N1715 N 0.6219 0.4687 0.80805 0.0
C1716 C 0.55527 0.52194 0.82429 0.0
C1717 C 0.60322 0.48898 0.81323 0.0
N1718 N 0.54379 0.52342 0.77866 0.0
N1719 N 0.62532 0.49964 0.85754 0.0
H1720 H 0.62367 0.4596 0.78961 0.0
H1721 H 0.63317 0.45844 0.82212 0.0
H1722 H 0.624 0.50709 0.87653 0.0
H1723 H 0.64709 0.4924 0.85437 0.0
H1724 H 0.53018 0.53981 0.78086 0.0
H1725 H 0.54593 0.51712 0.75952 0.0
H1726 H 0.50793 0.53277 0.8177 0.0
H1727 H 0.52472 0.54002 0.8492 0.0
C1728 C 0.55363 0.09685 0.80742 0.0
C1729 C 0.52763 0.08128 0.78617 0.0
C1730 C 0.48198 0.02784 0.8135 0.0
C1731 C 0.51092 0.03973 0.8331 0.0
N1732 N 0.57797 0.08296 0.84634 0.0
N1733 N 0.47073 0.0266 0.7679 0.0
C1734 C 0.54779 0.07365 0.8295 0.0
C1735 C 0.49271 0.04529 0.78891 0.0
N1736 N 0.58312 0.1341 0.80698 0.0
N1737 N 0.44394 1.00029 0.81847 0.0
H1738 H 0.47881 0.037 0.74924 0.0
H1739 H 0.44703 0.99876 0.76876 0.0
H1740 H 0.43456 0.98793 0.83659 0.0
H1741 H 0.42107 0.99302 0.80545 0.0
H1742 H 0.60056 0.1477 0.82291 0.0
H1743 H 0.58731 0.15252 0.79171 0.0
H1744 H 0.60654 0.10531 0.84306 0.0
H1745 H 0.57558 0.06621 0.86224 0.0
C1746 C 0.12983 0.2683 0.54329 0.0
C1747 C 0.12706 0.28552 0.56641 0.0
C1748 C 0.14341 0.34398 0.54223 0.0
C1749 C 0.15209 0.32888 0.52015 0.0
N1750 N 0.15834 0.27794 0.50066 0.0
N1751 N 0.1373 0.34224 0.58854 0.0
C1752 C 0.14636 0.29125 0.52087 0.0
C1753 C 0.13526 0.324 0.56604 0.0
N1754 N 0.11565 0.22979 0.54251 0.0
N1755 N 0.14245 0.37729 0.54033 0.0
H1756 H 0.13267 0.32911 0.60647 0.0
H1757 H 0.14729 0.37142 0.58963 0.0
H1758 H 0.14764 0.39231 0.52309 0.0
H1759 H 0.13259 0.38786 0.55509 0.0
H1760 H 0.11326 0.21508 0.5256 0.0
H1761 H 0.10264 0.21194 0.55833 0.0
H1762 H 0.15916 0.25254 0.50133 0.0
H1763 H 0.17047 0.29369 0.48391 0.0
C1764 C 0.68059 0.86227 0.57097 0.0
C1765 C 0.69736 0.83895 0.57667 0.0
C1766 C 0.67408 0.80744 0.53503 0.0
C1767 C 0.6659 0.83662 0.52741 0.0
N1768 N 0.6634 0.89363 0.53811 0.0
N1769 N 0.67647 0.77228 0.57167 0.0
C1770 C 0.66944 0.86441 0.54544 0.0
C1771 C 0.6855 0.80645 0.56083 0.0
N1772 N 0.67089 0.87859 0.59049 0.0
N1773 N 0.67004 0.78007 0.518 0.0
H1774 H 0.67296 0.76821 0.5915 0.0
H1775 H 0.66503 0.74688 0.56137 0.0
H1776 H 0.65965 0.77841 0.49935 0.0
H1777 H 0.67959 0.76065 0.52204 0.0
H1778 H 0.65526 0.89303 0.58771 0.0
H1779 H 0.67409 0.87322 0.60971 0.0
H1780 H 0.66944 0.91656 0.55008 0.0
H1781 H 0.65597 0.8968 0.51939 0.0
C1782 C 0.18391 0.92461 0.54414 0.0
C1783 C 0.16993 0.89778 0.56464 0.0
C1784 C 0.18037 0.85325 0.53842 0.0
C1785 C 0.19961 0.88213 0.51953 0.0
N1786 N 0.22551 0.94782 0.50636 0.0
N1787 N 0.16189 0.83924 0.58308 0.0
C1788 C 0.20289 0.91854 0.52285 0.0
C1789 C 0.16993 0.86272 0.56227 0.0
N1790 N 0.17815 0.95536 0.54467 0.0
N1791 N 0.17119 0.81651 0.53335 0.0
H1792 H 0.15533 0.84553 0.6012 0.0
H1793 H 0.16558 0.81538 0.58299 0.0
H1794 H 0.17758 0.80826 0.51585 0.0
H1795 H 0.1537 0.79364 0.54547 0.0
H1796 H 0.18435 0.97381 0.52913 0.0
H1797 H 0.16352 0.96025 0.55967 0.0
H1798 H 0.23227 0.97593 0.50949 0.0
H1799 H 0.24055 0.94485 0.4908 0.0
C1800 C 0.6651 0.81798 0.13358 0.0
C1801 C 0.62638 0.78645 0.13077 0.0
C1802 C 0.6295 0.76439 0.17415 0.0
C1803 C 0.66688 0.79758 0.17764 0.0
N1804 N 0.71635 0.86003 0.16288 0.0
N1805 N 0.56865 0.73363 0.14978 0.0
C1806 C 0.68353 0.82562 0.15799 0.0
C1807 C 0.60761 0.76082 0.15152 0.0
N1808 N 0.68499 0.83968 0.1127 0.0
N1809 N 0.6156 0.73564 0.19197 0.0
H1810 H 0.55169 0.73038 0.13353 0.0
H1811 H 0.55224 0.71661 0.16518 0.0
H1812 H 0.63106 0.7368 0.20856 0.0
H1813 H 0.59033 0.70928 0.18936 0.0
H1814 H 0.71479 0.8603 0.11309 0.0
H1815 H 0.67285 0.83483 0.09434 0.0
H1816 H 0.72734 0.88303 0.15014 0.0
H1817 H 0.73043 0.86691 0.18065 0.0
C1818 C 0.2645 0.84711 0.14651 0.0
C1819 C 0.23948 0.83272 0.12476 0.0
C1820 C 0.18373 0.82456 0.15083 0.0
C1821 C 0.20954 0.84376 0.17153 0.0
N1822 N 0.2764 0.88 0.1872 0.0
N1823 N 0.17761 0.81792 0.10483 0.0
C1824 C 0.25056 0.85694 0.16891 0.0
C1825 C 0.19976 0.82448 0.1265 0.0
N1826 N 0.30091 0.85015 0.14621 0.0
N1827 N 0.1438 0.80531 0.15451 0.0
H1828 H 0.18885 0.81967 0.0864 0.0
H1829 H 0.14961 0.81511 0.10508 0.0
H1830 H 0.13078 0.80307 0.1724 0.0
H1831 H 0.124 0.78804 0.14048 0.0
H1832 H 0.31867 0.8569 0.16244 0.0
H1833 H 0.3118 0.84244 0.13041 0.0
H1834 H 0.30692 0.89341 0.18494 0.0
H1835 H 0.26754 0.88865 0.20353 0.0
C1836 C 0.21946 0.41673 0.14637 0.0
C1837 C 0.19223 0.4021 0.12567 0.0
C1838 C 0.14424 0.35248 0.15446 0.0
C1839 C 0.17357 0.36307 0.17368 0.0
N1840 N 0.24196 0.40202 0.18582 0.0
N1841 N 0.13143 0.35026 0.10899 0.0
C1842 C 0.21201 0.39444 0.16914 0.0
C1843 C 0.15527 0.36839 0.12944 0.0
N1844 N 0.25183 0.45238 0.1447 0.0
N1845 N 0.10559 0.32766 0.16021 0.0
H1846 H 0.13933 0.35952 0.0901 0.0
H1847 H 0.10592 0.32368 0.11052 0.0
H1848 H 0.09617 0.31645 0.1786 0.0
H1849 H 0.08264 0.32168 0.14752 0.0
H1850 H 0.27054 0.46577 0.16016 0.0
H1851 H 0.25765 0.47015 0.12878 0.0
H1852 H 0.27132 0.42204 0.18195 0.0
H1853 H 0.23819 0.38591 0.20234 0.0
C1854 C 0.81494 0.60197 0.88373 0.0
C1855 C 0.80647 0.61976 0.90437 0.0
C1856 C 0.81803 0.67265 0.87562 0.0
C1857 C 0.83263 0.65794 0.85641 0.0
N1858 N 0.85102 0.61116 0.8441 0.0
N1859 N 0.80684 0.67578 0.92101 0.0
C1860 C 0.83257 0.62315 0.8609 0.0
C1861 C 0.8097 0.65609 0.90059 0.0
N1862 N 0.80519 0.56449 0.88561 0.0
N1863 N 0.81132 0.702 0.86987 0.0
H1864 H 0.80227 0.66544 0.93979 0.0
H1865 H 0.81296 0.70399 0.91967 0.0
H1866 H 0.81607 0.71416 0.85159 0.0
H1867 H 0.79719 0.71143 0.88241 0.0
H1868 H 0.8072 0.5491 0.87021 0.0
H1869 H 0.79123 0.54767 0.90169 0.0
H1870 H 0.85547 0.58822 0.84792 0.0
H1871 H 0.8652 0.62618 0.82748 0.0
C1872 C 0.41154 0.17648 0.87636 0.0
C1873 C 0.40014 0.18928 0.89843 0.0
C1874 C 0.34963 0.19327 0.87308 0.0
C1875 C 0.35699 0.17509 0.85224 0.0
N1876 N 0.39003 0.14203 0.83631 0.0
N1877 N 0.35139 0.20057 0.91909 0.0
C1878 C 0.38664 0.16462 0.85445 0.0
C1879 C 0.36717 0.19505 0.89719 0.0
N1880 N 0.44669 0.17684 0.8759 0.0
N1881 N 0.32687 0.20994 0.86974 0.0
H1882 H 0.36191 0.20001 0.93738 0.0
H1883 H 0.32515 0.20141 0.91924 0.0
H1884 H 0.31485 0.21078 0.85204 0.0
H1885 H 0.32367 0.22653 0.88381 0.0
H1886 H 0.45794 0.17118 0.85938 0.0
H1887 H 0.46648 0.18667 0.89118 0.0
H1888 H 0.40867 0.13064 0.83841 0.0
H1889 H 0.37142 0.13143 0.82047 0.0
C1890 C 0.81354 0.22887 0.87558 0.0
C1891 C 0.83481 0.22933 0.89779 0.0
C1892 C 0.86874 0.20315 0.87247 0.0
C1893 C 0.84181 0.19542 0.85214 0.0
N1894 N 0.78729 0.19985 0.83425 0.0
N1895 N 0.88023 0.21305 0.91806 0.0
C1896 C 0.81423 0.20857 0.85343 0.0
C1897 C 0.86234 0.21608 0.89635 0.0
N1898 N 0.79277 0.2479 0.87577 0.0
N1899 N 0.90026 0.19773 0.86894 0.0
H1900 H 0.87572 0.22104 0.93618 0.0
H1901 H 0.89695 0.19945 0.91849 0.0
H1902 H 0.90571 0.18845 0.85151 0.0
H1903 H 0.92296 0.20617 0.88224 0.0
H1904 H 0.77946 0.25152 0.85952 0.0
H1905 H 0.79216 0.26324 0.8917 0.0
H1906 H 0.76353 0.2047 0.83554 0.0
H1907 H 0.78723 0.18553 0.81761 0.0
C1908 C 0.35137 0.16824 0.45649 0.0
C1909 C 0.31447 0.13421 0.45435 0.0
C1910 C 0.32107 0.11589 0.49808 0.0
C1911 C 0.35594 0.15163 0.50125 0.0
N1912 N 0.40055 0.21493 0.48505 0.0
N1913 N 0.25942 0.08088 0.47541 0.0
C1914 C 0.37014 0.17875 0.48087 0.0
C1915 C 0.2979 0.10953 0.47583 0.0
N1916 N 0.36887 0.18995 0.43516 0.0
N1917 N 0.31074 0.08743 0.51584 0.0
H1918 H 0.24077 0.07627 0.45987 0.0
H1919 H 0.24488 0.0644 0.49148 0.0
H1920 H 0.32756 0.09044 0.53211 0.0
H1921 H 0.28775 0.05962 0.51304 0.0
H1922 H 0.39763 0.21289 0.43502 0.0
H1923 H 0.35577 0.18312 0.41708 0.0
H1924 H 0.40952 0.23697 0.47169 0.0
H1925 H 0.41455 0.22388 0.50276 0.0
C1926 C 0.89555 0.14116 0.48207 0.0
C1927 C 0.90224 0.16652 0.46132 0.0
C1928 C 0.88133 0.20266 0.48855 0.0
C1929 C 0.86731 0.17301 0.50717 0.0
N1930 N 0.85617 0.11057 0.51973 0.0
N1931 N 0.89652 0.21913 0.44375 0.0
C1932 C 0.87344 0.14144 0.50361 0.0
C1933 C 0.89424 0.197 0.46431 0.0
N1934 N 0.91042 0.11687 0.48118 0.0
N1935 N 0.8827 0.23637 0.49413 0.0
H1936 H 0.90473 0.21545 0.42542 0.0
H1937 H 0.88678 0.23893 0.4444 0.0
H1938 H 0.87429 0.24176 0.51196 0.0
H1939 H 0.89601 0.26021 0.48212 0.0
H1940 H 0.90942 0.10014 0.49675 0.0
H1941 H 0.92743 0.11654 0.46582 0.0
H1942 H 0.85647 0.08529 0.51627 0.0
H1943 H 0.83822 0.10859 0.53514 0.0
C1944 C 0.82145 0.70542 0.45891 0.0
C1945 C 0.85871 0.73886 0.45544 0.0
C1946 C 0.87817 0.72944 0.49849 0.0
C1947 C 0.83935 0.69864 0.50288 0.0
N1948 N 0.77125 0.66487 0.4894 0.0
N1949 N 0.91893 0.78779 0.47472 0.0
C1950 C 0.8101 0.68903 0.48374 0.0
C1951 C 0.88606 0.75245 0.47608 0.0
N1952 N 0.79758 0.68803 0.43833 0.0
N1953 N 0.90799 0.73576 0.51495 0.0
H1954 H 0.9251 0.80608 0.45906 0.0
H1955 H 0.9378 0.80043 0.49023 0.0
H1956 H 0.9039 0.71889 0.53111 0.0
H1957 H 0.93749 0.75541 0.51115 0.0
H1958 H 0.77175 0.66167 0.43966 0.0
H1959 H 0.80575 0.6976 0.41952 0.0
H1960 H 0.74852 0.65971 0.47672 0.0
H1961 H 0.76153 0.65345 0.50771 0.0
loop_
_geom_bond_atom_site_label_1
_geom_bond_atom_site_label_2
_geom_bond_distance
_geom_bond_site_symmetry_2
_ccdc_geom_bond_type
H0 C7 0.929 . S
H1 C10 0.930 . S
H2 C12 0.929 . S
H3 C4 0.969 . S
C4 H3 0.969 . S
C4 O5 1.550 . S
C4 H6 0.973 . S
O5 C4 1.550 . S
O5 C11 1.412 . S
H6 C4 0.973 . S
C7 H0 0.929 . S
C7 C8 1.400 . S
C7 C9 1.364 . S
C8 C7 1.400 . S
C8 C12 1.377 . S
C9 C7 1.364 . S
C9 C10 1.374 . S
C10 H1 0.930 . S
C10 C9 1.374 . S
C10 C11 1.383 . S
C11 O5 1.412 . S
C11 C10 1.383 . S
C11 C12 1.394 . S
C12 H2 0.929 . S
C12 C8 1.377 . S
C12 C11 1.394 . S
H13 C20 0.929 . S
H14 C23 0.930 . S
H15 C25 0.929 . S
H16 C17 0.969 . S
C17 H16 0.969 . S
C17 O18 1.550 . S
C17 H19 0.973 . S
O18 C17 1.550 . S
O18 C24 1.412 . S
H19 C17 0.973 . S
C20 H13 0.929 . S
C20 C21 1.400 . S
C20 C22 1.364 . S
C21 C20 1.400 . S
C21 C25 1.377 . S
C22 C20 1.364 . S
C22 C23 1.374 . S
C23 H14 0.930 . S
C23 C22 1.374 . S
C23 C24 1.383 . S
C24 O18 1.412 . S
C24 C23 1.383 . S
C24 C25 1.394 . S
C25 H15 0.929 . S
C25 C21 1.377 . S
C25 C24 1.394 . S
H26 C33 0.929 . S
H27 C36 0.930 . S
H28 C38 0.929 . S
H29 C30 0.969 . S
C30 H29 0.969 . S
C30 O31 1.550 . S
C30 H32 0.973 . S
O31 C30 1.550 . S
O31 C37 1.412 . S
H32 C30 0.973 . S
C33 H26 0.929 . S
C33 C34 1.400 . S
C33 C35 1.364 . S
C34 C33 1.400 . S
C34 C38 1.377 . S
C35 C33 1.364 . S
C35 C36 1.374 . S
C36 H27 0.930 . S
C36 C35 1.374 . S
C36 C37 1.383 . S
C37 O31 1.412 . S
C37 C36 1.383 . S
C37 C38 1.394 . S
C38 H28 0.929 . S
C38 C34 1.377 . S
C38 C37 1.394 . S
H39 C46 0.929 . S
H40 C49 0.930 . S
H41 C51 0.929 . S
H42 C43 0.969 . S
C43 H42 0.969 . S
C43 O44 1.550 . S
C43 H45 0.973 . S
O44 C43 1.550 . S
O44 C50 1.412 . S
H45 C43 0.973 . S
C46 H39 0.929 . S
C46 C47 1.400 . S
C46 C48 1.364 . S
C47 C46 1.400 . S
C47 C51 1.377 . S
C48 C46 1.364 . S
C48 C49 1.374 . S
C49 H40 0.930 . S
C49 C48 1.374 . S
C49 C50 1.383 . S
C50 O44 1.412 . S
C50 C49 1.383 . S
C50 C51 1.394 . S
C51 H41 0.929 . S
C51 C47 1.377 . S
C51 C50 1.394 . S
H52 C59 0.929 . S
H53 C62 0.930 . S
H54 C64 0.929 . S
H55 C56 0.969 . S
C56 H55 0.969 . S
C56 O57 1.550 . S
C56 H58 0.973 . S
O57 C56 1.550 . S
O57 C63 1.412 . S
H58 C56 0.973 . S
C59 H52 0.929 . S
C59 C60 1.400 . S
C59 C61 1.364 . S
C60 C59 1.400 . S
C60 C64 1.377 . S
C61 C59 1.364 . S
C61 C62 1.374 . S
C62 H53 0.930 . S
C62 C61 1.374 . S
C62 C63 1.383 . S
C63 O57 1.412 . S
C63 C62 1.383 . S
C63 C64 1.394 . S
C64 H54 0.929 . S
C64 C60 1.377 . S
C64 C63 1.394 . S
H65 C72 0.929 . S
H66 C75 0.930 . S
H67 C77 0.929 . S
H68 C69 0.969 . S
C69 H68 0.969 . S
C69 O70 1.550 . S
C69 H71 0.973 . S
O70 C69 1.550 . S
O70 C76 1.412 . S
H71 C69 0.973 . S
C72 H65 0.929 . S
C72 C73 1.400 . S
C72 C74 1.364 . S
C73 C72 1.400 . S
C73 C77 1.377 . S
C74 C72 1.364 . S
C74 C75 1.374 . S
C75 H66 0.930 . S
C75 C74 1.374 . S
C75 C76 1.383 . S
C76 O70 1.412 . S
C76 C75 1.383 . S
C76 C77 1.394 . S
C77 H67 0.929 . S
C77 C73 1.377 . S
C77 C76 1.394 . S
H78 C85 0.929 . S
H79 C88 0.930 . S
H80 C90 0.929 . S
H81 C82 0.969 . S
C82 H81 0.969 . S
C82 O83 1.550 . S
C82 H84 0.973 . S
O83 C82 1.550 . S
O83 C89 1.412 . S
H84 C82 0.973 . S
C85 H78 0.929 . S
C85 C86 1.400 . S
C85 C87 1.364 . S
C86 C85 1.400 . S
C86 C90 1.377 . S
C87 C85 1.364 . S
C87 C88 1.374 . S
C88 H79 0.930 . S
C88 C87 1.374 . S
C88 C89 1.383 . S
C89 O83 1.412 . S
C89 C88 1.383 . S
C89 C90 1.394 . S
C90 H80 0.929 . S
C90 C86 1.377 . S
C90 C89 1.394 . S
H91 C98 0.929 . S
H92 C101 0.930 . S
H93 C103 0.929 . S
H94 C95 0.969 . S
C95 H94 0.969 . S
C95 O96 1.550 . S
C95 H97 0.973 . S
O96 C95 1.550 . S
O96 C102 1.412 . S
H97 C95 0.973 . S
C98 H91 0.929 . S
C98 C99 1.400 . S
C98 C100 1.364 . S
C99 C98 1.400 . S
C99 C103 1.377 . S
C100 C98 1.364 . S
C100 C101 1.374 . S
C101 H92 0.930 . S
C101 C100 1.374 . S
C101 C102 1.383 . S
C102 O96 1.412 . S
C102 C101 1.383 . S
C102 C103 1.394 . S
C103 H93 0.929 . S
C103 C99 1.377 . S
C103 C102 1.394 . S
H104 C111 0.929 . S
H105 C114 0.930 . S
H106 C116 0.929 . S
H107 C108 0.969 . S
C108 H107 0.969 . S
C108 O109 1.550 . S
C108 H110 0.973 . S
O109 C108 1.550 . S
O109 C115 1.412 . S
H110 C108 0.973 . S
C111 H104 0.929 . S
C111 C112 1.400 . S
C111 C113 1.364 . S
C112 C111 1.400 . S
C112 C116 1.377 . S
C113 C111 1.364 . S
C113 C114 1.374 . S
C114 H105 0.930 . S
C114 C113 1.374 . S
C114 C115 1.383 . S
C115 O109 1.412 . S
C115 C114 1.383 . S
C115 C116 1.394 . S
C116 H106 0.929 . S
C116 C112 1.377 . S
C116 C115 1.394 . S
H117 C124 0.929 . S
H118 C127 0.930 . S
H119 C129 0.929 . S
H120 C121 0.969 . S
C121 H120 0.969 . S
C121 O122 1.550 . S
C121 H123 0.973 . S
O122 C121 1.550 . S
O122 C128 1.412 . S
H123 C121 0.973 . S
C124 H117 0.929 . S
C124 C125 1.400 . S
C124 C126 1.364 . S
C125 C124 1.400 . S
C125 C129 1.377 . S
C126 C124 1.364 . S
C126 C127 1.374 . S
C127 H118 0.930 . S
C127 C126 1.374 . S
C127 C128 1.383 . S
C128 O122 1.412 . S
C128 C127 1.383 . S
C128 C129 1.394 . S
C129 H119 0.929 . S
C129 C125 1.377 . S
C129 C128 1.394 . S
H130 C137 0.929 . S
H131 C140 0.930 . S
H132 C142 0.929 . S
H133 C134 0.969 . S
C134 H133 0.969 . S
C134 O135 1.550 . S
C134 H136 0.973 . S
O135 C134 1.550 . S
O135 C141 1.412 . S
H136 C134 0.973 . S
C137 H130 0.929 . S
C137 C138 1.400 . S
C137 C139 1.364 . S
C138 C137 1.400 . S
C138 C142 1.377 . S
C139 C137 1.364 . S
C139 C140 1.374 . S
C140 H131 0.930 . S
C140 C139 1.374 . S
C140 C141 1.383 . S
C141 O135 1.412 . S
C141 C140 1.383 . S
C141 C142 1.394 . S
C142 H132 0.929 . S
C142 C138 1.377 . S
C142 C141 1.394 . S
H143 C150 0.929 . S
H144 C153 0.930 . S
H145 C155 0.929 . S
H146 C147 0.969 . S
C147 H146 0.969 . S
C147 O148 1.550 . S
C147 H149 0.973 . S
O148 C147 1.550 . S
O148 C154 1.412 . S
H149 C147 0.973 . S
C150 H143 0.929 . S
C150 C151 1.400 . S
C150 C152 1.364 . S
C151 C150 1.400 . S
C151 C155 1.377 . S
C152 C150 1.364 . S
C152 C153 1.374 . S
C153 H144 0.930 . S
C153 C152 1.374 . S
C153 C154 1.383 . S
C154 O148 1.412 . S
C154 C153 1.383 . S
C154 C155 1.394 . S
C155 H145 0.929 . S
C155 C151 1.377 . S
C155 C154 1.394 . S
H156 C163 0.929 . S
H157 C166 0.930 . S
H158 C168 0.929 . S
H159 C160 0.969 . S
C160 H159 0.969 . S
C160 O161 1.550 . S
C160 H162 0.973 . S
O161 C160 1.550 . S
O161 C167 1.412 . S
H162 C160 0.973 . S
C163 H156 0.929 . S
C163 C164 1.400 . S
C163 C165 1.364 . S
C164 C163 1.400 . S
C164 C168 1.377 . S
C165 C163 1.364 . S
C165 C166 1.374 . S
C166 H157 0.930 . S
C166 C165 1.374 . S
C166 C167 1.383 . S
C167 O161 1.412 . S
C167 C166 1.383 . S
C167 C168 1.394 . S
C168 H158 0.929 . S
C168 C164 1.377 . S
C168 C167 1.394 . S
H169 C176 0.929 . S
H170 C179 0.930 . S
H171 C181 0.929 . S
H172 C173 0.969 . S
C173 H172 0.969 . S
C173 O174 1.550 . S
C173 H175 0.973 . S
O174 C173 1.550 . S
O174 C180 1.412 . S
H175 C173 0.973 . S
C176 H169 0.929 . S
C176 C177 1.400 . S
C176 C178 1.364 . S
C177 C176 1.400 . S
C177 C181 1.377 . S
C178 C176 1.364 . S
C178 C179 1.374 . S
C179 H170 0.930 . S
C179 C178 1.374 . S
C179 C180 1.383 . S
C180 O174 1.412 . S
C180 C179 1.383 . S
C180 C181 1.394 . S
C181 H171 0.929 . S
C181 C177 1.377 . S
C181 C180 1.394 . S
H182 C189 0.929 . S
H183 C192 0.930 . S
H184 C194 0.929 . S
H185 C186 0.969 . S
C186 H185 0.969 . S
C186 O187 1.550 . S
C186 H188 0.973 . S
O187 C186 1.550 . S
O187 C193 1.412 . S
H188 C186 0.973 . S
C189 H182 0.929 . S
C189 C190 1.400 . S
C189 C191 1.364 . S
C190 C189 1.400 . S
C190 C194 1.377 . S
C191 C189 1.364 . S
C191 C192 1.374 . S
C192 H183 0.930 . S
C192 C191 1.374 . S
C192 C193 1.383 . S
C193 O187 1.412 . S
C193 C192 1.383 . S
C193 C194 1.394 . S
C194 H184 0.929 . S
C194 C190 1.377 . S
C194 C193 1.394 . S
H195 C202 0.929 . S
H196 C205 0.930 . S
H197 C207 0.929 . S
H198 C199 0.969 . S
C199 H198 0.969 . S
C199 O200 1.550 . S
C199 H201 0.973 . S
O200 C199 1.550 . S
O200 C206 1.412 . S
H201 C199 0.973 . S
C202 H195 0.929 . S
C202 C203 1.400 . S
C202 C204 1.364 . S
C203 C202 1.400 . S
C203 C207 1.377 . S
C204 C202 1.364 . S
C204 C205 1.374 . S
C205 H196 0.930 . S
C205 C204 1.374 . S
C205 C206 1.383 . S
C206 O200 1.412 . S
C206 C205 1.383 . S
C206 C207 1.394 . S
C207 H197 0.929 . S
C207 C203 1.377 . S
C207 C206 1.394 . S
H208 C215 0.929 . S
H209 C218 0.930 . S
H210 C220 0.929 . S
H211 C212 0.969 . S
C212 H211 0.969 . S
C212 O213 1.550 . S
C212 H214 0.973 . S
O213 C212 1.550 . S
O213 C219 1.412 . S
H214 C212 0.973 . S
C215 H208 0.929 . S
C215 C216 1.400 . S
C215 C217 1.364 . S
C216 C215 1.400 . S
C216 C220 1.377 . S
C217 C215 1.364 . S
C217 C218 1.374 . S
C218 H209 0.930 . S
C218 C217 1.374 . S
C218 C219 1.383 . S
C219 O213 1.412 . S
C219 C218 1.383 . S
C219 C220 1.394 . S
C220 H210 0.929 . S
C220 C216 1.377 . S
C220 C219 1.394 . S
H221 C228 0.929 . S
H222 C231 0.930 . S
H223 C233 0.929 . S
H224 C225 0.969 . S
C225 H224 0.969 . S
C225 O226 1.550 . S
C225 H227 0.973 . S
O226 C225 1.550 . S
O226 C232 1.412 . S
H227 C225 0.973 . S
C228 H221 0.929 . S
C228 C229 1.400 . S
C228 C230 1.364 . S
C229 C228 1.400 . S
C229 C233 1.377 . S
C230 C228 1.364 . S
C230 C231 1.374 . S
C231 H222 0.930 . S
C231 C230 1.374 . S
C231 C232 1.383 . S
C232 O226 1.412 . S
C232 C231 1.383 . S
C232 C233 1.394 . S
C233 H223 0.929 . S
C233 C229 1.377 . S
C233 C232 1.394 . S
Gd234 N265 2.661 . S
Gd234 N271 2.601 . S
Gd234 O278 2.545 . S
Gd234 O279 2.606 1_545 S
Gd234 O281 2.429 . S
Gd234 O282 2.545 1_545 S
Gd234 O283 2.412 1_545 S
Gd234 O285 2.362 . S
Gd234 O286 2.324 1_545 S
Gd234 C293 2.828 . S
Gd235 N244 2.661 . S
Gd235 N248 2.601 . S
Gd235 O279 2.362 1_556 S
Gd235 O280 2.324 1_565 S
Gd235 O284 2.545 . S
Gd235 O285 2.606 1_566 S
Gd235 O287 2.429 . S
Gd235 O288 2.545 1_565 S
Gd235 O289 2.412 1_565 S
Gd235 C302 2.828 . S
C236 C239 1.417 . S
C236 C241 1.431 . S
C236 C242 1.412 . S
C237 C240 1.437 . S
C237 C241 1.317 . S
C237 H256 0.929 . S
C238 C239 1.426 . S
C238 C240 1.413 . S
C238 N248 1.359 . S
C239 C236 1.417 . S
C239 C238 1.426 . S
C239 N244 1.350 . S
C240 C237 1.437 . S
C240 C238 1.413 . S
C240 C250 1.391 . S
C241 C236 1.431 . S
C241 C237 1.317 . S
C241 H252 0.930 . S
C242 C236 1.412 . S
C242 C243 1.355 . S
C242 H254 0.930 . S
C243 C242 1.355 . S
C243 C245 1.402 . S
C243 H255 0.930 . S
N244 Gd235 2.661 . S
N244 C239 1.350 . S
N244 C245 1.307 . S
C245 C243 1.402 . S
C245 N244 1.307 . S
C245 H246 0.930 . S
H246 C245 0.930 . S
C247 N248 1.334 . S
C247 C249 1.394 . S
C247 H251 0.930 . S
N248 Gd235 2.601 . S
N248 C238 1.359 . S
N248 C247 1.334 . S
C249 C247 1.394 . S
C249 C250 1.359 . S
C249 H261 0.930 . S
C250 C240 1.391 . S
C250 C249 1.359 . S
C250 H262 0.929 . S
H251 C247 0.930 . S
H252 C241 0.930 . S
H253 C270 0.930 . S
H254 C242 0.930 . S
H255 C243 0.930 . S
H256 C237 0.929 . S
H257 C275 0.930 . S
H258 C266 0.930 . S
H259 C267 0.930 . S
H260 C291 0.929 . S
H261 C249 0.930 . S
H262 C250 0.929 . S
H263 C292 0.930 . S
H264 C273 0.930 . S
N265 Gd234 2.661 . S
N265 C269 1.350 . S
N265 C270 1.307 . S
C266 H258 0.930 . S
C266 C267 1.355 . S
C266 C268 1.412 . S
C267 H259 0.930 . S
C267 C266 1.355 . S
C267 C270 1.402 . S
C268 C266 1.412 . S
C268 C269 1.417 . S
C268 C292 1.431 . S
C269 N265 1.350 . S
C269 C268 1.417 . S
C269 C272 1.426 . S
C270 H253 0.930 . S
C270 N265 1.307 . S
C270 C267 1.402 . S
N271 Gd234 2.601 . S
N271 C272 1.359 . S
N271 C275 1.334 . S
C272 C269 1.426 . S
C272 N271 1.359 . S
C272 C276 1.413 . S
C273 H264 0.930 . S
C273 C274 1.359 . S
C273 C275 1.394 . S
C274 C273 1.359 . S
C274 C276 1.391 . S
C274 H277 0.929 . S
C275 H257 0.930 . S
C275 N271 1.334 . S
C275 C273 1.394 . S
C276 C272 1.413 . S
C276 C274 1.391 . S
C276 C291 1.437 . S
H277 C274 0.929 . S
O278 Gd234 2.545 . S
O278 C293 1.258 . S
O279 Gd234 2.606 1_565 S
O279 Gd235 2.362 1_554 S
O279 C290 1.284 . S
O280 Gd235 2.324 1_545 S
O280 C300 1.254 . S
O281 Gd234 2.429 . S
O281 C300 1.268 1_554 S
O282 Gd234 2.545 1_565 S
O282 C290 1.250 . S
O283 Gd234 2.412 1_565 S
O283 C293 1.252 1_565 S
O284 Gd235 2.545 . S
O284 C302 1.258 . S
O285 Gd234 2.362 . S
O285 Gd235 2.606 1_544 S
O285 C301 1.284 1_554 S
O286 Gd234 2.324 1_565 S
O286 C309 1.254 . S
O287 Gd235 2.429 . S
O287 C309 1.268 1_556 S
O288 Gd235 2.545 1_545 S
O288 C301 1.250 . S
O289 Gd235 2.412 1_545 S
O289 C302 1.252 1_545 S
C290 O279 1.284 . S
C290 O282 1.250 . S
C291 H260 0.929 . S
C291 C276 1.437 . S
C291 C292 1.317 . S
C292 H263 0.930 . S
C292 C268 1.431 . S
C292 C291 1.317 . S
C293 Gd234 2.828 . S
C293 O278 1.258 . S
C293 O283 1.252 1_545 S
C293 C294 1.501 . S
C294 C293 1.501 . S
C294 C295 1.417 . S
C294 C296 1.354 1_545 S
C295 C294 1.417 . S
C295 C298 1.398 . S
C295 H310 0.930 . S
C296 C294 1.354 1_565 S
C296 C297 1.391 . S
C296 H311 0.930 . S
C297 C296 1.391 . S
C297 C299 1.387 . S
C298 C295 1.398 . S
C298 C299 1.380 1_545 S
C298 H312 0.930 . S
C299 C297 1.387 . S
C299 C298 1.380 1_565 S
C299 H313 0.930 . S
C300 O280 1.254 . S
C300 O281 1.268 1_556 S
C301 O285 1.284 1_556 S
C301 O288 1.250 . S
C302 Gd235 2.828 . S
C302 O284 1.258 . S
C302 O289 1.252 1_565 S
C302 C303 1.497 1_565 S
C303 C302 1.497 1_545 S
C303 C304 1.395 1_545 S
C303 C305 1.380 . S
C304 C303 1.395 1_565 S
C304 C307 1.398 . S
C304 H314 0.930 . S
C305 C303 1.380 . S
C305 C306 1.391 . S
C305 H315 0.930 . S
C306 C305 1.391 . S
C306 C308 1.387 . S
C307 C304 1.398 . S
C307 C308 1.380 1_565 S
C307 H316 0.930 . S
C308 C306 1.387 . S
C308 C307 1.380 1_545 S
C308 H317 0.930 . S
C309 O286 1.254 . S
C309 O287 1.268 1_554 S
H310 C295 0.930 . S
H311 C296 0.930 . S
H312 C298 0.930 . S
H313 C299 0.930 . S
H314 C304 0.930 . S
H315 C305 0.930 . S
H316 C307 0.930 . S
H317 C308 0.930 . S
Gd318 N349 2.661 . S
Gd318 N355 2.601 . S
Gd318 O362 2.545 . S
Gd318 O363 2.606 1_655 S
Gd318 O365 2.429 . S
Gd318 O366 2.545 1_655 S
Gd318 O367 2.412 1_655 S
Gd318 O369 2.362 . S
Gd318 O370 2.324 1_655 S
Gd318 C377 2.828 . S
Gd319 N328 2.661 . S
Gd319 N332 2.601 . S
Gd319 O363 2.362 1_556 S
Gd319 O364 2.324 1_455 S
Gd319 O368 2.545 . S
Gd319 O369 2.606 1_456 S
Gd319 O371 2.429 . S
Gd319 O372 2.545 1_455 S
Gd319 O373 2.412 1_455 S
Gd319 C386 2.828 . S
C320 C323 1.417 . S
C320 C325 1.431 . S
C320 C326 1.412 . S
C321 C324 1.437 . S
C321 C325 1.317 . S
C321 H340 0.929 . S
C322 C323 1.426 . S
C322 C324 1.413 . S
C322 N332 1.359 . S
C323 C320 1.417 . S
C323 C322 1.426 . S
C323 N328 1.350 . S
C324 C321 1.437 . S
C324 C322 1.413 . S
C324 C334 1.391 . S
C325 C320 1.431 . S
C325 C321 1.317 . S
C325 H336 0.930 . S
C326 C320 1.412 . S
C326 C327 1.355 . S
C326 H338 0.930 . S
C327 C326 1.355 . S
C327 C329 1.402 . S
C327 H339 0.930 . S
N328 Gd319 2.661 . S
N328 C323 1.350 . S
N328 C329 1.307 . S
C329 C327 1.402 . S
C329 N328 1.307 . S
C329 H330 0.930 . S
H330 C329 0.930 . S
C331 N332 1.334 . S
C331 C333 1.394 . S
C331 H335 0.930 . S
N332 Gd319 2.601 . S
N332 C322 1.359 . S
N332 C331 1.334 . S
C333 C331 1.394 . S
C333 C334 1.359 . S
C333 H345 0.930 . S
C334 C324 1.391 . S
C334 C333 1.359 . S
C334 H346 0.929 . S
H335 C331 0.930 . S
H336 C325 0.930 . S
H337 C354 0.930 . S
H338 C326 0.930 . S
H339 C327 0.930 . S
H340 C321 0.929 . S
H341 C359 0.930 . S
H342 C350 0.930 . S
H343 C351 0.930 . S
H344 C375 0.929 . S
H345 C333 0.930 . S
H346 C334 0.929 . S
H347 C376 0.930 . S
H348 C357 0.930 . S
N349 Gd318 2.661 . S
N349 C353 1.350 . S
N349 C354 1.307 . S
C350 H342 0.930 . S
C350 C351 1.355 . S
C350 C352 1.412 . S
C351 H343 0.930 . S
C351 C350 1.355 . S
C351 C354 1.402 . S
C352 C350 1.412 . S
C352 C353 1.417 . S
C352 C376 1.431 . S
C353 N349 1.350 . S
C353 C352 1.417 . S
C353 C356 1.426 . S
C354 H337 0.930 . S
C354 N349 1.307 . S
C354 C351 1.402 . S
N355 Gd318 2.601 . S
N355 C356 1.359 . S
N355 C359 1.334 . S
C356 C353 1.426 . S
C356 N355 1.359 . S
C356 C360 1.413 . S
C357 H348 0.930 . S
C357 C358 1.359 . S
C357 C359 1.394 . S
C358 C357 1.359 . S
C358 C360 1.391 . S
C358 H361 0.929 . S
C359 H341 0.930 . S
C359 N355 1.334 . S
C359 C357 1.394 . S
C360 C356 1.413 . S
C360 C358 1.391 . S
C360 C375 1.437 . S
H361 C358 0.929 . S
O362 Gd318 2.545 . S
O362 C377 1.258 . S
O363 Gd318 2.606 1_455 S
O363 Gd319 2.362 1_554 S
O363 C374 1.284 . S
O364 Gd319 2.324 1_655 S
O364 C384 1.254 . S
O365 Gd318 2.429 . S
O365 C384 1.268 1_554 S
O366 Gd318 2.545 1_455 S
O366 C374 1.250 . S
O367 Gd318 2.412 1_455 S
O367 C377 1.252 1_455 S
O368 Gd319 2.545 . S
O368 C386 1.258 . S
O369 Gd318 2.362 . S
O369 Gd319 2.606 1_654 S
O369 C385 1.284 1_554 S
O370 Gd318 2.324 1_455 S
O370 C393 1.254 . S
O371 Gd319 2.429 . S
O371 C393 1.268 1_556 S
O372 Gd319 2.545 1_655 S
O372 C385 1.250 . S
O373 Gd319 2.412 1_655 S
O373 C386 1.252 1_655 S
C374 O363 1.284 . S
C374 O366 1.250 . S
C375 H344 0.929 . S
C375 C360 1.437 . S
C375 C376 1.317 . S
C376 H347 0.930 . S
C376 C352 1.431 . S
C376 C375 1.317 . S
C377 Gd318 2.828 . S
C377 O362 1.258 . S
C377 O367 1.252 1_655 S
C377 C378 1.497 1_655 S
C378 C377 1.497 1_455 S
C378 C379 1.395 1_455 S
C378 C380 1.380 . S
C379 C378 1.395 1_655 S
C379 C382 1.398 . S
C379 H394 0.930 . S
C380 C378 1.380 . S
C380 C381 1.391 . S
C380 H395 0.930 . S
C381 C380 1.391 . S
C381 C383 1.387 . S
C382 C379 1.398 . S
C382 C383 1.380 1_655 S
C382 H396 0.930 . S
C383 C381 1.387 . S
C383 C382 1.380 1_455 S
C383 H397 0.930 . S
C384 O364 1.254 . S
C384 O365 1.268 1_556 S
C385 O369 1.284 1_556 S
C385 O372 1.250 . S
C386 Gd319 2.828 . S
C386 O368 1.258 . S
C386 O373 1.252 1_455 S
C386 C387 1.497 . S
C387 C386 1.497 . S
C387 C388 1.395 . S
C387 C389 1.380 1_455 S
C388 C387 1.395 . S
C388 C391 1.398 . S
C388 H398 0.930 . S
C389 C387 1.380 1_655 S
C389 C390 1.391 . S
C389 H399 0.930 . S
C390 C389 1.391 . S
C390 C392 1.387 . S
C391 C388 1.398 . S
C391 C392 1.380 1_455 S
C391 H400 0.930 . S
C392 C390 1.387 . S
C392 C391 1.380 1_655 S
C392 H401 0.930 . S
C393 O370 1.254 . S
C393 O371 1.268 1_554 S
H394 C379 0.930 . S
H395 C380 0.930 . S
H396 C382 0.930 . S
H397 C383 0.930 . S
H398 C388 0.930 . S
H399 C389 0.930 . S
H400 C391 0.930 . S
H401 C392 0.930 . S
Gd402 N433 2.661 . S
Gd402 N439 2.601 . S
Gd402 O446 2.545 . S
Gd402 O447 2.606 1_556 S
Gd402 O449 2.429 . S
Gd402 O450 2.545 . S
Gd402 O451 2.412 . S
Gd402 O453 2.362 1_556 S
Gd402 O454 2.324 . S
Gd402 C461 2.828 . S
Gd403 N412 2.661 . S
Gd403 N416 2.601 . S
Gd403 O447 2.362 . S
Gd403 O448 2.324 . S
Gd403 O452 2.545 . S
Gd403 O453 2.606 . S
Gd403 O455 2.429 . S
Gd403 O456 2.545 . S
Gd403 O457 2.412 . S
Gd403 C470 2.828 . S
C404 C407 1.417 . S
C404 C409 1.431 . S
C404 C410 1.412 . S
C405 C408 1.437 . S
C405 C409 1.317 . S
C405 H424 0.929 . S
C406 C407 1.426 . S
C406 C408 1.413 . S
C406 N416 1.359 . S
C407 C404 1.417 . S
C407 C406 1.426 . S
C407 N412 1.350 . S
C408 C405 1.437 . S
C408 C406 1.413 . S
C408 C418 1.391 . S
C409 C404 1.431 . S
C409 C405 1.317 . S
C409 H420 0.930 . S
C410 C404 1.412 . S
C410 C411 1.355 . S
C410 H422 0.930 . S
C411 C410 1.355 . S
C411 C413 1.402 . S
C411 H423 0.930 . S
N412 Gd403 2.661 . S
N412 C407 1.350 . S
N412 C413 1.307 . S
C413 C411 1.402 . S
C413 N412 1.307 . S
C413 H414 0.930 . S
H414 C413 0.930 . S
C415 N416 1.334 . S
C415 C417 1.394 . S
C415 H419 0.930 . S
N416 Gd403 2.601 . S
N416 C406 1.359 . S
N416 C415 1.334 . S
C417 C415 1.394 . S
C417 C418 1.359 . S
C417 H429 0.930 . S
C418 C408 1.391 . S
C418 C417 1.359 . S
C418 H430 0.929 . S
H419 C415 0.930 . S
H420 C409 0.930 . S
H421 C438 0.930 . S
H422 C410 0.930 . S
H423 C411 0.930 . S
H424 C405 0.929 . S
H425 C443 0.930 . S
H426 C434 0.930 . S
H427 C435 0.930 . S
H428 C459 0.929 . S
H429 C417 0.930 . S
H430 C418 0.929 . S
H431 C460 0.930 . S
H432 C441 0.930 . S
N433 Gd402 2.661 . S
N433 C437 1.350 . S
N433 C438 1.307 . S
C434 H426 0.930 . S
C434 C435 1.355 . S
C434 C436 1.412 . S
C435 H427 0.930 . S
C435 C434 1.355 . S
C435 C438 1.402 . S
C436 C434 1.412 . S
C436 C437 1.417 . S
C436 C460 1.431 . S
C437 N433 1.350 . S
C437 C436 1.417 . S
C437 C440 1.426 . S
C438 H421 0.930 . S
C438 N433 1.307 . S
C438 C435 1.402 . S
N439 Gd402 2.601 . S
N439 C440 1.359 . S
N439 C443 1.334 . S
C440 C437 1.426 . S
C440 N439 1.359 . S
C440 C444 1.413 . S
C441 H432 0.930 . S
C441 C442 1.359 . S
C441 C443 1.394 . S
C442 C441 1.359 . S
C442 C444 1.391 . S
C442 H445 0.929 . S
C443 H425 0.930 . S
C443 N439 1.334 . S
C443 C441 1.394 . S
C444 C440 1.413 . S
C444 C442 1.391 . S
C444 C459 1.437 . S
H445 C442 0.929 . S
O446 Gd402 2.545 . S
O446 C461 1.258 . S
O447 Gd402 2.606 1_554 S
O447 Gd403 2.362 . S
O447 C458 1.284 1_554 S
O448 Gd403 2.324 . S
O448 C468 1.254 . S
O449 Gd402 2.429 . S
O449 C468 1.268 1_556 S
O450 Gd402 2.545 . S
O450 C458 1.250 . S
O451 Gd402 2.412 . S
O451 C461 1.252 . S
O452 Gd403 2.545 . S
O452 C470 1.258 . S
O453 Gd402 2.362 1_554 S
O453 Gd403 2.606 . S
O453 C469 1.284 . S
O454 Gd402 2.324 . S
O454 C477 1.254 . S
O455 Gd403 2.429 . S
O455 C477 1.268 1_554 S
O456 Gd403 2.545 . S
O456 C469 1.250 . S
O457 Gd403 2.412 . S
O457 C470 1.252 . S
C458 O447 1.284 1_556 S
C458 O450 1.250 . S
C459 H428 0.929 . S
C459 C444 1.437 . S
C459 C460 1.317 . S
C460 H431 0.930 . S
C460 C436 1.431 . S
C460 C459 1.317 . S
C461 Gd402 2.828 . S
C461 O446 1.258 . S
C461 O451 1.252 . S
C461 C462 1.497 . S
C462 C461 1.497 . S
C462 C463 1.395 . S
C462 C464 1.380 . S
C463 C462 1.395 . S
C463 C466 1.398 . S
C463 H478 0.930 . S
C464 C462 1.380 . S
C464 C465 1.391 . S
C464 H479 0.930 . S
C465 C464 1.391 . S
C465 C467 1.387 . S
C466 C463 1.398 . S
C466 C467 1.380 . S
C466 H480 0.930 . S
C467 C465 1.387 . S
C467 C466 1.380 . S
C467 H481 0.930 . S
C468 O448 1.254 . S
C468 O449 1.268 1_554 S
C469 O453 1.284 . S
C469 O456 1.250 . S
C470 Gd403 2.828 . S
C470 O452 1.258 . S
C470 O457 1.252 . S
C470 C471 1.497 . S
C471 C470 1.497 . S
C471 C472 1.395 . S
C471 C473 1.380 . S
C472 C471 1.395 . S
C472 C475 1.398 . S
C472 H482 0.930 . S
C473 C471 1.380 . S
C473 C474 1.391 . S
C473 H483 0.930 . S
C474 C473 1.391 . S
C474 C476 1.387 . S
C475 C472 1.398 . S
C475 C476 1.380 . S
C475 H484 0.930 . S
C476 C474 1.387 . S
C476 C475 1.380 . S
C476 H485 0.930 . S
C477 O454 1.254 . S
C477 O455 1.268 1_556 S
H478 C463 0.930 . S
H479 C464 0.930 . S
H480 C466 0.930 . S
H481 C467 0.930 . S
H482 C472 0.930 . S
H483 C473 0.930 . S
H484 C475 0.930 . S
H485 C476 0.930 . S
Gd486 N517 2.661 . S
Gd486 N523 2.601 . S
Gd486 O530 2.545 . S
Gd486 O531 2.606 . S
Gd486 O533 2.429 . S
Gd486 O534 2.545 . S
Gd486 O535 2.412 . S
Gd486 O537 2.362 . S
Gd486 O538 2.324 . S
Gd486 C545 2.828 . S
Gd487 N496 2.661 . S
Gd487 N500 2.601 . S
Gd487 O531 2.362 . S
Gd487 O532 2.324 . S
Gd487 O536 2.545 . S
Gd487 O537 2.606 . S
Gd487 O539 2.429 . S
Gd487 O540 2.545 . S
Gd487 O541 2.412 . S
Gd487 C554 2.828 . S
C488 C491 1.417 1_655 S
C488 C493 1.431 . S
C488 C494 1.412 . S
C489 C492 1.437 1_655 S
C489 C493 1.317 . S
C489 H508 0.929 . S
C490 C491 1.426 . S
C490 C492 1.413 . S
C490 N500 1.359 . S
C491 C488 1.417 1_455 S
C491 C490 1.426 . S
C491 N496 1.350 . S
C492 C489 1.437 1_455 S
C492 C490 1.413 . S
C492 C502 1.391 . S
C493 C488 1.431 . S
C493 C489 1.317 . S
C493 H504 0.930 . S
C494 C488 1.412 . S
C494 C495 1.355 . S
C494 H506 0.930 . S
C495 C494 1.355 . S
C495 C497 1.402 1_655 S
C495 H507 0.930 . S
N496 Gd487 2.661 . S
N496 C491 1.350 . S
N496 C497 1.307 . S
C497 C495 1.402 1_455 S
C497 N496 1.307 . S
C497 H498 0.930 . S
H498 C497 0.930 . S
C499 N500 1.334 . S
C499 C501 1.394 . S
C499 H503 0.930 . S
N500 Gd487 2.601 . S
N500 C490 1.359 . S
N500 C499 1.334 . S
C501 C499 1.394 . S
C501 C502 1.359 . S
C501 H513 0.930 . S
C502 C492 1.391 . S
C502 C501 1.359 . S
C502 H514 0.929 . S
H503 C499 0.930 . S
H504 C493 0.930 . S
H505 C522 0.930 . S
H506 C494 0.930 . S
H507 C495 0.930 . S
H508 C489 0.929 . S
H509 C527 0.930 . S
H510 C518 0.930 . S
H511 C519 0.930 . S
H512 C543 0.929 . S
H513 C501 0.930 . S
H514 C502 0.929 . S
H515 C544 0.930 . S
H516 C525 0.930 . S
N517 Gd486 2.661 . S
N517 C521 1.350 . S
N517 C522 1.307 . S
C518 H510 0.930 . S
C518 C519 1.355 . S
C518 C520 1.412 . S
C519 H511 0.930 . S
C519 C518 1.355 . S
C519 C522 1.402 . S
C520 C518 1.412 . S
C520 C521 1.417 . S
C520 C544 1.431 . S
C521 N517 1.350 . S
C521 C520 1.417 . S
C521 C524 1.426 . S
C522 H505 0.930 . S
C522 N517 1.307 . S
C522 C519 1.402 . S
N523 Gd486 2.601 . S
N523 C524 1.359 . S
N523 C527 1.334 . S
C524 C521 1.426 . S
C524 N523 1.359 . S
C524 C528 1.413 . S
C525 H516 0.930 . S
C525 C526 1.359 . S
C525 C527 1.394 . S
C526 C525 1.359 . S
C526 C528 1.391 . S
C526 H529 0.929 . S
C527 H509 0.930 . S
C527 N523 1.334 . S
C527 C525 1.394 . S
C528 C524 1.413 . S
C528 C526 1.391 . S
C528 C543 1.437 . S
H529 C526 0.929 . S
O530 Gd486 2.545 . S
O530 C545 1.258 . S
O531 Gd486 2.606 . S
O531 Gd487 2.362 . S
O531 C542 1.284 . S
O532 Gd487 2.324 . S
O532 C552 1.254 . S
O533 Gd486 2.429 . S
O533 C552 1.268 . S
O534 Gd486 2.545 . S
O534 C542 1.250 . S
O535 Gd486 2.412 . S
O535 C545 1.252 . S
O536 Gd487 2.545 . S
O536 C554 1.258 . S
O537 Gd486 2.362 . S
O537 Gd487 2.606 . S
O537 C553 1.284 . S
O538 Gd486 2.324 . S
O538 C561 1.254 . S
O539 Gd487 2.429 . S
O539 C561 1.268 . S
O540 Gd487 2.545 . S
O540 C553 1.250 . S
O541 Gd487 2.412 . S
O541 C554 1.252 . S
C542 O531 1.284 . S
C542 O534 1.250 . S
C543 H512 0.929 . S
C543 C528 1.437 . S
C543 C544 1.317 . S
C544 H515 0.930 . S
C544 C520 1.431 . S
C544 C543 1.317 . S
C545 Gd486 2.828 . S
C545 O530 1.258 . S
C545 O535 1.252 . S
C545 C546 1.497 . S
C546 C545 1.497 . S
C546 C547 1.395 . S
C546 C548 1.380 . S
C547 C546 1.395 . S
C547 C550 1.398 . S
C547 H562 0.930 . S
C548 C546 1.380 . S
C548 C549 1.391 . S
C548 H563 0.930 . S
C549 C548 1.391 . S
C549 C551 1.387 . S
C550 C547 1.398 . S
C550 C551 1.380 . S
C550 H564 0.930 . S
C551 C549 1.387 . S
C551 C550 1.380 . S
C551 H565 0.930 . S
C552 O532 1.254 . S
C552 O533 1.268 . S
C553 O537 1.284 . S
C553 O540 1.250 . S
C554 Gd487 2.828 . S
C554 O536 1.258 . S
C554 O541 1.252 . S
C554 C555 1.497 . S
C555 C554 1.497 . S
C555 C556 1.395 . S
C555 C557 1.380 . S
C556 C555 1.395 . S
C556 C559 1.398 . S
C556 H566 0.930 . S
C557 C555 1.380 . S
C557 C558 1.391 . S
C557 H567 0.930 . S
C558 C557 1.391 . S
C558 C560 1.387 . S
C559 C556 1.398 . S
C559 C560 1.380 . S
C559 H568 0.930 . S
C560 C558 1.387 . S
C560 C559 1.380 . S
C560 H569 0.930 . S
C561 O538 1.254 . S
C561 O539 1.268 . S
H562 C547 0.930 . S
H563 C548 0.930 . S
H564 C550 0.930 . S
H565 C551 0.930 . S
H566 C556 0.930 . S
H567 C557 0.930 . S
H568 C559 0.930 . S
H569 C560 0.930 . S
Gd570 N601 2.661 . S
Gd570 N607 2.601 . S
Gd570 O614 2.545 . S
Gd570 O615 2.606 . S
Gd570 O617 2.429 . S
Gd570 O618 2.545 . S
Gd570 O619 2.412 . S
Gd570 O621 2.362 . S
Gd570 O622 2.324 . S
Gd570 C629 2.828 . S
Gd571 N580 2.661 . S
Gd571 N584 2.601 . S
Gd571 O615 2.362 . S
Gd571 O616 2.324 . S
Gd571 O620 2.545 . S
Gd571 O621 2.606 . S
Gd571 O623 2.429 . S
Gd571 O624 2.545 . S
Gd571 O625 2.412 . S
Gd571 C638 2.828 . S
C572 C575 1.417 . S
C572 C577 1.431 . S
C572 C578 1.412 . S
C573 C576 1.437 . S
C573 C577 1.317 . S
C573 H592 0.929 . S
C574 C575 1.426 . S
C574 C576 1.413 . S
C574 N584 1.359 . S
C575 C572 1.417 . S
C575 C574 1.426 . S
C575 N580 1.350 . S
C576 C573 1.437 . S
C576 C574 1.413 . S
C576 C586 1.391 . S
C577 C572 1.431 . S
C577 C573 1.317 . S
C577 H588 0.930 . S
C578 C572 1.412 . S
C578 C579 1.355 . S
C578 H590 0.930 . S
C579 C578 1.355 . S
C579 C581 1.402 . S
C579 H591 0.930 . S
N580 Gd571 2.661 . S
N580 C575 1.350 . S
N580 C581 1.307 . S
C581 C579 1.402 . S
C581 N580 1.307 . S
C581 H582 0.930 . S
H582 C581 0.930 . S
C583 N584 1.334 . S
C583 C585 1.394 . S
C583 H587 0.930 . S
N584 Gd571 2.601 . S
N584 C574 1.359 . S
N584 C583 1.334 . S
C585 C583 1.394 . S
C585 C586 1.359 . S
C585 H597 0.930 . S
C586 C576 1.391 . S
C586 C585 1.359 . S
C586 H598 0.929 . S
H587 C583 0.930 . S
H588 C577 0.930 . S
H589 C606 0.930 . S
H590 C578 0.930 . S
H591 C579 0.930 . S
H592 C573 0.929 . S
H593 C611 0.930 . S
H594 C602 0.930 . S
H595 C603 0.930 . S
H596 C627 0.929 . S
H597 C585 0.930 . S
H598 C586 0.929 . S
H599 C628 0.930 . S
H600 C609 0.930 . S
N601 Gd570 2.661 . S
N601 C605 1.350 . S
N601 C606 1.307 . S
C602 H594 0.930 . S
C602 C603 1.355 . S
C602 C604 1.412 . S
C603 H595 0.930 . S
C603 C602 1.355 . S
C603 C606 1.402 . S
C604 C602 1.412 . S
C604 C605 1.417 . S
C604 C628 1.431 . S
C605 N601 1.350 . S
C605 C604 1.417 . S
C605 C608 1.426 . S
C606 H589 0.930 . S
C606 N601 1.307 . S
C606 C603 1.402 . S
N607 Gd570 2.601 . S
N607 C608 1.359 . S
N607 C611 1.334 . S
C608 C605 1.426 . S
C608 N607 1.359 . S
C608 C612 1.413 . S
C609 H600 0.930 . S
C609 C610 1.359 . S
C609 C611 1.394 . S
C610 C609 1.359 . S
C610 C612 1.391 . S
C610 H613 0.929 . S
C611 H593 0.930 . S
C611 N607 1.334 . S
C611 C609 1.394 . S
C612 C608 1.413 . S
C612 C610 1.391 . S
C612 C627 1.437 . S
H613 C610 0.929 . S
O614 Gd570 2.545 . S
O614 C629 1.258 . S
O615 Gd570 2.606 . S
O615 Gd571 2.362 . S
O615 C626 1.284 . S
O616 Gd571 2.324 . S
O616 C636 1.254 . S
O617 Gd570 2.429 . S
O617 C636 1.268 . S
O618 Gd570 2.545 . S
O618 C626 1.250 . S
O619 Gd570 2.412 . S
O619 C629 1.252 . S
O620 Gd571 2.545 . S
O620 C638 1.258 . S
O621 Gd570 2.362 . S
O621 Gd571 2.606 . S
O621 C637 1.284 . S
O622 Gd570 2.324 . S
O622 C645 1.254 . S
O623 Gd571 2.429 . S
O623 C645 1.268 . S
O624 Gd571 2.545 . S
O624 C637 1.250 . S
O625 Gd571 2.412 . S
O625 C638 1.252 . S
C626 O615 1.284 . S
C626 O618 1.250 . S
C627 H596 0.929 . S
C627 C612 1.437 . S
C627 C628 1.317 . S
C628 H599 0.930 . S
C628 C604 1.431 . S
C628 C627 1.317 . S
C629 Gd570 2.828 . S
C629 O614 1.258 . S
C629 O619 1.252 . S
C629 C630 1.497 . S
C630 C629 1.497 . S
C630 C631 1.395 . S
C630 C632 1.380 . S
C631 C630 1.395 . S
C631 C634 1.398 . S
C631 H646 0.930 . S
C632 C630 1.380 . S
C632 C633 1.391 . S
C632 H647 0.930 . S
C633 C632 1.391 . S
C633 C635 1.387 . S
C634 C631 1.398 . S
C634 C635 1.380 . S
C634 H648 0.930 . S
C635 C633 1.387 . S
C635 C634 1.380 . S
C635 H649 0.930 . S
C636 O616 1.254 . S
C636 O617 1.268 . S
C637 O621 1.284 . S
C637 O624 1.250 . S
C638 Gd571 2.828 . S
C638 O620 1.258 . S
C638 O625 1.252 . S
C638 C639 1.497 . S
C639 C638 1.497 . S
C639 C640 1.395 . S
C639 C641 1.380 . S
C640 C639 1.395 . S
C640 C643 1.398 . S
C640 H650 0.930 . S
C641 C639 1.380 . S
C641 C642 1.391 . S
C641 H651 0.930 . S
C642 C641 1.391 . S
C642 C644 1.387 . S
C643 C640 1.398 . S
C643 C644 1.380 . S
C643 H652 0.930 . S
C644 C642 1.387 . S
C644 C643 1.380 . S
C644 H653 0.930 . S
C645 O622 1.254 . S
C645 O623 1.268 . S
H646 C631 0.930 . S
H647 C632 0.930 . S
H648 C634 0.930 . S
H649 C635 0.930 . S
H650 C640 0.930 . S
H651 C641 0.930 . S
H652 C643 0.930 . S
H653 C644 0.930 . S
Gd654 N685 2.661 . S
Gd654 N691 2.601 . S
Gd654 O698 2.545 . S
Gd654 O699 2.606 . S
Gd654 O701 2.429 . S
Gd654 O702 2.545 . S
Gd654 O703 2.412 . S
Gd654 O705 2.362 . S
Gd654 O706 2.324 . S
Gd654 C713 2.828 . S
Gd655 N664 2.661 . S
Gd655 N668 2.601 . S
Gd655 O699 2.362 . S
Gd655 O700 2.324 . S
Gd655 O704 2.545 . S
Gd655 O705 2.606 . S
Gd655 O707 2.429 . S
Gd655 O708 2.545 . S
Gd655 O709 2.412 . S
Gd655 C722 2.828 . S
C656 C659 1.417 . S
C656 C661 1.431 . S
C656 C662 1.412 . S
C657 C660 1.437 . S
C657 C661 1.317 . S
C657 H676 0.929 . S
C658 C659 1.426 . S
C658 C660 1.413 . S
C658 N668 1.359 . S
C659 C656 1.417 . S
C659 C658 1.426 . S
C659 N664 1.350 . S
C660 C657 1.437 . S
C660 C658 1.413 . S
C660 C670 1.391 . S
C661 C656 1.431 . S
C661 C657 1.317 . S
C661 H672 0.930 . S
C662 C656 1.412 . S
C662 C663 1.355 . S
C662 H674 0.930 . S
C663 C662 1.355 . S
C663 C665 1.402 . S
C663 H675 0.930 . S
N664 Gd655 2.661 . S
N664 C659 1.350 . S
N664 C665 1.307 . S
C665 C663 1.402 . S
C665 N664 1.307 . S
C665 H666 0.930 . S
H666 C665 0.930 . S
C667 N668 1.334 . S
C667 C669 1.394 . S
C667 H671 0.930 . S
N668 Gd655 2.601 . S
N668 C658 1.359 . S
N668 C667 1.334 . S
C669 C667 1.394 . S
C669 C670 1.359 . S
C669 H681 0.930 . S
C670 C660 1.391 . S
C670 C669 1.359 . S
C670 H682 0.929 . S
H671 C667 0.930 . S
H672 C661 0.930 . S
H673 C690 0.930 . S
H674 C662 0.930 . S
H675 C663 0.930 . S
H676 C657 0.929 . S
H677 C695 0.930 . S
H678 C686 0.930 . S
H679 C687 0.930 . S
H680 C711 0.929 . S
H681 C669 0.930 . S
H682 C670 0.929 . S
H683 C712 0.930 . S
H684 C693 0.930 . S
N685 Gd654 2.661 . S
N685 C689 1.350 . S
N685 C690 1.307 . S
C686 H678 0.930 . S
C686 C687 1.355 . S
C686 C688 1.412 . S
C687 H679 0.930 . S
C687 C686 1.355 . S
C687 C690 1.402 . S
C688 C686 1.412 . S
C688 C689 1.417 . S
C688 C712 1.431 . S
C689 N685 1.350 . S
C689 C688 1.417 . S
C689 C692 1.426 . S
C690 H673 0.930 . S
C690 N685 1.307 . S
C690 C687 1.402 . S
N691 Gd654 2.601 . S
N691 C692 1.359 . S
N691 C695 1.334 . S
C692 C689 1.426 . S
C692 N691 1.359 . S
C692 C696 1.413 . S
C693 H684 0.930 . S
C693 C694 1.359 . S
C693 C695 1.394 . S
C694 C693 1.359 . S
C694 C696 1.391 . S
C694 H697 0.929 . S
C695 H677 0.930 . S
C695 N691 1.334 . S
C695 C693 1.394 . S
C696 C692 1.413 . S
C696 C694 1.391 . S
C696 C711 1.437 . S
H697 C694 0.929 . S
O698 Gd654 2.545 . S
O698 C713 1.258 . S
O699 Gd654 2.606 . S
O699 Gd655 2.362 . S
O699 C710 1.284 . S
O700 Gd655 2.324 . S
O700 C720 1.254 . S
O701 Gd654 2.429 . S
O701 C720 1.268 . S
O702 Gd654 2.545 . S
O702 C710 1.250 . S
O703 Gd654 2.412 . S
O703 C713 1.252 . S
O704 Gd655 2.545 . S
O704 C722 1.258 . S
O705 Gd654 2.362 . S
O705 Gd655 2.606 . S
O705 C721 1.284 . S
O706 Gd654 2.324 . S
O706 C729 1.254 . S
O707 Gd655 2.429 . S
O707 C729 1.268 . S
O708 Gd655 2.545 . S
O708 C721 1.250 . S
O709 Gd655 2.412 . S
O709 C722 1.252 . S
C710 O699 1.284 . S
C710 O702 1.250 . S
C711 H680 0.929 . S
C711 C696 1.437 . S
C711 C712 1.317 . S
C712 H683 0.930 . S
C712 C688 1.431 . S
C712 C711 1.317 . S
C713 Gd654 2.828 . S
C713 O698 1.258 . S
C713 O703 1.252 . S
C713 C714 1.497 . S
C714 C713 1.497 . S
C714 C715 1.395 . S
C714 C716 1.380 . S
C715 C714 1.395 . S
C715 C718 1.398 . S
C715 H730 0.930 . S
C716 C714 1.380 . S
C716 C717 1.391 . S
C716 H731 0.930 . S
C717 C716 1.391 . S
C717 C719 1.387 . S
C718 C715 1.398 . S
C718 C719 1.380 . S
C718 H732 0.930 . S
C719 C717 1.387 . S
C719 C718 1.380 . S
C719 H733 0.930 . S
C720 O700 1.254 . S
C720 O701 1.268 . S
C721 O705 1.284 . S
C721 O708 1.250 . S
C722 Gd655 2.828 . S
C722 O704 1.258 . S
C722 O709 1.252 . S
C722 C723 1.497 . S
C723 C722 1.497 . S
C723 C724 1.395 . S
C723 C725 1.380 . S
C724 C723 1.395 . S
C724 C727 1.398 . S
C724 H734 0.930 . S
C725 C723 1.380 . S
C725 C726 1.391 . S
C725 H735 0.930 . S
C726 C725 1.391 . S
C726 C728 1.387 . S
C727 C724 1.398 . S
C727 C728 1.380 . S
C727 H736 0.930 . S
C728 C726 1.387 . S
C728 C727 1.380 . S
C728 H737 0.930 . S
C729 O706 1.254 . S
C729 O707 1.268 . S
H730 C715 0.930 . S
H731 C716 0.930 . S
H732 C718 0.930 . S
H733 C719 0.930 . S
H734 C724 0.930 . S
H735 C725 0.930 . S
H736 C727 0.930 . S
H737 C728 0.930 . S
Gd738 N769 2.661 . S
Gd738 N775 2.601 . S
Gd738 O782 2.545 . S
Gd738 O783 2.606 . S
Gd738 O785 2.429 . S
Gd738 O786 2.545 . S
Gd738 O787 2.412 . S
Gd738 O789 2.362 . S
Gd738 O790 2.324 . S
Gd738 C797 2.828 . S
Gd739 N748 2.661 . S
Gd739 N752 2.601 . S
Gd739 O783 2.362 . S
Gd739 O784 2.324 . S
Gd739 O788 2.545 . S
Gd739 O789 2.606 . S
Gd739 O791 2.429 . S
Gd739 O792 2.545 . S
Gd739 O793 2.412 . S
Gd739 C806 2.828 . S
C740 C743 1.417 . S
C740 C745 1.431 . S
C740 C746 1.412 . S
C741 C744 1.437 . S
C741 C745 1.317 . S
C741 H760 0.929 . S
C742 C743 1.426 . S
C742 C744 1.413 . S
C742 N752 1.359 . S
C743 C740 1.417 . S
C743 C742 1.426 . S
C743 N748 1.350 . S
C744 C741 1.437 . S
C744 C742 1.413 . S
C744 C754 1.391 . S
C745 C740 1.431 . S
C745 C741 1.317 . S
C745 H756 0.930 . S
C746 C740 1.412 . S
C746 C747 1.355 . S
C746 H758 0.930 . S
C747 C746 1.355 . S
C747 C749 1.402 . S
C747 H759 0.930 . S
N748 Gd739 2.661 . S
N748 C743 1.350 . S
N748 C749 1.307 . S
C749 C747 1.402 . S
C749 N748 1.307 . S
C749 H750 0.930 . S
H750 C749 0.930 . S
C751 N752 1.334 . S
C751 C753 1.394 . S
C751 H755 0.930 . S
N752 Gd739 2.601 . S
N752 C742 1.359 . S
N752 C751 1.334 . S
C753 C751 1.394 . S
C753 C754 1.359 . S
C753 H765 0.930 . S
C754 C744 1.391 . S
C754 C753 1.359 . S
C754 H766 0.929 . S
H755 C751 0.930 . S
H756 C745 0.930 . S
H757 C774 0.930 . S
H758 C746 0.930 . S
H759 C747 0.930 . S
H760 C741 0.929 . S
H761 C779 0.930 . S
H762 C770 0.930 . S
H763 C771 0.930 . S
H764 C795 0.929 . S
H765 C753 0.930 . S
H766 C754 0.929 . S
H767 C796 0.930 . S
H768 C777 0.930 . S
N769 Gd738 2.661 . S
N769 C773 1.350 . S
N769 C774 1.307 . S
C770 H762 0.930 . S
C770 C771 1.355 . S
C770 C772 1.412 . S
C771 H763 0.930 . S
C771 C770 1.355 . S
C771 C774 1.402 . S
C772 C770 1.412 . S
C772 C773 1.417 . S
C772 C796 1.431 . S
C773 N769 1.350 . S
C773 C772 1.417 . S
C773 C776 1.426 . S
C774 H757 0.930 . S
C774 N769 1.307 . S
C774 C771 1.402 . S
N775 Gd738 2.601 . S
N775 C776 1.359 . S
N775 C779 1.334 . S
C776 C773 1.426 . S
C776 N775 1.359 . S
C776 C780 1.413 . S
C777 H768 0.930 . S
C777 C778 1.359 . S
C777 C779 1.394 . S
C778 C777 1.359 . S
C778 C780 1.391 . S
C778 H781 0.929 . S
C779 H761 0.930 . S
C779 N775 1.334 . S
C779 C777 1.394 . S
C780 C776 1.413 . S
C780 C778 1.391 . S
C780 C795 1.437 . S
H781 C778 0.929 . S
O782 Gd738 2.545 . S
O782 C797 1.258 . S
O783 Gd738 2.606 . S
O783 Gd739 2.362 . S
O783 C794 1.284 . S
O784 Gd739 2.324 . S
O784 C804 1.254 . S
O785 Gd738 2.429 . S
O785 C804 1.268 . S
O786 Gd738 2.545 . S
O786 C794 1.250 . S
O787 Gd738 2.412 . S
O787 C797 1.252 . S
O788 Gd739 2.545 . S
O788 C806 1.258 . S
O789 Gd738 2.362 . S
O789 Gd739 2.606 . S
O789 C805 1.284 . S
O790 Gd738 2.324 . S
O790 C813 1.254 . S
O791 Gd739 2.429 . S
O791 C813 1.268 . S
O792 Gd739 2.545 . S
O792 C805 1.250 . S
O793 Gd739 2.412 . S
O793 C806 1.252 . S
C794 O783 1.284 . S
C794 O786 1.250 . S
C795 H764 0.929 . S
C795 C780 1.437 . S
C795 C796 1.317 . S
C796 H767 0.930 . S
C796 C772 1.431 . S
C796 C795 1.317 . S
C797 Gd738 2.828 . S
C797 O782 1.258 . S
C797 O787 1.252 . S
C797 C798 1.497 . S
C798 C797 1.497 . S
C798 C799 1.395 . S
C798 C800 1.380 . S
C799 C798 1.395 . S
C799 C802 1.398 . S
C799 H814 0.930 . S
C800 C798 1.380 . S
C800 C801 1.391 . S
C800 H815 0.930 . S
C801 C800 1.391 . S
C801 C803 1.387 . S
C802 C799 1.398 . S
C802 C803 1.380 . S
C802 H816 0.930 . S
C803 C801 1.387 . S
C803 C802 1.380 . S
C803 H817 0.930 . S
C804 O784 1.254 . S
C804 O785 1.268 . S
C805 O789 1.284 . S
C805 O792 1.250 . S
C806 Gd739 2.828 . S
C806 O788 1.258 . S
C806 O793 1.252 . S
C806 C807 1.497 . S
C807 C806 1.497 . S
C807 C808 1.395 . S
C807 C809 1.380 . S
C808 C807 1.395 . S
C808 C811 1.398 . S
C808 H818 0.930 . S
C809 C807 1.380 . S
C809 C810 1.391 . S
C809 H819 0.930 . S
C810 C809 1.391 . S
C810 C812 1.387 . S
C811 C808 1.398 . S
C811 C812 1.380 . S
C811 H820 0.930 . S
C812 C810 1.387 . S
C812 C811 1.380 . S
C812 H821 0.930 . S
C813 O790 1.254 . S
C813 O791 1.268 . S
H814 C799 0.930 . S
H815 C800 0.930 . S
H816 C802 0.930 . S
H817 C803 0.930 . S
H818 C808 0.930 . S
H819 C809 0.930 . S
H820 C811 0.930 . S
H821 C812 0.930 . S
Gd822 N853 2.661 . S
Gd822 N859 2.601 . S
Gd822 O866 2.545 . S
Gd822 O867 2.606 . S
Gd822 O869 2.429 . S
Gd822 O870 2.545 . S
Gd822 O871 2.412 . S
Gd822 O873 2.362 . S
Gd822 O874 2.324 . S
Gd822 C881 2.828 . S
Gd823 N832 2.661 . S
Gd823 N836 2.601 . S
Gd823 O867 2.362 . S
Gd823 O868 2.324 . S
Gd823 O872 2.545 . S
Gd823 O873 2.606 . S
Gd823 O875 2.429 . S
Gd823 O876 2.545 . S
Gd823 O877 2.412 . S
Gd823 C890 2.828 . S
C824 C827 1.417 . S
C824 C829 1.431 . S
C824 C830 1.412 . S
C825 C828 1.437 . S
C825 C829 1.317 . S
C825 H844 0.929 . S
C826 C827 1.426 . S
C826 C828 1.413 . S
C826 N836 1.359 . S
C827 C824 1.417 . S
C827 C826 1.426 . S
C827 N832 1.350 . S
C828 C825 1.437 . S
C828 C826 1.413 . S
C828 C838 1.391 . S
C829 C824 1.431 . S
C829 C825 1.317 . S
C829 H840 0.930 . S
C830 C824 1.412 . S
C830 C831 1.355 . S
C830 H842 0.930 . S
C831 C830 1.355 . S
C831 C833 1.402 . S
C831 H843 0.930 . S
N832 Gd823 2.661 . S
N832 C827 1.350 . S
N832 C833 1.307 . S
C833 C831 1.402 . S
C833 N832 1.307 . S
C833 H834 0.930 . S
H834 C833 0.930 . S
C835 N836 1.334 . S
C835 C837 1.394 . S
C835 H839 0.930 . S
N836 Gd823 2.601 . S
N836 C826 1.359 . S
N836 C835 1.334 . S
C837 C835 1.394 . S
C837 C838 1.359 . S
C837 H849 0.930 . S
C838 C828 1.391 . S
C838 C837 1.359 . S
C838 H850 0.929 . S
H839 C835 0.930 . S
H840 C829 0.930 . S
H841 C858 0.930 . S
H842 C830 0.930 . S
H843 C831 0.930 . S
H844 C825 0.929 . S
H845 C863 0.930 . S
H846 C854 0.930 . S
H847 C855 0.930 . S
H848 C879 0.929 . S
H849 C837 0.930 . S
H850 C838 0.929 . S
H851 C880 0.930 . S
H852 C861 0.930 . S
N853 Gd822 2.661 . S
N853 C857 1.350 . S
N853 C858 1.307 . S
C854 H846 0.930 . S
C854 C855 1.355 . S
C854 C856 1.412 . S
C855 H847 0.930 . S
C855 C854 1.355 . S
C855 C858 1.402 . S
C856 C854 1.412 . S
C856 C857 1.417 . S
C856 C880 1.431 . S
C857 N853 1.350 . S
C857 C856 1.417 . S
C857 C860 1.426 . S
C858 H841 0.930 . S
C858 N853 1.307 . S
C858 C855 1.402 . S
N859 Gd822 2.601 . S
N859 C860 1.359 . S
N859 C863 1.334 . S
C860 C857 1.426 . S
C860 N859 1.359 . S
C860 C864 1.413 . S
C861 H852 0.930 . S
C861 C862 1.359 . S
C861 C863 1.394 . S
C862 C861 1.359 . S
C862 C864 1.391 . S
C862 H865 0.929 . S
C863 H845 0.930 . S
C863 N859 1.334 . S
C863 C861 1.394 . S
C864 C860 1.413 . S
C864 C862 1.391 . S
C864 C879 1.437 . S
H865 C862 0.929 . S
O866 Gd822 2.545 . S
O866 C881 1.258 . S
O867 Gd822 2.606 . S
O867 Gd823 2.362 . S
O867 C878 1.284 . S
O868 Gd823 2.324 . S
O868 C888 1.254 . S
O869 Gd822 2.429 . S
O869 C888 1.268 . S
O870 Gd822 2.545 . S
O870 C878 1.250 . S
O871 Gd822 2.412 . S
O871 C881 1.252 . S
O872 Gd823 2.545 . S
O872 C890 1.258 . S
O873 Gd822 2.362 . S
O873 Gd823 2.606 . S
O873 C889 1.284 . S
O874 Gd822 2.324 . S
O874 C897 1.254 . S
O875 Gd823 2.429 . S
O875 C897 1.268 . S
O876 Gd823 2.545 . S
O876 C889 1.250 . S
O877 Gd823 2.412 . S
O877 C890 1.252 . S
C878 O867 1.284 . S
C878 O870 1.250 . S
C879 H848 0.929 . S
C879 C864 1.437 . S
C879 C880 1.317 . S
C880 H851 0.930 . S
C880 C856 1.431 . S
C880 C879 1.317 . S
C881 Gd822 2.828 . S
C881 O866 1.258 . S
C881 O871 1.252 . S
C881 C882 1.497 . S
C882 C881 1.497 . S
C882 C883 1.395 . S
C882 C884 1.380 . S
C883 C882 1.395 . S
C883 C886 1.398 . S
C883 H898 0.930 . S
C884 C882 1.380 . S
C884 C885 1.391 . S
C884 H899 0.930 . S
C885 C884 1.391 . S
C885 C887 1.387 . S
C886 C883 1.398 . S
C886 C887 1.380 . S
C886 H900 0.930 . S
C887 C885 1.387 . S
C887 C886 1.380 . S
C887 H901 0.930 . S
C888 O868 1.254 . S
C888 O869 1.268 . S
C889 O873 1.284 . S
C889 O876 1.250 . S
C890 Gd823 2.828 . S
C890 O872 1.258 . S
C890 O877 1.252 . S
C890 C891 1.497 . S
C891 C890 1.497 . S
C891 C892 1.395 . S
C891 C893 1.380 . S
C892 C891 1.395 . S
C892 C895 1.398 . S
C892 H902 0.930 . S
C893 C891 1.380 . S
C893 C894 1.391 . S
C893 H903 0.930 . S
C894 C893 1.391 . S
C894 C896 1.387 . S
C895 C892 1.398 . S
C895 C896 1.380 . S
C895 H904 0.930 . S
C896 C894 1.387 . S
C896 C895 1.380 . S
C896 H905 0.930 . S
C897 O874 1.254 . S
C897 O875 1.268 . S
H898 C883 0.930 . S
H899 C884 0.930 . S
H900 C886 0.930 . S
H901 C887 0.930 . S
H902 C892 0.930 . S
H903 C893 0.930 . S
H904 C895 0.930 . S
H905 C896 0.930 . S
Gd906 N937 2.661 . S
Gd906 N943 2.601 . S
Gd906 O950 2.545 . S
Gd906 O951 2.606 . S
Gd906 O953 2.429 . S
Gd906 O954 2.545 . S
Gd906 O955 2.412 . S
Gd906 O957 2.362 . S
Gd906 O958 2.324 . S
Gd906 C965 2.828 . S
Gd907 N916 2.661 . S
Gd907 N920 2.601 . S
Gd907 O951 2.362 . S
Gd907 O952 2.324 . S
Gd907 O956 2.545 . S
Gd907 O957 2.606 . S
Gd907 O959 2.429 . S
Gd907 O960 2.545 . S
Gd907 O961 2.412 . S
Gd907 C974 2.828 . S
C908 C911 1.417 1_455 S
C908 C913 1.431 . S
C908 C914 1.412 . S
C909 C912 1.437 1_455 S
C909 C913 1.317 . S
C909 H928 0.929 . S
C910 C911 1.426 . S
C910 C912 1.413 . S
C910 N920 1.359 . S
C911 C908 1.417 1_655 S
C911 C910 1.426 . S
C911 N916 1.350 . S
C912 C909 1.437 1_655 S
C912 C910 1.413 . S
C912 C922 1.391 . S
C913 C908 1.431 . S
C913 C909 1.317 . S
C913 H924 0.930 . S
C914 C908 1.412 . S
C914 C915 1.355 . S
C914 H926 0.930 . S
C915 C914 1.355 . S
C915 C917 1.402 1_455 S
C915 H927 0.930 . S
N916 Gd907 2.661 . S
N916 C911 1.350 . S
N916 C917 1.307 . S
C917 C915 1.402 1_655 S
C917 N916 1.307 . S
C917 H918 0.930 . S
H918 C917 0.930 . S
C919 N920 1.334 . S
C919 C921 1.394 . S
C919 H923 0.930 . S
N920 Gd907 2.601 . S
N920 C910 1.359 . S
N920 C919 1.334 . S
C921 C919 1.394 . S
C921 C922 1.359 . S
C921 H933 0.930 . S
C922 C912 1.391 . S
C922 C921 1.359 . S
C922 H934 0.929 . S
H923 C919 0.930 . S
H924 C913 0.930 . S
H925 C942 0.930 . S
H926 C914 0.930 . S
H927 C915 0.930 . S
H928 C909 0.929 . S
H929 C947 0.930 . S
H930 C938 0.930 . S
H931 C939 0.930 . S
H932 C963 0.929 . S
H933 C921 0.930 . S
H934 C922 0.929 . S
H935 C964 0.930 . S
H936 C945 0.930 . S
N937 Gd906 2.661 . S
N937 C941 1.350 . S
N937 C942 1.307 . S
C938 H930 0.930 . S
C938 C939 1.355 . S
C938 C940 1.412 . S
C939 H931 0.930 . S
C939 C938 1.355 . S
C939 C942 1.402 . S
C940 C938 1.412 . S
C940 C941 1.417 . S
C940 C964 1.431 . S
C941 N937 1.350 . S
C941 C940 1.417 . S
C941 C944 1.426 . S
C942 H925 0.930 . S
C942 N937 1.307 . S
C942 C939 1.402 . S
N943 Gd906 2.601 . S
N943 C944 1.359 . S
N943 C947 1.334 . S
C944 C941 1.426 . S
C944 N943 1.359 . S
C944 C948 1.413 . S
C945 H936 0.930 . S
C945 C946 1.359 . S
C945 C947 1.394 . S
C946 C945 1.359 . S
C946 C948 1.391 . S
C946 H949 0.929 . S
C947 H929 0.930 . S
C947 N943 1.334 . S
C947 C945 1.394 . S
C948 C944 1.413 . S
C948 C946 1.391 . S
C948 C963 1.437 . S
H949 C946 0.929 . S
O950 Gd906 2.545 . S
O950 C965 1.258 . S
O951 Gd906 2.606 . S
O951 Gd907 2.362 . S
O951 C962 1.284 . S
O952 Gd907 2.324 . S
O952 C972 1.254 . S
O953 Gd906 2.429 . S
O953 C972 1.268 . S
O954 Gd906 2.545 . S
O954 C962 1.250 . S
O955 Gd906 2.412 . S
O955 C965 1.252 . S
O956 Gd907 2.545 . S
O956 C974 1.258 . S
O957 Gd906 2.362 . S
O957 Gd907 2.606 . S
O957 C973 1.284 . S
O958 Gd906 2.324 . S
O958 C981 1.254 . S
O959 Gd907 2.429 . S
O959 C981 1.268 . S
O960 Gd907 2.545 . S
O960 C973 1.250 . S
O961 Gd907 2.412 . S
O961 C974 1.252 . S
C962 O951 1.284 . S
C962 O954 1.250 . S
C963 H932 0.929 . S
C963 C948 1.437 . S
C963 C964 1.317 . S
C964 H935 0.930 . S
C964 C940 1.431 . S
C964 C963 1.317 . S
C965 Gd906 2.828 . S
C965 O950 1.258 . S
C965 O955 1.252 . S
C965 C966 1.497 . S
C966 C965 1.497 . S
C966 C967 1.395 . S
C966 C968 1.380 . S
C967 C966 1.395 . S
C967 C970 1.398 . S
C967 H982 0.930 . S
C968 C966 1.380 . S
C968 C969 1.391 . S
C968 H983 0.930 . S
C969 C968 1.391 . S
C969 C971 1.387 . S
C970 C967 1.398 . S
C970 C971 1.380 . S
C970 H984 0.930 . S
C971 C969 1.387 . S
C971 C970 1.380 . S
C971 H985 0.930 . S
C972 O952 1.254 . S
C972 O953 1.268 . S
C973 O957 1.284 . S
C973 O960 1.250 . S
C974 Gd907 2.828 . S
C974 O956 1.258 . S
C974 O961 1.252 . S
C974 C975 1.497 . S
C975 C974 1.497 . S
C975 C976 1.395 . S
C975 C977 1.380 . S
C976 C975 1.395 . S
C976 C979 1.398 . S
C976 H986 0.930 . S
C977 C975 1.380 . S
C977 C978 1.391 . S
C977 H987 0.930 . S
C978 C977 1.391 . S
C978 C980 1.387 . S
C979 C976 1.398 . S
C979 C980 1.380 . S
C979 H988 0.930 . S
C980 C978 1.387 . S
C980 C979 1.380 . S
C980 H989 0.930 . S
C981 O958 1.254 . S
C981 O959 1.268 . S
H982 C967 0.930 . S
H983 C968 0.930 . S
H984 C970 0.930 . S
H985 C971 0.930 . S
H986 C976 0.930 . S
H987 C977 0.930 . S
H988 C979 0.930 . S
H989 C980 0.930 . S
C990 C991 1.363 . S
C990 C996 1.379 . S
C990 N998 1.356 . S
C991 C990 1.363 . S
C991 C997 1.363 . S
C992 C993 1.363 . S
C992 C997 1.379 . S
C992 N999 1.356 . S
C993 C992 1.363 . S
C993 C996 1.363 . S
N994 C996 1.356 1_556 S
N994 H1006 0.984 . S
N994 H1007 0.985 . S
N995 C997 1.356 . S
N995 H1000 0.984 . S
N995 H1001 0.985 . S
C996 C990 1.379 . S
C996 C993 1.363 . S
C996 N994 1.356 1_554 S
C997 C991 1.363 . S
C997 C992 1.379 . S
C997 N995 1.356 . S
N998 C990 1.356 . S
N998 H1004 1.013 . S
N998 H1005 0.984 . S
N999 C992 1.356 . S
N999 H1002 0.984 . S
N999 H1003 0.985 . S
H1000 N995 0.984 . S
H1001 N995 0.985 . S
H1002 N999 0.984 . S
H1003 N999 0.985 . S
H1004 N998 1.013 . S
H1005 N998 0.984 . S
H1006 N994 0.984 . S
H1007 N994 0.985 . S
C1008 C1009 1.363 . S
C1008 C1014 1.379 . S
C1008 N1016 1.356 . S
C1009 C1008 1.363 . S
C1009 C1015 1.363 . S
C1010 C1011 1.363 . S
C1010 C1015 1.379 . S
C1010 N1017 1.356 . S
C1011 C1010 1.363 . S
C1011 C1014 1.363 . S
N1012 C1014 1.356 . S
N1012 H1024 0.984 1_554 S
N1012 H1025 0.985 . S
N1013 C1015 1.356 . S
N1013 H1018 0.984 . S
N1013 H1019 0.985 . S
C1014 C1008 1.379 . S
C1014 C1011 1.363 . S
C1014 N1012 1.356 . S
C1015 C1009 1.363 . S
C1015 C1010 1.379 . S
C1015 N1013 1.356 . S
N1016 C1008 1.356 . S
N1016 H1022 0.984 . S
N1016 H1023 0.984 . S
N1017 C1010 1.356 . S
N1017 H1020 0.984 . S
N1017 H1021 0.985 . S
H1018 N1013 0.984 . S
H1019 N1013 0.985 . S
H1020 N1017 0.984 . S
H1021 N1017 0.985 . S
H1022 N1016 0.984 . S
H1023 N1016 0.984 . S
H1024 N1012 0.984 1_556 S
H1025 N1012 0.985 . S
C1026 C1027 1.363 . S
C1026 C1032 1.379 . S
C1026 N1034 1.356 . S
C1027 C1026 1.363 . S
C1027 C1033 1.363 . S
C1028 C1029 1.363 . S
C1028 C1033 1.379 . S
C1028 N1035 1.356 1_554 S
C1029 C1028 1.363 . S
C1029 C1032 1.363 . S
N1030 C1032 1.356 . S
N1030 H1042 0.984 . S
N1030 H1043 0.985 . S
N1031 C1033 1.356 . S
N1031 H1036 0.984 . S
N1031 H1037 0.985 1_554 S
C1032 C1026 1.379 . S
C1032 C1029 1.363 . S
C1032 N1030 1.356 . S
C1033 C1027 1.363 . S
C1033 C1028 1.379 . S
C1033 N1031 1.356 . S
N1034 C1026 1.356 . S
N1034 H1040 0.984 . S
N1034 H1041 0.984 . S
N1035 C1028 1.356 1_556 S
N1035 H1038 0.984 . S
N1035 H1039 0.985 . S
H1036 N1031 0.984 . S
H1037 N1031 0.985 1_556 S
H1038 N1035 0.984 . S
H1039 N1035 0.985 . S
H1040 N1034 0.984 . S
H1041 N1034 0.984 . S
H1042 N1030 0.984 . S
H1043 N1030 0.985 . S
C1044 C1045 1.363 . S
C1044 C1050 1.379 . S
C1044 N1052 1.356 . S
C1045 C1044 1.363 . S
C1045 C1051 1.363 . S
C1046 C1047 1.361 . S
C1046 C1051 1.377 . S
C1046 N1053 1.360 1_556 S
C1047 C1046 1.361 . S
C1047 C1050 1.363 . S
N1048 C1050 1.356 . S
N1048 H1060 0.984 . S
N1048 H1061 0.985 . S
N1049 C1051 1.352 1_554 S
N1049 H1054 0.978 1_554 S
N1049 H1055 0.995 . S
C1050 C1044 1.379 . S
C1050 C1047 1.363 . S
C1050 N1048 1.356 . S
C1051 C1045 1.363 . S
C1051 C1046 1.377 . S
C1051 N1049 1.352 1_556 S
N1052 C1044 1.356 . S
N1052 H1058 0.984 . S
N1052 H1059 0.984 . S
N1053 C1046 1.360 1_554 S
N1053 H1056 0.984 . S
N1053 H1057 0.985 . S
H1054 N1049 0.978 1_556 S
H1055 N1049 0.995 . S
H1056 N1053 0.984 . S
H1057 N1053 0.985 . S
H1058 N1052 0.984 . S
H1059 N1052 0.984 . S
H1060 N1048 0.984 . S
H1061 N1048 0.985 . S
C1062 C1063 1.363 . S
C1062 C1068 1.379 . S
C1062 N1070 1.356 . S
C1063 C1062 1.363 . S
C1063 C1069 1.363 . S
C1064 C1065 1.363 . S
C1064 C1069 1.379 . S
C1064 N1071 1.356 1_556 S
C1065 C1064 1.363 . S
C1065 C1068 1.363 . S
N1066 C1068 1.356 . S
N1066 H1078 0.984 . S
N1066 H1079 0.985 . S
N1067 C1069 1.356 . S
N1067 H1072 0.984 . S
N1067 H1073 0.985 . S
C1068 C1062 1.379 . S
C1068 C1065 1.363 . S
C1068 N1066 1.356 . S
C1069 C1063 1.363 . S
C1069 C1064 1.379 . S
C1069 N1067 1.356 . S
N1070 C1062 1.356 . S
N1070 H1076 0.984 . S
N1070 H1077 0.984 . S
N1071 C1064 1.356 1_554 S
N1071 H1074 0.984 . S
N1071 H1075 0.985 . S
H1072 N1067 0.984 . S
H1073 N1067 0.985 . S
H1074 N1071 0.984 . S
H1075 N1071 0.985 . S
H1076 N1070 0.984 . S
H1077 N1070 0.984 . S
H1078 N1066 0.984 . S
H1079 N1066 0.985 . S
C1080 C1081 1.363 . S
C1080 C1086 1.379 . S
C1080 N1088 1.356 . S
C1081 C1080 1.363 . S
C1081 C1087 1.363 . S
C1082 C1083 1.363 1_554 S
C1082 C1087 1.379 1_554 S
C1082 N1089 1.356 . S
C1083 C1082 1.363 1_556 S
C1083 C1086 1.363 . S
N1084 C1086 1.356 . S
N1084 H1096 0.984 . S
N1084 H1097 0.985 . S
N1085 C1087 1.356 1_554 S
N1085 H1090 0.984 1_554 S
N1085 H1091 0.985 . S
C1086 C1080 1.379 . S
C1086 C1083 1.363 . S
C1086 N1084 1.356 . S
C1087 C1081 1.363 . S
C1087 C1082 1.379 1_556 S
C1087 N1085 1.356 1_556 S
N1088 C1080 1.356 . S
N1088 H1094 0.984 . S
N1088 H1095 0.984 . S
N1089 C1082 1.356 . S
N1089 H1092 0.984 . S
N1089 H1093 0.985 . S
H1090 N1085 0.984 1_556 S
H1091 N1085 0.985 . S
H1092 N1089 0.984 . S
H1093 N1089 0.985 . S
H1094 N1088 0.984 . S
H1095 N1088 0.984 . S
H1096 N1084 0.984 . S
H1097 N1084 0.985 . S
C1098 C1099 1.363 . S
C1098 C1104 1.379 . S
C1098 N1106 1.356 . S
C1099 C1098 1.363 . S
C1099 C1105 1.363 . S
C1100 C1101 1.363 1_554 S
C1100 C1105 1.379 1_554 S
C1100 N1107 1.356 . S
C1101 C1100 1.363 1_556 S
C1101 C1104 1.363 . S
N1102 C1104 1.356 . S
N1102 H1114 0.984 . S
N1102 H1115 0.985 . S
N1103 C1105 1.356 1_554 S
N1103 H1108 0.984 1_554 S
N1103 H1109 0.985 . S
C1104 C1098 1.379 . S
C1104 C1101 1.363 . S
C1104 N1102 1.356 . S
C1105 C1099 1.363 . S
C1105 C1100 1.379 1_556 S
C1105 N1103 1.356 1_556 S
N1106 C1098 1.356 . S
N1106 H1112 0.984 . S
N1106 H1113 0.984 . S
N1107 C1100 1.356 . S
N1107 H1110 0.984 . S
N1107 H1111 0.985 . S
H1108 N1103 0.984 1_556 S
H1109 N1103 0.985 . S
H1110 N1107 0.984 . S
H1111 N1107 0.985 . S
H1112 N1106 0.984 . S
H1113 N1106 0.984 . S
H1114 N1102 0.984 . S
H1115 N1102 0.985 . S
C1116 C1117 1.363 . S
C1116 C1122 1.379 . S
C1116 N1124 1.356 . S
C1117 C1116 1.363 . S
C1117 C1123 1.363 . S
C1118 C1119 1.363 . S
C1118 C1123 1.379 . S
C1118 N1125 1.356 . S
C1119 C1118 1.363 . S
C1119 C1122 1.363 . S
N1120 C1122 1.356 . S
N1120 H1132 0.984 . S
N1120 H1133 0.985 . S
N1121 C1123 1.356 . S
N1121 H1126 0.984 . S
N1121 H1127 0.985 . S
C1122 C1116 1.379 . S
C1122 C1119 1.363 . S
C1122 N1120 1.356 . S
C1123 C1117 1.363 . S
C1123 C1118 1.379 . S
C1123 N1121 1.356 . S
N1124 C1116 1.356 . S
N1124 H1130 0.984 . S
N1124 H1131 0.984 . S
N1125 C1118 1.356 . S
N1125 H1128 0.984 . S
N1125 H1129 0.985 . S
H1126 N1121 0.984 . S
H1127 N1121 0.985 . S
H1128 N1125 0.984 . S
H1129 N1125 0.985 . S
H1130 N1124 0.984 . S
H1131 N1124 0.984 . S
H1132 N1120 0.984 . S
H1133 N1120 0.985 . S
C1134 C1135 1.367 1_554 S
C1134 C1140 1.378 . S
C1134 N1142 1.354 . S
C1135 C1134 1.367 1_556 S
C1135 C1141 1.363 . S
C1136 C1137 1.363 . S
C1136 C1141 1.379 . S
C1136 N1143 1.356 . S
C1137 C1136 1.363 . S
C1137 C1140 1.363 1_556 S
N1138 C1140 1.356 . S
N1138 H1150 0.984 . S
N1138 H1151 0.985 . S
N1139 C1141 1.356 . S
N1139 H1144 0.984 . S
N1139 H1145 0.985 . S
C1140 C1134 1.378 . S
C1140 C1137 1.363 1_554 S
C1140 N1138 1.356 . S
C1141 C1135 1.363 . S
C1141 C1136 1.379 . S
C1141 N1139 1.356 . S
N1142 C1134 1.354 . S
N1142 H1148 0.984 . S
N1142 H1149 0.984 . S
N1143 C1136 1.356 . S
N1143 H1146 0.984 . S
N1143 H1147 0.985 . S
H1144 N1139 0.984 . S
H1145 N1139 0.985 . S
H1146 N1143 0.984 . S
H1147 N1143 0.985 . S
H1148 N1142 0.984 . S
H1149 N1142 0.984 . S
H1150 N1138 0.984 . S
H1151 N1138 0.985 . S
C1152 C1153 1.363 . S
C1152 C1158 1.379 . S
C1152 N1160 1.356 . S
C1153 C1152 1.363 . S
C1153 C1159 1.363 . S
C1154 C1155 1.363 . S
C1154 C1159 1.379 . S
C1154 N1161 1.356 . S
C1155 C1154 1.363 . S
C1155 C1158 1.363 . S
N1156 C1158 1.356 1_556 S
N1156 H1168 0.984 . S
N1156 H1169 0.986 . S
N1157 C1159 1.356 . S
N1157 H1162 0.984 . S
N1157 H1163 0.985 . S
C1158 C1152 1.379 . S
C1158 C1155 1.363 . S
C1158 N1156 1.356 1_554 S
C1159 C1153 1.363 . S
C1159 C1154 1.379 . S
C1159 N1157 1.356 . S
N1160 C1152 1.356 . S
N1160 H1166 0.984 1_554 S
N1160 H1167 0.984 . S
N1161 C1154 1.356 . S
N1161 H1164 0.984 . S
N1161 H1165 0.985 . S
H1162 N1157 0.984 . S
H1163 N1157 0.985 . S
H1164 N1161 0.984 . S
H1165 N1161 0.985 . S
H1166 N1160 0.984 1_556 S
H1167 N1160 0.984 . S
H1168 N1156 0.984 . S
H1169 N1156 0.986 . S
C1170 C1171 1.363 . S
C1170 C1176 1.379 . S
C1170 N1178 1.356 . S
C1171 C1170 1.363 . S
C1171 C1177 1.363 . S
C1172 C1173 1.363 . S
C1172 C1177 1.379 . S
C1172 N1179 1.356 . S
C1173 C1172 1.363 . S
C1173 C1176 1.363 . S
N1174 C1176 1.356 . S
N1174 H1186 0.984 . S
N1174 H1187 0.985 . S
N1175 C1177 1.356 . S
N1175 H1180 0.984 . S
N1175 H1181 0.985 . S
C1176 C1170 1.379 . S
C1176 C1173 1.363 . S
C1176 N1174 1.356 . S
C1177 C1171 1.363 . S
C1177 C1172 1.379 . S
C1177 N1175 1.356 . S
N1178 C1170 1.356 . S
N1178 H1184 0.984 . S
N1178 H1185 0.984 . S
N1179 C1172 1.356 . S
N1179 H1182 0.984 . S
N1179 H1183 0.985 . S
H1180 N1175 0.984 . S
H1181 N1175 0.985 . S
H1182 N1179 0.984 . S
H1183 N1179 0.985 . S
H1184 N1178 0.984 . S
H1185 N1178 0.984 . S
H1186 N1174 0.984 . S
H1187 N1174 0.985 . S
C1188 C1189 1.363 . S
C1188 C1194 1.379 . S
C1188 N1196 1.356 . S
C1189 C1188 1.363 . S
C1189 C1195 1.363 . S
C1190 C1191 1.363 . S
C1190 C1195 1.379 . S
C1190 N1197 1.356 1_554 S
C1191 C1190 1.363 . S
C1191 C1194 1.363 . S
N1192 C1194 1.356 . S
N1192 H1204 0.984 . S
N1192 H1205 0.985 . S
N1193 C1195 1.356 . S
N1193 H1198 0.984 . S
N1193 H1199 0.985 1_554 S
C1194 C1188 1.379 . S
C1194 C1191 1.363 . S
C1194 N1192 1.356 . S
C1195 C1189 1.363 . S
C1195 C1190 1.379 . S
C1195 N1193 1.356 . S
N1196 C1188 1.356 . S
N1196 H1202 0.984 . S
N1196 H1203 0.984 . S
N1197 C1190 1.356 1_556 S
N1197 H1200 0.984 . S
N1197 H1201 0.985 . S
H1198 N1193 0.984 . S
H1199 N1193 0.985 1_556 S
H1200 N1197 0.984 . S
H1201 N1197 0.985 . S
H1202 N1196 0.984 . S
H1203 N1196 0.984 . S
H1204 N1192 0.984 . S
H1205 N1192 0.985 . S
C1206 C1207 1.363 . S
C1206 C1212 1.379 1_655 S
C1206 N1214 1.356 . S
C1207 C1206 1.363 . S
C1207 C1213 1.363 . S
C1208 C1209 1.363 . S
C1208 C1213 1.379 1_455 S
C1208 N1215 1.356 . S
C1209 C1208 1.363 . S
C1209 C1212 1.363 . S
N1210 C1212 1.356 . S
N1210 H1222 0.984 . S
N1210 H1223 0.985 . S
N1211 C1213 1.356 . S
N1211 H1216 0.984 . S
N1211 H1217 0.985 . S
C1212 C1206 1.379 1_455 S
C1212 C1209 1.363 . S
C1212 N1210 1.356 . S
C1213 C1207 1.363 . S
C1213 C1208 1.379 1_655 S
C1213 N1211 1.356 . S
N1214 C1206 1.356 . S
N1214 H1220 0.984 . S
N1214 H1221 0.984 . S
N1215 C1208 1.356 . S
N1215 H1218 0.984 . S
N1215 H1219 0.985 . S
H1216 N1211 0.984 . S
H1217 N1211 0.985 . S
H1218 N1215 0.984 . S
H1219 N1215 0.985 . S
H1220 N1214 0.984 . S
H1221 N1214 0.984 . S
H1222 N1210 0.984 . S
H1223 N1210 0.985 . S
C1224 C1225 1.363 . S
C1224 C1230 1.379 . S
C1224 N1232 1.356 . S
C1225 C1224 1.363 . S
C1225 C1231 1.363 . S
C1226 C1227 1.363 . S
C1226 C1231 1.379 . S
C1226 N1233 1.356 . S
C1227 C1226 1.363 . S
C1227 C1230 1.363 . S
N1228 C1230 1.356 . S
N1228 H1240 0.984 . S
N1228 H1241 0.985 . S
N1229 C1231 1.356 . S
N1229 H1234 0.984 . S
N1229 H1235 0.985 . S
C1230 C1224 1.379 . S
C1230 C1227 1.363 . S
C1230 N1228 1.356 . S
C1231 C1225 1.363 . S
C1231 C1226 1.379 . S
C1231 N1229 1.356 . S
N1232 C1224 1.356 . S
N1232 H1238 0.984 . S
N1232 H1239 0.984 . S
N1233 C1226 1.356 . S
N1233 H1236 0.984 . S
N1233 H1237 0.985 . S
H1234 N1229 0.984 . S
H1235 N1229 0.985 . S
H1236 N1233 0.984 . S
H1237 N1233 0.985 . S
H1238 N1232 0.984 . S
H1239 N1232 0.984 . S
H1240 N1228 0.984 . S
H1241 N1228 0.985 . S
C1242 C1243 1.363 . S
C1242 C1248 1.379 1_545 S
C1242 N1250 1.356 . S
C1243 C1242 1.363 . S
C1243 C1249 1.363 . S
C1244 C1245 1.363 . S
C1244 C1249 1.379 1_565 S
C1244 N1251 1.356 . S
C1245 C1244 1.363 . S
C1245 C1248 1.363 . S
N1246 C1248 1.356 . S
N1246 H1258 0.984 . S
N1246 H1259 0.985 . S
N1247 C1249 1.356 . S
N1247 H1252 0.984 . S
N1247 H1253 0.985 . S
C1248 C1242 1.379 1_565 S
C1248 C1245 1.363 . S
C1248 N1246 1.356 . S
C1249 C1243 1.363 . S
C1249 C1244 1.379 1_545 S
C1249 N1247 1.356 . S
N1250 C1242 1.356 . S
N1250 H1256 0.984 . S
N1250 H1257 0.984 . S
N1251 C1244 1.356 . S
N1251 H1254 0.984 . S
N1251 H1255 0.985 . S
H1252 N1247 0.984 . S
H1253 N1247 0.985 . S
H1254 N1251 0.984 . S
H1255 N1251 0.985 . S
H1256 N1250 0.984 . S
H1257 N1250 0.984 . S
H1258 N1246 0.984 . S
H1259 N1246 0.985 . S
C1260 C1261 1.363 . S
C1260 C1266 1.379 . S
C1260 N1268 1.356 . S
C1261 C1260 1.363 . S
C1261 C1267 1.363 . S
C1262 C1263 1.363 . S
C1262 C1267 1.379 . S
C1262 N1269 1.356 . S
C1263 C1262 1.363 . S
C1263 C1266 1.363 . S
N1264 C1266 1.356 . S
N1264 H1276 0.984 . S
N1264 H1277 0.985 . S
N1265 C1267 1.356 . S
N1265 H1270 0.984 . S
N1265 H1271 0.985 . S
C1266 C1260 1.379 . S
C1266 C1263 1.363 . S
C1266 N1264 1.356 . S
C1267 C1261 1.363 . S
C1267 C1262 1.379 . S
C1267 N1265 1.356 . S
N1268 C1260 1.356 . S
N1268 H1274 0.984 . S
N1268 H1275 0.984 . S
N1269 C1262 1.356 . S
N1269 H1272 0.984 . S
N1269 H1273 0.985 . S
H1270 N1265 0.984 . S
H1271 N1265 0.985 . S
H1272 N1269 0.984 . S
H1273 N1269 0.985 . S
H1274 N1268 0.984 . S
H1275 N1268 0.984 . S
H1276 N1264 0.984 . S
H1277 N1264 0.985 . S
C1278 C1279 1.363 . S
C1278 C1284 1.379 . S
C1278 N1286 1.356 . S
C1279 C1278 1.363 . S
C1279 C1285 1.363 . S
C1280 C1281 1.363 . S
C1280 C1285 1.379 . S
C1280 N1287 1.356 . S
C1281 C1280 1.363 . S
C1281 C1284 1.363 . S
N1282 C1284 1.356 . S
N1282 H1294 0.984 . S
N1282 H1295 0.985 . S
N1283 C1285 1.356 . S
N1283 H1288 0.984 . S
N1283 H1289 0.985 . S
C1284 C1278 1.379 . S
C1284 C1281 1.363 . S
C1284 N1282 1.356 . S
C1285 C1279 1.363 . S
C1285 C1280 1.379 . S
C1285 N1283 1.356 . S
N1286 C1278 1.356 . S
N1286 H1292 0.984 . S
N1286 H1293 0.984 . S
N1287 C1280 1.356 . S
N1287 H1290 0.984 . S
N1287 H1291 0.985 . S
H1288 N1283 0.984 . S
H1289 N1283 0.985 . S
H1290 N1287 0.984 . S
H1291 N1287 0.985 . S
H1292 N1286 0.984 . S
H1293 N1286 0.984 . S
H1294 N1282 0.984 . S
H1295 N1282 0.985 . S
C1296 C1297 1.363 . S
C1296 C1302 1.379 . S
C1296 N1304 1.356 . S
C1297 C1296 1.363 . S
C1297 C1303 1.363 . S
C1298 C1299 1.363 . S
C1298 C1303 1.379 . S
C1298 N1305 1.356 . S
C1299 C1298 1.363 . S
C1299 C1302 1.363 . S
N1300 C1302 1.356 . S
N1300 H1312 0.984 . S
N1300 H1313 0.985 . S
N1301 C1303 1.356 . S
N1301 H1306 0.984 . S
N1301 H1307 0.985 . S
C1302 C1296 1.379 . S
C1302 C1299 1.363 . S
C1302 N1300 1.356 . S
C1303 C1297 1.363 . S
C1303 C1298 1.379 . S
C1303 N1301 1.356 . S
N1304 C1296 1.356 . S
N1304 H1310 0.984 . S
N1304 H1311 0.984 . S
N1305 C1298 1.356 . S
N1305 H1308 0.984 . S
N1305 H1309 0.985 . S
H1306 N1301 0.984 . S
H1307 N1301 0.985 . S
H1308 N1305 0.984 . S
H1309 N1305 0.985 . S
H1310 N1304 0.984 . S
H1311 N1304 0.984 . S
H1312 N1300 0.984 . S
H1313 N1300 0.985 . S
C1314 C1315 1.363 . S
C1314 C1320 1.379 . S
C1314 N1322 1.356 . S
C1315 C1314 1.363 . S
C1315 C1321 1.363 . S
C1316 C1317 1.363 . S
C1316 C1321 1.379 . S
C1316 N1323 1.356 . S
C1317 C1316 1.363 . S
C1317 C1320 1.363 . S
N1318 C1320 1.356 . S
N1318 H1330 0.984 . S
N1318 H1331 0.985 . S
N1319 C1321 1.356 . S
N1319 H1324 0.984 . S
N1319 H1325 0.985 . S
C1320 C1314 1.379 . S
C1320 C1317 1.363 . S
C1320 N1318 1.356 . S
C1321 C1315 1.363 . S
C1321 C1316 1.379 . S
C1321 N1319 1.356 . S
N1322 C1314 1.356 . S
N1322 H1328 0.984 . S
N1322 H1329 0.984 . S
N1323 C1316 1.356 . S
N1323 H1326 0.984 . S
N1323 H1327 0.985 . S
H1324 N1319 0.984 . S
H1325 N1319 0.985 . S
H1326 N1323 0.984 . S
H1327 N1323 0.985 . S
H1328 N1322 0.984 . S
H1329 N1322 0.984 . S
H1330 N1318 0.984 . S
H1331 N1318 0.985 . S
C1332 C1333 1.363 . S
C1332 C1338 1.379 . S
C1332 N1340 1.356 . S
C1333 C1332 1.363 . S
C1333 C1339 1.363 . S
C1334 C1335 1.363 . S
C1334 C1339 1.379 . S
C1334 N1341 1.356 . S
C1335 C1334 1.363 . S
C1335 C1338 1.363 . S
N1336 C1338 1.356 . S
N1336 H1348 0.984 . S
N1336 H1349 0.985 . S
N1337 C1339 1.356 . S
N1337 H1342 0.984 . S
N1337 H1343 0.985 . S
C1338 C1332 1.379 . S
C1338 C1335 1.363 . S
C1338 N1336 1.356 . S
C1339 C1333 1.363 . S
C1339 C1334 1.379 . S
C1339 N1337 1.356 . S
N1340 C1332 1.356 . S
N1340 H1346 0.984 . S
N1340 H1347 0.984 . S
N1341 C1334 1.356 . S
N1341 H1344 0.984 . S
N1341 H1345 0.985 . S
H1342 N1337 0.984 . S
H1343 N1337 0.985 . S
H1344 N1341 0.984 . S
H1345 N1341 0.985 . S
H1346 N1340 0.984 . S
H1347 N1340 0.984 . S
H1348 N1336 0.984 . S
H1349 N1336 0.985 . S
C1350 C1351 1.363 . S
C1350 C1356 1.379 . S
C1350 N1358 1.356 . S
C1351 C1350 1.363 . S
C1351 C1357 1.363 . S
C1352 C1353 1.363 . S
C1352 C1357 1.379 . S
C1352 N1359 1.356 . S
C1353 C1352 1.363 . S
C1353 C1356 1.363 . S
N1354 C1356 1.356 . S
N1354 H1366 0.984 . S
N1354 H1367 0.985 . S
N1355 C1357 1.356 . S
N1355 H1360 0.984 . S
N1355 H1361 0.985 . S
C1356 C1350 1.379 . S
C1356 C1353 1.363 . S
C1356 N1354 1.356 . S
C1357 C1351 1.363 . S
C1357 C1352 1.379 . S
C1357 N1355 1.356 . S
N1358 C1350 1.356 . S
N1358 H1364 0.984 . S
N1358 H1365 0.984 . S
N1359 C1352 1.356 . S
N1359 H1362 0.984 . S
N1359 H1363 0.985 . S
H1360 N1355 0.984 . S
H1361 N1355 0.985 . S
H1362 N1359 0.984 . S
H1363 N1359 0.985 . S
H1364 N1358 0.984 . S
H1365 N1358 0.984 . S
H1366 N1354 0.984 . S
H1367 N1354 0.985 . S
C1368 C1369 1.363 . S
C1368 C1374 1.379 . S
C1368 N1376 1.356 1_565 S
C1369 C1368 1.363 . S
C1369 C1375 1.363 . S
C1370 C1371 1.363 . S
C1370 C1375 1.379 . S
C1370 N1377 1.356 . S
C1371 C1370 1.363 . S
C1371 C1374 1.363 . S
N1372 C1374 1.356 . S
N1372 H1384 0.984 . S
N1372 H1385 0.985 . S
N1373 C1375 1.356 . S
N1373 H1378 0.984 1_565 S
N1373 H1379 0.985 . S
C1374 C1368 1.379 . S
C1374 C1371 1.363 . S
C1374 N1372 1.356 . S
C1375 C1369 1.363 . S
C1375 C1370 1.379 . S
C1375 N1373 1.356 . S
N1376 C1368 1.356 1_545 S
N1376 H1382 0.984 . S
N1376 H1383 0.984 . S
N1377 C1370 1.356 . S
N1377 H1380 0.984 . S
N1377 H1381 0.985 . S
H1378 N1373 0.984 1_545 S
H1379 N1373 0.985 . S
H1380 N1377 0.984 . S
H1381 N1377 0.985 . S
H1382 N1376 0.984 . S
H1383 N1376 0.984 . S
H1384 N1372 0.984 . S
H1385 N1372 0.985 . S
C1386 C1387 1.363 . S
C1386 C1392 1.379 . S
C1386 N1394 1.356 . S
C1387 C1386 1.363 . S
C1387 C1393 1.363 . S
C1388 C1389 1.363 . S
C1388 C1393 1.379 . S
C1388 N1395 1.356 . S
C1389 C1388 1.363 . S
C1389 C1392 1.363 . S
N1390 C1392 1.356 . S
N1390 H1402 0.984 . S
N1390 H1403 0.985 . S
N1391 C1393 1.356 . S
N1391 H1396 0.984 . S
N1391 H1397 0.985 . S
C1392 C1386 1.379 . S
C1392 C1389 1.363 . S
C1392 N1390 1.356 . S
C1393 C1387 1.363 . S
C1393 C1388 1.379 . S
C1393 N1391 1.356 . S
N1394 C1386 1.356 . S
N1394 H1400 0.984 . S
N1394 H1401 0.984 1_455 S
N1395 C1388 1.356 . S
N1395 H1398 0.984 . S
N1395 H1399 0.985 . S
H1396 N1391 0.984 . S
H1397 N1391 0.985 . S
H1398 N1395 0.984 . S
H1399 N1395 0.985 . S
H1400 N1394 0.984 . S
H1401 N1394 0.984 1_655 S
H1402 N1390 0.984 . S
H1403 N1390 0.985 . S
C1404 C1405 1.363 . S
C1404 C1410 1.379 . S
C1404 N1412 1.356 . S
C1405 C1404 1.363 . S
C1405 C1411 1.363 . S
C1406 C1407 1.363 . S
C1406 C1411 1.379 . S
C1406 N1413 1.356 . S
C1407 C1406 1.363 . S
C1407 C1410 1.363 . S
N1408 C1410 1.356 . S
N1408 H1420 0.984 . S
N1408 H1421 0.985 . S
N1409 C1411 1.356 . S
N1409 H1414 0.984 . S
N1409 H1415 0.985 . S
C1410 C1404 1.379 . S
C1410 C1407 1.363 . S
C1410 N1408 1.356 . S
C1411 C1405 1.363 . S
C1411 C1406 1.379 . S
C1411 N1409 1.356 . S
N1412 C1404 1.356 . S
N1412 H1418 0.984 . S
N1412 H1419 0.984 . S
N1413 C1406 1.356 . S
N1413 H1416 0.984 . S
N1413 H1417 0.985 . S
H1414 N1409 0.984 . S
H1415 N1409 0.985 . S
H1416 N1413 0.984 . S
H1417 N1413 0.985 . S
H1418 N1412 0.984 . S
H1419 N1412 0.984 . S
H1420 N1408 0.984 . S
H1421 N1408 0.985 . S
C1422 C1423 1.363 . S
C1422 C1428 1.379 . S
C1422 N1430 1.356 . S
C1423 C1422 1.363 . S
C1423 C1429 1.363 . S
C1424 C1425 1.363 . S
C1424 C1429 1.379 . S
C1424 N1431 1.356 . S
C1425 C1424 1.363 . S
C1425 C1428 1.363 . S
N1426 C1428 1.356 . S
N1426 H1438 0.984 . S
N1426 H1439 0.985 . S
N1427 C1429 1.356 . S
N1427 H1432 0.984 . S
N1427 H1433 0.985 . S
C1428 C1422 1.379 . S
C1428 C1425 1.363 . S
C1428 N1426 1.356 . S
C1429 C1423 1.363 . S
C1429 C1424 1.379 . S
C1429 N1427 1.356 . S
N1430 C1422 1.356 . S
N1430 H1436 0.984 . S
N1430 H1437 0.984 . S
N1431 C1424 1.356 . S
N1431 H1434 0.984 . S
N1431 H1435 0.985 . S
H1432 N1427 0.984 . S
H1433 N1427 0.985 . S
H1434 N1431 0.984 . S
H1435 N1431 0.985 . S
H1436 N1430 0.984 . S
H1437 N1430 0.984 . S
H1438 N1426 0.984 . S
H1439 N1426 0.985 . S
C1440 C1441 1.363 . S
C1440 C1446 1.379 . S
C1440 N1448 1.356 . S
C1441 C1440 1.363 . S
C1441 C1447 1.363 . S
C1442 C1443 1.363 . S
C1442 C1447 1.379 . S
C1442 N1449 1.356 . S
C1443 C1442 1.363 . S
C1443 C1446 1.363 . S
N1444 C1446 1.356 . S
N1444 H1456 0.984 . S
N1444 H1457 0.985 . S
N1445 C1447 1.356 . S
N1445 H1450 0.984 . S
N1445 H1451 0.985 . S
C1446 C1440 1.379 . S
C1446 C1443 1.363 . S
C1446 N1444 1.356 . S
C1447 C1441 1.363 . S
C1447 C1442 1.379 . S
C1447 N1445 1.356 . S
N1448 C1440 1.356 . S
N1448 H1454 0.984 . S
N1448 H1455 0.984 . S
N1449 C1442 1.356 . S
N1449 H1452 0.984 . S
N1449 H1453 0.985 . S
H1450 N1445 0.984 . S
H1451 N1445 0.985 . S
H1452 N1449 0.984 . S
H1453 N1449 0.985 . S
H1454 N1448 0.984 . S
H1455 N1448 0.984 . S
H1456 N1444 0.984 . S
H1457 N1444 0.985 . S
C1458 C1459 1.363 . S
C1458 C1464 1.379 . S
C1458 N1466 1.356 . S
C1459 C1458 1.363 . S
C1459 C1465 1.363 . S
C1460 C1461 1.363 . S
C1460 C1465 1.379 . S
C1460 N1467 1.356 . S
C1461 C1460 1.363 . S
C1461 C1464 1.363 . S
N1462 C1464 1.356 . S
N1462 H1474 0.984 . S
N1462 H1475 0.985 . S
N1463 C1465 1.356 . S
N1463 H1468 0.984 . S
N1463 H1469 0.985 . S
C1464 C1458 1.379 . S
C1464 C1461 1.363 . S
C1464 N1462 1.356 . S
C1465 C1459 1.363 . S
C1465 C1460 1.379 . S
C1465 N1463 1.356 . S
N1466 C1458 1.356 . S
N1466 H1472 0.984 . S
N1466 H1473 0.984 . S
N1467 C1460 1.356 . S
N1467 H1470 0.984 . S
N1467 H1471 0.985 . S
H1468 N1463 0.984 . S
H1469 N1463 0.985 . S
H1470 N1467 0.984 . S
H1471 N1467 0.985 . S
H1472 N1466 0.984 . S
H1473 N1466 0.984 . S
H1474 N1462 0.984 . S
H1475 N1462 0.985 . S
C1476 C1477 1.363 1_545 S
C1476 C1482 1.379 . S
C1476 N1484 1.356 1_545 S
C1477 C1476 1.363 1_565 S
C1477 C1483 1.363 . S
C1478 C1479 1.363 1_565 S
C1478 C1483 1.379 . S
C1478 N1485 1.356 1_565 S
C1479 C1478 1.363 1_545 S
C1479 C1482 1.363 . S
N1480 C1482 1.356 . S
N1480 H1492 0.984 . S
N1480 H1493 0.985 . S
N1481 C1483 1.356 . S
N1481 H1486 0.984 . S
N1481 H1487 0.985 . S
C1482 C1476 1.379 . S
C1482 C1479 1.363 . S
C1482 N1480 1.356 . S
C1483 C1477 1.363 . S
C1483 C1478 1.379 . S
C1483 N1481 1.356 . S
N1484 C1476 1.356 1_565 S
N1484 H1490 0.984 1_565 S
N1484 H1491 0.984 . S
N1485 C1478 1.356 1_545 S
N1485 H1488 0.984 . S
N1485 H1489 0.985 1_545 S
H1486 N1481 0.984 . S
H1487 N1481 0.985 . S
H1488 N1485 0.984 . S
H1489 N1485 0.985 1_565 S
H1490 N1484 0.984 1_545 S
H1491 N1484 0.984 . S
H1492 N1480 0.984 . S
H1493 N1480 0.985 . S
C1494 C1495 1.363 . S
C1494 C1500 1.379 . S
C1494 N1502 1.356 . S
C1495 C1494 1.363 . S
C1495 C1501 1.363 1_455 S
C1496 C1497 1.363 . S
C1496 C1501 1.379 . S
C1496 N1503 1.356 . S
C1497 C1496 1.363 . S
C1497 C1500 1.363 1_655 S
N1498 C1500 1.377 . S
N1498 H1510 0.999 . S
N1498 H1511 0.951 1_455 S
N1499 C1501 1.347 1_455 S
N1499 H1504 1.000 . S
N1499 H1505 0.978 1_455 S
C1500 C1494 1.379 . S
C1500 C1497 1.363 1_455 S
C1500 N1498 1.377 . S
C1501 C1495 1.363 1_655 S
C1501 C1496 1.379 . S
C1501 N1499 1.347 1_655 S
N1502 C1494 1.356 . S
N1502 H1508 0.984 . S
N1502 H1509 0.984 . S
N1503 C1496 1.356 . S
N1503 H1506 0.984 . S
N1503 H1507 0.985 . S
H1504 N1499 1.000 . S
H1505 N1499 0.978 1_655 S
H1506 N1503 0.984 . S
H1507 N1503 0.985 . S
H1508 N1502 0.984 . S
H1509 N1502 0.984 . S
H1510 N1498 0.999 . S
H1511 N1498 0.951 1_655 S
C1512 C1513 1.363 . S
C1512 C1518 1.379 . S
C1512 N1520 1.356 . S
C1513 C1512 1.363 . S
C1513 C1519 1.363 . S
C1514 C1515 1.363 . S
C1514 C1519 1.379 . S
C1514 N1521 1.356 . S
C1515 C1514 1.363 . S
C1515 C1518 1.363 . S
N1516 C1518 1.356 . S
N1516 H1528 0.984 . S
N1516 H1529 0.985 . S
N1517 C1519 1.356 . S
N1517 H1522 0.984 . S
N1517 H1523 0.985 . S
C1518 C1512 1.379 . S
C1518 C1515 1.363 . S
C1518 N1516 1.356 . S
C1519 C1513 1.363 . S
C1519 C1514 1.379 . S
C1519 N1517 1.356 . S
N1520 C1512 1.356 . S
N1520 H1526 0.984 . S
N1520 H1527 0.984 . S
N1521 C1514 1.356 . S
N1521 H1524 0.984 . S
N1521 H1525 0.985 . S
H1522 N1517 0.984 . S
H1523 N1517 0.985 . S
H1524 N1521 0.984 . S
H1525 N1521 0.985 . S
H1526 N1520 0.984 . S
H1527 N1520 0.984 . S
H1528 N1516 0.984 . S
H1529 N1516 0.985 . S
C1530 C1531 1.363 . S
C1530 C1536 1.379 . S
C1530 N1538 1.356 . S
C1531 C1530 1.363 . S
C1531 C1537 1.363 . S
C1532 C1533 1.363 . S
C1532 C1537 1.379 . S
C1532 N1539 1.356 . S
C1533 C1532 1.363 . S
C1533 C1536 1.363 . S
N1534 C1536 1.356 . S
N1534 H1546 0.984 . S
N1534 H1547 0.985 . S
N1535 C1537 1.356 1_455 S
N1535 H1540 0.984 . S
N1535 H1541 0.985 . S
C1536 C1530 1.379 . S
C1536 C1533 1.363 . S
C1536 N1534 1.356 . S
C1537 C1531 1.363 . S
C1537 C1532 1.379 . S
C1537 N1535 1.356 1_655 S
N1538 C1530 1.356 . S
N1538 H1544 0.984 . S
N1538 H1545 0.982 . S
N1539 C1532 1.356 . S
N1539 H1542 0.984 . S
N1539 H1543 0.985 . S
H1540 N1535 0.984 . S
H1541 N1535 0.985 . S
H1542 N1539 0.984 . S
H1543 N1539 0.985 . S
H1544 N1538 0.984 . S
H1545 N1538 0.982 . S
H1546 N1534 0.984 . S
H1547 N1534 0.985 . S
C1548 C1549 1.363 . S
C1548 C1554 1.379 . S
C1548 N1556 1.356 . S
C1549 C1548 1.363 . S
C1549 C1555 1.363 . S
C1550 C1551 1.363 . S
C1550 C1555 1.379 . S
C1550 N1557 1.356 . S
C1551 C1550 1.363 . S
C1551 C1554 1.363 . S
N1552 C1554 1.356 . S
N1552 H1564 0.984 . S
N1552 H1565 0.985 . S
N1553 C1555 1.356 . S
N1553 H1558 0.984 . S
N1553 H1559 0.985 . S
C1554 C1548 1.379 . S
C1554 C1551 1.363 . S
C1554 N1552 1.356 . S
C1555 C1549 1.363 . S
C1555 C1550 1.379 . S
C1555 N1553 1.356 . S
N1556 C1548 1.356 . S
N1556 H1562 0.984 . S
N1556 H1563 0.984 . S
N1557 C1550 1.356 . S
N1557 H1560 0.984 . S
N1557 H1561 0.985 . S
H1558 N1553 0.984 . S
H1559 N1553 0.985 . S
H1560 N1557 0.984 . S
H1561 N1557 0.985 . S
H1562 N1556 0.984 . S
H1563 N1556 0.984 . S
H1564 N1552 0.984 . S
H1565 N1552 0.985 . S
C1566 C1567 1.363 . S
C1566 C1572 1.379 . S
C1566 N1574 1.356 1_545 S
C1567 C1566 1.363 . S
C1567 C1573 1.363 . S
C1568 C1569 1.363 . S
C1568 C1573 1.379 . S
C1568 N1575 1.356 . S
C1569 C1568 1.363 . S
C1569 C1572 1.363 . S
N1570 C1572 1.356 . S
N1570 H1582 0.984 . S
N1570 H1583 0.985 . S
N1571 C1573 1.356 . S
N1571 H1576 0.984 1_545 S
N1571 H1577 0.985 . S
C1572 C1566 1.379 . S
C1572 C1569 1.363 . S
C1572 N1570 1.356 . S
C1573 C1567 1.363 . S
C1573 C1568 1.379 . S
C1573 N1571 1.356 . S
N1574 C1566 1.356 1_565 S
N1574 H1580 0.984 . S
N1574 H1581 0.984 . S
N1575 C1568 1.356 . S
N1575 H1578 0.984 . S
N1575 H1579 0.985 . S
H1576 N1571 0.984 1_565 S
H1577 N1571 0.985 . S
H1578 N1575 0.984 . S
H1579 N1575 0.985 . S
H1580 N1574 0.984 . S
H1581 N1574 0.984 . S
H1582 N1570 0.984 . S
H1583 N1570 0.985 . S
C1584 C1585 1.363 . S
C1584 C1590 1.379 . S
C1584 N1592 1.356 . S
C1585 C1584 1.363 . S
C1585 C1591 1.363 . S
C1586 C1587 1.363 . S
C1586 C1591 1.379 . S
C1586 N1593 1.356 . S
C1587 C1586 1.363 . S
C1587 C1590 1.363 . S
N1588 C1590 1.356 . S
N1588 H1600 0.984 . S
N1588 H1601 0.985 . S
N1589 C1591 1.356 . S
N1589 H1594 0.984 . S
N1589 H1595 0.985 . S
C1590 C1584 1.379 . S
C1590 C1587 1.363 . S
C1590 N1588 1.356 . S
C1591 C1585 1.363 . S
C1591 C1586 1.379 . S
C1591 N1589 1.356 . S
N1592 C1584 1.356 . S
N1592 H1598 0.984 . S
N1592 H1599 0.984 . S
N1593 C1586 1.356 . S
N1593 H1596 0.984 . S
N1593 H1597 0.985 . S
H1594 N1589 0.984 . S
H1595 N1589 0.985 . S
H1596 N1593 0.984 . S
H1597 N1593 0.985 . S
H1598 N1592 0.984 . S
H1599 N1592 0.984 . S
H1600 N1588 0.984 . S
H1601 N1588 0.985 . S
C1602 C1603 1.363 . S
C1602 C1608 1.379 . S
C1602 N1610 1.356 . S
C1603 C1602 1.363 . S
C1603 C1609 1.363 . S
C1604 C1605 1.363 . S
C1604 C1609 1.379 . S
C1604 N1611 1.356 . S
C1605 C1604 1.363 . S
C1605 C1608 1.363 . S
N1606 C1608 1.356 . S
N1606 H1618 0.984 . S
N1606 H1619 0.985 . S
N1607 C1609 1.356 . S
N1607 H1612 0.984 . S
N1607 H1613 0.985 . S
C1608 C1602 1.379 . S
C1608 C1605 1.363 . S
C1608 N1606 1.356 . S
C1609 C1603 1.363 . S
C1609 C1604 1.379 . S
C1609 N1607 1.356 . S
N1610 C1602 1.356 . S
N1610 H1616 0.984 . S
N1610 H1617 0.984 . S
N1611 C1604 1.356 . S
N1611 H1614 0.984 . S
N1611 H1615 0.985 . S
H1612 N1607 0.984 . S
H1613 N1607 0.985 . S
H1614 N1611 0.984 . S
H1615 N1611 0.985 . S
H1616 N1610 0.984 . S
H1617 N1610 0.984 . S
H1618 N1606 0.984 . S
H1619 N1606 0.985 . S
C1620 C1621 1.363 . S
C1620 C1626 1.379 . S
C1620 N1628 1.356 . S
C1621 C1620 1.363 . S
C1621 C1627 1.363 . S
C1622 C1623 1.363 . S
C1622 C1627 1.379 . S
C1622 N1629 1.356 . S
C1623 C1622 1.363 . S
C1623 C1626 1.363 . S
N1624 C1626 1.356 . S
N1624 H1636 0.984 . S
N1624 H1637 0.985 . S
N1625 C1627 1.356 . S
N1625 H1630 0.984 . S
N1625 H1631 0.985 . S
C1626 C1620 1.379 . S
C1626 C1623 1.363 . S
C1626 N1624 1.356 . S
C1627 C1621 1.363 . S
C1627 C1622 1.379 . S
C1627 N1625 1.356 . S
N1628 C1620 1.356 . S
N1628 H1634 0.984 . S
N1628 H1635 0.984 . S
N1629 C1622 1.356 . S
N1629 H1632 0.984 . S
N1629 H1633 0.985 . S
H1630 N1625 0.984 . S
H1631 N1625 0.985 . S
H1632 N1629 0.984 . S
H1633 N1629 0.985 . S
H1634 N1628 0.984 . S
H1635 N1628 0.984 . S
H1636 N1624 0.984 . S
H1637 N1624 0.985 . S
C1638 C1639 1.363 . S
C1638 C1644 1.379 . S
C1638 N1646 1.356 . S
C1639 C1638 1.363 . S
C1639 C1645 1.363 . S
C1640 C1641 1.363 . S
C1640 C1645 1.379 . S
C1640 N1647 1.356 . S
C1641 C1640 1.363 . S
C1641 C1644 1.363 . S
N1642 C1644 1.356 . S
N1642 H1654 0.984 . S
N1642 H1655 0.985 . S
N1643 C1645 1.356 . S
N1643 H1648 0.984 . S
N1643 H1649 0.985 . S
C1644 C1638 1.379 . S
C1644 C1641 1.363 . S
C1644 N1642 1.356 . S
C1645 C1639 1.363 . S
C1645 C1640 1.379 . S
C1645 N1643 1.356 . S
N1646 C1638 1.356 . S
N1646 H1652 0.984 . S
N1646 H1653 0.984 . S
N1647 C1640 1.356 . S
N1647 H1650 0.984 . S
N1647 H1651 0.985 . S
H1648 N1643 0.984 . S
H1649 N1643 0.985 . S
H1650 N1647 0.984 . S
H1651 N1647 0.985 . S
H1652 N1646 0.984 . S
H1653 N1646 0.984 . S
H1654 N1642 0.984 . S
H1655 N1642 0.985 . S
C1656 C1657 1.363 . S
C1656 C1662 1.379 . S
C1656 N1664 1.356 . S
C1657 C1656 1.363 . S
C1657 C1663 1.363 . S
C1658 C1659 1.363 . S
C1658 C1663 1.379 . S
C1658 N1665 1.356 . S
C1659 C1658 1.363 . S
C1659 C1662 1.363 . S
N1660 C1662 1.356 . S
N1660 H1672 0.984 . S
N1660 H1673 0.985 . S
N1661 C1663 1.356 . S
N1661 H1666 0.984 . S
N1661 H1667 0.985 . S
C1662 C1656 1.379 . S
C1662 C1659 1.363 . S
C1662 N1660 1.356 . S
C1663 C1657 1.363 . S
C1663 C1658 1.379 . S
C1663 N1661 1.356 . S
N1664 C1656 1.356 . S
N1664 H1670 0.984 . S
N1664 H1671 0.984 . S
N1665 C1658 1.356 . S
N1665 H1668 0.984 . S
N1665 H1669 0.985 . S
H1666 N1661 0.984 . S
H1667 N1661 0.985 . S
H1668 N1665 0.984 . S
H1669 N1665 0.985 . S
H1670 N1664 0.984 . S
H1671 N1664 0.984 . S
H1672 N1660 0.984 . S
H1673 N1660 0.985 . S
C1674 C1675 1.363 . S
C1674 C1680 1.379 . S
C1674 N1682 1.356 . S
C1675 C1674 1.363 . S
C1675 C1681 1.363 . S
C1676 C1677 1.363 . S
C1676 C1681 1.379 . S
C1676 N1683 1.356 . S
C1677 C1676 1.363 . S
C1677 C1680 1.363 . S
N1678 C1680 1.356 . S
N1678 H1690 0.984 . S
N1678 H1691 0.985 . S
N1679 C1681 1.356 . S
N1679 H1684 0.984 . S
N1679 H1685 0.985 . S
C1680 C1674 1.379 . S
C1680 C1677 1.363 . S
C1680 N1678 1.356 . S
C1681 C1675 1.363 . S
C1681 C1676 1.379 . S
C1681 N1679 1.356 . S
N1682 C1674 1.356 . S
N1682 H1688 0.984 . S
N1682 H1689 0.984 . S
N1683 C1676 1.356 . S
N1683 H1686 0.984 . S
N1683 H1687 0.985 . S
H1684 N1679 0.984 . S
H1685 N1679 0.985 . S
H1686 N1683 0.984 . S
H1687 N1683 0.985 . S
H1688 N1682 0.984 . S
H1689 N1682 0.984 . S
H1690 N1678 0.984 . S
H1691 N1678 0.985 . S
C1692 C1693 1.363 . S
C1692 C1698 1.379 . S
C1692 N1700 1.356 . S
C1693 C1692 1.363 . S
C1693 C1699 1.363 . S
C1694 C1695 1.363 . S
C1694 C1699 1.379 . S
C1694 N1701 1.356 . S
C1695 C1694 1.363 . S
C1695 C1698 1.363 . S
N1696 C1698 1.356 . S
N1696 H1708 0.984 . S
N1696 H1709 0.985 . S
N1697 C1699 1.356 . S
N1697 H1702 0.984 . S
N1697 H1703 0.985 . S
C1698 C1692 1.379 . S
C1698 C1695 1.363 . S
C1698 N1696 1.356 . S
C1699 C1693 1.363 . S
C1699 C1694 1.379 . S
C1699 N1697 1.356 . S
N1700 C1692 1.356 . S
N1700 H1706 0.984 . S
N1700 H1707 0.984 . S
N1701 C1694 1.356 . S
N1701 H1704 0.984 . S
N1701 H1705 0.985 1_655 S
H1702 N1697 0.984 . S
H1703 N1697 0.985 . S
H1704 N1701 0.984 . S
H1705 N1701 0.985 1_455 S
H1706 N1700 0.984 . S
H1707 N1700 0.984 . S
H1708 N1696 0.984 . S
H1709 N1696 0.985 . S
C1710 C1711 1.363 . S
C1710 C1716 1.379 . S
C1710 N1718 1.356 . S
C1711 C1710 1.363 . S
C1711 C1717 1.363 . S
C1712 C1713 1.363 . S
C1712 C1717 1.379 . S
C1712 N1719 1.356 . S
C1713 C1712 1.363 . S
C1713 C1716 1.363 . S
N1714 C1716 1.356 . S
N1714 H1726 0.984 . S
N1714 H1727 0.985 . S
N1715 C1717 1.356 . S
N1715 H1720 0.984 . S
N1715 H1721 0.985 . S
C1716 C1710 1.379 . S
C1716 C1713 1.363 . S
C1716 N1714 1.356 . S
C1717 C1711 1.363 . S
C1717 C1712 1.379 . S
C1717 N1715 1.356 . S
N1718 C1710 1.356 . S
N1718 H1724 0.984 . S
N1718 H1725 0.984 . S
N1719 C1712 1.356 . S
N1719 H1722 0.984 . S
N1719 H1723 0.985 . S
H1720 N1715 0.984 . S
H1721 N1715 0.985 . S
H1722 N1719 0.984 . S
H1723 N1719 0.985 . S
H1724 N1718 0.984 . S
H1725 N1718 0.984 . S
H1726 N1714 0.984 . S
H1727 N1714 0.985 . S
C1728 C1729 1.363 . S
C1728 C1734 1.379 . S
C1728 N1736 1.356 . S
C1729 C1728 1.363 . S
C1729 C1735 1.363 . S
C1730 C1731 1.363 . S
C1730 C1735 1.379 . S
C1730 N1737 1.356 . S
C1731 C1730 1.363 . S
C1731 C1734 1.363 . S
N1732 C1734 1.356 . S
N1732 H1744 0.984 . S
N1732 H1745 0.985 . S
N1733 C1735 1.356 . S
N1733 H1738 0.984 . S
N1733 H1739 0.985 . S
C1734 C1728 1.379 . S
C1734 C1731 1.363 . S
C1734 N1732 1.356 . S
C1735 C1729 1.363 . S
C1735 C1730 1.379 . S
C1735 N1733 1.356 . S
N1736 C1728 1.356 . S
N1736 H1742 0.984 . S
N1736 H1743 0.984 . S
N1737 C1730 1.356 . S
N1737 H1740 0.984 . S
N1737 H1741 0.985 1_545 S
H1738 N1733 0.984 . S
H1739 N1733 0.985 . S
H1740 N1737 0.984 . S
H1741 N1737 0.985 1_565 S
H1742 N1736 0.984 . S
H1743 N1736 0.984 . S
H1744 N1732 0.984 . S
H1745 N1732 0.985 . S
C1746 C1747 1.363 . S
C1746 C1752 1.379 . S
C1746 N1754 1.356 . S
C1747 C1746 1.363 . S
C1747 C1753 1.363 . S
C1748 C1749 1.363 . S
C1748 C1753 1.379 . S
C1748 N1755 1.356 . S
C1749 C1748 1.363 . S
C1749 C1752 1.363 . S
N1750 C1752 1.356 . S
N1750 H1762 0.984 . S
N1750 H1763 0.985 . S
N1751 C1753 1.356 . S
N1751 H1756 0.984 . S
N1751 H1757 0.985 . S
C1752 C1746 1.379 . S
C1752 C1749 1.363 . S
C1752 N1750 1.356 . S
C1753 C1747 1.363 . S
C1753 C1748 1.379 . S
C1753 N1751 1.356 . S
N1754 C1746 1.356 . S
N1754 H1760 0.984 . S
N1754 H1761 0.984 . S
N1755 C1748 1.356 . S
N1755 H1758 0.984 . S
N1755 H1759 0.985 . S
H1756 N1751 0.984 . S
H1757 N1751 0.985 . S
H1758 N1755 0.984 . S
H1759 N1755 0.985 . S
H1760 N1754 0.984 . S
H1761 N1754 0.984 . S
H1762 N1750 0.984 . S
H1763 N1750 0.985 . S
C1764 C1765 1.363 . S
C1764 C1770 1.379 . S
C1764 N1772 1.356 . S
C1765 C1764 1.363 . S
C1765 C1771 1.363 . S
C1766 C1767 1.363 . S
C1766 C1771 1.379 . S
C1766 N1773 1.356 . S
C1767 C1766 1.363 . S
C1767 C1770 1.363 . S
N1768 C1770 1.356 . S
N1768 H1780 0.984 . S
N1768 H1781 0.985 . S
N1769 C1771 1.356 . S
N1769 H1774 0.984 . S
N1769 H1775 0.985 . S
C1770 C1764 1.379 . S
C1770 C1767 1.363 . S
C1770 N1768 1.356 . S
C1771 C1765 1.363 . S
C1771 C1766 1.379 . S
C1771 N1769 1.356 . S
N1772 C1764 1.356 . S
N1772 H1778 0.984 . S
N1772 H1779 0.984 . S
N1773 C1766 1.356 . S
N1773 H1776 0.984 . S
N1773 H1777 0.985 . S
H1774 N1769 0.984 . S
H1775 N1769 0.985 . S
H1776 N1773 0.984 . S
H1777 N1773 0.985 . S
H1778 N1772 0.984 . S
H1779 N1772 0.984 . S
H1780 N1768 0.984 . S
H1781 N1768 0.985 . S
C1782 C1783 1.363 . S
C1782 C1788 1.379 . S
C1782 N1790 1.356 . S
C1783 C1782 1.363 . S
C1783 C1789 1.363 . S
C1784 C1785 1.363 . S
C1784 C1789 1.379 . S
C1784 N1791 1.356 . S
C1785 C1784 1.363 . S
C1785 C1788 1.363 . S
N1786 C1788 1.356 . S
N1786 H1798 0.984 . S
N1786 H1799 0.985 . S
N1787 C1789 1.356 . S
N1787 H1792 0.984 . S
N1787 H1793 0.985 . S
C1788 C1782 1.379 . S
C1788 C1785 1.363 . S
C1788 N1786 1.356 . S
C1789 C1783 1.363 . S
C1789 C1784 1.379 . S
C1789 N1787 1.356 . S
N1790 C1782 1.356 . S
N1790 H1796 0.984 . S
N1790 H1797 0.984 . S
N1791 C1784 1.356 . S
N1791 H1794 0.984 . S
N1791 H1795 0.985 . S
H1792 N1787 0.984 . S
H1793 N1787 0.985 . S
H1794 N1791 0.984 . S
H1795 N1791 0.985 . S
H1796 N1790 0.984 . S
H1797 N1790 0.984 . S
H1798 N1786 0.984 . S
H1799 N1786 0.985 . S
C1800 C1801 1.363 . S
C1800 C1806 1.379 . S
C1800 N1808 1.356 . S
C1801 C1800 1.363 . S
C1801 C1807 1.363 . S
C1802 C1803 1.363 . S
C1802 C1807 1.379 . S
C1802 N1809 1.356 . S
C1803 C1802 1.363 . S
C1803 C1806 1.363 . S
N1804 C1806 1.356 . S
N1804 H1816 0.984 . S
N1804 H1817 0.985 . S
N1805 C1807 1.356 . S
N1805 H1810 0.984 . S
N1805 H1811 0.985 . S
C1806 C1800 1.379 . S
C1806 C1803 1.363 . S
C1806 N1804 1.356 . S
C1807 C1801 1.363 . S
C1807 C1802 1.379 . S
C1807 N1805 1.356 . S
N1808 C1800 1.356 . S
N1808 H1814 0.984 . S
N1808 H1815 0.984 . S
N1809 C1802 1.356 . S
N1809 H1812 0.984 . S
N1809 H1813 0.985 . S
H1810 N1805 0.984 . S
H1811 N1805 0.985 . S
H1812 N1809 0.984 . S
H1813 N1809 0.985 . S
H1814 N1808 0.984 . S
H1815 N1808 0.984 . S
H1816 N1804 0.984 . S
H1817 N1804 0.985 . S
C1818 C1819 1.363 . S
C1818 C1824 1.379 . S
C1818 N1826 1.356 . S
C1819 C1818 1.363 . S
C1819 C1825 1.363 . S
C1820 C1821 1.363 . S
C1820 C1825 1.379 . S
C1820 N1827 1.356 . S
C1821 C1820 1.363 . S
C1821 C1824 1.363 . S
N1822 C1824 1.356 . S
N1822 H1834 0.984 . S
N1822 H1835 0.985 . S
N1823 C1825 1.356 . S
N1823 H1828 0.984 . S
N1823 H1829 0.985 . S
C1824 C1818 1.379 . S
C1824 C1821 1.363 . S
C1824 N1822 1.356 . S
C1825 C1819 1.363 . S
C1825 C1820 1.379 . S
C1825 N1823 1.356 . S
N1826 C1818 1.356 . S
N1826 H1832 0.984 . S
N1826 H1833 0.984 . S
N1827 C1820 1.356 . S
N1827 H1830 0.984 . S
N1827 H1831 0.985 . S
H1828 N1823 0.984 . S
H1829 N1823 0.985 . S
H1830 N1827 0.984 . S
H1831 N1827 0.985 . S
H1832 N1826 0.984 . S
H1833 N1826 0.984 . S
H1834 N1822 0.984 . S
H1835 N1822 0.985 . S
C1836 C1837 1.363 . S
C1836 C1842 1.379 . S
C1836 N1844 1.356 . S
C1837 C1836 1.363 . S
C1837 C1843 1.363 . S
C1838 C1839 1.363 . S
C1838 C1843 1.379 . S
C1838 N1845 1.356 . S
C1839 C1838 1.363 . S
C1839 C1842 1.363 . S
N1840 C1842 1.356 . S
N1840 H1852 0.984 . S
N1840 H1853 0.985 . S
N1841 C1843 1.356 . S
N1841 H1846 0.984 . S
N1841 H1847 0.985 . S
C1842 C1836 1.379 . S
C1842 C1839 1.363 . S
C1842 N1840 1.356 . S
C1843 C1837 1.363 . S
C1843 C1838 1.379 . S
C1843 N1841 1.356 . S
N1844 C1836 1.356 . S
N1844 H1850 0.984 . S
N1844 H1851 0.984 . S
N1845 C1838 1.356 . S
N1845 H1848 0.984 . S
N1845 H1849 0.985 . S
H1846 N1841 0.984 . S
H1847 N1841 0.985 . S
H1848 N1845 0.984 . S
H1849 N1845 0.985 . S
H1850 N1844 0.984 . S
H1851 N1844 0.984 . S
H1852 N1840 0.984 . S
H1853 N1840 0.985 . S
C1854 C1855 1.363 . S
C1854 C1860 1.379 . S
C1854 N1862 1.356 . S
C1855 C1854 1.363 . S
C1855 C1861 1.363 . S
C1856 C1857 1.363 . S
C1856 C1861 1.379 . S
C1856 N1863 1.356 . S
C1857 C1856 1.363 . S
C1857 C1860 1.363 . S
N1858 C1860 1.356 . S
N1858 H1870 0.984 . S
N1858 H1871 0.985 . S
N1859 C1861 1.356 . S
N1859 H1864 0.984 . S
N1859 H1865 0.985 . S
C1860 C1854 1.379 . S
C1860 C1857 1.363 . S
C1860 N1858 1.356 . S
C1861 C1855 1.363 . S
C1861 C1856 1.379 . S
C1861 N1859 1.356 . S
N1862 C1854 1.356 . S
N1862 H1868 0.984 . S
N1862 H1869 0.984 . S
N1863 C1856 1.356 . S
N1863 H1866 0.984 . S
N1863 H1867 0.985 . S
H1864 N1859 0.984 . S
H1865 N1859 0.985 . S
H1866 N1863 0.984 . S
H1867 N1863 0.985 . S
H1868 N1862 0.984 . S
H1869 N1862 0.984 . S
H1870 N1858 0.984 . S
H1871 N1858 0.985 . S
C1872 C1873 1.363 . S
C1872 C1878 1.379 . S
C1872 N1880 1.356 . S
C1873 C1872 1.363 . S
C1873 C1879 1.363 . S
C1874 C1875 1.363 . S
C1874 C1879 1.379 . S
C1874 N1881 1.356 . S
C1875 C1874 1.363 . S
C1875 C1878 1.363 . S
N1876 C1878 1.356 . S
N1876 H1888 0.984 . S
N1876 H1889 0.985 . S
N1877 C1879 1.356 . S
N1877 H1882 0.984 . S
N1877 H1883 0.985 . S
C1878 C1872 1.379 . S
C1878 C1875 1.363 . S
C1878 N1876 1.356 . S
C1879 C1873 1.363 . S
C1879 C1874 1.379 . S
C1879 N1877 1.356 . S
N1880 C1872 1.356 . S
N1880 H1886 0.984 . S
N1880 H1887 0.984 . S
N1881 C1874 1.356 . S
N1881 H1884 0.984 . S
N1881 H1885 0.985 . S
H1882 N1877 0.984 . S
H1883 N1877 0.985 . S
H1884 N1881 0.984 . S
H1885 N1881 0.985 . S
H1886 N1880 0.984 . S
H1887 N1880 0.984 . S
H1888 N1876 0.984 . S
H1889 N1876 0.985 . S
C1890 C1891 1.363 . S
C1890 C1896 1.379 . S
C1890 N1898 1.356 . S
C1891 C1890 1.363 . S
C1891 C1897 1.363 . S
C1892 C1893 1.363 . S
C1892 C1897 1.379 . S
C1892 N1899 1.356 . S
C1893 C1892 1.363 . S
C1893 C1896 1.363 . S
N1894 C1896 1.356 . S
N1894 H1906 0.984 . S
N1894 H1907 0.985 . S
N1895 C1897 1.356 . S
N1895 H1900 0.984 . S
N1895 H1901 0.985 . S
C1896 C1890 1.379 . S
C1896 C1893 1.363 . S
C1896 N1894 1.356 . S
C1897 C1891 1.363 . S
C1897 C1892 1.379 . S
C1897 N1895 1.356 . S
N1898 C1890 1.356 . S
N1898 H1904 0.984 . S
N1898 H1905 0.984 . S
N1899 C1892 1.356 . S
N1899 H1902 0.984 . S
N1899 H1903 0.985 . S
H1900 N1895 0.984 . S
H1901 N1895 0.985 . S
H1902 N1899 0.984 . S
H1903 N1899 0.985 . S
H1904 N1898 0.984 . S
H1905 N1898 0.984 . S
H1906 N1894 0.984 . S
H1907 N1894 0.985 . S
C1908 C1909 1.363 . S
C1908 C1914 1.379 . S
C1908 N1916 1.356 . S
C1909 C1908 1.363 . S
C1909 C1915 1.363 . S
C1910 C1911 1.363 . S
C1910 C1915 1.379 . S
C1910 N1917 1.356 . S
C1911 C1910 1.363 . S
C1911 C1914 1.363 . S
N1912 C1914 1.356 . S
N1912 H1924 0.984 . S
N1912 H1925 0.985 . S
N1913 C1915 1.356 . S
N1913 H1918 0.984 . S
N1913 H1919 0.985 . S
C1914 C1908 1.379 . S
C1914 C1911 1.363 . S
C1914 N1912 1.356 . S
C1915 C1909 1.363 . S
C1915 C1910 1.379 . S
C1915 N1913 1.356 . S
N1916 C1908 1.356 . S
N1916 H1922 0.984 . S
N1916 H1923 0.984 . S
N1917 C1910 1.356 . S
N1917 H1920 0.984 . S
N1917 H1921 0.985 . S
H1918 N1913 0.984 . S
H1919 N1913 0.985 . S
H1920 N1917 0.984 . S
H1921 N1917 0.985 . S
H1922 N1916 0.984 . S
H1923 N1916 0.984 . S
H1924 N1912 0.984 . S
H1925 N1912 0.985 . S
C1926 C1927 1.363 . S
C1926 C1932 1.379 . S
C1926 N1934 1.356 . S
C1927 C1926 1.363 . S
C1927 C1933 1.363 . S
C1928 C1929 1.363 . S
C1928 C1933 1.379 . S
C1928 N1935 1.356 . S
C1929 C1928 1.363 . S
C1929 C1932 1.363 . S
N1930 C1932 1.356 . S
N1930 H1942 0.984 . S
N1930 H1943 0.985 . S
N1931 C1933 1.356 . S
N1931 H1936 0.984 . S
N1931 H1937 0.985 . S
C1932 C1926 1.379 . S
C1932 C1929 1.363 . S
C1932 N1930 1.356 . S
C1933 C1927 1.363 . S
C1933 C1928 1.379 . S
C1933 N1931 1.356 . S
N1934 C1926 1.356 . S
N1934 H1940 0.984 . S
N1934 H1941 0.984 . S
N1935 C1928 1.356 . S
N1935 H1938 0.984 . S
N1935 H1939 0.985 . S
H1936 N1931 0.984 . S
H1937 N1931 0.985 . S
H1938 N1935 0.984 . S
H1939 N1935 0.985 . S
H1940 N1934 0.984 . S
H1941 N1934 0.984 . S
H1942 N1930 0.984 . S
H1943 N1930 0.985 . S
C1944 C1945 1.363 . S
C1944 C1950 1.379 . S
C1944 N1952 1.356 . S
C1945 C1944 1.363 . S
C1945 C1951 1.363 . S
C1946 C1947 1.363 . S
C1946 C1951 1.379 . S
C1946 N1953 1.356 . S
C1947 C1946 1.363 . S
C1947 C1950 1.363 . S
N1948 C1950 1.356 . S
N1948 H1960 0.984 . S
N1948 H1961 0.985 . S
N1949 C1951 1.356 . S
N1949 H1954 0.984 . S
N1949 H1955 0.985 . S
C1950 C1944 1.379 . S
C1950 C1947 1.363 . S
C1950 N1948 1.356 . S
C1951 C1945 1.363 . S
C1951 C1946 1.379 . S
C1951 N1949 1.356 . S
N1952 C1944 1.356 . S
N1952 H1958 0.984 . S
N1952 H1959 0.984 . S
N1953 C1946 1.356 . S
N1953 H1956 0.984 . S
N1953 H1957 0.985 . S
H1954 N1949 0.984 . S
H1955 N1949 0.985 . S
H1956 N1953 0.984 . S
H1957 N1953 0.985 . S
H1958 N1952 0.984 . S
H1959 N1952 0.984 . S
H1960 N1948 0.984 . S
H1961 N1948 0.985 . S
C991 C177 1.475 . S
C993 C290 1.416 . S
C1009 C190 1.500 . S
C1011 C374 1.445 . S
C1027 C164 1.472 . S
C1029 C468 1.470 . S
C1045 C151 1.463 . S
C1047 C384 1.463 . S
C1065 C458 1.406 . S
C1063 C125 1.468 . S
C1081 C138 1.440 . S
C1083 C300 1.437 . S
C1101 C301 1.458 . S
C1099 C147 1.466 . S
C1119 C385 1.481 . S
C1117 C121 1.481 . S
C1135 C134 1.483 . S
C1137 C477 1.480 . S
C1153 C173 1.459 . S
C1155 C393 1.461 . S
C1171 C186 1.444 . S
C1173 C469 1.436 . S
C1191 C309 1.441 . S
C1189 C160 1.447 . S
C1209 C542 1.416 . S
C1207 C21 1.475 . S
C1225 C34 1.500 . S
C1227 C626 1.445 . S
C1243 C8 1.472 . S
C1245 C720 1.469 . S
C1261 C229 1.463 . S
C1263 C636 1.463 . S
C1279 C203 1.468 . S
C1281 C710 1.406 . S
C1297 C216 1.440 . S
C1299 C552 1.438 . S
C1315 C225 1.466 . S
C1317 C553 1.459 . S
C1333 C199 1.480 . S
C1335 C637 1.481 . S
C1353 C729 1.480 . S
C1351 C212 1.483 . S
C1369 C17 1.459 1_565 S
C1371 C645 1.461 . S
C1389 C721 1.436 . S
C1387 C30 1.444 1_455 S
C1405 C4 1.447 . S
C1407 C561 1.441 . S
C1425 C794 1.416 . S
C1423 C99 1.475 . S
C1441 C112 1.500 . S
C1443 C878 1.445 . S
C1461 C972 1.470 . S
C1459 C86 1.472 . S
C1479 C888 1.463 . S
C1477 C73 1.463 . S
C1497 C962 1.406 . S
C1495 C47 1.468 . S
C1513 C60 1.440 . S
C1515 C804 1.438 . S
C1531 C69 1.466 1_655 S
C1533 C805 1.459 . S
C1549 C43 1.481 . S
C1551 C889 1.481 . S
C1569 C981 1.480 . S
C1567 C56 1.483 1_545 S
C1585 C95 1.459 . S
C1587 C897 1.461 . S
C1603 C108 1.444 . S
C1605 C973 1.437 . S
C1621 C82 1.447 . S
C1623 C813 1.441 . S
C1639 C204 1.574 . S
C1641 C297 1.470 . S
C1659 C381 1.477 . S
C1657 C217 1.612 . S
C1675 C230 1.571 . S
C1677 C474 1.382 . S
C1693 C87 1.581 . S
C1695 C390 1.377 . S
C1711 C100 1.581 . S
C1713 C465 1.455 . S
C1731 C306 1.374 . S
C1729 C113 1.543 . S
C1747 C48 1.574 . S
C1749 C549 1.470 . S
C1765 C61 1.612 . S
C1767 C633 1.477 . S
C1783 C74 1.571 . S
C1785 C726 1.382 . S
C1801 C165 1.581 . S
C1803 C642 1.377 . S
C1821 C717 1.455 . S
C1819 C178 1.581 . S
C1837 C191 1.543 . S
C1839 C558 1.374 . S
C1855 C126 1.574 . S
C1857 C801 1.470 . S
C1873 C139 1.612 . S
C1875 C885 1.477 . S
C1893 C978 1.382 . S
C1891 C152 1.571 . S
C1909 C9 1.581 . S
C1911 C894 1.377 . S
C1927 C22 1.581 . S
C1929 C969 1.455 . S
C1945 C35 1.543 . S
C1947 C810 1.374 . S
