# Generated by pormake.
# Topology hwx, (6,3)-cn, num edge types: 1
# Building blocks:
#     Node 0, Type 0, BuildingBlock: IZENUY_clean_sbu_0, # of connection points: 6
#     Node 1, Type 0, BuildingBlock: IZENUY_clean_sbu_0, # of connection points: 6
#     Node 2, Type 0, BuildingBlock: IZENUY_clean_sbu_0, # of connection points: 6
#     Node 3, Type 0, BuildingBlock: IZENUY_clean_sbu_0, # of connection points: 6
#     Node 4, Type 1, BuildingBlock: BELTOD_clean_linker_0, # of connection points: 3
#     Node 5, Type 1, BuildingBlock: BELTOD_clean_linker_0, # of connection points: 3
#     Node 6, Type 1, BuildingBlock: BELTOD_clean_linker_0, # of connection points: 3
#     Node 7, Type 1, BuildingBlock: BELTOD_clean_linker_0, # of connection points: 3
#     Node 8, Type 1, BuildingBlock: BELTOD_clean_linker_0, # of connection points: 3
#     Node 9, Type 1, BuildingBlock: BELTOD_clean_linker_0, # of connection points: 3
#     Node 10, Type 1, BuildingBlock: BELTOD_clean_linker_0, # of connection points: 3
#     Node 11, Type 1, BuildingBlock: BELTOD_clean_linker_0, # of connection points: 3
#     Edge 12, Type (0, 1), BuildingBlock: OJICUG_clean_linker_0, # of connection points: 2
#     Edge 13, Type (0, 1), BuildingBlock: OJICUG_clean_linker_0, # of connection points: 2
#     Edge 14, Type (0, 1), BuildingBlock: OJICUG_clean_linker_0, # of connection points: 2
#     Edge 15, Type (0, 1), BuildingBlock: OJICUG_clean_linker_0, # of connection points: 2
#     Edge 16, Type (0, 1), BuildingBlock: OJICUG_clean_linker_0, # of connection points: 2
#     Edge 17, Type (0, 1), BuildingBlock: OJICUG_clean_linker_0, # of connection points: 2
#     Edge 18, Type (0, 1), BuildingBlock: OJICUG_clean_linker_0, # of connection points: 2
#     Edge 19, Type (0, 1), BuildingBlock: OJICUG_clean_linker_0, # of connection points: 2
#     Edge 20, Type (0, 1), BuildingBlock: OJICUG_clean_linker_0, # of connection points: 2
#     Edge 21, Type (0, 1), BuildingBlock: OJICUG_clean_linker_0, # of connection points: 2
#     Edge 22, Type (0, 1), BuildingBlock: OJICUG_clean_linker_0, # of connection points: 2
#     Edge 23, Type (0, 1), BuildingBlock: OJICUG_clean_linker_0, # of connection points: 2
#     Edge 24, Type (0, 1), BuildingBlock: OJICUG_clean_linker_0, # of connection points: 2
#     Edge 25, Type (0, 1), BuildingBlock: OJICUG_clean_linker_0, # of connection points: 2
#     Edge 26, Type (0, 1), BuildingBlock: OJICUG_clean_linker_0, # of connection points: 2
#     Edge 27, Type (0, 1), BuildingBlock: OJICUG_clean_linker_0, # of connection points: 2
#     Edge 28, Type (0, 1), BuildingBlock: OJICUG_clean_linker_0, # of connection points: 2
#     Edge 29, Type (0, 1), BuildingBlock: OJICUG_clean_linker_0, # of connection points: 2
#     Edge 30, Type (0, 1), BuildingBlock: OJICUG_clean_linker_0, # of connection points: 2
#     Edge 31, Type (0, 1), BuildingBlock: OJICUG_clean_linker_0, # of connection points: 2
#     Edge 32, Type (0, 1), BuildingBlock: OJICUG_clean_linker_0, # of connection points: 2
#     Edge 33, Type (0, 1), BuildingBlock: OJICUG_clean_linker_0, # of connection points: 2
#     Edge 34, Type (0, 1), BuildingBlock: OJICUG_clean_linker_0, # of connection points: 2
#     Edge 35, Type (0, 1), BuildingBlock: OJICUG_clean_linker_0, # of connection points: 2
# Relax obj value: 0.046
# Max RMSD: 0.072
# Mean RMSD: 0.062
data_MOF--net-hwx--node1-IZENUY_clean_sbu_0--node2-BELTOD_clean_linker_0--edge1-OJICUG_clean_linker_0
_symmetry_space_group_name_H-M    P1
_symmetry_Int_Tables_number       1
_symmetry_cell_setting            triclinic
loop_
_symmetry_equiv_pos_as_xyz
'x, y, z'
_cell_length_a     41.461552
_cell_length_b     41.493788
_cell_length_c     19.680339
_cell_angle_alpha  89.6476
_cell_angle_beta   90.68064
_cell_angle_gamma 90.010926
loop_
_atom_site_label
_atom_site_type_symbol
_atom_site_fract_x
_atom_site_fract_y
_atom_site_fract_z
_atom_type_partial_charge
Fe0 Fe 0.23896 0.20442 0.0689 0.0
Fe1 Fe 0.24423 0.20041 0.91479 0.0
O2 O 0.23106 0.18365 0.99244 0.0
Fe3 Fe 0.20989 0.14643 0.99311 0.0
O4 O 0.1841 0.15673 0.06611 0.0
O5 O 0.19647 0.20734 0.08637 0.0
O6 O 0.23542 0.24451 0.03064 0.0
C7 C 0.22063 0.25373 0.97737 0.0
C8 C 0.24973 0.13916 0.10439 0.0
O9 O 0.21926 0.23596 0.92559 0.0
C10 C 0.25927 0.13744 0.89512 0.0
O11 O 0.28231 0.2033 0.05627 0.0
O12 O 0.27974 0.22059 0.95092 0.0
O13 O 0.2401 0.1279 0.04829 0.0
O14 O 0.24364 0.16795 0.12074 0.0
C15 C 0.18354 0.17414 0.87925 0.0
O16 O 0.26965 0.16594 0.89987 0.0
O17 O 0.23231 0.12955 0.92066 0.0
C18 C 0.29585 0.21504 0.00468 0.0
O19 O 0.21154 0.18333 0.86355 0.0
O20 O 0.17807 0.16251 0.93743 0.0
C21 C 0.17721 0.18402 0.09082 0.0
Fe22 Fe 0.24974 0.71833 0.56971 0.0
Fe23 Fe 0.28928 0.66506 0.50238 0.0
O24 O 0.26252 0.69828 0.49593 0.0
Fe25 Fe 0.24893 0.71176 0.41519 0.0
O26 O 0.2675 0.75096 0.4279 0.0
O27 O 0.24767 0.75823 0.52959 0.0
O28 O 0.29087 0.7281 0.59354 0.0
C29 C 0.31286 0.70762 0.60336 0.0
C30 C 0.19367 0.7193 0.49676 0.0
O31 O 0.31055 0.67954 0.57895 0.0
C32 C 0.24505 0.64678 0.39859 0.0
O33 O 0.2498 0.68196 0.62275 0.0
O34 O 0.2608 0.64234 0.55295 0.0
O35 O 0.20985 0.72614 0.44455 0.0
O36 O 0.20762 0.71018 0.55079 0.0
C37 C 0.31404 0.6979 0.39425 0.0
O38 O 0.2725 0.64453 0.42745 0.0
O39 O 0.22991 0.6732 0.39804 0.0
C40 C 0.24911 0.6523 0.60791 0.0
O41 O 0.31957 0.68601 0.45238 0.0
O42 O 0.28555 0.7001 0.37123 0.0
C43 C 0.2623 0.76892 0.47808 0.0
Fe44 Fe 0.75977 0.78195 0.92815 0.0
Fe45 Fe 0.75611 0.78429 0.08395 0.0
O46 O 0.76782 0.80206 0.00573 0.0
Fe47 Fe 0.78751 0.83991 0.00433 0.0
O48 O 0.7558 0.85773 0.95209 0.0
O49 O 0.75467 0.81877 0.87752 0.0
O50 O 0.71701 0.78336 0.94295 0.0
C51 C 0.70321 0.7727 0.99516 0.0
C52 C 0.82036 0.80414 0.90425 0.0
O53 O 0.71917 0.76584 0.04872 0.0
C54 C 0.81754 0.81155 0.11376 0.0
O55 O 0.76306 0.74123 0.96379 0.0
O56 O 0.7801 0.7485 0.06838 0.0
O57 O 0.81212 0.83068 0.93035 0.0
O58 O 0.80236 0.77969 0.90849 0.0
C59 C 0.74092 0.84761 0.10705 0.0
O60 O 0.79079 0.79986 0.13234 0.0
O61 O 0.82048 0.82494 0.05651 0.0
C62 C 0.77738 0.73094 0.01663 0.0
O63 O 0.73138 0.81875 0.10628 0.0
O64 O 0.76663 0.85593 0.0779 0.0
C65 C 0.74741 0.84714 0.8947 0.0
Fe66 Fe 0.7068 0.35507 0.52294 0.0
Fe67 Fe 0.73554 0.29513 0.59459 0.0
O68 O 0.72476 0.31624 0.51908 0.0
Fe69 Fe 0.73202 0.29847 0.43913 0.0
O70 O 0.73934 0.33655 0.39498 0.0
O71 O 0.73949 0.37322 0.47488 0.0
O72 O 0.72845 0.3673 0.60069 0.0
C73 C 0.75354 0.35635 0.63008 0.0
C74 C 0.6727 0.32454 0.41475 0.0
O75 O 0.76195 0.3274 0.62245 0.0
C76 C 0.71177 0.24537 0.51868 0.0
O77 O 0.67299 0.33984 0.57142 0.0
O78 O 0.70174 0.3107 0.64385 0.0
O79 O 0.68954 0.29925 0.41719 0.0
O80 O 0.68173 0.34974 0.44587 0.0
C81 C 0.78788 0.28281 0.50654 0.0
O82 O 0.70983 0.26119 0.57291 0.0
O83 O 0.72627 0.25694 0.46798 0.0
C84 C 0.67539 0.32395 0.62619 0.0
O85 O 0.77145 0.27578 0.55854 0.0
O86 O 0.77496 0.2967 0.45598 0.0
C87 C 0.74841 0.36358 0.41738 0.0
P88 P 0.23566 0.49329 0.00971 0.0
H89 H 0.23556 0.47462 0.15238 0.0
H90 H 0.22809 0.50631 0.2552 0.0
H91 H 0.19561 0.5869 0.13189 0.0
H92 H 0.20115 0.55455 0.0306 0.0
H93 H 0.25104 0.44734 0.90621 0.0
H94 H 0.23636 0.39118 0.88968 0.0
H95 H 0.16803 0.39796 0.0533 0.0
H96 H 0.18333 0.45439 0.07009 0.0
H97 H 0.27051 0.55145 0.97728 0.0
H98 H 0.19536 0.49397 0.88474 0.0
O99 O 0.27473 0.48692 0.02605 0.0
H100 H 0.26846 0.58864 0.88064 0.0
H101 H 0.19384 0.53087 0.78673 0.0
C102 C 0.21959 0.5124 0.08381 0.0
C103 C 0.22566 0.49871 0.14789 0.0
C104 C 0.2217 0.51702 0.20656 0.0
C105 C 0.21219 0.54954 0.20186 0.0
C106 C 0.20301 0.56201 0.13783 0.0
C107 C 0.20652 0.54351 0.07936 0.0
C108 C 0.21863 0.45472 0.98994 0.0
C109 C 0.23233 0.43693 0.93745 0.0
C110 C 0.22365 0.40487 0.92763 0.0
C111 C 0.20117 0.38999 0.97053 0.0
C112 C 0.18572 0.40868 0.02001 0.0
C113 C 0.19446 0.4409 0.02973 0.0
C114 C 0.23349 0.5198 0.93752 0.0
C115 C 0.25372 0.54677 0.93591 0.0
C116 C 0.25239 0.56804 0.88103 0.0
C117 C 0.23098 0.56247 0.82658 0.0
C118 C 0.21065 0.53544 0.82812 0.0
C119 C 0.21159 0.51439 0.88389 0.0
P120 P 0.97816 0.84201 0.51204 0.0
H121 H 0.98969 0.84688 0.65752 0.0
H122 H 0.957 0.83306 0.75648 0.0
H123 H 0.88036 0.80082 0.62254 0.0
H124 H 0.91296 0.81424 0.5247 0.0
H125 H 0.03928 0.84973 0.44418 0.0
H126 H 0.08755 0.81612 0.43901 0.0
H127 H 0.04263 0.74564 0.5699 0.0
H128 H 0.99431 0.77938 0.57472 0.0
H129 H 0.94507 0.88647 0.41873 0.0
H130 H 0.96202 0.78415 0.43552 0.0
O131 O 0.98922 0.88056 0.51836 0.0
H132 H 0.91055 0.87753 0.31891 0.0
H133 H 0.92734 0.77504 0.33593 0.0
C134 C 0.95374 0.83181 0.58385 0.0
C135 C 0.96585 0.83677 0.6497 0.0
C136 C 0.94721 0.82883 0.70605 0.0
C137 C 0.91618 0.81571 0.69722 0.0
C138 C 0.90439 0.81032 0.63103 0.0
C139 C 0.923 0.81832 0.57484 0.0
C140 C 0.01365 0.8174 0.51104 0.0
C141 C 0.03992 0.82714 0.47204 0.0
C142 C 0.06731 0.80778 0.46863 0.0
C143 C 0.06875 0.77826 0.50404 0.0
C144 C 0.04223 0.76842 0.54271 0.0
C145 C 0.0147 0.78774 0.54563 0.0
C146 C 0.95633 0.836 0.43385 0.0
C147 C 0.94185 0.86216 0.40016 0.0
C148 C 0.92221 0.85704 0.34311 0.0
C149 C 0.91636 0.8256 0.31979 0.0
C150 C 0.93141 0.79949 0.35304 0.0
C151 C 0.95135 0.80468 0.40955 0.0
P152 P 0.85195 0.49135 0.0257 0.0
H153 H 0.84305 0.50684 0.88115 0.0
H154 H 0.82223 0.47581 0.78456 0.0
H155 H 0.8069 0.39414 0.91746 0.0
H156 H 0.82763 0.42511 0.01334 0.0
H157 H 0.88294 0.55042 0.07276 0.0
H158 H 0.86603 0.60694 0.0718 0.0
H159 H 0.77632 0.57985 0.97372 0.0
H160 H 0.79356 0.52356 0.97426 0.0
H161 H 0.88067 0.44499 0.12102 0.0
H162 H 0.79212 0.49901 0.10201 0.0
O163 O 0.89212 0.48941 0.02347 0.0
H164 H 0.8598 0.41763 0.22183 0.0
H165 H 0.77118 0.47179 0.20267 0.0
C166 C 0.83606 0.46866 0.95487 0.0
C167 C 0.83491 0.48236 0.88956 0.0
C168 C 0.82304 0.4646 0.8344 0.0
C169 C 0.81279 0.43256 0.84342 0.0
C170 C 0.81479 0.41869 0.90871 0.0
C171 C 0.82638 0.43654 0.96382 0.0
C172 C 0.8399 0.53299 0.02179 0.0
C173 C 0.8598 0.55675 0.05037 0.0
C174 C 0.84997 0.58898 0.05041 0.0
C175 C 0.81993 0.59792 0.02223 0.0
C176 C 0.79987 0.57386 0.99457 0.0
C177 C 0.80971 0.54167 0.99474 0.0
C178 C 0.83815 0.47437 0.10459 0.0
C179 C 0.85701 0.45143 0.13927 0.0
C180 C 0.84501 0.43573 0.19668 0.0
C181 C 0.8139 0.44268 0.22026 0.0
C182 C 0.79543 0.46634 0.18641 0.0
C183 C 0.80736 0.48184 0.12867 0.0
P184 P 0.03428 0.25011 0.48951 0.0
H185 H 0.07515 0.2823 0.39093 0.0
H186 H 0.10352 0.26393 0.29167 0.0
H187 H 0.06165 0.16914 0.31596 0.0
H188 H 0.03384 0.18783 0.41815 0.0
H189 H 0.98965 0.25676 0.6009 0.0
H190 H 0.93104 0.26056 0.60455 0.0
H191 H 0.9255 0.2374 0.39089 0.0
H192 H 0.98429 0.23439 0.38744 0.0
H193 H 0.099 0.26066 0.53838 0.0
H194 H 0.01927 0.19896 0.59107 0.0
O195 O 0.04 0.28983 0.49524 0.0
H196 H 0.13115 0.23744 0.63078 0.0
H197 H 0.0515 0.17575 0.68521 0.0
C198 C 0.05187 0.23661 0.41129 0.0
C199 C 0.07155 0.25769 0.37457 0.0
C200 C 0.0877 0.24711 0.31716 0.0
C201 C 0.08459 0.21509 0.29474 0.0
C202 C 0.06467 0.19393 0.33167 0.0
C203 C 0.04856 0.20461 0.38972 0.0
C204 C 0.99135 0.24446 0.49439 0.0
C205 C 0.97577 0.25147 0.55534 0.0
C206 C 0.94219 0.25369 0.55731 0.0
C207 C 0.9235 0.24934 0.49796 0.0
C208 C 0.93918 0.2412 0.43737 0.0
C209 C 0.97284 0.23903 0.43551 0.0
C210 C 0.05665 0.23195 0.55859 0.0
C211 C 0.08837 0.24218 0.57014 0.0
C212 C 0.10675 0.22878 0.62278 0.0
C213 C 0.0938 0.20476 0.66508 0.0
C214 C 0.06191 0.19441 0.65361 0.0
C215 C 0.04354 0.20767 0.59997 0.0
P216 P 0.73129 0.0033 0.49278 0.0
H217 H 0.75658 0.00666 0.35594 0.0
H218 H 0.74934 0.97199 0.25812 0.0
H219 H 0.67115 0.92294 0.35936 0.0
H220 H 0.6794 0.9575 0.45853 0.0
H221 H 0.7408 0.04995 0.59919 0.0
H222 H 0.72642 0.10655 0.60876 0.0
H223 H 0.67 0.09991 0.4232 0.0
H224 H 0.68497 0.04301 0.41364 0.0
H225 H 0.75538 0.93934 0.51812 0.0
H226 H 0.69311 0.00659 0.61947 0.0
O227 O 0.77108 0.00904 0.48912 0.0
H228 H 0.75153 0.90233 0.61422 0.0
H229 H 0.68957 0.96965 0.71683 0.0
C230 C 0.71909 0.98409 0.41493 0.0
C231 C 0.73741 0.98892 0.35657 0.0
C232 C 0.73302 0.96911 0.30025 0.0
C233 C 0.70989 0.94422 0.30095 0.0
C234 C 0.68962 0.94137 0.35759 0.0
C235 C 0.69416 0.96125 0.41415 0.0
C236 C 0.71387 0.04234 0.50593 0.0
C237 C 0.72457 0.06044 0.5616 0.0
C238 C 0.71616 0.09282 0.56718 0.0
C239 C 0.6971 0.10783 0.51664 0.0
C240 C 0.68494 0.08909 0.46265 0.0
C241 C 0.69335 0.05654 0.45726 0.0
C242 C 0.72492 0.9758 0.56206 0.0
C243 C 0.74063 0.94599 0.56091 0.0
C244 C 0.73823 0.92479 0.61567 0.0
C245 C 0.7202 0.93314 0.67292 0.0
C246 C 0.70378 0.96277 0.67341 0.0
C247 C 0.70589 0.98389 0.61791 0.0
P248 P 0.5093 0.34392 0.01467 0.0
H249 H 0.50085 0.35274 0.86819 0.0
H250 H 0.537 0.34527 0.77198 0.0
H251 H 0.61187 0.3124 0.91074 0.0
H252 H 0.57542 0.31848 0.00518 0.0
H253 H 0.45235 0.34234 0.09865 0.0
H254 H 0.40462 0.3077 0.10033 0.0
H255 H 0.44443 0.25074 0.9385 0.0
H256 H 0.49203 0.28555 0.93701 0.0
H257 H 0.5511 0.38954 0.08479 0.0
H258 H 0.51873 0.29179 0.11457 0.0
O259 O 0.49496 0.38134 0.00666 0.0
H260 H 0.58658 0.38462 0.18419 0.0
H261 H 0.55335 0.28692 0.21541 0.0
C262 C 0.53546 0.33647 0.9439 0.0
C263 C 0.525 0.34366 0.87753 0.0
C264 C 0.54579 0.33958 0.82267 0.0
C265 C 0.5775 0.32832 0.83335 0.0
C266 C 0.58754 0.32061 0.9001 0.0
C267 C 0.56668 0.32442 0.95463 0.0
C268 C 0.47541 0.31685 0.017 0.0
C269 C 0.45083 0.32228 0.06378 0.0
C270 C 0.42372 0.3023 0.0651 0.0
C271 C 0.42071 0.27653 0.0194 0.0
C272 C 0.44589 0.27063 0.97379 0.0
C273 C 0.47311 0.29055 0.97284 0.0
C274 C 0.53186 0.34128 0.09316 0.0
C275 C 0.55106 0.36728 0.1138 0.0
C276 C 0.57126 0.36444 0.17083 0.0
C277 C 0.57275 0.3354 0.2081 0.0
C278 C 0.55301 0.30953 0.18763 0.0
C279 C 0.53293 0.31238 0.13036 0.0
P280 P 0.34945 0.0036 0.49712 0.0
H281 H 0.33695 0.98339 0.63783 0.0
H282 H 0.31789 0.0127 0.73753 0.0
H283 H 0.31522 0.10067 0.61921 0.0
H284 H 0.33375 0.07143 0.52008 0.0
H285 H 0.37687 0.94352 0.44713 0.0
H286 H 0.35575 0.88855 0.43998 0.0
H287 H 0.26708 0.92012 0.53191 0.0
H288 H 0.28865 0.97462 0.54024 0.0
H289 H 0.37808 0.05305 0.4101 0.0
H290 H 0.28891 -0.00038 0.41862 0.0
O291 O 0.38969 0.00313 0.49858 0.0
H292 H 0.35709 0.08362 0.31221 0.0
H293 H 0.26813 0.0297 0.32096 0.0
C294 C 0.3358 0.025 0.57085 0.0
C295 C 0.33191 0.00892 0.63319 0.0
C296 C 0.3211 0.02564 0.69013 0.0
C297 C 0.31497 0.0589 0.68599 0.0
C298 C 0.3199 0.07506 0.62399 0.0
C299 C 0.33027 0.05828 0.56705 0.0
C300 C 0.33469 0.96286 0.49601 0.0
C301 C 0.35307 0.93843 0.46659 0.0
C302 C 0.34081 0.90714 0.46176 0.0
C303 C 0.30979 0.89992 0.48569 0.0
C304 C 0.29131 0.9247 0.51427 0.0
C305 C 0.30363 0.95587 0.51922 0.0
C306 C 0.33534 0.02364 0.42099 0.0
C307 C 0.35427 0.04747 0.39024 0.0
C308 C 0.34222 0.06501 0.33462 0.0
C309 C 0.31107 0.05883 0.30879 0.0
C310 C 0.29242 0.03456 0.33904 0.0
C311 C 0.30433 0.01736 0.39509 0.0
P312 P 0.45402 0.77985 0.00788 0.0
H313 H 0.43536 0.8119 0.13271 0.0
H314 H 0.40881 0.79261 0.23523 0.0
H315 H 0.41519 0.69483 0.1629 0.0
H316 H 0.44176 0.71428 0.05983 0.0
H317 H 0.50399 0.82108 0.95224 0.0
H318 H 0.56247 0.816 0.94645 0.0
H319 H 0.55714 0.7228 0.04485 0.0
H320 H 0.49854 0.72808 0.05076 0.0
H321 H 0.39387 0.74261 0.99163 0.0
H322 H 0.46979 0.77901 0.86399 0.0
O323 O 0.44532 0.81909 0.0033 0.0
H324 H 0.36542 0.72223 0.89153 0.0
H325 H 0.44032 0.75992 0.76323 0.0
C326 C 0.43963 0.76461 0.08782 0.0
C327 C 0.43148 0.78627 0.13912 0.0
C328 C 0.4165 0.77523 0.19787 0.0
C329 C 0.40971 0.7423 0.20647 0.0
C330 C 0.42033 0.72031 0.15761 0.0
C331 C 0.43526 0.73143 0.09858 0.0
C332 C 0.49698 0.7753 0.00326 0.0
C333 C 0.51536 0.79958 0.97277 0.0
C334 C 0.54876 0.79652 0.96893 0.0
C335 C 0.56433 0.76901 0.99536 0.0
C336 C 0.54577 0.74442 0.02486 0.0
C337 C 0.51227 0.74744 0.02825 0.0
C338 C 0.43468 0.76128 0.93573 0.0
C339 C 0.40498 0.74543 0.94253 0.0
C340 C 0.38856 0.73397 0.88525 0.0
C341 C 0.40098 0.73926 0.82013 0.0
C342 C 0.43054 0.75531 0.81315 0.0
C343 C 0.44736 0.76608 0.87066 0.0
C344 C 0.14099 0.16575 0.18472 0.0
C345 C 0.14876 0.18837 0.13413 0.0
H346 H 0.11496 0.15662 0.27635 0.0
C347 C 0.13209 0.21776 0.13151 0.0
H348 H 0.15377 0.14301 0.18808 0.0
C349 C 0.10949 0.22532 0.18086 0.0
C350 C 0.10362 0.20403 0.23528 0.0
H351 H 0.13749 0.2355 0.0926 0.0
H352 H 0.09759 0.24853 0.17785 0.0
C353 C 0.11874 0.1736 0.23522 0.0
C354 C 0.23252 0.63991 0.72655 0.0
C355 C 0.23975 0.62891 0.66102 0.0
H356 H 0.22396 0.62725 0.83029 0.0
C357 C 0.24035 0.59555 0.64883 0.0
H358 H 0.23154 0.66543 0.7377 0.0
C359 C 0.23565 0.57369 0.70217 0.0
C360 C 0.2306 0.58492 0.76831 0.0
H361 H 0.24559 0.58634 0.59881 0.0
H362 H 0.23763 0.54809 0.69243 0.0
C363 C 0.2282 0.61813 0.77971 0.0
C364 C 0.86995 0.83507 0.15413 0.0
C365 C 0.84452 0.81308 0.1633 0.0
H366 H 0.91269 0.85631 0.19685 0.0
C367 C 0.84417 0.79383 0.22227 0.0
H368 H 0.87091 0.85025 0.10924 0.0
C369 C 0.86821 0.79715 0.27196 0.0
C370 C 0.89287 0.82001 0.264 0.0
H371 H 0.82499 0.77657 0.23063 0.0
H372 H 0.86683 0.78264 0.31779 0.0
C373 C 0.89377 0.83867 0.20431 0.0
C374 C 0.76265 0.40925 0.68865 0.0
C375 C 0.77074 0.37655 0.6809 0.0
H376 H 0.76953 0.4525 0.74595 0.0
C377 C 0.79416 0.36297 0.72474 0.0
H378 H 0.74479 0.42053 0.65569 0.0
C379 C 0.80824 0.38131 0.77658 0.0
C380 C 0.79948 0.41373 0.78547 0.0
H381 H 0.80108 0.33792 0.72018 0.0
H382 H 0.82588 0.37003 0.81009 0.0
C383 C 0.77694 0.42764 0.74018 0.0
C384 C 0.63786 0.30019 0.32357 0.0
C385 C 0.64498 0.32624 0.36659 0.0
H386 H 0.60998 0.28281 0.23945 0.0
C387 C 0.62657 0.35458 0.36017 0.0
H388 H 0.65152 0.27797 0.32705 0.0
C389 C 0.60244 0.35722 0.31019 0.0
C390 C 0.5962 0.33162 0.2654 0.0
H391 H 0.63121 0.37502 0.39281 0.0
H392 H 0.58893 0.3795 0.30614 0.0
C393 C 0.61384 0.30288 0.27348 0.0
C394 C 0.30336 0.12573 0.8131 0.0
C395 C 0.2759 0.11521 0.84832 0.0
H396 H 0.33723 0.11607 0.7346 0.0
C397 C 0.26324 0.08451 0.83393 0.0
H398 H 0.31401 0.14908 0.82316 0.0
C399 C 0.27678 0.0655 0.78308 0.0
C400 C 0.30305 0.07695 0.74543 0.0
H401 H 0.24221 0.07562 0.86024 0.0
H402 H 0.2658 0.04249 0.77116 0.0
C403 C 0.31665 0.10689 0.76208 0.0
C404 C 0.33426 0.73677 0.30958 0.0
C405 C 0.34028 0.70982 0.3512 0.0
H406 H 0.35172 0.7682 0.23224 0.0
C407 C 0.3704 0.69442 0.34848 0.0
H408 H 0.31129 0.74921 0.31102 0.0
C409 C 0.39361 0.70514 0.30216 0.0
C410 C 0.38717 0.73188 0.25985 0.0
H411 H 0.37548 0.67355 0.38014 0.0
H412 H 0.41636 0.69245 0.29889 0.0
C413 C 0.35749 0.74782 0.26486 0.0
C414 C 0.7246 0.85732 0.7788 0.0
C415 C 0.73458 0.86945 0.84219 0.0
H416 H 0.71156 0.86815 0.67573 0.0
C417 C 0.73501 0.90298 0.85205 0.0
H418 H 0.72343 0.83161 0.76986 0.0
C419 C 0.72816 0.92393 0.79784 0.0
C420 C 0.72075 0.91164 0.73314 0.0
H421 H 0.74237 0.91307 0.90043 0.0
H422 H 0.73067 0.94964 0.80553 0.0
C423 C 0.7178 0.87821 0.72484 0.0
C424 C 0.8695 0.83035 0.85754 0.0
C425 C 0.84815 0.80403 0.85799 0.0
H426 H 0.90763 0.85469 0.80626 0.0
C427 C 0.85186 0.77958 0.80964 0.0
H428 H 0.86747 0.84945 0.89451 0.0
C429 C 0.87505 0.78257 0.75902 0.0
C430 C 0.89505 0.80992 0.75621 0.0
H431 H 0.83589 0.75891 0.80887 0.0
H432 H 0.8767 0.76396 0.72086 0.0
C433 C 0.89271 0.83326 0.80723 0.0
C434 C 0.78602 0.37038 0.32104 0.0
C435 C 0.76737 0.38456 0.37197 0.0
H436 H 0.81534 0.37761 0.23378 0.0
C437 C 0.76589 0.41832 0.37589 0.0
H438 H 0.78786 0.3444 0.31711 0.0
C439 C 0.78161 0.43746 0.32753 0.0
C440 C 0.79954 0.42311 0.27549 0.0
H441 H 0.75168 0.42986 0.41464 0.0
H442 H 0.77946 0.46343 0.33028 0.0
C443 C 0.80202 0.3894 0.27361 0.0
C444 C 0.16771 0.17421 0.75744 0.0
C445 C 0.1583 0.17561 0.82571 0.0
H446 H 0.15439 0.18159 0.65338 0.0
C447 C 0.12589 0.18217 0.8406 0.0
H448 H 0.19239 0.16865 0.74428 0.0
C449 C 0.10396 0.18979 0.7879 0.0
C450 C 0.11429 0.1908 0.72003 0.0
H451 H 0.11806 0.18343 0.89283 0.0
H452 H 0.07959 0.19676 0.80048 0.0
C453 C 0.14598 0.18164 0.70531 0.0
C454 C 0.25245 0.59193 0.34969 0.0
C455 C 0.23355 0.61985 0.3556 0.0
H456 H 0.26078 0.54825 0.2966 0.0
C457 C 0.20499 0.62243 0.31668 0.0
H458 H 0.27446 0.58895 0.37926 0.0
C459 C 0.1967 0.59853 0.26967 0.0
C460 C 0.21687 0.57165 0.26048 0.0
H461 H 0.18962 0.64342 0.32069 0.0
H462 H 0.17508 0.60167 0.23894 0.0
C463 C 0.24432 0.56825 0.3026 0.0
C464 C 0.34906 0.74682 0.66227 0.0
C465 C 0.3385 0.71494 0.65342 0.0
H466 H 0.37796 0.77928 0.72162 0.0
C467 C 0.35065 0.69062 0.69665 0.0
H468 H 0.34004 0.76597 0.62954 0.0
C469 C 0.37173 0.69836 0.75004 0.0
C470 C 0.38163 0.73036 0.75977 0.0
H471 H 0.34267 0.6659 0.69123 0.0
H472 H 0.37983 0.67952 0.78457 0.0
C473 C 0.37077 0.7544 0.71459 0.0
C474 C 0.72591 0.90416 0.13267 0.0
C475 C 0.72535 0.87145 0.15115 0.0
H476 H 0.71974 0.95289 0.16437 0.0
C477 C 0.71426 0.86264 0.21572 0.0
H478 H 0.73398 0.91151 0.08273 0.0
C479 C 0.70688 0.8864 0.2633 0.0
C480 C 0.71004 0.91934 0.24667 0.0
H481 H 0.71375 0.83755 0.23124 0.0
H482 H 0.70106 0.87886 0.31447 0.0
C483 C 0.71796 0.92784 0.17962 0.0
C484 C 0.62443 0.3475 0.67282 0.0
C485 C 0.64834 0.32351 0.67462 0.0
H486 H 0.58377 0.36833 0.72217 0.0
C487 C 0.64729 0.29981 0.72582 0.0
H488 H 0.62464 0.36615 0.63407 0.0
C489 C 0.62356 0.30067 0.77552 0.0
C490 C 0.60053 0.32555 0.77601 0.0
H491 H 0.66508 0.2807 0.72798 0.0
H492 H 0.62358 0.28196 0.81413 0.0
C493 C 0.60089 0.34864 0.72323 0.0
C494 C 0.26528 0.08445 0.14936 0.0
C495 C 0.26662 0.1182 0.15431 0.0
H496 H 0.27838 0.03908 0.19473 0.0
C497 C 0.28398 0.1321 0.2085 0.0
H498 H 0.25216 0.07305 0.10811 0.0
C499 C 0.29918 0.11274 0.25739 0.0
C500 C 0.2971 0.07905 0.25361 0.0
H501 H 0.2857 0.15803 0.21345 0.0
H502 H 0.31178 0.12418 0.29933 0.0
C503 C 0.28018 0.06504 0.19893 0.0
C504 C 0.20483 0.30344 0.91158 0.0
C505 C 0.20925 0.28738 0.97401 0.0
H506 H 0.19795 0.34894 0.86129 0.0
C507 C 0.20538 0.30458 0.03462 0.0
H508 H 0.20729 0.29069 0.86406 0.0
C509 C 0.20002 0.33768 0.0331 0.0
C510 C 0.19843 0.35437 0.97088 0.0
H511 H 0.20805 0.29272 0.08358 0.0
H512 H 0.19953 0.35044 0.08093 0.0
C513 C 0.19955 0.33674 0.91004 0.0
C514 C 0.14277 0.73129 0.55957 0.0
C515 C 0.15936 0.72884 0.49791 0.0
H516 H 0.1009 0.74917 0.60985 0.0
C517 C 0.14404 0.73919 0.43752 0.0
H518 H 0.15388 0.72345 0.60694 0.0
C519 C 0.11388 0.75389 0.43929 0.0
C520 C 0.09831 0.75842 0.5014 0.0
H521 H 0.15594 0.73722 0.38901 0.0
H522 H 0.10315 0.76264 0.39221 0.0
C523 C 0.11245 0.74598 0.56127 0.0
C524 C 0.78409 0.67717 0.96176 0.0
C525 C 0.78871 0.69706 0.01867 0.0
H526 H 0.7906 0.63062 0.91808 0.0
C527 C 0.80416 0.6842 0.07676 0.0
H528 H 0.77248 0.68628 0.91591 0.0
C529 C 0.8145 0.65208 0.07793 0.0
C530 C 0.80953 0.63217 0.02115 0.0
H531 H 0.80817 0.69886 0.12138 0.0
H532 H 0.82593 0.64269 0.12371 0.0
C533 C 0.79433 0.64515 0.96302 0.0
C534 C 0.84097 0.28154 0.44694 0.0
C535 C 0.82218 0.27291 0.50321 0.0
H536 H 0.88752 0.28113 0.40144 0.0
C537 C 0.83665 0.25517 0.55652 0.0
H538 H 0.83068 0.2953 0.40505 0.0
C539 C 0.86928 0.24674 0.55407 0.0
C540 C 0.88822 0.2559 0.49836 0.0
H541 H 0.82286 0.24797 0.60047 0.0
H542 H 0.87972 0.23315 0.59603 0.0
C543 C 0.87357 0.27317 0.44458 0.0
C544 C 0.70307 0.19399 0.45575 0.0
C545 C 0.70201 0.21107 0.51717 0.0
H546 H 0.70228 0.14809 0.40748 0.0
C547 C 0.69443 0.19433 0.5772 0.0
H548 H 0.70844 0.2062 0.40839 0.0
C549 C 0.69056 0.16083 0.57651 0.0
C550 C 0.69408 0.1435 0.51579 0.0
H551 H 0.69309 0.20682 0.62525 0.0
H552 H 0.68615 0.14834 0.62399 0.0
C553 C 0.69917 0.16062 0.45506 0.0
C554 C 0.34571 0.23589 0.94968 0.0
C555 C 0.32939 0.22718 0.00929 0.0
H556 H 0.38717 0.25821 0.90626 0.0
C557 C 0.34457 0.23245 0.0725 0.0
H558 H 0.33478 0.23197 0.90013 0.0
C559 C 0.37473 0.24761 0.07595 0.0
C560 C 0.39042 0.25742 0.01628 0.0
H561 H 0.33267 0.22597 0.11934 0.0
H562 H 0.38554 0.25214 0.12535 0.0
C563 C 0.37587 0.25073 0.95313 0.0
C564 C 0.26774 0.82237 0.53454 0.0
C565 C 0.27299 0.80292 0.47748 0.0
H566 H 0.27571 0.86778 0.58229 0.0
C567 C 0.29003 0.8158 0.42227 0.0
H568 H 0.25496 0.81319 0.57828 0.0
C569 C 0.30183 0.84737 0.42453 0.0
C570 C 0.29684 0.86663 0.48204 0.0
H571 H 0.29457 0.80143 0.37766 0.0
H572 H 0.31475 0.85673 0.38115 0.0
C573 C 0.27955 0.85379 0.53682 0.0
C574 C 0.65128 0.75788 0.05144 0.0
C575 C 0.66784 0.76833 0.99342 0.0
H576 H 0.60538 0.74997 0.09753 0.0
C577 C 0.65007 0.77664 0.93458 0.0
H578 H 0.66425 0.75131 0.09757 0.0
C579 C 0.61648 0.77582 0.93464 0.0
C580 C 0.5999 0.76663 0.99341 0.0
H581 H 0.66204 0.78463 0.88884 0.0
H582 H 0.60342 0.7829 0.88891 0.0
C583 C 0.61759 0.75698 0.05138 0.0
loop_
_geom_bond_atom_site_label_1
_geom_bond_atom_site_label_2
_geom_bond_distance
_geom_bond_site_symmetry_2
_ccdc_geom_bond_type
Fe0 O2 1.918 . S
Fe0 O5 1.997 . S
Fe0 O6 2.002 . S
Fe0 O11 1.976 . S
Fe0 O14 1.996 . S
Fe1 O2 1.918 1_556 S
Fe1 O9 1.997 . S
Fe1 O12 1.996 . S
Fe1 O16 1.976 . S
Fe1 O19 2.002 . S
O2 Fe0 1.918 . S
O2 Fe1 1.918 1_554 S
O2 Fe3 1.918 . S
Fe3 O2 1.918 . S
Fe3 O4 2.002 . S
Fe3 O13 1.976 . S
Fe3 O17 1.996 1_554 S
Fe3 O20 1.997 1_554 S
O4 Fe3 2.002 . S
O4 C21 1.295 . S
O5 Fe0 1.997 . S
O5 C21 1.235 . S
O6 Fe0 2.002 . S
O6 C7 1.295 . S
C7 O6 1.295 . S
C7 O9 1.235 1_554 S
C8 O13 1.287 . S
C8 O14 1.255 . S
O9 Fe1 1.997 . S
O9 C7 1.235 1_556 S
C10 O16 1.287 . S
C10 O17 1.255 . S
O11 Fe0 1.976 . S
O11 C18 1.287 . S
O12 Fe1 1.996 . S
O12 C18 1.255 1_556 S
O13 Fe3 1.976 . S
O13 C8 1.287 . S
O14 Fe0 1.996 . S
O14 C8 1.255 . S
C15 O19 1.295 . S
C15 O20 1.235 . S
O16 Fe1 1.976 . S
O16 C10 1.287 . S
O17 Fe3 1.996 1_556 S
O17 C10 1.255 . S
C18 O11 1.287 . S
C18 O12 1.255 1_554 S
O19 Fe1 2.002 . S
O19 C15 1.295 . S
O20 Fe3 1.997 1_556 S
O20 C15 1.235 . S
C21 O4 1.295 . S
C21 O5 1.235 . S
Fe22 O24 1.918 . S
Fe22 O27 1.997 . S
Fe22 O28 2.002 . S
Fe22 O33 1.976 . S
Fe22 O36 1.996 . S
Fe23 O24 1.918 . S
Fe23 O31 1.997 . S
Fe23 O34 1.996 . S
Fe23 O38 1.976 . S
Fe23 O41 2.002 . S
O24 Fe22 1.918 . S
O24 Fe23 1.918 . S
O24 Fe25 1.918 . S
Fe25 O24 1.918 . S
Fe25 O26 2.002 . S
Fe25 O35 1.976 . S
Fe25 O39 1.996 . S
Fe25 O42 1.997 . S
O26 Fe25 2.002 . S
O26 C43 1.295 . S
O27 Fe22 1.997 . S
O27 C43 1.235 . S
O28 Fe22 2.002 . S
O28 C29 1.295 . S
C29 O28 1.295 . S
C29 O31 1.235 . S
C30 O35 1.287 . S
C30 O36 1.255 . S
O31 Fe23 1.997 . S
O31 C29 1.235 . S
C32 O38 1.287 . S
C32 O39 1.255 . S
O33 Fe22 1.976 . S
O33 C40 1.287 . S
O34 Fe23 1.996 . S
O34 C40 1.255 . S
O35 Fe25 1.976 . S
O35 C30 1.287 . S
O36 Fe22 1.996 . S
O36 C30 1.255 . S
C37 O41 1.295 . S
C37 O42 1.235 . S
O38 Fe23 1.976 . S
O38 C32 1.287 . S
O39 Fe25 1.996 . S
O39 C32 1.255 . S
C40 O33 1.287 . S
C40 O34 1.255 . S
O41 Fe23 2.002 . S
O41 C37 1.295 . S
O42 Fe25 1.997 . S
O42 C37 1.235 . S
C43 O26 1.295 . S
C43 O27 1.235 . S
Fe44 O46 1.918 1_556 S
Fe44 O49 1.997 . S
Fe44 O50 2.002 . S
Fe44 O55 1.976 . S
Fe44 O58 1.996 . S
Fe45 O46 1.918 . S
Fe45 O53 1.997 . S
Fe45 O56 1.996 . S
Fe45 O60 1.976 . S
Fe45 O63 2.002 . S
O46 Fe44 1.918 1_554 S
O46 Fe45 1.918 . S
O46 Fe47 1.918 . S
Fe47 O46 1.918 . S
Fe47 O48 2.002 1_554 S
Fe47 O57 1.976 1_554 S
Fe47 O61 1.996 . S
Fe47 O64 1.997 . S
O48 Fe47 2.002 1_556 S
O48 C65 1.295 . S
O49 Fe44 1.997 . S
O49 C65 1.235 . S
O50 Fe44 2.002 . S
O50 C51 1.295 1_556 S
C51 O50 1.295 1_554 S
C51 O53 1.235 . S
C52 O57 1.287 . S
C52 O58 1.255 . S
O53 Fe45 1.997 . S
O53 C51 1.235 . S
C54 O60 1.287 . S
C54 O61 1.255 . S
O55 Fe44 1.976 . S
O55 C62 1.287 1_556 S
O56 Fe45 1.996 . S
O56 C62 1.255 . S
O57 Fe47 1.976 1_556 S
O57 C52 1.287 . S
O58 Fe44 1.996 . S
O58 C52 1.255 . S
C59 O63 1.295 . S
C59 O64 1.235 . S
O60 Fe45 1.976 . S
O60 C54 1.287 . S
O61 Fe47 1.996 . S
O61 C54 1.255 . S
C62 O55 1.287 1_554 S
C62 O56 1.255 . S
O63 Fe45 2.002 . S
O63 C59 1.295 . S
O64 Fe47 1.997 . S
O64 C59 1.235 . S
C65 O48 1.295 . S
C65 O49 1.235 . S
Fe66 O68 1.918 . S
Fe66 O71 1.997 . S
Fe66 O72 2.002 . S
Fe66 O77 1.976 . S
Fe66 O80 1.996 . S
Fe67 O68 1.918 . S
Fe67 O75 1.997 . S
Fe67 O78 1.996 . S
Fe67 O82 1.976 . S
Fe67 O85 2.002 . S
O68 Fe66 1.918 . S
O68 Fe67 1.918 . S
O68 Fe69 1.918 . S
Fe69 O68 1.918 . S
Fe69 O70 2.002 . S
Fe69 O79 1.976 . S
Fe69 O83 1.996 . S
Fe69 O86 1.997 . S
O70 Fe69 2.002 . S
O70 C87 1.295 . S
O71 Fe66 1.997 . S
O71 C87 1.235 . S
O72 Fe66 2.002 . S
O72 C73 1.295 . S
C73 O72 1.295 . S
C73 O75 1.235 . S
C74 O79 1.287 . S
C74 O80 1.255 . S
O75 Fe67 1.997 . S
O75 C73 1.235 . S
C76 O82 1.287 . S
C76 O83 1.255 . S
O77 Fe66 1.976 . S
O77 C84 1.287 . S
O78 Fe67 1.996 . S
O78 C84 1.255 . S
O79 Fe69 1.976 . S
O79 C74 1.287 . S
O80 Fe66 1.996 . S
O80 C74 1.255 . S
C81 O85 1.295 . S
C81 O86 1.235 . S
O82 Fe67 1.976 . S
O82 C76 1.287 . S
O83 Fe69 1.996 . S
O83 C76 1.255 . S
C84 O77 1.287 . S
C84 O78 1.255 . S
O85 Fe67 2.002 . S
O85 C81 1.295 . S
O86 Fe69 1.997 . S
O86 C81 1.235 . S
C87 O70 1.295 . S
C87 O71 1.235 . S
P88 O99 1.490 . S
P88 C102 1.812 . S
P88 C108 1.803 . S
P88 C114 1.819 1_554 S
H89 C103 0.941 . S
H90 C104 0.939 . S
H91 C106 0.940 . S
H92 C107 0.940 . S
H93 C109 0.939 . S
H94 C110 0.942 . S
H95 C112 0.940 . S
H96 C113 0.939 . S
H97 C115 0.941 . S
H98 C119 0.939 . S
O99 P88 1.490 . S
H100 C116 0.939 . S
H101 C118 0.940 . S
C102 P88 1.812 . S
C102 C103 1.389 . S
C102 C107 1.391 . S
C103 H89 0.941 . S
C103 C102 1.389 . S
C103 C104 1.397 . S
C104 H90 0.939 . S
C104 C103 1.397 . S
C104 C105 1.378 . S
C105 C104 1.378 . S
C105 C106 1.378 . S
C106 H91 0.940 . S
C106 C105 1.378 . S
C106 C107 1.396 . S
C107 H92 0.940 . S
C107 C102 1.391 . S
C107 C106 1.396 . S
C108 P88 1.803 . S
C108 C109 1.378 1_554 S
C108 C113 1.400 . S
C109 H93 0.939 . S
C109 C108 1.378 1_556 S
C109 C110 1.361 . S
C110 H94 0.942 . S
C110 C109 1.361 . S
C110 C111 1.369 1_556 S
C111 C110 1.369 1_554 S
C111 C112 1.404 . S
C112 H95 0.940 . S
C112 C111 1.404 . S
C112 C113 1.389 . S
C113 H96 0.939 . S
C113 C108 1.400 . S
C113 C112 1.389 . S
C114 P88 1.819 1_556 S
C114 C115 1.391 . S
C114 C119 1.391 . S
C115 H97 0.941 . S
C115 C114 1.391 . S
C115 C116 1.396 . S
C116 H100 0.939 . S
C116 C115 1.396 . S
C116 C117 1.397 . S
C117 C116 1.397 . S
C117 C118 1.385 . S
C118 H101 0.940 . S
C118 C117 1.385 . S
C118 C119 1.388 . S
C119 H98 0.939 . S
C119 C114 1.391 . S
C119 C118 1.388 . S
P120 O131 1.490 1_655 S
P120 C134 1.812 . S
P120 C140 1.803 1_655 S
P120 C146 1.819 . S
H121 C135 0.941 . S
H122 C136 0.939 . S
H123 C138 0.940 . S
H124 C139 0.940 . S
H125 C141 0.939 . S
H126 C142 0.942 . S
H127 C144 0.940 . S
H128 C145 0.939 . S
H129 C147 0.941 . S
H130 C151 0.939 . S
O131 P120 1.490 1_455 S
H132 C148 0.939 . S
H133 C150 0.940 . S
C134 P120 1.812 . S
C134 C135 1.389 . S
C134 C139 1.391 . S
C135 H121 0.941 . S
C135 C134 1.389 . S
C135 C136 1.397 . S
C136 H122 0.939 . S
C136 C135 1.397 . S
C136 C137 1.378 . S
C137 C136 1.378 . S
C137 C138 1.378 . S
C138 H123 0.940 . S
C138 C137 1.378 . S
C138 C139 1.396 . S
C139 H124 0.940 . S
C139 C134 1.391 . S
C139 C138 1.396 . S
C140 P120 1.803 1_455 S
C140 C141 1.378 . S
C140 C145 1.400 . S
C141 H125 0.939 . S
C141 C140 1.378 . S
C141 C142 1.361 . S
C142 H126 0.942 . S
C142 C141 1.361 . S
C142 C143 1.369 . S
C143 C142 1.369 . S
C143 C144 1.404 . S
C144 H127 0.940 . S
C144 C143 1.404 . S
C144 C145 1.389 . S
C145 H128 0.939 . S
C145 C140 1.400 . S
C145 C144 1.389 . S
C146 P120 1.819 . S
C146 C147 1.391 . S
C146 C151 1.391 . S
C147 H129 0.941 . S
C147 C146 1.391 . S
C147 C148 1.396 . S
C148 H132 0.939 . S
C148 C147 1.396 . S
C148 C149 1.397 . S
C149 C148 1.397 . S
C149 C150 1.385 . S
C150 H133 0.940 . S
C150 C149 1.385 . S
C150 C151 1.388 . S
C151 H130 0.939 . S
C151 C146 1.391 . S
C151 C150 1.388 . S
P152 O163 1.490 . S
P152 C166 1.812 1_554 S
P152 C172 1.803 . S
P152 C178 1.819 . S
H153 C167 0.941 . S
H154 C168 0.939 . S
H155 C170 0.940 . S
H156 C171 0.940 . S
H157 C173 0.939 . S
H158 C174 0.942 . S
H159 C176 0.940 . S
H160 C177 0.939 . S
H161 C179 0.941 . S
H162 C183 0.939 . S
O163 P152 1.490 . S
H164 C180 0.939 . S
H165 C182 0.940 . S
C166 P152 1.812 1_556 S
C166 C167 1.389 . S
C166 C171 1.391 . S
C167 H153 0.941 . S
C167 C166 1.389 . S
C167 C168 1.397 . S
C168 H154 0.939 . S
C168 C167 1.397 . S
C168 C169 1.378 . S
C169 C168 1.378 . S
C169 C170 1.378 . S
C170 H155 0.940 . S
C170 C169 1.378 . S
C170 C171 1.396 . S
C171 H156 0.940 . S
C171 C166 1.391 . S
C171 C170 1.396 . S
C172 P152 1.803 . S
C172 C173 1.379 . S
C172 C177 1.399 1_554 S
C173 H157 0.939 . S
C173 C172 1.379 . S
C173 C174 1.361 . S
C174 H158 0.942 . S
C174 C173 1.361 . S
C174 C175 1.369 . S
C175 C174 1.369 . S
C175 C176 1.404 1_554 S
C176 H159 0.940 . S
C176 C175 1.404 1_556 S
C176 C177 1.389 . S
C177 H160 0.939 . S
C177 C172 1.399 1_556 S
C177 C176 1.389 . S
C178 P152 1.819 . S
C178 C179 1.391 . S
C178 C183 1.391 . S
C179 H161 0.941 . S
C179 C178 1.391 . S
C179 C180 1.396 . S
C180 H164 0.939 . S
C180 C179 1.396 . S
C180 C181 1.397 . S
C181 C180 1.397 . S
C181 C182 1.385 . S
C182 H165 0.940 . S
C182 C181 1.385 . S
C182 C183 1.388 . S
C183 H162 0.939 . S
C183 C178 1.391 . S
C183 C182 1.388 . S
P184 O195 1.490 . S
P184 C198 1.812 . S
P184 C204 1.803 1_455 S
P184 C210 1.819 . S
H185 C199 0.941 . S
H186 C200 0.939 . S
H187 C202 0.940 . S
H188 C203 0.940 . S
H189 C205 0.939 . S
H190 C206 0.942 . S
H191 C208 0.940 . S
H192 C209 0.939 . S
H193 C211 0.941 . S
H194 C215 0.939 . S
O195 P184 1.490 . S
H196 C212 0.939 . S
H197 C214 0.940 . S
C198 P184 1.812 . S
C198 C199 1.389 . S
C198 C203 1.391 . S
C199 H185 0.941 . S
C199 C198 1.389 . S
C199 C200 1.397 . S
C200 H186 0.939 . S
C200 C199 1.397 . S
C200 C201 1.378 . S
C201 C200 1.378 . S
C201 C202 1.378 . S
C202 H187 0.940 . S
C202 C201 1.378 . S
C202 C203 1.396 . S
C203 H188 0.940 . S
C203 C198 1.391 . S
C203 C202 1.396 . S
C204 P184 1.803 1_655 S
C204 C205 1.378 . S
C204 C209 1.400 . S
C205 H189 0.939 . S
C205 C204 1.378 . S
C205 C206 1.361 . S
C206 H190 0.942 . S
C206 C205 1.361 . S
C206 C207 1.369 . S
C207 C206 1.369 . S
C207 C208 1.404 . S
C208 H191 0.940 . S
C208 C207 1.404 . S
C208 C209 1.389 . S
C209 H192 0.939 . S
C209 C204 1.400 . S
C209 C208 1.389 . S
C210 P184 1.819 . S
C210 C211 1.391 . S
C210 C215 1.391 . S
C211 H193 0.941 . S
C211 C210 1.391 . S
C211 C212 1.396 . S
C212 H196 0.939 . S
C212 C211 1.396 . S
C212 C213 1.397 . S
C213 C212 1.397 . S
C213 C214 1.385 . S
C214 H197 0.940 . S
C214 C213 1.385 . S
C214 C215 1.388 . S
C215 H194 0.939 . S
C215 C210 1.391 . S
C215 C214 1.388 . S
P216 O227 1.489 . S
P216 C230 1.813 1_545 S
P216 C236 1.802 . S
P216 C242 1.820 1_545 S
H217 C231 0.941 . S
H218 C232 0.939 . S
H219 C234 0.940 . S
H220 C235 0.940 . S
H221 C237 0.939 . S
H222 C238 0.942 . S
H223 C240 0.940 . S
H224 C241 0.939 . S
H225 C243 0.941 . S
H226 C247 0.939 1_545 S
O227 P216 1.489 . S
H228 C244 0.939 . S
H229 C246 0.940 . S
C230 P216 1.813 1_565 S
C230 C231 1.389 . S
C230 C235 1.391 . S
C231 H217 0.941 . S
C231 C230 1.389 . S
C231 C232 1.397 . S
C232 H218 0.939 . S
C232 C231 1.397 . S
C232 C233 1.378 . S
C233 C232 1.378 . S
C233 C234 1.378 . S
C234 H219 0.940 . S
C234 C233 1.378 . S
C234 C235 1.396 . S
C235 H220 0.940 . S
C235 C230 1.391 . S
C235 C234 1.396 . S
C236 P216 1.802 . S
C236 C237 1.378 . S
C236 C241 1.400 . S
C237 H221 0.939 . S
C237 C236 1.378 . S
C237 C238 1.361 . S
C238 H222 0.942 . S
C238 C237 1.361 . S
C238 C239 1.369 . S
C239 C238 1.369 . S
C239 C240 1.404 . S
C240 H223 0.940 . S
C240 C239 1.404 . S
C240 C241 1.389 . S
C241 H224 0.939 . S
C241 C236 1.400 . S
C241 C240 1.389 . S
C242 P216 1.820 1_565 S
C242 C243 1.391 . S
C242 C247 1.391 . S
C243 H225 0.941 . S
C243 C242 1.391 . S
C243 C244 1.396 . S
C244 H228 0.939 . S
C244 C243 1.396 . S
C244 C245 1.397 . S
C245 C244 1.397 . S
C245 C246 1.385 . S
C246 H229 0.940 . S
C246 C245 1.385 . S
C246 C247 1.388 . S
C247 H226 0.939 1_565 S
C247 C242 1.391 . S
C247 C246 1.388 . S
P248 O259 1.490 . S
P248 C262 1.812 . S
P248 C268 1.803 . S
P248 C274 1.819 1_556 S
H249 C263 0.941 . S
H250 C264 0.939 . S
H251 C266 0.940 . S
H252 C267 0.940 . S
H253 C269 0.939 . S
H254 C270 0.942 . S
H255 C272 0.940 . S
H256 C273 0.939 . S
H257 C275 0.941 . S
H258 C279 0.939 . S
O259 P248 1.490 . S
H260 C276 0.939 . S
H261 C278 0.940 . S
C262 P248 1.812 . S
C262 C263 1.389 . S
C262 C267 1.391 . S
C263 H249 0.941 . S
C263 C262 1.389 . S
C263 C264 1.397 . S
C264 H250 0.939 . S
C264 C263 1.397 . S
C264 C265 1.378 . S
C265 C264 1.378 . S
C265 C266 1.378 . S
C266 H251 0.940 . S
C266 C265 1.378 . S
C266 C267 1.396 . S
C267 H252 0.940 . S
C267 C262 1.391 . S
C267 C266 1.396 . S
C268 P248 1.803 . S
C268 C269 1.378 1_556 S
C268 C273 1.400 . S
C269 H253 0.939 . S
C269 C268 1.378 1_554 S
C269 C270 1.361 . S
C270 H254 0.942 . S
C270 C269 1.361 . S
C270 C271 1.369 . S
C271 C270 1.369 . S
C271 C272 1.404 1_554 S
C272 H255 0.940 . S
C272 C271 1.404 1_556 S
C272 C273 1.389 . S
C273 H256 0.939 . S
C273 C268 1.400 . S
C273 C272 1.389 . S
C274 P248 1.819 1_554 S
C274 C275 1.391 . S
C274 C279 1.391 . S
C275 H257 0.941 . S
C275 C274 1.391 . S
C275 C276 1.396 . S
C276 H260 0.939 . S
C276 C275 1.396 . S
C276 C277 1.397 . S
C277 C276 1.397 . S
C277 C278 1.385 . S
C278 H261 0.940 . S
C278 C277 1.385 . S
C278 C279 1.388 . S
C279 H258 0.939 . S
C279 C274 1.391 . S
C279 C278 1.388 . S
P280 O291 1.490 . S
P280 C294 1.812 . S
P280 C300 1.803 1_545 S
P280 C306 1.819 . S
H281 C295 0.941 . S
H282 C296 0.939 . S
H283 C298 0.940 . S
H284 C299 0.940 . S
H285 C301 0.939 . S
H286 C302 0.942 . S
H287 C304 0.940 . S
H288 C305 0.939 . S
H289 C307 0.941 . S
H290 C311 0.939 1_565 S
O291 P280 1.490 . S
H292 C308 0.939 . S
H293 C310 0.940 . S
C294 P280 1.812 . S
C294 C295 1.389 . S
C294 C299 1.391 . S
C295 H281 0.941 . S
C295 C294 1.389 . S
C295 C296 1.397 . S
C296 H282 0.939 . S
C296 C295 1.397 . S
C296 C297 1.378 . S
C297 C296 1.378 . S
C297 C298 1.378 . S
C298 H283 0.940 . S
C298 C297 1.378 . S
C298 C299 1.396 . S
C299 H284 0.940 . S
C299 C294 1.391 . S
C299 C298 1.396 . S
C300 P280 1.803 1_565 S
C300 C301 1.378 . S
C300 C305 1.400 . S
C301 H285 0.939 . S
C301 C300 1.378 . S
C301 C302 1.361 . S
C302 H286 0.942 . S
C302 C301 1.361 . S
C302 C303 1.369 . S
C303 C302 1.369 . S
C303 C304 1.404 . S
C304 H287 0.940 . S
C304 C303 1.404 . S
C304 C305 1.389 . S
C305 H288 0.939 . S
C305 C300 1.400 . S
C305 C304 1.389 . S
C306 P280 1.819 . S
C306 C307 1.391 . S
C306 C311 1.391 . S
C307 H289 0.941 . S
C307 C306 1.391 . S
C307 C308 1.396 . S
C308 H292 0.939 . S
C308 C307 1.396 . S
C308 C309 1.397 . S
C309 C308 1.397 . S
C309 C310 1.385 . S
C310 H293 0.940 . S
C310 C309 1.385 . S
C310 C311 1.388 . S
C311 H290 0.939 1_545 S
C311 C306 1.391 . S
C311 C310 1.388 . S
P312 O323 1.490 . S
P312 C326 1.812 . S
P312 C332 1.803 . S
P312 C338 1.819 1_554 S
H313 C327 0.941 . S
H314 C328 0.939 . S
H315 C330 0.940 . S
H316 C331 0.940 . S
H317 C333 0.939 . S
H318 C334 0.942 . S
H319 C336 0.940 . S
H320 C337 0.939 . S
H321 C339 0.941 . S
H322 C343 0.939 . S
O323 P312 1.490 . S
H324 C340 0.939 . S
H325 C342 0.940 . S
C326 P312 1.812 . S
C326 C327 1.389 . S
C326 C331 1.391 . S
C327 H313 0.941 . S
C327 C326 1.389 . S
C327 C328 1.397 . S
C328 H314 0.939 . S
C328 C327 1.397 . S
C328 C329 1.378 . S
C329 C328 1.378 . S
C329 C330 1.378 . S
C330 H315 0.940 . S
C330 C329 1.378 . S
C330 C331 1.396 . S
C331 H316 0.940 . S
C331 C326 1.391 . S
C331 C330 1.396 . S
C332 P312 1.803 . S
C332 C333 1.378 1_554 S
C332 C337 1.400 . S
C333 H317 0.939 . S
C333 C332 1.378 1_556 S
C333 C334 1.361 . S
C334 H318 0.942 . S
C334 C333 1.361 . S
C334 C335 1.369 1_556 S
C335 C334 1.369 1_554 S
C335 C336 1.404 . S
C336 H319 0.940 . S
C336 C335 1.404 . S
C336 C337 1.389 . S
C337 H320 0.939 . S
C337 C332 1.400 . S
C337 C336 1.389 . S
C338 P312 1.819 1_556 S
C338 C339 1.391 . S
C338 C343 1.391 . S
C339 H321 0.941 . S
C339 C338 1.391 . S
C339 C340 1.396 . S
C340 H324 0.939 . S
C340 C339 1.396 . S
C340 C341 1.397 . S
C341 C340 1.397 . S
C341 C342 1.385 . S
C342 H325 0.940 . S
C342 C341 1.385 . S
C342 C343 1.388 . S
C343 H322 0.939 . S
C343 C338 1.391 . S
C343 C342 1.388 . S
C344 C345 1.387 . S
C344 H348 0.950 . S
C344 C353 1.390 . S
C345 C344 1.387 . S
C345 C347 1.387 . S
H346 C353 0.950 . S
C347 C345 1.387 . S
C347 C349 1.390 . S
C347 H351 0.950 . S
H348 C344 0.950 . S
C349 C347 1.390 . S
C349 C350 1.387 . S
C349 H352 0.950 . S
C350 C349 1.387 . S
C350 C353 1.387 . S
H351 C347 0.950 . S
H352 C349 0.950 . S
C353 C344 1.390 . S
C353 H346 0.950 . S
C353 C350 1.387 . S
C354 C355 1.387 . S
C354 H358 0.950 . S
C354 C363 1.390 . S
C355 C354 1.387 . S
C355 C357 1.387 . S
H356 C363 0.950 . S
C357 C355 1.387 . S
C357 C359 1.390 . S
C357 H361 0.950 . S
H358 C354 0.950 . S
C359 C357 1.390 . S
C359 C360 1.387 . S
C359 H362 0.950 . S
C360 C359 1.387 . S
C360 C363 1.387 . S
H361 C357 0.950 . S
H362 C359 0.950 . S
C363 C354 1.390 . S
C363 H356 0.950 . S
C363 C360 1.387 . S
C364 C365 1.387 . S
C364 H368 0.950 . S
C364 C373 1.390 . S
C365 C364 1.387 . S
C365 C367 1.387 . S
H366 C373 0.950 . S
C367 C365 1.387 . S
C367 C369 1.390 . S
C367 H371 0.950 . S
H368 C364 0.950 . S
C369 C367 1.390 . S
C369 C370 1.387 . S
C369 H372 0.950 . S
C370 C369 1.387 . S
C370 C373 1.387 . S
H371 C367 0.950 . S
H372 C369 0.950 . S
C373 C364 1.390 . S
C373 H366 0.950 . S
C373 C370 1.387 . S
C374 C375 1.387 . S
C374 H378 0.950 . S
C374 C383 1.390 . S
C375 C374 1.387 . S
C375 C377 1.387 . S
H376 C383 0.950 . S
C377 C375 1.387 . S
C377 C379 1.390 . S
C377 H381 0.950 . S
H378 C374 0.950 . S
C379 C377 1.390 . S
C379 C380 1.387 . S
C379 H382 0.950 . S
C380 C379 1.387 . S
C380 C383 1.387 . S
H381 C377 0.950 . S
H382 C379 0.950 . S
C383 C374 1.390 . S
C383 H376 0.950 . S
C383 C380 1.387 . S
C384 C385 1.387 . S
C384 H388 0.950 . S
C384 C393 1.390 . S
C385 C384 1.387 . S
C385 C387 1.387 . S
H386 C393 0.950 . S
C387 C385 1.387 . S
C387 C389 1.390 . S
C387 H391 0.950 . S
H388 C384 0.950 . S
C389 C387 1.390 . S
C389 C390 1.387 . S
C389 H392 0.950 . S
C390 C389 1.387 . S
C390 C393 1.387 . S
H391 C387 0.950 . S
H392 C389 0.950 . S
C393 C384 1.390 . S
C393 H386 0.950 . S
C393 C390 1.387 . S
C394 C395 1.387 . S
C394 H398 0.950 . S
C394 C403 1.390 . S
C395 C394 1.387 . S
C395 C397 1.387 . S
H396 C403 0.950 . S
C397 C395 1.387 . S
C397 C399 1.390 . S
C397 H401 0.950 . S
H398 C394 0.950 . S
C399 C397 1.390 . S
C399 C400 1.387 . S
C399 H402 0.950 . S
C400 C399 1.387 . S
C400 C403 1.387 . S
H401 C397 0.950 . S
H402 C399 0.950 . S
C403 C394 1.390 . S
C403 H396 0.950 . S
C403 C400 1.387 . S
C404 C405 1.387 . S
C404 H408 0.950 . S
C404 C413 1.390 . S
C405 C404 1.387 . S
C405 C407 1.387 . S
H406 C413 0.950 . S
C407 C405 1.387 . S
C407 C409 1.390 . S
C407 H411 0.950 . S
H408 C404 0.950 . S
C409 C407 1.390 . S
C409 C410 1.387 . S
C409 H412 0.950 . S
C410 C409 1.387 . S
C410 C413 1.387 . S
H411 C407 0.950 . S
H412 C409 0.950 . S
C413 C404 1.390 . S
C413 H406 0.950 . S
C413 C410 1.387 . S
C414 C415 1.387 . S
C414 H418 0.950 . S
C414 C423 1.390 . S
C415 C414 1.387 . S
C415 C417 1.387 . S
H416 C423 0.950 . S
C417 C415 1.387 . S
C417 C419 1.390 . S
C417 H421 0.950 . S
H418 C414 0.950 . S
C419 C417 1.390 . S
C419 C420 1.387 . S
C419 H422 0.950 . S
C420 C419 1.387 . S
C420 C423 1.387 . S
H421 C417 0.950 . S
H422 C419 0.950 . S
C423 C414 1.390 . S
C423 H416 0.950 . S
C423 C420 1.387 . S
C424 C425 1.387 . S
C424 H428 0.950 . S
C424 C433 1.390 . S
C425 C424 1.387 . S
C425 C427 1.387 . S
H426 C433 0.950 . S
C427 C425 1.387 . S
C427 C429 1.390 . S
C427 H431 0.950 . S
H428 C424 0.950 . S
C429 C427 1.390 . S
C429 C430 1.387 . S
C429 H432 0.950 . S
C430 C429 1.387 . S
C430 C433 1.387 . S
H431 C427 0.950 . S
H432 C429 0.950 . S
C433 C424 1.390 . S
C433 H426 0.950 . S
C433 C430 1.387 . S
C434 C435 1.387 . S
C434 H438 0.950 . S
C434 C443 1.390 . S
C435 C434 1.387 . S
C435 C437 1.387 . S
H436 C443 0.950 . S
C437 C435 1.387 . S
C437 C439 1.390 . S
C437 H441 0.950 . S
H438 C434 0.950 . S
C439 C437 1.390 . S
C439 C440 1.387 . S
C439 H442 0.950 . S
C440 C439 1.387 . S
C440 C443 1.387 . S
H441 C437 0.950 . S
H442 C439 0.950 . S
C443 C434 1.390 . S
C443 H436 0.950 . S
C443 C440 1.387 . S
C444 C445 1.387 . S
C444 H448 0.950 . S
C444 C453 1.390 . S
C445 C444 1.387 . S
C445 C447 1.387 . S
H446 C453 0.950 . S
C447 C445 1.387 . S
C447 C449 1.390 . S
C447 H451 0.950 . S
H448 C444 0.950 . S
C449 C447 1.390 . S
C449 C450 1.387 . S
C449 H452 0.950 . S
C450 C449 1.387 . S
C450 C453 1.387 . S
H451 C447 0.950 . S
H452 C449 0.950 . S
C453 C444 1.390 . S
C453 H446 0.950 . S
C453 C450 1.387 . S
C454 C455 1.387 . S
C454 H458 0.950 . S
C454 C463 1.390 . S
C455 C454 1.387 . S
C455 C457 1.387 . S
H456 C463 0.950 . S
C457 C455 1.387 . S
C457 C459 1.390 . S
C457 H461 0.950 . S
H458 C454 0.950 . S
C459 C457 1.390 . S
C459 C460 1.387 . S
C459 H462 0.950 . S
C460 C459 1.387 . S
C460 C463 1.387 . S
H461 C457 0.950 . S
H462 C459 0.950 . S
C463 C454 1.390 . S
C463 H456 0.950 . S
C463 C460 1.387 . S
C464 C465 1.387 . S
C464 H468 0.950 . S
C464 C473 1.390 . S
C465 C464 1.387 . S
C465 C467 1.387 . S
H466 C473 0.950 . S
C467 C465 1.387 . S
C467 C469 1.390 . S
C467 H471 0.950 . S
H468 C464 0.950 . S
C469 C467 1.390 . S
C469 C470 1.387 . S
C469 H472 0.950 . S
C470 C469 1.387 . S
C470 C473 1.387 . S
H471 C467 0.950 . S
H472 C469 0.950 . S
C473 C464 1.390 . S
C473 H466 0.950 . S
C473 C470 1.387 . S
C474 C475 1.387 . S
C474 H478 0.950 . S
C474 C483 1.390 . S
C475 C474 1.387 . S
C475 C477 1.387 . S
H476 C483 0.950 . S
C477 C475 1.387 . S
C477 C479 1.390 . S
C477 H481 0.950 . S
H478 C474 0.950 . S
C479 C477 1.390 . S
C479 C480 1.387 . S
C479 H482 0.950 . S
C480 C479 1.387 . S
C480 C483 1.387 . S
H481 C477 0.950 . S
H482 C479 0.950 . S
C483 C474 1.390 . S
C483 H476 0.950 . S
C483 C480 1.387 . S
C484 C485 1.387 . S
C484 H488 0.950 . S
C484 C493 1.390 . S
C485 C484 1.387 . S
C485 C487 1.387 . S
H486 C493 0.950 . S
C487 C485 1.387 . S
C487 C489 1.390 . S
C487 H491 0.950 . S
H488 C484 0.950 . S
C489 C487 1.390 . S
C489 C490 1.387 . S
C489 H492 0.950 . S
C490 C489 1.387 . S
C490 C493 1.387 . S
H491 C487 0.950 . S
H492 C489 0.950 . S
C493 C484 1.390 . S
C493 H486 0.950 . S
C493 C490 1.387 . S
C494 C495 1.387 . S
C494 H498 0.950 . S
C494 C503 1.390 . S
C495 C494 1.387 . S
C495 C497 1.387 . S
H496 C503 0.950 . S
C497 C495 1.387 . S
C497 C499 1.390 . S
C497 H501 0.950 . S
H498 C494 0.950 . S
C499 C497 1.390 . S
C499 C500 1.387 . S
C499 H502 0.950 . S
C500 C499 1.387 . S
C500 C503 1.387 . S
H501 C497 0.950 . S
H502 C499 0.950 . S
C503 C494 1.390 . S
C503 H496 0.950 . S
C503 C500 1.387 . S
C504 C505 1.387 1_556 S
C504 H508 0.950 . S
C504 C513 1.390 . S
C505 C504 1.387 1_554 S
C505 C507 1.387 . S
H506 C513 0.950 . S
C507 C505 1.387 . S
C507 C509 1.390 . S
C507 H511 0.950 . S
H508 C504 0.950 . S
C509 C507 1.390 . S
C509 C510 1.387 . S
C509 H512 0.950 . S
C510 C509 1.387 . S
C510 C513 1.387 1_554 S
H511 C507 0.950 . S
H512 C509 0.950 . S
C513 C504 1.390 . S
C513 H506 0.950 . S
C513 C510 1.387 1_556 S
C514 C515 1.387 . S
C514 H518 0.950 . S
C514 C523 1.390 . S
C515 C514 1.387 . S
C515 C517 1.387 . S
H516 C523 0.950 . S
C517 C515 1.387 . S
C517 C519 1.390 . S
C517 H521 0.950 . S
H518 C514 0.950 . S
C519 C517 1.390 . S
C519 C520 1.387 . S
C519 H522 0.950 . S
C520 C519 1.387 . S
C520 C523 1.387 . S
H521 C517 0.950 . S
H522 C519 0.950 . S
C523 C514 1.390 . S
C523 H516 0.950 . S
C523 C520 1.387 . S
C524 C525 1.387 1_556 S
C524 H528 0.950 . S
C524 C533 1.390 . S
C525 C524 1.387 1_554 S
C525 C527 1.387 . S
H526 C533 0.950 . S
C527 C525 1.387 . S
C527 C529 1.390 . S
C527 H531 0.950 . S
H528 C524 0.950 . S
C529 C527 1.390 . S
C529 C530 1.387 . S
C529 H532 0.950 . S
C530 C529 1.387 . S
C530 C533 1.387 1_554 S
H531 C527 0.950 . S
H532 C529 0.950 . S
C533 C524 1.390 . S
C533 H526 0.950 . S
C533 C530 1.387 1_556 S
C534 C535 1.387 . S
C534 H538 0.950 . S
C534 C543 1.390 . S
C535 C534 1.387 . S
C535 C537 1.387 . S
H536 C543 0.950 . S
C537 C535 1.387 . S
C537 C539 1.390 . S
C537 H541 0.950 . S
H538 C534 0.950 . S
C539 C537 1.390 . S
C539 C540 1.387 . S
C539 H542 0.950 . S
C540 C539 1.387 . S
C540 C543 1.387 . S
H541 C537 0.950 . S
H542 C539 0.950 . S
C543 C534 1.390 . S
C543 H536 0.950 . S
C543 C540 1.387 . S
C544 C545 1.387 . S
C544 H548 0.950 . S
C544 C553 1.390 . S
C545 C544 1.387 . S
C545 C547 1.387 . S
H546 C553 0.950 . S
C547 C545 1.387 . S
C547 C549 1.390 . S
C547 H551 0.950 . S
H548 C544 0.950 . S
C549 C547 1.390 . S
C549 C550 1.387 . S
C549 H552 0.950 . S
C550 C549 1.387 . S
C550 C553 1.387 . S
H551 C547 0.950 . S
H552 C549 0.950 . S
C553 C544 1.390 . S
C553 H546 0.950 . S
C553 C550 1.387 . S
C554 C555 1.387 1_556 S
C554 H558 0.950 . S
C554 C563 1.390 . S
C555 C554 1.387 1_554 S
C555 C557 1.387 . S
H556 C563 0.950 . S
C557 C555 1.387 . S
C557 C559 1.390 . S
C557 H561 0.950 . S
H558 C554 0.950 . S
C559 C557 1.390 . S
C559 C560 1.387 . S
C559 H562 0.950 . S
C560 C559 1.387 . S
C560 C563 1.387 1_554 S
H561 C557 0.950 . S
H562 C559 0.950 . S
C563 C554 1.390 . S
C563 H556 0.950 . S
C563 C560 1.387 1_556 S
C564 C565 1.387 . S
C564 H568 0.950 . S
C564 C573 1.390 . S
C565 C564 1.387 . S
C565 C567 1.387 . S
H566 C573 0.950 . S
C567 C565 1.387 . S
C567 C569 1.390 . S
C567 H571 0.950 . S
H568 C564 0.950 . S
C569 C567 1.390 . S
C569 C570 1.387 . S
C569 H572 0.950 . S
C570 C569 1.387 . S
C570 C573 1.387 . S
H571 C567 0.950 . S
H572 C569 0.950 . S
C573 C564 1.390 . S
C573 H566 0.950 . S
C573 C570 1.387 . S
C574 C575 1.387 . S
C574 H578 0.950 . S
C574 C583 1.390 . S
C575 C574 1.387 . S
C575 C577 1.387 1_554 S
H576 C583 0.950 . S
C577 C575 1.387 1_556 S
C577 C579 1.390 . S
C577 H581 0.950 . S
H578 C574 0.950 . S
C579 C577 1.390 . S
C579 C580 1.387 1_556 S
C579 H582 0.950 . S
C580 C579 1.387 1_554 S
C580 C583 1.387 . S
H581 C577 0.950 . S
H582 C579 0.950 . S
C583 C574 1.390 . S
C583 H576 0.950 . S
C583 C580 1.387 . S
C345 C21 1.591 . S
C350 C201 1.500 . S
C355 C40 1.707 . S
C360 C117 1.510 . S
C370 C149 1.591 . S
C365 C54 1.580 . S
C375 C73 1.729 . S
C380 C169 1.720 . S
C390 C277 1.593 . S
C385 C74 1.582 . S
C400 C297 1.693 . S
C395 C10 1.700 . S
C410 C329 1.500 . S
C405 C37 1.587 . S
C420 C245 1.538 . S
C415 C65 1.736 . S
C425 C52 1.579 . S
C430 C137 1.586 . S
C435 C87 1.737 . S
C440 C181 1.736 . S
C445 C15 1.603 . S
C450 C213 1.490 . S
C460 C105 1.518 . S
C455 C32 1.688 . S
C465 C29 1.605 . S
C470 C341 1.489 . S
C480 C233 1.558 . S
C475 C59 1.730 . S
C490 C265 1.585 . S
C485 C84 1.576 . S
C495 C8 1.696 . S
C500 C309 1.695 . S
C510 C111 1.593 . S
C505 C7 1.786 . S
C520 C143 1.660 . S
C515 C30 1.638 . S
C525 C62 1.794 . S
C530 C175 1.792 . S
C535 C81 1.613 . S
C540 C207 1.522 . S
C550 C239 1.598 . S
C545 C76 1.793 . S
C555 C18 1.638 . S
C560 C271 1.660 . S
C565 C43 1.785 . S
C570 C303 1.776 . S
C575 C51 1.613 . S
C580 C335 1.522 . S
