# Generated by pormake.
# Topology ctn, (3,4)-cn, num edge types: 1
# Building blocks:
#     Node 0, Type 0, BuildingBlock: MIDCAF_clean_linker_0, # of connection points: 3
#     Node 1, Type 0, BuildingBlock: MIDCAF_clean_linker_0, # of connection points: 3
#     Node 2, Type 0, BuildingBlock: MIDCAF_clean_linker_0, # of connection points: 3
#     Node 3, Type 0, BuildingBlock: MIDCAF_clean_linker_0, # of connection points: 3
#     Node 4, Type 0, BuildingBlock: MIDCAF_clean_linker_0, # of connection points: 3
#     Node 5, Type 0, BuildingBlock: MIDCAF_clean_linker_0, # of connection points: 3
#     Node 6, Type 0, BuildingBlock: MIDCAF_clean_linker_0, # of connection points: 3
#     Node 7, Type 0, BuildingBlock: MIDCAF_clean_linker_0, # of connection points: 3
#     Node 8, Type 0, BuildingBlock: MIDCAF_clean_linker_0, # of connection points: 3
#     Node 9, Type 0, BuildingBlock: MIDCAF_clean_linker_0, # of connection points: 3
#     Node 10, Type 0, BuildingBlock: MIDCAF_clean_linker_0, # of connection points: 3
#     Node 11, Type 0, BuildingBlock: MIDCAF_clean_linker_0, # of connection points: 3
#     Node 12, Type 0, BuildingBlock: MIDCAF_clean_linker_0, # of connection points: 3
#     Node 13, Type 0, BuildingBlock: MIDCAF_clean_linker_0, # of connection points: 3
#     Node 14, Type 0, BuildingBlock: MIDCAF_clean_linker_0, # of connection points: 3
#     Node 15, Type 0, BuildingBlock: MIDCAF_clean_linker_0, # of connection points: 3
#     Node 16, Type 1, BuildingBlock: UXUYUI_clean_sbu_0, # of connection points: 4
#     Node 17, Type 1, BuildingBlock: UXUYUI_clean_sbu_0, # of connection points: 4
#     Node 18, Type 1, BuildingBlock: UXUYUI_clean_sbu_0, # of connection points: 4
#     Node 19, Type 1, BuildingBlock: UXUYUI_clean_sbu_0, # of connection points: 4
#     Node 20, Type 1, BuildingBlock: UXUYUI_clean_sbu_0, # of connection points: 4
#     Node 21, Type 1, BuildingBlock: UXUYUI_clean_sbu_0, # of connection points: 4
#     Node 22, Type 1, BuildingBlock: UXUYUI_clean_sbu_0, # of connection points: 4
#     Node 23, Type 1, BuildingBlock: UXUYUI_clean_sbu_0, # of connection points: 4
#     Node 24, Type 1, BuildingBlock: UXUYUI_clean_sbu_0, # of connection points: 4
#     Node 25, Type 1, BuildingBlock: UXUYUI_clean_sbu_0, # of connection points: 4
#     Node 26, Type 1, BuildingBlock: UXUYUI_clean_sbu_0, # of connection points: 4
#     Node 27, Type 1, BuildingBlock: UXUYUI_clean_sbu_0, # of connection points: 4
#     Edge 28, Type (0, 1), BuildingBlock: OJICUG_clean_linker_0, # of connection points: 2
#     Edge 29, Type (0, 1), BuildingBlock: OJICUG_clean_linker_0, # of connection points: 2
#     Edge 30, Type (0, 1), BuildingBlock: OJICUG_clean_linker_0, # of connection points: 2
#     Edge 31, Type (0, 1), BuildingBlock: OJICUG_clean_linker_0, # of connection points: 2
#     Edge 32, Type (0, 1), BuildingBlock: OJICUG_clean_linker_0, # of connection points: 2
#     Edge 33, Type (0, 1), BuildingBlock: OJICUG_clean_linker_0, # of connection points: 2
#     Edge 34, Type (0, 1), BuildingBlock: OJICUG_clean_linker_0, # of connection points: 2
#     Edge 35, Type (0, 1), BuildingBlock: OJICUG_clean_linker_0, # of connection points: 2
#     Edge 36, Type (0, 1), BuildingBlock: OJICUG_clean_linker_0, # of connection points: 2
#     Edge 37, Type (0, 1), BuildingBlock: OJICUG_clean_linker_0, # of connection points: 2
#     Edge 38, Type (0, 1), BuildingBlock: OJICUG_clean_linker_0, # of connection points: 2
#     Edge 39, Type (0, 1), BuildingBlock: OJICUG_clean_linker_0, # of connection points: 2
#     Edge 40, Type (0, 1), BuildingBlock: OJICUG_clean_linker_0, # of connection points: 2
#     Edge 41, Type (0, 1), BuildingBlock: OJICUG_clean_linker_0, # of connection points: 2
#     Edge 42, Type (0, 1), BuildingBlock: OJICUG_clean_linker_0, # of connection points: 2
#     Edge 43, Type (0, 1), BuildingBlock: OJICUG_clean_linker_0, # of connection points: 2
#     Edge 44, Type (0, 1), BuildingBlock: OJICUG_clean_linker_0, # of connection points: 2
#     Edge 45, Type (0, 1), BuildingBlock: OJICUG_clean_linker_0, # of connection points: 2
#     Edge 46, Type (0, 1), BuildingBlock: OJICUG_clean_linker_0, # of connection points: 2
#     Edge 47, Type (0, 1), BuildingBlock: OJICUG_clean_linker_0, # of connection points: 2
#     Edge 48, Type (0, 1), BuildingBlock: OJICUG_clean_linker_0, # of connection points: 2
#     Edge 49, Type (0, 1), BuildingBlock: OJICUG_clean_linker_0, # of connection points: 2
#     Edge 50, Type (0, 1), BuildingBlock: OJICUG_clean_linker_0, # of connection points: 2
#     Edge 51, Type (0, 1), BuildingBlock: OJICUG_clean_linker_0, # of connection points: 2
#     Edge 52, Type (0, 1), BuildingBlock: OJICUG_clean_linker_0, # of connection points: 2
#     Edge 53, Type (0, 1), BuildingBlock: OJICUG_clean_linker_0, # of connection points: 2
#     Edge 54, Type (0, 1), BuildingBlock: OJICUG_clean_linker_0, # of connection points: 2
#     Edge 55, Type (0, 1), BuildingBlock: OJICUG_clean_linker_0, # of connection points: 2
#     Edge 56, Type (0, 1), BuildingBlock: OJICUG_clean_linker_0, # of connection points: 2
#     Edge 57, Type (0, 1), BuildingBlock: OJICUG_clean_linker_0, # of connection points: 2
#     Edge 58, Type (0, 1), BuildingBlock: OJICUG_clean_linker_0, # of connection points: 2
#     Edge 59, Type (0, 1), BuildingBlock: OJICUG_clean_linker_0, # of connection points: 2
#     Edge 60, Type (0, 1), BuildingBlock: OJICUG_clean_linker_0, # of connection points: 2
#     Edge 61, Type (0, 1), BuildingBlock: OJICUG_clean_linker_0, # of connection points: 2
#     Edge 62, Type (0, 1), BuildingBlock: OJICUG_clean_linker_0, # of connection points: 2
#     Edge 63, Type (0, 1), BuildingBlock: OJICUG_clean_linker_0, # of connection points: 2
#     Edge 64, Type (0, 1), BuildingBlock: OJICUG_clean_linker_0, # of connection points: 2
#     Edge 65, Type (0, 1), BuildingBlock: OJICUG_clean_linker_0, # of connection points: 2
#     Edge 66, Type (0, 1), BuildingBlock: OJICUG_clean_linker_0, # of connection points: 2
#     Edge 67, Type (0, 1), BuildingBlock: OJICUG_clean_linker_0, # of connection points: 2
#     Edge 68, Type (0, 1), BuildingBlock: OJICUG_clean_linker_0, # of connection points: 2
#     Edge 69, Type (0, 1), BuildingBlock: OJICUG_clean_linker_0, # of connection points: 2
#     Edge 70, Type (0, 1), BuildingBlock: OJICUG_clean_linker_0, # of connection points: 2
#     Edge 71, Type (0, 1), BuildingBlock: OJICUG_clean_linker_0, # of connection points: 2
#     Edge 72, Type (0, 1), BuildingBlock: OJICUG_clean_linker_0, # of connection points: 2
#     Edge 73, Type (0, 1), BuildingBlock: OJICUG_clean_linker_0, # of connection points: 2
#     Edge 74, Type (0, 1), BuildingBlock: OJICUG_clean_linker_0, # of connection points: 2
#     Edge 75, Type (0, 1), BuildingBlock: OJICUG_clean_linker_0, # of connection points: 2
# Relax obj value: 0.000
# Max RMSD: 0.004
# Mean RMSD: 0.003
data_MOF--net-ctn--node1-UXUYUI_clean_sbu_0--node2-MIDCAF_clean_linker_0--edge1-OJICUG_clean_linker_0
_symmetry_space_group_name_H-M    P1
_symmetry_Int_Tables_number       1
_symmetry_cell_setting            triclinic
loop_
_symmetry_equiv_pos_as_xyz
'x, y, z'
_cell_length_a     65.488041
_cell_length_b     65.497899
_cell_length_c     65.486606
_cell_angle_alpha  90.032639
_cell_angle_beta   90.029575
_cell_angle_gamma 90.090302
loop_
_atom_site_label
_atom_site_type_symbol
_atom_site_fract_x
_atom_site_fract_y
_atom_site_fract_z
_atom_type_partial_charge
C0 C 0.98258 0.04298 0.0925 0.0
C1 C 0.98527 0.02632 0.10575 0.0
C2 C 1.00132 0.01261 0.10195 0.0
C3 C 0.01442 0.01553 0.08535 0.0
H4 H 0.06596 0.99257 0.05871 0.0
H5 H 0.09476 0.96971 0.05347 0.0
H6 H 0.11185 0.00344 0.99945 0.0
H7 H 0.08289 0.02616 0.00442 0.0
H8 H 0.05744 0.06452 0.99117 0.0
H9 H 0.05252 0.09377 0.96875 0.0
H10 H 0.00182 0.11371 0.00586 0.0
H11 H 0.00685 0.0847 0.02849 0.0
H12 H 0.99306 0.0589 0.06601 0.0
H13 H 0.9702 0.05368 0.09484 0.0
H14 H 0.00397 0.99976 0.112 0.0
H15 H 0.02667 0.00469 0.083 0.0
N16 N 0.04165 0.0225 0.05127 0.0
N17 N 0.05151 0.04145 0.02254 0.0
N18 N 0.02296 0.05143 0.04166 0.0
C19 C 0.05459 0.02538 0.0353 0.0
C20 C 0.03573 0.05455 0.0256 0.0
C21 C 0.02577 0.03543 0.05455 0.0
C22 C 0.07204 0.01128 0.032 0.0
C23 C 0.0758 0.99514 0.04567 0.0
C24 C 0.0924 0.98207 0.04274 0.0
C25 C 0.10563 0.98477 0.02607 0.0
C26 C 0.10182 1.0008 0.01232 0.0
C27 C 0.08524 0.01391 0.01526 0.0
C28 C 0.03258 0.0722 0.01172 0.0
C29 C 0.04523 0.07511 0.99459 0.0
C30 C 0.04235 0.09183 0.98165 0.0
C31 C 0.02679 0.10609 0.98553 0.0
C32 C 0.01411 0.10316 0.00259 0.0
C33 C 0.01694 0.08642 0.0155 0.0
C34 C 0.01177 0.03223 0.07211 0.0
C35 C 0.99565 0.04589 0.07588 0.0
C36 C 0.25116 0.65192 0.24174 0.0
C37 C 0.23444 0.64863 0.22867 0.0
C38 C 0.231 0.66248 0.21264 0.0
C39 C 0.24402 0.67915 0.20969 0.0
H40 H 0.25506 0.7266 0.17066 0.0
H41 H 0.25007 0.74915 0.14157 0.0
H42 H 0.30133 0.78586 0.16114 0.0
H43 H 0.30666 0.76311 0.19002 0.0
H44 H 0.33317 0.74903 0.22725 0.0
H45 H 0.36229 0.75399 0.24982 0.0
H46 H 0.34324 0.70211 0.28581 0.0
H47 H 0.31433 0.69682 0.26306 0.0
H48 H 0.27698 0.67053 0.24911 0.0
H49 H 0.25441 0.64141 0.25408 0.0
H50 H 0.2181 0.66056 0.20246 0.0
H51 H 0.24086 0.68948 0.19717 0.0
N52 N 0.27181 0.71295 0.2035 0.0
N53 N 0.30054 0.73199 0.21326 0.0
N54 N 0.29082 0.70323 0.23222 0.0
C55 C 0.2846 0.72899 0.2003 0.0
C56 C 0.30377 0.71919 0.22927 0.0
C57 C 0.27479 0.69999 0.21943 0.0
C58 C 0.2813 0.74296 0.18274 0.0
C59 C 0.26529 0.73947 0.16882 0.0
C60 C 0.26234 0.75249 0.15217 0.0
C61 C 0.2753 0.76932 0.149 0.0
C62 C 0.29124 0.77287 0.16296 0.0
C63 C 0.29421 0.75986 0.17961 0.0
C64 C 0.32135 0.72248 0.24325 0.0
C65 C 0.33513 0.73865 0.23997 0.0
C66 C 0.3518 0.74159 0.253 0.0
C67 C 0.35512 0.72845 0.26963 0.0
C68 C 0.3413 0.71235 0.27298 0.0
C69 C 0.32463 0.7094 0.25996 0.0
C70 C 0.26082 0.68241 0.2227 0.0
C71 C 0.26419 0.66859 0.2388 0.0
C72 C 0.99132 0.40212 1.00077 0.0
C73 C 0.97822 0.39894 0.98405 0.0
C74 C 0.96223 0.41284 0.98069 0.0
C75 C 0.95936 0.42947 0.99377 0.0
H76 H 0.92135 0.47787 0.00421 0.0
H77 H 0.89234 0.50053 0.99939 0.0
H78 H 0.91057 0.53527 0.05245 0.0
H79 H 0.9394 0.51243 0.05758 0.0
H80 H 0.97808 0.49963 0.08239 0.0
H81 H 1.00065 0.50441 0.11154 0.0
H82 H 0.0347 0.45078 0.09401 0.0
H83 H 0.01196 0.44571 0.06503 0.0
H84 H 0.99881 0.4206 0.02663 0.0
H85 H 0.00363 0.39157 0.00397 0.0
H86 H 0.95202 0.41099 0.9678 0.0
H87 H 0.94687 0.43983 0.99066 0.0
N88 N 0.95339 0.46321 0.02166 0.0
N89 N 0.96322 0.48202 0.05051 0.0
N90 N 0.98202 0.45322 0.04067 0.0
C91 C 0.95026 0.47919 0.03453 0.0
C92 C 0.97915 0.46912 0.05369 0.0
C93 C 0.96923 0.45015 0.0246 0.0
C94 C 0.93277 0.49324 0.03133 0.0
C95 C 0.91924 0.49033 0.01488 0.0
C96 C 0.90263 0.50341 0.01202 0.0
C97 C 0.89911 0.51971 0.02553 0.0
C98 C 0.91268 0.52269 0.04192 0.0
C99 C 0.9293 0.50964 0.04478 0.0
C100 C 0.99312 0.47225 0.0713 0.0
C101 C 0.99036 0.48883 0.08469 0.0
C102 C 0.00339 0.49166 0.10137 0.0
C103 C 0.01949 0.47798 0.10512 0.0
C104 C 0.0223 0.46145 0.09171 0.0
C105 C 0.00929 0.45862 0.07501 0.0
C106 C 0.97241 0.43262 0.01056 0.0
C107 C 0.98846 0.41875 0.01385 0.0
C108 C 0.74161 0.75099 0.15198 0.0
C109 C 0.72835 0.73444 0.14852 0.0
C110 C 0.71209 0.7312 0.16215 0.0
C111 C 0.7091 0.74424 0.17879 0.0
H112 H 0.67008 0.75522 0.2263 0.0
H113 H 0.64099 0.75023 0.24887 0.0
H114 H 0.66074 0.80137 0.28563 0.0
H115 H 0.68961 0.80669 0.26286 0.0
H116 H 0.72663 0.83337 0.2486 0.0
H117 H 0.74921 0.86249 0.25358 0.0
H118 H 0.78556 0.84321 0.20206 0.0
H119 H 0.7628 0.81429 0.19676 0.0
H120 H 0.74909 0.77669 0.17069 0.0
H121 H 0.75413 0.75408 0.14163 0.0
H122 H 0.70176 0.71844 0.16008 0.0
H123 H 0.6964 0.74123 0.18894 0.0
N124 N 0.70303 0.77188 0.21269 0.0
N125 N 0.71279 0.80063 0.23171 0.0
N126 N 0.73181 0.79088 0.20301 0.0
C127 C 0.69982 0.78468 0.22871 0.0
C128 C 0.72883 0.80384 0.21894 0.0
C129 C 0.719 0.77485 0.19977 0.0
C130 C 0.68224 0.7814 0.24267 0.0
C131 C 0.66828 0.76542 0.23918 0.0
C132 C 0.65162 0.76247 0.25221 0.0
C133 C 0.64851 0.7754 0.26907 0.0
C134 C 0.66252 0.79131 0.27262 0.0
C135 C 0.67916 0.79428 0.2596 0.0
C136 C 0.74281 0.82143 0.22223 0.0
C137 C 0.73943 0.83528 0.23831 0.0
C138 C 0.75246 0.85195 0.24126 0.0
C139 C 0.7692 0.85521 0.22822 0.0
C140 C 0.77265 0.84132 0.21221 0.0
C141 C 0.75962 0.82464 0.20925 0.0
C142 C 0.7223 0.76086 0.18221 0.0
C143 C 0.73862 0.76404 0.16861 0.0
C144 C 0.04283 0.91184 0.52181 0.0
C145 C 0.0262 0.89852 0.51905 0.0
C146 C 0.01248 0.90228 0.50298 0.0
C147 C 0.01538 0.9189 0.4899 0.0
H148 H 0.99243 0.94533 0.43823 0.0
H149 H 0.96953 0.95051 0.40941 0.0
H150 H 0.00366 0.00419 0.39193 0.0
H151 H 0.0264 0.9993 0.42092 0.0
H152 H 0.06678 0.01047 0.44423 0.0
H153 H 0.09576 0.03325 0.44939 0.0
H154 H 0.11113 1.00131 0.50497 0.0
H155 H 0.08202 0.97866 0.50005 0.0
H156 H 0.05872 0.93839 0.51137 0.0
H157 H 0.05354 0.90952 0.5342 0.0
H158 H 0.99965 0.89218 0.50029 0.0
H159 H 0.00454 0.92121 0.47762 0.0
N160 N 0.02244 0.95283 0.46254 0.0
N161 N 0.04142 0.98152 0.45261 0.0
N162 N 0.05123 0.96271 0.48142 0.0
C163 C 0.02538 0.9687 0.4495 0.0
C164 C 0.05442 0.97866 0.46853 0.0
C165 C 0.03528 0.94971 0.47854 0.0
C166 C 0.01133 0.97188 0.43197 0.0
C167 C 0.99508 0.95828 0.4283 0.0
C168 C 0.98199 0.96117 0.41168 0.0
C169 C 0.98478 0.97775 0.39835 0.0
C170 C 1.00094 0.99141 0.40205 0.0
C171 C 0.01407 0.98851 0.41864 0.0
C172 C 0.072 0.99266 0.47171 0.0
C173 C 0.07628 0.00828 0.45759 0.0
C174 C 0.09298 0.02129 0.46047 0.0
C175 C 0.10576 0.01908 0.47757 0.0
C176 C 0.10144 0.00356 0.49175 0.0
C177 C 0.08479 0.99049 0.48885 0.0
C178 C 0.03206 0.9322 0.49259 0.0
C179 C 0.04572 0.92848 0.50876 0.0
C180 C 0.24185 0.75279 0.85188 0.0
C181 C 0.22871 0.76941 0.85522 0.0
C182 C 0.21264 0.77279 0.8414 0.0
C183 C 0.20971 0.75981 0.82469 0.0
H184 H 0.17081 0.74894 0.77709 0.0
H185 H 0.14171 0.75392 0.75454 0.0
H186 H 0.1611 0.70263 0.71791 0.0
H187 H 0.19 0.69732 0.74066 0.0
H188 H 0.22713 0.67079 0.75481 0.0
H189 H 0.24967 0.64171 0.74981 0.0
H190 H 0.28601 0.66095 0.80144 0.0
H191 H 0.26329 0.68982 0.80676 0.0
H192 H 0.2493 0.72709 0.83319 0.0
H193 H 0.25423 0.7496 0.86237 0.0
H194 H 0.20241 0.78561 0.84336 0.0
H195 H 0.19716 0.76293 0.81439 0.0
N196 N 0.20359 0.73215 0.79081 0.0
N197 N 0.21333 0.70348 0.77174 0.0
N198 N 0.23232 0.71318 0.80052 0.0
C199 C 0.20037 0.71939 0.77475 0.0
C200 C 0.22935 0.70025 0.78454 0.0
C201 C 0.21952 0.72917 0.80377 0.0
C202 C 0.1828 0.72268 0.76078 0.0
C203 C 0.16893 0.7387 0.76424 0.0
C204 C 0.15227 0.74165 0.75122 0.0
C205 C 0.14905 0.72868 0.73441 0.0
C206 C 0.16296 0.71273 0.73088 0.0
C207 C 0.17962 0.70976 0.74389 0.0
C208 C 0.24331 0.6827 0.78123 0.0
C209 C 0.23992 0.66888 0.76512 0.0
C210 C 0.25293 0.65223 0.76216 0.0
C211 C 0.26965 0.64898 0.77522 0.0
C212 C 0.27311 0.66284 0.79126 0.0
C213 C 0.26011 0.67949 0.79424 0.0
C214 C 0.22279 0.74311 0.82139 0.0
C215 C 0.23893 0.7398 0.83518 0.0
C216 C 0.99231 0.60094 0.50377 0.0
C217 C 0.97874 0.60457 0.51999 0.0
C218 C 0.96232 0.59104 0.52295 0.0
C219 C 0.95949 0.57433 0.50996 0.0
H220 H 0.92229 0.52506 0.50041 0.0
H221 H 0.89316 0.50246 0.50523 0.0
H222 H 0.91037 0.46853 0.45137 0.0
H223 H 0.93934 0.4913 0.44627 0.0
H224 H 0.97859 0.50356 0.42198 0.0
H225 H 1.00116 0.49875 0.39286 0.0
H226 H 0.03544 0.55234 0.41044 0.0
H227 H 0.01271 0.55744 0.43939 0.0
H228 H 1.00019 0.58204 0.47835 0.0
H229 H 0.00497 0.61121 0.50091 0.0
H230 H 0.95174 0.59325 0.53546 0.0
H231 H 0.94666 0.56425 0.51274 0.0
N232 N 0.95393 0.54012 0.48256 0.0
N233 N 0.96377 0.52123 0.4538 0.0
N234 N 0.98266 0.55003 0.46365 0.0
C235 C 0.95078 0.52411 0.46972 0.0
C236 C 0.97976 0.5341 0.45065 0.0
C237 C 0.96983 0.55316 0.47965 0.0
C238 C 0.93322 0.51009 0.47291 0.0
C239 C 0.91993 0.51279 0.48957 0.0
C240 C 0.90326 0.49975 0.49242 0.0
C241 C 0.89943 0.48369 0.47868 0.0
C242 C 0.91274 0.48091 0.46209 0.0
C243 C 0.92944 0.49393 0.45924 0.0
C244 C 0.99375 0.53093 0.43309 0.0
C245 C 0.99093 0.51435 0.4197 0.0
C246 C 0.00396 0.5115 0.40303 0.0
C247 C 0.02011 0.52516 0.39931 0.0
C248 C 0.02299 0.54168 0.41272 0.0
C249 C 0.00999 0.54452 0.42941 0.0
C250 C 0.973 0.57074 0.49364 0.0
C251 C 0.98948 0.58425 0.49075 0.0
C252 C 0.85212 0.76232 0.75098 0.0
C253 C 0.85539 0.77539 0.73427 0.0
C254 C 0.84155 0.79142 0.73085 0.0
C255 C 0.82491 0.79437 0.74388 0.0
H256 H 0.77717 0.83311 0.75464 0.0
H257 H 0.75457 0.86215 0.74968 0.0
H258 H 0.71868 0.84319 0.80165 0.0
H259 H 0.74145 0.81436 0.80693 0.0
H260 H 0.7558 0.77745 0.83356 0.0
H261 H 0.75085 0.75493 0.86268 0.0
H262 H 0.8016 0.71791 0.84271 0.0
H263 H 0.80689 0.74063 0.8138 0.0
H264 H 0.83356 0.75495 0.77679 0.0
H265 H 0.86263 0.74998 0.7542 0.0
H266 H 0.84345 0.8016 0.71796 0.0
H267 H 0.81459 0.80689 0.74073 0.0
N268 N 0.79119 0.80057 0.77168 0.0
N269 N 0.77226 0.79088 0.80047 0.0
N270 N 0.80095 0.77188 0.7907 0.0
C271 C 0.7752 0.8038 0.78451 0.0
C272 C 0.78504 0.77487 0.80369 0.0
C273 C 0.80414 0.78465 0.77465 0.0
C274 C 0.76122 0.82134 0.78123 0.0
C275 C 0.76447 0.83508 0.76504 0.0
C276 C 0.75143 0.8517 0.7621 0.0
C277 C 0.73481 0.85502 0.77527 0.0
C278 C 0.7315 0.84125 0.79139 0.0
C279 C 0.74453 0.82462 0.79434 0.0
C280 C 0.78178 0.76093 0.82128 0.0
C281 C 0.76592 0.76451 0.83531 0.0
C282 C 0.763 0.75152 0.85199 0.0
C283 C 0.77583 0.7346 0.85505 0.0
C284 C 0.79162 0.73096 0.84098 0.0
C285 C 0.79457 0.74396 0.82431 0.0
C286 C 0.82168 0.78136 0.76066 0.0
C287 C 0.83548 0.76526 0.76401 0.0
C288 C 0.35217 0.26239 0.25118 0.0
C289 C 0.35547 0.27543 0.23445 0.0
C290 C 0.34164 0.29146 0.231 0.0
C291 C 0.32499 0.29445 0.244 0.0
H292 H 0.27761 0.3336 0.25494 0.0
H293 H 0.25506 0.36267 0.24993 0.0
H294 H 0.21858 0.34331 0.30136 0.0
H295 H 0.24131 0.31447 0.3067 0.0
H296 H 0.25622 0.27833 0.33402 0.0
H297 H 0.25093 0.25572 0.36302 0.0
H298 H 0.3011 0.21804 0.3429 0.0
H299 H 0.3063 0.24045 0.31369 0.0
H300 H 0.33357 0.25507 0.27698 0.0
H301 H 0.36266 0.25005 0.25444 0.0
H302 H 0.34356 0.30162 0.21809 0.0
H303 H 0.31468 0.30697 0.24082 0.0
N304 N 0.29129 0.30078 0.27178 0.0
N305 N 0.27232 0.29119 0.30057 0.0
N306 N 0.30094 0.27208 0.29084 0.0
C307 C 0.2753 0.30408 0.28458 0.0
C308 C 0.28504 0.27515 0.30382 0.0
C309 C 0.30418 0.28482 0.27478 0.0
C310 C 0.26136 0.32164 0.28127 0.0
C311 C 0.26479 0.33549 0.26521 0.0
C312 C 0.25177 0.35213 0.26224 0.0
C313 C 0.23501 0.35535 0.27524 0.0
C314 C 0.23152 0.34146 0.29123 0.0
C315 C 0.24452 0.32483 0.29422 0.0
C316 C 0.28172 0.26128 0.32144 0.0
C317 C 0.26614 0.26522 0.33569 0.0
C318 C 0.26315 0.25232 0.35242 0.0
C319 C 0.27561 0.2351 0.35529 0.0
C320 C 0.2911 0.23106 0.341 0.0
C321 C 0.29414 0.244 0.3243 0.0
C322 C 0.32173 0.28147 0.26081 0.0
C323 C 0.33551 0.26536 0.26419 0.0
C324 C 0.49174 0.90255 0.50051 0.0
C325 C 0.47819 0.89892 0.48424 0.0
C326 C 0.46178 0.91241 0.48128 0.0
C327 C 0.45893 0.92908 0.49431 0.0
H328 H 0.42074 0.97728 0.50497 0.0
H329 H 0.39175 0.99996 0.50014 0.0
H330 H 0.41143 0.03617 0.55168 0.0
H331 H 0.44022 0.0133 0.55684 0.0
H332 H 0.47804 0.99962 0.58256 0.0
H333 H 0.50061 0.00436 0.61172 0.0
H334 H 0.53513 0.95119 0.59369 0.0
H335 H 0.51238 0.94615 0.56471 0.0
H336 H 0.49959 0.9214 0.52599 0.0
H337 H 0.50439 0.89231 0.50338 0.0
H338 H 0.45122 0.91021 0.46873 0.0
H339 H 0.44611 0.93913 0.49152 0.0
N340 N 0.45342 0.96328 0.52173 0.0
N341 N 0.46337 0.9822 0.55047 0.0
N342 N 0.48213 0.95337 0.54066 0.0
C343 C 0.45036 0.97931 0.53455 0.0
C344 C 0.4793 0.96931 0.55365 0.0
C345 C 0.46928 0.95024 0.52465 0.0
C346 C 0.43287 0.99337 0.53134 0.0
C347 C 0.41895 0.99007 0.51529 0.0
C348 C 0.40235 0.00316 0.51243 0.0
C349 C 0.39925 0.01989 0.52552 0.0
C350 C 0.41321 0.02327 0.54149 0.0
C351 C 0.4298 0.01018 0.54437 0.0
C352 C 0.4933 0.97246 0.57123 0.0
C353 C 0.49043 0.98891 0.58475 0.0
C354 C 0.50346 0.99172 0.60144 0.0
C355 C 0.51967 0.97815 0.60505 0.0
C356 C 0.52262 0.96177 0.5915 0.0
C357 C 0.50961 0.95896 0.5748 0.0
C358 C 0.47242 0.93267 0.51066 0.0
C359 C 0.48889 0.9192 0.51356 0.0
C360 C 0.24203 0.25064 0.65231 0.0
C361 C 0.22838 0.2345 0.64847 0.0
C362 C 0.21172 0.23169 0.66169 0.0
C363 C 0.20873 0.24474 0.67833 0.0
H364 H 0.16953 0.25601 0.72562 0.0
H365 H 0.14042 0.25108 0.74816 0.0
H366 H 0.16123 0.30102 0.78597 0.0
H367 H 0.19011 0.30631 0.76322 0.0
H368 H 0.2268 0.33336 0.74862 0.0
H369 H 0.24939 0.36247 0.7536 0.0
H370 H 0.28568 0.34325 0.70202 0.0
H371 H 0.26291 0.31433 0.69672 0.0
H372 H 0.24983 0.27604 0.6713 0.0
H373 H 0.25489 0.25338 0.64227 0.0
H374 H 0.20106 0.21925 0.65932 0.0
H375 H 0.19571 0.24206 0.68817 0.0
N376 N 0.20302 0.27205 0.71256 0.0
N377 N 0.21286 0.30073 0.73163 0.0
N378 N 0.2319 0.29093 0.70297 0.0
C379 C 0.19982 0.28484 0.72859 0.0
C380 C 0.22894 0.30389 0.7189 0.0
C381 C 0.21903 0.27496 0.69968 0.0
C382 C 0.18222 0.2816 0.74252 0.0
C383 C 0.16796 0.26596 0.73873 0.0
C384 C 0.15128 0.26304 0.75174 0.0
C385 C 0.14846 0.27565 0.76889 0.0
C386 C 0.16277 0.29122 0.77274 0.0
C387 C 0.17942 0.29417 0.75972 0.0
C388 C 0.24295 0.32144 0.72222 0.0
C389 C 0.23959 0.33527 0.73832 0.0
C390 C 0.25263 0.35195 0.74127 0.0
C391 C 0.26935 0.35522 0.72821 0.0
C392 C 0.27278 0.34134 0.71219 0.0
C393 C 0.25975 0.32467 0.70923 0.0
C394 C 0.22233 0.26096 0.68213 0.0
C395 C 0.23904 0.26371 0.66892 0.0
C396 C 0.7514 0.15156 0.7415 0.0
C397 C 0.73451 0.14842 0.7286 0.0
C398 C 0.73091 0.16242 0.71274 0.0
C399 C 0.74393 0.1791 0.70978 0.0
H400 H 0.75464 0.22689 0.67104 0.0
H401 H 0.74965 0.24948 0.64197 0.0
H402 H 0.80162 0.2855 0.66093 0.0
H403 H 0.80693 0.26274 0.68979 0.0
H404 H 0.83231 0.24974 0.72813 0.0
H405 H 0.86143 0.25472 0.75072 0.0
H406 H 0.84423 0.20093 0.78477 0.0
H407 H 0.81529 0.19567 0.76204 0.0
H408 H 0.77733 0.17006 0.74873 0.0
H409 H 0.75478 0.14093 0.7537 0.0
H410 H 0.71788 0.16062 0.7027 0.0
H411 H 0.74063 0.18954 0.6974 0.0
N412 N 0.77179 0.21283 0.7035 0.0
N413 N 0.80053 0.23186 0.71327 0.0
N414 N 0.79089 0.20301 0.73213 0.0
C415 C 0.78456 0.2289 0.70033 0.0
C416 C 0.80381 0.21901 0.72922 0.0
C417 C 0.77483 0.19981 0.71937 0.0
C418 C 0.78123 0.24291 0.68281 0.0
C419 C 0.76503 0.23962 0.66907 0.0
C420 C 0.76207 0.25266 0.65243 0.0
C421 C 0.77523 0.2693 0.6491 0.0
C422 C 0.79136 0.27266 0.66288 0.0
C423 C 0.79433 0.25964 0.67953 0.0
C424 C 0.8214 0.22227 0.74318 0.0
C425 C 0.83468 0.23895 0.74042 0.0
C426 C 0.85135 0.2419 0.75346 0.0
C427 C 0.85517 0.22822 0.76955 0.0
C428 C 0.84187 0.2116 0.77236 0.0
C429 C 0.82519 0.20866 0.75936 0.0
C430 C 0.76088 0.18221 0.72262 0.0
C431 C 0.76442 0.16824 0.73855 0.0
C432 C 0.48215 0.54263 0.59196 0.0
C433 C 0.48489 0.52606 0.60531 0.0
C434 C 0.50098 0.51238 0.60161 0.0
C435 C 0.5141 0.51525 0.58501 0.0
H436 H 0.56553 0.49203 0.55835 0.0
H437 H 0.59435 0.46919 0.55322 0.0
H438 H 0.6123 0.50363 0.49993 0.0
H439 H 0.5833 0.52631 0.50477 0.0
H440 H 0.55903 0.56558 0.49247 0.0
H441 H 0.55387 0.59444 0.46964 0.0
H442 H 0.49988 0.61152 0.50338 0.0
H443 H 0.50476 0.5825 0.52604 0.0
H444 H 0.49261 0.55843 0.5654 0.0
H445 H 0.46973 0.5533 0.59423 0.0
H446 H 0.50367 0.4996 0.61174 0.0
H447 H 0.52639 0.50445 0.58274 0.0
N448 N 0.54146 0.52221 0.55105 0.0
N449 N 0.5514 0.54111 0.52232 0.0
N450 N 0.52262 0.55096 0.54116 0.0
C451 C 0.5545 0.52511 0.53516 0.0
C452 C 0.5355 0.55411 0.52519 0.0
C453 C 0.52547 0.53506 0.55416 0.0
C454 C 0.57202 0.51108 0.53199 0.0
C455 C 0.57556 0.49477 0.5455 0.0
C456 C 0.59218 0.4817 0.54264 0.0
C457 C 0.60565 0.48459 0.52618 0.0
C458 C 0.60207 0.50083 0.51262 0.0
C459 C 0.58548 0.51392 0.51549 0.0
C460 C 0.53233 0.57164 0.51117 0.0
C461 C 0.54602 0.57543 0.49505 0.0
C462 C 0.54314 0.59207 0.482 0.0
C463 C 0.52648 0.6053 0.48469 0.0
C464 C 0.51273 0.60148 0.50072 0.0
C465 C 0.51562 0.58487 0.51381 0.0
C466 C 0.51141 0.53187 0.57167 0.0
C467 C 0.49523 0.54549 0.57534 0.0
C468 C 0.54283 0.41172 0.02171 0.0
C469 C 0.52619 0.39842 0.01898 0.0
C470 C 0.51244 0.40219 0.00293 0.0
C471 C 0.51533 0.4188 0.98984 0.0
H472 H 0.49227 0.44532 0.93824 0.0
H473 H 0.46937 0.45053 0.90942 0.0
H474 H 0.50353 0.5042 0.89196 0.0
H475 H 0.52627 0.49928 0.92093 0.0
H476 H 0.56597 0.51114 0.9448 0.0
H477 H 0.5949 0.53396 0.94995 0.0
H478 H 0.6117 0.50059 0.00426 0.0
H479 H 0.58262 0.47791 0.99938 0.0
H480 H 0.55871 0.43826 0.01125 0.0
H481 H 0.55355 0.4094 0.03408 0.0
H482 H 0.4996 0.39209 1.00026 0.0
H483 H 0.50448 0.42112 0.97758 0.0
N484 N 0.52234 0.45276 0.9625 0.0
N485 N 0.54128 0.48149 0.9526 0.0
N486 N 0.55117 0.46262 0.98134 0.0
C487 C 0.52525 0.46866 0.94949 0.0
C488 C 0.55432 0.4786 0.96849 0.0
C489 C 0.53522 0.44962 0.97848 0.0
C490 C 0.51118 0.47187 0.93198 0.0
C491 C 0.49493 0.45828 0.92831 0.0
C492 C 0.48183 0.46118 0.9117 0.0
C493 C 0.48462 0.47776 0.89836 0.0
C494 C 0.5008 0.49141 0.90207 0.0
C495 C 0.51392 0.4885 0.91866 0.0
C496 C 0.57189 0.49262 0.97166 0.0
C497 C 0.57577 0.50864 0.95788 0.0
C498 C 0.59245 0.52168 0.96075 0.0
C499 C 0.60563 0.51908 0.9775 0.0
C500 C 0.60171 0.50316 0.99133 0.0
C501 C 0.58507 0.49007 0.98845 0.0
C502 C 0.53203 0.43209 0.99251 0.0
C503 C 0.54571 0.42836 0.00865 0.0
C504 C 0.74167 0.25245 0.35212 0.0
C505 C 0.72876 0.26929 0.35526 0.0
C506 C 0.71291 0.27288 0.34123 0.0
C507 C 0.70998 0.25991 0.32453 0.0
H508 H 0.67095 0.24895 0.27702 0.0
H509 H 0.64187 0.25396 0.25445 0.0
H510 H 0.66115 0.20256 0.21792 0.0
H511 H 0.69003 0.19722 0.24068 0.0
H512 H 0.7272 0.17073 0.25479 0.0
H513 H 0.74971 0.14163 0.2498 0.0
H514 H 0.78591 0.16071 0.30159 0.0
H515 H 0.76321 0.1896 0.3069 0.0
H516 H 0.74894 0.22659 0.33359 0.0
H517 H 0.75386 0.24908 0.36277 0.0
H518 H 0.70286 0.28588 0.34303 0.0
H519 H 0.6976 0.2632 0.31406 0.0
N520 N 0.70365 0.23208 0.29081 0.0
N521 N 0.71337 0.20338 0.27175 0.0
N522 N 0.73233 0.21304 0.30057 0.0
C523 C 0.70044 0.21932 0.27474 0.0
C524 C 0.72936 0.20013 0.28458 0.0
C525 C 0.71956 0.22907 0.3038 0.0
C526 C 0.68289 0.22264 0.26075 0.0
C527 C 0.66905 0.2387 0.26418 0.0
C528 C 0.6524 0.24166 0.25115 0.0
C529 C 0.64915 0.22866 0.23437 0.0
C530 C 0.66303 0.21268 0.23087 0.0
C531 C 0.67968 0.2097 0.24389 0.0
C532 C 0.7433 0.18256 0.28129 0.0
C533 C 0.73995 0.16878 0.26513 0.0
C534 C 0.75294 0.15212 0.26218 0.0
C535 C 0.76962 0.14881 0.27529 0.0
C536 C 0.77304 0.16264 0.29137 0.0
C537 C 0.76005 0.17929 0.29434 0.0
C538 C 0.72283 0.24299 0.32142 0.0
C539 C 0.73875 0.23947 0.33541 0.0
C540 C 0.49227 0.101 0.00378 0.0
C541 C 0.47868 0.10464 0.01999 0.0
C542 C 0.46225 0.09112 0.02293 0.0
C543 C 0.45943 0.07441 0.00994 0.0
H544 H 0.42196 0.02542 1.00012 0.0
H545 H 0.39284 0.00281 0.00493 0.0
H546 H 0.4108 0.96814 0.95179 0.0
H547 H 0.43975 0.99092 0.94668 0.0
H548 H 0.47889 0.0033 0.92232 0.0
H549 H 0.50146 0.99847 0.89321 0.0
H550 H 0.53521 0.05257 0.91024 0.0
H551 H 0.51248 0.05768 0.9392 0.0
H552 H 0.50017 0.08209 0.97839 0.0
H553 H 0.50494 0.11126 1.00094 0.0
H554 H 0.45165 0.09334 0.03542 0.0
H555 H 0.44659 0.06434 0.01271 0.0
N556 N 0.45392 0.04016 0.98259 0.0
N557 N 0.46381 0.02122 0.95388 0.0
N558 N 0.48265 0.05007 0.96368 0.0
C559 C 0.4508 0.02412 0.96978 0.0
C560 C 0.47979 0.0341 0.95071 0.0
C561 C 0.46981 0.05321 0.97967 0.0
C562 C 0.43325 0.01008 0.97297 0.0
C563 C 0.41976 0.01299 0.98944 0.0
C564 C 0.4031 0.99993 0.99228 0.0
C565 C 0.39948 0.98366 0.97874 0.0
C566 C 0.413 0.98068 0.96234 0.0
C567 C 0.42968 0.99371 0.9595 0.0
C568 C 0.49378 0.03092 0.93316 0.0
C569 C 0.49111 0.0142 0.91992 0.0
C570 C 0.50414 0.01133 0.90326 0.0
C571 C 0.52014 0.02513 0.89939 0.0
C572 C 0.52288 0.0418 0.91265 0.0
C573 C 0.50988 0.04465 0.92934 0.0
C574 C 0.47296 0.07081 0.99364 0.0
C575 C 0.48944 0.08431 0.99077 0.0
Li576 Li 0.27117 0.88961 0.9992 0.0
Li577 Li 0.25487 0.86407 0.02138 0.0
Li578 Li 0.24905 0.86409 0.98308 0.0
Li579 Li 0.23291 0.88977 0.0052 0.0
C580 C 0.29485 0.85544 0.99507 0.0
N581 N 0.33569 0.84785 0.98763 0.0
C582 C 0.30759 0.8488 0.01085 0.0
C583 C 0.30282 0.85785 0.97543 0.0
C584 C 0.32821 0.84514 0.00681 0.0
C585 C 0.32352 0.85404 0.97199 0.0
C586 C 0.25774 0.89857 0.04528 0.0
C587 C 0.2436 0.90047 0.07924 0.0
N588 N 0.262 0.90689 0.08645 0.0
C589 C 0.27643 0.90546 0.05299 0.0
C590 C 0.24112 0.89628 0.05846 0.0
C591 C 0.2783 0.90948 0.07386 0.0
C592 C 0.29397 0.92203 0.98205 0.0
N593 N 0.29485 0.90632 0.99558 0.0
C594 C 0.32937 0.9148 0.00405 0.0
C595 C 0.31203 0.90264 0.00664 0.0
C596 C 0.32899 0.93102 0.99002 0.0
C597 C 0.31095 0.93457 0.97895 0.0
H598 H 0.28 0.92495 0.97376 0.0
H599 H 0.31224 0.89035 0.01762 0.0
C600 C 0.24578 0.83111 0.04778 0.0
N601 N 0.25849 0.84729 0.04497 0.0
C602 C 0.24806 0.81843 0.06478 0.0
C603 C 0.27671 0.83908 0.07554 0.0
C604 C 0.27385 0.85136 0.05836 0.0
C605 C 0.26371 0.82234 0.07895 0.0
H606 H 0.23397 0.8279 0.03669 0.0
H607 H 0.28407 0.86401 0.05558 0.0
C608 C 0.24593 0.89823 0.95911 0.0
N609 N 0.2407 0.90579 0.91792 0.0
C610 C 0.2271 0.90506 0.95175 0.0
C611 C 0.26219 0.89562 0.94556 0.0
C612 C 0.22473 0.9087 0.93087 0.0
C613 C 0.25922 0.89941 0.92478 0.0
C614 C 0.20912 0.85537 0.00974 0.0
C615 C 0.19612 0.84873 0.99414 0.0
C616 C 0.20153 0.85748 0.02956 0.0
C617 C 0.17561 0.84479 0.99856 0.0
C618 C 0.18094 0.8534 0.03338 0.0
N619 N 0.1685 0.84723 0.01792 0.0
C620 C 0.25831 0.8314 0.95643 0.0
C621 C 0.22971 0.85105 0.94634 0.0
C622 C 0.25604 0.81873 0.9394 0.0
N623 N 0.24533 0.84728 0.95949 0.0
C624 C 0.22686 0.83878 0.92913 0.0
C625 C 0.24013 0.82235 0.92546 0.0
H626 H 0.27034 0.82842 0.96733 0.0
H627 H 0.21932 0.86349 0.94929 0.0
C628 C 0.21074 0.9228 0.02189 0.0
N629 N 0.20941 0.90667 0.00887 0.0
C630 C 0.19392 0.93551 0.02502 0.0
C631 C 0.17476 0.91508 1.00096 0.0
C632 C 0.19194 0.90274 0.99834 0.0
C633 C 0.17559 0.93171 0.0145 0.0
H634 H 0.22493 0.92591 0.02973 0.0
H635 H 0.19137 0.89015 0.98771 0.0
O636 O 0.27465 0.85927 0.9988 0.0
O637 O 0.25568 0.89439 0.0249 0.0
O638 O 0.24848 0.89443 0.97951 0.0
O639 O 0.22921 0.85945 0.00564 0.0
H640 H 0.30167 0.84659 0.02608 0.0
H641 H 0.29311 0.86247 0.96294 0.0
H642 H 0.33826 0.84014 0.01892 0.0
H643 H 0.32989 0.85595 0.95687 0.0
H644 H 0.23087 0.89867 0.08961 0.0
H645 H 0.28938 0.90758 0.04301 0.0
H646 H 0.22643 0.8915 0.05271 0.0
H647 H 0.29273 0.91468 0.08005 0.0
H648 H 0.34296 0.91143 0.01283 0.0
H649 H 0.30984 0.94713 0.96826 0.0
H650 H 0.23791 0.80549 0.06659 0.0
H651 H 0.28892 0.84274 0.0861 0.0
H652 H 0.21442 0.90743 0.96202 0.0
H653 H 0.27698 0.89084 0.95103 0.0
H654 H 0.2102 0.91384 0.92495 0.0
H655 H 0.27167 0.89735 0.91412 0.0
H656 H 0.20174 0.84674 0.97877 0.0
H657 H 0.21145 0.86206 0.04191 0.0
H658 H 0.16536 0.8398 0.9866 0.0
H659 H 0.17487 0.85507 0.04864 0.0
H660 H 0.26641 0.80602 0.9374 0.0
H661 H 0.21446 0.84222 0.91874 0.0
H662 H 0.19538 0.94838 0.03531 0.0
H663 H 0.16094 0.91152 0.9926 0.0
Li664 Li 0.1142 0.50462 0.27122 0.0
Li665 Li 0.13979 0.48253 0.25492 0.0
Li666 Li 0.13973 0.52082 0.24915 0.0
Li667 Li 0.11409 0.49862 0.23295 0.0
C668 C 0.14852 0.50895 0.29491 0.0
N669 N 0.15642 0.51661 0.33568 0.0
C670 C 0.15519 0.49323 0.3077 0.0
C671 C 0.14624 0.52864 0.3028 0.0
C672 C 0.15901 0.49738 0.32828 0.0
C673 C 0.1502 0.53219 0.32346 0.0
C674 C 0.10544 0.45852 0.25791 0.0
C675 C 0.10378 0.42441 0.24408 0.0
N676 N 0.09742 0.41733 0.26253 0.0
C677 C 0.09862 0.45094 0.27666 0.0
C678 C 0.10781 0.44519 0.24142 0.0
C679 C 0.09475 0.43006 0.27872 0.0
C680 C 0.08158 0.52153 0.29383 0.0
N681 N 0.09746 0.50823 0.29485 0.0
C682 C 0.08911 0.49999 0.32944 0.0
C683 C 0.10129 0.49739 0.31214 0.0
C684 C 0.07272 0.5138 0.32892 0.0
C685 C 0.06902 0.52463 0.31078 0.0
H686 H 0.07854 0.52962 0.27979 0.0
H687 H 0.11371 0.48657 0.31246 0.0
C688 C 0.17274 0.45622 0.24572 0.0
N689 N 0.15665 0.45901 0.25852 0.0
C690 C 0.18549 0.43929 0.24797 0.0
C691 C 0.16509 0.42855 0.27677 0.0
C692 C 0.15273 0.44566 0.27393 0.0
C693 C 0.18175 0.42517 0.26369 0.0
H694 H 0.17583 0.46728 0.23387 0.0
H695 H 0.14014 0.44842 0.28421 0.0
C696 C 0.10543 0.54468 0.24622 0.0
N697 N 0.09757 0.58586 0.24146 0.0
C698 C 0.09853 0.55219 0.22747 0.0
C699 C 0.10797 0.55808 0.26264 0.0
C700 C 0.09474 0.57307 0.22534 0.0
C701 C 0.10402 0.57885 0.25991 0.0
C702 C 0.14838 0.49429 0.20917 0.0
C703 C 0.155 0.50995 0.19625 0.0
C704 C 0.14616 0.47452 0.20145 0.0
C705 C 0.15881 0.50564 0.17571 0.0
C706 C 0.15012 0.47082 0.18082 0.0
N707 N 0.15627 0.48634 0.16847 0.0
C708 C 0.17251 0.54745 0.25834 0.0
C709 C 0.15257 0.55765 0.22994 0.0
C710 C 0.18517 0.56449 0.25605 0.0
N711 N 0.1565 0.54444 0.24546 0.0
C712 C 0.16484 0.57486 0.22707 0.0
C713 C 0.18141 0.57848 0.24023 0.0
H714 H 0.1756 0.53651 0.27029 0.0
H715 H 0.14004 0.55472 0.21962 0.0
C716 C 0.08131 0.48168 0.21048 0.0
N717 N 0.09725 0.49495 0.20938 0.0
C718 C 0.06866 0.47856 0.19357 0.0
C719 C 0.0888 0.50313 0.1748 0.0
C720 C 0.10107 0.50574 0.19206 0.0
C721 C 0.07234 0.48935 0.1754 0.0
H722 H 0.07828 0.47363 0.22455 0.0
H723 H 0.11353 0.51654 0.19168 0.0
O724 O 0.14454 0.50511 0.27474 0.0
O725 O 0.10946 0.47892 0.25567 0.0
O726 O 0.10939 0.5243 0.24853 0.0
O727 O 0.14442 0.49828 0.22931 0.0
H728 H 0.15731 0.47796 0.30184 0.0
H729 H 0.14161 0.54109 0.29305 0.0
H730 H 0.16403 0.48532 0.33837 0.0
H731 H 0.1484 0.54735 0.32976 0.0
H732 H 0.10565 0.41393 0.23145 0.0
H733 H 0.09644 0.46104 0.28952 0.0
H734 H 0.11255 0.45084 0.22668 0.0
H735 H 0.08961 0.42398 0.29319 0.0
H736 H 0.0926 0.49139 0.34312 0.0
H737 H 0.05633 0.53514 0.30956 0.0
H738 H 0.19837 0.4375 0.23777 0.0
H739 H 0.16155 0.41802 0.28901 0.0
H740 H 0.09622 0.54205 0.21467 0.0
H741 H 0.11279 0.55249 0.27738 0.0
H742 H 0.08954 0.57909 0.21087 0.0
H743 H 0.10602 0.58939 0.27249 0.0
H744 H 0.15706 0.52528 0.20198 0.0
H745 H 0.14159 0.46213 0.21131 0.0
H746 H 0.16378 0.51765 0.16552 0.0
H747 H 0.14836 0.45559 0.17465 0.0
H748 H 0.19798 0.56646 0.26632 0.0
H749 H 0.16129 0.58528 0.21474 0.0
H750 H 0.05592 0.46808 0.19485 0.0
H751 H 0.09228 0.5117 0.1611 0.0
Li752 Li 0.73318 0.61403 0.99868 0.0
Li753 Li 0.74934 0.63968 0.0209 0.0
Li754 Li 0.7553 0.63977 0.98263 0.0
Li755 Li 0.77141 0.61419 0.00487 0.0
C756 C 0.70961 0.64858 0.99385 0.0
N757 N 0.66922 0.65706 0.98502 0.0
C758 C 0.69644 0.65527 0.00924 0.0
C759 C 0.70231 0.64659 0.97389 0.0
C760 C 0.67605 0.65937 0.0045 0.0
C761 C 0.68183 0.65084 0.96975 0.0
C762 C 0.74587 0.60567 0.04483 0.0
C763 C 0.7588 0.60477 0.07932 0.0
N764 N 0.7402 0.59842 0.08602 0.0
C765 C 0.72696 0.59887 0.05203 0.0
C766 C 0.762 0.60841 0.05855 0.0
C767 C 0.72436 0.59539 0.07292 0.0
C768 C 0.71099 0.58091 0.98204 0.0
N769 N 0.70963 0.59716 0.99489 0.0
C770 C 0.67487 0.58891 0.00252 0.0
C771 C 0.69209 0.60123 0.00521 0.0
C772 C 0.67573 0.57215 0.98914 0.0
C773 C 0.69412 0.56821 0.97884 0.0
H774 H 0.72523 0.57768 0.97438 0.0
H775 H 0.6915 0.61391 0.01573 0.0
C776 C 0.7587 0.67218 0.0478 0.0
N777 N 0.74553 0.65646 0.04448 0.0
C778 C 0.75633 0.68483 0.06482 0.0
C779 C 0.72672 0.66508 0.07456 0.0
C780 C 0.72967 0.65281 0.05737 0.0
C781 C 0.74015 0.68137 0.07848 0.0
H782 H 0.77094 0.67504 0.03712 0.0
H783 H 0.71915 0.64049 0.05421 0.0
C784 C 0.75796 0.60514 0.95873 0.0
N785 N 0.76198 0.5965 0.9176 0.0
C786 C 0.77659 0.5982 0.95099 0.0
C787 C 0.74128 0.60731 0.94559 0.0
C788 C 0.77835 0.59402 0.93015 0.0
C789 C 0.74364 0.60297 0.92484 0.0
C790 C 0.79528 0.64822 0.00893 0.0
C791 C 0.80797 0.65479 0.99308 0.0
C792 C 0.80337 0.64571 0.02852 0.0
C793 C 0.82866 0.65829 0.99699 0.0
C794 C 0.82413 0.64936 0.03183 0.0
N795 N 0.83625 0.65549 0.01612 0.0
C796 C 0.74654 0.67296 0.95645 0.0
C797 C 0.77419 0.65239 0.94555 0.0
C798 C 0.74884 0.68566 0.93947 0.0
N799 N 0.75902 0.6566 0.95908 0.0
C800 C 0.77707 0.66469 0.92838 0.0
C801 C 0.76428 0.68159 0.92514 0.0
H802 H 0.7349 0.67628 0.96765 0.0
H803 H 0.78424 0.63962 0.94819 0.0
C804 C 0.79406 0.58184 0.02222 0.0
N805 N 0.795 0.59744 0.00857 0.0
C806 C 0.81096 0.56924 0.02535 0.0
C807 C 0.82942 0.58875 1.00005 0.0
C808 C 0.81217 0.60097 0.99744 0.0
C809 C 0.82898 0.57262 0.01419 0.0
H810 H 0.78011 0.57905 0.03057 0.0
H811 H 0.81243 0.61319 0.98637 0.0
O812 O 0.7296 0.64434 0.99826 0.0
O813 O 0.74864 0.60933 0.02444 0.0
O814 O 0.75601 0.60946 0.97909 0.0
O815 O 0.77501 0.64455 0.00532 0.0
H816 H 0.70185 0.65717 0.02471 0.0
H817 H 0.71238 0.64199 0.96169 0.0
H818 H 0.66567 0.66441 0.01631 0.0
H819 H 0.67598 0.64927 0.95438 0.0
H820 H 0.77113 0.60694 0.09011 0.0
H821 H 0.71438 0.59641 0.04164 0.0
H822 H 0.77685 0.61319 0.05322 0.0
H823 H 0.70976 0.59027 0.0787 0.0
H824 H 0.66099 0.59257 0.01072 0.0
H825 H 0.6956 0.55524 0.96869 0.0
H826 H 0.76684 0.69742 0.06702 0.0
H827 H 0.71412 0.66174 0.08473 0.0
H828 H 0.78959 0.59617 0.96094 0.0
H829 H 0.72662 0.61211 0.95137 0.0
H830 H 0.79273 0.58878 0.92394 0.0
H831 H 0.73086 0.60466 0.91451 0.0
H832 H 0.80196 0.65707 0.97789 0.0
H833 H 0.79371 0.64112 0.04106 0.0
H834 H 0.83867 0.66323 0.98483 0.0
H835 H 0.83059 0.64737 0.0469 0.0
H836 H 0.73888 0.69873 0.93779 0.0
H837 H 0.7891 0.66092 0.9177 0.0
H838 H 0.80979 0.55676 0.03612 0.0
H839 H 0.84301 0.592 0.99121 0.0
Li840 Li 0.86422 0.02116 0.25479 0.0
Li841 Li 0.88976 0.99893 0.27098 0.0
Li842 Li 0.88984 0.0051 0.23276 0.0
Li843 Li 0.86414 0.9829 0.24882 0.0
C844 C 0.89856 0.04506 0.25798 0.0
N845 N 0.90654 0.08623 0.26293 0.0
C846 C 0.90534 0.05253 0.27681 0.0
C847 C 0.89621 0.05849 0.24158 0.0
C848 C 0.90919 0.0734 0.27904 0.0
C849 C 0.90022 0.07926 0.24441 0.0
C850 C 0.85547 0.99452 0.29465 0.0
C851 C 0.85378 0.97105 0.32297 0.0
N852 N 0.84761 0.98654 0.33534 0.0
C853 C 0.84884 0.01015 0.30758 0.0
C854 C 0.85772 0.97476 0.30234 0.0
C855 C 0.84505 0.00583 0.32812 0.0
C856 C 0.83148 0.04774 0.24558 0.0
N857 N 0.84745 0.04474 0.2585 0.0
C858 C 0.83907 0.07512 0.27695 0.0
C859 C 0.85133 0.05794 0.27407 0.0
C860 C 0.82255 0.07873 0.26374 0.0
C861 C 0.81884 0.06475 0.24787 0.0
H862 H 0.82842 0.03681 0.23359 0.0
H863 H 0.86382 0.05502 0.28443 0.0
C864 C 0.9225 0.98192 0.29332 0.0
N865 N 0.90657 0.99516 0.29455 0.0
C866 C 0.93518 0.97872 0.31016 0.0
C867 C 0.91512 0.00314 0.32916 0.0
C868 C 0.90281 0.00583 0.31196 0.0
C869 C 0.93156 0.9894 0.32843 0.0
H870 H 0.92548 0.97396 0.27918 0.0
H871 H 0.89036 0.01661 0.31245 0.0
C872 C 0.85563 0.0095 0.20893 0.0
N873 N 0.84791 0.0174 0.16819 0.0
C874 C 0.84897 0.99385 0.19601 0.0
C875 C 0.85799 0.02924 0.2012 0.0
C876 C 0.84524 0.99812 0.17544 0.0
C877 C 0.85411 0.03291 0.18055 0.0
C878 C 0.89842 0.95896 0.24574 0.0
C879 C 0.90525 0.95154 0.22694 0.0
C880 C 0.89596 0.94549 0.2621 0.0
C881 C 0.90904 0.93068 0.22468 0.0
C882 C 0.89991 0.92474 0.25925 0.0
N883 N 0.90629 0.91781 0.24074 0.0
C884 C 0.92277 0.02202 0.21061 0.0
C885 C 0.90299 0.99823 0.19182 0.0
C886 C 0.93554 0.02521 0.19383 0.0
N887 N 0.90676 0.00885 0.20927 0.0
C888 C 0.91538 1.00092 0.17468 0.0
C889 C 0.93191 0.0146 0.17553 0.0
H890 H 0.92576 0.02994 0.22478 0.0
H891 H 0.89048 0.9875 0.19124 0.0
C892 C 0.83125 0.95639 0.25789 0.0
N893 N 0.84729 0.95933 0.24505 0.0
C894 C 0.81854 0.93938 0.25558 0.0
C895 C 0.83888 0.9289 0.22665 0.0
C896 C 0.85119 0.94609 0.22954 0.0
C897 C 0.82228 0.92535 0.23978 0.0
H898 H 0.82818 0.96736 0.26983 0.0
H899 H 0.86374 0.94896 0.21925 0.0
O900 O 0.89455 0.02468 0.25558 0.0
O901 O 0.85942 0.99852 0.27451 0.0
O902 O 0.85951 0.00554 0.22909 0.0
O903 O 0.89447 0.97934 0.24818 0.0
H904 H 0.9075 0.04236 0.2896 0.0
H905 H 0.8915 0.05294 0.22679 0.0
H906 H 0.9143 0.07939 0.29357 0.0
H907 H 0.89837 0.08982 0.23185 0.0
H908 H 0.85556 0.95583 0.32913 0.0
H909 H 0.84675 0.02547 0.30187 0.0
H910 H 0.86231 0.96239 0.29248 0.0
H911 H 0.84006 0.01782 0.33832 0.0
H912 H 0.84259 0.08554 0.28931 0.0
H913 H 0.80606 0.06671 0.23756 0.0
H914 H 0.9479 0.96827 0.30877 0.0
H915 H 0.9117 0.01162 0.34294 0.0
H916 H 0.8468 0.97854 0.20175 0.0
H917 H 0.86261 0.04163 0.21105 0.0
H918 H 0.84023 0.98612 0.16525 0.0
H919 H 0.85598 0.04811 0.17436 0.0
H920 H 0.90749 0.96174 0.21418 0.0
H921 H 0.8912 0.95101 0.27688 0.0
H922 H 0.91419 0.92472 0.21016 0.0
H923 H 0.89798 0.91414 0.27177 0.0
H924 H 0.94833 0.03561 0.19531 0.0
H925 H 0.91195 0.99249 0.16087 0.0
H926 H 0.80571 0.93747 0.26583 0.0
H927 H 0.84241 0.91845 0.21434 0.0
Li928 Li 0.24952 0.13969 0.52092 0.0
Li929 Li 0.23327 0.11403 0.4988 0.0
Li930 Li 0.27147 0.11432 0.50494 0.0
Li931 Li 0.25542 0.13991 0.48268 0.0
C932 C 0.24536 0.10631 0.54495 0.0
N933 N 0.23834 0.10046 0.58615 0.0
C934 C 0.22624 0.09967 0.55174 0.0
C935 C 0.261 0.10963 0.55909 0.0
C936 C 0.22297 0.09688 0.57263 0.0
C937 C 0.25713 0.10669 0.57986 0.0
C938 C 0.21005 0.14915 0.49317 0.0
C939 C 0.18339 0.15249 0.46796 0.0
N940 N 0.17033 0.15892 0.48276 0.0
C941 C 0.19644 0.15607 0.50808 0.0
C942 C 0.20354 0.14758 0.47291 0.0
C943 C 0.1764 0.16083 0.50254 0.0
C944 C 0.25944 0.17153 0.54841 0.0
N945 N 0.24567 0.15648 0.54448 0.0
C946 C 0.22624 0.16573 0.57397 0.0
C947 C 0.22922 0.15347 0.55678 0.0
C948 C 0.24025 0.18137 0.57849 0.0
C949 C 0.25704 0.18417 0.56542 0.0
H950 H 0.27219 0.17387 0.53821 0.0
H951 H 0.21832 0.14161 0.55319 0.0
C952 C 0.21142 0.08026 0.48303 0.0
N953 N 0.20975 0.09711 0.49503 0.0
C954 C 0.19458 0.06754 0.47983 0.0
C955 C 0.1747 0.0894 0.50189 0.0
C956 C 0.1919 0.10174 0.50458 0.0
C957 C 0.17588 0.07206 0.48931 0.0
H958 H 0.2259 0.0766 0.47602 0.0
H959 H 0.19107 0.11487 0.51451 0.0
C960 C 0.29564 0.14777 0.5082 0.0
N961 N 0.33706 0.15372 0.51382 0.0
C962 C 0.30788 0.15413 0.49192 0.0
C963 C 0.30442 0.14477 0.52742 0.0
C964 C 0.3288 0.15698 0.49505 0.0
C965 C 0.3254 0.14776 0.52993 0.0
C966 C 0.25721 0.10471 0.45886 0.0
C967 C 0.27551 0.09756 0.45056 0.0
C968 C 0.23998 0.10645 0.44638 0.0
C969 C 0.27641 0.09274 0.42979 0.0
C970 C 0.24148 0.10147 0.42569 0.0
N971 N 0.25952 0.09481 0.41788 0.0
C972 C 0.29454 0.08267 0.52299 0.0
C973 C 0.31186 0.10048 0.4967 0.0
C974 C 0.31147 0.0701 0.5261 0.0
N975 N 0.29507 0.09758 0.50857 0.0
C976 C 0.32914 0.08828 0.4993 0.0
C977 C 0.32911 0.07282 0.51418 0.0
H978 H 0.2809 0.08039 0.53197 0.0
H979 H 0.31182 0.11222 0.48512 0.0
C980 C 0.24736 0.17387 0.45736 0.0
N981 N 0.25904 0.15683 0.45917 0.0
C982 C 0.24955 0.1867 0.44047 0.0
C983 C 0.2761 0.16449 0.4278 0.0
C984 C 0.27335 0.15207 0.44491 0.0
C985 C 0.26408 0.18208 0.42537 0.0
H986 H 0.23635 0.17755 0.46908 0.0
H987 H 0.28294 0.13885 0.447 0.0
O988 O 0.24879 0.10932 0.52455 0.0
O989 O 0.22971 0.1443 0.49837 0.0
O990 O 0.27515 0.1447 0.50537 0.0
O991 O 0.2561 0.10963 0.47915 0.0
H992 H 0.21403 0.09679 0.54102 0.0
H993 H 0.27598 0.11439 0.5541 0.0
H994 H 0.2082 0.09188 0.5781 0.0
H995 H 0.26908 0.10933 0.59097 0.0
H996 H 0.17815 0.15128 0.45234 0.0
H997 H 0.20124 0.15765 0.52378 0.0
H998 H 0.21398 0.14287 0.46107 0.0
H999 H 0.16568 0.16605 0.51396 0.0
H1000 H 0.21316 0.16287 0.58368 0.0
H1001 H 0.26803 0.19626 0.56809 0.0
H1002 H 0.19629 0.05411 0.47033 0.0
H1003 H 0.16059 0.09349 0.50945 0.0
H1004 H 0.30135 0.15676 0.47701 0.0
H1005 H 0.29515 0.14023 0.54027 0.0
H1006 H 0.33847 0.16177 0.48254 0.0
H1007 H 0.3324 0.14537 0.5447 0.0
H1008 H 0.28893 0.09585 0.46 0.0
H1009 H 0.22555 0.11135 0.45263 0.0
H1010 H 0.29052 0.08735 0.42315 0.0
H1011 H 0.22827 0.10281 0.41586 0.0
H1012 H 0.31061 0.05814 0.53748 0.0
H1013 H 0.34243 0.09106 0.48986 0.0
H1014 H 0.23984 0.2 0.43919 0.0
H1015 H 0.2878 0.16055 0.41682 0.0
Li1016 Li 0.38977 0.49906 0.77089 0.0
Li1017 Li 0.36422 0.5213 0.75472 0.0
Li1018 Li 0.36413 0.48303 0.74876 0.0
Li1019 Li 0.38982 0.50521 0.73266 0.0
C1020 C 0.35546 0.49474 0.79459 0.0
N1021 N 0.34759 0.48689 0.8353 0.0
C1022 C 0.34886 0.51042 0.80747 0.0
C1023 C 0.35769 0.475 0.80234 0.0
C1024 C 0.34506 0.50617 0.82802 0.0
C1025 C 0.35374 0.47136 0.82298 0.0
C1026 C 0.39862 0.54518 0.75788 0.0
C1027 C 0.4003 0.57938 0.74433 0.0
N1028 N 0.40669 0.58632 0.76284 0.0
C1029 C 0.40546 0.55261 0.7767 0.0
C1030 C 0.39625 0.55863 0.7415 0.0
C1031 C 0.40936 0.57347 0.77893 0.0
C1032 C 0.42247 0.48201 0.79326 0.0
N1033 N 0.40657 0.49528 0.79446 0.0
C1034 C 0.41509 0.50326 0.82909 0.0
C1035 C 0.40281 0.50597 0.81186 0.0
C1036 C 0.4315 0.48948 0.82838 0.0
C1037 C 0.43512 0.47879 0.81013 0.0
H1038 H 0.42545 0.47403 0.77913 0.0
H1039 H 0.39039 0.51678 0.81234 0.0
C1040 C 0.33145 0.54785 0.74556 0.0
N1041 N 0.34747 0.5449 0.75843 0.0
C1042 C 0.31881 0.56486 0.74785 0.0
C1043 C 0.33916 0.57533 0.77681 0.0
C1044 C 0.35141 0.55814 0.77394 0.0
C1045 C 0.32258 0.57889 0.76366 0.0
H1046 H 0.32834 0.53689 0.73362 0.0
H1047 H 0.36394 0.55526 0.78426 0.0
C1048 C 0.39837 0.45907 0.7457 0.0
N1049 N 0.40616 0.41789 0.74078 0.0
C1050 C 0.40521 0.45161 0.72691 0.0
C1051 C 0.39586 0.44564 0.76207 0.0
C1052 C 0.40897 0.43073 0.7247 0.0
C1053 C 0.39977 0.42486 0.75926 0.0
C1054 C 0.35558 0.50967 0.70888 0.0
C1055 C 0.34891 0.49405 0.69593 0.0
C1056 C 0.35792 0.52943 0.70118 0.0
C1057 C 0.34517 0.49837 0.67537 0.0
C1058 C 0.35403 0.53315 0.68054 0.0
N1059 N 0.34781 0.51766 0.66816 0.0
C1060 C 0.33128 0.45647 0.75786 0.0
C1061 C 0.35117 0.44625 0.72945 0.0
C1062 C 0.3186 0.43945 0.75556 0.0
N1063 N 0.34728 0.45946 0.74499 0.0
C1064 C 0.33888 0.42905 0.72656 0.0
C1065 C 0.32233 0.42545 0.73973 0.0
H1066 H 0.32822 0.46741 0.76983 0.0
H1067 H 0.36369 0.44917 0.71913 0.0
C1068 C 0.42266 0.52216 0.71035 0.0
N1069 N 0.40669 0.50893 0.70913 0.0
C1070 C 0.43537 0.5253 0.69351 0.0
C1071 C 0.41521 0.50086 0.67454 0.0
C1072 C 0.40289 0.49822 0.69174 0.0
C1073 C 0.43171 0.51459 0.67527 0.0
H1074 H 0.42567 0.53015 0.72447 0.0
H1075 H 0.3904 0.48745 0.69125 0.0
O1076 O 0.35942 0.49867 0.77444 0.0
O1077 O 0.39456 0.52481 0.75547 0.0
O1078 O 0.39445 0.47946 0.74809 0.0
O1079 O 0.35949 0.50568 0.72902 0.0
H1080 H 0.34679 0.52572 0.80171 0.0
H1081 H 0.36227 0.46259 0.79252 0.0
H1082 H 0.34008 0.5182 0.83819 0.0
H1083 H 0.3555 0.45616 0.82919 0.0
H1084 H 0.39844 0.58996 0.73179 0.0
H1085 H 0.40764 0.54243 0.78947 0.0
H1086 H 0.39148 0.55309 0.72671 0.0
H1087 H 0.41452 0.57945 0.79345 0.0
H1088 H 0.41167 0.51175 0.84285 0.0
H1089 H 0.44783 0.46831 0.80876 0.0
H1090 H 0.30598 0.56679 0.73759 0.0
H1091 H 0.34272 0.58578 0.78913 0.0
H1092 H 0.4075 0.46178 0.71414 0.0
H1093 H 0.39108 0.45119 0.77684 0.0
H1094 H 0.41413 0.42473 0.7102 0.0
H1095 H 0.39779 0.4143 0.7718 0.0
H1096 H 0.34675 0.47873 0.70164 0.0
H1097 H 0.36255 0.5418 0.71106 0.0
H1098 H 0.34015 0.48638 0.66516 0.0
H1099 H 0.35588 0.54836 0.67439 0.0
H1100 H 0.3058 0.43749 0.76583 0.0
H1101 H 0.34241 0.41862 0.71423 0.0
H1102 H 0.44813 0.53574 0.69489 0.0
H1103 H 0.41176 0.49235 0.66078 0.0
Li1104 Li 0.77122 0.38956 0.49929 0.0
Li1105 Li 0.75489 0.36399 0.52142 0.0
Li1106 Li 0.74905 0.36397 0.48313 0.0
Li1107 Li 0.73296 0.38963 0.50532 0.0
C1108 C 0.79474 0.35508 0.49474 0.0
N1109 N 0.83529 0.34683 0.48652 0.0
C1110 C 0.8077 0.34836 0.5103 0.0
C1111 C 0.80233 0.35723 0.47492 0.0
C1112 C 0.82817 0.34437 0.50587 0.0
C1113 C 0.8229 0.35309 0.47108 0.0
C1114 C 0.7582 0.39816 0.5454 0.0
C1115 C 0.74479 0.39939 0.57968 0.0
N1116 N 0.76331 0.40575 0.58661 0.0
C1117 C 0.77703 0.40497 0.55283 0.0
C1118 C 0.74188 0.39557 0.55889 0.0
C1119 C 0.77934 0.40863 0.57372 0.0
C1120 C 0.79379 0.42233 0.48252 0.0
N1121 N 0.79488 0.40629 0.49563 0.0
C1122 C 0.82957 0.41449 0.50368 0.0
C1123 C 0.81225 0.40231 0.50628 0.0
C1124 C 0.82898 0.43104 0.49004 0.0
C1125 C 0.81075 0.4349 0.4794 0.0
H1126 H 0.77967 0.42549 0.47458 0.0
H1127 H 0.81263 0.38978 0.51698 0.0
C1128 C 0.74548 0.33135 0.54811 0.0
N1129 N 0.75854 0.3472 0.545 0.0
C1130 C 0.74775 0.3187 0.56512 0.0
C1131 C 0.77707 0.3387 0.5753 0.0
C1132 C 0.77421 0.35096 0.55811 0.0
C1133 C 0.76373 0.32229 0.579 0.0
H1134 H 0.7334 0.32839 0.53725 0.0
H1135 H 0.78466 0.36338 0.55512 0.0
C1136 C 0.74634 0.39845 0.45924 0.0
N1137 N 0.74191 0.40673 0.41809 0.0
C1138 C 0.72766 0.40541 0.45163 0.0
C1139 C 0.76286 0.39607 0.44596 0.0
C1140 C 0.72569 0.40941 0.43077 0.0
C1141 C 0.7603 0.40023 0.4252 0.0
C1142 C 0.709 0.35553 0.50941 0.0
C1143 C 0.69623 0.34901 0.49358 0.0
C1144 C 0.70104 0.35789 0.52906 0.0
C1145 C 0.67558 0.34541 0.49759 0.0
C1146 C 0.68031 0.35414 0.53246 0.0
N1147 N 0.66811 0.34807 0.51678 0.0
C1148 C 0.75797 0.33094 0.45678 0.0
C1149 C 0.73008 0.35127 0.44607 0.0
C1150 C 0.75571 0.31827 0.43976 0.0
N1151 N 0.74534 0.34717 0.45953 0.0
C1152 C 0.72723 0.33899 0.42886 0.0
C1153 C 0.74016 0.32222 0.42551 0.0
H1154 H 0.76971 0.32771 0.46792 0.0
H1155 H 0.71992 0.36395 0.44879 0.0
C1156 C 0.71057 0.42226 0.52247 0.0
N1157 N 0.70945 0.4065 0.50901 0.0
C1158 C 0.69374 0.43495 0.52563 0.0
C1159 C 0.67497 0.4152 0.5007 0.0
C1160 C 0.69216 0.40289 0.49806 0.0
C1161 C 0.6756 0.43148 0.51467 0.0
H1162 H 0.72462 0.42512 0.53066 0.0
H1163 H 0.69176 0.39056 0.48712 0.0
O1164 O 0.77467 0.35923 0.49885 0.0
O1165 O 0.75572 0.39432 0.52499 0.0
O1166 O 0.74849 0.3943 0.47961 0.0
O1167 O 0.72924 0.35929 0.50572 0.0
H1168 H 0.80206 0.34635 0.52566 0.0
H1169 H 0.79244 0.36188 0.46259 0.0
H1170 H 0.8384 0.33931 0.51781 0.0
H1171 H 0.82898 0.35478 0.45582 0.0
H1172 H 0.7323 0.39735 0.59029 0.0
H1173 H 0.78976 0.40731 0.54261 0.0
H1174 H 0.72709 0.39081 0.55336 0.0
H1175 H 0.79387 0.41376 0.57969 0.0
H1176 H 0.84331 0.41089 0.51213 0.0
H1177 H 0.80948 0.44771 0.46904 0.0
H1178 H 0.73733 0.306 0.56716 0.0
H1179 H 0.78952 0.34213 0.58564 0.0
H1180 H 0.71477 0.4076 0.46168 0.0
H1181 H 0.77755 0.39124 0.45163 0.0
H1182 H 0.71127 0.41466 0.42466 0.0
H1183 H 0.77295 0.39837 0.41475 0.0
H1184 H 0.70215 0.34684 0.47835 0.0
H1185 H 0.71077 0.36241 0.54158 0.0
H1186 H 0.6655 0.34051 0.48544 0.0
H1187 H 0.67395 0.35601 0.54759 0.0
H1188 H 0.76579 0.3053 0.43799 0.0
H1189 H 0.71511 0.34268 0.41824 0.0
H1190 H 0.69504 0.44755 0.53626 0.0
H1191 H 0.66129 0.41189 0.49201 0.0
Li1192 Li 0.63978 0.98235 0.75499 0.0
Li1193 Li 0.61421 0.00444 0.77131 0.0
Li1194 Li 0.61414 0.99844 0.73305 0.0
Li1195 Li 0.6398 0.02064 0.74921 0.0
C1196 C 0.60562 0.95835 0.75828 0.0
N1197 N 0.59804 0.91715 0.76348 0.0
C1198 C 0.59888 0.95097 0.77714 0.0
C1199 C 0.60814 0.94481 0.74198 0.0
C1200 C 0.59522 0.93008 0.77949 0.0
C1201 C 0.60434 0.92403 0.74493 0.0
C1202 C 0.64877 0.00904 0.79488 0.0
C1203 C 0.65094 0.0327 0.82304 0.0
N1204 N 0.6572 0.01727 0.83543 0.0
C1205 C 0.65549 0.99347 0.80782 0.0
C1206 C 0.64671 0.02886 0.80249 0.0
C1207 C 0.65957 0.99791 0.82829 0.0
C1208 C 0.67244 0.95577 0.74557 0.0
N1209 N 0.6566 0.95881 0.75862 0.0
C1210 C 0.6652 0.92853 0.7771 0.0
C1211 C 0.65288 0.94568 0.77426 0.0
C1212 C 0.68161 0.9249 0.76378 0.0
C1213 C 0.68515 0.9388 0.74782 0.0
H1214 H 0.67537 0.96664 0.73351 0.0
H1215 H 0.64047 0.94862 0.7847 0.0
C1216 C 0.58136 0.02109 0.79379 0.0
N1217 N 0.59747 0.00809 0.79495 0.0
C1218 C 0.56879 0.02422 0.81073 0.0
C1219 C 0.58934 1.00016 0.82966 0.0
C1220 C 0.60152 0.99754 0.81236 0.0
C1221 C 0.57272 0.0137 0.82901 0.0
H1222 H 0.57814 0.02894 0.77964 0.0
H1223 H 0.6141 0.98692 0.81279 0.0
C1224 C 0.64822 0.99435 0.70915 0.0
N1225 N 0.65562 0.98691 0.66827 0.0
C1226 C 0.6548 0.01013 0.69639 0.0
C1227 C 0.64577 0.9747 0.70118 0.0
C1228 C 0.65836 0.00609 0.67574 0.0
C1229 C 0.64949 0.97126 0.68046 0.0
C1230 C 0.60529 0.0445 0.74661 0.0
C1231 C 0.5983 0.05221 0.72798 0.0
C1232 C 0.60767 0.05767 0.76323 0.0
C1233 C 0.59426 0.07307 0.72617 0.0
C1234 C 0.60348 0.07844 0.76082 0.0
N1235 N 0.59695 0.08565 0.74248 0.0
C1236 C 0.5816 0.98128 0.71038 0.0
C1237 C 0.60094 0.00592 0.6923 0.0
C1238 C 0.56897 0.97821 0.69346 0.0
N1239 N 0.59732 0.99482 0.70946 0.0
C1240 C 0.5887 0.00336 0.67502 0.0
C1241 C 0.57246 0.98932 0.67543 0.0
H1242 H 0.57873 0.97297 0.72434 0.0
H1243 H 0.61325 0.01691 0.69205 0.0
C1244 C 0.67284 0.04705 0.75812 0.0
N1245 N 0.65658 0.04425 0.74551 0.0
C1246 C 0.68551 0.06407 0.75581 0.0
C1247 C 0.6647 0.07485 0.72732 0.0
C1248 C 0.65243 0.05765 0.73022 0.0
C1249 C 0.68151 0.07826 0.74023 0.0
H1250 H 0.67612 0.03595 0.76987 0.0
H1251 H 0.63972 0.05487 0.72008 0.0
O1252 O 0.60943 0.97875 0.75575 0.0
O1253 O 0.64455 0.00492 0.77481 0.0
O1254 O 0.64448 0.99807 0.72938 0.0
O1255 O 0.60947 0.02412 0.7486 0.0
H1256 H 0.59658 0.96122 0.78985 0.0
H1257 H 0.61285 0.95029 0.72717 0.0
H1258 H 0.59015 0.92415 0.79404 0.0
H1259 H 0.60633 0.91339 0.73246 0.0
H1260 H 0.64931 0.04797 0.82913 0.0
H1261 H 0.65744 0.9781 0.80218 0.0
H1262 H 0.64207 0.0412 0.7926 0.0
H1263 H 0.66464 0.98597 0.83851 0.0
H1264 H 0.66181 0.91818 0.78953 0.0
H1265 H 0.69784 0.93682 0.73741 0.0
H1266 H 0.55592 0.0345 0.80941 0.0
H1267 H 0.593 0.9918 0.84344 0.0
H1268 H 0.65703 0.02537 0.70231 0.0
H1269 H 0.6412 0.9622 0.71091 0.0
H1270 H 0.66331 0.01821 0.66567 0.0
H1271 H 0.64755 0.95614 0.67409 0.0
H1272 H 0.5961 0.04224 0.71502 0.0
H1273 H 0.61253 0.05192 0.77789 0.0
H1274 H 0.58899 0.07926 0.71179 0.0
H1275 H 0.60535 0.0888 0.77356 0.0
H1276 H 0.5564 0.96751 0.6946 0.0
H1277 H 0.59204 0.01217 0.66143 0.0
H1278 H 0.69851 0.06589 0.76587 0.0
H1279 H 0.66097 0.08543 0.71518 0.0
Li1280 Li 0.02113 0.25501 0.86404 0.0
Li1281 Li 0.99891 0.271 0.88967 0.0
Li1282 Li 0.00507 0.23283 0.88994 0.0
Li1283 Li 0.98291 0.24902 0.86428 0.0
C1284 C 0.04499 0.25666 0.89923 0.0
N1285 N 0.08598 0.2586 0.90919 0.0
C1286 C 0.05359 0.27502 0.90595 0.0
C1287 C 0.05717 0.2392 0.89797 0.0
C1288 C 0.07436 0.27572 0.9108 0.0
C1289 C 0.07787 0.24051 0.90297 0.0
C1290 C 0.99524 0.29512 0.8564 0.0
C1291 C 0.97306 0.32448 0.85704 0.0
N1292 N 0.98887 0.33645 0.85081 0.0
C1293 C 0.0112 0.30767 0.84978 0.0
C1294 C 0.97596 0.30355 0.85985 0.0
C1295 C 0.0077 0.32853 0.84712 0.0
C1296 C 0.04684 0.24675 0.83035 0.0
N1297 N 0.04464 0.25874 0.84715 0.0
C1298 C 0.07566 0.27641 0.83939 0.0
C1299 C 0.05853 0.2735 0.85174 0.0
C1300 C 0.07849 0.26407 0.82206 0.0
C1301 C 0.06379 0.24907 0.81761 0.0
H1302 H 0.03533 0.23548 0.82671 0.0
H1303 H 0.05618 0.28323 0.86483 0.0
C1304 C 0.98084 0.29408 0.92132 0.0
N1305 N 0.99528 0.2946 0.90644 0.0
C1306 C 0.97772 0.31103 0.93389 0.0
C1307 C 0.00455 0.32869 0.91574 0.0
C1308 C 0.00717 0.31139 0.90355 0.0
C1309 C 0.98965 0.32868 0.93117 0.0
H1310 H 0.97184 0.28043 0.92357 0.0
H1311 H 0.01874 0.31135 0.89181 0.0
C1312 C 0.01062 0.20968 0.8545 0.0
N1313 N 0.02096 0.1701 0.84415 0.0
C1314 C 0.99578 0.19629 0.84695 0.0
C1315 C 0.0308 0.20302 0.85641 0.0
C1316 C 1.00128 0.17632 0.8419 0.0
C1317 C 0.0357 0.18294 0.8512 0.0
C1318 C 0.95903 0.24429 0.89776 0.0
C1319 C 0.95276 0.2249 0.9041 0.0
C1320 C 0.9445 0.25961 0.89485 0.0
C1321 C 0.93198 0.22105 0.90704 0.0
C1322 C 0.92386 0.25516 0.89792 0.0
N1323 N 0.91807 0.23612 0.90388 0.0
C1324 C 0.01992 0.21176 0.92443 0.0
C1325 C 1.00056 0.19112 0.90186 0.0
C1326 C 0.02318 0.19514 0.93739 0.0
N1327 N 0.00895 0.20944 0.90695 0.0
C1328 C 0.00346 0.17409 0.91434 0.0
C1329 C 0.01495 0.17595 0.93237 0.0
H1330 H 0.02613 0.22655 0.92834 0.0
H1331 H 0.99129 0.18978 0.88829 0.0
C1332 C 0.95542 0.25898 0.83251 0.0
N1333 N 0.95934 0.24516 0.84748 0.0
C1334 C 0.9384 0.25663 0.81987 0.0
C1335 C 0.92983 0.22574 0.83813 0.0
C1336 C 0.94704 0.22868 0.85039 0.0
C1337 C 0.9253 0.23982 0.82258 0.0
H1338 H 0.96564 0.27174 0.83023 0.0
H1339 H 0.95064 0.21771 0.86215 0.0
O1340 O 0.02469 0.25573 0.89432 0.0
O1341 O 0.99845 0.27468 0.8593 0.0
O1342 O 0.00545 0.22926 0.85965 0.0
O1343 O 0.97932 0.24829 0.89467 0.0
H1344 H 0.04438 0.28862 0.90728 0.0
H1345 H 0.05068 0.22474 0.89342 0.0
H1346 H 0.08124 0.28988 0.91585 0.0
H1347 H 0.08746 0.22712 0.90199 0.0
H1348 H 0.95824 0.33121 0.85977 0.0
H1349 H 0.02616 0.3014 0.84681 0.0
H1350 H 0.96336 0.29403 0.86463 0.0
H1351 H 0.01995 0.33843 0.84213 0.0
H1352 H 0.08663 0.28812 0.84344 0.0
H1353 H 0.06515 0.23948 0.8042 0.0
H1354 H 0.96631 0.31018 0.94583 0.0
H1355 H 0.01399 0.34199 0.91296 0.0
H1356 H 0.98015 0.20122 0.8451 0.0
H1357 H 0.04259 0.2133 0.86163 0.0
H1358 H 0.9899 0.16577 0.83619 0.0
H1359 H 0.05125 0.17758 0.85268 0.0
H1360 H 0.96379 0.21291 0.90664 0.0
H1361 H 0.94909 0.27478 0.89031 0.0
H1362 H 0.9269 0.20607 0.91181 0.0
H1363 H 0.91244 0.26686 0.89561 0.0
H1364 H 0.03223 0.19726 0.95107 0.0
H1365 H 0.99645 0.15971 0.9101 0.0
H1366 H 0.93574 0.26767 0.80785 0.0
H1367 H 0.9201 0.21265 0.84091 0.0
Li1368 Li 0.52119 0.75485 0.36427 0.0
Li1369 Li 0.49903 0.77099 0.38991 0.0
Li1370 Li 0.50515 0.73276 0.38997 0.0
Li1371 Li 0.48291 0.7489 0.36438 0.0
C1372 C 0.54518 0.75772 0.3987 0.0
N1373 N 0.58636 0.76212 0.40689 0.0
C1374 C 0.55285 0.77641 0.40563 0.0
C1375 C 0.55841 0.74118 0.3963 0.0
C1376 C 0.57373 0.77836 0.40959 0.0
C1377 C 0.57919 0.74373 0.40042 0.0
C1378 C 0.49481 0.79477 0.35581 0.0
C1379 C 0.47171 0.8234 0.35452 0.0
N1380 N 0.48735 0.83563 0.34837 0.0
C1381 C 0.51058 0.80756 0.34922 0.0
C1382 C 0.47516 0.8027 0.35825 0.0
C1383 C 0.50653 0.82819 0.34563 0.0
C1384 C 0.54741 0.7459 0.33116 0.0
N1385 N 0.54471 0.75856 0.3474 0.0
C1386 C 0.57529 0.77676 0.33909 0.0
C1387 C 0.55816 0.77388 0.35145 0.0
C1388 C 0.57859 0.76381 0.32231 0.0
C1389 C 0.56436 0.74819 0.31842 0.0
H1390 H 0.53628 0.73412 0.32797 0.0
H1391 H 0.55547 0.78405 0.36414 0.0
C1392 C 0.4818 0.79362 0.42238 0.0
N1393 N 0.49535 0.7946 0.40669 0.0
C1394 C 0.47864 0.81056 0.43495 0.0
C1395 C 0.50372 0.82912 0.41525 0.0
C1396 C 0.50637 0.81183 0.40305 0.0
C1397 C 0.48967 0.82864 0.43146 0.0
H1398 H 0.47355 0.77962 0.42526 0.0
H1399 H 0.51736 0.81212 0.39077 0.0
C1400 C 0.5096 0.70909 0.3555 0.0
N1401 N 0.5178 0.66853 0.34724 0.0
C1402 C 0.494 0.69608 0.34888 0.0
C1403 C 0.52944 0.70154 0.35754 0.0
C1404 C 0.49843 0.6756 0.34488 0.0
C1405 C 0.53327 0.68097 0.3534 0.0
C1406 C 0.45904 0.74555 0.39857 0.0
C1407 C 0.45176 0.7267 0.40544 0.0
C1408 C 0.44541 0.76174 0.39594 0.0
C1409 C 0.43089 0.72422 0.40911 0.0
C1410 C 0.42465 0.75866 0.39976 0.0
N1411 N 0.41788 0.74011 0.40619 0.0
C1412 C 0.52204 0.71051 0.42286 0.0
C1413 C 0.49843 0.69174 0.40285 0.0
C1414 C 0.52527 0.69365 0.4355 0.0
N1415 N 0.50895 0.70922 0.40679 0.0
C1416 C 0.50114 0.67452 0.41512 0.0
C1417 C 0.51476 0.67532 0.4317 0.0
H1418 H 0.52987 0.72471 0.42598 0.0
H1419 H 0.48774 0.69119 0.39031 0.0
C1420 C 0.45622 0.75816 0.33173 0.0
N1421 N 0.4593 0.74515 0.34761 0.0
C1422 C 0.4392 0.75588 0.31907 0.0
C1423 C 0.42894 0.72665 0.3391 0.0
C1424 C 0.44615 0.72951 0.35138 0.0
C1425 C 0.42527 0.73994 0.32267 0.0
H1426 H 0.46711 0.77021 0.32876 0.0
H1427 H 0.44912 0.71911 0.36381 0.0
O1428 O 0.52479 0.75559 0.39459 0.0
O1429 O 0.49854 0.77456 0.35957 0.0
O1430 O 0.5055 0.72916 0.35964 0.0
O1431 O 0.47942 0.74821 0.39473 0.0
H1432 H 0.54283 0.78931 0.40783 0.0
H1433 H 0.55269 0.72648 0.39148 0.0
H1434 H 0.57989 0.79278 0.41482 0.0
H1435 H 0.5896 0.73106 0.39854 0.0
H1436 H 0.45659 0.82974 0.35645 0.0
H1437 H 0.52582 0.80168 0.34699 0.0
H1438 H 0.46268 0.79295 0.36285 0.0
H1439 H 0.51864 0.83828 0.34067 0.0
H1440 H 0.5859 0.78892 0.34274 0.0
H1441 H 0.56609 0.73809 0.30544 0.0
H1442 H 0.46794 0.80937 0.4475 0.0
H1443 H 0.51248 0.84275 0.41191 0.0
H1444 H 0.47862 0.70168 0.34695 0.0
H1445 H 0.5418 0.71147 0.3621 0.0
H1446 H 0.48646 0.66534 0.3399 0.0
H1447 H 0.54854 0.67493 0.35501 0.0
H1448 H 0.46209 0.71407 0.40782 0.0
H1449 H 0.45081 0.77655 0.39112 0.0
H1450 H 0.42505 0.70966 0.41429 0.0
H1451 H 0.41394 0.77104 0.39769 0.0
H1452 H 0.53561 0.69509 0.44834 0.0
H1453 H 0.49278 0.66069 0.41156 0.0
H1454 H 0.43718 0.76626 0.30636 0.0
H1455 H 0.41857 0.71423 0.34254 0.0
Li1456 Li 0.00524 0.77108 0.61393 0.0
Li1457 Li 0.98307 0.75492 0.63958 0.0
Li1458 Li 0.02135 0.7491 0.63964 0.0
Li1459 Li 0.99917 0.73283 0.61406 0.0
C1460 C 0.00972 0.79486 0.64831 0.0
N1461 N 0.01781 0.83551 0.65638 0.0
C1462 C 0.9941 0.8078 0.6549 0.0
C1463 C 0.02953 0.80253 0.64621 0.0
C1464 C 0.99847 0.82832 0.65879 0.0
C1465 C 0.0333 0.82314 0.65025 0.0
C1466 C 0.95914 0.75798 0.60532 0.0
C1467 C 0.92484 0.74456 0.60399 0.0
N1468 N 0.91796 0.76305 0.59753 0.0
C1469 C 0.95177 0.77677 0.59842 0.0
C1470 C 0.9456 0.74167 0.6079 0.0
C1471 C 0.93089 0.77906 0.59466 0.0
C1472 C 0.02206 0.79336 0.58101 0.0
N1473 N 0.00896 0.7946 0.59706 0.0
C1474 C 1.00101 0.82922 0.58862 0.0
C1475 C 0.99836 0.81201 0.60093 0.0
C1476 C 0.01463 0.82847 0.57207 0.0
C1477 C 0.02522 0.8102 0.56832 0.0
H1478 H 0.02995 0.77921 0.57793 0.0
H1479 H 0.98766 0.81251 0.61346 0.0
C1480 C 0.95646 0.74574 0.67233 0.0
N1481 N 0.95948 0.75864 0.65635 0.0
C1482 C 0.93945 0.74803 0.68499 0.0
C1483 C 0.92911 0.77706 0.66473 0.0
C1484 C 0.9463 0.77418 0.65247 0.0
C1485 C 0.92548 0.76387 0.68127 0.0
H1486 H 0.96738 0.73377 0.67539 0.0
H1487 H 0.94923 0.78452 0.63996 0.0
C1488 C 0.04528 0.74624 0.60522 0.0
N1489 N 0.08646 0.74194 0.59705 0.0
C1490 C 0.05294 0.72756 0.59832 0.0
C1491 C 0.05852 0.76283 0.6076 0.0
C1492 C 0.07381 0.72566 0.59437 0.0
C1493 C 0.07929 0.76033 0.60349 0.0
C1494 C 0.99489 0.70914 0.64828 0.0
C1495 C 0.01061 0.69634 0.65491 0.0
C1496 C 0.97519 0.70126 0.64594 0.0
C1497 C 0.00645 0.67575 0.65862 0.0
C1498 C 0.97163 0.68058 0.6498 0.0
N1499 N 0.98722 0.66835 0.65597 0.0
C1500 C 0.04783 0.75821 0.67259 0.0
C1501 C 0.05825 0.73006 0.65243 0.0
C1502 C 0.06484 0.75593 0.68526 0.0
N1503 N 0.04494 0.74546 0.65645 0.0
C1504 C 0.07544 0.7272 0.66471 0.0
C1505 C 0.07893 0.74024 0.6814 0.0
H1506 H 0.0368 0.77005 0.67576 0.0
H1507 H 0.05542 0.71983 0.63981 0.0
C1508 C 0.98205 0.71006 0.58156 0.0
N1509 N 0.99552 0.70917 0.59734 0.0
C1510 C 0.97896 0.69309 0.56901 0.0
C1511 C 0.00394 0.67466 0.5889 0.0
C1512 C 0.00652 0.69198 0.60108 0.0
C1513 C 0.98997 0.67505 0.57261 0.0
H1514 H 0.97381 0.72403 0.5786 0.0
H1515 H 0.01747 0.69176 0.61341 0.0
O1516 O 0.00568 0.77475 0.64426 0.0
O1517 O 0.97952 0.75552 0.60923 0.0
O1518 O 0.02489 0.74833 0.60932 0.0
O1519 O 0.99873 0.72932 0.64441 0.0
H1520 H 0.97874 0.80211 0.65687 0.0
H1521 H 0.04191 0.79266 0.64167 0.0
H1522 H 0.98648 0.83853 0.66375 0.0
H1523 H 0.04855 0.82927 0.64859 0.0
H1524 H 0.91419 0.73208 0.60602 0.0
H1525 H 0.96202 0.78949 0.59607 0.0
H1526 H 0.95108 0.72691 0.61272 0.0
H1527 H 0.92497 0.79356 0.58946 0.0
H1528 H 0.99259 0.84299 0.59214 0.0
H1529 H 0.03557 0.80881 0.55551 0.0
H1530 H 0.93747 0.73774 0.69777 0.0
H1531 H 0.9187 0.78939 0.66121 0.0
H1532 H 0.04291 0.71464 0.59613 0.0
H1533 H 0.05281 0.77751 0.61239 0.0
H1534 H 0.07996 0.71125 0.58917 0.0
H1535 H 0.08971 0.77302 0.60536 0.0
H1536 H 0.02589 0.7022 0.65708 0.0
H1537 H 0.96274 0.71101 0.64133 0.0
H1538 H 0.01852 0.66565 0.66361 0.0
H1539 H 0.95647 0.67428 0.64794 0.0
H1540 H 0.06671 0.7661 0.69817 0.0
H1541 H 0.08595 0.71497 0.66108 0.0
H1542 H 0.96832 0.69422 0.5564 0.0
H1543 H 0.01269 0.66106 0.59231 0.0
Li1544 Li 0.50524 0.27107 0.11402 0.0
Li1545 Li 0.48309 0.25492 0.13969 0.0
Li1546 Li 0.52138 0.24911 0.13971 0.0
Li1547 Li 0.49916 0.23282 0.11415 0.0
C1548 C 0.50973 0.29488 0.14836 0.0
N1549 N 0.51778 0.33555 0.15636 0.0
C1550 C 0.4941 0.3078 0.15497 0.0
C1551 C 0.52953 0.30257 0.1462 0.0
C1552 C 0.49845 0.32833 0.15883 0.0
C1553 C 0.53327 0.32319 0.15022 0.0
C1554 C 0.45913 0.25797 0.10543 0.0
C1555 C 0.42484 0.24452 0.10408 0.0
N1556 N 0.41795 0.26302 0.09765 0.0
C1557 C 0.45175 0.27676 0.09856 0.0
C1558 C 0.4456 0.24165 0.10799 0.0
C1559 C 0.43087 0.27904 0.0948 0.0
C1560 C 0.52204 0.29332 0.08107 0.0
N1561 N 0.50895 0.29459 0.09712 0.0
C1562 C 0.50101 0.3292 0.08865 0.0
C1563 C 0.49836 0.31201 0.10098 0.0
C1564 C 0.51462 0.32843 0.07208 0.0
C1565 C 0.52519 0.31015 0.06836 0.0
H1566 H 0.52992 0.27917 0.078 0.0
H1567 H 0.48767 0.31253 0.11352 0.0
C1568 C 0.45653 0.24575 0.17249 0.0
N1569 N 0.45952 0.25864 0.1565 0.0
C1570 C 0.43954 0.24804 0.18517 0.0
C1571 C 0.42914 0.27703 0.1649 0.0
C1572 C 0.44632 0.27416 0.15262 0.0
C1573 C 0.42555 0.26387 0.18145 0.0
H1574 H 0.46747 0.2338 0.17555 0.0
H1575 H 0.44922 0.28449 0.1401 0.0
C1576 C 0.54527 0.2462 0.10528 0.0
N1577 N 0.58644 0.24183 0.09712 0.0
C1578 C 0.5529 0.22751 0.09841 0.0
C1579 C 0.55853 0.26277 0.10764 0.0
C1580 C 0.57377 0.22557 0.09446 0.0
C1581 C 0.5793 0.26024 0.10354 0.0
C1582 C 0.49489 0.20915 0.1484 0.0
C1583 C 0.5106 0.19633 0.15503 0.0
C1584 C 0.47518 0.2013 0.14607 0.0
C1585 C 0.5064 0.17575 0.15877 0.0
C1586 C 0.47159 0.18063 0.14995 0.0
N1587 N 0.48715 0.16838 0.15613 0.0
C1588 C 0.54792 0.25825 0.17259 0.0
C1589 C 0.55826 0.23003 0.15248 0.0
C1590 C 0.56495 0.25597 0.18524 0.0
N1591 N 0.54498 0.24546 0.15649 0.0
C1592 C 0.57547 0.22716 0.16474 0.0
C1593 C 0.57901 0.24024 0.1814 0.0
H1594 H 0.53692 0.27012 0.17574 0.0
H1595 H 0.55538 0.21976 0.1399 0.0
C1596 C 0.48205 0.2101 0.08163 0.0
N1597 N 0.49549 0.20917 0.09743 0.0
C1598 C 0.47895 0.19313 0.06906 0.0
C1599 C 0.50387 0.17465 0.08898 0.0
C1600 C 0.50646 0.19196 0.10117 0.0
C1601 C 0.48993 0.17507 0.07267 0.0
H1602 H 0.47384 0.22408 0.07866 0.0
H1603 H 0.51739 0.19171 0.11352 0.0
O1604 O 0.50571 0.27475 0.14435 0.0
O1605 O 0.47951 0.25552 0.10935 0.0
O1606 O 0.52488 0.24832 0.10938 0.0
O1607 O 0.49876 0.22932 0.1445 0.0
H1608 H 0.47876 0.30209 0.15699 0.0
H1609 H 0.5419 0.29271 0.14165 0.0
H1610 H 0.48646 0.33853 0.1638 0.0
H1611 H 0.54851 0.32935 0.14851 0.0
H1612 H 0.4142 0.23203 0.10609 0.0
H1613 H 0.46199 0.28949 0.09624 0.0
H1614 H 0.45109 0.22688 0.1128 0.0
H1615 H 0.42494 0.29355 0.08962 0.0
H1616 H 0.4926 0.34298 0.09215 0.0
H1617 H 0.53554 0.30874 0.05554 0.0
H1618 H 0.43759 0.23776 0.19797 0.0
H1619 H 0.41872 0.28936 0.16138 0.0
H1620 H 0.54286 0.21459 0.09623 0.0
H1621 H 0.55284 0.27747 0.11242 0.0
H1622 H 0.5799 0.21115 0.08928 0.0
H1623 H 0.58974 0.27292 0.1054 0.0
H1624 H 0.52588 0.20217 0.15718 0.0
H1625 H 0.46274 0.21107 0.14146 0.0
H1626 H 0.51845 0.16564 0.16376 0.0
H1627 H 0.45641 0.17435 0.14811 0.0
H1628 H 0.56686 0.26617 0.19812 0.0
H1629 H 0.58594 0.21491 0.16113 0.0
H1630 H 0.46833 0.19428 0.05643 0.0
H1631 H 0.51259 0.16104 0.0924 0.0
C1632 C 0.21478 0.79012 0.88437 0.0
C1633 C 0.23166 0.78308 0.87314 0.0
H1634 H 0.20421 0.80772 0.90978 0.0
C1635 C 0.25136 0.78913 0.87923 0.0
H1636 H 0.19942 0.78549 0.88031 0.0
C1637 C 0.25411 0.80188 0.89615 0.0
C1638 C 0.23723 0.80889 0.90738 0.0
H1639 H 0.26468 0.78424 0.87074 0.0
H1640 H 0.26947 0.80647 0.90026 0.0
C1641 C 0.21753 0.80287 0.90127 0.0
C1642 C 0.04062 0.50267 0.37594 0.0
C1643 C 0.03378 0.52227 0.38142 0.0
H1644 H 0.0581 0.48462 0.35507 0.0
C1645 C 0.03999 0.53907 0.36957 0.0
H1646 H 0.0363 0.48943 0.38486 0.0
C1647 C 0.05264 0.53633 0.35261 0.0
C1648 C 0.05943 0.51673 0.3471 0.0
H1649 H 0.03483 0.55434 0.37325 0.0
H1650 H 0.05723 0.54961 0.34389 0.0
C1651 C 0.05331 0.49994 0.359 0.0
C1652 C 0.78974 0.71334 0.88381 0.0
C1653 C 0.77285 0.7209 0.87293 0.0
H1654 H 0.80029 0.69529 0.90891 0.0
C1655 C 0.7531 0.71535 0.87933 0.0
H1656 H 0.80514 0.71757 0.87952 0.0
C1657 C 0.75033 0.7026 0.89622 0.0
C1658 C 0.76722 0.69506 0.9071 0.0
H1659 H 0.73977 0.72064 0.87111 0.0
H1660 H 0.73493 0.69842 0.90059 0.0
C1661 C 0.78696 0.70057 0.90068 0.0
C1662 C 0.9647 0.96397 0.36865 0.0
C1663 C 0.97096 0.98072 0.38056 0.0
H1664 H 0.94727 0.95354 0.34301 0.0
C1665 C 0.96403 1.00032 0.37528 0.0
H1666 H 0.96992 0.94869 0.37218 0.0
C1667 C 0.95118 0.00312 0.35846 0.0
C1668 C 0.94501 0.98639 0.34648 0.0
H1669 H 0.9684 0.01352 0.38426 0.0
H1670 H 0.94632 0.01846 0.35467 0.0
C1671 C 0.9519 0.96678 0.35179 0.0
C1672 C 0.21472 0.21452 0.61866 0.0
C1673 C 0.23143 0.22075 0.63064 0.0
H1674 H 0.20442 0.19756 0.59269 0.0
C1675 C 0.25105 0.21384 0.6254 0.0
H1676 H 0.19945 0.21983 0.62208 0.0
C1677 C 0.25391 0.20103 0.60856 0.0
C1678 C 0.23721 0.19484 0.59653 0.0
H1679 H 0.26421 0.21811 0.63449 0.0
H1680 H 0.26919 0.19576 0.60512 0.0
C1681 C 0.21758 0.20174 0.60181 0.0
C1682 C 0.46492 0.53991 0.63501 0.0
C1683 C 0.4711 0.52313 0.62312 0.0
H1684 H 0.44757 0.5504 0.66063 0.0
C1685 C 0.46409 0.50354 0.62844 0.0
H1686 H 0.4702 0.55517 0.63145 0.0
C1687 C 0.45126 0.50079 0.64527 0.0
C1688 C 0.44517 0.51755 0.65722 0.0
H1689 H 0.4684 0.49033 0.61948 0.0
H1690 H 0.44634 0.48546 0.64909 0.0
C1691 C 0.45213 0.53714 0.65187 0.0
C1692 C 0.78913 0.29004 0.61995 0.0
C1693 C 0.77226 0.283 0.63123 0.0
H1694 H 0.79966 0.30764 0.59453 0.0
C1695 C 0.75256 0.28905 0.62523 0.0
H1696 H 0.80448 0.28541 0.62395 0.0
C1697 C 0.74979 0.30181 0.60834 0.0
C1698 C 0.76666 0.30883 0.59705 0.0
H1699 H 0.73926 0.28415 0.63376 0.0
H1700 H 0.73443 0.3064 0.6043 0.0
C1701 C 0.78636 0.3028 0.60308 0.0
C1702 C 0.54008 1.00061 0.62863 0.0
C1703 C 0.53337 0.981 0.62296 0.0
H1704 H 0.55749 0.01863 0.64965 0.0
C1705 C 0.53973 0.96415 0.63462 0.0
H1706 H 0.53563 0.01389 0.61986 0.0
C1707 C 0.55242 0.96684 0.65158 0.0
C1708 C 0.55909 0.98644 0.65728 0.0
H1709 H 0.53467 0.94886 0.6308 0.0
H1710 H 0.55715 0.95351 0.66014 0.0
C1711 C 0.5528 0.00329 0.64557 0.0
C1712 C 0.87838 0.2508 0.79025 0.0
C1713 C 0.87305 0.23121 0.78325 0.0
H1714 H 0.89876 0.26885 0.80839 0.0
C1715 C 0.88498 0.21447 0.78938 0.0
H1716 H 0.86933 0.26398 0.78606 0.0
C1717 C 0.90187 0.21725 0.80214 0.0
C1718 C 0.90723 0.23685 0.80913 0.0
H1719 H 0.88148 0.19921 0.78401 0.0
H1720 H 0.91095 0.20407 0.80623 0.0
C1721 C 0.89525 0.25359 0.80304 0.0
C1722 C 0.4643 0.86932 0.46408 0.0
C1723 C 0.48111 0.88107 0.47051 0.0
H1724 H 0.45378 0.84375 0.44662 0.0
C1725 C 0.50075 0.87552 0.46384 0.0
H1726 H 0.449 0.87305 0.46909 0.0
C1727 C 0.50351 0.8586 0.45112 0.0
C1728 C 0.48671 0.8468 0.44478 0.0
H1729 H 0.514 0.88435 0.46834 0.0
H1730 H 0.51887 0.85461 0.44649 0.0
C1731 C 0.46707 0.85238 0.45139 0.0
C1732 C 0.1239 0.25291 0.78778 0.0
C1733 C 0.13061 0.27266 0.78264 0.0
H1734 H 0.10241 0.23472 0.80442 0.0
C1735 C 0.12007 0.28955 0.79066 0.0
H1736 H 0.13185 0.23956 0.78214 0.0
C1737 C 0.10324 0.28676 0.80348 0.0
C1738 C 0.0965 0.26702 0.80857 0.0
H1739 H 0.12459 0.30497 0.78674 0.0
H1740 H 0.09527 0.3001 0.80913 0.0
C1741 C 0.10703 0.25012 0.80057 0.0
C1742 C 0.50391 0.62827 0.46384 0.0
C1743 C 0.5235 0.6231 0.47092 0.0
H1744 H 0.48576 0.64882 0.44608 0.0
C1745 C 0.54022 0.63516 0.46486 0.0
H1746 H 0.49074 0.61919 0.46805 0.0
C1747 C 0.53739 0.65204 0.45213 0.0
C1748 C 0.51779 0.65724 0.44509 0.0
H1749 H 0.55549 0.63172 0.4702 0.0
H1750 H 0.55061 0.66094 0.44766 0.0
C1751 C 0.50109 0.64512 0.45106 0.0
C1752 C 0.87933 0.75271 0.71462 0.0
C1753 C 0.87326 0.77242 0.72055 0.0
H1754 H 0.90033 0.73456 0.69736 0.0
C1755 C 0.88445 0.78929 0.71338 0.0
H1756 H 0.87087 0.7394 0.71961 0.0
C1757 C 0.90132 0.78652 0.70062 0.0
C1758 C 0.90743 0.76681 0.69472 0.0
H1759 H 0.8804 0.80466 0.71792 0.0
H1760 H 0.90981 0.79983 0.69567 0.0
C1761 C 0.89622 0.74993 0.70186 0.0
C1762 C 0.04 0.86874 0.5389 0.0
C1763 C 0.02325 0.88069 0.5328 0.0
H1764 H 0.05045 0.84305 0.55616 0.0
C1765 C 0.00366 0.87541 0.53984 0.0
H1766 H 0.05526 0.87228 0.5336 0.0
C1767 C 1.00088 0.85855 0.55263 0.0
C1768 C 0.01761 0.84654 0.55865 0.0
H1769 H 0.99047 0.88441 0.53559 0.0
H1770 H 0.98556 0.85476 0.55758 0.0
C1771 C 0.03721 0.85185 0.55165 0.0
C1772 C 0.12007 0.71479 0.71335 0.0
C1773 C 0.13117 0.73166 0.7207 0.0
H1774 H 0.09479 0.70426 0.6955 0.0
C1775 C 0.12499 0.75139 0.71494 0.0
H1776 H 0.12421 0.69941 0.71776 0.0
C1777 C 0.10809 0.75418 0.70219 0.0
C1778 C 0.09699 0.7373 0.69486 0.0
H1779 H 0.13337 0.76471 0.72007 0.0
H1780 H 0.10389 0.76956 0.69783 0.0
C1781 C 0.1032 0.71757 0.70059 0.0
C1782 C 0.96476 0.63419 0.53997 0.0
C1783 C 0.9816 0.62249 0.53366 0.0
H1784 H 0.95415 0.65978 0.55731 0.0
C1785 C 1.00121 0.62814 0.54039 0.0
H1786 H 0.94947 0.63039 0.53491 0.0
C1787 C 0.00391 0.6451 0.55308 0.0
C1788 C 0.98708 0.65686 0.55931 0.0
H1789 H 0.01448 0.61934 0.53597 0.0
H1790 H 0.01925 0.64917 0.55777 0.0
C1791 C 0.96747 0.65118 0.55262 0.0
C1792 C 0.7888 0.87925 0.25093 0.0
C1793 C 0.78292 0.8731 0.2312 0.0
H1794 H 0.80604 0.90032 0.26909 0.0
C1795 C 0.79015 0.88423 0.21433 0.0
H1796 H 0.78376 0.87084 0.26424 0.0
C1797 C 0.80294 0.90112 0.21712 0.0
C1798 C 0.80879 0.90729 0.23684 0.0
H1799 H 0.78565 0.88012 0.19895 0.0
H1800 H 0.80794 0.90955 0.2038 0.0
C1801 C 0.80158 0.89615 0.25371 0.0
C1802 C 0.78925 0.12486 0.25259 0.0
C1803 C 0.7833 0.13094 0.27231 0.0
H1804 H 0.8065 0.10387 0.23444 0.0
C1805 C 0.79043 0.11974 0.28917 0.0
H1806 H 0.78429 0.13333 0.23929 0.0
C1807 C 0.80318 0.10287 0.28639 0.0
C1808 C 0.80911 0.09677 0.26668 0.0
H1809 H 0.78588 0.12379 0.30454 0.0
H1810 H 0.80811 0.09438 0.2997 0.0
C1811 C 0.80199 0.10798 0.24981 0.0
C1812 C 0.37594 0.9633 1.00123 0.0
C1813 C 0.38157 0.96997 0.98161 0.0
H1814 H 0.35491 0.94598 0.01929 0.0
C1815 C 0.36986 0.96357 0.96477 0.0
H1816 H 0.38474 0.96778 0.01451 0.0
C1817 C 0.35287 0.95092 0.96749 0.0
C1818 C 0.3472 0.94431 0.98711 0.0
H1819 H 0.37366 0.96858 0.94948 0.0
H1820 H 0.34427 0.94618 0.95417 0.0
C1821 C 0.35897 0.95061 0.00394 0.0
C1822 C 0.21544 0.37933 0.25252 0.0
C1823 C 0.22129 0.37319 0.27225 0.0
H1824 H 0.19818 0.40031 0.23436 0.0
C1825 C 0.21398 0.38427 0.28912 0.0
H1826 H 0.22054 0.37095 0.23921 0.0
C1827 C 0.20114 0.40107 0.28634 0.0
C1828 C 0.19531 0.40722 0.26662 0.0
H1829 H 0.21845 0.38018 0.3045 0.0
H1830 H 0.19607 0.40946 0.29965 0.0
C1831 C 0.20262 0.39615 0.24974 0.0
C1832 C 0.12822 0.04073 0.49998 0.0
C1833 C 0.12361 0.03281 0.48055 0.0
H1834 H 0.14833 0.0592 0.518 0.0
C1835 C 0.13627 0.038 0.464 0.0
H1836 H 0.11866 0.03717 0.513 0.0
C1837 C 0.1532 0.05073 0.46684 0.0
C1838 C 0.15781 0.05863 0.48627 0.0
H1839 H 0.13325 0.03201 0.44888 0.0
H1840 H 0.16258 0.05452 0.45377 0.0
C1841 C 0.14509 0.05353 0.5028 0.0
C1842 C 0.71331 0.11954 0.71473 0.0
C1843 C 0.7208 0.13054 0.7316 0.0
H1844 H 0.69535 0.09432 0.70421 0.0
C1845 C 0.71516 0.12425 0.75135 0.0
H1846 H 0.71761 0.12375 0.69933 0.0
C1847 C 0.70241 0.10734 0.75415 0.0
C1848 C 0.69496 0.09634 0.73727 0.0
H1849 H 0.72039 0.13257 0.76466 0.0
H1850 H 0.69816 0.10306 0.76954 0.0
C1851 C 0.70055 0.10265 0.71753 0.0
C1852 C 0.37526 0.03957 0.50292 0.0
C1853 C 0.38143 0.03367 0.52261 0.0
H1854 H 0.35388 0.05634 0.48479 0.0
C1855 C 0.37036 0.0409 0.53952 0.0
H1856 H 0.38357 0.03446 0.48957 0.0
C1857 C 0.35347 0.05364 0.53679 0.0
C1858 C 0.34724 0.05948 0.51709 0.0
H1859 H 0.37456 0.03649 0.55489 0.0
H1860 H 0.34538 0.05905 0.55016 0.0
C1861 C 0.35838 0.05232 0.50019 0.0
C1862 C 0.62892 0.46405 0.50362 0.0
C1863 C 0.62345 0.47081 0.52325 0.0
H1864 H 0.64968 0.44651 0.4855 0.0
C1865 C 0.63519 0.46441 0.54005 0.0
H1866 H 0.62009 0.46852 0.49038 0.0
C1867 C 0.65204 0.45164 0.53727 0.0
C1868 C 0.65755 0.44492 0.51764 0.0
H1869 H 0.63151 0.4695 0.55535 0.0
H1870 H 0.66067 0.44689 0.55055 0.0
C1871 C 0.64575 0.45124 0.50085 0.0
C1872 C 0.7148 0.29038 0.38413 0.0
C1873 C 0.73171 0.28296 0.37318 0.0
H1874 H 0.7042 0.30828 0.40932 0.0
C1875 C 0.75143 0.28863 0.37956 0.0
H1876 H 0.69942 0.28604 0.37986 0.0
C1877 C 0.75417 0.30137 0.39648 0.0
C1878 C 0.73726 0.30877 0.40743 0.0
H1879 H 0.76477 0.28346 0.37129 0.0
H1880 H 0.76956 0.30566 0.40082 0.0
C1881 C 0.71755 0.30313 0.40104 0.0
C1882 C 0.54089 0.00267 0.87622 0.0
C1883 C 0.53381 0.02222 0.8815 0.0
H1884 H 0.55856 0.98461 0.8555 0.0
C1885 C 0.53976 0.03897 0.86946 0.0
H1886 H 0.53676 0.98947 0.88529 0.0
C1887 C 0.5524 0.03622 0.85248 0.0
C1888 C 0.55944 0.01665 0.84717 0.0
H1889 H 0.53442 0.05421 0.87298 0.0
H1890 H 0.55679 0.04946 0.8436 0.0
C1891 C 0.55358 0.99992 0.85928 0.0
C1892 C 0.26871 0.22976 0.39264 0.0
C1893 C 0.27254 0.2215 0.3732 0.0
H1894 H 0.26342 0.2239 0.42433 0.0
C1895 C 0.27349 0.20017 0.37102 0.0
H1896 H 0.26819 0.24614 0.39489 0.0
C1897 C 0.27067 0.1874 0.3879 0.0
C1898 C 0.26689 0.19565 0.40736 0.0
H1899 H 0.27612 0.19332 0.3562 0.0
H1900 H 0.27117 0.17103 0.38562 0.0
C1901 C 0.26595 0.217 0.40952 0.0
C1902 C 0.46392 0.50036 0.87528 0.0
C1903 C 0.47082 0.48074 0.88057 0.0
H1904 H 0.44627 0.51852 0.85465 0.0
C1905 C 0.46455 0.46401 0.86865 0.0
H1906 H 0.4683 0.51355 0.88426 0.0
C1907 C 0.45177 0.46683 0.85178 0.0
C1908 C 0.44492 0.48645 0.84645 0.0
H1909 H 0.46974 0.44872 0.87219 0.0
H1910 H 0.44713 0.4536 0.843 0.0
C1911 C 0.4511 0.50318 0.85844 0.0
C1912 C 0.7511 0.71449 0.12489 0.0
C1913 C 0.73139 0.7207 0.13067 0.0
H1914 H 0.76931 0.69699 0.10415 0.0
C1915 C 0.71459 0.71379 0.11921 0.0
H1916 H 0.76435 0.71929 0.13357 0.0
C1917 C 0.71743 0.70101 0.10235 0.0
C1918 C 0.73714 0.69483 0.09653 0.0
H1919 H 0.69923 0.71854 0.12303 0.0
H1920 H 0.70418 0.69627 0.09364 0.0
C1921 C 0.75394 0.70171 0.10802 0.0
C1922 C 0.96439 0.00373 0.12872 0.0
C1923 C 0.97146 0.02333 0.12353 0.0
H1924 H 0.94653 0.98558 0.14922 0.0
C1925 C 0.96531 0.04005 0.1355 0.0
H1926 H 0.96867 0.99055 0.11969 0.0
C1927 C 0.95247 0.03722 0.15232 0.0
C1928 C 0.94543 0.01762 0.15753 0.0
H1929 H 0.97064 0.05532 0.13204 0.0
H1930 H 0.94792 0.05045 0.16114 0.0
C1931 C 0.95151 1.00091 0.1455 0.0
C1932 C 0.25257 0.78873 0.1249 0.0
C1933 C 0.27231 0.78302 0.13114 0.0
H1934 H 0.23439 0.80581 0.10378 0.0
C1935 C 0.28918 0.79042 0.1201 0.0
H1936 H 0.23925 0.78356 0.13324 0.0
C1937 C 0.28639 0.8032 0.10324 0.0
C1938 C 0.26666 0.80887 0.09698 0.0
H1939 H 0.30457 0.78606 0.12427 0.0
H1940 H 0.2997 0.80833 0.09488 0.0
C1941 C 0.24978 0.80149 0.10802 0.0
C1942 C 0.04014 0.50046 0.12844 0.0
C1943 C 0.0332 0.48088 0.123 0.0
H1944 H 0.05775 0.51852 0.14926 0.0
C1945 C 0.03935 0.46408 0.13486 0.0
H1946 H 0.03585 0.5137 0.11952 0.0
C1947 C 0.05206 0.46682 0.1518 0.0
C1948 C 0.05896 0.48642 0.15727 0.0
H1949 H 0.03412 0.44881 0.13121 0.0
H1950 H 0.05662 0.45355 0.16053 0.0
C1951 C 0.05289 0.5032 0.14536 0.0
C1952 C 0.37906 0.75112 0.2894 0.0
C1953 C 0.37301 0.73141 0.28334 0.0
H1954 H 0.40005 0.76924 0.30678 0.0
C1955 C 0.38424 0.71455 0.29039 0.0
H1956 H 0.37057 0.76442 0.2845 0.0
C1957 C 0.40112 0.71731 0.30317 0.0
C1958 C 0.4072 0.73701 0.30921 0.0
H1959 H 0.3802 0.69919 0.28575 0.0
H1960 H 0.40963 0.70401 0.30803 0.0
C1961 C 0.39596 0.75388 0.30218 0.0
C1962 C 0.96425 0.36994 0.96306 0.0
C1963 C 0.98114 0.3811 0.97028 0.0
H1964 H 0.95364 0.34487 0.94494 0.0
C1965 C 1.00084 0.37498 0.96437 0.0
H1966 H 0.94887 0.3741 0.96748 0.0
C1967 C 0.00359 0.35807 0.95164 0.0
C1968 C 0.98671 0.34685 0.9445 0.0
H1969 H 0.01418 0.38336 0.96947 0.0
H1970 H 0.019 0.35362 0.94763 0.0
C1971 C 0.967 0.35303 0.95033 0.0
C1972 C 0.6197 0.78928 0.29027 0.0
C1973 C 0.63066 0.7724 0.28281 0.0
H1974 H 0.59458 0.7998 0.30829 0.0
C1975 C 0.62439 0.75267 0.2885 0.0
H1976 H 0.6239 0.80467 0.28592 0.0
C1977 C 0.60754 0.74988 0.30132 0.0
C1978 C 0.59658 0.76675 0.30877 0.0
H1979 H 0.63267 0.73935 0.28329 0.0
H1980 H 0.60327 0.73449 0.30562 0.0
C1981 C 0.60288 0.78649 0.3031 0.0
C1982 C 0.0197 0.14338 0.98011 0.0
C1983 C 0.02384 0.12399 0.97189 0.0
H1984 H 0.0135 0.17489 0.97414 0.0
C1985 C 0.02512 0.12184 0.95056 0.0
H1986 H 0.01882 0.1456 0.99647 0.0
C1987 C 0.02224 0.13867 0.93776 0.0
C1988 C 0.01809 0.15806 0.94598 0.0
H1989 H 0.02811 0.10708 0.94374 0.0
H1990 H 0.02346 0.13652 0.92141 0.0
C1991 C 0.01688 0.16022 0.96731 0.0
C1992 C 0.38454 0.2893 0.21358 0.0
C1993 C 0.37335 0.27244 0.22077 0.0
H1994 H 0.40989 0.29983 0.19584 0.0
C1995 C 0.37944 0.25272 0.21486 0.0
H1996 H 0.38049 0.30468 0.2181 0.0
C1997 C 0.39632 0.24994 0.2021 0.0
C1998 C 0.40751 0.26681 0.19493 0.0
H1999 H 0.37098 0.23942 0.21987 0.0
H2000 H 0.40043 0.23456 0.19762 0.0
C2001 C 0.40141 0.28652 0.20081 0.0
C2002 C 0.50365 0.37534 0.03981 0.0
C2003 C 0.52324 0.3806 0.03275 0.0
H2004 H 0.48555 0.35473 0.05759 0.0
C2005 C 0.53998 0.36864 0.03884 0.0
H2006 H 0.49046 0.38434 0.03556 0.0
C2007 C 0.53719 0.35177 0.05161 0.0
C2008 C 0.5176 0.34648 0.05864 0.0
H2009 H 0.55524 0.37216 0.03352 0.0
H2010 H 0.55043 0.34296 0.05612 0.0
C2011 C 0.50087 0.3585 0.05262 0.0
C2012 C 0.62014 0.21479 0.21336 0.0
C2013 C 0.63127 0.23165 0.22066 0.0
H2014 H 0.59481 0.20426 0.19555 0.0
C2015 C 0.62512 0.25138 0.21487 0.0
H2016 H 0.62424 0.1994 0.2178 0.0
C2017 C 0.60821 0.25417 0.20212 0.0
C2018 C 0.59707 0.23729 0.19485 0.0
H2019 H 0.63353 0.26469 0.21996 0.0
H2020 H 0.60404 0.26955 0.19774 0.0
C2021 C 0.60325 0.21757 0.20061 0.0
C2022 C 0.50115 0.12817 0.04043 0.0
C2023 C 0.48155 0.12256 0.03367 0.0
H2024 H 0.51919 0.14917 0.05786 0.0
C2025 C 0.46471 0.13427 0.03997 0.0
H2026 H 0.51442 0.11936 0.03603 0.0
C2027 C 0.46742 0.15125 0.05264 0.0
C2028 C 0.48703 0.1569 0.05935 0.0
H2029 H 0.44943 0.13049 0.03488 0.0
H2030 H 0.45411 0.15986 0.0573 0.0
C2031 C 0.50386 0.14512 0.05313 0.0
C2032 C 0.29024 0.38428 0.71431 0.0
C2033 C 0.28305 0.37312 0.73118 0.0
H2034 H 0.30795 0.40965 0.70377 0.0
C2035 C 0.28897 0.37927 0.7509 0.0
H2036 H 0.28571 0.38017 0.69894 0.0
C2037 C 0.30172 0.39619 0.75367 0.0
C2038 C 0.30887 0.40736 0.73679 0.0
H2039 H 0.28396 0.37083 0.76421 0.0
H2040 H 0.3062 0.40035 0.76905 0.0
C2041 C 0.30299 0.40119 0.71708 0.0
C2042 C 0.29054 0.61996 0.7891 0.0
C2043 C 0.28334 0.63111 0.77224 0.0
H2044 H 0.30827 0.59464 0.79963 0.0
C2045 C 0.28922 0.62498 0.75252 0.0
H2046 H 0.28604 0.62405 0.80448 0.0
C2047 C 0.30196 0.60809 0.74973 0.0
C2048 C 0.30914 0.59694 0.7666 0.0
H2049 H 0.2842 0.63341 0.73921 0.0
H2050 H 0.30642 0.60395 0.73436 0.0
C2051 C 0.30329 0.60309 0.78632 0.0
C2052 C 0.87617 0.46299 0.50115 0.0
C2053 C 0.88152 0.47 0.48157 0.0
H2054 H 0.85537 0.44537 0.51919 0.0
C2055 C 0.86954 0.46396 0.46479 0.0
H2056 H 0.88519 0.4672 0.51437 0.0
C2057 C 0.85256 0.45131 0.46753 0.0
C2058 C 0.84717 0.44434 0.48711 0.0
H2059 H 0.87313 0.46925 0.44954 0.0
H2060 H 0.84373 0.44684 0.45427 0.0
C2061 C 0.85921 0.45029 0.50388 0.0
C2062 C 0.71497 0.87882 0.75259 0.0
C2063 C 0.72108 0.87285 0.7723 0.0
H2064 H 0.69753 0.89967 0.73447 0.0
C2065 C 0.71404 0.88411 0.78916 0.0
H2066 H 0.71987 0.8703 0.73929 0.0
C2067 C 0.70122 0.90093 0.7864 0.0
C2068 C 0.69514 0.90691 0.7667 0.0
H2069 H 0.71871 0.88015 0.80452 0.0
H2070 H 0.69637 0.90947 0.7997 0.0
C2071 C 0.70216 0.89565 0.74983 0.0
C2072 C 0.63562 0.53873 0.96376 0.0
C2073 C 0.62347 0.53285 0.98046 0.0
H2074 H 0.66149 0.55581 0.95337 0.0
C2075 C 0.62857 0.54012 1.00002 0.0
H2076 H 0.63222 0.53324 0.94853 0.0
C2077 C 0.64544 0.55293 0.00282 0.0
C2078 C 0.65765 0.55872 0.98613 0.0
H2079 H 0.61941 0.53604 0.01317 0.0
H2080 H 0.64907 0.55807 0.01812 0.0
C2081 C 0.65252 0.55148 0.96657 0.0
C2082 C 0.21481 0.62465 0.25137 0.0
C2083 C 0.22072 0.63075 0.23165 0.0
H2084 H 0.19758 0.60362 0.26953 0.0
C2085 C 0.21351 0.61956 0.21479 0.0
H2086 H 0.21983 0.63311 0.26468 0.0
C2087 C 0.20074 0.60268 0.21757 0.0
C2088 C 0.19487 0.59655 0.23728 0.0
H2089 H 0.21803 0.62363 0.19941 0.0
H2090 H 0.19576 0.5942 0.20426 0.0
C2091 C 0.20205 0.60775 0.25416 0.0
C2092 C 0.86967 0.53997 0.03948 0.0
C2093 C 0.88128 0.53346 0.02264 0.0
H2094 H 0.84425 0.55753 0.05007 0.0
C2095 C 0.87564 0.54007 0.00301 0.0
H2096 H 0.87347 0.535 0.05479 0.0
C2097 C 0.85876 0.55282 1.00028 0.0
C2098 C 0.84709 0.55925 0.01711 0.0
H2099 H 0.88437 0.53551 0.98973 0.0
H2100 H 0.85468 0.55741 0.98493 0.0
C2101 C 0.85278 0.55269 0.03675 0.0
C2102 C 0.12864 0.9639 0.00353 0.0
C2103 C 0.12344 0.97102 0.02311 0.0
H2104 H 0.14918 0.94607 0.98544 0.0
C2105 C 0.13547 0.965 0.03984 0.0
H2106 H 0.11958 0.96809 0.99035 0.0
C2107 C 0.15234 0.95225 0.03706 0.0
C2108 C 0.15755 0.94515 0.01748 0.0
H2109 H 0.13202 0.97037 0.0551 0.0
H2110 H 0.16121 0.9478 0.05029 0.0
C2111 C 0.14547 0.95109 1.00075 0.0
loop_
_geom_bond_atom_site_label_1
_geom_bond_atom_site_label_2
_geom_bond_distance
_geom_bond_site_symmetry_2
_ccdc_geom_bond_type
C0 C1 1.384 . S
C0 H13 0.947 . S
C0 C35 1.382 . S
C1 C0 1.384 . S
C1 C2 1.378 . S
C2 C1 1.378 . S
C2 C3 1.378 1_655 S
C2 H14 0.951 1_645 S
C3 C2 1.378 1_455 S
C3 H15 0.950 . S
C3 C34 1.383 . S
H4 C23 0.947 . S
H5 C24 0.946 . S
H6 C26 0.948 1_546 S
H7 C27 0.945 . S
H8 C29 0.952 . S
H9 C30 0.949 . S
H10 C32 0.950 1_654 S
H11 C33 0.948 . S
H12 C35 0.951 . S
H13 C0 0.947 . S
H14 C2 0.951 1_465 S
H15 C3 0.950 . S
N16 C19 1.382 . S
N16 C21 1.363 . S
N17 C19 1.371 . S
N17 C20 1.372 . S
N18 C20 1.361 . S
N18 C21 1.377 . S
C19 N16 1.382 . S
C19 N17 1.371 . S
C19 C22 1.480 . S
C20 N17 1.372 . S
C20 N18 1.361 . S
C20 C28 1.457 . S
C21 N16 1.363 . S
C21 N18 1.377 . S
C21 C34 1.479 . S
C22 C19 1.480 . S
C22 C23 1.383 1_545 S
C22 C27 1.385 . S
C23 H4 0.947 . S
C23 C22 1.383 1_565 S
C23 C24 1.388 . S
C24 H5 0.946 . S
C24 C23 1.388 . S
C24 C25 1.384 . S
C25 C24 1.384 . S
C25 C26 1.377 . S
C26 H6 0.948 1_564 S
C26 C25 1.377 . S
C26 C27 1.369 1_565 S
C27 H7 0.945 . S
C27 C22 1.385 . S
C27 C26 1.369 1_545 S
C28 C20 1.457 . S
C28 C29 1.372 1_554 S
C28 C33 1.364 . S
C29 H8 0.952 . S
C29 C28 1.372 1_556 S
C29 C30 1.389 . S
C30 H9 0.949 . S
C30 C29 1.389 . S
C30 C31 1.387 . S
C31 C30 1.387 . S
C31 C32 1.372 . S
C32 H10 0.950 1_456 S
C32 C31 1.372 . S
C32 C33 1.379 1_556 S
C33 H11 0.948 . S
C33 C28 1.364 . S
C33 C32 1.379 1_554 S
C34 C3 1.383 . S
C34 C21 1.479 . S
C34 C35 1.398 1_455 S
C35 C0 1.382 . S
C35 H12 0.951 . S
C35 C34 1.398 1_655 S
C36 C37 1.384 . S
C36 H49 0.947 . S
C36 C71 1.382 . S
C37 C36 1.384 . S
C37 C38 1.378 . S
C38 C37 1.378 . S
C38 C39 1.378 . S
C38 H50 0.952 . S
C39 C38 1.378 . S
C39 H51 0.950 . S
C39 C70 1.383 . S
H40 C59 0.947 . S
H41 C60 0.946 . S
H42 C62 0.953 . S
H43 C63 0.945 . S
H44 C65 0.952 . S
H45 C66 0.949 . S
H46 C68 0.950 . S
H47 C69 0.948 . S
H48 C71 0.951 . S
H49 C36 0.947 . S
H50 C38 0.952 . S
H51 C39 0.950 . S
N52 C55 1.382 . S
N52 C57 1.363 . S
N53 C55 1.371 . S
N53 C56 1.372 . S
N54 C56 1.361 . S
N54 C57 1.377 . S
C55 N52 1.382 . S
C55 N53 1.371 . S
C55 C58 1.480 . S
C56 N53 1.372 . S
C56 N54 1.361 . S
C56 C64 1.457 . S
C57 N52 1.363 . S
C57 N54 1.377 . S
C57 C70 1.479 . S
C58 C55 1.480 . S
C58 C59 1.383 . S
C58 C63 1.385 . S
C59 H40 0.947 . S
C59 C58 1.383 . S
C59 C60 1.388 . S
C60 H41 0.946 . S
C60 C59 1.388 . S
C60 C61 1.384 . S
C61 C60 1.384 . S
C61 C62 1.377 . S
C62 H42 0.953 . S
C62 C61 1.377 . S
C62 C63 1.369 . S
C63 H43 0.945 . S
C63 C58 1.385 . S
C63 C62 1.369 . S
C64 C56 1.457 . S
C64 C65 1.372 . S
C64 C69 1.364 . S
C65 H44 0.952 . S
C65 C64 1.372 . S
C65 C66 1.389 . S
C66 H45 0.949 . S
C66 C65 1.389 . S
C66 C67 1.387 . S
C67 C66 1.387 . S
C67 C68 1.372 . S
C68 H46 0.950 . S
C68 C67 1.372 . S
C68 C69 1.379 . S
C69 H47 0.948 . S
C69 C64 1.364 . S
C69 C68 1.379 . S
C70 C39 1.383 . S
C70 C57 1.479 . S
C70 C71 1.398 . S
C71 C36 1.382 . S
C71 H48 0.951 . S
C71 C70 1.398 . S
C72 C73 1.384 . S
C72 H85 0.952 1_655 S
C72 C107 1.382 1_556 S
C73 C72 1.384 . S
C73 C74 1.378 . S
C74 C73 1.378 . S
C74 C75 1.378 . S
C74 H86 0.952 . S
C75 C74 1.378 . S
C75 H87 0.950 . S
C75 C106 1.383 1_556 S
H76 C95 0.947 . S
H77 C96 0.946 1_556 S
H78 C98 0.953 . S
H79 C99 0.945 . S
H80 C101 0.952 . S
H81 C102 0.962 . S
H82 C104 0.950 . S
H83 C105 0.948 . S
H84 C107 0.951 . S
H85 C72 0.952 1_455 S
H86 C74 0.952 . S
H87 C75 0.950 . S
N88 C91 1.382 . S
N88 C93 1.363 . S
N89 C91 1.371 . S
N89 C92 1.372 . S
N90 C92 1.361 . S
N90 C93 1.377 . S
C91 N88 1.382 . S
C91 N89 1.371 . S
C91 C94 1.480 . S
C92 N89 1.372 . S
C92 N90 1.361 . S
C92 C100 1.457 . S
C93 N88 1.363 . S
C93 N90 1.377 . S
C93 C106 1.479 . S
C94 C91 1.480 . S
C94 C95 1.383 . S
C94 C99 1.385 . S
C95 H76 0.947 . S
C95 C94 1.383 . S
C95 C96 1.388 . S
C96 H77 0.946 1_554 S
C96 C95 1.388 . S
C96 C97 1.384 . S
C97 C96 1.384 . S
C97 C98 1.377 . S
C98 H78 0.953 . S
C98 C97 1.377 . S
C98 C99 1.369 . S
C99 H79 0.945 . S
C99 C94 1.385 . S
C99 C98 1.369 . S
C100 C92 1.457 . S
C100 C101 1.372 . S
C100 C105 1.364 1_655 S
C101 H80 0.952 . S
C101 C100 1.372 . S
C101 C102 1.389 1_655 S
C102 H81 0.962 . S
C102 C101 1.389 1_455 S
C102 C103 1.387 . S
C103 C102 1.387 . S
C103 C104 1.372 . S
C104 H82 0.950 . S
C104 C103 1.372 . S
C104 C105 1.379 . S
C105 H83 0.948 . S
C105 C100 1.364 1_455 S
C105 C104 1.379 . S
C106 C75 1.383 1_554 S
C106 C93 1.479 . S
C106 C107 1.398 . S
C107 C72 1.382 1_554 S
C107 H84 0.951 . S
C107 C106 1.398 . S
C108 C109 1.384 . S
C108 H121 0.947 . S
C108 C143 1.382 . S
C109 C108 1.384 . S
C109 C110 1.378 . S
C110 C109 1.378 . S
C110 C111 1.378 . S
C110 H122 0.952 . S
C111 C110 1.378 . S
C111 H123 0.950 . S
C111 C142 1.383 . S
H112 C131 0.947 . S
H113 C132 0.946 . S
H114 C134 0.953 . S
H115 C135 0.945 . S
H116 C137 0.952 . S
H117 C138 0.949 . S
H118 C140 0.950 . S
H119 C141 0.948 . S
H120 C143 0.951 . S
H121 C108 0.947 . S
H122 C110 0.952 . S
H123 C111 0.950 . S
N124 C127 1.382 . S
N124 C129 1.363 . S
N125 C127 1.371 . S
N125 C128 1.372 . S
N126 C128 1.361 . S
N126 C129 1.377 . S
C127 N124 1.382 . S
C127 N125 1.371 . S
C127 C130 1.480 . S
C128 N125 1.372 . S
C128 N126 1.361 . S
C128 C136 1.457 . S
C129 N124 1.363 . S
C129 N126 1.377 . S
C129 C142 1.479 . S
C130 C127 1.480 . S
C130 C131 1.383 . S
C130 C135 1.385 . S
C131 H112 0.947 . S
C131 C130 1.383 . S
C131 C132 1.388 . S
C132 H113 0.946 . S
C132 C131 1.388 . S
C132 C133 1.384 . S
C133 C132 1.384 . S
C133 C134 1.377 . S
C134 H114 0.953 . S
C134 C133 1.377 . S
C134 C135 1.369 . S
C135 H115 0.945 . S
C135 C130 1.385 . S
C135 C134 1.369 . S
C136 C128 1.457 . S
C136 C137 1.372 . S
C136 C141 1.364 . S
C137 H116 0.952 . S
C137 C136 1.372 . S
C137 C138 1.389 . S
C138 H117 0.949 . S
C138 C137 1.389 . S
C138 C139 1.387 . S
C139 C138 1.387 . S
C139 C140 1.372 . S
C140 H118 0.950 . S
C140 C139 1.372 . S
C140 C141 1.379 . S
C141 H119 0.948 . S
C141 C136 1.364 . S
C141 C140 1.379 . S
C142 C111 1.383 . S
C142 C129 1.479 . S
C142 C143 1.398 . S
C143 C108 1.382 . S
C143 H120 0.951 . S
C143 C142 1.398 . S
C144 C145 1.384 . S
C144 H157 0.947 . S
C144 C179 1.382 . S
C145 C144 1.384 . S
C145 C146 1.378 . S
C146 C145 1.378 . S
C146 C147 1.378 . S
C146 H158 0.952 1_455 S
C147 C146 1.378 . S
C147 H159 0.950 . S
C147 C178 1.383 . S
H148 C167 0.947 . S
H149 C168 0.946 . S
H150 C170 0.947 1_445 S
H151 C171 0.945 . S
H152 C173 0.952 . S
H153 C174 0.949 . S
H154 C176 0.950 1_565 S
H155 C177 0.948 . S
H156 C179 0.951 . S
H157 C144 0.947 . S
H158 C146 0.952 1_655 S
H159 C147 0.950 . S
N160 C163 1.382 . S
N160 C165 1.363 . S
N161 C163 1.371 . S
N161 C164 1.372 . S
N162 C164 1.361 . S
N162 C165 1.377 . S
C163 N160 1.382 . S
C163 N161 1.371 . S
C163 C166 1.480 . S
C164 N161 1.372 . S
C164 N162 1.361 . S
C164 C172 1.457 . S
C165 N160 1.363 . S
C165 N162 1.377 . S
C165 C178 1.479 . S
C166 C163 1.480 . S
C166 C167 1.383 1_455 S
C166 C171 1.385 . S
C167 H148 0.947 . S
C167 C166 1.383 1_655 S
C167 C168 1.388 . S
C168 H149 0.946 . S
C168 C167 1.388 . S
C168 C169 1.384 . S
C169 C168 1.384 . S
C169 C170 1.377 . S
C170 H150 0.947 1_665 S
C170 C169 1.377 . S
C170 C171 1.369 1_655 S
C171 H151 0.945 . S
C171 C166 1.385 . S
C171 C170 1.369 1_455 S
C172 C164 1.457 . S
C172 C173 1.372 1_565 S
C172 C177 1.364 . S
C173 H152 0.952 . S
C173 C172 1.372 1_545 S
C173 C174 1.389 . S
C174 H153 0.949 . S
C174 C173 1.389 . S
C174 C175 1.387 . S
C175 C174 1.387 . S
C175 C176 1.372 . S
C176 H154 0.950 1_545 S
C176 C175 1.372 . S
C176 C177 1.379 1_545 S
C177 H155 0.948 . S
C177 C172 1.364 . S
C177 C176 1.379 1_565 S
C178 C147 1.383 . S
C178 C165 1.479 . S
C178 C179 1.398 . S
C179 C144 1.382 . S
C179 H156 0.951 . S
C179 C178 1.398 . S
C180 C181 1.384 . S
C180 H193 0.947 . S
C180 C215 1.382 . S
C181 C180 1.384 . S
C181 C182 1.378 . S
C182 C181 1.378 . S
C182 C183 1.378 . S
C182 H194 0.952 . S
C183 C182 1.378 . S
C183 H195 0.950 . S
C183 C214 1.383 . S
H184 C203 0.947 . S
H185 C204 0.946 . S
H186 C206 0.953 . S
H187 C207 0.945 . S
H188 C209 0.952 . S
H189 C210 0.949 . S
H190 C212 0.950 . S
H191 C213 0.948 . S
H192 C215 0.951 . S
H193 C180 0.947 . S
H194 C182 0.952 . S
H195 C183 0.950 . S
N196 C199 1.382 . S
N196 C201 1.363 . S
N197 C199 1.371 . S
N197 C200 1.372 . S
N198 C200 1.361 . S
N198 C201 1.377 . S
C199 N196 1.382 . S
C199 N197 1.371 . S
C199 C202 1.480 . S
C200 N197 1.372 . S
C200 N198 1.361 . S
C200 C208 1.457 . S
C201 N196 1.363 . S
C201 N198 1.377 . S
C201 C214 1.479 . S
C202 C199 1.480 . S
C202 C203 1.383 . S
C202 C207 1.385 . S
C203 H184 0.947 . S
C203 C202 1.383 . S
C203 C204 1.388 . S
C204 H185 0.946 . S
C204 C203 1.388 . S
C204 C205 1.384 . S
C205 C204 1.384 . S
C205 C206 1.377 . S
C206 H186 0.953 . S
C206 C205 1.377 . S
C206 C207 1.369 . S
C207 H187 0.945 . S
C207 C202 1.385 . S
C207 C206 1.369 . S
C208 C200 1.457 . S
C208 C209 1.372 . S
C208 C213 1.364 . S
C209 H188 0.952 . S
C209 C208 1.372 . S
C209 C210 1.389 . S
C210 H189 0.949 . S
C210 C209 1.389 . S
C210 C211 1.387 . S
C211 C210 1.387 . S
C211 C212 1.372 . S
C212 H190 0.950 . S
C212 C211 1.372 . S
C212 C213 1.379 . S
C213 H191 0.948 . S
C213 C208 1.364 . S
C213 C212 1.379 . S
C214 C183 1.383 . S
C214 C201 1.479 . S
C214 C215 1.398 . S
C215 C180 1.382 . S
C215 H192 0.951 . S
C215 C214 1.398 . S
C216 C217 1.384 . S
C216 H229 0.947 1_655 S
C216 C251 1.382 . S
C217 C216 1.384 . S
C217 C218 1.378 . S
C218 C217 1.378 . S
C218 C219 1.378 . S
C218 H230 0.952 . S
C219 C218 1.378 . S
C219 H231 0.950 . S
C219 C250 1.383 . S
H220 C239 0.947 . S
H221 C240 0.946 . S
H222 C242 0.953 . S
H223 C243 0.945 . S
H224 C245 0.952 . S
H225 C246 0.949 . S
H226 C248 0.950 . S
H227 C249 0.948 . S
H228 C251 0.982 . S
H229 C216 0.947 1_455 S
H230 C218 0.952 . S
H231 C219 0.950 . S
N232 C235 1.382 . S
N232 C237 1.363 . S
N233 C235 1.371 . S
N233 C236 1.372 . S
N234 C236 1.361 . S
N234 C237 1.377 . S
C235 N232 1.382 . S
C235 N233 1.371 . S
C235 C238 1.480 . S
C236 N233 1.372 . S
C236 N234 1.361 . S
C236 C244 1.457 . S
C237 N232 1.363 . S
C237 N234 1.377 . S
C237 C250 1.479 . S
C238 C235 1.480 . S
C238 C239 1.383 . S
C238 C243 1.385 . S
C239 H220 0.947 . S
C239 C238 1.383 . S
C239 C240 1.388 . S
C240 H221 0.946 . S
C240 C239 1.388 . S
C240 C241 1.384 . S
C241 C240 1.384 . S
C241 C242 1.377 . S
C242 H222 0.953 . S
C242 C241 1.377 . S
C242 C243 1.369 . S
C243 H223 0.945 . S
C243 C238 1.385 . S
C243 C242 1.369 . S
C244 C236 1.457 . S
C244 C245 1.372 . S
C244 C249 1.364 1_655 S
C245 H224 0.952 . S
C245 C244 1.372 . S
C245 C246 1.389 1_655 S
C246 H225 0.949 . S
C246 C245 1.389 1_455 S
C246 C247 1.387 . S
C247 C246 1.387 . S
C247 C248 1.372 . S
C248 H226 0.950 . S
C248 C247 1.372 . S
C248 C249 1.379 . S
C249 H227 0.948 . S
C249 C244 1.364 1_455 S
C249 C248 1.379 . S
C250 C219 1.383 . S
C250 C237 1.479 . S
C250 C251 1.398 . S
C251 C216 1.382 . S
C251 H228 0.982 . S
C251 C250 1.398 . S
C252 C253 1.384 . S
C252 H265 0.947 . S
C252 C287 1.382 . S
C253 C252 1.384 . S
C253 C254 1.378 . S
C254 C253 1.378 . S
C254 C255 1.378 . S
C254 H266 0.952 . S
C255 C254 1.378 . S
C255 H267 0.950 . S
C255 C286 1.383 . S
H256 C275 0.947 . S
H257 C276 0.946 . S
H258 C278 0.953 . S
H259 C279 0.945 . S
H260 C281 0.952 . S
H261 C282 0.949 . S
H262 C284 0.950 . S
H263 C285 0.948 . S
H264 C287 0.951 . S
H265 C252 0.947 . S
H266 C254 0.952 . S
H267 C255 0.950 . S
N268 C271 1.382 . S
N268 C273 1.363 . S
N269 C271 1.371 . S
N269 C272 1.372 . S
N270 C272 1.361 . S
N270 C273 1.377 . S
C271 N268 1.382 . S
C271 N269 1.371 . S
C271 C274 1.480 . S
C272 N269 1.372 . S
C272 N270 1.361 . S
C272 C280 1.457 . S
C273 N268 1.363 . S
C273 N270 1.377 . S
C273 C286 1.479 . S
C274 C271 1.480 . S
C274 C275 1.383 . S
C274 C279 1.385 . S
C275 H256 0.947 . S
C275 C274 1.383 . S
C275 C276 1.388 . S
C276 H257 0.946 . S
C276 C275 1.388 . S
C276 C277 1.384 . S
C277 C276 1.384 . S
C277 C278 1.377 . S
C278 H258 0.953 . S
C278 C277 1.377 . S
C278 C279 1.369 . S
C279 H259 0.945 . S
C279 C274 1.385 . S
C279 C278 1.369 . S
C280 C272 1.457 . S
C280 C281 1.372 . S
C280 C285 1.364 . S
C281 H260 0.952 . S
C281 C280 1.372 . S
C281 C282 1.389 . S
C282 H261 0.949 . S
C282 C281 1.389 . S
C282 C283 1.387 . S
C283 C282 1.387 . S
C283 C284 1.372 . S
C284 H262 0.950 . S
C284 C283 1.372 . S
C284 C285 1.379 . S
C285 H263 0.948 . S
C285 C280 1.364 . S
C285 C284 1.379 . S
C286 C255 1.383 . S
C286 C273 1.479 . S
C286 C287 1.398 . S
C287 C252 1.382 . S
C287 H264 0.951 . S
C287 C286 1.398 . S
C288 C289 1.384 . S
C288 H301 0.947 . S
C288 C323 1.382 . S
C289 C288 1.384 . S
C289 C290 1.378 . S
C290 C289 1.378 . S
C290 C291 1.378 . S
C290 H302 0.952 . S
C291 C290 1.378 . S
C291 H303 0.950 . S
C291 C322 1.383 . S
H292 C311 0.947 . S
H293 C312 0.946 . S
H294 C314 0.953 . S
H295 C315 0.945 . S
H296 C317 0.952 . S
H297 C318 0.949 . S
H298 C320 0.950 . S
H299 C321 0.948 . S
H300 C323 0.951 . S
H301 C288 0.947 . S
H302 C290 0.952 . S
H303 C291 0.950 . S
N304 C307 1.382 . S
N304 C309 1.363 . S
N305 C307 1.371 . S
N305 C308 1.372 . S
N306 C308 1.361 . S
N306 C309 1.377 . S
C307 N304 1.382 . S
C307 N305 1.371 . S
C307 C310 1.480 . S
C308 N305 1.372 . S
C308 N306 1.361 . S
C308 C316 1.457 . S
C309 N304 1.363 . S
C309 N306 1.377 . S
C309 C322 1.479 . S
C310 C307 1.480 . S
C310 C311 1.383 . S
C310 C315 1.385 . S
C311 H292 0.947 . S
C311 C310 1.383 . S
C311 C312 1.388 . S
C312 H293 0.946 . S
C312 C311 1.388 . S
C312 C313 1.384 . S
C313 C312 1.384 . S
C313 C314 1.377 . S
C314 H294 0.953 . S
C314 C313 1.377 . S
C314 C315 1.369 . S
C315 H295 0.945 . S
C315 C310 1.385 . S
C315 C314 1.369 . S
C316 C308 1.457 . S
C316 C317 1.372 . S
C316 C321 1.364 . S
C317 H296 0.952 . S
C317 C316 1.372 . S
C317 C318 1.389 . S
C318 H297 0.949 . S
C318 C317 1.389 . S
C318 C319 1.387 . S
C319 C318 1.387 . S
C319 C320 1.372 . S
C320 H298 0.950 . S
C320 C319 1.372 . S
C320 C321 1.379 . S
C321 H299 0.948 . S
C321 C316 1.364 . S
C321 C320 1.379 . S
C322 C291 1.383 . S
C322 C309 1.479 . S
C322 C323 1.398 . S
C323 C288 1.382 . S
C323 H300 0.951 . S
C323 C322 1.398 . S
C324 C325 1.384 . S
C324 H337 0.947 . S
C324 C359 1.382 . S
C325 C324 1.384 . S
C325 C326 1.378 . S
C326 C325 1.378 . S
C326 C327 1.378 . S
C326 H338 0.952 . S
C327 C326 1.378 . S
C327 H339 0.950 . S
C327 C358 1.383 . S
H328 C347 0.947 . S
H329 C348 0.946 . S
H330 C350 0.953 . S
H331 C351 0.945 . S
H332 C353 0.952 . S
H333 C354 0.949 1_545 S
H334 C356 0.950 . S
H335 C357 0.948 . S
H336 C359 0.951 . S
H337 C324 0.947 . S
H338 C326 0.952 . S
H339 C327 0.950 . S
N340 C343 1.382 . S
N340 C345 1.363 . S
N341 C343 1.371 . S
N341 C344 1.372 . S
N342 C344 1.361 . S
N342 C345 1.377 . S
C343 N340 1.382 . S
C343 N341 1.371 . S
C343 C346 1.480 . S
C344 N341 1.372 . S
C344 N342 1.361 . S
C344 C352 1.457 . S
C345 N340 1.363 . S
C345 N342 1.377 . S
C345 C358 1.479 . S
C346 C343 1.480 . S
C346 C347 1.383 . S
C346 C351 1.385 1_565 S
C347 H328 0.947 . S
C347 C346 1.383 . S
C347 C348 1.388 1_565 S
C348 H329 0.946 . S
C348 C347 1.388 1_545 S
C348 C349 1.384 . S
C349 C348 1.384 . S
C349 C350 1.377 . S
C350 H330 0.953 . S
C350 C349 1.377 . S
C350 C351 1.369 . S
C351 H331 0.945 . S
C351 C346 1.385 1_545 S
C351 C350 1.369 . S
C352 C344 1.457 . S
C352 C353 1.372 . S
C352 C357 1.364 . S
C353 H332 0.952 . S
C353 C352 1.372 . S
C353 C354 1.389 . S
C354 H333 0.949 1_565 S
C354 C353 1.389 . S
C354 C355 1.387 . S
C355 C354 1.387 . S
C355 C356 1.372 . S
C356 H334 0.950 . S
C356 C355 1.372 . S
C356 C357 1.379 . S
C357 H335 0.948 . S
C357 C352 1.364 . S
C357 C356 1.379 . S
C358 C327 1.383 . S
C358 C345 1.479 . S
C358 C359 1.398 . S
C359 C324 1.382 . S
C359 H336 0.951 . S
C359 C358 1.398 . S
C360 C361 1.384 . S
C360 H373 0.947 . S
C360 C395 1.382 . S
C361 C360 1.384 . S
C361 C362 1.378 . S
C362 C361 1.378 . S
C362 C363 1.378 . S
C362 H374 0.952 . S
C363 C362 1.378 . S
C363 H375 0.950 . S
C363 C394 1.383 . S
H364 C383 0.947 . S
H365 C384 0.946 . S
H366 C386 0.953 . S
H367 C387 0.945 . S
H368 C389 0.952 . S
H369 C390 0.949 . S
H370 C392 0.950 . S
H371 C393 0.948 . S
H372 C395 0.951 . S
H373 C360 0.947 . S
H374 C362 0.952 . S
H375 C363 0.950 . S
N376 C379 1.382 . S
N376 C381 1.363 . S
N377 C379 1.371 . S
N377 C380 1.372 . S
N378 C380 1.361 . S
N378 C381 1.377 . S
C379 N376 1.382 . S
C379 N377 1.371 . S
C379 C382 1.480 . S
C380 N377 1.372 . S
C380 N378 1.361 . S
C380 C388 1.457 . S
C381 N376 1.363 . S
C381 N378 1.377 . S
C381 C394 1.479 . S
C382 C379 1.480 . S
C382 C383 1.383 . S
C382 C387 1.385 . S
C383 H364 0.947 . S
C383 C382 1.383 . S
C383 C384 1.388 . S
C384 H365 0.946 . S
C384 C383 1.388 . S
C384 C385 1.384 . S
C385 C384 1.384 . S
C385 C386 1.377 . S
C386 H366 0.953 . S
C386 C385 1.377 . S
C386 C387 1.369 . S
C387 H367 0.945 . S
C387 C382 1.385 . S
C387 C386 1.369 . S
C388 C380 1.457 . S
C388 C389 1.372 . S
C388 C393 1.364 . S
C389 H368 0.952 . S
C389 C388 1.372 . S
C389 C390 1.389 . S
C390 H369 0.949 . S
C390 C389 1.389 . S
C390 C391 1.387 . S
C391 C390 1.387 . S
C391 C392 1.372 . S
C392 H370 0.950 . S
C392 C391 1.372 . S
C392 C393 1.379 . S
C393 H371 0.948 . S
C393 C388 1.364 . S
C393 C392 1.379 . S
C394 C363 1.383 . S
C394 C381 1.479 . S
C394 C395 1.398 . S
C395 C360 1.382 . S
C395 H372 0.951 . S
C395 C394 1.398 . S
C396 C397 1.384 . S
C396 H409 0.947 . S
C396 C431 1.382 . S
C397 C396 1.384 . S
C397 C398 1.378 . S
C398 C397 1.378 . S
C398 C399 1.378 . S
C398 H410 0.952 . S
C399 C398 1.378 . S
C399 H411 0.950 . S
C399 C430 1.383 . S
H400 C419 0.947 . S
H401 C420 0.946 . S
H402 C422 0.953 . S
H403 C423 0.945 . S
H404 C425 0.952 . S
H405 C426 0.949 . S
H406 C428 0.950 . S
H407 C429 0.948 . S
H408 C431 0.951 . S
H409 C396 0.947 . S
H410 C398 0.952 . S
H411 C399 0.950 . S
N412 C415 1.382 . S
N412 C417 1.363 . S
N413 C415 1.371 . S
N413 C416 1.372 . S
N414 C416 1.361 . S
N414 C417 1.377 . S
C415 N412 1.382 . S
C415 N413 1.371 . S
C415 C418 1.480 . S
C416 N413 1.372 . S
C416 N414 1.361 . S
C416 C424 1.457 . S
C417 N412 1.363 . S
C417 N414 1.377 . S
C417 C430 1.479 . S
C418 C415 1.480 . S
C418 C419 1.383 . S
C418 C423 1.385 . S
C419 H400 0.947 . S
C419 C418 1.383 . S
C419 C420 1.388 . S
C420 H401 0.946 . S
C420 C419 1.388 . S
C420 C421 1.384 . S
C421 C420 1.384 . S
C421 C422 1.377 . S
C422 H402 0.953 . S
C422 C421 1.377 . S
C422 C423 1.369 . S
C423 H403 0.945 . S
C423 C418 1.385 . S
C423 C422 1.369 . S
C424 C416 1.457 . S
C424 C425 1.372 . S
C424 C429 1.364 . S
C425 H404 0.952 . S
C425 C424 1.372 . S
C425 C426 1.389 . S
C426 H405 0.949 . S
C426 C425 1.389 . S
C426 C427 1.387 . S
C427 C426 1.387 . S
C427 C428 1.372 . S
C428 H406 0.950 . S
C428 C427 1.372 . S
C428 C429 1.379 . S
C429 H407 0.948 . S
C429 C424 1.364 . S
C429 C428 1.379 . S
C430 C399 1.383 . S
C430 C417 1.479 . S
C430 C431 1.398 . S
C431 C396 1.382 . S
C431 H408 0.951 . S
C431 C430 1.398 . S
C432 C433 1.384 . S
C432 H445 0.947 . S
C432 C467 1.382 . S
C433 C432 1.384 . S
C433 C434 1.378 . S
C434 C433 1.378 . S
C434 C435 1.378 . S
C434 H446 0.952 . S
C435 C434 1.378 . S
C435 H447 0.950 . S
C435 C466 1.383 . S
H436 C455 0.947 . S
H437 C456 0.946 . S
H438 C458 0.953 . S
H439 C459 0.945 . S
H440 C461 0.952 . S
H441 C462 0.949 . S
H442 C464 0.950 . S
H443 C465 0.948 . S
H444 C467 0.951 . S
H445 C432 0.947 . S
H446 C434 0.952 . S
H447 C435 0.950 . S
N448 C451 1.382 . S
N448 C453 1.363 . S
N449 C451 1.371 . S
N449 C452 1.372 . S
N450 C452 1.361 . S
N450 C453 1.377 . S
C451 N448 1.382 . S
C451 N449 1.371 . S
C451 C454 1.480 . S
C452 N449 1.372 . S
C452 N450 1.361 . S
C452 C460 1.457 . S
C453 N448 1.363 . S
C453 N450 1.377 . S
C453 C466 1.479 . S
C454 C451 1.480 . S
C454 C455 1.383 . S
C454 C459 1.385 . S
C455 H436 0.947 . S
C455 C454 1.383 . S
C455 C456 1.388 . S
C456 H437 0.946 . S
C456 C455 1.388 . S
C456 C457 1.384 . S
C457 C456 1.384 . S
C457 C458 1.377 . S
C458 H438 0.953 . S
C458 C457 1.377 . S
C458 C459 1.369 . S
C459 H439 0.945 . S
C459 C454 1.385 . S
C459 C458 1.369 . S
C460 C452 1.457 . S
C460 C461 1.372 . S
C460 C465 1.364 . S
C461 H440 0.952 . S
C461 C460 1.372 . S
C461 C462 1.389 . S
C462 H441 0.949 . S
C462 C461 1.389 . S
C462 C463 1.387 . S
C463 C462 1.387 . S
C463 C464 1.372 . S
C464 H442 0.950 . S
C464 C463 1.372 . S
C464 C465 1.379 . S
C465 H443 0.948 . S
C465 C460 1.364 . S
C465 C464 1.379 . S
C466 C435 1.383 . S
C466 C453 1.479 . S
C466 C467 1.398 . S
C467 C432 1.382 . S
C467 H444 0.951 . S
C467 C466 1.398 . S
C468 C469 1.384 . S
C468 H481 0.947 . S
C468 C503 1.382 . S
C469 C468 1.384 . S
C469 C470 1.378 . S
C470 C469 1.378 . S
C470 C471 1.378 1_554 S
C470 H482 0.953 1_554 S
C471 C470 1.378 1_556 S
C471 H483 0.950 . S
C471 C502 1.383 . S
H472 C491 0.947 . S
H473 C492 0.946 . S
H474 C494 0.953 . S
H475 C495 0.945 . S
H476 C497 0.952 . S
H477 C498 0.949 . S
H478 C500 0.950 1_554 S
H479 C501 0.948 . S
H480 C503 0.951 . S
H481 C468 0.947 . S
H482 C470 0.953 1_556 S
H483 C471 0.950 . S
N484 C487 1.382 . S
N484 C489 1.363 . S
N485 C487 1.371 . S
N485 C488 1.372 . S
N486 C488 1.361 . S
N486 C489 1.377 . S
C487 N484 1.382 . S
C487 N485 1.371 . S
C487 C490 1.480 . S
C488 N485 1.372 . S
C488 N486 1.361 . S
C488 C496 1.457 . S
C489 N484 1.363 . S
C489 N486 1.377 . S
C489 C502 1.479 . S
C490 C487 1.480 . S
C490 C491 1.383 . S
C490 C495 1.385 . S
C491 H472 0.947 . S
C491 C490 1.383 . S
C491 C492 1.388 . S
C492 H473 0.946 . S
C492 C491 1.388 . S
C492 C493 1.384 . S
C493 C492 1.384 . S
C493 C494 1.377 . S
C494 H474 0.953 . S
C494 C493 1.377 . S
C494 C495 1.369 . S
C495 H475 0.945 . S
C495 C490 1.385 . S
C495 C494 1.369 . S
C496 C488 1.457 . S
C496 C497 1.372 . S
C496 C501 1.364 . S
C497 H476 0.952 . S
C497 C496 1.372 . S
C497 C498 1.389 . S
C498 H477 0.949 . S
C498 C497 1.389 . S
C498 C499 1.387 . S
C499 C498 1.387 . S
C499 C500 1.372 . S
C500 H478 0.950 1_556 S
C500 C499 1.372 . S
C500 C501 1.379 . S
C501 H479 0.948 . S
C501 C496 1.364 . S
C501 C500 1.379 . S
C502 C471 1.383 . S
C502 C489 1.479 . S
C502 C503 1.398 1_556 S
C503 C468 1.382 . S
C503 H480 0.951 . S
C503 C502 1.398 1_554 S
C504 C505 1.384 . S
C504 H517 0.947 . S
C504 C539 1.382 . S
C505 C504 1.384 . S
C505 C506 1.378 . S
C506 C505 1.378 . S
C506 C507 1.378 . S
C506 H518 0.952 . S
C507 C506 1.378 . S
C507 H519 0.950 . S
C507 C538 1.383 . S
H508 C527 0.947 . S
H509 C528 0.946 . S
H510 C530 0.953 . S
H511 C531 0.945 . S
H512 C533 0.952 . S
H513 C534 0.949 . S
H514 C536 0.950 . S
H515 C537 0.948 . S
H516 C539 0.951 . S
H517 C504 0.947 . S
H518 C506 0.952 . S
H519 C507 0.950 . S
N520 C523 1.382 . S
N520 C525 1.363 . S
N521 C523 1.371 . S
N521 C524 1.372 . S
N522 C524 1.361 . S
N522 C525 1.377 . S
C523 N520 1.382 . S
C523 N521 1.371 . S
C523 C526 1.480 . S
C524 N521 1.372 . S
C524 N522 1.361 . S
C524 C532 1.457 . S
C525 N520 1.363 . S
C525 N522 1.377 . S
C525 C538 1.479 . S
C526 C523 1.480 . S
C526 C527 1.383 . S
C526 C531 1.385 . S
C527 H508 0.947 . S
C527 C526 1.383 . S
C527 C528 1.388 . S
C528 H509 0.946 . S
C528 C527 1.388 . S
C528 C529 1.384 . S
C529 C528 1.384 . S
C529 C530 1.377 . S
C530 H510 0.953 . S
C530 C529 1.377 . S
C530 C531 1.369 . S
C531 H511 0.945 . S
C531 C526 1.385 . S
C531 C530 1.369 . S
C532 C524 1.457 . S
C532 C533 1.372 . S
C532 C537 1.364 . S
C533 H512 0.952 . S
C533 C532 1.372 . S
C533 C534 1.389 . S
C534 H513 0.949 . S
C534 C533 1.389 . S
C534 C535 1.387 . S
C535 C534 1.387 . S
C535 C536 1.372 . S
C536 H514 0.950 . S
C536 C535 1.372 . S
C536 C537 1.379 . S
C537 H515 0.948 . S
C537 C532 1.364 . S
C537 C536 1.379 . S
C538 C507 1.383 . S
C538 C525 1.479 . S
C538 C539 1.398 . S
C539 C504 1.382 . S
C539 H516 0.951 . S
C539 C538 1.398 . S
C540 C541 1.384 . S
C540 H553 0.947 . S
C540 C575 1.382 1_554 S
C541 C540 1.384 . S
C541 C542 1.378 . S
C542 C541 1.378 . S
C542 C543 1.378 . S
C542 H554 0.952 . S
C543 C542 1.378 . S
C543 H555 0.950 . S
C543 C574 1.383 1_554 S
H544 C563 0.947 1_554 S
H545 C564 0.946 1_554 S
H546 C566 0.953 . S
H547 C567 0.945 . S
H548 C569 0.952 . S
H549 C570 0.949 1_565 S
H550 C572 0.950 . S
H551 C573 0.948 . S
H552 C575 0.951 . S
H553 C540 0.947 . S
H554 C542 0.952 . S
H555 C543 0.950 . S
N556 C559 1.382 . S
N556 C561 1.363 . S
N557 C559 1.371 . S
N557 C560 1.372 . S
N558 C560 1.361 . S
N558 C561 1.377 . S
C559 N556 1.382 . S
C559 N557 1.371 . S
C559 C562 1.480 . S
C560 N557 1.372 . S
C560 N558 1.361 . S
C560 C568 1.457 . S
C561 N556 1.363 . S
C561 N558 1.377 . S
C561 C574 1.479 . S
C562 C559 1.480 . S
C562 C563 1.383 . S
C562 C567 1.385 1_545 S
C563 H544 0.947 1_556 S
C563 C562 1.383 . S
C563 C564 1.388 1_545 S
C564 H545 0.946 1_556 S
C564 C563 1.388 1_565 S
C564 C565 1.384 . S
C565 C564 1.384 . S
C565 C566 1.377 . S
C566 H546 0.953 . S
C566 C565 1.377 . S
C566 C567 1.369 . S
C567 H547 0.945 . S
C567 C562 1.385 1_565 S
C567 C566 1.369 . S
C568 C560 1.457 . S
C568 C569 1.372 . S
C568 C573 1.364 . S
C569 H548 0.952 . S
C569 C568 1.372 . S
C569 C570 1.389 . S
C570 H549 0.949 1_545 S
C570 C569 1.389 . S
C570 C571 1.387 . S
C571 C570 1.387 . S
C571 C572 1.372 . S
C572 H550 0.950 . S
C572 C571 1.372 . S
C572 C573 1.379 . S
C573 H551 0.948 . S
C573 C568 1.364 . S
C573 C572 1.379 . S
C574 C543 1.383 1_556 S
C574 C561 1.479 . S
C574 C575 1.398 . S
C575 C540 1.382 1_556 S
C575 H552 0.951 . S
C575 C574 1.398 . S
Li576 N593 1.990 . S
Li576 O636 1.956 . S
Li576 O637 1.970 1_556 S
Li576 O638 1.961 . S
Li577 N601 1.990 . S
Li577 O636 1.970 1_554 S
Li577 O637 1.956 . S
Li577 O639 1.961 . S
Li578 N623 1.990 . S
Li578 O636 1.961 . S
Li578 O638 1.956 . S
Li578 O639 1.970 1_556 S
Li579 N629 1.990 . S
Li579 O637 1.961 . S
Li579 O638 1.970 1_554 S
Li579 O639 1.956 . S
C580 C582 1.348 1_556 S
C580 C583 1.356 . S
C580 O636 1.325 . S
N581 C584 1.314 1_556 S
N581 C585 1.279 . S
C582 C580 1.348 1_554 S
C582 C584 1.353 . S
C582 H640 0.929 . S
C583 C580 1.356 . S
C583 C585 1.358 . S
C583 H641 0.930 . S
C584 N581 1.314 1_554 S
C584 C582 1.353 . S
C584 H642 0.930 . S
C585 N581 1.279 . S
C585 C583 1.358 . S
C585 H643 0.930 . S
C586 C589 1.348 . S
C586 C590 1.356 . S
C586 O637 1.325 . S
C587 N588 1.279 . S
C587 C590 1.358 . S
C587 H644 0.930 . S
N588 C587 1.279 . S
N588 C591 1.314 . S
C589 C586 1.348 . S
C589 C591 1.353 . S
C589 H645 0.929 . S
C590 C586 1.356 . S
C590 C587 1.358 . S
C590 H646 0.930 . S
C591 N588 1.314 . S
C591 C589 1.353 . S
C591 H647 0.930 . S
C592 N593 1.314 . S
C592 C597 1.353 . S
C592 H598 0.930 . S
N593 Li576 1.990 . S
N593 C592 1.314 . S
N593 C595 1.279 . S
C594 C595 1.358 . S
C594 C596 1.356 . S
C594 H648 0.930 . S
C595 N593 1.279 . S
C595 C594 1.358 . S
C595 H599 0.930 . S
C596 C594 1.356 . S
C596 C597 1.348 . S
C597 C592 1.353 . S
C597 C596 1.348 . S
C597 H649 0.929 . S
H598 C592 0.930 . S
H599 C595 0.930 . S
C600 N601 1.314 . S
C600 C602 1.353 . S
C600 H606 0.930 . S
N601 Li577 1.990 . S
N601 C600 1.314 . S
N601 C604 1.279 . S
C602 C600 1.353 . S
C602 C605 1.348 . S
C602 H650 0.929 . S
C603 C604 1.358 . S
C603 C605 1.356 . S
C603 H651 0.930 . S
C604 N601 1.279 . S
C604 C603 1.358 . S
C604 H607 0.930 . S
C605 C602 1.348 . S
C605 C603 1.356 . S
H606 C600 0.930 . S
H607 C604 0.930 . S
C608 C610 1.348 . S
C608 C611 1.356 . S
C608 O638 1.325 . S
N609 C612 1.314 . S
N609 C613 1.279 . S
C610 C608 1.348 . S
C610 C612 1.353 . S
C610 H652 0.929 . S
C611 C608 1.356 . S
C611 C613 1.358 . S
C611 H653 0.930 . S
C612 N609 1.314 . S
C612 C610 1.353 . S
C612 H654 0.930 . S
C613 N609 1.279 . S
C613 C611 1.358 . S
C613 H655 0.930 . S
C614 C615 1.348 1_554 S
C614 C616 1.356 . S
C614 O639 1.325 . S
C615 C614 1.348 1_556 S
C615 C617 1.353 . S
C615 H656 0.929 . S
C616 C614 1.356 . S
C616 C618 1.358 . S
C616 H657 0.930 . S
C617 C615 1.353 . S
C617 N619 1.314 1_556 S
C617 H658 0.930 . S
C618 C616 1.358 . S
C618 N619 1.279 . S
C618 H659 0.930 . S
N619 C617 1.314 1_554 S
N619 C618 1.279 . S
C620 C622 1.353 . S
C620 N623 1.314 . S
C620 H626 0.930 . S
C621 N623 1.279 . S
C621 C624 1.358 . S
C621 H627 0.930 . S
C622 C620 1.353 . S
C622 C625 1.348 . S
C622 H660 0.929 . S
N623 Li578 1.990 . S
N623 C620 1.314 . S
N623 C621 1.279 . S
C624 C621 1.358 . S
C624 C625 1.356 . S
C624 H661 0.930 . S
C625 C622 1.348 . S
C625 C624 1.356 . S
H626 C620 0.930 . S
H627 C621 0.930 . S
C628 N629 1.314 . S
C628 C630 1.353 . S
C628 H634 0.930 . S
N629 Li579 1.990 . S
N629 C628 1.314 . S
N629 C632 1.279 . S
C630 C628 1.353 . S
C630 C633 1.348 . S
C630 H662 0.929 . S
C631 C632 1.358 . S
C631 C633 1.356 . S
C631 H663 0.930 . S
C632 N629 1.279 . S
C632 C631 1.358 . S
C632 H635 0.930 . S
C633 C630 1.348 . S
C633 C631 1.356 . S
H634 C628 0.930 . S
H635 C632 0.930 . S
O636 Li576 1.956 . S
O636 Li577 1.970 1_556 S
O636 Li578 1.961 . S
O636 C580 1.325 . S
O637 Li576 1.970 1_554 S
O637 Li577 1.956 . S
O637 Li579 1.961 . S
O637 C586 1.325 . S
O638 Li576 1.961 . S
O638 Li578 1.956 . S
O638 Li579 1.970 1_556 S
O638 C608 1.325 . S
O639 Li577 1.961 . S
O639 Li578 1.970 1_554 S
O639 Li579 1.956 . S
O639 C614 1.325 . S
H640 C582 0.929 . S
H641 C583 0.930 . S
H642 C584 0.930 . S
H643 C585 0.930 . S
H644 C587 0.930 . S
H645 C589 0.929 . S
H646 C590 0.930 . S
H647 C591 0.930 . S
H648 C594 0.930 . S
H649 C597 0.929 . S
H650 C602 0.929 . S
H651 C603 0.930 . S
H652 C610 0.929 . S
H653 C611 0.930 . S
H654 C612 0.930 . S
H655 C613 0.930 . S
H656 C615 0.929 . S
H657 C616 0.930 . S
H658 C617 0.930 . S
H659 C618 0.930 . S
H660 C622 0.929 . S
H661 C624 0.930 . S
H662 C630 0.929 . S
H663 C631 0.930 . S
Li664 N681 1.990 . S
Li664 O724 1.956 . S
Li664 O725 1.970 . S
Li664 O726 1.961 . S
Li665 N689 1.990 . S
Li665 O724 1.970 . S
Li665 O725 1.956 . S
Li665 O727 1.961 . S
Li666 N711 1.990 . S
Li666 O724 1.961 . S
Li666 O726 1.956 . S
Li666 O727 1.970 . S
Li667 N717 1.990 . S
Li667 O725 1.961 . S
Li667 O726 1.970 . S
Li667 O727 1.956 . S
C668 C670 1.348 . S
C668 C671 1.356 . S
C668 O724 1.325 . S
N669 C672 1.314 . S
N669 C673 1.279 . S
C670 C668 1.348 . S
C670 C672 1.353 . S
C670 H728 0.929 . S
C671 C668 1.356 . S
C671 C673 1.358 . S
C671 H729 0.930 . S
C672 N669 1.314 . S
C672 C670 1.353 . S
C672 H730 0.930 . S
C673 N669 1.279 . S
C673 C671 1.358 . S
C673 H731 0.930 . S
C674 C677 1.348 . S
C674 C678 1.356 . S
C674 O725 1.325 . S
C675 N676 1.279 . S
C675 C678 1.358 . S
C675 H732 0.930 . S
N676 C675 1.279 . S
N676 C679 1.314 . S
C677 C674 1.348 . S
C677 C679 1.353 . S
C677 H733 0.929 . S
C678 C674 1.356 . S
C678 C675 1.358 . S
C678 H734 0.930 . S
C679 N676 1.314 . S
C679 C677 1.353 . S
C679 H735 0.930 . S
C680 N681 1.314 . S
C680 C685 1.353 . S
C680 H686 0.930 . S
N681 Li664 1.990 . S
N681 C680 1.314 . S
N681 C683 1.279 . S
C682 C683 1.358 . S
C682 C684 1.356 . S
C682 H736 0.930 . S
C683 N681 1.279 . S
C683 C682 1.358 . S
C683 H687 0.930 . S
C684 C682 1.356 . S
C684 C685 1.348 . S
C685 C680 1.353 . S
C685 C684 1.348 . S
C685 H737 0.929 . S
H686 C680 0.930 . S
H687 C683 0.930 . S
C688 N689 1.314 . S
C688 C690 1.353 . S
C688 H694 0.930 . S
N689 Li665 1.990 . S
N689 C688 1.314 . S
N689 C692 1.279 . S
C690 C688 1.353 . S
C690 C693 1.348 . S
C690 H738 0.929 . S
C691 C692 1.358 . S
C691 C693 1.356 . S
C691 H739 0.930 . S
C692 N689 1.279 . S
C692 C691 1.358 . S
C692 H695 0.930 . S
C693 C690 1.348 . S
C693 C691 1.356 . S
H694 C688 0.930 . S
H695 C692 0.930 . S
C696 C698 1.348 . S
C696 C699 1.356 . S
C696 O726 1.325 . S
N697 C700 1.314 . S
N697 C701 1.279 . S
C698 C696 1.348 . S
C698 C700 1.353 . S
C698 H740 0.929 . S
C699 C696 1.356 . S
C699 C701 1.358 . S
C699 H741 0.930 . S
C700 N697 1.314 . S
C700 C698 1.353 . S
C700 H742 0.930 . S
C701 N697 1.279 . S
C701 C699 1.358 . S
C701 H743 0.930 . S
C702 C703 1.348 . S
C702 C704 1.356 . S
C702 O727 1.325 . S
C703 C702 1.348 . S
C703 C705 1.353 . S
C703 H744 0.929 . S
C704 C702 1.356 . S
C704 C706 1.358 . S
C704 H745 0.930 . S
C705 C703 1.353 . S
C705 N707 1.314 . S
C705 H746 0.930 . S
C706 C704 1.358 . S
C706 N707 1.279 . S
C706 H747 0.930 . S
N707 C705 1.314 . S
N707 C706 1.279 . S
C708 C710 1.353 . S
C708 N711 1.314 . S
C708 H714 0.930 . S
C709 N711 1.279 . S
C709 C712 1.358 . S
C709 H715 0.930 . S
C710 C708 1.353 . S
C710 C713 1.348 . S
C710 H748 0.929 . S
N711 Li666 1.990 . S
N711 C708 1.314 . S
N711 C709 1.279 . S
C712 C709 1.358 . S
C712 C713 1.356 . S
C712 H749 0.930 . S
C713 C710 1.348 . S
C713 C712 1.356 . S
H714 C708 0.930 . S
H715 C709 0.930 . S
C716 N717 1.314 . S
C716 C718 1.353 . S
C716 H722 0.930 . S
N717 Li667 1.990 . S
N717 C716 1.314 . S
N717 C720 1.279 . S
C718 C716 1.353 . S
C718 C721 1.348 . S
C718 H750 0.929 . S
C719 C720 1.358 . S
C719 C721 1.356 . S
C719 H751 0.930 . S
C720 N717 1.279 . S
C720 C719 1.358 . S
C720 H723 0.930 . S
C721 C718 1.348 . S
C721 C719 1.356 . S
H722 C716 0.930 . S
H723 C720 0.930 . S
O724 Li664 1.956 . S
O724 Li665 1.970 . S
O724 Li666 1.961 . S
O724 C668 1.325 . S
O725 Li664 1.970 . S
O725 Li665 1.956 . S
O725 Li667 1.961 . S
O725 C674 1.325 . S
O726 Li664 1.961 . S
O726 Li666 1.956 . S
O726 Li667 1.970 . S
O726 C696 1.325 . S
O727 Li665 1.961 . S
O727 Li666 1.970 . S
O727 Li667 1.956 . S
O727 C702 1.325 . S
H728 C670 0.929 . S
H729 C671 0.930 . S
H730 C672 0.930 . S
H731 C673 0.930 . S
H732 C675 0.930 . S
H733 C677 0.929 . S
H734 C678 0.930 . S
H735 C679 0.930 . S
H736 C682 0.930 . S
H737 C685 0.929 . S
H738 C690 0.929 . S
H739 C691 0.930 . S
H740 C698 0.929 . S
H741 C699 0.930 . S
H742 C700 0.930 . S
H743 C701 0.930 . S
H744 C703 0.929 . S
H745 C704 0.930 . S
H746 C705 0.930 . S
H747 C706 0.930 . S
H748 C710 0.929 . S
H749 C712 0.930 . S
H750 C718 0.929 . S
H751 C719 0.930 . S
Li752 N769 1.990 . S
Li752 O812 1.956 . S
Li752 O813 1.970 1_556 S
Li752 O814 1.961 . S
Li753 N777 1.990 . S
Li753 O812 1.970 1_554 S
Li753 O813 1.956 . S
Li753 O815 1.961 . S
Li754 N799 1.990 . S
Li754 O812 1.961 . S
Li754 O814 1.956 . S
Li754 O815 1.970 1_556 S
Li755 N805 1.990 . S
Li755 O813 1.961 . S
Li755 O814 1.970 1_554 S
Li755 O815 1.956 . S
C756 C758 1.348 1_556 S
C756 C759 1.356 . S
C756 O812 1.325 . S
N757 C760 1.314 1_556 S
N757 C761 1.279 . S
C758 C756 1.348 1_554 S
C758 C760 1.353 . S
C758 H816 0.929 . S
C759 C756 1.356 . S
C759 C761 1.358 . S
C759 H817 0.930 . S
C760 N757 1.314 1_554 S
C760 C758 1.353 . S
C760 H818 0.930 . S
C761 N757 1.279 . S
C761 C759 1.358 . S
C761 H819 0.930 . S
C762 C765 1.348 . S
C762 C766 1.356 . S
C762 O813 1.325 . S
C763 N764 1.279 . S
C763 C766 1.358 . S
C763 H820 0.930 . S
N764 C763 1.279 . S
N764 C767 1.314 . S
C765 C762 1.348 . S
C765 C767 1.353 . S
C765 H821 0.929 . S
C766 C762 1.356 . S
C766 C763 1.358 . S
C766 H822 0.930 . S
C767 N764 1.314 . S
C767 C765 1.353 . S
C767 H823 0.930 . S
C768 N769 1.314 . S
C768 C773 1.353 . S
C768 H774 0.930 . S
N769 Li752 1.990 . S
N769 C768 1.314 . S
N769 C771 1.279 . S
C770 C771 1.358 . S
C770 C772 1.356 . S
C770 H824 0.930 . S
C771 N769 1.279 . S
C771 C770 1.358 . S
C771 H775 0.930 . S
C772 C770 1.356 . S
C772 C773 1.348 . S
C773 C768 1.353 . S
C773 C772 1.348 . S
C773 H825 0.929 . S
H774 C768 0.930 . S
H775 C771 0.930 . S
C776 N777 1.314 . S
C776 C778 1.353 . S
C776 H782 0.930 . S
N777 Li753 1.990 . S
N777 C776 1.314 . S
N777 C780 1.279 . S
C778 C776 1.353 . S
C778 C781 1.348 . S
C778 H826 0.929 . S
C779 C780 1.358 . S
C779 C781 1.356 . S
C779 H827 0.930 . S
C780 N777 1.279 . S
C780 C779 1.358 . S
C780 H783 0.930 . S
C781 C778 1.348 . S
C781 C779 1.356 . S
H782 C776 0.930 . S
H783 C780 0.930 . S
C784 C786 1.348 . S
C784 C787 1.356 . S
C784 O814 1.325 . S
N785 C788 1.314 . S
N785 C789 1.279 . S
C786 C784 1.348 . S
C786 C788 1.353 . S
C786 H828 0.929 . S
C787 C784 1.356 . S
C787 C789 1.358 . S
C787 H829 0.930 . S
C788 N785 1.314 . S
C788 C786 1.353 . S
C788 H830 0.930 . S
C789 N785 1.279 . S
C789 C787 1.358 . S
C789 H831 0.930 . S
C790 C791 1.348 1_554 S
C790 C792 1.356 . S
C790 O815 1.325 . S
C791 C790 1.348 1_556 S
C791 C793 1.353 . S
C791 H832 0.929 . S
C792 C790 1.356 . S
C792 C794 1.358 . S
C792 H833 0.930 . S
C793 C791 1.353 . S
C793 N795 1.314 1_556 S
C793 H834 0.930 . S
C794 C792 1.358 . S
C794 N795 1.279 . S
C794 H835 0.930 . S
N795 C793 1.314 1_554 S
N795 C794 1.279 . S
C796 C798 1.353 . S
C796 N799 1.314 . S
C796 H802 0.930 . S
C797 N799 1.279 . S
C797 C800 1.358 . S
C797 H803 0.930 . S
C798 C796 1.353 . S
C798 C801 1.348 . S
C798 H836 0.929 . S
N799 Li754 1.990 . S
N799 C796 1.314 . S
N799 C797 1.279 . S
C800 C797 1.358 . S
C800 C801 1.356 . S
C800 H837 0.930 . S
C801 C798 1.348 . S
C801 C800 1.356 . S
H802 C796 0.930 . S
H803 C797 0.930 . S
C804 N805 1.314 . S
C804 C806 1.353 . S
C804 H810 0.930 . S
N805 Li755 1.990 . S
N805 C804 1.314 . S
N805 C808 1.279 . S
C806 C804 1.353 . S
C806 C809 1.348 . S
C806 H838 0.929 . S
C807 C808 1.358 . S
C807 C809 1.356 . S
C807 H839 0.930 . S
C808 N805 1.279 . S
C808 C807 1.358 . S
C808 H811 0.930 . S
C809 C806 1.348 . S
C809 C807 1.356 . S
H810 C804 0.930 . S
H811 C808 0.930 . S
O812 Li752 1.956 . S
O812 Li753 1.970 1_556 S
O812 Li754 1.961 . S
O812 C756 1.325 . S
O813 Li752 1.970 1_554 S
O813 Li753 1.956 . S
O813 Li755 1.961 . S
O813 C762 1.325 . S
O814 Li752 1.961 . S
O814 Li754 1.956 . S
O814 Li755 1.970 1_556 S
O814 C784 1.325 . S
O815 Li753 1.961 . S
O815 Li754 1.970 1_554 S
O815 Li755 1.956 . S
O815 C790 1.325 . S
H816 C758 0.929 . S
H817 C759 0.930 . S
H818 C760 0.930 . S
H819 C761 0.930 . S
H820 C763 0.930 . S
H821 C765 0.929 . S
H822 C766 0.930 . S
H823 C767 0.930 . S
H824 C770 0.930 . S
H825 C773 0.929 . S
H826 C778 0.929 . S
H827 C779 0.930 . S
H828 C786 0.929 . S
H829 C787 0.930 . S
H830 C788 0.930 . S
H831 C789 0.930 . S
H832 C791 0.929 . S
H833 C792 0.930 . S
H834 C793 0.930 . S
H835 C794 0.930 . S
H836 C798 0.929 . S
H837 C800 0.930 . S
H838 C806 0.929 . S
H839 C807 0.930 . S
Li840 N857 1.990 . S
Li840 O900 1.956 . S
Li840 O901 1.970 1_545 S
Li840 O902 1.961 . S
Li841 N865 1.990 . S
Li841 O900 1.970 1_565 S
Li841 O901 1.956 . S
Li841 O903 1.961 . S
Li842 N887 1.990 . S
Li842 O900 1.961 . S
Li842 O902 1.956 . S
Li842 O903 1.970 1_545 S
Li843 N893 1.990 . S
Li843 O901 1.961 . S
Li843 O902 1.970 1_565 S
Li843 O903 1.956 . S
C844 C846 1.348 . S
C844 C847 1.356 . S
C844 O900 1.325 . S
N845 C848 1.314 . S
N845 C849 1.279 . S
C846 C844 1.348 . S
C846 C848 1.353 . S
C846 H904 0.929 . S
C847 C844 1.356 . S
C847 C849 1.358 . S
C847 H905 0.930 . S
C848 N845 1.314 . S
C848 C846 1.353 . S
C848 H906 0.930 . S
C849 N845 1.279 . S
C849 C847 1.358 . S
C849 H907 0.930 . S
C850 C853 1.348 1_565 S
C850 C854 1.356 . S
C850 O901 1.325 . S
C851 N852 1.279 . S
C851 C854 1.358 . S
C851 H908 0.930 . S
N852 C851 1.279 . S
N852 C855 1.314 1_565 S
C853 C850 1.348 1_545 S
C853 C855 1.353 . S
C853 H909 0.929 . S
C854 C850 1.356 . S
C854 C851 1.358 . S
C854 H910 0.930 . S
C855 N852 1.314 1_545 S
C855 C853 1.353 . S
C855 H911 0.930 . S
C856 N857 1.314 . S
C856 C861 1.353 . S
C856 H862 0.930 . S
N857 Li840 1.990 . S
N857 C856 1.314 . S
N857 C859 1.279 . S
C858 C859 1.358 . S
C858 C860 1.356 . S
C858 H912 0.930 . S
C859 N857 1.279 . S
C859 C858 1.358 . S
C859 H863 0.930 . S
C860 C858 1.356 . S
C860 C861 1.348 . S
C861 C856 1.353 . S
C861 C860 1.348 . S
C861 H913 0.929 . S
H862 C856 0.930 . S
H863 C859 0.930 . S
C864 N865 1.314 . S
C864 C866 1.353 . S
C864 H870 0.930 . S
N865 Li841 1.990 . S
N865 C864 1.314 . S
N865 C868 1.279 . S
C866 C864 1.353 . S
C866 C869 1.348 . S
C866 H914 0.929 . S
C867 C868 1.358 . S
C867 C869 1.356 . S
C867 H915 0.930 . S
C868 N865 1.279 . S
C868 C867 1.358 . S
C868 H871 0.930 . S
C869 C866 1.348 . S
C869 C867 1.356 . S
H870 C864 0.930 . S
H871 C868 0.930 . S
C872 C874 1.348 1_545 S
C872 C875 1.356 . S
C872 O902 1.325 . S
N873 C876 1.314 1_545 S
N873 C877 1.279 . S
C874 C872 1.348 1_565 S
C874 C876 1.353 . S
C874 H916 0.929 . S
C875 C872 1.356 . S
C875 C877 1.358 . S
C875 H917 0.930 . S
C876 N873 1.314 1_565 S
C876 C874 1.353 . S
C876 H918 0.930 . S
C877 N873 1.279 . S
C877 C875 1.358 . S
C877 H919 0.930 . S
C878 C879 1.348 . S
C878 C880 1.356 . S
C878 O903 1.325 . S
C879 C878 1.348 . S
C879 C881 1.353 . S
C879 H920 0.929 . S
C880 C878 1.356 . S
C880 C882 1.358 . S
C880 H921 0.930 . S
C881 C879 1.353 . S
C881 N883 1.314 . S
C881 H922 0.930 . S
C882 C880 1.358 . S
C882 N883 1.279 . S
C882 H923 0.930 . S
N883 C881 1.314 . S
N883 C882 1.279 . S
C884 C886 1.353 . S
C884 N887 1.314 . S
C884 H890 0.930 . S
C885 N887 1.279 . S
C885 C888 1.358 . S
C885 H891 0.930 . S
C886 C884 1.353 . S
C886 C889 1.348 . S
C886 H924 0.929 . S
N887 Li842 1.990 . S
N887 C884 1.314 . S
N887 C885 1.279 . S
C888 C885 1.358 . S
C888 C889 1.356 . S
C888 H925 0.930 . S
C889 C886 1.348 . S
C889 C888 1.356 . S
H890 C884 0.930 . S
H891 C885 0.930 . S
C892 N893 1.314 . S
C892 C894 1.353 . S
C892 H898 0.930 . S
N893 Li843 1.990 . S
N893 C892 1.314 . S
N893 C896 1.279 . S
C894 C892 1.353 . S
C894 C897 1.348 . S
C894 H926 0.929 . S
C895 C896 1.358 . S
C895 C897 1.356 . S
C895 H927 0.930 . S
C896 N893 1.279 . S
C896 C895 1.358 . S
C896 H899 0.930 . S
C897 C894 1.348 . S
C897 C895 1.356 . S
H898 C892 0.930 . S
H899 C896 0.930 . S
O900 Li840 1.956 . S
O900 Li841 1.970 1_545 S
O900 Li842 1.961 . S
O900 C844 1.325 . S
O901 Li840 1.970 1_565 S
O901 Li841 1.956 . S
O901 Li843 1.961 . S
O901 C850 1.325 . S
O902 Li840 1.961 . S
O902 Li842 1.956 . S
O902 Li843 1.970 1_545 S
O902 C872 1.325 . S
O903 Li841 1.961 . S
O903 Li842 1.970 1_565 S
O903 Li843 1.956 . S
O903 C878 1.325 . S
H904 C846 0.929 . S
H905 C847 0.930 . S
H906 C848 0.930 . S
H907 C849 0.930 . S
H908 C851 0.930 . S
H909 C853 0.929 . S
H910 C854 0.930 . S
H911 C855 0.930 . S
H912 C858 0.930 . S
H913 C861 0.929 . S
H914 C866 0.929 . S
H915 C867 0.930 . S
H916 C874 0.929 . S
H917 C875 0.930 . S
H918 C876 0.930 . S
H919 C877 0.930 . S
H920 C879 0.929 . S
H921 C880 0.930 . S
H922 C881 0.930 . S
H923 C882 0.930 . S
H924 C886 0.929 . S
H925 C888 0.930 . S
H926 C894 0.929 . S
H927 C895 0.930 . S
Li928 N945 1.990 . S
Li928 O988 1.956 . S
Li928 O989 1.970 . S
Li928 O990 1.961 . S
Li929 N953 1.990 . S
Li929 O988 1.970 . S
Li929 O989 1.956 . S
Li929 O991 1.961 . S
Li930 N975 1.990 . S
Li930 O988 1.961 . S
Li930 O990 1.956 . S
Li930 O991 1.970 . S
Li931 N981 1.990 . S
Li931 O989 1.961 . S
Li931 O990 1.970 . S
Li931 O991 1.956 . S
C932 C934 1.348 . S
C932 C935 1.356 . S
C932 O988 1.325 . S
N933 C936 1.314 . S
N933 C937 1.279 . S
C934 C932 1.348 . S
C934 C936 1.353 . S
C934 H992 0.929 . S
C935 C932 1.356 . S
C935 C937 1.358 . S
C935 H993 0.930 . S
C936 N933 1.314 . S
C936 C934 1.353 . S
C936 H994 0.930 . S
C937 N933 1.279 . S
C937 C935 1.358 . S
C937 H995 0.930 . S
C938 C941 1.348 . S
C938 C942 1.356 . S
C938 O989 1.325 . S
C939 N940 1.279 . S
C939 C942 1.358 . S
C939 H996 0.930 . S
N940 C939 1.279 . S
N940 C943 1.314 . S
C941 C938 1.348 . S
C941 C943 1.353 . S
C941 H997 0.929 . S
C942 C938 1.356 . S
C942 C939 1.358 . S
C942 H998 0.930 . S
C943 N940 1.314 . S
C943 C941 1.353 . S
C943 H999 0.930 . S
C944 N945 1.314 . S
C944 C949 1.353 . S
C944 H950 0.930 . S
N945 Li928 1.990 . S
N945 C944 1.314 . S
N945 C947 1.279 . S
C946 C947 1.358 . S
C946 C948 1.356 . S
C946 H1000 0.930 . S
C947 N945 1.279 . S
C947 C946 1.358 . S
C947 H951 0.930 . S
C948 C946 1.356 . S
C948 C949 1.348 . S
C949 C944 1.353 . S
C949 C948 1.348 . S
C949 H1001 0.929 . S
H950 C944 0.930 . S
H951 C947 0.930 . S
C952 N953 1.314 . S
C952 C954 1.353 . S
C952 H958 0.930 . S
N953 Li929 1.990 . S
N953 C952 1.314 . S
N953 C956 1.279 . S
C954 C952 1.353 . S
C954 C957 1.348 . S
C954 H1002 0.929 . S
C955 C956 1.358 . S
C955 C957 1.356 . S
C955 H1003 0.930 . S
C956 N953 1.279 . S
C956 C955 1.358 . S
C956 H959 0.930 . S
C957 C954 1.348 . S
C957 C955 1.356 . S
H958 C952 0.930 . S
H959 C956 0.930 . S
C960 C962 1.348 . S
C960 C963 1.356 . S
C960 O990 1.325 . S
N961 C964 1.314 . S
N961 C965 1.279 . S
C962 C960 1.348 . S
C962 C964 1.353 . S
C962 H1004 0.929 . S
C963 C960 1.356 . S
C963 C965 1.358 . S
C963 H1005 0.930 . S
C964 N961 1.314 . S
C964 C962 1.353 . S
C964 H1006 0.930 . S
C965 N961 1.279 . S
C965 C963 1.358 . S
C965 H1007 0.930 . S
C966 C967 1.348 . S
C966 C968 1.356 . S
C966 O991 1.325 . S
C967 C966 1.348 . S
C967 C969 1.353 . S
C967 H1008 0.929 . S
C968 C966 1.356 . S
C968 C970 1.358 . S
C968 H1009 0.930 . S
C969 C967 1.353 . S
C969 N971 1.314 . S
C969 H1010 0.930 . S
C970 C968 1.358 . S
C970 N971 1.279 . S
C970 H1011 0.930 . S
N971 C969 1.314 . S
N971 C970 1.279 . S
C972 C974 1.353 . S
C972 N975 1.314 . S
C972 H978 0.930 . S
C973 N975 1.279 . S
C973 C976 1.358 . S
C973 H979 0.930 . S
C974 C972 1.353 . S
C974 C977 1.348 . S
C974 H1012 0.929 . S
N975 Li930 1.990 . S
N975 C972 1.314 . S
N975 C973 1.279 . S
C976 C973 1.358 . S
C976 C977 1.356 . S
C976 H1013 0.930 . S
C977 C974 1.348 . S
C977 C976 1.356 . S
H978 C972 0.930 . S
H979 C973 0.930 . S
C980 N981 1.314 . S
C980 C982 1.353 . S
C980 H986 0.930 . S
N981 Li931 1.990 . S
N981 C980 1.314 . S
N981 C984 1.279 . S
C982 C980 1.353 . S
C982 C985 1.348 . S
C982 H1014 0.929 . S
C983 C984 1.358 . S
C983 C985 1.356 . S
C983 H1015 0.930 . S
C984 N981 1.279 . S
C984 C983 1.358 . S
C984 H987 0.930 . S
C985 C982 1.348 . S
C985 C983 1.356 . S
H986 C980 0.930 . S
H987 C984 0.930 . S
O988 Li928 1.956 . S
O988 Li929 1.970 . S
O988 Li930 1.961 . S
O988 C932 1.325 . S
O989 Li928 1.970 . S
O989 Li929 1.956 . S
O989 Li931 1.961 . S
O989 C938 1.325 . S
O990 Li928 1.961 . S
O990 Li930 1.956 . S
O990 Li931 1.970 . S
O990 C960 1.325 . S
O991 Li929 1.961 . S
O991 Li930 1.970 . S
O991 Li931 1.956 . S
O991 C966 1.325 . S
H992 C934 0.929 . S
H993 C935 0.930 . S
H994 C936 0.930 . S
H995 C937 0.930 . S
H996 C939 0.930 . S
H997 C941 0.929 . S
H998 C942 0.930 . S
H999 C943 0.930 . S
H1000 C946 0.930 . S
H1001 C949 0.929 . S
H1002 C954 0.929 . S
H1003 C955 0.930 . S
H1004 C962 0.929 . S
H1005 C963 0.930 . S
H1006 C964 0.930 . S
H1007 C965 0.930 . S
H1008 C967 0.929 . S
H1009 C968 0.930 . S
H1010 C969 0.930 . S
H1011 C970 0.930 . S
H1012 C974 0.929 . S
H1013 C976 0.930 . S
H1014 C982 0.929 . S
H1015 C983 0.930 . S
Li1016 N1033 1.990 . S
Li1016 O1076 1.956 . S
Li1016 O1077 1.970 . S
Li1016 O1078 1.961 . S
Li1017 N1041 1.990 . S
Li1017 O1076 1.970 . S
Li1017 O1077 1.956 . S
Li1017 O1079 1.961 . S
Li1018 N1063 1.990 . S
Li1018 O1076 1.961 . S
Li1018 O1078 1.956 . S
Li1018 O1079 1.970 . S
Li1019 N1069 1.990 . S
Li1019 O1077 1.961 . S
Li1019 O1078 1.970 . S
Li1019 O1079 1.956 . S
C1020 C1022 1.348 . S
C1020 C1023 1.356 . S
C1020 O1076 1.325 . S
N1021 C1024 1.314 . S
N1021 C1025 1.279 . S
C1022 C1020 1.348 . S
C1022 C1024 1.353 . S
C1022 H1080 0.929 . S
C1023 C1020 1.356 . S
C1023 C1025 1.358 . S
C1023 H1081 0.930 . S
C1024 N1021 1.314 . S
C1024 C1022 1.353 . S
C1024 H1082 0.930 . S
C1025 N1021 1.279 . S
C1025 C1023 1.358 . S
C1025 H1083 0.930 . S
C1026 C1029 1.348 . S
C1026 C1030 1.356 . S
C1026 O1077 1.325 . S
C1027 N1028 1.279 . S
C1027 C1030 1.358 . S
C1027 H1084 0.930 . S
N1028 C1027 1.279 . S
N1028 C1031 1.314 . S
C1029 C1026 1.348 . S
C1029 C1031 1.353 . S
C1029 H1085 0.929 . S
C1030 C1026 1.356 . S
C1030 C1027 1.358 . S
C1030 H1086 0.930 . S
C1031 N1028 1.314 . S
C1031 C1029 1.353 . S
C1031 H1087 0.930 . S
C1032 N1033 1.314 . S
C1032 C1037 1.353 . S
C1032 H1038 0.930 . S
N1033 Li1016 1.990 . S
N1033 C1032 1.314 . S
N1033 C1035 1.279 . S
C1034 C1035 1.358 . S
C1034 C1036 1.356 . S
C1034 H1088 0.930 . S
C1035 N1033 1.279 . S
C1035 C1034 1.358 . S
C1035 H1039 0.930 . S
C1036 C1034 1.356 . S
C1036 C1037 1.348 . S
C1037 C1032 1.353 . S
C1037 C1036 1.348 . S
C1037 H1089 0.929 . S
H1038 C1032 0.930 . S
H1039 C1035 0.930 . S
C1040 N1041 1.314 . S
C1040 C1042 1.353 . S
C1040 H1046 0.930 . S
N1041 Li1017 1.990 . S
N1041 C1040 1.314 . S
N1041 C1044 1.279 . S
C1042 C1040 1.353 . S
C1042 C1045 1.348 . S
C1042 H1090 0.929 . S
C1043 C1044 1.358 . S
C1043 C1045 1.356 . S
C1043 H1091 0.930 . S
C1044 N1041 1.279 . S
C1044 C1043 1.358 . S
C1044 H1047 0.930 . S
C1045 C1042 1.348 . S
C1045 C1043 1.356 . S
H1046 C1040 0.930 . S
H1047 C1044 0.930 . S
C1048 C1050 1.348 . S
C1048 C1051 1.356 . S
C1048 O1078 1.325 . S
N1049 C1052 1.314 . S
N1049 C1053 1.279 . S
C1050 C1048 1.348 . S
C1050 C1052 1.353 . S
C1050 H1092 0.929 . S
C1051 C1048 1.356 . S
C1051 C1053 1.358 . S
C1051 H1093 0.930 . S
C1052 N1049 1.314 . S
C1052 C1050 1.353 . S
C1052 H1094 0.930 . S
C1053 N1049 1.279 . S
C1053 C1051 1.358 . S
C1053 H1095 0.930 . S
C1054 C1055 1.348 . S
C1054 C1056 1.356 . S
C1054 O1079 1.325 . S
C1055 C1054 1.348 . S
C1055 C1057 1.353 . S
C1055 H1096 0.929 . S
C1056 C1054 1.356 . S
C1056 C1058 1.358 . S
C1056 H1097 0.930 . S
C1057 C1055 1.353 . S
C1057 N1059 1.314 . S
C1057 H1098 0.930 . S
C1058 C1056 1.358 . S
C1058 N1059 1.279 . S
C1058 H1099 0.930 . S
N1059 C1057 1.314 . S
N1059 C1058 1.279 . S
C1060 C1062 1.353 . S
C1060 N1063 1.314 . S
C1060 H1066 0.930 . S
C1061 N1063 1.279 . S
C1061 C1064 1.358 . S
C1061 H1067 0.930 . S
C1062 C1060 1.353 . S
C1062 C1065 1.348 . S
C1062 H1100 0.929 . S
N1063 Li1018 1.990 . S
N1063 C1060 1.314 . S
N1063 C1061 1.279 . S
C1064 C1061 1.358 . S
C1064 C1065 1.356 . S
C1064 H1101 0.930 . S
C1065 C1062 1.348 . S
C1065 C1064 1.356 . S
H1066 C1060 0.930 . S
H1067 C1061 0.930 . S
C1068 N1069 1.314 . S
C1068 C1070 1.353 . S
C1068 H1074 0.930 . S
N1069 Li1019 1.990 . S
N1069 C1068 1.314 . S
N1069 C1072 1.279 . S
C1070 C1068 1.353 . S
C1070 C1073 1.348 . S
C1070 H1102 0.929 . S
C1071 C1072 1.358 . S
C1071 C1073 1.356 . S
C1071 H1103 0.930 . S
C1072 N1069 1.279 . S
C1072 C1071 1.358 . S
C1072 H1075 0.930 . S
C1073 C1070 1.348 . S
C1073 C1071 1.356 . S
H1074 C1068 0.930 . S
H1075 C1072 0.930 . S
O1076 Li1016 1.956 . S
O1076 Li1017 1.970 . S
O1076 Li1018 1.961 . S
O1076 C1020 1.325 . S
O1077 Li1016 1.970 . S
O1077 Li1017 1.956 . S
O1077 Li1019 1.961 . S
O1077 C1026 1.325 . S
O1078 Li1016 1.961 . S
O1078 Li1018 1.956 . S
O1078 Li1019 1.970 . S
O1078 C1048 1.325 . S
O1079 Li1017 1.961 . S
O1079 Li1018 1.970 . S
O1079 Li1019 1.956 . S
O1079 C1054 1.325 . S
H1080 C1022 0.929 . S
H1081 C1023 0.930 . S
H1082 C1024 0.930 . S
H1083 C1025 0.930 . S
H1084 C1027 0.930 . S
H1085 C1029 0.929 . S
H1086 C1030 0.930 . S
H1087 C1031 0.930 . S
H1088 C1034 0.930 . S
H1089 C1037 0.929 . S
H1090 C1042 0.929 . S
H1091 C1043 0.930 . S
H1092 C1050 0.929 . S
H1093 C1051 0.930 . S
H1094 C1052 0.930 . S
H1095 C1053 0.930 . S
H1096 C1055 0.929 . S
H1097 C1056 0.930 . S
H1098 C1057 0.930 . S
H1099 C1058 0.930 . S
H1100 C1062 0.929 . S
H1101 C1064 0.930 . S
H1102 C1070 0.929 . S
H1103 C1071 0.930 . S
Li1104 N1121 1.990 . S
Li1104 O1164 1.956 . S
Li1104 O1165 1.970 . S
Li1104 O1166 1.961 . S
Li1105 N1129 1.990 . S
Li1105 O1164 1.970 . S
Li1105 O1165 1.956 . S
Li1105 O1167 1.961 . S
Li1106 N1151 1.990 . S
Li1106 O1164 1.961 . S
Li1106 O1166 1.956 . S
Li1106 O1167 1.970 . S
Li1107 N1157 1.990 . S
Li1107 O1165 1.961 . S
Li1107 O1166 1.970 . S
Li1107 O1167 1.956 . S
C1108 C1110 1.348 . S
C1108 C1111 1.356 . S
C1108 O1164 1.325 . S
N1109 C1112 1.314 . S
N1109 C1113 1.279 . S
C1110 C1108 1.348 . S
C1110 C1112 1.353 . S
C1110 H1168 0.929 . S
C1111 C1108 1.356 . S
C1111 C1113 1.358 . S
C1111 H1169 0.930 . S
C1112 N1109 1.314 . S
C1112 C1110 1.353 . S
C1112 H1170 0.930 . S
C1113 N1109 1.279 . S
C1113 C1111 1.358 . S
C1113 H1171 0.930 . S
C1114 C1117 1.348 . S
C1114 C1118 1.356 . S
C1114 O1165 1.325 . S
C1115 N1116 1.279 . S
C1115 C1118 1.358 . S
C1115 H1172 0.930 . S
N1116 C1115 1.279 . S
N1116 C1119 1.314 . S
C1117 C1114 1.348 . S
C1117 C1119 1.353 . S
C1117 H1173 0.929 . S
C1118 C1114 1.356 . S
C1118 C1115 1.358 . S
C1118 H1174 0.930 . S
C1119 N1116 1.314 . S
C1119 C1117 1.353 . S
C1119 H1175 0.930 . S
C1120 N1121 1.314 . S
C1120 C1125 1.353 . S
C1120 H1126 0.930 . S
N1121 Li1104 1.990 . S
N1121 C1120 1.314 . S
N1121 C1123 1.279 . S
C1122 C1123 1.358 . S
C1122 C1124 1.356 . S
C1122 H1176 0.930 . S
C1123 N1121 1.279 . S
C1123 C1122 1.358 . S
C1123 H1127 0.930 . S
C1124 C1122 1.356 . S
C1124 C1125 1.348 . S
C1125 C1120 1.353 . S
C1125 C1124 1.348 . S
C1125 H1177 0.929 . S
H1126 C1120 0.930 . S
H1127 C1123 0.930 . S
C1128 N1129 1.314 . S
C1128 C1130 1.353 . S
C1128 H1134 0.930 . S
N1129 Li1105 1.990 . S
N1129 C1128 1.314 . S
N1129 C1132 1.279 . S
C1130 C1128 1.353 . S
C1130 C1133 1.348 . S
C1130 H1178 0.929 . S
C1131 C1132 1.358 . S
C1131 C1133 1.356 . S
C1131 H1179 0.930 . S
C1132 N1129 1.279 . S
C1132 C1131 1.358 . S
C1132 H1135 0.930 . S
C1133 C1130 1.348 . S
C1133 C1131 1.356 . S
H1134 C1128 0.930 . S
H1135 C1132 0.930 . S
C1136 C1138 1.348 . S
C1136 C1139 1.356 . S
C1136 O1166 1.325 . S
N1137 C1140 1.314 . S
N1137 C1141 1.279 . S
C1138 C1136 1.348 . S
C1138 C1140 1.353 . S
C1138 H1180 0.929 . S
C1139 C1136 1.356 . S
C1139 C1141 1.358 . S
C1139 H1181 0.930 . S
C1140 N1137 1.314 . S
C1140 C1138 1.353 . S
C1140 H1182 0.930 . S
C1141 N1137 1.279 . S
C1141 C1139 1.358 . S
C1141 H1183 0.930 . S
C1142 C1143 1.348 . S
C1142 C1144 1.356 . S
C1142 O1167 1.325 . S
C1143 C1142 1.348 . S
C1143 C1145 1.353 . S
C1143 H1184 0.929 . S
C1144 C1142 1.356 . S
C1144 C1146 1.358 . S
C1144 H1185 0.930 . S
C1145 C1143 1.353 . S
C1145 N1147 1.314 . S
C1145 H1186 0.930 . S
C1146 C1144 1.358 . S
C1146 N1147 1.279 . S
C1146 H1187 0.930 . S
N1147 C1145 1.314 . S
N1147 C1146 1.279 . S
C1148 C1150 1.353 . S
C1148 N1151 1.314 . S
C1148 H1154 0.930 . S
C1149 N1151 1.279 . S
C1149 C1152 1.358 . S
C1149 H1155 0.930 . S
C1150 C1148 1.353 . S
C1150 C1153 1.348 . S
C1150 H1188 0.929 . S
N1151 Li1106 1.990 . S
N1151 C1148 1.314 . S
N1151 C1149 1.279 . S
C1152 C1149 1.358 . S
C1152 C1153 1.356 . S
C1152 H1189 0.930 . S
C1153 C1150 1.348 . S
C1153 C1152 1.356 . S
H1154 C1148 0.930 . S
H1155 C1149 0.930 . S
C1156 N1157 1.314 . S
C1156 C1158 1.353 . S
C1156 H1162 0.930 . S
N1157 Li1107 1.990 . S
N1157 C1156 1.314 . S
N1157 C1160 1.279 . S
C1158 C1156 1.353 . S
C1158 C1161 1.348 . S
C1158 H1190 0.929 . S
C1159 C1160 1.358 . S
C1159 C1161 1.356 . S
C1159 H1191 0.930 . S
C1160 N1157 1.279 . S
C1160 C1159 1.358 . S
C1160 H1163 0.930 . S
C1161 C1158 1.348 . S
C1161 C1159 1.356 . S
H1162 C1156 0.930 . S
H1163 C1160 0.930 . S
O1164 Li1104 1.956 . S
O1164 Li1105 1.970 . S
O1164 Li1106 1.961 . S
O1164 C1108 1.325 . S
O1165 Li1104 1.970 . S
O1165 Li1105 1.956 . S
O1165 Li1107 1.961 . S
O1165 C1114 1.325 . S
O1166 Li1104 1.961 . S
O1166 Li1106 1.956 . S
O1166 Li1107 1.970 . S
O1166 C1136 1.325 . S
O1167 Li1105 1.961 . S
O1167 Li1106 1.970 . S
O1167 Li1107 1.956 . S
O1167 C1142 1.325 . S
H1168 C1110 0.929 . S
H1169 C1111 0.930 . S
H1170 C1112 0.930 . S
H1171 C1113 0.930 . S
H1172 C1115 0.930 . S
H1173 C1117 0.929 . S
H1174 C1118 0.930 . S
H1175 C1119 0.930 . S
H1176 C1122 0.930 . S
H1177 C1125 0.929 . S
H1178 C1130 0.929 . S
H1179 C1131 0.930 . S
H1180 C1138 0.929 . S
H1181 C1139 0.930 . S
H1182 C1140 0.930 . S
H1183 C1141 0.930 . S
H1184 C1143 0.929 . S
H1185 C1144 0.930 . S
H1186 C1145 0.930 . S
H1187 C1146 0.930 . S
H1188 C1150 0.929 . S
H1189 C1152 0.930 . S
H1190 C1158 0.929 . S
H1191 C1159 0.930 . S
Li1192 N1209 1.990 . S
Li1192 O1252 1.956 . S
Li1192 O1253 1.970 1_565 S
Li1192 O1254 1.961 . S
Li1193 N1217 1.990 . S
Li1193 O1252 1.970 1_545 S
Li1193 O1253 1.956 . S
Li1193 O1255 1.961 . S
Li1194 N1239 1.990 . S
Li1194 O1252 1.961 . S
Li1194 O1254 1.956 . S
Li1194 O1255 1.970 1_565 S
Li1195 N1245 1.990 . S
Li1195 O1253 1.961 . S
Li1195 O1254 1.970 1_545 S
Li1195 O1255 1.956 . S
C1196 C1198 1.348 . S
C1196 C1199 1.356 . S
C1196 O1252 1.325 . S
N1197 C1200 1.314 . S
N1197 C1201 1.279 . S
C1198 C1196 1.348 . S
C1198 C1200 1.353 . S
C1198 H1256 0.929 . S
C1199 C1196 1.356 . S
C1199 C1201 1.358 . S
C1199 H1257 0.930 . S
C1200 N1197 1.314 . S
C1200 C1198 1.353 . S
C1200 H1258 0.930 . S
C1201 N1197 1.279 . S
C1201 C1199 1.358 . S
C1201 H1259 0.930 . S
C1202 C1205 1.348 1_545 S
C1202 C1206 1.356 . S
C1202 O1253 1.325 . S
C1203 N1204 1.279 . S
C1203 C1206 1.358 . S
C1203 H1260 0.930 . S
N1204 C1203 1.279 . S
N1204 C1207 1.314 1_545 S
C1205 C1202 1.348 1_565 S
C1205 C1207 1.353 . S
C1205 H1261 0.929 . S
C1206 C1202 1.356 . S
C1206 C1203 1.358 . S
C1206 H1262 0.930 . S
C1207 N1204 1.314 1_565 S
C1207 C1205 1.353 . S
C1207 H1263 0.930 . S
C1208 N1209 1.314 . S
C1208 C1213 1.353 . S
C1208 H1214 0.930 . S
N1209 Li1192 1.990 . S
N1209 C1208 1.314 . S
N1209 C1211 1.279 . S
C1210 C1211 1.358 . S
C1210 C1212 1.356 . S
C1210 H1264 0.930 . S
C1211 N1209 1.279 . S
C1211 C1210 1.358 . S
C1211 H1215 0.930 . S
C1212 C1210 1.356 . S
C1212 C1213 1.348 . S
C1213 C1208 1.353 . S
C1213 C1212 1.348 . S
C1213 H1265 0.929 . S
H1214 C1208 0.930 . S
H1215 C1211 0.930 . S
C1216 N1217 1.314 . S
C1216 C1218 1.353 . S
C1216 H1222 0.930 . S
N1217 Li1193 1.990 . S
N1217 C1216 1.314 . S
N1217 C1220 1.279 . S
C1218 C1216 1.353 . S
C1218 C1221 1.348 . S
C1218 H1266 0.929 . S
C1219 C1220 1.358 . S
C1219 C1221 1.356 . S
C1219 H1267 0.930 . S
C1220 N1217 1.279 . S
C1220 C1219 1.358 . S
C1220 H1223 0.930 . S
C1221 C1218 1.348 . S
C1221 C1219 1.356 . S
H1222 C1216 0.930 . S
H1223 C1220 0.930 . S
C1224 C1226 1.348 1_565 S
C1224 C1227 1.356 . S
C1224 O1254 1.325 . S
N1225 C1228 1.314 1_565 S
N1225 C1229 1.279 . S
C1226 C1224 1.348 1_545 S
C1226 C1228 1.353 . S
C1226 H1268 0.929 . S
C1227 C1224 1.356 . S
C1227 C1229 1.358 . S
C1227 H1269 0.930 . S
C1228 N1225 1.314 1_545 S
C1228 C1226 1.353 . S
C1228 H1270 0.930 . S
C1229 N1225 1.279 . S
C1229 C1227 1.358 . S
C1229 H1271 0.930 . S
C1230 C1231 1.348 . S
C1230 C1232 1.356 . S
C1230 O1255 1.325 . S
C1231 C1230 1.348 . S
C1231 C1233 1.353 . S
C1231 H1272 0.929 . S
C1232 C1230 1.356 . S
C1232 C1234 1.358 . S
C1232 H1273 0.930 . S
C1233 C1231 1.353 . S
C1233 N1235 1.314 . S
C1233 H1274 0.930 . S
C1234 C1232 1.358 . S
C1234 N1235 1.279 . S
C1234 H1275 0.930 . S
N1235 C1233 1.314 . S
N1235 C1234 1.279 . S
C1236 C1238 1.353 . S
C1236 N1239 1.314 . S
C1236 H1242 0.930 . S
C1237 N1239 1.279 . S
C1237 C1240 1.358 . S
C1237 H1243 0.930 . S
C1238 C1236 1.353 . S
C1238 C1241 1.348 . S
C1238 H1276 0.929 . S
N1239 Li1194 1.990 . S
N1239 C1236 1.314 . S
N1239 C1237 1.279 . S
C1240 C1237 1.358 . S
C1240 C1241 1.356 . S
C1240 H1277 0.930 . S
C1241 C1238 1.348 . S
C1241 C1240 1.356 . S
H1242 C1236 0.930 . S
H1243 C1237 0.930 . S
C1244 N1245 1.314 . S
C1244 C1246 1.353 . S
C1244 H1250 0.930 . S
N1245 Li1195 1.990 . S
N1245 C1244 1.314 . S
N1245 C1248 1.279 . S
C1246 C1244 1.353 . S
C1246 C1249 1.348 . S
C1246 H1278 0.929 . S
C1247 C1248 1.358 . S
C1247 C1249 1.356 . S
C1247 H1279 0.930 . S
C1248 N1245 1.279 . S
C1248 C1247 1.358 . S
C1248 H1251 0.930 . S
C1249 C1246 1.348 . S
C1249 C1247 1.356 . S
H1250 C1244 0.930 . S
H1251 C1248 0.930 . S
O1252 Li1192 1.956 . S
O1252 Li1193 1.970 1_565 S
O1252 Li1194 1.961 . S
O1252 C1196 1.325 . S
O1253 Li1192 1.970 1_545 S
O1253 Li1193 1.956 . S
O1253 Li1195 1.961 . S
O1253 C1202 1.325 . S
O1254 Li1192 1.961 . S
O1254 Li1194 1.956 . S
O1254 Li1195 1.970 1_565 S
O1254 C1224 1.325 . S
O1255 Li1193 1.961 . S
O1255 Li1194 1.970 1_545 S
O1255 Li1195 1.956 . S
O1255 C1230 1.325 . S
H1256 C1198 0.929 . S
H1257 C1199 0.930 . S
H1258 C1200 0.930 . S
H1259 C1201 0.930 . S
H1260 C1203 0.930 . S
H1261 C1205 0.929 . S
H1262 C1206 0.930 . S
H1263 C1207 0.930 . S
H1264 C1210 0.930 . S
H1265 C1213 0.929 . S
H1266 C1218 0.929 . S
H1267 C1219 0.930 . S
H1268 C1226 0.929 . S
H1269 C1227 0.930 . S
H1270 C1228 0.930 . S
H1271 C1229 0.930 . S
H1272 C1231 0.929 . S
H1273 C1232 0.930 . S
H1274 C1233 0.930 . S
H1275 C1234 0.930 . S
H1276 C1238 0.929 . S
H1277 C1240 0.930 . S
H1278 C1246 0.929 . S
H1279 C1247 0.930 . S
Li1280 N1297 1.990 . S
Li1280 O1340 1.956 . S
Li1280 O1341 1.970 1_455 S
Li1280 O1342 1.961 . S
Li1281 N1305 1.990 . S
Li1281 O1340 1.970 1_655 S
Li1281 O1341 1.956 . S
Li1281 O1343 1.961 . S
Li1282 N1327 1.990 . S
Li1282 O1340 1.961 . S
Li1282 O1342 1.956 . S
Li1282 O1343 1.970 1_455 S
Li1283 N1333 1.990 . S
Li1283 O1341 1.961 . S
Li1283 O1342 1.970 1_655 S
Li1283 O1343 1.956 . S
C1284 C1286 1.348 . S
C1284 C1287 1.356 . S
C1284 O1340 1.325 . S
N1285 C1288 1.314 . S
N1285 C1289 1.279 . S
C1286 C1284 1.348 . S
C1286 C1288 1.353 . S
C1286 H1344 0.929 . S
C1287 C1284 1.356 . S
C1287 C1289 1.358 . S
C1287 H1345 0.930 . S
C1288 N1285 1.314 . S
C1288 C1286 1.353 . S
C1288 H1346 0.930 . S
C1289 N1285 1.279 . S
C1289 C1287 1.358 . S
C1289 H1347 0.930 . S
C1290 C1293 1.348 1_655 S
C1290 C1294 1.356 . S
C1290 O1341 1.325 . S
C1291 N1292 1.279 . S
C1291 C1294 1.358 . S
C1291 H1348 0.930 . S
N1292 C1291 1.279 . S
N1292 C1295 1.314 1_655 S
C1293 C1290 1.348 1_455 S
C1293 C1295 1.353 . S
C1293 H1349 0.929 . S
C1294 C1290 1.356 . S
C1294 C1291 1.358 . S
C1294 H1350 0.930 . S
C1295 N1292 1.314 1_455 S
C1295 C1293 1.353 . S
C1295 H1351 0.930 . S
C1296 N1297 1.314 . S
C1296 C1301 1.353 . S
C1296 H1302 0.930 . S
N1297 Li1280 1.990 . S
N1297 C1296 1.314 . S
N1297 C1299 1.279 . S
C1298 C1299 1.358 . S
C1298 C1300 1.356 . S
C1298 H1352 0.930 . S
C1299 N1297 1.279 . S
C1299 C1298 1.358 . S
C1299 H1303 0.930 . S
C1300 C1298 1.356 . S
C1300 C1301 1.348 . S
C1301 C1296 1.353 . S
C1301 C1300 1.348 . S
C1301 H1353 0.929 . S
H1302 C1296 0.930 . S
H1303 C1299 0.930 . S
C1304 N1305 1.314 . S
C1304 C1306 1.353 . S
C1304 H1310 0.930 . S
N1305 Li1281 1.990 . S
N1305 C1304 1.314 . S
N1305 C1308 1.279 . S
C1306 C1304 1.353 . S
C1306 C1309 1.348 . S
C1306 H1354 0.929 . S
C1307 C1308 1.358 . S
C1307 C1309 1.356 . S
C1307 H1355 0.930 . S
C1308 N1305 1.279 . S
C1308 C1307 1.358 . S
C1308 H1311 0.930 . S
C1309 C1306 1.348 . S
C1309 C1307 1.356 . S
H1310 C1304 0.930 . S
H1311 C1308 0.930 . S
C1312 C1314 1.348 1_455 S
C1312 C1315 1.356 . S
C1312 O1342 1.325 . S
N1313 C1316 1.314 1_455 S
N1313 C1317 1.279 . S
C1314 C1312 1.348 1_655 S
C1314 C1316 1.353 . S
C1314 H1356 0.929 . S
C1315 C1312 1.356 . S
C1315 C1317 1.358 . S
C1315 H1357 0.930 . S
C1316 N1313 1.314 1_655 S
C1316 C1314 1.353 . S
C1316 H1358 0.930 . S
C1317 N1313 1.279 . S
C1317 C1315 1.358 . S
C1317 H1359 0.930 . S
C1318 C1319 1.348 . S
C1318 C1320 1.356 . S
C1318 O1343 1.325 . S
C1319 C1318 1.348 . S
C1319 C1321 1.353 . S
C1319 H1360 0.929 . S
C1320 C1318 1.356 . S
C1320 C1322 1.358 . S
C1320 H1361 0.930 . S
C1321 C1319 1.353 . S
C1321 N1323 1.314 . S
C1321 H1362 0.930 . S
C1322 C1320 1.358 . S
C1322 N1323 1.279 . S
C1322 H1363 0.930 . S
N1323 C1321 1.314 . S
N1323 C1322 1.279 . S
C1324 C1326 1.353 . S
C1324 N1327 1.314 . S
C1324 H1330 0.930 . S
C1325 N1327 1.279 . S
C1325 C1328 1.358 . S
C1325 H1331 0.930 . S
C1326 C1324 1.353 . S
C1326 C1329 1.348 . S
C1326 H1364 0.929 . S
N1327 Li1282 1.990 . S
N1327 C1324 1.314 . S
N1327 C1325 1.279 . S
C1328 C1325 1.358 . S
C1328 C1329 1.356 . S
C1328 H1365 0.930 . S
C1329 C1326 1.348 . S
C1329 C1328 1.356 . S
H1330 C1324 0.930 . S
H1331 C1325 0.930 . S
C1332 N1333 1.314 . S
C1332 C1334 1.353 . S
C1332 H1338 0.930 . S
N1333 Li1283 1.990 . S
N1333 C1332 1.314 . S
N1333 C1336 1.279 . S
C1334 C1332 1.353 . S
C1334 C1337 1.348 . S
C1334 H1366 0.929 . S
C1335 C1336 1.358 . S
C1335 C1337 1.356 . S
C1335 H1367 0.930 . S
C1336 N1333 1.279 . S
C1336 C1335 1.358 . S
C1336 H1339 0.930 . S
C1337 C1334 1.348 . S
C1337 C1335 1.356 . S
H1338 C1332 0.930 . S
H1339 C1336 0.930 . S
O1340 Li1280 1.956 . S
O1340 Li1281 1.970 1_455 S
O1340 Li1282 1.961 . S
O1340 C1284 1.325 . S
O1341 Li1280 1.970 1_655 S
O1341 Li1281 1.956 . S
O1341 Li1283 1.961 . S
O1341 C1290 1.325 . S
O1342 Li1280 1.961 . S
O1342 Li1282 1.956 . S
O1342 Li1283 1.970 1_455 S
O1342 C1312 1.325 . S
O1343 Li1281 1.961 . S
O1343 Li1282 1.970 1_655 S
O1343 Li1283 1.956 . S
O1343 C1318 1.325 . S
H1344 C1286 0.929 . S
H1345 C1287 0.930 . S
H1346 C1288 0.930 . S
H1347 C1289 0.930 . S
H1348 C1291 0.930 . S
H1349 C1293 0.929 . S
H1350 C1294 0.930 . S
H1351 C1295 0.930 . S
H1352 C1298 0.930 . S
H1353 C1301 0.929 . S
H1354 C1306 0.929 . S
H1355 C1307 0.930 . S
H1356 C1314 0.929 . S
H1357 C1315 0.930 . S
H1358 C1316 0.930 . S
H1359 C1317 0.930 . S
H1360 C1319 0.929 . S
H1361 C1320 0.930 . S
H1362 C1321 0.930 . S
H1363 C1322 0.930 . S
H1364 C1326 0.929 . S
H1365 C1328 0.930 . S
H1366 C1334 0.929 . S
H1367 C1335 0.930 . S
Li1368 N1385 1.990 . S
Li1368 O1428 1.956 . S
Li1368 O1429 1.970 . S
Li1368 O1430 1.961 . S
Li1369 N1393 1.990 . S
Li1369 O1428 1.970 . S
Li1369 O1429 1.956 . S
Li1369 O1431 1.961 . S
Li1370 N1415 1.990 . S
Li1370 O1428 1.961 . S
Li1370 O1430 1.956 . S
Li1370 O1431 1.970 . S
Li1371 N1421 1.990 . S
Li1371 O1429 1.961 . S
Li1371 O1430 1.970 . S
Li1371 O1431 1.956 . S
C1372 C1374 1.348 . S
C1372 C1375 1.356 . S
C1372 O1428 1.325 . S
N1373 C1376 1.314 . S
N1373 C1377 1.279 . S
C1374 C1372 1.348 . S
C1374 C1376 1.353 . S
C1374 H1432 0.929 . S
C1375 C1372 1.356 . S
C1375 C1377 1.358 . S
C1375 H1433 0.930 . S
C1376 N1373 1.314 . S
C1376 C1374 1.353 . S
C1376 H1434 0.930 . S
C1377 N1373 1.279 . S
C1377 C1375 1.358 . S
C1377 H1435 0.930 . S
C1378 C1381 1.348 . S
C1378 C1382 1.356 . S
C1378 O1429 1.325 . S
C1379 N1380 1.279 . S
C1379 C1382 1.358 . S
C1379 H1436 0.930 . S
N1380 C1379 1.279 . S
N1380 C1383 1.314 . S
C1381 C1378 1.348 . S
C1381 C1383 1.353 . S
C1381 H1437 0.929 . S
C1382 C1378 1.356 . S
C1382 C1379 1.358 . S
C1382 H1438 0.930 . S
C1383 N1380 1.314 . S
C1383 C1381 1.353 . S
C1383 H1439 0.930 . S
C1384 N1385 1.314 . S
C1384 C1389 1.353 . S
C1384 H1390 0.930 . S
N1385 Li1368 1.990 . S
N1385 C1384 1.314 . S
N1385 C1387 1.279 . S
C1386 C1387 1.358 . S
C1386 C1388 1.356 . S
C1386 H1440 0.930 . S
C1387 N1385 1.279 . S
C1387 C1386 1.358 . S
C1387 H1391 0.930 . S
C1388 C1386 1.356 . S
C1388 C1389 1.348 . S
C1389 C1384 1.353 . S
C1389 C1388 1.348 . S
C1389 H1441 0.929 . S
H1390 C1384 0.930 . S
H1391 C1387 0.930 . S
C1392 N1393 1.314 . S
C1392 C1394 1.353 . S
C1392 H1398 0.930 . S
N1393 Li1369 1.990 . S
N1393 C1392 1.314 . S
N1393 C1396 1.279 . S
C1394 C1392 1.353 . S
C1394 C1397 1.348 . S
C1394 H1442 0.929 . S
C1395 C1396 1.358 . S
C1395 C1397 1.356 . S
C1395 H1443 0.930 . S
C1396 N1393 1.279 . S
C1396 C1395 1.358 . S
C1396 H1399 0.930 . S
C1397 C1394 1.348 . S
C1397 C1395 1.356 . S
H1398 C1392 0.930 . S
H1399 C1396 0.930 . S
C1400 C1402 1.348 . S
C1400 C1403 1.356 . S
C1400 O1430 1.325 . S
N1401 C1404 1.314 . S
N1401 C1405 1.279 . S
C1402 C1400 1.348 . S
C1402 C1404 1.353 . S
C1402 H1444 0.929 . S
C1403 C1400 1.356 . S
C1403 C1405 1.358 . S
C1403 H1445 0.930 . S
C1404 N1401 1.314 . S
C1404 C1402 1.353 . S
C1404 H1446 0.930 . S
C1405 N1401 1.279 . S
C1405 C1403 1.358 . S
C1405 H1447 0.930 . S
C1406 C1407 1.348 . S
C1406 C1408 1.356 . S
C1406 O1431 1.325 . S
C1407 C1406 1.348 . S
C1407 C1409 1.353 . S
C1407 H1448 0.929 . S
C1408 C1406 1.356 . S
C1408 C1410 1.358 . S
C1408 H1449 0.930 . S
C1409 C1407 1.353 . S
C1409 N1411 1.314 . S
C1409 H1450 0.930 . S
C1410 C1408 1.358 . S
C1410 N1411 1.279 . S
C1410 H1451 0.930 . S
N1411 C1409 1.314 . S
N1411 C1410 1.279 . S
C1412 C1414 1.353 . S
C1412 N1415 1.314 . S
C1412 H1418 0.930 . S
C1413 N1415 1.279 . S
C1413 C1416 1.358 . S
C1413 H1419 0.930 . S
C1414 C1412 1.353 . S
C1414 C1417 1.348 . S
C1414 H1452 0.929 . S
N1415 Li1370 1.990 . S
N1415 C1412 1.314 . S
N1415 C1413 1.279 . S
C1416 C1413 1.358 . S
C1416 C1417 1.356 . S
C1416 H1453 0.930 . S
C1417 C1414 1.348 . S
C1417 C1416 1.356 . S
H1418 C1412 0.930 . S
H1419 C1413 0.930 . S
C1420 N1421 1.314 . S
C1420 C1422 1.353 . S
C1420 H1426 0.930 . S
N1421 Li1371 1.990 . S
N1421 C1420 1.314 . S
N1421 C1424 1.279 . S
C1422 C1420 1.353 . S
C1422 C1425 1.348 . S
C1422 H1454 0.929 . S
C1423 C1424 1.358 . S
C1423 C1425 1.356 . S
C1423 H1455 0.930 . S
C1424 N1421 1.279 . S
C1424 C1423 1.358 . S
C1424 H1427 0.930 . S
C1425 C1422 1.348 . S
C1425 C1423 1.356 . S
H1426 C1420 0.930 . S
H1427 C1424 0.930 . S
O1428 Li1368 1.956 . S
O1428 Li1369 1.970 . S
O1428 Li1370 1.961 . S
O1428 C1372 1.325 . S
O1429 Li1368 1.970 . S
O1429 Li1369 1.956 . S
O1429 Li1371 1.961 . S
O1429 C1378 1.325 . S
O1430 Li1368 1.961 . S
O1430 Li1370 1.956 . S
O1430 Li1371 1.970 . S
O1430 C1400 1.325 . S
O1431 Li1369 1.961 . S
O1431 Li1370 1.970 . S
O1431 Li1371 1.956 . S
O1431 C1406 1.325 . S
H1432 C1374 0.929 . S
H1433 C1375 0.930 . S
H1434 C1376 0.930 . S
H1435 C1377 0.930 . S
H1436 C1379 0.930 . S
H1437 C1381 0.929 . S
H1438 C1382 0.930 . S
H1439 C1383 0.930 . S
H1440 C1386 0.930 . S
H1441 C1389 0.929 . S
H1442 C1394 0.929 . S
H1443 C1395 0.930 . S
H1444 C1402 0.929 . S
H1445 C1403 0.930 . S
H1446 C1404 0.930 . S
H1447 C1405 0.930 . S
H1448 C1407 0.929 . S
H1449 C1408 0.930 . S
H1450 C1409 0.930 . S
H1451 C1410 0.930 . S
H1452 C1414 0.929 . S
H1453 C1416 0.930 . S
H1454 C1422 0.929 . S
H1455 C1423 0.930 . S
Li1456 N1473 1.990 . S
Li1456 O1516 1.956 . S
Li1456 O1517 1.970 1_455 S
Li1456 O1518 1.961 . S
Li1457 N1481 1.990 . S
Li1457 O1516 1.970 1_655 S
Li1457 O1517 1.956 . S
Li1457 O1519 1.961 . S
Li1458 N1503 1.990 . S
Li1458 O1516 1.961 . S
Li1458 O1518 1.956 . S
Li1458 O1519 1.970 1_455 S
Li1459 N1509 1.990 . S
Li1459 O1517 1.961 . S
Li1459 O1518 1.970 1_655 S
Li1459 O1519 1.956 . S
C1460 C1462 1.348 1_455 S
C1460 C1463 1.356 . S
C1460 O1516 1.325 . S
N1461 C1464 1.314 1_455 S
N1461 C1465 1.279 . S
C1462 C1460 1.348 1_655 S
C1462 C1464 1.353 . S
C1462 H1520 0.929 . S
C1463 C1460 1.356 . S
C1463 C1465 1.358 . S
C1463 H1521 0.930 . S
C1464 N1461 1.314 1_655 S
C1464 C1462 1.353 . S
C1464 H1522 0.930 . S
C1465 N1461 1.279 . S
C1465 C1463 1.358 . S
C1465 H1523 0.930 . S
C1466 C1469 1.348 . S
C1466 C1470 1.356 . S
C1466 O1517 1.325 . S
C1467 N1468 1.279 . S
C1467 C1470 1.358 . S
C1467 H1524 0.930 . S
N1468 C1467 1.279 . S
N1468 C1471 1.314 . S
C1469 C1466 1.348 . S
C1469 C1471 1.353 . S
C1469 H1525 0.929 . S
C1470 C1466 1.356 . S
C1470 C1467 1.358 . S
C1470 H1526 0.930 . S
C1471 N1468 1.314 . S
C1471 C1469 1.353 . S
C1471 H1527 0.930 . S
C1472 N1473 1.314 . S
C1472 C1477 1.353 . S
C1472 H1478 0.930 . S
N1473 Li1456 1.990 . S
N1473 C1472 1.314 . S
N1473 C1475 1.279 . S
C1474 C1475 1.358 . S
C1474 C1476 1.356 . S
C1474 H1528 0.930 . S
C1475 N1473 1.279 . S
C1475 C1474 1.358 . S
C1475 H1479 0.930 . S
C1476 C1474 1.356 . S
C1476 C1477 1.348 . S
C1477 C1472 1.353 . S
C1477 C1476 1.348 . S
C1477 H1529 0.929 . S
H1478 C1472 0.930 . S
H1479 C1475 0.930 . S
C1480 N1481 1.314 . S
C1480 C1482 1.353 . S
C1480 H1486 0.930 . S
N1481 Li1457 1.990 . S
N1481 C1480 1.314 . S
N1481 C1484 1.279 . S
C1482 C1480 1.353 . S
C1482 C1485 1.348 . S
C1482 H1530 0.929 . S
C1483 C1484 1.358 . S
C1483 C1485 1.356 . S
C1483 H1531 0.930 . S
C1484 N1481 1.279 . S
C1484 C1483 1.358 . S
C1484 H1487 0.930 . S
C1485 C1482 1.348 . S
C1485 C1483 1.356 . S
H1486 C1480 0.930 . S
H1487 C1484 0.930 . S
C1488 C1490 1.348 . S
C1488 C1491 1.356 . S
C1488 O1518 1.325 . S
N1489 C1492 1.314 . S
N1489 C1493 1.279 . S
C1490 C1488 1.348 . S
C1490 C1492 1.353 . S
C1490 H1532 0.929 . S
C1491 C1488 1.356 . S
C1491 C1493 1.358 . S
C1491 H1533 0.930 . S
C1492 N1489 1.314 . S
C1492 C1490 1.353 . S
C1492 H1534 0.930 . S
C1493 N1489 1.279 . S
C1493 C1491 1.358 . S
C1493 H1535 0.930 . S
C1494 C1495 1.348 1_655 S
C1494 C1496 1.356 . S
C1494 O1519 1.325 . S
C1495 C1494 1.348 1_455 S
C1495 C1497 1.353 . S
C1495 H1536 0.929 . S
C1496 C1494 1.356 . S
C1496 C1498 1.358 . S
C1496 H1537 0.930 . S
C1497 C1495 1.353 . S
C1497 N1499 1.314 1_455 S
C1497 H1538 0.930 . S
C1498 C1496 1.358 . S
C1498 N1499 1.279 . S
C1498 H1539 0.930 . S
N1499 C1497 1.314 1_655 S
N1499 C1498 1.279 . S
C1500 C1502 1.353 . S
C1500 N1503 1.314 . S
C1500 H1506 0.930 . S
C1501 N1503 1.279 . S
C1501 C1504 1.358 . S
C1501 H1507 0.930 . S
C1502 C1500 1.353 . S
C1502 C1505 1.348 . S
C1502 H1540 0.929 . S
N1503 Li1458 1.990 . S
N1503 C1500 1.314 . S
N1503 C1501 1.279 . S
C1504 C1501 1.358 . S
C1504 C1505 1.356 . S
C1504 H1541 0.930 . S
C1505 C1502 1.348 . S
C1505 C1504 1.356 . S
H1506 C1500 0.930 . S
H1507 C1501 0.930 . S
C1508 N1509 1.314 . S
C1508 C1510 1.353 . S
C1508 H1514 0.930 . S
N1509 Li1459 1.990 . S
N1509 C1508 1.314 . S
N1509 C1512 1.279 . S
C1510 C1508 1.353 . S
C1510 C1513 1.348 . S
C1510 H1542 0.929 . S
C1511 C1512 1.358 . S
C1511 C1513 1.356 . S
C1511 H1543 0.930 . S
C1512 N1509 1.279 . S
C1512 C1511 1.358 . S
C1512 H1515 0.930 . S
C1513 C1510 1.348 . S
C1513 C1511 1.356 . S
H1514 C1508 0.930 . S
H1515 C1512 0.930 . S
O1516 Li1456 1.956 . S
O1516 Li1457 1.970 1_455 S
O1516 Li1458 1.961 . S
O1516 C1460 1.325 . S
O1517 Li1456 1.970 1_655 S
O1517 Li1457 1.956 . S
O1517 Li1459 1.961 . S
O1517 C1466 1.325 . S
O1518 Li1456 1.961 . S
O1518 Li1458 1.956 . S
O1518 Li1459 1.970 1_455 S
O1518 C1488 1.325 . S
O1519 Li1457 1.961 . S
O1519 Li1458 1.970 1_655 S
O1519 Li1459 1.956 . S
O1519 C1494 1.325 . S
H1520 C1462 0.929 . S
H1521 C1463 0.930 . S
H1522 C1464 0.930 . S
H1523 C1465 0.930 . S
H1524 C1467 0.930 . S
H1525 C1469 0.929 . S
H1526 C1470 0.930 . S
H1527 C1471 0.930 . S
H1528 C1474 0.930 . S
H1529 C1477 0.929 . S
H1530 C1482 0.929 . S
H1531 C1483 0.930 . S
H1532 C1490 0.929 . S
H1533 C1491 0.930 . S
H1534 C1492 0.930 . S
H1535 C1493 0.930 . S
H1536 C1495 0.929 . S
H1537 C1496 0.930 . S
H1538 C1497 0.930 . S
H1539 C1498 0.930 . S
H1540 C1502 0.929 . S
H1541 C1504 0.930 . S
H1542 C1510 0.929 . S
H1543 C1511 0.930 . S
Li1544 N1561 1.990 . S
Li1544 O1604 1.956 . S
Li1544 O1605 1.970 . S
Li1544 O1606 1.961 . S
Li1545 N1569 1.990 . S
Li1545 O1604 1.970 . S
Li1545 O1605 1.956 . S
Li1545 O1607 1.961 . S
Li1546 N1591 1.990 . S
Li1546 O1604 1.961 . S
Li1546 O1606 1.956 . S
Li1546 O1607 1.970 . S
Li1547 N1597 1.990 . S
Li1547 O1605 1.961 . S
Li1547 O1606 1.970 . S
Li1547 O1607 1.956 . S
C1548 C1550 1.348 . S
C1548 C1551 1.356 . S
C1548 O1604 1.325 . S
N1549 C1552 1.314 . S
N1549 C1553 1.279 . S
C1550 C1548 1.348 . S
C1550 C1552 1.353 . S
C1550 H1608 0.929 . S
C1551 C1548 1.356 . S
C1551 C1553 1.358 . S
C1551 H1609 0.930 . S
C1552 N1549 1.314 . S
C1552 C1550 1.353 . S
C1552 H1610 0.930 . S
C1553 N1549 1.279 . S
C1553 C1551 1.358 . S
C1553 H1611 0.930 . S
C1554 C1557 1.348 . S
C1554 C1558 1.356 . S
C1554 O1605 1.325 . S
C1555 N1556 1.279 . S
C1555 C1558 1.358 . S
C1555 H1612 0.930 . S
N1556 C1555 1.279 . S
N1556 C1559 1.314 . S
C1557 C1554 1.348 . S
C1557 C1559 1.353 . S
C1557 H1613 0.929 . S
C1558 C1554 1.356 . S
C1558 C1555 1.358 . S
C1558 H1614 0.930 . S
C1559 N1556 1.314 . S
C1559 C1557 1.353 . S
C1559 H1615 0.930 . S
C1560 N1561 1.314 . S
C1560 C1565 1.353 . S
C1560 H1566 0.930 . S
N1561 Li1544 1.990 . S
N1561 C1560 1.314 . S
N1561 C1563 1.279 . S
C1562 C1563 1.358 . S
C1562 C1564 1.356 . S
C1562 H1616 0.930 . S
C1563 N1561 1.279 . S
C1563 C1562 1.358 . S
C1563 H1567 0.930 . S
C1564 C1562 1.356 . S
C1564 C1565 1.348 . S
C1565 C1560 1.353 . S
C1565 C1564 1.348 . S
C1565 H1617 0.929 . S
H1566 C1560 0.930 . S
H1567 C1563 0.930 . S
C1568 N1569 1.314 . S
C1568 C1570 1.353 . S
C1568 H1574 0.930 . S
N1569 Li1545 1.990 . S
N1569 C1568 1.314 . S
N1569 C1572 1.279 . S
C1570 C1568 1.353 . S
C1570 C1573 1.348 . S
C1570 H1618 0.929 . S
C1571 C1572 1.358 . S
C1571 C1573 1.356 . S
C1571 H1619 0.930 . S
C1572 N1569 1.279 . S
C1572 C1571 1.358 . S
C1572 H1575 0.930 . S
C1573 C1570 1.348 . S
C1573 C1571 1.356 . S
H1574 C1568 0.930 . S
H1575 C1572 0.930 . S
C1576 C1578 1.348 . S
C1576 C1579 1.356 . S
C1576 O1606 1.325 . S
N1577 C1580 1.314 . S
N1577 C1581 1.279 . S
C1578 C1576 1.348 . S
C1578 C1580 1.353 . S
C1578 H1620 0.929 . S
C1579 C1576 1.356 . S
C1579 C1581 1.358 . S
C1579 H1621 0.930 . S
C1580 N1577 1.314 . S
C1580 C1578 1.353 . S
C1580 H1622 0.930 . S
C1581 N1577 1.279 . S
C1581 C1579 1.358 . S
C1581 H1623 0.930 . S
C1582 C1583 1.348 . S
C1582 C1584 1.356 . S
C1582 O1607 1.325 . S
C1583 C1582 1.348 . S
C1583 C1585 1.353 . S
C1583 H1624 0.929 . S
C1584 C1582 1.356 . S
C1584 C1586 1.358 . S
C1584 H1625 0.930 . S
C1585 C1583 1.353 . S
C1585 N1587 1.314 . S
C1585 H1626 0.930 . S
C1586 C1584 1.358 . S
C1586 N1587 1.279 . S
C1586 H1627 0.930 . S
N1587 C1585 1.314 . S
N1587 C1586 1.279 . S
C1588 C1590 1.353 . S
C1588 N1591 1.314 . S
C1588 H1594 0.930 . S
C1589 N1591 1.279 . S
C1589 C1592 1.358 . S
C1589 H1595 0.930 . S
C1590 C1588 1.353 . S
C1590 C1593 1.348 . S
C1590 H1628 0.929 . S
N1591 Li1546 1.990 . S
N1591 C1588 1.314 . S
N1591 C1589 1.279 . S
C1592 C1589 1.358 . S
C1592 C1593 1.356 . S
C1592 H1629 0.930 . S
C1593 C1590 1.348 . S
C1593 C1592 1.356 . S
H1594 C1588 0.930 . S
H1595 C1589 0.930 . S
C1596 N1597 1.314 . S
C1596 C1598 1.353 . S
C1596 H1602 0.930 . S
N1597 Li1547 1.990 . S
N1597 C1596 1.314 . S
N1597 C1600 1.279 . S
C1598 C1596 1.353 . S
C1598 C1601 1.348 . S
C1598 H1630 0.929 . S
C1599 C1600 1.358 . S
C1599 C1601 1.356 . S
C1599 H1631 0.930 . S
C1600 N1597 1.279 . S
C1600 C1599 1.358 . S
C1600 H1603 0.930 . S
C1601 C1598 1.348 . S
C1601 C1599 1.356 . S
H1602 C1596 0.930 . S
H1603 C1600 0.930 . S
O1604 Li1544 1.956 . S
O1604 Li1545 1.970 . S
O1604 Li1546 1.961 . S
O1604 C1548 1.325 . S
O1605 Li1544 1.970 . S
O1605 Li1545 1.956 . S
O1605 Li1547 1.961 . S
O1605 C1554 1.325 . S
O1606 Li1544 1.961 . S
O1606 Li1546 1.956 . S
O1606 Li1547 1.970 . S
O1606 C1576 1.325 . S
O1607 Li1545 1.961 . S
O1607 Li1546 1.970 . S
O1607 Li1547 1.956 . S
O1607 C1582 1.325 . S
H1608 C1550 0.929 . S
H1609 C1551 0.930 . S
H1610 C1552 0.930 . S
H1611 C1553 0.930 . S
H1612 C1555 0.930 . S
H1613 C1557 0.929 . S
H1614 C1558 0.930 . S
H1615 C1559 0.930 . S
H1616 C1562 0.930 . S
H1617 C1565 0.929 . S
H1618 C1570 0.929 . S
H1619 C1571 0.930 . S
H1620 C1578 0.929 . S
H1621 C1579 0.930 . S
H1622 C1580 0.930 . S
H1623 C1581 0.930 . S
H1624 C1583 0.929 . S
H1625 C1584 0.930 . S
H1626 C1585 0.930 . S
H1627 C1586 0.930 . S
H1628 C1590 0.929 . S
H1629 C1592 0.930 . S
H1630 C1598 0.929 . S
H1631 C1599 0.930 . S
C1632 C1633 1.387 . S
C1632 H1636 0.950 . S
C1632 C1641 1.390 . S
C1633 C1632 1.387 . S
C1633 C1635 1.387 . S
H1634 C1641 0.950 . S
C1635 C1633 1.387 . S
C1635 C1637 1.390 . S
C1635 H1639 0.950 . S
H1636 C1632 0.950 . S
C1637 C1635 1.390 . S
C1637 C1638 1.387 . S
C1637 H1640 0.950 . S
C1638 C1637 1.387 . S
C1638 C1641 1.387 . S
H1639 C1635 0.950 . S
H1640 C1637 0.950 . S
C1641 C1632 1.390 . S
C1641 H1634 0.950 . S
C1641 C1638 1.387 . S
C1642 C1643 1.387 . S
C1642 H1646 0.950 . S
C1642 C1651 1.390 . S
C1643 C1642 1.387 . S
C1643 C1645 1.387 . S
H1644 C1651 0.950 . S
C1645 C1643 1.387 . S
C1645 C1647 1.390 . S
C1645 H1649 0.950 . S
H1646 C1642 0.950 . S
C1647 C1645 1.390 . S
C1647 C1648 1.387 . S
C1647 H1650 0.950 . S
C1648 C1647 1.387 . S
C1648 C1651 1.387 . S
H1649 C1645 0.950 . S
H1650 C1647 0.950 . S
C1651 C1642 1.390 . S
C1651 H1644 0.950 . S
C1651 C1648 1.387 . S
C1652 C1653 1.387 . S
C1652 H1656 0.950 . S
C1652 C1661 1.390 . S
C1653 C1652 1.387 . S
C1653 C1655 1.387 . S
H1654 C1661 0.950 . S
C1655 C1653 1.387 . S
C1655 C1657 1.390 . S
C1655 H1659 0.950 . S
H1656 C1652 0.950 . S
C1657 C1655 1.390 . S
C1657 C1658 1.387 . S
C1657 H1660 0.950 . S
C1658 C1657 1.387 . S
C1658 C1661 1.387 . S
H1659 C1655 0.950 . S
H1660 C1657 0.950 . S
C1661 C1652 1.390 . S
C1661 H1654 0.950 . S
C1661 C1658 1.387 . S
C1662 C1663 1.387 . S
C1662 H1666 0.950 . S
C1662 C1671 1.390 . S
C1663 C1662 1.387 . S
C1663 C1665 1.387 1_565 S
H1664 C1671 0.950 . S
C1665 C1663 1.387 1_545 S
C1665 C1667 1.390 . S
C1665 H1669 0.950 . S
H1666 C1662 0.950 . S
C1667 C1665 1.390 . S
C1667 C1668 1.387 1_545 S
C1667 H1670 0.950 . S
C1668 C1667 1.387 1_565 S
C1668 C1671 1.387 . S
H1669 C1665 0.950 . S
H1670 C1667 0.950 . S
C1671 C1662 1.390 . S
C1671 H1664 0.950 . S
C1671 C1668 1.387 . S
C1672 C1673 1.387 . S
C1672 H1676 0.950 . S
C1672 C1681 1.390 . S
C1673 C1672 1.387 . S
C1673 C1675 1.387 . S
H1674 C1681 0.950 . S
C1675 C1673 1.387 . S
C1675 C1677 1.390 . S
C1675 H1679 0.950 . S
H1676 C1672 0.950 . S
C1677 C1675 1.390 . S
C1677 C1678 1.387 . S
C1677 H1680 0.950 . S
C1678 C1677 1.387 . S
C1678 C1681 1.387 . S
H1679 C1675 0.950 . S
H1680 C1677 0.950 . S
C1681 C1672 1.390 . S
C1681 H1674 0.950 . S
C1681 C1678 1.387 . S
C1682 C1683 1.387 . S
C1682 H1686 0.950 . S
C1682 C1691 1.390 . S
C1683 C1682 1.387 . S
C1683 C1685 1.387 . S
H1684 C1691 0.950 . S
C1685 C1683 1.387 . S
C1685 C1687 1.390 . S
C1685 H1689 0.950 . S
H1686 C1682 0.950 . S
C1687 C1685 1.390 . S
C1687 C1688 1.387 . S
C1687 H1690 0.950 . S
C1688 C1687 1.387 . S
C1688 C1691 1.387 . S
H1689 C1685 0.950 . S
H1690 C1687 0.950 . S
C1691 C1682 1.390 . S
C1691 H1684 0.950 . S
C1691 C1688 1.387 . S
C1692 C1693 1.387 . S
C1692 H1696 0.950 . S
C1692 C1701 1.390 . S
C1693 C1692 1.387 . S
C1693 C1695 1.387 . S
H1694 C1701 0.950 . S
C1695 C1693 1.387 . S
C1695 C1697 1.390 . S
C1695 H1699 0.950 . S
H1696 C1692 0.950 . S
C1697 C1695 1.390 . S
C1697 C1698 1.387 . S
C1697 H1700 0.950 . S
C1698 C1697 1.387 . S
C1698 C1701 1.387 . S
H1699 C1695 0.950 . S
H1700 C1697 0.950 . S
C1701 C1692 1.390 . S
C1701 H1694 0.950 . S
C1701 C1698 1.387 . S
C1702 C1703 1.387 1_545 S
C1702 H1706 0.950 . S
C1702 C1711 1.390 . S
C1703 C1702 1.387 1_565 S
C1703 C1705 1.387 . S
H1704 C1711 0.950 . S
C1705 C1703 1.387 . S
C1705 C1707 1.390 . S
C1705 H1709 0.950 . S
H1706 C1702 0.950 . S
C1707 C1705 1.390 . S
C1707 C1708 1.387 . S
C1707 H1710 0.950 . S
C1708 C1707 1.387 . S
C1708 C1711 1.387 1_565 S
H1709 C1705 0.950 . S
H1710 C1707 0.950 . S
C1711 C1702 1.390 . S
C1711 H1704 0.950 . S
C1711 C1708 1.387 1_545 S
C1712 C1713 1.387 . S
C1712 H1716 0.950 . S
C1712 C1721 1.390 . S
C1713 C1712 1.387 . S
C1713 C1715 1.387 . S
H1714 C1721 0.950 . S
C1715 C1713 1.387 . S
C1715 C1717 1.390 . S
C1715 H1719 0.950 . S
H1716 C1712 0.950 . S
C1717 C1715 1.390 . S
C1717 C1718 1.387 . S
C1717 H1720 0.950 . S
C1718 C1717 1.387 . S
C1718 C1721 1.387 . S
H1719 C1715 0.950 . S
H1720 C1717 0.950 . S
C1721 C1712 1.390 . S
C1721 H1714 0.950 . S
C1721 C1718 1.387 . S
C1722 C1723 1.387 . S
C1722 H1726 0.950 . S
C1722 C1731 1.390 . S
C1723 C1722 1.387 . S
C1723 C1725 1.387 . S
H1724 C1731 0.950 . S
C1725 C1723 1.387 . S
C1725 C1727 1.390 . S
C1725 H1729 0.950 . S
H1726 C1722 0.950 . S
C1727 C1725 1.390 . S
C1727 C1728 1.387 . S
C1727 H1730 0.950 . S
C1728 C1727 1.387 . S
C1728 C1731 1.387 . S
H1729 C1725 0.950 . S
H1730 C1727 0.950 . S
C1731 C1722 1.390 . S
C1731 H1724 0.950 . S
C1731 C1728 1.387 . S
C1732 C1733 1.387 . S
C1732 H1736 0.950 . S
C1732 C1741 1.390 . S
C1733 C1732 1.387 . S
C1733 C1735 1.387 . S
H1734 C1741 0.950 . S
C1735 C1733 1.387 . S
C1735 C1737 1.390 . S
C1735 H1739 0.950 . S
H1736 C1732 0.950 . S
C1737 C1735 1.390 . S
C1737 C1738 1.387 . S
C1737 H1740 0.950 . S
C1738 C1737 1.387 . S
C1738 C1741 1.387 . S
H1739 C1735 0.950 . S
H1740 C1737 0.950 . S
C1741 C1732 1.390 . S
C1741 H1734 0.950 . S
C1741 C1738 1.387 . S
C1742 C1743 1.387 . S
C1742 H1746 0.950 . S
C1742 C1751 1.390 . S
C1743 C1742 1.387 . S
C1743 C1745 1.387 . S
H1744 C1751 0.950 . S
C1745 C1743 1.387 . S
C1745 C1747 1.390 . S
C1745 H1749 0.950 . S
H1746 C1742 0.950 . S
C1747 C1745 1.390 . S
C1747 C1748 1.387 . S
C1747 H1750 0.950 . S
C1748 C1747 1.387 . S
C1748 C1751 1.387 . S
H1749 C1745 0.950 . S
H1750 C1747 0.950 . S
C1751 C1742 1.390 . S
C1751 H1744 0.950 . S
C1751 C1748 1.387 . S
C1752 C1753 1.387 . S
C1752 H1756 0.950 . S
C1752 C1761 1.390 . S
C1753 C1752 1.387 . S
C1753 C1755 1.387 . S
H1754 C1761 0.950 . S
C1755 C1753 1.387 . S
C1755 C1757 1.390 . S
C1755 H1759 0.950 . S
H1756 C1752 0.950 . S
C1757 C1755 1.390 . S
C1757 C1758 1.387 . S
C1757 H1760 0.950 . S
C1758 C1757 1.387 . S
C1758 C1761 1.387 . S
H1759 C1755 0.950 . S
H1760 C1757 0.950 . S
C1761 C1752 1.390 . S
C1761 H1754 0.950 . S
C1761 C1758 1.387 . S
C1762 C1763 1.387 . S
C1762 H1766 0.950 . S
C1762 C1771 1.390 . S
C1763 C1762 1.387 . S
C1763 C1765 1.340 1_455 S
H1764 C1771 0.950 . S
C1765 C1763 1.340 1_655 S
C1765 C1767 1.395 . S
C1765 H1769 0.995 . S
H1766 C1762 0.950 . S
C1767 C1765 1.395 . S
C1767 C1768 1.387 1_655 S
C1767 H1770 0.950 . S
C1768 C1767 1.387 1_455 S
C1768 C1771 1.387 . S
H1769 C1765 0.995 . S
H1770 C1767 0.950 . S
C1771 C1762 1.390 . S
C1771 H1764 0.950 . S
C1771 C1768 1.387 . S
C1772 C1773 1.387 . S
C1772 H1776 0.950 . S
C1772 C1781 1.390 . S
C1773 C1772 1.387 . S
C1773 C1775 1.387 . S
H1774 C1781 0.950 . S
C1775 C1773 1.387 . S
C1775 C1777 1.390 . S
C1775 H1779 0.950 . S
H1776 C1772 0.950 . S
C1777 C1775 1.390 . S
C1777 C1778 1.387 . S
C1777 H1780 0.950 . S
C1778 C1777 1.387 . S
C1778 C1781 1.387 . S
H1779 C1775 0.950 . S
H1780 C1777 0.950 . S
C1781 C1772 1.390 . S
C1781 H1774 0.950 . S
C1781 C1778 1.387 . S
C1782 C1783 1.387 . S
C1782 H1786 0.950 . S
C1782 C1791 1.390 . S
C1783 C1782 1.387 . S
C1783 C1785 1.387 1_655 S
H1784 C1791 0.950 . S
C1785 C1783 1.387 1_455 S
C1785 C1787 1.390 . S
C1785 H1789 0.950 . S
H1786 C1782 0.950 . S
C1787 C1785 1.390 . S
C1787 C1788 1.387 1_455 S
C1787 H1790 0.950 . S
C1788 C1787 1.387 1_655 S
C1788 C1791 1.387 . S
H1789 C1785 0.950 . S
H1790 C1787 0.950 . S
C1791 C1782 1.390 . S
C1791 H1784 0.950 . S
C1791 C1788 1.387 . S
C1792 C1793 1.387 . S
C1792 H1796 0.950 . S
C1792 C1801 1.390 . S
C1793 C1792 1.387 . S
C1793 C1795 1.387 . S
H1794 C1801 0.950 . S
C1795 C1793 1.387 . S
C1795 C1797 1.390 . S
C1795 H1799 0.950 . S
H1796 C1792 0.950 . S
C1797 C1795 1.390 . S
C1797 C1798 1.387 . S
C1797 H1800 0.950 . S
C1798 C1797 1.387 . S
C1798 C1801 1.387 . S
H1799 C1795 0.950 . S
H1800 C1797 0.950 . S
C1801 C1792 1.390 . S
C1801 H1794 0.950 . S
C1801 C1798 1.387 . S
C1802 C1803 1.387 . S
C1802 H1806 0.950 . S
C1802 C1811 1.390 . S
C1803 C1802 1.387 . S
C1803 C1805 1.387 . S
H1804 C1811 0.950 . S
C1805 C1803 1.387 . S
C1805 C1807 1.390 . S
C1805 H1809 0.950 . S
H1806 C1802 0.950 . S
C1807 C1805 1.390 . S
C1807 C1808 1.387 . S
C1807 H1810 0.950 . S
C1808 C1807 1.387 . S
C1808 C1811 1.387 . S
H1809 C1805 0.950 . S
H1810 C1807 0.950 . S
C1811 C1802 1.390 . S
C1811 H1804 0.950 . S
C1811 C1808 1.387 . S
C1812 C1813 1.387 1_554 S
C1812 H1816 0.950 . S
C1812 C1821 1.390 . S
C1813 C1812 1.387 1_556 S
C1813 C1815 1.387 . S
H1814 C1821 0.950 . S
C1815 C1813 1.387 . S
C1815 C1817 1.390 . S
C1815 H1819 0.950 . S
H1816 C1812 0.950 . S
C1817 C1815 1.390 . S
C1817 C1818 1.387 . S
C1817 H1820 0.950 . S
C1818 C1817 1.387 . S
C1818 C1821 1.387 1_556 S
H1819 C1815 0.950 . S
H1820 C1817 0.950 . S
C1821 C1812 1.390 . S
C1821 H1814 0.950 . S
C1821 C1818 1.387 1_554 S
C1822 C1823 1.387 . S
C1822 H1826 0.950 . S
C1822 C1831 1.390 . S
C1823 C1822 1.387 . S
C1823 C1825 1.387 . S
H1824 C1831 0.950 . S
C1825 C1823 1.387 . S
C1825 C1827 1.390 . S
C1825 H1829 0.950 . S
H1826 C1822 0.950 . S
C1827 C1825 1.390 . S
C1827 C1828 1.387 . S
C1827 H1830 0.950 . S
C1828 C1827 1.387 . S
C1828 C1831 1.387 . S
H1829 C1825 0.950 . S
H1830 C1827 0.950 . S
C1831 C1822 1.390 . S
C1831 H1824 0.950 . S
C1831 C1828 1.387 . S
C1832 C1833 1.387 . S
C1832 H1836 0.950 . S
C1832 C1841 1.390 . S
C1833 C1832 1.387 . S
C1833 C1835 1.387 . S
H1834 C1841 0.950 . S
C1835 C1833 1.387 . S
C1835 C1837 1.390 . S
C1835 H1839 0.950 . S
H1836 C1832 0.950 . S
C1837 C1835 1.390 . S
C1837 C1838 1.387 . S
C1837 H1840 0.950 . S
C1838 C1837 1.387 . S
C1838 C1841 1.387 . S
H1839 C1835 0.950 . S
H1840 C1837 0.950 . S
C1841 C1832 1.390 . S
C1841 H1834 0.950 . S
C1841 C1838 1.387 . S
C1842 C1843 1.387 . S
C1842 H1846 0.950 . S
C1842 C1851 1.390 . S
C1843 C1842 1.387 . S
C1843 C1845 1.387 . S
H1844 C1851 0.950 . S
C1845 C1843 1.387 . S
C1845 C1847 1.390 . S
C1845 H1849 0.950 . S
H1846 C1842 0.950 . S
C1847 C1845 1.390 . S
C1847 C1848 1.387 . S
C1847 H1850 0.950 . S
C1848 C1847 1.387 . S
C1848 C1851 1.387 . S
H1849 C1845 0.950 . S
H1850 C1847 0.950 . S
C1851 C1842 1.390 . S
C1851 H1844 0.950 . S
C1851 C1848 1.387 . S
C1852 C1853 1.387 . S
C1852 H1856 0.950 . S
C1852 C1861 1.390 . S
C1853 C1852 1.387 . S
C1853 C1855 1.387 . S
H1854 C1861 0.950 . S
C1855 C1853 1.387 . S
C1855 C1857 1.390 . S
C1855 H1859 0.950 . S
H1856 C1852 0.950 . S
C1857 C1855 1.390 . S
C1857 C1858 1.387 . S
C1857 H1860 0.950 . S
C1858 C1857 1.387 . S
C1858 C1861 1.387 . S
H1859 C1855 0.950 . S
H1860 C1857 0.950 . S
C1861 C1852 1.390 . S
C1861 H1854 0.950 . S
C1861 C1858 1.387 . S
C1862 C1863 1.387 . S
C1862 H1866 0.950 . S
C1862 C1871 1.390 . S
C1863 C1862 1.387 . S
C1863 C1865 1.387 . S
H1864 C1871 0.950 . S
C1865 C1863 1.387 . S
C1865 C1867 1.390 . S
C1865 H1869 0.950 . S
H1866 C1862 0.950 . S
C1867 C1865 1.390 . S
C1867 C1868 1.387 . S
C1867 H1870 0.950 . S
C1868 C1867 1.387 . S
C1868 C1871 1.387 . S
H1869 C1865 0.950 . S
H1870 C1867 0.950 . S
C1871 C1862 1.390 . S
C1871 H1864 0.950 . S
C1871 C1868 1.387 . S
C1872 C1873 1.387 . S
C1872 H1876 0.950 . S
C1872 C1881 1.390 . S
C1873 C1872 1.387 . S
C1873 C1875 1.387 . S
H1874 C1881 0.950 . S
C1875 C1873 1.387 . S
C1875 C1877 1.390 . S
C1875 H1879 0.950 . S
H1876 C1872 0.950 . S
C1877 C1875 1.390 . S
C1877 C1878 1.387 . S
C1877 H1880 0.950 . S
C1878 C1877 1.387 . S
C1878 C1881 1.387 . S
H1879 C1875 0.950 . S
H1880 C1877 0.950 . S
C1881 C1872 1.390 . S
C1881 H1874 0.950 . S
C1881 C1878 1.387 . S
C1882 C1883 1.387 1_565 S
C1882 H1886 0.950 . S
C1882 C1891 1.390 . S
C1883 C1882 1.387 1_545 S
C1883 C1885 1.387 . S
H1884 C1891 0.950 . S
C1885 C1883 1.387 . S
C1885 C1887 1.390 . S
C1885 H1889 0.950 . S
H1886 C1882 0.950 . S
C1887 C1885 1.390 . S
C1887 C1888 1.387 . S
C1887 H1890 0.950 . S
C1888 C1887 1.387 . S
C1888 C1891 1.387 1_545 S
H1889 C1885 0.950 . S
H1890 C1887 0.950 . S
C1891 C1882 1.390 . S
C1891 H1884 0.950 . S
C1891 C1888 1.387 1_565 S
C1892 C1893 1.387 . S
C1892 H1896 0.950 . S
C1892 C1901 1.390 . S
C1893 C1892 1.387 . S
C1893 C1895 1.387 . S
H1894 C1901 0.950 . S
C1895 C1893 1.387 . S
C1895 C1897 1.390 . S
C1895 H1899 0.950 . S
H1896 C1892 0.950 . S
C1897 C1895 1.390 . S
C1897 C1898 1.387 . S
C1897 H1900 0.950 . S
C1898 C1897 1.387 . S
C1898 C1901 1.387 . S
H1899 C1895 0.950 . S
H1900 C1897 0.950 . S
C1901 C1892 1.390 . S
C1901 H1894 0.950 . S
C1901 C1898 1.387 . S
C1902 C1903 1.387 . S
C1902 H1906 0.950 . S
C1902 C1911 1.390 . S
C1903 C1902 1.387 . S
C1903 C1905 1.387 . S
H1904 C1911 0.950 . S
C1905 C1903 1.387 . S
C1905 C1907 1.390 . S
C1905 H1909 0.950 . S
H1906 C1902 0.950 . S
C1907 C1905 1.390 . S
C1907 C1908 1.387 . S
C1907 H1910 0.950 . S
C1908 C1907 1.387 . S
C1908 C1911 1.387 . S
H1909 C1905 0.950 . S
H1910 C1907 0.950 . S
C1911 C1902 1.390 . S
C1911 H1904 0.950 . S
C1911 C1908 1.387 . S
C1912 C1913 1.387 . S
C1912 H1916 0.950 . S
C1912 C1921 1.390 . S
C1913 C1912 1.387 . S
C1913 C1915 1.387 . S
H1914 C1921 0.950 . S
C1915 C1913 1.387 . S
C1915 C1917 1.390 . S
C1915 H1919 0.950 . S
H1916 C1912 0.950 . S
C1917 C1915 1.390 . S
C1917 C1918 1.387 . S
C1917 H1920 0.950 . S
C1918 C1917 1.387 . S
C1918 C1921 1.387 . S
H1919 C1915 0.950 . S
H1920 C1917 0.950 . S
C1921 C1912 1.390 . S
C1921 H1914 0.950 . S
C1921 C1918 1.387 . S
C1922 C1923 1.387 1_565 S
C1922 H1926 0.950 . S
C1922 C1931 1.390 . S
C1923 C1922 1.387 1_545 S
C1923 C1925 1.387 . S
H1924 C1931 0.950 . S
C1925 C1923 1.387 . S
C1925 C1927 1.390 . S
C1925 H1929 0.950 . S
H1926 C1922 0.950 . S
C1927 C1925 1.390 . S
C1927 C1928 1.387 . S
C1927 H1930 0.950 . S
C1928 C1927 1.387 . S
C1928 C1931 1.387 1_545 S
H1929 C1925 0.950 . S
H1930 C1927 0.950 . S
C1931 C1922 1.390 . S
C1931 H1924 0.950 . S
C1931 C1928 1.387 1_565 S
C1932 C1933 1.387 . S
C1932 H1936 0.950 . S
C1932 C1941 1.390 . S
C1933 C1932 1.387 . S
C1933 C1935 1.387 . S
H1934 C1941 0.950 . S
C1935 C1933 1.387 . S
C1935 C1937 1.390 . S
C1935 H1939 0.950 . S
H1936 C1932 0.950 . S
C1937 C1935 1.390 . S
C1937 C1938 1.387 . S
C1937 H1940 0.950 . S
C1938 C1937 1.387 . S
C1938 C1941 1.387 . S
H1939 C1935 0.950 . S
H1940 C1937 0.950 . S
C1941 C1932 1.390 . S
C1941 H1934 0.950 . S
C1941 C1938 1.387 . S
C1942 C1943 1.387 . S
C1942 H1946 0.950 . S
C1942 C1951 1.390 . S
C1943 C1942 1.387 . S
C1943 C1945 1.387 . S
H1944 C1951 0.950 . S
C1945 C1943 1.387 . S
C1945 C1947 1.390 . S
C1945 H1949 0.950 . S
H1946 C1942 0.950 . S
C1947 C1945 1.390 . S
C1947 C1948 1.387 . S
C1947 H1950 0.950 . S
C1948 C1947 1.387 . S
C1948 C1951 1.387 . S
H1949 C1945 0.950 . S
H1950 C1947 0.950 . S
C1951 C1942 1.390 . S
C1951 H1944 0.950 . S
C1951 C1948 1.387 . S
C1952 C1953 1.387 . S
C1952 H1956 0.950 . S
C1952 C1961 1.390 . S
C1953 C1952 1.387 . S
C1953 C1955 1.387 . S
H1954 C1961 0.950 . S
C1955 C1953 1.387 . S
C1955 C1957 1.390 . S
C1955 H1959 0.950 . S
H1956 C1952 0.950 . S
C1957 C1955 1.390 . S
C1957 C1958 1.387 . S
C1957 H1960 0.950 . S
C1958 C1957 1.387 . S
C1958 C1961 1.387 . S
H1959 C1955 0.950 . S
H1960 C1957 0.950 . S
C1961 C1952 1.390 . S
C1961 H1954 0.950 . S
C1961 C1958 1.387 . S
C1962 C1963 1.387 . S
C1962 H1966 0.950 . S
C1962 C1971 1.390 . S
C1963 C1962 1.387 . S
C1963 C1965 1.387 . S
H1964 C1971 0.950 . S
C1965 C1963 1.387 . S
C1965 C1967 1.390 . S
C1965 H1969 0.950 1_655 S
H1966 C1962 0.950 . S
C1967 C1965 1.390 . S
C1967 C1968 1.389 . S
C1967 H1970 0.948 1_655 S
C1968 C1967 1.389 . S
C1968 C1971 1.387 . S
H1969 C1965 0.950 1_455 S
H1970 C1967 0.948 1_455 S
C1971 C1962 1.390 . S
C1971 H1964 0.950 . S
C1971 C1968 1.387 . S
C1972 C1973 1.387 . S
C1972 H1976 0.950 . S
C1972 C1981 1.390 . S
C1973 C1972 1.387 . S
C1973 C1975 1.387 . S
H1974 C1981 0.950 . S
C1975 C1973 1.387 . S
C1975 C1977 1.390 . S
C1975 H1979 0.950 . S
H1976 C1972 0.950 . S
C1977 C1975 1.390 . S
C1977 C1978 1.387 . S
C1977 H1980 0.950 . S
C1978 C1977 1.387 . S
C1978 C1981 1.387 . S
H1979 C1975 0.950 . S
H1980 C1977 0.950 . S
C1981 C1972 1.390 . S
C1981 H1974 0.950 . S
C1981 C1978 1.387 . S
C1982 C1983 1.387 . S
C1982 H1986 0.950 1_455 S
C1982 C1991 1.390 . S
C1983 C1982 1.387 . S
C1983 C1985 1.387 . S
H1984 C1991 0.950 1_655 S
C1985 C1983 1.387 . S
C1985 C1987 1.390 . S
C1985 H1989 0.950 . S
H1986 C1982 0.950 1_655 S
C1987 C1985 1.390 . S
C1987 C1988 1.387 . S
C1987 H1990 0.950 . S
C1988 C1987 1.387 . S
C1988 C1991 1.387 . S
H1989 C1985 0.950 . S
H1990 C1987 0.950 . S
C1991 C1982 1.390 . S
C1991 H1984 0.950 1_455 S
C1991 C1988 1.387 . S
C1992 C1993 1.387 . S
C1992 H1996 0.950 . S
C1992 C2001 1.390 . S
C1993 C1992 1.387 . S
C1993 C1995 1.387 . S
H1994 C2001 0.950 . S
C1995 C1993 1.387 . S
C1995 C1997 1.390 . S
C1995 H1999 0.950 . S
H1996 C1992 0.950 . S
C1997 C1995 1.390 . S
C1997 C1998 1.387 . S
C1997 H2000 0.950 . S
C1998 C1997 1.387 . S
C1998 C2001 1.387 . S
H1999 C1995 0.950 . S
H2000 C1997 0.950 . S
C2001 C1992 1.390 . S
C2001 H1994 0.950 . S
C2001 C1998 1.387 . S
C2002 C2003 1.387 . S
C2002 H2006 0.950 . S
C2002 C2011 1.390 . S
C2003 C2002 1.387 . S
C2003 C2005 1.387 . S
H2004 C2011 0.950 . S
C2005 C2003 1.387 . S
C2005 C2007 1.390 . S
C2005 H2009 0.950 . S
H2006 C2002 0.950 . S
C2007 C2005 1.390 . S
C2007 C2008 1.387 . S
C2007 H2010 0.950 . S
C2008 C2007 1.387 . S
C2008 C2011 1.387 . S
H2009 C2005 0.950 . S
H2010 C2007 0.950 . S
C2011 C2002 1.390 . S
C2011 H2004 0.950 . S
C2011 C2008 1.387 . S
C2012 C2013 1.387 . S
C2012 H2016 0.950 . S
C2012 C2021 1.390 . S
C2013 C2012 1.387 . S
C2013 C2015 1.387 . S
H2014 C2021 0.950 . S
C2015 C2013 1.387 . S
C2015 C2017 1.390 . S
C2015 H2019 0.950 . S
H2016 C2012 0.950 . S
C2017 C2015 1.390 . S
C2017 C2018 1.387 . S
C2017 H2020 0.950 . S
C2018 C2017 1.387 . S
C2018 C2021 1.387 . S
H2019 C2015 0.950 . S
H2020 C2017 0.950 . S
C2021 C2012 1.390 . S
C2021 H2014 0.950 . S
C2021 C2018 1.387 . S
C2022 C2023 1.387 . S
C2022 H2026 0.950 . S
C2022 C2031 1.390 . S
C2023 C2022 1.387 . S
C2023 C2025 1.387 . S
H2024 C2031 0.950 . S
C2025 C2023 1.387 . S
C2025 C2027 1.390 . S
C2025 H2029 0.950 . S
H2026 C2022 0.950 . S
C2027 C2025 1.390 . S
C2027 C2028 1.387 . S
C2027 H2030 0.950 . S
C2028 C2027 1.387 . S
C2028 C2031 1.387 . S
H2029 C2025 0.950 . S
H2030 C2027 0.950 . S
C2031 C2022 1.390 . S
C2031 H2024 0.950 . S
C2031 C2028 1.387 . S
C2032 C2033 1.387 . S
C2032 H2036 0.950 . S
C2032 C2041 1.390 . S
C2033 C2032 1.387 . S
C2033 C2035 1.387 . S
H2034 C2041 0.950 . S
C2035 C2033 1.387 . S
C2035 C2037 1.390 . S
C2035 H2039 0.950 . S
H2036 C2032 0.950 . S
C2037 C2035 1.390 . S
C2037 C2038 1.387 . S
C2037 H2040 0.950 . S
C2038 C2037 1.387 . S
C2038 C2041 1.387 . S
H2039 C2035 0.950 . S
H2040 C2037 0.950 . S
C2041 C2032 1.390 . S
C2041 H2034 0.950 . S
C2041 C2038 1.387 . S
C2042 C2043 1.387 . S
C2042 H2046 0.950 . S
C2042 C2051 1.390 . S
C2043 C2042 1.387 . S
C2043 C2045 1.387 . S
H2044 C2051 0.950 . S
C2045 C2043 1.387 . S
C2045 C2047 1.390 . S
C2045 H2049 0.950 . S
H2046 C2042 0.950 . S
C2047 C2045 1.390 . S
C2047 C2048 1.387 . S
C2047 H2050 0.950 . S
C2048 C2047 1.387 . S
C2048 C2051 1.387 . S
H2049 C2045 0.950 . S
H2050 C2047 0.950 . S
C2051 C2042 1.390 . S
C2051 H2044 0.950 . S
C2051 C2048 1.387 . S
C2052 C2053 1.387 . S
C2052 H2056 0.950 . S
C2052 C2061 1.390 . S
C2053 C2052 1.387 . S
C2053 C2055 1.387 . S
H2054 C2061 0.950 . S
C2055 C2053 1.387 . S
C2055 C2057 1.390 . S
C2055 H2059 0.950 . S
H2056 C2052 0.950 . S
C2057 C2055 1.390 . S
C2057 C2058 1.387 . S
C2057 H2060 0.950 . S
C2058 C2057 1.387 . S
C2058 C2061 1.387 . S
H2059 C2055 0.950 . S
H2060 C2057 0.950 . S
C2061 C2052 1.390 . S
C2061 H2054 0.950 . S
C2061 C2058 1.387 . S
C2062 C2063 1.387 . S
C2062 H2066 0.950 . S
C2062 C2071 1.390 . S
C2063 C2062 1.387 . S
C2063 C2065 1.387 . S
H2064 C2071 0.950 . S
C2065 C2063 1.387 . S
C2065 C2067 1.390 . S
C2065 H2069 0.950 . S
H2066 C2062 0.950 . S
C2067 C2065 1.390 . S
C2067 C2068 1.387 . S
C2067 H2070 0.950 . S
C2068 C2067 1.387 . S
C2068 C2071 1.387 . S
H2069 C2065 0.950 . S
H2070 C2067 0.950 . S
C2071 C2062 1.390 . S
C2071 H2064 0.950 . S
C2071 C2068 1.387 . S
C2072 C2073 1.387 . S
C2072 H2076 0.950 . S
C2072 C2081 1.390 . S
C2073 C2072 1.387 . S
C2073 C2075 1.387 1_556 S
H2074 C2081 0.950 . S
C2075 C2073 1.387 1_554 S
C2075 C2077 1.390 . S
C2075 H2079 0.950 . S
H2076 C2072 0.950 . S
C2077 C2075 1.390 . S
C2077 C2078 1.387 1_554 S
C2077 H2080 0.950 . S
C2078 C2077 1.387 1_556 S
C2078 C2081 1.387 . S
H2079 C2075 0.950 . S
H2080 C2077 0.950 . S
C2081 C2072 1.390 . S
C2081 H2074 0.950 . S
C2081 C2078 1.387 . S
C2082 C2083 1.387 . S
C2082 H2086 0.950 . S
C2082 C2091 1.390 . S
C2083 C2082 1.387 . S
C2083 C2085 1.387 . S
H2084 C2091 0.950 . S
C2085 C2083 1.387 . S
C2085 C2087 1.390 . S
C2085 H2089 0.950 . S
H2086 C2082 0.950 . S
C2087 C2085 1.390 . S
C2087 C2088 1.387 . S
C2087 H2090 0.950 . S
C2088 C2087 1.387 . S
C2088 C2091 1.387 . S
H2089 C2085 0.950 . S
H2090 C2087 0.950 . S
C2091 C2082 1.390 . S
C2091 H2084 0.950 . S
C2091 C2088 1.387 . S
C2092 C2093 1.387 . S
C2092 H2096 0.950 . S
C2092 C2101 1.390 . S
C2093 C2092 1.387 . S
C2093 C2095 1.387 1_554 S
H2094 C2101 0.950 . S
C2095 C2093 1.387 1_556 S
C2095 C2097 1.390 . S
C2095 H2099 0.950 . S
H2096 C2092 0.950 . S
C2097 C2095 1.390 . S
C2097 C2098 1.387 1_556 S
C2097 H2100 0.950 . S
C2098 C2097 1.387 1_554 S
C2098 C2101 1.387 . S
H2099 C2095 0.950 . S
H2100 C2097 0.950 . S
C2101 C2092 1.390 . S
C2101 H2094 0.950 . S
C2101 C2098 1.387 . S
C2102 C2103 1.387 1_556 S
C2102 H2106 0.950 . S
C2102 C2111 1.390 . S
C2103 C2102 1.387 1_554 S
C2103 C2105 1.387 . S
H2104 C2111 0.950 . S
C2105 C2103 1.387 . S
C2105 C2107 1.390 . S
C2105 H2109 0.950 . S
H2106 C2102 0.950 . S
C2107 C2105 1.390 . S
C2107 C2108 1.387 . S
C2107 H2110 0.950 . S
C2108 C2107 1.387 . S
C2108 C2111 1.387 1_554 S
H2109 C2105 0.950 . S
H2110 C2107 0.950 . S
C2111 C2102 1.390 . S
C2111 H2104 0.950 . S
C2111 C2108 1.387 1_556 S
C1638 C625 1.503 . S
C1633 C181 1.492 . S
C1648 C684 1.521 . S
C1643 C247 1.522 . S
C1653 C283 1.507 . S
C1658 C801 1.522 . S
C1668 C869 1.521 . S
C1663 C169 1.505 . S
C1678 C948 1.514 . S
C1673 C361 1.503 . S
C1688 C1073 1.521 . S
C1683 C433 1.509 . S
C1693 C421 1.497 . S
C1698 C1133 1.510 . S
C1708 C1241 1.533 . S
C1703 C355 1.534 . S
C1713 C427 1.511 . S
C1718 C1337 1.524 . S
C1728 C1397 1.523 . S
C1723 C325 1.524 . S
C1733 C385 1.497 . S
C1738 C1300 1.510 . S
C1748 C1417 1.527 . S
C1743 C463 1.512 . S
C1753 C253 1.511 . S
C1758 C1485 1.522 . S
C1763 C145 1.512 . S
C1768 C1476 1.525 . S
C1773 C205 1.482 . S
C1778 C1505 1.496 . S
C1783 C217 1.514 . S
C1788 C1513 1.514 . S
C1793 C139 1.507 . S
C1798 C897 1.520 . S
C1803 C535 1.498 . S
C1808 C860 1.511 . S
C1818 C596 1.505 . S
C1813 C565 1.506 . S
C1828 C693 1.511 . S
C1823 C313 1.497 . S
C1833 C175 1.521 . S
C1838 C957 1.535 . S
C1848 C1249 1.509 . S
C1843 C397 1.496 . S
C1858 C977 1.521 . S
C1853 C349 1.522 . S
C1868 C1161 1.530 . S
C1863 C457 1.515 . S
C1878 C1153 1.503 . S
C1873 C505 1.493 . S
C1883 C571 1.522 . S
C1888 C1221 1.520 . S
C1893 C319 1.506 . S
C1898 C985 1.519 . S
C1908 C1036 1.521 . S
C1903 C493 1.506 . S
C1913 C109 1.503 . S
C1918 C781 1.510 . S
C1928 C889 1.522 . S
C1923 C1 1.510 . S
C1938 C605 1.509 . S
C1933 C61 1.495 . S
C1948 C721 1.533 . S
C1943 C103 1.534 . S
C1953 C67 1.510 . S
C1958 C1425 1.524 . S
C1963 C73 1.525 . S
C1968 C1309 1.524 . S
C1973 C133 1.498 . S
C1978 C1388 1.511 . S
C1983 C31 1.512 . S
C1988 C1329 1.526 . S
C1998 C1573 1.522 . S
C1993 C289 1.512 . S
C2008 C1564 1.525 . S
C2003 C469 1.513 . S
C2018 C1593 1.496 . S
C2013 C529 1.482 . S
C2023 C541 1.514 . S
C2028 C1601 1.514 . S
C2033 C391 1.508 . S
C2038 C1065 1.521 . S
C2048 C1045 1.512 . S
C2043 C211 1.500 . S
C2058 C1124 1.504 . S
C2053 C241 1.506 . S
C2068 C1212 1.511 . S
C2063 C277 1.500 . S
C2073 C499 1.519 . S
C2078 C772 1.535 . S
C2088 C713 1.508 . S
C2083 C37 1.498 . S
C2093 C97 1.522 . S
C2098 C809 1.520 . S
C2108 C633 1.530 . S
C2103 C25 1.515 . S
