# Generated by pormake.
# Topology pyr, (3,6)-cn, num edge types: 1
# Building blocks:
#     Node 0, Type 0, BuildingBlock: KAKCAD_clean_linker_0, # of connection points: 3
#     Node 1, Type 0, BuildingBlock: KAKCAD_clean_linker_0, # of connection points: 3
#     Node 2, Type 0, BuildingBlock: KAKCAD_clean_linker_0, # of connection points: 3
#     Node 3, Type 0, BuildingBlock: KAKCAD_clean_linker_0, # of connection points: 3
#     Node 4, Type 0, BuildingBlock: KAKCAD_clean_linker_0, # of connection points: 3
#     Node 5, Type 0, BuildingBlock: KAKCAD_clean_linker_0, # of connection points: 3
#     Node 6, Type 0, BuildingBlock: KAKCAD_clean_linker_0, # of connection points: 3
#     Node 7, Type 0, BuildingBlock: KAKCAD_clean_linker_0, # of connection points: 3
#     Node 8, Type 1, BuildingBlock: BETFAJ_clean_sbu_0, # of connection points: 6
#     Node 9, Type 1, BuildingBlock: BETFAJ_clean_sbu_0, # of connection points: 6
#     Node 10, Type 1, BuildingBlock: BETFAJ_clean_sbu_0, # of connection points: 6
#     Node 11, Type 1, BuildingBlock: BETFAJ_clean_sbu_0, # of connection points: 6
#     Edge 12, Type (0, 1), BuildingBlock: UVAHIK_clean_linker_0, # of connection points: 2
#     Edge 13, Type (0, 1), BuildingBlock: UVAHIK_clean_linker_0, # of connection points: 2
#     Edge 14, Type (0, 1), BuildingBlock: UVAHIK_clean_linker_0, # of connection points: 2
#     Edge 15, Type (0, 1), BuildingBlock: UVAHIK_clean_linker_0, # of connection points: 2
#     Edge 16, Type (0, 1), BuildingBlock: UVAHIK_clean_linker_0, # of connection points: 2
#     Edge 17, Type (0, 1), BuildingBlock: UVAHIK_clean_linker_0, # of connection points: 2
#     Edge 18, Type (0, 1), BuildingBlock: UVAHIK_clean_linker_0, # of connection points: 2
#     Edge 19, Type (0, 1), BuildingBlock: UVAHIK_clean_linker_0, # of connection points: 2
#     Edge 20, Type (0, 1), BuildingBlock: UVAHIK_clean_linker_0, # of connection points: 2
#     Edge 21, Type (0, 1), BuildingBlock: UVAHIK_clean_linker_0, # of connection points: 2
#     Edge 22, Type (0, 1), BuildingBlock: UVAHIK_clean_linker_0, # of connection points: 2
#     Edge 23, Type (0, 1), BuildingBlock: UVAHIK_clean_linker_0, # of connection points: 2
#     Edge 24, Type (0, 1), BuildingBlock: UVAHIK_clean_linker_0, # of connection points: 2
#     Edge 25, Type (0, 1), BuildingBlock: UVAHIK_clean_linker_0, # of connection points: 2
#     Edge 26, Type (0, 1), BuildingBlock: UVAHIK_clean_linker_0, # of connection points: 2
#     Edge 27, Type (0, 1), BuildingBlock: UVAHIK_clean_linker_0, # of connection points: 2
#     Edge 28, Type (0, 1), BuildingBlock: UVAHIK_clean_linker_0, # of connection points: 2
#     Edge 29, Type (0, 1), BuildingBlock: UVAHIK_clean_linker_0, # of connection points: 2
#     Edge 30, Type (0, 1), BuildingBlock: UVAHIK_clean_linker_0, # of connection points: 2
#     Edge 31, Type (0, 1), BuildingBlock: UVAHIK_clean_linker_0, # of connection points: 2
#     Edge 32, Type (0, 1), BuildingBlock: UVAHIK_clean_linker_0, # of connection points: 2
#     Edge 33, Type (0, 1), BuildingBlock: UVAHIK_clean_linker_0, # of connection points: 2
#     Edge 34, Type (0, 1), BuildingBlock: UVAHIK_clean_linker_0, # of connection points: 2
#     Edge 35, Type (0, 1), BuildingBlock: UVAHIK_clean_linker_0, # of connection points: 2
# Relax obj value: 0.071
# Max RMSD: 0.114
# Mean RMSD: 0.053
data_MOF--net-pyr--node1-BETFAJ_clean_sbu_0--node2-KAKCAD_clean_linker_0--edge1-UVAHIK_clean_linker_0
_symmetry_space_group_name_H-M    P1
_symmetry_Int_Tables_number       1
_symmetry_cell_setting            triclinic
loop_
_symmetry_equiv_pos_as_xyz
'x, y, z'
_cell_length_a     57.834239
_cell_length_b     61.393841
_cell_length_c     56.222265
_cell_angle_alpha  91.761794
_cell_angle_beta   88.650228
_cell_angle_gamma 97.851716
loop_
_atom_site_label
_atom_site_type_symbol
_atom_site_fract_x
_atom_site_fract_y
_atom_site_fract_z
_atom_type_partial_charge
C0 C 0.2629 0.24502 0.29591 0.0
C1 C 0.27392 0.23339 0.3123 0.0
C2 C 0.27541 0.25485 0.27672 0.0
C3 C 0.29949 0.25375 0.27363 0.0
C4 C 0.31069 0.2425 0.29047 0.0
C5 C 0.29794 0.23222 0.30955 0.0
C6 C 0.31204 0.26337 0.25207 0.0
C7 C 0.30535 0.28232 0.24264 0.0
C8 C 0.31166 0.28868 0.21937 0.0
C9 C 0.3285 0.27773 0.20682 0.0
C10 C 0.33746 0.25964 0.21692 0.0
C11 C 0.3283 0.25234 0.23929 0.0
C12 C 0.3547 0.24685 0.20388 0.0
C13 C 0.35508 0.24436 0.17886 0.0
C14 C 0.37002 0.2356 0.21661 0.0
C15 C 0.38386 0.2213 0.20499 0.0
C16 C 0.38341 0.2181 0.18013 0.0
C17 C 0.29829 0.30508 0.20829 0.0
C18 C 0.27431 0.30465 0.21402 0.0
C19 C 0.30867 0.32129 0.19271 0.0
C20 C 0.29545 0.33677 0.18357 0.0
C21 C 0.27168 0.33653 0.19006 0.0
C22 C 0.2614 0.32023 0.20538 0.0
C23 C 0.36931 0.23034 0.16719 0.0
H24 H 0.24428 0.24569 0.29736 0.0
H25 H 0.26589 0.26266 0.26381 0.0
H26 H 0.32919 0.24143 0.28878 0.0
H27 H 0.30673 0.22319 0.322 0.0
H28 H 0.29377 0.29149 0.25308 0.0
H29 H 0.33279 0.23726 0.24625 0.0
H30 H 0.33405 0.28292 0.18913 0.0
H31 H 0.34366 0.25247 0.16821 0.0
H32 H 0.37114 0.23753 0.23577 0.0
H33 H 0.39488 0.21261 0.21556 0.0
H34 H 0.26523 0.29204 0.2252 0.0
H35 H 0.327 0.32225 0.18788 0.0
H36 H 0.36845 0.22834 0.14802 0.0
H37 H 0.24306 0.31916 0.21029 0.0
H38 H 0.30389 0.34911 0.1717 0.0
C39 C 0.31107 0.90503 0.69264 0.0
C40 C 0.33533 0.90602 0.69393 0.0
C41 C 0.29967 0.89562 0.67252 0.0
C42 C 0.31258 0.88728 0.65372 0.0
C43 C 0.33701 0.88994 0.65438 0.0
C44 C 0.34833 0.89921 0.67445 0.0
C45 C 0.30067 0.87468 0.63401 0.0
C46 C 0.28308 0.88303 0.62209 0.0
C47 C 0.2727 0.87149 0.60239 0.0
C48 C 0.27959 0.85145 0.59496 0.0
C49 C 0.29733 0.84314 0.60668 0.0
C50 C 0.30762 0.8546 0.62644 0.0
C51 C 0.30695 0.82411 0.59628 0.0
C52 C 0.29207 0.8058 0.5875 0.0
C53 C 0.33116 0.82525 0.59289 0.0
C54 C 0.34038 0.80843 0.58059 0.0
C55 C 0.32552 0.79032 0.5714 0.0
C56 C 0.2559 0.88118 0.58855 0.0
C57 C 0.23813 0.89083 0.60033 0.0
C58 C 0.25801 0.88145 0.56357 0.0
C59 C 0.24258 0.89156 0.55052 0.0
C60 C 0.22535 0.90169 0.5625 0.0
C61 C 0.22295 0.9011 0.58734 0.0
C62 C 0.30132 0.78897 0.57508 0.0
H63 H 0.3009 0.91024 0.70767 0.0
H64 H 0.28078 0.89379 0.67219 0.0
H65 H 0.34727 0.88412 0.63974 0.0
H66 H 0.36716 0.90019 0.67522 0.0
H67 H 0.27829 0.89897 0.62743 0.0
H68 H 0.32133 0.84807 0.63565 0.0
H69 H 0.27184 0.84282 0.57935 0.0
H70 H 0.27331 0.80467 0.59 0.0
H71 H 0.34294 0.83941 0.59915 0.0
H72 H 0.35917 0.80953 0.57842 0.0
H73 H 0.236 0.89042 0.61952 0.0
H74 H 0.27181 0.87423 0.55421 0.0
H75 H 0.28961 0.77505 0.56819 0.0
H76 H 0.20918 0.90847 0.59663 0.0
H77 H 0.2442 0.89173 0.53129 0.0
C78 C 0.73544 0.39786 0.86859 0.0
C79 C 0.75261 0.3854 0.87622 0.0
C80 C 0.71504 0.38782 0.8571 0.0
C81 C 0.71079 0.36485 0.85292 0.0
C82 C 0.72806 0.35244 0.86022 0.0
C83 C 0.7485 0.36246 0.87151 0.0
C84 C 0.68831 0.35371 0.84175 0.0
C85 C 0.67773 0.36323 0.82282 0.0
C86 C 0.65675 0.3529 0.81225 0.0
C87 C 0.6463 0.33235 0.82157 0.0
C88 C 0.65644 0.32228 0.8406 0.0
C89 C 0.67735 0.33335 0.85027 0.0
C90 C 0.64572 0.3003 0.85092 0.0
C91 C 0.62156 0.29516 0.85586 0.0
C92 C 0.66002 0.28456 0.85733 0.0
C93 C 0.65072 0.26477 0.86835 0.0
C94 C 0.62663 0.25973 0.87374 0.0
C95 C 0.64618 0.36373 0.79149 0.0
C96 C 0.64741 0.38688 0.79037 0.0
C97 C 0.63529 0.35129 0.7722 0.0
C98 C 0.62647 0.36154 0.75264 0.0
C99 C 0.62764 0.38465 0.75169 0.0
C100 C 0.63817 0.39706 0.77108 0.0
C101 C 0.61224 0.27541 0.86719 0.0
H102 H 0.73737 0.41546 0.87194 0.0
H103 H 0.70225 0.39808 0.85206 0.0
H104 H 0.72593 0.3348 0.85702 0.0
H105 H 0.76123 0.35206 0.87628 0.0
H106 H 0.68635 0.37852 0.8158 0.0
H107 H 0.68489 0.32627 0.86518 0.0
H108 H 0.63026 0.32415 0.81401 0.0
H109 H 0.60983 0.30671 0.85151 0.0
H110 H 0.67866 0.28753 0.85384 0.0
H111 H 0.66268 0.25359 0.8731 0.0
H112 H 0.65533 0.39734 0.80464 0.0
H113 H 0.63395 0.33353 0.77192 0.0
H114 H 0.59361 0.27236 0.87066 0.0
H115 H 0.6396 0.41484 0.77119 0.0
H116 H 0.61843 0.35126 0.73827 0.0
C117 C 0.87137 0.63058 0.27219 0.0
C118 C 0.89561 0.631 0.26805 0.0
C119 C 0.86252 0.64061 0.29274 0.0
C120 C 0.87746 0.65153 0.31014 0.0
C121 C 0.90168 0.65215 0.30603 0.0
C122 C 0.91057 0.64204 0.28546 0.0
C123 C 0.86758 0.66165 0.33252 0.0
C124 C 0.84721 0.6508 0.34372 0.0
C125 C 0.8369 0.65996 0.36403 0.0
C126 C 0.84736 0.6805 0.37319 0.0
C127 C 0.86774 0.69191 0.36277 0.0
C128 C 0.87791 0.68213 0.34256 0.0
C129 C 0.87764 0.71424 0.37301 0.0
C130 C 0.86268 0.7295 0.38072 0.0
C131 C 0.90178 0.72029 0.37617 0.0
C132 C 0.9106 0.74078 0.38684 0.0
C133 C 0.89559 0.75604 0.39456 0.0
C134 C 0.81492 0.64841 0.3755 0.0
C135 C 0.79708 0.63666 0.3617 0.0
C136 C 0.81125 0.64954 0.40038 0.0
C137 C 0.79033 0.63971 0.41099 0.0
C138 C 0.77234 0.6283 0.39714 0.0
C139 C 0.77617 0.62675 0.37234 0.0
C140 C 0.87145 0.74993 0.39128 0.0
H141 H 0.85901 0.62217 0.25972 0.0
H142 H 0.84378 0.63988 0.29487 0.0
H143 H 0.91387 0.66017 0.31893 0.0
H144 H 0.92932 0.64316 0.28315 0.0
H145 H 0.83958 0.63483 0.33683 0.0
H146 H 0.89331 0.69088 0.33412 0.0
H147 H 0.83943 0.68782 0.38856 0.0
H148 H 0.844 0.72569 0.37852 0.0
H149 H 0.91389 0.70901 0.37075 0.0
H150 H 0.92929 0.74474 0.38874 0.0
H151 H 0.79893 0.6356 0.34251 0.0
H152 H 0.82462 0.65795 0.41181 0.0
H153 H 0.85911 0.76082 0.39718 0.0
H154 H 0.76272 0.61839 0.36095 0.0
H155 H 0.78836 0.64095 0.43016 0.0
C156 C 0.73812 0.77925 0.7125 0.0
C157 C 0.74445 0.8022 0.71253 0.0
C158 C 0.72466 0.76931 0.73127 0.0
C159 C 0.7173 0.78213 0.75045 0.0
C160 C 0.72306 0.8051 0.75004 0.0
C161 C 0.73645 0.81499 0.73136 0.0
C162 C 0.70544 0.77177 0.77187 0.0
C163 C 0.71415 0.75421 0.78227 0.0
C164 C 0.70514 0.74563 0.80412 0.0
C165 C 0.68751 0.75619 0.81609 0.0
C166 C 0.67902 0.77453 0.8062 0.0
C167 C 0.68736 0.78114 0.78346 0.0
C168 C 0.66309 0.7883 0.81979 0.0
C169 C 0.64583 0.77928 0.8362 0.0
C170 C 0.66539 0.81122 0.81642 0.0
C171 C 0.65082 0.82448 0.8284 0.0
C172 C 0.63371 0.81558 0.8448 0.0
C173 C 0.71607 0.72715 0.81476 0.0
C174 C 0.72769 0.71277 0.80013 0.0
C175 C 0.71671 0.72455 0.83952 0.0
C176 C 0.72964 0.70926 0.84919 0.0
C177 C 0.74327 0.69651 0.83461 0.0
C178 C 0.74143 0.69822 0.80979 0.0
C179 C 0.63145 0.79278 0.84866 0.0
H180 H 0.74383 0.76897 0.69813 0.0
H181 H 0.72034 0.75157 0.73101 0.0
H182 H 0.71811 0.81544 0.76473 0.0
H183 H 0.74139 0.83266 0.73223 0.0
H184 H 0.72909 0.74818 0.77377 0.0
H185 H 0.68037 0.79432 0.77488 0.0
H186 H 0.68089 0.75066 0.83332 0.0
H187 H 0.64326 0.7618 0.8393 0.0
H188 H 0.67889 0.81926 0.80479 0.0
H189 H 0.6535 0.84199 0.82533 0.0
H190 H 0.72684 0.71301 0.78094 0.0
H191 H 0.70795 0.7348 0.85173 0.0
H192 H 0.6184 0.78534 0.86117 0.0
H193 H 0.75114 0.68896 0.79743 0.0
H194 H 0.72914 0.70797 0.86831 0.0
C195 C 0.68861 0.11276 0.34687 0.0
C196 C 0.68585 0.12615 0.32768 0.0
C197 C 0.69753 0.12217 0.36815 0.0
C198 C 0.70347 0.14506 0.37048 0.0
C199 C 0.70131 0.15836 0.35105 0.0
C200 C 0.69262 0.14894 0.32973 0.0
C201 C 0.71154 0.15511 0.3933 0.0
C202 C 0.72941 0.14698 0.4052 0.0
C203 C 0.73768 0.1572 0.42647 0.0
C204 C 0.72746 0.17466 0.43637 0.0
C205 C 0.7103 0.18328 0.4243 0.0
C206 C 0.70215 0.17349 0.40276 0.0
C207 C 0.70327 0.20395 0.43329 0.0
C208 C 0.69794 0.20664 0.45761 0.0
C209 C 0.7044 0.22179 0.41817 0.0
C210 C 0.69938 0.24195 0.42713 0.0
C211 C 0.69336 0.24434 0.45123 0.0
C212 C 0.75846 0.15146 0.43753 0.0
C213 C 0.76066 0.12951 0.44157 0.0
C214 C 0.77592 0.16838 0.44484 0.0
C215 C 0.79518 0.16345 0.45661 0.0
C216 C 0.79741 0.14154 0.46076 0.0
C217 C 0.78014 0.12455 0.45312 0.0
C218 C 0.69306 0.22684 0.46657 0.0
H219 H 0.68338 0.09514 0.34554 0.0
H220 H 0.69908 0.11167 0.38301 0.0
H221 H 0.70608 0.17603 0.35244 0.0
H222 H 0.69029 0.15956 0.31519 0.0
H223 H 0.73763 0.13356 0.39733 0.0
H224 H 0.68865 0.18021 0.39342 0.0
H225 H 0.73401 0.18252 0.45289 0.0
H226 H 0.69721 0.19303 0.46955 0.0
H227 H 0.70917 0.22013 0.39951 0.0
H228 H 0.69915 0.2554 0.41513 0.0
H229 H 0.74733 0.11632 0.43598 0.0
H230 H 0.77469 0.18545 0.4414 0.0
H231 H 0.68779 0.22849 0.4851 0.0
H232 H 0.78196 0.10743 0.45555 0.0
H233 H 0.80845 0.1767 0.46217 0.0
C234 C 0.26813 0.64512 0.17311 0.0
C235 C 0.26507 0.64624 0.14833 0.0
C236 C 0.28866 0.6554 0.18415 0.0
C237 C 0.30694 0.66736 0.1709 0.0
C238 C 0.30388 0.6683 0.1461 0.0
C239 C 0.28344 0.658 0.13509 0.0
C240 C 0.32882 0.67914 0.18268 0.0
C241 C 0.33891 0.67023 0.20231 0.0
C242 C 0.35939 0.68106 0.21342 0.0
C243 C 0.36994 0.70142 0.20373 0.0
C244 C 0.36049 0.71073 0.18376 0.0
C245 C 0.33977 0.69941 0.17397 0.0
C246 C 0.37178 0.73216 0.17262 0.0
C247 C 0.38247 0.75023 0.18638 0.0
C248 C 0.37116 0.73504 0.14777 0.0
C249 C 0.38035 0.75506 0.13722 0.0
C250 C 0.39074 0.7733 0.15094 0.0
C251 C 0.36965 0.67072 0.23475 0.0
C252 C 0.35535 0.65692 0.25051 0.0
C253 C 0.39381 0.67399 0.23952 0.0
C254 C 0.40315 0.66381 0.25879 0.0
C255 C 0.38888 0.64966 0.27429 0.0
C256 C 0.36469 0.64659 0.2696 0.0
C257 C 0.39168 0.77035 0.17579 0.0
H258 H 0.25469 0.6361 0.18407 0.0
H259 H 0.28998 0.65427 0.20324 0.0
H260 H 0.31744 0.67694 0.13497 0.0
H261 H 0.28193 0.6596 0.11609 0.0
H262 H 0.33106 0.65435 0.20847 0.0
H263 H 0.33171 0.70677 0.15961 0.0
H264 H 0.38557 0.71006 0.21163 0.0
H265 H 0.38323 0.74909 0.20551 0.0
H266 H 0.36366 0.72163 0.13619 0.0
H267 H 0.37955 0.75602 0.11808 0.0
H268 H 0.33664 0.65402 0.24831 0.0
H269 H 0.4058 0.68419 0.22811 0.0
H270 H 0.39914 0.78378 0.18734 0.0
H271 H 0.35268 0.63585 0.28045 0.0
H272 H 0.42175 0.6673 0.26149 0.0
C273 C 0.14606 0.28546 0.63246 0.0
C274 C 0.1218 0.27927 0.63008 0.0
C275 C 0.15514 0.30584 0.64291 0.0
C276 C 0.14041 0.32093 0.65162 0.0
C277 C 0.11616 0.3148 0.64949 0.0
C278 C 0.10703 0.29443 0.63878 0.0
C279 C 0.15066 0.34301 0.66218 0.0
C280 C 0.171 0.35438 0.65169 0.0
C281 C 0.18263 0.37408 0.6618 0.0
C282 C 0.17281 0.38288 0.68267 0.0
C283 C 0.1519 0.37252 0.69336 0.0
C284 C 0.14097 0.35252 0.68279 0.0
C285 C 0.14194 0.38255 0.71575 0.0
C286 C 0.15667 0.39258 0.7338 0.0
C287 C 0.11772 0.38272 0.71917 0.0
C288 C 0.10865 0.39275 0.73967 0.0
C289 C 0.1234 0.40284 0.75773 0.0
C290 C 0.20516 0.38506 0.65061 0.0
C291 C 0.22044 0.37252 0.63798 0.0
C292 C 0.21174 0.40807 0.65229 0.0
C293 C 0.23278 0.41805 0.64192 0.0
C294 C 0.24759 0.40542 0.62906 0.0
C295 C 0.2411 0.38257 0.62712 0.0
C296 C 0.14761 0.40246 0.75434 0.0
H297 H 0.15825 0.2744 0.62667 0.0
H298 H 0.17389 0.30963 0.64447 0.0
H299 H 0.1042 0.32597 0.65563 0.0
H300 H 0.08831 0.2908 0.63705 0.0
H301 H 0.17762 0.34783 0.6352 0.0
H302 H 0.12541 0.34393 0.69112 0.0
H303 H 0.1815 0.39792 0.69075 0.0
H304 H 0.17538 0.39269 0.7322 0.0
H305 H 0.1057 0.37542 0.70575 0.0
H306 H 0.08992 0.39234 0.74144 0.0
H307 H 0.21673 0.35478 0.63666 0.0
H308 H 0.20054 0.41855 0.66133 0.0
H309 H 0.15978 0.41014 0.76743 0.0
H310 H 0.25229 0.37238 0.61756 0.0
H311 H 0.23727 0.43574 0.64357 0.0
Sm312 Sm 0.02183 0.02281 0.48765 0.0
Sm313 Sm 1.00138 1.01006 0.53761 0.0
C314 C 0.0359 0.04296 0.44811 0.0
C315 C 0.05489 0.06065 0.44187 0.0
C316 C 0.04986 0.08184 0.43706 0.0
C317 C 0.06775 0.09841 0.43046 0.0
C318 C 0.09089 0.09393 0.42829 0.0
C319 C 0.09598 0.073 0.43388 0.0
C320 C 0.07822 0.05654 0.4406 0.0
C321 C 0.04956 1.0036 0.5166 0.0
C322 C 0.02951 0.05956 0.53345 0.0
C323 C 0.98832 0.98883 0.5767 0.0
C324 C 0.96842 0.97195 0.58261 0.0
C325 C 0.97227 0.9506 0.58815 0.0
C326 C 0.95353 0.93471 0.5943 0.0
C327 C 0.9306 0.93997 0.59514 0.0
C328 C 0.92674 0.96106 0.58856 0.0
C329 C 0.94539 0.97687 0.58244 0.0
C330 C 0.97275 0.02814 0.50884 0.0
C331 C 0.9931 0.97362 0.4916 0.0
O332 O 0.0188 0.04869 0.46157 0.0
O333 O 0.04211 0.02407 0.45378 0.0
O334 O 0.03731 0.01805 0.52282 0.0
O335 O 0.04864 0.99939 0.49387 0.0
O336 O 0.02863 0.05589 0.51003 0.0
O337 O 0.02272 0.04348 0.54836 0.0
O338 O 1.00416 0.98265 0.56187 0.0
O339 O 0.9834 1.00861 0.57278 0.0
O340 O 0.98591 0.0146 0.50233 0.0
O341 O 0.97176 0.03063 0.53181 0.0
O342 O 0.99478 0.97706 0.515 0.0
O343 O 0.99929 0.98995 0.4768 0.0
H344 H 0.03205 0.08549 0.43805 0.0
H345 H 0.06339 0.11444 0.42622 0.0
H346 H 0.11375 0.06925 0.43272 0.0
H347 H 0.08282 0.04052 0.44447 0.0
H348 H 0.98983 0.9463 0.58807 0.0
H349 H 0.95709 0.9186 0.59924 0.0
H350 H 0.90924 0.96548 0.58846 0.0
H351 H 0.94169 0.99302 0.5778 0.0
Sm352 Sm 0.52674 0.01799 0.02842 0.0
Sm353 Sm 0.492 0.01524 0.99868 0.0
C354 C 0.56361 0.02449 0.05541 0.0
C355 C 0.56686 0.03881 0.07678 0.0
C356 C 0.56691 0.06168 0.07554 0.0
C357 C 0.56718 0.07467 0.09633 0.0
C358 C 0.56704 0.06494 0.11857 0.0
C359 C 0.56646 0.04208 0.11981 0.0
C360 C 0.56655 0.02916 0.09908 0.0
C361 C 0.49188 0.98461 0.04308 0.0
C362 C 0.48791 0.04776 0.04463 0.0
C363 C 0.45431 1.00656 0.97338 0.0
C364 C 0.45313 0.99526 0.94995 0.0
C365 C 0.44195 0.97352 0.94754 0.0
C366 C 0.44181 0.96244 0.9255 0.0
C367 C 0.45275 0.97307 0.90569 0.0
C368 C 0.4653 0.99413 0.90847 0.0
C369 C 0.46544 1.00518 0.93036 0.0
C370 C 0.52636 0.04917 0.98381 0.0
C371 C 0.53207 0.98693 0.98091 0.0
O372 O 0.56298 0.03403 0.03501 0.0
O373 O 0.54738 1.00773 0.05766 0.0
O374 O 0.49964 0.9874 0.02192 0.0
O375 O 0.50103 1.00089 0.05656 0.0
O376 O 0.51042 0.04704 0.0453 0.0
O377 O 0.47534 0.03386 0.03017 0.0
O378 O 0.45837 0.99442 0.99104 0.0
O379 O 0.46646 0.02611 0.97439 0.0
O380 O 0.51903 0.04605 1.0051 0.0
O381 O 0.51678 0.03318 0.97019 0.0
O382 O 0.51036 0.98973 0.97747 0.0
O383 O 0.54351 0.99794 0.99844 0.0
H384 H 0.56654 0.06955 0.0586 0.0
H385 H 0.56777 0.09232 0.09509 0.0
H386 H 0.56679 0.03429 0.13681 0.0
H387 H 0.56605 1.01153 0.10048 0.0
H388 H 0.43305 0.96525 0.9626 0.0
H389 H 0.43196 0.94616 0.92363 0.0
H390 H 0.47395 1.0025 0.89333 0.0
H391 H 0.47496 0.02161 0.93176 0.0
Sm392 Sm 0.51141 0.49803 0.49498 0.0
Sm393 Sm 0.50545 0.53376 0.52938 0.0
C394 C 0.52496 0.46601 0.46857 0.0
C395 C 0.53582 0.44705 0.47553 0.0
C396 C 0.55986 0.44931 0.47974 0.0
C397 C 0.56975 0.43176 0.48817 0.0
C398 C 0.55576 0.41169 0.49253 0.0
C399 C 0.53166 0.40958 0.48882 0.0
C400 C 0.5218 0.42705 0.48015 0.0
C401 C 0.46798 0.4941 0.51665 0.0
C402 C 0.53054 0.49409 0.55093 0.0
C403 C 0.48447 0.55969 0.55751 0.0
C404 C 0.47544 0.57986 0.55129 0.0
C405 C 0.45586 0.57869 0.5367 0.0
C406 C 0.44746 0.59773 0.53047 0.0
C407 C 0.45839 0.61816 0.53882 0.0
C408 C 0.47876 0.61962 0.55205 0.0
C409 C 0.48725 0.60048 0.55835 0.0
C410 C 0.54747 0.54727 0.5061 0.0
C411 C 0.48966 0.53895 0.47304 0.0
O412 O 0.53764 0.48525 0.47104 0.0
O413 O 0.50337 0.46604 0.47587 0.0
O414 O 0.48726 0.49893 0.527 0.0
O415 O 0.47124 0.49202 0.49383 0.0
O416 O 0.5297 0.48582 0.52868 0.0
O417 O 0.52155 0.51238 0.5561 0.0
O418 O 0.47357 0.54153 0.548 0.0
O419 O 0.50722 0.56054 0.55696 0.0
O420 O 0.53437 0.52942 0.50209 0.0
O421 O 0.53875 0.55843 0.52314 0.0
O422 O 0.48622 0.54447 0.49577 0.0
O423 O 0.50205 0.52287 0.46769 0.0
H424 H 0.5711 0.46459 0.47649 0.0
H425 H 0.58848 0.43368 0.49034 0.0
H426 H 0.52052 0.39426 0.49213 0.0
H427 H 0.50317 0.42494 0.47724 0.0
H428 H 0.44666 0.56311 0.53039 0.0
H429 H 0.43167 0.59649 0.52021 0.0
H430 H 0.48723 0.63541 0.55867 0.0
H431 H 0.5027 0.60175 0.5691 0.0
Sm432 Sm 0.01558 0.49514 0.02508 0.0
Sm433 Sm 1.00171 0.53874 0.99944 0.0
C434 C 0.04029 0.46325 0.03552 0.0
C435 C 0.05935 0.45861 0.05155 0.0
C436 C 0.08246 0.46008 0.04269 0.0
C437 C 0.10028 0.45373 0.05633 0.0
C438 C 0.09568 0.4455 0.07932 0.0
C439 C 0.07273 0.44483 0.08865 0.0
C440 C 0.05479 0.45118 0.07491 0.0
C441 C 0.99383 0.52132 0.05829 0.0
C442 C 0.05016 0.54385 0.03083 0.0
C443 C 0.9773 0.57076 0.98878 0.0
C444 C 0.95792 0.57507 0.97303 0.0
C445 C 0.93527 0.57503 0.98272 0.0
C446 C 0.91722 0.58105 0.96918 0.0
C447 C 0.92116 0.58763 0.94547 0.0
C448 C 0.94361 0.5868 0.93536 0.0
C449 C 0.96176 0.58068 0.94897 0.0
C450 C 0.02346 0.51263 0.96614 0.0
C451 C 0.96664 0.4903 0.99424 0.0
O452 O 0.04614 0.47734 0.01863 0.0
O453 O 0.01935 0.46456 0.04456 0.0
O454 O 0.99802 0.52484 0.0363 0.0
O455 O 1.00081 0.50269 0.06288 0.0
O456 O 0.04643 0.5223 0.0339 0.0
O457 O 0.03558 0.5544 0.01893 0.0
O458 O 0.97172 0.55725 1.00625 0.0
O459 O 0.99793 0.56891 0.97929 0.0
O460 O 0.01926 0.50897 0.98811 0.0
O461 O 0.01638 0.53125 0.96168 0.0
O462 O 0.97027 0.51196 0.99198 0.0
O463 O 0.98172 0.47953 1.00522 0.0
H464 H 0.08677 0.46569 0.02485 0.0
H465 H 0.11774 0.45501 0.04863 0.0
H466 H 0.06841 0.43857 0.10624 0.0
H467 H 0.03724 0.44974 0.0824 0.0
H468 H 0.93154 0.57081 1.00111 0.0
H469 H 0.90015 0.58087 0.97756 0.0
H470 H 0.94746 0.59174 0.91722 0.0
H471 H 0.97894 0.5809 0.94081 0.0
C472 C 0.25795 0.19787 0.33042 0.0
C473 C 0.2595 0.22084 0.3306 0.0
C474 C 0.24096 0.18547 0.3443 0.0
C475 C 0.18398 0.19009 0.37536 0.0
H476 H 0.19152 0.13155 0.39497 0.0
C477 C 0.11319 0.13213 0.42763 0.0
C478 C 0.10961 0.11034 0.41865 0.0
C479 C 0.13176 0.14701 0.41888 0.0
C480 C 0.18917 0.14789 0.38959 0.0
H481 H 0.24566 0.24908 0.34631 0.0
H482 H 0.21693 0.22762 0.37183 0.0
H483 H 0.22472 0.15496 0.37814 0.0
H484 H 0.12163 0.08735 0.39271 0.0
H485 H 0.15383 0.11321 0.37746 0.0
H486 H 0.14835 0.18285 0.3874 0.0
C487 C 0.22807 0.21897 0.36027 0.0
C488 C 0.20818 0.16131 0.37977 0.0
C489 C 0.24473 0.23133 0.34593 0.0
C490 C 0.12435 0.1039 0.40033 0.0
C491 C 0.14277 0.11868 0.39162 0.0
C492 C 0.16503 0.17675 0.38561 0.0
C493 C 0.22543 0.19581 0.3591 0.0
C494 C 0.20578 0.18244 0.37197 0.0
C495 C 0.14692 0.14027 0.40104 0.0
C496 C 0.16734 0.15534 0.3923 0.0
H497 H 0.26892 0.18943 0.31842 0.0
H498 H 0.23935 0.16774 0.34243 0.0
H499 H 0.18119 0.20607 0.36932 0.0
H500 H 0.10205 0.13745 0.44179 0.0
H501 H 0.13462 0.16358 0.42644 0.0
C502 C 0.34711 0.93209 0.72747 0.0
C503 C 0.34694 0.91134 0.71646 0.0
C504 C 0.35994 0.93728 0.74801 0.0
C505 C 0.38709 0.91388 0.79734 0.0
H506 H 0.43024 0.96805 0.79534 0.0
C507 C 0.44858 0.94284 0.87447 0.0
C508 C 0.44672 0.96462 0.8817 0.0
C509 C 0.43974 0.93473 0.85254 0.0
C510 C 0.41833 0.95284 0.79606 0.0
H511 H 0.35833 0.87926 0.71831 0.0
H512 H 0.38073 0.8883 0.75435 0.0
H513 H 0.40487 0.9574 0.76181 0.0
H514 H 0.43423 0.99491 0.87232 0.0
H515 H 0.41861 0.98081 0.83463 0.0
H516 H 0.39995 0.90975 0.83203 0.0
C517 C 0.3712 0.90054 0.74718 0.0
C518 C 0.40373 0.94689 0.77705 0.0
C519 C 0.35862 0.89547 0.7266 0.0
C520 C 0.43645 0.97825 0.86676 0.0
C521 C 0.42754 0.97018 0.84517 0.0
C522 C 0.40157 0.91995 0.81653 0.0
C523 C 0.37236 0.92161 0.75768 0.0
C524 C 0.38776 0.9276 0.77777 0.0
C525 C 0.42886 0.94833 0.83795 0.0
C526 C 0.41691 0.93974 0.81621 0.0
H527 H 0.33801 0.9444 0.71979 0.0
H528 H 0.36051 0.95358 0.75611 0.0
H529 H 0.37488 0.89885 0.79808 0.0
H530 H 0.45638 0.93211 0.88593 0.0
H531 H 0.44093 0.9178 0.84721 0.0
C532 C 0.60237 0.41146 0.73454 0.0
C533 C 0.61793 0.3958 0.73083 0.0
C534 C 0.59331 0.42187 0.71528 0.0
C535 C 0.60205 0.43209 0.64836 0.0
H536 H 0.54137 0.45175 0.65505 0.0
C537 C 0.55545 0.46594 0.56675 0.0
C538 C 0.54109 0.48258 0.57099 0.0
C539 C 0.56518 0.45565 0.58578 0.0
C540 C 0.5585 0.44668 0.6527 0.0
H541 H 0.63628 0.37941 0.70317 0.0
H542 H 0.62091 0.3974 0.66986 0.0
H543 H 0.55703 0.43392 0.68793 0.0
H544 H 0.52594 0.50095 0.59948 0.0
H545 H 0.54241 0.48323 0.63206 0.0
H546 H 0.60328 0.44471 0.61293 0.0
C547 C 0.61545 0.4018 0.68769 0.0
C548 C 0.56767 0.4363 0.6719 0.0
C549 C 0.62422 0.39116 0.70698 0.0
C550 C 0.53684 0.48833 0.5951 0.0
C551 C 0.54627 0.4779 0.61405 0.0
C552 C 0.5928 0.44237 0.62908 0.0
C553 C 0.59962 0.41738 0.69127 0.0
C554 C 0.58973 0.4287 0.67033 0.0
C555 C 0.56071 0.46127 0.60997 0.0
C556 C 0.57078 0.44997 0.63073 0.0
H557 H 0.59692 0.41556 0.75249 0.0
H558 H 0.58155 0.43377 0.71944 0.0
H559 H 0.61921 0.42711 0.646 0.0
H560 H 0.55935 0.4609 0.54863 0.0
H561 H 0.57594 0.44293 0.58142 0.0
C562 C 0.92607 0.61065 0.24618 0.0
C563 C 0.9051 0.62001 0.24585 0.0
C564 C 0.93493 0.60056 0.22562 0.0
C565 C 0.92911 0.59498 0.15824 0.0
H566 H 0.96527 0.54734 0.16608 0.0
C567 C 0.96652 0.54868 0.07433 0.0
C568 C 0.98437 0.53563 0.07758 0.0
C569 C 0.95632 0.55924 0.09408 0.0
C570 C 0.95578 0.56093 0.16303 0.0
H571 H 0.87731 0.62574 0.22251 0.0
H572 H 0.89217 0.60774 0.18731 0.0
H573 H 0.94932 0.56448 0.20054 0.0
H574 H 0.00609 0.52462 0.1043 0.0
H575 H 0.99026 0.54375 0.1375 0.0
H576 H 0.93568 0.59156 0.1207 0.0
C577 C 0.90215 0.60849 0.20342 0.0
C578 C 0.94633 0.57087 0.18332 0.0
C579 C 0.89333 0.61866 0.22398 0.0
C580 C 0.99225 0.53431 0.10093 0.0
C581 C 0.98265 0.5452 0.12037 0.0
C582 C 0.93883 0.58518 0.13785 0.0
C583 C 0.9232 0.59921 0.2037 0.0
C584 C 0.93291 0.58826 0.18151 0.0
C585 C 0.96392 0.55749 0.11778 0.0
C586 C 0.9527 0.56799 0.13966 0.0
H587 H 0.9357 0.61085 0.26247 0.0
H588 H 0.95129 0.59405 0.22699 0.0
H589 H 0.91905 0.6083 0.15564 0.0
H590 H 0.95974 0.55 0.05673 0.0
H591 H 0.94204 0.56827 0.0906 0.0
C592 C 0.39676 0.18044 0.17741 0.0
C593 C 0.39666 0.20137 0.16785 0.0
C594 C 0.4077 0.1642 0.16516 0.0
C595 C 0.449 0.15541 0.11364 0.0
H596 H 0.42107 0.09472 0.11911 0.0
C597 C 0.49131 0.08488 0.06546 0.0
C598 C 0.47743 0.06507 0.05894 0.0
C599 C 0.48197 0.10136 0.07894 0.0
C600 C 0.42906 0.11153 0.11691 0.0
H601 H 0.40914 0.22174 0.13822 0.0
H602 H 0.42776 0.19357 0.1167 0.0
H603 H 0.4045 0.12334 0.14151 0.0
H604 H 0.4426 0.04719 0.06153 0.0
H605 H 0.42608 0.07583 0.08469 0.0
H606 H 0.47265 0.14393 0.08798 0.0
C607 C 0.41947 0.18953 0.13375 0.0
C608 C 0.41971 0.12811 0.13032 0.0
C609 C 0.4085 0.20575 0.146 0.0
C610 C 0.45381 0.06225 0.06618 0.0
C611 C 0.44441 0.07875 0.07979 0.0
C612 C 0.45809 0.13889 0.09991 0.0
C613 C 0.41896 0.16828 0.14288 0.0
C614 C 0.42946 0.1504 0.12896 0.0
C615 C 0.45831 0.0987 0.0865 0.0
C616 C 0.44836 0.11654 0.10123 0.0
H617 H 0.38779 0.17635 0.19415 0.0
H618 H 0.40721 0.14837 0.17326 0.0
H619 H 0.45746 0.17217 0.11219 0.0
H620 H 0.50953 0.08778 0.05998 0.0
H621 H 0.49365 0.11605 0.08372 0.0
C622 C 0.20773 0.93446 0.55396 0.0
C623 C 0.2086 0.91201 0.54965 0.0
C624 C 0.18688 0.94279 0.55122 0.0
C625 C 0.12758 0.93168 0.53013 0.0
H626 H 0.11163 0.95732 0.59141 0.0
C627 C 0.04926 0.9659 0.53022 0.0
C628 C 0.05638 0.98847 0.53339 0.0
C629 C 0.05999 0.95121 0.54295 0.0
C630 C 0.11575 0.94986 0.5744 0.0
H631 H 0.19019 0.88109 0.53653 0.0
H632 H 0.15359 0.89577 0.53125 0.0
H633 H 0.15033 0.94622 0.58471 0.0
H634 H 0.07605 0.01392 0.55499 0.0
H635 H 0.09711 0.98842 0.57506 0.0
H636 H 0.09393 0.93616 0.51907 0.0
C637 C 0.16883 0.90688 0.53677 0.0
C638 C 0.1379 0.94392 0.57042 0.0
C639 C 0.18969 0.89854 0.53956 0.0
C640 C 0.07131 0.9964 0.55178 0.0
C641 C 0.08289 0.98172 0.56366 0.0
C642 C 0.10559 0.93772 0.534 0.0
C643 C 0.16702 0.92861 0.54417 0.0
C644 C 0.14398 0.93524 0.54809 0.0
C645 C 0.07921 0.95925 0.557 0.0
C646 C 0.09959 0.94734 0.55599 0.0
H647 H 0.22234 0.94488 0.5619 0.0
H648 H 0.18575 0.95973 0.55656 0.0
H649 H 0.13204 0.9249 0.51287 0.0
H650 H 0.03678 0.95965 0.51676 0.0
H651 H 0.0561 0.9338 0.53854 0.0
C652 C 0.78453 0.41795 0.88487 0.0
C653 C 0.7745 0.39606 0.88903 0.0
C654 C 0.80484 0.4277 0.89665 0.0
C655 C 0.84445 0.41991 0.94816 0.0
H656 H 0.88651 0.46474 0.91625 0.0
C657 C 0.93663 0.45588 0.98661 0.0
C658 C 0.94471 0.47831 0.98308 0.0
C659 C 0.91598 0.44543 0.97573 0.0
C660 C 0.87495 0.45243 0.92572 0.0
H661 H 0.77875 0.36777 0.90997 0.0
H662 H 0.81421 0.38417 0.92935 0.0
H663 H 0.85117 0.44813 0.89677 0.0
H664 H 0.93667 0.50703 0.96493 0.0
H665 H 0.90141 0.48921 0.94656 0.0
H666 H 0.86858 0.42417 0.97703 0.0
C667 C 0.80618 0.39413 0.91724 0.0
C668 C 0.85436 0.4428 0.91442 0.0
C669 C 0.78576 0.38445 0.90563 0.0
C670 C 0.93135 0.48978 0.96831 0.0
C671 C 0.91096 0.4794 0.95742 0.0
C672 C 0.86515 0.42948 0.95943 0.0
C673 C 0.81627 0.41598 0.91303 0.0
C674 C 0.83853 0.42635 0.92537 0.0
C675 C 0.9028 0.45698 0.96075 0.0
C676 C 0.88081 0.44605 0.9485 0.0
H677 H 0.77691 0.42767 0.87219 0.0
H678 H 0.81142 0.44463 0.89293 0.0
H679 H 0.83287 0.40767 0.95769 0.0
H680 H 0.94622 0.44638 0.99782 0.0
H681 H 0.91057 0.42814 0.97878 0.0
C682 C 0.73729 0.59853 0.4 0.0
C683 C 0.74952 0.61862 0.40843 0.0
C684 C 0.71566 0.5899 0.41019 0.0
C685 C 0.66652 0.60694 0.44784 0.0
H686 H 0.64816 0.54418 0.45372 0.0
C687 C 0.5848 0.57301 0.50289 0.0
C688 C 0.57052 0.55417 0.49436 0.0
C689 C 0.60653 0.57993 0.49213 0.0
C690 C 0.65288 0.56175 0.452 0.0
H691 H 0.74815 0.64521 0.43452 0.0
H692 H 0.71115 0.62999 0.45263 0.0
H693 H 0.68613 0.55783 0.43594 0.0
H694 H 0.56801 0.52767 0.46784 0.0
H695 H 0.60593 0.53994 0.44868 0.0
H696 H 0.63343 0.61092 0.46397 0.0
C697 C 0.71799 0.62099 0.4378 0.0
C698 C 0.67474 0.56963 0.44175 0.0
C699 C 0.73953 0.62962 0.42759 0.0
C700 C 0.57862 0.54226 0.47484 0.0
C701 C 0.60042 0.54925 0.46395 0.0
C702 C 0.64479 0.59909 0.45813 0.0
C703 C 0.70553 0.60109 0.42915 0.0
C704 C 0.68201 0.5924 0.43967 0.0
C705 C 0.61464 0.56831 0.47236 0.0
C706 C 0.63766 0.5764 0.46057 0.0
H707 H 0.74446 0.58936 0.38551 0.0
H708 H 0.70669 0.57464 0.40283 0.0
H709 H 0.67101 0.62452 0.44607 0.0
H710 H 0.57922 0.58245 0.51804 0.0
H711 H 0.61709 0.59438 0.49951 0.0
C712 C 0.24193 0.36296 0.1953 0.0
C713 C 0.25696 0.3523 0.18028 0.0
C714 C 0.22609 0.37572 0.18591 0.0
C715 C 0.20972 0.40006 0.12844 0.0
H716 H 0.15027 0.4013 0.16138 0.0
C717 C 0.13021 0.4244 0.08035 0.0
C718 C 0.11455 0.43661 0.09264 0.0
C719 C 0.148 0.41604 0.09223 0.0
C720 C 0.16684 0.40136 0.15199 0.0
H721 H 0.26721 0.34702 0.14358 0.0
H722 H 0.23924 0.36832 0.12706 0.0
H723 H 0.18047 0.38374 0.17952 0.0
H724 H 0.10561 0.44937 0.12754 0.0
H725 H 0.13679 0.43482 0.14833 0.0
H726 H 0.19577 0.41716 0.10065 0.0
C727 C 0.23997 0.3676 0.14622 0.0
C728 C 0.18438 0.39127 0.16249 0.0
C729 C 0.25612 0.35521 0.15567 0.0
C730 C 0.11717 0.43995 0.11742 0.0
C731 C 0.1351 0.43157 0.12937 0.0
C732 C 0.19212 0.4099 0.11787 0.0
C733 C 0.2244 0.37791 0.16111 0.0
C734 C 0.20608 0.3901 0.15073 0.0
C735 C 0.15091 0.41955 0.11691 0.0
C736 C 0.17023 0.41042 0.12925 0.0
H737 H 0.24226 0.36122 0.21441 0.0
H738 H 0.21507 0.38372 0.19824 0.0
H739 H 0.22623 0.40035 0.11893 0.0
H740 H 0.12853 0.42092 0.06143 0.0
H741 H 0.15928 0.40642 0.08199 0.0
C742 C 0.5981 0.23735 0.90275 0.0
C743 C 0.61681 0.23835 0.88599 0.0
C744 C 0.58919 0.21752 0.91411 0.0
C745 C 0.59068 0.15518 0.91009 0.0
H746 H 0.55789 0.15614 0.9708 0.0
C747 C 0.54353 0.07282 0.94955 0.0
C748 C 0.53805 0.07093 0.97404 0.0
C749 C 0.55341 0.09302 0.93973 0.0
C750 C 0.56717 0.1552 0.95396 0.0
H751 H 0.64045 0.21819 0.86846 0.0
H752 H 0.62568 0.18438 0.88826 0.0
H753 H 0.57468 0.19046 0.95311 0.0
H754 H 0.5391 0.08966 1.00731 0.0
H755 H 0.55679 0.12454 0.99063 0.0
H756 H 0.58438 0.12009 0.91133 0.0
C757 C 0.61735 0.19876 0.89258 0.0
C758 C 0.57665 0.17531 0.94343 0.0
C759 C 0.62622 0.21856 0.88126 0.0
C760 C 0.54309 0.09019 0.9884 0.0
C761 C 0.55314 0.11049 0.97858 0.0
C762 C 0.58151 0.13514 0.92073 0.0
C763 C 0.59848 0.1976 0.90925 0.0
C764 C 0.58854 0.17587 0.92108 0.0
C765 C 0.55856 0.11251 0.95389 0.0
C766 C 0.56923 0.13448 0.94287 0.0
H767 H 0.59037 0.25205 0.90737 0.0
H768 H 0.57465 0.2179 0.92649 0.0
H769 H 0.59923 0.15421 0.89285 0.0
H770 H 0.53993 0.05858 0.9377 0.0
H771 H 0.55648 0.09319 0.9207 0.0
C772 C 0.9247 0.78099 0.42022 0.0
C773 C 0.90492 0.77824 0.40567 0.0
C774 C 0.93356 0.80177 0.43011 0.0
C775 C 0.92936 0.86276 0.42477 0.0
H776 H 0.9662 0.86731 0.48173 0.0
C777 C 0.97821 0.9475 0.45771 0.0
C778 C 0.98287 0.95128 0.48207 0.0
C779 C 0.96844 0.92661 0.4489 0.0
C780 C 0.95569 0.86661 0.46599 0.0
H781 H 0.87902 0.79596 0.39058 0.0
H782 H 0.8935 0.83143 0.40846 0.0
H783 H 0.94891 0.8315 0.46691 0.0
H784 H 0.98059 0.93559 0.51621 0.0
H785 H 0.96314 0.89969 0.50123 0.0
H786 H 0.93495 0.89792 0.42465 0.0
C787 C 0.90282 0.81776 0.41184 0.0
C788 C 0.94601 0.84572 0.45709 0.0
C789 C 0.89413 0.79706 0.40178 0.0
C790 C 0.97735 0.93346 0.49733 0.0
C791 C 0.96744 0.9126 0.48857 0.0
C792 C 0.93866 0.88365 0.43393 0.0
C793 C 0.9229 0.82069 0.42604 0.0
C794 C 0.93279 0.84326 0.43613 0.0
C795 C 0.96279 0.90866 0.46413 0.0
C796 C 0.95225 0.88609 0.45462 0.0
H797 H 0.9334 0.76703 0.42414 0.0
H798 H 0.94912 0.80289 0.44062 0.0
H799 H 0.91974 0.86207 0.40845 0.0
H800 H 0.98212 0.96072 0.44532 0.0
H801 H 0.9657 0.92459 0.42996 0.0
C802 C 0.35439 0.77687 0.54325 0.0
C803 C 0.33565 0.77228 0.55945 0.0
C804 C 0.36708 0.76026 0.5356 0.0
C805 C 0.36733 0.70094 0.53256 0.0
H806 H 0.43304 0.71529 0.54732 0.0
C807 C 0.42373 0.63531 0.54938 0.0
C808 C 0.44568 0.63695 0.53806 0.0
C809 C 0.41092 0.65269 0.54912 0.0
C810 C 0.41485 0.71126 0.54267 0.0
H811 H 0.31424 0.74682 0.57905 0.0
H812 H 0.33632 0.71765 0.56542 0.0
H813 H 0.40769 0.74404 0.55 0.0
H814 H 0.47216 0.65774 0.51826 0.0
H815 H 0.44918 0.68865 0.51737 0.0
H816 H 0.37426 0.66804 0.526 0.0
C817 C 0.34115 0.73401 0.55865 0.0
C818 C 0.40042 0.7276 0.54416 0.0
C819 C 0.32853 0.75064 0.5664 0.0
C820 C 0.45509 0.65634 0.52689 0.0
C821 C 0.44209 0.67384 0.52648 0.0
C822 C 0.38174 0.68465 0.53101 0.0
C823 C 0.36096 0.73894 0.54391 0.0
C824 C 0.37654 0.72241 0.53944 0.0
C825 C 0.41981 0.6719 0.53734 0.0
C826 C 0.40546 0.68965 0.53648 0.0
H827 H 0.35987 0.79346 0.53741 0.0
H828 H 0.38218 0.76421 0.52398 0.0
H829 H 0.34894 0.69671 0.52886 0.0
H830 H 0.41656 0.62054 0.55855 0.0
H831 H 0.39405 0.65113 0.55818 0.0
C832 C 0.78096 0.80385 0.68707 0.0
C833 C 0.7607 0.8129 0.69415 0.0
C834 C 0.79821 0.8158 0.67296 0.0
C835 C 0.82171 0.87265 0.66412 0.0
H836 H 0.85568 0.85161 0.60999 0.0
C837 C 0.89429 0.93199 0.61998 0.0
C838 C 0.9109 0.92427 0.60452 0.0
C839 C 0.87568 0.91769 0.62912 0.0
C840 C 0.84691 0.85791 0.62535 0.0
H841 H 0.74174 0.84065 0.69017 0.0
H842 H 0.77194 0.86155 0.66585 0.0
H843 H 0.8238 0.82749 0.628 0.0
H844 H 0.92108 0.89523 0.58662 0.0
H845 H 0.88985 0.8699 0.60382 0.0
H846 H 0.84522 0.90204 0.66358 0.0
C847 C 0.77461 0.84539 0.67151 0.0
C848 C 0.82831 0.84395 0.63549 0.0
C849 C 0.75736 0.83344 0.68546 0.0
C850 C 0.90864 0.90169 0.59869 0.0
C851 C 0.89029 0.88715 0.60841 0.0
C852 C 0.84069 0.88629 0.65463 0.0
C853 C 0.79553 0.83702 0.66581 0.0
C854 C 0.8153 0.85137 0.65471 0.0
C855 C 0.87336 0.89485 0.62392 0.0
C856 C 0.85351 0.87948 0.63469 0.0
H857 H 0.78413 0.78813 0.69357 0.0
H858 H 0.81422 0.80901 0.66888 0.0
H859 H 0.81235 0.87864 0.67935 0.0
H860 H 0.8957 0.94924 0.62522 0.0
H861 H 0.86315 0.92508 0.6401 0.0
C862 C 0.65117 0.10499 0.30899 0.0
C863 C 0.6735 0.11695 0.30646 0.0
C864 C 0.63737 0.09986 0.28915 0.0
C865 C 0.62924 0.12163 0.23118 0.0
H866 H 0.59093 0.06569 0.21901 0.0
C867 C 0.59122 0.09423 0.14128 0.0
C868 C 0.57124 0.07853 0.14035 0.0
C869 C 0.59977 0.10241 0.16313 0.0
C870 C 0.60105 0.0816 0.22251 0.0
H871 H 0.6998 0.13159 0.28152 0.0
H872 H 0.67574 0.12217 0.24652 0.0
H873 H 0.6161 0.07019 0.25339 0.0
H874 H 0.54277 0.06106 0.16083 0.0
H875 H 0.55738 0.07599 0.1993 0.0
H876 H 0.61443 0.13302 0.20022 0.0
C877 C 0.66875 0.11725 0.26388 0.0
C878 C 0.61563 0.08405 0.24202 0.0
C879 C 0.6825 0.12249 0.28375 0.0
C880 C 0.55839 0.07301 0.16129 0.0
C881 C 0.56681 0.08141 0.1832 0.0
C882 C 0.61455 0.11924 0.21177 0.0
C883 C 0.6458 0.10659 0.26658 0.0
C884 C 0.63013 0.10395 0.24622 0.0
C885 C 0.58829 0.09517 0.18432 0.0
C886 C 0.60065 0.09907 0.20699 0.0
H887 H 0.64385 0.10084 0.32645 0.0
H888 H 0.61968 0.09174 0.29165 0.0
H889 H 0.63991 0.13732 0.23442 0.0
H890 H 0.6015 0.09854 0.12533 0.0
H891 H 0.61647 0.11281 0.16338 0.0
C892 C 0.4224 0.63381 0.29461 0.0
C893 C 0.39901 0.63819 0.29494 0.0
C894 C 0.43175 0.62326 0.31356 0.0
C895 C 0.41599 0.59952 0.37642 0.0
H896 H 0.4784 0.58389 0.37015 0.0
C897 C 0.46182 0.56441 0.45743 0.0
C898 C 0.47906 0.55046 0.45307 0.0
C899 C 0.45183 0.57466 0.43859 0.0
C900 C 0.46077 0.58775 0.37243 0.0
H901 H 0.36755 0.63433 0.3171 0.0
H902 H 0.38295 0.61555 0.34878 0.0
H903 H 0.46214 0.60083 0.33772 0.0
H904 H 0.49892 0.53667 0.42462 0.0
H905 H 0.48177 0.55405 0.3923 0.0
H906 H 0.41467 0.58543 0.41106 0.0
C907 C 0.39474 0.62045 0.33417 0.0
C908 C 0.45123 0.59807 0.35344 0.0
C909 C 0.38549 0.63125 0.31533 0.0
C910 C 0.48582 0.54724 0.42905 0.0
C911 C 0.47596 0.55753 0.41027 0.0
C912 C 0.42549 0.58898 0.39533 0.0
C913 C 0.41826 0.61611 0.33403 0.0
C914 C 0.42853 0.60447 0.35476 0.0
C915 C 0.4587 0.57157 0.41445 0.0
C916 C 0.4482 0.58286 0.39392 0.0
H917 H 0.43373 0.63826 0.27946 0.0
H918 H 0.44986 0.62096 0.31173 0.0
H919 H 0.39863 0.60377 0.3793 0.0
H920 H 0.45586 0.56736 0.4755 0.0
H921 H 0.43889 0.58532 0.44316 0.0
C922 C 0.09396 0.42482 0.77885 0.0
C923 C 0.11369 0.41367 0.77986 0.0
C924 C 0.085 0.43492 0.79934 0.0
C925 C 0.08569 0.43633 0.86674 0.0
H926 H 0.05998 0.49059 0.85977 0.0
C927 C 0.04866 0.48315 0.95052 0.0
C928 C 0.03349 0.49878 0.94673 0.0
C929 C 0.05908 0.47247 0.93098 0.0
C930 C 0.06642 0.47517 0.86247 0.0
H931 H 0.13908 0.40458 0.8042 0.0
H932 H 0.12376 0.42226 0.83954 0.0
H933 H 0.07575 0.47296 0.82539 0.0
H934 H 0.0168 0.51437 0.91904 0.0
H935 H 0.033 0.49536 0.8861 0.0
H936 H 0.076 0.43824 0.90375 0.0
C937 C 0.115 0.42308 0.82285 0.0
C938 C 0.07581 0.465 0.8423 0.0
C939 C 0.12404 0.41307 0.80232 0.0
C940 C 0.02855 0.50268 0.92294 0.0
C941 C 0.03837 0.4918 0.90366 0.0
C942 C 0.0759 0.44634 0.88696 0.0
C943 C 0.09528 0.43427 0.82184 0.0
C944 C 0.08554 0.44528 0.84389 0.0
C945 C 0.05438 0.47674 0.90694 0.0
C946 C 0.06575 0.46596 0.88536 0.0
H947 H 0.08549 0.42605 0.76208 0.0
H948 H 0.0697 0.44306 0.7975 0.0
H949 H 0.09287 0.42116 0.86902 0.0
H950 H 0.0531 0.47969 0.96848 0.0
H951 H 0.07121 0.46122 0.93495 0.0
C952 C 0.61659 0.82948 0.88328 0.0
C953 C 0.61935 0.83055 0.85841 0.0
C954 C 0.60583 0.84538 0.89634 0.0
C955 C 0.56803 0.88981 0.89125 0.0
H956 H 0.59942 0.91325 0.94829 0.0
C957 C 0.53473 0.96375 0.94331 0.0
C958 C 0.5429 0.97016 0.96615 0.0
C959 C 0.54381 0.94696 0.93001 0.0
C960 C 0.58978 0.90703 0.93278 0.0
H961 H 0.61158 0.84856 0.82769 0.0
H962 H 0.59269 0.87606 0.85032 0.0
H963 H 0.61335 0.88328 0.92646 0.0
H964 H 0.56697 0.96357 0.99299 0.0
H965 H 0.58169 0.93388 0.97115 0.0
H966 H 0.54397 0.91262 0.89746 0.0
C967 C 0.599 0.86307 0.85986 0.0
C968 C 0.59808 0.88953 0.92004 0.0
C969 C 0.60999 0.84733 0.84685 0.0
C970 C 0.56043 0.95928 0.97532 0.0
C971 C 0.56902 0.94201 0.96239 0.0
C972 C 0.55935 0.90702 0.90424 0.0
C973 C 0.59723 0.86267 0.88488 0.0
C974 C 0.58749 0.88073 0.89898 0.0
C975 C 0.56095 0.93527 0.93931 0.0
C976 C 0.5701 0.91632 0.92532 0.0
H977 H 0.62363 0.81687 0.8928 0.0
H978 H 0.60449 0.84425 0.91551 0.0
H979 H 0.55918 0.88338 0.87523 0.0
H980 H 0.52127 0.97182 0.9356 0.0
H981 H 0.53707 0.94344 0.91239 0.0
C982 C 0.84042 0.14522 0.46065 0.0
C983 C 0.81891 0.13606 0.47054 0.0
C984 C 0.86028 0.13567 0.4647 0.0
C985 C 0.88272 0.09222 0.49702 0.0
H986 H 0.90776 0.07699 0.43481 0.0
C987 C 0.93324 0.02473 0.49346 0.0
C988 C 0.95623 0.0352 0.49315 0.0
C989 C 0.91626 0.03437 0.48228 0.0
C990 C 0.90059 0.08106 0.4521 0.0
H991 H 0.80142 0.11216 0.49482 0.0
H992 H 0.83597 0.09493 0.50134 0.0
H993 H 0.88125 0.10489 0.43832 0.0
H994 H 0.98077 0.06167 0.4791 0.0
H995 H 0.95082 0.07904 0.45999 0.0
H996 H 0.90149 0.06806 0.51071 0.0
C997 C 0.83767 0.10945 0.49063 0.0
C998 C 0.88599 0.09723 0.45427 0.0
C999 C 0.81788 0.11911 0.48675 0.0
C1000 C 0.96292 0.05361 0.47936 0.0
C1001 C 0.94593 0.06328 0.46819 0.0
C1002 C 0.89693 0.07591 0.49479 0.0
C1003 C 0.85859 0.11688 0.47846 0.0
C1004 C 0.87683 0.1027 0.47675 0.0
C1005 C 0.92243 0.05464 0.47141 0.0
C1006 C 0.9056 0.07008 0.47232 0.0
H1007 H 0.84154 0.15838 0.4481 0.0
H1008 H 0.87645 0.1418 0.45554 0.0
H1009 H 0.87597 0.09634 0.51448 0.0
H1010 H 0.9282 1.0102 0.50384 0.0
H1011 H 0.89808 0.02764 0.48486 0.0
C1012 C 0.22083 0.63505 0.14759 0.0
C1013 C 0.24293 0.63547 0.13634 0.0
C1014 C 0.20021 0.62565 0.13616 0.0
C1015 C 0.17712 0.60312 0.07554 0.0
H1016 H 0.1215 0.58488 0.11337 0.0
C1017 C 0.08684 0.57231 0.03101 0.0
C1018 C 0.07129 0.55623 0.04265 0.0
C1019 C 0.10762 0.58218 0.04204 0.0
C1020 C 0.13683 0.58954 0.1023 0.0
H1021 H 0.26008 0.62529 0.104 0.0
H1022 H 0.22481 0.6084 0.0846 0.0
H1023 H 0.15721 0.59955 0.1329 0.0
H1024 H 0.06541 0.53831 0.07526 0.0
H1025 H 0.1009 0.55527 0.09436 0.0
H1026 H 0.15679 0.59181 0.04499 0.0
C1027 C 0.22297 0.61604 0.10199 0.0
C1028 C 0.15759 0.59854 0.11367 0.0
C1029 C 0.24354 0.62575 0.1133 0.0
C1030 C 0.07692 0.55063 0.06571 0.0
C1031 C 0.0974 0.5606 0.0768 0.0
C1032 C 0.1564 0.59377 0.06418 0.0
C1033 C 0.20069 0.61586 0.11303 0.0
C1034 C 0.1783 0.60572 0.10062 0.0
C1035 C 0.11336 0.57651 0.06522 0.0
C1036 C 0.13573 0.58682 0.0773 0.0
H1037 H 0.21931 0.64254 0.16514 0.0
H1038 H 0.18383 0.6266 0.14554 0.0
H1039 H 0.19213 0.60852 0.06434 0.0
H1040 H 0.08329 0.57684 0.01313 0.0
H1041 H 0.11908 0.59438 0.03233 0.0
C1042 C 0.28705 0.42857 0.63141 0.0
C1043 C 0.26984 0.4159 0.61776 0.0
C1044 C 0.3084 0.43759 0.62095 0.0
C1045 C 0.34511 0.43389 0.56478 0.0
H1046 H 0.37998 0.48716 0.59128 0.0
C1047 C 0.42521 0.48009 0.51546 0.0
C1048 C 0.44516 0.48727 0.52889 0.0
C1049 C 0.40392 0.47225 0.52664 0.0
C1050 C 0.37054 0.47219 0.58374 0.0
H1051 H 0.26121 0.40332 0.58227 0.0
H1052 H 0.29755 0.41999 0.56367 0.0
H1053 H 0.34278 0.47228 0.60955 0.0
H1054 H 0.45818 0.49236 0.56472 0.0
H1055 H 0.42088 0.47873 0.58434 0.0
H1056 H 0.37267 0.4343 0.53856 0.0
C1057 C 0.29531 0.4223 0.58269 0.0
C1058 C 0.34912 0.46349 0.59431 0.0
C1059 C 0.27424 0.41285 0.5933 0.0
C1060 C 0.44313 0.48696 0.55386 0.0
C1061 C 0.42173 0.4792 0.5651 0.0
C1062 C 0.36629 0.44279 0.55402 0.0
C1063 C 0.31297 0.43464 0.59635 0.0
C1064 C 0.33597 0.44414 0.58504 0.0
C1065 C 0.4019 0.47144 0.55161 0.0
C1066 C 0.37932 0.46206 0.56332 0.0
H1067 H 0.28424 0.43102 0.65037 0.0
H1068 H 0.32144 0.4465 0.63238 0.0
H1069 H 0.33616 0.4187 0.55726 0.0
H1070 H 0.42611 0.48025 0.4962 0.0
H1071 H 0.38897 0.46679 0.51567 0.0
C1072 C 0.76925 0.66564 0.83183 0.0
C1073 C 0.7601 0.68259 0.84514 0.0
C1074 C 0.78641 0.65424 0.84117 0.0
C1075 C 0.82904 0.65864 0.89162 0.0
H1076 H 0.83693 0.59901 0.87197 0.0
C1077 C 0.88747 0.60978 0.94445 0.0
C1078 C 0.90233 0.59668 0.93223 0.0
C1079 C 0.87024 0.61891 0.93256 0.0
C1080 C 0.83507 0.61573 0.87755 0.0
H1081 H 0.76238 0.69969 0.87972 0.0
H1082 H 0.78973 0.67878 0.89628 0.0
H1083 H 0.80642 0.61685 0.85422 0.0
H1084 H 0.91 0.58275 0.89747 0.0
H1085 H 0.87998 0.59902 0.87659 0.0
H1086 H 0.85727 0.65744 0.91519 0.0
C1087 C 0.78472 0.675 0.87804 0.0
C1088 C 0.81751 0.62607 0.8673 0.0
C1089 C 0.7682 0.68681 0.86854 0.0
C1090 C 0.89912 0.59287 0.90756 0.0
C1091 C 0.8817 0.60204 0.89558 0.0
C1092 C 0.84624 0.64826 0.902 0.0
C1093 C 0.79472 0.65891 0.8644 0.0
C1094 C 0.81394 0.64767 0.87443 0.0
C1095 C 0.86719 0.61546 0.9079 0.0
C1096 C 0.8494 0.62655 0.89544 0.0
H1097 H 0.76344 0.66104 0.81403 0.0
H1098 H 0.79344 0.64206 0.82984 0.0
H1099 H 0.82785 0.67549 0.89711 0.0
H1100 H 0.88941 0.61348 0.9633 0.0
H1101 H 0.85925 0.6288 0.94283 0.0
C1102 C 0.39112 0.8022 0.11852 0.0
C1103 C 0.4006 0.79501 0.13937 0.0
C1104 C 0.40048 0.82212 0.10768 0.0
C1105 C 0.45066 0.87107 0.11399 0.0
H1106 H 0.42099 0.8918 0.05973 0.0
C1107 C 0.48333 0.95826 0.07708 0.0
C1108 C 0.48062 0.9629 0.05299 0.0
C1109 C 0.47349 0.93806 0.08677 0.0
C1110 C 0.42985 0.88636 0.07473 0.0
H1111 H 0.42815 0.80419 0.16465 0.0
H1112 H 0.44373 0.83825 0.14697 0.0
H1113 H 0.40474 0.85762 0.07729 0.0
H1114 H 0.46478 0.94936 0.02034 0.0
H1115 H 0.4476 0.91418 0.03702 0.0
H1116 H 0.476 0.89973 0.11098 0.0
C1117 C 0.42913 0.82881 0.13819 0.0
C1118 C 0.42027 0.86629 0.08522 0.0
C1119 C 0.41983 0.80886 0.1489 0.0
C1120 C 0.46743 0.94649 0.03893 0.0
C1121 C 0.45736 0.92621 0.04871 0.0
C1122 C 0.46019 0.89103 0.10351 0.0
C1123 C 0.41988 0.83616 0.11712 0.0
C1124 C 0.43029 0.85798 0.10535 0.0
C1125 C 0.46031 0.92139 0.07289 0.0
C1126 C 0.45 0.89937 0.08371 0.0
H1127 H 0.3761 0.79253 0.1105 0.0
H1128 H 0.39216 0.82616 0.09174 0.0
H1129 H 0.4599 0.86618 0.12891 0.0
H1130 H 0.49339 0.97028 0.08859 0.0
H1131 H 0.47611 0.93581 0.10547 0.0
C1132 C 0.12495 0.24629 0.60173 0.0
C1133 C 0.11212 0.25708 0.61903 0.0
C1134 C 0.11641 0.22526 0.59232 0.0
C1135 C 0.06778 0.17724 0.60186 0.0
H1136 H 0.0928 0.15602 0.54248 0.0
C1137 C 0.0384 0.08726 0.56758 0.0
C1138 C 0.03928 0.08201 0.54306 0.0
C1139 C 0.04761 0.10824 0.57657 0.0
C1140 C 0.08514 0.16159 0.55891 0.0
H1141 H 0.07951 0.2534 0.63933 0.0
H1142 H 0.06404 0.21821 0.62194 0.0
H1143 H 0.10659 0.19273 0.5571 0.0
H1144 H 0.05093 0.09519 0.50883 0.0
H1145 H 0.06614 0.13163 0.5241 0.0
H1146 H 0.04508 0.14677 0.60275 0.0
C1147 C 0.0813 0.22533 0.61617 0.0
C1148 C 0.09356 0.18288 0.56774 0.0
C1149 C 0.09007 0.24613 0.62595 0.0
C1150 C 0.04974 0.09849 0.52782 0.0
C1151 C 0.05881 0.11955 0.53677 0.0
C1152 C 0.05892 0.15623 0.59271 0.0
C1153 C 0.09437 0.21417 0.59936 0.0
C1154 C 0.08516 0.19124 0.58952 0.0
C1155 C 0.05793 0.12497 0.56138 0.0
C1156 C 0.06746 0.1478 0.57108 0.0
H1157 H 0.14175 0.25405 0.59527 0.0
H1158 H 0.12753 0.21771 0.57975 0.0
H1159 H 0.06088 0.18221 0.6189 0.0
H1160 H 0.03055 0.07511 0.57998 0.0
H1161 H 0.04681 0.11108 0.59562 0.0
C1162 C 0.6585 0.26225 0.45204 0.0
C1163 C 0.68165 0.26276 0.45876 0.0
C1164 C 0.64636 0.27929 0.45893 0.0
C1165 C 0.64089 0.32151 0.50244 0.0
H1166 H 0.60839 0.34562 0.45192 0.0
C1167 C 0.58658 0.39403 0.51175 0.0
C1168 C 0.56692 0.39225 0.49727 0.0
C1169 C 0.60087 0.37753 0.51087 0.0
C1170 C 0.6172 0.33888 0.46622 0.0
H1171 H 0.71058 0.2804 0.47821 0.0
H1172 H 0.68899 0.31112 0.49031 0.0
H1173 H 0.63545 0.31963 0.44199 0.0
H1174 H 0.54531 0.37098 0.47253 0.0
H1175 H 0.56962 0.34188 0.4719 0.0
H1176 H 0.62204 0.34049 0.52672 0.0
C1177 C 0.68044 0.29742 0.47975 0.0
C1178 C 0.6328 0.32429 0.46051 0.0
C1179 C 0.69267 0.28015 0.47284 0.0
C1180 C 0.56028 0.37277 0.484 0.0
C1181 C 0.57436 0.35625 0.48335 0.0
C1182 C 0.62514 0.33619 0.5082 0.0
C1183 C 0.65733 0.29707 0.47252 0.0
C1184 C 0.64423 0.31513 0.47861 0.0
C1185 C 0.59539 0.35912 0.49568 0.0
C1186 C 0.61276 0.34443 0.49012 0.0
H1187 H 0.64983 0.24857 0.4415 0.0
H1188 H 0.62837 0.2786 0.45364 0.0
H1189 H 0.64957 0.31439 0.51656 0.0
H1190 H 0.59176 0.40879 0.52245 0.0
H1191 H 0.61699 0.37995 0.52062 0.0
loop_
_geom_bond_atom_site_label_1
_geom_bond_atom_site_label_2
_geom_bond_distance
_geom_bond_site_symmetry_2
_ccdc_geom_bond_type
C0 C1 1.386 . S
C0 C2 1.397 . S
C0 H24 0.931 . S
C1 C0 1.386 . S
C1 C5 1.397 . S
C2 C0 1.397 . S
C2 C3 1.384 . S
C2 H25 0.930 . S
C3 C2 1.384 . S
C3 C4 1.377 . S
C3 C6 1.481 . S
C4 C3 1.377 . S
C4 C5 1.389 . S
C4 H26 0.929 . S
C5 C1 1.397 . S
C5 C4 1.389 . S
C5 H27 0.931 . S
C6 C3 1.481 . S
C6 C7 1.387 . S
C6 C11 1.390 . S
C7 C6 1.387 . S
C7 C8 1.401 . S
C7 H28 0.930 . S
C8 C7 1.401 . S
C8 C9 1.376 . S
C8 C17 1.511 . S
C9 C8 1.376 . S
C9 C10 1.392 . S
C9 H30 0.931 . S
C10 C9 1.392 . S
C10 C11 1.361 . S
C10 C12 1.500 . S
C11 C6 1.390 . S
C11 C10 1.361 . S
C11 H29 0.931 . S
C12 C10 1.500 . S
C12 C13 1.371 . S
C12 C14 1.365 . S
C13 C12 1.371 . S
C13 C23 1.386 . S
C13 H31 0.931 . S
C14 C12 1.365 . S
C14 C15 1.409 . S
C14 H32 0.929 . S
C15 C14 1.409 . S
C15 C16 1.380 . S
C15 H33 0.930 . S
C16 C15 1.380 . S
C16 C23 1.357 . S
C17 C8 1.511 . S
C17 C18 1.341 . S
C17 C19 1.371 . S
C18 C17 1.341 . S
C18 C22 1.394 . S
C18 H34 0.930 . S
C19 C17 1.371 . S
C19 C20 1.392 . S
C19 H35 0.931 . S
C20 C19 1.392 . S
C20 C21 1.331 . S
C20 H38 0.932 . S
C21 C20 1.331 . S
C21 C22 1.336 . S
C22 C18 1.394 . S
C22 C21 1.336 . S
C22 H37 0.929 . S
C23 C13 1.386 . S
C23 C16 1.357 . S
C23 H36 0.928 . S
H24 C0 0.931 . S
H25 C2 0.930 . S
H26 C4 0.929 . S
H27 C5 0.931 . S
H28 C7 0.930 . S
H29 C11 0.931 . S
H30 C9 0.931 . S
H31 C13 0.931 . S
H32 C14 0.929 . S
H33 C15 0.930 . S
H34 C18 0.930 . S
H35 C19 0.931 . S
H36 C23 0.928 . S
H37 C22 0.929 . S
H38 C20 0.932 . S
C39 C40 1.386 . S
C39 C41 1.397 . S
C39 H63 0.931 . S
C40 C39 1.386 . S
C40 C44 1.397 . S
C41 C39 1.397 . S
C41 C42 1.384 . S
C41 H64 0.930 . S
C42 C41 1.384 . S
C42 C43 1.377 . S
C42 C45 1.481 . S
C43 C42 1.377 . S
C43 C44 1.389 . S
C43 H65 0.929 . S
C44 C40 1.397 . S
C44 C43 1.389 . S
C44 H66 0.931 . S
C45 C42 1.481 . S
C45 C46 1.387 . S
C45 C50 1.390 . S
C46 C45 1.387 . S
C46 C47 1.401 . S
C46 H67 0.930 . S
C47 C46 1.401 . S
C47 C48 1.376 . S
C47 C56 1.511 . S
C48 C47 1.376 . S
C48 C49 1.392 . S
C48 H69 0.931 . S
C49 C48 1.392 . S
C49 C50 1.361 . S
C49 C51 1.500 . S
C50 C45 1.390 . S
C50 C49 1.361 . S
C50 H68 0.931 . S
C51 C49 1.500 . S
C51 C52 1.371 . S
C51 C53 1.365 . S
C52 C51 1.371 . S
C52 C62 1.386 . S
C52 H70 0.931 . S
C53 C51 1.365 . S
C53 C54 1.409 . S
C53 H71 0.929 . S
C54 C53 1.409 . S
C54 C55 1.380 . S
C54 H72 0.930 . S
C55 C54 1.380 . S
C55 C62 1.357 . S
C56 C47 1.511 . S
C56 C57 1.341 . S
C56 C58 1.371 . S
C57 C56 1.341 . S
C57 C61 1.394 . S
C57 H73 0.930 . S
C58 C56 1.371 . S
C58 C59 1.392 . S
C58 H74 0.931 . S
C59 C58 1.392 . S
C59 C60 1.331 . S
C59 H77 0.932 . S
C60 C59 1.331 . S
C60 C61 1.336 . S
C61 C57 1.394 . S
C61 C60 1.336 . S
C61 H76 0.929 . S
C62 C52 1.386 . S
C62 C55 1.357 . S
C62 H75 0.928 . S
H63 C39 0.931 . S
H64 C41 0.930 . S
H65 C43 0.929 . S
H66 C44 0.931 . S
H67 C46 0.930 . S
H68 C50 0.931 . S
H69 C48 0.931 . S
H70 C52 0.931 . S
H71 C53 0.929 . S
H72 C54 0.930 . S
H73 C57 0.930 . S
H74 C58 0.931 . S
H75 C62 0.928 . S
H76 C61 0.929 . S
H77 C59 0.932 . S
C78 C79 1.386 . S
C78 C80 1.397 . S
C78 H102 0.931 . S
C79 C78 1.386 . S
C79 C83 1.397 . S
C80 C78 1.397 . S
C80 C81 1.384 . S
C80 H103 0.930 . S
C81 C80 1.384 . S
C81 C82 1.377 . S
C81 C84 1.481 . S
C82 C81 1.377 . S
C82 C83 1.389 . S
C82 H104 0.929 . S
C83 C79 1.397 . S
C83 C82 1.389 . S
C83 H105 0.931 . S
C84 C81 1.481 . S
C84 C85 1.387 . S
C84 C89 1.390 . S
C85 C84 1.387 . S
C85 C86 1.401 . S
C85 H106 0.930 . S
C86 C85 1.401 . S
C86 C87 1.376 . S
C86 C95 1.511 . S
C87 C86 1.376 . S
C87 C88 1.392 . S
C87 H108 0.931 . S
C88 C87 1.392 . S
C88 C89 1.361 . S
C88 C90 1.500 . S
C89 C84 1.390 . S
C89 C88 1.361 . S
C89 H107 0.931 . S
C90 C88 1.500 . S
C90 C91 1.371 . S
C90 C92 1.365 . S
C91 C90 1.371 . S
C91 C101 1.386 . S
C91 H109 0.931 . S
C92 C90 1.365 . S
C92 C93 1.409 . S
C92 H110 0.929 . S
C93 C92 1.409 . S
C93 C94 1.380 . S
C93 H111 0.930 . S
C94 C93 1.380 . S
C94 C101 1.357 . S
C95 C86 1.511 . S
C95 C96 1.341 . S
C95 C97 1.371 . S
C96 C95 1.341 . S
C96 C100 1.394 . S
C96 H112 0.930 . S
C97 C95 1.371 . S
C97 C98 1.392 . S
C97 H113 0.931 . S
C98 C97 1.392 . S
C98 C99 1.331 . S
C98 H116 0.932 . S
C99 C98 1.331 . S
C99 C100 1.336 . S
C100 C96 1.394 . S
C100 C99 1.336 . S
C100 H115 0.929 . S
C101 C91 1.386 . S
C101 C94 1.357 . S
C101 H114 0.928 . S
H102 C78 0.931 . S
H103 C80 0.930 . S
H104 C82 0.929 . S
H105 C83 0.931 . S
H106 C85 0.930 . S
H107 C89 0.931 . S
H108 C87 0.931 . S
H109 C91 0.931 . S
H110 C92 0.929 . S
H111 C93 0.930 . S
H112 C96 0.930 . S
H113 C97 0.931 . S
H114 C101 0.928 . S
H115 C100 0.929 . S
H116 C98 0.932 . S
C117 C118 1.386 . S
C117 C119 1.397 . S
C117 H141 0.931 . S
C118 C117 1.386 . S
C118 C122 1.397 . S
C119 C117 1.397 . S
C119 C120 1.384 . S
C119 H142 0.930 . S
C120 C119 1.384 . S
C120 C121 1.377 . S
C120 C123 1.481 . S
C121 C120 1.377 . S
C121 C122 1.389 . S
C121 H143 0.929 . S
C122 C118 1.397 . S
C122 C121 1.389 . S
C122 H144 0.931 . S
C123 C120 1.481 . S
C123 C124 1.387 . S
C123 C128 1.390 . S
C124 C123 1.387 . S
C124 C125 1.401 . S
C124 H145 0.930 . S
C125 C124 1.401 . S
C125 C126 1.376 . S
C125 C134 1.511 . S
C126 C125 1.376 . S
C126 C127 1.392 . S
C126 H147 0.931 . S
C127 C126 1.392 . S
C127 C128 1.361 . S
C127 C129 1.500 . S
C128 C123 1.390 . S
C128 C127 1.361 . S
C128 H146 0.931 . S
C129 C127 1.500 . S
C129 C130 1.371 . S
C129 C131 1.365 . S
C130 C129 1.371 . S
C130 C140 1.386 . S
C130 H148 0.931 . S
C131 C129 1.365 . S
C131 C132 1.409 . S
C131 H149 0.929 . S
C132 C131 1.409 . S
C132 C133 1.380 . S
C132 H150 0.930 . S
C133 C132 1.380 . S
C133 C140 1.357 . S
C134 C125 1.511 . S
C134 C135 1.341 . S
C134 C136 1.371 . S
C135 C134 1.341 . S
C135 C139 1.394 . S
C135 H151 0.930 . S
C136 C134 1.371 . S
C136 C137 1.392 . S
C136 H152 0.931 . S
C137 C136 1.392 . S
C137 C138 1.331 . S
C137 H155 0.932 . S
C138 C137 1.331 . S
C138 C139 1.336 . S
C139 C135 1.394 . S
C139 C138 1.336 . S
C139 H154 0.929 . S
C140 C130 1.386 . S
C140 C133 1.357 . S
C140 H153 0.928 . S
H141 C117 0.931 . S
H142 C119 0.930 . S
H143 C121 0.929 . S
H144 C122 0.931 . S
H145 C124 0.930 . S
H146 C128 0.931 . S
H147 C126 0.931 . S
H148 C130 0.931 . S
H149 C131 0.929 . S
H150 C132 0.930 . S
H151 C135 0.930 . S
H152 C136 0.931 . S
H153 C140 0.928 . S
H154 C139 0.929 . S
H155 C137 0.932 . S
C156 C157 1.386 . S
C156 C158 1.397 . S
C156 H180 0.931 . S
C157 C156 1.386 . S
C157 C161 1.397 . S
C158 C156 1.397 . S
C158 C159 1.384 . S
C158 H181 0.930 . S
C159 C158 1.384 . S
C159 C160 1.377 . S
C159 C162 1.481 . S
C160 C159 1.377 . S
C160 C161 1.389 . S
C160 H182 0.929 . S
C161 C157 1.397 . S
C161 C160 1.389 . S
C161 H183 0.931 . S
C162 C159 1.481 . S
C162 C163 1.387 . S
C162 C167 1.390 . S
C163 C162 1.387 . S
C163 C164 1.401 . S
C163 H184 0.930 . S
C164 C163 1.401 . S
C164 C165 1.376 . S
C164 C173 1.511 . S
C165 C164 1.376 . S
C165 C166 1.392 . S
C165 H186 0.931 . S
C166 C165 1.392 . S
C166 C167 1.361 . S
C166 C168 1.500 . S
C167 C162 1.390 . S
C167 C166 1.361 . S
C167 H185 0.931 . S
C168 C166 1.500 . S
C168 C169 1.371 . S
C168 C170 1.365 . S
C169 C168 1.371 . S
C169 C179 1.386 . S
C169 H187 0.931 . S
C170 C168 1.365 . S
C170 C171 1.409 . S
C170 H188 0.929 . S
C171 C170 1.409 . S
C171 C172 1.380 . S
C171 H189 0.930 . S
C172 C171 1.380 . S
C172 C179 1.357 . S
C173 C164 1.511 . S
C173 C174 1.341 . S
C173 C175 1.371 . S
C174 C173 1.341 . S
C174 C178 1.394 . S
C174 H190 0.930 . S
C175 C173 1.371 . S
C175 C176 1.392 . S
C175 H191 0.931 . S
C176 C175 1.392 . S
C176 C177 1.331 . S
C176 H194 0.932 . S
C177 C176 1.331 . S
C177 C178 1.336 . S
C178 C174 1.394 . S
C178 C177 1.336 . S
C178 H193 0.929 . S
C179 C169 1.386 . S
C179 C172 1.357 . S
C179 H192 0.928 . S
H180 C156 0.931 . S
H181 C158 0.930 . S
H182 C160 0.929 . S
H183 C161 0.931 . S
H184 C163 0.930 . S
H185 C167 0.931 . S
H186 C165 0.931 . S
H187 C169 0.931 . S
H188 C170 0.929 . S
H189 C171 0.930 . S
H190 C174 0.930 . S
H191 C175 0.931 . S
H192 C179 0.928 . S
H193 C178 0.929 . S
H194 C176 0.932 . S
C195 C196 1.386 . S
C195 C197 1.397 . S
C195 H219 0.931 . S
C196 C195 1.386 . S
C196 C200 1.397 . S
C197 C195 1.397 . S
C197 C198 1.384 . S
C197 H220 0.930 . S
C198 C197 1.384 . S
C198 C199 1.377 . S
C198 C201 1.481 . S
C199 C198 1.377 . S
C199 C200 1.389 . S
C199 H221 0.929 . S
C200 C196 1.397 . S
C200 C199 1.389 . S
C200 H222 0.931 . S
C201 C198 1.481 . S
C201 C202 1.387 . S
C201 C206 1.390 . S
C202 C201 1.387 . S
C202 C203 1.401 . S
C202 H223 0.930 . S
C203 C202 1.401 . S
C203 C204 1.376 . S
C203 C212 1.511 . S
C204 C203 1.376 . S
C204 C205 1.392 . S
C204 H225 0.931 . S
C205 C204 1.392 . S
C205 C206 1.361 . S
C205 C207 1.500 . S
C206 C201 1.390 . S
C206 C205 1.361 . S
C206 H224 0.931 . S
C207 C205 1.500 . S
C207 C208 1.371 . S
C207 C209 1.365 . S
C208 C207 1.371 . S
C208 C218 1.386 . S
C208 H226 0.931 . S
C209 C207 1.365 . S
C209 C210 1.409 . S
C209 H227 0.929 . S
C210 C209 1.409 . S
C210 C211 1.380 . S
C210 H228 0.930 . S
C211 C210 1.380 . S
C211 C218 1.357 . S
C212 C203 1.511 . S
C212 C213 1.341 . S
C212 C214 1.371 . S
C213 C212 1.341 . S
C213 C217 1.394 . S
C213 H229 0.930 . S
C214 C212 1.371 . S
C214 C215 1.392 . S
C214 H230 0.931 . S
C215 C214 1.392 . S
C215 C216 1.331 . S
C215 H233 0.932 . S
C216 C215 1.331 . S
C216 C217 1.336 . S
C217 C213 1.394 . S
C217 C216 1.336 . S
C217 H232 0.929 . S
C218 C208 1.386 . S
C218 C211 1.357 . S
C218 H231 0.928 . S
H219 C195 0.931 . S
H220 C197 0.930 . S
H221 C199 0.929 . S
H222 C200 0.931 . S
H223 C202 0.930 . S
H224 C206 0.931 . S
H225 C204 0.931 . S
H226 C208 0.931 . S
H227 C209 0.929 . S
H228 C210 0.930 . S
H229 C213 0.930 . S
H230 C214 0.931 . S
H231 C218 0.928 . S
H232 C217 0.929 . S
H233 C215 0.932 . S
C234 C235 1.386 . S
C234 C236 1.397 . S
C234 H258 0.931 . S
C235 C234 1.386 . S
C235 C239 1.397 . S
C236 C234 1.397 . S
C236 C237 1.384 . S
C236 H259 0.930 . S
C237 C236 1.384 . S
C237 C238 1.377 . S
C237 C240 1.481 . S
C238 C237 1.377 . S
C238 C239 1.389 . S
C238 H260 0.929 . S
C239 C235 1.397 . S
C239 C238 1.389 . S
C239 H261 0.931 . S
C240 C237 1.481 . S
C240 C241 1.387 . S
C240 C245 1.390 . S
C241 C240 1.387 . S
C241 C242 1.401 . S
C241 H262 0.930 . S
C242 C241 1.401 . S
C242 C243 1.376 . S
C242 C251 1.511 . S
C243 C242 1.376 . S
C243 C244 1.392 . S
C243 H264 0.931 . S
C244 C243 1.392 . S
C244 C245 1.361 . S
C244 C246 1.500 . S
C245 C240 1.390 . S
C245 C244 1.361 . S
C245 H263 0.931 . S
C246 C244 1.500 . S
C246 C247 1.371 . S
C246 C248 1.365 . S
C247 C246 1.371 . S
C247 C257 1.386 . S
C247 H265 0.931 . S
C248 C246 1.365 . S
C248 C249 1.409 . S
C248 H266 0.929 . S
C249 C248 1.409 . S
C249 C250 1.380 . S
C249 H267 0.930 . S
C250 C249 1.380 . S
C250 C257 1.357 . S
C251 C242 1.511 . S
C251 C252 1.341 . S
C251 C253 1.371 . S
C252 C251 1.341 . S
C252 C256 1.394 . S
C252 H268 0.930 . S
C253 C251 1.371 . S
C253 C254 1.392 . S
C253 H269 0.931 . S
C254 C253 1.392 . S
C254 C255 1.331 . S
C254 H272 0.932 . S
C255 C254 1.331 . S
C255 C256 1.336 . S
C256 C252 1.394 . S
C256 C255 1.336 . S
C256 H271 0.929 . S
C257 C247 1.386 . S
C257 C250 1.357 . S
C257 H270 0.928 . S
H258 C234 0.931 . S
H259 C236 0.930 . S
H260 C238 0.929 . S
H261 C239 0.931 . S
H262 C241 0.930 . S
H263 C245 0.931 . S
H264 C243 0.931 . S
H265 C247 0.931 . S
H266 C248 0.929 . S
H267 C249 0.930 . S
H268 C252 0.930 . S
H269 C253 0.931 . S
H270 C257 0.928 . S
H271 C256 0.929 . S
H272 C254 0.932 . S
C273 C274 1.386 . S
C273 C275 1.397 . S
C273 H297 0.931 . S
C274 C273 1.386 . S
C274 C278 1.397 . S
C275 C273 1.397 . S
C275 C276 1.384 . S
C275 H298 0.930 . S
C276 C275 1.384 . S
C276 C277 1.377 . S
C276 C279 1.481 . S
C277 C276 1.377 . S
C277 C278 1.389 . S
C277 H299 0.929 . S
C278 C274 1.397 . S
C278 C277 1.389 . S
C278 H300 0.931 . S
C279 C276 1.481 . S
C279 C280 1.387 . S
C279 C284 1.390 . S
C280 C279 1.387 . S
C280 C281 1.401 . S
C280 H301 0.930 . S
C281 C280 1.401 . S
C281 C282 1.376 . S
C281 C290 1.511 . S
C282 C281 1.376 . S
C282 C283 1.392 . S
C282 H303 0.931 . S
C283 C282 1.392 . S
C283 C284 1.361 . S
C283 C285 1.500 . S
C284 C279 1.390 . S
C284 C283 1.361 . S
C284 H302 0.931 . S
C285 C283 1.500 . S
C285 C286 1.371 . S
C285 C287 1.365 . S
C286 C285 1.371 . S
C286 C296 1.386 . S
C286 H304 0.931 . S
C287 C285 1.365 . S
C287 C288 1.409 . S
C287 H305 0.929 . S
C288 C287 1.409 . S
C288 C289 1.380 . S
C288 H306 0.930 . S
C289 C288 1.380 . S
C289 C296 1.357 . S
C290 C281 1.511 . S
C290 C291 1.341 . S
C290 C292 1.371 . S
C291 C290 1.341 . S
C291 C295 1.394 . S
C291 H307 0.930 . S
C292 C290 1.371 . S
C292 C293 1.392 . S
C292 H308 0.931 . S
C293 C292 1.392 . S
C293 C294 1.331 . S
C293 H311 0.932 . S
C294 C293 1.331 . S
C294 C295 1.336 . S
C295 C291 1.394 . S
C295 C294 1.336 . S
C295 H310 0.929 . S
C296 C286 1.386 . S
C296 C289 1.357 . S
C296 H309 0.928 . S
H297 C273 0.931 . S
H298 C275 0.930 . S
H299 C277 0.929 . S
H300 C278 0.931 . S
H301 C280 0.930 . S
H302 C284 0.931 . S
H303 C282 0.931 . S
H304 C286 0.931 . S
H305 C287 0.929 . S
H306 C288 0.930 . S
H307 C291 0.930 . S
H308 C292 0.931 . S
H309 C296 0.928 . S
H310 C295 0.929 . S
H311 C293 0.932 . S
Sm312 C314 2.846 . S
Sm312 O332 2.543 . S
Sm312 O333 2.450 . S
Sm312 O334 2.681 1_545 S
Sm312 O335 2.464 1_545 S
Sm312 O336 2.396 . S
Sm312 O340 2.386 1_455 S
Sm312 O343 2.408 1_445 S
Sm313 C323 2.846 1_545 S
Sm313 O334 2.386 1_645 S
Sm313 O337 2.408 1_655 S
Sm313 O338 2.543 1_545 S
Sm313 O339 2.450 1_545 S
Sm313 O340 2.681 . S
Sm313 O341 2.464 . S
Sm313 O342 2.396 1_545 S
C314 Sm312 2.846 . S
C314 C315 1.506 . S
C314 O332 1.261 . S
C314 O333 1.242 . S
C315 C314 1.506 . S
C315 C316 1.358 . S
C315 C320 1.382 . S
C316 C315 1.358 . S
C316 C317 1.385 . S
C316 H344 0.930 . S
C317 C316 1.385 . S
C317 C318 1.395 . S
C317 H345 0.929 . S
C318 C317 1.395 . S
C318 C319 1.335 . S
C319 C318 1.335 . S
C319 C320 1.398 . S
C319 H346 0.930 . S
C320 C315 1.382 . S
C320 C319 1.398 . S
C320 H347 0.929 . S
C321 O334 1.271 . S
C321 O335 1.251 . S
C322 O336 1.252 . S
C322 O337 1.272 . S
C323 Sm313 2.846 1_565 S
C323 C324 1.506 . S
C323 O338 1.261 . S
C323 O339 1.242 . S
C324 C323 1.506 . S
C324 C325 1.358 . S
C324 C329 1.382 . S
C325 C324 1.358 . S
C325 C326 1.385 . S
C325 H348 0.930 . S
C326 C325 1.385 . S
C326 C327 1.395 . S
C326 H349 0.929 . S
C327 C326 1.395 . S
C327 C328 1.335 . S
C328 C327 1.335 . S
C328 C329 1.398 . S
C328 H350 0.930 . S
C329 C324 1.382 . S
C329 C328 1.398 . S
C329 H351 0.929 . S
C330 O340 1.271 . S
C330 O341 1.251 . S
C331 O342 1.252 . S
C331 O343 1.272 . S
O332 Sm312 2.543 . S
O332 C314 1.261 . S
O333 Sm312 2.450 . S
O333 C314 1.242 . S
O334 Sm312 2.681 1_565 S
O334 Sm313 2.386 1_465 S
O334 C321 1.271 . S
O335 Sm312 2.464 1_565 S
O335 C321 1.251 . S
O336 Sm312 2.396 . S
O336 C322 1.252 . S
O337 Sm313 2.408 1_455 S
O337 C322 1.272 . S
O338 Sm313 2.543 1_565 S
O338 C323 1.261 . S
O339 Sm313 2.450 1_565 S
O339 C323 1.242 . S
O340 Sm312 2.386 1_655 S
O340 Sm313 2.681 . S
O340 C330 1.271 . S
O341 Sm313 2.464 . S
O341 C330 1.251 . S
O342 Sm313 2.396 1_565 S
O342 C331 1.252 . S
O343 Sm312 2.408 1_665 S
O343 C331 1.272 . S
H344 C316 0.930 . S
H345 C317 0.929 . S
H346 C319 0.930 . S
H347 C320 0.929 . S
H348 C325 0.930 . S
H349 C326 0.929 . S
H350 C328 0.930 . S
H351 C329 0.929 . S
Sm352 C354 2.846 . S
Sm352 O372 2.543 . S
Sm352 O373 2.450 . S
Sm352 O374 2.681 1_545 S
Sm352 O375 2.464 1_545 S
Sm352 O376 2.396 . S
Sm352 O380 2.386 1_554 S
Sm352 O383 2.408 1_544 S
Sm353 C363 2.846 1_545 S
Sm353 O374 2.386 1_546 S
Sm353 O377 2.408 1_556 S
Sm353 O378 2.543 1_545 S
Sm353 O379 2.449 1_545 S
Sm353 O380 2.681 . S
Sm353 O381 2.464 . S
Sm353 O382 2.396 1_545 S
C354 Sm352 2.846 . S
C354 C355 1.506 . S
C354 O372 1.261 . S
C354 O373 1.242 . S
C355 C354 1.506 . S
C355 C356 1.358 . S
C355 C360 1.382 . S
C356 C355 1.358 . S
C356 C357 1.385 . S
C356 H384 0.930 . S
C357 C356 1.385 . S
C357 C358 1.395 . S
C357 H385 0.929 . S
C358 C357 1.395 . S
C358 C359 1.335 . S
C359 C358 1.335 . S
C359 C360 1.398 . S
C359 H386 0.930 . S
C360 C355 1.382 . S
C360 C359 1.398 . S
C360 H387 0.929 . S
C361 O374 1.271 . S
C361 O375 1.251 . S
C362 O376 1.252 . S
C362 O377 1.272 . S
C363 Sm353 2.846 1_565 S
C363 C364 1.506 . S
C363 O378 1.261 . S
C363 O379 1.247 . S
C364 C363 1.506 . S
C364 C365 1.358 . S
C364 C369 1.382 . S
C365 C364 1.358 . S
C365 C366 1.385 . S
C365 H388 0.930 . S
C366 C365 1.385 . S
C366 C367 1.395 . S
C366 H389 0.929 . S
C367 C366 1.395 . S
C367 C368 1.335 . S
C368 C367 1.335 . S
C368 C369 1.398 . S
C368 H390 0.930 . S
C369 C364 1.382 . S
C369 C368 1.398 . S
C369 H391 0.929 . S
C370 O380 1.271 . S
C370 O381 1.251 . S
C371 O382 1.252 . S
C371 O383 1.272 . S
O372 Sm352 2.543 . S
O372 C354 1.261 . S
O373 Sm352 2.450 . S
O373 C354 1.242 . S
O374 Sm352 2.681 1_565 S
O374 Sm353 2.386 1_564 S
O374 C361 1.271 . S
O375 Sm352 2.464 1_565 S
O375 C361 1.251 . S
O376 Sm352 2.396 . S
O376 C362 1.252 . S
O377 Sm353 2.408 1_554 S
O377 C362 1.272 . S
O378 Sm353 2.543 1_565 S
O378 C363 1.261 . S
O379 Sm353 2.449 1_565 S
O379 C363 1.247 . S
O380 Sm352 2.386 1_556 S
O380 Sm353 2.681 . S
O380 C370 1.271 . S
O381 Sm353 2.464 . S
O381 C370 1.251 . S
O382 Sm353 2.396 1_565 S
O382 C371 1.252 . S
O383 Sm352 2.408 1_566 S
O383 C371 1.272 . S
H384 C356 0.930 . S
H385 C357 0.929 . S
H386 C359 0.930 . S
H387 C360 0.929 . S
H388 C365 0.930 . S
H389 C366 0.929 . S
H390 C368 0.930 . S
H391 C369 0.929 . S
Sm392 C394 2.846 . S
Sm392 O412 2.543 . S
Sm392 O413 2.450 . S
Sm392 O414 2.681 . S
Sm392 O415 2.464 . S
Sm392 O416 2.396 . S
Sm392 O420 2.386 . S
Sm392 O423 2.408 . S
Sm393 C403 2.846 . S
Sm393 O414 2.386 . S
Sm393 O417 2.408 . S
Sm393 O418 2.543 . S
Sm393 O419 2.450 . S
Sm393 O420 2.681 . S
Sm393 O421 2.464 . S
Sm393 O422 2.396 . S
C394 Sm392 2.846 . S
C394 C395 1.506 . S
C394 O412 1.261 . S
C394 O413 1.242 . S
C395 C394 1.506 . S
C395 C396 1.358 . S
C395 C400 1.382 . S
C396 C395 1.358 . S
C396 C397 1.385 . S
C396 H424 0.930 . S
C397 C396 1.385 . S
C397 C398 1.395 . S
C397 H425 0.929 . S
C398 C397 1.395 . S
C398 C399 1.335 . S
C399 C398 1.335 . S
C399 C400 1.398 . S
C399 H426 0.930 . S
C400 C395 1.382 . S
C400 C399 1.398 . S
C400 H427 0.929 . S
C401 O414 1.271 . S
C401 O415 1.251 . S
C402 O416 1.252 . S
C402 O417 1.272 . S
C403 Sm393 2.846 . S
C403 C404 1.506 . S
C403 O418 1.261 . S
C403 O419 1.242 . S
C404 C403 1.506 . S
C404 C405 1.358 . S
C404 C409 1.382 . S
C405 C404 1.358 . S
C405 C406 1.385 . S
C405 H428 0.930 . S
C406 C405 1.385 . S
C406 C407 1.395 . S
C406 H429 0.929 . S
C407 C406 1.395 . S
C407 C408 1.335 . S
C408 C407 1.335 . S
C408 C409 1.398 . S
C408 H430 0.930 . S
C409 C404 1.382 . S
C409 C408 1.398 . S
C409 H431 0.929 . S
C410 O420 1.271 . S
C410 O421 1.251 . S
C411 O422 1.252 . S
C411 O423 1.272 . S
O412 Sm392 2.543 . S
O412 C394 1.261 . S
O413 Sm392 2.450 . S
O413 C394 1.242 . S
O414 Sm392 2.681 . S
O414 Sm393 2.386 . S
O414 C401 1.271 . S
O415 Sm392 2.464 . S
O415 C401 1.251 . S
O416 Sm392 2.396 . S
O416 C402 1.252 . S
O417 Sm393 2.408 . S
O417 C402 1.272 . S
O418 Sm393 2.543 . S
O418 C403 1.261 . S
O419 Sm393 2.450 . S
O419 C403 1.242 . S
O420 Sm392 2.386 . S
O420 Sm393 2.681 . S
O420 C410 1.271 . S
O421 Sm393 2.464 . S
O421 C410 1.251 . S
O422 Sm393 2.396 . S
O422 C411 1.252 . S
O423 Sm392 2.408 . S
O423 C411 1.272 . S
H424 C396 0.930 . S
H425 C397 0.929 . S
H426 C399 0.930 . S
H427 C400 0.929 . S
H428 C405 0.930 . S
H429 C406 0.929 . S
H430 C408 0.930 . S
H431 C409 0.929 . S
Sm432 C434 2.846 . S
Sm432 O452 2.543 . S
Sm432 O453 2.450 . S
Sm432 O454 2.681 1_455 S
Sm432 O455 2.464 1_455 S
Sm432 O456 2.396 . S
Sm432 O460 2.386 1_554 S
Sm432 O463 2.408 1_454 S
Sm433 C443 2.846 1_455 S
Sm433 O454 2.386 1_456 S
Sm433 O457 2.408 1_556 S
Sm433 O458 2.543 1_455 S
Sm433 O459 2.450 1_455 S
Sm433 O460 2.681 . S
Sm433 O461 2.464 . S
Sm433 O462 2.396 1_455 S
C434 Sm432 2.846 . S
C434 C435 1.506 . S
C434 O452 1.261 . S
C434 O453 1.242 . S
C435 C434 1.506 . S
C435 C436 1.358 . S
C435 C440 1.382 . S
C436 C435 1.358 . S
C436 C437 1.385 . S
C436 H464 0.930 . S
C437 C436 1.385 . S
C437 C438 1.395 . S
C437 H465 0.929 . S
C438 C437 1.395 . S
C438 C439 1.335 . S
C439 C438 1.335 . S
C439 C440 1.398 . S
C439 H466 0.930 . S
C440 C435 1.382 . S
C440 C439 1.398 . S
C440 H467 0.929 . S
C441 O454 1.271 . S
C441 O455 1.251 . S
C442 O456 1.252 . S
C442 O457 1.272 . S
C443 Sm433 2.846 1_655 S
C443 C444 1.506 . S
C443 O458 1.261 . S
C443 O459 1.242 . S
C444 C443 1.506 . S
C444 C445 1.358 . S
C444 C449 1.382 . S
C445 C444 1.358 . S
C445 C446 1.385 . S
C445 H468 0.930 . S
C446 C445 1.385 . S
C446 C447 1.395 . S
C446 H469 0.929 . S
C447 C446 1.395 . S
C447 C448 1.335 . S
C448 C447 1.335 . S
C448 C449 1.398 . S
C448 H470 0.930 . S
C449 C444 1.382 . S
C449 C448 1.398 . S
C449 H471 0.929 . S
C450 O460 1.271 . S
C450 O461 1.251 . S
C451 O462 1.252 . S
C451 O463 1.272 . S
O452 Sm432 2.543 . S
O452 C434 1.261 . S
O453 Sm432 2.450 . S
O453 C434 1.242 . S
O454 Sm432 2.681 1_655 S
O454 Sm433 2.386 1_654 S
O454 C441 1.271 . S
O455 Sm432 2.464 1_655 S
O455 C441 1.251 . S
O456 Sm432 2.396 . S
O456 C442 1.252 . S
O457 Sm433 2.408 1_554 S
O457 C442 1.272 . S
O458 Sm433 2.543 1_655 S
O458 C443 1.261 . S
O459 Sm433 2.450 1_655 S
O459 C443 1.242 . S
O460 Sm432 2.386 1_556 S
O460 Sm433 2.681 . S
O460 C450 1.271 . S
O461 Sm433 2.464 . S
O461 C450 1.251 . S
O462 Sm433 2.396 1_655 S
O462 C451 1.252 . S
O463 Sm432 2.408 1_656 S
O463 C451 1.272 . S
H464 C436 0.930 . S
H465 C437 0.929 . S
H466 C439 0.930 . S
H467 C440 0.929 . S
H468 C445 0.930 . S
H469 C446 0.929 . S
H470 C448 0.930 . S
H471 C449 0.929 . S
C472 C473 1.349 . S
C472 C474 1.327 . S
C472 H497 0.950 . S
C473 C472 1.349 . S
C473 C489 1.349 . S
C474 C472 1.327 . S
C474 C493 1.429 . S
C474 H498 0.950 . S
C475 C492 1.574 . S
C475 C494 1.368 . S
C475 H499 0.949 . S
H476 C480 0.949 . S
C477 C478 1.349 . S
C477 C479 1.327 . S
C477 H500 0.950 . S
C478 C477 1.349 . S
C478 C490 1.349 . S
C479 C477 1.327 . S
C479 C495 1.429 . S
C479 H501 0.950 . S
C480 H476 0.949 . S
C480 C488 1.574 . S
C480 C496 1.368 . S
H481 C489 0.950 . S
H482 C487 0.950 . S
H483 C488 0.949 . S
H484 C490 0.950 . S
H485 C491 0.950 . S
H486 C492 0.949 . S
C487 H482 0.950 . S
C487 C489 1.327 . S
C487 C493 1.429 . S
C488 C480 1.574 . S
C488 H483 0.949 . S
C488 C494 1.368 . S
C489 C473 1.349 . S
C489 H481 0.950 . S
C489 C487 1.327 . S
C490 C478 1.349 . S
C490 H484 0.950 . S
C490 C491 1.327 . S
C491 H485 0.950 . S
C491 C490 1.327 . S
C491 C495 1.429 . S
C492 C475 1.574 . S
C492 H486 0.949 . S
C492 C496 1.368 . S
C493 C474 1.429 . S
C493 C487 1.429 . S
C493 C494 1.523 . S
C494 C475 1.368 . S
C494 C488 1.368 . S
C494 C493 1.523 . S
C495 C479 1.429 . S
C495 C491 1.429 . S
C495 C496 1.523 . S
C496 C480 1.368 . S
C496 C492 1.368 . S
C496 C495 1.523 . S
H497 C472 0.950 . S
H498 C474 0.950 . S
H499 C475 0.949 . S
H500 C477 0.950 . S
H501 C479 0.950 . S
C502 C503 1.349 . S
C502 C504 1.327 . S
C502 H527 0.950 . S
C503 C502 1.349 . S
C503 C519 1.349 . S
C504 C502 1.327 . S
C504 C523 1.429 . S
C504 H528 0.950 . S
C505 C522 1.574 . S
C505 C524 1.368 . S
C505 H529 0.949 . S
H506 C510 0.949 . S
C507 C508 1.349 . S
C507 C509 1.327 . S
C507 H530 0.950 . S
C508 C507 1.349 . S
C508 C520 1.349 . S
C509 C507 1.327 . S
C509 C525 1.429 . S
C509 H531 0.950 . S
C510 H506 0.949 . S
C510 C518 1.574 . S
C510 C526 1.368 . S
H511 C519 0.950 . S
H512 C517 0.950 . S
H513 C518 0.949 . S
H514 C520 0.950 . S
H515 C521 0.950 . S
H516 C522 0.949 . S
C517 H512 0.950 . S
C517 C519 1.327 . S
C517 C523 1.429 . S
C518 C510 1.574 . S
C518 H513 0.949 . S
C518 C524 1.368 . S
C519 C503 1.349 . S
C519 H511 0.950 . S
C519 C517 1.327 . S
C520 C508 1.349 . S
C520 H514 0.950 . S
C520 C521 1.327 . S
C521 H515 0.950 . S
C521 C520 1.327 . S
C521 C525 1.429 . S
C522 C505 1.574 . S
C522 H516 0.949 . S
C522 C526 1.368 . S
C523 C504 1.429 . S
C523 C517 1.429 . S
C523 C524 1.523 . S
C524 C505 1.368 . S
C524 C518 1.368 . S
C524 C523 1.523 . S
C525 C509 1.429 . S
C525 C521 1.429 . S
C525 C526 1.523 . S
C526 C510 1.368 . S
C526 C522 1.368 . S
C526 C525 1.523 . S
H527 C502 0.950 . S
H528 C504 0.950 . S
H529 C505 0.949 . S
H530 C507 0.950 . S
H531 C509 0.950 . S
C532 C533 1.349 . S
C532 C534 1.327 . S
C532 H557 0.950 . S
C533 C532 1.349 . S
C533 C549 1.349 . S
C534 C532 1.327 . S
C534 C553 1.429 . S
C534 H558 0.950 . S
C535 C552 1.574 . S
C535 C554 1.368 . S
C535 H559 0.949 . S
H536 C540 0.949 . S
C537 C538 1.349 . S
C537 C539 1.327 . S
C537 H560 0.950 . S
C538 C537 1.349 . S
C538 C550 1.349 . S
C539 C537 1.327 . S
C539 C555 1.429 . S
C539 H561 0.950 . S
C540 H536 0.949 . S
C540 C548 1.574 . S
C540 C556 1.368 . S
H541 C549 0.950 . S
H542 C547 0.950 . S
H543 C548 0.949 . S
H544 C550 0.950 . S
H545 C551 0.950 . S
H546 C552 0.949 . S
C547 H542 0.950 . S
C547 C549 1.327 . S
C547 C553 1.429 . S
C548 C540 1.574 . S
C548 H543 0.949 . S
C548 C554 1.368 . S
C549 C533 1.349 . S
C549 H541 0.950 . S
C549 C547 1.327 . S
C550 C538 1.349 . S
C550 H544 0.950 . S
C550 C551 1.327 . S
C551 H545 0.950 . S
C551 C550 1.327 . S
C551 C555 1.429 . S
C552 C535 1.574 . S
C552 H546 0.949 . S
C552 C556 1.368 . S
C553 C534 1.429 . S
C553 C547 1.429 . S
C553 C554 1.523 . S
C554 C535 1.368 . S
C554 C548 1.368 . S
C554 C553 1.523 . S
C555 C539 1.429 . S
C555 C551 1.429 . S
C555 C556 1.523 . S
C556 C540 1.368 . S
C556 C552 1.368 . S
C556 C555 1.523 . S
H557 C532 0.950 . S
H558 C534 0.950 . S
H559 C535 0.949 . S
H560 C537 0.950 . S
H561 C539 0.950 . S
C562 C563 1.349 . S
C562 C564 1.327 . S
C562 H587 0.950 . S
C563 C562 1.349 . S
C563 C579 1.349 . S
C564 C562 1.327 . S
C564 C583 1.429 . S
C564 H588 0.950 . S
C565 C582 1.574 . S
C565 C584 1.368 . S
C565 H589 0.949 . S
H566 C570 0.949 . S
C567 C568 1.349 . S
C567 C569 1.327 . S
C567 H590 0.950 . S
C568 C567 1.349 . S
C568 C580 1.349 . S
C569 C567 1.327 . S
C569 C585 1.429 . S
C569 H591 0.950 . S
C570 H566 0.949 . S
C570 C578 1.574 . S
C570 C586 1.368 . S
H571 C579 0.950 . S
H572 C577 0.950 . S
H573 C578 0.949 . S
H574 C580 0.950 . S
H575 C581 0.950 . S
H576 C582 0.949 . S
C577 H572 0.950 . S
C577 C579 1.327 . S
C577 C583 1.429 . S
C578 C570 1.574 . S
C578 H573 0.949 . S
C578 C584 1.368 . S
C579 C563 1.349 . S
C579 H571 0.950 . S
C579 C577 1.327 . S
C580 C568 1.349 . S
C580 H574 0.950 . S
C580 C581 1.327 . S
C581 H575 0.950 . S
C581 C580 1.327 . S
C581 C585 1.429 . S
C582 C565 1.574 . S
C582 H576 0.949 . S
C582 C586 1.368 . S
C583 C564 1.429 . S
C583 C577 1.429 . S
C583 C584 1.523 . S
C584 C565 1.368 . S
C584 C578 1.368 . S
C584 C583 1.523 . S
C585 C569 1.429 . S
C585 C581 1.429 . S
C585 C586 1.523 . S
C586 C570 1.368 . S
C586 C582 1.368 . S
C586 C585 1.523 . S
H587 C562 0.950 . S
H588 C564 0.950 . S
H589 C565 0.949 . S
H590 C567 0.950 . S
H591 C569 0.950 . S
C592 C593 1.349 . S
C592 C594 1.327 . S
C592 H617 0.950 . S
C593 C592 1.349 . S
C593 C609 1.349 . S
C594 C592 1.327 . S
C594 C613 1.429 . S
C594 H618 0.950 . S
C595 C612 1.574 . S
C595 C614 1.368 . S
C595 H619 0.949 . S
H596 C600 0.949 . S
C597 C598 1.349 . S
C597 C599 1.327 . S
C597 H620 0.950 . S
C598 C597 1.349 . S
C598 C610 1.349 . S
C599 C597 1.327 . S
C599 C615 1.429 . S
C599 H621 0.950 . S
C600 H596 0.949 . S
C600 C608 1.574 . S
C600 C616 1.368 . S
H601 C609 0.950 . S
H602 C607 0.950 . S
H603 C608 0.949 . S
H604 C610 0.950 . S
H605 C611 0.950 . S
H606 C612 0.949 . S
C607 H602 0.950 . S
C607 C609 1.327 . S
C607 C613 1.429 . S
C608 C600 1.574 . S
C608 H603 0.949 . S
C608 C614 1.368 . S
C609 C593 1.349 . S
C609 H601 0.950 . S
C609 C607 1.327 . S
C610 C598 1.349 . S
C610 H604 0.950 . S
C610 C611 1.327 . S
C611 H605 0.950 . S
C611 C610 1.327 . S
C611 C615 1.429 . S
C612 C595 1.574 . S
C612 H606 0.949 . S
C612 C616 1.368 . S
C613 C594 1.429 . S
C613 C607 1.429 . S
C613 C614 1.523 . S
C614 C595 1.368 . S
C614 C608 1.368 . S
C614 C613 1.523 . S
C615 C599 1.429 . S
C615 C611 1.429 . S
C615 C616 1.523 . S
C616 C600 1.368 . S
C616 C612 1.368 . S
C616 C615 1.523 . S
H617 C592 0.950 . S
H618 C594 0.950 . S
H619 C595 0.949 . S
H620 C597 0.950 . S
H621 C599 0.950 . S
C622 C623 1.349 . S
C622 C624 1.327 . S
C622 H647 0.950 . S
C623 C622 1.349 . S
C623 C639 1.349 . S
C624 C622 1.327 . S
C624 C643 1.429 . S
C624 H648 0.950 . S
C625 C642 1.574 . S
C625 C644 1.368 . S
C625 H649 0.949 . S
H626 C630 0.949 . S
C627 C628 1.349 . S
C627 C629 1.327 . S
C627 H650 0.950 . S
C628 C627 1.349 . S
C628 C640 1.349 . S
C629 C627 1.327 . S
C629 C645 1.429 . S
C629 H651 0.950 . S
C630 H626 0.949 . S
C630 C638 1.574 . S
C630 C646 1.368 . S
H631 C639 0.950 . S
H632 C637 0.950 . S
H633 C638 0.949 . S
H634 C640 0.950 1_545 S
H635 C641 0.950 . S
H636 C642 0.949 . S
C637 H632 0.950 . S
C637 C639 1.327 . S
C637 C643 1.429 . S
C638 C630 1.574 . S
C638 H633 0.949 . S
C638 C644 1.368 . S
C639 C623 1.349 . S
C639 H631 0.950 . S
C639 C637 1.327 . S
C640 C628 1.349 . S
C640 H634 0.950 1_565 S
C640 C641 1.327 . S
C641 H635 0.950 . S
C641 C640 1.327 . S
C641 C645 1.429 . S
C642 C625 1.574 . S
C642 H636 0.949 . S
C642 C646 1.368 . S
C643 C624 1.429 . S
C643 C637 1.429 . S
C643 C644 1.523 . S
C644 C625 1.368 . S
C644 C638 1.368 . S
C644 C643 1.523 . S
C645 C629 1.429 . S
C645 C641 1.429 . S
C645 C646 1.523 . S
C646 C630 1.368 . S
C646 C642 1.368 . S
C646 C645 1.523 . S
H647 C622 0.950 . S
H648 C624 0.950 . S
H649 C625 0.949 . S
H650 C627 0.950 . S
H651 C629 0.950 . S
C652 C653 1.349 . S
C652 C654 1.327 . S
C652 H677 0.950 . S
C653 C652 1.349 . S
C653 C669 1.349 . S
C654 C652 1.327 . S
C654 C673 1.429 . S
C654 H678 0.950 . S
C655 C672 1.574 . S
C655 C674 1.368 . S
C655 H679 0.949 . S
H656 C660 0.949 . S
C657 C658 1.349 . S
C657 C659 1.327 . S
C657 H680 0.950 . S
C658 C657 1.349 . S
C658 C670 1.349 . S
C659 C657 1.327 . S
C659 C675 1.429 . S
C659 H681 0.950 . S
C660 H656 0.949 . S
C660 C668 1.574 . S
C660 C676 1.368 . S
H661 C669 0.950 . S
H662 C667 0.950 . S
H663 C668 0.949 . S
H664 C670 0.950 . S
H665 C671 0.950 . S
H666 C672 0.949 . S
C667 H662 0.950 . S
C667 C669 1.327 . S
C667 C673 1.429 . S
C668 C660 1.574 . S
C668 H663 0.949 . S
C668 C674 1.368 . S
C669 C653 1.349 . S
C669 H661 0.950 . S
C669 C667 1.327 . S
C670 C658 1.349 . S
C670 H664 0.950 . S
C670 C671 1.327 . S
C671 H665 0.950 . S
C671 C670 1.327 . S
C671 C675 1.429 . S
C672 C655 1.574 . S
C672 H666 0.949 . S
C672 C676 1.368 . S
C673 C654 1.429 . S
C673 C667 1.429 . S
C673 C674 1.523 . S
C674 C655 1.368 . S
C674 C668 1.368 . S
C674 C673 1.523 . S
C675 C659 1.429 . S
C675 C671 1.429 . S
C675 C676 1.523 . S
C676 C660 1.368 . S
C676 C672 1.368 . S
C676 C675 1.523 . S
H677 C652 0.950 . S
H678 C654 0.950 . S
H679 C655 0.949 . S
H680 C657 0.950 . S
H681 C659 0.950 . S
C682 C683 1.349 . S
C682 C684 1.327 . S
C682 H707 0.950 . S
C683 C682 1.349 . S
C683 C699 1.349 . S
C684 C682 1.327 . S
C684 C703 1.429 . S
C684 H708 0.950 . S
C685 C702 1.574 . S
C685 C704 1.368 . S
C685 H709 0.949 . S
H686 C690 0.949 . S
C687 C688 1.349 . S
C687 C689 1.327 . S
C687 H710 0.950 . S
C688 C687 1.349 . S
C688 C700 1.349 . S
C689 C687 1.327 . S
C689 C705 1.429 . S
C689 H711 0.950 . S
C690 H686 0.949 . S
C690 C698 1.574 . S
C690 C706 1.368 . S
H691 C699 0.950 . S
H692 C697 0.950 . S
H693 C698 0.949 . S
H694 C700 0.950 . S
H695 C701 0.950 . S
H696 C702 0.949 . S
C697 H692 0.950 . S
C697 C699 1.327 . S
C697 C703 1.429 . S
C698 C690 1.574 . S
C698 H693 0.949 . S
C698 C704 1.368 . S
C699 C683 1.349 . S
C699 H691 0.950 . S
C699 C697 1.327 . S
C700 C688 1.349 . S
C700 H694 0.950 . S
C700 C701 1.327 . S
C701 H695 0.950 . S
C701 C700 1.327 . S
C701 C705 1.429 . S
C702 C685 1.574 . S
C702 H696 0.949 . S
C702 C706 1.368 . S
C703 C684 1.429 . S
C703 C697 1.429 . S
C703 C704 1.523 . S
C704 C685 1.368 . S
C704 C698 1.368 . S
C704 C703 1.523 . S
C705 C689 1.429 . S
C705 C701 1.429 . S
C705 C706 1.523 . S
C706 C690 1.368 . S
C706 C702 1.368 . S
C706 C705 1.523 . S
H707 C682 0.950 . S
H708 C684 0.950 . S
H709 C685 0.949 . S
H710 C687 0.950 . S
H711 C689 0.950 . S
C712 C713 1.349 . S
C712 C714 1.327 . S
C712 H737 0.950 . S
C713 C712 1.349 . S
C713 C729 1.349 . S
C714 C712 1.327 . S
C714 C733 1.429 . S
C714 H738 0.950 . S
C715 C732 1.574 . S
C715 C734 1.368 . S
C715 H739 0.949 . S
H716 C720 0.949 . S
C717 C718 1.349 . S
C717 C719 1.327 . S
C717 H740 0.950 . S
C718 C717 1.349 . S
C718 C730 1.349 . S
C719 C717 1.327 . S
C719 C735 1.429 . S
C719 H741 0.950 . S
C720 H716 0.949 . S
C720 C728 1.574 . S
C720 C736 1.368 . S
H721 C729 0.950 . S
H722 C727 0.950 . S
H723 C728 0.949 . S
H724 C730 0.950 . S
H725 C731 0.950 . S
H726 C732 0.949 . S
C727 H722 0.950 . S
C727 C729 1.327 . S
C727 C733 1.429 . S
C728 C720 1.574 . S
C728 H723 0.949 . S
C728 C734 1.368 . S
C729 C713 1.349 . S
C729 H721 0.950 . S
C729 C727 1.327 . S
C730 C718 1.349 . S
C730 H724 0.950 . S
C730 C731 1.327 . S
C731 H725 0.950 . S
C731 C730 1.327 . S
C731 C735 1.429 . S
C732 C715 1.574 . S
C732 H726 0.949 . S
C732 C736 1.368 . S
C733 C714 1.429 . S
C733 C727 1.429 . S
C733 C734 1.523 . S
C734 C715 1.368 . S
C734 C728 1.368 . S
C734 C733 1.523 . S
C735 C719 1.429 . S
C735 C731 1.429 . S
C735 C736 1.523 . S
C736 C720 1.368 . S
C736 C732 1.368 . S
C736 C735 1.523 . S
H737 C712 0.950 . S
H738 C714 0.950 . S
H739 C715 0.949 . S
H740 C717 0.950 . S
H741 C719 0.950 . S
C742 C743 1.349 . S
C742 C744 1.327 . S
C742 H767 0.950 . S
C743 C742 1.349 . S
C743 C759 1.349 . S
C744 C742 1.327 . S
C744 C763 1.429 . S
C744 H768 0.950 . S
C745 C762 1.574 . S
C745 C764 1.368 . S
C745 H769 0.949 . S
H746 C750 0.949 . S
C747 C748 1.349 . S
C747 C749 1.327 . S
C747 H770 0.950 . S
C748 C747 1.349 . S
C748 C760 1.349 . S
C749 C747 1.327 . S
C749 C765 1.429 . S
C749 H771 0.950 . S
C750 H746 0.949 . S
C750 C758 1.574 . S
C750 C766 1.368 . S
H751 C759 0.950 . S
H752 C757 0.950 . S
H753 C758 0.949 . S
H754 C760 0.950 . S
H755 C761 0.950 . S
H756 C762 0.949 . S
C757 H752 0.950 . S
C757 C759 1.327 . S
C757 C763 1.429 . S
C758 C750 1.574 . S
C758 H753 0.949 . S
C758 C764 1.368 . S
C759 C743 1.349 . S
C759 H751 0.950 . S
C759 C757 1.327 . S
C760 C748 1.349 . S
C760 H754 0.950 . S
C760 C761 1.327 . S
C761 H755 0.950 . S
C761 C760 1.327 . S
C761 C765 1.429 . S
C762 C745 1.574 . S
C762 H756 0.949 . S
C762 C766 1.368 . S
C763 C744 1.429 . S
C763 C757 1.429 . S
C763 C764 1.523 . S
C764 C745 1.368 . S
C764 C758 1.368 . S
C764 C763 1.523 . S
C765 C749 1.429 . S
C765 C761 1.429 . S
C765 C766 1.523 . S
C766 C750 1.368 . S
C766 C762 1.368 . S
C766 C765 1.523 . S
H767 C742 0.950 . S
H768 C744 0.950 . S
H769 C745 0.949 . S
H770 C747 0.950 . S
H771 C749 0.950 . S
C772 C773 1.349 . S
C772 C774 1.327 . S
C772 H797 0.950 . S
C773 C772 1.349 . S
C773 C789 1.349 . S
C774 C772 1.327 . S
C774 C793 1.429 . S
C774 H798 0.950 . S
C775 C792 1.574 . S
C775 C794 1.368 . S
C775 H799 0.949 . S
H776 C780 0.949 . S
C777 C778 1.349 . S
C777 C779 1.327 . S
C777 H800 0.950 . S
C778 C777 1.349 . S
C778 C790 1.349 . S
C779 C777 1.327 . S
C779 C795 1.429 . S
C779 H801 0.950 . S
C780 H776 0.949 . S
C780 C788 1.574 . S
C780 C796 1.368 . S
H781 C789 0.950 . S
H782 C787 0.950 . S
H783 C788 0.949 . S
H784 C790 0.950 . S
H785 C791 0.950 . S
H786 C792 0.949 . S
C787 H782 0.950 . S
C787 C789 1.327 . S
C787 C793 1.429 . S
C788 C780 1.574 . S
C788 H783 0.949 . S
C788 C794 1.368 . S
C789 C773 1.349 . S
C789 H781 0.950 . S
C789 C787 1.327 . S
C790 C778 1.349 . S
C790 H784 0.950 . S
C790 C791 1.327 . S
C791 H785 0.950 . S
C791 C790 1.327 . S
C791 C795 1.429 . S
C792 C775 1.574 . S
C792 H786 0.949 . S
C792 C796 1.368 . S
C793 C774 1.429 . S
C793 C787 1.429 . S
C793 C794 1.523 . S
C794 C775 1.368 . S
C794 C788 1.368 . S
C794 C793 1.523 . S
C795 C779 1.429 . S
C795 C791 1.429 . S
C795 C796 1.523 . S
C796 C780 1.368 . S
C796 C792 1.368 . S
C796 C795 1.523 . S
H797 C772 0.950 . S
H798 C774 0.950 . S
H799 C775 0.949 . S
H800 C777 0.950 . S
H801 C779 0.950 . S
C802 C803 1.349 . S
C802 C804 1.327 . S
C802 H827 0.950 . S
C803 C802 1.349 . S
C803 C819 1.349 . S
C804 C802 1.327 . S
C804 C823 1.429 . S
C804 H828 0.950 . S
C805 C822 1.574 . S
C805 C824 1.368 . S
C805 H829 0.949 . S
H806 C810 0.949 . S
C807 C808 1.349 . S
C807 C809 1.327 . S
C807 H830 0.950 . S
C808 C807 1.349 . S
C808 C820 1.349 . S
C809 C807 1.327 . S
C809 C825 1.429 . S
C809 H831 0.950 . S
C810 H806 0.949 . S
C810 C818 1.574 . S
C810 C826 1.368 . S
H811 C819 0.950 . S
H812 C817 0.950 . S
H813 C818 0.949 . S
H814 C820 0.950 . S
H815 C821 0.950 . S
H816 C822 0.949 . S
C817 H812 0.950 . S
C817 C819 1.327 . S
C817 C823 1.429 . S
C818 C810 1.574 . S
C818 H813 0.949 . S
C818 C824 1.368 . S
C819 C803 1.349 . S
C819 H811 0.950 . S
C819 C817 1.327 . S
C820 C808 1.349 . S
C820 H814 0.950 . S
C820 C821 1.327 . S
C821 H815 0.950 . S
C821 C820 1.327 . S
C821 C825 1.429 . S
C822 C805 1.574 . S
C822 H816 0.949 . S
C822 C826 1.368 . S
C823 C804 1.429 . S
C823 C817 1.429 . S
C823 C824 1.523 . S
C824 C805 1.368 . S
C824 C818 1.368 . S
C824 C823 1.523 . S
C825 C809 1.429 . S
C825 C821 1.429 . S
C825 C826 1.523 . S
C826 C810 1.368 . S
C826 C822 1.368 . S
C826 C825 1.523 . S
H827 C802 0.950 . S
H828 C804 0.950 . S
H829 C805 0.949 . S
H830 C807 0.950 . S
H831 C809 0.950 . S
C832 C833 1.349 . S
C832 C834 1.327 . S
C832 H857 0.950 . S
C833 C832 1.349 . S
C833 C849 1.349 . S
C834 C832 1.327 . S
C834 C853 1.429 . S
C834 H858 0.950 . S
C835 C852 1.574 . S
C835 C854 1.368 . S
C835 H859 0.949 . S
H836 C840 0.949 . S
C837 C838 1.349 . S
C837 C839 1.327 . S
C837 H860 0.950 . S
C838 C837 1.349 . S
C838 C850 1.349 . S
C839 C837 1.327 . S
C839 C855 1.429 . S
C839 H861 0.950 . S
C840 H836 0.949 . S
C840 C848 1.574 . S
C840 C856 1.368 . S
H841 C849 0.950 . S
H842 C847 0.950 . S
H843 C848 0.949 . S
H844 C850 0.950 . S
H845 C851 0.950 . S
H846 C852 0.949 . S
C847 H842 0.950 . S
C847 C849 1.327 . S
C847 C853 1.429 . S
C848 C840 1.574 . S
C848 H843 0.949 . S
C848 C854 1.368 . S
C849 C833 1.349 . S
C849 H841 0.950 . S
C849 C847 1.327 . S
C850 C838 1.349 . S
C850 H844 0.950 . S
C850 C851 1.327 . S
C851 H845 0.950 . S
C851 C850 1.327 . S
C851 C855 1.429 . S
C852 C835 1.574 . S
C852 H846 0.949 . S
C852 C856 1.368 . S
C853 C834 1.429 . S
C853 C847 1.429 . S
C853 C854 1.523 . S
C854 C835 1.368 . S
C854 C848 1.368 . S
C854 C853 1.523 . S
C855 C839 1.429 . S
C855 C851 1.429 . S
C855 C856 1.523 . S
C856 C840 1.368 . S
C856 C852 1.368 . S
C856 C855 1.523 . S
H857 C832 0.950 . S
H858 C834 0.950 . S
H859 C835 0.949 . S
H860 C837 0.950 . S
H861 C839 0.950 . S
C862 C863 1.349 . S
C862 C864 1.327 . S
C862 H887 0.950 . S
C863 C862 1.349 . S
C863 C879 1.349 . S
C864 C862 1.327 . S
C864 C883 1.429 . S
C864 H888 0.950 . S
C865 C882 1.574 . S
C865 C884 1.368 . S
C865 H889 0.949 . S
H866 C870 0.949 . S
C867 C868 1.349 . S
C867 C869 1.327 . S
C867 H890 0.950 . S
C868 C867 1.349 . S
C868 C880 1.349 . S
C869 C867 1.327 . S
C869 C885 1.429 . S
C869 H891 0.950 . S
C870 H866 0.949 . S
C870 C878 1.574 . S
C870 C886 1.368 . S
H871 C879 0.950 . S
H872 C877 0.950 . S
H873 C878 0.949 . S
H874 C880 0.950 . S
H875 C881 0.950 . S
H876 C882 0.949 . S
C877 H872 0.950 . S
C877 C879 1.327 . S
C877 C883 1.429 . S
C878 C870 1.574 . S
C878 H873 0.949 . S
C878 C884 1.368 . S
C879 C863 1.349 . S
C879 H871 0.950 . S
C879 C877 1.327 . S
C880 C868 1.349 . S
C880 H874 0.950 . S
C880 C881 1.327 . S
C881 H875 0.950 . S
C881 C880 1.327 . S
C881 C885 1.429 . S
C882 C865 1.574 . S
C882 H876 0.949 . S
C882 C886 1.368 . S
C883 C864 1.429 . S
C883 C877 1.429 . S
C883 C884 1.523 . S
C884 C865 1.368 . S
C884 C878 1.368 . S
C884 C883 1.523 . S
C885 C869 1.429 . S
C885 C881 1.429 . S
C885 C886 1.523 . S
C886 C870 1.368 . S
C886 C882 1.368 . S
C886 C885 1.523 . S
H887 C862 0.950 . S
H888 C864 0.950 . S
H889 C865 0.949 . S
H890 C867 0.950 . S
H891 C869 0.950 . S
C892 C893 1.349 . S
C892 C894 1.327 . S
C892 H917 0.950 . S
C893 C892 1.349 . S
C893 C909 1.349 . S
C894 C892 1.327 . S
C894 C913 1.429 . S
C894 H918 0.950 . S
C895 C912 1.574 . S
C895 C914 1.368 . S
C895 H919 0.949 . S
H896 C900 0.949 . S
C897 C898 1.349 . S
C897 C899 1.327 . S
C897 H920 0.950 . S
C898 C897 1.349 . S
C898 C910 1.349 . S
C899 C897 1.327 . S
C899 C915 1.429 . S
C899 H921 0.950 . S
C900 H896 0.949 . S
C900 C908 1.574 . S
C900 C916 1.368 . S
H901 C909 0.950 . S
H902 C907 0.950 . S
H903 C908 0.949 . S
H904 C910 0.950 . S
H905 C911 0.950 . S
H906 C912 0.949 . S
C907 H902 0.950 . S
C907 C909 1.327 . S
C907 C913 1.429 . S
C908 C900 1.574 . S
C908 H903 0.949 . S
C908 C914 1.368 . S
C909 C893 1.349 . S
C909 H901 0.950 . S
C909 C907 1.327 . S
C910 C898 1.349 . S
C910 H904 0.950 . S
C910 C911 1.327 . S
C911 H905 0.950 . S
C911 C910 1.327 . S
C911 C915 1.429 . S
C912 C895 1.574 . S
C912 H906 0.949 . S
C912 C916 1.368 . S
C913 C894 1.429 . S
C913 C907 1.429 . S
C913 C914 1.523 . S
C914 C895 1.368 . S
C914 C908 1.368 . S
C914 C913 1.523 . S
C915 C899 1.429 . S
C915 C911 1.429 . S
C915 C916 1.523 . S
C916 C900 1.368 . S
C916 C912 1.368 . S
C916 C915 1.523 . S
H917 C892 0.950 . S
H918 C894 0.950 . S
H919 C895 0.949 . S
H920 C897 0.950 . S
H921 C899 0.950 . S
C922 C923 1.349 . S
C922 C924 1.327 . S
C922 H947 0.950 . S
C923 C922 1.349 . S
C923 C939 1.349 . S
C924 C922 1.327 . S
C924 C943 1.429 . S
C924 H948 0.950 . S
C925 C942 1.574 . S
C925 C944 1.368 . S
C925 H949 0.949 . S
H926 C930 0.949 . S
C927 C928 1.349 . S
C927 C929 1.327 . S
C927 H950 0.950 . S
C928 C927 1.349 . S
C928 C940 1.349 . S
C929 C927 1.327 . S
C929 C945 1.429 . S
C929 H951 0.950 . S
C930 H926 0.949 . S
C930 C938 1.574 . S
C930 C946 1.368 . S
H931 C939 0.950 . S
H932 C937 0.950 . S
H933 C938 0.949 . S
H934 C940 0.950 . S
H935 C941 0.950 . S
H936 C942 0.949 . S
C937 H932 0.950 . S
C937 C939 1.327 . S
C937 C943 1.429 . S
C938 C930 1.574 . S
C938 H933 0.949 . S
C938 C944 1.368 . S
C939 C923 1.349 . S
C939 H931 0.950 . S
C939 C937 1.327 . S
C940 C928 1.349 . S
C940 H934 0.950 . S
C940 C941 1.327 . S
C941 H935 0.950 . S
C941 C940 1.327 . S
C941 C945 1.429 . S
C942 C925 1.574 . S
C942 H936 0.949 . S
C942 C946 1.368 . S
C943 C924 1.429 . S
C943 C937 1.429 . S
C943 C944 1.523 . S
C944 C925 1.368 . S
C944 C938 1.368 . S
C944 C943 1.523 . S
C945 C929 1.429 . S
C945 C941 1.429 . S
C945 C946 1.523 . S
C946 C930 1.368 . S
C946 C942 1.368 . S
C946 C945 1.523 . S
H947 C922 0.950 . S
H948 C924 0.950 . S
H949 C925 0.949 . S
H950 C927 0.950 . S
H951 C929 0.950 . S
C952 C953 1.349 . S
C952 C954 1.327 . S
C952 H977 0.950 . S
C953 C952 1.349 . S
C953 C969 1.349 . S
C954 C952 1.327 . S
C954 C973 1.429 . S
C954 H978 0.950 . S
C955 C972 1.574 . S
C955 C974 1.368 . S
C955 H979 0.949 . S
H956 C960 0.949 . S
C957 C958 1.349 . S
C957 C959 1.327 . S
C957 H980 0.950 . S
C958 C957 1.349 . S
C958 C970 1.349 . S
C959 C957 1.327 . S
C959 C975 1.429 . S
C959 H981 0.950 . S
C960 H956 0.949 . S
C960 C968 1.574 . S
C960 C976 1.368 . S
H961 C969 0.950 . S
H962 C967 0.950 . S
H963 C968 0.949 . S
H964 C970 0.950 . S
H965 C971 0.950 . S
H966 C972 0.949 . S
C967 H962 0.950 . S
C967 C969 1.327 . S
C967 C973 1.429 . S
C968 C960 1.574 . S
C968 H963 0.949 . S
C968 C974 1.368 . S
C969 C953 1.349 . S
C969 H961 0.950 . S
C969 C967 1.327 . S
C970 C958 1.349 . S
C970 H964 0.950 . S
C970 C971 1.327 . S
C971 H965 0.950 . S
C971 C970 1.327 . S
C971 C975 1.429 . S
C972 C955 1.574 . S
C972 H966 0.949 . S
C972 C976 1.368 . S
C973 C954 1.429 . S
C973 C967 1.429 . S
C973 C974 1.523 . S
C974 C955 1.368 . S
C974 C968 1.368 . S
C974 C973 1.523 . S
C975 C959 1.429 . S
C975 C971 1.429 . S
C975 C976 1.523 . S
C976 C960 1.368 . S
C976 C972 1.368 . S
C976 C975 1.523 . S
H977 C952 0.950 . S
H978 C954 0.950 . S
H979 C955 0.949 . S
H980 C957 0.950 . S
H981 C959 0.950 . S
C982 C983 1.349 . S
C982 C984 1.327 . S
C982 H1007 0.950 . S
C983 C982 1.349 . S
C983 C999 1.349 . S
C984 C982 1.327 . S
C984 C1003 1.429 . S
C984 H1008 0.950 . S
C985 C1002 1.574 . S
C985 C1004 1.368 . S
C985 H1009 0.949 . S
H986 C990 0.949 . S
C987 C988 1.349 . S
C987 C989 1.327 . S
C987 H1010 0.950 . S
C988 C987 1.349 . S
C988 C1000 1.349 . S
C989 C987 1.327 . S
C989 C1005 1.429 . S
C989 H1011 0.950 . S
C990 H986 0.949 . S
C990 C998 1.574 . S
C990 C1006 1.368 . S
H991 C999 0.950 . S
H992 C997 0.950 . S
H993 C998 0.949 . S
H994 C1000 0.950 . S
H995 C1001 0.950 . S
H996 C1002 0.949 . S
C997 H992 0.950 . S
C997 C999 1.327 . S
C997 C1003 1.429 . S
C998 C990 1.574 . S
C998 H993 0.949 . S
C998 C1004 1.368 . S
C999 C983 1.349 . S
C999 H991 0.950 . S
C999 C997 1.327 . S
C1000 C988 1.349 . S
C1000 H994 0.950 . S
C1000 C1001 1.327 . S
C1001 H995 0.950 . S
C1001 C1000 1.327 . S
C1001 C1005 1.429 . S
C1002 C985 1.574 . S
C1002 H996 0.949 . S
C1002 C1006 1.368 . S
C1003 C984 1.429 . S
C1003 C997 1.429 . S
C1003 C1004 1.523 . S
C1004 C985 1.368 . S
C1004 C998 1.368 . S
C1004 C1003 1.523 . S
C1005 C989 1.429 . S
C1005 C1001 1.429 . S
C1005 C1006 1.523 . S
C1006 C990 1.368 . S
C1006 C1002 1.368 . S
C1006 C1005 1.523 . S
H1007 C982 0.950 . S
H1008 C984 0.950 . S
H1009 C985 0.949 . S
H1010 C987 0.950 . S
H1011 C989 0.950 . S
C1012 C1013 1.349 . S
C1012 C1014 1.327 . S
C1012 H1037 0.950 . S
C1013 C1012 1.349 . S
C1013 C1029 1.349 . S
C1014 C1012 1.327 . S
C1014 C1033 1.429 . S
C1014 H1038 0.950 . S
C1015 C1032 1.574 . S
C1015 C1034 1.368 . S
C1015 H1039 0.949 . S
H1016 C1020 0.949 . S
C1017 C1018 1.349 . S
C1017 C1019 1.327 . S
C1017 H1040 0.950 . S
C1018 C1017 1.349 . S
C1018 C1030 1.349 . S
C1019 C1017 1.327 . S
C1019 C1035 1.429 . S
C1019 H1041 0.950 . S
C1020 H1016 0.949 . S
C1020 C1028 1.574 . S
C1020 C1036 1.368 . S
H1021 C1029 0.950 . S
H1022 C1027 0.950 . S
H1023 C1028 0.949 . S
H1024 C1030 0.950 . S
H1025 C1031 0.950 . S
H1026 C1032 0.949 . S
C1027 H1022 0.950 . S
C1027 C1029 1.327 . S
C1027 C1033 1.429 . S
C1028 C1020 1.574 . S
C1028 H1023 0.949 . S
C1028 C1034 1.368 . S
C1029 C1013 1.349 . S
C1029 H1021 0.950 . S
C1029 C1027 1.327 . S
C1030 C1018 1.349 . S
C1030 H1024 0.950 . S
C1030 C1031 1.327 . S
C1031 H1025 0.950 . S
C1031 C1030 1.327 . S
C1031 C1035 1.429 . S
C1032 C1015 1.574 . S
C1032 H1026 0.949 . S
C1032 C1036 1.368 . S
C1033 C1014 1.429 . S
C1033 C1027 1.429 . S
C1033 C1034 1.523 . S
C1034 C1015 1.368 . S
C1034 C1028 1.368 . S
C1034 C1033 1.523 . S
C1035 C1019 1.429 . S
C1035 C1031 1.429 . S
C1035 C1036 1.523 . S
C1036 C1020 1.368 . S
C1036 C1032 1.368 . S
C1036 C1035 1.523 . S
H1037 C1012 0.950 . S
H1038 C1014 0.950 . S
H1039 C1015 0.949 . S
H1040 C1017 0.950 . S
H1041 C1019 0.950 . S
C1042 C1043 1.349 . S
C1042 C1044 1.327 . S
C1042 H1067 0.950 . S
C1043 C1042 1.349 . S
C1043 C1059 1.349 . S
C1044 C1042 1.327 . S
C1044 C1063 1.429 . S
C1044 H1068 0.950 . S
C1045 C1062 1.574 . S
C1045 C1064 1.368 . S
C1045 H1069 0.949 . S
H1046 C1050 0.949 . S
C1047 C1048 1.349 . S
C1047 C1049 1.327 . S
C1047 H1070 0.950 . S
C1048 C1047 1.349 . S
C1048 C1060 1.349 . S
C1049 C1047 1.327 . S
C1049 C1065 1.429 . S
C1049 H1071 0.950 . S
C1050 H1046 0.949 . S
C1050 C1058 1.574 . S
C1050 C1066 1.368 . S
H1051 C1059 0.950 . S
H1052 C1057 0.950 . S
H1053 C1058 0.949 . S
H1054 C1060 0.950 . S
H1055 C1061 0.950 . S
H1056 C1062 0.949 . S
C1057 H1052 0.950 . S
C1057 C1059 1.327 . S
C1057 C1063 1.429 . S
C1058 C1050 1.574 . S
C1058 H1053 0.949 . S
C1058 C1064 1.368 . S
C1059 C1043 1.349 . S
C1059 H1051 0.950 . S
C1059 C1057 1.327 . S
C1060 C1048 1.349 . S
C1060 H1054 0.950 . S
C1060 C1061 1.327 . S
C1061 H1055 0.950 . S
C1061 C1060 1.327 . S
C1061 C1065 1.429 . S
C1062 C1045 1.574 . S
C1062 H1056 0.949 . S
C1062 C1066 1.368 . S
C1063 C1044 1.429 . S
C1063 C1057 1.429 . S
C1063 C1064 1.523 . S
C1064 C1045 1.368 . S
C1064 C1058 1.368 . S
C1064 C1063 1.523 . S
C1065 C1049 1.429 . S
C1065 C1061 1.429 . S
C1065 C1066 1.523 . S
C1066 C1050 1.368 . S
C1066 C1062 1.368 . S
C1066 C1065 1.523 . S
H1067 C1042 0.950 . S
H1068 C1044 0.950 . S
H1069 C1045 0.949 . S
H1070 C1047 0.950 . S
H1071 C1049 0.950 . S
C1072 C1073 1.349 . S
C1072 C1074 1.327 . S
C1072 H1097 0.950 . S
C1073 C1072 1.349 . S
C1073 C1089 1.349 . S
C1074 C1072 1.327 . S
C1074 C1093 1.429 . S
C1074 H1098 0.950 . S
C1075 C1092 1.574 . S
C1075 C1094 1.368 . S
C1075 H1099 0.949 . S
H1076 C1080 0.949 . S
C1077 C1078 1.349 . S
C1077 C1079 1.327 . S
C1077 H1100 0.950 . S
C1078 C1077 1.349 . S
C1078 C1090 1.349 . S
C1079 C1077 1.327 . S
C1079 C1095 1.429 . S
C1079 H1101 0.950 . S
C1080 H1076 0.949 . S
C1080 C1088 1.574 . S
C1080 C1096 1.368 . S
H1081 C1089 0.950 . S
H1082 C1087 0.950 . S
H1083 C1088 0.949 . S
H1084 C1090 0.950 . S
H1085 C1091 0.950 . S
H1086 C1092 0.949 . S
C1087 H1082 0.950 . S
C1087 C1089 1.327 . S
C1087 C1093 1.429 . S
C1088 C1080 1.574 . S
C1088 H1083 0.949 . S
C1088 C1094 1.368 . S
C1089 C1073 1.349 . S
C1089 H1081 0.950 . S
C1089 C1087 1.327 . S
C1090 C1078 1.349 . S
C1090 H1084 0.950 . S
C1090 C1091 1.327 . S
C1091 H1085 0.950 . S
C1091 C1090 1.327 . S
C1091 C1095 1.429 . S
C1092 C1075 1.574 . S
C1092 H1086 0.949 . S
C1092 C1096 1.368 . S
C1093 C1074 1.429 . S
C1093 C1087 1.429 . S
C1093 C1094 1.523 . S
C1094 C1075 1.368 . S
C1094 C1088 1.368 . S
C1094 C1093 1.523 . S
C1095 C1079 1.429 . S
C1095 C1091 1.429 . S
C1095 C1096 1.523 . S
C1096 C1080 1.368 . S
C1096 C1092 1.368 . S
C1096 C1095 1.523 . S
H1097 C1072 0.950 . S
H1098 C1074 0.950 . S
H1099 C1075 0.949 . S
H1100 C1077 0.950 . S
H1101 C1079 0.950 . S
C1102 C1103 1.349 . S
C1102 C1104 1.327 . S
C1102 H1127 0.950 . S
C1103 C1102 1.349 . S
C1103 C1119 1.349 . S
C1104 C1102 1.327 . S
C1104 C1123 1.429 . S
C1104 H1128 0.950 . S
C1105 C1122 1.574 . S
C1105 C1124 1.368 . S
C1105 H1129 0.949 . S
H1106 C1110 0.949 . S
C1107 C1108 1.349 . S
C1107 C1109 1.327 . S
C1107 H1130 0.950 . S
C1108 C1107 1.349 . S
C1108 C1120 1.349 . S
C1109 C1107 1.327 . S
C1109 C1125 1.429 . S
C1109 H1131 0.950 . S
C1110 H1106 0.949 . S
C1110 C1118 1.574 . S
C1110 C1126 1.368 . S
H1111 C1119 0.950 . S
H1112 C1117 0.950 . S
H1113 C1118 0.949 . S
H1114 C1120 0.950 . S
H1115 C1121 0.950 . S
H1116 C1122 0.949 . S
C1117 H1112 0.950 . S
C1117 C1119 1.327 . S
C1117 C1123 1.429 . S
C1118 C1110 1.574 . S
C1118 H1113 0.949 . S
C1118 C1124 1.368 . S
C1119 C1103 1.349 . S
C1119 H1111 0.950 . S
C1119 C1117 1.327 . S
C1120 C1108 1.349 . S
C1120 H1114 0.950 . S
C1120 C1121 1.327 . S
C1121 H1115 0.950 . S
C1121 C1120 1.327 . S
C1121 C1125 1.429 . S
C1122 C1105 1.574 . S
C1122 H1116 0.949 . S
C1122 C1126 1.368 . S
C1123 C1104 1.429 . S
C1123 C1117 1.429 . S
C1123 C1124 1.523 . S
C1124 C1105 1.368 . S
C1124 C1118 1.368 . S
C1124 C1123 1.523 . S
C1125 C1109 1.429 . S
C1125 C1121 1.429 . S
C1125 C1126 1.523 . S
C1126 C1110 1.368 . S
C1126 C1122 1.368 . S
C1126 C1125 1.523 . S
H1127 C1102 0.950 . S
H1128 C1104 0.950 . S
H1129 C1105 0.949 . S
H1130 C1107 0.950 . S
H1131 C1109 0.950 . S
C1132 C1133 1.349 . S
C1132 C1134 1.327 . S
C1132 H1157 0.950 . S
C1133 C1132 1.349 . S
C1133 C1149 1.349 . S
C1134 C1132 1.327 . S
C1134 C1153 1.429 . S
C1134 H1158 0.950 . S
C1135 C1152 1.574 . S
C1135 C1154 1.368 . S
C1135 H1159 0.949 . S
H1136 C1140 0.949 . S
C1137 C1138 1.349 . S
C1137 C1139 1.327 . S
C1137 H1160 0.950 . S
C1138 C1137 1.349 . S
C1138 C1150 1.349 . S
C1139 C1137 1.327 . S
C1139 C1155 1.429 . S
C1139 H1161 0.950 . S
C1140 H1136 0.949 . S
C1140 C1148 1.574 . S
C1140 C1156 1.368 . S
H1141 C1149 0.950 . S
H1142 C1147 0.950 . S
H1143 C1148 0.949 . S
H1144 C1150 0.950 . S
H1145 C1151 0.950 . S
H1146 C1152 0.949 . S
C1147 H1142 0.950 . S
C1147 C1149 1.327 . S
C1147 C1153 1.429 . S
C1148 C1140 1.574 . S
C1148 H1143 0.949 . S
C1148 C1154 1.368 . S
C1149 C1133 1.349 . S
C1149 H1141 0.950 . S
C1149 C1147 1.327 . S
C1150 C1138 1.349 . S
C1150 H1144 0.950 . S
C1150 C1151 1.327 . S
C1151 H1145 0.950 . S
C1151 C1150 1.327 . S
C1151 C1155 1.429 . S
C1152 C1135 1.574 . S
C1152 H1146 0.949 . S
C1152 C1156 1.368 . S
C1153 C1134 1.429 . S
C1153 C1147 1.429 . S
C1153 C1154 1.523 . S
C1154 C1135 1.368 . S
C1154 C1148 1.368 . S
C1154 C1153 1.523 . S
C1155 C1139 1.429 . S
C1155 C1151 1.429 . S
C1155 C1156 1.523 . S
C1156 C1140 1.368 . S
C1156 C1152 1.368 . S
C1156 C1155 1.523 . S
H1157 C1132 0.950 . S
H1158 C1134 0.950 . S
H1159 C1135 0.949 . S
H1160 C1137 0.950 . S
H1161 C1139 0.950 . S
C1162 C1163 1.349 . S
C1162 C1164 1.327 . S
C1162 H1187 0.950 . S
C1163 C1162 1.349 . S
C1163 C1179 1.349 . S
C1164 C1162 1.327 . S
C1164 C1183 1.429 . S
C1164 H1188 0.950 . S
C1165 C1182 1.574 . S
C1165 C1184 1.368 . S
C1165 H1189 0.949 . S
H1166 C1170 0.949 . S
C1167 C1168 1.349 . S
C1167 C1169 1.327 . S
C1167 H1190 0.950 . S
C1168 C1167 1.349 . S
C1168 C1180 1.349 . S
C1169 C1167 1.327 . S
C1169 C1185 1.429 . S
C1169 H1191 0.950 . S
C1170 H1166 0.949 . S
C1170 C1178 1.574 . S
C1170 C1186 1.368 . S
H1171 C1179 0.950 . S
H1172 C1177 0.950 . S
H1173 C1178 0.949 . S
H1174 C1180 0.950 . S
H1175 C1181 0.950 . S
H1176 C1182 0.949 . S
C1177 H1172 0.950 . S
C1177 C1179 1.327 . S
C1177 C1183 1.429 . S
C1178 C1170 1.574 . S
C1178 H1173 0.949 . S
C1178 C1184 1.368 . S
C1179 C1163 1.349 . S
C1179 H1171 0.950 . S
C1179 C1177 1.327 . S
C1180 C1168 1.349 . S
C1180 H1174 0.950 . S
C1180 C1181 1.327 . S
C1181 H1175 0.950 . S
C1181 C1180 1.327 . S
C1181 C1185 1.429 . S
C1182 C1165 1.574 . S
C1182 H1176 0.949 . S
C1182 C1186 1.368 . S
C1183 C1164 1.429 . S
C1183 C1177 1.429 . S
C1183 C1184 1.523 . S
C1184 C1165 1.368 . S
C1184 C1178 1.368 . S
C1184 C1183 1.523 . S
C1185 C1169 1.429 . S
C1185 C1181 1.429 . S
C1185 C1186 1.523 . S
C1186 C1170 1.368 . S
C1186 C1182 1.368 . S
C1186 C1185 1.523 . S
H1187 C1162 0.950 . S
H1188 C1164 0.950 . S
H1189 C1165 0.949 . S
H1190 C1167 0.950 . S
H1191 C1169 0.950 . S
C473 C1 1.222 . S
C478 C318 1.257 . S
C503 C40 0.944 . S
C508 C367 0.941 . S
C538 C402 2.446 . S
C533 C99 2.486 . S
C563 C118 2.320 . S
C568 C441 2.261 . S
C598 C362 2.506 . S
C593 C16 2.423 . S
C628 C321 0.893 . S
C623 C60 0.917 . S
C658 C451 1.882 . S
C653 C79 1.922 . S
C688 C410 1.492 . S
C683 C138 1.521 . S
C713 C21 1.708 . S
C718 C438 1.765 . S
C748 C370 2.327 . S
C743 C94 2.405 . S
C773 C133 2.318 . S
C778 C331 2.307 . S
C803 C55 0.717 . S
C808 C407 0.715 . S
C838 C327 1.261 . S
C833 C157 1.231 . S
C863 C196 0.946 . S
C868 C358 0.942 . S
C893 C255 2.484 . S
C898 C411 2.444 . S
C923 C289 2.316 . S
C928 C450 2.255 . S
C953 C172 2.414 . S
C958 C371 2.503 . S
C988 C330 0.894 . S
C983 C216 0.919 . S
C1018 C442 1.883 . S
C1013 C235 1.924 . S
C1048 C401 1.491 . S
C1043 C294 1.521 . S
C1073 C177 1.722 . S
C1078 C447 1.764 . S
C1108 C361 2.328 . S
C1103 C250 2.407 . S
C1138 C322 2.312 . S
C1133 C274 2.322 . S
C1163 C211 0.714 . S
C1168 C398 0.712 . S
