# Generated by pormake.
# Topology pto, (3,4)-cn, num edge types: 1
# Building blocks:
#     Node 0, Type 0, BuildingBlock: KAKCAD_clean_linker_0, # of connection points: 3
#     Node 1, Type 0, BuildingBlock: KAKCAD_clean_linker_0, # of connection points: 3
#     Node 2, Type 0, BuildingBlock: KAKCAD_clean_linker_0, # of connection points: 3
#     Node 3, Type 0, BuildingBlock: KAKCAD_clean_linker_0, # of connection points: 3
#     Node 4, Type 0, BuildingBlock: KAKCAD_clean_linker_0, # of connection points: 3
#     Node 5, Type 0, BuildingBlock: KAKCAD_clean_linker_0, # of connection points: 3
#     Node 6, Type 0, BuildingBlock: KAKCAD_clean_linker_0, # of connection points: 3
#     Node 7, Type 0, BuildingBlock: KAKCAD_clean_linker_0, # of connection points: 3
#     Node 8, Type 1, BuildingBlock: KOZSID_clean_sbu_0, # of connection points: 4
#     Node 9, Type 1, BuildingBlock: KOZSID_clean_sbu_0, # of connection points: 4
#     Node 10, Type 1, BuildingBlock: KOZSID_clean_sbu_0, # of connection points: 4
#     Node 11, Type 1, BuildingBlock: KOZSID_clean_sbu_0, # of connection points: 4
#     Node 12, Type 1, BuildingBlock: KOZSID_clean_sbu_0, # of connection points: 4
#     Node 13, Type 1, BuildingBlock: KOZSID_clean_sbu_0, # of connection points: 4
#     Edge 14, Type (0, 1), BuildingBlock: OJICUG_clean_linker_0, # of connection points: 2
#     Edge 15, Type (0, 1), BuildingBlock: OJICUG_clean_linker_0, # of connection points: 2
#     Edge 16, Type (0, 1), BuildingBlock: OJICUG_clean_linker_0, # of connection points: 2
#     Edge 17, Type (0, 1), BuildingBlock: OJICUG_clean_linker_0, # of connection points: 2
#     Edge 18, Type (0, 1), BuildingBlock: OJICUG_clean_linker_0, # of connection points: 2
#     Edge 19, Type (0, 1), BuildingBlock: OJICUG_clean_linker_0, # of connection points: 2
#     Edge 20, Type (0, 1), BuildingBlock: OJICUG_clean_linker_0, # of connection points: 2
#     Edge 21, Type (0, 1), BuildingBlock: OJICUG_clean_linker_0, # of connection points: 2
#     Edge 22, Type (0, 1), BuildingBlock: OJICUG_clean_linker_0, # of connection points: 2
#     Edge 23, Type (0, 1), BuildingBlock: OJICUG_clean_linker_0, # of connection points: 2
#     Edge 24, Type (0, 1), BuildingBlock: OJICUG_clean_linker_0, # of connection points: 2
#     Edge 25, Type (0, 1), BuildingBlock: OJICUG_clean_linker_0, # of connection points: 2
#     Edge 26, Type (0, 1), BuildingBlock: OJICUG_clean_linker_0, # of connection points: 2
#     Edge 27, Type (0, 1), BuildingBlock: OJICUG_clean_linker_0, # of connection points: 2
#     Edge 28, Type (0, 1), BuildingBlock: OJICUG_clean_linker_0, # of connection points: 2
#     Edge 29, Type (0, 1), BuildingBlock: OJICUG_clean_linker_0, # of connection points: 2
#     Edge 30, Type (0, 1), BuildingBlock: OJICUG_clean_linker_0, # of connection points: 2
#     Edge 31, Type (0, 1), BuildingBlock: OJICUG_clean_linker_0, # of connection points: 2
#     Edge 32, Type (0, 1), BuildingBlock: OJICUG_clean_linker_0, # of connection points: 2
#     Edge 33, Type (0, 1), BuildingBlock: OJICUG_clean_linker_0, # of connection points: 2
#     Edge 34, Type (0, 1), BuildingBlock: OJICUG_clean_linker_0, # of connection points: 2
#     Edge 35, Type (0, 1), BuildingBlock: OJICUG_clean_linker_0, # of connection points: 2
#     Edge 36, Type (0, 1), BuildingBlock: OJICUG_clean_linker_0, # of connection points: 2
#     Edge 37, Type (0, 1), BuildingBlock: OJICUG_clean_linker_0, # of connection points: 2
# Relax obj value: 0.000
# Max RMSD: 0.029
# Mean RMSD: 0.012
data_MOF--net-pto--node1-KOZSID_clean_sbu_0--node2-KAKCAD_clean_linker_0--edge1-OJICUG_clean_linker_0
_symmetry_space_group_name_H-M    P1
_symmetry_Int_Tables_number       1
_symmetry_cell_setting            triclinic
loop_
_symmetry_equiv_pos_as_xyz
'x, y, z'
_cell_length_a     37.235609
_cell_length_b     50.189701
_cell_length_c     43.733298
_cell_angle_alpha  87.506669
_cell_angle_beta   87.527933
_cell_angle_gamma 93.61822
loop_
_atom_site_label
_atom_site_type_symbol
_atom_site_fract_x
_atom_site_fract_y
_atom_site_fract_z
_atom_type_partial_charge
C0 C 0.29031 0.17838 0.38018 0.0
C1 C 0.25668 0.1649 0.38768 0.0
C2 C 0.29291 0.20103 0.36023 0.0
C3 C 0.26183 0.2109 0.34802 0.0
C4 C 0.22812 0.19771 0.35597 0.0
C5 C 0.22561 0.17471 0.37538 0.0
C6 C 0.26464 0.23457 0.32648 0.0
C7 C 0.28734 0.23495 0.29996 0.0
C8 C 0.28919 0.2569 0.27889 0.0
C9 C 0.2693 0.27901 0.28492 0.0
C10 C 0.24727 0.27928 0.31181 0.0
C11 C 0.24448 0.25672 0.3322 0.0
C12 C 0.22777 0.30335 0.31866 0.0
C13 C 0.24577 0.32883 0.31544 0.0
C14 C 0.19114 0.30111 0.3281 0.0
C15 C 0.17263 0.32399 0.33343 0.0
C16 C 0.19048 0.34959 0.32975 0.0
C17 C 0.31167 0.25663 0.25035 0.0
C18 C 0.34926 0.25794 0.25132 0.0
C19 C 0.29558 0.25498 0.22205 0.0
C20 C 0.31686 0.25417 0.19499 0.0
C21 C 0.35473 0.25553 0.19569 0.0
C22 C 0.37059 0.25772 0.22427 0.0
C23 C 0.22741 0.35166 0.32107 0.0
H24 H 0.31463 0.1711 0.38932 0.0
H25 H 0.31917 0.21095 0.35446 0.0
H26 H 0.20383 0.20491 0.34668 0.0
H27 H 0.19938 0.16468 0.38097 0.0
H28 H 0.30274 0.21784 0.29525 0.0
H29 H 0.22751 0.25669 0.35298 0.0
H30 H 0.27103 0.29602 0.26864 0.0
H31 H 0.27418 0.33109 0.30872 0.0
H32 H 0.17657 0.28171 0.33056 0.0
H33 H 0.14411 0.32161 0.33964 0.0
H34 H 0.3621 0.25946 0.273 0.0
H35 H 0.26651 0.25384 0.22095 0.0
H36 H 0.24225 0.37095 0.31866 0.0
H37 H 0.39956 0.25952 0.22585 0.0
H38 H 0.30352 0.25203 0.17366 0.0
C39 C 0.32692 0.79931 0.82927 0.0
C40 C 0.34525 0.77674 0.83783 0.0
C41 C 0.30505 0.79894 0.80409 0.0
C42 C 0.30131 0.77608 0.78666 0.0
C43 C 0.3203 0.75369 0.79495 0.0
C44 C 0.34185 0.75398 0.82034 0.0
C45 C 0.2768 0.77535 0.76061 0.0
C46 C 0.27371 0.79822 0.74139 0.0
C47 C 0.24897 0.79826 0.7179 0.0
C48 C 0.22753 0.77471 0.71354 0.0
C49 C 0.23125 0.75145 0.73181 0.0
C50 C 0.25569 0.75195 0.75532 0.0
C51 C 0.20946 0.72648 0.72674 0.0
C52 C 0.17173 0.72602 0.72768 0.0
C53 C 0.2264 0.70272 0.72204 0.0
C54 C 0.20598 0.6788 0.71864 0.0
C55 C 0.16806 0.67795 0.72054 0.0
C56 C 0.24588 0.82282 0.69794 0.0
C57 C 0.24981 0.84833 0.71 0.0
C58 C 0.23961 0.82106 0.66658 0.0
C59 C 0.23761 0.84415 0.64779 0.0
C60 C 0.2423 0.86967 0.65973 0.0
C61 C 0.24834 0.8714 0.69114 0.0
C62 C 0.15123 0.70198 0.7249 0.0
H63 H 0.32878 0.81704 0.84254 0.0
H64 H 0.29038 0.81639 0.79877 0.0
H65 H 0.31865 0.73593 0.78177 0.0
H66 H 0.3561 0.73643 0.82617 0.0
H67 H 0.29115 0.81591 0.74442 0.0
H68 H 0.25733 0.7342 0.77009 0.0
H69 H 0.20799 0.77432 0.69588 0.0
H70 H 0.15811 0.7441 0.73154 0.0
H71 H 0.25553 0.7027 0.72094 0.0
H72 H 0.22005 0.66098 0.71455 0.0
H73 H 0.25403 0.85058 0.73412 0.0
H74 H 0.23684 0.80184 0.6563 0.0
H75 H 0.12219 0.7022 0.72704 0.0
H76 H 0.25258 0.8906 0.70122 0.0
H77 H 0.2323 0.8419 0.62386 0.0
C78 C 0.69083 0.74944 0.22967 0.0
C79 C 0.68969 0.77315 0.21154 0.0
C80 C 0.71259 0.74848 0.25488 0.0
C81 C 0.73398 0.77116 0.26243 0.0
C82 C 0.73276 0.7949 0.24425 0.0
C83 C 0.71075 0.7959 0.21917 0.0
C84 C 0.75764 0.76998 0.289 0.0
C85 C 0.7763 0.74706 0.29544 0.0
C86 C 0.79877 0.74574 0.32037 0.0
C87 C 0.80273 0.76778 0.33893 0.0
C88 C 0.78426 0.79089 0.33296 0.0
C89 C 0.76173 0.79177 0.30799 0.0
C90 C 0.78806 0.81398 0.35298 0.0
C91 C 0.78766 0.80993 0.385 0.0
C92 C 0.79163 0.84028 0.34024 0.0
C93 C 0.79433 0.86203 0.35911 0.0
C94 C 0.79344 0.85799 0.39115 0.0
C95 C 0.81836 0.72139 0.32672 0.0
C96 C 0.80059 0.69591 0.32595 0.0
C97 C 0.85509 0.72343 0.333 0.0
C98 C 0.87384 0.70045 0.33776 0.0
C99 C 0.85621 0.67489 0.33657 0.0
C100 C 0.81925 0.67293 0.33093 0.0
C101 C 0.79028 0.83168 0.40387 0.0
H102 H 0.67447 0.7317 0.22461 0.0
H103 H 0.71231 0.73001 0.26868 0.0
H104 H 0.74928 0.81263 0.24907 0.0
H105 H 0.71071 0.81437 0.2054 0.0
H106 H 0.77414 0.73039 0.28054 0.0
H107 H 0.74662 0.80922 0.30383 0.0
H108 H 0.82019 0.76691 0.3581 0.0
H109 H 0.78465 0.78994 0.39555 0.0
H110 H 0.7924 0.84405 0.31564 0.0
H111 H 0.7964 0.88204 0.34859 0.0
H112 H 0.77215 0.69375 0.32162 0.0
H113 H 0.86958 0.74281 0.3334 0.0
H114 H 0.78989 0.82787 0.42845 0.0
H115 H 0.80464 0.65362 0.33041 0.0
H116 H 0.90239 0.70275 0.34154 0.0
C117 C 0.81605 0.19978 0.69009 0.0
C118 C 0.78481 0.18536 0.68142 0.0
C119 C 0.81351 0.22162 0.70869 0.0
C120 C 0.77968 0.22936 0.71922 0.0
C121 C 0.74847 0.21487 0.71065 0.0
C122 C 0.751 0.19317 0.6919 0.0
C123 C 0.77691 0.25237 0.73926 0.0
C124 C 0.79806 0.27628 0.73255 0.0
C125 C 0.79569 0.29811 0.75147 0.0
C126 C 0.77188 0.29567 0.77744 0.0
C127 C 0.75045 0.27196 0.78447 0.0
C128 C 0.7531 0.25044 0.76519 0.0
C129 C 0.72564 0.2696 0.81216 0.0
C130 C 0.73682 0.27941 0.84007 0.0
C131 C 0.69063 0.25755 0.81092 0.0
C132 C 0.66733 0.25541 0.83699 0.0
C133 C 0.67857 0.26517 0.86492 0.0
C134 C 0.81808 0.32344 0.74428 0.0
C135 C 0.85414 0.32297 0.73344 0.0
C136 C 0.80374 0.34831 0.74875 0.0
C137 C 0.8251 0.37207 0.74317 0.0
C138 C 0.86131 0.37161 0.73275 0.0
C139 C 0.87545 0.34676 0.72768 0.0
C140 C 0.71358 0.27722 0.86612 0.0
H141 H 0.84247 0.19436 0.68219 0.0
H142 H 0.83805 0.23227 0.71513 0.0
H143 H 0.72202 0.22048 0.71822 0.0
H144 H 0.72645 0.18231 0.68586 0.0
H145 H 0.81574 0.27807 0.71213 0.0
H146 H 0.73732 0.23186 0.77086 0.0
H147 H 0.77004 0.31228 0.79232 0.0
H148 H 0.76374 0.28855 0.84189 0.0
H149 H 0.6811 0.25 0.78969 0.0
H150 H 0.64065 0.2458 0.83536 0.0
H151 H 0.86618 0.30418 0.72997 0.0
H152 H 0.77593 0.34947 0.75661 0.0
H153 H 0.72296 0.28521 0.88718 0.0
H154 H 0.90308 0.34563 0.71928 0.0
H155 H 0.81336 0.39078 0.74769 0.0
C156 C 0.7874 0.84766 0.65971 0.0
C157 C 0.78447 0.87299 0.67186 0.0
C158 C 0.78325 0.82442 0.67873 0.0
C159 C 0.77653 0.8259 0.71049 0.0
C160 C 0.77443 0.85126 0.7227 0.0
C161 C 0.77799 0.87443 0.70366 0.0
C162 C 0.77112 0.80117 0.73081 0.0
C163 C 0.79094 0.77872 0.72538 0.0
C164 C 0.78594 0.75547 0.74466 0.0
C165 C 0.76087 0.75493 0.7697 0.0
C166 C 0.7413 0.77723 0.77579 0.0
C167 C 0.74621 0.80007 0.75603 0.0
C168 C 0.71665 0.77702 0.80343 0.0
C169 C 0.69298 0.75468 0.81164 0.0
C170 C 0.7174 0.79901 0.82227 0.0
C171 C 0.69527 0.79857 0.84893 0.0
C172 C 0.67175 0.77618 0.85726 0.0
C173 C 0.8074 0.73193 0.73926 0.0
C174 C 0.81445 0.72352 0.70943 0.0
C175 C 0.82064 0.71743 0.76412 0.0
C176 C 0.83972 0.69481 0.75939 0.0
C177 C 0.84634 0.68618 0.72966 0.0
C178 C 0.83383 0.70092 0.70467 0.0
C179 C 0.67066 0.75431 0.83822 0.0
H180 H 0.79298 0.84568 0.63544 0.0
H181 H 0.78473 0.80529 0.66838 0.0
H182 H 0.77001 0.85334 0.74709 0.0
H183 H 0.77504 0.89344 0.71395 0.0
H184 H 0.81111 0.77959 0.7067 0.0
H185 H 0.7301 0.81689 0.76019 0.0
H186 H 0.75688 0.7372 0.78481 0.0
H187 H 0.69164 0.73752 0.79745 0.0
H188 H 0.7356 0.8164 0.8167 0.0
H189 H 0.69644 0.81584 0.86295 0.0
H190 H 0.80436 0.73408 0.68979 0.0
H191 H 0.81651 0.72367 0.78734 0.0
H192 H 0.65298 0.7367 0.84415 0.0
H193 H 0.83839 0.69466 0.68151 0.0
H194 H 0.84968 0.6842 0.77906 0.0
C195 C 0.68382 0.25011 0.2521 0.0
C196 C 0.69838 0.25705 0.22234 0.0
C197 C 0.70544 0.25159 0.2774 0.0
C198 C 0.74191 0.26044 0.27357 0.0
C199 C 0.75649 0.26759 0.244 0.0
C200 C 0.73506 0.26574 0.21865 0.0
C201 C 0.76505 0.26189 0.30022 0.0
C202 C 0.76596 0.23989 0.32098 0.0
C203 C 0.78969 0.24051 0.34502 0.0
C204 C 0.81235 0.26355 0.3485 0.0
C205 C 0.81089 0.28621 0.32853 0.0
C206 C 0.78708 0.28504 0.3044 0.0
C207 C 0.83378 0.31116 0.33283 0.0
C208 C 0.84175 0.31929 0.36238 0.0
C209 C 0.84708 0.32753 0.30733 0.0
C210 C 0.86669 0.35167 0.31127 0.0
C211 C 0.87425 0.35971 0.34072 0.0
C212 C 0.79114 0.21676 0.36607 0.0
C213 C 0.75946 0.20507 0.38096 0.0
C214 C 0.82394 0.20514 0.37062 0.0
C215 C 0.82491 0.18187 0.38928 0.0
C216 C 0.79321 0.17018 0.40415 0.0
C217 C 0.76055 0.18212 0.40007 0.0
C218 C 0.86212 0.34321 0.36625 0.0
H219 H 0.65558 0.24384 0.25599 0.0
H220 H 0.69352 0.24617 0.30003 0.0
H221 H 0.7847 0.27415 0.24042 0.0
H222 H 0.74746 0.27075 0.19612 0.0
H223 H 0.74913 0.22189 0.31776 0.0
H224 H 0.78498 0.30231 0.289 0.0
H225 H 0.831 0.26371 0.36684 0.0
H226 H 0.8316 0.30753 0.38261 0.0
H227 H 0.84248 0.32173 0.2842 0.0
H228 H 0.87628 0.36399 0.29125 0.0
H229 H 0.73388 0.21374 0.37781 0.0
H230 H 0.84866 0.21373 0.35921 0.0
H231 H 0.86766 0.34915 0.38918 0.0
H232 H 0.73574 0.17337 0.41119 0.0
H233 H 0.85044 0.17307 0.39221 0.0
C234 C 0.31977 0.27252 0.85467 0.0
C235 C 0.35556 0.26537 0.85073 0.0
C236 C 0.29746 0.27361 0.82982 0.0
C237 C 0.31025 0.26735 0.80048 0.0
C238 C 0.34588 0.26004 0.79648 0.0
C239 C 0.36834 0.25919 0.82128 0.0
C240 C 0.28639 0.26847 0.77418 0.0
C241 C 0.26532 0.29037 0.76954 0.0
C242 C 0.24201 0.29153 0.74512 0.0
C243 C 0.24004 0.27027 0.72517 0.0
C244 C 0.26114 0.24822 0.72937 0.0
C245 C 0.28433 0.24757 0.75389 0.0
C246 C 0.25873 0.22564 0.70847 0.0
C247 C 0.22512 0.21512 0.69948 0.0
C248 C 0.29009 0.21414 0.69779 0.0
C249 C 0.28789 0.19253 0.67869 0.0
C250 C 0.25428 0.18184 0.6699 0.0
C251 C 0.21998 0.31502 0.7406 0.0
C252 C 0.20418 0.32688 0.76598 0.0
C253 C 0.21522 0.32618 0.71108 0.0
C254 C 0.19559 0.34887 0.70713 0.0
C255 C 0.18049 0.36098 0.73261 0.0
C256 C 0.1848 0.34961 0.76204 0.0
C257 C 0.22291 0.1934 0.68048 0.0
H258 H 0.30873 0.27691 0.87707 0.0
H259 H 0.26994 0.27896 0.83367 0.0
H260 H 0.35658 0.25541 0.77404 0.0
H261 H 0.39589 0.25404 0.81723 0.0
H262 H 0.26773 0.30687 0.78467 0.0
H263 H 0.30002 0.23037 0.75778 0.0
H264 H 0.22205 0.27086 0.70637 0.0
H265 H 0.20045 0.22338 0.70754 0.0
H266 H 0.3164 0.22193 0.70409 0.0
H267 H 0.31255 0.18394 0.67119 0.0
H268 H 0.20662 0.31852 0.78899 0.0
H269 H 0.22738 0.31776 0.69105 0.0
H270 H 0.19664 0.18579 0.6739 0.0
H271 H 0.17288 0.35817 0.78209 0.0
H272 H 0.19293 0.35729 0.68417 0.0
C273 C 0.24875 0.85906 0.34487 0.0
C274 C 0.24425 0.85576 0.37691 0.0
C275 C 0.25175 0.83692 0.32683 0.0
C276 C 0.25053 0.81093 0.34041 0.0
C277 C 0.24544 0.80761 0.37244 0.0
C278 C 0.24225 0.82976 0.39047 0.0
C279 C 0.25553 0.78745 0.32132 0.0
C280 C 0.28109 0.78922 0.29655 0.0
C281 C 0.28653 0.76714 0.27868 0.0
C282 C 0.26644 0.74295 0.28605 0.0
C283 C 0.24026 0.74073 0.31036 0.0
C284 C 0.23503 0.76318 0.32786 0.0
C285 C 0.21818 0.71508 0.31697 0.0
C286 C 0.208 0.69886 0.2929 0.0
C287 C 0.2074 0.70636 0.34724 0.0
C288 C 0.18718 0.68207 0.3532 0.0
C289 C 0.17798 0.66578 0.32908 0.0
C290 C 0.31242 0.76944 0.25171 0.0
C291 C 0.31328 0.79173 0.23102 0.0
C292 C 0.33532 0.74888 0.24573 0.0
C293 C 0.35806 0.75032 0.21935 0.0
C294 C 0.35837 0.77234 0.19832 0.0
C295 C 0.33595 0.79314 0.2046 0.0
C296 C 0.18852 0.67439 0.29893 0.0
H297 H 0.24983 0.87881 0.3337 0.0
H298 H 0.25493 0.84019 0.30219 0.0
H299 H 0.24486 0.78793 0.38371 0.0
H300 H 0.23924 0.82657 0.41512 0.0
H301 H 0.29743 0.80766 0.29152 0.0
H302 H 0.21431 0.76203 0.34611 0.0
H303 H 0.27101 0.72585 0.27247 0.0
H304 H 0.21475 0.70511 0.26924 0.0
H305 H 0.21507 0.71805 0.36643 0.0
H306 H 0.17933 0.67574 0.37666 0.0
H307 H 0.29576 0.8078 0.23486 0.0
H308 H 0.33555 0.73157 0.26138 0.0
H309 H 0.18118 0.66233 0.27993 0.0
H310 H 0.33588 0.81053 0.18905 0.0
H311 H 0.3748 0.73387 0.21509 0.0
C312 C 0.07891 0.55297 0.37081 0.0
C313 C 0.09208 0.56049 0.39861 0.0
C314 C 0.07344 0.54474 0.42086 0.0
C315 C 0.05027 0.52843 0.40547 0.0
N316 N 0.0532 0.53258 0.37466 0.0
Co317 Co 0.02498 0.51294 0.34359 0.0
N318 N 0.99574 0.49118 0.3765 0.0
C319 C 0.99759 0.49333 0.40713 0.0
C320 C 0.97392 0.47592 0.42403 0.0
C321 C 0.9561 0.46155 0.40296 0.0
C322 C 0.97024 0.47092 0.37432 0.0
N323 N 0.99728 0.49288 0.31248 0.0
C324 C 0.97274 0.47171 0.31632 0.0
C325 C 0.9625 0.46229 0.28834 0.0
C326 C 0.98091 0.47814 0.26612 0.0
C327 C 0.00158 0.49606 0.28161 0.0
N328 N 0.05374 0.53513 0.31066 0.0
C329 C 0.05038 0.53405 0.28003 0.0
C330 C 0.07169 0.55298 0.26314 0.0
C331 C 0.08956 0.56728 0.28417 0.0
C332 C 0.07836 0.55599 0.31288 0.0
N333 N 0.06102 0.4854 0.34278 0.0
C334 C 0.10748 0.44313 0.34089 0.0
C335 C 0.09811 0.45656 0.31403 0.0
C336 C 0.07532 0.47751 0.3155 0.0
C337 C 0.09399 0.45181 0.36882 0.0
C338 C 0.07106 0.47284 0.36924 0.0
N339 N 0.98889 0.54046 0.34434 0.0
C340 C 0.95185 0.57063 0.31725 0.0
C341 C 0.94142 0.58213 0.34449 0.0
C342 C 0.9545 0.57192 0.37179 0.0
C343 C 0.97794 0.55122 0.3712 0.0
C344 C 0.97519 0.54997 0.31772 0.0
H345 H 0.98712 0.54447 0.39274 0.0
H346 H 0.98218 0.54234 0.29613 0.0
H347 H 0.06916 0.48667 0.29417 0.0
H348 H 0.06145 0.47834 0.39121 0.0
C349 C 0.02371 0.51045 0.41935 0.0
C350 C 0.09089 0.56639 0.34154 0.0
C351 C 0.95945 0.45927 0.34585 0.0
C352 C 0.02618 0.5155 0.26778 0.0
H353 H 0.11258 0.57609 0.40244 0.0
H354 H 0.07585 0.54555 0.44539 0.0
H355 H 0.97067 0.47349 0.44873 0.0
H356 H 0.93552 0.44559 0.40813 0.0
H357 H 0.94425 0.44536 0.28419 0.0
H358 H 0.98002 0.47638 0.24158 0.0
H359 H 0.07341 0.55638 0.2385 0.0
H360 H 0.10814 0.58444 0.2788 0.0
H361 H 0.10747 0.45053 0.29174 0.0
H362 H 0.10099 0.44244 0.39034 0.0
H363 H 0.94285 0.57795 0.2954 0.0
H364 H 0.94673 0.57981 0.39359 0.0
C365 C 0.06697 0.56544 0.74855 0.0
C366 C 0.07689 0.57461 0.77671 0.0
C367 C 0.05759 0.55901 0.79865 0.0
C368 C 0.03678 0.54141 0.78282 0.0
N369 N 0.04188 0.54458 0.75199 0.0
Co370 Co 0.01487 0.52466 0.72034 0.0
N371 N 0.98452 0.50315 0.7528 0.0
C372 C 0.98584 0.505 0.78352 0.0
C373 C 0.96211 0.48734 0.79998 0.0
C374 C 0.94494 0.473 0.77855 0.0
C375 C 0.95945 0.48271 0.75014 0.0
N376 N 0.98765 0.50489 0.68874 0.0
C377 C 0.96231 0.4842 0.6922 0.0
C378 C 0.95141 0.47558 0.66411 0.0
C379 C 0.97063 0.49126 0.64213 0.0
C380 C 0.99218 0.50842 0.65793 0.0
N381 N 0.04542 0.54602 0.68793 0.0
C382 C 0.0444 0.54386 0.65725 0.0
C383 C 0.06855 0.56119 0.64076 0.0
C384 C 0.08576 0.57559 0.66215 0.0
C385 C 0.07081 0.56628 0.69056 0.0
N386 N 0.0504 0.49671 0.72097 0.0
C387 C 0.09677 0.45432 0.72253 0.0
C388 C 0.0863 0.46542 0.69468 0.0
C389 C 0.06337 0.48646 0.69443 0.0
C390 C 0.08424 0.46528 0.7495 0.0
C391 C 0.06148 0.48629 0.74819 0.0
N392 N 0.97929 0.55258 0.71975 0.0
C393 C 0.94576 0.58494 0.69214 0.0
C394 C 0.9317 0.5942 0.71957 0.0
C395 C 0.94151 0.58197 0.74699 0.0
C396 C 0.96496 0.56141 0.74655 0.0
C397 C 0.96921 0.56421 0.69275 0.0
H398 H 0.97145 0.55329 0.76828 0.0
H399 H 0.97908 0.55809 0.67111 0.0
H400 H 0.05622 0.49388 0.67251 0.0
H401 H 0.05272 0.49345 0.7696 0.0
C402 C 0.01057 0.52289 0.79624 0.0
C403 C 0.08079 0.57798 0.71922 0.0
C404 C 0.94941 0.47117 0.72144 0.0
C405 C 0.019 0.52645 0.64456 0.0
H406 H 0.09541 0.59132 0.78114 0.0
H407 H 0.05779 0.56085 0.82321 0.0
H408 H 0.95824 0.48485 0.82464 0.0
H409 H 0.9245 0.45688 0.78331 0.0
H410 H 0.93231 0.45916 0.65984 0.0
H411 H 0.96992 0.48969 0.61755 0.0
H412 H 0.07259 0.56351 0.61611 0.0
H413 H 0.1065 0.59149 0.65734 0.0
H414 H 0.09574 0.45797 0.6731 0.0
H415 H 0.09116 0.45726 0.77171 0.0
H416 H 0.93863 0.59355 0.67026 0.0
H417 H 0.93186 0.58863 0.76891 0.0
C418 C 0.27662 0.9792 0.57052 0.0
C419 C 0.30934 0.97181 0.58117 0.0
C420 C 0.33562 0.98681 0.56441 0.0
C421 C 0.31757 0.00259 0.54476 0.0
N422 N 0.28127 0.99888 0.5482 0.0
Co423 Co 0.24474 0.01784 0.52449 0.0
N424 N 0.28349 0.03849 0.49833 0.0
C425 C 0.31949 0.03644 0.49947 0.0
C426 C 0.33935 0.05291 0.47843 0.0
C427 C 0.31466 0.06662 0.46316 0.0
C428 C 0.281 0.05784 0.47604 0.0
N429 N 0.20823 0.03701 0.5009 0.0
C430 C 0.21288 0.05717 0.47909 0.0
C431 C 0.18009 0.06604 0.47028 0.0
C432 C 0.15387 0.0509 0.48691 0.0
C433 C 0.17196 0.03389 0.50508 0.0
N434 N 0.20601 0.99698 0.55055 0.0
C435 C 0.16999 0.99852 0.54882 0.0
C436 C 0.15002 0.98068 0.56827 0.0
C437 C 0.17466 0.96662 0.58315 0.0
C438 C 0.20847 0.97691 0.57204 0.0
N439 N 0.24589 0.04679 0.55417 0.0
C440 C 0.2478 0.09028 0.59307 0.0
C441 C 0.21506 0.07783 0.58522 0.0
C442 C 0.21473 0.05627 0.56599 0.0
C443 C 0.27953 0.08009 0.58172 0.0
C444 C 0.27797 0.05856 0.56254 0.0
N445 N 0.24362 0.98895 0.49478 0.0
C446 C 0.21034 0.95682 0.4653 0.0
C447 C 0.24222 0.94649 0.45452 0.0
C448 C 0.27479 0.95798 0.46396 0.0
C449 C 0.27487 0.97892 0.48394 0.0
C450 C 0.21165 0.97798 0.4851 0.0
H451 H 0.30057 0.98643 0.49056 0.0
H452 H 0.18645 0.985 0.49239 0.0
H453 H 0.18892 0.04787 0.5607 0.0
H454 H 0.30315 0.05201 0.55456 0.0
C455 C 0.33391 0.01987 0.52163 0.0
C456 C 0.24203 0.96618 0.58155 0.0
C457 C 0.24768 0.06926 0.46708 0.0
C458 C 0.1557 0.01588 0.52746 0.0
H459 H 0.31379 0.95675 0.59883 0.0
H460 H 0.36446 0.98587 0.56589 0.0
H461 H 0.36837 0.05509 0.47503 0.0
H462 H 0.3208 0.08173 0.44496 0.0
H463 H 0.17539 0.08219 0.45408 0.0
H464 H 0.12507 0.05264 0.48648 0.0
H465 H 0.12097 0.97769 0.57067 0.0
H466 H 0.16826 0.95022 0.59973 0.0
H467 H 0.18967 0.08502 0.59326 0.0
H468 H 0.30563 0.08861 0.58764 0.0
H469 H 0.18443 0.94878 0.45832 0.0
H470 H 0.30021 0.95047 0.4565 0.0
C471 C 0.4626 0.80061 0.07243 0.0
C472 C 0.45341 0.8252 0.08268 0.0
C473 C 0.47368 0.84423 0.06525 0.0
C474 C 0.49416 0.83026 0.0456 0.0
N475 N 0.48786 0.80343 0.04902 0.0
Co476 Co 0.51406 0.77563 0.02701 0.0
N477 N 0.54509 0.80367 0.00239 0.0
C478 C 0.54325 0.83047 0.00317 0.0
C479 C 0.56619 0.84466 0.98222 0.0
C480 C 0.58342 0.82582 0.96677 0.0
C481 C 0.57012 0.80109 0.97943 0.0
N482 N 0.54114 0.74781 0.00593 0.0
C483 C 0.56759 0.75056 0.98353 0.0
C484 C 0.57962 0.72601 0.97574 0.0
C485 C 0.55951 0.70702 0.99339 0.0
C486 C 0.53665 0.72099 0.01103 0.0
N487 N 0.48214 0.74759 0.05073 0.0
C488 C 0.48182 0.72082 0.04804 0.0
C489 C 0.45671 0.70667 0.0672 0.0
C490 C 0.4402 0.72549 0.08332 0.0
C491 C 0.45647 0.75011 0.07315 0.0
N492 N 0.47904 0.77576 0.99396 0.0
C493 C 0.43306 0.77633 0.94426 0.0
C494 C 0.44657 0.75257 0.95526 0.0
C495 C 0.46903 0.7527 0.98 0.0
C496 C 0.44238 0.79972 0.95913 0.0
C497 C 0.46524 0.799 0.98364 0.0
N498 N 0.54912 0.77547 0.05997 0.0
C499 C 0.57908 0.75166 0.09972 0.0
C500 C 0.59696 0.7753 0.10832 0.0
C501 C 0.5907 0.79901 0.092 0.0
C502 C 0.56685 0.79866 0.06817 0.0
C503 C 0.55567 0.75217 0.07566 0.0
H504 H 0.5631 0.81741 0.05683 0.0
H505 H 0.54293 0.73346 0.07041 0.0
H506 H 0.47834 0.7339 0.98708 0.0
H507 H 0.47157 0.81757 0.99367 0.0
C508 C 0.51965 0.84172 0.02382 0.0
C509 C 0.4477 0.77517 0.08643 0.0
C510 C 0.58104 0.77577 0.96808 0.0
C511 C 0.5082 0.7095 0.03004 0.0
H512 H 0.43449 0.82904 0.10119 0.0
H513 H 0.4739 0.86568 0.06705 0.0
H514 H 0.56957 0.86613 0.97833 0.0
H515 H 0.6031 0.82989 0.94795 0.0
H516 H 0.6002 0.7222 0.95854 0.0
H517 H 0.56056 0.68555 0.99266 0.0
H518 H 0.45193 0.68518 0.06996 0.0
H519 H 0.41921 0.72151 0.10114 0.0
H520 H 0.44058 0.73389 0.94446 0.0
H521 H 0.43208 0.8186 0.952 0.0
H522 H 0.58253 0.73278 0.11184 0.0
H523 H 0.60428 0.81783 0.0974 0.0
C524 C 0.827 0.983 0.58245 0.0
C525 C 0.86006 0.97492 0.59159 0.0
C526 C 0.88589 0.99072 0.57531 0.0
C527 C 0.86731 0.00731 0.55703 0.0
N528 N 0.83108 0.00336 0.56087 0.0
Co529 Co 0.79404 0.02145 0.53679 0.0
N530 N 0.83228 0.04322 0.51116 0.0
C531 C 0.86836 0.0428 0.51351 0.0
C532 C 0.88783 0.06121 0.4944 0.0
C533 C 0.86274 0.07449 0.47914 0.0
C534 C 0.82921 0.06318 0.48966 0.0
N535 N 0.75699 0.03916 0.51244 0.0
C536 C 0.7611 0.05878 0.49003 0.0
C537 C 0.72822 0.06506 0.47875 0.0
C538 C 0.70234 0.0494 0.49519 0.0
C539 C 0.72079 0.03435 0.5153 0.0
N540 N 0.75578 1.00003 0.56269 0.0
C541 C 0.71967 1.00129 0.5613 0.0
C542 C 0.70024 0.98437 0.58218 0.0
C543 C 0.72537 0.97121 0.59757 0.0
C544 C 0.75883 0.98074 0.58492 0.0
N545 N 0.79317 0.05047 0.56626 0.0
C546 C 0.79171 0.09408 0.60486 0.0
C547 C 0.7599 0.08173 0.59492 0.0
C548 C 0.76124 0.06023 0.57584 0.0
C549 C 0.82427 0.08369 0.5958 0.0
C550 C 0.82437 0.06201 0.57675 0.0
N551 N 0.79485 0.99243 0.5073 0.0
C552 C 0.76328 0.95777 0.48025 0.0
C553 C 0.7957 0.94908 0.46839 0.0
C554 C 0.82771 0.96291 0.47572 0.0
C555 C 0.82667 0.98435 0.49506 0.0
C556 C 0.76347 0.97929 0.49939 0.0
H557 H 0.85198 0.99382 0.50009 0.0
H558 H 0.73784 0.98471 0.5077 0.0
H559 H 0.73603 0.05205 0.5689 0.0
H560 H 0.85005 0.05519 0.57048 0.0
C561 C 0.88311 0.0258 0.53496 0.0
C562 C 0.79253 0.96995 0.59386 0.0
C563 C 0.79523 0.07286 0.47966 0.0
C564 C 0.70481 0.01706 0.53861 0.0
H565 H 0.86521 0.95885 0.60775 0.0
H566 H 0.9148 0.98969 0.57603 0.0
H567 H 0.91679 0.06506 0.49247 0.0
H568 H 0.86867 0.09107 0.46271 0.0
H569 H 0.72339 0.07988 0.46092 0.0
H570 H 0.67346 0.04952 0.4933 0.0
H571 H 0.67124 0.98141 0.58525 0.0
H572 H 0.71967 0.95587 0.6156 0.0
H573 H 0.73389 0.08856 0.60185 0.0
H574 H 0.84972 0.09259 0.60275 0.0
H575 H 0.73771 0.94806 0.47474 0.0
H576 H 0.85355 0.95686 0.46718 0.0
C577 C 0.46788 0.27995 0.07709 0.0
C578 C 0.46052 0.30404 0.08986 0.0
C579 C 0.48839 0.32208 0.08074 0.0
C580 C 0.51121 0.30817 0.063 0.0
N581 N 0.4992 0.28255 0.0599 0.0
Co582 Co 0.52559 0.25544 0.03777 0.0
N583 N 0.55837 0.28347 0.01598 0.0
C584 C 0.56437 0.30883 0.02415 0.0
C585 C 0.58849 0.32354 0.00449 0.0
C586 C 0.59834 0.30629 0.98263 0.0
C587 C 0.57951 0.28198 0.99025 0.0
N588 N 0.55237 0.22852 0.0158 0.0
C589 C 0.57426 0.23172 0.99022 0.0
C590 C 0.58718 0.20754 0.98208 0.0
C591 C 0.57299 0.18864 0.00357 0.0
C592 C 0.55219 0.20226 0.02347 0.0
N593 N 0.49284 0.22725 0.05943 0.0
C594 C 0.49812 0.20092 0.06148 0.0
C595 C 0.47054 0.18608 0.0772 0.0
C596 C 0.44671 0.20423 0.08613 0.0
C597 C 0.46137 0.2293 0.07565 0.0
N598 N 0.49251 0.25746 0.00439 0.0
C599 C 0.44741 0.26031 0.9548 0.0
C600 C 0.45576 0.23557 0.96785 0.0
C601 C 0.47837 0.23459 0.99245 0.0
C602 C 0.46187 0.2836 0.9675 0.0
C603 C 0.48414 0.28174 0.99231 0.0
N604 N 0.5588 0.25346 0.07116 0.0
C605 C 0.56879 0.25076 0.12516 0.0
C606 C 0.60605 0.25242 0.11914 0.0
C607 C 0.61929 0.2543 0.08862 0.0
C608 C 0.59521 0.2545 0.06497 0.0
C609 C 0.54571 0.2515 0.10094 0.0
H610 H 0.6061 0.25571 0.04167 0.0
H611 H 0.51726 0.25076 0.10648 0.0
H612 H 0.4846 0.21527 0.00165 0.0
H613 H 0.495 0.29999 0.00143 0.0
C614 C 0.54221 0.3191 0.04672 0.0
C615 C 0.44744 0.25446 0.08558 0.0
C616 C 0.58427 0.25746 0.97402 0.0
C617 C 0.52687 0.19055 0.04531 0.0
H618 H 0.43809 0.30807 0.10512 0.0
H619 H 0.49153 0.34288 0.0863 0.0
H620 H 0.59679 0.34456 0.0052 0.0
H621 H 0.61726 0.311 0.96338 0.0
H622 H 0.60472 0.20387 0.96255 0.0
H623 H 0.57596 0.16732 0.00368 0.0
H624 H 0.46776 0.16461 0.08127 0.0
H625 H 0.42196 0.19964 0.09975 0.0
H626 H 0.44477 0.21699 0.95929 0.0
H627 H 0.45664 0.3032 0.95805 0.0
H628 H 0.55752 0.24954 0.14847 0.0
H629 H 0.648 0.25541 0.08308 0.0
C630 C 0.17825 0.39688 0.31433 0.0
C631 C 0.17044 0.37406 0.33387 0.0
H632 H 0.1654 0.43665 0.30172 0.0
C633 C 0.14277 0.37464 0.35674 0.0
H634 H 0.19906 0.39714 0.29622 0.0
C635 C 0.12286 0.39721 0.35946 0.0
C636 C 0.13024 0.41981 0.33949 0.0
H637 H 0.13634 0.3576 0.3725 0.0
H638 H 0.10105 0.39664 0.37673 0.0
C639 C 0.15855 0.41948 0.3172 0.0
C640 C 0.1589 0.62811 0.73114 0.0
C641 C 0.14626 0.65206 0.71895 0.0
H642 H 0.14839 0.5859 0.74013 0.0
C643 C 0.11227 0.65106 0.70591 0.0
H644 H 0.18456 0.62798 0.74184 0.0
C645 C 0.09119 0.627 0.70587 0.0
C646 C 0.1038 0.60336 0.71845 0.0
H647 H 0.10186 0.66884 0.69566 0.0
H648 H 0.06489 0.62684 0.69618 0.0
C649 C 0.13808 0.604 0.73054 0.0
C650 C 0.9041 0.64903 0.36106 0.0
C651 C 0.87661 0.65044 0.34008 0.0
H652 H 0.94623 0.6266 0.37875 0.0
C653 C 0.8695 0.6286 0.32168 0.0
H654 H 0.90998 0.66531 0.3759 0.0
C655 C 0.88983 0.60619 0.32372 0.0
C656 C 0.91799 0.60509 0.34407 0.0
H657 H 0.8488 0.62905 0.30504 0.0
H658 H 0.88364 0.5898 0.30912 0.0
C659 C 0.92457 0.62665 0.363 0.0
C660 C 0.92055 0.39799 0.7366 0.0
C661 C 0.88444 0.39691 0.72815 0.0
H662 H 0.96934 0.42244 0.74078 0.0
C663 C 0.87036 0.42041 0.71627 0.0
H664 H 0.93217 0.38046 0.74629 0.0
C665 C 0.8916 0.44447 0.71358 0.0
C666 C 0.92739 0.4454 0.72236 0.0
H667 H 0.84286 0.42027 0.70913 0.0
H668 H 0.88 0.46242 0.70496 0.0
C669 C 0.9418 0.42199 0.73367 0.0
C670 C 0.26869 0.14082 0.43712 0.0
C671 C 0.25407 0.14049 0.40807 0.0
H672 H 0.27725 0.11848 0.47887 0.0
C673 C 0.23724 0.11665 0.39845 0.0
H674 H 0.28171 0.15901 0.44503 0.0
C675 C 0.23541 0.09343 0.41747 0.0
C676 C 0.24951 0.09389 0.44671 0.0
H677 H 0.22609 0.11589 0.37601 0.0
H678 H 0.22292 0.07511 0.40943 0.0
C679 C 0.26613 0.11776 0.4564 0.0
C680 C 0.36433 0.7551 0.8867 0.0
C681 C 0.36748 0.77681 0.86517 0.0
H682 H 0.38153 0.73826 0.92891 0.0
C683 C 0.39185 0.79856 0.87 0.0
H684 H 0.34535 0.73824 0.88379 0.0
C685 C 0.413 0.79846 0.89565 0.0
C686 C 0.40997 0.77672 0.91726 0.0
H687 H 0.39507 0.81545 0.85361 0.0
H688 H 0.43223 0.81524 0.89819 0.0
C689 C 0.38517 0.75511 0.91252 0.0
C690 C 0.81842 0.90372 0.40393 0.0
C691 C 0.79483 0.88112 0.41126 0.0
H692 H 0.83715 0.94292 0.41612 0.0
C693 C 0.77205 0.88093 0.43774 0.0
H694 H 0.83656 0.90438 0.38383 0.0
C695 C 0.77257 0.90288 0.45631 0.0
C696 C 0.79591 0.92557 0.44887 0.0
H697 H 0.7533 0.86397 0.44389 0.0
H698 H 0.75475 0.90201 0.47662 0.0
C699 C 0.81902 0.92568 0.42258 0.0
C700 C 0.61737 0.26769 0.89105 0.0
C701 C 0.65404 0.26269 0.89278 0.0
H702 H 0.56652 0.26998 0.91574 0.0
C703 C 0.66727 0.25556 0.92145 0.0
H704 H 0.60646 0.27356 0.8694 0.0
C705 C 0.64447 0.25363 0.94776 0.0
C706 C 0.608 0.25862 0.94588 0.0
H707 H 0.69523 0.25129 0.92355 0.0
H708 H 0.65528 0.24833 0.96965 0.0
C709 C 0.59457 0.26576 0.91745 0.0
C710 C 0.25537 0.89497 0.60897 0.0
C711 C 0.24149 0.89435 0.6395 0.0
H712 H 0.26591 0.91815 0.56676 0.0
C713 C 0.2274 0.91767 0.65063 0.0
H714 H 0.26712 0.8777 0.59968 0.0
C715 C 0.22765 0.94099 0.6319 0.0
C716 C 0.24125 0.94135 0.60149 0.0
H717 H 0.21595 0.91794 0.67378 0.0
H718 H 0.2171 0.95875 0.64112 0.0
C719 C 0.25504 0.91818 0.59015 0.0
C720 C 0.66575 0.75322 0.1643 0.0
C721 C 0.66659 0.77407 0.18473 0.0
H722 H 0.64403 0.73759 0.12382 0.0
C723 C 0.64499 0.79563 0.17953 0.0
H724 H 0.68253 0.73654 0.16746 0.0
C725 C 0.62261 0.79614 0.15467 0.0
C726 C 0.62152 0.77518 0.13431 0.0
H727 H 0.64479 0.81184 0.19509 0.0
H728 H 0.60558 0.81269 0.15184 0.0
C729 C 0.64361 0.75382 0.13933 0.0
C730 C 0.8126 0.14311 0.66664 0.0
C731 C 0.78733 0.16229 0.66146 0.0
H732 H 0.8334 0.10631 0.65331 0.0
C733 C 0.76412 0.15915 0.63721 0.0
H734 H 0.83061 0.14485 0.68535 0.0
C735 C 0.76585 0.13722 0.61875 0.0
C736 C 0.7907 0.11776 0.62417 0.0
H737 H 0.74479 0.17383 0.6323 0.0
H738 H 0.74787 0.13567 0.6 0.0
C739 C 0.81422 0.12106 0.64824 0.0
C740 C 0.41072 0.24236 0.1674 0.0
C741 C 0.37764 0.25446 0.16693 0.0
H742 H 0.45875 0.23347 0.14227 0.0
C743 C 0.36704 0.26571 0.13886 0.0
H744 H 0.41961 0.2329 0.18821 0.0
C745 C 0.38906 0.26502 0.11216 0.0
C746 C 0.42233 0.25347 0.11309 0.0
H747 H 0.34212 0.27561 0.13756 0.0
H748 H 0.38059 0.27407 0.09095 0.0
C749 C 0.43298 0.24224 0.14094 0.0
C750 C 0.85842 0.63891 0.74431 0.0
C751 C 0.86631 0.66187 0.72508 0.0
H752 H 0.87211 0.59937 0.75708 0.0
C753 C 0.89425 0.66173 0.70243 0.0
H754 H 0.83657 0.63823 0.76156 0.0
C755 C 0.91485 0.63946 0.69996 0.0
C756 C 0.9078 0.61686 0.72001 0.0
H757 H 0.90106 0.6792 0.68739 0.0
H758 H 0.93715 0.64037 0.68313 0.0
C759 C 0.87883 0.61666 0.74175 0.0
C760 C 0.88154 0.40933 0.33315 0.0
C761 C 0.89471 0.38542 0.3445 0.0
H762 H 0.89146 0.45174 0.32566 0.0
C763 C 0.92824 0.38608 0.35803 0.0
H764 H 0.85561 0.40922 0.32282 0.0
C765 C 0.94902 0.41021 0.35898 0.0
C766 C 0.93623 0.43401 0.34689 0.0
H767 H 0.93885 0.36781 0.36686 0.0
H768 H 0.97539 0.41024 0.36852 0.0
C769 C 0.90193 0.43351 0.33475 0.0
C770 C 0.16602 0.40669 0.74827 0.0
C771 C 0.1604 0.38547 0.72875 0.0
H772 H 0.1512 0.44526 0.76111 0.0
C773 C 0.13494 0.38759 0.70611 0.0
H774 H 0.18594 0.40587 0.76556 0.0
C775 C 0.11477 0.41014 0.70366 0.0
C776 C 0.11979 0.43112 0.7237 0.0
H777 H 0.12982 0.37147 0.69088 0.0
H778 H 0.09449 0.41073 0.68667 0.0
C779 C 0.14605 0.42926 0.74573 0.0
C780 C 0.12306 0.63872 0.35027 0.0
C781 C 0.1571 0.6399 0.33499 0.0
H782 H 0.07507 0.61431 0.36383 0.0
C783 C 0.17028 0.61643 0.32373 0.0
H784 H 0.11235 0.65661 0.35903 0.0
C785 C 0.14938 0.59229 0.32703 0.0
C786 C 0.11461 0.59139 0.34089 0.0
H787 H 0.1966 0.61688 0.31207 0.0
H788 H 0.15984 0.57446 0.31788 0.0
C789 C 0.10182 0.61466 0.35298 0.0
C790 C 0.77423 0.89767 0.62185 0.0
C791 C 0.7875 0.89777 0.65153 0.0
H792 H 0.76596 0.92042 0.58033 0.0
C793 C 0.80296 0.92194 0.66183 0.0
H794 H 0.76149 0.87969 0.61324 0.0
C795 C 0.80452 0.94536 0.64319 0.0
C796 C 0.79146 0.94502 0.61362 0.0
H797 H 0.81404 0.92282 0.68426 0.0
H798 H 0.81601 0.96377 0.65183 0.0
C799 C 0.77642 0.92101 0.60305 0.0
C800 C 0.68066 0.27422 0.17048 0.0
C801 C 0.67541 0.25534 0.19532 0.0
H802 H 0.66299 0.28791 0.12685 0.0
C803 C 0.6478 0.23495 0.19421 0.0
H804 H 0.70117 0.29048 0.17067 0.0
C805 C 0.62556 0.23385 0.16932 0.0
C806 C 0.63076 0.25282 0.14474 0.0
H807 H 0.6434 0.21971 0.21251 0.0
H808 H 0.60434 0.21806 0.16921 0.0
C809 C 0.65874 0.27284 0.14537 0.0
C810 C 0.2765 0.15728 0.62472 0.0
C811 C 0.25206 0.1586 0.64992 0.0
H812 H 0.29389 0.1351 0.58677 0.0
C813 C 0.22584 0.13742 0.6561 0.0
H814 H 0.29664 0.17346 0.61903 0.0
C815 C 0.22436 0.11531 0.63768 0.0
C816 C 0.249 0.11389 0.6126 0.0
H817 H 0.20691 0.13768 0.67558 0.0
H818 H 0.20431 0.09909 0.64347 0.0
C819 C 0.27495 0.13524 0.60626 0.0
C820 C 0.4169 0.76518 0.16996 0.0
C821 C 0.38144 0.77334 0.16964 0.0
H822 H 0.46565 0.75954 0.14364 0.0
C823 C 0.36798 0.78211 0.14161 0.0
H824 H 0.42817 0.75856 0.19119 0.0
C825 C 0.38947 0.78268 0.11456 0.0
C826 C 0.4248 0.77463 0.11509 0.0
H827 H 0.34063 0.78813 0.1405 0.0
H828 H 0.37853 0.78933 0.09318 0.0
C829 C 0.43838 0.76583 0.1429 0.0
C830 C 0.8098 0.12289 0.41201 0.0
C831 C 0.79407 0.14534 0.42354 0.0
H832 H 0.82162 0.08199 0.42065 0.0
C833 C 0.77872 0.14382 0.45352 0.0
H834 H 0.82144 0.12352 0.38884 0.0
C835 C 0.77947 0.12034 0.47179 0.0
C836 C 0.79508 0.09789 0.46022 0.0
H837 H 0.76652 0.1609 0.46291 0.0
H838 H 0.76781 0.11963 0.49497 0.0
C839 C 0.8099 0.09924 0.4301 0.0
C840 C 0.37743 0.28302 0.90016 0.0
C841 C 0.37934 0.26424 0.87726 0.0
H842 H 0.39666 0.29626 0.94267 0.0
C843 C 0.40402 0.24428 0.88004 0.0
H844 H 0.35914 0.29891 0.89862 0.0
C845 C 0.42616 0.24312 0.90501 0.0
C846 C 0.42403 0.26175 0.92804 0.0
H847 H 0.40599 0.22927 0.8631 0.0
H848 H 0.44517 0.22768 0.90608 0.0
C849 C 0.39937 0.28173 0.92526 0.0
C850 C 0.21769 0.87947 0.42118 0.0
C851 C 0.24271 0.87938 0.39618 0.0
H852 H 0.19786 0.90075 0.45916 0.0
C853 C 0.26689 0.90182 0.39005 0.0
H854 H 0.19853 0.86256 0.42634 0.0
C855 C 0.26646 0.92368 0.40877 0.0
C856 C 0.24168 0.92368 0.43395 0.0
H857 H 0.28671 0.90228 0.37113 0.0
H858 H 0.28554 0.94062 0.40351 0.0
C859 C 0.21708 0.90143 0.43979 0.0
C860 C 0.66274 0.78477 0.9131 0.0
C861 C 0.64862 0.77566 0.88582 0.0
H862 H 0.65229 0.79162 0.9607 0.0
C863 C 0.61223 0.76622 0.88599 0.0
H864 H 0.69079 0.7918 0.91378 0.0
C865 C 0.59035 0.76621 0.91278 0.0
C866 C 0.60451 0.77553 0.93982 0.0
H867 H 0.60052 0.75928 0.8653 0.0
H868 H 0.56228 0.75913 0.91238 0.0
C869 C 0.64089 0.78458 0.9399 0.0
loop_
_geom_bond_atom_site_label_1
_geom_bond_atom_site_label_2
_geom_bond_distance
_geom_bond_site_symmetry_2
_ccdc_geom_bond_type
C0 C1 1.386 . S
C0 C2 1.397 . S
C0 H24 0.931 . S
C1 C0 1.386 . S
C1 C5 1.397 . S
C2 C0 1.397 . S
C2 C3 1.384 . S
C2 H25 0.930 . S
C3 C2 1.384 . S
C3 C4 1.377 . S
C3 C6 1.481 . S
C4 C3 1.377 . S
C4 C5 1.389 . S
C4 H26 0.929 . S
C5 C1 1.397 . S
C5 C4 1.389 . S
C5 H27 0.931 . S
C6 C3 1.481 . S
C6 C7 1.387 . S
C6 C11 1.390 . S
C7 C6 1.387 . S
C7 C8 1.401 . S
C7 H28 0.930 . S
C8 C7 1.401 . S
C8 C9 1.376 . S
C8 C17 1.511 . S
C9 C8 1.376 . S
C9 C10 1.392 . S
C9 H30 0.931 . S
C10 C9 1.392 . S
C10 C11 1.361 . S
C10 C12 1.500 . S
C11 C6 1.390 . S
C11 C10 1.361 . S
C11 H29 0.931 . S
C12 C10 1.500 . S
C12 C13 1.371 . S
C12 C14 1.365 . S
C13 C12 1.371 . S
C13 C23 1.386 . S
C13 H31 0.931 . S
C14 C12 1.365 . S
C14 C15 1.409 . S
C14 H32 0.929 . S
C15 C14 1.409 . S
C15 C16 1.380 . S
C15 H33 0.930 . S
C16 C15 1.380 . S
C16 C23 1.357 . S
C17 C8 1.511 . S
C17 C18 1.341 . S
C17 C19 1.371 . S
C18 C17 1.341 . S
C18 C22 1.394 . S
C18 H34 0.930 . S
C19 C17 1.371 . S
C19 C20 1.392 . S
C19 H35 0.931 . S
C20 C19 1.392 . S
C20 C21 1.331 . S
C20 H38 0.932 . S
C21 C20 1.331 . S
C21 C22 1.336 . S
C22 C18 1.394 . S
C22 C21 1.336 . S
C22 H37 0.929 . S
C23 C13 1.386 . S
C23 C16 1.357 . S
C23 H36 0.928 . S
H24 C0 0.931 . S
H25 C2 0.930 . S
H26 C4 0.929 . S
H27 C5 0.931 . S
H28 C7 0.930 . S
H29 C11 0.931 . S
H30 C9 0.931 . S
H31 C13 0.931 . S
H32 C14 0.929 . S
H33 C15 0.930 . S
H34 C18 0.930 . S
H35 C19 0.931 . S
H36 C23 0.928 . S
H37 C22 0.929 . S
H38 C20 0.932 . S
C39 C40 1.386 . S
C39 C41 1.397 . S
C39 H63 0.931 . S
C40 C39 1.386 . S
C40 C44 1.397 . S
C41 C39 1.397 . S
C41 C42 1.384 . S
C41 H64 0.930 . S
C42 C41 1.384 . S
C42 C43 1.377 . S
C42 C45 1.481 . S
C43 C42 1.377 . S
C43 C44 1.389 . S
C43 H65 0.929 . S
C44 C40 1.397 . S
C44 C43 1.389 . S
C44 H66 0.931 . S
C45 C42 1.481 . S
C45 C46 1.387 . S
C45 C50 1.390 . S
C46 C45 1.387 . S
C46 C47 1.401 . S
C46 H67 0.930 . S
C47 C46 1.401 . S
C47 C48 1.376 . S
C47 C56 1.511 . S
C48 C47 1.376 . S
C48 C49 1.392 . S
C48 H69 0.931 . S
C49 C48 1.392 . S
C49 C50 1.361 . S
C49 C51 1.500 . S
C50 C45 1.390 . S
C50 C49 1.361 . S
C50 H68 0.931 . S
C51 C49 1.500 . S
C51 C52 1.371 . S
C51 C53 1.365 . S
C52 C51 1.371 . S
C52 C62 1.386 . S
C52 H70 0.931 . S
C53 C51 1.365 . S
C53 C54 1.409 . S
C53 H71 0.929 . S
C54 C53 1.409 . S
C54 C55 1.380 . S
C54 H72 0.930 . S
C55 C54 1.380 . S
C55 C62 1.357 . S
C56 C47 1.511 . S
C56 C57 1.341 . S
C56 C58 1.371 . S
C57 C56 1.341 . S
C57 C61 1.394 . S
C57 H73 0.930 . S
C58 C56 1.371 . S
C58 C59 1.392 . S
C58 H74 0.931 . S
C59 C58 1.392 . S
C59 C60 1.331 . S
C59 H77 0.932 . S
C60 C59 1.331 . S
C60 C61 1.336 . S
C61 C57 1.394 . S
C61 C60 1.336 . S
C61 H76 0.929 . S
C62 C52 1.386 . S
C62 C55 1.357 . S
C62 H75 0.928 . S
H63 C39 0.931 . S
H64 C41 0.930 . S
H65 C43 0.929 . S
H66 C44 0.931 . S
H67 C46 0.930 . S
H68 C50 0.931 . S
H69 C48 0.931 . S
H70 C52 0.931 . S
H71 C53 0.929 . S
H72 C54 0.930 . S
H73 C57 0.930 . S
H74 C58 0.931 . S
H75 C62 0.928 . S
H76 C61 0.929 . S
H77 C59 0.932 . S
C78 C79 1.386 . S
C78 C80 1.397 . S
C78 H102 0.931 . S
C79 C78 1.386 . S
C79 C83 1.397 . S
C80 C78 1.397 . S
C80 C81 1.384 . S
C80 H103 0.930 . S
C81 C80 1.384 . S
C81 C82 1.377 . S
C81 C84 1.481 . S
C82 C81 1.377 . S
C82 C83 1.389 . S
C82 H104 0.929 . S
C83 C79 1.397 . S
C83 C82 1.389 . S
C83 H105 0.931 . S
C84 C81 1.481 . S
C84 C85 1.387 . S
C84 C89 1.390 . S
C85 C84 1.387 . S
C85 C86 1.401 . S
C85 H106 0.930 . S
C86 C85 1.401 . S
C86 C87 1.376 . S
C86 C95 1.511 . S
C87 C86 1.376 . S
C87 C88 1.392 . S
C87 H108 0.931 . S
C88 C87 1.392 . S
C88 C89 1.361 . S
C88 C90 1.500 . S
C89 C84 1.390 . S
C89 C88 1.361 . S
C89 H107 0.931 . S
C90 C88 1.500 . S
C90 C91 1.371 . S
C90 C92 1.365 . S
C91 C90 1.371 . S
C91 C101 1.386 . S
C91 H109 0.931 . S
C92 C90 1.365 . S
C92 C93 1.409 . S
C92 H110 0.929 . S
C93 C92 1.409 . S
C93 C94 1.380 . S
C93 H111 0.930 . S
C94 C93 1.380 . S
C94 C101 1.357 . S
C95 C86 1.511 . S
C95 C96 1.341 . S
C95 C97 1.371 . S
C96 C95 1.341 . S
C96 C100 1.394 . S
C96 H112 0.930 . S
C97 C95 1.371 . S
C97 C98 1.392 . S
C97 H113 0.931 . S
C98 C97 1.392 . S
C98 C99 1.331 . S
C98 H116 0.932 . S
C99 C98 1.331 . S
C99 C100 1.336 . S
C100 C96 1.394 . S
C100 C99 1.336 . S
C100 H115 0.929 . S
C101 C91 1.386 . S
C101 C94 1.357 . S
C101 H114 0.928 . S
H102 C78 0.931 . S
H103 C80 0.930 . S
H104 C82 0.929 . S
H105 C83 0.931 . S
H106 C85 0.930 . S
H107 C89 0.931 . S
H108 C87 0.931 . S
H109 C91 0.931 . S
H110 C92 0.929 . S
H111 C93 0.930 . S
H112 C96 0.930 . S
H113 C97 0.931 . S
H114 C101 0.928 . S
H115 C100 0.929 . S
H116 C98 0.932 . S
C117 C118 1.386 . S
C117 C119 1.397 . S
C117 H141 0.931 . S
C118 C117 1.386 . S
C118 C122 1.397 . S
C119 C117 1.397 . S
C119 C120 1.384 . S
C119 H142 0.930 . S
C120 C119 1.384 . S
C120 C121 1.377 . S
C120 C123 1.481 . S
C121 C120 1.377 . S
C121 C122 1.389 . S
C121 H143 0.929 . S
C122 C118 1.397 . S
C122 C121 1.389 . S
C122 H144 0.931 . S
C123 C120 1.481 . S
C123 C124 1.387 . S
C123 C128 1.390 . S
C124 C123 1.387 . S
C124 C125 1.401 . S
C124 H145 0.930 . S
C125 C124 1.401 . S
C125 C126 1.376 . S
C125 C134 1.511 . S
C126 C125 1.376 . S
C126 C127 1.392 . S
C126 H147 0.931 . S
C127 C126 1.392 . S
C127 C128 1.361 . S
C127 C129 1.500 . S
C128 C123 1.390 . S
C128 C127 1.361 . S
C128 H146 0.931 . S
C129 C127 1.500 . S
C129 C130 1.371 . S
C129 C131 1.365 . S
C130 C129 1.371 . S
C130 C140 1.386 . S
C130 H148 0.931 . S
C131 C129 1.365 . S
C131 C132 1.409 . S
C131 H149 0.929 . S
C132 C131 1.409 . S
C132 C133 1.380 . S
C132 H150 0.930 . S
C133 C132 1.380 . S
C133 C140 1.357 . S
C134 C125 1.511 . S
C134 C135 1.341 . S
C134 C136 1.371 . S
C135 C134 1.341 . S
C135 C139 1.394 . S
C135 H151 0.930 . S
C136 C134 1.371 . S
C136 C137 1.392 . S
C136 H152 0.931 . S
C137 C136 1.392 . S
C137 C138 1.331 . S
C137 H155 0.932 . S
C138 C137 1.331 . S
C138 C139 1.336 . S
C139 C135 1.394 . S
C139 C138 1.336 . S
C139 H154 0.929 . S
C140 C130 1.386 . S
C140 C133 1.357 . S
C140 H153 0.928 . S
H141 C117 0.931 . S
H142 C119 0.930 . S
H143 C121 0.929 . S
H144 C122 0.931 . S
H145 C124 0.930 . S
H146 C128 0.931 . S
H147 C126 0.931 . S
H148 C130 0.931 . S
H149 C131 0.929 . S
H150 C132 0.930 . S
H151 C135 0.930 . S
H152 C136 0.931 . S
H153 C140 0.928 . S
H154 C139 0.929 . S
H155 C137 0.932 . S
C156 C157 1.386 . S
C156 C158 1.397 . S
C156 H180 0.931 . S
C157 C156 1.386 . S
C157 C161 1.397 . S
C158 C156 1.397 . S
C158 C159 1.384 . S
C158 H181 0.930 . S
C159 C158 1.384 . S
C159 C160 1.377 . S
C159 C162 1.481 . S
C160 C159 1.377 . S
C160 C161 1.389 . S
C160 H182 0.929 . S
C161 C157 1.397 . S
C161 C160 1.389 . S
C161 H183 0.931 . S
C162 C159 1.481 . S
C162 C163 1.387 . S
C162 C167 1.390 . S
C163 C162 1.387 . S
C163 C164 1.401 . S
C163 H184 0.930 . S
C164 C163 1.401 . S
C164 C165 1.376 . S
C164 C173 1.511 . S
C165 C164 1.376 . S
C165 C166 1.392 . S
C165 H186 0.931 . S
C166 C165 1.392 . S
C166 C167 1.361 . S
C166 C168 1.500 . S
C167 C162 1.390 . S
C167 C166 1.361 . S
C167 H185 0.931 . S
C168 C166 1.500 . S
C168 C169 1.371 . S
C168 C170 1.365 . S
C169 C168 1.371 . S
C169 C179 1.386 . S
C169 H187 0.931 . S
C170 C168 1.365 . S
C170 C171 1.409 . S
C170 H188 0.929 . S
C171 C170 1.409 . S
C171 C172 1.380 . S
C171 H189 0.930 . S
C172 C171 1.380 . S
C172 C179 1.357 . S
C173 C164 1.511 . S
C173 C174 1.341 . S
C173 C175 1.371 . S
C174 C173 1.341 . S
C174 C178 1.394 . S
C174 H190 0.930 . S
C175 C173 1.371 . S
C175 C176 1.392 . S
C175 H191 0.931 . S
C176 C175 1.392 . S
C176 C177 1.331 . S
C176 H194 0.932 . S
C177 C176 1.331 . S
C177 C178 1.336 . S
C178 C174 1.394 . S
C178 C177 1.336 . S
C178 H193 0.929 . S
C179 C169 1.386 . S
C179 C172 1.357 . S
C179 H192 0.928 . S
H180 C156 0.931 . S
H181 C158 0.930 . S
H182 C160 0.929 . S
H183 C161 0.931 . S
H184 C163 0.930 . S
H185 C167 0.931 . S
H186 C165 0.931 . S
H187 C169 0.931 . S
H188 C170 0.929 . S
H189 C171 0.930 . S
H190 C174 0.930 . S
H191 C175 0.931 . S
H192 C179 0.928 . S
H193 C178 0.929 . S
H194 C176 0.932 . S
C195 C196 1.386 . S
C195 C197 1.397 . S
C195 H219 0.931 . S
C196 C195 1.386 . S
C196 C200 1.397 . S
C197 C195 1.397 . S
C197 C198 1.384 . S
C197 H220 0.930 . S
C198 C197 1.384 . S
C198 C199 1.377 . S
C198 C201 1.481 . S
C199 C198 1.377 . S
C199 C200 1.389 . S
C199 H221 0.929 . S
C200 C196 1.397 . S
C200 C199 1.389 . S
C200 H222 0.931 . S
C201 C198 1.481 . S
C201 C202 1.387 . S
C201 C206 1.390 . S
C202 C201 1.387 . S
C202 C203 1.401 . S
C202 H223 0.930 . S
C203 C202 1.401 . S
C203 C204 1.376 . S
C203 C212 1.511 . S
C204 C203 1.376 . S
C204 C205 1.392 . S
C204 H225 0.931 . S
C205 C204 1.392 . S
C205 C206 1.361 . S
C205 C207 1.500 . S
C206 C201 1.390 . S
C206 C205 1.361 . S
C206 H224 0.931 . S
C207 C205 1.500 . S
C207 C208 1.371 . S
C207 C209 1.365 . S
C208 C207 1.371 . S
C208 C218 1.386 . S
C208 H226 0.931 . S
C209 C207 1.365 . S
C209 C210 1.409 . S
C209 H227 0.929 . S
C210 C209 1.409 . S
C210 C211 1.380 . S
C210 H228 0.930 . S
C211 C210 1.380 . S
C211 C218 1.357 . S
C212 C203 1.511 . S
C212 C213 1.341 . S
C212 C214 1.371 . S
C213 C212 1.341 . S
C213 C217 1.394 . S
C213 H229 0.930 . S
C214 C212 1.371 . S
C214 C215 1.392 . S
C214 H230 0.931 . S
C215 C214 1.392 . S
C215 C216 1.331 . S
C215 H233 0.932 . S
C216 C215 1.331 . S
C216 C217 1.336 . S
C217 C213 1.394 . S
C217 C216 1.336 . S
C217 H232 0.929 . S
C218 C208 1.386 . S
C218 C211 1.357 . S
C218 H231 0.928 . S
H219 C195 0.931 . S
H220 C197 0.930 . S
H221 C199 0.929 . S
H222 C200 0.931 . S
H223 C202 0.930 . S
H224 C206 0.931 . S
H225 C204 0.931 . S
H226 C208 0.931 . S
H227 C209 0.929 . S
H228 C210 0.930 . S
H229 C213 0.930 . S
H230 C214 0.931 . S
H231 C218 0.928 . S
H232 C217 0.929 . S
H233 C215 0.932 . S
C234 C235 1.386 . S
C234 C236 1.397 . S
C234 H258 0.931 . S
C235 C234 1.386 . S
C235 C239 1.397 . S
C236 C234 1.397 . S
C236 C237 1.384 . S
C236 H259 0.930 . S
C237 C236 1.384 . S
C237 C238 1.377 . S
C237 C240 1.481 . S
C238 C237 1.377 . S
C238 C239 1.389 . S
C238 H260 0.929 . S
C239 C235 1.397 . S
C239 C238 1.389 . S
C239 H261 0.931 . S
C240 C237 1.481 . S
C240 C241 1.387 . S
C240 C245 1.390 . S
C241 C240 1.387 . S
C241 C242 1.401 . S
C241 H262 0.930 . S
C242 C241 1.401 . S
C242 C243 1.376 . S
C242 C251 1.511 . S
C243 C242 1.376 . S
C243 C244 1.392 . S
C243 H264 0.931 . S
C244 C243 1.392 . S
C244 C245 1.361 . S
C244 C246 1.500 . S
C245 C240 1.390 . S
C245 C244 1.361 . S
C245 H263 0.931 . S
C246 C244 1.500 . S
C246 C247 1.371 . S
C246 C248 1.365 . S
C247 C246 1.371 . S
C247 C257 1.386 . S
C247 H265 0.931 . S
C248 C246 1.365 . S
C248 C249 1.409 . S
C248 H266 0.929 . S
C249 C248 1.409 . S
C249 C250 1.380 . S
C249 H267 0.930 . S
C250 C249 1.380 . S
C250 C257 1.357 . S
C251 C242 1.511 . S
C251 C252 1.341 . S
C251 C253 1.371 . S
C252 C251 1.341 . S
C252 C256 1.394 . S
C252 H268 0.930 . S
C253 C251 1.371 . S
C253 C254 1.392 . S
C253 H269 0.931 . S
C254 C253 1.392 . S
C254 C255 1.331 . S
C254 H272 0.932 . S
C255 C254 1.331 . S
C255 C256 1.336 . S
C256 C252 1.394 . S
C256 C255 1.336 . S
C256 H271 0.929 . S
C257 C247 1.386 . S
C257 C250 1.357 . S
C257 H270 0.928 . S
H258 C234 0.931 . S
H259 C236 0.930 . S
H260 C238 0.929 . S
H261 C239 0.931 . S
H262 C241 0.930 . S
H263 C245 0.931 . S
H264 C243 0.931 . S
H265 C247 0.931 . S
H266 C248 0.929 . S
H267 C249 0.930 . S
H268 C252 0.930 . S
H269 C253 0.931 . S
H270 C257 0.928 . S
H271 C256 0.929 . S
H272 C254 0.932 . S
C273 C274 1.386 . S
C273 C275 1.397 . S
C273 H297 0.931 . S
C274 C273 1.386 . S
C274 C278 1.397 . S
C275 C273 1.397 . S
C275 C276 1.384 . S
C275 H298 0.930 . S
C276 C275 1.384 . S
C276 C277 1.377 . S
C276 C279 1.481 . S
C277 C276 1.377 . S
C277 C278 1.389 . S
C277 H299 0.929 . S
C278 C274 1.397 . S
C278 C277 1.389 . S
C278 H300 0.931 . S
C279 C276 1.481 . S
C279 C280 1.387 . S
C279 C284 1.390 . S
C280 C279 1.387 . S
C280 C281 1.401 . S
C280 H301 0.930 . S
C281 C280 1.401 . S
C281 C282 1.376 . S
C281 C290 1.511 . S
C282 C281 1.376 . S
C282 C283 1.392 . S
C282 H303 0.931 . S
C283 C282 1.392 . S
C283 C284 1.361 . S
C283 C285 1.500 . S
C284 C279 1.390 . S
C284 C283 1.361 . S
C284 H302 0.931 . S
C285 C283 1.500 . S
C285 C286 1.371 . S
C285 C287 1.365 . S
C286 C285 1.371 . S
C286 C296 1.386 . S
C286 H304 0.931 . S
C287 C285 1.365 . S
C287 C288 1.409 . S
C287 H305 0.929 . S
C288 C287 1.409 . S
C288 C289 1.380 . S
C288 H306 0.930 . S
C289 C288 1.380 . S
C289 C296 1.357 . S
C290 C281 1.511 . S
C290 C291 1.341 . S
C290 C292 1.371 . S
C291 C290 1.341 . S
C291 C295 1.394 . S
C291 H307 0.930 . S
C292 C290 1.371 . S
C292 C293 1.392 . S
C292 H308 0.931 . S
C293 C292 1.392 . S
C293 C294 1.331 . S
C293 H311 0.932 . S
C294 C293 1.331 . S
C294 C295 1.336 . S
C295 C291 1.394 . S
C295 C294 1.336 . S
C295 H310 0.929 . S
C296 C286 1.386 . S
C296 C289 1.357 . S
C296 H309 0.928 . S
H297 C273 0.931 . S
H298 C275 0.930 . S
H299 C277 0.929 . S
H300 C278 0.931 . S
H301 C280 0.930 . S
H302 C284 0.931 . S
H303 C282 0.931 . S
H304 C286 0.931 . S
H305 C287 0.929 . S
H306 C288 0.930 . S
H307 C291 0.930 . S
H308 C292 0.931 . S
H309 C296 0.928 . S
H310 C295 0.929 . S
H311 C293 0.932 . S
C312 C313 1.443 . S
C312 N316 1.376 . S
C312 C350 1.389 . S
C313 C312 1.443 . S
C313 C314 1.340 . S
C313 H353 0.951 . S
C314 C313 1.340 . S
C314 C315 1.439 . S
C314 H354 0.950 . S
C315 C314 1.439 . S
C315 N316 1.374 . S
C315 C349 1.395 . S
N316 C312 1.376 . S
N316 C315 1.374 . S
N316 Co317 2.008 . S
Co317 N316 2.008 . S
Co317 N318 1.981 1_455 S
Co317 N323 2.008 . S
Co317 N328 1.995 . S
Co317 N333 2.282 . S
Co317 N339 2.282 1_455 S
N318 Co317 1.981 1_655 S
N318 C319 1.375 . S
N318 C322 1.400 . S
C319 N318 1.375 . S
C319 C320 1.454 . S
C319 C349 1.384 1_655 S
C320 C319 1.454 . S
C320 C321 1.339 . S
C320 H355 0.949 . S
C321 C320 1.339 . S
C321 C322 1.439 . S
C321 H356 0.950 . S
C322 N318 1.400 . S
C322 C321 1.439 . S
C322 C351 1.392 . S
N323 Co317 2.008 . S
N323 C324 1.376 1_455 S
N323 C327 1.374 . S
C324 N323 1.376 1_655 S
C324 C325 1.443 . S
C324 C351 1.389 . S
C325 C324 1.443 . S
C325 C326 1.340 . S
C325 H357 0.951 . S
C326 C325 1.340 . S
C326 C327 1.439 1_655 S
C326 H358 0.950 . S
C327 N323 1.374 . S
C327 C326 1.439 1_455 S
C327 C352 1.395 . S
N328 Co317 1.995 . S
N328 C329 1.376 . S
N328 C332 1.383 . S
C329 N328 1.376 . S
C329 C330 1.446 . S
C329 C352 1.391 . S
C330 C329 1.446 . S
C330 C331 1.339 . S
C330 H359 0.949 . S
C331 C330 1.339 . S
C331 C332 1.439 . S
C331 H360 0.950 . S
C332 N328 1.383 . S
C332 C331 1.439 . S
C332 C350 1.392 . S
N333 Co317 2.282 . S
N333 C336 1.332 . S
N333 C338 1.332 . S
C334 C335 1.386 . S
C334 C337 1.388 . S
C335 C334 1.386 . S
C335 C336 1.382 . S
C335 H361 0.950 . S
C336 N333 1.332 . S
C336 C335 1.382 . S
C336 H347 0.952 . S
C337 C334 1.388 . S
C337 C338 1.382 . S
C337 H362 0.950 . S
C338 N333 1.332 . S
C338 C337 1.382 . S
C338 H348 0.948 . S
N339 Co317 2.282 1_655 S
N339 C343 1.332 . S
N339 C344 1.332 . S
C340 C341 1.388 . S
C340 C344 1.382 . S
C340 H363 0.950 . S
C341 C340 1.388 . S
C341 C342 1.386 . S
C342 C341 1.386 . S
C342 C343 1.382 . S
C342 H364 0.950 . S
C343 N339 1.332 . S
C343 C342 1.382 . S
C343 H345 0.952 . S
C344 N339 1.332 . S
C344 C340 1.382 . S
C344 H346 0.948 . S
H345 C343 0.952 . S
H346 C344 0.948 . S
H347 C336 0.952 . S
H348 C338 0.948 . S
C349 C315 1.395 . S
C349 C319 1.384 1_455 S
C350 C312 1.389 . S
C350 C332 1.392 . S
C351 C322 1.392 . S
C351 C324 1.389 . S
C352 C327 1.395 . S
C352 C329 1.391 . S
H353 C313 0.951 . S
H354 C314 0.950 . S
H355 C320 0.949 . S
H356 C321 0.950 . S
H357 C325 0.951 . S
H358 C326 0.950 . S
H359 C330 0.949 . S
H360 C331 0.950 . S
H361 C335 0.950 . S
H362 C337 0.950 . S
H363 C340 0.950 . S
H364 C342 0.950 . S
C365 C366 1.443 . S
C365 N369 1.376 . S
C365 C403 1.389 . S
C366 C365 1.443 . S
C366 C367 1.340 . S
C366 H406 0.951 . S
C367 C366 1.340 . S
C367 C368 1.439 . S
C367 H407 0.950 . S
C368 C367 1.439 . S
C368 N369 1.374 . S
C368 C402 1.395 . S
N369 C365 1.376 . S
N369 C368 1.374 . S
N369 Co370 2.008 . S
Co370 N369 2.008 . S
Co370 N371 1.995 1_455 S
Co370 N376 2.008 1_455 S
Co370 N381 1.995 . S
Co370 N386 2.282 . S
Co370 N392 2.282 1_455 S
N371 Co370 1.995 1_655 S
N371 C372 1.376 . S
N371 C375 1.383 . S
C372 N371 1.376 . S
C372 C373 1.446 . S
C372 C402 1.391 1_655 S
C373 C372 1.446 . S
C373 C374 1.339 . S
C373 H408 0.949 . S
C374 C373 1.339 . S
C374 C375 1.439 . S
C374 H409 0.950 . S
C375 N371 1.383 . S
C375 C374 1.439 . S
C375 C404 1.392 . S
N376 Co370 2.008 1_655 S
N376 C377 1.376 . S
N376 C380 1.374 . S
C377 N376 1.376 . S
C377 C378 1.443 . S
C377 C404 1.389 . S
C378 C377 1.443 . S
C378 C379 1.340 . S
C378 H410 0.951 . S
C379 C378 1.340 . S
C379 C380 1.439 . S
C379 H411 0.950 . S
C380 N376 1.374 . S
C380 C379 1.439 . S
C380 C405 1.395 1_655 S
N381 Co370 1.995 . S
N381 C382 1.376 . S
N381 C385 1.383 . S
C382 N381 1.376 . S
C382 C383 1.446 . S
C382 C405 1.391 . S
C383 C382 1.446 . S
C383 C384 1.339 . S
C383 H412 0.949 . S
C384 C383 1.339 . S
C384 C385 1.439 . S
C384 H413 0.950 . S
C385 N381 1.383 . S
C385 C384 1.439 . S
C385 C403 1.392 . S
N386 Co370 2.282 . S
N386 C389 1.332 . S
N386 C391 1.332 . S
C387 C388 1.386 . S
C387 C390 1.388 . S
C388 C387 1.386 . S
C388 C389 1.382 . S
C388 H414 0.950 . S
C389 N386 1.332 . S
C389 C388 1.382 . S
C389 H400 0.952 . S
C390 C387 1.388 . S
C390 C391 1.382 . S
C390 H415 0.950 . S
C391 N386 1.332 . S
C391 C390 1.382 . S
C391 H401 0.948 . S
N392 Co370 2.282 1_655 S
N392 C396 1.332 . S
N392 C397 1.332 . S
C393 C394 1.388 . S
C393 C397 1.382 . S
C393 H416 0.950 . S
C394 C393 1.388 . S
C394 C395 1.386 . S
C395 C394 1.386 . S
C395 C396 1.382 . S
C395 H417 0.950 . S
C396 N392 1.332 . S
C396 C395 1.382 . S
C396 H398 0.952 . S
C397 N392 1.332 . S
C397 C393 1.382 . S
C397 H399 0.948 . S
H398 C396 0.952 . S
H399 C397 0.948 . S
H400 C389 0.952 . S
H401 C391 0.948 . S
C402 C368 1.395 . S
C402 C372 1.391 1_455 S
C403 C365 1.389 . S
C403 C385 1.392 . S
C404 C375 1.392 . S
C404 C377 1.389 . S
C405 C380 1.395 1_455 S
C405 C382 1.391 . S
H406 C366 0.951 . S
H407 C367 0.950 . S
H408 C373 0.949 . S
H409 C374 0.950 . S
H410 C378 0.951 . S
H411 C379 0.950 . S
H412 C383 0.949 . S
H413 C384 0.950 . S
H414 C388 0.950 . S
H415 C390 0.950 . S
H416 C393 0.950 . S
H417 C395 0.950 . S
C418 C419 1.443 . S
C418 N422 1.376 . S
C418 C456 1.389 . S
C419 C418 1.443 . S
C419 C420 1.340 . S
C419 H459 0.951 . S
C420 C419 1.340 . S
C420 C421 1.439 . S
C420 H460 0.950 . S
C421 C420 1.439 . S
C421 N422 1.374 . S
C421 C455 1.395 1_565 S
N422 C418 1.376 . S
N422 C421 1.374 . S
N422 Co423 2.008 1_565 S
Co423 N422 2.008 1_545 S
Co423 N424 1.995 . S
Co423 N429 2.008 . S
Co423 N434 1.995 1_545 S
Co423 N439 2.282 . S
Co423 N445 2.282 1_545 S
N424 Co423 1.995 . S
N424 C425 1.376 . S
N424 C428 1.383 . S
C425 N424 1.376 . S
C425 C426 1.446 . S
C425 C455 1.391 . S
C426 C425 1.446 . S
C426 C427 1.339 . S
C426 H461 0.949 . S
C427 C426 1.339 . S
C427 C428 1.439 . S
C427 H462 0.950 . S
C428 N424 1.383 . S
C428 C427 1.439 . S
C428 C457 1.392 . S
N429 Co423 2.008 . S
N429 C430 1.376 . S
N429 C433 1.374 . S
C430 N429 1.376 . S
C430 C431 1.443 . S
C430 C457 1.389 . S
C431 C430 1.443 . S
C431 C432 1.340 . S
C431 H463 0.951 . S
C432 C431 1.340 . S
C432 C433 1.439 . S
C432 H464 0.950 . S
C433 N429 1.374 . S
C433 C432 1.439 . S
C433 C458 1.395 . S
N434 Co423 1.995 1_565 S
N434 C435 1.376 . S
N434 C438 1.383 . S
C435 N434 1.376 . S
C435 C436 1.446 . S
C435 C458 1.391 1_565 S
C436 C435 1.446 . S
C436 C437 1.339 . S
C436 H465 0.949 . S
C437 C436 1.339 . S
C437 C438 1.439 . S
C437 H466 0.950 . S
C438 N434 1.383 . S
C438 C437 1.439 . S
C438 C456 1.392 . S
N439 Co423 2.282 . S
N439 C442 1.332 . S
N439 C444 1.332 . S
C440 C441 1.386 . S
C440 C443 1.388 . S
C441 C440 1.386 . S
C441 C442 1.382 . S
C441 H467 0.950 . S
C442 N439 1.332 . S
C442 C441 1.382 . S
C442 H453 0.952 . S
C443 C440 1.388 . S
C443 C444 1.382 . S
C443 H468 0.950 . S
C444 N439 1.332 . S
C444 C443 1.382 . S
C444 H454 0.948 . S
N445 Co423 2.282 1_565 S
N445 C449 1.332 . S
N445 C450 1.332 . S
C446 C447 1.388 . S
C446 C450 1.382 . S
C446 H469 0.950 . S
C447 C446 1.388 . S
C447 C448 1.386 . S
C448 C447 1.386 . S
C448 C449 1.382 . S
C448 H470 0.950 . S
C449 N445 1.332 . S
C449 C448 1.382 . S
C449 H451 0.952 . S
C450 N445 1.332 . S
C450 C446 1.382 . S
C450 H452 0.948 . S
H451 C449 0.952 . S
H452 C450 0.948 . S
H453 C442 0.952 . S
H454 C444 0.948 . S
C455 C421 1.395 1_545 S
C455 C425 1.391 . S
C456 C418 1.389 . S
C456 C438 1.392 . S
C457 C428 1.392 . S
C457 C430 1.389 . S
C458 C433 1.395 . S
C458 C435 1.391 1_545 S
H459 C419 0.951 . S
H460 C420 0.950 . S
H461 C426 0.949 . S
H462 C427 0.950 . S
H463 C431 0.951 . S
H464 C432 0.950 . S
H465 C436 0.949 . S
H466 C437 0.950 . S
H467 C441 0.950 . S
H468 C443 0.950 . S
H469 C446 0.950 . S
H470 C448 0.950 . S
C471 C472 1.443 . S
C471 N475 1.376 . S
C471 C509 1.389 . S
C472 C471 1.443 . S
C472 C473 1.340 . S
C472 H512 0.951 . S
C473 C472 1.340 . S
C473 C474 1.439 . S
C473 H513 0.950 . S
C474 C473 1.439 . S
C474 N475 1.374 . S
C474 C508 1.395 . S
N475 C471 1.376 . S
N475 C474 1.374 . S
N475 Co476 2.008 . S
Co476 N475 2.008 . S
Co476 N477 1.981 1_554 S
Co476 N482 2.008 1_554 S
Co476 N487 1.995 . S
Co476 N492 2.282 1_554 S
Co476 N498 2.282 . S
N477 Co476 1.981 1_556 S
N477 C478 1.371 1_556 S
N477 C481 1.407 . S
C478 N477 1.371 1_554 S
C478 C479 1.446 1_554 S
C478 C508 1.391 . S
C479 C478 1.446 1_556 S
C479 C480 1.339 . S
C479 H514 0.949 . S
C480 C479 1.339 . S
C480 C481 1.439 . S
C480 H515 0.950 . S
C481 N477 1.407 . S
C481 C480 1.439 . S
C481 C510 1.392 . S
N482 Co476 2.008 1_556 S
N482 C483 1.376 . S
N482 C486 1.374 . S
C483 N482 1.376 . S
C483 C484 1.443 . S
C483 C510 1.389 . S
C484 C483 1.443 . S
C484 C485 1.340 . S
C484 H516 0.951 . S
C485 C484 1.340 . S
C485 C486 1.439 . S
C485 H517 0.950 . S
C486 N482 1.374 . S
C486 C485 1.439 . S
C486 C511 1.395 1_556 S
N487 Co476 1.995 . S
N487 C488 1.376 . S
N487 C491 1.383 . S
C488 N487 1.376 . S
C488 C489 1.446 . S
C488 C511 1.391 . S
C489 C488 1.446 . S
C489 C490 1.339 . S
C489 H518 0.949 . S
C490 C489 1.339 . S
C490 C491 1.439 . S
C490 H519 0.950 . S
C491 N487 1.383 . S
C491 C490 1.439 . S
C491 C509 1.392 . S
N492 Co476 2.282 1_556 S
N492 C495 1.332 . S
N492 C497 1.332 . S
C493 C494 1.386 . S
C493 C496 1.388 . S
C494 C493 1.386 . S
C494 C495 1.382 . S
C494 H520 0.950 . S
C495 N492 1.332 . S
C495 C494 1.382 . S
C495 H506 0.952 . S
C496 C493 1.388 . S
C496 C497 1.382 . S
C496 H521 0.950 . S
C497 N492 1.332 . S
C497 C496 1.382 . S
C497 H507 0.948 . S
N498 Co476 2.282 . S
N498 C502 1.332 . S
N498 C503 1.332 . S
C499 C500 1.388 . S
C499 C503 1.382 . S
C499 H522 0.950 . S
C500 C499 1.388 . S
C500 C501 1.386 . S
C501 C500 1.386 . S
C501 C502 1.382 . S
C501 H523 0.950 . S
C502 N498 1.332 . S
C502 C501 1.382 . S
C502 H504 0.952 . S
C503 N498 1.332 . S
C503 C499 1.382 . S
C503 H505 0.948 . S
H504 C502 0.952 . S
H505 C503 0.948 . S
H506 C495 0.952 . S
H507 C497 0.948 . S
C508 C474 1.395 . S
C508 C478 1.391 . S
C509 C471 1.389 . S
C509 C491 1.392 . S
C510 C481 1.392 . S
C510 C483 1.389 . S
C511 C486 1.395 1_554 S
C511 C488 1.391 . S
H512 C472 0.951 . S
H513 C473 0.950 . S
H514 C479 0.949 . S
H515 C480 0.950 . S
H516 C484 0.951 . S
H517 C485 0.950 . S
H518 C489 0.949 . S
H519 C490 0.950 . S
H520 C494 0.950 . S
H521 C496 0.950 . S
H522 C499 0.950 . S
H523 C501 0.950 . S
C524 C525 1.443 . S
C524 N528 1.360 1_565 S
C524 C562 1.389 . S
C525 C524 1.443 . S
C525 C526 1.340 . S
C525 H565 0.951 . S
C526 C525 1.340 . S
C526 C527 1.439 1_565 S
C526 H566 0.950 . S
C527 C526 1.439 1_545 S
C527 N528 1.374 . S
C527 C561 1.395 . S
N528 C524 1.360 1_545 S
N528 C527 1.374 . S
N528 Co529 2.020 . S
Co529 N528 2.020 . S
Co529 N530 1.995 . S
Co529 N535 2.008 . S
Co529 N540 1.995 . S
Co529 N545 2.282 . S
Co529 N551 2.282 1_545 S
N530 Co529 1.995 . S
N530 C531 1.376 . S
N530 C534 1.383 . S
C531 N530 1.376 . S
C531 C532 1.446 . S
C531 C561 1.391 . S
C532 C531 1.446 . S
C532 C533 1.339 . S
C532 H567 0.949 . S
C533 C532 1.339 . S
C533 C534 1.439 . S
C533 H568 0.950 . S
C534 N530 1.383 . S
C534 C533 1.439 . S
C534 C563 1.392 . S
N535 Co529 2.008 . S
N535 C536 1.376 . S
N535 C539 1.374 . S
C536 N535 1.376 . S
C536 C537 1.443 . S
C536 C563 1.389 . S
C537 C536 1.443 . S
C537 C538 1.340 . S
C537 H569 0.951 . S
C538 C537 1.340 . S
C538 C539 1.439 . S
C538 H570 0.950 . S
C539 N535 1.374 . S
C539 C538 1.439 . S
C539 C564 1.395 . S
N540 Co529 1.995 . S
N540 C541 1.376 . S
N540 C544 1.383 1_545 S
C541 N540 1.376 . S
C541 C542 1.446 1_545 S
C541 C564 1.391 . S
C542 C541 1.446 1_565 S
C542 C543 1.339 . S
C542 H571 0.949 . S
C543 C542 1.339 . S
C543 C544 1.439 . S
C543 H572 0.950 . S
C544 N540 1.383 1_565 S
C544 C543 1.439 . S
C544 C562 1.392 . S
N545 Co529 2.282 . S
N545 C548 1.332 . S
N545 C550 1.332 . S
C546 C547 1.386 . S
C546 C549 1.388 . S
C547 C546 1.386 . S
C547 C548 1.382 . S
C547 H573 0.950 . S
C548 N545 1.332 . S
C548 C547 1.382 . S
C548 H559 0.952 . S
C549 C546 1.388 . S
C549 C550 1.382 . S
C549 H574 0.950 . S
C550 N545 1.332 . S
C550 C549 1.382 . S
C550 H560 0.948 . S
N551 Co529 2.282 1_565 S
N551 C555 1.332 . S
N551 C556 1.332 . S
C552 C553 1.388 . S
C552 C556 1.382 . S
C552 H575 0.950 . S
C553 C552 1.388 . S
C553 C554 1.386 . S
C554 C553 1.386 . S
C554 C555 1.382 . S
C554 H576 0.950 . S
C555 N551 1.332 . S
C555 C554 1.382 . S
C555 H557 0.952 . S
C556 N551 1.332 . S
C556 C552 1.382 . S
C556 H558 0.948 . S
H557 C555 0.952 . S
H558 C556 0.948 . S
H559 C548 0.952 . S
H560 C550 0.948 . S
C561 C527 1.395 . S
C561 C531 1.391 . S
C562 C524 1.389 . S
C562 C544 1.392 . S
C563 C534 1.392 . S
C563 C536 1.389 . S
C564 C539 1.395 . S
C564 C541 1.391 . S
H565 C525 0.951 . S
H566 C526 0.950 . S
H567 C532 0.949 . S
H568 C533 0.950 . S
H569 C537 0.951 . S
H570 C538 0.950 . S
H571 C542 0.949 . S
H572 C543 0.950 . S
H573 C547 0.950 . S
H574 C549 0.950 . S
H575 C552 0.950 . S
H576 C554 0.950 . S
C577 C578 1.443 . S
C577 N581 1.376 . S
C577 C615 1.389 . S
C578 C577 1.443 . S
C578 C579 1.340 . S
C578 H618 0.951 . S
C579 C578 1.340 . S
C579 C580 1.439 . S
C579 H619 0.950 . S
C580 C579 1.439 . S
C580 N581 1.374 . S
C580 C614 1.395 . S
N581 C577 1.376 . S
N581 C580 1.374 . S
N581 Co582 2.008 . S
Co582 N581 2.008 . S
Co582 N583 1.995 . S
Co582 N588 2.008 . S
Co582 N593 1.995 . S
Co582 N598 2.282 1_554 S
Co582 N604 2.282 . S
N583 Co582 1.995 . S
N583 C584 1.376 . S
N583 C587 1.383 1_554 S
C584 N583 1.376 . S
C584 C585 1.446 1_554 S
C584 C614 1.391 . S
C585 C584 1.446 1_556 S
C585 C586 1.339 . S
C585 H620 0.949 . S
C586 C585 1.339 . S
C586 C587 1.439 . S
C586 H621 0.950 . S
C587 N583 1.383 1_556 S
C587 C586 1.439 . S
C587 C616 1.392 . S
N588 Co582 2.008 . S
N588 C589 1.376 1_554 S
N588 C592 1.374 . S
C589 N588 1.376 1_556 S
C589 C590 1.443 . S
C589 C616 1.389 . S
C590 C589 1.443 . S
C590 C591 1.340 . S
C590 H622 0.951 . S
C591 C590 1.340 . S
C591 C592 1.439 1_556 S
C591 H623 0.950 . S
C592 N588 1.374 . S
C592 C591 1.439 1_554 S
C592 C617 1.395 . S
N593 Co582 1.995 . S
N593 C594 1.376 . S
N593 C597 1.383 . S
C594 N593 1.376 . S
C594 C595 1.446 . S
C594 C617 1.391 . S
C595 C594 1.446 . S
C595 C596 1.339 . S
C595 H624 0.949 . S
C596 C595 1.339 . S
C596 C597 1.439 . S
C596 H625 0.950 . S
C597 N593 1.383 . S
C597 C596 1.439 . S
C597 C615 1.392 . S
N598 Co582 2.282 1_556 S
N598 C601 1.332 . S
N598 C603 1.332 . S
C599 C600 1.386 . S
C599 C602 1.388 . S
C600 C599 1.386 . S
C600 C601 1.382 . S
C600 H626 0.950 . S
C601 N598 1.332 . S
C601 C600 1.382 . S
C601 H612 0.952 1_556 S
C602 C599 1.388 . S
C602 C603 1.382 . S
C602 H627 0.950 . S
C603 N598 1.332 . S
C603 C602 1.382 . S
C603 H613 0.948 . S
N604 Co582 2.282 . S
N604 C608 1.332 . S
N604 C609 1.332 . S
C605 C606 1.388 . S
C605 C609 1.382 . S
C605 H628 0.950 . S
C606 C605 1.388 . S
C606 C607 1.386 . S
C607 C606 1.386 . S
C607 C608 1.382 . S
C607 H629 0.950 . S
C608 N604 1.332 . S
C608 C607 1.382 . S
C608 H610 0.952 . S
C609 N604 1.332 . S
C609 C605 1.382 . S
C609 H611 0.948 . S
H610 C608 0.952 . S
H611 C609 0.948 . S
H612 C601 0.952 1_554 S
H613 C603 0.948 . S
C614 C580 1.395 . S
C614 C584 1.391 . S
C615 C577 1.389 . S
C615 C597 1.392 . S
C616 C587 1.392 . S
C616 C589 1.389 . S
C617 C592 1.395 . S
C617 C594 1.391 . S
H618 C578 0.951 . S
H619 C579 0.950 . S
H620 C585 0.949 . S
H621 C586 0.950 . S
H622 C590 0.951 . S
H623 C591 0.950 . S
H624 C595 0.949 . S
H625 C596 0.950 . S
H626 C600 0.950 . S
H627 C602 0.950 . S
H628 C605 0.950 . S
H629 C607 0.950 . S
C630 C631 1.387 . S
C630 H634 0.950 . S
C630 C639 1.390 . S
C631 C630 1.387 . S
C631 C633 1.387 . S
H632 C639 0.950 . S
C633 C631 1.387 . S
C633 C635 1.390 . S
C633 H637 0.950 . S
H634 C630 0.950 . S
C635 C633 1.390 . S
C635 C636 1.387 . S
C635 H638 0.950 . S
C636 C635 1.387 . S
C636 C639 1.387 . S
H637 C633 0.950 . S
H638 C635 0.950 . S
C639 C630 1.390 . S
C639 H632 0.950 . S
C639 C636 1.387 . S
C640 C641 1.387 . S
C640 H644 0.950 . S
C640 C649 1.390 . S
C641 C640 1.387 . S
C641 C643 1.387 . S
H642 C649 0.950 . S
C643 C641 1.387 . S
C643 C645 1.390 . S
C643 H647 0.950 . S
H644 C640 0.950 . S
C645 C643 1.390 . S
C645 C646 1.387 . S
C645 H648 0.950 . S
C646 C645 1.387 . S
C646 C649 1.387 . S
H647 C643 0.950 . S
H648 C645 0.950 . S
C649 C640 1.390 . S
C649 H642 0.950 . S
C649 C646 1.387 . S
C650 C651 1.387 . S
C650 H654 0.950 . S
C650 C659 1.390 . S
C651 C650 1.387 . S
C651 C653 1.387 . S
H652 C659 0.950 . S
C653 C651 1.387 . S
C653 C655 1.390 . S
C653 H657 0.950 . S
H654 C650 0.950 . S
C655 C653 1.390 . S
C655 C656 1.387 . S
C655 H658 0.950 . S
C656 C655 1.387 . S
C656 C659 1.387 . S
H657 C653 0.950 . S
H658 C655 0.950 . S
C659 C650 1.390 . S
C659 H652 0.950 . S
C659 C656 1.387 . S
C660 C661 1.387 . S
C660 H664 0.950 . S
C660 C669 1.390 . S
C661 C660 1.387 . S
C661 C663 1.387 . S
H662 C669 0.950 . S
C663 C661 1.387 . S
C663 C665 1.390 . S
C663 H667 0.950 . S
H664 C660 0.950 . S
C665 C663 1.390 . S
C665 C666 1.387 . S
C665 H668 0.950 . S
C666 C665 1.387 . S
C666 C669 1.387 . S
H667 C663 0.950 . S
H668 C665 0.950 . S
C669 C660 1.390 . S
C669 H662 0.950 . S
C669 C666 1.387 . S
C670 C671 1.387 . S
C670 H674 0.950 . S
C670 C679 1.390 . S
C671 C670 1.387 . S
C671 C673 1.387 . S
H672 C679 0.950 . S
C673 C671 1.387 . S
C673 C675 1.390 . S
C673 H677 0.950 . S
H674 C670 0.950 . S
C675 C673 1.390 . S
C675 C676 1.387 . S
C675 H678 0.950 . S
C676 C675 1.387 . S
C676 C679 1.387 . S
H677 C673 0.950 . S
H678 C675 0.950 . S
C679 C670 1.390 . S
C679 H672 0.950 . S
C679 C676 1.387 . S
C680 C681 1.387 . S
C680 H684 0.950 . S
C680 C689 1.390 . S
C681 C680 1.387 . S
C681 C683 1.387 . S
H682 C689 0.950 . S
C683 C681 1.387 . S
C683 C685 1.390 . S
C683 H687 0.950 . S
H684 C680 0.950 . S
C685 C683 1.390 . S
C685 C686 1.387 . S
C685 H688 0.950 . S
C686 C685 1.387 . S
C686 C689 1.387 . S
H687 C683 0.950 . S
H688 C685 0.950 . S
C689 C680 1.390 . S
C689 H682 0.950 . S
C689 C686 1.387 . S
C690 C691 1.387 . S
C690 H694 0.950 . S
C690 C699 1.390 . S
C691 C690 1.387 . S
C691 C693 1.387 . S
H692 C699 0.950 . S
C693 C691 1.387 . S
C693 C695 1.390 . S
C693 H697 0.950 . S
H694 C690 0.950 . S
C695 C693 1.390 . S
C695 C696 1.387 . S
C695 H698 0.950 . S
C696 C695 1.387 . S
C696 C699 1.387 . S
H697 C693 0.950 . S
H698 C695 0.950 . S
C699 C690 1.390 . S
C699 H692 0.950 . S
C699 C696 1.387 . S
C700 C701 1.387 . S
C700 H704 0.950 . S
C700 C709 1.390 . S
C701 C700 1.387 . S
C701 C703 1.387 . S
H702 C709 0.950 . S
C703 C701 1.387 . S
C703 C705 1.390 . S
C703 H707 0.950 . S
H704 C700 0.950 . S
C705 C703 1.390 . S
C705 C706 1.387 . S
C705 H708 0.950 . S
C706 C705 1.387 . S
C706 C709 1.387 . S
H707 C703 0.950 . S
H708 C705 0.950 . S
C709 C700 1.390 . S
C709 H702 0.950 . S
C709 C706 1.387 . S
C710 C711 1.387 . S
C710 H714 0.950 . S
C710 C719 1.390 . S
C711 C710 1.387 . S
C711 C713 1.387 . S
H712 C719 0.950 . S
C713 C711 1.387 . S
C713 C715 1.390 . S
C713 H717 0.950 . S
H714 C710 0.950 . S
C715 C713 1.390 . S
C715 C716 1.387 . S
C715 H718 0.950 . S
C716 C715 1.387 . S
C716 C719 1.387 . S
H717 C713 0.950 . S
H718 C715 0.950 . S
C719 C710 1.390 . S
C719 H712 0.950 . S
C719 C716 1.387 . S
C720 C721 1.387 . S
C720 H724 0.950 . S
C720 C729 1.390 . S
C721 C720 1.387 . S
C721 C723 1.387 . S
H722 C729 0.950 . S
C723 C721 1.387 . S
C723 C725 1.390 . S
C723 H727 0.950 . S
H724 C720 0.950 . S
C725 C723 1.390 . S
C725 C726 1.387 . S
C725 H728 0.950 . S
C726 C725 1.387 . S
C726 C729 1.387 . S
H727 C723 0.950 . S
H728 C725 0.950 . S
C729 C720 1.390 . S
C729 H722 0.950 . S
C729 C726 1.387 . S
C730 C731 1.387 . S
C730 H734 0.950 . S
C730 C739 1.390 . S
C731 C730 1.387 . S
C731 C733 1.387 . S
H732 C739 0.950 . S
C733 C731 1.387 . S
C733 C735 1.390 . S
C733 H737 0.950 . S
H734 C730 0.950 . S
C735 C733 1.390 . S
C735 C736 1.387 . S
C735 H738 0.950 . S
C736 C735 1.387 . S
C736 C739 1.387 . S
H737 C733 0.950 . S
H738 C735 0.950 . S
C739 C730 1.390 . S
C739 H732 0.950 . S
C739 C736 1.387 . S
C740 C741 1.387 . S
C740 H744 0.950 . S
C740 C749 1.390 . S
C741 C740 1.387 . S
C741 C743 1.387 . S
H742 C749 0.950 . S
C743 C741 1.387 . S
C743 C745 1.390 . S
C743 H747 0.950 . S
H744 C740 0.950 . S
C745 C743 1.390 . S
C745 C746 1.387 . S
C745 H748 0.950 . S
C746 C745 1.387 . S
C746 C749 1.387 . S
H747 C743 0.950 . S
H748 C745 0.950 . S
C749 C740 1.390 . S
C749 H742 0.950 . S
C749 C746 1.387 . S
C750 C751 1.387 . S
C750 H754 0.950 . S
C750 C759 1.390 . S
C751 C750 1.387 . S
C751 C753 1.387 . S
H752 C759 0.950 . S
C753 C751 1.387 . S
C753 C755 1.390 . S
C753 H757 0.950 . S
H754 C750 0.950 . S
C755 C753 1.390 . S
C755 C756 1.387 . S
C755 H758 0.950 . S
C756 C755 1.387 . S
C756 C759 1.387 . S
H757 C753 0.950 . S
H758 C755 0.950 . S
C759 C750 1.390 . S
C759 H752 0.950 . S
C759 C756 1.387 . S
C760 C761 1.387 . S
C760 H764 0.950 . S
C760 C769 1.390 . S
C761 C760 1.387 . S
C761 C763 1.387 . S
H762 C769 0.950 . S
C763 C761 1.387 . S
C763 C765 1.390 . S
C763 H767 0.950 . S
H764 C760 0.950 . S
C765 C763 1.390 . S
C765 C766 1.387 . S
C765 H768 0.950 . S
C766 C765 1.387 . S
C766 C769 1.387 . S
H767 C763 0.950 . S
H768 C765 0.950 . S
C769 C760 1.390 . S
C769 H762 0.950 . S
C769 C766 1.387 . S
C770 C771 1.387 . S
C770 H774 0.950 . S
C770 C779 1.390 . S
C771 C770 1.387 . S
C771 C773 1.387 . S
H772 C779 0.950 . S
C773 C771 1.387 . S
C773 C775 1.390 . S
C773 H777 0.950 . S
H774 C770 0.950 . S
C775 C773 1.390 . S
C775 C776 1.387 . S
C775 H778 0.950 . S
C776 C775 1.387 . S
C776 C779 1.387 . S
H777 C773 0.950 . S
H778 C775 0.950 . S
C779 C770 1.390 . S
C779 H772 0.950 . S
C779 C776 1.387 . S
C780 C781 1.387 . S
C780 H784 0.950 . S
C780 C789 1.390 . S
C781 C780 1.387 . S
C781 C783 1.387 . S
H782 C789 0.950 . S
C783 C781 1.387 . S
C783 C785 1.390 . S
C783 H787 0.950 . S
H784 C780 0.950 . S
C785 C783 1.390 . S
C785 C786 1.387 . S
C785 H788 0.950 . S
C786 C785 1.387 . S
C786 C789 1.387 . S
H787 C783 0.950 . S
H788 C785 0.950 . S
C789 C780 1.390 . S
C789 H782 0.950 . S
C789 C786 1.387 . S
C790 C791 1.387 . S
C790 H794 0.950 . S
C790 C799 1.390 . S
C791 C790 1.387 . S
C791 C793 1.387 . S
H792 C799 0.950 . S
C793 C791 1.387 . S
C793 C795 1.390 . S
C793 H797 0.950 . S
H794 C790 0.950 . S
C795 C793 1.390 . S
C795 C796 1.387 . S
C795 H798 0.950 . S
C796 C795 1.387 . S
C796 C799 1.387 . S
H797 C793 0.950 . S
H798 C795 0.950 . S
C799 C790 1.390 . S
C799 H792 0.950 . S
C799 C796 1.387 . S
C800 C801 1.387 . S
C800 H804 0.950 . S
C800 C809 1.390 . S
C801 C800 1.387 . S
C801 C803 1.387 . S
H802 C809 0.950 . S
C803 C801 1.387 . S
C803 C805 1.390 . S
C803 H807 0.950 . S
H804 C800 0.950 . S
C805 C803 1.390 . S
C805 C806 1.387 . S
C805 H808 0.950 . S
C806 C805 1.387 . S
C806 C809 1.387 . S
H807 C803 0.950 . S
H808 C805 0.950 . S
C809 C800 1.390 . S
C809 H802 0.950 . S
C809 C806 1.387 . S
C810 C811 1.387 . S
C810 H814 0.950 . S
C810 C819 1.390 . S
C811 C810 1.387 . S
C811 C813 1.387 . S
H812 C819 0.950 . S
C813 C811 1.387 . S
C813 C815 1.390 . S
C813 H817 0.950 . S
H814 C810 0.950 . S
C815 C813 1.390 . S
C815 C816 1.387 . S
C815 H818 0.950 . S
C816 C815 1.387 . S
C816 C819 1.387 . S
H817 C813 0.950 . S
H818 C815 0.950 . S
C819 C810 1.390 . S
C819 H812 0.950 . S
C819 C816 1.387 . S
C820 C821 1.387 . S
C820 H824 0.950 . S
C820 C829 1.390 . S
C821 C820 1.387 . S
C821 C823 1.387 . S
H822 C829 0.950 . S
C823 C821 1.387 . S
C823 C825 1.390 . S
C823 H827 0.950 . S
H824 C820 0.950 . S
C825 C823 1.390 . S
C825 C826 1.387 . S
C825 H828 0.950 . S
C826 C825 1.387 . S
C826 C829 1.387 . S
H827 C823 0.950 . S
H828 C825 0.950 . S
C829 C820 1.390 . S
C829 H822 0.950 . S
C829 C826 1.387 . S
C830 C831 1.387 . S
C830 H834 0.950 . S
C830 C839 1.390 . S
C831 C830 1.387 . S
C831 C833 1.387 . S
H832 C839 0.950 . S
C833 C831 1.387 . S
C833 C835 1.390 . S
C833 H837 0.950 . S
H834 C830 0.950 . S
C835 C833 1.390 . S
C835 C836 1.387 . S
C835 H838 0.950 . S
C836 C835 1.387 . S
C836 C839 1.387 . S
H837 C833 0.950 . S
H838 C835 0.950 . S
C839 C830 1.390 . S
C839 H832 0.950 . S
C839 C836 1.387 . S
C840 C841 1.387 . S
C840 H844 0.950 . S
C840 C849 1.390 . S
C841 C840 1.387 . S
C841 C843 1.387 . S
H842 C849 0.950 . S
C843 C841 1.387 . S
C843 C845 1.390 . S
C843 H847 0.950 . S
H844 C840 0.950 . S
C845 C843 1.390 . S
C845 C846 1.387 . S
C845 H848 0.950 . S
C846 C845 1.387 . S
C846 C849 1.387 . S
H847 C843 0.950 . S
H848 C845 0.950 . S
C849 C840 1.390 . S
C849 H842 0.950 . S
C849 C846 1.387 . S
C850 C851 1.387 . S
C850 H854 0.950 . S
C850 C859 1.390 . S
C851 C850 1.387 . S
C851 C853 1.387 . S
H852 C859 0.950 . S
C853 C851 1.387 . S
C853 C855 1.390 . S
C853 H857 0.950 . S
H854 C850 0.950 . S
C855 C853 1.390 . S
C855 C856 1.387 . S
C855 H858 0.950 . S
C856 C855 1.387 . S
C856 C859 1.387 . S
H857 C853 0.950 . S
H858 C855 0.950 . S
C859 C850 1.390 . S
C859 H852 0.950 . S
C859 C856 1.387 . S
C860 C861 1.387 . S
C860 H864 0.950 . S
C860 C869 1.390 . S
C861 C860 1.387 . S
C861 C863 1.387 . S
H862 C869 0.950 . S
C863 C861 1.387 . S
C863 C865 1.390 . S
C863 H867 0.950 . S
H864 C860 0.950 . S
C865 C863 1.390 . S
C865 C866 1.387 . S
C865 H868 0.950 . S
C866 C865 1.387 . S
C866 C869 1.387 . S
H867 C863 0.950 . S
H868 C865 0.950 . S
C869 C860 1.390 . S
C869 H862 0.950 . S
C869 C866 1.387 . S
C636 C334 1.564 . S
C631 C16 1.571 . S
C646 C403 1.534 . S
C641 C55 1.544 . S
C656 C341 1.550 . S
C651 C99 1.559 . S
C666 C404 1.533 . S
C661 C138 1.539 . S
C676 C457 1.577 . S
C671 C1 1.581 . S
C686 C493 1.527 . S
C681 C40 1.524 . S
C691 C94 1.559 . S
C696 C553 1.554 . S
C706 C616 1.523 . S
C701 C133 1.523 . S
C716 C456 1.548 . S
C711 C60 1.552 . S
C721 C79 1.536 . S
C726 C500 1.533 . S
C736 C546 1.545 . S
C731 C118 1.546 . S
C746 C615 1.536 . S
C741 C21 1.539 . S
C751 C177 1.549 . S
C756 C394 1.541 . S
C766 C351 1.546 . S
C761 C211 1.556 . S
C771 C255 1.546 . S
C776 C387 1.540 . S
C781 C289 1.564 . S
C786 C350 1.557 . S
C796 C562 1.551 . S
C791 C157 1.553 . S
C806 C606 1.532 . S
C801 C196 1.532 . S
C816 C440 1.565 . S
C811 C250 1.574 . S
C821 C294 1.524 . S
C826 C509 1.527 . S
C836 C563 1.545 . S
C831 C216 1.553 . S
C846 C599 1.533 . S
C841 C235 1.533 . S
C856 C447 1.572 . S
C851 C274 1.576 . S
C861 C172 1.532 . S
C866 C510 1.533 . S
