# Generated by pormake.
# Topology ssa, (4,4)-cn, num edge types: 1
# Building blocks:
#     Node 0, Type 0, BuildingBlock: ESEHIV_clean_sbu_0, # of connection points: 4
#     Node 1, Type 0, BuildingBlock: ESEHIV_clean_sbu_0, # of connection points: 4
#     Node 2, Type 0, BuildingBlock: ESEHIV_clean_sbu_0, # of connection points: 4
#     Node 3, Type 0, BuildingBlock: ESEHIV_clean_sbu_0, # of connection points: 4
#     Node 4, Type 0, BuildingBlock: ESEHIV_clean_sbu_0, # of connection points: 4
#     Node 5, Type 0, BuildingBlock: ESEHIV_clean_sbu_0, # of connection points: 4
#     Node 6, Type 1, BuildingBlock: MUDLON_clean_linker_0, # of connection points: 4
#     Node 7, Type 1, BuildingBlock: MUDLON_clean_linker_0, # of connection points: 4
#     Node 8, Type 1, BuildingBlock: MUDLON_clean_linker_0, # of connection points: 4
#     Node 9, Type 1, BuildingBlock: MUDLON_clean_linker_0, # of connection points: 4
#     Node 10, Type 1, BuildingBlock: MUDLON_clean_linker_0, # of connection points: 4
#     Node 11, Type 1, BuildingBlock: MUDLON_clean_linker_0, # of connection points: 4
#     Edge 12, Type (0, 1), BuildingBlock: XIVTED_clean_linker_0, # of connection points: 2
#     Edge 13, Type (0, 1), BuildingBlock: XIVTED_clean_linker_0, # of connection points: 2
#     Edge 14, Type (0, 1), BuildingBlock: XIVTED_clean_linker_0, # of connection points: 2
#     Edge 15, Type (0, 1), BuildingBlock: XIVTED_clean_linker_0, # of connection points: 2
#     Edge 16, Type (0, 1), BuildingBlock: XIVTED_clean_linker_0, # of connection points: 2
#     Edge 17, Type (0, 1), BuildingBlock: XIVTED_clean_linker_0, # of connection points: 2
#     Edge 18, Type (0, 1), BuildingBlock: XIVTED_clean_linker_0, # of connection points: 2
#     Edge 19, Type (0, 1), BuildingBlock: XIVTED_clean_linker_0, # of connection points: 2
#     Edge 20, Type (0, 1), BuildingBlock: XIVTED_clean_linker_0, # of connection points: 2
#     Edge 21, Type (0, 1), BuildingBlock: XIVTED_clean_linker_0, # of connection points: 2
#     Edge 22, Type (0, 1), BuildingBlock: XIVTED_clean_linker_0, # of connection points: 2
#     Edge 23, Type (0, 1), BuildingBlock: XIVTED_clean_linker_0, # of connection points: 2
#     Edge 24, Type (0, 1), BuildingBlock: XIVTED_clean_linker_0, # of connection points: 2
#     Edge 25, Type (0, 1), BuildingBlock: XIVTED_clean_linker_0, # of connection points: 2
#     Edge 26, Type (0, 1), BuildingBlock: XIVTED_clean_linker_0, # of connection points: 2
#     Edge 27, Type (0, 1), BuildingBlock: XIVTED_clean_linker_0, # of connection points: 2
#     Edge 28, Type (0, 1), BuildingBlock: XIVTED_clean_linker_0, # of connection points: 2
#     Edge 29, Type (0, 1), BuildingBlock: XIVTED_clean_linker_0, # of connection points: 2
#     Edge 30, Type (0, 1), BuildingBlock: XIVTED_clean_linker_0, # of connection points: 2
#     Edge 31, Type (0, 1), BuildingBlock: XIVTED_clean_linker_0, # of connection points: 2
#     Edge 32, Type (0, 1), BuildingBlock: XIVTED_clean_linker_0, # of connection points: 2
#     Edge 33, Type (0, 1), BuildingBlock: XIVTED_clean_linker_0, # of connection points: 2
#     Edge 34, Type (0, 1), BuildingBlock: XIVTED_clean_linker_0, # of connection points: 2
#     Edge 35, Type (0, 1), BuildingBlock: XIVTED_clean_linker_0, # of connection points: 2
# Relax obj value: 0.007
# Max RMSD: 0.103
# Mean RMSD: 0.066
data_MOF--net-ssa--node1-ESEHIV_clean_sbu_0--node2-MUDLON_clean_linker_0--edge1-XIVTED_clean_linker_0
_symmetry_space_group_name_H-M    P1
_symmetry_Int_Tables_number       1
_symmetry_cell_setting            triclinic
loop_
_symmetry_equiv_pos_as_xyz
'x, y, z'
_cell_length_a     70.047697
_cell_length_b     73.743823
_cell_length_c     40.42539
_cell_angle_alpha  88.432299
_cell_angle_beta   90.754391
_cell_angle_gamma 121.76602
loop_
_atom_site_label
_atom_site_type_symbol
_atom_site_fract_x
_atom_site_fract_y
_atom_site_fract_z
_atom_type_partial_charge
Cu0 Cu 0.03699 0.50796 0.00614 0.0
N1 N 0.03499 0.49296 0.96865 0.0
N2 N 0.02086 0.46662 0.93268 0.0
C3 C 0.01761 0.47347 0.96134 0.0
C4 C 0.04082 0.48254 0.92096 0.0
C5 C 0.04959 0.49883 0.94338 0.0
O6 O 0.00895 0.5075 0.00869 0.0
C7 C 0.04039 0.47738 0.04766 0.0
O8 O 0.02725 0.46306 0.02621 0.0
H9 H 1.00283 0.46444 0.97677 0.0
H10 H 0.06549 0.51382 0.9415 0.0
N11 N 0.06092 0.53606 0.00173 0.0
N12 N 0.08985 0.56735 0.01788 0.0
C13 C 0.07594 0.54651 0.02574 0.0
C14 C 0.06548 0.55069 0.97753 0.0
C15 C 0.08335 0.57011 0.98752 0.0
C16 C 0.00822 0.52373 0.01655 0.0
O17 O 0.02625 0.5403 0.02879 0.0
H18 H 0.07571 0.5392 0.04944 0.0
H19 H 0.0559 0.54764 0.95496 0.0
O20 O 0.04431 0.49628 0.04474 0.0
H21 H 0.04866 0.48219 0.89828 0.0
H22 H 0.09054 0.58515 0.97393 0.0
Cu23 Cu 0.53068 0.01372 0.48482 0.0
N24 N 0.54091 0.01112 0.44399 0.0
N25 N 0.55151 0.99631 0.40671 0.0
C26 C 0.54127 0.99373 0.43596 0.0
C27 C 0.55783 0.01618 0.39579 0.0
C28 C 0.5512 0.02529 0.41887 0.0
O29 O 0.5054 0.98525 0.49532 0.0
C30 C 0.57213 0.04215 0.50931 0.0
O31 O 0.57122 0.05269 0.48322 0.0
H32 H 0.53511 0.97985 0.45222 0.0
H33 H 0.55438 0.04132 0.41793 0.0
N34 N 0.52209 0.03381 0.48428 0.0
N35 N 0.51253 0.05583 0.50465 0.0
C36 C 0.519 0.04186 0.51173 0.0
C37 C 0.51756 0.04305 0.45876 0.0
C38 C 0.51171 0.05675 0.47129 0.0
C39 C 0.48517 0.98069 0.4946 0.0
O40 O 0.48119 0.99622 0.49342 0.0
H41 H 0.52152 0.0375 0.53645 0.0
H42 H 0.51818 0.03988 0.43297 0.0
O43 O 0.55541 0.02351 0.51566 0.0
H44 H 0.56694 0.02374 0.37311 0.0
H45 H 0.50675 0.06622 0.457 0.0
Cu46 Cu 0.50206 0.50173 0.99612 0.0
N47 N 0.48466 0.48089 0.96533 0.0
N48 N 0.47305 0.45359 0.93138 0.0
C49 C 0.49085 0.47007 0.94641 0.0
C50 C 0.45507 0.45434 0.94078 0.0
C51 C 0.46229 0.4712 0.96166 0.0
O52 O 0.53141 0.50527 0.00076 0.0
C53 C 0.4742 0.47626 0.05081 0.0
O54 O 0.47448 0.46016 0.03827 0.0
H55 H 0.50783 0.47341 0.94521 0.0
H56 H 0.45185 0.47549 0.97458 0.0
N57 N 0.50673 0.52815 0.98302 0.0
N58 N 0.51848 0.5626 0.98799 0.0
C59 C 0.52085 0.54637 -0.00149 0.0
C60 C 0.49496 0.53291 0.96176 0.0
C61 C 0.50218 0.55422 0.9648 0.0
C62 C 0.53519 0.49026 0.00446 0.0
O63 O 0.51829 0.47048 0.00806 0.0
H64 H 0.53157 0.54728 0.01875 0.0
H65 H 0.48137 0.52148 0.94641 0.0
O66 O 0.48574 0.49472 0.03736 0.0
H67 H 0.43784 0.44313 0.93385 0.0
H68 H 0.49549 0.56268 0.95173 0.0
Cu69 Cu 0.01648 0.50697 0.51814 0.0
N70 N 0.01714 0.49595 0.47781 0.0
N71 N 0.03135 0.48562 0.4387 0.0
C72 C 0.03555 0.49689 0.46638 0.0
C73 C 0.00929 0.47722 0.43241 0.0
C74 C 1.00054 0.48368 0.45668 0.0
O75 O 0.04653 0.53199 0.52222 0.0
C76 C 0.00674 0.48472 0.58142 0.0
O77 O 0.01105 0.50246 0.59504 0.0
H78 H 0.05145 0.50475 0.47933 0.0
H79 H 0.98321 0.47912 0.45943 0.0
N80 N 0.99441 0.51399 0.51806 0.0
N81 N 0.96796 0.51946 0.53669 0.0
C82 C 0.98012 0.51038 0.54288 0.0
C83 C 0.99089 0.52541 0.49497 0.0
C84 C 0.97465 0.52892 0.50648 0.0
C85 C 0.0511 0.55101 0.52525 0.0
O86 O 0.03503 0.55427 0.53308 0.0
H87 H 0.9793 0.50208 0.5657 0.0
H88 H 1.00012 0.53145 0.47198 0.0
O89 O 0.00929 0.48433 0.55044 0.0
H90 H 1.00006 0.46682 0.41222 0.0
H91 H 0.96865 0.53812 0.4939 0.0
Cu92 Cu 0.53653 0.02973 0.04068 0.0
N93 N 0.53325 0.05308 0.0451 0.0
N94 N 0.52846 0.07977 0.02972 0.0
C95 C 0.53752 0.0682 0.02186 0.0
C96 C 0.51845 0.07187 0.05937 0.0
C97 C 0.52148 0.05544 0.06881 0.0
O98 O 0.55369 0.03331 0.00126 0.0
C99 C 0.50333 0.98531 0.04004 0.0
O100 O 0.5197 0.98304 0.02998 0.0
H101 H 0.54543 0.06956 -0.0016 0.0
H102 H 0.5142 0.04492 0.09023 0.0
N103 N 0.55295 0.02775 0.07551 0.0
N104 N 0.57145 0.01534 0.10391 0.0
C105 C 0.5627 0.01623 0.07444 0.0
C106 C 0.55577 0.03469 0.10664 0.0
C107 C 0.56727 0.02709 0.12426 0.0
C108 C 0.54961 0.03651 0.97166 0.0
O109 O 0.53061 0.0353 0.96465 0.0
H110 H 0.56287 0.00827 0.05247 0.0
H111 H 0.54921 0.04391 0.11616 0.0
O112 O 0.50694 0.00399 0.04308 0.0
H113 H 0.50854 0.07675 0.07235 0.0
H114 H 0.57126 0.02922 0.15036 0.0
Cu115 Cu 0.55257 0.52421 0.49594 0.0
N116 N 0.5726 0.54432 0.46525 0.0
N117 N 0.58823 0.57222 0.42982 0.0
C118 C 0.57061 0.55967 0.44996 0.0
C119 C 0.60177 0.56434 0.43261 0.0
C120 C 0.5921 0.54714 0.45455 0.0
O121 O 0.52458 0.52382 0.49304 0.0
C122 C 0.58234 0.54794 0.54882 0.0
O123 O 0.58906 0.56492 0.52966 0.0
H124 H 0.5564 0.56144 0.4535 0.0
H125 H 0.59887 0.53751 0.46246 0.0
N126 N 0.54661 0.49718 0.48617 0.0
N127 N 0.5353 0.46297 0.49512 0.0
C128 C 0.53805 0.4808 0.50816 0.0
C129 C 0.54974 0.48958 0.45815 0.0
C130 C 0.54281 0.46836 0.46369 0.0
C131 C 0.5067 0.50993 0.508 0.0
O132 O 0.50747 0.49658 0.52933 0.0
H133 H 0.53417 0.48202 0.53352 0.0
H134 H 0.5565 0.49877 0.43539 0.0
O135 O 0.56605 0.52997 0.53966 0.0
H136 H 0.61774 0.57073 0.42022 0.0
H137 H 0.54284 0.45766 0.44591 0.0
H138 H 0.35658 0.49096 0.31257 0.0
N139 N 0.32174 0.44964 0.30539 0.0
H140 H 0.38432 0.50362 0.35638 0.0
H141 H 0.31758 0.4302 0.36351 0.0
H142 H 0.34421 0.4433 0.40936 0.0
H143 H 0.32797 0.4189 0.28637 0.0
H144 H 0.35104 0.42018 0.24039 0.0
H145 H 0.34258 0.48179 0.25878 0.0
H146 H 0.36679 0.48397 0.21453 0.0
H147 H 0.31824 0.48468 0.295 0.0
H148 H 0.28028 0.41619 0.30524 0.0
H149 H 0.28367 0.48426 0.28256 0.0
H150 H 0.24555 0.41552 0.29478 0.0
H151 H 0.18381 0.48048 0.28299 0.0
H152 H 0.16103 0.48738 0.31911 0.0
H153 H 0.12348 0.42088 0.3498 0.0
H154 H 0.14632 0.41403 0.31278 0.0
H155 H 0.13853 0.41201 0.23822 0.0
H156 H 0.11841 0.41846 0.19449 0.0
H157 H 0.17436 0.48348 0.1834 0.0
H158 H 0.19428 0.47675 0.22773 0.0
H159 H 0.21354 0.47526 0.29561 0.0
H160 H 0.24949 0.47829 0.30444 0.0
H161 H 0.22545 0.41982 0.25194 0.0
N162 N 0.17566 0.44108 0.26798 0.0
H163 H 0.18901 0.41629 0.24491 0.0
C164 C 0.33528 0.45932 0.33429 0.0
C165 C 0.35365 0.48048 0.33362 0.0
C166 C 0.36951 0.48781 0.35915 0.0
C167 C 0.36702 0.47436 0.38637 0.0
C168 C 0.34732 0.45393 0.38835 0.0
C169 C 0.33181 0.44646 0.36241 0.0
C170 C 0.33366 0.45022 0.27621 0.0
C171 C 0.33614 0.43295 0.27028 0.0
C172 C 0.34957 0.43386 0.24422 0.0
C173 C 0.36112 0.45229 0.22377 0.0
C174 C 0.35801 0.46936 0.22928 0.0
C175 C 0.34426 0.46825 0.25497 0.0
C176 C 0.30176 0.45036 0.30061 0.0
C177 C 0.30244 0.46956 0.2947 0.0
C178 C 0.28258 0.46927 0.28787 0.0
C179 C 0.26171 0.44982 0.28715 0.0
C180 C 0.26125 0.43077 0.29411 0.0
C181 C 0.28105 0.43109 0.30052 0.0
C182 C 0.16683 0.44666 0.29526 0.0
C183 C 0.17124 0.46749 0.29827 0.0
C184 C 0.1581 0.47142 0.31901 0.0
C185 C 0.14022 0.45462 0.33705 0.0
C186 C 0.13689 0.4341 0.3358 0.0
C187 C 0.1501 0.4302 0.31506 0.0
C188 C 0.16775 0.44386 0.23631 0.0
C189 C 0.14677 0.4274 0.22547 0.0
C190 C 0.13527 0.43119 0.20048 0.0
C191 C 0.14459 0.45162 0.18571 0.0
C192 C 0.1665 0.46768 0.19473 0.0
C193 C 0.17804 0.46382 0.21979 0.0
C194 C 0.19822 0.44521 0.27 0.0
C195 C 0.21586 0.46307 0.28586 0.0
C196 C 0.23666 0.4649 0.29074 0.0
C197 C 0.24038 0.4491 0.2795 0.0
C198 C 0.22308 0.43198 0.26192 0.0
C199 C 0.20228 0.43003 0.25749 0.0
H200 H 0.72462 0.10863 0.78952 0.0
N201 N 0.73792 0.14459 0.75576 0.0
H202 H 0.69396 0.09107 0.82963 0.0
H203 H 0.71737 0.16312 0.78453 0.0
H204 H 0.68652 0.14566 0.82474 0.0
H205 H 0.70835 0.15404 0.72736 0.0
H206 H 0.68477 0.13719 0.67954 0.0
H207 H 0.73963 0.11752 0.71557 0.0
H208 H 0.71537 0.1 0.66765 0.0
H209 H 0.77618 0.15504 0.78546 0.0
H210 H 0.74431 0.18243 0.72924 0.0
H211 H 0.81101 0.18988 0.78632 0.0
H212 H 0.7792 0.21679 0.72808 0.0
H213 H 0.92363 0.29707 0.77425 0.0
H214 H 0.94483 0.32379 0.81629 0.0
H215 H 0.88573 0.32528 0.8392 0.0
H216 H 0.86442 0.29809 0.79837 0.0
H217 H 0.8713 0.3159 0.74528 0.0
H218 H 0.89039 0.34793 0.71124 0.0
H219 H 0.92563 0.32292 0.66104 0.0
H220 H 0.90767 0.29149 0.69785 0.0
H221 H 0.87634 0.24719 0.75 0.0
H222 H 0.84059 0.21317 0.75162 0.0
H223 H 0.80557 0.24691 0.75687 0.0
N224 N 0.88332 0.286 0.75133 0.0
H225 H 0.84135 0.28074 0.75307 0.0
C226 C 0.72321 0.13706 0.78405 0.0
C227 C 0.71676 0.11702 0.79786 0.0
C228 C 0.69921 0.10702 0.8207 0.0
C229 C 0.68763 0.11688 0.83013 0.0
C230 C 0.69488 0.13751 0.81756 0.0
C231 C 0.71261 0.14759 0.7948 0.0
C232 C 0.72624 0.13741 0.7247 0.0
C233 C 0.7107 0.1429 0.71393 0.0
C234 C 0.69707 0.13313 0.6866 0.0
C235 C 0.69828 0.11732 0.66989 0.0
C236 C 0.7141 0.11212 0.68017 0.0
C237 C 0.72805 0.12221 0.70725 0.0
C238 C 0.75764 0.16582 0.75693 0.0
C239 C 0.77672 0.16855 0.77317 0.0
C240 C 0.7967 0.18848 0.7733 0.0
C241 C 0.79819 0.20623 0.75672 0.0
C242 C 0.77878 0.20361 0.74129 0.0
C243 C 0.75867 0.18371 0.74165 0.0
C244 C 0.89257 0.29577 0.78267 0.0
C245 C 0.91498 0.30238 0.78949 0.0
C246 C 0.92707 0.31767 0.81336 0.0
C247 C 0.9169 0.32671 0.83045 0.0
C248 C 0.8939 0.31858 0.82607 0.0
C249 C 0.88171 0.30297 0.80268 0.0
C250 C 0.88838 0.30132 0.72467 0.0
C251 C 0.88275 0.31698 0.7266 0.0
C252 C 0.89377 0.33549 0.70672 0.0
C253 C 0.91021 0.33856 0.68371 0.0
C254 C 0.91381 0.32168 0.6793 0.0
C255 C 0.90319 0.30341 0.69984 0.0
C256 C 0.86164 0.26649 0.7517 0.0
C257 C 0.86089 0.24716 0.75134 0.0
C258 C 0.84039 0.22772 0.75265 0.0
C259 C 0.82002 0.22713 0.75486 0.0
C260 C 0.82081 0.24663 0.75492 0.0
C261 C 0.84139 0.26611 0.7531 0.0
H262 H 0.571 0.85655 0.26009 0.0
N263 N 0.61517 0.86995 0.24983 0.0
H264 H 0.55828 0.87412 0.29591 0.0
H265 H 0.63743 0.89311 0.30147 0.0
H266 H 0.62472 0.91058 0.33803 0.0
H267 H 0.65057 0.90773 0.2331 0.0
H268 H 0.65048 0.9345 0.19605 0.0
H269 H 0.58313 0.86143 0.20284 0.0
H270 H 0.58268 0.88795 0.16655 0.0
H271 H 0.57643 0.83235 0.23359 0.0
H272 H 0.64658 0.86061 0.25651 0.0
H273 H 0.57343 0.79869 0.22194 0.0
H274 H 0.64355 0.82667 0.24675 0.0
H275 H 0.56957 0.70339 0.24254 0.0
H276 H 0.56844 0.67898 0.28537 0.0
H277 H 0.64035 0.70851 0.27738 0.0
H278 H 0.64123 0.73284 0.23398 0.0
H279 H 0.6305 0.73075 0.15853 0.0
H280 H 0.61663 0.70684 0.11166 0.0
H281 H 0.5484 0.68405 0.14145 0.0
H282 H 0.56262 0.70892 0.18717 0.0
H283 H 0.57209 0.73558 0.23228 0.0
H284 H 0.57331 0.76848 0.24431 0.0
H285 H 0.64015 0.80522 0.20255 0.0
N286 N 0.60644 0.73267 0.20674 0.0
H287 H 0.63908 0.77221 0.19235 0.0
C288 C 0.60532 0.87361 0.27794 0.0
C289 C 0.58263 0.86759 0.27795 0.0
C290 C 0.57536 0.87777 0.29846 0.0
C291 C 0.59064 0.89413 0.31925 0.0
C292 C 0.61266 0.89837 0.32176 0.0
C293 C 0.61988 0.88818 0.30129 0.0
C294 C 0.61691 0.88261 0.22096 0.0
C295 C 0.63608 0.90312 0.21754 0.0
C296 C 0.63587 0.91844 0.19671 0.0
C297 C 0.61641 0.91348 0.17886 0.0
C298 C 0.598 0.89232 0.17983 0.0
C299 C 0.59823 0.87702 0.20071 0.0
C300 C 0.61194 0.8492 0.24545 0.0
C301 C 0.5912 0.83136 0.23632 0.0
C302 C 0.58944 0.81194 0.22996 0.0
C303 C 0.60831 0.80992 0.23293 0.0
C304 C 0.62878 0.82768 0.24327 0.0
C305 C 0.63054 0.84706 0.24923 0.0
C306 C 0.60559 0.72005 0.23513 0.0
C307 C 0.58517 0.70497 0.25039 0.0
C308 C 0.58455 0.69098 0.27499 0.0
C309 C 0.6043 0.6917 0.28469 0.0
C310 C 0.6248 0.70734 0.27017 0.0
C311 C 0.62539 0.72136 0.24565 0.0
C312 C 0.59765 0.72139 0.17646 0.0
C313 C 0.61258 0.72097 0.15432 0.0
C314 C 0.60458 0.7071 0.12782 0.0
C315 C 0.58136 0.6931 0.12316 0.0
C316 C 0.56637 0.69458 0.14419 0.0
C317 C 0.57446 0.70869 0.17056 0.0
C318 C 0.60571 0.75152 0.21186 0.0
C319 C 0.58701 0.7507 0.22588 0.0
C320 C 0.58769 0.76959 0.2325 0.0
C321 C 0.60696 0.78963 0.22485 0.0
C322 C 0.62526 0.79019 0.20968 0.0
C323 C 0.62463 0.77136 0.20347 0.0
H324 H 0.89593 0.5852 0.84687 0.0
N325 N 0.86581 0.5563 0.80633 0.0
H326 H 0.9158 0.57973 0.89219 0.0
H327 H 0.85694 0.51757 0.83115 0.0
H328 H 0.87812 0.51194 0.87405 0.0
H329 H 0.84696 0.51783 0.77591 0.0
H330 H 0.86073 0.51032 0.72598 0.0
H331 H 0.90041 0.58383 0.76866 0.0
H332 H 0.91447 0.57651 0.71882 0.0
H333 H 0.84241 0.55295 0.86222 0.0
H334 H 0.83677 0.55003 0.75538 0.0
H335 H 0.80656 0.55059 0.86515 0.0
H336 H 0.80084 0.54718 0.75893 0.0
H337 H 0.71114 0.57976 0.84833 0.0
H338 H 0.68306 0.5658 0.89228 0.0
H339 H 0.67811 0.5049 0.8883 0.0
H340 H 0.70568 0.51893 0.84337 0.0
H341 H 0.68874 0.52262 0.78844 0.0
H342 H 0.66555 0.52131 0.74221 0.0
H343 H 0.71176 0.5887 0.72251 0.0
H344 H 0.73412 0.58999 0.7704 0.0
H345 H 0.76345 0.58159 0.84535 0.0
H346 H 0.79583 0.57731 0.84566 0.0
H347 H 0.7602 0.52347 0.78169 0.0
N348 N 0.72482 0.55863 0.81386 0.0
H349 H 0.72765 0.52753 0.78209 0.0
C350 C 0.87538 0.55195 0.83512 0.0
C351 C 0.89176 0.56915 0.8532 0.0
C352 C 0.90332 0.56595 0.87885 0.0
C353 C 0.8992 0.54541 0.8865 0.0
C354 C 0.8819 0.52801 0.86925 0.0
C355 C 0.86989 0.53121 0.84418 0.0
C356 C 0.87278 0.55145 0.77602 0.0
C357 C 0.86174 0.53068 0.76364 0.0
C358 C 0.86964 0.52642 0.73508 0.0
C359 C 0.88872 0.54281 0.71838 0.0
C360 C 0.89954 0.56358 0.73073 0.0
C361 C 0.89163 0.5678 0.75926 0.0
C362 C 0.84253 0.55071 0.80863 0.0
C363 C 0.83334 0.55098 0.83939 0.0
C364 C 0.8128 0.54984 0.84116 0.0
C365 C 0.80082 0.54852 0.81229 0.0
C366 C 0.80946 0.54772 0.78167 0.0
C367 C 0.83016 0.5492 0.77978 0.0
C368 C 0.71053 0.55049 0.84268 0.0
C369 C 0.70424 0.56352 0.85741 0.0
C370 C 0.68827 0.5555 0.88269 0.0
C371 C 0.67825 0.53416 0.89396 0.0
C372 C 0.68525 0.52131 0.87999 0.0
C373 C 0.70118 0.52936 0.85448 0.0
C374 C 0.71308 0.55655 0.78319 0.0
C375 C 0.694 0.53708 0.77406 0.0
C376 C 0.68078 0.53635 0.74729 0.0
C377 C 0.6865 0.55497 0.72864 0.0
C378 C 0.7064 0.57413 0.73671 0.0
C379 C 0.71942 0.57489 0.7638 0.0
C380 C 0.74328 0.55518 0.81339 0.0
C381 C 0.7626 0.5688 0.83156 0.0
C382 C 0.78098 0.56623 0.83189 0.0
C383 C 0.78051 0.55003 0.81373 0.0
C384 C 0.76104 0.53616 0.79576 0.0
C385 C 0.74245 0.53853 0.79589 0.0
H386 H 0.2046 0.67083 0.31455 0.0
N387 N 0.1974 0.70156 0.28895 0.0
H388 H 0.18682 0.64829 0.36347 0.0
H389 H 0.17072 0.70434 0.33177 0.0
H390 H 0.1517 0.68107 0.37974 0.0
H391 H 0.16089 0.69233 0.25474 0.0
H392 H 0.14659 0.67123 0.20471 0.0
H393 H 0.21621 0.68235 0.25751 0.0
H394 H 0.20225 0.66142 0.20722 0.0
H395 H 0.23506 0.70719 0.32203 0.0
H396 H 0.2121 0.73612 0.25068 0.0
H397 H 0.27321 0.73709 0.31528 0.0
H398 H 0.2506 0.76549 0.24192 0.0
H399 H 0.39559 0.83483 0.29417 0.0
H400 H 0.41282 0.85651 0.34283 0.0
H401 H 0.35384 0.86032 0.35603 0.0
H402 H 0.33765 0.84009 0.30641 0.0
H403 H 0.35127 0.85738 0.24721 0.0
H404 H 0.3691 0.88193 0.20035 0.0
H405 H 0.40148 0.84799 0.17402 0.0
H406 H 0.38206 0.82257 0.2196 0.0
H407 H 0.3429 0.78362 0.27629 0.0
H408 H 0.3043 0.7533 0.28097 0.0
H409 H 0.28016 0.796 0.26335 0.0
N410 N 0.35679 0.82442 0.266 0.0
H411 H 0.31845 0.82557 0.25628 0.0
C412 C 0.18917 0.68951 0.31969 0.0
C413 C 0.19349 0.6735 0.32909 0.0
C414 C 0.18304 0.6604 0.35697 0.0
C415 C 0.16756 0.66261 0.37567 0.0
C416 C 0.16374 0.67902 0.36653 0.0
C417 C 0.17451 0.69232 0.33897 0.0
C418 C 0.18946 0.68882 0.25979 0.0
C419 C 0.16992 0.68557 0.24443 0.0
C420 C 0.16192 0.67368 0.21574 0.0
C421 C 0.17336 0.66474 0.20186 0.0
C422 C 0.19294 0.66792 0.21745 0.0
C423 C 0.20095 0.67988 0.24617 0.0
C424 C 0.22039 0.71937 0.28703 0.0
C425 C 0.23807 0.71985 0.30478 0.0
C426 C 0.26016 0.73702 0.30054 0.0
C427 C 0.26526 0.75386 0.2779 0.0
C428 C 0.2475 0.75318 0.2601 0.0
C429 C 0.22541 0.7363 0.26491 0.0
C430 C 0.3653 0.83561 0.29659 0.0
C431 C 0.38638 0.84026 0.30781 0.0
C432 C 0.3961 0.85252 0.33585 0.0
C433 C 0.38477 0.86025 0.3536 0.0
C434 C 0.3633 0.85502 0.3428 0.0
C435 C 0.35381 0.84311 0.3144 0.0
C436 C 0.36501 0.83782 0.23655 0.0
C437 C 0.36151 0.85473 0.23065 0.0
C438 C 0.37216 0.86908 0.20407 0.0
C439 C 0.38704 0.86723 0.1833 0.0
C440 C 0.38993 0.84988 0.18888 0.0
C441 C 0.37893 0.83533 0.21508 0.0
C442 C 0.33371 0.80689 0.26614 0.0
C443 C 0.32918 0.78627 0.27297 0.0
C444 C 0.30706 0.76901 0.27609 0.0
C445 C 0.28888 0.77207 0.273 0.0
C446 C 0.29353 0.79279 0.26549 0.0
C447 C 0.31564 0.80993 0.26168 0.0
H448 H 0.44398 0.12516 0.73403 0.0
N449 N 0.47225 0.16439 0.75461 0.0
H450 H 0.44899 0.10718 0.68793 0.0
H451 H 0.50739 0.1823 0.71074 0.0
H452 H 0.51272 0.16446 0.66492 0.0
H453 H 0.51323 0.1693 0.76747 0.0
H454 H 0.52436 0.15925 0.81866 0.0
H455 H 0.45045 0.15307 0.81193 0.0
H456 H 0.4621 0.14464 0.86428 0.0
H457 H 0.43623 0.16719 0.74895 0.0
H458 H 0.50841 0.20525 0.7516 0.0
H459 H 0.43467 0.19937 0.7433 0.0
H460 H 0.50731 0.23774 0.74361 0.0
H461 H 0.4356 0.29776 0.68529 0.0
H462 H 0.44588 0.32108 0.63611 0.0
H463 H 0.5157 0.34242 0.65239 0.0
H464 H 0.50494 0.31815 0.70071 0.0
H465 H 0.50183 0.32683 0.75596 0.0
H466 H 0.50469 0.35174 0.79695 0.0
H467 H 0.43223 0.31834 0.80182 0.0
H468 H 0.42968 0.29293 0.7618 0.0
H469 H 0.437 0.25733 0.70173 0.0
H470 H 0.44045 0.22618 0.70612 0.0
H471 H 0.49889 0.2612 0.76839 0.0
N472 N 0.46306 0.29511 0.72799 0.0
H473 H 0.49608 0.29266 0.76192 0.0
C474 C 0.47519 0.15501 0.72579 0.0
C475 C 0.45889 0.13385 0.71875 0.0
C476 C 0.46187 0.1236 0.69257 0.0
C477 C 0.48133 0.13435 0.67283 0.0
C478 C 0.49743 0.15579 0.6794 0.0
C479 C 0.49443 0.16603 0.70569 0.0
C480 C 0.48067 0.16136 0.78564 0.0
C481 C 0.50195 0.16387 0.78843 0.0
C482 C 0.50842 0.15832 0.81805 0.0
C483 C 0.494 0.1507 0.84576 0.0
C484 C 0.47339 0.1497 0.84333 0.0
C485 C 0.46675 0.15475 0.81353 0.0
C486 C 0.47234 0.18384 0.75007 0.0
C487 C 0.45176 0.18259 0.74768 0.0
C488 C 0.45098 0.20105 0.74419 0.0
C489 C 0.47088 0.22131 0.74247 0.0
C490 C 0.49162 0.22251 0.74504 0.0
C491 C 0.49233 0.20393 0.74911 0.0
C492 C 0.4695 0.30656 0.69677 0.0
C493 C 0.45303 0.30715 0.67772 0.0
C494 C 0.459 0.32061 0.64984 0.0
C495 C 0.48168 0.33397 0.6407 0.0
C496 C 0.49809 0.33233 0.65869 0.0
C497 C 0.49202 0.31864 0.6865 0.0
C498 C 0.46545 0.30777 0.7561 0.0
C499 C 0.48657 0.32444 0.76658 0.0
C500 C 0.48817 0.33893 0.78974 0.0
C501 C 0.4687 0.33729 0.80255 0.0
C502 C 0.44762 0.32003 0.79296 0.0
C503 C 0.44608 0.30545 0.77005 0.0
C504 C 0.46596 0.27723 0.7318 0.0
C505 C 0.45058 0.25825 0.71624 0.0
C506 C 0.45251 0.24039 0.71905 0.0
C507 C 0.46976 0.24092 0.7381 0.0
C508 C 0.48548 0.26015 0.75331 0.0
C509 C 0.48374 0.2782 0.74993 0.0
H510 H 0.0394 0.43994 0.05633 0.0
H511 H 0.14227 0.48765 0.18368 0.0
H512 H 0.07259 0.50434 0.09156 0.0
H513 H 0.11426 0.42643 0.13823 0.0
H514 H 0.1163 0.49378 0.15164 0.0
H515 H 0.0651 0.43395 0.0893 0.0
C516 C 0.05191 0.45277 0.0713 0.0
C517 C 0.05384 0.47271 0.07104 0.0
C518 C 0.11591 0.47905 0.14856 0.0
C519 C 0.08358 0.466 0.10864 0.0
C520 C 0.13093 0.47562 0.16659 0.0
C521 C 0.13053 0.45648 0.1637 0.0
C522 C 0.10025 0.4632 0.12752 0.0
C523 C 0.11504 0.44131 0.14164 0.0
C524 C 0.06671 0.44937 0.08996 0.0
C525 C 0.07045 0.48871 0.09095 0.0
N526 N 0.10049 0.44496 0.12454 0.0
N527 N 0.08473 0.48503 0.10881 0.0
H528 H 0.60799 0.08285 0.50421 0.0
H529 H 0.67245 0.07409 0.66263 0.0
H530 H 0.58177 0.02508 0.56384 0.0
H531 H 0.68672 0.1336 0.61733 0.0
H532 H 0.64266 0.05478 0.62174 0.0
H533 H 0.64026 0.10048 0.5408 0.0
C534 C 0.60903 0.0738 0.52496 0.0
C535 C 0.59204 0.05246 0.53108 0.0
C536 C 0.65244 0.07206 0.62065 0.0
C537 C 0.62914 0.07267 0.57317 0.0
C538 C 0.66953 0.08306 0.64374 0.0
C539 C 0.68198 0.10545 0.64332 0.0
C540 C 0.64798 0.08357 0.59684 0.0
C541 C 0.67736 0.11633 0.61865 0.0
C542 C 0.6275 0.08394 0.5459 0.0
C543 C 0.59442 0.04159 0.55833 0.0
N544 N 0.66072 0.10529 0.59643 0.0
N545 N 0.61265 0.05184 0.57846 0.0
H546 H 0.55986 0.5846 0.01524 0.0
H547 H 0.54377 0.67678 0.08317 0.0
H548 H 0.50154 0.58826 0.99335 0.0
H549 H 0.59963 0.66951 0.10754 0.0
H550 H 0.52935 0.64647 0.04623 0.0
H551 H 0.57625 0.618 0.04461 0.0
C552 C 0.55053 0.59249 0.01653 0.0
C553 C 0.52919 0.58348 0.00213 0.0
C554 C 0.54487 0.65168 0.05947 0.0
C555 C 0.54787 0.62188 0.03583 0.0
C556 C 0.55307 0.66893 0.08069 0.0
C557 C 0.57301 0.67583 0.09856 0.0
C558 C 0.55665 0.6412 0.05616 0.0
C559 C 0.58443 0.66512 0.09396 0.0
C560 C 0.55991 0.61162 0.03324 0.0
C561 C 0.51806 0.59466 0.004 0.0
N562 N 0.57605 0.64836 0.07342 0.0
N563 N 0.52743 0.61318 0.02085 0.0
H564 H 0.94348 0.49125 0.58611 0.0
H565 H 0.90583 0.56704 0.66125 0.0
H566 H 0.95887 0.55098 0.5402 0.0
H567 H 0.8924 0.50814 0.7081 0.0
H568 H 0.92279 0.56019 0.61453 0.0
H569 H 0.92196 0.49577 0.62852 0.0
C570 C 0.94228 0.50529 0.58486 0.0
C571 C 0.95322 0.52086 0.55968 0.0
C572 C 0.91601 0.5487 0.63494 0.0
C573 C 0.92847 0.52613 0.60824 0.0
C574 C 0.90643 0.55266 0.66172 0.0
C575 C 0.89778 0.53821 0.6888 0.0
C576 C 0.91704 0.53018 0.63518 0.0
C577 C 0.89866 0.51964 0.6877 0.0
C578 C 0.92991 0.50784 0.60906 0.0
C579 C 0.95066 0.53852 0.55899 0.0
N580 N 0.90823 0.51624 0.66147 0.0
N581 N 0.93871 0.54076 0.58308 0.0
H582 H 0.48881 0.94275 0.03687 0.0
H583 H 0.40387 0.91039 0.18538 0.0
H584 H 0.47062 0.98554 0.07603 0.0
H585 H 0.4021 0.86299 0.12267 0.0
H586 H 0.42856 0.93802 0.14569 0.0
H587 H 0.45753 0.91315 0.06773 0.0
C588 C 0.47806 0.94589 0.05153 0.0
C589 C 0.4825 0.96672 0.05403 0.0
C590 C 0.42258 0.92155 0.14044 0.0
C591 C 0.44695 0.933 0.08981 0.0
C592 C 0.40827 0.90563 0.16307 0.0
C593 C 0.40074 0.88411 0.15768 0.0
C594 C 0.42988 0.91612 0.11233 0.0
C595 C 0.40775 0.8793 0.12845 0.0
C596 C 0.46022 0.92898 0.06914 0.0
C597 C 0.46795 0.96979 0.07339 0.0
N598 N 0.42211 0.89518 0.10711 0.0
N599 N 0.45108 0.9532 0.09089 0.0
H600 H 0.50109 0.44592 0.53859 0.0
H601 H 0.51458 0.34824 0.59261 0.0
H602 H 0.5472 0.4335 0.48966 0.0
H603 H 0.464 0.3589 0.63039 0.0
H604 H 0.52639 0.37832 0.55332 0.0
H605 H 0.4866 0.41289 0.57077 0.0
C606 C 0.50813 0.43614 0.53465 0.0
C607 C 0.52552 0.44251 0.51178 0.0
C608 C 0.51255 0.37386 0.57 0.0
C609 C 0.50906 0.40454 0.54865 0.0
C610 C 0.50588 0.35679 0.59253 0.0
C611 C 0.48821 0.35096 0.61482 0.0
C612 C 0.5016 0.38526 0.57003 0.0
C613 C 0.47743 0.3625 0.61339 0.0
C614 C 0.49981 0.41721 0.55292 0.0
C615 C 0.53377 0.42906 0.5071 0.0
N616 N 0.48437 0.37909 0.5916 0.0
N617 N 0.52563 0.41076 0.5257 0.0
H618 H 0.58713 0.00577 0.36792 0.0
H619 H 0.55139 0.88375 0.35092 0.0
H620 H 0.52746 0.95311 0.41307 0.0
H621 H 0.61589 0.93758 0.32105 0.0
H622 H 0.54117 0.90855 0.37144 0.0
H623 H 0.59653 0.98061 0.34706 0.0
C624 C 0.57588 0.98891 0.37316 0.0
C625 C 0.55652 0.98157 0.39238 0.0
C626 C 0.55761 0.9149 0.36059 0.0
C627 C 0.56729 0.95262 0.3689 0.0
C628 C 0.56344 0.90076 0.34888 0.0
C629 C 0.5846 0.90857 0.33452 0.0
C630 C 0.57296 0.93702 0.35754 0.0
C631 C 0.59956 0.93078 0.33251 0.0
C632 C 0.58136 0.97454 0.36151 0.0
C633 C 0.54271 0.9595 0.39874 0.0
N634 N 0.59342 0.94418 0.34372 0.0
N635 N 0.54835 0.94582 0.38705 0.0
H636 H 0.57477 0.52836 0.01009 0.0
H637 H 0.63993 0.49418 0.89537 0.0
H638 H 0.54768 0.46292 0.98365 0.0
H639 H 0.67312 0.55349 0.94757 0.0
H640 H 0.60688 0.48155 0.93013 0.0
H641 H 0.61159 0.53729 0.99026 0.0
C642 C 0.57667 0.51579 0.0006 0.0
C643 C 0.55811 0.49491 -0.00176 0.0
C644 C 0.62153 0.4972 0.93431 0.0
C645 C 0.60012 0.50509 0.97491 0.0
C646 C 0.64051 0.50442 0.91455 0.0
C647 C 0.65934 0.52511 0.91813 0.0
C648 C 0.62119 0.51083 0.95756 0.0
C649 C 0.65883 0.53766 0.94324 0.0
C650 C 0.5977 0.52089 0.98931 0.0
C651 C 0.56154 0.47923 0.9859 0.0
N652 N 0.63996 0.53046 0.96162 0.0
N653 N 0.58206 0.48472 0.97412 0.0
H654 H 0.06722 0.59396 0.52636 0.0
H655 H 0.15217 0.61972 0.37998 0.0
H656 H 0.0839 0.54892 0.49257 0.0
H657 H 0.15216 0.66954 0.43381 0.0
H658 H 0.12802 0.59393 0.42221 0.0
H659 H 0.09898 0.62226 0.49457 0.0
C660 C 0.07778 0.59008 0.51279 0.0
C661 C 0.07269 0.56895 0.51192 0.0
C662 C 0.1335 0.61055 0.42501 0.0
C663 C 0.10881 0.6012 0.47498 0.0
C664 C 0.14749 0.62541 0.4009 0.0
C665 C 0.1543 0.64701 0.40299 0.0
C666 C 0.12584 0.61712 0.45131 0.0
C667 C 0.14703 0.65306 0.43057 0.0
C668 C 0.09589 0.60625 0.49458 0.0
C669 C 0.08705 0.56492 0.49391 0.0
N670 N 0.133 0.63818 0.45339 0.0
N671 N 0.10419 0.5808 0.47576 0.0
H672 H 0.55797 0.1075 0.9838 0.0
H673 H 0.46527 0.11782 0.88801 0.0
H674 H 0.49185 0.08313 0.02392 0.0
H675 H 0.53583 0.16459 0.87327 0.0
H676 H 0.47474 0.10366 0.93609 0.0
H677 H 0.55056 0.12742 0.94119 0.0
C678 C 0.54203 0.10657 0.98384 0.0
C679 C 0.52551 0.09366 0.00738 0.0
C680 C 0.48814 0.11716 0.9225 0.0
C681 C 0.51679 0.11602 0.95863 0.0
C682 C 0.48276 0.12543 0.89503 0.0
C683 C 0.49973 0.14262 0.87627 0.0
C684 C 0.5107 0.12574 0.93114 0.0
C685 C 0.52213 0.15114 0.88641 0.0
C686 C 0.53783 0.11795 0.95965 0.0
C687 C 0.50513 0.09303 0.00648 0.0
N688 N 0.52697 0.14248 0.91294 0.0
N689 N 0.50123 0.1038 0.98221 0.0
H690 H 0.46494 0.475 0.52034 0.0
H691 H 0.39866 0.51481 0.40815 0.0
H692 H 0.49836 0.5367 0.47056 0.0
H693 H 0.37879 0.44866 0.42002 0.0
H694 H 0.43173 0.52481 0.44229 0.0
H695 H 0.42941 0.46727 0.4958 0.0
C696 C 0.46477 0.48709 0.50473 0.0
C697 C 0.48473 0.50647 0.49726 0.0
C698 C 0.4199 0.50811 0.4376 0.0
C699 C 0.44404 0.49766 0.46918 0.0
C700 C 0.40104 0.50233 0.41792 0.0
C701 C 0.38574 0.48078 0.41066 0.0
C702 C 0.42334 0.49224 0.4507 0.0
C703 C 0.38966 0.46543 0.42507 0.0
C704 C 0.44449 0.48259 0.4906 0.0
C705 C 0.48341 0.52148 0.47676 0.0
N706 N 0.40803 0.47146 0.44426 0.0
N707 N 0.46342 0.51674 0.46331 0.0
H708 H 1.00032 0.42854 0.96505 0.0
H709 H 0.92123 0.36471 0.81618 0.0
H710 H 0.0083 0.45818 0.86874 0.0
H711 H 0.94508 0.33446 0.88323 0.0
H712 H 0.94721 0.3991 0.84134 0.0
H713 H 0.97444 0.39353 0.94112 0.0
C714 C 0.99654 0.42758 0.93887 0.0
C715 C 0.00632 0.44609 0.91869 0.0
C716 C 0.94663 0.3849 0.85064 0.0
C717 C 0.97668 0.40652 0.89153 0.0
C718 C 0.93172 0.36532 0.8366 0.0
C719 C 0.93099 0.34683 0.84797 0.0
C720 C 0.96056 0.38589 0.87663 0.0
C721 C 0.94516 0.34843 0.87401 0.0
C722 C 0.98194 0.40771 0.92528 0.0
C723 C 1.00113 0.44418 0.88491 0.0
N724 N 0.95932 0.36767 0.88775 0.0
N725 N 0.9864 0.42471 0.87239 0.0
H726 H 0.96649 0.49227 0.99509 0.0
H727 H 0.94385 0.57352 0.90088 0.0
H728 H 0.00688 0.56004 0.01092 0.0
H729 H 0.88845 0.51035 0.92741 0.0
H730 H 0.96785 0.56808 0.93825 0.0
H731 H 0.93805 0.49739 0.96786 0.0
C732 C 0.96923 0.50815 0.99333 0.0
C733 C 0.98919 0.52577 0.00516 0.0
C734 C 0.95037 0.55549 0.93611 0.0
C735 C 0.95702 0.53173 0.97344 0.0
C736 C 0.93646 0.55861 0.91485 0.0
C737 C 0.91379 0.54244 0.91076 0.0
C738 C 0.94189 0.53588 0.95301 0.0
C739 C 0.90581 0.52321 0.92904 0.0
C740 C 0.953 0.51104 0.9778 0.0
C741 C 0.99182 0.54599 0.00218 0.0
N742 N 0.91989 0.52037 0.94904 0.0
N743 N 0.97613 0.54845 0.98614 0.0
H744 H 0.48796 0.94532 0.48565 0.0
H745 H 0.38134 0.89412 0.37152 0.0
H746 H 0.44109 0.96657 0.48215 0.0
H747 H 0.41399 0.86009 0.40012 0.0
H748 H 0.40195 0.9196 0.41447 0.0
H749 H 0.46023 0.91273 0.45793 0.0
C750 C 0.47167 0.94294 0.47979 0.0
C751 C 0.46702 0.95892 0.48572 0.0
C752 C 0.4044 0.9064 0.41168 0.0
C753 C 0.43542 0.92185 0.45345 0.0
C754 C 0.3925 0.89168 0.38715 0.0
C755 C 0.39591 0.87484 0.38181 0.0
C756 C 0.42024 0.90463 0.43078 0.0
C757 C 0.41112 0.87304 0.40265 0.0
C758 C 0.45586 0.92433 0.46385 0.0
C759 C 0.44557 0.95487 0.47766 0.0
N760 N 0.42295 0.88791 0.42588 0.0
N761 N 0.43075 0.93694 0.46139 0.0
H762 H 0.50639 0.45753 0.89247 0.0
H763 H 0.44176 0.33284 0.85514 0.0
H764 H 0.43971 0.41192 0.9283 0.0
H765 H 0.49908 0.38057 0.79858 0.0
H766 H 0.44303 0.36119 0.88681 0.0
H767 H 0.50627 0.42905 0.8624 0.0
C768 C 0.49175 0.44153 0.89402 0.0
C769 C 0.47299 0.43714 0.91277 0.0
C770 C 0.45536 0.36543 0.86752 0.0
C771 C 0.47276 0.40446 0.87863 0.0
C772 C 0.45462 0.34924 0.84931 0.0
C773 C 0.47027 0.35421 0.82393 0.0
C774 C 0.47197 0.38681 0.86055 0.0
C775 C 0.48683 0.37582 0.81814 0.0
C776 C 0.49165 0.42531 0.87678 0.0
C777 C 0.45439 0.41612 0.91376 0.0
N778 N 0.48722 0.39129 0.83624 0.0
N779 N 0.45478 0.40057 0.89706 0.0
H780 H 0.07655 0.51183 0.43549 0.0
H781 H 0.09438 0.42875 0.3384 0.0
H782 H 0.02189 0.4506 0.40434 0.0
H783 H 0.14871 0.48882 0.37405 0.0
H784 H 0.06755 0.43625 0.36249 0.0
H785 H 0.10312 0.50387 0.412 0.0
C786 C 0.07013 0.49669 0.42369 0.0
C787 C 0.04694 0.48179 0.42214 0.0
C788 C 0.08533 0.44774 0.36519 0.0
C789 C 0.07735 0.47256 0.395 0.0
C790 C 0.1007 0.44338 0.35174 0.0
C791 C 0.12389 0.45816 0.35426 0.0
C792 C 0.09316 0.46706 0.38125 0.0
C793 C 0.13102 0.47706 0.3712 0.0
C794 C 0.08532 0.49216 0.41021 0.0
C795 C 0.03959 0.46261 0.40592 0.0
N796 N 0.11572 0.48098 0.38396 0.0
N797 N 0.05475 0.45849 0.39312 0.0
H798 H 0.553 0.05685 0.91198 0.0
H799 H 0.68127 0.09168 0.8851 0.0
H800 H 0.58888 0.03718 0.97629 0.0
H801 H 0.64743 0.11464 0.82299 0.0
H802 H 0.6468 0.07024 0.91713 0.0
H803 H 0.58637 0.07608 0.87661 0.0
C804 C 0.56774 0.05628 0.91839 0.0
C805 C 0.56816 0.04546 0.94724 0.0
C806 C 0.64688 0.07999 0.89654 0.0
C807 C 0.60647 0.06766 0.90718 0.0
C808 C 0.66658 0.09223 0.87822 0.0
C809 C 0.66728 0.10502 0.85133 0.0
C810 C 0.62762 0.08043 0.88794 0.0
C811 C 0.64776 0.10525 0.8438 0.0
C812 C 0.58685 0.06741 0.89833 0.0
C813 C 0.58781 0.04541 0.95441 0.0
N814 N 0.62872 0.0931 0.86194 0.0
N815 N 0.60616 0.05642 0.93466 0.0
H816 H 0.6144 0.58925 0.37483 0.0
H817 H 0.5794 0.67552 0.34177 0.0
H818 H 0.57028 0.59672 0.43887 0.0
H819 H 0.62658 0.67045 0.28115 0.0
H820 H 0.57625 0.64702 0.37818 0.0
H821 H 0.61968 0.61944 0.34093 0.0
C822 C 0.60593 0.59728 0.38196 0.0
C823 C 0.59179 0.59027 0.40979 0.0
C824 C 0.58739 0.65222 0.35701 0.0
C825 C 0.5976 0.62484 0.37073 0.0
C826 C 0.58913 0.66844 0.33614 0.0
C827 C 0.60326 0.6754 0.30832 0.0
C828 C 0.59977 0.64276 0.34994 0.0
C829 C 0.61568 0.66581 0.30251 0.0
C830 C 0.60888 0.6145 0.36245 0.0
C831 C 0.58103 0.60123 0.41741 0.0
N832 N 0.61356 0.64993 0.32302 0.0
N833 N 0.58413 0.61791 0.39798 0.0
H834 H 0.49629 0.04241 0.56682 0.0
H835 H 0.49863 0.14888 0.61021 0.0
H836 H 0.5161 0.09427 0.49625 0.0
H837 H 0.47317 0.09374 0.67572 0.0
H838 H 0.5057 0.12973 0.56821 0.0
H839 H 0.48823 0.06149 0.60703 0.0
C840 C 0.49907 0.05789 0.55981 0.0
C841 C 0.50707 0.06681 0.52815 0.0
C842 C 0.49847 0.12181 0.59174 0.0
C843 C 0.49764 0.0888 0.57419 0.0
C844 C 0.49454 0.13277 0.61578 0.0
C845 C 0.48523 0.1229 0.64655 0.0
C846 C 0.49321 0.10089 0.59859 0.0
C847 C 0.48006 0.10191 0.65224 0.0
C848 C 0.49431 0.06874 0.58276 0.0
C849 C 0.50986 0.08674 0.52029 0.0
N850 N 0.48418 0.09167 0.62859 0.0
N851 N 0.50526 0.09713 0.54322 0.0
H852 H 0.45941 0.5023 0.0678 0.0
H853 H 0.38829 0.43552 0.22455 0.0
H854 H 0.45259 0.44206 0.0945 0.0
H855 H 0.37055 0.47341 0.16324 0.0
H856 H 0.41557 0.44042 0.18265 0.0
H857 H 0.43135 0.49545 0.10943 0.0
C858 C 0.45217 0.4877 0.08264 0.0
C859 C 0.45836 0.4727 0.07765 0.0
C860 C 0.40558 0.44754 0.17847 0.0
C861 C 0.42622 0.46485 0.12542 0.0
C862 C 0.38985 0.44465 0.20224 0.0
C863 C 0.377 0.45413 0.19771 0.0
C864 C 0.40885 0.46034 0.15026 0.0
C865 C 0.38033 0.46619 0.16843 0.0
C866 C 0.43602 0.48375 0.1062 0.0
C867 C 0.44825 0.45401 0.0975 0.0
N868 N 0.39605 0.46911 0.14604 0.0
N869 N 0.43273 0.45064 0.12072 0.0
H870 H 0.97612 0.47294 0.63116 0.0
H871 H 0.95452 0.35746 0.66437 0.0
H872 H 0.00981 0.44976 0.57313 0.0
H873 H 0.90005 0.36904 0.66526 0.0
H874 H 0.97893 0.39317 0.64074 0.0
H875 H 0.95253 0.43701 0.65593 0.0
C876 C 0.97888 0.4604 0.62421 0.0
C877 C 0.99495 0.46426 0.6002 0.0
C878 C 0.96159 0.38776 0.64613 0.0
C879 C 0.96817 0.4234 0.62828 0.0
C880 C 0.94745 0.36722 0.65928 0.0
C881 C 0.9249 0.35986 0.66695 0.0
C882 C 0.95344 0.40137 0.64135 0.0
C883 C 0.91729 0.3739 0.66058 0.0
C884 C 0.96527 0.43992 0.63801 0.0
C885 C 0.99759 0.44739 0.59159 0.0
N886 N 0.93157 0.39402 0.6485 0.0
N887 N 0.98439 0.42767 0.60575 0.0
H888 H 0.60013 0.02123 0.15437 0.0
H889 H 0.59641 0.91302 0.11959 0.0
H890 H 0.56432 0.97993 0.07313 0.0
H891 H 0.6304 0.95286 0.203 0.0
H892 H 0.58791 0.93946 0.09886 0.0
H893 H 0.61439 0.99819 0.1698 0.0
C894 C 0.59529 0.00738 0.13974 0.0
C895 C 0.58094 1.00256 0.11244 0.0
C896 C 0.59745 0.94253 0.12151 0.0
C897 C 0.59733 0.97618 0.12979 0.0
C898 C 0.6023 0.92742 0.13335 0.0
C899 C 0.61407 0.93066 0.16314 0.0
C900 C 0.60429 0.96096 0.13969 0.0
C901 C 0.6215 0.94976 0.17974 0.0
C902 C 0.60354 0.99429 0.14844 0.0
C903 C 0.57552 0.98453 0.0941 0.0
N904 N 0.61631 0.96407 0.16797 0.0
N905 N 0.58361 0.97197 0.10322 0.0
H906 H 0.58011 0.51461 0.58394 0.0
H907 H 0.67787 0.58634 0.71074 0.0
H908 H 0.61569 0.58343 0.57992 0.0
H909 H 0.65985 0.52261 0.6858 0.0
H910 H 0.65198 0.5849 0.66836 0.0
H911 H 0.60524 0.51648 0.62801 0.0
C912 C 0.59302 0.53013 0.59258 0.0
C913 C 0.59582 0.54892 0.57809 0.0
C914 C 0.65377 0.57128 0.6722 0.0
C915 C 0.62471 0.5511 0.62856 0.0
C916 C 0.66872 0.57211 0.69623 0.0
C917 C 0.67125 0.55458 0.70203 0.0
C918 C 0.64093 0.55268 0.65406 0.0
C919 C 0.65832 0.53641 0.68281 0.0
C920 C 0.60747 0.53116 0.61758 0.0
C921 C 0.61296 0.56855 0.59028 0.0
N922 N 0.64368 0.53591 0.65987 0.0
N923 N 0.62676 0.56914 0.61483 0.0
H924 H 0.10223 0.60898 0.02007 0.0
H925 H 0.17091 0.62732 0.18841 0.0
H926 H 0.11396 0.56223 0.06602 0.0
H927 H 0.15567 0.6727 0.14636 0.0
H928 H 0.15413 0.60519 0.14004 0.0
H929 H 0.12591 0.63447 0.06211 0.0
C930 C 0.11007 0.60419 0.03866 0.0
C931 C 0.10591 0.58337 0.03976 0.0
C932 C 0.15457 0.62005 0.14128 0.0
C933 C 0.13277 0.61232 0.08818 0.0
C934 C 0.16427 0.63277 0.16883 0.0
C935 C 0.16454 0.65183 0.17161 0.0
C936 C 0.14504 0.62641 0.11625 0.0
C937 C 0.15545 0.65794 0.14557 0.0
C938 C 0.12345 0.61869 0.06282 0.0
C939 C 0.11637 0.57798 0.06463 0.0
N940 N 0.14598 0.64522 0.11908 0.0
N941 N 0.12917 0.59229 0.08796 0.0
loop_
_geom_bond_atom_site_label_1
_geom_bond_atom_site_label_2
_geom_bond_distance
_geom_bond_site_symmetry_2
_ccdc_geom_bond_type
Cu0 N1 1.999 . S
Cu0 O6 1.974 . S
Cu0 N11 1.985 1_655 S
Cu0 O20 1.959 1_655 S
N1 Cu0 1.999 . S
N1 C3 1.263 . S
N1 C5 1.389 . S
N2 C3 1.358 . S
N2 C4 1.400 . S
C3 N1 1.263 . S
C3 N2 1.358 . S
C3 H9 0.930 1_554 S
C4 N2 1.400 . S
C4 C5 1.351 . S
C4 H21 0.930 . S
C5 N1 1.389 . S
C5 C4 1.351 . S
C5 H10 0.930 . S
O6 Cu0 1.974 . S
O6 C16 1.290 . S
C7 O8 1.261 . S
C7 O20 1.251 . S
O8 C7 1.261 . S
H9 C3 0.930 1_556 S
H10 C5 0.930 . S
N11 Cu0 1.985 1_455 S
N11 C13 1.335 . S
N11 C14 1.390 . S
N12 C13 1.345 . S
N12 C15 1.336 . S
C13 N11 1.335 . S
C13 N12 1.345 . S
C13 H18 0.930 . S
C14 N11 1.390 . S
C14 C15 1.346 . S
C14 H19 0.930 . S
C15 N12 1.336 . S
C15 C14 1.346 . S
C15 H22 0.929 . S
C16 O6 1.290 . S
C16 O17 1.210 1_554 S
O17 C16 1.210 1_556 S
H18 C13 0.930 . S
H19 C14 0.930 . S
O20 Cu0 1.959 1_455 S
O20 C7 1.251 . S
H21 C4 0.930 . S
H22 C15 0.929 . S
Cu23 N24 1.999 . S
Cu23 O29 1.974 . S
Cu23 N34 1.985 1_565 S
Cu23 O43 1.959 1_565 S
N24 Cu23 1.999 . S
N24 C26 1.263 . S
N24 C28 1.389 . S
N25 C26 1.358 . S
N25 C27 1.400 . S
C26 N24 1.263 . S
C26 N25 1.358 . S
C26 H32 0.930 . S
C27 N25 1.400 . S
C27 C28 1.351 . S
C27 H44 0.930 . S
C28 N24 1.389 . S
C28 C27 1.351 . S
C28 H33 0.930 . S
O29 Cu23 1.974 . S
O29 C39 1.282 . S
C30 O31 1.261 . S
C30 O43 1.251 . S
O31 C30 1.261 . S
H32 C26 0.930 . S
H33 C28 0.930 . S
N34 Cu23 1.985 1_545 S
N34 C36 1.335 . S
N34 C37 1.390 . S
N35 C36 1.345 . S
N35 C38 1.336 . S
C36 N34 1.335 . S
C36 N35 1.345 . S
C36 H41 0.930 . S
C37 N34 1.390 . S
C37 C38 1.346 . S
C37 H42 0.930 . S
C38 N35 1.336 . S
C38 C37 1.346 . S
C38 H45 0.929 . S
C39 O29 1.282 . S
C39 O40 1.216 . S
O40 C39 1.216 . S
H41 C36 0.930 . S
H42 C37 0.930 . S
O43 Cu23 1.959 1_545 S
O43 C30 1.251 . S
H44 C27 0.930 . S
H45 C38 0.929 . S
Cu46 N47 1.999 . S
Cu46 O52 1.974 . S
Cu46 N57 1.985 1_556 S
Cu46 O66 1.959 1_556 S
N47 Cu46 1.999 . S
N47 C49 1.263 . S
N47 C51 1.389 . S
N48 C49 1.358 . S
N48 C50 1.400 . S
C49 N47 1.263 . S
C49 N48 1.358 . S
C49 H55 0.930 . S
C50 N48 1.400 . S
C50 C51 1.351 . S
C50 H67 0.930 . S
C51 N47 1.389 . S
C51 C50 1.351 . S
C51 H56 0.930 . S
O52 Cu46 1.974 . S
O52 C62 1.282 . S
C53 O54 1.261 . S
C53 O66 1.251 . S
O54 C53 1.261 . S
H55 C49 0.930 . S
H56 C51 0.930 . S
N57 Cu46 1.985 1_554 S
N57 C59 1.335 . S
N57 C60 1.390 . S
N58 C59 1.345 . S
N58 C61 1.336 . S
C59 N57 1.335 . S
C59 N58 1.345 . S
C59 H64 0.930 . S
C60 N57 1.390 . S
C60 C61 1.346 . S
C60 H65 0.930 . S
C61 N58 1.336 . S
C61 C60 1.346 . S
C61 H68 0.929 . S
C62 O52 1.282 . S
C62 O63 1.216 1_556 S
O63 C62 1.216 1_554 S
H64 C59 0.930 . S
H65 C60 0.930 . S
O66 Cu46 1.959 1_554 S
O66 C53 1.251 . S
H67 C50 0.930 . S
H68 C61 0.929 . S
Cu69 N70 1.999 . S
Cu69 O75 1.974 . S
Cu69 N80 1.985 . S
Cu69 O89 1.959 . S
N70 Cu69 1.999 . S
N70 C72 1.263 . S
N70 C74 1.389 . S
N71 C72 1.358 . S
N71 C73 1.400 . S
C72 N70 1.263 . S
C72 N71 1.358 . S
C72 H78 0.930 . S
C73 N71 1.400 . S
C73 C74 1.351 . S
C73 H90 0.930 . S
C74 N70 1.389 . S
C74 C73 1.351 . S
C74 H79 0.930 . S
O75 Cu69 1.974 . S
O75 C85 1.282 . S
C76 O77 1.261 . S
C76 O89 1.251 . S
O77 C76 1.261 . S
H78 C72 0.930 . S
H79 C74 0.930 . S
N80 Cu69 1.985 . S
N80 C82 1.335 . S
N80 C83 1.390 . S
N81 C82 1.345 . S
N81 C84 1.336 . S
C82 N80 1.335 . S
C82 N81 1.345 . S
C82 H87 0.930 . S
C83 N80 1.390 . S
C83 C84 1.346 . S
C83 H88 0.930 . S
C84 N81 1.336 . S
C84 C83 1.346 . S
C84 H91 0.929 . S
C85 O75 1.282 . S
C85 O86 1.216 . S
O86 C85 1.216 . S
H87 C82 0.930 . S
H88 C83 0.930 . S
O89 Cu69 1.959 . S
O89 C76 1.251 . S
H90 C73 0.930 . S
H91 C84 0.929 . S
Cu92 N93 1.999 . S
Cu92 O98 1.974 1_554 S
Cu92 N103 1.985 1_545 S
Cu92 O112 1.959 1_545 S
N93 Cu92 1.999 . S
N93 C95 1.263 1_554 S
N93 C97 1.389 . S
N94 C95 1.358 . S
N94 C96 1.400 1_556 S
C95 N93 1.263 1_556 S
C95 N94 1.358 . S
C95 H101 0.930 . S
C96 N94 1.400 1_554 S
C96 C97 1.351 . S
C96 H113 0.930 . S
C97 N93 1.389 . S
C97 C96 1.351 . S
C97 H102 0.930 . S
O98 Cu92 1.974 1_556 S
O98 C108 1.282 . S
C99 O100 1.268 . S
C99 O112 1.251 . S
O100 C99 1.268 . S
H101 C95 0.930 . S
H102 C97 0.930 . S
N103 Cu92 1.985 1_565 S
N103 C105 1.335 . S
N103 C106 1.390 . S
N104 C105 1.345 . S
N104 C107 1.336 . S
C105 N103 1.335 . S
C105 N104 1.345 . S
C105 H110 0.930 . S
C106 N103 1.390 . S
C106 C107 1.346 . S
C106 H111 0.930 1_564 S
C107 N104 1.336 . S
C107 C106 1.346 . S
C107 H114 0.929 . S
C108 O98 1.282 . S
C108 O109 1.216 . S
O109 C108 1.216 . S
H110 C105 0.930 . S
H111 C106 0.930 1_546 S
O112 Cu92 1.959 1_565 S
O112 C99 1.251 . S
H113 C96 0.930 . S
H114 C107 0.929 . S
Cu115 N116 1.999 . S
Cu115 O121 1.974 . S
Cu115 N126 1.985 . S
Cu115 O135 1.959 . S
N116 Cu115 1.999 . S
N116 C118 1.263 . S
N116 C120 1.389 . S
N117 C118 1.358 . S
N117 C119 1.400 . S
C118 N116 1.263 . S
C118 N117 1.358 . S
C118 H124 0.930 . S
C119 N117 1.400 . S
C119 C120 1.351 . S
C119 H136 0.930 . S
C120 N116 1.389 . S
C120 C119 1.351 . S
C120 H125 0.930 . S
O121 Cu115 1.974 . S
O121 C131 1.282 . S
C122 O123 1.261 . S
C122 O135 1.251 . S
O123 C122 1.261 . S
H124 C118 0.930 . S
H125 C120 0.930 . S
N126 Cu115 1.985 . S
N126 C128 1.335 . S
N126 C129 1.390 . S
N127 C128 1.345 . S
N127 C130 1.336 . S
C128 N126 1.335 . S
C128 N127 1.345 . S
C128 H133 0.930 . S
C129 N126 1.390 . S
C129 C130 1.346 . S
C129 H134 0.930 . S
C130 N127 1.336 . S
C130 C129 1.346 . S
C130 H137 0.929 . S
C131 O121 1.282 . S
C131 O132 1.216 . S
O132 C131 1.216 . S
H133 C128 0.930 . S
H134 C129 0.930 . S
O135 Cu115 1.959 . S
O135 C122 1.251 . S
H136 C119 0.930 . S
H137 C130 0.929 . S
H138 C165 0.929 . S
N139 C164 1.433 . S
N139 C170 1.435 . S
N139 C176 1.423 . S
H140 C166 0.930 . S
H141 C169 0.931 . S
H142 C168 0.929 . S
H143 C171 0.930 . S
H144 C172 0.932 . S
H145 C175 0.929 . S
H146 C174 0.931 . S
H147 C177 0.929 . S
H148 C181 0.932 . S
H149 C178 0.931 . S
H150 C180 0.929 . S
H151 C183 0.929 . S
H152 C184 0.930 . S
H153 C186 0.929 . S
H154 C187 0.931 . S
H155 C189 0.930 . S
H156 C190 0.932 . S
H157 C192 0.931 . S
H158 C193 0.929 . S
H159 C195 0.929 . S
H160 C196 0.931 . S
H161 C198 0.929 . S
N162 C182 1.433 . S
N162 C188 1.435 . S
N162 C194 1.423 . S
H163 C199 0.932 . S
C164 N139 1.433 . S
C164 C165 1.363 . S
C164 C169 1.370 . S
C165 H138 0.929 . S
C165 C164 1.363 . S
C165 C166 1.385 . S
C166 H140 0.930 . S
C166 C165 1.385 . S
C166 C167 1.357 . S
C167 C166 1.357 . S
C167 C168 1.406 . S
C168 H142 0.929 . S
C168 C167 1.406 . S
C168 C169 1.391 . S
C169 H141 0.931 . S
C169 C164 1.370 . S
C169 C168 1.391 . S
C170 N139 1.435 . S
C170 C171 1.358 . S
C170 C175 1.371 . S
C171 H143 0.930 . S
C171 C170 1.358 . S
C171 C172 1.405 . S
C172 H144 0.932 . S
C172 C171 1.405 . S
C172 C173 1.383 . S
C173 C172 1.383 . S
C173 C174 1.393 . S
C174 H146 0.931 . S
C174 C173 1.393 . S
C174 C175 1.382 . S
C175 H145 0.929 . S
C175 C170 1.371 . S
C175 C174 1.382 . S
C176 N139 1.423 . S
C176 C177 1.362 . S
C176 C181 1.388 . S
C177 H147 0.929 . S
C177 C176 1.362 . S
C177 C178 1.376 . S
C178 H149 0.931 . S
C178 C177 1.376 . S
C178 C179 1.396 . S
C179 C178 1.396 . S
C179 C180 1.348 . S
C179 C197 1.472 . S
C180 H150 0.929 . S
C180 C179 1.348 . S
C180 C181 1.443 . S
C181 H148 0.932 . S
C181 C176 1.388 . S
C181 C180 1.443 . S
C182 N162 1.433 . S
C182 C183 1.363 . S
C182 C187 1.370 . S
C183 H151 0.929 . S
C183 C182 1.363 . S
C183 C184 1.385 . S
C184 H152 0.930 . S
C184 C183 1.385 . S
C184 C185 1.357 . S
C185 C184 1.357 . S
C185 C186 1.406 . S
C186 H153 0.929 . S
C186 C185 1.406 . S
C186 C187 1.391 . S
C187 H154 0.931 . S
C187 C182 1.370 . S
C187 C186 1.391 . S
C188 N162 1.435 . S
C188 C189 1.358 . S
C188 C193 1.371 . S
C189 H155 0.930 . S
C189 C188 1.358 . S
C189 C190 1.405 . S
C190 H156 0.932 . S
C190 C189 1.405 . S
C190 C191 1.383 . S
C191 C190 1.383 . S
C191 C192 1.393 . S
C192 H157 0.931 . S
C192 C191 1.393 . S
C192 C193 1.382 . S
C193 H158 0.929 . S
C193 C188 1.371 . S
C193 C192 1.382 . S
C194 N162 1.423 . S
C194 C195 1.362 . S
C194 C199 1.388 . S
C195 H159 0.929 . S
C195 C194 1.362 . S
C195 C196 1.376 . S
C196 H160 0.931 . S
C196 C195 1.376 . S
C196 C197 1.396 . S
C197 C179 1.472 . S
C197 C196 1.396 . S
C197 C198 1.348 . S
C198 H161 0.929 . S
C198 C197 1.348 . S
C198 C199 1.443 . S
C199 H163 0.932 . S
C199 C194 1.388 . S
C199 C198 1.443 . S
H200 C227 0.929 . S
N201 C226 1.433 . S
N201 C232 1.435 . S
N201 C238 1.423 . S
H202 C228 0.930 . S
H203 C231 0.931 . S
H204 C230 0.929 . S
H205 C233 0.930 . S
H206 C234 0.932 . S
H207 C237 0.929 . S
H208 C236 0.931 . S
H209 C239 0.929 . S
H210 C243 0.932 . S
H211 C240 0.931 . S
H212 C242 0.929 . S
H213 C245 0.929 . S
H214 C246 0.930 . S
H215 C248 0.929 . S
H216 C249 0.931 . S
H217 C251 0.930 . S
H218 C252 0.932 . S
H219 C254 0.931 . S
H220 C255 0.929 . S
H221 C257 0.929 . S
H222 C258 0.931 . S
H223 C260 0.929 . S
N224 C244 1.433 . S
N224 C250 1.435 . S
N224 C256 1.423 . S
H225 C261 0.932 . S
C226 N201 1.433 . S
C226 C227 1.363 . S
C226 C231 1.370 . S
C227 H200 0.929 . S
C227 C226 1.363 . S
C227 C228 1.385 . S
C228 H202 0.930 . S
C228 C227 1.385 . S
C228 C229 1.357 . S
C229 C228 1.357 . S
C229 C230 1.406 . S
C230 H204 0.929 . S
C230 C229 1.406 . S
C230 C231 1.391 . S
C231 H203 0.931 . S
C231 C226 1.370 . S
C231 C230 1.391 . S
C232 N201 1.435 . S
C232 C233 1.358 . S
C232 C237 1.371 . S
C233 H205 0.930 . S
C233 C232 1.358 . S
C233 C234 1.405 . S
C234 H206 0.932 . S
C234 C233 1.405 . S
C234 C235 1.383 . S
C235 C234 1.383 . S
C235 C236 1.393 . S
C236 H208 0.931 . S
C236 C235 1.393 . S
C236 C237 1.382 . S
C237 H207 0.929 . S
C237 C232 1.371 . S
C237 C236 1.382 . S
C238 N201 1.423 . S
C238 C239 1.362 . S
C238 C243 1.388 . S
C239 H209 0.929 . S
C239 C238 1.362 . S
C239 C240 1.376 . S
C240 H211 0.931 . S
C240 C239 1.376 . S
C240 C241 1.396 . S
C241 C240 1.396 . S
C241 C242 1.348 . S
C241 C259 1.472 . S
C242 H212 0.929 . S
C242 C241 1.348 . S
C242 C243 1.443 . S
C243 H210 0.932 . S
C243 C238 1.388 . S
C243 C242 1.443 . S
C244 N224 1.433 . S
C244 C245 1.363 . S
C244 C249 1.370 . S
C245 H213 0.929 . S
C245 C244 1.363 . S
C245 C246 1.385 . S
C246 H214 0.930 . S
C246 C245 1.385 . S
C246 C247 1.357 . S
C247 C246 1.357 . S
C247 C248 1.406 . S
C248 H215 0.929 . S
C248 C247 1.406 . S
C248 C249 1.391 . S
C249 H216 0.931 . S
C249 C244 1.370 . S
C249 C248 1.391 . S
C250 N224 1.435 . S
C250 C251 1.358 . S
C250 C255 1.371 . S
C251 H217 0.930 . S
C251 C250 1.358 . S
C251 C252 1.405 . S
C252 H218 0.932 . S
C252 C251 1.405 . S
C252 C253 1.383 . S
C253 C252 1.383 . S
C253 C254 1.393 . S
C254 H219 0.931 . S
C254 C253 1.393 . S
C254 C255 1.382 . S
C255 H220 0.929 . S
C255 C250 1.371 . S
C255 C254 1.382 . S
C256 N224 1.423 . S
C256 C257 1.362 . S
C256 C261 1.388 . S
C257 H221 0.929 . S
C257 C256 1.362 . S
C257 C258 1.376 . S
C258 H222 0.931 . S
C258 C257 1.376 . S
C258 C259 1.396 . S
C259 C241 1.472 . S
C259 C258 1.396 . S
C259 C260 1.348 . S
C260 H223 0.929 . S
C260 C259 1.348 . S
C260 C261 1.443 . S
C261 H225 0.932 . S
C261 C256 1.388 . S
C261 C260 1.443 . S
H262 C289 0.929 . S
N263 C288 1.433 . S
N263 C294 1.435 . S
N263 C300 1.423 . S
H264 C290 0.930 . S
H265 C293 0.931 . S
H266 C292 0.929 . S
H267 C295 0.930 . S
H268 C296 0.932 . S
H269 C299 0.929 . S
H270 C298 0.931 . S
H271 C301 0.929 . S
H272 C305 0.932 . S
H273 C302 0.931 . S
H274 C304 0.929 . S
H275 C307 0.929 . S
H276 C308 0.930 . S
H277 C310 0.929 . S
H278 C311 0.931 . S
H279 C313 0.930 . S
H280 C314 0.932 . S
H281 C316 0.931 . S
H282 C317 0.929 . S
H283 C319 0.929 . S
H284 C320 0.931 . S
H285 C322 0.929 . S
N286 C306 1.433 . S
N286 C312 1.435 . S
N286 C318 1.423 . S
H287 C323 0.932 . S
C288 N263 1.433 . S
C288 C289 1.363 . S
C288 C293 1.370 . S
C289 H262 0.929 . S
C289 C288 1.363 . S
C289 C290 1.385 . S
C290 H264 0.930 . S
C290 C289 1.385 . S
C290 C291 1.357 . S
C291 C290 1.357 . S
C291 C292 1.406 . S
C292 H266 0.929 . S
C292 C291 1.406 . S
C292 C293 1.391 . S
C293 H265 0.931 . S
C293 C288 1.370 . S
C293 C292 1.391 . S
C294 N263 1.435 . S
C294 C295 1.358 . S
C294 C299 1.371 . S
C295 H267 0.930 . S
C295 C294 1.358 . S
C295 C296 1.405 . S
C296 H268 0.932 . S
C296 C295 1.405 . S
C296 C297 1.383 . S
C297 C296 1.383 . S
C297 C298 1.393 . S
C298 H270 0.931 . S
C298 C297 1.393 . S
C298 C299 1.382 . S
C299 H269 0.929 . S
C299 C294 1.371 . S
C299 C298 1.382 . S
C300 N263 1.423 . S
C300 C301 1.362 . S
C300 C305 1.388 . S
C301 H271 0.929 . S
C301 C300 1.362 . S
C301 C302 1.376 . S
C302 H273 0.931 . S
C302 C301 1.376 . S
C302 C303 1.396 . S
C303 C302 1.396 . S
C303 C304 1.348 . S
C303 C321 1.472 . S
C304 H274 0.929 . S
C304 C303 1.348 . S
C304 C305 1.443 . S
C305 H272 0.932 . S
C305 C300 1.388 . S
C305 C304 1.443 . S
C306 N286 1.433 . S
C306 C307 1.363 . S
C306 C311 1.370 . S
C307 H275 0.929 . S
C307 C306 1.363 . S
C307 C308 1.385 . S
C308 H276 0.930 . S
C308 C307 1.385 . S
C308 C309 1.357 . S
C309 C308 1.357 . S
C309 C310 1.406 . S
C310 H277 0.929 . S
C310 C309 1.406 . S
C310 C311 1.391 . S
C311 H278 0.931 . S
C311 C306 1.370 . S
C311 C310 1.391 . S
C312 N286 1.435 . S
C312 C313 1.358 . S
C312 C317 1.371 . S
C313 H279 0.930 . S
C313 C312 1.358 . S
C313 C314 1.405 . S
C314 H280 0.932 . S
C314 C313 1.405 . S
C314 C315 1.383 . S
C315 C314 1.383 . S
C315 C316 1.393 . S
C316 H281 0.931 . S
C316 C315 1.393 . S
C316 C317 1.382 . S
C317 H282 0.929 . S
C317 C312 1.371 . S
C317 C316 1.382 . S
C318 N286 1.423 . S
C318 C319 1.362 . S
C318 C323 1.388 . S
C319 H283 0.929 . S
C319 C318 1.362 . S
C319 C320 1.376 . S
C320 H284 0.931 . S
C320 C319 1.376 . S
C320 C321 1.396 . S
C321 C303 1.472 . S
C321 C320 1.396 . S
C321 C322 1.348 . S
C322 H285 0.929 . S
C322 C321 1.348 . S
C322 C323 1.443 . S
C323 H287 0.932 . S
C323 C318 1.388 . S
C323 C322 1.443 . S
H324 C351 0.929 . S
N325 C350 1.433 . S
N325 C356 1.435 . S
N325 C362 1.423 . S
H326 C352 0.930 . S
H327 C355 0.931 . S
H328 C354 0.929 . S
H329 C357 0.930 . S
H330 C358 0.932 . S
H331 C361 0.929 . S
H332 C360 0.931 . S
H333 C363 0.929 . S
H334 C367 0.932 . S
H335 C364 0.931 . S
H336 C366 0.929 . S
H337 C369 0.929 . S
H338 C370 0.930 . S
H339 C372 0.929 . S
H340 C373 0.931 . S
H341 C375 0.930 . S
H342 C376 0.932 . S
H343 C378 0.931 . S
H344 C379 0.929 . S
H345 C381 0.929 . S
H346 C382 0.931 . S
H347 C384 0.929 . S
N348 C368 1.433 . S
N348 C374 1.435 . S
N348 C380 1.423 . S
H349 C385 0.932 . S
C350 N325 1.433 . S
C350 C351 1.363 . S
C350 C355 1.370 . S
C351 H324 0.929 . S
C351 C350 1.363 . S
C351 C352 1.385 . S
C352 H326 0.930 . S
C352 C351 1.385 . S
C352 C353 1.357 . S
C353 C352 1.357 . S
C353 C354 1.406 . S
C354 H328 0.929 . S
C354 C353 1.406 . S
C354 C355 1.391 . S
C355 H327 0.931 . S
C355 C350 1.370 . S
C355 C354 1.391 . S
C356 N325 1.435 . S
C356 C357 1.358 . S
C356 C361 1.371 . S
C357 H329 0.930 . S
C357 C356 1.358 . S
C357 C358 1.405 . S
C358 H330 0.932 . S
C358 C357 1.405 . S
C358 C359 1.383 . S
C359 C358 1.383 . S
C359 C360 1.393 . S
C360 H332 0.931 . S
C360 C359 1.393 . S
C360 C361 1.382 . S
C361 H331 0.929 . S
C361 C356 1.371 . S
C361 C360 1.382 . S
C362 N325 1.423 . S
C362 C363 1.362 . S
C362 C367 1.388 . S
C363 H333 0.929 . S
C363 C362 1.362 . S
C363 C364 1.376 . S
C364 H335 0.931 . S
C364 C363 1.376 . S
C364 C365 1.396 . S
C365 C364 1.396 . S
C365 C366 1.348 . S
C365 C383 1.472 . S
C366 H336 0.929 . S
C366 C365 1.348 . S
C366 C367 1.443 . S
C367 H334 0.932 . S
C367 C362 1.388 . S
C367 C366 1.443 . S
C368 N348 1.433 . S
C368 C369 1.363 . S
C368 C373 1.370 . S
C369 H337 0.929 . S
C369 C368 1.363 . S
C369 C370 1.385 . S
C370 H338 0.930 . S
C370 C369 1.385 . S
C370 C371 1.357 . S
C371 C370 1.357 . S
C371 C372 1.406 . S
C372 H339 0.929 . S
C372 C371 1.406 . S
C372 C373 1.391 . S
C373 H340 0.931 . S
C373 C368 1.370 . S
C373 C372 1.391 . S
C374 N348 1.435 . S
C374 C375 1.358 . S
C374 C379 1.371 . S
C375 H341 0.930 . S
C375 C374 1.358 . S
C375 C376 1.405 . S
C376 H342 0.932 . S
C376 C375 1.405 . S
C376 C377 1.383 . S
C377 C376 1.383 . S
C377 C378 1.393 . S
C378 H343 0.931 . S
C378 C377 1.393 . S
C378 C379 1.382 . S
C379 H344 0.929 . S
C379 C374 1.371 . S
C379 C378 1.382 . S
C380 N348 1.423 . S
C380 C381 1.362 . S
C380 C385 1.388 . S
C381 H345 0.929 . S
C381 C380 1.362 . S
C381 C382 1.376 . S
C382 H346 0.931 . S
C382 C381 1.376 . S
C382 C383 1.396 . S
C383 C365 1.472 . S
C383 C382 1.396 . S
C383 C384 1.348 . S
C384 H347 0.929 . S
C384 C383 1.348 . S
C384 C385 1.443 . S
C385 H349 0.932 . S
C385 C380 1.388 . S
C385 C384 1.443 . S
H386 C413 0.929 . S
N387 C412 1.433 . S
N387 C418 1.435 . S
N387 C424 1.423 . S
H388 C414 0.930 . S
H389 C417 0.931 . S
H390 C416 0.929 . S
H391 C419 0.930 . S
H392 C420 0.932 . S
H393 C423 0.929 . S
H394 C422 0.931 . S
H395 C425 0.929 . S
H396 C429 0.932 . S
H397 C426 0.931 . S
H398 C428 0.929 . S
H399 C431 0.929 . S
H400 C432 0.930 . S
H401 C434 0.929 . S
H402 C435 0.931 . S
H403 C437 0.930 . S
H404 C438 0.932 . S
H405 C440 0.931 . S
H406 C441 0.929 . S
H407 C443 0.929 . S
H408 C444 0.931 . S
H409 C446 0.929 . S
N410 C430 1.433 . S
N410 C436 1.435 . S
N410 C442 1.423 . S
H411 C447 0.932 . S
C412 N387 1.433 . S
C412 C413 1.363 . S
C412 C417 1.370 . S
C413 H386 0.929 . S
C413 C412 1.363 . S
C413 C414 1.385 . S
C414 H388 0.930 . S
C414 C413 1.385 . S
C414 C415 1.357 . S
C415 C414 1.357 . S
C415 C416 1.406 . S
C416 H390 0.929 . S
C416 C415 1.406 . S
C416 C417 1.391 . S
C417 H389 0.931 . S
C417 C412 1.370 . S
C417 C416 1.391 . S
C418 N387 1.435 . S
C418 C419 1.358 . S
C418 C423 1.371 . S
C419 H391 0.930 . S
C419 C418 1.358 . S
C419 C420 1.405 . S
C420 H392 0.932 . S
C420 C419 1.405 . S
C420 C421 1.383 . S
C421 C420 1.383 . S
C421 C422 1.393 . S
C422 H394 0.931 . S
C422 C421 1.393 . S
C422 C423 1.382 . S
C423 H393 0.929 . S
C423 C418 1.371 . S
C423 C422 1.382 . S
C424 N387 1.423 . S
C424 C425 1.362 . S
C424 C429 1.388 . S
C425 H395 0.929 . S
C425 C424 1.362 . S
C425 C426 1.376 . S
C426 H397 0.931 . S
C426 C425 1.376 . S
C426 C427 1.396 . S
C427 C426 1.396 . S
C427 C428 1.348 . S
C427 C445 1.472 . S
C428 H398 0.929 . S
C428 C427 1.348 . S
C428 C429 1.443 . S
C429 H396 0.932 . S
C429 C424 1.388 . S
C429 C428 1.443 . S
C430 N410 1.433 . S
C430 C431 1.363 . S
C430 C435 1.370 . S
C431 H399 0.929 . S
C431 C430 1.363 . S
C431 C432 1.385 . S
C432 H400 0.930 . S
C432 C431 1.385 . S
C432 C433 1.357 . S
C433 C432 1.357 . S
C433 C434 1.406 . S
C434 H401 0.929 . S
C434 C433 1.406 . S
C434 C435 1.391 . S
C435 H402 0.931 . S
C435 C430 1.370 . S
C435 C434 1.391 . S
C436 N410 1.435 . S
C436 C437 1.358 . S
C436 C441 1.371 . S
C437 H403 0.930 . S
C437 C436 1.358 . S
C437 C438 1.405 . S
C438 H404 0.932 . S
C438 C437 1.405 . S
C438 C439 1.383 . S
C439 C438 1.383 . S
C439 C440 1.393 . S
C440 H405 0.931 . S
C440 C439 1.393 . S
C440 C441 1.382 . S
C441 H406 0.929 . S
C441 C436 1.371 . S
C441 C440 1.382 . S
C442 N410 1.423 . S
C442 C443 1.362 . S
C442 C447 1.388 . S
C443 H407 0.929 . S
C443 C442 1.362 . S
C443 C444 1.376 . S
C444 H408 0.931 . S
C444 C443 1.376 . S
C444 C445 1.396 . S
C445 C427 1.472 . S
C445 C444 1.396 . S
C445 C446 1.348 . S
C446 H409 0.929 . S
C446 C445 1.348 . S
C446 C447 1.443 . S
C447 H411 0.932 . S
C447 C442 1.388 . S
C447 C446 1.443 . S
H448 C475 0.929 . S
N449 C474 1.433 . S
N449 C480 1.435 . S
N449 C486 1.423 . S
H450 C476 0.930 . S
H451 C479 0.931 . S
H452 C478 0.929 . S
H453 C481 0.930 . S
H454 C482 0.932 . S
H455 C485 0.929 . S
H456 C484 0.931 . S
H457 C487 0.929 . S
H458 C491 0.932 . S
H459 C488 0.931 . S
H460 C490 0.929 . S
H461 C493 0.929 . S
H462 C494 0.930 . S
H463 C496 0.929 . S
H464 C497 0.931 . S
H465 C499 0.930 . S
H466 C500 0.932 . S
H467 C502 0.931 . S
H468 C503 0.929 . S
H469 C505 0.929 . S
H470 C506 0.931 . S
H471 C508 0.929 . S
N472 C492 1.433 . S
N472 C498 1.435 . S
N472 C504 1.423 . S
H473 C509 0.932 . S
C474 N449 1.433 . S
C474 C475 1.363 . S
C474 C479 1.370 . S
C475 H448 0.929 . S
C475 C474 1.363 . S
C475 C476 1.385 . S
C476 H450 0.930 . S
C476 C475 1.385 . S
C476 C477 1.357 . S
C477 C476 1.357 . S
C477 C478 1.406 . S
C478 H452 0.929 . S
C478 C477 1.406 . S
C478 C479 1.391 . S
C479 H451 0.931 . S
C479 C474 1.370 . S
C479 C478 1.391 . S
C480 N449 1.435 . S
C480 C481 1.358 . S
C480 C485 1.371 . S
C481 H453 0.930 . S
C481 C480 1.358 . S
C481 C482 1.405 . S
C482 H454 0.932 . S
C482 C481 1.405 . S
C482 C483 1.383 . S
C483 C482 1.383 . S
C483 C484 1.393 . S
C484 H456 0.931 . S
C484 C483 1.393 . S
C484 C485 1.382 . S
C485 H455 0.929 . S
C485 C480 1.371 . S
C485 C484 1.382 . S
C486 N449 1.423 . S
C486 C487 1.362 . S
C486 C491 1.388 . S
C487 H457 0.929 . S
C487 C486 1.362 . S
C487 C488 1.376 . S
C488 H459 0.931 . S
C488 C487 1.376 . S
C488 C489 1.396 . S
C489 C488 1.396 . S
C489 C490 1.348 . S
C489 C507 1.472 . S
C490 H460 0.929 . S
C490 C489 1.348 . S
C490 C491 1.443 . S
C491 H458 0.932 . S
C491 C486 1.388 . S
C491 C490 1.443 . S
C492 N472 1.433 . S
C492 C493 1.363 . S
C492 C497 1.370 . S
C493 H461 0.929 . S
C493 C492 1.363 . S
C493 C494 1.385 . S
C494 H462 0.930 . S
C494 C493 1.385 . S
C494 C495 1.357 . S
C495 C494 1.357 . S
C495 C496 1.406 . S
C496 H463 0.929 . S
C496 C495 1.406 . S
C496 C497 1.391 . S
C497 H464 0.931 . S
C497 C492 1.370 . S
C497 C496 1.391 . S
C498 N472 1.435 . S
C498 C499 1.358 . S
C498 C503 1.371 . S
C499 H465 0.930 . S
C499 C498 1.358 . S
C499 C500 1.405 . S
C500 H466 0.932 . S
C500 C499 1.405 . S
C500 C501 1.383 . S
C501 C500 1.383 . S
C501 C502 1.393 . S
C502 H467 0.931 . S
C502 C501 1.393 . S
C502 C503 1.382 . S
C503 H468 0.929 . S
C503 C498 1.371 . S
C503 C502 1.382 . S
C504 N472 1.423 . S
C504 C505 1.362 . S
C504 C509 1.388 . S
C505 H469 0.929 . S
C505 C504 1.362 . S
C505 C506 1.376 . S
C506 H470 0.931 . S
C506 C505 1.376 . S
C506 C507 1.396 . S
C507 C489 1.472 . S
C507 C506 1.396 . S
C507 C508 1.348 . S
C508 H471 0.929 . S
C508 C507 1.348 . S
C508 C509 1.443 . S
C509 H473 0.932 . S
C509 C504 1.388 . S
C509 C508 1.443 . S
H510 C516 0.930 . S
H511 C520 0.930 . S
H512 C525 0.929 . S
H513 C523 0.929 . S
H514 C518 0.929 . S
H515 C524 0.929 . S
C516 H510 0.930 . S
C516 C517 1.367 . S
C516 C524 1.378 . S
C517 C516 1.367 . S
C517 C525 1.433 . S
C518 H514 0.929 . S
C518 C520 1.378 . S
C518 C522 1.350 . S
C519 C522 1.463 . S
C519 C524 1.350 . S
C519 N527 1.427 . S
C520 H511 0.930 . S
C520 C518 1.378 . S
C520 C521 1.367 . S
C521 C520 1.367 . S
C521 C523 1.433 . S
C522 C518 1.350 . S
C522 C519 1.463 . S
C522 N526 1.427 . S
C523 H513 0.929 . S
C523 C521 1.433 . S
C523 N526 1.384 . S
C524 H515 0.929 . S
C524 C516 1.378 . S
C524 C519 1.350 . S
C525 H512 0.929 . S
C525 C517 1.433 . S
C525 N527 1.384 . S
N526 C522 1.427 . S
N526 C523 1.384 . S
N527 C519 1.427 . S
N527 C525 1.384 . S
H528 C534 0.930 . S
H529 C538 0.930 . S
H530 C543 0.929 . S
H531 C541 0.929 . S
H532 C536 0.929 . S
H533 C542 0.929 . S
C534 H528 0.930 . S
C534 C535 1.367 . S
C534 C542 1.378 . S
C535 C534 1.367 . S
C535 C543 1.433 . S
C536 H532 0.929 . S
C536 C538 1.378 . S
C536 C540 1.350 . S
C537 C540 1.463 . S
C537 C542 1.350 . S
C537 N545 1.427 . S
C538 H529 0.930 . S
C538 C536 1.378 . S
C538 C539 1.367 . S
C539 C538 1.367 . S
C539 C541 1.433 . S
C540 C536 1.350 . S
C540 C537 1.463 . S
C540 N544 1.427 . S
C541 H531 0.929 . S
C541 C539 1.433 . S
C541 N544 1.384 . S
C542 H533 0.929 . S
C542 C534 1.378 . S
C542 C537 1.350 . S
C543 H530 0.929 . S
C543 C535 1.433 . S
C543 N545 1.384 . S
N544 C540 1.427 . S
N544 C541 1.384 . S
N545 C537 1.427 . S
N545 C543 1.384 . S
H546 C552 0.930 . S
H547 C556 0.930 . S
H548 C561 0.929 . S
H549 C559 0.929 . S
H550 C554 0.929 . S
H551 C560 0.929 . S
C552 H546 0.930 . S
C552 C553 1.367 . S
C552 C560 1.378 . S
C553 C552 1.367 . S
C553 C561 1.433 . S
C554 H550 0.929 . S
C554 C556 1.378 . S
C554 C558 1.350 . S
C555 C558 1.463 . S
C555 C560 1.350 . S
C555 N563 1.427 . S
C556 H547 0.930 . S
C556 C554 1.378 . S
C556 C557 1.367 . S
C557 C556 1.367 . S
C557 C559 1.433 . S
C558 C554 1.350 . S
C558 C555 1.463 . S
C558 N562 1.427 . S
C559 H549 0.929 . S
C559 C557 1.433 . S
C559 N562 1.384 . S
C560 H551 0.929 . S
C560 C552 1.378 . S
C560 C555 1.350 . S
C561 H548 0.929 . S
C561 C553 1.433 . S
C561 N563 1.384 . S
N562 C558 1.427 . S
N562 C559 1.384 . S
N563 C555 1.427 . S
N563 C561 1.384 . S
H564 C570 0.930 1_455 S
H565 C574 0.930 . S
H566 C579 0.929 . S
H567 C577 0.929 . S
H568 C572 0.929 . S
H569 C578 0.929 . S
C570 H564 0.930 1_655 S
C570 C571 1.367 . S
C570 C578 1.378 . S
C571 C570 1.367 . S
C571 C579 1.433 . S
C572 H568 0.929 . S
C572 C574 1.378 . S
C572 C576 1.350 . S
C573 C576 1.463 . S
C573 C578 1.350 . S
C573 N581 1.427 . S
C574 H565 0.930 . S
C574 C572 1.378 . S
C574 C575 1.367 . S
C575 C574 1.367 . S
C575 C577 1.433 . S
C576 C572 1.350 . S
C576 C573 1.463 . S
C576 N580 1.427 . S
C577 H567 0.929 . S
C577 C575 1.433 . S
C577 N580 1.384 . S
C578 H569 0.929 . S
C578 C570 1.378 . S
C578 C573 1.350 . S
C579 H566 0.929 . S
C579 C571 1.433 . S
C579 N581 1.384 . S
N580 C576 1.427 . S
N580 C577 1.384 . S
N581 C573 1.427 . S
N581 C579 1.384 . S
H582 C588 0.930 . S
H583 C592 0.930 . S
H584 C597 0.929 . S
H585 C595 0.929 . S
H586 C590 0.929 . S
H587 C596 0.929 . S
C588 H582 0.930 . S
C588 C589 1.367 . S
C588 C596 1.378 . S
C589 C588 1.367 . S
C589 C597 1.433 . S
C590 H586 0.929 . S
C590 C592 1.378 . S
C590 C594 1.350 . S
C591 C594 1.463 . S
C591 C596 1.350 . S
C591 N599 1.427 . S
C592 H583 0.930 . S
C592 C590 1.378 . S
C592 C593 1.367 . S
C593 C592 1.367 . S
C593 C595 1.433 . S
C594 C590 1.350 . S
C594 C591 1.463 . S
C594 N598 1.427 . S
C595 H585 0.929 . S
C595 C593 1.433 . S
C595 N598 1.384 . S
C596 H587 0.929 . S
C596 C588 1.378 . S
C596 C591 1.350 . S
C597 H584 0.929 . S
C597 C589 1.433 . S
C597 N599 1.384 . S
N598 C594 1.427 . S
N598 C595 1.384 . S
N599 C591 1.427 . S
N599 C597 1.384 . S
H600 C606 0.930 . S
H601 C610 0.930 . S
H602 C615 0.929 . S
H603 C613 0.929 . S
H604 C608 0.929 . S
H605 C614 0.929 . S
C606 H600 0.930 . S
C606 C607 1.367 . S
C606 C614 1.378 . S
C607 C606 1.367 . S
C607 C615 1.433 . S
C608 H604 0.929 . S
C608 C610 1.378 . S
C608 C612 1.350 . S
C609 C612 1.463 . S
C609 C614 1.350 . S
C609 N617 1.427 . S
C610 H601 0.930 . S
C610 C608 1.378 . S
C610 C611 1.367 . S
C611 C610 1.367 . S
C611 C613 1.433 . S
C612 C608 1.350 . S
C612 C609 1.463 . S
C612 N616 1.427 . S
C613 H603 0.929 . S
C613 C611 1.433 . S
C613 N616 1.384 . S
C614 H605 0.929 . S
C614 C606 1.378 . S
C614 C609 1.350 . S
C615 H602 0.929 . S
C615 C607 1.433 . S
C615 N617 1.384 . S
N616 C612 1.427 . S
N616 C613 1.384 . S
N617 C609 1.427 . S
N617 C615 1.384 . S
H618 C624 0.930 . S
H619 C628 0.930 . S
H620 C633 0.929 . S
H621 C631 0.929 . S
H622 C626 0.929 . S
H623 C632 0.929 . S
C624 H618 0.930 . S
C624 C625 1.367 . S
C624 C632 1.378 . S
C625 C624 1.367 . S
C625 C633 1.433 . S
C626 H622 0.929 . S
C626 C628 1.378 . S
C626 C630 1.350 . S
C627 C630 1.463 . S
C627 C632 1.350 . S
C627 N635 1.427 . S
C628 H619 0.930 . S
C628 C626 1.378 . S
C628 C629 1.367 . S
C629 C628 1.367 . S
C629 C631 1.433 . S
C630 C626 1.350 . S
C630 C627 1.463 . S
C630 N634 1.427 . S
C631 H621 0.929 . S
C631 C629 1.433 . S
C631 N634 1.384 . S
C632 H623 0.929 . S
C632 C624 1.378 . S
C632 C627 1.350 . S
C633 H620 0.929 . S
C633 C625 1.433 . S
C633 N635 1.384 . S
N634 C630 1.427 . S
N634 C631 1.384 . S
N635 C627 1.427 . S
N635 C633 1.384 . S
H636 C642 0.930 . S
H637 C646 0.930 . S
H638 C651 0.929 . S
H639 C649 0.929 . S
H640 C644 0.929 . S
H641 C650 0.929 . S
C642 H636 0.930 . S
C642 C643 1.367 . S
C642 C650 1.378 . S
C643 C642 1.367 . S
C643 C651 1.433 . S
C644 H640 0.929 . S
C644 C646 1.378 . S
C644 C648 1.350 . S
C645 C648 1.463 . S
C645 C650 1.350 . S
C645 N653 1.427 . S
C646 H637 0.930 . S
C646 C644 1.378 . S
C646 C647 1.367 . S
C647 C646 1.367 . S
C647 C649 1.433 . S
C648 C644 1.350 . S
C648 C645 1.463 . S
C648 N652 1.427 . S
C649 H639 0.929 . S
C649 C647 1.433 . S
C649 N652 1.384 . S
C650 H641 0.929 . S
C650 C642 1.378 . S
C650 C645 1.350 . S
C651 H638 0.929 . S
C651 C643 1.433 . S
C651 N653 1.384 . S
N652 C648 1.427 . S
N652 C649 1.384 . S
N653 C645 1.427 . S
N653 C651 1.384 . S
H654 C660 0.930 . S
H655 C664 0.930 . S
H656 C669 0.929 . S
H657 C667 0.929 . S
H658 C662 0.929 . S
H659 C668 0.929 . S
C660 H654 0.930 . S
C660 C661 1.367 . S
C660 C668 1.378 . S
C661 C660 1.367 . S
C661 C669 1.433 . S
C662 H658 0.929 . S
C662 C664 1.378 . S
C662 C666 1.350 . S
C663 C666 1.463 . S
C663 C668 1.350 . S
C663 N671 1.427 . S
C664 H655 0.930 . S
C664 C662 1.378 . S
C664 C665 1.367 . S
C665 C664 1.367 . S
C665 C667 1.433 . S
C666 C662 1.350 . S
C666 C663 1.463 . S
C666 N670 1.427 . S
C667 H657 0.929 . S
C667 C665 1.433 . S
C667 N670 1.384 . S
C668 H659 0.929 . S
C668 C660 1.378 . S
C668 C663 1.350 . S
C669 H656 0.929 . S
C669 C661 1.433 . S
C669 N671 1.384 . S
N670 C666 1.427 . S
N670 C667 1.384 . S
N671 C663 1.427 . S
N671 C669 1.384 . S
H672 C678 0.930 . S
H673 C682 0.930 . S
H674 C687 0.929 . S
H675 C685 0.929 . S
H676 C680 0.929 . S
H677 C686 0.929 . S
C678 H672 0.930 . S
C678 C679 1.367 . S
C678 C686 1.378 . S
C679 C678 1.367 . S
C679 C687 1.433 . S
C680 H676 0.929 . S
C680 C682 1.378 . S
C680 C684 1.350 . S
C681 C684 1.463 . S
C681 C686 1.350 . S
C681 N689 1.427 . S
C682 H673 0.930 . S
C682 C680 1.378 . S
C682 C683 1.367 . S
C683 C682 1.367 . S
C683 C685 1.433 . S
C684 C680 1.350 . S
C684 C681 1.463 . S
C684 N688 1.427 . S
C685 H675 0.929 . S
C685 C683 1.433 . S
C685 N688 1.384 . S
C686 H677 0.929 . S
C686 C678 1.378 . S
C686 C681 1.350 . S
C687 H674 0.929 . S
C687 C679 1.433 . S
C687 N689 1.384 . S
N688 C684 1.427 . S
N688 C685 1.384 . S
N689 C681 1.427 . S
N689 C687 1.384 . S
H690 C696 0.930 . S
H691 C700 0.930 . S
H692 C705 0.929 . S
H693 C703 0.929 . S
H694 C698 0.929 . S
H695 C704 0.929 . S
C696 H690 0.930 . S
C696 C697 1.367 . S
C696 C704 1.378 . S
C697 C696 1.367 . S
C697 C705 1.433 . S
C698 H694 0.929 . S
C698 C700 1.378 . S
C698 C702 1.350 . S
C699 C702 1.463 . S
C699 C704 1.350 . S
C699 N707 1.427 . S
C700 H691 0.930 . S
C700 C698 1.378 . S
C700 C701 1.367 . S
C701 C700 1.367 . S
C701 C703 1.433 . S
C702 C698 1.350 . S
C702 C699 1.463 . S
C702 N706 1.427 . S
C703 H693 0.929 . S
C703 C701 1.433 . S
C703 N706 1.384 . S
C704 H695 0.929 . S
C704 C696 1.378 . S
C704 C699 1.350 . S
C705 H692 0.929 . S
C705 C697 1.433 . S
C705 N707 1.384 . S
N706 C702 1.427 . S
N706 C703 1.384 . S
N707 C699 1.427 . S
N707 C705 1.384 . S
H708 C714 0.930 . S
H709 C718 0.930 . S
H710 C723 0.929 . S
H711 C721 0.929 . S
H712 C716 0.929 . S
H713 C722 0.929 . S
C714 H708 0.930 . S
C714 C715 1.367 . S
C714 C722 1.378 . S
C715 C714 1.367 . S
C715 C723 1.433 . S
C716 H712 0.929 . S
C716 C718 1.378 . S
C716 C720 1.350 . S
C717 C720 1.463 . S
C717 C722 1.350 . S
C717 N725 1.427 . S
C718 H709 0.930 . S
C718 C716 1.378 . S
C718 C719 1.367 . S
C719 C718 1.367 . S
C719 C721 1.433 . S
C720 C716 1.350 . S
C720 C717 1.463 . S
C720 N724 1.427 . S
C721 H711 0.929 . S
C721 C719 1.433 . S
C721 N724 1.384 . S
C722 H713 0.929 . S
C722 C714 1.378 . S
C722 C717 1.350 . S
C723 H710 0.929 . S
C723 C715 1.433 . S
C723 N725 1.384 . S
N724 C720 1.427 . S
N724 C721 1.384 . S
N725 C717 1.427 . S
N725 C723 1.384 . S
H726 C732 0.930 1_554 S
H727 C736 0.930 . S
H728 C741 0.929 . S
H729 C739 0.929 . S
H730 C734 0.929 . S
H731 C740 0.929 . S
C732 H726 0.930 1_556 S
C732 C733 1.367 . S
C732 C740 1.378 . S
C733 C732 1.367 . S
C733 C741 1.433 . S
C734 H730 0.929 . S
C734 C736 1.378 . S
C734 C738 1.350 . S
C735 C738 1.463 . S
C735 C740 1.350 . S
C735 N743 1.427 . S
C736 H727 0.930 . S
C736 C734 1.378 . S
C736 C737 1.367 . S
C737 C736 1.367 . S
C737 C739 1.433 . S
C738 C734 1.350 . S
C738 C735 1.463 . S
C738 N742 1.427 . S
C739 H729 0.929 . S
C739 C737 1.433 . S
C739 N742 1.384 . S
C740 H731 0.929 . S
C740 C732 1.378 . S
C740 C735 1.350 . S
C741 H728 0.929 . S
C741 C733 1.433 . S
C741 N743 1.384 . S
N742 C738 1.427 . S
N742 C739 1.384 . S
N743 C735 1.427 . S
N743 C741 1.384 . S
H744 C750 0.930 . S
H745 C754 0.930 . S
H746 C759 0.929 . S
H747 C757 0.929 . S
H748 C752 0.929 . S
H749 C758 0.929 . S
C750 H744 0.930 . S
C750 C751 1.367 . S
C750 C758 1.378 . S
C751 C750 1.367 . S
C751 C759 1.433 . S
C752 H748 0.929 . S
C752 C754 1.378 . S
C752 C756 1.350 . S
C753 C756 1.463 . S
C753 C758 1.350 . S
C753 N761 1.427 . S
C754 H745 0.930 . S
C754 C752 1.378 . S
C754 C755 1.367 . S
C755 C754 1.367 . S
C755 C757 1.433 . S
C756 C752 1.350 . S
C756 C753 1.463 . S
C756 N760 1.427 . S
C757 H747 0.929 . S
C757 C755 1.433 . S
C757 N760 1.384 . S
C758 H749 0.929 . S
C758 C750 1.378 . S
C758 C753 1.350 . S
C759 H746 0.929 . S
C759 C751 1.433 . S
C759 N761 1.384 . S
N760 C756 1.427 . S
N760 C757 1.384 . S
N761 C753 1.427 . S
N761 C759 1.384 . S
H762 C768 0.930 . S
H763 C772 0.930 . S
H764 C777 0.929 . S
H765 C775 0.929 . S
H766 C770 0.929 . S
H767 C776 0.929 . S
C768 H762 0.930 . S
C768 C769 1.367 . S
C768 C776 1.378 . S
C769 C768 1.367 . S
C769 C777 1.433 . S
C770 H766 0.929 . S
C770 C772 1.378 . S
C770 C774 1.350 . S
C771 C774 1.463 . S
C771 C776 1.350 . S
C771 N779 1.427 . S
C772 H763 0.930 . S
C772 C770 1.378 . S
C772 C773 1.367 . S
C773 C772 1.367 . S
C773 C775 1.433 . S
C774 C770 1.350 . S
C774 C771 1.463 . S
C774 N778 1.427 . S
C775 H765 0.929 . S
C775 C773 1.433 . S
C775 N778 1.384 . S
C776 H767 0.929 . S
C776 C768 1.378 . S
C776 C771 1.350 . S
C777 H764 0.929 . S
C777 C769 1.433 . S
C777 N779 1.384 . S
N778 C774 1.427 . S
N778 C775 1.384 . S
N779 C771 1.427 . S
N779 C777 1.384 . S
H780 C786 0.930 . S
H781 C790 0.930 . S
H782 C795 0.929 . S
H783 C793 0.929 . S
H784 C788 0.929 . S
H785 C794 0.929 . S
C786 H780 0.930 . S
C786 C787 1.367 . S
C786 C794 1.378 . S
C787 C786 1.367 . S
C787 C795 1.433 . S
C788 H784 0.929 . S
C788 C790 1.378 . S
C788 C792 1.350 . S
C789 C792 1.463 . S
C789 C794 1.350 . S
C789 N797 1.427 . S
C790 H781 0.930 . S
C790 C788 1.378 . S
C790 C791 1.367 . S
C791 C790 1.367 . S
C791 C793 1.433 . S
C792 C788 1.350 . S
C792 C789 1.463 . S
C792 N796 1.427 . S
C793 H783 0.929 . S
C793 C791 1.433 . S
C793 N796 1.384 . S
C794 H785 0.929 . S
C794 C786 1.378 . S
C794 C789 1.350 . S
C795 H782 0.929 . S
C795 C787 1.433 . S
C795 N797 1.384 . S
N796 C792 1.427 . S
N796 C793 1.384 . S
N797 C789 1.427 . S
N797 C795 1.384 . S
H798 C804 0.930 . S
H799 C808 0.930 . S
H800 C813 0.929 . S
H801 C811 0.929 . S
H802 C806 0.929 . S
H803 C812 0.929 . S
C804 H798 0.930 . S
C804 C805 1.367 . S
C804 C812 1.378 . S
C805 C804 1.367 . S
C805 C813 1.433 . S
C806 H802 0.929 . S
C806 C808 1.378 . S
C806 C810 1.350 . S
C807 C810 1.463 . S
C807 C812 1.350 . S
C807 N815 1.427 . S
C808 H799 0.930 . S
C808 C806 1.378 . S
C808 C809 1.367 . S
C809 C808 1.367 . S
C809 C811 1.433 . S
C810 C806 1.350 . S
C810 C807 1.463 . S
C810 N814 1.427 . S
C811 H801 0.929 . S
C811 C809 1.433 . S
C811 N814 1.384 . S
C812 H803 0.929 . S
C812 C804 1.378 . S
C812 C807 1.350 . S
C813 H800 0.929 . S
C813 C805 1.433 . S
C813 N815 1.384 . S
N814 C810 1.427 . S
N814 C811 1.384 . S
N815 C807 1.427 . S
N815 C813 1.384 . S
H816 C822 0.930 . S
H817 C826 0.930 . S
H818 C831 0.929 . S
H819 C829 0.929 . S
H820 C824 0.929 . S
H821 C830 0.929 . S
C822 H816 0.930 . S
C822 C823 1.367 . S
C822 C830 1.378 . S
C823 C822 1.367 . S
C823 C831 1.433 . S
C824 H820 0.929 . S
C824 C826 1.378 . S
C824 C828 1.350 . S
C825 C828 1.463 . S
C825 C830 1.350 . S
C825 N833 1.427 . S
C826 H817 0.930 . S
C826 C824 1.378 . S
C826 C827 1.367 . S
C827 C826 1.367 . S
C827 C829 1.433 . S
C828 C824 1.350 . S
C828 C825 1.463 . S
C828 N832 1.427 . S
C829 H819 0.929 . S
C829 C827 1.433 . S
C829 N832 1.384 . S
C830 H821 0.929 . S
C830 C822 1.378 . S
C830 C825 1.350 . S
C831 H818 0.929 . S
C831 C823 1.433 . S
C831 N833 1.384 . S
N832 C828 1.427 . S
N832 C829 1.384 . S
N833 C825 1.427 . S
N833 C831 1.384 . S
H834 C840 0.930 . S
H835 C844 0.930 . S
H836 C849 0.929 . S
H837 C847 0.929 . S
H838 C842 0.929 . S
H839 C848 0.929 . S
C840 H834 0.930 . S
C840 C841 1.367 . S
C840 C848 1.378 . S
C841 C840 1.367 . S
C841 C849 1.433 . S
C842 H838 0.929 . S
C842 C844 1.378 . S
C842 C846 1.350 . S
C843 C846 1.463 . S
C843 C848 1.350 . S
C843 N851 1.427 . S
C844 H835 0.930 . S
C844 C842 1.378 . S
C844 C845 1.367 . S
C845 C844 1.367 . S
C845 C847 1.433 . S
C846 C842 1.350 . S
C846 C843 1.463 . S
C846 N850 1.427 . S
C847 H837 0.929 . S
C847 C845 1.433 . S
C847 N850 1.384 . S
C848 H839 0.929 . S
C848 C840 1.378 . S
C848 C843 1.350 . S
C849 H836 0.929 . S
C849 C841 1.433 . S
C849 N851 1.384 . S
N850 C846 1.427 . S
N850 C847 1.384 . S
N851 C843 1.427 . S
N851 C849 1.384 . S
H852 C858 0.930 . S
H853 C862 0.930 . S
H854 C867 0.929 . S
H855 C865 0.929 . S
H856 C860 0.929 . S
H857 C866 0.929 . S
C858 H852 0.930 . S
C858 C859 1.367 . S
C858 C866 1.378 . S
C859 C858 1.367 . S
C859 C867 1.433 . S
C860 H856 0.929 . S
C860 C862 1.378 . S
C860 C864 1.350 . S
C861 C864 1.463 . S
C861 C866 1.350 . S
C861 N869 1.427 . S
C862 H853 0.930 . S
C862 C860 1.378 . S
C862 C863 1.367 . S
C863 C862 1.367 . S
C863 C865 1.433 . S
C864 C860 1.350 . S
C864 C861 1.463 . S
C864 N868 1.427 . S
C865 H855 0.929 . S
C865 C863 1.433 . S
C865 N868 1.384 . S
C866 H857 0.929 . S
C866 C858 1.378 . S
C866 C861 1.350 . S
C867 H854 0.929 . S
C867 C859 1.433 . S
C867 N869 1.384 . S
N868 C864 1.427 . S
N868 C865 1.384 . S
N869 C861 1.427 . S
N869 C867 1.384 . S
H870 C876 0.930 . S
H871 C880 0.930 . S
H872 C885 0.929 . S
H873 C883 0.929 . S
H874 C878 0.929 . S
H875 C884 0.929 . S
C876 H870 0.930 . S
C876 C877 1.367 1_655 S
C876 C884 1.378 . S
C877 C876 1.367 1_455 S
C877 C885 1.433 . S
C878 H874 0.929 . S
C878 C880 1.378 . S
C878 C882 1.350 . S
C879 C882 1.463 . S
C879 C884 1.350 . S
C879 N887 1.427 . S
C880 H871 0.930 . S
C880 C878 1.378 . S
C880 C881 1.367 . S
C881 C880 1.367 . S
C881 C883 1.433 . S
C882 C878 1.350 . S
C882 C879 1.463 . S
C882 N886 1.427 . S
C883 H873 0.929 . S
C883 C881 1.433 . S
C883 N886 1.384 . S
C884 H875 0.929 . S
C884 C876 1.378 . S
C884 C879 1.350 . S
C885 H872 0.929 . S
C885 C877 1.433 . S
C885 N887 1.384 1_455 S
N886 C882 1.427 . S
N886 C883 1.384 . S
N887 C879 1.427 . S
N887 C885 1.384 1_655 S
H888 C894 0.930 . S
H889 C898 0.930 . S
H890 C903 0.929 . S
H891 C901 0.929 . S
H892 C896 0.929 . S
H893 C902 0.929 . S
C894 H888 0.930 . S
C894 C895 1.367 . S
C894 C902 1.378 . S
C895 C894 1.367 . S
C895 C903 1.433 . S
C896 H892 0.929 . S
C896 C898 1.378 . S
C896 C900 1.350 . S
C897 C900 1.463 . S
C897 C902 1.350 . S
C897 N905 1.427 . S
C898 H889 0.930 . S
C898 C896 1.378 . S
C898 C899 1.367 . S
C899 C898 1.367 . S
C899 C901 1.433 . S
C900 C896 1.350 . S
C900 C897 1.463 . S
C900 N904 1.427 . S
C901 H891 0.929 . S
C901 C899 1.433 . S
C901 N904 1.384 . S
C902 H893 0.929 . S
C902 C894 1.378 . S
C902 C897 1.350 . S
C903 H890 0.929 . S
C903 C895 1.433 . S
C903 N905 1.384 . S
N904 C900 1.427 . S
N904 C901 1.384 . S
N905 C897 1.427 . S
N905 C903 1.384 . S
H906 C912 0.930 . S
H907 C916 0.930 . S
H908 C921 0.929 . S
H909 C919 0.929 . S
H910 C914 0.929 . S
H911 C920 0.929 . S
C912 H906 0.930 . S
C912 C913 1.367 . S
C912 C920 1.378 . S
C913 C912 1.367 . S
C913 C921 1.433 . S
C914 H910 0.929 . S
C914 C916 1.378 . S
C914 C918 1.350 . S
C915 C918 1.463 . S
C915 C920 1.350 . S
C915 N923 1.427 . S
C916 H907 0.930 . S
C916 C914 1.378 . S
C916 C917 1.367 . S
C917 C916 1.367 . S
C917 C919 1.433 . S
C918 C914 1.350 . S
C918 C915 1.463 . S
C918 N922 1.427 . S
C919 H909 0.929 . S
C919 C917 1.433 . S
C919 N922 1.384 . S
C920 H911 0.929 . S
C920 C912 1.378 . S
C920 C915 1.350 . S
C921 H908 0.929 . S
C921 C913 1.433 . S
C921 N923 1.384 . S
N922 C918 1.427 . S
N922 C919 1.384 . S
N923 C915 1.427 . S
N923 C921 1.384 . S
H924 C930 0.930 . S
H925 C934 0.930 . S
H926 C939 0.929 . S
H927 C937 0.929 . S
H928 C932 0.929 . S
H929 C938 0.929 . S
C930 H924 0.930 . S
C930 C931 1.367 . S
C930 C938 1.378 . S
C931 C930 1.367 . S
C931 C939 1.433 . S
C932 H928 0.929 . S
C932 C934 1.378 . S
C932 C936 1.350 . S
C933 C936 1.463 . S
C933 C938 1.350 . S
C933 N941 1.427 . S
C934 H925 0.930 . S
C934 C932 1.378 . S
C934 C935 1.367 . S
C935 C934 1.367 . S
C935 C937 1.433 . S
C936 C932 1.350 . S
C936 C933 1.463 . S
C936 N940 1.427 . S
C937 H927 0.929 . S
C937 C935 1.433 . S
C937 N940 1.384 . S
C938 H929 0.929 . S
C938 C930 1.378 . S
C938 C933 1.350 . S
C939 H926 0.929 . S
C939 C931 1.433 . S
C939 N941 1.384 . S
N940 C936 1.427 . S
N940 C937 1.384 . S
N941 C933 1.427 . S
N941 C939 1.384 . S
C517 C7 1.787 . S
C521 C191 1.702 . S
C535 C30 1.710 . S
C539 C235 1.656 . S
C557 C315 1.614 . S
C553 N58 1.607 . S
C575 C359 1.408 . S
C571 N81 1.391 1_655 S
C593 C439 1.740 . S
C589 C99 1.809 . S
C611 C495 1.608 . S
C607 N127 1.669 . S
C625 N25 1.917 . S
C629 C291 1.769 . S
C643 C62 1.569 . S
C647 C371 1.490 . S
C665 C415 1.797 . S
C661 C85 1.975 . S
C683 C483 1.501 . S
C679 N94 1.491 . S
C697 C131 1.772 . S
C701 C167 1.648 . S
C719 C247 1.618 . S
C715 N2 1.635 1_556 S
C737 C353 1.795 . S
C733 C16 1.906 1_556 S
C751 C39 1.592 . S
C755 C433 1.430 . S
C773 C501 1.632 . S
C769 N48 1.605 . S
C787 N71 1.537 . S
C791 C185 1.483 . S
C805 C108 1.728 . S
C809 C229 1.650 . S
C823 N117 1.720 . S
C827 C309 1.560 . S
C841 N35 1.887 . S
C845 C477 1.793 . S
C863 C173 1.570 . S
C859 C53 1.665 . S
C877 C76 1.815 . S
C881 C253 1.749 . S
C895 N104 1.386 . S
C899 C297 1.366 . S
C913 C122 1.799 . S
C917 C377 1.753 . S
C931 N12 1.402 . S
C935 C421 1.390 . S
