# Generated by pormake.
# Topology bwt, (3,3)-cn, num edge types: 1
# Building blocks:
#     Node 0, Type 0, BuildingBlock: WUSLED_clean_sbu_0, # of connection points: 3
#     Node 1, Type 0, BuildingBlock: WUSLED_clean_sbu_0, # of connection points: 3
#     Node 2, Type 0, BuildingBlock: WUSLED_clean_sbu_0, # of connection points: 3
#     Node 3, Type 0, BuildingBlock: WUSLED_clean_sbu_0, # of connection points: 3
#     Node 4, Type 0, BuildingBlock: WUSLED_clean_sbu_0, # of connection points: 3
#     Node 5, Type 0, BuildingBlock: WUSLED_clean_sbu_0, # of connection points: 3
#     Node 6, Type 0, BuildingBlock: WUSLED_clean_sbu_0, # of connection points: 3
#     Node 7, Type 0, BuildingBlock: WUSLED_clean_sbu_0, # of connection points: 3
#     Node 8, Type 0, BuildingBlock: WUSLED_clean_sbu_0, # of connection points: 3
#     Node 9, Type 0, BuildingBlock: WUSLED_clean_sbu_0, # of connection points: 3
#     Node 10, Type 0, BuildingBlock: WUSLED_clean_sbu_0, # of connection points: 3
#     Node 11, Type 0, BuildingBlock: WUSLED_clean_sbu_0, # of connection points: 3
#     Node 12, Type 0, BuildingBlock: WUSLED_clean_sbu_0, # of connection points: 3
#     Node 13, Type 0, BuildingBlock: WUSLED_clean_sbu_0, # of connection points: 3
#     Node 14, Type 0, BuildingBlock: WUSLED_clean_sbu_0, # of connection points: 3
#     Node 15, Type 0, BuildingBlock: WUSLED_clean_sbu_0, # of connection points: 3
#     Node 16, Type 0, BuildingBlock: WUSLED_clean_sbu_0, # of connection points: 3
#     Node 17, Type 0, BuildingBlock: WUSLED_clean_sbu_0, # of connection points: 3
#     Node 18, Type 0, BuildingBlock: WUSLED_clean_sbu_0, # of connection points: 3
#     Node 19, Type 0, BuildingBlock: WUSLED_clean_sbu_0, # of connection points: 3
#     Node 20, Type 0, BuildingBlock: WUSLED_clean_sbu_0, # of connection points: 3
#     Node 21, Type 0, BuildingBlock: WUSLED_clean_sbu_0, # of connection points: 3
#     Node 22, Type 0, BuildingBlock: WUSLED_clean_sbu_0, # of connection points: 3
#     Node 23, Type 0, BuildingBlock: WUSLED_clean_sbu_0, # of connection points: 3
#     Node 24, Type 1, BuildingBlock: CUQRIR_clean_linker_1, # of connection points: 3
#     Node 25, Type 1, BuildingBlock: CUQRIR_clean_linker_1, # of connection points: 3
#     Node 26, Type 1, BuildingBlock: CUQRIR_clean_linker_1, # of connection points: 3
#     Node 27, Type 1, BuildingBlock: CUQRIR_clean_linker_1, # of connection points: 3
#     Node 28, Type 1, BuildingBlock: CUQRIR_clean_linker_1, # of connection points: 3
#     Node 29, Type 1, BuildingBlock: CUQRIR_clean_linker_1, # of connection points: 3
#     Node 30, Type 1, BuildingBlock: CUQRIR_clean_linker_1, # of connection points: 3
#     Node 31, Type 1, BuildingBlock: CUQRIR_clean_linker_1, # of connection points: 3
#     Node 32, Type 1, BuildingBlock: CUQRIR_clean_linker_1, # of connection points: 3
#     Node 33, Type 1, BuildingBlock: CUQRIR_clean_linker_1, # of connection points: 3
#     Node 34, Type 1, BuildingBlock: CUQRIR_clean_linker_1, # of connection points: 3
#     Node 35, Type 1, BuildingBlock: CUQRIR_clean_linker_1, # of connection points: 3
#     Node 36, Type 1, BuildingBlock: CUQRIR_clean_linker_1, # of connection points: 3
#     Node 37, Type 1, BuildingBlock: CUQRIR_clean_linker_1, # of connection points: 3
#     Node 38, Type 1, BuildingBlock: CUQRIR_clean_linker_1, # of connection points: 3
#     Node 39, Type 1, BuildingBlock: CUQRIR_clean_linker_1, # of connection points: 3
#     Node 40, Type 1, BuildingBlock: CUQRIR_clean_linker_1, # of connection points: 3
#     Node 41, Type 1, BuildingBlock: CUQRIR_clean_linker_1, # of connection points: 3
#     Node 42, Type 1, BuildingBlock: CUQRIR_clean_linker_1, # of connection points: 3
#     Node 43, Type 1, BuildingBlock: CUQRIR_clean_linker_1, # of connection points: 3
#     Node 44, Type 1, BuildingBlock: CUQRIR_clean_linker_1, # of connection points: 3
#     Node 45, Type 1, BuildingBlock: CUQRIR_clean_linker_1, # of connection points: 3
#     Node 46, Type 1, BuildingBlock: CUQRIR_clean_linker_1, # of connection points: 3
#     Node 47, Type 1, BuildingBlock: CUQRIR_clean_linker_1, # of connection points: 3
#     Edge 48, Type (0, 1), BuildingBlock: MIFKUJ_clean_linker_0, # of connection points: 2
#     Edge 49, Type (0, 1), BuildingBlock: MIFKUJ_clean_linker_0, # of connection points: 2
#     Edge 50, Type (0, 1), BuildingBlock: MIFKUJ_clean_linker_0, # of connection points: 2
#     Edge 51, Type (0, 1), BuildingBlock: MIFKUJ_clean_linker_0, # of connection points: 2
#     Edge 52, Type (0, 1), BuildingBlock: MIFKUJ_clean_linker_0, # of connection points: 2
#     Edge 53, Type (0, 1), BuildingBlock: MIFKUJ_clean_linker_0, # of connection points: 2
#     Edge 54, Type (0, 1), BuildingBlock: MIFKUJ_clean_linker_0, # of connection points: 2
#     Edge 55, Type (0, 1), BuildingBlock: MIFKUJ_clean_linker_0, # of connection points: 2
#     Edge 56, Type (0, 1), BuildingBlock: MIFKUJ_clean_linker_0, # of connection points: 2
#     Edge 57, Type (0, 1), BuildingBlock: MIFKUJ_clean_linker_0, # of connection points: 2
#     Edge 58, Type (0, 1), BuildingBlock: MIFKUJ_clean_linker_0, # of connection points: 2
#     Edge 59, Type (0, 1), BuildingBlock: MIFKUJ_clean_linker_0, # of connection points: 2
#     Edge 60, Type (0, 1), BuildingBlock: MIFKUJ_clean_linker_0, # of connection points: 2
#     Edge 61, Type (0, 1), BuildingBlock: MIFKUJ_clean_linker_0, # of connection points: 2
#     Edge 62, Type (0, 1), BuildingBlock: MIFKUJ_clean_linker_0, # of connection points: 2
#     Edge 63, Type (0, 1), BuildingBlock: MIFKUJ_clean_linker_0, # of connection points: 2
#     Edge 64, Type (0, 1), BuildingBlock: MIFKUJ_clean_linker_0, # of connection points: 2
#     Edge 65, Type (0, 1), BuildingBlock: MIFKUJ_clean_linker_0, # of connection points: 2
#     Edge 66, Type (0, 1), BuildingBlock: MIFKUJ_clean_linker_0, # of connection points: 2
#     Edge 67, Type (0, 1), BuildingBlock: MIFKUJ_clean_linker_0, # of connection points: 2
#     Edge 68, Type (0, 1), BuildingBlock: MIFKUJ_clean_linker_0, # of connection points: 2
#     Edge 69, Type (0, 1), BuildingBlock: MIFKUJ_clean_linker_0, # of connection points: 2
#     Edge 70, Type (0, 1), BuildingBlock: MIFKUJ_clean_linker_0, # of connection points: 2
#     Edge 71, Type (0, 1), BuildingBlock: MIFKUJ_clean_linker_0, # of connection points: 2
#     Edge 72, Type (0, 1), BuildingBlock: MIFKUJ_clean_linker_0, # of connection points: 2
#     Edge 73, Type (0, 1), BuildingBlock: MIFKUJ_clean_linker_0, # of connection points: 2
#     Edge 74, Type (0, 1), BuildingBlock: MIFKUJ_clean_linker_0, # of connection points: 2
#     Edge 75, Type (0, 1), BuildingBlock: MIFKUJ_clean_linker_0, # of connection points: 2
#     Edge 76, Type (0, 1), BuildingBlock: MIFKUJ_clean_linker_0, # of connection points: 2
#     Edge 77, Type (0, 1), BuildingBlock: MIFKUJ_clean_linker_0, # of connection points: 2
#     Edge 78, Type (0, 1), BuildingBlock: MIFKUJ_clean_linker_0, # of connection points: 2
#     Edge 79, Type (0, 1), BuildingBlock: MIFKUJ_clean_linker_0, # of connection points: 2
#     Edge 80, Type (0, 1), BuildingBlock: MIFKUJ_clean_linker_0, # of connection points: 2
#     Edge 81, Type (0, 1), BuildingBlock: MIFKUJ_clean_linker_0, # of connection points: 2
#     Edge 82, Type (0, 1), BuildingBlock: MIFKUJ_clean_linker_0, # of connection points: 2
#     Edge 83, Type (0, 1), BuildingBlock: MIFKUJ_clean_linker_0, # of connection points: 2
#     Edge 84, Type (0, 1), BuildingBlock: MIFKUJ_clean_linker_0, # of connection points: 2
#     Edge 85, Type (0, 1), BuildingBlock: MIFKUJ_clean_linker_0, # of connection points: 2
#     Edge 86, Type (0, 1), BuildingBlock: MIFKUJ_clean_linker_0, # of connection points: 2
#     Edge 87, Type (0, 1), BuildingBlock: MIFKUJ_clean_linker_0, # of connection points: 2
#     Edge 88, Type (0, 1), BuildingBlock: MIFKUJ_clean_linker_0, # of connection points: 2
#     Edge 89, Type (0, 1), BuildingBlock: MIFKUJ_clean_linker_0, # of connection points: 2
#     Edge 90, Type (0, 1), BuildingBlock: MIFKUJ_clean_linker_0, # of connection points: 2
#     Edge 91, Type (0, 1), BuildingBlock: MIFKUJ_clean_linker_0, # of connection points: 2
#     Edge 92, Type (0, 1), BuildingBlock: MIFKUJ_clean_linker_0, # of connection points: 2
#     Edge 93, Type (0, 1), BuildingBlock: MIFKUJ_clean_linker_0, # of connection points: 2
#     Edge 94, Type (0, 1), BuildingBlock: MIFKUJ_clean_linker_0, # of connection points: 2
#     Edge 95, Type (0, 1), BuildingBlock: MIFKUJ_clean_linker_0, # of connection points: 2
#     Edge 96, Type (0, 1), BuildingBlock: MIFKUJ_clean_linker_0, # of connection points: 2
#     Edge 97, Type (0, 1), BuildingBlock: MIFKUJ_clean_linker_0, # of connection points: 2
#     Edge 98, Type (0, 1), BuildingBlock: MIFKUJ_clean_linker_0, # of connection points: 2
#     Edge 99, Type (0, 1), BuildingBlock: MIFKUJ_clean_linker_0, # of connection points: 2
#     Edge 100, Type (0, 1), BuildingBlock: MIFKUJ_clean_linker_0, # of connection points: 2
#     Edge 101, Type (0, 1), BuildingBlock: MIFKUJ_clean_linker_0, # of connection points: 2
#     Edge 102, Type (0, 1), BuildingBlock: MIFKUJ_clean_linker_0, # of connection points: 2
#     Edge 103, Type (0, 1), BuildingBlock: MIFKUJ_clean_linker_0, # of connection points: 2
#     Edge 104, Type (0, 1), BuildingBlock: MIFKUJ_clean_linker_0, # of connection points: 2
#     Edge 105, Type (0, 1), BuildingBlock: MIFKUJ_clean_linker_0, # of connection points: 2
#     Edge 106, Type (0, 1), BuildingBlock: MIFKUJ_clean_linker_0, # of connection points: 2
#     Edge 107, Type (0, 1), BuildingBlock: MIFKUJ_clean_linker_0, # of connection points: 2
#     Edge 108, Type (0, 1), BuildingBlock: MIFKUJ_clean_linker_0, # of connection points: 2
#     Edge 109, Type (0, 1), BuildingBlock: MIFKUJ_clean_linker_0, # of connection points: 2
#     Edge 110, Type (0, 1), BuildingBlock: MIFKUJ_clean_linker_0, # of connection points: 2
#     Edge 111, Type (0, 1), BuildingBlock: MIFKUJ_clean_linker_0, # of connection points: 2
#     Edge 112, Type (0, 1), BuildingBlock: MIFKUJ_clean_linker_0, # of connection points: 2
#     Edge 113, Type (0, 1), BuildingBlock: MIFKUJ_clean_linker_0, # of connection points: 2
#     Edge 114, Type (0, 1), BuildingBlock: MIFKUJ_clean_linker_0, # of connection points: 2
#     Edge 115, Type (0, 1), BuildingBlock: MIFKUJ_clean_linker_0, # of connection points: 2
#     Edge 116, Type (0, 1), BuildingBlock: MIFKUJ_clean_linker_0, # of connection points: 2
#     Edge 117, Type (0, 1), BuildingBlock: MIFKUJ_clean_linker_0, # of connection points: 2
#     Edge 118, Type (0, 1), BuildingBlock: MIFKUJ_clean_linker_0, # of connection points: 2
#     Edge 119, Type (0, 1), BuildingBlock: MIFKUJ_clean_linker_0, # of connection points: 2
# Relax obj value: 0.126
# Max RMSD: 0.180
# Mean RMSD: 0.086
data_MOF--net-bwt--node1-WUSLED_clean_sbu_0--node2-CUQRIR_clean_linker_1--edge1-MIFKUJ_clean_linker_0
_symmetry_space_group_name_H-M    P1
_symmetry_Int_Tables_number       1
_symmetry_cell_setting            triclinic
loop_
_symmetry_equiv_pos_as_xyz
'x, y, z'
_cell_length_a     79.586918
_cell_length_b     79.56364
_cell_length_c     79.569811
_cell_angle_alpha  96.363134
_cell_angle_beta   96.365482
_cell_angle_gamma 96.304488
loop_
_atom_site_label
_atom_site_type_symbol
_atom_site_fract_x
_atom_site_fract_y
_atom_site_fract_z
_atom_type_partial_charge
C0 C 0.3186 0.64651 0.39285 0.0
C1 C 0.33406 0.64165 0.3997 0.0
C2 C 0.34803 0.65027 0.37562 0.0
C3 C 0.34851 0.64341 0.39122 0.0
C4 C 0.33241 0.65517 0.36873 0.0
C5 C 0.31782 0.65325 0.37723 0.0
U6 U 0.27112 0.64662 0.40341 0.0
O7 O 0.26091 0.66795 0.39182 0.0
O8 O 0.25514 0.642 0.3785 0.0
C9 C 0.2522 0.65795 0.37875 0.0
C10 C 0.30379 0.64403 0.40246 0.0
C11 C 0.23417 0.6607 0.37433 0.0
C12 C 0.21199 0.66757 0.3534 0.0
C13 C 0.22901 0.66536 0.35824 0.0
C14 C 0.20488 0.66067 0.38081 0.0
C15 C 0.1996 0.66516 0.36455 0.0
C16 C 0.22197 0.65842 0.38563 0.0
C17 C 0.26152 0.62963 0.44571 0.0
C18 C 0.25201 0.6151 0.46895 0.0
C19 C 0.28218 0.62259 0.46805 0.0
C20 C 0.27849 0.62979 0.4529 0.0
C21 C 0.26896 0.61501 0.4762 0.0
C22 C 0.24837 0.6223 0.45391 0.0
C23 C 0.25699 0.63691 0.42974 0.0
O24 O 0.29158 0.63172 0.39618 0.0
O25 O 0.29808 0.65769 0.40945 0.0
O26 O 0.25699 0.62682 0.41551 0.0
O27 O 0.26361 0.65266 0.42902 0.0
H28 H 0.33494 0.63629 0.41167 0.0
H29 H 0.36 0.63904 0.39685 0.0
H30 H 0.33147 0.66064 0.35685 0.0
H31 H 0.306 0.65705 0.37166 0.0
H32 H 0.20857 0.6713 0.34092 0.0
H33 H 0.23819 0.66724 0.34932 0.0
H34 H 0.19574 0.65855 0.38971 0.0
H35 H 0.22562 0.65475 0.39811 0.0
H36 H 0.24148 0.60971 0.47497 0.0
H37 H 0.29537 0.62266 0.47319 0.0
H38 H 0.28886 0.63539 0.44676 0.0
H39 H 0.23518 0.62212 0.44864 0.0
C40 C 0.21189 0.32546 0.80021 0.0
C41 C 0.1998 0.33701 0.80162 0.0
C42 C 0.17719 0.31549 0.7864 0.0
C43 C 0.18263 0.33207 0.79484 0.0
C44 C 0.18927 0.30382 0.78567 0.0
C45 C 0.20635 0.30875 0.79247 0.0
U46 U 0.25233 0.35173 0.82731 0.0
O47 O 0.2774 0.34337 0.8345 0.0
O48 O 0.27532 0.3638 0.8182 0.0
C49 C 0.28544 0.35443 0.82612 0.0
C50 C 0.23047 0.3307 0.80514 0.0
C51 C 0.30012 0.34947 0.81773 0.0
C52 C 0.31417 0.33056 0.7991 0.0
C53 C 0.29952 0.33445 0.80647 0.0
C54 C 0.32993 0.35658 0.81427 0.0
C55 C 0.32962 0.34159 0.80299 0.0
C56 C 0.31543 0.36041 0.82154 0.0
C57 C 0.25077 0.38583 0.86465 0.0
C58 C 0.2747 0.40761 0.87538 0.0
C59 C 0.24979 0.40533 0.89027 0.0
C60 C 0.24226 0.39156 0.8783 0.0
C61 C 0.266 0.41374 0.88883 0.0
C62 C 0.26719 0.39377 0.86345 0.0
C63 C 0.2421 0.37219 0.85137 0.0
O64 O 0.23645 0.34612 0.80244 0.0
O65 O 0.23742 0.32634 0.81955 0.0
O66 O 0.24522 0.35659 0.85332 0.0
O67 O 0.24236 0.37557 0.8356 0.0
H68 H 0.2037 0.34999 0.80752 0.0
H69 H 0.17379 0.34145 0.79562 0.0
H70 H 0.18557 0.29087 0.77962 0.0
H71 H 0.21538 0.29957 0.79124 0.0
H72 H 0.31344 0.31888 0.79052 0.0
H73 H 0.28782 0.32578 0.8034 0.0
H74 H 0.34136 0.36563 0.81731 0.0
H75 H 0.31617 0.37208 0.83018 0.0
H76 H 0.28729 0.41359 0.874 0.0
H77 H 0.24263 0.40976 0.90033 0.0
H78 H 0.2296 0.38562 0.87948 0.0
H79 H 0.27407 0.38947 0.8531 0.0
C80 C 0.6752 0.99682 0.62251 0.0
C81 C 0.68795 0.99099 0.61336 0.0
C82 C 0.70778 0.99467 0.63941 0.0
C83 C 0.70406 0.98984 0.62173 0.0
C84 C 0.69491 1.00046 0.64855 0.0
C85 C 0.67873 1.00152 0.64014 0.0
U86 U 0.64909 0.99997 0.58116 0.0
O87 O 0.62376 0.98795 0.56949 0.0
O88 O 0.62898 0.01585 0.57438 0.0
C89 C 0.61744 0.00254 0.56967 0.0
C90 C 0.65853 0.99864 0.61349 0.0
C91 C 0.60161 0.00296 0.57739 0.0
C92 C 0.58523 0.99741 0.60054 0.0
C93 C 0.60068 0.99824 0.59375 0.0
C94 C 0.57164 0.00663 0.57492 0.0
C95 C 0.57047 1.00141 0.59113 0.0
C96 C 0.5871 0.00735 0.5681 0.0
C97 C 0.67018 0.99758 0.54111 0.0
C98 C 0.65464 0.00269 0.51455 0.0
C99 C 0.68019 0.98868 0.51427 0.0
C100 C 0.68203 0.98999 0.53203 0.0
C101 C 0.66644 0.99499 0.50533 0.0
C102 C 0.65645 0.0039 0.5323 0.0
C103 C 0.67157 0.99788 0.55964 0.0
O104 O 0.6578 0.01306 0.60699 0.0
O105 O 0.65144 0.98524 0.6029 0.0
O106 O 0.66347 0.98445 0.56475 0.0
O107 O 0.66914 0.01235 0.56819 0.0
H108 H 0.68546 0.9874 0.59969 0.0
H109 H 0.71357 0.9851 0.61435 0.0
H110 H 0.69743 0.00451 0.66213 0.0
H111 H 0.66906 0.0062 0.64735 0.0
H112 H 0.58476 0.99314 0.61296 0.0
H113 H 0.61182 0.99481 0.60108 0.0
H114 H 0.56059 0.01008 0.56747 0.0
H115 H 0.58767 0.01109 0.55547 0.0
H116 H 0.64405 0.00787 0.50807 0.0
H117 H 0.68935 0.98244 0.50752 0.0
H118 H 0.69256 0.98484 0.53867 0.0
H119 H 0.64706 0.00965 0.53915 0.0
C120 C 0.82938 0.01961 0.28903 0.0
C121 C 0.81367 0.01284 0.27974 0.0
C122 C 0.79939 0.01935 0.30466 0.0
C123 C 0.79884 0.0127 0.28747 0.0
C124 C 0.81506 0.0267 0.31386 0.0
C125 C 0.83005 0.02672 0.30608 0.0
U126 U 0.84789 0.00703 0.24922 0.0
O127 O 0.86891 0.01906 0.23712 0.0
O128 O 0.86938 0.99309 0.24402 0.0
C129 C 0.87769 0.0061 0.23839 0.0
C130 C 0.84484 0.01871 0.28071 0.0
C131 C 0.89562 0.01034 0.2456 0.0
C132 C 0.91832 0.01201 0.26903 0.0
C133 C 0.90098 0.00924 0.26283 0.0
C134 C 0.92496 0.01772 0.24103 0.0
C135 C 0.93047 0.01613 0.25812 0.0
C136 C 0.90768 0.0148 0.23482 0.0
C137 C 0.81737 0.9879 0.21012 0.0
C138 C 0.82654 0.98389 0.18198 0.0
C139 C 0.79908 0.97021 0.18691 0.0
C140 C 0.80214 0.9774 0.20397 0.0
C141 C 0.8112 0.97349 0.17571 0.0
C142 C 0.82964 0.99097 0.19908 0.0
C143 C 0.8204 0.99538 0.22807 0.0
O144 O 0.84804 0.0031 0.27614 0.0
O145 O 0.84625 0.02859 0.26862 0.0
O146 O 0.82666 0.01158 0.23084 0.0
O147 O 0.8279 0.98605 0.23854 0.0
H148 H 0.8129 0.00746 0.26652 0.0
H149 H 0.78686 0.00739 0.27994 0.0
H150 H 0.81574 0.03204 0.32708 0.0
H151 H 0.84213 0.03209 0.31337 0.0
H152 H 0.92225 0.01082 0.28227 0.0
H153 H 0.89179 0.00592 0.27137 0.0
H154 H 0.93408 0.02065 0.23229 0.0
H155 H 0.90375 0.01564 0.22149 0.0
H156 H 0.83617 0.98649 0.17369 0.0
H157 H 0.78708 0.96239 0.18239 0.0
H158 H 0.79257 0.97485 0.21235 0.0
H159 H 0.84159 0.99888 0.20368 0.0
C160 C 0.36892 0.30348 0.65502 0.0
C161 C 0.3816 0.31713 0.65448 0.0
C162 C 0.36036 0.33731 0.65444 0.0
C163 C 0.37737 0.33384 0.65418 0.0
C164 C 0.34778 0.3235 0.65493 0.0
C165 C 0.35201 0.30687 0.65523 0.0
U166 U 0.3979 0.26773 0.64886 0.0
O167 O 0.40262 0.24676 0.66424 0.0
O168 O 0.3912 0.24091 0.63755 0.0
C169 C 0.39628 0.2348 0.65169 0.0
C170 C 0.37284 0.28565 0.65535 0.0
C171 C 0.38607 0.21929 0.6559 0.0
C172 C 0.35937 0.20056 0.65504 0.0
C173 C 0.3682 0.21628 0.6525 0.0
C174 C 0.38608 0.19077 0.66461 0.0
C175 C 0.36823 0.18743 0.66084 0.0
C176 C 0.39482 0.20645 0.6622 0.0
C177 C 0.44227 0.28223 0.63377 0.0
C178 C 0.46234 0.26654 0.61932 0.0
C179 C 0.46968 0.29663 0.6291 0.0
C180 C 0.45409 0.29695 0.63562 0.0
C181 C 0.47391 0.28152 0.62056 0.0
C182 C 0.4466 0.26691 0.62578 0.0
C183 C 0.42521 0.28388 0.63911 0.0
O184 O 0.37351 0.27689 0.64049 0.0
O185 O 0.38499 0.28313 0.66707 0.0
O186 O 0.42338 0.28267 0.65515 0.0
O187 O 0.4119 0.27663 0.6285 0.0
H188 H 0.39476 0.31487 0.65431 0.0
H189 H 0.38748 0.34407 0.65396 0.0
H190 H 0.33452 0.32546 0.65481 0.0
H191 H 0.34199 0.29658 0.65557 0.0
H192 H 0.34565 0.19849 0.65192 0.0
H193 H 0.3611 0.22589 0.64754 0.0
H194 H 0.39337 0.18119 0.66935 0.0
H195 H 0.40859 0.20838 0.66489 0.0
H196 H 0.46516 0.25471 0.61276 0.0
H197 H 0.47836 0.30832 0.63053 0.0
H198 H 0.45105 0.30891 0.64174 0.0
H199 H 0.43767 0.25538 0.62417 0.0
C200 C 0.28318 0.82498 0.01714 0.0
C201 C 0.27249 0.81136 0.02165 0.0
C202 C 0.29164 0.79136 0.01247 0.0
C203 C 0.27673 0.79478 0.01944 0.0
C204 C 0.30257 0.80508 0.00838 0.0
C205 C 0.29834 0.82174 0.01067 0.0
U206 U 0.24621 0.8476 0.00698 0.0
O207 O 0.23555 0.86955 0.01918 0.0
O208 O 0.24184 0.86929 0.99292 0.0
C209 C 0.23655 0.87798 0.00594 0.0
C210 C 0.27717 0.84184 0.01678 0.0
C211 C 0.24352 0.89604 0.00968 0.0
C212 C 0.26696 0.91897 0.01317 0.0
C213 C 0.26099 0.90152 0.01037 0.0
C214 C 0.2381 0.92543 0.01491 0.0
C215 C 0.25554 0.93111 0.01542 0.0
C216 C 0.23218 0.90808 0.01208 0.0
C217 C 0.20621 0.81641 0.98973 0.0
C218 C 0.17767 0.82422 0.98416 0.0
C219 C 0.18409 0.79653 0.97244 0.0
C220 C 0.20087 0.80052 0.98014 0.0
C221 C 0.17236 0.80836 0.97428 0.0
C222 C 0.19456 0.82828 0.99176 0.0
C223 C 0.22414 0.82042 0.9969 0.0
O224 O 0.27242 0.84543 1.00137 0.0
O225 O 0.26639 0.84553 0.02765 0.0
O226 O 0.2272 0.82757 0.01282 0.0
O227 O 0.23413 0.8274 0.98684 0.0
H228 H 0.26056 0.81341 0.02643 0.0
H229 H 0.26825 0.78462 0.02314 0.0
H230 H 0.31413 0.80288 0.00293 0.0
H231 H 0.3066 0.832 0.00683 0.0
H232 H 0.28048 0.92296 0.01359 0.0
H233 H 0.26994 0.89234 0.00859 0.0
H234 H 0.22891 0.93443 0.01626 0.0
H235 H 0.21864 0.90407 0.01149 0.0
H236 H 0.16887 0.83358 0.98568 0.0
H237 H 0.18026 0.78413 0.96509 0.0
H238 H 0.20974 0.79124 0.97847 0.0
H239 H 0.19856 0.84068 0.99904 0.0
C240 C 0.81306 0.2211 0.33573 0.0
C241 C 0.81318 0.20891 0.34725 0.0
C242 C 0.7976 0.18708 0.32518 0.0
C243 C 0.80558 0.19205 0.342 0.0
C244 C 0.79817 0.1992 0.31358 0.0
C245 C 0.80581 0.21595 0.31879 0.0
U246 U 0.84049 0.26178 0.36206 0.0
O247 O 0.84792 0.28623 0.35247 0.0
O248 O 0.831 0.28519 0.37241 0.0
C249 C 0.83838 0.29458 0.36207 0.0
C250 C 0.81863 0.23952 0.34115 0.0
C251 C 0.8282 0.30681 0.35412 0.0
C252 C 0.80118 0.31798 0.34774 0.0
C253 C 0.81029 0.30472 0.35241 0.0
C254 C 0.82765 0.33516 0.34541 0.0
C255 C 0.8098 0.33359 0.34476 0.0
C256 C 0.83672 0.32193 0.35006 0.0
C257 C 0.87774 0.26033 0.39727 0.0
C258 C 0.88898 0.28281 0.42049 0.0
C259 C 0.90384 0.25812 0.41562 0.0
C260 C 0.89158 0.25154 0.40175 0.0
C261 C 0.90256 0.27369 0.42544 0.0
C262 C 0.8767 0.27619 0.40657 0.0
C263 C 0.86415 0.25222 0.38358 0.0
O264 O 0.81572 0.24576 0.35642 0.0
O265 O 0.83331 0.24602 0.33704 0.0
O266 O 0.86642 0.25473 0.36789 0.0
O267 O 0.8484 0.25319 0.38674 0.0
H268 H 0.81863 0.21254 0.36041 0.0
H269 H 0.80532 0.18311 0.35131 0.0
H270 H 0.79243 0.19581 0.30048 0.0
H271 H 0.80554 0.22509 0.30966 0.0
H272 H 0.78745 0.31633 0.34743 0.0
H273 H 0.80336 0.29317 0.35542 0.0
H274 H 0.83469 0.34687 0.3429 0.0
H275 H 0.85052 0.32384 0.35123 0.0
H276 H 0.88748 0.29477 0.42775 0.0
H277 H 0.91425 0.25088 0.41876 0.0
H278 H 0.89273 0.23934 0.39471 0.0
H279 H 0.86617 0.28327 0.40334 0.0
C280 C 0.62759 0.67327 0.00234 0.0
C281 C 0.61991 0.68775 0.0074 0.0
C282 C 0.64317 0.70594 0.999 0.0
C283 C 0.62766 0.70393 0.00582 0.0
C284 C 0.65095 0.69142 0.99407 0.0
C285 C 0.64317 0.67515 0.99572 0.0
U286 U 0.58522 0.6495 1.00107 0.0
O287 O 0.57206 0.62593 0.98612 0.0
O288 O 0.57427 0.62886 0.01413 0.0
C289 C 0.56944 0.61869 0.99983 0.0
C290 C 0.6181 0.6564 0.00209 0.0
C291 C 0.57427 0.60157 0.99979 0.0
C292 C 0.59549 0.58262 0.00509 0.0
C293 C 0.59108 0.59908 0.00516 0.0
C294 C 0.56634 0.57108 0.99413 0.0
C295 C 0.58317 0.56846 0.99951 0.0
C296 C 0.56193 0.58755 0.9943 0.0
C297 C 0.54742 0.67171 0.99956 0.0
C298 C 0.52069 0.65351 0.99079 0.0
C299 C 0.52131 0.68054 0.00843 0.0
C300 C 0.53892 0.68366 0.0084 0.0
C301 C 0.51212 0.66546 0.99956 0.0
C302 C 0.53822 0.65654 0.9909 0.0
C303 C 0.56601 0.67388 1.00077 0.0
O304 O 0.61068 0.65423 0.01582 0.0
O305 O 0.60802 0.65118 0.98781 0.0
O306 O 0.57209 0.66751 0.98706 0.0
O307 O 0.5736 0.66976 0.01499 0.0
H308 H 0.60764 0.68651 0.01214 0.0
H309 H 0.62123 0.71485 0.00944 0.0
H310 H 0.66298 0.69266 0.98888 0.0
H311 H 0.64909 0.66406 0.99148 0.0
H312 H 0.60851 0.58097 0.0095 0.0
H313 H 0.60074 0.60986 0.00942 0.0
H314 H 0.55666 0.56041 0.98952 0.0
H315 H 0.54891 0.58937 0.99005 0.0
H316 H 0.51383 0.64177 0.98399 0.0
H317 H 0.51484 0.68999 0.01516 0.0
H318 H 0.5459 0.69525 0.01541 0.0
H319 H 0.54462 0.6469 0.98437 0.0
C320 C 0.65776 0.37153 0.31131 0.0
C321 C 0.64949 0.37986 0.32392 0.0
C322 C 0.65742 0.35971 0.34368 0.0
C323 C 0.64936 0.37404 0.33996 0.0
C324 C 0.66601 0.35172 0.33107 0.0
C325 C 0.66617 0.35757 0.31512 0.0
U326 U 0.64908 0.40181 0.27704 0.0
O327 O 0.66345 0.40703 0.25567 0.0
O328 O 0.63686 0.39523 0.25048 0.0
C329 C 0.65079 0.40025 0.24401 0.0
C330 C 0.6572 0.37652 0.29388 0.0
C331 C 0.65491 0.38915 0.22918 0.0
C332 C 0.67278 0.37011 0.21545 0.0
C333 C 0.66869 0.3795 0.23017 0.0
C334 C 0.64931 0.37975 0.19866 0.0
C335 C 0.66318 0.37017 0.19944 0.0
C336 C 0.64525 0.38906 0.21331 0.0
C337 C 0.63244 0.44509 0.28948 0.0
C338 C 0.61415 0.46146 0.27279 0.0
C339 C 0.6301 0.47473 0.2995 0.0
C340 C 0.63703 0.45954 0.3016 0.0
C341 C 0.61833 0.47584 0.28521 0.0
C342 C 0.62114 0.44627 0.27488 0.0
C343 C 0.6386 0.42876 0.29306 0.0
O344 O 0.64197 0.37702 0.2858 0.0
O345 O 0.66832 0.3893 0.29164 0.0
O346 O 0.65475 0.42744 0.29179 0.0
O347 O 0.62848 0.41474 0.28688 0.0
H348 H 0.64289 0.39066 0.32125 0.0
H349 H 0.64251 0.38044 0.34927 0.0
H350 H 0.6726 0.34087 0.33352 0.0
H351 H 0.67268 0.35098 0.30561 0.0
H352 H 0.68343 0.36277 0.21664 0.0
H353 H 0.67639 0.37935 0.24225 0.0
H354 H 0.64178 0.38043 0.18661 0.0
H355 H 0.63467 0.39653 0.21218 0.0
H356 H 0.60535 0.4619 0.26149 0.0
H357 H 0.63351 0.48541 0.30942 0.0
H358 H 0.64565 0.45894 0.31299 0.0
H359 H 0.61744 0.43535 0.26526 0.0
C360 C 0.00853 0.29995 0.82305 0.0
C361 C 0.99548 0.29719 0.80924 0.0
C362 C 0.01027 0.31913 0.79525 0.0
C363 C 0.9963 0.30675 0.79555 0.0
C364 C 0.02317 0.32208 0.80922 0.0
C365 C 0.02226 0.31262 0.82301 0.0
U366 U 1.00099 0.25695 0.83988 0.0
O367 O 0.01481 0.24639 0.86099 0.0
O368 O 0.98773 0.24954 0.86126 0.0
C369 C 1.00151 0.24512 0.86943 0.0
C370 C 0.00824 0.28951 0.83732 0.0
C371 C 0.00439 0.25043 0.88794 0.0
C372 C 0.02013 0.26709 0.91347 0.0
C373 C 0.01737 0.26326 0.89566 0.0
C374 C 0.99682 0.24554 0.91586 0.0
C375 C 0.01 0.25808 0.92376 0.0
C376 C 0.99409 0.24175 0.89818 0.0
C377 C 0.98634 0.21656 0.80942 0.0
C378 C 0.98364 0.18872 0.81949 0.0
C379 C 0.971 0.19197 0.79108 0.0
C380 C 0.97705 0.20934 0.79382 0.0
C381 C 0.97415 0.18146 0.80391 0.0
C382 C 0.98961 0.20615 0.82226 0.0
C383 C 0.99184 0.23503 0.81237 0.0
O384 O 0.99315 0.2826 0.84004 0.0
O385 O 0.01989 0.27903 0.83838 0.0
O386 O 0.00783 0.23967 0.81884 0.0
O387 O 0.9812 0.24413 0.81963 0.0
H388 H 0.98481 0.28739 0.80884 0.0
H389 H 0.98635 0.3039 0.78483 0.0
H390 H 0.03411 0.33149 0.80934 0.0
H391 H 0.03246 0.31499 0.83351 0.0
H392 H 0.03041 0.27679 0.91919 0.0
H393 H 0.02548 0.27013 0.88797 0.0
H394 H 0.98856 0.23861 0.92337 0.0
H395 H 0.98399 0.23184 0.89247 0.0
H396 H 0.98615 0.18101 0.82967 0.0
H397 H 0.96394 0.18672 0.77886 0.0
H398 H 0.97437 0.21719 0.78379 0.0
H399 H 0.99662 0.21155 0.83447 0.0
C400 C 0.33772 0.81077 0.22231 0.0
C401 C 0.34812 0.81683 0.21059 0.0
C402 C 0.33237 0.79599 0.18772 0.0
C403 C 0.34545 0.80953 0.19346 0.0
C404 C 0.32168 0.79041 0.19949 0.0
C405 C 0.32434 0.79772 0.21655 0.0
U406 U 0.36004 0.84148 0.26173 0.0
O407 O 0.34987 0.8495 0.28571 0.0
O408 O 0.3718 0.83501 0.28606 0.0
C409 C 0.3607 0.84182 0.29491 0.0
C410 C 0.34123 0.81688 0.24074 0.0
C411 C 0.35382 0.83151 0.30748 0.0
C412 C 0.34465 0.80405 0.31641 0.0
C413 C 0.3488 0.81391 0.30356 0.0
C414 C 0.34969 0.82939 0.33704 0.0
C415 C 0.34547 0.8116 0.33342 0.0
C416 C 0.35383 0.83921 0.3242 0.0
C417 C 0.39246 0.87974 0.25758 0.0
C418 C 0.41276 0.89437 0.28125 0.0
C419 C 0.41284 0.90344 0.2532 0.0
C420 C 0.39918 0.8909 0.24689 0.0
C421 C 0.4201 0.90507 0.27035 0.0
C422 C 0.39908 0.88178 0.2749 0.0
C423 C 0.37958 0.86529 0.25014 0.0
O424 O 0.35661 0.81558 0.24798 0.0
O425 O 0.33566 0.83128 0.24598 0.0
O426 O 0.36372 0.86672 0.25267 0.0
O427 O 0.38397 0.85014 0.25223 0.0
H428 H 0.3585 0.82694 0.21476 0.0
H429 H 0.35376 0.81442 0.18476 0.0
H430 H 0.31162 0.77992 0.19572 0.0
H431 H 0.3162 0.79282 0.2254 0.0
H432 H 0.34117 0.79045 0.31309 0.0
H433 H 0.34863 0.80773 0.29069 0.0
H434 H 0.35062 0.83565 0.34997 0.0
H435 H 0.35771 0.85277 0.3275 0.0
H436 H 0.41808 0.8952 0.29449 0.0
H437 H 0.41797 0.91165 0.24452 0.0
H438 H 0.39421 0.88959 0.23351 0.0
H439 H 0.39405 0.87327 0.28337 0.0
C440 C 1.00099 0.61892 0.66917 0.0
C441 C 0.99939 0.60915 0.68267 0.0
C442 C 0.99806 0.63473 0.70207 0.0
C443 C 0.99793 0.61696 0.69896 0.0
C444 C 0.99983 0.64449 0.68849 0.0
C445 C 1.00125 0.63663 0.67216 0.0
U446 U 1.00109 0.57801 0.64122 0.0
O447 O 0.98734 0.56757 0.6161 0.0
O448 O 0.01531 0.57035 0.62004 0.0
C449 C 1.00142 0.56622 0.60912 0.0
C450 C 1.00189 0.61044 0.65197 0.0
C451 C 1.00176 0.57255 0.59252 0.0
C452 C 0.00504 0.59563 0.57513 0.0
C453 C 0.00542 0.58996 0.59119 0.0
C454 C 0.99746 0.56652 0.56167 0.0
C455 C 1.0009 0.58397 0.56016 0.0
C456 C 0.99791 0.56089 0.57771 0.0
C457 C 0.99715 0.53772 0.66282 0.0
C458 C 0.98823 0.50955 0.64726 0.0
C459 C 0.99754 0.51276 0.67763 0.0
C460 C 1.00055 0.53038 0.67781 0.0
C461 C 0.99097 0.50217 0.66243 0.0
C462 C 0.99131 0.52722 0.64745 0.0
C463 C 0.99889 0.55632 0.66358 0.0
O464 O 0.01574 0.60313 0.65021 0.0
O465 O 0.98787 0.60072 0.64504 0.0
O466 O 0.98564 0.56243 0.65627 0.0
O467 O 0.01352 0.56358 0.66009 0.0
H468 H 0.99917 0.59543 0.68058 0.0
H469 H 0.99682 0.6091 0.70915 0.0
H470 H 0.99979 0.65818 0.69043 0.0
H471 H 0.0024 0.64435 0.66185 0.0
H472 H 0.00795 0.60913 0.57444 0.0
H473 H 0.00843 0.59914 0.60255 0.0
H474 H 0.99395 0.55722 0.55048 0.0
H475 H 0.99498 0.5474 0.57854 0.0
H476 H 0.98314 0.50175 0.63538 0.0
H477 H 1.00017 0.50742 0.68945 0.0
H478 H 0.0052 0.53832 0.68974 0.0
H479 H 0.98871 0.53272 0.63572 0.0
C480 C 0.69436 0.34769 0.63032 0.0
C481 C 0.68274 0.35691 0.62177 0.0
C482 C 0.66084 0.3483 0.63963 0.0
C483 C 0.66616 0.35719 0.62635 0.0
C484 C 0.67251 0.33885 0.64788 0.0
C485 C 0.68901 0.33857 0.64329 0.0
U486 U 0.73079 0.35593 0.60235 0.0
O487 O 0.75772 0.3665 0.61016 0.0
O488 O 0.75146 0.34048 0.59702 0.0
C489 C 0.76359 0.35253 0.60415 0.0
C490 C 0.71221 0.34772 0.62642 0.0
C491 C 0.77874 0.34735 0.61401 0.0
C492 C 0.79302 0.33568 0.63813 0.0
C493 C 0.77815 0.34048 0.6295 0.0
C494 C 0.80911 0.34459 0.61592 0.0
C495 C 0.80874 0.33756 0.63138 0.0
C496 C 0.79436 0.34937 0.60741 0.0
C497 C 0.71906 0.37435 0.55927 0.0
C498 C 0.73494 0.39296 0.5425 0.0
C499 C 0.70761 0.37764 0.53025 0.0
C500 C 0.70628 0.37026 0.54531 0.0
C501 C 0.72178 0.38937 0.52873 0.0
C502 C 0.73357 0.38558 0.55765 0.0
C503 C 0.71597 0.36793 0.57563 0.0
O504 O 0.71477 0.33676 0.61361 0.0
O505 O 0.72111 0.36271 0.6268 0.0
O506 O 0.72274 0.37755 0.58979 0.0
O507 O 0.71648 0.35159 0.57647 0.0
H508 H 0.68654 0.36406 0.6117 0.0
H509 H 0.65766 0.36472 0.61975 0.0
H510 H 0.6689 0.33155 0.6579 0.0
H511 H 0.69769 0.33129 0.65002 0.0
H512 H 0.79214 0.33023 0.64992 0.0
H513 H 0.76625 0.33878 0.63487 0.0
H514 H 0.82091 0.34662 0.61042 0.0
H515 H 0.79518 0.35472 0.59553 0.0
H516 H 0.746 0.40197 0.54183 0.0
H517 H 0.69737 0.37433 0.51985 0.0
H518 H 0.69497 0.36166 0.54622 0.0
H519 H 0.74361 0.38901 0.56821 0.0
C520 C 0.78269 0.66513 0.19767 0.0
C521 C 0.79268 0.65172 0.19553 0.0
C522 C 0.81743 0.6695 0.21187 0.0
C523 C 0.80985 0.65387 0.2026 0.0
C524 C 0.80751 0.68306 0.21338 0.0
C525 C 0.79034 0.68087 0.20641 0.0
U526 U 0.74221 0.6444 0.16788 0.0
O527 O 0.71748 0.63396 0.17455 0.0
O528 O 0.71887 0.6556 0.1597 0.0
C529 C 0.7092 0.64532 0.16752 0.0
C530 C 0.7641 0.66268 0.19207 0.0
C531 C 0.69688 0.65297 0.17767 0.0
C532 C 0.68849 0.66385 0.20491 0.0
C533 C 0.70115 0.65911 0.19502 0.0
C534 C 0.66736 0.65716 0.18005 0.0
C535 C 0.67132 0.66246 0.19766 0.0
C536 C 0.68 0.65247 0.17019 0.0
C537 C 0.74602 0.61088 0.12999 0.0
C538 C 0.72211 0.59598 0.1102 0.0
C539 C 0.74988 0.5862 0.11052 0.0
C540 C 0.75651 0.59941 0.12342 0.0
C541 C 0.73254 0.58415 0.10381 0.0
C542 C 0.72878 0.60919 0.12321 0.0
C543 C 0.75325 0.62381 0.14448 0.0
O544 O 0.75897 0.66832 0.17768 0.0
O545 O 0.75598 0.64777 0.19375 0.0
O546 O 0.75059 0.61971 0.15958 0.0
O547 O 0.75127 0.63976 0.14276 0.0
H548 H 0.78712 0.63947 0.18874 0.0
H549 H 0.81716 0.64323 0.20093 0.0
H550 H 0.81283 0.69522 0.22053 0.0
H551 H 0.78288 0.69138 0.20825 0.0
H552 H 0.69209 0.66814 0.21835 0.0
H553 H 0.71412 0.65966 0.20103 0.0
H554 H 0.65432 0.65571 0.174 0.0
H555 H 0.67643 0.64771 0.15683 0.0
H556 H 0.70875 0.59496 0.10525 0.0
H557 H 0.75828 0.57725 0.10624 0.0
H558 H 0.76983 0.60042 0.12856 0.0
H559 H 0.72045 0.61792 0.12814 0.0
C560 C 0.33134 0.99536 0.38319 0.0
C561 C 0.31873 1.00127 0.39249 0.0
C562 C 0.29877 0.99806 0.36654 0.0
C563 C 0.30264 0.0027 0.38424 0.0
C564 C 0.31138 0.99177 0.35733 0.0
C565 C 0.32756 0.99047 0.3656 0.0
U566 U 0.35915 0.9952 0.42431 0.0
O567 O 0.3807 0.98139 0.43173 0.0
O568 O 0.38405 0.00941 0.4347 0.0
C569 C 0.39137 0.99548 0.43574 0.0
C570 C 0.34841 0.9945 0.39192 0.0
C571 C 0.40784 0.99566 0.42911 0.0
C572 C 0.42535 0.9878 0.40711 0.0
C573 C 0.40939 0.98744 0.41292 0.0
C574 C 0.43823 0.00485 0.43347 0.0
C575 C 0.43997 0.99648 0.41736 0.0
C576 C 0.42232 0.00439 0.43929 0.0
C577 C 0.3403 0.99808 0.46534 0.0
C578 C 0.359 0.99699 0.49137 0.0
C579 C 0.33078 0.00544 0.49276 0.0
C580 C 0.32772 0.00329 0.47498 0.0
C581 C 0.34649 0.00241 0.50113 0.0
C582 C 0.35596 0.99492 0.4736 0.0
C583 C 0.33754 0.99686 0.44673 0.0
O584 O 0.3552 0.00852 0.40175 0.0
O585 O 0.35013 0.9806 0.39915 0.0
O586 O 0.34053 0.98239 0.43862 0.0
O587 O 0.34424 0.01032 0.44051 0.0
H588 H 0.32141 0.00502 0.40612 0.0
H589 H 0.29338 0.00781 0.39172 0.0
H590 H 0.30875 0.98781 0.34374 0.0
H591 H 0.33713 0.98575 0.35828 0.0
H592 H 0.42628 0.98111 0.39469 0.0
H593 H 0.3983 0.9807 0.40483 0.0
H594 H 0.44915 0.01194 0.44154 0.0
H595 H 0.4213 0.01093 0.45176 0.0
H596 H 0.37125 0.99467 0.49746 0.0
H597 H 0.3208 0.00937 0.49997 0.0
H598 H 0.3156 0.00584 0.46877 0.0
H599 H 0.36589 0.99105 0.46628 0.0
C600 C 0.19974 0.98513 0.73044 0.0
C601 C 0.21056 0.99987 0.73784 0.0
C602 C 0.23534 0.98733 0.72937 0.0
C603 C 0.22807 1.00098 0.73723 0.0
C604 C 0.22458 0.97229 0.72255 0.0
C605 C 0.20691 0.97124 0.72298 0.0
U606 U 0.16824 0.99724 0.75832 0.0
O607 O 0.14462 0.00904 0.75542 0.0
O608 O 0.14472 0.98465 0.76609 0.0
C609 C 0.13568 0.99659 0.76132 0.0
C610 C 0.18135 0.98398 0.73211 0.0
C611 C 0.11794 0.99134 0.75329 0.0
C612 C 0.09341 0.99628 0.73406 0.0
C613 C 0.11108 0.99827 0.73888 0.0
C614 C 0.08936 0.97967 0.75733 0.0
C615 C 0.08236 0.98751 0.74367 0.0
C616 C 0.10694 0.98157 0.76208 0.0
C617 C 0.19134 0.02134 0.80072 0.0
C618 C 0.17936 0.02632 0.82733 0.0
C619 C 0.20845 0.03789 0.82528 0.0
C620 C 0.20663 0.03095 0.80823 0.0
C621 C 0.19499 0.03529 0.83512 0.0
C622 C 0.17755 0.01933 0.81019 0.0
C623 C 0.1907 0.0125 0.78349 0.0
O624 O 0.17654 0.97491 0.74398 0.0
O625 O 0.17493 0.99856 0.73238 0.0
O626 O 0.18454 0.02037 0.77095 0.0
O627 O 0.18532 0.99612 0.78163 0.0
H628 H 0.20549 0.01059 0.74423 0.0
H629 H 0.23597 0.01259 0.74301 0.0
H630 H 0.2297 0.96143 0.71665 0.0
H631 H 0.19889 0.95957 0.7176 0.0
H632 H 0.08837 0.00248 0.72349 0.0
H633 H 0.11922 0.00596 0.73189 0.0
H634 H 0.08116 0.97261 0.7648 0.0
H635 H 0.11186 0.97622 0.77329 0.0
H636 H 0.1688 0.02412 0.83464 0.0
H637 H 0.22052 0.04503 0.83087 0.0
H638 H 0.21735 0.03265 0.80104 0.0
H639 H 0.16563 0.01193 0.80451 0.0
C640 C 0.6298 0.69408 0.34608 0.0
C641 C 0.61793 0.67983 0.34688 0.0
C642 C 0.64039 0.66108 0.34625 0.0
C643 C 0.62316 0.66351 0.34694 0.0
C644 C 0.65217 0.67548 0.34551 0.0
C645 C 0.64693 0.69172 0.34541 0.0
U646 U 0.59984 0.72803 0.35568 0.0
O647 O 0.60605 0.75504 0.36652 0.0
O648 O 0.59196 0.74833 0.3409 0.0
C649 C 0.59878 0.76063 0.35293 0.0
C650 C 0.62477 0.71149 0.34603 0.0
C651 C 0.60723 0.77637 0.34763 0.0
C652 C 0.62816 0.79195 0.33303 0.0
C653 C 0.62097 0.77654 0.33797 0.0
C654 C 0.60799 0.80703 0.34744 0.0
C655 C 0.62164 0.80741 0.3376 0.0
C656 C 0.60091 0.79174 0.35235 0.0
C657 C 0.55961 0.71494 0.37696 0.0
C658 C 0.53465 0.7299 0.37939 0.0
C659 C 0.53965 0.70738 0.39675 0.0
C660 C 0.55448 0.70496 0.38937 0.0
C661 C 0.52952 0.71989 0.39189 0.0
C662 C 0.54962 0.7275 0.37203 0.0
C663 C 0.57525 0.71167 0.36935 0.0
O664 O 0.61107 0.71309 0.33574 0.0
O665 O 0.62556 0.72048 0.36104 0.0
O666 O 0.58969 0.71884 0.37814 0.0
O667 O 0.57489 0.71229 0.35287 0.0
H668 H 0.60463 0.68131 0.34744 0.0
H669 H 0.61366 0.65278 0.34735 0.0
H670 H 0.66557 0.67429 0.34529 0.0
H671 H 0.65634 0.70252 0.34489 0.0
H672 H 0.63861 0.79172 0.32541 0.0
H673 H 0.62605 0.76481 0.33417 0.0
H674 H 0.60284 0.81863 0.35155 0.0
H675 H 0.59036 0.79193 0.35987 0.0
H676 H 0.52722 0.73971 0.37543 0.0
H677 H 0.53597 0.69923 0.40609 0.0
H678 H 0.56194 0.69514 0.3933 0.0
H679 H 0.55335 0.73541 0.36251 0.0
C680 C 0.73027 0.18589 0.98847 0.0
C681 C 0.74184 0.1983 0.999 0.0
C682 C 0.72574 0.22057 0.99028 0.0
C683 C 0.73958 0.21542 0.99997 0.0
C684 C 0.71446 0.20828 0.97912 0.0
C685 C 0.7167 0.19095 0.97825 0.0
U686 U 0.76155 0.15886 0.00195 0.0
O687 O 0.76188 0.13702 0.01657 0.0
O688 O 0.77113 0.13556 0.99142 0.0
C689 C 0.76804 0.12764 0.00463 0.0
C690 C 0.73312 0.16794 0.98852 0.0
C691 C 0.76052 0.10979 1.00106 0.0
C692 C 0.73968 0.08701 0.98592 0.0
C693 C 0.74581 0.1044 0.98944 0.0
C694 C 0.76268 0.08057 0.0059 0.0
C695 C 0.74829 0.07493 0.99391 0.0
C696 C 0.76873 0.09783 0.00941 0.0
C697 C 0.80256 0.187 0.02246 0.0
C698 C 0.82909 0.17654 0.03173 0.0
C699 C 0.82683 0.20686 0.0356 0.0
C700 C 0.80993 0.20369 0.02821 0.0
C701 C 0.83661 0.19334 0.03739 0.0
C702 C 0.81211 0.17338 0.02432 0.0
C703 C 0.78505 0.18427 0.01415 0.0
O704 O 0.7449 0.1633 0.97924 0.0
O705 O 0.73496 0.16317 0.00387 0.0
O706 O 0.77358 0.17797 0.02317 0.0
O707 O 0.78298 0.17729 0.99819 0.0
H708 H 0.75249 0.19472 0.00683 0.0
H709 H 0.74847 0.22464 0.00857 0.0
H710 H 0.7036 0.21201 0.97162 0.0
H711 H 0.70775 0.18157 0.96991 0.0
H712 H 0.72856 0.08297 0.97662 0.0
H713 H 0.73928 0.11356 0.98297 0.0
H714 H 0.76937 0.07159 0.01249 0.0
H715 H 0.78001 0.10182 0.01852 0.0
H716 H 0.83632 0.16589 0.03305 0.0
H717 H 0.83236 0.21996 0.03954 0.0
H718 H 0.80268 0.21431 0.02675 0.0
H719 H 0.80648 0.16039 0.01991 0.0
C720 C 0.19193 0.78623 0.67167 0.0
C721 C 0.17843 0.7953 0.66652 0.0
C722 C 0.19729 0.82217 0.67272 0.0
C723 C 0.18106 0.81313 0.66716 0.0
C724 C 0.21062 0.81302 0.67824 0.0
C725 C 0.20795 0.79528 0.67771 0.0
U726 U 0.16865 0.74406 0.64958 0.0
O727 O 0.17818 0.72114 0.63803 0.0
O728 O 0.16189 0.71909 0.65843 0.0
C729 C 0.17076 0.7111 0.64779 0.0
C730 C 0.18988 0.76738 0.6696 0.0
C731 C 0.18054 0.69775 0.65397 0.0
C732 C 0.20653 0.68809 0.66661 0.0
C733 C 0.19703 0.70141 0.66283 0.0
C734 C 0.183 0.66744 0.65307 0.0
C735 C 0.19977 0.67088 0.66146 0.0
C736 C 0.17354 0.68069 0.64944 0.0
C737 C 0.13138 0.74807 0.61533 0.0
C738 C 0.1159 0.72466 0.59539 0.0
C739 C 0.11059 0.75369 0.5926 0.0
C740 C 0.12247 0.75953 0.60687 0.0
C741 C 0.10737 0.73623 0.58651 0.0
C742 C 0.12791 0.73055 0.60967 0.0
C743 C 0.14499 0.7549 0.6292 0.0
O744 O 0.17602 0.75979 0.67446 0.0
O745 O 0.19336 0.76025 0.6549 0.0
O746 O 0.16055 0.75375 0.62558 0.0
O747 O 0.1427 0.75112 0.64452 0.0
H748 H 0.16596 0.78857 0.66164 0.0
H749 H 0.17055 0.81975 0.66273 0.0
H750 H 0.22321 0.81959 0.68284 0.0
H751 H 0.21855 0.78856 0.6817 0.0
H752 H 0.21926 0.69132 0.67334 0.0
H753 H 0.20269 0.71451 0.66645 0.0
H754 H 0.17733 0.65451 0.64858 0.0
H755 H 0.16087 0.67758 0.64249 0.0
H756 H 0.11374 0.71114 0.59095 0.0
H757 H 0.10402 0.76288 0.58621 0.0
H758 H 0.12499 0.7731 0.61109 0.0
H759 H 0.13475 0.72153 0.61604 0.0
C760 C 0.396 0.333 0.99856 0.0
C761 C 0.40036 0.31812 0.9898 0.0
C762 C 0.37733 0.30103 1.00037 0.0
C763 C 0.39108 0.30229 0.99065 0.0
C764 C 0.37306 0.31604 0.0091 0.0
C765 C 0.3823 0.33184 0.00818 0.0
U766 U 0.4362 0.3612 0.99135 0.0
O767 O 0.43902 0.38521 0.9801 0.0
O768 O 0.44904 0.38474 0.00683 0.0
C769 C 0.44601 0.39417 0.99455 0.0
C770 C 0.40578 0.34976 0.99822 0.0
C771 C 0.43864 0.40994 0.99929 0.0
C772 C 0.41432 0.42487 0.00452 0.0
C773 C 0.42124 0.40963 1.00086 0.0
C774 C 0.44221 0.44083 0.00545 0.0
C775 C 0.42469 0.44069 0.00671 0.0
C776 C 0.44909 0.42559 0.00177 0.0
C777 C 0.47484 0.34112 0.97738 0.0
C778 C 0.50431 0.35424 0.98272 0.0
C779 C 0.49656 0.32873 0.96255 0.0
C780 C 0.47954 0.32862 0.96556 0.0
C781 C 0.50926 0.34131 0.9714 0.0
C782 C 0.48729 0.35418 0.98562 0.0
C783 C 0.45719 0.33983 0.98162 0.0
O784 O 0.41909 0.35373 0.00988 0.0
O785 O 0.40882 0.35369 0.98313 0.0
O786 O 0.44596 0.34541 0.97089 0.0
O787 O 0.45548 0.34441 0.99768 0.0
H788 H 0.41096 0.31875 0.98234 0.0
H789 H 0.39461 0.29105 0.98358 0.0
H790 H 0.36277 0.31558 0.01694 0.0
H791 H 0.37882 0.34318 0.01513 0.0
H792 H 0.40075 0.42426 0.00517 0.0
H793 H 0.41296 0.39764 0.99896 0.0
H794 H 0.45061 0.45272 0.00729 0.0
H795 H 0.46258 0.42605 1.00068 0.0
H796 H 0.51369 0.36398 0.99002 0.0
H797 H 0.49981 0.3187 0.95359 0.0
H798 H 0.4701 0.31849 0.95898 0.0
H799 H 0.48395 0.36403 0.99475 0.0
C800 C 0.34899 0.62958 0.69314 0.0
C801 C 0.36401 0.62949 0.68532 0.0
C802 C 0.34984 0.63867 0.65959 0.0
C803 C 0.36443 0.63403 0.6688 0.0
C804 C 0.33472 0.63831 0.6673 0.0
C805 C 0.33433 0.63388 0.68387 0.0
U806 U 0.35826 0.60231 0.72946 0.0
O807 O 0.36785 0.6097 0.75661 0.0
O808 O 0.34276 0.5946 0.74939 0.0
C809 C 0.35408 0.60242 0.7619 0.0
C810 C 0.34848 0.62587 0.71105 0.0
C811 C 0.34774 0.61119 0.777 0.0
C812 C 0.34842 0.63572 0.79859 0.0
C813 C 0.35253 0.62861 0.78278 0.0
C814 C 0.33433 0.60829 0.80283 0.0
C815 C 0.33962 0.62553 0.80902 0.0
C816 C 0.33833 0.60125 0.78706 0.0
C817 C 0.38013 0.56183 0.71709 0.0
C818 C 0.38822 0.54022 0.73484 0.0
C819 C 0.39267 0.53745 0.7051 0.0
C820 C 0.3859 0.55269 0.70327 0.0
C821 C 0.39377 0.53086 0.72083 0.0
C822 C 0.38139 0.55559 0.73297 0.0
C823 C 0.37269 0.57761 0.71419 0.0
O824 O 0.33826 0.61235 0.71323 0.0
O825 O 0.36317 0.62754 0.72084 0.0
O826 O 0.38125 0.59202 0.72178 0.0
O827 O 0.35616 0.57708 0.71436 0.0
H828 H 0.37551 0.6261 0.69203 0.0
H829 H 0.37623 0.63389 0.66322 0.0
H830 H 0.32327 0.64194 0.66073 0.0
H831 H 0.3226 0.63407 0.68957 0.0
H832 H 0.35277 0.64903 0.80295 0.0
H833 H 0.3599 0.63661 0.77539 0.0
H834 H 0.3273 0.6001 0.81033 0.0
H835 H 0.33457 0.58777 0.783 0.0
H836 H 0.38881 0.53549 0.74711 0.0
H837 H 0.39712 0.53085 0.69411 0.0
H838 H 0.38511 0.55733 0.69093 0.0
H839 H 0.37698 0.5625 0.74381 0.0
C840 C 1.00136 0.7243 0.18272 0.0
C841 C 0.00343 0.73731 0.19649 0.0
C842 C 0.00646 0.71659 0.21653 0.0
C843 C 0.00589 0.73351 0.2132 0.0
C844 C 0.00472 0.70359 0.20264 0.0
C845 C 0.00216 0.70743 0.18585 0.0
U846 U 0.00319 0.75929 0.15609 0.0
O847 O 0.01291 0.76321 0.13187 0.0
O848 O 0.98617 0.76614 0.13483 0.0
C849 C 0.998 0.766 0.12454 0.0
C850 C 0.99881 0.72877 0.16527 0.0
C851 C 0.99265 0.75753 0.1071 0.0
C852 C 0.99327 0.73459 0.08441 0.0
C853 C 0.99686 0.74131 0.10163 0.0
C854 C 0.9805 0.75986 0.07824 0.0
C855 C 0.98537 0.74398 0.07247 0.0
C856 C 0.98413 0.76656 0.09538 0.0
C857 C 0.01811 0.80299 0.18203 0.0
C858 C 0.03472 0.82791 0.17453 0.0
C859 C 0.01749 0.8308 0.19773 0.0
C860 C 0.0121 0.81332 0.19492 0.0
C861 C 0.02911 0.83818 0.18778 0.0
C862 C 0.02918 0.81045 0.17159 0.0
C863 C 0.01348 0.78444 0.18045 0.0
O864 O 0.98616 0.73782 0.16235 0.0
O865 O 0.01284 0.73486 0.15958 0.0
O866 O 0.02389 0.77509 0.17311 0.0
O867 O 0.99731 0.77885 0.17569 0.0
H868 H 0.00297 0.75046 0.1943 0.0
H869 H 0.00689 0.74381 0.22351 0.0
H870 H 0.00532 0.69044 0.20472 0.0
H871 H 1.00079 0.69726 0.17536 0.0
H872 H 0.99703 0.72225 0.08037 0.0
H873 H 0.00336 0.73409 0.11053 0.0
H874 H 0.97465 0.76755 0.06938 0.0
H875 H 0.98083 0.77912 0.09938 0.0
H876 H 0.04361 0.83336 0.16664 0.0
H877 H 0.01315 0.83842 0.20816 0.0
H878 H 0.0036 0.80778 0.20312 0.0
H879 H 0.03389 0.80276 0.16146 0.0
C880 C 0.66984 0.203 0.78581 0.0
C881 C 0.66044 0.19378 0.79646 0.0
C882 C 0.66998 0.21601 0.82039 0.0
C883 C 0.66056 0.20021 0.81364 0.0
C884 C 0.6798 0.22485 0.80973 0.0
C885 C 0.67971 0.2184 0.79264 0.0
U886 U 0.65274 0.17194 0.74553 0.0
O887 O 0.64146 0.17732 0.7206 0.0
O888 O 0.66488 0.16504 0.72247 0.0
C889 C 0.65368 0.17164 0.71258 0.0
C890 C 0.66859 0.19749 0.76736 0.0
C891 C 0.66029 0.18247 0.70034 0.0
C892 C 0.66624 0.2104 0.69115 0.0
C893 C 0.66285 0.2003 0.70399 0.0
C894 C 0.66563 0.18498 0.67118 0.0
C895 C 0.66716 0.20286 0.67446 0.0
C896 C 0.66218 0.1749 0.684 0.0
C897 C 0.62221 0.13227 0.74681 0.0
C898 C 0.60421 0.11871 0.72114 0.0
C899 C 0.60211 0.10732 0.74793 0.0
C900 C 0.61494 0.11996 0.75602 0.0
C901 C 0.59622 0.10685 0.73051 0.0
C902 C 0.61711 0.13131 0.72923 0.0
C903 C 0.63385 0.14691 0.75584 0.0
O904 O 0.67565 0.18379 0.76272 0.0
O905 O 0.65356 0.19778 0.7588 0.0
O906 O 0.62872 0.16178 0.75385 0.0
O907 O 0.65013 0.1466 0.75446 0.0
H908 H 0.65269 0.18187 0.79138 0.0
H909 H 0.65281 0.19311 0.82146 0.0
H910 H 0.68743 0.23689 0.81457 0.0
H911 H 0.68707 0.22568 0.78463 0.0
H912 H 0.66759 0.22414 0.69413 0.0
H913 H 0.6615 0.20639 0.71655 0.0
H914 H 0.66611 0.17875 0.65845 0.0
H915 H 0.66019 0.16116 0.68093 0.0
H916 H 0.59991 0.11883 0.70775 0.0
H917 H 0.59646 0.09818 0.75545 0.0
H918 H 0.61878 0.12048 0.76958 0.0
H919 H 0.6226 0.14074 0.72191 0.0
C920 C 0.99243 0.3731 0.328 0.0
C921 C 0.99794 0.38299 0.31567 0.0
C922 C 0.99616 0.35763 0.29529 0.0
C923 C 0.99988 0.37535 0.29954 0.0
C924 C 0.99056 0.34769 0.30767 0.0
C925 C 0.98869 0.3554 0.32396 0.0
U926 U 0.99208 0.41458 0.35312 0.0
O927 O 0.9768 0.4243 0.37268 0.0
O928 O 0.00471 0.42678 0.37802 0.0
C929 C 0.99026 0.42863 0.38413 0.0
C930 C 0.99047 0.38173 0.34479 0.0
C931 C 0.98911 0.42255 0.4007 0.0
C932 C 0.99322 0.40094 0.41948 0.0
C933 C 0.99223 0.40593 0.40315 0.0
C934 C 0.98719 0.4289 0.43086 0.0
C935 C 0.99106 0.4125 0.43356 0.0
C936 C 0.98627 0.43389 0.41454 0.0
C937 C 1.00003 0.45247 0.32897 0.0
C938 C 0.99712 0.48117 0.34103 0.0
C939 C 0.01406 0.47663 0.31779 0.0
C940 C 0.01028 0.45905 0.31745 0.0
C941 C 0.00756 0.48789 0.32961 0.0
C942 C 0.99348 0.46359 0.3408 0.0
C943 C 0.99732 0.43404 0.3293 0.0
O944 O 0.00437 0.39114 0.35252 0.0
O945 O 0.9768 0.38963 0.34508 0.0
O946 O 0.98201 0.4277 0.332 0.0
O947 O 0.00965 0.42802 0.33825 0.0
H948 H 1.00085 0.39669 0.31857 0.0
H949 H 0.00454 0.38337 0.29048 0.0
H950 H 0.98745 0.33401 0.30472 0.0
H951 H 0.98431 0.34762 0.33333 0.0
H952 H 0.99639 0.38829 0.42115 0.0
H953 H 0.9945 0.39705 0.39255 0.0
H954 H 0.9852 0.43799 0.44141 0.0
H955 H 0.98383 0.44676 0.41281 0.0
H956 H 0.99167 0.48948 0.35011 0.0
H957 H 0.02233 0.48138 0.30898 0.0
H958 H 0.0156 0.45059 0.3084 0.0
H959 H 0.98569 0.45869 0.34993 0.0
C960 C 0.29375 0.51191 0.64448 0.0
N961 N 0.28947 0.52543 0.63664 0.0
N962 N 0.30003 0.50042 0.63357 0.0
C963 C 0.29268 0.5105 0.66301 0.0
C964 C 0.29915 0.50754 0.61875 0.0
N965 N 0.29289 0.5227 0.62069 0.0
C966 C 0.30376 0.49946 0.60216 0.0
H967 H 0.30301 0.50362 0.66839 0.0
H968 H 0.28024 0.50328 0.6643 0.0
H969 H 0.29349 0.52329 0.67041 0.0
H970 H 0.30201 0.48536 0.6014 0.0
H971 H 0.31731 0.50383 0.60119 0.0
H972 H 0.29592 0.50332 0.59117 0.0
C973 C 0.32667 0.59639 0.00873 0.0
N974 N 0.32639 0.58005 1.00155 0.0
N975 N 0.31184 0.60265 0.00376 0.0
C976 C 0.34209 0.60668 0.01909 0.0
C977 C 0.30268 0.58936 0.9932 0.0
N978 N 0.31155 0.57583 0.9918 0.0
C979 C 0.28467 0.58906 0.98503 0.0
H980 H 0.34103 0.60628 0.03283 0.0
H981 H 0.34305 0.62016 0.01654 0.0
H982 H 0.35393 0.60138 0.0162 0.0
H983 H 0.28487 0.59261 0.97195 0.0
H984 H 0.2778 0.59812 0.99245 0.0
H985 H 0.27765 0.57606 0.98396 0.0
C986 C 0.69736 0.98922 0.31135 0.0
N987 N 0.68487 0.98019 0.31862 0.0
N988 N 0.70359 0.00682 0.31987 0.0
C989 C 0.7077 0.97835 0.30003 0.0
C990 C 0.70109 0.99831 0.33479 0.0
N991 N 0.68639 0.98847 0.33368 0.0
C992 C 0.71576 0.99299 0.34619 0.0
H993 H 0.71967 0.97653 0.30777 0.0
H994 H 0.71114 0.98292 0.28819 0.0
H995 H 0.70074 0.96566 0.29513 0.0
H996 H 0.71344 0.97926 0.34766 0.0
H997 H 0.71675 1.00004 0.35916 0.0
H998 H 0.72791 0.99479 0.34071 0.0
C999 C 0.72782 0.88374 0.98784 0.0
N1000 N 0.73609 0.89886 0.99558 0.0
N1001 N 0.7314 0.87105 0.99713 0.0
C1002 C 0.71519 0.8815 0.97197 0.0
C1003 C 0.74221 0.87899 0.01072 0.0
N1004 N 0.74518 0.89585 0.00971 0.0
C1005 C 0.74876 0.87053 0.02569 0.0
H1006 H 0.7021 0.8806 0.97565 0.0
H1007 H 0.71632 0.86957 0.96382 0.0
H1008 H 0.71711 0.89233 0.96445 0.0
H1009 H 0.74853 0.85662 0.02209 0.0
H1010 H 0.7406 0.87263 0.03598 0.0
H1011 H 0.76195 0.87626 0.03075 0.0
C1012 C 0.64135 0.29179 0.515 0.0
N1013 N 0.63334 0.28779 0.52848 0.0
N1014 N 0.63033 0.29689 0.50284 0.0
C1015 C 0.66024 0.29228 0.51444 0.0
C1016 C 0.61532 0.29587 0.50954 0.0
N1017 N 0.61716 0.29049 0.52516 0.0
C1018 C 0.59852 0.29857 0.50019 0.0
H1019 H 0.66728 0.29449 0.52748 0.0
H1020 H 0.66498 0.30246 0.50705 0.0
H1021 H 0.6629 0.27986 0.50816 0.0
H1022 H 0.59842 0.29565 0.48621 0.0
H1023 H 0.59642 0.31208 0.5031 0.0
H1024 H 0.58786 0.29043 0.50426 0.0
C1025 C 0.98576 0.72205 0.88114 0.0
N1026 N 0.99627 0.73153 0.89414 0.0
N1027 N 0.99149 0.72419 0.86603 0.0
C1028 C 0.97062 0.70977 0.88334 0.0
C1029 C 0.00591 0.73522 0.87032 0.0
N1030 N 0.00901 0.73954 0.88744 0.0
C1031 C 0.01729 0.74114 0.85766 0.0
H1032 H 0.9739 0.70237 0.89402 0.0
H1033 H 0.96603 0.70093 0.87155 0.0
H1034 H 0.96006 0.71704 0.88659 0.0
H1035 H 0.00957 0.74363 0.84594 0.0
H1036 H 0.02509 0.73092 0.854 0.0
H1037 H 0.0258 0.75294 0.86302 0.0
C1038 C 0.03255 0.34281 0.60151 0.0
N1039 N 0.02447 0.3409 0.58546 0.0
N1040 N 0.02711 0.32978 0.60989 0.0
C1041 C 0.04455 0.35821 0.60957 0.0
C1042 C 0.01501 0.32005 0.5983 0.0
N1043 N 0.01352 0.32674 0.58329 0.0
C1044 C 0.0035 0.30513 0.6023 0.0
H1045 H 0.05366 0.35481 0.61987 0.0
H1046 H 0.03706 0.36786 0.61524 0.0
H1047 H 0.05164 0.3639 0.59991 0.0
H1048 H 1.0005 0.30725 0.61559 0.0
H1049 H 0.01018 0.29361 0.60105 0.0
H1050 H 0.99146 0.30276 0.59346 0.0
C1051 C 0.30948 0.69323 0.99265 0.0
N1052 N 0.32552 0.69157 0.9831 0.0
N1053 N 0.32321 0.70106 0.01812 0.0
C1054 C 0.29143 0.69078 0.98252 0.0
C1055 C 0.34265 0.70103 0.01363 0.0
N1056 N 0.34224 0.6955 0.99405 0.0
C1057 C 0.35801 0.70148 0.0266 0.0
H1058 H 0.2851 0.70253 0.98318 0.0
H1059 H 0.28298 0.68027 0.98637 0.0
H1060 H 0.29223 0.68716 0.96883 0.0
H1061 H 0.35412 0.69767 0.03873 0.0
H1062 H 0.36488 0.71454 0.02918 0.0
H1063 H 0.36689 0.69282 0.02184 0.0
C1064 C 0.5144 0.6449 0.29303 0.0
N1065 N 0.527 0.6359 0.28831 0.0
N1066 N 0.50345 0.63543 0.30122 0.0
C1067 C 0.51227 0.66259 0.28895 0.0
C1068 C 0.50985 0.62031 0.30125 0.0
N1069 N 0.52408 0.62053 0.29328 0.0
C1070 C 0.50207 0.6053 0.30893 0.0
H1071 H 0.50431 0.66894 0.29771 0.0
H1072 H 0.50588 0.66175 0.27571 0.0
H1073 H 0.5248 0.67042 0.28974 0.0
H1074 H 0.49319 0.59695 0.29892 0.0
H1075 H 0.49473 0.60937 0.31937 0.0
H1076 H 0.51206 0.5978 0.31389 0.0
C1077 C 0.88928 0.99061 0.72379 0.0
N1078 N 0.90349 0.99985 0.73259 0.0
N1079 N 0.87533 0.99825 0.72666 0.0
C1080 C 0.88874 0.97392 0.71274 0.0
C1081 C 0.88146 0.01247 0.73746 0.0
N1082 N 0.89857 0.01338 0.74119 0.0
C1083 C 0.87089 0.02629 0.74262 0.0
H1084 H 0.89007 0.9764 0.69948 0.0
H1085 H 0.87634 0.96599 0.71262 0.0
H1086 H 0.89924 0.96682 0.7173 0.0
H1087 H 0.86054 0.02096 0.74948 0.0
H1088 H 0.86477 0.03084 0.73103 0.0
H1089 H 0.87852 0.03724 0.75088 0.0
C1090 C 0.60628 0.01595 0.33947 0.0
N1091 N 0.58963 0.00993 0.3385 0.0
N1092 N 0.61199 0.01268 0.3241 0.0
C1093 C 0.61703 0.02457 0.35551 0.0
C1094 C 0.59804 0.0043 0.31387 0.0
N1095 N 0.58445 0.00266 0.32268 0.0
C1096 C 0.59774 0.99745 0.29544 0.0
H1097 H 0.61736 0.03858 0.35578 0.0
H1098 H 0.63025 0.02135 0.35592 0.0
H1099 H 0.61173 0.02094 0.36708 0.0
H1100 H 0.60008 0.9839 0.29459 0.0
H1101 H 0.6077 0.00474 0.2895 0.0
H1102 H 0.58516 0.99794 0.28813 0.0
C1103 C 0.99136 0.30143 0.69813 0.0
N1104 N 0.97872 0.31413 0.69145 0.0
N1105 N 0.0106 0.312 0.70281 0.0
C1106 C 0.98636 0.28359 0.70152 0.0
C1107 C 0.00502 0.33659 0.6963 0.0
N1108 N 0.98587 0.3319 0.69032 0.0
C1109 C 0.01289 0.35558 0.69749 0.0
H1110 H 0.97265 0.27952 0.69719 0.0
H1111 H 0.98907 0.28289 0.71538 0.0
H1112 H 0.99425 0.27498 0.69488 0.0
H1113 H 0.02667 0.35889 0.6971 0.0
H1114 H 0.00953 0.36257 0.70926 0.0
H1115 H 0.0068 0.36149 0.68684 0.0
C1116 C 0.71487 0.49066 0.35784 0.0
N1117 N 0.72016 0.47883 0.3676 0.0
N1118 N 0.70777 0.50271 0.36721 0.0
C1119 C 0.71602 0.49004 0.33907 0.0
C1120 C 0.70904 0.49773 0.38303 0.0
N1121 N 0.71644 0.48318 0.38325 0.0
C1122 C 0.70427 0.50778 0.39858 0.0
H1123 H 0.72814 0.4975 0.33721 0.0
H1124 H 0.70531 0.49573 0.33265 0.0
H1125 H 0.71596 0.47675 0.3331 0.0
H1126 H 0.69077 0.50365 0.39996 0.0
H1127 H 0.70569 0.52162 0.3974 0.0
H1128 H 0.71232 0.50558 0.41025 0.0
C1129 C 0.65716 0.40077 0.9921 0.0
N1130 N 0.66019 0.41758 0.99777 0.0
N1131 N 0.67161 0.39326 0.99472 0.0
C1132 C 0.64 0.39167 0.98429 0.0
C1133 C 0.68354 0.4065 0.00207 0.0
N1134 N 0.67649 0.42123 0.00407 0.0
C1135 C 0.70211 0.4052 0.00715 0.0
H1136 H 0.63707 0.37985 0.99016 0.0
H1137 H 0.64019 0.38832 0.97043 0.0
H1138 H 0.62949 0.39949 0.9856 0.0
H1139 H 0.70607 0.39352 1.0006 0.0
H1140 H 0.70446 0.40524 0.02117 0.0
H1141 H 0.7102 0.41628 0.0039 0.0
C1142 C 0.27166 0.00871 0.67006 0.0
N1143 N 0.28556 0.017 0.66467 0.0
N1144 N 0.26906 0.99197 0.66324 0.0
C1145 C 0.25994 0.0173 0.68077 0.0
C1146 C 0.28196 0.99052 0.65356 0.0
N1147 N 0.292 0.00557 0.65461 0.0
C1148 C 0.28372 0.9748 0.64176 0.0
H1149 H 0.26744 0.02669 0.69094 0.0
H1150 H 0.25154 0.00798 0.68638 0.0
H1151 H 0.2518 0.02441 0.67261 0.0
H1152 H 0.27609 0.97534 0.62934 0.0
H1153 H 0.27881 0.96305 0.64673 0.0
H1154 H 0.29705 0.97387 0.63946 0.0
C1155 C 0.2867 0.12425 0.01604 0.0
N1156 N 0.2761 0.11038 0.00854 0.0
N1157 N 0.28338 0.13818 0.00844 0.0
C1158 C 0.30029 0.1241 0.03068 0.0
C1159 C 0.27039 0.13215 0.99597 0.0
N1160 N 0.2659 0.11527 0.99614 0.0
C1161 C 0.26357 0.14223 0.98235 0.0
H1162 H 0.29599 0.11485 0.03926 0.0
H1163 H 0.30363 0.13696 0.03802 0.0
H1164 H 0.31184 0.11999 0.02564 0.0
H1165 H 0.27359 0.15201 0.9796 0.0
H1166 H 0.25302 0.1488 0.98689 0.0
H1167 H 0.25855 0.13387 0.97036 0.0
C1168 C 0.35664 0.71214 0.48815 0.0
N1169 N 0.36508 0.71578 0.47477 0.0
N1170 N 0.36604 0.70348 0.4988 0.0
C1171 C 0.33957 0.71753 0.4911 0.0
C1172 C 0.38038 0.70193 0.49131 0.0
N1173 N 0.37978 0.70932 0.47677 0.0
C1174 C 0.39514 0.69344 0.49834 0.0
H1175 H 0.34153 0.73056 0.49817 0.0
H1176 H 0.33264 0.70901 0.49879 0.0
H1177 H 0.3316 0.71779 0.47879 0.0
H1178 H 0.39079 0.68327 0.50592 0.0
H1179 H 0.40433 0.70312 0.50677 0.0
H1180 H 0.40185 0.68789 0.48797 0.0
C1181 C 0.02545 0.28012 0.11787 0.0
N1182 N 0.01649 0.26974 0.10451 0.0
N1183 N 0.01968 0.27666 0.13264 0.0
C1184 C 0.03914 0.29429 0.11648 0.0
C1185 C 0.00679 0.26389 0.12771 0.0
N1186 N 0.00476 0.25971 0.1106 0.0
C1187 C 0.99462 0.25727 0.13936 0.0
H1188 H 0.04802 0.29718 0.12849 0.0
H1189 H 0.03316 0.30591 0.11415 0.0
H1190 H 0.04629 0.29086 0.10565 0.0
H1191 H 0.98644 0.26723 0.14284 0.0
H1192 H 1.00177 0.25445 0.15127 0.0
H1193 H 0.98643 0.24553 0.1332 0.0
C1194 C 0.98258 0.67734 0.40508 0.0
N1195 N 0.98876 0.67544 0.42121 0.0
N1196 N 0.98905 0.69267 0.40088 0.0
C1197 C 0.96987 0.66442 0.39367 0.0
C1198 C 0.99941 0.69988 0.41523 0.0
N1199 N 0.99918 0.68943 0.42752 0.0
C1200 C 0.00962 0.7172 0.41748 0.0
H1201 H 0.97199 0.66444 0.38019 0.0
H1202 H 0.95689 0.66782 0.39494 0.0
H1203 H 0.97034 0.65137 0.39713 0.0
H1204 H 0.00434 0.72538 0.40831 0.0
H1205 H 0.02298 0.71573 0.41546 0.0
H1206 H 0.00979 0.7235 0.43067 0.0
C1207 C 0.68602 0.3065 0.01717 0.0
N1208 N 0.67494 0.29937 0.03061 0.0
N1209 N 0.67163 0.29173 0.99516 0.0
C1210 C 0.70374 0.31721 0.02321 0.0
C1211 C 0.65716 0.28089 0.0033 0.0
N1212 N 0.65954 0.28644 0.02305 0.0
C1213 C 0.64831 0.26345 0.99555 0.0
H1214 H 0.7093 0.32546 0.01442 0.0
H1215 H 0.71311 0.30858 0.02706 0.0
H1216 H 0.70334 0.32605 0.03478 0.0
H1217 H 0.65758 0.25408 0.99525 0.0
H1218 H 0.64216 0.26387 0.98241 0.0
H1219 H 0.63889 0.25847 0.00363 0.0
C1220 C 0.48855 0.35635 0.71117 0.0
N1221 N 0.47577 0.36509 0.71593 0.0
N1222 N 0.4985 0.36546 0.70169 0.0
C1223 C 0.49135 0.339 0.7158 0.0
C1224 C 0.49121 0.38004 0.70087 0.0
N1225 N 0.47744 0.37981 0.70949 0.0
C1226 C 0.49801 0.39482 0.69229 0.0
H1227 H 0.49941 0.3405 0.7283 0.0
H1228 H 0.49801 0.33208 0.70617 0.0
H1229 H 0.47908 0.33142 0.71698 0.0
H1230 H 0.49208 0.39306 0.67883 0.0
H1231 H 0.51203 0.39548 0.69243 0.0
H1232 H 0.49483 0.40703 0.69857 0.0
C1233 C 0.12285 0.02209 0.28131 0.0
N1234 N 0.10948 0.01218 0.27189 0.0
N1235 N 0.13772 0.01691 0.27735 0.0
C1236 C 0.12133 0.03569 0.29557 0.0
C1237 C 0.13282 0.00358 0.26499 0.0
N1238 N 0.11559 1.00041 0.26188 0.0
C1239 C 0.14507 0.99346 0.25635 0.0
H1240 H 0.11225 0.04437 0.29116 0.0
H1241 H 0.13384 0.04324 0.30036 0.0
H1242 H 0.11619 0.02962 0.30614 0.0
H1243 H 0.15051 0.98506 0.26521 0.0
H1244 H 0.15576 0.00212 0.25308 0.0
H1245 H 0.13879 0.98567 0.24442 0.0
C1246 C 0.40802 0.00458 0.67269 0.0
N1247 N 0.42435 0.00929 0.67042 0.0
N1248 N 0.40203 0.01724 0.68222 0.0
C1249 C 0.39842 0.98716 0.66693 0.0
C1250 C 0.41526 0.02982 0.68559 0.0
N1251 N 0.42887 0.02504 0.67836 0.0
C1252 C 0.41458 0.04695 0.6954 0.0
H1253 H 0.39017 0.98758 0.65484 0.0
H1254 H 0.39013 0.98327 0.67652 0.0
H1255 H 0.40722 0.97749 0.66468 0.0
H1256 H 0.4182 0.04632 0.70916 0.0
H1257 H 0.40147 0.05055 0.6937 0.0
H1258 H 0.42356 0.05688 0.69122 0.0
C1259 C 0.01353 0.69666 0.31553 0.0
N1260 N 0.0212 0.67916 0.31596 0.0
N1261 N 0.98868 0.68631 0.30232 0.0
C1262 C 0.02499 0.71393 0.32135 0.0
C1263 C 0.99066 0.66615 0.29967 0.0
N1264 N 0.00914 0.66348 0.30803 0.0
C1265 C 0.98025 0.65425 0.28516 0.0
H1266 H 0.01894 0.7253 0.32545 0.0
H1267 H 0.03267 0.71696 0.31101 0.0
H1268 H 0.03424 0.71289 0.3324 0.0
H1269 H 0.97676 0.66143 0.27438 0.0
H1270 H 0.96818 0.64875 0.28927 0.0
H1271 H 0.98754 0.64396 0.28048 0.0
H1272 H 0.17666 0.67966 0.38347 0.0
H1273 H 0.14694 0.68295 0.37434 0.0
H1274 H 0.15119 0.65858 0.32409 0.0
H1275 H 0.18089 0.6553 0.3331 0.0
H1276 H 0.13397 0.68509 0.32139 0.0
H1277 H 0.13062 0.63761 0.35428 0.0
H1278 H 0.13606 0.62285 0.37965 0.0
H1279 H 0.11182 0.6595 0.40911 0.0
H1280 H 0.10644 0.67461 0.38397 0.0
H1281 H 0.04322 0.66951 0.29401 0.0
H1282 H 0.07387 0.66796 0.30073 0.0
H1283 H 0.07183 0.68977 0.35244 0.0
H1284 H 0.04178 0.69137 0.34585 0.0
H1285 H 0.08799 0.66369 0.35365 0.0
H1286 H 0.09132 0.71152 0.32196 0.0
H1287 H 0.08548 0.72698 0.29717 0.0
H1288 H 0.10943 0.69122 0.26632 0.0
H1289 H 0.11519 0.67538 0.29087 0.0
C1290 C 0.17126 0.67486 0.37051 0.0
C1291 C 0.1813 0.66716 0.35908 0.0
C1292 C 0.1542 0.67677 0.36527 0.0
C1293 C 0.1466 0.67084 0.34852 0.0
C1294 C 0.15665 0.66332 0.33705 0.0
C1295 C 0.17371 0.66147 0.34225 0.0
C1296 C 0.12823 0.67234 0.34296 0.0
C1297 C 0.1239 0.68021 0.32834 0.0
C1298 C 0.11498 0.66638 0.35216 0.0
C1299 C 0.11829 0.65733 0.36729 0.0
C1300 C 0.12658 0.6426 0.36621 0.0
C1301 C 0.12962 0.63416 0.38054 0.0
C1302 C 0.12433 0.64026 0.39599 0.0
C1303 C 0.11594 0.6548 0.39714 0.0
C1304 C 0.11289 0.6633 0.38285 0.0
C1305 C 0.04935 0.67401 0.30678 0.0
C1306 C 0.0396 0.67951 0.31961 0.0
C1307 C 0.06693 0.67317 0.31063 0.0
C1308 C 0.07527 0.67845 0.32726 0.0
C1309 C 0.06574 0.68508 0.33967 0.0
C1310 C 0.04827 0.68573 0.33589 0.0
C1311 C 0.09369 0.67661 0.33218 0.0
C1312 C 0.09803 0.6686 0.34667 0.0
C1313 C 0.10691 0.68262 0.32297 0.0
C1314 C 0.10352 0.69215 0.30821 0.0
C1315 C 0.09522 0.70687 0.30985 0.0
C1316 C 0.09194 0.71571 0.29585 0.0
C1317 C 0.09704 0.71006 0.28017 0.0
C1318 C 0.10546 0.69557 0.27847 0.0
C1319 C 0.10874 0.68665 0.29242 0.0
H1320 H 0.09449 0.71693 0.26934 0.0
H1321 H 0.12669 0.6337 0.40707 0.0
H1322 H 0.33225 0.32806 0.77001 0.0
H1323 H 0.35832 0.32692 0.7563 0.0
H1324 H 0.38859 0.34681 0.80407 0.0
H1325 H 0.36282 0.34735 0.81801 0.0
H1326 H 0.39236 0.3667 0.77599 0.0
H1327 H 0.39371 0.30986 0.78994 0.0
H1328 H 0.38272 0.27978 0.79065 0.0
H1329 H 0.37701 0.27108 0.73597 0.0
H1330 H 0.38774 0.30119 0.73492 0.0
H1331 H 0.47417 0.37281 0.74948 0.0
H1332 H 0.45023 0.36467 0.76519 0.0
H1333 H 0.4228 0.33629 0.7191 0.0
H1334 H 0.44688 0.34457 0.70349 0.0
H1335 H 0.4178 0.31921 0.74662 0.0
H1336 H 0.41259 0.3745 0.7316 0.0
H1337 H 0.42126 0.40439 0.72874 0.0
H1338 H 0.43176 0.41615 0.78314 0.0
H1339 H 0.42318 0.38598 0.78633 0.0
C1340 C 0.34446 0.33171 0.77773 0.0
C1341 C 0.34533 0.33814 0.79508 0.0
C1342 C 0.35937 0.33107 0.76985 0.0
C1343 C 0.37541 0.3369 0.77914 0.0
C1344 C 0.37636 0.34235 0.79663 0.0
C1345 C 0.36155 0.34279 0.80453 0.0
C1346 C 0.3909 0.33947 0.77034 0.0
C1347 C 0.39811 0.35627 0.76987 0.0
C1348 C 0.39802 0.32591 0.76179 0.0
C1349 C 0.39132 0.30786 0.76235 0.0
C1350 C 0.3899 0.3016 0.77806 0.0
C1351 C 0.38377 0.28452 0.77852 0.0
C1352 C 0.37911 0.27354 0.76336 0.0
C1353 C 0.38059 0.27961 0.74771 0.0
C1354 C 0.38671 0.29668 0.74717 0.0
C1355 C 0.46302 0.3648 0.74282 0.0
C1356 C 0.46218 0.35941 0.72533 0.0
C1357 C 0.44937 0.3601 0.75174 0.0
C1358 C 0.43458 0.34995 0.74333 0.0
C1359 C 0.43403 0.34407 0.72592 0.0
C1360 C 0.4477 0.34884 0.71699 0.0
C1361 C 0.41934 0.34648 0.75245 0.0
C1362 C 0.41214 0.32959 0.75291 0.0
C1363 C 0.41196 0.35994 0.76085 0.0
C1364 C 0.41747 0.37798 0.75917 0.0
C1365 C 0.41691 0.38341 0.74295 0.0
C1366 C 0.42176 0.40045 0.74128 0.0
C1367 C 0.42713 0.41228 0.75573 0.0
C1368 C 0.42763 0.407 0.77194 0.0
C1369 C 0.42275 0.38991 0.7737 0.0
H1370 H 0.43086 0.4255 0.75436 0.0
H1371 H 0.3744 0.26032 0.76375 0.0
H1372 H 0.53915 0.98882 0.5738 0.0
H1373 H 0.512 0.98472 0.58539 0.0
H1374 H 0.53709 0.00495 0.63552 0.0
H1375 H 0.5642 0.00958 0.62401 0.0
H1376 H 0.51553 0.97403 0.63457 0.0
H1377 H 0.5144 0.02947 0.61473 0.0
H1378 H 0.5156 0.04963 0.59335 0.0
H1379 H 0.47327 0.01926 0.56193 0.0
H1380 H 0.47194 0.99882 0.58306 0.0
H1381 H 0.45387 1.00033 0.68424 0.0
H1382 H 0.47661 0.99197 0.66835 0.0
H1383 H 0.44224 0.98572 0.6215 0.0
H1384 H 0.41991 0.99584 0.6375 0.0
H1385 H 0.46709 0.00519 0.61731 0.0
H1386 H 0.46554 0.95141 0.63928 0.0
H1387 H 0.46407 0.93195 0.66129 0.0
H1388 H 0.51069 0.95843 0.68872 0.0
H1389 H 0.51239 0.97811 0.66695 0.0
C1390 C 0.53886 0.99266 0.58725 0.0
C1391 C 0.55386 0.99953 0.59799 0.0
C1392 C 0.52336 0.99018 0.59385 0.0
C1393 C 0.52261 0.99448 0.61129 0.0
C1394 C 0.53749 1.0014 0.62204 0.0
C1395 C 0.55296 0.004 0.61544 0.0
C1396 C 0.5063 0.99187 0.61842 0.0
C1397 C 0.50486 0.9808 0.63086 0.0
C1398 C 0.49231 1.0003 0.61311 0.0
C1399 C 0.49322 0.0125 0.60035 0.0
C1400 C 0.50547 0.027 0.60318 0.0
C1401 C 0.50614 0.0385 0.59113 0.0
C1402 C 0.49456 0.03569 0.57626 0.0
C1403 C 0.48226 0.0214 0.57343 0.0
C1404 C 0.48153 0.00986 0.58544 0.0
C1405 C 0.45114 0.99671 0.6706 0.0
C1406 C 0.43546 0.99912 0.66193 0.0
C1407 C 0.46409 0.99172 0.66149 0.0
C1408 C 0.4613 0.98822 0.64363 0.0
C1409 C 0.44484 0.98855 0.63523 0.0
C1410 C 0.43203 0.99414 0.64433 0.0
C1411 C 0.47607 0.98731 0.63375 0.0
C1412 C 0.47738 0.99787 0.62078 0.0
C1413 C 0.48988 0.97828 0.63852 0.0
C1414 C 0.48908 0.96622 0.65145 0.0
C1415 C 0.47546 0.95309 0.65001 0.0
C1416 C 0.4746 0.94202 0.66245 0.0
C1417 C 0.48729 0.94395 0.67639 0.0
C1418 C 0.5009 0.95692 0.67789 0.0
C1419 C 0.50186 0.96799 0.66547 0.0
H1420 H 0.48657 0.93539 0.68602 0.0
H1421 H 0.49509 0.04462 0.56695 0.0
H1422 H 0.94753 0.99463 0.27612 0.0
H1423 H 0.97842 0.99503 0.28198 0.0
H1424 H 0.98582 0.04171 0.25931 0.0
H1425 H 0.95497 0.04118 0.25319 0.0
H1426 H 0.00297 0.01879 0.2454 0.0
H1427 H 0.99592 0.04004 0.3027 0.0
H1428 H 0.98393 0.04013 0.32998 0.0
H1429 H 0.00219 0.9923 0.33719 0.0
H1430 H 0.01409 0.9918 0.30982 0.0
H1431 H 0.09196 0.03727 0.26298 0.0
H1432 H 0.06136 0.0386 0.26349 0.0
H1433 H 0.05671 0.99052 0.28401 0.0
H1434 H 0.08753 0.98957 0.28392 0.0
H1435 H 0.03815 0.01301 0.29944 0.0
H1436 H 0.04545 0.99237 0.24171 0.0
H1437 H 0.05683 0.99277 0.21408 0.0
H1438 H 0.03777 0.0403 0.20777 0.0
H1439 H 0.02641 0.04038 0.23537 0.0
C1440 C 0.95577 0.00518 0.27277 0.0
C1441 C 0.94891 0.01781 0.26409 0.0
C1442 C 0.97341 0.0054 0.27614 0.0
C1443 C 0.98443 0.0184 0.27107 0.0
C1444 C 0.97755 0.0315 0.26323 0.0
C1445 C 0.95995 0.03119 0.25973 0.0
C1446 C 0.00302 0.01749 0.2723 0.0
C1447 C 0.01071 0.01782 0.25729 0.0
C1448 C 0.01297 0.01558 0.28769 0.0
C1449 C 0.00574 0.0158 0.30411 0.0
C1450 C 0.99724 0.02946 0.31002 0.0
C1451 C 0.99049 0.0296 0.32552 0.0
C1452 C 0.99225 0.0162 0.33529 0.0
C1453 C 1.0008 0.00265 0.32959 0.0
C1454 C 0.00757 0.00245 0.3141 0.0
C1455 C 0.08435 0.02718 0.26781 0.0
C1456 C 0.09183 0.01333 0.27337 0.0
C1457 C 0.06693 0.02783 0.26797 0.0
C1458 C 0.05674 0.01451 0.27352 0.0
C1459 C 0.06435 1.00089 0.27962 0.0
C1460 C 0.08183 1.00031 0.27954 0.0
C1461 C 0.03809 0.01471 0.2726 0.0
C1462 C 0.03038 0.01406 0.2876 0.0
C1463 C 0.02807 0.01641 0.25719 0.0
C1464 C 0.03521 0.01646 0.24071 0.0
C1465 C 0.04382 0.003 0.23452 0.0
C1466 C 0.05024 0.00311 0.21885 0.0
C1467 C 0.04807 0.01653 0.20924 0.0
C1468 C 0.03947 0.02991 0.21524 0.0
C1469 C 0.03302 0.02988 0.23088 0.0
H1470 H 0.05303 0.01654 0.19711 0.0
H1471 H 0.98703 0.01634 0.34729 0.0
H1472 H 0.37811 0.15593 0.65194 0.0
H1473 H 0.36353 0.1278 0.65446 0.0
H1474 H 0.32301 0.15122 0.67573 0.0
H1475 H 0.33768 0.17954 0.67342 0.0
H1476 H 0.33258 0.12432 0.69312 0.0
H1477 H 0.31789 0.134 0.63458 0.0
H1478 H 0.32441 0.14072 0.6063 0.0
H1479 H 0.35185 0.09728 0.60089 0.0
H1480 H 0.34575 0.09046 0.62926 0.0
H1481 H 0.27022 0.04345 0.65448 0.0
H1482 H 0.28345 0.07309 0.65546 0.0
H1483 H 0.3295 0.06055 0.68238 0.0
H1484 H 0.31634 0.03076 0.681 0.0
H1485 H 0.31594 0.08245 0.64134 0.0
H1486 H 0.34349 0.10254 0.71216 0.0
H1487 H 0.33793 0.09601 0.74075 0.0
H1488 H 0.28556 0.07879 0.72186 0.0
H1489 H 0.2905 0.08615 0.69342 0.0
C1490 C 0.36617 0.15518 0.65731 0.0
C1491 C 0.35913 0.17015 0.66246 0.0
C1492 C 0.35776 0.139 0.65864 0.0
C1493 C 0.34204 0.13724 0.66519 0.0
C1494 C 0.33509 0.15214 0.67061 0.0
C1495 C 0.34344 0.16837 0.66914 0.0
C1496 C 0.33273 0.11989 0.66597 0.0
C1497 C 0.32896 0.11517 0.6818 0.0
C1498 C 0.32797 0.10782 0.65124 0.0
C1499 C 0.33148 0.11181 0.6341 0.0
C1500 C 0.32542 0.12595 0.62741 0.0
C1501 C 0.32903 0.12977 0.61135 0.0
C1502 C 0.33857 0.11945 0.60182 0.0
C1503 C 0.34449 0.10527 0.60829 0.0
C1504 C 0.34094 0.10142 0.62436 0.0
C1505 C 0.28299 0.04717 0.66099 0.0
C1506 C 0.29216 0.03494 0.66795 0.0
C1507 C 0.29062 0.06403 0.66138 0.0
C1508 C 0.30748 0.06912 0.66907 0.0
C1509 C 0.31646 0.057 0.67654 0.0
C1510 C 0.30893 0.04006 0.67585 0.0
C1511 C 0.31591 0.08682 0.6685 0.0
C1512 C 0.31958 0.09157 0.65269 0.0
C1513 C 0.32077 0.09878 0.6833 0.0
C1514 C 0.31748 0.09457 0.70048 0.0
C1515 C 0.33075 0.09745 0.71409 0.0
C1516 C 0.3277 0.09365 0.73031 0.0
C1517 C 0.31148 0.08675 0.73306 0.0
C1518 C 0.29818 0.08397 0.71967 0.0
C1519 C 0.30109 0.08801 0.7035 0.0
H1520 H 0.30919 0.08369 0.74559 0.0
H1521 H 0.34136 0.12243 0.58939 0.0
H1522 H 0.27853 0.94842 0.99824 0.0
H1523 H 0.28509 0.97939 0.99935 0.0
H1524 H 0.25209 0.9867 0.03834 0.0
H1525 H 0.24567 0.95587 0.03747 0.0
H1526 H 0.24424 0.0037 0.01069 0.0
H1527 H 0.29487 0.99586 0.0477 0.0
H1528 H 0.32148 0.98346 0.05464 0.0
H1529 H 0.34205 0.00356 0.01229 0.0
H1530 H 0.31548 0.01589 0.00496 0.0
H1531 H 0.25499 0.09288 0.02622 0.0
H1532 H 0.25426 0.06266 0.03023 0.0
H1533 H 0.29666 0.05876 1.00104 0.0
H1534 H 0.29822 0.08936 0.9986 0.0
H1535 H 0.3003 0.03943 0.0231 0.0
H1536 H 0.25166 0.04676 0.98479 0.0
H1537 H 0.22527 0.0584 0.97522 0.0
H1538 H 0.20079 0.03777 0.01512 0.0
H1539 H 0.22715 0.02639 0.02529 0.0
C1540 C 0.273 0.95663 0.00734 0.0
C1541 C 0.26143 0.9497 0.01763 0.0
C1542 C 0.27674 0.97431 0.00793 0.0
C1543 C 0.26902 0.98532 0.01889 0.0
C1544 C 0.25809 0.97842 0.02971 0.0
C1545 C 0.25439 0.9608 0.02915 0.0
C1546 C 0.27109 0.00396 0.01814 0.0
C1547 C 0.25646 0.0116 0.01363 0.0
C1548 C 0.28714 0.01405 0.02122 0.0
C1549 C 0.30312 0.00667 0.0257 0.0
C1550 C 0.30501 0.99752 0.03979 0.0
C1551 C 0.3201 0.99053 0.04381 0.0
C1552 C 0.33343 0.99269 0.03389 0.0
C1553 C 0.33171 0.00188 0.01995 0.0
C1554 C 0.31665 0.00889 0.01587 0.0
C1555 C 0.26427 0.08549 0.021 0.0
C1556 C 0.27656 0.09312 0.01202 0.0
C1557 C 0.26376 0.06823 0.02306 0.0
C1558 C 0.27504 0.05817 0.01544 0.0
C1559 C 0.28774 0.06611 0.00698 0.0
C1560 C 0.28863 0.08351 0.00551 0.0
C1561 C 0.27334 0.03938 0.01587 0.0
C1562 C 0.28803 0.03164 0.02018 0.0
C1563 C 0.25736 0.02905 0.0121 0.0
C1564 C 0.24146 0.03585 0.00591 0.0
C1565 C 0.2407 0.0448 0.99161 0.0
C1566 C 0.22574 0.05136 0.98607 0.0
C1567 C 0.21138 0.04883 0.99452 0.0
C1568 C 0.21193 0.03974 0.00858 0.0
C1569 C 0.22689 0.03326 0.01427 0.0
H1570 H 0.19982 0.0539 0.99017 0.0
H1571 H 0.3451 0.98726 0.03703 0.0
H1572 H 0.77872 0.33521 0.32604 0.0
H1573 H 0.76241 0.35974 0.32595 0.0
H1574 H 0.80338 0.39055 0.35933 0.0
H1575 H 0.81959 0.36629 0.3596 0.0
H1576 H 0.77211 0.39014 0.37164 0.0
H1577 H 0.79599 0.39836 0.31981 0.0
H1578 H 0.80201 0.39059 0.29042 0.0
H1579 H 0.74843 0.38316 0.27281 0.0
H1580 H 0.74206 0.39064 0.30217 0.0
H1581 H 0.75359 0.47679 0.36753 0.0
H1582 H 0.76715 0.45094 0.36054 0.0
H1583 H 0.71759 0.42163 0.34786 0.0
H1584 H 0.70411 0.44747 0.35558 0.0
H1585 H 0.7506 0.41992 0.32361 0.0
H1586 H 0.72674 0.40867 0.37577 0.0
H1587 H 0.72095 0.41363 0.40561 0.0
H1588 H 0.77455 0.42555 0.42226 0.0
H1589 H 0.78064 0.42088 0.39245 0.0
C1590 C 0.78431 0.34727 0.33321 0.0
C1591 C 0.80048 0.34873 0.34286 0.0
C1592 C 0.77503 0.36131 0.33304 0.0
C1593 C 0.78167 0.377 0.34264 0.0
C1594 C 0.798 0.37859 0.3518 0.0
C1595 C 0.80731 0.36469 0.35185 0.0
C1596 C 0.77116 0.3913 0.34466 0.0
C1597 C 0.76751 0.39669 0.36111 0.0
C1598 C 0.76473 0.39957 0.33087 0.0
C1599 C 0.76853 0.39483 0.31325 0.0
C1600 C 0.78547 0.39486 0.30972 0.0
C1601 C 0.78895 0.39056 0.29305 0.0
C1602 C 0.77561 0.38632 0.27977 0.0
C1603 C 0.75875 0.3864 0.28313 0.0
C1604 C 0.7552 0.39068 0.29978 0.0
C1605 C 0.74569 0.4648 0.36318 0.0
C1606 C 0.72791 0.46393 0.3622 0.0
C1607 C 0.75338 0.4501 0.35919 0.0
C1608 C 0.74337 0.43437 0.35376 0.0
C1609 C 0.72553 0.43363 0.35209 0.0
C1610 C 0.71786 0.4483 0.35647 0.0
C1611 C 0.75174 0.41871 0.35061 0.0
C1612 C 0.75506 0.41319 0.33404 0.0
C1613 C 0.75783 0.41015 0.36423 0.0
C1614 C 0.75412 0.41468 0.38188 0.0
C1615 C 0.73726 0.41273 0.38575 0.0
C1616 C 0.73394 0.41532 0.40267 0.0
C1617 C 0.7474 0.41976 0.41582 0.0
C1618 C 0.76416 0.42202 0.41206 0.0
C1619 C 0.76755 0.41943 0.39516 0.0
H1620 H 0.74486 0.42145 0.42893 0.0
H1621 H 0.77834 0.38303 0.26687 0.0
H1622 H 0.61182 0.55734 0.98887 0.0
H1623 H 0.61986 0.52862 0.98787 0.0
H1624 H 0.57319 0.5113 0.00706 0.0
H1625 H 0.56536 0.54032 0.00884 0.0
H1626 H 0.6006 0.49927 0.0228 0.0
H1627 H 0.57676 0.5016 0.96538 0.0
H1628 H 0.5728 0.51423 0.93849 0.0
H1629 H 0.62539 0.51164 0.93221 0.0
H1630 H 0.62973 0.49923 0.95917 0.0
H1631 H 0.63037 0.41789 0.01106 0.0
H1632 H 0.61124 0.43996 0.00958 0.0
H1633 H 0.64672 0.4687 0.98286 0.0
H1634 H 0.66457 0.44565 0.98262 0.0
H1635 H 0.61732 0.47113 0.96946 0.0
H1636 H 0.64244 0.4756 0.03014 0.0
H1637 H 0.64681 0.46474 0.05809 0.0
H1638 H 0.59277 0.45513 0.05829 0.0
H1639 H 0.58801 0.46604 0.03053 0.0
C1640 C 0.60335 0.54748 0.99306 0.0
C1641 C 0.58796 0.55104 0.99892 0.0
C1642 C 0.60785 0.53105 0.99227 0.0
C1643 C 0.59693 0.51785 0.99708 0.0
C1644 C 0.58167 0.52135 0.00315 0.0
C1645 C 0.57718 0.53785 0.00404 0.0
C1646 C 0.60184 0.5005 0.99605 0.0
C1647 C 0.60401 0.49292 0.01109 0.0
C1648 C 0.60623 0.49234 0.98075 0.0
C1649 C 0.60357 0.49951 0.96434 0.0
C1650 C 0.58749 0.50378 0.9583 0.0
C1651 C 0.58519 0.51091 0.94304 0.0
C1652 C 0.59883 0.51374 0.93365 0.0
C1653 C 0.61482 0.50942 0.93948 0.0
C1654 C 0.6172 0.50231 0.95473 0.0
C1655 C 0.63361 0.42869 0.00436 0.0
C1656 C 0.64853 0.43001 0.99646 0.0
C1657 C 0.62295 0.44145 0.00385 0.0
C1658 C 0.62764 0.45613 0.99631 0.0
C1659 C 0.6427 0.45743 0.98861 0.0
C1660 C 0.65293 0.44438 0.98851 0.0
C1661 C 0.61725 0.47042 0.99647 0.0
C1662 C 0.61376 0.47732 0.98116 0.0
C1663 C 0.61185 0.47805 0.01157 0.0
C1664 C 0.61487 0.47146 0.02821 0.0
C1665 C 0.6315 0.4711 0.03613 0.0
C1666 C 0.63405 0.46496 0.05191 0.0
C1667 C 0.62011 0.45915 0.05986 0.0
C1668 C 0.60356 0.45958 0.05211 0.0
C1669 C 0.60092 0.46579 0.03639 0.0
H1670 H 0.62214 0.45438 0.07205 0.0
H1671 H 0.59703 0.51928 0.92186 0.0
H1672 H 0.64149 0.35281 0.17221 0.0
H1673 H 0.64866 0.33904 0.14551 0.0
H1674 H 0.70215 0.35133 0.16381 0.0
H1675 H 0.69506 0.36598 0.19032 0.0
H1676 H 0.6975 0.35739 0.1326 0.0
H1677 H 0.68088 0.30946 0.16012 0.0
H1678 H 0.66284 0.29104 0.17569 0.0
H1679 H 0.6226 0.28486 0.134 0.0
H1680 H 0.64031 0.30344 0.11827 0.0
H1681 H 0.68404 0.28026 0.05596 0.0
H1682 H 0.68883 0.29035 0.08684 0.0
H1683 H 0.68099 0.34109 0.07582 0.0
H1684 H 0.67795 0.33137 0.04567 0.0
H1685 H 0.66884 0.3006 0.10624 0.0
H1686 H 0.69367 0.37197 0.10541 0.0
H1687 H 0.71282 0.38921 0.08984 0.0
H1688 H 0.74054 0.34664 0.07961 0.0
H1689 H 0.72168 0.32917 0.0953 0.0
C1690 C 0.65481 0.35271 0.1706 0.0
C1691 C 0.66767 0.36062 0.18354 0.0
C1692 C 0.6589 0.34457 0.15533 0.0
C1693 C 0.67598 0.34383 0.15262 0.0
C1694 C 0.68887 0.3516 0.16555 0.0
C1695 C 0.68478 0.35985 0.18082 0.0
C1696 C 0.68026 0.33559 0.13603 0.0
C1697 C 0.69136 0.3449 0.12692 0.0
C1698 C 0.67263 0.31909 0.12866 0.0
C1699 C 0.6619 0.30794 0.13807 0.0
C1700 C 0.66814 0.30427 0.15432 0.0
C1701 C 0.65798 0.29379 0.16317 0.0
C1702 C 0.64157 0.28681 0.15585 0.0
C1703 C 0.63531 0.29028 0.13966 0.0
C1704 C 0.64541 0.30077 0.13076 0.0
C1705 C 0.68407 0.29365 0.06031 0.0
C1706 C 0.68063 0.30507 0.0485 0.0
C1707 C 0.68662 0.29943 0.07791 0.0
C1708 C 0.68556 0.31665 0.08391 0.0
C1709 C 0.68267 0.32798 0.07188 0.0
C1710 C 0.68076 0.32238 0.05452 0.0
C1711 C 0.68569 0.32262 0.1025 0.0
C1712 C 0.67532 0.31293 0.11201 0.0
C1713 C 0.69431 0.33863 0.11037 0.0
C1714 C 0.70623 0.34924 0.10155 0.0
C1715 C 0.70397 0.36633 0.10002 0.0
C1716 C 0.71474 0.37613 0.09111 0.0
C1717 C 0.72788 0.36902 0.08374 0.0
C1718 C 0.73034 0.35212 0.08532 0.0
C1719 C 0.71961 0.34226 0.09422 0.0
H1720 H 0.73616 0.37661 0.07679 0.0
H1721 H 0.63373 0.27869 0.16272 0.0
H1722 H 0.01019 0.23464 0.94626 0.0
H1723 H 0.01226 0.23976 0.97724 0.0
H1724 H 0.0191 0.294 0.97529 0.0
H1725 H 0.01688 0.28896 0.94404 0.0
H1726 H 0.04005 0.28453 0.00208 0.0
H1727 H 0.98138 0.27635 0.98062 0.0
H1728 H 0.95495 0.26259 0.9631 0.0
H1729 H 0.9579 0.21758 0.98793 0.0
H1730 H 0.98455 0.23095 0.0054 0.0
H1731 H 0.01151 0.29667 0.08747 0.0
H1732 H 0.01183 0.29763 0.05664 0.0
H1733 H 0.02299 0.24563 0.05077 0.0
H1734 H 0.02369 0.24509 0.08165 0.0
H1735 H 0.99165 0.25779 0.02825 0.0
H1736 H 0.05315 0.26618 0.04677 0.0
H1737 H 0.07847 0.28144 0.0651 0.0
H1738 H 0.06814 0.32834 0.04642 0.0
H1739 H 0.04257 0.31336 0.02815 0.0
C1740 C 0.01211 0.24768 0.95238 0.0
C1741 C 0.01306 0.26141 0.94267 0.0
C1742 C 0.01335 0.25058 0.9701 0.0
C1743 C 0.01551 0.26726 0.97853 0.0
C1744 C 0.01735 0.28103 0.969 0.0
C1745 C 0.0161 0.27813 0.95118 0.0
C1746 C 0.01509 0.27004 0.99722 0.0
C1747 C 0.02936 0.27891 0.00777 0.0
C1748 C 1.00111 0.26275 0.00469 0.0
C1749 C 0.98507 0.25461 0.99422 0.0
C1750 C 0.97649 0.26346 0.98224 0.0
C1751 C 0.96145 0.25573 0.97233 0.0
C1752 C 0.95477 0.2392 0.97437 0.0
C1753 C 0.96311 0.23037 0.98635 0.0
C1754 C 0.97818 0.23802 0.99626 0.0
C1755 C 0.01433 0.28562 0.07955 0.0
C1756 C 0.01747 0.27074 0.08671 0.0
C1757 C 0.0144 0.28612 0.06204 0.0
C1758 C 0.01737 0.27167 0.05153 0.0
C1759 C 0.02059 0.25686 0.05872 0.0
C1760 C 0.02088 0.2565 0.07624 0.0
C1761 C 0.01676 0.27175 0.03294 0.0
C1762 C 0.00224 0.26351 0.02247 0.0
C1763 C 0.03036 0.27978 0.02559 0.0
C1764 C 0.04588 0.28871 0.03626 0.0
C1765 C 0.0562 0.27977 0.04669 0.0
C1766 C 0.07061 0.28836 0.05704 0.0
C1767 C 0.07489 0.30586 0.05697 0.0
C1768 C 0.0648 0.31479 0.04648 0.0
C1769 C 0.05036 0.30626 0.03612 0.0
H1770 H 0.08604 0.31249 0.065 0.0
H1771 H 0.94312 0.23325 0.96669 0.0
H1772 H 0.32941 0.81824 0.36198 0.0
H1773 H 0.3287 0.80199 0.38636 0.0
H1774 H 0.35603 0.76468 0.3613 0.0
H1775 H 0.35696 0.78086 0.33704 0.0
H1776 H 0.32977 0.75 0.37693 0.0
H1777 H 0.3766 0.79721 0.39202 0.0
H1778 H 0.38709 0.82794 0.39676 0.0
H1779 H 0.35278 0.8358 0.43411 0.0
H1780 H 0.34196 0.80516 0.42943 0.0
H1781 H 0.36459 0.70567 0.44117 0.0
H1782 H 0.35807 0.722 0.41762 0.0
H1783 H 0.34484 0.76225 0.45293 0.0
H1784 H 0.35339 0.74665 0.47667 0.0
H1785 H 0.36016 0.77677 0.43287 0.0
H1786 H 0.3143 0.7325 0.422 0.0
H1787 H 0.29778 0.70392 0.41662 0.0
H1788 H 0.32278 0.69199 0.37246 0.0
H1789 H 0.33966 0.72035 0.37771 0.0
C1790 C 0.33526 0.80657 0.36164 0.0
C1791 C 0.34333 0.80094 0.34753 0.0
C1792 C 0.33482 0.79728 0.3756 0.0
C1793 C 0.34253 0.78223 0.37578 0.0
C1794 C 0.34999 0.77625 0.36146 0.0
C1795 C 0.35044 0.7855 0.34753 0.0
C1796 C 0.34349 0.77291 0.39103 0.0
C1797 C 0.33653 0.75574 0.38916 0.0
C1798 C 0.35151 0.78067 0.40721 0.0
C1799 C 0.35841 0.79895 0.4103 0.0
C1800 C 0.37128 0.80552 0.4012 0.0
C1801 C 0.37728 0.82291 0.40388 0.0
C1802 C 0.37059 0.83382 0.41571 0.0
C1803 C 0.35794 0.82735 0.42495 0.0
C1804 C 0.35189 0.80997 0.42231 0.0
C1805 C 0.36053 0.71811 0.4439 0.0
C1806 C 0.3596 0.7249 0.46078 0.0
C1807 C 0.3564 0.72732 0.43036 0.0
C1808 C 0.35053 0.74332 0.43327 0.0
C1809 C 0.34927 0.74996 0.45019 0.0
C1810 C 0.35393 0.74094 0.46378 0.0
C1811 C 0.34673 0.75347 0.41884 0.0
C1812 C 0.3532 0.77086 0.42079 0.0
C1813 C 0.33765 0.74603 0.4029 0.0
C1814 C 0.32834 0.72854 0.40033 0.0
C1815 C 0.31647 0.72369 0.41129 0.0
C1816 C 0.307 0.70754 0.40823 0.0
C1817 C 0.30923 0.69617 0.39421 0.0
C1818 C 0.32108 0.70081 0.38333 0.0
C1819 C 0.33059 0.71692 0.38633 0.0
H1820 H 0.30166 0.68382 0.39168 0.0
H1821 H 0.37522 0.84729 0.41773 0.0
H1822 H 0.98735 0.61225 0.55103 0.0
H1823 H 0.98341 0.62139 0.52281 0.0
H1824 H 0.0061 0.57814 0.502 0.0
H1825 H 0.01083 0.56927 0.5305 0.0
H1826 H 0.01669 0.60552 0.4881 0.0
H1827 H 0.96339 0.57772 0.49505 0.0
H1828 H 0.93829 0.56964 0.5093 0.0
H1829 H 0.92545 0.62077 0.51101 0.0
H1830 H 0.95064 0.62925 0.49701 0.0
H1831 H 0.99627 0.6435 0.41293 0.0
H1832 H 0.99429 0.62014 0.43072 0.0
H1833 H 0.97356 0.65258 0.46835 0.0
H1834 H 0.97408 0.67508 0.44983 0.0
H1835 H 0.95995 0.62116 0.46785 0.0
H1836 H 0.0176 0.64868 0.46329 0.0
H1837 H 0.04273 0.65433 0.4483 0.0
H1838 H 0.04744 0.60091 0.44112 0.0
H1839 H 0.02204 0.59479 0.4556 0.0
C1840 C 0.99178 0.6048 0.54055 0.0
C1841 C 0.99934 0.58997 0.54306 0.0
C1842 C 0.98929 0.60991 0.52434 0.0
C1843 C 0.99407 0.60021 0.5102 0.0
C1844 C 0.00212 0.5857 0.51269 0.0
C1845 C 0.0047 0.5806 0.52896 0.0
C1846 C 0.99061 0.60548 0.49294 0.0
C1847 C 0.00423 0.60868 0.48348 0.0
C1848 C 0.97425 0.60914 0.48669 0.0
C1849 C 0.95897 0.60414 0.49502 0.0
C1850 C 0.95528 0.58728 0.49855 0.0
C1851 C 0.94102 0.58262 0.50658 0.0
C1852 C 0.93029 0.59469 0.51107 0.0
C1853 C 0.93377 0.61143 0.50751 0.0
C1854 C 0.94803 0.61617 0.49951 0.0
C1855 C 0.99074 0.64527 0.42474 0.0
C1856 C 0.98544 0.661 0.43023 0.0
C1857 C 0.98975 0.63204 0.43495 0.0
C1858 C 0.9842 0.63474 0.4511 0.0
C1859 C 0.97799 0.65017 0.45602 0.0
C1860 C 0.97847 0.66311 0.44559 0.0
C1861 C 0.98636 0.6226 0.46382 0.0
C1862 C 0.97238 0.61778 0.4723 0.0
C1863 C 0.00239 0.61733 0.46903 0.0
C1864 C 0.01766 0.62122 0.46027 0.0
C1865 C 0.02378 0.63808 0.45825 0.0
C1866 C 0.03808 0.64138 0.44985 0.0
C1867 C 0.04659 0.628 0.44368 0.0
C1868 C 0.0408 0.61127 0.44585 0.0
C1869 C 0.02641 0.60786 0.45411 0.0
H1870 H 0.05774 0.63061 0.43728 0.0
H1871 H 0.91925 0.59106 0.51729 0.0
H1872 H 0.83406 0.32239 0.61693 0.0
H1873 H 0.86084 0.3155 0.63087 0.0
H1874 H 0.84676 0.33336 0.67988 0.0
H1875 H 0.82004 0.34091 0.66591 0.0
H1876 H 0.87943 0.34512 0.67783 0.0
H1877 H 0.84616 0.28958 0.66563 0.0
H1878 H 0.82818 0.26595 0.64708 0.0
H1879 H 0.86806 0.26092 0.61535 0.0
H1880 H 0.88619 0.28465 0.63357 0.0
H1881 H 0.95567 0.3065 0.71379 0.0
H1882 H 0.92449 0.30732 0.70863 0.0
H1883 H 0.92892 0.31616 0.6568 0.0
H1884 H 0.95935 0.31545 0.66182 0.0
H1885 H 0.89938 0.28863 0.6657 0.0
H1886 H 0.91397 0.35777 0.66916 0.0
H1887 H 0.93263 0.38273 0.68486 0.0
H1888 H 0.93056 0.36049 0.73149 0.0
H1889 H 0.91178 0.33548 0.71602 0.0
C1890 C 0.8366 0.32496 0.63068 0.0
C1891 C 0.82474 0.33232 0.64021 0.0
C1892 C 0.85194 0.32079 0.63869 0.0
C1893 C 0.85588 0.32364 0.65653 0.0
C1894 C 0.84407 0.33091 0.66612 0.0
C1895 C 0.82867 0.3351 0.6581 0.0
C1896 C 0.87256 0.31957 0.665 0.0
C1897 C 0.88351 0.3326 0.67548 0.0
C1898 C 0.87831 0.30337 0.66177 0.0
C1899 C 0.8675 0.28894 0.65094 0.0
C1900 C 0.85106 0.28348 0.65465 0.0
C1901 C 0.84085 0.27006 0.6442 0.0
C1902 C 0.84697 0.26195 0.63004 0.0
C1903 C 0.86334 0.26721 0.62632 0.0
C1904 C 0.8736 0.28062 0.63673 0.0
C1905 C 0.94989 0.30812 0.70121 0.0
C1906 C 0.96014 0.31056 0.68813 0.0
C1907 C 0.9321 0.30878 0.6983 0.0
C1908 C 0.92435 0.3119 0.68229 0.0
C1909 C 0.93449 0.31373 0.66922 0.0
C1910 C 0.95199 0.31325 0.67215 0.0
C1911 C 0.90591 0.31403 0.67874 0.0
C1912 C 0.89485 0.30085 0.66867 0.0
C1913 C 0.90008 0.33007 0.68216 0.0
C1914 C 0.91156 0.34482 0.69148 0.0
C1915 C 0.91749 0.35826 0.68277 0.0
C1916 C 0.92804 0.37241 0.69162 0.0
C1917 C 0.9327 0.37323 0.70918 0.0
C1918 C 0.92692 0.35984 0.71789 0.0
C1919 C 0.91635 0.34567 0.70909 0.0
H1920 H 0.94081 0.38422 0.71603 0.0
H1921 H 0.83904 0.25158 0.62195 0.0
H1922 H 0.64159 0.67674 0.19055 0.0
H1923 H 0.61701 0.67595 0.2066 0.0
H1924 H 0.64484 0.65265 0.24552 0.0
H1925 H 0.66913 0.65286 0.22941 0.0
H1926 H 0.61499 0.63422 0.23376 0.0
H1927 H 0.63461 0.69364 0.2527 0.0
H1928 H 0.64293 0.72362 0.24884 0.0
H1929 H 0.5933 0.72586 0.22247 0.0
H1930 H 0.58475 0.69582 0.22597 0.0
H1931 H 0.55364 0.66017 0.29883 0.0
H1932 H 0.57806 0.66753 0.28343 0.0
H1933 H 0.55514 0.63089 0.24074 0.0
H1934 H 0.53109 0.62328 0.25645 0.0
H1935 H 0.58222 0.68031 0.25408 0.0
H1936 H 0.57851 0.61466 0.22208 0.0
H1937 H 0.57394 0.58399 0.2251 0.0
H1938 H 0.59515 0.59465 0.2777 0.0
H1939 H 0.59926 0.62549 0.27512 0.0
C1940 C 0.64255 0.67159 0.20261 0.0
C1941 C 0.65737 0.66472 0.20856 0.0
C1942 C 0.62851 0.6713 0.21186 0.0
C1943 C 0.62903 0.66421 0.22728 0.0
C1944 C 0.64411 0.65818 0.23365 0.0
C1945 C 0.65809 0.65844 0.22445 0.0
C1946 C 0.61344 0.6612 0.23589 0.0
C1947 C 0.60789 0.64437 0.23821 0.0
C1948 C 0.60396 0.67434 0.24153 0.0
C1949 C 0.6091 0.69241 0.23945 0.0
C1950 C 0.62552 0.70047 0.24595 0.0
C1951 C 0.63026 0.71749 0.24385 0.0
C1952 C 0.61867 0.72662 0.23537 0.0
C1953 C 0.60228 0.71877 0.22901 0.0
C1954 C 0.59747 0.70175 0.23107 0.0
C1955 C 0.55385 0.65388 0.28608 0.0
C1956 C 0.54057 0.64124 0.27872 0.0
C1957 C 0.56777 0.65803 0.2773 0.0
C1958 C 0.56867 0.64957 0.26099 0.0
C1959 C 0.55505 0.63729 0.25345 0.0
C1960 C 0.54124 0.63305 0.26231 0.0
C1961 C 0.58396 0.65332 0.25208 0.0
C1962 C 0.58938 0.67023 0.2496 0.0
C1963 C 0.59339 0.6403 0.24616 0.0
C1964 C 0.58898 0.62227 0.24846 0.0
C1965 C 0.58188 0.61045 0.23436 0.0
C1966 C 0.57935 0.59308 0.236 0.0
C1967 C 0.58422 0.58742 0.2516 0.0
C1968 C 0.59123 0.59913 0.2657 0.0
C1969 C 0.5935 0.61655 0.26421 0.0
H1970 H 0.58279 0.57393 0.25267 0.0
H1971 H 0.62237 0.73979 0.23376 0.0
H1972 H 0.44795 1.00036 0.3853 0.0
H1973 H 0.47608 1.00171 0.3756 0.0
H1974 H 0.49862 0.99547 0.42603 0.0
H1975 H 0.47049 0.99377 0.43578 0.0
H1976 H 0.51642 0.02091 0.41348 0.0
H1977 H 0.49353 0.96383 0.39512 0.0
H1978 H 0.47357 0.93915 0.38111 0.0
H1979 H 0.48001 0.95504 0.33218 0.0
H1980 H 0.49953 0.98016 0.34586 0.0
H1981 H 0.59065 0.99532 0.36754 0.0
H1982 H 0.56795 0.99378 0.38624 0.0
H1983 H 0.5403 0.02581 0.35586 0.0
H1984 H 0.56314 0.02769 0.33759 0.0
H1985 H 0.52817 0.98465 0.3623 0.0
H1986 H 0.54559 0.04606 0.38443 0.0
H1987 H 0.56723 0.06899 0.39938 0.0
H1988 H 0.57325 0.04103 0.44239 0.0
H1989 H 0.55181 0.01781 0.42753 0.0
C1990 C 0.45884 0.99901 0.39427 0.0
C1991 C 0.45697 0.99693 0.41131 0.0
C1992 C 0.47491 0.99984 0.38872 0.0
C1993 C 0.48939 0.99856 0.40008 0.0
C1994 C 0.4876 0.99651 0.41709 0.0
C1995 C 0.47153 0.99561 0.42264 0.0
C1996 C 0.50643 0.99981 0.39423 0.0
C1997 C 0.51901 0.01282 0.4024 0.0
C1998 C 0.50991 0.98911 0.3799 0.0
C1999 C 0.49779 0.97415 0.3716 0.0
C2000 C 0.49045 0.96229 0.38139 0.0
C2001 C 0.47922 0.94817 0.37348 0.0
C2002 C 0.4754 0.9456 0.35576 0.0
C2003 C 0.48283 0.95713 0.3459 0.0
C2004 C 0.49395 0.97134 0.35374 0.0
C2005 C 0.58006 0.00263 0.36546 0.0
C2006 C 0.57859 0.01189 0.35146 0.0
C2007 C 0.56714 1.00168 0.37599 0.0
C2008 C 0.55268 0.0099 0.37248 0.0
C2009 C 0.55157 0.01969 0.35891 0.0
C2010 C 0.56453 0.02077 0.34854 0.0
C2011 C 0.53751 0.00617 0.38102 0.0
C2012 C 0.52542 0.99257 0.37343 0.0
C2013 C 0.53453 0.01615 0.3959 0.0
C2014 C 0.54733 0.03011 0.40478 0.0
C2015 C 0.5517 0.04471 0.39698 0.0
C2016 C 0.56388 0.05778 0.40546 0.0
C2017 C 0.57167 0.05644 0.4218 0.0
C2018 C 0.56724 0.04204 0.42971 0.0
C2019 C 0.55508 0.02893 0.42127 0.0
H2020 H 0.58109 0.06657 0.42835 0.0
H2021 H 0.46676 0.93462 0.34965 0.0
H2022 H 0.06135 0.99507 0.76731 0.0
H2023 H 0.03063 0.99558 0.76298 0.0
H2024 H 0.03017 0.98157 0.70896 0.0
H2025 H 0.06124 0.98138 0.71324 0.0
H2026 H 0.00946 0.00563 0.71511 0.0
H2027 H 0.01711 0.95181 0.73453 0.0
H2028 H 0.02941 0.93262 0.75352 0.0
H2029 H 0.00867 0.95773 0.79568 0.0
H2030 H 0.99645 0.97722 0.777 0.0
H2031 H 0.91901 0.99137 0.70478 0.0
H2032 H 0.94865 0.98601 0.70434 0.0
H2033 H 0.95735 0.99718 0.75918 0.0
H2034 H 0.92727 1.00086 0.75965 0.0
H2035 H 0.97353 0.9719 0.74963 0.0
H2036 H 0.96499 0.02539 0.72946 0.0
H2037 H 0.95301 0.0445 0.71033 0.0
H2038 H 0.97488 0.01972 0.66876 0.0
H2039 H 0.98695 1.00036 0.68768 0.0
C2040 C 0.05471 0.99194 0.75451 0.0
C2041 C 0.06365 0.98786 0.74064 0.0
C2042 C 0.03713 0.99227 0.75205 0.0
C2043 C 0.02801 0.98823 0.7357 0.0
C2044 C 0.03694 0.98461 0.72171 0.0
C2045 C 0.05465 0.98447 0.72416 0.0
C2046 C 0.00915 0.98768 0.73345 0.0
C2047 C 1.00153 0.99803 0.72241 0.0
C2048 C 0.99884 0.97794 0.74317 0.0
C2049 C 0.00595 0.96604 0.75438 0.0
C2050 C 0.01524 0.95329 0.74787 0.0
C2051 C 0.0222 0.94235 0.75858 0.0
C2052 C 0.01985 0.94397 0.7758 0.0
C2053 C 0.01049 0.95649 0.78234 0.0
C2054 C 0.00352 0.96747 0.77169 0.0
C2055 C 0.92715 0.9922 0.71674 0.0
C2056 C 0.92088 0.99648 0.73227 0.0
C2057 C 0.94414 0.98938 0.71647 0.0
C2058 C 0.95535 0.99149 0.7317 0.0
C2059 C 0.94899 0.99551 0.74725 0.0
C2060 C 0.93189 0.99785 0.74752 0.0
C2061 C 0.97381 0.99014 0.73156 0.0
C2062 C 0.98138 0.97939 0.74217 0.0
C2063 C 0.98399 0.99951 0.72138 0.0
C2064 C 0.97691 0.01138 0.71005 0.0
C2065 C 0.96731 0.02401 0.71627 0.0
C2066 C 0.96045 0.03488 0.70544 0.0
C2067 C 0.96318 0.03333 0.68833 0.0
C2068 C 0.9728 0.02093 0.68203 0.0
C2069 C 0.97968 0.01002 0.69283 0.0
H2070 H 0.95784 0.04173 0.67994 0.0
H2071 H 0.02526 0.9355 0.78407 0.0
H2072 H 0.60444 0.83321 0.327 0.0
H2073 H 0.61618 0.86125 0.32112 0.0
H2074 H 0.66701 0.84736 0.32985 0.0
H2075 H 0.65532 0.81939 0.33644 0.0
H2076 H 0.66649 0.87742 0.3458 0.0
H2077 H 0.64776 0.85246 0.28917 0.0
H2078 H 0.62816 0.83683 0.26493 0.0
H2079 H 0.59433 0.87512 0.26945 0.0
H2080 H 0.61361 0.89089 0.29389 0.0
H2081 H 0.7043 0.95479 0.32322 0.0
H2082 H 0.69469 0.92472 0.32334 0.0
H2083 H 0.64254 0.93458 0.31299 0.0
H2084 H 0.6525 0.96468 0.31132 0.0
H2085 H 0.64519 0.90555 0.29649 0.0
H2086 H 0.66259 0.92459 0.35932 0.0
H2087 H 0.68266 0.93648 0.38495 0.0
H2088 H 0.72127 0.90849 0.36632 0.0
H2089 H 0.70106 0.89541 0.34129 0.0
C2090 C 0.61814 0.83607 0.3277 0.0
C2091 C 0.62891 0.82397 0.33237 0.0
C2092 C 0.62485 0.85211 0.3241 0.0
C2093 C 0.64253 0.85652 0.32484 0.0
C2094 C 0.65332 0.84435 0.32912 0.0
C2095 C 0.64661 0.82826 0.33277 0.0
C2096 C 0.64969 0.87415 0.32224 0.0
C2097 C 0.66198 0.88343 0.33485 0.0
C2098 C 0.64378 0.88224 0.3081 0.0
C2099 C 0.63206 0.87277 0.29348 0.0
C2100 C 0.63606 0.85748 0.2851 0.0
C2101 C 0.62503 0.84861 0.2713 0.0
C2102 C 0.60999 0.85495 0.26568 0.0
C2103 C 0.60597 0.87021 0.27383 0.0
C2104 C 0.61696 0.87913 0.28765 0.0
C2105 C 0.69084 0.95041 0.32018 0.0
C2106 C 0.67922 0.96197 0.31626 0.0
C2107 C 0.68526 0.93323 0.32085 0.0
C2108 C 0.66779 0.9272 0.31863 0.0
C2109 C 0.6561 0.93874 0.31472 0.0
C2110 C 0.66177 0.95593 0.31361 0.0
C2111 C 0.66174 0.90894 0.32025 0.0
C2112 C 0.64967 0.89952 0.30743 0.0
C2113 C 0.66805 0.90056 0.33405 0.0
C2114 C 0.68046 0.9093 0.34837 0.0
C2115 C 0.6754 0.92111 0.36067 0.0
C2116 C 0.68676 0.92799 0.37509 0.0
C2117 C 0.70332 0.9236 0.37704 0.0
C2118 C 0.70848 0.91201 0.36474 0.0
C2119 C 0.69703 0.90468 0.35056 0.0
H2120 H 0.71209 0.92904 0.38818 0.0
H2121 H 0.60146 0.84807 0.25498 0.0
H2122 H 0.76855 0.05044 0.98705 0.0
H2123 H 0.76067 0.01972 0.98233 0.0
H2124 H 0.70805 0.02658 0.98571 0.0
H2125 H 0.71604 0.05766 0.99095 0.0
H2126 H 0.71806 0.00269 0.00485 0.0
H2127 H 0.71961 0.0123 0.94761 0.0
H2128 H 0.73048 0.02432 0.92309 0.0
H2129 H 0.77509 0.99882 0.93022 0.0
H2130 H 0.76463 0.98684 0.95495 0.0
H2131 H 0.70642 0.91202 0.99036 0.0
H2132 H 0.70278 0.94088 0.98367 0.0
H2133 H 0.75725 0.9521 0.98482 0.0
H2134 H 0.76071 0.92296 0.99073 0.0
H2135 H 0.73898 0.96602 0.95901 0.0
H2136 H 0.73646 0.95823 0.0186 0.0
H2137 H 0.72321 0.94506 0.04124 0.0
H2138 H 0.67742 0.96716 0.02833 0.0
H2139 H 0.69011 0.97992 0.00507 0.0
C2140 C 0.75528 0.04544 0.98675 0.0
C2141 C 0.74292 0.05641 0.98949 0.0
C2142 C 0.75076 0.02788 0.98387 0.0
C2143 C 0.73374 0.02087 0.98346 0.0
C2144 C 0.72125 0.03177 0.98589 0.0
C2145 C 0.72579 0.04946 0.98877 0.0
C2146 C 0.72952 0.0021 0.98151 0.0
C2147 C 0.72222 0.99462 0.99459 0.0
C2148 C 0.73496 0.99161 0.96813 0.0
C2149 C 0.74135 0.99872 0.9532 0.0
C2150 C 0.7318 0.00933 0.94403 0.0
C2151 C 0.73788 0.01613 0.93007 0.0
C2152 C 0.75347 0.01235 0.92511 0.0
C2153 C 0.76301 1.00173 0.93408 0.0
C2154 C 0.75699 0.9949 0.94805 0.0
C2155 C 0.71751 0.92058 0.98875 0.0
C2156 C 0.73385 0.91546 0.99097 0.0
C2157 C 0.71544 0.937 0.98498 0.0
C2158 C 0.72975 0.9486 0.98385 0.0
C2159 C 0.74604 0.94329 0.98557 0.0
C2160 C 0.74806 0.92681 0.98914 0.0
C2161 C 0.72815 0.96675 0.98264 0.0
C2162 C 0.73441 0.97407 0.969 0.0
C2163 C 0.72148 0.97703 0.99538 0.0
C2164 C 0.71418 0.96987 0.00987 0.0
C2165 C 0.72348 0.96013 0.02039 0.0
C2166 C 0.71604 0.95265 0.0333 0.0
C2167 C 0.69947 0.95521 0.03618 0.0
C2168 C 0.69026 0.96518 0.02608 0.0
C2169 C 0.69755 0.97248 0.01297 0.0
H2170 H 0.69379 0.94952 0.04628 0.0
H2171 H 0.75816 0.01762 0.91431 0.0
H2172 H 0.23423 0.6709 0.66 0.0
H2173 H 0.25069 0.64685 0.66033 0.0
H2174 H 0.20584 0.61386 0.66703 0.0
H2175 H 0.18951 0.63811 0.66792 0.0
H2176 H 0.232 0.60355 0.68365 0.0
H2177 H 0.21972 0.61651 0.62688 0.0
H2178 H 0.21847 0.63448 0.60355 0.0
H2179 H 0.27303 0.6453 0.61073 0.0
H2180 H 0.27458 0.62756 0.63428 0.0
H2181 H 0.25758 0.52553 0.64505 0.0
H2182 H 0.24359 0.55069 0.65361 0.0
H2183 H 0.29039 0.58314 0.65205 0.0
H2184 H 0.30425 0.55795 0.64369 0.0
H2185 H 0.26432 0.59414 0.63432 0.0
H2186 H 0.27502 0.57713 0.68986 0.0
H2187 H 0.27434 0.55748 0.71172 0.0
H2188 H 0.21965 0.55143 0.70443 0.0
H2189 H 0.21998 0.57086 0.68233 0.0
C2190 C 0.22788 0.65867 0.66199 0.0
C2191 C 0.21035 0.65656 0.66365 0.0
C2192 C 0.23731 0.64479 0.66193 0.0
C2193 C 0.22946 0.62833 0.66318 0.0
C2194 C 0.21223 0.62633 0.66582 0.0
C2195 C 0.20282 0.64026 0.66611 0.0
C2196 C 0.23893 0.61314 0.66075 0.0
C2197 C 0.23884 0.60136 0.67271 0.0
C2198 C 0.24809 0.61024 0.64662 0.0
C2199 C 0.24725 0.62089 0.63246 0.0
C2200 C 0.23144 0.62283 0.62356 0.0
C2201 C 0.23068 0.63295 0.61029 0.0
C2202 C 0.24566 0.64107 0.60569 0.0
C2203 C 0.26144 0.63903 0.61432 0.0
C2204 C 0.26227 0.62894 0.62763 0.0
C2205 C 0.26486 0.53805 0.64688 0.0
C2206 C 0.28189 0.53992 0.6436 0.0
C2207 C 0.25692 0.55241 0.65178 0.0
C2208 C 0.26592 0.56889 0.65355 0.0
C2209 C 0.28313 0.57063 0.65074 0.0
C2210 C 0.29104 0.55628 0.64591 0.0
C2211 C 0.25714 0.58436 0.65699 0.0
C2212 C 0.25741 0.59625 0.64522 0.0
C2213 C 0.24778 0.58701 0.671 0.0
C2214 C 0.24753 0.57533 0.68431 0.0
C2215 C 0.26284 0.5715 0.6928 0.0
C2216 C 0.26252 0.56042 0.70526 0.0
C2217 C 0.24696 0.55318 0.70943 0.0
C2218 C 0.23169 0.55703 0.70117 0.0
C2219 C 0.23194 0.56809 0.68869 0.0
H2220 H 0.24674 0.54461 0.71908 0.0
H2221 H 0.24504 0.64891 0.59542 0.0
H2222 H 0.43224 0.47047 0.99313 0.0
H2223 H 0.41819 0.49626 0.99615 0.0
H2224 H 0.3858 0.47354 0.02966 0.0
H2225 H 0.39991 0.44777 0.02688 0.0
H2226 H 0.36765 0.48511 0.00445 0.0
H2227 H 0.41628 0.50705 0.04465 0.0
H2228 H 0.44692 0.51409 0.05486 0.0
H2229 H 0.45235 0.54745 0.01642 0.0
H2230 H 0.42178 0.54043 0.00581 0.0
H2231 H 0.34019 0.57161 0.03162 0.0
H2232 H 0.3591 0.54946 0.03573 0.0
H2233 H 0.35934 0.53988 0.98139 0.0
H2234 H 0.34141 0.56266 0.97739 0.0
H2235 H 0.39374 0.54514 0.02005 0.0
H2236 H 0.34769 0.49245 0.97735 0.0
H2237 H 0.31737 0.48075 0.97073 0.0
H2238 H 0.30678 0.50688 0.01781 0.0
H2239 H 0.33709 0.51844 0.02489 0.0
C2240 C 0.42238 0.47108 1.00145 0.0
C2241 C 0.41713 0.45695 0.00967 0.0
C2242 C 0.41436 0.48587 0.00316 0.0
C2243 C 0.40096 0.48689 0.01318 0.0
C2244 C 0.39607 0.47303 0.02182 0.0
C2245 C 0.40408 0.45826 0.02013 0.0
C2246 C 0.39092 0.50162 0.01331 0.0
C2247 C 0.3734 0.49823 0.00789 0.0
C2248 C 0.39838 0.51875 0.01792 0.0
C2249 C 0.41675 0.5231 0.02434 0.0
C2250 C 0.42403 0.51579 0.03828 0.0
C2251 C 0.44138 0.51979 0.04416 0.0
C2252 C 0.45158 0.53118 0.03627 0.0
C2253 C 0.44444 0.53862 0.02251 0.0
C2254 C 0.42709 0.53465 0.01657 0.0
C2255 C 0.34465 0.56503 0.02064 0.0
C2256 C 0.33915 0.56864 0.00417 0.0
C2257 C 0.35531 0.55233 0.02297 0.0
C2258 C 0.36037 0.54287 0.00883 0.0
C2259 C 0.35538 0.54688 0.99244 0.0
C2260 C 0.34506 0.5598 0.99016 0.0
C2261 C 0.37053 0.52851 0.01103 0.0
C2262 C 0.38807 0.532 0.01665 0.0
C2263 C 0.36312 0.51138 0.00671 0.0
C2264 C 0.34462 0.50652 1.00153 0.0
C2265 C 0.33884 0.49588 0.98619 0.0
C2266 C 0.32169 0.48915 0.98242 0.0
C2267 C 0.31019 0.49299 0.99388 0.0
C2268 C 0.31574 0.50386 0.00898 0.0
C2269 C 0.33289 0.51061 0.01283 0.0
H2270 H 0.29694 0.48766 0.991 0.0
H2271 H 0.46502 0.53426 0.04083 0.0
H2272 H 0.32935 0.65653 0.81976 0.0
H2273 H 0.32483 0.66769 0.84868 0.0
H2274 H 0.33901 0.6216 0.86706 0.0
H2275 H 0.34328 0.61032 0.83825 0.0
H2276 H 0.31241 0.63074 0.8814 0.0
H2277 H 0.36682 0.66076 0.87215 0.0
H2278 H 0.38521 0.67922 0.85689 0.0
H2279 H 0.354 0.7194 0.86496 0.0
H2280 H 0.33533 0.70111 0.8801 0.0
H2281 H 0.32472 0.6585 0.97044 0.0
H2282 H 0.32678 0.64716 0.94102 0.0
H2283 H 0.32266 0.69715 0.92575 0.0
H2284 H 0.32308 0.70856 0.9554 0.0
H2285 H 0.34324 0.68614 0.90902 0.0
H2286 H 0.28877 0.65824 0.91802 0.0
H2287 H 0.2692 0.64094 0.93318 0.0
H2288 H 0.29738 0.59839 0.9248 0.0
H2289 H 0.31723 0.61549 0.90974 0.0
C2290 C 0.33156 0.6488 0.82998 0.0
C2291 C 0.33668 0.6325 0.8266 0.0
C2292 C 0.32898 0.65521 0.84655 0.0
C2293 C 0.33176 0.64561 0.86023 0.0
C2294 C 0.3367 0.62928 0.85682 0.0
C2295 C 0.33913 0.62282 0.84027 0.0
C2296 C 0.32979 0.65252 0.87813 0.0
C2297 C 0.31924 0.64282 0.88749 0.0
C2298 C 0.33823 0.6685 0.88604 0.0
C2299 C 0.34961 0.67952 0.87712 0.0
C2300 C 0.36384 0.6735 0.87059 0.0
C2301 C 0.37432 0.68393 0.86198 0.0
C2302 C 0.37076 0.70045 0.85993 0.0
C2303 C 0.35674 0.7066 0.86654 0.0
C2304 C 0.34623 0.69621 0.87515 0.0
C2305 C 0.32465 0.66707 0.9608 0.0
C2306 C 0.32433 0.68457 0.96536 0.0
C2307 C 0.32538 0.66051 0.94381 0.0
C2308 C 0.32463 0.67114 0.93075 0.0
C2309 C 0.32348 0.68854 0.93536 0.0
C2310 C 0.32356 0.69516 0.95243 0.0
C2311 C 0.32568 0.66447 0.91246 0.0
C2312 C 0.33616 0.67416 0.903 0.0
C2313 C 0.31682 0.64866 0.90434 0.0
C2314 C 0.30455 0.63818 0.91285 0.0
C2315 C 0.2908 0.6452 0.91943 0.0
C2316 C 0.27967 0.63543 0.92801 0.0
C2317 C 0.28207 0.61859 0.92998 0.0
C2318 C 0.29554 0.61144 0.92327 0.0
C2319 C 0.30671 0.62115 0.91468 0.0
H2320 H 0.27348 0.61107 0.93669 0.0
H2321 H 0.37887 0.70851 0.85324 0.0
H2322 H 0.95846 0.74544 0.04812 0.0
H2323 H 0.95834 0.74106 0.01714 0.0
H2324 H 0.00863 0.72552 0.02385 0.0
H2325 H 0.009 0.73016 0.05474 0.0
H2326 H 0.00565 0.75298 0.00486 0.0
H2327 H 0.97475 0.69694 0.00726 0.0
H2328 H 0.9507 0.67786 0.01441 0.0
H2329 H 0.91553 0.70238 0.98345 0.0
H2330 H 0.93936 0.72173 0.97629 0.0
H2331 H 0.01891 0.7239 0.91937 0.0
H2332 H 0.01568 0.72571 0.94987 0.0
H2333 H 0.96577 0.74137 0.93936 0.0
H2334 H 0.96946 0.74057 0.90909 0.0
H2335 H 0.96661 0.71503 0.96009 0.0
H2336 H 0.99464 0.76835 0.95456 0.0
H2337 H 0.0154 0.7915 0.94874 0.0
H2338 H 0.0521 0.77905 0.98763 0.0
H2339 H 0.03216 0.7548 0.99265 0.0
C2340 C 0.96938 0.74083 0.04297 0.0
C2341 C 0.9838 0.73827 0.05389 0.0
C2342 C 0.96923 0.73823 0.02528 0.0
C2343 C 0.98349 0.733 0.01824 0.0
C2344 C 0.9975 0.72955 0.02907 0.0
C2345 C 0.99763 0.73209 0.04672 0.0
C2346 C 0.9847 0.73296 0.9998 0.0
C2347 C 0.99745 0.7444 0.995 0.0
C2348 C 0.9731 0.7226 0.98709 0.0
C2349 C 0.95883 0.71087 0.99136 0.0
C2350 C 0.96188 0.69835 0.00208 0.0
C2351 C 0.94829 0.68746 0.00611 0.0
C2352 C 0.9316 0.68893 0.99942 0.0
C2353 C 0.92846 0.70126 0.98864 0.0
C2354 C 0.94201 0.71217 0.98458 0.0
C2355 C 0.00739 0.72795 0.92368 0.0
C2356 C 0.99443 0.73219 0.912 0.0
C2357 C 0.00551 0.7289 0.94102 0.0
C2358 C 0.99048 0.73369 0.94682 0.0
C2359 C 0.97742 0.73759 0.9351 0.0
C2360 C 0.97948 0.73705 0.91787 0.0
C2361 C 0.98828 0.73444 0.9651 0.0
C2362 C 0.97514 0.72338 0.96988 0.0
C2363 C 0.99926 0.74558 0.9778 0.0
C2364 C 0.01193 0.75927 0.97365 0.0
C2365 C 0.00734 0.77 0.96141 0.0
C2366 C 0.01901 0.7834 0.95826 0.0
C2367 C 0.03518 0.78657 0.9676 0.0
C2368 C 0.03971 0.77635 0.98011 0.0
C2369 C 0.02828 0.76265 0.98299 0.0
H2370 H 0.04414 0.79705 0.96527 0.0
H2371 H 0.92109 0.6805 0.00256 0.0
H2372 H 0.64933 0.22945 0.66884 0.0
H2373 H 0.64753 0.24469 0.64388 0.0
H2374 H 0.68396 0.21515 0.62228 0.0
H2375 H 0.686 0.19985 0.64748 0.0
H2376 H 0.68848 0.25041 0.61691 0.0
H2377 H 0.64569 0.20287 0.60789 0.0
H2378 H 0.62217 0.18298 0.61475 0.0
H2379 H 0.59092 0.22357 0.6191 0.0
H2380 H 0.61438 0.24379 0.61253 0.0
H2381 H 0.65069 0.26058 0.52911 0.0
H2382 H 0.66103 0.24765 0.55434 0.0
H2383 H 0.64181 0.28636 0.58662 0.0
H2384 H 0.63229 0.29984 0.56147 0.0
H2385 H 0.63046 0.24495 0.58505 0.0
H2386 H 0.67629 0.29271 0.595 0.0
H2387 H 0.70037 0.31051 0.58629 0.0
H2388 H 0.72639 0.26645 0.57749 0.0
H2389 H 0.70227 0.24832 0.58583 0.0
C2390 C 0.65729 0.22644 0.65901 0.0
C2391 C 0.66781 0.21341 0.66017 0.0
C2392 C 0.65615 0.23509 0.64468 0.0
C2393 C 0.66549 0.23094 0.63117 0.0
C2394 C 0.67664 0.21853 0.63257 0.0
C2395 C 0.6777 0.20974 0.64691 0.0
C2396 C 0.66248 0.23878 0.61521 0.0
C2397 C 0.67585 0.24908 0.60984 0.0
C2398 C 0.64603 0.23695 0.6059 0.0
C2399 C 0.63186 0.22489 0.60991 0.0
C2400 C 0.63386 0.2076 0.61048 0.0
C2401 C 0.62053 0.19626 0.61429 0.0
C2402 C 0.60508 0.20202 0.61741 0.0
C2403 C 0.60291 0.21914 0.61671 0.0
C2404 C 0.61622 0.23054 0.61293 0.0
C2405 C 0.64912 0.26655 0.54164 0.0
C2406 C 0.64064 0.28112 0.54341 0.0
C2407 C 0.65496 0.25916 0.55599 0.0
C2408 C 0.65223 0.26613 0.57228 0.0
C2409 C 0.6441 0.28089 0.57412 0.0
C2410 C 0.63858 0.28848 0.5598 0.0
C2411 C 0.65627 0.25704 0.58716 0.0
C2412 C 0.64308 0.24631 0.59218 0.0
C2413 C 0.67292 0.25825 0.59587 0.0
C2414 C 0.68736 0.26913 0.59079 0.0
C2415 C 0.68703 0.28678 0.59098 0.0
C2416 C 0.70072 0.29694 0.58618 0.0
C2417 C 0.71489 0.28962 0.5813 0.0
C2418 C 0.7154 0.27211 0.58124 0.0
C2419 C 0.70172 0.26188 0.586 0.0
H2420 H 0.72549 0.29751 0.57761 0.0
H2421 H 0.59476 0.19321 0.62034 0.0
H2422 H 0.9809 0.38213 0.44487 0.0
H2423 H 0.98758 0.37405 0.47342 0.0
H2424 H 0.01432 0.42428 0.49036 0.0
H2425 H 0.00821 0.43226 0.46177 0.0
H2426 H 0.03273 0.40033 0.50011 0.0
H2427 H 0.97535 0.41207 0.50014 0.0
H2428 H 0.94475 0.40952 0.48977 0.0
H2429 H 0.93874 0.35721 0.49909 0.0
H2430 H 0.9693 0.35937 0.50942 0.0
H2431 H 0.01339 0.37157 0.5881 0.0
H2432 H 0.0091 0.38915 0.56477 0.0
H2433 H 0.03387 0.35474 0.53282 0.0
H2434 H 0.03716 0.33672 0.55577 0.0
H2435 H 0.9894 0.37541 0.53357 0.0
H2436 H 0.05402 0.37775 0.50631 0.0
H2437 H 0.08459 0.38042 0.51715 0.0
H2438 H 0.07503 0.40711 0.56439 0.0
H2439 H 0.04447 0.40479 0.55377 0.0
C2440 C 0.9882 0.39144 0.45468 0.0
C2441 C 0.99397 0.40785 0.45109 0.0
C2442 C 0.9919 0.38686 0.471 0.0
C2443 C 1.00133 0.39863 0.48401 0.0
C2444 C 0.00698 0.41504 0.4805 0.0
C2445 C 0.00332 0.41962 0.4642 0.0
C2446 C 0.00588 0.39366 0.50114 0.0
C2447 C 0.02322 0.395 0.50746 0.0
C2448 C 0.99342 0.38693 0.51083 0.0
C2449 C 0.97483 0.38576 0.50512 0.0
C2450 C 0.96758 0.39995 0.49979 0.0
C2451 C 0.95019 0.3986 0.49398 0.0
C2452 C 0.93983 0.38318 0.49364 0.0
C2453 C 0.9468 0.36912 0.49925 0.0
C2454 C 0.96418 0.37041 0.50507 0.0
C2455 C 0.01826 0.36815 0.57618 0.0
C2456 C 0.02558 0.35298 0.57348 0.0
C2457 C 0.0157 0.37802 0.5629 0.0
C2458 C 0.02097 0.37305 0.54705 0.0
C2459 C 0.02953 0.35861 0.54488 0.0
C2460 C 0.03159 0.34847 0.55796 0.0
C2461 C 0.01615 0.38183 0.53222 0.0
C2462 C 0.99879 0.38104 0.52627 0.0
C2463 C 0.02851 0.38923 0.52296 0.0
C2464 C 0.04695 0.39102 0.52926 0.0
C2465 C 0.05846 0.38429 0.51896 0.0
C2466 C 0.07579 0.38571 0.52508 0.0
C2467 C 0.08175 0.3939 0.54145 0.0
C2468 C 0.0704 0.40073 0.55173 0.0
C2469 C 0.05308 0.39934 0.54567 0.0
H2470 H 0.09516 0.39497 0.54617 0.0
H2471 H 0.92638 0.38215 0.48911 0.0
H2472 H 0.29312 0.62601 0.50408 0.0
H2473 H 0.29791 0.61271 0.53037 0.0
H2474 H 0.25785 0.5722 0.51045 0.0
H2475 H 0.25301 0.58524 0.48428 0.0
H2476 H 0.25519 0.58524 0.54345 0.0
H2477 H 0.29913 0.5672 0.5106 0.0
H2478 H 0.32486 0.57004 0.49603 0.0
H2479 H 0.35425 0.59445 0.54254 0.0
H2480 H 0.32857 0.59233 0.55726 0.0
H2481 H 0.26618 0.52009 0.59627 0.0
H2482 H 0.26236 0.5383 0.57348 0.0
H2483 H 0.30973 0.56922 0.59415 0.0
H2484 H 0.31389 0.55022 0.61614 0.0
H2485 H 0.30963 0.56435 0.56268 0.0
H2486 H 0.26745 0.58292 0.59625 0.0
H2487 H 0.24238 0.58067 0.61197 0.0
H2488 H 0.21087 0.55711 0.56643 0.0
H2489 H 0.23568 0.55901 0.55041 0.0
C2490 C 0.28546 0.61416 0.50521 0.0
C2491 C 0.2726 0.60677 0.49202 0.0
C2492 C 0.28822 0.60659 0.52026 0.0
C2493 C 0.27832 0.5914 0.52236 0.0
C2494 C 0.26559 0.58396 0.50919 0.0
C2495 C 0.26281 0.59149 0.49422 0.0
C2496 C 0.2809 0.58319 0.53827 0.0
C2497 C 0.26707 0.58057 0.54763 0.0
C2498 C 0.2966 0.57771 0.54414 0.0
C2499 C 0.31183 0.57982 0.53498 0.0
C2500 C 0.31099 0.57347 0.51765 0.0
C2501 C 0.32559 0.5749 0.50938 0.0
C2502 C 0.34118 0.5824 0.51836 0.0
C2503 C 0.34218 0.58859 0.53561 0.0
C2504 C 0.32758 0.58738 0.54389 0.0
C2505 C 0.27564 0.53087 0.59587 0.0
C2506 C 0.29022 0.53395 0.60791 0.0
C2507 C 0.27341 0.5414 0.583 0.0
C2508 C 0.28558 0.55546 0.58217 0.0
C2509 C 0.30009 0.55857 0.59445 0.0
C2510 C 0.30244 0.54783 0.60708 0.0
C2511 C 0.28383 0.56613 0.56785 0.0
C2512 C 0.2978 0.56924 0.55876 0.0
C2513 C 0.26836 0.57238 0.56244 0.0
C2514 C 0.25348 0.57098 0.57215 0.0
C2515 C 0.25521 0.57713 0.58961 0.0
C2516 C 0.24105 0.57596 0.59857 0.0
C2517 C 0.2251 0.56874 0.59023 0.0
C2518 C 0.22325 0.56269 0.57288 0.0
C2519 C 0.23734 0.56383 0.56384 0.0
H2520 H 0.21418 0.56788 0.5972 0.0
H2521 H 0.35248 0.58344 0.51194 0.0
H2522 H 0.28291 0.44332 0.88118 0.0
H2523 H 0.29248 0.46975 0.90007 0.0
H2524 H 0.27519 0.44621 0.9424 0.0
H2525 H 0.26547 0.4197 0.92349 0.0
H2526 H 0.26416 0.4754 0.94243 0.0
H2527 H 0.3187 0.45765 0.93984 0.0
H2528 H 0.34312 0.4471 0.92729 0.0
H2529 H 0.34877 0.49101 0.90058 0.0
H2530 H 0.32426 0.50174 0.91283 0.0
H2531 H 0.29997 0.54687 0.00333 0.0
H2532 H 0.29236 0.51872 0.98668 0.0
H2533 H 0.30488 0.53991 0.94136 0.0
H2534 H 0.31137 0.56836 0.95801 0.0
H2535 H 0.31972 0.51107 0.94468 0.0
H2536 H 0.26316 0.52759 0.94827 0.0
H2537 H 0.24077 0.538 0.96431 0.0
H2538 H 0.24106 0.49508 0.99261 0.0
H2539 H 0.26361 0.48453 0.97687 0.0
C2540 C 0.28143 0.44362 0.89458 0.0
C2541 C 0.27332 0.42935 0.90076 0.0
C2542 C 0.28696 0.4588 0.90541 0.0
C2543 C 0.28467 0.46006 0.92276 0.0
C2544 C 0.27704 0.44566 0.92907 0.0
C2545 C 0.27143 0.4305 0.91822 0.0
C2546 C 0.28902 0.47673 0.93393 0.0
C2547 C 0.27643 0.48303 0.94308 0.0
C2548 C 0.30495 0.48692 0.93476 0.0
C2549 C 0.31949 0.48039 0.92708 0.0
C2550 C 0.32503 0.46496 0.93114 0.0
C2551 C 0.33892 0.45898 0.92412 0.0
C2552 C 0.34745 0.46835 0.9131 0.0
C2553 C 0.34213 0.48374 0.9091 0.0
C2554 C 0.32824 0.48979 0.91609 0.0
C2555 C 0.30082 0.54542 0.98977 0.0
C2556 C 0.30609 0.55956 0.98181 0.0
C2557 C 0.29674 0.52934 0.98029 0.0
C2558 C 0.29839 0.52702 0.96278 0.0
C2559 C 0.30362 0.5413 0.95484 0.0
C2560 C 0.30718 0.5575 0.96425 0.0
C2561 C 0.29474 0.50975 0.95278 0.0
C2562 C 0.30746 0.50337 0.94391 0.0
C2563 C 0.27908 0.49933 0.95246 0.0
C2564 C 0.26509 0.50532 0.96145 0.0
C2565 C 0.25845 0.52039 0.95793 0.0
C2566 C 0.24574 0.52632 0.96697 0.0
C2567 C 0.2395 0.51721 0.97948 0.0
C2568 C 0.2459 0.50211 0.98291 0.0
C2569 C 0.25862 0.49613 0.97391 0.0
H2570 H 0.2297 0.52184 0.9865 0.0
H2571 H 0.35821 0.4637 0.90769 0.0
H2572 H 0.69143 0.99978 0.48482 0.0
H2573 H 0.68828 0.9973 0.45381 0.0
H2574 H 0.63387 0.98517 0.45203 0.0
H2575 H 0.63699 0.98688 0.48316 0.0
H2576 H 0.64611 0.96494 0.42789 0.0
H2577 H 0.65008 0.02464 0.44578 0.0
H2578 H 0.66195 0.05235 0.46216 0.0
H2579 H 0.70886 0.04986 0.44056 0.0
H2580 H 0.69737 0.02204 0.42425 0.0
H2581 H 0.6635 0.00708 0.34505 0.0
H2582 H 0.65153 0.00636 0.37183 0.0
H2583 H 0.67762 0.96323 0.38172 0.0
H2584 H 0.68887 0.96327 0.35426 0.0
H2585 H 0.67224 0.01266 0.40045 0.0
H2586 H 0.65742 0.94086 0.409 0.0
H2587 H 0.64425 0.9142 0.39141 0.0
H2588 H 0.61538 0.94274 0.35847 0.0
H2589 H 0.62818 0.96954 0.37597 0.0
C2590 C 0.6788 0.99638 0.47786 0.0
C2591 C 0.66446 0.99356 0.48646 0.0
C2592 C 0.677 0.99514 0.46014 0.0
C2593 C 0.66081 0.99129 0.45067 0.0
C2594 C 0.64646 0.98823 0.45914 0.0
C2595 C 0.64826 0.98938 0.47691 0.0
C2596 C 0.65906 0.9906 0.43191 0.0
C2597 C 0.65168 0.97539 0.42183 0.0
C2598 C 0.6659 0.00444 0.42403 0.0
C2599 C 0.67288 0.02119 0.43387 0.0
C2600 C 0.66297 0.02994 0.44462 0.0
C2601 C 0.66963 0.04568 0.45388 0.0
C2602 C 0.68616 0.05285 0.45242 0.0
C2603 C 0.69606 0.0443 0.44169 0.0
C2604 C 0.68947 0.02855 0.43241 0.0
C2605 C 0.66595 0.99691 0.35249 0.0
C2606 C 0.67687 0.98515 0.3475 0.0
C2607 C 0.65922 0.99658 0.36785 0.0
C2608 C 0.66356 0.98459 0.37863 0.0
C2609 C 0.67375 0.97219 0.37327 0.0
C2610 C 0.6803 0.97236 0.3577 0.0
C2611 C 0.65992 0.98678 0.39648 0.0
C2612 C 0.66634 0.00229 0.40642 0.0
C2613 C 0.65193 0.97336 0.4041 0.0
C2614 C 0.64384 0.95722 0.39378 0.0
C2615 C 0.64815 0.94144 0.3981 0.0
C2616 C 0.64076 0.9263 0.38813 0.0
C2617 C 0.62899 0.92677 0.37383 0.0
C2618 C 0.62453 0.94238 0.36952 0.0
C2619 C 0.63187 0.95755 0.37945 0.0
H2620 H 0.62334 0.91504 0.36609 0.0
H2621 H 0.69128 0.06504 0.45959 0.0
H2622 H 0.79788 0.94109 0.16192 0.0
H2623 H 0.78981 0.93039 0.1317 0.0
H2624 H 0.80812 0.97949 0.11805 0.0
H2625 H 0.81607 0.9903 0.14823 0.0
H2626 H 0.77601 0.96804 0.10295 0.0
H2627 H 0.82983 0.947 0.10962 0.0
H2628 H 0.85228 0.93167 0.12249 0.0
H2629 H 0.8187 0.8847 0.11168 0.0
H2630 H 0.79594 0.89978 0.09896 0.0
H2631 H 0.77821 0.90853 0.01629 0.0
H2632 H 0.79215 0.92618 0.04251 0.0
H2633 H 0.74323 0.9277 0.06092 0.0
H2634 H 0.72946 0.91055 0.03444 0.0
H2635 H 0.79379 0.91649 0.07235 0.0
H2636 H 0.74278 0.95918 0.09023 0.0
H2637 H 0.72385 0.97863 0.07828 0.0
H2638 H 0.75607 0.9863 0.03925 0.0
H2639 H 0.77506 0.96668 0.05083 0.0
C2640 C 0.80026 0.94956 0.15245 0.0
C2641 C 0.80754 0.96655 0.15742 0.0
C2642 C 0.79578 0.9434 0.13521 0.0
C2643 C 0.79843 0.95414 0.12265 0.0
C2644 C 0.80601 0.971 0.12756 0.0
C2645 C 0.81062 0.97712 0.14478 0.0
C2646 C 0.79219 0.94816 0.10451 0.0
C2647 C 0.77993 0.95679 0.09621 0.0
C2648 C 0.79753 0.93367 0.09568 0.0
C2649 C 0.81112 0.92456 0.10349 0.0
C2650 C 0.82716 0.93343 0.11014 0.0
C2651 C 0.83996 0.92478 0.11738 0.0
C2652 C 0.83691 0.90723 0.11794 0.0
C2653 C 0.82105 0.89829 0.11125 0.0
C2654 C 0.80819 0.90689 0.10402 0.0
C2655 C 0.77052 0.91318 0.02579 0.0
C2656 C 0.75288 0.90847 0.02351 0.0
C2657 C 0.77842 0.92314 0.04075 0.0
C2658 C 0.76875 0.9284 0.0537 0.0
C2659 C 0.75095 0.92419 0.05102 0.0
C2660 C 0.74308 0.91435 0.03599 0.0
C2661 C 0.77737 0.93626 0.07073 0.0
C2662 C 0.78996 0.92785 0.07896 0.0
C2663 C 0.77251 0.95111 0.07943 0.0
C2664 C 0.76027 0.96143 0.07134 0.0
C2665 C 0.74574 0.96492 0.07901 0.0
C2666 C 0.73503 0.97601 0.07234 0.0
C2667 C 0.73886 0.98384 0.05812 0.0
C2668 C 0.7532 0.98031 0.05033 0.0
C2669 C 0.76383 0.96906 0.05682 0.0
H2670 H 0.73059 0.99247 0.05301 0.0
H2671 H 0.84684 0.90055 0.12352 0.0
H2672 H 0.49736 0.25839 0.62064 0.0
H2673 H 0.52328 0.25908 0.6064 0.0
H2674 H 0.51236 0.3059 0.5874 0.0
H2675 H 0.48658 0.30526 0.60144 0.0
H2676 H 0.5199 0.28348 0.5624 0.0
H2677 H 0.54426 0.30679 0.61873 0.0
H2678 H 0.55122 0.30866 0.64991 0.0
H2679 H 0.57549 0.26313 0.644 0.0
H2680 H 0.56854 0.2609 0.61276 0.0
H2681 H 0.59801 0.31445 0.53568 0.0
H2682 H 0.57502 0.31147 0.55368 0.0
H2683 H 0.58448 0.25985 0.55886 0.0
H2684 H 0.60714 0.26266 0.54022 0.0
H2685 H 0.57842 0.28271 0.59107 0.0
H2686 H 0.55389 0.26119 0.53322 0.0
H2687 H 0.54952 0.26336 0.50241 0.0
H2688 H 0.52688 0.30947 0.51217 0.0
H2689 H 0.53141 0.30773 0.54309 0.0
C2690 C 0.50051 0.26882 0.61342 0.0
C2691 C 0.48988 0.28179 0.61224 0.0
C2692 C 0.5154 0.26928 0.6054 0.0
C2693 C 0.51987 0.2826 0.59587 0.0
C2694 C 0.50925 0.29551 0.59469 0.0
C2695 C 0.49453 0.29517 0.60282 0.0
C2696 C 0.5351 0.28281 0.58644 0.0
C2697 C 0.53267 0.28338 0.56876 0.0
C2698 C 0.55183 0.28251 0.5946 0.0
C2699 C 0.55558 0.28349 0.6134 0.0
C2700 C 0.55084 0.29702 0.62408 0.0
C2701 C 0.55484 0.29819 0.64176 0.0
C2702 C 0.56362 0.28592 0.64893 0.0
C2703 C 0.56856 0.27255 0.63842 0.0
C2704 C 0.56461 0.27133 0.62073 0.0
C2705 C 0.5951 0.30247 0.54061 0.0
C2706 C 0.60419 0.28875 0.53644 0.0
C2707 C 0.58211 0.30081 0.551 0.0
C2708 C 0.57805 0.28545 0.55762 0.0
C2709 C 0.58749 0.27186 0.55398 0.0
C2710 C 0.60036 0.27344 0.54333 0.0
C2711 C 0.56307 0.28335 0.56719 0.0
C2712 C 0.56556 0.28251 0.5848 0.0
C2713 C 0.5464 0.28365 0.55907 0.0
C2714 C 0.54308 0.28438 0.54047 0.0
C2715 C 0.54805 0.27183 0.5288 0.0
C2716 C 0.54555 0.27299 0.51132 0.0
C2717 C 0.53795 0.28656 0.50534 0.0
C2718 C 0.53277 0.29896 0.51682 0.0
C2719 C 0.53528 0.29789 0.53433 0.0
H2720 H 0.53605 0.28744 0.4918 0.0
H2721 H 0.56673 0.28686 0.66262 0.0
H2722 H 0.1622 0.79489 0.94133 0.0
H2723 H 0.13309 0.7858 0.92762 0.0
H2724 H 0.11357 0.8029 0.97418 0.0
H2725 H 0.14279 0.81199 0.98804 0.0
H2726 H 0.10054 0.76925 0.95979 0.0
H2727 H 0.10835 0.8253 0.94239 0.0
H2728 H 0.12354 0.84868 0.92994 0.0
H2729 H 0.11973 0.81677 0.88215 0.0
H2730 H 0.10472 0.79311 0.89437 0.0
H2731 H 0.01289 0.7654 0.91342 0.0
H2732 H 0.04001 0.77873 0.93007 0.0
H2733 H 0.06751 0.74703 0.89833 0.0
H2734 H 0.04065 0.73258 0.88295 0.0
H2735 H 0.0752 0.78963 0.9071 0.0
H2736 H 0.0689 0.73289 0.9248 0.0
H2737 H 0.05431 0.70926 0.93714 0.0
H2738 H 0.05824 0.74074 0.98515 0.0
H2739 H 0.07206 0.76491 0.97272 0.0
C2740 C 0.15169 0.79677 0.94861 0.0
C2741 C 0.1547 0.80406 0.96575 0.0
C2742 C 0.1351 0.79169 0.94075 0.0
C2743 C 0.12123 0.79376 0.94989 0.0
C2744 C 0.12415 0.80125 0.96694 0.0
C2745 C 0.14078 0.8065 0.97478 0.0
C2746 C 0.10377 0.78728 0.9418 0.0
C2747 C 0.09481 0.7739 0.94845 0.0
C2748 C 0.09663 0.79312 0.92677 0.0
C2749 C 0.1055 0.8074 0.91934 0.0
C2750 C 0.11085 0.82323 0.92926 0.0
C2751 C 0.11941 0.83654 0.92223 0.0
C2752 C 0.12262 0.8342 0.90527 0.0
C2753 C 0.11723 0.81856 0.89528 0.0
C2754 C 0.10867 0.80521 0.90225 0.0
C2755 C 0.02475 0.76118 0.91022 0.0
C2756 C 0.02473 0.7481 0.89681 0.0
C2757 C 0.04013 0.76876 0.91968 0.0
C2758 C 0.05562 0.76358 0.91555 0.0
C2759 C 0.05563 0.751 0.9018 0.0
C2760 C 0.04032 0.74295 0.89288 0.0
C2761 C 0.07196 0.77161 0.92511 0.0
C2762 C 0.08077 0.7852 0.91863 0.0
C2763 C 0.07905 0.76575 0.94017 0.0
C2764 C 0.07058 0.75113 0.94749 0.0
C2765 C 0.06596 0.73509 0.93772 0.0
C2766 C 0.05798 0.7215 0.9448 0.0
C2767 C 0.055 0.7236 0.96183 0.0
C2768 C 0.0602 0.73923 0.97185 0.0
C2769 C 0.06799 0.75292 0.96475 0.0
H2770 H 0.04891 0.71304 0.96732 0.0
H2771 H 0.12926 0.84452 0.89987 0.0
H2772 H 0.91584 0.25475 0.44924 0.0
H2773 H 0.93504 0.26453 0.47538 0.0
H2774 H 0.93608 0.31639 0.46418 0.0
H2775 H 0.91706 0.3066 0.43762 0.0
H2776 H 0.96794 0.30969 0.47698 0.0
H2777 H 0.91231 0.30393 0.49321 0.0
H2778 H 0.88333 0.28961 0.49375 0.0
H2779 H 0.90407 0.24936 0.51773 0.0
H2780 H 0.93323 0.26334 0.51712 0.0
H2781 H 0.99019 0.34451 0.56795 0.0
H2782 H 0.97292 0.33632 0.54018 0.0
H2783 H 0.99055 0.28691 0.53722 0.0
H2784 H 0.0091 0.2957 0.56444 0.0
H2785 H 0.94951 0.29397 0.53134 0.0
H2786 H 0.00663 0.30267 0.51488 0.0
H2787 H 0.03445 0.31871 0.51287 0.0
H2788 H 0.00954 0.35636 0.48846 0.0
H2789 H 0.98153 0.34062 0.49047 0.0
C2790 C 0.9203 0.26822 0.45213 0.0
C2791 C 0.91481 0.27985 0.44121 0.0
C2792 C 0.93121 0.27383 0.46723 0.0
C2793 C 0.93692 0.29124 0.47193 0.0
C2794 C 0.93184 0.30289 0.4609 0.0
C2795 C 0.92083 0.29728 0.44576 0.0
C2796 C 0.94772 0.29714 0.48862 0.0
C2797 C 0.96384 0.30642 0.48889 0.0
C2798 C 0.94243 0.29289 0.50422 0.0
C2799 C 0.92495 0.28461 0.505 0.0
C2800 C 0.9107 0.29198 0.49853 0.0
C2801 C 0.89424 0.28393 0.49885 0.0
C2802 C 0.89186 0.26857 0.50574 0.0
C2803 C 0.90594 0.26126 0.51239 0.0
C2804 C 0.92244 0.26925 0.51208 0.0
C2805 C 0.99073 0.33206 0.56119 0.0
C2806 C 1.00146 0.32095 0.56812 0.0
C2807 C 0.98072 0.32734 0.54538 0.0
C2808 C 0.98073 0.31115 0.5364 0.0
C2809 C 0.99059 0.2996 0.54378 0.0
C2810 C 1.00104 0.30454 0.55937 0.0
C2811 C 0.96991 0.30614 0.51966 0.0
C2812 C 0.95366 0.29719 0.51944 0.0
C2813 C 0.975 0.31103 0.50418 0.0
C2814 C 0.99189 0.32076 0.50343 0.0
C2815 C 0.00702 0.31459 0.5095 0.0
C2816 C 0.02285 0.32352 0.50814 0.0
C2817 C 0.02375 0.33856 0.50056 0.0
C2818 C 0.00882 0.34474 0.49438 0.0
C2819 C 0.99296 0.33583 0.49566 0.0
H2820 H 0.03602 0.34545 0.49952 0.0
H2821 H 0.87911 0.26234 0.50595 0.0
H2822 H 0.49307 0.66761 0.02593 0.0
H2823 H 0.46206 0.66681 0.02386 0.0
H2824 H 0.45862 0.6568 0.96901 0.0
H2825 H 0.48941 0.65702 0.97114 0.0
H2826 H 0.44672 0.68914 0.01127 0.0
H2827 H 0.41978 0.63943 0.95091 0.0
H2828 H 0.42218 0.60963 0.94009 0.0
H2829 H 0.44122 0.60027 0.99039 0.0
H2830 H 0.43874 0.62992 1.00156 0.0
H2831 H 0.36917 0.71538 0.98471 0.0
H2832 H 0.3974 0.70712 0.98251 0.0
H2833 H 0.37822 0.65521 0.98737 0.0
H2834 H 0.3503 0.66296 0.98756 0.0
H2835 H 0.40134 0.65244 0.97182 0.0
H2836 H 0.39903 0.68784 0.02475 0.0
H2837 H 0.39449 0.7134 0.0435 0.0
H2838 H 0.43032 0.74418 0.01965 0.0
H2839 H 0.43527 0.71875 1.00096 0.0
C2840 C 0.48557 0.66491 0.0135 0.0
C2841 C 0.49348 0.66263 0.99867 0.0
C2842 C 0.46793 0.66438 0.01232 0.0
C2843 C 0.45806 0.66184 0.99627 0.0
C2844 C 0.46592 0.65851 0.98153 0.0
C2845 C 0.48352 0.65878 0.98274 0.0
C2846 C 0.44021 0.66543 0.99465 0.0
C2847 C 0.43673 0.68097 0.00282 0.0
C2848 C 0.42713 0.65469 0.98387 0.0
C2849 C 0.42928 0.63701 0.97703 0.0
C2850 C 0.42451 0.63104 0.95966 0.0
C2851 C 0.42587 0.61415 0.95347 0.0
C2852 C 0.43192 0.60309 0.96453 0.0
C2853 C 0.43665 0.60888 0.98181 0.0
C2854 C 0.43532 0.62575 0.98807 0.0
C2855 C 0.3709 0.70228 0.98529 0.0
C2856 C 0.35748 0.69025 0.98784 0.0
C2857 C 0.38713 0.69751 0.98401 0.0
C2858 C 0.39023 0.68072 0.98587 0.0
C2859 C 0.37643 0.66838 0.98636 0.0
C2860 C 0.36022 0.67304 0.98691 0.0
C2861 C 0.40774 0.67608 0.98862 0.0
C2862 C 0.41126 0.66048 0.98046 0.0
C2863 C 0.42054 0.68613 1.00044 0.0
C2864 C 0.41731 0.70149 0.01132 0.0
C2865 C 0.40582 0.7001 0.02344 0.0
C2866 C 0.40322 0.71454 0.03407 0.0
C2867 C 0.41196 0.73043 0.03264 0.0
C2868 C 0.42348 0.73189 0.02068 0.0
C2869 C 0.42625 0.71746 0.01012 0.0
H2870 H 0.4099 0.74159 0.04086 0.0
H2871 H 0.43289 0.59 0.95972 0.0
H2872 H 0.58484 0.47813 0.27416 0.0
H2873 H 0.5705 0.50366 0.27364 0.0
H2874 H 0.61796 0.53495 0.29277 0.0
H2875 H 0.63243 0.50937 0.29332 0.0
H2876 H 0.59405 0.54525 0.30979 0.0
H2877 H 0.59914 0.53416 0.25099 0.0
H2878 H 0.59715 0.51759 0.2226 0.0
H2879 H 0.54278 0.50811 0.22088 0.0
H2880 H 0.54447 0.52445 0.24936 0.0
H2881 H 0.55808 0.62217 0.30194 0.0
H2882 H 0.57562 0.59896 0.29865 0.0
H2883 H 0.53093 0.5645 0.27658 0.0
H2884 H 0.51367 0.58813 0.2789 0.0
H2885 H 0.55512 0.55675 0.26044 0.0
H2886 H 0.55184 0.5681 0.32131 0.0
H2887 H 0.55558 0.58664 0.3488 0.0
H2888 H 0.60905 0.59771 0.34531 0.0
H2889 H 0.6055 0.57933 0.31772 0.0
C2890 C 0.59234 0.49043 0.27796 0.0
C2891 C 0.60984 0.49161 0.28377 0.0
C2892 C 0.58408 0.50509 0.27767 0.0
C2893 C 0.59312 0.52134 0.28302 0.0
C2894 C 0.61065 0.52259 0.28861 0.0
C2895 C 0.61892 0.50792 0.28896 0.0
C2896 C 0.58407 0.53688 0.28356 0.0
C2897 C 0.58576 0.54789 0.29889 0.0
C2898 C 0.57305 0.54035 0.26947 0.0
C2899 C 0.57195 0.53037 0.2524 0.0
C2900 C 0.58677 0.5284 0.24463 0.0
C2901 C 0.5857 0.51908 0.22851 0.0
C2902 C 0.56986 0.51175 0.21997 0.0
C2903 C 0.55505 0.51377 0.22752 0.0
C2904 C 0.55605 0.52307 0.24365 0.0
C2905 C 0.55211 0.60969 0.29615 0.0
C2906 C 0.53451 0.60688 0.29084 0.0
C2907 C 0.56209 0.59631 0.29445 0.0
C2908 C 0.55464 0.57971 0.28771 0.0
C2909 C 0.53708 0.57707 0.28195 0.0
C2910 C 0.52715 0.59052 0.28343 0.0
C2911 C 0.56496 0.56505 0.28672 0.0
C2912 C 0.56342 0.55411 0.27134 0.0
C2913 C 0.57636 0.56183 0.30067 0.0
C2914 C 0.57843 0.57245 0.31746 0.0
C2915 C 0.56438 0.57451 0.32642 0.0
C2916 C 0.56646 0.58499 0.342 0.0
C2917 C 0.58254 0.59336 0.3488 0.0
C2918 C 0.5966 0.59122 0.34006 0.0
C2919 C 0.59457 0.58076 0.32448 0.0
H2920 H 0.58411 0.6015 0.36084 0.0
H2921 H 0.56905 0.50455 0.20748 0.0
H2922 H 0.94254 0.16683 0.78907 0.0
H2923 H 0.9321 0.13651 0.78257 0.0
H2924 H 0.97999 0.12399 0.80578 0.0
H2925 H 0.99066 0.15439 0.81203 0.0
H2926 H 0.97098 0.10546 0.77586 0.0
H2927 H 0.94455 0.11733 0.82522 0.0
H2928 H 0.92786 0.13215 0.8452 0.0
H2929 H 0.88339 0.12138 0.8081 0.0
H2930 H 0.89986 0.1067 0.78779 0.0
H2931 H 0.90397 0.02315 0.77492 0.0
H2932 H 0.92058 0.0496 0.78958 0.0
H2933 H 0.93338 0.06333 0.74109 0.0
H2934 H 0.91748 0.03644 0.72679 0.0
H2935 H 0.91492 0.07961 0.78846 0.0
H2936 H 0.96764 0.0912 0.74423 0.0
H2937 H 0.98761 0.07547 0.72903 0.0
H2938 H 0.98357 0.03683 0.76249 0.0
H2939 H 0.9636 0.05235 0.77793 0.0
C2940 C 0.95086 0.15763 0.79279 0.0
C2941 C 0.96748 0.16302 0.80095 0.0
C2942 C 0.94481 0.1403 0.78923 0.0
C2943 C 0.95521 0.12796 0.79378 0.0
C2944 C 0.97172 0.13329 0.80218 0.0
C2945 C 0.97777 0.15066 0.80582 0.0
C2946 C 0.94914 0.10955 0.78879 0.0
C2947 C 0.95876 0.09975 0.77868 0.0
C2948 C 0.93344 0.10194 0.79289 0.0
C2949 C 0.9235 0.11105 0.80491 0.0
C2950 C 0.93126 0.11828 0.82124 0.0
C2951 C 0.92182 0.12662 0.83265 0.0
C2952 C 0.90459 0.12775 0.8279 0.0
C2953 C 0.89675 0.12052 0.81174 0.0
C2954 C 0.90612 0.11217 0.80029 0.0
C2955 C 0.91072 0.03175 0.7676 0.0
C2956 C 0.90966 0.02796 0.74987 0.0
C2957 C 0.92011 0.04684 0.77588 0.0
C2958 C 0.92839 0.05852 0.76651 0.0
C2959 C 0.92754 0.05444 0.74873 0.0
C2960 C 0.91838 0.03919 0.74052 0.0
C2961 C 0.93653 0.07555 0.77504 0.0
C2962 C 0.92724 0.08517 0.78576 0.0
C2963 C 0.95279 0.0828 0.77195 0.0
C2964 C 0.96411 0.07294 0.76222 0.0
C2965 C 0.97102 0.07936 0.74835 0.0
C2966 C 0.98236 0.07049 0.73972 0.0
C2967 C 0.98701 0.05527 0.74493 0.0
C2968 C 0.98007 0.04871 0.75858 0.0
C2969 C 0.96866 0.05747 0.76721 0.0
H2970 H 0.99585 0.04847 0.73827 0.0
H2971 H 0.8973 0.13418 0.83676 0.0
H2972 H 0.42849 0.9263 0.30072 0.0
H2973 H 0.45554 0.94442 0.31078 0.0
H2974 H 0.47477 0.92848 0.26375 0.0
H2975 H 0.44802 0.91036 0.25375 0.0
H2976 H 0.49696 0.92547 0.2913 0.0
H2977 H 0.46241 0.9673 0.27166 0.0
H2978 H 0.43805 0.98396 0.27109 0.0
H2979 H 0.45318 0.00408 0.32357 0.0
H2980 H 0.4775 0.98741 0.32452 0.0
H2981 H 0.5602 0.00892 0.29827 0.0
H2982 H 0.53141 0.99333 0.2906 0.0
H2983 H 0.54209 0.96044 0.32907 0.0
H2984 H 0.57108 0.97535 0.33585 0.0
H2985 H 0.50449 0.98813 0.30728 0.0
H2986 H 0.52105 0.9214 0.31751 0.0
H2987 H 0.54547 0.90479 0.31718 0.0
H2988 H 0.56608 0.93477 0.28087 0.0
H2989 H 0.54168 0.95142 0.28085 0.0
C2990 C 0.43849 0.92671 0.29253 0.0
C2991 C 0.43604 0.9169 0.27639 0.0
C2992 C 0.45392 0.93714 0.29826 0.0
C2993 C 0.46723 0.93784 0.28802 0.0
C2994 C 0.46471 0.92818 0.27189 0.0
C2995 C 0.44932 0.91791 0.26612 0.0
C2996 C 0.48414 0.94789 0.29417 0.0
C2997 C 0.49856 0.93917 0.29485 0.0
C2998 C 0.48629 0.96578 0.29883 0.0
C2999 C 0.47164 0.97583 0.29825 0.0
C3000 C 0.46044 0.97511 0.28314 0.0
C3001 C 0.44665 0.98461 0.28273 0.0
C3002 C 0.44401 0.995 0.29731 0.0
C3003 C 0.45519 0.99597 0.31231 0.0
C3004 C 0.46898 0.98649 0.31278 0.0
C3005 C 0.55646 0.99805 0.30468 0.0
C3006 C 0.56794 0.99295 0.31726 0.0
C3007 C 0.53995 0.98934 0.30055 0.0
C3008 C 0.53458 0.9755 0.30907 0.0
C3009 C 0.54597 0.97077 0.322 0.0
C3010 C 0.56251 0.97928 0.3259 0.0
C3011 C 0.5173 0.96571 0.3041 0.0
C3012 C 0.50284 0.97442 0.30379 0.0
C3013 C 0.51504 0.94779 0.29963 0.0
C3014 C 0.52963 0.93772 0.2993 0.0
C3015 C 0.53077 0.92438 0.3094 0.0
C3016 C 0.5446 0.91498 0.30929 0.0
C3017 C 0.55734 0.91875 0.29904 0.0
C3018 C 0.55623 0.93189 0.28884 0.0
C3019 C 0.54241 0.94133 0.2889 0.0
H3020 H 0.56805 0.91147 0.29899 0.0
H3021 H 0.43335 0.00236 0.29696 0.0
H3022 H 0.99641 0.47562 0.63925 0.0
H3023 H 0.98995 0.44501 0.64098 0.0
H3024 H 0.96879 0.45644 0.68793 0.0
H3025 H 0.97488 0.48685 0.68618 0.0
H3026 H 0.99524 0.43536 0.68946 0.0
H3027 H 0.94327 0.44067 0.652 0.0
H3028 H 0.92869 0.44765 0.62512 0.0
H3029 H 0.9532 0.41051 0.59663 0.0
H3030 H 0.96812 0.40348 0.62332 0.0
H3031 H 0.97311 0.35503 0.71078 0.0
H3032 H 0.96921 0.38368 0.7038 0.0
H3033 H 0.97493 0.36767 0.65134 0.0
H3034 H 0.97833 0.33906 0.65838 0.0
H3035 H 0.9562 0.39102 0.65088 0.0
H3036 H 0.01459 0.39491 0.67915 0.0
H3037 H 0.03834 0.39181 0.70091 0.0
H3038 H 0.01038 0.41108 0.74045 0.0
H3039 H 0.98669 0.41475 0.71884 0.0
C3040 C 0.99011 0.47158 0.64977 0.0
C3041 C 0.98636 0.48364 0.66271 0.0
C3042 C 0.9864 0.45412 0.65071 0.0
C3043 C 0.97883 0.44854 0.66455 0.0
C3044 C 0.97463 0.46054 0.67716 0.0
C3045 C 0.97828 0.4779 0.67622 0.0
C3046 C 0.97682 0.43034 0.66704 0.0
C3047 C 0.98643 0.42571 0.68121 0.0
C3048 C 0.96622 0.41764 0.65562 0.0
C3049 C 0.95688 0.42163 0.63966 0.0
C3050 C 0.94562 0.43406 0.64001 0.0
C3051 C 0.93728 0.43801 0.6248 0.0
C3052 C 0.94003 0.42955 0.60918 0.0
C3053 C 0.95108 0.41706 0.60873 0.0
C3054 C 0.95945 0.41307 0.6239 0.0
C3055 C 0.97257 0.35748 0.69763 0.0
C3056 C 0.97609 0.345 0.68512 0.0
C3057 C 0.97081 0.37393 0.6937 0.0
C3058 C 0.97248 0.37805 0.67718 0.0
C3059 C 0.97379 0.36494 0.66423 0.0
C3060 C 0.97553 0.34852 0.6682 0.0
C3061 C 0.97421 0.39609 0.67375 0.0
C3062 C 0.96477 0.40069 0.65932 0.0
C3063 C 0.98572 0.40876 0.68436 0.0
C3064 C 0.99878 0.40471 0.69747 0.0
C3065 C 0.01345 0.39825 0.69251 0.0
C3066 C 0.02697 0.3966 0.70478 0.0
C3067 C 0.02583 0.40119 0.72205 0.0
C3068 C 0.01119 0.40745 0.72708 0.0
C3069 C 0.99776 0.4094 0.71483 0.0
H3070 H 0.03635 0.40004 0.73151 0.0
H3071 H 0.9336 0.43265 0.59742 0.0
H3072 H 0.6958 0.40275 0.51139 0.0
H3073 H 0.69642 0.41781 0.4864 0.0
H3074 H 0.74949 0.4116 0.48554 0.0
H3075 H 0.749 0.39672 0.51094 0.0
H3076 H 0.74535 0.44232 0.47937 0.0
H3077 H 0.71583 0.38754 0.45255 0.0
H3078 H 0.69403 0.36252 0.447 0.0
H3079 H 0.65445 0.39514 0.44555 0.0
H3080 H 0.67614 0.42042 0.45065 0.0
H3081 H 0.74535 0.47269 0.3978 0.0
H3082 H 0.74808 0.45616 0.42189 0.0
H3083 H 0.69433 0.4562 0.4256 0.0
H3084 H 0.69155 0.47157 0.40072 0.0
H3085 H 0.70092 0.42723 0.42955 0.0
H3086 H 0.73051 0.48241 0.45456 0.0
H3087 H 0.75249 0.50713 0.45604 0.0
H3088 H 0.79174 0.4743 0.46013 0.0
H3089 H 0.76997 0.44936 0.45847 0.0
C3090 C 0.70758 0.40436 0.50579 0.0
C3091 C 0.72231 0.39834 0.51316 0.0
C3092 C 0.7079 0.41297 0.49138 0.0
C3093 C 0.72291 0.4156 0.4837 0.0
C3094 C 0.73771 0.40972 0.49111 0.0
C3095 C 0.73743 0.40122 0.50567 0.0
C3096 C 0.72316 0.42495 0.46835 0.0
C3097 C 0.73572 0.43888 0.4684 0.0
C3098 C 0.71054 0.42084 0.45403 0.0
C3099 C 0.69756 0.40579 0.4522 0.0
C3100 C 0.70247 0.38935 0.45126 0.0
C3101 C 0.69011 0.37512 0.44809 0.0
C3102 C 0.67281 0.37721 0.44609 0.0
C3103 C 0.66784 0.39354 0.44716 0.0
C3104 C 0.68015 0.40781 0.45009 0.0
C3105 C 0.73411 0.4688 0.40355 0.0
C3106 C 0.7182 0.47323 0.39732 0.0
C3107 C 0.7357 0.45962 0.41759 0.0
C3108 C 0.72145 0.45502 0.42591 0.0
C3109 C 0.70556 0.45951 0.41955 0.0
C3110 C 0.70396 0.46838 0.40538 0.0
C3111 C 0.72267 0.445 0.44077 0.0
C3112 C 0.71048 0.43082 0.44057 0.0
C3113 C 0.73555 0.44902 0.45492 0.0
C3114 C 0.74863 0.46404 0.45633 0.0
C3115 C 0.74383 0.48047 0.45575 0.0
C3116 C 0.75625 0.49451 0.4566 0.0
C3117 C 0.7735 0.49228 0.45816 0.0
C3118 C 0.77837 0.47601 0.45893 0.0
C3119 C 0.76601 0.46193 0.45806 0.0
H3120 H 0.78309 0.50316 0.45879 0.0
H3121 H 0.66321 0.36624 0.44361 0.0
H3122 H 0.74744 0.56925 0.07724 0.0
H3123 H 0.73736 0.54251 0.05904 0.0
H3124 H 0.69098 0.53849 0.08248 0.0
H3125 H 0.70135 0.56476 0.10134 0.0
H3126 H 0.70379 0.50999 0.08235 0.0
H3127 H 0.69241 0.54664 0.03969 0.0
H3128 H 0.6987 0.56943 0.02185 0.0
H3129 H 0.73747 0.54274 1.00152 0.0
H3130 H 0.73155 0.51987 0.01938 0.0
H3131 H 0.66361 0.43584 0.03096 0.0
H3132 H 0.67186 0.4644 0.04579 0.0
H3133 H 0.71431 0.47086 0.0168 0.0
H3134 H 0.70428 0.44311 1.0 0.0
H3135 H 0.70339 0.49859 0.01978 0.0
H3136 H 0.71535 0.46241 0.06429 0.0
H3137 H 0.70795 0.43973 0.08197 0.0
H3138 H 0.66735 0.46599 0.09889 0.0
H3139 H 0.67445 0.48875 0.08126 0.0
C3140 C 0.73507 0.56272 0.07854 0.0
C3141 C 0.72534 0.56916 0.09099 0.0
C3142 C 0.7292 0.54749 0.06792 0.0
C3143 C 0.71335 0.53841 0.06928 0.0
C3144 C 0.70328 0.5452 0.08116 0.0
C3145 C 0.70918 0.56036 0.09187 0.0
C3146 C 0.70793 0.52116 0.0595 0.0
C3147 C 0.70351 0.50756 0.06862 0.0
C3148 C 0.70796 0.51779 0.04164 0.0
C3149 C 0.71164 0.53162 0.03101 0.0
C3150 C 0.70238 0.5457 0.03153 0.0
C3151 C 0.70585 0.55862 0.02139 0.0
C3152 C 0.71851 0.55756 0.0106 0.0
C3153 C 0.72769 0.54356 0.0099 0.0
C3154 C 0.72427 0.53061 0.02002 0.0
C3155 C 0.67474 0.44335 0.02779 0.0
C3156 C 0.68351 0.43704 0.01455 0.0
C3157 C 0.67965 0.45965 0.03651 0.0
C3158 C 0.69417 0.46979 0.03308 0.0
C3159 C 0.70318 0.46335 0.01999 0.0
C3160 C 0.69772 0.44727 0.01062 0.0
C3161 C 0.69944 0.48727 0.04266 0.0
C3162 C 0.7038 0.50095 0.03351 0.0
C3163 C 0.69939 0.49076 0.06056 0.0
C3164 C 0.6954 0.47723 0.07142 0.0
C3165 C 0.70485 0.46332 0.07178 0.0
C3166 C 0.7007 0.45046 0.08179 0.0
C3167 C 0.68718 0.45141 0.09154 0.0
C3168 C 0.67783 0.46527 0.09136 0.0
C3169 C 0.68194 0.47818 0.08141 0.0
H3170 H 0.68397 0.44142 0.09924 0.0
H3171 H 0.72117 0.56756 0.00275 0.0
H3172 H 0.33914 0.02879 0.52285 0.0
H3173 H 0.34105 0.03102 0.55381 0.0
H3174 H 0.36328 0.98389 0.55308 0.0
H3175 H 0.36097 0.98136 0.52193 0.0
H3176 H 0.33653 0.98237 0.56937 0.0
H3177 H 0.38611 0.02097 0.57374 0.0
H3178 H 0.40574 0.04506 0.56762 0.0
H3179 H 0.37197 0.0801 0.58455 0.0
H3180 H 0.35197 0.05623 0.59055 0.0
H3181 H 0.32157 0.99207 0.65572 0.0
H3182 H 0.34195 0.99386 0.63469 0.0
H3183 H 0.31327 0.02935 0.61027 0.0
H3184 H 0.29268 0.02702 0.63088 0.0
H3185 H 0.35236 0.03442 0.6111 0.0
H3186 H 0.29977 0.99304 0.59268 0.0
H3187 H 0.27943 0.96889 0.59764 0.0
H3188 H 0.32075 0.93953 0.60786 0.0
H3189 H 0.34129 0.96351 0.60276 0.0
C3190 C 0.3446 0.01899 0.5293 0.0
C3191 C 0.34967 0.00478 0.51998 0.0
C3192 C 0.34595 0.02041 0.54703 0.0
C3193 C 0.35248 0.0077 0.5558 0.0
C3194 C 0.35833 0.9939 0.54657 0.0
C3195 C 0.35701 0.99248 0.5288 0.0
C3196 C 0.35052 0.00759 0.57408 0.0
C3197 C 0.34059 0.99354 0.57865 0.0
C3198 C 0.35559 0.02223 0.58618 0.0
C3199 C 0.36748 0.03674 0.58253 0.0
C3200 C 0.38278 0.0338 0.57604 0.0
C3201 C 0.39399 0.04743 0.57261 0.0
C3202 C 0.39009 0.0641 0.57568 0.0
C3203 C 0.37497 0.06718 0.5822 0.0
C3204 C 0.3637 0.05359 0.58565 0.0
C3205 C 0.32 1.00056 0.64608 0.0
C3206 C 0.3056 0.00925 0.64463 0.0
C3207 C 0.33162 1.00166 0.63421 0.0
C3208 C 0.32905 0.01174 0.62099 0.0
C3209 C 0.31552 0.02166 0.62051 0.0
C3210 C 0.30377 0.02031 0.63221 0.0
C3211 C 0.3381 0.00946 0.60588 0.0
C3212 C 0.34912 0.02304 0.60196 0.0
C3213 C 0.33421 0.99438 0.59433 0.0
C3214 C 0.32201 0.98003 0.5975 0.0
C3215 C 0.30448 0.98144 0.59604 0.0
C3216 C 0.29293 0.96778 0.59882 0.0
C3217 C 0.2988 0.95271 0.60315 0.0
C3218 C 0.31623 0.95122 0.60456 0.0
C3219 C 0.32782 0.96481 0.60167 0.0
H3220 H 0.28984 0.94218 0.60537 0.0
H3221 H 0.39879 0.07464 0.57303 0.0
H3222 H 0.22223 0.03161 0.85751 0.0
H3223 H 0.22805 0.04259 0.88763 0.0
H3224 H 0.17982 0.06283 0.88501 0.0
H3225 H 0.17406 0.0521 0.85449 0.0
H3226 H 0.20593 0.08621 0.90047 0.0
H3227 H 0.18528 0.02939 0.90681 0.0
H3228 H 0.18232 0.99804 0.90134 0.0
H3229 H 0.23512 0.99859 0.92007 0.0
H3230 H 0.23849 0.02997 0.9254 0.0
H3231 H 0.23211 0.1154 0.98852 0.0
H3232 H 0.21381 0.09893 0.96383 0.0
H3233 H 0.25663 0.07398 0.94987 0.0
H3234 H 0.2748 0.09074 0.9741 0.0
H3235 H 0.22644 0.05181 0.94511 0.0
H3236 H 0.24797 0.10772 0.93229 0.0
H3237 H 0.25219 0.13914 0.93663 0.0
H3238 H 0.19803 0.14001 0.92949 0.0
H3239 H 0.19349 0.10854 0.92534 0.0
C3240 C 0.21285 0.0384 0.86333 0.0
C3241 C 0.19777 0.04116 0.85364 0.0
C3242 C 0.21609 0.04448 0.8806 0.0
C3243 C 0.20426 0.05333 0.88861 0.0
C3244 C 0.18904 0.05592 0.87906 0.0
C3245 C 0.18575 0.04975 0.8617 0.0
C3246 C 0.20864 0.06088 0.90664 0.0
C3247 C 0.20988 0.07864 0.9104 0.0
C3248 C 0.21412 0.05101 0.91948 0.0
C3249 C 0.21215 0.03208 0.91645 0.0
C3250 C 0.1963 0.02285 0.90967 0.0
C3251 C 0.19454 0.00506 0.90661 0.0
C3252 C 0.20852 0.99633 0.91035 0.0
C3253 C 0.22429 0.00537 0.91719 0.0
C3254 C 0.22612 0.02316 0.92027 0.0
C3255 C 0.23738 0.10612 0.98029 0.0
C3256 C 0.25469 0.10404 0.98323 0.0
C3257 C 0.22702 0.09678 0.96626 0.0
C3258 C 0.23392 0.08528 0.95503 0.0
C3259 C 0.25103 0.08266 0.95848 0.0
C3260 C 0.26138 0.0921 0.97237 0.0
C3261 C 0.22394 0.07713 0.93883 0.0
C3262 C 0.22182 0.0593 0.93539 0.0
C3263 C 0.21768 0.08692 0.92626 0.0
C3264 C 0.22039 0.1058 0.92876 0.0
C3265 C 0.23696 0.11461 0.93181 0.0
C3266 C 0.23941 0.13242 0.9342 0.0
C3267 C 0.22538 0.14156 0.93342 0.0
C3268 C 0.20888 0.13291 0.93016 0.0
C3269 C 0.20636 0.11509 0.92779 0.0
H3270 H 0.2273 0.15535 0.93527 0.0
H3271 H 0.20714 0.98256 0.90795 0.0
H3272 H 0.52486 0.71987 0.42545 0.0
H3273 H 0.49828 0.72029 0.43803 0.0
H3274 H 0.47142 0.72546 0.38911 0.0
H3275 H 0.49809 0.72498 0.37635 0.0
H3276 H 0.45869 0.74416 0.41483 0.0
H3277 H 0.47018 0.68746 0.40133 0.0
H3278 H 0.48671 0.66303 0.40041 0.0
H3279 H 0.49133 0.66602 0.45497 0.0
H3280 H 0.47499 0.69066 0.45624 0.0
H3281 H 0.38833 0.68615 0.45305 0.0
H3282 H 0.41192 0.68977 0.43579 0.0
H3283 H 0.42605 0.74111 0.46107 0.0
H3284 H 0.40179 0.73759 0.47753 0.0
H3285 H 0.44341 0.69354 0.4438 0.0
H3286 H 0.44759 0.76615 0.43686 0.0
H3287 H 0.42799 0.78795 0.43425 0.0
H3288 H 0.38682 0.74909 0.41375 0.0
H3289 H 0.4062 0.72707 0.41598 0.0
C3290 C 0.51333 0.72116 0.41734 0.0
C3291 C 0.5136 0.72212 0.39981 0.0
C3292 C 0.49813 0.72149 0.42458 0.0
C3293 C 0.48277 0.72267 0.41449 0.0
C3294 C 0.4831 0.72455 0.39717 0.0
C3295 C 0.49837 0.72426 0.38989 0.0
C3296 C 0.46633 0.72048 0.42183 0.0
C3297 C 0.45534 0.73315 0.42123 0.0
C3298 C 0.46156 0.70577 0.42955 0.0
C3299 C 0.4715 0.69102 0.42889 0.0
C3300 C 0.47483 0.68301 0.41315 0.0
C3301 C 0.48415 0.66911 0.41256 0.0
C3302 C 0.49011 0.663 0.42763 0.0
C3303 C 0.48673 0.67078 0.44331 0.0
C3304 C 0.47743 0.68472 0.44397 0.0
C3305 C 0.39644 0.69822 0.45466 0.0
C3306 C 0.39339 0.71163 0.46644 0.0
C3307 C 0.40991 0.7003 0.44489 0.0
C3308 C 0.42079 0.71578 0.44695 0.0
C3309 C 0.41769 0.72919 0.45887 0.0
C3310 C 0.40397 0.72718 0.46838 0.0
C3311 C 0.43589 0.71748 0.43738 0.0
C3312 C 0.44667 0.70464 0.43748 0.0
C3313 C 0.44002 0.73171 0.42865 0.0
C3314 C 0.42837 0.74493 0.42671 0.0
C3315 C 0.43439 0.76226 0.43166 0.0
C3316 C 0.4233 0.77465 0.43028 0.0
C3317 C 0.40616 0.7699 0.42387 0.0
C3318 C 0.40009 0.75275 0.41875 0.0
C3319 C 0.41112 0.7403 0.42009 0.0
H3320 H 0.39759 0.77952 0.42285 0.0
H3321 H 0.49731 0.65222 0.42715 0.0
H3322 H 0.85039 0.21579 0.06511 0.0
H3323 H 0.88058 0.22469 0.07478 0.0
H3324 H 0.89405 0.18814 0.0359 0.0
H3325 H 0.86376 0.17936 0.02586 0.0
H3326 H 0.91367 0.19064 0.06981 0.0
H3327 H 0.89609 0.22599 0.02702 0.0
H3328 H 0.87685 0.24461 0.01412 0.0
H3329 H 0.88669 0.28025 0.05976 0.0
H3330 H 0.9058 0.26171 0.07303 0.0
H3331 H 0.99958 0.22979 0.08983 0.0
H3332 H 0.97252 0.21653 0.07343 0.0
H3333 H 0.94744 0.25789 0.09492 0.0
H3334 H 0.97478 0.27179 0.10971 0.0
H3335 H 0.93472 0.25071 0.06477 0.0
H3336 H 0.9475 0.21564 0.1096 0.0
H3337 H 0.96446 0.19708 0.12555 0.0
H3338 H 0.9618 0.16167 0.08021 0.0
H3339 H 0.94497 0.18013 0.06395 0.0
C3340 C 0.85977 0.20961 0.05864 0.0
C3341 C 0.85475 0.19704 0.04459 0.0
C3342 C 0.87697 0.21465 0.06421 0.0
C3343 C 0.88942 0.20721 0.05586 0.0
C3344 C 0.88453 0.19402 0.04244 0.0
C3345 C 0.86727 0.18899 0.03678 0.0
C3346 C 0.90751 0.21395 0.06071 0.0
C3347 C 0.91845 0.20367 0.06848 0.0
C3348 C 0.91347 0.23104 0.05919 0.0
C3349 C 0.90233 0.24241 0.05104 0.0
C3350 C 0.8941 0.23776 0.03433 0.0
C3351 C 0.88321 0.2483 0.02695 0.0
C3352 C 0.88054 0.2636 0.03612 0.0
C3353 C 0.88878 0.2684 0.05267 0.0
C3354 C 0.89966 0.2579 0.06011 0.0
C3355 C 0.98832 0.23615 0.09057 0.0
C3356 C 0.9891 0.2518 0.10079 0.0
C3357 C 0.97281 0.22847 0.08149 0.0
C3358 C 0.95781 0.23603 0.08313 0.0
C3359 C 0.95877 0.25178 0.09332 0.0
C3360 C 0.9743 0.25967 0.10188 0.0
C3361 C 0.94095 0.22765 0.07464 0.0
C3362 C 0.93016 0.23759 0.066 0.0
C3363 C 0.93501 0.21038 0.07579 0.0
C3364 C 0.94518 0.19935 0.08553 0.0
C3365 C 0.95065 0.20395 0.10302 0.0
C3366 C 0.96021 0.19344 0.11211 0.0
C3367 C 0.96426 0.17823 0.10388 0.0
C3368 C 0.9587 0.17348 0.08655 0.0
C3369 C 0.94914 0.18395 0.0774 0.0
H3370 H 0.97166 0.17011 0.11095 0.0
H3371 H 0.87209 0.27173 0.0304 0.0
H3372 H 0.10612 0.75018 0.55667 0.0
H3373 H 0.08693 0.74084 0.53039 0.0
H3374 H 0.06291 0.6997 0.55385 0.0
H3375 H 0.08237 0.70887 0.58017 0.0
H3376 H 0.06723 0.68838 0.52314 0.0
H3377 H 0.04339 0.73614 0.54757 0.0
H3378 H 0.04307 0.7657 0.56053 0.0
H3379 H 0.05843 0.78436 0.51526 0.0
H3380 H 0.05903 0.75489 0.50209 0.0
H3381 H 0.99065 0.70495 0.45648 0.0
H3382 H 0.00756 0.70961 0.48467 0.0
H3383 H 0.04774 0.68523 0.46355 0.0
H3384 H 0.03021 0.67985 0.43553 0.0
H3385 H 0.03446 0.72874 0.49421 0.0
H3386 H 0.07162 0.67282 0.48646 0.0
H3387 H 0.07098 0.64151 0.48368 0.0
H3388 H 0.02333 0.63711 0.50442 0.0
H3389 H 0.02343 0.66826 0.50665 0.0
C3390 C 0.09666 0.73922 0.55628 0.0
C3391 C 0.09566 0.73034 0.57055 0.0
C3392 C 0.08566 0.7339 0.54124 0.0
C3393 C 0.07325 0.71973 0.54018 0.0
C3394 C 0.07236 0.71069 0.55435 0.0
C3395 C 0.08349 0.71592 0.56937 0.0
C3396 C 0.06141 0.7142 0.5242 0.0
C3397 C 0.06004 0.69722 0.51681 0.0
C3398 C 0.05174 0.72558 0.51607 0.0
C3399 C 0.05141 0.74332 0.52391 0.0
C3400 C 0.04682 0.74655 0.54043 0.0
C3401 C 0.04656 0.76329 0.5478 0.0
C3402 C 0.05077 0.77691 0.53874 0.0
C3403 C 0.05519 0.7738 0.52227 0.0
C3404 C 0.05548 0.75708 0.51483 0.0
C3405 C 0.00301 0.70044 0.45803 0.0
C3406 C 0.00925 0.69212 0.44402 0.0
C3407 C 0.01269 0.70304 0.4741 0.0
C3408 C 0.02897 0.69764 0.47644 0.0
C3409 C 0.03511 0.68913 0.46233 0.0
C3410 C 0.02525 0.68629 0.44628 0.0
C3411 C 0.04009 0.70273 0.49304 0.0
C3412 C 0.04155 0.71981 0.50049 0.0
C3413 C 0.04938 0.69129 0.50156 0.0
C3414 C 0.0473 0.67275 0.49626 0.0
C3415 C 0.06074 0.66507 0.48986 0.0
C3416 C 0.06056 0.64738 0.48854 0.0
C3417 C 0.04713 0.6373 0.49386 0.0
C3418 C 0.03364 0.64487 0.50011 0.0
C3419 C 0.03363 0.66252 0.50117 0.0
H3420 H 0.04712 0.62363 0.49306 0.0
H3421 H 0.05056 0.78986 0.54447 0.0
H3422 H 0.53561 0.36711 0.97213 0.0
H3423 H 0.56598 0.36505 0.97893 0.0
H3424 H 0.55526 0.31043 0.97531 0.0
H3425 H 0.52498 0.31231 0.96908 0.0
H3426 H 0.56423 0.33191 0.00885 0.0
H3427 H 0.58832 0.32196 0.95418 0.0
H3428 H 0.59178 0.33053 0.92572 0.0
H3429 H 0.61076 0.38153 0.94853 0.0
H3430 H 0.607 0.37322 0.97704 0.0
H3431 H 0.65194 0.29864 0.05754 0.0
H3432 H 0.64375 0.33001 0.05918 0.0
H3433 H 0.60998 0.30664 0.99389 0.0
H3434 H 0.62443 0.28014 1.00044 0.0
H3435 H 0.62234 0.34357 0.99295 0.0
H3436 H 0.59946 0.36998 0.03056 0.0
H3437 H 0.59136 0.38502 0.05671 0.0
H3438 H 0.56331 0.33874 0.06682 0.0
H3439 H 0.57127 0.32342 0.04072 0.0
C3440 C 0.53974 0.3546 0.97228 0.0
C3441 C 0.52773 0.33992 0.9705 0.0
C3442 C 0.55719 0.35343 0.97581 0.0
C3443 C 0.56292 0.33757 0.97753 0.0
C3444 C 0.55116 0.32277 0.97375 0.0
C3445 C 0.53374 0.32392 0.9703 0.0
C3446 C 0.57895 0.33693 0.98872 0.0
C3447 C 0.57705 0.33373 0.00527 0.0
C3448 C 0.59538 0.34215 0.9847 0.0
C3449 C 0.59779 0.34694 0.96767 0.0
C3450 C 0.59331 0.33497 0.95307 0.0
C3451 C 0.59525 0.33978 0.93695 0.0
C3452 C 0.60161 0.35653 0.93532 0.0
C3453 C 0.60599 0.36852 0.94981 0.0
C3454 C 0.60404 0.36375 0.96594 0.0
C3455 C 0.64651 0.30276 0.04589 0.0
C3456 C 0.64281 0.28908 0.028 0.0
C3457 C 0.64007 0.32205 0.0469 0.0
C3458 C 0.62046 0.32562 0.01993 0.0
C3459 C 0.61852 0.30772 0.00563 0.0
C3460 C 0.62832 0.29082 0.01009 0.0
C3461 C 0.60789 0.33775 0.01348 0.0
C3462 C 0.60971 0.34202 0.99691 0.0
C3463 C 0.59088 0.33653 0.01801 0.0
C3464 C 0.58643 0.34543 0.03402 0.0
C3465 C 0.5917 0.363 0.03846 0.0
C3466 C 0.5871 0.37157 0.05324 0.0
C3467 C 0.57697 0.3628 0.0635 0.0
C3468 C 0.57128 0.34547 0.05893 0.0
C3469 C 0.57583 0.33683 0.04416 0.0
H3470 H 0.57343 0.36946 0.07494 0.0
H3471 H 0.60307 0.36025 0.92283 0.0
H3472 H 0.38733 0.5024 0.69781 0.0
H3473 H 0.40017 0.47602 0.69789 0.0
H3474 H 0.42762 0.49447 0.74752 0.0
H3475 H 0.41532 0.52143 0.74695 0.0
H3476 H 0.44833 0.48102 0.72885 0.0
H3477 H 0.39337 0.46107 0.74079 0.0
H3478 H 0.362 0.45648 0.738 0.0
H3479 H 0.36048 0.42911 0.68818 0.0
H3480 H 0.39185 0.4339 0.6904 0.0
H3481 H 0.47777 0.40115 0.73822 0.0
H3482 H 0.46206 0.42595 0.74191 0.0
H3483 H 0.43848 0.41418 0.68979 0.0
H3484 H 0.45425 0.3893 0.68628 0.0
H3485 H 0.41554 0.42402 0.71069 0.0
H3486 H 0.47165 0.44511 0.7005 0.0
H3487 H 0.50304 0.44883 0.70531 0.0
H3488 H 0.50201 0.47299 0.75613 0.0
H3489 H 0.47057 0.46914 0.75173 0.0
C3490 C 0.39614 0.50086 0.70869 0.0
C3491 C 0.40043 0.51413 0.72219 0.0
C3492 C 0.40332 0.48563 0.70887 0.0
C3493 C 0.4148 0.48304 0.72279 0.0
C3494 C 0.4188 0.49609 0.7366 0.0
C3495 C 0.41165 0.51146 0.73634 0.0
C3496 C 0.42322 0.46711 0.72232 0.0
C3497 C 0.44109 0.46852 0.7254 0.0
C3498 C 0.41391 0.45072 0.71737 0.0
C3499 C 0.395 0.448 0.71572 0.0
C3500 C 0.38635 0.45425 0.72913 0.0
C3501 C 0.36857 0.45161 0.72764 0.0
C3502 C 0.35926 0.4426 0.71285 0.0
C3503 C 0.36773 0.43619 0.69954 0.0
C3504 C 0.38551 0.43886 0.70092 0.0
C3505 C 0.46899 0.40377 0.72771 0.0
C3506 C 0.46701 0.39336 0.71204 0.0
C3507 C 0.46017 0.41801 0.72972 0.0
C3508 C 0.44922 0.42212 0.71605 0.0
C3509 C 0.44685 0.41134 0.70051 0.0
C3510 C 0.4558 0.39716 0.69849 0.0
C3511 C 0.44058 0.43785 0.71789 0.0
C3512 C 0.42273 0.43645 0.71474 0.0
C3513 C 0.44986 0.45416 0.72324 0.0
C3514 C 0.46875 0.4567 0.72584 0.0
C3515 C 0.47811 0.45111 0.71274 0.0
C3516 C 0.49591 0.45325 0.71539 0.0
C3517 C 0.50451 0.46111 0.73102 0.0
C3518 C 0.49532 0.46689 0.74403 0.0
C3519 C 0.47751 0.46474 0.74147 0.0
H3520 H 0.5183 0.46276 0.73305 0.0
H3521 H 0.34549 0.44053 0.71173 0.0
H3522 H 0.06257 0.85099 0.19218 0.0
H3523 H 0.07501 0.88021 0.20301 0.0
H3524 H 0.02471 0.89522 0.20453 0.0
H3525 H 0.01212 0.86586 0.19383 0.0
H3526 H 0.05268 0.91891 0.19084 0.0
H3527 H 0.03932 0.88854 0.23879 0.0
H3528 H 0.04028 0.86383 0.25491 0.0
H3529 H 0.09497 0.87146 0.26066 0.0
H3530 H 0.09432 0.89604 0.24432 0.0
H3531 H 0.08591 0.99788 0.2406 0.0
H3532 H 0.06797 0.97156 0.2281 0.0
H3533 H 0.10645 0.94224 0.24797 0.0
H3534 H 0.12232 0.96807 0.26342 0.0
H3535 H 0.08053 0.92597 0.25054 0.0
H3536 H 0.09631 0.95341 0.20182 0.0
H3537 H 0.09786 0.97659 0.18363 0.0
H3538 H 0.04327 0.97334 0.17666 0.0
H3539 H 0.04141 0.9503 0.19499 0.0
C3540 C 0.05416 0.86059 0.19447 0.0
C3541 C 0.0364 0.85622 0.19222 0.0
C3542 C 0.06127 0.87722 0.20068 0.0
C3543 C 0.05072 0.88974 0.20456 0.0
C3544 C 0.03298 0.88566 0.20153 0.0
C3545 C 0.02585 0.86894 0.19554 0.0
C3546 C 0.05835 0.90664 0.21316 0.0
C3547 C 0.05868 0.92064 0.20395 0.0
C3548 C 0.0664 0.9086 0.23009 0.0
C3549 C 0.06676 0.89404 0.24022 0.0
C3550 C 0.05154 0.88487 0.24338 0.0
C3551 C 0.05203 0.8709 0.25258 0.0
C3552 C 0.06768 0.86606 0.25878 0.0
C3553 C 0.08286 0.87521 0.25584 0.0
C3554 C 0.08244 0.88917 0.24663 0.0
C3555 C 0.09034 0.98578 0.24251 0.0
C3556 C 0.10575 0.98511 0.25277 0.0
C3557 C 0.08027 0.97073 0.23497 0.0
C3558 C 0.08601 0.95479 0.23642 0.0
C3559 C 0.10157 0.95424 0.24647 0.0
C3560 C 0.11097 0.96913 0.25498 0.0
C3561 C 0.07582 0.93857 0.22805 0.0
C3562 C 0.07473 0.92455 0.23739 0.0
C3563 C 0.0676 0.93652 0.21102 0.0
C3564 C 0.06874 0.95026 0.1999 0.0
C3565 C 0.08465 0.9577 0.19646 0.0
C3566 C 0.08558 0.97081 0.18613 0.0
C3567 C 0.07067 0.97646 0.17903 0.0
C3568 C 0.0548 0.96896 0.18217 0.0
C3569 C 0.05381 0.95588 0.19253 0.0
H3570 H 0.07142 0.98663 0.17106 0.0
H3571 H 0.06804 0.85524 0.26588 0.0
H3572 H 0.59008 0.08876 0.69833 0.0
H3573 H 0.56355 0.07136 0.68502 0.0
H3574 H 0.54104 0.08151 0.7314 0.0
H3575 H 0.56719 0.09886 0.74463 0.0
H3576 H 0.53423 0.0479 0.71775 0.0
H3577 H 0.53509 0.10441 0.69587 0.0
H3578 H 0.54724 0.12585 0.67893 0.0
H3579 H 0.54086 0.08822 0.63489 0.0
H3580 H 0.52885 0.06655 0.65162 0.0
H3581 H 0.44735 0.03823 0.70814 0.0
H3582 H 0.47737 0.04974 0.71268 0.0
H3583 H 0.47957 0.04143 0.65843 0.0
H3584 H 0.44889 0.03155 0.65385 0.0
H3585 H 0.49958 0.06799 0.66994 0.0
H3586 H 0.4965 0.01306 0.68621 0.0
H3587 H 0.48529 0.98822 0.6995 0.0
H3588 H 0.49811 0.01705 0.74905 0.0
H3589 H 0.50925 0.04206 0.73603 0.0
C3590 C 0.57947 0.08722 0.70568 0.0
C3591 C 0.5808 0.09517 0.72259 0.0
C3592 C 0.56435 0.07727 0.69806 0.0
C3593 C 0.55029 0.07524 0.70719 0.0
C3594 C 0.55176 0.08282 0.72414 0.0
C3595 C 0.56679 0.09269 0.73174 0.0
C3596 C 0.53369 0.06576 0.6993 0.0
C3597 C 0.52664 0.05229 0.7073 0.0
C3598 C 0.52416 0.07072 0.68497 0.0
C3599 C 0.53127 0.08385 0.67503 0.0
C3600 C 0.53639 0.10071 0.6826 0.0
C3601 C 0.54323 0.1129 0.67303 0.0
C3602 C 0.54487 0.10839 0.65586 0.0
C3603 C 0.53962 0.0917 0.6482 0.0
C3604 C 0.53279 0.07947 0.65771 0.0
C3605 C 0.4541 0.03944 0.69718 0.0
C3606 C 0.44587 0.034 0.68068 0.0
C3607 C 0.47138 0.04561 0.69977 0.0
C3608 C 0.48097 0.04581 0.68596 0.0
C3609 C 0.47255 0.0412 0.66933 0.0
C3610 C 0.45507 0.03554 0.66671 0.0
C3611 C 0.49971 0.05088 0.68915 0.0
C3612 C 0.50721 0.06333 0.68018 0.0
C3613 C 0.50994 0.04447 0.7021 0.0
C3614 C 0.50358 0.02943 0.71012 0.0
C3615 C 0.49682 0.01409 0.69993 0.0
C3616 C 0.49051 1.0 0.70741 0.0
C3617 C 0.49095 1.00108 0.7251 0.0
C3618 C 0.49779 0.01623 0.73535 0.0
C3619 C 0.50415 0.03035 0.72793 0.0
H3620 H 0.48602 0.99018 0.73088 0.0
H3621 H 0.55017 0.11784 0.64848 0.0
H3622 H 0.00968 0.50592 0.30243 0.0
H3623 H 0.01481 0.53677 0.30293 0.0
H3624 H 0.01876 0.54311 0.3578 0.0
H3625 H 0.01432 0.51216 0.35753 0.0
H3626 H 0.9948 0.56123 0.34159 0.0
H3627 H 0.05308 0.55407 0.34259 0.0
H3628 H 0.07792 0.54102 0.33381 0.0
H3629 H 0.06789 0.55604 0.28383 0.0
H3630 H 0.04283 0.569 0.29226 0.0
H3631 H 0.98441 0.63615 0.30808 0.0
H3632 H 0.98729 0.60802 0.3124 0.0
H3633 H 0.04062 0.6222 0.32966 0.0
H3634 H 0.03898 0.64938 0.32125 0.0
H3635 H 0.03901 0.59413 0.31496 0.0
H3636 H 0.97043 0.58055 0.3187 0.0
H3637 H 0.94492 0.58878 0.33095 0.0
H3638 H 0.97609 0.61114 0.37718 0.0
H3639 H 1.00196 0.60409 0.36467 0.0
C3640 C 0.01207 0.51381 0.31464 0.0
C3641 C 0.01152 0.50657 0.32994 0.0
C3642 C 0.01499 0.53143 0.31489 0.0
C3643 C 0.01729 0.5421 0.3304 0.0
C3644 C 0.01706 0.53499 0.34572 0.0
C3645 C 0.01435 0.51734 0.34551 0.0
C3646 C 0.0181 0.56067 0.33038 0.0
C3647 C 0.0046 0.56859 0.33604 0.0
C3648 C 0.03091 0.57009 0.3232 0.0
C3649 C 0.046 0.56241 0.31803 0.0
C3650 C 0.05609 0.55448 0.32969 0.0
C3651 C 0.07023 0.54712 0.32478 0.0
C3652 C 0.07447 0.54767 0.30826 0.0
C3653 C 0.06459 0.55562 0.29663 0.0
C3654 C 0.05043 0.563 0.30147 0.0
C3655 C 0.99725 0.63354 0.31097 0.0
C3656 C 0.01161 0.64603 0.31186 0.0
C3657 C 0.99858 0.61717 0.31497 0.0
C3658 C 0.01403 0.61276 0.32204 0.0
C3659 C 0.02838 0.62507 0.32407 0.0
C3660 C 0.02727 0.64124 0.31893 0.0
C3661 C 0.01548 0.59509 0.32611 0.0
C3662 C 0.02939 0.58714 0.32101 0.0
C3663 C 0.00307 0.58561 0.33405 0.0
C3664 C 0.98814 0.59246 0.3405 0.0
C3665 C 0.97187 0.58775 0.33126 0.0
C3666 C 0.95738 0.59223 0.33823 0.0
C3667 C 0.95893 0.60074 0.35474 0.0
C3668 C 0.97499 0.60489 0.36424 0.0
C3669 C 0.98961 0.60098 0.35709 0.0
H3670 H 0.94769 0.60398 0.36024 0.0
H3671 H 0.08542 0.54196 0.30449 0.0
H3672 H 0.38157 0.65785 0.3899 0.0
H3673 H 0.40709 0.65755 0.37583 0.0
H3674 H 0.37627 0.64745 0.32684 0.0
H3675 H 0.35048 0.64638 0.34099 0.0
H3676 H 0.39984 0.62859 0.3258 0.0
H3677 H 0.40175 0.68805 0.34303 0.0
H3678 H 0.40086 0.71421 0.36254 0.0
H3679 H 0.44439 0.70314 0.39433 0.0
H3680 H 0.44555 0.67693 0.37514 0.0
H3681 H 0.47401 0.63984 0.28289 0.0
H3682 H 0.44714 0.6454 0.29389 0.0
H3683 H 0.4715 0.64657 0.34529 0.0
H3684 H 0.49831 0.64113 0.33417 0.0
H3685 H 0.45051 0.67175 0.34279 0.0
H3686 H 0.44664 0.61098 0.32462 0.0
H3687 H 0.44735 0.58601 0.30349 0.0
H3688 H 0.40641 0.60141 0.2712 0.0
H3689 H 0.40563 0.62662 0.29204 0.0
C3690 C 0.38009 0.65538 0.37612 0.0
C3691 C 0.36374 0.65192 0.36669 0.0
C3692 C 0.39484 0.65554 0.36801 0.0
C3693 C 0.39383 0.65274 0.35015 0.0
C3694 C 0.37755 0.64968 0.34063 0.0
C3695 C 0.36272 0.64927 0.34877 0.0
C3696 C 0.40971 0.65217 0.34157 0.0
C3697 C 0.41075 0.63826 0.32933 0.0
C3698 C 0.42421 0.6646 0.34614 0.0
C3699 C 0.42367 0.68046 0.35769 0.0
C3700 C 0.4111 0.69117 0.35424 0.0
C3701 C 0.41057 0.70603 0.36524 0.0
C3702 C 0.42259 0.71036 0.37969 0.0
C3703 C 0.43515 0.69984 0.38315 0.0
C3704 C 0.43578 0.68499 0.37219 0.0
C3705 C 0.47356 0.64146 0.29651 0.0
C3706 C 0.48808 0.63994 0.30772 0.0
C3707 C 0.45824 0.64456 0.30281 0.0
C3708 C 0.45716 0.6462 0.32046 0.0
C3709 C 0.47193 0.64532 0.33165 0.0
C3710 C 0.4872 0.64217 0.32534 0.0
C3711 C 0.44058 0.64812 0.32728 0.0
C3712 C 0.43946 0.66225 0.33918 0.0
C3713 C 0.42591 0.63608 0.32217 0.0
C3714 C 0.42618 0.62075 0.30981 0.0
C3715 C 0.43785 0.60908 0.31297 0.0
C3716 C 0.43826 0.59489 0.30105 0.0
C3717 C 0.42695 0.59214 0.286 0.0
C3718 C 0.41517 0.60356 0.28286 0.0
C3719 C 0.41473 0.6178 0.29472 0.0
H3720 H 0.4273 0.58115 0.27677 0.0
H3721 H 0.4222 0.72188 0.38818 0.0
H3722 H 0.14689 0.32371 0.79716 0.0
H3723 H 0.118 0.31646 0.78196 0.0
H3724 H 0.13803 0.2888 0.74052 0.0
H3725 H 0.16684 0.29628 0.7554 0.0
H3726 H 0.11637 0.30819 0.72825 0.0
H3727 H 0.11542 0.26808 0.76825 0.0
H3728 H 0.11837 0.25781 0.79642 0.0
H3729 H 0.07965 0.28751 0.81207 0.0
H3730 H 0.07663 0.29818 0.78408 0.0
H3731 H 0.03241 0.29311 0.6851 0.0
H3732 H 0.0592 0.28515 0.69712 0.0
H3733 H 0.04595 0.29791 0.74757 0.0
H3734 H 0.01775 0.30238 0.73495 0.0
H3735 H 0.06712 0.28199 0.75321 0.0
H3736 H 0.09016 0.33264 0.7158 0.0
H3737 H 0.0896 0.34172 0.68719 0.0
H3738 H 0.09031 0.28993 0.66562 0.0
H3739 H 0.09023 0.2806 0.69422 0.0
C3740 C 0.14516 0.3161 0.7848 0.0
C3741 C 0.15932 0.31058 0.77759 0.0
C3742 C 0.12857 0.3118 0.77616 0.0
C3743 C 0.12568 0.30192 0.76006 0.0
C3744 C 0.13979 0.29638 0.7529 0.0
C3745 C 0.15633 0.30058 0.76154 0.0
C3746 C 0.10815 0.29802 0.75029 0.0
C3747 C 0.10555 0.30249 0.73372 0.0
C3748 C 0.09401 0.29031 0.75718 0.0
C3749 C 0.09593 0.28406 0.7741 0.0
C3750 C 0.10765 0.27256 0.77775 0.0
C3751 C 0.10931 0.26664 0.79368 0.0
C3752 C 0.09924 0.27204 0.80604 0.0
C3753 C 0.08746 0.28336 0.8025 0.0
C3754 C 0.08577 0.28934 0.78659 0.0
C3755 C 0.0354 0.29473 0.69876 0.0
C3756 C 0.02434 0.30203 0.70936 0.0
C3757 C 0.05118 0.29052 0.70574 0.0
C3758 C 0.05634 0.29343 0.72346 0.0
C3759 C 0.04345 0.29679 0.73383 0.0
C3760 C 0.02734 0.30004 0.7267 0.0
C3761 C 0.07469 0.2935 0.73139 0.0
C3762 C 0.07767 0.28812 0.7477 0.0
C3763 C 0.08928 0.30031 0.72418 0.0
C3764 C 0.08858 0.30576 0.70694 0.0
C3765 C 0.08927 0.32311 0.70489 0.0
C3766 C 0.08936 0.32834 0.6887 0.0
C3767 C 0.08947 0.31635 0.67451 0.0
C3768 C 0.08985 0.29917 0.67656 0.0
C3769 C 0.08974 0.29392 0.69276 0.0
H3770 H 0.08957 0.32041 0.66197 0.0
H3771 H 0.10052 0.26742 0.81836 0.0
H3772 H 0.73848 0.00322 0.6281 0.0
H3773 H 0.76693 1.00168 0.64247 0.0
H3774 H 0.74485 0.98321 0.68508 0.0
H3775 H 0.71629 0.98437 0.67065 0.0
H3776 H 0.77134 0.00957 0.69458 0.0
H3777 H 0.76035 0.95613 0.65722 0.0
H3778 H 0.75274 0.9385 0.62933 0.0
H3779 H 0.79562 0.96438 0.61041 0.0
H3780 H 0.80335 0.98234 0.63811 0.0
H3781 H 0.8461 0.98915 0.7391 0.0
H3782 H 0.81721 0.98606 0.72365 0.0
H3783 H 0.83843 0.99723 0.67787 0.0
H3784 H 0.86723 0.99965 0.69331 0.0
H3785 H 0.81214 0.97413 0.66965 0.0
H3786 H 0.82337 0.02785 0.7043 0.0
H3787 H 0.83182 0.04761 0.73074 0.0
H3788 H 0.78953 0.02465 0.75286 0.0
H3789 H 0.78102 0.00449 0.72666 0.0
C3790 C 0.73964 0.99861 0.64043 0.0
C3791 C 0.72509 0.99385 0.6482 0.0
C3792 C 0.75592 0.99779 0.64864 0.0
C3793 C 0.75796 0.99218 0.66476 0.0
C3794 C 0.74351 0.98757 0.67263 0.0
C3795 C 0.72722 0.98832 0.66441 0.0
C3796 C 0.77519 0.99148 0.67359 0.0
C3797 C 0.78018 1.00161 0.6893 0.0
C3798 C 0.7869 0.98161 0.6663 0.0
C3799 C 0.78234 0.97067 0.6497 0.0
C3800 C 0.76809 0.95814 0.64708 0.0
C3801 C 0.76376 0.94808 0.63131 0.0
C3802 C 0.77367 0.95034 0.6181 0.0
C3803 C 0.78795 0.96265 0.62065 0.0
C3804 C 0.79232 0.97276 0.63639 0.0
C3805 C 0.84444 0.99063 0.72568 0.0
C3806 C 0.85864 0.99461 0.71727 0.0
C3807 C 0.82804 0.98898 0.71688 0.0
C3808 C 0.82564 0.99174 0.69967 0.0
C3809 C 0.83994 0.99505 0.69113 0.0
C3810 C 0.85634 0.99644 0.69988 0.0
C3811 C 0.80827 0.99207 0.69081 0.0
C3812 C 0.80328 0.98199 0.67505 0.0
C3813 C 0.79667 0.00232 0.69784 0.0
C3814 C 0.80167 0.01452 0.71358 0.0
C3815 C 0.81595 0.02692 0.71485 0.0
C3816 C 0.82075 0.0382 0.7298 0.0
C3817 C 0.81125 0.03736 0.74349 0.0
C3818 C 0.7969 0.02526 0.74226 0.0
C3819 C 0.79209 0.01389 0.72736 0.0
H3820 H 0.81497 0.04612 0.75505 0.0
H3821 H 0.77029 0.94254 0.6059 0.0
H3822 H 0.78621 0.04512 0.32293 0.0
H3823 H 0.75631 0.04473 0.32846 0.0
H3824 H 0.74683 0.99136 0.30933 0.0
H3825 H 0.77625 0.99162 0.30358 0.0
H3826 H 0.72436 0.01467 0.30626 0.0
H3827 H 0.75094 0.01519 0.35074 0.0
H3828 H 0.76819 0.02491 0.37792 0.0
H3829 H 0.73112 0.05717 0.39228 0.0
H3830 H 0.71374 0.04825 0.36493 0.0
H3831 H 0.63 0.99049 0.30777 0.0
H3832 H 0.65979 0.99529 0.30315 0.0
H3833 H 0.66394 0.04633 0.32917 0.0
H3834 H 0.63337 0.04224 0.33195 0.0
H3835 H 0.69085 0.03228 0.34779 0.0
H3836 H 0.66576 0.03249 0.28535 0.0
H3837 H 0.64675 0.02678 0.25834 0.0
H3838 H 0.67378 0.98538 0.2419 0.0
H3839 H 0.69273 0.99063 0.26887 0.0
C3840 C 0.77785 0.03319 0.3205 0.0
C3841 C 0.78335 0.01847 0.31247 0.0
C3842 C 0.76087 0.03299 0.32374 0.0
C3843 C 0.74954 0.01794 0.31947 0.0
C3844 C 0.75547 0.00299 0.31288 0.0
C3845 C 0.77225 0.0032 0.30953 0.0
C3846 C 0.72987 0.01828 0.31804 0.0
C3847 C 0.71509 0.0123 0.29675 0.0
C3848 C 0.72052 0.02636 0.33788 0.0
C3849 C 0.73127 0.03171 0.35472 0.0
C3850 C 0.74663 0.02498 0.35904 0.0
C3851 C 0.75643 0.03018 0.37483 0.0
C3852 C 0.75095 0.04191 0.38672 0.0
C3853 C 0.73552 0.04827 0.38294 0.0
C3854 C 0.72568 0.04312 0.36717 0.0
C3855 C 0.63701 0.00297 0.31185 0.0
C3856 C 0.62929 0.01597 0.32023 0.0
C3857 C 0.65415 0.00567 0.30938 0.0
C3858 C 0.66412 0.02114 0.31593 0.0
C3859 C 0.65646 0.03428 0.32406 0.0
C3860 C 0.63907 0.03186 0.32581 0.0
C3861 C 0.68271 0.02264 0.31581 0.0
C3862 C 0.69655 0.02845 0.33646 0.0
C3863 C 0.69152 0.01477 0.29612 0.0
C3864 C 0.68029 0.01146 0.27966 0.0
C3865 C 0.6674 0.02182 0.27625 0.0
C3866 C 0.65669 0.01879 0.2608 0.0
C3867 C 0.65889 0.00557 0.24848 0.0
C3868 C 0.67195 0.99551 0.25153 0.0
C3869 C 0.68271 0.99853 0.26697 0.0
H3870 H 0.65059 0.00323 0.23652 0.0
H3871 H 0.75853 0.04588 0.39896 0.0
H3872 H 0.33645 0.35252 0.67129 0.0
H3873 H 0.32716 0.38051 0.66897 0.0
H3874 H 0.36413 0.39083 0.6346 0.0
H3875 H 0.37342 0.36269 0.63668 0.0
H3876 H 0.36258 0.41902 0.65707 0.0
H3877 H 0.32212 0.37845 0.61953 0.0
H3878 H 0.30164 0.35234 0.61244 0.0
H3879 H 0.27069 0.37147 0.64934 0.0
H3880 H 0.29113 0.3976 0.65682 0.0
H3881 H 0.32948 0.48969 0.6249 0.0
H3882 H 0.33983 0.46247 0.62874 0.0
H3883 H 0.29691 0.44847 0.65521 0.0
H3884 H 0.28565 0.47509 0.64972 0.0
H3885 H 0.30174 0.42191 0.63735 0.0
H3886 H 0.34093 0.46288 0.67478 0.0
H3887 H 0.36061 0.48947 0.68171 0.0
H3888 H 0.39414 0.4698 0.64776 0.0
H3889 H 0.3743 0.44329 0.64013 0.0
C3890 C 0.34258 0.36063 0.66311 0.0
C3891 C 0.35557 0.35506 0.65397 0.0
C3892 C 0.33726 0.37674 0.66185 0.0
C3893 C 0.34468 0.38778 0.65135 0.0
C3894 C 0.35811 0.38259 0.64274 0.0
C3895 C 0.36346 0.36644 0.64399 0.0
C3896 C 0.33808 0.40445 0.64898 0.0
C3897 C 0.3493 0.41965 0.65263 0.0
C3898 C 0.32067 0.40544 0.64355 0.0
C3899 C 0.30821 0.3899 0.63883 0.0
C3900 C 0.31098 0.37704 0.62619 0.0
C3901 C 0.29938 0.36225 0.6221 0.0
C3902 C 0.28489 0.36023 0.63046 0.0
C3903 C 0.28193 0.37304 0.64289 0.0
C3904 C 0.29351 0.38785 0.64705 0.0
C3905 C 0.3221 0.48071 0.63131 0.0
C3906 C 0.30667 0.48462 0.63692 0.0
C3907 C 0.32822 0.46518 0.63381 0.0
C3908 C 0.31947 0.45331 0.64268 0.0
C3909 C 0.30407 0.45728 0.64841 0.0
C3910 C 0.2977 0.47265 0.64547 0.0
C3911 C 0.32618 0.43671 0.64564 0.0
C3912 C 0.31499 0.42144 0.64199 0.0
C3913 C 0.34358 0.43571 0.65139 0.0
C3914 C 0.356 0.4512 0.65669 0.0
C3915 C 0.35246 0.46425 0.66873 0.0
C3916 C 0.36364 0.47933 0.67275 0.0
C3917 C 0.37859 0.48137 0.66509 0.0
C3918 C 0.3825 0.46823 0.65359 0.0
C3919 C 0.37128 0.45319 0.64939 0.0
H3920 H 0.38718 0.49311 0.66805 0.0
H3921 H 0.27593 0.34876 0.62729 0.0
H3922 H 0.32285 0.78029 0.01802 0.0
H3923 H 0.32926 0.75131 0.01697 0.0
H3924 H 0.27669 0.73276 0.99853 0.0
H3925 H 0.26993 0.76207 1.00085 0.0
H3926 H 0.28373 0.71375 0.01931 0.0
H3927 H 0.31463 0.73127 0.97192 0.0
H3928 H 0.3303 0.75392 0.95899 0.0
H3929 H 0.37333 0.7551 0.99689 0.0
H3930 H 0.358 0.73246 0.00979 0.0
H3931 H 0.29726 0.62189 0.98152 0.0
H3932 H 0.29276 0.6516 0.98684 0.0
H3933 H 0.31434 0.65339 0.03916 0.0
H3934 H 0.31692 0.62283 0.03439 0.0
H3935 H 0.33232 0.66777 0.00335 0.0
H3936 H 0.28897 0.66783 0.04366 0.0
H3937 H 0.26191 0.65638 0.05231 0.0
H3938 H 0.23449 0.67972 0.01352 0.0
H3939 H 0.26143 0.69124 0.00435 0.0
C3940 C 0.31263 0.77009 0.01369 0.0
C3941 C 0.29583 0.77357 0.00985 0.0
C3942 C 0.31635 0.75334 0.01291 0.0
C3943 C 0.30355 0.73959 0.00743 0.0
C3944 C 0.28682 0.74304 0.00298 0.0
C3945 C 0.28298 0.75984 0.00427 0.0
C3946 C 0.3075 0.72175 0.00691 0.0
C3947 C 0.29437 0.70802 0.01479 0.0
C3948 C 0.325 0.71669 0.99961 0.0
C3949 C 0.33565 0.7289 0.99091 0.0
C3950 C 0.32773 0.73582 0.97703 0.0
C3951 C 0.33647 0.74887 0.96982 0.0
C3952 C 0.353 0.75565 0.97682 0.0
C3953 C 0.36067 0.74955 0.99119 0.0
C3954 C 0.35195 0.73645 0.99837 0.0
C3955 C 0.30001 0.6282 0.99444 0.0
C3956 C 0.30747 0.61983 0.0075 0.0
C3957 C 0.29729 0.64529 0.99754 0.0
C3958 C 0.30253 0.65474 0.01361 0.0
C3959 C 0.30943 0.6463 0.02686 0.0
C3960 C 0.31144 0.62892 0.02396 0.0
C3961 C 0.30699 0.67339 0.01409 0.0
C3962 C 0.32409 0.6773 0.00601 0.0
C3963 C 0.29381 0.68756 0.0176 0.0
C3964 C 0.27751 0.68056 0.02327 0.0
C3965 C 0.27731 0.67057 0.03682 0.0
C3966 C 0.2619 0.66402 0.04187 0.0
C3967 C 0.24648 0.66733 0.03349 0.0
C3968 C 0.24645 0.6772 0.02004 0.0
C3969 C 0.26184 0.68378 0.01494 0.0
H3970 H 0.23456 0.66224 0.03742 0.0
H3971 H 0.35973 0.76584 0.97132 0.0
H3972 H 0.76649 0.17894 0.30579 0.0
H3973 H 0.74949 0.15106 0.29863 0.0
H3974 H 0.78899 0.1279 0.32572 0.0
H3975 H 0.80624 0.15588 0.33285 0.0
H3976 H 0.77339 0.10742 0.29469 0.0
H3977 H 0.75742 0.13642 0.34564 0.0
H3978 H 0.74854 0.16067 0.3631 0.0
H3979 H 0.70298 0.15833 0.32808 0.0
H3980 H 0.71175 0.13418 0.31026 0.0
H3981 H 0.7112 0.0551 0.33846 0.0
H3982 H 0.72601 0.07825 0.33356 0.0
H3983 H 0.71986 0.06208 0.28062 0.0
H3984 H 0.7069 0.03648 0.28391 0.0
H3985 H 0.71858 0.10245 0.31898 0.0
H3986 H 0.74068 0.07627 0.26513 0.0
H3987 H 0.75225 0.05278 0.24898 0.0
H3988 H 0.78885 0.05007 0.29212 0.0
H3989 H 0.77677 0.07282 0.30888 0.0
C3990 C 0.77176 0.16791 0.30999 0.0
C3991 C 0.78777 0.16974 0.31997 0.0
C3992 C 0.76196 0.15194 0.30591 0.0
C3993 C 0.7679 0.13733 0.31164 0.0
C3994 C 0.78414 0.13896 0.32108 0.0
C3995 C 0.79392 0.155 0.32531 0.0
C3996 C 0.75651 0.12076 0.30911 0.0
C3997 C 0.7614 0.1063 0.30001 0.0
C3998 C 0.74074 0.11925 0.31579 0.0
C3999 C 0.73533 0.13365 0.32652 0.0
C4000 C 0.74558 0.14117 0.34159 0.0
C4001 C 0.74056 0.15488 0.35156 0.0
C4002 C 0.72523 0.16107 0.34667 0.0
C4003 C 0.71487 0.15353 0.33183 0.0
C4004 C 0.71985 0.13983 0.32179 0.0
C4005 C 0.71333 0.05307 0.32529 0.0
C4006 C 0.70938 0.03626 0.3134 0.0
C4007 C 0.72227 0.06847 0.32272 0.0
C4008 C 0.72611 0.07171 0.30692 0.0
C4009 C 0.71925 0.05939 0.29358 0.0
C4010 C 0.71097 0.04344 0.29644 0.0
C4011 C 0.7356 0.08869 0.305 0.0
C4012 C 0.73041 0.10346 0.31336 0.0
C4013 C 0.75114 0.09038 0.2978 0.0
C4014 C 0.75745 0.07578 0.28839 0.0
C4015 C 0.75087 0.07028 0.27131 0.0
C4016 C 0.75748 0.05709 0.26208 0.0
C4017 C 0.77106 0.04968 0.26965 0.0
C4018 C 0.77803 0.05548 0.28646 0.0
C4019 C 0.7712 0.0684 0.29588 0.0
H4020 H 0.77632 0.03961 0.26244 0.0
H4021 H 0.72136 0.17169 0.35441 0.0
H4022 H 0.65703 0.71602 0.9713 0.0
H4023 H 0.67003 0.74461 0.96789 0.0
H4024 H 0.65946 0.76325 0.01817 0.0
H4025 H 0.64649 0.73477 0.02167 0.0
H4026 H 0.65291 0.78561 0.99501 0.0
H4027 H 0.6981 0.7528 0.01255 0.0
H4028 H 0.7139 0.72785 0.00973 0.0
H4029 H 0.72504 0.73891 0.96023 0.0
H4030 H 0.70909 0.7638 0.96268 0.0
H4031 H 0.71116 0.85953 0.01917 0.0
H4032 H 0.69461 0.83138 0.01672 0.0
H4033 H 0.71309 0.8175 0.96867 0.0
H4034 H 0.73046 0.84546 0.97178 0.0
H4035 H 0.71417 0.79255 0.98713 0.0
H4036 H 0.67167 0.8279 0.97132 0.0
H4037 H 0.65569 0.85268 0.97448 0.0
H4038 H 0.63912 0.83713 0.02056 0.0
H4039 H 0.65522 0.81239 0.01784 0.0
C4040 C 0.65758 0.72621 0.98165 0.0
C4041 C 0.65095 0.72317 0.99682 0.0
C4042 C 0.66487 0.74252 0.97964 0.0
C4043 C 0.66579 0.75595 0.99284 0.0
C4044 C 0.65879 0.75304 0.00782 0.0
C4045 C 0.65145 0.73678 0.00981 0.0
C4046 C 0.67498 0.77282 0.99157 0.0
C4047 C 0.66632 0.78721 0.99337 0.0
C4048 C 0.69235 0.77474 0.98903 0.0
C4049 C 0.70229 0.76005 0.98773 0.0
C4050 C 0.70386 0.74986 1.00104 0.0
C4051 C 0.71284 0.73573 0.99951 0.0
C4052 C 0.72044 0.73177 0.98479 0.0
C4053 C 0.71913 0.74198 0.97161 0.0
C4054 C 0.71014 0.7561 0.97307 0.0
C4055 C 0.71174 0.85033 0.00821 0.0
C4056 C 0.72196 0.85445 0.99564 0.0
C4057 C 0.70215 0.8344 0.00667 0.0
C4058 C 0.70231 0.82248 0.99231 0.0
C4059 C 0.71267 0.82657 0.97978 0.0
C4060 C 0.72248 0.84246 0.98148 0.0
C4061 C 0.69219 0.80552 0.99077 0.0
C4062 C 0.70069 0.79105 0.98849 0.0
C4063 C 0.67466 0.80357 0.99287 0.0
C4064 C 0.66476 0.81833 0.99442 0.0
C4065 C 0.6647 0.82981 0.98218 0.0
C4066 C 0.65561 0.84385 0.98389 0.0
C4067 C 0.64642 0.84649 0.99773 0.0
C4068 C 0.64625 0.83507 0.00986 0.0
C4069 C 0.65534 0.82102 0.00822 0.0
H4070 H 0.6394 0.85737 0.99903 0.0
H4071 H 0.72736 0.72082 0.98362 0.0
H4072 H 0.65236 0.32619 0.34918 0.0
H4073 H 0.64977 0.31461 0.37609 0.0
H4074 H 0.65724 0.3655 0.4029 0.0
H4075 H 0.66012 0.37724 0.37596 0.0
H4076 H 0.6751 0.34182 0.42038 0.0
H4077 H 0.61761 0.34533 0.39236 0.0
H4078 H 0.595 0.33857 0.3679 0.0
H4079 H 0.59667 0.28506 0.36996 0.0
H4080 H 0.61941 0.29152 0.3943 0.0
H4081 H 0.62086 0.32499 0.48996 0.0
H4082 H 0.6262 0.33429 0.46245 0.0
H4083 H 0.65414 0.29166 0.45221 0.0
H4084 H 0.64778 0.28163 0.47924 0.0
H4085 H 0.61935 0.30984 0.42633 0.0
H4086 H 0.69188 0.31859 0.43765 0.0
H4087 H 0.71552 0.3245 0.46118 0.0
H4088 H 0.68424 0.35203 0.49215 0.0
H4089 H 0.66057 0.34653 0.46877 0.0
C4090 C 0.6537 0.33496 0.3608 0.0
C4091 C 0.6564 0.3527 0.36031 0.0
C4092 C 0.65213 0.32829 0.3762 0.0
C4093 C 0.65319 0.33916 0.39155 0.0
C4094 C 0.65636 0.35684 0.39124 0.0
C4095 C 0.65784 0.36355 0.37579 0.0
C4096 C 0.65 0.33213 0.40771 0.0
C4097 C 0.66292 0.33481 0.42164 0.0
C4098 C 0.63421 0.32273 0.4094 0.0
C4099 C 0.62025 0.31891 0.39507 0.0
C4100 C 0.61318 0.33213 0.38755 0.0
C4101 C 0.60035 0.32835 0.37371 0.0
C4102 C 0.59442 0.3114 0.36737 0.0
C4103 C 0.60127 0.29818 0.37489 0.0
C4104 C 0.6141 0.3019 0.38871 0.0
C4105 C 0.62784 0.31742 0.4817 0.0
C4106 C 0.63382 0.30253 0.48674 0.0
C4107 C 0.63097 0.32279 0.46605 0.0
C4108 C 0.64059 0.31368 0.45533 0.0
C4109 C 0.64674 0.2989 0.46034 0.0
C4110 C 0.64324 0.29327 0.47583 0.0
C4111 C 0.64431 0.31983 0.43901 0.0
C4112 C 0.63154 0.3168 0.42502 0.0
C4113 C 0.66028 0.3287 0.43724 0.0
C4114 C 0.67434 0.33186 0.45153 0.0
C4115 C 0.69004 0.32584 0.44951 0.0
C4116 C 0.70346 0.32916 0.46281 0.0
C4117 C 0.70135 0.33855 0.47819 0.0
C4118 C 0.68581 0.34463 0.4803 0.0
C4119 C 0.67235 0.34133 0.46705 0.0
H4120 H 0.71178 0.34118 0.48844 0.0
H4121 H 0.58451 0.30849 0.35663 0.0
H4122 H 0.98655 0.33376 0.77556 0.0
H4123 H 0.9885 0.34131 0.74685 0.0
H4124 H 0.0402 0.32874 0.75079 0.0
H4125 H 0.03854 0.32268 0.7792 0.0
H4126 H 0.98402 0.32147 0.72263 0.0
H4127 H 0.03073 0.36784 0.73418 0.0
H4128 H 0.05446 0.38548 0.75279 0.0
H4129 H 0.08694 0.34673 0.74348 0.0
H4130 H 0.06323 0.32894 0.72462 0.0
H4131 H 0.00768 0.34496 0.6304 0.0
H4132 H 0.00762 0.34341 0.66073 0.0
H4133 H 0.05071 0.31505 0.66136 0.0
H4134 H 0.05083 0.31678 0.63043 0.0
H4135 H 0.04783 0.33599 0.69514 0.0
H4136 H 0.02231 0.2959 0.6571 0.0
H4137 H 0.01371 0.27659 0.6316 0.0
H4138 H 0.96253 0.27205 0.64318 0.0
H4139 H 0.97122 0.29076 0.66854 0.0
C4140 C 0.99849 0.33319 0.7703 0.0
C4141 C 0.0123 0.3273 0.77952 0.0
C4142 C 0.99963 0.33745 0.75377 0.0
C4143 C 0.01437 0.3353 0.74581 0.0
C4144 C 0.02866 0.3311 0.75595 0.0
C4145 C 0.02766 0.32724 0.77251 0.0
C4146 C 0.01344 0.33359 0.72662 0.0
C4147 C 0.99515 0.32536 0.71649 0.0
C4148 C 0.03095 0.33615 0.71714 0.0
C4149 C 0.04539 0.34718 0.72768 0.0
C4150 C 0.04301 0.36319 0.73583 0.0
C4151 C 0.05641 0.37322 0.74647 0.0
C4152 C 0.07227 0.36732 0.74913 0.0
C4153 C 0.07473 0.35141 0.74114 0.0
C4154 C 0.06139 0.34143 0.73034 0.0
C4155 C 0.01721 0.33853 0.63707 0.0
C4156 C 0.02868 0.33026 0.62812 0.0
C4157 C 0.01725 0.33769 0.65442 0.0
C4158 C 0.0285 0.3283 0.6632 0.0
C4159 C 0.04166 0.32208 0.65481 0.0
C4160 C 0.04151 0.32275 0.63715 0.0
C4161 C 0.02354 0.32244 0.67934 0.0
C4162 C 0.03509 0.33104 0.69722 0.0
C4163 C 0.00328 0.31476 0.67804 0.0
C4164 C 0.9969 0.29974 0.6635 0.0
C4165 C 0.0089 0.29301 0.65348 0.0
C4166 C 0.00414 0.28096 0.63911 0.0
C4167 C 0.98723 0.27412 0.6348 0.0
C4168 C 0.97543 0.2785 0.64558 0.0
C4169 C 0.98035 0.29053 0.65997 0.0
H4170 H 0.98349 0.26466 0.62377 0.0
H4171 H 0.0826 0.37503 0.75749 0.0
H4172 H 0.3027 0.78275 0.16689 0.0
H4173 H 0.29975 0.76652 0.1385 0.0
H4174 H 0.3543 0.77309 0.13931 0.0
H4175 H 0.35746 0.78888 0.16783 0.0
H4176 H 0.33459 0.78 0.10839 0.0
H4177 H 0.33373 0.73579 0.14785 0.0
H4178 H 0.31987 0.7228 0.17038 0.0
H4179 H 0.27226 0.7134 0.13769 0.0
H4180 H 0.28579 0.7265 0.11507 0.0
H4181 H 0.34065 0.73142 0.03189 0.0
H4182 H 0.34305 0.74601 0.05981 0.0
H4183 H 0.30639 0.70706 0.07315 0.0
H4184 H 0.30939 0.68987 0.04721 0.0
H4185 H 0.31418 0.71831 0.09876 0.0
H4186 H 0.30388 0.76537 0.06611 0.0
H4187 H 0.30663 0.78726 0.04661 0.0
H4188 H 0.36036 0.79759 0.0632 0.0
H4189 H 0.35769 0.77649 0.08359 0.0
C4190 C 0.31411 0.78064 0.16114 0.0
C4191 C 0.33035 0.78712 0.16983 0.0
C4192 C 0.31238 0.77138 0.14485 0.0
C4193 C 0.32682 0.76837 0.13685 0.0
C4194 C 0.34298 0.77519 0.14524 0.0
C4195 C 0.34474 0.78436 0.16155 0.0
C4196 C 0.32524 0.75824 0.11968 0.0
C4197 C 0.33026 0.76643 0.10611 0.0
C4198 C 0.31847 0.74089 0.1165 0.0
C4199 C 0.31078 0.7321 0.12979 0.0
C4200 C 0.32033 0.7309 0.14547 0.0
C4201 C 0.31252 0.72355 0.15826 0.0
C4202 C 0.2952 0.71726 0.15546 0.0
C4203 C 0.28568 0.71823 0.13983 0.0
C4204 C 0.29342 0.72557 0.12702 0.0
C4205 C 0.33288 0.72593 0.04063 0.0
C4206 C 0.32297 0.70996 0.03582 0.0
C4207 C 0.33376 0.73489 0.05688 0.0
C4208 C 0.32345 0.72928 0.06893 0.0
C4209 C 0.31417 0.71279 0.06453 0.0
C4210 C 0.31495 0.70293 0.04882 0.0
C4211 C 0.32341 0.73987 0.08621 0.0
C4212 C 0.3183 0.73183 0.10019 0.0
C4213 C 0.32861 0.75788 0.08944 0.0
C4214 C 0.33065 0.76909 0.076 0.0
C4215 C 0.31631 0.77213 0.06538 0.0
C4216 C 0.31782 0.78455 0.05434 0.0
C4217 C 0.3337 0.79363 0.05344 0.0
C4218 C 0.34808 0.79049 0.06381 0.0
C4219 C 0.34654 0.77846 0.07526 0.0
H4220 H 0.33484 0.80316 0.0448 0.0
H4221 H 0.28916 0.71166 0.1654 0.0
H4222 H 0.97647 0.62369 0.72421 0.0
H4223 H 0.97346 0.63733 0.75263 0.0
H4224 H 0.01213 0.67819 0.74735 0.0
H4225 H 0.01555 0.66438 0.71912 0.0
H4226 H 0.01674 0.66794 0.77848 0.0
H4227 H 0.97004 0.68311 0.74148 0.0
H4228 H 0.94439 0.67727 0.72028 0.0
H4229 H 0.91817 0.64887 0.75446 0.0
H4230 H 0.94377 0.65434 0.77576 0.0
H4231 H 0.97828 0.73273 0.83598 0.0
H4232 H 0.97667 0.71557 0.80802 0.0
H4233 H 0.99406 0.67392 0.83278 0.0
H4234 H 0.99601 0.69129 0.86058 0.0
H4235 H 0.96084 0.68414 0.79212 0.0
H4236 H 0.02347 0.65813 0.81124 0.0
H4237 H 0.04912 0.66554 0.83237 0.0
H4238 H 0.04391 0.71872 0.83272 0.0
H4239 H 0.01824 0.71162 0.81161 0.0
C4240 C 0.98445 0.6355 0.72916 0.0
C4241 C 0.99622 0.64298 0.71936 0.0
C4242 C 0.98262 0.64334 0.74535 0.0
C4243 C 0.99244 0.65886 0.75204 0.0
C4244 C 0.00437 0.66623 0.74241 0.0
C4245 C 0.00621 0.65841 0.72622 0.0
C4246 C 0.99024 0.66756 0.769 0.0
C4247 C 0.00449 0.6714 0.78145 0.0
C4248 C 0.97429 0.67219 0.77289 0.0
C4249 C 0.95887 0.66899 0.76013 0.0
C4250 C 0.95885 0.67551 0.74442 0.0
C4251 C 0.94431 0.67229 0.73239 0.0
C4252 C 0.92967 0.66267 0.736 0.0
C4253 C 0.92952 0.6563 0.75167 0.0
C4254 C 0.94404 0.65946 0.76372 0.0
C4255 C 0.98134 0.71976 0.83533 0.0
C4256 C 0.98724 0.71321 0.85022 0.0
C4257 C 0.98041 0.70998 0.81946 0.0
C4258 C 0.98546 0.69357 0.81834 0.0
C4259 C 0.99028 0.68662 0.83336 0.0
C4260 C 0.99127 0.69643 0.84918 0.0
C4261 C 0.9873 0.68441 0.80151 0.0
C4262 C 0.97301 0.6805 0.78914 0.0
C4263 C 0.00325 0.67989 0.79759 0.0
C4264 C 0.01891 0.68433 0.80993 0.0
C4265 C 0.02786 0.6714 0.81577 0.0
C4266 C 0.04236 0.67555 0.82778 0.0
C4267 C 0.0481 0.69259 0.83392 0.0
C4268 C 0.03939 0.70553 0.82802 0.0
C4269 C 0.02486 0.70145 0.81606 0.0
H4270 H 0.05932 0.69577 0.84323 0.0
H4271 H 0.91843 0.66019 0.72668 0.0
H4272 H 0.65183 0.34993 0.67214 0.0
H4273 H 0.6236 0.35079 0.68119 0.0
H4274 H 0.60179 0.34955 0.62895 0.0
H4275 H 0.63008 0.34856 0.61973 0.0
H4276 H 0.58843 0.37245 0.64883 0.0
H4277 H 0.59685 0.31421 0.65049 0.0
H4278 H 0.61169 0.29003 0.65821 0.0
H4279 H 0.6102 0.30618 0.71128 0.0
H4280 H 0.59549 0.33058 0.70389 0.0
H4281 H 0.50327 0.36178 0.6685 0.0
H4282 H 0.52962 0.35644 0.65654 0.0
H4283 H 0.55474 0.35499 0.70721 0.0
H4284 H 0.52806 0.35962 0.71896 0.0
H4285 H 0.56556 0.33203 0.68633 0.0
H4286 H 0.55868 0.39147 0.68432 0.0
H4287 H 0.54297 0.415 0.67622 0.0
H4288 H 0.54133 0.39607 0.6233 0.0
H4289 H 0.55681 0.37228 0.63111 0.0
C4290 C 0.64105 0.34961 0.66248 0.0
C4291 C 0.64339 0.34903 0.64513 0.0
C4292 C 0.62483 0.35013 0.66772 0.0
C4293 C 0.61037 0.34999 0.65579 0.0
C4294 C 0.61265 0.34966 0.63847 0.0
C4295 C 0.62892 0.34915 0.6332 0.0
C4296 C 0.59302 0.35052 0.66147 0.0
C4297 C 0.58336 0.36343 0.65683 0.0
C4298 C 0.58633 0.33897 0.67214 0.0
C4299 C 0.5952 0.32432 0.67663 0.0
C4300 C 0.59983 0.31271 0.66382 0.0
C4301 C 0.60818 0.29893 0.66813 0.0
C4302 C 0.61193 0.2966 0.68523 0.0
C4303 C 0.60729 0.30801 0.69804 0.0
C4304 C 0.59891 0.32179 0.69379 0.0
C4305 C 0.51442 0.36015 0.67699 0.0
C4306 C 0.5137 0.36116 0.69463 0.0
C4307 C 0.52953 0.35722 0.6702 0.0
C4308 C 0.54446 0.35569 0.68094 0.0
C4309 C 0.54353 0.35617 0.69857 0.0
C4310 C 0.52831 0.35883 0.70532 0.0
C4311 C 0.56112 0.35414 0.67395 0.0
C4312 C 0.57063 0.34102 0.67831 0.0
C4313 C 0.56768 0.36549 0.66301 0.0
C4314 C 0.55878 0.38004 0.6583 0.0
C4315 C 0.55492 0.39231 0.67096 0.0
C4316 C 0.54605 0.40568 0.66642 0.0
C4317 C 0.54113 0.40702 0.64926 0.0
C4318 C 0.54514 0.39502 0.63659 0.0
C4319 C 0.55397 0.3816 0.64106 0.0
H4320 H 0.53424 0.41736 0.64577 0.0
H4321 H 0.61841 0.28593 0.68854 0.0
H4322 H 0.8424 0.6968 0.21422 0.0
H4323 H 0.87104 0.70039 0.23008 0.0
H4324 H 0.86156 0.65025 0.24536 0.0
H4325 H 0.83288 0.64664 0.22973 0.0
H4326 H 0.87553 0.67515 0.27244 0.0
H4327 H 0.88656 0.6572 0.21445 0.0
H4328 H 0.88571 0.6601 0.18382 0.0
H4329 H 0.91368 0.7101 0.19589 0.0
H4330 H 0.91452 0.70758 0.22658 0.0
H4331 H 0.95961 0.67365 0.31335 0.0
H4332 H 0.93127 0.66863 0.29836 0.0
H4333 H 0.94685 0.7026 0.26272 0.0
H4334 H 0.97519 0.70326 0.27434 0.0
H4335 H 0.92809 0.68427 0.24506 0.0
H4336 H 0.91525 0.70642 0.30178 0.0
H4337 H 0.9151 0.70661 0.33283 0.0
H4338 H 0.88975 0.65534 0.3248 0.0
H4339 H 0.8899 0.65482 0.29377 0.0
C4340 C 0.8464 0.68653 0.22095 0.0
C4341 C 0.83528 0.67141 0.22065 0.0
C4342 C 0.86283 0.68857 0.22995 0.0
C4343 C 0.86852 0.67557 0.2389 0.0
C4344 C 0.85749 0.66046 0.23856 0.0
C4345 C 0.84112 0.65836 0.22947 0.0
C4346 C 0.8858 0.67779 0.2489 0.0
C4347 C 0.88712 0.6772 0.26655 0.0
C4348 C 0.90088 0.6809 0.24131 0.0
C4349 C 0.90048 0.68224 0.22282 0.0
C4350 C 0.89243 0.66885 0.21057 0.0
C4351 C 0.89197 0.67042 0.1932 0.0
C4352 C 0.8996 0.68529 0.18792 0.0
C4353 C 0.90776 0.69859 0.2 0.0
C4354 C 0.90825 0.69709 0.21737 0.0
C4355 C 0.95711 0.68003 0.30231 0.0
C4356 C 0.97075 0.68906 0.29587 0.0
C4357 C 0.94043 0.67749 0.29377 0.0
C4358 C 0.93606 0.68554 0.27927 0.0
C4359 C 0.94931 0.69565 0.2735 0.0
C4360 C 0.96622 0.69648 0.28087 0.0
C4361 C 0.91834 0.68283 0.26934 0.0
C4362 C 0.91678 0.6829 0.25145 0.0
C4363 C 0.903 0.68007 0.27689 0.0
C4364 C 0.90271 0.68055 0.2955 0.0
C4365 C 0.90967 0.69521 0.30667 0.0
C4366 C 0.9096 0.69536 0.32425 0.0
C4367 C 0.90245 0.68099 0.33078 0.0
C4368 C 0.89529 0.66646 0.31974 0.0
C4369 C 0.89535 0.66623 0.30216 0.0
H4370 H 0.90243 0.68112 0.3444 0.0
H4371 H 0.89922 0.68648 0.17446 0.0
H4372 H 0.26755 0.99231 0.37785 0.0
H4373 H 0.24002 0.99765 0.36415 0.0
H4374 H 0.26381 0.01338 0.32133 0.0
H4375 H 0.29157 0.00902 0.33539 0.0
H4376 H 0.24229 0.03477 0.33043 0.0
H4377 H 0.24004 0.97338 0.32015 0.0
H4378 H 0.24143 0.9445 0.32831 0.0
H4379 H 0.20077 0.95065 0.35884 0.0
H4380 H 0.19929 0.97965 0.35104 0.0
H4381 H 0.16861 0.02841 0.26923 0.0
H4382 H 0.19615 0.02722 0.28602 0.0
H4383 H 0.17 0.0101 0.32695 0.0
H4384 H 0.14262 0.01035 0.30969 0.0
H4385 H 0.19241 0.99013 0.32011 0.0
H4386 H 0.19339 0.05059 0.32996 0.0
H4387 H 0.19129 0.07945 0.32204 0.0
H4388 H 0.23352 0.07548 0.29323 0.0
H4389 H 0.23573 0.04649 0.30077 0.0
C4390 C 0.26698 0.99705 0.36558 0.0
C4391 C 0.28182 1.00025 0.35774 0.0
C4392 C 0.25117 0.99991 0.35768 0.0
C4393 C 0.24982 0.00574 0.34162 0.0
C4394 C 0.26456 0.00885 0.33371 0.0
C4395 C 0.2804 0.00615 0.34168 0.0
C4396 C 0.23309 0.00883 0.33314 0.0
C4397 C 0.23142 0.02496 0.32799 0.0
C4398 C 0.21876 0.9962 0.33046 0.0
C4399 C 0.21968 0.97876 0.33515 0.0
C4400 C 0.23149 0.96863 0.32871 0.0
C4401 C 0.23227 0.95222 0.33325 0.0
C4402 C 0.22123 0.94576 0.34412 0.0
C4403 C 0.20934 0.95568 0.35044 0.0
C4404 C 0.20851 0.97209 0.34596 0.0
C4405 C 0.16888 0.02462 0.28189 0.0
C4406 C 0.15366 0.01944 0.28824 0.0
C4407 C 0.18454 0.02406 0.29154 0.0
C4408 C 0.18515 0.01863 0.30781 0.0
C4409 C 0.16986 0.0143 0.31444 0.0
C4410 C 0.15425 0.01462 0.3047 0.0
C4411 C 0.2016 0.01606 0.31729 0.0
C4412 C 0.20322 1.00001 0.32263 0.0
C4413 C 0.21582 0.0288 0.32024 0.0
C4414 C 0.21464 0.04631 0.31583 0.0
C4415 C 0.20216 0.05582 0.32184 0.0
C4416 C 0.20096 0.07221 0.31744 0.0
C4417 C 0.21224 0.07928 0.30711 0.0
C4418 C 0.22479 0.06999 0.30122 0.0
C4419 C 0.22603 0.05358 0.30557 0.0
H4420 H 0.21128 0.09197 0.3037 0.0
H4421 H 0.22185 0.93306 0.34761 0.0
H4422 H 0.25377 0.01492 0.72037 0.0
H4423 H 0.28362 0.01888 0.7166 0.0
H4424 H 0.28927 0.96872 0.73072 0.0
H4425 H 0.25887 0.96471 0.73437 0.0
H4426 H 0.31061 0.02241 0.7346 0.0
H4427 H 0.32473 0.95638 0.72113 0.0
H4428 H 0.31918 0.92783 0.70459 0.0
H4429 H 0.285 0.94639 0.66748 0.0
H4430 H 0.29192 0.97556 0.68303 0.0
H4431 H 0.39826 0.02069 0.71551 0.0
H4432 H 0.37136 0.01644 0.72788 0.0
H4433 H 0.34371 0.00736 0.67731 0.0
H4434 H 0.3706 0.01146 0.665 0.0
H4435 H 0.33721 0.98168 0.69742 0.0
H4436 H 0.34302 0.04322 0.70244 0.0
H4437 H 0.35884 0.07149 0.71291 0.0
H4438 H 0.35661 0.06143 0.76459 0.0
H4439 H 0.34097 0.03296 0.75438 0.0
C4440 C 0.26134 0.00475 0.72285 0.0
C4441 C 0.25387 0.98944 0.72756 0.0
C4442 C 0.27853 0.00701 0.72066 0.0
C4443 C 0.28891 0.99408 0.72316 0.0
C4444 C 0.28159 0.97879 0.72823 0.0
C4445 C 0.26421 0.9765 0.73038 0.0
C4446 C 0.30721 0.99719 0.72038 0.0
C4447 C 0.31632 0.01337 0.72647 0.0
C4448 C 0.31538 0.9854 0.71044 0.0
C4449 C 0.30798 0.96788 0.70364 0.0
C4450 C 0.31567 0.95426 0.70966 0.0
C4451 C 0.31279 0.93815 0.70018 0.0
C4452 C 0.30188 0.93541 0.68486 0.0
C4453 C 0.29357 0.94868 0.67922 0.0
C4454 C 0.29696 0.96499 0.68835 0.0
C4455 C 0.38634 0.01812 0.70715 0.0
C4456 C 0.38628 0.01639 0.68939 0.0
C4457 C 0.37108 0.0157 0.71417 0.0
C4458 C 0.35562 0.0116 0.70346 0.0
C4459 C 0.35556 0.01044 0.68572 0.0
C4460 C 0.3708 0.01278 0.67872 0.0
C4461 C 0.33956 0.00703 0.71046 0.0
C4462 C 0.33129 0.99057 0.70557 0.0
C4463 C 0.33232 0.01848 0.72152 0.0
C4464 C 0.34096 0.0359 0.72763 0.0
C4465 C 0.34592 0.04703 0.71603 0.0
C4466 C 0.35491 0.06306 0.72191 0.0
C4467 C 0.35886 0.06819 0.73941 0.0
C4468 C 0.35362 0.05739 0.75104 0.0
C4469 C 0.34468 0.04131 0.7452 0.0
H4470 H 0.36587 0.0806 0.74395 0.0
H4471 H 0.29975 0.92295 0.67744 0.0
H4472 H 0.66479 0.64744 0.32883 0.0
H4473 H 0.67541 0.61998 0.33055 0.0
H4474 H 0.63952 0.60745 0.36542 0.0
H4475 H 0.62929 0.63523 0.36431 0.0
H4476 H 0.66885 0.59889 0.37676 0.0
H4477 H 0.63486 0.58961 0.32332 0.0
H4478 H 0.62381 0.59426 0.29423 0.0
H4479 H 0.67251 0.58787 0.27765 0.0
H4480 H 0.68386 0.58334 0.30672 0.0
H4481 H 0.67653 0.51072 0.37239 0.0
H4482 H 0.66452 0.53689 0.36662 0.0
H4483 H 0.709 0.55345 0.34358 0.0
H4484 H 0.72131 0.52741 0.34992 0.0
H4485 H 0.67549 0.55947 0.32572 0.0
H4486 H 0.7089 0.56947 0.38125 0.0
H4487 H 0.71726 0.56204 0.41001 0.0
H4488 H 0.66638 0.56518 0.4222 0.0
H4489 H 0.65764 0.57232 0.39337 0.0
C4490 C 0.65919 0.63894 0.33698 0.0
C4491 C 0.64619 0.64375 0.34651 0.0
C4492 C 0.66518 0.62308 0.33779 0.0
C4493 C 0.65823 0.61145 0.34801 0.0
C4494 C 0.64515 0.61612 0.35742 0.0
C4495 C 0.63916 0.63201 0.35664 0.0
C4496 C 0.66495 0.59468 0.3493 0.0
C4497 C 0.67008 0.59025 0.36555 0.0
C4498 C 0.66687 0.58333 0.33473 0.0
C4499 C 0.66023 0.58628 0.31725 0.0
C4500 C 0.64322 0.58931 0.31349 0.0
C4501 C 0.6369 0.5919 0.297 0.0
C4502 C 0.64746 0.59139 0.2841 0.0
C4503 C 0.66435 0.58827 0.28766 0.0
C4504 C 0.67073 0.58568 0.30415 0.0
C4505 C 0.68372 0.51994 0.36607 0.0
C4506 C 0.69995 0.51715 0.36181 0.0
C4507 C 0.67681 0.53483 0.36269 0.0
C4508 C 0.6859 0.54722 0.35479 0.0
C4509 C 0.70174 0.54407 0.34966 0.0
C4510 C 0.70875 0.5292 0.35324 0.0
C4511 C 0.67935 0.56391 0.35309 0.0
C4512 C 0.67429 0.56826 0.33683 0.0
C4513 C 0.67723 0.57509 0.36761 0.0
C4514 C 0.68258 0.57129 0.38511 0.0
C4515 C 0.69947 0.56848 0.39002 0.0
C4516 C 0.70428 0.56432 0.40634 0.0
C4517 C 0.69235 0.5631 0.41791 0.0
C4518 C 0.6756 0.56611 0.41321 0.0
C4519 C 0.67072 0.57022 0.39689 0.0
H4520 H 0.6961 0.55986 0.43053 0.0
H4521 H 0.64254 0.5934 0.27133 0.0
H4522 H 0.72 0.24265 0.96678 0.0
H4523 H 0.71031 0.27063 0.97189 0.0
H4524 H 0.71378 0.26644 0.02581 0.0
H4525 H 0.72387 0.23873 0.0207 0.0
H4526 H 0.68326 0.26913 0.02083 0.0
H4527 H 0.73334 0.29972 0.00685 0.0
H4528 H 0.76044 0.30906 0.99677 0.0
H4529 H 0.73356 0.32327 0.95185 0.0
H4530 H 0.70627 0.31162 0.96028 0.0
H4531 H 0.68946 0.37694 0.01759 0.0
H4532 H 0.68993 0.34679 0.01728 0.0
H4533 H 0.65349 0.33696 0.97212 0.0
H4534 H 0.65658 0.36752 0.96963 0.0
H4535 H 0.69419 0.32619 0.98215 0.0
H4536 H 0.61361 0.28883 0.0334 0.0
H4537 H 0.61289 0.31052 0.04076 0.0
H4538 H 0.64221 0.36455 0.04 0.0
H4539 H 0.65967 0.34667 0.02381 0.0
C4540 C 0.71897 0.24792 0.97972 0.0
C4541 C 0.7222 0.23842 0.99329 0.0
C4542 C 0.71361 0.26402 0.98272 0.0
C4543 C 0.71069 0.27046 0.99922 0.0
C4544 C 0.71548 0.2616 0.01291 0.0
C4545 C 0.72122 0.24574 0.00998 0.0
C4546 C 0.69946 0.284 1.00166 0.0
C4547 C 0.68432 0.2797 0.01322 0.0
C4548 C 0.70107 0.30086 0.99118 0.0
C4549 C 0.71754 0.30463 0.98426 0.0
C4550 C 0.73309 0.30401 0.9944 0.0
C4551 C 0.74858 0.30959 0.98888 0.0
C4552 C 0.74874 0.31646 0.9735 0.0
C4553 C 0.73344 0.31743 0.96348 0.0
C4554 C 0.71795 0.31103 0.96849 0.0
C4555 C 0.68226 0.36865 0.00696 0.0
C4556 C 0.67269 0.37509 0.99382 0.0
C4557 C 0.68212 0.3512 0.00708 0.0
C4558 C 0.67029 0.33967 0.99577 0.0
C4559 C 0.66135 0.34574 0.98203 0.0
C4560 C 0.66303 0.36329 0.98074 0.0
C4561 C 0.67118 0.32138 0.99644 0.0
C4562 C 0.68877 0.31633 0.989 0.0
C4563 C 0.66043 0.30977 0.00916 0.0
C4564 C 0.64579 0.31726 0.02079 0.0
C4565 C 0.61857 0.30407 0.03453 0.0
C4566 C 0.60999 0.32071 0.04652 0.0
C4567 C 0.61873 0.34126 0.04815 0.0
C4568 C 0.63637 0.34993 0.03865 0.0
C4569 C 0.64885 0.33905 0.02631 0.0
H4570 H 0.62808 0.34645 0.04327 0.0
H4571 H 0.76072 0.32121 0.96944 0.0
H4572 H 0.17803 0.84753 0.68276 0.0
H4573 H 0.18533 0.87852 0.68346 0.0
H4574 H 0.23139 0.86994 0.66171 0.0
H4575 H 0.22427 0.8393 0.66104 0.0
H4576 H 0.23684 0.89174 0.69145 0.0
H4577 H 0.19528 0.88327 0.63926 0.0
H4578 H 0.1659 0.87563 0.62486 0.0
H4579 H 0.14852 0.91371 0.6591 0.0
H4580 H 0.17775 0.92143 0.67382 0.0
H4581 H 0.2467 0.96995 0.64061 0.0
H4582 H 0.23167 0.94298 0.64608 0.0
H4583 H 0.24963 0.9556 0.6996 0.0
H4584 H 0.26505 0.9819 0.69377 0.0
H4585 H 0.20748 0.93319 0.66083 0.0
H4586 H 0.24299 0.93475 0.71779 0.0
H4587 H 0.26773 0.93549 0.73957 0.0
H4588 H 0.29211 0.90503 0.70398 0.0
H4589 H 0.26837 0.9058 0.6815 0.0
C4590 C 0.18959 0.85229 0.67792 0.0
C4591 C 0.20071 0.84093 0.6721 0.0
C4592 C 0.19371 0.87 0.67828 0.0
C4593 C 0.20893 0.87662 0.67263 0.0
C4594 C 0.21963 0.8652 0.66622 0.0
C4595 C 0.2156 0.84765 0.66596 0.0
C4596 C 0.21491 0.89527 0.6747 0.0
C4597 C 0.23055 0.90085 0.68458 0.0
C4598 C 0.2061 0.90736 0.66682 0.0
C4599 C 0.18866 0.90282 0.65771 0.0
C4600 C 0.18517 0.88994 0.64377 0.0
C4601 C 0.16855 0.88561 0.63554 0.0
C4602 C 0.15534 0.89416 0.64108 0.0
C4603 C 0.15874 0.90709 0.65482 0.0
C4604 C 0.17533 0.91146 0.66309 0.0
C4605 C 0.24719 0.96697 0.65359 0.0
C4606 C 0.25712 0.97807 0.66685 0.0
C4607 C 0.23863 0.95146 0.65679 0.0
C4608 C 0.23956 0.94661 0.6734 0.0
C4609 C 0.24879 0.95827 0.68668 0.0
C4610 C 0.25734 0.97373 0.68344 0.0
C4611 C 0.23062 0.92958 0.67626 0.0
C4612 C 0.21409 0.92422 0.66756 0.0
C4613 C 0.23838 0.91771 0.68584 0.0
C4614 C 0.25444 0.92151 0.69757 0.0
C4615 C 0.25415 0.92925 0.71429 0.0
C4616 C 0.26797 0.92932 0.72679 0.0
C4617 C 0.28173 0.92074 0.72303 0.0
C4618 C 0.28171 0.91216 0.70675 0.0
C4619 C 0.26833 0.91282 0.69397 0.0
H4620 H 0.29225 0.92044 0.73282 0.0
H4621 H 0.14248 0.89078 0.63471 0.0
H4622 H 0.38968 0.27036 0.00274 0.0
H4623 H 0.37374 0.24286 0.00512 0.0
H4624 H 0.32713 0.26591 0.00371 0.0
H4625 H 0.34289 0.29342 1.00094 0.0
H4626 H 0.33015 0.24514 0.02907 0.0
H4627 H 0.33519 0.24173 0.96919 0.0
H4628 H 0.35005 0.24287 0.94366 0.0
H4629 H 0.37889 0.2032 0.95849 0.0
H4630 H 0.36437 0.20199 0.98424 0.0
H4631 H 0.27162 0.16865 0.01295 0.0
H4632 H 0.28789 0.19674 0.01321 0.0
H4633 H 0.33377 0.17294 0.00942 0.0
H4634 H 0.31728 0.1449 0.00832 0.0
H4635 H 0.33119 0.19436 0.98716 0.0
H4636 H 0.32605 0.19712 0.04676 0.0
H4637 H 0.31101 0.19543 0.07211 0.0
H4638 H 0.28265 0.23576 0.05824 0.0
H4639 H 0.29735 0.23754 0.03266 0.0
C4640 C 0.37601 0.26958 0.0027 0.0
C4641 C 0.3676 0.28416 1.00161 0.0
C4642 C 0.36692 0.25384 0.00414 0.0
C4643 C 0.34923 0.25231 0.00452 0.0
C4644 C 0.34079 0.26682 0.00353 0.0
C4645 C 0.34985 0.28255 0.002 0.0
C4646 C 0.33954 0.23558 0.00596 0.0
C4647 C 0.33021 0.23407 0.01982 0.0
C4648 C 0.33994 0.22105 0.99411 0.0
C4649 C 0.34884 0.22191 0.97874 0.0
C4650 C 0.34484 0.23338 0.9671 0.0
C4651 C 0.35317 0.23401 0.95257 0.0
C4652 C 0.36545 0.22316 0.94948 0.0
C4653 C 0.3694 0.21163 0.96091 0.0
C4654 C 0.36112 0.21096 0.97547 0.0
C4655 C 0.28521 0.16955 0.01236 0.0
C4656 C 0.29327 0.15472 0.01073 0.0
C4657 C 0.29453 0.18556 0.01262 0.0
C4658 C 0.31212 0.18701 0.0115 0.0
C4659 C 0.32023 0.17217 0.01034 0.0
C4660 C 0.31088 0.15618 0.00991 0.0
C4661 C 0.32189 0.20381 0.01038 0.0
C4662 C 0.33119 0.20538 0.99652 0.0
C4663 C 0.32151 0.21834 0.02229 0.0
C4664 C 0.3127 0.21736 0.03771 0.0
C4665 C 0.31652 0.20555 0.04905 0.0
C4666 C 0.30806 0.20459 0.06347 0.0
C4667 C 0.29585 0.21545 0.06676 0.0
C4668 C 0.2921 0.22734 0.05566 0.0
C4669 C 0.3005 0.22834 0.04121 0.0
H4670 H 0.28932 0.21469 0.07793 0.0
H4671 H 0.37186 0.22365 0.93821 0.0
H4672 H 0.37548 0.65921 0.64881 0.0
H4673 H 0.37636 0.66953 0.62109 0.0
H4674 H 0.32668 0.64206 0.60342 0.0
H4675 H 0.32581 0.63138 0.63113 0.0
H4676 H 0.34866 0.63944 0.57856 0.0
H4677 H 0.33025 0.684 0.61511 0.0
H4678 H 0.33163 0.70431 0.64113 0.0
H4679 H 0.38023 0.72811 0.6318 0.0
H4680 H 0.37926 0.70777 0.60584 0.0
H4681 H 0.33941 0.68136 0.50429 0.0
H4682 H 0.33413 0.67085 0.53131 0.0
H4683 H 0.38023 0.70127 0.55627 0.0
H4684 H 0.38471 0.71265 0.52948 0.0
H4685 H 0.35754 0.70198 0.57713 0.0
H4686 H 0.37826 0.65542 0.5438 0.0
H4687 H 0.37742 0.63667 0.51677 0.0
H4688 H 0.32519 0.6181 0.51927 0.0
H4689 H 0.32578 0.63652 0.54654 0.0
C4690 C 0.3648 0.65514 0.639 0.0
C4691 C 0.35055 0.64445 0.64232 0.0
C4692 C 0.36527 0.66119 0.62314 0.0
C4693 C 0.35151 0.65675 0.61014 0.0
C4694 C 0.33744 0.64573 0.61322 0.0
C4695 C 0.33691 0.63974 0.62915 0.0
C4696 C 0.35171 0.66409 0.59361 0.0
C4697 C 0.35036 0.65311 0.57826 0.0
C4698 C 0.35418 0.68194 0.59307 0.0
C4699 C 0.35475 0.69426 0.60861 0.0
C4700 C 0.34129 0.69349 0.61867 0.0
C4701 C 0.34199 0.70502 0.6334 0.0
C4702 C 0.35603 0.71747 0.63813 0.0
C4703 C 0.36938 0.71844 0.62812 0.0
C4704 C 0.36875 0.70693 0.61339 0.0
C4705 C 0.34814 0.68607 0.51567 0.0
C4706 C 0.36237 0.69794 0.51486 0.0
C4707 C 0.34532 0.67984 0.53107 0.0
C4708 C 0.35697 0.68492 0.54591 0.0
C4709 C 0.37103 0.69705 0.54511 0.0
C4710 C 0.37366 0.7035 0.52979 0.0
C4711 C 0.35484 0.67737 0.56213 0.0
C4712 C 0.35579 0.6883 0.57743 0.0
C4713 C 0.35213 0.65952 0.56264 0.0
C4714 C 0.35207 0.64734 0.54714 0.0
C4715 C 0.36665 0.6472 0.53866 0.0
C4716 C 0.3662 0.63665 0.52331 0.0
C4717 C 0.35122 0.62623 0.51631 0.0
C4718 C 0.33673 0.62619 0.52476 0.0
C4719 C 0.33717 0.63655 0.54023 0.0
H4720 H 0.35085 0.61816 0.50436 0.0
H4721 H 0.35654 0.72638 0.64954 0.0
H4722 H 0.99015 0.68929 0.22864 0.0
H4723 H 0.99039 0.68373 0.25797 0.0
H4724 H 0.02625 0.7287 0.27453 0.0
H4725 H 0.02612 0.73447 0.24499 0.0
H4726 H 0.01549 0.67549 0.28178 0.0
H4727 H 0.02134 0.74245 0.30005 0.0
H4728 H 0.01795 0.77126 0.29276 0.0
H4729 H 0.96365 0.75823 0.2843 0.0
H4730 H 0.96675 0.72942 0.29147 0.0
H4731 H 0.01536 0.70453 0.38511 0.0
H4732 H 0.01474 0.70897 0.35543 0.0
H4733 H 0.96033 0.6952 0.34756 0.0
H4734 H 0.96064 0.69277 0.37819 0.0
H4735 H 0.98478 0.72507 0.32441 0.0
H4736 H 0.96907 0.65694 0.33046 0.0
H4737 H 0.96776 0.63762 0.35223 0.0
H4738 H 0.02001 0.65478 0.37156 0.0
H4739 H 0.02117 0.67462 0.35037 0.0
C4740 C 0.99819 0.69802 0.23844 0.0
C4741 C 0.00781 0.71255 0.23441 0.0
C4742 C 0.99818 0.69494 0.25533 0.0
C4743 C 0.00728 0.70656 0.26871 0.0
C4744 C 0.01787 0.72042 0.26471 0.0
C4745 C 0.01802 0.7235 0.24771 0.0
C4746 C 0.00565 0.7032 0.28648 0.0
C4747 C 0.00991 0.6844 0.29029 0.0
C4748 C 0.99644 0.71605 0.29986 0.0
C4749 C 0.99441 0.73323 0.29497 0.0
C4750 C 0.00871 0.7455 0.29603 0.0
C4751 C 0.00683 0.76195 0.29213 0.0
C4752 C 0.99061 0.76646 0.28766 0.0
C4753 C 0.97625 0.75461 0.28735 0.0
C4754 C 0.9781 0.73814 0.2912 0.0
C4755 C 0.00312 0.70354 0.37745 0.0
C4756 C 0.98808 0.69818 0.38408 0.0
C4757 C 0.00275 0.7061 0.36037 0.0
C4758 C 0.98747 0.70261 0.34928 0.0
C4759 C 0.97222 0.69829 0.35595 0.0
C4760 C 0.97248 0.69653 0.37336 0.0
C4761 C 0.9889 0.69852 0.331 0.0
C4762 C 0.98932 0.71373 0.31862 0.0
C4763 C 0.99594 0.68043 0.3262 0.0
C4764 C 0.99558 0.66704 0.33814 0.0
C4765 C 0.98038 0.65658 0.33911 0.0
C4766 C 0.9796 0.64542 0.35146 0.0
C4767 C 0.99389 0.6448 0.36316 0.0
C4768 C 0.00899 0.6551 0.36236 0.0
C4769 C 0.00974 0.66624 0.35006 0.0
H4770 H 0.99322 0.63673 0.37318 0.0
H4771 H 0.98916 0.77923 0.28473 0.0
H4772 H 0.67095 0.20039 0.84963 0.0
H4773 H 0.6699 0.21352 0.87882 0.0
H4774 H 0.66566 0.2621 0.8605 0.0
H4775 H 0.66686 0.24913 0.83146 0.0
H4776 H 0.68918 0.26492 0.88773 0.0
H4777 H 0.63091 0.23632 0.87321 0.0
H4778 H 0.6105 0.21048 0.86366 0.0
H4779 H 0.63091 0.18681 0.90607 0.0
H4780 H 0.65158 0.21241 0.91574 0.0
H4781 H 0.6603 0.3062 0.96578 0.0
H4782 H 0.66065 0.29486 0.93596 0.0
H4783 H 0.67826 0.24919 0.95169 0.0
H4784 H 0.67889 0.26049 0.98106 0.0
H4785 H 0.64767 0.24538 0.92565 0.0
H4786 H 0.70634 0.26406 0.93708 0.0
H4787 H 0.73523 0.27976 0.94282 0.0
H4788 H 0.72115 0.31433 0.90744 0.0
H4789 H 0.69214 0.29875 0.90144 0.0
C4790 C 0.66962 0.21383 0.85182 0.0
C4791 C 0.66905 0.22371 0.83819 0.0
C4792 C 0.66897 0.22133 0.86852 0.0
C4793 C 0.66744 0.2388 0.87189 0.0
C4794 C 0.6668 0.24862 0.85827 0.0
C4795 C 0.66758 0.24118 0.84165 0.0
C4796 C 0.66731 0.24717 0.88962 0.0
C4797 C 0.67976 0.26098 0.89584 0.0
C4798 C 0.65573 0.24133 0.90062 0.0
C4799 C 0.6428 0.22627 0.89517 0.0
C4800 C 0.63104 0.2256 0.88049 0.0
C4801 C 0.61944 0.21099 0.87505 0.0
C4802 C 0.61941 0.19701 0.88425 0.0
C4803 C 0.63093 0.19765 0.89896 0.0
C4804 C 0.64256 0.21222 0.90445 0.0
C4805 C 0.6651 0.29415 0.96313 0.0
C4806 C 0.67124 0.28521 0.97652 0.0
C4807 C 0.66505 0.28755 0.9459 0.0
C4808 C 0.67008 0.27139 0.94157 0.0
C4809 C 0.67483 0.2619 0.95464 0.0
C4810 C 0.67529 0.26861 0.97166 0.0
C4811 C 0.6692 0.2636 0.92351 0.0
C4812 C 0.65667 0.24977 0.91731 0.0
C4813 C 0.68122 0.26886 0.91274 0.0
C4814 C 0.69697 0.28047 0.91909 0.0
C4815 C 0.70923 0.27533 0.93093 0.0
C4816 C 0.72573 0.28399 0.93397 0.0
C4817 C 0.73008 0.29788 0.9253 0.0
C4818 C 0.71778 0.3035 0.91404 0.0
C4819 C 0.7013 0.29478 0.91085 0.0
H4820 H 0.74294 0.30441 0.92747 0.0
H4821 H 0.61046 0.18569 0.87998 0.0
H4822 H 0.98833 0.36957 0.26479 0.0
H4823 H 0.99438 0.35795 0.23677 0.0
H4824 H 0.01465 0.3159 0.25845 0.0
H4825 H 0.00947 0.32797 0.28677 0.0
H4826 H 0.03502 0.3287 0.23727 0.0
H4827 H 0.97441 0.31189 0.23523 0.0
H4828 H 0.94475 0.31712 0.23766 0.0
H4829 H 0.94674 0.35007 0.1985 0.0
H4830 H 0.9765 0.34522 0.196 0.0
H4831 H 0.0314 0.26886 0.1634 0.0
H4832 H 0.02952 0.2853 0.19096 0.0
H4833 H 0.01022 0.32533 0.16488 0.0
H4834 H 0.01176 0.30858 0.13738 0.0
H4835 H 0.99013 0.31598 0.18759 0.0
H4836 H 0.04952 0.33176 0.18793 0.0
H4837 H 0.07932 0.32735 0.18521 0.0
H4838 H 0.08 0.29757 0.22705 0.0
H4839 H 0.0501 0.30158 0.22986 0.0
C4840 C 0.99417 0.3579 0.26364 0.0
C4841 C 0.99848 0.34972 0.27805 0.0
C4842 C 0.99747 0.35118 0.24757 0.0
C4843 C 0.00482 0.33598 0.24549 0.0
C4844 C 0.00894 0.32765 0.25978 0.0
C4845 C 0.00579 0.33445 0.27592 0.0
C4846 C 0.00845 0.32885 0.22846 0.0
C4847 C 0.02517 0.3257 0.22645 0.0
C4848 C 0.99572 0.32559 0.2142 0.0
C4849 C 0.97774 0.32831 0.21554 0.0
C4850 C 0.96856 0.32033 0.22721 0.0
C4851 C 0.95172 0.32322 0.22859 0.0
C4852 C 0.94388 0.33395 0.21827 0.0
C4853 C 0.95284 0.34177 0.2065 0.0
C4854 C 0.96968 0.33895 0.20508 0.0
C4855 C 0.0272 0.28136 0.1637 0.0
C4856 C 0.02187 0.28763 0.14848 0.0
C4857 C 0.02612 0.29075 0.17936 0.0
C4858 C 0.0198 0.30659 0.17997 0.0
C4859 C 0.01517 0.31317 0.16469 0.0
C4860 C 0.01622 0.30374 0.14905 0.0
C4861 C 0.01665 0.31551 0.19646 0.0
C4862 C 1.00002 0.31904 0.19837 0.0
C4863 C 0.02948 0.31922 0.21058 0.0
C4864 C 0.04751 0.31686 0.20901 0.0
C4865 C 0.05598 0.32416 0.19647 0.0
C4866 C 0.0729 0.32175 0.19492 0.0
C4867 C 0.08154 0.31216 0.20593 0.0
C4868 C 0.07329 0.30499 0.21853 0.0
C4869 C 0.05636 0.30734 0.22012 0.0
H4870 H 0.09464 0.3103 0.20471 0.0
H4871 H 0.93085 0.33618 0.21937 0.0
loop_
_geom_bond_atom_site_label_1
_geom_bond_atom_site_label_2
_geom_bond_distance
_geom_bond_site_symmetry_2
_ccdc_geom_bond_type
C0 C1 1.264 . S
C0 C5 1.479 . S
C0 C10 1.465 . S
C1 C0 1.264 . S
C1 C3 1.339 . S
C1 H28 0.931 . S
C2 C3 1.395 . S
C2 C4 1.320 . S
C3 C1 1.339 . S
C3 C2 1.395 . S
C3 H29 0.929 . S
C4 C2 1.320 . S
C4 C5 1.405 . S
C4 H30 0.930 . S
C5 C0 1.479 . S
C5 C4 1.405 . S
C5 H31 0.931 . S
U6 O7 2.454 . S
U6 O8 2.458 . S
U6 C9 2.984 . S
U6 C10 2.847 . S
U6 C23 2.882 . S
U6 O24 2.441 . S
U6 O25 2.420 . S
U6 O26 2.455 . S
U6 O27 2.449 . S
O7 U6 2.454 . S
O7 C9 1.353 . S
O8 U6 2.458 . S
O8 C9 1.286 . S
C9 U6 2.984 . S
C9 O7 1.353 . S
C9 O8 1.286 . S
C9 C11 1.363 . S
C10 C0 1.465 . S
C10 U6 2.847 . S
C10 O24 1.249 . S
C10 O25 1.202 . S
C11 C9 1.363 . S
C11 C13 1.408 . S
C11 C16 1.342 . S
C12 C13 1.310 . S
C12 C15 1.461 . S
C12 H32 0.932 . S
C13 C11 1.408 . S
C13 C12 1.310 . S
C13 H33 0.930 . S
C14 C15 1.474 . S
C14 C16 1.285 . S
C14 H34 0.929 . S
C15 C12 1.461 . S
C15 C14 1.474 . S
C16 C11 1.342 . S
C16 C14 1.285 . S
C16 H35 0.930 . S
C17 C20 1.424 . S
C17 C22 1.245 . S
C17 C23 1.428 . S
C18 C21 1.260 . S
C18 C22 1.477 . S
C18 H36 0.932 . S
C19 C20 1.384 . S
C19 C21 1.479 . S
C19 H37 0.929 . S
C20 C17 1.424 . S
C20 C19 1.384 . S
C20 H38 0.928 . S
C21 C18 1.260 . S
C21 C19 1.479 . S
C22 C17 1.245 . S
C22 C18 1.477 . S
C22 H39 0.932 . S
C23 U6 2.882 . S
C23 C17 1.428 . S
C23 O26 1.301 . S
C23 O27 1.282 . S
O24 U6 2.441 . S
O24 C10 1.249 . S
O25 U6 2.420 . S
O25 C10 1.202 . S
O26 U6 2.455 . S
O26 C23 1.301 . S
O27 U6 2.449 . S
O27 C23 1.282 . S
H28 C1 0.931 . S
H29 C3 0.929 . S
H30 C4 0.930 . S
H31 C5 0.931 . S
H32 C12 0.932 . S
H33 C13 0.930 . S
H34 C14 0.929 . S
H35 C16 0.930 . S
H36 C18 0.932 . S
H37 C19 0.929 . S
H38 C20 0.928 . S
H39 C22 0.932 . S
C40 C41 1.264 . S
C40 C45 1.479 . S
C40 C50 1.465 . S
C41 C40 1.264 . S
C41 C43 1.339 . S
C41 H68 0.931 . S
C42 C43 1.395 . S
C42 C44 1.320 . S
C43 C41 1.339 . S
C43 C42 1.395 . S
C43 H69 0.929 . S
C44 C42 1.320 . S
C44 C45 1.405 . S
C44 H70 0.930 . S
C45 C40 1.479 . S
C45 C44 1.405 . S
C45 H71 0.931 . S
U46 O47 2.454 . S
U46 O48 2.458 . S
U46 C49 2.984 . S
U46 C50 2.847 . S
U46 C63 2.882 . S
U46 O64 2.441 . S
U46 O65 2.420 . S
U46 O66 2.455 . S
U46 O67 2.449 . S
O47 U46 2.454 . S
O47 C49 1.353 . S
O48 U46 2.458 . S
O48 C49 1.286 . S
C49 U46 2.984 . S
C49 O47 1.353 . S
C49 O48 1.286 . S
C49 C51 1.363 . S
C50 C40 1.465 . S
C50 U46 2.847 . S
C50 O64 1.249 . S
C50 O65 1.202 . S
C51 C49 1.363 . S
C51 C53 1.408 . S
C51 C56 1.342 . S
C52 C53 1.310 . S
C52 C55 1.461 . S
C52 H72 0.932 . S
C53 C51 1.408 . S
C53 C52 1.310 . S
C53 H73 0.930 . S
C54 C55 1.474 . S
C54 C56 1.285 . S
C54 H74 0.929 . S
C55 C52 1.461 . S
C55 C54 1.474 . S
C56 C51 1.342 . S
C56 C54 1.285 . S
C56 H75 0.930 . S
C57 C60 1.424 . S
C57 C62 1.245 . S
C57 C63 1.428 . S
C58 C61 1.260 . S
C58 C62 1.477 . S
C58 H76 0.932 . S
C59 C60 1.384 . S
C59 C61 1.479 . S
C59 H77 0.929 . S
C60 C57 1.424 . S
C60 C59 1.384 . S
C60 H78 0.928 . S
C61 C58 1.260 . S
C61 C59 1.479 . S
C62 C57 1.245 . S
C62 C58 1.477 . S
C62 H79 0.932 . S
C63 U46 2.882 . S
C63 C57 1.428 . S
C63 O66 1.301 . S
C63 O67 1.282 . S
O64 U46 2.441 . S
O64 C50 1.249 . S
O65 U46 2.420 . S
O65 C50 1.202 . S
O66 U46 2.455 . S
O66 C63 1.301 . S
O67 U46 2.449 . S
O67 C63 1.282 . S
H68 C41 0.931 . S
H69 C43 0.929 . S
H70 C44 0.930 . S
H71 C45 0.931 . S
H72 C52 0.932 . S
H73 C53 0.930 . S
H74 C54 0.929 . S
H75 C56 0.930 . S
H76 C58 0.932 . S
H77 C59 0.929 . S
H78 C60 0.928 . S
H79 C62 0.932 . S
C80 C81 1.264 . S
C80 C85 1.479 . S
C80 C90 1.465 . S
C81 C80 1.264 . S
C81 C83 1.339 . S
C81 H108 0.931 . S
C82 C83 1.395 . S
C82 C84 1.320 . S
C83 C81 1.339 . S
C83 C82 1.395 . S
C83 H109 0.929 . S
C84 C82 1.320 . S
C84 C85 1.405 . S
C84 H110 0.926 1_565 S
C85 C80 1.479 . S
C85 C84 1.405 . S
C85 H111 0.931 . S
U86 O87 2.454 . S
U86 O88 2.458 . S
U86 C89 2.984 . S
U86 C90 2.847 . S
U86 C103 2.882 . S
U86 O104 2.441 . S
U86 O105 2.420 . S
U86 O106 2.455 . S
U86 O107 2.449 . S
O87 U86 2.454 . S
O87 C89 1.353 . S
O88 U86 2.458 . S
O88 C89 1.286 . S
C89 U86 2.984 . S
C89 O87 1.353 . S
C89 O88 1.286 . S
C89 C91 1.363 . S
C90 C80 1.465 . S
C90 U86 2.847 . S
C90 O104 1.249 . S
C90 O105 1.202 . S
C91 C89 1.363 . S
C91 C93 1.408 . S
C91 C96 1.342 . S
C92 C93 1.310 . S
C92 C95 1.461 . S
C92 H112 0.930 . S
C93 C91 1.408 . S
C93 C92 1.310 . S
C93 H113 0.930 . S
C94 C95 1.473 1_545 S
C94 C96 1.284 1_545 S
C94 H114 0.932 . S
C95 C92 1.461 . S
C95 C94 1.473 1_565 S
C96 C91 1.342 . S
C96 C94 1.284 1_565 S
C96 H115 0.935 . S
C97 C100 1.424 . S
C97 C102 1.245 . S
C97 C103 1.428 . S
C98 C101 1.260 . S
C98 C102 1.477 . S
C98 H116 0.932 . S
C99 C100 1.384 . S
C99 C101 1.479 . S
C99 H117 0.929 . S
C100 C97 1.424 . S
C100 C99 1.384 . S
C100 H118 0.928 . S
C101 C98 1.260 . S
C101 C99 1.479 . S
C102 C97 1.245 . S
C102 C98 1.477 . S
C102 H119 0.932 . S
C103 U86 2.882 . S
C103 C97 1.428 . S
C103 O106 1.301 . S
C103 O107 1.282 . S
O104 U86 2.441 . S
O104 C90 1.249 . S
O105 U86 2.420 . S
O105 C90 1.202 . S
O106 U86 2.455 . S
O106 C103 1.301 . S
O107 U86 2.449 . S
O107 C103 1.282 . S
H108 C81 0.931 . S
H109 C83 0.929 . S
H110 C84 0.926 1_545 S
H111 C85 0.931 . S
H112 C92 0.930 . S
H113 C93 0.930 . S
H114 C94 0.932 . S
H115 C96 0.935 . S
H116 C98 0.932 . S
H117 C99 0.929 . S
H118 C100 0.928 . S
H119 C102 0.932 . S
C120 C121 1.264 . S
C120 C125 1.479 . S
C120 C130 1.465 . S
C121 C120 1.264 . S
C121 C123 1.339 . S
C121 H148 0.931 . S
C122 C123 1.395 . S
C122 C124 1.320 . S
C123 C121 1.339 . S
C123 C122 1.395 . S
C123 H149 0.929 . S
C124 C122 1.320 . S
C124 C125 1.405 . S
C124 H150 0.930 . S
C125 C120 1.479 . S
C125 C124 1.405 . S
C125 H151 0.931 . S
U126 O127 2.454 . S
U126 O128 2.458 . S
U126 C129 2.984 . S
U126 C130 2.847 . S
U126 C143 2.882 1_545 S
U126 O144 2.441 . S
U126 O145 2.420 . S
U126 O146 2.455 . S
U126 O147 2.449 . S
O127 U126 2.454 . S
O127 C129 1.353 . S
O128 U126 2.458 . S
O128 C129 1.286 . S
C129 U126 2.984 . S
C129 O127 1.353 . S
C129 O128 1.286 . S
C129 C131 1.363 . S
C130 C120 1.465 . S
C130 U126 2.847 . S
C130 O144 1.249 . S
C130 O145 1.202 . S
C131 C129 1.363 . S
C131 C133 1.408 . S
C131 C136 1.342 . S
C132 C133 1.310 . S
C132 C135 1.461 . S
C132 H152 0.932 . S
C133 C131 1.408 . S
C133 C132 1.310 . S
C133 H153 0.930 . S
C134 C135 1.474 . S
C134 C136 1.285 . S
C134 H154 0.929 . S
C135 C132 1.461 . S
C135 C134 1.474 . S
C136 C131 1.342 . S
C136 C134 1.285 . S
C136 H155 0.930 . S
C137 C140 1.424 . S
C137 C142 1.245 . S
C137 C143 1.428 . S
C138 C141 1.260 . S
C138 C142 1.477 . S
C138 H156 0.932 . S
C139 C140 1.384 . S
C139 C141 1.479 . S
C139 H157 0.929 . S
C140 C137 1.424 . S
C140 C139 1.384 . S
C140 H158 0.928 . S
C141 C138 1.260 . S
C141 C139 1.479 . S
C142 C137 1.245 . S
C142 C138 1.477 . S
C142 H159 0.932 . S
C143 U126 2.882 1_565 S
C143 C137 1.428 . S
C143 O146 1.301 1_565 S
C143 O147 1.282 1_565 S
O144 U126 2.441 . S
O144 C130 1.249 . S
O145 U126 2.420 . S
O145 C130 1.202 . S
O146 U126 2.455 . S
O146 C143 1.301 1_545 S
O147 U126 2.449 . S
O147 C143 1.282 1_545 S
H148 C121 0.931 . S
H149 C123 0.929 . S
H150 C124 0.930 . S
H151 C125 0.931 . S
H152 C132 0.932 . S
H153 C133 0.930 . S
H154 C134 0.929 . S
H155 C136 0.930 . S
H156 C138 0.932 . S
H157 C139 0.929 . S
H158 C140 0.928 . S
H159 C142 0.932 . S
C160 C161 1.264 . S
C160 C165 1.479 . S
C160 C170 1.465 . S
C161 C160 1.264 . S
C161 C163 1.339 . S
C161 H188 0.931 . S
C162 C163 1.395 . S
C162 C164 1.320 . S
C163 C161 1.339 . S
C163 C162 1.395 . S
C163 H189 0.929 . S
C164 C162 1.320 . S
C164 C165 1.405 . S
C164 H190 0.930 . S
C165 C160 1.479 . S
C165 C164 1.405 . S
C165 H191 0.931 . S
U166 O167 2.454 . S
U166 O168 2.458 . S
U166 C169 2.984 . S
U166 C170 2.847 . S
U166 C183 2.882 . S
U166 O184 2.441 . S
U166 O185 2.420 . S
U166 O186 2.455 . S
U166 O187 2.449 . S
O167 U166 2.454 . S
O167 C169 1.353 . S
O168 U166 2.458 . S
O168 C169 1.286 . S
C169 U166 2.984 . S
C169 O167 1.353 . S
C169 O168 1.286 . S
C169 C171 1.363 . S
C170 C160 1.465 . S
C170 U166 2.847 . S
C170 O184 1.249 . S
C170 O185 1.202 . S
C171 C169 1.363 . S
C171 C173 1.408 . S
C171 C176 1.342 . S
C172 C173 1.310 . S
C172 C175 1.461 . S
C172 H192 0.932 . S
C173 C171 1.408 . S
C173 C172 1.310 . S
C173 H193 0.930 . S
C174 C175 1.474 . S
C174 C176 1.285 . S
C174 H194 0.929 . S
C175 C172 1.461 . S
C175 C174 1.474 . S
C176 C171 1.342 . S
C176 C174 1.285 . S
C176 H195 0.930 . S
C177 C180 1.424 . S
C177 C182 1.245 . S
C177 C183 1.428 . S
C178 C181 1.260 . S
C178 C182 1.477 . S
C178 H196 0.932 . S
C179 C180 1.384 . S
C179 C181 1.479 . S
C179 H197 0.929 . S
C180 C177 1.424 . S
C180 C179 1.384 . S
C180 H198 0.928 . S
C181 C178 1.260 . S
C181 C179 1.479 . S
C182 C177 1.245 . S
C182 C178 1.477 . S
C182 H199 0.932 . S
C183 U166 2.882 . S
C183 C177 1.428 . S
C183 O186 1.301 . S
C183 O187 1.282 . S
O184 U166 2.441 . S
O184 C170 1.249 . S
O185 U166 2.420 . S
O185 C170 1.202 . S
O186 U166 2.455 . S
O186 C183 1.301 . S
O187 U166 2.449 . S
O187 C183 1.282 . S
H188 C161 0.931 . S
H189 C163 0.929 . S
H190 C164 0.930 . S
H191 C165 0.931 . S
H192 C172 0.932 . S
H193 C173 0.930 . S
H194 C174 0.929 . S
H195 C176 0.930 . S
H196 C178 0.932 . S
H197 C179 0.929 . S
H198 C180 0.928 . S
H199 C182 0.932 . S
C200 C201 1.264 . S
C200 C205 1.479 . S
C200 C210 1.465 . S
C201 C200 1.264 . S
C201 C203 1.339 . S
C201 H228 0.931 . S
C202 C203 1.395 . S
C202 C204 1.320 . S
C203 C201 1.339 . S
C203 C202 1.395 . S
C203 H229 0.929 . S
C204 C202 1.320 . S
C204 C205 1.405 . S
C204 H230 0.930 . S
C205 C200 1.479 . S
C205 C204 1.405 . S
C205 H231 0.931 . S
U206 O207 2.454 . S
U206 O208 2.458 . S
U206 C209 2.984 . S
U206 C210 2.847 . S
U206 C223 2.882 1_554 S
U206 O224 2.441 . S
U206 O225 2.420 . S
U206 O226 2.455 . S
U206 O227 2.449 . S
O207 U206 2.454 . S
O207 C209 1.353 . S
O208 U206 2.458 . S
O208 C209 1.286 . S
C209 U206 2.984 . S
C209 O207 1.353 . S
C209 O208 1.286 . S
C209 C211 1.363 . S
C210 C200 1.465 . S
C210 U206 2.847 . S
C210 O224 1.249 . S
C210 O225 1.202 . S
C211 C209 1.363 . S
C211 C213 1.408 . S
C211 C216 1.342 . S
C212 C213 1.310 . S
C212 C215 1.461 . S
C212 H232 0.932 . S
C213 C211 1.408 . S
C213 C212 1.310 . S
C213 H233 0.930 . S
C214 C215 1.474 . S
C214 C216 1.285 . S
C214 H234 0.929 . S
C215 C212 1.461 . S
C215 C214 1.474 . S
C216 C211 1.342 . S
C216 C214 1.285 . S
C216 H235 0.930 . S
C217 C220 1.424 . S
C217 C222 1.245 . S
C217 C223 1.428 . S
C218 C221 1.260 . S
C218 C222 1.477 . S
C218 H236 0.932 . S
C219 C220 1.384 . S
C219 C221 1.479 . S
C219 H237 0.929 . S
C220 C217 1.424 . S
C220 C219 1.384 . S
C220 H238 0.928 . S
C221 C218 1.260 . S
C221 C219 1.479 . S
C222 C217 1.245 . S
C222 C218 1.477 . S
C222 H239 0.932 . S
C223 U206 2.882 1_556 S
C223 C217 1.428 . S
C223 O226 1.301 1_556 S
C223 O227 1.282 1_556 S
O224 U206 2.441 . S
O224 C210 1.249 . S
O225 U206 2.420 . S
O225 C210 1.202 . S
O226 U206 2.455 . S
O226 C223 1.301 1_554 S
O227 U206 2.449 . S
O227 C223 1.282 1_554 S
H228 C201 0.931 . S
H229 C203 0.929 . S
H230 C204 0.930 . S
H231 C205 0.931 . S
H232 C212 0.932 . S
H233 C213 0.930 . S
H234 C214 0.929 . S
H235 C216 0.930 . S
H236 C218 0.932 . S
H237 C219 0.929 . S
H238 C220 0.928 . S
H239 C222 0.932 . S
C240 C241 1.264 . S
C240 C245 1.479 . S
C240 C250 1.465 . S
C241 C240 1.264 . S
C241 C243 1.339 . S
C241 H268 0.931 . S
C242 C243 1.395 . S
C242 C244 1.320 . S
C243 C241 1.339 . S
C243 C242 1.395 . S
C243 H269 0.929 . S
C244 C242 1.320 . S
C244 C245 1.405 . S
C244 H270 0.930 . S
C245 C240 1.479 . S
C245 C244 1.405 . S
C245 H271 0.931 . S
U246 O247 2.454 . S
U246 O248 2.458 . S
U246 C249 2.984 . S
U246 C250 2.847 . S
U246 C263 2.882 . S
U246 O264 2.441 . S
U246 O265 2.420 . S
U246 O266 2.455 . S
U246 O267 2.449 . S
O247 U246 2.454 . S
O247 C249 1.353 . S
O248 U246 2.458 . S
O248 C249 1.286 . S
C249 U246 2.984 . S
C249 O247 1.353 . S
C249 O248 1.286 . S
C249 C251 1.363 . S
C250 C240 1.465 . S
C250 U246 2.847 . S
C250 O264 1.249 . S
C250 O265 1.202 . S
C251 C249 1.363 . S
C251 C253 1.408 . S
C251 C256 1.342 . S
C252 C253 1.310 . S
C252 C255 1.461 . S
C252 H272 0.932 . S
C253 C251 1.408 . S
C253 C252 1.310 . S
C253 H273 0.930 . S
C254 C255 1.474 . S
C254 C256 1.285 . S
C254 H274 0.929 . S
C255 C252 1.461 . S
C255 C254 1.474 . S
C256 C251 1.342 . S
C256 C254 1.285 . S
C256 H275 0.930 . S
C257 C260 1.424 . S
C257 C262 1.245 . S
C257 C263 1.428 . S
C258 C261 1.260 . S
C258 C262 1.477 . S
C258 H276 0.932 . S
C259 C260 1.384 . S
C259 C261 1.479 . S
C259 H277 0.929 . S
C260 C257 1.424 . S
C260 C259 1.384 . S
C260 H278 0.928 . S
C261 C258 1.260 . S
C261 C259 1.479 . S
C262 C257 1.245 . S
C262 C258 1.477 . S
C262 H279 0.932 . S
C263 U246 2.882 . S
C263 C257 1.428 . S
C263 O266 1.301 . S
C263 O267 1.282 . S
O264 U246 2.441 . S
O264 C250 1.249 . S
O265 U246 2.420 . S
O265 C250 1.202 . S
O266 U246 2.455 . S
O266 C263 1.301 . S
O267 U246 2.449 . S
O267 C263 1.282 . S
H268 C241 0.931 . S
H269 C243 0.929 . S
H270 C244 0.930 . S
H271 C245 0.931 . S
H272 C252 0.932 . S
H273 C253 0.930 . S
H274 C254 0.929 . S
H275 C256 0.930 . S
H276 C258 0.932 . S
H277 C259 0.929 . S
H278 C260 0.928 . S
H279 C262 0.932 . S
C280 C281 1.264 . S
C280 C285 1.479 . S
C280 C290 1.465 . S
C281 C280 1.264 . S
C281 C283 1.339 . S
C281 H308 0.931 . S
C282 C283 1.395 . S
C282 C284 1.320 . S
C283 C281 1.339 . S
C283 C282 1.395 . S
C283 H309 0.929 . S
C284 C282 1.320 . S
C284 C285 1.405 . S
C284 H310 0.926 1_556 S
C285 C280 1.479 . S
C285 C284 1.405 . S
C285 H311 0.931 . S
U286 O287 2.454 . S
U286 O288 2.458 . S
U286 C289 2.984 . S
U286 C290 2.847 . S
U286 C303 2.882 . S
U286 O304 2.441 . S
U286 O305 2.420 . S
U286 O306 2.455 . S
U286 O307 2.449 . S
O287 U286 2.454 . S
O287 C289 1.353 . S
O288 U286 2.458 . S
O288 C289 1.286 . S
C289 U286 2.984 . S
C289 O287 1.353 . S
C289 O288 1.286 . S
C289 C291 1.363 . S
C290 C280 1.465 . S
C290 U286 2.847 . S
C290 O304 1.249 . S
C290 O305 1.202 . S
C291 C289 1.363 . S
C291 C293 1.408 . S
C291 C296 1.342 . S
C292 C293 1.310 . S
C292 C295 1.461 . S
C292 H312 0.930 . S
C293 C291 1.408 . S
C293 C292 1.310 . S
C293 H313 0.930 . S
C294 C295 1.473 1_554 S
C294 C296 1.284 1_554 S
C294 H314 0.932 . S
C295 C292 1.461 . S
C295 C294 1.473 1_556 S
C296 C291 1.342 . S
C296 C294 1.284 1_556 S
C296 H315 0.935 . S
C297 C300 1.424 . S
C297 C302 1.245 . S
C297 C303 1.428 . S
C298 C301 1.260 . S
C298 C302 1.477 . S
C298 H316 0.932 . S
C299 C300 1.384 . S
C299 C301 1.479 . S
C299 H317 0.929 . S
C300 C297 1.424 . S
C300 C299 1.384 . S
C300 H318 0.928 . S
C301 C298 1.260 . S
C301 C299 1.479 . S
C302 C297 1.245 . S
C302 C298 1.477 . S
C302 H319 0.932 . S
C303 U286 2.882 . S
C303 C297 1.428 . S
C303 O306 1.301 . S
C303 O307 1.282 . S
O304 U286 2.441 . S
O304 C290 1.249 . S
O305 U286 2.420 . S
O305 C290 1.202 . S
O306 U286 2.455 . S
O306 C303 1.301 . S
O307 U286 2.449 . S
O307 C303 1.282 . S
H308 C281 0.931 . S
H309 C283 0.929 . S
H310 C284 0.926 1_554 S
H311 C285 0.931 . S
H312 C292 0.930 . S
H313 C293 0.930 . S
H314 C294 0.932 . S
H315 C296 0.935 . S
H316 C298 0.932 . S
H317 C299 0.929 . S
H318 C300 0.928 . S
H319 C302 0.932 . S
C320 C321 1.264 . S
C320 C325 1.479 . S
C320 C330 1.465 . S
C321 C320 1.264 . S
C321 C323 1.339 . S
C321 H348 0.931 . S
C322 C323 1.395 . S
C322 C324 1.320 . S
C323 C321 1.339 . S
C323 C322 1.395 . S
C323 H349 0.929 . S
C324 C322 1.320 . S
C324 C325 1.405 . S
C324 H350 0.930 . S
C325 C320 1.479 . S
C325 C324 1.405 . S
C325 H351 0.931 . S
U326 O327 2.454 . S
U326 O328 2.458 . S
U326 C329 2.984 . S
U326 C330 2.847 . S
U326 C343 2.882 . S
U326 O344 2.441 . S
U326 O345 2.420 . S
U326 O346 2.455 . S
U326 O347 2.449 . S
O327 U326 2.454 . S
O327 C329 1.353 . S
O328 U326 2.458 . S
O328 C329 1.286 . S
C329 U326 2.984 . S
C329 O327 1.353 . S
C329 O328 1.286 . S
C329 C331 1.363 . S
C330 C320 1.465 . S
C330 U326 2.847 . S
C330 O344 1.249 . S
C330 O345 1.202 . S
C331 C329 1.363 . S
C331 C333 1.408 . S
C331 C336 1.342 . S
C332 C333 1.310 . S
C332 C335 1.461 . S
C332 H352 0.932 . S
C333 C331 1.408 . S
C333 C332 1.310 . S
C333 H353 0.930 . S
C334 C335 1.474 . S
C334 C336 1.285 . S
C334 H354 0.929 . S
C335 C332 1.461 . S
C335 C334 1.474 . S
C336 C331 1.342 . S
C336 C334 1.285 . S
C336 H355 0.930 . S
C337 C340 1.424 . S
C337 C342 1.245 . S
C337 C343 1.428 . S
C338 C341 1.260 . S
C338 C342 1.477 . S
C338 H356 0.932 . S
C339 C340 1.384 . S
C339 C341 1.479 . S
C339 H357 0.929 . S
C340 C337 1.424 . S
C340 C339 1.384 . S
C340 H358 0.928 . S
C341 C338 1.260 . S
C341 C339 1.479 . S
C342 C337 1.245 . S
C342 C338 1.477 . S
C342 H359 0.932 . S
C343 U326 2.882 . S
C343 C337 1.428 . S
C343 O346 1.301 . S
C343 O347 1.282 . S
O344 U326 2.441 . S
O344 C330 1.249 . S
O345 U326 2.420 . S
O345 C330 1.202 . S
O346 U326 2.455 . S
O346 C343 1.301 . S
O347 U326 2.449 . S
O347 C343 1.282 . S
H348 C321 0.931 . S
H349 C323 0.929 . S
H350 C324 0.930 . S
H351 C325 0.931 . S
H352 C332 0.932 . S
H353 C333 0.930 . S
H354 C334 0.929 . S
H355 C336 0.930 . S
H356 C338 0.932 . S
H357 C339 0.929 . S
H358 C340 0.928 . S
H359 C342 0.932 . S
C360 C361 1.264 . S
C360 C365 1.479 . S
C360 C370 1.465 . S
C361 C360 1.264 . S
C361 C363 1.339 . S
C361 H388 0.931 . S
C362 C363 1.395 . S
C362 C364 1.320 . S
C363 C361 1.339 . S
C363 C362 1.395 . S
C363 H389 0.929 . S
C364 C362 1.320 . S
C364 C365 1.405 . S
C364 H390 0.930 . S
C365 C360 1.479 . S
C365 C364 1.405 . S
C365 H391 0.931 . S
U366 O367 2.454 . S
U366 O368 2.458 . S
U366 C369 2.984 . S
U366 C370 2.847 . S
U366 C383 2.882 1_455 S
U366 O384 2.441 . S
U366 O385 2.420 . S
U366 O386 2.455 . S
U366 O387 2.449 . S
O367 U366 2.454 . S
O367 C369 1.353 . S
O368 U366 2.458 . S
O368 C369 1.286 . S
C369 U366 2.984 . S
C369 O367 1.353 . S
C369 O368 1.286 . S
C369 C371 1.363 . S
C370 C360 1.465 . S
C370 U366 2.847 . S
C370 O384 1.249 . S
C370 O385 1.202 . S
C371 C369 1.363 . S
C371 C373 1.408 . S
C371 C376 1.342 . S
C372 C373 1.310 . S
C372 C375 1.461 . S
C372 H392 0.932 . S
C373 C371 1.408 . S
C373 C372 1.310 . S
C373 H393 0.930 . S
C374 C375 1.474 . S
C374 C376 1.285 . S
C374 H394 0.929 . S
C375 C372 1.461 . S
C375 C374 1.474 . S
C376 C371 1.342 . S
C376 C374 1.285 . S
C376 H395 0.930 . S
C377 C380 1.424 . S
C377 C382 1.245 . S
C377 C383 1.428 . S
C378 C381 1.260 . S
C378 C382 1.477 . S
C378 H396 0.932 . S
C379 C380 1.384 . S
C379 C381 1.479 . S
C379 H397 0.929 . S
C380 C377 1.424 . S
C380 C379 1.384 . S
C380 H398 0.928 . S
C381 C378 1.260 . S
C381 C379 1.479 . S
C382 C377 1.245 . S
C382 C378 1.477 . S
C382 H399 0.932 . S
C383 U366 2.882 1_655 S
C383 C377 1.428 . S
C383 O386 1.301 1_655 S
C383 O387 1.282 1_655 S
O384 U366 2.441 . S
O384 C370 1.249 . S
O385 U366 2.420 . S
O385 C370 1.202 . S
O386 U366 2.455 . S
O386 C383 1.301 1_455 S
O387 U366 2.449 . S
O387 C383 1.282 1_455 S
H388 C361 0.931 . S
H389 C363 0.929 . S
H390 C364 0.930 . S
H391 C365 0.931 . S
H392 C372 0.932 . S
H393 C373 0.930 . S
H394 C374 0.929 . S
H395 C376 0.930 . S
H396 C378 0.932 . S
H397 C379 0.929 . S
H398 C380 0.928 . S
H399 C382 0.932 . S
C400 C401 1.264 . S
C400 C405 1.479 . S
C400 C410 1.465 . S
C401 C400 1.264 . S
C401 C403 1.339 . S
C401 H428 0.931 . S
C402 C403 1.395 . S
C402 C404 1.320 . S
C403 C401 1.339 . S
C403 C402 1.395 . S
C403 H429 0.929 . S
C404 C402 1.320 . S
C404 C405 1.405 . S
C404 H430 0.930 . S
C405 C400 1.479 . S
C405 C404 1.405 . S
C405 H431 0.931 . S
U406 O407 2.454 . S
U406 O408 2.458 . S
U406 C409 2.984 . S
U406 C410 2.847 . S
U406 C423 2.882 . S
U406 O424 2.441 . S
U406 O425 2.420 . S
U406 O426 2.455 . S
U406 O427 2.449 . S
O407 U406 2.454 . S
O407 C409 1.353 . S
O408 U406 2.458 . S
O408 C409 1.286 . S
C409 U406 2.984 . S
C409 O407 1.353 . S
C409 O408 1.286 . S
C409 C411 1.363 . S
C410 C400 1.465 . S
C410 U406 2.847 . S
C410 O424 1.249 . S
C410 O425 1.202 . S
C411 C409 1.363 . S
C411 C413 1.408 . S
C411 C416 1.342 . S
C412 C413 1.310 . S
C412 C415 1.461 . S
C412 H432 0.932 . S
C413 C411 1.408 . S
C413 C412 1.310 . S
C413 H433 0.930 . S
C414 C415 1.474 . S
C414 C416 1.285 . S
C414 H434 0.929 . S
C415 C412 1.461 . S
C415 C414 1.474 . S
C416 C411 1.342 . S
C416 C414 1.285 . S
C416 H435 0.930 . S
C417 C420 1.424 . S
C417 C422 1.245 . S
C417 C423 1.428 . S
C418 C421 1.260 . S
C418 C422 1.477 . S
C418 H436 0.932 . S
C419 C420 1.384 . S
C419 C421 1.479 . S
C419 H437 0.929 . S
C420 C417 1.424 . S
C420 C419 1.384 . S
C420 H438 0.928 . S
C421 C418 1.260 . S
C421 C419 1.479 . S
C422 C417 1.245 . S
C422 C418 1.477 . S
C422 H439 0.932 . S
C423 U406 2.882 . S
C423 C417 1.428 . S
C423 O426 1.301 . S
C423 O427 1.282 . S
O424 U406 2.441 . S
O424 C410 1.249 . S
O425 U406 2.420 . S
O425 C410 1.202 . S
O426 U406 2.455 . S
O426 C423 1.301 . S
O427 U406 2.449 . S
O427 C423 1.282 . S
H428 C401 0.931 . S
H429 C403 0.929 . S
H430 C404 0.930 . S
H431 C405 0.931 . S
H432 C412 0.932 . S
H433 C413 0.930 . S
H434 C414 0.929 . S
H435 C416 0.930 . S
H436 C418 0.932 . S
H437 C419 0.929 . S
H438 C420 0.928 . S
H439 C422 0.932 . S
C440 C441 1.264 . S
C440 C445 1.479 . S
C440 C450 1.465 . S
C441 C440 1.264 . S
C441 C443 1.339 . S
C441 H468 0.931 . S
C442 C443 1.395 . S
C442 C444 1.320 . S
C443 C441 1.339 . S
C443 C442 1.395 . S
C443 H469 0.929 . S
C444 C442 1.320 . S
C444 C445 1.405 . S
C444 H470 0.926 1_655 S
C445 C440 1.479 . S
C445 C444 1.405 . S
C445 H471 0.931 . S
U446 O447 2.454 . S
U446 O448 2.458 . S
U446 C449 2.984 . S
U446 C450 2.847 . S
U446 C463 2.882 . S
U446 O464 2.441 . S
U446 O465 2.420 . S
U446 O466 2.455 . S
U446 O467 2.449 . S
O447 U446 2.454 . S
O447 C449 1.353 . S
O448 U446 2.458 . S
O448 C449 1.286 . S
C449 U446 2.984 . S
C449 O447 1.353 . S
C449 O448 1.286 . S
C449 C451 1.363 . S
C450 C440 1.465 . S
C450 U446 2.847 . S
C450 O464 1.249 . S
C450 O465 1.202 . S
C451 C449 1.363 . S
C451 C453 1.408 . S
C451 C456 1.342 . S
C452 C453 1.310 . S
C452 C455 1.461 . S
C452 H472 0.930 . S
C453 C451 1.408 . S
C453 C452 1.310 . S
C453 H473 0.930 . S
C454 C455 1.473 1_455 S
C454 C456 1.284 1_455 S
C454 H474 0.932 . S
C455 C452 1.461 . S
C455 C454 1.473 1_655 S
C456 C451 1.342 . S
C456 C454 1.284 1_655 S
C456 H475 0.935 . S
C457 C460 1.424 . S
C457 C462 1.245 . S
C457 C463 1.428 . S
C458 C461 1.260 . S
C458 C462 1.477 . S
C458 H476 0.932 . S
C459 C460 1.384 . S
C459 C461 1.479 . S
C459 H477 0.929 . S
C460 C457 1.424 . S
C460 C459 1.384 . S
C460 H478 0.928 . S
C461 C458 1.260 . S
C461 C459 1.479 . S
C462 C457 1.245 . S
C462 C458 1.477 . S
C462 H479 0.932 . S
C463 U446 2.882 . S
C463 C457 1.428 . S
C463 O466 1.301 . S
C463 O467 1.282 . S
O464 U446 2.441 . S
O464 C450 1.249 . S
O465 U446 2.420 . S
O465 C450 1.202 . S
O466 U446 2.455 . S
O466 C463 1.301 . S
O467 U446 2.449 . S
O467 C463 1.282 . S
H468 C441 0.931 . S
H469 C443 0.929 . S
H470 C444 0.926 1_455 S
H471 C445 0.931 . S
H472 C452 0.930 . S
H473 C453 0.930 . S
H474 C454 0.932 . S
H475 C456 0.935 . S
H476 C458 0.932 . S
H477 C459 0.929 . S
H478 C460 0.928 . S
H479 C462 0.932 . S
C480 C481 1.264 . S
C480 C485 1.479 . S
C480 C490 1.465 . S
C481 C480 1.264 . S
C481 C483 1.339 . S
C481 H508 0.931 . S
C482 C483 1.395 . S
C482 C484 1.320 . S
C483 C481 1.339 . S
C483 C482 1.395 . S
C483 H509 0.929 . S
C484 C482 1.320 . S
C484 C485 1.405 . S
C484 H510 0.930 . S
C485 C480 1.479 . S
C485 C484 1.405 . S
C485 H511 0.931 . S
U486 O487 2.454 . S
U486 O488 2.458 . S
U486 C489 2.984 . S
U486 C490 2.847 . S
U486 C503 2.882 . S
U486 O504 2.441 . S
U486 O505 2.420 . S
U486 O506 2.455 . S
U486 O507 2.449 . S
O487 U486 2.454 . S
O487 C489 1.353 . S
O488 U486 2.458 . S
O488 C489 1.286 . S
C489 U486 2.984 . S
C489 O487 1.353 . S
C489 O488 1.286 . S
C489 C491 1.363 . S
C490 C480 1.465 . S
C490 U486 2.847 . S
C490 O504 1.249 . S
C490 O505 1.202 . S
C491 C489 1.363 . S
C491 C493 1.408 . S
C491 C496 1.342 . S
C492 C493 1.310 . S
C492 C495 1.461 . S
C492 H512 0.932 . S
C493 C491 1.408 . S
C493 C492 1.310 . S
C493 H513 0.930 . S
C494 C495 1.474 . S
C494 C496 1.285 . S
C494 H514 0.929 . S
C495 C492 1.461 . S
C495 C494 1.474 . S
C496 C491 1.342 . S
C496 C494 1.285 . S
C496 H515 0.930 . S
C497 C500 1.424 . S
C497 C502 1.245 . S
C497 C503 1.428 . S
C498 C501 1.260 . S
C498 C502 1.477 . S
C498 H516 0.932 . S
C499 C500 1.384 . S
C499 C501 1.479 . S
C499 H517 0.929 . S
C500 C497 1.424 . S
C500 C499 1.384 . S
C500 H518 0.928 . S
C501 C498 1.260 . S
C501 C499 1.479 . S
C502 C497 1.245 . S
C502 C498 1.477 . S
C502 H519 0.932 . S
C503 U486 2.882 . S
C503 C497 1.428 . S
C503 O506 1.301 . S
C503 O507 1.282 . S
O504 U486 2.441 . S
O504 C490 1.249 . S
O505 U486 2.420 . S
O505 C490 1.202 . S
O506 U486 2.455 . S
O506 C503 1.301 . S
O507 U486 2.449 . S
O507 C503 1.282 . S
H508 C481 0.931 . S
H509 C483 0.929 . S
H510 C484 0.930 . S
H511 C485 0.931 . S
H512 C492 0.932 . S
H513 C493 0.930 . S
H514 C494 0.929 . S
H515 C496 0.930 . S
H516 C498 0.932 . S
H517 C499 0.929 . S
H518 C500 0.928 . S
H519 C502 0.932 . S
C520 C521 1.264 . S
C520 C525 1.479 . S
C520 C530 1.465 . S
C521 C520 1.264 . S
C521 C523 1.339 . S
C521 H548 0.931 . S
C522 C523 1.395 . S
C522 C524 1.320 . S
C523 C521 1.339 . S
C523 C522 1.395 . S
C523 H549 0.929 . S
C524 C522 1.320 . S
C524 C525 1.405 . S
C524 H550 0.930 . S
C525 C520 1.479 . S
C525 C524 1.405 . S
C525 H551 0.931 . S
U526 O527 2.454 . S
U526 O528 2.458 . S
U526 C529 2.984 . S
U526 C530 2.847 . S
U526 C543 2.882 . S
U526 O544 2.441 . S
U526 O545 2.420 . S
U526 O546 2.455 . S
U526 O547 2.449 . S
O527 U526 2.454 . S
O527 C529 1.353 . S
O528 U526 2.458 . S
O528 C529 1.286 . S
C529 U526 2.984 . S
C529 O527 1.353 . S
C529 O528 1.286 . S
C529 C531 1.363 . S
C530 C520 1.465 . S
C530 U526 2.847 . S
C530 O544 1.249 . S
C530 O545 1.202 . S
C531 C529 1.363 . S
C531 C533 1.408 . S
C531 C536 1.342 . S
C532 C533 1.310 . S
C532 C535 1.461 . S
C532 H552 0.932 . S
C533 C531 1.408 . S
C533 C532 1.310 . S
C533 H553 0.930 . S
C534 C535 1.474 . S
C534 C536 1.285 . S
C534 H554 0.929 . S
C535 C532 1.461 . S
C535 C534 1.474 . S
C536 C531 1.342 . S
C536 C534 1.285 . S
C536 H555 0.930 . S
C537 C540 1.424 . S
C537 C542 1.245 . S
C537 C543 1.428 . S
C538 C541 1.260 . S
C538 C542 1.477 . S
C538 H556 0.932 . S
C539 C540 1.384 . S
C539 C541 1.479 . S
C539 H557 0.929 . S
C540 C537 1.424 . S
C540 C539 1.384 . S
C540 H558 0.928 . S
C541 C538 1.260 . S
C541 C539 1.479 . S
C542 C537 1.245 . S
C542 C538 1.477 . S
C542 H559 0.932 . S
C543 U526 2.882 . S
C543 C537 1.428 . S
C543 O546 1.301 . S
C543 O547 1.282 . S
O544 U526 2.441 . S
O544 C530 1.249 . S
O545 U526 2.420 . S
O545 C530 1.202 . S
O546 U526 2.455 . S
O546 C543 1.301 . S
O547 U526 2.449 . S
O547 C543 1.282 . S
H548 C521 0.931 . S
H549 C523 0.929 . S
H550 C524 0.930 . S
H551 C525 0.931 . S
H552 C532 0.932 . S
H553 C533 0.930 . S
H554 C534 0.929 . S
H555 C536 0.930 . S
H556 C538 0.932 . S
H557 C539 0.929 . S
H558 C540 0.928 . S
H559 C542 0.932 . S
C560 C561 1.264 . S
C560 C565 1.479 . S
C560 C570 1.465 . S
C561 C560 1.264 . S
C561 C563 1.339 . S
C561 H588 0.931 . S
C562 C563 1.395 . S
C562 C564 1.320 . S
C563 C561 1.339 . S
C563 C562 1.395 . S
C563 H589 0.929 . S
C564 C562 1.320 . S
C564 C565 1.405 . S
C564 H590 0.920 1_565 S
C565 C560 1.479 . S
C565 C564 1.405 . S
C565 H591 0.931 . S
U566 O567 2.454 . S
U566 O568 2.458 . S
U566 C569 2.984 . S
U566 C570 2.847 . S
U566 C583 2.882 . S
U566 O584 2.441 . S
U566 O585 2.420 . S
U566 O586 2.455 . S
U566 O587 2.449 . S
O567 U566 2.454 . S
O567 C569 1.353 . S
O568 U566 2.458 . S
O568 C569 1.286 . S
C569 U566 2.984 . S
C569 O567 1.353 . S
C569 O568 1.286 . S
C569 C571 1.363 . S
C570 C560 1.465 . S
C570 U566 2.847 . S
C570 O584 1.249 . S
C570 O585 1.202 . S
C571 C569 1.363 . S
C571 C573 1.408 . S
C571 C576 1.342 . S
C572 C573 1.310 . S
C572 C575 1.459 . S
C572 H592 0.932 . S
C573 C571 1.408 . S
C573 C572 1.310 . S
C573 H593 0.930 . S
C574 C575 1.475 1_545 S
C574 C576 1.285 1_545 S
C574 H594 0.930 . S
C575 C572 1.459 . S
C575 C574 1.475 1_565 S
C576 C571 1.342 . S
C576 C574 1.285 1_565 S
C576 H595 0.929 . S
C577 C580 1.424 . S
C577 C582 1.245 . S
C577 C583 1.428 . S
C578 C581 1.260 . S
C578 C582 1.477 . S
C578 H596 0.932 . S
C579 C580 1.384 . S
C579 C581 1.479 . S
C579 H597 0.929 . S
C580 C577 1.424 . S
C580 C579 1.384 . S
C580 H598 0.928 . S
C581 C578 1.260 . S
C581 C579 1.479 . S
C582 C577 1.245 . S
C582 C578 1.477 . S
C582 H599 0.932 . S
C583 U566 2.882 . S
C583 C577 1.428 . S
C583 O586 1.301 . S
C583 O587 1.282 . S
O584 U566 2.441 . S
O584 C570 1.249 . S
O585 U566 2.420 . S
O585 C570 1.202 . S
O586 U566 2.455 . S
O586 C583 1.301 . S
O587 U566 2.449 . S
O587 C583 1.282 . S
H588 C561 0.931 . S
H589 C563 0.929 . S
H590 C564 0.920 1_545 S
H591 C565 0.931 . S
H592 C572 0.932 . S
H593 C573 0.930 . S
H594 C574 0.930 . S
H595 C576 0.929 . S
H596 C578 0.932 . S
H597 C579 0.929 . S
H598 C580 0.928 . S
H599 C582 0.932 . S
C600 C601 1.262 1_565 S
C600 C605 1.479 . S
C600 C610 1.465 1_565 S
C601 C600 1.262 1_545 S
C601 C603 1.328 1_545 S
C601 H628 0.945 . S
C602 C603 1.395 . S
C602 C604 1.320 . S
C603 C601 1.328 1_565 S
C603 C602 1.395 . S
C603 H629 0.929 . S
C604 C602 1.320 . S
C604 C605 1.405 . S
C604 H630 0.930 . S
C605 C600 1.479 . S
C605 C604 1.405 . S
C605 H631 0.931 . S
U606 O607 2.454 1_545 S
U606 O608 2.458 . S
U606 C609 2.984 1_545 S
U606 C610 2.847 . S
U606 C623 2.882 . S
U606 O624 2.441 1_545 S
U606 O625 2.420 . S
U606 O626 2.455 . S
U606 O627 2.449 . S
O607 U606 2.454 1_565 S
O607 C609 1.353 . S
O608 U606 2.458 . S
O608 C609 1.286 1_545 S
C609 U606 2.984 1_565 S
C609 O607 1.353 . S
C609 O608 1.286 1_565 S
C609 C611 1.363 . S
C610 C600 1.465 1_545 S
C610 U606 2.847 . S
C610 O624 1.249 1_545 S
C610 O625 1.202 . S
C611 C609 1.363 . S
C611 C613 1.408 . S
C611 C616 1.342 . S
C612 C613 1.310 . S
C612 C615 1.461 . S
C612 H632 0.932 . S
C613 C611 1.408 . S
C613 C612 1.310 . S
C613 H633 0.930 . S
C614 C615 1.474 . S
C614 C616 1.285 . S
C614 H634 0.929 . S
C615 C612 1.461 . S
C615 C614 1.474 . S
C616 C611 1.342 . S
C616 C614 1.285 . S
C616 H635 0.930 . S
C617 C620 1.424 . S
C617 C622 1.245 . S
C617 C623 1.428 . S
C618 C621 1.260 . S
C618 C622 1.477 . S
C618 H636 0.932 . S
C619 C620 1.384 . S
C619 C621 1.479 . S
C619 H637 0.929 . S
C620 C617 1.424 . S
C620 C619 1.384 . S
C620 H638 0.928 . S
C621 C618 1.260 . S
C621 C619 1.479 . S
C622 C617 1.245 . S
C622 C618 1.477 . S
C622 H639 0.932 . S
C623 U606 2.882 . S
C623 C617 1.428 . S
C623 O626 1.301 . S
C623 O627 1.282 . S
O624 U606 2.441 1_565 S
O624 C610 1.249 1_565 S
O625 U606 2.420 . S
O625 C610 1.202 . S
O626 U606 2.455 . S
O626 C623 1.301 . S
O627 U606 2.449 . S
O627 C623 1.282 . S
H628 C601 0.945 . S
H629 C603 0.929 . S
H630 C604 0.930 . S
H631 C605 0.931 . S
H632 C612 0.932 . S
H633 C613 0.930 . S
H634 C614 0.929 . S
H635 C616 0.930 . S
H636 C618 0.932 . S
H637 C619 0.929 . S
H638 C620 0.928 . S
H639 C622 0.932 . S
C640 C641 1.264 . S
C640 C645 1.479 . S
C640 C650 1.465 . S
C641 C640 1.264 . S
C641 C643 1.339 . S
C641 H668 0.931 . S
C642 C643 1.395 . S
C642 C644 1.320 . S
C643 C641 1.339 . S
C643 C642 1.395 . S
C643 H669 0.929 . S
C644 C642 1.320 . S
C644 C645 1.405 . S
C644 H670 0.930 . S
C645 C640 1.479 . S
C645 C644 1.405 . S
C645 H671 0.931 . S
U646 O647 2.454 . S
U646 O648 2.458 . S
U646 C649 2.984 . S
U646 C650 2.847 . S
U646 C663 2.882 . S
U646 O664 2.441 . S
U646 O665 2.420 . S
U646 O666 2.455 . S
U646 O667 2.449 . S
O647 U646 2.454 . S
O647 C649 1.353 . S
O648 U646 2.458 . S
O648 C649 1.286 . S
C649 U646 2.984 . S
C649 O647 1.353 . S
C649 O648 1.286 . S
C649 C651 1.363 . S
C650 C640 1.465 . S
C650 U646 2.847 . S
C650 O664 1.249 . S
C650 O665 1.202 . S
C651 C649 1.363 . S
C651 C653 1.408 . S
C651 C656 1.342 . S
C652 C653 1.310 . S
C652 C655 1.461 . S
C652 H672 0.932 . S
C653 C651 1.408 . S
C653 C652 1.310 . S
C653 H673 0.930 . S
C654 C655 1.474 . S
C654 C656 1.285 . S
C654 H674 0.929 . S
C655 C652 1.461 . S
C655 C654 1.474 . S
C656 C651 1.342 . S
C656 C654 1.285 . S
C656 H675 0.930 . S
C657 C660 1.424 . S
C657 C662 1.245 . S
C657 C663 1.428 . S
C658 C661 1.260 . S
C658 C662 1.477 . S
C658 H676 0.932 . S
C659 C660 1.384 . S
C659 C661 1.479 . S
C659 H677 0.929 . S
C660 C657 1.424 . S
C660 C659 1.384 . S
C660 H678 0.928 . S
C661 C658 1.260 . S
C661 C659 1.479 . S
C662 C657 1.245 . S
C662 C658 1.477 . S
C662 H679 0.932 . S
C663 U646 2.882 . S
C663 C657 1.428 . S
C663 O666 1.301 . S
C663 O667 1.282 . S
O664 U646 2.441 . S
O664 C650 1.249 . S
O665 U646 2.420 . S
O665 C650 1.202 . S
O666 U646 2.455 . S
O666 C663 1.301 . S
O667 U646 2.449 . S
O667 C663 1.282 . S
H668 C641 0.931 . S
H669 C643 0.929 . S
H670 C644 0.930 . S
H671 C645 0.931 . S
H672 C652 0.932 . S
H673 C653 0.930 . S
H674 C654 0.929 . S
H675 C656 0.930 . S
H676 C658 0.932 . S
H677 C659 0.929 . S
H678 C660 0.928 . S
H679 C662 0.932 . S
C680 C681 1.262 1_556 S
C680 C685 1.479 . S
C680 C690 1.465 1_556 S
C681 C680 1.262 1_554 S
C681 C683 1.328 1_554 S
C681 H708 0.945 . S
C682 C683 1.395 . S
C682 C684 1.320 . S
C683 C681 1.328 1_556 S
C683 C682 1.395 . S
C683 H709 0.929 . S
C684 C682 1.320 . S
C684 C685 1.405 . S
C684 H710 0.930 . S
C685 C680 1.479 . S
C685 C684 1.405 . S
C685 H711 0.931 . S
U686 O687 2.454 1_554 S
U686 O688 2.458 . S
U686 C689 2.984 1_554 S
U686 C690 2.847 . S
U686 C703 2.882 . S
U686 O704 2.441 1_554 S
U686 O705 2.420 . S
U686 O706 2.455 . S
U686 O707 2.449 . S
O687 U686 2.454 1_556 S
O687 C689 1.353 . S
O688 U686 2.458 . S
O688 C689 1.286 1_554 S
C689 U686 2.984 1_556 S
C689 O687 1.353 . S
C689 O688 1.286 1_556 S
C689 C691 1.363 . S
C690 C680 1.465 1_554 S
C690 U686 2.847 . S
C690 O704 1.249 1_554 S
C690 O705 1.202 . S
C691 C689 1.363 . S
C691 C693 1.408 . S
C691 C696 1.342 . S
C692 C693 1.310 . S
C692 C695 1.461 . S
C692 H712 0.932 . S
C693 C691 1.408 . S
C693 C692 1.310 . S
C693 H713 0.930 . S
C694 C695 1.474 . S
C694 C696 1.285 . S
C694 H714 0.929 . S
C695 C692 1.461 . S
C695 C694 1.474 . S
C696 C691 1.342 . S
C696 C694 1.285 . S
C696 H715 0.930 . S
C697 C700 1.424 . S
C697 C702 1.245 . S
C697 C703 1.428 . S
C698 C701 1.260 . S
C698 C702 1.477 . S
C698 H716 0.932 . S
C699 C700 1.384 . S
C699 C701 1.479 . S
C699 H717 0.929 . S
C700 C697 1.424 . S
C700 C699 1.384 . S
C700 H718 0.928 . S
C701 C698 1.260 . S
C701 C699 1.479 . S
C702 C697 1.245 . S
C702 C698 1.477 . S
C702 H719 0.932 . S
C703 U686 2.882 . S
C703 C697 1.428 . S
C703 O706 1.301 . S
C703 O707 1.282 . S
O704 U686 2.441 1_556 S
O704 C690 1.249 1_556 S
O705 U686 2.420 . S
O705 C690 1.202 . S
O706 U686 2.455 . S
O706 C703 1.301 . S
O707 U686 2.449 . S
O707 C703 1.282 . S
H708 C681 0.945 . S
H709 C683 0.929 . S
H710 C684 0.930 . S
H711 C685 0.931 . S
H712 C692 0.932 . S
H713 C693 0.930 . S
H714 C694 0.929 . S
H715 C696 0.930 . S
H716 C698 0.932 . S
H717 C699 0.929 . S
H718 C700 0.928 . S
H719 C702 0.932 . S
C720 C721 1.264 . S
C720 C725 1.479 . S
C720 C730 1.465 . S
C721 C720 1.264 . S
C721 C723 1.339 . S
C721 H748 0.931 . S
C722 C723 1.395 . S
C722 C724 1.320 . S
C723 C721 1.339 . S
C723 C722 1.395 . S
C723 H749 0.929 . S
C724 C722 1.320 . S
C724 C725 1.405 . S
C724 H750 0.930 . S
C725 C720 1.479 . S
C725 C724 1.405 . S
C725 H751 0.931 . S
U726 O727 2.454 . S
U726 O728 2.458 . S
U726 C729 2.984 . S
U726 C730 2.847 . S
U726 C743 2.882 . S
U726 O744 2.441 . S
U726 O745 2.420 . S
U726 O746 2.455 . S
U726 O747 2.449 . S
O727 U726 2.454 . S
O727 C729 1.353 . S
O728 U726 2.458 . S
O728 C729 1.286 . S
C729 U726 2.984 . S
C729 O727 1.353 . S
C729 O728 1.286 . S
C729 C731 1.363 . S
C730 C720 1.465 . S
C730 U726 2.847 . S
C730 O744 1.249 . S
C730 O745 1.202 . S
C731 C729 1.363 . S
C731 C733 1.408 . S
C731 C736 1.342 . S
C732 C733 1.310 . S
C732 C735 1.461 . S
C732 H752 0.932 . S
C733 C731 1.408 . S
C733 C732 1.310 . S
C733 H753 0.930 . S
C734 C735 1.474 . S
C734 C736 1.285 . S
C734 H754 0.929 . S
C735 C732 1.461 . S
C735 C734 1.474 . S
C736 C731 1.342 . S
C736 C734 1.285 . S
C736 H755 0.930 . S
C737 C740 1.424 . S
C737 C742 1.245 . S
C737 C743 1.428 . S
C738 C741 1.260 . S
C738 C742 1.477 . S
C738 H756 0.932 . S
C739 C740 1.384 . S
C739 C741 1.479 . S
C739 H757 0.929 . S
C740 C737 1.424 . S
C740 C739 1.384 . S
C740 H758 0.928 . S
C741 C738 1.260 . S
C741 C739 1.479 . S
C742 C737 1.245 . S
C742 C738 1.477 . S
C742 H759 0.932 . S
C743 U726 2.882 . S
C743 C737 1.428 . S
C743 O746 1.301 . S
C743 O747 1.282 . S
O744 U726 2.441 . S
O744 C730 1.249 . S
O745 U726 2.420 . S
O745 C730 1.202 . S
O746 U726 2.455 . S
O746 C743 1.301 . S
O747 U726 2.449 . S
O747 C743 1.282 . S
H748 C721 0.931 . S
H749 C723 0.929 . S
H750 C724 0.930 . S
H751 C725 0.931 . S
H752 C732 0.932 . S
H753 C733 0.930 . S
H754 C734 0.929 . S
H755 C736 0.930 . S
H756 C738 0.932 . S
H757 C739 0.929 . S
H758 C740 0.928 . S
H759 C742 0.932 . S
C760 C761 1.264 . S
C760 C765 1.479 . S
C760 C770 1.465 . S
C761 C760 1.264 . S
C761 C763 1.339 . S
C761 H788 0.931 . S
C762 C763 1.395 . S
C762 C764 1.320 . S
C763 C761 1.339 . S
C763 C762 1.395 . S
C763 H789 0.929 . S
C764 C762 1.320 . S
C764 C765 1.405 . S
C764 H790 0.920 1_556 S
C765 C760 1.479 . S
C765 C764 1.405 . S
C765 H791 0.931 . S
U766 O767 2.454 . S
U766 O768 2.458 . S
U766 C769 2.984 . S
U766 C770 2.847 . S
U766 C783 2.882 . S
U766 O784 2.441 . S
U766 O785 2.420 . S
U766 O786 2.455 . S
U766 O787 2.449 . S
O767 U766 2.454 . S
O767 C769 1.353 . S
O768 U766 2.458 . S
O768 C769 1.286 . S
C769 U766 2.984 . S
C769 O767 1.353 . S
C769 O768 1.286 . S
C769 C771 1.363 . S
C770 C760 1.465 . S
C770 U766 2.847 . S
C770 O784 1.249 . S
C770 O785 1.202 . S
C771 C769 1.363 . S
C771 C773 1.408 . S
C771 C776 1.342 . S
C772 C773 1.310 . S
C772 C775 1.459 . S
C772 H792 0.932 . S
C773 C771 1.408 . S
C773 C772 1.310 . S
C773 H793 0.930 . S
C774 C775 1.475 1_554 S
C774 C776 1.285 1_554 S
C774 H794 0.930 . S
C775 C772 1.459 . S
C775 C774 1.475 1_556 S
C776 C771 1.342 . S
C776 C774 1.285 1_556 S
C776 H795 0.929 . S
C777 C780 1.424 . S
C777 C782 1.245 . S
C777 C783 1.428 . S
C778 C781 1.260 . S
C778 C782 1.477 . S
C778 H796 0.932 . S
C779 C780 1.384 . S
C779 C781 1.479 . S
C779 H797 0.929 . S
C780 C777 1.424 . S
C780 C779 1.384 . S
C780 H798 0.928 . S
C781 C778 1.260 . S
C781 C779 1.479 . S
C782 C777 1.245 . S
C782 C778 1.477 . S
C782 H799 0.932 . S
C783 U766 2.882 . S
C783 C777 1.428 . S
C783 O786 1.301 . S
C783 O787 1.282 . S
O784 U766 2.441 . S
O784 C770 1.249 . S
O785 U766 2.420 . S
O785 C770 1.202 . S
O786 U766 2.455 . S
O786 C783 1.301 . S
O787 U766 2.449 . S
O787 C783 1.282 . S
H788 C761 0.931 . S
H789 C763 0.929 . S
H790 C764 0.920 1_554 S
H791 C765 0.931 . S
H792 C772 0.932 . S
H793 C773 0.930 . S
H794 C774 0.930 . S
H795 C776 0.929 . S
H796 C778 0.932 . S
H797 C779 0.929 . S
H798 C780 0.928 . S
H799 C782 0.932 . S
C800 C801 1.264 . S
C800 C805 1.479 . S
C800 C810 1.465 . S
C801 C800 1.264 . S
C801 C803 1.339 . S
C801 H828 0.931 . S
C802 C803 1.395 . S
C802 C804 1.320 . S
C803 C801 1.339 . S
C803 C802 1.395 . S
C803 H829 0.929 . S
C804 C802 1.320 . S
C804 C805 1.405 . S
C804 H830 0.930 . S
C805 C800 1.479 . S
C805 C804 1.405 . S
C805 H831 0.931 . S
U806 O807 2.454 . S
U806 O808 2.458 . S
U806 C809 2.984 . S
U806 C810 2.847 . S
U806 C823 2.882 . S
U806 O824 2.441 . S
U806 O825 2.420 . S
U806 O826 2.455 . S
U806 O827 2.449 . S
O807 U806 2.454 . S
O807 C809 1.353 . S
O808 U806 2.458 . S
O808 C809 1.286 . S
C809 U806 2.984 . S
C809 O807 1.353 . S
C809 O808 1.286 . S
C809 C811 1.363 . S
C810 C800 1.465 . S
C810 U806 2.847 . S
C810 O824 1.249 . S
C810 O825 1.202 . S
C811 C809 1.363 . S
C811 C813 1.408 . S
C811 C816 1.342 . S
C812 C813 1.310 . S
C812 C815 1.461 . S
C812 H832 0.932 . S
C813 C811 1.408 . S
C813 C812 1.310 . S
C813 H833 0.930 . S
C814 C815 1.474 . S
C814 C816 1.285 . S
C814 H834 0.929 . S
C815 C812 1.461 . S
C815 C814 1.474 . S
C816 C811 1.342 . S
C816 C814 1.285 . S
C816 H835 0.930 . S
C817 C820 1.424 . S
C817 C822 1.245 . S
C817 C823 1.428 . S
C818 C821 1.260 . S
C818 C822 1.477 . S
C818 H836 0.932 . S
C819 C820 1.384 . S
C819 C821 1.479 . S
C819 H837 0.929 . S
C820 C817 1.424 . S
C820 C819 1.384 . S
C820 H838 0.928 . S
C821 C818 1.260 . S
C821 C819 1.479 . S
C822 C817 1.245 . S
C822 C818 1.477 . S
C822 H839 0.932 . S
C823 U806 2.882 . S
C823 C817 1.428 . S
C823 O826 1.301 . S
C823 O827 1.282 . S
O824 U806 2.441 . S
O824 C810 1.249 . S
O825 U806 2.420 . S
O825 C810 1.202 . S
O826 U806 2.455 . S
O826 C823 1.301 . S
O827 U806 2.449 . S
O827 C823 1.282 . S
H828 C801 0.931 . S
H829 C803 0.929 . S
H830 C804 0.930 . S
H831 C805 0.931 . S
H832 C812 0.932 . S
H833 C813 0.930 . S
H834 C814 0.929 . S
H835 C816 0.930 . S
H836 C818 0.932 . S
H837 C819 0.929 . S
H838 C820 0.928 . S
H839 C822 0.932 . S
C840 C841 1.262 1_655 S
C840 C845 1.479 . S
C840 C850 1.465 1_655 S
C841 C840 1.262 1_455 S
C841 C843 1.328 1_455 S
C841 H868 0.945 . S
C842 C843 1.395 . S
C842 C844 1.320 . S
C843 C841 1.328 1_655 S
C843 C842 1.395 . S
C843 H869 0.929 . S
C844 C842 1.320 . S
C844 C845 1.405 . S
C844 H870 0.930 . S
C845 C840 1.479 . S
C845 C844 1.405 . S
C845 H871 0.931 . S
U846 O847 2.454 1_455 S
U846 O848 2.458 . S
U846 C849 2.984 1_455 S
U846 C850 2.847 . S
U846 C863 2.882 . S
U846 O864 2.441 1_455 S
U846 O865 2.420 . S
U846 O866 2.455 . S
U846 O867 2.449 . S
O847 U846 2.454 1_655 S
O847 C849 1.353 . S
O848 U846 2.458 . S
O848 C849 1.286 1_455 S
C849 U846 2.984 1_655 S
C849 O847 1.353 . S
C849 O848 1.286 1_655 S
C849 C851 1.363 . S
C850 C840 1.465 1_455 S
C850 U846 2.847 . S
C850 O864 1.249 1_455 S
C850 O865 1.202 . S
C851 C849 1.363 . S
C851 C853 1.408 . S
C851 C856 1.342 . S
C852 C853 1.310 . S
C852 C855 1.461 . S
C852 H872 0.932 . S
C853 C851 1.408 . S
C853 C852 1.310 . S
C853 H873 0.930 . S
C854 C855 1.474 . S
C854 C856 1.285 . S
C854 H874 0.929 . S
C855 C852 1.461 . S
C855 C854 1.474 . S
C856 C851 1.342 . S
C856 C854 1.285 . S
C856 H875 0.930 . S
C857 C860 1.424 . S
C857 C862 1.245 . S
C857 C863 1.428 . S
C858 C861 1.260 . S
C858 C862 1.477 . S
C858 H876 0.932 . S
C859 C860 1.384 . S
C859 C861 1.479 . S
C859 H877 0.929 . S
C860 C857 1.424 . S
C860 C859 1.384 . S
C860 H878 0.928 . S
C861 C858 1.260 . S
C861 C859 1.479 . S
C862 C857 1.245 . S
C862 C858 1.477 . S
C862 H879 0.932 . S
C863 U846 2.882 . S
C863 C857 1.428 . S
C863 O866 1.301 . S
C863 O867 1.282 . S
O864 U846 2.441 1_655 S
O864 C850 1.249 1_655 S
O865 U846 2.420 . S
O865 C850 1.202 . S
O866 U846 2.455 . S
O866 C863 1.301 . S
O867 U846 2.449 . S
O867 C863 1.282 . S
H868 C841 0.945 . S
H869 C843 0.929 . S
H870 C844 0.930 . S
H871 C845 0.931 . S
H872 C852 0.932 . S
H873 C853 0.930 . S
H874 C854 0.929 . S
H875 C856 0.930 . S
H876 C858 0.932 . S
H877 C859 0.929 . S
H878 C860 0.928 . S
H879 C862 0.932 . S
C880 C881 1.264 . S
C880 C885 1.479 . S
C880 C890 1.465 . S
C881 C880 1.264 . S
C881 C883 1.339 . S
C881 H908 0.931 . S
C882 C883 1.395 . S
C882 C884 1.320 . S
C883 C881 1.339 . S
C883 C882 1.395 . S
C883 H909 0.929 . S
C884 C882 1.320 . S
C884 C885 1.405 . S
C884 H910 0.930 . S
C885 C880 1.479 . S
C885 C884 1.405 . S
C885 H911 0.931 . S
U886 O887 2.454 . S
U886 O888 2.458 . S
U886 C889 2.984 . S
U886 C890 2.847 . S
U886 C903 2.882 . S
U886 O904 2.441 . S
U886 O905 2.420 . S
U886 O906 2.455 . S
U886 O907 2.449 . S
O887 U886 2.454 . S
O887 C889 1.353 . S
O888 U886 2.458 . S
O888 C889 1.286 . S
C889 U886 2.984 . S
C889 O887 1.353 . S
C889 O888 1.286 . S
C889 C891 1.363 . S
C890 C880 1.465 . S
C890 U886 2.847 . S
C890 O904 1.249 . S
C890 O905 1.202 . S
C891 C889 1.363 . S
C891 C893 1.408 . S
C891 C896 1.342 . S
C892 C893 1.310 . S
C892 C895 1.461 . S
C892 H912 0.932 . S
C893 C891 1.408 . S
C893 C892 1.310 . S
C893 H913 0.930 . S
C894 C895 1.474 . S
C894 C896 1.285 . S
C894 H914 0.929 . S
C895 C892 1.461 . S
C895 C894 1.474 . S
C896 C891 1.342 . S
C896 C894 1.285 . S
C896 H915 0.930 . S
C897 C900 1.424 . S
C897 C902 1.245 . S
C897 C903 1.428 . S
C898 C901 1.260 . S
C898 C902 1.477 . S
C898 H916 0.932 . S
C899 C900 1.384 . S
C899 C901 1.479 . S
C899 H917 0.929 . S
C900 C897 1.424 . S
C900 C899 1.384 . S
C900 H918 0.928 . S
C901 C898 1.260 . S
C901 C899 1.479 . S
C902 C897 1.245 . S
C902 C898 1.477 . S
C902 H919 0.932 . S
C903 U886 2.882 . S
C903 C897 1.428 . S
C903 O906 1.301 . S
C903 O907 1.282 . S
O904 U886 2.441 . S
O904 C890 1.249 . S
O905 U886 2.420 . S
O905 C890 1.202 . S
O906 U886 2.455 . S
O906 C903 1.301 . S
O907 U886 2.449 . S
O907 C903 1.282 . S
H908 C881 0.931 . S
H909 C883 0.929 . S
H910 C884 0.930 . S
H911 C885 0.931 . S
H912 C892 0.932 . S
H913 C893 0.930 . S
H914 C894 0.929 . S
H915 C896 0.930 . S
H916 C898 0.932 . S
H917 C899 0.929 . S
H918 C900 0.928 . S
H919 C902 0.932 . S
C920 C921 1.264 . S
C920 C925 1.479 . S
C920 C930 1.465 . S
C921 C920 1.264 . S
C921 C923 1.339 . S
C921 H948 0.931 . S
C922 C923 1.395 . S
C922 C924 1.320 . S
C923 C921 1.339 . S
C923 C922 1.395 . S
C923 H949 0.929 . S
C924 C922 1.320 . S
C924 C925 1.405 . S
C924 H950 0.920 1_655 S
C925 C920 1.479 . S
C925 C924 1.405 . S
C925 H951 0.931 . S
U926 O927 2.454 . S
U926 O928 2.458 . S
U926 C929 2.984 . S
U926 C930 2.847 . S
U926 C943 2.882 . S
U926 O944 2.441 . S
U926 O945 2.420 . S
U926 O946 2.455 . S
U926 O947 2.449 . S
O927 U926 2.454 . S
O927 C929 1.353 . S
O928 U926 2.458 . S
O928 C929 1.286 . S
C929 U926 2.984 . S
C929 O927 1.353 . S
C929 O928 1.286 . S
C929 C931 1.363 . S
C930 C920 1.465 . S
C930 U926 2.847 . S
C930 O944 1.249 . S
C930 O945 1.202 . S
C931 C929 1.363 . S
C931 C933 1.408 . S
C931 C936 1.342 . S
C932 C933 1.310 . S
C932 C935 1.459 . S
C932 H952 0.932 . S
C933 C931 1.408 . S
C933 C932 1.310 . S
C933 H953 0.930 . S
C934 C935 1.475 1_455 S
C934 C936 1.285 1_455 S
C934 H954 0.930 . S
C935 C932 1.459 . S
C935 C934 1.475 1_655 S
C936 C931 1.342 . S
C936 C934 1.285 1_655 S
C936 H955 0.929 . S
C937 C940 1.424 . S
C937 C942 1.245 . S
C937 C943 1.428 . S
C938 C941 1.260 . S
C938 C942 1.477 . S
C938 H956 0.932 . S
C939 C940 1.384 . S
C939 C941 1.479 . S
C939 H957 0.929 . S
C940 C937 1.424 . S
C940 C939 1.384 . S
C940 H958 0.928 . S
C941 C938 1.260 . S
C941 C939 1.479 . S
C942 C937 1.245 . S
C942 C938 1.477 . S
C942 H959 0.932 . S
C943 U926 2.882 . S
C943 C937 1.428 . S
C943 O946 1.301 . S
C943 O947 1.282 . S
O944 U926 2.441 . S
O944 C930 1.249 . S
O945 U926 2.420 . S
O945 C930 1.202 . S
O946 U926 2.455 . S
O946 C943 1.301 . S
O947 U926 2.449 . S
O947 C943 1.282 . S
H948 C921 0.931 . S
H949 C923 0.929 . S
H950 C924 0.920 1_455 S
H951 C925 0.931 . S
H952 C932 0.932 . S
H953 C933 0.930 . S
H954 C934 0.930 . S
H955 C936 0.929 . S
H956 C938 0.932 . S
H957 C939 0.929 . S
H958 C940 0.928 . S
H959 C942 0.932 . S
C960 N961 1.317 . S
C960 N962 1.348 . S
C960 C963 1.485 . S
N961 C960 1.317 . S
N961 N965 1.370 . S
N962 C960 1.348 . S
N962 C964 1.346 . S
C963 C960 1.485 . S
C963 H967 0.960 . S
C963 H968 0.961 . S
C963 H969 0.960 . S
C964 N962 1.346 . S
C964 N965 1.307 . S
C964 C966 1.486 . S
N965 N961 1.370 . S
N965 C964 1.307 . S
C966 C964 1.486 . S
C966 H970 0.960 . S
C966 H971 0.960 . S
C966 H972 0.959 . S
H967 C963 0.960 . S
H968 C963 0.961 . S
H969 C963 0.960 . S
H970 C966 0.960 . S
H971 C966 0.960 . S
H972 C966 0.959 . S
C973 N974 1.317 . S
C973 N975 1.348 . S
C973 C976 1.485 . S
N974 C973 1.317 . S
N974 N978 1.370 1_554 S
N975 C973 1.348 . S
N975 C977 1.346 1_554 S
C976 C973 1.485 . S
C976 H980 0.960 . S
C976 H981 0.961 . S
C976 H982 0.960 . S
C977 N975 1.346 1_556 S
C977 N978 1.307 . S
C977 C979 1.486 . S
N978 N974 1.370 1_556 S
N978 C977 1.307 . S
C979 C977 1.486 . S
C979 H983 0.960 . S
C979 H984 0.960 . S
C979 H985 0.959 . S
H980 C976 0.960 . S
H981 C976 0.961 . S
H982 C976 0.960 . S
H983 C979 0.960 . S
H984 C979 0.960 . S
H985 C979 0.959 . S
C986 N987 1.317 . S
C986 N988 1.348 1_565 S
C986 C989 1.485 . S
N987 C986 1.317 . S
N987 N991 1.359 1_565 S
N988 C986 1.348 1_545 S
N988 C990 1.346 . S
C989 C986 1.485 . S
C989 H993 0.960 . S
C989 H994 0.967 1_565 S
C989 H995 0.960 . S
C990 N988 1.346 . S
C990 N991 1.326 . S
C990 C992 1.486 . S
N991 N987 1.359 1_545 S
N991 C990 1.326 . S
C992 C990 1.486 . S
C992 H996 0.960 . S
C992 H997 0.960 . S
C992 H998 0.959 . S
H993 C989 0.960 . S
H994 C989 0.967 1_545 S
H995 C989 0.960 . S
H996 C992 0.960 . S
H997 C992 0.960 . S
H998 C992 0.959 . S
C999 N1000 1.317 . S
C999 N1001 1.348 . S
C999 C1002 1.485 . S
N1000 C999 1.317 . S
N1000 N1004 1.370 1_556 S
N1001 C999 1.348 . S
N1001 C1003 1.346 1_556 S
C1002 C999 1.485 . S
C1002 H1006 0.960 . S
C1002 H1007 0.961 . S
C1002 H1008 0.960 . S
C1003 N1001 1.346 1_554 S
C1003 N1004 1.307 . S
C1003 C1005 1.486 . S
N1004 N1000 1.370 1_554 S
N1004 C1003 1.307 . S
C1005 C1003 1.486 . S
C1005 H1009 0.960 . S
C1005 H1010 0.960 . S
C1005 H1011 0.959 . S
H1006 C1002 0.960 . S
H1007 C1002 0.961 . S
H1008 C1002 0.960 . S
H1009 C1005 0.960 . S
H1010 C1005 0.960 . S
H1011 C1005 0.959 . S
C1012 N1013 1.317 . S
C1012 N1014 1.348 . S
C1012 C1015 1.485 . S
N1013 C1012 1.317 . S
N1013 N1017 1.370 . S
N1014 C1012 1.348 . S
N1014 C1016 1.346 . S
C1015 C1012 1.485 . S
C1015 H1019 0.960 . S
C1015 H1020 0.961 . S
C1015 H1021 0.960 . S
C1016 N1014 1.346 . S
C1016 N1017 1.307 . S
C1016 C1018 1.486 . S
N1017 N1013 1.370 . S
N1017 C1016 1.307 . S
C1018 C1016 1.486 . S
C1018 H1022 0.960 . S
C1018 H1023 0.960 . S
C1018 H1024 0.959 . S
H1019 C1015 0.960 . S
H1020 C1015 0.961 . S
H1021 C1015 0.960 . S
H1022 C1018 0.960 . S
H1023 C1018 0.960 . S
H1024 C1018 0.959 . S
C1025 N1026 1.317 . S
C1025 N1027 1.348 . S
C1025 C1028 1.485 . S
N1026 C1025 1.317 . S
N1026 N1030 1.370 1_655 S
N1027 C1025 1.348 . S
N1027 C1029 1.346 1_655 S
C1028 C1025 1.485 . S
C1028 H1032 0.960 . S
C1028 H1033 0.961 . S
C1028 H1034 0.960 . S
C1029 N1027 1.346 1_455 S
C1029 N1030 1.307 . S
C1029 C1031 1.486 . S
N1030 N1026 1.370 1_455 S
N1030 C1029 1.307 . S
C1031 C1029 1.486 . S
C1031 H1035 0.960 . S
C1031 H1036 0.960 . S
C1031 H1037 0.959 . S
H1032 C1028 0.960 . S
H1033 C1028 0.961 . S
H1034 C1028 0.960 . S
H1035 C1031 0.960 . S
H1036 C1031 0.960 . S
H1037 C1031 0.959 . S
C1038 N1039 1.317 . S
C1038 N1040 1.348 . S
C1038 C1041 1.485 . S
N1039 C1038 1.317 . S
N1039 N1043 1.370 1_455 S
N1040 C1038 1.348 . S
N1040 C1042 1.346 1_455 S
C1041 C1038 1.485 . S
C1041 H1045 0.960 . S
C1041 H1046 0.961 . S
C1041 H1047 0.960 . S
C1042 N1040 1.346 1_655 S
C1042 N1043 1.307 . S
C1042 C1044 1.486 . S
N1043 N1039 1.370 1_655 S
N1043 C1042 1.307 . S
C1044 C1042 1.486 . S
C1044 H1048 0.960 . S
C1044 H1049 0.960 . S
C1044 H1050 0.959 . S
H1045 C1041 0.960 . S
H1046 C1041 0.961 . S
H1047 C1041 0.960 . S
H1048 C1044 0.960 . S
H1049 C1044 0.960 . S
H1050 C1044 0.959 . S
C1051 N1052 1.317 . S
C1051 N1053 1.348 1_556 S
C1051 C1054 1.485 . S
N1052 C1051 1.317 . S
N1052 N1056 1.359 1_556 S
N1053 C1051 1.348 1_554 S
N1053 C1055 1.346 . S
C1054 C1051 1.485 . S
C1054 H1058 0.960 . S
C1054 H1059 0.967 1_556 S
C1054 H1060 0.960 . S
C1055 N1053 1.346 . S
C1055 N1056 1.326 . S
C1055 C1057 1.486 . S
N1056 N1052 1.359 1_554 S
N1056 C1055 1.326 . S
C1057 C1055 1.486 . S
C1057 H1061 0.960 . S
C1057 H1062 0.960 . S
C1057 H1063 0.959 . S
H1058 C1054 0.960 . S
H1059 C1054 0.967 1_554 S
H1060 C1054 0.960 . S
H1061 C1057 0.960 . S
H1062 C1057 0.960 . S
H1063 C1057 0.959 . S
C1064 N1065 1.317 . S
C1064 N1066 1.348 . S
C1064 C1067 1.485 . S
N1065 C1064 1.317 . S
N1065 N1069 1.370 . S
N1066 C1064 1.348 . S
N1066 C1068 1.346 . S
C1067 C1064 1.485 . S
C1067 H1071 0.960 . S
C1067 H1072 0.961 . S
C1067 H1073 0.960 . S
C1068 N1066 1.346 . S
C1068 N1069 1.307 . S
C1068 C1070 1.486 . S
N1069 N1065 1.370 . S
N1069 C1068 1.307 . S
C1070 C1068 1.486 . S
C1070 H1074 0.960 . S
C1070 H1075 0.960 . S
C1070 H1076 0.959 . S
H1071 C1067 0.960 . S
H1072 C1067 0.961 . S
H1073 C1067 0.960 . S
H1074 C1070 0.960 . S
H1075 C1070 0.960 . S
H1076 C1070 0.959 . S
C1077 N1078 1.317 . S
C1077 N1079 1.348 . S
C1077 C1080 1.485 . S
N1078 C1077 1.317 . S
N1078 N1082 1.370 1_565 S
N1079 C1077 1.348 . S
N1079 C1081 1.346 1_565 S
C1080 C1077 1.485 . S
C1080 H1084 0.960 . S
C1080 H1085 0.961 . S
C1080 H1086 0.960 . S
C1081 N1079 1.346 1_545 S
C1081 N1082 1.307 . S
C1081 C1083 1.486 . S
N1082 N1078 1.370 1_545 S
N1082 C1081 1.307 . S
C1083 C1081 1.486 . S
C1083 H1087 0.960 . S
C1083 H1088 0.960 . S
C1083 H1089 0.959 . S
H1084 C1080 0.960 . S
H1085 C1080 0.961 . S
H1086 C1080 0.960 . S
H1087 C1083 0.960 . S
H1088 C1083 0.960 . S
H1089 C1083 0.959 . S
C1090 N1091 1.317 . S
C1090 N1092 1.348 . S
C1090 C1093 1.485 . S
N1091 C1090 1.317 . S
N1091 N1095 1.370 1_545 S
N1092 C1090 1.348 . S
N1092 C1094 1.346 1_545 S
C1093 C1090 1.485 . S
C1093 H1097 0.960 . S
C1093 H1098 0.961 . S
C1093 H1099 0.960 . S
C1094 N1092 1.346 1_565 S
C1094 N1095 1.307 . S
C1094 C1096 1.486 . S
N1095 N1091 1.370 1_565 S
N1095 C1094 1.307 . S
C1096 C1094 1.486 . S
C1096 H1100 0.960 . S
C1096 H1101 0.960 . S
C1096 H1102 0.959 . S
H1097 C1093 0.960 . S
H1098 C1093 0.961 . S
H1099 C1093 0.960 . S
H1100 C1096 0.960 . S
H1101 C1096 0.960 . S
H1102 C1096 0.959 . S
C1103 N1104 1.317 . S
C1103 N1105 1.348 1_655 S
C1103 C1106 1.485 . S
N1104 C1103 1.317 . S
N1104 N1108 1.359 1_655 S
N1105 C1103 1.348 1_455 S
N1105 C1107 1.346 . S
C1106 C1103 1.485 . S
C1106 H1110 0.960 . S
C1106 H1111 0.967 1_655 S
C1106 H1112 0.960 . S
C1107 N1105 1.346 . S
C1107 N1108 1.326 . S
C1107 C1109 1.486 . S
N1108 N1104 1.359 1_455 S
N1108 C1107 1.326 . S
C1109 C1107 1.486 . S
C1109 H1113 0.960 . S
C1109 H1114 0.960 . S
C1109 H1115 0.959 . S
H1110 C1106 0.960 . S
H1111 C1106 0.967 1_455 S
H1112 C1106 0.960 . S
H1113 C1109 0.960 . S
H1114 C1109 0.960 . S
H1115 C1109 0.959 . S
C1116 N1117 1.317 . S
C1116 N1118 1.348 . S
C1116 C1119 1.485 . S
N1117 C1116 1.317 . S
N1117 N1121 1.370 . S
N1118 C1116 1.348 . S
N1118 C1120 1.346 . S
C1119 C1116 1.485 . S
C1119 H1123 0.960 . S
C1119 H1124 0.961 . S
C1119 H1125 0.960 . S
C1120 N1118 1.346 . S
C1120 N1121 1.307 . S
C1120 C1122 1.486 . S
N1121 N1117 1.370 . S
N1121 C1120 1.307 . S
C1122 C1120 1.486 . S
C1122 H1126 0.960 . S
C1122 H1127 0.960 . S
C1122 H1128 0.959 . S
H1123 C1119 0.960 . S
H1124 C1119 0.961 . S
H1125 C1119 0.960 . S
H1126 C1122 0.960 . S
H1127 C1122 0.960 . S
H1128 C1122 0.959 . S
C1129 N1130 1.317 . S
C1129 N1131 1.348 . S
C1129 C1132 1.485 . S
N1130 C1129 1.317 . S
N1130 N1134 1.370 1_556 S
N1131 C1129 1.348 . S
N1131 C1133 1.346 1_556 S
C1132 C1129 1.485 . S
C1132 H1136 0.960 . S
C1132 H1137 0.961 . S
C1132 H1138 0.960 . S
C1133 N1131 1.346 1_554 S
C1133 N1134 1.307 . S
C1133 C1135 1.486 . S
N1134 N1130 1.370 1_554 S
N1134 C1133 1.307 . S
C1135 C1133 1.486 . S
C1135 H1139 0.960 . S
C1135 H1140 0.960 . S
C1135 H1141 0.959 . S
H1136 C1132 0.960 . S
H1137 C1132 0.961 . S
H1138 C1132 0.960 . S
H1139 C1135 0.960 . S
H1140 C1135 0.960 . S
H1141 C1135 0.959 . S
C1142 N1143 1.317 . S
C1142 N1144 1.348 1_545 S
C1142 C1145 1.485 . S
N1143 C1142 1.317 . S
N1143 N1147 1.362 1_545 S
N1144 C1142 1.348 1_565 S
N1144 C1146 1.346 . S
C1145 C1142 1.485 . S
C1145 H1149 0.960 . S
C1145 H1150 0.961 . S
C1145 H1151 0.960 . S
C1146 N1144 1.346 . S
C1146 N1147 1.321 . S
C1146 C1148 1.486 . S
N1147 N1143 1.362 1_565 S
N1147 C1146 1.321 . S
C1148 C1146 1.486 . S
C1148 H1152 0.960 . S
C1148 H1153 0.960 . S
C1148 H1154 0.959 . S
H1149 C1145 0.960 . S
H1150 C1145 0.961 . S
H1151 C1145 0.960 . S
H1152 C1148 0.960 . S
H1153 C1148 0.960 . S
H1154 C1148 0.959 . S
C1155 N1156 1.317 . S
C1155 N1157 1.348 . S
C1155 C1158 1.485 . S
N1156 C1155 1.317 . S
N1156 N1160 1.370 1_554 S
N1157 C1155 1.348 . S
N1157 C1159 1.346 1_554 S
C1158 C1155 1.485 . S
C1158 H1162 0.960 . S
C1158 H1163 0.961 . S
C1158 H1164 0.960 . S
C1159 N1157 1.346 1_556 S
C1159 N1160 1.307 . S
C1159 C1161 1.486 . S
N1160 N1156 1.370 1_556 S
N1160 C1159 1.307 . S
C1161 C1159 1.486 . S
C1161 H1165 0.960 . S
C1161 H1166 0.960 . S
C1161 H1167 0.959 . S
H1162 C1158 0.960 . S
H1163 C1158 0.961 . S
H1164 C1158 0.960 . S
H1165 C1161 0.960 . S
H1166 C1161 0.960 . S
H1167 C1161 0.959 . S
C1168 N1169 1.317 . S
C1168 N1170 1.348 . S
C1168 C1171 1.485 . S
N1169 C1168 1.317 . S
N1169 N1173 1.370 . S
N1170 C1168 1.348 . S
N1170 C1172 1.346 . S
C1171 C1168 1.485 . S
C1171 H1175 0.960 . S
C1171 H1176 0.961 . S
C1171 H1177 0.960 . S
C1172 N1170 1.346 . S
C1172 N1173 1.307 . S
C1172 C1174 1.486 . S
N1173 N1169 1.370 . S
N1173 C1172 1.307 . S
C1174 C1172 1.486 . S
C1174 H1178 0.960 . S
C1174 H1179 0.960 . S
C1174 H1180 0.959 . S
H1175 C1171 0.960 . S
H1176 C1171 0.961 . S
H1177 C1171 0.960 . S
H1178 C1174 0.960 . S
H1179 C1174 0.960 . S
H1180 C1174 0.959 . S
C1181 N1182 1.317 . S
C1181 N1183 1.348 . S
C1181 C1184 1.485 . S
N1182 C1181 1.317 . S
N1182 N1186 1.370 1_455 S
N1183 C1181 1.348 . S
N1183 C1185 1.346 1_455 S
C1184 C1181 1.485 . S
C1184 H1188 0.960 . S
C1184 H1189 0.961 . S
C1184 H1190 0.960 . S
C1185 N1183 1.346 1_655 S
C1185 N1186 1.307 . S
C1185 C1187 1.486 . S
N1186 N1182 1.370 1_655 S
N1186 C1185 1.307 . S
C1187 C1185 1.486 . S
C1187 H1191 0.960 . S
C1187 H1192 0.960 . S
C1187 H1193 0.959 . S
H1188 C1184 0.960 . S
H1189 C1184 0.961 . S
H1190 C1184 0.960 . S
H1191 C1187 0.960 . S
H1192 C1187 0.960 . S
H1193 C1187 0.959 . S
C1194 N1195 1.317 . S
C1194 N1196 1.348 . S
C1194 C1197 1.485 . S
N1195 C1194 1.317 . S
N1195 N1199 1.370 1_655 S
N1196 C1194 1.348 . S
N1196 C1198 1.346 1_655 S
C1197 C1194 1.485 . S
C1197 H1201 0.960 . S
C1197 H1202 0.961 . S
C1197 H1203 0.960 . S
C1198 N1196 1.346 1_455 S
C1198 N1199 1.307 . S
C1198 C1200 1.486 . S
N1199 N1195 1.370 1_455 S
N1199 C1198 1.307 . S
C1200 C1198 1.486 . S
C1200 H1204 0.960 . S
C1200 H1205 0.960 . S
C1200 H1206 0.959 . S
H1201 C1197 0.960 . S
H1202 C1197 0.961 . S
H1203 C1197 0.960 . S
H1204 C1200 0.960 . S
H1205 C1200 0.960 . S
H1206 C1200 0.959 . S
C1207 N1208 1.317 . S
C1207 N1209 1.348 1_554 S
C1207 C1210 1.485 . S
N1208 C1207 1.317 . S
N1208 N1212 1.362 1_554 S
N1209 C1207 1.348 1_556 S
N1209 C1211 1.346 . S
C1210 C1207 1.485 . S
C1210 H1214 0.960 . S
C1210 H1215 0.961 . S
C1210 H1216 0.960 . S
C1211 N1209 1.346 . S
C1211 N1212 1.321 . S
C1211 C1213 1.486 . S
N1212 N1208 1.362 1_556 S
N1212 C1211 1.321 . S
C1213 C1211 1.486 . S
C1213 H1217 0.960 . S
C1213 H1218 0.960 . S
C1213 H1219 0.959 . S
H1214 C1210 0.960 . S
H1215 C1210 0.961 . S
H1216 C1210 0.960 . S
H1217 C1213 0.960 . S
H1218 C1213 0.960 . S
H1219 C1213 0.959 . S
C1220 N1221 1.317 . S
C1220 N1222 1.348 . S
C1220 C1223 1.485 . S
N1221 C1220 1.317 . S
N1221 N1225 1.370 . S
N1222 C1220 1.348 . S
N1222 C1224 1.346 . S
C1223 C1220 1.485 . S
C1223 H1227 0.960 . S
C1223 H1228 0.961 . S
C1223 H1229 0.960 . S
C1224 N1222 1.346 . S
C1224 N1225 1.307 . S
C1224 C1226 1.486 . S
N1225 N1221 1.370 . S
N1225 C1224 1.307 . S
C1226 C1224 1.486 . S
C1226 H1230 0.960 . S
C1226 H1231 0.960 . S
C1226 H1232 0.959 . S
H1227 C1223 0.960 . S
H1228 C1223 0.961 . S
H1229 C1223 0.960 . S
H1230 C1226 0.960 . S
H1231 C1226 0.960 . S
H1232 C1226 0.959 . S
C1233 N1234 1.317 . S
C1233 N1235 1.348 . S
C1233 C1236 1.485 . S
N1234 C1233 1.317 . S
N1234 N1238 1.370 1_545 S
N1235 C1233 1.348 . S
N1235 C1237 1.346 1_545 S
C1236 C1233 1.485 . S
C1236 H1240 0.960 . S
C1236 H1241 0.961 . S
C1236 H1242 0.960 . S
C1237 N1235 1.346 1_565 S
C1237 N1238 1.307 . S
C1237 C1239 1.486 . S
N1238 N1234 1.370 1_565 S
N1238 C1237 1.307 . S
C1239 C1237 1.486 . S
C1239 H1243 0.960 . S
C1239 H1244 0.960 . S
C1239 H1245 0.959 . S
H1240 C1236 0.960 . S
H1241 C1236 0.961 . S
H1242 C1236 0.960 . S
H1243 C1239 0.960 . S
H1244 C1239 0.960 . S
H1245 C1239 0.959 . S
C1246 N1247 1.317 . S
C1246 N1248 1.348 . S
C1246 C1249 1.485 . S
N1247 C1246 1.317 . S
N1247 N1251 1.370 1_565 S
N1248 C1246 1.348 . S
N1248 C1250 1.346 1_565 S
C1249 C1246 1.485 . S
C1249 H1253 0.960 . S
C1249 H1254 0.961 . S
C1249 H1255 0.960 . S
C1250 N1248 1.346 1_545 S
C1250 N1251 1.307 . S
C1250 C1252 1.486 . S
N1251 N1247 1.370 1_545 S
N1251 C1250 1.307 . S
C1252 C1250 1.486 . S
C1252 H1256 0.960 . S
C1252 H1257 0.960 . S
C1252 H1258 0.959 . S
H1253 C1249 0.960 . S
H1254 C1249 0.961 . S
H1255 C1249 0.960 . S
H1256 C1252 0.960 . S
H1257 C1252 0.960 . S
H1258 C1252 0.959 . S
C1259 N1260 1.317 . S
C1259 N1261 1.348 1_455 S
C1259 C1262 1.485 . S
N1260 C1259 1.317 . S
N1260 N1264 1.362 1_455 S
N1261 C1259 1.348 1_655 S
N1261 C1263 1.346 . S
C1262 C1259 1.485 . S
C1262 H1266 0.960 . S
C1262 H1267 0.961 . S
C1262 H1268 0.960 . S
C1263 N1261 1.346 . S
C1263 N1264 1.321 . S
C1263 C1265 1.486 . S
N1264 N1260 1.362 1_655 S
N1264 C1263 1.321 . S
C1265 C1263 1.486 . S
C1265 H1269 0.960 . S
C1265 H1270 0.960 . S
C1265 H1271 0.959 . S
H1266 C1262 0.960 . S
H1267 C1262 0.961 . S
H1268 C1262 0.960 . S
H1269 C1265 0.960 . S
H1270 C1265 0.960 . S
H1271 C1265 0.959 . S
H1272 C1290 0.951 . S
H1273 C1292 0.951 . S
H1274 C1294 0.950 . S
H1275 C1295 0.950 . S
H1276 C1297 0.950 . S
H1277 C1300 0.950 . S
H1278 C1301 0.950 . S
H1279 C1303 0.950 . S
H1280 C1304 0.950 . S
H1281 C1305 0.951 . S
H1282 C1307 0.951 . S
H1283 C1309 0.950 . S
H1284 C1310 0.950 . S
H1285 C1312 0.950 . S
H1286 C1315 0.950 . S
H1287 C1316 0.950 . S
H1288 C1318 0.950 . S
H1289 C1319 0.950 . S
C1290 H1272 0.951 . S
C1290 C1291 1.366 . S
C1290 C1292 1.388 . S
C1291 C1290 1.366 . S
C1291 C1295 1.385 . S
C1292 H1273 0.951 . S
C1292 C1290 1.388 . S
C1292 C1293 1.366 . S
C1293 C1292 1.366 . S
C1293 C1294 1.414 . S
C1293 C1296 1.499 . S
C1294 H1274 0.950 . S
C1294 C1293 1.414 . S
C1294 C1295 1.374 . S
C1295 H1275 0.950 . S
C1295 C1291 1.385 . S
C1295 C1294 1.374 . S
C1296 C1293 1.499 . S
C1296 C1297 1.373 . S
C1296 C1298 1.389 . S
C1297 H1276 0.950 . S
C1297 C1296 1.373 . S
C1297 C1313 1.377 . S
C1298 C1296 1.389 . S
C1298 C1299 1.524 . S
C1298 C1312 1.377 . S
C1299 C1298 1.524 . S
C1299 C1300 1.397 . S
C1299 C1304 1.363 . S
C1300 H1277 0.950 . S
C1300 C1299 1.397 . S
C1300 C1301 1.334 . S
C1301 H1278 0.950 . S
C1301 C1300 1.334 . S
C1301 C1302 1.287 . S
C1302 C1301 1.287 . S
C1302 C1303 1.524 . S
C1302 H1321 0.913 . S
C1303 H1279 0.950 . S
C1303 C1302 1.524 . S
C1303 C1304 1.415 . S
C1304 H1280 0.950 . S
C1304 C1299 1.363 . S
C1304 C1303 1.415 . S
C1305 H1281 0.951 . S
C1305 C1306 1.366 . S
C1305 C1307 1.388 . S
C1306 C1305 1.366 . S
C1306 C1310 1.385 . S
C1307 H1282 0.951 . S
C1307 C1305 1.388 . S
C1307 C1308 1.366 . S
C1308 C1307 1.366 . S
C1308 C1309 1.414 . S
C1308 C1311 1.499 . S
C1309 H1283 0.950 . S
C1309 C1308 1.414 . S
C1309 C1310 1.374 . S
C1310 H1284 0.950 . S
C1310 C1306 1.385 . S
C1310 C1309 1.374 . S
C1311 C1308 1.499 . S
C1311 C1312 1.373 . S
C1311 C1313 1.389 . S
C1312 H1285 0.950 . S
C1312 C1298 1.377 . S
C1312 C1311 1.373 . S
C1313 C1297 1.377 . S
C1313 C1311 1.389 . S
C1313 C1314 1.524 . S
C1314 C1313 1.524 . S
C1314 C1315 1.397 . S
C1314 C1319 1.363 . S
C1315 H1286 0.950 . S
C1315 C1314 1.397 . S
C1315 C1316 1.334 . S
C1316 H1287 0.950 . S
C1316 C1315 1.334 . S
C1316 C1317 1.287 . S
C1317 C1316 1.287 . S
C1317 C1318 1.524 . S
C1317 H1320 0.999 . S
C1318 H1288 0.950 . S
C1318 C1317 1.524 . S
C1318 C1319 1.415 . S
C1319 H1289 0.950 . S
C1319 C1314 1.363 . S
C1319 C1318 1.415 . S
H1320 C1317 0.999 . S
H1321 C1302 0.913 . S
H1322 C1340 0.951 . S
H1323 C1342 0.951 . S
H1324 C1344 0.950 . S
H1325 C1345 0.950 . S
H1326 C1347 0.950 . S
H1327 C1350 0.950 . S
H1328 C1351 0.950 . S
H1329 C1353 0.950 . S
H1330 C1354 0.950 . S
H1331 C1355 0.951 . S
H1332 C1357 0.951 . S
H1333 C1359 0.950 . S
H1334 C1360 0.950 . S
H1335 C1362 0.950 . S
H1336 C1365 0.950 . S
H1337 C1366 0.950 . S
H1338 C1368 0.950 . S
H1339 C1369 0.950 . S
C1340 H1322 0.951 . S
C1340 C1341 1.366 . S
C1340 C1342 1.388 . S
C1341 C1340 1.366 . S
C1341 C1345 1.385 . S
C1342 H1323 0.951 . S
C1342 C1340 1.388 . S
C1342 C1343 1.366 . S
C1343 C1342 1.366 . S
C1343 C1344 1.414 . S
C1343 C1346 1.499 . S
C1344 H1324 0.950 . S
C1344 C1343 1.414 . S
C1344 C1345 1.374 . S
C1345 H1325 0.950 . S
C1345 C1341 1.385 . S
C1345 C1344 1.374 . S
C1346 C1343 1.499 . S
C1346 C1347 1.373 . S
C1346 C1348 1.389 . S
C1347 H1326 0.950 . S
C1347 C1346 1.373 . S
C1347 C1363 1.377 . S
C1348 C1346 1.389 . S
C1348 C1349 1.524 . S
C1348 C1362 1.377 . S
C1349 C1348 1.524 . S
C1349 C1350 1.397 . S
C1349 C1354 1.363 . S
C1350 H1327 0.950 . S
C1350 C1349 1.397 . S
C1350 C1351 1.334 . S
C1351 H1328 0.950 . S
C1351 C1350 1.334 . S
C1351 C1352 1.287 . S
C1352 C1351 1.287 . S
C1352 C1353 1.524 . S
C1352 H1371 0.913 . S
C1353 H1329 0.950 . S
C1353 C1352 1.524 . S
C1353 C1354 1.415 . S
C1354 H1330 0.950 . S
C1354 C1349 1.363 . S
C1354 C1353 1.415 . S
C1355 H1331 0.951 . S
C1355 C1356 1.366 . S
C1355 C1357 1.388 . S
C1356 C1355 1.366 . S
C1356 C1360 1.385 . S
C1357 H1332 0.951 . S
C1357 C1355 1.388 . S
C1357 C1358 1.366 . S
C1358 C1357 1.366 . S
C1358 C1359 1.414 . S
C1358 C1361 1.499 . S
C1359 H1333 0.950 . S
C1359 C1358 1.414 . S
C1359 C1360 1.374 . S
C1360 H1334 0.950 . S
C1360 C1356 1.385 . S
C1360 C1359 1.374 . S
C1361 C1358 1.499 . S
C1361 C1362 1.373 . S
C1361 C1363 1.389 . S
C1362 H1335 0.950 . S
C1362 C1348 1.377 . S
C1362 C1361 1.373 . S
C1363 C1347 1.377 . S
C1363 C1361 1.389 . S
C1363 C1364 1.524 . S
C1364 C1363 1.524 . S
C1364 C1365 1.397 . S
C1364 C1369 1.363 . S
C1365 H1336 0.950 . S
C1365 C1364 1.397 . S
C1365 C1366 1.334 . S
C1366 H1337 0.950 . S
C1366 C1365 1.334 . S
C1366 C1367 1.287 . S
C1367 C1366 1.287 . S
C1367 C1368 1.524 . S
C1367 H1370 0.999 . S
C1368 H1338 0.950 . S
C1368 C1367 1.524 . S
C1368 C1369 1.415 . S
C1369 H1339 0.950 . S
C1369 C1364 1.363 . S
C1369 C1368 1.415 . S
H1370 C1367 0.999 . S
H1371 C1352 0.913 . S
H1372 C1390 0.951 . S
H1373 C1392 0.951 . S
H1374 C1394 0.950 . S
H1375 C1395 0.950 . S
H1376 C1397 0.950 . S
H1377 C1400 0.950 . S
H1378 C1401 0.950 . S
H1379 C1403 0.950 . S
H1380 C1404 0.950 1_565 S
H1381 C1405 0.951 1_545 S
H1382 C1407 0.940 1_545 S
H1383 C1409 0.950 . S
H1384 C1410 0.950 . S
H1385 C1412 0.971 . S
H1386 C1415 0.950 . S
H1387 C1416 0.950 . S
H1388 C1418 0.950 . S
H1389 C1419 0.950 . S
C1390 H1372 0.951 . S
C1390 C1391 1.362 1_565 S
C1390 C1392 1.388 . S
C1391 C1390 1.362 1_545 S
C1391 C1395 1.389 . S
C1392 H1373 0.951 . S
C1392 C1390 1.388 . S
C1392 C1393 1.386 . S
C1393 C1392 1.386 . S
C1393 C1394 1.400 1_565 S
C1393 C1396 1.499 . S
C1394 H1374 0.950 . S
C1394 C1393 1.400 1_545 S
C1394 C1395 1.374 . S
C1395 H1375 0.950 . S
C1395 C1391 1.389 . S
C1395 C1394 1.374 . S
C1396 C1393 1.499 . S
C1396 C1397 1.373 . S
C1396 C1398 1.389 1_565 S
C1397 H1376 0.950 . S
C1397 C1396 1.373 . S
C1397 C1413 1.377 . S
C1398 C1396 1.389 1_545 S
C1398 C1399 1.524 . S
C1398 C1412 1.380 . S
C1399 C1398 1.524 . S
C1399 C1400 1.397 . S
C1399 C1404 1.363 . S
C1400 H1377 0.950 . S
C1400 C1399 1.397 . S
C1400 C1401 1.334 . S
C1401 H1378 0.950 . S
C1401 C1400 1.334 . S
C1401 C1402 1.287 . S
C1402 C1401 1.287 . S
C1402 C1403 1.524 . S
C1402 H1421 0.913 . S
C1403 H1379 0.950 . S
C1403 C1402 1.524 . S
C1403 C1404 1.415 . S
C1404 H1380 0.950 1_545 S
C1404 C1399 1.363 . S
C1404 C1403 1.415 . S
C1405 H1381 0.951 1_565 S
C1405 C1406 1.366 . S
C1405 C1407 1.387 . S
C1406 C1405 1.366 . S
C1406 C1410 1.385 . S
C1407 H1382 0.940 1_565 S
C1407 C1405 1.387 . S
C1407 C1408 1.379 . S
C1408 C1407 1.379 . S
C1408 C1409 1.414 . S
C1408 C1411 1.499 . S
C1409 H1383 0.950 . S
C1409 C1408 1.414 . S
C1409 C1410 1.374 . S
C1410 H1384 0.950 . S
C1410 C1406 1.385 . S
C1410 C1409 1.374 . S
C1411 C1408 1.499 . S
C1411 C1412 1.351 1_565 S
C1411 C1413 1.389 . S
C1412 H1385 0.971 . S
C1412 C1398 1.380 . S
C1412 C1411 1.351 1_545 S
C1413 C1397 1.377 . S
C1413 C1411 1.389 . S
C1413 C1414 1.524 . S
C1414 C1413 1.524 . S
C1414 C1415 1.397 . S
C1414 C1419 1.363 . S
C1415 H1386 0.950 . S
C1415 C1414 1.397 . S
C1415 C1416 1.334 . S
C1416 H1387 0.950 . S
C1416 C1415 1.334 . S
C1416 C1417 1.287 . S
C1417 C1416 1.287 . S
C1417 C1418 1.524 . S
C1417 H1420 0.999 . S
C1418 H1388 0.950 . S
C1418 C1417 1.524 . S
C1418 C1419 1.415 . S
C1419 H1389 0.950 . S
C1419 C1414 1.363 . S
C1419 C1418 1.415 . S
H1420 C1417 0.999 . S
H1421 C1402 0.913 . S
H1422 C1440 0.951 1_565 S
H1423 C1442 0.951 1_565 S
H1424 C1444 0.950 . S
H1425 C1445 0.950 . S
H1426 C1447 0.950 1_655 S
H1427 C1450 0.950 . S
H1428 C1451 0.950 . S
H1429 C1453 0.950 . S
H1430 C1454 0.950 . S
H1431 C1455 0.951 . S
H1432 C1457 0.951 . S
H1433 C1459 0.950 . S
H1434 C1460 0.950 . S
H1435 C1462 0.950 . S
H1436 C1465 0.950 . S
H1437 C1466 0.950 . S
H1438 C1468 0.950 . S
H1439 C1469 0.950 . S
C1440 H1422 0.951 1_545 S
C1440 C1441 1.366 . S
C1440 C1442 1.388 . S
C1441 C1440 1.366 . S
C1441 C1445 1.385 . S
C1442 H1423 0.951 1_545 S
C1442 C1440 1.388 . S
C1442 C1443 1.366 . S
C1443 C1442 1.366 . S
C1443 C1444 1.414 . S
C1443 C1446 1.499 . S
C1444 H1424 0.950 . S
C1444 C1443 1.414 . S
C1444 C1445 1.374 . S
C1445 H1425 0.950 . S
C1445 C1441 1.385 . S
C1445 C1444 1.374 . S
C1446 C1443 1.499 . S
C1446 C1447 1.373 1_655 S
C1446 C1448 1.389 1_655 S
C1447 H1426 0.950 1_455 S
C1447 C1446 1.373 1_455 S
C1447 C1463 1.377 . S
C1448 C1446 1.389 1_455 S
C1448 C1449 1.524 . S
C1448 C1462 1.377 . S
C1449 C1448 1.524 . S
C1449 C1450 1.397 1_455 S
C1449 C1454 1.363 1_545 S
C1450 H1427 0.950 . S
C1450 C1449 1.397 1_655 S
C1450 C1451 1.334 . S
C1451 H1428 0.950 . S
C1451 C1450 1.334 . S
C1451 C1452 1.287 . S
C1452 C1451 1.287 . S
C1452 C1453 1.524 1_645 S
C1452 H1471 0.913 . S
C1453 H1429 0.950 . S
C1453 C1452 1.524 1_465 S
C1453 C1454 1.415 . S
C1454 H1430 0.950 . S
C1454 C1449 1.363 1_565 S
C1454 C1453 1.415 . S
C1455 H1431 0.951 . S
C1455 C1456 1.366 . S
C1455 C1457 1.388 . S
C1456 C1455 1.366 . S
C1456 C1460 1.385 1_545 S
C1457 H1432 0.951 . S
C1457 C1455 1.388 . S
C1457 C1458 1.366 . S
C1458 C1457 1.366 . S
C1458 C1459 1.414 1_545 S
C1458 C1461 1.499 . S
C1459 H1433 0.950 . S
C1459 C1458 1.414 1_565 S
C1459 C1460 1.374 . S
C1460 H1434 0.950 . S
C1460 C1456 1.385 1_565 S
C1460 C1459 1.374 . S
C1461 C1458 1.499 . S
C1461 C1462 1.373 . S
C1461 C1463 1.389 . S
C1462 H1435 0.950 . S
C1462 C1448 1.377 . S
C1462 C1461 1.373 . S
C1463 C1447 1.377 . S
C1463 C1461 1.389 . S
C1463 C1464 1.524 . S
C1464 C1463 1.524 . S
C1464 C1465 1.397 1_545 S
C1464 C1469 1.363 . S
C1465 H1436 0.950 . S
C1465 C1464 1.397 1_565 S
C1465 C1466 1.334 . S
C1466 H1437 0.950 . S
C1466 C1465 1.334 . S
C1466 C1467 1.287 1_565 S
C1467 C1466 1.287 1_545 S
C1467 C1468 1.524 . S
C1467 H1470 0.999 . S
C1468 H1438 0.950 . S
C1468 C1467 1.524 . S
C1468 C1469 1.415 . S
C1469 H1439 0.950 . S
C1469 C1464 1.363 . S
C1469 C1468 1.415 . S
H1470 C1467 0.999 . S
H1471 C1452 0.913 . S
H1472 C1490 0.951 . S
H1473 C1492 0.951 . S
H1474 C1494 0.950 . S
H1475 C1495 0.950 . S
H1476 C1497 0.950 . S
H1477 C1500 0.950 . S
H1478 C1501 0.950 . S
H1479 C1503 0.950 . S
H1480 C1504 0.950 . S
H1481 C1505 0.951 . S
H1482 C1507 0.951 . S
H1483 C1509 0.950 . S
H1484 C1510 0.950 . S
H1485 C1512 0.950 . S
H1486 C1515 0.950 . S
H1487 C1516 0.950 . S
H1488 C1518 0.950 . S
H1489 C1519 0.950 . S
C1490 H1472 0.951 . S
C1490 C1491 1.366 . S
C1490 C1492 1.388 . S
C1491 C1490 1.366 . S
C1491 C1495 1.385 . S
C1492 H1473 0.951 . S
C1492 C1490 1.388 . S
C1492 C1493 1.366 . S
C1493 C1492 1.366 . S
C1493 C1494 1.414 . S
C1493 C1496 1.499 . S
C1494 H1474 0.950 . S
C1494 C1493 1.414 . S
C1494 C1495 1.374 . S
C1495 H1475 0.950 . S
C1495 C1491 1.385 . S
C1495 C1494 1.374 . S
C1496 C1493 1.499 . S
C1496 C1497 1.373 . S
C1496 C1498 1.389 . S
C1497 H1476 0.950 . S
C1497 C1496 1.373 . S
C1497 C1513 1.377 . S
C1498 C1496 1.389 . S
C1498 C1499 1.524 . S
C1498 C1512 1.377 . S
C1499 C1498 1.524 . S
C1499 C1500 1.397 . S
C1499 C1504 1.363 . S
C1500 H1477 0.950 . S
C1500 C1499 1.397 . S
C1500 C1501 1.334 . S
C1501 H1478 0.950 . S
C1501 C1500 1.334 . S
C1501 C1502 1.287 . S
C1502 C1501 1.287 . S
C1502 C1503 1.524 . S
C1502 H1521 0.913 . S
C1503 H1479 0.950 . S
C1503 C1502 1.524 . S
C1503 C1504 1.415 . S
C1504 H1480 0.950 . S
C1504 C1499 1.363 . S
C1504 C1503 1.415 . S
C1505 H1481 0.951 . S
C1505 C1506 1.366 . S
C1505 C1507 1.388 . S
C1506 C1505 1.366 . S
C1506 C1510 1.385 . S
C1507 H1482 0.951 . S
C1507 C1505 1.388 . S
C1507 C1508 1.366 . S
C1508 C1507 1.366 . S
C1508 C1509 1.414 . S
C1508 C1511 1.499 . S
C1509 H1483 0.950 . S
C1509 C1508 1.414 . S
C1509 C1510 1.374 . S
C1510 H1484 0.950 . S
C1510 C1506 1.385 . S
C1510 C1509 1.374 . S
C1511 C1508 1.499 . S
C1511 C1512 1.373 . S
C1511 C1513 1.389 . S
C1512 H1485 0.950 . S
C1512 C1498 1.377 . S
C1512 C1511 1.373 . S
C1513 C1497 1.377 . S
C1513 C1511 1.389 . S
C1513 C1514 1.524 . S
C1514 C1513 1.524 . S
C1514 C1515 1.397 . S
C1514 C1519 1.363 . S
C1515 H1486 0.950 . S
C1515 C1514 1.397 . S
C1515 C1516 1.334 . S
C1516 H1487 0.950 . S
C1516 C1515 1.334 . S
C1516 C1517 1.287 . S
C1517 C1516 1.287 . S
C1517 C1518 1.524 . S
C1517 H1520 0.999 . S
C1518 H1488 0.950 . S
C1518 C1517 1.524 . S
C1518 C1519 1.415 . S
C1519 H1489 0.950 . S
C1519 C1514 1.363 . S
C1519 C1518 1.415 . S
H1520 C1517 0.999 . S
H1521 C1502 0.913 . S
H1522 C1540 0.951 1_556 S
H1523 C1542 0.951 1_556 S
H1524 C1544 0.950 . S
H1525 C1545 0.950 . S
H1526 C1547 0.950 1_565 S
H1527 C1550 0.961 . S
H1528 C1551 0.950 . S
H1529 C1553 0.936 1_556 S
H1530 C1554 0.950 1_556 S
H1531 C1555 0.951 . S
H1532 C1557 0.951 . S
H1533 C1559 0.950 . S
H1534 C1560 0.950 . S
H1535 C1562 0.950 . S
H1536 C1565 0.950 . S
H1537 C1566 0.950 . S
H1538 C1568 0.950 . S
H1539 C1569 0.950 . S
C1540 H1522 0.951 1_554 S
C1540 C1541 1.366 . S
C1540 C1542 1.388 . S
C1541 C1540 1.366 . S
C1541 C1545 1.385 . S
C1542 H1523 0.951 1_554 S
C1542 C1540 1.388 . S
C1542 C1543 1.366 . S
C1543 C1542 1.366 . S
C1543 C1544 1.414 . S
C1543 C1546 1.499 . S
C1544 H1524 0.950 . S
C1544 C1543 1.414 . S
C1544 C1545 1.374 . S
C1545 H1525 0.950 . S
C1545 C1541 1.385 . S
C1545 C1544 1.374 . S
C1546 C1543 1.499 . S
C1546 C1547 1.373 1_565 S
C1546 C1548 1.389 1_565 S
C1547 H1526 0.950 1_545 S
C1547 C1546 1.373 1_545 S
C1547 C1563 1.377 . S
C1548 C1546 1.389 1_545 S
C1548 C1549 1.524 . S
C1548 C1562 1.377 . S
C1549 C1548 1.524 . S
C1549 C1550 1.368 1_545 S
C1549 C1554 1.363 . S
C1550 H1527 0.961 . S
C1550 C1549 1.368 1_565 S
C1550 C1551 1.355 . S
C1551 H1528 0.950 . S
C1551 C1550 1.355 . S
C1551 C1552 1.292 . S
C1552 C1551 1.292 . S
C1552 C1553 1.513 1_565 S
C1552 H1571 0.922 . S
C1553 H1529 0.936 1_554 S
C1553 C1552 1.513 1_545 S
C1553 C1554 1.415 . S
C1554 H1530 0.950 1_554 S
C1554 C1549 1.363 . S
C1554 C1553 1.415 . S
C1555 H1531 0.951 . S
C1555 C1556 1.366 . S
C1555 C1557 1.388 . S
C1556 C1555 1.366 . S
C1556 C1560 1.385 1_554 S
C1557 H1532 0.951 . S
C1557 C1555 1.388 . S
C1557 C1558 1.366 . S
C1558 C1557 1.366 . S
C1558 C1559 1.414 1_554 S
C1558 C1561 1.499 . S
C1559 H1533 0.950 . S
C1559 C1558 1.414 1_556 S
C1559 C1560 1.374 . S
C1560 H1534 0.950 . S
C1560 C1556 1.385 1_556 S
C1560 C1559 1.374 . S
C1561 C1558 1.499 . S
C1561 C1562 1.373 . S
C1561 C1563 1.389 . S
C1562 H1535 0.950 . S
C1562 C1548 1.377 . S
C1562 C1561 1.373 . S
C1563 C1547 1.377 . S
C1563 C1561 1.389 . S
C1563 C1564 1.524 . S
C1564 C1563 1.524 . S
C1564 C1565 1.397 1_554 S
C1564 C1569 1.363 . S
C1565 H1536 0.950 . S
C1565 C1564 1.397 1_556 S
C1565 C1566 1.334 . S
C1566 H1537 0.950 . S
C1566 C1565 1.334 . S
C1566 C1567 1.308 . S
C1567 C1566 1.308 . S
C1567 C1568 1.498 1_556 S
C1567 H1570 1.002 . S
C1568 H1538 0.950 . S
C1568 C1567 1.498 1_554 S
C1568 C1569 1.415 . S
C1569 H1539 0.950 . S
C1569 C1564 1.363 . S
C1569 C1568 1.415 . S
H1570 C1567 1.002 . S
H1571 C1552 0.922 . S
H1572 C1590 0.951 . S
H1573 C1592 0.951 . S
H1574 C1594 0.950 . S
H1575 C1595 0.950 . S
H1576 C1597 0.950 . S
H1577 C1600 0.950 . S
H1578 C1601 0.950 . S
H1579 C1603 0.950 . S
H1580 C1604 0.950 . S
H1581 C1605 0.951 . S
H1582 C1607 0.951 . S
H1583 C1609 0.950 . S
H1584 C1610 0.950 . S
H1585 C1612 0.950 . S
H1586 C1615 0.950 . S
H1587 C1616 0.950 . S
H1588 C1618 0.950 . S
H1589 C1619 0.950 . S
C1590 H1572 0.951 . S
C1590 C1591 1.366 . S
C1590 C1592 1.388 . S
C1591 C1590 1.366 . S
C1591 C1595 1.385 . S
C1592 H1573 0.951 . S
C1592 C1590 1.388 . S
C1592 C1593 1.366 . S
C1593 C1592 1.366 . S
C1593 C1594 1.414 . S
C1593 C1596 1.499 . S
C1594 H1574 0.950 . S
C1594 C1593 1.414 . S
C1594 C1595 1.374 . S
C1595 H1575 0.950 . S
C1595 C1591 1.385 . S
C1595 C1594 1.374 . S
C1596 C1593 1.499 . S
C1596 C1597 1.373 . S
C1596 C1598 1.389 . S
C1597 H1576 0.950 . S
C1597 C1596 1.373 . S
C1597 C1613 1.377 . S
C1598 C1596 1.389 . S
C1598 C1599 1.524 . S
C1598 C1612 1.377 . S
C1599 C1598 1.524 . S
C1599 C1600 1.397 . S
C1599 C1604 1.363 . S
C1600 H1577 0.950 . S
C1600 C1599 1.397 . S
C1600 C1601 1.334 . S
C1601 H1578 0.950 . S
C1601 C1600 1.334 . S
C1601 C1602 1.287 . S
C1602 C1601 1.287 . S
C1602 C1603 1.524 . S
C1602 H1621 0.913 . S
C1603 H1579 0.950 . S
C1603 C1602 1.524 . S
C1603 C1604 1.415 . S
C1604 H1580 0.950 . S
C1604 C1599 1.363 . S
C1604 C1603 1.415 . S
C1605 H1581 0.951 . S
C1605 C1606 1.366 . S
C1605 C1607 1.388 . S
C1606 C1605 1.366 . S
C1606 C1610 1.385 . S
C1607 H1582 0.951 . S
C1607 C1605 1.388 . S
C1607 C1608 1.366 . S
C1608 C1607 1.366 . S
C1608 C1609 1.414 . S
C1608 C1611 1.499 . S
C1609 H1583 0.950 . S
C1609 C1608 1.414 . S
C1609 C1610 1.374 . S
C1610 H1584 0.950 . S
C1610 C1606 1.385 . S
C1610 C1609 1.374 . S
C1611 C1608 1.499 . S
C1611 C1612 1.373 . S
C1611 C1613 1.389 . S
C1612 H1585 0.950 . S
C1612 C1598 1.377 . S
C1612 C1611 1.373 . S
C1613 C1597 1.377 . S
C1613 C1611 1.389 . S
C1613 C1614 1.524 . S
C1614 C1613 1.524 . S
C1614 C1615 1.397 . S
C1614 C1619 1.363 . S
C1615 H1586 0.950 . S
C1615 C1614 1.397 . S
C1615 C1616 1.334 . S
C1616 H1587 0.950 . S
C1616 C1615 1.334 . S
C1616 C1617 1.287 . S
C1617 C1616 1.287 . S
C1617 C1618 1.524 . S
C1617 H1620 0.999 . S
C1618 H1588 0.950 . S
C1618 C1617 1.524 . S
C1618 C1619 1.415 . S
C1619 H1589 0.950 . S
C1619 C1614 1.363 . S
C1619 C1618 1.415 . S
H1620 C1617 0.999 . S
H1621 C1602 0.913 . S
H1622 C1640 0.951 . S
H1623 C1642 0.951 . S
H1624 C1644 0.950 . S
H1625 C1645 0.950 . S
H1626 C1647 0.950 . S
H1627 C1650 0.950 . S
H1628 C1651 0.950 . S
H1629 C1653 0.950 . S
H1630 C1654 0.950 . S
H1631 C1655 0.933 1_554 S
H1632 C1657 0.984 . S
H1633 C1659 0.950 . S
H1634 C1660 0.950 . S
H1635 C1662 0.950 . S
H1636 C1665 0.950 . S
H1637 C1666 0.950 . S
H1638 C1668 0.950 . S
H1639 C1669 0.950 . S
C1640 H1622 0.951 . S
C1640 C1641 1.355 1_556 S
C1640 C1642 1.388 . S
C1641 C1640 1.355 1_554 S
C1641 C1645 1.395 . S
C1642 H1623 0.951 . S
C1642 C1640 1.388 . S
C1642 C1643 1.366 . S
C1643 C1642 1.366 . S
C1643 C1644 1.414 1_556 S
C1643 C1646 1.499 . S
C1644 H1624 0.950 . S
C1644 C1643 1.414 1_554 S
C1644 C1645 1.374 . S
C1645 H1625 0.950 . S
C1645 C1641 1.395 . S
C1645 C1644 1.374 . S
C1646 C1643 1.499 . S
C1646 C1647 1.373 1_556 S
C1646 C1648 1.389 . S
C1647 H1626 0.950 . S
C1647 C1646 1.373 1_554 S
C1647 C1663 1.377 . S
C1648 C1646 1.389 . S
C1648 C1649 1.524 . S
C1648 C1662 1.377 . S
C1649 C1648 1.524 . S
C1649 C1650 1.397 . S
C1649 C1654 1.363 . S
C1650 H1627 0.950 . S
C1650 C1649 1.397 . S
C1650 C1651 1.334 . S
C1651 H1628 0.950 . S
C1651 C1650 1.334 . S
C1651 C1652 1.287 . S
C1652 C1651 1.287 . S
C1652 C1653 1.524 . S
C1652 H1671 0.913 . S
C1653 H1629 0.950 . S
C1653 C1652 1.524 . S
C1653 C1654 1.415 . S
C1654 H1630 0.950 . S
C1654 C1649 1.363 . S
C1654 C1653 1.415 . S
C1655 H1631 0.933 1_556 S
C1655 C1656 1.385 . S
C1655 C1657 1.390 1_556 S
C1656 C1655 1.385 . S
C1656 C1660 1.385 . S
C1657 H1632 0.984 . S
C1657 C1655 1.390 1_554 S
C1657 C1658 1.336 1_554 S
C1658 C1657 1.336 1_556 S
C1658 C1659 1.414 . S
C1658 C1661 1.499 . S
C1659 H1633 0.950 . S
C1659 C1658 1.414 . S
C1659 C1660 1.374 . S
C1660 H1634 0.950 . S
C1660 C1656 1.385 . S
C1660 C1659 1.374 . S
C1661 C1658 1.499 . S
C1661 C1662 1.373 . S
C1661 C1663 1.389 1_556 S
C1662 H1635 0.950 . S
C1662 C1648 1.377 . S
C1662 C1661 1.373 . S
C1663 C1647 1.377 . S
C1663 C1661 1.389 1_554 S
C1663 C1664 1.524 . S
C1664 C1663 1.524 . S
C1664 C1665 1.397 . S
C1664 C1669 1.363 . S
C1665 H1636 0.950 . S
C1665 C1664 1.397 . S
C1665 C1666 1.334 . S
C1666 H1637 0.950 . S
C1666 C1665 1.334 . S
C1666 C1667 1.287 . S
C1667 C1666 1.287 . S
C1667 C1668 1.524 . S
C1667 H1670 0.999 . S
C1668 H1638 0.950 . S
C1668 C1667 1.524 . S
C1668 C1669 1.415 . S
C1669 H1639 0.950 . S
C1669 C1664 1.363 . S
C1669 C1668 1.415 . S
H1670 C1667 0.999 . S
H1671 C1652 0.913 . S
H1672 C1690 0.951 . S
H1673 C1692 0.951 . S
H1674 C1694 0.950 . S
H1675 C1695 0.950 . S
H1676 C1697 0.950 . S
H1677 C1700 0.950 . S
H1678 C1701 0.950 . S
H1679 C1703 0.950 . S
H1680 C1704 0.950 . S
H1681 C1705 0.951 . S
H1682 C1707 0.951 . S
H1683 C1709 0.950 . S
H1684 C1710 0.950 . S
H1685 C1712 0.950 . S
H1686 C1715 0.950 . S
H1687 C1716 0.950 . S
H1688 C1718 0.950 . S
H1689 C1719 0.950 . S
C1690 H1672 0.951 . S
C1690 C1691 1.366 . S
C1690 C1692 1.388 . S
C1691 C1690 1.366 . S
C1691 C1695 1.385 . S
C1692 H1673 0.951 . S
C1692 C1690 1.388 . S
C1692 C1693 1.366 . S
C1693 C1692 1.366 . S
C1693 C1694 1.414 . S
C1693 C1696 1.499 . S
C1694 H1674 0.950 . S
C1694 C1693 1.414 . S
C1694 C1695 1.374 . S
C1695 H1675 0.950 . S
C1695 C1691 1.385 . S
C1695 C1694 1.374 . S
C1696 C1693 1.499 . S
C1696 C1697 1.373 . S
C1696 C1698 1.389 . S
C1697 H1676 0.950 . S
C1697 C1696 1.373 . S
C1697 C1713 1.377 . S
C1698 C1696 1.389 . S
C1698 C1699 1.524 . S
C1698 C1712 1.377 . S
C1699 C1698 1.524 . S
C1699 C1700 1.397 . S
C1699 C1704 1.363 . S
C1700 H1677 0.950 . S
C1700 C1699 1.397 . S
C1700 C1701 1.334 . S
C1701 H1678 0.950 . S
C1701 C1700 1.334 . S
C1701 C1702 1.287 . S
C1702 C1701 1.287 . S
C1702 C1703 1.524 . S
C1702 H1721 0.913 . S
C1703 H1679 0.950 . S
C1703 C1702 1.524 . S
C1703 C1704 1.415 . S
C1704 H1680 0.950 . S
C1704 C1699 1.363 . S
C1704 C1703 1.415 . S
C1705 H1681 0.951 . S
C1705 C1706 1.366 . S
C1705 C1707 1.388 . S
C1706 C1705 1.366 . S
C1706 C1710 1.385 . S
C1707 H1682 0.951 . S
C1707 C1705 1.388 . S
C1707 C1708 1.366 . S
C1708 C1707 1.366 . S
C1708 C1709 1.414 . S
C1708 C1711 1.499 . S
C1709 H1683 0.950 . S
C1709 C1708 1.414 . S
C1709 C1710 1.374 . S
C1710 H1684 0.950 . S
C1710 C1706 1.385 . S
C1710 C1709 1.374 . S
C1711 C1708 1.499 . S
C1711 C1712 1.373 . S
C1711 C1713 1.389 . S
C1712 H1685 0.950 . S
C1712 C1698 1.377 . S
C1712 C1711 1.373 . S
C1713 C1697 1.377 . S
C1713 C1711 1.389 . S
C1713 C1714 1.524 . S
C1714 C1713 1.524 . S
C1714 C1715 1.397 . S
C1714 C1719 1.363 . S
C1715 H1686 0.950 . S
C1715 C1714 1.397 . S
C1715 C1716 1.334 . S
C1716 H1687 0.950 . S
C1716 C1715 1.334 . S
C1716 C1717 1.287 . S
C1717 C1716 1.287 . S
C1717 C1718 1.524 . S
C1717 H1720 0.999 . S
C1718 H1688 0.950 . S
C1718 C1717 1.524 . S
C1718 C1719 1.415 . S
C1719 H1689 0.950 . S
C1719 C1714 1.363 . S
C1719 C1718 1.415 . S
H1720 C1717 0.999 . S
H1721 C1702 0.913 . S
H1722 C1740 0.951 . S
H1723 C1742 0.951 . S
H1724 C1744 0.950 . S
H1725 C1745 0.950 . S
H1726 C1747 0.950 . S
H1727 C1750 0.950 . S
H1728 C1751 0.950 . S
H1729 C1753 0.950 . S
H1730 C1754 0.953 1_554 S
H1731 C1755 0.951 . S
H1732 C1757 0.951 . S
H1733 C1759 0.950 . S
H1734 C1760 0.950 . S
H1735 C1762 0.950 . S
H1736 C1765 0.950 . S
H1737 C1766 0.950 . S
H1738 C1768 0.950 . S
H1739 C1769 0.950 . S
C1740 H1722 0.951 . S
C1740 C1741 1.366 . S
C1740 C1742 1.388 . S
C1741 C1740 1.366 . S
C1741 C1745 1.385 . S
C1742 H1723 0.951 . S
C1742 C1740 1.388 . S
C1742 C1743 1.366 . S
C1743 C1742 1.366 . S
C1743 C1744 1.414 . S
C1743 C1746 1.499 . S
C1744 H1724 0.950 . S
C1744 C1743 1.414 . S
C1744 C1745 1.374 . S
C1745 H1725 0.950 . S
C1745 C1741 1.385 . S
C1745 C1744 1.374 . S
C1746 C1743 1.499 . S
C1746 C1747 1.373 1_556 S
C1746 C1748 1.389 1_456 S
C1747 H1726 0.950 . S
C1747 C1746 1.373 1_554 S
C1747 C1763 1.377 . S
C1748 C1746 1.389 1_654 S
C1748 C1749 1.524 1_554 S
C1748 C1762 1.377 . S
C1749 C1748 1.524 1_556 S
C1749 C1750 1.397 . S
C1749 C1754 1.363 . S
C1750 H1727 0.950 . S
C1750 C1749 1.397 . S
C1750 C1751 1.334 . S
C1751 H1728 0.950 . S
C1751 C1750 1.334 . S
C1751 C1752 1.287 . S
C1752 C1751 1.287 . S
C1752 C1753 1.524 . S
C1752 H1771 0.913 . S
C1753 H1729 0.950 . S
C1753 C1752 1.524 . S
C1753 C1754 1.415 . S
C1754 H1730 0.953 1_556 S
C1754 C1749 1.363 . S
C1754 C1753 1.415 . S
C1755 H1731 0.951 . S
C1755 C1756 1.366 . S
C1755 C1757 1.388 . S
C1756 C1755 1.366 . S
C1756 C1760 1.385 . S
C1757 H1732 0.951 . S
C1757 C1755 1.388 . S
C1757 C1758 1.366 . S
C1758 C1757 1.366 . S
C1758 C1759 1.414 . S
C1758 C1761 1.499 . S
C1759 H1733 0.950 . S
C1759 C1758 1.414 . S
C1759 C1760 1.374 . S
C1760 H1734 0.950 . S
C1760 C1756 1.385 . S
C1760 C1759 1.374 . S
C1761 C1758 1.499 . S
C1761 C1762 1.373 1_455 S
C1761 C1763 1.389 . S
C1762 H1735 0.950 . S
C1762 C1748 1.377 . S
C1762 C1761 1.373 1_655 S
C1763 C1747 1.377 . S
C1763 C1761 1.389 . S
C1763 C1764 1.524 . S
C1764 C1763 1.524 . S
C1764 C1765 1.397 . S
C1764 C1769 1.363 . S
C1765 H1736 0.950 . S
C1765 C1764 1.397 . S
C1765 C1766 1.334 . S
C1766 H1737 0.950 . S
C1766 C1765 1.334 . S
C1766 C1767 1.287 . S
C1767 C1766 1.287 . S
C1767 C1768 1.524 . S
C1767 H1770 0.999 . S
C1768 H1738 0.950 . S
C1768 C1767 1.524 . S
C1768 C1769 1.415 . S
C1769 H1739 0.950 . S
C1769 C1764 1.363 . S
C1769 C1768 1.415 . S
H1770 C1767 0.999 . S
H1771 C1752 0.913 . S
H1772 C1790 0.951 . S
H1773 C1792 0.951 . S
H1774 C1794 0.950 . S
H1775 C1795 0.950 . S
H1776 C1797 0.950 . S
H1777 C1800 0.950 . S
H1778 C1801 0.950 . S
H1779 C1803 0.950 . S
H1780 C1804 0.950 . S
H1781 C1805 0.951 . S
H1782 C1807 0.951 . S
H1783 C1809 0.950 . S
H1784 C1810 0.950 . S
H1785 C1812 0.950 . S
H1786 C1815 0.950 . S
H1787 C1816 0.950 . S
H1788 C1818 0.950 . S
H1789 C1819 0.950 . S
C1790 H1772 0.951 . S
C1790 C1791 1.366 . S
C1790 C1792 1.388 . S
C1791 C1790 1.366 . S
C1791 C1795 1.385 . S
C1792 H1773 0.951 . S
C1792 C1790 1.388 . S
C1792 C1793 1.366 . S
C1793 C1792 1.366 . S
C1793 C1794 1.414 . S
C1793 C1796 1.499 . S
C1794 H1774 0.950 . S
C1794 C1793 1.414 . S
C1794 C1795 1.374 . S
C1795 H1775 0.950 . S
C1795 C1791 1.385 . S
C1795 C1794 1.374 . S
C1796 C1793 1.499 . S
C1796 C1797 1.373 . S
C1796 C1798 1.389 . S
C1797 H1776 0.950 . S
C1797 C1796 1.373 . S
C1797 C1813 1.377 . S
C1798 C1796 1.389 . S
C1798 C1799 1.524 . S
C1798 C1812 1.377 . S
C1799 C1798 1.524 . S
C1799 C1800 1.397 . S
C1799 C1804 1.363 . S
C1800 H1777 0.950 . S
C1800 C1799 1.397 . S
C1800 C1801 1.334 . S
C1801 H1778 0.950 . S
C1801 C1800 1.334 . S
C1801 C1802 1.287 . S
C1802 C1801 1.287 . S
C1802 C1803 1.524 . S
C1802 H1821 0.913 . S
C1803 H1779 0.950 . S
C1803 C1802 1.524 . S
C1803 C1804 1.415 . S
C1804 H1780 0.950 . S
C1804 C1799 1.363 . S
C1804 C1803 1.415 . S
C1805 H1781 0.951 . S
C1805 C1806 1.366 . S
C1805 C1807 1.388 . S
C1806 C1805 1.366 . S
C1806 C1810 1.385 . S
C1807 H1782 0.951 . S
C1807 C1805 1.388 . S
C1807 C1808 1.366 . S
C1808 C1807 1.366 . S
C1808 C1809 1.414 . S
C1808 C1811 1.499 . S
C1809 H1783 0.950 . S
C1809 C1808 1.414 . S
C1809 C1810 1.374 . S
C1810 H1784 0.950 . S
C1810 C1806 1.385 . S
C1810 C1809 1.374 . S
C1811 C1808 1.499 . S
C1811 C1812 1.373 . S
C1811 C1813 1.389 . S
C1812 H1785 0.950 . S
C1812 C1798 1.377 . S
C1812 C1811 1.373 . S
C1813 C1797 1.377 . S
C1813 C1811 1.389 . S
C1813 C1814 1.524 . S
C1814 C1813 1.524 . S
C1814 C1815 1.397 . S
C1814 C1819 1.363 . S
C1815 H1786 0.950 . S
C1815 C1814 1.397 . S
C1815 C1816 1.334 . S
C1816 H1787 0.950 . S
C1816 C1815 1.334 . S
C1816 C1817 1.287 . S
C1817 C1816 1.287 . S
C1817 C1818 1.524 . S
C1817 H1820 0.999 . S
C1818 H1788 0.950 . S
C1818 C1817 1.524 . S
C1818 C1819 1.415 . S
C1819 H1789 0.950 . S
C1819 C1814 1.363 . S
C1819 C1818 1.415 . S
H1820 C1817 0.999 . S
H1821 C1802 0.913 . S
H1822 C1840 0.951 . S
H1823 C1842 0.951 . S
H1824 C1844 0.950 . S
H1825 C1845 0.950 . S
H1826 C1847 0.950 . S
H1827 C1850 0.950 . S
H1828 C1851 0.950 . S
H1829 C1853 0.950 . S
H1830 C1854 0.950 . S
H1831 C1855 0.951 . S
H1832 C1857 0.951 . S
H1833 C1859 0.950 . S
H1834 C1860 0.950 . S
H1835 C1862 0.950 . S
H1836 C1865 0.950 . S
H1837 C1866 0.950 . S
H1838 C1868 0.950 . S
H1839 C1869 0.950 . S
C1840 H1822 0.951 . S
C1840 C1841 1.353 1_655 S
C1840 C1842 1.388 . S
C1841 C1840 1.353 1_455 S
C1841 C1845 1.398 . S
C1842 H1823 0.951 . S
C1842 C1840 1.388 . S
C1842 C1843 1.366 . S
C1843 C1842 1.366 . S
C1843 C1844 1.414 1_655 S
C1843 C1846 1.499 . S
C1844 H1824 0.950 . S
C1844 C1843 1.414 1_455 S
C1844 C1845 1.374 . S
C1845 H1825 0.950 . S
C1845 C1841 1.398 . S
C1845 C1844 1.374 . S
C1846 C1843 1.499 . S
C1846 C1847 1.373 1_655 S
C1846 C1848 1.389 . S
C1847 H1826 0.950 . S
C1847 C1846 1.373 1_455 S
C1847 C1863 1.377 . S
C1848 C1846 1.389 . S
C1848 C1849 1.524 . S
C1848 C1862 1.377 . S
C1849 C1848 1.524 . S
C1849 C1850 1.397 . S
C1849 C1854 1.363 . S
C1850 H1827 0.950 . S
C1850 C1849 1.397 . S
C1850 C1851 1.334 . S
C1851 H1828 0.950 . S
C1851 C1850 1.334 . S
C1851 C1852 1.287 . S
C1852 C1851 1.287 . S
C1852 C1853 1.524 . S
C1852 H1871 0.913 . S
C1853 H1829 0.950 . S
C1853 C1852 1.524 . S
C1853 C1854 1.415 . S
C1854 H1830 0.950 . S
C1854 C1849 1.363 . S
C1854 C1853 1.415 . S
C1855 H1831 0.951 . S
C1855 C1856 1.366 1_455 S
C1855 C1857 1.388 . S
C1856 C1855 1.366 1_655 S
C1856 C1860 1.385 . S
C1857 H1832 0.951 . S
C1857 C1855 1.388 . S
C1857 C1858 1.366 1_455 S
C1858 C1857 1.366 1_655 S
C1858 C1859 1.414 . S
C1858 C1861 1.499 . S
C1859 H1833 0.950 . S
C1859 C1858 1.414 . S
C1859 C1860 1.374 . S
C1860 H1834 0.950 . S
C1860 C1856 1.385 . S
C1860 C1859 1.374 . S
C1861 C1858 1.499 . S
C1861 C1862 1.373 . S
C1861 C1863 1.389 1_655 S
C1862 H1835 0.950 . S
C1862 C1848 1.377 . S
C1862 C1861 1.373 . S
C1863 C1847 1.377 . S
C1863 C1861 1.389 1_455 S
C1863 C1864 1.524 . S
C1864 C1863 1.524 . S
C1864 C1865 1.397 . S
C1864 C1869 1.363 . S
C1865 H1836 0.950 . S
C1865 C1864 1.397 . S
C1865 C1866 1.334 . S
C1866 H1837 0.950 . S
C1866 C1865 1.334 . S
C1866 C1867 1.287 . S
C1867 C1866 1.287 . S
C1867 C1868 1.524 . S
C1867 H1870 0.999 . S
C1868 H1838 0.950 . S
C1868 C1867 1.524 . S
C1868 C1869 1.415 . S
C1869 H1839 0.950 . S
C1869 C1864 1.363 . S
C1869 C1868 1.415 . S
H1870 C1867 0.999 . S
H1871 C1852 0.913 . S
H1872 C1890 0.951 . S
H1873 C1892 0.951 . S
H1874 C1894 0.950 . S
H1875 C1895 0.950 . S
H1876 C1897 0.950 . S
H1877 C1900 0.950 . S
H1878 C1901 0.950 . S
H1879 C1903 0.950 . S
H1880 C1904 0.950 . S
H1881 C1905 0.951 . S
H1882 C1907 0.951 . S
H1883 C1909 0.950 . S
H1884 C1910 0.950 . S
H1885 C1912 0.950 . S
H1886 C1915 0.950 . S
H1887 C1916 0.950 . S
H1888 C1918 0.950 . S
H1889 C1919 0.950 . S
C1890 H1872 0.951 . S
C1890 C1891 1.366 . S
C1890 C1892 1.388 . S
C1891 C1890 1.366 . S
C1891 C1895 1.385 . S
C1892 H1873 0.951 . S
C1892 C1890 1.388 . S
C1892 C1893 1.366 . S
C1893 C1892 1.366 . S
C1893 C1894 1.414 . S
C1893 C1896 1.499 . S
C1894 H1874 0.950 . S
C1894 C1893 1.414 . S
C1894 C1895 1.374 . S
C1895 H1875 0.950 . S
C1895 C1891 1.385 . S
C1895 C1894 1.374 . S
C1896 C1893 1.499 . S
C1896 C1897 1.373 . S
C1896 C1898 1.389 . S
C1897 H1876 0.950 . S
C1897 C1896 1.373 . S
C1897 C1913 1.377 . S
C1898 C1896 1.389 . S
C1898 C1899 1.524 . S
C1898 C1912 1.377 . S
C1899 C1898 1.524 . S
C1899 C1900 1.397 . S
C1899 C1904 1.363 . S
C1900 H1877 0.950 . S
C1900 C1899 1.397 . S
C1900 C1901 1.334 . S
C1901 H1878 0.950 . S
C1901 C1900 1.334 . S
C1901 C1902 1.287 . S
C1902 C1901 1.287 . S
C1902 C1903 1.524 . S
C1902 H1921 0.913 . S
C1903 H1879 0.950 . S
C1903 C1902 1.524 . S
C1903 C1904 1.415 . S
C1904 H1880 0.950 . S
C1904 C1899 1.363 . S
C1904 C1903 1.415 . S
C1905 H1881 0.951 . S
C1905 C1906 1.366 . S
C1905 C1907 1.388 . S
C1906 C1905 1.366 . S
C1906 C1910 1.385 . S
C1907 H1882 0.951 . S
C1907 C1905 1.388 . S
C1907 C1908 1.366 . S
C1908 C1907 1.366 . S
C1908 C1909 1.414 . S
C1908 C1911 1.499 . S
C1909 H1883 0.950 . S
C1909 C1908 1.414 . S
C1909 C1910 1.374 . S
C1910 H1884 0.950 . S
C1910 C1906 1.385 . S
C1910 C1909 1.374 . S
C1911 C1908 1.499 . S
C1911 C1912 1.373 . S
C1911 C1913 1.389 . S
C1912 H1885 0.950 . S
C1912 C1898 1.377 . S
C1912 C1911 1.373 . S
C1913 C1897 1.377 . S
C1913 C1911 1.389 . S
C1913 C1914 1.524 . S
C1914 C1913 1.524 . S
C1914 C1915 1.397 . S
C1914 C1919 1.363 . S
C1915 H1886 0.950 . S
C1915 C1914 1.397 . S
C1915 C1916 1.334 . S
C1916 H1887 0.950 . S
C1916 C1915 1.334 . S
C1916 C1917 1.287 . S
C1917 C1916 1.287 . S
C1917 C1918 1.524 . S
C1917 H1920 0.999 . S
C1918 H1888 0.950 . S
C1918 C1917 1.524 . S
C1918 C1919 1.415 . S
C1919 H1889 0.950 . S
C1919 C1914 1.363 . S
C1919 C1918 1.415 . S
H1920 C1917 0.999 . S
H1921 C1902 0.913 . S
H1922 C1940 0.951 . S
H1923 C1942 0.951 . S
H1924 C1944 0.950 . S
H1925 C1945 0.950 . S
H1926 C1947 0.950 . S
H1927 C1950 0.950 . S
H1928 C1951 0.950 . S
H1929 C1953 0.950 . S
H1930 C1954 0.950 . S
H1931 C1955 0.951 . S
H1932 C1957 0.951 . S
H1933 C1959 0.950 . S
H1934 C1960 0.950 . S
H1935 C1962 0.950 . S
H1936 C1965 0.950 . S
H1937 C1966 0.950 . S
H1938 C1968 0.950 . S
H1939 C1969 0.950 . S
C1940 H1922 0.951 . S
C1940 C1941 1.366 . S
C1940 C1942 1.388 . S
C1941 C1940 1.366 . S
C1941 C1945 1.385 . S
C1942 H1923 0.951 . S
C1942 C1940 1.388 . S
C1942 C1943 1.366 . S
C1943 C1942 1.366 . S
C1943 C1944 1.414 . S
C1943 C1946 1.499 . S
C1944 H1924 0.950 . S
C1944 C1943 1.414 . S
C1944 C1945 1.374 . S
C1945 H1925 0.950 . S
C1945 C1941 1.385 . S
C1945 C1944 1.374 . S
C1946 C1943 1.499 . S
C1946 C1947 1.373 . S
C1946 C1948 1.389 . S
C1947 H1926 0.950 . S
C1947 C1946 1.373 . S
C1947 C1963 1.377 . S
C1948 C1946 1.389 . S
C1948 C1949 1.524 . S
C1948 C1962 1.377 . S
C1949 C1948 1.524 . S
C1949 C1950 1.397 . S
C1949 C1954 1.363 . S
C1950 H1927 0.950 . S
C1950 C1949 1.397 . S
C1950 C1951 1.334 . S
C1951 H1928 0.950 . S
C1951 C1950 1.334 . S
C1951 C1952 1.287 . S
C1952 C1951 1.287 . S
C1952 C1953 1.524 . S
C1952 H1971 0.913 . S
C1953 H1929 0.950 . S
C1953 C1952 1.524 . S
C1953 C1954 1.415 . S
C1954 H1930 0.950 . S
C1954 C1949 1.363 . S
C1954 C1953 1.415 . S
C1955 H1931 0.951 . S
C1955 C1956 1.366 . S
C1955 C1957 1.388 . S
C1956 C1955 1.366 . S
C1956 C1960 1.385 . S
C1957 H1932 0.951 . S
C1957 C1955 1.388 . S
C1957 C1958 1.366 . S
C1958 C1957 1.366 . S
C1958 C1959 1.414 . S
C1958 C1961 1.499 . S
C1959 H1933 0.950 . S
C1959 C1958 1.414 . S
C1959 C1960 1.374 . S
C1960 H1934 0.950 . S
C1960 C1956 1.385 . S
C1960 C1959 1.374 . S
C1961 C1958 1.499 . S
C1961 C1962 1.373 . S
C1961 C1963 1.389 . S
C1962 H1935 0.950 . S
C1962 C1948 1.377 . S
C1962 C1961 1.373 . S
C1963 C1947 1.377 . S
C1963 C1961 1.389 . S
C1963 C1964 1.524 . S
C1964 C1963 1.524 . S
C1964 C1965 1.397 . S
C1964 C1969 1.363 . S
C1965 H1936 0.950 . S
C1965 C1964 1.397 . S
C1965 C1966 1.334 . S
C1966 H1937 0.950 . S
C1966 C1965 1.334 . S
C1966 C1967 1.287 . S
C1967 C1966 1.287 . S
C1967 C1968 1.524 . S
C1967 H1970 0.999 . S
C1968 H1938 0.950 . S
C1968 C1967 1.524 . S
C1968 C1969 1.415 . S
C1969 H1939 0.950 . S
C1969 C1964 1.363 . S
C1969 C1968 1.415 . S
H1970 C1967 0.999 . S
H1971 C1952 0.913 . S
H1972 C1990 0.951 . S
H1973 C1992 0.951 . S
H1974 C1994 0.950 . S
H1975 C1995 0.950 . S
H1976 C1997 0.950 . S
H1977 C2000 0.950 . S
H1978 C2001 0.950 . S
H1979 C2003 0.950 . S
H1980 C2004 0.950 . S
H1981 C2005 0.951 1_565 S
H1982 C2007 0.951 1_565 S
H1983 C2009 0.950 . S
H1984 C2010 0.950 . S
H1985 C2012 0.950 . S
H1986 C2015 0.950 . S
H1987 C2016 0.950 . S
H1988 C2018 0.950 . S
H1989 C2019 0.950 . S
C1990 H1972 0.951 . S
C1990 C1991 1.360 1_545 S
C1990 C1992 1.388 . S
C1991 C1990 1.360 1_565 S
C1991 C1995 1.391 . S
C1992 H1973 0.951 . S
C1992 C1990 1.388 . S
C1992 C1993 1.395 . S
C1993 C1992 1.395 . S
C1993 C1994 1.391 1_545 S
C1993 C1996 1.499 . S
C1994 H1974 0.950 . S
C1994 C1993 1.391 1_565 S
C1994 C1995 1.374 . S
C1995 H1975 0.950 . S
C1995 C1991 1.391 . S
C1995 C1994 1.374 . S
C1996 C1993 1.499 . S
C1996 C1997 1.373 . S
C1996 C1998 1.389 1_545 S
C1997 H1976 0.950 . S
C1997 C1996 1.373 . S
C1997 C2013 1.377 . S
C1998 C1996 1.389 1_565 S
C1998 C1999 1.524 . S
C1998 C2012 1.377 . S
C1999 C1998 1.524 . S
C1999 C2000 1.397 . S
C1999 C2004 1.363 . S
C2000 H1977 0.950 . S
C2000 C1999 1.397 . S
C2000 C2001 1.334 . S
C2001 H1978 0.950 . S
C2001 C2000 1.334 . S
C2001 C2002 1.287 . S
C2002 C2001 1.287 . S
C2002 C2003 1.524 . S
C2002 H2021 0.913 . S
C2003 H1979 0.950 . S
C2003 C2002 1.524 . S
C2003 C2004 1.415 . S
C2004 H1980 0.950 . S
C2004 C1999 1.363 . S
C2004 C2003 1.415 . S
C2005 H1981 0.951 1_545 S
C2005 C2006 1.366 . S
C2005 C2007 1.388 . S
C2006 C2005 1.366 . S
C2006 C2010 1.385 . S
C2007 H1982 0.951 1_545 S
C2007 C2005 1.388 . S
C2007 C2008 1.366 . S
C2008 C2007 1.366 . S
C2008 C2009 1.414 . S
C2008 C2011 1.499 . S
C2009 H1983 0.950 . S
C2009 C2008 1.414 . S
C2009 C2010 1.374 . S
C2010 H1984 0.950 . S
C2010 C2006 1.385 . S
C2010 C2009 1.374 . S
C2011 C2008 1.499 . S
C2011 C2012 1.373 1_545 S
C2011 C2013 1.389 . S
C2012 H1985 0.950 . S
C2012 C1998 1.377 . S
C2012 C2011 1.373 1_565 S
C2013 C1997 1.377 . S
C2013 C2011 1.389 . S
C2013 C2014 1.524 . S
C2014 C2013 1.524 . S
C2014 C2015 1.397 . S
C2014 C2019 1.363 . S
C2015 H1986 0.950 . S
C2015 C2014 1.397 . S
C2015 C2016 1.334 . S
C2016 H1987 0.950 . S
C2016 C2015 1.334 . S
C2016 C2017 1.287 . S
C2017 C2016 1.287 . S
C2017 C2018 1.524 . S
C2017 H2020 0.999 . S
C2018 H1988 0.950 . S
C2018 C2017 1.524 . S
C2018 C2019 1.415 . S
C2019 H1989 0.950 . S
C2019 C2014 1.363 . S
C2019 C2018 1.415 . S
H2020 C2017 0.999 . S
H2021 C2002 0.913 . S
H2022 C2040 0.951 . S
H2023 C2042 0.951 . S
H2024 C2044 0.950 . S
H2025 C2045 0.950 . S
H2026 C2047 0.952 1_545 S
H2027 C2050 0.950 . S
H2028 C2051 0.950 . S
H2029 C2053 0.950 . S
H2030 C2054 0.954 1_655 S
H2031 C2055 0.951 . S
H2032 C2057 0.951 . S
H2033 C2059 0.950 . S
H2034 C2060 0.950 . S
H2035 C2062 0.950 . S
H2036 C2065 0.950 . S
H2037 C2066 0.950 . S
H2038 C2068 0.950 . S
H2039 C2069 0.950 1_565 S
C2040 H2022 0.951 . S
C2040 C2041 1.366 . S
C2040 C2042 1.388 . S
C2041 C2040 1.366 . S
C2041 C2045 1.385 . S
C2042 H2023 0.951 . S
C2042 C2040 1.388 . S
C2042 C2043 1.366 . S
C2043 C2042 1.366 . S
C2043 C2044 1.414 . S
C2043 C2046 1.499 . S
C2044 H2024 0.950 . S
C2044 C2043 1.414 . S
C2044 C2045 1.374 . S
C2045 H2025 0.950 . S
C2045 C2041 1.385 . S
C2045 C2044 1.374 . S
C2046 C2043 1.499 . S
C2046 C2047 1.373 1_455 S
C2046 C2048 1.389 1_455 S
C2047 H2026 0.952 1_565 S
C2047 C2046 1.373 1_655 S
C2047 C2063 1.377 . S
C2048 C2046 1.389 1_655 S
C2048 C2049 1.500 1_655 S
C2048 C2062 1.377 . S
C2049 C2048 1.500 1_455 S
C2049 C2050 1.428 . S
C2049 C2054 1.353 . S
C2050 H2027 0.950 . S
C2050 C2049 1.428 . S
C2050 C2051 1.334 . S
C2051 H2028 0.950 . S
C2051 C2050 1.334 . S
C2051 C2052 1.287 . S
C2052 C2051 1.287 . S
C2052 C2053 1.524 . S
C2052 H2071 0.913 . S
C2053 H2029 0.950 . S
C2053 C2052 1.524 . S
C2053 C2054 1.412 . S
C2054 H2030 0.954 1_455 S
C2054 C2049 1.353 . S
C2054 C2053 1.412 . S
C2055 H2031 0.951 . S
C2055 C2056 1.366 . S
C2055 C2057 1.388 . S
C2056 C2055 1.366 . S
C2056 C2060 1.385 . S
C2057 H2032 0.951 . S
C2057 C2055 1.388 . S
C2057 C2058 1.366 . S
C2058 C2057 1.366 . S
C2058 C2059 1.414 . S
C2058 C2061 1.499 . S
C2059 H2033 0.950 . S
C2059 C2058 1.414 . S
C2059 C2060 1.374 . S
C2060 H2034 0.950 . S
C2060 C2056 1.385 . S
C2060 C2059 1.374 . S
C2061 C2058 1.499 . S
C2061 C2062 1.373 . S
C2061 C2063 1.389 . S
C2062 H2035 0.950 . S
C2062 C2048 1.377 . S
C2062 C2061 1.373 . S
C2063 C2047 1.377 . S
C2063 C2061 1.389 . S
C2063 C2064 1.524 1_565 S
C2064 C2063 1.524 1_545 S
C2064 C2065 1.397 . S
C2064 C2069 1.363 . S
C2065 H2036 0.950 . S
C2065 C2064 1.397 . S
C2065 C2066 1.334 . S
C2066 H2037 0.950 . S
C2066 C2065 1.334 . S
C2066 C2067 1.287 . S
C2067 C2066 1.287 . S
C2067 C2068 1.524 . S
C2067 H2070 0.999 . S
C2068 H2038 0.950 . S
C2068 C2067 1.524 . S
C2068 C2069 1.415 . S
C2069 H2039 0.950 1_545 S
C2069 C2064 1.363 . S
C2069 C2068 1.415 . S
H2070 C2067 0.999 . S
H2071 C2052 0.913 . S
H2072 C2090 0.951 . S
H2073 C2092 0.951 . S
H2074 C2094 0.950 . S
H2075 C2095 0.950 . S
H2076 C2097 0.950 . S
H2077 C2100 0.950 . S
H2078 C2101 0.950 . S
H2079 C2103 0.950 . S
H2080 C2104 0.950 . S
H2081 C2105 0.951 . S
H2082 C2107 0.951 . S
H2083 C2109 0.950 . S
H2084 C2110 0.950 . S
H2085 C2112 0.950 . S
H2086 C2115 0.950 . S
H2087 C2116 0.950 . S
H2088 C2118 0.950 . S
H2089 C2119 0.950 . S
C2090 H2072 0.951 . S
C2090 C2091 1.366 . S
C2090 C2092 1.388 . S
C2091 C2090 1.366 . S
C2091 C2095 1.385 . S
C2092 H2073 0.951 . S
C2092 C2090 1.388 . S
C2092 C2093 1.366 . S
C2093 C2092 1.366 . S
C2093 C2094 1.414 . S
C2093 C2096 1.499 . S
C2094 H2074 0.950 . S
C2094 C2093 1.414 . S
C2094 C2095 1.374 . S
C2095 H2075 0.950 . S
C2095 C2091 1.385 . S
C2095 C2094 1.374 . S
C2096 C2093 1.499 . S
C2096 C2097 1.373 . S
C2096 C2098 1.389 . S
C2097 H2076 0.950 . S
C2097 C2096 1.373 . S
C2097 C2113 1.377 . S
C2098 C2096 1.389 . S
C2098 C2099 1.524 . S
C2098 C2112 1.377 . S
C2099 C2098 1.524 . S
C2099 C2100 1.397 . S
C2099 C2104 1.363 . S
C2100 H2077 0.950 . S
C2100 C2099 1.397 . S
C2100 C2101 1.334 . S
C2101 H2078 0.950 . S
C2101 C2100 1.334 . S
C2101 C2102 1.287 . S
C2102 C2101 1.287 . S
C2102 C2103 1.524 . S
C2102 H2121 0.913 . S
C2103 H2079 0.950 . S
C2103 C2102 1.524 . S
C2103 C2104 1.415 . S
C2104 H2080 0.950 . S
C2104 C2099 1.363 . S
C2104 C2103 1.415 . S
C2105 H2081 0.951 . S
C2105 C2106 1.366 . S
C2105 C2107 1.388 . S
C2106 C2105 1.366 . S
C2106 C2110 1.385 . S
C2107 H2082 0.951 . S
C2107 C2105 1.388 . S
C2107 C2108 1.366 . S
C2108 C2107 1.366 . S
C2108 C2109 1.414 . S
C2108 C2111 1.499 . S
C2109 H2083 0.950 . S
C2109 C2108 1.414 . S
C2109 C2110 1.374 . S
C2110 H2084 0.950 . S
C2110 C2106 1.385 . S
C2110 C2109 1.374 . S
C2111 C2108 1.499 . S
C2111 C2112 1.373 . S
C2111 C2113 1.389 . S
C2112 H2085 0.950 . S
C2112 C2098 1.377 . S
C2112 C2111 1.373 . S
C2113 C2097 1.377 . S
C2113 C2111 1.389 . S
C2113 C2114 1.524 . S
C2114 C2113 1.524 . S
C2114 C2115 1.397 . S
C2114 C2119 1.363 . S
C2115 H2086 0.950 . S
C2115 C2114 1.397 . S
C2115 C2116 1.334 . S
C2116 H2087 0.950 . S
C2116 C2115 1.334 . S
C2116 C2117 1.287 . S
C2117 C2116 1.287 . S
C2117 C2118 1.524 . S
C2117 H2120 0.999 . S
C2118 H2088 0.950 . S
C2118 C2117 1.524 . S
C2118 C2119 1.415 . S
C2119 H2089 0.950 . S
C2119 C2114 1.363 . S
C2119 C2118 1.415 . S
H2120 C2117 0.999 . S
H2121 C2102 0.913 . S
H2122 C2140 0.951 . S
H2123 C2142 0.951 . S
H2124 C2144 0.950 . S
H2125 C2145 0.950 . S
H2126 C2147 0.943 1_544 S
H2127 C2150 0.950 . S
H2128 C2151 0.950 . S
H2129 C2153 0.946 1_565 S
H2130 C2154 0.950 . S
H2131 C2155 0.951 . S
H2132 C2157 0.951 . S
H2133 C2159 0.950 . S
H2134 C2160 0.950 . S
H2135 C2162 0.950 . S
H2136 C2165 0.950 . S
H2137 C2166 0.950 . S
H2138 C2168 0.950 . S
H2139 C2169 0.950 . S
C2140 H2122 0.951 . S
C2140 C2141 1.366 . S
C2140 C2142 1.388 . S
C2141 C2140 1.366 . S
C2141 C2145 1.385 . S
C2142 H2123 0.951 . S
C2142 C2140 1.388 . S
C2142 C2143 1.366 . S
C2143 C2142 1.366 . S
C2143 C2144 1.414 . S
C2143 C2146 1.499 . S
C2144 H2124 0.950 . S
C2144 C2143 1.414 . S
C2144 C2145 1.374 . S
C2145 H2125 0.950 . S
C2145 C2141 1.385 . S
C2145 C2144 1.374 . S
C2146 C2143 1.499 . S
C2146 C2147 1.374 1_545 S
C2146 C2148 1.389 1_545 S
C2147 H2126 0.943 1_566 S
C2147 C2146 1.374 1_565 S
C2147 C2163 1.376 1_556 S
C2148 C2146 1.389 1_565 S
C2148 C2149 1.524 . S
C2148 C2162 1.377 . S
C2149 C2148 1.524 . S
C2149 C2150 1.397 1_565 S
C2149 C2154 1.363 . S
C2150 H2127 0.950 . S
C2150 C2149 1.397 1_545 S
C2150 C2151 1.334 . S
C2151 H2128 0.950 . S
C2151 C2150 1.334 . S
C2151 C2152 1.287 . S
C2152 C2151 1.287 . S
C2152 C2153 1.539 . S
C2152 H2171 0.913 . S
C2153 H2129 0.946 1_545 S
C2153 C2152 1.539 . S
C2153 C2154 1.404 1_545 S
C2154 H2130 0.950 . S
C2154 C2149 1.363 . S
C2154 C2153 1.404 1_565 S
C2155 H2131 0.951 . S
C2155 C2156 1.366 . S
C2155 C2157 1.388 . S
C2156 C2155 1.366 . S
C2156 C2160 1.385 . S
C2157 H2132 0.951 . S
C2157 C2155 1.388 . S
C2157 C2158 1.366 . S
C2158 C2157 1.366 . S
C2158 C2159 1.414 . S
C2158 C2161 1.499 . S
C2159 H2133 0.950 . S
C2159 C2158 1.414 . S
C2159 C2160 1.374 . S
C2160 H2134 0.950 . S
C2160 C2156 1.385 . S
C2160 C2159 1.374 . S
C2161 C2158 1.499 . S
C2161 C2162 1.373 . S
C2161 C2163 1.389 1_556 S
C2162 H2135 0.950 . S
C2162 C2148 1.377 . S
C2162 C2161 1.373 . S
C2163 C2147 1.376 1_554 S
C2163 C2161 1.389 1_554 S
C2163 C2164 1.524 . S
C2164 C2163 1.524 . S
C2164 C2165 1.397 . S
C2164 C2169 1.363 . S
C2165 H2136 0.950 . S
C2165 C2164 1.397 . S
C2165 C2166 1.334 . S
C2166 H2137 0.950 . S
C2166 C2165 1.334 . S
C2166 C2167 1.287 . S
C2167 C2166 1.287 . S
C2167 C2168 1.524 . S
C2167 H2170 0.999 . S
C2168 H2138 0.950 . S
C2168 C2167 1.524 . S
C2168 C2169 1.415 . S
C2169 H2139 0.950 . S
C2169 C2164 1.363 . S
C2169 C2168 1.415 . S
H2170 C2167 0.999 . S
H2171 C2152 0.913 . S
H2172 C2190 0.951 . S
H2173 C2192 0.951 . S
H2174 C2194 0.950 . S
H2175 C2195 0.950 . S
H2176 C2197 0.950 . S
H2177 C2200 0.950 . S
H2178 C2201 0.950 . S
H2179 C2203 0.950 . S
H2180 C2204 0.950 . S
H2181 C2205 0.951 . S
H2182 C2207 0.951 . S
H2183 C2209 0.950 . S
H2184 C2210 0.950 . S
H2185 C2212 0.950 . S
H2186 C2215 0.950 . S
H2187 C2216 0.950 . S
H2188 C2218 0.950 . S
H2189 C2219 0.950 . S
C2190 H2172 0.951 . S
C2190 C2191 1.366 . S
C2190 C2192 1.388 . S
C2191 C2190 1.366 . S
C2191 C2195 1.385 . S
C2192 H2173 0.951 . S
C2192 C2190 1.388 . S
C2192 C2193 1.366 . S
C2193 C2192 1.366 . S
C2193 C2194 1.414 . S
C2193 C2196 1.499 . S
C2194 H2174 0.950 . S
C2194 C2193 1.414 . S
C2194 C2195 1.374 . S
C2195 H2175 0.950 . S
C2195 C2191 1.385 . S
C2195 C2194 1.374 . S
C2196 C2193 1.499 . S
C2196 C2197 1.373 . S
C2196 C2198 1.389 . S
C2197 H2176 0.950 . S
C2197 C2196 1.373 . S
C2197 C2213 1.377 . S
C2198 C2196 1.389 . S
C2198 C2199 1.524 . S
C2198 C2212 1.377 . S
C2199 C2198 1.524 . S
C2199 C2200 1.397 . S
C2199 C2204 1.363 . S
C2200 H2177 0.950 . S
C2200 C2199 1.397 . S
C2200 C2201 1.334 . S
C2201 H2178 0.950 . S
C2201 C2200 1.334 . S
C2201 C2202 1.287 . S
C2202 C2201 1.287 . S
C2202 C2203 1.524 . S
C2202 H2221 0.913 . S
C2203 H2179 0.950 . S
C2203 C2202 1.524 . S
C2203 C2204 1.415 . S
C2204 H2180 0.950 . S
C2204 C2199 1.363 . S
C2204 C2203 1.415 . S
C2205 H2181 0.951 . S
C2205 C2206 1.366 . S
C2205 C2207 1.388 . S
C2206 C2205 1.366 . S
C2206 C2210 1.385 . S
C2207 H2182 0.951 . S
C2207 C2205 1.388 . S
C2207 C2208 1.366 . S
C2208 C2207 1.366 . S
C2208 C2209 1.414 . S
C2208 C2211 1.499 . S
C2209 H2183 0.950 . S
C2209 C2208 1.414 . S
C2209 C2210 1.374 . S
C2210 H2184 0.950 . S
C2210 C2206 1.385 . S
C2210 C2209 1.374 . S
C2211 C2208 1.499 . S
C2211 C2212 1.373 . S
C2211 C2213 1.389 . S
C2212 H2185 0.950 . S
C2212 C2198 1.377 . S
C2212 C2211 1.373 . S
C2213 C2197 1.377 . S
C2213 C2211 1.389 . S
C2213 C2214 1.524 . S
C2214 C2213 1.524 . S
C2214 C2215 1.397 . S
C2214 C2219 1.363 . S
C2215 H2186 0.950 . S
C2215 C2214 1.397 . S
C2215 C2216 1.334 . S
C2216 H2187 0.950 . S
C2216 C2215 1.334 . S
C2216 C2217 1.287 . S
C2217 C2216 1.287 . S
C2217 C2218 1.524 . S
C2217 H2220 0.999 . S
C2218 H2188 0.950 . S
C2218 C2217 1.524 . S
C2218 C2219 1.415 . S
C2219 H2189 0.950 . S
C2219 C2214 1.363 . S
C2219 C2218 1.415 . S
H2220 C2217 0.999 . S
H2221 C2202 0.913 . S
H2222 C2240 0.951 . S
H2223 C2242 0.951 . S
H2224 C2244 0.950 . S
H2225 C2245 0.950 . S
H2226 C2247 0.950 . S
H2227 C2250 0.950 . S
H2228 C2251 0.950 . S
H2229 C2253 0.950 . S
H2230 C2254 0.950 . S
H2231 C2255 0.951 . S
H2232 C2257 0.951 . S
H2233 C2259 0.966 . S
H2234 C2260 0.921 1_556 S
H2235 C2262 0.950 . S
H2236 C2265 0.950 . S
H2237 C2266 0.950 . S
H2238 C2268 0.950 . S
H2239 C2269 0.950 1_554 S
C2240 H2222 0.951 . S
C2240 C2241 1.375 . S
C2240 C2242 1.388 . S
C2241 C2240 1.375 . S
C2241 C2245 1.375 1_556 S
C2242 H2223 0.951 . S
C2242 C2240 1.388 . S
C2242 C2243 1.366 1_556 S
C2243 C2242 1.366 1_554 S
C2243 C2244 1.414 . S
C2243 C2246 1.499 . S
C2244 H2224 0.950 . S
C2244 C2243 1.414 . S
C2244 C2245 1.374 . S
C2245 H2225 0.950 . S
C2245 C2241 1.375 1_554 S
C2245 C2244 1.374 . S
C2246 C2243 1.499 . S
C2246 C2247 1.373 1_554 S
C2246 C2248 1.389 . S
C2247 H2226 0.950 . S
C2247 C2246 1.373 1_556 S
C2247 C2263 1.377 . S
C2248 C2246 1.389 . S
C2248 C2249 1.524 . S
C2248 C2262 1.377 . S
C2249 C2248 1.524 . S
C2249 C2250 1.397 . S
C2249 C2254 1.363 . S
C2250 H2227 0.950 . S
C2250 C2249 1.397 . S
C2250 C2251 1.334 . S
C2251 H2228 0.950 . S
C2251 C2250 1.334 . S
C2251 C2252 1.287 . S
C2252 C2251 1.287 . S
C2252 C2253 1.524 . S
C2252 H2271 0.913 . S
C2253 H2229 0.950 . S
C2253 C2252 1.524 . S
C2253 C2254 1.415 . S
C2254 H2230 0.950 . S
C2254 C2249 1.363 . S
C2254 C2253 1.415 . S
C2255 H2231 0.951 . S
C2255 C2256 1.366 . S
C2255 C2257 1.388 . S
C2256 C2255 1.366 . S
C2256 C2260 1.417 . S
C2257 H2232 0.951 . S
C2257 C2255 1.388 . S
C2257 C2258 1.366 . S
C2258 C2257 1.366 . S
C2258 C2259 1.400 1_554 S
C2258 C2261 1.499 . S
C2259 H2233 0.966 . S
C2259 C2258 1.400 1_556 S
C2259 C2260 1.376 1_556 S
C2260 H2234 0.921 1_554 S
C2260 C2256 1.417 . S
C2260 C2259 1.376 1_554 S
C2261 C2258 1.499 . S
C2261 C2262 1.373 . S
C2261 C2263 1.389 1_554 S
C2262 H2235 0.950 . S
C2262 C2248 1.377 . S
C2262 C2261 1.373 . S
C2263 C2247 1.377 . S
C2263 C2261 1.389 1_556 S
C2263 C2264 1.524 . S
C2264 C2263 1.524 . S
C2264 C2265 1.397 . S
C2264 C2269 1.363 . S
C2265 H2236 0.950 . S
C2265 C2264 1.397 . S
C2265 C2266 1.334 . S
C2266 H2237 0.950 . S
C2266 C2265 1.334 . S
C2266 C2267 1.287 . S
C2267 C2266 1.287 . S
C2267 C2268 1.524 . S
C2267 H2270 0.999 . S
C2268 H2238 0.950 . S
C2268 C2267 1.524 . S
C2268 C2269 1.415 . S
C2269 H2239 0.950 1_556 S
C2269 C2264 1.363 . S
C2269 C2268 1.415 . S
H2270 C2267 0.999 . S
H2271 C2252 0.913 . S
H2272 C2290 0.951 . S
H2273 C2292 0.951 . S
H2274 C2294 0.950 . S
H2275 C2295 0.950 . S
H2276 C2297 0.950 . S
H2277 C2300 0.950 . S
H2278 C2301 0.950 . S
H2279 C2303 0.950 . S
H2280 C2304 0.950 . S
H2281 C2305 0.951 . S
H2282 C2307 0.951 . S
H2283 C2309 0.950 . S
H2284 C2310 0.950 . S
H2285 C2312 0.950 . S
H2286 C2315 0.950 . S
H2287 C2316 0.950 . S
H2288 C2318 0.950 . S
H2289 C2319 0.950 . S
C2290 H2272 0.951 . S
C2290 C2291 1.366 . S
C2290 C2292 1.388 . S
C2291 C2290 1.366 . S
C2291 C2295 1.385 . S
C2292 H2273 0.951 . S
C2292 C2290 1.388 . S
C2292 C2293 1.366 . S
C2293 C2292 1.366 . S
C2293 C2294 1.414 . S
C2293 C2296 1.499 . S
C2294 H2274 0.950 . S
C2294 C2293 1.414 . S
C2294 C2295 1.374 . S
C2295 H2275 0.950 . S
C2295 C2291 1.385 . S
C2295 C2294 1.374 . S
C2296 C2293 1.499 . S
C2296 C2297 1.373 . S
C2296 C2298 1.389 . S
C2297 H2276 0.950 . S
C2297 C2296 1.373 . S
C2297 C2313 1.377 . S
C2298 C2296 1.389 . S
C2298 C2299 1.524 . S
C2298 C2312 1.377 . S
C2299 C2298 1.524 . S
C2299 C2300 1.397 . S
C2299 C2304 1.363 . S
C2300 H2277 0.950 . S
C2300 C2299 1.397 . S
C2300 C2301 1.334 . S
C2301 H2278 0.950 . S
C2301 C2300 1.334 . S
C2301 C2302 1.287 . S
C2302 C2301 1.287 . S
C2302 C2303 1.524 . S
C2302 H2321 0.913 . S
C2303 H2279 0.950 . S
C2303 C2302 1.524 . S
C2303 C2304 1.415 . S
C2304 H2280 0.950 . S
C2304 C2299 1.363 . S
C2304 C2303 1.415 . S
C2305 H2281 0.951 . S
C2305 C2306 1.366 . S
C2305 C2307 1.388 . S
C2306 C2305 1.366 . S
C2306 C2310 1.385 . S
C2307 H2282 0.951 . S
C2307 C2305 1.388 . S
C2307 C2308 1.366 . S
C2308 C2307 1.366 . S
C2308 C2309 1.414 . S
C2308 C2311 1.499 . S
C2309 H2283 0.950 . S
C2309 C2308 1.414 . S
C2309 C2310 1.374 . S
C2310 H2284 0.950 . S
C2310 C2306 1.385 . S
C2310 C2309 1.374 . S
C2311 C2308 1.499 . S
C2311 C2312 1.373 . S
C2311 C2313 1.389 . S
C2312 H2285 0.950 . S
C2312 C2298 1.377 . S
C2312 C2311 1.373 . S
C2313 C2297 1.377 . S
C2313 C2311 1.389 . S
C2313 C2314 1.524 . S
C2314 C2313 1.524 . S
C2314 C2315 1.397 . S
C2314 C2319 1.363 . S
C2315 H2286 0.950 . S
C2315 C2314 1.397 . S
C2315 C2316 1.334 . S
C2316 H2287 0.950 . S
C2316 C2315 1.334 . S
C2316 C2317 1.287 . S
C2317 C2316 1.287 . S
C2317 C2318 1.524 . S
C2317 H2320 0.999 . S
C2318 H2288 0.950 . S
C2318 C2317 1.524 . S
C2318 C2319 1.415 . S
C2319 H2289 0.950 . S
C2319 C2314 1.363 . S
C2319 C2318 1.415 . S
H2320 C2317 0.999 . S
H2321 C2302 0.913 . S
H2322 C2340 0.951 . S
H2323 C2342 0.951 . S
H2324 C2344 0.950 1_455 S
H2325 C2345 0.950 1_455 S
H2326 C2347 0.950 1_554 S
H2327 C2350 0.951 . S
H2328 C2351 0.950 . S
H2329 C2353 0.950 . S
H2330 C2354 0.950 . S
H2331 C2355 0.951 . S
H2332 C2357 0.951 . S
H2333 C2359 0.950 . S
H2334 C2360 0.950 . S
H2335 C2362 0.950 . S
H2336 C2365 0.950 . S
H2337 C2366 0.950 . S
H2338 C2368 0.950 . S
H2339 C2369 0.950 . S
C2340 H2322 0.951 . S
C2340 C2341 1.366 . S
C2340 C2342 1.388 . S
C2341 C2340 1.366 . S
C2341 C2345 1.385 . S
C2342 H2323 0.951 . S
C2342 C2340 1.388 . S
C2342 C2343 1.366 . S
C2343 C2342 1.366 . S
C2343 C2344 1.414 . S
C2343 C2346 1.499 . S
C2344 H2324 0.950 1_655 S
C2344 C2343 1.414 . S
C2344 C2345 1.374 . S
C2345 H2325 0.950 1_655 S
C2345 C2341 1.385 . S
C2345 C2344 1.374 . S
C2346 C2343 1.499 . S
C2346 C2347 1.373 1_654 S
C2346 C2348 1.389 1_554 S
C2347 H2326 0.950 1_556 S
C2347 C2346 1.373 1_456 S
C2347 C2363 1.377 . S
C2348 C2346 1.389 1_556 S
C2348 C2349 1.524 . S
C2348 C2362 1.377 . S
C2349 C2348 1.524 . S
C2349 C2350 1.393 1_556 S
C2349 C2354 1.363 . S
C2350 H2327 0.951 . S
C2350 C2349 1.393 1_554 S
C2350 C2351 1.336 . S
C2351 H2328 0.950 . S
C2351 C2350 1.336 . S
C2351 C2352 1.287 1_554 S
C2352 C2351 1.287 1_556 S
C2352 C2353 1.524 . S
C2352 H2371 0.897 1_556 S
C2353 H2329 0.950 . S
C2353 C2352 1.524 . S
C2353 C2354 1.415 . S
C2354 H2330 0.950 . S
C2354 C2349 1.363 . S
C2354 C2353 1.415 . S
C2355 H2331 0.951 . S
C2355 C2356 1.366 1_455 S
C2355 C2357 1.388 . S
C2356 C2355 1.366 1_655 S
C2356 C2360 1.385 . S
C2357 H2332 0.951 . S
C2357 C2355 1.388 . S
C2357 C2358 1.366 1_455 S
C2358 C2357 1.366 1_655 S
C2358 C2359 1.414 . S
C2358 C2361 1.499 . S
C2359 H2333 0.950 . S
C2359 C2358 1.414 . S
C2359 C2360 1.374 . S
C2360 H2334 0.950 . S
C2360 C2356 1.385 . S
C2360 C2359 1.374 . S
C2361 C2358 1.499 . S
C2361 C2362 1.373 . S
C2361 C2363 1.389 1_655 S
C2362 H2335 0.950 . S
C2362 C2348 1.377 . S
C2362 C2361 1.373 . S
C2363 C2347 1.377 . S
C2363 C2361 1.389 1_455 S
C2363 C2364 1.524 . S
C2364 C2363 1.524 . S
C2364 C2365 1.397 . S
C2364 C2369 1.363 . S
C2365 H2336 0.950 . S
C2365 C2364 1.397 . S
C2365 C2366 1.334 . S
C2366 H2337 0.950 . S
C2366 C2365 1.334 . S
C2366 C2367 1.287 . S
C2367 C2366 1.287 . S
C2367 C2368 1.524 . S
C2367 H2370 0.999 . S
C2368 H2338 0.950 . S
C2368 C2367 1.524 . S
C2368 C2369 1.415 . S
C2369 H2339 0.950 . S
C2369 C2364 1.363 . S
C2369 C2368 1.415 . S
H2370 C2367 0.999 . S
H2371 C2352 0.897 1_554 S
H2372 C2390 0.951 . S
H2373 C2392 0.951 . S
H2374 C2394 0.950 . S
H2375 C2395 0.950 . S
H2376 C2397 0.950 . S
H2377 C2400 0.950 . S
H2378 C2401 0.950 . S
H2379 C2403 0.950 . S
H2380 C2404 0.950 . S
H2381 C2405 0.951 . S
H2382 C2407 0.951 . S
H2383 C2409 0.950 . S
H2384 C2410 0.950 . S
H2385 C2412 0.950 . S
H2386 C2415 0.950 . S
H2387 C2416 0.950 . S
H2388 C2418 0.950 . S
H2389 C2419 0.950 . S
C2390 H2372 0.951 . S
C2390 C2391 1.366 . S
C2390 C2392 1.388 . S
C2391 C2390 1.366 . S
C2391 C2395 1.385 . S
C2392 H2373 0.951 . S
C2392 C2390 1.388 . S
C2392 C2393 1.366 . S
C2393 C2392 1.366 . S
C2393 C2394 1.414 . S
C2393 C2396 1.499 . S
C2394 H2374 0.950 . S
C2394 C2393 1.414 . S
C2394 C2395 1.374 . S
C2395 H2375 0.950 . S
C2395 C2391 1.385 . S
C2395 C2394 1.374 . S
C2396 C2393 1.499 . S
C2396 C2397 1.373 . S
C2396 C2398 1.389 . S
C2397 H2376 0.950 . S
C2397 C2396 1.373 . S
C2397 C2413 1.377 . S
C2398 C2396 1.389 . S
C2398 C2399 1.524 . S
C2398 C2412 1.377 . S
C2399 C2398 1.524 . S
C2399 C2400 1.397 . S
C2399 C2404 1.363 . S
C2400 H2377 0.950 . S
C2400 C2399 1.397 . S
C2400 C2401 1.334 . S
C2401 H2378 0.950 . S
C2401 C2400 1.334 . S
C2401 C2402 1.287 . S
C2402 C2401 1.287 . S
C2402 C2403 1.524 . S
C2402 H2421 0.913 . S
C2403 H2379 0.950 . S
C2403 C2402 1.524 . S
C2403 C2404 1.415 . S
C2404 H2380 0.950 . S
C2404 C2399 1.363 . S
C2404 C2403 1.415 . S
C2405 H2381 0.951 . S
C2405 C2406 1.366 . S
C2405 C2407 1.388 . S
C2406 C2405 1.366 . S
C2406 C2410 1.385 . S
C2407 H2382 0.951 . S
C2407 C2405 1.388 . S
C2407 C2408 1.366 . S
C2408 C2407 1.366 . S
C2408 C2409 1.414 . S
C2408 C2411 1.499 . S
C2409 H2383 0.950 . S
C2409 C2408 1.414 . S
C2409 C2410 1.374 . S
C2410 H2384 0.950 . S
C2410 C2406 1.385 . S
C2410 C2409 1.374 . S
C2411 C2408 1.499 . S
C2411 C2412 1.373 . S
C2411 C2413 1.389 . S
C2412 H2385 0.950 . S
C2412 C2398 1.377 . S
C2412 C2411 1.373 . S
C2413 C2397 1.377 . S
C2413 C2411 1.389 . S
C2413 C2414 1.524 . S
C2414 C2413 1.524 . S
C2414 C2415 1.397 . S
C2414 C2419 1.363 . S
C2415 H2386 0.950 . S
C2415 C2414 1.397 . S
C2415 C2416 1.334 . S
C2416 H2387 0.950 . S
C2416 C2415 1.334 . S
C2416 C2417 1.287 . S
C2417 C2416 1.287 . S
C2417 C2418 1.524 . S
C2417 H2420 0.999 . S
C2418 H2388 0.950 . S
C2418 C2417 1.524 . S
C2418 C2419 1.415 . S
C2419 H2389 0.950 . S
C2419 C2414 1.363 . S
C2419 C2418 1.415 . S
H2420 C2417 0.999 . S
H2421 C2402 0.913 . S
H2422 C2440 0.951 . S
H2423 C2442 0.951 . S
H2424 C2444 0.950 . S
H2425 C2445 0.950 . S
H2426 C2447 0.950 . S
H2427 C2450 0.950 . S
H2428 C2451 0.950 . S
H2429 C2453 0.950 . S
H2430 C2454 0.950 . S
H2431 C2455 0.951 . S
H2432 C2457 0.951 . S
H2433 C2459 0.941 1_655 S
H2434 C2460 0.950 1_655 S
H2435 C2462 0.950 . S
H2436 C2465 0.950 . S
H2437 C2466 0.950 . S
H2438 C2468 0.950 . S
H2439 C2469 0.950 . S
C2440 H2422 0.951 . S
C2440 C2441 1.370 . S
C2440 C2442 1.388 . S
C2441 C2440 1.370 . S
C2441 C2445 1.381 1_655 S
C2442 H2423 0.951 . S
C2442 C2440 1.388 . S
C2442 C2443 1.352 1_655 S
C2443 C2442 1.352 1_455 S
C2443 C2444 1.435 . S
C2443 C2446 1.500 . S
C2444 H2424 0.950 . S
C2444 C2443 1.435 . S
C2444 C2445 1.374 . S
C2445 H2425 0.950 . S
C2445 C2441 1.381 1_455 S
C2445 C2444 1.374 . S
C2446 C2443 1.500 . S
C2446 C2447 1.373 . S
C2446 C2448 1.389 1_455 S
C2447 H2426 0.950 . S
C2447 C2446 1.373 . S
C2447 C2463 1.377 . S
C2448 C2446 1.389 1_655 S
C2448 C2449 1.524 . S
C2448 C2462 1.377 . S
C2449 C2448 1.524 . S
C2449 C2450 1.397 . S
C2449 C2454 1.363 . S
C2450 H2427 0.950 . S
C2450 C2449 1.397 . S
C2450 C2451 1.334 . S
C2451 H2428 0.950 . S
C2451 C2450 1.334 . S
C2451 C2452 1.287 . S
C2452 C2451 1.287 . S
C2452 C2453 1.524 . S
C2452 H2471 0.913 . S
C2453 H2429 0.950 . S
C2453 C2452 1.524 . S
C2453 C2454 1.415 . S
C2454 H2430 0.950 . S
C2454 C2449 1.363 . S
C2454 C2453 1.415 . S
C2455 H2431 0.951 . S
C2455 C2456 1.366 . S
C2455 C2457 1.388 . S
C2456 C2455 1.366 . S
C2456 C2460 1.385 . S
C2457 H2432 0.951 . S
C2457 C2455 1.388 . S
C2457 C2458 1.366 . S
C2458 C2457 1.366 . S
C2458 C2459 1.425 . S
C2458 C2461 1.499 . S
C2459 H2433 0.941 1_455 S
C2459 C2458 1.425 . S
C2459 C2460 1.374 . S
C2460 H2434 0.950 1_455 S
C2460 C2456 1.385 . S
C2460 C2459 1.374 . S
C2461 C2458 1.499 . S
C2461 C2462 1.373 1_455 S
C2461 C2463 1.389 . S
C2462 H2435 0.950 . S
C2462 C2448 1.377 . S
C2462 C2461 1.373 1_655 S
C2463 C2447 1.377 . S
C2463 C2461 1.389 . S
C2463 C2464 1.524 . S
C2464 C2463 1.524 . S
C2464 C2465 1.397 . S
C2464 C2469 1.363 . S
C2465 H2436 0.950 . S
C2465 C2464 1.397 . S
C2465 C2466 1.334 . S
C2466 H2437 0.950 . S
C2466 C2465 1.334 . S
C2466 C2467 1.287 . S
C2467 C2466 1.287 . S
C2467 C2468 1.524 . S
C2467 H2470 0.999 . S
C2468 H2438 0.950 . S
C2468 C2467 1.524 . S
C2468 C2469 1.415 . S
C2469 H2439 0.950 . S
C2469 C2464 1.363 . S
C2469 C2468 1.415 . S
H2470 C2467 0.999 . S
H2471 C2452 0.913 . S
H2472 C2490 0.951 . S
H2473 C2492 0.951 . S
H2474 C2494 0.950 . S
H2475 C2495 0.950 . S
H2476 C2497 0.950 . S
H2477 C2500 0.950 . S
H2478 C2501 0.950 . S
H2479 C2503 0.950 . S
H2480 C2504 0.950 . S
H2481 C2505 0.951 . S
H2482 C2507 0.951 . S
H2483 C2509 0.950 . S
H2484 C2510 0.950 . S
H2485 C2512 0.950 . S
H2486 C2515 0.950 . S
H2487 C2516 0.950 . S
H2488 C2518 0.950 . S
H2489 C2519 0.950 . S
C2490 H2472 0.951 . S
C2490 C2491 1.366 . S
C2490 C2492 1.388 . S
C2491 C2490 1.366 . S
C2491 C2495 1.385 . S
C2492 H2473 0.951 . S
C2492 C2490 1.388 . S
C2492 C2493 1.366 . S
C2493 C2492 1.366 . S
C2493 C2494 1.414 . S
C2493 C2496 1.499 . S
C2494 H2474 0.950 . S
C2494 C2493 1.414 . S
C2494 C2495 1.374 . S
C2495 H2475 0.950 . S
C2495 C2491 1.385 . S
C2495 C2494 1.374 . S
C2496 C2493 1.499 . S
C2496 C2497 1.373 . S
C2496 C2498 1.389 . S
C2497 H2476 0.950 . S
C2497 C2496 1.373 . S
C2497 C2513 1.377 . S
C2498 C2496 1.389 . S
C2498 C2499 1.524 . S
C2498 C2512 1.377 . S
C2499 C2498 1.524 . S
C2499 C2500 1.397 . S
C2499 C2504 1.363 . S
C2500 H2477 0.950 . S
C2500 C2499 1.397 . S
C2500 C2501 1.334 . S
C2501 H2478 0.950 . S
C2501 C2500 1.334 . S
C2501 C2502 1.287 . S
C2502 C2501 1.287 . S
C2502 C2503 1.524 . S
C2502 H2521 0.913 . S
C2503 H2479 0.950 . S
C2503 C2502 1.524 . S
C2503 C2504 1.415 . S
C2504 H2480 0.950 . S
C2504 C2499 1.363 . S
C2504 C2503 1.415 . S
C2505 H2481 0.951 . S
C2505 C2506 1.366 . S
C2505 C2507 1.388 . S
C2506 C2505 1.366 . S
C2506 C2510 1.385 . S
C2507 H2482 0.951 . S
C2507 C2505 1.388 . S
C2507 C2508 1.366 . S
C2508 C2507 1.366 . S
C2508 C2509 1.414 . S
C2508 C2511 1.499 . S
C2509 H2483 0.950 . S
C2509 C2508 1.414 . S
C2509 C2510 1.374 . S
C2510 H2484 0.950 . S
C2510 C2506 1.385 . S
C2510 C2509 1.374 . S
C2511 C2508 1.499 . S
C2511 C2512 1.373 . S
C2511 C2513 1.389 . S
C2512 H2485 0.950 . S
C2512 C2498 1.377 . S
C2512 C2511 1.373 . S
C2513 C2497 1.377 . S
C2513 C2511 1.389 . S
C2513 C2514 1.524 . S
C2514 C2513 1.524 . S
C2514 C2515 1.397 . S
C2514 C2519 1.363 . S
C2515 H2486 0.950 . S
C2515 C2514 1.397 . S
C2515 C2516 1.334 . S
C2516 H2487 0.950 . S
C2516 C2515 1.334 . S
C2516 C2517 1.287 . S
C2517 C2516 1.287 . S
C2517 C2518 1.524 . S
C2517 H2520 0.999 . S
C2518 H2488 0.950 . S
C2518 C2517 1.524 . S
C2518 C2519 1.415 . S
C2519 H2489 0.950 . S
C2519 C2514 1.363 . S
C2519 C2518 1.415 . S
H2520 C2517 0.999 . S
H2521 C2502 0.913 . S
H2522 C2540 0.951 . S
H2523 C2542 0.951 . S
H2524 C2544 0.950 . S
H2525 C2545 0.950 . S
H2526 C2547 0.950 . S
H2527 C2550 0.950 . S
H2528 C2551 0.950 . S
H2529 C2553 0.950 . S
H2530 C2554 0.950 . S
H2531 C2555 0.951 1_554 S
H2532 C2557 0.951 . S
H2533 C2559 0.950 . S
H2534 C2560 0.950 . S
H2535 C2562 0.950 . S
H2536 C2565 0.950 . S
H2537 C2566 0.950 . S
H2538 C2568 0.950 1_554 S
H2539 C2569 0.950 . S
C2540 H2522 0.951 . S
C2540 C2541 1.366 . S
C2540 C2542 1.388 . S
C2541 C2540 1.366 . S
C2541 C2545 1.385 . S
C2542 H2523 0.951 . S
C2542 C2540 1.388 . S
C2542 C2543 1.366 . S
C2543 C2542 1.366 . S
C2543 C2544 1.414 . S
C2543 C2546 1.499 . S
C2544 H2524 0.950 . S
C2544 C2543 1.414 . S
C2544 C2545 1.374 . S
C2545 H2525 0.950 . S
C2545 C2541 1.385 . S
C2545 C2544 1.374 . S
C2546 C2543 1.499 . S
C2546 C2547 1.373 . S
C2546 C2548 1.389 . S
C2547 H2526 0.950 . S
C2547 C2546 1.373 . S
C2547 C2563 1.377 . S
C2548 C2546 1.389 . S
C2548 C2549 1.524 . S
C2548 C2562 1.377 . S
C2549 C2548 1.524 . S
C2549 C2550 1.397 . S
C2549 C2554 1.363 . S
C2550 H2527 0.950 . S
C2550 C2549 1.397 . S
C2550 C2551 1.334 . S
C2551 H2528 0.950 . S
C2551 C2550 1.334 . S
C2551 C2552 1.287 . S
C2552 C2551 1.287 . S
C2552 C2553 1.524 . S
C2552 H2571 0.913 . S
C2553 H2529 0.950 . S
C2553 C2552 1.524 . S
C2553 C2554 1.415 . S
C2554 H2530 0.950 . S
C2554 C2549 1.363 . S
C2554 C2553 1.415 . S
C2555 H2531 0.951 1_556 S
C2555 C2556 1.366 . S
C2555 C2557 1.388 . S
C2556 C2555 1.366 . S
C2556 C2560 1.385 . S
C2557 H2532 0.951 . S
C2557 C2555 1.388 . S
C2557 C2558 1.366 . S
C2558 C2557 1.366 . S
C2558 C2559 1.414 . S
C2558 C2561 1.499 . S
C2559 H2533 0.950 . S
C2559 C2558 1.414 . S
C2559 C2560 1.374 . S
C2560 H2534 0.950 . S
C2560 C2556 1.385 . S
C2560 C2559 1.374 . S
C2561 C2558 1.499 . S
C2561 C2562 1.373 . S
C2561 C2563 1.389 . S
C2562 H2535 0.950 . S
C2562 C2548 1.377 . S
C2562 C2561 1.373 . S
C2563 C2547 1.377 . S
C2563 C2561 1.389 . S
C2563 C2564 1.524 . S
C2564 C2563 1.524 . S
C2564 C2565 1.397 . S
C2564 C2569 1.363 . S
C2565 H2536 0.950 . S
C2565 C2564 1.397 . S
C2565 C2566 1.334 . S
C2566 H2537 0.950 . S
C2566 C2565 1.334 . S
C2566 C2567 1.287 . S
C2567 C2566 1.287 . S
C2567 C2568 1.524 . S
C2567 H2570 0.999 . S
C2568 H2538 0.950 1_556 S
C2568 C2567 1.524 . S
C2568 C2569 1.415 . S
C2569 H2539 0.950 . S
C2569 C2564 1.363 . S
C2569 C2568 1.415 . S
H2570 C2567 0.999 . S
H2571 C2552 0.913 . S
H2572 C2590 0.951 . S
H2573 C2592 0.951 . S
H2574 C2594 0.950 . S
H2575 C2595 0.950 . S
H2576 C2597 0.950 . S
H2577 C2600 0.950 . S
H2578 C2601 0.950 . S
H2579 C2603 0.950 . S
H2580 C2604 0.950 . S
H2581 C2605 0.951 . S
H2582 C2607 0.951 . S
H2583 C2609 0.960 1_545 S
H2584 C2610 0.953 1_545 S
H2585 C2612 0.950 . S
H2586 C2615 0.950 . S
H2587 C2616 0.950 . S
H2588 C2618 0.950 . S
H2589 C2619 0.950 . S
C2590 H2572 0.951 . S
C2590 C2591 1.366 . S
C2590 C2592 1.388 . S
C2591 C2590 1.366 . S
C2591 C2595 1.384 1_545 S
C2592 H2573 0.951 . S
C2592 C2590 1.388 . S
C2592 C2593 1.363 . S
C2593 C2592 1.363 . S
C2593 C2594 1.414 1_545 S
C2593 C2596 1.500 . S
C2594 H2574 0.950 . S
C2594 C2593 1.414 1_565 S
C2594 C2595 1.374 . S
C2595 H2575 0.950 . S
C2595 C2591 1.384 1_565 S
C2595 C2594 1.374 . S
C2596 C2593 1.500 . S
C2596 C2597 1.365 1_545 S
C2596 C2598 1.397 . S
C2597 H2576 0.950 . S
C2597 C2596 1.365 1_565 S
C2597 C2613 1.377 . S
C2598 C2596 1.397 . S
C2598 C2599 1.524 . S
C2598 C2612 1.377 . S
C2599 C2598 1.524 . S
C2599 C2600 1.397 . S
C2599 C2604 1.363 . S
C2600 H2577 0.950 . S
C2600 C2599 1.397 . S
C2600 C2601 1.334 . S
C2601 H2578 0.950 . S
C2601 C2600 1.334 . S
C2601 C2602 1.287 . S
C2602 C2601 1.287 . S
C2602 C2603 1.524 . S
C2602 H2621 0.913 . S
C2603 H2579 0.950 . S
C2603 C2602 1.524 . S
C2603 C2604 1.415 . S
C2604 H2580 0.950 . S
C2604 C2599 1.363 . S
C2604 C2603 1.415 . S
C2605 H2581 0.951 . S
C2605 C2606 1.366 . S
C2605 C2607 1.388 . S
C2606 C2605 1.366 . S
C2606 C2610 1.383 . S
C2607 H2582 0.951 . S
C2607 C2605 1.388 . S
C2607 C2608 1.366 . S
C2608 C2607 1.366 . S
C2608 C2609 1.414 . S
C2608 C2611 1.499 . S
C2609 H2583 0.960 1_565 S
C2609 C2608 1.414 . S
C2609 C2610 1.374 . S
C2610 H2584 0.953 1_565 S
C2610 C2606 1.383 . S
C2610 C2609 1.374 . S
C2611 C2608 1.499 . S
C2611 C2612 1.373 1_565 S
C2611 C2613 1.389 . S
C2612 H2585 0.950 . S
C2612 C2598 1.377 . S
C2612 C2611 1.373 1_545 S
C2613 C2597 1.377 . S
C2613 C2611 1.389 . S
C2613 C2614 1.524 . S
C2614 C2613 1.524 . S
C2614 C2615 1.397 . S
C2614 C2619 1.363 . S
C2615 H2586 0.950 . S
C2615 C2614 1.397 . S
C2615 C2616 1.334 . S
C2616 H2587 0.950 . S
C2616 C2615 1.334 . S
C2616 C2617 1.287 . S
C2617 C2616 1.287 . S
C2617 C2618 1.524 . S
C2617 H2620 0.999 . S
C2618 H2588 0.950 . S
C2618 C2617 1.524 . S
C2618 C2619 1.415 . S
C2619 H2589 0.950 . S
C2619 C2614 1.363 . S
C2619 C2618 1.415 . S
H2620 C2617 0.999 . S
H2621 C2602 0.913 . S
H2622 C2640 0.951 . S
H2623 C2642 0.951 . S
H2624 C2644 0.950 . S
H2625 C2645 0.950 . S
H2626 C2647 0.950 . S
H2627 C2650 0.950 . S
H2628 C2651 0.950 . S
H2629 C2653 0.950 . S
H2630 C2654 0.950 . S
H2631 C2655 0.951 . S
H2632 C2657 0.951 . S
H2633 C2659 0.950 . S
H2634 C2660 0.950 . S
H2635 C2662 0.950 . S
H2636 C2665 0.950 . S
H2637 C2666 0.950 . S
H2638 C2668 0.950 . S
H2639 C2669 0.950 . S
C2640 H2622 0.951 . S
C2640 C2641 1.366 . S
C2640 C2642 1.388 . S
C2641 C2640 1.366 . S
C2641 C2645 1.385 . S
C2642 H2623 0.951 . S
C2642 C2640 1.388 . S
C2642 C2643 1.366 . S
C2643 C2642 1.366 . S
C2643 C2644 1.414 . S
C2643 C2646 1.499 . S
C2644 H2624 0.950 . S
C2644 C2643 1.414 . S
C2644 C2645 1.374 . S
C2645 H2625 0.950 . S
C2645 C2641 1.385 . S
C2645 C2644 1.374 . S
C2646 C2643 1.499 . S
C2646 C2647 1.373 . S
C2646 C2648 1.389 . S
C2647 H2626 0.950 . S
C2647 C2646 1.373 . S
C2647 C2663 1.377 . S
C2648 C2646 1.389 . S
C2648 C2649 1.524 . S
C2648 C2662 1.377 . S
C2649 C2648 1.524 . S
C2649 C2650 1.397 . S
C2649 C2654 1.363 . S
C2650 H2627 0.950 . S
C2650 C2649 1.397 . S
C2650 C2651 1.334 . S
C2651 H2628 0.950 . S
C2651 C2650 1.334 . S
C2651 C2652 1.287 . S
C2652 C2651 1.287 . S
C2652 C2653 1.524 . S
C2652 H2671 0.913 . S
C2653 H2629 0.950 . S
C2653 C2652 1.524 . S
C2653 C2654 1.415 . S
C2654 H2630 0.950 . S
C2654 C2649 1.363 . S
C2654 C2653 1.415 . S
C2655 H2631 0.951 . S
C2655 C2656 1.366 . S
C2655 C2657 1.388 . S
C2656 C2655 1.366 . S
C2656 C2660 1.385 . S
C2657 H2632 0.951 . S
C2657 C2655 1.388 . S
C2657 C2658 1.366 . S
C2658 C2657 1.366 . S
C2658 C2659 1.414 . S
C2658 C2661 1.499 . S
C2659 H2633 0.950 . S
C2659 C2658 1.414 . S
C2659 C2660 1.374 . S
C2660 H2634 0.950 . S
C2660 C2656 1.385 . S
C2660 C2659 1.374 . S
C2661 C2658 1.499 . S
C2661 C2662 1.373 . S
C2661 C2663 1.389 . S
C2662 H2635 0.950 . S
C2662 C2648 1.377 . S
C2662 C2661 1.373 . S
C2663 C2647 1.377 . S
C2663 C2661 1.389 . S
C2663 C2664 1.524 . S
C2664 C2663 1.524 . S
C2664 C2665 1.397 . S
C2664 C2669 1.363 . S
C2665 H2636 0.950 . S
C2665 C2664 1.397 . S
C2665 C2666 1.334 . S
C2666 H2637 0.950 . S
C2666 C2665 1.334 . S
C2666 C2667 1.287 . S
C2667 C2666 1.287 . S
C2667 C2668 1.524 . S
C2667 H2670 0.999 . S
C2668 H2638 0.950 . S
C2668 C2667 1.524 . S
C2668 C2669 1.415 . S
C2669 H2639 0.950 . S
C2669 C2664 1.363 . S
C2669 C2668 1.415 . S
H2670 C2667 0.999 . S
H2671 C2652 0.913 . S
H2672 C2690 0.951 . S
H2673 C2692 0.951 . S
H2674 C2694 0.950 . S
H2675 C2695 0.950 . S
H2676 C2697 0.950 . S
H2677 C2700 0.950 . S
H2678 C2701 0.950 . S
H2679 C2703 0.950 . S
H2680 C2704 0.950 . S
H2681 C2705 0.951 . S
H2682 C2707 0.951 . S
H2683 C2709 0.950 . S
H2684 C2710 0.950 . S
H2685 C2712 0.950 . S
H2686 C2715 0.950 . S
H2687 C2716 0.950 . S
H2688 C2718 0.950 . S
H2689 C2719 0.950 . S
C2690 H2672 0.951 . S
C2690 C2691 1.366 . S
C2690 C2692 1.388 . S
C2691 C2690 1.366 . S
C2691 C2695 1.385 . S
C2692 H2673 0.951 . S
C2692 C2690 1.388 . S
C2692 C2693 1.366 . S
C2693 C2692 1.366 . S
C2693 C2694 1.414 . S
C2693 C2696 1.499 . S
C2694 H2674 0.950 . S
C2694 C2693 1.414 . S
C2694 C2695 1.374 . S
C2695 H2675 0.950 . S
C2695 C2691 1.385 . S
C2695 C2694 1.374 . S
C2696 C2693 1.499 . S
C2696 C2697 1.373 . S
C2696 C2698 1.389 . S
C2697 H2676 0.950 . S
C2697 C2696 1.373 . S
C2697 C2713 1.377 . S
C2698 C2696 1.389 . S
C2698 C2699 1.524 . S
C2698 C2712 1.377 . S
C2699 C2698 1.524 . S
C2699 C2700 1.397 . S
C2699 C2704 1.363 . S
C2700 H2677 0.950 . S
C2700 C2699 1.397 . S
C2700 C2701 1.334 . S
C2701 H2678 0.950 . S
C2701 C2700 1.334 . S
C2701 C2702 1.287 . S
C2702 C2701 1.287 . S
C2702 C2703 1.524 . S
C2702 H2721 0.913 . S
C2703 H2679 0.950 . S
C2703 C2702 1.524 . S
C2703 C2704 1.415 . S
C2704 H2680 0.950 . S
C2704 C2699 1.363 . S
C2704 C2703 1.415 . S
C2705 H2681 0.951 . S
C2705 C2706 1.366 . S
C2705 C2707 1.388 . S
C2706 C2705 1.366 . S
C2706 C2710 1.385 . S
C2707 H2682 0.951 . S
C2707 C2705 1.388 . S
C2707 C2708 1.366 . S
C2708 C2707 1.366 . S
C2708 C2709 1.414 . S
C2708 C2711 1.499 . S
C2709 H2683 0.950 . S
C2709 C2708 1.414 . S
C2709 C2710 1.374 . S
C2710 H2684 0.950 . S
C2710 C2706 1.385 . S
C2710 C2709 1.374 . S
C2711 C2708 1.499 . S
C2711 C2712 1.373 . S
C2711 C2713 1.389 . S
C2712 H2685 0.950 . S
C2712 C2698 1.377 . S
C2712 C2711 1.373 . S
C2713 C2697 1.377 . S
C2713 C2711 1.389 . S
C2713 C2714 1.524 . S
C2714 C2713 1.524 . S
C2714 C2715 1.397 . S
C2714 C2719 1.363 . S
C2715 H2686 0.950 . S
C2715 C2714 1.397 . S
C2715 C2716 1.334 . S
C2716 H2687 0.950 . S
C2716 C2715 1.334 . S
C2716 C2717 1.287 . S
C2717 C2716 1.287 . S
C2717 C2718 1.524 . S
C2717 H2720 0.999 . S
C2718 H2688 0.950 . S
C2718 C2717 1.524 . S
C2718 C2719 1.415 . S
C2719 H2689 0.950 . S
C2719 C2714 1.363 . S
C2719 C2718 1.415 . S
H2720 C2717 0.999 . S
H2721 C2702 0.913 . S
H2722 C2740 0.951 . S
H2723 C2742 0.951 . S
H2724 C2744 0.950 . S
H2725 C2745 0.950 . S
H2726 C2747 0.950 . S
H2727 C2750 0.950 . S
H2728 C2751 0.950 . S
H2729 C2753 0.950 . S
H2730 C2754 0.950 . S
H2731 C2755 0.951 . S
H2732 C2757 0.951 . S
H2733 C2759 0.950 . S
H2734 C2760 0.950 . S
H2735 C2762 0.950 . S
H2736 C2765 0.950 . S
H2737 C2766 0.950 . S
H2738 C2768 0.950 . S
H2739 C2769 0.950 . S
C2740 H2722 0.951 . S
C2740 C2741 1.366 . S
C2740 C2742 1.388 . S
C2741 C2740 1.366 . S
C2741 C2745 1.385 . S
C2742 H2723 0.951 . S
C2742 C2740 1.388 . S
C2742 C2743 1.366 . S
C2743 C2742 1.366 . S
C2743 C2744 1.414 . S
C2743 C2746 1.499 . S
C2744 H2724 0.950 . S
C2744 C2743 1.414 . S
C2744 C2745 1.374 . S
C2745 H2725 0.950 . S
C2745 C2741 1.385 . S
C2745 C2744 1.374 . S
C2746 C2743 1.499 . S
C2746 C2747 1.373 . S
C2746 C2748 1.389 . S
C2747 H2726 0.950 . S
C2747 C2746 1.373 . S
C2747 C2763 1.377 . S
C2748 C2746 1.389 . S
C2748 C2749 1.524 . S
C2748 C2762 1.377 . S
C2749 C2748 1.524 . S
C2749 C2750 1.397 . S
C2749 C2754 1.363 . S
C2750 H2727 0.950 . S
C2750 C2749 1.397 . S
C2750 C2751 1.334 . S
C2751 H2728 0.950 . S
C2751 C2750 1.334 . S
C2751 C2752 1.287 . S
C2752 C2751 1.287 . S
C2752 C2753 1.524 . S
C2752 H2771 0.913 . S
C2753 H2729 0.950 . S
C2753 C2752 1.524 . S
C2753 C2754 1.415 . S
C2754 H2730 0.950 . S
C2754 C2749 1.363 . S
C2754 C2753 1.415 . S
C2755 H2731 0.951 . S
C2755 C2756 1.366 . S
C2755 C2757 1.388 . S
C2756 C2755 1.366 . S
C2756 C2760 1.385 . S
C2757 H2732 0.951 . S
C2757 C2755 1.388 . S
C2757 C2758 1.366 . S
C2758 C2757 1.366 . S
C2758 C2759 1.414 . S
C2758 C2761 1.499 . S
C2759 H2733 0.950 . S
C2759 C2758 1.414 . S
C2759 C2760 1.374 . S
C2760 H2734 0.950 . S
C2760 C2756 1.385 . S
C2760 C2759 1.374 . S
C2761 C2758 1.499 . S
C2761 C2762 1.373 . S
C2761 C2763 1.389 . S
C2762 H2735 0.950 . S
C2762 C2748 1.377 . S
C2762 C2761 1.373 . S
C2763 C2747 1.377 . S
C2763 C2761 1.389 . S
C2763 C2764 1.524 . S
C2764 C2763 1.524 . S
C2764 C2765 1.397 . S
C2764 C2769 1.363 . S
C2765 H2736 0.950 . S
C2765 C2764 1.397 . S
C2765 C2766 1.334 . S
C2766 H2737 0.950 . S
C2766 C2765 1.334 . S
C2766 C2767 1.287 . S
C2767 C2766 1.287 . S
C2767 C2768 1.524 . S
C2767 H2770 0.999 . S
C2768 H2738 0.950 . S
C2768 C2767 1.524 . S
C2768 C2769 1.415 . S
C2769 H2739 0.950 . S
C2769 C2764 1.363 . S
C2769 C2768 1.415 . S
H2770 C2767 0.999 . S
H2771 C2752 0.913 . S
H2772 C2790 0.951 . S
H2773 C2792 0.951 . S
H2774 C2794 0.950 . S
H2775 C2795 0.950 . S
H2776 C2797 0.950 . S
H2777 C2800 0.950 . S
H2778 C2801 0.950 . S
H2779 C2803 0.950 . S
H2780 C2804 0.950 . S
H2781 C2805 0.951 . S
H2782 C2807 0.951 . S
H2783 C2809 0.950 . S
H2784 C2810 0.950 . S
H2785 C2812 0.950 . S
H2786 C2815 0.946 1_655 S
H2787 C2816 0.950 . S
H2788 C2818 0.950 . S
H2789 C2819 0.950 . S
C2790 H2772 0.951 . S
C2790 C2791 1.366 . S
C2790 C2792 1.388 . S
C2791 C2790 1.366 . S
C2791 C2795 1.385 . S
C2792 H2773 0.951 . S
C2792 C2790 1.388 . S
C2792 C2793 1.366 . S
C2793 C2792 1.366 . S
C2793 C2794 1.414 . S
C2793 C2796 1.499 . S
C2794 H2774 0.950 . S
C2794 C2793 1.414 . S
C2794 C2795 1.374 . S
C2795 H2775 0.950 . S
C2795 C2791 1.385 . S
C2795 C2794 1.374 . S
C2796 C2793 1.499 . S
C2796 C2797 1.373 . S
C2796 C2798 1.389 . S
C2797 H2776 0.950 . S
C2797 C2796 1.373 . S
C2797 C2813 1.377 . S
C2798 C2796 1.389 . S
C2798 C2799 1.524 . S
C2798 C2812 1.377 . S
C2799 C2798 1.524 . S
C2799 C2800 1.397 . S
C2799 C2804 1.363 . S
C2800 H2777 0.950 . S
C2800 C2799 1.397 . S
C2800 C2801 1.334 . S
C2801 H2778 0.950 . S
C2801 C2800 1.334 . S
C2801 C2802 1.287 . S
C2802 C2801 1.287 . S
C2802 C2803 1.524 . S
C2802 H2821 0.913 . S
C2803 H2779 0.950 . S
C2803 C2802 1.524 . S
C2803 C2804 1.415 . S
C2804 H2780 0.950 . S
C2804 C2799 1.363 . S
C2804 C2803 1.415 . S
C2805 H2781 0.951 . S
C2805 C2806 1.366 . S
C2805 C2807 1.388 . S
C2806 C2805 1.366 . S
C2806 C2810 1.385 . S
C2807 H2782 0.951 . S
C2807 C2805 1.388 . S
C2807 C2808 1.366 . S
C2808 C2807 1.366 . S
C2808 C2809 1.414 . S
C2808 C2811 1.499 . S
C2809 H2783 0.950 . S
C2809 C2808 1.414 . S
C2809 C2810 1.374 . S
C2810 H2784 0.950 . S
C2810 C2806 1.385 . S
C2810 C2809 1.374 . S
C2811 C2808 1.499 . S
C2811 C2812 1.373 . S
C2811 C2813 1.389 . S
C2812 H2785 0.950 . S
C2812 C2798 1.377 . S
C2812 C2811 1.373 . S
C2813 C2797 1.377 . S
C2813 C2811 1.389 . S
C2813 C2814 1.524 . S
C2814 C2813 1.524 . S
C2814 C2815 1.350 1_655 S
C2814 C2819 1.363 . S
C2815 H2786 0.946 1_455 S
C2815 C2814 1.350 1_455 S
C2815 C2816 1.388 . S
C2816 H2787 0.950 . S
C2816 C2815 1.388 . S
C2816 C2817 1.287 . S
C2817 C2816 1.287 . S
C2817 C2818 1.524 . S
C2817 H2820 0.999 . S
C2818 H2788 0.950 . S
C2818 C2817 1.524 . S
C2818 C2819 1.415 1_455 S
C2819 H2789 0.950 . S
C2819 C2814 1.363 . S
C2819 C2818 1.415 1_655 S
H2820 C2817 0.999 . S
H2821 C2802 0.913 . S
H2822 C2840 0.951 . S
H2823 C2842 0.951 . S
H2824 C2844 0.950 . S
H2825 C2845 0.950 . S
H2826 C2847 0.950 . S
H2827 C2850 0.950 . S
H2828 C2851 0.950 . S
H2829 C2853 0.950 . S
H2830 C2854 0.950 1_554 S
H2831 C2855 0.951 . S
H2832 C2857 0.951 . S
H2833 C2859 0.950 . S
H2834 C2860 0.950 . S
H2835 C2862 0.950 . S
H2836 C2865 0.950 . S
H2837 C2866 0.950 . S
H2838 C2868 0.950 . S
H2839 C2869 0.950 1_556 S
C2840 H2822 0.951 . S
C2840 C2841 1.366 . S
C2840 C2842 1.388 . S
C2841 C2840 1.366 . S
C2841 C2845 1.384 1_554 S
C2842 H2823 0.951 . S
C2842 C2840 1.388 . S
C2842 C2843 1.366 1_554 S
C2843 C2842 1.366 1_556 S
C2843 C2844 1.414 . S
C2843 C2846 1.499 . S
C2844 H2824 0.950 . S
C2844 C2843 1.414 . S
C2844 C2845 1.374 . S
C2845 H2825 0.950 . S
C2845 C2841 1.384 1_556 S
C2845 C2844 1.374 . S
C2846 C2843 1.499 . S
C2846 C2847 1.373 1_556 S
C2846 C2848 1.389 . S
C2847 H2826 0.950 . S
C2847 C2846 1.373 1_554 S
C2847 C2863 1.377 . S
C2848 C2846 1.389 . S
C2848 C2849 1.524 . S
C2848 C2862 1.377 . S
C2849 C2848 1.524 . S
C2849 C2850 1.397 . S
C2849 C2854 1.363 . S
C2850 H2827 0.950 . S
C2850 C2849 1.397 . S
C2850 C2851 1.334 . S
C2851 H2828 0.950 . S
C2851 C2850 1.334 . S
C2851 C2852 1.287 . S
C2852 C2851 1.287 . S
C2852 C2853 1.524 . S
C2852 H2871 0.913 . S
C2853 H2829 0.950 . S
C2853 C2852 1.524 . S
C2853 C2854 1.415 . S
C2854 H2830 0.950 1_556 S
C2854 C2849 1.363 . S
C2854 C2853 1.415 . S
C2855 H2831 0.951 . S
C2855 C2856 1.366 . S
C2855 C2857 1.388 . S
C2856 C2855 1.366 . S
C2856 C2860 1.385 1_556 S
C2857 H2832 0.951 . S
C2857 C2855 1.388 . S
C2857 C2858 1.392 . S
C2858 C2857 1.392 . S
C2858 C2859 1.387 1_556 S
C2858 C2861 1.501 . S
C2859 H2833 0.950 . S
C2859 C2858 1.387 1_554 S
C2859 C2860 1.374 . S
C2860 H2834 0.950 . S
C2860 C2856 1.385 1_554 S
C2860 C2859 1.374 . S
C2861 C2858 1.501 . S
C2861 C2862 1.373 . S
C2861 C2863 1.389 1_556 S
C2862 H2835 0.950 . S
C2862 C2848 1.377 . S
C2862 C2861 1.373 . S
C2863 C2847 1.377 . S
C2863 C2861 1.389 1_554 S
C2863 C2864 1.524 . S
C2864 C2863 1.524 . S
C2864 C2865 1.397 . S
C2864 C2869 1.363 . S
C2865 H2836 0.950 . S
C2865 C2864 1.397 . S
C2865 C2866 1.334 . S
C2866 H2837 0.950 . S
C2866 C2865 1.334 . S
C2866 C2867 1.287 . S
C2867 C2866 1.287 . S
C2867 C2868 1.524 . S
C2867 H2870 0.999 . S
C2868 H2838 0.950 . S
C2868 C2867 1.524 . S
C2868 C2869 1.415 . S
C2869 H2839 0.950 1_554 S
C2869 C2864 1.363 . S
C2869 C2868 1.415 . S
H2870 C2867 0.999 . S
H2871 C2852 0.913 . S
H2872 C2890 0.951 . S
H2873 C2892 0.951 . S
H2874 C2894 0.950 . S
H2875 C2895 0.950 . S
H2876 C2897 0.950 . S
H2877 C2900 0.950 . S
H2878 C2901 0.950 . S
H2879 C2903 0.950 . S
H2880 C2904 0.950 . S
H2881 C2905 0.951 . S
H2882 C2907 0.951 . S
H2883 C2909 0.950 . S
H2884 C2910 0.950 . S
H2885 C2912 0.950 . S
H2886 C2915 0.950 . S
H2887 C2916 0.950 . S
H2888 C2918 0.950 . S
H2889 C2919 0.950 . S
C2890 H2872 0.951 . S
C2890 C2891 1.366 . S
C2890 C2892 1.388 . S
C2891 C2890 1.366 . S
C2891 C2895 1.385 . S
C2892 H2873 0.951 . S
C2892 C2890 1.388 . S
C2892 C2893 1.366 . S
C2893 C2892 1.366 . S
C2893 C2894 1.414 . S
C2893 C2896 1.499 . S
C2894 H2874 0.950 . S
C2894 C2893 1.414 . S
C2894 C2895 1.374 . S
C2895 H2875 0.950 . S
C2895 C2891 1.385 . S
C2895 C2894 1.374 . S
C2896 C2893 1.499 . S
C2896 C2897 1.373 . S
C2896 C2898 1.389 . S
C2897 H2876 0.950 . S
C2897 C2896 1.373 . S
C2897 C2913 1.377 . S
C2898 C2896 1.389 . S
C2898 C2899 1.524 . S
C2898 C2912 1.377 . S
C2899 C2898 1.524 . S
C2899 C2900 1.397 . S
C2899 C2904 1.363 . S
C2900 H2877 0.950 . S
C2900 C2899 1.397 . S
C2900 C2901 1.334 . S
C2901 H2878 0.950 . S
C2901 C2900 1.334 . S
C2901 C2902 1.287 . S
C2902 C2901 1.287 . S
C2902 C2903 1.524 . S
C2902 H2921 0.913 . S
C2903 H2879 0.950 . S
C2903 C2902 1.524 . S
C2903 C2904 1.415 . S
C2904 H2880 0.950 . S
C2904 C2899 1.363 . S
C2904 C2903 1.415 . S
C2905 H2881 0.951 . S
C2905 C2906 1.366 . S
C2905 C2907 1.388 . S
C2906 C2905 1.366 . S
C2906 C2910 1.385 . S
C2907 H2882 0.951 . S
C2907 C2905 1.388 . S
C2907 C2908 1.366 . S
C2908 C2907 1.366 . S
C2908 C2909 1.414 . S
C2908 C2911 1.499 . S
C2909 H2883 0.950 . S
C2909 C2908 1.414 . S
C2909 C2910 1.374 . S
C2910 H2884 0.950 . S
C2910 C2906 1.385 . S
C2910 C2909 1.374 . S
C2911 C2908 1.499 . S
C2911 C2912 1.373 . S
C2911 C2913 1.389 . S
C2912 H2885 0.950 . S
C2912 C2898 1.377 . S
C2912 C2911 1.373 . S
C2913 C2897 1.377 . S
C2913 C2911 1.389 . S
C2913 C2914 1.524 . S
C2914 C2913 1.524 . S
C2914 C2915 1.397 . S
C2914 C2919 1.363 . S
C2915 H2886 0.950 . S
C2915 C2914 1.397 . S
C2915 C2916 1.334 . S
C2916 H2887 0.950 . S
C2916 C2915 1.334 . S
C2916 C2917 1.287 . S
C2917 C2916 1.287 . S
C2917 C2918 1.524 . S
C2917 H2920 0.999 . S
C2918 H2888 0.950 . S
C2918 C2917 1.524 . S
C2918 C2919 1.415 . S
C2919 H2889 0.950 . S
C2919 C2914 1.363 . S
C2919 C2918 1.415 . S
H2920 C2917 0.999 . S
H2921 C2902 0.913 . S
H2922 C2940 0.951 . S
H2923 C2942 0.951 . S
H2924 C2944 0.950 . S
H2925 C2945 0.950 . S
H2926 C2947 0.950 . S
H2927 C2950 0.950 . S
H2928 C2951 0.950 . S
H2929 C2953 0.950 . S
H2930 C2954 0.950 . S
H2931 C2955 0.951 . S
H2932 C2957 0.951 . S
H2933 C2959 0.950 . S
H2934 C2960 0.950 . S
H2935 C2962 0.950 . S
H2936 C2965 0.950 . S
H2937 C2966 0.950 . S
H2938 C2968 0.950 . S
H2939 C2969 0.950 . S
C2940 H2922 0.951 . S
C2940 C2941 1.366 . S
C2940 C2942 1.388 . S
C2941 C2940 1.366 . S
C2941 C2945 1.385 . S
C2942 H2923 0.951 . S
C2942 C2940 1.388 . S
C2942 C2943 1.366 . S
C2943 C2942 1.366 . S
C2943 C2944 1.414 . S
C2943 C2946 1.499 . S
C2944 H2924 0.950 . S
C2944 C2943 1.414 . S
C2944 C2945 1.374 . S
C2945 H2925 0.950 . S
C2945 C2941 1.385 . S
C2945 C2944 1.374 . S
C2946 C2943 1.499 . S
C2946 C2947 1.373 . S
C2946 C2948 1.389 . S
C2947 H2926 0.950 . S
C2947 C2946 1.373 . S
C2947 C2963 1.377 . S
C2948 C2946 1.389 . S
C2948 C2949 1.524 . S
C2948 C2962 1.377 . S
C2949 C2948 1.524 . S
C2949 C2950 1.397 . S
C2949 C2954 1.363 . S
C2950 H2927 0.950 . S
C2950 C2949 1.397 . S
C2950 C2951 1.334 . S
C2951 H2928 0.950 . S
C2951 C2950 1.334 . S
C2951 C2952 1.287 . S
C2952 C2951 1.287 . S
C2952 C2953 1.524 . S
C2952 H2971 0.913 . S
C2953 H2929 0.950 . S
C2953 C2952 1.524 . S
C2953 C2954 1.415 . S
C2954 H2930 0.950 . S
C2954 C2949 1.363 . S
C2954 C2953 1.415 . S
C2955 H2931 0.951 . S
C2955 C2956 1.366 . S
C2955 C2957 1.388 . S
C2956 C2955 1.366 . S
C2956 C2960 1.385 . S
C2957 H2932 0.951 . S
C2957 C2955 1.388 . S
C2957 C2958 1.366 . S
C2958 C2957 1.366 . S
C2958 C2959 1.414 . S
C2958 C2961 1.499 . S
C2959 H2933 0.950 . S
C2959 C2958 1.414 . S
C2959 C2960 1.374 . S
C2960 H2934 0.950 . S
C2960 C2956 1.385 . S
C2960 C2959 1.374 . S
C2961 C2958 1.499 . S
C2961 C2962 1.373 . S
C2961 C2963 1.389 . S
C2962 H2935 0.950 . S
C2962 C2948 1.377 . S
C2962 C2961 1.373 . S
C2963 C2947 1.377 . S
C2963 C2961 1.389 . S
C2963 C2964 1.524 . S
C2964 C2963 1.524 . S
C2964 C2965 1.397 . S
C2964 C2969 1.363 . S
C2965 H2936 0.950 . S
C2965 C2964 1.397 . S
C2965 C2966 1.334 . S
C2966 H2937 0.950 . S
C2966 C2965 1.334 . S
C2966 C2967 1.287 . S
C2967 C2966 1.287 . S
C2967 C2968 1.524 . S
C2967 H2970 0.999 . S
C2968 H2938 0.950 . S
C2968 C2967 1.524 . S
C2968 C2969 1.415 . S
C2969 H2939 0.950 . S
C2969 C2964 1.363 . S
C2969 C2968 1.415 . S
H2970 C2967 0.999 . S
H2971 C2952 0.913 . S
H2972 C2990 0.951 . S
H2973 C2992 0.951 . S
H2974 C2994 0.950 . S
H2975 C2995 0.950 . S
H2976 C2997 0.950 . S
H2977 C3000 0.950 . S
H2978 C3001 0.950 . S
H2979 C3003 0.950 1_545 S
H2980 C3004 0.950 . S
H2981 C3005 0.951 . S
H2982 C3007 0.951 . S
H2983 C3009 0.950 . S
H2984 C3010 0.950 . S
H2985 C3012 0.950 . S
H2986 C3015 0.950 . S
H2987 C3016 0.950 . S
H2988 C3018 0.950 . S
H2989 C3019 0.950 . S
C2990 H2972 0.951 . S
C2990 C2991 1.366 . S
C2990 C2992 1.388 . S
C2991 C2990 1.366 . S
C2991 C2995 1.385 . S
C2992 H2973 0.951 . S
C2992 C2990 1.388 . S
C2992 C2993 1.366 . S
C2993 C2992 1.366 . S
C2993 C2994 1.414 . S
C2993 C2996 1.499 . S
C2994 H2974 0.950 . S
C2994 C2993 1.414 . S
C2994 C2995 1.374 . S
C2995 H2975 0.950 . S
C2995 C2991 1.385 . S
C2995 C2994 1.374 . S
C2996 C2993 1.499 . S
C2996 C2997 1.373 . S
C2996 C2998 1.389 . S
C2997 H2976 0.950 . S
C2997 C2996 1.373 . S
C2997 C3013 1.377 . S
C2998 C2996 1.389 . S
C2998 C2999 1.524 . S
C2998 C3012 1.377 . S
C2999 C2998 1.524 . S
C2999 C3000 1.397 . S
C2999 C3004 1.363 . S
C3000 H2977 0.950 . S
C3000 C2999 1.397 . S
C3000 C3001 1.334 . S
C3001 H2978 0.950 . S
C3001 C3000 1.334 . S
C3001 C3002 1.287 1_565 S
C3002 C3001 1.287 1_545 S
C3002 C3003 1.524 1_545 S
C3002 H3021 0.913 . S
C3003 H2979 0.950 1_565 S
C3003 C3002 1.524 1_565 S
C3003 C3004 1.415 . S
C3004 H2980 0.950 . S
C3004 C2999 1.363 . S
C3004 C3003 1.415 . S
C3005 H2981 0.951 . S
C3005 C3006 1.366 . S
C3005 C3007 1.388 . S
C3006 C3005 1.366 . S
C3006 C3010 1.385 . S
C3007 H2982 0.951 . S
C3007 C3005 1.388 . S
C3007 C3008 1.366 . S
C3008 C3007 1.366 . S
C3008 C3009 1.414 . S
C3008 C3011 1.499 . S
C3009 H2983 0.950 . S
C3009 C3008 1.414 . S
C3009 C3010 1.374 . S
C3010 H2984 0.950 . S
C3010 C3006 1.385 . S
C3010 C3009 1.374 . S
C3011 C3008 1.499 . S
C3011 C3012 1.373 . S
C3011 C3013 1.389 . S
C3012 H2985 0.950 . S
C3012 C2998 1.377 . S
C3012 C3011 1.373 . S
C3013 C2997 1.377 . S
C3013 C3011 1.389 . S
C3013 C3014 1.524 . S
C3014 C3013 1.524 . S
C3014 C3015 1.397 . S
C3014 C3019 1.363 . S
C3015 H2986 0.950 . S
C3015 C3014 1.397 . S
C3015 C3016 1.334 . S
C3016 H2987 0.950 . S
C3016 C3015 1.334 . S
C3016 C3017 1.287 . S
C3017 C3016 1.287 . S
C3017 C3018 1.524 . S
C3017 H3020 0.999 . S
C3018 H2988 0.950 . S
C3018 C3017 1.524 . S
C3018 C3019 1.415 . S
C3019 H2989 0.950 . S
C3019 C3014 1.363 . S
C3019 C3018 1.415 . S
H3020 C3017 0.999 . S
H3021 C3002 0.913 . S
H3022 C3040 0.951 . S
H3023 C3042 0.951 . S
H3024 C3044 0.950 . S
H3025 C3045 0.950 . S
H3026 C3047 0.950 . S
H3027 C3050 0.950 . S
H3028 C3051 0.950 . S
H3029 C3053 0.950 . S
H3030 C3054 0.950 . S
H3031 C3055 0.951 . S
H3032 C3057 0.951 . S
H3033 C3059 0.950 . S
H3034 C3060 0.950 . S
H3035 C3062 0.950 . S
H3036 C3065 0.950 . S
H3037 C3066 0.950 . S
H3038 C3068 0.950 . S
H3039 C3069 0.950 . S
C3040 H3022 0.951 . S
C3040 C3041 1.366 . S
C3040 C3042 1.388 . S
C3041 C3040 1.366 . S
C3041 C3045 1.384 1_455 S
C3042 H3023 0.951 . S
C3042 C3040 1.388 . S
C3042 C3043 1.366 1_455 S
C3043 C3042 1.366 1_655 S
C3043 C3044 1.414 . S
C3043 C3046 1.499 . S
C3044 H3024 0.950 . S
C3044 C3043 1.414 . S
C3044 C3045 1.374 . S
C3045 H3025 0.950 . S
C3045 C3041 1.384 1_655 S
C3045 C3044 1.374 . S
C3046 C3043 1.499 . S
C3046 C3047 1.373 1_655 S
C3046 C3048 1.389 . S
C3047 H3026 0.950 . S
C3047 C3046 1.373 1_455 S
C3047 C3063 1.377 . S
C3048 C3046 1.389 . S
C3048 C3049 1.524 . S
C3048 C3062 1.377 . S
C3049 C3048 1.524 . S
C3049 C3050 1.397 . S
C3049 C3054 1.363 . S
C3050 H3027 0.950 . S
C3050 C3049 1.397 . S
C3050 C3051 1.334 . S
C3051 H3028 0.950 . S
C3051 C3050 1.334 . S
C3051 C3052 1.287 . S
C3052 C3051 1.287 . S
C3052 C3053 1.524 . S
C3052 H3071 0.913 . S
C3053 H3029 0.950 . S
C3053 C3052 1.524 . S
C3053 C3054 1.415 . S
C3054 H3030 0.950 . S
C3054 C3049 1.363 . S
C3054 C3053 1.415 . S
C3055 H3031 0.951 . S
C3055 C3056 1.366 . S
C3055 C3057 1.388 . S
C3056 C3055 1.366 . S
C3056 C3060 1.385 1_655 S
C3057 H3032 0.951 . S
C3057 C3055 1.388 . S
C3057 C3058 1.375 . S
C3058 C3057 1.375 . S
C3058 C3059 1.404 1_655 S
C3058 C3061 1.501 . S
C3059 H3033 0.950 . S
C3059 C3058 1.404 1_455 S
C3059 C3060 1.374 . S
C3060 H3034 0.950 . S
C3060 C3056 1.385 1_455 S
C3060 C3059 1.374 . S
C3061 C3058 1.501 . S
C3061 C3062 1.372 . S
C3061 C3063 1.390 1_655 S
C3062 H3035 0.950 . S
C3062 C3048 1.377 . S
C3062 C3061 1.372 . S
C3063 C3047 1.377 . S
C3063 C3061 1.390 1_455 S
C3063 C3064 1.524 . S
C3064 C3063 1.524 . S
C3064 C3065 1.397 . S
C3064 C3069 1.363 . S
C3065 H3036 0.950 . S
C3065 C3064 1.397 . S
C3065 C3066 1.334 . S
C3066 H3037 0.950 . S
C3066 C3065 1.334 . S
C3066 C3067 1.287 . S
C3067 C3066 1.287 . S
C3067 C3068 1.524 . S
C3067 H3070 0.999 . S
C3068 H3038 0.950 . S
C3068 C3067 1.524 . S
C3068 C3069 1.415 . S
C3069 H3039 0.950 . S
C3069 C3064 1.363 . S
C3069 C3068 1.415 . S
H3070 C3067 0.999 . S
H3071 C3052 0.913 . S
H3072 C3090 0.951 . S
H3073 C3092 0.951 . S
H3074 C3094 0.950 . S
H3075 C3095 0.950 . S
H3076 C3097 0.950 . S
H3077 C3100 0.950 . S
H3078 C3101 0.950 . S
H3079 C3103 0.950 . S
H3080 C3104 0.950 . S
H3081 C3105 0.951 . S
H3082 C3107 0.951 . S
H3083 C3109 0.950 . S
H3084 C3110 0.950 . S
H3085 C3112 0.950 . S
H3086 C3115 0.950 . S
H3087 C3116 0.950 . S
H3088 C3118 0.950 . S
H3089 C3119 0.950 . S
C3090 H3072 0.951 . S
C3090 C3091 1.366 . S
C3090 C3092 1.388 . S
C3091 C3090 1.366 . S
C3091 C3095 1.385 . S
C3092 H3073 0.951 . S
C3092 C3090 1.388 . S
C3092 C3093 1.366 . S
C3093 C3092 1.366 . S
C3093 C3094 1.414 . S
C3093 C3096 1.499 . S
C3094 H3074 0.950 . S
C3094 C3093 1.414 . S
C3094 C3095 1.374 . S
C3095 H3075 0.950 . S
C3095 C3091 1.385 . S
C3095 C3094 1.374 . S
C3096 C3093 1.499 . S
C3096 C3097 1.373 . S
C3096 C3098 1.389 . S
C3097 H3076 0.950 . S
C3097 C3096 1.373 . S
C3097 C3113 1.377 . S
C3098 C3096 1.389 . S
C3098 C3099 1.524 . S
C3098 C3112 1.377 . S
C3099 C3098 1.524 . S
C3099 C3100 1.397 . S
C3099 C3104 1.363 . S
C3100 H3077 0.950 . S
C3100 C3099 1.397 . S
C3100 C3101 1.334 . S
C3101 H3078 0.950 . S
C3101 C3100 1.334 . S
C3101 C3102 1.287 . S
C3102 C3101 1.287 . S
C3102 C3103 1.524 . S
C3102 H3121 0.913 . S
C3103 H3079 0.950 . S
C3103 C3102 1.524 . S
C3103 C3104 1.415 . S
C3104 H3080 0.950 . S
C3104 C3099 1.363 . S
C3104 C3103 1.415 . S
C3105 H3081 0.951 . S
C3105 C3106 1.366 . S
C3105 C3107 1.388 . S
C3106 C3105 1.366 . S
C3106 C3110 1.385 . S
C3107 H3082 0.951 . S
C3107 C3105 1.388 . S
C3107 C3108 1.366 . S
C3108 C3107 1.366 . S
C3108 C3109 1.414 . S
C3108 C3111 1.499 . S
C3109 H3083 0.950 . S
C3109 C3108 1.414 . S
C3109 C3110 1.374 . S
C3110 H3084 0.950 . S
C3110 C3106 1.385 . S
C3110 C3109 1.374 . S
C3111 C3108 1.499 . S
C3111 C3112 1.373 . S
C3111 C3113 1.389 . S
C3112 H3085 0.950 . S
C3112 C3098 1.377 . S
C3112 C3111 1.373 . S
C3113 C3097 1.377 . S
C3113 C3111 1.389 . S
C3113 C3114 1.524 . S
C3114 C3113 1.524 . S
C3114 C3115 1.397 . S
C3114 C3119 1.363 . S
C3115 H3086 0.950 . S
C3115 C3114 1.397 . S
C3115 C3116 1.334 . S
C3116 H3087 0.950 . S
C3116 C3115 1.334 . S
C3116 C3117 1.287 . S
C3117 C3116 1.287 . S
C3117 C3118 1.524 . S
C3117 H3120 0.999 . S
C3118 H3088 0.950 . S
C3118 C3117 1.524 . S
C3118 C3119 1.415 . S
C3119 H3089 0.950 . S
C3119 C3114 1.363 . S
C3119 C3118 1.415 . S
H3120 C3117 0.999 . S
H3121 C3102 0.913 . S
H3122 C3140 0.951 . S
H3123 C3142 0.951 . S
H3124 C3144 0.950 . S
H3125 C3145 0.950 . S
H3126 C3147 0.950 . S
H3127 C3150 0.950 . S
H3128 C3151 0.950 . S
H3129 C3153 0.935 1_556 S
H3130 C3154 0.950 . S
H3131 C3155 0.951 . S
H3132 C3157 0.951 . S
H3133 C3159 0.950 . S
H3134 C3160 0.950 . S
H3135 C3162 0.950 . S
H3136 C3165 0.950 . S
H3137 C3166 0.950 . S
H3138 C3168 0.950 . S
H3139 C3169 0.950 . S
C3140 H3122 0.951 . S
C3140 C3141 1.366 . S
C3140 C3142 1.388 . S
C3141 C3140 1.366 . S
C3141 C3145 1.385 . S
C3142 H3123 0.951 . S
C3142 C3140 1.388 . S
C3142 C3143 1.366 . S
C3143 C3142 1.366 . S
C3143 C3144 1.414 . S
C3143 C3146 1.499 . S
C3144 H3124 0.950 . S
C3144 C3143 1.414 . S
C3144 C3145 1.374 . S
C3145 H3125 0.950 . S
C3145 C3141 1.385 . S
C3145 C3144 1.374 . S
C3146 C3143 1.499 . S
C3146 C3147 1.373 . S
C3146 C3148 1.389 . S
C3147 H3126 0.950 . S
C3147 C3146 1.373 . S
C3147 C3163 1.377 . S
C3148 C3146 1.389 . S
C3148 C3149 1.524 . S
C3148 C3162 1.377 . S
C3149 C3148 1.524 . S
C3149 C3150 1.397 . S
C3149 C3154 1.363 . S
C3150 H3127 0.950 . S
C3150 C3149 1.397 . S
C3150 C3151 1.334 . S
C3151 H3128 0.950 . S
C3151 C3150 1.334 . S
C3151 C3152 1.287 1_554 S
C3152 C3151 1.287 1_556 S
C3152 C3153 1.520 1_556 S
C3152 H3171 0.913 . S
C3153 H3129 0.935 1_554 S
C3153 C3152 1.520 1_554 S
C3153 C3154 1.437 . S
C3154 H3130 0.950 . S
C3154 C3149 1.363 . S
C3154 C3153 1.437 . S
C3155 H3131 0.951 . S
C3155 C3156 1.366 . S
C3155 C3157 1.388 . S
C3156 C3155 1.366 . S
C3156 C3160 1.385 . S
C3157 H3132 0.951 . S
C3157 C3155 1.388 . S
C3157 C3158 1.366 . S
C3158 C3157 1.366 . S
C3158 C3159 1.414 . S
C3158 C3161 1.499 . S
C3159 H3133 0.950 . S
C3159 C3158 1.414 . S
C3159 C3160 1.374 . S
C3160 H3134 0.950 . S
C3160 C3156 1.385 . S
C3160 C3159 1.374 . S
C3161 C3158 1.499 . S
C3161 C3162 1.373 . S
C3161 C3163 1.389 . S
C3162 H3135 0.950 . S
C3162 C3148 1.377 . S
C3162 C3161 1.373 . S
C3163 C3147 1.377 . S
C3163 C3161 1.389 . S
C3163 C3164 1.524 . S
C3164 C3163 1.524 . S
C3164 C3165 1.397 . S
C3164 C3169 1.363 . S
C3165 H3136 0.950 . S
C3165 C3164 1.397 . S
C3165 C3166 1.334 . S
C3166 H3137 0.950 . S
C3166 C3165 1.334 . S
C3166 C3167 1.287 . S
C3167 C3166 1.287 . S
C3167 C3168 1.524 . S
C3167 H3170 0.999 . S
C3168 H3138 0.950 . S
C3168 C3167 1.524 . S
C3168 C3169 1.415 . S
C3169 H3139 0.950 . S
C3169 C3164 1.363 . S
C3169 C3168 1.415 . S
H3170 C3167 0.999 . S
H3171 C3152 0.913 . S
H3172 C3190 0.951 . S
H3173 C3192 0.951 . S
H3174 C3194 0.950 . S
H3175 C3195 0.950 . S
H3176 C3197 0.950 . S
H3177 C3200 0.950 . S
H3178 C3201 0.950 . S
H3179 C3203 0.950 . S
H3180 C3204 0.950 . S
H3181 C3205 0.951 . S
H3182 C3207 0.951 . S
H3183 C3209 0.950 . S
H3184 C3210 0.950 . S
H3185 C3212 0.950 . S
H3186 C3215 0.950 . S
H3187 C3216 0.950 . S
H3188 C3218 0.950 . S
H3189 C3219 0.950 . S
C3190 H3172 0.951 . S
C3190 C3191 1.365 1_545 S
C3190 C3192 1.388 . S
C3191 C3190 1.365 1_565 S
C3191 C3195 1.385 . S
C3192 H3173 0.951 . S
C3192 C3190 1.388 . S
C3192 C3193 1.409 . S
C3193 C3192 1.409 . S
C3193 C3194 1.374 1_545 S
C3193 C3196 1.498 . S
C3194 H3174 0.950 . S
C3194 C3193 1.374 1_565 S
C3194 C3195 1.374 . S
C3195 H3175 0.950 . S
C3195 C3191 1.385 . S
C3195 C3194 1.374 . S
C3196 C3193 1.498 . S
C3196 C3197 1.347 1_545 S
C3196 C3198 1.415 . S
C3197 H3176 0.950 . S
C3197 C3196 1.347 1_565 S
C3197 C3213 1.377 . S
C3198 C3196 1.415 . S
C3198 C3199 1.524 . S
C3198 C3212 1.377 . S
C3199 C3198 1.524 . S
C3199 C3200 1.397 . S
C3199 C3204 1.363 . S
C3200 H3177 0.950 . S
C3200 C3199 1.397 . S
C3200 C3201 1.334 . S
C3201 H3178 0.950 . S
C3201 C3200 1.334 . S
C3201 C3202 1.287 . S
C3202 C3201 1.287 . S
C3202 C3203 1.524 . S
C3202 H3221 0.913 . S
C3203 H3179 0.950 . S
C3203 C3202 1.524 . S
C3203 C3204 1.415 . S
C3204 H3180 0.950 . S
C3204 C3199 1.363 . S
C3204 C3203 1.415 . S
C3205 H3181 0.951 . S
C3205 C3206 1.366 1_565 S
C3205 C3207 1.388 . S
C3206 C3205 1.366 1_545 S
C3206 C3210 1.385 . S
C3207 H3182 0.951 . S
C3207 C3205 1.388 . S
C3207 C3208 1.366 1_565 S
C3208 C3207 1.366 1_545 S
C3208 C3209 1.414 . S
C3208 C3211 1.499 . S
C3209 H3183 0.950 . S
C3209 C3208 1.414 . S
C3209 C3210 1.374 . S
C3210 H3184 0.950 . S
C3210 C3206 1.385 . S
C3210 C3209 1.374 . S
C3211 C3208 1.499 . S
C3211 C3212 1.373 . S
C3211 C3213 1.389 1_545 S
C3212 H3185 0.950 . S
C3212 C3198 1.377 . S
C3212 C3211 1.373 . S
C3213 C3197 1.377 . S
C3213 C3211 1.389 1_565 S
C3213 C3214 1.524 . S
C3214 C3213 1.524 . S
C3214 C3215 1.397 . S
C3214 C3219 1.363 . S
C3215 H3186 0.950 . S
C3215 C3214 1.397 . S
C3215 C3216 1.334 . S
C3216 H3187 0.950 . S
C3216 C3215 1.334 . S
C3216 C3217 1.287 . S
C3217 C3216 1.287 . S
C3217 C3218 1.524 . S
C3217 H3220 0.999 . S
C3218 H3188 0.950 . S
C3218 C3217 1.524 . S
C3218 C3219 1.415 . S
C3219 H3189 0.950 . S
C3219 C3214 1.363 . S
C3219 C3218 1.415 . S
H3220 C3217 0.999 . S
H3221 C3202 0.913 . S
H3222 C3240 0.951 . S
H3223 C3242 0.951 . S
H3224 C3244 0.950 . S
H3225 C3245 0.950 . S
H3226 C3247 0.950 . S
H3227 C3250 0.950 . S
H3228 C3251 0.950 . S
H3229 C3253 0.949 . S
H3230 C3254 0.950 . S
H3231 C3255 0.951 . S
H3232 C3257 0.951 . S
H3233 C3259 0.950 . S
H3234 C3260 0.950 . S
H3235 C3262 0.950 . S
H3236 C3265 0.950 . S
H3237 C3266 0.950 . S
H3238 C3268 0.950 . S
H3239 C3269 0.950 . S
C3240 H3222 0.951 . S
C3240 C3241 1.366 . S
C3240 C3242 1.388 . S
C3241 C3240 1.366 . S
C3241 C3245 1.385 . S
C3242 H3223 0.951 . S
C3242 C3240 1.388 . S
C3242 C3243 1.366 . S
C3243 C3242 1.366 . S
C3243 C3244 1.414 . S
C3243 C3246 1.499 . S
C3244 H3224 0.950 . S
C3244 C3243 1.414 . S
C3244 C3245 1.374 . S
C3245 H3225 0.950 . S
C3245 C3241 1.385 . S
C3245 C3244 1.374 . S
C3246 C3243 1.499 . S
C3246 C3247 1.373 . S
C3246 C3248 1.389 . S
C3247 H3226 0.950 . S
C3247 C3246 1.373 . S
C3247 C3263 1.377 . S
C3248 C3246 1.389 . S
C3248 C3249 1.524 . S
C3248 C3262 1.377 . S
C3249 C3248 1.524 . S
C3249 C3250 1.397 . S
C3249 C3254 1.363 . S
C3250 H3227 0.950 . S
C3250 C3249 1.397 . S
C3250 C3251 1.334 . S
C3251 H3228 0.950 . S
C3251 C3250 1.334 . S
C3251 C3252 1.249 1_545 S
C3252 C3251 1.249 1_565 S
C3252 C3253 1.509 1_565 S
C3252 H3271 0.976 . S
C3253 H3229 0.949 . S
C3253 C3252 1.509 1_545 S
C3253 C3254 1.415 . S
C3254 H3230 0.950 . S
C3254 C3249 1.363 . S
C3254 C3253 1.415 . S
C3255 H3231 0.951 . S
C3255 C3256 1.366 . S
C3255 C3257 1.388 . S
C3256 C3255 1.366 . S
C3256 C3260 1.385 . S
C3257 H3232 0.951 . S
C3257 C3255 1.388 . S
C3257 C3258 1.366 . S
C3258 C3257 1.366 . S
C3258 C3259 1.414 . S
C3258 C3261 1.499 . S
C3259 H3233 0.950 . S
C3259 C3258 1.414 . S
C3259 C3260 1.374 . S
C3260 H3234 0.950 . S
C3260 C3256 1.385 . S
C3260 C3259 1.374 . S
C3261 C3258 1.499 . S
C3261 C3262 1.373 . S
C3261 C3263 1.389 . S
C3262 H3235 0.950 . S
C3262 C3248 1.377 . S
C3262 C3261 1.373 . S
C3263 C3247 1.377 . S
C3263 C3261 1.389 . S
C3263 C3264 1.524 . S
C3264 C3263 1.524 . S
C3264 C3265 1.397 . S
C3264 C3269 1.363 . S
C3265 H3236 0.950 . S
C3265 C3264 1.397 . S
C3265 C3266 1.334 . S
C3266 H3237 0.950 . S
C3266 C3265 1.334 . S
C3266 C3267 1.287 . S
C3267 C3266 1.287 . S
C3267 C3268 1.524 . S
C3267 H3270 0.999 . S
C3268 H3238 0.950 . S
C3268 C3267 1.524 . S
C3268 C3269 1.415 . S
C3269 H3239 0.950 . S
C3269 C3264 1.363 . S
C3269 C3268 1.415 . S
H3270 C3267 0.999 . S
H3271 C3252 0.976 . S
H3272 C3290 0.951 . S
H3273 C3292 0.951 . S
H3274 C3294 0.950 . S
H3275 C3295 0.950 . S
H3276 C3297 0.950 . S
H3277 C3300 0.950 . S
H3278 C3301 0.950 . S
H3279 C3303 0.950 . S
H3280 C3304 0.950 . S
H3281 C3305 0.951 . S
H3282 C3307 0.951 . S
H3283 C3309 0.950 . S
H3284 C3310 0.950 . S
H3285 C3312 0.950 . S
H3286 C3315 0.950 . S
H3287 C3316 0.950 . S
H3288 C3318 0.950 . S
H3289 C3319 0.950 . S
C3290 H3272 0.951 . S
C3290 C3291 1.366 . S
C3290 C3292 1.388 . S
C3291 C3290 1.366 . S
C3291 C3295 1.385 . S
C3292 H3273 0.951 . S
C3292 C3290 1.388 . S
C3292 C3293 1.366 . S
C3293 C3292 1.366 . S
C3293 C3294 1.414 . S
C3293 C3296 1.499 . S
C3294 H3274 0.950 . S
C3294 C3293 1.414 . S
C3294 C3295 1.374 . S
C3295 H3275 0.950 . S
C3295 C3291 1.385 . S
C3295 C3294 1.374 . S
C3296 C3293 1.499 . S
C3296 C3297 1.373 . S
C3296 C3298 1.389 . S
C3297 H3276 0.950 . S
C3297 C3296 1.373 . S
C3297 C3313 1.377 . S
C3298 C3296 1.389 . S
C3298 C3299 1.524 . S
C3298 C3312 1.377 . S
C3299 C3298 1.524 . S
C3299 C3300 1.397 . S
C3299 C3304 1.363 . S
C3300 H3277 0.950 . S
C3300 C3299 1.397 . S
C3300 C3301 1.334 . S
C3301 H3278 0.950 . S
C3301 C3300 1.334 . S
C3301 C3302 1.287 . S
C3302 C3301 1.287 . S
C3302 C3303 1.524 . S
C3302 H3321 0.913 . S
C3303 H3279 0.950 . S
C3303 C3302 1.524 . S
C3303 C3304 1.415 . S
C3304 H3280 0.950 . S
C3304 C3299 1.363 . S
C3304 C3303 1.415 . S
C3305 H3281 0.951 . S
C3305 C3306 1.366 . S
C3305 C3307 1.388 . S
C3306 C3305 1.366 . S
C3306 C3310 1.385 . S
C3307 H3282 0.951 . S
C3307 C3305 1.388 . S
C3307 C3308 1.366 . S
C3308 C3307 1.366 . S
C3308 C3309 1.414 . S
C3308 C3311 1.499 . S
C3309 H3283 0.950 . S
C3309 C3308 1.414 . S
C3309 C3310 1.374 . S
C3310 H3284 0.950 . S
C3310 C3306 1.385 . S
C3310 C3309 1.374 . S
C3311 C3308 1.499 . S
C3311 C3312 1.373 . S
C3311 C3313 1.389 . S
C3312 H3285 0.950 . S
C3312 C3298 1.377 . S
C3312 C3311 1.373 . S
C3313 C3297 1.377 . S
C3313 C3311 1.389 . S
C3313 C3314 1.524 . S
C3314 C3313 1.524 . S
C3314 C3315 1.397 . S
C3314 C3319 1.363 . S
C3315 H3286 0.950 . S
C3315 C3314 1.397 . S
C3315 C3316 1.334 . S
C3316 H3287 0.950 . S
C3316 C3315 1.334 . S
C3316 C3317 1.287 . S
C3317 C3316 1.287 . S
C3317 C3318 1.524 . S
C3317 H3320 0.999 . S
C3318 H3288 0.950 . S
C3318 C3317 1.524 . S
C3318 C3319 1.415 . S
C3319 H3289 0.950 . S
C3319 C3314 1.363 . S
C3319 C3318 1.415 . S
H3320 C3317 0.999 . S
H3321 C3302 0.913 . S
H3322 C3340 0.951 . S
H3323 C3342 0.951 . S
H3324 C3344 0.950 . S
H3325 C3345 0.950 . S
H3326 C3347 0.950 . S
H3327 C3350 0.950 . S
H3328 C3351 0.950 . S
H3329 C3353 0.950 . S
H3330 C3354 0.950 . S
H3331 C3355 0.951 . S
H3332 C3357 0.951 . S
H3333 C3359 0.950 . S
H3334 C3360 0.950 . S
H3335 C3362 0.950 . S
H3336 C3365 0.950 . S
H3337 C3366 0.950 . S
H3338 C3368 0.950 . S
H3339 C3369 0.950 . S
C3340 H3322 0.951 . S
C3340 C3341 1.366 . S
C3340 C3342 1.388 . S
C3341 C3340 1.366 . S
C3341 C3345 1.385 . S
C3342 H3323 0.951 . S
C3342 C3340 1.388 . S
C3342 C3343 1.366 . S
C3343 C3342 1.366 . S
C3343 C3344 1.414 . S
C3343 C3346 1.499 . S
C3344 H3324 0.950 . S
C3344 C3343 1.414 . S
C3344 C3345 1.374 . S
C3345 H3325 0.950 . S
C3345 C3341 1.385 . S
C3345 C3344 1.374 . S
C3346 C3343 1.499 . S
C3346 C3347 1.373 . S
C3346 C3348 1.389 . S
C3347 H3326 0.950 . S
C3347 C3346 1.373 . S
C3347 C3363 1.377 . S
C3348 C3346 1.389 . S
C3348 C3349 1.524 . S
C3348 C3362 1.377 . S
C3349 C3348 1.524 . S
C3349 C3350 1.397 . S
C3349 C3354 1.363 . S
C3350 H3327 0.950 . S
C3350 C3349 1.397 . S
C3350 C3351 1.334 . S
C3351 H3328 0.950 . S
C3351 C3350 1.334 . S
C3351 C3352 1.287 . S
C3352 C3351 1.287 . S
C3352 C3353 1.524 . S
C3352 H3371 0.913 . S
C3353 H3329 0.950 . S
C3353 C3352 1.524 . S
C3353 C3354 1.415 . S
C3354 H3330 0.950 . S
C3354 C3349 1.363 . S
C3354 C3353 1.415 . S
C3355 H3331 0.951 . S
C3355 C3356 1.366 . S
C3355 C3357 1.388 . S
C3356 C3355 1.366 . S
C3356 C3360 1.385 . S
C3357 H3332 0.951 . S
C3357 C3355 1.388 . S
C3357 C3358 1.366 . S
C3358 C3357 1.366 . S
C3358 C3359 1.414 . S
C3358 C3361 1.499 . S
C3359 H3333 0.950 . S
C3359 C3358 1.414 . S
C3359 C3360 1.374 . S
C3360 H3334 0.950 . S
C3360 C3356 1.385 . S
C3360 C3359 1.374 . S
C3361 C3358 1.499 . S
C3361 C3362 1.373 . S
C3361 C3363 1.389 . S
C3362 H3335 0.950 . S
C3362 C3348 1.377 . S
C3362 C3361 1.373 . S
C3363 C3347 1.377 . S
C3363 C3361 1.389 . S
C3363 C3364 1.524 . S
C3364 C3363 1.524 . S
C3364 C3365 1.397 . S
C3364 C3369 1.363 . S
C3365 H3336 0.950 . S
C3365 C3364 1.397 . S
C3365 C3366 1.334 . S
C3366 H3337 0.950 . S
C3366 C3365 1.334 . S
C3366 C3367 1.287 . S
C3367 C3366 1.287 . S
C3367 C3368 1.524 . S
C3367 H3370 0.999 . S
C3368 H3338 0.950 . S
C3368 C3367 1.524 . S
C3368 C3369 1.415 . S
C3369 H3339 0.950 . S
C3369 C3364 1.363 . S
C3369 C3368 1.415 . S
H3370 C3367 0.999 . S
H3371 C3352 0.913 . S
H3372 C3390 0.951 . S
H3373 C3392 0.951 . S
H3374 C3394 0.950 . S
H3375 C3395 0.950 . S
H3376 C3397 0.950 . S
H3377 C3400 0.950 . S
H3378 C3401 0.950 . S
H3379 C3403 0.950 . S
H3380 C3404 0.950 . S
H3381 C3405 0.951 . S
H3382 C3407 0.951 . S
H3383 C3409 0.950 . S
H3384 C3410 0.950 . S
H3385 C3412 0.950 . S
H3386 C3415 0.950 . S
H3387 C3416 0.950 . S
H3388 C3418 0.950 . S
H3389 C3419 0.950 . S
C3390 H3372 0.951 . S
C3390 C3391 1.366 . S
C3390 C3392 1.388 . S
C3391 C3390 1.366 . S
C3391 C3395 1.385 . S
C3392 H3373 0.951 . S
C3392 C3390 1.388 . S
C3392 C3393 1.366 . S
C3393 C3392 1.366 . S
C3393 C3394 1.414 . S
C3393 C3396 1.499 . S
C3394 H3374 0.950 . S
C3394 C3393 1.414 . S
C3394 C3395 1.374 . S
C3395 H3375 0.950 . S
C3395 C3391 1.385 . S
C3395 C3394 1.374 . S
C3396 C3393 1.499 . S
C3396 C3397 1.373 . S
C3396 C3398 1.389 . S
C3397 H3376 0.950 . S
C3397 C3396 1.373 . S
C3397 C3413 1.377 . S
C3398 C3396 1.389 . S
C3398 C3399 1.524 . S
C3398 C3412 1.377 . S
C3399 C3398 1.524 . S
C3399 C3400 1.397 . S
C3399 C3404 1.363 . S
C3400 H3377 0.950 . S
C3400 C3399 1.397 . S
C3400 C3401 1.334 . S
C3401 H3378 0.950 . S
C3401 C3400 1.334 . S
C3401 C3402 1.287 . S
C3402 C3401 1.287 . S
C3402 C3403 1.524 . S
C3402 H3421 0.913 . S
C3403 H3379 0.950 . S
C3403 C3402 1.524 . S
C3403 C3404 1.415 . S
C3404 H3380 0.950 . S
C3404 C3399 1.363 . S
C3404 C3403 1.415 . S
C3405 H3381 0.951 . S
C3405 C3406 1.366 . S
C3405 C3407 1.388 . S
C3406 C3405 1.366 . S
C3406 C3410 1.385 . S
C3407 H3382 0.951 . S
C3407 C3405 1.388 . S
C3407 C3408 1.366 . S
C3408 C3407 1.366 . S
C3408 C3409 1.414 . S
C3408 C3411 1.499 . S
C3409 H3383 0.950 . S
C3409 C3408 1.414 . S
C3409 C3410 1.374 . S
C3410 H3384 0.950 . S
C3410 C3406 1.385 . S
C3410 C3409 1.374 . S
C3411 C3408 1.499 . S
C3411 C3412 1.373 . S
C3411 C3413 1.389 . S
C3412 H3385 0.950 . S
C3412 C3398 1.377 . S
C3412 C3411 1.373 . S
C3413 C3397 1.377 . S
C3413 C3411 1.389 . S
C3413 C3414 1.524 . S
C3414 C3413 1.524 . S
C3414 C3415 1.397 . S
C3414 C3419 1.363 . S
C3415 H3386 0.950 . S
C3415 C3414 1.397 . S
C3415 C3416 1.334 . S
C3416 H3387 0.950 . S
C3416 C3415 1.334 . S
C3416 C3417 1.287 . S
C3417 C3416 1.287 . S
C3417 C3418 1.524 . S
C3417 H3420 0.999 . S
C3418 H3388 0.950 . S
C3418 C3417 1.524 . S
C3418 C3419 1.415 . S
C3419 H3389 0.950 . S
C3419 C3414 1.363 . S
C3419 C3418 1.415 . S
H3420 C3417 0.999 . S
H3421 C3402 0.913 . S
H3422 C3440 0.951 . S
H3423 C3442 0.950 . S
H3424 C3444 0.947 . S
H3425 C3445 0.949 . S
H3426 C3447 0.950 . S
H3427 C3450 0.950 . S
H3428 C3451 0.950 . S
H3429 C3453 0.950 . S
H3430 C3454 0.950 . S
H3431 C3455 0.951 . S
H3432 C3457 0.951 . S
H3433 C3459 0.950 . S
H3434 C3460 0.950 . S
H3435 C3462 0.950 . S
H3436 C3465 0.950 . S
H3437 C3466 0.950 . S
H3438 C3468 0.950 . S
H3439 C3469 0.950 . S
C3440 H3422 0.951 . S
C3440 C3441 1.363 . S
C3440 C3442 1.387 . S
C3441 C3440 1.363 . S
C3441 C3445 1.386 1_556 S
C3442 H3423 0.950 . S
C3442 C3440 1.387 . S
C3442 C3443 1.366 . S
C3443 C3442 1.366 . S
C3443 C3444 1.409 1_556 S
C3443 C3446 1.500 . S
C3444 H3424 0.947 . S
C3444 C3443 1.409 1_554 S
C3444 C3445 1.374 . S
C3445 H3425 0.949 . S
C3445 C3441 1.386 1_554 S
C3445 C3444 1.374 . S
C3446 C3443 1.500 . S
C3446 C3447 1.361 1_556 S
C3446 C3448 1.402 . S
C3447 H3426 0.950 . S
C3447 C3446 1.361 1_554 S
C3447 C3463 1.377 . S
C3448 C3446 1.402 . S
C3448 C3449 1.524 . S
C3448 C3462 1.377 . S
C3449 C3448 1.524 . S
C3449 C3450 1.397 . S
C3449 C3454 1.363 . S
C3450 H3427 0.950 . S
C3450 C3449 1.397 . S
C3450 C3451 1.334 . S
C3451 H3428 0.950 . S
C3451 C3450 1.334 . S
C3451 C3452 1.287 . S
C3452 C3451 1.287 . S
C3452 C3453 1.524 . S
C3452 H3471 0.913 . S
C3453 H3429 0.950 . S
C3453 C3452 1.524 . S
C3453 C3454 1.415 . S
C3454 H3430 0.950 . S
C3454 C3449 1.363 . S
C3454 C3453 1.415 . S
C3455 H3431 0.951 . S
C3455 C3456 1.366 . S
C3455 C3457 1.388 . S
C3456 C3455 1.366 . S
C3456 C3460 1.385 . S
C3457 H3432 0.951 . S
C3457 C3455 1.388 . S
C3457 C3458 1.366 . S
C3458 C3457 1.366 . S
C3458 C3459 1.414 . S
C3458 C3461 1.499 . S
C3459 H3433 0.950 . S
C3459 C3458 1.414 . S
C3459 C3460 1.374 . S
C3460 H3434 0.950 . S
C3460 C3456 1.385 . S
C3460 C3459 1.374 . S
C3461 C3458 1.499 . S
C3461 C3462 1.373 1_554 S
C3461 C3463 1.389 . S
C3462 H3435 0.950 . S
C3462 C3448 1.377 . S
C3462 C3461 1.373 1_556 S
C3463 C3447 1.377 . S
C3463 C3461 1.389 . S
C3463 C3464 1.524 . S
C3464 C3463 1.524 . S
C3464 C3465 1.397 . S
C3464 C3469 1.363 . S
C3465 H3436 0.950 . S
C3465 C3464 1.397 . S
C3465 C3466 1.334 . S
C3466 H3437 0.950 . S
C3466 C3465 1.334 . S
C3466 C3467 1.287 . S
C3467 C3466 1.287 . S
C3467 C3468 1.524 . S
C3467 H3470 0.999 . S
C3468 H3438 0.950 . S
C3468 C3467 1.524 . S
C3468 C3469 1.415 . S
C3469 H3439 0.950 . S
C3469 C3464 1.363 . S
C3469 C3468 1.415 . S
H3470 C3467 0.999 . S
H3471 C3452 0.913 . S
H3472 C3490 0.951 . S
H3473 C3492 0.951 . S
H3474 C3494 0.950 . S
H3475 C3495 0.950 . S
H3476 C3497 0.950 . S
H3477 C3500 0.950 . S
H3478 C3501 0.950 . S
H3479 C3503 0.950 . S
H3480 C3504 0.950 . S
H3481 C3505 0.951 . S
H3482 C3507 0.951 . S
H3483 C3509 0.950 . S
H3484 C3510 0.950 . S
H3485 C3512 0.950 . S
H3486 C3515 0.950 . S
H3487 C3516 0.950 . S
H3488 C3518 0.950 . S
H3489 C3519 0.950 . S
C3490 H3472 0.951 . S
C3490 C3491 1.366 . S
C3490 C3492 1.388 . S
C3491 C3490 1.366 . S
C3491 C3495 1.385 . S
C3492 H3473 0.951 . S
C3492 C3490 1.388 . S
C3492 C3493 1.366 . S
C3493 C3492 1.366 . S
C3493 C3494 1.414 . S
C3493 C3496 1.499 . S
C3494 H3474 0.950 . S
C3494 C3493 1.414 . S
C3494 C3495 1.374 . S
C3495 H3475 0.950 . S
C3495 C3491 1.385 . S
C3495 C3494 1.374 . S
C3496 C3493 1.499 . S
C3496 C3497 1.373 . S
C3496 C3498 1.389 . S
C3497 H3476 0.950 . S
C3497 C3496 1.373 . S
C3497 C3513 1.377 . S
C3498 C3496 1.389 . S
C3498 C3499 1.524 . S
C3498 C3512 1.377 . S
C3499 C3498 1.524 . S
C3499 C3500 1.397 . S
C3499 C3504 1.363 . S
C3500 H3477 0.950 . S
C3500 C3499 1.397 . S
C3500 C3501 1.334 . S
C3501 H3478 0.950 . S
C3501 C3500 1.334 . S
C3501 C3502 1.287 . S
C3502 C3501 1.287 . S
C3502 C3503 1.524 . S
C3502 H3521 0.913 . S
C3503 H3479 0.950 . S
C3503 C3502 1.524 . S
C3503 C3504 1.415 . S
C3504 H3480 0.950 . S
C3504 C3499 1.363 . S
C3504 C3503 1.415 . S
C3505 H3481 0.951 . S
C3505 C3506 1.366 . S
C3505 C3507 1.388 . S
C3506 C3505 1.366 . S
C3506 C3510 1.385 . S
C3507 H3482 0.951 . S
C3507 C3505 1.388 . S
C3507 C3508 1.366 . S
C3508 C3507 1.366 . S
C3508 C3509 1.414 . S
C3508 C3511 1.499 . S
C3509 H3483 0.950 . S
C3509 C3508 1.414 . S
C3509 C3510 1.374 . S
C3510 H3484 0.950 . S
C3510 C3506 1.385 . S
C3510 C3509 1.374 . S
C3511 C3508 1.499 . S
C3511 C3512 1.373 . S
C3511 C3513 1.389 . S
C3512 H3485 0.950 . S
C3512 C3498 1.377 . S
C3512 C3511 1.373 . S
C3513 C3497 1.377 . S
C3513 C3511 1.389 . S
C3513 C3514 1.524 . S
C3514 C3513 1.524 . S
C3514 C3515 1.397 . S
C3514 C3519 1.363 . S
C3515 H3486 0.950 . S
C3515 C3514 1.397 . S
C3515 C3516 1.334 . S
C3516 H3487 0.950 . S
C3516 C3515 1.334 . S
C3516 C3517 1.287 . S
C3517 C3516 1.287 . S
C3517 C3518 1.524 . S
C3517 H3520 0.999 . S
C3518 H3488 0.950 . S
C3518 C3517 1.524 . S
C3518 C3519 1.415 . S
C3519 H3489 0.950 . S
C3519 C3514 1.363 . S
C3519 C3518 1.415 . S
H3520 C3517 0.999 . S
H3521 C3502 0.913 . S
H3522 C3540 0.951 . S
H3523 C3542 0.951 . S
H3524 C3544 0.950 . S
H3525 C3545 0.950 . S
H3526 C3547 0.950 . S
H3527 C3550 0.950 . S
H3528 C3551 0.950 . S
H3529 C3553 0.950 . S
H3530 C3554 0.950 . S
H3531 C3555 0.951 . S
H3532 C3557 0.951 . S
H3533 C3559 0.950 . S
H3534 C3560 0.950 . S
H3535 C3562 0.950 . S
H3536 C3565 0.950 . S
H3537 C3566 0.950 . S
H3538 C3568 0.950 . S
H3539 C3569 0.950 . S
C3540 H3522 0.951 . S
C3540 C3541 1.366 . S
C3540 C3542 1.388 . S
C3541 C3540 1.366 . S
C3541 C3545 1.385 . S
C3542 H3523 0.951 . S
C3542 C3540 1.388 . S
C3542 C3543 1.366 . S
C3543 C3542 1.366 . S
C3543 C3544 1.414 . S
C3543 C3546 1.499 . S
C3544 H3524 0.950 . S
C3544 C3543 1.414 . S
C3544 C3545 1.374 . S
C3545 H3525 0.950 . S
C3545 C3541 1.385 . S
C3545 C3544 1.374 . S
C3546 C3543 1.499 . S
C3546 C3547 1.373 . S
C3546 C3548 1.389 . S
C3547 H3526 0.950 . S
C3547 C3546 1.373 . S
C3547 C3563 1.377 . S
C3548 C3546 1.389 . S
C3548 C3549 1.524 . S
C3548 C3562 1.377 . S
C3549 C3548 1.524 . S
C3549 C3550 1.397 . S
C3549 C3554 1.363 . S
C3550 H3527 0.950 . S
C3550 C3549 1.397 . S
C3550 C3551 1.334 . S
C3551 H3528 0.950 . S
C3551 C3550 1.334 . S
C3551 C3552 1.287 . S
C3552 C3551 1.287 . S
C3552 C3553 1.524 . S
C3552 H3571 0.913 . S
C3553 H3529 0.950 . S
C3553 C3552 1.524 . S
C3553 C3554 1.415 . S
C3554 H3530 0.950 . S
C3554 C3549 1.363 . S
C3554 C3553 1.415 . S
C3555 H3531 0.951 . S
C3555 C3556 1.366 . S
C3555 C3557 1.388 . S
C3556 C3555 1.366 . S
C3556 C3560 1.385 . S
C3557 H3532 0.951 . S
C3557 C3555 1.388 . S
C3557 C3558 1.366 . S
C3558 C3557 1.366 . S
C3558 C3559 1.414 . S
C3558 C3561 1.499 . S
C3559 H3533 0.950 . S
C3559 C3558 1.414 . S
C3559 C3560 1.374 . S
C3560 H3534 0.950 . S
C3560 C3556 1.385 . S
C3560 C3559 1.374 . S
C3561 C3558 1.499 . S
C3561 C3562 1.373 . S
C3561 C3563 1.389 . S
C3562 H3535 0.950 . S
C3562 C3548 1.377 . S
C3562 C3561 1.373 . S
C3563 C3547 1.377 . S
C3563 C3561 1.389 . S
C3563 C3564 1.524 . S
C3564 C3563 1.524 . S
C3564 C3565 1.397 . S
C3564 C3569 1.363 . S
C3565 H3536 0.950 . S
C3565 C3564 1.397 . S
C3565 C3566 1.334 . S
C3566 H3537 0.950 . S
C3566 C3565 1.334 . S
C3566 C3567 1.287 . S
C3567 C3566 1.287 . S
C3567 C3568 1.524 . S
C3567 H3570 0.999 . S
C3568 H3538 0.950 . S
C3568 C3567 1.524 . S
C3568 C3569 1.415 . S
C3569 H3539 0.950 . S
C3569 C3564 1.363 . S
C3569 C3568 1.415 . S
H3570 C3567 0.999 . S
H3571 C3552 0.913 . S
H3572 C3590 0.951 . S
H3573 C3592 0.951 . S
H3574 C3594 0.950 . S
H3575 C3595 0.950 . S
H3576 C3597 0.950 . S
H3577 C3600 0.950 . S
H3578 C3601 0.950 . S
H3579 C3603 0.950 . S
H3580 C3604 0.950 . S
H3581 C3605 0.951 . S
H3582 C3607 0.951 . S
H3583 C3609 0.950 . S
H3584 C3610 0.950 . S
H3585 C3612 0.950 . S
H3586 C3615 0.950 . S
H3587 C3616 0.950 . S
H3588 C3618 0.950 . S
H3589 C3619 0.950 . S
C3590 H3572 0.951 . S
C3590 C3591 1.366 . S
C3590 C3592 1.388 . S
C3591 C3590 1.366 . S
C3591 C3595 1.385 . S
C3592 H3573 0.951 . S
C3592 C3590 1.388 . S
C3592 C3593 1.366 . S
C3593 C3592 1.366 . S
C3593 C3594 1.414 . S
C3593 C3596 1.499 . S
C3594 H3574 0.950 . S
C3594 C3593 1.414 . S
C3594 C3595 1.374 . S
C3595 H3575 0.950 . S
C3595 C3591 1.385 . S
C3595 C3594 1.374 . S
C3596 C3593 1.499 . S
C3596 C3597 1.373 . S
C3596 C3598 1.389 . S
C3597 H3576 0.950 . S
C3597 C3596 1.373 . S
C3597 C3613 1.377 . S
C3598 C3596 1.389 . S
C3598 C3599 1.524 . S
C3598 C3612 1.377 . S
C3599 C3598 1.524 . S
C3599 C3600 1.397 . S
C3599 C3604 1.363 . S
C3600 H3577 0.950 . S
C3600 C3599 1.397 . S
C3600 C3601 1.334 . S
C3601 H3578 0.950 . S
C3601 C3600 1.334 . S
C3601 C3602 1.287 . S
C3602 C3601 1.287 . S
C3602 C3603 1.524 . S
C3602 H3621 0.913 . S
C3603 H3579 0.950 . S
C3603 C3602 1.524 . S
C3603 C3604 1.415 . S
C3604 H3580 0.950 . S
C3604 C3599 1.363 . S
C3604 C3603 1.415 . S
C3605 H3581 0.951 . S
C3605 C3606 1.366 . S
C3605 C3607 1.388 . S
C3606 C3605 1.366 . S
C3606 C3610 1.385 . S
C3607 H3582 0.951 . S
C3607 C3605 1.388 . S
C3607 C3608 1.366 . S
C3608 C3607 1.366 . S
C3608 C3609 1.414 . S
C3608 C3611 1.499 . S
C3609 H3583 0.950 . S
C3609 C3608 1.414 . S
C3609 C3610 1.374 . S
C3610 H3584 0.950 . S
C3610 C3606 1.385 . S
C3610 C3609 1.374 . S
C3611 C3608 1.499 . S
C3611 C3612 1.373 . S
C3611 C3613 1.389 . S
C3612 H3585 0.950 . S
C3612 C3598 1.377 . S
C3612 C3611 1.373 . S
C3613 C3597 1.377 . S
C3613 C3611 1.389 . S
C3613 C3614 1.524 . S
C3614 C3613 1.524 . S
C3614 C3615 1.397 . S
C3614 C3619 1.363 . S
C3615 H3586 0.950 . S
C3615 C3614 1.397 . S
C3615 C3616 1.334 1_545 S
C3616 H3587 0.950 . S
C3616 C3615 1.334 1_565 S
C3616 C3617 1.294 . S
C3617 C3616 1.294 . S
C3617 C3618 1.494 1_565 S
C3617 H3620 1.023 . S
C3618 H3588 0.950 . S
C3618 C3617 1.494 1_545 S
C3618 C3619 1.415 . S
C3619 H3589 0.950 . S
C3619 C3614 1.363 . S
C3619 C3618 1.415 . S
H3620 C3617 1.023 . S
H3621 C3602 0.913 . S
H3622 C3640 0.951 . S
H3623 C3642 0.951 . S
H3624 C3644 0.950 . S
H3625 C3645 0.950 . S
H3626 C3647 0.950 . S
H3627 C3650 0.950 . S
H3628 C3651 0.950 . S
H3629 C3653 0.950 . S
H3630 C3654 0.950 . S
H3631 C3655 0.951 . S
H3632 C3657 0.951 . S
H3633 C3659 0.949 . S
H3634 C3660 0.953 1_655 S
H3635 C3662 0.950 . S
H3636 C3665 0.950 . S
H3637 C3666 0.950 . S
H3638 C3668 0.950 . S
H3639 C3669 0.950 . S
C3640 H3622 0.951 . S
C3640 C3641 1.366 . S
C3640 C3642 1.387 . S
C3641 C3640 1.366 . S
C3641 C3645 1.385 1_655 S
C3642 H3623 0.951 . S
C3642 C3640 1.387 . S
C3642 C3643 1.369 1_655 S
C3643 C3642 1.369 1_455 S
C3643 C3644 1.414 . S
C3643 C3646 1.499 . S
C3644 H3624 0.950 . S
C3644 C3643 1.414 . S
C3644 C3645 1.374 . S
C3645 H3625 0.950 . S
C3645 C3641 1.385 1_455 S
C3645 C3644 1.374 . S
C3646 C3643 1.499 . S
C3646 C3647 1.373 1_455 S
C3646 C3648 1.389 . S
C3647 H3626 0.950 . S
C3647 C3646 1.373 1_655 S
C3647 C3663 1.377 . S
C3648 C3646 1.389 . S
C3648 C3649 1.524 . S
C3648 C3662 1.377 . S
C3649 C3648 1.524 . S
C3649 C3650 1.397 . S
C3649 C3654 1.363 . S
C3650 H3627 0.950 . S
C3650 C3649 1.397 . S
C3650 C3651 1.334 . S
C3651 H3628 0.950 . S
C3651 C3650 1.334 . S
C3651 C3652 1.287 . S
C3652 C3651 1.287 . S
C3652 C3653 1.524 . S
C3652 H3671 0.913 . S
C3653 H3629 0.950 . S
C3653 C3652 1.524 . S
C3653 C3654 1.415 . S
C3654 H3630 0.950 . S
C3654 C3649 1.363 . S
C3654 C3653 1.415 . S
C3655 H3631 0.951 . S
C3655 C3656 1.366 . S
C3655 C3657 1.388 . S
C3656 C3655 1.366 . S
C3656 C3660 1.384 . S
C3657 H3632 0.951 . S
C3657 C3655 1.388 . S
C3657 C3658 1.364 . S
C3658 C3657 1.364 . S
C3658 C3659 1.417 1_455 S
C3658 C3661 1.501 . S
C3659 H3633 0.949 . S
C3659 C3658 1.417 1_655 S
C3659 C3660 1.375 1_655 S
C3660 H3634 0.953 1_455 S
C3660 C3656 1.384 . S
C3660 C3659 1.375 1_455 S
C3661 C3658 1.501 . S
C3661 C3662 1.374 . S
C3661 C3663 1.389 1_455 S
C3662 H3635 0.950 . S
C3662 C3648 1.377 . S
C3662 C3661 1.374 . S
C3663 C3647 1.377 . S
C3663 C3661 1.389 1_655 S
C3663 C3664 1.524 . S
C3664 C3663 1.524 . S
C3664 C3665 1.397 . S
C3664 C3669 1.363 . S
C3665 H3636 0.950 . S
C3665 C3664 1.397 . S
C3665 C3666 1.334 . S
C3666 H3637 0.950 . S
C3666 C3665 1.334 . S
C3666 C3667 1.287 . S
C3667 C3666 1.287 . S
C3667 C3668 1.524 . S
C3667 H3670 0.999 . S
C3668 H3638 0.950 . S
C3668 C3667 1.524 . S
C3668 C3669 1.415 . S
C3669 H3639 0.950 . S
C3669 C3664 1.363 . S
C3669 C3668 1.415 . S
H3670 C3667 0.999 . S
H3671 C3652 0.913 . S
H3672 C3690 0.951 . S
H3673 C3692 0.951 . S
H3674 C3694 0.950 . S
H3675 C3695 0.950 . S
H3676 C3697 0.950 . S
H3677 C3700 0.950 . S
H3678 C3701 0.950 . S
H3679 C3703 0.950 . S
H3680 C3704 0.950 . S
H3681 C3705 0.951 . S
H3682 C3707 0.951 . S
H3683 C3709 0.950 . S
H3684 C3710 0.950 . S
H3685 C3712 0.950 . S
H3686 C3715 0.950 . S
H3687 C3716 0.950 . S
H3688 C3718 0.950 . S
H3689 C3719 0.950 . S
C3690 H3672 0.951 . S
C3690 C3691 1.366 . S
C3690 C3692 1.388 . S
C3691 C3690 1.366 . S
C3691 C3695 1.385 . S
C3692 H3673 0.951 . S
C3692 C3690 1.388 . S
C3692 C3693 1.366 . S
C3693 C3692 1.366 . S
C3693 C3694 1.414 . S
C3693 C3696 1.499 . S
C3694 H3674 0.950 . S
C3694 C3693 1.414 . S
C3694 C3695 1.374 . S
C3695 H3675 0.950 . S
C3695 C3691 1.385 . S
C3695 C3694 1.374 . S
C3696 C3693 1.499 . S
C3696 C3697 1.373 . S
C3696 C3698 1.389 . S
C3697 H3676 0.950 . S
C3697 C3696 1.373 . S
C3697 C3713 1.377 . S
C3698 C3696 1.389 . S
C3698 C3699 1.524 . S
C3698 C3712 1.377 . S
C3699 C3698 1.524 . S
C3699 C3700 1.397 . S
C3699 C3704 1.363 . S
C3700 H3677 0.950 . S
C3700 C3699 1.397 . S
C3700 C3701 1.334 . S
C3701 H3678 0.950 . S
C3701 C3700 1.334 . S
C3701 C3702 1.287 . S
C3702 C3701 1.287 . S
C3702 C3703 1.524 . S
C3702 H3721 0.913 . S
C3703 H3679 0.950 . S
C3703 C3702 1.524 . S
C3703 C3704 1.415 . S
C3704 H3680 0.950 . S
C3704 C3699 1.363 . S
C3704 C3703 1.415 . S
C3705 H3681 0.951 . S
C3705 C3706 1.366 . S
C3705 C3707 1.388 . S
C3706 C3705 1.366 . S
C3706 C3710 1.385 . S
C3707 H3682 0.951 . S
C3707 C3705 1.388 . S
C3707 C3708 1.366 . S
C3708 C3707 1.366 . S
C3708 C3709 1.414 . S
C3708 C3711 1.499 . S
C3709 H3683 0.950 . S
C3709 C3708 1.414 . S
C3709 C3710 1.374 . S
C3710 H3684 0.950 . S
C3710 C3706 1.385 . S
C3710 C3709 1.374 . S
C3711 C3708 1.499 . S
C3711 C3712 1.373 . S
C3711 C3713 1.389 . S
C3712 H3685 0.950 . S
C3712 C3698 1.377 . S
C3712 C3711 1.373 . S
C3713 C3697 1.377 . S
C3713 C3711 1.389 . S
C3713 C3714 1.524 . S
C3714 C3713 1.524 . S
C3714 C3715 1.397 . S
C3714 C3719 1.363 . S
C3715 H3686 0.950 . S
C3715 C3714 1.397 . S
C3715 C3716 1.334 . S
C3716 H3687 0.950 . S
C3716 C3715 1.334 . S
C3716 C3717 1.287 . S
C3717 C3716 1.287 . S
C3717 C3718 1.524 . S
C3717 H3720 0.999 . S
C3718 H3688 0.950 . S
C3718 C3717 1.524 . S
C3718 C3719 1.415 . S
C3719 H3689 0.950 . S
C3719 C3714 1.363 . S
C3719 C3718 1.415 . S
H3720 C3717 0.999 . S
H3721 C3702 0.913 . S
H3722 C3740 0.951 . S
H3723 C3742 0.951 . S
H3724 C3744 0.950 . S
H3725 C3745 0.950 . S
H3726 C3747 0.950 . S
H3727 C3750 0.950 . S
H3728 C3751 0.950 . S
H3729 C3753 0.950 . S
H3730 C3754 0.950 . S
H3731 C3755 0.951 . S
H3732 C3757 0.951 . S
H3733 C3759 0.950 . S
H3734 C3760 0.950 . S
H3735 C3762 0.950 . S
H3736 C3765 0.950 . S
H3737 C3766 0.950 . S
H3738 C3768 0.950 . S
H3739 C3769 0.950 . S
C3740 H3722 0.951 . S
C3740 C3741 1.366 . S
C3740 C3742 1.388 . S
C3741 C3740 1.366 . S
C3741 C3745 1.385 . S
C3742 H3723 0.951 . S
C3742 C3740 1.388 . S
C3742 C3743 1.366 . S
C3743 C3742 1.366 . S
C3743 C3744 1.414 . S
C3743 C3746 1.499 . S
C3744 H3724 0.950 . S
C3744 C3743 1.414 . S
C3744 C3745 1.374 . S
C3745 H3725 0.950 . S
C3745 C3741 1.385 . S
C3745 C3744 1.374 . S
C3746 C3743 1.499 . S
C3746 C3747 1.373 . S
C3746 C3748 1.389 . S
C3747 H3726 0.950 . S
C3747 C3746 1.373 . S
C3747 C3763 1.377 . S
C3748 C3746 1.389 . S
C3748 C3749 1.524 . S
C3748 C3762 1.377 . S
C3749 C3748 1.524 . S
C3749 C3750 1.397 . S
C3749 C3754 1.363 . S
C3750 H3727 0.950 . S
C3750 C3749 1.397 . S
C3750 C3751 1.334 . S
C3751 H3728 0.950 . S
C3751 C3750 1.334 . S
C3751 C3752 1.287 . S
C3752 C3751 1.287 . S
C3752 C3753 1.524 . S
C3752 H3771 0.913 . S
C3753 H3729 0.950 . S
C3753 C3752 1.524 . S
C3753 C3754 1.415 . S
C3754 H3730 0.950 . S
C3754 C3749 1.363 . S
C3754 C3753 1.415 . S
C3755 H3731 0.951 . S
C3755 C3756 1.366 . S
C3755 C3757 1.388 . S
C3756 C3755 1.366 . S
C3756 C3760 1.385 . S
C3757 H3732 0.951 . S
C3757 C3755 1.388 . S
C3757 C3758 1.366 . S
C3758 C3757 1.366 . S
C3758 C3759 1.414 . S
C3758 C3761 1.499 . S
C3759 H3733 0.950 . S
C3759 C3758 1.414 . S
C3759 C3760 1.374 . S
C3760 H3734 0.950 . S
C3760 C3756 1.385 . S
C3760 C3759 1.374 . S
C3761 C3758 1.499 . S
C3761 C3762 1.373 . S
C3761 C3763 1.389 . S
C3762 H3735 0.950 . S
C3762 C3748 1.377 . S
C3762 C3761 1.373 . S
C3763 C3747 1.377 . S
C3763 C3761 1.389 . S
C3763 C3764 1.524 . S
C3764 C3763 1.524 . S
C3764 C3765 1.397 . S
C3764 C3769 1.363 . S
C3765 H3736 0.950 . S
C3765 C3764 1.397 . S
C3765 C3766 1.334 . S
C3766 H3737 0.950 . S
C3766 C3765 1.334 . S
C3766 C3767 1.287 . S
C3767 C3766 1.287 . S
C3767 C3768 1.524 . S
C3767 H3770 0.999 . S
C3768 H3738 0.950 . S
C3768 C3767 1.524 . S
C3768 C3769 1.415 . S
C3769 H3739 0.950 . S
C3769 C3764 1.363 . S
C3769 C3768 1.415 . S
H3770 C3767 0.999 . S
H3771 C3752 0.913 . S
H3772 C3790 0.951 . S
H3773 C3792 0.954 . S
H3774 C3794 0.950 . S
H3775 C3795 0.950 . S
H3776 C3797 0.950 . S
H3777 C3800 0.950 . S
H3778 C3801 0.950 . S
H3779 C3803 0.950 . S
H3780 C3804 0.950 . S
H3781 C3805 0.951 . S
H3782 C3807 0.951 . S
H3783 C3809 0.950 . S
H3784 C3810 0.950 . S
H3785 C3812 0.950 . S
H3786 C3815 0.950 . S
H3787 C3816 0.950 . S
H3788 C3818 0.950 . S
H3789 C3819 0.950 . S
C3790 H3772 0.951 . S
C3790 C3791 1.364 1_545 S
C3790 C3792 1.396 . S
C3791 C3790 1.364 1_565 S
C3791 C3795 1.394 . S
C3792 H3773 0.954 . S
C3792 C3790 1.396 . S
C3792 C3793 1.355 1_545 S
C3793 C3792 1.355 1_565 S
C3793 C3794 1.414 . S
C3793 C3796 1.499 . S
C3794 H3774 0.950 . S
C3794 C3793 1.414 . S
C3794 C3795 1.374 . S
C3795 H3775 0.950 . S
C3795 C3791 1.394 . S
C3795 C3794 1.374 . S
C3796 C3793 1.499 . S
C3796 C3797 1.373 1_565 S
C3796 C3798 1.389 . S
C3797 H3776 0.950 . S
C3797 C3796 1.373 1_545 S
C3797 C3813 1.377 . S
C3798 C3796 1.389 . S
C3798 C3799 1.524 . S
C3798 C3812 1.377 . S
C3799 C3798 1.524 . S
C3799 C3800 1.397 . S
C3799 C3804 1.363 . S
C3800 H3777 0.950 . S
C3800 C3799 1.397 . S
C3800 C3801 1.334 . S
C3801 H3778 0.950 . S
C3801 C3800 1.334 . S
C3801 C3802 1.287 . S
C3802 C3801 1.287 . S
C3802 C3803 1.524 . S
C3802 H3821 0.913 . S
C3803 H3779 0.950 . S
C3803 C3802 1.524 . S
C3803 C3804 1.415 . S
C3804 H3780 0.950 . S
C3804 C3799 1.363 . S
C3804 C3803 1.415 . S
C3805 H3781 0.951 . S
C3805 C3806 1.366 . S
C3805 C3807 1.388 . S
C3806 C3805 1.366 . S
C3806 C3810 1.385 . S
C3807 H3782 0.951 . S
C3807 C3805 1.388 . S
C3807 C3808 1.366 . S
C3808 C3807 1.366 . S
C3808 C3809 1.414 . S
C3808 C3811 1.499 . S
C3809 H3783 0.950 . S
C3809 C3808 1.414 . S
C3809 C3810 1.374 . S
C3810 H3784 0.950 . S
C3810 C3806 1.385 . S
C3810 C3809 1.374 . S
C3811 C3808 1.499 . S
C3811 C3812 1.373 . S
C3811 C3813 1.389 1_565 S
C3812 H3785 0.950 . S
C3812 C3798 1.377 . S
C3812 C3811 1.373 . S
C3813 C3797 1.377 . S
C3813 C3811 1.389 1_545 S
C3813 C3814 1.524 . S
C3814 C3813 1.524 . S
C3814 C3815 1.397 . S
C3814 C3819 1.363 . S
C3815 H3786 0.950 . S
C3815 C3814 1.397 . S
C3815 C3816 1.334 . S
C3816 H3787 0.950 . S
C3816 C3815 1.334 . S
C3816 C3817 1.287 . S
C3817 C3816 1.287 . S
C3817 C3818 1.524 . S
C3817 H3820 0.999 . S
C3818 H3788 0.950 . S
C3818 C3817 1.524 . S
C3818 C3819 1.415 . S
C3819 H3789 0.950 . S
C3819 C3814 1.363 . S
C3819 C3818 1.415 . S
H3820 C3817 0.999 . S
H3821 C3802 0.913 . S
H3822 C3840 0.951 . S
H3823 C3842 0.951 . S
H3824 C3844 0.944 . S
H3825 C3845 0.950 1_565 S
H3826 C3847 0.950 . S
H3827 C3850 0.950 . S
H3828 C3851 0.950 . S
H3829 C3853 0.950 . S
H3830 C3854 0.950 . S
H3831 C3855 0.951 . S
H3832 C3857 0.951 . S
H3833 C3859 0.950 . S
H3834 C3860 0.950 . S
H3835 C3862 0.950 . S
H3836 C3865 0.950 . S
H3837 C3866 0.950 . S
H3838 C3868 0.950 . S
H3839 C3869 0.950 . S
C3840 H3822 0.951 . S
C3840 C3841 1.366 . S
C3840 C3842 1.388 . S
C3841 C3840 1.366 . S
C3841 C3845 1.385 . S
C3842 H3823 0.951 . S
C3842 C3840 1.388 . S
C3842 C3843 1.366 . S
C3843 C3842 1.366 . S
C3843 C3844 1.420 1_545 S
C3843 C3846 1.499 . S
C3844 H3824 0.944 . S
C3844 C3843 1.420 1_565 S
C3844 C3845 1.374 1_565 S
C3845 H3825 0.950 1_545 S
C3845 C3841 1.385 . S
C3845 C3844 1.374 1_545 S
C3846 C3843 1.499 . S
C3846 C3847 1.373 . S
C3846 C3848 1.389 . S
C3847 H3826 0.950 . S
C3847 C3846 1.373 . S
C3847 C3863 1.377 . S
C3848 C3846 1.389 . S
C3848 C3849 1.524 . S
C3848 C3862 1.377 . S
C3849 C3848 1.524 . S
C3849 C3850 1.397 . S
C3849 C3854 1.363 . S
C3850 H3827 0.950 . S
C3850 C3849 1.397 . S
C3850 C3851 1.334 . S
C3851 H3828 0.950 . S
C3851 C3850 1.334 . S
C3851 C3852 1.287 . S
C3852 C3851 1.287 . S
C3852 C3853 1.524 . S
C3852 H3871 0.913 . S
C3853 H3829 0.950 . S
C3853 C3852 1.524 . S
C3853 C3854 1.415 . S
C3854 H3830 0.950 . S
C3854 C3849 1.363 . S
C3854 C3853 1.415 . S
C3855 H3831 0.951 . S
C3855 C3856 1.366 1_565 S
C3855 C3857 1.388 . S
C3856 C3855 1.366 1_545 S
C3856 C3860 1.385 . S
C3857 H3832 0.951 . S
C3857 C3855 1.388 . S
C3857 C3858 1.366 1_565 S
C3858 C3857 1.366 1_545 S
C3858 C3859 1.414 . S
C3858 C3861 1.499 . S
C3859 H3833 0.950 . S
C3859 C3858 1.414 . S
C3859 C3860 1.374 . S
C3860 H3834 0.950 . S
C3860 C3856 1.385 . S
C3860 C3859 1.374 . S
C3861 C3858 1.499 . S
C3861 C3862 1.373 . S
C3861 C3863 1.389 . S
C3862 H3835 0.950 . S
C3862 C3848 1.377 . S
C3862 C3861 1.373 . S
C3863 C3847 1.377 . S
C3863 C3861 1.389 . S
C3863 C3864 1.519 1_545 S
C3864 C3863 1.519 1_565 S
C3864 C3865 1.364 1_565 S
C3864 C3869 1.398 . S
C3865 H3836 0.950 . S
C3865 C3864 1.364 1_545 S
C3865 C3866 1.334 . S
C3866 H3837 0.950 . S
C3866 C3865 1.334 . S
C3866 C3867 1.287 1_545 S
C3867 C3866 1.287 1_565 S
C3867 C3868 1.524 . S
C3867 H3870 0.999 . S
C3868 H3838 0.950 . S
C3868 C3867 1.524 . S
C3868 C3869 1.415 . S
C3869 H3839 0.950 . S
C3869 C3864 1.398 . S
C3869 C3868 1.415 . S
H3870 C3867 0.999 . S
H3871 C3852 0.913 . S
H3872 C3890 0.951 . S
H3873 C3892 0.951 . S
H3874 C3894 0.950 . S
H3875 C3895 0.950 . S
H3876 C3897 0.950 . S
H3877 C3900 0.950 . S
H3878 C3901 0.950 . S
H3879 C3903 0.950 . S
H3880 C3904 0.950 . S
H3881 C3905 0.951 . S
H3882 C3907 0.951 . S
H3883 C3909 0.950 . S
H3884 C3910 0.950 . S
H3885 C3912 0.950 . S
H3886 C3915 0.950 . S
H3887 C3916 0.950 . S
H3888 C3918 0.950 . S
H3889 C3919 0.950 . S
C3890 H3872 0.951 . S
C3890 C3891 1.366 . S
C3890 C3892 1.388 . S
C3891 C3890 1.366 . S
C3891 C3895 1.385 . S
C3892 H3873 0.951 . S
C3892 C3890 1.388 . S
C3892 C3893 1.366 . S
C3893 C3892 1.366 . S
C3893 C3894 1.414 . S
C3893 C3896 1.499 . S
C3894 H3874 0.950 . S
C3894 C3893 1.414 . S
C3894 C3895 1.374 . S
C3895 H3875 0.950 . S
C3895 C3891 1.385 . S
C3895 C3894 1.374 . S
C3896 C3893 1.499 . S
C3896 C3897 1.373 . S
C3896 C3898 1.389 . S
C3897 H3876 0.950 . S
C3897 C3896 1.373 . S
C3897 C3913 1.377 . S
C3898 C3896 1.389 . S
C3898 C3899 1.524 . S
C3898 C3912 1.377 . S
C3899 C3898 1.524 . S
C3899 C3900 1.397 . S
C3899 C3904 1.363 . S
C3900 H3877 0.950 . S
C3900 C3899 1.397 . S
C3900 C3901 1.334 . S
C3901 H3878 0.950 . S
C3901 C3900 1.334 . S
C3901 C3902 1.287 . S
C3902 C3901 1.287 . S
C3902 C3903 1.524 . S
C3902 H3921 0.913 . S
C3903 H3879 0.950 . S
C3903 C3902 1.524 . S
C3903 C3904 1.415 . S
C3904 H3880 0.950 . S
C3904 C3899 1.363 . S
C3904 C3903 1.415 . S
C3905 H3881 0.951 . S
C3905 C3906 1.366 . S
C3905 C3907 1.388 . S
C3906 C3905 1.366 . S
C3906 C3910 1.385 . S
C3907 H3882 0.951 . S
C3907 C3905 1.388 . S
C3907 C3908 1.366 . S
C3908 C3907 1.366 . S
C3908 C3909 1.414 . S
C3908 C3911 1.499 . S
C3909 H3883 0.950 . S
C3909 C3908 1.414 . S
C3909 C3910 1.374 . S
C3910 H3884 0.950 . S
C3910 C3906 1.385 . S
C3910 C3909 1.374 . S
C3911 C3908 1.499 . S
C3911 C3912 1.373 . S
C3911 C3913 1.389 . S
C3912 H3885 0.950 . S
C3912 C3898 1.377 . S
C3912 C3911 1.373 . S
C3913 C3897 1.377 . S
C3913 C3911 1.389 . S
C3913 C3914 1.524 . S
C3914 C3913 1.524 . S
C3914 C3915 1.397 . S
C3914 C3919 1.363 . S
C3915 H3886 0.950 . S
C3915 C3914 1.397 . S
C3915 C3916 1.334 . S
C3916 H3887 0.950 . S
C3916 C3915 1.334 . S
C3916 C3917 1.287 . S
C3917 C3916 1.287 . S
C3917 C3918 1.524 . S
C3917 H3920 0.999 . S
C3918 H3888 0.950 . S
C3918 C3917 1.524 . S
C3918 C3919 1.415 . S
C3919 H3889 0.950 . S
C3919 C3914 1.363 . S
C3919 C3918 1.415 . S
H3920 C3917 0.999 . S
H3921 C3902 0.913 . S
H3922 C3940 0.951 . S
H3923 C3942 0.951 . S
H3924 C3944 0.969 . S
H3925 C3945 0.950 . S
H3926 C3947 0.950 . S
H3927 C3950 0.950 . S
H3928 C3951 0.950 . S
H3929 C3953 0.939 1_554 S
H3930 C3954 0.950 . S
H3931 C3955 0.951 . S
H3932 C3957 0.942 1_556 S
H3933 C3959 0.950 . S
H3934 C3960 0.950 . S
H3935 C3962 0.950 . S
H3936 C3965 0.950 . S
H3937 C3966 0.950 . S
H3938 C3968 0.950 . S
H3939 C3969 0.950 . S
C3940 H3922 0.951 . S
C3940 C3941 1.366 . S
C3940 C3942 1.388 . S
C3941 C3940 1.366 . S
C3941 C3945 1.385 . S
C3942 H3923 0.951 . S
C3942 C3940 1.388 . S
C3942 C3943 1.366 . S
C3943 C3942 1.366 . S
C3943 C3944 1.414 . S
C3943 C3946 1.499 . S
C3944 H3924 0.969 . S
C3944 C3943 1.414 . S
C3944 C3945 1.374 . S
C3945 H3925 0.950 . S
C3945 C3941 1.385 . S
C3945 C3944 1.374 . S
C3946 C3943 1.499 . S
C3946 C3947 1.373 . S
C3946 C3948 1.389 . S
C3947 H3926 0.950 . S
C3947 C3946 1.373 . S
C3947 C3963 1.377 . S
C3948 C3946 1.389 . S
C3948 C3949 1.525 1_554 S
C3948 C3962 1.377 . S
C3949 C3948 1.525 1_556 S
C3949 C3950 1.396 . S
C3949 C3954 1.363 1_556 S
C3950 H3927 0.950 . S
C3950 C3949 1.396 . S
C3950 C3951 1.334 . S
C3951 H3928 0.950 . S
C3951 C3950 1.334 . S
C3951 C3952 1.287 . S
C3952 C3951 1.287 . S
C3952 C3953 1.572 . S
C3952 H3971 0.913 . S
C3953 H3929 0.939 1_556 S
C3953 C3952 1.572 . S
C3953 C3954 1.383 1_556 S
C3954 H3930 0.950 . S
C3954 C3949 1.363 1_554 S
C3954 C3953 1.383 1_554 S
C3955 H3931 0.951 . S
C3955 C3956 1.366 1_556 S
C3955 C3957 1.387 1_556 S
C3956 C3955 1.366 1_554 S
C3956 C3960 1.385 . S
C3957 H3932 0.942 1_554 S
C3957 C3955 1.387 1_554 S
C3957 C3958 1.375 . S
C3958 C3957 1.375 . S
C3958 C3959 1.414 . S
C3958 C3961 1.499 . S
C3959 H3933 0.950 . S
C3959 C3958 1.414 . S
C3959 C3960 1.374 . S
C3960 H3934 0.950 . S
C3960 C3956 1.385 . S
C3960 C3959 1.374 . S
C3961 C3958 1.499 . S
C3961 C3962 1.373 . S
C3961 C3963 1.389 . S
C3962 H3935 0.950 . S
C3962 C3948 1.377 . S
C3962 C3961 1.373 . S
C3963 C3947 1.377 . S
C3963 C3961 1.389 . S
C3963 C3964 1.524 . S
C3964 C3963 1.524 . S
C3964 C3965 1.397 . S
C3964 C3969 1.363 . S
C3965 H3936 0.950 . S
C3965 C3964 1.397 . S
C3965 C3966 1.334 . S
C3966 H3937 0.950 . S
C3966 C3965 1.334 . S
C3966 C3967 1.287 . S
C3967 C3966 1.287 . S
C3967 C3968 1.524 . S
C3967 H3970 0.999 . S
C3968 H3938 0.950 . S
C3968 C3967 1.524 . S
C3968 C3969 1.415 . S
C3969 H3939 0.950 . S
C3969 C3964 1.363 . S
C3969 C3968 1.415 . S
H3970 C3967 0.999 . S
H3971 C3952 0.913 . S
H3972 C3990 0.951 . S
H3973 C3992 0.951 . S
H3974 C3994 0.950 . S
H3975 C3995 0.950 . S
H3976 C3997 0.950 . S
H3977 C4000 0.950 . S
H3978 C4001 0.950 . S
H3979 C4003 0.950 . S
H3980 C4004 0.950 . S
H3981 C4005 0.951 . S
H3982 C4007 0.951 . S
H3983 C4009 0.950 . S
H3984 C4010 0.950 . S
H3985 C4012 0.950 . S
H3986 C4015 0.950 . S
H3987 C4016 0.950 . S
H3988 C4018 0.950 . S
H3989 C4019 0.950 . S
C3990 H3972 0.951 . S
C3990 C3991 1.366 . S
C3990 C3992 1.388 . S
C3991 C3990 1.366 . S
C3991 C3995 1.385 . S
C3992 H3973 0.951 . S
C3992 C3990 1.388 . S
C3992 C3993 1.366 . S
C3993 C3992 1.366 . S
C3993 C3994 1.414 . S
C3993 C3996 1.499 . S
C3994 H3974 0.950 . S
C3994 C3993 1.414 . S
C3994 C3995 1.374 . S
C3995 H3975 0.950 . S
C3995 C3991 1.385 . S
C3995 C3994 1.374 . S
C3996 C3993 1.499 . S
C3996 C3997 1.373 . S
C3996 C3998 1.389 . S
C3997 H3976 0.950 . S
C3997 C3996 1.373 . S
C3997 C4013 1.377 . S
C3998 C3996 1.389 . S
C3998 C3999 1.524 . S
C3998 C4012 1.377 . S
C3999 C3998 1.524 . S
C3999 C4000 1.397 . S
C3999 C4004 1.363 . S
C4000 H3977 0.950 . S
C4000 C3999 1.397 . S
C4000 C4001 1.334 . S
C4001 H3978 0.950 . S
C4001 C4000 1.334 . S
C4001 C4002 1.287 . S
C4002 C4001 1.287 . S
C4002 C4003 1.524 . S
C4002 H4021 0.913 . S
C4003 H3979 0.950 . S
C4003 C4002 1.524 . S
C4003 C4004 1.415 . S
C4004 H3980 0.950 . S
C4004 C3999 1.363 . S
C4004 C4003 1.415 . S
C4005 H3981 0.951 . S
C4005 C4006 1.366 . S
C4005 C4007 1.388 . S
C4006 C4005 1.366 . S
C4006 C4010 1.385 . S
C4007 H3982 0.951 . S
C4007 C4005 1.388 . S
C4007 C4008 1.366 . S
C4008 C4007 1.366 . S
C4008 C4009 1.414 . S
C4008 C4011 1.499 . S
C4009 H3983 0.950 . S
C4009 C4008 1.414 . S
C4009 C4010 1.374 . S
C4010 H3984 0.950 . S
C4010 C4006 1.385 . S
C4010 C4009 1.374 . S
C4011 C4008 1.499 . S
C4011 C4012 1.373 . S
C4011 C4013 1.389 . S
C4012 H3985 0.950 . S
C4012 C3998 1.377 . S
C4012 C4011 1.373 . S
C4013 C3997 1.377 . S
C4013 C4011 1.389 . S
C4013 C4014 1.524 . S
C4014 C4013 1.524 . S
C4014 C4015 1.397 . S
C4014 C4019 1.363 . S
C4015 H3986 0.950 . S
C4015 C4014 1.397 . S
C4015 C4016 1.334 . S
C4016 H3987 0.950 . S
C4016 C4015 1.334 . S
C4016 C4017 1.287 . S
C4017 C4016 1.287 . S
C4017 C4018 1.524 . S
C4017 H4020 0.999 . S
C4018 H3988 0.950 . S
C4018 C4017 1.524 . S
C4018 C4019 1.415 . S
C4019 H3989 0.950 . S
C4019 C4014 1.363 . S
C4019 C4018 1.415 . S
H4020 C4017 0.999 . S
H4021 C4002 0.913 . S
H4022 C4040 0.951 . S
H4023 C4042 0.951 . S
H4024 C4044 0.950 . S
H4025 C4045 0.950 . S
H4026 C4047 0.950 . S
H4027 C4050 0.970 . S
H4028 C4051 0.950 1_554 S
H4029 C4053 0.950 . S
H4030 C4054 0.950 . S
H4031 C4055 0.951 . S
H4032 C4057 0.951 . S
H4033 C4059 0.950 . S
H4034 C4060 0.950 . S
H4035 C4062 0.950 . S
H4036 C4065 0.950 . S
H4037 C4066 0.950 . S
H4038 C4068 0.950 . S
H4039 C4069 0.950 . S
C4040 H4022 0.951 . S
C4040 C4041 1.393 . S
C4040 C4042 1.388 . S
C4041 C4040 1.393 . S
C4041 C4045 1.363 1_556 S
C4042 H4023 0.951 . S
C4042 C4040 1.388 . S
C4042 C4043 1.366 . S
C4043 C4042 1.366 . S
C4043 C4044 1.414 1_556 S
C4043 C4046 1.499 . S
C4044 H4024 0.950 . S
C4044 C4043 1.414 1_554 S
C4044 C4045 1.374 . S
C4045 H4025 0.950 . S
C4045 C4041 1.363 1_554 S
C4045 C4044 1.374 . S
C4046 C4043 1.499 . S
C4046 C4047 1.373 1_556 S
C4046 C4048 1.389 . S
C4047 H4026 0.950 . S
C4047 C4046 1.373 1_554 S
C4047 C4063 1.369 1_554 S
C4048 C4046 1.389 . S
C4048 C4049 1.524 . S
C4048 C4062 1.377 . S
C4049 C4048 1.524 . S
C4049 C4050 1.378 1_556 S
C4049 C4054 1.363 . S
C4050 H4027 0.970 . S
C4050 C4049 1.378 1_554 S
C4050 C4051 1.332 1_554 S
C4051 H4028 0.950 1_556 S
C4051 C4050 1.332 1_556 S
C4051 C4052 1.287 . S
C4052 C4051 1.287 . S
C4052 C4053 1.524 . S
C4052 H4071 0.913 . S
C4053 H4029 0.950 . S
C4053 C4052 1.524 . S
C4053 C4054 1.415 . S
C4054 H4030 0.950 . S
C4054 C4049 1.363 . S
C4054 C4053 1.415 . S
C4055 H4031 0.951 . S
C4055 C4056 1.366 1_554 S
C4055 C4057 1.388 . S
C4056 C4055 1.366 1_556 S
C4056 C4060 1.385 . S
C4057 H4032 0.951 . S
C4057 C4055 1.388 . S
C4057 C4058 1.366 1_554 S
C4058 C4057 1.366 1_556 S
C4058 C4059 1.414 . S
C4058 C4061 1.499 . S
C4059 H4033 0.950 . S
C4059 C4058 1.414 . S
C4059 C4060 1.374 . S
C4060 H4034 0.950 . S
C4060 C4056 1.385 . S
C4060 C4059 1.374 . S
C4061 C4058 1.499 . S
C4061 C4062 1.373 . S
C4061 C4063 1.404 . S
C4062 H4035 0.950 . S
C4062 C4048 1.377 . S
C4062 C4061 1.373 . S
C4063 C4047 1.369 1_556 S
C4063 C4061 1.404 . S
C4063 C4064 1.520 1_556 S
C4064 C4063 1.520 1_554 S
C4064 C4065 1.397 1_554 S
C4064 C4069 1.363 . S
C4065 H4036 0.950 . S
C4065 C4064 1.397 1_556 S
C4065 C4066 1.334 . S
C4066 H4037 0.950 . S
C4066 C4065 1.334 . S
C4066 C4067 1.287 1_556 S
C4067 C4066 1.287 1_554 S
C4067 C4068 1.524 . S
C4067 H4070 0.999 . S
C4068 H4038 0.950 . S
C4068 C4067 1.524 . S
C4068 C4069 1.415 . S
C4069 H4039 0.950 . S
C4069 C4064 1.363 . S
C4069 C4068 1.415 . S
H4070 C4067 0.999 . S
H4071 C4052 0.913 . S
H4072 C4090 0.951 . S
H4073 C4092 0.951 . S
H4074 C4094 0.950 . S
H4075 C4095 0.950 . S
H4076 C4097 0.950 . S
H4077 C4100 0.950 . S
H4078 C4101 0.950 . S
H4079 C4103 0.950 . S
H4080 C4104 0.950 . S
H4081 C4105 0.951 . S
H4082 C4107 0.951 . S
H4083 C4109 0.950 . S
H4084 C4110 0.950 . S
H4085 C4112 0.950 . S
H4086 C4115 0.950 . S
H4087 C4116 0.950 . S
H4088 C4118 0.950 . S
H4089 C4119 0.950 . S
C4090 H4072 0.951 . S
C4090 C4091 1.366 . S
C4090 C4092 1.388 . S
C4091 C4090 1.366 . S
C4091 C4095 1.385 . S
C4092 H4073 0.951 . S
C4092 C4090 1.388 . S
C4092 C4093 1.366 . S
C4093 C4092 1.366 . S
C4093 C4094 1.414 . S
C4093 C4096 1.499 . S
C4094 H4074 0.950 . S
C4094 C4093 1.414 . S
C4094 C4095 1.374 . S
C4095 H4075 0.950 . S
C4095 C4091 1.385 . S
C4095 C4094 1.374 . S
C4096 C4093 1.499 . S
C4096 C4097 1.373 . S
C4096 C4098 1.389 . S
C4097 H4076 0.950 . S
C4097 C4096 1.373 . S
C4097 C4113 1.377 . S
C4098 C4096 1.389 . S
C4098 C4099 1.524 . S
C4098 C4112 1.377 . S
C4099 C4098 1.524 . S
C4099 C4100 1.397 . S
C4099 C4104 1.363 . S
C4100 H4077 0.950 . S
C4100 C4099 1.397 . S
C4100 C4101 1.334 . S
C4101 H4078 0.950 . S
C4101 C4100 1.334 . S
C4101 C4102 1.287 . S
C4102 C4101 1.287 . S
C4102 C4103 1.524 . S
C4102 H4121 0.913 . S
C4103 H4079 0.950 . S
C4103 C4102 1.524 . S
C4103 C4104 1.415 . S
C4104 H4080 0.950 . S
C4104 C4099 1.363 . S
C4104 C4103 1.415 . S
C4105 H4081 0.951 . S
C4105 C4106 1.366 . S
C4105 C4107 1.388 . S
C4106 C4105 1.366 . S
C4106 C4110 1.385 . S
C4107 H4082 0.951 . S
C4107 C4105 1.388 . S
C4107 C4108 1.366 . S
C4108 C4107 1.366 . S
C4108 C4109 1.414 . S
C4108 C4111 1.499 . S
C4109 H4083 0.950 . S
C4109 C4108 1.414 . S
C4109 C4110 1.374 . S
C4110 H4084 0.950 . S
C4110 C4106 1.385 . S
C4110 C4109 1.374 . S
C4111 C4108 1.499 . S
C4111 C4112 1.373 . S
C4111 C4113 1.389 . S
C4112 H4085 0.950 . S
C4112 C4098 1.377 . S
C4112 C4111 1.373 . S
C4113 C4097 1.377 . S
C4113 C4111 1.389 . S
C4113 C4114 1.524 . S
C4114 C4113 1.524 . S
C4114 C4115 1.397 . S
C4114 C4119 1.363 . S
C4115 H4086 0.950 . S
C4115 C4114 1.397 . S
C4115 C4116 1.334 . S
C4116 H4087 0.950 . S
C4116 C4115 1.334 . S
C4116 C4117 1.287 . S
C4117 C4116 1.287 . S
C4117 C4118 1.524 . S
C4117 H4120 0.999 . S
C4118 H4088 0.950 . S
C4118 C4117 1.524 . S
C4118 C4119 1.415 . S
C4119 H4089 0.950 . S
C4119 C4114 1.363 . S
C4119 C4118 1.415 . S
H4120 C4117 0.999 . S
H4121 C4102 0.913 . S
H4122 C4140 0.951 . S
H4123 C4142 0.951 . S
H4124 C4144 0.950 1_655 S
H4125 C4145 0.950 1_655 S
H4126 C4147 0.950 . S
H4127 C4150 0.950 . S
H4128 C4151 0.950 . S
H4129 C4153 0.950 . S
H4130 C4154 0.950 . S
H4131 C4155 0.951 . S
H4132 C4157 0.951 . S
H4133 C4159 0.950 . S
H4134 C4160 0.950 . S
H4135 C4162 0.950 . S
H4136 C4165 0.950 . S
H4137 C4166 0.950 . S
H4138 C4168 0.950 . S
H4139 C4169 0.950 . S
C4140 H4122 0.951 . S
C4140 C4141 1.366 . S
C4140 C4142 1.388 . S
C4141 C4140 1.366 . S
C4141 C4145 1.385 . S
C4142 H4123 0.951 . S
C4142 C4140 1.388 . S
C4142 C4143 1.366 . S
C4143 C4142 1.366 . S
C4143 C4144 1.414 . S
C4143 C4146 1.499 . S
C4144 H4124 0.950 1_455 S
C4144 C4143 1.414 . S
C4144 C4145 1.374 . S
C4145 H4125 0.950 1_455 S
C4145 C4141 1.385 . S
C4145 C4144 1.374 . S
C4146 C4143 1.499 . S
C4146 C4147 1.373 1_455 S
C4146 C4148 1.389 . S
C4147 H4126 0.950 . S
C4147 C4146 1.373 1_655 S
C4147 C4163 1.377 . S
C4148 C4146 1.389 . S
C4148 C4149 1.524 . S
C4148 C4162 1.377 . S
C4149 C4148 1.524 . S
C4149 C4150 1.397 . S
C4149 C4154 1.363 . S
C4150 H4127 0.950 . S
C4150 C4149 1.397 . S
C4150 C4151 1.334 . S
C4151 H4128 0.950 . S
C4151 C4150 1.334 . S
C4151 C4152 1.287 . S
C4152 C4151 1.287 . S
C4152 C4153 1.524 . S
C4152 H4171 0.913 . S
C4153 H4129 0.950 . S
C4153 C4152 1.524 . S
C4153 C4154 1.415 . S
C4154 H4130 0.950 . S
C4154 C4149 1.363 . S
C4154 C4153 1.415 . S
C4155 H4131 0.951 . S
C4155 C4156 1.366 1_655 S
C4155 C4157 1.388 . S
C4156 C4155 1.366 1_455 S
C4156 C4160 1.385 . S
C4157 H4132 0.951 . S
C4157 C4155 1.388 . S
C4157 C4158 1.366 1_655 S
C4158 C4157 1.366 1_455 S
C4158 C4159 1.414 . S
C4158 C4161 1.499 . S
C4159 H4133 0.950 . S
C4159 C4158 1.414 . S
C4159 C4160 1.374 . S
C4160 H4134 0.950 . S
C4160 C4156 1.385 . S
C4160 C4159 1.374 . S
C4161 C4158 1.499 . S
C4161 C4162 1.373 . S
C4161 C4163 1.389 1_455 S
C4162 H4135 0.950 . S
C4162 C4148 1.377 . S
C4162 C4161 1.373 . S
C4163 C4147 1.377 . S
C4163 C4161 1.389 1_655 S
C4163 C4164 1.524 . S
C4164 C4163 1.524 . S
C4164 C4165 1.397 . S
C4164 C4169 1.363 . S
C4165 H4136 0.950 . S
C4165 C4164 1.397 . S
C4165 C4166 1.334 . S
C4166 H4137 0.950 . S
C4166 C4165 1.334 . S
C4166 C4167 1.287 . S
C4167 C4166 1.287 . S
C4167 C4168 1.524 . S
C4167 H4170 0.999 . S
C4168 H4138 0.950 . S
C4168 C4167 1.524 . S
C4168 C4169 1.415 . S
C4169 H4139 0.950 . S
C4169 C4164 1.363 . S
C4169 C4168 1.415 . S
H4170 C4167 0.999 . S
H4171 C4152 0.913 . S
H4172 C4190 0.951 . S
H4173 C4192 0.951 . S
H4174 C4194 0.950 . S
H4175 C4195 0.950 . S
H4176 C4197 0.950 . S
H4177 C4200 0.950 . S
H4178 C4201 0.950 . S
H4179 C4203 0.950 . S
H4180 C4204 0.950 . S
H4181 C4205 0.951 . S
H4182 C4207 0.951 . S
H4183 C4209 0.950 . S
H4184 C4210 0.950 . S
H4185 C4212 0.950 . S
H4186 C4215 0.950 . S
H4187 C4216 0.950 . S
H4188 C4218 0.950 . S
H4189 C4219 0.950 . S
C4190 H4172 0.951 . S
C4190 C4191 1.366 . S
C4190 C4192 1.388 . S
C4191 C4190 1.366 . S
C4191 C4195 1.385 . S
C4192 H4173 0.951 . S
C4192 C4190 1.388 . S
C4192 C4193 1.366 . S
C4193 C4192 1.366 . S
C4193 C4194 1.414 . S
C4193 C4196 1.499 . S
C4194 H4174 0.950 . S
C4194 C4193 1.414 . S
C4194 C4195 1.374 . S
C4195 H4175 0.950 . S
C4195 C4191 1.385 . S
C4195 C4194 1.374 . S
C4196 C4193 1.499 . S
C4196 C4197 1.373 . S
C4196 C4198 1.389 . S
C4197 H4176 0.950 . S
C4197 C4196 1.373 . S
C4197 C4213 1.377 . S
C4198 C4196 1.389 . S
C4198 C4199 1.524 . S
C4198 C4212 1.377 . S
C4199 C4198 1.524 . S
C4199 C4200 1.397 . S
C4199 C4204 1.363 . S
C4200 H4177 0.950 . S
C4200 C4199 1.397 . S
C4200 C4201 1.334 . S
C4201 H4178 0.950 . S
C4201 C4200 1.334 . S
C4201 C4202 1.287 . S
C4202 C4201 1.287 . S
C4202 C4203 1.524 . S
C4202 H4221 0.913 . S
C4203 H4179 0.950 . S
C4203 C4202 1.524 . S
C4203 C4204 1.415 . S
C4204 H4180 0.950 . S
C4204 C4199 1.363 . S
C4204 C4203 1.415 . S
C4205 H4181 0.951 . S
C4205 C4206 1.366 . S
C4205 C4207 1.388 . S
C4206 C4205 1.366 . S
C4206 C4210 1.385 . S
C4207 H4182 0.951 . S
C4207 C4205 1.388 . S
C4207 C4208 1.366 . S
C4208 C4207 1.366 . S
C4208 C4209 1.414 . S
C4208 C4211 1.499 . S
C4209 H4183 0.950 . S
C4209 C4208 1.414 . S
C4209 C4210 1.374 . S
C4210 H4184 0.950 . S
C4210 C4206 1.385 . S
C4210 C4209 1.374 . S
C4211 C4208 1.499 . S
C4211 C4212 1.373 . S
C4211 C4213 1.389 . S
C4212 H4185 0.950 . S
C4212 C4198 1.377 . S
C4212 C4211 1.373 . S
C4213 C4197 1.377 . S
C4213 C4211 1.389 . S
C4213 C4214 1.524 . S
C4214 C4213 1.524 . S
C4214 C4215 1.397 . S
C4214 C4219 1.363 . S
C4215 H4186 0.950 . S
C4215 C4214 1.397 . S
C4215 C4216 1.334 . S
C4216 H4187 0.950 . S
C4216 C4215 1.334 . S
C4216 C4217 1.287 . S
C4217 C4216 1.287 . S
C4217 C4218 1.524 . S
C4217 H4220 0.999 . S
C4218 H4188 0.950 . S
C4218 C4217 1.524 . S
C4218 C4219 1.415 . S
C4219 H4189 0.950 . S
C4219 C4214 1.363 . S
C4219 C4218 1.415 . S
H4220 C4217 0.999 . S
H4221 C4202 0.913 . S
H4222 C4240 0.951 . S
H4223 C4242 0.951 . S
H4224 C4244 0.950 . S
H4225 C4245 0.950 . S
H4226 C4247 0.950 . S
H4227 C4250 0.950 . S
H4228 C4251 0.950 . S
H4229 C4253 0.950 . S
H4230 C4254 0.950 . S
H4231 C4255 0.951 . S
H4232 C4257 0.951 . S
H4233 C4259 0.950 . S
H4234 C4260 0.950 . S
H4235 C4262 0.950 . S
H4236 C4265 0.950 . S
H4237 C4266 0.950 . S
H4238 C4268 0.950 . S
H4239 C4269 0.950 . S
C4240 H4222 0.951 . S
C4240 C4241 1.387 . S
C4240 C4242 1.388 . S
C4241 C4240 1.387 . S
C4241 C4245 1.371 1_655 S
C4242 H4223 0.951 . S
C4242 C4240 1.388 . S
C4242 C4243 1.366 . S
C4243 C4242 1.366 . S
C4243 C4244 1.414 1_655 S
C4243 C4246 1.499 . S
C4244 H4224 0.950 . S
C4244 C4243 1.414 1_455 S
C4244 C4245 1.374 . S
C4245 H4225 0.950 . S
C4245 C4241 1.371 1_455 S
C4245 C4244 1.374 . S
C4246 C4243 1.499 . S
C4246 C4247 1.373 1_655 S
C4246 C4248 1.389 . S
C4247 H4226 0.950 . S
C4247 C4246 1.373 1_455 S
C4247 C4263 1.377 . S
C4248 C4246 1.389 . S
C4248 C4249 1.524 . S
C4248 C4262 1.377 . S
C4249 C4248 1.524 . S
C4249 C4250 1.397 . S
C4249 C4254 1.363 . S
C4250 H4227 0.950 . S
C4250 C4249 1.397 . S
C4250 C4251 1.334 . S
C4251 H4228 0.950 . S
C4251 C4250 1.334 . S
C4251 C4252 1.287 . S
C4252 C4251 1.287 . S
C4252 C4253 1.524 . S
C4252 H4271 0.913 . S
C4253 H4229 0.950 . S
C4253 C4252 1.524 . S
C4253 C4254 1.415 . S
C4254 H4230 0.950 . S
C4254 C4249 1.363 . S
C4254 C4253 1.415 . S
C4255 H4231 0.951 . S
C4255 C4256 1.366 1_455 S
C4255 C4257 1.388 . S
C4256 C4255 1.366 1_655 S
C4256 C4260 1.385 . S
C4257 H4232 0.951 . S
C4257 C4255 1.388 . S
C4257 C4258 1.366 1_455 S
C4258 C4257 1.366 1_655 S
C4258 C4259 1.414 . S
C4258 C4261 1.499 . S
C4259 H4233 0.950 . S
C4259 C4258 1.414 . S
C4259 C4260 1.374 . S
C4260 H4234 0.950 . S
C4260 C4256 1.385 . S
C4260 C4259 1.374 . S
C4261 C4258 1.499 . S
C4261 C4262 1.373 . S
C4261 C4263 1.389 1_655 S
C4262 H4235 0.950 . S
C4262 C4248 1.377 . S
C4262 C4261 1.373 . S
C4263 C4247 1.377 . S
C4263 C4261 1.389 1_455 S
C4263 C4264 1.524 . S
C4264 C4263 1.524 . S
C4264 C4265 1.397 . S
C4264 C4269 1.363 . S
C4265 H4236 0.950 . S
C4265 C4264 1.397 . S
C4265 C4266 1.334 . S
C4266 H4237 0.950 . S
C4266 C4265 1.334 . S
C4266 C4267 1.287 . S
C4267 C4266 1.287 . S
C4267 C4268 1.524 . S
C4267 H4270 0.999 . S
C4268 H4238 0.950 . S
C4268 C4267 1.524 . S
C4268 C4269 1.415 . S
C4269 H4239 0.950 . S
C4269 C4264 1.363 . S
C4269 C4268 1.415 . S
H4270 C4267 0.999 . S
H4271 C4252 0.913 . S
H4272 C4290 0.951 . S
H4273 C4292 0.951 . S
H4274 C4294 0.950 . S
H4275 C4295 0.950 . S
H4276 C4297 0.950 . S
H4277 C4300 0.950 . S
H4278 C4301 0.950 . S
H4279 C4303 0.950 . S
H4280 C4304 0.950 . S
H4281 C4305 0.951 . S
H4282 C4307 0.951 . S
H4283 C4309 0.950 . S
H4284 C4310 0.950 . S
H4285 C4312 0.950 . S
H4286 C4315 0.950 . S
H4287 C4316 0.950 . S
H4288 C4318 0.950 . S
H4289 C4319 0.950 . S
C4290 H4272 0.951 . S
C4290 C4291 1.366 . S
C4290 C4292 1.388 . S
C4291 C4290 1.366 . S
C4291 C4295 1.385 . S
C4292 H4273 0.951 . S
C4292 C4290 1.388 . S
C4292 C4293 1.366 . S
C4293 C4292 1.366 . S
C4293 C4294 1.414 . S
C4293 C4296 1.499 . S
C4294 H4274 0.950 . S
C4294 C4293 1.414 . S
C4294 C4295 1.374 . S
C4295 H4275 0.950 . S
C4295 C4291 1.385 . S
C4295 C4294 1.374 . S
C4296 C4293 1.499 . S
C4296 C4297 1.373 . S
C4296 C4298 1.389 . S
C4297 H4276 0.950 . S
C4297 C4296 1.373 . S
C4297 C4313 1.377 . S
C4298 C4296 1.389 . S
C4298 C4299 1.524 . S
C4298 C4312 1.377 . S
C4299 C4298 1.524 . S
C4299 C4300 1.397 . S
C4299 C4304 1.363 . S
C4300 H4277 0.950 . S
C4300 C4299 1.397 . S
C4300 C4301 1.334 . S
C4301 H4278 0.950 . S
C4301 C4300 1.334 . S
C4301 C4302 1.287 . S
C4302 C4301 1.287 . S
C4302 C4303 1.524 . S
C4302 H4321 0.913 . S
C4303 H4279 0.950 . S
C4303 C4302 1.524 . S
C4303 C4304 1.415 . S
C4304 H4280 0.950 . S
C4304 C4299 1.363 . S
C4304 C4303 1.415 . S
C4305 H4281 0.951 . S
C4305 C4306 1.366 . S
C4305 C4307 1.388 . S
C4306 C4305 1.366 . S
C4306 C4310 1.385 . S
C4307 H4282 0.951 . S
C4307 C4305 1.388 . S
C4307 C4308 1.366 . S
C4308 C4307 1.366 . S
C4308 C4309 1.414 . S
C4308 C4311 1.499 . S
C4309 H4283 0.950 . S
C4309 C4308 1.414 . S
C4309 C4310 1.374 . S
C4310 H4284 0.950 . S
C4310 C4306 1.385 . S
C4310 C4309 1.374 . S
C4311 C4308 1.499 . S
C4311 C4312 1.373 . S
C4311 C4313 1.389 . S
C4312 H4285 0.950 . S
C4312 C4298 1.377 . S
C4312 C4311 1.373 . S
C4313 C4297 1.377 . S
C4313 C4311 1.389 . S
C4313 C4314 1.524 . S
C4314 C4313 1.524 . S
C4314 C4315 1.397 . S
C4314 C4319 1.363 . S
C4315 H4286 0.950 . S
C4315 C4314 1.397 . S
C4315 C4316 1.334 . S
C4316 H4287 0.950 . S
C4316 C4315 1.334 . S
C4316 C4317 1.287 . S
C4317 C4316 1.287 . S
C4317 C4318 1.524 . S
C4317 H4320 0.999 . S
C4318 H4288 0.950 . S
C4318 C4317 1.524 . S
C4318 C4319 1.415 . S
C4319 H4289 0.950 . S
C4319 C4314 1.363 . S
C4319 C4318 1.415 . S
H4320 C4317 0.999 . S
H4321 C4302 0.913 . S
H4322 C4340 0.951 . S
H4323 C4342 0.951 . S
H4324 C4344 0.950 . S
H4325 C4345 0.950 . S
H4326 C4347 0.950 . S
H4327 C4350 0.950 . S
H4328 C4351 0.950 . S
H4329 C4353 0.950 . S
H4330 C4354 0.950 . S
H4331 C4355 0.951 . S
H4332 C4357 0.951 . S
H4333 C4359 0.950 . S
H4334 C4360 0.950 . S
H4335 C4362 0.950 . S
H4336 C4365 0.950 . S
H4337 C4366 0.950 . S
H4338 C4368 0.950 . S
H4339 C4369 0.950 . S
C4340 H4322 0.951 . S
C4340 C4341 1.366 . S
C4340 C4342 1.388 . S
C4341 C4340 1.366 . S
C4341 C4345 1.385 . S
C4342 H4323 0.951 . S
C4342 C4340 1.388 . S
C4342 C4343 1.366 . S
C4343 C4342 1.366 . S
C4343 C4344 1.414 . S
C4343 C4346 1.499 . S
C4344 H4324 0.950 . S
C4344 C4343 1.414 . S
C4344 C4345 1.374 . S
C4345 H4325 0.950 . S
C4345 C4341 1.385 . S
C4345 C4344 1.374 . S
C4346 C4343 1.499 . S
C4346 C4347 1.373 . S
C4346 C4348 1.389 . S
C4347 H4326 0.950 . S
C4347 C4346 1.373 . S
C4347 C4363 1.377 . S
C4348 C4346 1.389 . S
C4348 C4349 1.524 . S
C4348 C4362 1.377 . S
C4349 C4348 1.524 . S
C4349 C4350 1.397 . S
C4349 C4354 1.363 . S
C4350 H4327 0.950 . S
C4350 C4349 1.397 . S
C4350 C4351 1.334 . S
C4351 H4328 0.950 . S
C4351 C4350 1.334 . S
C4351 C4352 1.287 . S
C4352 C4351 1.287 . S
C4352 C4353 1.524 . S
C4352 H4371 0.913 . S
C4353 H4329 0.950 . S
C4353 C4352 1.524 . S
C4353 C4354 1.415 . S
C4354 H4330 0.950 . S
C4354 C4349 1.363 . S
C4354 C4353 1.415 . S
C4355 H4331 0.951 . S
C4355 C4356 1.366 . S
C4355 C4357 1.388 . S
C4356 C4355 1.366 . S
C4356 C4360 1.385 . S
C4357 H4332 0.951 . S
C4357 C4355 1.388 . S
C4357 C4358 1.366 . S
C4358 C4357 1.366 . S
C4358 C4359 1.414 . S
C4358 C4361 1.499 . S
C4359 H4333 0.950 . S
C4359 C4358 1.414 . S
C4359 C4360 1.374 . S
C4360 H4334 0.950 . S
C4360 C4356 1.385 . S
C4360 C4359 1.374 . S
C4361 C4358 1.499 . S
C4361 C4362 1.373 . S
C4361 C4363 1.389 . S
C4362 H4335 0.950 . S
C4362 C4348 1.377 . S
C4362 C4361 1.373 . S
C4363 C4347 1.377 . S
C4363 C4361 1.389 . S
C4363 C4364 1.524 . S
C4364 C4363 1.524 . S
C4364 C4365 1.397 . S
C4364 C4369 1.363 . S
C4365 H4336 0.950 . S
C4365 C4364 1.397 . S
C4365 C4366 1.334 . S
C4366 H4337 0.950 . S
C4366 C4365 1.334 . S
C4366 C4367 1.287 . S
C4367 C4366 1.287 . S
C4367 C4368 1.524 . S
C4367 H4370 0.999 . S
C4368 H4338 0.950 . S
C4368 C4367 1.524 . S
C4368 C4369 1.415 . S
C4369 H4339 0.950 . S
C4369 C4364 1.363 . S
C4369 C4368 1.415 . S
H4370 C4367 0.999 . S
H4371 C4352 0.913 . S
H4372 C4390 0.951 . S
H4373 C4392 0.951 . S
H4374 C4394 0.950 . S
H4375 C4395 0.950 . S
H4376 C4397 0.950 . S
H4377 C4400 0.950 . S
H4378 C4401 0.950 . S
H4379 C4403 0.950 . S
H4380 C4404 0.950 . S
H4381 C4405 0.951 . S
H4382 C4407 0.951 . S
H4383 C4409 0.950 . S
H4384 C4410 0.950 . S
H4385 C4412 0.950 . S
H4386 C4415 0.950 . S
H4387 C4416 0.950 . S
H4388 C4418 0.950 . S
H4389 C4419 0.950 . S
C4390 H4372 0.951 . S
C4390 C4391 1.363 1_565 S
C4390 C4392 1.388 . S
C4391 C4390 1.363 1_545 S
C4391 C4395 1.395 . S
C4392 H4373 0.951 . S
C4392 C4390 1.388 . S
C4392 C4393 1.366 1_565 S
C4393 C4392 1.366 1_545 S
C4393 C4394 1.414 . S
C4393 C4396 1.499 . S
C4394 H4374 0.950 . S
C4394 C4393 1.414 . S
C4394 C4395 1.374 . S
C4395 H4375 0.950 . S
C4395 C4391 1.395 . S
C4395 C4394 1.374 . S
C4396 C4393 1.499 . S
C4396 C4397 1.373 . S
C4396 C4398 1.389 1_545 S
C4397 H4376 0.950 . S
C4397 C4396 1.373 . S
C4397 C4413 1.377 . S
C4398 C4396 1.389 1_565 S
C4398 C4399 1.524 . S
C4398 C4412 1.377 . S
C4399 C4398 1.524 . S
C4399 C4400 1.397 . S
C4399 C4404 1.363 . S
C4400 H4377 0.950 . S
C4400 C4399 1.397 . S
C4400 C4401 1.334 . S
C4401 H4378 0.950 . S
C4401 C4400 1.334 . S
C4401 C4402 1.287 . S
C4402 C4401 1.287 . S
C4402 C4403 1.524 . S
C4402 H4421 0.913 . S
C4403 H4379 0.950 . S
C4403 C4402 1.524 . S
C4403 C4404 1.415 . S
C4404 H4380 0.950 . S
C4404 C4399 1.363 . S
C4404 C4403 1.415 . S
C4405 H4381 0.951 . S
C4405 C4406 1.366 . S
C4405 C4407 1.388 . S
C4406 C4405 1.366 . S
C4406 C4410 1.385 . S
C4407 H4382 0.951 . S
C4407 C4405 1.388 . S
C4407 C4408 1.366 . S
C4408 C4407 1.366 . S
C4408 C4409 1.414 . S
C4408 C4411 1.499 . S
C4409 H4383 0.950 . S
C4409 C4408 1.414 . S
C4409 C4410 1.374 . S
C4410 H4384 0.950 . S
C4410 C4406 1.385 . S
C4410 C4409 1.374 . S
C4411 C4408 1.499 . S
C4411 C4412 1.373 1_545 S
C4411 C4413 1.389 . S
C4412 H4385 0.950 . S
C4412 C4398 1.377 . S
C4412 C4411 1.373 1_565 S
C4413 C4397 1.377 . S
C4413 C4411 1.389 . S
C4413 C4414 1.524 . S
C4414 C4413 1.524 . S
C4414 C4415 1.397 . S
C4414 C4419 1.363 . S
C4415 H4386 0.950 . S
C4415 C4414 1.397 . S
C4415 C4416 1.334 . S
C4416 H4387 0.950 . S
C4416 C4415 1.334 . S
C4416 C4417 1.287 . S
C4417 C4416 1.287 . S
C4417 C4418 1.524 . S
C4417 H4420 0.999 . S
C4418 H4388 0.950 . S
C4418 C4417 1.524 . S
C4418 C4419 1.415 . S
C4419 H4389 0.950 . S
C4419 C4414 1.363 . S
C4419 C4418 1.415 . S
H4420 C4417 0.999 . S
H4421 C4402 0.913 . S
H4422 C4440 0.951 . S
H4423 C4442 0.951 . S
H4424 C4444 0.950 . S
H4425 C4445 0.950 . S
H4426 C4447 0.950 . S
H4427 C4450 0.950 . S
H4428 C4451 0.950 . S
H4429 C4453 0.950 . S
H4430 C4454 0.950 . S
H4431 C4455 0.951 . S
H4432 C4457 0.936 1_545 S
H4433 C4459 0.950 . S
H4434 C4460 0.950 . S
H4435 C4462 0.950 . S
H4436 C4465 0.950 . S
H4437 C4466 0.950 . S
H4438 C4468 0.950 . S
H4439 C4469 0.950 . S
C4440 H4422 0.951 . S
C4440 C4441 1.366 . S
C4440 C4442 1.388 . S
C4441 C4440 1.366 . S
C4441 C4445 1.385 . S
C4442 H4423 0.951 . S
C4442 C4440 1.388 . S
C4442 C4443 1.366 . S
C4443 C4442 1.366 . S
C4443 C4444 1.414 . S
C4443 C4446 1.499 . S
C4444 H4424 0.950 . S
C4444 C4443 1.414 . S
C4444 C4445 1.374 . S
C4445 H4425 0.950 . S
C4445 C4441 1.385 . S
C4445 C4444 1.374 . S
C4446 C4443 1.499 . S
C4446 C4447 1.373 1_565 S
C4446 C4448 1.389 . S
C4447 H4426 0.950 . S
C4447 C4446 1.373 1_545 S
C4447 C4463 1.377 . S
C4448 C4446 1.389 . S
C4448 C4449 1.524 . S
C4448 C4462 1.377 . S
C4449 C4448 1.524 . S
C4449 C4450 1.397 . S
C4449 C4454 1.363 . S
C4450 H4427 0.950 . S
C4450 C4449 1.397 . S
C4450 C4451 1.334 . S
C4451 H4428 0.950 . S
C4451 C4450 1.334 . S
C4451 C4452 1.287 . S
C4452 C4451 1.287 . S
C4452 C4453 1.524 . S
C4452 H4471 0.913 . S
C4453 H4429 0.950 . S
C4453 C4452 1.524 . S
C4453 C4454 1.415 . S
C4454 H4430 0.950 . S
C4454 C4449 1.363 . S
C4454 C4453 1.415 . S
C4455 H4431 0.951 . S
C4455 C4456 1.366 1_545 S
C4455 C4457 1.391 1_545 S
C4456 C4455 1.366 1_565 S
C4456 C4460 1.385 . S
C4457 H4432 0.936 1_565 S
C4457 C4455 1.391 1_565 S
C4457 C4458 1.382 . S
C4458 C4457 1.382 . S
C4458 C4459 1.414 . S
C4458 C4461 1.499 . S
C4459 H4433 0.950 . S
C4459 C4458 1.414 . S
C4459 C4460 1.374 . S
C4460 H4434 0.950 . S
C4460 C4456 1.385 . S
C4460 C4459 1.374 . S
C4461 C4458 1.499 . S
C4461 C4462 1.373 . S
C4461 C4463 1.389 1_565 S
C4462 H4435 0.950 . S
C4462 C4448 1.377 . S
C4462 C4461 1.373 . S
C4463 C4447 1.377 . S
C4463 C4461 1.389 1_545 S
C4463 C4464 1.524 . S
C4464 C4463 1.524 . S
C4464 C4465 1.397 . S
C4464 C4469 1.363 . S
C4465 H4436 0.950 . S
C4465 C4464 1.397 . S
C4465 C4466 1.334 . S
C4466 H4437 0.950 . S
C4466 C4465 1.334 . S
C4466 C4467 1.287 . S
C4467 C4466 1.287 . S
C4467 C4468 1.524 . S
C4467 H4470 0.999 . S
C4468 H4438 0.950 . S
C4468 C4467 1.524 . S
C4468 C4469 1.415 . S
C4469 H4439 0.950 . S
C4469 C4464 1.363 . S
C4469 C4468 1.415 . S
H4470 C4467 0.999 . S
H4471 C4452 0.913 . S
H4472 C4490 0.951 . S
H4473 C4492 0.951 . S
H4474 C4494 0.950 . S
H4475 C4495 0.950 . S
H4476 C4497 0.950 . S
H4477 C4500 0.950 . S
H4478 C4501 0.950 . S
H4479 C4503 0.950 . S
H4480 C4504 0.950 . S
H4481 C4505 0.951 . S
H4482 C4507 0.951 . S
H4483 C4509 0.950 . S
H4484 C4510 0.950 . S
H4485 C4512 0.950 . S
H4486 C4515 0.950 . S
H4487 C4516 0.950 . S
H4488 C4518 0.950 . S
H4489 C4519 0.950 . S
C4490 H4472 0.951 . S
C4490 C4491 1.366 . S
C4490 C4492 1.388 . S
C4491 C4490 1.366 . S
C4491 C4495 1.385 . S
C4492 H4473 0.951 . S
C4492 C4490 1.388 . S
C4492 C4493 1.366 . S
C4493 C4492 1.366 . S
C4493 C4494 1.414 . S
C4493 C4496 1.499 . S
C4494 H4474 0.950 . S
C4494 C4493 1.414 . S
C4494 C4495 1.374 . S
C4495 H4475 0.950 . S
C4495 C4491 1.385 . S
C4495 C4494 1.374 . S
C4496 C4493 1.499 . S
C4496 C4497 1.373 . S
C4496 C4498 1.389 . S
C4497 H4476 0.950 . S
C4497 C4496 1.373 . S
C4497 C4513 1.377 . S
C4498 C4496 1.389 . S
C4498 C4499 1.524 . S
C4498 C4512 1.377 . S
C4499 C4498 1.524 . S
C4499 C4500 1.397 . S
C4499 C4504 1.363 . S
C4500 H4477 0.950 . S
C4500 C4499 1.397 . S
C4500 C4501 1.334 . S
C4501 H4478 0.950 . S
C4501 C4500 1.334 . S
C4501 C4502 1.287 . S
C4502 C4501 1.287 . S
C4502 C4503 1.524 . S
C4502 H4521 0.913 . S
C4503 H4479 0.950 . S
C4503 C4502 1.524 . S
C4503 C4504 1.415 . S
C4504 H4480 0.950 . S
C4504 C4499 1.363 . S
C4504 C4503 1.415 . S
C4505 H4481 0.951 . S
C4505 C4506 1.366 . S
C4505 C4507 1.388 . S
C4506 C4505 1.366 . S
C4506 C4510 1.385 . S
C4507 H4482 0.951 . S
C4507 C4505 1.388 . S
C4507 C4508 1.366 . S
C4508 C4507 1.366 . S
C4508 C4509 1.414 . S
C4508 C4511 1.499 . S
C4509 H4483 0.950 . S
C4509 C4508 1.414 . S
C4509 C4510 1.374 . S
C4510 H4484 0.950 . S
C4510 C4506 1.385 . S
C4510 C4509 1.374 . S
C4511 C4508 1.499 . S
C4511 C4512 1.373 . S
C4511 C4513 1.389 . S
C4512 H4485 0.950 . S
C4512 C4498 1.377 . S
C4512 C4511 1.373 . S
C4513 C4497 1.377 . S
C4513 C4511 1.389 . S
C4513 C4514 1.524 . S
C4514 C4513 1.524 . S
C4514 C4515 1.397 . S
C4514 C4519 1.363 . S
C4515 H4486 0.950 . S
C4515 C4514 1.397 . S
C4515 C4516 1.334 . S
C4516 H4487 0.950 . S
C4516 C4515 1.334 . S
C4516 C4517 1.287 . S
C4517 C4516 1.287 . S
C4517 C4518 1.524 . S
C4517 H4520 0.999 . S
C4518 H4488 0.950 . S
C4518 C4517 1.524 . S
C4518 C4519 1.415 . S
C4519 H4489 0.950 . S
C4519 C4514 1.363 . S
C4519 C4518 1.415 . S
H4520 C4517 0.999 . S
H4521 C4502 0.913 . S
H4522 C4540 0.951 . S
H4523 C4542 0.951 . S
H4524 C4544 0.978 . S
H4525 C4545 0.950 1_554 S
H4526 C4547 0.950 1_554 S
H4527 C4550 0.950 . S
H4528 C4551 0.950 . S
H4529 C4553 0.950 . S
H4530 C4554 0.950 . S
H4531 C4555 0.951 . S
H4532 C4557 0.951 . S
H4533 C4559 0.950 . S
H4534 C4560 0.950 . S
H4535 C4562 0.950 . S
H4536 C4565 0.950 . S
H4537 C4566 0.950 1_556 S
H4538 C4568 0.950 . S
H4539 C4569 0.950 . S
C4540 H4522 0.951 . S
C4540 C4541 1.366 . S
C4540 C4542 1.388 . S
C4541 C4540 1.366 . S
C4541 C4545 1.385 . S
C4542 H4523 0.951 . S
C4542 C4540 1.388 . S
C4542 C4543 1.366 . S
C4543 C4542 1.366 . S
C4543 C4544 1.387 1_556 S
C4543 C4546 1.499 . S
C4544 H4524 0.978 . S
C4544 C4543 1.387 1_554 S
C4544 C4545 1.374 1_554 S
C4545 H4525 0.950 1_556 S
C4545 C4541 1.385 . S
C4545 C4544 1.374 1_556 S
C4546 C4543 1.499 . S
C4546 C4547 1.373 . S
C4546 C4548 1.389 . S
C4547 H4526 0.950 1_556 S
C4547 C4546 1.373 . S
C4547 C4563 1.377 . S
C4548 C4546 1.389 . S
C4548 C4549 1.524 . S
C4548 C4562 1.377 . S
C4549 C4548 1.524 . S
C4549 C4550 1.397 . S
C4549 C4554 1.363 . S
C4550 H4527 0.950 . S
C4550 C4549 1.397 . S
C4550 C4551 1.334 . S
C4551 H4528 0.950 . S
C4551 C4550 1.334 . S
C4551 C4552 1.287 . S
C4552 C4551 1.287 . S
C4552 C4553 1.524 . S
C4552 H4571 0.913 . S
C4553 H4529 0.950 . S
C4553 C4552 1.524 . S
C4553 C4554 1.415 . S
C4554 H4530 0.950 . S
C4554 C4549 1.363 . S
C4554 C4553 1.415 . S
C4555 H4531 0.951 . S
C4555 C4556 1.366 1_554 S
C4555 C4557 1.388 . S
C4556 C4555 1.366 1_556 S
C4556 C4560 1.385 . S
C4557 H4532 0.951 . S
C4557 C4555 1.388 . S
C4557 C4558 1.366 1_554 S
C4558 C4557 1.366 1_556 S
C4558 C4559 1.414 . S
C4558 C4561 1.499 . S
C4559 H4533 0.950 . S
C4559 C4558 1.414 . S
C4559 C4560 1.374 . S
C4560 H4534 0.950 . S
C4560 C4556 1.385 . S
C4560 C4559 1.374 . S
C4561 C4558 1.499 . S
C4561 C4562 1.373 . S
C4561 C4563 1.389 . S
C4562 H4535 0.950 . S
C4562 C4548 1.377 . S
C4562 C4561 1.373 . S
C4563 C4547 1.377 . S
C4563 C4561 1.389 . S
C4563 C4564 1.524 1_556 S
C4564 C4563 1.524 1_554 S
C4564 C4565 1.397 1_554 S
C4564 C4569 1.363 . S
C4565 H4536 0.950 . S
C4565 C4564 1.397 1_556 S
C4565 C4566 1.334 1_556 S
C4566 H4537 0.950 1_554 S
C4566 C4565 1.334 1_554 S
C4566 C4567 1.287 . S
C4567 C4566 1.287 . S
C4567 C4568 1.524 . S
C4567 H4570 0.999 . S
C4568 H4538 0.950 . S
C4568 C4567 1.524 . S
C4568 C4569 1.415 . S
C4569 H4539 0.950 . S
C4569 C4564 1.363 . S
C4569 C4568 1.415 . S
H4570 C4567 0.999 . S
H4571 C4552 0.913 . S
H4572 C4590 0.951 . S
H4573 C4592 0.951 . S
H4574 C4594 0.950 . S
H4575 C4595 0.950 . S
H4576 C4597 0.950 . S
H4577 C4600 0.950 . S
H4578 C4601 0.950 . S
H4579 C4603 0.950 . S
H4580 C4604 0.950 . S
H4581 C4605 0.951 . S
H4582 C4607 0.951 . S
H4583 C4609 0.950 . S
H4584 C4610 0.950 . S
H4585 C4612 0.950 . S
H4586 C4615 0.950 . S
H4587 C4616 0.950 . S
H4588 C4618 0.950 . S
H4589 C4619 0.950 . S
C4590 H4572 0.951 . S
C4590 C4591 1.366 . S
C4590 C4592 1.388 . S
C4591 C4590 1.366 . S
C4591 C4595 1.385 . S
C4592 H4573 0.951 . S
C4592 C4590 1.388 . S
C4592 C4593 1.366 . S
C4593 C4592 1.366 . S
C4593 C4594 1.414 . S
C4593 C4596 1.499 . S
C4594 H4574 0.950 . S
C4594 C4593 1.414 . S
C4594 C4595 1.374 . S
C4595 H4575 0.950 . S
C4595 C4591 1.385 . S
C4595 C4594 1.374 . S
C4596 C4593 1.499 . S
C4596 C4597 1.373 . S
C4596 C4598 1.389 . S
C4597 H4576 0.950 . S
C4597 C4596 1.373 . S
C4597 C4613 1.377 . S
C4598 C4596 1.389 . S
C4598 C4599 1.524 . S
C4598 C4612 1.377 . S
C4599 C4598 1.524 . S
C4599 C4600 1.397 . S
C4599 C4604 1.363 . S
C4600 H4577 0.950 . S
C4600 C4599 1.397 . S
C4600 C4601 1.334 . S
C4601 H4578 0.950 . S
C4601 C4600 1.334 . S
C4601 C4602 1.287 . S
C4602 C4601 1.287 . S
C4602 C4603 1.524 . S
C4602 H4621 0.913 . S
C4603 H4579 0.950 . S
C4603 C4602 1.524 . S
C4603 C4604 1.415 . S
C4604 H4580 0.950 . S
C4604 C4599 1.363 . S
C4604 C4603 1.415 . S
C4605 H4581 0.951 . S
C4605 C4606 1.366 . S
C4605 C4607 1.388 . S
C4606 C4605 1.366 . S
C4606 C4610 1.385 . S
C4607 H4582 0.951 . S
C4607 C4605 1.388 . S
C4607 C4608 1.366 . S
C4608 C4607 1.366 . S
C4608 C4609 1.414 . S
C4608 C4611 1.499 . S
C4609 H4583 0.950 . S
C4609 C4608 1.414 . S
C4609 C4610 1.374 . S
C4610 H4584 0.950 . S
C4610 C4606 1.385 . S
C4610 C4609 1.374 . S
C4611 C4608 1.499 . S
C4611 C4612 1.373 . S
C4611 C4613 1.389 . S
C4612 H4585 0.950 . S
C4612 C4598 1.377 . S
C4612 C4611 1.373 . S
C4613 C4597 1.377 . S
C4613 C4611 1.389 . S
C4613 C4614 1.524 . S
C4614 C4613 1.524 . S
C4614 C4615 1.397 . S
C4614 C4619 1.363 . S
C4615 H4586 0.950 . S
C4615 C4614 1.397 . S
C4615 C4616 1.334 . S
C4616 H4587 0.950 . S
C4616 C4615 1.334 . S
C4616 C4617 1.287 . S
C4617 C4616 1.287 . S
C4617 C4618 1.524 . S
C4617 H4620 0.999 . S
C4618 H4588 0.950 . S
C4618 C4617 1.524 . S
C4618 C4619 1.415 . S
C4619 H4589 0.950 . S
C4619 C4614 1.363 . S
C4619 C4618 1.415 . S
H4620 C4617 0.999 . S
H4621 C4602 0.913 . S
H4622 C4640 0.954 . S
H4623 C4642 0.951 1_556 S
H4624 C4644 0.950 . S
H4625 C4645 0.950 . S
H4626 C4647 0.950 . S
H4627 C4650 0.950 . S
H4628 C4651 0.950 . S
H4629 C4653 0.950 . S
H4630 C4654 0.950 . S
H4631 C4655 0.951 . S
H4632 C4657 0.951 . S
H4633 C4659 0.950 . S
H4634 C4660 0.950 . S
H4635 C4662 0.950 . S
H4636 C4665 0.950 . S
H4637 C4666 0.950 . S
H4638 C4668 0.950 . S
H4639 C4669 0.950 . S
C4640 H4622 0.954 . S
C4640 C4641 1.367 1_556 S
C4640 C4642 1.382 1_556 S
C4641 C4640 1.367 1_554 S
C4641 C4645 1.391 . S
C4642 H4623 0.951 1_554 S
C4642 C4640 1.382 1_554 S
C4642 C4643 1.369 . S
C4643 C4642 1.369 . S
C4643 C4644 1.414 . S
C4643 C4646 1.499 . S
C4644 H4624 0.950 . S
C4644 C4643 1.414 . S
C4644 C4645 1.374 . S
C4645 H4625 0.950 . S
C4645 C4641 1.391 . S
C4645 C4644 1.374 . S
C4646 C4643 1.499 . S
C4646 C4647 1.373 . S
C4646 C4648 1.389 1_554 S
C4647 H4626 0.950 . S
C4647 C4646 1.373 . S
C4647 C4663 1.377 . S
C4648 C4646 1.389 1_556 S
C4648 C4649 1.524 . S
C4648 C4662 1.377 . S
C4649 C4648 1.524 . S
C4649 C4650 1.397 . S
C4649 C4654 1.363 . S
C4650 H4627 0.950 . S
C4650 C4649 1.397 . S
C4650 C4651 1.334 . S
C4651 H4628 0.950 . S
C4651 C4650 1.334 . S
C4651 C4652 1.287 . S
C4652 C4651 1.287 . S
C4652 C4653 1.524 . S
C4652 H4671 0.913 . S
C4653 H4629 0.950 . S
C4653 C4652 1.524 . S
C4653 C4654 1.415 . S
C4654 H4630 0.950 . S
C4654 C4649 1.363 . S
C4654 C4653 1.415 . S
C4655 H4631 0.951 . S
C4655 C4656 1.366 . S
C4655 C4657 1.388 . S
C4656 C4655 1.366 . S
C4656 C4660 1.385 . S
C4657 H4632 0.951 . S
C4657 C4655 1.388 . S
C4657 C4658 1.366 . S
C4658 C4657 1.366 . S
C4658 C4659 1.414 . S
C4658 C4661 1.499 . S
C4659 H4633 0.950 . S
C4659 C4658 1.414 . S
C4659 C4660 1.374 . S
C4660 H4634 0.950 . S
C4660 C4656 1.385 . S
C4660 C4659 1.374 . S
C4661 C4658 1.499 . S
C4661 C4662 1.373 1_554 S
C4661 C4663 1.389 . S
C4662 H4635 0.950 . S
C4662 C4648 1.377 . S
C4662 C4661 1.373 1_556 S
C4663 C4647 1.377 . S
C4663 C4661 1.389 . S
C4663 C4664 1.524 . S
C4664 C4663 1.524 . S
C4664 C4665 1.397 . S
C4664 C4669 1.363 . S
C4665 H4636 0.950 . S
C4665 C4664 1.397 . S
C4665 C4666 1.334 . S
C4666 H4637 0.950 . S
C4666 C4665 1.334 . S
C4666 C4667 1.287 . S
C4667 C4666 1.287 . S
C4667 C4668 1.524 . S
C4667 H4670 0.999 . S
C4668 H4638 0.950 . S
C4668 C4667 1.524 . S
C4668 C4669 1.415 . S
C4669 H4639 0.950 . S
C4669 C4664 1.363 . S
C4669 C4668 1.415 . S
H4670 C4667 0.999 . S
H4671 C4652 0.913 . S
H4672 C4690 0.951 . S
H4673 C4692 0.951 . S
H4674 C4694 0.950 . S
H4675 C4695 0.950 . S
H4676 C4697 0.950 . S
H4677 C4700 0.950 . S
H4678 C4701 0.950 . S
H4679 C4703 0.950 . S
H4680 C4704 0.950 . S
H4681 C4705 0.951 . S
H4682 C4707 0.951 . S
H4683 C4709 0.950 . S
H4684 C4710 0.950 . S
H4685 C4712 0.950 . S
H4686 C4715 0.950 . S
H4687 C4716 0.950 . S
H4688 C4718 0.950 . S
H4689 C4719 0.950 . S
C4690 H4672 0.951 . S
C4690 C4691 1.366 . S
C4690 C4692 1.388 . S
C4691 C4690 1.366 . S
C4691 C4695 1.385 . S
C4692 H4673 0.951 . S
C4692 C4690 1.388 . S
C4692 C4693 1.366 . S
C4693 C4692 1.366 . S
C4693 C4694 1.414 . S
C4693 C4696 1.499 . S
C4694 H4674 0.950 . S
C4694 C4693 1.414 . S
C4694 C4695 1.374 . S
C4695 H4675 0.950 . S
C4695 C4691 1.385 . S
C4695 C4694 1.374 . S
C4696 C4693 1.499 . S
C4696 C4697 1.373 . S
C4696 C4698 1.389 . S
C4697 H4676 0.950 . S
C4697 C4696 1.373 . S
C4697 C4713 1.377 . S
C4698 C4696 1.389 . S
C4698 C4699 1.524 . S
C4698 C4712 1.377 . S
C4699 C4698 1.524 . S
C4699 C4700 1.397 . S
C4699 C4704 1.363 . S
C4700 H4677 0.950 . S
C4700 C4699 1.397 . S
C4700 C4701 1.334 . S
C4701 H4678 0.950 . S
C4701 C4700 1.334 . S
C4701 C4702 1.287 . S
C4702 C4701 1.287 . S
C4702 C4703 1.524 . S
C4702 H4721 0.913 . S
C4703 H4679 0.950 . S
C4703 C4702 1.524 . S
C4703 C4704 1.415 . S
C4704 H4680 0.950 . S
C4704 C4699 1.363 . S
C4704 C4703 1.415 . S
C4705 H4681 0.951 . S
C4705 C4706 1.366 . S
C4705 C4707 1.388 . S
C4706 C4705 1.366 . S
C4706 C4710 1.385 . S
C4707 H4682 0.951 . S
C4707 C4705 1.388 . S
C4707 C4708 1.366 . S
C4708 C4707 1.366 . S
C4708 C4709 1.414 . S
C4708 C4711 1.499 . S
C4709 H4683 0.950 . S
C4709 C4708 1.414 . S
C4709 C4710 1.374 . S
C4710 H4684 0.950 . S
C4710 C4706 1.385 . S
C4710 C4709 1.374 . S
C4711 C4708 1.499 . S
C4711 C4712 1.373 . S
C4711 C4713 1.389 . S
C4712 H4685 0.950 . S
C4712 C4698 1.377 . S
C4712 C4711 1.373 . S
C4713 C4697 1.377 . S
C4713 C4711 1.389 . S
C4713 C4714 1.524 . S
C4714 C4713 1.524 . S
C4714 C4715 1.397 . S
C4714 C4719 1.363 . S
C4715 H4686 0.950 . S
C4715 C4714 1.397 . S
C4715 C4716 1.334 . S
C4716 H4687 0.950 . S
C4716 C4715 1.334 . S
C4716 C4717 1.287 . S
C4717 C4716 1.287 . S
C4717 C4718 1.524 . S
C4717 H4720 0.999 . S
C4718 H4688 0.950 . S
C4718 C4717 1.524 . S
C4718 C4719 1.415 . S
C4719 H4689 0.950 . S
C4719 C4714 1.363 . S
C4719 C4718 1.415 . S
H4720 C4717 0.999 . S
H4721 C4702 0.913 . S
H4722 C4740 0.951 . S
H4723 C4742 0.951 . S
H4724 C4744 0.950 1_455 S
H4725 C4745 0.950 1_455 S
H4726 C4747 0.950 . S
H4727 C4750 0.950 . S
H4728 C4751 0.950 . S
H4729 C4753 0.950 . S
H4730 C4754 0.950 . S
H4731 C4755 0.951 . S
H4732 C4757 0.951 . S
H4733 C4759 0.950 . S
H4734 C4760 0.950 . S
H4735 C4762 0.950 . S
H4736 C4765 0.950 . S
H4737 C4766 0.950 . S
H4738 C4768 0.950 . S
H4739 C4769 0.950 . S
C4740 H4722 0.951 . S
C4740 C4741 1.366 . S
C4740 C4742 1.388 . S
C4741 C4740 1.366 . S
C4741 C4745 1.385 . S
C4742 H4723 0.951 . S
C4742 C4740 1.388 . S
C4742 C4743 1.366 . S
C4743 C4742 1.366 . S
C4743 C4744 1.414 . S
C4743 C4746 1.499 . S
C4744 H4724 0.950 1_655 S
C4744 C4743 1.414 . S
C4744 C4745 1.374 . S
C4745 H4725 0.950 1_655 S
C4745 C4741 1.385 . S
C4745 C4744 1.374 . S
C4746 C4743 1.499 . S
C4746 C4747 1.373 1_655 S
C4746 C4748 1.389 . S
C4747 H4726 0.950 . S
C4747 C4746 1.373 1_455 S
C4747 C4763 1.377 . S
C4748 C4746 1.389 . S
C4748 C4749 1.524 . S
C4748 C4762 1.377 . S
C4749 C4748 1.524 . S
C4749 C4750 1.397 . S
C4749 C4754 1.363 . S
C4750 H4727 0.950 . S
C4750 C4749 1.397 . S
C4750 C4751 1.334 . S
C4751 H4728 0.950 . S
C4751 C4750 1.334 . S
C4751 C4752 1.287 . S
C4752 C4751 1.287 . S
C4752 C4753 1.524 . S
C4752 H4771 0.913 . S
C4753 H4729 0.950 . S
C4753 C4752 1.524 . S
C4753 C4754 1.415 . S
C4754 H4730 0.950 . S
C4754 C4749 1.363 . S
C4754 C4753 1.415 . S
C4755 H4731 0.951 . S
C4755 C4756 1.366 1_455 S
C4755 C4757 1.388 . S
C4756 C4755 1.366 1_655 S
C4756 C4760 1.385 . S
C4757 H4732 0.951 . S
C4757 C4755 1.388 . S
C4757 C4758 1.366 1_455 S
C4758 C4757 1.366 1_655 S
C4758 C4759 1.414 . S
C4758 C4761 1.499 . S
C4759 H4733 0.950 . S
C4759 C4758 1.414 . S
C4759 C4760 1.374 . S
C4760 H4734 0.950 . S
C4760 C4756 1.385 . S
C4760 C4759 1.374 . S
C4761 C4758 1.499 . S
C4761 C4762 1.373 . S
C4761 C4763 1.389 1_655 S
C4762 H4735 0.950 . S
C4762 C4748 1.377 . S
C4762 C4761 1.373 . S
C4763 C4747 1.377 . S
C4763 C4761 1.389 1_455 S
C4763 C4764 1.524 . S
C4764 C4763 1.524 . S
C4764 C4765 1.397 . S
C4764 C4769 1.363 . S
C4765 H4736 0.950 . S
C4765 C4764 1.397 . S
C4765 C4766 1.334 . S
C4766 H4737 0.950 . S
C4766 C4765 1.334 . S
C4766 C4767 1.287 . S
C4767 C4766 1.287 . S
C4767 C4768 1.524 . S
C4767 H4770 0.999 . S
C4768 H4738 0.950 . S
C4768 C4767 1.524 . S
C4768 C4769 1.415 . S
C4769 H4739 0.950 . S
C4769 C4764 1.363 . S
C4769 C4768 1.415 . S
H4770 C4767 0.999 . S
H4771 C4752 0.913 . S
H4772 C4790 0.951 . S
H4773 C4792 0.951 . S
H4774 C4794 0.950 . S
H4775 C4795 0.950 . S
H4776 C4797 0.950 . S
H4777 C4800 0.950 . S
H4778 C4801 0.950 . S
H4779 C4803 0.950 . S
H4780 C4804 0.950 . S
H4781 C4805 0.951 . S
H4782 C4807 0.951 . S
H4783 C4809 0.950 . S
H4784 C4810 0.950 . S
H4785 C4812 0.950 . S
H4786 C4815 0.950 . S
H4787 C4816 0.950 . S
H4788 C4818 0.950 . S
H4789 C4819 0.950 . S
C4790 H4772 0.951 . S
C4790 C4791 1.366 . S
C4790 C4792 1.388 . S
C4791 C4790 1.366 . S
C4791 C4795 1.385 . S
C4792 H4773 0.951 . S
C4792 C4790 1.388 . S
C4792 C4793 1.366 . S
C4793 C4792 1.366 . S
C4793 C4794 1.414 . S
C4793 C4796 1.499 . S
C4794 H4774 0.950 . S
C4794 C4793 1.414 . S
C4794 C4795 1.374 . S
C4795 H4775 0.950 . S
C4795 C4791 1.385 . S
C4795 C4794 1.374 . S
C4796 C4793 1.499 . S
C4796 C4797 1.373 . S
C4796 C4798 1.389 . S
C4797 H4776 0.950 . S
C4797 C4796 1.373 . S
C4797 C4813 1.377 . S
C4798 C4796 1.389 . S
C4798 C4799 1.524 . S
C4798 C4812 1.377 . S
C4799 C4798 1.524 . S
C4799 C4800 1.397 . S
C4799 C4804 1.363 . S
C4800 H4777 0.950 . S
C4800 C4799 1.397 . S
C4800 C4801 1.334 . S
C4801 H4778 0.950 . S
C4801 C4800 1.334 . S
C4801 C4802 1.287 . S
C4802 C4801 1.287 . S
C4802 C4803 1.524 . S
C4802 H4821 0.913 . S
C4803 H4779 0.950 . S
C4803 C4802 1.524 . S
C4803 C4804 1.415 . S
C4804 H4780 0.950 . S
C4804 C4799 1.363 . S
C4804 C4803 1.415 . S
C4805 H4781 0.951 . S
C4805 C4806 1.366 . S
C4805 C4807 1.388 . S
C4806 C4805 1.366 . S
C4806 C4810 1.385 . S
C4807 H4782 0.951 . S
C4807 C4805 1.388 . S
C4807 C4808 1.366 . S
C4808 C4807 1.366 . S
C4808 C4809 1.414 . S
C4808 C4811 1.499 . S
C4809 H4783 0.950 . S
C4809 C4808 1.414 . S
C4809 C4810 1.374 . S
C4810 H4784 0.950 . S
C4810 C4806 1.385 . S
C4810 C4809 1.374 . S
C4811 C4808 1.499 . S
C4811 C4812 1.373 . S
C4811 C4813 1.389 . S
C4812 H4785 0.950 . S
C4812 C4798 1.377 . S
C4812 C4811 1.373 . S
C4813 C4797 1.377 . S
C4813 C4811 1.389 . S
C4813 C4814 1.524 . S
C4814 C4813 1.524 . S
C4814 C4815 1.397 . S
C4814 C4819 1.363 . S
C4815 H4786 0.950 . S
C4815 C4814 1.397 . S
C4815 C4816 1.334 . S
C4816 H4787 0.950 . S
C4816 C4815 1.334 . S
C4816 C4817 1.287 . S
C4817 C4816 1.287 . S
C4817 C4818 1.524 . S
C4817 H4820 0.999 . S
C4818 H4788 0.950 . S
C4818 C4817 1.524 . S
C4818 C4819 1.415 . S
C4819 H4789 0.950 . S
C4819 C4814 1.363 . S
C4819 C4818 1.415 . S
H4820 C4817 0.999 . S
H4821 C4802 0.913 . S
H4822 C4840 0.951 . S
H4823 C4842 0.951 . S
H4824 C4844 0.950 . S
H4825 C4845 0.950 . S
H4826 C4847 0.950 . S
H4827 C4850 0.950 . S
H4828 C4851 0.950 . S
H4829 C4853 0.950 . S
H4830 C4854 0.950 . S
H4831 C4855 0.951 . S
H4832 C4857 0.951 . S
H4833 C4859 0.950 1_655 S
H4834 C4860 0.938 1_655 S
H4835 C4862 0.950 . S
H4836 C4865 0.950 . S
H4837 C4866 0.950 . S
H4838 C4868 0.950 . S
H4839 C4869 0.950 . S
C4840 H4822 0.951 . S
C4840 C4841 1.358 1_655 S
C4840 C4842 1.388 . S
C4841 C4840 1.358 1_455 S
C4841 C4845 1.400 . S
C4842 H4823 0.951 . S
C4842 C4840 1.388 . S
C4842 C4843 1.366 1_655 S
C4843 C4842 1.366 1_455 S
C4843 C4844 1.414 . S
C4843 C4846 1.499 . S
C4844 H4824 0.950 . S
C4844 C4843 1.414 . S
C4844 C4845 1.374 . S
C4845 H4825 0.950 . S
C4845 C4841 1.400 . S
C4845 C4844 1.374 . S
C4846 C4843 1.499 . S
C4846 C4847 1.373 . S
C4846 C4848 1.389 1_455 S
C4847 H4826 0.950 . S
C4847 C4846 1.373 . S
C4847 C4863 1.377 . S
C4848 C4846 1.389 1_655 S
C4848 C4849 1.524 . S
C4848 C4862 1.377 . S
C4849 C4848 1.524 . S
C4849 C4850 1.397 . S
C4849 C4854 1.363 . S
C4850 H4827 0.950 . S
C4850 C4849 1.397 . S
C4850 C4851 1.334 . S
C4851 H4828 0.950 . S
C4851 C4850 1.334 . S
C4851 C4852 1.287 . S
C4852 C4851 1.287 . S
C4852 C4853 1.524 . S
C4852 H4871 0.913 . S
C4853 H4829 0.950 . S
C4853 C4852 1.524 . S
C4853 C4854 1.415 . S
C4854 H4830 0.950 . S
C4854 C4849 1.363 . S
C4854 C4853 1.415 . S
C4855 H4831 0.951 . S
C4855 C4856 1.366 . S
C4855 C4857 1.388 . S
C4856 C4855 1.366 . S
C4856 C4860 1.385 . S
C4857 H4832 0.951 . S
C4857 C4855 1.388 . S
C4857 C4858 1.366 . S
C4858 C4857 1.366 . S
C4858 C4859 1.414 . S
C4858 C4861 1.499 . S
C4859 H4833 0.950 1_455 S
C4859 C4858 1.414 . S
C4859 C4860 1.374 . S
C4860 H4834 0.938 1_455 S
C4860 C4856 1.385 . S
C4860 C4859 1.374 . S
C4861 C4858 1.499 . S
C4861 C4862 1.373 1_455 S
C4861 C4863 1.389 . S
C4862 H4835 0.950 . S
C4862 C4848 1.377 . S
C4862 C4861 1.373 1_655 S
C4863 C4847 1.377 . S
C4863 C4861 1.389 . S
C4863 C4864 1.524 . S
C4864 C4863 1.524 . S
C4864 C4865 1.397 . S
C4864 C4869 1.363 . S
C4865 H4836 0.950 . S
C4865 C4864 1.397 . S
C4865 C4866 1.334 . S
C4866 H4837 0.950 . S
C4866 C4865 1.334 . S
C4866 C4867 1.287 . S
C4867 C4866 1.287 . S
C4867 C4868 1.524 . S
C4867 H4870 0.999 . S
C4868 H4838 0.950 . S
C4868 C4867 1.524 . S
C4868 C4869 1.415 . S
C4869 H4839 0.950 . S
C4869 C4864 1.363 . S
C4869 C4868 1.415 . S
H4870 C4867 0.999 . S
H4871 C4852 0.913 . S
C1306 N1260 1.709 . S
C1291 C15 1.724 . S
C1356 N1221 1.401 . S
C1341 C55 1.345 . S
C1406 N1247 0.510 . S
C1391 C95 0.457 1_545 S
C1456 N1234 1.393 . S
C1441 C135 1.397 . S
C1506 N1143 1.709 . S
C1491 C175 1.724 . S
C1541 C215 1.397 . S
C1556 N1156 1.393 . S
C1606 N1117 1.402 . S
C1591 C255 1.345 . S
C1641 C295 0.457 1_554 S
C1656 N1130 0.511 . S
C1706 N1208 1.709 . S
C1691 C335 1.723 . S
C1741 C375 1.398 . S
C1756 N1182 1.393 . S
C1791 C415 1.346 . S
C1806 N1169 1.402 . S
C1856 N1195 0.511 . S
C1841 C455 0.457 1_455 S
C1906 N1104 1.719 . S
C1891 C495 1.720 . S
C1941 C535 1.337 . S
C1956 N1065 1.400 . S
C2006 N1091 0.510 . S
C1991 C575 0.458 . S
C2041 C615 1.396 . S
C2056 N1078 1.417 . S
C2106 N987 1.719 . S
C2091 C655 1.720 . S
C2156 N1000 1.417 . S
C2141 C695 1.396 . S
C2191 C735 1.339 . S
C2206 N961 1.400 . S
C2241 C775 0.458 . S
C2256 N974 0.513 . S
C2291 C815 1.713 . S
C2306 N1052 1.726 . S
C2341 C855 1.396 . S
C2356 N1026 1.417 . S
C2406 N1013 1.400 . S
C2391 C895 1.339 . S
C2441 C935 0.458 . S
C2456 N1039 0.510 . S
C2506 N965 1.711 . S
C2491 C21 1.710 . S
C2556 N978 1.813 . S
C2541 C61 1.793 . S
C2591 C101 0.792 1_545 S
C2606 N991 0.786 1_565 S
C2641 C141 0.880 . S
C2656 N1004 0.870 . S
C2706 N1017 1.712 . S
C2691 C181 1.710 . S
C2741 C221 0.880 . S
C2756 N1030 0.870 . S
C2806 N1043 1.813 . S
C2791 C261 1.793 . S
C2856 N1056 0.787 1_556 S
C2841 C301 0.791 1_554 S
C2906 N1069 1.711 . S
C2891 C341 1.710 . S
C2941 C381 0.880 . S
C2956 N1082 0.870 . S
C2991 C421 1.796 . S
C3006 N1095 1.810 . S
C3041 C461 0.791 1_455 S
C3056 N1108 0.787 1_655 S
C3091 C501 1.670 . S
C3106 N1121 1.712 . S
C3141 C541 1.675 . S
C3156 N1134 1.807 . S
C3191 C581 0.791 . S
C3206 N1147 0.789 1_545 S
C3241 C621 0.872 . S
C3256 N1160 0.869 . S
C3291 C661 1.671 . S
C3306 N1173 1.712 . S
C3356 N1186 0.876 . S
C3341 C701 0.865 . S
C3406 N1199 1.810 . S
C3391 C741 1.671 . S
C3456 N1212 0.788 1_554 S
C3441 C781 0.792 . S
C3506 N1225 1.712 . S
C3491 C821 1.670 . S
C3541 C861 0.873 . S
C3556 N1238 0.868 . S
C3591 C901 1.676 . S
C3606 N1251 1.808 . S
C3641 C941 0.792 . S
C3656 N1264 0.789 1_455 S
C3691 C2 1.650 . S
C3706 N1066 1.645 . S
C3756 N1105 1.858 . S
C3741 C42 1.859 . S
C3791 C82 1.513 . S
C3806 N1079 1.508 . S
C3856 N1092 1.539 . S
C3841 C122 1.515 . S
C3891 C162 1.650 . S
C3906 N962 1.644 . S
C3941 C202 1.515 . S
C3956 N975 1.539 . S
C3991 C242 1.866 . S
C4006 N988 1.851 . S
C4041 C282 1.513 . S
C4056 N1001 1.508 . S
C4106 N1014 1.644 . S
C4091 C322 1.650 . S
C4156 N1040 1.539 . S
C4141 C362 1.515 . S
C4191 C402 1.866 . S
C4206 N1053 1.851 . S
C4241 C442 1.513 . S
C4256 N1027 1.508 . S
C4306 N1222 1.647 . S
C4291 C482 1.621 . S
C4356 N1261 1.850 . S
C4341 C522 1.766 . S
C4391 C562 1.516 1_545 S
C4406 N1235 1.498 . S
C4456 N1248 1.541 . S
C4441 C602 1.497 . S
C4491 C642 1.621 . S
C4506 N1118 1.647 . S
C4541 C682 1.498 . S
C4556 N1131 1.541 . S
C4591 C722 1.773 . S
C4606 N1144 1.844 . S
C4656 N1157 1.498 . S
C4641 C762 1.516 1_554 S
C4706 N1170 1.647 . S
C4691 C802 1.621 . S
C4756 N1196 1.541 . S
C4741 C842 1.497 . S
C4791 C882 1.774 . S
C4806 N1209 1.844 . S
C4856 N1183 1.498 . S
C4841 C922 1.516 1_455 S
