# Generated by pormake.
# Topology llj, (12,3)-cn, num edge types: 1
# Building blocks:
#     Node 0, Type 0, BuildingBlock: QEWDON_clean_sbu_0, # of connection points: 12
#     Node 1, Type 0, BuildingBlock: QEWDON_clean_sbu_0, # of connection points: 12
#     Node 2, Type 1, BuildingBlock: ESEHIV_clean_linker_0, # of connection points: 3
#     Node 3, Type 1, BuildingBlock: ESEHIV_clean_linker_0, # of connection points: 3
#     Node 4, Type 1, BuildingBlock: ESEHIV_clean_linker_0, # of connection points: 3
#     Node 5, Type 1, BuildingBlock: ESEHIV_clean_linker_0, # of connection points: 3
#     Node 6, Type 1, BuildingBlock: ESEHIV_clean_linker_0, # of connection points: 3
#     Node 7, Type 1, BuildingBlock: ESEHIV_clean_linker_0, # of connection points: 3
#     Node 8, Type 1, BuildingBlock: ESEHIV_clean_linker_0, # of connection points: 3
#     Node 9, Type 1, BuildingBlock: ESEHIV_clean_linker_0, # of connection points: 3
#     Edge 10, Type (0, 1), BuildingBlock: ZUJKAS_clean_linker_0, # of connection points: 2
#     Edge 11, Type (0, 1), BuildingBlock: ZUJKAS_clean_linker_0, # of connection points: 2
#     Edge 12, Type (0, 1), BuildingBlock: ZUJKAS_clean_linker_0, # of connection points: 2
#     Edge 13, Type (0, 1), BuildingBlock: ZUJKAS_clean_linker_0, # of connection points: 2
#     Edge 14, Type (0, 1), BuildingBlock: ZUJKAS_clean_linker_0, # of connection points: 2
#     Edge 15, Type (0, 1), BuildingBlock: ZUJKAS_clean_linker_0, # of connection points: 2
#     Edge 16, Type (0, 1), BuildingBlock: ZUJKAS_clean_linker_0, # of connection points: 2
#     Edge 17, Type (0, 1), BuildingBlock: ZUJKAS_clean_linker_0, # of connection points: 2
#     Edge 18, Type (0, 1), BuildingBlock: ZUJKAS_clean_linker_0, # of connection points: 2
#     Edge 19, Type (0, 1), BuildingBlock: ZUJKAS_clean_linker_0, # of connection points: 2
#     Edge 20, Type (0, 1), BuildingBlock: ZUJKAS_clean_linker_0, # of connection points: 2
#     Edge 21, Type (0, 1), BuildingBlock: ZUJKAS_clean_linker_0, # of connection points: 2
#     Edge 22, Type (0, 1), BuildingBlock: ZUJKAS_clean_linker_0, # of connection points: 2
#     Edge 23, Type (0, 1), BuildingBlock: ZUJKAS_clean_linker_0, # of connection points: 2
#     Edge 24, Type (0, 1), BuildingBlock: ZUJKAS_clean_linker_0, # of connection points: 2
#     Edge 25, Type (0, 1), BuildingBlock: ZUJKAS_clean_linker_0, # of connection points: 2
#     Edge 26, Type (0, 1), BuildingBlock: ZUJKAS_clean_linker_0, # of connection points: 2
#     Edge 27, Type (0, 1), BuildingBlock: ZUJKAS_clean_linker_0, # of connection points: 2
#     Edge 28, Type (0, 1), BuildingBlock: ZUJKAS_clean_linker_0, # of connection points: 2
#     Edge 29, Type (0, 1), BuildingBlock: ZUJKAS_clean_linker_0, # of connection points: 2
#     Edge 30, Type (0, 1), BuildingBlock: ZUJKAS_clean_linker_0, # of connection points: 2
#     Edge 31, Type (0, 1), BuildingBlock: ZUJKAS_clean_linker_0, # of connection points: 2
#     Edge 32, Type (0, 1), BuildingBlock: ZUJKAS_clean_linker_0, # of connection points: 2
#     Edge 33, Type (0, 1), BuildingBlock: ZUJKAS_clean_linker_0, # of connection points: 2
# Relax obj value: 0.011
# Max RMSD: 0.052
# Mean RMSD: 0.048
data_MOF--net-llj--node1-QEWDON_clean_sbu_0--node2-ESEHIV_clean_linker_0--edge1-ZUJKAS_clean_linker_0
_symmetry_space_group_name_H-M    P1
_symmetry_Int_Tables_number       1
_symmetry_cell_setting            triclinic
loop_
_symmetry_equiv_pos_as_xyz
'x, y, z'
_cell_length_a     45.819003
_cell_length_b     45.793308
_cell_length_c     32.047782
_cell_angle_alpha  89.964346
_cell_angle_beta   89.958292
_cell_angle_gamma 89.705491
loop_
_atom_site_label
_atom_site_type_symbol
_atom_site_fract_x
_atom_site_fract_y
_atom_site_fract_z
_atom_type_partial_charge
Zn0 Zn 0.943 0.05436 0.96606 0.0
Zn1 Zn 0.94733 0.04721 0.06467 0.0
O2 O 0.97107 0.04471 0.01274 0.0
H3 H 0.98842 0.03295 0.00886 0.0
C4 C 0.92917 0.98663 0.90437 0.0
O5 O 0.92356 -0.00135 0.94071 0.0
Zn6 Zn 0.04937 0.94691 0.07109 0.0
Zn7 Zn 0.05466 0.94676 0.97319 0.0
O8 O 0.02515 0.95081 0.0198 0.0
H9 H 0.00826 0.96338 0.01741 0.0
Zn10 Zn 0.94795 0.94115 0.96003 0.0
O11 O 0.94937 0.96857 0.00944 0.0
Zn12 Zn 0.94539 0.94296 0.05898 0.0
H13 H 0.95933 0.98709 0.00881 0.0
Zn14 Zn 0.05524 0.05089 0.96406 0.0
O15 O 0.05431 0.02298 0.01258 0.0
H16 H 0.04571 0.00387 0.01052 0.0
Zn17 Zn 0.05394 0.04863 0.06214 0.0
C18 C 0.07953 0.00743 0.91094 0.0
O19 O 0.08872 -0.00096 0.94788 0.0
O20 O 0.90657 0.07717 0.9857 0.0
O21 O 0.91077 0.07206 0.05454 0.0
O22 O 0.08998 0.92148 0.99009 0.0
O23 O 0.08448 0.92048 0.05911 0.0
O24 O 0.92696 0.90245 0.97308 0.0
O25 O 0.92563 0.90502 0.04238 0.0
C26 C -0.00049 0.06478 0.10784 0.0
O27 O 0.07396 0.09042 0.97904 0.0
O28 O 0.0722 0.08788 0.04839 0.0
O29 O 0.03632 0.94075 0.91492 0.0
C30 C 0.89737 0.08212 0.02261 0.0
O31 O 0.96208 0.06416 0.90921 0.0
C32 C 0.99718 0.93059 0.11507 0.0
O33 O 0.94009 0.96109 0.90331 0.0
C34 C 0.09813 0.91279 0.02607 0.0
O35 O 0.06447 0.03072 0.90796 0.0
C36 C 0.92166 0.99143 0.10489 0.0
O37 O 0.97187 0.06572 0.11024 0.0
O38 O 0.01138 0.05256 0.07666 0.0
C39 C 0.91975 0.89181 0.00836 0.0
O40 O 0.02472 0.93185 0.11928 0.0
O41 O 0.98637 0.93655 0.0796 0.0
C42 C 0.07634 0.00181 0.11113 0.0
O43 O 0.92128 0.96373 0.10263 0.0
O44 O 0.93738 0.00526 0.07884 0.0
C45 C 0.07901 0.10139 0.01487 0.0
O46 O 0.07719 0.02944 0.1082 0.0
O47 O 0.0614 0.98809 0.0842 0.0
C48 C 0.0144 0.92389 0.91466 0.0
O49 O 0.00634 0.91149 0.94979 0.0
C50 C 0.98804 0.07375 0.91057 0.0
O51 O 0.0005 0.07741 0.94708 0.0
Zn52 Zn 0.45233 0.54297 0.47773 0.0
Zn53 Zn 0.45558 0.54079 0.57654 0.0
O54 O 0.47984 0.53488 0.52567 0.0
H55 H 0.49713 0.52283 0.52367 0.0
C56 C 0.44756 0.47126 0.39592 0.0
O57 O 0.47351 0.47722 0.41101 0.0
Zn58 Zn 0.54897 0.45303 0.573 0.0
Zn59 Zn 0.5469 0.44518 0.47479 0.0
O60 O 0.52192 0.45613 0.52447 0.0
H61 H 0.50526 0.46911 0.52294 0.0
Zn62 Zn 0.44473 0.43572 0.47102 0.0
O63 O 0.44452 0.46463 0.51847 0.0
Zn64 Zn 0.4453 0.44037 0.57006 0.0
H65 H 0.44748 0.48538 0.51548 0.0
Zn66 Zn 0.56324 0.5623 0.46847 0.0
O67 O 0.56287 0.53152 0.51362 0.0
H68 H 0.55549 0.5121 0.5089 0.0
Zn69 Zn 0.56146 0.55487 0.56617 0.0
C70 C 0.55702 0.52544 0.39658 0.0
O71 O 0.53557 0.5159 0.4201 0.0
O72 O 0.41654 0.56743 0.49504 0.0
O73 O 0.42111 0.56781 0.56416 0.0
O74 O 0.58323 0.42109 0.49063 0.0
O75 O 0.58236 0.42516 0.5598 0.0
O76 O 0.42781 0.39598 0.48818 0.0
O77 O 0.42803 0.4004 0.55731 0.0
C78 C 0.50777 0.56213 0.61704 0.0
O79 O 0.5816 0.60092 0.48771 0.0
O80 O 0.58142 0.59416 0.5565 0.0
O81 O 0.52405 0.43221 0.42266 0.0
C82 C 0.4079 0.57578 0.53094 0.0
O83 O 0.47283 0.55477 0.42309 0.0
C84 C 0.50024 0.4347 0.6226 0.0
O85 O 0.4313 0.45336 0.41512 0.0
C86 C 0.59366 0.41489 0.52643 0.0
O87 O 0.57251 0.54646 0.40963 0.0
C88 C 0.42428 0.48823 0.61698 0.0
O89 O 0.4808 0.55718 0.62273 0.0
O90 O 0.51872 0.55807 0.58105 0.0
C91 C 0.4224 0.3858 0.52437 0.0
O92 O 0.52758 0.43898 0.62455 0.0
O93 O 0.48754 0.4387 0.58779 0.0
C94 C 0.57724 0.50481 0.61194 0.0
O95 O 0.42147 0.46071 0.61441 0.0
O96 O 0.44168 0.50046 0.59156 0.0
C97 C 0.58762 0.60961 0.52449 0.0
O98 O 0.58117 0.53223 0.61274 0.0
O99 O 0.56281 0.49399 0.58206 0.0
C100 C 0.50488 0.41256 0.42758 0.0
O101 O 0.50099 0.40132 0.4649 0.0
C102 C 0.49253 0.57405 0.42634 0.0
O103 O 0.49814 0.58515 0.46327 0.0
H104 H 0.37593 0.35927 0.0266 0.0
H105 H 0.30771 0.31175 0.08822 0.0
H106 H 0.30804 0.31924 0.95429 0.0
C107 C 0.356 0.34667 0.02509 0.0
C108 C 0.34353 0.34053 0.98613 0.0
C109 C 0.34324 0.3364 0.06205 0.0
C110 C 0.31733 0.32028 0.05983 0.0
C111 C 0.30452 0.31387 0.02109 0.0
C112 C 0.31788 0.3239 0.98429 0.0
H113 H 0.6435 0.38564 0.00691 0.0
H114 H 0.68365 0.32238 0.08811 0.0
H115 H 0.69549 0.31635 0.95498 0.0
C116 C 0.65678 0.3662 0.01125 0.0
C117 C 0.66885 0.35225 0.97631 0.0
C118 C 0.6618 0.35553 0.05165 0.0
C119 C 0.67939 0.33058 0.05696 0.0
C120 C 0.69177 0.31633 0.02226 0.0
C121 C 0.68617 0.32721 0.98196 0.0
H122 H 0.62678 0.62804 0.02233 0.0
H123 H 0.69585 0.67273 0.95831 0.0
H124 H 0.69188 0.6741 0.09245 0.0
C125 C 0.64625 0.64138 0.02319 0.0
C126 C 0.65751 0.65032 0.0618 0.0
C127 C 0.65996 0.64926 0.98572 0.0
C128 C 0.68564 0.66581 0.98716 0.0
C129 C 0.69733 0.67484 0.02554 0.0
C130 C 0.68318 0.66692 0.06276 0.0
H131 H 0.33744 0.59724 0.00957 0.0
H132 H 0.30436 0.66534 0.08909 0.0
H133 H 0.2898 0.66916 0.95638 0.0
C134 C 0.32526 0.61741 0.01352 0.0
C135 C 0.31387 0.6317 0.97838 0.0
C136 C 0.32209 0.62945 0.05349 0.0
C137 C 0.30703 0.65601 0.05824 0.0
C138 C 0.2953 0.67053 0.02335 0.0
C139 C 0.29909 0.65836 0.98343 0.0
H140 H 0.86367 0.89114 0.51588 0.0
H141 H 0.80413 0.84145 0.59094 0.0
H142 H 0.79521 0.84222 0.45724 0.0
C143 C 0.84441 0.8776 0.51829 0.0
C144 C 0.83034 0.86816 0.48185 0.0
C145 C 0.8351 0.86808 0.5577 0.0
C146 C 0.81109 0.84924 0.56059 0.0
C147 C 0.79661 0.83968 0.52448 0.0
C148 C 0.80634 0.84936 0.48524 0.0
H149 H 0.16657 0.89066 0.5049 0.0
H150 H 0.20351 0.82221 0.58019 0.0
H151 H 0.21512 0.82129 0.44677 0.0
C152 C 0.17941 0.87079 0.50754 0.0
C153 C 0.19082 0.85781 0.47141 0.0
C154 C 0.18362 0.858 0.54684 0.0
C155 C 0.19943 0.83174 0.54977 0.0
C156 C 0.21099 0.81834 0.51387 0.0
C157 C 0.20643 0.83147 0.4747 0.0
H158 H 0.11104 0.14959 0.50244 0.0
H159 H 0.18466 0.19137 0.44533 0.0
H160 H 0.17978 0.18386 0.5791 0.0
C161 C 0.13179 0.16068 0.50536 0.0
C162 C 0.14372 0.16538 0.54507 0.0
C163 C 0.14641 0.16997 0.46931 0.0
C164 C 0.17326 0.18427 0.47316 0.0
C165 C 0.18539 0.18953 0.5127 0.0
C166 C 0.17052 0.17993 0.54852 0.0
H167 H 0.83234 0.09853 0.49862 0.0
H168 H 0.78702 0.15946 0.57791 0.0
H169 H 0.77997 0.16657 0.44428 0.0
C170 C 0.81787 0.11714 0.50249 0.0
C171 C 0.80656 0.13109 0.46706 0.0
C172 C 0.8109 0.1271 0.54265 0.0
C173 C 0.79279 0.15174 0.54702 0.0
C174 C 0.78159 0.1662 0.51176 0.0
C175 C 0.78818 0.15542 0.47176 0.0
H176 H 0.09914 0.12855 0.0853 0.0
H177 H 0.13232 0.1701 0.0889 0.0
H178 H 0.13011 0.17797 0.95485 0.0
H179 H 0.09685 0.1366 0.9508 0.0
H180 H 0.18744 0.16852 0.04996 0.0
H181 H 0.12176 0.26319 0.99517 0.0
H182 H 0.10542 0.2299 0.0142 0.0
H183 H 0.11976 0.23162 0.96206 0.0
C184 C 0.10522 0.13944 0.05659 0.0
C185 C 0.09551 0.12906 0.0177 0.0
C186 C 0.12419 0.16319 0.05875 0.0
C187 C 0.1335 0.17718 0.02217 0.0
C188 C 0.12281 0.16776 0.98349 0.0
H189 H 0.29337 0.26778 0.96954 0.0
H190 H 0.25057 0.2359 0.97019 0.0
C191 C 0.10393 0.14397 0.98125 0.0
C192 C 0.15682 0.19937 0.02395 0.0
H193 H 0.17352 0.26957 -0.0027 0.0
C194 C 0.18432 0.19069 0.03883 0.0
C195 C 0.15263 0.22827 0.00951 0.0
C196 C 0.12323 0.23897 0.99466 0.0
C197 C 0.20801 0.20992 0.03854 0.0
C198 C 0.20409 0.23846 0.0227 0.0
C199 C 0.17642 0.24751 0.00898 0.0
C200 C 0.22873 0.25906 0.02015 0.0
C201 C 0.23714 0.1996 0.05501 0.0
C202 C 0.23015 0.28292 0.04741 0.0
C203 C 0.25454 0.30112 0.04715 0.0
C204 C 0.27775 0.29586 0.01933 0.0
C205 C 0.27574 0.27248 0.9911 0.0
C206 C 0.25144 0.25419 0.99159 0.0
H207 H 0.2352 0.17905 0.07322 0.0
H208 H 0.25214 0.19554 0.0284 0.0
H209 H 0.24713 0.21656 0.07513 0.0
H210 H 0.21274 0.287 0.06957 0.0
H211 H 0.25537 0.31917 0.06893 0.0
H212 H 0.87506 0.10346 0.0961 0.0
H213 H 0.83582 0.13946 0.10468 0.0
H214 H 0.82281 0.14114 0.97146 0.0
H215 H 0.86177 0.1052 0.96247 0.0
H216 H 0.83669 0.19569 0.06948 0.0
H217 H 0.73934 0.13442 0.01748 0.0
H218 H 0.77294 0.11659 0.03281 0.0
H219 H 0.76933 0.13212 0.9815 0.0
C220 C 0.86356 0.11114 0.06864 0.0
C221 C 0.87168 0.10151 0.02854 0.0
C222 C 0.84116 0.13172 0.07365 0.0
C223 C 0.82623 0.14272 0.03875 0.0
C224 C 0.83369 0.13253 -0.00113 0.0
H225 H 0.74409 0.30535 0.98454 0.0
H226 H 0.77579 0.26268 0.99341 0.0
C227 C 0.85613 0.1121 0.99379 0.0
C228 C 0.80467 0.16671 0.04332 0.0
H229 H 0.73494 0.1867 0.01833 0.0
C230 C 0.81432 0.19362 0.05889 0.0
C231 C 0.77543 0.16388 0.02988 0.0
C232 C 0.76351 0.13511 0.01485 0.0
C233 C 0.79589 0.21818 0.05943 0.0
C234 C 0.76721 0.21578 0.0436 0.0
C235 C 0.75707 0.18853 0.03001 0.0
C236 C 0.74798 0.24163 0.03886 0.0
C237 C 0.80737 0.24663 0.07636 0.0
C238 C 0.72159 0.24364 0.06091 0.0
C239 C 0.70335 0.26798 0.05577 0.0
C240 C 0.71106 0.2905 0.02806 0.0
C241 C 0.73743 0.28825 0.00582 0.0
C242 C 0.7557 0.26404 0.01116 0.0
H243 H 0.82644 0.24309 0.0972 0.0
H244 H 0.81449 0.2606 0.04998 0.0
H245 H 0.79016 0.25859 0.09391 0.0
H246 H 0.71518 0.22643 0.08219 0.0
H247 H 0.68303 0.26899 0.073 0.0
H248 H 0.89799 0.86052 0.94265 0.0
H249 H 0.86379 0.81975 0.94573 0.0
H250 H 0.86706 0.82138 0.08013 0.0
H251 H 0.90132 0.86209 0.07759 0.0
H252 H 0.86802 0.76295 0.04038 0.0
H253 H 0.77811 0.83619 0.98716 0.0
H254 H 0.81046 0.8357 0.95533 0.0
H255 H 0.81211 0.84997 0.00742 0.0
C256 C 0.89178 0.85199 0.9729 0.0
C257 C 0.90212 0.86483 0.00989 0.0
C258 C 0.8722 0.82875 0.97455 0.0
C259 C 0.8627 0.81793 0.01314 0.0
C260 C 0.87413 0.82957 0.05006 0.0
H261 H 0.70544 0.72399 0.07215 0.0
H262 H 0.74717 0.75709 0.07068 0.0
C263 C 0.89364 0.85288 0.0485 0.0
C264 C 0.83934 0.79587 0.01514 0.0
H265 H 0.76663 0.78653 -0.00298 0.0
C266 C 0.84585 0.76798 0.03081 0.0
C267 C 0.81044 0.80279 0.00314 0.0
C268 C 0.80214 0.83283 0.9876 0.0
C269 C 0.8241 0.74662 0.03439 0.0
C270 C 0.7953 0.75345 0.02181 0.0
C271 C 0.78881 0.78141 0.00644 0.0
C272 C 0.77132 0.73211 0.02482 0.0
C273 C 0.83188 0.71713 0.0523 0.0
C274 C 0.77121 0.70711 -0.00044 0.0
C275 C 0.74743 0.68814 0.00038 0.0
C276 C 0.72339 0.6939 0.02647 0.0
C277 C 0.72382 0.71875 0.05219 0.0
C278 C 0.74753 0.73774 0.05122 0.0
H279 H 0.8534 0.71732 0.06826 0.0
H280 H 0.81498 0.70988 0.07484 0.0
H281 H 0.8329 0.70085 0.02669 0.0
H282 H 0.78921 0.70265 0.97855 0.0
H283 H 0.74773 0.66908 0.98038 0.0
H284 H 0.12257 0.88939 0.09687 0.0
H285 H 0.15993 0.85103 0.10084 0.0
H286 H 0.16658 0.85035 0.96666 0.0
H287 H 0.12937 0.88851 0.96217 0.0
H288 H 0.15474 0.79463 0.00669 0.0
H289 H 0.24998 0.85274 0.07465 0.0
H290 H 0.21522 0.85807 0.09983 0.0
H291 H 0.22075 0.87169 0.04795 0.0
C292 C 0.13225 0.88137 0.06821 0.0
C293 C 0.12281 0.89189 0.02917 0.0
C294 C 0.15368 0.85956 0.07059 0.0
C295 C 0.16601 0.84804 0.03404 0.0
C296 C 0.15731 0.85908 0.99519 0.0
H297 H 0.29931 0.72069 0.97745 0.0
H298 H 0.26862 0.76456 0.98307 0.0
C299 C 0.13603 0.8809 0.99274 0.0
C300 C 0.18619 0.8228 0.03583 0.0
H301 H 0.25487 0.8017 0.06465 0.0
C302 C 0.1766 0.79613 0.01944 0.0
C303 C 0.21466 0.825 0.0524 0.0
C304 C 0.22601 0.85342 0.06952 0.0
C305 C 0.19482 0.77147 0.01917 0.0
C306 C 0.22325 0.77361 0.03579 0.0
C307 C 0.23293 0.80025 0.05217 0.0
C308 C 0.24336 0.74837 0.03509 0.0
C309 C 0.1838 0.74333 0.00061 0.0
C310 C 0.2394 0.7251 0.06292 0.0
C311 C 0.25681 0.70008 0.05979 0.0
C312 C 0.27833 0.69792 0.02861 0.0
C313 C 0.28268 0.72165 0.00147 0.0
C314 C 0.26538 0.74674 0.00481 0.0
H315 H 0.16242 0.74621 0.98473 0.0
H316 H 0.19984 0.73455 0.97779 0.0
H317 H 0.18123 0.72685 0.02573 0.0
H318 H 0.2224 0.72607 0.0864 0.0
H319 H 0.2528 0.68204 0.08087 0.0
H320 H 0.60294 0.64882 0.46406 0.0
H321 H 0.63479 0.69106 0.47131 0.0
H322 H 0.64125 0.67546 0.60367 0.0
H323 H 0.60949 0.63289 0.59684 0.0
H324 H 0.63155 0.74274 0.5226 0.0
H325 H 0.7266 0.67103 0.55954 0.0
H326 H 0.69317 0.65702 0.53775 0.0
H327 H 0.69484 0.66678 0.59193 0.0
C328 C 0.61086 0.65446 0.49484 0.0
C329 C 0.60397 0.63718 0.52979 0.0
C330 C 0.62899 0.67869 0.49891 0.0
C331 C 0.64067 0.68606 0.53788 0.0
C332 C 0.63275 0.66981 0.57321 0.0
H333 H 0.7507 0.83997 0.57943 0.0
H334 H 0.71171 0.8037 0.58559 0.0
C335 C 0.61453 0.64556 0.56923 0.0
C336 C 0.66255 0.70963 0.54071 0.0
H337 H 0.73523 0.72155 0.55611 0.0
C338 C 0.65417 0.73825 0.53033 0.0
C339 C 0.69207 0.70349 0.55032 0.0
C340 C 0.70242 0.67292 0.56024 0.0
C341 C 0.67469 0.76091 0.52885 0.0
C342 C 0.70423 0.75469 0.53822 0.0
C343 C 0.7125 0.72618 0.54916 0.0
C344 C 0.72727 0.77705 0.5344 0.0
C345 C 0.66492 0.79107 0.51586 0.0
C346 C 0.74903 0.77381 0.50395 0.0
C347 C 0.7713 0.79434 0.50046 0.0
C348 C 0.77235 0.81843 0.52759 0.0
C349 C 0.75052 0.82158 0.5582 0.0
C350 C 0.72814 0.80104 0.56155 0.0
H351 H 0.64245 0.79111 0.50282 0.0
H352 H 0.66522 0.80573 0.54341 0.0
H353 H 0.68004 0.80021 0.49217 0.0
H354 H 0.74879 0.75531 0.48288 0.0
H355 H 0.78804 0.79104 0.47702 0.0
H356 H 0.37529 0.59784 0.46682 0.0
H357 H 0.33816 0.63607 0.47023 0.0
H358 H 0.34681 0.63917 0.60412 0.0
H359 H 0.3844 0.601 0.60114 0.0
H360 H 0.28432 0.64057 0.51348 0.0
H361 H 0.36532 0.72316 0.56524 0.0
H362 H 0.37602 0.68805 0.54457 0.0
H363 H 0.36256 0.69094 0.59705 0.0
C364 C 0.3692 0.60641 0.49711 0.0
C365 C 0.38315 0.59662 0.53367 0.0
C366 C 0.34789 0.62822 0.49896 0.0
C367 C 0.34012 0.64072 0.53732 0.0
C368 C 0.35291 0.6301 0.57413 0.0
H369 H 0.19974 0.77044 0.56242 0.0
H370 H 0.22992 0.72649 0.5705 0.0
C371 C 0.3743 0.60823 0.57236 0.0
C372 C 0.31981 0.66591 0.53808 0.0
H373 H 0.31696 0.73933 0.55591 0.0
C374 C 0.2913 0.66214 0.5231 0.0
C375 C 0.32922 0.69403 0.55013 0.0
C376 C 0.36 0.69951 0.56487 0.0
C377 C 0.272 0.68591 0.51937 0.0
C378 C 0.28145 0.71401 0.53139 0.0
C379 C 0.30981 0.71769 0.54691 0.0
C380 C 0.2628 0.74022 0.52625 0.0
C381 C 0.24204 0.68097 0.50126 0.0
C382 C 0.27156 0.76261 0.49919 0.0
C383 C 0.25455 0.78779 0.49478 0.0
C384 C 0.22852 0.79111 0.51756 0.0
C385 C 0.21978 0.76859 0.54465 0.0
C386 C 0.23683 0.74337 0.54901 0.0
H387 H 0.24035 0.65938 0.48567 0.0
H388 H 0.22561 0.6818 0.5267 0.0
H389 H 0.23647 0.69831 0.47833 0.0
H390 H 0.29165 0.76061 0.48154 0.0
H391 H 0.26211 0.80492 0.47416 0.0
H392 H 0.40407 0.35018 0.46122 0.0
H393 H 0.36901 0.31041 0.46639 0.0
H394 H 0.36862 0.31863 0.6004 0.0
H395 H 0.40343 0.3588 0.5957 0.0
H396 H 0.36531 0.25588 0.51079 0.0
H397 H 0.28423 0.33902 0.56371 0.0
H398 H 0.31903 0.3489 0.54164 0.0
H399 H 0.31689 0.33591 0.59444 0.0
C400 C 0.39699 0.34324 0.49191 0.0
C401 C 0.40607 0.35811 0.528 0.0
C402 C 0.37702 0.32041 0.49477 0.0
C403 C 0.36586 0.31206 0.5337 0.0
C404 C 0.37667 0.32516 0.57003 0.0
H405 H 0.23193 0.1768 0.56334 0.0
H406 H 0.27716 0.20471 0.57106 0.0
C407 C 0.39661 0.34806 0.56724 0.0
C408 C 0.34067 0.29208 0.53555 0.0
H409 H 0.26743 0.2911 0.55489 0.0
C410 C 0.34395 0.26338 0.52087 0.0
C411 C 0.31281 0.30222 0.54818 0.0
C412 C 0.3078 0.33324 0.5626 0.0
C413 C 0.31989 0.24461 0.51797 0.0
C414 C 0.29205 0.25488 0.53029 0.0
C415 C 0.28891 0.28336 0.54567 0.0
C416 C 0.26544 0.23722 0.52495 0.0
C417 C 0.32412 0.21436 0.50029 0.0
C418 C 0.24386 0.24654 0.49687 0.0
C419 C 0.21804 0.23085 0.49261 0.0
C420 C 0.21324 0.20562 0.51658 0.0
C421 C 0.23496 0.19628 0.54467 0.0
C422 C 0.26088 0.21199 0.54883 0.0
H423 H 0.34603 0.21148 0.48595 0.0
H424 H 0.32175 0.19805 0.52567 0.0
H425 H 0.30723 0.2097 0.47641 0.0
H426 H 0.24696 0.26611 0.4784 0.0
H427 H 0.20156 0.23882 0.47116 0.0
H428 H 0.61674 0.38992 0.59687 0.0
H429 H 0.65312 0.35066 0.60042 0.0
H430 H 0.66156 0.35225 0.46642 0.0
H431 H 0.62543 0.39144 0.46242 0.0
H432 H 0.64527 0.29592 0.5604 0.0
H433 H 0.74685 0.3503 0.5081 0.0
H434 H 0.71554 0.37035 0.5273 0.0
H435 H 0.71602 0.35677 0.47468 0.0
C436 C 0.6267 0.38228 0.56819 0.0
C437 C 0.61805 0.39371 0.52932 0.0
C438 C 0.64744 0.35985 0.57031 0.0
C439 C 0.66013 0.34879 0.53371 0.0
C440 C 0.65234 0.36084 0.49506 0.0
H441 H 0.73093 0.18067 0.4715 0.0
H442 H 0.70187 0.22538 0.47976 0.0
C443 C 0.63154 0.38312 0.49285 0.0
C444 C 0.67944 0.32289 0.5353 0.0
H445 H 0.74697 0.29805 0.50717 0.0
C446 C 0.66763 0.29642 0.54925 0.0
C447 C 0.70859 0.32373 0.52094 0.0
C448 C 0.72265 0.35186 0.50725 0.0
C449 C 0.68392 0.27045 0.54777 0.0
C450 C 0.7126 0.27105 0.53158 0.0
C451 C 0.72481 0.2977 0.51913 0.0
C452 C 0.73008 0.24411 0.52669 0.0
C453 C 0.67031 0.24254 0.56328 0.0
C454 C 0.75574 0.24021 0.54983 0.0
C455 C 0.77237 0.2148 0.5451 0.0
C456 C 0.76372 0.19301 0.51685 0.0
C457 C 0.73815 0.19715 0.49336 0.0
C458 C 0.72145 0.22252 0.49828 0.0
H459 H 0.6511 0.24688 0.58358 0.0
H460 H 0.6629 0.22946 0.53618 0.0
H461 H 0.68642 0.22925 0.58101 0.0
H462 H 0.76281 0.25678 0.57167 0.0
H463 H 0.79221 0.21238 0.56316 0.0
H464 H 0.00311 0.12172 0.13022 0.0
H465 H 0.03177 0.14217 0.18795 0.0
H466 H 0.06381 0.05585 0.21794 0.0
H467 H 0.0342 0.03545 0.16142 0.0
H468 H 0.04243 0.0847 0.28526 0.0
H469 H 0.11953 0.15564 0.19884 0.0
H470 H 0.08187 0.16211 0.18626 0.0
H471 H 0.09838 0.12753 0.17367 0.0
C472 C 0.01656 0.10733 0.14904 0.0
C473 C 0.01732 0.07725 0.1411 0.0
C474 C 0.03308 0.11897 0.1816 0.0
C475 C 0.05046 0.1006 0.20651 0.0
C476 C 0.05094 0.07045 0.19861 0.0
H477 H 0.17381 0.14703 0.40095 0.0
H478 H 0.15121 0.13193 0.33511 0.0
C479 C 0.03434 0.05886 0.16622 0.0
C480 C 0.06622 0.11236 0.24298 0.0
H481 H 0.11774 0.16173 0.27284 0.0
C482 C 0.059 0.10144 0.28252 0.0
C483 C 0.08802 0.13396 0.23916 0.0
C484 C 0.09767 0.14533 0.19718 0.0
C485 C 0.07265 0.11186 0.31857 0.0
C486 C 0.09361 0.13428 0.31499 0.0
C487 C 0.10133 0.14483 0.27539 0.0
C488 C 0.10788 0.1466 0.3523 0.0
C489 C 0.06475 0.09849 0.36013 0.0
C490 C 0.09113 0.16071 0.38295 0.0
C491 C 0.1039 0.16922 0.42047 0.0
C492 C 0.13371 0.164 0.42777 0.0
C493 C 0.1508 0.15137 0.39605 0.0
C494 C 0.13795 0.14271 0.35854 0.0
H495 H 0.05418 0.07687 0.35636 0.0
H496 H 0.08437 0.09577 0.38011 0.0
H497 H 0.04916 0.11311 0.37658 0.0
H498 H 0.06799 0.16441 0.37827 0.0
H499 H 0.09036 0.1794 0.44412 0.0
H500 H 0.92175 0.0495 0.12632 0.0
H501 H 0.89646 0.07282 0.18401 0.0
H502 H 0.85625 0.99077 0.21562 0.0
H503 H 0.88233 0.96705 0.15838 0.0
H504 H 0.83915 0.07964 0.20511 0.0
H505 H 0.89713 0.01164 0.32308 0.0
H506 H 0.90843 0.01327 0.26921 0.0
H507 H 0.87765 0.99153 0.2841 0.0
C508 C 0.90754 0.03639 0.14514 0.0
C509 C 0.90448 0.00637 0.13775 0.0
C510 C 0.89294 0.0498 0.17821 0.0
C511 C 0.87489 0.03341 0.20454 0.0
C512 C 0.87062 0.00368 0.19622 0.0
H513 H 0.77041 0.11483 0.40364 0.0
H514 H 0.78457 0.09138 0.33769 0.0
C515 C 0.88547 0.99022 0.16333 0.0
C516 C 0.86186 0.04734 0.2418 0.0
H517 H 0.86252 0.04537 0.34812 0.0
C518 C 0.84409 0.07213 0.23644 0.0
C519 C 0.86876 0.03764 0.28254 0.0
C520 C 0.88923 0.01225 0.29032 0.0
C521 C 0.83336 0.08782 0.27085 0.0
C522 C 0.84008 0.07795 0.31156 0.0
C523 C 0.85734 0.0528 0.31682 0.0
C524 C 0.83104 0.09414 0.3494 0.0
C525 C 0.81596 0.11537 0.26327 0.0
C526 C 0.85241 0.10332 0.37778 0.0
C527 C 0.84436 0.11619 0.41545 0.0
C528 C 0.81479 0.12029 0.42531 0.0
C529 C 0.79335 0.1121 0.39638 0.0
C530 C 0.80143 0.09882 0.35876 0.0
H531 H 0.81901 0.12377 0.23103 0.0
H532 H 0.79241 0.1107 0.26765 0.0
H533 H 0.8222 0.13275 0.28566 0.0
H534 H 0.87538 0.09998 0.37111 0.0
H535 H 0.86125 0.12251 0.43726 0.0
H536 H 0.00958 0.94079 0.19682 0.0
H537 H 0.97831 0.93151 0.2574 0.0
H538 H 0.91147 0.89764 0.17637 0.0
H539 H 0.94287 0.90633 0.11595 0.0
H540 H 0.89137 0.93877 0.23969 0.0
H541 H 0.95984 0.84831 0.30257 0.0
H542 H 0.97894 0.88163 0.29155 0.0
H543 H 0.96306 0.86124 0.24953 0.0
C544 C 0.98825 0.93125 0.19195 0.0
C545 C 0.97844 0.9246 0.15153 0.0
C546 C 0.97043 0.92604 0.22653 0.0
C547 C 0.94265 0.91386 0.22124 0.0
C548 C 0.93278 0.90725 0.18099 0.0
H549 H 0.8386 0.83271 0.41432 0.0
H550 H 0.86285 0.84477 0.34858 0.0
C551 C 0.95065 0.91236 0.14647 0.0
C552 C 0.92414 0.90735 0.2578 0.0
H553 H 0.92065 0.8646 0.3448 0.0
C554 C 0.89767 0.92253 0.2627 0.0
C555 C 0.93234 0.88588 0.2873 0.0
C556 C 0.95996 0.8681 0.28248 0.0
C557 C 0.87932 0.91706 0.29693 0.0
C558 C 0.88794 0.89615 0.32702 0.0
C559 C 0.9142 0.88071 0.32171 0.0
C560 C 0.8703 0.88999 0.36464 0.0
C561 C 0.85066 0.93324 0.30032 0.0
C562 C 0.86623 0.91155 0.3952 0.0
C563 C 0.85225 0.90477 0.43272 0.0
C564 C 0.84225 0.87627 0.44037 0.0
C565 C 0.84567 0.85495 0.40915 0.0
C566 C 0.85967 0.86175 0.37169 0.0
H567 H 0.84442 0.94379 0.27037 0.0
H568 H 0.83296 0.91821 0.31003 0.0
H569 H 0.85251 0.95052 0.3244 0.0
H570 H 0.87472 0.93335 0.39064 0.0
H571 H 0.84978 0.92168 0.45609 0.0
H572 H 0.07861 0.94308 0.12923 0.0
H573 H 0.10268 0.91929 0.18775 0.0
H574 H 0.13317 0.00283 0.23114 0.0
H575 H 0.10891 0.02689 0.17252 0.0
H576 H 0.16271 0.9201 0.21253 0.0
H577 H 0.08863 0.96851 0.33169 0.0
H578 H 0.08015 0.96869 0.2767 0.0
H579 H 0.1059 0.99429 0.29749 0.0
C580 C 0.09044 0.95645 0.15082 0.0
C581 C 0.09163 0.98689 0.14593 0.0
C582 C 0.10428 0.94278 0.18438 0.0
C583 C 0.11942 0.95935 0.21392 0.0
C584 C 0.12122 0.9897 0.2089 0.0
H585 H 0.19797 0.9151 0.45135 0.0
H586 H 0.18407 0.93954 0.3864 0.0
C587 C 0.10739 0.00337 0.17528 0.0
C588 C 0.13273 0.94488 0.2505 0.0
H589 H 0.1281 0.94016 0.35645 0.0
C590 C 0.15523 0.92445 0.24406 0.0
C591 C 0.12279 0.95064 0.29143 0.0
C592 C 0.09788 0.97153 0.29993 0.0
C593 C 0.16835 0.90981 0.27772 0.0
C594 C 0.15828 0.91547 0.31866 0.0
C595 C 0.13586 0.936 0.32501 0.0
C596 C 0.17006 0.9 0.35557 0.0
C597 C 0.19311 0.88879 0.26926 0.0
C598 C 0.16718 0.8696 0.35946 0.0
C599 C 0.17516 0.85558 0.39653 0.0
C600 C 0.18577 0.87184 0.4304 0.0
C601 C 0.18954 0.90212 0.42586 0.0
C602 C 0.18172 0.91606 0.3888 0.0
H603 H 0.20345 0.893 0.23848 0.0
H604 H 0.21008 0.8902 0.2939 0.0
H605 H 0.18452 0.86618 0.26899 0.0
H606 H 0.15765 0.85689 0.33451 0.0
H607 H 0.17175 0.83228 0.3994 0.0
H608 H 0.11458 0.95925 0.90707 0.0
H609 H 0.12958 0.93232 0.84487 0.0
H610 H 0.0768 0.98924 0.76833 0.0
H611 H 0.0612 0.01615 0.83074 0.0
H612 H 0.07346 0.92823 0.74772 0.0
H613 H 0.1875 0.96802 0.75994 0.0
H614 H 0.17365 0.95102 0.80639 0.0
H615 H 0.15761 0.98457 0.78819 0.0
C616 C 0.10608 0.96605 0.87705 0.0
C617 C 0.08723 0.99025 0.87358 0.0
C618 C 0.11472 0.95066 0.84158 0.0
C619 C 0.10474 0.95924 0.80209 0.0
C620 C 0.08493 0.98255 0.79862 0.0
H621 H 0.18441 0.91606 0.56593 0.0
H622 H 0.16345 0.94013 0.62705 0.0
C623 C 0.07623 0.99798 0.83415 0.0
C624 C 0.11589 0.94448 0.76434 0.0
H625 H 0.17833 0.93164 0.70922 0.0
C626 C 0.09635 0.92896 0.73913 0.0
C627 C 0.1457 0.94589 0.75315 0.0
C628 C 0.16734 0.96347 0.77806 0.0
C629 C 0.10601 0.91436 0.70314 0.0
C630 C 0.136 0.91508 0.69265 0.0
C631 C 0.1554 0.93094 0.71762 0.0
C632 C 0.14775 0.90023 0.65525 0.0
C633 C 0.084 0.89878 0.67629 0.0
C634 C 0.14616 0.86978 0.65116 0.0
C635 C 0.15796 0.85595 0.61608 0.0
C636 C 0.17166 0.87238 0.58466 0.0
C637 C 0.17355 0.90285 0.58924 0.0
C638 C 0.16173 0.91662 0.62421 0.0
H639 H 0.06134 0.90624 0.68291 0.0
H640 H 0.08868 0.90223 0.64265 0.0
H641 H 0.08521 0.87499 0.68271 0.0
H642 H 0.13598 0.8567 0.67523 0.0
H643 H 0.15605 0.83247 0.61331 0.0
H644 H 0.96888 0.06898 0.82995 0.0
H645 H 0.99538 0.08247 0.76622 0.0
H646 H 0.06958 0.10785 0.84003 0.0
H647 H 0.04341 0.0948 0.90372 0.0
H648 H 0.02109 0.14189 0.75133 0.0
H649 H 0.10171 0.05041 0.74687 0.0
H650 H 0.06562 0.04661 0.76882 0.0
H651 H 0.09313 0.06618 0.79694 0.0
C652 C 0.99085 0.07742 0.83258 0.0
C653 C 0.00401 0.08097 0.87188 0.0
C654 C 0.00589 0.08502 0.79623 0.0
C655 C 0.03437 0.09591 0.79862 0.0
C656 C 0.04769 0.09918 0.83766 0.0
H657 H 0.13532 0.19438 0.61887 0.0
H658 H 0.10849 0.17737 0.68029 0.0
C659 C 0.03264 0.09179 0.87399 0.0
C660 C 0.04984 0.10513 0.76047 0.0
H661 H 0.10815 0.0886 0.69849 0.0
C662 C 0.04008 0.13026 0.73961 0.0
C663 C 0.07433 0.08963 0.74522 0.0
C664 C 0.08442 0.06159 0.76533 0.0
C665 C 0.05462 0.14067 0.7041 0.0
C666 C 0.07977 0.12574 0.68966 0.0
C667 C 0.08911 0.10022 0.71005 0.0
C668 C 0.09645 0.13593 0.65298 0.0
C669 C 0.04271 0.1673 0.68204 0.0
C670 C 0.09929 0.11788 0.61789 0.0
C671 C 0.11489 0.12735 0.58306 0.0
C672 C 0.12803 0.15504 0.58274 0.0
C673 C 0.12559 0.17288 0.61828 0.0
C674 C 0.10998 0.16335 0.65316 0.0
H675 H 0.01954 0.17156 0.69039 0.0
H676 H 0.05562 0.18668 0.6913 0.0
H677 H 0.04436 0.16484 0.64765 0.0
H678 H 0.08921 0.09653 0.61733 0.0
H679 H 0.11679 0.11291 0.55642 0.0
H680 H 0.9382 0.96848 0.82421 0.0
H681 H 0.92029 0.99171 0.76012 0.0
H682 H 0.88449 0.06263 0.83261 0.0
H683 H 0.90169 0.03935 0.89678 0.0
H684 H 0.84826 0.01823 0.76203 0.0
H685 H 0.94424 0.08589 0.71789 0.0
H686 H 0.9483 0.05176 0.74573 0.0
H687 H 0.93382 0.08317 0.77204 0.0
C688 C 0.92655 0.98901 0.82644 0.0
C689 C 0.92094 0.00183 0.86549 0.0
C690 C 0.9165 0.00228 0.78989 0.0
C691 C 0.9011 0.02873 0.792 0.0
C692 C 0.89637 0.04215 0.83067 0.0
H693 H 0.83233 0.15166 0.61414 0.0
H694 H 0.85321 0.12656 0.67457 0.0
C695 C 0.90621 0.02881 0.8672 0.0
C696 C 0.88841 0.04172 0.75415 0.0
H697 H 0.90148 0.09165 0.67767 0.0
C698 C 0.85984 0.03414 0.74327 0.0
C699 C 0.90369 0.06254 0.73039 0.0
C700 C 0.93429 0.07142 0.74177 0.0
C701 C 0.8458 0.04739 0.70928 0.0
C702 C 0.86111 0.06827 0.68525 0.0
C703 C 0.88985 0.07559 0.69609 0.0
C704 C 0.84757 0.08318 0.64916 0.0
C705 C 0.81446 0.03959 0.7003 0.0
C706 C 0.83753 0.06707 0.61492 0.0
C707 C 0.82514 0.08129 0.58071 0.0
C708 C 0.823 0.11195 0.5798 0.0
C709 C 0.83322 0.12802 0.61413 0.0
C710 C 0.8454 0.11374 0.64849 0.0
H711 H 0.80366 0.02975 0.72796 0.0
H712 H 0.80172 0.0591 0.69046 0.0
H713 H 0.81383 0.02335 0.67465 0.0
H714 H 0.83952 0.04349 0.61448 0.0
H715 H 0.81722 0.06825 0.55496 0.0
H716 H 0.96601 0.89024 0.90548 0.0
H717 H 0.93655 0.88362 0.84285 0.0
H718 H 0.99431 0.94009 0.77411 0.0
H719 H 0.02406 0.94698 0.83687 0.0
H720 H 0.90829 0.92895 0.7953 0.0
H721 H 0.98854 0.86435 0.7024 0.0
H722 H 0.99158 0.86857 0.75825 0.0
H723 H 0.00135 0.8981 0.72426 0.0
C724 C 0.9726 0.90117 0.87705 0.0
C725 C 0.9974 0.91911 0.87614 0.0
C726 C 0.95569 0.89738 0.84132 0.0
C727 C 0.96343 0.91116 0.8039 0.0
C728 C 0.98826 0.92896 0.80264 0.0
H729 H 0.85507 0.92212 0.5796 0.0
H730 H 0.88609 0.93456 0.63936 0.0
C731 C 0.00514 0.93293 0.83852 0.0
C732 C 0.94495 0.90723 0.76658 0.0
H733 H 0.94345 0.87539 0.67036 0.0
C734 C 0.91608 0.9176 0.76775 0.0
C735 C 0.95512 0.89202 0.73102 0.0
C736 C 0.98577 0.87989 0.72872 0.0
C737 C 0.89702 0.91315 0.73417 0.0
C738 C 0.90707 0.8976 0.69891 0.0
C739 C 0.93596 0.88736 0.69757 0.0
C740 C 0.88749 0.89056 0.66384 0.0
C741 C 0.86609 0.92443 0.73686 0.0
C742 C 0.87805 0.86177 0.65819 0.0
C743 C 0.86029 0.85464 0.62435 0.0
C744 C 0.85195 0.87618 0.59538 0.0
C745 C 0.86126 0.9051 0.6014 0.0
C746 C 0.87885 0.91225 0.63547 0.0
H747 H 0.8608 0.93319 0.76831 0.0
H748 H 0.86295 0.94217 0.71366 0.0
H749 H 0.85048 0.90675 0.72921 0.0
H750 H 0.88463 0.84478 0.67981 0.0
H751 H 0.85381 0.83212 0.62016 0.0
H752 H 0.55084 0.60244 0.61815 0.0
H753 H 0.58187 0.6162 0.6771 0.0
H754 H 0.53457 0.55665 0.75628 0.0
H755 H 0.50453 0.5419 0.69668 0.0
H756 H 0.56278 0.64098 0.7511 0.0
H757 H 0.6201 0.53596 0.78157 0.0
H758 H 0.60293 0.5444 0.7323 0.0
H759 H 0.58121 0.53304 0.77608 0.0
C760 C 0.54797 0.59151 0.6477 0.0
C761 C 0.52622 0.57038 0.65259 0.0
C762 C 0.5653 0.59968 0.68149 0.0
C763 C 0.56095 0.58692 0.72078 0.0
C764 C 0.53878 0.56618 0.72594 0.0
H765 H 0.60239 0.65134 0.96414 0.0
H766 H 0.58029 0.63691 0.89809 0.0
C767 C 0.52149 0.55799 0.69207 0.0
C768 C 0.5783 0.59669 0.75699 0.0
H769 H 0.62357 0.5724 0.83419 0.0
C770 C 0.57628 0.62607 0.76908 0.0
C771 C 0.59623 0.57728 0.77991 0.0
C772 C 0.60056 0.54595 0.7667 0.0
C773 C 0.59094 0.63635 0.80448 0.0
C774 C 0.60759 0.61656 0.82872 0.0
C775 C 0.6105 0.58743 0.81576 0.0
C776 C 0.62123 0.62542 0.8685 0.0
C777 C 0.58846 0.66829 0.81557 0.0
C778 C 0.65152 0.62304 0.87406 0.0
C779 C 0.66422 0.63092 0.91205 0.0
C780 C 0.64675 0.64106 0.94516 0.0
C781 C 0.6164 0.6433 0.93941 0.0
C782 C 0.60377 0.63542 0.90152 0.0
H783 H 0.58251 0.68175 0.78797 0.0
H784 H 0.57107 0.67118 0.83936 0.0
H785 H 0.60923 0.67659 0.82874 0.0
H786 H 0.66532 0.61514 0.84898 0.0
H787 H 0.68762 0.62868 0.91571 0.0
H788 H 0.42847 0.5464 0.63768 0.0
H789 H 0.40394 0.57196 0.69451 0.0
H790 H 0.35808 0.49313 0.72648 0.0
H791 H 0.38239 0.46741 0.66928 0.0
H792 H 0.33944 0.57694 0.71529 0.0
H793 H 0.40854 0.51887 0.83174 0.0
H794 H 0.41745 0.51986 0.77687 0.0
H795 H 0.38935 0.49601 0.79555 0.0
C796 C 0.41302 0.53453 0.65626 0.0
C797 C 0.4078 0.50475 0.64907 0.0
C798 C 0.39893 0.54921 0.68878 0.0
C799 C 0.3795 0.53427 0.7148 0.0
C800 C 0.37327 0.50489 0.70685 0.0
H801 H 0.30417 0.57547 0.9549 0.0
H802 H 0.31653 0.55262 0.88818 0.0
C803 C 0.38726 0.49026 0.67423 0.0
C804 C 0.36719 0.54886 0.75191 0.0
H805 H 0.37139 0.54962 0.85804 0.0
C806 C 0.34632 0.57105 0.74658 0.0
C807 C 0.37638 0.54103 0.79247 0.0
C808 C 0.39934 0.51781 0.79971 0.0
C809 C 0.33395 0.58539 0.78111 0.0
C810 C 0.34326 0.57764 0.82175 0.0
C811 C 0.36418 0.55543 0.82687 0.0
C812 C 0.3322 0.59245 0.85969 0.0
C813 C 0.31069 0.60826 0.77383 0.0
C814 C 0.33647 0.62251 0.86553 0.0
C815 C 0.32926 0.63563 0.90357 0.0
C816 C 0.31812 0.61876 0.9365 0.0
C817 C 0.313 0.58888 0.93011 0.0
C818 C 0.31996 0.57586 0.89203 0.0
H819 H 0.30012 0.60556 0.74288 0.0
H820 H 0.29362 0.60741 0.7984 0.0
H821 H 0.32082 0.63021 0.77461 0.0
H822 H 0.34653 0.63559 0.84137 0.0
H823 H 0.3337 0.65864 0.90791 0.0
H824 H 0.44887 0.40517 0.62731 0.0
H825 H 0.4218 0.39126 0.68967 0.0
H826 H 0.48855 0.42963 0.76661 0.0
H827 H 0.51549 0.44421 0.70382 0.0
H828 H 0.47066 0.37119 0.78956 0.0
H829 H 0.37597 0.44631 0.76891 0.0
H830 H 0.38676 0.42583 0.72365 0.0
H831 H 0.41103 0.45275 0.74473 0.0
C832 C 0.4574 0.41131 0.65731 0.0
C833 C 0.48384 0.42643 0.6605 0.0
C834 C 0.44202 0.40319 0.69301 0.0
C835 C 0.45291 0.40993 0.73267 0.0
C836 C 0.47966 0.42451 0.73619 0.0
H837 H 0.36415 0.39522 0.97057 0.0
H838 H 0.39104 0.41192 0.90902 0.0
C839 C 0.495 0.43275 0.70035 0.0
C840 C 0.43666 0.4009 0.77036 0.0
H841 H 0.37206 0.41057 0.8218 0.0
C842 C 0.44916 0.37985 0.79677 0.0
C843 C 0.40871 0.4124 0.77966 0.0
C844 C 0.39481 0.43576 0.75301 0.0
C845 C 0.4341 0.36954 0.83193 0.0
C846 C 0.40585 0.38053 0.84059 0.0
C847 C 0.39362 0.40201 0.81469 0.0
C848 C 0.38889 0.37043 0.87701 0.0
C849 C 0.44853 0.34717 0.85978 0.0
C850 C 0.37832 0.34176 0.87882 0.0
C851 C 0.36285 0.33219 0.91384 0.0
C852 C 0.35788 0.35115 0.9476 0.0
C853 C 0.36796 0.38006 0.94519 0.0
C854 C 0.38322 0.38964 0.91009 0.0
H855 H 0.47228 0.3451 0.85335 0.0
H856 H 0.44542 0.35298 0.89313 0.0
H857 H 0.43831 0.32557 0.8545 0.0
H858 H 0.38221 0.32676 0.85327 0.0
H859 H 0.35547 0.30977 0.915 0.0
H860 H 0.61349 0.45802 0.60632 0.0
H861 H 0.62986 0.42603 0.66339 0.0
H862 H 0.58155 0.47878 0.75128 0.0
H863 H 0.56485 0.51038 0.69409 0.0
H864 H 0.66184 0.44396 0.73545 0.0
H865 H 0.55553 0.39396 0.77695 0.0
H866 H 0.56213 0.41131 0.7272 0.0
H867 H 0.55472 0.43308 0.77263 0.0
C868 C 0.60601 0.46231 0.63777 0.0
C869 C 0.58767 0.48621 0.64608 0.0
C870 C 0.6155 0.44428 0.67026 0.0
C871 C 0.6065 0.44983 0.71136 0.0
C872 C 0.5883 0.47389 0.71965 0.0
H873 H 0.67361 0.40879 0.9511 0.0
H874 H 0.66044 0.42948 0.88331 0.0
C875 C 0.57901 0.49203 0.68719 0.0
C876 C 0.61721 0.4314 0.746 0.0
H877 H 0.59428 0.3881 0.82612 0.0
C878 C 0.64716 0.43144 0.75501 0.0
C879 C 0.598 0.41485 0.77102 0.0
C880 C 0.56583 0.41299 0.76136 0.0
C881 C 0.65827 0.41638 0.7897 0.0
C882 C 0.63884 0.40115 0.81606 0.0
C883 C 0.60908 0.39999 0.80594 0.0
C884 C 0.64862 0.38804 0.85585 0.0
C885 C 0.69063 0.4172 0.79821 0.0
C886 C 0.64619 0.3579 0.86283 0.0
C887 C 0.65369 0.346 0.90162 0.0
C888 C 0.66327 0.3642 0.93409 0.0
C889 C 0.66609 0.39431 0.9267 0.0
C890 C 0.65881 0.40611 0.88793 0.0
H891 H 0.70323 0.42273 0.76967 0.0
H892 H 0.69512 0.43417 0.82203 0.0
H893 H 0.69854 0.3959 0.81046 0.0
H894 H 0.63817 0.34367 0.83845 0.0
H895 H 0.6511 0.32277 0.90666 0.0
H896 H 0.52775 0.48076 0.3595 0.0
H897 H 0.54299 0.45236 0.29844 0.0
H898 H 0.61859 0.50714 0.28436 0.0
H899 H 0.60333 0.53592 0.34491 0.0
H900 H 0.59003 0.49287 0.20826 0.0
H901 H 0.61266 0.39498 0.30598 0.0
H902 H 0.57646 0.40992 0.31073 0.0
H903 H 0.60721 0.43086 0.32803 0.0
C904 C 0.54748 0.48689 0.34319 0.0
C905 C 0.56456 0.51027 0.35736 0.0
C906 C 0.5562 0.47058 0.30852 0.0
C907 C 0.58223 0.47726 0.28766 0.0
C908 C 0.59857 0.50148 0.3004 0.0
H909 H 0.68856 0.36931 0.12539 0.0
H910 H 0.66858 0.39855 0.18283 0.0
C911 C 0.58984 0.51785 0.33502 0.0
C912 C 0.59309 0.45834 0.25362 0.0
H913 H 0.61815 0.3895 0.23298 0.0
C914 C 0.59622 0.4703 0.21359 0.0
C915 C 0.60136 0.42897 0.26093 0.0
C916 C 0.59953 0.41539 0.30378 0.0
C917 C 0.60728 0.45356 0.18046 0.0
C918 C 0.61497 0.424 0.18757 0.0
C919 C 0.61203 0.41211 0.22767 0.0
C920 C 0.62645 0.40518 0.1538 0.0
C921 C 0.6112 0.46778 0.13836 0.0
C922 C 0.60904 0.3986 0.11914 0.0
C923 C 0.6203 0.38179 0.08651 0.0
C924 C 0.64915 0.37118 0.08801 0.0
C925 C 0.6662 0.37698 0.12348 0.0
C926 C 0.6549 0.3938 0.15615 0.0
H927 H 0.61092 0.492 0.14059 0.0
H928 H 0.63207 0.46078 0.12373 0.0
H929 H 0.5931 0.4611 0.11752 0.0
H930 H 0.58681 0.40663 0.11723 0.0
H931 H 0.60645 0.37723 0.05995 0.0
H932 H 0.53757 0.61289 0.42361 0.0
H933 H 0.56719 0.62616 0.36309 0.0
H934 H 0.51619 0.56878 0.28562 0.0
H935 H 0.48661 0.55527 0.34604 0.0
H936 H 0.57658 0.56276 0.27442 0.0
H937 H 0.54126 0.67883 0.266 0.0
H938 H 0.55503 0.66757 0.31599 0.0
H939 H 0.52194 0.65186 0.29628 0.0
C940 C 0.53251 0.60324 0.39364 0.0
C941 C 0.50969 0.58304 0.38954 0.0
C942 C 0.54942 0.6109 0.35911 0.0
C943 C 0.5436 0.59872 0.31987 0.0
C944 C 0.52093 0.57849 0.31567 0.0
H945 H 0.59896 0.6537 0.0762 0.0
H946 H 0.57264 0.64052 0.13976 0.0
C947 C 0.50402 0.57083 0.35017 0.0
C948 C 0.56131 0.60684 0.28315 0.0
H949 H 0.57939 0.66426 0.22054 0.0
C950 C 0.57738 0.58495 0.26274 0.0
C951 C 0.56183 0.63576 0.2677 0.0
C952 C 0.54391 0.65986 0.28733 0.0
C953 C 0.59422 0.59125 0.22733 0.0
C954 C 0.59506 0.62024 0.21225 0.0
C955 C 0.57888 0.64211 0.23254 0.0
C956 C 0.61139 0.6281 0.17413 0.0
C957 C 0.61036 0.56674 0.20574 0.0
C958 C 0.64192 0.62577 0.17269 0.0
C959 C 0.65703 0.63315 0.1363 0.0
C960 C 0.6418 0.64299 0.10085 0.0
C961 C 0.61125 0.6457 0.10275 0.0
C962 C 0.5962 0.63838 0.13908 0.0
H963 H 0.60292 0.54497 0.21654 0.0
H964 H 0.60744 0.56814 0.1714 0.0
H965 H 0.63402 0.56853 0.21253 0.0
H966 H 0.65402 0.61831 0.19972 0.0
H967 H 0.68056 0.63076 0.13568 0.0
H968 H 0.47893 0.50052 0.33682 0.0
H969 H 0.45973 0.52924 0.27824 0.0
H970 H 0.37203 0.50543 0.31286 0.0
H971 H 0.39093 0.4773 0.37174 0.0
H972 H 0.42489 0.51259 0.21063 0.0
H973 H 0.36881 0.59489 0.30944 0.0
H974 H 0.39584 0.56984 0.32978 0.0
H975 H 0.3589 0.55799 0.32174 0.0
C976 C 0.45557 0.5015 0.33194 0.0
C977 C 0.43641 0.48695 0.35903 0.0
C978 C 0.44466 0.5178 0.29846 0.0
C979 C 0.41445 0.51991 0.29186 0.0
C980 C 0.39537 0.50464 0.31809 0.0
H981 H 0.31886 0.57156 0.07277 0.0
H982 H 0.34269 0.54596 0.13051 0.0
C983 C 0.40623 0.4884 0.3515 0.0
C984 C 0.40269 0.538 0.25752 0.0
H985 H 0.35624 0.59471 0.23717 0.0
C986 C 0.41007 0.53071 0.21635 0.0
C987 C 0.38379 0.56192 0.26523 0.0
C988 C 0.37657 0.57186 0.30895 0.0
C989 C 0.39819 0.54612 0.18249 0.0
C990 C 0.37798 0.56898 0.19015 0.0
C991 C 0.37143 0.57692 0.23138 0.0
C992 C 0.36304 0.58465 0.15581 0.0
C993 C 0.40755 0.53786 0.13889 0.0
C994 C 0.3656 0.61507 0.15194 0.0
C995 C 0.35174 0.6298 0.11922 0.0
C996 C 0.3351 0.6143 0.08989 0.0
C997 C 0.33196 0.58396 0.09454 0.0
C998 C 0.34566 0.5693 0.12735 0.0
H999 H 0.42903 0.52648 0.13889 0.0
H1000 H 0.39125 0.52275 0.12532 0.0
H1001 H 0.40902 0.55739 0.11845 0.0
H1002 H 0.37873 0.62733 0.17382 0.0
H1003 H 0.35466 0.65316 0.11622 0.0
H1004 H 0.50615 0.43279 0.34751 0.0
H1005 H 0.47498 0.41842 0.28946 0.0
H1006 H 0.43047 0.35725 0.36939 0.0
H1007 H 0.46201 0.37119 0.42757 0.0
H1008 H 0.44665 0.33387 0.2924 0.0
H1009 H 0.38895 0.43977 0.27249 0.0
H1010 H 0.42799 0.44287 0.27401 0.0
H1011 H 0.40867 0.4301 0.3193 0.0
C1012 C 0.48976 0.41631 0.35278 0.0
C1013 C 0.48643 0.40332 0.39222 0.0
C1014 C 0.47179 0.40829 0.31966 0.0
C1015 C 0.45009 0.38718 0.32539 0.0
C1016 C 0.44696 0.37379 0.3645 0.0
H1017 H 0.31755 0.35348 0.13532 0.0
H1018 H 0.34163 0.36351 0.20206 0.0
C1019 C 0.46496 0.38182 0.39769 0.0
C1020 C 0.4314 0.3784 0.29003 0.0
H1021 H 0.38413 0.40531 0.21716 0.0
C1022 C 0.43275 0.34938 0.27616 0.0
C1023 C 0.41296 0.3986 0.26938 0.0
C1024 C 0.40926 0.42953 0.28469 0.0
C1025 C 0.41698 0.34028 0.24105 0.0
C1026 C 0.39983 0.3609 0.21903 0.0
C1027 C 0.39757 0.38963 0.23389 0.0
C1028 C 0.38505 0.35346 0.17948 0.0
C1029 C 0.41887 0.30872 0.22782 0.0
C1030 C 0.40156 0.34468 0.14479 0.0
C1031 C 0.38791 0.33884 0.10685 0.0
C1032 C 0.3575 0.34193 0.10278 0.0
C1033 C 0.34098 0.35064 0.13765 0.0
C1034 C 0.35468 0.3565 0.17566 0.0
H1035 H 0.4255 0.29436 0.25416 0.0
H1036 H 0.39766 0.30097 0.21537 0.0
H1037 H 0.43552 0.30646 0.20285 0.0
H1038 H 0.42508 0.34273 0.1469 0.0
H1039 H 0.40118 0.33187 0.08068 0.0
loop_
_geom_bond_atom_site_label_1
_geom_bond_atom_site_label_2
_geom_bond_distance
_geom_bond_site_symmetry_2
_ccdc_geom_bond_type
Zn0 O2 1.933 1_556 S
Zn0 O20 1.985 . S
Zn0 O31 1.955 . S
Zn1 O2 1.911 . S
Zn1 O21 1.970 . S
Zn1 O37 1.945 . S
Zn1 O44 1.981 . S
O2 Zn0 1.933 1_554 S
O2 Zn1 1.911 . S
O2 H3 0.841 1_655 S
H3 O2 0.841 1_455 S
C4 O5 1.246 . S
C4 O33 1.276 1_545 S
O5 C4 1.246 . S
Zn6 O8 1.911 . S
Zn6 O23 1.970 . S
Zn6 O40 1.945 . S
Zn6 O47 1.981 . S
Zn7 O8 1.933 1_556 S
Zn7 O22 1.985 . S
Zn7 O29 1.955 . S
O8 Zn6 1.911 . S
O8 Zn7 1.933 1_554 S
O8 H9 0.841 1_455 S
H9 O8 0.841 1_655 S
Zn10 O11 1.933 1_556 S
Zn10 O24 1.985 . S
Zn10 O33 1.955 . S
O11 Zn10 1.933 1_554 S
O11 Zn12 1.911 . S
O11 H13 0.841 1_565 S
Zn12 O11 1.911 . S
Zn12 O25 1.970 . S
Zn12 O41 1.981 . S
Zn12 O43 1.945 . S
H13 O11 0.841 1_545 S
Zn14 O15 1.933 1_556 S
Zn14 O27 1.985 . S
Zn14 O35 1.955 . S
O15 Zn14 1.933 1_554 S
O15 H16 0.841 1_545 S
O15 Zn17 1.911 . S
H16 O15 0.841 1_565 S
Zn17 O15 1.911 . S
Zn17 O28 1.970 . S
Zn17 O38 1.981 . S
Zn17 O46 1.945 . S
C18 O19 1.246 . S
C18 O35 1.276 1_565 S
O19 C18 1.246 . S
O20 Zn0 1.985 . S
O20 C30 1.245 1_556 S
O21 Zn1 1.970 . S
O21 C30 1.263 . S
O22 Zn7 1.985 . S
O22 C34 1.245 1_556 S
O23 Zn6 1.970 . S
O23 C34 1.263 . S
O24 Zn10 1.985 . S
O24 C39 1.245 1_556 S
O25 Zn12 1.970 . S
O25 C39 1.263 . S
C26 O37 1.262 1_455 S
C26 O38 1.245 . S
O27 Zn14 1.985 . S
O27 C45 1.245 1_556 S
O28 Zn17 1.970 . S
O28 C45 1.263 . S
O29 Zn7 1.955 . S
O29 C48 1.276 1_455 S
C30 O20 1.245 1_554 S
C30 O21 1.263 . S
O31 Zn0 1.955 . S
O31 C50 1.276 1_655 S
C32 O40 1.262 1_655 S
C32 O41 1.245 . S
O33 C4 1.276 1_565 S
O33 Zn10 1.955 . S
C34 O22 1.245 1_554 S
C34 O23 1.263 . S
O35 Zn14 1.955 . S
O35 C18 1.276 1_545 S
C36 O43 1.262 1_545 S
C36 O44 1.245 . S
O37 Zn1 1.945 . S
O37 C26 1.262 1_655 S
O38 Zn17 1.981 . S
O38 C26 1.245 . S
C39 O24 1.245 1_554 S
C39 O25 1.263 . S
O40 Zn6 1.945 . S
O40 C32 1.262 1_455 S
O41 Zn12 1.981 . S
O41 C32 1.245 . S
C42 O46 1.262 1_565 S
C42 O47 1.245 . S
O43 Zn12 1.945 . S
O43 C36 1.262 1_565 S
O44 Zn1 1.981 . S
O44 C36 1.245 . S
C45 O27 1.245 1_554 S
C45 O28 1.263 . S
O46 Zn17 1.945 . S
O46 C42 1.262 1_545 S
O47 Zn6 1.981 . S
O47 C42 1.245 . S
C48 O29 1.276 1_655 S
C48 O49 1.246 . S
O49 C48 1.246 . S
C50 O31 1.276 1_455 S
C50 O51 1.246 . S
O51 C50 1.246 . S
Zn52 O54 1.933 . S
Zn52 O72 1.985 . S
Zn52 O83 1.955 . S
Zn53 O54 1.911 . S
Zn53 O73 1.970 . S
Zn53 O89 1.945 . S
Zn53 O96 1.981 . S
O54 Zn52 1.933 . S
O54 Zn53 1.911 . S
O54 H55 0.841 . S
H55 O54 0.841 . S
C56 O57 1.246 . S
C56 O85 1.276 . S
O57 C56 1.246 . S
Zn58 O60 1.911 . S
Zn58 O75 1.970 . S
Zn58 O92 1.945 . S
Zn58 O99 1.981 . S
Zn59 O60 1.933 . S
Zn59 O74 1.985 . S
Zn59 O81 1.955 . S
O60 Zn58 1.911 . S
O60 Zn59 1.933 . S
O60 H61 0.841 . S
H61 O60 0.841 . S
Zn62 O63 1.933 . S
Zn62 O76 1.985 . S
Zn62 O85 1.955 . S
O63 Zn62 1.933 . S
O63 Zn64 1.911 . S
O63 H65 0.841 . S
Zn64 O63 1.911 . S
Zn64 O77 1.970 . S
Zn64 O93 1.981 . S
Zn64 O95 1.945 . S
H65 O63 0.841 . S
Zn66 O67 1.933 . S
Zn66 O79 1.985 . S
Zn66 O87 1.955 . S
O67 Zn66 1.933 . S
O67 H68 0.841 . S
O67 Zn69 1.911 . S
H68 O67 0.841 . S
Zn69 O67 1.911 . S
Zn69 O80 1.970 . S
Zn69 O90 1.981 . S
Zn69 O98 1.945 . S
C70 O71 1.246 . S
C70 O87 1.276 . S
O71 C70 1.246 . S
O72 Zn52 1.985 . S
O72 C82 1.245 . S
O73 Zn53 1.970 . S
O73 C82 1.263 . S
O74 Zn59 1.985 . S
O74 C86 1.245 . S
O75 Zn58 1.970 . S
O75 C86 1.263 . S
O76 Zn62 1.985 . S
O76 C91 1.245 . S
O77 Zn64 1.970 . S
O77 C91 1.263 . S
C78 O89 1.262 . S
C78 O90 1.245 . S
O79 Zn66 1.985 . S
O79 C97 1.245 . S
O80 Zn69 1.970 . S
O80 C97 1.263 . S
O81 Zn59 1.955 . S
O81 C100 1.276 . S
C82 O72 1.245 . S
C82 O73 1.263 . S
O83 Zn52 1.955 . S
O83 C102 1.276 . S
C84 O92 1.262 . S
C84 O93 1.245 . S
O85 C56 1.276 . S
O85 Zn62 1.955 . S
C86 O74 1.245 . S
C86 O75 1.263 . S
O87 Zn66 1.955 . S
O87 C70 1.276 . S
C88 O95 1.262 . S
C88 O96 1.245 . S
O89 Zn53 1.945 . S
O89 C78 1.262 . S
O90 Zn69 1.981 . S
O90 C78 1.245 . S
C91 O76 1.245 . S
C91 O77 1.263 . S
O92 Zn58 1.945 . S
O92 C84 1.262 . S
O93 Zn64 1.981 . S
O93 C84 1.245 . S
C94 O98 1.262 . S
C94 O99 1.245 . S
O95 Zn64 1.945 . S
O95 C88 1.262 . S
O96 Zn53 1.981 . S
O96 C88 1.245 . S
C97 O79 1.245 . S
C97 O80 1.263 . S
O98 Zn69 1.945 . S
O98 C94 1.262 . S
O99 Zn58 1.981 . S
O99 C94 1.245 . S
C100 O81 1.276 . S
C100 O101 1.246 . S
O101 C100 1.246 . S
C102 O83 1.276 . S
C102 O103 1.246 . S
O103 C102 1.246 . S
H104 C107 0.931 . S
H105 C110 0.928 . S
H106 C112 0.930 . S
C107 H104 0.931 . S
C107 C108 1.413 1_554 S
C107 C109 1.360 . S
C108 C107 1.413 1_556 S
C108 C112 1.429 . S
C109 C107 1.360 . S
C109 C110 1.372 . S
C110 H105 0.928 . S
C110 C109 1.372 . S
C110 C111 1.404 . S
C111 C110 1.404 . S
C111 C112 1.391 1_554 S
C112 H106 0.930 . S
C112 C108 1.429 . S
C112 C111 1.391 1_556 S
H113 C116 0.931 . S
H114 C119 0.928 . S
H115 C121 0.930 . S
C116 H113 0.931 . S
C116 C117 1.413 1_554 S
C116 C118 1.360 . S
C117 C116 1.413 1_556 S
C117 C121 1.429 . S
C118 C116 1.360 . S
C118 C119 1.372 . S
C119 H114 0.928 . S
C119 C118 1.372 . S
C119 C120 1.404 . S
C120 C119 1.404 . S
C120 C121 1.391 1_554 S
C121 H115 0.930 . S
C121 C117 1.429 . S
C121 C120 1.391 1_556 S
H122 C125 0.931 . S
H123 C128 0.928 . S
H124 C130 0.930 . S
C125 H122 0.931 . S
C125 C126 1.413 . S
C125 C127 1.360 1_554 S
C126 C125 1.413 . S
C126 C130 1.429 . S
C127 C125 1.360 1_556 S
C127 C128 1.372 . S
C128 H123 0.928 . S
C128 C127 1.372 . S
C128 C129 1.404 1_556 S
C129 C128 1.404 1_554 S
C129 C130 1.391 . S
C130 H124 0.930 . S
C130 C126 1.429 . S
C130 C129 1.391 . S
H131 C134 0.931 . S
H132 C137 0.928 . S
H133 C139 0.930 . S
C134 H131 0.931 . S
C134 C135 1.413 1_554 S
C134 C136 1.360 . S
C135 C134 1.413 1_556 S
C135 C139 1.429 . S
C136 C134 1.360 . S
C136 C137 1.372 . S
C137 H132 0.928 . S
C137 C136 1.372 . S
C137 C138 1.404 . S
C138 C137 1.404 . S
C138 C139 1.391 1_554 S
C139 H133 0.930 . S
C139 C135 1.429 . S
C139 C138 1.391 1_556 S
H140 C143 0.931 . S
H141 C146 0.928 . S
H142 C148 0.930 . S
C143 H140 0.931 . S
C143 C144 1.413 . S
C143 C145 1.360 . S
C144 C143 1.413 . S
C144 C148 1.429 . S
C145 C143 1.360 . S
C145 C146 1.372 . S
C146 H141 0.928 . S
C146 C145 1.372 . S
C146 C147 1.404 . S
C147 C146 1.404 . S
C147 C148 1.391 . S
C148 H142 0.930 . S
C148 C144 1.429 . S
C148 C147 1.391 . S
H149 C152 0.931 . S
H150 C155 0.928 . S
H151 C157 0.930 . S
C152 H149 0.931 . S
C152 C153 1.413 . S
C152 C154 1.360 . S
C153 C152 1.413 . S
C153 C157 1.429 . S
C154 C152 1.360 . S
C154 C155 1.372 . S
C155 H150 0.928 . S
C155 C154 1.372 . S
C155 C156 1.404 . S
C156 C155 1.404 . S
C156 C157 1.391 . S
C157 H151 0.930 . S
C157 C153 1.429 . S
C157 C156 1.391 . S
H158 C161 0.931 . S
H159 C164 0.928 . S
H160 C166 0.930 . S
C161 H158 0.931 . S
C161 C162 1.413 . S
C161 C163 1.360 . S
C162 C161 1.413 . S
C162 C166 1.429 . S
C163 C161 1.360 . S
C163 C164 1.372 . S
C164 H159 0.928 . S
C164 C163 1.372 . S
C164 C165 1.404 . S
C165 C164 1.404 . S
C165 C166 1.391 . S
C166 H160 0.930 . S
C166 C162 1.429 . S
C166 C165 1.391 . S
H167 C170 0.931 . S
H168 C173 0.928 . S
H169 C175 0.930 . S
C170 H167 0.931 . S
C170 C171 1.413 . S
C170 C172 1.360 . S
C171 C170 1.413 . S
C171 C175 1.429 . S
C172 C170 1.360 . S
C172 C173 1.372 . S
C173 H168 0.928 . S
C173 C172 1.372 . S
C173 C174 1.404 . S
C174 C173 1.404 . S
C174 C175 1.391 . S
C175 H169 0.930 . S
C175 C171 1.429 . S
C175 C174 1.391 . S
H176 C184 0.929 . S
H177 C186 0.930 . S
H178 C188 0.930 . S
H179 C191 0.929 . S
H180 C194 0.930 . S
H181 C196 0.960 . S
H182 C196 0.960 . S
H183 C196 0.960 . S
C184 H176 0.929 . S
C184 C185 1.377 . S
C184 C186 1.384 . S
C185 C184 1.377 . S
C185 C191 1.390 1_554 S
C186 H177 0.930 . S
C186 C184 1.384 . S
C186 C187 1.372 . S
C187 C186 1.372 . S
C187 C188 1.400 1_554 S
C187 C192 1.490 . S
C188 H178 0.930 . S
C188 C187 1.400 1_556 S
C188 C191 1.386 . S
H189 C205 0.930 . S
H190 C206 0.915 1_556 S
C191 H179 0.929 . S
C191 C185 1.390 1_556 S
C191 C188 1.386 . S
C192 C187 1.490 . S
C192 C194 1.395 . S
C192 C195 1.403 1_554 S
H193 C199 0.930 . S
C194 H180 0.930 . S
C194 C192 1.395 . S
C194 C197 1.403 . S
C195 C192 1.403 1_556 S
C195 C196 1.524 . S
C195 C199 1.400 . S
C196 H181 0.960 . S
C196 H182 0.960 . S
C196 H183 0.960 . S
C196 C195 1.524 . S
C197 C194 1.403 . S
C197 C198 1.392 . S
C197 C201 1.495 . S
C198 C197 1.392 . S
C198 C199 1.385 1_554 S
C198 C200 1.478 . S
C199 H193 0.930 . S
C199 C195 1.400 . S
C199 C198 1.385 1_556 S
C200 C198 1.478 . S
C200 C202 1.381 . S
C200 C206 1.401 . S
C201 C197 1.495 . S
C201 H207 0.959 . S
C201 H208 0.961 . S
C201 H209 0.960 . S
C202 C200 1.381 . S
C202 C203 1.394 . S
C202 H210 0.930 . S
C203 C202 1.394 . S
C203 C204 1.383 . S
C203 H211 0.929 . S
C204 C203 1.383 . S
C204 C205 1.377 1_554 S
C205 H189 0.930 . S
C205 C204 1.377 1_556 S
C205 C206 1.378 1_556 S
C206 H190 0.915 1_554 S
C206 C200 1.401 . S
C206 C205 1.378 1_554 S
H207 C201 0.959 . S
H208 C201 0.961 . S
H209 C201 0.960 . S
H210 C202 0.930 . S
H211 C203 0.929 . S
H212 C220 0.929 . S
H213 C222 0.930 . S
H214 C224 0.930 . S
H215 C227 0.929 . S
H216 C230 0.930 . S
H217 C232 0.960 . S
H218 C232 0.960 . S
H219 C232 0.960 . S
C220 H212 0.929 . S
C220 C221 1.377 . S
C220 C222 1.384 . S
C221 C220 1.377 . S
C221 C227 1.390 1_554 S
C222 H213 0.930 . S
C222 C220 1.384 . S
C222 C223 1.372 . S
C223 C222 1.372 . S
C223 C224 1.400 1_554 S
C223 C228 1.490 . S
C224 H214 0.930 . S
C224 C223 1.400 1_556 S
C224 C227 1.386 . S
H225 C241 0.930 . S
H226 C242 0.949 . S
C227 H215 0.929 . S
C227 C221 1.390 1_556 S
C227 C224 1.386 . S
C228 C223 1.490 . S
C228 C230 1.395 . S
C228 C231 1.403 1_554 S
H229 C235 0.930 . S
C230 H216 0.930 . S
C230 C228 1.395 . S
C230 C233 1.403 . S
C231 C228 1.403 1_556 S
C231 C232 1.524 . S
C231 C235 1.400 . S
C232 H217 0.960 . S
C232 H218 0.960 . S
C232 H219 0.960 . S
C232 C231 1.524 . S
C233 C230 1.403 . S
C233 C234 1.392 . S
C233 C237 1.495 . S
C234 C233 1.392 . S
C234 C235 1.385 1_554 S
C234 C236 1.478 . S
C235 H229 0.930 . S
C235 C231 1.400 . S
C235 C234 1.385 1_556 S
C236 C234 1.478 . S
C236 C238 1.381 . S
C236 C242 1.363 1_554 S
C237 C233 1.495 . S
C237 H243 0.959 . S
C237 H244 0.961 . S
C237 H245 0.960 . S
C238 C236 1.381 . S
C238 C239 1.394 . S
C238 H246 0.930 . S
C239 C238 1.394 . S
C239 C240 1.383 . S
C239 H247 0.929 . S
C240 C239 1.383 . S
C240 C241 1.377 1_554 S
C241 H225 0.930 . S
C241 C240 1.377 1_556 S
C241 C242 1.382 . S
C242 H226 0.949 . S
C242 C236 1.363 1_556 S
C242 C241 1.382 . S
H243 C237 0.959 . S
H244 C237 0.961 . S
H245 C237 0.960 . S
H246 C238 0.930 . S
H247 C239 0.929 . S
H248 C256 0.929 . S
H249 C258 0.930 . S
H250 C260 0.930 . S
H251 C263 0.929 . S
H252 C266 0.930 . S
H253 C268 0.960 . S
H254 C268 0.960 1_556 S
H255 C268 0.960 . S
C256 H248 0.929 . S
C256 C257 1.377 1_556 S
C256 C258 1.384 . S
C257 C256 1.377 1_554 S
C257 C263 1.390 . S
C258 H249 0.930 . S
C258 C256 1.384 . S
C258 C259 1.372 1_556 S
C259 C258 1.372 1_554 S
C259 C260 1.400 . S
C259 C264 1.490 . S
C260 H250 0.930 . S
C260 C259 1.400 . S
C260 C263 1.386 . S
H261 C277 0.930 . S
H262 C278 0.931 . S
C263 H251 0.929 . S
C263 C257 1.390 . S
C263 C260 1.386 . S
C264 C259 1.490 . S
C264 C266 1.395 . S
C264 C267 1.403 . S
H265 C271 0.930 . S
C266 H252 0.930 . S
C266 C264 1.395 . S
C266 C269 1.403 . S
C267 C264 1.403 . S
C267 C268 1.524 . S
C267 C271 1.400 . S
C268 H253 0.960 . S
C268 H254 0.960 1_554 S
C268 H255 0.960 . S
C268 C267 1.524 . S
C269 C266 1.403 . S
C269 C270 1.392 . S
C269 C273 1.495 . S
C270 C269 1.392 . S
C270 C271 1.385 . S
C270 C272 1.478 . S
C271 H265 0.930 . S
C271 C267 1.400 . S
C271 C270 1.385 . S
C272 C270 1.478 . S
C272 C274 1.381 1_554 S
C272 C278 1.383 . S
C273 C269 1.495 . S
C273 H279 0.959 . S
C273 H280 0.961 . S
C273 H281 0.939 1_554 S
C274 C272 1.381 1_556 S
C274 C275 1.394 . S
C274 H282 0.930 . S
C275 C274 1.394 . S
C275 C276 1.383 1_556 S
C275 H283 0.929 . S
C276 C275 1.383 1_554 S
C276 C277 1.377 . S
C277 H261 0.930 . S
C277 C276 1.377 . S
C277 C278 1.379 . S
C278 H262 0.931 . S
C278 C272 1.383 . S
C278 C277 1.379 . S
H279 C273 0.959 . S
H280 C273 0.961 . S
H281 C273 0.939 1_556 S
H282 C274 0.930 . S
H283 C275 0.929 . S
H284 C292 0.929 . S
H285 C294 0.930 . S
H286 C296 0.930 1_556 S
H287 C299 0.929 1_556 S
H288 C302 0.930 1_556 S
H289 C304 0.960 . S
H290 C304 0.960 . S
H291 C304 0.960 . S
C292 H284 0.929 . S
C292 C293 1.377 . S
C292 C294 1.384 . S
C293 C292 1.377 . S
C293 C299 1.390 . S
C294 H285 0.930 . S
C294 C292 1.384 . S
C294 C295 1.372 . S
C295 C294 1.372 . S
C295 C296 1.400 . S
C295 C300 1.490 . S
C296 H286 0.930 1_554 S
C296 C295 1.400 . S
C296 C299 1.386 . S
H297 C313 0.930 . S
H298 C314 0.931 . S
C299 H287 0.929 1_554 S
C299 C293 1.390 . S
C299 C296 1.386 . S
C300 C295 1.490 . S
C300 C302 1.395 . S
C300 C303 1.403 . S
H301 C307 0.930 . S
C302 H288 0.930 1_554 S
C302 C300 1.395 . S
C302 C305 1.403 . S
C303 C300 1.403 . S
C303 C304 1.524 . S
C303 C307 1.400 . S
C304 H289 0.960 . S
C304 H290 0.960 . S
C304 H291 0.960 . S
C304 C303 1.524 . S
C305 C302 1.403 . S
C305 C306 1.392 . S
C305 C309 1.496 1_554 S
C306 C305 1.392 . S
C306 C307 1.385 . S
C306 C308 1.478 . S
C307 H301 0.930 . S
C307 C303 1.400 . S
C307 C306 1.385 . S
C308 C306 1.478 . S
C308 C310 1.381 . S
C308 C314 1.383 1_554 S
C309 C305 1.496 1_556 S
C309 H315 0.959 . S
C309 H316 0.961 . S
C309 H317 0.960 . S
C310 C308 1.381 . S
C310 C311 1.394 . S
C310 H318 0.930 . S
C311 C310 1.394 . S
C311 C312 1.383 . S
C311 H319 0.929 . S
C312 C311 1.383 . S
C312 C313 1.377 1_554 S
C313 H297 0.930 . S
C313 C312 1.377 1_556 S
C313 C314 1.379 . S
C314 H298 0.931 . S
C314 C308 1.383 1_556 S
C314 C313 1.379 . S
H315 C309 0.959 . S
H316 C309 0.961 . S
H317 C309 0.960 . S
H318 C310 0.930 . S
H319 C311 0.929 . S
H320 C328 0.929 . S
H321 C330 0.930 . S
H322 C332 0.930 . S
H323 C335 0.929 . S
H324 C338 0.930 . S
H325 C340 0.960 . S
H326 C340 0.960 . S
H327 C340 0.960 . S
C328 H320 0.929 . S
C328 C329 1.377 . S
C328 C330 1.384 . S
C329 C328 1.377 . S
C329 C335 1.390 . S
C330 H321 0.930 . S
C330 C328 1.384 . S
C330 C331 1.372 . S
C331 C330 1.372 . S
C331 C332 1.400 . S
C331 C336 1.490 . S
C332 H322 0.930 . S
C332 C331 1.400 . S
C332 C335 1.386 . S
H333 C349 0.930 . S
H334 C350 0.931 . S
C335 H323 0.929 . S
C335 C329 1.390 . S
C335 C332 1.386 . S
C336 C331 1.490 . S
C336 C338 1.395 . S
C336 C339 1.403 . S
H337 C343 0.930 . S
C338 H324 0.930 . S
C338 C336 1.395 . S
C338 C341 1.403 . S
C339 C336 1.403 . S
C339 C340 1.524 . S
C339 C343 1.400 . S
C340 H325 0.960 . S
C340 H326 0.960 . S
C340 H327 0.960 . S
C340 C339 1.524 . S
C341 C338 1.403 . S
C341 C342 1.392 . S
C341 C345 1.495 . S
C342 C341 1.392 . S
C342 C343 1.385 . S
C342 C344 1.478 . S
C343 H337 0.930 . S
C343 C339 1.400 . S
C343 C342 1.385 . S
C344 C342 1.478 . S
C344 C346 1.381 . S
C344 C350 1.383 . S
C345 C341 1.495 . S
C345 H351 0.959 . S
C345 H352 0.961 . S
C345 H353 0.960 . S
C346 C344 1.381 . S
C346 C347 1.394 . S
C346 H354 0.930 . S
C347 C346 1.394 . S
C347 C348 1.383 . S
C347 H355 0.929 . S
C348 C347 1.383 . S
C348 C349 1.377 . S
C349 H333 0.930 . S
C349 C348 1.377 . S
C349 C350 1.379 . S
C350 H334 0.931 . S
C350 C344 1.383 . S
C350 C349 1.379 . S
H351 C345 0.959 . S
H352 C345 0.961 . S
H353 C345 0.960 . S
H354 C346 0.930 . S
H355 C347 0.929 . S
H356 C364 0.929 . S
H357 C366 0.930 . S
H358 C368 0.930 . S
H359 C371 0.929 . S
H360 C374 0.930 . S
H361 C376 0.960 . S
H362 C376 0.960 . S
H363 C376 0.960 . S
C364 H356 0.929 . S
C364 C365 1.377 . S
C364 C366 1.384 . S
C365 C364 1.377 . S
C365 C371 1.390 . S
C366 H357 0.930 . S
C366 C364 1.384 . S
C366 C367 1.372 . S
C367 C366 1.372 . S
C367 C368 1.400 . S
C367 C372 1.490 . S
C368 H358 0.930 . S
C368 C367 1.400 . S
C368 C371 1.386 . S
H369 C385 0.930 . S
H370 C386 0.931 . S
C371 H359 0.929 . S
C371 C365 1.390 . S
C371 C368 1.386 . S
C372 C367 1.490 . S
C372 C374 1.395 . S
C372 C375 1.403 . S
H373 C379 0.930 . S
C374 H360 0.930 . S
C374 C372 1.395 . S
C374 C377 1.403 . S
C375 C372 1.403 . S
C375 C376 1.524 . S
C375 C379 1.400 . S
C376 H361 0.960 . S
C376 H362 0.960 . S
C376 H363 0.960 . S
C376 C375 1.524 . S
C377 C374 1.403 . S
C377 C378 1.392 . S
C377 C381 1.495 . S
C378 C377 1.392 . S
C378 C379 1.385 . S
C378 C380 1.478 . S
C379 H373 0.930 . S
C379 C375 1.400 . S
C379 C378 1.385 . S
C380 C378 1.478 . S
C380 C382 1.381 . S
C380 C386 1.383 . S
C381 C377 1.495 . S
C381 H387 0.959 . S
C381 H388 0.961 . S
C381 H389 0.960 . S
C382 C380 1.381 . S
C382 C383 1.394 . S
C382 H390 0.930 . S
C383 C382 1.394 . S
C383 C384 1.383 . S
C383 H391 0.929 . S
C384 C383 1.383 . S
C384 C385 1.377 . S
C385 H369 0.930 . S
C385 C384 1.377 . S
C385 C386 1.379 . S
C386 H370 0.931 . S
C386 C380 1.383 . S
C386 C385 1.379 . S
H387 C381 0.959 . S
H388 C381 0.961 . S
H389 C381 0.960 . S
H390 C382 0.930 . S
H391 C383 0.929 . S
H392 C400 0.929 . S
H393 C402 0.930 . S
H394 C404 0.930 . S
H395 C407 0.929 . S
H396 C410 0.930 . S
H397 C412 0.960 . S
H398 C412 0.960 . S
H399 C412 0.960 . S
C400 H392 0.929 . S
C400 C401 1.377 . S
C400 C402 1.384 . S
C401 C400 1.377 . S
C401 C407 1.390 . S
C402 H393 0.930 . S
C402 C400 1.384 . S
C402 C403 1.372 . S
C403 C402 1.372 . S
C403 C404 1.400 . S
C403 C408 1.490 . S
C404 H394 0.930 . S
C404 C403 1.400 . S
C404 C407 1.386 . S
H405 C421 0.930 . S
H406 C422 0.931 . S
C407 H395 0.929 . S
C407 C401 1.390 . S
C407 C404 1.386 . S
C408 C403 1.490 . S
C408 C410 1.395 . S
C408 C411 1.403 . S
H409 C415 0.930 . S
C410 H396 0.930 . S
C410 C408 1.395 . S
C410 C413 1.403 . S
C411 C408 1.403 . S
C411 C412 1.524 . S
C411 C415 1.400 . S
C412 H397 0.960 . S
C412 H398 0.960 . S
C412 H399 0.960 . S
C412 C411 1.524 . S
C413 C410 1.403 . S
C413 C414 1.392 . S
C413 C417 1.495 . S
C414 C413 1.392 . S
C414 C415 1.385 . S
C414 C416 1.478 . S
C415 H409 0.930 . S
C415 C411 1.400 . S
C415 C414 1.385 . S
C416 C414 1.478 . S
C416 C418 1.381 . S
C416 C422 1.383 . S
C417 C413 1.495 . S
C417 H423 0.959 . S
C417 H424 0.961 . S
C417 H425 0.960 . S
C418 C416 1.381 . S
C418 C419 1.394 . S
C418 H426 0.930 . S
C419 C418 1.394 . S
C419 C420 1.383 . S
C419 H427 0.929 . S
C420 C419 1.383 . S
C420 C421 1.377 . S
C421 H405 0.930 . S
C421 C420 1.377 . S
C421 C422 1.379 . S
C422 H406 0.931 . S
C422 C416 1.383 . S
C422 C421 1.379 . S
H423 C417 0.959 . S
H424 C417 0.961 . S
H425 C417 0.960 . S
H426 C418 0.930 . S
H427 C419 0.929 . S
H428 C436 0.929 . S
H429 C438 0.930 . S
H430 C440 0.930 . S
H431 C443 0.929 . S
H432 C446 0.930 . S
H433 C448 0.960 . S
H434 C448 0.960 . S
H435 C448 0.960 . S
C436 H428 0.929 . S
C436 C437 1.377 . S
C436 C438 1.384 . S
C437 C436 1.377 . S
C437 C443 1.390 . S
C438 H429 0.930 . S
C438 C436 1.384 . S
C438 C439 1.372 . S
C439 C438 1.372 . S
C439 C440 1.400 . S
C439 C444 1.490 . S
C440 H430 0.930 . S
C440 C439 1.400 . S
C440 C443 1.386 . S
H441 C457 0.930 . S
H442 C458 0.931 . S
C443 H431 0.929 . S
C443 C437 1.390 . S
C443 C440 1.386 . S
C444 C439 1.490 . S
C444 C446 1.395 . S
C444 C447 1.403 . S
H445 C451 0.930 . S
C446 H432 0.930 . S
C446 C444 1.395 . S
C446 C449 1.403 . S
C447 C444 1.403 . S
C447 C448 1.524 . S
C447 C451 1.400 . S
C448 H433 0.960 . S
C448 H434 0.960 . S
C448 H435 0.960 . S
C448 C447 1.524 . S
C449 C446 1.403 . S
C449 C450 1.392 . S
C449 C453 1.495 . S
C450 C449 1.392 . S
C450 C451 1.385 . S
C450 C452 1.478 . S
C451 H445 0.930 . S
C451 C447 1.400 . S
C451 C450 1.385 . S
C452 C450 1.478 . S
C452 C454 1.381 . S
C452 C458 1.383 . S
C453 C449 1.495 . S
C453 H459 0.959 . S
C453 H460 0.961 . S
C453 H461 0.960 . S
C454 C452 1.381 . S
C454 C455 1.394 . S
C454 H462 0.930 . S
C455 C454 1.394 . S
C455 C456 1.383 . S
C455 H463 0.929 . S
C456 C455 1.383 . S
C456 C457 1.377 . S
C457 H441 0.930 . S
C457 C456 1.377 . S
C457 C458 1.379 . S
C458 H442 0.931 . S
C458 C452 1.383 . S
C458 C457 1.379 . S
H459 C453 0.959 . S
H460 C453 0.961 . S
H461 C453 0.960 . S
H462 C454 0.930 . S
H463 C455 0.929 . S
H464 C472 0.929 1_655 S
H465 C474 0.930 . S
H466 C476 0.930 . S
H467 C479 0.929 . S
H468 C482 0.930 . S
H469 C484 0.960 . S
H470 C484 0.960 . S
H471 C484 0.960 . S
C472 H464 0.929 1_455 S
C472 C473 1.377 . S
C472 C474 1.384 . S
C473 C472 1.377 . S
C473 C479 1.390 . S
C474 H465 0.930 . S
C474 C472 1.384 . S
C474 C475 1.372 . S
C475 C474 1.372 . S
C475 C476 1.400 . S
C475 C480 1.490 . S
C476 H466 0.930 . S
C476 C475 1.400 . S
C476 C479 1.386 . S
H477 C493 0.930 . S
H478 C494 0.931 . S
C479 H467 0.929 . S
C479 C473 1.390 . S
C479 C476 1.386 . S
C480 C475 1.490 . S
C480 C482 1.395 . S
C480 C483 1.403 . S
H481 C487 0.930 . S
C482 H468 0.930 . S
C482 C480 1.395 . S
C482 C485 1.403 . S
C483 C480 1.403 . S
C483 C484 1.524 . S
C483 C487 1.400 . S
C484 H469 0.960 . S
C484 H470 0.960 . S
C484 H471 0.960 . S
C484 C483 1.524 . S
C485 C482 1.403 . S
C485 C486 1.392 . S
C485 C489 1.495 . S
C486 C485 1.392 . S
C486 C487 1.385 . S
C486 C488 1.478 . S
C487 H481 0.930 . S
C487 C483 1.400 . S
C487 C486 1.385 . S
C488 C486 1.478 . S
C488 C490 1.381 . S
C488 C494 1.383 . S
C489 C485 1.495 . S
C489 H495 0.959 1_455 S
C489 H496 0.961 . S
C489 H497 0.960 . S
C490 C488 1.381 . S
C490 C491 1.394 . S
C490 H498 0.930 . S
C491 C490 1.394 . S
C491 C492 1.383 . S
C491 H499 0.929 . S
C492 C491 1.383 . S
C492 C493 1.377 . S
C493 H477 0.930 . S
C493 C492 1.377 . S
C493 C494 1.379 . S
C494 H478 0.931 . S
C494 C488 1.383 . S
C494 C493 1.379 . S
H495 C489 0.959 1_655 S
H496 C489 0.961 . S
H497 C489 0.960 . S
H498 C490 0.930 . S
H499 C491 0.929 . S
H500 C508 0.929 . S
H501 C510 0.930 . S
H502 C512 0.930 . S
H503 C515 0.929 . S
H504 C518 0.930 . S
H505 C520 0.960 1_565 S
H506 C520 0.959 1_565 S
H507 C520 0.960 1_565 S
C508 H500 0.929 . S
C508 C509 1.377 . S
C508 C510 1.384 . S
C509 C508 1.377 . S
C509 C515 1.390 . S
C510 H501 0.930 . S
C510 C508 1.384 . S
C510 C511 1.372 . S
C511 C510 1.372 . S
C511 C512 1.400 . S
C511 C516 1.490 . S
C512 H502 0.930 . S
C512 C511 1.400 . S
C512 C515 1.386 . S
H513 C529 0.930 . S
H514 C530 0.931 . S
C515 H503 0.929 . S
C515 C509 1.390 . S
C515 C512 1.386 . S
C516 C511 1.490 . S
C516 C518 1.395 . S
C516 C519 1.403 . S
H517 C523 0.930 . S
C518 H504 0.930 . S
C518 C516 1.395 . S
C518 C521 1.403 . S
C519 C516 1.403 . S
C519 C520 1.524 . S
C519 C523 1.400 . S
C520 H505 0.960 1_545 S
C520 H506 0.959 1_545 S
C520 H507 0.960 1_545 S
C520 C519 1.524 . S
C521 C518 1.403 . S
C521 C522 1.392 . S
C521 C525 1.495 . S
C522 C521 1.392 . S
C522 C523 1.385 . S
C522 C524 1.478 . S
C523 H517 0.930 . S
C523 C519 1.400 . S
C523 C522 1.385 . S
C524 C522 1.478 . S
C524 C526 1.381 . S
C524 C530 1.383 . S
C525 C521 1.495 . S
C525 H531 0.959 . S
C525 H532 0.961 . S
C525 H533 0.960 . S
C526 C524 1.381 . S
C526 C527 1.394 . S
C526 H534 0.930 . S
C527 C526 1.394 . S
C527 C528 1.383 . S
C527 H535 0.929 . S
C528 C527 1.383 . S
C528 C529 1.377 . S
C529 H513 0.930 . S
C529 C528 1.377 . S
C529 C530 1.379 . S
C530 H514 0.931 . S
C530 C524 1.383 . S
C530 C529 1.379 . S
H531 C525 0.959 . S
H532 C525 0.961 . S
H533 C525 0.960 . S
H534 C526 0.930 . S
H535 C527 0.929 . S
H536 C544 0.929 . S
H537 C546 0.930 . S
H538 C548 0.930 . S
H539 C551 0.929 . S
H540 C554 0.930 . S
H541 C556 0.960 . S
H542 C556 0.949 1_455 S
H543 C556 0.960 . S
C544 H536 0.929 . S
C544 C545 1.377 . S
C544 C546 1.384 . S
C545 C544 1.377 . S
C545 C551 1.390 . S
C546 H537 0.930 . S
C546 C544 1.384 . S
C546 C547 1.372 . S
C547 C546 1.372 . S
C547 C548 1.400 . S
C547 C552 1.490 . S
C548 H538 0.930 . S
C548 C547 1.400 . S
C548 C551 1.386 . S
H549 C565 0.930 . S
H550 C566 0.931 . S
C551 H539 0.929 . S
C551 C545 1.390 . S
C551 C548 1.386 . S
C552 C547 1.490 . S
C552 C554 1.395 . S
C552 C555 1.403 . S
H553 C559 0.930 . S
C554 H540 0.930 . S
C554 C552 1.395 . S
C554 C557 1.403 . S
C555 C552 1.403 . S
C555 C556 1.524 . S
C555 C559 1.400 . S
C556 H541 0.960 . S
C556 H542 0.949 1_655 S
C556 H543 0.960 . S
C556 C555 1.524 . S
C557 C554 1.403 . S
C557 C558 1.392 . S
C557 C561 1.495 . S
C558 C557 1.392 . S
C558 C559 1.385 . S
C558 C560 1.478 . S
C559 H553 0.930 . S
C559 C555 1.400 . S
C559 C558 1.385 . S
C560 C558 1.478 . S
C560 C562 1.381 . S
C560 C566 1.383 . S
C561 C557 1.495 . S
C561 H567 0.959 . S
C561 H568 0.961 . S
C561 H569 0.960 . S
C562 C560 1.381 . S
C562 C563 1.394 . S
C562 H570 0.930 . S
C563 C562 1.394 . S
C563 C564 1.383 . S
C563 H571 0.929 . S
C564 C563 1.383 . S
C564 C565 1.377 . S
C565 H549 0.930 . S
C565 C564 1.377 . S
C565 C566 1.379 . S
C566 H550 0.931 . S
C566 C560 1.383 . S
C566 C565 1.379 . S
H567 C561 0.959 . S
H568 C561 0.961 . S
H569 C561 0.960 . S
H570 C562 0.930 . S
H571 C563 0.929 . S
H572 C580 0.929 . S
H573 C582 0.930 . S
H574 C584 0.930 . S
H575 C587 0.929 1_545 S
H576 C590 0.930 . S
H577 C592 0.960 . S
H578 C592 0.960 . S
H579 C592 0.960 . S
C580 H572 0.929 . S
C580 C581 1.377 . S
C580 C582 1.384 . S
C581 C580 1.377 . S
C581 C587 1.390 . S
C582 H573 0.930 . S
C582 C580 1.384 . S
C582 C583 1.372 . S
C583 C582 1.372 . S
C583 C584 1.400 . S
C583 C588 1.490 . S
C584 H574 0.930 . S
C584 C583 1.400 . S
C584 C587 1.386 . S
H585 C601 0.930 . S
H586 C602 0.931 . S
C587 H575 0.929 1_565 S
C587 C581 1.390 . S
C587 C584 1.386 . S
C588 C583 1.490 . S
C588 C590 1.395 . S
C588 C591 1.403 . S
H589 C595 0.930 . S
C590 H576 0.930 . S
C590 C588 1.395 . S
C590 C593 1.403 . S
C591 C588 1.403 . S
C591 C592 1.524 . S
C591 C595 1.400 . S
C592 H577 0.960 . S
C592 H578 0.960 . S
C592 H579 0.960 . S
C592 C591 1.524 . S
C593 C590 1.403 . S
C593 C594 1.392 . S
C593 C597 1.495 . S
C594 C593 1.392 . S
C594 C595 1.385 . S
C594 C596 1.478 . S
C595 H589 0.930 . S
C595 C591 1.400 . S
C595 C594 1.385 . S
C596 C594 1.478 . S
C596 C598 1.381 . S
C596 C602 1.383 . S
C597 C593 1.495 . S
C597 H603 0.959 . S
C597 H604 0.961 . S
C597 H605 0.960 . S
C598 C596 1.381 . S
C598 C599 1.394 . S
C598 H606 0.930 . S
C599 C598 1.394 . S
C599 C600 1.383 . S
C599 H607 0.929 . S
C600 C599 1.383 . S
C600 C601 1.377 . S
C601 H585 0.930 . S
C601 C600 1.377 . S
C601 C602 1.379 . S
C602 H586 0.931 . S
C602 C596 1.383 . S
C602 C601 1.379 . S
H603 C597 0.959 . S
H604 C597 0.961 . S
H605 C597 0.960 . S
H606 C598 0.930 . S
H607 C599 0.929 . S
H608 C616 0.929 . S
H609 C618 0.930 . S
H610 C620 0.930 . S
H611 C623 0.929 1_545 S
H612 C626 0.930 . S
H613 C628 0.960 . S
H614 C628 0.960 . S
H615 C628 0.960 . S
C616 H608 0.929 . S
C616 C617 1.377 . S
C616 C618 1.384 . S
C617 C616 1.377 . S
C617 C623 1.390 . S
C618 H609 0.930 . S
C618 C616 1.384 . S
C618 C619 1.372 . S
C619 C618 1.372 . S
C619 C620 1.400 . S
C619 C624 1.490 . S
C620 H610 0.930 . S
C620 C619 1.400 . S
C620 C623 1.386 . S
H621 C637 0.930 . S
H622 C638 0.931 . S
C623 H611 0.929 1_565 S
C623 C617 1.390 . S
C623 C620 1.386 . S
C624 C619 1.490 . S
C624 C626 1.395 . S
C624 C627 1.403 . S
H625 C631 0.930 . S
C626 H612 0.930 . S
C626 C624 1.395 . S
C626 C629 1.403 . S
C627 C624 1.403 . S
C627 C628 1.524 . S
C627 C631 1.400 . S
C628 H613 0.960 . S
C628 H614 0.960 . S
C628 H615 0.960 . S
C628 C627 1.524 . S
C629 C626 1.403 . S
C629 C630 1.392 . S
C629 C633 1.495 . S
C630 C629 1.392 . S
C630 C631 1.385 . S
C630 C632 1.478 . S
C631 H625 0.930 . S
C631 C627 1.400 . S
C631 C630 1.385 . S
C632 C630 1.478 . S
C632 C634 1.381 . S
C632 C638 1.383 . S
C633 C629 1.495 . S
C633 H639 0.959 . S
C633 H640 0.961 . S
C633 H641 0.960 . S
C634 C632 1.381 . S
C634 C635 1.394 . S
C634 H642 0.930 . S
C635 C634 1.394 . S
C635 C636 1.383 . S
C635 H643 0.929 . S
C636 C635 1.383 . S
C636 C637 1.377 . S
C637 H621 0.930 . S
C637 C636 1.377 . S
C637 C638 1.379 . S
C638 H622 0.931 . S
C638 C632 1.383 . S
C638 C637 1.379 . S
H639 C633 0.959 . S
H640 C633 0.961 . S
H641 C633 0.960 . S
H642 C634 0.930 . S
H643 C635 0.929 . S
H644 C652 0.929 . S
H645 C654 0.930 . S
H646 C656 0.930 . S
H647 C659 0.929 . S
H648 C662 0.930 . S
H649 C664 0.960 . S
H650 C664 0.960 . S
H651 C664 0.960 . S
C652 H644 0.929 . S
C652 C653 1.377 . S
C652 C654 1.384 . S
C653 C652 1.377 . S
C653 C659 1.390 . S
C654 H645 0.930 . S
C654 C652 1.384 . S
C654 C655 1.372 . S
C655 C654 1.372 . S
C655 C656 1.400 . S
C655 C660 1.490 . S
C656 H646 0.930 . S
C656 C655 1.400 . S
C656 C659 1.386 . S
H657 C673 0.930 . S
H658 C674 0.931 . S
C659 H647 0.929 . S
C659 C653 1.390 . S
C659 C656 1.386 . S
C660 C655 1.490 . S
C660 C662 1.395 . S
C660 C663 1.403 . S
H661 C667 0.930 . S
C662 H648 0.930 . S
C662 C660 1.395 . S
C662 C665 1.403 . S
C663 C660 1.403 . S
C663 C664 1.524 . S
C663 C667 1.400 . S
C664 H649 0.960 . S
C664 H650 0.960 . S
C664 H651 0.960 . S
C664 C663 1.524 . S
C665 C662 1.403 . S
C665 C666 1.392 . S
C665 C669 1.495 . S
C666 C665 1.392 . S
C666 C667 1.385 . S
C666 C668 1.478 . S
C667 H661 0.930 . S
C667 C663 1.400 . S
C667 C666 1.385 . S
C668 C666 1.478 . S
C668 C670 1.381 . S
C668 C674 1.383 . S
C669 C665 1.495 . S
C669 H675 0.959 1_455 S
C669 H676 0.961 . S
C669 H677 0.960 . S
C670 C668 1.381 . S
C670 C671 1.394 . S
C670 H678 0.930 . S
C671 C670 1.394 . S
C671 C672 1.383 . S
C671 H679 0.929 . S
C672 C671 1.383 . S
C672 C673 1.377 . S
C673 H657 0.930 . S
C673 C672 1.377 . S
C673 C674 1.379 . S
C674 H658 0.931 . S
C674 C668 1.383 . S
C674 C673 1.379 . S
H675 C669 0.959 1_655 S
H676 C669 0.961 . S
H677 C669 0.960 . S
H678 C670 0.930 . S
H679 C671 0.929 . S
H680 C688 0.929 1_565 S
H681 C690 0.930 . S
H682 C692 0.930 . S
H683 C695 0.929 . S
H684 C698 0.930 . S
H685 C700 0.960 . S
H686 C700 0.960 . S
H687 C700 0.960 . S
C688 H680 0.929 1_545 S
C688 C689 1.377 . S
C688 C690 1.384 . S
C689 C688 1.377 . S
C689 C695 1.390 . S
C690 H681 0.930 . S
C690 C688 1.384 . S
C690 C691 1.372 . S
C691 C690 1.372 . S
C691 C692 1.400 . S
C691 C696 1.490 . S
C692 H682 0.930 . S
C692 C691 1.400 . S
C692 C695 1.386 . S
H693 C709 0.930 . S
H694 C710 0.931 . S
C695 H683 0.929 . S
C695 C689 1.390 . S
C695 C692 1.386 . S
C696 C691 1.490 . S
C696 C698 1.395 . S
C696 C699 1.403 . S
H697 C703 0.930 . S
C698 H684 0.930 . S
C698 C696 1.395 . S
C698 C701 1.403 . S
C699 C696 1.403 . S
C699 C700 1.524 . S
C699 C703 1.400 . S
C700 H685 0.960 . S
C700 H686 0.960 . S
C700 H687 0.960 . S
C700 C699 1.524 . S
C701 C698 1.403 . S
C701 C702 1.392 . S
C701 C705 1.495 . S
C702 C701 1.392 . S
C702 C703 1.385 . S
C702 C704 1.478 . S
C703 H697 0.930 . S
C703 C699 1.400 . S
C703 C702 1.385 . S
C704 C702 1.478 . S
C704 C706 1.381 . S
C704 C710 1.383 . S
C705 C701 1.495 . S
C705 H711 0.959 . S
C705 H712 0.961 . S
C705 H713 0.960 . S
C706 C704 1.381 . S
C706 C707 1.394 . S
C706 H714 0.930 . S
C707 C706 1.394 . S
C707 C708 1.383 . S
C707 H715 0.929 . S
C708 C707 1.383 . S
C708 C709 1.377 . S
C709 H693 0.930 . S
C709 C708 1.377 . S
C709 C710 1.379 . S
C710 H694 0.931 . S
C710 C704 1.383 . S
C710 C709 1.379 . S
H711 C705 0.959 . S
H712 C705 0.961 . S
H713 C705 0.960 . S
H714 C706 0.930 . S
H715 C707 0.929 . S
H716 C724 0.929 . S
H717 C726 0.930 . S
H718 C728 0.930 . S
H719 C731 0.929 . S
H720 C734 0.930 . S
H721 C736 0.960 1_455 S
H722 C736 0.960 1_455 S
H723 C736 0.960 . S
C724 H716 0.929 . S
C724 C725 1.377 . S
C724 C726 1.384 . S
C725 C724 1.377 . S
C725 C731 1.390 . S
C726 H717 0.930 . S
C726 C724 1.384 . S
C726 C727 1.372 . S
C727 C726 1.372 . S
C727 C728 1.400 . S
C727 C732 1.490 . S
C728 H718 0.930 . S
C728 C727 1.400 . S
C728 C731 1.386 . S
H729 C745 0.930 . S
H730 C746 0.931 . S
C731 H719 0.929 . S
C731 C725 1.390 . S
C731 C728 1.386 . S
C732 C727 1.490 . S
C732 C734 1.395 . S
C732 C735 1.403 . S
H733 C739 0.930 . S
C734 H720 0.930 . S
C734 C732 1.395 . S
C734 C737 1.403 . S
C735 C732 1.403 . S
C735 C736 1.524 . S
C735 C739 1.400 . S
C736 H721 0.960 1_655 S
C736 H722 0.960 1_655 S
C736 H723 0.960 . S
C736 C735 1.524 . S
C737 C734 1.403 . S
C737 C738 1.392 . S
C737 C741 1.495 . S
C738 C737 1.392 . S
C738 C739 1.385 . S
C738 C740 1.478 . S
C739 H733 0.930 . S
C739 C735 1.400 . S
C739 C738 1.385 . S
C740 C738 1.478 . S
C740 C742 1.381 . S
C740 C746 1.383 . S
C741 C737 1.495 . S
C741 H747 0.959 . S
C741 H748 0.961 . S
C741 H749 0.960 . S
C742 C740 1.381 . S
C742 C743 1.394 . S
C742 H750 0.930 . S
C743 C742 1.394 . S
C743 C744 1.383 . S
C743 H751 0.929 . S
C744 C743 1.383 . S
C744 C745 1.377 . S
C745 H729 0.930 . S
C745 C744 1.377 . S
C745 C746 1.379 . S
C746 H730 0.931 . S
C746 C740 1.383 . S
C746 C745 1.379 . S
H747 C741 0.959 . S
H748 C741 0.961 . S
H749 C741 0.960 . S
H750 C742 0.930 . S
H751 C743 0.929 . S
H752 C760 0.929 . S
H753 C762 0.930 . S
H754 C764 0.930 . S
H755 C767 0.929 . S
H756 C770 0.930 . S
H757 C772 0.960 . S
H758 C772 0.960 . S
H759 C772 0.960 . S
C760 H752 0.929 . S
C760 C761 1.377 . S
C760 C762 1.384 . S
C761 C760 1.377 . S
C761 C767 1.390 . S
C762 H753 0.930 . S
C762 C760 1.384 . S
C762 C763 1.372 . S
C763 C762 1.372 . S
C763 C764 1.400 . S
C763 C768 1.490 . S
C764 H754 0.930 . S
C764 C763 1.400 . S
C764 C767 1.386 . S
H765 C781 0.930 . S
H766 C782 0.931 . S
C767 H755 0.929 . S
C767 C761 1.390 . S
C767 C764 1.386 . S
C768 C763 1.490 . S
C768 C770 1.395 . S
C768 C771 1.403 . S
H769 C775 0.930 . S
C770 H756 0.930 . S
C770 C768 1.395 . S
C770 C773 1.403 . S
C771 C768 1.403 . S
C771 C772 1.524 . S
C771 C775 1.400 . S
C772 H757 0.960 . S
C772 H758 0.960 . S
C772 H759 0.960 . S
C772 C771 1.524 . S
C773 C770 1.403 . S
C773 C774 1.392 . S
C773 C777 1.495 . S
C774 C773 1.392 . S
C774 C775 1.385 . S
C774 C776 1.478 . S
C775 H769 0.930 . S
C775 C771 1.400 . S
C775 C774 1.385 . S
C776 C774 1.478 . S
C776 C778 1.381 . S
C776 C782 1.383 . S
C777 C773 1.495 . S
C777 H783 0.959 . S
C777 H784 0.961 . S
C777 H785 0.960 . S
C778 C776 1.381 . S
C778 C779 1.394 . S
C778 H786 0.930 . S
C779 C778 1.394 . S
C779 C780 1.383 . S
C779 H787 0.929 . S
C780 C779 1.383 . S
C780 C781 1.377 . S
C781 H765 0.930 . S
C781 C780 1.377 . S
C781 C782 1.379 . S
C782 H766 0.931 . S
C782 C776 1.383 . S
C782 C781 1.379 . S
H783 C777 0.959 . S
H784 C777 0.961 . S
H785 C777 0.960 . S
H786 C778 0.930 . S
H787 C779 0.929 . S
H788 C796 0.929 . S
H789 C798 0.930 . S
H790 C800 0.930 . S
H791 C803 0.929 . S
H792 C806 0.930 . S
H793 C808 0.960 . S
H794 C808 0.960 . S
H795 C808 0.960 . S
C796 H788 0.929 . S
C796 C797 1.377 . S
C796 C798 1.384 . S
C797 C796 1.377 . S
C797 C803 1.390 . S
C798 H789 0.930 . S
C798 C796 1.384 . S
C798 C799 1.372 . S
C799 C798 1.372 . S
C799 C800 1.400 . S
C799 C804 1.490 . S
C800 H790 0.930 . S
C800 C799 1.400 . S
C800 C803 1.386 . S
H801 C817 0.930 . S
H802 C818 0.931 . S
C803 H791 0.929 . S
C803 C797 1.390 . S
C803 C800 1.386 . S
C804 C799 1.490 . S
C804 C806 1.395 . S
C804 C807 1.403 . S
H805 C811 0.930 . S
C806 H792 0.930 . S
C806 C804 1.395 . S
C806 C809 1.403 . S
C807 C804 1.403 . S
C807 C808 1.524 . S
C807 C811 1.400 . S
C808 H793 0.960 . S
C808 H794 0.960 . S
C808 H795 0.960 . S
C808 C807 1.524 . S
C809 C806 1.403 . S
C809 C810 1.392 . S
C809 C813 1.495 . S
C810 C809 1.392 . S
C810 C811 1.385 . S
C810 C812 1.478 . S
C811 H805 0.930 . S
C811 C807 1.400 . S
C811 C810 1.385 . S
C812 C810 1.478 . S
C812 C814 1.381 . S
C812 C818 1.383 . S
C813 C809 1.495 . S
C813 H819 0.959 . S
C813 H820 0.961 . S
C813 H821 0.960 . S
C814 C812 1.381 . S
C814 C815 1.394 . S
C814 H822 0.930 . S
C815 C814 1.394 . S
C815 C816 1.383 . S
C815 H823 0.929 . S
C816 C815 1.383 . S
C816 C817 1.377 . S
C817 H801 0.930 . S
C817 C816 1.377 . S
C817 C818 1.379 . S
C818 H802 0.931 . S
C818 C812 1.383 . S
C818 C817 1.379 . S
H819 C813 0.959 . S
H820 C813 0.961 . S
H821 C813 0.960 . S
H822 C814 0.930 . S
H823 C815 0.929 . S
H824 C832 0.929 . S
H825 C834 0.930 . S
H826 C836 0.930 . S
H827 C839 0.929 . S
H828 C842 0.930 . S
H829 C844 0.960 . S
H830 C844 0.960 . S
H831 C844 0.960 . S
C832 H824 0.929 . S
C832 C833 1.377 . S
C832 C834 1.384 . S
C833 C832 1.377 . S
C833 C839 1.390 . S
C834 H825 0.930 . S
C834 C832 1.384 . S
C834 C835 1.372 . S
C835 C834 1.372 . S
C835 C836 1.400 . S
C835 C840 1.490 . S
C836 H826 0.930 . S
C836 C835 1.400 . S
C836 C839 1.386 . S
H837 C853 0.930 . S
H838 C854 0.931 . S
C839 H827 0.929 . S
C839 C833 1.390 . S
C839 C836 1.386 . S
C840 C835 1.490 . S
C840 C842 1.395 . S
C840 C843 1.403 . S
H841 C847 0.930 . S
C842 H828 0.930 . S
C842 C840 1.395 . S
C842 C845 1.403 . S
C843 C840 1.403 . S
C843 C844 1.524 . S
C843 C847 1.400 . S
C844 H829 0.960 . S
C844 H830 0.960 . S
C844 H831 0.960 . S
C844 C843 1.524 . S
C845 C842 1.403 . S
C845 C846 1.392 . S
C845 C849 1.495 . S
C846 C845 1.392 . S
C846 C847 1.385 . S
C846 C848 1.478 . S
C847 H841 0.930 . S
C847 C843 1.400 . S
C847 C846 1.385 . S
C848 C846 1.478 . S
C848 C850 1.381 . S
C848 C854 1.383 . S
C849 C845 1.495 . S
C849 H855 0.959 . S
C849 H856 0.961 . S
C849 H857 0.960 . S
C850 C848 1.381 . S
C850 C851 1.394 . S
C850 H858 0.930 . S
C851 C850 1.394 . S
C851 C852 1.383 . S
C851 H859 0.929 . S
C852 C851 1.383 . S
C852 C853 1.377 . S
C853 H837 0.930 . S
C853 C852 1.377 . S
C853 C854 1.379 . S
C854 H838 0.931 . S
C854 C848 1.383 . S
C854 C853 1.379 . S
H855 C849 0.959 . S
H856 C849 0.961 . S
H857 C849 0.960 . S
H858 C850 0.930 . S
H859 C851 0.929 . S
H860 C868 0.929 . S
H861 C870 0.930 . S
H862 C872 0.930 . S
H863 C875 0.929 . S
H864 C878 0.930 . S
H865 C880 0.960 . S
H866 C880 0.960 . S
H867 C880 0.960 . S
C868 H860 0.929 . S
C868 C869 1.377 . S
C868 C870 1.384 . S
C869 C868 1.377 . S
C869 C875 1.390 . S
C870 H861 0.930 . S
C870 C868 1.384 . S
C870 C871 1.372 . S
C871 C870 1.372 . S
C871 C872 1.400 . S
C871 C876 1.490 . S
C872 H862 0.930 . S
C872 C871 1.400 . S
C872 C875 1.386 . S
H873 C889 0.930 . S
H874 C890 0.931 . S
C875 H863 0.929 . S
C875 C869 1.390 . S
C875 C872 1.386 . S
C876 C871 1.490 . S
C876 C878 1.395 . S
C876 C879 1.403 . S
H877 C883 0.930 . S
C878 H864 0.930 . S
C878 C876 1.395 . S
C878 C881 1.403 . S
C879 C876 1.403 . S
C879 C880 1.524 . S
C879 C883 1.400 . S
C880 H865 0.960 . S
C880 H866 0.960 . S
C880 H867 0.960 . S
C880 C879 1.524 . S
C881 C878 1.403 . S
C881 C882 1.392 . S
C881 C885 1.495 . S
C882 C881 1.392 . S
C882 C883 1.385 . S
C882 C884 1.478 . S
C883 H877 0.930 . S
C883 C879 1.400 . S
C883 C882 1.385 . S
C884 C882 1.478 . S
C884 C886 1.381 . S
C884 C890 1.383 . S
C885 C881 1.495 . S
C885 H891 0.959 . S
C885 H892 0.961 . S
C885 H893 0.960 . S
C886 C884 1.381 . S
C886 C887 1.394 . S
C886 H894 0.930 . S
C887 C886 1.394 . S
C887 C888 1.383 . S
C887 H895 0.929 . S
C888 C887 1.383 . S
C888 C889 1.377 . S
C889 H873 0.930 . S
C889 C888 1.377 . S
C889 C890 1.379 . S
C890 H874 0.931 . S
C890 C884 1.383 . S
C890 C889 1.379 . S
H891 C885 0.959 . S
H892 C885 0.961 . S
H893 C885 0.960 . S
H894 C886 0.930 . S
H895 C887 0.929 . S
H896 C904 0.929 . S
H897 C906 0.930 . S
H898 C908 0.930 . S
H899 C911 0.929 . S
H900 C914 0.930 . S
H901 C916 0.960 . S
H902 C916 0.960 . S
H903 C916 0.960 . S
C904 H896 0.929 . S
C904 C905 1.377 . S
C904 C906 1.384 . S
C905 C904 1.377 . S
C905 C911 1.390 . S
C906 H897 0.930 . S
C906 C904 1.384 . S
C906 C907 1.372 . S
C907 C906 1.372 . S
C907 C908 1.400 . S
C907 C912 1.490 . S
C908 H898 0.930 . S
C908 C907 1.400 . S
C908 C911 1.386 . S
H909 C925 0.930 . S
H910 C926 0.931 . S
C911 H899 0.929 . S
C911 C905 1.390 . S
C911 C908 1.386 . S
C912 C907 1.490 . S
C912 C914 1.395 . S
C912 C915 1.403 . S
H913 C919 0.930 . S
C914 H900 0.930 . S
C914 C912 1.395 . S
C914 C917 1.403 . S
C915 C912 1.403 . S
C915 C916 1.524 . S
C915 C919 1.400 . S
C916 H901 0.960 . S
C916 H902 0.960 . S
C916 H903 0.960 . S
C916 C915 1.524 . S
C917 C914 1.403 . S
C917 C918 1.392 . S
C917 C921 1.495 . S
C918 C917 1.392 . S
C918 C919 1.385 . S
C918 C920 1.478 . S
C919 H913 0.930 . S
C919 C915 1.400 . S
C919 C918 1.385 . S
C920 C918 1.478 . S
C920 C922 1.381 . S
C920 C926 1.383 . S
C921 C917 1.495 . S
C921 H927 0.959 . S
C921 H928 0.961 . S
C921 H929 0.960 . S
C922 C920 1.381 . S
C922 C923 1.394 . S
C922 H930 0.930 . S
C923 C922 1.394 . S
C923 C924 1.383 . S
C923 H931 0.929 . S
C924 C923 1.383 . S
C924 C925 1.377 . S
C925 H909 0.930 . S
C925 C924 1.377 . S
C925 C926 1.379 . S
C926 H910 0.931 . S
C926 C920 1.383 . S
C926 C925 1.379 . S
H927 C921 0.959 . S
H928 C921 0.961 . S
H929 C921 0.960 . S
H930 C922 0.930 . S
H931 C923 0.929 . S
H932 C940 0.929 . S
H933 C942 0.930 . S
H934 C944 0.930 . S
H935 C947 0.929 . S
H936 C950 0.930 . S
H937 C952 0.960 . S
H938 C952 0.960 . S
H939 C952 0.960 . S
C940 H932 0.929 . S
C940 C941 1.377 . S
C940 C942 1.384 . S
C941 C940 1.377 . S
C941 C947 1.390 . S
C942 H933 0.930 . S
C942 C940 1.384 . S
C942 C943 1.372 . S
C943 C942 1.372 . S
C943 C944 1.400 . S
C943 C948 1.490 . S
C944 H934 0.930 . S
C944 C943 1.400 . S
C944 C947 1.386 . S
H945 C961 0.930 . S
H946 C962 0.931 . S
C947 H935 0.929 . S
C947 C941 1.390 . S
C947 C944 1.386 . S
C948 C943 1.490 . S
C948 C950 1.395 . S
C948 C951 1.403 . S
H949 C955 0.930 . S
C950 H936 0.930 . S
C950 C948 1.395 . S
C950 C953 1.403 . S
C951 C948 1.403 . S
C951 C952 1.524 . S
C951 C955 1.400 . S
C952 H937 0.960 . S
C952 H938 0.960 . S
C952 H939 0.960 . S
C952 C951 1.524 . S
C953 C950 1.403 . S
C953 C954 1.392 . S
C953 C957 1.495 . S
C954 C953 1.392 . S
C954 C955 1.385 . S
C954 C956 1.478 . S
C955 H949 0.930 . S
C955 C951 1.400 . S
C955 C954 1.385 . S
C956 C954 1.478 . S
C956 C958 1.381 . S
C956 C962 1.383 . S
C957 C953 1.495 . S
C957 H963 0.959 . S
C957 H964 0.961 . S
C957 H965 0.960 . S
C958 C956 1.381 . S
C958 C959 1.394 . S
C958 H966 0.930 . S
C959 C958 1.394 . S
C959 C960 1.383 . S
C959 H967 0.929 . S
C960 C959 1.383 . S
C960 C961 1.377 . S
C961 H945 0.930 . S
C961 C960 1.377 . S
C961 C962 1.379 . S
C962 H946 0.931 . S
C962 C956 1.383 . S
C962 C961 1.379 . S
H963 C957 0.959 . S
H964 C957 0.961 . S
H965 C957 0.960 . S
H966 C958 0.930 . S
H967 C959 0.929 . S
H968 C976 0.929 . S
H969 C978 0.930 . S
H970 C980 0.930 . S
H971 C983 0.929 . S
H972 C986 0.930 . S
H973 C988 0.960 . S
H974 C988 0.960 . S
H975 C988 0.960 . S
C976 H968 0.929 . S
C976 C977 1.377 . S
C976 C978 1.384 . S
C977 C976 1.377 . S
C977 C983 1.390 . S
C978 H969 0.930 . S
C978 C976 1.384 . S
C978 C979 1.372 . S
C979 C978 1.372 . S
C979 C980 1.400 . S
C979 C984 1.490 . S
C980 H970 0.930 . S
C980 C979 1.400 . S
C980 C983 1.386 . S
H981 C997 0.930 . S
H982 C998 0.931 . S
C983 H971 0.929 . S
C983 C977 1.390 . S
C983 C980 1.386 . S
C984 C979 1.490 . S
C984 C986 1.395 . S
C984 C987 1.403 . S
H985 C991 0.930 . S
C986 H972 0.930 . S
C986 C984 1.395 . S
C986 C989 1.403 . S
C987 C984 1.403 . S
C987 C988 1.524 . S
C987 C991 1.400 . S
C988 H973 0.960 . S
C988 H974 0.960 . S
C988 H975 0.960 . S
C988 C987 1.524 . S
C989 C986 1.403 . S
C989 C990 1.392 . S
C989 C993 1.495 . S
C990 C989 1.392 . S
C990 C991 1.385 . S
C990 C992 1.478 . S
C991 H985 0.930 . S
C991 C987 1.400 . S
C991 C990 1.385 . S
C992 C990 1.478 . S
C992 C994 1.381 . S
C992 C998 1.383 . S
C993 C989 1.495 . S
C993 H999 0.959 . S
C993 H1000 0.961 . S
C993 H1001 0.960 . S
C994 C992 1.381 . S
C994 C995 1.394 . S
C994 H1002 0.930 . S
C995 C994 1.394 . S
C995 C996 1.383 . S
C995 H1003 0.929 . S
C996 C995 1.383 . S
C996 C997 1.377 . S
C997 H981 0.930 . S
C997 C996 1.377 . S
C997 C998 1.379 . S
C998 H982 0.931 . S
C998 C992 1.383 . S
C998 C997 1.379 . S
H999 C993 0.959 . S
H1000 C993 0.961 . S
H1001 C993 0.960 . S
H1002 C994 0.930 . S
H1003 C995 0.929 . S
H1004 C1012 0.929 . S
H1005 C1014 0.930 . S
H1006 C1016 0.930 . S
H1007 C1019 0.929 . S
H1008 C1022 0.930 . S
H1009 C1024 0.960 . S
H1010 C1024 0.960 . S
H1011 C1024 0.960 . S
C1012 H1004 0.929 . S
C1012 C1013 1.377 . S
C1012 C1014 1.384 . S
C1013 C1012 1.377 . S
C1013 C1019 1.390 . S
C1014 H1005 0.930 . S
C1014 C1012 1.384 . S
C1014 C1015 1.372 . S
C1015 C1014 1.372 . S
C1015 C1016 1.400 . S
C1015 C1020 1.490 . S
C1016 H1006 0.930 . S
C1016 C1015 1.400 . S
C1016 C1019 1.386 . S
H1017 C1033 0.930 . S
H1018 C1034 0.931 . S
C1019 H1007 0.929 . S
C1019 C1013 1.390 . S
C1019 C1016 1.386 . S
C1020 C1015 1.490 . S
C1020 C1022 1.395 . S
C1020 C1023 1.403 . S
H1021 C1027 0.930 . S
C1022 H1008 0.930 . S
C1022 C1020 1.395 . S
C1022 C1025 1.403 . S
C1023 C1020 1.403 . S
C1023 C1024 1.524 . S
C1023 C1027 1.400 . S
C1024 H1009 0.960 . S
C1024 H1010 0.960 . S
C1024 H1011 0.960 . S
C1024 C1023 1.524 . S
C1025 C1022 1.403 . S
C1025 C1026 1.392 . S
C1025 C1029 1.495 . S
C1026 C1025 1.392 . S
C1026 C1027 1.385 . S
C1026 C1028 1.478 . S
C1027 H1021 0.930 . S
C1027 C1023 1.400 . S
C1027 C1026 1.385 . S
C1028 C1026 1.478 . S
C1028 C1030 1.381 . S
C1028 C1034 1.383 . S
C1029 C1025 1.495 . S
C1029 H1035 0.959 . S
C1029 H1036 0.961 . S
C1029 H1037 0.960 . S
C1030 C1028 1.381 . S
C1030 C1031 1.394 . S
C1030 H1038 0.930 . S
C1031 C1030 1.394 . S
C1031 C1032 1.383 . S
C1031 H1039 0.929 . S
C1032 C1031 1.383 . S
C1032 C1033 1.377 . S
C1033 H1017 0.930 . S
C1033 C1032 1.377 . S
C1033 C1034 1.379 . S
C1034 H1018 0.931 . S
C1034 C1028 1.383 . S
C1034 C1033 1.379 . S
H1035 C1029 0.959 . S
H1036 C1029 0.961 . S
H1037 C1029 0.960 . S
H1038 C1030 0.930 . S
H1039 C1031 0.929 . S
C185 C45 1.561 . S
C204 C111 1.569 . S
C221 C30 1.561 . S
C240 C120 1.569 . S
C257 C39 1.557 . S
C276 C129 1.548 . S
C312 C138 1.574 . S
C293 C34 1.557 . S
C329 C97 1.555 . S
C348 C147 1.555 . S
C384 C156 1.568 . S
C365 C82 1.555 . S
C420 C165 1.548 . S
C401 C91 1.555 . S
C456 C174 1.560 . S
C437 C86 1.560 . S
C492 C163 1.451 . S
C473 C26 1.414 . S
C528 C171 1.447 . S
C509 C36 1.420 . S
C564 C144 1.441 . S
C545 C32 1.417 . S
C600 C153 1.461 . S
C581 C42 1.422 . S
C617 C18 1.492 . S
C636 C154 1.531 . S
C672 C162 1.544 . S
C653 C50 1.495 . S
C689 C4 1.492 . S
C708 C172 1.552 . S
C725 C48 1.484 . S
C744 C145 1.534 . S
C780 C127 1.461 . S
C761 C78 1.424 . S
C797 C88 1.422 . S
C816 C135 1.452 . S
C852 C108 1.465 . S
C833 C84 1.419 . S
C888 C117 1.464 . S
C869 C94 1.420 . S
C924 C118 1.536 . S
C905 C70 1.495 . S
C960 C126 1.521 . S
C941 C102 1.487 . S
C977 C56 1.493 . S
C996 C136 1.532 . S
C1013 C100 1.493 . S
C1032 C109 1.551 . S
