# Generated by pormake.
# Topology tsx, (6,3)-cn, num edge types: 1
# Building blocks:
#     Node 0, Type 0, BuildingBlock: VOLQOD_clean_sbu_1, # of connection points: 6
#     Node 1, Type 0, BuildingBlock: VOLQOD_clean_sbu_1, # of connection points: 6
#     Node 2, Type 1, BuildingBlock: VETTIZ_charged_linker_0, # of connection points: 3
#     Node 3, Type 1, BuildingBlock: VETTIZ_charged_linker_0, # of connection points: 3
#     Node 4, Type 1, BuildingBlock: VETTIZ_charged_linker_0, # of connection points: 3
#     Node 5, Type 1, BuildingBlock: VETTIZ_charged_linker_0, # of connection points: 3
#     Edge 6, Type (0, 1), BuildingBlock: FUNLAD_clean_linker_0, # of connection points: 2
#     Edge 7, Type (0, 1), BuildingBlock: FUNLAD_clean_linker_0, # of connection points: 2
#     Edge 8, Type (0, 1), BuildingBlock: FUNLAD_clean_linker_0, # of connection points: 2
#     Edge 9, Type (0, 1), BuildingBlock: FUNLAD_clean_linker_0, # of connection points: 2
#     Edge 10, Type (0, 1), BuildingBlock: FUNLAD_clean_linker_0, # of connection points: 2
#     Edge 11, Type (0, 1), BuildingBlock: FUNLAD_clean_linker_0, # of connection points: 2
#     Edge 12, Type (0, 1), BuildingBlock: FUNLAD_clean_linker_0, # of connection points: 2
#     Edge 13, Type (0, 1), BuildingBlock: FUNLAD_clean_linker_0, # of connection points: 2
#     Edge 14, Type (0, 1), BuildingBlock: FUNLAD_clean_linker_0, # of connection points: 2
#     Edge 15, Type (0, 1), BuildingBlock: FUNLAD_clean_linker_0, # of connection points: 2
#     Edge 16, Type (0, 1), BuildingBlock: FUNLAD_clean_linker_0, # of connection points: 2
#     Edge 17, Type (0, 1), BuildingBlock: FUNLAD_clean_linker_0, # of connection points: 2
# Relax obj value: 0.078
# Max RMSD: 0.110
# Mean RMSD: 0.086
data_MOF--net-tsx--node1-VOLQOD_clean_sbu_1--node2-VETTIZ_charged_linker_0--edge1-FUNLAD_clean_linker_0
_symmetry_space_group_name_H-M    P1
_symmetry_Int_Tables_number       1
_symmetry_cell_setting            triclinic
loop_
_symmetry_equiv_pos_as_xyz
'x, y, z'
_cell_length_a     27.933257
_cell_length_b     28.991936
_cell_length_c     55.530427
_cell_angle_alpha  90.160168
_cell_angle_beta   90.080473
_cell_angle_gamma 89.956212
loop_
_atom_site_label
_atom_site_type_symbol
_atom_site_fract_x
_atom_site_fract_y
_atom_site_fract_z
_atom_type_partial_charge
O0 O 0.04253 0.98882 0.06972 0.0
Zn1 Zn 0.06399 0.98991 0.03521 0.0
O2 O 0.01068 -9e-05 0.01305 0.0
Zn3 Zn 0.00436 0.94635 0.99169 0.0
Zn4 Zn 0.9523 0.00794 0.03188 0.0
Zn5 Zn 0.02207 0.05534 0.99378 0.0
O6 O 0.00838 0.96523 0.95686 0.0
O7 O 0.02244 0.04054 0.95816 0.0
O8 O 0.09673 0.92969 0.02879 0.0
O9 O 0.05678 0.89992 0.99787 0.0
O10 O 0.94087 0.91464 0.99642 0.0
O11 O 0.9044 0.95937 0.02325 0.0
O12 O 0.92154 0.06912 0.02548 0.0
O13 O 0.11331 0.03967 0.03161 0.0
O14 O 0.97037 0.10285 0.99942 0.0
O15 O 0.08526 0.08437 0.00239 0.0
C16 C 0.00218 0.99478 0.07987 0.0
C17 C 0.01601 0.00342 0.94625 0.0
C18 C 0.90453 0.92451 0.00927 0.0
C19 C 0.09037 0.89776 0.01337 0.0
C20 C 0.93271 0.10332 0.01234 0.0
C21 C 0.1174 0.07448 0.01783 0.0
O22 O 0.96463 0.00306 0.06759 0.0
O23 O 0.54246 0.49778 0.56975 0.0
Zn24 Zn 0.56271 0.49293 0.53514 0.0
O25 O 0.50838 0.49871 0.51321 0.0
Zn26 Zn 0.50237 0.44221 0.49405 0.0
Zn27 Zn 0.45022 0.50773 0.53208 0.0
Zn28 Zn 0.51811 0.55173 0.49191 0.0
O29 O 0.50266 0.45666 0.45863 0.0
O30 O 0.51722 0.53189 0.45701 0.0
O31 O 0.59635 0.43229 0.5309 0.0
O32 O 0.55724 0.39886 0.50071 0.0
O33 O 0.44092 0.40839 0.50142 0.0
O34 O 0.40417 0.45574 0.52683 0.0
O35 O 0.41686 0.56642 0.52298 0.0
O36 O 0.61119 0.54248 0.52889 0.0
O37 O 0.46497 0.59836 0.49597 0.0
O38 O 0.58104 0.58355 0.49878 0.0
C39 C 0.50226 0.50453 0.57992 0.0
C40 C 0.50968 0.49336 0.44658 0.0
C41 C 0.40514 0.41857 0.51461 0.0
C42 C 0.59092 0.39895 0.51621 0.0
C43 C 0.42698 0.59916 0.50864 0.0
C44 C 0.61414 0.57575 0.51405 0.0
O45 O 0.46411 0.50951 0.56763 0.0
C46 C 0.08398 0.88992 0.4518 0.0
C47 C 0.10885 0.85455 0.43979 0.0
C48 C 0.10406 0.85002 0.41464 0.0
C49 C 0.05134 0.91626 0.41369 0.0
C50 C 0.05517 0.92006 0.43845 0.0
C51 C 0.02528 0.95893 0.44834 0.0
H52 H 0.87827 0.13981 0.42673 0.0
C53 C 0.01936 0.95326 0.40513 0.0
C54 C 0.00357 0.97816 0.42537 0.0
H55 H 0.92664 0.09019 0.49594 0.0
H56 H 0.97075 0.02863 0.47622 0.0
H57 H 0.97981 0.12715 0.39897 0.0
H58 H 0.85239 0.04531 0.40563 0.0
H59 H 0.87358 0.03511 0.37637 0.0
H60 H 0.85582 0.09274 0.38505 0.0
H61 H 0.92357 0.1424 0.38549 0.0
H62 H 0.96586 0.10579 0.37017 0.0
C63 C 0.0592 0.99396 0.46072 0.0
C64 C 0.98677 0.93827 0.46523 0.0
C65 C 0.99308 0.97647 0.3152 0.0
C66 C 0.9655 0.00829 0.30196 0.0
C67 C 0.9371 0.04052 0.31458 0.0
C68 C 0.93714 0.04197 0.33976 0.0
C69 C 0.96569 0.01074 0.35267 0.0
C70 C 0.99243 0.9782 0.34043 0.0
C71 C 0.01928 0.94683 0.3573 0.0
C72 C 0.00489 0.96665 0.38163 0.0
C73 C 0.97389 0.00425 0.37871 0.0
C74 C 0.0735 0.95275 0.35243 0.0
C75 C 0.00044 0.89698 0.35368 0.0
C76 C 0.89899 0.11616 0.43767 0.0
C77 C 0.89976 0.12024 0.46285 0.0
C78 C 0.92578 0.08778 0.47647 0.0
C79 C 0.95134 0.05221 0.46498 0.0
C80 C 0.95046 0.04898 0.43966 0.0
C81 C 0.92426 0.08057 0.42654 0.0
C82 C 0.92595 0.07158 0.39995 0.0
C83 C 0.9578 0.02936 0.39909 0.0
C84 C 0.97237 0.01636 0.42233 0.0
C85 C 0.9497 0.11385 0.3878 0.0
C86 C 0.87439 0.06091 0.39108 0.0
H87 H 0.07374 0.87575 0.38241 0.0
H88 H 0.08655 0.89373 0.47117 0.0
H89 H 0.97528 0.90356 0.45887 0.0
H90 H 0.95353 0.95891 0.46568 0.0
H91 H 0.00068 0.93439 0.48387 0.0
H92 H 0.09219 -0.00104 0.44983 0.0
H93 H 0.07026 0.98161 0.47881 0.0
H94 H 0.04334 0.02862 0.46259 0.0
H95 H 0.01541 0.95125 0.30619 0.0
H96 H 0.91447 0.06464 0.30499 0.0
H97 H 0.91499 0.06756 0.34817 0.0
H98 H 0.08246 0.98978 0.34977 0.0
H99 H 0.08439 0.93376 0.33592 0.0
H100 H 0.09621 0.9413 0.36753 0.0
H101 H 0.96253 0.89691 0.34749 0.0
H102 H 2e-05 0.87695 0.3706 0.0
H103 H 0.02185 0.8781 0.33999 0.0
H104 H 0.12317 0.82314 0.40504 0.0
C105 C 0.07555 0.88072 0.40153 0.0
C106 C 0.07039 0.12025 0.57252 0.0
C107 C 0.09414 0.1565 0.58441 0.0
C108 C 0.09352 0.15823 0.60978 0.0
C109 C 0.04687 0.08795 0.61104 0.0
C110 C 0.0469 0.08659 0.58615 0.0
C111 C 0.01938 0.04604 0.57641 0.0
H112 H 0.88746 0.85502 0.5978 0.0
C113 C 0.02 0.04753 0.6198 0.0
C114 C 0.00363 0.02291 0.59959 0.0
H115 H 0.92387 0.91458 0.5289 0.0
H116 H 0.96846 0.97489 0.54895 0.0
H117 H 0.99175 0.86711 0.62164 0.0
H118 H 0.86366 0.94957 0.62409 0.0
H119 H 0.8876 0.94834 0.65335 0.0
H120 H 0.86891 0.89522 0.63928 0.0
H121 H 0.94069 0.85091 0.63926 0.0
H122 H 0.98672 0.88827 0.65117 0.0
C123 C 0.05436 0.01536 0.56182 0.0
C124 C 0.9763 0.06462 0.56168 0.0
C125 C 0.00426 0.01937 0.70983 0.0
C126 C 0.98248 0.98421 0.72339 0.0
C127 C 0.95929 0.94785 0.71109 0.0
C128 C 0.95755 0.94666 0.68588 0.0
C129 C 0.9793 0.98212 0.67263 0.0
C130 C 0.00235 0.01756 0.68462 0.0
C131 C 0.02403 0.05191 0.66756 0.0
C132 C 0.01005 0.03129 0.64338 0.0
C133 C 0.98377 0.99052 0.64648 0.0
C134 C 0.079 0.05165 0.67143 0.0
C135 C -0.00022 0.0993 0.67194 0.0
C136 C 0.90562 0.88065 0.58699 0.0
C137 C 0.90229 0.87993 0.56172 0.0
C138 C 0.9256 0.91458 0.54839 0.0
C139 C 0.95157 0.94949 0.56008 0.0
C140 C 0.9541 0.94992 0.58538 0.0
C141 C 0.93145 0.91576 0.59837 0.0
C142 C 0.93726 0.92199 0.62511 0.0
C143 C 0.96678 0.96581 0.62607 0.0
C144 C 0.97664 0.98194 0.60277 0.0
C145 C 0.96523 0.8799 0.63503 0.0
C146 C 0.8869 0.92886 0.63625 0.0
H147 H 0.07121 0.12733 0.64238 0.0
H148 H 0.06977 0.11832 0.55304 0.0
H149 H 0.96307 0.09787 0.56922 0.0
H150 H 0.94492 0.04148 0.56223 0.0
H151 H 0.98638 0.07078 0.54261 0.0
H152 H 0.08985 0.01349 0.5709 0.0
H153 H 0.0601 0.02947 0.54347 0.0
H154 H 0.04233 0.97923 0.56024 0.0
H155 H 0.02201 0.04806 0.71861 0.0
H156 H 0.94294 0.91985 0.72097 0.0
H157 H 0.93937 0.91806 0.67768 0.0
H158 H 0.09207 0.01619 0.67535 0.0
H159 H 0.08932 0.07404 0.68684 0.0
H160 H 0.09916 0.06242 0.65532 0.0
H161 H 0.9615 0.09494 0.67697 0.0
H162 H -0.001 0.12117 0.65569 0.0
H163 H 0.01767 0.11845 0.68678 0.0
H164 H 0.112 0.18554 0.61935 0.0
C165 C 0.07008 0.12419 0.62314 0.0
C166 C 0.60872 0.40772 0.94925 0.0
C167 C 0.63873 0.37611 0.93727 0.0
C168 C 0.6292 0.36504 0.913 0.0
C169 C 0.56353 0.41933 0.91237 0.0
C170 C 0.57137 0.42886 0.93646 0.0
C171 C 0.53671 0.46424 0.94605 0.0
H172 H 0.363 0.62084 0.92248 0.0
C173 C 0.52409 0.44886 0.90386 0.0
C174 C 0.50782 0.47508 0.92353 0.0
H175 H 0.42683 0.59034 0.99154 0.0
H176 H 0.47443 0.52951 0.97321 0.0
H177 H 0.45883 0.61482 0.89196 0.0
H178 H 0.34669 0.51761 0.90684 0.0
H179 H 0.36377 0.50785 0.87685 0.0
H180 H 0.33942 0.56325 0.88539 0.0
H181 H 0.40017 0.61902 0.87893 0.0
H182 H 0.44691 0.5856 0.86491 0.0
C183 C 0.56577 0.50643 0.95496 0.0
C184 C 0.50568 0.44126 0.96575 0.0
C185 C 0.48358 0.45283 0.81464 0.0
C186 C 0.45176 0.47989 0.80099 0.0
C187 C 0.42053 0.51038 0.81304 0.0
C188 C 0.42203 0.51495 0.83814 0.0
C189 C 0.45534 0.48901 0.85142 0.0
C190 C 0.48483 0.45803 0.8397 0.0
C191 C 0.51826 0.43373 0.85672 0.0
C192 C 0.50433 0.45572 0.88057 0.0
C193 C 0.46773 0.48816 0.87728 0.0
C194 C 0.57024 0.44594 0.84932 0.0
C195 C 0.50652 0.38147 0.85608 0.0
C196 C 0.38759 0.60137 0.93364 0.0
C197 C 0.39202 0.61081 0.95832 0.0
C198 C 0.4232 0.58376 0.97241 0.0
C199 C 0.45079 0.54867 0.96172 0.0
C200 C 0.44682 0.54058 0.93677 0.0
C201 C 0.41496 0.56636 0.92333 0.0
C202 C 0.41422 0.55281 0.89726 0.0
C203 C 0.45111 0.5146 0.89708 0.0
C204 C 0.47059 0.50782 0.92016 0.0
C205 C 0.43051 0.59509 0.88229 0.0
C206 C 0.36344 0.53469 0.89103 0.0
H207 H 0.58685 0.37673 0.88206 0.0
H208 H 0.61494 0.41679 0.96793 0.0
H209 H 0.49946 0.40417 0.96161 0.0
H210 H 0.46948 0.45647 0.96702 0.0
H211 H 0.52336 0.44328 0.98365 0.0
H212 H 0.5948 0.51487 0.942 0.0
H213 H 0.58266 0.49936 0.97269 0.0
H214 H 0.54412 0.53808 0.95651 0.0
H215 H 0.50756 0.42855 0.80599 0.0
H216 H 0.39596 0.53194 0.803 0.0
H217 H 0.39792 0.53935 0.84615 0.0
H218 H 0.57271 0.48258 0.84353 0.0
H219 H 0.5824 0.42408 0.83404 0.0
H220 H 0.59623 0.44283 0.86418 0.0
H221 H 0.46792 0.37549 0.85221 0.0
H222 H 0.51277 0.36441 0.8736 0.0
H223 H 0.52748 0.36342 0.84192 0.0
H224 H 0.65087 0.33984 0.90355 0.0
C225 C 0.59181 0.38634 0.90054 0.0
C226 C 0.60489 0.59674 0.06669 0.0
C227 C 0.63259 0.63219 0.07687 0.0
C228 C 0.63391 0.63736 0.10211 0.0
C229 C 0.58038 0.57241 0.10662 0.0
C230 C 0.57895 0.56752 0.08186 0.0
C231 C 0.54662 0.52889 0.07401 0.0
H232 H 0.39476 0.35704 0.10368 0.0
C233 C 0.54941 0.53662 0.11719 0.0
C234 C 0.52938 0.51113 0.09817 0.0
H235 H 0.43671 0.40155 0.03249 0.0
H236 H 0.48755 0.46005 0.0499 0.0
H237 H 0.49934 0.36136 0.12676 0.0
H238 H 0.38281 0.45861 0.12622 0.0
H239 H 0.40693 0.45797 0.15548 0.0
H240 H 0.38126 0.40599 0.14317 0.0
H241 H 0.4474 0.35418 0.14535 0.0
H242 H 0.49827 0.38764 0.15527 0.0
C243 C 0.57737 0.49263 0.0605 0.0
C244 C 0.50527 0.54975 0.05885 0.0
C245 C 0.53423 0.52394 0.20812 0.0
C246 C 0.50917 0.49351 0.22325 0.0
C247 C 0.48102 0.45845 0.21269 0.0
C248 C 0.47781 0.45384 0.18761 0.0
C249 C 0.50312 0.48449 0.17278 0.0
C250 C 0.53086 0.51869 0.1831 0.0
C251 C 0.55581 0.5477 0.16455 0.0
C252 C 0.53844 0.52526 0.14141 0.0
C253 C 0.50749 0.48838 0.14635 0.0
C254 C 0.61054 0.54181 0.16807 0.0
C255 C 0.53759 0.598 0.16711 0.0
C256 C 0.41532 0.37906 0.09185 0.0
C257 C 0.41184 0.37462 0.06668 0.0
C258 C 0.43849 0.40456 0.05192 0.0
C259 C 0.46814 0.43838 0.06208 0.0
C260 C 0.47109 0.44244 0.08728 0.0
C261 C 0.44497 0.41304 0.1017 0.0
C262 C 0.45225 0.42258 0.12809 0.0
C263 C 0.48687 0.46279 0.12713 0.0
C264 C 0.49777 0.47417 0.10319 0.0
C265 C 0.47519 0.37928 0.13969 0.0
C266 C 0.40339 0.43677 0.13904 0.0
H267 H 0.6106 0.61334 0.13608 0.0
H268 H 0.6028 0.59232 0.04734 0.0
H269 H 0.4963 0.58526 0.06505 0.0
H270 H 0.47143 0.53036 0.0606 0.0
H271 H 0.5151 0.55187 0.03951 0.0
H272 H 0.61312 0.48889 0.06915 0.0
H273 H 0.58326 0.50291 0.04147 0.0
H274 H 0.56171 0.4577 0.06085 0.0
H275 H 0.55574 0.55162 0.21552 0.0
H276 H 0.46192 0.43403 0.22383 0.0
H277 H 0.45586 0.42644 0.18074 0.0
H278 H 0.61943 0.5058 0.17334 0.0
H279 H 0.62412 0.56506 0.18246 0.0
H280 H 0.63117 0.54785 0.15144 0.0
H281 H 0.49933 0.59878 0.17265 0.0
H282 H 0.53855 0.61725 0.14998 0.0
H283 H 0.55843 0.61721 0.18092 0.0
H284 H 0.65546 0.66418 0.11034 0.0
C285 C 0.60803 0.60766 0.11703 0.0
C286 C 0.164 0.14511 0.00659 0.0
C287 C 0.15997 0.10448 0.02021 0.0
C288 C 0.20314 0.1745 0.00976 0.0
C289 C 0.23898 0.16388 0.0267 0.0
C290 C 0.23585 0.12243 0.03957 0.0
C291 C 0.19671 0.09315 0.03648 0.0
C292 C 0.27953 0.19534 0.03199 0.0
C293 C 0.27715 0.24139 0.02904 0.0
C294 C 0.31481 0.27356 0.03767 0.0
C295 C 0.31744 0.31781 0.02756 0.0
C296 C 0.34983 0.35033 0.03653 0.0
C297 C 0.3799 0.33932 0.05598 0.0
H298 H 0.34374 0.22927 0.06579 0.0
C299 C 0.37777 0.29486 0.06588 0.0
C300 C 0.3455 0.26238 0.05693 0.0
H301 H 0.40072 0.28531 0.0808 0.0
H302 H 0.13665 0.15457 0.99367 0.0
H303 H 0.20507 0.2053 0.99887 0.0
H304 H 0.26318 0.11322 0.05258 0.0
H305 H 0.19503 0.06191 0.0471 0.0
H306 H 0.31113 0.18004 0.04009 0.0
H307 H 0.24572 0.25677 0.02082 0.0
H308 H 0.29385 0.32751 0.01292 0.0
H309 H 0.35024 0.38452 0.02872 0.0
C310 C 0.12691 0.82992 0.99243 0.0
C311 C 0.12414 0.8585 0.01284 0.0
C312 C 0.16168 0.79546 0.99102 0.0
C313 C 0.19417 0.78869 0.01006 0.0
C314 C 0.18979 0.81544 0.03099 0.0
C315 C 0.15539 0.85041 0.03229 0.0
C316 C 0.23361 0.75481 0.00794 0.0
C317 C 0.25806 0.75041 0.98722 0.0
C318 C 0.29712 0.71675 0.98306 0.0
C319 C 0.32816 0.72468 0.9637 0.0
C320 C 0.36111 0.69123 0.95669 0.0
C321 C 0.3635 0.64884 0.96879 0.0
H322 H 0.27758 0.66775 0.01097 0.0
C323 C 0.33453 0.64171 0.98908 0.0
C324 C 0.30138 0.67538 0.99616 0.0
H325 H 0.33552 0.60913 0.99857 0.0
H326 H 0.10317 0.835 0.97723 0.0
H327 H 0.16346 0.77441 0.97489 0.0
H328 H 0.21412 0.81043 0.04596 0.0
H329 H 0.15377 0.87153 0.04839 0.0
H330 H 0.24431 0.73573 0.02386 0.0
H331 H 0.24942 0.77341 0.97239 0.0
H332 H 0.32582 0.75629 0.95339 0.0
H333 H 0.38353 0.6978 0.94117 0.0
C334 C 0.86447 0.84984 0.99843 0.0
C335 C 0.86219 0.89398 0.00891 0.0
C336 C 0.82594 0.81936 0.00051 0.0
C337 C 0.78442 0.83263 0.0131 0.0
C338 C 0.78106 0.87774 0.0221 0.0
C339 C 0.81958 0.90801 0.02019 0.0
C340 C 0.74535 0.79997 0.01892 0.0
C341 C 0.75249 0.75438 0.02176 0.0
C342 C 0.7175 0.72419 0.0341 0.0
C343 C 0.71783 0.67663 0.02933 0.0
C344 C 0.68905 0.64673 0.0427 0.0
C345 C 0.66014 0.66389 0.06137 0.0
H346 H 0.68742 0.77755 0.05725 0.0
C347 C 0.65918 0.71151 0.06587 0.0
C348 C 0.68757 0.74137 0.05243 0.0
H349 H 0.637 0.72562 0.08009 0.0
H350 H 0.89658 0.83823 0.98932 0.0
H351 H 0.82922 0.78536 0.9926 0.0
H352 H 0.74931 0.88901 0.03166 0.0
H353 H 0.81633 0.94205 0.02812 0.0
H354 H 0.71099 0.81481 0.02382 0.0
H355 H 0.78636 0.73884 0.01665 0.0
H356 H 0.74107 0.66249 0.01556 0.0
H357 H 0.69072 0.61005 0.03902 0.0
C358 C 0.91383 0.1842 -0.00038 0.0
C359 C 0.89976 0.14322 0.01101 0.0
C360 C 0.88121 0.22026 0.99646 0.0
C361 C 0.83344 0.21567 0.00425 0.0
C362 C 0.82028 0.1757 0.01681 0.0
C363 C 0.85302 0.13988 0.02018 0.0
C364 C 0.79559 0.25018 0.99857 0.0
C365 C 0.79912 0.28052 0.98031 0.0
C366 C 0.75846 0.30857 0.97107 0.0
C367 C 0.76246 0.32713 0.94785 0.0
C368 C 0.72402 0.35001 0.93722 0.0
C369 C 0.68048 0.35503 0.94958 0.0
H370 H 0.71139 0.30342 0.00223 0.0
C371 C 0.67702 0.33863 0.9733 0.0
C372 C 0.71567 0.31571 0.984 0.0
H373 H 0.644 0.34227 0.98333 0.0
H374 H 0.9499 0.18823 0.9928 0.0
H375 H 0.89371 0.25119 0.98767 0.0
H376 H 0.78399 0.17136 0.02328 0.0
H377 H 0.84107 0.10892 0.02923 0.0
H378 H 0.76196 0.24667 0.00811 0.0
H379 H 0.83177 0.2817 0.9698 0.0
H380 H 0.79508 0.32282 0.93754 0.0
H381 H 0.72827 0.36336 0.91915 0.0
C382 C 0.65826 0.64731 0.50159 0.0
C383 C 0.65658 0.6063 0.51502 0.0
C384 C 0.69735 0.67721 0.50368 0.0
C385 C 0.73558 0.6666 0.51927 0.0
C386 C 0.73471 0.62474 0.53187 0.0
C387 C 0.69561 0.59506 0.52991 0.0
C388 C 0.77629 0.6985 0.5236 0.0
C389 C 0.77287 0.74468 0.52141 0.0
C390 C 0.81039 0.77723 0.52999 0.0
C391 C 0.81 0.82277 0.52142 0.0
C392 C 0.84118 0.85579 0.53101 0.0
C393 C 0.87309 0.84401 0.54958 0.0
H394 H 0.84433 0.731 0.55578 0.0
C395 C 0.87453 0.79817 0.55766 0.0
C396 C 0.84347 0.76519 0.54809 0.0
H397 H 0.89901 0.78798 0.57184 0.0
H398 H 0.62903 0.65674 0.48974 0.0
H399 H 0.69737 0.70842 0.49306 0.0
H400 H 0.76383 0.6155 0.54384 0.0
H401 H 0.69582 0.56352 0.54032 0.0
H402 H 0.80894 0.68332 0.53062 0.0
H403 H 0.74035 0.75986 0.51422 0.0
H404 H 0.78466 0.83314 0.50767 0.0
H405 H 0.83886 0.89096 0.52458 0.0
C406 C 0.63133 0.3325 0.49596 0.0
C407 C 0.62601 0.36079 0.51635 0.0
C408 C 0.66737 0.29922 0.49515 0.0
C409 C 0.69848 0.29322 0.51481 0.0
C410 C 0.69165 0.31965 0.53569 0.0
C411 C 0.65607 0.35361 0.53636 0.0
C412 C 0.73895 0.2604 0.51332 0.0
C413 C 0.76612 0.25838 0.49339 0.0
C414 C 0.80547 0.22495 0.48945 0.0
C415 C 0.83966 0.23526 0.47183 0.0
C416 C 0.87262 0.20208 0.46445 0.0
C417 C 0.87173 0.15758 0.47436 0.0
H418 H 0.78033 0.17204 0.51405 0.0
C419 C 0.83966 0.148 0.49315 0.0
C420 C 0.80662 0.18142 0.50064 0.0
H421 H 0.83803 0.11383 0.50096 0.0
H422 H 0.60864 0.337 0.48031 0.0
H423 H 0.67124 0.27846 0.47902 0.0
H424 H 0.71497 0.31522 0.55112 0.0
H425 H 0.65249 0.3746 0.55243 0.0
H426 H 0.74768 0.23974 0.529 0.0
H427 H 0.7592 0.28287 0.47898 0.0
H428 H 0.8397 0.26858 0.46302 0.0
H429 H 0.89748 0.2106 0.45018 0.0
C430 C 0.32459 0.39748 0.53078 0.0
C431 C 0.36461 0.38591 0.51669 0.0
C432 C 0.2878 0.36575 0.53437 0.0
C433 C 0.28991 0.32162 0.52378 0.0
C434 C 0.32946 0.31037 0.50931 0.0
C435 C 0.36633 0.34221 0.50568 0.0
C436 C 0.25403 0.28531 0.5293 0.0
C437 C 0.2096 0.29458 0.53742 0.0
C438 C 0.17731 0.25878 0.54739 0.0
C439 C 0.14464 0.27179 0.56535 0.0
C440 C 0.1168 0.23872 0.57697 0.0
C441 C 0.12056 0.19195 0.57063 0.0
H442 H 0.20313 0.20106 0.52593 0.0
C443 C 0.15134 0.17913 0.55176 0.0
C444 C 0.17951 0.21221 0.54023 0.0
H445 H 0.15482 0.1433 0.54644 0.0
H446 H 0.32211 0.43076 0.53961 0.0
H447 H 0.25897 0.37556 0.5463 0.0
H448 H 0.33226 0.2765 0.50112 0.0
H449 H 0.39668 0.33212 0.49475 0.0
H450 H 0.26595 0.24978 0.52777 0.0
H451 H 0.19757 0.33008 0.53881 0.0
H452 H 0.14183 0.30749 0.57102 0.0
H453 H 0.09272 0.24968 0.59116 0.0
C454 C 0.34658 0.63479 0.51592 0.0
C455 C 0.39252 0.63756 0.50569 0.0
C456 C 0.31249 0.66893 0.5114 0.0
C457 C 0.32368 0.70664 0.49659 0.0
C458 C 0.37025 0.71071 0.48742 0.0
C459 C 0.40427 0.67633 0.49174 0.0
C460 C 0.28717 0.74137 0.48975 0.0
C461 C 0.24095 0.73007 0.48619 0.0
C462 C 0.20563 0.76259 0.47583 0.0
C463 C 0.16959 0.74518 0.46073 0.0
C464 C 0.13762 0.77502 0.44931 0.0
C465 C 0.14051 0.8228 0.4532 0.0
H466 H 0.23427 0.82468 0.49239 0.0
C467 C 0.17517 0.84015 0.46918 0.0
C468 C 0.20763 0.81032 0.48034 0.0
H469 H 0.17803 0.87689 0.47249 0.0
H470 H 0.33644 0.60565 0.52695 0.0
H471 H 0.27731 0.66551 0.51936 0.0
H472 H 0.37986 0.73972 0.47616 0.0
H473 H 0.43947 0.67977 0.48379 0.0
H474 H 0.29961 0.77567 0.48502 0.0
H475 H 0.22968 0.69448 0.48846 0.0
H476 H 0.16704 0.70849 0.45717 0.0
H477 H 0.11082 0.76078 0.43729 0.0
C478 C 0.95757 0.00633 0.1186 0.0
C479 C -0.00113 0.99137 0.10642 0.0
C480 C 0.95464 0.00317 0.14367 0.0
C481 C 0.99291 0.98475 0.15706 0.0
C482 C 0.03368 0.96891 0.14486 0.0
C483 C 0.03687 0.97257 0.11983 0.0
C484 C 0.99105 0.98091 0.18367 0.0
C485 C 0.96784 0.01172 0.19758 0.0
C486 C 0.96796 0.00965 0.22426 0.0
C487 C 0.96473 0.05092 0.23736 0.0
C488 C 0.96453 0.05045 0.26249 0.0
C489 C 0.96655 0.00852 0.27515 0.0
H490 H 0.97119 0.93503 0.22723 0.0
C491 C 0.96925 0.96706 0.26198 0.0
C492 C 0.97003 0.9676 0.2368 0.0
H493 H 0.96988 0.93409 0.27109 0.0
H494 H 0.92753 0.02069 0.1088 0.0
H495 H 0.92212 0.01456 0.15245 0.0
H496 H 0.06345 0.95422 0.15475 0.0
H497 H 0.06902 0.9603 0.111 0.0
H498 H 0.01222 0.9539 0.19206 0.0
H499 H 0.95086 0.04142 0.18926 0.0
H500 H 0.96301 0.08375 0.22812 0.0
H501 H 0.96328 0.08312 0.27196 0.0
C502 C 0.00494 0.96512 0.90605 0.0
C503 C 0.01671 0.00466 0.91953 0.0
C504 C 0.00466 0.96635 0.88089 0.0
C505 C 0.01607 0.00725 0.86859 0.0
C506 C 0.02884 0.04645 0.88203 0.0
C507 C 0.02885 0.04533 0.90721 0.0
C508 C 0.01621 0.00974 0.84184 0.0
C509 C 0.98769 0.98332 0.8279 0.0
C510 C 0.98706 0.98547 0.80114 0.0
C511 C 0.94576 0.971 0.78886 0.0
C512 C 0.94407 0.97112 0.76371 0.0
C513 C 0.98398 0.98518 0.75019 0.0
H514 H 0.06008 0.00968 0.79643 0.0
C515 C 0.02547 -0.00046 0.76249 0.0
C516 C 0.02706 -0.00036 0.78767 0.0
H517 H 0.05719 0.0097 0.75266 0.0
H518 H 0.99578 0.93308 0.91491 0.0
H519 H 0.99617 0.93497 0.87119 0.0
H520 H 0.0383 0.07826 0.87301 0.0
H521 H 0.0384 0.07636 0.917 0.0
H522 H 0.03863 0.03585 0.83359 0.0
H523 H 0.96193 0.96051 0.83637 0.0
H524 H 0.9145 0.95973 0.79876 0.0
H525 H 0.91129 0.96045 0.75489 0.0
C526 C 0.45516 0.50739 0.61832 0.0
C527 C 0.49964 0.5051 0.60655 0.0
C528 C 0.45264 0.50598 0.64344 0.0
C529 C 0.49463 0.50214 0.65732 0.0
C530 C 0.53906 0.50113 0.64558 0.0
C531 C 0.54159 0.50231 0.62048 0.0
C532 C 0.49381 0.50006 0.68402 0.0
C533 C 0.45638 0.48391 0.69675 0.0
C534 C 0.45616 0.48134 0.72347 0.0
C535 C 0.41211 0.48172 0.7356 0.0
C536 C 0.41048 0.4805 0.76074 0.0
C537 C 0.45298 0.47841 0.77428 0.0
H538 H 0.53328 0.47568 0.72841 0.0
C539 C 0.49701 0.47661 0.76211 0.0
C540 C 0.49864 0.47782 0.73701 0.0
H541 H 0.53044 0.47522 0.772 0.0
H542 H 0.42215 0.50995 0.60815 0.0
H543 H 0.41779 0.50849 0.65181 0.0
H544 H 0.57198 0.4987 0.65585 0.0
H545 H 0.57649 0.50078 0.61203 0.0
H546 H 0.52591 0.51141 0.69332 0.0
H547 H 0.4242 0.47271 0.68746 0.0
H548 H 0.37882 0.48371 0.72561 0.0
H549 H 0.37594 0.4812 0.76958 0.0
C550 C 0.52059 0.52974 0.40596 0.0
C551 C 0.5079 0.49125 0.41992 0.0
C552 C 0.51784 0.52791 0.38082 0.0
C553 C 0.50228 0.48749 0.36911 0.0
C554 C 0.4893 0.44923 0.38306 0.0
C555 C 0.49241 0.45091 0.40815 0.0
C556 C 0.49727 0.48454 0.34253 0.0
C557 C 0.52396 0.50943 0.32713 0.0
C558 C 0.5192 0.50535 0.30057 0.0
C559 C 0.5593 0.51376 0.28605 0.0
C560 C 0.55614 0.50983 0.26101 0.0
C561 C 0.51252 0.49806 0.24989 0.0
H562 H 0.44328 0.48912 0.30005 0.0
C563 C 0.4721 0.49065 0.26444 0.0
C564 C 0.47536 0.49425 0.28949 0.0
H565 H 0.43767 0.48268 0.25648 0.0
H566 H 0.5324 0.56145 0.41443 0.0
H567 H 0.52689 0.55854 0.37071 0.0
H568 H 0.47683 0.41781 0.37451 0.0
H569 H 0.48206 0.42069 0.41832 0.0
H570 H 0.47241 0.45906 0.33545 0.0
H571 H 0.55222 0.53151 0.33406 0.0
H572 H 0.59341 0.52267 0.29413 0.0
H573 H 0.58813 0.51533 0.25041 0.0
loop_
_geom_bond_atom_site_label_1
_geom_bond_atom_site_label_2
_geom_bond_distance
_geom_bond_site_symmetry_2
_ccdc_geom_bond_type
O0 Zn1 1.953 . S
O0 C16 1.225 1_565 S
Zn1 O0 1.953 . S
Zn1 O2 1.949 1_565 S
Zn1 O8 1.919 . S
Zn1 O13 1.924 1_565 S
O2 Zn1 1.949 1_545 S
O2 Zn3 1.923 1_444 S
O2 Zn4 1.950 1_455 S
O2 Zn5 1.945 1_554 S
Zn3 O2 1.923 1_666 S
Zn3 O6 1.933 . S
Zn3 O9 1.941 1_655 S
Zn3 O10 1.976 . S
Zn4 O2 1.950 1_655 S
Zn4 O11 1.938 1_545 S
Zn4 O12 1.906 . S
Zn4 O22 1.953 . S
Zn5 O2 1.945 1_556 S
Zn5 O7 1.932 . S
Zn5 O14 1.977 1_455 S
Zn5 O15 1.910 1_556 S
O6 Zn3 1.933 . S
O6 C17 1.226 1_665 S
O7 Zn5 1.932 . S
O7 C17 1.307 . S
O8 Zn1 1.919 . S
O8 C19 1.253 . S
O9 Zn3 1.941 1_455 S
O9 C19 1.283 1_556 S
O10 Zn3 1.976 . S
O10 C18 1.269 1_556 S
O11 Zn4 1.938 1_565 S
O11 C18 1.247 . S
O12 Zn4 1.906 . S
O12 C20 1.304 . S
O13 Zn1 1.924 1_545 S
O13 C21 1.311 . S
O14 Zn5 1.977 1_655 S
O14 C20 1.272 1_556 S
O15 Zn5 1.910 1_554 S
O15 C21 1.231 . S
C16 O0 1.225 1_545 S
C16 O22 1.298 1_455 S
C17 O6 1.226 1_445 S
C17 O7 1.307 . S
C18 O10 1.269 1_554 S
C18 O11 1.247 . S
C19 O8 1.253 . S
C19 O9 1.283 1_554 S
C20 O12 1.304 . S
C20 O14 1.272 1_554 S
C21 O13 1.311 . S
C21 O15 1.231 . S
O22 Zn4 1.953 . S
O22 C16 1.298 1_655 S
O23 Zn24 1.953 . S
O23 C39 1.225 . S
Zn24 O23 1.953 . S
Zn24 O25 1.949 . S
Zn24 O31 1.919 . S
Zn24 O36 1.924 . S
O25 Zn24 1.949 . S
O25 Zn26 1.923 . S
O25 Zn27 1.950 . S
O25 Zn28 1.945 . S
Zn26 O25 1.923 . S
Zn26 O29 1.933 . S
Zn26 O32 1.941 . S
Zn26 O33 1.965 . S
Zn27 O25 1.950 . S
Zn27 O34 1.938 . S
Zn27 O35 1.906 . S
Zn27 O45 1.953 . S
Zn28 O25 1.945 . S
Zn28 O30 1.932 . S
Zn28 O37 1.977 . S
Zn28 O38 1.910 . S
O29 Zn26 1.933 . S
O29 C40 1.226 . S
O30 Zn28 1.932 . S
O30 C40 1.307 . S
O31 Zn24 1.919 . S
O31 C42 1.253 . S
O32 Zn26 1.941 . S
O32 C42 1.283 . S
O33 Zn26 1.965 . S
O33 C41 1.303 . S
O34 Zn27 1.938 . S
O34 C41 1.247 . S
O35 Zn27 1.906 . S
O35 C43 1.304 . S
O36 Zn24 1.924 . S
O36 C44 1.311 . S
O37 Zn28 1.977 . S
O37 C43 1.272 . S
O38 Zn28 1.910 . S
O38 C44 1.231 . S
C39 O23 1.225 . S
C39 O45 1.298 . S
C40 O29 1.226 . S
C40 O30 1.307 . S
C41 O33 1.303 . S
C41 O34 1.247 . S
C42 O31 1.253 . S
C42 O32 1.283 . S
C43 O35 1.304 . S
C43 O37 1.272 . S
C44 O36 1.311 . S
C44 O38 1.231 . S
O45 Zn27 1.953 . S
O45 C39 1.298 . S
C46 C47 1.391 . S
C46 C50 1.391 . S
C46 H88 0.948 . S
C47 C46 1.391 . S
C47 C48 1.391 . S
C48 C47 1.391 . S
C48 H104 0.947 . S
C48 C105 1.392 . S
C49 C50 1.391 . S
C49 C53 1.397 . S
C49 C105 1.419 . S
C50 C46 1.391 . S
C50 C49 1.391 . S
C50 C51 1.399 . S
C51 C50 1.399 . S
C51 C54 1.396 . S
C51 C63 1.453 1_565 S
C51 C64 1.684 1_455 S
H52 C76 0.948 . S
C53 C49 1.397 . S
C53 C54 1.394 . S
C53 C72 1.723 . S
C54 C51 1.396 . S
C54 C53 1.394 . S
C54 C84 1.723 1_465 S
H55 C78 0.947 . S
H56 C79 0.948 . S
H57 C85 0.982 . S
H58 C86 0.979 . S
H59 C86 0.980 . S
H60 C86 0.983 . S
H61 C85 0.979 . S
H62 C85 0.977 . S
C63 C51 1.453 1_545 S
C63 H92 0.982 . S
C63 H93 0.979 1_545 S
C63 H94 0.977 . S
C64 C51 1.684 1_655 S
C64 H89 0.979 . S
C64 H90 0.980 . S
C64 H91 0.983 1_655 S
C65 C66 1.391 1_465 S
C65 C70 1.391 . S
C65 H95 0.948 . S
C66 C65 1.391 1_645 S
C66 C67 1.391 . S
C67 C66 1.391 . S
C67 C68 1.392 . S
C67 H96 0.947 . S
C68 C67 1.392 . S
C68 C69 1.419 . S
C68 H97 0.948 . S
C69 C68 1.419 . S
C69 C70 1.391 1_645 S
C69 C73 1.397 . S
C70 C65 1.391 . S
C70 C69 1.391 1_465 S
C70 C71 1.399 . S
C71 C70 1.399 . S
C71 C72 1.396 . S
C71 C74 1.453 . S
C71 C75 1.684 . S
C72 C53 1.723 . S
C72 C71 1.396 . S
C72 C73 1.394 1_465 S
C73 C69 1.397 . S
C73 C72 1.394 1_645 S
C73 C83 1.723 . S
C74 C71 1.453 . S
C74 H98 0.982 . S
C74 H99 0.979 . S
C74 H100 0.977 . S
C75 C71 1.684 . S
C75 H101 0.979 . S
C75 H102 0.980 . S
C75 H103 0.983 . S
C76 H52 0.948 . S
C76 C77 1.391 . S
C76 C81 1.391 . S
C77 C76 1.391 . S
C77 C78 1.391 . S
C78 H55 0.947 . S
C78 C77 1.391 . S
C78 C79 1.392 . S
C79 H56 0.948 . S
C79 C78 1.392 . S
C79 C80 1.419 . S
C80 C79 1.419 . S
C80 C81 1.391 . S
C80 C84 1.397 . S
C81 C76 1.391 . S
C81 C80 1.391 . S
C81 C82 1.399 . S
C82 C81 1.399 . S
C82 C83 1.396 . S
C82 C85 1.453 . S
C82 C86 1.684 . S
C83 C73 1.723 . S
C83 C82 1.396 . S
C83 C84 1.394 . S
C84 C54 1.723 1_645 S
C84 C80 1.397 . S
C84 C83 1.394 . S
C85 H57 0.982 . S
C85 H61 0.979 . S
C85 H62 0.977 . S
C85 C82 1.453 . S
C86 H58 0.979 . S
C86 H59 0.980 . S
C86 H60 0.983 . S
C86 C82 1.684 . S
H87 C105 0.948 . S
H88 C46 0.948 . S
H89 C64 0.979 . S
H90 C64 0.980 . S
H91 C64 0.983 1_455 S
H92 C63 0.982 . S
H93 C63 0.979 1_565 S
H94 C63 0.977 . S
H95 C65 0.948 . S
H96 C67 0.947 . S
H97 C68 0.948 . S
H98 C74 0.982 . S
H99 C74 0.979 . S
H100 C74 0.977 . S
H101 C75 0.979 . S
H102 C75 0.980 . S
H103 C75 0.983 . S
H104 C48 0.947 . S
C105 C48 1.392 . S
C105 C49 1.419 . S
C105 H87 0.948 . S
C106 C107 1.391 . S
C106 C110 1.391 . S
C106 H148 0.948 . S
C107 C106 1.391 . S
C107 C108 1.391 . S
C108 C107 1.391 . S
C108 H164 0.947 . S
C108 C165 1.392 . S
C109 C110 1.391 . S
C109 C113 1.397 . S
C109 C165 1.419 . S
C110 C106 1.391 . S
C110 C109 1.391 . S
C110 C111 1.399 . S
C111 C110 1.399 . S
C111 C114 1.396 . S
C111 C123 1.461 . S
C111 C124 1.684 . S
H112 C136 0.948 . S
C113 C109 1.397 . S
C113 C114 1.394 . S
C113 C132 1.723 . S
C114 C111 1.396 . S
C114 C113 1.394 . S
C114 C144 1.723 1_445 S
H115 C138 0.947 . S
H116 C139 0.948 . S
H117 C145 0.982 . S
H118 C146 0.979 . S
H119 C146 0.980 . S
H120 C146 0.983 . S
H121 C145 0.979 . S
H122 C145 0.977 . S
C123 C111 1.461 . S
C123 H152 0.977 1_545 S
C123 H153 0.983 . S
C123 H154 0.969 1_545 S
C124 C111 1.684 . S
C124 H149 0.979 1_455 S
C124 H150 0.980 1_455 S
C124 H151 0.983 . S
C125 C126 1.391 . S
C125 C130 1.391 . S
C125 H155 0.948 . S
C126 C125 1.391 . S
C126 C127 1.391 1_445 S
C127 C126 1.391 1_665 S
C127 C128 1.392 . S
C127 H156 0.947 . S
C128 C127 1.392 . S
C128 C129 1.419 1_655 S
C128 H157 0.948 . S
C129 C128 1.419 1_455 S
C129 C130 1.391 1_565 S
C129 C133 1.397 . S
C130 C125 1.391 . S
C130 C129 1.391 1_545 S
C130 C131 1.399 . S
C131 C130 1.399 . S
C131 C132 1.396 . S
C131 C134 1.453 . S
C131 C135 1.684 . S
C132 C113 1.723 . S
C132 C131 1.396 . S
C132 C133 1.394 1_545 S
C133 C129 1.397 . S
C133 C132 1.394 1_565 S
C133 C143 1.723 1_455 S
C134 C131 1.453 . S
C134 H158 0.982 . S
C134 H159 0.979 . S
C134 H160 0.977 . S
C135 C131 1.684 . S
C135 H161 0.979 . S
C135 H162 0.980 . S
C135 H163 0.983 . S
C136 H112 0.948 . S
C136 C137 1.391 . S
C136 C141 1.391 . S
C137 C136 1.391 . S
C137 C138 1.391 . S
C138 H115 0.947 . S
C138 C137 1.391 . S
C138 C139 1.392 . S
C139 H116 0.948 . S
C139 C138 1.392 . S
C139 C140 1.419 . S
C140 C139 1.419 . S
C140 C141 1.391 . S
C140 C144 1.397 . S
C141 C136 1.391 . S
C141 C140 1.391 . S
C141 C142 1.399 . S
C142 C141 1.399 . S
C142 C143 1.396 . S
C142 C145 1.453 . S
C142 C146 1.684 . S
C143 C133 1.723 1_655 S
C143 C142 1.396 . S
C143 C144 1.394 . S
C144 C114 1.723 1_665 S
C144 C140 1.397 . S
C144 C143 1.394 . S
C145 H117 0.982 . S
C145 H121 0.979 . S
C145 H122 0.977 . S
C145 C142 1.453 . S
C146 H118 0.979 . S
C146 H119 0.980 . S
C146 H120 0.983 . S
C146 C142 1.684 . S
H147 C165 0.948 . S
H148 C106 0.948 . S
H149 C124 0.979 1_655 S
H150 C124 0.980 1_655 S
H151 C124 0.983 . S
H152 C123 0.977 1_565 S
H153 C123 0.983 . S
H154 C123 0.969 1_565 S
H155 C125 0.948 . S
H156 C127 0.947 . S
H157 C128 0.948 . S
H158 C134 0.982 . S
H159 C134 0.979 . S
H160 C134 0.977 . S
H161 C135 0.979 . S
H162 C135 0.980 . S
H163 C135 0.983 . S
H164 C108 0.947 . S
C165 C108 1.392 . S
C165 C109 1.419 . S
C165 H147 0.948 . S
C166 C167 1.391 . S
C166 C170 1.391 . S
C166 H208 0.948 . S
C167 C166 1.391 . S
C167 C168 1.391 . S
C168 C167 1.391 . S
C168 H224 0.947 . S
C168 C225 1.392 . S
C169 C170 1.391 . S
C169 C173 1.397 . S
C169 C225 1.419 . S
C170 C166 1.391 . S
C170 C169 1.391 . S
C170 C171 1.399 . S
C171 C170 1.399 . S
C171 C174 1.396 . S
C171 C183 1.453 . S
C171 C184 1.684 . S
H172 C196 0.948 . S
C173 C169 1.397 . S
C173 C174 1.394 . S
C173 C192 1.723 . S
C174 C171 1.396 . S
C174 C173 1.394 . S
C174 C204 1.723 . S
H175 C198 0.947 . S
H176 C199 0.948 . S
H177 C205 0.982 . S
H178 C206 0.979 . S
H179 C206 0.980 . S
H180 C206 0.983 . S
H181 C205 0.979 . S
H182 C205 0.977 . S
C183 C171 1.453 . S
C183 H212 0.982 . S
C183 H213 0.979 . S
C183 H214 0.977 . S
C184 C171 1.684 . S
C184 H209 0.979 . S
C184 H210 0.980 . S
C184 H211 0.983 . S
C185 C186 1.391 . S
C185 C190 1.391 . S
C185 H215 0.948 . S
C186 C185 1.391 . S
C186 C187 1.391 . S
C187 C186 1.391 . S
C187 C188 1.392 . S
C187 H216 0.947 . S
C188 C187 1.392 . S
C188 C189 1.419 . S
C188 H217 0.948 . S
C189 C188 1.419 . S
C189 C190 1.391 . S
C189 C193 1.397 . S
C190 C185 1.391 . S
C190 C189 1.391 . S
C190 C191 1.399 . S
C191 C190 1.399 . S
C191 C192 1.396 . S
C191 C194 1.453 . S
C191 C195 1.684 . S
C192 C173 1.723 . S
C192 C191 1.396 . S
C192 C193 1.394 . S
C193 C189 1.397 . S
C193 C192 1.394 . S
C193 C203 1.723 . S
C194 C191 1.453 . S
C194 H218 0.982 . S
C194 H219 0.979 . S
C194 H220 0.977 . S
C195 C191 1.684 . S
C195 H221 0.979 . S
C195 H222 0.980 . S
C195 H223 0.983 . S
C196 H172 0.948 . S
C196 C197 1.391 . S
C196 C201 1.391 . S
C197 C196 1.391 . S
C197 C198 1.391 . S
C198 H175 0.947 . S
C198 C197 1.391 . S
C198 C199 1.392 . S
C199 H176 0.948 . S
C199 C198 1.392 . S
C199 C200 1.419 . S
C200 C199 1.419 . S
C200 C201 1.391 . S
C200 C204 1.397 . S
C201 C196 1.391 . S
C201 C200 1.391 . S
C201 C202 1.399 . S
C202 C201 1.399 . S
C202 C203 1.396 . S
C202 C205 1.453 . S
C202 C206 1.684 . S
C203 C193 1.723 . S
C203 C202 1.396 . S
C203 C204 1.394 . S
C204 C174 1.723 . S
C204 C200 1.397 . S
C204 C203 1.394 . S
C205 H177 0.982 . S
C205 H181 0.979 . S
C205 H182 0.977 . S
C205 C202 1.453 . S
C206 H178 0.979 . S
C206 H179 0.980 . S
C206 H180 0.983 . S
C206 C202 1.684 . S
H207 C225 0.948 . S
H208 C166 0.948 . S
H209 C184 0.979 . S
H210 C184 0.980 . S
H211 C184 0.983 . S
H212 C183 0.982 . S
H213 C183 0.979 . S
H214 C183 0.977 . S
H215 C185 0.948 . S
H216 C187 0.947 . S
H217 C188 0.948 . S
H218 C194 0.982 . S
H219 C194 0.979 . S
H220 C194 0.977 . S
H221 C195 0.979 . S
H222 C195 0.980 . S
H223 C195 0.983 . S
H224 C168 0.947 . S
C225 C168 1.392 . S
C225 C169 1.419 . S
C225 H207 0.948 . S
C226 C227 1.391 . S
C226 C230 1.391 . S
C226 H268 0.948 . S
C227 C226 1.391 . S
C227 C228 1.391 . S
C228 C227 1.391 . S
C228 H284 0.947 . S
C228 C285 1.392 . S
C229 C230 1.391 . S
C229 C233 1.397 . S
C229 C285 1.419 . S
C230 C226 1.391 . S
C230 C229 1.391 . S
C230 C231 1.399 . S
C231 C230 1.399 . S
C231 C234 1.396 . S
C231 C243 1.453 . S
C231 C244 1.684 . S
H232 C256 0.948 . S
C233 C229 1.397 . S
C233 C234 1.394 . S
C233 C252 1.723 . S
C234 C231 1.396 . S
C234 C233 1.394 . S
C234 C264 1.723 . S
H235 C258 0.947 . S
H236 C259 0.948 . S
H237 C265 0.982 . S
H238 C266 0.979 . S
H239 C266 0.980 . S
H240 C266 0.983 . S
H241 C265 0.979 . S
H242 C265 0.977 . S
C243 C231 1.453 . S
C243 H272 0.982 . S
C243 H273 0.979 . S
C243 H274 0.977 . S
C244 C231 1.684 . S
C244 H269 0.979 . S
C244 H270 0.980 . S
C244 H271 0.983 . S
C245 C246 1.391 . S
C245 C250 1.391 . S
C245 H275 0.948 . S
C246 C245 1.391 . S
C246 C247 1.391 . S
C247 C246 1.391 . S
C247 C248 1.392 . S
C247 H276 0.947 . S
C248 C247 1.392 . S
C248 C249 1.419 . S
C248 H277 0.948 . S
C249 C248 1.419 . S
C249 C250 1.391 . S
C249 C253 1.397 . S
C250 C245 1.391 . S
C250 C249 1.391 . S
C250 C251 1.399 . S
C251 C250 1.399 . S
C251 C252 1.396 . S
C251 C254 1.453 . S
C251 C255 1.684 . S
C252 C233 1.723 . S
C252 C251 1.396 . S
C252 C253 1.394 . S
C253 C249 1.397 . S
C253 C252 1.394 . S
C253 C263 1.723 . S
C254 C251 1.453 . S
C254 H278 0.982 . S
C254 H279 0.979 . S
C254 H280 0.977 . S
C255 C251 1.684 . S
C255 H281 0.979 . S
C255 H282 0.980 . S
C255 H283 0.983 . S
C256 H232 0.948 . S
C256 C257 1.391 . S
C256 C261 1.391 . S
C257 C256 1.391 . S
C257 C258 1.391 . S
C258 H235 0.947 . S
C258 C257 1.391 . S
C258 C259 1.392 . S
C259 H236 0.948 . S
C259 C258 1.392 . S
C259 C260 1.419 . S
C260 C259 1.419 . S
C260 C261 1.391 . S
C260 C264 1.397 . S
C261 C256 1.391 . S
C261 C260 1.391 . S
C261 C262 1.399 . S
C262 C261 1.399 . S
C262 C263 1.396 . S
C262 C265 1.453 . S
C262 C266 1.684 . S
C263 C253 1.723 . S
C263 C262 1.396 . S
C263 C264 1.394 . S
C264 C234 1.723 . S
C264 C260 1.397 . S
C264 C263 1.394 . S
C265 H237 0.982 . S
C265 H241 0.979 . S
C265 H242 0.977 . S
C265 C262 1.453 . S
C266 H238 0.979 . S
C266 H239 0.980 . S
C266 H240 0.983 . S
C266 C262 1.684 . S
H267 C285 0.948 . S
H268 C226 0.948 . S
H269 C244 0.979 . S
H270 C244 0.980 . S
H271 C244 0.983 . S
H272 C243 0.982 . S
H273 C243 0.979 . S
H274 C243 0.977 . S
H275 C245 0.948 . S
H276 C247 0.947 . S
H277 C248 0.948 . S
H278 C254 0.982 . S
H279 C254 0.979 . S
H280 C254 0.977 . S
H281 C255 0.979 . S
H282 C255 0.980 . S
H283 C255 0.983 . S
H284 C228 0.947 . S
C285 C228 1.392 . S
C285 C229 1.419 . S
C285 H267 0.948 . S
C286 C287 1.386 . S
C286 C288 1.383 . S
C286 H302 0.933 1_554 S
C287 C286 1.386 . S
C287 C291 1.383 . S
C288 C286 1.383 . S
C288 C289 1.402 . S
C288 H303 0.951 . S
C289 C288 1.402 . S
C289 C290 1.375 . S
C289 C292 1.481 . S
C290 C289 1.375 . S
C290 C291 1.367 . S
C290 H304 0.951 . S
C291 C287 1.383 . S
C291 C290 1.367 . S
C291 H305 0.950 . S
C292 C289 1.481 . S
C292 C293 1.297 . S
C292 H306 0.950 . S
C293 C292 1.297 . S
C293 C294 1.479 . S
C293 H307 0.950 . S
C294 C293 1.479 . S
C294 C295 1.375 . S
C294 C300 1.404 . S
C295 C294 1.375 . S
C295 C296 1.369 . S
C295 H308 0.950 . S
C296 C295 1.369 . S
C296 C297 1.392 . S
C296 H309 0.951 . S
C297 C296 1.392 . S
C297 C299 1.384 . S
H298 C300 0.949 . S
C299 C297 1.384 . S
C299 C300 1.385 . S
C299 H301 0.950 . S
C300 C294 1.404 . S
C300 H298 0.949 . S
C300 C299 1.385 . S
H301 C299 0.950 . S
H302 C286 0.933 1_556 S
H303 C288 0.951 . S
H304 C290 0.951 . S
H305 C291 0.950 . S
H306 C292 0.950 . S
H307 C293 0.950 . S
H308 C295 0.950 . S
H309 C296 0.951 . S
C310 C311 1.386 . S
C310 C312 1.383 . S
C310 H326 0.951 . S
C311 C310 1.386 . S
C311 C315 1.383 1_556 S
C312 C310 1.383 . S
C312 C313 1.402 . S
C312 H327 0.951 . S
C313 C312 1.402 . S
C313 C314 1.375 1_556 S
C313 C316 1.481 . S
C314 C313 1.375 1_554 S
C314 C315 1.367 . S
C314 H328 0.951 . S
C315 C311 1.383 1_554 S
C315 C314 1.367 . S
C315 H329 0.950 . S
C316 C313 1.481 . S
C316 C317 1.297 . S
C316 H330 0.950 1_556 S
C317 C316 1.297 . S
C317 C318 1.479 . S
C317 H331 0.950 . S
C318 C317 1.479 . S
C318 C319 1.375 . S
C318 C324 1.404 . S
C319 C318 1.375 . S
C319 C320 1.369 . S
C319 H332 0.950 . S
C320 C319 1.369 . S
C320 C321 1.392 . S
C320 H333 0.951 . S
C321 C320 1.392 . S
C321 C323 1.384 . S
H322 C324 0.949 1_554 S
C323 C321 1.384 . S
C323 C324 1.385 . S
C323 H325 0.950 . S
C324 C318 1.404 . S
C324 H322 0.949 1_556 S
C324 C323 1.385 . S
H325 C323 0.950 . S
H326 C310 0.951 . S
H327 C312 0.951 . S
H328 C314 0.951 . S
H329 C315 0.950 . S
H330 C316 0.950 1_554 S
H331 C317 0.950 . S
H332 C319 0.950 . S
H333 C320 0.951 . S
C334 C335 1.386 . S
C334 C336 1.383 . S
C334 H350 0.951 1_554 S
C335 C334 1.386 . S
C335 C339 1.383 . S
C336 C334 1.383 . S
C336 C337 1.402 . S
C336 H351 0.951 . S
C337 C336 1.402 . S
C337 C338 1.375 . S
C337 C340 1.481 . S
C338 C337 1.375 . S
C338 C339 1.367 . S
C338 H352 0.951 . S
C339 C335 1.383 . S
C339 C338 1.367 . S
C339 H353 0.950 . S
C340 C337 1.481 . S
C340 C341 1.297 . S
C340 H354 0.950 . S
C341 C340 1.297 . S
C341 C342 1.479 . S
C341 H355 0.950 . S
C342 C341 1.479 . S
C342 C343 1.375 . S
C342 C348 1.404 . S
C343 C342 1.375 . S
C343 C344 1.369 . S
C343 H356 0.950 . S
C344 C343 1.369 . S
C344 C345 1.392 . S
C344 H357 0.951 . S
C345 C344 1.392 . S
C345 C347 1.384 . S
H346 C348 0.949 . S
C347 C345 1.384 . S
C347 C348 1.385 . S
C347 H349 0.950 . S
C348 C342 1.404 . S
C348 H346 0.949 . S
C348 C347 1.385 . S
H349 C347 0.950 . S
H350 C334 0.951 1_556 S
H351 C336 0.951 . S
H352 C338 0.951 . S
H353 C339 0.950 . S
H354 C340 0.950 . S
H355 C341 0.950 . S
H356 C343 0.950 . S
H357 C344 0.951 . S
C358 C359 1.386 . S
C358 C360 1.383 . S
C358 H374 0.951 . S
C359 C358 1.386 . S
C359 C363 1.383 1_556 S
C360 C358 1.383 . S
C360 C361 1.402 . S
C360 H375 0.951 . S
C361 C360 1.402 . S
C361 C362 1.375 1_556 S
C361 C364 1.481 . S
C362 C361 1.375 1_554 S
C362 C363 1.367 . S
C362 H376 0.951 . S
C363 C359 1.383 1_554 S
C363 C362 1.367 . S
C363 H377 0.950 . S
C364 C361 1.481 . S
C364 C365 1.297 . S
C364 H378 0.950 . S
C365 C364 1.297 . S
C365 C366 1.479 . S
C365 H379 0.950 . S
C366 C365 1.479 . S
C366 C367 1.375 . S
C366 C372 1.404 . S
C367 C366 1.375 . S
C367 C368 1.369 . S
C367 H380 0.950 . S
C368 C367 1.369 . S
C368 C369 1.392 . S
C368 H381 0.951 . S
C369 C368 1.392 . S
C369 C371 1.384 . S
H370 C372 0.949 . S
C371 C369 1.384 . S
C371 C372 1.385 . S
C371 H373 0.950 . S
C372 C366 1.404 . S
C372 H370 0.949 . S
C372 C371 1.385 . S
H373 C371 0.950 . S
H374 C358 0.951 . S
H375 C360 0.951 . S
H376 C362 0.951 . S
H377 C363 0.950 . S
H378 C364 0.950 . S
H379 C365 0.950 . S
H380 C367 0.950 . S
H381 C368 0.951 . S
C382 C383 1.386 . S
C382 C384 1.383 . S
C382 H398 0.951 . S
C383 C382 1.386 . S
C383 C387 1.383 . S
C384 C382 1.383 . S
C384 C385 1.402 . S
C384 H399 0.951 . S
C385 C384 1.402 . S
C385 C386 1.375 . S
C385 C388 1.481 . S
C386 C385 1.375 . S
C386 C387 1.367 . S
C386 H400 0.951 . S
C387 C383 1.383 . S
C387 C386 1.367 . S
C387 H401 0.950 . S
C388 C385 1.481 . S
C388 C389 1.297 . S
C388 H402 0.950 . S
C389 C388 1.297 . S
C389 C390 1.479 . S
C389 H403 0.950 . S
C390 C389 1.479 . S
C390 C391 1.375 . S
C390 C396 1.404 . S
C391 C390 1.375 . S
C391 C392 1.369 . S
C391 H404 0.950 . S
C392 C391 1.369 . S
C392 C393 1.392 . S
C392 H405 0.951 . S
C393 C392 1.392 . S
C393 C395 1.384 . S
H394 C396 0.949 . S
C395 C393 1.384 . S
C395 C396 1.385 . S
C395 H397 0.950 . S
C396 C390 1.404 . S
C396 H394 0.949 . S
C396 C395 1.385 . S
H397 C395 0.950 . S
H398 C382 0.951 . S
H399 C384 0.951 . S
H400 C386 0.951 . S
H401 C387 0.950 . S
H402 C388 0.950 . S
H403 C389 0.950 . S
H404 C391 0.950 . S
H405 C392 0.951 . S
C406 C407 1.386 . S
C406 C408 1.383 . S
C406 H422 0.951 . S
C407 C406 1.386 . S
C407 C411 1.383 . S
C408 C406 1.383 . S
C408 C409 1.402 . S
C408 H423 0.951 . S
C409 C408 1.402 . S
C409 C410 1.375 . S
C409 C412 1.481 . S
C410 C409 1.375 . S
C410 C411 1.367 . S
C410 H424 0.951 . S
C411 C407 1.383 . S
C411 C410 1.367 . S
C411 H425 0.950 . S
C412 C409 1.481 . S
C412 C413 1.297 . S
C412 H426 0.950 . S
C413 C412 1.297 . S
C413 C414 1.479 . S
C413 H427 0.950 . S
C414 C413 1.479 . S
C414 C415 1.375 . S
C414 C420 1.404 . S
C415 C414 1.375 . S
C415 C416 1.369 . S
C415 H428 0.950 . S
C416 C415 1.369 . S
C416 C417 1.392 . S
C416 H429 0.951 . S
C417 C416 1.392 . S
C417 C419 1.384 . S
H418 C420 0.949 . S
C419 C417 1.384 . S
C419 C420 1.385 . S
C419 H421 0.950 . S
C420 C414 1.404 . S
C420 H418 0.949 . S
C420 C419 1.385 . S
H421 C419 0.950 . S
H422 C406 0.951 . S
H423 C408 0.951 . S
H424 C410 0.951 . S
H425 C411 0.950 . S
H426 C412 0.950 . S
H427 C413 0.950 . S
H428 C415 0.950 . S
H429 C416 0.951 . S
C430 C431 1.386 . S
C430 C432 1.383 . S
C430 H446 0.951 . S
C431 C430 1.386 . S
C431 C435 1.383 . S
C432 C430 1.383 . S
C432 C433 1.402 . S
C432 H447 0.951 . S
C433 C432 1.402 . S
C433 C434 1.375 . S
C433 C436 1.481 . S
C434 C433 1.375 . S
C434 C435 1.367 . S
C434 H448 0.951 . S
C435 C431 1.383 . S
C435 C434 1.367 . S
C435 H449 0.950 . S
C436 C433 1.481 . S
C436 C437 1.297 . S
C436 H450 0.950 . S
C437 C436 1.297 . S
C437 C438 1.479 . S
C437 H451 0.950 . S
C438 C437 1.479 . S
C438 C439 1.375 . S
C438 C444 1.404 . S
C439 C438 1.375 . S
C439 C440 1.369 . S
C439 H452 0.950 . S
C440 C439 1.369 . S
C440 C441 1.392 . S
C440 H453 0.951 . S
C441 C440 1.392 . S
C441 C443 1.384 . S
H442 C444 0.949 . S
C443 C441 1.384 . S
C443 C444 1.385 . S
C443 H445 0.950 . S
C444 C438 1.404 . S
C444 H442 0.949 . S
C444 C443 1.385 . S
H445 C443 0.950 . S
H446 C430 0.951 . S
H447 C432 0.951 . S
H448 C434 0.951 . S
H449 C435 0.950 . S
H450 C436 0.950 . S
H451 C437 0.950 . S
H452 C439 0.950 . S
H453 C440 0.951 . S
C454 C455 1.386 . S
C454 C456 1.383 . S
C454 H470 0.951 . S
C455 C454 1.386 . S
C455 C459 1.383 . S
C456 C454 1.383 . S
C456 C457 1.402 . S
C456 H471 0.951 . S
C457 C456 1.402 . S
C457 C458 1.375 . S
C457 C460 1.481 . S
C458 C457 1.375 . S
C458 C459 1.367 . S
C458 H472 0.951 . S
C459 C455 1.383 . S
C459 C458 1.367 . S
C459 H473 0.950 . S
C460 C457 1.481 . S
C460 C461 1.297 . S
C460 H474 0.950 . S
C461 C460 1.297 . S
C461 C462 1.479 . S
C461 H475 0.950 . S
C462 C461 1.479 . S
C462 C463 1.375 . S
C462 C468 1.404 . S
C463 C462 1.375 . S
C463 C464 1.369 . S
C463 H476 0.950 . S
C464 C463 1.369 . S
C464 C465 1.392 . S
C464 H477 0.951 . S
C465 C464 1.392 . S
C465 C467 1.384 . S
H466 C468 0.949 . S
C467 C465 1.384 . S
C467 C468 1.385 . S
C467 H469 0.950 . S
C468 C462 1.404 . S
C468 H466 0.949 . S
C468 C467 1.385 . S
H469 C467 0.950 . S
H470 C454 0.951 . S
H471 C456 0.951 . S
H472 C458 0.951 . S
H473 C459 0.950 . S
H474 C460 0.950 . S
H475 C461 0.950 . S
H476 C463 0.950 . S
H477 C464 0.951 . S
C478 C479 1.386 1_655 S
C478 C480 1.383 . S
C478 H494 0.951 . S
C479 C478 1.386 1_455 S
C479 C483 1.383 1_545 S
C480 C478 1.383 . S
C480 C481 1.402 1_545 S
C480 H495 0.951 . S
C481 C480 1.402 1_565 S
C481 C482 1.375 1_655 S
C481 C484 1.481 . S
C482 C481 1.375 1_455 S
C482 C483 1.367 . S
C482 H496 0.951 . S
C483 C479 1.383 1_565 S
C483 C482 1.367 . S
C483 H497 0.950 . S
C484 C481 1.481 . S
C484 C485 1.297 1_565 S
C484 H498 0.950 1_655 S
C485 C484 1.297 1_545 S
C485 C486 1.479 . S
C485 H499 0.950 . S
C486 C485 1.479 . S
C486 C487 1.375 . S
C486 C492 1.404 1_545 S
C487 C486 1.375 . S
C487 C488 1.369 . S
C487 H500 0.950 . S
C488 C487 1.369 . S
C488 C489 1.373 1_545 S
C488 H501 0.951 . S
C489 C488 1.373 1_565 S
C489 C491 1.404 . S
H490 C492 0.949 . S
C491 C489 1.404 . S
C491 C492 1.385 . S
C491 H493 0.950 1_655 S
C492 C486 1.404 1_565 S
C492 H490 0.949 . S
C492 C491 1.385 . S
H493 C491 0.950 1_455 S
H494 C478 0.951 . S
H495 C480 0.951 . S
H496 C482 0.951 . S
H497 C483 0.950 . S
H498 C484 0.950 1_455 S
H499 C485 0.950 . S
H500 C487 0.950 . S
H501 C488 0.951 . S
C502 C503 1.386 1_655 S
C502 C504 1.383 . S
C502 H518 0.951 . S
C503 C502 1.386 1_455 S
C503 C507 1.383 1_545 S
C504 C502 1.383 . S
C504 C505 1.402 1_655 S
C504 H519 0.951 . S
C505 C504 1.402 1_455 S
C505 C506 1.375 1_545 S
C505 C508 1.481 . S
C506 C505 1.375 1_565 S
C506 C507 1.367 . S
C506 H520 0.951 . S
C507 C503 1.383 1_565 S
C507 C506 1.367 . S
C507 H521 0.950 . S
C508 C505 1.481 . S
C508 C509 1.297 . S
C508 H522 0.950 . S
C509 C508 1.297 . S
C509 C510 1.479 . S
C509 H523 0.950 1_455 S
C510 C509 1.479 . S
C510 C511 1.375 1_455 S
C510 C516 1.404 . S
C511 C510 1.375 1_655 S
C511 C512 1.369 . S
C511 H524 0.950 . S
C512 C511 1.369 . S
C512 C513 1.392 1_655 S
C512 H525 0.951 . S
C513 C512 1.392 1_455 S
C513 C515 1.384 . S
H514 C516 0.949 . S
C515 C513 1.384 . S
C515 C516 1.385 . S
C515 H517 0.950 1_545 S
C516 C510 1.404 . S
C516 H514 0.949 . S
C516 C515 1.385 . S
H517 C515 0.950 1_565 S
H518 C502 0.951 . S
H519 C504 0.951 . S
H520 C506 0.951 . S
H521 C507 0.950 . S
H522 C508 0.950 . S
H523 C509 0.950 1_655 S
H524 C511 0.950 . S
H525 C512 0.951 . S
C526 C527 1.386 . S
C526 C528 1.383 . S
C526 H542 0.951 . S
C527 C526 1.386 . S
C527 C531 1.383 . S
C528 C526 1.383 . S
C528 C529 1.402 . S
C528 H543 0.951 . S
C529 C528 1.402 . S
C529 C530 1.375 . S
C529 C532 1.481 . S
C530 C529 1.375 . S
C530 C531 1.367 . S
C530 H544 0.951 . S
C531 C527 1.383 . S
C531 C530 1.367 . S
C531 H545 0.950 . S
C532 C529 1.481 . S
C532 C533 1.297 . S
C532 H546 0.950 . S
C533 C532 1.297 . S
C533 C534 1.479 . S
C533 H547 0.950 . S
C534 C533 1.479 . S
C534 C535 1.375 . S
C534 C540 1.404 . S
C535 C534 1.375 . S
C535 C536 1.369 . S
C535 H548 0.950 . S
C536 C535 1.369 . S
C536 C537 1.392 . S
C536 H549 0.951 . S
C537 C536 1.392 . S
C537 C539 1.384 . S
H538 C540 0.949 . S
C539 C537 1.384 . S
C539 C540 1.385 . S
C539 H541 0.950 . S
C540 C534 1.404 . S
C540 H538 0.949 . S
C540 C539 1.385 . S
H541 C539 0.950 . S
H542 C526 0.951 . S
H543 C528 0.951 . S
H544 C530 0.951 . S
H545 C531 0.950 . S
H546 C532 0.950 . S
H547 C533 0.950 . S
H548 C535 0.950 . S
H549 C536 0.951 . S
C550 C551 1.386 . S
C550 C552 1.383 . S
C550 H566 0.951 . S
C551 C550 1.386 . S
C551 C555 1.383 . S
C552 C550 1.383 . S
C552 C553 1.402 . S
C552 H567 0.951 . S
C553 C552 1.402 . S
C553 C554 1.375 . S
C553 C556 1.481 . S
C554 C553 1.375 . S
C554 C555 1.367 . S
C554 H568 0.951 . S
C555 C551 1.383 . S
C555 C554 1.367 . S
C555 H569 0.950 . S
C556 C553 1.481 . S
C556 C557 1.297 . S
C556 H570 0.950 . S
C557 C556 1.297 . S
C557 C558 1.479 . S
C557 H571 0.950 . S
C558 C557 1.479 . S
C558 C559 1.375 . S
C558 C564 1.404 . S
C559 C558 1.375 . S
C559 C560 1.369 . S
C559 H572 0.950 . S
C560 C559 1.369 . S
C560 C561 1.392 . S
C560 H573 0.951 . S
C561 C560 1.392 . S
C561 C563 1.384 . S
H562 C564 0.949 . S
C563 C561 1.384 . S
C563 C564 1.385 . S
C563 H565 0.950 . S
C564 C558 1.404 . S
C564 H562 0.949 . S
C564 C563 1.385 . S
H565 C563 0.950 . S
H566 C550 0.951 . S
H567 C552 0.951 . S
H568 C554 0.951 . S
H569 C555 0.950 . S
H570 C556 0.950 . S
H571 C557 0.950 . S
H572 C559 0.950 . S
H573 C560 0.951 . S
C297 C257 1.402 . S
C287 C21 1.437 . S
C311 C19 1.401 1_556 S
C321 C197 1.428 . S
C335 C18 1.396 . S
C345 C227 1.332 . S
C359 C20 1.413 1_556 S
C369 C167 1.301 . S
C383 C44 1.432 . S
C393 C137 1.411 . S
C407 C42 1.403 . S
C417 C77 1.428 . S
C441 C107 1.372 . S
C431 C41 1.385 . S
C465 C47 1.373 . S
C455 C43 1.397 . S
C479 C16 1.485 . S
C489 C66 1.427 1_565 S
C503 C17 1.452 . S
C513 C126 1.432 . S
C537 C186 1.454 . S
C527 C39 1.484 . S
C551 C40 1.444 . S
C561 C246 1.421 . S
