# Generated by pormake.
# Topology sit, (3,6)-cn, num edge types: 1
# Building blocks:
#     Node 0, Type 0, BuildingBlock: BELTOD_clean_linker_0, # of connection points: 3
#     Node 1, Type 0, BuildingBlock: BELTOD_clean_linker_0, # of connection points: 3
#     Node 2, Type 0, BuildingBlock: BELTOD_clean_linker_0, # of connection points: 3
#     Node 3, Type 0, BuildingBlock: BELTOD_clean_linker_0, # of connection points: 3
#     Node 4, Type 1, BuildingBlock: MIDCAF_clean_sbu_0, # of connection points: 6
#     Node 5, Type 1, BuildingBlock: MIDCAF_clean_sbu_0, # of connection points: 6
#     Edge 6, Type (0, 1), BuildingBlock: TEMPAE_clean_linker_10, # of connection points: 2
#     Edge 7, Type (0, 1), BuildingBlock: TEMPAE_clean_linker_10, # of connection points: 2
#     Edge 8, Type (0, 1), BuildingBlock: TEMPAE_clean_linker_10, # of connection points: 2
#     Edge 9, Type (0, 1), BuildingBlock: TEMPAE_clean_linker_10, # of connection points: 2
#     Edge 10, Type (0, 1), BuildingBlock: TEMPAE_clean_linker_10, # of connection points: 2
#     Edge 11, Type (0, 1), BuildingBlock: TEMPAE_clean_linker_10, # of connection points: 2
#     Edge 12, Type (0, 1), BuildingBlock: TEMPAE_clean_linker_10, # of connection points: 2
#     Edge 13, Type (0, 1), BuildingBlock: TEMPAE_clean_linker_10, # of connection points: 2
#     Edge 14, Type (0, 1), BuildingBlock: TEMPAE_clean_linker_10, # of connection points: 2
#     Edge 15, Type (0, 1), BuildingBlock: TEMPAE_clean_linker_10, # of connection points: 2
#     Edge 16, Type (0, 1), BuildingBlock: TEMPAE_clean_linker_10, # of connection points: 2
#     Edge 17, Type (0, 1), BuildingBlock: TEMPAE_clean_linker_10, # of connection points: 2
# Relax obj value: 0.105
# Max RMSD: 0.192
# Mean RMSD: 0.101
data_MOF--net-sit--node1-MIDCAF_clean_sbu_0--node2-BELTOD_clean_linker_0--edge1-TEMPAE_clean_linker_10
_symmetry_space_group_name_H-M    P1
_symmetry_Int_Tables_number       1
_symmetry_cell_setting            triclinic
loop_
_symmetry_equiv_pos_as_xyz
'x, y, z'
_cell_length_a     26.426966
_cell_length_b     36.283402
_cell_length_c     40.348645
_cell_angle_alpha  89.719305
_cell_angle_beta   90.10421
_cell_angle_gamma 83.789244
loop_
_atom_site_label
_atom_site_type_symbol
_atom_site_fract_x
_atom_site_fract_y
_atom_site_fract_z
_atom_type_partial_charge
P0 P 0.08987 0.24335 0.96774 0.0
H1 H 0.19919 0.23798 0.95509 0.0
H2 H 0.25857 0.28495 0.95083 0.0
H3 H 0.13959 0.36879 0.98206 0.0
H4 H 0.08218 0.3217 0.98842 0.0
H5 H 0.07467 0.16526 0.97517 0.0
H6 H 0.07503 0.12407 0.02328 0.0
H7 H 0.10372 0.21512 0.08695 0.0
H8 H 0.10527 0.2556 0.03852 0.0
H9 H 0.04001 0.27516 0.90868 0.0
H10 H 0.00902 0.27275 0.01355 0.0
O11 O 0.10364 0.21751 0.93416 0.0
H12 H 0.96906 0.32341 0.90098 0.0
H13 H 0.93815 0.32145 0.00599 0.0
C14 C 0.13581 0.27637 0.97103 0.0
C15 C 0.18631 0.26636 0.96161 0.0
C16 C 0.22 0.29338 0.95886 0.0
C17 C 0.20346 0.33096 0.96514 0.0
C18 C 0.15378 0.34028 0.97692 0.0
C19 C 0.12051 0.31317 0.9802 0.0
C20 C 0.09073 0.21328 0.00331 0.0
C21 C 0.08158 0.1762 -0.00051 0.0
C22 C 0.08143 0.15273 0.02706 0.0
C23 C 0.08979 0.16612 0.05903 0.0
C24 C 0.09837 0.20356 0.06266 0.0
C25 C 0.09893 0.22688 0.03503 0.0
C26 C 0.02908 0.26977 0.96153 0.0
C27 C 0.01688 0.28412 0.92988 0.0
C28 C 0.97669 0.31196 0.92556 0.0
C29 C 0.94857 0.32635 0.95297 0.0
C30 C 0.95968 0.31106 0.98454 0.0
C31 C -0.00043 0.28281 0.98877 0.0
P32 P 0.02543 0.67643 0.11137 0.0
H33 H 0.13289 0.65369 0.12549 0.0
H34 H 0.20481 0.63216 0.08973 0.0
H35 H 0.10791 0.6513 0.00361 0.0
H36 H 0.03636 0.67257 0.03939 0.0
H37 H -0.00886 0.71968 0.16888 0.0
H38 H 0.97843 0.78572 0.17967 0.0
H39 H 0.0226 0.80825 0.079 0.0
H40 H 0.037 0.7413 0.06881 0.0
H41 H 8e-05 0.60237 0.09723 0.0
H42 H 0.93235 0.71471 0.08135 0.0
O43 O 0.0352 0.65446 0.14764 0.0
H44 H 0.93192 0.57933 0.06463 0.0
H45 H 0.86488 0.69201 0.04858 0.0
C46 C 0.07924 0.66402 0.08508 0.0
C47 C 0.12726 0.65334 0.09891 0.0
C48 C 0.16827 0.64114 0.07848 0.0
C49 C 0.16169 0.63955 0.04394 0.0
C50 C 0.11378 0.65144 0.03018 0.0
C51 C 0.07297 0.66379 0.0506 0.0
C52 C 0.01616 0.72561 0.11837 0.0
C53 C -0.00172 0.73875 0.14913 0.0
C54 C -0.00983 0.77672 0.15504 0.0
C55 C -0.00114 0.80255 0.13004 0.0
C56 C 0.01579 0.78921 0.09884 0.0
C57 C 0.02419 0.75097 0.09302 0.0
C58 C 0.97096 0.66014 0.09196 0.0
C59 C 0.97006 0.62199 0.08721 0.0
C60 C 0.93146 0.60891 0.06838 0.0
C61 C 0.89317 0.63389 0.05406 0.0
C62 C 0.8935 0.67208 0.05969 0.0
C63 C 0.93221 0.68511 0.07839 0.0
P64 P 0.61547 0.74309 0.46891 0.0
H65 H 0.72619 0.73607 0.46161 0.0
H66 H 0.78708 0.78211 0.46182 0.0
H67 H 0.66703 0.86628 0.49098 0.0
H68 H 0.60788 0.81956 0.49336 0.0
H69 H 0.6063 0.66398 0.47809 0.0
H70 H 0.59854 0.62569 0.52754 0.0
H71 H 0.59782 0.72322 0.58871 0.0
H72 H 0.60678 0.76104 0.53925 0.0
H73 H 0.59498 0.79509 0.41498 0.0
H74 H 0.51141 0.75465 0.49687 0.0
O75 O 0.63455 0.71572 0.43719 0.0
H76 H 0.52418 0.84276 0.40347 0.0
H77 H 0.43978 0.8017 0.48461 0.0
C78 C 0.66224 0.7747 0.47622 0.0
C79 C 0.71339 0.76428 0.46874 0.0
C80 C 0.74796 0.7908 0.46853 0.0
C81 C 0.73164 0.82833 0.47522 0.0
C82 C 0.68114 0.83785 0.4855 0.0
C83 C 0.64697 0.8111 0.48648 0.0
C84 C 0.60794 0.71521 0.50514 0.0
C85 C 0.60468 0.67705 0.50218 0.0
C86 C 0.59995 0.65521 0.53044 0.0
C87 C 0.59815 0.6713 0.56211 0.0
C88 C 0.60031 0.70979 0.56477 0.0
C89 C 0.60514 0.73152 0.53653 0.0
C90 C 0.55838 0.77136 0.45671 0.0
C91 C 0.5609 0.79592 0.42996 0.0
C92 C 0.52085 0.82332 0.42361 0.0
C93 C 0.4772 0.82595 0.44347 0.0
C94 C 0.47342 0.80013 0.46916 0.0
C95 C 0.5141 0.77317 0.476 0.0
P96 P 0.53994 0.17726 0.60944 0.0
H97 H 0.64693 0.15668 0.62619 0.0
H98 H 0.72123 0.13514 0.59234 0.0
H99 H 0.6285 0.14983 0.50401 0.0
H100 H 0.55477 0.17149 0.53776 0.0
H101 H 0.51411 0.21944 0.66915 0.0
H102 H 0.50309 0.28518 0.68101 0.0
H103 H 0.53396 0.30958 0.57839 0.0
H104 H 0.54736 0.24279 0.56711 0.0
H105 H 0.51317 0.10423 0.59295 0.0
H106 H 0.44946 0.21766 0.57775 0.0
O107 O 0.5469 0.1541 0.64529 0.0
H108 H 0.44642 0.08306 0.55794 0.0
H109 H 0.38363 0.19684 0.54235 0.0
C110 C 0.59527 0.16485 0.58451 0.0
C111 C 0.64275 0.15537 0.59953 0.0
C112 C 0.68508 0.14315 0.58022 0.0
C113 C 0.68026 0.14024 0.54566 0.0
C114 C 0.63293 0.15102 0.53067 0.0
C115 C 0.59086 0.16353 0.54993 0.0
C116 C 0.53223 0.22626 0.61742 0.0
C117 C 0.51874 0.23883 0.64919 0.0
C118 C 0.51161 0.27666 0.65576 0.0
C119 C 0.51671 0.30297 0.6305 0.0
C120 C 0.52988 0.29021 0.59844 0.0
C121 C 0.5376 0.25208 0.59198 0.0
C122 C 0.48607 0.16242 0.58813 0.0
C123 C 0.48437 0.12451 0.58249 0.0
C124 C 0.4466 0.11249 0.56224 0.0
C125 C 0.40997 0.13831 0.54731 0.0
C126 C 0.411 0.17626 0.55382 0.0
C127 C 0.44883 0.18823 0.57402 0.0
Zn128 Zn 0.0511 0.10152 0.35169 0.0
Zn129 Zn 0.08094 0.95649 0.36363 0.0
Zn130 Zn 0.06399 0.02632 0.35558 0.0
C131 C 0.06026 0.96928 0.29613 0.0
C132 C -0.00396 0.97612 0.4004 0.0
O133 O 0.12876 0.04847 0.37925 0.0
O134 O 0.11617 0.10967 0.37429 0.0
C135 C 0.0515 0.07361 0.28689 0.0
O136 O 0.05844 1.00342 0.30509 0.0
O137 O 0.06816 0.94369 0.31741 0.0
O138 O 0.02887 0.94865 0.39642 0.0
O139 O 0.00129 0.00728 0.38599 0.0
O140 O 0.0471 0.10355 0.30296 0.0
O141 O 0.05768 0.04213 0.30221 0.0
O142 O -0.00355 0.04652 0.38479 0.0
O143 O 0.98705 0.10751 0.37777 0.0
C144 C 0.97226 0.07864 0.39043 0.0
O145 O 0.14155 0.0101 0.37722 0.0
O146 O 0.15106 0.94878 0.37874 0.0
C147 C 0.14264 0.08087 0.38472 0.0
C148 C 0.1687 0.97915 0.38354 0.0
Zn149 Zn 0.53645 0.60402 0.85431 0.0
Zn150 Zn 0.56313 0.45792 0.86101 0.0
Zn151 Zn 0.54904 0.52823 0.85642 0.0
C152 C 0.56208 0.47408 0.79367 0.0
C153 C 0.47082 0.47624 0.89005 0.0
O154 O 0.61099 0.54915 0.88409 0.0
O155 O 0.60007 0.61044 0.87959 0.0
C156 C 0.54339 0.57815 0.78891 0.0
O157 O 0.55253 0.50738 0.80468 0.0
O158 O 0.56984 0.44722 0.81366 0.0
O159 O 0.50076 0.44793 0.88321 0.0
O160 O 0.48182 0.50879 0.88178 0.0
O161 O 0.53607 0.60768 0.80548 0.0
O162 O 0.54925 0.54634 0.80366 0.0
O163 O 0.47813 0.54765 0.88249 0.0
O164 O 0.47043 0.60896 0.87831 0.0
C165 C 0.45386 0.57963 0.88865 0.0
O166 O 0.62156 0.51045 0.88382 0.0
O167 O 0.62389 0.44953 0.88819 0.0
C168 C 0.62489 0.58127 0.89073 0.0
C169 C 0.64318 0.47898 0.89432 0.0
C170 C 0.05128 0.11663 0.09139 0.0
C171 C 0.08804 0.14173 0.08871 0.0
C172 C 0.04552 0.09686 0.12095 0.0
C173 C 0.0767 0.10277 0.14854 0.0
C174 C 0.11617 0.12598 0.14518 0.0
C175 C 0.12153 0.14497 0.11528 0.0
C176 C 0.00454 0.07104 0.12323 0.0
C177 C 0.15061 0.1328 0.17391 0.0
C178 C 0.02353 0.10685 0.23521 0.0
C179 C 0.05121 0.07619 0.25036 0.0
C180 C 0.0292 0.11439 0.2015 0.0
C181 C 0.063 0.09035 0.18222 0.0
C182 C 0.08792 0.05763 0.19673 0.0
C183 C 0.0825 0.05128 0.23091 0.0
C184 C 0.00165 0.14956 0.18713 0.0
C185 C 0.12265 0.03042 0.17688 0.0
H186 H 0.02535 0.1137 0.07098 0.0
H187 H 0.15111 0.16332 0.11307 0.0
H188 H 0.02138 0.04324 0.13169 0.0
H189 H 0.97567 0.08145 0.14184 0.0
H190 H 0.98509 0.06808 0.09911 0.0
H191 H 0.18201 0.14911 0.16648 0.0
H192 H 0.12806 0.14818 0.1936 0.0
H193 H 0.16736 0.10608 0.18477 0.0
H194 H -0.00102 0.12602 0.25016 0.0
H195 H 0.10439 0.02774 0.2426 0.0
H196 H 0.98068 0.14338 0.16434 0.0
H197 H 0.02972 0.16887 0.18012 0.0
H198 H 0.97421 0.1639 0.20489 0.0
H199 H 0.10935 0.02881 0.15088 0.0
H200 H 0.12539 1.00224 0.18811 0.0
H201 H 0.16138 0.03953 0.17647 0.0
C202 C 0.95703 0.85723 0.1608 0.0
C203 C -0.00578 0.84278 0.1382 0.0
C204 C 0.9627 0.88982 0.17821 0.0
C205 C 0.0057 0.90889 0.17193 0.0
C206 C 0.03669 0.89886 0.14418 0.0
C207 C 0.03151 0.86522 0.12802 0.0
C208 C 0.92697 0.90054 0.20654 0.0
C209 C 0.07944 0.92103 0.13446 0.0
C210 C 0.02102 0.97975 0.23938 0.0
C211 C 0.05309 0.95826 0.2614 0.0
C212 C 0.00906 0.96573 0.20816 0.0
C213 C 0.02724 0.92869 0.19995 0.0
C214 C 0.06163 0.90773 0.22164 0.0
C215 C 0.07487 0.92315 0.2516 0.0
C216 C 0.97536 0.99024 0.18506 0.0
C217 C 0.08189 0.86789 0.21461 0.0
H218 H 0.92621 0.84114 0.1673 0.0
H219 H 0.05956 0.85515 0.10972 0.0
H220 H 0.94732 0.89502 0.23045 0.0
H221 H 0.91377 0.93055 0.20534 0.0
H222 H 0.89314 0.88484 0.20634 0.0
H223 H 0.08874 0.91744 0.10775 0.0
H224 H 0.06938 0.95096 0.13965 0.0
H225 H 0.11406 0.91135 0.14898 0.0
H226 H 0.00359 0.00678 0.24696 0.0
H227 H 0.10041 0.90668 0.26834 0.0
H228 H 0.9352 0.99086 0.19317 0.0
H229 H 0.97836 0.9806 0.159 0.0
H230 H 0.98537 0.01917 0.18617 0.0
H231 H 0.04993 0.85087 0.21081 0.0
H232 H 0.10612 0.85514 0.23505 0.0
H233 H 0.10502 0.8664 0.19168 0.0
C234 C 0.56024 0.62085 0.59347 0.0
C235 C 0.59373 0.64837 0.5924 0.0
C236 C 0.5523 0.60174 0.62308 0.0
C237 C 0.57826 0.61054 0.65222 0.0
C238 C 0.61438 0.63662 0.65073 0.0
C239 C 0.62175 0.6551 0.62086 0.0
C240 C 0.51472 0.57324 0.62356 0.0
C241 C 0.64324 0.64659 0.68117 0.0
C242 C 0.51698 0.61066 0.73656 0.0
C243 C 0.54652 0.58145 0.75254 0.0
C244 C 0.52471 0.61875 0.70314 0.0
C245 C 0.56288 0.59697 0.68515 0.0
C246 C 0.59029 0.56571 0.7005 0.0
C247 C 0.58236 0.55867 0.7343 0.0
C248 C 0.49435 0.65224 0.68778 0.0
C249 C 0.63025 0.54108 0.68204 0.0
H250 H 0.53861 0.61534 0.57154 0.0
H251 H 0.64877 0.67553 0.61996 0.0
H252 H 0.53348 0.54647 0.63315 0.0
H253 H 0.4828 0.5822 0.64053 0.0
H254 H 0.4989 0.56867 0.59857 0.0
H255 H 0.67276 0.66521 0.67531 0.0
H256 H 0.61631 0.66072 0.69932 0.0
H257 H 0.66192 0.62116 0.69329 0.0
H258 H 0.48905 0.6282 0.75064 0.0
H259 H 0.60578 0.5364 0.74673 0.0
H260 H 0.47759 0.64481 0.66382 0.0
H261 H 0.51991 0.67392 0.68262 0.0
H262 H 0.46316 0.66423 0.70418 0.0
H263 H 0.61912 0.53766 0.65581 0.0
H264 H 0.63721 0.51324 0.69384 0.0
H265 H 0.66651 0.55389 0.68227 0.0
C266 C 0.54511 0.36706 0.62626 0.0
C267 C 0.51129 0.34316 0.6389 0.0
C268 C 0.54934 0.40152 0.64127 0.0
C269 C 0.52127 0.41099 0.67039 0.0
C270 C 0.48171 0.38971 0.67983 0.0
C271 C 0.4765 0.35647 0.66339 0.0
C272 C 0.58761 0.42575 0.628 0.0
C273 C 0.4492 0.39928 0.70999 0.0
C274 C 0.59092 0.43307 0.74745 0.0
C275 C 0.56164 0.46528 0.75803 0.0
C276 C 0.58123 0.41677 0.71718 0.0
C277 C 0.54265 0.43415 0.69612 0.0
C278 C 0.51831 0.46962 0.70453 0.0
C279 C 0.52689 0.48431 0.73602 0.0
C280 C 0.60866 0.37893 0.70969 0.0
C281 C 0.48082 0.4911 0.68157 0.0
H282 H 0.57109 0.35788 0.60649 0.0
H283 H 0.44799 0.33923 0.67181 0.0
H284 H 0.57868 0.45503 0.63584 0.0
H285 H 0.62617 0.41546 0.63716 0.0
H286 H 0.58866 0.42465 0.60049 0.0
H287 H 0.41944 0.3802 0.71347 0.0
H288 H 0.47343 0.39793 0.73256 0.0
H289 H 0.43016 0.4279 0.70774 0.0
H290 H 0.61871 0.41882 0.76422 0.0
H291 H 0.50422 0.50935 0.744 0.0
H292 H 0.62961 0.37976 0.686 0.0
H293 H 0.58083 0.35829 0.70712 0.0
H294 H 0.63642 0.369 0.72934 0.0
H295 H 0.48542 0.48167 0.65552 0.0
H296 H 0.48556 0.52113 0.6827 0.0
H297 H 0.44148 0.488 0.68977 0.0
C298 C 0.26752 0.35705 0.92891 0.0
C299 C 0.23659 0.36044 0.95716 0.0
C300 C 0.29968 0.38392 0.9209 0.0
C301 C 0.30032 0.41557 0.94124 0.0
C302 C 0.26749 0.42025 0.96889 0.0
C303 C 0.2363 0.39243 0.97674 0.0
C304 C 0.33437 0.37768 0.89123 0.0
C305 C 0.26595 0.45431 0.99034 0.0
C306 C 0.43071 0.44617 0.9362 0.0
C307 C 0.42513 0.47047 0.90911 0.0
C308 C 0.38877 0.43119 0.94965 0.0
C309 C 0.34012 0.44075 0.93544 0.0
C310 C 0.33346 0.46878 0.9107 0.0
C311 C 0.37645 0.48332 0.89757 0.0
C312 C 0.39776 0.40169 0.97622 0.0
C313 C 0.28204 0.48057 0.89557 0.0
H314 H 0.26673 0.33321 0.91292 0.0
H315 H 0.21242 0.39546 -0.00144 0.0
H316 H 0.32825 0.40159 0.87393 0.0
H317 H 0.37471 0.37539 0.89943 0.0
H318 H 0.32811 0.3521 0.87748 0.0
H319 H 0.23784 0.454 0.01075 0.0
H320 H 0.30403 0.45665 0.00123 0.0
H321 H 0.25593 0.47945 0.97494 0.0
H322 H 0.46858 0.43675 0.94532 0.0
H323 H 0.37231 0.5024 0.87673 0.0
H324 H 0.39499 0.37407 0.96507 0.0
H325 H 0.36851 0.40582 0.99589 0.0
H326 H 0.43595 0.40148 0.98783 0.0
H327 H 0.27553 0.46192 0.87463 0.0
H328 H 0.28002 0.50934 0.88569 0.0
H329 H 0.25099 0.47888 0.9138 0.0
C330 C 0.86882 0.59454 0.00711 0.0
C331 C 0.8544 0.62058 0.03188 0.0
C332 C 0.83326 0.58441 0.98394 0.0
C333 C 0.78228 0.60075 0.98569 0.0
C334 C 0.76712 0.62593 0.01141 0.0
C335 C 0.80342 0.63556 0.0342 0.0
C336 C 0.85055 0.55733 0.95689 0.0
C337 C 0.71285 0.64357 0.01428 0.0
C338 C 0.69975 0.61226 0.90878 0.0
C339 C 0.66787 0.58431 0.91337 0.0
C340 C 0.73854 0.61701 0.93159 0.0
C341 C 0.74514 0.59335 0.95965 0.0
C342 C 0.71373 0.56452 0.96396 0.0
C343 C 0.67497 0.56068 0.94092 0.0
C344 C 0.77143 0.64804 0.9262 0.0
C345 C 0.72 0.53852 0.99337 0.0
H346 H 0.90833 0.58313 0.00507 0.0
H347 H 0.79205 0.65524 0.05364 0.0
H348 H 0.82587 0.5345 0.95619 0.0
H349 H 0.847 0.57153 0.93245 0.0
H350 H 0.89068 0.54523 0.96029 0.0
H351 H 0.70678 0.6611 0.03672 0.0
H352 H 0.70273 0.66108 0.99212 0.0
H353 H 0.68636 0.62186 0.01513 0.0
H354 H 0.69394 0.63065 0.88753 0.0
H355 H 0.64904 0.53997 0.9451 0.0
H356 H 0.81227 0.63708 0.92703 0.0
H357 H 0.76481 0.66865 0.94639 0.0
H358 H 0.76343 0.66247 0.9021 0.0
H359 H 0.75933 0.52434 0.99411 0.0
H360 H 0.69296 0.51713 0.99269 0.0
H361 H 0.71395 0.55446 0.01669 0.0
C362 C 0.90643 0.38906 0.96871 0.0
C363 C 0.90827 0.3576 0.94846 0.0
C364 C 0.86803 0.4187 0.96453 0.0
C365 C 0.83073 0.41655 0.9396 0.0
C366 C 0.83325 0.38506 0.91871 0.0
C367 C 0.87208 0.3561 0.92335 0.0
C368 C 0.86807 0.45228 0.98646 0.0
C369 C 0.79385 0.38125 0.89207 0.0
C370 C 0.6937 0.45298 0.94168 0.0
C371 C 0.69072 0.47557 0.9134 0.0
C372 C 0.7408 0.43756 0.95393 0.0
C373 C 0.78559 0.44457 0.937 0.0
C374 C 0.783 0.47203 0.91177 0.0
C375 C 0.73512 0.48722 0.89997 0.0
C376 C 0.74197 0.40981 0.98199 0.0
C377 C 0.83029 0.48195 0.89461 0.0
H378 H 0.93526 0.39058 0.98766 0.0
H379 H 0.87347 0.33174 0.90776 0.0
H380 H 0.88635 0.47396 0.97291 0.0
H381 H 0.82892 0.46411 0.99302 0.0
H382 H 0.88996 0.44568 0.00967 0.0
H383 H 0.80211 0.35539 0.87751 0.0
H384 H 0.7557 0.38114 0.90349 0.0
H385 H 0.79209 0.40519 0.87476 0.0
H386 H 0.65902 0.44471 0.9524 0.0
H387 H 0.73259 0.50521 0.87835 0.0
H388 H 0.77323 0.41373 -0.00043 0.0
H389 H 0.74907 0.38134 0.97183 0.0
H390 H 0.70546 0.41206 0.99581 0.0
H391 H 0.86256 0.48153 0.91229 0.0
H392 H 0.82382 0.5098 0.88281 0.0
H393 H 0.84116 0.46129 0.87498 0.0
C394 C 0.25259 0.63806 0.02654 0.0
C395 C 0.20459 0.62575 0.02216 0.0
C396 C 0.29272 0.62692 0.0049 0.0
C397 C 0.28459 0.60281 0.97838 0.0
C398 C 0.23678 0.58918 0.97459 0.0
C399 C 0.1972 0.60098 0.99646 0.0
C400 C 0.3433 0.64197 0.00975 0.0
C401 C 0.22696 0.56306 0.94689 0.0
C402 C 0.36966 0.61205 0.90417 0.0
C403 C 0.40791 0.58279 0.90947 0.0
C404 C 0.32824 0.61801 0.92581 0.0
C405 C 0.32516 0.5941 0.95339 0.0
C406 C 0.36271 0.56363 0.95814 0.0
C407 C 0.40416 0.55871 0.93636 0.0
C408 C 0.28878 0.65071 0.91982 0.0
C409 C 0.36029 0.53718 0.98694 0.0
H410 H 0.25831 0.65737 0.04626 0.0
H411 H 0.16031 0.59095 0.99335 0.0
H412 H 0.37438 0.61887 0.01114 0.0
H413 H 0.35127 0.65952 0.98818 0.0
H414 H 0.3442 0.65884 0.0326 0.0
H415 H 0.19106 0.55023 0.95058 0.0
H416 H 0.22434 0.57846 0.92302 0.0
H417 H 0.25891 0.54075 0.94479 0.0
H418 H 0.37269 0.63077 0.8834 0.0
H419 H 0.43465 0.53692 0.94119 0.0
H420 H 0.28946 0.67065 0.94054 0.0
H421 H 0.25017 0.64141 0.9191 0.0
H422 H 0.29531 0.66543 0.89627 0.0
H423 H 0.36868 0.55138 0.01028 0.0
H424 H 0.38805 0.51208 0.98435 0.0
H425 H 0.32155 0.52836 0.98924 0.0
C426 C 0.79881 0.854 0.44135 0.0
C427 C 0.76574 0.85763 0.46857 0.0
C428 C 0.83116 0.88097 0.43409 0.0
C429 C 0.8297 0.91309 0.454 0.0
C430 C 0.79522 0.91782 0.4808 0.0
C431 C 0.76392 0.88984 0.48799 0.0
C432 C 0.86772 0.87459 0.40537 0.0
C433 C 0.79147 0.95237 0.50174 0.0
C434 C 0.95772 0.94753 0.44844 0.0
C435 C 0.95113 0.97042 0.42041 0.0
C436 C 0.91657 0.93203 0.46251 0.0
C437 C 0.8678 0.93955 0.44793 0.0
C438 C 0.85991 0.9664 0.42226 0.0
C439 C 0.90201 0.98155 0.4086 0.0
C440 C 0.92678 0.90388 0.49007 0.0
C441 C 0.80832 0.97589 0.40655 0.0
H442 H 0.79931 0.83005 0.42539 0.0
H443 H 0.73847 0.89307 0.50904 0.0
H444 H 0.86109 0.89764 0.3872 0.0
H445 H 0.90749 0.87401 0.4144 0.0
H446 H 0.86386 0.84814 0.39233 0.0
H447 H 0.76393 0.95129 0.5224 0.0
H448 H 0.82923 0.95658 0.51222 0.0
H449 H 0.77924 0.9769 0.48602 0.0
H450 H -0.00417 0.93944 0.45781 0.0
H451 H 0.89696 0.9995 0.38702 0.0
H452 H 0.92689 0.87558 0.47972 0.0
H453 H 0.89658 0.90744 0.50918 0.0
H454 H 0.96417 0.90587 0.5022 0.0
H455 H 0.80306 0.95574 0.38657 0.0
H456 H 0.80493 1.00406 0.39528 0.0
H457 H 0.77728 0.97444 0.42483 0.0
C458 C 0.38694 0.09957 0.49955 0.0
C459 C 0.37203 0.12601 0.5239 0.0
C460 C 0.35201 0.08936 0.47599 0.0
C461 C 0.30118 0.10613 0.47683 0.0
C462 C 0.28565 0.1322 0.50179 0.0
C463 C 0.3213 0.14182 0.52503 0.0
C464 C 0.36975 0.06142 0.44972 0.0
C465 C 0.23146 0.15023 0.50373 0.0
C466 C 0.21786 0.11297 0.40012 0.0
C467 C 0.18686 0.08474 0.40604 0.0
C468 C 0.25687 0.1192 0.42232 0.0
C469 C 0.26411 0.09709 0.45132 0.0
C470 C 0.23345 0.06808 0.45704 0.0
C471 C 0.19518 0.06222 0.43421 0.0
C472 C 0.28911 0.15025 0.41537 0.0
C473 C 0.23987 0.04416 0.48782 0.0
H474 H 0.42629 0.0876 0.49834 0.0
H475 H 0.3095 0.16184 0.54412 0.0
H476 H 0.34468 0.03881 0.44908 0.0
H477 H 0.36731 0.07502 0.42499 0.0
H478 H 0.40959 0.04907 0.45388 0.0
H479 H 0.22529 0.16919 0.52522 0.0
H480 H 0.22157 0.16629 0.48071 0.0
H481 H 0.20484 0.12868 0.50573 0.0
H482 H 0.2111 0.13047 0.37836 0.0
H483 H 0.1701 0.04113 0.43922 0.0
H484 H 0.3301 0.13983 0.41684 0.0
H485 H 0.28175 0.17211 0.43443 0.0
H486 H 0.28113 0.163 0.39056 0.0
H487 H 0.27837 0.02858 0.48808 0.0
H488 H 0.2111 0.02407 0.48938 0.0
H489 H 0.23665 0.06172 0.51031 0.0
C490 C 0.38765 0.8472 0.42836 0.0
C491 C 0.43593 0.85591 0.43742 0.0
C492 C 0.34852 0.87527 0.42111 0.0
C493 C 0.35773 0.91297 0.42384 0.0
C494 C 0.40635 0.92188 0.43366 0.0
C495 C 0.44517 0.89311 0.44003 0.0
C496 C 0.29744 0.86451 0.41012 0.0
C497 C 0.41712 0.96158 0.43801 0.0
C498 C 0.26067 0.97207 0.37297 0.0
C499 C 0.22095 0.97747 0.39584 0.0
C500 C 0.30832 0.95443 0.38258 0.0
C501 C 0.31595 0.94243 0.41585 0.0
C502 C 0.27791 0.95239 0.43979 0.0
C503 C 0.23026 0.96913 0.42931 0.0
C504 C 0.34789 0.94439 0.35628 0.0
C505 C 0.28547 0.94143 0.47572 0.0
H506 H 0.38092 0.81834 0.42624 0.0
H507 H 0.48267 0.89961 0.44739 0.0
H508 H 0.26756 0.87512 0.42798 0.0
H509 H 0.287 0.8772 0.38562 0.0
H510 H 0.29723 0.834 0.40814 0.0
H511 H 0.45847 0.96398 0.44078 0.0
H512 H 0.40226 0.97899 0.41673 0.0
H513 H 0.39742 0.97304 0.46056 0.0
H514 H 0.25287 0.97794 0.34696 0.0
H515 H 0.19901 0.97268 0.44679 0.0
H516 H 0.34832 0.91455 0.35019 0.0
H517 H 0.38641 0.94881 0.36532 0.0
H518 H 0.3398 0.9608 0.33319 0.0
H519 H 0.28459 0.91106 0.47843 0.0
H520 H 0.2554 0.95562 0.49179 0.0
H521 H 0.32317 0.94811 0.48458 0.0
C522 C 0.77128 0.14017 0.52906 0.0
C523 C 0.72435 0.12613 0.52508 0.0
C524 C 0.81223 0.12901 0.50805 0.0
C525 C 0.80603 0.10299 0.48271 0.0
C526 C 0.75941 0.0875 0.47955 0.0
C527 C 0.71895 0.09944 0.50067 0.0
C528 C 0.86142 0.14618 0.51211 0.0
C529 C 0.75175 0.05924 0.45321 0.0
C530 C 0.88824 0.11061 0.40681 0.0
C531 C 0.92797 0.08258 0.41272 0.0
C532 C 0.84767 0.1169 0.42907 0.0
C533 C 0.84687 0.09451 0.45785 0.0
C534 C 0.88626 0.06549 0.4635 0.0
C535 C 0.9269 0.06033 0.44109 0.0
C536 C 0.80634 0.14814 0.42219 0.0
C537 C 0.88615 0.04058 0.49357 0.0
H538 H 0.7754 0.1609 0.54785 0.0
H539 H 0.68285 0.08812 0.49794 0.0
H540 H 0.89393 0.12424 0.51417 0.0
H541 H 0.86803 0.16315 0.48989 0.0
H542 H 0.86114 0.16417 0.53433 0.0
H543 H 0.71614 0.04607 0.45698 0.0
H544 H 0.75005 0.07283 0.42848 0.0
H545 H 0.78436 0.03732 0.45298 0.0
H546 H 0.88927 0.12798 0.38493 0.0
H547 H 0.95865 0.03969 0.44635 0.0
H548 H 0.80566 0.169 0.44225 0.0
H549 H 0.76859 0.13742 0.42189 0.0
H550 H 0.81185 0.16221 0.39815 0.0
H551 H 0.89016 0.05703 0.51635 0.0
H552 H 0.91751 0.01758 0.49295 0.0
H553 H 0.84942 0.02852 0.49534 0.0
loop_
_geom_bond_atom_site_label_1
_geom_bond_atom_site_label_2
_geom_bond_distance
_geom_bond_site_symmetry_2
_ccdc_geom_bond_type
P0 O11 1.490 . S
P0 C14 1.812 . S
P0 C20 1.803 1_556 S
P0 C26 1.819 . S
H1 C15 0.941 . S
H2 C16 0.939 . S
H3 C18 0.940 1_554 S
H4 C19 0.937 1_554 S
H5 C21 0.939 . S
H6 C22 0.942 . S
H7 C24 0.940 . S
H8 C25 0.939 . S
H9 C27 0.941 . S
H10 C31 0.939 . S
O11 P0 1.490 . S
H12 C28 0.939 . S
H13 C30 0.940 . S
C14 P0 1.812 . S
C14 C15 1.389 . S
C14 C19 1.393 . S
C15 H1 0.941 . S
C15 C14 1.389 . S
C15 C16 1.397 . S
C16 H2 0.939 . S
C16 C15 1.397 . S
C16 C17 1.378 . S
C17 C16 1.378 . S
C17 C18 1.378 . S
C18 H3 0.940 1_556 S
C18 C17 1.378 . S
C18 C19 1.397 . S
C19 H4 0.937 1_556 S
C19 C14 1.393 . S
C19 C18 1.397 . S
C20 P0 1.803 1_554 S
C20 C21 1.378 . S
C20 C25 1.400 . S
C21 H5 0.939 . S
C21 C20 1.378 . S
C21 C22 1.361 . S
C22 H6 0.942 . S
C22 C21 1.361 . S
C22 C23 1.369 . S
C23 C22 1.369 . S
C23 C24 1.404 . S
C24 H7 0.940 . S
C24 C23 1.404 . S
C24 C25 1.389 . S
C25 H8 0.939 . S
C25 C20 1.400 . S
C25 C24 1.389 . S
C26 P0 1.819 . S
C26 C27 1.391 . S
C26 C31 1.391 1_556 S
C27 H9 0.941 . S
C27 C26 1.391 . S
C27 C28 1.396 . S
C28 H12 0.939 . S
C28 C27 1.396 . S
C28 C29 1.397 1_455 S
C29 C28 1.397 1_655 S
C29 C30 1.385 1_556 S
C30 H13 0.940 . S
C30 C29 1.385 1_554 S
C30 C31 1.388 1_655 S
C31 H10 0.939 . S
C31 C26 1.391 1_554 S
C31 C30 1.388 1_455 S
P32 O43 1.490 . S
P32 C46 1.812 . S
P32 C52 1.803 . S
P32 C58 1.819 1_455 S
H33 C47 0.941 . S
H34 C48 0.939 . S
H35 C50 0.940 . S
H36 C51 0.940 . S
H37 C53 0.939 . S
H38 C54 0.942 . S
H39 C56 0.940 . S
H40 C57 0.939 . S
H41 C59 0.941 . S
H42 C63 0.939 . S
O43 P32 1.490 . S
H44 C60 0.942 . S
H45 C62 0.940 . S
C46 P32 1.812 . S
C46 C47 1.389 . S
C46 C51 1.391 1_554 S
C47 H33 0.941 . S
C47 C46 1.389 . S
C47 C48 1.397 . S
C48 H34 0.939 . S
C48 C47 1.397 . S
C48 C49 1.378 1_554 S
C49 C48 1.378 1_556 S
C49 C50 1.378 . S
C50 H35 0.940 . S
C50 C49 1.378 . S
C50 C51 1.396 . S
C51 H36 0.940 . S
C51 C46 1.391 1_556 S
C51 C50 1.396 . S
C52 P32 1.803 . S
C52 C53 1.378 1_455 S
C52 C57 1.400 . S
C53 H37 0.939 . S
C53 C52 1.378 1_655 S
C53 C54 1.361 . S
C54 H38 0.942 . S
C54 C53 1.361 . S
C54 C55 1.365 1_655 S
C55 C54 1.365 1_455 S
C55 C56 1.408 . S
C56 H39 0.940 . S
C56 C55 1.408 . S
C56 C57 1.389 . S
C57 H40 0.939 . S
C57 C52 1.400 . S
C57 C56 1.389 . S
C58 P32 1.819 1_655 S
C58 C59 1.391 . S
C58 C63 1.391 . S
C59 H41 0.941 . S
C59 C58 1.391 . S
C59 C60 1.392 1_554 S
C60 H44 0.942 . S
C60 C59 1.392 1_556 S
C60 C61 1.398 . S
C61 C60 1.398 . S
C61 C62 1.385 1_556 S
C62 H45 0.940 . S
C62 C61 1.385 1_554 S
C62 C63 1.388 . S
C63 H42 0.939 . S
C63 C58 1.391 . S
C63 C62 1.388 . S
P64 O75 1.490 . S
P64 C78 1.812 . S
P64 C84 1.803 . S
P64 C90 1.819 . S
H65 C79 0.941 . S
H66 C80 0.939 . S
H67 C82 0.940 . S
H68 C83 0.940 . S
H69 C85 0.939 . S
H70 C86 0.942 . S
H71 C88 0.940 . S
H72 C89 0.939 . S
H73 C91 0.941 . S
H74 C95 0.939 . S
O75 P64 1.490 . S
H76 C92 0.939 . S
H77 C94 0.940 . S
C78 P64 1.812 . S
C78 C79 1.389 . S
C78 C83 1.391 . S
C79 H65 0.941 . S
C79 C78 1.389 . S
C79 C80 1.397 . S
C80 H66 0.939 . S
C80 C79 1.397 . S
C80 C81 1.378 . S
C81 C80 1.378 . S
C81 C82 1.378 . S
C82 H67 0.940 . S
C82 C81 1.378 . S
C82 C83 1.396 . S
C83 H68 0.940 . S
C83 C78 1.391 . S
C83 C82 1.396 . S
C84 P64 1.803 . S
C84 C85 1.378 . S
C84 C89 1.400 . S
C85 H69 0.939 . S
C85 C84 1.378 . S
C85 C86 1.361 . S
C86 H70 0.942 . S
C86 C85 1.361 . S
C86 C87 1.369 . S
C87 C86 1.369 . S
C87 C88 1.404 . S
C88 H71 0.940 . S
C88 C87 1.404 . S
C88 C89 1.389 . S
C89 H72 0.939 . S
C89 C84 1.400 . S
C89 C88 1.389 . S
C90 P64 1.819 . S
C90 C91 1.391 . S
C90 C95 1.391 . S
C91 H73 0.941 . S
C91 C90 1.391 . S
C91 C92 1.396 . S
C92 H76 0.939 . S
C92 C91 1.396 . S
C92 C93 1.397 . S
C93 C92 1.397 . S
C93 C94 1.385 . S
C94 H77 0.940 . S
C94 C93 1.385 . S
C94 C95 1.388 . S
C95 H74 0.939 . S
C95 C90 1.391 . S
C95 C94 1.388 . S
P96 O107 1.490 . S
P96 C110 1.812 . S
P96 C116 1.803 . S
P96 C122 1.819 . S
H97 C111 0.941 . S
H98 C112 0.939 . S
H99 C114 0.940 . S
H100 C115 0.940 . S
H101 C117 0.939 . S
H102 C118 0.942 . S
H103 C120 0.940 . S
H104 C121 0.939 . S
H105 C123 0.941 . S
H106 C127 0.939 . S
O107 P96 1.490 . S
H108 C124 0.939 . S
H109 C126 0.940 . S
C110 P96 1.812 . S
C110 C111 1.389 . S
C110 C115 1.391 . S
C111 H97 0.941 . S
C111 C110 1.389 . S
C111 C112 1.397 . S
C112 H98 0.939 . S
C112 C111 1.397 . S
C112 C113 1.378 . S
C113 C112 1.378 . S
C113 C114 1.378 . S
C114 H99 0.940 . S
C114 C113 1.378 . S
C114 C115 1.396 . S
C115 H100 0.940 . S
C115 C110 1.391 . S
C115 C114 1.396 . S
C116 P96 1.803 . S
C116 C117 1.378 . S
C116 C121 1.400 . S
C117 H101 0.939 . S
C117 C116 1.378 . S
C117 C118 1.361 . S
C118 H102 0.942 . S
C118 C117 1.361 . S
C118 C119 1.369 . S
C119 C118 1.369 . S
C119 C120 1.404 . S
C120 H103 0.940 . S
C120 C119 1.404 . S
C120 C121 1.389 . S
C121 H104 0.939 . S
C121 C116 1.400 . S
C121 C120 1.389 . S
C122 P96 1.819 . S
C122 C123 1.391 . S
C122 C127 1.391 . S
C123 H105 0.941 . S
C123 C122 1.391 . S
C123 C124 1.396 . S
C124 H108 0.939 . S
C124 C123 1.396 . S
C124 C125 1.397 . S
C125 C124 1.397 . S
C125 C126 1.385 . S
C126 H109 0.940 . S
C126 C125 1.385 . S
C126 C127 1.388 . S
C127 H106 0.939 . S
C127 C122 1.391 . S
C127 C126 1.388 . S
Zn128 O134 1.920 . S
Zn128 O140 1.898 . S
Zn128 O143 1.905 1_455 S
Zn129 O137 1.905 . S
Zn129 O138 1.898 . S
Zn129 O146 1.920 . S
Zn130 O133 2.080 . S
Zn130 O136 2.114 1_545 S
Zn130 O139 2.120 1_545 S
Zn130 O141 2.120 . S
Zn130 O142 2.114 1_455 S
Zn130 O145 2.080 1_545 S
C131 O136 1.166 . S
C131 O137 1.182 . S
C132 O138 1.167 . S
C132 O139 1.299 . S
O133 Zn130 2.080 . S
O133 C147 1.305 . S
O134 Zn128 1.920 . S
O134 C147 1.234 . S
C135 O140 1.167 . S
C135 O141 1.299 . S
O136 Zn130 2.114 1_565 S
O136 C131 1.166 . S
O137 Zn129 1.905 . S
O137 C131 1.182 . S
O138 Zn129 1.898 . S
O138 C132 1.167 . S
O139 Zn130 2.120 1_565 S
O139 C132 1.299 . S
O140 Zn128 1.898 . S
O140 C135 1.167 . S
O141 Zn130 2.120 . S
O141 C135 1.299 . S
O142 Zn130 2.114 1_655 S
O142 C144 1.166 . S
O143 Zn128 1.905 1_655 S
O143 C144 1.182 . S
C144 O142 1.166 . S
C144 O143 1.182 . S
O145 Zn130 2.080 1_565 S
O145 C148 1.305 . S
O146 Zn129 1.920 . S
O146 C148 1.234 . S
C147 O133 1.305 . S
C147 O134 1.234 . S
C148 O145 1.305 . S
C148 O146 1.234 . S
Zn149 O155 1.920 . S
Zn149 O161 1.898 . S
Zn149 O164 1.905 . S
Zn150 O158 1.905 . S
Zn150 O159 1.898 . S
Zn150 O167 1.920 . S
Zn151 O154 2.080 . S
Zn151 O157 2.114 . S
Zn151 O160 2.120 . S
Zn151 O162 2.120 . S
Zn151 O163 2.114 . S
Zn151 O166 2.080 . S
C152 O157 1.166 . S
C152 O158 1.182 . S
C153 O159 1.167 . S
C153 O160 1.299 . S
O154 Zn151 2.080 . S
O154 C168 1.305 . S
O155 Zn149 1.920 . S
O155 C168 1.234 . S
C156 O161 1.167 . S
C156 O162 1.299 . S
O157 Zn151 2.114 . S
O157 C152 1.166 . S
O158 Zn150 1.905 . S
O158 C152 1.182 . S
O159 Zn150 1.898 . S
O159 C153 1.167 . S
O160 Zn151 2.120 . S
O160 C153 1.299 . S
O161 Zn149 1.898 . S
O161 C156 1.167 . S
O162 Zn151 2.120 . S
O162 C156 1.299 . S
O163 Zn151 2.114 . S
O163 C165 1.166 . S
O164 Zn149 1.905 . S
O164 C165 1.182 . S
C165 O163 1.166 . S
C165 O164 1.182 . S
O166 Zn151 2.080 . S
O166 C169 1.305 . S
O167 Zn150 1.920 . S
O167 C169 1.234 . S
C168 O154 1.305 . S
C168 O155 1.234 . S
C169 O166 1.305 . S
C169 O167 1.234 . S
C170 C171 1.391 . S
C170 C172 1.394 . S
C170 H186 0.931 . S
C171 C170 1.391 . S
C171 C175 1.376 . S
C172 C170 1.394 . S
C172 C173 1.369 . S
C172 C176 1.531 . S
C173 C172 1.369 . S
C173 C174 1.410 . S
C173 C181 1.503 . S
C174 C173 1.410 . S
C174 C175 1.392 . S
C174 C177 1.511 . S
C175 C171 1.376 . S
C175 C174 1.392 . S
C175 H187 0.929 . S
C176 C172 1.531 . S
C176 H188 0.960 . S
C176 H189 0.962 . S
C176 H190 0.960 . S
C177 C174 1.511 . S
C177 H191 0.961 . S
C177 H192 0.961 . S
C177 H193 0.961 . S
C178 C179 1.370 . S
C178 C180 1.363 . S
C178 H194 0.931 . S
C179 C178 1.370 . S
C179 C183 1.408 . S
C180 C178 1.363 . S
C180 C181 1.370 . S
C180 C184 1.524 . S
C181 C173 1.503 . S
C181 C180 1.370 . S
C181 C182 1.403 . S
C182 C181 1.403 . S
C182 C183 1.404 . S
C182 C185 1.539 . S
C183 C179 1.408 . S
C183 C182 1.404 . S
C183 H195 0.930 . S
C184 C180 1.524 . S
C184 H196 0.956 . S
C184 H197 0.961 . S
C184 H198 0.961 . S
C185 C182 1.539 . S
C185 H199 0.958 . S
C185 H200 0.961 . S
C185 H201 0.960 . S
H186 C170 0.931 . S
H187 C175 0.929 . S
H188 C176 0.960 . S
H189 C176 0.962 . S
H190 C176 0.960 . S
H191 C177 0.961 . S
H192 C177 0.961 . S
H193 C177 0.961 . S
H194 C178 0.931 . S
H195 C183 0.930 . S
H196 C184 0.956 . S
H197 C184 0.961 . S
H198 C184 0.961 . S
H199 C185 0.958 . S
H200 C185 0.961 . S
H201 C185 0.960 . S
C202 C203 1.391 1_655 S
C202 C204 1.394 . S
C202 H218 0.931 . S
C203 C202 1.391 1_455 S
C203 C207 1.376 . S
C204 C202 1.394 . S
C204 C205 1.369 1_655 S
C204 C208 1.531 . S
C205 C204 1.369 1_455 S
C205 C206 1.410 . S
C205 C213 1.503 . S
C206 C205 1.410 . S
C206 C207 1.392 . S
C206 C209 1.511 . S
C207 C203 1.376 . S
C207 C206 1.392 . S
C207 H219 0.929 . S
C208 C204 1.531 . S
C208 H220 0.960 . S
C208 H221 0.962 . S
C208 H222 0.960 . S
C209 C206 1.511 . S
C209 H223 0.961 . S
C209 H224 0.961 . S
C209 H225 0.961 . S
C210 C211 1.370 . S
C210 C212 1.363 . S
C210 H226 0.931 . S
C211 C210 1.370 . S
C211 C215 1.408 . S
C212 C210 1.363 . S
C212 C213 1.370 . S
C212 C216 1.524 . S
C213 C205 1.503 . S
C213 C212 1.370 . S
C213 C214 1.403 . S
C214 C213 1.403 . S
C214 C215 1.404 . S
C214 C217 1.539 . S
C215 C211 1.408 . S
C215 C214 1.404 . S
C215 H227 0.930 . S
C216 C212 1.524 . S
C216 H228 0.956 1_455 S
C216 H229 0.961 . S
C216 H230 0.961 . S
C217 C214 1.539 . S
C217 H231 0.958 1_455 S
C217 H232 0.961 . S
C217 H233 0.960 . S
H218 C202 0.931 . S
H219 C207 0.929 . S
H220 C208 0.960 . S
H221 C208 0.962 . S
H222 C208 0.960 . S
H223 C209 0.961 . S
H224 C209 0.961 . S
H225 C209 0.961 . S
H226 C210 0.931 . S
H227 C215 0.930 . S
H228 C216 0.956 1_655 S
H229 C216 0.961 . S
H230 C216 0.961 . S
H231 C217 0.958 1_655 S
H232 C217 0.961 . S
H233 C217 0.960 . S
C234 C235 1.391 . S
C234 C236 1.394 . S
C234 H250 0.931 . S
C235 C234 1.391 . S
C235 C239 1.376 . S
C236 C234 1.394 . S
C236 C237 1.369 . S
C236 C240 1.531 . S
C237 C236 1.369 . S
C237 C238 1.410 . S
C237 C245 1.503 . S
C238 C237 1.410 . S
C238 C239 1.392 . S
C238 C241 1.511 . S
C239 C235 1.376 . S
C239 C238 1.392 . S
C239 H251 0.929 . S
C240 C236 1.531 . S
C240 H252 0.960 . S
C240 H253 0.962 . S
C240 H254 0.960 . S
C241 C238 1.511 . S
C241 H255 0.961 . S
C241 H256 0.961 . S
C241 H257 0.961 . S
C242 C243 1.370 . S
C242 C244 1.363 . S
C242 H258 0.931 . S
C243 C242 1.370 . S
C243 C247 1.408 . S
C244 C242 1.363 . S
C244 C245 1.370 . S
C244 C248 1.524 . S
C245 C237 1.503 . S
C245 C244 1.370 . S
C245 C246 1.403 . S
C246 C245 1.403 . S
C246 C247 1.404 . S
C246 C249 1.539 . S
C247 C243 1.408 . S
C247 C246 1.404 . S
C247 H259 0.930 . S
C248 C244 1.524 . S
C248 H260 0.956 . S
C248 H261 0.961 . S
C248 H262 0.961 . S
C249 C246 1.539 . S
C249 H263 0.958 . S
C249 H264 0.961 . S
C249 H265 0.960 . S
H250 C234 0.931 . S
H251 C239 0.929 . S
H252 C240 0.960 . S
H253 C240 0.962 . S
H254 C240 0.960 . S
H255 C241 0.961 . S
H256 C241 0.961 . S
H257 C241 0.961 . S
H258 C242 0.931 . S
H259 C247 0.930 . S
H260 C248 0.956 . S
H261 C248 0.961 . S
H262 C248 0.961 . S
H263 C249 0.958 . S
H264 C249 0.961 . S
H265 C249 0.960 . S
C266 C267 1.391 . S
C266 C268 1.394 . S
C266 H282 0.931 . S
C267 C266 1.391 . S
C267 C271 1.376 . S
C268 C266 1.394 . S
C268 C269 1.369 . S
C268 C272 1.531 . S
C269 C268 1.369 . S
C269 C270 1.410 . S
C269 C277 1.503 . S
C270 C269 1.410 . S
C270 C271 1.392 . S
C270 C273 1.511 . S
C271 C267 1.376 . S
C271 C270 1.392 . S
C271 H283 0.929 . S
C272 C268 1.531 . S
C272 H284 0.960 . S
C272 H285 0.962 . S
C272 H286 0.960 . S
C273 C270 1.511 . S
C273 H287 0.961 . S
C273 H288 0.961 . S
C273 H289 0.961 . S
C274 C275 1.370 . S
C274 C276 1.363 . S
C274 H290 0.931 . S
C275 C274 1.370 . S
C275 C279 1.408 . S
C276 C274 1.363 . S
C276 C277 1.370 . S
C276 C280 1.524 . S
C277 C269 1.503 . S
C277 C276 1.370 . S
C277 C278 1.403 . S
C278 C277 1.403 . S
C278 C279 1.404 . S
C278 C281 1.539 . S
C279 C275 1.408 . S
C279 C278 1.404 . S
C279 H291 0.930 . S
C280 C276 1.524 . S
C280 H292 0.956 . S
C280 H293 0.961 . S
C280 H294 0.961 . S
C281 C278 1.539 . S
C281 H295 0.958 . S
C281 H296 0.961 . S
C281 H297 0.960 . S
H282 C266 0.931 . S
H283 C271 0.929 . S
H284 C272 0.960 . S
H285 C272 0.962 . S
H286 C272 0.960 . S
H287 C273 0.961 . S
H288 C273 0.961 . S
H289 C273 0.961 . S
H290 C274 0.931 . S
H291 C279 0.930 . S
H292 C280 0.956 . S
H293 C280 0.961 . S
H294 C280 0.961 . S
H295 C281 0.958 . S
H296 C281 0.961 . S
H297 C281 0.960 . S
C298 C299 1.391 . S
C298 C300 1.394 . S
C298 H314 0.931 . S
C299 C298 1.391 . S
C299 C303 1.376 . S
C300 C298 1.394 . S
C300 C301 1.369 . S
C300 C304 1.531 . S
C301 C300 1.369 . S
C301 C302 1.410 . S
C301 C309 1.503 . S
C302 C301 1.410 . S
C302 C303 1.392 . S
C302 C305 1.511 . S
C303 C299 1.376 . S
C303 C302 1.392 . S
C303 H315 0.929 1_556 S
C304 C300 1.531 . S
C304 H316 0.960 . S
C304 H317 0.962 . S
C304 H318 0.960 . S
C305 C302 1.511 . S
C305 H319 0.961 1_556 S
C305 H320 0.961 . S
C305 H321 0.961 . S
C306 C307 1.370 . S
C306 C308 1.363 . S
C306 H322 0.931 . S
C307 C306 1.370 . S
C307 C311 1.408 . S
C308 C306 1.363 . S
C308 C309 1.370 . S
C308 C312 1.524 . S
C309 C301 1.503 . S
C309 C308 1.370 . S
C309 C310 1.403 . S
C310 C309 1.403 . S
C310 C311 1.404 . S
C310 C313 1.539 . S
C311 C307 1.408 . S
C311 C310 1.404 . S
C311 H323 0.930 . S
C312 C308 1.524 . S
C312 H324 0.956 . S
C312 H325 0.961 1_556 S
C312 H326 0.961 1_556 S
C313 C310 1.539 . S
C313 H327 0.958 . S
C313 H328 0.961 . S
C313 H329 0.960 . S
H314 C298 0.931 . S
H315 C303 0.929 1_554 S
H316 C304 0.960 . S
H317 C304 0.962 . S
H318 C304 0.960 . S
H319 C305 0.961 1_554 S
H320 C305 0.961 . S
H321 C305 0.961 . S
H322 C306 0.931 . S
H323 C311 0.930 . S
H324 C312 0.956 . S
H325 C312 0.961 1_554 S
H326 C312 0.961 1_554 S
H327 C313 0.958 . S
H328 C313 0.961 . S
H329 C313 0.960 . S
C330 C331 1.391 . S
C330 C332 1.394 . S
C330 H346 0.931 . S
C331 C330 1.391 . S
C331 C335 1.376 . S
C332 C330 1.394 . S
C332 C333 1.369 . S
C332 C336 1.531 . S
C333 C332 1.369 . S
C333 C334 1.410 . S
C333 C341 1.503 . S
C334 C333 1.410 . S
C334 C335 1.392 . S
C334 C337 1.511 1_556 S
C335 C331 1.376 . S
C335 C334 1.392 . S
C335 H347 0.929 1_556 S
C336 C332 1.531 . S
C336 H348 0.960 . S
C336 H349 0.962 . S
C336 H350 0.960 . S
C337 C334 1.511 1_554 S
C337 H351 0.961 . S
C337 H352 0.961 1_554 S
C337 H353 0.961 . S
C338 C339 1.370 . S
C338 C340 1.363 . S
C338 H354 0.931 . S
C339 C338 1.370 . S
C339 C343 1.408 . S
C340 C338 1.363 . S
C340 C341 1.370 . S
C340 C344 1.524 . S
C341 C333 1.503 . S
C341 C340 1.370 . S
C341 C342 1.403 . S
C342 C341 1.403 . S
C342 C343 1.404 . S
C342 C345 1.539 1_556 S
C343 C339 1.408 . S
C343 C342 1.404 . S
C343 H355 0.930 . S
C344 C340 1.524 . S
C344 H356 0.956 . S
C344 H357 0.961 . S
C344 H358 0.961 . S
C345 C342 1.539 1_554 S
C345 H359 0.958 1_554 S
C345 H360 0.961 . S
C345 H361 0.960 . S
H346 C330 0.931 . S
H347 C335 0.929 1_554 S
H348 C336 0.960 . S
H349 C336 0.962 . S
H350 C336 0.960 . S
H351 C337 0.961 . S
H352 C337 0.961 1_556 S
H353 C337 0.961 . S
H354 C338 0.931 . S
H355 C343 0.930 . S
H356 C344 0.956 . S
H357 C344 0.961 . S
H358 C344 0.961 . S
H359 C345 0.958 1_556 S
H360 C345 0.961 . S
H361 C345 0.960 . S
C362 C363 1.391 . S
C362 C364 1.394 . S
C362 H378 0.931 . S
C363 C362 1.391 . S
C363 C367 1.376 . S
C364 C362 1.394 . S
C364 C365 1.369 . S
C364 C368 1.531 . S
C365 C364 1.369 . S
C365 C366 1.410 . S
C365 C373 1.503 . S
C366 C365 1.410 . S
C366 C367 1.392 . S
C366 C369 1.511 . S
C367 C363 1.376 . S
C367 C366 1.392 . S
C367 H379 0.929 . S
C368 C364 1.531 . S
C368 H380 0.960 . S
C368 H381 0.962 . S
C368 H382 0.960 . S
C369 C366 1.511 . S
C369 H383 0.961 . S
C369 H384 0.961 . S
C369 H385 0.961 . S
C370 C371 1.370 . S
C370 C372 1.363 . S
C370 H386 0.931 . S
C371 C370 1.370 . S
C371 C375 1.408 . S
C372 C370 1.363 . S
C372 C373 1.370 . S
C372 C376 1.524 . S
C373 C365 1.503 . S
C373 C372 1.370 . S
C373 C374 1.403 . S
C374 C373 1.403 . S
C374 C375 1.404 . S
C374 C377 1.539 . S
C375 C371 1.408 . S
C375 C374 1.404 . S
C375 H387 0.930 . S
C376 C372 1.524 . S
C376 H388 0.956 . S
C376 H389 0.961 . S
C376 H390 0.961 . S
C377 C374 1.539 . S
C377 H391 0.958 . S
C377 H392 0.961 . S
C377 H393 0.960 . S
H378 C362 0.931 . S
H379 C367 0.929 . S
H380 C368 0.960 . S
H381 C368 0.962 . S
H382 C368 0.960 . S
H383 C369 0.961 . S
H384 C369 0.961 . S
H385 C369 0.961 . S
H386 C370 0.931 . S
H387 C375 0.930 . S
H388 C376 0.956 . S
H389 C376 0.961 . S
H390 C376 0.961 . S
H391 C377 0.958 . S
H392 C377 0.961 . S
H393 C377 0.960 . S
C394 C395 1.391 . S
C394 C396 1.394 . S
C394 H410 0.931 . S
C395 C394 1.391 . S
C395 C399 1.376 . S
C396 C394 1.394 . S
C396 C397 1.369 . S
C396 C400 1.531 . S
C397 C396 1.369 . S
C397 C398 1.410 . S
C397 C405 1.503 . S
C398 C397 1.410 . S
C398 C399 1.392 . S
C398 C401 1.511 . S
C399 C395 1.376 . S
C399 C398 1.392 . S
C399 H411 0.929 . S
C400 C396 1.531 . S
C400 H412 0.960 . S
C400 H413 0.962 . S
C400 H414 0.960 . S
C401 C398 1.511 . S
C401 H415 0.961 . S
C401 H416 0.961 . S
C401 H417 0.961 . S
C402 C403 1.370 . S
C402 C404 1.363 . S
C402 H418 0.931 . S
C403 C402 1.370 . S
C403 C407 1.408 . S
C404 C402 1.363 . S
C404 C405 1.370 . S
C404 C408 1.524 . S
C405 C397 1.503 . S
C405 C404 1.370 . S
C405 C406 1.403 . S
C406 C405 1.403 . S
C406 C407 1.404 . S
C406 C409 1.539 . S
C407 C403 1.408 . S
C407 C406 1.404 . S
C407 H419 0.930 . S
C408 C404 1.524 . S
C408 H420 0.956 . S
C408 H421 0.961 . S
C408 H422 0.961 . S
C409 C406 1.539 . S
C409 H423 0.958 . S
C409 H424 0.961 . S
C409 H425 0.960 . S
H410 C394 0.931 . S
H411 C399 0.929 . S
H412 C400 0.960 . S
H413 C400 0.962 . S
H414 C400 0.960 . S
H415 C401 0.961 . S
H416 C401 0.961 . S
H417 C401 0.961 . S
H418 C402 0.931 . S
H419 C407 0.930 . S
H420 C408 0.956 . S
H421 C408 0.961 . S
H422 C408 0.961 . S
H423 C409 0.958 . S
H424 C409 0.961 . S
H425 C409 0.960 . S
C426 C427 1.391 . S
C426 C428 1.394 . S
C426 H442 0.931 . S
C427 C426 1.391 . S
C427 C431 1.376 . S
C428 C426 1.394 . S
C428 C429 1.369 . S
C428 C432 1.531 . S
C429 C428 1.369 . S
C429 C430 1.410 . S
C429 C437 1.503 . S
C430 C429 1.410 . S
C430 C431 1.392 . S
C430 C433 1.511 . S
C431 C427 1.376 . S
C431 C430 1.392 . S
C431 H443 0.929 . S
C432 C428 1.531 . S
C432 H444 0.960 . S
C432 H445 0.962 . S
C432 H446 0.960 . S
C433 C430 1.511 . S
C433 H447 0.961 . S
C433 H448 0.961 . S
C433 H449 0.961 . S
C434 C435 1.370 . S
C434 C436 1.363 . S
C434 H450 0.931 1_655 S
C435 C434 1.370 . S
C435 C439 1.408 . S
C436 C434 1.363 . S
C436 C437 1.370 . S
C436 C440 1.524 . S
C437 C429 1.503 . S
C437 C436 1.370 . S
C437 C438 1.403 . S
C438 C437 1.403 . S
C438 C439 1.404 . S
C438 C441 1.539 . S
C439 C435 1.408 . S
C439 C438 1.404 . S
C439 H451 0.930 . S
C440 C436 1.524 . S
C440 H452 0.956 . S
C440 H453 0.961 . S
C440 H454 0.961 1_655 S
C441 C438 1.539 . S
C441 H455 0.958 . S
C441 H456 0.961 . S
C441 H457 0.960 . S
H442 C426 0.931 . S
H443 C431 0.929 . S
H444 C432 0.960 . S
H445 C432 0.962 . S
H446 C432 0.960 . S
H447 C433 0.961 . S
H448 C433 0.961 . S
H449 C433 0.961 . S
H450 C434 0.931 1_455 S
H451 C439 0.930 . S
H452 C440 0.956 . S
H453 C440 0.961 . S
H454 C440 0.961 1_455 S
H455 C441 0.958 . S
H456 C441 0.961 . S
H457 C441 0.960 . S
C458 C459 1.391 . S
C458 C460 1.394 . S
C458 H474 0.931 . S
C459 C458 1.391 . S
C459 C463 1.376 . S
C460 C458 1.394 . S
C460 C461 1.369 . S
C460 C464 1.531 . S
C461 C460 1.369 . S
C461 C462 1.410 . S
C461 C469 1.503 . S
C462 C461 1.410 . S
C462 C463 1.392 . S
C462 C465 1.511 . S
C463 C459 1.376 . S
C463 C462 1.392 . S
C463 H475 0.929 . S
C464 C460 1.531 . S
C464 H476 0.960 . S
C464 H477 0.962 . S
C464 H478 0.960 . S
C465 C462 1.511 . S
C465 H479 0.961 . S
C465 H480 0.961 . S
C465 H481 0.961 . S
C466 C467 1.370 . S
C466 C468 1.363 . S
C466 H482 0.931 . S
C467 C466 1.370 . S
C467 C471 1.408 . S
C468 C466 1.363 . S
C468 C469 1.370 . S
C468 C472 1.524 . S
C469 C461 1.503 . S
C469 C468 1.370 . S
C469 C470 1.403 . S
C470 C469 1.403 . S
C470 C471 1.404 . S
C470 C473 1.539 . S
C471 C467 1.408 . S
C471 C470 1.404 . S
C471 H483 0.930 . S
C472 C468 1.524 . S
C472 H484 0.956 . S
C472 H485 0.961 . S
C472 H486 0.961 . S
C473 C470 1.539 . S
C473 H487 0.958 . S
C473 H488 0.961 . S
C473 H489 0.960 . S
H474 C458 0.931 . S
H475 C463 0.929 . S
H476 C464 0.960 . S
H477 C464 0.962 . S
H478 C464 0.960 . S
H479 C465 0.961 . S
H480 C465 0.961 . S
H481 C465 0.961 . S
H482 C466 0.931 . S
H483 C471 0.930 . S
H484 C472 0.956 . S
H485 C472 0.961 . S
H486 C472 0.961 . S
H487 C473 0.958 . S
H488 C473 0.961 . S
H489 C473 0.960 . S
C490 C491 1.391 . S
C490 C492 1.394 . S
C490 H506 0.931 . S
C491 C490 1.391 . S
C491 C495 1.376 . S
C492 C490 1.394 . S
C492 C493 1.369 . S
C492 C496 1.531 . S
C493 C492 1.369 . S
C493 C494 1.410 . S
C493 C501 1.503 . S
C494 C493 1.410 . S
C494 C495 1.392 . S
C494 C497 1.511 . S
C495 C491 1.376 . S
C495 C494 1.392 . S
C495 H507 0.929 . S
C496 C492 1.531 . S
C496 H508 0.960 . S
C496 H509 0.962 . S
C496 H510 0.960 . S
C497 C494 1.511 . S
C497 H511 0.961 . S
C497 H512 0.961 . S
C497 H513 0.961 . S
C498 C499 1.370 . S
C498 C500 1.363 . S
C498 H514 0.931 . S
C499 C498 1.370 . S
C499 C503 1.408 . S
C500 C498 1.363 . S
C500 C501 1.370 . S
C500 C504 1.524 . S
C501 C493 1.503 . S
C501 C500 1.370 . S
C501 C502 1.403 . S
C502 C501 1.403 . S
C502 C503 1.404 . S
C502 C505 1.539 . S
C503 C499 1.408 . S
C503 C502 1.404 . S
C503 H515 0.930 . S
C504 C500 1.524 . S
C504 H516 0.956 . S
C504 H517 0.961 . S
C504 H518 0.961 . S
C505 C502 1.539 . S
C505 H519 0.958 . S
C505 H520 0.961 . S
C505 H521 0.960 . S
H506 C490 0.931 . S
H507 C495 0.929 . S
H508 C496 0.960 . S
H509 C496 0.962 . S
H510 C496 0.960 . S
H511 C497 0.961 . S
H512 C497 0.961 . S
H513 C497 0.961 . S
H514 C498 0.931 . S
H515 C503 0.930 . S
H516 C504 0.956 . S
H517 C504 0.961 . S
H518 C504 0.961 . S
H519 C505 0.958 . S
H520 C505 0.961 . S
H521 C505 0.960 . S
C522 C523 1.391 . S
C522 C524 1.394 . S
C522 H538 0.931 . S
C523 C522 1.391 . S
C523 C527 1.376 . S
C524 C522 1.394 . S
C524 C525 1.369 . S
C524 C528 1.531 . S
C525 C524 1.369 . S
C525 C526 1.410 . S
C525 C533 1.503 . S
C526 C525 1.410 . S
C526 C527 1.392 . S
C526 C529 1.511 . S
C527 C523 1.376 . S
C527 C526 1.392 . S
C527 H539 0.929 . S
C528 C524 1.531 . S
C528 H540 0.960 . S
C528 H541 0.962 . S
C528 H542 0.960 . S
C529 C526 1.511 . S
C529 H543 0.961 . S
C529 H544 0.961 . S
C529 H545 0.961 . S
C530 C531 1.370 . S
C530 C532 1.363 . S
C530 H546 0.931 . S
C531 C530 1.370 . S
C531 C535 1.408 . S
C532 C530 1.363 . S
C532 C533 1.370 . S
C532 C536 1.524 . S
C533 C525 1.503 . S
C533 C532 1.370 . S
C533 C534 1.403 . S
C534 C533 1.403 . S
C534 C535 1.404 . S
C534 C537 1.539 . S
C535 C531 1.408 . S
C535 C534 1.404 . S
C535 H547 0.930 . S
C536 C532 1.524 . S
C536 H548 0.956 . S
C536 H549 0.961 . S
C536 H550 0.961 . S
C537 C534 1.539 . S
C537 H551 0.958 . S
C537 H552 0.961 . S
C537 H553 0.960 . S
H538 C522 0.931 . S
H539 C527 0.929 . S
H540 C528 0.960 . S
H541 C528 0.962 . S
H542 C528 0.960 . S
H543 C529 0.961 . S
H544 C529 0.961 . S
H545 C529 0.961 . S
H546 C530 0.931 . S
H547 C535 0.930 . S
H548 C536 0.956 . S
H549 C536 0.961 . S
H550 C536 0.961 . S
H551 C537 0.958 . S
H552 C537 0.961 . S
H553 C537 0.960 . S
C179 C135 1.423 . S
C171 C23 1.510 . S
C211 C131 1.409 . S
C203 C55 1.420 . S
C243 C156 1.423 . S
C235 C87 1.511 . S
C267 C119 1.488 . S
C275 C152 1.443 . S
C299 C17 1.215 . S
C307 C153 1.082 . S
C339 C168 1.131 . S
C331 C61 1.132 . S
C363 C29 1.673 . S
C371 C169 1.560 . S
C403 C165 1.561 . S
C395 C49 1.627 . S
C435 C132 1.094 1_655 S
C427 C81 1.217 . S
C459 C125 1.145 . S
C467 C147 1.120 . S
C499 C148 1.570 . S
C491 C93 1.693 . S
C531 C144 1.572 . S
C523 C113 1.617 . S
