# Generated by pormake.
# Topology tsx, (6,3)-cn, num edge types: 1
# Building blocks:
#     Node 0, Type 0, BuildingBlock: FUNLAD_clean_sbu_0, # of connection points: 6
#     Node 1, Type 0, BuildingBlock: FUNLAD_clean_sbu_0, # of connection points: 6
#     Node 2, Type 1, BuildingBlock: KAKCAD_clean_linker_0, # of connection points: 3
#     Node 3, Type 1, BuildingBlock: KAKCAD_clean_linker_0, # of connection points: 3
#     Node 4, Type 1, BuildingBlock: KAKCAD_clean_linker_0, # of connection points: 3
#     Node 5, Type 1, BuildingBlock: KAKCAD_clean_linker_0, # of connection points: 3
#     Edge 6, Type (0, 1), BuildingBlock: UVAHIK_clean_linker_0, # of connection points: 2
#     Edge 7, Type (0, 1), BuildingBlock: UVAHIK_clean_linker_0, # of connection points: 2
#     Edge 8, Type (0, 1), BuildingBlock: UVAHIK_clean_linker_0, # of connection points: 2
#     Edge 9, Type (0, 1), BuildingBlock: UVAHIK_clean_linker_0, # of connection points: 2
#     Edge 10, Type (0, 1), BuildingBlock: UVAHIK_clean_linker_0, # of connection points: 2
#     Edge 11, Type (0, 1), BuildingBlock: UVAHIK_clean_linker_0, # of connection points: 2
#     Edge 12, Type (0, 1), BuildingBlock: UVAHIK_clean_linker_0, # of connection points: 2
#     Edge 13, Type (0, 1), BuildingBlock: UVAHIK_clean_linker_0, # of connection points: 2
#     Edge 14, Type (0, 1), BuildingBlock: UVAHIK_clean_linker_0, # of connection points: 2
#     Edge 15, Type (0, 1), BuildingBlock: UVAHIK_clean_linker_0, # of connection points: 2
#     Edge 16, Type (0, 1), BuildingBlock: UVAHIK_clean_linker_0, # of connection points: 2
#     Edge 17, Type (0, 1), BuildingBlock: UVAHIK_clean_linker_0, # of connection points: 2
# Relax obj value: 0.165
# Max RMSD: 0.156
# Mean RMSD: 0.095
data_MOF--net-tsx--node1-FUNLAD_clean_sbu_0--node2-KAKCAD_clean_linker_0--edge1-UVAHIK_clean_linker_0
_symmetry_space_group_name_H-M    P1
_symmetry_Int_Tables_number       1
_symmetry_cell_setting            triclinic
loop_
_symmetry_equiv_pos_as_xyz
'x, y, z'
_cell_length_a     29.214557
_cell_length_b     32.296936
_cell_length_c     60.238804
_cell_angle_alpha  91.271897
_cell_angle_beta   91.969106
_cell_angle_gamma 89.958312
loop_
_atom_site_label
_atom_site_type_symbol
_atom_site_fract_x
_atom_site_fract_y
_atom_site_fract_z
_atom_type_partial_charge
C0 C 0.93564 0.9611 0.00558 0.0
N1 N 0.01086 0.02136 0.05713 0.0
C2 C 0.9711 0.02375 0.06821 0.0
C3 C 0.97166 0.02242 0.09136 0.0
C4 C 0.01351 0.01837 0.10329 0.0
C5 C 0.0541 0.01635 0.09145 0.0
C6 C 0.05199 0.01803 0.06827 0.0
Zn7 Zn 0.00753 0.02032 0.02311 0.0
C8 C 0.06736 0.9559 0.00404 0.0
N9 N -0.00196 0.01634 0.95207 0.0
C10 C 0.9569 0.01549 0.94076 0.0
C11 C 0.03805 0.01541 0.94115 0.0
C12 C 0.03773 0.01372 0.91799 0.0
C13 C -0.00417 0.01267 0.90586 0.0
C14 C 0.955 0.01348 0.91752 0.0
Zn15 Zn 0.00119 0.0182 0.9861 0.0
O16 O 0.95444 0.97589 0.02337 0.0
C17 C 0.94016 0.08176 0.00538 0.0
O18 O 0.94845 0.97369 0.98695 0.0
H19 H 0.07041 0.01576 0.95043 0.0
H20 H 0.93873 0.02605 0.05907 0.0
H21 H 0.9255 0.01631 0.94976 0.0
O22 O 0.95859 0.06848 0.02327 0.0
O23 O 0.95204 0.06635 0.98683 0.0
H24 H 0.0832 0.0162 0.05914 0.0
O25 O 0.05433 0.06244 0.98577 0.0
O26 O 0.06115 0.06435 0.02218 0.0
O27 O 0.04996 0.96974 0.98605 0.0
O28 O 0.05582 0.97188 0.02246 0.0
C29 C 0.07416 0.07647 0.00346 0.0
H30 H 0.93951 0.02353 0.09978 0.0
H31 H 0.08713 0.01364 0.10002 0.0
H32 H 0.07 0.01256 0.90967 0.0
H33 H 0.92197 0.01306 0.90878 0.0
C34 C 0.43553 0.45814 0.50532 0.0
N35 N 0.50712 0.51973 0.55763 0.0
C36 C 0.46716 0.52048 0.56859 0.0
C37 C 0.46752 0.51881 0.59173 0.0
C38 C 0.50939 0.51609 0.60377 0.0
C39 C 0.55017 0.51564 0.59206 0.0
C40 C 0.54825 0.51763 0.56888 0.0
Zn41 Zn 0.50421 0.51956 0.52359 0.0
C42 C 0.56721 0.458 0.50419 0.0
N43 N 0.49576 0.51734 0.45249 0.0
C44 C 0.45468 0.51519 0.44116 0.0
C45 C 0.53577 0.51816 0.44158 0.0
C46 C 0.53548 0.51686 0.41841 0.0
C47 C 0.49364 0.51438 0.40626 0.0
C48 C 0.45284 0.5135 0.41792 0.0
Zn49 Zn 0.4986 0.51833 0.48654 0.0
O50 O 0.45343 0.47295 0.52331 0.0
C51 C 0.43464 0.57913 0.5061 0.0
O52 O 0.44787 0.47199 0.48688 0.0
H53 H 0.56808 0.51953 0.45087 0.0
H54 H 0.43482 0.5218 0.55935 0.0
H55 H 0.42328 0.51465 0.45015 0.0
O56 O 0.45306 0.56572 0.52395 0.0
O57 O 0.44753 0.56478 0.48749 0.0
H58 H 0.57962 0.51711 0.55985 0.0
O59 O 0.54971 0.5644 0.48671 0.0
O60 O 0.55541 0.56592 0.52316 0.0
O61 O 0.54933 0.47167 0.48627 0.0
O62 O 0.55487 0.47309 0.5227 0.0
C63 C 0.56822 0.579 0.5046 0.0
H64 H 0.43526 0.5187 0.60006 0.0
H65 H 0.5832 0.51396 0.60072 0.0
H66 H 0.56776 0.51705 0.41008 0.0
H67 H 0.41984 0.51197 0.40918 0.0
C68 C 0.97627 0.94086 0.35037 0.0
C69 C 0.98124 0.97928 0.34017 0.0
C70 C 0.97024 0.93896 0.3733 0.0
C71 C 0.96914 0.97544 0.38647 0.0
C72 C 0.97508 0.01371 0.37626 0.0
C73 C 0.98096 0.0156 0.35342 0.0
C74 C 0.96169 0.97404 0.41076 0.0
C75 C 0.98381 0.94434 0.42403 0.0
C76 C 0.97915 0.94505 0.44722 0.0
C77 C 0.9516 0.97543 0.45707 0.0
C78 C 0.92917 0.00516 0.44405 0.0
C79 C 0.93393 0.00394 0.42093 0.0
C80 C 0.90266 0.03887 0.45462 0.0
C81 C 0.87237 0.0306 0.4716 0.0
C82 C 0.90781 0.07982 0.44774 0.0
C83 C 0.8827 0.11177 0.45736 0.0
C84 C 0.85188 0.10354 0.4741 0.0
C85 C 0.00586 0.91605 0.46128 0.0
C86 C 0.00867 0.87394 0.45525 0.0
C87 C 0.03086 0.93085 0.48017 0.0
C88 C 0.05971 0.90442 0.49219 0.0
C89 C 0.06437 0.86273 0.48549 0.0
C90 C 0.03759 0.84752 0.46725 0.0
C91 C 0.84705 0.06265 0.4812 0.0
H92 H 0.97602 0.91234 0.34057 0.0
H93 H 0.96549 0.90901 0.38063 0.0
H94 H 0.97558 0.04235 0.38597 0.0
H95 H 0.98567 0.04562 0.34616 0.0
H96 H 0.00647 0.92194 0.41648 0.0
H97 H 0.91591 0.02646 0.41082 0.0
H98 H 0.94857 0.97656 0.47495 0.0
H99 H 0.86769 -0.00072 0.47718 0.0
H100 H 0.93141 0.08722 0.43492 0.0
H101 H 0.88672 0.14284 0.45131 0.0
H102 H 0.98939 0.86168 0.44089 0.0
H103 H 0.02946 0.96323 0.48519 0.0
H104 H 0.82371 0.05546 0.49416 0.0
H105 H 0.04071 0.81569 0.46147 0.0
H106 H 0.07941 0.91694 0.50635 0.0
C107 C 0.02962 0.018 0.65565 0.0
C108 C 0.02869 0.98148 0.66786 0.0
C109 C 0.03501 0.01636 0.63272 0.0
C110 C 0.03989 0.97814 0.62139 0.0
C111 C 0.03859 0.94152 0.63357 0.0
C112 C 0.03295 0.94317 0.65656 0.0
C113 C 0.04594 0.97681 0.59694 0.0
C114 C 0.07297 0.00673 0.58702 0.0
C115 C 0.07644 0.00771 0.56384 0.0
C116 C 0.05336 0.9778 0.55048 0.0
C117 C 0.02662 0.94738 0.56006 0.0
C118 C 0.02322 0.94693 0.5833 0.0
C119 C -0.00046 0.91788 0.5458 0.0
C120 C 0.97295 0.93211 0.52764 0.0
C121 C -0.00212 0.87582 0.55104 0.0
C122 C 0.96836 0.8489 0.53911 0.0
C123 C 0.93983 0.86356 0.52171 0.0
C124 C 0.10252 0.04117 0.55359 0.0
C125 C 0.098 0.08226 0.56131 0.0
C126 C 0.13172 0.03249 0.53601 0.0
C127 C 0.15654 0.06427 0.52663 0.0
C128 C 0.15231 0.10532 0.53455 0.0
C129 C 0.12261 0.11397 0.55191 0.0
C130 C 0.94349 0.90517 0.51566 0.0
H131 H 0.02556 0.04795 0.6638 0.0
H132 H 0.03474 0.04513 0.62382 0.0
H133 H 0.04265 0.9116 0.62541 0.0
H134 H 0.03277 0.91451 0.66556 0.0
H135 H 0.09152 0.02937 0.59737 0.0
H136 H 0.00108 0.9245 0.59066 0.0
H137 H 0.05535 0.97874 0.53256 0.0
H138 H 0.97355 0.96442 0.52321 0.0
H139 H 0.01843 0.864 0.56481 0.0
H140 H 0.96611 0.81714 0.54437 0.0
H141 H 0.07524 0.08997 0.57462 0.0
H142 H 0.13594 0.00105 0.52977 0.0
H143 H 0.92247 0.91725 0.50213 0.0
H144 H 0.11909 0.14518 0.55858 0.0
H145 H 0.17901 0.05676 0.51319 0.0
C146 C 0.474 0.43784 0.85094 0.0
C147 C 0.47844 0.47633 0.84075 0.0
C148 C 0.46812 0.4358 0.87388 0.0
C149 C 0.46666 0.47223 0.88708 0.0
C150 C 0.47209 0.51059 0.87689 0.0
C151 C 0.47779 0.51261 0.85404 0.0
C152 C 0.45937 0.47068 0.91139 0.0
C153 C 0.48174 0.44102 0.92461 0.0
C154 C 0.47726 0.44162 0.94781 0.0
C155 C 0.44966 0.47188 0.95773 0.0
C156 C 0.42699 0.50157 0.94478 0.0
C157 C 0.43154 0.50042 0.92165 0.0
C158 C 0.40049 0.5352 0.95543 0.0
C159 C 0.37045 0.52685 0.97251 0.0
C160 C 0.40544 0.57617 0.94855 0.0
C161 C 0.38035 0.60805 0.95825 0.0
C162 C 0.34975 0.59974 0.97507 0.0
C163 C 0.5043 0.41272 0.96181 0.0
C164 C 0.50756 0.37068 0.95568 0.0
C165 C 0.52923 0.42758 0.9807 0.0
C166 C 0.55854 0.40136 0.9926 0.0
C167 C 0.56386 0.35983 0.98571 0.0
C168 C 0.53701 0.34447 0.96752 0.0
C169 C 0.34515 0.55883 0.98219 0.0
H170 H 0.47405 0.40935 0.84112 0.0
H171 H 0.46376 0.40579 0.88119 0.0
H172 H 0.47232 0.53921 0.88661 0.0
H173 H 0.48208 0.54269 0.84678 0.0
H174 H 0.50448 0.41875 0.91699 0.0
H175 H 0.41331 0.52289 0.91159 0.0
H176 H 0.4468 0.47299 0.97563 0.0
H177 H 0.36594 0.49551 0.97811 0.0
H178 H 0.42886 0.58364 0.93567 0.0
H179 H 0.38419 0.63913 0.95218 0.0
H180 H 0.48831 0.35834 0.94134 0.0
H181 H 0.52745 0.45989 0.98582 0.0
H182 H 0.32198 0.55158 0.99521 0.0
H183 H 0.54055 0.31275 0.96163 0.0
H184 H 0.57818 0.41396 0.00676 0.0
C185 C 0.51837 0.52396 0.15549 0.0
C186 C 0.52023 0.48744 0.16773 0.0
C187 C 0.52316 0.52262 0.1325 0.0
C188 C 0.53026 0.48474 0.12116 0.0
C189 C 0.53165 0.44811 0.13337 0.0
C190 C 0.52657 0.44944 0.15641 0.0
C191 C 0.53624 0.48377 0.09669 0.0
C192 C 0.56131 0.51505 0.08674 0.0
C193 C 0.56533 0.51584 0.06358 0.0
C194 C 0.54461 0.48449 0.05027 0.0
C195 C 0.51987 0.45273 0.05989 0.0
C196 C 0.51594 0.45246 0.0831 0.0
C197 C 0.49597 0.42104 0.04567 0.0
C198 C 0.46847 0.43284 0.02729 0.0
C199 C 0.4986 0.37904 0.05105 0.0
C200 C 0.47255 0.34961 0.03894 0.0
C201 C 0.44315 0.36164 0.02125 0.0
C202 C 0.59048 0.54997 0.05336 0.0
C203 C 0.58453 0.591 0.06094 0.0
C204 C 0.62094 0.54184 0.03624 0.0
C205 C 0.64583 0.57403 0.02729 0.0
C206 C 0.64054 0.61497 0.03521 0.0
C207 C 0.60928 0.62313 0.05197 0.0
C208 C 0.44233 0.40342 0.01519 0.0
H209 H 0.51268 0.55364 0.16367 0.0
H210 H 0.52083 0.55135 0.12359 0.0
H211 H 0.53751 0.41846 0.12521 0.0
H212 H 0.52856 0.42081 0.16542 0.0
H213 H 0.57825 0.5387 0.09708 0.0
H214 H 0.49545 0.42877 0.09046 0.0
H215 H 0.54717 0.48507 0.03236 0.0
H216 H 0.46585 0.46505 0.02276 0.0
H217 H 0.51996 0.36912 0.065 0.0
H218 H 0.47367 0.31778 0.04422 0.0
H219 H 0.56081 0.59829 0.07389 0.0
H220 H 0.62633 0.51048 0.03012 0.0
H221 H 0.4205 0.41355 0.00146 0.0
H222 H 0.60482 0.65425 0.05863 0.0
H223 H 0.66942 0.56686 0.01426 0.0
C224 C 0.12703 0.11893 0.98134 0.0
C225 C 0.11319 0.10532 0.0021 0.0
C226 C 0.165 0.14485 0.9799 0.0
C227 C 0.27031 0.17772 0.0108 0.0
H228 H 0.26374 0.27346 0.97308 0.0
C229 C 0.36377 0.34354 0.00753 0.0
C230 C 0.40968 0.33163 0.01112 0.0
C231 C 0.33029 0.31407 0.00179 0.0
C232 C 0.26615 0.24673 0.9836 0.0
H233 H 0.12818 0.10852 0.03762 0.0
H234 H 0.19423 0.15408 0.03509 0.0
H235 H 0.19894 0.2258 0.97351 0.0
H236 H 0.45706 0.28001 0.00962 0.0
H237 H 0.3983 0.22832 0.99971 0.0
H238 H 0.3367 0.19941 0.02156 0.0
C239 C 0.17601 0.14425 0.01992 0.0
C240 C 0.22918 0.21931 0.98375 0.0
C241 C 0.13794 0.11843 0.02138 0.0
C242 C 0.42182 0.28998 0.0074 0.0
C243 C 0.38823 0.26043 0.00172 0.0
C244 C 0.30729 0.20503 0.01061 0.0
C245 C 0.19007 0.15758 0.99916 0.0
C246 C 0.23053 0.18498 0.9977 0.0
C247 C 0.34192 0.27201 0.99956 0.0
C248 C 0.30527 0.24027 0.99733 0.0
H249 H 0.10878 0.10929 0.96614 0.0
H250 H 0.1752 0.15437 0.96366 0.0
H251 H 0.27262 0.15117 0.02147 0.0
H252 H 0.35309 0.37523 0.01052 0.0
H253 H 0.29489 0.32397 1.00048 0.0
C254 C 0.10975 0.9011 0.98322 0.0
C255 C 0.09886 0.92015 0.00356 0.0
C256 C 0.13697 0.86562 0.98279 0.0
C257 C 0.22098 0.80559 0.01562 0.0
H258 H 0.18396 0.717 0.97434 0.0
C259 C 0.27423 0.62773 0.98695 0.0
C260 C 0.32133 0.6336 0.98425 0.0
C261 C 0.24637 0.6611 0.99282 0.0
C262 C 0.19444 0.74115 0.9862 0.0
H263 H 0.10895 0.91753 0.03937 0.0
H264 H 0.15645 0.85537 0.03856 0.0
H265 H 0.137 0.779 0.97719 0.0
H266 H 0.37673 0.67827 0.98706 0.0
H267 H 0.32801 0.73664 0.99687 0.0
H268 H 0.2785 0.76757 0.02461 0.0
C269 C 0.14405 0.86806 0.02298 0.0
C270 C 0.16788 0.77693 0.98759 0.0
C271 C 0.11673 0.90356 0.02343 0.0
C272 C 0.3404 0.67298 0.9887 0.0
C273 C 0.31257 0.7063 0.99457 0.0
C274 C 0.24766 0.76975 0.0142 0.0
C275 C 0.15392 0.84843 0.00266 0.0
C276 C 0.18119 0.80976 0.00208 0.0
C277 C 0.26508 0.70094 0.99612 0.0
C278 C 0.23492 0.73737 0.99928 0.0
H279 H 0.09673 0.91323 0.96761 0.0
H280 H 0.14472 0.85159 0.96685 0.0
H281 H 0.23215 0.83045 0.02689 0.0
H282 H 0.25851 0.59779 0.98355 0.0
H283 H 0.20996 0.65592 0.9942 0.0
C284 C 0.88171 0.90974 0.98704 0.0
C285 C 0.90115 0.92784 0.00661 0.0
C286 C 0.85189 0.87607 0.98809 0.0
C287 C 0.82453 0.79083 0.02462 0.0
H288 H 0.71297 0.78057 0.98812 0.0
C289 C 0.65035 0.68829 0.02332 0.0
C290 C 0.6692 0.64888 0.02702 0.0
C291 C 0.67837 0.72139 0.01801 0.0
C292 C 0.74402 0.78307 0.99841 0.0
H293 H 0.90324 0.92582 0.04263 0.0
H294 H 0.85107 0.86737 0.04441 0.0
H295 H 0.76127 0.84196 0.98526 0.0
H296 H 0.73195 0.61293 0.02721 0.0
H297 H 0.78073 0.67056 0.01757 0.0
H298 H 0.80702 0.73262 0.03817 0.0
C299 C 0.85944 0.87877 0.02827 0.0
C300 C 0.77179 0.81802 0.99666 0.0
C301 C 0.8891 0.91242 0.02723 0.0
C302 C 0.71634 0.64285 0.02434 0.0
C303 C 0.74435 0.67594 0.01906 0.0
C304 C 0.79696 0.75592 0.02631 0.0
C305 C 0.8411 0.85982 0.00871 0.0
C306 C 0.81206 0.82242 0.00994 0.0
C307 C 0.72582 0.71576 0.01633 0.0
C308 C 0.75624 0.75178 0.01335 0.0
H309 H 0.89029 0.92095 0.97089 0.0
H310 H 0.83842 0.86195 0.97275 0.0
H311 H 0.85572 0.79308 0.03484 0.0
H312 H 0.61403 0.69375 0.02499 0.0
H313 H 0.66311 0.75174 0.01613 0.0
C314 C 0.88531 0.13043 0.98664 0.0
C315 C 0.90386 0.11358 0.00627 0.0
C316 C 0.8497 0.15921 0.98746 0.0
C317 C 0.75548 0.1941 0.02194 0.0
H318 H 0.75644 0.28989 0.98429 0.0
C319 C 0.64488 0.35143 0.99961 0.0
C320 C 0.6012 0.33409 0.99547 0.0
C321 C 0.68228 0.32625 0.00493 0.0
C322 C 0.75588 0.26361 0.99514 0.0
H323 H 0.89979 0.11392 0.0422 0.0
H324 H 0.83755 0.16425 0.04357 0.0
H325 H 0.82187 0.24318 0.98516 0.0
H326 H 0.56184 0.2772 0.99549 0.0
H327 H 0.62752 0.233 0.00441 0.0
H328 H 0.68913 0.21448 0.03175 0.0
C329 C 0.85046 0.15498 0.02757 0.0
C330 C 0.79313 0.2366 0.99542 0.0
C331 C 0.88629 0.12638 0.02676 0.0
C332 C 0.59522 0.29135 0.99825 0.0
C333 C 0.63274 0.26611 0.00356 0.0
C334 C 0.71799 0.22106 0.02157 0.0
C335 C 0.83173 0.17159 0.00792 0.0
C336 C 0.79314 0.20134 0.00863 0.0
C337 C 0.67691 0.28317 0.00618 0.0
C338 C 0.71769 0.25594 0.00804 0.0
H339 H 0.89799 0.12113 0.97059 0.0
H340 H 0.83558 0.17117 0.97202 0.0
H341 H 0.75445 0.16698 0.03218 0.0
H342 H 0.65084 0.38417 0.99746 0.0
H343 H 0.71579 0.34035 0.00723 0.0
C344 C 0.62438 0.62815 0.52325 0.0
C345 C 0.60496 0.61026 0.50366 0.0
C346 C 0.65965 0.65714 0.52226 0.0
C347 C 0.75075 0.69234 0.48658 0.0
H348 H 0.7499 0.78966 0.52542 0.0
C349 C 0.85819 0.85313 0.50902 0.0
C350 C 0.90258 0.83689 0.51203 0.0
C351 C 0.82116 0.82697 0.50397 0.0
C352 C 0.75039 0.76296 0.51422 0.0
H353 H 0.6073 0.60878 0.46765 0.0
H354 H 0.66879 0.65949 0.466 0.0
H355 H 0.686 0.74136 0.52523 0.0
H356 H 0.94346 0.78093 0.51016 0.0
H357 H 0.8785 0.73503 0.50177 0.0
H358 H 0.81541 0.71401 0.47567 0.0
C359 C 0.65692 0.65085 0.48209 0.0
C360 C 0.71405 0.73502 0.51435 0.0
C361 C 0.62151 0.62201 0.48306 0.0
C362 C 0.90954 0.79426 0.5083 0.0
C363 C 0.8724 0.76804 0.50329 0.0
C364 C 0.78729 0.72028 0.48652 0.0
C365 C 0.67634 0.66871 0.50168 0.0
C366 C 0.71406 0.69921 0.50072 0.0
C367 C 0.82763 0.78399 0.50188 0.0
C368 C 0.78761 0.75573 0.50047 0.0
H369 H 0.6125 0.61966 0.53936 0.0
H370 H 0.67436 0.67003 0.53765 0.0
H371 H 0.75179 0.66485 0.47599 0.0
H372 H 0.85148 0.88576 0.51189 0.0
H373 H 0.78714 0.84024 0.50258 0.0
C374 C 0.61785 0.40626 0.5233 0.0
C375 C 0.59986 0.42312 0.50353 0.0
C376 C 0.6458 0.37117 0.52265 0.0
C377 C 0.67044 0.28116 0.4867 0.0
H378 H 0.78074 0.27111 0.52388 0.0
C379 C 0.84268 0.17677 0.48776 0.0
C380 C 0.82349 0.13748 0.48322 0.0
C381 C 0.81492 0.21015 0.49364 0.0
C382 C 0.74999 0.2735 0.51343 0.0
H383 H 0.59836 0.41728 0.46754 0.0
H384 H 0.64741 0.35637 0.46643 0.0
H385 H 0.73434 0.33395 0.52643 0.0
H386 H 0.76054 0.10185 0.48233 0.0
H387 H 0.71211 0.16006 0.49299 0.0
H388 H 0.6866 0.22145 0.47318 0.0
C389 C 0.63927 0.36985 0.48244 0.0
C390 C 0.7233 0.3093 0.51499 0.0
C391 C 0.61144 0.40492 0.48308 0.0
C392 C 0.77634 0.13173 0.48581 0.0
C393 C 0.74855 0.16513 0.49168 0.0
C394 C 0.697 0.24541 0.48518 0.0
C395 C 0.65617 0.35224 0.50221 0.0
C396 C 0.68361 0.3137 0.5014 0.0
C397 C 0.7674 0.2049 0.4951 0.0
C398 C 0.73734 0.24137 0.49833 0.0
H399 H 0.60956 0.4196 0.53933 0.0
H400 H 0.65818 0.35816 0.53815 0.0
H401 H 0.63964 0.2834 0.47626 0.0
H402 H 0.87904 0.18197 0.4862 0.0
H403 H 0.83045 0.24043 0.49604 0.0
C404 C 0.39183 0.4062 0.52621 0.0
C405 C 0.40285 0.42336 0.50585 0.0
C406 C 0.364 0.37121 0.52672 0.0
C407 C 0.27873 0.3093 0.49441 0.0
H408 H 0.31748 0.22314 0.53479 0.0
C409 C 0.22706 0.13303 0.52216 0.0
C410 C 0.18017 0.13898 0.52558 0.0
C411 C 0.2545 0.16617 0.51632 0.0
C412 C 0.30649 0.24662 0.5232 0.0
H413 H 0.39208 0.41809 0.47006 0.0
H414 H 0.34335 0.35679 0.47101 0.0
H415 H 0.36433 0.28489 0.53182 0.0
H416 H 0.12464 0.18353 0.52413 0.0
H417 H 0.17267 0.24156 0.51431 0.0
H418 H 0.22073 0.27087 0.48586 0.0
C419 C 0.35625 0.37055 0.48655 0.0
C420 C 0.333 0.28224 0.52173 0.0
C421 C 0.38425 0.40555 0.48602 0.0
C422 C 0.16083 0.17819 0.52192 0.0
C423 C 0.18823 0.2113 0.51605 0.0
C424 C 0.25205 0.27363 0.49594 0.0
C425 C 0.3465 0.35266 0.50689 0.0
C426 C 0.31911 0.31418 0.50756 0.0
C427 C 0.23555 0.20586 0.51374 0.0
C428 C 0.26545 0.24212 0.51053 0.0
H429 H 0.40539 0.4193 0.54179 0.0
H430 H 0.35635 0.35852 0.54267 0.0
H431 H 0.26716 0.33349 0.48338 0.0
H432 H 0.24298 0.10321 0.52495 0.0
H433 H 0.29078 0.16096 0.51436 0.0
C434 C 0.37975 0.62787 0.48748 0.0
C435 C 0.39792 0.61052 0.50705 0.0
C436 C 0.34455 0.65704 0.48838 0.0
C437 C 0.25094 0.69349 0.52284 0.0
H438 H 0.2553 0.78974 0.48563 0.0
C439 C 0.09381 0.79394 0.4985 0.0
C440 C 0.10086 0.8365 0.4956 0.0
C441 C 0.1306 0.76809 0.50415 0.0
C442 C 0.2538 0.76336 0.49638 0.0
H443 H 0.39337 0.61012 0.54295 0.0
H444 H 0.33182 0.66113 0.54446 0.0
H445 H 0.31934 0.74154 0.48653 0.0
H446 H 0.15155 0.8857 0.49785 0.0
H447 H 0.2152 0.84085 0.50824 0.0
H448 H 0.18505 0.7153 0.53251 0.0
C449 C 0.34473 0.65197 0.52844 0.0
C450 C 0.29025 0.73548 0.49666 0.0
C451 C 0.38015 0.62296 0.52756 0.0
C452 C 0.14478 0.85311 0.50004 0.0
C453 C 0.18145 0.82733 0.50573 0.0
C454 C 0.21427 0.72135 0.52248 0.0
C455 C 0.32663 0.66933 0.50886 0.0
C456 C 0.28897 0.70001 0.50966 0.0
C457 C 0.17507 0.78437 0.50703 0.0
C458 C 0.21518 0.75639 0.50908 0.0
H459 H 0.39259 0.61886 0.47142 0.0
H460 H 0.33086 0.66953 0.47299 0.0
H461 H 0.24896 0.66626 0.53294 0.0
H462 H 0.0602 0.78035 0.49554 0.0
H463 H 0.12459 0.73509 0.50503 0.0
C464 C 0.98629 0.04104 0.14072 0.0
C465 C 0.01449 0.01541 0.12788 0.0
C466 C 0.98576 0.03718 0.16376 0.0
C467 C 0.00981 0.96303 0.20816 0.0
H468 H 0.00518 0.06074 0.24658 0.0
C469 C 0.01497 0.95445 0.30434 0.0
C470 C 0.98616 0.98186 0.31576 0.0
C471 C 0.02051 0.95805 0.28147 0.0
C472 C 0.00597 0.03312 0.23607 0.0
H473 H 0.06438 0.9657 0.12923 0.0
H474 H 0.06375 0.95922 0.16955 0.0
H475 H 0.01177 0.06849 0.20668 0.0
H476 H 0.9393 0.03352 0.31197 0.0
H477 H 0.9486 0.03958 0.27219 0.0
H478 H 0.0034 0.92765 0.23754 0.0
C479 C 0.04185 0.98213 0.16173 0.0
C480 C 0.00983 0.03758 0.2132 0.0
C481 C 0.04257 0.98615 0.13867 0.0
C482 C 0.96244 0.01244 0.30374 0.0
C483 C 0.96786 0.01596 0.28093 0.0
C484 C 0.00581 0.95855 0.23106 0.0
C485 C 0.01328 0.00749 0.17452 0.0
C486 C 0.01138 0.00261 0.19895 0.0
C487 C -0.00277 0.98906 0.26952 0.0
C488 C 0.00339 -0.00644 0.24527 0.0
H489 H 0.96458 0.06414 0.13293 0.0
H490 H 0.96305 0.05693 0.1731 0.0
H491 H 0.0104 0.93547 0.19759 0.0
H492 H 0.03404 0.93082 0.31317 0.0
H493 H 0.04373 0.93707 0.27324 0.0
C494 C 0.9652 0.98326 0.86932 0.0
C495 C -0.00496 0.01053 0.88119 0.0
C496 C 0.96596 0.98013 0.84613 0.0
C497 C 0.00139 0.0361 0.79682 0.0
H498 H 0.00312 0.92716 0.76846 0.0
C499 C 0.04796 0.0133 0.70536 0.0
C500 C 0.02353 0.98363 0.69232 0.0
C501 C 0.04248 0.01621 0.72828 0.0
C502 C 0.00201 0.95783 0.77606 0.0
H503 H 0.04811 0.05669 0.87801 0.0
H504 H 0.04955 0.05113 0.83761 0.0
H505 H -0.00407 0.93352 0.80864 0.0
H506 H 0.97411 0.93371 0.69312 0.0
H507 H 0.96417 0.93897 0.73319 0.0
H508 H 0.00736 0.06053 0.76435 0.0
C509 C 0.02553 0.03221 0.8462 0.0
C510 C -0.00208 0.96145 0.79909 0.0
C511 C 0.02502 0.03511 0.86935 0.0
C512 C -0.00622 0.95661 0.70276 0.0
C513 C 0.98812 0.95963 0.72572 0.0
C514 C 0.00525 0.0325 0.77381 0.0
C515 C -0.00376 0.00449 0.83432 0.0
C516 C -0.00193 0.00062 0.80975 0.0
C517 C 0.01226 0.98962 0.73875 0.0
C518 C 0.00614 -0.00668 0.76315 0.0
H519 H 0.94194 0.9637 0.87799 0.0
H520 H 0.94272 0.95873 0.83743 0.0
H521 H 0.00085 0.06673 0.8045 0.0
H522 H 0.07174 0.0341 0.69786 0.0
H523 H 0.0624 0.03906 0.73783 0.0
C524 C 0.48106 0.53778 0.64114 0.0
C525 C 0.51024 0.51302 0.62836 0.0
C526 C 0.48056 0.5339 0.66419 0.0
C527 C 0.50688 0.46058 0.70869 0.0
H528 H 0.49968 0.55825 0.74701 0.0
C529 C 0.51241 0.45208 0.80488 0.0
C530 C 0.48318 0.47904 0.81634 0.0
C531 C 0.51775 0.45579 0.782 0.0
C532 C 0.50117 0.53062 0.73654 0.0
H533 H 0.56187 0.4648 0.6298 0.0
H534 H 0.56122 0.45822 0.67013 0.0
H535 H 0.50585 0.56603 0.70709 0.0
H536 H 0.43541 0.53003 0.81262 0.0
H537 H 0.44429 0.53623 0.77282 0.0
H538 H 0.50151 0.42513 0.73811 0.0
C539 C 0.53856 0.48049 0.66226 0.0
C540 C 0.50481 0.53511 0.71366 0.0
C541 C 0.53927 0.48456 0.6392 0.0
C542 C 0.45886 0.50929 0.80436 0.0
C543 C 0.46405 0.5129 0.78153 0.0
C544 C 0.50306 0.45606 0.7316 0.0
C545 C 0.50907 0.50503 0.675 0.0
C546 C 0.50732 0.50016 0.69944 0.0
C547 C 0.49383 0.48645 0.77007 0.0
C548 C 0.49972 0.49104 0.74579 0.0
H549 H 0.45858 0.56025 0.63331 0.0
H550 H 0.45715 0.553 0.67349 0.0
H551 H 0.50824 0.43303 0.69815 0.0
H552 H 0.53194 0.42871 0.81369 0.0
H553 H 0.54131 0.43517 0.77375 0.0
C554 C 0.52156 0.53822 0.36975 0.0
C555 C 0.49285 0.51241 0.38159 0.0
C556 C 0.52188 0.53565 0.34658 0.0
C557 C 0.49661 0.46466 0.29926 0.0
H558 H 0.49968 0.56459 0.26484 0.0
C559 C 0.48841 0.4608 0.20297 0.0
C560 C 0.51597 0.48929 0.19224 0.0
C561 C 0.48373 0.46335 0.226 0.0
C562 C 0.49939 0.53635 0.2742 0.0
H563 H 0.44194 0.46364 0.37837 0.0
H564 H 0.44242 0.45922 0.3378 0.0
H565 H 0.49453 0.56988 0.30509 0.0
H566 H 0.56132 0.54198 0.19736 0.0
H567 H 0.55378 0.5461 0.23747 0.0
H568 H 0.50228 0.43109 0.26844 0.0
C569 C 0.46477 0.48135 0.34651 0.0
C570 C 0.49631 0.53942 0.29727 0.0
C571 C 0.46418 0.48416 0.36971 0.0
C572 C 0.53921 0.52001 0.20508 0.0
C573 C 0.53476 0.52243 0.22809 0.0
C574 C 0.49996 0.46157 0.27617 0.0
C575 C 0.49372 0.50702 0.33469 0.0
C576 C 0.49518 0.50363 0.31008 0.0
C577 C 0.50674 0.49431 0.23885 0.0
C578 C 0.50172 0.4974 0.26336 0.0
H579 H 0.54373 0.56056 0.37842 0.0
H580 H 0.54485 0.55559 0.33797 0.0
H581 H 0.49634 0.43652 0.30871 0.0
H582 H 0.46969 0.43705 0.19349 0.0
H583 H 0.46143 0.44149 0.23368 0.0
loop_
_geom_bond_atom_site_label_1
_geom_bond_atom_site_label_2
_geom_bond_distance
_geom_bond_site_symmetry_2
_ccdc_geom_bond_type
C0 O16 1.251 . S
C0 O18 1.254 1_554 S
N1 C2 1.333 1_445 S
N1 C6 1.307 . S
N1 Zn7 2.020 . S
C2 N1 1.333 1_665 S
C2 C3 1.379 . S
C2 H20 0.952 . S
C3 C2 1.379 . S
C3 C4 1.390 1_665 S
C3 H30 0.949 . S
C4 C3 1.390 1_445 S
C4 C5 1.357 . S
C5 C4 1.357 . S
C5 C6 1.370 . S
C5 H31 0.950 . S
C6 N1 1.307 . S
C6 C5 1.370 . S
C6 H24 0.948 . S
Zn7 N1 2.020 . S
Zn7 O16 2.039 1_445 S
Zn7 O22 2.034 1_455 S
Zn7 O26 2.025 . S
Zn7 O28 2.024 1_545 S
C8 O27 1.246 1_554 S
C8 O28 1.249 . S
N9 C10 1.307 1_445 S
N9 C11 1.333 . S
N9 Zn15 2.020 . S
C10 N9 1.307 1_665 S
C10 C14 1.370 . S
C10 H21 0.948 . S
C11 N9 1.333 . S
C11 C12 1.379 . S
C11 H19 0.952 . S
C12 C11 1.379 . S
C12 C13 1.390 . S
C12 H32 0.949 . S
C13 C12 1.390 . S
C13 C14 1.357 1_445 S
C14 C10 1.370 . S
C14 C13 1.357 1_665 S
C14 H33 0.950 . S
Zn15 N9 2.020 . S
Zn15 O18 2.025 1_445 S
Zn15 O23 2.024 1_455 S
Zn15 O25 2.039 . S
Zn15 O27 2.034 1_545 S
O16 C0 1.251 . S
O16 Zn7 2.039 1_665 S
C17 O22 1.246 . S
C17 O23 1.249 1_554 S
O18 C0 1.254 1_556 S
O18 Zn15 2.025 1_665 S
H19 C11 0.952 . S
H20 C2 0.952 . S
H21 C10 0.948 . S
O22 Zn7 2.034 1_655 S
O22 C17 1.246 . S
O23 Zn15 2.024 1_655 S
O23 C17 1.249 1_556 S
H24 C6 0.948 . S
O25 Zn15 2.039 . S
O25 C29 1.251 1_556 S
O26 Zn7 2.025 . S
O26 C29 1.254 . S
O27 C8 1.246 1_556 S
O27 Zn15 2.034 1_565 S
O28 Zn7 2.024 1_565 S
O28 C8 1.249 . S
C29 O25 1.251 1_554 S
C29 O26 1.254 . S
H30 C3 0.949 . S
H31 C5 0.950 . S
H32 C12 0.949 . S
H33 C14 0.950 . S
C34 O50 1.251 . S
C34 O52 1.254 . S
N35 C36 1.333 . S
N35 C40 1.307 . S
N35 Zn41 2.020 . S
C36 N35 1.333 . S
C36 C37 1.379 . S
C36 H54 0.952 . S
C37 C36 1.379 . S
C37 C38 1.390 . S
C37 H64 0.949 . S
C38 C37 1.390 . S
C38 C39 1.357 . S
C39 C38 1.357 . S
C39 C40 1.370 . S
C39 H65 0.950 . S
C40 N35 1.307 . S
C40 C39 1.370 . S
C40 H58 0.948 . S
Zn41 N35 2.020 . S
Zn41 O50 2.039 . S
Zn41 O56 2.034 . S
Zn41 O60 2.025 . S
Zn41 O62 2.024 . S
C42 O61 1.246 . S
C42 O62 1.249 . S
N43 C44 1.307 . S
N43 C45 1.333 . S
N43 Zn49 2.020 . S
C44 N43 1.307 . S
C44 C48 1.370 . S
C44 H55 0.948 . S
C45 N43 1.333 . S
C45 C46 1.379 . S
C45 H53 0.952 . S
C46 C45 1.379 . S
C46 C47 1.390 . S
C46 H66 0.949 . S
C47 C46 1.390 . S
C47 C48 1.357 . S
C48 C44 1.370 . S
C48 C47 1.357 . S
C48 H67 0.950 . S
Zn49 N43 2.020 . S
Zn49 O52 2.025 . S
Zn49 O57 2.024 . S
Zn49 O59 2.039 . S
Zn49 O61 2.034 . S
O50 C34 1.251 . S
O50 Zn41 2.039 . S
C51 O56 1.246 . S
C51 O57 1.249 . S
O52 C34 1.254 . S
O52 Zn49 2.025 . S
H53 C45 0.952 . S
H54 C36 0.952 . S
H55 C44 0.948 . S
O56 Zn41 2.034 . S
O56 C51 1.246 . S
O57 Zn49 2.024 . S
O57 C51 1.249 . S
H58 C40 0.948 . S
O59 Zn49 2.039 . S
O59 C63 1.251 . S
O60 Zn41 2.025 . S
O60 C63 1.254 . S
O61 C42 1.246 . S
O61 Zn49 2.034 . S
O62 Zn41 2.024 . S
O62 C42 1.249 . S
C63 O59 1.251 . S
C63 O60 1.254 . S
H64 C37 0.949 . S
H65 C39 0.950 . S
H66 C46 0.949 . S
H67 C48 0.950 . S
C68 C69 1.362 1_565 S
C68 C70 1.397 . S
C68 H92 0.931 . S
C69 C68 1.362 1_545 S
C69 C73 1.420 1_655 S
C70 C68 1.397 . S
C70 C71 1.403 1_655 S
C70 H93 0.930 . S
C71 C70 1.403 1_455 S
C71 C72 1.358 1_565 S
C71 C74 1.481 . S
C72 C71 1.358 1_545 S
C72 C73 1.389 . S
C72 H94 0.929 . S
C73 C69 1.420 1_455 S
C73 C72 1.389 . S
C73 H95 0.931 . S
C74 C71 1.481 . S
C74 C75 1.388 . S
C74 C79 1.389 1_465 S
C75 C74 1.388 . S
C75 C76 1.401 . S
C75 H96 0.930 . S
C76 C75 1.401 . S
C76 C77 1.371 1_455 S
C76 C85 1.511 . S
C77 C76 1.371 1_655 S
C77 C78 1.397 1_565 S
C77 H98 0.932 . S
C78 C77 1.397 1_545 S
C78 C79 1.361 . S
C78 C80 1.500 . S
C79 C74 1.389 1_645 S
C79 C78 1.361 . S
C79 H97 0.931 . S
C80 C78 1.500 . S
C80 C81 1.371 . S
C80 C82 1.365 . S
C81 C80 1.371 . S
C81 C91 1.386 . S
C81 H99 0.931 . S
C82 C80 1.365 . S
C82 C83 1.409 . S
C82 H100 0.929 . S
C83 C82 1.409 . S
C83 C84 1.380 . S
C83 H101 0.930 . S
C84 C83 1.380 . S
C84 C91 1.357 . S
C85 C76 1.511 . S
C85 C86 1.341 . S
C85 C87 1.371 . S
C86 C85 1.341 . S
C86 C90 1.394 . S
C86 H102 0.930 . S
C87 C85 1.371 . S
C87 C88 1.392 . S
C87 H103 0.931 . S
C88 C87 1.392 . S
C88 C89 1.331 . S
C88 H106 0.932 . S
C89 C88 1.331 . S
C89 C90 1.336 . S
C90 C86 1.394 . S
C90 C89 1.336 . S
C90 H105 0.929 . S
C91 C81 1.386 . S
C91 C84 1.357 . S
C91 H104 0.928 . S
H92 C68 0.931 . S
H93 C70 0.930 . S
H94 C72 0.929 . S
H95 C73 0.931 . S
H96 C75 0.930 . S
H97 C79 0.931 . S
H98 C77 0.932 . S
H99 C81 0.931 . S
H100 C82 0.929 . S
H101 C83 0.930 . S
H102 C86 0.930 . S
H103 C87 0.931 . S
H104 C91 0.928 . S
H105 C90 0.929 . S
H106 C88 0.932 . S
C107 C108 1.386 . S
C107 C109 1.397 . S
C107 H131 0.931 . S
C108 C107 1.386 . S
C108 C112 1.397 1_545 S
C109 C107 1.397 . S
C109 C110 1.384 . S
C109 H132 0.930 . S
C110 C109 1.384 . S
C110 C111 1.377 1_545 S
C110 C113 1.481 . S
C111 C110 1.377 1_565 S
C111 C112 1.389 . S
C111 H133 0.929 . S
C112 C108 1.397 1_565 S
C112 C111 1.389 . S
C112 H134 0.931 . S
C113 C110 1.481 . S
C113 C114 1.387 . S
C113 C118 1.390 1_445 S
C114 C113 1.387 . S
C114 C115 1.401 . S
C114 H135 0.930 . S
C115 C114 1.401 . S
C115 C116 1.376 . S
C115 C124 1.511 . S
C116 C115 1.376 . S
C116 C117 1.392 1_445 S
C116 H137 0.931 . S
C117 C116 1.392 1_665 S
C117 C118 1.361 . S
C117 C119 1.500 . S
C118 C113 1.390 1_665 S
C118 C117 1.361 . S
C118 H136 0.931 . S
C119 C117 1.500 . S
C119 C120 1.371 . S
C119 C121 1.365 . S
C120 C119 1.371 . S
C120 C130 1.386 . S
C120 H138 0.931 . S
C121 C119 1.365 . S
C121 C122 1.409 . S
C121 H139 0.929 . S
C122 C121 1.409 . S
C122 C123 1.380 . S
C122 H140 0.930 . S
C123 C122 1.380 . S
C123 C130 1.357 . S
C124 C115 1.511 . S
C124 C125 1.341 . S
C124 C126 1.371 . S
C125 C124 1.341 . S
C125 C129 1.394 . S
C125 H141 0.930 . S
C126 C124 1.371 . S
C126 C127 1.392 . S
C126 H142 0.931 . S
C127 C126 1.392 . S
C127 C128 1.331 . S
C127 H145 0.932 . S
C128 C127 1.331 . S
C128 C129 1.336 . S
C129 C125 1.394 . S
C129 C128 1.336 . S
C129 H144 0.929 . S
C130 C120 1.386 . S
C130 C123 1.357 . S
C130 H143 0.928 . S
H131 C107 0.931 . S
H132 C109 0.930 . S
H133 C111 0.929 . S
H134 C112 0.931 . S
H135 C114 0.930 . S
H136 C118 0.931 . S
H137 C116 0.931 . S
H138 C120 0.931 . S
H139 C121 0.929 . S
H140 C122 0.930 . S
H141 C125 0.930 . S
H142 C126 0.931 . S
H143 C130 0.928 . S
H144 C129 0.929 . S
H145 C127 0.932 . S
C146 C147 1.386 . S
C146 C148 1.397 . S
C146 H170 0.931 . S
C147 C146 1.386 . S
C147 C151 1.397 . S
C148 C146 1.397 . S
C148 C149 1.384 . S
C148 H171 0.930 . S
C149 C148 1.384 . S
C149 C150 1.377 . S
C149 C152 1.481 . S
C150 C149 1.377 . S
C150 C151 1.389 . S
C150 H172 0.929 . S
C151 C147 1.397 . S
C151 C150 1.389 . S
C151 H173 0.931 . S
C152 C149 1.481 . S
C152 C153 1.387 . S
C152 C157 1.390 . S
C153 C152 1.387 . S
C153 C154 1.401 . S
C153 H174 0.930 . S
C154 C153 1.401 . S
C154 C155 1.376 . S
C154 C163 1.511 . S
C155 C154 1.376 . S
C155 C156 1.392 . S
C155 H176 0.931 . S
C156 C155 1.392 . S
C156 C157 1.361 . S
C156 C158 1.500 . S
C157 C152 1.390 . S
C157 C156 1.361 . S
C157 H175 0.931 . S
C158 C156 1.500 . S
C158 C159 1.371 . S
C158 C160 1.365 . S
C159 C158 1.371 . S
C159 C169 1.386 . S
C159 H177 0.931 . S
C160 C158 1.365 . S
C160 C161 1.409 . S
C160 H178 0.929 . S
C161 C160 1.409 . S
C161 C162 1.380 . S
C161 H179 0.930 . S
C162 C161 1.380 . S
C162 C169 1.357 . S
C163 C154 1.511 . S
C163 C164 1.341 . S
C163 C165 1.371 . S
C164 C163 1.341 . S
C164 C168 1.394 . S
C164 H180 0.930 . S
C165 C163 1.371 . S
C165 C166 1.392 . S
C165 H181 0.931 . S
C166 C165 1.392 . S
C166 C167 1.331 . S
C166 H184 0.932 1_556 S
C167 C166 1.331 . S
C167 C168 1.336 . S
C168 C164 1.394 . S
C168 C167 1.336 . S
C168 H183 0.929 . S
C169 C159 1.386 . S
C169 C162 1.357 . S
C169 H182 0.928 1_556 S
H170 C146 0.931 . S
H171 C148 0.930 . S
H172 C150 0.929 . S
H173 C151 0.931 . S
H174 C153 0.930 . S
H175 C157 0.931 . S
H176 C155 0.931 . S
H177 C159 0.931 . S
H178 C160 0.929 . S
H179 C161 0.930 . S
H180 C164 0.930 . S
H181 C165 0.931 . S
H182 C169 0.928 1_554 S
H183 C168 0.929 . S
H184 C166 0.932 1_554 S
C185 C186 1.386 . S
C185 C187 1.397 . S
C185 H209 0.931 . S
C186 C185 1.386 . S
C186 C190 1.397 . S
C187 C185 1.397 . S
C187 C188 1.384 . S
C187 H210 0.930 . S
C188 C187 1.384 . S
C188 C189 1.377 . S
C188 C191 1.481 . S
C189 C188 1.377 . S
C189 C190 1.389 . S
C189 H211 0.929 . S
C190 C186 1.397 . S
C190 C189 1.389 . S
C190 H212 0.931 . S
C191 C188 1.481 . S
C191 C192 1.387 . S
C191 C196 1.390 . S
C192 C191 1.387 . S
C192 C193 1.401 . S
C192 H213 0.930 . S
C193 C192 1.401 . S
C193 C194 1.376 . S
C193 C202 1.511 . S
C194 C193 1.376 . S
C194 C195 1.392 . S
C194 H215 0.931 . S
C195 C194 1.392 . S
C195 C196 1.361 . S
C195 C197 1.500 . S
C196 C191 1.390 . S
C196 C195 1.361 . S
C196 H214 0.931 . S
C197 C195 1.500 . S
C197 C198 1.371 . S
C197 C199 1.365 . S
C198 C197 1.371 . S
C198 C208 1.386 . S
C198 H216 0.931 . S
C199 C197 1.365 . S
C199 C200 1.409 . S
C199 H217 0.929 . S
C200 C199 1.409 . S
C200 C201 1.380 . S
C200 H218 0.930 . S
C201 C200 1.380 . S
C201 C208 1.357 . S
C202 C193 1.511 . S
C202 C203 1.341 . S
C202 C204 1.371 . S
C203 C202 1.341 . S
C203 C207 1.394 . S
C203 H219 0.930 . S
C204 C202 1.371 . S
C204 C205 1.392 . S
C204 H220 0.931 . S
C205 C204 1.392 . S
C205 C206 1.331 . S
C205 H223 0.961 . S
C206 C205 1.331 . S
C206 C207 1.336 . S
C207 C203 1.394 . S
C207 C206 1.336 . S
C207 H222 0.929 . S
C208 C198 1.386 . S
C208 C201 1.357 . S
C208 H221 0.928 . S
H209 C185 0.931 . S
H210 C187 0.930 . S
H211 C189 0.929 . S
H212 C190 0.931 . S
H213 C192 0.930 . S
H214 C196 0.931 . S
H215 C194 0.931 . S
H216 C198 0.931 . S
H217 C199 0.929 . S
H218 C200 0.930 . S
H219 C203 0.930 . S
H220 C204 0.931 . S
H221 C208 0.928 . S
H222 C207 0.929 . S
H223 C205 0.961 . S
C224 C225 1.349 1_556 S
C224 C226 1.327 . S
C224 H249 0.950 . S
C225 C224 1.349 1_554 S
C225 C241 1.349 . S
C226 C224 1.327 . S
C226 C245 1.429 1_556 S
C226 H250 0.950 . S
C227 C244 1.574 . S
C227 C246 1.368 . S
C227 H251 0.949 . S
H228 C232 0.949 . S
C229 C230 1.349 . S
C229 C231 1.327 . S
C229 H252 0.950 . S
C230 C229 1.349 . S
C230 C242 1.349 1_554 S
C231 C229 1.327 . S
C231 C247 1.429 . S
C231 H253 0.950 . S
C232 H228 0.949 . S
C232 C240 1.574 . S
C232 C248 1.368 1_556 S
H233 C241 0.950 . S
H234 C239 0.950 . S
H235 C240 0.949 . S
H236 C242 0.950 . S
H237 C243 0.950 . S
H238 C244 0.949 . S
C239 H234 0.950 . S
C239 C241 1.327 . S
C239 C245 1.429 . S
C240 C232 1.574 . S
C240 H235 0.949 . S
C240 C246 1.368 1_556 S
C241 C225 1.349 . S
C241 H233 0.950 . S
C241 C239 1.327 . S
C242 C230 1.349 1_556 S
C242 H236 0.950 . S
C242 C243 1.327 . S
C243 H237 0.950 . S
C243 C242 1.327 . S
C243 C247 1.429 1_556 S
C244 C227 1.574 . S
C244 H238 0.949 . S
C244 C248 1.368 . S
C245 C226 1.429 1_554 S
C245 C239 1.429 . S
C245 C246 1.523 . S
C246 C227 1.368 . S
C246 C240 1.368 1_554 S
C246 C245 1.523 . S
C247 C231 1.429 . S
C247 C243 1.429 1_554 S
C247 C248 1.523 . S
C248 C232 1.368 1_554 S
C248 C244 1.368 . S
C248 C247 1.523 . S
H249 C224 0.950 . S
H250 C226 0.950 . S
H251 C227 0.949 . S
H252 C229 0.950 . S
H253 C231 0.950 . S
C254 C255 1.349 1_556 S
C254 C256 1.327 . S
C254 H279 0.950 . S
C255 C254 1.349 1_554 S
C255 C271 1.349 . S
C256 C254 1.327 . S
C256 C275 1.429 . S
C256 H280 0.950 . S
C257 C274 1.574 . S
C257 C276 1.368 1_554 S
C257 H281 0.949 . S
H258 C262 0.949 . S
C259 C260 1.349 1_554 S
C259 C261 1.327 . S
C259 H282 0.950 . S
C260 C259 1.349 1_556 S
C260 C272 1.349 . S
C261 C259 1.327 . S
C261 C277 1.429 1_554 S
C261 H283 0.950 . S
C262 H258 0.949 . S
C262 C270 1.574 . S
C262 C278 1.368 . S
H263 C271 0.950 . S
H264 C269 0.950 . S
H265 C270 0.949 . S
H266 C272 0.950 . S
H267 C273 0.950 . S
H268 C274 0.949 . S
C269 H264 0.950 . S
C269 C271 1.327 . S
C269 C275 1.429 1_554 S
C270 C262 1.574 . S
C270 H265 0.949 . S
C270 C276 1.368 . S
C271 C255 1.349 . S
C271 H263 0.950 . S
C271 C269 1.327 . S
C272 C260 1.349 . S
C272 H266 0.950 . S
C272 C273 1.327 . S
C273 H267 0.950 . S
C273 C272 1.327 . S
C273 C277 1.429 . S
C274 C257 1.574 . S
C274 H268 0.949 . S
C274 C278 1.368 1_554 S
C275 C256 1.429 . S
C275 C269 1.429 1_556 S
C275 C276 1.523 . S
C276 C257 1.368 1_556 S
C276 C270 1.368 . S
C276 C275 1.523 . S
C277 C261 1.429 1_556 S
C277 C273 1.429 . S
C277 C278 1.523 . S
C278 C262 1.368 . S
C278 C274 1.368 1_556 S
C278 C277 1.523 . S
H279 C254 0.950 . S
H280 C256 0.950 . S
H281 C257 0.949 . S
H282 C259 0.950 . S
H283 C261 0.950 . S
C284 C285 1.349 1_556 S
C284 C286 1.327 . S
C284 H309 0.950 . S
C285 C284 1.349 1_554 S
C285 C301 1.349 . S
C286 C284 1.327 . S
C286 C305 1.429 1_556 S
C286 H310 0.950 . S
C287 C304 1.574 . S
C287 C306 1.368 . S
C287 H311 0.949 . S
H288 C292 0.949 . S
C289 C290 1.349 . S
C289 C291 1.327 . S
C289 H312 0.950 . S
C290 C289 1.349 . S
C290 C302 1.349 . S
C291 C289 1.327 . S
C291 C307 1.429 . S
C291 H313 0.950 . S
C292 H288 0.949 . S
C292 C300 1.574 . S
C292 C308 1.368 1_556 S
H293 C301 0.950 . S
H294 C299 0.950 . S
H295 C300 0.949 . S
H296 C302 0.950 1_556 S
H297 C303 0.950 1_556 S
H298 C304 0.949 . S
C299 H294 0.950 . S
C299 C301 1.327 . S
C299 C305 1.429 . S
C300 C292 1.574 . S
C300 H295 0.949 . S
C300 C306 1.368 1_556 S
C301 C285 1.349 . S
C301 H293 0.950 . S
C301 C299 1.327 . S
C302 C290 1.349 . S
C302 H296 0.950 1_554 S
C302 C303 1.327 . S
C303 H297 0.950 1_554 S
C303 C302 1.327 . S
C303 C307 1.429 . S
C304 C287 1.574 . S
C304 H298 0.949 . S
C304 C308 1.368 . S
C305 C286 1.429 1_554 S
C305 C299 1.429 . S
C305 C306 1.523 . S
C306 C287 1.368 . S
C306 C300 1.368 1_554 S
C306 C305 1.523 . S
C307 C291 1.429 . S
C307 C303 1.429 . S
C307 C308 1.523 . S
C308 C292 1.368 1_554 S
C308 C304 1.368 . S
C308 C307 1.523 . S
H309 C284 0.950 . S
H310 C286 0.950 . S
H311 C287 0.949 . S
H312 C289 0.950 . S
H313 C291 0.950 . S
C314 C315 1.349 1_556 S
C314 C316 1.327 . S
C314 H339 0.950 . S
C315 C314 1.349 1_554 S
C315 C331 1.349 . S
C316 C314 1.327 . S
C316 C335 1.451 . S
C316 H340 0.950 . S
C317 C334 1.574 . S
C317 C336 1.368 1_554 S
C317 H341 0.949 . S
H318 C322 0.949 . S
C319 C320 1.349 1_554 S
C319 C321 1.327 . S
C319 H342 0.950 . S
C320 C319 1.349 1_556 S
C320 C332 1.349 . S
C321 C319 1.327 . S
C321 C337 1.429 1_554 S
C321 H343 0.950 . S
C322 H318 0.949 . S
C322 C330 1.574 . S
C322 C338 1.368 . S
H323 C331 0.950 . S
H324 C329 0.950 . S
H325 C330 0.949 . S
H326 C332 0.950 . S
H327 C333 0.950 . S
H328 C334 0.949 . S
C329 H324 0.950 . S
C329 C331 1.327 . S
C329 C335 1.404 1_554 S
C330 C322 1.574 . S
C330 H325 0.949 . S
C330 C336 1.368 . S
C331 C315 1.349 . S
C331 H323 0.950 . S
C331 C329 1.327 . S
C332 C320 1.349 . S
C332 H326 0.950 . S
C332 C333 1.327 . S
C333 H327 0.950 . S
C333 C332 1.327 . S
C333 C337 1.429 . S
C334 C317 1.574 . S
C334 H328 0.949 . S
C334 C338 1.368 1_554 S
C335 C316 1.451 . S
C335 C329 1.404 1_556 S
C335 C336 1.526 . S
C336 C317 1.368 1_556 S
C336 C330 1.368 . S
C336 C335 1.526 . S
C337 C321 1.429 1_556 S
C337 C333 1.429 . S
C337 C338 1.523 . S
C338 C322 1.368 . S
C338 C334 1.368 1_556 S
C338 C337 1.523 . S
H339 C314 0.950 . S
H340 C316 0.950 . S
H341 C317 0.949 . S
H342 C319 0.950 . S
H343 C321 0.950 . S
C344 C345 1.349 . S
C344 C346 1.327 . S
C344 H369 0.950 . S
C345 C344 1.349 . S
C345 C361 1.349 . S
C346 C344 1.327 . S
C346 C365 1.429 . S
C346 H370 0.950 . S
C347 C364 1.574 . S
C347 C366 1.368 . S
C347 H371 0.949 . S
H348 C352 0.949 . S
C349 C350 1.349 . S
C349 C351 1.327 . S
C349 H372 0.950 . S
C350 C349 1.349 . S
C350 C362 1.349 . S
C351 C349 1.327 . S
C351 C367 1.429 . S
C351 H373 0.950 . S
C352 H348 0.949 . S
C352 C360 1.574 . S
C352 C368 1.368 . S
H353 C361 0.950 . S
H354 C359 0.950 . S
H355 C360 0.949 . S
H356 C362 0.950 . S
H357 C363 0.950 . S
H358 C364 0.949 . S
C359 H354 0.950 . S
C359 C361 1.327 . S
C359 C365 1.429 . S
C360 C352 1.574 . S
C360 H355 0.949 . S
C360 C366 1.368 . S
C361 C345 1.349 . S
C361 H353 0.950 . S
C361 C359 1.327 . S
C362 C350 1.349 . S
C362 H356 0.950 . S
C362 C363 1.327 . S
C363 H357 0.950 . S
C363 C362 1.327 . S
C363 C367 1.429 . S
C364 C347 1.574 . S
C364 H358 0.949 . S
C364 C368 1.368 . S
C365 C346 1.429 . S
C365 C359 1.429 . S
C365 C366 1.523 . S
C366 C347 1.368 . S
C366 C360 1.368 . S
C366 C365 1.523 . S
C367 C351 1.429 . S
C367 C363 1.429 . S
C367 C368 1.523 . S
C368 C352 1.368 . S
C368 C364 1.368 . S
C368 C367 1.523 . S
H369 C344 0.950 . S
H370 C346 0.950 . S
H371 C347 0.949 . S
H372 C349 0.950 . S
H373 C351 0.950 . S
C374 C375 1.349 . S
C374 C376 1.327 . S
C374 H399 0.950 . S
C375 C374 1.349 . S
C375 C391 1.349 . S
C376 C374 1.327 . S
C376 C395 1.429 . S
C376 H400 0.950 . S
C377 C394 1.574 . S
C377 C396 1.368 . S
C377 H401 0.949 . S
H378 C382 0.949 . S
C379 C380 1.349 . S
C379 C381 1.327 . S
C379 H402 0.950 . S
C380 C379 1.349 . S
C380 C392 1.349 . S
C381 C379 1.327 . S
C381 C397 1.429 . S
C381 H403 0.950 . S
C382 H378 0.949 . S
C382 C390 1.574 . S
C382 C398 1.368 . S
H383 C391 0.950 . S
H384 C389 0.950 . S
H385 C390 0.949 . S
H386 C392 0.950 . S
H387 C393 0.950 . S
H388 C394 0.949 . S
C389 H384 0.950 . S
C389 C391 1.327 . S
C389 C395 1.429 . S
C390 C382 1.574 . S
C390 H385 0.949 . S
C390 C396 1.368 . S
C391 C375 1.349 . S
C391 H383 0.950 . S
C391 C389 1.327 . S
C392 C380 1.349 . S
C392 H386 0.950 . S
C392 C393 1.327 . S
C393 H387 0.950 . S
C393 C392 1.327 . S
C393 C397 1.429 . S
C394 C377 1.574 . S
C394 H388 0.949 . S
C394 C398 1.368 . S
C395 C376 1.429 . S
C395 C389 1.429 . S
C395 C396 1.523 . S
C396 C377 1.368 . S
C396 C390 1.368 . S
C396 C395 1.523 . S
C397 C381 1.429 . S
C397 C393 1.429 . S
C397 C398 1.523 . S
C398 C382 1.368 . S
C398 C394 1.368 . S
C398 C397 1.523 . S
H399 C374 0.950 . S
H400 C376 0.950 . S
H401 C377 0.949 . S
H402 C379 0.950 . S
H403 C381 0.950 . S
C404 C405 1.349 . S
C404 C406 1.327 . S
C404 H429 0.950 . S
C405 C404 1.349 . S
C405 C421 1.349 . S
C406 C404 1.327 . S
C406 C425 1.429 . S
C406 H430 0.950 . S
C407 C424 1.574 . S
C407 C426 1.368 . S
C407 H431 0.949 . S
H408 C412 0.949 . S
C409 C410 1.349 . S
C409 C411 1.327 . S
C409 H432 0.950 . S
C410 C409 1.349 . S
C410 C422 1.349 . S
C411 C409 1.327 . S
C411 C427 1.429 . S
C411 H433 0.950 . S
C412 H408 0.949 . S
C412 C420 1.574 . S
C412 C428 1.368 . S
H413 C421 0.950 . S
H414 C419 0.950 . S
H415 C420 0.949 . S
H416 C422 0.950 . S
H417 C423 0.950 . S
H418 C424 0.949 . S
C419 H414 0.950 . S
C419 C421 1.327 . S
C419 C425 1.429 . S
C420 C412 1.574 . S
C420 H415 0.949 . S
C420 C426 1.368 . S
C421 C405 1.349 . S
C421 H413 0.950 . S
C421 C419 1.327 . S
C422 C410 1.349 . S
C422 H416 0.950 . S
C422 C423 1.327 . S
C423 H417 0.950 . S
C423 C422 1.327 . S
C423 C427 1.429 . S
C424 C407 1.574 . S
C424 H418 0.949 . S
C424 C428 1.368 . S
C425 C406 1.429 . S
C425 C419 1.429 . S
C425 C426 1.523 . S
C426 C407 1.368 . S
C426 C420 1.368 . S
C426 C425 1.523 . S
C427 C411 1.429 . S
C427 C423 1.429 . S
C427 C428 1.523 . S
C428 C412 1.368 . S
C428 C424 1.368 . S
C428 C427 1.523 . S
H429 C404 0.950 . S
H430 C406 0.950 . S
H431 C407 0.949 . S
H432 C409 0.950 . S
H433 C411 0.950 . S
C434 C435 1.349 . S
C434 C436 1.327 . S
C434 H459 0.950 . S
C435 C434 1.349 . S
C435 C451 1.349 . S
C436 C434 1.327 . S
C436 C455 1.429 . S
C436 H460 0.950 . S
C437 C454 1.574 . S
C437 C456 1.368 . S
C437 H461 0.949 . S
H438 C442 0.949 . S
C439 C440 1.349 . S
C439 C441 1.327 . S
C439 H462 0.950 . S
C440 C439 1.349 . S
C440 C452 1.349 . S
C441 C439 1.327 . S
C441 C457 1.429 . S
C441 H463 0.950 . S
C442 H438 0.949 . S
C442 C450 1.574 . S
C442 C458 1.368 . S
H443 C451 0.950 . S
H444 C449 0.950 . S
H445 C450 0.949 . S
H446 C452 0.950 . S
H447 C453 0.950 . S
H448 C454 0.949 . S
C449 H444 0.950 . S
C449 C451 1.327 . S
C449 C455 1.429 . S
C450 C442 1.574 . S
C450 H445 0.949 . S
C450 C456 1.368 . S
C451 C435 1.349 . S
C451 H443 0.950 . S
C451 C449 1.327 . S
C452 C440 1.349 . S
C452 H446 0.950 . S
C452 C453 1.327 . S
C453 H447 0.950 . S
C453 C452 1.327 . S
C453 C457 1.429 . S
C454 C437 1.574 . S
C454 H448 0.949 . S
C454 C458 1.368 . S
C455 C436 1.429 . S
C455 C449 1.429 . S
C455 C456 1.523 . S
C456 C437 1.368 . S
C456 C450 1.368 . S
C456 C455 1.523 . S
C457 C441 1.429 . S
C457 C453 1.429 . S
C457 C458 1.523 . S
C458 C442 1.368 . S
C458 C454 1.368 . S
C458 C457 1.523 . S
H459 C434 0.950 . S
H460 C436 0.950 . S
H461 C437 0.949 . S
H462 C439 0.950 . S
H463 C441 0.950 . S
C464 C465 1.349 1_655 S
C464 C466 1.327 . S
C464 H489 0.950 . S
C465 C464 1.349 1_455 S
C465 C481 1.349 1_545 S
C466 C464 1.327 . S
C466 C485 1.429 1_655 S
C466 H490 0.950 . S
C467 C484 1.574 . S
C467 C486 1.368 1_565 S
C467 H491 0.949 . S
H468 C472 0.949 . S
C469 C470 1.349 1_465 S
C469 C471 1.327 . S
C469 H492 0.950 . S
C470 C469 1.349 1_645 S
C470 C482 1.349 . S
C471 C469 1.327 . S
C471 C487 1.437 1_565 S
C471 H493 0.950 . S
C472 H468 0.949 . S
C472 C480 1.574 . S
C472 C488 1.368 1_655 S
H473 C481 0.950 . S
H474 C479 0.950 . S
H475 C480 0.949 . S
H476 C482 0.950 . S
H477 C483 0.950 . S
H478 C484 0.949 . S
C479 H474 0.950 . S
C479 C481 1.327 . S
C479 C485 1.429 1_565 S
C480 C472 1.574 . S
C480 H475 0.949 . S
C480 C486 1.368 1_655 S
C481 C465 1.349 1_565 S
C481 H473 0.950 . S
C481 C479 1.327 . S
C482 C470 1.349 . S
C482 H476 0.950 . S
C482 C483 1.327 . S
C483 H477 0.950 . S
C483 C482 1.327 . S
C483 C487 1.419 1_655 S
C484 C467 1.574 . S
C484 H478 0.949 . S
C484 C488 1.368 1_565 S
C485 C466 1.429 1_455 S
C485 C479 1.429 1_545 S
C485 C486 1.523 . S
C486 C467 1.368 1_545 S
C486 C480 1.368 1_455 S
C486 C485 1.523 . S
C487 C471 1.437 1_545 S
C487 C483 1.419 1_455 S
C487 C488 1.524 . S
C488 C472 1.368 1_455 S
C488 C484 1.368 1_545 S
C488 C487 1.524 . S
H489 C464 0.950 . S
H490 C466 0.950 . S
H491 C467 0.949 . S
H492 C469 0.950 . S
H493 C471 0.950 . S
C494 C495 1.349 1_665 S
C494 C496 1.327 . S
C494 H519 0.950 . S
C495 C494 1.349 1_445 S
C495 C511 1.349 . S
C496 C494 1.327 . S
C496 C515 1.429 1_665 S
C496 H520 0.950 . S
C497 C514 1.574 . S
C497 C516 1.368 . S
C497 H521 0.949 . S
H498 C502 0.949 . S
C499 C500 1.349 . S
C499 C501 1.327 . S
C499 H522 0.950 . S
C500 C499 1.349 . S
C500 C512 1.349 1_445 S
C501 C499 1.327 . S
C501 C517 1.429 . S
C501 H523 0.950 . S
C502 H498 0.949 . S
C502 C510 1.574 . S
C502 C518 1.368 1_665 S
H503 C511 0.950 . S
H504 C509 0.950 . S
H505 C510 0.949 . S
H506 C512 0.950 . S
H507 C513 0.950 . S
H508 C514 0.949 . S
C509 H504 0.950 . S
C509 C511 1.327 . S
C509 C515 1.429 . S
C510 C502 1.574 . S
C510 H505 0.949 . S
C510 C516 1.368 1_665 S
C511 C495 1.349 . S
C511 H503 0.950 . S
C511 C509 1.327 . S
C512 C500 1.349 1_665 S
C512 H506 0.950 . S
C512 C513 1.327 . S
C513 H507 0.950 . S
C513 C512 1.327 . S
C513 C517 1.429 1_665 S
C514 C497 1.574 . S
C514 H508 0.949 . S
C514 C518 1.368 . S
C515 C496 1.429 1_445 S
C515 C509 1.429 . S
C515 C516 1.523 . S
C516 C497 1.368 . S
C516 C510 1.368 1_445 S
C516 C515 1.523 . S
C517 C501 1.429 . S
C517 C513 1.429 1_445 S
C517 C518 1.523 . S
C518 C502 1.368 1_445 S
C518 C514 1.368 . S
C518 C517 1.523 . S
H519 C494 0.950 . S
H520 C496 0.950 . S
H521 C497 0.949 . S
H522 C499 0.950 . S
H523 C501 0.950 . S
C524 C525 1.349 . S
C524 C526 1.327 . S
C524 H549 0.950 . S
C525 C524 1.349 . S
C525 C541 1.349 . S
C526 C524 1.327 . S
C526 C545 1.429 . S
C526 H550 0.950 . S
C527 C544 1.574 . S
C527 C546 1.368 . S
C527 H551 0.949 . S
H528 C532 0.949 . S
C529 C530 1.349 . S
C529 C531 1.327 . S
C529 H552 0.950 . S
C530 C529 1.349 . S
C530 C542 1.349 . S
C531 C529 1.327 . S
C531 C547 1.429 . S
C531 H553 0.950 . S
C532 H528 0.949 . S
C532 C540 1.574 . S
C532 C548 1.368 . S
H533 C541 0.950 . S
H534 C539 0.950 . S
H535 C540 0.949 . S
H536 C542 0.950 . S
H537 C543 0.950 . S
H538 C544 0.949 . S
C539 H534 0.950 . S
C539 C541 1.327 . S
C539 C545 1.429 . S
C540 C532 1.574 . S
C540 H535 0.949 . S
C540 C546 1.368 . S
C541 C525 1.349 . S
C541 H533 0.950 . S
C541 C539 1.327 . S
C542 C530 1.349 . S
C542 H536 0.950 . S
C542 C543 1.327 . S
C543 H537 0.950 . S
C543 C542 1.327 . S
C543 C547 1.429 . S
C544 C527 1.574 . S
C544 H538 0.949 . S
C544 C548 1.368 . S
C545 C526 1.429 . S
C545 C539 1.429 . S
C545 C546 1.523 . S
C546 C527 1.368 . S
C546 C540 1.368 . S
C546 C545 1.523 . S
C547 C531 1.429 . S
C547 C543 1.429 . S
C547 C548 1.523 . S
C548 C532 1.368 . S
C548 C544 1.368 . S
C548 C547 1.523 . S
H549 C524 0.950 . S
H550 C526 0.950 . S
H551 C527 0.949 . S
H552 C529 0.950 . S
H553 C531 0.950 . S
C554 C555 1.349 . S
C554 C556 1.327 . S
C554 H579 0.950 . S
C555 C554 1.349 . S
C555 C571 1.349 . S
C556 C554 1.327 . S
C556 C575 1.429 . S
C556 H580 0.950 . S
C557 C574 1.574 . S
C557 C576 1.368 . S
C557 H581 0.949 . S
H558 C562 0.949 . S
C559 C560 1.349 . S
C559 C561 1.327 . S
C559 H582 0.950 . S
C560 C559 1.349 . S
C560 C572 1.349 . S
C561 C559 1.327 . S
C561 C577 1.429 . S
C561 H583 0.950 . S
C562 H558 0.949 . S
C562 C570 1.574 . S
C562 C578 1.368 . S
H563 C571 0.950 . S
H564 C569 0.950 . S
H565 C570 0.949 . S
H566 C572 0.950 . S
H567 C573 0.950 . S
H568 C574 0.949 . S
C569 H564 0.950 . S
C569 C571 1.327 . S
C569 C575 1.429 . S
C570 C562 1.574 . S
C570 H565 0.949 . S
C570 C576 1.368 . S
C571 C555 1.349 . S
C571 H563 0.950 . S
C571 C569 1.327 . S
C572 C560 1.349 . S
C572 H566 0.950 . S
C572 C573 1.327 . S
C573 H567 0.950 . S
C573 C572 1.327 . S
C573 C577 1.429 . S
C574 C557 1.574 . S
C574 H568 0.949 . S
C574 C578 1.368 . S
C575 C556 1.429 . S
C575 C569 1.429 . S
C575 C576 1.523 . S
C576 C557 1.368 . S
C576 C570 1.368 . S
C576 C575 1.523 . S
C577 C561 1.429 . S
C577 C573 1.429 . S
C577 C578 1.523 . S
C578 C562 1.368 . S
C578 C574 1.368 . S
C578 C577 1.523 . S
H579 C554 0.950 . S
H580 C556 0.950 . S
H581 C557 0.949 . S
H582 C559 0.950 . S
H583 C561 0.950 . S
C230 C201 1.379 . S
C225 C29 1.414 . S
C255 C8 1.402 . S
C260 C162 1.372 . S
C285 C0 1.396 . S
C290 C206 1.369 . S
C315 C17 1.408 . S
C320 C167 1.382 . S
C345 C63 1.414 . S
C350 C123 1.379 . S
C375 C42 1.402 . S
C380 C84 1.371 . S
C410 C128 1.369 . S
C405 C34 1.396 . S
C440 C89 1.382 . S
C435 C51 1.408 . S
C465 C4 1.480 . S
C470 C69 1.483 . S
C495 C13 1.478 . S
C500 C108 1.480 . S
C530 C147 1.482 . S
C525 C38 1.480 . S
C555 C47 1.478 . S
C560 C186 1.480 . S
