# Generated by pormake.
# Topology apo, (3,6)-cn, num edge types: 1
# Building blocks:
#     Node 0, Type 0, BuildingBlock: PAMTOO_clean_linker_0, # of connection points: 3
#     Node 1, Type 0, BuildingBlock: PAMTOO_clean_linker_0, # of connection points: 3
#     Node 2, Type 0, BuildingBlock: PAMTOO_clean_linker_0, # of connection points: 3
#     Node 3, Type 0, BuildingBlock: PAMTOO_clean_linker_0, # of connection points: 3
#     Node 4, Type 0, BuildingBlock: PAMTOO_clean_linker_0, # of connection points: 3
#     Node 5, Type 0, BuildingBlock: PAMTOO_clean_linker_0, # of connection points: 3
#     Node 6, Type 0, BuildingBlock: PAMTOO_clean_linker_0, # of connection points: 3
#     Node 7, Type 0, BuildingBlock: PAMTOO_clean_linker_0, # of connection points: 3
#     Node 8, Type 1, BuildingBlock: KUMBUR_clean_sbu_1, # of connection points: 6
#     Node 9, Type 1, BuildingBlock: KUMBUR_clean_sbu_1, # of connection points: 6
#     Node 10, Type 1, BuildingBlock: KUMBUR_clean_sbu_1, # of connection points: 6
#     Node 11, Type 1, BuildingBlock: KUMBUR_clean_sbu_1, # of connection points: 6
#     Edge 12, Type (0, 1), BuildingBlock: XIVTED_clean_linker_0, # of connection points: 2
#     Edge 13, Type (0, 1), BuildingBlock: XIVTED_clean_linker_0, # of connection points: 2
#     Edge 14, Type (0, 1), BuildingBlock: XIVTED_clean_linker_0, # of connection points: 2
#     Edge 15, Type (0, 1), BuildingBlock: XIVTED_clean_linker_0, # of connection points: 2
#     Edge 16, Type (0, 1), BuildingBlock: XIVTED_clean_linker_0, # of connection points: 2
#     Edge 17, Type (0, 1), BuildingBlock: XIVTED_clean_linker_0, # of connection points: 2
#     Edge 18, Type (0, 1), BuildingBlock: XIVTED_clean_linker_0, # of connection points: 2
#     Edge 19, Type (0, 1), BuildingBlock: XIVTED_clean_linker_0, # of connection points: 2
#     Edge 20, Type (0, 1), BuildingBlock: XIVTED_clean_linker_0, # of connection points: 2
#     Edge 21, Type (0, 1), BuildingBlock: XIVTED_clean_linker_0, # of connection points: 2
#     Edge 22, Type (0, 1), BuildingBlock: XIVTED_clean_linker_0, # of connection points: 2
#     Edge 23, Type (0, 1), BuildingBlock: XIVTED_clean_linker_0, # of connection points: 2
#     Edge 24, Type (0, 1), BuildingBlock: XIVTED_clean_linker_0, # of connection points: 2
#     Edge 25, Type (0, 1), BuildingBlock: XIVTED_clean_linker_0, # of connection points: 2
#     Edge 26, Type (0, 1), BuildingBlock: XIVTED_clean_linker_0, # of connection points: 2
#     Edge 27, Type (0, 1), BuildingBlock: XIVTED_clean_linker_0, # of connection points: 2
#     Edge 28, Type (0, 1), BuildingBlock: XIVTED_clean_linker_0, # of connection points: 2
#     Edge 29, Type (0, 1), BuildingBlock: XIVTED_clean_linker_0, # of connection points: 2
#     Edge 30, Type (0, 1), BuildingBlock: XIVTED_clean_linker_0, # of connection points: 2
#     Edge 31, Type (0, 1), BuildingBlock: XIVTED_clean_linker_0, # of connection points: 2
#     Edge 32, Type (0, 1), BuildingBlock: XIVTED_clean_linker_0, # of connection points: 2
#     Edge 33, Type (0, 1), BuildingBlock: XIVTED_clean_linker_0, # of connection points: 2
#     Edge 34, Type (0, 1), BuildingBlock: XIVTED_clean_linker_0, # of connection points: 2
#     Edge 35, Type (0, 1), BuildingBlock: XIVTED_clean_linker_0, # of connection points: 2
# Relax obj value: 0.040
# Max RMSD: 0.224
# Mean RMSD: 0.161
data_MOF--net-apo--node1-KUMBUR_clean_sbu_1--node2-PAMTOO_clean_linker_0--edge1-XIVTED_clean_linker_0
_symmetry_space_group_name_H-M    P1
_symmetry_Int_Tables_number       1
_symmetry_cell_setting            triclinic
loop_
_symmetry_equiv_pos_as_xyz
'x, y, z'
_cell_length_a     27.406892
_cell_length_b     42.584575
_cell_length_c     51.422748
_cell_angle_alpha  89.983867
_cell_angle_beta   90.103836
_cell_angle_gamma 90.549734
loop_
_atom_site_label
_atom_site_type_symbol
_atom_site_fract_x
_atom_site_fract_y
_atom_site_fract_z
_atom_type_partial_charge
H0 H 0.38393 0.43678 0.42793 0.0
H1 H 0.30693 0.39175 0.36495 0.0
H2 H 0.29771 0.35319 0.44192 0.0
H3 H 0.30888 0.30605 0.40134 0.0
C4 C 0.29125 0.31819 0.38467 0.0
O5 O 0.27102 0.34592 0.39327 0.0
H6 H 0.32 0.32329 0.36996 0.0
C7 C 0.36061 0.4179 0.42089 0.0
C8 C 0.34241 0.39525 0.43845 0.0
C9 C 0.34779 0.41707 0.3944 0.0
C10 C 0.31665 0.39302 0.38536 0.0
C11 C 0.29914 0.36985 0.40244 0.0
C12 C 0.31145 0.37126 0.42894 0.0
H13 H 0.15837 0.08066 0.92781 0.0
H14 H 0.23123 0.16938 0.9408 0.0
H15 H 0.23154 0.12806 0.86478 0.0
H16 H 0.32576 0.15297 0.88876 0.0
C17 C 0.3112 0.17658 0.89367 0.0
O18 O 0.26081 0.17588 0.89262 0.0
H19 H 0.32309 0.18262 0.91374 0.0
C20 C 0.17951 0.10041 0.92057 0.0
C21 C 0.19292 0.10123 0.89418 0.0
C22 C 0.19302 0.12473 0.93771 0.0
C23 C 0.22061 0.15022 0.92807 0.0
C24 C 0.23435 0.15129 0.90181 0.0
C25 C 0.22036 0.12696 0.88496 0.0
H26 H 0.84637 0.08292 0.58612 0.0
H27 H 0.79396 0.12895 0.65539 0.0
H28 H 0.7702 0.17066 0.58086 0.0
H29 H 0.79466 0.21523 0.62277 0.0
C30 C 0.77775 0.20257 0.63947 0.0
O31 O 0.75463 0.17567 0.63073 0.0
H32 H 0.80734 0.19639 0.65337 0.0
C33 C 0.82791 0.10221 0.59551 0.0
C34 C 0.80965 0.12686 0.58015 0.0
C35 C 0.82282 0.10254 0.62284 0.0
C36 C 0.79806 0.12771 0.63447 0.0
C37 C 0.77923 0.15205 0.61931 0.0
C38 C 0.78521 0.15169 0.59232 0.0
H39 H 0.66102 0.41929 0.09382 0.0
H40 H 0.73899 0.33198 0.08958 0.0
H41 H 0.72727 0.37982 0.16238 0.0
H42 H 0.822 0.35806 0.15037 0.0
C43 C 0.8132 0.33521 0.14084 0.0
O44 O 0.76331 0.33138 0.13873 0.0
H45 H 0.8298 0.33557 0.1211 0.0
C46 C 0.68126 0.40071 0.10319 0.0
C47 C 0.6913 0.40264 0.13003 0.0
C48 C 0.69832 0.37539 0.08824 0.0
C49 C 0.7253 0.35169 0.1006 0.0
C50 C 0.73538 0.35341 0.12725 0.0
C51 C 0.71805 0.37857 0.1419 0.0
H52 H 0.66935 0.5774 0.58964 0.0
H53 H 0.74311 0.66612 0.57995 0.0
H54 H 0.72902 0.62634 0.65606 0.0
H55 H 0.71821 0.69198 0.65449 0.0
C56 C 0.74477 0.69876 0.63909 0.0
O57 O 0.76656 0.67226 0.62913 0.0
H58 H 0.72475 0.71089 0.6232 0.0
C59 C 0.68755 0.5976 0.59813 0.0
C60 C 0.69547 0.59879 0.62517 0.0
C61 C 0.70332 0.62197 0.58162 0.0
C62 C 0.73034 0.6471 0.59224 0.0
C63 C 0.74014 0.64818 0.61901 0.0
C64 C 0.72241 0.62432 0.63537 0.0
H65 H 0.87418 0.94086 0.09102 0.0
H66 H 0.81773 0.88561 0.15438 0.0
H67 H 0.79417 0.85499 0.07585 0.0
H68 H 0.71113 0.84157 0.10704 0.0
C69 C 0.72743 0.84299 0.12684 0.0
O70 O 0.7777 0.84227 0.12488 0.0
H71 H 0.71574 0.86563 0.13559 0.0
C72 C 0.85403 0.92045 0.09782 0.0
C73 C 0.83503 0.89861 0.07976 0.0
C74 C 0.84816 0.91603 0.12474 0.0
C75 C 0.82319 0.88919 0.13372 0.0
C76 C 0.8037 0.86732 0.11606 0.0
C77 C 0.81012 0.87186 0.08922 0.0
H78 H 0.17153 0.9221 0.4318 0.0
H79 H 0.24043 0.83205 0.4361 0.0
H80 H 0.23667 0.88079 0.36349 0.0
H81 H 0.21339 0.8135 0.36319 0.0
C82 C 0.24318 0.80545 0.37629 0.0
O83 O 0.26682 0.83093 0.38729 0.0
H84 H 0.2264 0.79078 0.39185 0.0
C85 C 0.19047 0.90319 0.42219 0.0
C86 C 0.20237 0.90546 0.39554 0.0
C87 C 0.20349 0.87672 0.43693 0.0
C88 C 0.2302 0.8527 0.42511 0.0
C89 C 0.24214 0.85451 0.39872 0.0
C90 C 0.2281 0.88058 0.38402 0.0
H91 H 0.37768 0.59415 0.92809 0.0
H92 H 0.29455 0.62847 0.8628 0.0
H93 H 0.29291 0.67839 0.93498 0.0
H94 H 0.19822 0.67691 0.90771 0.0
C95 C 0.21145 0.67507 0.88732 0.0
O96 O 0.26166 0.67763 0.88692 0.0
H97 H 0.19976 0.65172 0.87964 0.0
C98 C 0.3532 0.61116 0.9196 0.0
C99 C 0.33675 0.63632 0.93494 0.0
C100 C 0.33834 0.60785 0.89345 0.0
C101 C 0.30703 0.63046 0.88274 0.0
C102 C 0.29072 0.65568 0.89774 0.0
C103 C 0.3054 0.65853 0.92373 0.0
Tb104 Tb 0.08294 0.12884 0.23834 0.0
C105 C 0.88869 0.07671 0.2751 0.0
N106 N 0.90336 0.10712 0.27263 0.0
C107 C 0.83054 0.11873 0.24867 0.0
C108 C 0.84512 0.06577 0.26355 0.0
C109 C 0.87437 0.1284 0.26029 0.0
C110 C 0.81604 0.08722 0.2501 0.0
C111 C 0.90494 0.02469 0.29173 0.0
C112 C 0.9184 0.05653 0.2888 0.0
C113 C 0.86208 0.01337 0.27979 0.0
C114 C 0.83219 0.03388 0.26575 0.0
Tb115 Tb 0.97547 0.12065 0.29225 0.0
N116 N 0.95962 0.06841 0.29997 0.0
C117 C 0.93429 1.00543 0.30711 0.0
C118 C 0.9857 0.05033 0.31684 0.0
C119 C 0.97436 0.01848 0.32012 0.0
H120 H 0.88471 0.15287 0.25963 0.0
H121 H 0.99592 1.0042 0.33314 0.0
H122 H 0.16811 0.07645 0.25542 0.0
H123 H 0.10363 0.25125 0.21433 0.0
H124 H 0.01407 0.06057 0.32862 0.0
H125 H 0.92526 0.98083 0.30988 0.0
H126 H 0.06284 0.19903 0.2144 0.0
H127 H 0.80789 0.1356 0.23871 0.0
H128 H 0.85132 0.98893 0.28166 0.0
H129 H 0.79901 0.02492 0.25685 0.0
H130 H 0.24863 0.07751 0.27659 0.0
H131 H 0.78219 0.07978 0.24098 0.0
H132 H 0.18287 0.2585 0.23691 0.0
N133 N 0.1602 0.1262 0.25558 0.0
C134 C 0.18401 0.15411 0.25844 0.0
C135 C 0.23048 0.09931 0.27205 0.0
C136 C 0.23114 0.15589 0.2694 0.0
C137 C 0.18412 0.09881 0.26061 0.0
C138 C 0.25372 0.12802 0.27697 0.0
N139 N 0.11772 0.17767 0.23745 0.0
C140 C 0.0973 0.20219 0.22434 0.0
C141 C 0.18709 0.20988 0.24903 0.0
C142 C 0.1625 0.1807 0.24847 0.0
C143 C 0.16514 0.23565 0.23696 0.0
C144 C 0.12037 0.23166 0.22421 0.0
H145 H 0.28991 0.12833 0.28549 0.0
H146 H 0.2909 0.18711 0.28003 0.0
H147 H 0.25223 0.23446 0.26217 0.0
O148 O 0.06358 0.13294 0.19893 0.0
O149 O 0.06978 0.16683 0.26635 0.0
O150 O 0.04474 0.14297 0.30406 0.0
O151 O 0.134 0.11591 0.20975 0.0
O152 O 0.01058 0.14784 0.22949 0.0
O153 O 0.97471 0.16354 0.26836 0.0
O154 O 0.95436 0.11412 0.33109 0.0
O155 O 0.96785 0.10223 0.25233 0.0
O156 O 0.04303 0.08412 0.2408 0.0
O157 O 0.93216 0.15522 0.31032 0.0
O158 O 0.04815 0.1029 0.30261 0.0
O159 O 0.08444 0.08735 0.26402 0.0
C160 C 0.07021 0.16464 0.29177 0.0
C161 C 0.10019 0.09739 0.17033 0.0
C162 C 0.10514 0.0831 0.12441 0.0
C163 C 0.08812 0.05276 0.13073 0.0
C164 C 0.08365 0.06698 0.17628 0.0
C165 C 0.0776 0.0448 0.15652 0.0
C166 C 0.11111 0.10531 0.14446 0.0
C167 C 0.98133 0.1662 0.24294 0.0
C168 C 0.10442 0.12155 0.1906 0.0
C169 C 0.2549 0.1852 0.2714 0.0
C170 C 0.23296 0.21216 0.26116 0.0
C171 C 0.99531 0.08109 0.24117 0.0
C172 C 0.88091 0.13627 0.34464 0.0
C173 C 0.83436 0.12982 0.3849 0.0
C174 C 0.79172 0.12543 0.37004 0.0
C175 C 0.83788 0.13206 0.33021 0.0
C176 C 0.87884 0.13539 0.37197 0.0
C177 C 0.79355 0.12673 0.3429 0.0
C178 C 0.07915 0.08548 0.2895 0.0
C179 C 0.92893 0.13956 0.33201 0.0
H180 H 0.08351 0.03505 0.11579 0.0
H181 H 0.07528 0.06047 0.19612 0.0
H182 H 0.06466 0.02138 0.16119 0.0
H183 H 0.12327 0.12899 0.13992 0.0
H184 H 0.75689 0.12132 0.37942 0.0
H185 H 0.83845 0.13263 0.30924 0.0
H186 H 0.91219 0.13819 0.38315 0.0
H187 H 0.76049 0.12343 0.33164 0.0
Tb188 Tb 0.45385 0.38638 0.73422 0.0
C189 C 0.66331 0.41326 0.7637 0.0
N190 N 0.63832 0.3857 0.76624 0.0
C191 C 0.70457 0.35847 0.74598 0.0
C192 C 0.70891 0.41475 0.7511 0.0
C193 C 0.66007 0.35822 0.75927 0.0
C194 C 0.72866 0.38696 0.74138 0.0
C195 C 0.67143 0.46804 0.77592 0.0
C196 C 0.64497 0.43954 0.77578 0.0
C197 C 0.71566 0.47015 0.76225 0.0
C198 C 0.73428 0.44356 0.74976 0.0
Tb199 Tb 0.56441 0.38851 0.78715 0.0
N200 N 0.60177 0.43662 0.78848 0.0
C201 C 0.65307 0.49324 0.79029 0.0
C202 C 0.58478 0.46057 0.80353 0.0
C203 C 0.60987 0.48934 0.80442 0.0
H204 H 0.64398 0.33594 0.76452 0.0
H205 H 0.59593 0.50844 0.81603 0.0
H206 H 0.36391 0.41938 0.76603 0.0
H207 H 0.46656 0.27276 0.68702 0.0
H208 H 0.55177 0.45744 0.81471 0.0
H209 H 0.6724 0.51553 0.791 0.0
H210 H 0.48898 0.32799 0.69441 0.0
H211 H 0.72083 0.33661 0.73988 0.0
H212 H 0.73631 0.49196 0.76178 0.0
H213 H 0.76915 0.44524 0.73993 0.0
H214 H 0.28457 0.40317 0.78495 0.0
H215 H 0.76357 0.38706 0.73152 0.0
H216 H 0.39456 0.24967 0.7091 0.0
N217 N 0.38024 0.37372 0.75203 0.0
C218 C 0.36407 0.34383 0.74838 0.0
C219 C 0.30677 0.38619 0.77487 0.0
C220 C 0.31929 0.33347 0.75885 0.0
C221 C 0.35171 0.39528 0.76425 0.0
C222 C 0.29071 0.35506 0.77242 0.0
N223 N 0.43465 0.33538 0.72338 0.0
C224 C 0.45947 0.3179 0.70555 0.0
C225 C 0.37723 0.29262 0.72946 0.0
C226 C 0.39281 0.32378 0.73402 0.0
C227 C 0.40523 0.27376 0.71311 0.0
C228 C 0.44601 0.28666 0.70071 0.0
H229 H 0.256 0.34805 0.78076 0.0
H230 H 0.27044 0.29352 0.76339 0.0
H231 H 0.32114 0.25772 0.73756 0.0
O232 O 0.42157 0.38373 0.69694 0.0
O233 O 0.44311 0.36827 0.77391 0.0
O234 O 0.51664 0.34692 0.78528 0.0
O235 O 0.42181 0.42678 0.71843 0.0
O236 O 0.52426 0.36553 0.72331 0.0
O237 O 0.55815 0.34704 0.76162 0.0
O238 O 0.5558 0.39246 0.82792 0.0
O239 O 0.55285 0.42784 0.75991 0.0
O240 O 0.52587 0.40373 0.72283 0.0
O241 O 0.61595 0.36763 0.8118 0.0
O242 O 0.49493 0.40967 0.79861 0.0
O243 O 0.4569 0.42724 0.76065 0.0
C244 C 0.46867 0.34638 0.78542 0.0
C245 C 0.43044 0.43056 0.67251 0.0
C246 C 0.43515 0.43527 0.62498 0.0
C247 C 0.46473 0.46221 0.62808 0.0
C248 C 0.45991 0.45763 0.67487 0.0
C249 C 0.47682 0.47327 0.6528 0.0
C250 C 0.41778 0.41964 0.64742 0.0
C251 C 0.5522 0.34577 0.73617 0.0
C252 C 0.41308 0.41363 0.69603 0.0
C253 C 0.30451 0.30209 0.75527 0.0
C254 C 0.33347 0.28168 0.74064 0.0
C255 C 0.54952 0.42661 0.73447 0.0
C256 C 0.63048 0.39396 0.85132 0.0
C257 C 0.66287 0.40045 0.89537 0.0
C258 C 0.69876 0.42106 0.88555 0.0
C259 C 0.66761 0.41392 0.84203 0.0
C260 C 0.62802 0.3874 0.87815 0.0
C261 C 0.70095 0.42776 0.85908 0.0
C262 C 0.46642 0.42935 0.7859 0.0
C263 C 0.59654 0.37834 0.83296 0.0
H264 H 0.47804 0.4751 0.61133 0.0
H265 H 0.47018 0.46676 0.69378 0.0
H266 H 0.49945 0.4941 0.65486 0.0
H267 H 0.39517 0.39876 0.64541 0.0
H268 H 0.7255 0.4318 0.89839 0.0
H269 H 0.67175 0.41829 0.82156 0.0
H270 H 0.60037 0.3713 0.88542 0.0
H271 H 0.72922 0.44325 0.85166 0.0
Tb272 Tb 0.06462 0.88775 0.73324 0.0
C273 C 0.86731 0.8442 0.77173 0.0
N274 N 0.88146 0.87451 0.76838 0.0
C275 C 0.80735 0.88511 0.74529 0.0
C276 C 0.82359 0.83259 0.76082 0.0
C277 C 0.85136 0.89541 0.75638 0.0
C278 C 0.79375 0.85344 0.74715 0.0
C279 C 0.88243 0.79383 0.79169 0.0
C280 C 0.89644 0.82521 0.78679 0.0
C281 C 0.84025 0.78147 0.77974 0.0
C282 C 0.81082 0.80085 0.76433 0.0
Tb283 Tb 0.95469 0.88901 0.78601 0.0
N284 N 0.93645 0.83828 0.79822 0.0
C285 C 0.91003 0.77634 0.80932 0.0
C286 C 0.96015 0.82232 0.81748 0.0
C287 C 0.9484 0.79091 0.82273 0.0
H288 H 0.86193 0.91984 0.7549 0.0
H289 H 0.96839 0.77814 0.83743 0.0
H290 H 0.13482 0.82706 0.75 0.0
H291 H 0.11985 0.00704 0.71311 0.0
H292 H 0.98784 0.83378 0.82913 0.0
H293 H 0.90058 0.75214 0.81365 0.0
H294 H 0.06767 0.95935 0.70932 0.0
H295 H 0.78406 0.90155 0.73524 0.0
H296 H 0.82922 0.75729 0.78298 0.0
H297 H 0.77771 0.79128 0.75579 0.0
H298 H 0.21091 0.81898 0.77467 0.0
H299 H 0.75979 0.84549 0.73846 0.0
H300 H 0.19403 0.00608 0.74071 0.0
N301 N 0.13773 0.87691 0.75311 0.0
C302 C 0.16677 0.90206 0.75854 0.0
C303 C 0.1985 0.84256 0.77069 0.0
C304 C 0.21169 0.89867 0.77158 0.0
C305 C 0.15476 0.84724 0.75722 0.0
C306 C 0.22659 0.86845 0.77847 0.0
N307 N 0.11131 0.93243 0.73503 0.0
C308 C 0.1001 0.95889 0.72127 0.0
C309 C 0.1843 0.95727 0.75156 0.0
C310 C 0.15353 0.93083 0.74869 0.0
C311 C 0.17133 0.9852 0.73905 0.0
C312 C 0.12952 0.98582 0.72341 0.0
H313 H 0.26083 0.86477 0.78853 0.0
H314 H 0.27563 0.92326 0.78635 0.0
H315 H 0.25152 0.97471 0.76881 0.0
O316 O 0.0508 0.89372 0.69337 0.0
O317 O 0.0546 0.9276 0.76002 0.0
O318 O 0.02742 0.90505 0.7977 0.0
O319 O 0.11516 0.87024 0.70606 0.0
O320 O 0.99962 0.91418 0.72192 0.0
O321 O 0.95686 0.92963 0.75916 0.0
O322 O 0.91971 0.88784 0.82298 0.0
O323 O 0.94333 0.87343 0.74568 0.0
O324 O 0.01324 0.84791 0.73431 0.0
O325 O 0.92735 0.93124 0.80094 0.0
O326 O 0.02452 0.86711 0.79669 0.0
O327 O 0.05328 0.84628 0.7583 0.0
C328 C 0.05265 0.92676 0.78548 0.0
C329 C 0.08151 0.8551 0.66562 0.0
C330 C 0.08937 0.84009 0.62002 0.0
C331 C 0.06099 0.81308 0.62499 0.0
C332 C 0.05379 0.82784 0.67031 0.0
C333 C 0.04364 0.80694 0.65005 0.0
C334 C 0.09968 0.86097 0.64055 0.0
C335 C 0.96911 0.93285 0.73431 0.0
C336 C 0.0893 0.87861 0.68613 0.0
C337 C 0.24126 0.9253 0.77607 0.0
C338 C 0.2276 0.95458 0.76603 0.0
C339 C 0.96551 0.85036 0.73383 0.0
C340 C 0.88507 0.93542 0.84222 0.0
C341 C 0.86073 0.94352 0.88758 0.0
C342 C 0.83449 0.97016 0.87965 0.0
C343 C 0.8592 0.96236 0.83507 0.0
C344 C 0.88549 0.92586 0.86852 0.0
C345 C 0.83386 0.97945 0.85367 0.0
C346 C 0.04953 0.84586 0.78384 0.0
C347 C 0.91123 0.91774 0.82193 0.0
H348 H 0.05262 0.7966 0.60954 0.0
H349 H 0.03963 0.82293 0.68952 0.0
H350 H 0.02196 0.78603 0.65373 0.0
H351 H 0.12066 0.88223 0.63686 0.0
H352 H 0.81401 0.98383 0.89356 0.0
H353 H 0.85812 0.97006 0.81499 0.0
H354 H 0.90602 0.90533 0.87417 0.0
H355 H 0.81358 1.00001 0.84791 0.0
Tb356 Tb 0.47564 0.62351 0.2271 0.0
C357 C 0.67815 0.66103 0.25884 0.0
N358 N 0.65588 0.63258 0.26181 0.0
C359 C 0.72544 0.60755 0.24272 0.0
C360 C 0.72384 0.664 0.24647 0.0
C361 C 0.68051 0.60582 0.25553 0.0
C362 C 0.74676 0.6368 0.23767 0.0
C363 C 0.67955 0.71673 0.26877 0.0
C364 C 0.65652 0.68705 0.26979 0.0
C365 C 0.72395 0.7201 0.25541 0.0
C366 C 0.74599 0.69379 0.24421 0.0
Tb367 Tb 0.58091 0.63359 0.28183 0.0
N368 N 0.61292 0.68309 0.28186 0.0
C369 C 0.65744 0.74197 0.28146 0.0
C370 C 0.5923 0.70714 0.29539 0.0
C371 C 0.61394 0.73704 0.29513 0.0
H372 H 0.66644 0.58293 0.26076 0.0
H373 H 0.59706 0.75626 0.3054 0.0
H374 H 0.37664 0.64764 0.25682 0.0
H375 H 0.50946 0.51617 0.17388 0.0
H376 H 0.55876 0.70327 0.30599 0.0
H377 H 0.67401 0.76517 0.28118 0.0
H378 H 0.51994 0.57246 0.18397 0.0
H379 H 0.74405 0.58626 0.23721 0.0
H380 H 0.74197 0.7428 0.25407 0.0
H381 H 0.78084 0.69657 0.23453 0.0
H382 H 0.29979 0.62429 0.27362 0.0
H383 H 0.78187 0.63804 0.22806 0.0
H384 H 0.4435 0.48546 0.1951 0.0
N385 N 0.40368 0.6042 0.2429 0.0
C386 C 0.39402 0.57338 0.23836 0.0
C387 C 0.32621 0.60965 0.26394 0.0
C388 C 0.35096 0.55897 0.24758 0.0
C389 C 0.36974 0.62279 0.25453 0.0
C390 C 0.31707 0.57749 0.26079 0.0
N391 N 0.46588 0.57248 0.21359 0.0
C392 C 0.49328 0.55883 0.19461 0.0
C393 C 0.41771 0.52498 0.21754 0.0
C394 C 0.42695 0.55674 0.22366 0.0
C395 C 0.44919 0.50988 0.20029 0.0
C396 C 0.48651 0.52711 0.18832 0.0
H397 H 0.28342 0.56735 0.26814 0.0
H398 H 0.31025 0.51518 0.25002 0.0
H399 H 0.36877 0.48535 0.22364 0.0
O400 O 0.44349 0.62011 0.18988 0.0
O401 O 0.46399 0.60476 0.26682 0.0
O402 O 0.53969 0.58925 0.28101 0.0
O403 O 0.44175 0.66325 0.2112 0.0
O404 O 0.54963 0.60654 0.21877 0.0
O405 O 0.58137 0.59043 0.2582 0.0
O406 O 0.56677 0.63762 0.32189 0.0
O407 O 0.56346 0.67082 0.25367 0.0
O408 O 0.54607 0.64446 0.21619 0.0
O409 O 0.63633 0.62209 0.30848 0.0
O410 O 0.50862 0.65139 0.2921 0.0
O411 O 0.46875 0.66405 0.25334 0.0
C412 C 0.49199 0.58554 0.28007 0.0
C413 C 0.45194 0.66662 0.16547 0.0
C414 C 0.45395 0.67254 0.1181 0.0
C415 C 0.49003 0.69601 0.1209 0.0
C416 C 0.4876 0.69043 0.16767 0.0
C417 C 0.5065 0.70493 0.14552 0.0
C418 C 0.43484 0.65799 0.14058 0.0
C419 C 0.57622 0.58731 0.23282 0.0
C420 C 0.43394 0.64985 0.18882 0.0
C421 C 0.34281 0.52686 0.24281 0.0
C422 C 0.37622 0.50986 0.22786 0.0
C423 C 0.56669 0.66821 0.22834 0.0
C424 C 0.60857 0.60208 0.3485 0.0
C425 C 0.61738 0.58635 0.3939 0.0
C426 C 0.60431 0.55545 0.38691 0.0
C427 C 0.59629 0.57108 0.34185 0.0
C428 C 0.61945 0.60961 0.37447 0.0
C429 C 0.59402 0.54791 0.36102 0.0
C430 C 0.47554 0.66704 0.27872 0.0
C431 C 0.60909 0.62689 0.32868 0.0
H432 H 0.50506 0.70782 0.10401 0.0
H433 H 0.50109 0.69778 0.18651 0.0
H434 H 0.53409 0.72315 0.14744 0.0
H435 H 0.40753 0.63954 0.13872 0.0
H436 H 0.6027 0.53701 0.40141 0.0
H437 H 0.58856 0.5649 0.32187 0.0
H438 H 0.62866 0.63365 0.37958 0.0
H439 H 0.58431 0.52403 0.35579 0.0
H440 H 0.12186 0.94337 0.40211 0.0
H441 H 0.11947 0.03109 0.27074 0.0
H442 H 0.24752 0.93163 0.35229 0.0
H443 H 0.09862 0.08366 0.34157 0.0
H444 H 0.15476 0.98826 0.29648 0.0
H445 H 0.09881 0.98903 0.37653 0.0
C446 C 0.14509 0.95033 0.38609 0.0
C447 C 0.18725 0.93333 0.37974 0.0
C448 C 0.14284 0.0094 0.3062 0.0
C449 C 0.1591 0.98499 0.34963 0.0
C450 C 0.12299 0.03388 0.29159 0.0
C451 C 0.10574 0.06093 0.30405 0.0
C452 C 0.14411 0.01175 0.33339 0.0
C453 C 0.1108 0.06306 0.3312 0.0
C454 C 0.13147 0.97633 0.37138 0.0
C455 C 0.2143 0.94331 0.35787 0.0
N456 N 0.12852 0.0385 0.34503 0.0
N457 N 0.19947 0.96826 0.34343 0.0
H458 H 0.35253 0.54665 0.90871 0.0
H459 H 0.42639 0.484 0.76758 0.0
H460 H 0.36285 0.60712 0.84146 0.0
H461 H 0.45607 0.43365 0.83866 0.0
H462 H 0.39343 0.5273 0.79339 0.0
H463 H 0.38176 0.50307 0.88238 0.0
C464 C 0.36121 0.55091 0.88848 0.0
C465 C 0.3554 0.58084 0.87744 0.0
C466 C 0.40709 0.50672 0.80328 0.0
C467 C 0.38799 0.53059 0.84695 0.0
C468 C 0.42567 0.48193 0.78858 0.0
C469 C 0.44415 0.45517 0.80096 0.0
C470 C 0.40643 0.50455 0.83056 0.0
C471 C 0.44249 0.45388 0.82825 0.0
C472 C 0.37762 0.52589 0.8734 0.0
C473 C 0.36611 0.58449 0.85084 0.0
N474 N 0.42393 0.47815 0.84209 0.0
N475 N 0.38183 0.5597 0.83653 0.0
H476 H 0.73095 0.57647 0.67225 0.0
H477 H 0.56788 0.42586 0.68218 0.0
H478 H 0.61148 0.56345 0.61801 0.0
H479 H 0.57977 0.48528 0.74986 0.0
H480 H 0.60398 0.46818 0.65593 0.0
H481 H 0.69534 0.53511 0.69959 0.0
C482 C 0.69738 0.56522 0.66598 0.0
C483 C 0.67472 0.57365 0.64241 0.0
C484 C 0.59921 0.4716 0.67664 0.0
C485 C 0.63539 0.52542 0.67323 0.0
C486 C 0.57862 0.4476 0.69163 0.0
C487 C 0.57178 0.4518 0.71845 0.0
C488 C 0.61407 0.49963 0.68866 0.0
C489 C 0.58607 0.48059 0.72953 0.0
C490 C 0.67741 0.54147 0.68157 0.0
C491 C 0.63158 0.5574 0.63539 0.0
N492 N 0.60711 0.50336 0.71465 0.0
N493 N 0.61374 0.53385 0.65053 0.0
H494 H 0.83283 0.97925 0.12398 0.0
H495 H 0.02859 0.02166 0.23306 0.0
H496 H 0.90709 0.90737 0.16733 0.0
H497 H 0.91007 0.08324 0.2136 0.0
H498 H 0.99089 0.98049 0.20598 0.0
H499 H 0.86685 0.01897 0.15355 0.0
C500 C 0.85632 0.97187 0.13976 0.0
C501 C 0.86726 0.94002 0.14323 0.0
C502 C 0.973 1.00295 0.20781 0.0
C503 C 0.90671 0.98533 0.17694 0.0
C504 C 0.99458 0.02644 0.22311 0.0
C505 C 0.9723 0.0558 0.22556 0.0
C506 C 0.92935 0.00912 0.19447 0.0
C507 C 0.9282 0.06082 0.21238 0.0
C508 C 0.87552 0.9945 0.15668 0.0
C509 C 0.89762 0.93168 0.16409 0.0
N510 N 0.90838 0.03782 0.19722 0.0
N511 N 0.91673 0.95424 0.18002 0.0
H512 H 0.90881 0.0709 0.61559 0.0
H513 H 0.89765 0.97469 0.74893 0.0
H514 H 0.7861 0.07628 0.66796 0.0
H515 H 0.98909 0.94943 0.684 0.0
H516 H 0.8612 0.01596 0.72205 0.0
H517 H 0.94352 0.02996 0.64287 0.0
C518 C 0.88881 0.06335 0.63265 0.0
C519 C 0.84415 0.07715 0.63927 0.0
C520 C 0.88924 1.00128 0.71378 0.0
C521 C 0.88466 0.03056 0.67111 0.0
C522 C 0.91013 0.97773 0.72911 0.0
C523 C 0.94653 0.95836 0.71879 0.0
C524 C 0.90535 1.00578 0.6881 0.0
C525 C 0.96125 0.96363 0.69295 0.0
C526 C 0.90892 0.04006 0.64836 0.0
C527 C 0.82087 0.06676 0.66216 0.0
N528 N 0.9408 0.98683 0.67861 0.0
N529 N 0.84144 0.04419 0.67727 0.0
H530 H 0.69388 0.46466 0.11561 0.0
H531 H 0.59011 0.52799 0.25126 0.0
H532 H 0.65488 0.40409 0.17977 0.0
H533 H 0.61592 0.58676 0.18432 0.0
H534 H 0.62071 0.48284 0.22683 0.0
H535 H 0.67035 0.51005 0.1415 0.0
C536 C 0.67995 0.46085 0.13506 0.0
C537 C 0.67608 0.43043 0.14544 0.0
C538 C 0.62 0.50564 0.21753 0.0
C539 C 0.64993 0.48249 0.17545 0.0
C540 C 0.60293 0.5314 0.23153 0.0
C541 C 0.60014 0.56092 0.21961 0.0
C542 C 0.63469 0.5096 0.19154 0.0
C543 C 0.61703 0.56421 0.19404 0.0
C544 C 0.66692 0.48684 0.14993 0.0
C545 C 0.65887 0.42709 0.17103 0.0
N546 N 0.63329 0.53882 0.18078 0.0
N547 N 0.64638 0.45278 0.18513 0.0
H548 H 0.2978 0.45393 0.35982 0.0
H549 H 0.53537 0.53165 0.29673 0.0
H550 H 0.44296 0.43493 0.38774 0.0
H551 H 0.39825 0.58034 0.29877 0.0
H552 H 0.50004 0.49031 0.32403 0.0
H553 H 0.33181 0.49463 0.33088 0.0
C554 C 0.33682 0.45822 0.35972 0.0
C555 C 0.36765 0.44116 0.37623 0.0
C556 C 0.47762 0.50998 0.31839 0.0
C557 C 0.40668 0.48724 0.34311 0.0
C558 C 0.4978 0.5337 0.30292 0.0
C559 C 0.46976 0.55963 0.29548 0.0
C560 C 0.42865 0.51179 0.32613 0.0
C561 C 0.4209 0.56055 0.30361 0.0
C562 C 0.35611 0.4815 0.34335 0.0
C563 C 0.41792 0.44773 0.37546 0.0
N564 N 0.40179 0.53692 0.31841 0.0
N565 N 0.4359 0.47009 0.35908 0.0
H566 H 0.15918 0.10535 0.84391 0.0
H567 H 0.0883 0.92288 0.83488 0.0
H568 H 0.19145 0.03789 0.90405 0.0
H569 H 0.07114 0.98752 0.77106 0.0
H570 H 0.1269 0.96482 0.86037 0.0
H571 H 0.12886 0.06254 0.81637 0.0
C572 C 0.16039 0.08153 0.85124 0.0
C573 C 0.17751 0.07531 0.87646 0.0
C574 C 0.11504 0.96983 0.84072 0.0
C575 C 0.14214 0.02621 0.84517 0.0
C576 C 0.09282 0.94593 0.82623 0.0
C577 C 0.07687 0.95175 0.80079 0.0
C578 C 0.12085 0.99989 0.82979 0.0
C579 C 0.08375 0.98195 0.79045 0.0
C580 C 0.14279 0.05711 0.83556 0.0
C581 C 0.17766 0.04395 0.88498 0.0
N582 N 0.10503 1.00495 0.80502 0.0
N583 N 0.16 0.02066 0.86945 0.0
H584 H 0.24764 0.14005 0.98097 0.0
H585 H 0.05183 0.069 0.08075 0.0
H586 H 0.10557 0.10501 0.95821 0.0
H587 H 0.18364 0.11655 0.10549 0.0
H588 H 0.0716 0.08185 0.03567 0.0
H589 H 0.2251 0.13251 0.02664 0.0
C590 C 0.21153 0.13112 0.98554 0.0
C591 C 0.17868 0.12286 0.96563 0.0
C592 C 0.09617 0.08961 0.05093 0.0
C593 C 0.15291 0.1137 0.0179 0.0
C594 C 0.08504 0.08208 0.07669 0.0
C595 C 0.11624 0.09156 0.09694 0.0
C596 C 0.13908 0.10657 0.04525 0.0
C597 C 0.15837 0.10894 0.09051 0.0
C598 C 0.19879 0.12663 0.01164 0.0
C599 C 0.13254 0.11107 0.97281 0.0
N600 N 0.16872 0.11571 0.06523 0.0
N601 N 0.12122 0.10667 0.99827 0.0
H602 H 0.2839 0.38561 0.48134 0.0
H603 H 0.49569 0.43088 0.58289 0.0
H604 H 0.43208 0.40854 0.45978 0.0
H605 H 0.34638 0.41435 0.60593 0.0
H606 H 0.47375 0.41798 0.53816 0.0
H607 H 0.30671 0.39122 0.52727 0.0
C608 C 0.32132 0.39154 0.48623 0.0
C609 C 0.356 0.39686 0.46657 0.0
C610 C 0.4457 0.41701 0.55295 0.0
C611 C 0.38231 0.40349 0.51918 0.0
C612 C 0.45821 0.42447 0.57855 0.0
C613 C 0.42272 0.42412 0.59823 0.0
C614 C 0.39719 0.4091 0.54673 0.0
C615 C 0.37497 0.4149 0.59144 0.0
C616 C 0.33425 0.39489 0.51248 0.0
C617 C 0.40384 0.40476 0.47416 0.0
N618 N 0.36351 0.40802 0.56623 0.0
N619 N 0.41546 0.40789 0.49976 0.0
H620 H 0.76358 0.3592 0.05042 0.0
H621 H 0.5872 0.39968 0.93057 0.0
H622 H 0.61547 0.39041 0.0606 0.0
H623 H 0.74129 0.38194 0.92379 0.0
H624 H 0.593 0.39003 0.97767 0.0
H625 H 0.7521 0.36092 1.00345 0.0
C626 C 0.72839 0.36606 0.0428 0.0
C627 C 0.69048 0.37473 0.05957 0.0
C628 C 0.62543 0.38809 0.9658 0.0
C629 C 0.67726 0.37724 1.00552 0.0
C630 C 0.62205 0.39341 0.93896 0.0
C631 C 0.66393 0.39194 0.92336 0.0
C632 C 0.67091 0.38095 0.97696 0.0
C633 C 0.70826 0.38382 0.93518 0.0
C634 C 0.72195 0.36727 0.01591 0.0
C635 C 0.64593 0.38393 0.04843 0.0
N636 N 0.71058 0.37875 0.9612 0.0
N637 N 0.64058 0.38503 0.02211 0.0
H638 H 0.84079 0.17526 0.54914 0.0
H639 H 0.78788 0.08602 0.41533 0.0
H640 H 0.79289 0.07858 0.54581 0.0
H641 H 0.87641 0.17009 0.4202 0.0
H642 H 0.78375 0.0845 0.46291 0.0
H643 H 0.84867 0.17549 0.50171 0.0
C644 C 0.83188 0.15408 0.5384 0.0
C645 C 0.81604 0.12687 0.55143 0.0
C646 C 0.80422 0.10321 0.45358 0.0
C647 C 0.82482 0.127 0.49712 0.0
C648 C 0.80634 0.1042 0.42643 0.0
C649 C 0.83242 0.12827 0.41379 0.0
C650 C 0.82778 0.12671 0.46824 0.0
C651 C 0.85616 0.15101 0.42916 0.0
C652 C 0.83663 0.15418 0.51135 0.0
C653 C 0.80551 0.09999 0.53655 0.0
N654 N 0.85297 0.14981 0.45555 0.0
N655 N 0.80972 0.1008 0.51018 0.0
H656 H 0.83021 0.95488 0.05388 0.0
H657 H 0.8555 0.88464 0.91034 0.0
H658 H 0.85067 0.85585 0.04012 0.0
H659 H 0.86938 0.98304 0.92931 0.0
H660 H 0.8512 0.87256 0.95705 0.0
H661 H 0.84043 0.96468 1.00766 0.0
C662 C 0.83733 0.93514 0.04123 0.0
C663 C 0.8401 0.90448 0.05119 0.0
C664 C 0.85536 0.89676 0.95091 0.0
C665 C 0.8509 0.91562 0.99761 0.0
C666 C 0.85809 0.90366 0.92425 0.0
C667 C 0.8621 0.93498 0.91576 0.0
C668 C 0.8565 0.92134 0.96917 0.0
C669 C 0.86503 0.95863 0.93478 0.0
C670 C 0.84292 0.94078 0.01468 0.0
C671 C 0.84788 0.87986 0.03342 0.0
N672 N 0.86184 0.95135 0.96043 0.0
N673 N 0.85297 0.88595 1.00752 0.0
H674 H 0.75997 0.63776 0.53909 0.0
H675 H 0.56609 0.56901 0.43717 0.0
H676 H 0.61635 0.60391 0.55998 0.0
H677 H 0.69369 0.62155 0.4133 0.0
H678 H 0.58596 0.58046 0.4825 0.0
H679 H 0.73809 0.63186 0.49302 0.0
C680 C 0.72376 0.62937 0.53403 0.0
C681 C 0.69023 0.62088 0.55349 0.0
C682 C 0.60958 0.58964 0.46739 0.0
C683 C 0.66521 0.61373 0.50091 0.0
C684 C 0.59838 0.58293 0.4415 0.0
C685 C 0.6284 0.59421 0.42145 0.0
C686 C 0.65147 0.60752 0.4734 0.0
C687 C 0.66943 0.61254 0.42819 0.0
C688 C 0.71137 0.62588 0.50774 0.0
C689 C 0.64387 0.61 0.54573 0.0
N690 N 0.68 0.61844 0.45362 0.0
N691 N 0.63294 0.60653 0.52014 0.0
H692 H 0.28142 0.65121 0.97758 0.0
H693 H 0.50894 0.66062 0.07496 0.0
H694 H 0.42869 0.62898 0.95513 0.0
H695 H 0.35963 0.66438 0.10099 0.0
H696 H 0.48012 0.64993 0.0308 0.0
H697 H 0.30909 0.65752 0.02263 0.0
C698 C 0.3196 0.64771 0.98212 0.0
C699 C 0.35279 0.63961 0.96251 0.0
C700 C 0.45358 0.6529 0.04616 0.0
C701 C 0.3847 0.6467 0.01408 0.0
C702 C 0.47003 0.65912 0.07136 0.0
C703 C 0.43663 0.66359 0.09166 0.0
C704 C 0.40325 0.65145 0.04104 0.0
C705 C 0.38663 0.66096 0.08595 0.0
C706 C 0.3353 0.65111 1.00787 0.0
C707 C 0.40171 0.63496 0.96961 0.0
N708 N 0.37144 0.65535 0.06113 0.0
N709 N 0.4162 0.63876 0.99474 0.0
H710 H 0.11183 0.88503 0.45618 0.0
H711 H 0.18221 0.85573 0.60483 0.0
H712 H 0.25773 0.86074 0.4798 0.0
H713 H 0.03716 0.83981 0.57469 0.0
H714 H 0.21099 0.86611 0.56039 0.0
H715 H 0.08418 0.87732 0.50104 0.0
C716 C 0.1381 0.87836 0.47089 0.0
C717 C 0.18712 0.8735 0.46432 0.0
C718 C 0.17289 0.86033 0.56356 0.0
C719 C 0.1558 0.86469 0.5156 0.0
C720 C 0.15645 0.85457 0.58885 0.0
C721 C 0.10731 0.84678 0.59336 0.0
C722 C 0.13974 0.85889 0.54272 0.0
C723 C 0.07542 0.84544 0.572 0.0
C724 C 0.12226 0.87375 0.49641 0.0
C725 C 0.21957 0.86452 0.48407 0.0
N726 N 0.09212 0.8516 0.54762 0.0
N727 N 0.20339 0.86054 0.50887 0.0
H728 H 0.24034 0.32766 0.33939 0.0
H729 H 0.11424 0.15663 0.33906 0.0
H730 H 0.25615 0.2609 0.40172 0.0
H731 H 0.08986 0.22595 0.2795 0.0
H732 H 0.16457 0.1949 0.36291 0.0
H733 H 0.18347 0.2913 0.31758 0.0
C734 C 0.23136 0.30544 0.34855 0.0
C735 C 0.25293 0.29722 0.37232 0.0
C736 C 0.1482 0.20179 0.34463 0.0
C737 C 0.18833 0.25535 0.34751 0.0
C738 C 0.11934 0.17998 0.33107 0.0
C739 C 0.09854 0.18801 0.30707 0.0
C740 C 0.15615 0.23194 0.33416 0.0
C741 C 0.10628 0.21856 0.29761 0.0
C742 C 0.19906 0.28466 0.33612 0.0
C743 C 0.24033 0.26812 0.3834 0.0
N744 N 0.13462 0.23934 0.31108 0.0
N745 N 0.2091 0.24819 0.37085 0.0
H746 H 0.39 0.17147 0.86118 0.0
H747 H 0.379 0.34861 0.80871 0.0
H748 H 0.2806 0.23733 0.88537 0.0
H749 H 0.5008 0.28722 0.7959 0.0
H750 H 0.33787 0.3067 0.83314 0.0
H751 H 0.42674 0.21213 0.83365 0.0
C752 C 0.37337 0.19443 0.86041 0.0
C753 C 0.33167 0.20089 0.87518 0.0
C754 C 0.37355 0.30236 0.82496 0.0
C755 C 0.37396 0.24778 0.84403 0.0
C756 C 0.39687 0.3262 0.81085 0.0
C757 C 0.44321 0.3213 0.80014 0.0
C758 C 0.39681 0.27338 0.82841 0.0
C759 C 0.46516 0.29203 0.80395 0.0
C760 C 0.39447 0.21768 0.8448 0.0
C761 C 0.31223 0.23124 0.87391 0.0
N762 N 0.44176 0.26919 0.81773 0.0
N763 N 0.33345 0.25354 0.85856 0.0
H764 H 0.73085 0.25451 0.62032 0.0
H765 H 0.58513 0.28855 0.75235 0.0
H766 H 0.74127 0.1966 0.68878 0.0
H767 H 0.58439 0.3506 0.68605 0.0
H768 H 0.63755 0.25253 0.72832 0.0
H769 H 0.67248 0.28807 0.64297 0.0
C770 C 0.72083 0.24898 0.64017 0.0
C771 C 0.74141 0.2232 0.65295 0.0
C772 C 0.62578 0.27395 0.71897 0.0
C773 C 0.67438 0.2611 0.67889 0.0
C774 C 0.59589 0.29449 0.73268 0.0
C775 C 0.58083 0.32269 0.72125 0.0
C776 C 0.64055 0.28159 0.69357 0.0
C777 C 0.59524 0.3291 0.6956 0.0
C778 C 0.68751 0.26805 0.65309 0.0
C779 C 0.72664 0.2166 0.67847 0.0
N780 N 0.62451 0.30879 0.68268 0.0
N781 N 0.69419 0.23552 0.69067 0.0
H782 H 0.8177 0.32996 0.19397 0.0
H783 H 0.97172 0.1713 0.19026 0.0
H784 H 0.85519 0.28082 0.12367 0.0
H785 H 0.92734 0.21544 0.26191 0.0
H786 H 0.92781 0.21097 0.16594 0.0
H787 H 0.85555 0.28794 0.21957 0.0
C788 C 0.83392 0.31023 0.18401 0.0
C789 C 0.8343 0.30899 0.15676 0.0
C790 C 0.92747 0.21202 0.18697 0.0
C791 C 0.87722 0.26094 0.18569 0.0
C792 C 0.95274 0.18936 0.20095 0.0
C793 C 0.95352 0.19006 0.22825 0.0
C794 C 0.90278 0.23583 0.20027 0.0
C795 C 0.92781 0.21398 0.2409 0.0
C796 C 0.85543 0.28631 0.19856 0.0
C797 C 0.85491 0.28282 0.14466 0.0
N798 N 0.90364 0.23602 0.22679 0.0
N799 N 0.87586 0.25995 0.1592 0.0
H800 H 0.82617 0.68431 0.66852 0.0
H801 H 0.88298 0.86307 0.70659 0.0
H802 H 0.74625 0.763 0.63822 0.0
H803 H 0.98141 0.78783 0.72478 0.0
H804 H 0.83131 0.82615 0.68256 0.0
H805 H 0.8826 0.72105 0.69021 0.0
C806 C 0.82101 0.70933 0.66611 0.0
C807 C 0.78224 0.72069 0.651 0.0
C808 C 0.86431 0.81763 0.69164 0.0
C809 C 0.84566 0.76277 0.67633 0.0
C810 C 0.89366 0.83869 0.70549 0.0
C811 C 0.93618 0.82837 0.71786 0.0
C812 C 0.87742 0.78587 0.69017 0.0
C813 C 0.94885 0.79667 0.71546 0.0
C814 C 0.85307 0.73027 0.67856 0.0
C815 C 0.77624 0.75329 0.64923 0.0
N816 N 0.91938 0.77643 0.70204 0.0
N817 N 0.80751 0.77314 0.66174 0.0
H818 H 0.70018 0.84316 0.17826 0.0
H819 H 0.61223 0.66276 0.18117 0.0
H820 H 0.71253 0.78148 0.11226 0.0
H821 H 0.57775 0.73021 0.24066 0.0
H822 H 0.65517 0.70426 0.15689 0.0
H823 H 0.66326 0.8001 0.20324 0.0
C824 C 0.69529 0.82043 0.16911 0.0
C825 C 0.70867 0.81591 0.14308 0.0
C826 C 0.63847 0.70993 0.17535 0.0
C827 C 0.66647 0.76648 0.17147 0.0
C828 C 0.61386 0.68629 0.18915 0.0
C829 C 0.59212 0.69299 0.21318 0.0
C830 C 0.6413 0.74048 0.18565 0.0
C831 C 0.59505 0.72387 0.22255 0.0
C832 C 0.67408 0.79589 0.18331 0.0
C833 C 0.70217 0.78592 0.13222 0.0
N834 N 0.61929 0.7464 0.20885 0.0
N835 N 0.68126 0.76237 0.1464 0.0
H836 H 0.25811 0.80367 0.32344 0.0
H837 H 0.47 0.6756 0.33149 0.0
H838 H 0.31056 0.76429 0.39531 0.0
H839 H 0.40804 0.7082 0.25916 0.0
H840 H 0.41549 0.71032 0.35511 0.0
H841 H 0.3163 0.77129 0.29948 0.0
C842 C 0.28191 0.78809 0.33411 0.0
C843 C 0.27915 0.78612 0.36129 0.0
C844 C 0.41383 0.70991 0.33407 0.0
C845 C 0.34606 0.74935 0.33418 0.0
C846 C 0.44506 0.69009 0.32051 0.0
C847 C 0.44355 0.68878 0.29322 0.0
C848 C 0.38081 0.7287 0.32031 0.0
C849 C 0.4104 0.70823 0.28018 0.0
C850 C 0.3151 0.76966 0.32049 0.0
C851 C 0.31126 0.76607 0.37431 0.0
N852 N 0.38032 0.72733 0.29384 0.0
N853 N 0.34328 0.74835 0.36064 0.0
H854 H 0.18496 0.67326 0.83578 0.0
H855 H 0.0852 0.8498 0.83332 0.0
H856 H 0.18985 0.73533 0.90188 0.0
H857 H 0.07218 0.78616 0.76841 0.0
H858 H 0.12669 0.80891 0.8581 0.0
H859 H 0.14743 0.71509 0.80997 0.0
C860 C 0.17796 0.69575 0.84481 0.0
C861 C 0.18948 0.70077 0.87107 0.0
C862 C 0.11488 0.80384 0.83842 0.0
C863 C 0.14713 0.74879 0.84173 0.0
C864 C 0.09107 0.82716 0.8243 0.0
C865 C 0.07522 0.82131 0.79879 0.0
C866 C 0.12293 0.77439 0.82699 0.0
C867 C 0.08409 0.79167 0.78798 0.0
C868 C 0.15661 0.7196 0.83012 0.0
C869 C 0.18069 0.73045 0.88178 0.0
N870 N 0.1073 0.7693 0.80214 0.0
N871 N 0.1598 0.75329 0.86713 0.0
loop_
_geom_bond_atom_site_label_1
_geom_bond_atom_site_label_2
_geom_bond_distance
_geom_bond_site_symmetry_2
_ccdc_geom_bond_type
H0 C7 0.929 . S
H1 C10 0.930 . S
H2 C12 0.929 . S
H3 C4 0.969 . S
C4 H3 0.969 . S
C4 O5 1.550 . S
C4 H6 0.973 . S
O5 C4 1.550 . S
O5 C11 1.412 . S
H6 C4 0.973 . S
C7 H0 0.929 . S
C7 C8 1.400 . S
C7 C9 1.364 . S
C8 C7 1.400 . S
C8 C12 1.377 . S
C9 C7 1.364 . S
C9 C10 1.374 . S
C10 H1 0.930 . S
C10 C9 1.374 . S
C10 C11 1.383 . S
C11 O5 1.412 . S
C11 C10 1.383 . S
C11 C12 1.394 . S
C12 H2 0.929 . S
C12 C8 1.377 . S
C12 C11 1.394 . S
H13 C20 0.929 . S
H14 C23 0.930 . S
H15 C25 0.929 . S
H16 C17 0.969 . S
C17 H16 0.969 . S
C17 O18 1.550 . S
C17 H19 0.973 . S
O18 C17 1.550 . S
O18 C24 1.412 . S
H19 C17 0.973 . S
C20 H13 0.929 . S
C20 C21 1.400 . S
C20 C22 1.364 . S
C21 C20 1.400 . S
C21 C25 1.377 . S
C22 C20 1.364 . S
C22 C23 1.374 . S
C23 H14 0.930 . S
C23 C22 1.374 . S
C23 C24 1.383 . S
C24 O18 1.412 . S
C24 C23 1.383 . S
C24 C25 1.394 . S
C25 H15 0.929 . S
C25 C21 1.377 . S
C25 C24 1.394 . S
H26 C33 0.929 . S
H27 C36 0.930 . S
H28 C38 0.929 . S
H29 C30 0.969 . S
C30 H29 0.969 . S
C30 O31 1.550 . S
C30 H32 0.973 . S
O31 C30 1.550 . S
O31 C37 1.412 . S
H32 C30 0.973 . S
C33 H26 0.929 . S
C33 C34 1.400 . S
C33 C35 1.364 . S
C34 C33 1.400 . S
C34 C38 1.377 . S
C35 C33 1.364 . S
C35 C36 1.374 . S
C36 H27 0.930 . S
C36 C35 1.374 . S
C36 C37 1.383 . S
C37 O31 1.412 . S
C37 C36 1.383 . S
C37 C38 1.394 . S
C38 H28 0.929 . S
C38 C34 1.377 . S
C38 C37 1.394 . S
H39 C46 0.929 . S
H40 C49 0.930 . S
H41 C51 0.929 . S
H42 C43 0.969 . S
C43 H42 0.969 . S
C43 O44 1.550 . S
C43 H45 0.973 . S
O44 C43 1.550 . S
O44 C50 1.412 . S
H45 C43 0.973 . S
C46 H39 0.929 . S
C46 C47 1.400 . S
C46 C48 1.364 . S
C47 C46 1.400 . S
C47 C51 1.377 . S
C48 C46 1.364 . S
C48 C49 1.374 . S
C49 H40 0.930 . S
C49 C48 1.374 . S
C49 C50 1.383 . S
C50 O44 1.412 . S
C50 C49 1.383 . S
C50 C51 1.394 . S
C51 H41 0.929 . S
C51 C47 1.377 . S
C51 C50 1.394 . S
H52 C59 0.929 . S
H53 C62 0.930 . S
H54 C64 0.929 . S
H55 C56 0.969 . S
C56 H55 0.969 . S
C56 O57 1.550 . S
C56 H58 0.973 . S
O57 C56 1.550 . S
O57 C63 1.412 . S
H58 C56 0.973 . S
C59 H52 0.929 . S
C59 C60 1.400 . S
C59 C61 1.364 . S
C60 C59 1.400 . S
C60 C64 1.377 . S
C61 C59 1.364 . S
C61 C62 1.374 . S
C62 H53 0.930 . S
C62 C61 1.374 . S
C62 C63 1.383 . S
C63 O57 1.412 . S
C63 C62 1.383 . S
C63 C64 1.394 . S
C64 H54 0.929 . S
C64 C60 1.377 . S
C64 C63 1.394 . S
H65 C72 0.929 . S
H66 C75 0.930 . S
H67 C77 0.929 . S
H68 C69 0.969 . S
C69 H68 0.969 . S
C69 O70 1.550 . S
C69 H71 0.973 . S
O70 C69 1.550 . S
O70 C76 1.412 . S
H71 C69 0.973 . S
C72 H65 0.929 . S
C72 C73 1.400 . S
C72 C74 1.364 . S
C73 C72 1.400 . S
C73 C77 1.377 . S
C74 C72 1.364 . S
C74 C75 1.374 . S
C75 H66 0.930 . S
C75 C74 1.374 . S
C75 C76 1.383 . S
C76 O70 1.412 . S
C76 C75 1.383 . S
C76 C77 1.394 . S
C77 H67 0.929 . S
C77 C73 1.377 . S
C77 C76 1.394 . S
H78 C85 0.929 . S
H79 C88 0.930 . S
H80 C90 0.929 . S
H81 C82 0.969 . S
C82 H81 0.969 . S
C82 O83 1.550 . S
C82 H84 0.973 . S
O83 C82 1.550 . S
O83 C89 1.412 . S
H84 C82 0.973 . S
C85 H78 0.929 . S
C85 C86 1.400 . S
C85 C87 1.364 . S
C86 C85 1.400 . S
C86 C90 1.377 . S
C87 C85 1.364 . S
C87 C88 1.374 . S
C88 H79 0.930 . S
C88 C87 1.374 . S
C88 C89 1.383 . S
C89 O83 1.412 . S
C89 C88 1.383 . S
C89 C90 1.394 . S
C90 H80 0.929 . S
C90 C86 1.377 . S
C90 C89 1.394 . S
H91 C98 0.929 . S
H92 C101 0.930 . S
H93 C103 0.929 . S
H94 C95 0.969 . S
C95 H94 0.969 . S
C95 O96 1.550 . S
C95 H97 0.973 . S
O96 C95 1.550 . S
O96 C102 1.412 . S
H97 C95 0.973 . S
C98 H91 0.929 . S
C98 C99 1.400 . S
C98 C100 1.364 . S
C99 C98 1.400 . S
C99 C103 1.377 . S
C100 C98 1.364 . S
C100 C101 1.374 . S
C101 H92 0.930 . S
C101 C100 1.374 . S
C101 C102 1.383 . S
C102 O96 1.412 . S
C102 C101 1.383 . S
C102 C103 1.394 . S
C103 H93 0.929 . S
C103 C99 1.377 . S
C103 C102 1.394 . S
Tb104 N133 2.617 . S
Tb104 N139 2.572 . S
Tb104 O148 2.465 . S
Tb104 O149 2.387 . S
Tb104 O151 2.428 . S
Tb104 O152 2.308 . S
Tb104 O156 2.349 . S
Tb104 O159 2.393 . S
Tb104 C168 2.802 . S
C105 N106 1.379 . S
C105 C108 1.416 . S
C105 C112 1.424 . S
N106 C105 1.379 . S
N106 C109 1.334 . S
N106 Tb115 2.617 . S
C107 C109 1.390 . S
C107 C110 1.339 . S
C107 H127 0.930 . S
C108 C105 1.416 . S
C108 C110 1.416 . S
C108 C114 1.448 . S
C109 N106 1.334 . S
C109 C107 1.390 . S
C109 H120 0.930 . S
C110 C107 1.339 . S
C110 C108 1.416 . S
C110 H131 0.930 . S
C111 C112 1.413 . S
C111 C113 1.427 . S
C111 C117 1.416 1_545 S
C112 C105 1.424 . S
C112 C111 1.413 . S
C112 N116 1.361 . S
C113 C111 1.427 . S
C113 C114 1.328 . S
C113 H128 0.929 . S
C114 C108 1.448 . S
C114 C113 1.328 . S
C114 H129 0.930 . S
Tb115 N106 2.617 . S
Tb115 N116 2.572 . S
Tb115 O150 2.349 1_655 S
Tb115 O153 2.393 . S
Tb115 O154 2.465 . S
Tb115 O155 2.387 . S
Tb115 O157 2.428 . S
Tb115 O158 2.308 1_655 S
Tb115 C179 2.802 . S
N116 C112 1.361 . S
N116 Tb115 2.572 . S
N116 C118 1.340 . S
C117 C111 1.416 1_565 S
C117 C119 1.332 1_565 S
C117 H125 0.931 . S
C118 N116 1.340 . S
C118 C119 1.411 . S
C118 H124 0.930 . S
C119 C117 1.332 1_545 S
C119 C118 1.411 . S
C119 H121 0.926 1_545 S
H120 C109 0.930 . S
H121 C119 0.926 1_565 S
H122 C137 0.930 . S
H123 C144 0.929 . S
H124 C118 0.930 . S
H125 C117 0.931 . S
H126 C140 0.930 . S
H127 C107 0.930 . S
H128 C113 0.929 . S
H129 C114 0.930 . S
H130 C135 0.930 . S
H131 C110 0.930 . S
H132 C143 0.931 . S
N133 Tb104 2.617 . S
N133 C134 1.379 . S
N133 C137 1.334 . S
C134 N133 1.379 . S
C134 C136 1.416 . S
C134 C142 1.424 . S
C135 H130 0.930 . S
C135 C137 1.390 . S
C135 C138 1.339 . S
C136 C134 1.416 . S
C136 C138 1.416 . S
C136 C169 1.448 . S
C137 H122 0.930 . S
C137 N133 1.334 . S
C137 C135 1.390 . S
C138 C135 1.339 . S
C138 C136 1.416 . S
C138 H145 0.930 . S
N139 Tb104 2.572 . S
N139 C140 1.340 . S
N139 C142 1.361 . S
C140 H126 0.930 . S
C140 N139 1.340 . S
C140 C144 1.407 . S
C141 C142 1.413 . S
C141 C143 1.416 . S
C141 C170 1.427 . S
C142 C134 1.424 . S
C142 N139 1.361 . S
C142 C141 1.413 . S
C143 H132 0.931 . S
C143 C141 1.416 . S
C143 C144 1.332 . S
C144 H123 0.929 . S
C144 C140 1.407 . S
C144 C143 1.332 . S
H145 C138 0.930 . S
H146 C169 0.930 . S
H147 C170 0.929 . S
O148 Tb104 2.465 . S
O148 C168 1.264 . S
O149 Tb104 2.387 . S
O149 C160 1.264 . S
O150 Tb115 2.349 1_455 S
O150 C160 1.243 . S
O151 Tb104 2.428 . S
O151 C168 1.256 . S
O152 Tb104 2.308 . S
O152 C167 1.266 1_455 S
O153 Tb115 2.393 . S
O153 C167 1.248 . S
O154 Tb115 2.465 . S
O154 C179 1.264 . S
O155 Tb115 2.387 . S
O155 C171 1.264 . S
O156 Tb104 2.349 . S
O156 C171 1.243 1_455 S
O157 Tb115 2.428 . S
O157 C179 1.256 . S
O158 Tb115 2.308 1_455 S
O158 C178 1.266 . S
O159 Tb104 2.393 . S
O159 C178 1.248 . S
C160 O149 1.264 . S
C160 O150 1.243 . S
C161 C164 1.399 . S
C161 C166 1.383 . S
C161 C168 1.496 . S
C162 C163 1.399 . S
C162 C166 1.389 . S
C163 C162 1.399 . S
C163 C165 1.380 . S
C163 H180 0.929 . S
C164 C161 1.399 . S
C164 C165 1.392 . S
C164 H181 0.929 . S
C165 C163 1.380 . S
C165 C164 1.392 . S
C165 H182 0.929 . S
C166 C161 1.383 . S
C166 C162 1.389 . S
C166 H183 0.931 . S
C167 O152 1.266 1_655 S
C167 O153 1.248 . S
C168 Tb104 2.802 . S
C168 O148 1.264 . S
C168 O151 1.256 . S
C168 C161 1.496 . S
C169 C136 1.448 . S
C169 H146 0.930 . S
C169 C170 1.328 . S
C170 C141 1.427 . S
C170 H147 0.929 . S
C170 C169 1.328 . S
C171 O155 1.264 . S
C171 O156 1.243 1_655 S
C172 C175 1.399 . S
C172 C176 1.383 . S
C172 C179 1.496 . S
C173 C174 1.399 . S
C173 C176 1.389 . S
C174 C173 1.399 . S
C174 C177 1.380 . S
C174 H184 0.929 . S
C175 C172 1.399 . S
C175 C177 1.392 . S
C175 H185 0.929 . S
C176 C172 1.383 . S
C176 C173 1.389 . S
C176 H186 0.931 . S
C177 C174 1.380 . S
C177 C175 1.392 . S
C177 H187 0.929 . S
C178 O158 1.266 . S
C178 O159 1.248 . S
C179 Tb115 2.802 . S
C179 O154 1.264 . S
C179 O157 1.256 . S
C179 C172 1.496 . S
H180 C163 0.929 . S
H181 C164 0.929 . S
H182 C165 0.929 . S
H183 C166 0.931 . S
H184 C174 0.929 . S
H185 C175 0.929 . S
H186 C176 0.931 . S
H187 C177 0.929 . S
Tb188 N217 2.617 . S
Tb188 N223 2.572 . S
Tb188 O232 2.465 . S
Tb188 O233 2.387 . S
Tb188 O235 2.428 . S
Tb188 O236 2.308 . S
Tb188 O240 2.349 . S
Tb188 O243 2.393 . S
Tb188 C252 2.802 . S
C189 N190 1.379 . S
C189 C192 1.416 . S
C189 C196 1.424 . S
N190 C189 1.379 . S
N190 C193 1.334 . S
N190 Tb199 2.617 . S
C191 C193 1.390 . S
C191 C194 1.339 . S
C191 H211 0.930 . S
C192 C189 1.416 . S
C192 C194 1.416 . S
C192 C198 1.448 . S
C193 N190 1.334 . S
C193 C191 1.390 . S
C193 H204 0.930 . S
C194 C191 1.339 . S
C194 C192 1.416 . S
C194 H215 0.930 . S
C195 C196 1.413 . S
C195 C197 1.427 . S
C195 C201 1.416 . S
C196 C189 1.424 . S
C196 C195 1.413 . S
C196 N200 1.361 . S
C197 C195 1.427 . S
C197 C198 1.328 . S
C197 H212 0.929 . S
C198 C192 1.448 . S
C198 C197 1.328 . S
C198 H213 0.930 . S
Tb199 N190 2.617 . S
Tb199 N200 2.572 . S
Tb199 O234 2.349 . S
Tb199 O237 2.393 . S
Tb199 O238 2.465 . S
Tb199 O239 2.387 . S
Tb199 O241 2.428 . S
Tb199 O242 2.308 . S
Tb199 C263 2.802 . S
N200 C196 1.361 . S
N200 Tb199 2.572 . S
N200 C202 1.340 . S
C201 C195 1.416 . S
C201 C203 1.332 . S
C201 H209 0.931 . S
C202 N200 1.340 . S
C202 C203 1.407 . S
C202 H208 0.930 . S
C203 C201 1.332 . S
C203 C202 1.407 . S
C203 H205 0.929 . S
H204 C193 0.930 . S
H205 C203 0.929 . S
H206 C221 0.930 . S
H207 C228 0.929 . S
H208 C202 0.930 . S
H209 C201 0.931 . S
H210 C224 0.930 . S
H211 C191 0.930 . S
H212 C197 0.929 . S
H213 C198 0.930 . S
H214 C219 0.930 . S
H215 C194 0.930 . S
H216 C227 0.931 . S
N217 Tb188 2.617 . S
N217 C218 1.379 . S
N217 C221 1.334 . S
C218 N217 1.379 . S
C218 C220 1.416 . S
C218 C226 1.424 . S
C219 H214 0.930 . S
C219 C221 1.390 . S
C219 C222 1.339 . S
C220 C218 1.416 . S
C220 C222 1.416 . S
C220 C253 1.448 . S
C221 H206 0.930 . S
C221 N217 1.334 . S
C221 C219 1.390 . S
C222 C219 1.339 . S
C222 C220 1.416 . S
C222 H229 0.930 . S
N223 Tb188 2.572 . S
N223 C224 1.340 . S
N223 C226 1.361 . S
C224 H210 0.930 . S
C224 N223 1.340 . S
C224 C228 1.407 . S
C225 C226 1.413 . S
C225 C227 1.416 . S
C225 C254 1.427 . S
C226 C218 1.424 . S
C226 N223 1.361 . S
C226 C225 1.413 . S
C227 H216 0.931 . S
C227 C225 1.416 . S
C227 C228 1.332 . S
C228 H207 0.929 . S
C228 C224 1.407 . S
C228 C227 1.332 . S
H229 C222 0.930 . S
H230 C253 0.930 . S
H231 C254 0.929 . S
O232 Tb188 2.465 . S
O232 C252 1.264 . S
O233 Tb188 2.387 . S
O233 C244 1.264 . S
O234 Tb199 2.349 . S
O234 C244 1.243 . S
O235 Tb188 2.428 . S
O235 C252 1.256 . S
O236 Tb188 2.308 . S
O236 C251 1.266 . S
O237 Tb199 2.393 . S
O237 C251 1.248 . S
O238 Tb199 2.465 . S
O238 C263 1.264 . S
O239 Tb199 2.387 . S
O239 C255 1.264 . S
O240 Tb188 2.349 . S
O240 C255 1.243 . S
O241 Tb199 2.428 . S
O241 C263 1.256 . S
O242 Tb199 2.308 . S
O242 C262 1.266 . S
O243 Tb188 2.393 . S
O243 C262 1.248 . S
C244 O233 1.264 . S
C244 O234 1.243 . S
C245 C248 1.399 . S
C245 C250 1.383 . S
C245 C252 1.496 . S
C246 C247 1.399 . S
C246 C250 1.389 . S
C247 C246 1.399 . S
C247 C249 1.380 . S
C247 H264 0.929 . S
C248 C245 1.399 . S
C248 C249 1.392 . S
C248 H265 0.929 . S
C249 C247 1.380 . S
C249 C248 1.392 . S
C249 H266 0.929 . S
C250 C245 1.383 . S
C250 C246 1.389 . S
C250 H267 0.931 . S
C251 O236 1.266 . S
C251 O237 1.248 . S
C252 Tb188 2.802 . S
C252 O232 1.264 . S
C252 O235 1.256 . S
C252 C245 1.496 . S
C253 C220 1.448 . S
C253 H230 0.930 . S
C253 C254 1.328 . S
C254 C225 1.427 . S
C254 H231 0.929 . S
C254 C253 1.328 . S
C255 O239 1.264 . S
C255 O240 1.243 . S
C256 C259 1.399 . S
C256 C260 1.383 . S
C256 C263 1.496 . S
C257 C258 1.399 . S
C257 C260 1.389 . S
C258 C257 1.399 . S
C258 C261 1.380 . S
C258 H268 0.929 . S
C259 C256 1.399 . S
C259 C261 1.392 . S
C259 H269 0.929 . S
C260 C256 1.383 . S
C260 C257 1.389 . S
C260 H270 0.931 . S
C261 C258 1.380 . S
C261 C259 1.392 . S
C261 H271 0.929 . S
C262 O242 1.266 . S
C262 O243 1.248 . S
C263 Tb199 2.802 . S
C263 O238 1.264 . S
C263 O241 1.256 . S
C263 C256 1.496 . S
H264 C247 0.929 . S
H265 C248 0.929 . S
H266 C249 0.929 . S
H267 C250 0.931 . S
H268 C258 0.929 . S
H269 C259 0.929 . S
H270 C260 0.931 . S
H271 C261 0.929 . S
Tb272 N301 2.617 . S
Tb272 N307 2.572 . S
Tb272 O316 2.465 . S
Tb272 O317 2.387 . S
Tb272 O319 2.428 . S
Tb272 O320 2.308 . S
Tb272 O324 2.349 . S
Tb272 O327 2.393 . S
Tb272 C336 2.802 . S
C273 N274 1.379 . S
C273 C276 1.416 . S
C273 C280 1.424 . S
N274 C273 1.379 . S
N274 C277 1.334 . S
N274 Tb283 2.617 . S
C275 C277 1.390 . S
C275 C278 1.339 . S
C275 H295 0.930 . S
C276 C273 1.416 . S
C276 C278 1.416 . S
C276 C282 1.448 . S
C277 N274 1.334 . S
C277 C275 1.390 . S
C277 H288 0.930 . S
C278 C275 1.339 . S
C278 C276 1.416 . S
C278 H299 0.930 . S
C279 C280 1.413 . S
C279 C281 1.427 . S
C279 C285 1.416 . S
C280 C273 1.424 . S
C280 C279 1.413 . S
C280 N284 1.361 . S
C281 C279 1.427 . S
C281 C282 1.328 . S
C281 H296 0.929 . S
C282 C276 1.448 . S
C282 C281 1.328 . S
C282 H297 0.930 . S
Tb283 N274 2.617 . S
Tb283 N284 2.572 . S
Tb283 O318 2.349 1_655 S
Tb283 O321 2.393 . S
Tb283 O322 2.465 . S
Tb283 O323 2.387 . S
Tb283 O325 2.428 . S
Tb283 O326 2.308 1_655 S
Tb283 C347 2.802 . S
N284 C280 1.361 . S
N284 Tb283 2.572 . S
N284 C286 1.340 . S
C285 C279 1.416 . S
C285 C287 1.332 . S
C285 H293 0.931 . S
C286 N284 1.340 . S
C286 C287 1.407 . S
C286 H292 0.930 . S
C287 C285 1.332 . S
C287 C286 1.407 . S
C287 H289 0.929 . S
H288 C277 0.930 . S
H289 C287 0.929 . S
H290 C305 0.930 . S
H291 C312 0.927 1_545 S
H292 C286 0.930 . S
H293 C285 0.931 . S
H294 C308 0.930 . S
H295 C275 0.930 . S
H296 C281 0.929 . S
H297 C282 0.930 . S
H298 C303 0.930 . S
H299 C278 0.930 . S
H300 C311 0.931 . S
N301 Tb272 2.617 . S
N301 C302 1.379 . S
N301 C305 1.334 . S
C302 N301 1.379 . S
C302 C304 1.416 . S
C302 C310 1.424 . S
C303 H298 0.930 . S
C303 C305 1.390 . S
C303 C306 1.339 . S
C304 C302 1.416 . S
C304 C306 1.416 . S
C304 C337 1.448 . S
C305 H290 0.930 . S
C305 N301 1.334 . S
C305 C303 1.390 . S
C306 C303 1.339 . S
C306 C304 1.416 . S
C306 H313 0.930 . S
N307 Tb272 2.572 . S
N307 C308 1.340 . S
N307 C310 1.361 . S
C308 H294 0.930 . S
C308 N307 1.340 . S
C308 C312 1.410 . S
C309 C310 1.413 . S
C309 C311 1.416 1_565 S
C309 C338 1.427 . S
C310 C302 1.424 . S
C310 N307 1.361 . S
C310 C309 1.413 . S
C311 H300 0.931 . S
C311 C309 1.416 1_545 S
C311 C312 1.332 1_545 S
C312 H291 0.927 1_565 S
C312 C308 1.410 . S
C312 C311 1.332 1_565 S
H313 C306 0.930 . S
H314 C337 0.930 . S
H315 C338 0.929 . S
O316 Tb272 2.465 . S
O316 C336 1.264 . S
O317 Tb272 2.387 . S
O317 C328 1.264 . S
O318 Tb283 2.349 1_455 S
O318 C328 1.243 . S
O319 Tb272 2.428 . S
O319 C336 1.256 . S
O320 Tb272 2.308 . S
O320 C335 1.266 1_455 S
O321 Tb283 2.393 . S
O321 C335 1.248 . S
O322 Tb283 2.465 . S
O322 C347 1.264 . S
O323 Tb283 2.387 . S
O323 C339 1.264 . S
O324 Tb272 2.349 . S
O324 C339 1.243 1_455 S
O325 Tb283 2.428 . S
O325 C347 1.256 . S
O326 Tb283 2.308 1_455 S
O326 C346 1.266 . S
O327 Tb272 2.393 . S
O327 C346 1.248 . S
C328 O317 1.264 . S
C328 O318 1.243 . S
C329 C332 1.399 . S
C329 C334 1.383 . S
C329 C336 1.496 . S
C330 C331 1.399 . S
C330 C334 1.389 . S
C331 C330 1.399 . S
C331 C333 1.380 . S
C331 H348 0.929 . S
C332 C329 1.399 . S
C332 C333 1.392 . S
C332 H349 0.929 . S
C333 C331 1.380 . S
C333 C332 1.392 . S
C333 H350 0.929 . S
C334 C329 1.383 . S
C334 C330 1.389 . S
C334 H351 0.931 . S
C335 O320 1.266 1_655 S
C335 O321 1.248 . S
C336 Tb272 2.802 . S
C336 O316 1.264 . S
C336 O319 1.256 . S
C336 C329 1.496 . S
C337 C304 1.448 . S
C337 H314 0.930 . S
C337 C338 1.328 . S
C338 C309 1.427 . S
C338 H315 0.929 . S
C338 C337 1.328 . S
C339 O323 1.264 . S
C339 O324 1.243 1_655 S
C340 C343 1.399 . S
C340 C344 1.383 . S
C340 C347 1.496 . S
C341 C342 1.399 . S
C341 C344 1.389 . S
C342 C341 1.399 . S
C342 C345 1.380 . S
C342 H352 0.929 . S
C343 C340 1.399 . S
C343 C345 1.392 . S
C343 H353 0.929 . S
C344 C340 1.383 . S
C344 C341 1.389 . S
C344 H354 0.931 . S
C345 C342 1.380 . S
C345 C343 1.392 . S
C345 H355 0.929 . S
C346 O326 1.266 . S
C346 O327 1.248 . S
C347 Tb283 2.802 . S
C347 O322 1.264 . S
C347 O325 1.256 . S
C347 C340 1.496 . S
H348 C331 0.929 . S
H349 C332 0.929 . S
H350 C333 0.929 . S
H351 C334 0.931 . S
H352 C342 0.929 . S
H353 C343 0.929 . S
H354 C344 0.931 . S
H355 C345 0.929 . S
Tb356 N385 2.617 . S
Tb356 N391 2.572 . S
Tb356 O400 2.465 . S
Tb356 O401 2.387 . S
Tb356 O403 2.428 . S
Tb356 O404 2.308 . S
Tb356 O408 2.349 . S
Tb356 O411 2.393 . S
Tb356 C420 2.802 . S
C357 N358 1.379 . S
C357 C360 1.416 . S
C357 C364 1.424 . S
N358 C357 1.379 . S
N358 C361 1.334 . S
N358 Tb367 2.617 . S
C359 C361 1.390 . S
C359 C362 1.339 . S
C359 H379 0.930 . S
C360 C357 1.416 . S
C360 C362 1.416 . S
C360 C366 1.448 . S
C361 N358 1.334 . S
C361 C359 1.390 . S
C361 H372 0.930 . S
C362 C359 1.339 . S
C362 C360 1.416 . S
C362 H383 0.930 . S
C363 C364 1.413 . S
C363 C365 1.427 . S
C363 C369 1.416 . S
C364 C357 1.424 . S
C364 C363 1.413 . S
C364 N368 1.361 . S
C365 C363 1.427 . S
C365 C366 1.328 . S
C365 H380 0.929 . S
C366 C360 1.448 . S
C366 C365 1.328 . S
C366 H381 0.930 . S
Tb367 N358 2.617 . S
Tb367 N368 2.572 . S
Tb367 O402 2.349 . S
Tb367 O405 2.393 . S
Tb367 O406 2.465 . S
Tb367 O407 2.387 . S
Tb367 O409 2.428 . S
Tb367 O410 2.308 . S
Tb367 C431 2.802 . S
N368 C364 1.361 . S
N368 Tb367 2.572 . S
N368 C370 1.340 . S
C369 C363 1.416 . S
C369 C371 1.332 . S
C369 H377 0.931 . S
C370 N368 1.340 . S
C370 C371 1.407 . S
C370 H376 0.930 . S
C371 C369 1.332 . S
C371 C370 1.407 . S
C371 H373 0.929 . S
H372 C361 0.930 . S
H373 C371 0.929 . S
H374 C389 0.930 . S
H375 C396 0.929 . S
H376 C370 0.930 . S
H377 C369 0.931 . S
H378 C392 0.930 . S
H379 C359 0.930 . S
H380 C365 0.929 . S
H381 C366 0.930 . S
H382 C387 0.930 . S
H383 C362 0.930 . S
H384 C395 0.931 . S
N385 Tb356 2.617 . S
N385 C386 1.379 . S
N385 C389 1.334 . S
C386 N385 1.379 . S
C386 C388 1.416 . S
C386 C394 1.424 . S
C387 H382 0.930 . S
C387 C389 1.390 . S
C387 C390 1.339 . S
C388 C386 1.416 . S
C388 C390 1.416 . S
C388 C421 1.448 . S
C389 H374 0.930 . S
C389 N385 1.334 . S
C389 C387 1.390 . S
C390 C387 1.339 . S
C390 C388 1.416 . S
C390 H397 0.930 . S
N391 Tb356 2.572 . S
N391 C392 1.340 . S
N391 C394 1.361 . S
C392 H378 0.930 . S
C392 N391 1.340 . S
C392 C396 1.407 . S
C393 C394 1.413 . S
C393 C395 1.416 . S
C393 C422 1.427 . S
C394 C386 1.424 . S
C394 N391 1.361 . S
C394 C393 1.413 . S
C395 H384 0.931 . S
C395 C393 1.416 . S
C395 C396 1.332 . S
C396 H375 0.929 . S
C396 C392 1.407 . S
C396 C395 1.332 . S
H397 C390 0.930 . S
H398 C421 0.930 . S
H399 C422 0.929 . S
O400 Tb356 2.465 . S
O400 C420 1.264 . S
O401 Tb356 2.387 . S
O401 C412 1.264 . S
O402 Tb367 2.349 . S
O402 C412 1.243 . S
O403 Tb356 2.428 . S
O403 C420 1.256 . S
O404 Tb356 2.308 . S
O404 C419 1.266 . S
O405 Tb367 2.393 . S
O405 C419 1.248 . S
O406 Tb367 2.465 . S
O406 C431 1.264 . S
O407 Tb367 2.387 . S
O407 C423 1.264 . S
O408 Tb356 2.349 . S
O408 C423 1.243 . S
O409 Tb367 2.428 . S
O409 C431 1.256 . S
O410 Tb367 2.308 . S
O410 C430 1.266 . S
O411 Tb356 2.393 . S
O411 C430 1.248 . S
C412 O401 1.264 . S
C412 O402 1.243 . S
C413 C416 1.399 . S
C413 C418 1.383 . S
C413 C420 1.496 . S
C414 C415 1.399 . S
C414 C418 1.389 . S
C415 C414 1.399 . S
C415 C417 1.380 . S
C415 H432 0.929 . S
C416 C413 1.399 . S
C416 C417 1.392 . S
C416 H433 0.929 . S
C417 C415 1.380 . S
C417 C416 1.392 . S
C417 H434 0.929 . S
C418 C413 1.383 . S
C418 C414 1.389 . S
C418 H435 0.931 . S
C419 O404 1.266 . S
C419 O405 1.248 . S
C420 Tb356 2.802 . S
C420 O400 1.264 . S
C420 O403 1.256 . S
C420 C413 1.496 . S
C421 C388 1.448 . S
C421 H398 0.930 . S
C421 C422 1.328 . S
C422 C393 1.427 . S
C422 H399 0.929 . S
C422 C421 1.328 . S
C423 O407 1.264 . S
C423 O408 1.243 . S
C424 C427 1.399 . S
C424 C428 1.383 . S
C424 C431 1.496 . S
C425 C426 1.399 . S
C425 C428 1.389 . S
C426 C425 1.399 . S
C426 C429 1.380 . S
C426 H436 0.929 . S
C427 C424 1.399 . S
C427 C429 1.392 . S
C427 H437 0.929 . S
C428 C424 1.383 . S
C428 C425 1.389 . S
C428 H438 0.931 . S
C429 C426 1.380 . S
C429 C427 1.392 . S
C429 H439 0.929 . S
C430 O410 1.266 . S
C430 O411 1.248 . S
C431 Tb367 2.802 . S
C431 O406 1.264 . S
C431 O409 1.256 . S
C431 C424 1.496 . S
H432 C415 0.929 . S
H433 C416 0.929 . S
H434 C417 0.929 . S
H435 C418 0.931 . S
H436 C426 0.929 . S
H437 C427 0.929 . S
H438 C428 0.931 . S
H439 C429 0.929 . S
H440 C446 0.930 . S
H441 C450 0.930 . S
H442 C455 0.929 . S
H443 C453 0.929 . S
H444 C448 0.929 . S
H445 C454 0.929 . S
C446 H440 0.930 . S
C446 C447 1.367 . S
C446 C454 1.378 . S
C447 C446 1.367 . S
C447 C455 1.433 . S
C448 H444 0.929 . S
C448 C450 1.378 . S
C448 C452 1.350 1_545 S
C449 C452 1.463 . S
C449 C454 1.350 . S
C449 N457 1.427 . S
C450 H441 0.930 . S
C450 C448 1.378 . S
C450 C451 1.367 . S
C451 C450 1.367 . S
C451 C453 1.433 . S
C452 C448 1.350 1_565 S
C452 C449 1.463 . S
C452 N456 1.427 . S
C453 H443 0.929 . S
C453 C451 1.433 . S
C453 N456 1.384 1_545 S
C454 H445 0.929 . S
C454 C446 1.378 . S
C454 C449 1.350 . S
C455 H442 0.929 . S
C455 C447 1.433 . S
C455 N457 1.384 . S
N456 C452 1.427 . S
N456 C453 1.384 1_565 S
N457 C449 1.427 . S
N457 C455 1.384 . S
H458 C464 0.930 . S
H459 C468 0.930 . S
H460 C473 0.929 . S
H461 C471 0.929 . S
H462 C466 0.929 . S
H463 C472 0.929 . S
C464 H458 0.930 . S
C464 C465 1.367 . S
C464 C472 1.378 . S
C465 C464 1.367 . S
C465 C473 1.433 . S
C466 H462 0.929 . S
C466 C468 1.378 . S
C466 C470 1.350 . S
C467 C470 1.463 . S
C467 C472 1.350 . S
C467 N475 1.427 . S
C468 H459 0.930 . S
C468 C466 1.378 . S
C468 C469 1.367 . S
C469 C468 1.367 . S
C469 C471 1.433 . S
C470 C466 1.350 . S
C470 C467 1.463 . S
C470 N474 1.427 . S
C471 H461 0.929 . S
C471 C469 1.433 . S
C471 N474 1.384 . S
C472 H463 0.929 . S
C472 C464 1.378 . S
C472 C467 1.350 . S
C473 H460 0.929 . S
C473 C465 1.433 . S
C473 N475 1.384 . S
N474 C470 1.427 . S
N474 C471 1.384 . S
N475 C467 1.427 . S
N475 C473 1.384 . S
H476 C482 0.930 . S
H477 C486 0.930 . S
H478 C491 0.929 . S
H479 C489 0.929 . S
H480 C484 0.929 . S
H481 C490 0.929 . S
C482 H476 0.930 . S
C482 C483 1.367 . S
C482 C490 1.378 . S
C483 C482 1.367 . S
C483 C491 1.433 . S
C484 H480 0.929 . S
C484 C486 1.378 . S
C484 C488 1.350 . S
C485 C488 1.463 . S
C485 C490 1.350 . S
C485 N493 1.427 . S
C486 H477 0.930 . S
C486 C484 1.378 . S
C486 C487 1.367 . S
C487 C486 1.367 . S
C487 C489 1.433 . S
C488 C484 1.350 . S
C488 C485 1.463 . S
C488 N492 1.427 . S
C489 H479 0.929 . S
C489 C487 1.433 . S
C489 N492 1.384 . S
C490 H481 0.929 . S
C490 C482 1.378 . S
C490 C485 1.350 . S
C491 H478 0.929 . S
C491 C483 1.433 . S
C491 N493 1.384 . S
N492 C488 1.427 . S
N492 C489 1.384 . S
N493 C485 1.427 . S
N493 C491 1.384 . S
H494 C500 0.930 . S
H495 C504 0.930 1_565 S
H496 C509 0.929 . S
H497 C507 0.929 . S
H498 C502 0.929 . S
H499 C508 0.929 . S
C500 H494 0.930 . S
C500 C501 1.367 . S
C500 C508 1.378 . S
C501 C500 1.367 . S
C501 C509 1.433 . S
C502 H498 0.929 . S
C502 C504 1.378 1_565 S
C502 C506 1.350 . S
C503 C506 1.463 . S
C503 C508 1.350 . S
C503 N511 1.427 . S
C504 H495 0.930 1_545 S
C504 C502 1.378 1_545 S
C504 C505 1.367 . S
C505 C504 1.367 . S
C505 C507 1.433 . S
C506 C502 1.350 . S
C506 C503 1.463 . S
C506 N510 1.427 1_565 S
C507 H497 0.929 . S
C507 C505 1.433 . S
C507 N510 1.384 . S
C508 H499 0.929 . S
C508 C500 1.378 . S
C508 C503 1.350 . S
C509 H496 0.929 . S
C509 C501 1.433 . S
C509 N511 1.384 . S
N510 C506 1.427 1_545 S
N510 C507 1.384 . S
N511 C503 1.427 . S
N511 C509 1.384 . S
H512 C518 0.930 . S
H513 C522 0.930 . S
H514 C527 0.929 . S
H515 C525 0.929 . S
H516 C520 0.929 . S
H517 C526 0.929 . S
C518 H512 0.930 . S
C518 C519 1.367 . S
C518 C526 1.378 . S
C519 C518 1.367 . S
C519 C527 1.433 . S
C520 H516 0.929 . S
C520 C522 1.378 1_545 S
C520 C524 1.350 . S
C521 C524 1.463 . S
C521 C526 1.350 . S
C521 N529 1.427 . S
C522 H513 0.930 . S
C522 C520 1.378 1_565 S
C522 C523 1.367 . S
C523 C522 1.367 . S
C523 C525 1.433 . S
C524 C520 1.350 . S
C524 C521 1.463 . S
C524 N528 1.427 1_545 S
C525 H515 0.929 . S
C525 C523 1.433 . S
C525 N528 1.384 . S
C526 H517 0.929 . S
C526 C518 1.378 . S
C526 C521 1.350 . S
C527 H514 0.929 . S
C527 C519 1.433 . S
C527 N529 1.384 . S
N528 C524 1.427 1_565 S
N528 C525 1.384 . S
N529 C521 1.427 . S
N529 C527 1.384 . S
H530 C536 0.930 . S
H531 C540 0.930 . S
H532 C545 0.929 . S
H533 C543 0.929 . S
H534 C538 0.929 . S
H535 C544 0.929 . S
C536 H530 0.930 . S
C536 C537 1.367 . S
C536 C544 1.378 . S
C537 C536 1.367 . S
C537 C545 1.433 . S
C538 H534 0.929 . S
C538 C540 1.378 . S
C538 C542 1.350 . S
C539 C542 1.463 . S
C539 C544 1.350 . S
C539 N547 1.427 . S
C540 H531 0.930 . S
C540 C538 1.378 . S
C540 C541 1.367 . S
C541 C540 1.367 . S
C541 C543 1.433 . S
C542 C538 1.350 . S
C542 C539 1.463 . S
C542 N546 1.427 . S
C543 H533 0.929 . S
C543 C541 1.433 . S
C543 N546 1.384 . S
C544 H535 0.929 . S
C544 C536 1.378 . S
C544 C539 1.350 . S
C545 H532 0.929 . S
C545 C537 1.433 . S
C545 N547 1.384 . S
N546 C542 1.427 . S
N546 C543 1.384 . S
N547 C539 1.427 . S
N547 C545 1.384 . S
H548 C554 0.930 . S
H549 C558 0.930 . S
H550 C563 0.929 . S
H551 C561 0.929 . S
H552 C556 0.929 . S
H553 C562 0.929 . S
C554 H548 0.930 . S
C554 C555 1.367 . S
C554 C562 1.378 . S
C555 C554 1.367 . S
C555 C563 1.433 . S
C556 H552 0.929 . S
C556 C558 1.378 . S
C556 C560 1.350 . S
C557 C560 1.463 . S
C557 C562 1.350 . S
C557 N565 1.427 . S
C558 H549 0.930 . S
C558 C556 1.378 . S
C558 C559 1.367 . S
C559 C558 1.367 . S
C559 C561 1.433 . S
C560 C556 1.350 . S
C560 C557 1.463 . S
C560 N564 1.427 . S
C561 H551 0.929 . S
C561 C559 1.433 . S
C561 N564 1.384 . S
C562 H553 0.929 . S
C562 C554 1.378 . S
C562 C557 1.350 . S
C563 H550 0.929 . S
C563 C555 1.433 . S
C563 N565 1.384 . S
N564 C560 1.427 . S
N564 C561 1.384 . S
N565 C557 1.427 . S
N565 C563 1.384 . S
H566 C572 0.930 . S
H567 C576 0.930 . S
H568 C581 0.929 . S
H569 C579 0.929 . S
H570 C574 0.929 . S
H571 C580 0.929 . S
C572 H566 0.930 . S
C572 C573 1.367 . S
C572 C580 1.378 . S
C573 C572 1.367 . S
C573 C581 1.433 . S
C574 H570 0.929 . S
C574 C576 1.378 . S
C574 C578 1.350 1_565 S
C575 C578 1.463 . S
C575 C580 1.350 . S
C575 N583 1.427 . S
C576 H567 0.930 . S
C576 C574 1.378 . S
C576 C577 1.367 . S
C577 C576 1.367 . S
C577 C579 1.433 . S
C578 C574 1.350 1_545 S
C578 C575 1.463 . S
C578 N582 1.427 . S
C579 H569 0.929 . S
C579 C577 1.433 . S
C579 N582 1.384 1_565 S
C580 H571 0.929 . S
C580 C572 1.378 . S
C580 C575 1.350 . S
C581 H568 0.929 . S
C581 C573 1.433 . S
C581 N583 1.384 . S
N582 C578 1.427 . S
N582 C579 1.384 1_545 S
N583 C575 1.427 . S
N583 C581 1.384 . S
H584 C590 0.930 . S
H585 C594 0.930 . S
H586 C599 0.929 . S
H587 C597 0.929 . S
H588 C592 0.929 . S
H589 C598 0.928 1_554 S
C590 H584 0.930 . S
C590 C591 1.367 . S
C590 C598 1.378 . S
C591 C590 1.367 . S
C591 C599 1.433 . S
C592 H588 0.929 . S
C592 C594 1.378 . S
C592 C596 1.350 . S
C593 C596 1.463 . S
C593 C598 1.350 1_554 S
C593 N601 1.427 1_554 S
C594 H585 0.930 . S
C594 C592 1.378 . S
C594 C595 1.367 . S
C595 C594 1.367 . S
C595 C597 1.433 . S
C596 C592 1.350 . S
C596 C593 1.463 . S
C596 N600 1.427 . S
C597 H587 0.929 . S
C597 C595 1.433 . S
C597 N600 1.384 . S
C598 H589 0.928 1_556 S
C598 C590 1.378 . S
C598 C593 1.350 1_556 S
C599 H586 0.929 . S
C599 C591 1.433 . S
C599 N601 1.384 . S
N600 C596 1.427 . S
N600 C597 1.384 . S
N601 C593 1.427 1_556 S
N601 C599 1.384 . S
H602 C608 0.930 . S
H603 C612 0.930 . S
H604 C617 0.929 . S
H605 C615 0.929 . S
H606 C610 0.929 . S
H607 C616 0.929 . S
C608 H602 0.930 . S
C608 C609 1.367 . S
C608 C616 1.378 . S
C609 C608 1.367 . S
C609 C617 1.433 . S
C610 H606 0.929 . S
C610 C612 1.378 . S
C610 C614 1.350 . S
C611 C614 1.463 . S
C611 C616 1.350 . S
C611 N619 1.427 . S
C612 H603 0.930 . S
C612 C610 1.378 . S
C612 C613 1.367 . S
C613 C612 1.367 . S
C613 C615 1.433 . S
C614 C610 1.350 . S
C614 C611 1.463 . S
C614 N618 1.427 . S
C615 H605 0.929 . S
C615 C613 1.433 . S
C615 N618 1.384 . S
C616 H607 0.929 . S
C616 C608 1.378 . S
C616 C611 1.350 . S
C617 H604 0.929 . S
C617 C609 1.433 . S
C617 N619 1.384 . S
N618 C614 1.427 . S
N618 C615 1.384 . S
N619 C611 1.427 . S
N619 C617 1.384 . S
H620 C626 0.930 . S
H621 C630 0.930 . S
H622 C635 0.929 . S
H623 C633 0.929 . S
H624 C628 0.929 . S
H625 C634 0.929 1_556 S
C626 H620 0.930 . S
C626 C627 1.367 . S
C626 C634 1.378 . S
C627 C626 1.367 . S
C627 C635 1.433 . S
C628 H624 0.929 . S
C628 C630 1.378 . S
C628 C632 1.350 . S
C629 C632 1.465 1_554 S
C629 C634 1.350 . S
C629 N637 1.425 . S
C630 H621 0.930 . S
C630 C628 1.378 . S
C630 C631 1.367 . S
C631 C630 1.367 . S
C631 C633 1.433 . S
C632 C628 1.350 . S
C632 C629 1.465 1_556 S
C632 N636 1.427 . S
C633 H623 0.929 . S
C633 C631 1.433 . S
C633 N636 1.384 . S
C634 H625 0.929 1_554 S
C634 C626 1.378 . S
C634 C629 1.350 . S
C635 H622 0.929 . S
C635 C627 1.433 . S
C635 N637 1.384 . S
N636 C632 1.427 . S
N636 C633 1.384 . S
N637 C629 1.425 . S
N637 C635 1.384 . S
H638 C644 0.930 . S
H639 C648 0.930 . S
H640 C653 0.929 . S
H641 C651 0.929 . S
H642 C646 0.929 . S
H643 C652 0.929 . S
C644 H638 0.930 . S
C644 C645 1.367 . S
C644 C652 1.378 . S
C645 C644 1.367 . S
C645 C653 1.433 . S
C646 H642 0.929 . S
C646 C648 1.378 . S
C646 C650 1.350 . S
C647 C650 1.463 . S
C647 C652 1.350 . S
C647 N655 1.427 . S
C648 H639 0.930 . S
C648 C646 1.378 . S
C648 C649 1.367 . S
C649 C648 1.367 . S
C649 C651 1.433 . S
C650 C646 1.350 . S
C650 C647 1.463 . S
C650 N654 1.427 . S
C651 H641 0.929 . S
C651 C649 1.433 . S
C651 N654 1.384 . S
C652 H643 0.929 . S
C652 C644 1.378 . S
C652 C647 1.350 . S
C653 H640 0.929 . S
C653 C645 1.433 . S
C653 N655 1.384 . S
N654 C650 1.427 . S
N654 C651 1.384 . S
N655 C647 1.427 . S
N655 C653 1.384 . S
H656 C662 0.930 . S
H657 C666 0.930 . S
H658 C671 0.929 . S
H659 C669 0.929 . S
H660 C664 0.929 . S
H661 C670 0.929 . S
C662 H656 0.930 . S
C662 C663 1.367 . S
C662 C670 1.378 . S
C663 C662 1.367 . S
C663 C671 1.433 . S
C664 H660 0.929 . S
C664 C666 1.378 . S
C664 C668 1.350 . S
C665 C668 1.463 . S
C665 C670 1.350 1_556 S
C665 N673 1.427 . S
C666 H657 0.930 . S
C666 C664 1.378 . S
C666 C667 1.367 . S
C667 C666 1.367 . S
C667 C669 1.433 . S
C668 C664 1.350 . S
C668 C665 1.463 . S
C668 N672 1.427 . S
C669 H659 0.929 . S
C669 C667 1.433 . S
C669 N672 1.384 . S
C670 H661 0.929 . S
C670 C662 1.378 . S
C670 C665 1.350 1_554 S
C671 H658 0.929 . S
C671 C663 1.433 . S
C671 N673 1.384 1_554 S
N672 C668 1.427 . S
N672 C669 1.384 . S
N673 C665 1.427 . S
N673 C671 1.384 1_556 S
H674 C680 0.930 . S
H675 C684 0.930 . S
H676 C689 0.929 . S
H677 C687 0.929 . S
H678 C682 0.929 . S
H679 C688 0.929 . S
C680 H674 0.930 . S
C680 C681 1.367 . S
C680 C688 1.378 . S
C681 C680 1.367 . S
C681 C689 1.433 . S
C682 H678 0.929 . S
C682 C684 1.378 . S
C682 C686 1.350 . S
C683 C686 1.463 . S
C683 C688 1.350 . S
C683 N691 1.427 . S
C684 H675 0.930 . S
C684 C682 1.378 . S
C684 C685 1.367 . S
C685 C684 1.367 . S
C685 C687 1.433 . S
C686 C682 1.350 . S
C686 C683 1.463 . S
C686 N690 1.427 . S
C687 H677 0.929 . S
C687 C685 1.433 . S
C687 N690 1.384 . S
C688 H679 0.929 . S
C688 C680 1.378 . S
C688 C683 1.350 . S
C689 H676 0.929 . S
C689 C681 1.433 . S
C689 N691 1.384 . S
N690 C686 1.427 . S
N690 C687 1.384 . S
N691 C683 1.427 . S
N691 C689 1.384 . S
H692 C698 0.930 . S
H693 C702 0.930 . S
H694 C707 0.929 . S
H695 C705 0.929 . S
H696 C700 0.929 . S
H697 C706 0.929 . S
C698 H692 0.930 . S
C698 C699 1.367 . S
C698 C706 1.378 1_556 S
C699 C698 1.367 . S
C699 C707 1.433 . S
C700 H696 0.929 . S
C700 C702 1.378 . S
C700 C704 1.350 . S
C701 C704 1.463 . S
C701 C706 1.350 . S
C701 N709 1.427 1_554 S
C702 H693 0.930 . S
C702 C700 1.378 . S
C702 C703 1.367 . S
C703 C702 1.367 . S
C703 C705 1.433 . S
C704 C700 1.350 . S
C704 C701 1.463 . S
C704 N708 1.427 . S
C705 H695 0.929 . S
C705 C703 1.433 . S
C705 N708 1.384 . S
C706 H697 0.929 . S
C706 C698 1.378 1_554 S
C706 C701 1.350 . S
C707 H694 0.929 . S
C707 C699 1.433 . S
C707 N709 1.384 . S
N708 C704 1.427 . S
N708 C705 1.384 . S
N709 C701 1.427 1_556 S
N709 C707 1.384 . S
H710 C716 0.930 . S
H711 C720 0.930 . S
H712 C725 0.929 . S
H713 C723 0.929 . S
H714 C718 0.929 . S
H715 C724 0.929 . S
C716 H710 0.930 . S
C716 C717 1.367 . S
C716 C724 1.378 . S
C717 C716 1.367 . S
C717 C725 1.433 . S
C718 H714 0.929 . S
C718 C720 1.378 . S
C718 C722 1.350 . S
C719 C722 1.463 . S
C719 C724 1.350 . S
C719 N727 1.427 . S
C720 H711 0.930 . S
C720 C718 1.378 . S
C720 C721 1.367 . S
C721 C720 1.367 . S
C721 C723 1.433 . S
C722 C718 1.350 . S
C722 C719 1.463 . S
C722 N726 1.427 . S
C723 H713 0.929 . S
C723 C721 1.433 . S
C723 N726 1.384 . S
C724 H715 0.929 . S
C724 C716 1.378 . S
C724 C719 1.350 . S
C725 H712 0.929 . S
C725 C717 1.433 . S
C725 N727 1.384 . S
N726 C722 1.427 . S
N726 C723 1.384 . S
N727 C719 1.427 . S
N727 C725 1.384 . S
H728 C734 0.930 . S
H729 C738 0.930 . S
H730 C743 0.929 . S
H731 C741 0.929 . S
H732 C736 0.929 . S
H733 C742 0.929 . S
C734 H728 0.930 . S
C734 C735 1.367 . S
C734 C742 1.378 . S
C735 C734 1.367 . S
C735 C743 1.433 . S
C736 H732 0.929 . S
C736 C738 1.378 . S
C736 C740 1.350 . S
C737 C740 1.463 . S
C737 C742 1.350 . S
C737 N745 1.427 . S
C738 H729 0.930 . S
C738 C736 1.378 . S
C738 C739 1.367 . S
C739 C738 1.367 . S
C739 C741 1.433 . S
C740 C736 1.350 . S
C740 C737 1.463 . S
C740 N744 1.427 . S
C741 H731 0.929 . S
C741 C739 1.433 . S
C741 N744 1.384 . S
C742 H733 0.929 . S
C742 C734 1.378 . S
C742 C737 1.350 . S
C743 H730 0.929 . S
C743 C735 1.433 . S
C743 N745 1.384 . S
N744 C740 1.427 . S
N744 C741 1.384 . S
N745 C737 1.427 . S
N745 C743 1.384 . S
H746 C752 0.930 . S
H747 C756 0.930 . S
H748 C761 0.929 . S
H749 C759 0.929 . S
H750 C754 0.929 . S
H751 C760 0.929 . S
C752 H746 0.930 . S
C752 C753 1.367 . S
C752 C760 1.378 . S
C753 C752 1.367 . S
C753 C761 1.433 . S
C754 H750 0.929 . S
C754 C756 1.378 . S
C754 C758 1.350 . S
C755 C758 1.463 . S
C755 C760 1.350 . S
C755 N763 1.427 . S
C756 H747 0.930 . S
C756 C754 1.378 . S
C756 C757 1.367 . S
C757 C756 1.367 . S
C757 C759 1.433 . S
C758 C754 1.350 . S
C758 C755 1.463 . S
C758 N762 1.427 . S
C759 H749 0.929 . S
C759 C757 1.433 . S
C759 N762 1.384 . S
C760 H751 0.929 . S
C760 C752 1.378 . S
C760 C755 1.350 . S
C761 H748 0.929 . S
C761 C753 1.433 . S
C761 N763 1.384 . S
N762 C758 1.427 . S
N762 C759 1.384 . S
N763 C755 1.427 . S
N763 C761 1.384 . S
H764 C770 0.930 . S
H765 C774 0.930 . S
H766 C779 0.929 . S
H767 C777 0.929 . S
H768 C772 0.929 . S
H769 C778 0.929 . S
C770 H764 0.930 . S
C770 C771 1.367 . S
C770 C778 1.378 . S
C771 C770 1.367 . S
C771 C779 1.433 . S
C772 H768 0.929 . S
C772 C774 1.378 . S
C772 C776 1.350 . S
C773 C776 1.463 . S
C773 C778 1.350 . S
C773 N781 1.427 . S
C774 H765 0.930 . S
C774 C772 1.378 . S
C774 C775 1.367 . S
C775 C774 1.367 . S
C775 C777 1.433 . S
C776 C772 1.350 . S
C776 C773 1.463 . S
C776 N780 1.427 . S
C777 H767 0.929 . S
C777 C775 1.433 . S
C777 N780 1.384 . S
C778 H769 0.929 . S
C778 C770 1.378 . S
C778 C773 1.350 . S
C779 H766 0.929 . S
C779 C771 1.433 . S
C779 N781 1.384 . S
N780 C776 1.427 . S
N780 C777 1.384 . S
N781 C773 1.427 . S
N781 C779 1.384 . S
H782 C788 0.930 . S
H783 C792 0.930 . S
H784 C797 0.929 . S
H785 C795 0.929 . S
H786 C790 0.929 . S
H787 C796 0.929 . S
C788 H782 0.930 . S
C788 C789 1.367 . S
C788 C796 1.378 . S
C789 C788 1.367 . S
C789 C797 1.433 . S
C790 H786 0.929 . S
C790 C792 1.378 . S
C790 C794 1.350 . S
C791 C794 1.463 . S
C791 C796 1.350 . S
C791 N799 1.427 . S
C792 H783 0.930 . S
C792 C790 1.378 . S
C792 C793 1.367 . S
C793 C792 1.367 . S
C793 C795 1.433 . S
C794 C790 1.350 . S
C794 C791 1.463 . S
C794 N798 1.427 . S
C795 H785 0.929 . S
C795 C793 1.433 . S
C795 N798 1.384 . S
C796 H787 0.929 . S
C796 C788 1.378 . S
C796 C791 1.350 . S
C797 H784 0.929 . S
C797 C789 1.433 . S
C797 N799 1.384 . S
N798 C794 1.427 . S
N798 C795 1.384 . S
N799 C791 1.427 . S
N799 C797 1.384 . S
H800 C806 0.930 . S
H801 C810 0.930 . S
H802 C815 0.929 . S
H803 C813 0.929 . S
H804 C808 0.929 . S
H805 C814 0.929 . S
C806 H800 0.930 . S
C806 C807 1.367 . S
C806 C814 1.378 . S
C807 C806 1.367 . S
C807 C815 1.433 . S
C808 H804 0.929 . S
C808 C810 1.378 . S
C808 C812 1.350 . S
C809 C812 1.463 . S
C809 C814 1.350 . S
C809 N817 1.427 . S
C810 H801 0.930 . S
C810 C808 1.378 . S
C810 C811 1.367 . S
C811 C810 1.367 . S
C811 C813 1.433 . S
C812 C808 1.350 . S
C812 C809 1.463 . S
C812 N816 1.427 . S
C813 H803 0.929 . S
C813 C811 1.433 . S
C813 N816 1.384 . S
C814 H805 0.929 . S
C814 C806 1.378 . S
C814 C809 1.350 . S
C815 H802 0.929 . S
C815 C807 1.433 . S
C815 N817 1.384 . S
N816 C812 1.427 . S
N816 C813 1.384 . S
N817 C809 1.427 . S
N817 C815 1.384 . S
H818 C824 0.930 . S
H819 C828 0.930 . S
H820 C833 0.929 . S
H821 C831 0.929 . S
H822 C826 0.929 . S
H823 C832 0.929 . S
C824 H818 0.930 . S
C824 C825 1.367 . S
C824 C832 1.378 . S
C825 C824 1.367 . S
C825 C833 1.433 . S
C826 H822 0.929 . S
C826 C828 1.378 . S
C826 C830 1.350 . S
C827 C830 1.463 . S
C827 C832 1.350 . S
C827 N835 1.427 . S
C828 H819 0.930 . S
C828 C826 1.378 . S
C828 C829 1.367 . S
C829 C828 1.367 . S
C829 C831 1.433 . S
C830 C826 1.350 . S
C830 C827 1.463 . S
C830 N834 1.427 . S
C831 H821 0.929 . S
C831 C829 1.433 . S
C831 N834 1.384 . S
C832 H823 0.929 . S
C832 C824 1.378 . S
C832 C827 1.350 . S
C833 H820 0.929 . S
C833 C825 1.433 . S
C833 N835 1.384 . S
N834 C830 1.427 . S
N834 C831 1.384 . S
N835 C827 1.427 . S
N835 C833 1.384 . S
H836 C842 0.930 . S
H837 C846 0.930 . S
H838 C851 0.929 . S
H839 C849 0.929 . S
H840 C844 0.929 . S
H841 C850 0.929 . S
C842 H836 0.930 . S
C842 C843 1.367 . S
C842 C850 1.378 . S
C843 C842 1.367 . S
C843 C851 1.433 . S
C844 H840 0.929 . S
C844 C846 1.378 . S
C844 C848 1.350 . S
C845 C848 1.463 . S
C845 C850 1.350 . S
C845 N853 1.427 . S
C846 H837 0.930 . S
C846 C844 1.378 . S
C846 C847 1.367 . S
C847 C846 1.367 . S
C847 C849 1.433 . S
C848 C844 1.350 . S
C848 C845 1.463 . S
C848 N852 1.427 . S
C849 H839 0.929 . S
C849 C847 1.433 . S
C849 N852 1.384 . S
C850 H841 0.929 . S
C850 C842 1.378 . S
C850 C845 1.350 . S
C851 H838 0.929 . S
C851 C843 1.433 . S
C851 N853 1.384 . S
N852 C848 1.427 . S
N852 C849 1.384 . S
N853 C845 1.427 . S
N853 C851 1.384 . S
H854 C860 0.930 . S
H855 C864 0.930 . S
H856 C869 0.929 . S
H857 C867 0.929 . S
H858 C862 0.929 . S
H859 C868 0.929 . S
C860 H854 0.930 . S
C860 C861 1.367 . S
C860 C868 1.378 . S
C861 C860 1.367 . S
C861 C869 1.433 . S
C862 H858 0.929 . S
C862 C864 1.378 . S
C862 C866 1.350 . S
C863 C866 1.463 . S
C863 C868 1.350 . S
C863 N871 1.427 . S
C864 H855 0.930 . S
C864 C862 1.378 . S
C864 C865 1.367 . S
C865 C864 1.367 . S
C865 C867 1.433 . S
C866 C862 1.350 . S
C866 C863 1.463 . S
C866 N870 1.427 . S
C867 H857 0.929 . S
C867 C865 1.433 . S
C867 N870 1.384 . S
C868 H859 0.929 . S
C868 C860 1.378 . S
C868 C863 1.350 . S
C869 H856 0.929 . S
C869 C861 1.433 . S
C869 N871 1.384 . S
N870 C866 1.427 . S
N870 C867 1.384 . S
N871 C863 1.427 . S
N871 C869 1.384 . S
C447 C86 1.630 . S
C451 C178 1.616 . S
C469 C262 1.678 . S
C465 C100 1.701 . S
C487 C255 1.623 . S
C483 C60 1.625 . S
C501 C74 1.693 . S
C505 C171 1.697 . S
C523 C335 1.676 . S
C519 C35 1.697 . S
C541 C419 1.613 . S
C537 C47 1.634 . S
C555 C9 1.695 . S
C559 C412 1.697 . S
C573 C21 1.628 . S
C577 C328 1.622 . S
C595 C162 1.448 . S
C591 C22 1.590 . S
C613 C246 1.444 . S
C609 C8 1.594 . S
C631 C257 1.403 . S
C627 C48 1.597 . S
C649 C173 1.391 . S
C645 C34 1.598 . S
C667 C341 1.434 . S
C663 C73 1.594 . S
C681 C61 1.590 . S
C685 C425 1.437 . S
C703 C414 1.407 . S
C699 C99 1.603 . S
C717 C87 1.589 . S
C721 C330 1.384 . S
C739 C160 1.604 . S
C735 C4 1.507 . S
C757 C244 1.502 . S
C753 C17 1.479 . S
C771 C30 1.508 . S
C775 C251 1.578 . S
C793 C167 1.475 . S
C789 C43 1.478 . S
C811 C339 1.500 . S
C807 C56 1.460 . S
C825 C69 1.537 . S
C829 C423 1.603 . S
C843 C82 1.458 . S
C847 C430 1.474 . S
C861 C95 1.537 . S
C865 C346 1.575 . S
