# Generated by pormake.
# Topology anh, (6,3)-cn, num edge types: 1
# Building blocks:
#     Node 0, Type 0, BuildingBlock: BETDEL_clean_sbu_0, # of connection points: 6
#     Node 1, Type 0, BuildingBlock: BETDEL_clean_sbu_0, # of connection points: 6
#     Node 2, Type 0, BuildingBlock: BETDEL_clean_sbu_0, # of connection points: 6
#     Node 3, Type 1, BuildingBlock: BETDAH_clean_linker_0, # of connection points: 3
#     Node 4, Type 1, BuildingBlock: BETDAH_clean_linker_0, # of connection points: 3
#     Node 5, Type 1, BuildingBlock: BETDAH_clean_linker_0, # of connection points: 3
#     Node 6, Type 1, BuildingBlock: BETDAH_clean_linker_0, # of connection points: 3
#     Node 7, Type 1, BuildingBlock: BETDAH_clean_linker_0, # of connection points: 3
#     Node 8, Type 1, BuildingBlock: BETDAH_clean_linker_0, # of connection points: 3
#     Edge 9, Type (0, 1), BuildingBlock: UVAHIK_clean_linker_0, # of connection points: 2
#     Edge 10, Type (0, 1), BuildingBlock: UVAHIK_clean_linker_0, # of connection points: 2
#     Edge 11, Type (0, 1), BuildingBlock: UVAHIK_clean_linker_0, # of connection points: 2
#     Edge 12, Type (0, 1), BuildingBlock: UVAHIK_clean_linker_0, # of connection points: 2
#     Edge 13, Type (0, 1), BuildingBlock: UVAHIK_clean_linker_0, # of connection points: 2
#     Edge 14, Type (0, 1), BuildingBlock: UVAHIK_clean_linker_0, # of connection points: 2
#     Edge 15, Type (0, 1), BuildingBlock: UVAHIK_clean_linker_0, # of connection points: 2
#     Edge 16, Type (0, 1), BuildingBlock: UVAHIK_clean_linker_0, # of connection points: 2
#     Edge 17, Type (0, 1), BuildingBlock: UVAHIK_clean_linker_0, # of connection points: 2
#     Edge 18, Type (0, 1), BuildingBlock: UVAHIK_clean_linker_0, # of connection points: 2
#     Edge 19, Type (0, 1), BuildingBlock: UVAHIK_clean_linker_0, # of connection points: 2
#     Edge 20, Type (0, 1), BuildingBlock: UVAHIK_clean_linker_0, # of connection points: 2
#     Edge 21, Type (0, 1), BuildingBlock: UVAHIK_clean_linker_0, # of connection points: 2
#     Edge 22, Type (0, 1), BuildingBlock: UVAHIK_clean_linker_0, # of connection points: 2
#     Edge 23, Type (0, 1), BuildingBlock: UVAHIK_clean_linker_0, # of connection points: 2
#     Edge 24, Type (0, 1), BuildingBlock: UVAHIK_clean_linker_0, # of connection points: 2
#     Edge 25, Type (0, 1), BuildingBlock: UVAHIK_clean_linker_0, # of connection points: 2
#     Edge 26, Type (0, 1), BuildingBlock: UVAHIK_clean_linker_0, # of connection points: 2
# Relax obj value: 0.088
# Max RMSD: 0.133
# Mean RMSD: 0.101
data_MOF--net-anh--node1-BETDEL_clean_sbu_0--node2-BETDAH_clean_linker_0--edge1-UVAHIK_clean_linker_0
_symmetry_space_group_name_H-M    P1
_symmetry_Int_Tables_number       1
_symmetry_cell_setting            triclinic
loop_
_symmetry_equiv_pos_as_xyz
'x, y, z'
_cell_length_a     39.166343
_cell_length_b     39.173486
_cell_length_c     62.057139
_cell_angle_alpha  92.216282
_cell_angle_beta   92.493365
_cell_angle_gamma 120.047
loop_
_atom_site_label
_atom_site_type_symbol
_atom_site_fract_x
_atom_site_fract_y
_atom_site_fract_z
_atom_type_partial_charge
Dy0 Dy 0.05025 0.4807 0.16386 0.0
C1 C 0.95926 0.54972 0.19131 0.0
C2 C 0.09615 0.4548 0.14578 0.0
Dy3 Dy 0.00689 0.52468 0.17455 0.0
O4 O 0.08436 0.44871 0.16519 0.0
O5 O 0.08269 0.47493 0.13612 0.0
O6 O 0.03794 0.45407 0.19594 0.0
O7 O 0.04607 0.51097 0.19306 0.0
C8 C 0.03639 0.48332 0.20547 0.0
C9 C 0.02021 0.52146 0.13275 0.0
O10 O 0.0686 0.57392 0.18346 0.0
O11 O 0.09905 0.54496 0.16513 0.0
O12 O 0.97908 0.56279 0.17438 0.0
O13 O 0.96595 0.5233 0.19928 0.0
O14 O 0.01896 0.55075 0.14237 0.0
O15 O 0.01054 0.49391 0.14525 0.0
O16 O 0.98825 0.42948 0.15794 0.0
O17 O 0.95832 0.46104 0.17427 0.0
C18 C 0.10026 0.57628 0.17509 0.0
C19 C 0.95695 0.42859 0.16598 0.0
Dy20 Dy 0.51465 0.02352 0.50044 0.0
C21 C 0.68019 0.1172 0.51983 0.0
C22 C 0.43752 0.9756 0.48563 0.0
Dy23 Dy 0.60219 0.06612 0.50759 0.0
O24 O 0.44952 0.99715 0.50373 0.0
O25 O 0.4677 0.98031 0.47546 0.0
O26 O 0.50919 0.0431 0.53387 0.0
O27 O 0.55525 0.03201 0.5283 0.0
C28 C 0.54109 0.04489 0.54211 0.0
C29 C 0.57565 0.04457 0.46589 0.0
O30 O 0.59075 0.00618 0.51575 0.0
O31 O 0.52716 0.97287 0.49951 0.0
O32 O 0.66697 0.09086 0.50366 0.0
O33 O 0.65066 0.11482 0.52976 0.0
O34 O 0.60672 0.04525 0.47446 0.0
O35 O 0.5617 0.05807 0.47956 0.0
O36 O 0.5256 0.08423 0.49473 0.0
O37 O 0.58918 0.11604 0.5108 0.0
C38 C 0.5588 0.9728 0.50814 0.0
C39 C 0.55747 0.11681 0.50311 0.0
Dy40 Dy 0.5782 0.56403 0.83519 0.0
C41 C 0.51105 0.40105 0.85067 0.0
C42 C 0.604 0.63753 0.82118 0.0
Dy43 Dy 0.53459 0.47564 0.83892 0.0
O44 O 0.61348 0.63023 0.84004 0.0
O45 O 0.58033 0.60465 0.80993 0.0
O46 O 0.60583 0.57458 0.86894 0.0
O47 O 0.54899 0.52588 0.86113 0.0
C48 C 0.57702 0.54244 0.8756 0.0
C49 C 0.53632 0.49842 0.79867 0.0
O50 O 0.48525 0.48624 0.84668 0.0
O51 O 0.51416 0.54935 0.83448 0.0
O52 O 0.49955 0.40955 0.83275 0.0
O53 O 0.53487 0.43336 0.86233 0.0
O54 O 0.50642 0.46733 0.80542 0.0
O55 O 0.5645 0.51383 0.81308 0.0
O56 O 0.62913 0.55431 0.83031 0.0
O57 O 0.59832 0.49016 0.84107 0.0
C58 C 0.48301 0.51747 0.8411 0.0
C59 C 0.6304 0.52262 0.83593 0.0
H60 H 0.45317 0.95057 0.2392 0.0
H61 H 0.5654 0.04726 0.22425 0.0
H62 H 0.4865 0.9623 0.17359 0.0
C63 C 0.47384 0.96682 0.22733 0.0
C64 C 0.46497 0.95236 0.20555 0.0
C65 C 0.50995 1.00081 0.23422 0.0
C66 C 0.53754 0.02105 0.21897 0.0
C67 C 0.529 0.00735 0.19698 0.0
C68 C 0.4929 0.97287 0.1905 0.0
N69 N 0.55584 0.02708 0.18094 0.0
C70 C 0.59201 0.06228 0.18443 0.0
H71 H 0.5641 0.47679 0.57515 0.0
H72 H 0.54844 0.57485 0.56111 0.0
H73 H 0.54779 0.49836 0.50906 0.0
C74 C 0.56025 0.49457 0.56338 0.0
C75 C 0.55662 0.48352 0.54123 0.0
C76 C 0.55694 0.52713 0.57062 0.0
C77 C 0.55091 0.5497 0.55548 0.0
C78 C 0.54814 0.53973 0.53317 0.0
C79 C 0.55034 0.50626 0.52623 0.0
N80 N 0.54292 0.56234 0.51727 0.0
C81 C 0.54373 0.59804 0.52144 0.0
H82 H 0.98892 0.52881 0.90748 0.0
H83 H 0.08641 0.5112 0.89484 0.0
H84 H 0.01025 0.5095 0.84201 0.0
C85 C 0.00663 0.52409 0.89608 0.0
C86 C 0.99584 0.51989 0.87388 0.0
C87 C 0.03881 0.52036 0.90379 0.0
C88 C 0.06138 0.51372 0.88894 0.0
C89 C 0.05154 0.51039 0.86655 0.0
C90 C 0.01823 0.51263 0.85921 0.0
N91 N 0.07411 0.50452 0.85096 0.0
C92 C 0.11079 0.50742 0.8553 0.0
H93 H 0.06253 0.61678 0.41549 0.0
H94 H 0.98654 0.50925 0.4452 0.0
H95 H 0.06825 0.6142 0.48463 0.0
C96 C 0.05186 0.60088 0.42989 0.0
C97 C 0.06878 0.62044 0.45022 0.0
C98 C 0.02212 0.56085 0.42786 0.0
C99 C 0.00924 0.54018 0.44664 0.0
C100 C 0.02571 0.55981 0.46719 0.0
C101 C 0.05512 0.59971 0.46878 0.0
N102 N 0.01417 0.5406 0.48669 0.0
C103 C 0.98717 0.50075 0.48792 0.0
H104 H 0.58593 0.11535 0.77251 0.0
H105 H 0.63354 0.03799 0.77791 0.0
H106 H 0.61144 0.08666 0.83526 0.0
C107 C 0.59647 0.09995 0.78249 0.0
C108 C 0.59672 0.10386 0.80512 0.0
C109 C 0.60954 0.07613 0.77258 0.0
C110 C 0.62314 0.05611 0.78551 0.0
C111 C 0.62433 0.0605 0.80819 0.0
C112 C 0.61119 0.0843 0.81779 0.0
N113 N 0.63862 0.04157 0.8219 0.0
C114 C 0.64457 0.01107 0.81479 0.0
H115 H 0.6112 0.49713 0.10507 0.0
H116 H 0.4901 0.46904 0.10551 0.0
H117 H 0.55633 0.48142 0.16526 0.0
C118 C 0.58539 0.49014 0.11384 0.0
C119 C 0.58798 0.49009 0.13648 0.0
C120 C 0.55025 0.48285 0.10255 0.0
C121 C 0.51737 0.47507 0.11417 0.0
C122 C 0.5196 0.47445 0.13685 0.0
C123 C 0.55487 0.48205 0.1478 0.0
N124 N 0.48702 0.46623 0.14919 0.0
C125 C 0.45175 0.46198 0.14054 0.0
C126 C 0.1409 0.45824 0.11741 0.0
C127 C 0.12485 0.44497 0.13724 0.0
C128 C 0.17217 0.45362 0.11089 0.0
C129 C 0.22998 0.40408 0.12376 0.0
H130 H 0.31878 0.50182 0.10755 0.0
C131 C 0.38545 0.42342 0.12178 0.0
C132 C 0.41497 0.45846 0.13282 0.0
C133 C 0.3484 0.4189 0.11608 0.0
C134 C 0.2942 0.47423 0.11195 0.0
H135 H 0.12701 0.41454 0.16523 0.0
H136 H 0.18165 0.40684 0.15408 0.0
H137 H 0.25414 0.49613 0.10909 0.0
H138 H 0.43049 0.51666 0.1461 0.0
H139 H 0.36573 0.50885 0.13652 0.0
H140 H 0.27064 0.38316 0.12808 0.0
C141 C 0.17007 0.42041 0.14337 0.0
C142 C 0.25701 0.47077 0.11257 0.0
C143 C 0.13894 0.42508 0.14986 0.0
C144 C 0.40788 0.48946 0.13749 0.0
C145 C 0.37094 0.48502 0.13184 0.0
C146 C 0.2672 0.40759 0.12321 0.0
C147 C 0.18776 0.43555 0.12409 0.0
C148 C 0.22482 0.43616 0.11924 0.0
C149 C 0.34053 0.44942 0.12141 0.0
C150 C 0.30001 0.44322 0.11805 0.0
H151 H 0.13036 0.47354 0.10735 0.0
H152 H 0.1849 0.46519 0.09584 0.0
H153 H 0.20559 0.37682 0.12864 0.0
H154 H 0.3907 0.39926 0.11805 0.0
H155 H 0.32571 0.3913 0.1079 0.0
C156 C 0.72971 0.1842 0.53622 0.0
C157 C 0.72079 0.15114 0.52241 0.0
C158 C 0.76494 0.21988 0.53484 0.0
C159 C 0.83288 0.27239 0.4937 0.0
H160 H 0.89127 0.35142 0.54091 0.0
C161 C 0.95999 0.42937 0.47968 0.0
C162 C 0.95996 0.46028 0.49175 0.0
C163 C 0.93472 0.39018 0.48433 0.0
C164 C 0.87509 0.32969 0.52755 0.0
H165 H 0.74294 0.12814 0.49777 0.0
H166 H 0.80481 0.19024 0.49562 0.0
H167 H 0.84194 0.2844 0.54878 0.0
H168 H 0.93437 0.47562 0.51792 0.0
H169 H 0.88963 0.40718 0.52591 0.0
H170 H 0.8651 0.3178 0.47246 0.0
C171 C 0.78428 0.18894 0.50715 0.0
C172 C 0.84696 0.29131 0.53207 0.0
C173 C 0.74904 0.15332 0.50851 0.0
C174 C 0.93457 0.45192 0.50843 0.0
C175 C 0.90936 0.41285 0.51311 0.0
C176 C 0.86096 0.31073 0.48919 0.0
C177 C 0.79184 0.22302 0.51965 0.0
C178 C 0.82507 0.2624 0.51518 0.0
C179 C 0.90925 0.38151 0.50118 0.0
C180 C 0.88188 0.34 0.50605 0.0
H181 H 0.70835 0.18329 0.54705 0.0
H182 H 0.76975 0.2456 0.54464 0.0
H183 H 0.81603 0.25105 0.48029 0.0
H184 H 0.97975 0.43553 0.46683 0.0
H185 H 0.93553 0.36672 0.47496 0.0
C186 C 0.64244 0.7107 0.82782 0.0
C187 C 0.61606 0.6773 0.81433 0.0
C188 C 0.65135 0.74836 0.82238 0.0
C189 C 0.60684 0.79681 0.79323 0.0
H190 H 0.70997 0.89019 0.80629 0.0
C191 C 0.62784 0.95277 0.79061 0.0
C192 C 0.64896 0.97773 0.80896 0.0
C193 C 0.62876 0.91793 0.78637 0.0
C194 C 0.681 0.86439 0.80255 0.0
H195 H 0.57947 0.65684 0.78419 0.0
H196 H 0.59493 0.72292 0.77467 0.0
H197 H 0.70277 0.82469 0.80761 0.0
H198 H 0.68827 0.98747 0.83699 0.0
H199 H 0.68966 0.92645 0.82989 0.0
H200 H 0.58464 0.83625 0.78913 0.0
C201 C 0.60854 0.71993 0.7895 0.0
C202 C 0.67691 0.82694 0.80328 0.0
C203 C 0.5998 0.6822 0.7949 0.0
C204 C 0.67203 0.96849 0.82265 0.0
C205 C 0.67297 0.93373 0.81847 0.0
C206 C 0.6109 0.83424 0.79257 0.0
C207 C 0.6339 0.75332 0.80338 0.0
C208 C 0.63958 0.79278 0.79923 0.0
C209 C 0.65073 0.90765 0.80051 0.0
C210 C 0.64782 0.86843 0.79783 0.0
H211 H 0.6554 0.70766 0.84289 0.0
H212 H 0.67058 0.77342 0.83355 0.0
H213 H 0.57761 0.77105 0.79026 0.0
H214 H 0.6098 0.95962 0.77991 0.0
H215 H 0.61163 0.89865 0.7723 0.0
C216 C 0.89992 0.53242 0.21166 0.0
C217 C 0.92674 0.55613 0.19697 0.0
C218 C 0.86371 0.53103 0.21286 0.0
C219 C 0.80366 0.57464 0.19306 0.0
H220 H 0.72111 0.46482 0.18272 0.0
C221 C 0.64602 0.48016 0.14134 0.0
C222 C 0.62537 0.49876 0.14831 0.0
C223 C 0.68143 0.4885 0.15237 0.0
C224 C 0.74379 0.4956 0.18574 0.0
H225 H 0.939 0.60008 0.17376 0.0
H226 H 0.87587 0.59757 0.17572 0.0
H227 H 0.78759 0.4808 0.1951 0.0
H228 H 0.62552 0.54082 0.17214 0.0
H229 H 0.68791 0.55571 0.19137 0.0
H230 H 0.75997 0.58922 0.18252 0.0
C231 C 0.88254 0.58007 0.18636 0.0
C232 C 0.78177 0.50481 0.19311 0.0
C233 C 0.91866 0.58138 0.18513 0.0
C234 C 0.64077 0.52585 0.16654 0.0
C235 C 0.67647 0.53454 0.17745 0.0
C236 C 0.7655 0.56538 0.1858 0.0
C237 C 0.85391 0.55341 0.19942 0.0
C238 C 0.81243 0.54442 0.19617 0.0
C239 C 0.69708 0.51588 0.17047 0.0
C240 C 0.73561 0.52577 0.18136 0.0
H241 H 0.90565 0.51288 0.22109 0.0
H242 H 0.84243 0.51068 0.22332 0.0
H243 H 0.82667 0.60541 0.19542 0.0
H244 H 0.63465 0.45899 0.12742 0.0
H245 H 0.69701 0.4741 0.14645 0.0
C246 C 0.36596 0.94332 0.49193 0.0
C247 C 0.39592 0.94671 0.47904 0.0
C248 C 0.32696 0.91297 0.48722 0.0
C249 C 0.25884 0.8356 0.44527 0.0
H250 H 0.20806 0.77807 0.49476 0.0
C251 C 0.13281 0.6737 0.43799 0.0
C252 C 0.10214 0.66182 0.45197 0.0
C253 C 0.16526 0.71201 0.44019 0.0
C254 C 0.22143 0.79417 0.48081 0.0
H255 H 0.4087 0.92244 0.45061 0.0
H256 H 0.3406 0.86896 0.44248 0.0
H257 H 0.27104 0.83952 0.50026 0.0
H258 H 0.08087 0.68117 0.47883 0.0
H259 H 0.13785 0.74823 0.48278 0.0
H260 H 0.2096 0.78944 0.42579 0.0
C261 C 0.34704 0.88995 0.45609 0.0
C262 C 0.25755 0.82944 0.48395 0.0
C263 C 0.38605 0.92041 0.46078 0.0
C264 C 0.1043 0.68933 0.46799 0.0
C265 C 0.13685 0.72769 0.47023 0.0
C266 C 0.22267 0.80026 0.44212 0.0
C267 C 0.31724 0.88537 0.46956 0.0
C268 C 0.277 0.85019 0.4662 0.0
C269 C 0.16785 0.7393 0.45647 0.0
C270 C 0.20396 0.77882 0.45984 0.0
H271 H 0.37281 0.96345 0.50603 0.0
H272 H 0.30456 0.91059 0.49769 0.0
H273 H 0.27282 0.85123 0.4313 0.0
H274 H 0.13238 0.65302 0.42573 0.0
H275 H 0.18899 0.71979 0.42961 0.0
C276 C 0.48378 0.32999 0.83933 0.0
C277 C 0.50594 0.36201 0.85457 0.0
C278 C 0.4863 0.29574 0.84017 0.0
C279 C 0.49198 0.22224 0.84765 0.0
H280 H 0.6028 0.25256 0.85054 0.0
C281 C 0.54809 0.12779 0.80624 0.0
C282 C 0.5817 0.12814 0.81546 0.0
C283 C 0.5348 0.15169 0.81546 0.0
C284 C 0.57165 0.24321 0.85017 0.0
H285 H 0.54512 0.38227 0.88378 0.0
H286 H 0.54952 0.32233 0.88527 0.0
H287 H 0.5843 0.30136 0.86022 0.0
H288 H 0.6271 0.15329 0.842 0.0
H289 H 0.60315 0.19398 0.85849 0.0
H290 H 0.47948 0.16422 0.83701 0.0
C291 C 0.5306 0.32385 0.87254 0.0
C292 C 0.56103 0.27127 0.85575 0.0
C293 C 0.52793 0.35803 0.87175 0.0
C294 C 0.60098 0.15209 0.83453 0.0
C295 C 0.58748 0.17575 0.84386 0.0
C296 C 0.5026 0.194 0.8422 0.0
C297 C 0.51115 0.29309 0.85623 0.0
C298 C 0.52118 0.26138 0.854 0.0
C299 C 0.55459 0.17631 0.83426 0.0
C300 C 0.54267 0.20447 0.84282 0.0
H301 H 0.46651 0.33233 0.82596 0.0
H302 H 0.47113 0.27265 0.82731 0.0
H303 H 0.46101 0.21374 0.84634 0.0
H304 H 0.53208 0.10915 0.79178 0.0
H305 H 0.50969 0.1517 0.80745 0.0
C306 C 0.59016 0.93312 0.51972 0.0
C307 C 0.55746 0.93437 0.51034 0.0
C308 C 0.58874 0.89694 0.52195 0.0
C309 C 0.51832 0.78891 0.52309 0.0
H310 H 0.61015 0.77978 0.51197 0.0
C311 C 0.51143 0.63746 0.51504 0.0
C312 C 0.54433 0.63539 0.52302 0.0
C313 C 0.51291 0.67395 0.51475 0.0
C314 C 0.58437 0.78186 0.51546 0.0
H315 H 0.49756 0.89808 0.4959 0.0
H316 H 0.49522 0.83525 0.49962 0.0
H317 H 0.61307 0.84299 0.50878 0.0
H318 H 0.6044 0.66924 0.53717 0.0
H319 H 0.60706 0.73313 0.53705 0.0
H320 H 0.48957 0.72775 0.52969 0.0
C321 C 0.52187 0.86223 0.50552 0.0
C322 C 0.58604 0.81822 0.51359 0.0
C323 C 0.52332 0.8984 0.50325 0.0
C324 C 0.5786 0.67021 0.53102 0.0
C325 C 0.58016 0.70678 0.53075 0.0
C326 C 0.51666 0.75256 0.52498 0.0
C327 C 0.55455 0.86094 0.51492 0.0
C328 C 0.55298 0.82226 0.51728 0.0
C329 C 0.54745 0.70925 0.5224 0.0
C330 C 0.5496 0.74841 0.52109 0.0
H331 H 0.61695 0.96014 0.52543 0.0
H332 H 0.61433 0.8972 0.5295 0.0
H333 H 0.49247 0.79096 0.52644 0.0
H334 H 0.48481 0.61093 0.50858 0.0
H335 H 0.48732 0.67456 0.50793 0.0
C336 C 0.66994 0.48802 0.83603 0.0
C337 C 0.66884 0.52342 0.83684 0.0
C338 C 0.7061 0.48871 0.83795 0.0
C339 C 0.80673 0.54743 0.86239 0.0
H340 H 0.83298 0.48731 0.82219 0.0
C341 C 0.95836 0.55624 0.87223 0.0
C342 C 0.96066 0.52251 0.86641 0.0
C343 C 0.92399 0.55766 0.86691 0.0
C344 C 0.82605 0.50382 0.83383 0.0
H345 H 0.70508 0.58732 0.8403 0.0
H346 H 0.76812 0.58841 0.84425 0.0
H347 H 0.77051 0.48647 0.81642 0.0
H348 H 0.92893 0.46381 0.85041 0.0
H349 H 0.86822 0.46525 0.84192 0.0
H350 H 0.86083 0.56339 0.88048 0.0
C351 C 0.74094 0.56017 0.84187 0.0
C352 C 0.79023 0.50349 0.83038 0.0
C353 C 0.70483 0.55952 0.83949 0.0
C354 C 0.92805 0.49037 0.85487 0.0
C355 C 0.89326 0.49138 0.84994 0.0
C356 C 0.84212 0.54714 0.8661 0.0
C357 C 0.74198 0.52477 0.8412 0.0
C358 C 0.78023 0.52541 0.84459 0.0
C359 C 0.89044 0.52493 0.85608 0.0
C360 C 0.85256 0.52545 0.85186 0.0
H361 H 0.64281 0.4597 0.83399 0.0
H362 H 0.70594 0.46096 0.83749 0.0
H363 H 0.7996 0.56417 0.87379 0.0
H364 H 0.9832 0.58154 0.88104 0.0
H365 H 0.92384 0.58454 0.87143 0.0
C366 C 0.17181 0.61912 0.16749 0.0
C367 C 0.13812 0.61482 0.17712 0.0
C368 C 0.20712 0.65567 0.169 0.0
C369 C 0.24646 0.7635 0.18075 0.0
H370 H 0.34724 0.76798 0.18969 0.0
C371 C 0.39155 0.90856 0.20751 0.0
C372 C 0.42694 0.91521 0.19902 0.0
C373 C 0.3564 0.87249 0.20301 0.0
C374 C 0.31941 0.76728 0.18689 0.0
H375 H 0.11556 0.64591 0.1961 0.0
H376 H 0.17703 0.70919 0.19901 0.0
H377 H 0.28627 0.70402 0.18587 0.0
H378 H 0.45275 0.88918 0.1787 0.0
H379 H 0.39119 0.82619 0.17064 0.0
H380 H 0.27958 0.82678 0.18206 0.0
C381 C 0.17606 0.68451 0.18994 0.0
C382 C 0.28435 0.73052 0.18471 0.0
C383 C 0.14078 0.64802 0.1884 0.0
C384 C 0.426 0.88515 0.1854 0.0
C385 C 0.39079 0.84888 0.18098 0.0
C386 C 0.28148 0.80022 0.18299 0.0
C387 C 0.20974 0.68896 0.1802 0.0
C388 C 0.24732 0.72809 0.1818 0.0
C389 C 0.35559 0.84192 0.18992 0.0
C390 C 0.31844 0.80267 0.18628 0.0
H391 H 0.17089 0.59432 0.15858 0.0
H392 H 0.2322 0.65796 0.16107 0.0
H393 H 0.21866 0.76291 0.17808 0.0
H394 H 0.39112 0.93118 0.2179 0.0
H395 H 0.33005 0.86818 0.21034 0.0
C396 C 0.58951 0.18861 0.5158 0.0
C397 C 0.55774 0.15504 0.50454 0.0
C398 C 0.58917 0.2241 0.51834 0.0
C399 C 0.54452 0.28055 0.49642 0.0
H400 H 0.57701 0.33564 0.55334 0.0
C401 C 0.52987 0.41853 0.51919 0.0
C402 C 0.55861 0.44771 0.53419 0.0
C403 C 0.52972 0.3831 0.51438 0.0
C404 C 0.56845 0.32114 0.53721 0.0
H405 H 0.50101 0.13308 0.48667 0.0
H406 H 0.50062 0.19529 0.49098 0.0
H407 H 0.57682 0.27392 0.5471 0.0
H408 H 0.61098 0.46343 0.55496 0.0
H409 H 0.61152 0.40263 0.54619 0.0
H410 H 0.53661 0.32813 0.48647 0.0
C411 C 0.52582 0.194 0.49784 0.0
C412 C 0.56821 0.28553 0.53367 0.0
C413 C 0.52598 0.15826 0.49545 0.0
C414 C 0.58805 0.4413 0.54359 0.0
C415 C 0.58816 0.40619 0.53864 0.0
C416 C 0.54506 0.31648 0.49992 0.0
C417 C 0.55721 0.22724 0.50957 0.0
C418 C 0.55648 0.26482 0.51321 0.0
C419 C 0.55853 0.37613 0.52432 0.0
C420 C 0.5573 0.33748 0.52037 0.0
H421 H 0.61455 0.18743 0.52301 0.0
H422 H 0.61411 0.24922 0.52719 0.0
H423 H 0.53557 0.26552 0.48042 0.0
H424 H 0.50659 0.42242 0.51181 0.0
H425 H 0.50621 0.36069 0.50341 0.0
C426 C 0.44205 0.55065 0.83857 0.0
C427 C 0.44519 0.51742 0.84325 0.0
C428 C 0.4065 0.55056 0.84077 0.0
C429 C 0.31105 0.49854 0.867 0.0
H430 H 0.27685 0.54768 0.82482 0.0
C431 C 0.1531 0.47801 0.86211 0.0
C432 C 0.14932 0.5105 0.85685 0.0
C433 C 0.1898 0.47989 0.86158 0.0
C434 C 0.28613 0.53426 0.83693 0.0
H435 H 0.41292 0.45788 0.85385 0.0
H436 H 0.35109 0.45756 0.85739 0.0
H437 H 0.33914 0.54885 0.82146 0.0
H438 H 0.18041 0.57047 0.84717 0.0
H439 H 0.24466 0.57419 0.84648 0.0
H440 H 0.25781 0.48369 0.88236 0.0
C441 C 0.37626 0.48401 0.85234 0.0
C442 C 0.32199 0.53493 0.835 0.0
C443 C 0.41178 0.48411 0.85016 0.0
C444 C 0.18276 0.5451 0.85138 0.0
C445 C 0.21943 0.54703 0.8508 0.0
C446 C 0.27515 0.49782 0.86892 0.0
C447 C 0.37305 0.51724 0.8477 0.0
C448 C 0.33498 0.517 0.84996 0.0
C449 C 0.22342 0.51428 0.85564 0.0
C450 C 0.26211 0.51562 0.85389 0.0
H451 H 0.46711 0.57691 0.83328 0.0
H452 H 0.40545 0.57691 0.83731 0.0
H453 H 0.32027 0.48499 0.87906 0.0
H454 H 0.12752 0.45086 0.86616 0.0
H455 H 0.19151 0.45393 0.86517 0.0
C456 C 0.88554 0.38945 0.17411 0.0
C457 C 0.91929 0.39021 0.16656 0.0
C458 C 0.85075 0.3536 0.17617 0.0
C459 C 0.79793 0.24639 0.15869 0.0
H460 H 0.73828 0.23767 0.2085 0.0
C461 C 0.66302 0.09738 0.17796 0.0
C462 C 0.62998 0.09847 0.18491 0.0
C463 C 0.69896 0.13249 0.17641 0.0
C464 C 0.7543 0.23965 0.19437 0.0
H465 H 0.94233 0.35334 0.15497 0.0
H466 H 0.88164 0.29069 0.15869 0.0
H467 H 0.79919 0.29921 0.20395 0.0
H468 H 0.60812 0.13656 0.19584 0.0
H469 H 0.67084 0.19812 0.19316 0.0
H470 H 0.75294 0.18678 0.14912 0.0
C471 C 0.88202 0.318 0.16283 0.0
C472 C 0.78933 0.27506 0.19173 0.0
C473 C 0.91695 0.35399 0.16073 0.0
C474 C 0.63344 0.13508 0.19064 0.0
C475 C 0.6694 0.17027 0.18914 0.0
C476 C 0.76289 0.21094 0.16134 0.0
C477 C 0.84854 0.31729 0.17081 0.0
C478 C 0.81157 0.27907 0.17379 0.0
C479 C 0.70259 0.16951 0.18175 0.0
C480 C 0.74046 0.20709 0.17918 0.0
H481 H 0.88598 0.41665 0.17868 0.0
H482 H 0.82545 0.35442 0.18194 0.0
H483 H 0.81386 0.24842 0.14452 0.0
H484 H 0.66088 0.06937 0.17335 0.0
H485 H 0.7239 0.1306 0.17098 0.0
C486 C 0.03762 0.55267 0.09772 0.0
C487 C 0.02805 0.51984 0.10977 0.0
C488 C 0.04462 0.55182 0.07591 0.0
C489 C 0.025 0.48305 0.02835 0.0
H490 H 0.10097 0.57961 0.0038 0.0
C491 C 0.05033 0.49135 0.93678 0.0
C492 C 0.04745 0.52201 0.92744 0.0
C493 C 0.05358 0.49054 0.95931 0.0
C494 C 0.07968 0.55241 0.01043 0.0
H495 H 0.01844 0.46032 0.1085 0.0
H496 H 0.03157 0.45899 0.07031 0.0
H497 H 0.09632 0.57839 0.04284 0.0
H498 H 0.04751 0.57669 0.93419 0.0
H499 H 0.05382 0.57568 0.97345 0.0
H500 H 0.00834 0.45727 0.99578 0.0
C501 C 0.03315 0.48529 0.07769 0.0
C502 C 0.07685 0.5517 0.0328 0.0
C503 C 0.0259 0.4861 0.09959 0.0
C504 C 0.04957 0.55267 0.94099 0.0
C505 C 0.0534 0.55218 0.96344 0.0
C506 C 0.02813 0.48367 0.00595 0.0
C507 C 0.04252 0.51817 0.06555 0.0
C508 C 0.04873 0.51734 0.04202 0.0
C509 C 0.05467 0.52073 0.97287 0.0
C510 C 0.05484 0.51864 0.99673 0.0
H511 H 0.03937 0.57907 0.10511 0.0
H512 H 0.05086 0.57737 0.06706 0.0
H513 H 1.00277 0.45617 0.0348 0.0
H514 H 0.04847 0.46721 0.92669 0.0
H515 H 0.05474 0.46607 0.96613 0.0
C516 C 0.53429 0.04271 0.43316 0.0
C517 C 0.56614 0.03984 0.44227 0.0
C518 C 0.52691 0.03947 0.41062 0.0
C519 C 0.55154 0.00466 0.35992 0.0
H520 H 0.51886 0.0719 0.33236 0.0
C521 C 0.5544 0.01939 0.26812 0.0
C522 C 0.51908 0.01326 0.25764 0.0
C523 C 0.56039 0.02527 0.29066 0.0
C524 C 0.52785 0.05286 0.33988 0.0
H525 H 0.61511 0.03127 0.43506 0.0
H526 H 0.60312 0.02677 0.39615 0.0
H527 H 0.52704 0.07508 0.37184 0.0
H528 H 0.46338 0.01075 0.26232 0.0
H529 H 0.47412 0.0216 0.30173 0.0
H530 H 0.5531 0.98304 0.32799 0.0
C531 C 0.58311 0.03055 0.40614 0.0
C532 C 0.53229 0.05446 0.36249 0.0
C533 C 0.59021 0.03343 0.42853 0.0
C534 C 0.4908 0.01521 0.27003 0.0
C535 C 0.49701 0.02158 0.29255 0.0
C536 C 0.54757 1.00344 0.3374 0.0
C537 C 0.55137 0.03345 0.39682 0.0
C538 C 0.54451 0.03057 0.37281 0.0
C539 C 0.5314 0.02562 0.30313 0.0
C540 C 0.53593 0.02766 0.32711 0.0
H541 H 0.51521 0.04754 0.44342 0.0
H542 H 0.50192 0.04139 0.40404 0.0
H543 H 0.56 0.98507 0.36722 0.0
H544 H 0.57656 0.01779 0.25899 0.0
H545 H 0.58738 0.02874 0.2984 0.0
C546 C 0.57603 0.53114 0.76748 0.0
C547 C 0.53914 0.50946 0.7761 0.0
C548 C 0.5783 0.53862 0.74555 0.0
C549 C 0.51605 0.50223 0.69322 0.0
H550 H 0.60615 0.5929 0.6719 0.0
C551 C 0.52509 0.53486 0.60307 0.0
C552 C 0.55784 0.53578 0.59414 0.0
C553 C 0.52335 0.53707 0.62553 0.0
C554 C 0.58079 0.56754 0.6777 0.0
H555 H 0.47581 0.48064 0.76908 0.0
H556 H 0.47952 0.49551 0.73125 0.0
H557 H 0.60115 0.58696 0.71084 0.0
H558 H 0.61519 0.54168 0.60141 0.0
H559 H 0.61272 0.54686 0.64076 0.0
H560 H 0.49544 0.48349 0.65998 0.0
C561 C 0.50685 0.50522 0.74095 0.0
C562 C 0.578 0.56386 0.70001 0.0
C563 C 0.50463 0.49695 0.76271 0.0
C564 C 0.58969 0.541 0.60798 0.0
C565 C 0.58832 0.54406 0.63041 0.0
C566 C 0.51846 0.5064 0.671 0.0
C567 C 0.54369 0.52534 0.73186 0.0
C568 C 0.5458 0.53084 0.70812 0.0
C569 C 0.5547 0.54109 0.63938 0.0
C570 C 0.55104 0.53881 0.66302 0.0
H571 H 0.60311 0.54106 0.7775 0.0
H572 H 0.60723 0.55369 0.73927 0.0
H573 H 0.49129 0.47585 0.69859 0.0
H574 H 0.50006 0.53051 0.5927 0.0
H575 H 0.49715 0.53477 0.63209 0.0
C576 C 0.58643 0.05012 0.57333 0.0
C577 C 0.55211 0.0499 0.56551 0.0
C578 C 0.59561 0.05276 0.5956 0.0
C579 C 0.54886 0.03132 0.64699 0.0
H580 H 0.65365 0.10517 0.67333 0.0
C581 C 0.62312 0.10565 0.73668 0.0
C582 C 0.6084 0.07202 0.74868 0.0
C583 C 0.6196 0.10179 0.71411 0.0
C584 C 0.6243 0.08434 0.66616 0.0
H585 H 0.50093 0.05302 0.57468 0.0
H586 H 0.51674 0.05722 0.61354 0.0
H587 H 0.64061 0.1014 0.63409 0.0
H588 H 0.57924 0.00807 0.74653 0.0
H589 H 0.57269 1.00125 0.70694 0.0
H590 H 0.53236 0.01451 0.679 0.0
C591 C 0.53641 0.05515 0.6025 0.0
C592 C 0.61691 0.08204 0.64374 0.0
C593 C 0.5275 0.05299 0.58028 0.0
C594 C 0.59096 0.03447 0.73766 0.0
C595 C 0.58699 0.03057 0.71506 0.0
C596 C 0.55636 0.03327 0.66934 0.0
C597 C 0.57037 0.05474 0.61038 0.0
C598 C 0.57896 0.0559 0.63399 0.0
C599 C 0.60089 0.06419 0.70307 0.0
C600 C 0.59401 0.06014 0.67919 0.0
H601 H 0.60594 0.04785 0.56225 0.0
H602 H 0.62192 0.05228 0.60126 0.0
H603 H 0.51943 0.01061 0.63986 0.0
H604 H 0.637 0.13496 0.74479 0.0
H605 H 0.63033 0.12818 0.7053 0.0
C606 C 0.6037 0.55738 0.91412 0.0
C607 C 0.57358 0.53257 0.89838 0.0
C608 C 0.59958 0.54963 0.93592 0.0
C609 C 0.56959 0.54137 0.98081 0.0
H610 H 0.5322 0.43627 1.00021 0.0
C611 C 0.53228 0.5054 0.06885 0.0
C612 C 0.54844 0.48445 0.07871 0.0
C613 C 0.53285 0.50903 0.04654 0.0
C614 C 0.54271 0.46577 0.995 0.0
H615 H 0.51604 0.47958 0.89289 0.0
H616 H 0.50892 0.4658 0.93109 0.0
H617 H 0.53938 0.44702 0.96166 0.0
H618 H 0.57653 0.44965 0.07286 0.0
H619 H 0.57758 0.45604 0.03384 0.0
H620 H 0.5733 0.56028 0.01406 0.0
C621 C 0.53569 0.49125 0.92655 0.0
C622 C 0.54655 0.47185 0.97296 0.0
C623 C 0.5397 0.49919 0.90473 0.0
C624 C 0.5642 0.46628 0.06572 0.0
C625 C 0.56447 0.46963 0.04338 0.0
C626 C 0.56542 0.53523 0.00277 0.0
C627 C 0.56536 0.51674 0.94239 0.0
C628 C 0.56035 0.5098 0.96567 0.0
C629 C 0.54931 0.49151 0.0336 0.0
C630 C 0.55216 0.49743 0.01013 0.0
H631 H 0.63024 0.58319 0.90966 0.0
H632 H 0.62318 0.56945 0.94774 0.0
H633 H 0.57988 0.57086 0.97564 0.0
H634 H 0.52016 0.51992 0.07847 0.0
H635 H 0.52062 0.52577 0.03941 0.0
C636 C 0.01894 0.45315 0.24091 0.0
C637 C 0.02671 0.48466 0.22807 0.0
C638 C 0.01029 0.45445 0.26243 0.0
C639 C 0.97534 0.50192 0.30095 0.0
H640 H 0.03624 0.48167 0.34422 0.0
C641 C 0.99916 0.56073 0.38961 0.0
C642 C 0.00684 0.541 0.40587 0.0
C643 C 0.99262 0.54638 0.36802 0.0
C644 C 0.01818 0.48649 0.33241 0.0
H645 H 0.03119 0.54202 0.22749 0.0
H646 H 0.01557 0.54412 0.26508 0.0
H647 H 0.04287 0.47155 0.30605 0.0
H648 H 0.0104 0.48893 0.41249 0.0
H649 H 0.99764 0.46298 0.37474 0.0
H650 H 0.95079 0.51712 0.32724 0.0
C651 C 0.01602 0.51836 0.25847 0.0
C652 C 0.0222 0.48089 0.3105 0.0
C653 C 0.02513 0.51726 0.23701 0.0
C654 C 1.00462 0.50481 0.4003 0.0
C655 C 0.99783 0.49026 0.37863 0.0
C656 C 0.97095 0.5071 0.32287 0.0
C657 C 0.00882 0.4871 0.27145 0.0
C658 C 1.00153 0.48942 0.29457 0.0
C659 C 0.99321 0.51166 0.36214 0.0
C660 C 0.99308 0.50041 0.33891 0.0
H661 H 0.01984 0.42759 0.23438 0.0
H662 H 1.00465 0.42986 0.27202 0.0
H663 H 0.95856 0.5081 0.28898 0.0
H664 H 1.00007 0.5884 0.39347 0.0
H665 H 0.98946 0.5639 0.35587 0.0
loop_
_geom_bond_atom_site_label_1
_geom_bond_atom_site_label_2
_geom_bond_distance
_geom_bond_site_symmetry_2
_ccdc_geom_bond_type
Dy0 O4 2.398 . S
Dy0 O5 2.491 . S
Dy0 O6 2.403 . S
Dy0 O7 2.664 . S
Dy0 O11 2.326 . S
Dy0 O15 2.310 . S
Dy0 O16 2.351 . S
C1 O12 1.185 . S
C1 O13 1.355 . S
C2 O4 1.185 . S
C2 O5 1.355 . S
Dy3 O7 2.310 . S
Dy3 O10 2.351 . S
Dy3 O12 2.398 1_455 S
Dy3 O13 2.491 1_455 S
Dy3 O14 2.403 . S
Dy3 O15 2.664 . S
Dy3 O17 2.326 1_455 S
O4 Dy0 2.398 . S
O4 C2 1.185 . S
O5 Dy0 2.491 . S
O5 C2 1.355 . S
O6 Dy0 2.403 . S
O6 C8 1.254 . S
O7 Dy0 2.664 . S
O7 Dy3 2.310 . S
O7 C8 1.268 . S
C8 O6 1.254 . S
C8 O7 1.268 . S
C9 O14 1.254 . S
C9 O15 1.268 . S
O10 Dy3 2.351 . S
O10 C18 1.249 . S
O11 Dy0 2.326 . S
O11 C18 1.267 . S
O12 C1 1.185 . S
O12 Dy3 2.398 1_655 S
O13 C1 1.355 . S
O13 Dy3 2.491 1_655 S
O14 Dy3 2.403 . S
O14 C9 1.254 . S
O15 Dy0 2.310 . S
O15 Dy3 2.664 . S
O15 C9 1.268 . S
O16 Dy0 2.351 . S
O16 C19 1.249 1_455 S
O17 Dy3 2.326 1_655 S
O17 C19 1.267 . S
C18 O10 1.249 . S
C18 O11 1.267 . S
C19 O16 1.249 1_655 S
C19 O17 1.267 . S
Dy20 O24 2.398 . S
Dy20 O25 2.491 . S
Dy20 O26 2.403 1_565 S
Dy20 O27 2.664 1_565 S
Dy20 O31 2.326 . S
Dy20 O35 2.310 1_565 S
Dy20 O36 2.351 1_565 S
C21 O32 1.185 . S
C21 O33 1.355 . S
C22 O24 1.185 . S
C22 O25 1.355 . S
Dy23 O27 2.310 . S
Dy23 O30 2.351 1_545 S
Dy23 O32 2.398 . S
Dy23 O33 2.491 . S
Dy23 O34 2.403 . S
Dy23 O35 2.664 . S
Dy23 O37 2.326 . S
O24 Dy20 2.398 . S
O24 C22 1.185 . S
O25 Dy20 2.491 . S
O25 C22 1.355 . S
O26 Dy20 2.403 1_545 S
O26 C28 1.254 . S
O27 Dy20 2.664 1_545 S
O27 Dy23 2.310 . S
O27 C28 1.268 . S
C28 O26 1.254 . S
C28 O27 1.268 . S
C29 O34 1.254 . S
C29 O35 1.268 . S
O30 Dy23 2.351 1_565 S
O30 C38 1.249 . S
O31 Dy20 2.326 . S
O31 C38 1.267 . S
O32 C21 1.185 . S
O32 Dy23 2.398 . S
O33 C21 1.355 . S
O33 Dy23 2.491 . S
O34 Dy23 2.403 . S
O34 C29 1.254 . S
O35 Dy20 2.310 1_545 S
O35 Dy23 2.664 . S
O35 C29 1.268 . S
O36 Dy20 2.351 1_545 S
O36 C39 1.249 . S
O37 Dy23 2.326 . S
O37 C39 1.267 . S
C38 O30 1.249 . S
C38 O31 1.267 . S
C39 O36 1.249 . S
C39 O37 1.267 . S
Dy40 O44 2.398 . S
Dy40 O45 2.491 . S
Dy40 O46 2.403 . S
Dy40 O47 2.664 . S
Dy40 O51 2.326 . S
Dy40 O55 2.310 . S
Dy40 O56 2.351 . S
C41 O52 1.185 . S
C41 O53 1.355 . S
C42 O44 1.185 . S
C42 O45 1.355 . S
Dy43 O47 2.310 . S
Dy43 O50 2.351 . S
Dy43 O52 2.398 . S
Dy43 O53 2.491 . S
Dy43 O54 2.403 . S
Dy43 O55 2.664 . S
Dy43 O57 2.326 . S
O44 Dy40 2.398 . S
O44 C42 1.185 . S
O45 Dy40 2.491 . S
O45 C42 1.355 . S
O46 Dy40 2.403 . S
O46 C48 1.254 . S
O47 Dy40 2.664 . S
O47 Dy43 2.310 . S
O47 C48 1.268 . S
C48 O46 1.254 . S
C48 O47 1.268 . S
C49 O54 1.254 . S
C49 O55 1.268 . S
O50 Dy43 2.351 . S
O50 C58 1.249 . S
O51 Dy40 2.326 . S
O51 C58 1.267 . S
O52 C41 1.185 . S
O52 Dy43 2.398 . S
O53 C41 1.355 . S
O53 Dy43 2.491 . S
O54 Dy43 2.403 . S
O54 C49 1.254 . S
O55 Dy40 2.310 . S
O55 Dy43 2.664 . S
O55 C49 1.268 . S
O56 Dy40 2.351 . S
O56 C59 1.249 . S
O57 Dy43 2.326 . S
O57 C59 1.267 . S
C58 O50 1.249 . S
C58 O51 1.267 . S
C59 O56 1.249 . S
C59 O57 1.267 . S
H60 C63 0.929 . S
H61 C66 0.929 . S
H62 C68 0.930 . S
C63 H60 0.929 . S
C63 C64 1.398 . S
C63 C65 1.396 1_565 S
C64 C63 1.398 . S
C64 C68 1.407 . S
C65 C63 1.396 1_545 S
C65 C66 1.394 . S
C66 H61 0.929 . S
C66 C65 1.394 . S
C66 C67 1.382 . S
C67 C66 1.382 . S
C67 C68 1.392 1_545 S
C67 N69 1.420 . S
C68 H62 0.930 . S
C68 C64 1.407 . S
C68 C67 1.392 1_565 S
N69 C67 1.420 . S
N69 C70 1.244 . S
C70 N69 1.244 . S
H71 C74 0.929 . S
H72 C77 0.929 . S
H73 C79 0.930 . S
C74 H71 0.929 . S
C74 C75 1.398 . S
C74 C76 1.396 . S
C75 C74 1.398 . S
C75 C79 1.407 . S
C76 C74 1.396 . S
C76 C77 1.394 . S
C77 H72 0.929 . S
C77 C76 1.394 . S
C77 C78 1.382 . S
C78 C77 1.382 . S
C78 C79 1.392 . S
C78 N80 1.420 . S
C79 H73 0.930 . S
C79 C75 1.407 . S
C79 C78 1.392 . S
N80 C78 1.420 . S
N80 C81 1.244 . S
C81 N80 1.244 . S
H82 C85 0.929 . S
H83 C88 0.929 . S
H84 C90 0.930 . S
C85 H82 0.929 . S
C85 C86 1.398 . S
C85 C87 1.396 . S
C86 C85 1.398 . S
C86 C90 1.407 . S
C87 C85 1.396 . S
C87 C88 1.394 . S
C88 H83 0.929 . S
C88 C87 1.394 . S
C88 C89 1.382 . S
C89 C88 1.382 . S
C89 C90 1.392 . S
C89 N91 1.420 . S
C90 H84 0.930 . S
C90 C86 1.407 . S
C90 C89 1.392 . S
N91 C89 1.420 . S
N91 C92 1.244 . S
C92 N91 1.244 . S
H93 C96 0.929 . S
H94 C99 0.929 . S
H95 C101 0.930 . S
C96 H93 0.929 . S
C96 C97 1.398 . S
C96 C98 1.396 . S
C97 C96 1.398 . S
C97 C101 1.407 . S
C98 C96 1.396 . S
C98 C99 1.394 1_455 S
C99 H94 0.929 . S
C99 C98 1.394 1_655 S
C99 C100 1.382 . S
C100 C99 1.382 . S
C100 C101 1.392 1_655 S
C100 N102 1.420 . S
C101 H95 0.930 . S
C101 C97 1.407 . S
C101 C100 1.392 1_455 S
N102 C100 1.420 . S
N102 C103 1.244 . S
C103 N102 1.244 . S
H104 C107 0.929 . S
H105 C110 0.929 1_565 S
H106 C112 0.930 . S
C107 H104 0.929 . S
C107 C108 1.398 . S
C107 C109 1.396 . S
C108 C107 1.398 . S
C108 C112 1.407 . S
C109 C107 1.396 . S
C109 C110 1.394 . S
C110 H105 0.929 1_545 S
C110 C109 1.394 . S
C110 C111 1.382 . S
C111 C110 1.382 . S
C111 C112 1.392 . S
C111 N113 1.420 1_545 S
C112 H106 0.930 . S
C112 C108 1.407 . S
C112 C111 1.392 . S
N113 C111 1.420 1_565 S
N113 C114 1.244 . S
C114 N113 1.244 . S
H115 C118 0.929 . S
H116 C121 0.929 . S
H117 C123 0.930 . S
C118 H115 0.929 . S
C118 C119 1.398 . S
C118 C120 1.396 . S
C119 C118 1.398 . S
C119 C123 1.407 . S
C120 C118 1.396 . S
C120 C121 1.394 . S
C121 H116 0.929 . S
C121 C120 1.394 . S
C121 C122 1.382 . S
C122 C121 1.382 . S
C122 C123 1.392 . S
C122 N124 1.420 . S
C123 H117 0.930 . S
C123 C119 1.407 . S
C123 C122 1.392 . S
N124 C122 1.420 . S
N124 C125 1.244 . S
C125 N124 1.244 . S
C126 C127 1.349 . S
C126 C128 1.327 . S
C126 H151 0.950 . S
C127 C126 1.349 . S
C127 C143 1.349 . S
C128 C126 1.327 . S
C128 C147 1.429 . S
C128 H152 0.950 . S
C129 C146 1.574 . S
C129 C148 1.368 . S
C129 H153 0.949 . S
H130 C134 0.949 . S
C131 C132 1.349 . S
C131 C133 1.327 . S
C131 H154 0.950 . S
C132 C131 1.349 . S
C132 C144 1.349 . S
C133 C131 1.327 . S
C133 C149 1.429 . S
C133 H155 0.950 . S
C134 H130 0.949 . S
C134 C142 1.574 . S
C134 C150 1.368 . S
H135 C143 0.950 . S
H136 C141 0.950 . S
H137 C142 0.949 . S
H138 C144 0.950 . S
H139 C145 0.950 . S
H140 C146 0.949 . S
C141 H136 0.950 . S
C141 C143 1.327 . S
C141 C147 1.429 . S
C142 C134 1.574 . S
C142 H137 0.949 . S
C142 C148 1.368 . S
C143 C127 1.349 . S
C143 H135 0.950 . S
C143 C141 1.327 . S
C144 C132 1.349 . S
C144 H138 0.950 . S
C144 C145 1.327 . S
C145 H139 0.950 . S
C145 C144 1.327 . S
C145 C149 1.429 . S
C146 C129 1.574 . S
C146 H140 0.949 . S
C146 C150 1.368 . S
C147 C128 1.429 . S
C147 C141 1.429 . S
C147 C148 1.523 . S
C148 C129 1.368 . S
C148 C142 1.368 . S
C148 C147 1.523 . S
C149 C133 1.429 . S
C149 C145 1.429 . S
C149 C150 1.523 . S
C150 C134 1.368 . S
C150 C146 1.368 . S
C150 C149 1.523 . S
H151 C126 0.950 . S
H152 C128 0.950 . S
H153 C129 0.949 . S
H154 C131 0.950 . S
H155 C133 0.950 . S
C156 C157 1.349 . S
C156 C158 1.327 . S
C156 H181 0.950 . S
C157 C156 1.349 . S
C157 C173 1.349 . S
C158 C156 1.327 . S
C158 C177 1.429 . S
C158 H182 0.950 . S
C159 C176 1.574 . S
C159 C178 1.368 . S
C159 H183 0.949 . S
H160 C164 0.949 . S
C161 C162 1.349 . S
C161 C163 1.327 . S
C161 H184 0.950 . S
C162 C161 1.349 . S
C162 C174 1.349 . S
C163 C161 1.327 . S
C163 C179 1.429 . S
C163 H185 0.950 . S
C164 H160 0.949 . S
C164 C172 1.574 . S
C164 C180 1.368 . S
H165 C173 0.950 . S
H166 C171 0.950 . S
H167 C172 0.949 . S
H168 C174 0.950 . S
H169 C175 0.950 . S
H170 C176 0.949 . S
C171 H166 0.950 . S
C171 C173 1.327 . S
C171 C177 1.429 . S
C172 C164 1.574 . S
C172 H167 0.949 . S
C172 C178 1.368 . S
C173 C157 1.349 . S
C173 H165 0.950 . S
C173 C171 1.327 . S
C174 C162 1.349 . S
C174 H168 0.950 . S
C174 C175 1.327 . S
C175 H169 0.950 . S
C175 C174 1.327 . S
C175 C179 1.429 . S
C176 C159 1.574 . S
C176 H170 0.949 . S
C176 C180 1.368 . S
C177 C158 1.429 . S
C177 C171 1.429 . S
C177 C178 1.523 . S
C178 C159 1.368 . S
C178 C172 1.368 . S
C178 C177 1.523 . S
C179 C163 1.429 . S
C179 C175 1.429 . S
C179 C180 1.523 . S
C180 C164 1.368 . S
C180 C176 1.368 . S
C180 C179 1.523 . S
H181 C156 0.950 . S
H182 C158 0.950 . S
H183 C159 0.949 . S
H184 C161 0.950 . S
H185 C163 0.950 . S
C186 C187 1.349 . S
C186 C188 1.327 . S
C186 H211 0.950 . S
C187 C186 1.349 . S
C187 C203 1.349 . S
C188 C186 1.327 . S
C188 C207 1.429 . S
C188 H212 0.950 . S
C189 C206 1.574 . S
C189 C208 1.368 . S
C189 H213 0.949 . S
H190 C194 0.949 . S
C191 C192 1.349 . S
C191 C193 1.327 . S
C191 H214 0.950 . S
C192 C191 1.349 . S
C192 C204 1.349 . S
C193 C191 1.327 . S
C193 C209 1.429 . S
C193 H215 0.950 . S
C194 H190 0.949 . S
C194 C202 1.574 . S
C194 C210 1.368 . S
H195 C203 0.950 . S
H196 C201 0.950 . S
H197 C202 0.949 . S
H198 C204 0.950 . S
H199 C205 0.950 . S
H200 C206 0.949 . S
C201 H196 0.950 . S
C201 C203 1.327 . S
C201 C207 1.429 . S
C202 C194 1.574 . S
C202 H197 0.949 . S
C202 C208 1.368 . S
C203 C187 1.349 . S
C203 H195 0.950 . S
C203 C201 1.327 . S
C204 C192 1.349 . S
C204 H198 0.950 . S
C204 C205 1.327 . S
C205 H199 0.950 . S
C205 C204 1.327 . S
C205 C209 1.429 . S
C206 C189 1.574 . S
C206 H200 0.949 . S
C206 C210 1.368 . S
C207 C188 1.429 . S
C207 C201 1.429 . S
C207 C208 1.523 . S
C208 C189 1.368 . S
C208 C202 1.368 . S
C208 C207 1.523 . S
C209 C193 1.429 . S
C209 C205 1.429 . S
C209 C210 1.523 . S
C210 C194 1.368 . S
C210 C206 1.368 . S
C210 C209 1.523 . S
H211 C186 0.950 . S
H212 C188 0.950 . S
H213 C189 0.949 . S
H214 C191 0.950 . S
H215 C193 0.950 . S
C216 C217 1.349 . S
C216 C218 1.327 . S
C216 H241 0.950 . S
C217 C216 1.349 . S
C217 C233 1.349 . S
C218 C216 1.327 . S
C218 C237 1.429 . S
C218 H242 0.950 . S
C219 C236 1.574 . S
C219 C238 1.368 . S
C219 H243 0.949 . S
H220 C224 0.949 . S
C221 C222 1.349 . S
C221 C223 1.327 . S
C221 H244 0.950 . S
C222 C221 1.349 . S
C222 C234 1.349 . S
C223 C221 1.327 . S
C223 C239 1.429 . S
C223 H245 0.950 . S
C224 H220 0.949 . S
C224 C232 1.574 . S
C224 C240 1.368 . S
H225 C233 0.950 . S
H226 C231 0.950 . S
H227 C232 0.949 . S
H228 C234 0.950 . S
H229 C235 0.950 . S
H230 C236 0.949 . S
C231 H226 0.950 . S
C231 C233 1.327 . S
C231 C237 1.429 . S
C232 C224 1.574 . S
C232 H227 0.949 . S
C232 C238 1.368 . S
C233 C217 1.349 . S
C233 H225 0.950 . S
C233 C231 1.327 . S
C234 C222 1.349 . S
C234 H228 0.950 . S
C234 C235 1.327 . S
C235 H229 0.950 . S
C235 C234 1.327 . S
C235 C239 1.429 . S
C236 C219 1.574 . S
C236 H230 0.949 . S
C236 C240 1.368 . S
C237 C218 1.429 . S
C237 C231 1.429 . S
C237 C238 1.523 . S
C238 C219 1.368 . S
C238 C232 1.368 . S
C238 C237 1.523 . S
C239 C223 1.429 . S
C239 C235 1.429 . S
C239 C240 1.523 . S
C240 C224 1.368 . S
C240 C236 1.368 . S
C240 C239 1.523 . S
H241 C216 0.950 . S
H242 C218 0.950 . S
H243 C219 0.949 . S
H244 C221 0.950 . S
H245 C223 0.950 . S
C246 C247 1.349 . S
C246 C248 1.327 . S
C246 H271 0.950 . S
C247 C246 1.349 . S
C247 C263 1.349 . S
C248 C246 1.327 . S
C248 C267 1.429 . S
C248 H272 0.950 . S
C249 C266 1.574 . S
C249 C268 1.368 . S
C249 H273 0.949 . S
H250 C254 0.949 . S
C251 C252 1.349 . S
C251 C253 1.327 . S
C251 H274 0.950 . S
C252 C251 1.349 . S
C252 C264 1.349 . S
C253 C251 1.327 . S
C253 C269 1.429 . S
C253 H275 0.950 . S
C254 H250 0.949 . S
C254 C262 1.574 . S
C254 C270 1.368 . S
H255 C263 0.950 . S
H256 C261 0.950 . S
H257 C262 0.949 . S
H258 C264 0.950 . S
H259 C265 0.950 . S
H260 C266 0.949 . S
C261 H256 0.950 . S
C261 C263 1.327 . S
C261 C267 1.429 . S
C262 C254 1.574 . S
C262 H257 0.949 . S
C262 C268 1.368 . S
C263 C247 1.349 . S
C263 H255 0.950 . S
C263 C261 1.327 . S
C264 C252 1.349 . S
C264 H258 0.950 . S
C264 C265 1.327 . S
C265 H259 0.950 . S
C265 C264 1.327 . S
C265 C269 1.429 . S
C266 C249 1.574 . S
C266 H260 0.949 . S
C266 C270 1.368 . S
C267 C248 1.429 . S
C267 C261 1.429 . S
C267 C268 1.523 . S
C268 C249 1.368 . S
C268 C262 1.368 . S
C268 C267 1.523 . S
C269 C253 1.429 . S
C269 C265 1.429 . S
C269 C270 1.523 . S
C270 C254 1.368 . S
C270 C266 1.368 . S
C270 C269 1.523 . S
H271 C246 0.950 . S
H272 C248 0.950 . S
H273 C249 0.949 . S
H274 C251 0.950 . S
H275 C253 0.950 . S
C276 C277 1.349 . S
C276 C278 1.327 . S
C276 H301 0.950 . S
C277 C276 1.349 . S
C277 C293 1.349 . S
C278 C276 1.327 . S
C278 C297 1.429 . S
C278 H302 0.950 . S
C279 C296 1.574 . S
C279 C298 1.368 . S
C279 H303 0.949 . S
H280 C284 0.949 . S
C281 C282 1.349 . S
C281 C283 1.327 . S
C281 H304 0.950 . S
C282 C281 1.349 . S
C282 C294 1.349 . S
C283 C281 1.327 . S
C283 C299 1.429 . S
C283 H305 0.950 . S
C284 H280 0.949 . S
C284 C292 1.574 . S
C284 C300 1.368 . S
H285 C293 0.950 . S
H286 C291 0.950 . S
H287 C292 0.949 . S
H288 C294 0.950 . S
H289 C295 0.950 . S
H290 C296 0.949 . S
C291 H286 0.950 . S
C291 C293 1.327 . S
C291 C297 1.429 . S
C292 C284 1.574 . S
C292 H287 0.949 . S
C292 C298 1.368 . S
C293 C277 1.349 . S
C293 H285 0.950 . S
C293 C291 1.327 . S
C294 C282 1.349 . S
C294 H288 0.950 . S
C294 C295 1.327 . S
C295 H289 0.950 . S
C295 C294 1.327 . S
C295 C299 1.429 . S
C296 C279 1.574 . S
C296 H290 0.949 . S
C296 C300 1.368 . S
C297 C278 1.429 . S
C297 C291 1.429 . S
C297 C298 1.523 . S
C298 C279 1.368 . S
C298 C292 1.368 . S
C298 C297 1.523 . S
C299 C283 1.429 . S
C299 C295 1.429 . S
C299 C300 1.523 . S
C300 C284 1.368 . S
C300 C296 1.368 . S
C300 C299 1.523 . S
H301 C276 0.950 . S
H302 C278 0.950 . S
H303 C279 0.949 . S
H304 C281 0.950 . S
H305 C283 0.950 . S
C306 C307 1.349 . S
C306 C308 1.327 . S
C306 H331 0.950 . S
C307 C306 1.349 . S
C307 C323 1.349 . S
C308 C306 1.327 . S
C308 C327 1.429 . S
C308 H332 0.950 . S
C309 C326 1.574 . S
C309 C328 1.368 . S
C309 H333 0.949 . S
H310 C314 0.949 . S
C311 C312 1.349 . S
C311 C313 1.327 . S
C311 H334 0.950 . S
C312 C311 1.349 . S
C312 C324 1.349 . S
C313 C311 1.327 . S
C313 C329 1.429 . S
C313 H335 0.950 . S
C314 H310 0.949 . S
C314 C322 1.574 . S
C314 C330 1.368 . S
H315 C323 0.950 . S
H316 C321 0.950 . S
H317 C322 0.949 . S
H318 C324 0.950 . S
H319 C325 0.950 . S
H320 C326 0.949 . S
C321 H316 0.950 . S
C321 C323 1.327 . S
C321 C327 1.429 . S
C322 C314 1.574 . S
C322 H317 0.949 . S
C322 C328 1.368 . S
C323 C307 1.349 . S
C323 H315 0.950 . S
C323 C321 1.327 . S
C324 C312 1.349 . S
C324 H318 0.950 . S
C324 C325 1.327 . S
C325 H319 0.950 . S
C325 C324 1.327 . S
C325 C329 1.429 . S
C326 C309 1.574 . S
C326 H320 0.949 . S
C326 C330 1.368 . S
C327 C308 1.429 . S
C327 C321 1.429 . S
C327 C328 1.523 . S
C328 C309 1.368 . S
C328 C322 1.368 . S
C328 C327 1.523 . S
C329 C313 1.429 . S
C329 C325 1.429 . S
C329 C330 1.523 . S
C330 C314 1.368 . S
C330 C326 1.368 . S
C330 C329 1.523 . S
H331 C306 0.950 . S
H332 C308 0.950 . S
H333 C309 0.949 . S
H334 C311 0.950 . S
H335 C313 0.950 . S
C336 C337 1.349 . S
C336 C338 1.327 . S
C336 H361 0.950 . S
C337 C336 1.349 . S
C337 C353 1.349 . S
C338 C336 1.327 . S
C338 C357 1.429 . S
C338 H362 0.950 . S
C339 C356 1.574 . S
C339 C358 1.368 . S
C339 H363 0.949 . S
H340 C344 0.949 . S
C341 C342 1.349 . S
C341 C343 1.327 . S
C341 H364 0.950 . S
C342 C341 1.349 . S
C342 C354 1.349 . S
C343 C341 1.327 . S
C343 C359 1.429 . S
C343 H365 0.950 . S
C344 H340 0.949 . S
C344 C352 1.574 . S
C344 C360 1.368 . S
H345 C353 0.950 . S
H346 C351 0.950 . S
H347 C352 0.949 . S
H348 C354 0.950 . S
H349 C355 0.950 . S
H350 C356 0.949 . S
C351 H346 0.950 . S
C351 C353 1.327 . S
C351 C357 1.429 . S
C352 C344 1.574 . S
C352 H347 0.949 . S
C352 C358 1.368 . S
C353 C337 1.349 . S
C353 H345 0.950 . S
C353 C351 1.327 . S
C354 C342 1.349 . S
C354 H348 0.950 . S
C354 C355 1.327 . S
C355 H349 0.950 . S
C355 C354 1.327 . S
C355 C359 1.429 . S
C356 C339 1.574 . S
C356 H350 0.949 . S
C356 C360 1.368 . S
C357 C338 1.429 . S
C357 C351 1.429 . S
C357 C358 1.523 . S
C358 C339 1.368 . S
C358 C352 1.368 . S
C358 C357 1.523 . S
C359 C343 1.429 . S
C359 C355 1.429 . S
C359 C360 1.523 . S
C360 C344 1.368 . S
C360 C356 1.368 . S
C360 C359 1.523 . S
H361 C336 0.950 . S
H362 C338 0.950 . S
H363 C339 0.949 . S
H364 C341 0.950 . S
H365 C343 0.950 . S
C366 C367 1.349 . S
C366 C368 1.327 . S
C366 H391 0.950 . S
C367 C366 1.349 . S
C367 C383 1.349 . S
C368 C366 1.327 . S
C368 C387 1.429 . S
C368 H392 0.950 . S
C369 C386 1.574 . S
C369 C388 1.368 . S
C369 H393 0.949 . S
H370 C374 0.949 . S
C371 C372 1.349 . S
C371 C373 1.327 . S
C371 H394 0.950 . S
C372 C371 1.349 . S
C372 C384 1.349 . S
C373 C371 1.327 . S
C373 C389 1.429 . S
C373 H395 0.950 . S
C374 H370 0.949 . S
C374 C382 1.574 . S
C374 C390 1.368 . S
H375 C383 0.950 . S
H376 C381 0.950 . S
H377 C382 0.949 . S
H378 C384 0.950 . S
H379 C385 0.950 . S
H380 C386 0.949 . S
C381 H376 0.950 . S
C381 C383 1.327 . S
C381 C387 1.429 . S
C382 C374 1.574 . S
C382 H377 0.949 . S
C382 C388 1.368 . S
C383 C367 1.349 . S
C383 H375 0.950 . S
C383 C381 1.327 . S
C384 C372 1.349 . S
C384 H378 0.950 . S
C384 C385 1.327 . S
C385 H379 0.950 . S
C385 C384 1.327 . S
C385 C389 1.429 . S
C386 C369 1.574 . S
C386 H380 0.949 . S
C386 C390 1.368 . S
C387 C368 1.429 . S
C387 C381 1.429 . S
C387 C388 1.523 . S
C388 C369 1.368 . S
C388 C382 1.368 . S
C388 C387 1.523 . S
C389 C373 1.429 . S
C389 C385 1.429 . S
C389 C390 1.523 . S
C390 C374 1.368 . S
C390 C386 1.368 . S
C390 C389 1.523 . S
H391 C366 0.950 . S
H392 C368 0.950 . S
H393 C369 0.949 . S
H394 C371 0.950 . S
H395 C373 0.950 . S
C396 C397 1.349 . S
C396 C398 1.327 . S
C396 H421 0.950 . S
C397 C396 1.349 . S
C397 C413 1.349 . S
C398 C396 1.327 . S
C398 C417 1.429 . S
C398 H422 0.950 . S
C399 C416 1.574 . S
C399 C418 1.368 . S
C399 H423 0.949 . S
H400 C404 0.949 . S
C401 C402 1.349 . S
C401 C403 1.327 . S
C401 H424 0.950 . S
C402 C401 1.349 . S
C402 C414 1.349 . S
C403 C401 1.327 . S
C403 C419 1.429 . S
C403 H425 0.950 . S
C404 H400 0.949 . S
C404 C412 1.574 . S
C404 C420 1.368 . S
H405 C413 0.950 . S
H406 C411 0.950 . S
H407 C412 0.949 . S
H408 C414 0.950 . S
H409 C415 0.950 . S
H410 C416 0.949 . S
C411 H406 0.950 . S
C411 C413 1.327 . S
C411 C417 1.429 . S
C412 C404 1.574 . S
C412 H407 0.949 . S
C412 C418 1.368 . S
C413 C397 1.349 . S
C413 H405 0.950 . S
C413 C411 1.327 . S
C414 C402 1.349 . S
C414 H408 0.950 . S
C414 C415 1.327 . S
C415 H409 0.950 . S
C415 C414 1.327 . S
C415 C419 1.429 . S
C416 C399 1.574 . S
C416 H410 0.949 . S
C416 C420 1.368 . S
C417 C398 1.429 . S
C417 C411 1.429 . S
C417 C418 1.523 . S
C418 C399 1.368 . S
C418 C412 1.368 . S
C418 C417 1.523 . S
C419 C403 1.429 . S
C419 C415 1.429 . S
C419 C420 1.523 . S
C420 C404 1.368 . S
C420 C416 1.368 . S
C420 C419 1.523 . S
H421 C396 0.950 . S
H422 C398 0.950 . S
H423 C399 0.949 . S
H424 C401 0.950 . S
H425 C403 0.950 . S
C426 C427 1.349 . S
C426 C428 1.327 . S
C426 H451 0.950 . S
C427 C426 1.349 . S
C427 C443 1.349 . S
C428 C426 1.327 . S
C428 C447 1.429 . S
C428 H452 0.950 . S
C429 C446 1.574 . S
C429 C448 1.368 . S
C429 H453 0.949 . S
H430 C434 0.949 . S
C431 C432 1.349 . S
C431 C433 1.327 . S
C431 H454 0.950 . S
C432 C431 1.349 . S
C432 C444 1.349 . S
C433 C431 1.327 . S
C433 C449 1.429 . S
C433 H455 0.950 . S
C434 H430 0.949 . S
C434 C442 1.574 . S
C434 C450 1.368 . S
H435 C443 0.950 . S
H436 C441 0.950 . S
H437 C442 0.949 . S
H438 C444 0.950 . S
H439 C445 0.950 . S
H440 C446 0.949 . S
C441 H436 0.950 . S
C441 C443 1.327 . S
C441 C447 1.429 . S
C442 C434 1.574 . S
C442 H437 0.949 . S
C442 C448 1.368 . S
C443 C427 1.349 . S
C443 H435 0.950 . S
C443 C441 1.327 . S
C444 C432 1.349 . S
C444 H438 0.950 . S
C444 C445 1.327 . S
C445 H439 0.950 . S
C445 C444 1.327 . S
C445 C449 1.429 . S
C446 C429 1.574 . S
C446 H440 0.949 . S
C446 C450 1.368 . S
C447 C428 1.429 . S
C447 C441 1.429 . S
C447 C448 1.523 . S
C448 C429 1.368 . S
C448 C442 1.368 . S
C448 C447 1.523 . S
C449 C433 1.429 . S
C449 C445 1.429 . S
C449 C450 1.523 . S
C450 C434 1.368 . S
C450 C446 1.368 . S
C450 C449 1.523 . S
H451 C426 0.950 . S
H452 C428 0.950 . S
H453 C429 0.949 . S
H454 C431 0.950 . S
H455 C433 0.950 . S
C456 C457 1.349 . S
C456 C458 1.327 . S
C456 H481 0.950 . S
C457 C456 1.349 . S
C457 C473 1.349 . S
C458 C456 1.327 . S
C458 C477 1.429 . S
C458 H482 0.950 . S
C459 C476 1.574 . S
C459 C478 1.368 . S
C459 H483 0.949 . S
H460 C464 0.949 . S
C461 C462 1.349 . S
C461 C463 1.327 . S
C461 H484 0.950 . S
C462 C461 1.349 . S
C462 C474 1.349 . S
C463 C461 1.327 . S
C463 C479 1.429 . S
C463 H485 0.950 . S
C464 H460 0.949 . S
C464 C472 1.574 . S
C464 C480 1.368 . S
H465 C473 0.950 . S
H466 C471 0.950 . S
H467 C472 0.949 . S
H468 C474 0.950 . S
H469 C475 0.950 . S
H470 C476 0.949 . S
C471 H466 0.950 . S
C471 C473 1.327 . S
C471 C477 1.429 . S
C472 C464 1.574 . S
C472 H467 0.949 . S
C472 C478 1.368 . S
C473 C457 1.349 . S
C473 H465 0.950 . S
C473 C471 1.327 . S
C474 C462 1.349 . S
C474 H468 0.950 . S
C474 C475 1.327 . S
C475 H469 0.950 . S
C475 C474 1.327 . S
C475 C479 1.429 . S
C476 C459 1.574 . S
C476 H470 0.949 . S
C476 C480 1.368 . S
C477 C458 1.429 . S
C477 C471 1.429 . S
C477 C478 1.523 . S
C478 C459 1.368 . S
C478 C472 1.368 . S
C478 C477 1.523 . S
C479 C463 1.429 . S
C479 C475 1.429 . S
C479 C480 1.523 . S
C480 C464 1.368 . S
C480 C476 1.368 . S
C480 C479 1.523 . S
H481 C456 0.950 . S
H482 C458 0.950 . S
H483 C459 0.949 . S
H484 C461 0.950 . S
H485 C463 0.950 . S
C486 C487 1.349 . S
C486 C488 1.327 . S
C486 H511 0.950 . S
C487 C486 1.349 . S
C487 C503 1.349 . S
C488 C486 1.327 . S
C488 C507 1.429 . S
C488 H512 0.950 . S
C489 C506 1.622 . S
C489 C508 1.368 . S
C489 H513 0.949 1_455 S
H490 C494 0.949 1_556 S
C491 C492 1.349 . S
C491 C493 1.327 . S
C491 H514 0.950 . S
C492 C491 1.349 . S
C492 C504 1.349 . S
C493 C491 1.327 . S
C493 C509 1.429 . S
C493 H515 0.950 . S
C494 H490 0.949 1_554 S
C494 C502 1.574 . S
C494 C510 1.368 1_554 S
H495 C503 0.950 1_655 S
H496 C501 0.950 1_655 S
H497 C502 0.949 . S
H498 C504 0.950 . S
H499 C505 0.950 . S
H500 C506 0.923 1_556 S
C501 H496 0.950 1_455 S
C501 C503 1.327 . S
C501 C507 1.429 . S
C502 C494 1.574 . S
C502 H497 0.949 . S
C502 C508 1.368 . S
C503 C487 1.349 . S
C503 H495 0.950 1_455 S
C503 C501 1.327 . S
C504 C492 1.349 . S
C504 H498 0.950 . S
C504 C505 1.327 . S
C505 H499 0.950 . S
C505 C504 1.327 . S
C505 C509 1.429 . S
C506 C489 1.622 . S
C506 H500 0.923 1_554 S
C506 C510 1.351 1_554 S
C507 C488 1.429 . S
C507 C501 1.429 . S
C507 C508 1.523 . S
C508 C489 1.368 . S
C508 C502 1.368 . S
C508 C507 1.523 . S
C509 C493 1.429 . S
C509 C505 1.429 . S
C509 C510 1.523 . S
C510 C494 1.368 1_556 S
C510 C506 1.351 1_556 S
C510 C509 1.523 . S
H511 C486 0.950 . S
H512 C488 0.950 . S
H513 C489 0.949 1_655 S
H514 C491 0.950 . S
H515 C493 0.950 . S
C516 C517 1.349 . S
C516 C518 1.327 . S
C516 H541 0.950 . S
C517 C516 1.349 . S
C517 C533 1.349 1_545 S
C518 C516 1.327 . S
C518 C537 1.429 . S
C518 H542 0.950 . S
C519 C536 1.574 . S
C519 C538 1.368 1_565 S
C519 H543 0.949 . S
H520 C524 0.949 . S
C521 C522 1.349 1_565 S
C521 C523 1.327 . S
C521 H544 0.950 . S
C522 C521 1.349 1_545 S
C522 C534 1.349 . S
C523 C521 1.327 . S
C523 C539 1.429 1_565 S
C523 H545 0.950 . S
C524 H520 0.949 . S
C524 C532 1.574 . S
C524 C540 1.368 . S
H525 C533 0.950 . S
H526 C531 0.950 . S
H527 C532 0.949 . S
H528 C534 0.950 . S
H529 C535 0.950 . S
H530 C536 0.949 . S
C531 H526 0.950 . S
C531 C533 1.327 . S
C531 C537 1.429 1_565 S
C532 C524 1.574 . S
C532 H527 0.949 . S
C532 C538 1.368 . S
C533 C517 1.349 1_565 S
C533 H525 0.950 . S
C533 C531 1.327 . S
C534 C522 1.349 . S
C534 H528 0.950 . S
C534 C535 1.327 . S
C535 H529 0.950 . S
C535 C534 1.327 . S
C535 C539 1.429 . S
C536 C519 1.574 . S
C536 H530 0.949 . S
C536 C540 1.368 1_565 S
C537 C518 1.429 . S
C537 C531 1.429 1_545 S
C537 C538 1.523 . S
C538 C519 1.368 1_545 S
C538 C532 1.368 . S
C538 C537 1.523 . S
C539 C523 1.429 1_545 S
C539 C535 1.429 . S
C539 C540 1.523 . S
C540 C524 1.368 . S
C540 C536 1.368 1_545 S
C540 C539 1.523 . S
H541 C516 0.950 . S
H542 C518 0.950 . S
H543 C519 0.949 . S
H544 C521 0.950 . S
H545 C523 0.950 . S
C546 C547 1.349 . S
C546 C548 1.327 . S
C546 H571 0.950 . S
C547 C546 1.349 . S
C547 C563 1.349 . S
C548 C546 1.327 . S
C548 C567 1.429 . S
C548 H572 0.950 . S
C549 C566 1.574 . S
C549 C568 1.368 . S
C549 H573 0.949 . S
H550 C554 0.949 . S
C551 C552 1.349 . S
C551 C553 1.327 . S
C551 H574 0.950 . S
C552 C551 1.349 . S
C552 C564 1.349 . S
C553 C551 1.327 . S
C553 C569 1.429 . S
C553 H575 0.950 . S
C554 H550 0.949 . S
C554 C562 1.574 . S
C554 C570 1.368 . S
H555 C563 0.950 . S
H556 C561 0.950 . S
H557 C562 0.949 . S
H558 C564 0.950 . S
H559 C565 0.950 . S
H560 C566 0.949 . S
C561 H556 0.950 . S
C561 C563 1.327 . S
C561 C567 1.429 . S
C562 C554 1.574 . S
C562 H557 0.949 . S
C562 C568 1.368 . S
C563 C547 1.349 . S
C563 H555 0.950 . S
C563 C561 1.327 . S
C564 C552 1.349 . S
C564 H558 0.950 . S
C564 C565 1.327 . S
C565 H559 0.950 . S
C565 C564 1.327 . S
C565 C569 1.429 . S
C566 C549 1.574 . S
C566 H560 0.949 . S
C566 C570 1.368 . S
C567 C548 1.429 . S
C567 C561 1.429 . S
C567 C568 1.523 . S
C568 C549 1.368 . S
C568 C562 1.368 . S
C568 C567 1.523 . S
C569 C553 1.429 . S
C569 C565 1.429 . S
C569 C570 1.523 . S
C570 C554 1.368 . S
C570 C566 1.368 . S
C570 C569 1.523 . S
H571 C546 0.950 . S
H572 C548 0.950 . S
H573 C549 0.949 . S
H574 C551 0.950 . S
H575 C553 0.950 . S
C576 C577 1.349 . S
C576 C578 1.327 . S
C576 H601 0.950 1_545 S
C577 C576 1.349 . S
C577 C593 1.349 . S
C578 C576 1.327 . S
C578 C597 1.429 . S
C578 H602 0.950 1_545 S
C579 C596 1.574 . S
C579 C598 1.368 . S
C579 H603 0.949 . S
H580 C584 0.949 1_565 S
C581 C582 1.349 . S
C581 C583 1.327 . S
C581 H604 0.950 . S
C582 C581 1.349 . S
C582 C594 1.349 . S
C583 C581 1.327 . S
C583 C599 1.429 . S
C583 H605 0.950 . S
C584 H580 0.949 1_545 S
C584 C592 1.574 . S
C584 C600 1.368 . S
H585 C593 0.950 . S
H586 C591 0.950 . S
H587 C592 0.949 1_565 S
H588 C594 0.950 1_565 S
H589 C595 0.950 1_565 S
H590 C596 0.949 . S
C591 H586 0.950 . S
C591 C593 1.327 . S
C591 C597 1.429 . S
C592 C584 1.574 . S
C592 H587 0.949 1_545 S
C592 C598 1.368 . S
C593 C577 1.349 . S
C593 H585 0.950 . S
C593 C591 1.327 . S
C594 C582 1.349 . S
C594 H588 0.950 1_545 S
C594 C595 1.327 . S
C595 H589 0.950 1_545 S
C595 C594 1.327 . S
C595 C599 1.429 . S
C596 C579 1.574 . S
C596 H590 0.949 . S
C596 C600 1.368 . S
C597 C578 1.429 . S
C597 C591 1.429 . S
C597 C598 1.523 . S
C598 C579 1.368 . S
C598 C592 1.368 . S
C598 C597 1.523 . S
C599 C583 1.429 . S
C599 C595 1.429 . S
C599 C600 1.523 . S
C600 C584 1.368 . S
C600 C596 1.368 . S
C600 C599 1.523 . S
H601 C576 0.950 1_565 S
H602 C578 0.950 1_565 S
H603 C579 0.949 . S
H604 C581 0.950 . S
H605 C583 0.950 . S
C606 C607 1.349 . S
C606 C608 1.327 . S
C606 H631 0.950 . S
C607 C606 1.349 . S
C607 C623 1.349 . S
C608 C606 1.327 . S
C608 C627 1.429 . S
C608 H632 0.950 . S
C609 C626 1.558 1_556 S
C609 C628 1.368 . S
C609 H633 0.949 . S
H610 C614 0.949 . S
C611 C612 1.349 . S
C611 C613 1.327 . S
C611 H634 0.950 . S
C612 C611 1.349 . S
C612 C624 1.349 . S
C613 C611 1.327 . S
C613 C629 1.429 . S
C613 H635 0.950 . S
C614 H610 0.949 . S
C614 C622 1.574 1_554 S
C614 C630 1.368 . S
H615 C623 0.950 . S
H616 C621 0.950 . S
H617 C622 0.949 . S
H618 C624 0.950 . S
H619 C625 0.950 . S
H620 C626 0.957 . S
C621 H616 0.950 . S
C621 C623 1.327 . S
C621 C627 1.429 . S
C622 C614 1.574 1_556 S
C622 H617 0.949 . S
C622 C628 1.368 . S
C623 C607 1.349 . S
C623 H615 0.950 . S
C623 C621 1.327 . S
C624 C612 1.349 . S
C624 H618 0.950 . S
C624 C625 1.327 . S
C625 H619 0.950 . S
C625 C624 1.327 . S
C625 C629 1.429 . S
C626 C609 1.558 1_554 S
C626 H620 0.957 . S
C626 C630 1.375 . S
C627 C608 1.429 . S
C627 C621 1.429 . S
C627 C628 1.523 . S
C628 C609 1.368 . S
C628 C622 1.368 . S
C628 C627 1.523 . S
C629 C613 1.429 . S
C629 C625 1.429 . S
C629 C630 1.523 . S
C630 C614 1.368 . S
C630 C626 1.375 . S
C630 C629 1.523 . S
H631 C606 0.950 . S
H632 C608 0.950 . S
H633 C609 0.949 . S
H634 C611 0.950 . S
H635 C613 0.950 . S
C636 C637 1.349 . S
C636 C638 1.327 . S
C636 H661 0.950 . S
C637 C636 1.349 . S
C637 C653 1.349 . S
C638 C636 1.327 . S
C638 C657 1.429 . S
C638 H662 0.950 . S
C639 C656 1.574 . S
C639 C658 1.368 . S
C639 H663 0.949 . S
H640 C644 0.949 . S
C641 C642 1.349 . S
C641 C643 1.327 . S
C641 H664 0.950 . S
C642 C641 1.349 . S
C642 C654 1.349 . S
C643 C641 1.327 . S
C643 C659 1.429 . S
C643 H665 0.950 . S
C644 H640 0.949 . S
C644 C652 1.574 . S
C644 C660 1.368 . S
H645 C653 0.950 . S
H646 C651 0.950 . S
H647 C652 0.949 . S
H648 C654 0.950 . S
H649 C655 0.950 . S
H650 C656 0.949 . S
C651 H646 0.950 . S
C651 C653 1.327 . S
C651 C657 1.429 . S
C652 C644 1.574 . S
C652 H647 0.949 . S
C652 C658 1.368 . S
C653 C637 1.349 . S
C653 H645 0.950 . S
C653 C651 1.327 . S
C654 C642 1.349 . S
C654 H648 0.950 . S
C654 C655 1.327 . S
C655 H649 0.950 . S
C655 C654 1.327 . S
C655 C659 1.429 . S
C656 C639 1.574 . S
C656 H650 0.949 . S
C656 C660 1.368 . S
C657 C638 1.429 . S
C657 C651 1.429 . S
C657 C658 1.523 . S
C658 C639 1.368 . S
C658 C652 1.368 . S
C658 C657 1.523 . S
C659 C643 1.429 . S
C659 C655 1.429 . S
C659 C660 1.523 . S
C660 C644 1.368 . S
C660 C656 1.368 . S
C660 C659 1.523 . S
H661 C636 0.950 . S
H662 C638 0.950 . S
H663 C639 0.949 . S
H664 C641 0.950 . S
H665 C643 0.950 . S
C127 C2 1.133 . S
C132 C125 1.123 . S
C157 C21 1.021 . S
C162 C103 1.021 . S
C187 C42 1.102 . S
C192 C114 1.088 . S
C217 C1 0.870 . S
C222 C119 0.867 . S
C252 C97 0.961 . S
C247 C22 0.967 . S
C282 C108 0.874 . S
C277 C41 0.875 . S
C307 C38 1.894 . S
C312 C81 1.868 . S
C337 C59 1.832 . S
C342 C86 1.801 1_655 S
C367 C18 1.731 . S
C372 C64 1.714 . S
C402 C75 1.796 . S
C397 C39 1.827 . S
C432 C92 1.846 . S
C427 C58 1.875 . S
C457 C19 1.993 . S
C462 C70 1.940 . S
C492 C87 1.566 . S
C487 C9 1.537 . S
C517 C29 1.537 . S
C522 C65 1.624 . S
C547 C49 1.550 . S
C552 C76 1.591 . S
C582 C109 1.507 . S
C577 C28 1.487 . S
C612 C120 1.478 . S
C607 C48 1.444 . S
C637 C8 1.403 . S
C642 C98 1.445 . S
