# Generated by pormake.
# Topology nom, (4,4)-cn, num edge types: 1
# Building blocks:
#     Node 0, Type 0, BuildingBlock: AZAVOO_clean_linker_0, # of connection points: 4
#     Node 1, Type 0, BuildingBlock: AZAVOO_clean_linker_0, # of connection points: 4
#     Node 2, Type 0, BuildingBlock: AZAVOO_clean_linker_0, # of connection points: 4
#     Node 3, Type 0, BuildingBlock: AZAVOO_clean_linker_0, # of connection points: 4
#     Node 4, Type 0, BuildingBlock: AZAVOO_clean_linker_0, # of connection points: 4
#     Node 5, Type 0, BuildingBlock: AZAVOO_clean_linker_0, # of connection points: 4
#     Node 6, Type 1, BuildingBlock: QUQFOY_clean_sbu_1, # of connection points: 4
#     Node 7, Type 1, BuildingBlock: QUQFOY_clean_sbu_1, # of connection points: 4
#     Node 8, Type 1, BuildingBlock: QUQFOY_clean_sbu_1, # of connection points: 4
#     Node 9, Type 1, BuildingBlock: QUQFOY_clean_sbu_1, # of connection points: 4
#     Node 10, Type 1, BuildingBlock: QUQFOY_clean_sbu_1, # of connection points: 4
#     Node 11, Type 1, BuildingBlock: QUQFOY_clean_sbu_1, # of connection points: 4
#     Edge 12, Type (0, 1), BuildingBlock: TEMPAE_clean_linker_10, # of connection points: 2
#     Edge 13, Type (0, 1), BuildingBlock: TEMPAE_clean_linker_10, # of connection points: 2
#     Edge 14, Type (0, 1), BuildingBlock: TEMPAE_clean_linker_10, # of connection points: 2
#     Edge 15, Type (0, 1), BuildingBlock: TEMPAE_clean_linker_10, # of connection points: 2
#     Edge 16, Type (0, 1), BuildingBlock: TEMPAE_clean_linker_10, # of connection points: 2
#     Edge 17, Type (0, 1), BuildingBlock: TEMPAE_clean_linker_10, # of connection points: 2
#     Edge 18, Type (0, 1), BuildingBlock: TEMPAE_clean_linker_10, # of connection points: 2
#     Edge 19, Type (0, 1), BuildingBlock: TEMPAE_clean_linker_10, # of connection points: 2
#     Edge 20, Type (0, 1), BuildingBlock: TEMPAE_clean_linker_10, # of connection points: 2
#     Edge 21, Type (0, 1), BuildingBlock: TEMPAE_clean_linker_10, # of connection points: 2
#     Edge 22, Type (0, 1), BuildingBlock: TEMPAE_clean_linker_10, # of connection points: 2
#     Edge 23, Type (0, 1), BuildingBlock: TEMPAE_clean_linker_10, # of connection points: 2
#     Edge 24, Type (0, 1), BuildingBlock: TEMPAE_clean_linker_10, # of connection points: 2
#     Edge 25, Type (0, 1), BuildingBlock: TEMPAE_clean_linker_10, # of connection points: 2
#     Edge 26, Type (0, 1), BuildingBlock: TEMPAE_clean_linker_10, # of connection points: 2
#     Edge 27, Type (0, 1), BuildingBlock: TEMPAE_clean_linker_10, # of connection points: 2
#     Edge 28, Type (0, 1), BuildingBlock: TEMPAE_clean_linker_10, # of connection points: 2
#     Edge 29, Type (0, 1), BuildingBlock: TEMPAE_clean_linker_10, # of connection points: 2
#     Edge 30, Type (0, 1), BuildingBlock: TEMPAE_clean_linker_10, # of connection points: 2
#     Edge 31, Type (0, 1), BuildingBlock: TEMPAE_clean_linker_10, # of connection points: 2
#     Edge 32, Type (0, 1), BuildingBlock: TEMPAE_clean_linker_10, # of connection points: 2
#     Edge 33, Type (0, 1), BuildingBlock: TEMPAE_clean_linker_10, # of connection points: 2
#     Edge 34, Type (0, 1), BuildingBlock: TEMPAE_clean_linker_10, # of connection points: 2
#     Edge 35, Type (0, 1), BuildingBlock: TEMPAE_clean_linker_10, # of connection points: 2
# Relax obj value: 0.178
# Max RMSD: 0.248
# Mean RMSD: 0.188
data_MOF--net-nom--node1-QUQFOY_clean_sbu_1--node2-AZAVOO_clean_linker_0--edge1-TEMPAE_clean_linker_10
_symmetry_space_group_name_H-M    P1
_symmetry_Int_Tables_number       1
_symmetry_cell_setting            triclinic
loop_
_symmetry_equiv_pos_as_xyz
'x, y, z'
_cell_length_a     50.133863
_cell_length_b     51.803921
_cell_length_c     57.774234
_cell_angle_alpha  90.195943
_cell_angle_beta   89.755025
_cell_angle_gamma 120.88805
loop_
_atom_site_label
_atom_site_type_symbol
_atom_site_fract_x
_atom_site_fract_y
_atom_site_fract_z
_atom_type_partial_charge
H0 H 0.07082 0.51216 0.16023 0.0
H1 H 0.21008 0.62668 0.40793 0.0
H2 H 0.00169 0.4562 0.27807 0.0
H3 H 0.96283 0.43399 0.24741 0.0
H4 H 0.94535 0.50719 0.25395 0.0
H5 H 0.984 0.52895 0.28505 0.0
H6 H 0.06915 0.4933 0.26013 0.0
H7 H 0.07276 0.49513 0.21783 0.0
H8 H 0.04651 0.56268 0.21721 0.0
H9 H 0.04324 0.56076 0.25953 0.0
H10 H 0.12032 0.52228 0.28786 0.0
H11 H 0.17378 0.55523 0.27371 0.0
H12 H 0.16162 0.63175 0.27961 0.0
H13 H 0.1085 0.59878 0.29364 0.0
H14 H 0.11283 0.51458 0.3385 0.0
H15 H 0.15839 0.53726 0.36386 0.0
H16 H 0.14915 0.61524 0.37276 0.0
H17 H 0.1039 0.59244 0.34714 0.0
H18 H 0.04696 0.47799 0.36105 0.0
H19 H 0.06604 0.48264 0.40068 0.0
H20 H 0.06518 0.56502 0.40913 0.0
H21 H 0.04694 0.56068 0.36938 0.0
H22 H 0.96933 0.45194 0.32327 0.0
H23 H 0.91672 0.43571 0.33764 0.0
H24 H 0.94893 0.52596 0.36173 0.0
H25 H 0.00064 0.54233 0.34634 0.0
O26 O 0.06955 0.512 0.17694 0.0
O27 O 0.05598 0.54668 0.17758 0.0
O28 O 0.20001 0.57982 0.38875 0.0
O29 O 0.19253 0.61748 0.39751 0.0
C30 C 0.0231 0.50994 0.29879 0.0
C31 C 0.0529 0.52508 0.28837 0.0
C32 C 0.07966 0.53933 0.30226 0.0
C33 C 0.07678 0.53752 0.3265 0.0
C34 C 0.04702 0.52245 0.33697 0.0
C35 C 0.02001 0.50954 0.32316 0.0
C36 C 0.99554 0.49409 0.28369 0.0
C37 C 0.98887 0.46698 0.27326 0.0
C38 C 0.96693 0.45453 0.25564 0.0
C39 C 0.95142 0.46911 0.24806 0.0
C40 C 0.95683 0.49539 0.25952 0.0
C41 C 0.97882 0.50783 0.27725 0.0
C42 C 0.05602 0.52694 0.2628 0.0
C43 C 0.06442 0.50862 0.2508 0.0
C44 C 0.06635 0.50965 0.22665 0.0
C45 C 0.05988 0.52903 0.21412 0.0
C46 C 0.05163 0.5475 0.22631 0.0
C47 C 0.04976 0.54647 0.25046 0.0
C48 C 0.1107 0.55826 0.29165 0.0
C49 C 0.12917 0.5461 0.28573 0.0
C50 C 0.15956 0.56487 0.27769 0.0
C51 C 0.17185 0.59603 0.27578 0.0
C52 C 0.15286 0.60788 0.28121 0.0
C53 C 0.12253 0.58912 0.28906 0.0
C54 C 0.10514 0.55189 0.34109 0.0
C55 C 0.12088 0.53666 0.34582 0.0
C56 C 0.14682 0.54964 0.36032 0.0
C57 C 0.15736 0.57805 0.37037 0.0
C58 C 0.1416 0.59331 0.36537 0.0
C59 C 0.11581 0.58039 0.35073 0.0
C60 C 0.04527 0.51883 0.36242 0.0
C61 C 0.04926 0.49615 0.37187 0.0
C62 C 0.06047 0.49899 0.39438 0.0
C63 C 0.06729 0.52431 0.40776 0.0
C64 C 0.05978 0.54514 0.3992 0.0
C65 C 0.04903 0.54253 0.37656 0.0
C66 C 0.98901 0.4983 0.33397 0.0
C67 C 0.96504 0.46813 0.33179 0.0
C68 C 0.93511 0.45889 0.34 0.0
C69 C 0.92896 0.47956 0.35097 0.0
C70 C 0.95321 0.50947 0.35373 0.0
C71 C 0.98281 0.5188 0.34507 0.0
C72 C 0.06166 0.52986 0.18846 0.0
C73 C 0.18459 0.59174 0.38606 0.0
H74 H 0.43784 0.04375 0.32529 0.0
H75 H 0.49306 0.20211 0.5757 0.0
H76 H 0.45128 0.99359 0.46287 0.0
H77 H 0.44281 0.95244 0.43744 0.0
H78 H 0.35838 0.94549 0.41231 0.0
H79 H 0.36619 0.98603 0.43893 0.0
H80 H 0.4619 0.03849 0.42359 0.0
H81 H 0.45879 0.03892 0.38137 0.0
H82 H 0.38528 0.05904 0.38708 0.0
H83 H 0.38835 0.05812 0.42932 0.0
H84 H 0.49038 0.10104 0.441 0.0
H85 H 0.51598 0.15162 0.4243 0.0
H86 H 0.44353 0.16445 0.45224 0.0
H87 H 0.41773 0.11355 0.46856 0.0
H88 H 0.50256 0.1104 0.49912 0.0
H89 H 0.52829 0.15409 0.52487 0.0
H90 H 0.43899 0.14326 0.54186 0.0
H91 H 0.41363 0.09963 0.51601 0.0
H92 H 0.48094 0.04746 0.52098 0.0
H93 H 0.50415 0.06744 0.55878 0.0
H94 H 0.42216 0.0691 0.57937 0.0
H95 H 0.39883 0.04873 0.5414 0.0
H96 H 0.4496 0.99154 0.5048 0.0
H97 H 0.42768 0.94148 0.52237 0.0
H98 H 0.3371 0.93222 0.52385 0.0
H99 H 0.35884 0.98171 0.50535 0.0
O100 O 0.43869 0.0437 0.34201 0.0
O101 O 0.40127 0.05444 0.34588 0.0
O102 O 0.52912 0.19132 0.55445 0.0
O103 O 0.48362 0.18568 0.56471 0.0
C104 C 0.41678 0.01964 0.46673 0.0
C105 C 0.42662 0.04718 0.45513 0.0
C106 C 0.43854 0.07416 0.46794 0.0
C107 C 0.44064 0.07351 0.49224 0.0
C108 C 0.43053 0.04595 0.50378 0.0
C109 C 0.41805 0.01899 0.49114 0.0
C110 C 0.40898 0.99232 0.45317 0.0
C111 C 0.43021 0.98233 0.45269 0.0
C112 C 0.42546 0.95897 0.43805 0.0
C113 C 0.39981 0.9457 0.42314 0.0
C114 C 0.37819 0.9553 0.42383 0.0
C115 C 0.38261 0.97832 0.43896 0.0
C116 C 0.42514 0.04799 0.42949 0.0
C117 C 0.44502 0.0428 0.41568 0.0
C118 C 0.44325 0.04316 0.39157 0.0
C119 C 0.42172 0.04895 0.38084 0.0
C120 C 0.40207 0.05446 0.39478 0.0
C121 C 0.4038 0.05399 0.4189 0.0
C122 C 0.45215 0.1036 0.45593 0.0
C123 C 0.47969 0.11453 0.44309 0.0
C124 C 0.49429 0.1434 0.4336 0.0
C125 C 0.48179 0.16197 0.43707 0.0
C126 C 0.45381 0.15069 0.4495 0.0
C127 C 0.43902 0.12167 0.45875 0.0
C128 C 0.45631 0.102 0.50569 0.0
C129 C 0.4887 0.11783 0.50815 0.0
C130 C 0.50328 0.14265 0.52295 0.0
C131 C 0.48566 0.15206 0.53554 0.0
C132 C 0.45324 0.13656 0.5325 0.0
C133 C 0.4387 0.11176 0.51767 0.0
C134 C 0.4383 0.04677 0.52852 0.0
C135 C 0.46733 0.05068 0.53404 0.0
C136 C 0.48069 0.06241 0.55549 0.0
C137 C 0.4651 0.07026 0.57168 0.0
C138 C 0.43455 0.06315 0.56712 0.0
C139 C 0.42118 0.05142 0.54555 0.0
C140 C 0.40566 0.98997 0.50348 0.0
C141 C 0.42503 0.97867 0.50886 0.0
C142 C 0.41257 0.95024 0.51892 0.0
C143 C 0.38079 0.9332 0.52438 0.0
C144 C 0.36171 0.9451 0.51986 0.0
C145 C 0.37403 0.9732 0.50929 0.0
C146 C 0.41985 0.04923 0.35522 0.0
C147 C 0.50089 0.17758 0.55206 0.0
H148 H 0.59798 0.57273 0.80198 0.0
H149 H 0.60152 0.44602 0.55793 0.0
H150 H 0.58101 0.62531 0.68776 0.0
H151 H 0.56243 0.64337 0.71948 0.0
H152 H 0.4689 0.56915 0.70807 0.0
H153 H 0.48769 0.55192 0.6758 0.0
H154 H 0.61321 0.58618 0.70147 0.0
H155 H 0.61632 0.58587 0.74374 0.0
H156 H 0.51669 0.52594 0.74738 0.0
H157 H 0.514 0.52612 0.70512 0.0
H158 H 0.63187 0.55185 0.65983 0.0
H159 H 0.64837 0.51785 0.67481 0.0
H160 H 0.55578 0.45878 0.7012 0.0
H161 H 0.53897 0.4918 0.68518 0.0
H162 H 0.62882 0.56956 0.61479 0.0
H163 H 0.64678 0.54431 0.5886 0.0
H164 H 0.55952 0.46086 0.59798 0.0
H165 H 0.54201 0.48635 0.62434 0.0
H166 H 0.60383 0.60898 0.60227 0.0
H167 H 0.62015 0.60703 0.56261 0.0
H168 H 0.53824 0.51926 0.55369 0.0
H169 H 0.52232 0.52117 0.5934 0.0
H170 H 0.55798 0.63211 0.64207 0.0
H171 H 0.52383 0.65005 0.62872 0.0
H172 H 0.46058 0.56208 0.60049 0.0
H173 H 0.49396 0.54402 0.61459 0.0
O174 O 0.59628 0.57228 0.78529 0.0
O175 O 0.54495 0.54177 0.78621 0.0
O176 O 0.64113 0.49883 0.56662 0.0
O177 O 0.59529 0.45635 0.56865 0.0
C178 C 0.54811 0.57294 0.66438 0.0
C179 C 0.56156 0.55751 0.67466 0.0
C180 C 0.57316 0.54313 0.66063 0.0
C181 C 0.57261 0.54537 0.63635 0.0
C182 C 0.55967 0.56127 0.62608 0.0
C183 C 0.54644 0.57426 0.64002 0.0
C184 C 0.53568 0.5873 0.67964 0.0
C185 C 0.55638 0.61355 0.69168 0.0
C186 C 0.54576 0.62359 0.70993 0.0
C187 C 0.5143 0.60733 0.71658 0.0
C188 C 0.49324 0.58226 0.70332 0.0
C189 C 0.50388 0.57237 0.6849 0.0
C190 C 0.56338 0.55637 0.70028 0.0
C191 C 0.59213 0.57289 0.71144 0.0
C192 C 0.59381 0.57272 0.73558 0.0
C193 C 0.56673 0.55598 0.74895 0.0
C194 C 0.53797 0.53916 0.73762 0.0
C195 C 0.53636 0.53928 0.7135 0.0
C196 C 0.58416 0.52421 0.67131 0.0
C197 C 0.61516 0.53154 0.6688 0.0
C198 C 0.62459 0.51229 0.67742 0.0
C199 C 0.60334 0.48595 0.68923 0.0
C200 C 0.57264 0.47919 0.69239 0.0
C201 C 0.56305 0.498 0.68329 0.0
C202 C 0.58415 0.52974 0.62142 0.0
C203 C 0.61372 0.54579 0.61125 0.0
C204 C 0.62388 0.53133 0.59628 0.0
C205 C 0.60449 0.5006 0.59108 0.0
C206 C 0.57498 0.48456 0.60154 0.0
C207 C 0.56495 0.499 0.61665 0.0
C208 C 0.56194 0.56521 0.60066 0.0
C209 C 0.58858 0.59006 0.59134 0.0
C210 C 0.59803 0.58881 0.5688 0.0
C211 C 0.58062 0.56285 0.5553 0.0
C212 C 0.55194 0.53961 0.56371 0.0
C213 C 0.54271 0.54073 0.58634 0.0
C214 C 0.52851 0.58672 0.62931 0.0
C215 C 0.53688 0.61681 0.63283 0.0
C216 C 0.51743 0.62702 0.62521 0.0
C217 C 0.48965 0.60746 0.61352 0.0
C218 C 0.48207 0.57776 0.60915 0.0
C219 C 0.50117 0.56744 0.61714 0.0
C220 C 0.56853 0.55616 0.77459 0.0
C221 C 0.61486 0.48532 0.57473 0.0
H222 H 0.04929 0.41499 0.97292 0.0
H223 H 0.20544 0.51311 0.73062 0.0
H224 H 0.99087 0.44427 0.85667 0.0
H225 H 0.9519 0.42745 0.88748 0.0
H226 H 0.92588 0.33533 0.87446 0.0
H227 H 0.96557 0.35246 0.84359 0.0
H228 H 0.05559 0.46029 0.87923 0.0
H229 H 0.05646 0.45006 0.92046 0.0
H230 H 0.02293 0.35668 0.9045 0.0
H231 H 0.02244 0.36733 0.8633 0.0
H232 H 0.10681 0.4964 0.83964 0.0
H233 H 0.15728 0.51778 0.85878 0.0
H234 H 0.14181 0.4286 0.86877 0.0
H235 H 0.09172 0.40718 0.84843 0.0
H236 H 0.09178 0.50492 0.79657 0.0
H237 H 0.13751 0.5344 0.77209 0.0
H238 H 0.14699 0.45649 0.7637 0.0
H239 H 0.10095 0.42715 0.78805 0.0
H240 H 0.02578 0.48177 0.78783 0.0
H241 H 0.04398 0.51352 0.7535 0.0
H242 H 0.06504 0.45092 0.72081 0.0
H243 H 0.04559 0.4186 0.75501 0.0
H244 H 0.97452 0.44616 0.80091 0.0
H245 H 0.92173 0.42336 0.78507 0.0
H246 H 0.91669 0.33783 0.78012 0.0
H247 H 0.96991 0.36098 0.79495 0.0
O248 O 0.04902 0.4186 0.95652 0.0
O249 O 0.0318 0.37084 0.94739 0.0
O250 O 0.18291 0.54195 0.74685 0.0
O251 O 0.18762 0.50207 0.74068 0.0
C252 C 0.00868 0.41115 0.83299 0.0
C253 C 0.03773 0.42068 0.8434 0.0
C254 C 0.06537 0.43776 0.83059 0.0
C255 C 0.06387 0.4454 0.80739 0.0
C256 C 0.03468 0.43577 0.79698 0.0
C257 C 0.00706 0.41798 0.80964 0.0
C258 C 0.98092 0.39956 0.848 0.0
C259 C 0.97627 0.4204 0.86008 0.0
C260 C 0.95424 0.41083 0.87769 0.0
C261 C 0.93631 0.38021 0.88334 0.0
C262 C 0.93952 0.35905 0.87028 0.0
C263 C 0.96197 0.36874 0.85271 0.0
C264 C 0.03908 0.41456 0.86834 0.0
C265 C 0.04867 0.4377 0.88469 0.0
C266 C 0.04903 0.43176 0.90822 0.0
C267 C 0.03974 0.40254 0.91579 0.0
C268 C 0.03023 0.37943 0.89927 0.0
C269 C 0.02993 0.38543 0.87574 0.0
C270 C 0.09592 0.4503 0.8422 0.0
C271 C 0.11451 0.48147 0.84553 0.0
C272 C 0.1431 0.49362 0.85661 0.0
C273 C 0.15314 0.47471 0.8651 0.0
C274 C 0.13431 0.44347 0.86232 0.0
C275 C 0.10591 0.43132 0.85072 0.0
C276 C 0.09297 0.46386 0.79393 0.0
C277 C 0.10379 0.49428 0.78944 0.0
C278 C 0.12993 0.51106 0.77548 0.0
C279 C 0.14582 0.49775 0.76584 0.0
C280 C 0.13523 0.4674 0.77077 0.0
C281 C 0.10904 0.45062 0.78474 0.0
C282 C 0.03406 0.44771 0.77385 0.0
C283 C 0.03237 0.47387 0.77272 0.0
C284 C 0.04338 0.49231 0.75326 0.0
C285 C 0.05649 0.48498 0.73471 0.0
C286 C 0.05494 0.45708 0.73481 0.0
C287 C 0.04371 0.4385 0.75429 0.0
C288 C 0.97628 0.40537 0.79853 0.0
C289 C 0.96243 0.42279 0.79568 0.0
C290 C 0.93229 0.40974 0.78684 0.0
C291 C 0.91543 0.37896 0.78137 0.0
C292 C 0.92937 0.36163 0.7842 0.0
C293 C 0.95967 0.3748 0.79256 0.0
C294 C 0.03991 0.39625 0.94082 0.0
C295 C 0.17322 0.51535 0.75059 0.0
H296 H 0.3979 0.97285 0.84449 0.0
H297 H 0.4211 0.85455 0.08457 0.0
H298 H 0.43904 0.05279 0.9505 0.0
H299 H 0.46277 0.09087 0.92041 0.0
H300 H 0.5539 0.11163 0.94329 0.0
H301 H 0.52965 0.07068 0.97079 0.0
H302 H 0.3955 0.98017 0.94547 0.0
H303 H 0.38709 0.97346 0.90363 0.0
H304 H 0.48562 0.01033 0.89323 0.0
H305 H 0.49363 0.01655 0.93508 0.0
H306 H 0.37905 0.92864 0.98485 0.0
H307 H 0.36178 0.87693 0.97188 0.0
H308 H 0.45387 0.90737 0.94539 0.0
H309 H 0.47087 0.95849 0.95816 0.0
H310 H 0.39908 0.96067 0.03962 0.0
H311 H 0.385 0.92073 0.06804 0.0
H312 H 0.45185 0.90173 0.0372 0.0
H313 H 0.46602 0.94198 0.00913 0.0
H314 H 0.44431 0.02517 0.05602 0.0
H315 H 0.45507 0.01694 0.09584 0.0
H316 H 0.5167 0.98822 0.06938 0.0
H317 H 0.50738 0.99846 0.03036 0.0
H318 H 0.46369 0.08143 0.00962 0.0
H319 H 0.50123 0.13292 0.02266 0.0
H320 H 0.5711 0.10838 0.02983 0.0
H321 H 0.53387 0.05744 0.01678 0.0
O322 O 0.40172 0.97563 0.86095 0.0
O323 O 0.45259 0.99497 0.85654 0.0
O324 O 0.39048 0.87954 0.08769 0.0
O325 O 0.4253 0.86959 0.07296 0.0
C326 C 0.46794 0.03225 0.97849 0.0
C327 C 0.45011 0.00308 0.96871 0.0
C328 C 0.43863 0.97738 0.98293 0.0
C329 C 0.44445 0.98075 0.00693 0.0
C330 C 0.46334 0.00974 0.01651 0.0
C331 C 0.47468 0.0355 0.00248 0.0
C332 C 0.48253 0.05898 0.96303 0.0
C333 C 0.46414 0.06571 0.949 0.0
C334 C 0.47789 0.08784 0.93193 0.0
C335 C 0.51046 0.10444 0.92907 0.0
C336 C 0.52878 0.09889 0.94433 0.0
C337 C 0.51495 0.07592 0.96063 0.0
C338 C 0.44519 0.99915 0.94327 0.0
C339 C 0.41521 0.98677 0.93411 0.0
C340 C 0.4105 0.983 0.91021 0.0
C341 C 0.43571 0.99147 0.89507 0.0
C342 C 0.46572 0.00368 0.90438 0.0
C343 C 0.47037 0.00736 0.92827 0.0
C344 C 0.42614 0.94726 0.9723 0.0
C345 C 0.39519 0.92415 0.97577 0.0
C346 C 0.3854 0.8948 0.96841 0.0
C347 C 0.40665 0.88843 0.95785 0.0
C348 C 0.43718 0.91186 0.9536 0.0
C349 C 0.44681 0.94102 0.96072 0.0
C350 C 0.43323 0.95394 0.02211 0.0
C351 C 0.41028 0.94751 0.03881 0.0
C352 C 0.4024 0.92479 0.05509 0.0
C353 C 0.41737 0.90808 0.05494 0.0
C354 C 0.43986 0.91414 0.03781 0.0
C355 C 0.44777 0.93692 0.02158 0.0
C356 C 0.47488 0.01212 0.04043 0.0
C357 C 0.46103 0.01824 0.05907 0.0
C358 C 0.46692 0.01311 0.08174 0.0
C359 C 0.48636 0.00137 0.08594 0.0
C360 C 0.50197 0.99764 0.06711 0.0
C361 C 0.49652 0.00328 0.04465 0.0
C362 C 0.49601 0.06568 0.01244 0.0
C363 C 0.48699 0.08716 0.01435 0.0
C364 C 0.50834 0.11642 0.02178 0.0
C365 C 0.53902 0.12454 0.02705 0.0
C366 C 0.54765 0.10273 0.02566 0.0
C367 C 0.52633 0.07357 0.01849 0.0
C368 C 0.43065 0.98751 0.8697 0.0
C369 C 0.41009 0.88486 0.07284 0.0
H370 H 0.69081 0.65841 0.98522 0.0
H371 H 0.73226 0.55931 0.23198 0.0
H372 H 0.60706 0.63492 0.09993 0.0
H373 H 0.58348 0.65101 0.0708 0.0
H374 H 0.64959 0.7439 0.0868 0.0
H375 H 0.67376 0.72756 0.11611 0.0
H376 H 0.64496 0.61781 0.0792 0.0
H377 H 0.65733 0.62637 0.03792 0.0
H378 H 0.73309 0.71617 0.05323 0.0
H379 H 0.72059 0.70715 0.09452 0.0
H380 H 0.64831 0.58351 0.11092 0.0
H381 H 0.66624 0.55207 0.09331 0.0
H382 H 0.76149 0.62369 0.10256 0.0
H383 H 0.74318 0.65524 0.1201 0.0
H384 H 0.63711 0.57648 0.16183 0.0
H385 H 0.64698 0.54434 0.18694 0.0
H386 H 0.74094 0.61803 0.19786 0.0
H387 H 0.73069 0.6499 0.17265 0.0
H388 H 0.60245 0.60842 0.17632 0.0
H389 H 0.58877 0.57969 0.21237 0.0
H390 H 0.68128 0.63969 0.23834 0.0
H391 H 0.69473 0.6684 0.20228 0.0
H392 H 0.59148 0.65203 0.14318 0.0
H393 H 0.56552 0.67594 0.16173 0.0
H394 H 0.64861 0.73311 0.20098 0.0
H395 H 0.67492 0.70998 0.18171 0.0
O396 O 0.68646 0.65542 0.00164 0.0
O397 O 0.7251 0.70139 0.01043 0.0
O398 O 0.68033 0.53346 0.21386 0.0
O399 O 0.72807 0.57126 0.22143 0.0
C400 C 0.65778 0.66915 0.12526 0.0
C401 C 0.6744 0.65686 0.11486 0.0
C402 C 0.68292 0.63949 0.1281 0.0
C403 C 0.67619 0.63555 0.15193 0.0
C404 C 0.66074 0.64892 0.16259 0.0
C405 C 0.65158 0.66586 0.1493 0.0
C406 C 0.64211 0.6801 0.10999 0.0
C407 C 0.6163 0.65876 0.09737 0.0
C408 C 0.60292 0.6679 0.0808 0.0
C409 C 0.61498 0.69856 0.07668 0.0
C410 C 0.64008 0.72013 0.08987 0.0
C411 C 0.65374 0.71088 0.10651 0.0
C412 C 0.68219 0.66171 0.08983 0.0
C413 C 0.66445 0.63916 0.07362 0.0
C414 C 0.67146 0.64419 0.05004 0.0
C415 C 0.69626 0.67193 0.04227 0.0
C416 C 0.7139 0.69452 0.05863 0.0
C417 C 0.70686 0.68943 0.0822 0.0
C418 C 0.69449 0.62163 0.11652 0.0
C419 C 0.67304 0.59252 0.10884 0.0
C420 C 0.68329 0.57469 0.09874 0.0
C421 C 0.71523 0.58555 0.09646 0.0
C422 C 0.73674 0.61482 0.10416 0.0
C423 C 0.7264 0.63283 0.11407 0.0
C424 C 0.68319 0.61546 0.16551 0.0
C425 C 0.65988 0.58551 0.1695 0.0
C426 C 0.66556 0.56725 0.18389 0.0
C427 C 0.6947 0.57868 0.19454 0.0
C428 C 0.71822 0.60856 0.19002 0.0
C429 C 0.71251 0.62678 0.17556 0.0
C430 C 0.64964 0.64027 0.18669 0.0
C431 C 0.61923 0.61629 0.19027 0.0
C432 C 0.61156 0.59973 0.21072 0.0
C433 C 0.63418 0.60719 0.22786 0.0
C434 C 0.66341 0.63353 0.22541 0.0
C435 C 0.67111 0.65001 0.20488 0.0
C436 C 0.63535 0.67973 0.16069 0.0
C437 C 0.60428 0.67008 0.15545 0.0
C438 C 0.58942 0.68357 0.16615 0.0
C439 C 0.60515 0.70637 0.1827 0.0
C440 C 0.63598 0.71548 0.18835 0.0
C441 C 0.651 0.70238 0.17732 0.0
C442 C 0.70357 0.67725 0.01719 0.0
C443 C 0.70049 0.55967 0.21047 0.0
O444 O 0.6253 0.45502 0.41952 0.0
Cd445 Cd 0.62314 0.43281 0.3894 0.0
Cd446 Cd 0.6844 0.47528 0.38725 0.0
O447 O 0.67455 0.49126 0.41693 0.0
O448 O 0.58291 0.39398 0.39107 0.0
O449 O 0.62854 0.39693 0.39062 0.0
C450 C 0.59858 0.38058 0.39179 0.0
C451 C 0.72844 0.47081 0.38516 0.0
C452 C 0.64842 0.47907 0.42724 0.0
C453 C 0.64402 0.47448 0.34875 0.0
O454 O 0.67131 0.48586 0.35681 0.0
O455 O 0.62111 0.45273 0.35907 0.0
O456 O 0.73049 0.49664 0.38471 0.0
O457 O 0.70115 0.44719 0.38759 0.0
O458 O 0.22871 0.61221 0.61052 0.0
Cd459 Cd 0.25462 0.62213 0.58075 0.0
Cd460 Cd 0.23671 0.66371 0.57674 0.0
O461 O 0.21202 0.64395 0.60679 0.0
O462 O 0.27668 0.59968 0.58491 0.0
O463 O 0.30142 0.64907 0.581 0.0
C464 C 0.30258 0.62499 0.58418 0.0
C465 C 0.26614 0.71596 0.57299 0.0
C466 C 0.21228 0.6228 0.61772 0.0
C467 C 0.21636 0.61656 0.53945 0.0
O468 O 0.21767 0.64041 0.54653 0.0
O469 O 0.22948 0.60508 0.55066 0.0
O470 O 0.23621 0.70152 0.57222 0.0
O471 O 0.27958 0.70075 0.57679 0.0
O472 O 0.61411 0.2114 0.76988 0.0
Cd473 Cd 0.63609 0.23049 0.73919 0.0
Cd474 Cd 0.59999 0.25433 0.7397 0.0
O475 O 0.59112 0.23798 0.77317 0.0
O476 O 0.67764 0.23436 0.73885 0.0
O477 O 0.67074 0.2734 0.73982 0.0
C478 C 0.68942 0.26313 0.73979 0.0
C479 C 0.60759 0.30199 0.733 0.0
C480 C 0.59776 0.21924 0.78134 0.0
C481 C 0.58871 0.20847 0.70257 0.0
O482 O 0.57934 0.2242 0.7127 0.0
O483 O 0.61291 0.20895 0.70959 0.0
O484 O 0.58042 0.27919 0.7373 0.0
O485 O 0.63096 0.29797 0.73309 0.0
O486 O 0.475 0.69224 0.93468 0.0
Cd487 Cd 0.44472 0.68552 0.90809 0.0
Cd488 Cd 0.4221 0.62779 0.91887 0.0
O489 O 0.45203 0.64517 0.94649 0.0
O490 O 0.4497 0.72555 0.90256 0.0
O491 O 0.40617 0.68666 0.91587 0.0
C492 C 0.42165 0.71465 0.90997 0.0
C493 C 0.36913 0.5956 0.92331 0.0
C494 C 0.47292 0.67269 0.94896 0.0
C495 C 0.44895 0.64688 0.87146 0.0
O496 O 0.43913 0.62639 0.88672 0.0
O497 O 0.45165 0.67208 0.87618 0.0
O498 O 0.38815 0.58593 0.92543 0.0
O499 O 0.38055 0.62404 0.91994 0.0
O500 O 0.80527 0.35188 0.03918 0.0
Cd501 Cd 0.78137 0.35271 0.06808 0.0
Cd502 Cd 0.80428 0.41007 0.0561 0.0
O503 O 0.81564 0.39605 0.02627 0.0
O504 O 0.75012 0.31019 0.07501 0.0
O505 O 0.73764 0.34332 0.06325 0.0
C506 C 0.72899 0.31605 0.06912 0.0
C507 C 0.78127 0.43908 0.05383 0.0
C508 C 0.81584 0.37182 0.02345 0.0
C509 C 0.82536 0.39878 0.10135 0.0
O510 O 0.83025 0.4178 0.08562 0.0
O511 O 0.80512 0.37119 0.0984 0.0
O512 O 0.81011 0.45 0.04856 0.0
O513 O 0.76498 0.41102 0.05952 0.0
O514 O 0.48766 0.87525 0.23378 0.0
Cd515 Cd 0.48339 0.84477 0.25827 0.0
Cd516 Cd 0.42408 0.81467 0.24538 0.0
O517 O 0.44254 0.84387 0.21761 0.0
O518 O 0.52187 0.84265 0.25882 0.0
O519 O 0.47586 0.80501 0.24752 0.0
C520 C 0.50526 0.81573 0.25055 0.0
C521 C 0.38196 0.7662 0.2388 0.0
C522 C 0.46818 0.86879 0.21761 0.0
C523 C 0.44079 0.84353 0.29325 0.0
O524 O 0.42086 0.83153 0.27715 0.0
O525 O 0.46842 0.84926 0.29023 0.0
O526 O 0.3796 0.78964 0.23658 0.0
O527 O 0.40889 0.7702 0.24386 0.0
C528 C 0.22305 0.64277 0.28188 0.0
C529 C 0.20468 0.61656 0.26899 0.0
C530 C 0.25343 0.66377 0.275 0.0
C531 C 0.26577 0.65849 0.25464 0.0
C532 C 0.2478 0.63146 0.24204 0.0
C533 C 0.21738 0.6107 0.24942 0.0
C534 C 0.2719 0.69216 0.2891 0.0
C535 C 0.26019 0.62508 0.22028 0.0
C536 C 0.32639 0.73235 0.22856 0.0
C537 C 0.35374 0.73596 0.23814 0.0
C538 C 0.29773 0.70593 0.23214 0.0
C539 C 0.29639 0.68268 0.24582 0.0
C540 C 0.32426 0.68514 0.25385 0.0
C541 C 0.35274 0.71181 0.24983 0.0
C542 C 0.26862 0.70406 0.22296 0.0
C543 C 0.3238 0.66075 0.26837 0.0
H544 H 0.21345 0.64702 0.29729 0.0
H545 H 0.20316 0.59042 0.23943 0.0
H546 H 0.29482 0.69529 0.29375 0.0
H547 H 0.27629 0.71192 0.27866 0.0
H548 H 0.25967 0.69188 0.30526 0.0
H549 H 0.24497 0.6016 0.21414 0.0
H550 H 0.26197 0.64061 0.20638 0.0
H551 H 0.28389 0.62911 0.2232 0.0
H552 H 0.32712 0.75084 0.21924 0.0
H553 H 0.37385 0.71448 0.25723 0.0
H554 H 0.25557 0.70652 0.23752 0.0
H555 H 0.2532 0.68185 0.21481 0.0
H556 H 0.27392 0.72194 0.21006 0.0
H557 H 0.31567 0.66159 0.2861 0.0
H558 H 0.34723 0.66349 0.26967 0.0
H559 H 0.30742 0.63819 0.26112 0.0
C560 C 0.50365 0.2169 0.44372 0.0
C561 C 0.49875 0.19351 0.42875 0.0
C562 C 0.52056 0.24698 0.4365 0.0
C563 C 0.53258 0.25384 0.41366 0.0
C564 C 0.52749 0.23029 0.3984 0.0
C565 C 0.51078 0.20038 0.40619 0.0
C566 C 0.52574 0.27146 0.45337 0.0
C567 C 0.53954 0.2367 0.37384 0.0
C568 C 0.55026 0.32992 0.39158 0.0
C569 C 0.58245 0.34762 0.39509 0.0
C570 C 0.53394 0.29908 0.39667 0.0
C571 C 0.55012 0.28569 0.40581 0.0
C572 C 0.58277 0.30324 0.40875 0.0
C573 C 0.5986 0.33399 0.40318 0.0
C574 C 0.49922 0.28105 0.39294 0.0
C575 C 0.60078 0.28981 0.41867 0.0
H576 H 0.49477 0.21167 0.46128 0.0
H577 H 0.50683 0.1823 0.39455 0.0
H578 H 0.55101 0.28746 0.45558 0.0
H579 H 0.51546 0.2844 0.44649 0.0
H580 H 0.51532 0.26238 0.47063 0.0
H581 H 0.53348 0.21585 0.36413 0.0
H582 H 0.52978 0.2487 0.36454 0.0
H583 H 0.56518 0.25165 0.37382 0.0
H584 H 0.53768 0.34029 0.38516 0.0
H585 H 0.62346 0.34759 0.406 0.0
H586 H 0.48716 0.27356 0.40988 0.0
H587 H 0.49278 0.26056 0.38264 0.0
H588 H 0.49056 0.29421 0.38391 0.0
H589 H 0.59315 0.28252 0.43676 0.0
H590 H 0.62624 0.30601 0.41863 0.0
H591 H 0.596 0.26957 0.40868 0.0
C592 C 0.45357 0.61062 0.58542 0.0
C593 C 0.46725 0.61694 0.60741 0.0
C594 C 0.42924 0.61567 0.58044 0.0
C595 C 0.418 0.62684 0.59799 0.0
C596 C 0.43274 0.6346 0.61989 0.0
C597 C 0.45734 0.62973 0.62428 0.0
C598 C 0.41449 0.60754 0.55677 0.0
C599 C 0.42123 0.64619 0.63916 0.0
C600 C 0.36097 0.65214 0.58279 0.0
C601 C 0.33238 0.62599 0.58748 0.0
C602 C 0.38915 0.65283 0.58598 0.0
C603 C 0.38865 0.62691 0.59436 0.0
C604 C 0.35984 0.60059 0.5993 0.0
C605 C 0.33213 0.6004 0.59565 0.0
C606 C 0.41941 0.68116 0.58027 0.0
C607 C 0.35824 0.57256 0.60853 0.0
H608 H 0.4614 0.60097 0.5723 0.0
H609 H 0.46769 0.63437 0.64136 0.0
H610 H 0.39094 0.58724 0.55808 0.0
H611 H 0.41176 0.626 0.54984 0.0
H612 H 0.42835 0.60282 0.54426 0.0
H613 H 0.43717 0.65416 0.65426 0.0
H614 H 0.41849 0.66492 0.63293 0.0
H615 H 0.39803 0.62794 0.64504 0.0
H616 H 0.36131 0.67197 0.57643 0.0
H617 H 0.31017 0.58015 0.59947 0.0
H618 H 0.43221 0.67627 0.56692 0.0
H619 H 0.43438 0.68943 0.59585 0.0
H620 H 0.41585 0.69933 0.57379 0.0
H621 H 0.3689 0.56427 0.59593 0.0
H622 H 0.33399 0.55419 0.61198 0.0
H623 H 0.37167 0.5778 0.62484 0.0
C624 C 0.85956 0.34086 0.78709 0.0
C625 C 0.88271 0.36442 0.77395 0.0
C626 C 0.82835 0.32636 0.78031 0.0
C627 C 0.82027 0.33521 0.75958 0.0
C628 C 0.84365 0.35906 0.74623 0.0
C629 C 0.87467 0.37368 0.75376 0.0
C630 C 0.80405 0.30145 0.79528 0.0
C631 C 0.836 0.36863 0.72379 0.0
C632 C 0.74371 0.27422 0.73464 0.0
C633 C 0.7233 0.28344 0.74221 0.0
C634 C 0.7757 0.29182 0.739 0.0
C635 C 0.78736 0.31885 0.75179 0.0
C636 C 0.76698 0.32876 0.75881 0.0
C637 C 0.73518 0.31108 0.75366 0.0
C638 C 0.79681 0.28089 0.73069 0.0
C639 C 0.77842 0.35712 0.77289 0.0
H640 H 0.86592 0.33397 0.80281 0.0
H641 H 0.89276 0.39186 0.74361 0.0
H642 H 0.78557 0.30632 0.79992 0.0
H643 H 0.79285 0.27992 0.78555 0.0
H644 H 0.814 0.29843 0.81147 0.0
H645 H 0.85681 0.38784 0.71562 0.0
H646 H 0.82575 0.34947 0.71146 0.0
H647 H 0.81839 0.37516 0.72681 0.0
H648 H 0.73459 0.25297 0.72559 0.0
H649 H 0.71939 0.31817 0.75964 0.0
H650 H 0.8054 0.27403 0.74574 0.0
H651 H 0.8174 0.29925 0.72169 0.0
H652 H 0.78476 0.26139 0.71874 0.0
H653 H 0.7862 0.35416 0.79011 0.0
H654 H 0.76012 0.3629 0.77548 0.0
H655 H 0.79874 0.37633 0.76435 0.0
C656 C 0.3761 0.84014 0.93598 0.0
C657 C 0.39844 0.85733 0.95269 0.0
C658 C 0.37248 0.81274 0.92824 0.0
C659 C 0.39163 0.80264 0.93757 0.0
C660 C 0.41249 0.81898 0.95574 0.0
C661 C 0.4157 0.8462 0.96299 0.0
C662 C 0.3498 0.7958 0.90903 0.0
C663 C 0.43313 0.8089 0.96638 0.0
C664 C 0.38433 0.72682 0.92878 0.0
C665 C 0.40901 0.73461 0.91337 0.0
C666 C 0.37641 0.74814 0.93553 0.0
C667 C 0.39352 0.7777 0.92652 0.0
C668 C 0.4165 0.78472 0.90936 0.0
C669 C 0.42403 0.76311 0.90306 0.0
C670 C 0.35155 0.73972 0.95367 0.0
C671 C 0.43502 0.81585 0.89905 0.0
H672 H 0.36279 0.8489 0.92808 0.0
H673 H 0.43273 0.85952 0.97612 0.0
H674 H 0.36271 0.79987 0.8925 0.0
H675 H 0.33714 0.77122 0.91232 0.0
H676 H 0.33265 0.80312 0.90689 0.0
H677 H 0.44569 0.82247 0.98184 0.0
H678 H 0.41923 0.78491 0.97152 0.0
H679 H 0.45057 0.81103 0.95343 0.0
H680 H 0.37251 0.70472 0.93669 0.0
H681 H 0.44277 0.76906 0.89083 0.0
H682 H 0.33695 0.74949 0.94955 0.0
H683 H 0.36268 0.74893 0.97066 0.0
H684 H 0.33634 0.71494 0.95535 0.0
H685 H 0.4194 0.82392 0.89352 0.0
H686 H 0.44913 0.81655 0.88392 0.0
H687 H 0.45097 0.83176 0.91234 0.0
C688 C 0.71237 0.54878 0.06696 0.0
C689 C 0.72576 0.56563 0.08712 0.0
C690 C 0.72037 0.52802 0.05897 0.0
C691 C 0.74198 0.52386 0.07161 0.0
C692 C 0.75602 0.54127 0.09171 0.0
C693 C 0.74784 0.56208 0.09916 0.0
C694 C 0.70532 0.5102 0.03726 0.0
C695 C 0.77905 0.53733 0.10573 0.0
C696 C 0.74149 0.45052 0.06839 0.0
C697 C 0.76839 0.45906 0.05535 0.0
C698 C 0.73191 0.47113 0.07311 0.0
C699 C 0.74944 0.50077 0.06429 0.0
C700 C 0.77551 0.50892 0.04993 0.0
C701 C 0.78481 0.488 0.04576 0.0
C702 C 0.70406 0.46168 0.0886 0.0
C703 C 0.79445 0.54014 0.03988 0.0
H704 H 0.69547 0.55173 0.05753 0.0
H705 H 0.75792 0.57485 0.1149 0.0
H706 H 0.72339 0.51283 0.02473 0.0
H707 H 0.69098 0.48593 0.0415 0.0
H708 H 0.69026 0.51729 0.02877 0.0
H709 H 0.78824 0.553 0.12071 0.0
H710 H 0.76779 0.51392 0.11231 0.0
H711 H 0.79887 0.54113 0.09466 0.0
H712 H 0.72878 0.4282 0.07589 0.0
H713 H 0.8055 0.49464 0.03552 0.0
H714 H 0.68751 0.467 0.08034 0.0
H715 H 0.7117 0.47447 0.10509 0.0
H716 H 0.69162 0.43727 0.09264 0.0
H717 H 0.77906 0.54678 0.03139 0.0
H718 H 0.81184 0.54184 0.02704 0.0
H719 H 0.80692 0.55655 0.05398 0.0
C720 C 0.35148 0.89474 0.55495 0.0
C721 C 0.36711 0.90239 0.53366 0.0
C722 C 0.3369 0.86509 0.56325 0.0
C723 C 0.33723 0.8425 0.54956 0.0
C724 C 0.35337 0.85031 0.52814 0.0
C725 C 0.36846 0.88029 0.52059 0.0
C726 C 0.32056 0.8578 0.58639 0.0
C727 C 0.35361 0.82682 0.51275 0.0
C728 C 0.31558 0.76621 0.5746 0.0
C729 C 0.28423 0.74867 0.56828 0.0
C730 C 0.33297 0.79705 0.56924 0.0
C731 C 0.31884 0.81038 0.55676 0.0
C732 C 0.28716 0.79274 0.55044 0.0
C733 C 0.27018 0.76223 0.55652 0.0
C734 C 0.36648 0.81532 0.57676 0.0
C735 C 0.27136 0.80589 0.53671 0.0
H736 H 0.35062 0.91199 0.56504 0.0
H737 H 0.38037 0.8863 0.50401 0.0
H738 H 0.29513 0.84316 0.58386 0.0
H739 H 0.32821 0.8452 0.5973 0.0
H740 H 0.32504 0.87834 0.59588 0.0
H741 H 0.3681 0.83676 0.49699 0.0
H742 H 0.36255 0.81434 0.52237 0.0
H743 H 0.32952 0.81022 0.50731 0.0
H744 H 0.3265 0.75584 0.58378 0.0
H745 H 0.24601 0.74876 0.55142 0.0
H746 H 0.37039 0.83529 0.58677 0.0
H747 H 0.38188 0.82371 0.56134 0.0
H748 H 0.37346 0.80207 0.58756 0.0
H749 H 0.27252 0.82505 0.54624 0.0
H750 H 0.24659 0.7891 0.53312 0.0
H751 H 0.28363 0.81472 0.51997 0.0
C752 C 0.62245 0.45105 0.68082 0.0
C753 C 0.61221 0.46428 0.69699 0.0
C754 C 0.62594 0.4268 0.68708 0.0
C755 C 0.61954 0.41604 0.71014 0.0
C756 C 0.61137 0.43084 0.72689 0.0
C757 C 0.60739 0.45458 0.72003 0.0
C758 C 0.63415 0.41132 0.66862 0.0
C759 C 0.60499 0.42044 0.75175 0.0
C760 C 0.58535 0.33266 0.71996 0.0
C761 C 0.61124 0.33141 0.72734 0.0
C762 C 0.58797 0.36004 0.71402 0.0
C763 C 0.61712 0.387 0.71598 0.0
C764 C 0.64338 0.38599 0.72361 0.0
C765 C 0.6402 0.35808 0.72897 0.0
C766 C 0.5595 0.36006 0.70554 0.0
C767 C 0.67465 0.41436 0.72632 0.0
H768 H 0.62592 0.4585 0.66296 0.0
H769 H 0.59962 0.46503 0.73251 0.0
H770 H 0.65277 0.40748 0.67472 0.0
H771 H 0.61347 0.38897 0.6648 0.0
H772 H 0.64191 0.42448 0.6523 0.0
H773 H 0.60344 0.43691 0.76319 0.0
H774 H 0.58267 0.39869 0.75283 0.0
H775 H 0.62347 0.41668 0.75835 0.0
H776 H 0.56297 0.31207 0.71845 0.0
H777 H 0.66025 0.35717 0.73475 0.0
H778 H 0.56413 0.37086 0.68827 0.0
H779 H 0.55382 0.37337 0.7175 0.0
H780 H 0.53885 0.337 0.70422 0.0
H781 H 0.68232 0.42641 0.70955 0.0
H782 H 0.69275 0.40974 0.7325 0.0
H783 H 0.6728 0.4297 0.73881 0.0
C784 C 0.21045 0.507 0.86358 0.0
C785 C 0.18368 0.48806 0.87634 0.0
C786 C 0.23964 0.52192 0.87419 0.0
C787 C 0.24189 0.51824 0.89825 0.0
C788 C 0.21487 0.49865 0.91116 0.0
C789 C 0.18596 0.48351 0.89994 0.0
C790 C 0.26798 0.54213 0.8597 0.0
C791 C 0.21636 0.49456 0.93688 0.0
C792 C 0.32396 0.54387 0.91704 0.0
C793 C 0.3353 0.57432 0.92189 0.0
C794 C 0.29282 0.5246 0.91077 0.0
C795 C 0.27257 0.53601 0.90973 0.0
C796 C 0.28325 0.56601 0.91664 0.0
C797 C 0.31462 0.58493 0.92244 0.0
C798 C 0.2824 0.49282 0.90336 0.0
C799 C 0.26213 0.57879 0.91628 0.0
H800 H 0.20843 0.51032 0.84528 0.0
H801 H 0.16501 0.46895 0.90972 0.0
H802 H 0.27835 0.56578 0.86559 0.0
H803 H 0.28585 0.53577 0.86188 0.0
H804 H 0.26241 0.54103 0.841 0.0
H805 H 0.19364 0.47692 0.94405 0.0
H806 H 0.23409 0.48848 0.94078 0.0
H807 H 0.22352 0.51609 0.9459 0.0
H808 H 0.33983 0.53551 0.91661 0.0
H809 H 0.32322 0.60838 0.92644 0.0
H810 H 0.2798 0.49106 0.88425 0.0
H811 H 0.25944 0.47665 0.911 0.0
H812 H 0.29934 0.48609 0.90839 0.0
H813 H 0.25754 0.58211 0.89809 0.0
H814 H 0.27253 0.60077 0.9254 0.0
H815 H 0.23942 0.56293 0.92445 0.0
C816 C 0.59131 0.16995 0.02156 0.0
C817 C 0.56267 0.15586 0.03311 0.0
C818 C 0.61539 0.19837 0.0284 0.0
C819 C 0.61077 0.21301 0.04739 0.0
C820 C 0.58136 0.19954 0.05843 0.0
C821 C 0.5575 0.17105 0.05108 0.0
C822 C 0.64627 0.21208 0.01594 0.0
C823 C 0.57559 0.21448 0.07871 0.0
C824 C 0.68691 0.26358 0.07753 0.0
C825 C 0.69628 0.29142 0.06723 0.0
C826 C 0.65787 0.23827 0.07262 0.0
C827 C 0.63784 0.24082 0.05683 0.0
C828 C 0.64617 0.26935 0.04772 0.0
C829 C 0.67534 0.29443 0.05312 0.0
C830 C 0.6497 0.20833 0.08297 0.0
C831 C 0.62538 0.27298 0.0309 0.0
H832 H 0.59507 0.15837 0.0074 0.0
H833 H 0.5353 0.1601 0.05999 0.0
H834 H 0.65399 0.23542 0.01052 0.0
H835 H 0.66416 0.21319 0.02783 0.0
H836 H 0.64523 0.19893 0.00039 0.0
H837 H 0.55052 0.20323 0.08327 0.0
H838 H 0.58847 0.21373 0.09401 0.0
H839 H 0.5843 0.23851 0.07492 0.0
H840 H 0.70285 0.26123 0.08871 0.0
H841 H 0.68245 0.31595 0.04516 0.0
H842 H 0.65076 0.19377 0.06931 0.0
H843 H 0.62565 0.19661 0.08993 0.0
H844 H 0.66583 0.21082 0.09709 0.0
H845 H 0.62647 0.26371 0.01381 0.0
H846 H 0.63252 0.29697 0.02857 0.0
H847 H 0.60083 0.26028 0.03681 0.0
C848 C 0.57555 0.73297 0.1802 0.0
C849 C 0.58962 0.72097 0.19382 0.0
C850 C 0.56167 0.74783 0.1904 0.0
C851 C 0.56134 0.75019 0.21483 0.0
C852 C 0.57503 0.73759 0.22867 0.0
C853 C 0.58931 0.72338 0.21797 0.0
C854 C 0.54785 0.76147 0.17503 0.0
C855 C 0.57463 0.73917 0.25476 0.0
C856 C 0.55198 0.8132 0.2393 0.0
C857 C 0.51987 0.79839 0.24338 0.0
C858 C 0.56586 0.79768 0.23032 0.0
C859 C 0.54726 0.76647 0.22577 0.0
C860 C 0.51502 0.75115 0.23071 0.0
C861 C 0.50163 0.76737 0.23923 0.0
C862 C 0.60024 0.8149 0.22493 0.0
C863 C 0.49455 0.71776 0.22654 0.0
H864 H 0.57607 0.73133 0.1615 0.0
H865 H 0.60001 0.71386 0.22848 0.0
H866 H 0.52286 0.75171 0.17917 0.0
H867 H 0.55957 0.78605 0.17824 0.0
H868 H 0.55011 0.75773 0.15635 0.0
H869 H 0.58518 0.72719 0.26303 0.0
H870 H 0.58756 0.76299 0.26049 0.0
H871 H 0.55037 0.72919 0.26107 0.0
H872 H 0.56617 0.83721 0.24233 0.0
H873 H 0.47681 0.7558 0.24247 0.0
H874 H 0.60386 0.81377 0.20607 0.0
H875 H 0.61198 0.8046 0.23394 0.0
H876 H 0.61159 0.83893 0.23011 0.0
H877 H 0.49368 0.71295 0.20775 0.0
H878 H 0.47043 0.70885 0.2329 0.0
H879 H 0.5044 0.70546 0.23527 0.0
C880 C 0.87288 0.45867 0.34193 0.0
C881 C 0.89704 0.47095 0.35813 0.0
C882 C 0.8438 0.45509 0.34726 0.0
C883 C 0.83871 0.46357 0.36944 0.0
C884 C 0.86243 0.47408 0.38634 0.0
C885 C 0.89145 0.47796 0.3804 0.0
C886 C 0.81933 0.44425 0.32862 0.0
C887 C 0.85777 0.48281 0.41032 0.0
C888 C 0.784 0.49364 0.37361 0.0
C889 C 0.75658 0.46867 0.38192 0.0
C890 C 0.8107 0.49211 0.36941 0.0
C891 C 0.81025 0.46506 0.37399 0.0
C892 C 0.78281 0.43984 0.38273 0.0
C893 C 0.75615 0.44185 0.3864 0.0
C894 C 0.83933 0.51942 0.35979 0.0
C895 C 0.78165 0.41082 0.38819 0.0
H896 H 0.87731 0.45351 0.32464 0.0
H897 H 0.91012 0.4873 0.39296 0.0
H898 H 0.7966 0.42618 0.33535 0.0
H899 H 0.81631 0.46309 0.32312 0.0
H900 H 0.82565 0.43563 0.31319 0.0
H901 H 0.87671 0.48654 0.4223 0.0
H902 H 0.85713 0.50388 0.40938 0.0
H903 H 0.83524 0.46515 0.41766 0.0
H904 H 0.78449 0.51439 0.36994 0.0
H905 H 0.73505 0.4225 0.39287 0.0
H906 H 0.84621 0.51363 0.34317 0.0
H907 H 0.85904 0.52691 0.37194 0.0
H908 H 0.83565 0.53853 0.35675 0.0
H909 H 0.78627 0.40166 0.3723 0.0
H910 H 0.75881 0.39354 0.39543 0.0
H911 H 0.80009 0.41508 0.40083 0.0
C912 C 0.07935 0.54068 0.44908 0.0
C913 C 0.08723 0.532 0.42842 0.0
C914 C 0.1003 0.55188 0.46765 0.0
C915 C 0.13002 0.55514 0.46515 0.0
C916 C 0.13766 0.54555 0.44453 0.0
C917 C 0.11606 0.5339 0.42646 0.0
C918 C 0.09108 0.56126 0.4896 0.0
C919 C 0.16928 0.54917 0.44102 0.0
C920 C 0.19358 0.61715 0.50139 0.0
C921 C 0.19691 0.60077 0.51921 0.0
C922 C 0.17264 0.60246 0.48324 0.0
C923 C 0.15388 0.57068 0.48338 0.0
C924 C 0.1575 0.55399 0.50116 0.0
C925 C 0.17935 0.56926 0.51872 0.0
C926 C 0.17012 0.62099 0.46419 0.0
C927 C 0.13748 0.52013 0.5021 0.0
H928 H 0.05705 0.53924 0.45051 0.0
H929 H 0.12237 0.52769 0.41028 0.0
H930 H 0.09576 0.55129 0.50489 0.0
H931 H 0.1052 0.58606 0.4915 0.0
H932 H 0.06611 0.55435 0.48968 0.0
H933 H 0.17029 0.53759 0.42512 0.0
H934 H 0.18704 0.57345 0.43962 0.0
H935 H 0.17562 0.54019 0.45606 0.0
H936 H 0.20724 0.64153 0.50176 0.0
H937 H 0.18164 0.5566 0.53268 0.0
H938 H 0.1469 0.61873 0.46481 0.0
H939 H 0.17243 0.61264 0.44702 0.0
H940 H 0.18813 0.64522 0.46563 0.0
H941 H 0.11273 0.51348 0.50414 0.0
H942 H 0.14391 0.51043 0.51664 0.0
H943 H 0.13942 0.51009 0.48566 0.0
C944 C 0.51066 0.11655 0.58716 0.0
C945 C 0.48244 0.08985 0.59138 0.0
C946 C 0.52753 0.13614 0.60524 0.0
C947 C 0.51599 0.1287 0.62813 0.0
C948 C 0.48735 0.10184 0.6325 0.0
C949 C 0.47071 0.08278 0.61396 0.0
C950 C 0.55765 0.16483 0.59981 0.0
C951 C 0.47449 0.09315 0.65674 0.0
C952 C 0.57537 0.16532 0.67605 0.0
C953 C 0.57049 0.18848 0.68322 0.0
C954 C 0.55738 0.14536 0.6584 0.0
C955 C 0.53427 0.14892 0.64746 0.0
C956 C 0.52939 0.17239 0.65445 0.0
C957 C 0.54743 0.19178 0.67237 0.0
C958 C 0.56311 0.12048 0.65145 0.0
C959 C 0.50527 0.17713 0.64288 0.0
H960 H 0.51933 0.12231 0.56956 0.0
H961 H 0.44877 0.06219 0.61711 0.0
H962 H 0.55618 0.18454 0.60549 0.0
H963 H 0.57705 0.16544 0.60945 0.0
H964 H 0.56334 0.1672 0.58104 0.0
H965 H 0.45186 0.0716 0.65718 0.0
H966 H 0.49124 0.09095 0.66782 0.0
H967 H 0.47131 0.11104 0.66444 0.0
H968 H 0.59297 0.16248 0.68447 0.0
H969 H 0.54359 0.20967 0.67779 0.0
H970 H 0.57044 0.12317 0.63304 0.0
H971 H 0.5413 0.09835 0.65307 0.0
H972 H 0.5813 0.1202 0.66218 0.0
H973 H 0.51044 0.18129 0.62411 0.0
H974 H 0.5043 0.19639 0.65042 0.0
H975 H 0.48197 0.15656 0.64454 0.0
C976 C 0.47558 0.6133 0.74017 0.0
C977 C 0.50422 0.61472 0.73854 0.0
C978 C 0.46536 0.61868 0.76132 0.0
C979 C 0.48433 0.62579 0.78118 0.0
C980 C 0.51338 0.62755 0.77957 0.0
C981 C 0.52287 0.62182 0.75833 0.0
C982 C 0.43413 0.61641 0.76248 0.0
C983 C 0.53428 0.63506 0.80038 0.0
C984 C 0.47288 0.66514 0.83238 0.0
C985 C 0.45717 0.64135 0.84809 0.0
C986 C 0.4814 0.66031 0.81036 0.0
C987 C 0.47376 0.63095 0.80384 0.0
C988 C 0.45735 0.60672 0.81941 0.0
C989 C 0.44938 0.61224 0.84141 0.0
C990 C 0.49917 0.68673 0.79426 0.0
C991 C 0.4486 0.57505 0.81297 0.0
H992 H 0.46115 0.60795 0.72492 0.0
H993 H 0.54468 0.62222 0.75735 0.0
H994 H 0.41887 0.59875 0.77505 0.0
H995 H 0.43696 0.63794 0.76874 0.0
H996 H 0.42231 0.61093 0.74541 0.0
H997 H 0.5566 0.63649 0.79601 0.0
H998 H 0.53943 0.65687 0.80794 0.0
H999 H 0.52232 0.61766 0.81393 0.0
H1000 H 0.479 0.68771 0.83741 0.0
H1001 H 0.43702 0.59369 0.85337 0.0
H1002 H 0.48689 0.68226 0.77748 0.0
H1003 H 0.52244 0.68995 0.79061 0.0
H1004 H 0.50229 0.70794 0.80162 0.0
H1005 H 0.43523 0.56827 0.79658 0.0
H1006 H 0.43447 0.55849 0.82661 0.0
H1007 H 0.46991 0.57402 0.81 0.0
C1008 C 0.8841 0.35229 0.90237 0.0
C1009 C 0.91633 0.3713 0.90407 0.0
C1010 C 0.86486 0.34755 0.92161 0.0
C1011 C 0.87843 0.36203 0.94286 0.0
C1012 C 0.91117 0.37962 0.9449 0.0
C1013 C 0.92971 0.38415 0.92541 0.0
C1014 C 0.83006 0.32863 0.91881 0.0
C1015 C 0.92661 0.39517 0.96729 0.0
C1016 C 0.83756 0.38782 0.98365 0.0
C1017 C 0.82917 0.36735 0.00196 0.0
C1018 C 0.85221 0.38534 0.96379 0.0
C1019 C 0.85879 0.36189 0.96222 0.0
C1020 C 0.84927 0.3404 0.98018 0.0
C1021 C 0.83449 0.34335 -0.00013 0.0
C1022 C 0.86183 0.40863 0.94492 0.0
C1023 C 0.85592 0.31512 0.97907 0.0
H1024 H 0.87391 0.34241 0.88576 0.0
H1025 H 0.95476 0.39859 0.92664 0.0
H1026 H 0.81945 0.31273 0.93348 0.0
H1027 H 0.82009 0.34343 0.91889 0.0
H1028 H 0.82341 0.31564 0.90236 0.0
H1029 H 0.95225 0.4054 0.96662 0.0
H1030 H 0.92147 0.41321 0.971 0.0
H1031 H 0.9173 0.37905 0.98191 0.0
H1032 H 0.83323 0.40623 0.98498 0.0
H1033 H 0.82794 0.32734 0.01389 0.0
H1034 H 0.85342 0.39752 0.92786 0.0
H1035 H 0.88757 0.42239 0.94398 0.0
H1036 H 0.85275 0.42393 0.94793 0.0
H1037 H 0.84869 0.30347 0.96211 0.0
H1038 H 0.84387 0.29835 0.99306 0.0
H1039 H 0.8813 0.32444 0.98073 0.0
C1040 C 0.51402 0.98909 0.11618 0.0
C1041 C 0.48732 0.98918 0.10904 0.0
C1042 C 0.51308 0.97177 0.1351 0.0
C1043 C 0.48514 0.9552 0.14781 0.0
C1044 C 0.459 0.95746 0.14209 0.0
C1045 C 0.46021 0.97398 0.12254 0.0
C1046 C 0.54128 0.96949 0.14039 0.0
C1047 C 0.42909 0.94096 0.15576 0.0
C1048 C 0.46553 0.88189 0.17663 0.0
C1049 C 0.47431 0.89109 0.19953 0.0
C1050 C 0.46993 0.9028 0.15947 0.0
C1051 C 0.48226 0.93336 0.16565 0.0
C1052 C 0.49103 0.94271 0.18882 0.0
C1053 C 0.48748 0.92149 0.20544 0.0
C1054 C 0.46116 0.89215 0.13478 0.0
C1055 C 0.50304 0.97482 0.1962 0.0
H1056 H 0.53537 0.00143 0.10631 0.0
H1057 H 0.43927 0.97348 0.1172 0.0
H1058 H 0.5472 0.97365 0.15902 0.0
H1059 H 0.53604 0.94635 0.13647 0.0
H1060 H 0.56192 0.98561 0.13007 0.0
H1061 H 0.41295 0.94898 0.15155 0.0
H1062 H 0.41724 0.91656 0.15182 0.0
H1063 H 0.43388 0.94373 0.17462 0.0
H1064 H 0.45542 0.85835 0.17214 0.0
H1065 H 0.49383 0.92843 0.22328 0.0
H1066 H 0.481 0.90604 0.12301 0.0
H1067 H 0.44155 0.8948 0.12926 0.0
H1068 H 0.45418 0.86817 0.13259 0.0
H1069 H 0.52362 0.9905 0.18571 0.0
H1070 H 0.50955 0.97858 0.21479 0.0
H1071 H 0.48492 0.98065 0.19313 0.0
C1072 C 0.61995 0.55547 0.23933 0.0
C1073 C 0.62947 0.58505 0.24589 0.0
C1074 C 0.61968 0.53503 0.25527 0.0
C1075 C 0.62869 0.54432 0.2784 0.0
C1076 C 0.63704 0.57379 0.28537 0.0
C1077 C 0.63764 0.59396 0.26892 0.0
C1078 C 0.61113 0.50399 0.24712 0.0
C1079 C 0.64646 0.58436 0.30998 0.0
C1080 C 0.60982 0.48644 0.3255 0.0
C1081 C 0.63882 0.48904 0.32875 0.0
C1082 C 0.60595 0.5039 0.30884 0.0
C1083 C 0.63155 0.524 0.29493 0.0
C1084 C 0.66042 0.52554 0.29733 0.0
C1085 C 0.66377 0.50822 0.31434 0.0
C1086 C 0.5749 0.50186 0.30686 0.0
C1087 C 0.68808 0.54625 0.28243 0.0
H1088 H 0.61414 0.54871 0.22141 0.0
H1089 H 0.64504 0.61686 0.27394 0.0
H1090 H 0.63121 0.50079 0.24936 0.0
H1091 H 0.59175 0.48663 0.25773 0.0
H1092 H 0.60411 0.50014 0.22863 0.0
H1093 H 0.64972 0.607 0.31302 0.0
H1094 H 0.62862 0.56822 0.32223 0.0
H1095 H 0.66857 0.58533 0.31399 0.0
H1096 H 0.59052 0.47183 0.33672 0.0
H1097 H 0.68619 0.51018 0.3167 0.0
H1098 H 0.56681 0.49759 0.28866 0.0
H1099 H 0.57736 0.52362 0.31208 0.0
H1100 H 0.55682 0.48379 0.31793 0.0
H1101 H 0.68164 0.54244 0.26386 0.0
H1102 H 0.70809 0.54301 0.2852 0.0
H1103 H 0.69562 0.57 0.28641 0.0
C1104 C 0.40147 0.90018 0.41124 0.0
C1105 C 0.39809 0.92452 0.40522 0.0
C1106 C 0.40527 0.88303 0.39414 0.0
C1107 C 0.40635 0.89092 0.37058 0.0
C1108 C 0.4015 0.91465 0.36441 0.0
C1109 C 0.39718 0.93104 0.38185 0.0
C1110 C 0.40966 0.85747 0.40134 0.0
C1111 C 0.40282 0.92396 0.33949 0.0
C1112 C 0.4551 0.87641 0.3282 0.0
C1113 C 0.43217 0.85302 0.31476 0.0
C1114 C 0.44697 0.8884 0.34686 0.0
C1115 C 0.4152 0.87626 0.35248 0.0
C1116 C 0.39204 0.85154 0.33979 0.0
C1117 C 0.40079 0.8404 0.3209 0.0
C1118 C 0.47234 0.91502 0.35985 0.0
C1119 C 0.358 0.83755 0.34564 0.0
H1120 H 0.40209 0.89517 0.42937 0.0
H1121 H 0.39498 0.95015 0.37725 0.0
H1122 H 0.39478 0.83713 0.39079 0.0
H1123 H 0.43415 0.86381 0.3983 0.0
H1124 H 0.40411 0.85173 0.41994 0.0
H1125 H 0.39668 0.94162 0.33753 0.0
H1126 H 0.42663 0.93277 0.33255 0.0
H1127 H 0.38675 0.90429 0.32875 0.0
H1128 H 0.47936 0.88633 0.32346 0.0
H1129 H 0.38299 0.82211 0.31067 0.0
H1130 H 0.47039 0.91019 0.37867 0.0
H1131 H 0.46972 0.93485 0.35742 0.0
H1132 H 0.49594 0.92099 0.35393 0.0
H1133 H 0.3541 0.83254 0.36442 0.0
H1134 H 0.34324 0.81646 0.33579 0.0
H1135 H 0.3503 0.85364 0.34161 0.0
C1136 C 0.62366 0.55943 0.53709 0.0
C1137 C 0.59477 0.55731 0.53482 0.0
C1138 C 0.63522 0.54903 0.51959 0.0
C1139 C 0.61783 0.537 0.49907 0.0
C1140 C 0.58953 0.53651 0.4961 0.0
C1141 C 0.57806 0.54627 0.51422 0.0
C1142 C 0.66521 0.54947 0.52356 0.0
C1143 C 0.57072 0.52453 0.47421 0.0
C1144 C 0.6566 0.52556 0.44661 0.0
C1145 C 0.64367 0.49432 0.44699 0.0
C1146 C 0.64854 0.53992 0.46353 0.0
C1147 C 0.62788 0.52264 0.48155 0.0
C1148 C 0.61603 0.49127 0.4826 0.0
C1149 C 0.62361 0.47739 0.46503 0.0
C1150 C 0.66093 0.57324 0.46148 0.0
C1151 C 0.59484 0.47227 0.50204 0.0
H1152 H 0.63643 0.5677 0.55315 0.0
H1153 H 0.55571 0.54464 0.51251 0.0
H1154 H 0.66105 0.5263 0.52224 0.0
H1155 H 0.68242 0.5631 0.51001 0.0
H1156 H 0.67547 0.55885 0.54078 0.0
H1157 H 0.5513 0.52898 0.47353 0.0
H1158 H 0.58579 0.53481 0.45879 0.0
H1159 H 0.56085 0.49988 0.4731 0.0
H1160 H 0.67174 0.53856 0.43242 0.0
H1161 H 0.61367 0.45321 0.46528 0.0
H1162 H 0.67224 0.5849 0.47785 0.0
H1163 H 0.64137 0.57703 0.45839 0.0
H1164 H 0.67797 0.58368 0.44711 0.0
H1165 H 0.6055 0.48219 0.51902 0.0
H1166 H 0.58982 0.44875 0.50138 0.0
H1167 H 0.57251 0.47182 0.50109 0.0
C1168 C 0.0986 0.53713 0.72508 0.0
C1169 C 0.0762 0.50822 0.71747 0.0
C1170 C 0.12035 0.5585 0.70971 0.0
C1171 C 0.11965 0.5508 0.68613 0.0
C1172 C 0.09632 0.52206 0.67814 0.0
C1173 C 0.07495 0.50101 0.69397 0.0
C1174 C 0.14508 0.58871 0.71897 0.0
C1175 C 0.09474 0.51311 0.65306 0.0
C1176 C 0.16493 0.611 0.64086 0.0
C1177 C 0.1908 0.60779 0.63739 0.0
C1178 C 0.14183 0.59309 0.6571 0.0
C1179 C 0.14488 0.57173 0.67022 0.0
C1180 C 0.1717 0.56949 0.66762 0.0
C1181 C 0.19427 0.58748 0.65121 0.0
C1182 C 0.11358 0.59614 0.65951 0.0
C1183 C 0.17602 0.54727 0.68153 0.0
H1184 H 0.10009 0.54263 0.74333 0.0
H1185 H 0.05763 0.47871 0.68806 0.0
H1186 H 0.168 0.59029 0.71829 0.0
H1187 H 0.1468 0.60714 0.70813 0.0
H1188 H 0.14044 0.59232 0.73716 0.0
H1189 H 0.07371 0.49096 0.64929 0.0
H1190 H 0.09476 0.53031 0.64167 0.0
H1191 H 0.1156 0.51186 0.64858 0.0
H1192 H 0.16201 0.62654 0.63019 0.0
H1193 H 0.21429 0.585 0.64875 0.0
H1194 H 0.10978 0.59951 0.67793 0.0
H1195 H 0.09265 0.57509 0.65363 0.0
H1196 H 0.1157 0.61519 0.64922 0.0
H1197 H 0.17323 0.55003 0.70026 0.0
H1198 H 0.19921 0.54988 0.67867 0.0
H1199 H 0.15792 0.52399 0.67672 0.0
C1200 C 0.55198 0.12902 0.89859 0.0
C1201 C 0.52508 0.12561 0.90923 0.0
C1202 C 0.56495 0.14717 0.87901 0.0
C1203 C 0.54996 0.16126 0.86908 0.0
C1204 C 0.52316 0.15844 0.87979 0.0
C1205 C 0.5114 0.14115 0.89999 0.0
C1206 C 0.5941 0.1503 0.86844 0.0
C1207 C 0.5061 0.17255 0.86934 0.0
C1208 C 0.59394 0.22208 0.82407 0.0
C1209 C 0.58485 0.20505 0.8037 0.0
C1210 C 0.58263 0.20819 0.84562 0.0
C1211 C 0.561 0.17684 0.84651 0.0
C1212 C 0.55102 0.15986 0.82576 0.0
C1213 C 0.56355 0.17414 0.80459 0.0
C1214 C 0.59462 0.22677 0.86742 0.0
C1215 C 0.52737 0.12655 0.82594 0.0
H1216 H 0.56255 0.11674 0.90499 0.0
H1217 H 0.4911 0.1394 0.90824 0.0
H1218 H 0.58838 0.13789 0.85179 0.0
H1219 H 0.61124 0.17426 0.86469 0.0
H1220 H 0.60516 0.14132 0.87994 0.0
H1221 H 0.48645 0.16944 0.88036 0.0
H1222 H 0.52221 0.19697 0.86657 0.0
H1223 H 0.49682 0.16233 0.85213 0.0
H1224 H 0.61059 0.24603 0.82315 0.0
H1225 H 0.55652 0.16121 0.78866 0.0
H1226 H 0.60727 0.21858 0.87794 0.0
H1227 H 0.57501 0.22424 0.87812 0.0
H1228 H 0.61057 0.25104 0.86369 0.0
H1229 H 0.53723 0.11426 0.83464 0.0
H1230 H 0.52012 0.11726 0.8082 0.0
H1231 H 0.50644 0.12211 0.83588 0.0
C1232 C 0.6065 0.7008 0.03491 0.0
C1233 C 0.60167 0.70697 0.05762 0.0
C1234 C 0.58783 0.70047 0.01684 0.0
C1235 C 0.56366 0.70622 0.02177 0.0
C1236 C 0.56043 0.7149 0.04442 0.0
C1237 C 0.57954 0.71509 0.0622 0.0
C1238 C 0.59219 0.69127 0.99295 0.0
C1239 C 0.5351 0.7214 0.0503 0.0
C1240 C 0.52022 0.71171 0.97014 0.0
C1241 C 0.49526 0.68194 0.96835 0.0
C1242 C 0.54227 0.72032 0.98788 0.0
C1243 C 0.53923 0.69865 0.00416 0.0
C1244 C 0.51363 0.6688 0.00283 0.0
C1245 C 0.492 0.66082 0.98493 0.0
C1246 C 0.56926 0.75232 0.9888 0.0
C1247 C 0.50951 0.64503 0.01996 0.0
H1248 H 0.62356 0.69427 0.0316 0.0
H1249 H 0.57572 0.71948 0.0799 0.0
H1250 H 0.57283 0.66813 0.98918 0.0
H1251 H 0.59164 0.70636 0.97963 0.0
H1252 H 0.61445 0.6916 0.99132 0.0
H1253 H 0.53905 0.73276 0.06736 0.0
H1254 H 0.5334 0.7357 0.03684 0.0
H1255 H 0.51242 0.69995 0.05093 0.0
H1256 H 0.52287 0.72823 0.95744 0.0
H1257 H 0.4727 0.63784 0.9838 0.0
H1258 H 0.59121 0.75274 0.98507 0.0
H1259 H 0.57139 0.76181 0.0064 0.0
H1260 H 0.56683 0.76704 0.97611 0.0
H1261 H 0.52926 0.64115 0.01847 0.0
H1262 H 0.48756 0.62327 0.01717 0.0
H1263 H 0.5095 0.65274 0.03789 0.0
C1264 C 0.90301 0.4568 0.22637 0.0
C1265 C 0.93165 0.45818 0.22711 0.0
C1266 C 0.88465 0.44701 0.20632 0.0
C1267 C 0.89532 0.43854 0.18662 0.0
C1268 C 0.92423 0.43995 0.18729 0.0
C1269 C 0.94206 0.44981 0.20751 0.0
C1270 C 0.85392 0.44581 0.20617 0.0
C1271 C 0.93649 0.43127 0.1666 0.0
C1272 C 0.83826 0.38814 0.14068 0.0
C1273 C 0.84296 0.40895 0.12331 0.0
C1274 C 0.85478 0.39753 0.16155 0.0
C1275 C 0.87649 0.42845 0.16514 0.0
C1276 C 0.88114 0.4496 0.1478 0.0
C1277 C 0.86435 0.4396 0.12708 0.0
C1278 C 0.84931 0.37433 0.17965 0.0
C1279 C 0.90413 0.48277 0.15102 0.0
H1280 H 0.89486 0.46315 0.24152 0.0
H1281 H 0.96451 0.45146 0.20783 0.0
H1282 H 0.85389 0.46053 0.19228 0.0
H1283 H 0.83482 0.42258 0.20234 0.0
H1284 H 0.8489 0.45302 0.22295 0.0
H1285 H 0.95926 0.43329 0.17009 0.0
H1286 H 0.91964 0.40773 0.16144 0.0
H1287 H 0.93923 0.44583 0.15165 0.0
H1288 H 0.82174 0.36443 0.13795 0.0
H1289 H 0.86806 0.45587 0.11381 0.0
H1290 H 0.84256 0.38009 0.19633 0.0
H1291 H 0.87113 0.37429 0.1827 0.0
H1292 H 0.83088 0.35129 0.17451 0.0
H1293 H 0.89855 0.49099 0.16702 0.0
H1294 H 0.90427 0.49641 0.13617 0.0
H1295 H 0.92788 0.4866 0.15312 0.0
loop_
_geom_bond_atom_site_label_1
_geom_bond_atom_site_label_2
_geom_bond_distance
_geom_bond_site_symmetry_2
_ccdc_geom_bond_type
H0 O26 0.856 . S
H1 O29 0.854 . S
H2 C37 0.930 1_455 S
H3 C38 0.930 . S
H4 C40 0.930 . S
H5 C41 0.930 . S
H6 C43 0.931 . S
H7 C44 0.930 . S
H8 C46 0.930 . S
H9 C47 0.929 . S
H10 C49 0.930 . S
H11 C50 0.931 . S
H12 C52 0.930 . S
H13 C53 0.929 . S
H14 C55 0.931 . S
H15 C56 0.930 . S
H16 C58 0.930 . S
H17 C59 0.932 . S
H18 C61 0.930 . S
H19 C62 0.929 . S
H20 C64 0.931 . S
H21 C65 0.930 . S
H22 C67 0.929 . S
H23 C68 0.931 . S
H24 C70 0.930 . S
H25 C71 0.929 . S
O26 H0 0.856 . S
O26 C72 1.300 . S
O27 C72 1.209 . S
O28 C73 1.199 . S
O29 H1 0.854 . S
O29 C73 1.297 . S
C30 C31 1.404 . S
C30 C35 1.397 . S
C30 C36 1.492 . S
C31 C30 1.404 . S
C31 C32 1.396 . S
C31 C42 1.492 . S
C32 C31 1.396 . S
C32 C33 1.397 . S
C32 C48 1.509 . S
C33 C32 1.397 . S
C33 C34 1.412 . S
C33 C54 1.485 . S
C34 C33 1.412 . S
C34 C35 1.388 . S
C34 C60 1.490 . S
C35 C30 1.397 . S
C35 C34 1.388 . S
C35 C66 1.519 1_455 S
C36 C30 1.492 . S
C36 C37 1.363 1_455 S
C36 C41 1.390 1_455 S
C37 H2 0.930 1_655 S
C37 C36 1.363 1_655 S
C37 C38 1.372 . S
C38 H3 0.930 . S
C38 C37 1.372 . S
C38 C39 1.383 . S
C39 C38 1.383 . S
C39 C40 1.395 . S
C40 H4 0.930 . S
C40 C39 1.395 . S
C40 C41 1.362 . S
C41 H5 0.930 . S
C41 C36 1.390 1_655 S
C41 C40 1.362 . S
C42 C31 1.492 . S
C42 C43 1.377 . S
C42 C47 1.397 . S
C43 H6 0.931 . S
C43 C42 1.377 . S
C43 C44 1.376 . S
C44 H7 0.930 . S
C44 C43 1.376 . S
C44 C45 1.376 . S
C45 C44 1.376 . S
C45 C46 1.378 . S
C45 C72 1.486 . S
C46 H8 0.930 . S
C46 C45 1.378 . S
C46 C47 1.376 . S
C47 H9 0.929 . S
C47 C42 1.397 . S
C47 C46 1.376 . S
C48 C32 1.509 . S
C48 C49 1.391 . S
C48 C53 1.386 . S
C49 H10 0.930 . S
C49 C48 1.391 . S
C49 C50 1.375 . S
C50 H11 0.931 . S
C50 C49 1.375 . S
C50 C51 1.375 . S
C51 C50 1.375 . S
C51 C52 1.361 . S
C52 H12 0.930 . S
C52 C51 1.361 . S
C52 C53 1.399 . S
C53 H13 0.929 . S
C53 C48 1.386 . S
C53 C52 1.399 . S
C54 C33 1.485 . S
C54 C55 1.394 . S
C54 C59 1.360 . S
C55 H14 0.931 . S
C55 C54 1.394 . S
C55 C56 1.372 . S
C56 H15 0.930 . S
C56 C55 1.372 . S
C56 C57 1.397 . S
C57 C56 1.397 . S
C57 C58 1.390 . S
C57 C73 1.476 . S
C58 H16 0.930 . S
C58 C57 1.390 . S
C58 C59 1.366 . S
C59 H17 0.932 . S
C59 C54 1.360 . S
C59 C58 1.366 . S
C60 C34 1.490 . S
C60 C61 1.380 . S
C60 C65 1.386 . S
C61 H18 0.930 . S
C61 C60 1.380 . S
C61 C62 1.381 . S
C62 H19 0.929 . S
C62 C61 1.381 . S
C62 C63 1.371 . S
C63 C62 1.371 . S
C63 C64 1.380 . S
C64 H20 0.931 . S
C64 C63 1.380 . S
C64 C65 1.387 . S
C65 H21 0.930 . S
C65 C60 1.386 . S
C65 C64 1.387 . S
C66 C35 1.519 1_655 S
C66 C67 1.377 . S
C66 C71 1.361 . S
C67 H22 0.929 . S
C67 C66 1.377 . S
C67 C68 1.386 . S
C68 H23 0.931 . S
C68 C67 1.386 . S
C68 C69 1.363 . S
C69 C68 1.363 . S
C69 C70 1.385 . S
C70 H24 0.930 . S
C70 C69 1.385 . S
C70 C71 1.396 . S
C71 H25 0.929 . S
C71 C66 1.361 . S
C71 C70 1.396 . S
C72 O26 1.300 . S
C72 O27 1.209 . S
C72 C45 1.486 . S
C73 O28 1.199 . S
C73 O29 1.297 . S
C73 C57 1.476 . S
H74 O100 0.856 . S
H75 O103 0.854 . S
H76 C111 0.930 . S
H77 C112 0.930 . S
H78 C114 0.930 . S
H79 C115 0.951 . S
H80 C117 0.931 . S
H81 C118 0.930 . S
H82 C120 0.930 . S
H83 C121 0.929 . S
H84 C123 0.930 . S
H85 C124 0.931 . S
H86 C126 0.930 . S
H87 C127 0.929 . S
H88 C129 0.931 . S
H89 C130 0.930 . S
H90 C132 0.930 . S
H91 C133 0.932 . S
H92 C135 0.930 . S
H93 C136 0.929 . S
H94 C138 0.931 . S
H95 C139 0.930 . S
H96 C141 0.929 1_545 S
H97 C142 0.931 . S
H98 C144 0.930 . S
H99 C145 0.929 . S
O100 H74 0.856 . S
O100 C146 1.300 . S
O101 C146 1.209 . S
O102 C147 1.199 . S
O103 H75 0.854 . S
O103 C147 1.297 . S
C104 C105 1.404 . S
C104 C109 1.397 . S
C104 C110 1.492 . S
C105 C104 1.404 . S
C105 C106 1.396 . S
C105 C116 1.492 . S
C106 C105 1.396 . S
C106 C107 1.397 . S
C106 C122 1.509 . S
C107 C106 1.397 . S
C107 C108 1.412 . S
C107 C128 1.485 . S
C108 C107 1.412 . S
C108 C109 1.388 . S
C108 C134 1.490 . S
C109 C104 1.397 . S
C109 C108 1.388 . S
C109 C140 1.519 . S
C110 C104 1.492 . S
C110 C111 1.363 . S
C110 C115 1.401 . S
C111 H76 0.930 . S
C111 C110 1.363 . S
C111 C112 1.372 1_545 S
C112 H77 0.930 . S
C112 C111 1.372 1_565 S
C112 C113 1.383 . S
C113 C112 1.383 . S
C113 C114 1.395 . S
C114 H78 0.930 . S
C114 C113 1.395 . S
C114 C115 1.331 1_565 S
C115 H79 0.951 . S
C115 C110 1.401 . S
C115 C114 1.331 1_545 S
C116 C105 1.492 . S
C116 C117 1.377 . S
C116 C121 1.397 . S
C117 H80 0.931 . S
C117 C116 1.377 . S
C117 C118 1.376 . S
C118 H81 0.930 . S
C118 C117 1.376 . S
C118 C119 1.376 . S
C119 C118 1.376 . S
C119 C120 1.378 . S
C119 C146 1.486 . S
C120 H82 0.930 . S
C120 C119 1.378 . S
C120 C121 1.376 . S
C121 H83 0.929 . S
C121 C116 1.397 . S
C121 C120 1.376 . S
C122 C106 1.509 . S
C122 C123 1.391 . S
C122 C127 1.386 . S
C123 H84 0.930 . S
C123 C122 1.391 . S
C123 C124 1.375 . S
C124 H85 0.931 . S
C124 C123 1.375 . S
C124 C125 1.375 . S
C125 C124 1.375 . S
C125 C126 1.361 . S
C126 H86 0.930 . S
C126 C125 1.361 . S
C126 C127 1.399 . S
C127 H87 0.929 . S
C127 C122 1.386 . S
C127 C126 1.399 . S
C128 C107 1.485 . S
C128 C129 1.394 . S
C128 C133 1.360 . S
C129 H88 0.931 . S
C129 C128 1.394 . S
C129 C130 1.372 . S
C130 H89 0.930 . S
C130 C129 1.372 . S
C130 C131 1.397 . S
C131 C130 1.397 . S
C131 C132 1.390 . S
C131 C147 1.476 . S
C132 H90 0.930 . S
C132 C131 1.390 . S
C132 C133 1.366 . S
C133 H91 0.932 . S
C133 C128 1.360 . S
C133 C132 1.366 . S
C134 C108 1.490 . S
C134 C135 1.380 . S
C134 C139 1.386 . S
C135 H92 0.930 . S
C135 C134 1.380 . S
C135 C136 1.381 . S
C136 H93 0.929 . S
C136 C135 1.381 . S
C136 C137 1.371 . S
C137 C136 1.371 . S
C137 C138 1.380 . S
C138 H94 0.931 . S
C138 C137 1.380 . S
C138 C139 1.387 . S
C139 H95 0.930 . S
C139 C134 1.386 . S
C139 C138 1.387 . S
C140 C109 1.519 . S
C140 C141 1.377 1_545 S
C140 C145 1.361 . S
C141 H96 0.929 1_565 S
C141 C140 1.377 1_565 S
C141 C142 1.386 . S
C142 H97 0.931 . S
C142 C141 1.386 . S
C142 C143 1.363 . S
C143 C142 1.363 . S
C143 C144 1.385 . S
C144 H98 0.930 . S
C144 C143 1.385 . S
C144 C145 1.396 1_565 S
C145 H99 0.929 . S
C145 C140 1.361 . S
C145 C144 1.396 1_545 S
C146 O100 1.300 . S
C146 O101 1.209 . S
C146 C119 1.486 . S
C147 O102 1.199 . S
C147 O103 1.297 . S
C147 C131 1.476 . S
H148 O174 0.856 . S
H149 O177 0.854 . S
H150 C185 0.930 . S
H151 C186 0.930 . S
H152 C188 0.930 . S
H153 C189 0.930 . S
H154 C191 0.931 . S
H155 C192 0.930 . S
H156 C194 0.930 . S
H157 C195 0.929 . S
H158 C197 0.930 . S
H159 C198 0.931 . S
H160 C200 0.930 . S
H161 C201 0.929 . S
H162 C203 0.931 . S
H163 C204 0.930 . S
H164 C206 0.930 . S
H165 C207 0.932 . S
H166 C209 0.930 . S
H167 C210 0.929 . S
H168 C212 0.931 . S
H169 C213 0.930 . S
H170 C215 0.929 . S
H171 C216 0.931 . S
H172 C218 0.930 . S
H173 C219 0.929 . S
O174 H148 0.856 . S
O174 C220 1.300 . S
O175 C220 1.209 . S
O176 C221 1.199 . S
O177 H149 0.854 . S
O177 C221 1.297 . S
C178 C179 1.404 . S
C178 C183 1.397 . S
C178 C184 1.492 . S
C179 C178 1.404 . S
C179 C180 1.396 . S
C179 C190 1.492 . S
C180 C179 1.396 . S
C180 C181 1.397 . S
C180 C196 1.509 . S
C181 C180 1.397 . S
C181 C182 1.412 . S
C181 C202 1.485 . S
C182 C181 1.412 . S
C182 C183 1.388 . S
C182 C208 1.490 . S
C183 C178 1.397 . S
C183 C182 1.388 . S
C183 C214 1.519 . S
C184 C178 1.492 . S
C184 C185 1.363 . S
C184 C189 1.390 . S
C185 H150 0.930 . S
C185 C184 1.363 . S
C185 C186 1.372 . S
C186 H151 0.930 . S
C186 C185 1.372 . S
C186 C187 1.383 . S
C187 C186 1.383 . S
C187 C188 1.395 . S
C188 H152 0.930 . S
C188 C187 1.395 . S
C188 C189 1.362 . S
C189 H153 0.930 . S
C189 C184 1.390 . S
C189 C188 1.362 . S
C190 C179 1.492 . S
C190 C191 1.377 . S
C190 C195 1.397 . S
C191 H154 0.931 . S
C191 C190 1.377 . S
C191 C192 1.376 . S
C192 H155 0.930 . S
C192 C191 1.376 . S
C192 C193 1.376 . S
C193 C192 1.376 . S
C193 C194 1.378 . S
C193 C220 1.486 . S
C194 H156 0.930 . S
C194 C193 1.378 . S
C194 C195 1.376 . S
C195 H157 0.929 . S
C195 C190 1.397 . S
C195 C194 1.376 . S
C196 C180 1.509 . S
C196 C197 1.391 . S
C196 C201 1.386 . S
C197 H158 0.930 . S
C197 C196 1.391 . S
C197 C198 1.375 . S
C198 H159 0.931 . S
C198 C197 1.375 . S
C198 C199 1.375 . S
C199 C198 1.375 . S
C199 C200 1.361 . S
C200 H160 0.930 . S
C200 C199 1.361 . S
C200 C201 1.399 . S
C201 H161 0.929 . S
C201 C196 1.386 . S
C201 C200 1.399 . S
C202 C181 1.485 . S
C202 C203 1.394 . S
C202 C207 1.360 . S
C203 H162 0.931 . S
C203 C202 1.394 . S
C203 C204 1.372 . S
C204 H163 0.930 . S
C204 C203 1.372 . S
C204 C205 1.397 . S
C205 C204 1.397 . S
C205 C206 1.390 . S
C205 C221 1.476 . S
C206 H164 0.930 . S
C206 C205 1.390 . S
C206 C207 1.366 . S
C207 H165 0.932 . S
C207 C202 1.360 . S
C207 C206 1.366 . S
C208 C182 1.490 . S
C208 C209 1.380 . S
C208 C213 1.386 . S
C209 H166 0.930 . S
C209 C208 1.380 . S
C209 C210 1.381 . S
C210 H167 0.929 . S
C210 C209 1.381 . S
C210 C211 1.371 . S
C211 C210 1.371 . S
C211 C212 1.380 . S
C212 H168 0.931 . S
C212 C211 1.380 . S
C212 C213 1.387 . S
C213 H169 0.930 . S
C213 C208 1.386 . S
C213 C212 1.387 . S
C214 C183 1.519 . S
C214 C215 1.377 . S
C214 C219 1.361 . S
C215 H170 0.929 . S
C215 C214 1.377 . S
C215 C216 1.386 . S
C216 H171 0.931 . S
C216 C215 1.386 . S
C216 C217 1.363 . S
C217 C216 1.363 . S
C217 C218 1.385 . S
C218 H172 0.930 . S
C218 C217 1.385 . S
C218 C219 1.396 . S
C219 H173 0.929 . S
C219 C214 1.361 . S
C219 C218 1.396 . S
C220 O174 1.300 . S
C220 O175 1.209 . S
C220 C193 1.486 . S
C221 O176 1.199 . S
C221 O177 1.297 . S
C221 C205 1.476 . S
H222 O248 0.856 . S
H223 O251 0.854 . S
H224 C259 0.930 1_455 S
H225 C260 0.930 . S
H226 C262 0.930 . S
H227 C263 0.930 . S
H228 C265 0.931 . S
H229 C266 0.930 . S
H230 C268 0.930 . S
H231 C269 0.929 . S
H232 C271 0.930 . S
H233 C272 0.931 . S
H234 C274 0.930 . S
H235 C275 0.929 . S
H236 C277 0.931 . S
H237 C278 0.930 . S
H238 C280 0.930 . S
H239 C281 0.932 . S
H240 C283 0.930 . S
H241 C284 0.929 . S
H242 C286 0.931 . S
H243 C287 0.930 . S
H244 C289 0.929 . S
H245 C290 0.931 . S
H246 C292 0.930 . S
H247 C293 0.929 . S
O248 H222 0.856 . S
O248 C294 1.300 . S
O249 C294 1.209 . S
O250 C295 1.199 . S
O251 H223 0.854 . S
O251 C295 1.297 . S
C252 C253 1.404 . S
C252 C257 1.397 . S
C252 C258 1.492 1_455 S
C253 C252 1.404 . S
C253 C254 1.396 . S
C253 C264 1.492 . S
C254 C253 1.396 . S
C254 C255 1.397 . S
C254 C270 1.509 . S
C255 C254 1.397 . S
C255 C256 1.412 . S
C255 C276 1.485 . S
C256 C255 1.412 . S
C256 C257 1.388 . S
C256 C282 1.490 . S
C257 C252 1.397 . S
C257 C256 1.388 . S
C257 C288 1.519 1_455 S
C258 C252 1.492 1_655 S
C258 C259 1.363 . S
C258 C263 1.390 . S
C259 H224 0.930 1_655 S
C259 C258 1.363 . S
C259 C260 1.372 . S
C260 H225 0.930 . S
C260 C259 1.372 . S
C260 C261 1.383 . S
C261 C260 1.383 . S
C261 C262 1.395 . S
C262 H226 0.930 . S
C262 C261 1.395 . S
C262 C263 1.362 . S
C263 H227 0.930 . S
C263 C258 1.390 . S
C263 C262 1.362 . S
C264 C253 1.492 . S
C264 C265 1.377 . S
C264 C269 1.397 . S
C265 H228 0.931 . S
C265 C264 1.377 . S
C265 C266 1.376 . S
C266 H229 0.930 . S
C266 C265 1.376 . S
C266 C267 1.376 . S
C267 C266 1.376 . S
C267 C268 1.378 . S
C267 C294 1.486 . S
C268 H230 0.930 . S
C268 C267 1.378 . S
C268 C269 1.376 . S
C269 H231 0.929 . S
C269 C264 1.397 . S
C269 C268 1.376 . S
C270 C254 1.509 . S
C270 C271 1.391 . S
C270 C275 1.386 . S
C271 H232 0.930 . S
C271 C270 1.391 . S
C271 C272 1.375 . S
C272 H233 0.931 . S
C272 C271 1.375 . S
C272 C273 1.375 . S
C273 C272 1.375 . S
C273 C274 1.361 . S
C274 H234 0.930 . S
C274 C273 1.361 . S
C274 C275 1.399 . S
C275 H235 0.929 . S
C275 C270 1.386 . S
C275 C274 1.399 . S
C276 C255 1.485 . S
C276 C277 1.394 . S
C276 C281 1.360 . S
C277 H236 0.931 . S
C277 C276 1.394 . S
C277 C278 1.372 . S
C278 H237 0.930 . S
C278 C277 1.372 . S
C278 C279 1.397 . S
C279 C278 1.397 . S
C279 C280 1.390 . S
C279 C295 1.476 . S
C280 H238 0.930 . S
C280 C279 1.390 . S
C280 C281 1.366 . S
C281 H239 0.932 . S
C281 C276 1.360 . S
C281 C280 1.366 . S
C282 C256 1.490 . S
C282 C283 1.380 . S
C282 C287 1.386 . S
C283 H240 0.930 . S
C283 C282 1.380 . S
C283 C284 1.381 . S
C284 H241 0.929 . S
C284 C283 1.381 . S
C284 C285 1.371 . S
C285 C284 1.371 . S
C285 C286 1.380 . S
C286 H242 0.931 . S
C286 C285 1.380 . S
C286 C287 1.387 . S
C287 H243 0.930 . S
C287 C282 1.386 . S
C287 C286 1.387 . S
C288 C257 1.519 1_655 S
C288 C289 1.377 . S
C288 C293 1.361 . S
C289 H244 0.929 . S
C289 C288 1.377 . S
C289 C290 1.386 . S
C290 H245 0.931 . S
C290 C289 1.386 . S
C290 C291 1.363 . S
C291 C290 1.363 . S
C291 C292 1.385 . S
C292 H246 0.930 . S
C292 C291 1.385 . S
C292 C293 1.396 . S
C293 H247 0.929 . S
C293 C288 1.361 . S
C293 C292 1.396 . S
C294 O248 1.300 . S
C294 O249 1.209 . S
C294 C267 1.486 . S
C295 O250 1.199 . S
C295 O251 1.297 . S
C295 C279 1.476 . S
H296 O322 0.856 . S
H297 O325 0.854 . S
H298 C333 0.930 . S
H299 C334 0.930 . S
H300 C336 0.930 . S
H301 C337 0.930 . S
H302 C339 0.931 . S
H303 C340 0.930 . S
H304 C342 0.930 1_545 S
H305 C343 0.929 1_545 S
H306 C345 0.930 . S
H307 C346 0.931 . S
H308 C348 0.930 . S
H309 C349 0.929 . S
H310 C351 0.931 . S
H311 C352 0.930 . S
H312 C354 0.930 . S
H313 C355 0.932 . S
H314 C357 0.930 . S
H315 C358 0.929 . S
H316 C360 0.928 1_565 S
H317 C361 0.930 . S
H318 C363 0.929 1_556 S
H319 C364 0.931 . S
H320 C366 0.930 . S
H321 C367 0.929 . S
O322 H296 0.856 . S
O322 C368 1.300 . S
O323 C368 1.209 . S
O324 C369 1.199 . S
O325 H297 0.854 . S
O325 C369 1.297 . S
C326 C327 1.404 1_545 S
C326 C331 1.397 . S
C326 C332 1.492 . S
C327 C326 1.404 1_565 S
C327 C328 1.396 . S
C327 C338 1.492 . S
C328 C327 1.396 . S
C328 C329 1.397 . S
C328 C344 1.509 . S
C329 C328 1.397 . S
C329 C330 1.412 1_556 S
C329 C350 1.485 1_556 S
C330 C329 1.412 1_554 S
C330 C331 1.388 1_564 S
C330 C356 1.490 1_565 S
C331 C326 1.397 . S
C331 C330 1.388 1_546 S
C331 C362 1.519 1_556 S
C332 C326 1.492 . S
C332 C333 1.363 . S
C332 C337 1.390 . S
C333 H298 0.930 . S
C333 C332 1.363 . S
C333 C334 1.372 . S
C334 H299 0.930 . S
C334 C333 1.372 . S
C334 C335 1.383 . S
C335 C334 1.383 . S
C335 C336 1.395 . S
C336 H300 0.930 . S
C336 C335 1.395 . S
C336 C337 1.362 . S
C337 H301 0.930 . S
C337 C332 1.390 . S
C337 C336 1.362 . S
C338 C327 1.492 . S
C338 C339 1.377 . S
C338 C343 1.397 . S
C339 H302 0.931 . S
C339 C338 1.377 . S
C339 C340 1.376 . S
C340 H303 0.930 . S
C340 C339 1.376 . S
C340 C341 1.376 . S
C341 C340 1.376 . S
C341 C342 1.378 . S
C341 C368 1.486 . S
C342 H304 0.930 1_565 S
C342 C341 1.378 . S
C342 C343 1.376 . S
C343 H305 0.929 1_565 S
C343 C338 1.397 . S
C343 C342 1.376 . S
C344 C328 1.509 . S
C344 C345 1.391 . S
C344 C349 1.386 . S
C345 H306 0.930 . S
C345 C344 1.391 . S
C345 C346 1.375 . S
C346 H307 0.931 . S
C346 C345 1.375 . S
C346 C347 1.375 . S
C347 C346 1.375 . S
C347 C348 1.361 . S
C348 H308 0.930 . S
C348 C347 1.361 . S
C348 C349 1.399 . S
C349 H309 0.929 . S
C349 C344 1.386 . S
C349 C348 1.399 . S
C350 C329 1.485 1_554 S
C350 C351 1.394 . S
C350 C355 1.360 . S
C351 H310 0.931 . S
C351 C350 1.394 . S
C351 C352 1.372 . S
C352 H311 0.930 . S
C352 C351 1.372 . S
C352 C353 1.397 . S
C353 C352 1.397 . S
C353 C354 1.390 . S
C353 C369 1.476 . S
C354 H312 0.930 . S
C354 C353 1.390 . S
C354 C355 1.366 . S
C355 H313 0.932 . S
C355 C350 1.360 . S
C355 C354 1.366 . S
C356 C330 1.490 1_545 S
C356 C357 1.380 . S
C356 C361 1.386 1_545 S
C357 H314 0.930 . S
C357 C356 1.380 . S
C357 C358 1.381 . S
C358 H315 0.929 . S
C358 C357 1.381 . S
C358 C359 1.371 . S
C359 C358 1.371 . S
C359 C360 1.383 . S
C360 H316 0.928 1_545 S
C360 C359 1.383 . S
C360 C361 1.386 1_545 S
C361 H317 0.930 . S
C361 C356 1.386 1_565 S
C361 C360 1.386 1_565 S
C362 C331 1.519 1_554 S
C362 C363 1.377 . S
C362 C367 1.361 . S
C363 H318 0.929 1_554 S
C363 C362 1.377 . S
C363 C364 1.386 . S
C364 H319 0.931 . S
C364 C363 1.386 . S
C364 C365 1.363 . S
C365 C364 1.363 . S
C365 C366 1.385 . S
C366 H320 0.930 . S
C366 C365 1.385 . S
C366 C367 1.396 . S
C367 H321 0.929 . S
C367 C362 1.361 . S
C367 C366 1.396 . S
C368 O322 1.300 . S
C368 O323 1.209 . S
C368 C341 1.486 . S
C369 O324 1.199 . S
C369 O325 1.297 . S
C369 C353 1.476 . S
H370 O396 0.856 1_556 S
H371 O399 0.854 . S
H372 C407 0.930 . S
H373 C408 0.930 . S
H374 C410 0.930 . S
H375 C411 0.930 . S
H376 C413 0.931 . S
H377 C414 0.930 . S
H378 C416 0.930 . S
H379 C417 0.929 . S
H380 C419 0.930 . S
H381 C420 0.931 . S
H382 C422 0.930 . S
H383 C423 0.929 . S
H384 C425 0.931 . S
H385 C426 0.930 . S
H386 C428 0.930 . S
H387 C429 0.932 . S
H388 C431 0.930 . S
H389 C432 0.929 . S
H390 C434 0.931 . S
H391 C435 0.930 . S
H392 C437 0.929 . S
H393 C438 0.931 . S
H394 C440 0.930 . S
H395 C441 0.929 . S
O396 H370 0.856 1_554 S
O396 C442 1.300 . S
O397 C442 1.232 . S
O398 C443 1.199 . S
O399 H371 0.854 . S
O399 C443 1.297 . S
C400 C401 1.404 . S
C400 C405 1.397 . S
C400 C406 1.492 . S
C401 C400 1.404 . S
C401 C402 1.396 . S
C401 C412 1.492 . S
C402 C401 1.396 . S
C402 C403 1.397 . S
C402 C418 1.509 . S
C403 C402 1.397 . S
C403 C404 1.412 . S
C403 C424 1.485 . S
C404 C403 1.412 . S
C404 C405 1.388 . S
C404 C430 1.490 . S
C405 C400 1.397 . S
C405 C404 1.388 . S
C405 C436 1.519 . S
C406 C400 1.492 . S
C406 C407 1.363 . S
C406 C411 1.390 . S
C407 H372 0.930 . S
C407 C406 1.363 . S
C407 C408 1.372 . S
C408 H373 0.930 . S
C408 C407 1.372 . S
C408 C409 1.383 . S
C409 C408 1.383 . S
C409 C410 1.395 . S
C410 H374 0.930 . S
C410 C409 1.395 . S
C410 C411 1.362 . S
C411 H375 0.930 . S
C411 C406 1.390 . S
C411 C410 1.362 . S
C412 C401 1.492 . S
C412 C413 1.377 . S
C412 C417 1.397 . S
C413 H376 0.931 . S
C413 C412 1.377 . S
C413 C414 1.376 . S
C414 H377 0.930 . S
C414 C413 1.376 . S
C414 C415 1.376 . S
C415 C414 1.376 . S
C415 C416 1.378 . S
C415 C442 1.486 . S
C416 H378 0.930 . S
C416 C415 1.378 . S
C416 C417 1.376 . S
C417 H379 0.929 . S
C417 C412 1.397 . S
C417 C416 1.376 . S
C418 C402 1.509 . S
C418 C419 1.391 . S
C418 C423 1.386 . S
C419 H380 0.930 . S
C419 C418 1.391 . S
C419 C420 1.375 . S
C420 H381 0.931 . S
C420 C419 1.375 . S
C420 C421 1.375 . S
C421 C420 1.375 . S
C421 C422 1.361 . S
C422 H382 0.930 . S
C422 C421 1.361 . S
C422 C423 1.399 . S
C423 H383 0.929 . S
C423 C418 1.386 . S
C423 C422 1.399 . S
C424 C403 1.485 . S
C424 C425 1.394 . S
C424 C429 1.360 . S
C425 H384 0.931 . S
C425 C424 1.394 . S
C425 C426 1.372 . S
C426 H385 0.930 . S
C426 C425 1.372 . S
C426 C427 1.397 . S
C427 C426 1.397 . S
C427 C428 1.390 . S
C427 C443 1.476 . S
C428 H386 0.930 . S
C428 C427 1.390 . S
C428 C429 1.366 . S
C429 H387 0.932 . S
C429 C424 1.360 . S
C429 C428 1.366 . S
C430 C404 1.490 . S
C430 C431 1.380 . S
C430 C435 1.386 . S
C431 H388 0.930 . S
C431 C430 1.380 . S
C431 C432 1.381 . S
C432 H389 0.929 . S
C432 C431 1.381 . S
C432 C433 1.371 . S
C433 C432 1.371 . S
C433 C434 1.380 . S
C434 H390 0.931 . S
C434 C433 1.380 . S
C434 C435 1.387 . S
C435 H391 0.930 . S
C435 C430 1.386 . S
C435 C434 1.387 . S
C436 C405 1.519 . S
C436 C437 1.377 . S
C436 C441 1.361 . S
C437 H392 0.929 . S
C437 C436 1.377 . S
C437 C438 1.386 . S
C438 H393 0.931 . S
C438 C437 1.386 . S
C438 C439 1.363 . S
C439 C438 1.363 . S
C439 C440 1.385 . S
C440 H394 0.930 . S
C440 C439 1.385 . S
C440 C441 1.396 . S
C441 H395 0.929 . S
C441 C436 1.361 . S
C441 C440 1.396 . S
C442 O396 1.300 . S
C442 O397 1.232 . S
C442 C415 1.486 . S
C443 O398 1.199 . S
C443 O399 1.297 . S
C443 C427 1.476 . S
O444 Cd445 2.223 . S
O444 C452 1.315 . S
Cd445 O444 2.223 . S
Cd445 O448 2.297 . S
Cd445 O449 2.439 . S
Cd445 O455 2.240 . S
Cd446 O447 2.240 . S
Cd446 O454 2.223 . S
Cd446 O456 2.297 . S
Cd446 O457 2.439 . S
O447 Cd446 2.240 . S
O447 C452 1.279 . S
O448 Cd445 2.297 . S
O448 C450 1.247 . S
O449 Cd445 2.439 . S
O449 C450 1.208 . S
C450 O448 1.247 . S
C450 O449 1.208 . S
C451 O456 1.247 . S
C451 O457 1.208 . S
C452 O444 1.315 . S
C452 O447 1.279 . S
C453 O454 1.315 . S
C453 O455 1.279 . S
O454 Cd446 2.223 . S
O454 C453 1.315 . S
O455 Cd445 2.240 . S
O455 C453 1.279 . S
O456 Cd446 2.297 . S
O456 C451 1.247 . S
O457 Cd446 2.439 . S
O457 C451 1.208 . S
O458 Cd459 2.223 . S
O458 C466 1.315 . S
Cd459 O458 2.223 . S
Cd459 O462 2.297 . S
Cd459 O463 2.439 . S
Cd459 O469 2.240 . S
Cd460 O461 2.240 . S
Cd460 O468 2.223 . S
Cd460 O470 2.297 . S
Cd460 O471 2.439 . S
O461 Cd460 2.240 . S
O461 C466 1.279 . S
O462 Cd459 2.297 . S
O462 C464 1.247 . S
O463 Cd459 2.439 . S
O463 C464 1.208 . S
C464 O462 1.247 . S
C464 O463 1.208 . S
C465 O470 1.247 . S
C465 O471 1.208 . S
C466 O458 1.315 . S
C466 O461 1.279 . S
C467 O468 1.315 . S
C467 O469 1.279 . S
O468 Cd460 2.223 . S
O468 C467 1.315 . S
O469 Cd459 2.240 . S
O469 C467 1.279 . S
O470 Cd460 2.297 . S
O470 C465 1.247 . S
O471 Cd460 2.439 . S
O471 C465 1.208 . S
O472 Cd473 2.223 . S
O472 C480 1.315 . S
Cd473 O472 2.223 . S
Cd473 O476 2.297 . S
Cd473 O477 2.439 . S
Cd473 O483 2.240 . S
Cd474 O475 2.240 . S
Cd474 O482 2.223 . S
Cd474 O484 2.297 . S
Cd474 O485 2.439 . S
O475 Cd474 2.240 . S
O475 C480 1.279 . S
O476 Cd473 2.297 . S
O476 C478 1.247 . S
O477 Cd473 2.439 . S
O477 C478 1.208 . S
C478 O476 1.247 . S
C478 O477 1.208 . S
C479 O484 1.247 . S
C479 O485 1.208 . S
C480 O472 1.315 . S
C480 O475 1.279 . S
C481 O482 1.315 . S
C481 O483 1.279 . S
O482 Cd474 2.223 . S
O482 C481 1.315 . S
O483 Cd473 2.240 . S
O483 C481 1.279 . S
O484 Cd474 2.297 . S
O484 C479 1.247 . S
O485 Cd474 2.439 . S
O485 C479 1.208 . S
O486 Cd487 2.223 . S
O486 C494 1.315 . S
Cd487 O486 2.223 . S
Cd487 O490 2.297 . S
Cd487 O491 2.439 . S
Cd487 O497 2.240 . S
Cd488 O489 2.240 . S
Cd488 O496 2.223 . S
Cd488 O498 2.297 . S
Cd488 O499 2.439 . S
O489 Cd488 2.240 . S
O489 C494 1.279 . S
O490 Cd487 2.297 . S
O490 C492 1.247 . S
O491 Cd487 2.439 . S
O491 C492 1.208 . S
C492 O490 1.247 . S
C492 O491 1.208 . S
C493 O498 1.247 . S
C493 O499 1.208 . S
C494 O486 1.315 . S
C494 O489 1.279 . S
C495 O496 1.315 . S
C495 O497 1.279 . S
O496 Cd488 2.223 . S
O496 C495 1.315 . S
O497 Cd487 2.240 . S
O497 C495 1.279 . S
O498 Cd488 2.297 . S
O498 C493 1.247 . S
O499 Cd488 2.439 . S
O499 C493 1.208 . S
O500 Cd501 2.223 . S
O500 C508 1.315 . S
Cd501 O500 2.223 . S
Cd501 O504 2.297 . S
Cd501 O505 2.439 . S
Cd501 O511 2.240 . S
Cd502 O503 2.240 . S
Cd502 O510 2.223 . S
Cd502 O512 2.297 . S
Cd502 O513 2.439 . S
O503 Cd502 2.240 . S
O503 C508 1.279 . S
O504 Cd501 2.297 . S
O504 C506 1.247 . S
O505 Cd501 2.439 . S
O505 C506 1.208 . S
C506 O504 1.247 . S
C506 O505 1.208 . S
C507 O512 1.247 . S
C507 O513 1.208 . S
C508 O500 1.315 . S
C508 O503 1.279 . S
C509 O510 1.315 . S
C509 O511 1.279 . S
O510 Cd502 2.223 . S
O510 C509 1.315 . S
O511 Cd501 2.240 . S
O511 C509 1.279 . S
O512 Cd502 2.297 . S
O512 C507 1.247 . S
O513 Cd502 2.439 . S
O513 C507 1.208 . S
O514 Cd515 2.223 . S
O514 C522 1.315 . S
Cd515 O514 2.223 . S
Cd515 O518 2.297 . S
Cd515 O519 2.439 . S
Cd515 O525 2.240 . S
Cd516 O517 2.240 . S
Cd516 O524 2.223 . S
Cd516 O526 2.297 . S
Cd516 O527 2.439 . S
O517 Cd516 2.240 . S
O517 C522 1.279 . S
O518 Cd515 2.297 . S
O518 C520 1.247 . S
O519 Cd515 2.439 . S
O519 C520 1.208 . S
C520 O518 1.247 . S
C520 O519 1.208 . S
C521 O526 1.247 . S
C521 O527 1.208 . S
C522 O514 1.315 . S
C522 O517 1.279 . S
C523 O524 1.315 . S
C523 O525 1.279 . S
O524 Cd516 2.223 . S
O524 C523 1.315 . S
O525 Cd515 2.240 . S
O525 C523 1.279 . S
O526 Cd516 2.297 . S
O526 C521 1.247 . S
O527 Cd516 2.439 . S
O527 C521 1.208 . S
C528 C529 1.391 . S
C528 C530 1.394 . S
C528 H544 0.931 . S
C529 C528 1.391 . S
C529 C533 1.376 . S
C530 C528 1.394 . S
C530 C531 1.369 . S
C530 C534 1.531 . S
C531 C530 1.369 . S
C531 C532 1.410 . S
C531 C539 1.503 . S
C532 C531 1.410 . S
C532 C533 1.392 . S
C532 C535 1.511 . S
C533 C529 1.376 . S
C533 C532 1.392 . S
C533 H545 0.929 . S
C534 C530 1.531 . S
C534 H546 0.960 . S
C534 H547 0.962 . S
C534 H548 0.960 . S
C535 C532 1.511 . S
C535 H549 0.961 . S
C535 H550 0.961 . S
C535 H551 0.961 . S
C536 C537 1.370 . S
C536 C538 1.363 . S
C536 H552 0.931 . S
C537 C536 1.370 . S
C537 C541 1.408 . S
C538 C536 1.363 . S
C538 C539 1.370 . S
C538 C542 1.524 . S
C539 C531 1.503 . S
C539 C538 1.370 . S
C539 C540 1.403 . S
C540 C539 1.403 . S
C540 C541 1.404 . S
C540 C543 1.539 . S
C541 C537 1.408 . S
C541 C540 1.404 . S
C541 H553 0.930 . S
C542 C538 1.524 . S
C542 H554 0.956 . S
C542 H555 0.961 . S
C542 H556 0.961 . S
C543 C540 1.539 . S
C543 H557 0.958 . S
C543 H558 0.961 . S
C543 H559 0.960 . S
H544 C528 0.931 . S
H545 C533 0.929 . S
H546 C534 0.960 . S
H547 C534 0.962 . S
H548 C534 0.960 . S
H549 C535 0.961 . S
H550 C535 0.961 . S
H551 C535 0.961 . S
H552 C536 0.931 . S
H553 C541 0.930 . S
H554 C542 0.956 . S
H555 C542 0.961 . S
H556 C542 0.961 . S
H557 C543 0.958 . S
H558 C543 0.961 . S
H559 C543 0.960 . S
C560 C561 1.391 . S
C560 C562 1.394 . S
C560 H576 0.931 . S
C561 C560 1.391 . S
C561 C565 1.376 . S
C562 C560 1.394 . S
C562 C563 1.369 . S
C562 C566 1.531 . S
C563 C562 1.369 . S
C563 C564 1.410 . S
C563 C571 1.503 . S
C564 C563 1.410 . S
C564 C565 1.392 . S
C564 C567 1.511 . S
C565 C561 1.376 . S
C565 C564 1.392 . S
C565 H577 0.929 . S
C566 C562 1.531 . S
C566 H578 0.960 . S
C566 H579 0.962 . S
C566 H580 0.960 . S
C567 C564 1.511 . S
C567 H581 0.961 . S
C567 H582 0.961 . S
C567 H583 0.961 . S
C568 C569 1.370 . S
C568 C570 1.363 . S
C568 H584 0.931 . S
C569 C568 1.370 . S
C569 C573 1.408 . S
C570 C568 1.363 . S
C570 C571 1.370 . S
C570 C574 1.524 . S
C571 C563 1.503 . S
C571 C570 1.370 . S
C571 C572 1.403 . S
C572 C571 1.403 . S
C572 C573 1.404 . S
C572 C575 1.539 . S
C573 C569 1.408 . S
C573 C572 1.404 . S
C573 H585 0.930 . S
C574 C570 1.524 . S
C574 H586 0.956 . S
C574 H587 0.961 . S
C574 H588 0.961 . S
C575 C572 1.539 . S
C575 H589 0.958 . S
C575 H590 0.961 . S
C575 H591 0.960 . S
H576 C560 0.931 . S
H577 C565 0.929 . S
H578 C566 0.960 . S
H579 C566 0.962 . S
H580 C566 0.960 . S
H581 C567 0.961 . S
H582 C567 0.961 . S
H583 C567 0.961 . S
H584 C568 0.931 . S
H585 C573 0.930 . S
H586 C574 0.956 . S
H587 C574 0.961 . S
H588 C574 0.961 . S
H589 C575 0.958 . S
H590 C575 0.961 . S
H591 C575 0.960 . S
C592 C593 1.391 . S
C592 C594 1.394 . S
C592 H608 0.931 . S
C593 C592 1.391 . S
C593 C597 1.376 . S
C594 C592 1.394 . S
C594 C595 1.369 . S
C594 C598 1.531 . S
C595 C594 1.369 . S
C595 C596 1.410 . S
C595 C603 1.503 . S
C596 C595 1.410 . S
C596 C597 1.392 . S
C596 C599 1.511 . S
C597 C593 1.376 . S
C597 C596 1.392 . S
C597 H609 0.929 . S
C598 C594 1.531 . S
C598 H610 0.960 . S
C598 H611 0.962 . S
C598 H612 0.960 . S
C599 C596 1.511 . S
C599 H613 0.961 . S
C599 H614 0.961 . S
C599 H615 0.961 . S
C600 C601 1.370 . S
C600 C602 1.363 . S
C600 H616 0.931 . S
C601 C600 1.370 . S
C601 C605 1.408 . S
C602 C600 1.363 . S
C602 C603 1.370 . S
C602 C606 1.524 . S
C603 C595 1.503 . S
C603 C602 1.370 . S
C603 C604 1.403 . S
C604 C603 1.403 . S
C604 C605 1.404 . S
C604 C607 1.539 . S
C605 C601 1.408 . S
C605 C604 1.404 . S
C605 H617 0.930 . S
C606 C602 1.524 . S
C606 H618 0.956 . S
C606 H619 0.961 . S
C606 H620 0.961 . S
C607 C604 1.539 . S
C607 H621 0.958 . S
C607 H622 0.961 . S
C607 H623 0.960 . S
H608 C592 0.931 . S
H609 C597 0.929 . S
H610 C598 0.960 . S
H611 C598 0.962 . S
H612 C598 0.960 . S
H613 C599 0.961 . S
H614 C599 0.961 . S
H615 C599 0.961 . S
H616 C600 0.931 . S
H617 C605 0.930 . S
H618 C606 0.956 . S
H619 C606 0.961 . S
H620 C606 0.961 . S
H621 C607 0.958 . S
H622 C607 0.961 . S
H623 C607 0.960 . S
C624 C625 1.391 . S
C624 C626 1.394 . S
C624 H640 0.931 . S
C625 C624 1.391 . S
C625 C629 1.376 . S
C626 C624 1.394 . S
C626 C627 1.369 . S
C626 C630 1.531 . S
C627 C626 1.369 . S
C627 C628 1.410 . S
C627 C635 1.503 . S
C628 C627 1.410 . S
C628 C629 1.392 . S
C628 C631 1.511 . S
C629 C625 1.376 . S
C629 C628 1.392 . S
C629 H641 0.929 . S
C630 C626 1.531 . S
C630 H642 0.960 . S
C630 H643 0.962 . S
C630 H644 0.960 . S
C631 C628 1.511 . S
C631 H645 0.961 . S
C631 H646 0.961 . S
C631 H647 0.961 . S
C632 C633 1.370 . S
C632 C634 1.363 . S
C632 H648 0.931 . S
C633 C632 1.370 . S
C633 C637 1.408 . S
C634 C632 1.363 . S
C634 C635 1.370 . S
C634 C638 1.524 . S
C635 C627 1.503 . S
C635 C634 1.370 . S
C635 C636 1.403 . S
C636 C635 1.403 . S
C636 C637 1.404 . S
C636 C639 1.539 . S
C637 C633 1.408 . S
C637 C636 1.404 . S
C637 H649 0.930 . S
C638 C634 1.524 . S
C638 H650 0.956 . S
C638 H651 0.961 . S
C638 H652 0.961 . S
C639 C636 1.539 . S
C639 H653 0.958 . S
C639 H654 0.961 . S
C639 H655 0.960 . S
H640 C624 0.931 . S
H641 C629 0.929 . S
H642 C630 0.960 . S
H643 C630 0.962 . S
H644 C630 0.960 . S
H645 C631 0.961 . S
H646 C631 0.961 . S
H647 C631 0.961 . S
H648 C632 0.931 . S
H649 C637 0.930 . S
H650 C638 0.956 . S
H651 C638 0.961 . S
H652 C638 0.961 . S
H653 C639 0.958 . S
H654 C639 0.961 . S
H655 C639 0.960 . S
C656 C657 1.391 . S
C656 C658 1.394 . S
C656 H672 0.931 . S
C657 C656 1.391 . S
C657 C661 1.376 . S
C658 C656 1.394 . S
C658 C659 1.369 . S
C658 C662 1.531 . S
C659 C658 1.369 . S
C659 C660 1.410 . S
C659 C667 1.503 . S
C660 C659 1.410 . S
C660 C661 1.392 . S
C660 C663 1.511 . S
C661 C657 1.376 . S
C661 C660 1.392 . S
C661 H673 0.929 . S
C662 C658 1.531 . S
C662 H674 0.960 . S
C662 H675 0.962 . S
C662 H676 0.960 . S
C663 C660 1.511 . S
C663 H677 0.961 . S
C663 H678 0.961 . S
C663 H679 0.961 . S
C664 C665 1.370 . S
C664 C666 1.363 . S
C664 H680 0.931 . S
C665 C664 1.370 . S
C665 C669 1.408 . S
C666 C664 1.363 . S
C666 C667 1.370 . S
C666 C670 1.524 . S
C667 C659 1.503 . S
C667 C666 1.370 . S
C667 C668 1.403 . S
C668 C667 1.403 . S
C668 C669 1.404 . S
C668 C671 1.539 . S
C669 C665 1.408 . S
C669 C668 1.404 . S
C669 H681 0.930 . S
C670 C666 1.524 . S
C670 H682 0.956 . S
C670 H683 0.961 . S
C670 H684 0.961 . S
C671 C668 1.539 . S
C671 H685 0.958 . S
C671 H686 0.961 . S
C671 H687 0.960 . S
H672 C656 0.931 . S
H673 C661 0.929 . S
H674 C662 0.960 . S
H675 C662 0.962 . S
H676 C662 0.960 . S
H677 C663 0.961 . S
H678 C663 0.961 . S
H679 C663 0.961 . S
H680 C664 0.931 . S
H681 C669 0.930 . S
H682 C670 0.956 . S
H683 C670 0.961 . S
H684 C670 0.961 . S
H685 C671 0.958 . S
H686 C671 0.961 . S
H687 C671 0.960 . S
C688 C689 1.391 . S
C688 C690 1.394 . S
C688 H704 0.931 . S
C689 C688 1.391 . S
C689 C693 1.376 . S
C690 C688 1.394 . S
C690 C691 1.369 . S
C690 C694 1.531 . S
C691 C690 1.369 . S
C691 C692 1.410 . S
C691 C699 1.503 . S
C692 C691 1.410 . S
C692 C693 1.392 . S
C692 C695 1.511 . S
C693 C689 1.376 . S
C693 C692 1.392 . S
C693 H705 0.929 . S
C694 C690 1.531 . S
C694 H706 0.960 . S
C694 H707 0.962 . S
C694 H708 0.960 . S
C695 C692 1.511 . S
C695 H709 0.961 . S
C695 H710 0.961 . S
C695 H711 0.961 . S
C696 C697 1.370 . S
C696 C698 1.363 . S
C696 H712 0.931 . S
C697 C696 1.370 . S
C697 C701 1.408 . S
C698 C696 1.363 . S
C698 C699 1.370 . S
C698 C702 1.524 . S
C699 C691 1.503 . S
C699 C698 1.370 . S
C699 C700 1.403 . S
C700 C699 1.403 . S
C700 C701 1.404 . S
C700 C703 1.539 . S
C701 C697 1.408 . S
C701 C700 1.404 . S
C701 H713 0.930 . S
C702 C698 1.524 . S
C702 H714 0.956 . S
C702 H715 0.961 . S
C702 H716 0.961 . S
C703 C700 1.539 . S
C703 H717 0.958 . S
C703 H718 0.961 . S
C703 H719 0.960 . S
H704 C688 0.931 . S
H705 C693 0.929 . S
H706 C694 0.960 . S
H707 C694 0.962 . S
H708 C694 0.960 . S
H709 C695 0.961 . S
H710 C695 0.961 . S
H711 C695 0.961 . S
H712 C696 0.931 . S
H713 C701 0.930 . S
H714 C702 0.956 . S
H715 C702 0.961 . S
H716 C702 0.961 . S
H717 C703 0.958 . S
H718 C703 0.961 . S
H719 C703 0.960 . S
C720 C721 1.391 . S
C720 C722 1.394 . S
C720 H736 0.931 . S
C721 C720 1.391 . S
C721 C725 1.376 . S
C722 C720 1.394 . S
C722 C723 1.369 . S
C722 C726 1.531 . S
C723 C722 1.369 . S
C723 C724 1.410 . S
C723 C731 1.503 . S
C724 C723 1.410 . S
C724 C725 1.392 . S
C724 C727 1.511 . S
C725 C721 1.376 . S
C725 C724 1.392 . S
C725 H737 0.929 . S
C726 C722 1.531 . S
C726 H738 0.960 . S
C726 H739 0.962 . S
C726 H740 0.960 . S
C727 C724 1.511 . S
C727 H741 0.961 . S
C727 H742 0.961 . S
C727 H743 0.961 . S
C728 C729 1.370 . S
C728 C730 1.363 . S
C728 H744 0.931 . S
C729 C728 1.370 . S
C729 C733 1.408 . S
C730 C728 1.363 . S
C730 C731 1.370 . S
C730 C734 1.524 . S
C731 C723 1.503 . S
C731 C730 1.370 . S
C731 C732 1.403 . S
C732 C731 1.403 . S
C732 C733 1.404 . S
C732 C735 1.539 . S
C733 C729 1.408 . S
C733 C732 1.404 . S
C733 H745 0.930 . S
C734 C730 1.524 . S
C734 H746 0.956 . S
C734 H747 0.961 . S
C734 H748 0.961 . S
C735 C732 1.539 . S
C735 H749 0.958 . S
C735 H750 0.961 . S
C735 H751 0.960 . S
H736 C720 0.931 . S
H737 C725 0.929 . S
H738 C726 0.960 . S
H739 C726 0.962 . S
H740 C726 0.960 . S
H741 C727 0.961 . S
H742 C727 0.961 . S
H743 C727 0.961 . S
H744 C728 0.931 . S
H745 C733 0.930 . S
H746 C734 0.956 . S
H747 C734 0.961 . S
H748 C734 0.961 . S
H749 C735 0.958 . S
H750 C735 0.961 . S
H751 C735 0.960 . S
C752 C753 1.391 . S
C752 C754 1.394 . S
C752 H768 0.931 . S
C753 C752 1.391 . S
C753 C757 1.376 . S
C754 C752 1.394 . S
C754 C755 1.369 . S
C754 C758 1.531 . S
C755 C754 1.369 . S
C755 C756 1.410 . S
C755 C763 1.503 . S
C756 C755 1.410 . S
C756 C757 1.392 . S
C756 C759 1.511 . S
C757 C753 1.376 . S
C757 C756 1.392 . S
C757 H769 0.929 . S
C758 C754 1.531 . S
C758 H770 0.960 . S
C758 H771 0.962 . S
C758 H772 0.960 . S
C759 C756 1.511 . S
C759 H773 0.961 . S
C759 H774 0.961 . S
C759 H775 0.961 . S
C760 C761 1.370 . S
C760 C762 1.363 . S
C760 H776 0.931 . S
C761 C760 1.370 . S
C761 C765 1.408 . S
C762 C760 1.363 . S
C762 C763 1.370 . S
C762 C766 1.524 . S
C763 C755 1.503 . S
C763 C762 1.370 . S
C763 C764 1.403 . S
C764 C763 1.403 . S
C764 C765 1.404 . S
C764 C767 1.539 . S
C765 C761 1.408 . S
C765 C764 1.404 . S
C765 H777 0.930 . S
C766 C762 1.524 . S
C766 H778 0.956 . S
C766 H779 0.961 . S
C766 H780 0.961 . S
C767 C764 1.539 . S
C767 H781 0.958 . S
C767 H782 0.961 . S
C767 H783 0.960 . S
H768 C752 0.931 . S
H769 C757 0.929 . S
H770 C758 0.960 . S
H771 C758 0.962 . S
H772 C758 0.960 . S
H773 C759 0.961 . S
H774 C759 0.961 . S
H775 C759 0.961 . S
H776 C760 0.931 . S
H777 C765 0.930 . S
H778 C766 0.956 . S
H779 C766 0.961 . S
H780 C766 0.961 . S
H781 C767 0.958 . S
H782 C767 0.961 . S
H783 C767 0.960 . S
C784 C785 1.391 . S
C784 C786 1.394 . S
C784 H800 0.931 . S
C785 C784 1.391 . S
C785 C789 1.376 . S
C786 C784 1.394 . S
C786 C787 1.369 . S
C786 C790 1.531 . S
C787 C786 1.369 . S
C787 C788 1.410 . S
C787 C795 1.503 . S
C788 C787 1.410 . S
C788 C789 1.392 . S
C788 C791 1.511 . S
C789 C785 1.376 . S
C789 C788 1.392 . S
C789 H801 0.929 . S
C790 C786 1.531 . S
C790 H802 0.960 . S
C790 H803 0.962 . S
C790 H804 0.960 . S
C791 C788 1.511 . S
C791 H805 0.961 . S
C791 H806 0.961 . S
C791 H807 0.961 . S
C792 C793 1.370 . S
C792 C794 1.363 . S
C792 H808 0.931 . S
C793 C792 1.370 . S
C793 C797 1.408 . S
C794 C792 1.363 . S
C794 C795 1.370 . S
C794 C798 1.524 . S
C795 C787 1.503 . S
C795 C794 1.370 . S
C795 C796 1.403 . S
C796 C795 1.403 . S
C796 C797 1.404 . S
C796 C799 1.539 . S
C797 C793 1.408 . S
C797 C796 1.404 . S
C797 H809 0.930 . S
C798 C794 1.524 . S
C798 H810 0.956 . S
C798 H811 0.961 . S
C798 H812 0.961 . S
C799 C796 1.539 . S
C799 H813 0.958 . S
C799 H814 0.961 . S
C799 H815 0.960 . S
H800 C784 0.931 . S
H801 C789 0.929 . S
H802 C790 0.960 . S
H803 C790 0.962 . S
H804 C790 0.960 . S
H805 C791 0.961 . S
H806 C791 0.961 . S
H807 C791 0.961 . S
H808 C792 0.931 . S
H809 C797 0.930 . S
H810 C798 0.956 . S
H811 C798 0.961 . S
H812 C798 0.961 . S
H813 C799 0.958 . S
H814 C799 0.961 . S
H815 C799 0.960 . S
C816 C817 1.391 . S
C816 C818 1.394 . S
C816 H832 0.931 . S
C817 C816 1.391 . S
C817 C821 1.376 . S
C818 C816 1.394 . S
C818 C819 1.369 . S
C818 C822 1.531 . S
C819 C818 1.369 . S
C819 C820 1.410 . S
C819 C827 1.503 . S
C820 C819 1.410 . S
C820 C821 1.392 . S
C820 C823 1.511 . S
C821 C817 1.376 . S
C821 C820 1.392 . S
C821 H833 0.929 . S
C822 C818 1.531 . S
C822 H834 0.960 . S
C822 H835 0.962 . S
C822 H836 0.960 1_554 S
C823 C820 1.511 . S
C823 H837 0.961 . S
C823 H838 0.961 . S
C823 H839 0.961 . S
C824 C825 1.370 . S
C824 C826 1.363 . S
C824 H840 0.931 . S
C825 C824 1.370 . S
C825 C829 1.408 . S
C826 C824 1.363 . S
C826 C827 1.370 . S
C826 C830 1.524 . S
C827 C819 1.503 . S
C827 C826 1.370 . S
C827 C828 1.403 . S
C828 C827 1.403 . S
C828 C829 1.404 . S
C828 C831 1.539 1_554 S
C829 C825 1.408 . S
C829 C828 1.404 . S
C829 H841 0.930 . S
C830 C826 1.524 . S
C830 H842 0.956 . S
C830 H843 0.961 . S
C830 H844 0.961 . S
C831 C828 1.539 1_556 S
C831 H845 0.958 . S
C831 H846 0.961 . S
C831 H847 0.960 . S
H832 C816 0.931 . S
H833 C821 0.929 . S
H834 C822 0.960 . S
H835 C822 0.962 . S
H836 C822 0.960 1_556 S
H837 C823 0.961 . S
H838 C823 0.961 . S
H839 C823 0.961 . S
H840 C824 0.931 . S
H841 C829 0.930 . S
H842 C830 0.956 . S
H843 C830 0.961 . S
H844 C830 0.961 . S
H845 C831 0.958 . S
H846 C831 0.961 . S
H847 C831 0.960 . S
C848 C849 1.391 . S
C848 C850 1.394 . S
C848 H864 0.931 . S
C849 C848 1.391 . S
C849 C853 1.376 . S
C850 C848 1.394 . S
C850 C851 1.369 . S
C850 C854 1.531 . S
C851 C850 1.369 . S
C851 C852 1.410 . S
C851 C859 1.503 . S
C852 C851 1.410 . S
C852 C853 1.392 . S
C852 C855 1.511 . S
C853 C849 1.376 . S
C853 C852 1.392 . S
C853 H865 0.929 . S
C854 C850 1.531 . S
C854 H866 0.960 . S
C854 H867 0.962 . S
C854 H868 0.960 . S
C855 C852 1.511 . S
C855 H869 0.961 . S
C855 H870 0.961 . S
C855 H871 0.961 . S
C856 C857 1.370 . S
C856 C858 1.363 . S
C856 H872 0.931 . S
C857 C856 1.370 . S
C857 C861 1.408 . S
C858 C856 1.363 . S
C858 C859 1.370 . S
C858 C862 1.524 . S
C859 C851 1.503 . S
C859 C858 1.370 . S
C859 C860 1.403 . S
C860 C859 1.403 . S
C860 C861 1.404 . S
C860 C863 1.539 . S
C861 C857 1.408 . S
C861 C860 1.404 . S
C861 H873 0.930 . S
C862 C858 1.524 . S
C862 H874 0.956 . S
C862 H875 0.961 . S
C862 H876 0.961 . S
C863 C860 1.539 . S
C863 H877 0.958 . S
C863 H878 0.961 . S
C863 H879 0.960 . S
H864 C848 0.931 . S
H865 C853 0.929 . S
H866 C854 0.960 . S
H867 C854 0.962 . S
H868 C854 0.960 . S
H869 C855 0.961 . S
H870 C855 0.961 . S
H871 C855 0.961 . S
H872 C856 0.931 . S
H873 C861 0.930 . S
H874 C862 0.956 . S
H875 C862 0.961 . S
H876 C862 0.961 . S
H877 C863 0.958 . S
H878 C863 0.961 . S
H879 C863 0.960 . S
C880 C881 1.391 . S
C880 C882 1.394 . S
C880 H896 0.931 . S
C881 C880 1.391 . S
C881 C885 1.376 . S
C882 C880 1.394 . S
C882 C883 1.369 . S
C882 C886 1.531 . S
C883 C882 1.369 . S
C883 C884 1.410 . S
C883 C891 1.503 . S
C884 C883 1.410 . S
C884 C885 1.392 . S
C884 C887 1.511 . S
C885 C881 1.376 . S
C885 C884 1.392 . S
C885 H897 0.929 . S
C886 C882 1.531 . S
C886 H898 0.960 . S
C886 H899 0.962 . S
C886 H900 0.960 . S
C887 C884 1.511 . S
C887 H901 0.961 . S
C887 H902 0.961 . S
C887 H903 0.961 . S
C888 C889 1.370 . S
C888 C890 1.363 . S
C888 H904 0.931 . S
C889 C888 1.370 . S
C889 C893 1.408 . S
C890 C888 1.363 . S
C890 C891 1.370 . S
C890 C894 1.524 . S
C891 C883 1.503 . S
C891 C890 1.370 . S
C891 C892 1.403 . S
C892 C891 1.403 . S
C892 C893 1.404 . S
C892 C895 1.539 . S
C893 C889 1.408 . S
C893 C892 1.404 . S
C893 H905 0.930 . S
C894 C890 1.524 . S
C894 H906 0.956 . S
C894 H907 0.961 . S
C894 H908 0.961 . S
C895 C892 1.539 . S
C895 H909 0.958 . S
C895 H910 0.961 . S
C895 H911 0.960 . S
H896 C880 0.931 . S
H897 C885 0.929 . S
H898 C886 0.960 . S
H899 C886 0.962 . S
H900 C886 0.960 . S
H901 C887 0.961 . S
H902 C887 0.961 . S
H903 C887 0.961 . S
H904 C888 0.931 . S
H905 C893 0.930 . S
H906 C894 0.956 . S
H907 C894 0.961 . S
H908 C894 0.961 . S
H909 C895 0.958 . S
H910 C895 0.961 . S
H911 C895 0.960 . S
C912 C913 1.391 . S
C912 C914 1.394 . S
C912 H928 0.931 . S
C913 C912 1.391 . S
C913 C917 1.376 . S
C914 C912 1.394 . S
C914 C915 1.369 . S
C914 C918 1.531 . S
C915 C914 1.369 . S
C915 C916 1.410 . S
C915 C923 1.503 . S
C916 C915 1.410 . S
C916 C917 1.392 . S
C916 C919 1.511 . S
C917 C913 1.376 . S
C917 C916 1.392 . S
C917 H929 0.929 . S
C918 C914 1.531 . S
C918 H930 0.960 . S
C918 H931 0.962 . S
C918 H932 0.960 . S
C919 C916 1.511 . S
C919 H933 0.961 . S
C919 H934 0.961 . S
C919 H935 0.961 . S
C920 C921 1.370 . S
C920 C922 1.363 . S
C920 H936 0.931 . S
C921 C920 1.370 . S
C921 C925 1.408 . S
C922 C920 1.363 . S
C922 C923 1.370 . S
C922 C926 1.524 . S
C923 C915 1.503 . S
C923 C922 1.370 . S
C923 C924 1.403 . S
C924 C923 1.403 . S
C924 C925 1.404 . S
C924 C927 1.539 . S
C925 C921 1.408 . S
C925 C924 1.404 . S
C925 H937 0.930 . S
C926 C922 1.524 . S
C926 H938 0.956 . S
C926 H939 0.961 . S
C926 H940 0.961 . S
C927 C924 1.539 . S
C927 H941 0.958 . S
C927 H942 0.961 . S
C927 H943 0.960 . S
H928 C912 0.931 . S
H929 C917 0.929 . S
H930 C918 0.960 . S
H931 C918 0.962 . S
H932 C918 0.960 . S
H933 C919 0.961 . S
H934 C919 0.961 . S
H935 C919 0.961 . S
H936 C920 0.931 . S
H937 C925 0.930 . S
H938 C926 0.956 . S
H939 C926 0.961 . S
H940 C926 0.961 . S
H941 C927 0.958 . S
H942 C927 0.961 . S
H943 C927 0.960 . S
C944 C945 1.391 . S
C944 C946 1.394 . S
C944 H960 0.931 . S
C945 C944 1.391 . S
C945 C949 1.376 . S
C946 C944 1.394 . S
C946 C947 1.369 . S
C946 C950 1.531 . S
C947 C946 1.369 . S
C947 C948 1.410 . S
C947 C955 1.503 . S
C948 C947 1.410 . S
C948 C949 1.392 . S
C948 C951 1.511 . S
C949 C945 1.376 . S
C949 C948 1.392 . S
C949 H961 0.929 . S
C950 C946 1.531 . S
C950 H962 0.960 . S
C950 H963 0.962 . S
C950 H964 0.960 . S
C951 C948 1.511 . S
C951 H965 0.961 . S
C951 H966 0.961 . S
C951 H967 0.961 . S
C952 C953 1.370 . S
C952 C954 1.363 . S
C952 H968 0.931 . S
C953 C952 1.370 . S
C953 C957 1.408 . S
C954 C952 1.363 . S
C954 C955 1.370 . S
C954 C958 1.524 . S
C955 C947 1.503 . S
C955 C954 1.370 . S
C955 C956 1.403 . S
C956 C955 1.403 . S
C956 C957 1.404 . S
C956 C959 1.539 . S
C957 C953 1.408 . S
C957 C956 1.404 . S
C957 H969 0.930 . S
C958 C954 1.524 . S
C958 H970 0.956 . S
C958 H971 0.961 . S
C958 H972 0.961 . S
C959 C956 1.539 . S
C959 H973 0.958 . S
C959 H974 0.961 . S
C959 H975 0.960 . S
H960 C944 0.931 . S
H961 C949 0.929 . S
H962 C950 0.960 . S
H963 C950 0.962 . S
H964 C950 0.960 . S
H965 C951 0.961 . S
H966 C951 0.961 . S
H967 C951 0.961 . S
H968 C952 0.931 . S
H969 C957 0.930 . S
H970 C958 0.956 . S
H971 C958 0.961 . S
H972 C958 0.961 . S
H973 C959 0.958 . S
H974 C959 0.961 . S
H975 C959 0.960 . S
C976 C977 1.391 . S
C976 C978 1.394 . S
C976 H992 0.931 . S
C977 C976 1.391 . S
C977 C981 1.376 . S
C978 C976 1.394 . S
C978 C979 1.369 . S
C978 C982 1.531 . S
C979 C978 1.369 . S
C979 C980 1.410 . S
C979 C987 1.503 . S
C980 C979 1.410 . S
C980 C981 1.392 . S
C980 C983 1.511 . S
C981 C977 1.376 . S
C981 C980 1.392 . S
C981 H993 0.929 . S
C982 C978 1.531 . S
C982 H994 0.960 . S
C982 H995 0.962 . S
C982 H996 0.960 . S
C983 C980 1.511 . S
C983 H997 0.961 . S
C983 H998 0.961 . S
C983 H999 0.961 . S
C984 C985 1.370 . S
C984 C986 1.363 . S
C984 H1000 0.931 . S
C985 C984 1.370 . S
C985 C989 1.408 . S
C986 C984 1.363 . S
C986 C987 1.370 . S
C986 C990 1.524 . S
C987 C979 1.503 . S
C987 C986 1.370 . S
C987 C988 1.403 . S
C988 C987 1.403 . S
C988 C989 1.404 . S
C988 C991 1.539 . S
C989 C985 1.408 . S
C989 C988 1.404 . S
C989 H1001 0.930 . S
C990 C986 1.524 . S
C990 H1002 0.956 . S
C990 H1003 0.961 . S
C990 H1004 0.961 . S
C991 C988 1.539 . S
C991 H1005 0.958 . S
C991 H1006 0.961 . S
C991 H1007 0.960 . S
H992 C976 0.931 . S
H993 C981 0.929 . S
H994 C982 0.960 . S
H995 C982 0.962 . S
H996 C982 0.960 . S
H997 C983 0.961 . S
H998 C983 0.961 . S
H999 C983 0.961 . S
H1000 C984 0.931 . S
H1001 C989 0.930 . S
H1002 C990 0.956 . S
H1003 C990 0.961 . S
H1004 C990 0.961 . S
H1005 C991 0.958 . S
H1006 C991 0.961 . S
H1007 C991 0.960 . S
C1008 C1009 1.391 . S
C1008 C1010 1.394 . S
C1008 H1024 0.931 . S
C1009 C1008 1.391 . S
C1009 C1013 1.376 . S
C1010 C1008 1.394 . S
C1010 C1011 1.369 . S
C1010 C1014 1.531 . S
C1011 C1010 1.369 . S
C1011 C1012 1.410 . S
C1011 C1019 1.503 . S
C1012 C1011 1.410 . S
C1012 C1013 1.392 . S
C1012 C1015 1.511 . S
C1013 C1009 1.376 . S
C1013 C1012 1.392 . S
C1013 H1025 0.929 . S
C1014 C1010 1.531 . S
C1014 H1026 0.960 . S
C1014 H1027 0.962 . S
C1014 H1028 0.960 . S
C1015 C1012 1.511 . S
C1015 H1029 0.961 . S
C1015 H1030 0.961 . S
C1015 H1031 0.961 . S
C1016 C1017 1.370 1_556 S
C1016 C1018 1.363 . S
C1016 H1032 0.931 . S
C1017 C1016 1.370 1_554 S
C1017 C1021 1.408 . S
C1018 C1016 1.363 . S
C1018 C1019 1.370 . S
C1018 C1022 1.524 . S
C1019 C1011 1.503 . S
C1019 C1018 1.370 . S
C1019 C1020 1.403 . S
C1020 C1019 1.403 . S
C1020 C1021 1.404 1_556 S
C1020 C1023 1.539 . S
C1021 C1017 1.408 . S
C1021 C1020 1.404 1_554 S
C1021 H1033 0.930 . S
C1022 C1018 1.524 . S
C1022 H1034 0.956 . S
C1022 H1035 0.961 . S
C1022 H1036 0.961 . S
C1023 C1020 1.539 . S
C1023 H1037 0.958 . S
C1023 H1038 0.961 1_556 S
C1023 H1039 0.960 . S
H1024 C1008 0.931 . S
H1025 C1013 0.929 . S
H1026 C1014 0.960 . S
H1027 C1014 0.962 . S
H1028 C1014 0.960 . S
H1029 C1015 0.961 . S
H1030 C1015 0.961 . S
H1031 C1015 0.961 . S
H1032 C1016 0.931 . S
H1033 C1021 0.930 . S
H1034 C1022 0.956 . S
H1035 C1022 0.961 . S
H1036 C1022 0.961 . S
H1037 C1023 0.958 . S
H1038 C1023 0.961 1_554 S
H1039 C1023 0.960 . S
C1040 C1041 1.391 . S
C1040 C1042 1.394 1_545 S
C1040 H1056 0.931 . S
C1041 C1040 1.391 . S
C1041 C1045 1.376 1_545 S
C1042 C1040 1.394 1_565 S
C1042 C1043 1.369 . S
C1042 C1046 1.531 . S
C1043 C1042 1.369 . S
C1043 C1044 1.410 . S
C1043 C1051 1.503 . S
C1044 C1043 1.410 . S
C1044 C1045 1.392 . S
C1044 C1047 1.511 . S
C1045 C1041 1.376 1_565 S
C1045 C1044 1.392 . S
C1045 H1057 0.929 . S
C1046 C1042 1.531 . S
C1046 H1058 0.960 . S
C1046 H1059 0.962 . S
C1046 H1060 0.945 1_565 S
C1047 C1044 1.511 . S
C1047 H1061 0.961 . S
C1047 H1062 0.961 . S
C1047 H1063 0.961 . S
C1048 C1049 1.370 . S
C1048 C1050 1.363 . S
C1048 H1064 0.931 . S
C1049 C1048 1.370 . S
C1049 C1053 1.408 . S
C1050 C1048 1.363 . S
C1050 C1051 1.370 . S
C1050 C1054 1.524 . S
C1051 C1043 1.503 . S
C1051 C1050 1.370 . S
C1051 C1052 1.403 . S
C1052 C1051 1.403 . S
C1052 C1053 1.404 . S
C1052 C1055 1.539 . S
C1053 C1049 1.408 . S
C1053 C1052 1.404 . S
C1053 H1065 0.930 . S
C1054 C1050 1.524 . S
C1054 H1066 0.956 . S
C1054 H1067 0.961 . S
C1054 H1068 0.961 . S
C1055 C1052 1.539 . S
C1055 H1069 0.958 1_565 S
C1055 H1070 0.961 . S
C1055 H1071 0.960 1_565 S
H1056 C1040 0.931 . S
H1057 C1045 0.929 . S
H1058 C1046 0.960 . S
H1059 C1046 0.962 . S
H1060 C1046 0.945 1_545 S
H1061 C1047 0.961 . S
H1062 C1047 0.961 . S
H1063 C1047 0.961 . S
H1064 C1048 0.931 . S
H1065 C1053 0.930 . S
H1066 C1054 0.956 . S
H1067 C1054 0.961 . S
H1068 C1054 0.961 . S
H1069 C1055 0.958 1_545 S
H1070 C1055 0.961 . S
H1071 C1055 0.960 1_545 S
C1072 C1073 1.391 . S
C1072 C1074 1.394 . S
C1072 H1088 0.931 . S
C1073 C1072 1.391 . S
C1073 C1077 1.376 . S
C1074 C1072 1.394 . S
C1074 C1075 1.369 . S
C1074 C1078 1.531 . S
C1075 C1074 1.369 . S
C1075 C1076 1.410 . S
C1075 C1083 1.503 . S
C1076 C1075 1.410 . S
C1076 C1077 1.392 . S
C1076 C1079 1.511 . S
C1077 C1073 1.376 . S
C1077 C1076 1.392 . S
C1077 H1089 0.929 . S
C1078 C1074 1.531 . S
C1078 H1090 0.960 . S
C1078 H1091 0.962 . S
C1078 H1092 0.960 . S
C1079 C1076 1.511 . S
C1079 H1093 0.961 . S
C1079 H1094 0.961 . S
C1079 H1095 0.961 . S
C1080 C1081 1.370 . S
C1080 C1082 1.363 . S
C1080 H1096 0.931 . S
C1081 C1080 1.370 . S
C1081 C1085 1.408 . S
C1082 C1080 1.363 . S
C1082 C1083 1.370 . S
C1082 C1086 1.524 . S
C1083 C1075 1.503 . S
C1083 C1082 1.370 . S
C1083 C1084 1.403 . S
C1084 C1083 1.403 . S
C1084 C1085 1.404 . S
C1084 C1087 1.539 . S
C1085 C1081 1.408 . S
C1085 C1084 1.404 . S
C1085 H1097 0.930 . S
C1086 C1082 1.524 . S
C1086 H1098 0.956 . S
C1086 H1099 0.961 . S
C1086 H1100 0.961 . S
C1087 C1084 1.539 . S
C1087 H1101 0.958 . S
C1087 H1102 0.961 . S
C1087 H1103 0.960 . S
H1088 C1072 0.931 . S
H1089 C1077 0.929 . S
H1090 C1078 0.960 . S
H1091 C1078 0.962 . S
H1092 C1078 0.960 . S
H1093 C1079 0.961 . S
H1094 C1079 0.961 . S
H1095 C1079 0.961 . S
H1096 C1080 0.931 . S
H1097 C1085 0.930 . S
H1098 C1086 0.956 . S
H1099 C1086 0.961 . S
H1100 C1086 0.961 . S
H1101 C1087 0.958 . S
H1102 C1087 0.961 . S
H1103 C1087 0.960 . S
C1104 C1105 1.391 . S
C1104 C1106 1.394 . S
C1104 H1120 0.931 . S
C1105 C1104 1.391 . S
C1105 C1109 1.376 . S
C1106 C1104 1.394 . S
C1106 C1107 1.369 . S
C1106 C1110 1.531 . S
C1107 C1106 1.369 . S
C1107 C1108 1.410 . S
C1107 C1115 1.503 . S
C1108 C1107 1.410 . S
C1108 C1109 1.392 . S
C1108 C1111 1.511 . S
C1109 C1105 1.376 . S
C1109 C1108 1.392 . S
C1109 H1121 0.929 . S
C1110 C1106 1.531 . S
C1110 H1122 0.960 . S
C1110 H1123 0.962 . S
C1110 H1124 0.960 . S
C1111 C1108 1.511 . S
C1111 H1125 0.961 . S
C1111 H1126 0.961 . S
C1111 H1127 0.961 . S
C1112 C1113 1.370 . S
C1112 C1114 1.363 . S
C1112 H1128 0.931 . S
C1113 C1112 1.370 . S
C1113 C1117 1.408 . S
C1114 C1112 1.363 . S
C1114 C1115 1.370 . S
C1114 C1118 1.524 . S
C1115 C1107 1.503 . S
C1115 C1114 1.370 . S
C1115 C1116 1.403 . S
C1116 C1115 1.403 . S
C1116 C1117 1.404 . S
C1116 C1119 1.539 . S
C1117 C1113 1.408 . S
C1117 C1116 1.404 . S
C1117 H1129 0.930 . S
C1118 C1114 1.524 . S
C1118 H1130 0.956 . S
C1118 H1131 0.961 . S
C1118 H1132 0.961 . S
C1119 C1116 1.539 . S
C1119 H1133 0.958 . S
C1119 H1134 0.961 . S
C1119 H1135 0.960 . S
H1120 C1104 0.931 . S
H1121 C1109 0.929 . S
H1122 C1110 0.960 . S
H1123 C1110 0.962 . S
H1124 C1110 0.960 . S
H1125 C1111 0.961 . S
H1126 C1111 0.961 . S
H1127 C1111 0.961 . S
H1128 C1112 0.931 . S
H1129 C1117 0.930 . S
H1130 C1118 0.956 . S
H1131 C1118 0.961 . S
H1132 C1118 0.961 . S
H1133 C1119 0.958 . S
H1134 C1119 0.961 . S
H1135 C1119 0.960 . S
C1136 C1137 1.391 . S
C1136 C1138 1.394 . S
C1136 H1152 0.931 . S
C1137 C1136 1.391 . S
C1137 C1141 1.376 . S
C1138 C1136 1.394 . S
C1138 C1139 1.369 . S
C1138 C1142 1.531 . S
C1139 C1138 1.369 . S
C1139 C1140 1.410 . S
C1139 C1147 1.503 . S
C1140 C1139 1.410 . S
C1140 C1141 1.392 . S
C1140 C1143 1.511 . S
C1141 C1137 1.376 . S
C1141 C1140 1.392 . S
C1141 H1153 0.929 . S
C1142 C1138 1.531 . S
C1142 H1154 0.960 . S
C1142 H1155 0.962 . S
C1142 H1156 0.960 . S
C1143 C1140 1.511 . S
C1143 H1157 0.961 . S
C1143 H1158 0.961 . S
C1143 H1159 0.961 . S
C1144 C1145 1.370 . S
C1144 C1146 1.363 . S
C1144 H1160 0.931 . S
C1145 C1144 1.370 . S
C1145 C1149 1.408 . S
C1146 C1144 1.363 . S
C1146 C1147 1.370 . S
C1146 C1150 1.524 . S
C1147 C1139 1.503 . S
C1147 C1146 1.370 . S
C1147 C1148 1.403 . S
C1148 C1147 1.403 . S
C1148 C1149 1.404 . S
C1148 C1151 1.539 . S
C1149 C1145 1.408 . S
C1149 C1148 1.404 . S
C1149 H1161 0.930 . S
C1150 C1146 1.524 . S
C1150 H1162 0.956 . S
C1150 H1163 0.961 . S
C1150 H1164 0.961 . S
C1151 C1148 1.539 . S
C1151 H1165 0.958 . S
C1151 H1166 0.961 . S
C1151 H1167 0.960 . S
H1152 C1136 0.931 . S
H1153 C1141 0.929 . S
H1154 C1142 0.960 . S
H1155 C1142 0.962 . S
H1156 C1142 0.960 . S
H1157 C1143 0.961 . S
H1158 C1143 0.961 . S
H1159 C1143 0.961 . S
H1160 C1144 0.931 . S
H1161 C1149 0.930 . S
H1162 C1150 0.956 . S
H1163 C1150 0.961 . S
H1164 C1150 0.961 . S
H1165 C1151 0.958 . S
H1166 C1151 0.961 . S
H1167 C1151 0.960 . S
C1168 C1169 1.391 . S
C1168 C1170 1.394 . S
C1168 H1184 0.931 . S
C1169 C1168 1.391 . S
C1169 C1173 1.376 . S
C1170 C1168 1.394 . S
C1170 C1171 1.369 . S
C1170 C1174 1.531 . S
C1171 C1170 1.369 . S
C1171 C1172 1.410 . S
C1171 C1179 1.503 . S
C1172 C1171 1.410 . S
C1172 C1173 1.392 . S
C1172 C1175 1.511 . S
C1173 C1169 1.376 . S
C1173 C1172 1.392 . S
C1173 H1185 0.929 . S
C1174 C1170 1.531 . S
C1174 H1186 0.960 . S
C1174 H1187 0.962 . S
C1174 H1188 0.960 . S
C1175 C1172 1.511 . S
C1175 H1189 0.961 . S
C1175 H1190 0.961 . S
C1175 H1191 0.961 . S
C1176 C1177 1.370 . S
C1176 C1178 1.363 . S
C1176 H1192 0.931 . S
C1177 C1176 1.370 . S
C1177 C1181 1.408 . S
C1178 C1176 1.363 . S
C1178 C1179 1.370 . S
C1178 C1182 1.524 . S
C1179 C1171 1.503 . S
C1179 C1178 1.370 . S
C1179 C1180 1.403 . S
C1180 C1179 1.403 . S
C1180 C1181 1.404 . S
C1180 C1183 1.539 . S
C1181 C1177 1.408 . S
C1181 C1180 1.404 . S
C1181 H1193 0.930 . S
C1182 C1178 1.524 . S
C1182 H1194 0.956 . S
C1182 H1195 0.961 . S
C1182 H1196 0.961 . S
C1183 C1180 1.539 . S
C1183 H1197 0.958 . S
C1183 H1198 0.961 . S
C1183 H1199 0.960 . S
H1184 C1168 0.931 . S
H1185 C1173 0.929 . S
H1186 C1174 0.960 . S
H1187 C1174 0.962 . S
H1188 C1174 0.960 . S
H1189 C1175 0.961 . S
H1190 C1175 0.961 . S
H1191 C1175 0.961 . S
H1192 C1176 0.931 . S
H1193 C1181 0.930 . S
H1194 C1182 0.956 . S
H1195 C1182 0.961 . S
H1196 C1182 0.961 . S
H1197 C1183 0.958 . S
H1198 C1183 0.961 . S
H1199 C1183 0.960 . S
C1200 C1201 1.391 . S
C1200 C1202 1.394 . S
C1200 H1216 0.931 . S
C1201 C1200 1.391 . S
C1201 C1205 1.376 . S
C1202 C1200 1.394 . S
C1202 C1203 1.369 . S
C1202 C1206 1.531 . S
C1203 C1202 1.369 . S
C1203 C1204 1.410 . S
C1203 C1211 1.503 . S
C1204 C1203 1.410 . S
C1204 C1205 1.392 . S
C1204 C1207 1.511 . S
C1205 C1201 1.376 . S
C1205 C1204 1.392 . S
C1205 H1217 0.929 . S
C1206 C1202 1.531 . S
C1206 H1218 0.960 . S
C1206 H1219 0.962 . S
C1206 H1220 0.960 . S
C1207 C1204 1.511 . S
C1207 H1221 0.961 . S
C1207 H1222 0.961 . S
C1207 H1223 0.961 . S
C1208 C1209 1.370 . S
C1208 C1210 1.363 . S
C1208 H1224 0.931 . S
C1209 C1208 1.370 . S
C1209 C1213 1.408 . S
C1210 C1208 1.363 . S
C1210 C1211 1.370 . S
C1210 C1214 1.524 . S
C1211 C1203 1.503 . S
C1211 C1210 1.370 . S
C1211 C1212 1.403 . S
C1212 C1211 1.403 . S
C1212 C1213 1.404 . S
C1212 C1215 1.539 . S
C1213 C1209 1.408 . S
C1213 C1212 1.404 . S
C1213 H1225 0.930 . S
C1214 C1210 1.524 . S
C1214 H1226 0.956 . S
C1214 H1227 0.961 . S
C1214 H1228 0.961 . S
C1215 C1212 1.539 . S
C1215 H1229 0.958 . S
C1215 H1230 0.961 . S
C1215 H1231 0.960 . S
H1216 C1200 0.931 . S
H1217 C1205 0.929 . S
H1218 C1206 0.960 . S
H1219 C1206 0.962 . S
H1220 C1206 0.960 . S
H1221 C1207 0.961 . S
H1222 C1207 0.961 . S
H1223 C1207 0.961 . S
H1224 C1208 0.931 . S
H1225 C1213 0.930 . S
H1226 C1214 0.956 . S
H1227 C1214 0.961 . S
H1228 C1214 0.961 . S
H1229 C1215 0.958 . S
H1230 C1215 0.961 . S
H1231 C1215 0.960 . S
C1232 C1233 1.391 . S
C1232 C1234 1.394 . S
C1232 H1248 0.931 . S
C1233 C1232 1.391 . S
C1233 C1237 1.376 . S
C1234 C1232 1.394 . S
C1234 C1235 1.369 . S
C1234 C1238 1.531 . S
C1235 C1234 1.369 . S
C1235 C1236 1.410 . S
C1235 C1243 1.466 1_554 S
C1236 C1235 1.410 . S
C1236 C1237 1.392 . S
C1236 C1239 1.511 . S
C1237 C1233 1.376 . S
C1237 C1236 1.392 . S
C1237 H1249 0.929 . S
C1238 C1234 1.531 . S
C1238 H1250 0.960 . S
C1238 H1251 0.962 . S
C1238 H1252 0.960 . S
C1239 C1236 1.511 . S
C1239 H1253 0.961 . S
C1239 H1254 0.958 . S
C1239 H1255 0.961 . S
C1240 C1241 1.370 . S
C1240 C1242 1.363 . S
C1240 H1256 0.931 . S
C1241 C1240 1.370 . S
C1241 C1245 1.408 . S
C1242 C1240 1.363 . S
C1242 C1243 1.410 . S
C1242 C1246 1.524 . S
C1243 C1235 1.466 1_556 S
C1243 C1242 1.410 . S
C1243 C1244 1.401 1_556 S
C1244 C1243 1.401 1_554 S
C1244 C1245 1.388 1_554 S
C1244 C1247 1.556 . S
C1245 C1241 1.408 . S
C1245 C1244 1.388 1_556 S
C1245 H1257 0.930 . S
C1246 C1242 1.524 . S
C1246 H1258 0.956 . S
C1246 H1259 0.961 . S
C1246 H1260 0.961 . S
C1247 C1244 1.556 . S
C1247 H1261 0.958 . S
C1247 H1262 0.961 . S
C1247 H1263 0.960 . S
H1248 C1232 0.931 . S
H1249 C1237 0.929 . S
H1250 C1238 0.960 . S
H1251 C1238 0.962 . S
H1252 C1238 0.960 . S
H1253 C1239 0.961 . S
H1254 C1239 0.958 . S
H1255 C1239 0.961 . S
H1256 C1240 0.931 . S
H1257 C1245 0.930 . S
H1258 C1246 0.956 . S
H1259 C1246 0.961 . S
H1260 C1246 0.961 . S
H1261 C1247 0.958 . S
H1262 C1247 0.961 . S
H1263 C1247 0.960 . S
C1264 C1265 1.391 . S
C1264 C1266 1.394 . S
C1264 H1280 0.931 . S
C1265 C1264 1.391 . S
C1265 C1269 1.376 . S
C1266 C1264 1.394 . S
C1266 C1267 1.369 . S
C1266 C1270 1.531 . S
C1267 C1266 1.369 . S
C1267 C1268 1.410 . S
C1267 C1275 1.503 . S
C1268 C1267 1.410 . S
C1268 C1269 1.392 . S
C1268 C1271 1.511 . S
C1269 C1265 1.376 . S
C1269 C1268 1.392 . S
C1269 H1281 0.929 . S
C1270 C1266 1.531 . S
C1270 H1282 0.960 . S
C1270 H1283 0.962 . S
C1270 H1284 0.960 . S
C1271 C1268 1.511 . S
C1271 H1285 0.961 . S
C1271 H1286 0.961 . S
C1271 H1287 0.961 . S
C1272 C1273 1.370 . S
C1272 C1274 1.363 . S
C1272 H1288 0.931 . S
C1273 C1272 1.370 . S
C1273 C1277 1.408 . S
C1274 C1272 1.363 . S
C1274 C1275 1.370 . S
C1274 C1278 1.524 . S
C1275 C1267 1.503 . S
C1275 C1274 1.370 . S
C1275 C1276 1.403 . S
C1276 C1275 1.403 . S
C1276 C1277 1.404 . S
C1276 C1279 1.539 . S
C1277 C1273 1.408 . S
C1277 C1276 1.404 . S
C1277 H1289 0.930 . S
C1278 C1274 1.524 . S
C1278 H1290 0.956 . S
C1278 H1291 0.961 . S
C1278 H1292 0.961 . S
C1279 C1276 1.539 . S
C1279 H1293 0.958 . S
C1279 H1294 0.961 . S
C1279 H1295 0.960 . S
H1280 C1264 0.931 . S
H1281 C1269 0.929 . S
H1282 C1270 0.960 . S
H1283 C1270 0.962 . S
H1284 C1270 0.960 . S
H1285 C1271 0.961 . S
H1286 C1271 0.961 . S
H1287 C1271 0.961 . S
H1288 C1272 0.931 . S
H1289 C1277 0.930 . S
H1290 C1278 0.956 . S
H1291 C1278 0.961 . S
H1292 C1278 0.961 . S
H1293 C1279 0.958 . S
H1294 C1279 0.961 . S
H1295 C1279 0.960 . S
C537 C521 1.445 . S
C529 C51 1.420 . S
C561 C125 1.416 . S
C569 C450 1.444 . S
C593 C217 2.607 . S
C601 C464 2.635 . S
C625 C291 1.554 . S
C633 C478 1.558 . S
C665 C492 0.957 . S
C657 C347 0.981 . S
C689 C421 1.182 . S
C697 C507 1.100 . S
C721 C143 2.214 . S
C729 C465 2.209 . S
C753 C199 1.566 . S
C761 C479 1.554 . S
C785 C273 0.718 . S
C793 C493 0.730 . S
C825 C506 1.711 . S
C817 C365 1.681 . S
C857 C520 1.788 . S
C849 C439 1.787 . S
C889 C451 2.554 . S
C881 C69 2.535 . S
C913 C63 1.493 . S
C921 C467 1.578 . S
C945 C137 1.839 . S
C953 C481 1.932 . S
C985 C495 1.396 . S
C977 C187 1.306 . S
C1009 C261 1.808 . S
C1017 C508 1.794 . S
C1049 C522 1.577 . S
C1041 C359 1.467 . S
C1081 C453 1.467 . S
C1073 C433 1.412 . S
C1113 C523 1.889 . S
C1105 C113 1.957 . S
C1137 C211 1.317 . S
C1145 C452 1.411 . S
C1177 C466 1.924 . S
C1169 C285 1.827 . S
C1201 C335 1.321 . S
C1209 C480 1.433 . S
C1233 C409 1.657 . S
C1241 C494 1.632 . S
C1265 C39 1.576 . S
C1273 C509 1.611 . S
