# Generated by pormake.
# Topology pth, (4,4)-cn, num edge types: 1
# Building blocks:
#     Node 0, Type 0, BuildingBlock: QUQFOY_clean_sbu_3, # of connection points: 4
#     Node 1, Type 0, BuildingBlock: QUQFOY_clean_sbu_3, # of connection points: 4
#     Node 2, Type 0, BuildingBlock: QUQFOY_clean_sbu_3, # of connection points: 4
#     Node 3, Type 1, BuildingBlock: MIFKUJ_clean_linker_1, # of connection points: 4
#     Node 4, Type 1, BuildingBlock: MIFKUJ_clean_linker_1, # of connection points: 4
#     Node 5, Type 1, BuildingBlock: MIFKUJ_clean_linker_1, # of connection points: 4
#     Edge 6, Type (0, 1), BuildingBlock: XIVTED_clean_linker_0, # of connection points: 2
#     Edge 7, Type (0, 1), BuildingBlock: XIVTED_clean_linker_0, # of connection points: 2
#     Edge 8, Type (0, 1), BuildingBlock: XIVTED_clean_linker_0, # of connection points: 2
#     Edge 9, Type (0, 1), BuildingBlock: XIVTED_clean_linker_0, # of connection points: 2
#     Edge 10, Type (0, 1), BuildingBlock: XIVTED_clean_linker_0, # of connection points: 2
#     Edge 11, Type (0, 1), BuildingBlock: XIVTED_clean_linker_0, # of connection points: 2
#     Edge 12, Type (0, 1), BuildingBlock: XIVTED_clean_linker_0, # of connection points: 2
#     Edge 13, Type (0, 1), BuildingBlock: XIVTED_clean_linker_0, # of connection points: 2
#     Edge 14, Type (0, 1), BuildingBlock: XIVTED_clean_linker_0, # of connection points: 2
#     Edge 15, Type (0, 1), BuildingBlock: XIVTED_clean_linker_0, # of connection points: 2
#     Edge 16, Type (0, 1), BuildingBlock: XIVTED_clean_linker_0, # of connection points: 2
#     Edge 17, Type (0, 1), BuildingBlock: XIVTED_clean_linker_0, # of connection points: 2
# Relax obj value: 0.016
# Max RMSD: 0.073
# Mean RMSD: 0.058
data_MOF--net-pth--node1-QUQFOY_clean_sbu_3--node2-MIFKUJ_clean_linker_1--edge1-XIVTED_clean_linker_0
_symmetry_space_group_name_H-M    P1
_symmetry_Int_Tables_number       1
_symmetry_cell_setting            triclinic
loop_
_symmetry_equiv_pos_as_xyz
'x, y, z'
_cell_length_a     30.177836
_cell_length_b     29.957286
_cell_length_c     66.557657
_cell_angle_alpha  89.991235
_cell_angle_beta   90.613554
_cell_angle_gamma 120.70611
loop_
_atom_site_label
_atom_site_type_symbol
_atom_site_fract_x
_atom_site_fract_y
_atom_site_fract_z
_atom_type_partial_charge
C0 C 0.98318 0.13201 0.05759 0.0
O1 O 0.95776 0.12672 0.04155 0.0
Cd2 Cd 0.94789 0.06872 0.0146 0.0
O3 O 0.00525 0.10583 0.06025 0.0
Cd4 Cd 0.01605 0.04042 0.04167 0.0
C5 C 0.07524 0.12142 0.00303 0.0
O6 O 0.92852 0.98664 0.02792 0.0
O7 O -0.01259 0.97511 0.01518 0.0
O8 O 0.00578 -0.0021 0.0738 0.0
C9 C 0.94008 0.96079 0.01623 0.0
O10 O 0.03011 0.10979 -0.00261 0.0
C11 C 0.04469 -0.00743 0.07221 0.0
O12 O 0.08276 0.10563 0.01981 0.0
O13 O 0.07165 0.01094 0.05652 0.0
C14 C 0.12028 0.08284 0.39353 0.0
O15 O 0.14247 0.11292 0.37884 0.0
Cd16 Cd 0.09849 0.12405 0.35079 0.0
O17 O 0.07129 0.05757 0.39465 0.0
Cd18 Cd -0.00393 0.04781 0.37523 0.0
C19 C 0.02622 -0.00447 0.33648 0.0
O20 O 0.03252 0.13721 0.36349 0.0
O21 O 0.96099 0.07959 0.34957 0.0
O22 O 0.95987 0.05006 0.4075 0.0
C23 C -0.00412 0.12691 0.35129 0.0
O24 O 0.06136 0.0419 0.33255 0.0
C25 C 0.91529 0.01141 0.40385 0.0
O26 O -0.00157 0.98547 0.35203 0.0
O27 O 0.90858 0.98846 0.38707 0.0
C28 C 0.93289 0.07875 0.68079 0.0
O29 O 0.94253 0.11132 0.69482 0.0
Cd30 Cd -0.00608 0.11858 0.72374 0.0
O31 O 0.95485 0.052 0.68057 0.0
Cd32 Cd 0.0215 0.04382 0.69972 0.0
C33 C 0.93489 0.98876 0.7367 0.0
O34 O 0.07516 0.13249 0.71287 0.0
O35 O 0.08622 0.07318 0.7263 0.0
O36 O 0.06366 0.05235 0.66787 0.0
C37 C 0.10002 0.12077 0.72517 0.0
O38 O 0.94407 0.03456 0.74018 0.0
C39 C 0.06819 0.01275 0.67001 0.0
O40 O 0.95643 0.97962 0.72219 0.0
O41 O 0.04961 0.98629 0.68588 0.0
H42 H 0.10447 0.52903 0.1695 0.0
H43 H 0.0995 0.46229 0.14682 0.0
H44 H 0.95594 0.34879 0.1736 0.0
H45 H 0.95971 0.41584 0.19569 0.0
H46 H 0.04788 0.56826 0.17075 0.0
H47 H 0.09286 0.48277 0.22077 0.0
H48 H 0.08837 0.41445 0.24238 0.0
H49 H 0.93923 0.38054 0.26321 0.0
H50 H 0.94352 0.44812 0.24134 0.0
H51 H 0.94389 0.58475 0.23917 0.0
H52 H 0.93733 0.6505 0.25853 0.0
H53 H 0.09345 0.76472 0.24242 0.0
H54 H 0.09934 0.69896 0.2229 0.0
H55 H 0.01097 0.54908 0.24368 0.0
H56 H 0.96742 0.63451 0.19217 0.0
H57 H 0.97768 0.70888 0.1732 0.0
H58 H 0.13199 0.74816 0.15727 0.0
H59 H 0.12089 0.67291 0.17601 0.0
C60 C 0.03271 0.47758 0.18448 0.0
C61 C 0.072 0.48976 0.17059 0.0
C62 C 0.0692 0.45167 0.15765 0.0
C63 C 0.02737 0.40051 0.15851 0.0
C64 C -0.01109 0.38784 0.17282 0.0
C65 C -0.00876 0.42615 0.18552 0.0
C66 C 0.03301 0.51937 0.19665 0.0
C67 C 0.04079 0.56428 0.18678 0.0
C68 C 0.02261 0.51412 0.21749 0.0
C69 C 0.0184 0.47032 0.22938 0.0
C70 C 0.05888 0.46005 0.22977 0.0
C71 C 0.05648 0.42138 0.24226 0.0
C72 C 0.01351 0.39226 0.25454 0.0
C73 C 0.97259 0.40194 0.25378 0.0
C74 C 0.97513 0.44074 0.24139 0.0
C75 C 0.0219 0.63713 0.22946 0.0
C76 C 0.97665 0.624 0.23985 0.0
C77 C 0.97304 0.66156 0.25095 0.0
C78 C 0.0148 0.71293 0.25197 0.0
C79 C 0.06023 0.72579 0.24164 0.0
C80 C 0.06376 0.68823 0.23053 0.0
C81 C 0.02548 0.59713 0.21772 0.0
C82 C 0.0184 0.55279 0.22767 0.0
C83 C 0.03715 0.60314 0.19704 0.0
C84 C 0.04353 0.64844 0.1856 0.0
C85 C 0.00356 0.65936 0.18469 0.0
C86 C 0.00963 0.70209 0.17391 0.0
C87 C 0.05581 0.73476 0.16378 0.0
C88 C 0.09574 0.72354 0.16469 0.0
C89 C 0.08954 0.68065 0.17544 0.0
H90 H 0.57325 0.04444 0.4956 0.0
H91 H 0.63897 0.0407 0.47575 0.0
H92 H 0.62377 0.9149 0.51237 0.0
H93 H 0.55595 0.9166 0.53162 0.0
H94 H 0.48062 0.98763 0.49975 0.0
H95 H 0.61308 0.0616 0.54653 0.0
H96 H 0.68704 0.07871 0.56754 0.0
H97 H 0.59285 0.93406 0.59856 0.0
H98 H 0.51876 0.91681 0.57727 0.0
H99 H 0.36097 0.89749 0.56879 0.0
H100 H 0.29087 0.89487 0.58787 0.0
H101 H 0.34237 0.05271 0.57007 0.0
H102 H 0.41142 0.05434 0.55067 0.0
H103 H 0.47074 0.97228 0.57396 0.0
H104 H 0.33367 0.92129 0.51999 0.0
H105 H 0.27754 0.93873 0.49859 0.0
H106 H 0.40787 0.08942 0.48426 0.0
H107 H 0.46346 0.07105 0.50507 0.0
C108 C 0.55958 0.98099 0.51525 0.0
C109 C 0.58358 0.01568 0.49931 0.0
C110 C 0.62122 0.01366 0.488 0.0
C111 C 0.63624 0.97752 0.49258 0.0
C112 C 0.61303 0.94338 0.50868 0.0
C113 C 0.57455 0.94462 0.51974 0.0
C114 C 0.51769 0.98162 0.52666 0.0
C115 C 0.47892 0.98462 0.516 0.0
C116 C 0.5156 0.97905 0.5479 0.0
C117 C 0.56054 0.9877 0.56023 0.0
C118 C 0.60845 0.03325 0.5577 0.0
C119 C 0.65057 0.0432 0.56981 0.0
C120 C 0.64566 0.00776 0.5847 0.0
C121 C 0.59782 0.96181 0.58707 0.0
C122 C 0.55546 0.95207 0.57503 0.0
C123 C 0.391 0.9759 0.5582 0.0
C124 C 0.35689 0.93137 0.56897 0.0
C125 C 0.31701 0.93008 0.57994 0.0
C126 C 0.31083 0.97356 0.58051 0.0
C127 C 0.34527 0.01816 0.56967 0.0
C128 C 0.38496 0.01929 0.55864 0.0
C129 C 0.4337 0.97728 0.54693 0.0
C130 C 0.4725 0.97455 0.55769 0.0
C131 C 0.43804 0.98433 0.52592 0.0
C132 C 0.4027 -0.00524 0.51397 0.0
C133 C 0.34987 0.95809 0.51227 0.0
C134 C 0.31788 0.96826 0.50012 0.0
C135 C 0.3383 0.01529 0.48952 0.0
C136 C 0.39103 0.05233 0.49179 0.0
C137 C 0.42286 0.04202 0.50376 0.0
H138 H 0.49179 0.43271 0.83268 0.0
H139 H 0.42477 0.36835 0.81033 0.0
H140 H 0.31471 0.40376 0.83546 0.0
H141 H 0.38226 0.46878 0.85761 0.0
H142 H 0.52855 0.53591 0.83367 0.0
H143 H 0.44184 0.39224 0.87814 0.0
H144 H 0.37405 0.32382 0.8985 0.0
H145 H 0.35614 0.43904 0.93034 0.0
H146 H 0.42227 0.50714 0.90949 0.0
H147 H 0.55128 0.64507 0.90647 0.0
H148 H 0.61592 0.71179 0.92871 0.0
H149 H 0.72777 0.67228 0.90882 0.0
H150 H 0.66316 0.60704 0.88598 0.0
H151 H 0.51763 0.53953 0.90783 0.0
H152 H 0.60083 0.68212 0.86322 0.0
H153 H 0.66841 0.75177 0.84367 0.0
H154 H 0.69112 0.63949 0.81164 0.0
H155 H 0.62607 0.57046 0.83237 0.0
C156 C 0.4419 0.45522 0.84688 0.0
C157 C 0.45316 0.42642 0.83343 0.0
C158 C 0.41478 0.38948 0.82076 0.0
C159 C 0.36448 0.381 0.82117 0.0
C160 C 0.35322 0.40977 0.83471 0.0
C161 C 0.39161 0.44654 0.84749 0.0
C162 C 0.48347 0.4961 0.85955 0.0
C163 C 0.52661 0.53628 0.84993 0.0
C164 C 0.48 0.49717 0.88071 0.0
C165 C 0.43688 0.45493 0.89209 0.0
C166 C 0.42253 0.40274 0.88915 0.0
C167 C 0.3841 0.3637 0.90088 0.0
C168 C 0.36029 0.37636 0.91604 0.0
C169 C 0.37441 0.42841 0.9189 0.0
C170 C 0.41209 0.46726 0.90697 0.0
C171 C 0.60257 0.62134 0.89458 0.0
C172 C 0.58989 0.65115 0.90683 0.0
C173 C 0.62683 0.689 0.91965 0.0
C174 C 0.67707 0.69723 0.92074 0.0
C175 C 0.68976 0.66758 0.90821 0.0
C176 C 0.65285 0.6301 0.89519 0.0
C177 C 0.56226 0.57935 0.88194 0.0
C178 C 0.51951 0.53894 0.89157 0.0
C179 C 0.56602 0.57814 0.86082 0.0
C180 C 0.60881 0.621 0.84954 0.0
C181 C 0.62131 0.6726 0.85239 0.0
C182 C 0.65945 0.71239 0.84089 0.0
C183 C 0.68515 0.70139 0.82591 0.0
C184 C 0.6728 0.64968 0.8232 0.0
C185 C 0.63517 0.61 0.83493 0.0
H186 H 0.01036 0.13649 0.09728 0.0
H187 H 0.03518 0.40993 0.11782 0.0
H188 H 0.96885 0.21447 0.05295 0.0
H189 H 0.0074 0.30185 0.16564 0.0
H190 H 0.02387 0.3438 0.09333 0.0
H191 H 0.02139 0.20168 0.12226 0.0
C192 C 0.00354 0.16727 0.09281 0.0
C193 C -0.01141 0.17005 0.07301 0.0
C194 C 0.02028 0.33458 0.10919 0.0
C195 C 0.00183 0.24484 0.10138 0.0
C196 C 0.0271 0.37235 0.12314 0.0
C197 C 0.02229 0.36121 0.14374 0.0
C198 C 0.00938 0.28562 0.11589 0.0
C199 C 0.01118 0.31176 0.14986 0.0
C200 C 0.00969 0.20427 0.10707 0.0
C201 C 0.98015 0.21068 0.06806 0.0
N202 N 0.0054 0.27577 0.13599 0.0
N203 N -0.0127 0.24673 0.0821 0.0
H204 H 0.81193 0.95279 0.39584 0.0
H205 H 0.72467 0.98204 0.5056 0.0
H206 H 0.92114 0.03725 0.44359 0.0
H207 H 0.63707 0.96787 0.45191 0.0
H208 H 0.79181 0.98291 0.4847 0.0
H209 H 0.74167 0.93782 0.4182 0.0
C210 C 0.82106 0.96748 0.41112 0.0
C211 C 0.8724 -0.00337 0.41786 0.0
C212 C 0.75769 0.97929 0.47755 0.0
C213 C 0.79243 0.97947 0.44342 0.0
C214 C 0.71946 0.97861 0.48943 0.0
C215 C 0.67569 0.97527 0.48038 0.0
C216 C 0.75143 0.97556 0.45657 0.0
C217 C 0.67062 0.97105 0.45939 0.0
C218 C 0.78103 0.95919 0.42379 0.0
C219 C 0.88208 0.01492 0.43777 0.0
N220 N 0.70803 0.97121 0.44817 0.0
N221 N 0.84243 0.00609 0.44987 0.0
H222 H 0.8643 0.98883 0.76189 0.0
H223 H 0.7746 0.71292 0.81014 0.0
H224 H 0.92177 0.89144 0.74116 0.0
H225 H 0.68252 0.78571 0.81127 0.0
H226 H 0.83518 0.78166 0.7879 0.0
H227 H 0.80411 0.91872 0.78351 0.0
C228 C 0.86434 0.9527 0.7619 0.0
C229 C 0.89814 0.94598 0.74968 0.0
C230 C 0.80163 0.78239 0.79305 0.0
C231 C 0.82937 0.86559 0.77454 0.0
C232 C 0.76687 0.74308 0.80569 0.0
C233 C 0.72323 0.74337 0.81272 0.0
C234 C 0.7931 0.82264 0.78759 0.0
C235 C 0.71601 0.78419 0.80667 0.0
C236 C 0.82979 0.91262 0.7742 0.0
C237 C 0.89623 0.89817 0.75028 0.0
N238 N 0.75064 0.82219 0.79455 0.0
N239 N 0.86257 0.8598 0.76262 0.0
H240 H 0.11206 0.95699 0.06954 0.0
H241 H 0.02226 0.80175 0.17323 0.0
H242 H 0.00142 0.96037 0.10911 0.0
H243 H 0.10262 0.77 0.12729 0.0
H244 H 0.02634 0.87076 0.15236 0.0
H245 H 0.12166 0.89978 0.09323 0.0
C246 C 0.0903 0.94625 0.08332 0.0
C247 C 0.05556 0.96308 0.08729 0.0
C248 C 0.04332 0.84885 0.14691 0.0
C249 C 0.06626 0.89771 0.11438 0.0
C250 C 0.04076 0.80922 0.15876 0.0
C251 C 0.06157 0.77948 0.15193 0.0
C252 C 0.06703 0.8591 0.12808 0.0
C253 C 0.0863 0.792 0.13326 0.0
C254 C 0.09562 0.91344 0.09678 0.0
C255 C 0.02832 0.94795 0.10537 0.0
N256 N 0.08807 0.83065 0.12194 0.0
N257 N 0.03407 0.91596 0.11819 0.0
H258 H 0.08768 0.02539 0.42817 0.0
H259 H 0.36415 0.06244 0.45283 0.0
H260 H 0.22441 0.12218 0.39378 0.0
H261 H 0.23769 -0.00904 0.4943 0.0
H262 H 0.31153 0.08106 0.43043 0.0
H263 H 0.1401 0.00927 0.45209 0.0
C264 C 0.12871 0.04347 0.42568 0.0
C265 C 0.15162 0.07511 0.40888 0.0
C266 C 0.29524 0.06147 0.44445 0.0
C267 C 0.21162 0.05644 0.4361 0.0
C268 C 0.32541 0.05101 0.45734 0.0
C269 C 0.30559 0.02551 0.47563 0.0
C270 C 0.2445 0.046 0.44971 0.0
C271 C 0.25451 0.01036 0.48031 0.0
C272 C 0.15857 0.03423 0.43935 0.0
C273 C 0.20498 0.09752 0.40647 0.0
N274 N 0.22569 0.02084 0.46743 0.0
N275 N 0.23302 0.08752 0.41986 0.0
H276 H 0.16295 0.10695 0.75086 0.0
H277 H 0.29384 0.39201 0.79883 0.0
H278 H 0.12776 0.2226 0.73083 0.0
H279 H 0.34393 0.28331 0.81169 0.0
H280 H 0.22942 0.32917 0.77521 0.0
H281 H 0.2268 0.17013 0.77432 0.0
C282 C 0.16875 0.14573 0.75137 0.0
C283 C 0.13999 0.15955 0.73887 0.0
C284 C 0.25453 0.3191 0.7832 0.0
C285 C 0.21296 0.2321 0.76581 0.0
C286 C 0.29102 0.35477 0.79678 0.0
C287 C 0.3243 0.34285 0.80723 0.0
C288 C 0.25107 0.27103 0.78014 0.0
C289 C 0.31944 0.29432 0.8038 0.0
C290 C 0.20526 0.18181 0.76477 0.0
C291 C 0.14919 0.21037 0.74016 0.0
N292 N 0.28348 0.26019 0.79058 0.0
N293 N 0.18479 0.2448 0.75346 0.0
H294 H 0.88771 -0.00026 0.65307 0.0
H295 H 0.71105 0.09936 0.60382 0.0
H296 H 0.88892 0.13755 0.67298 0.0
H297 H 0.68099 0.94327 0.59603 0.0
H298 H 0.7837 0.11844 0.62606 0.0
H299 H 0.81936 0.98312 0.62884 0.0
C300 C 0.87393 0.02674 0.65226 0.0
C301 C 0.89398 0.07004 0.66515 0.0
C302 C 0.76126 0.08003 0.61948 0.0
C303 C 0.81579 0.05115 0.63745 0.0
C304 C 0.71999 0.0692 0.6067 0.0
C305 C 0.68999 0.01965 0.59808 0.0
C306 C 0.77296 0.04117 0.62355 0.0
C307 C 0.70288 0.98183 0.60252 0.0
C308 C 0.83473 0.01705 0.63849 0.0
C309 C 0.87446 0.10356 0.66343 0.0
N310 N 0.74353 -0.00658 0.61492 0.0
N311 N 0.83648 0.09341 0.64985 0.0
H312 H 0.95765 0.91536 0.98414 0.0
H313 H 0.66071 0.72031 0.95891 0.0
H314 H 0.83499 0.91457 0.01722 0.0
H315 H 0.78148 0.7618 0.91576 0.0
H316 H 0.72427 0.78397 0.98234 0.0
H317 H 0.89368 0.8507 0.961 0.0
C318 C 0.91722 0.90141 0.98659 0.0
C319 C 0.90156 0.92043 0.0026 0.0
C320 C 0.73675 0.77915 0.96772 0.0
C321 C 0.82827 0.84637 0.97622 0.0
C322 C 0.70045 0.74302 0.95424 0.0
C323 C 0.71555 0.73571 0.9352 0.0
C324 C 0.78872 0.80781 0.96227 0.0
C325 C 0.76799 0.76546 0.93032 0.0
C326 C 0.88079 0.86469 0.97332 0.0
C327 C 0.84869 0.90105 0.00503 0.0
N328 N 0.80268 0.80009 0.94379 0.0
N329 N 0.81386 0.86491 -0.008 0.0
H330 H 0.06837 0.00421 0.29955 0.0
H331 H 0.97021 0.70223 0.28879 0.0
H332 H 0.96883 0.89017 0.34272 0.0
H333 H 0.05147 0.81481 0.24238 0.0
H334 H 0.96781 0.76962 0.30862 0.0
H335 H 0.06149 0.9347 0.27836 0.0
C336 C 0.04486 0.96449 0.30457 0.0
C337 C 0.01937 0.95307 0.32303 0.0
C338 C 0.98593 0.77948 0.29406 0.0
C339 C 0.01153 0.87304 0.29877 0.0
C340 C -0.01287 0.74097 0.28267 0.0
C341 C 0.01135 0.7529 0.26391 0.0
C342 C 0.00931 0.83036 0.28668 0.0
C343 C 0.03324 0.80399 0.25691 0.0
C344 C 0.04088 0.92474 0.29241 0.0
C345 C -0.01081 0.90078 0.32862 0.0
N346 N 0.03188 0.84082 0.26832 0.0
N347 N -0.01359 0.86268 0.3166 0.0
H348 H 0.10101 0.055 0.63289 0.0
H349 H 0.27614 0.92955 0.61756 0.0
H350 H 0.10101 0.94295 0.67365 0.0
H351 H 0.25143 0.01654 0.57157 0.0
H352 H 0.21127 0.93271 0.6381 0.0
H353 H 0.15518 0.04042 0.61004 0.0
C354 C 0.11207 0.02698 0.63696 0.0
C355 C 0.09669 0.00034 0.65526 0.0
C356 C 0.21979 0.9508 0.62345 0.0
C357 C 0.15923 0.98383 0.62923 0.0
C358 C 0.25671 0.94881 0.61164 0.0
C359 C 0.26962 0.97305 0.59279 0.0
C360 C 0.19576 0.97756 0.61647 0.0
C361 C 0.24359 -0.00183 0.58614 0.0
C362 C 0.143 0.01865 0.62389 0.0
C363 C 0.11202 0.96436 0.65971 0.0
N364 N 0.20821 4e-05 0.59801 0.0
N365 N 0.14288 0.95752 0.64688 0.0
H366 H 0.07275 0.13498 0.96265 0.0
H367 H 0.35691 0.37565 0.95699 0.0
H368 H 0.17729 0.18334 0.01354 0.0
H369 H 0.27494 0.28489 0.90465 0.0
H370 H 0.28953 0.30975 0.97832 0.0
H371 H 0.14436 0.19368 0.94131 0.0
C372 C 0.11085 0.15786 0.96932 0.0
C373 C 0.11909 0.15451 0.98992 0.0
C374 C 0.28654 0.30408 0.96218 0.0
C375 C 0.20102 0.22207 0.9656 0.0
C376 C 0.3247 0.34172 0.95003 0.0
C377 C 0.32116 0.33563 0.92907 0.0
C378 C 0.24413 0.26059 0.95326 0.0
C379 C 0.27904 0.29084 0.92076 0.0
C380 C 0.15171 0.19113 0.95711 0.0
C381 C 0.16932 0.18474 -0.00227 0.0
N382 N 0.24178 0.25524 0.93288 0.0
N383 N 0.20837 0.2178 0.98559 0.0
H384 H 0.92121 0.11591 0.3248 0.0
H385 H 0.09111 0.40069 0.27894 0.0
H386 H 0.07355 0.22794 0.34675 0.0
H387 H 0.93221 0.29497 0.26234 0.0
H388 H 0.08684 0.33672 0.30289 0.0
H389 H 0.92546 0.18032 0.30121 0.0
C390 C 0.95551 0.15417 0.32471 0.0
C391 C -0.00287 0.16658 0.33774 0.0
C392 C 0.05291 0.32751 0.29401 0.0
C393 C 0.0024 0.24045 0.31065 0.0
C394 C 0.05545 0.36383 0.28022 0.0
C395 C 0.01195 0.3531 0.26862 0.0
C396 C 0.00661 0.27997 0.29614 0.0
C397 C 0.9665 0.30505 0.27113 0.0
C398 C 0.95791 0.19093 0.31122 0.0
C399 C 0.04055 0.21676 0.33698 0.0
N400 N 0.96505 0.27025 0.28459 0.0
N401 N 0.04215 0.25182 0.32359 0.0
loop_
_geom_bond_atom_site_label_1
_geom_bond_atom_site_label_2
_geom_bond_distance
_geom_bond_site_symmetry_2
_ccdc_geom_bond_type
C0 O1 1.306 1_455 S
C0 O3 1.160 . S
O1 C0 1.306 1_655 S
O1 Cd2 2.228 . S
Cd2 O1 2.228 . S
Cd2 O6 2.273 . S
Cd2 O10 2.277 1_655 S
O3 C0 1.160 . S
O3 Cd4 2.203 . S
Cd4 O3 2.203 . S
Cd4 O6 2.411 1_455 S
Cd4 O7 2.333 1_445 S
Cd4 O8 2.354 1_545 S
Cd4 O12 2.277 . S
Cd4 O13 2.356 1_545 S
C5 O10 1.209 . S
C5 O12 1.226 . S
O6 Cd2 2.273 . S
O6 Cd4 2.411 1_655 S
O6 C9 1.320 1_545 S
O7 Cd4 2.333 1_665 S
O7 C9 1.214 . S
O8 Cd4 2.354 1_565 S
O8 C11 1.275 . S
C9 O6 1.320 1_565 S
C9 O7 1.214 . S
O10 Cd2 2.277 1_455 S
O10 C5 1.209 . S
C11 O8 1.275 . S
C11 O13 1.282 . S
O12 Cd4 2.277 . S
O12 C5 1.226 . S
O13 Cd4 2.356 1_565 S
O13 C11 1.282 . S
C14 O15 1.306 . S
C14 O17 1.160 . S
O15 C14 1.306 . S
O15 Cd16 2.228 . S
Cd16 O15 2.228 . S
Cd16 O20 2.273 . S
Cd16 O24 2.277 . S
O17 C14 1.160 . S
O17 Cd18 2.203 . S
Cd18 O17 2.203 . S
Cd18 O20 2.411 . S
Cd18 O21 2.333 1_455 S
Cd18 O22 2.352 1_455 S
Cd18 O26 2.277 1_445 S
Cd18 O27 2.356 1_445 S
C19 O24 1.209 1_565 S
C19 O26 1.226 1_455 S
O20 Cd16 2.273 . S
O20 Cd18 2.411 . S
O20 C23 1.320 . S
O21 Cd18 2.333 1_655 S
O21 C23 1.214 1_655 S
O22 Cd18 2.352 1_655 S
O22 C25 1.258 . S
C23 O20 1.320 . S
C23 O21 1.214 1_455 S
O24 Cd16 2.277 . S
O24 C19 1.209 1_545 S
C25 O22 1.258 . S
C25 O27 1.282 1_545 S
O26 Cd18 2.277 1_665 S
O26 C19 1.226 1_655 S
O27 Cd18 2.356 1_665 S
O27 C25 1.282 1_565 S
C28 O29 1.306 . S
C28 O31 1.160 . S
O29 C28 1.306 . S
O29 Cd30 2.228 . S
Cd30 O29 2.228 . S
Cd30 O34 2.273 1_655 S
Cd30 O38 2.277 . S
O31 C28 1.160 . S
O31 Cd32 2.203 1_655 S
Cd32 O31 2.203 1_455 S
Cd32 O34 2.411 . S
Cd32 O35 2.333 . S
Cd32 O36 2.352 . S
Cd32 O40 2.277 1_445 S
Cd32 O41 2.351 1_545 S
C33 O38 1.209 1_565 S
C33 O40 1.226 . S
O34 Cd30 2.273 1_455 S
O34 Cd32 2.411 . S
O34 C37 1.320 . S
O35 Cd32 2.333 . S
O35 C37 1.214 . S
O36 Cd32 2.352 . S
O36 C39 1.258 . S
C37 O34 1.320 . S
C37 O35 1.214 . S
O38 Cd30 2.277 . S
O38 C33 1.209 1_545 S
C39 O36 1.258 . S
C39 O41 1.278 1_545 S
O40 Cd32 2.277 1_665 S
O40 C33 1.226 . S
O41 Cd32 2.351 1_565 S
O41 C39 1.278 1_565 S
H42 C61 0.949 . S
H43 C62 0.950 . S
H44 C64 0.950 1_655 S
H45 C65 0.950 1_655 S
H46 C67 0.950 . S
H47 C70 0.950 . S
H48 C71 0.950 . S
H49 C73 0.951 . S
H50 C74 0.949 . S
H51 C76 0.949 . S
H52 C77 0.950 . S
H53 C79 0.950 . S
H54 C80 0.950 . S
H55 C82 0.950 . S
H56 C85 0.950 1_655 S
H57 C86 0.950 1_655 S
H58 C88 0.951 . S
H59 C89 0.949 . S
C60 C61 1.376 . S
C60 C65 1.386 . S
C60 C66 1.483 . S
C61 H42 0.949 . S
C61 C60 1.376 . S
C61 C62 1.397 . S
C62 H43 0.950 . S
C62 C61 1.397 . S
C62 C63 1.391 . S
C63 C62 1.391 . S
C63 C64 1.405 . S
C64 H44 0.950 1_455 S
C64 C63 1.405 . S
C64 C65 1.367 . S
C65 H45 0.950 1_455 S
C65 C60 1.386 . S
C65 C64 1.367 . S
C66 C60 1.483 . S
C66 C67 1.382 . S
C66 C68 1.403 . S
C67 H46 0.950 . S
C67 C66 1.382 . S
C67 C83 1.411 . S
C68 C66 1.403 . S
C68 C69 1.489 . S
C68 C82 1.411 . S
C69 C68 1.489 . S
C69 C70 1.383 . S
C69 C74 1.382 1_455 S
C70 H47 0.950 . S
C70 C69 1.383 . S
C70 C71 1.395 . S
C71 H48 0.950 . S
C71 C70 1.395 . S
C71 C72 1.288 . S
C72 C71 1.288 . S
C72 C73 1.392 1_455 S
C73 H49 0.951 . S
C73 C72 1.392 1_655 S
C73 C74 1.392 . S
C74 H50 0.949 . S
C74 C69 1.382 1_655 S
C74 C73 1.392 . S
C75 C76 1.376 1_455 S
C75 C80 1.386 . S
C75 C81 1.483 . S
C76 H51 0.949 . S
C76 C75 1.376 1_655 S
C76 C77 1.397 . S
C77 H52 0.950 . S
C77 C76 1.397 . S
C77 C78 1.391 1_655 S
C78 C77 1.391 1_455 S
C78 C79 1.405 . S
C79 H53 0.950 . S
C79 C78 1.405 . S
C79 C80 1.367 . S
C80 H54 0.950 . S
C80 C75 1.386 . S
C80 C79 1.367 . S
C81 C75 1.483 . S
C81 C82 1.382 . S
C81 C83 1.403 . S
C82 H55 0.950 . S
C82 C68 1.411 . S
C82 C81 1.382 . S
C83 C67 1.411 . S
C83 C81 1.403 . S
C83 C84 1.489 . S
C84 C83 1.489 . S
C84 C85 1.383 . S
C84 C89 1.382 . S
C85 H56 0.950 1_455 S
C85 C84 1.383 . S
C85 C86 1.395 . S
C86 H57 0.950 1_455 S
C86 C85 1.395 . S
C86 C87 1.288 . S
C87 C86 1.288 . S
C87 C88 1.392 . S
C88 H58 0.951 . S
C88 C87 1.392 . S
C88 C89 1.392 . S
C89 H59 0.949 . S
C89 C84 1.382 . S
C89 C88 1.392 . S
H90 C109 0.949 . S
H91 C110 0.950 . S
H92 C112 0.973 . S
H93 C113 0.950 1_565 S
H94 C115 0.950 . S
H95 C118 0.950 . S
H96 C119 0.950 . S
H97 C121 0.951 . S
H98 C122 0.949 . S
H99 C124 0.949 . S
H100 C125 0.950 . S
H101 C127 0.950 . S
H102 C128 0.950 . S
H103 C130 0.950 . S
H104 C133 0.950 1_565 S
H105 C134 0.950 1_565 S
H106 C136 0.951 . S
H107 C137 0.949 . S
C108 C109 1.376 . S
C108 C113 1.386 . S
C108 C114 1.483 . S
C109 H90 0.949 . S
C109 C108 1.376 . S
C109 C110 1.397 . S
C110 H91 0.950 . S
C110 C109 1.397 . S
C110 C111 1.391 . S
C111 C110 1.391 . S
C111 C112 1.393 1_545 S
C112 H92 0.973 . S
C112 C111 1.393 1_565 S
C112 C113 1.357 1_565 S
C113 H93 0.950 1_545 S
C113 C108 1.386 . S
C113 C112 1.357 1_545 S
C114 C108 1.483 . S
C114 C115 1.382 . S
C114 C116 1.403 . S
C115 H94 0.950 . S
C115 C114 1.382 . S
C115 C131 1.411 . S
C116 C114 1.403 . S
C116 C117 1.489 . S
C116 C130 1.411 . S
C117 C116 1.489 . S
C117 C118 1.383 . S
C117 C122 1.382 1_545 S
C118 H95 0.950 . S
C118 C117 1.383 . S
C118 C119 1.395 . S
C119 H96 0.950 . S
C119 C118 1.395 . S
C119 C120 1.288 . S
C120 C119 1.288 . S
C120 C121 1.392 1_545 S
C121 H97 0.951 . S
C121 C120 1.392 1_565 S
C121 C122 1.392 . S
C122 H98 0.949 . S
C122 C117 1.382 1_565 S
C122 C121 1.392 . S
C123 C124 1.376 1_545 S
C123 C128 1.386 . S
C123 C129 1.483 . S
C124 H99 0.949 . S
C124 C123 1.376 1_565 S
C124 C125 1.397 . S
C125 H100 0.950 . S
C125 C124 1.397 . S
C125 C126 1.391 1_565 S
C126 C125 1.391 1_545 S
C126 C127 1.405 . S
C127 H101 0.950 . S
C127 C126 1.405 . S
C127 C128 1.367 . S
C128 H102 0.950 . S
C128 C123 1.386 . S
C128 C127 1.367 . S
C129 C123 1.483 . S
C129 C130 1.382 . S
C129 C131 1.403 . S
C130 H103 0.950 . S
C130 C116 1.411 . S
C130 C129 1.382 . S
C131 C115 1.411 . S
C131 C129 1.403 . S
C131 C132 1.489 . S
C132 C131 1.489 . S
C132 C133 1.383 . S
C132 C137 1.382 . S
C133 H104 0.950 1_545 S
C133 C132 1.383 . S
C133 C134 1.395 . S
C134 H105 0.950 1_545 S
C134 C133 1.395 . S
C134 C135 1.288 . S
C135 C134 1.288 . S
C135 C136 1.392 . S
C136 H106 0.951 . S
C136 C135 1.392 . S
C136 C137 1.392 . S
C137 H107 0.949 . S
C137 C132 1.382 . S
C137 C136 1.392 . S
H138 C157 0.949 . S
H139 C158 0.950 . S
H140 C160 0.950 . S
H141 C161 0.950 . S
H142 C163 0.950 . S
H143 C166 0.950 . S
H144 C167 0.950 . S
H145 C169 0.951 . S
H146 C170 0.949 . S
H147 C172 0.949 . S
H148 C173 0.950 . S
H149 C175 0.950 . S
H150 C176 0.950 . S
H151 C178 0.950 . S
H152 C181 0.950 . S
H153 C182 0.950 . S
H154 C184 0.951 . S
H155 C185 0.949 . S
C156 C157 1.376 . S
C156 C161 1.386 . S
C156 C162 1.483 . S
C157 H138 0.949 . S
C157 C156 1.376 . S
C157 C158 1.397 . S
C158 H139 0.950 . S
C158 C157 1.397 . S
C158 C159 1.391 . S
C159 C158 1.391 . S
C159 C160 1.405 . S
C160 H140 0.950 . S
C160 C159 1.405 . S
C160 C161 1.367 . S
C161 H141 0.950 . S
C161 C156 1.386 . S
C161 C160 1.367 . S
C162 C156 1.483 . S
C162 C163 1.382 . S
C162 C164 1.403 . S
C163 H142 0.950 . S
C163 C162 1.382 . S
C163 C179 1.411 . S
C164 C162 1.403 . S
C164 C165 1.489 . S
C164 C178 1.411 . S
C165 C164 1.489 . S
C165 C166 1.383 . S
C165 C170 1.382 . S
C166 H143 0.950 . S
C166 C165 1.383 . S
C166 C167 1.395 . S
C167 H144 0.950 . S
C167 C166 1.395 . S
C167 C168 1.288 . S
C168 C167 1.288 . S
C168 C169 1.392 . S
C169 H145 0.951 . S
C169 C168 1.392 . S
C169 C170 1.392 . S
C170 H146 0.949 . S
C170 C165 1.382 . S
C170 C169 1.392 . S
C171 C172 1.376 . S
C171 C176 1.386 . S
C171 C177 1.483 . S
C172 H147 0.949 . S
C172 C171 1.376 . S
C172 C173 1.397 . S
C173 H148 0.950 . S
C173 C172 1.397 . S
C173 C174 1.391 . S
C174 C173 1.391 . S
C174 C175 1.405 . S
C175 H149 0.950 . S
C175 C174 1.405 . S
C175 C176 1.367 . S
C176 H150 0.950 . S
C176 C171 1.386 . S
C176 C175 1.367 . S
C177 C171 1.483 . S
C177 C178 1.382 . S
C177 C179 1.403 . S
C178 H151 0.950 . S
C178 C164 1.411 . S
C178 C177 1.382 . S
C179 C163 1.411 . S
C179 C177 1.403 . S
C179 C180 1.489 . S
C180 C179 1.489 . S
C180 C181 1.383 . S
C180 C185 1.382 . S
C181 H152 0.950 . S
C181 C180 1.383 . S
C181 C182 1.395 . S
C182 H153 0.950 . S
C182 C181 1.395 . S
C182 C183 1.288 . S
C183 C182 1.288 . S
C183 C184 1.392 . S
C184 H154 0.951 . S
C184 C183 1.392 . S
C184 C185 1.392 . S
C185 H155 0.949 . S
C185 C180 1.382 . S
C185 C184 1.392 . S
H186 C192 0.930 . S
H187 C196 0.930 . S
H188 C201 0.936 . S
H189 C199 0.929 . S
H190 C194 0.929 . S
H191 C200 0.929 . S
C192 H186 0.930 . S
C192 C193 1.367 . S
C192 C200 1.378 . S
C193 C192 1.367 . S
C193 C201 1.433 . S
C194 H190 0.929 . S
C194 C196 1.378 . S
C194 C198 1.350 . S
C195 C198 1.463 . S
C195 C200 1.350 . S
C195 N203 1.427 . S
C196 H187 0.930 . S
C196 C194 1.378 . S
C196 C197 1.367 . S
C197 C196 1.367 . S
C197 C199 1.433 . S
C198 C194 1.350 . S
C198 C195 1.463 . S
C198 N202 1.427 . S
C199 H189 0.929 . S
C199 C197 1.433 . S
C199 N202 1.384 . S
C200 H191 0.929 . S
C200 C192 1.378 . S
C200 C195 1.350 . S
C201 H188 0.936 . S
C201 C193 1.433 . S
C201 N203 1.384 . S
N202 C198 1.427 . S
N202 C199 1.384 . S
N203 C195 1.427 . S
N203 C201 1.384 . S
H204 C210 0.930 . S
H205 C214 0.930 1_565 S
H206 C219 0.929 1_565 S
H207 C217 0.929 . S
H208 C212 0.929 1_565 S
H209 C218 0.929 . S
C210 H204 0.930 . S
C210 C211 1.367 . S
C210 C218 1.378 . S
C211 C210 1.367 . S
C211 C219 1.433 . S
C212 H208 0.929 1_545 S
C212 C214 1.378 . S
C212 C216 1.350 . S
C213 C216 1.463 . S
C213 C218 1.350 . S
C213 N221 1.427 . S
C214 H205 0.930 1_545 S
C214 C212 1.378 . S
C214 C215 1.367 . S
C215 C214 1.367 . S
C215 C217 1.433 . S
C216 C212 1.350 . S
C216 C213 1.463 . S
C216 N220 1.427 . S
C217 H207 0.929 . S
C217 C215 1.433 . S
C217 N220 1.384 . S
C218 H209 0.929 . S
C218 C210 1.378 . S
C218 C213 1.350 . S
C219 H206 0.929 1_545 S
C219 C211 1.433 . S
C219 N221 1.384 . S
N220 C216 1.427 . S
N220 C217 1.384 . S
N221 C213 1.427 . S
N221 C219 1.384 . S
H222 C228 0.930 . S
H223 C232 0.930 . S
H224 C237 0.929 . S
H225 C235 0.929 . S
H226 C230 0.929 . S
H227 C236 0.929 . S
C228 H222 0.930 . S
C228 C229 1.367 . S
C228 C236 1.378 . S
C229 C228 1.367 . S
C229 C237 1.433 . S
C230 H226 0.929 . S
C230 C232 1.378 . S
C230 C234 1.350 . S
C231 C234 1.463 . S
C231 C236 1.350 . S
C231 N239 1.427 . S
C232 H223 0.930 . S
C232 C230 1.378 . S
C232 C233 1.367 . S
C233 C232 1.367 . S
C233 C235 1.433 . S
C234 C230 1.350 . S
C234 C231 1.463 . S
C234 N238 1.427 . S
C235 H225 0.929 . S
C235 C233 1.433 . S
C235 N238 1.384 . S
C236 H227 0.929 . S
C236 C228 1.378 . S
C236 C231 1.350 . S
C237 H224 0.929 . S
C237 C229 1.433 . S
C237 N239 1.384 . S
N238 C234 1.427 . S
N238 C235 1.384 . S
N239 C231 1.427 . S
N239 C237 1.384 . S
H240 C246 0.930 . S
H241 C250 0.930 . S
H242 C255 0.929 . S
H243 C253 0.929 . S
H244 C248 0.929 . S
H245 C254 0.929 . S
C246 H240 0.930 . S
C246 C247 1.367 . S
C246 C254 1.378 . S
C247 C246 1.367 . S
C247 C255 1.433 . S
C248 H244 0.929 . S
C248 C250 1.378 . S
C248 C252 1.350 . S
C249 C252 1.463 . S
C249 C254 1.350 . S
C249 N257 1.427 . S
C250 H241 0.930 . S
C250 C248 1.378 . S
C250 C251 1.367 . S
C251 C250 1.367 . S
C251 C253 1.433 . S
C252 C248 1.350 . S
C252 C249 1.463 . S
C252 N256 1.427 . S
C253 H243 0.929 . S
C253 C251 1.433 . S
C253 N256 1.384 . S
C254 H245 0.929 . S
C254 C246 1.378 . S
C254 C249 1.350 . S
C255 H242 0.929 . S
C255 C247 1.433 . S
C255 N257 1.384 . S
N256 C252 1.427 . S
N256 C253 1.384 . S
N257 C249 1.427 . S
N257 C255 1.384 . S
H258 C264 0.930 . S
H259 C268 0.930 . S
H260 C273 0.929 . S
H261 C271 0.929 . S
H262 C266 0.929 . S
H263 C272 0.929 . S
C264 H258 0.930 . S
C264 C265 1.367 . S
C264 C272 1.378 . S
C265 C264 1.367 . S
C265 C273 1.433 . S
C266 H262 0.929 . S
C266 C268 1.378 . S
C266 C270 1.350 . S
C267 C270 1.463 . S
C267 C272 1.350 . S
C267 N275 1.427 . S
C268 H259 0.930 . S
C268 C266 1.378 . S
C268 C269 1.367 . S
C269 C268 1.367 . S
C269 C271 1.433 . S
C270 C266 1.350 . S
C270 C267 1.463 . S
C270 N274 1.427 . S
C271 H261 0.929 . S
C271 C269 1.433 . S
C271 N274 1.384 . S
C272 H263 0.929 . S
C272 C264 1.378 . S
C272 C267 1.350 . S
C273 H260 0.929 . S
C273 C265 1.433 . S
C273 N275 1.384 . S
N274 C270 1.427 . S
N274 C271 1.384 . S
N275 C267 1.427 . S
N275 C273 1.384 . S
H276 C282 0.930 . S
H277 C286 0.930 . S
H278 C291 0.929 . S
H279 C289 0.929 . S
H280 C284 0.929 . S
H281 C290 0.929 . S
C282 H276 0.930 . S
C282 C283 1.367 . S
C282 C290 1.378 . S
C283 C282 1.367 . S
C283 C291 1.433 . S
C284 H280 0.929 . S
C284 C286 1.378 . S
C284 C288 1.350 . S
C285 C288 1.463 . S
C285 C290 1.350 . S
C285 N293 1.427 . S
C286 H277 0.930 . S
C286 C284 1.378 . S
C286 C287 1.367 . S
C287 C286 1.367 . S
C287 C289 1.433 . S
C288 C284 1.350 . S
C288 C285 1.463 . S
C288 N292 1.427 . S
C289 H279 0.929 . S
C289 C287 1.433 . S
C289 N292 1.384 . S
C290 H281 0.929 . S
C290 C282 1.378 . S
C290 C285 1.350 . S
C291 H278 0.929 . S
C291 C283 1.433 . S
C291 N293 1.384 . S
N292 C288 1.427 . S
N292 C289 1.384 . S
N293 C285 1.427 . S
N293 C291 1.384 . S
H294 C300 0.930 1_565 S
H295 C304 0.930 . S
H296 C309 0.929 . S
H297 C307 0.929 . S
H298 C302 0.929 . S
H299 C308 0.928 . S
C300 H294 0.930 1_545 S
C300 C301 1.367 . S
C300 C308 1.377 1_545 S
C301 C300 1.367 . S
C301 C309 1.433 . S
C302 H298 0.929 . S
C302 C304 1.378 . S
C302 C306 1.350 . S
C303 C306 1.463 . S
C303 C308 1.351 1_545 S
C303 N311 1.427 . S
C304 H295 0.930 . S
C304 C302 1.378 . S
C304 C305 1.367 . S
C305 C304 1.367 . S
C305 C307 1.433 1_545 S
C306 C302 1.350 . S
C306 C303 1.463 . S
C306 N310 1.427 1_545 S
C307 H297 0.929 . S
C307 C305 1.433 1_565 S
C307 N310 1.384 . S
C308 H299 0.928 . S
C308 C300 1.377 1_565 S
C308 C303 1.351 1_565 S
C309 H296 0.929 . S
C309 C301 1.433 . S
C309 N311 1.384 . S
N310 C306 1.427 1_565 S
N310 C307 1.384 . S
N311 C303 1.427 . S
N311 C309 1.384 . S
H312 C318 0.930 . S
H313 C322 0.930 . S
H314 C327 0.929 . S
H315 C325 0.929 . S
H316 C320 0.929 . S
H317 C326 0.929 . S
C318 H312 0.930 . S
C318 C319 1.367 1_556 S
C318 C326 1.378 . S
C319 C318 1.367 1_554 S
C319 C327 1.433 . S
C320 H316 0.929 . S
C320 C322 1.378 . S
C320 C324 1.350 . S
C321 C324 1.463 . S
C321 C326 1.350 . S
C321 N329 1.427 1_556 S
C322 H313 0.930 . S
C322 C320 1.378 . S
C322 C323 1.367 . S
C323 C322 1.367 . S
C323 C325 1.433 . S
C324 C320 1.350 . S
C324 C321 1.463 . S
C324 N328 1.427 . S
C325 H315 0.929 . S
C325 C323 1.433 . S
C325 N328 1.384 . S
C326 H317 0.929 . S
C326 C318 1.378 . S
C326 C321 1.350 . S
C327 H314 0.929 . S
C327 C319 1.433 . S
C327 N329 1.384 . S
N328 C324 1.427 . S
N328 C325 1.384 . S
N329 C321 1.427 1_554 S
N329 C327 1.384 . S
H330 C336 0.930 . S
H331 C340 0.930 1_655 S
H332 C345 0.929 . S
H333 C343 0.929 . S
H334 C338 0.926 1_655 S
H335 C344 0.929 . S
C336 H330 0.930 . S
C336 C337 1.367 . S
C336 C344 1.378 . S
C337 C336 1.367 . S
C337 C345 1.433 1_455 S
C338 H334 0.926 1_455 S
C338 C340 1.380 . S
C338 C342 1.350 . S
C339 C342 1.463 . S
C339 C344 1.350 . S
C339 N347 1.427 1_455 S
C340 H331 0.930 1_455 S
C340 C338 1.380 . S
C340 C341 1.367 . S
C341 C340 1.367 . S
C341 C343 1.433 . S
C342 C338 1.350 . S
C342 C339 1.463 . S
C342 N346 1.427 . S
C343 H333 0.929 . S
C343 C341 1.433 . S
C343 N346 1.384 . S
C344 H335 0.929 . S
C344 C336 1.378 . S
C344 C339 1.350 . S
C345 H332 0.929 . S
C345 C337 1.433 1_655 S
C345 N347 1.384 . S
N346 C342 1.427 . S
N346 C343 1.384 . S
N347 C339 1.427 1_655 S
N347 C345 1.384 . S
H348 C354 0.930 . S
H349 C358 0.930 . S
H350 C363 0.929 . S
H351 C361 0.929 . S
H352 C356 0.929 . S
H353 C362 0.929 . S
C354 H348 0.930 . S
C354 C355 1.367 . S
C354 C362 1.378 . S
C355 C354 1.367 . S
C355 C363 1.433 . S
C356 H352 0.929 . S
C356 C358 1.378 . S
C356 C360 1.350 . S
C357 C360 1.463 . S
C357 C362 1.350 . S
C357 N365 1.427 . S
C358 H349 0.930 . S
C358 C356 1.378 . S
C358 C359 1.367 . S
C359 C358 1.367 . S
C359 C361 1.433 . S
C360 C356 1.350 . S
C360 C357 1.463 . S
C360 N364 1.427 . S
C361 H351 0.929 . S
C361 C359 1.433 . S
C361 N364 1.384 . S
C362 H353 0.929 . S
C362 C354 1.378 . S
C362 C357 1.350 . S
C363 H350 0.929 . S
C363 C355 1.433 . S
C363 N365 1.384 . S
N364 C360 1.427 . S
N364 C361 1.384 . S
N365 C357 1.427 . S
N365 C363 1.384 . S
H366 C372 0.930 . S
H367 C376 0.930 . S
H368 C381 0.929 . S
H369 C379 0.929 . S
H370 C374 0.929 . S
H371 C380 0.929 . S
C372 H366 0.930 . S
C372 C373 1.367 1_556 S
C372 C380 1.378 . S
C373 C372 1.367 1_554 S
C373 C381 1.433 . S
C374 H370 0.929 . S
C374 C376 1.378 . S
C374 C378 1.350 . S
C375 C378 1.463 . S
C375 C380 1.350 . S
C375 N383 1.472 . S
C376 H367 0.930 . S
C376 C374 1.378 . S
C376 C377 1.367 . S
C377 C376 1.367 . S
C377 C379 1.433 . S
C378 C374 1.350 . S
C378 C375 1.463 . S
C378 N382 1.427 . S
C379 H369 0.929 . S
C379 C377 1.433 . S
C379 N382 1.384 . S
C380 H371 0.929 . S
C380 C372 1.378 . S
C380 C375 1.350 . S
C381 H368 0.929 . S
C381 C373 1.433 . S
C381 N383 1.354 1_554 S
N382 C378 1.427 . S
N382 C379 1.384 . S
N383 C375 1.472 . S
N383 C381 1.354 1_556 S
H384 C390 0.930 . S
H385 C394 0.930 . S
H386 C399 0.929 . S
H387 C397 0.929 . S
H388 C392 0.929 . S
H389 C398 0.929 . S
C390 H384 0.930 . S
C390 C391 1.367 1_655 S
C390 C398 1.378 . S
C391 C390 1.367 1_455 S
C391 C399 1.433 . S
C392 H388 0.929 . S
C392 C394 1.378 . S
C392 C396 1.350 . S
C393 C396 1.463 . S
C393 C398 1.350 1_455 S
C393 N401 1.427 . S
C394 H385 0.930 . S
C394 C392 1.378 . S
C394 C395 1.367 . S
C395 C394 1.367 . S
C395 C397 1.433 1_455 S
C396 C392 1.350 . S
C396 C393 1.463 . S
C396 N400 1.427 1_455 S
C397 H387 0.929 . S
C397 C395 1.433 1_655 S
C397 N400 1.384 . S
C398 H389 0.929 . S
C398 C390 1.378 . S
C398 C393 1.350 1_655 S
C399 H386 0.929 . S
C399 C391 1.433 . S
C399 N401 1.384 . S
N400 C396 1.427 1_655 S
N400 C397 1.384 . S
N401 C393 1.427 . S
N401 C399 1.384 . S
C197 C63 1.468 . S
C193 C0 1.463 . S
C211 C25 1.506 . S
C215 C111 1.509 . S
C229 C33 1.528 . S
C233 C183 1.517 . S
C247 C11 1.462 . S
C251 C87 1.461 . S
C269 C135 1.492 . S
C265 C14 1.496 . S
C283 C37 1.526 . S
C287 C159 1.534 . S
C305 C120 1.496 . S
C301 C28 1.492 . S
C319 C9 1.530 . S
C323 C174 1.535 . S
C341 C78 1.559 . S
C337 C19 1.558 . S
C359 C126 1.507 . S
C355 C39 1.507 . S
C377 C168 1.528 . S
C373 C5 1.528 . S
C391 C23 1.563 . S
C395 C72 1.567 . S
