# Generated by pormake.
# Topology pyr, (3,6)-cn, num edge types: 1
# Building blocks:
#     Node 0, Type 0, BuildingBlock: MIDCAF_clean_linker_0, # of connection points: 3
#     Node 1, Type 0, BuildingBlock: MIDCAF_clean_linker_0, # of connection points: 3
#     Node 2, Type 0, BuildingBlock: MIDCAF_clean_linker_0, # of connection points: 3
#     Node 3, Type 0, BuildingBlock: MIDCAF_clean_linker_0, # of connection points: 3
#     Node 4, Type 0, BuildingBlock: MIDCAF_clean_linker_0, # of connection points: 3
#     Node 5, Type 0, BuildingBlock: MIDCAF_clean_linker_0, # of connection points: 3
#     Node 6, Type 0, BuildingBlock: MIDCAF_clean_linker_0, # of connection points: 3
#     Node 7, Type 0, BuildingBlock: MIDCAF_clean_linker_0, # of connection points: 3
#     Node 8, Type 1, BuildingBlock: BETFEN_clean_sbu_0, # of connection points: 6
#     Node 9, Type 1, BuildingBlock: BETFEN_clean_sbu_0, # of connection points: 6
#     Node 10, Type 1, BuildingBlock: BETFEN_clean_sbu_0, # of connection points: 6
#     Node 11, Type 1, BuildingBlock: BETFEN_clean_sbu_0, # of connection points: 6
#     Edge 12, Type (0, 1), BuildingBlock: UVAHIK_clean_linker_0, # of connection points: 2
#     Edge 13, Type (0, 1), BuildingBlock: UVAHIK_clean_linker_0, # of connection points: 2
#     Edge 14, Type (0, 1), BuildingBlock: UVAHIK_clean_linker_0, # of connection points: 2
#     Edge 15, Type (0, 1), BuildingBlock: UVAHIK_clean_linker_0, # of connection points: 2
#     Edge 16, Type (0, 1), BuildingBlock: UVAHIK_clean_linker_0, # of connection points: 2
#     Edge 17, Type (0, 1), BuildingBlock: UVAHIK_clean_linker_0, # of connection points: 2
#     Edge 18, Type (0, 1), BuildingBlock: UVAHIK_clean_linker_0, # of connection points: 2
#     Edge 19, Type (0, 1), BuildingBlock: UVAHIK_clean_linker_0, # of connection points: 2
#     Edge 20, Type (0, 1), BuildingBlock: UVAHIK_clean_linker_0, # of connection points: 2
#     Edge 21, Type (0, 1), BuildingBlock: UVAHIK_clean_linker_0, # of connection points: 2
#     Edge 22, Type (0, 1), BuildingBlock: UVAHIK_clean_linker_0, # of connection points: 2
#     Edge 23, Type (0, 1), BuildingBlock: UVAHIK_clean_linker_0, # of connection points: 2
#     Edge 24, Type (0, 1), BuildingBlock: UVAHIK_clean_linker_0, # of connection points: 2
#     Edge 25, Type (0, 1), BuildingBlock: UVAHIK_clean_linker_0, # of connection points: 2
#     Edge 26, Type (0, 1), BuildingBlock: UVAHIK_clean_linker_0, # of connection points: 2
#     Edge 27, Type (0, 1), BuildingBlock: UVAHIK_clean_linker_0, # of connection points: 2
#     Edge 28, Type (0, 1), BuildingBlock: UVAHIK_clean_linker_0, # of connection points: 2
#     Edge 29, Type (0, 1), BuildingBlock: UVAHIK_clean_linker_0, # of connection points: 2
#     Edge 30, Type (0, 1), BuildingBlock: UVAHIK_clean_linker_0, # of connection points: 2
#     Edge 31, Type (0, 1), BuildingBlock: UVAHIK_clean_linker_0, # of connection points: 2
#     Edge 32, Type (0, 1), BuildingBlock: UVAHIK_clean_linker_0, # of connection points: 2
#     Edge 33, Type (0, 1), BuildingBlock: UVAHIK_clean_linker_0, # of connection points: 2
#     Edge 34, Type (0, 1), BuildingBlock: UVAHIK_clean_linker_0, # of connection points: 2
#     Edge 35, Type (0, 1), BuildingBlock: UVAHIK_clean_linker_0, # of connection points: 2
# Relax obj value: 0.111
# Max RMSD: 0.216
# Mean RMSD: 0.104
data_MOF--net-pyr--node1-BETFEN_clean_sbu_0--node2-MIDCAF_clean_linker_0--edge1-UVAHIK_clean_linker_0
_symmetry_space_group_name_H-M    P1
_symmetry_Int_Tables_number       1
_symmetry_cell_setting            triclinic
loop_
_symmetry_equiv_pos_as_xyz
'x, y, z'
_cell_length_a     55.756405
_cell_length_b     60.71131
_cell_length_c     57.447034
_cell_angle_alpha  91.356718
_cell_angle_beta   97.835348
_cell_angle_gamma 106.33499
loop_
_atom_site_label
_atom_site_type_symbol
_atom_site_fract_x
_atom_site_fract_y
_atom_site_fract_z
_atom_type_partial_charge
C0 C 0.26923 0.28172 0.31924 0.0
C1 C 0.27863 0.26851 0.33598 0.0
C2 C 0.30302 0.26631 0.33559 0.0
C3 C 0.31692 0.27566 0.31792 0.0
H4 H 0.36174 0.25411 0.27779 0.0
H5 H 0.3831 0.22773 0.2637 0.0
H6 H 0.38904 0.26232 0.19901 0.0
H7 H 0.36787 0.28897 0.21309 0.0
H8 H 0.33174 0.31982 0.19904 0.0
H9 H 0.31383 0.34225 0.17058 0.0
H10 H 0.27733 0.36528 0.22407 0.0
H11 H 0.29528 0.3431 0.25259 0.0
H12 H 0.27499 0.3005 0.28843 0.0
H13 H 0.25047 0.28366 0.31891 0.0
H14 H 0.31113 0.25677 0.34858 0.0
H15 H 0.33524 0.27288 0.31764 0.0
N16 N 0.33657 0.28346 0.2739 0.0
N17 N 0.34 0.30282 0.23918 0.0
N18 N 0.31332 0.30964 0.26501 0.0
C19 C 0.34676 0.28754 0.25372 0.0
C20 C 0.32346 0.31409 0.2448 0.0
C21 C 0.3199 0.29443 0.27971 0.0
C22 C 0.36273 0.27354 0.24645 0.0
C23 C 0.36784 0.25636 0.26067 0.0
C24 C 0.38001 0.24113 0.25258 0.0
C25 C 0.38746 0.24278 0.23015 0.0
C26 C 0.38362 0.26069 0.21644 0.0
C27 C 0.37136 0.27591 0.22449 0.0
C28 C 0.31479 0.32948 0.2281 0.0
C29 C 0.32018 0.3299 0.20486 0.0
C30 C 0.30984 0.34266 0.18849 0.0
C31 C 0.29411 0.35544 0.19507 0.0
C32 C 0.28958 0.35578 0.21852 0.0
C33 C 0.29973 0.34291 0.23483 0.0
C34 C 0.3069 0.28771 0.30038 0.0
C35 C 0.28328 0.29132 0.30168 0.0
C36 C 0.20276 0.84643 0.6707 0.0
C37 C 0.19883 0.84931 0.64641 0.0
C38 C 0.21214 0.83993 0.63165 0.0
C39 C 0.22975 0.82881 0.64111 0.0
H40 H 0.26651 0.77292 0.63083 0.0
H41 H 0.28715 0.75061 0.60834 0.0
H42 H 0.3556 0.77529 0.65826 0.0
H43 H 0.33521 0.79728 0.6807 0.0
H44 H 0.33347 0.81988 0.72942 0.0
H45 H 0.35327 0.83403 0.76922 0.0
H46 H 0.28283 0.8432 0.78485 0.0
H47 H 0.26333 0.83004 0.74445 0.0
H48 H 0.2234 0.83414 0.69904 0.0
H49 H 0.1924 0.85292 0.68252 0.0
H50 H 0.20972 0.84197 0.61287 0.0
H51 H 0.24032 0.82251 0.62935 0.0
N52 N 0.26637 0.80608 0.66252 0.0
N53 N 0.29632 0.80519 0.69515 0.0
N54 N 0.26507 0.82328 0.69922 0.0
C55 C 0.28679 0.79951 0.67207 0.0
C56 C 0.28551 0.81693 0.70888 0.0
C57 C 0.25543 0.81803 0.67607 0.0
C58 C 0.29919 0.78679 0.65759 0.0
C59 C 0.28601 0.77367 0.63687 0.0
C60 C 0.29774 0.76085 0.62407 0.0
C61 C 0.32298 0.76133 0.63154 0.0
C62 C 0.33623 0.7748 0.65196 0.0
C63 C 0.32445 0.78726 0.6649 0.0
C64 C 0.29684 0.82393 0.73371 0.0
C65 C 0.32211 0.82474 0.74138 0.0
C66 C 0.33345 0.83273 0.76435 0.0
C67 C 0.3197 0.83978 0.78042 0.0
C68 C 0.29417 0.83834 0.7729 0.0
C69 C 0.28292 0.83066 0.74976 0.0
C70 C 0.23456 0.827 0.66555 0.0
C71 C 0.22045 0.83551 0.68016 0.0
C72 C 0.5954 0.25766 0.87307 0.0
C73 C 0.58311 0.23803 0.85799 0.0
C74 C 0.58246 0.23971 0.83353 0.0
C75 C 0.59417 0.26062 0.8244 0.0
H76 H 0.58144 0.32262 0.77835 0.0
H77 H 0.56911 0.3425 0.74418 0.0
H78 H 0.64789 0.37533 0.74029 0.0
H79 H 0.66 0.35628 0.77469 0.0
H80 H 0.69076 0.37515 0.82902 0.0
H81 H 0.73037 0.39648 0.85309 0.0
H82 H 0.72137 0.34264 0.90175 0.0
H83 H 0.68192 0.32114 0.87768 0.0
H84 H 0.6174 0.29295 0.87622 0.0
H85 H 0.59635 0.25684 0.89198 0.0
H86 H 0.57302 0.22482 0.82153 0.0
H87 H 0.59382 0.26139 0.80554 0.0
N88 N 0.61492 0.30899 0.80955 0.0
N89 N 0.6515 0.34057 0.81553 0.0
N90 N 0.64435 0.31367 0.84409 0.0
C91 C 0.62953 0.32871 0.80191 0.0
C92 C 0.65907 0.33321 0.83662 0.0
C93 C 0.62238 0.30142 0.83074 0.0
C94 C 0.62168 0.33808 0.77942 0.0
C95 C 0.59607 0.33389 0.76998 0.0
C96 C 0.58903 0.34529 0.75035 0.0
C97 C 0.60748 0.36091 0.73963 0.0
C98 C 0.63309 0.36403 0.74843 0.0
C99 C 0.64007 0.35294 0.76812 0.0
C100 C 0.68309 0.34635 0.85134 0.0
C101 C 0.69718 0.36781 0.84484 0.0
C102 C 0.71983 0.38013 0.8587 0.0
C103 C 0.72901 0.37124 0.8793 0.0
C104 C 0.71494 0.34983 0.88583 0.0
C105 C 0.69223 0.33757 0.87207 0.0
C106 C 0.60725 0.28 0.83963 0.0
C107 C 0.60752 0.27831 0.86402 0.0
C108 C 0.78533 0.62861 0.38057 0.0
C109 C 0.76749 0.60849 0.36988 0.0
C110 C 0.77205 0.59907 0.34877 0.0
C111 C 0.79346 0.61004 0.33831 0.0
H112 H 0.83924 0.60727 0.28245 0.0
H113 H 0.85441 0.59186 0.24959 0.0
H114 H 0.92069 0.65072 0.25864 0.0
H115 H 0.90511 0.66642 0.29084 0.0
H116 H 0.90335 0.71387 0.32308 0.0
H117 H 0.92307 0.75266 0.34214 0.0
H118 H 0.87688 0.73554 0.3973 0.0
H119 H 0.85769 0.69732 0.37882 0.0
H120 H 0.81944 0.65501 0.37925 0.0
H121 H 0.78299 0.63611 0.3971 0.0
H122 H 0.75873 0.58358 0.34001 0.0
H123 H 0.79611 0.60266 0.32184 0.0
N124 N 0.84096 0.63509 0.31901 0.0
N125 N 0.87385 0.66969 0.31947 0.0
N126 N 0.84571 0.66541 0.34686 0.0
C127 C 0.86153 0.64791 0.30978 0.0
C128 C 0.86596 0.67856 0.33808 0.0
C129 C 0.83301 0.64383 0.33773 0.0
C130 C 0.87079 0.63823 0.2895 0.0
C131 C 0.85704 0.61699 0.27744 0.0
C132 C 0.8659 0.60803 0.25855 0.0
C133 C 0.88893 0.61989 0.25111 0.0
C134 C 0.90268 0.6411 0.26329 0.0
C135 C 0.89375 0.65012 0.28204 0.0
C136 C 0.87887 0.70224 0.3493 0.0
C137 C 0.89752 0.71838 0.33933 0.0
C138 C 0.90872 0.74068 0.3502 0.0
C139 C 0.90172 0.74728 0.37141 0.0
C140 C 0.88314 0.73109 0.38126 0.0
C141 C 0.87194 0.70904 0.37044 0.0
C142 C 0.81082 0.63064 0.34877 0.0
C143 C 0.80649 0.63946 0.37024 0.0
C144 C 0.65325 0.77583 0.7848 0.0
C145 C 0.64116 0.77019 0.80469 0.0
C146 C 0.64022 0.74889 0.81422 0.0
C147 C 0.65212 0.73409 0.80479 0.0
H148 H 0.69215 0.68935 0.82924 0.0
H149 H 0.70849 0.66449 0.8559 0.0
H150 H 0.74069 0.64035 0.79967 0.0
H151 H 0.72434 0.66498 0.77297 0.0
H152 H 0.74605 0.70515 0.73801 0.0
H153 H 0.7719 0.72041 0.70786 0.0
H154 H 0.7248 0.76448 0.68797 0.0
H155 H 0.6988 0.74923 0.71796 0.0
H156 H 0.67481 0.76625 0.7604 0.0
H157 H 0.6546 0.79218 0.77714 0.0
H158 H 0.63062 0.7438 0.82925 0.0
H159 H 0.65154 0.71809 0.81297 0.0
N160 N 0.68483 0.70864 0.79016 0.0
N161 N 0.71111 0.70188 0.76394 0.0
N162 N 0.69115 0.73085 0.7575 0.0
C163 C 0.7002 0.69653 0.78362 0.0
C164 C 0.70661 0.71895 0.75073 0.0
C165 C 0.68008 0.72574 0.77712 0.0
C166 C 0.70715 0.67936 0.79899 0.0
C167 C 0.70234 0.67846 0.82242 0.0
C168 C 0.71178 0.66431 0.83776 0.0
C169 C 0.72595 0.65057 0.8299 0.0
C170 C 0.72963 0.65058 0.80619 0.0
C171 C 0.72041 0.66486 0.79092 0.0
C172 C 0.72045 0.72612 0.73061 0.0
C173 C 0.74093 0.71785 0.72701 0.0
C174 C 0.75585 0.72666 0.70981 0.0
C175 C 0.75047 0.74374 0.69568 0.0
C176 C 0.7293 0.7512 0.69848 0.0
C177 C 0.7145 0.74255 0.7158 0.0
C178 C 0.6651 0.74017 0.78549 0.0
C179 C 0.665 0.76096 0.77526 0.0
C180 C 0.72452 0.16968 0.26408 0.0
C181 C 0.69853 0.16551 0.25599 0.0
C182 C 0.68295 0.16988 0.27177 0.0
C183 C 0.69305 0.17842 0.29485 0.0
H184 H 0.67555 0.20564 0.3554 0.0
H185 H 0.65295 0.22915 0.37262 0.0
H186 H 0.72307 0.27023 0.41329 0.0
H187 H 0.74547 0.24569 0.39681 0.0
H188 H 0.77431 0.19447 0.40888 0.0
H189 H 0.80727 0.17912 0.42855 0.0
H190 H 0.82724 0.16424 0.36111 0.0
H191 H 0.79447 0.17957 0.34142 0.0
H192 H 0.75462 0.1809 0.29309 0.0
H193 H 0.7372 0.16686 0.25241 0.0
H194 H 0.66277 0.16633 0.26649 0.0
H195 H 0.68042 0.18147 0.3065 0.0
N196 N 0.71699 0.20288 0.33961 0.0
N197 N 0.7473 0.20661 0.3732 0.0
N198 N 0.75061 0.18712 0.33847 0.0
C199 C 0.72595 0.21083 0.36231 0.0
C200 C 0.75966 0.19461 0.36135 0.0
C201 C 0.72927 0.19118 0.32753 0.0
C202 C 0.71229 0.22398 0.37463 0.0
C203 C 0.6861 0.21958 0.36819 0.0
C204 C 0.67318 0.23321 0.37794 0.0
C205 C 0.68619 0.25196 0.39402 0.0
C206 C 0.71234 0.25587 0.4011 0.0
C207 C 0.72524 0.24188 0.39162 0.0
C208 C 0.7816 0.18808 0.37355 0.0
C209 C 0.78599 0.18827 0.39826 0.0
C210 C 0.80474 0.17935 0.40953 0.0
C211 C 0.8197 0.17035 0.39635 0.0
C212 C 0.81613 0.17119 0.37175 0.0
C213 C 0.79722 0.17985 0.36047 0.0
C214 C 0.71891 0.18239 0.30294 0.0
C215 C 0.73456 0.17784 0.28738 0.0
C216 C 0.3122 0.64387 0.18668 0.0
C217 C 0.30096 0.65429 0.16836 0.0
C218 C 0.31307 0.67716 0.16411 0.0
C219 C 0.33604 0.68921 0.17763 0.0
H220 H 0.38852 0.75998 0.21126 0.0
H221 H 0.40611 0.79608 0.19396 0.0
H222 H 0.47265 0.77512 0.18549 0.0
H223 H 0.4555 0.73971 0.20455 0.0
H224 H 0.44914 0.70971 0.27231 0.0
H225 H 0.46572 0.68982 0.30457 0.0
H226 H 0.40544 0.6278 0.28167 0.0
H227 H 0.38924 0.64723 0.2496 0.0
H228 H 0.34343 0.6472 0.21397 0.0
H229 H 0.3035 0.62621 0.19027 0.0
H230 H 0.30472 0.68583 0.15038 0.0
H231 H 0.34483 0.70675 0.17371 0.0
N232 N 0.38468 0.7128 0.20439 0.0
N233 N 0.41909 0.71352 0.2334 0.0
N234 N 0.38355 0.68101 0.2268 0.0
C235 C 0.40794 0.724 0.21613 0.0
C236 C 0.40673 0.69195 0.23898 0.0
C237 C 0.37241 0.69122 0.20947 0.0
C238 C 0.42071 0.74716 0.20925 0.0
C239 C 0.40718 0.76343 0.20618 0.0
C240 C 0.41718 0.78399 0.1959 0.0
C241 C 0.44064 0.78852 0.18763 0.0
C242 C 0.45465 0.77253 0.19171 0.0
C243 C 0.44487 0.75216 0.20263 0.0
C244 C 0.41783 0.68015 0.25824 0.0
C245 C 0.43956 0.69179 0.27408 0.0
C246 C 0.44897 0.68044 0.29267 0.0
C247 C 0.43698 0.65717 0.29566 0.0
C248 C 0.41542 0.64559 0.27971 0.0
C249 C 0.406 0.65688 0.26133 0.0
C250 C 0.3475 0.6787 0.19575 0.0
C251 C 0.33519 0.65591 0.20021 0.0
C252 C 0.15082 0.28228 0.67883 0.0
C253 C 0.12451 0.27184 0.67561 0.0
C254 C 0.10932 0.28408 0.68473 0.0
C255 C 0.12008 0.30622 0.69605 0.0
H256 H 0.1176 0.3552 0.75302 0.0
H257 H 0.10249 0.37153 0.78518 0.0
H258 H 0.16841 0.43066 0.79228 0.0
H259 H 0.18305 0.41462 0.75948 0.0
H260 H 0.22535 0.4185 0.71994 0.0
H261 H 0.26046 0.43894 0.6996 0.0
H262 H 0.23717 0.38453 0.64441 0.0
H263 H 0.20261 0.36444 0.66424 0.0
H264 H 0.18169 0.31196 0.69122 0.0
H265 H 0.16347 0.27341 0.67298 0.0
H266 H 0.08899 0.27693 0.68255 0.0
H267 H 0.10782 0.31535 0.70228 0.0
N268 N 0.14931 0.35091 0.72506 0.0
N269 N 0.18116 0.38584 0.72373 0.0
N270 N 0.17794 0.35413 0.69814 0.0
C271 C 0.16094 0.3732 0.73352 0.0
C272 C 0.18962 0.37638 0.7058 0.0
C273 C 0.15794 0.34123 0.70748 0.0
C274 C 0.15166 0.38348 0.7534 0.0
C275 C 0.12894 0.37172 0.76136 0.0
C276 C 0.1203 0.38109 0.78009 0.0
C277 C 0.13412 0.40254 0.79175 0.0
C278 C 0.15686 0.41431 0.78373 0.0
C279 C 0.16541 0.405 0.76487 0.0
C280 C 0.21098 0.38973 0.69387 0.0
C281 C 0.2277 0.41099 0.70342 0.0
C282 C 0.24792 0.42265 0.69181 0.0
C283 C 0.25163 0.4135 0.67021 0.0
C284 C 0.2348 0.39236 0.66075 0.0
C285 C 0.21494 0.3807 0.67235 0.0
C286 C 0.14623 0.31685 0.69815 0.0
C287 C 0.16141 0.30446 0.68962 0.0
Pr288 Pr 0.99007 1.00104 0.53357 0.0
Pr289 Pr 0.03101 0.02064 0.50751 0.0
C290 C 0.95409 0.97553 0.55675 0.0
C291 C 0.94345 0.95212 0.56411 0.0
C292 C 0.94083 0.94912 0.58785 0.0
C293 C 0.92854 0.92758 0.59504 0.0
C294 C 0.91845 0.90862 0.57856 0.0
C295 C 0.9218 0.91147 0.55488 0.0
C296 C 0.93427 0.93302 0.54771 0.0
C297 C 0.01488 0.04714 0.54953 0.0
C298 C 0.04359 0.98816 0.54763 0.0
C299 C 0.06717 0.04442 0.4835 0.0
C300 C 0.07819 0.06601 0.47273 0.0
C301 C 0.08376 0.06471 0.44977 0.0
C302 C 0.0975 0.08427 0.44008 0.0
C303 C 0.10603 0.10555 0.45321 0.0
C304 C 0.09923 0.10713 0.47575 0.0
C305 C 0.08545 0.08747 0.48549 0.0
C306 C 1.00644 0.9743 0.49253 0.0
C307 C 0.97774 0.03414 0.49394 0.0
O308 O 0.95027 0.97886 0.53432 0.0
O309 O 0.97647 0.9873 0.56733 0.0
O310 O 0.02603 0.03252 0.54453 0.0
O311 O 0.99067 0.0379 0.54696 0.0
O312 O 0.05413 1.00684 0.53742 0.0
O313 O 0.0188 0.9802 0.54549 0.0
O314 O 0.07 0.04449 0.50647 0.0
O315 O 0.04548 0.031 0.47316 0.0
O316 O 0.99519 0.9891 0.49664 0.0
O317 O 0.03069 0.98334 0.49601 0.0
O318 O 0.9671 0.01558 0.50426 0.0
O319 O 1.00252 0.0417 0.49554 0.0
H320 H 0.94765 0.96362 0.60077 0.0
H321 H 0.92599 0.92601 0.61334 0.0
H322 H 0.91443 0.89711 0.54184 0.0
H323 H 0.93616 0.93482 0.52928 0.0
H324 H 0.07831 0.04833 0.43962 0.0
H325 H 0.1021 0.08262 0.42252 0.0
H326 H 0.10563 0.1233 0.48629 0.0
H327 H 0.08132 0.08891 0.50326 0.0
Pr328 Pr 0.48807 0.01039 0.02903 0.0
Pr329 Pr 0.53611 1.00438 1.00102 0.0
C330 C 0.45677 0.00859 0.06085 0.0
C331 C 0.45143 0.02641 0.07533 0.0
C332 C 0.45507 0.04872 0.06766 0.0
C333 C 0.4517 0.0661 0.08206 0.0
C334 C 0.44491 0.06161 0.10455 0.0
C335 C 0.44109 0.03914 0.11209 0.0
C336 C 0.44435 0.02169 0.09758 0.0
C337 C 0.5021 0.04462 0.99719 0.0
C338 C 0.54841 0.04099 0.04801 0.0
C339 C 0.56761 1.00544 0.96947 0.0
C340 C 0.57363 0.98736 0.95605 0.0
C341 C 0.56579 0.96451 0.96223 0.0
C342 C 0.57064 0.94706 0.94909 0.0
C343 C 0.58327 0.95213 0.92944 0.0
C344 C 0.591 0.97507 0.92324 0.0
C345 C 0.58623 0.99259 0.93651 0.0
C346 C 0.52253 0.97135 0.03421 0.0
C347 C 0.47592 0.97332 0.98212 0.0
O348 O 0.47944 1.00605 0.06623 0.0
O349 O 0.44935 0.00806 0.03808 0.0
O350 O 0.51126 0.02826 1.00184 0.0
O351 O 0.48398 0.04356 1.00961 0.0
O352 O 0.55634 0.03492 0.02878 0.0
O353 O 0.52498 0.03273 0.05265 0.0
O354 O 0.54461 1.00706 0.9637 0.0
O355 O 0.57502 1.00694 0.9923 0.0
O356 O 0.51277 0.98683 0.02774 0.0
O357 O 0.54148 0.97251 0.02282 0.0
O358 O 0.46751 0.98032 1.00065 0.0
O359 O 0.49958 0.98095 0.97796 0.0
H360 H 0.46081 0.05278 0.05062 0.0
H361 H 0.45439 0.08308 0.07551 0.0
H362 H 0.43615 0.03515 0.12941 0.0
H363 H 0.44178 1.00462 0.10388 0.0
H364 H 0.55569 0.96016 0.9771 0.0
H365 H 0.5641 0.92952 0.95407 0.0
H366 H 0.60091 0.97949 0.90828 0.0
H367 H 0.59223 0.01015 0.93145 0.0
Pr368 Pr 0.51869 0.53576 0.53569 0.0
Pr369 Pr 0.50611 0.48384 0.5119 0.0
C370 C 0.51973 0.57846 0.55055 0.0
C371 C 0.50225 0.59194 0.55401 0.0
C372 C 0.51115 0.61249 0.56816 0.0
C373 C 0.49503 0.62585 0.57141 0.0
C374 C 0.46967 0.6189 0.56048 0.0
C375 C 0.46074 0.59807 0.54648 0.0
C376 C 0.47692 0.58468 0.54327 0.0
C377 C 0.53956 0.50524 0.561 0.0
C378 C 0.46372 0.49613 0.54167 0.0
C379 C 0.50868 0.44062 0.50578 0.0
C380 C 0.52147 0.42775 0.49218 0.0
C381 C 0.50927 0.40477 0.48432 0.0
C382 C 0.52234 0.39152 0.47397 0.0
C383 C 0.5479 0.40102 0.47161 0.0
C384 C 0.55978 0.4243 0.47866 0.0
C385 C 0.54663 0.4376 0.48871 0.0
C386 C 0.49012 0.51253 0.47935 0.0
C387 C 0.55772 0.52478 0.50112 0.0
O388 O 0.5209 0.57265 0.52873 0.0
O389 O 0.52023 0.56209 0.56485 0.0
O390 O 0.51771 0.50063 0.54939 0.0
O391 O 0.55162 0.52695 0.56057 0.0
O392 O 0.47151 0.47972 0.53221 0.0
O393 O 0.47667 0.51826 0.54248 0.0
O394 O 0.52343 0.45567 0.52211 0.0
O395 O 0.49045 0.44767 0.49433 0.0
O396 O 0.50036 0.51765 0.5004 0.0
O397 O 0.48706 0.49079 0.47429 0.0
O398 O 0.54952 0.54083 0.51071 0.0
O399 O 0.54653 0.50249 0.50216 0.0
H400 H 0.53063 0.61825 0.57668 0.0
H401 H 0.50241 0.64154 0.58267 0.0
H402 H 0.44138 0.59231 0.5377 0.0
H403 H 0.46975 0.56878 0.53231 0.0
H404 H 0.48989 0.39687 0.48689 0.0
H405 H 0.5128 0.37358 0.46875 0.0
H406 H 0.57937 0.43209 0.47676 0.0
H407 H 0.55641 0.45537 0.49447 0.0
Pr408 Pr 1.00976 0.53112 1.00711 0.0
Pr409 Pr 0.02072 0.49555 0.03855 0.0
C410 C 0.99099 0.56027 0.9807 0.0
C411 C 0.96728 0.56623 0.9745 0.0
C412 C 0.96814 0.58792 0.9663 0.0
C413 C 0.94581 0.59322 0.95815 0.0
C414 C 0.9222 0.57686 0.95797 0.0
C415 C 0.9214 0.55542 0.96715 0.0
C416 C 0.9438 0.55014 0.97537 0.0
C417 C 0.05983 0.5429 0.02961 0.0
C418 C 0.99228 0.52939 0.06074 0.0
C419 C 0.04056 0.46678 0.06446 0.0
C420 C 0.06386 0.45966 0.06737 0.0
C421 C 0.06241 0.43661 0.07091 0.0
C422 C 0.0844 0.42967 0.07474 0.0
C423 C 0.10824 0.44574 0.07524 0.0
C424 C 0.10959 0.46877 0.07118 0.0
C425 C 0.08757 0.47566 0.06714 0.0
C426 C 0.97062 0.48392 1.01625 0.0
C427 C 0.03691 0.49645 0.98447 0.0
O428 O 0.99122 0.54002 0.97271 0.0
O429 O 1.00273 0.5659 1.00222 0.0
O430 O 0.04066 0.53399 0.03911 0.0
O431 O 0.05351 0.54716 1.008 0.0
O432 O 1.00812 0.51714 0.06635 0.0
O433 O 0.9866 0.53377 0.03849 0.0
O434 O 0.0427 0.48791 0.07176 0.0
O435 O 0.02529 0.46006 0.04463 0.0
O436 O 0.98976 0.49265 1.00659 0.0
O437 O 0.977 0.47978 0.03791 0.0
O438 O 0.02112 0.50879 0.97911 0.0
O439 O 0.04304 0.49228 1.00669 0.0
H440 H 0.98612 0.60056 0.96565 0.0
H441 H 0.94703 0.61003 0.95159 0.0
H442 H 0.90354 0.54241 0.96713 0.0
H443 H 0.94282 0.5333 0.98175 0.0
H444 H 0.04428 0.42403 0.07109 0.0
H445 H 0.0828 0.41186 0.07807 0.0
H446 H 0.1277 0.48146 0.07125 0.0
H447 H 0.08911 0.49354 0.06416 0.0
C448 C 0.24554 0.26474 0.36278 0.0
C449 C 0.26235 0.25545 0.35245 0.0
C450 C 0.22927 0.25162 0.37711 0.0
C451 C 0.22013 0.19996 0.41163 0.0
H452 H 0.14885 0.19607 0.39942 0.0
C453 C 0.14409 0.12201 0.43397 0.0
C454 C 0.12375 0.12538 0.44411 0.0
C455 C 0.16128 0.14041 0.4257 0.0
C456 C 0.16876 0.19728 0.40332 0.0
H457 H 0.27483 0.22489 0.34887 0.0
H458 H 0.24691 0.20234 0.37391 0.0
H459 H 0.17902 0.22423 0.37993 0.0
H460 H 0.10543 0.15071 0.45352 0.0
H461 H 0.13566 0.18315 0.4388 0.0
H462 H 0.20987 0.17258 0.43439 0.0
C463 C 0.24658 0.21987 0.37134 0.0
C464 C 0.18602 0.2134 0.39219 0.0
C465 C 0.26267 0.23287 0.35699 0.0
C466 C 0.12098 0.14765 0.44583 0.0
C467 C 0.13815 0.16614 0.43732 0.0
C468 C 0.20293 0.18388 0.42268 0.0
C469 C 0.22961 0.22902 0.38148 0.0
C470 C 0.21179 0.21442 0.39573 0.0
C471 C 0.15857 0.16268 0.42731 0.0
C472 C 0.17698 0.18191 0.41812 0.0
H473 H 0.24495 0.28214 0.3598 0.0
H474 H 0.21649 0.25917 0.3848 0.0
H475 H 0.23993 0.20068 0.4151 0.0
H476 H 0.14695 0.10512 0.43269 0.0
H477 H 0.1766 0.13713 0.41779 0.0
C478 C 0.35172 0.84142 0.81634 0.0
C479 C 0.33241 0.84957 0.80447 0.0
C480 C 0.36555 0.85225 0.83769 0.0
C481 C 0.36615 0.88883 0.88893 0.0
H482 H 0.43803 0.91293 0.88726 0.0
C483 C 0.43251 0.95579 0.95996 0.0
C484 C 0.45798 0.95616 0.96477 0.0
C485 C 0.41616 0.94081 0.94198 0.0
C486 C 0.41813 0.90593 0.88839 0.0
H487 H 0.31198 0.87505 0.80651 0.0
H488 H 0.33558 0.89329 0.84425 0.0
H489 H 0.41082 0.88945 0.85375 0.0
H490 H 0.48606 0.94032 0.95569 0.0
H491 H 0.4574 0.91338 0.92533 0.0
H492 H 0.37338 0.90479 0.92377 0.0
C493 C 0.33999 0.87861 0.83678 0.0
C494 C 0.40254 0.89258 0.86905 0.0
C495 C 0.32643 0.86805 0.81519 0.0
C496 C 0.46656 0.94062 0.95207 0.0
C497 C 0.45013 0.9253 0.93452 0.0
C498 C 0.38184 0.90182 0.90855 0.0
C499 C 0.36004 0.87113 0.84788 0.0
C500 C 0.37642 0.8841 0.86907 0.0
C501 C 0.42484 0.92555 0.92878 0.0
C502 C 0.40806 0.91074 0.90847 0.0
H503 H 0.35646 0.82688 0.80899 0.0
H504 H 0.3808 0.84607 0.8461 0.0
H505 H 0.34602 0.88236 0.88932 0.0
H506 H 0.42547 0.96771 0.96944 0.0
H507 H 0.39697 0.94181 0.93795 0.0
C508 C 0.61459 0.39764 0.71866 0.0
C509 C 0.60031 0.37465 0.72 0.0
C510 C 0.60827 0.41066 0.70033 0.0
C511 C 0.55539 0.41533 0.65695 0.0
H512 H 0.60825 0.4539 0.62612 0.0
C513 C 0.53182 0.46689 0.57829 0.0
C514 C 0.54781 0.48919 0.57709 0.0
C515 C 0.53864 0.45206 0.59446 0.0
C516 C 0.59326 0.44346 0.6347 0.0
H517 H 0.56796 0.34749 0.70285 0.0
H518 H 0.55665 0.37046 0.67104 0.0
H519 H 0.61899 0.42966 0.65673 0.0
H520 H 0.5836 0.51338 0.5918 0.0
H521 H 0.59534 0.48774 0.62049 0.0
H522 H 0.52971 0.42946 0.63545 0.0
C523 C 0.5728 0.37831 0.6843 0.0
C524 C 0.59943 0.42949 0.65222 0.0
C525 C 0.57926 0.36517 0.70258 0.0
C526 C 0.57096 0.49625 0.59223 0.0
C527 C 0.57772 0.48146 0.60859 0.0
C528 C 0.54924 0.42943 0.63958 0.0
C529 C 0.58733 0.40118 0.68291 0.0
C530 C 0.58059 0.41534 0.66363 0.0
C531 C 0.56153 0.45921 0.61009 0.0
C532 C 0.56809 0.44377 0.62824 0.0
H533 H 0.63052 0.40581 0.73202 0.0
H534 H 0.61956 0.42835 0.70005 0.0
H535 H 0.54048 0.40487 0.66562 0.0
H536 H 0.51376 0.46097 0.56695 0.0
H537 H 0.52587 0.43496 0.59472 0.0
C538 C 0.91273 0.62489 0.21579 0.0
C539 C 0.89864 0.61027 0.23093 0.0
C540 C 0.92213 0.61601 0.19726 0.0
C541 C 0.93579 0.56242 0.17538 0.0
H542 H 0.94237 0.59426 0.1179 0.0
C543 C 0.98876 0.5359 0.10368 0.0
C544 C 0.98073 0.53828 0.07978 0.0
C545 C 0.97836 0.54445 0.12166 0.0
C546 C 0.94048 0.5849 0.13367 0.0
H547 H 0.88371 0.57438 0.23785 0.0
H548 H 0.89918 0.55899 0.20534 0.0
H549 H 0.92454 0.60894 0.14917 0.0
H550 H 0.95502 0.55155 0.05632 0.0
H551 H 0.93651 0.56594 0.08746 0.0
H552 H 0.95097 0.53797 0.15962 0.0
C553 C 0.90344 0.57748 0.20801 0.0
C554 C 0.93051 0.59359 0.15192 0.0
C555 C 0.89415 0.58637 0.22662 0.0
C556 C 0.96183 0.54942 0.07446 0.0
C557 C 0.95129 0.55786 0.09246 0.0
C558 C 0.94563 0.55366 0.1571 0.0
C559 C 0.91772 0.59211 0.193 0.0
C560 C 0.92806 0.58258 0.1732 0.0
C561 C 0.95939 0.55558 0.11645 0.0
C562 C 0.9483 0.56478 0.1359 0.0
H563 H 0.91642 0.64335 0.21805 0.0
H564 H 0.93322 0.62804 0.18649 0.0
H565 H 0.93463 0.55343 0.19142 0.0
H566 H 1.00337 0.52761 0.10863 0.0
H567 H 0.98563 0.54262 0.13974 0.0
C568 C 0.41781 0.23077 0.2076 0.0
C569 C 0.39741 0.22486 0.2204 0.0
C570 C 0.42593 0.21363 0.19716 0.0
C571 C 0.42067 0.15109 0.1971 0.0
H572 H 0.43644 0.1593 0.13362 0.0
C573 C 0.42245 0.07632 0.13382 0.0
C574 C 0.44205 0.0804 0.12002 0.0
C575 C 0.41931 0.09424 0.1477 0.0
C576 C 0.4324 0.15687 0.15146 0.0
H577 H 0.36953 0.19639 0.23227 0.0
H578 H 0.38341 0.1666 0.21389 0.0
H579 H 0.42718 0.19027 0.15508 0.0
H580 H 0.47434 0.10638 0.11078 0.0
H581 H 0.46854 0.13767 0.13468 0.0
H582 H 0.4252 0.11737 0.1931 0.0
C583 C 0.39359 0.18441 0.21234 0.0
C584 C 0.42717 0.17465 0.1638 0.0
C585 C 0.38559 0.20151 0.22287 0.0
C586 C 0.4587 0.10273 0.12078 0.0
C587 C 0.45546 0.12065 0.13452 0.0
C588 C 0.42573 0.13325 0.18468 0.0
C589 C 0.4137 0.19023 0.19916 0.0
C590 C 0.42099 0.1719 0.1867 0.0
C591 C 0.43562 0.11664 0.14798 0.0
C592 C 0.43143 0.13589 0.16166 0.0
H593 H 0.42744 0.24864 0.20561 0.0
H594 H 0.44174 0.21873 0.18745 0.0
H595 H 0.41642 0.14853 0.21485 0.0
H596 H 0.40912 0.05941 0.13345 0.0
H597 H 0.40367 0.0907 0.15769 0.0
C598 C 0.18177 0.88321 0.64933 0.0
C599 C 0.18193 0.86308 0.63679 0.0
C600 C 0.16648 0.89659 0.64022 0.0
C601 C 0.11062 0.89495 0.59648 0.0
H602 H 0.13754 0.96136 0.60447 0.0
C603 C 0.04861 0.95493 0.57091 0.0
C604 C 0.05955 0.9748 0.55966 0.0
C605 C 0.06344 0.94151 0.58099 0.0
C606 C 0.12978 0.94285 0.60193 0.0
H607 H 0.16586 0.84117 0.60486 0.0
H608 H 0.13962 0.86488 0.58865 0.0
H609 H 0.16361 0.93734 0.61983 0.0
H610 H 0.09472 0.99629 0.5504 0.0
H611 H 0.12047 0.97273 0.56765 0.0
H612 H 0.07705 0.90049 0.57796 0.0
C613 C 0.15109 0.87011 0.60573 0.0
C614 C 0.14463 0.92905 0.611 0.0
C615 C 0.16635 0.85665 0.6149 0.0
C616 C 0.0857 0.98115 0.55904 0.0
C617 C 0.1005 0.96768 0.56903 0.0
C618 C 0.09579 0.90875 0.58734 0.0
C619 C 0.15106 0.89031 0.61826 0.0
C620 C 0.13523 0.90493 0.60842 0.0
C621 C 0.08953 0.94759 0.57997 0.0
C622 C 0.10519 0.93288 0.58995 0.0
H623 H 0.1938 0.88891 0.66607 0.0
H624 H 0.1667 0.91185 0.6505 0.0
H625 H 0.10269 0.87643 0.59439 0.0
H626 H 0.02853 0.9496 0.57179 0.0
H627 H 0.05444 0.92637 0.58962 0.0
C628 C 0.77079 0.37261 0.90284 0.0
C629 C 0.75327 0.38412 0.89386 0.0
C630 C 0.79359 0.38463 0.91661 0.0
C631 C 0.83735 0.4432 0.93126 0.0
H632 H 0.86398 0.41407 0.98405 0.0
C633 C 0.92462 0.46404 1.01485 0.0
C634 C 0.94476 0.47532 1.00323 0.0
C635 C 0.90042 0.45459 1.00224 0.0
C636 C 0.8567 0.42262 0.96957 0.0
H637 H 0.74582 0.41728 0.89247 0.0
H638 H 0.78554 0.43829 0.91674 0.0
H639 H 0.82331 0.39434 0.96102 0.0
H640 H 0.9553 0.48637 0.96953 0.0
H641 H 0.91322 0.4695 0.94738 0.0
H642 H 0.87059 0.47169 0.94015 0.0
C643 C 0.78186 0.42 0.9128 0.0
C644 C 0.83351 0.41114 0.95613 0.0
C645 C 0.75908 0.40797 0.89891 0.0
C646 C 0.94012 0.47765 0.97891 0.0
C647 C 0.91595 0.46812 0.96626 0.0
C648 C 0.86053 0.45475 0.94479 0.0
C649 C 0.79938 0.40847 0.92185 0.0
C650 C 0.82364 0.42116 0.93666 0.0
C651 C 0.89587 0.45616 0.97772 0.0
C652 C 0.8706 0.44451 0.964 0.0
H653 H 0.76704 0.3543 0.89894 0.0
H654 H 0.80684 0.37526 0.92287 0.0
H655 H 0.83043 0.45137 0.91629 0.0
H656 H 0.92763 0.46222 0.03367 0.0
H657 H 0.8853 0.44591 1.0117 0.0
C658 C 0.73191 0.61235 0.39101 0.0
C659 C 0.74423 0.59806 0.38087 0.0
C660 C 0.71122 0.60316 0.40272 0.0
C661 C 0.67954 0.55125 0.43237 0.0
H662 H 0.62569 0.58037 0.42916 0.0
C663 C 0.58925 0.51587 0.47719 0.0
C664 C 0.57968 0.53212 0.48782 0.0
C665 C 0.60902 0.52286 0.46372 0.0
C666 C 0.64067 0.57214 0.43052 0.0
H667 H 0.74372 0.56256 0.37484 0.0
H668 H 0.70723 0.5464 0.39499 0.0
H669 H 0.6596 0.59387 0.40582 0.0
H670 H 0.58402 0.56866 0.49267 0.0
H671 H 0.61835 0.58075 0.46951 0.0
H672 H 0.66044 0.52949 0.45714 0.0
C673 C 0.71393 0.56488 0.39415 0.0
C674 C 0.66022 0.57991 0.41705 0.0
C675 C 0.73472 0.57413 0.38232 0.0
C676 C 0.59073 0.55557 0.4848 0.0
C677 C 0.61038 0.56253 0.47129 0.0
C678 C 0.65988 0.54341 0.44583 0.0
C679 C 0.70194 0.5793 0.40467 0.0
C680 C 0.68019 0.56982 0.41796 0.0
C681 C 0.61973 0.54631 0.46035 0.0
C682 C 0.6403 0.55394 0.44534 0.0
H683 H 0.73834 0.63083 0.39001 0.0
H684 H 0.70286 0.61495 0.41073 0.0
H685 H 0.69463 0.54315 0.43382 0.0
H686 H 0.58126 0.49766 0.47901 0.0
H687 H 0.6155 0.50981 0.45548 0.0
C688 C 0.27876 0.38907 0.18265 0.0
C689 C 0.28096 0.36708 0.17731 0.0
C690 C 0.2638 0.39883 0.16702 0.0
C691 C 0.20775 0.38103 0.12261 0.0
H692 H 0.22384 0.44591 0.11129 0.0
C693 C 0.13359 0.41798 0.07147 0.0
C694 C 0.13155 0.43864 0.08134 0.0
C695 C 0.15452 0.41022 0.079 0.0
C696 C 0.21902 0.42776 0.11437 0.0
H697 H 0.26997 0.33844 0.15103 0.0
H698 H 0.24392 0.35554 0.12368 0.0
H699 H 0.25622 0.43066 0.13228 0.0
H700 H 0.1501 0.46769 0.10638 0.0
H701 H 0.18634 0.45401 0.11988 0.0
H702 H 0.17035 0.37816 0.10575 0.0
C703 C 0.25369 0.36517 0.14001 0.0
C704 C 0.23759 0.41904 0.12632 0.0
C705 C 0.26878 0.35548 0.15557 0.0
C706 C 0.15129 0.45181 0.09827 0.0
C707 C 0.17211 0.44398 0.10595 0.0
C708 C 0.18916 0.38975 0.11083 0.0
C709 C 0.2506 0.38672 0.14581 0.0
C710 C 0.23201 0.39566 0.1309 0.0
C711 C 0.17376 0.42286 0.09674 0.0
C712 C 0.19441 0.4133 0.10693 0.0
H713 H 0.28813 0.3985 0.19918 0.0
H714 H 0.26165 0.41539 0.17206 0.0
H715 H 0.20275 0.36299 0.12618 0.0
H716 H 0.11881 0.40765 0.05813 0.0
H717 H 0.15541 0.39411 0.07119 0.0
C718 C 0.55606 0.21479 0.88531 0.0
C719 C 0.57197 0.21583 0.86814 0.0
C720 C 0.54736 0.19448 0.89651 0.0
C721 C 0.56448 0.14299 0.91425 0.0
H722 H 0.4946 0.12043 0.92416 0.0
C723 C 0.52859 0.06202 0.96638 0.0
C724 C 0.51027 0.06265 0.98069 0.0
C725 C 0.53567 0.07924 0.95068 0.0
C726 C 0.51428 0.12661 0.92185 0.0
H727 H 0.59109 0.19641 0.84908 0.0
H728 H 0.57614 0.16086 0.869 0.0
H729 H 0.50733 0.15312 0.90025 0.0
H730 H 0.48542 0.08201 0.99024 0.0
H731 H 0.49822 0.11223 0.96374 0.0
H732 H 0.57174 0.11714 0.9366 0.0
C733 C 0.5703 0.17577 0.87363 0.0
C734 C 0.5215 0.14529 0.908 0.0
C735 C 0.57867 0.19601 0.86211 0.0
C736 C 0.49943 0.08092 0.97926 0.0
C737 C 0.50664 0.09819 0.96384 0.0
C738 C 0.55733 0.12445 0.9284 0.0
C739 C 0.5547 0.17485 0.89108 0.0
C740 C 0.54672 0.15387 0.90427 0.0
C741 C 0.52472 0.09757 0.94915 0.0
C742 C 0.53217 0.11621 0.93271 0.0
H743 H 0.5506 0.22981 0.89028 0.0
H744 H 0.53551 0.19436 0.90999 0.0
H745 H 0.58412 0.14936 0.91184 0.0
H746 H 0.53732 0.0482 0.9672 0.0
H747 H 0.5495 0.07802 0.93956 0.0
C748 C 0.91785 0.79074 0.37077 0.0
C749 C 0.91344 0.77081 0.38351 0.0
C750 C 0.92734 0.81274 0.38249 0.0
C751 C 0.96164 0.84277 0.44 0.0
H752 H 0.93568 0.89287 0.41852 0.0
C753 C 1.00944 0.93653 0.47692 0.0
C754 C 0.99429 0.95085 0.48089 0.0
C755 C 0.99888 0.9147 0.46535 0.0
C756 C 0.943 0.87904 0.42489 0.0
H757 H 0.91648 0.75866 0.41869 0.0
H758 H 0.93265 0.79668 0.43896 0.0
H759 H 0.91914 0.85489 0.39753 0.0
H760 H 0.95592 0.95321 0.47599 0.0
H761 H 0.93727 0.91482 0.45571 0.0
H762 H 0.98524 0.86668 0.46748 0.0
C763 C 0.92886 0.79544 0.4199 0.0
C764 C 0.93373 0.85728 0.41265 0.0
C765 C 0.91931 0.77354 0.40823 0.0
C766 C 0.96812 0.94263 0.47315 0.0
C767 C 0.95749 0.92069 0.4614 0.0
C768 C 0.97094 0.86447 0.45214 0.0
C769 C 0.93291 0.81542 0.40727 0.0
C770 C 0.94293 0.83881 0.42002 0.0
C771 C 0.97277 0.9064 0.45733 0.0
C772 C 0.96187 0.88299 0.44476 0.0
H773 H 0.91342 0.78937 0.35175 0.0
H774 H 0.93047 0.82766 0.37211 0.0
H775 H 0.96942 0.82914 0.44615 0.0
H776 H 0.02967 0.94226 0.48263 0.0
H777 H 0.01137 0.90447 0.46231 0.0
C778 C 0.36015 0.75712 0.61386 0.0
C779 C 0.33553 0.74733 0.61876 0.0
C780 C 0.37328 0.74346 0.6044 0.0
C781 C 0.36645 0.68581 0.57602 0.0
H782 H 0.43681 0.69909 0.60383 0.0
C783 C 0.42762 0.6235 0.56735 0.0
C784 C 0.45278 0.63344 0.56382 0.0
C785 C 0.4123 0.63739 0.57179 0.0
C786 C 0.41728 0.69531 0.59567 0.0
H787 H 0.30498 0.71576 0.61686 0.0
H788 H 0.32809 0.6917 0.6007 0.0
H789 H 0.41185 0.72337 0.61526 0.0
H790 H 0.48107 0.66575 0.56096 0.0
H791 H 0.45448 0.68988 0.56894 0.0
H792 H 0.37198 0.65731 0.55684 0.0
C793 C 0.33714 0.71001 0.60381 0.0
C794 C 0.40294 0.70928 0.60216 0.0
C795 C 0.32389 0.72376 0.61308 0.0
C796 C 0.46199 0.65754 0.56415 0.0
C797 C 0.44674 0.67138 0.56866 0.0
C798 C 0.38081 0.6717 0.56961 0.0
C799 C 0.36222 0.71963 0.59987 0.0
C800 C 0.37737 0.70479 0.59239 0.0
C801 C 0.42185 0.66149 0.57286 0.0
C802 C 0.40641 0.67636 0.57934 0.0
H803 H 0.36942 0.77532 0.61775 0.0
H804 H 0.39231 0.75157 0.60102 0.0
H805 H 0.34688 0.68197 0.56799 0.0
H806 H 0.42 0.60502 0.56742 0.0
H807 H 0.39326 0.62928 0.57515 0.0
C808 C 0.79409 0.76233 0.68689 0.0
C809 C 0.76789 0.75502 0.67932 0.0
C810 C 0.81045 0.77509 0.67254 0.0
C811 C 0.81028 0.81352 0.62384 0.0
H812 H 0.87898 0.81049 0.62485 0.0
C813 C 0.87948 0.87499 0.5725 0.0
C814 C 0.90292 0.88651 0.5859 0.0
C815 C 0.86334 0.85577 0.58081 0.0
C816 C 0.85984 0.81151 0.62441 0.0
H817 H 0.73837 0.75427 0.65032 0.0
H818 H 0.76697 0.77621 0.62499 0.0
H819 H 0.84962 0.78207 0.64469 0.0
H820 H 0.92844 0.88616 0.61783 0.0
H821 H 0.9002 0.85263 0.63241 0.0
H822 H 0.82059 0.8431 0.60385 0.0
C823 C 0.77486 0.77257 0.64226 0.0
C824 C 0.84303 0.79529 0.63582 0.0
C825 C 0.75847 0.75995 0.65672 0.0
C826 C 0.91039 0.87775 0.60723 0.0
C827 C 0.89432 0.85844 0.61547 0.0
C828 C 0.82701 0.8296 0.61232 0.0
C829 C 0.80101 0.78072 0.6502 0.0
C830 C 0.81817 0.79635 0.63604 0.0
C831 C 0.87037 0.84758 0.60261 0.0
C832 C 0.85209 0.82902 0.61282 0.0
H833 H 0.80188 0.75907 0.70435 0.0
H834 H 0.8304 0.78137 0.67942 0.0
H835 H 0.79146 0.81516 0.62398 0.0
H836 H 0.8731 0.88142 0.55607 0.0
H837 H 0.8451 0.84761 0.57042 0.0
C838 C 0.69656 0.14012 0.22 0.0
C839 C 0.68745 0.15618 0.23143 0.0
C840 C 0.68495 0.13023 0.1976 0.0
C841 C 0.63706 0.13482 0.14673 0.0
H842 H 0.63063 0.07004 0.13546 0.0
C843 C 0.55878 0.07094 0.08132 0.0
C844 C 0.5669 0.0573 0.06578 0.0
C845 C 0.57606 0.08528 0.09913 0.0
C846 C 0.63255 0.0882 0.13829 0.0
H847 H 0.6597 0.17529 0.22745 0.0
H848 H 0.63853 0.15703 0.18939 0.0
H849 H 0.65625 0.09077 0.17126 0.0
H850 H 0.59944 0.04814 0.05645 0.0
H851 H 0.62954 0.07275 0.08819 0.0
H852 H 0.61185 0.13153 0.11425 0.0
C853 C 0.65502 0.15238 0.19736 0.0
C854 C 0.64737 0.10018 0.15874 0.0
C855 C 0.66691 0.16258 0.21953 0.0
C856 C 0.59268 0.05856 0.06812 0.0
C857 C 0.60987 0.07252 0.08627 0.0
C858 C 0.6218 0.12267 0.12651 0.0
C859 C 0.66365 0.13583 0.18618 0.0
C860 C 0.6496 0.12361 0.16341 0.0
C861 C 0.60164 0.08586 0.10199 0.0
C862 C 0.61928 0.09923 0.12227 0.0
H863 H 0.71221 0.13461 0.22859 0.0
H864 H 0.69252 0.11794 0.1894 0.0
H865 H 0.63874 0.15293 0.14936 0.0
H866 H 0.53903 0.07038 0.07985 0.0
H867 H 0.5693 0.09532 0.11119 0.0
C868 C 0.45412 0.65518 0.33836 0.0
C869 C 0.44645 0.64478 0.31537 0.0
C870 C 0.46104 0.6427 0.35708 0.0
C871 C 0.48018 0.58967 0.3701 0.0
H872 H 0.45493 0.59463 0.42907 0.0
C873 C 0.4775 0.52141 0.43811 0.0
C874 C 0.48503 0.5289 0.46198 0.0
C875 C 0.4741 0.53688 0.42121 0.0
C876 C 0.46239 0.59324 0.41282 0.0
H877 H 0.44111 0.61339 0.29397 0.0
H878 H 0.45267 0.59165 0.32643 0.0
H879 H 0.44762 0.61958 0.39775 0.0
H880 H 0.49423 0.55833 0.487 0.0
H881 H 0.48825 0.58553 0.45741 0.0
H882 H 0.49452 0.56308 0.38495 0.0
C883 C 0.45353 0.60945 0.33011 0.0
C884 C 0.45825 0.60759 0.39486 0.0
C885 C 0.4466 0.62187 0.31148 0.0
C886 C 0.48854 0.55213 0.46871 0.0
C887 C 0.485 0.56765 0.45177 0.0
C888 C 0.48421 0.57531 0.38797 0.0
C889 C 0.46061 0.61959 0.35322 0.0
C890 C 0.46676 0.60574 0.37311 0.0
C891 C 0.47804 0.56024 0.42776 0.0
C892 C 0.47503 0.57664 0.40942 0.0
H893 H 0.45408 0.67275 0.342 0.0
H894 H 0.46666 0.65115 0.37459 0.0
H895 H 0.48751 0.58808 0.35382 0.0
H896 H 0.47456 0.5036 0.43238 0.0
H897 H 0.46829 0.53049 0.40295 0.0
C898 C 0.1294 0.43641 0.81607 0.0
C899 C 0.12488 0.41247 0.81207 0.0
C900 C 0.12067 0.44559 0.83488 0.0
C901 C 0.09536 0.43037 0.89196 0.0
H902 H 0.07496 0.48602 0.88432 0.0
C903 C 0.06661 0.47587 0.97015 0.0
C904 C 0.04776 0.48713 0.96517 0.0
C905 C 0.07651 0.46707 0.9519 0.0
C906 C 0.08029 0.47032 0.88684 0.0
H907 H 0.1076 0.37963 0.82569 0.0
H908 H 0.09172 0.39543 0.85761 0.0
H909 H 0.0902 0.47 0.85212 0.0
H910 H 0.02451 0.49759 0.93665 0.0
H911 H 0.04113 0.48194 0.90513 0.0
H912 H 0.08457 0.43025 0.9264 0.0
C913 C 0.10243 0.40728 0.84643 0.0
C914 C 0.0895 0.46125 0.86831 0.0
C915 C 0.11129 0.3981 0.82771 0.0
C916 C 0.03911 0.48922 0.94134 0.0
C917 C 0.04886 0.48031 0.92312 0.0
C918 C 0.08601 0.43938 0.91046 0.0
C919 C 0.10692 0.43121 0.85041 0.0
C920 C 0.09721 0.44106 0.87046 0.0
C921 C 0.0678 0.46908 0.92799 0.0
C922 C 0.07823 0.45952 0.90826 0.0
H923 H 0.13946 0.44821 0.80446 0.0
H924 H 0.12497 0.46409 0.8373 0.0
H925 H 0.10135 0.41503 0.8947 0.0
H926 H 0.07388 0.47395 0.98822 0.0
H927 H 0.09128 0.45892 0.95663 0.0
C928 C 0.61917 0.80125 0.80296 0.0
C929 C 0.63107 0.7871 0.81632 0.0
C930 C 0.61153 0.81833 0.81406 0.0
C931 C 0.59716 0.83666 0.87099 0.0
H932 H 0.61621 0.8979 0.84826 0.0
C933 C 0.59665 0.9162 0.92683 0.0
C934 C 0.5881 0.9334 0.91545 0.0
C935 C 0.6004 0.89809 0.91379 0.0
C936 C 0.61041 0.88085 0.85463 0.0
H937 H 0.64408 0.77982 0.85188 0.0
H938 H 0.63041 0.80929 0.87114 0.0
H939 H 0.62427 0.86613 0.82692 0.0
H940 H 0.57676 0.94512 0.88148 0.0
H941 H 0.58317 0.91336 0.85863 0.0
H942 H 0.5834 0.85131 0.89873 0.0
C943 C 0.62678 0.80703 0.8521 0.0
C944 C 0.61503 0.86265 0.8424 0.0
C945 C 0.63455 0.79007 0.84103 0.0
C946 C 0.58364 0.93225 0.89072 0.0
C947 C 0.5873 0.91405 0.87765 0.0
C948 C 0.59244 0.85481 0.88315 0.0
C949 C 0.61546 0.82152 0.83874 0.0
C950 C 0.60877 0.84043 0.85064 0.0
C951 C 0.59559 0.89669 0.88905 0.0
C952 C 0.59935 0.87719 0.87532 0.0
H953 H 0.61587 0.79921 0.78391 0.0
H954 H 0.60256 0.82907 0.80333 0.0
H955 H 0.59178 0.81965 0.87755 0.0
H956 H 0.60064 0.91683 0.94587 0.0
H957 H 0.60734 0.88529 0.92313 0.0
C958 C 0.83029 0.14251 0.42457 0.0
C959 C 0.83777 0.15869 0.40795 0.0
C960 C 0.84642 0.13004 0.43413 0.0
C961 C 0.90208 0.11186 0.42243 0.0
H962 H 0.90263 0.09429 0.48692 0.0
C963 C 0.97236 0.06646 0.4693 0.0
C964 C 0.96188 0.0478 0.48237 0.0
C965 C 0.95772 0.08029 0.45976 0.0
C966 C 0.90253 0.09895 0.46882 0.0
H967 H 0.8683 0.17509 0.38891 0.0
H968 H 0.8968 0.15375 0.40604 0.0
H969 H 0.87703 0.11896 0.47209 0.0
H970 H 0.92768 0.02882 0.49536 0.0
H971 H 0.90228 0.05305 0.47884 0.0
H972 H 0.92797 0.09203 0.41942 0.0
C973 C 0.87822 0.15024 0.41126 0.0
C974 C 0.88782 0.11305 0.46029 0.0
C975 C 0.86197 0.16256 0.40152 0.0
C976 C 0.93635 0.04304 0.48536 0.0
C977 C 0.92183 0.05701 0.47606 0.0
C978 C 0.91701 0.09795 0.43107 0.0
C979 C 0.87052 0.13359 0.42746 0.0
C980 C 0.88719 0.11951 0.4369 0.0
C981 C 0.93242 0.07589 0.46334 0.0
C982 C 0.91717 0.09116 0.45428 0.0
H983 H 0.81159 0.13888 0.42957 0.0
H984 H 0.83962 0.11711 0.44621 0.0
H985 H 0.90178 0.11616 0.40423 0.0
H986 H 0.99197 0.07058 0.46667 0.0
H987 H 0.96639 0.0948 0.45011 0.0
C988 C 0.25711 0.62686 0.16372 0.0
C989 C 0.27683 0.64134 0.15355 0.0
C990 C 0.23434 0.61492 0.14977 0.0
C991 C 0.19556 0.6163 0.09268 0.0
H992 H 0.16075 0.55342 0.10387 0.0
C993 C 0.10554 0.56436 0.03171 0.0
C994 C 0.08562 0.55165 0.0428 0.0
C995 C 0.12959 0.57391 0.0446 0.0
C996 C 0.17014 0.57104 0.10065 0.0
H997 H 0.28828 0.65406 0.12062 0.0
H998 H 0.2486 0.6333 0.09633 0.0
H999 H 0.20129 0.57296 0.12773 0.0
H1000 H 0.07534 0.53819 0.07581 0.0
H1001 H 0.11725 0.55503 0.09839 0.0
H1002 H 0.16439 0.61453 0.06581 0.0
C1003 C 0.25057 0.63148 0.11515 0.0
C1004 C 0.19336 0.58224 0.11433 0.0
C1005 C 0.27332 0.6434 0.12908 0.0
C1006 C 0.09035 0.54802 0.06684 0.0
C1007 C 0.11441 0.55754 0.07973 0.0
C1008 C 0.17238 0.60512 0.07903 0.0
C1009 C 0.23076 0.61718 0.12533 0.0
C1010 C 0.2063 0.60503 0.11055 0.0
C1011 C 0.13423 0.5709 0.06884 0.0
C1012 C 0.15933 0.58239 0.08289 0.0
H1013 H 0.25907 0.6251 0.18254 0.0
H1014 H 0.21934 0.6043 0.15822 0.0
H1015 H 0.20481 0.63398 0.08956 0.0
H1016 H 0.10246 0.56725 1.01315 0.0
H1017 H 0.14455 0.58376 0.03559 0.0
C1018 C 0.29758 0.43527 0.66924 0.0
C1019 C 0.27287 0.42546 0.65735 0.0
C1020 C 0.31775 0.44444 0.65668 0.0
C1021 C 0.33546 0.44129 0.59642 0.0
H1022 H 0.39209 0.49379 0.62081 0.0
C1023 C 0.42724 0.46582 0.55399 0.0
C1024 C 0.44046 0.48921 0.55329 0.0
C1025 C 0.40656 0.45902 0.5663 0.0
C1026 C 0.37633 0.47923 0.61357 0.0
H1027 H 0.24996 0.41899 0.62287 0.0
H1028 H 0.28471 0.43514 0.60117 0.0
H1029 H 0.35679 0.48102 0.64296 0.0
H1030 H 0.44169 0.5238 0.56498 0.0
H1031 H 0.4054 0.51197 0.58609 0.0
H1032 H 0.35465 0.43969 0.56687 0.0
C1033 C 0.28882 0.43516 0.62015 0.0
C1034 C 0.35615 0.47169 0.62648 0.0
C1035 C 0.26878 0.42593 0.63265 0.0
C1036 C 0.43206 0.50563 0.56504 0.0
C1037 C 0.41131 0.49881 0.57738 0.0
C1038 C 0.35558 0.44881 0.58354 0.0
C1039 C 0.31375 0.44418 0.63186 0.0
C1040 C 0.33537 0.45257 0.61812 0.0
C1041 C 0.3983 0.47536 0.57833 0.0
C1042 C 0.37643 0.46784 0.59191 0.0
H1043 H 0.30152 0.43508 0.68821 0.0
H1044 H 0.33661 0.45104 0.66642 0.0
H1045 H 0.3201 0.42632 0.58943 0.0
H1046 H 0.43312 0.45258 0.54536 0.0
H1047 H 0.39742 0.4408 0.56681 0.0
C1048 C 0.75265 0.64889 0.86817 0.0
C1049 C 0.73889 0.63789 0.84667 0.0
C1050 C 0.7681 0.63844 0.88238 0.0
C1051 C 0.80413 0.59722 0.87602 0.0
H1052 H 0.82 0.60684 0.94402 0.0
C1053 C 0.89845 0.59244 0.92548 0.0
C1054 C 0.89872 0.58168 0.94685 0.0
C1055 C 0.87643 0.5966 0.91447 0.0
C1056 C 0.81556 0.60375 0.92507 0.0
H1057 H 0.72896 0.60661 0.82407 0.0
H1058 H 0.75566 0.58816 0.84904 0.0
H1059 H 0.78409 0.61766 0.92335 0.0
H1060 H 0.87607 0.56696 0.97353 0.0
H1061 H 0.83729 0.5741 0.95407 0.0
H1062 H 0.83558 0.58345 0.87764 0.0
C1063 C 0.755 0.60512 0.85465 0.0
C1064 C 0.79515 0.61013 0.91321 0.0
C1065 C 0.73967 0.61563 0.84037 0.0
C1066 C 0.8764 0.57518 0.95701 0.0
C1067 C 0.85428 0.57941 0.94597 0.0
C1068 C 0.82445 0.59085 0.88784 0.0
C1069 C 0.77003 0.61671 0.87544 0.0
C1070 C 0.78952 0.60736 0.88849 0.0
C1071 C 0.85405 0.59003 0.92449 0.0
C1072 C 0.83078 0.59454 0.91242 0.0
H1073 H 0.75264 0.66615 0.87338 0.0
H1074 H 0.77961 0.64799 0.89811 0.0
H1075 H 0.80058 0.59506 0.85698 0.0
H1076 H 0.91521 0.59738 0.917 0.0
H1077 H 0.877 0.60513 0.89812 0.0
C1078 C 0.43198 0.81732 0.15908 0.0
C1079 C 0.44953 0.80903 0.17363 0.0
C1080 C 0.43998 0.83603 0.14546 0.0
C1081 C 0.49674 0.88414 0.1369 0.0
H1082 H 0.45615 0.88502 0.07665 0.0
C1083 C 0.53097 0.9427 0.06226 0.0
C1084 C 0.51458 0.95485 0.05212 0.0
C1085 C 0.52324 0.92625 0.07844 0.0
C1086 C 0.46755 0.8851 0.09353 0.0
H1087 H 0.48964 0.81454 0.18513 0.0
H1088 H 0.50358 0.84614 0.16035 0.0
H1089 H 0.4428 0.85337 0.1016 0.0
H1090 H 0.47728 0.95939 0.05086 0.0
H1091 H 0.46344 0.93007 0.07876 0.0
H1092 H 0.52209 0.91547 0.12795 0.0
C1093 C 0.48348 0.8386 0.16 0.0
C1094 C 0.45986 0.867 0.10799 0.0
C1095 C 0.47544 0.8201 0.17401 0.0
C1096 C 0.49032 0.95035 0.05854 0.0
C1097 C 0.48239 0.93353 0.07438 0.0
C1098 C 0.50467 0.90202 0.12218 0.0
C1099 C 0.46585 0.84682 0.14543 0.0
C1100 C 0.47426 0.86624 0.12998 0.0
C1101 C 0.49876 0.92127 0.08443 0.0
C1102 C 0.4901 0.90271 0.10039 0.0
H1103 H 0.41187 0.80914 0.15773 0.0
H1104 H 0.42569 0.84199 0.13495 0.0
H1105 H 0.50817 0.88454 0.1538 0.0
H1106 H 0.54977 0.94583 0.05759 0.0
H1107 H 0.53617 0.91695 0.08578 0.0
C1108 C 0.09097 0.233 0.66772 0.0
C1109 C 0.11325 0.24859 0.66244 0.0
C1110 C 0.0808 0.21132 0.65544 0.0
C1111 C 0.08549 0.17727 0.6011 0.0
H1112 H 0.04808 0.12592 0.63271 0.0
C1113 C 0.05304 0.08153 0.56196 0.0
C1114 C 0.02743 0.06998 0.56236 0.0
C1115 C 0.06426 0.10327 0.57397 0.0
C1116 C 0.05845 0.14011 0.62361 0.0
H1117 H 0.14167 0.25315 0.63915 0.0
H1118 H 0.12512 0.21535 0.61915 0.0
H1119 H 0.06596 0.16343 0.65396 0.0
H1120 H 0.99362 0.0722 0.57581 0.0
H1121 H 0.01329 0.10953 0.59716 0.0
H1122 H 0.07845 0.15343 0.57096 0.0
C1123 C 0.11497 0.21992 0.63238 0.0
C1124 C 0.06859 0.1618 0.63575 0.0
C1125 C 0.12487 0.24169 0.64435 0.0
C1126 C 0.01341 0.08056 0.57514 0.0
C1127 C 0.0247 0.10195 0.5875 0.0
C1128 C 0.07574 0.15544 0.58912 0.0
C1129 C 0.09272 0.20429 0.63764 0.0
C1130 C 0.08213 0.18088 0.62468 0.0
C1131 C 0.05024 0.11366 0.58705 0.0
C1132 C 0.06189 0.13663 0.60015 0.0
H1133 H 0.08141 0.23733 0.68157 0.0
H1134 H 0.06341 0.20018 0.65989 0.0
H1135 H 0.09525 0.19138 0.59158 0.0
H1136 H 0.0643 0.07389 0.55217 0.0
H1137 H 0.08399 0.11183 0.5733 0.0
C1138 C 0.65297 0.27275 0.3874 0.0
C1139 C 0.67256 0.26773 0.40254 0.0
C1140 C 0.63978 0.28719 0.39524 0.0
C1141 C 0.64479 0.33442 0.43728 0.0
H1142 H 0.57151 0.31373 0.42747 0.0
C1143 C 0.5859 0.38653 0.47613 0.0
C1144 C 0.56261 0.3864 0.46319 0.0
C1145 C 0.5995 0.37218 0.46886 0.0
C1146 C 0.59194 0.31999 0.43002 0.0
H1147 H 0.6937 0.27436 0.43789 0.0
H1148 H 0.67109 0.30029 0.45128 0.0
H1149 H 0.59509 0.28861 0.41465 0.0
H1150 H 0.53543 0.37157 0.43228 0.0
H1151 H 0.55955 0.34705 0.41896 0.0
H1152 H 0.64184 0.36606 0.45193 0.0
C1153 C 0.66596 0.29276 0.43337 0.0
C1154 C 0.60542 0.3055 0.42281 0.0
C1155 C 0.67894 0.27799 0.42564 0.0
C1156 C 0.55327 0.37184 0.44265 0.0
C1157 C 0.56705 0.35771 0.43515 0.0
C1158 C 0.63132 0.34908 0.44418 0.0
C1159 C 0.64612 0.29731 0.41828 0.0
C1160 C 0.63195 0.31257 0.4264 0.0
C1161 C 0.59028 0.35756 0.44826 0.0
C1162 C 0.60469 0.34206 0.44068 0.0
H1163 H 0.64793 0.26576 0.36931 0.0
H1164 H 0.62482 0.29072 0.38315 0.0
H1165 H 0.66526 0.34035 0.43999 0.0
H1166 H 0.59334 0.39736 0.49224 0.0
H1167 H 0.617 0.37224 0.4797 0.0
loop_
_geom_bond_atom_site_label_1
_geom_bond_atom_site_label_2
_geom_bond_distance
_geom_bond_site_symmetry_2
_ccdc_geom_bond_type
C0 C1 1.384 . S
C0 H13 0.947 . S
C0 C35 1.382 . S
C1 C0 1.384 . S
C1 C2 1.378 . S
C2 C1 1.378 . S
C2 C3 1.378 . S
C2 H14 0.952 . S
C3 C2 1.378 . S
C3 H15 0.950 . S
C3 C34 1.383 . S
H4 C23 0.947 . S
H5 C24 0.946 . S
H6 C26 0.953 . S
H7 C27 0.945 . S
H8 C29 0.952 . S
H9 C30 0.949 . S
H10 C32 0.950 . S
H11 C33 0.948 . S
H12 C35 0.951 . S
H13 C0 0.947 . S
H14 C2 0.952 . S
H15 C3 0.950 . S
N16 C19 1.382 . S
N16 C21 1.363 . S
N17 C19 1.371 . S
N17 C20 1.372 . S
N18 C20 1.361 . S
N18 C21 1.377 . S
C19 N16 1.382 . S
C19 N17 1.371 . S
C19 C22 1.480 . S
C20 N17 1.372 . S
C20 N18 1.361 . S
C20 C28 1.457 . S
C21 N16 1.363 . S
C21 N18 1.377 . S
C21 C34 1.479 . S
C22 C19 1.480 . S
C22 C23 1.383 . S
C22 C27 1.385 . S
C23 H4 0.947 . S
C23 C22 1.383 . S
C23 C24 1.388 . S
C24 H5 0.946 . S
C24 C23 1.388 . S
C24 C25 1.384 . S
C25 C24 1.384 . S
C25 C26 1.377 . S
C26 H6 0.953 . S
C26 C25 1.377 . S
C26 C27 1.369 . S
C27 H7 0.945 . S
C27 C22 1.385 . S
C27 C26 1.369 . S
C28 C20 1.457 . S
C28 C29 1.372 . S
C28 C33 1.364 . S
C29 H8 0.952 . S
C29 C28 1.372 . S
C29 C30 1.389 . S
C30 H9 0.949 . S
C30 C29 1.389 . S
C30 C31 1.387 . S
C31 C30 1.387 . S
C31 C32 1.372 . S
C32 H10 0.950 . S
C32 C31 1.372 . S
C32 C33 1.379 . S
C33 H11 0.948 . S
C33 C28 1.364 . S
C33 C32 1.379 . S
C34 C3 1.383 . S
C34 C21 1.479 . S
C34 C35 1.398 . S
C35 C0 1.382 . S
C35 H12 0.951 . S
C35 C34 1.398 . S
C36 C37 1.384 . S
C36 H49 0.947 . S
C36 C71 1.382 . S
C37 C36 1.384 . S
C37 C38 1.378 . S
C38 C37 1.378 . S
C38 C39 1.378 . S
C38 H50 0.952 . S
C39 C38 1.378 . S
C39 H51 0.950 . S
C39 C70 1.383 . S
H40 C59 0.947 . S
H41 C60 0.946 . S
H42 C62 0.953 . S
H43 C63 0.945 . S
H44 C65 0.952 . S
H45 C66 0.949 . S
H46 C68 0.950 . S
H47 C69 0.948 . S
H48 C71 0.951 . S
H49 C36 0.947 . S
H50 C38 0.952 . S
H51 C39 0.950 . S
N52 C55 1.382 . S
N52 C57 1.363 . S
N53 C55 1.371 . S
N53 C56 1.372 . S
N54 C56 1.361 . S
N54 C57 1.377 . S
C55 N52 1.382 . S
C55 N53 1.371 . S
C55 C58 1.480 . S
C56 N53 1.372 . S
C56 N54 1.361 . S
C56 C64 1.457 . S
C57 N52 1.363 . S
C57 N54 1.377 . S
C57 C70 1.479 . S
C58 C55 1.480 . S
C58 C59 1.383 . S
C58 C63 1.385 . S
C59 H40 0.947 . S
C59 C58 1.383 . S
C59 C60 1.388 . S
C60 H41 0.946 . S
C60 C59 1.388 . S
C60 C61 1.384 . S
C61 C60 1.384 . S
C61 C62 1.377 . S
C62 H42 0.953 . S
C62 C61 1.377 . S
C62 C63 1.369 . S
C63 H43 0.945 . S
C63 C58 1.385 . S
C63 C62 1.369 . S
C64 C56 1.457 . S
C64 C65 1.372 . S
C64 C69 1.364 . S
C65 H44 0.952 . S
C65 C64 1.372 . S
C65 C66 1.389 . S
C66 H45 0.949 . S
C66 C65 1.389 . S
C66 C67 1.387 . S
C67 C66 1.387 . S
C67 C68 1.372 . S
C68 H46 0.950 . S
C68 C67 1.372 . S
C68 C69 1.379 . S
C69 H47 0.948 . S
C69 C64 1.364 . S
C69 C68 1.379 . S
C70 C39 1.383 . S
C70 C57 1.479 . S
C70 C71 1.398 . S
C71 C36 1.382 . S
C71 H48 0.951 . S
C71 C70 1.398 . S
C72 C73 1.384 . S
C72 H85 0.947 . S
C72 C107 1.382 . S
C73 C72 1.384 . S
C73 C74 1.378 . S
C74 C73 1.378 . S
C74 C75 1.378 . S
C74 H86 0.952 . S
C75 C74 1.378 . S
C75 H87 0.950 . S
C75 C106 1.383 . S
H76 C95 0.947 . S
H77 C96 0.946 . S
H78 C98 0.953 . S
H79 C99 0.945 . S
H80 C101 0.952 . S
H81 C102 0.949 . S
H82 C104 0.950 . S
H83 C105 0.948 . S
H84 C107 0.951 . S
H85 C72 0.947 . S
H86 C74 0.952 . S
H87 C75 0.950 . S
N88 C91 1.382 . S
N88 C93 1.363 . S
N89 C91 1.371 . S
N89 C92 1.372 . S
N90 C92 1.361 . S
N90 C93 1.377 . S
C91 N88 1.382 . S
C91 N89 1.371 . S
C91 C94 1.480 . S
C92 N89 1.372 . S
C92 N90 1.361 . S
C92 C100 1.457 . S
C93 N88 1.363 . S
C93 N90 1.377 . S
C93 C106 1.479 . S
C94 C91 1.480 . S
C94 C95 1.383 . S
C94 C99 1.385 . S
C95 H76 0.947 . S
C95 C94 1.383 . S
C95 C96 1.388 . S
C96 H77 0.946 . S
C96 C95 1.388 . S
C96 C97 1.384 . S
C97 C96 1.384 . S
C97 C98 1.377 . S
C98 H78 0.953 . S
C98 C97 1.377 . S
C98 C99 1.369 . S
C99 H79 0.945 . S
C99 C94 1.385 . S
C99 C98 1.369 . S
C100 C92 1.457 . S
C100 C101 1.372 . S
C100 C105 1.364 . S
C101 H80 0.952 . S
C101 C100 1.372 . S
C101 C102 1.389 . S
C102 H81 0.949 . S
C102 C101 1.389 . S
C102 C103 1.387 . S
C103 C102 1.387 . S
C103 C104 1.372 . S
C104 H82 0.950 . S
C104 C103 1.372 . S
C104 C105 1.379 . S
C105 H83 0.948 . S
C105 C100 1.364 . S
C105 C104 1.379 . S
C106 C75 1.383 . S
C106 C93 1.479 . S
C106 C107 1.398 . S
C107 C72 1.382 . S
C107 H84 0.951 . S
C107 C106 1.398 . S
C108 C109 1.384 . S
C108 H121 0.947 . S
C108 C143 1.382 . S
C109 C108 1.384 . S
C109 C110 1.378 . S
C110 C109 1.378 . S
C110 C111 1.378 . S
C110 H122 0.952 . S
C111 C110 1.378 . S
C111 H123 0.950 . S
C111 C142 1.383 . S
H112 C131 0.947 . S
H113 C132 0.946 . S
H114 C134 0.953 . S
H115 C135 0.945 . S
H116 C137 0.952 . S
H117 C138 0.949 . S
H118 C140 0.950 . S
H119 C141 0.948 . S
H120 C143 0.951 . S
H121 C108 0.947 . S
H122 C110 0.952 . S
H123 C111 0.950 . S
N124 C127 1.382 . S
N124 C129 1.363 . S
N125 C127 1.371 . S
N125 C128 1.372 . S
N126 C128 1.361 . S
N126 C129 1.377 . S
C127 N124 1.382 . S
C127 N125 1.371 . S
C127 C130 1.480 . S
C128 N125 1.372 . S
C128 N126 1.361 . S
C128 C136 1.457 . S
C129 N124 1.363 . S
C129 N126 1.377 . S
C129 C142 1.479 . S
C130 C127 1.480 . S
C130 C131 1.383 . S
C130 C135 1.385 . S
C131 H112 0.947 . S
C131 C130 1.383 . S
C131 C132 1.388 . S
C132 H113 0.946 . S
C132 C131 1.388 . S
C132 C133 1.384 . S
C133 C132 1.384 . S
C133 C134 1.377 . S
C134 H114 0.953 . S
C134 C133 1.377 . S
C134 C135 1.369 . S
C135 H115 0.945 . S
C135 C130 1.385 . S
C135 C134 1.369 . S
C136 C128 1.457 . S
C136 C137 1.372 . S
C136 C141 1.364 . S
C137 H116 0.952 . S
C137 C136 1.372 . S
C137 C138 1.389 . S
C138 H117 0.949 . S
C138 C137 1.389 . S
C138 C139 1.387 . S
C139 C138 1.387 . S
C139 C140 1.372 . S
C140 H118 0.950 . S
C140 C139 1.372 . S
C140 C141 1.379 . S
C141 H119 0.948 . S
C141 C136 1.364 . S
C141 C140 1.379 . S
C142 C111 1.383 . S
C142 C129 1.479 . S
C142 C143 1.398 . S
C143 C108 1.382 . S
C143 H120 0.951 . S
C143 C142 1.398 . S
C144 C145 1.384 . S
C144 H157 0.947 . S
C144 C179 1.382 . S
C145 C144 1.384 . S
C145 C146 1.378 . S
C146 C145 1.378 . S
C146 C147 1.378 . S
C146 H158 0.952 . S
C147 C146 1.378 . S
C147 H159 0.950 . S
C147 C178 1.383 . S
H148 C167 0.947 . S
H149 C168 0.946 . S
H150 C170 0.953 . S
H151 C171 0.945 . S
H152 C173 0.952 . S
H153 C174 0.949 . S
H154 C176 0.950 . S
H155 C177 0.948 . S
H156 C179 0.951 . S
H157 C144 0.947 . S
H158 C146 0.952 . S
H159 C147 0.950 . S
N160 C163 1.382 . S
N160 C165 1.363 . S
N161 C163 1.371 . S
N161 C164 1.372 . S
N162 C164 1.361 . S
N162 C165 1.377 . S
C163 N160 1.382 . S
C163 N161 1.371 . S
C163 C166 1.480 . S
C164 N161 1.372 . S
C164 N162 1.361 . S
C164 C172 1.457 . S
C165 N160 1.363 . S
C165 N162 1.377 . S
C165 C178 1.479 . S
C166 C163 1.480 . S
C166 C167 1.383 . S
C166 C171 1.385 . S
C167 H148 0.947 . S
C167 C166 1.383 . S
C167 C168 1.388 . S
C168 H149 0.946 . S
C168 C167 1.388 . S
C168 C169 1.384 . S
C169 C168 1.384 . S
C169 C170 1.377 . S
C170 H150 0.953 . S
C170 C169 1.377 . S
C170 C171 1.369 . S
C171 H151 0.945 . S
C171 C166 1.385 . S
C171 C170 1.369 . S
C172 C164 1.457 . S
C172 C173 1.372 . S
C172 C177 1.364 . S
C173 H152 0.952 . S
C173 C172 1.372 . S
C173 C174 1.389 . S
C174 H153 0.949 . S
C174 C173 1.389 . S
C174 C175 1.387 . S
C175 C174 1.387 . S
C175 C176 1.372 . S
C176 H154 0.950 . S
C176 C175 1.372 . S
C176 C177 1.379 . S
C177 H155 0.948 . S
C177 C172 1.364 . S
C177 C176 1.379 . S
C178 C147 1.383 . S
C178 C165 1.479 . S
C178 C179 1.398 . S
C179 C144 1.382 . S
C179 H156 0.951 . S
C179 C178 1.398 . S
C180 C181 1.384 . S
C180 H193 0.947 . S
C180 C215 1.382 . S
C181 C180 1.384 . S
C181 C182 1.378 . S
C182 C181 1.378 . S
C182 C183 1.378 . S
C182 H194 0.952 . S
C183 C182 1.378 . S
C183 H195 0.950 . S
C183 C214 1.383 . S
H184 C203 0.947 . S
H185 C204 0.946 . S
H186 C206 0.953 . S
H187 C207 0.945 . S
H188 C209 0.952 . S
H189 C210 0.949 . S
H190 C212 0.950 . S
H191 C213 0.948 . S
H192 C215 0.951 . S
H193 C180 0.947 . S
H194 C182 0.952 . S
H195 C183 0.950 . S
N196 C199 1.382 . S
N196 C201 1.363 . S
N197 C199 1.371 . S
N197 C200 1.372 . S
N198 C200 1.361 . S
N198 C201 1.377 . S
C199 N196 1.382 . S
C199 N197 1.371 . S
C199 C202 1.480 . S
C200 N197 1.372 . S
C200 N198 1.361 . S
C200 C208 1.457 . S
C201 N196 1.363 . S
C201 N198 1.377 . S
C201 C214 1.479 . S
C202 C199 1.480 . S
C202 C203 1.383 . S
C202 C207 1.385 . S
C203 H184 0.947 . S
C203 C202 1.383 . S
C203 C204 1.388 . S
C204 H185 0.946 . S
C204 C203 1.388 . S
C204 C205 1.384 . S
C205 C204 1.384 . S
C205 C206 1.377 . S
C206 H186 0.953 . S
C206 C205 1.377 . S
C206 C207 1.369 . S
C207 H187 0.945 . S
C207 C202 1.385 . S
C207 C206 1.369 . S
C208 C200 1.457 . S
C208 C209 1.372 . S
C208 C213 1.364 . S
C209 H188 0.952 . S
C209 C208 1.372 . S
C209 C210 1.389 . S
C210 H189 0.949 . S
C210 C209 1.389 . S
C210 C211 1.387 . S
C211 C210 1.387 . S
C211 C212 1.372 . S
C212 H190 0.950 . S
C212 C211 1.372 . S
C212 C213 1.379 . S
C213 H191 0.948 . S
C213 C208 1.364 . S
C213 C212 1.379 . S
C214 C183 1.383 . S
C214 C201 1.479 . S
C214 C215 1.398 . S
C215 C180 1.382 . S
C215 H192 0.951 . S
C215 C214 1.398 . S
C216 C217 1.384 . S
C216 H229 0.947 . S
C216 C251 1.382 . S
C217 C216 1.384 . S
C217 C218 1.378 . S
C218 C217 1.378 . S
C218 C219 1.378 . S
C218 H230 0.952 . S
C219 C218 1.378 . S
C219 H231 0.950 . S
C219 C250 1.383 . S
H220 C239 0.947 . S
H221 C240 0.946 . S
H222 C242 0.953 . S
H223 C243 0.945 . S
H224 C245 0.952 . S
H225 C246 0.949 . S
H226 C248 0.950 . S
H227 C249 0.948 . S
H228 C251 0.951 . S
H229 C216 0.947 . S
H230 C218 0.952 . S
H231 C219 0.950 . S
N232 C235 1.382 . S
N232 C237 1.363 . S
N233 C235 1.371 . S
N233 C236 1.372 . S
N234 C236 1.361 . S
N234 C237 1.377 . S
C235 N232 1.382 . S
C235 N233 1.371 . S
C235 C238 1.480 . S
C236 N233 1.372 . S
C236 N234 1.361 . S
C236 C244 1.457 . S
C237 N232 1.363 . S
C237 N234 1.377 . S
C237 C250 1.479 . S
C238 C235 1.480 . S
C238 C239 1.383 . S
C238 C243 1.385 . S
C239 H220 0.947 . S
C239 C238 1.383 . S
C239 C240 1.388 . S
C240 H221 0.946 . S
C240 C239 1.388 . S
C240 C241 1.384 . S
C241 C240 1.384 . S
C241 C242 1.377 . S
C242 H222 0.953 . S
C242 C241 1.377 . S
C242 C243 1.369 . S
C243 H223 0.945 . S
C243 C238 1.385 . S
C243 C242 1.369 . S
C244 C236 1.457 . S
C244 C245 1.372 . S
C244 C249 1.364 . S
C245 H224 0.952 . S
C245 C244 1.372 . S
C245 C246 1.389 . S
C246 H225 0.949 . S
C246 C245 1.389 . S
C246 C247 1.387 . S
C247 C246 1.387 . S
C247 C248 1.372 . S
C248 H226 0.950 . S
C248 C247 1.372 . S
C248 C249 1.379 . S
C249 H227 0.948 . S
C249 C244 1.364 . S
C249 C248 1.379 . S
C250 C219 1.383 . S
C250 C237 1.479 . S
C250 C251 1.398 . S
C251 C216 1.382 . S
C251 H228 0.951 . S
C251 C250 1.398 . S
C252 C253 1.384 . S
C252 H265 0.947 . S
C252 C287 1.382 . S
C253 C252 1.384 . S
C253 C254 1.378 . S
C254 C253 1.378 . S
C254 C255 1.378 . S
C254 H266 0.952 . S
C255 C254 1.378 . S
C255 H267 0.950 . S
C255 C286 1.383 . S
H256 C275 0.947 . S
H257 C276 0.946 . S
H258 C278 0.953 . S
H259 C279 0.945 . S
H260 C281 0.952 . S
H261 C282 0.949 . S
H262 C284 0.950 . S
H263 C285 0.948 . S
H264 C287 0.951 . S
H265 C252 0.947 . S
H266 C254 0.952 . S
H267 C255 0.950 . S
N268 C271 1.382 . S
N268 C273 1.363 . S
N269 C271 1.371 . S
N269 C272 1.372 . S
N270 C272 1.361 . S
N270 C273 1.377 . S
C271 N268 1.382 . S
C271 N269 1.371 . S
C271 C274 1.480 . S
C272 N269 1.372 . S
C272 N270 1.361 . S
C272 C280 1.457 . S
C273 N268 1.363 . S
C273 N270 1.377 . S
C273 C286 1.479 . S
C274 C271 1.480 . S
C274 C275 1.383 . S
C274 C279 1.385 . S
C275 H256 0.947 . S
C275 C274 1.383 . S
C275 C276 1.388 . S
C276 H257 0.946 . S
C276 C275 1.388 . S
C276 C277 1.384 . S
C277 C276 1.384 . S
C277 C278 1.377 . S
C278 H258 0.953 . S
C278 C277 1.377 . S
C278 C279 1.369 . S
C279 H259 0.945 . S
C279 C274 1.385 . S
C279 C278 1.369 . S
C280 C272 1.457 . S
C280 C281 1.372 . S
C280 C285 1.364 . S
C281 H260 0.952 . S
C281 C280 1.372 . S
C281 C282 1.389 . S
C282 H261 0.949 . S
C282 C281 1.389 . S
C282 C283 1.387 . S
C283 C282 1.387 . S
C283 C284 1.372 . S
C284 H262 0.950 . S
C284 C283 1.372 . S
C284 C285 1.379 . S
C285 H263 0.948 . S
C285 C280 1.364 . S
C285 C284 1.379 . S
C286 C255 1.383 . S
C286 C273 1.479 . S
C286 C287 1.398 . S
C287 C252 1.382 . S
C287 H264 0.951 . S
C287 C286 1.398 . S
Pr288 C290 2.880 . S
Pr288 O308 2.562 . S
Pr288 O309 2.490 . S
Pr288 O310 2.695 1_665 S
Pr288 O311 2.512 1_665 S
Pr288 O313 2.437 1_655 S
Pr288 O316 2.436 . S
Pr288 O318 2.438 1_565 S
Pr289 C299 2.880 . S
Pr289 O310 2.436 . S
Pr289 O312 2.438 1_545 S
Pr289 O314 2.562 . S
Pr289 O315 2.490 . S
Pr289 O316 2.695 1_445 S
Pr289 O317 2.502 1_445 S
Pr289 O319 2.437 1_455 S
C290 Pr288 2.880 . S
C290 C291 1.491 . S
C290 O308 1.254 . S
C290 O309 1.225 . S
C291 C290 1.491 . S
C291 C292 1.392 . S
C291 C296 1.356 . S
C292 C291 1.392 . S
C292 C293 1.368 . S
C292 H320 0.929 . S
C293 C292 1.368 . S
C293 C294 1.386 . S
C293 H321 0.929 . S
C294 C293 1.386 . S
C294 C295 1.373 . S
C295 C294 1.373 . S
C295 C296 1.409 . S
C295 H322 0.931 . S
C296 C291 1.356 . S
C296 C295 1.409 . S
C296 H323 0.930 . S
C297 O310 1.270 . S
C297 O311 1.248 . S
C298 O312 1.267 . S
C298 O313 1.278 . S
C299 Pr289 2.880 . S
C299 C300 1.491 . S
C299 O314 1.254 . S
C299 O315 1.225 . S
C300 C299 1.491 . S
C300 C301 1.392 . S
C300 C305 1.356 . S
C301 C300 1.392 . S
C301 C302 1.368 . S
C301 H324 0.929 . S
C302 C301 1.368 . S
C302 C303 1.386 . S
C302 H325 0.929 . S
C303 C302 1.386 . S
C303 C304 1.373 . S
C304 C303 1.373 . S
C304 C305 1.409 . S
C304 H326 0.931 . S
C305 C300 1.356 . S
C305 C304 1.409 . S
C305 H327 0.930 . S
C306 O316 1.270 . S
C306 O317 1.274 . S
C307 O318 1.267 . S
C307 O319 1.278 . S
O308 Pr288 2.562 . S
O308 C290 1.254 . S
O309 Pr288 2.490 . S
O309 C290 1.225 . S
O310 Pr288 2.695 1_445 S
O310 Pr289 2.436 . S
O310 C297 1.270 . S
O311 Pr288 2.512 1_445 S
O311 C297 1.248 . S
O312 Pr289 2.438 1_565 S
O312 C298 1.267 . S
O313 Pr288 2.437 1_455 S
O313 C298 1.278 . S
O314 Pr289 2.562 . S
O314 C299 1.254 . S
O315 Pr289 2.490 . S
O315 C299 1.225 . S
O316 Pr288 2.436 . S
O316 Pr289 2.695 1_665 S
O316 C306 1.270 . S
O317 Pr289 2.502 1_665 S
O317 C306 1.274 . S
O318 Pr288 2.438 1_545 S
O318 C307 1.267 . S
O319 Pr289 2.437 1_655 S
O319 C307 1.278 . S
H320 C292 0.929 . S
H321 C293 0.929 . S
H322 C295 0.931 . S
H323 C296 0.930 . S
H324 C301 0.929 . S
H325 C302 0.929 . S
H326 C304 0.931 . S
H327 C305 0.930 . S
Pr328 C330 2.881 1_556 S
Pr328 O348 2.563 1_556 S
Pr328 O349 2.490 1_556 S
Pr328 O350 2.695 . S
Pr328 O351 2.512 . S
Pr328 O353 2.437 1_556 S
Pr328 O356 2.436 1_546 S
Pr328 O358 2.437 1_545 S
Pr329 C339 2.880 1_554 S
Pr329 O350 2.436 1_564 S
Pr329 O352 2.438 1_565 S
Pr329 O354 2.562 1_554 S
Pr329 O355 2.490 1_554 S
Pr329 O356 2.695 . S
Pr329 O357 2.512 . S
Pr329 O359 2.437 1_554 S
C330 Pr328 2.881 1_554 S
C330 C331 1.491 . S
C330 O348 1.254 . S
C330 O349 1.225 . S
C331 C330 1.491 . S
C331 C332 1.392 . S
C331 C336 1.356 . S
C332 C331 1.392 . S
C332 C333 1.368 . S
C332 H360 0.929 . S
C333 C332 1.368 . S
C333 C334 1.386 . S
C333 H361 0.929 . S
C334 C333 1.386 . S
C334 C335 1.373 . S
C335 C334 1.373 . S
C335 C336 1.409 . S
C335 H362 0.931 . S
C336 C331 1.356 . S
C336 C335 1.409 . S
C336 H363 0.930 . S
C337 O350 1.270 . S
C337 O351 1.248 . S
C338 O352 1.267 . S
C338 O353 1.278 . S
C339 Pr329 2.880 1_556 S
C339 C340 1.491 . S
C339 O354 1.254 . S
C339 O355 1.225 . S
C340 C339 1.491 . S
C340 C341 1.392 . S
C340 C345 1.356 . S
C341 C340 1.392 . S
C341 C342 1.368 . S
C341 H364 0.929 . S
C342 C341 1.368 . S
C342 C343 1.386 . S
C342 H365 0.929 . S
C343 C342 1.386 . S
C343 C344 1.373 . S
C344 C343 1.373 . S
C344 C345 1.409 . S
C344 H366 0.931 . S
C345 C340 1.356 . S
C345 C344 1.409 . S
C345 H367 0.930 . S
C346 O356 1.270 . S
C346 O357 1.248 . S
C347 O358 1.267 . S
C347 O359 1.278 . S
O348 Pr328 2.563 1_554 S
O348 C330 1.254 . S
O349 Pr328 2.490 1_554 S
O349 C330 1.225 . S
O350 Pr328 2.695 . S
O350 Pr329 2.436 1_546 S
O350 C337 1.270 . S
O351 Pr328 2.512 . S
O351 C337 1.248 . S
O352 Pr329 2.438 1_545 S
O352 C338 1.267 . S
O353 Pr328 2.437 1_554 S
O353 C338 1.278 . S
O354 Pr329 2.562 1_556 S
O354 C339 1.254 . S
O355 Pr329 2.490 1_556 S
O355 C339 1.225 . S
O356 Pr328 2.436 1_564 S
O356 Pr329 2.695 . S
O356 C346 1.270 . S
O357 Pr329 2.512 . S
O357 C346 1.248 . S
O358 Pr328 2.437 1_565 S
O358 C347 1.267 . S
O359 Pr329 2.437 1_556 S
O359 C347 1.278 . S
H360 C332 0.929 . S
H361 C333 0.929 . S
H362 C335 0.931 . S
H363 C336 0.930 . S
H364 C341 0.929 . S
H365 C342 0.929 . S
H366 C344 0.931 . S
H367 C345 0.930 . S
Pr368 C370 2.880 . S
Pr368 O388 2.562 . S
Pr368 O389 2.490 . S
Pr368 O390 2.695 . S
Pr368 O391 2.512 . S
Pr368 O393 2.437 . S
Pr368 O396 2.436 . S
Pr368 O398 2.438 . S
Pr369 C379 2.880 . S
Pr369 O390 2.436 . S
Pr369 O392 2.438 . S
Pr369 O394 2.562 . S
Pr369 O395 2.490 . S
Pr369 O396 2.695 . S
Pr369 O397 2.512 . S
Pr369 O399 2.437 . S
C370 Pr368 2.880 . S
C370 C371 1.491 . S
C370 O388 1.254 . S
C370 O389 1.225 . S
C371 C370 1.491 . S
C371 C372 1.392 . S
C371 C376 1.356 . S
C372 C371 1.392 . S
C372 C373 1.368 . S
C372 H400 0.929 . S
C373 C372 1.368 . S
C373 C374 1.386 . S
C373 H401 0.929 . S
C374 C373 1.386 . S
C374 C375 1.373 . S
C375 C374 1.373 . S
C375 C376 1.409 . S
C375 H402 0.931 . S
C376 C371 1.356 . S
C376 C375 1.409 . S
C376 H403 0.930 . S
C377 O390 1.270 . S
C377 O391 1.248 . S
C378 O392 1.267 . S
C378 O393 1.278 . S
C379 Pr369 2.880 . S
C379 C380 1.491 . S
C379 O394 1.254 . S
C379 O395 1.225 . S
C380 C379 1.491 . S
C380 C381 1.392 . S
C380 C385 1.356 . S
C381 C380 1.392 . S
C381 C382 1.368 . S
C381 H404 0.929 . S
C382 C381 1.368 . S
C382 C383 1.386 . S
C382 H405 0.929 . S
C383 C382 1.386 . S
C383 C384 1.373 . S
C384 C383 1.373 . S
C384 C385 1.409 . S
C384 H406 0.931 . S
C385 C380 1.356 . S
C385 C384 1.409 . S
C385 H407 0.930 . S
C386 O396 1.270 . S
C386 O397 1.248 . S
C387 O398 1.267 . S
C387 O399 1.278 . S
O388 Pr368 2.562 . S
O388 C370 1.254 . S
O389 Pr368 2.490 . S
O389 C370 1.225 . S
O390 Pr368 2.695 . S
O390 Pr369 2.436 . S
O390 C377 1.270 . S
O391 Pr368 2.512 . S
O391 C377 1.248 . S
O392 Pr369 2.438 . S
O392 C378 1.267 . S
O393 Pr368 2.437 . S
O393 C378 1.278 . S
O394 Pr369 2.562 . S
O394 C379 1.254 . S
O395 Pr369 2.490 . S
O395 C379 1.225 . S
O396 Pr368 2.436 . S
O396 Pr369 2.695 . S
O396 C386 1.270 . S
O397 Pr369 2.512 . S
O397 C386 1.248 . S
O398 Pr368 2.438 . S
O398 C387 1.267 . S
O399 Pr369 2.437 . S
O399 C387 1.278 . S
H400 C372 0.929 . S
H401 C373 0.929 . S
H402 C375 0.931 . S
H403 C376 0.930 . S
H404 C381 0.929 . S
H405 C382 0.929 . S
H406 C384 0.931 . S
H407 C385 0.930 . S
Pr408 C410 2.873 1_455 S
Pr408 O428 2.553 1_455 S
Pr408 O429 2.486 1_455 S
Pr408 O430 2.700 1_556 S
Pr408 O431 2.518 1_556 S
Pr408 O433 2.432 1_456 S
Pr408 O436 2.432 1_455 S
Pr408 O438 2.445 . S
Pr409 C419 2.880 . S
Pr409 O430 2.436 . S
Pr409 O432 2.438 1_455 S
Pr409 O434 2.562 . S
Pr409 O435 2.490 . S
Pr409 O436 2.695 1_454 S
Pr409 O437 2.512 1_454 S
Pr409 O439 2.437 1_554 S
C410 Pr408 2.873 1_655 S
C410 C411 1.491 . S
C410 O428 1.254 . S
C410 O429 1.225 . S
C411 C410 1.491 . S
C411 C412 1.392 . S
C411 C416 1.356 . S
C412 C411 1.392 . S
C412 C413 1.368 . S
C412 H440 0.929 . S
C413 C412 1.368 . S
C413 C414 1.386 . S
C413 H441 0.929 . S
C414 C413 1.386 . S
C414 C415 1.373 . S
C415 C414 1.373 . S
C415 C416 1.409 . S
C415 H442 0.931 . S
C416 C411 1.356 . S
C416 C415 1.409 . S
C416 H443 0.930 . S
C417 O430 1.270 . S
C417 O431 1.248 . S
C418 O432 1.267 . S
C418 O433 1.278 . S
C419 Pr409 2.880 . S
C419 C420 1.491 . S
C419 O434 1.254 . S
C419 O435 1.225 . S
C420 C419 1.491 . S
C420 C421 1.392 . S
C420 C425 1.356 . S
C421 C420 1.392 . S
C421 C422 1.368 . S
C421 H444 0.929 . S
C422 C421 1.368 . S
C422 C423 1.386 . S
C422 H445 0.929 . S
C423 C422 1.386 . S
C423 C424 1.373 . S
C424 C423 1.373 . S
C424 C425 1.409 . S
C424 H446 0.931 . S
C425 C420 1.356 . S
C425 C424 1.409 . S
C425 H447 0.930 . S
C426 O436 1.270 . S
C426 O437 1.248 . S
C427 O438 1.267 . S
C427 O439 1.278 . S
O428 Pr408 2.553 1_655 S
O428 C410 1.254 . S
O429 Pr408 2.486 1_655 S
O429 C410 1.225 . S
O430 Pr408 2.700 1_554 S
O430 Pr409 2.436 . S
O430 C417 1.270 . S
O431 Pr408 2.518 1_554 S
O431 C417 1.248 . S
O432 Pr409 2.438 1_655 S
O432 C418 1.267 . S
O433 Pr408 2.432 1_654 S
O433 C418 1.278 . S
O434 Pr409 2.562 . S
O434 C419 1.254 . S
O435 Pr409 2.490 . S
O435 C419 1.225 . S
O436 Pr408 2.432 1_655 S
O436 Pr409 2.695 1_656 S
O436 C426 1.270 . S
O437 Pr409 2.512 1_656 S
O437 C426 1.248 . S
O438 Pr408 2.445 . S
O438 C427 1.267 . S
O439 Pr409 2.437 1_556 S
O439 C427 1.278 . S
H440 C412 0.929 . S
H441 C413 0.929 . S
H442 C415 0.931 . S
H443 C416 0.930 . S
H444 C421 0.929 . S
H445 C422 0.929 . S
H446 C424 0.931 . S
H447 C425 0.930 . S
C448 C449 1.349 . S
C448 C450 1.327 . S
C448 H473 0.950 . S
C449 C448 1.349 . S
C449 C465 1.349 . S
C450 C448 1.327 . S
C450 C469 1.429 . S
C450 H474 0.950 . S
C451 C468 1.574 . S
C451 C470 1.368 . S
C451 H475 0.949 . S
H452 C456 0.949 . S
C453 C454 1.349 . S
C453 C455 1.327 . S
C453 H476 0.950 . S
C454 C453 1.349 . S
C454 C466 1.349 . S
C455 C453 1.327 . S
C455 C471 1.429 . S
C455 H477 0.950 . S
C456 H452 0.949 . S
C456 C464 1.574 . S
C456 C472 1.368 . S
H457 C465 0.950 . S
H458 C463 0.950 . S
H459 C464 0.949 . S
H460 C466 0.950 . S
H461 C467 0.950 . S
H462 C468 0.949 . S
C463 H458 0.950 . S
C463 C465 1.327 . S
C463 C469 1.429 . S
C464 C456 1.574 . S
C464 H459 0.949 . S
C464 C470 1.368 . S
C465 C449 1.349 . S
C465 H457 0.950 . S
C465 C463 1.327 . S
C466 C454 1.349 . S
C466 H460 0.950 . S
C466 C467 1.327 . S
C467 H461 0.950 . S
C467 C466 1.327 . S
C467 C471 1.429 . S
C468 C451 1.574 . S
C468 H462 0.949 . S
C468 C472 1.368 . S
C469 C450 1.429 . S
C469 C463 1.429 . S
C469 C470 1.523 . S
C470 C451 1.368 . S
C470 C464 1.368 . S
C470 C469 1.523 . S
C471 C455 1.429 . S
C471 C467 1.429 . S
C471 C472 1.523 . S
C472 C456 1.368 . S
C472 C468 1.368 . S
C472 C471 1.523 . S
H473 C448 0.950 . S
H474 C450 0.950 . S
H475 C451 0.949 . S
H476 C453 0.950 . S
H477 C455 0.950 . S
C478 C479 1.349 . S
C478 C480 1.327 . S
C478 H503 0.950 . S
C479 C478 1.349 . S
C479 C495 1.349 . S
C480 C478 1.327 . S
C480 C499 1.429 . S
C480 H504 0.950 . S
C481 C498 1.574 . S
C481 C500 1.368 . S
C481 H505 0.949 . S
H482 C486 0.949 . S
C483 C484 1.349 . S
C483 C485 1.327 . S
C483 H506 0.950 . S
C484 C483 1.349 . S
C484 C496 1.349 . S
C485 C483 1.327 . S
C485 C501 1.429 . S
C485 H507 0.950 . S
C486 H482 0.949 . S
C486 C494 1.574 . S
C486 C502 1.368 . S
H487 C495 0.950 . S
H488 C493 0.950 . S
H489 C494 0.949 . S
H490 C496 0.950 . S
H491 C497 0.950 . S
H492 C498 0.949 . S
C493 H488 0.950 . S
C493 C495 1.327 . S
C493 C499 1.429 . S
C494 C486 1.574 . S
C494 H489 0.949 . S
C494 C500 1.368 . S
C495 C479 1.349 . S
C495 H487 0.950 . S
C495 C493 1.327 . S
C496 C484 1.349 . S
C496 H490 0.950 . S
C496 C497 1.327 . S
C497 H491 0.950 . S
C497 C496 1.327 . S
C497 C501 1.429 . S
C498 C481 1.574 . S
C498 H492 0.949 . S
C498 C502 1.368 . S
C499 C480 1.429 . S
C499 C493 1.429 . S
C499 C500 1.523 . S
C500 C481 1.368 . S
C500 C494 1.368 . S
C500 C499 1.523 . S
C501 C485 1.429 . S
C501 C497 1.429 . S
C501 C502 1.523 . S
C502 C486 1.368 . S
C502 C498 1.368 . S
C502 C501 1.523 . S
H503 C478 0.950 . S
H504 C480 0.950 . S
H505 C481 0.949 . S
H506 C483 0.950 . S
H507 C485 0.950 . S
C508 C509 1.349 . S
C508 C510 1.327 . S
C508 H533 0.950 . S
C509 C508 1.349 . S
C509 C525 1.349 . S
C510 C508 1.327 . S
C510 C529 1.429 . S
C510 H534 0.950 . S
C511 C528 1.574 . S
C511 C530 1.368 . S
C511 H535 0.949 . S
H512 C516 0.949 . S
C513 C514 1.349 . S
C513 C515 1.327 . S
C513 H536 0.950 . S
C514 C513 1.349 . S
C514 C526 1.349 . S
C515 C513 1.327 . S
C515 C531 1.429 . S
C515 H537 0.950 . S
C516 H512 0.949 . S
C516 C524 1.574 . S
C516 C532 1.368 . S
H517 C525 0.950 . S
H518 C523 0.950 . S
H519 C524 0.949 . S
H520 C526 0.950 . S
H521 C527 0.950 . S
H522 C528 0.949 . S
C523 H518 0.950 . S
C523 C525 1.327 . S
C523 C529 1.429 . S
C524 C516 1.574 . S
C524 H519 0.949 . S
C524 C530 1.368 . S
C525 C509 1.349 . S
C525 H517 0.950 . S
C525 C523 1.327 . S
C526 C514 1.349 . S
C526 H520 0.950 . S
C526 C527 1.327 . S
C527 H521 0.950 . S
C527 C526 1.327 . S
C527 C531 1.429 . S
C528 C511 1.574 . S
C528 H522 0.949 . S
C528 C532 1.368 . S
C529 C510 1.429 . S
C529 C523 1.429 . S
C529 C530 1.523 . S
C530 C511 1.368 . S
C530 C524 1.368 . S
C530 C529 1.523 . S
C531 C515 1.429 . S
C531 C527 1.429 . S
C531 C532 1.523 . S
C532 C516 1.368 . S
C532 C528 1.368 . S
C532 C531 1.523 . S
H533 C508 0.950 . S
H534 C510 0.950 . S
H535 C511 0.949 . S
H536 C513 0.950 . S
H537 C515 0.950 . S
C538 C539 1.349 . S
C538 C540 1.327 . S
C538 H563 0.950 . S
C539 C538 1.349 . S
C539 C555 1.349 . S
C540 C538 1.327 . S
C540 C559 1.429 . S
C540 H564 0.950 . S
C541 C558 1.574 . S
C541 C560 1.368 . S
C541 H565 0.949 . S
H542 C546 0.949 . S
C543 C544 1.349 . S
C543 C545 1.327 . S
C543 H566 0.950 . S
C544 C543 1.349 . S
C544 C556 1.349 . S
C545 C543 1.327 . S
C545 C561 1.429 . S
C545 H567 0.950 . S
C546 H542 0.949 . S
C546 C554 1.574 . S
C546 C562 1.368 . S
H547 C555 0.950 . S
H548 C553 0.950 . S
H549 C554 0.949 . S
H550 C556 0.950 . S
H551 C557 0.950 . S
H552 C558 0.949 . S
C553 H548 0.950 . S
C553 C555 1.327 . S
C553 C559 1.429 . S
C554 C546 1.574 . S
C554 H549 0.949 . S
C554 C560 1.368 . S
C555 C539 1.349 . S
C555 H547 0.950 . S
C555 C553 1.327 . S
C556 C544 1.349 . S
C556 H550 0.950 . S
C556 C557 1.327 . S
C557 H551 0.950 . S
C557 C556 1.327 . S
C557 C561 1.429 . S
C558 C541 1.574 . S
C558 H552 0.949 . S
C558 C562 1.368 . S
C559 C540 1.429 . S
C559 C553 1.429 . S
C559 C560 1.523 . S
C560 C541 1.368 . S
C560 C554 1.368 . S
C560 C559 1.523 . S
C561 C545 1.429 . S
C561 C557 1.429 . S
C561 C562 1.523 . S
C562 C546 1.368 . S
C562 C558 1.368 . S
C562 C561 1.523 . S
H563 C538 0.950 . S
H564 C540 0.950 . S
H565 C541 0.949 . S
H566 C543 0.950 . S
H567 C545 0.950 . S
C568 C569 1.349 . S
C568 C570 1.327 . S
C568 H593 0.950 . S
C569 C568 1.349 . S
C569 C585 1.349 . S
C570 C568 1.327 . S
C570 C589 1.429 . S
C570 H594 0.950 . S
C571 C588 1.574 . S
C571 C590 1.368 . S
C571 H595 0.949 . S
H572 C576 0.949 . S
C573 C574 1.349 . S
C573 C575 1.327 . S
C573 H596 0.950 . S
C574 C573 1.349 . S
C574 C586 1.349 . S
C575 C573 1.327 . S
C575 C591 1.429 . S
C575 H597 0.950 . S
C576 H572 0.949 . S
C576 C584 1.574 . S
C576 C592 1.368 . S
H577 C585 0.950 . S
H578 C583 0.950 . S
H579 C584 0.949 . S
H580 C586 0.950 . S
H581 C587 0.950 . S
H582 C588 0.949 . S
C583 H578 0.950 . S
C583 C585 1.327 . S
C583 C589 1.429 . S
C584 C576 1.574 . S
C584 H579 0.949 . S
C584 C590 1.368 . S
C585 C569 1.349 . S
C585 H577 0.950 . S
C585 C583 1.327 . S
C586 C574 1.349 . S
C586 H580 0.950 . S
C586 C587 1.327 . S
C587 H581 0.950 . S
C587 C586 1.327 . S
C587 C591 1.429 . S
C588 C571 1.574 . S
C588 H582 0.949 . S
C588 C592 1.368 . S
C589 C570 1.429 . S
C589 C583 1.429 . S
C589 C590 1.523 . S
C590 C571 1.368 . S
C590 C584 1.368 . S
C590 C589 1.523 . S
C591 C575 1.429 . S
C591 C587 1.429 . S
C591 C592 1.523 . S
C592 C576 1.368 . S
C592 C588 1.368 . S
C592 C591 1.523 . S
H593 C568 0.950 . S
H594 C570 0.950 . S
H595 C571 0.949 . S
H596 C573 0.950 . S
H597 C575 0.950 . S
C598 C599 1.349 . S
C598 C600 1.327 . S
C598 H623 0.950 . S
C599 C598 1.349 . S
C599 C615 1.349 . S
C600 C598 1.327 . S
C600 C619 1.429 . S
C600 H624 0.950 . S
C601 C618 1.574 . S
C601 C620 1.368 . S
C601 H625 0.949 . S
H602 C606 0.949 . S
C603 C604 1.349 . S
C603 C605 1.327 . S
C603 H626 0.950 . S
C604 C603 1.349 . S
C604 C616 1.349 . S
C605 C603 1.327 . S
C605 C621 1.429 . S
C605 H627 0.950 . S
C606 H602 0.949 . S
C606 C614 1.574 . S
C606 C622 1.368 . S
H607 C615 0.950 . S
H608 C613 0.950 . S
H609 C614 0.949 . S
H610 C616 0.950 . S
H611 C617 0.950 . S
H612 C618 0.949 . S
C613 H608 0.950 . S
C613 C615 1.327 . S
C613 C619 1.429 . S
C614 C606 1.574 . S
C614 H609 0.949 . S
C614 C620 1.368 . S
C615 C599 1.349 . S
C615 H607 0.950 . S
C615 C613 1.327 . S
C616 C604 1.349 . S
C616 H610 0.950 . S
C616 C617 1.327 . S
C617 H611 0.950 . S
C617 C616 1.327 . S
C617 C621 1.429 . S
C618 C601 1.574 . S
C618 H612 0.949 . S
C618 C622 1.368 . S
C619 C600 1.429 . S
C619 C613 1.429 . S
C619 C620 1.523 . S
C620 C601 1.368 . S
C620 C614 1.368 . S
C620 C619 1.523 . S
C621 C605 1.429 . S
C621 C617 1.429 . S
C621 C622 1.523 . S
C622 C606 1.368 . S
C622 C618 1.368 . S
C622 C621 1.523 . S
H623 C598 0.950 . S
H624 C600 0.950 . S
H625 C601 0.949 . S
H626 C603 0.950 . S
H627 C605 0.950 . S
C628 C629 1.349 . S
C628 C630 1.327 . S
C628 H653 0.950 . S
C629 C628 1.349 . S
C629 C645 1.349 . S
C630 C628 1.327 . S
C630 C649 1.429 . S
C630 H654 0.950 . S
C631 C648 1.574 . S
C631 C650 1.368 . S
C631 H655 0.949 . S
H632 C636 0.949 . S
C633 C634 1.349 . S
C633 C635 1.327 . S
C633 H656 0.950 . S
C634 C633 1.349 . S
C634 C646 1.349 . S
C635 C633 1.327 . S
C635 C651 1.429 . S
C635 H657 0.950 . S
C636 H632 0.949 . S
C636 C644 1.574 . S
C636 C652 1.368 . S
H637 C645 0.950 . S
H638 C643 0.950 . S
H639 C644 0.949 . S
H640 C646 0.950 . S
H641 C647 0.950 . S
H642 C648 0.949 . S
C643 H638 0.950 . S
C643 C645 1.327 . S
C643 C649 1.429 . S
C644 C636 1.574 . S
C644 H639 0.949 . S
C644 C650 1.368 . S
C645 C629 1.349 . S
C645 H637 0.950 . S
C645 C643 1.327 . S
C646 C634 1.349 . S
C646 H640 0.950 . S
C646 C647 1.327 . S
C647 H641 0.950 . S
C647 C646 1.327 . S
C647 C651 1.429 . S
C648 C631 1.574 . S
C648 H642 0.949 . S
C648 C652 1.368 . S
C649 C630 1.429 . S
C649 C643 1.429 . S
C649 C650 1.523 . S
C650 C631 1.368 . S
C650 C644 1.368 . S
C650 C649 1.523 . S
C651 C635 1.429 . S
C651 C647 1.429 . S
C651 C652 1.523 . S
C652 C636 1.368 . S
C652 C648 1.368 . S
C652 C651 1.523 . S
H653 C628 0.950 . S
H654 C630 0.950 . S
H655 C631 0.949 . S
H656 C633 0.950 . S
H657 C635 0.950 . S
C658 C659 1.349 . S
C658 C660 1.327 . S
C658 H683 0.950 . S
C659 C658 1.349 . S
C659 C675 1.349 . S
C660 C658 1.327 . S
C660 C679 1.429 . S
C660 H684 0.950 . S
C661 C678 1.574 . S
C661 C680 1.368 . S
C661 H685 0.949 . S
H662 C666 0.949 . S
C663 C664 1.349 . S
C663 C665 1.327 . S
C663 H686 0.950 . S
C664 C663 1.349 . S
C664 C676 1.349 . S
C665 C663 1.327 . S
C665 C681 1.429 . S
C665 H687 0.950 . S
C666 H662 0.949 . S
C666 C674 1.574 . S
C666 C682 1.368 . S
H667 C675 0.950 . S
H668 C673 0.950 . S
H669 C674 0.949 . S
H670 C676 0.950 . S
H671 C677 0.950 . S
H672 C678 0.949 . S
C673 H668 0.950 . S
C673 C675 1.327 . S
C673 C679 1.429 . S
C674 C666 1.574 . S
C674 H669 0.949 . S
C674 C680 1.368 . S
C675 C659 1.349 . S
C675 H667 0.950 . S
C675 C673 1.327 . S
C676 C664 1.349 . S
C676 H670 0.950 . S
C676 C677 1.327 . S
C677 H671 0.950 . S
C677 C676 1.327 . S
C677 C681 1.429 . S
C678 C661 1.574 . S
C678 H672 0.949 . S
C678 C682 1.368 . S
C679 C660 1.429 . S
C679 C673 1.429 . S
C679 C680 1.523 . S
C680 C661 1.368 . S
C680 C674 1.368 . S
C680 C679 1.523 . S
C681 C665 1.429 . S
C681 C677 1.429 . S
C681 C682 1.523 . S
C682 C666 1.368 . S
C682 C678 1.368 . S
C682 C681 1.523 . S
H683 C658 0.950 . S
H684 C660 0.950 . S
H685 C661 0.949 . S
H686 C663 0.950 . S
H687 C665 0.950 . S
C688 C689 1.349 . S
C688 C690 1.327 . S
C688 H713 0.950 . S
C689 C688 1.349 . S
C689 C705 1.349 . S
C690 C688 1.327 . S
C690 C709 1.429 . S
C690 H714 0.950 . S
C691 C708 1.574 . S
C691 C710 1.368 . S
C691 H715 0.949 . S
H692 C696 0.949 . S
C693 C694 1.349 . S
C693 C695 1.327 . S
C693 H716 0.950 . S
C694 C693 1.349 . S
C694 C706 1.349 . S
C695 C693 1.327 . S
C695 C711 1.429 . S
C695 H717 0.950 . S
C696 H692 0.949 . S
C696 C704 1.574 . S
C696 C712 1.368 . S
H697 C705 0.950 . S
H698 C703 0.950 . S
H699 C704 0.949 . S
H700 C706 0.950 . S
H701 C707 0.950 . S
H702 C708 0.949 . S
C703 H698 0.950 . S
C703 C705 1.327 . S
C703 C709 1.429 . S
C704 C696 1.574 . S
C704 H699 0.949 . S
C704 C710 1.368 . S
C705 C689 1.349 . S
C705 H697 0.950 . S
C705 C703 1.327 . S
C706 C694 1.349 . S
C706 H700 0.950 . S
C706 C707 1.327 . S
C707 H701 0.950 . S
C707 C706 1.327 . S
C707 C711 1.429 . S
C708 C691 1.574 . S
C708 H702 0.949 . S
C708 C712 1.368 . S
C709 C690 1.429 . S
C709 C703 1.429 . S
C709 C710 1.523 . S
C710 C691 1.368 . S
C710 C704 1.368 . S
C710 C709 1.523 . S
C711 C695 1.429 . S
C711 C707 1.429 . S
C711 C712 1.523 . S
C712 C696 1.368 . S
C712 C708 1.368 . S
C712 C711 1.523 . S
H713 C688 0.950 . S
H714 C690 0.950 . S
H715 C691 0.949 . S
H716 C693 0.950 . S
H717 C695 0.950 . S
C718 C719 1.349 . S
C718 C720 1.327 . S
C718 H743 0.950 . S
C719 C718 1.349 . S
C719 C735 1.349 . S
C720 C718 1.327 . S
C720 C739 1.429 . S
C720 H744 0.950 . S
C721 C738 1.574 . S
C721 C740 1.368 . S
C721 H745 0.949 . S
H722 C726 0.949 . S
C723 C724 1.349 . S
C723 C725 1.327 . S
C723 H746 0.950 . S
C724 C723 1.349 . S
C724 C736 1.349 . S
C725 C723 1.327 . S
C725 C741 1.429 . S
C725 H747 0.950 . S
C726 H722 0.949 . S
C726 C734 1.574 . S
C726 C742 1.368 . S
H727 C735 0.950 . S
H728 C733 0.950 . S
H729 C734 0.949 . S
H730 C736 0.950 . S
H731 C737 0.950 . S
H732 C738 0.949 . S
C733 H728 0.950 . S
C733 C735 1.327 . S
C733 C739 1.429 . S
C734 C726 1.574 . S
C734 H729 0.949 . S
C734 C740 1.368 . S
C735 C719 1.349 . S
C735 H727 0.950 . S
C735 C733 1.327 . S
C736 C724 1.349 . S
C736 H730 0.950 . S
C736 C737 1.327 . S
C737 H731 0.950 . S
C737 C736 1.327 . S
C737 C741 1.429 . S
C738 C721 1.574 . S
C738 H732 0.949 . S
C738 C742 1.368 . S
C739 C720 1.429 . S
C739 C733 1.429 . S
C739 C740 1.523 . S
C740 C721 1.368 . S
C740 C734 1.368 . S
C740 C739 1.523 . S
C741 C725 1.429 . S
C741 C737 1.429 . S
C741 C742 1.523 . S
C742 C726 1.368 . S
C742 C738 1.368 . S
C742 C741 1.523 . S
H743 C718 0.950 . S
H744 C720 0.950 . S
H745 C721 0.949 . S
H746 C723 0.950 . S
H747 C725 0.950 . S
C748 C749 1.349 . S
C748 C750 1.327 . S
C748 H773 0.950 . S
C749 C748 1.349 . S
C749 C765 1.349 . S
C750 C748 1.327 . S
C750 C769 1.429 . S
C750 H774 0.950 . S
C751 C768 1.574 . S
C751 C770 1.368 . S
C751 H775 0.949 . S
H752 C756 0.949 . S
C753 C754 1.349 . S
C753 C755 1.327 . S
C753 H776 0.950 . S
C754 C753 1.349 . S
C754 C766 1.349 . S
C755 C753 1.327 . S
C755 C771 1.429 . S
C755 H777 0.950 . S
C756 H752 0.949 . S
C756 C764 1.574 . S
C756 C772 1.368 . S
H757 C765 0.950 . S
H758 C763 0.950 . S
H759 C764 0.949 . S
H760 C766 0.950 . S
H761 C767 0.950 . S
H762 C768 0.949 . S
C763 H758 0.950 . S
C763 C765 1.327 . S
C763 C769 1.429 . S
C764 C756 1.574 . S
C764 H759 0.949 . S
C764 C770 1.368 . S
C765 C749 1.349 . S
C765 H757 0.950 . S
C765 C763 1.327 . S
C766 C754 1.349 . S
C766 H760 0.950 . S
C766 C767 1.327 . S
C767 H761 0.950 . S
C767 C766 1.327 . S
C767 C771 1.429 . S
C768 C751 1.574 . S
C768 H762 0.949 . S
C768 C772 1.368 . S
C769 C750 1.429 . S
C769 C763 1.429 . S
C769 C770 1.523 . S
C770 C751 1.368 . S
C770 C764 1.368 . S
C770 C769 1.523 . S
C771 C755 1.429 . S
C771 C767 1.429 . S
C771 C772 1.523 . S
C772 C756 1.368 . S
C772 C768 1.368 . S
C772 C771 1.523 . S
H773 C748 0.950 . S
H774 C750 0.950 . S
H775 C751 0.949 . S
H776 C753 0.950 . S
H777 C755 0.950 . S
C778 C779 1.349 . S
C778 C780 1.327 . S
C778 H803 0.950 . S
C779 C778 1.349 . S
C779 C795 1.349 . S
C780 C778 1.327 . S
C780 C799 1.429 . S
C780 H804 0.950 . S
C781 C798 1.574 . S
C781 C800 1.368 . S
C781 H805 0.949 . S
H782 C786 0.949 . S
C783 C784 1.349 . S
C783 C785 1.327 . S
C783 H806 0.950 . S
C784 C783 1.349 . S
C784 C796 1.349 . S
C785 C783 1.327 . S
C785 C801 1.429 . S
C785 H807 0.950 . S
C786 H782 0.949 . S
C786 C794 1.574 . S
C786 C802 1.368 . S
H787 C795 0.950 . S
H788 C793 0.950 . S
H789 C794 0.949 . S
H790 C796 0.950 . S
H791 C797 0.950 . S
H792 C798 0.949 . S
C793 H788 0.950 . S
C793 C795 1.327 . S
C793 C799 1.429 . S
C794 C786 1.574 . S
C794 H789 0.949 . S
C794 C800 1.368 . S
C795 C779 1.349 . S
C795 H787 0.950 . S
C795 C793 1.327 . S
C796 C784 1.349 . S
C796 H790 0.950 . S
C796 C797 1.327 . S
C797 H791 0.950 . S
C797 C796 1.327 . S
C797 C801 1.429 . S
C798 C781 1.574 . S
C798 H792 0.949 . S
C798 C802 1.368 . S
C799 C780 1.429 . S
C799 C793 1.429 . S
C799 C800 1.523 . S
C800 C781 1.368 . S
C800 C794 1.368 . S
C800 C799 1.523 . S
C801 C785 1.429 . S
C801 C797 1.429 . S
C801 C802 1.523 . S
C802 C786 1.368 . S
C802 C798 1.368 . S
C802 C801 1.523 . S
H803 C778 0.950 . S
H804 C780 0.950 . S
H805 C781 0.949 . S
H806 C783 0.950 . S
H807 C785 0.950 . S
C808 C809 1.349 . S
C808 C810 1.327 . S
C808 H833 0.950 . S
C809 C808 1.349 . S
C809 C825 1.349 . S
C810 C808 1.327 . S
C810 C829 1.429 . S
C810 H834 0.950 . S
C811 C828 1.574 . S
C811 C830 1.368 . S
C811 H835 0.949 . S
H812 C816 0.949 . S
C813 C814 1.349 . S
C813 C815 1.327 . S
C813 H836 0.950 . S
C814 C813 1.349 . S
C814 C826 1.349 . S
C815 C813 1.327 . S
C815 C831 1.429 . S
C815 H837 0.950 . S
C816 H812 0.949 . S
C816 C824 1.574 . S
C816 C832 1.368 . S
H817 C825 0.950 . S
H818 C823 0.950 . S
H819 C824 0.949 . S
H820 C826 0.950 . S
H821 C827 0.950 . S
H822 C828 0.949 . S
C823 H818 0.950 . S
C823 C825 1.327 . S
C823 C829 1.429 . S
C824 C816 1.574 . S
C824 H819 0.949 . S
C824 C830 1.368 . S
C825 C809 1.349 . S
C825 H817 0.950 . S
C825 C823 1.327 . S
C826 C814 1.349 . S
C826 H820 0.950 . S
C826 C827 1.327 . S
C827 H821 0.950 . S
C827 C826 1.327 . S
C827 C831 1.429 . S
C828 C811 1.574 . S
C828 H822 0.949 . S
C828 C832 1.368 . S
C829 C810 1.429 . S
C829 C823 1.429 . S
C829 C830 1.523 . S
C830 C811 1.368 . S
C830 C824 1.368 . S
C830 C829 1.523 . S
C831 C815 1.429 . S
C831 C827 1.429 . S
C831 C832 1.523 . S
C832 C816 1.368 . S
C832 C828 1.368 . S
C832 C831 1.523 . S
H833 C808 0.950 . S
H834 C810 0.950 . S
H835 C811 0.949 . S
H836 C813 0.950 . S
H837 C815 0.950 . S
C838 C839 1.349 . S
C838 C840 1.327 . S
C838 H863 0.950 . S
C839 C838 1.349 . S
C839 C855 1.349 . S
C840 C838 1.327 . S
C840 C859 1.429 . S
C840 H864 0.950 . S
C841 C858 1.574 . S
C841 C860 1.368 . S
C841 H865 0.949 . S
H842 C846 0.949 . S
C843 C844 1.349 . S
C843 C845 1.327 . S
C843 H866 0.950 . S
C844 C843 1.349 . S
C844 C856 1.349 . S
C845 C843 1.327 . S
C845 C861 1.429 . S
C845 H867 0.950 . S
C846 H842 0.949 . S
C846 C854 1.574 . S
C846 C862 1.368 . S
H847 C855 0.950 . S
H848 C853 0.950 . S
H849 C854 0.949 . S
H850 C856 0.950 . S
H851 C857 0.950 . S
H852 C858 0.949 . S
C853 H848 0.950 . S
C853 C855 1.327 . S
C853 C859 1.429 . S
C854 C846 1.574 . S
C854 H849 0.949 . S
C854 C860 1.368 . S
C855 C839 1.349 . S
C855 H847 0.950 . S
C855 C853 1.327 . S
C856 C844 1.349 . S
C856 H850 0.950 . S
C856 C857 1.327 . S
C857 H851 0.950 . S
C857 C856 1.327 . S
C857 C861 1.429 . S
C858 C841 1.574 . S
C858 H852 0.949 . S
C858 C862 1.368 . S
C859 C840 1.429 . S
C859 C853 1.429 . S
C859 C860 1.523 . S
C860 C841 1.368 . S
C860 C854 1.368 . S
C860 C859 1.523 . S
C861 C845 1.429 . S
C861 C857 1.429 . S
C861 C862 1.523 . S
C862 C846 1.368 . S
C862 C858 1.368 . S
C862 C861 1.523 . S
H863 C838 0.950 . S
H864 C840 0.950 . S
H865 C841 0.949 . S
H866 C843 0.950 . S
H867 C845 0.950 . S
C868 C869 1.349 . S
C868 C870 1.327 . S
C868 H893 0.950 . S
C869 C868 1.349 . S
C869 C885 1.349 . S
C870 C868 1.327 . S
C870 C889 1.429 . S
C870 H894 0.950 . S
C871 C888 1.574 . S
C871 C890 1.368 . S
C871 H895 0.949 . S
H872 C876 0.949 . S
C873 C874 1.349 . S
C873 C875 1.327 . S
C873 H896 0.950 . S
C874 C873 1.349 . S
C874 C886 1.349 . S
C875 C873 1.327 . S
C875 C891 1.429 . S
C875 H897 0.950 . S
C876 H872 0.949 . S
C876 C884 1.574 . S
C876 C892 1.368 . S
H877 C885 0.950 . S
H878 C883 0.950 . S
H879 C884 0.949 . S
H880 C886 0.950 . S
H881 C887 0.950 . S
H882 C888 0.949 . S
C883 H878 0.950 . S
C883 C885 1.327 . S
C883 C889 1.429 . S
C884 C876 1.574 . S
C884 H879 0.949 . S
C884 C890 1.368 . S
C885 C869 1.349 . S
C885 H877 0.950 . S
C885 C883 1.327 . S
C886 C874 1.349 . S
C886 H880 0.950 . S
C886 C887 1.327 . S
C887 H881 0.950 . S
C887 C886 1.327 . S
C887 C891 1.429 . S
C888 C871 1.574 . S
C888 H882 0.949 . S
C888 C892 1.368 . S
C889 C870 1.429 . S
C889 C883 1.429 . S
C889 C890 1.523 . S
C890 C871 1.368 . S
C890 C884 1.368 . S
C890 C889 1.523 . S
C891 C875 1.429 . S
C891 C887 1.429 . S
C891 C892 1.523 . S
C892 C876 1.368 . S
C892 C888 1.368 . S
C892 C891 1.523 . S
H893 C868 0.950 . S
H894 C870 0.950 . S
H895 C871 0.949 . S
H896 C873 0.950 . S
H897 C875 0.950 . S
C898 C899 1.349 . S
C898 C900 1.327 . S
C898 H923 0.950 . S
C899 C898 1.349 . S
C899 C915 1.349 . S
C900 C898 1.327 . S
C900 C919 1.429 . S
C900 H924 0.950 . S
C901 C918 1.574 . S
C901 C920 1.368 . S
C901 H925 0.949 . S
H902 C906 0.949 . S
C903 C904 1.349 . S
C903 C905 1.327 . S
C903 H926 0.950 . S
C904 C903 1.349 . S
C904 C916 1.349 . S
C905 C903 1.327 . S
C905 C921 1.429 . S
C905 H927 0.950 . S
C906 H902 0.949 . S
C906 C914 1.574 . S
C906 C922 1.368 . S
H907 C915 0.950 . S
H908 C913 0.950 . S
H909 C914 0.949 . S
H910 C916 0.950 . S
H911 C917 0.950 . S
H912 C918 0.949 . S
C913 H908 0.950 . S
C913 C915 1.327 . S
C913 C919 1.429 . S
C914 C906 1.574 . S
C914 H909 0.949 . S
C914 C920 1.368 . S
C915 C899 1.349 . S
C915 H907 0.950 . S
C915 C913 1.327 . S
C916 C904 1.349 . S
C916 H910 0.950 . S
C916 C917 1.327 . S
C917 H911 0.950 . S
C917 C916 1.327 . S
C917 C921 1.429 . S
C918 C901 1.574 . S
C918 H912 0.949 . S
C918 C922 1.368 . S
C919 C900 1.429 . S
C919 C913 1.429 . S
C919 C920 1.523 . S
C920 C901 1.368 . S
C920 C914 1.368 . S
C920 C919 1.523 . S
C921 C905 1.429 . S
C921 C917 1.429 . S
C921 C922 1.523 . S
C922 C906 1.368 . S
C922 C918 1.368 . S
C922 C921 1.523 . S
H923 C898 0.950 . S
H924 C900 0.950 . S
H925 C901 0.949 . S
H926 C903 0.950 . S
H927 C905 0.950 . S
C928 C929 1.349 . S
C928 C930 1.327 . S
C928 H953 0.950 . S
C929 C928 1.349 . S
C929 C945 1.349 . S
C930 C928 1.327 . S
C930 C949 1.429 . S
C930 H954 0.950 . S
C931 C948 1.574 . S
C931 C950 1.368 . S
C931 H955 0.949 . S
H932 C936 0.949 . S
C933 C934 1.349 . S
C933 C935 1.327 . S
C933 H956 0.950 . S
C934 C933 1.349 . S
C934 C946 1.349 . S
C935 C933 1.327 . S
C935 C951 1.429 . S
C935 H957 0.950 . S
C936 H932 0.949 . S
C936 C944 1.574 . S
C936 C952 1.368 . S
H937 C945 0.950 . S
H938 C943 0.950 . S
H939 C944 0.949 . S
H940 C946 0.950 . S
H941 C947 0.950 . S
H942 C948 0.949 . S
C943 H938 0.950 . S
C943 C945 1.327 . S
C943 C949 1.429 . S
C944 C936 1.574 . S
C944 H939 0.949 . S
C944 C950 1.368 . S
C945 C929 1.349 . S
C945 H937 0.950 . S
C945 C943 1.327 . S
C946 C934 1.349 . S
C946 H940 0.950 . S
C946 C947 1.327 . S
C947 H941 0.950 . S
C947 C946 1.327 . S
C947 C951 1.429 . S
C948 C931 1.574 . S
C948 H942 0.949 . S
C948 C952 1.368 . S
C949 C930 1.429 . S
C949 C943 1.429 . S
C949 C950 1.523 . S
C950 C931 1.368 . S
C950 C944 1.368 . S
C950 C949 1.523 . S
C951 C935 1.429 . S
C951 C947 1.429 . S
C951 C952 1.523 . S
C952 C936 1.368 . S
C952 C948 1.368 . S
C952 C951 1.523 . S
H953 C928 0.950 . S
H954 C930 0.950 . S
H955 C931 0.949 . S
H956 C933 0.950 . S
H957 C935 0.950 . S
C958 C959 1.349 . S
C958 C960 1.327 . S
C958 H983 0.950 . S
C959 C958 1.349 . S
C959 C975 1.349 . S
C960 C958 1.327 . S
C960 C979 1.429 . S
C960 H984 0.950 . S
C961 C978 1.574 . S
C961 C980 1.368 . S
C961 H985 0.949 . S
H962 C966 0.949 . S
C963 C964 1.349 . S
C963 C965 1.327 . S
C963 H986 0.950 . S
C964 C963 1.349 . S
C964 C976 1.349 . S
C965 C963 1.327 . S
C965 C981 1.429 . S
C965 H987 0.950 . S
C966 H962 0.949 . S
C966 C974 1.574 . S
C966 C982 1.368 . S
H967 C975 0.950 . S
H968 C973 0.950 . S
H969 C974 0.949 . S
H970 C976 0.950 . S
H971 C977 0.950 . S
H972 C978 0.949 . S
C973 H968 0.950 . S
C973 C975 1.327 . S
C973 C979 1.429 . S
C974 C966 1.574 . S
C974 H969 0.949 . S
C974 C980 1.368 . S
C975 C959 1.349 . S
C975 H967 0.950 . S
C975 C973 1.327 . S
C976 C964 1.349 . S
C976 H970 0.950 . S
C976 C977 1.327 . S
C977 H971 0.950 . S
C977 C976 1.327 . S
C977 C981 1.429 . S
C978 C961 1.574 . S
C978 H972 0.949 . S
C978 C982 1.368 . S
C979 C960 1.429 . S
C979 C973 1.429 . S
C979 C980 1.523 . S
C980 C961 1.368 . S
C980 C974 1.368 . S
C980 C979 1.523 . S
C981 C965 1.429 . S
C981 C977 1.429 . S
C981 C982 1.523 . S
C982 C966 1.368 . S
C982 C978 1.368 . S
C982 C981 1.523 . S
H983 C958 0.950 . S
H984 C960 0.950 . S
H985 C961 0.949 . S
H986 C963 0.950 . S
H987 C965 0.950 . S
C988 C989 1.349 . S
C988 C990 1.327 . S
C988 H1013 0.950 . S
C989 C988 1.349 . S
C989 C1005 1.349 . S
C990 C988 1.327 . S
C990 C1009 1.429 . S
C990 H1014 0.950 . S
C991 C1008 1.574 . S
C991 C1010 1.368 . S
C991 H1015 0.949 . S
H992 C996 0.949 . S
C993 C994 1.349 . S
C993 C995 1.327 . S
C993 H1016 0.950 . S
C994 C993 1.349 . S
C994 C1006 1.349 . S
C995 C993 1.327 . S
C995 C1011 1.429 . S
C995 H1017 0.950 . S
C996 H992 0.949 . S
C996 C1004 1.574 . S
C996 C1012 1.368 . S
H997 C1005 0.950 . S
H998 C1003 0.950 . S
H999 C1004 0.949 . S
H1000 C1006 0.950 . S
H1001 C1007 0.950 . S
H1002 C1008 0.949 . S
C1003 H998 0.950 . S
C1003 C1005 1.327 . S
C1003 C1009 1.429 . S
C1004 C996 1.574 . S
C1004 H999 0.949 . S
C1004 C1010 1.368 . S
C1005 C989 1.349 . S
C1005 H997 0.950 . S
C1005 C1003 1.327 . S
C1006 C994 1.349 . S
C1006 H1000 0.950 . S
C1006 C1007 1.327 . S
C1007 H1001 0.950 . S
C1007 C1006 1.327 . S
C1007 C1011 1.429 . S
C1008 C991 1.574 . S
C1008 H1002 0.949 . S
C1008 C1012 1.368 . S
C1009 C990 1.429 . S
C1009 C1003 1.429 . S
C1009 C1010 1.523 . S
C1010 C991 1.368 . S
C1010 C1004 1.368 . S
C1010 C1009 1.523 . S
C1011 C995 1.429 . S
C1011 C1007 1.429 . S
C1011 C1012 1.523 . S
C1012 C996 1.368 . S
C1012 C1008 1.368 . S
C1012 C1011 1.523 . S
H1013 C988 0.950 . S
H1014 C990 0.950 . S
H1015 C991 0.949 . S
H1016 C993 0.950 . S
H1017 C995 0.950 . S
C1018 C1019 1.349 . S
C1018 C1020 1.327 . S
C1018 H1043 0.950 . S
C1019 C1018 1.349 . S
C1019 C1035 1.349 . S
C1020 C1018 1.327 . S
C1020 C1039 1.429 . S
C1020 H1044 0.950 . S
C1021 C1038 1.574 . S
C1021 C1040 1.368 . S
C1021 H1045 0.949 . S
H1022 C1026 0.949 . S
C1023 C1024 1.349 . S
C1023 C1025 1.327 . S
C1023 H1046 0.950 . S
C1024 C1023 1.349 . S
C1024 C1036 1.349 . S
C1025 C1023 1.327 . S
C1025 C1041 1.429 . S
C1025 H1047 0.950 . S
C1026 H1022 0.949 . S
C1026 C1034 1.574 . S
C1026 C1042 1.368 . S
H1027 C1035 0.950 . S
H1028 C1033 0.950 . S
H1029 C1034 0.949 . S
H1030 C1036 0.950 . S
H1031 C1037 0.950 . S
H1032 C1038 0.949 . S
C1033 H1028 0.950 . S
C1033 C1035 1.327 . S
C1033 C1039 1.429 . S
C1034 C1026 1.574 . S
C1034 H1029 0.949 . S
C1034 C1040 1.368 . S
C1035 C1019 1.349 . S
C1035 H1027 0.950 . S
C1035 C1033 1.327 . S
C1036 C1024 1.349 . S
C1036 H1030 0.950 . S
C1036 C1037 1.327 . S
C1037 H1031 0.950 . S
C1037 C1036 1.327 . S
C1037 C1041 1.429 . S
C1038 C1021 1.574 . S
C1038 H1032 0.949 . S
C1038 C1042 1.368 . S
C1039 C1020 1.429 . S
C1039 C1033 1.429 . S
C1039 C1040 1.523 . S
C1040 C1021 1.368 . S
C1040 C1034 1.368 . S
C1040 C1039 1.523 . S
C1041 C1025 1.429 . S
C1041 C1037 1.429 . S
C1041 C1042 1.523 . S
C1042 C1026 1.368 . S
C1042 C1038 1.368 . S
C1042 C1041 1.523 . S
H1043 C1018 0.950 . S
H1044 C1020 0.950 . S
H1045 C1021 0.949 . S
H1046 C1023 0.950 . S
H1047 C1025 0.950 . S
C1048 C1049 1.349 . S
C1048 C1050 1.327 . S
C1048 H1073 0.950 . S
C1049 C1048 1.349 . S
C1049 C1065 1.349 . S
C1050 C1048 1.327 . S
C1050 C1069 1.429 . S
C1050 H1074 0.950 . S
C1051 C1068 1.574 . S
C1051 C1070 1.368 . S
C1051 H1075 0.949 . S
H1052 C1056 0.949 . S
C1053 C1054 1.349 . S
C1053 C1055 1.327 . S
C1053 H1076 0.950 . S
C1054 C1053 1.349 . S
C1054 C1066 1.349 . S
C1055 C1053 1.327 . S
C1055 C1071 1.429 . S
C1055 H1077 0.950 . S
C1056 H1052 0.949 . S
C1056 C1064 1.574 . S
C1056 C1072 1.368 . S
H1057 C1065 0.950 . S
H1058 C1063 0.950 . S
H1059 C1064 0.949 . S
H1060 C1066 0.950 . S
H1061 C1067 0.950 . S
H1062 C1068 0.949 . S
C1063 H1058 0.950 . S
C1063 C1065 1.327 . S
C1063 C1069 1.429 . S
C1064 C1056 1.574 . S
C1064 H1059 0.949 . S
C1064 C1070 1.368 . S
C1065 C1049 1.349 . S
C1065 H1057 0.950 . S
C1065 C1063 1.327 . S
C1066 C1054 1.349 . S
C1066 H1060 0.950 . S
C1066 C1067 1.327 . S
C1067 H1061 0.950 . S
C1067 C1066 1.327 . S
C1067 C1071 1.429 . S
C1068 C1051 1.574 . S
C1068 H1062 0.949 . S
C1068 C1072 1.368 . S
C1069 C1050 1.429 . S
C1069 C1063 1.429 . S
C1069 C1070 1.523 . S
C1070 C1051 1.368 . S
C1070 C1064 1.368 . S
C1070 C1069 1.523 . S
C1071 C1055 1.429 . S
C1071 C1067 1.429 . S
C1071 C1072 1.523 . S
C1072 C1056 1.368 . S
C1072 C1068 1.368 . S
C1072 C1071 1.523 . S
H1073 C1048 0.950 . S
H1074 C1050 0.950 . S
H1075 C1051 0.949 . S
H1076 C1053 0.950 . S
H1077 C1055 0.950 . S
C1078 C1079 1.349 . S
C1078 C1080 1.327 . S
C1078 H1103 0.950 . S
C1079 C1078 1.349 . S
C1079 C1095 1.349 . S
C1080 C1078 1.327 . S
C1080 C1099 1.429 . S
C1080 H1104 0.950 . S
C1081 C1098 1.574 . S
C1081 C1100 1.368 . S
C1081 H1105 0.949 . S
H1082 C1086 0.949 . S
C1083 C1084 1.349 . S
C1083 C1085 1.327 . S
C1083 H1106 0.950 . S
C1084 C1083 1.349 . S
C1084 C1096 1.349 . S
C1085 C1083 1.327 . S
C1085 C1101 1.429 . S
C1085 H1107 0.950 . S
C1086 H1082 0.949 . S
C1086 C1094 1.574 . S
C1086 C1102 1.368 . S
H1087 C1095 0.950 . S
H1088 C1093 0.950 . S
H1089 C1094 0.949 . S
H1090 C1096 0.950 . S
H1091 C1097 0.950 . S
H1092 C1098 0.949 . S
C1093 H1088 0.950 . S
C1093 C1095 1.327 . S
C1093 C1099 1.429 . S
C1094 C1086 1.574 . S
C1094 H1089 0.949 . S
C1094 C1100 1.368 . S
C1095 C1079 1.349 . S
C1095 H1087 0.950 . S
C1095 C1093 1.327 . S
C1096 C1084 1.349 . S
C1096 H1090 0.950 . S
C1096 C1097 1.327 . S
C1097 H1091 0.950 . S
C1097 C1096 1.327 . S
C1097 C1101 1.429 . S
C1098 C1081 1.574 . S
C1098 H1092 0.949 . S
C1098 C1102 1.368 . S
C1099 C1080 1.429 . S
C1099 C1093 1.429 . S
C1099 C1100 1.523 . S
C1100 C1081 1.368 . S
C1100 C1094 1.368 . S
C1100 C1099 1.523 . S
C1101 C1085 1.429 . S
C1101 C1097 1.429 . S
C1101 C1102 1.523 . S
C1102 C1086 1.368 . S
C1102 C1098 1.368 . S
C1102 C1101 1.523 . S
H1103 C1078 0.950 . S
H1104 C1080 0.950 . S
H1105 C1081 0.949 . S
H1106 C1083 0.950 . S
H1107 C1085 0.950 . S
C1108 C1109 1.349 . S
C1108 C1110 1.327 . S
C1108 H1133 0.950 . S
C1109 C1108 1.349 . S
C1109 C1125 1.349 . S
C1110 C1108 1.327 . S
C1110 C1129 1.429 . S
C1110 H1134 0.950 . S
C1111 C1128 1.574 . S
C1111 C1130 1.368 . S
C1111 H1135 0.949 . S
H1112 C1116 0.949 . S
C1113 C1114 1.349 . S
C1113 C1115 1.327 . S
C1113 H1136 0.950 . S
C1114 C1113 1.349 . S
C1114 C1126 1.349 . S
C1115 C1113 1.327 . S
C1115 C1131 1.429 . S
C1115 H1137 0.950 . S
C1116 H1112 0.949 . S
C1116 C1124 1.574 . S
C1116 C1132 1.368 . S
H1117 C1125 0.950 . S
H1118 C1123 0.950 . S
H1119 C1124 0.949 . S
H1120 C1126 0.950 . S
H1121 C1127 0.950 . S
H1122 C1128 0.949 . S
C1123 H1118 0.950 . S
C1123 C1125 1.327 . S
C1123 C1129 1.429 . S
C1124 C1116 1.574 . S
C1124 H1119 0.949 . S
C1124 C1130 1.368 . S
C1125 C1109 1.349 . S
C1125 H1117 0.950 . S
C1125 C1123 1.327 . S
C1126 C1114 1.349 . S
C1126 H1120 0.950 . S
C1126 C1127 1.327 . S
C1127 H1121 0.950 . S
C1127 C1126 1.327 . S
C1127 C1131 1.429 . S
C1128 C1111 1.574 . S
C1128 H1122 0.949 . S
C1128 C1132 1.368 . S
C1129 C1110 1.429 . S
C1129 C1123 1.429 . S
C1129 C1130 1.523 . S
C1130 C1111 1.368 . S
C1130 C1124 1.368 . S
C1130 C1129 1.523 . S
C1131 C1115 1.429 . S
C1131 C1127 1.429 . S
C1131 C1132 1.523 . S
C1132 C1116 1.368 . S
C1132 C1128 1.368 . S
C1132 C1131 1.523 . S
H1133 C1108 0.950 . S
H1134 C1110 0.950 . S
H1135 C1111 0.949 . S
H1136 C1113 0.950 . S
H1137 C1115 0.950 . S
C1138 C1139 1.349 . S
C1138 C1140 1.327 . S
C1138 H1163 0.950 . S
C1139 C1138 1.349 . S
C1139 C1155 1.349 . S
C1140 C1138 1.327 . S
C1140 C1159 1.429 . S
C1140 H1164 0.950 . S
C1141 C1158 1.574 . S
C1141 C1160 1.368 . S
C1141 H1165 0.949 . S
H1142 C1146 0.949 . S
C1143 C1144 1.349 . S
C1143 C1145 1.327 . S
C1143 H1166 0.950 . S
C1144 C1143 1.349 . S
C1144 C1156 1.349 . S
C1145 C1143 1.327 . S
C1145 C1161 1.429 . S
C1145 H1167 0.950 . S
C1146 H1142 0.949 . S
C1146 C1154 1.574 . S
C1146 C1162 1.368 . S
H1147 C1155 0.950 . S
H1148 C1153 0.950 . S
H1149 C1154 0.949 . S
H1150 C1156 0.950 . S
H1151 C1157 0.950 . S
H1152 C1158 0.949 . S
C1153 H1148 0.950 . S
C1153 C1155 1.327 . S
C1153 C1159 1.429 . S
C1154 C1146 1.574 . S
C1154 H1149 0.949 . S
C1154 C1160 1.368 . S
C1155 C1139 1.349 . S
C1155 H1147 0.950 . S
C1155 C1153 1.327 . S
C1156 C1144 1.349 . S
C1156 H1150 0.950 . S
C1156 C1157 1.327 . S
C1157 H1151 0.950 . S
C1157 C1156 1.327 . S
C1157 C1161 1.429 . S
C1158 C1141 1.574 . S
C1158 H1152 0.949 . S
C1158 C1162 1.368 . S
C1159 C1140 1.429 . S
C1159 C1153 1.429 . S
C1159 C1160 1.523 . S
C1160 C1141 1.368 . S
C1160 C1154 1.368 . S
C1160 C1159 1.523 . S
C1161 C1145 1.429 . S
C1161 C1157 1.429 . S
C1161 C1162 1.523 . S
C1162 C1146 1.368 . S
C1162 C1158 1.368 . S
C1162 C1161 1.523 . S
H1163 C1138 0.950 . S
H1164 C1140 0.950 . S
H1165 C1141 0.949 . S
H1166 C1143 0.950 . S
H1167 C1145 0.950 . S
C449 C1 0.934 . S
C454 C303 0.928 . S
C479 C67 1.615 . S
C484 C347 1.578 . S
C514 C377 2.001 . S
C509 C97 2.004 . S
C539 C133 2.802 . S
C544 C418 2.779 . S
C574 C334 0.700 . S
C569 C25 0.700 . S
C604 C298 2.617 . S
C599 C37 2.614 . S
C634 C426 1.098 . S
C629 C103 1.109 . S
C664 C387 2.141 . S
C659 C109 2.182 . S
C689 C31 0.696 . S
C694 C423 0.698 . S
C724 C337 1.961 . S
C719 C73 2.015 . S
C749 C139 2.136 . S
C754 C306 2.099 . S
C779 C61 1.886 . S
C784 C374 1.891 . S
C814 C294 0.929 . S
C809 C175 0.920 . S
C839 C181 1.592 . S
C844 C338 1.559 . S
C869 C247 2.006 . S
C874 C386 2.024 . S
C899 C277 2.797 . S
C904 C427 2.770 . S
C929 C145 0.695 . S
C934 C343 0.693 . S
C964 C307 2.624 . S
C959 C211 2.614 . S
C994 C417 1.085 . S
C989 C217 1.083 . S
C1024 C378 2.164 . S
C1019 C283 2.184 . S
C1049 C169 0.701 . S
C1054 C414 0.695 . S
C1084 C346 1.979 . S
C1079 C241 2.011 . S
C1114 C297 2.080 . S
C1109 C253 2.131 . S
C1139 C205 1.903 . S
C1144 C383 1.896 . S
