# Generated by pormake.
# Topology wbl, (4,4)-cn, num edge types: 1
# Building blocks:
#     Node 0, Type 0, BuildingBlock: MUDLON_clean_linker_0, # of connection points: 4
#     Node 1, Type 0, BuildingBlock: MUDLON_clean_linker_0, # of connection points: 4
#     Node 2, Type 0, BuildingBlock: MUDLON_clean_linker_0, # of connection points: 4
#     Node 3, Type 0, BuildingBlock: MUDLON_clean_linker_0, # of connection points: 4
#     Node 4, Type 0, BuildingBlock: MUDLON_clean_linker_0, # of connection points: 4
#     Node 5, Type 0, BuildingBlock: MUDLON_clean_linker_0, # of connection points: 4
#     Node 6, Type 0, BuildingBlock: MUDLON_clean_linker_0, # of connection points: 4
#     Node 7, Type 0, BuildingBlock: MUDLON_clean_linker_0, # of connection points: 4
#     Node 8, Type 1, BuildingBlock: CEKHIL_clean_sbu_0, # of connection points: 4
#     Node 9, Type 1, BuildingBlock: CEKHIL_clean_sbu_0, # of connection points: 4
#     Node 10, Type 1, BuildingBlock: CEKHIL_clean_sbu_0, # of connection points: 4
#     Node 11, Type 1, BuildingBlock: CEKHIL_clean_sbu_0, # of connection points: 4
#     Node 12, Type 1, BuildingBlock: CEKHIL_clean_sbu_0, # of connection points: 4
#     Node 13, Type 1, BuildingBlock: CEKHIL_clean_sbu_0, # of connection points: 4
#     Node 14, Type 1, BuildingBlock: CEKHIL_clean_sbu_0, # of connection points: 4
#     Node 15, Type 1, BuildingBlock: CEKHIL_clean_sbu_0, # of connection points: 4
#     Edge 16, Type (0, 1), None
#     Edge 17, Type (0, 1), None
#     Edge 18, Type (0, 1), None
#     Edge 19, Type (0, 1), None
#     Edge 20, Type (0, 1), None
#     Edge 21, Type (0, 1), None
#     Edge 22, Type (0, 1), None
#     Edge 23, Type (0, 1), None
#     Edge 24, Type (0, 1), None
#     Edge 25, Type (0, 1), None
#     Edge 26, Type (0, 1), None
#     Edge 27, Type (0, 1), None
#     Edge 28, Type (0, 1), None
#     Edge 29, Type (0, 1), None
#     Edge 30, Type (0, 1), None
#     Edge 31, Type (0, 1), None
#     Edge 32, Type (0, 1), None
#     Edge 33, Type (0, 1), None
#     Edge 34, Type (0, 1), None
#     Edge 35, Type (0, 1), None
#     Edge 36, Type (0, 1), None
#     Edge 37, Type (0, 1), None
#     Edge 38, Type (0, 1), None
#     Edge 39, Type (0, 1), None
#     Edge 40, Type (0, 1), None
#     Edge 41, Type (0, 1), None
#     Edge 42, Type (0, 1), None
#     Edge 43, Type (0, 1), None
#     Edge 44, Type (0, 1), None
#     Edge 45, Type (0, 1), None
#     Edge 46, Type (0, 1), None
#     Edge 47, Type (0, 1), None
# Relax obj value: 0.117
# Max RMSD: 0.163
# Mean RMSD: 0.147
data_MOF--net-wbl--node1-CEKHIL_clean_sbu_0--node2-MUDLON_clean_linker_0--edge1-none
_symmetry_space_group_name_H-M    P1
_symmetry_Int_Tables_number       1
_symmetry_cell_setting            triclinic
loop_
_symmetry_equiv_pos_as_xyz
'x, y, z'
_cell_length_a     31.846874
_cell_length_b     32.014577
_cell_length_c     44.743098
_cell_angle_alpha  90.261298
_cell_angle_beta   90.080784
_cell_angle_gamma 90.037223
loop_
_atom_site_label
_atom_site_type_symbol
_atom_site_fract_x
_atom_site_fract_y
_atom_site_fract_z
_atom_type_partial_charge
H0 H 0.18365 0.84765 0.35426 0.0
N1 N 0.11361 0.88959 0.33297 0.0
H2 H 0.19633 0.82455 0.4046 0.0
H3 H 0.06599 0.90324 0.38275 0.0
H4 H 0.08062 0.88116 0.43375 0.0
H5 H 0.12594 0.82522 0.29638 0.0
H6 H 0.189 0.81007 0.26678 0.0
H7 H 0.17979 0.94335 0.32307 0.0
H8 H 0.24115 0.92942 0.29255 0.0
H9 H 0.13028 0.96866 0.35349 0.0
H10 H 0.04014 0.89434 0.30492 0.0
H11 H 0.08636 0.02991 0.34766 0.0
H12 H 0.99328 0.9545 0.30181 0.0
H13 H 0.90563 0.20862 0.35348 0.0
H14 H 0.88314 0.22878 0.40397 0.0
H15 H 0.87314 0.09864 0.42783 0.0
H16 H 0.8936 0.07866 0.37712 0.0
H17 H 0.8574 0.06717 0.33044 0.0
H18 H 0.7875 0.06875 0.30812 0.0
H19 H 0.81458 0.19016 0.27067 0.0
H20 H 0.88445 0.18814 0.29331 0.0
H21 H 0.97922 0.11619 0.36879 0.0
H22 H 0.02817 0.05916 0.36713 0.0
H23 H 0.97594 0.01904 0.28245 0.0
N24 N 0.91392 0.13173 0.33127 0.0
H25 H 0.92422 0.07438 0.28543 0.0
C26 C 0.12429 0.8794 0.36388 0.0
C27 C 0.16075 0.85617 0.37101 0.0
C28 C 0.16812 0.84236 0.40006 0.0
C29 C 0.13956 0.8513 0.42295 0.0
C30 C 0.10341 0.87442 0.41643 0.0
C31 C 0.09534 0.88738 0.38716 0.0
C32 C 0.14745 0.88559 0.31162 0.0
C33 C 0.15059 0.84846 0.29503 0.0
C34 C 0.18665 0.83977 0.27835 0.0
C35 C 0.21981 0.86865 0.2774 0.0
C36 C 0.21581 0.90682 0.29266 0.0
C37 C 0.18032 0.91498 0.31002 0.0
C38 C 0.08891 0.92701 0.32893 0.0
C39 C 0.10128 0.9657 0.34105 0.0
C40 C 0.07537 0.00063 0.33836 0.0
C41 C 0.03567 0.99746 0.32456 0.0
C42 C 0.02375 0.95869 0.31213 0.0
C43 C 0.05031 0.92405 0.31409 0.0
C44 C 0.90209 0.14234 0.36161 0.0
C45 C 0.89859 0.18454 0.36964 0.0
C46 C 0.88562 0.19592 0.39834 0.0
C47 C 0.8768 0.16518 0.41971 0.0
C48 C 0.88019 0.12289 0.4118 0.0
C49 C 0.89187 0.1115 0.38283 0.0
C50 C 0.87616 0.12771 0.31352 0.0
C51 C 0.84856 0.09372 0.31694 0.0
C52 C 0.8085 0.09476 0.30417 0.0
C53 C 0.7951 0.12988 0.28791 0.0
C54 C 0.82366 0.16273 0.28319 0.0
C55 C 0.86373 0.16158 0.29591 0.0
C56 C 0.94471 0.09806 0.32879 0.0
C57 C 0.977 0.09448 0.35023 0.0
C58 C 0.0061 0.06207 0.34886 0.0
C59 C 0.00585 0.0335 0.32491 0.0
C60 C 0.97613 0.03918 0.30195 0.0
C61 C 0.94619 0.07112 0.30373 0.0
H62 H 0.9256 0.34333 0.61573 0.0
N63 N 0.89348 0.40489 0.57993 0.0
H64 H 0.90366 0.32708 0.66639 0.0
H65 H 0.83872 0.44664 0.61359 0.0
H66 H 0.81607 0.42963 0.66476 0.0
H67 H 0.8201 0.3822 0.55724 0.0
H68 H 0.8029 0.31671 0.5316 0.0
H69 H 0.95035 0.34583 0.56096 0.0
H70 H 0.93357 0.28072 0.53504 0.0
H71 H 0.97344 0.39504 0.6027 0.0
H72 H 0.8978 0.47033 0.54385 0.0
H73 H 0.032 0.44237 0.59634 0.0
H74 H 0.9575 0.51728 0.53608 0.0
H75 H 0.19813 0.63443 0.61096 0.0
H76 H 0.20772 0.64504 0.66484 0.0
H77 H 0.08365 0.59588 0.68064 0.0
H78 H 0.07287 0.58742 0.62743 0.0
H79 H 0.08528 0.67629 0.58778 0.0
H80 H 0.09606 0.74085 0.5596 0.0
H81 H 0.20051 0.68402 0.51352 0.0
H82 H 0.18755 0.61829 0.54021 0.0
H83 H 0.1403 0.52268 0.57281 0.0
H84 H 0.08498 0.47052 0.56528 0.0
H85 H 0.99228 0.56911 0.5648 0.0
N86 N 0.13081 0.6041 0.58244 0.0
H87 H 0.04721 0.6204 0.57122 0.0
C88 C 0.88419 0.39682 0.61093 0.0
C89 C 0.90249 0.36315 0.62635 0.0
C90 C 0.88991 0.35374 0.65538 0.0
C91 C 0.85864 0.37745 0.66939 0.0
C92 C 0.84053 0.41121 0.65428 0.0
C93 C 0.85347 0.42097 0.62527 0.0
C94 C 0.88637 0.36924 0.56079 0.0
C95 C 0.84507 0.36047 0.55192 0.0
C96 C 0.83529 0.32292 0.53755 0.0
C97 C 0.86684 0.29346 0.53158 0.0
C98 C 0.90857 0.30284 0.53942 0.0
C99 C 0.91827 0.34029 0.55407 0.0
C100 C 0.93056 0.4296 0.57421 0.0
C101 C 0.96938 0.42145 0.58808 0.0
C102 C 0.00334 0.44846 0.58407 0.0
C103 C 0.99956 0.48396 0.56583 0.0
C104 C 0.96137 0.49074 0.55074 0.0
C105 C 0.92728 0.46386 0.555 0.0
C106 C 0.13491 0.61023 0.61451 0.0
C107 C 0.17277 0.62635 0.62597 0.0
C108 C 0.17827 0.63237 0.6567 0.0
C109 C 0.14649 0.62097 0.67675 0.0
C110 C 0.10877 0.60453 0.66557 0.0
C111 C 0.10268 0.5998 0.63484 0.0
C112 C 0.13481 0.64196 0.56529 0.0
C113 C 0.10937 0.6771 0.57076 0.0
C114 C 0.11581 0.71408 0.5549 0.0
C115 C 0.1489 0.71707 0.53433 0.0
C116 C 0.17468 0.68227 0.5292 0.0
C117 C 0.16725 0.64484 0.54427 0.0
C118 C 0.09835 0.5755 0.57261 0.0
C119 C 0.10812 0.53296 0.57021 0.0
C120 C 0.07638 0.50322 0.56624 0.0
C121 C 0.03399 0.51549 0.56484 0.0
C122 C 0.02451 0.55839 0.5654 0.0
C123 C 0.05625 0.58807 0.56915 0.0
H124 H 0.68428 0.38967 0.85943 0.0
N125 N 0.61017 0.38229 0.82738 0.0
H126 H 0.69639 0.36637 0.91023 0.0
H127 H 0.5538 0.35372 0.86639 0.0
H128 H 0.56576 0.3333 0.91872 0.0
H129 H 0.63485 0.31088 0.80284 0.0
H130 H 0.70056 0.29707 0.77627 0.0
H131 H 0.66721 0.44144 0.80915 0.0
H132 H 0.73246 0.42806 0.78228 0.0
H133 H 0.61773 0.4594 0.85356 0.0
H134 H 0.54568 0.38774 0.7899 0.0
H135 H 0.56849 0.51747 0.84873 0.0
H136 H 0.49697 0.44626 0.78395 0.0
H137 H 0.37956 0.68294 0.86009 0.0
H138 H 0.37009 0.69532 0.91385 0.0
H139 H 0.4099 0.56914 0.93185 0.0
H140 H 0.41684 0.55585 0.87861 0.0
H141 H 0.33487 0.56323 0.84665 0.0
H142 H 0.26491 0.56716 0.82465 0.0
H143 H 0.30722 0.66527 0.76587 0.0
H144 H 0.37792 0.66008 0.78752 0.0
H145 H 0.48425 0.62474 0.82524 0.0
H146 H 0.53891 0.57178 0.81816 0.0
H147 H 0.44332 0.47603 0.81456 0.0
N148 N 0.40243 0.61231 0.83289 0.0
H149 H 0.38956 0.52844 0.82083 0.0
C150 C 0.61796 0.37262 0.85852 0.0
C151 C 0.65798 0.37722 0.87175 0.0
C152 C 0.665 0.36423 0.90104 0.0
C153 C 0.63193 0.34836 0.91816 0.0
C154 C 0.59163 0.34557 0.90573 0.0
C155 C 0.58484 0.35717 0.876 0.0
C156 C 0.64577 0.37704 0.80775 0.0
C157 C 0.65569 0.33666 0.79785 0.0
C158 C 0.69335 0.32884 0.7829 0.0
C159 C 0.72179 0.36145 0.77741 0.0
C160 C 0.71113 0.40229 0.78619 0.0
C161 C 0.67357 0.41005 0.80137 0.0
C162 C 0.58482 0.41896 0.82239 0.0
C163 C 0.59164 0.45648 0.83815 0.0
C164 C 0.56361 0.48982 0.83513 0.0
C165 C 0.52845 0.48645 0.81614 0.0
C166 C 0.5232 0.44966 0.79921 0.0
C167 C 0.55107 0.41629 0.8024 0.0
C168 C 0.39944 0.61882 0.86492 0.0
C169 C 0.38629 0.65798 0.87563 0.0
C170 C 0.3808 0.66497 0.90624 0.0
C171 C 0.38965 0.63323 0.92683 0.0
C172 C 0.40339 0.59424 0.91636 0.0
C173 C 0.40745 0.58675 0.88573 0.0
C174 C 0.36192 0.61095 0.8183 0.0
C175 C 0.32948 0.58475 0.82845 0.0
C176 C 0.28938 0.58718 0.81591 0.0
C177 C 0.28051 0.61652 0.79347 0.0
C178 C 0.31306 0.64237 0.78312 0.0
C179 C 0.35345 0.63932 0.79532 0.0
C180 C 0.43266 0.5811 0.82353 0.0
C181 C 0.47517 0.5924 0.82212 0.0
C182 C 0.50634 0.56205 0.8184 0.0
C183 C 0.49559 0.51954 0.81602 0.0
C184 C 0.45284 0.50846 0.8159 0.0
C185 C 0.42175 0.53877 0.81959 0.0
H186 H 0.32981 0.86623 0.0953 0.0
N187 N 0.40641 0.89134 0.08013 0.0
H188 H 0.30235 0.85284 0.14519 0.0
H189 H 0.4461 0.91009 0.13445 0.0
H190 H 0.41836 0.89745 0.18386 0.0
H191 H 0.36368 0.86988 0.03135 0.0
H192 H 0.35541 0.79944 0.01026 0.0
H193 H 0.45076 0.82218 0.09656 0.0
H194 H 0.44425 0.75251 0.07503 0.0
H195 H 0.48993 0.88141 0.09418 0.0
H196 H 0.40133 0.96413 0.05219 0.0
H197 H 0.54487 0.93308 0.08875 0.0
H198 H 0.45713 0.01527 0.04423 0.0
H199 H 0.7012 0.13771 0.10661 0.0
H200 H 0.71439 0.15128 0.15978 0.0
H201 H 0.59216 0.1018 0.18122 0.0
H202 H 0.57791 0.09019 0.12878 0.0
H203 H 0.5843 0.17631 0.08536 0.0
H204 H 0.59286 0.24011 0.05597 0.0
H205 H 0.69838 0.18468 0.01028 0.0
H206 H 0.68762 0.11959 0.03818 0.0
H207 H 0.64487 0.02527 0.06857 0.0
H208 H 0.59191 0.97088 0.06121 0.0
H209 H 0.49429 0.06398 0.07077 0.0
N210 N 0.63228 0.1055 0.0813 0.0
H211 H 0.54703 0.11758 0.07613 0.0
C212 C 0.39033 0.88857 0.11041 0.0
C213 C 0.34933 0.8734 0.11449 0.0
C214 C 0.3337 0.86562 0.14305 0.0
C215 C 0.35842 0.87369 0.16841 0.0
C216 C 0.39876 0.89052 0.16466 0.0
C217 C 0.41472 0.8977 0.13602 0.0
C218 C 0.40842 0.8515 0.06504 0.0
C219 C 0.38205 0.84445 0.04043 0.0
C220 C 0.37711 0.80422 0.02862 0.0
C221 C 0.39911 0.77042 0.04101 0.0
C222 C 0.42716 0.77794 0.06476 0.0
C223 C 0.43141 0.81798 0.07691 0.0
C224 C 0.44101 0.91936 0.07431 0.0
C225 C 0.48242 0.91036 0.08311 0.0
C226 C 0.51417 0.94012 0.07969 0.0
C227 C 0.50572 0.97901 0.06633 0.0
C228 C 0.46481 0.98645 0.05553 0.0
C229 C 0.43283 0.95713 0.0598 0.0
C230 C 0.6386 0.11306 0.11303 0.0
C231 C 0.67701 0.13018 0.1227 0.0
C232 C 0.68457 0.13791 0.15303 0.0
C233 C 0.65433 0.12733 0.17446 0.0
C234 C 0.61611 0.10989 0.16507 0.0
C235 C 0.60799 0.10335 0.13473 0.0
C236 C 0.63448 0.14257 0.06315 0.0
C237 C 0.60802 0.17711 0.0681 0.0
C238 C 0.61326 0.21373 0.05157 0.0
C239 C 0.6461 0.21702 0.03082 0.0
C240 C 0.67273 0.18274 0.02609 0.0
C241 C 0.66653 0.14564 0.04185 0.0
C242 C 0.60028 0.07553 0.07295 0.0
C243 C 0.61198 0.03386 0.06828 0.0
C244 C 0.58152 0.00275 0.06447 0.0
C245 C 0.53843 0.01259 0.06582 0.0
C246 C 0.52691 0.05485 0.06906 0.0
C247 C 0.55738 0.08595 0.07225 0.0
H248 H 0.16367 0.58786 0.88728 0.0
N249 N 0.1049 0.62373 0.92402 0.0
H250 H 0.17948 0.60788 0.83611 0.0
H251 H 0.06653 0.68155 0.89132 0.0
H252 H 0.08378 0.70289 0.83994 0.0
H253 H 0.13165 0.69593 0.94616 0.0
H254 H 0.1982 0.71005 0.97184 0.0
H255 H 0.16159 0.56462 0.94318 0.0
H256 H 0.2274 0.57832 0.96917 0.0
H257 H 0.11325 0.54264 0.90364 0.0
H258 H 0.03565 0.6241 0.95707 0.0
H259 H 0.06281 0.48669 0.90936 0.0
H260 H 0.98509 0.56717 0.96388 0.0
H261 H 0.86997 0.32326 0.89412 0.0
H262 H 0.86411 0.30803 0.84045 0.0
H263 H 0.91575 0.42933 0.82056 0.0
H264 H 0.91942 0.4456 0.87333 0.0
H265 H 0.82777 0.43898 0.9031 0.0
H266 H 0.7573 0.43479 0.92418 0.0
H267 H 0.8009 0.3437 0.98812 0.0
H268 H 0.87192 0.34907 0.96723 0.0
H269 H 0.97683 0.38313 0.93432 0.0
H270 H 0.03018 0.43731 0.94177 0.0
H271 H 0.93443 0.53209 0.9331 0.0
N272 N 0.89641 0.39372 0.9203 0.0
H273 H 0.88171 0.47831 0.92654 0.0
C274 C 0.11306 0.63265 0.89299 0.0
C275 C 0.145 0.61204 0.87696 0.0
C276 C 0.15425 0.62362 0.84768 0.0
C277 C 0.13246 0.65649 0.83416 0.0
C278 C 0.10066 0.67716 0.85 0.0
C279 C 0.09078 0.665 0.87915 0.0
C280 C 0.14118 0.62933 0.94299 0.0
C281 C 0.15215 0.67008 0.95163 0.0
C282 C 0.19028 0.67811 0.96604 0.0
C283 C 0.21811 0.64533 0.97234 0.0
C284 C 0.20657 0.60427 0.96461 0.0
C285 C 0.16864 0.59632 0.94986 0.0
C286 C 0.07809 0.58816 0.92965 0.0
C287 C 0.08569 0.54855 0.91698 0.0
C288 C 0.05678 0.51612 0.92058 0.0
C289 C 0.01966 0.52231 0.93702 0.0
C290 C 0.01301 0.56142 0.95071 0.0
C291 C 0.04195 0.59392 0.94701 0.0
C292 C 0.8952 0.38541 0.88835 0.0
C293 C 0.87996 0.34661 0.8782 0.0
C294 C 0.87659 0.33794 0.84761 0.0
C295 C 0.8898 0.36743 0.82651 0.0
C296 C 0.9058 0.40588 0.83645 0.0
C297 C 0.90783 0.41515 0.86692 0.0
C298 C 0.85533 0.39475 0.93397 0.0
C299 C 0.82245 0.41896 0.92215 0.0
C300 C 0.78209 0.41635 0.93418 0.0
C301 C 0.77348 0.38892 0.95788 0.0
C302 C 0.80649 0.36509 0.96986 0.0
C303 C 0.84706 0.36824 0.9581 0.0
C304 C 0.92519 0.4262 0.92989 0.0
C305 C 0.96731 0.4156 0.93485 0.0
C306 C 0.99777 0.44664 0.93879 0.0
C307 C 0.98675 0.48917 0.93768 0.0
C308 C 0.94411 0.49974 0.93444 0.0
C309 C 0.91367 0.46869 0.93063 0.0
H310 H 0.61228 0.33668 0.13766 0.0
N311 N 0.62859 0.40871 0.16963 0.0
H312 H 0.62297 0.32603 0.08425 0.0
H313 H 0.65691 0.46353 0.12989 0.0
H314 H 0.66538 0.45352 0.07577 0.0
H315 H 0.70427 0.38305 0.18643 0.0
H316 H 0.72251 0.31862 0.21283 0.0
H317 H 0.57273 0.35273 0.1955 0.0
H318 H 0.59069 0.28943 0.22156 0.0
H319 H 0.54742 0.38951 0.1549 0.0
H320 H 0.62573 0.48304 0.19625 0.0
H321 H 0.48618 0.4332 0.16228 0.0
H322 H 0.56542 0.5296 0.20064 0.0
H323 H 0.3073 0.61488 0.15361 0.0
H324 H 0.2853 0.63096 0.10232 0.0
H325 H 0.41515 0.63334 0.07479 0.0
H326 H 0.43703 0.62006 0.1262 0.0
H327 H 0.44916 0.66385 0.17026 0.0
H328 H 0.44877 0.73464 0.1908 0.0
H329 H 0.33018 0.70913 0.23408 0.0
H330 H 0.33107 0.63833 0.21331 0.0
H331 H 0.39644 0.53672 0.14105 0.0
H332 H 0.45367 0.48807 0.14254 0.0
H333 H 0.50304 0.55047 0.22107 0.0
N334 N 0.38538 0.60672 0.17433 0.0
H335 H 0.44755 0.60194 0.21773 0.0
C336 C 0.63472 0.40089 0.13807 0.0
C337 C 0.62469 0.36222 0.12463 0.0
C338 C 0.6307 0.35612 0.09402 0.0
C339 C 0.6452 0.38891 0.07603 0.0
C340 C 0.65423 0.42775 0.08922 0.0
C341 C 0.64952 0.43345 0.12003 0.0
C342 C 0.63729 0.37339 0.18881 0.0
C343 C 0.67935 0.36303 0.1945 0.0
C344 C 0.68971 0.32611 0.20939 0.0
C345 C 0.65802 0.29879 0.21902 0.0
C346 C 0.61586 0.30974 0.21428 0.0
C347 C 0.60553 0.34647 0.1993 0.0
C348 C 0.59111 0.4326 0.17581 0.0
C349 C 0.55131 0.41941 0.16595 0.0
C350 C 0.5163 0.4451 0.1696 0.0
C351 C 0.52042 0.48567 0.18167 0.0
C352 C 0.56037 0.49851 0.19178 0.0
C353 C 0.59513 0.47205 0.18912 0.0
C354 C 0.37359 0.61548 0.14371 0.0
C355 C 0.33092 0.61901 0.13649 0.0
C356 C 0.31849 0.62818 0.1073 0.0
C357 C 0.34858 0.63291 0.08467 0.0
C358 C 0.39133 0.62943 0.09178 0.0
C359 C 0.40382 0.62185 0.12118 0.0
C360 C 0.39007 0.64574 0.19038 0.0
C361 C 0.42354 0.67327 0.18463 0.0
C362 C 0.42318 0.71382 0.1964 0.0
C363 C 0.38918 0.72783 0.21387 0.0
C364 C 0.35674 0.69957 0.22059 0.0
C365 C 0.35728 0.65899 0.20895 0.0
C366 C 0.41898 0.57596 0.17744 0.0
C367 C 0.42016 0.54106 0.15814 0.0
C368 C 0.45277 0.51219 0.15952 0.0
C369 C 0.48407 0.51532 0.18163 0.0
C370 C 0.48081 0.54784 0.20284 0.0
C371 C 0.44869 0.57764 0.20088 0.0
H372 H 0.32739 0.90957 0.38369 0.0
N373 N 0.39698 0.90058 0.42027 0.0
H374 H 0.32214 0.88994 0.33135 0.0
H375 H 0.45529 0.86478 0.38602 0.0
H376 H 0.45063 0.8472 0.33262 0.0
H377 H 0.36658 0.83356 0.44772 0.0
H378 H 0.29793 0.82576 0.47172 0.0
H379 H 0.34044 0.9641 0.43282 0.0
H380 H 0.27285 0.95658 0.45638 0.0
H381 H 0.38695 0.97733 0.39461 0.0
H382 H 0.46736 0.90547 0.45223 0.0
H383 H 0.43432 0.03642 0.39846 0.0
H384 H 0.5178 0.96294 0.45371 0.0
H385 H 0.61605 0.21136 0.3976 0.0
H386 H 0.63913 0.233 0.34764 0.0
H387 H 0.65116 0.10357 0.32159 0.0
H388 H 0.63024 0.08216 0.37177 0.0
H389 H 0.66227 0.06714 0.4191 0.0
H390 H 0.73215 0.06625 0.44159 0.0
H391 H 0.70959 0.1888 0.4794 0.0
H392 H 0.63989 0.18931 0.45651 0.0
H393 H 0.54628 0.11508 0.37802 0.0
H394 H 0.49539 0.06004 0.38038 0.0
H395 H 0.53847 0.02848 0.46916 0.0
N396 N 0.60834 0.13382 0.41833 0.0
H397 H 0.59268 0.08143 0.46555 0.0
C398 C 0.3918 0.88801 0.3893 0.0
C399 C 0.35434 0.89515 0.37325 0.0
C400 C 0.35127 0.88393 0.34313 0.0
C401 C 0.38592 0.86687 0.32803 0.0
C402 C 0.42344 0.86022 0.34379 0.0
C403 C 0.42608 0.87015 0.37423 0.0
C404 C 0.35921 0.89917 0.43828 0.0
C405 C 0.34656 0.86068 0.45015 0.0
C406 C 0.30727 0.85631 0.46381 0.0
C407 C 0.27964 0.89047 0.4657 0.0
C408 C 0.29314 0.92949 0.4551 0.0
C409 C 0.33236 0.93387 0.4416 0.0
C410 C 0.42313 0.93719 0.4238 0.0
C411 C 0.4147 0.97447 0.40844 0.0
C412 C 0.44257 0.00807 0.41013 0.0
C413 C 0.48066 0.00469 0.42604 0.0
C414 C 0.48869 0.96737 0.44164 0.0
C415 C 0.46002 0.93423 0.4407 0.0
C416 C 0.62053 0.14532 0.38829 0.0
C417 C 0.62368 0.18776 0.38107 0.0
C418 C 0.63701 0.2 0.35268 0.0
C419 C 0.64651 0.16988 0.33083 0.0
C420 C 0.6436 0.12736 0.33799 0.0
C421 C 0.63166 0.11514 0.36666 0.0
C422 C 0.6459 0.12851 0.43608 0.0
C423 C 0.67212 0.09344 0.43267 0.0
C424 C 0.71216 0.09305 0.44555 0.0
C425 C 0.72684 0.12773 0.462 0.0
C426 C 0.69954 0.16165 0.46674 0.0
C427 C 0.65956 0.16197 0.45387 0.0
C428 C 0.57684 0.10069 0.42034 0.0
C429 C 0.54642 0.09546 0.39765 0.0
C430 C 0.51598 0.06429 0.3994 0.0
C431 C 0.51274 0.03885 0.42483 0.0
C432 C 0.54083 0.04609 0.44864 0.0
C433 C 0.5722 0.07665 0.44652 0.0
H434 H 0.1122 0.83012 0.64148 0.0
N435 N 0.12466 0.90123 0.67559 0.0
H436 H 0.12586 0.82227 0.58831 0.0
H437 H 0.15361 0.9585 0.63786 0.0
H438 H 0.16509 0.95117 0.58381 0.0
H439 H 0.19788 0.87593 0.69729 0.0
H440 H 0.21313 0.81074 0.72363 0.0
H441 H 0.06646 0.84351 0.69464 0.0
H442 H 0.08129 0.77896 0.7212 0.0
H443 H 0.04543 0.89118 0.65277 0.0
H444 H 0.12074 0.96722 0.71177 0.0
H445 H 0.98747 0.94062 0.6574 0.0
H446 H 0.06238 0.01646 0.71731 0.0
H447 H 0.8243 0.13728 0.64425 0.0
H448 H 0.80895 0.1469 0.59097 0.0
H449 H 0.93013 0.09554 0.56859 0.0
H450 H 0.9466 0.08823 0.62125 0.0
H451 H 0.94351 0.17597 0.65336 0.0
H452 H 0.94245 0.24539 0.67614 0.0
H453 H 0.84844 0.20379 0.73889 0.0
H454 H 0.85091 0.13366 0.71651 0.0
H455 H 0.88169 0.02853 0.68021 0.0
H456 H 0.93441 0.97388 0.68827 0.0
H457 H 0.03242 0.06701 0.68374 0.0
N458 N 0.89496 0.10905 0.66907 0.0
H459 H 0.98032 0.12077 0.67621 0.0
C460 C 0.13273 0.89494 0.64405 0.0
C461 C 0.12456 0.85663 0.62948 0.0
C462 C 0.13229 0.85209 0.59894 0.0
C463 C 0.14675 0.88605 0.58209 0.0
C464 C 0.15403 0.9245 0.59638 0.0
C465 C 0.1476 0.92868 0.62715 0.0
C466 C 0.13117 0.86504 0.69422 0.0
C467 C 0.17227 0.85514 0.7029 0.0
C468 C 0.18091 0.81781 0.71776 0.0
C469 C 0.14842 0.78966 0.72437 0.0
C470 C 0.107 0.80006 0.71646 0.0
C471 C 0.09842 0.83726 0.70139 0.0
C472 C 0.08766 0.92587 0.68173 0.0
C473 C 0.04912 0.91806 0.6673 0.0
C474 C 0.01587 0.9463 0.67012 0.0
C475 C 0.0204 0.98281 0.68748 0.0
C476 C 0.0581 0.98907 0.70333 0.0
C477 C 0.09135 0.96088 0.70041 0.0
C478 C 0.88639 0.11185 0.63725 0.0
C479 C 0.84757 0.12808 0.62787 0.0
C480 C 0.83884 0.13362 0.5975 0.0
C481 C 0.86829 0.12167 0.57581 0.0
C482 C 0.90673 0.10456 0.58495 0.0
C483 C 0.9161 0.10038 0.6153 0.0
C484 C 0.89771 0.14936 0.68364 0.0
C485 C 0.92359 0.18141 0.67257 0.0
C486 C 0.92284 0.22115 0.68557 0.0
C487 C 0.89545 0.23002 0.70939 0.0
C488 C 0.86991 0.19787 0.7206 0.0
C489 C 0.87135 0.15784 0.70796 0.0
C490 C 0.92654 0.07891 0.67779 0.0
C491 C 0.91452 0.03713 0.68163 0.0
C492 C 0.9447 0.00596 0.686 0.0
C493 C 0.9877 0.01602 0.68662 0.0
C494 C 0.9996 0.05814 0.68393 0.0
C495 C 0.9695 0.08919 0.67953 0.0
Co496 Co 0.32249 0.666 0.00767 0.0
O497 O 0.28265 0.62361 0.99618 0.0
O498 O 0.27417 0.69153 0.98909 0.0
C499 C 0.33528 0.64249 0.05397 0.0
O500 O 0.35591 0.71859 0.0178 0.0
Co501 Co 0.41516 0.64147 0.02067 0.0
O502 O 0.41876 0.69948 0.0364 0.0
C503 C 0.38367 0.6403 0.95909 0.0
C504 C 0.25933 0.65381 0.98635 0.0
C505 C 0.39111 0.72713 0.03073 0.0
O506 O 0.351 0.6606 0.96765 0.0
O507 O 0.41106 0.62568 0.9772 0.0
O508 O 0.30198 0.66464 0.04865 0.0
O509 O 0.35683 0.6314 0.03078 0.0
Co510 Co 0.32313 0.84104 0.24388 0.0
O511 O 0.28581 0.88641 0.25383 0.0
O512 O 0.2716 0.81914 0.25993 0.0
C513 C 0.34223 0.86383 0.19848 0.0
O514 O 0.3519 0.78535 0.23531 0.0
Co515 Co 0.41835 0.85383 0.2351 0.0
O516 O 0.41724 0.79637 0.21834 0.0
C517 C 0.38306 0.85806 0.29568 0.0
C518 C 0.25973 0.85778 0.2627 0.0
C519 C 0.38626 0.77225 0.22334 0.0
O520 O 0.3478 0.84491 0.28526 0.0
O521 O 0.41491 0.86587 0.2792 0.0
O522 O 0.30697 0.84402 0.20211 0.0
O523 O 0.36282 0.8727 0.22269 0.0
Co524 Co 0.17114 0.81973 0.49901 0.0
O525 O 0.12752 0.78105 0.51023 0.0
O526 O 0.1959 0.7704 0.51611 0.0
C527 C 0.14737 0.8355 0.45329 0.0
O528 O 0.22543 0.85062 0.4892 0.0
Co529 Co 0.15218 0.91315 0.48827 0.0
O530 O 0.20965 0.91417 0.47136 0.0
C531 C 0.15294 0.88136 0.54962 0.0
C532 C 0.15767 0.75699 0.51944 0.0
C533 C 0.23592 0.88505 0.47643 0.0
O534 O 0.16697 0.84627 0.53979 0.0
O535 O 0.14285 0.91177 0.53261 0.0
O536 O 0.16877 0.80152 0.45766 0.0
O537 O 0.13689 0.8563 0.47701 0.0
Co538 Co 0.17174 0.68656 0.75949 0.0
O539 O 0.1279 0.72407 0.74691 0.0
O540 O 0.1961 0.73645 0.74281 0.0
C541 C 0.14467 0.67092 0.80438 0.0
O542 O 0.22593 0.65678 0.77107 0.0
Co543 Co 0.15309 0.59264 0.77004 0.0
O544 O 0.21149 0.59114 0.78564 0.0
C545 C 0.15233 0.62623 0.70922 0.0
C546 C 0.15776 0.74912 0.73861 0.0
C547 C 0.23699 0.62148 0.78232 0.0
O548 O 0.17115 0.65919 0.71882 0.0
O549 O 0.13813 0.59784 0.72653 0.0
O550 O 0.16557 0.70536 0.80076 0.0
O551 O 0.13718 0.64939 0.78046 0.0
Co552 Co 0.8396 0.19142 0.496 0.0
O553 O 0.88499 0.22737 0.50843 0.0
O554 O 0.81729 0.24105 0.51447 0.0
C555 C 0.86409 0.17736 0.45009 0.0
O556 O 0.78415 0.16373 0.48491 0.0
Co557 Co 0.85407 0.09778 0.48195 0.0
O558 O 0.79551 0.09929 0.46657 0.0
C559 C 0.85976 0.12819 0.54377 0.0
C560 C 0.85609 0.25289 0.51776 0.0
C561 C 0.77119 0.12996 0.47216 0.0
O562 O 0.84156 0.16221 0.5358 0.0
O563 O 0.87175 0.10019 0.52515 0.0
O564 O 0.84424 0.21205 0.45532 0.0
O565 O 0.87202 0.15442 0.47314 0.0
Co566 Co 0.8265 0.33878 0.74366 0.0
O567 O 0.78829 0.3824 0.75575 0.0
O568 O 0.7761 0.31448 0.75972 0.0
C569 C 0.84332 0.36551 0.69898 0.0
O570 O 0.8564 0.28469 0.73248 0.0
Co571 Co 0.92119 0.35609 0.73366 0.0
O572 O 0.9223 0.29826 0.71738 0.0
C573 C 0.88593 0.35904 0.7942 0.0
C574 C 0.76301 0.35256 0.76369 0.0
C575 C 0.89155 0.27326 0.7209 0.0
O576 O 0.85302 0.33993 0.78461 0.0
O577 O 0.91491 0.37242 0.7769 0.0
O578 O 0.80869 0.34458 0.70221 0.0
O579 O 0.8645 0.37296 0.72308 0.0
Co580 Co 0.66614 0.31918 0.99389 0.0
O581 O 0.62325 0.28032 0.00634 0.0
O582 O 0.69187 0.27054 0.0113 0.0
C583 C 0.64019 0.33312 0.94841 0.0
O584 O 0.71992 0.35038 0.98301 0.0
Co585 Co 0.64675 0.41213 0.98147 0.0
O586 O 0.70331 0.41245 0.96301 0.0
C587 C 0.64986 0.38263 0.04357 0.0
C588 C 0.65392 0.25679 0.01539 0.0
C589 C 0.7299 0.38393 0.9689 0.0
O590 O 0.66298 0.34693 0.03427 0.0
O591 O 0.63963 0.41249 0.02609 0.0
O592 O 0.66247 0.29973 0.95278 0.0
O593 O 0.63088 0.35485 0.97193 0.0
Co594 Co 0.68398 0.19684 0.25481 0.0
O595 O 0.63935 0.23357 0.24271 0.0
O596 O 0.70719 0.24626 0.23658 0.0
C597 C 0.6591 0.18277 0.30063 0.0
O598 O 0.7388 0.16789 0.26564 0.0
Co599 Co 0.66698 0.10327 0.26808 0.0
O600 O 0.72569 0.10348 0.28315 0.0
C601 C 0.66234 0.13422 0.20655 0.0
C602 C 0.66855 0.25858 0.23329 0.0
C603 C 0.75081 0.13358 0.27791 0.0
O604 O 0.68143 0.16777 0.21476 0.0
O605 O 0.64954 0.10651 0.22495 0.0
O606 O 0.67956 0.21722 0.29584 0.0
O607 O 0.65085 0.16033 0.27727 0.0
loop_
_geom_bond_atom_site_label_1
_geom_bond_atom_site_label_2
_geom_bond_distance
_geom_bond_site_symmetry_2
_ccdc_geom_bond_type
H0 C27 0.929 . S
N1 C26 1.433 . S
N1 C32 1.435 . S
N1 C38 1.423 . S
H2 C28 0.930 . S
H3 C31 0.931 . S
H4 C30 0.929 . S
H5 C33 0.930 . S
H6 C34 0.932 . S
H7 C37 0.929 . S
H8 C36 0.931 . S
H9 C39 0.929 . S
H10 C43 0.932 . S
H11 C40 0.931 . S
H12 C42 0.929 . S
H13 C45 0.929 . S
H14 C46 0.930 . S
H15 C48 0.929 . S
H16 C49 0.931 . S
H17 C51 0.930 . S
H18 C52 0.932 . S
H19 C54 0.931 . S
H20 C55 0.929 . S
H21 C57 0.929 . S
H22 C58 0.943 . S
H23 C60 0.929 . S
N24 C44 1.433 . S
N24 C50 1.435 . S
N24 C56 1.423 . S
H25 C61 0.932 . S
C26 N1 1.433 . S
C26 C27 1.363 . S
C26 C31 1.370 . S
C27 H0 0.929 . S
C27 C26 1.363 . S
C27 C28 1.385 . S
C28 H2 0.930 . S
C28 C27 1.385 . S
C28 C29 1.357 . S
C29 C28 1.357 . S
C29 C30 1.406 . S
C30 H4 0.929 . S
C30 C29 1.406 . S
C30 C31 1.391 . S
C31 H3 0.931 . S
C31 C26 1.370 . S
C31 C30 1.391 . S
C32 N1 1.435 . S
C32 C33 1.358 . S
C32 C37 1.371 . S
C33 H5 0.930 . S
C33 C32 1.358 . S
C33 C34 1.405 . S
C34 H6 0.932 . S
C34 C33 1.405 . S
C34 C35 1.383 . S
C35 C34 1.383 . S
C35 C36 1.393 . S
C36 H8 0.931 . S
C36 C35 1.393 . S
C36 C37 1.382 . S
C37 H7 0.929 . S
C37 C32 1.371 . S
C37 C36 1.382 . S
C38 N1 1.423 . S
C38 C39 1.362 . S
C38 C43 1.388 . S
C39 H9 0.929 . S
C39 C38 1.362 . S
C39 C40 1.376 1_565 S
C40 H11 0.931 . S
C40 C39 1.376 1_545 S
C40 C41 1.396 . S
C41 C40 1.396 . S
C41 C42 1.348 1_545 S
C41 C59 1.472 . S
C42 H12 0.929 . S
C42 C41 1.348 1_565 S
C42 C43 1.443 . S
C43 H10 0.932 . S
C43 C38 1.388 . S
C43 C42 1.443 . S
C44 N24 1.433 . S
C44 C45 1.363 . S
C44 C49 1.370 . S
C45 H13 0.929 . S
C45 C44 1.363 . S
C45 C46 1.385 . S
C46 H14 0.930 . S
C46 C45 1.385 . S
C46 C47 1.357 . S
C47 C46 1.357 . S
C47 C48 1.406 . S
C48 H15 0.929 . S
C48 C47 1.406 . S
C48 C49 1.391 . S
C49 H16 0.931 . S
C49 C44 1.370 . S
C49 C48 1.391 . S
C50 N24 1.435 . S
C50 C51 1.358 . S
C50 C55 1.371 . S
C51 H17 0.930 . S
C51 C50 1.358 . S
C51 C52 1.405 . S
C52 H18 0.932 . S
C52 C51 1.405 . S
C52 C53 1.383 . S
C53 C52 1.383 . S
C53 C54 1.393 . S
C54 H19 0.931 . S
C54 C53 1.393 . S
C54 C55 1.382 . S
C55 H20 0.929 . S
C55 C50 1.371 . S
C55 C54 1.382 . S
C56 N24 1.423 . S
C56 C57 1.362 . S
C56 C61 1.388 . S
C57 H21 0.929 . S
C57 C56 1.362 . S
C57 C58 1.364 1_655 S
C58 H22 0.943 . S
C58 C57 1.364 1_455 S
C58 C59 1.398 . S
C59 C41 1.472 . S
C59 C58 1.398 . S
C59 C60 1.348 1_455 S
C60 H23 0.929 . S
C60 C59 1.348 1_655 S
C60 C61 1.443 . S
C61 H25 0.932 . S
C61 C56 1.388 . S
C61 C60 1.443 . S
H62 C89 0.929 . S
N63 C88 1.433 . S
N63 C94 1.435 . S
N63 C100 1.423 . S
H64 C90 0.930 . S
H65 C93 0.931 . S
H66 C92 0.929 . S
H67 C95 0.930 . S
H68 C96 0.932 . S
H69 C99 0.929 . S
H70 C98 0.931 . S
H71 C101 0.931 . S
H72 C105 0.932 . S
H73 C102 0.931 . S
H74 C104 0.929 . S
H75 C107 0.929 . S
H76 C108 0.930 . S
H77 C110 0.929 . S
H78 C111 0.931 . S
H79 C113 0.930 . S
H80 C114 0.932 . S
H81 C116 0.931 . S
H82 C117 0.929 . S
H83 C119 0.929 . S
H84 C120 0.931 . S
H85 C122 0.929 . S
N86 C106 1.433 . S
N86 C112 1.435 . S
N86 C118 1.423 . S
H87 C123 0.932 . S
C88 N63 1.433 . S
C88 C89 1.363 . S
C88 C93 1.370 . S
C89 H62 0.929 . S
C89 C88 1.363 . S
C89 C90 1.385 . S
C90 H64 0.930 . S
C90 C89 1.385 . S
C90 C91 1.357 . S
C91 C90 1.357 . S
C91 C92 1.406 . S
C92 H66 0.929 . S
C92 C91 1.406 . S
C92 C93 1.391 . S
C93 H65 0.931 . S
C93 C88 1.370 . S
C93 C92 1.391 . S
C94 N63 1.435 . S
C94 C95 1.358 . S
C94 C99 1.371 . S
C95 H67 0.930 . S
C95 C94 1.358 . S
C95 C96 1.405 . S
C96 H68 0.932 . S
C96 C95 1.405 . S
C96 C97 1.383 . S
C97 C96 1.383 . S
C97 C98 1.393 . S
C98 H70 0.931 . S
C98 C97 1.393 . S
C98 C99 1.382 . S
C99 H69 0.929 . S
C99 C94 1.371 . S
C99 C98 1.382 . S
C100 N63 1.423 . S
C100 C101 1.362 . S
C100 C105 1.388 . S
C101 H71 0.931 . S
C101 C100 1.362 . S
C101 C102 1.376 1_655 S
C102 H73 0.931 . S
C102 C101 1.376 1_455 S
C102 C103 1.396 . S
C103 C102 1.396 . S
C103 C104 1.348 1_455 S
C103 C121 1.472 . S
C104 H74 0.929 . S
C104 C103 1.348 1_655 S
C104 C105 1.443 . S
C105 H72 0.932 . S
C105 C100 1.388 . S
C105 C104 1.443 . S
C106 N86 1.433 . S
C106 C107 1.363 . S
C106 C111 1.370 . S
C107 H75 0.929 . S
C107 C106 1.363 . S
C107 C108 1.385 . S
C108 H76 0.930 . S
C108 C107 1.385 . S
C108 C109 1.357 . S
C109 C108 1.357 . S
C109 C110 1.406 . S
C110 H77 0.929 . S
C110 C109 1.406 . S
C110 C111 1.391 . S
C111 H78 0.931 . S
C111 C106 1.370 . S
C111 C110 1.391 . S
C112 N86 1.435 . S
C112 C113 1.358 . S
C112 C117 1.371 . S
C113 H79 0.930 . S
C113 C112 1.358 . S
C113 C114 1.405 . S
C114 H80 0.932 . S
C114 C113 1.405 . S
C114 C115 1.383 . S
C115 C114 1.383 . S
C115 C116 1.393 . S
C116 H81 0.931 . S
C116 C115 1.393 . S
C116 C117 1.382 . S
C117 H82 0.929 . S
C117 C112 1.371 . S
C117 C116 1.382 . S
C118 N86 1.423 . S
C118 C119 1.362 . S
C118 C123 1.388 . S
C119 H83 0.929 . S
C119 C118 1.362 . S
C119 C120 1.376 . S
C120 H84 0.931 . S
C120 C119 1.376 . S
C120 C121 1.396 . S
C121 C103 1.472 . S
C121 C120 1.396 . S
C121 C122 1.348 . S
C122 H85 0.929 . S
C122 C121 1.348 . S
C122 C123 1.443 . S
C123 H87 0.932 . S
C123 C118 1.388 . S
C123 C122 1.443 . S
H124 C151 0.929 . S
N125 C150 1.433 . S
N125 C156 1.435 . S
N125 C162 1.423 . S
H126 C152 0.930 . S
H127 C155 0.931 . S
H128 C154 0.929 . S
H129 C157 0.930 . S
H130 C158 0.932 . S
H131 C161 0.929 . S
H132 C160 0.931 . S
H133 C163 0.929 . S
H134 C167 0.932 . S
H135 C164 0.931 . S
H136 C166 0.929 . S
H137 C169 0.929 . S
H138 C170 0.930 . S
H139 C172 0.929 . S
H140 C173 0.931 . S
H141 C175 0.930 . S
H142 C176 0.932 . S
H143 C178 0.931 . S
H144 C179 0.929 . S
H145 C181 0.929 . S
H146 C182 0.931 . S
H147 C184 0.929 . S
N148 C168 1.433 . S
N148 C174 1.435 . S
N148 C180 1.423 . S
H149 C185 0.932 . S
C150 N125 1.433 . S
C150 C151 1.363 . S
C150 C155 1.370 . S
C151 H124 0.929 . S
C151 C150 1.363 . S
C151 C152 1.385 . S
C152 H126 0.930 . S
C152 C151 1.385 . S
C152 C153 1.357 . S
C153 C152 1.357 . S
C153 C154 1.406 . S
C154 H128 0.929 . S
C154 C153 1.406 . S
C154 C155 1.391 . S
C155 H127 0.931 . S
C155 C150 1.370 . S
C155 C154 1.391 . S
C156 N125 1.435 . S
C156 C157 1.358 . S
C156 C161 1.371 . S
C157 H129 0.930 . S
C157 C156 1.358 . S
C157 C158 1.405 . S
C158 H130 0.932 . S
C158 C157 1.405 . S
C158 C159 1.383 . S
C159 C158 1.383 . S
C159 C160 1.393 . S
C160 H132 0.931 . S
C160 C159 1.393 . S
C160 C161 1.382 . S
C161 H131 0.929 . S
C161 C156 1.371 . S
C161 C160 1.382 . S
C162 N125 1.423 . S
C162 C163 1.362 . S
C162 C167 1.388 . S
C163 H133 0.929 . S
C163 C162 1.362 . S
C163 C164 1.376 . S
C164 H135 0.931 . S
C164 C163 1.376 . S
C164 C165 1.396 . S
C165 C164 1.396 . S
C165 C166 1.348 . S
C165 C183 1.472 . S
C166 H136 0.929 . S
C166 C165 1.348 . S
C166 C167 1.443 . S
C167 H134 0.932 . S
C167 C162 1.388 . S
C167 C166 1.443 . S
C168 N148 1.433 . S
C168 C169 1.363 . S
C168 C173 1.370 . S
C169 H137 0.929 . S
C169 C168 1.363 . S
C169 C170 1.385 . S
C170 H138 0.930 . S
C170 C169 1.385 . S
C170 C171 1.357 . S
C171 C170 1.357 . S
C171 C172 1.406 . S
C172 H139 0.929 . S
C172 C171 1.406 . S
C172 C173 1.391 . S
C173 H140 0.931 . S
C173 C168 1.370 . S
C173 C172 1.391 . S
C174 N148 1.435 . S
C174 C175 1.358 . S
C174 C179 1.371 . S
C175 H141 0.930 . S
C175 C174 1.358 . S
C175 C176 1.405 . S
C176 H142 0.932 . S
C176 C175 1.405 . S
C176 C177 1.383 . S
C177 C176 1.383 . S
C177 C178 1.393 . S
C178 H143 0.931 . S
C178 C177 1.393 . S
C178 C179 1.382 . S
C179 H144 0.929 . S
C179 C174 1.371 . S
C179 C178 1.382 . S
C180 N148 1.423 . S
C180 C181 1.362 . S
C180 C185 1.388 . S
C181 H145 0.929 . S
C181 C180 1.362 . S
C181 C182 1.376 . S
C182 H146 0.931 . S
C182 C181 1.376 . S
C182 C183 1.396 . S
C183 C165 1.472 . S
C183 C182 1.396 . S
C183 C184 1.348 . S
C184 H147 0.929 . S
C184 C183 1.348 . S
C184 C185 1.443 . S
C185 H149 0.932 . S
C185 C180 1.388 . S
C185 C184 1.443 . S
H186 C213 0.929 . S
N187 C212 1.433 . S
N187 C218 1.435 . S
N187 C224 1.423 . S
H188 C214 0.930 . S
H189 C217 0.931 . S
H190 C216 0.929 . S
H191 C219 0.930 . S
H192 C220 0.932 . S
H193 C223 0.929 . S
H194 C222 0.931 . S
H195 C225 0.929 . S
H196 C229 0.932 . S
H197 C226 0.931 . S
H198 C228 0.929 . S
H199 C231 0.929 . S
H200 C232 0.930 . S
H201 C234 0.929 . S
H202 C235 0.931 . S
H203 C237 0.930 . S
H204 C238 0.932 . S
H205 C240 0.931 . S
H206 C241 0.929 . S
H207 C243 0.929 . S
H208 C244 0.931 1_565 S
H209 C246 0.929 . S
N210 C230 1.433 . S
N210 C236 1.435 . S
N210 C242 1.423 . S
H211 C247 0.932 . S
C212 N187 1.433 . S
C212 C213 1.363 . S
C212 C217 1.370 . S
C213 H186 0.929 . S
C213 C212 1.363 . S
C213 C214 1.385 . S
C214 H188 0.930 . S
C214 C213 1.385 . S
C214 C215 1.357 . S
C215 C214 1.357 . S
C215 C216 1.406 . S
C216 H190 0.929 . S
C216 C215 1.406 . S
C216 C217 1.391 . S
C217 H189 0.931 . S
C217 C212 1.370 . S
C217 C216 1.391 . S
C218 N187 1.435 . S
C218 C219 1.358 . S
C218 C223 1.371 . S
C219 H191 0.930 . S
C219 C218 1.358 . S
C219 C220 1.405 . S
C220 H192 0.932 . S
C220 C219 1.405 . S
C220 C221 1.383 1_554 S
C221 C220 1.383 1_556 S
C221 C222 1.393 . S
C222 H194 0.931 . S
C222 C221 1.393 . S
C222 C223 1.382 1_556 S
C223 H193 0.929 . S
C223 C218 1.371 . S
C223 C222 1.382 1_554 S
C224 N187 1.423 . S
C224 C225 1.362 . S
C224 C229 1.388 . S
C225 H195 0.929 . S
C225 C224 1.362 . S
C225 C226 1.376 . S
C226 H197 0.931 . S
C226 C225 1.376 . S
C226 C227 1.396 . S
C227 C226 1.396 . S
C227 C228 1.348 . S
C227 C245 1.472 1_565 S
C228 H198 0.929 . S
C228 C227 1.348 . S
C228 C229 1.443 . S
C229 H196 0.932 . S
C229 C224 1.388 . S
C229 C228 1.443 . S
C230 N210 1.433 . S
C230 C231 1.363 . S
C230 C235 1.370 . S
C231 H199 0.929 . S
C231 C230 1.363 . S
C231 C232 1.385 . S
C232 H200 0.930 . S
C232 C231 1.385 . S
C232 C233 1.357 . S
C233 C232 1.357 . S
C233 C234 1.406 . S
C234 H201 0.929 . S
C234 C233 1.406 . S
C234 C235 1.391 . S
C235 H202 0.931 . S
C235 C230 1.370 . S
C235 C234 1.391 . S
C236 N210 1.435 . S
C236 C237 1.358 . S
C236 C241 1.371 . S
C237 H203 0.930 . S
C237 C236 1.358 . S
C237 C238 1.405 . S
C238 H204 0.932 . S
C238 C237 1.405 . S
C238 C239 1.383 1_554 S
C239 C238 1.383 1_556 S
C239 C240 1.393 . S
C240 H205 0.931 . S
C240 C239 1.393 . S
C240 C241 1.382 1_556 S
C241 H206 0.929 . S
C241 C236 1.371 . S
C241 C240 1.382 1_554 S
C242 N210 1.423 . S
C242 C243 1.362 . S
C242 C247 1.388 . S
C243 H207 0.929 . S
C243 C242 1.362 . S
C243 C244 1.376 . S
C244 H208 0.931 1_545 S
C244 C243 1.376 . S
C244 C245 1.396 . S
C245 C227 1.472 1_545 S
C245 C244 1.396 . S
C245 C246 1.348 . S
C246 H209 0.929 . S
C246 C245 1.348 . S
C246 C247 1.443 . S
C247 H211 0.932 . S
C247 C242 1.388 . S
C247 C246 1.443 . S
H248 C275 0.929 . S
N249 C274 1.433 . S
N249 C280 1.435 . S
N249 C286 1.423 . S
H250 C276 0.930 . S
H251 C279 0.931 . S
H252 C278 0.929 . S
H253 C281 0.930 . S
H254 C282 0.932 . S
H255 C285 0.929 . S
H256 C284 0.931 . S
H257 C287 0.929 . S
H258 C291 0.932 . S
H259 C288 0.931 . S
H260 C290 0.929 . S
H261 C293 0.929 . S
H262 C294 0.930 . S
H263 C296 0.929 . S
H264 C297 0.931 . S
H265 C299 0.930 . S
H266 C300 0.932 . S
H267 C302 0.931 . S
H268 C303 0.929 . S
H269 C305 0.929 . S
H270 C306 0.931 1_455 S
H271 C308 0.929 . S
N272 C292 1.433 . S
N272 C298 1.435 . S
N272 C304 1.423 . S
H273 C309 0.932 . S
C274 N249 1.433 . S
C274 C275 1.363 . S
C274 C279 1.370 . S
C275 H248 0.929 . S
C275 C274 1.363 . S
C275 C276 1.385 . S
C276 H250 0.930 . S
C276 C275 1.385 . S
C276 C277 1.357 . S
C277 C276 1.357 . S
C277 C278 1.406 . S
C278 H252 0.929 . S
C278 C277 1.406 . S
C278 C279 1.391 . S
C279 H251 0.931 . S
C279 C274 1.370 . S
C279 C278 1.391 . S
C280 N249 1.435 . S
C280 C281 1.358 . S
C280 C285 1.371 . S
C281 H253 0.930 . S
C281 C280 1.358 . S
C281 C282 1.405 . S
C282 H254 0.932 . S
C282 C281 1.405 . S
C282 C283 1.383 1_556 S
C283 C282 1.383 1_554 S
C283 C284 1.393 . S
C284 H256 0.931 . S
C284 C283 1.393 . S
C284 C285 1.382 1_554 S
C285 H255 0.929 . S
C285 C280 1.371 . S
C285 C284 1.382 1_556 S
C286 N249 1.423 . S
C286 C287 1.362 . S
C286 C291 1.388 . S
C287 H257 0.929 . S
C287 C286 1.362 . S
C287 C288 1.376 . S
C288 H259 0.931 . S
C288 C287 1.376 . S
C288 C289 1.396 . S
C289 C288 1.396 . S
C289 C290 1.348 . S
C289 C307 1.472 . S
C290 H260 0.929 . S
C290 C289 1.348 . S
C290 C291 1.443 . S
C291 H258 0.932 . S
C291 C286 1.388 . S
C291 C290 1.443 . S
C292 N272 1.433 . S
C292 C293 1.363 . S
C292 C297 1.370 . S
C293 H261 0.929 . S
C293 C292 1.363 . S
C293 C294 1.385 . S
C294 H262 0.930 . S
C294 C293 1.385 . S
C294 C295 1.357 . S
C295 C294 1.357 . S
C295 C296 1.406 . S
C296 H263 0.929 . S
C296 C295 1.406 . S
C296 C297 1.391 . S
C297 H264 0.931 . S
C297 C292 1.370 . S
C297 C296 1.391 . S
C298 N272 1.435 . S
C298 C299 1.358 . S
C298 C303 1.371 . S
C299 H265 0.930 . S
C299 C298 1.358 . S
C299 C300 1.405 . S
C300 H266 0.932 . S
C300 C299 1.405 . S
C300 C301 1.383 1_556 S
C301 C300 1.383 1_554 S
C301 C302 1.393 . S
C302 H267 0.931 . S
C302 C301 1.393 . S
C302 C303 1.382 1_554 S
C303 H268 0.929 . S
C303 C298 1.371 . S
C303 C302 1.382 1_556 S
C304 N272 1.423 . S
C304 C305 1.362 . S
C304 C309 1.388 . S
C305 H269 0.929 . S
C305 C304 1.362 . S
C305 C306 1.376 . S
C306 H270 0.931 1_655 S
C306 C305 1.376 . S
C306 C307 1.396 1_655 S
C307 C289 1.472 . S
C307 C306 1.396 1_455 S
C307 C308 1.348 1_455 S
C308 H271 0.929 . S
C308 C307 1.348 1_655 S
C308 C309 1.443 . S
C309 H273 0.932 . S
C309 C304 1.388 . S
C309 C308 1.443 . S
H310 C337 0.929 . S
N311 C336 1.433 . S
N311 C342 1.435 . S
N311 C348 1.423 . S
H312 C338 0.930 . S
H313 C341 0.931 . S
H314 C340 0.929 . S
H315 C343 0.930 . S
H316 C344 0.932 . S
H317 C347 0.929 . S
H318 C346 0.931 . S
H319 C349 0.929 . S
H320 C353 0.932 . S
H321 C350 0.931 . S
H322 C352 0.929 . S
H323 C355 0.929 . S
H324 C356 0.930 . S
H325 C358 0.929 . S
H326 C359 0.931 . S
H327 C361 0.930 . S
H328 C362 0.932 . S
H329 C364 0.931 . S
H330 C365 0.929 . S
H331 C367 0.929 . S
H332 C368 0.931 . S
H333 C370 0.929 . S
N334 C354 1.433 . S
N334 C360 1.435 . S
N334 C366 1.423 . S
H335 C371 0.932 . S
C336 N311 1.433 . S
C336 C337 1.363 . S
C336 C341 1.370 . S
C337 H310 0.929 . S
C337 C336 1.363 . S
C337 C338 1.385 . S
C338 H312 0.930 . S
C338 C337 1.385 . S
C338 C339 1.357 . S
C339 C338 1.357 . S
C339 C340 1.406 . S
C340 H314 0.929 . S
C340 C339 1.406 . S
C340 C341 1.391 . S
C341 H313 0.931 . S
C341 C336 1.370 . S
C341 C340 1.391 . S
C342 N311 1.435 . S
C342 C343 1.358 . S
C342 C347 1.371 . S
C343 H315 0.930 . S
C343 C342 1.358 . S
C343 C344 1.405 . S
C344 H316 0.932 . S
C344 C343 1.405 . S
C344 C345 1.383 . S
C345 C344 1.383 . S
C345 C346 1.393 . S
C346 H318 0.931 . S
C346 C345 1.393 . S
C346 C347 1.382 . S
C347 H317 0.929 . S
C347 C342 1.371 . S
C347 C346 1.382 . S
C348 N311 1.423 . S
C348 C349 1.362 . S
C348 C353 1.388 . S
C349 H319 0.929 . S
C349 C348 1.362 . S
C349 C350 1.376 . S
C350 H321 0.931 . S
C350 C349 1.376 . S
C350 C351 1.396 . S
C351 C350 1.396 . S
C351 C352 1.348 . S
C351 C369 1.472 . S
C352 H322 0.929 . S
C352 C351 1.348 . S
C352 C353 1.443 . S
C353 H320 0.932 . S
C353 C348 1.388 . S
C353 C352 1.443 . S
C354 N334 1.433 . S
C354 C355 1.363 . S
C354 C359 1.370 . S
C355 H323 0.929 . S
C355 C354 1.363 . S
C355 C356 1.385 . S
C356 H324 0.930 . S
C356 C355 1.385 . S
C356 C357 1.357 . S
C357 C356 1.357 . S
C357 C358 1.406 . S
C358 H325 0.929 . S
C358 C357 1.406 . S
C358 C359 1.391 . S
C359 H326 0.931 . S
C359 C354 1.370 . S
C359 C358 1.391 . S
C360 N334 1.435 . S
C360 C361 1.358 . S
C360 C365 1.371 . S
C361 H327 0.930 . S
C361 C360 1.358 . S
C361 C362 1.405 . S
C362 H328 0.932 . S
C362 C361 1.405 . S
C362 C363 1.383 . S
C363 C362 1.383 . S
C363 C364 1.393 . S
C364 H329 0.931 . S
C364 C363 1.393 . S
C364 C365 1.382 . S
C365 H330 0.929 . S
C365 C360 1.371 . S
C365 C364 1.382 . S
C366 N334 1.423 . S
C366 C367 1.362 . S
C366 C371 1.388 . S
C367 H331 0.929 . S
C367 C366 1.362 . S
C367 C368 1.376 . S
C368 H332 0.931 . S
C368 C367 1.376 . S
C368 C369 1.396 . S
C369 C351 1.472 . S
C369 C368 1.396 . S
C369 C370 1.348 . S
C370 H333 0.929 . S
C370 C369 1.348 . S
C370 C371 1.443 . S
C371 H335 0.932 . S
C371 C366 1.388 . S
C371 C370 1.443 . S
H372 C399 0.929 . S
N373 C398 1.433 . S
N373 C404 1.435 . S
N373 C410 1.423 . S
H374 C400 0.930 . S
H375 C403 0.931 . S
H376 C402 0.929 . S
H377 C405 0.930 . S
H378 C406 0.932 . S
H379 C409 0.929 . S
H380 C408 0.931 . S
H381 C411 0.929 . S
H382 C415 0.932 . S
H383 C412 0.931 . S
H384 C414 0.929 . S
H385 C417 0.929 . S
H386 C418 0.930 . S
H387 C420 0.929 . S
H388 C421 0.931 . S
H389 C423 0.930 . S
H390 C424 0.932 . S
H391 C426 0.931 . S
H392 C427 0.929 . S
H393 C429 0.929 . S
H394 C430 0.931 . S
H395 C432 0.929 . S
N396 C416 1.433 . S
N396 C422 1.435 . S
N396 C428 1.423 . S
H397 C433 0.932 . S
C398 N373 1.433 . S
C398 C399 1.363 . S
C398 C403 1.370 . S
C399 H372 0.929 . S
C399 C398 1.363 . S
C399 C400 1.385 . S
C400 H374 0.930 . S
C400 C399 1.385 . S
C400 C401 1.357 . S
C401 C400 1.357 . S
C401 C402 1.406 . S
C402 H376 0.929 . S
C402 C401 1.406 . S
C402 C403 1.391 . S
C403 H375 0.931 . S
C403 C398 1.370 . S
C403 C402 1.391 . S
C404 N373 1.435 . S
C404 C405 1.358 . S
C404 C409 1.371 . S
C405 H377 0.930 . S
C405 C404 1.358 . S
C405 C406 1.405 . S
C406 H378 0.932 . S
C406 C405 1.405 . S
C406 C407 1.383 . S
C407 C406 1.383 . S
C407 C408 1.393 . S
C408 H380 0.931 . S
C408 C407 1.393 . S
C408 C409 1.382 . S
C409 H379 0.929 . S
C409 C404 1.371 . S
C409 C408 1.382 . S
C410 N373 1.423 . S
C410 C411 1.362 . S
C410 C415 1.388 . S
C411 H381 0.929 . S
C411 C410 1.362 . S
C411 C412 1.376 1_565 S
C412 H383 0.931 . S
C412 C411 1.376 1_545 S
C412 C413 1.396 . S
C413 C412 1.396 . S
C413 C414 1.348 1_545 S
C413 C431 1.472 . S
C414 H384 0.929 . S
C414 C413 1.348 1_565 S
C414 C415 1.443 . S
C415 H382 0.932 . S
C415 C410 1.388 . S
C415 C414 1.443 . S
C416 N396 1.433 . S
C416 C417 1.363 . S
C416 C421 1.370 . S
C417 H385 0.929 . S
C417 C416 1.363 . S
C417 C418 1.385 . S
C418 H386 0.930 . S
C418 C417 1.385 . S
C418 C419 1.357 . S
C419 C418 1.357 . S
C419 C420 1.406 . S
C420 H387 0.929 . S
C420 C419 1.406 . S
C420 C421 1.391 . S
C421 H388 0.931 . S
C421 C416 1.370 . S
C421 C420 1.391 . S
C422 N396 1.435 . S
C422 C423 1.358 . S
C422 C427 1.371 . S
C423 H389 0.930 . S
C423 C422 1.358 . S
C423 C424 1.405 . S
C424 H390 0.932 . S
C424 C423 1.405 . S
C424 C425 1.383 . S
C425 C424 1.383 . S
C425 C426 1.393 . S
C426 H391 0.931 . S
C426 C425 1.393 . S
C426 C427 1.382 . S
C427 H392 0.929 . S
C427 C422 1.371 . S
C427 C426 1.382 . S
C428 N396 1.423 . S
C428 C429 1.362 . S
C428 C433 1.388 . S
C429 H393 0.929 . S
C429 C428 1.362 . S
C429 C430 1.376 . S
C430 H394 0.931 . S
C430 C429 1.376 . S
C430 C431 1.396 . S
C431 C413 1.472 . S
C431 C430 1.396 . S
C431 C432 1.348 . S
C432 H395 0.929 . S
C432 C431 1.348 . S
C432 C433 1.443 . S
C433 H397 0.932 . S
C433 C428 1.388 . S
C433 C432 1.443 . S
H434 C461 0.929 . S
N435 C460 1.433 . S
N435 C466 1.435 . S
N435 C472 1.423 . S
H436 C462 0.930 . S
H437 C465 0.931 . S
H438 C464 0.929 . S
H439 C467 0.930 . S
H440 C468 0.932 . S
H441 C471 0.929 . S
H442 C470 0.931 . S
H443 C473 0.929 . S
H444 C477 0.932 . S
H445 C474 0.931 . S
H446 C476 0.929 . S
H447 C479 0.929 . S
H448 C480 0.930 . S
H449 C482 0.929 . S
H450 C483 0.931 . S
H451 C485 0.930 . S
H452 C486 0.932 . S
H453 C488 0.931 . S
H454 C489 0.929 . S
H455 C491 0.929 . S
H456 C492 0.931 1_565 S
H457 C494 0.929 . S
N458 C478 1.433 . S
N458 C484 1.435 . S
N458 C490 1.423 . S
H459 C495 0.932 . S
C460 N435 1.433 . S
C460 C461 1.363 . S
C460 C465 1.370 . S
C461 H434 0.929 . S
C461 C460 1.363 . S
C461 C462 1.385 . S
C462 H436 0.930 . S
C462 C461 1.385 . S
C462 C463 1.357 . S
C463 C462 1.357 . S
C463 C464 1.406 . S
C464 H438 0.929 . S
C464 C463 1.406 . S
C464 C465 1.391 . S
C465 H437 0.931 . S
C465 C460 1.370 . S
C465 C464 1.391 . S
C466 N435 1.435 . S
C466 C467 1.358 . S
C466 C471 1.371 . S
C467 H439 0.930 . S
C467 C466 1.358 . S
C467 C468 1.405 . S
C468 H440 0.932 . S
C468 C467 1.405 . S
C468 C469 1.383 . S
C469 C468 1.383 . S
C469 C470 1.393 . S
C470 H442 0.931 . S
C470 C469 1.393 . S
C470 C471 1.382 . S
C471 H441 0.929 . S
C471 C466 1.371 . S
C471 C470 1.382 . S
C472 N435 1.423 . S
C472 C473 1.362 . S
C472 C477 1.388 . S
C473 H443 0.929 . S
C473 C472 1.362 . S
C473 C474 1.376 1_455 S
C474 H445 0.931 . S
C474 C473 1.376 1_655 S
C474 C475 1.396 . S
C475 C474 1.396 . S
C475 C476 1.348 1_655 S
C475 C493 1.472 1_565 S
C476 H446 0.929 . S
C476 C475 1.348 1_455 S
C476 C477 1.443 . S
C477 H444 0.932 . S
C477 C472 1.388 . S
C477 C476 1.443 . S
C478 N458 1.433 . S
C478 C479 1.363 . S
C478 C483 1.370 . S
C479 H447 0.929 . S
C479 C478 1.363 . S
C479 C480 1.385 . S
C480 H448 0.930 . S
C480 C479 1.385 . S
C480 C481 1.357 . S
C481 C480 1.357 . S
C481 C482 1.406 . S
C482 H449 0.929 . S
C482 C481 1.406 . S
C482 C483 1.391 . S
C483 H450 0.931 . S
C483 C478 1.370 . S
C483 C482 1.391 . S
C484 N458 1.435 . S
C484 C485 1.358 . S
C484 C489 1.371 . S
C485 H451 0.930 . S
C485 C484 1.358 . S
C485 C486 1.405 . S
C486 H452 0.932 . S
C486 C485 1.405 . S
C486 C487 1.383 . S
C487 C486 1.383 . S
C487 C488 1.393 . S
C488 H453 0.931 . S
C488 C487 1.393 . S
C488 C489 1.382 . S
C489 H454 0.929 . S
C489 C484 1.371 . S
C489 C488 1.382 . S
C490 N458 1.423 . S
C490 C491 1.362 . S
C490 C495 1.388 . S
C491 H455 0.929 . S
C491 C490 1.362 . S
C491 C492 1.376 . S
C492 H456 0.931 1_545 S
C492 C491 1.376 . S
C492 C493 1.396 . S
C493 C475 1.472 1_545 S
C493 C492 1.396 . S
C493 C494 1.348 . S
C494 H457 0.929 . S
C494 C493 1.348 . S
C494 C495 1.443 . S
C495 H459 0.932 . S
C495 C490 1.388 . S
C495 C494 1.443 . S
Co496 O497 2.216 1_554 S
Co496 O498 2.091 1_554 S
Co496 O500 2.004 . S
Co496 O506 2.021 1_554 S
Co496 O508 2.137 . S
Co496 O509 2.244 . S
O497 Co496 2.216 1_556 S
O497 C504 1.247 . S
O498 Co496 2.091 1_556 S
O498 C504 1.261 . S
C499 O508 1.247 . S
C499 O509 1.272 . S
O500 Co496 2.004 . S
O500 C505 1.259 . S
Co501 O502 2.061 . S
Co501 O507 2.052 1_554 S
Co501 O509 2.135 . S
O502 Co501 2.061 . S
O502 C505 1.235 . S
C503 O506 1.238 . S
C503 O507 1.241 . S
C504 O497 1.247 . S
C504 O498 1.261 . S
C505 O500 1.259 . S
C505 O502 1.235 . S
O506 Co496 2.021 1_556 S
O506 C503 1.238 . S
O507 Co501 2.052 1_556 S
O507 C503 1.241 . S
O508 Co496 2.137 . S
O508 C499 1.247 . S
O509 Co496 2.244 . S
O509 C499 1.272 . S
O509 Co501 2.135 . S
Co510 O511 2.216 . S
Co510 O512 2.091 . S
Co510 O514 2.004 . S
Co510 O520 2.021 . S
Co510 O522 2.137 . S
Co510 O523 2.244 . S
O511 Co510 2.216 . S
O511 C518 1.247 . S
O512 Co510 2.091 . S
O512 C518 1.261 . S
C513 O522 1.247 . S
C513 O523 1.272 . S
O514 Co510 2.004 . S
O514 C519 1.259 . S
Co515 O516 2.061 . S
Co515 O521 2.052 . S
Co515 O523 2.135 . S
O516 Co515 2.061 . S
O516 C519 1.235 . S
C517 O520 1.238 . S
C517 O521 1.241 . S
C518 O511 1.247 . S
C518 O512 1.261 . S
C519 O514 1.259 . S
C519 O516 1.235 . S
O520 Co510 2.021 . S
O520 C517 1.238 . S
O521 Co515 2.052 . S
O521 C517 1.241 . S
O522 Co510 2.137 . S
O522 C513 1.247 . S
O523 Co510 2.244 . S
O523 C513 1.272 . S
O523 Co515 2.135 . S
Co524 O525 2.216 . S
Co524 O526 2.091 . S
Co524 O528 2.004 . S
Co524 O534 2.021 . S
Co524 O536 2.137 . S
Co524 O537 2.244 . S
O525 Co524 2.216 . S
O525 C532 1.247 . S
O526 Co524 2.091 . S
O526 C532 1.261 . S
C527 O536 1.247 . S
C527 O537 1.272 . S
O528 Co524 2.004 . S
O528 C533 1.259 . S
Co529 O530 2.061 . S
Co529 O535 2.052 . S
Co529 O537 2.135 . S
O530 Co529 2.061 . S
O530 C533 1.235 . S
C531 O534 1.238 . S
C531 O535 1.241 . S
C532 O525 1.247 . S
C532 O526 1.261 . S
C533 O528 1.259 . S
C533 O530 1.235 . S
O534 Co524 2.021 . S
O534 C531 1.238 . S
O535 Co529 2.052 . S
O535 C531 1.241 . S
O536 Co524 2.137 . S
O536 C527 1.247 . S
O537 Co524 2.244 . S
O537 C527 1.272 . S
O537 Co529 2.135 . S
Co538 O539 2.216 . S
Co538 O540 2.091 . S
Co538 O542 2.004 . S
Co538 O548 2.021 . S
Co538 O550 2.137 . S
Co538 O551 2.244 . S
O539 Co538 2.216 . S
O539 C546 1.247 . S
O540 Co538 2.091 . S
O540 C546 1.261 . S
C541 O550 1.247 . S
C541 O551 1.272 . S
O542 Co538 2.004 . S
O542 C547 1.259 . S
Co543 O544 2.061 . S
Co543 O549 2.052 . S
Co543 O551 2.135 . S
O544 Co543 2.061 . S
O544 C547 1.235 . S
C545 O548 1.238 . S
C545 O549 1.241 . S
C546 O539 1.247 . S
C546 O540 1.261 . S
C547 O542 1.259 . S
C547 O544 1.235 . S
O548 Co538 2.021 . S
O548 C545 1.238 . S
O549 Co543 2.052 . S
O549 C545 1.241 . S
O550 Co538 2.137 . S
O550 C541 1.247 . S
O551 Co538 2.244 . S
O551 C541 1.272 . S
O551 Co543 2.135 . S
Co552 O553 2.216 . S
Co552 O554 2.091 . S
Co552 O556 2.004 . S
Co552 O562 2.021 . S
Co552 O564 2.137 . S
Co552 O565 2.244 . S
O553 Co552 2.216 . S
O553 C560 1.247 . S
O554 Co552 2.091 . S
O554 C560 1.261 . S
C555 O564 1.247 . S
C555 O565 1.272 . S
O556 Co552 2.004 . S
O556 C561 1.259 . S
Co557 O558 2.061 . S
Co557 O563 2.052 . S
Co557 O565 2.135 . S
O558 Co557 2.061 . S
O558 C561 1.235 . S
C559 O562 1.238 . S
C559 O563 1.241 . S
C560 O553 1.247 . S
C560 O554 1.261 . S
C561 O556 1.259 . S
C561 O558 1.235 . S
O562 Co552 2.021 . S
O562 C559 1.238 . S
O563 Co557 2.052 . S
O563 C559 1.241 . S
O564 Co552 2.137 . S
O564 C555 1.247 . S
O565 Co552 2.244 . S
O565 C555 1.272 . S
O565 Co557 2.135 . S
Co566 O567 2.216 . S
Co566 O568 2.091 . S
Co566 O570 2.004 . S
Co566 O576 2.021 . S
Co566 O578 2.137 . S
Co566 O579 2.244 . S
O567 Co566 2.216 . S
O567 C574 1.247 . S
O568 Co566 2.091 . S
O568 C574 1.261 . S
C569 O578 1.247 . S
C569 O579 1.272 . S
O570 Co566 2.004 . S
O570 C575 1.259 . S
Co571 O572 2.061 . S
Co571 O577 2.052 . S
Co571 O579 2.135 . S
O572 Co571 2.061 . S
O572 C575 1.235 . S
C573 O576 1.238 . S
C573 O577 1.241 . S
C574 O567 1.247 . S
C574 O568 1.261 . S
C575 O570 1.259 . S
C575 O572 1.235 . S
O576 Co566 2.021 . S
O576 C573 1.238 . S
O577 Co571 2.052 . S
O577 C573 1.241 . S
O578 Co566 2.137 . S
O578 C569 1.247 . S
O579 Co566 2.244 . S
O579 C569 1.272 . S
O579 Co571 2.135 . S
Co580 O581 2.216 1_556 S
Co580 O582 2.091 1_556 S
Co580 O584 2.004 . S
Co580 O590 2.021 1_556 S
Co580 O592 2.137 . S
Co580 O593 2.244 . S
O581 Co580 2.216 1_554 S
O581 C588 1.247 . S
O582 Co580 2.091 1_554 S
O582 C588 1.261 . S
C583 O592 1.247 . S
C583 O593 1.272 . S
O584 Co580 2.004 . S
O584 C589 1.259 . S
Co585 O586 2.061 . S
Co585 O591 2.052 1_556 S
Co585 O593 2.135 . S
O586 Co585 2.061 . S
O586 C589 1.235 . S
C587 O590 1.238 . S
C587 O591 1.241 . S
C588 O581 1.247 . S
C588 O582 1.261 . S
C589 O584 1.259 . S
C589 O586 1.235 . S
O590 Co580 2.021 1_554 S
O590 C587 1.238 . S
O591 Co585 2.052 1_554 S
O591 C587 1.241 . S
O592 Co580 2.137 . S
O592 C583 1.247 . S
O593 Co580 2.244 . S
O593 C583 1.272 . S
O593 Co585 2.135 . S
Co594 O595 2.216 . S
Co594 O596 2.091 . S
Co594 O598 2.004 . S
Co594 O604 2.021 . S
Co594 O606 2.137 . S
Co594 O607 2.244 . S
O595 Co594 2.216 . S
O595 C602 1.247 . S
O596 Co594 2.091 . S
O596 C602 1.261 . S
C597 O606 1.247 . S
C597 O607 1.272 . S
O598 Co594 2.004 . S
O598 C603 1.259 . S
Co599 O600 2.061 . S
Co599 O605 2.052 . S
Co599 O607 2.135 . S
O600 Co599 2.061 . S
O600 C603 1.235 . S
C601 O604 1.238 . S
C601 O605 1.241 . S
C602 O595 1.247 . S
C602 O596 1.261 . S
C603 O598 1.259 . S
C603 O600 1.235 . S
O604 Co594 2.021 . S
O604 C601 1.238 . S
O605 Co599 2.052 . S
O605 C601 1.241 . S
O606 Co594 2.137 . S
O606 C597 1.247 . S
O607 Co594 2.244 . S
O607 C597 1.272 . S
O607 Co599 2.135 . S
C518 C35 1.870 . S
C532 C115 1.898 . S
C547 C177 2.029 . S
C221 C505 1.935 1_556 S
C283 C504 1.841 1_554 S
C363 C519 2.015 . S
C533 C407 2.039 . S
C546 C469 1.869 . S
C159 C574 1.845 . S
C588 C239 1.975 1_554 S
C53 C603 2.042 . S
C560 C97 1.808 . S
C425 C561 2.040 . S
C487 C575 2.001 . S
C589 C301 2.032 1_556 S
C345 C602 1.892 . S
C527 C29 2.674 . S
C545 C109 2.702 . S
C171 C503 2.743 . S
C215 C513 2.753 . S
C277 C541 2.670 . S
C499 C357 2.589 . S
C517 C401 2.847 . S
C531 C463 2.820 . S
C583 C153 2.668 . S
C601 C233 2.669 . S
C47 C555 2.573 . S
C569 C91 2.687 . S
C597 C419 2.595 . S
C481 C559 2.759 . S
C573 C295 2.743 . S
C587 C339 2.825 . S
