# Generated by pormake.
# Topology anh, (6,3)-cn, num edge types: 1
# Building blocks:
#     Node 0, Type 0, BuildingBlock: NUHQIS_clean_sbu_0, # of connection points: 6
#     Node 1, Type 0, BuildingBlock: NUHQIS_clean_sbu_0, # of connection points: 6
#     Node 2, Type 0, BuildingBlock: NUHQIS_clean_sbu_0, # of connection points: 6
#     Node 3, Type 1, BuildingBlock: MIDCAF_clean_linker_0, # of connection points: 3
#     Node 4, Type 1, BuildingBlock: MIDCAF_clean_linker_0, # of connection points: 3
#     Node 5, Type 1, BuildingBlock: MIDCAF_clean_linker_0, # of connection points: 3
#     Node 6, Type 1, BuildingBlock: MIDCAF_clean_linker_0, # of connection points: 3
#     Node 7, Type 1, BuildingBlock: MIDCAF_clean_linker_0, # of connection points: 3
#     Node 8, Type 1, BuildingBlock: MIDCAF_clean_linker_0, # of connection points: 3
#     Edge 9, Type (0, 1), None
#     Edge 10, Type (0, 1), None
#     Edge 11, Type (0, 1), None
#     Edge 12, Type (0, 1), None
#     Edge 13, Type (0, 1), None
#     Edge 14, Type (0, 1), None
#     Edge 15, Type (0, 1), None
#     Edge 16, Type (0, 1), None
#     Edge 17, Type (0, 1), None
#     Edge 18, Type (0, 1), None
#     Edge 19, Type (0, 1), None
#     Edge 20, Type (0, 1), None
#     Edge 21, Type (0, 1), None
#     Edge 22, Type (0, 1), None
#     Edge 23, Type (0, 1), None
#     Edge 24, Type (0, 1), None
#     Edge 25, Type (0, 1), None
#     Edge 26, Type (0, 1), None
# Relax obj value: 0.451
# Max RMSD: 0.222
# Mean RMSD: 0.181
data_MOF--net-anh--node1-NUHQIS_clean_sbu_0--node2-MIDCAF_clean_linker_0--edge1-none
_symmetry_space_group_name_H-M    P1
_symmetry_Int_Tables_number       1
_symmetry_cell_setting            triclinic
loop_
_symmetry_equiv_pos_as_xyz
'x, y, z'
_cell_length_a     19.017739
_cell_length_b     19.018681
_cell_length_c     37.325888
_cell_angle_alpha  88.323684
_cell_angle_beta   93.001074
_cell_angle_gamma 119.82314
loop_
_atom_site_label
_atom_site_type_symbol
_atom_site_fract_x
_atom_site_fract_y
_atom_site_fract_z
_atom_type_partial_charge
Tb0 Tb 0.34171 0.72632 0.17135 0.0
Eu1 Eu 0.24288 0.81855 0.14542 0.0
C2 C 0.26372 0.78048 0.22677 0.0
C3 C 1.14734 0.62467 0.16508 0.0
C4 C 0.38797 0.56362 0.16971 0.0
C5 C 0.34338 0.41993 0.17609 0.0
C6 C 0.36105 0.49383 0.19118 0.0
C7 C 0.39238 0.55724 0.13264 0.0
C8 C 0.37566 0.48417 0.11768 0.0
C9 C 0.35339 0.41482 0.13929 0.0
C10 C 0.40718 0.64175 0.1855 0.0
O11 O 0.30632 0.69842 0.11411 0.0
O12 O 0.30321 0.81272 0.09679 0.0
O13 O 0.36907 0.92112 0.16194 0.0
O14 O 0.44006 0.8522 0.16759 0.0
C15 C 0.30789 0.74875 0.08877 0.0
O16 O 1.16236 0.8401 0.10881 0.0
O17 O 1.20838 0.90831 0.15835 0.0
O18 O 1.21243 0.77444 0.20095 0.0
O19 O 0.33153 0.78194 0.22005 0.0
O20 O 1.21593 0.63475 0.17993 0.0
O21 O 1.1453 0.68288 0.14553 0.0
C22 C 0.43798 0.92052 0.16694 0.0
O23 O 0.43783 0.70462 0.16415 0.0
O24 O 0.35119 0.64005 0.20473 0.0
C25 C 1.06799 0.84503 0.14437 0.0
C26 C 0.91514 0.70832 0.15099 0.0
C27 C 0.92945 0.76198 0.12202 0.0
C28 C 1.00595 0.83019 0.11864 0.0
C29 C 1.04848 0.79962 0.1765 0.0
C30 C 0.97251 0.73068 0.17957 0.0
C31 C 1.15181 0.8826 0.13273 0.0
H32 H 0.32515 0.36779 0.19354 0.0
H33 H 0.35506 0.49679 0.21972 0.0
H34 H 0.41107 0.60933 0.11509 0.0
H35 H 0.38577 0.48431 0.08941 0.0
H36 H 0.88556 0.74509 0.09962 0.0
H37 H 1.01953 0.86418 0.09371 0.0
H38 H 1.09486 0.81033 0.19712 0.0
H39 H 0.96263 0.68975 0.20199 0.0
Tb40 Tb 0.92912 0.2649 0.49717 0.0
Eu41 Eu 0.73806 0.18585 0.50327 0.0
C42 C 0.85784 0.20197 0.57145 0.0
C43 C 0.82206 1.07145 0.50626 0.0
C44 C 1.09599 0.42928 0.46431 0.0
C45 C 1.06524 0.53797 0.46924 0.0
C46 C 1.10016 0.49346 0.48378 0.0
C47 C 1.07651 0.42571 0.42735 0.0
C48 C 1.04097 0.46975 0.41278 0.0
C49 C 1.02674 0.52018 0.43468 0.0
C50 C 1.07405 0.35229 0.4836 0.0
O51 O 0.87964 0.28132 0.44519 0.0
O52 O 0.75181 0.17362 0.44466 0.0
O53 O 0.78602 0.31879 0.49037 0.0
O54 O 0.90631 0.35807 0.51968 0.0
C55 C 0.81371 0.22836 0.42736 0.0
O56 O 0.61053 1.1063 0.48958 0.0
O57 O 0.64635 0.19849 0.53066 0.0
O58 O 0.79237 0.20315 0.55943 0.0
O59 O 0.91608 0.21458 0.55049 0.0
O60 O 0.88936 1.13402 0.49451 0.0
O61 O 0.75915 1.07916 0.51399 0.0
C62 C 0.84985 0.37495 0.50787 0.0
O63 O 1.04796 0.34772 0.51574 0.0
O64 O 1.02623 0.28644 0.46535 0.0
C65 C 0.51803 1.08077 0.53458 0.0
C66 C 0.36131 0.95313 0.54069 0.0
C67 C 0.42718 0.93967 0.54771 0.0
C68 C 0.50601 1.00354 0.5435 0.0
C69 C 0.45465 1.09715 0.53769 0.0
C70 C 0.37605 1.03325 0.5415 0.0
C71 C 0.58667 1.13744 0.51372 0.0
H72 H 1.06511 0.58296 0.48621 0.0
H73 H 1.11954 0.50162 0.51191 0.0
H74 H 1.07718 0.38012 0.41086 0.0
H75 H 1.02006 0.45882 0.38504 0.0
H76 H 0.41733 0.87843 0.54904 0.0
H77 H 0.55527 0.99056 0.54247 0.0
H78 H 0.46375 0.15729 0.53207 0.0
H79 H 0.32685 1.04633 0.53778 0.0
Tb80 Tb 0.78025 0.71292 0.84713 0.0
Eu81 Eu 0.70851 0.53152 0.82174 0.0
C82 C 0.73257 0.57158 0.90045 0.0
C83 C 0.90309 0.64705 0.83747 0.0
C84 C 0.77778 0.8824 0.88856 0.0
C85 C 0.64851 0.87894 0.88392 0.0
C86 C 0.69265 0.8381 0.88558 0.0
C87 C 0.81668 0.96431 0.89742 0.0
C88 C 0.7725 1.00483 0.89635 0.0
C89 C 0.69013 0.96421 0.88403 0.0
C90 C 0.82523 0.84875 0.87461 0.0
O91 O 0.81268 0.72137 0.79041 0.0
O92 O 0.70497 0.59994 0.77289 0.0
O93 O 0.59862 0.54103 0.83841 0.0
O94 O 0.65557 0.67758 0.82931 0.0
C95 C 0.766 0.67068 0.76477 0.0
O96 O 0.68972 0.44155 0.78192 0.0
O97 O 0.64551 0.40246 0.83544 0.0
O98 O 0.76161 0.54496 0.87715 0.0
O99 O 0.71445 0.62719 0.89013 0.0
O100 O 0.88675 0.69709 0.85413 0.0
O101 O 0.84583 0.58632 0.81849 0.0
C102 C 0.59149 0.60678 0.83545 0.0
O103 O 0.82325 0.78811 0.8925 0.0
O104 O 0.81475 0.83534 0.84013 0.0
C105 C 0.73511 0.36327 0.81328 0.0
C106 C 0.89106 0.37989 0.81674 0.0
C107 C 0.86059 0.3947 0.84722 0.0
C108 C 0.7834 0.38679 0.84548 0.0
C109 C 0.76296 0.34165 0.78389 0.0
C110 C 0.84012 0.34996 0.78557 0.0
C111 C 0.67218 0.38643 0.80692 0.0
H112 H 0.58445 0.84523 0.87628 0.0
H113 H 0.66129 0.77373 0.88018 0.0
H114 H 0.88219 0.99888 0.90095 0.0
H115 H 0.80686 1.07018 0.89868 0.0
H116 H 0.8976 0.41545 0.87185 0.0
H117 H 0.76406 0.40445 0.86868 0.0
H118 H 0.72756 0.32414 0.75874 0.0
H119 H 0.86033 0.33389 0.76213 0.0
C120 C 0.51846 1.07425 0.1751 0.0
C121 C 0.51624 0.99897 0.17394 0.0
C122 C 0.58954 0.99871 0.18169 0.0
C123 C 0.66117 1.06998 0.19202 0.0
H124 H 0.88003 0.40183 0.14875 0.0
H125 H 1.00123 0.52369 0.12637 0.0
H126 H 1.12075 0.55563 0.23073 0.0
H127 H 1.00353 0.43726 0.2527 0.0
H128 H 0.92977 0.33534 0.31807 0.0
H129 H 0.93645 0.3178 0.38269 0.0
H130 H 0.67929 1.15047 0.38101 0.0
H131 H 0.67255 0.16441 0.31562 0.0
H132 H 0.58887 0.20151 0.188 0.0
H133 H 0.46375 1.07753 0.16942 0.0
H134 H 0.59113 0.94263 0.18122 0.0
H135 H 0.71483 1.06616 0.19982 0.0
N136 N 0.79389 0.27809 0.19834 0.0
N137 N 0.85857 0.3259 0.25505 0.0
N138 N 0.73433 0.20522 0.25109 0.0
C139 C 0.85829 0.33581 0.21871 0.0
C140 C 0.79734 0.26161 0.27153 0.0
C141 C 0.73162 0.21246 0.21476 0.0
C142 C 0.93052 0.40875 0.20283 0.0
C143 C 0.93221 0.43526 0.16692 0.0
C144 C 1.00134 0.50568 0.15411 0.0
C145 C 1.0708 0.55077 0.17678 0.0
C146 C 1.0689 0.5232 0.21227 0.0
C147 C 1.00061 0.45451 0.22504 0.0
C148 C 0.80053 0.25192 0.31139 0.0
C149 C 0.87439 0.29515 0.3313 0.0
C150 C 0.87816 0.28579 0.36859 0.0
C151 C 0.80832 0.23481 0.3874 0.0
C152 C 0.73437 0.19082 0.36755 0.0
C153 C 0.73066 0.199 0.33001 0.0
C154 C 0.6626 1.14432 0.19445 0.0
C155 C 0.59057 1.14583 0.18537 0.0
C156 C 0.79874 0.4767 0.50185 0.0
C157 C 0.85341 0.45343 0.51771 0.0
C158 C 0.9091 0.50439 0.54448 0.0
C159 C 0.90797 0.57378 0.55604 0.0
H160 H 0.71481 0.82271 0.56642 0.0
H161 H 0.71186 0.94392 0.54586 0.0
H162 H 0.9272 1.01747 0.48698 0.0
H163 H 0.92851 0.89337 0.50717 0.0
H164 H 0.85453 0.83236 0.66136 0.0
H165 H 0.83032 0.81482 0.72611 0.0
H166 H 0.74829 0.55976 0.71633 0.0
H167 H 0.7742 0.5772 0.65278 0.0
H168 H 0.75463 0.5619 0.50079 0.0
H169 H 0.75488 0.43955 0.48111 0.0
H170 H 0.95208 0.48921 0.55751 0.0
H171 H 0.9496 0.60909 0.57781 0.0
N172 N 0.8389 0.72304 0.53912 0.0
N173 N 0.82294 0.77401 0.59326 0.0
N174 N 0.83781 0.65892 0.59433 0.0
C175 C 0.82893 0.77979 0.55694 0.0
C176 C 0.82742 0.7142 0.61219 0.0
C177 C 0.84361 0.66207 0.55805 0.0
C178 C 0.82137 0.84725 0.53827 0.0
C179 C 0.76053 0.86356 0.54834 0.0
C180 C 0.75899 0.9337 0.5365 0.0
C181 C 0.81946 0.99179 0.5147 0.0
C182 C 0.8794 0.97459 0.50368 0.0
C183 C 0.87989 0.90294 0.51502 0.0
C184 C 0.81622 0.70609 0.65172 0.0
C185 C 0.83181 0.77269 0.67319 0.0
C186 C 0.8183 0.76287 0.71028 0.0
C187 C 0.7867 0.68585 0.72631 0.0
C188 C 0.77187 0.61987 0.70481 0.0
C189 C 0.78719 0.62993 0.66827 0.0
C190 C 0.85272 0.59647 0.54067 0.0
C191 C 0.79905 0.54758 0.51286 0.0
C192 C 1.04341 0.71534 0.86717 0.0
C193 C 0.98607 0.65542 0.84366 0.0
C194 C 1.00767 0.60153 0.82879 0.0
C195 C 1.08209 0.6046 0.83903 0.0
H196 H 0.42095 0.71975 0.83116 0.0
H197 H 0.53716 0.71046 0.81128 0.0
H198 H 0.47118 0.50204 0.87964 0.0
H199 H 0.35715 0.5138 0.90059 0.0
H200 H 0.33963 0.61169 0.99379 0.0
H201 H 0.34947 0.64427 0.05794 0.0
H202 H 0.2601 0.80939 0.03179 0.0
H203 H 0.24884 0.776 0.9689 0.0
H204 H 1.15698 0.76333 0.89679 0.0
H205 H 1.03047 0.75874 0.87904 0.0
H206 H 0.96595 0.5553 0.81016 0.0
H207 H 1.095 0.55996 0.82859 0.0
N208 N 0.25656 0.6365 0.86549 0.0
N209 N 0.32881 0.64757 0.9207 0.0
N210 N 1.22009 0.67272 0.91819 0.0
C211 C 0.31836 0.63229 0.88468 0.0
C212 C 0.28016 0.66853 0.93752 0.0
C213 C 1.20641 0.6562 0.8826 0.0
C214 C 0.37861 0.61672 0.86706 0.0
C215 C 0.42986 0.67058 0.84117 0.0
C216 C 0.49687 0.66536 0.82991 0.0
C217 C 0.51353 0.60474 0.84343 0.0
C218 C 0.45987 0.54857 0.86807 0.0
C219 C 0.39436 0.55537 0.88014 0.0
C220 C 0.29304 0.69088 0.9762 0.0
C221 C 0.32277 0.65533 0.00191 0.0
C222 C 0.32804 0.67372 0.03862 0.0
C223 C 0.30559 0.72949 0.05013 0.0
C224 C 0.27825 0.76641 0.02413 0.0
C225 C 0.27142 0.74691 0.98788 0.0
C226 C 1.13653 0.66146 0.86444 0.0
C227 C 1.11673 0.7181 0.87738 0.0
C228 C 0.31331 0.86695 0.48665 0.0
C229 C 0.29363 0.89688 0.51633 0.0
C230 C 1.21794 0.89344 0.51577 0.0
C231 C 1.16732 0.86887 0.48469 0.0
H232 H 0.91581 0.68446 0.45198 0.0
H233 H 0.95521 0.58843 0.47465 0.0
H234 H 0.95962 0.52127 0.36507 0.0
H235 H 0.91841 0.61699 0.34464 0.0
H236 H 1.05607 0.70014 0.30202 0.0
H237 H 1.1134 0.68715 0.24842 0.0
H238 H 0.3521 0.8713 0.28589 0.0
H239 H 0.29428 0.88414 0.34127 0.0
H240 H 0.28284 0.82495 0.43277 0.0
H241 H 0.37097 0.8687 0.4857 0.0
H242 H 1.20093 0.91567 0.53826 0.0
H243 H 1.11091 0.87005 0.48418 0.0
N244 N 1.06148 0.78473 0.42142 0.0
N245 N 1.05075 0.75833 0.36015 0.0
N246 N 1.17873 0.83443 0.38856 0.0
C247 C 1.01419 0.74772 0.3917 0.0
C248 C 1.13265 0.80111 0.35827 0.0
C249 C 1.14324 0.82749 0.42011 0.0
C250 C 0.93661 0.67085 0.39693 0.0
C251 C 0.92254 0.64654 0.43291 0.0
C252 C 0.94882 0.59339 0.44598 0.0
C253 C 0.97424 0.55517 0.42186 0.0
C254 C 0.95111 0.55557 0.38519 0.0
C255 C 0.92436 0.6092 0.3733 0.0
C256 C 1.17012 0.79501 0.32562 0.0
C257 C 1.12084 0.73819 0.29931 0.0
C258 C 1.15394 0.72973 0.26868 0.0
C259 C 0.23713 0.77817 0.26316 0.0
C260 C 0.28792 0.83256 0.28991 0.0
C261 C 0.25452 0.84079 0.32114 0.0
C262 C 1.19243 0.84849 0.45382 0.0
C263 C 0.26378 0.84399 0.45567 0.0
C264 C 1.01676 0.41129 0.78627 0.0
C265 C 0.9721 0.38673 0.81765 0.0
C266 C 0.98965 0.34093 0.84313 0.0
C267 C 1.02873 0.29992 0.83178 0.0
H268 H 0.78994 0.20408 0.83706 0.0
H269 H 0.71255 1.12026 0.88654 0.0
H270 H 0.60938 0.91037 0.81815 0.0
H271 H 0.68512 0.99387 0.76868 0.0
H272 H 0.74642 1.10923 0.68138 0.0
H273 H 0.73557 1.12615 0.61717 0.0
H274 H 0.99605 0.23997 0.61188 0.0
H275 H 1.00754 0.22386 0.67667 0.0
H276 H 1.0743 0.37647 0.74858 0.0
H277 H 1.01025 0.45198 0.76721 0.0
H278 H 0.96091 0.32469 0.86869 0.0
H279 H 1.02739 0.25251 0.84903 0.0
N280 N 0.89399 0.18808 0.7955 0.0
N281 N 0.81643 1.13089 0.74287 0.0
N282 N 0.95795 0.21574 0.74101 0.0
C283 C 0.82084 1.14184 0.77873 0.0
C284 C 0.8849 0.16758 0.72382 0.0
C285 C 0.96324 0.22542 0.77715 0.0
C286 C 0.74814 1.10366 0.80015 0.0
C287 C 0.74749 1.14054 0.83216 0.0
C288 C 0.70182 1.09254 0.86039 0.0
C289 C 0.66437 1.00784 0.85737 0.0
C290 C 0.64439 0.97522 0.82237 0.0
C291 C 0.6887 1.02295 0.79377 0.0
C292 C 0.87802 0.16616 0.68428 0.0
C293 C 0.80154 1.13698 0.66665 0.0
C294 C 0.79526 1.14724 0.62982 0.0
C295 C 0.86514 0.18586 0.60977 0.0
C296 C 0.94129 0.2106 0.62686 0.0
C297 C 0.94776 0.20128 0.66391 0.0
C298 C 1.03456 0.29611 0.79447 0.0
C299 C 1.05438 0.36835 0.77582 0.0
C300 C 0.88143 0.58073 0.12203 0.0
C301 C 0.85805 0.62207 0.14476 0.0
C302 C 0.77917 0.58367 0.15704 0.0
C303 C 0.72194 0.50711 0.14371 0.0
H304 H 0.48858 0.27579 0.14602 0.0
H305 H 0.40594 0.31892 0.17453 0.0
H306 H 0.31391 0.3506 0.07059 0.0
H307 H 0.4029 0.31409 0.04194 0.0
H308 H 0.55295 0.45929 0.99267 0.0
H309 H 0.60089 0.54242 0.93817 0.0
H310 H 0.79979 0.49385 0.9372 0.0
H311 H 0.7532 0.413 0.99186 0.0
H312 H 0.84278 0.47754 0.08869 0.0
H313 H 0.94243 0.61007 0.11239 0.0
H314 H 0.76051 0.61504 0.17467 0.0
H315 H 0.65936 0.48172 0.15081 0.0
N316 N 0.60371 0.3644 0.10298 0.0
N317 N 0.55418 0.34868 0.04309 0.0
N318 N 0.69365 0.4256 0.05705 0.0
C319 C 0.54015 0.33078 0.07856 0.0
C320 C 0.63144 0.39449 0.03225 0.0
C321 C 0.68045 0.41178 0.09245 0.0
C322 C 0.45794 0.29951 0.09194 0.0
C323 C 0.44825 0.28877 0.12914 0.0
C324 C 0.39997 0.31332 0.14563 0.0
C325 C 0.35923 0.34585 0.12469 0.0
C326 C 0.34988 0.3319 0.08742 0.0
C327 C 0.40033 0.30989 0.0709 0.0
C328 C 0.64855 0.42845 -0.00418 0.0
C329 C 0.60584 0.46516 0.98024 0.0
C330 C 0.63426 0.51414 0.94968 0.0
C331 C 0.70481 0.52561 0.93405 0.0
C332 C 0.74569 0.48659 0.94901 0.0
C333 C 0.71845 0.43938 0.97987 0.0
C334 C 0.7434 0.46968 0.11765 0.0
C335 C 0.82469 0.50492 0.10868 0.0
loop_
_geom_bond_atom_site_label_1
_geom_bond_atom_site_label_2
_geom_bond_distance
_geom_bond_site_symmetry_2
_ccdc_geom_bond_type
Tb0 C10 2.825 . S
Tb0 O11 2.347 . S
Tb0 O14 2.366 . S
Tb0 O19 2.418 . S
Tb0 O20 2.384 1_455 S
Tb0 O23 2.479 . S
Tb0 O24 2.471 . S
Eu1 O12 2.418 . S
Eu1 O13 2.384 1_655 S
Eu1 O16 2.479 . S
Eu1 O17 2.471 . S
Eu1 O18 2.347 1_655 S
Eu1 O21 2.366 . S
Eu1 C31 2.825 . S
C2 O18 1.259 . S
C2 O19 1.265 . S
C3 O20 1.255 . S
C3 O21 1.265 . S
C4 C6 1.380 . S
C4 C7 1.374 . S
C4 C10 1.507 . S
C5 C6 1.384 . S
C5 C9 1.387 . S
C5 H32 0.930 . S
C6 C4 1.380 . S
C6 C5 1.384 . S
C6 H33 0.931 . S
C7 C4 1.374 . S
C7 C8 1.390 . S
C7 H34 0.930 . S
C8 C7 1.390 . S
C8 C9 1.391 . S
C8 H35 0.930 . S
C9 C5 1.387 . S
C9 C8 1.391 . S
C10 Tb0 2.825 . S
C10 C4 1.507 . S
C10 O23 1.238 . S
C10 O24 1.247 . S
O11 Tb0 2.347 . S
O11 C15 1.259 . S
O12 Eu1 2.418 . S
O12 C15 1.265 1_655 S
O13 Eu1 2.384 1_455 S
O13 C22 1.255 . S
O14 Tb0 2.366 . S
O14 C22 1.265 . S
C15 O11 1.259 . S
C15 O12 1.265 1_455 S
O16 Eu1 2.479 . S
O16 C31 1.238 . S
O17 Eu1 2.471 . S
O17 C31 1.247 . S
O18 Eu1 2.347 1_455 S
O18 C2 1.259 . S
O19 Tb0 2.418 . S
O19 C2 1.265 . S
O20 Tb0 2.384 1_655 S
O20 C3 1.255 . S
O21 Eu1 2.366 . S
O21 C3 1.265 . S
C22 O13 1.255 . S
C22 O14 1.265 . S
O23 Tb0 2.479 . S
O23 C10 1.238 . S
O24 Tb0 2.471 . S
O24 C10 1.247 . S
C25 C28 1.380 . S
C25 C29 1.374 . S
C25 C31 1.507 . S
C26 C27 1.387 . S
C26 C30 1.391 . S
C27 C26 1.387 . S
C27 C28 1.384 . S
C27 H36 0.930 . S
C28 C25 1.380 . S
C28 C27 1.384 . S
C28 H37 0.931 . S
C29 C25 1.374 . S
C29 C30 1.390 . S
C29 H38 0.930 . S
C30 C26 1.391 . S
C30 C29 1.390 . S
C30 H39 0.930 . S
C31 Eu1 2.825 . S
C31 O16 1.238 . S
C31 O17 1.247 . S
C31 C25 1.507 . S
H32 C5 0.930 . S
H33 C6 0.931 . S
H34 C7 0.930 . S
H35 C8 0.930 . S
H36 C27 0.930 . S
H37 C28 0.931 . S
H38 C29 0.930 . S
H39 C30 0.930 . S
Tb40 C50 2.825 . S
Tb40 O51 2.347 . S
Tb40 O54 2.366 . S
Tb40 O59 2.418 . S
Tb40 O60 2.384 1_545 S
Tb40 O63 2.479 . S
Tb40 O64 2.471 . S
Eu41 O52 2.418 . S
Eu41 O53 2.384 . S
Eu41 O56 2.479 1_545 S
Eu41 O57 2.471 1_545 S
Eu41 O58 2.347 . S
Eu41 O61 2.366 1_545 S
Eu41 C71 2.825 1_545 S
C42 O58 1.259 . S
C42 O59 1.265 . S
C43 O60 1.255 . S
C43 O61 1.265 . S
C44 C46 1.380 . S
C44 C47 1.374 . S
C44 C50 1.507 . S
C45 C46 1.384 . S
C45 C49 1.387 . S
C45 H72 0.930 . S
C46 C44 1.380 . S
C46 C45 1.384 . S
C46 H73 0.931 . S
C47 C44 1.374 . S
C47 C48 1.390 . S
C47 H74 0.930 . S
C48 C47 1.390 . S
C48 C49 1.391 . S
C48 H75 0.930 . S
C49 C45 1.387 . S
C49 C48 1.391 . S
C50 Tb40 2.825 . S
C50 C44 1.507 . S
C50 O63 1.238 . S
C50 O64 1.247 . S
O51 Tb40 2.347 . S
O51 C55 1.259 . S
O52 Eu41 2.418 . S
O52 C55 1.265 . S
O53 Eu41 2.384 . S
O53 C62 1.255 . S
O54 Tb40 2.366 . S
O54 C62 1.265 . S
C55 O51 1.259 . S
C55 O52 1.265 . S
O56 Eu41 2.479 1_565 S
O56 C71 1.238 . S
O57 Eu41 2.471 1_565 S
O57 C71 1.247 . S
O58 Eu41 2.347 . S
O58 C42 1.259 . S
O59 Tb40 2.418 . S
O59 C42 1.265 . S
O60 Tb40 2.384 1_565 S
O60 C43 1.255 . S
O61 Eu41 2.366 1_565 S
O61 C43 1.265 . S
C62 O53 1.255 . S
C62 O54 1.265 . S
O63 Tb40 2.479 . S
O63 C50 1.238 . S
O64 Tb40 2.471 . S
O64 C50 1.247 . S
C65 C68 1.380 . S
C65 C69 1.374 . S
C65 C71 1.507 . S
C66 C67 1.387 . S
C66 C70 1.391 . S
C67 C66 1.387 . S
C67 C68 1.384 . S
C67 H76 0.930 . S
C68 C65 1.380 . S
C68 C67 1.384 . S
C68 H77 0.931 . S
C69 C65 1.374 . S
C69 C70 1.390 . S
C69 H78 0.930 . S
C70 C66 1.391 . S
C70 C69 1.390 . S
C70 H79 0.930 . S
C71 Eu41 2.825 1_565 S
C71 O56 1.238 . S
C71 O57 1.247 . S
C71 C65 1.507 . S
H72 C45 0.930 . S
H73 C46 0.931 . S
H74 C47 0.930 . S
H75 C48 0.930 . S
H76 C67 0.930 . S
H77 C68 0.931 . S
H78 C69 0.930 . S
H79 C70 0.930 . S
Tb80 C90 2.825 . S
Tb80 O91 2.347 . S
Tb80 O94 2.366 . S
Tb80 O99 2.418 . S
Tb80 O100 2.384 . S
Tb80 O103 2.479 . S
Tb80 O104 2.471 . S
Eu81 O92 2.418 . S
Eu81 O93 2.384 . S
Eu81 O96 2.479 . S
Eu81 O97 2.471 . S
Eu81 O98 2.347 . S
Eu81 O101 2.366 . S
Eu81 C111 2.825 . S
C82 O98 1.259 . S
C82 O99 1.265 . S
C83 O100 1.255 . S
C83 O101 1.265 . S
C84 C86 1.380 . S
C84 C87 1.374 . S
C84 C90 1.507 . S
C85 C86 1.384 . S
C85 C89 1.387 . S
C85 H112 0.930 . S
C86 C84 1.380 . S
C86 C85 1.384 . S
C86 H113 0.931 . S
C87 C84 1.374 . S
C87 C88 1.390 . S
C87 H114 0.930 . S
C88 C87 1.390 . S
C88 C89 1.391 . S
C88 H115 0.930 . S
C89 C85 1.387 . S
C89 C88 1.391 . S
C90 Tb80 2.825 . S
C90 C84 1.507 . S
C90 O103 1.238 . S
C90 O104 1.247 . S
O91 Tb80 2.347 . S
O91 C95 1.259 . S
O92 Eu81 2.418 . S
O92 C95 1.265 . S
O93 Eu81 2.384 . S
O93 C102 1.255 . S
O94 Tb80 2.366 . S
O94 C102 1.265 . S
C95 O91 1.259 . S
C95 O92 1.265 . S
O96 Eu81 2.479 . S
O96 C111 1.238 . S
O97 Eu81 2.471 . S
O97 C111 1.247 . S
O98 Eu81 2.347 . S
O98 C82 1.259 . S
O99 Tb80 2.418 . S
O99 C82 1.265 . S
O100 Tb80 2.384 . S
O100 C83 1.255 . S
O101 Eu81 2.366 . S
O101 C83 1.265 . S
C102 O93 1.255 . S
C102 O94 1.265 . S
O103 Tb80 2.479 . S
O103 C90 1.238 . S
O104 Tb80 2.471 . S
O104 C90 1.247 . S
C105 C108 1.380 . S
C105 C109 1.374 . S
C105 C111 1.507 . S
C106 C107 1.387 . S
C106 C110 1.391 . S
C107 C106 1.387 . S
C107 C108 1.384 . S
C107 H116 0.930 . S
C108 C105 1.380 . S
C108 C107 1.384 . S
C108 H117 0.931 . S
C109 C105 1.374 . S
C109 C110 1.390 . S
C109 H118 0.930 . S
C110 C106 1.391 . S
C110 C109 1.390 . S
C110 H119 0.930 . S
C111 Eu81 2.825 . S
C111 O96 1.238 . S
C111 O97 1.247 . S
C111 C105 1.507 . S
H112 C85 0.930 . S
H113 C86 0.931 . S
H114 C87 0.930 . S
H115 C88 0.930 . S
H116 C107 0.930 . S
H117 C108 0.931 . S
H118 C109 0.930 . S
H119 C110 0.930 . S
C120 C121 1.384 . S
C120 H133 0.947 . S
C120 C155 1.382 . S
C121 C120 1.384 . S
C121 C122 1.378 . S
C122 C121 1.378 . S
C122 C123 1.378 . S
C122 H134 0.952 . S
C123 C122 1.378 . S
C123 H135 0.950 . S
C123 C154 1.383 . S
H124 C143 0.947 . S
H125 C144 0.946 . S
H126 C146 0.953 . S
H127 C147 0.945 . S
H128 C149 0.952 . S
H129 C150 0.949 . S
H130 C152 0.950 . S
H131 C153 0.948 . S
H132 C155 0.951 . S
H133 C120 0.947 . S
H134 C122 0.952 . S
H135 C123 0.950 . S
N136 C139 1.382 . S
N136 C141 1.363 1_545 S
N137 C139 1.371 . S
N137 C140 1.372 . S
N138 C140 1.361 1_565 S
N138 C141 1.377 . S
C139 N136 1.382 . S
C139 N137 1.371 . S
C139 C142 1.480 . S
C140 N137 1.372 . S
C140 N138 1.361 1_545 S
C140 C148 1.457 . S
C141 N136 1.363 1_565 S
C141 N138 1.377 . S
C141 C154 1.479 . S
C142 C139 1.480 . S
C142 C143 1.383 . S
C142 C147 1.385 . S
C143 H124 0.947 . S
C143 C142 1.383 . S
C143 C144 1.388 . S
C144 H125 0.946 . S
C144 C143 1.388 . S
C144 C145 1.384 . S
C145 C144 1.384 . S
C145 C146 1.377 . S
C146 H126 0.953 . S
C146 C145 1.377 . S
C146 C147 1.369 . S
C147 H127 0.945 . S
C147 C142 1.385 . S
C147 C146 1.369 . S
C148 C140 1.457 . S
C148 C149 1.372 . S
C148 C153 1.364 1_545 S
C149 H128 0.952 . S
C149 C148 1.372 . S
C149 C150 1.389 . S
C150 H129 0.949 . S
C150 C149 1.389 . S
C150 C151 1.387 . S
C151 C150 1.387 . S
C151 C152 1.372 1_545 S
C152 H130 0.950 . S
C152 C151 1.372 1_565 S
C152 C153 1.379 . S
C153 H131 0.948 . S
C153 C148 1.364 1_565 S
C153 C152 1.379 . S
C154 C123 1.383 . S
C154 C141 1.479 . S
C154 C155 1.398 . S
C155 C120 1.382 . S
C155 H132 0.951 . S
C155 C154 1.398 . S
C156 C157 1.384 . S
C156 H169 0.947 . S
C156 C191 1.382 . S
C157 C156 1.384 . S
C157 C158 1.378 . S
C158 C157 1.378 . S
C158 C159 1.378 . S
C158 H170 0.952 . S
C159 C158 1.378 . S
C159 H171 0.950 . S
C159 C190 1.383 . S
H160 C179 0.947 . S
H161 C180 0.946 . S
H162 C182 0.953 . S
H163 C183 0.945 . S
H164 C185 0.952 . S
H165 C186 0.949 . S
H166 C188 0.950 . S
H167 C189 0.948 . S
H168 C191 0.951 . S
H169 C156 0.947 . S
H170 C158 0.952 . S
H171 C159 0.950 . S
N172 C175 1.382 . S
N172 C177 1.363 . S
N173 C175 1.371 . S
N173 C176 1.372 . S
N174 C176 1.361 . S
N174 C177 1.377 . S
C175 N172 1.382 . S
C175 N173 1.371 . S
C175 C178 1.480 . S
C176 N173 1.372 . S
C176 N174 1.361 . S
C176 C184 1.457 . S
C177 N172 1.363 . S
C177 N174 1.377 . S
C177 C190 1.479 . S
C178 C175 1.480 . S
C178 C179 1.383 . S
C178 C183 1.385 . S
C179 H160 0.947 . S
C179 C178 1.383 . S
C179 C180 1.388 . S
C180 H161 0.946 . S
C180 C179 1.388 . S
C180 C181 1.384 . S
C181 C180 1.384 . S
C181 C182 1.377 . S
C182 H162 0.953 . S
C182 C181 1.377 . S
C182 C183 1.369 . S
C183 H163 0.945 . S
C183 C178 1.385 . S
C183 C182 1.369 . S
C184 C176 1.457 . S
C184 C185 1.372 . S
C184 C189 1.364 . S
C185 H164 0.952 . S
C185 C184 1.372 . S
C185 C186 1.389 . S
C186 H165 0.949 . S
C186 C185 1.389 . S
C186 C187 1.387 . S
C187 C186 1.387 . S
C187 C188 1.372 . S
C188 H166 0.950 . S
C188 C187 1.372 . S
C188 C189 1.379 . S
C189 H167 0.948 . S
C189 C184 1.364 . S
C189 C188 1.379 . S
C190 C159 1.383 . S
C190 C177 1.479 . S
C190 C191 1.398 . S
C191 C156 1.382 . S
C191 H168 0.951 . S
C191 C190 1.398 . S
C192 C193 1.384 . S
C192 H205 0.947 . S
C192 C227 1.382 . S
C193 C192 1.384 . S
C193 C194 1.378 . S
C194 C193 1.378 . S
C194 C195 1.378 . S
C194 H206 0.952 . S
C195 C194 1.378 . S
C195 H207 0.950 . S
C195 C226 1.383 . S
H196 C215 0.947 . S
H197 C216 0.946 . S
H198 C218 0.953 . S
H199 C219 0.945 . S
H200 C221 0.952 1_556 S
H201 C222 0.949 . S
H202 C224 0.950 . S
H203 C225 0.939 1_556 S
H204 C227 0.951 . S
H205 C192 0.947 . S
H206 C194 0.952 . S
H207 C195 0.950 . S
N208 C211 1.382 . S
N208 C213 1.363 1_455 S
N209 C211 1.371 . S
N209 C212 1.372 . S
N210 C212 1.361 1_655 S
N210 C213 1.377 . S
C211 N208 1.382 . S
C211 N209 1.371 . S
C211 C214 1.480 . S
C212 N209 1.372 . S
C212 N210 1.361 1_455 S
C212 C220 1.457 . S
C213 N208 1.363 1_655 S
C213 N210 1.377 . S
C213 C226 1.479 . S
C214 C211 1.480 . S
C214 C215 1.383 . S
C214 C219 1.385 . S
C215 H196 0.947 . S
C215 C214 1.383 . S
C215 C216 1.388 . S
C216 H197 0.946 . S
C216 C215 1.388 . S
C216 C217 1.384 . S
C217 C216 1.384 . S
C217 C218 1.377 . S
C218 H198 0.953 . S
C218 C217 1.377 . S
C218 C219 1.369 . S
C219 H199 0.945 . S
C219 C214 1.385 . S
C219 C218 1.369 . S
C220 C212 1.457 . S
C220 C221 1.372 1_556 S
C220 C225 1.355 1_456 S
C221 H200 0.952 1_554 S
C221 C220 1.372 1_554 S
C221 C222 1.389 . S
C222 H201 0.949 . S
C222 C221 1.389 . S
C222 C223 1.387 . S
C223 C222 1.387 . S
C223 C224 1.372 1_455 S
C224 H202 0.950 . S
C224 C223 1.372 1_655 S
C224 C225 1.397 . S
C225 H203 0.939 1_554 S
C225 C220 1.355 1_654 S
C225 C224 1.397 . S
C226 C195 1.383 . S
C226 C213 1.479 . S
C226 C227 1.398 . S
C227 C192 1.382 . S
C227 H204 0.951 . S
C227 C226 1.398 . S
C228 C229 1.384 . S
C228 H241 0.947 . S
C228 C263 1.382 . S
C229 C228 1.384 . S
C229 C230 1.378 . S
C230 C229 1.378 . S
C230 C231 1.378 . S
C230 H242 0.952 . S
C231 C230 1.378 . S
C231 H243 0.950 . S
C231 C262 1.383 . S
H232 C251 0.947 . S
H233 C252 0.946 . S
H234 C254 0.953 . S
H235 C255 0.945 . S
H236 C257 0.952 . S
H237 C258 0.949 . S
H238 C260 0.950 . S
H239 C261 0.948 . S
H240 C263 0.951 . S
H241 C228 0.947 . S
H242 C230 0.952 . S
H243 C231 0.950 . S
N244 C247 1.382 1_455 S
N244 C249 1.363 . S
N245 C247 1.371 . S
N245 C248 1.372 1_655 S
N246 C248 1.361 . S
N246 C249 1.377 . S
C247 N244 1.382 1_655 S
C247 N245 1.371 . S
C247 C250 1.480 . S
C248 N245 1.372 1_455 S
C248 N246 1.361 . S
C248 C256 1.457 . S
C249 N244 1.363 . S
C249 N246 1.377 . S
C249 C262 1.479 . S
C250 C247 1.480 . S
C250 C251 1.383 . S
C250 C255 1.385 . S
C251 H232 0.947 . S
C251 C250 1.383 . S
C251 C252 1.388 . S
C252 H233 0.946 . S
C252 C251 1.388 . S
C252 C253 1.384 . S
C253 C252 1.384 . S
C253 C254 1.377 . S
C254 H234 0.953 . S
C254 C253 1.377 . S
C254 C255 1.369 . S
C255 H235 0.945 . S
C255 C250 1.385 . S
C255 C254 1.369 . S
C256 C248 1.457 . S
C256 C257 1.372 1_455 S
C256 C261 1.364 . S
C257 H236 0.952 . S
C257 C256 1.372 1_655 S
C257 C258 1.389 . S
C258 H237 0.949 . S
C258 C257 1.389 . S
C258 C259 1.387 1_655 S
C259 C258 1.387 1_455 S
C259 C260 1.372 . S
C260 H238 0.950 . S
C260 C259 1.372 . S
C260 C261 1.379 . S
C261 H239 0.948 . S
C261 C256 1.364 . S
C261 C260 1.379 . S
C262 C231 1.383 . S
C262 C249 1.479 . S
C262 C263 1.398 . S
C263 C228 1.382 . S
C263 H240 0.951 . S
C263 C262 1.398 . S
C264 C265 1.384 . S
C264 H277 0.947 . S
C264 C299 1.382 . S
C265 C264 1.384 . S
C265 C266 1.378 . S
C266 C265 1.378 . S
C266 C267 1.378 . S
C266 H278 0.952 . S
C267 C266 1.378 . S
C267 H279 0.950 . S
C267 C298 1.383 . S
H268 C287 0.947 . S
H269 C288 0.946 . S
H270 C290 0.953 . S
H271 C291 0.945 . S
H272 C293 0.952 . S
H273 C294 0.949 . S
H274 C296 0.950 . S
H275 C297 0.948 . S
H276 C299 0.951 . S
H277 C264 0.947 . S
H278 C266 0.952 . S
H279 C267 0.950 . S
N280 C283 1.382 1_545 S
N280 C285 1.363 . S
N281 C283 1.371 . S
N281 C284 1.372 1_565 S
N282 C284 1.361 . S
N282 C285 1.377 . S
C283 N280 1.382 1_565 S
C283 N281 1.371 . S
C283 C286 1.480 . S
C284 N281 1.372 1_545 S
C284 N282 1.361 . S
C284 C292 1.457 . S
C285 N280 1.363 . S
C285 N282 1.377 . S
C285 C298 1.479 . S
C286 C283 1.480 . S
C286 C287 1.383 . S
C286 C291 1.385 . S
C287 H268 0.947 . S
C287 C286 1.383 . S
C287 C288 1.388 . S
C288 H269 0.946 . S
C288 C287 1.388 . S
C288 C289 1.384 . S
C289 C288 1.384 . S
C289 C290 1.377 . S
C290 H270 0.953 . S
C290 C289 1.377 . S
C290 C291 1.369 . S
C291 H271 0.945 . S
C291 C286 1.385 . S
C291 C290 1.369 . S
C292 C284 1.457 . S
C292 C293 1.372 1_545 S
C292 C297 1.364 . S
C293 H272 0.952 . S
C293 C292 1.372 1_565 S
C293 C294 1.389 . S
C294 H273 0.949 . S
C294 C293 1.389 . S
C294 C295 1.387 1_565 S
C295 C294 1.387 1_545 S
C295 C296 1.372 . S
C296 H274 0.950 . S
C296 C295 1.372 . S
C296 C297 1.379 . S
C297 H275 0.948 . S
C297 C292 1.364 . S
C297 C296 1.379 . S
C298 C267 1.383 . S
C298 C285 1.479 . S
C298 C299 1.398 . S
C299 C264 1.382 . S
C299 H276 0.951 . S
C299 C298 1.398 . S
C300 C301 1.384 . S
C300 H313 0.947 . S
C300 C335 1.382 . S
C301 C300 1.384 . S
C301 C302 1.378 . S
C302 C301 1.378 . S
C302 C303 1.378 . S
C302 H314 0.952 . S
C303 C302 1.378 . S
C303 H315 0.950 . S
C303 C334 1.383 . S
H304 C323 0.947 . S
H305 C324 0.946 . S
H306 C326 0.953 . S
H307 C327 0.945 . S
H308 C329 0.952 . S
H309 C330 0.949 . S
H310 C332 0.950 . S
H311 C333 0.948 . S
H312 C335 0.951 . S
H313 C300 0.947 . S
H314 C302 0.952 . S
H315 C303 0.950 . S
N316 C319 1.382 . S
N316 C321 1.363 . S
N317 C319 1.371 . S
N317 C320 1.372 . S
N318 C320 1.361 . S
N318 C321 1.377 . S
C319 N316 1.382 . S
C319 N317 1.371 . S
C319 C322 1.480 . S
C320 N317 1.372 . S
C320 N318 1.361 . S
C320 C328 1.457 1_554 S
C321 N316 1.363 . S
C321 N318 1.377 . S
C321 C334 1.479 . S
C322 C319 1.480 . S
C322 C323 1.383 . S
C322 C327 1.385 . S
C323 H304 0.947 . S
C323 C322 1.383 . S
C323 C324 1.388 . S
C324 H305 0.946 . S
C324 C323 1.388 . S
C324 C325 1.384 . S
C325 C324 1.384 . S
C325 C326 1.377 . S
C326 H306 0.953 . S
C326 C325 1.377 . S
C326 C327 1.369 . S
C327 H307 0.945 . S
C327 C322 1.385 . S
C327 C326 1.369 . S
C328 C320 1.457 1_556 S
C328 C329 1.372 . S
C328 C333 1.364 . S
C329 H308 0.952 . S
C329 C328 1.372 . S
C329 C330 1.389 . S
C330 H309 0.949 . S
C330 C329 1.389 . S
C330 C331 1.387 . S
C331 C330 1.387 . S
C331 C332 1.372 . S
C332 H310 0.950 . S
C332 C331 1.372 . S
C332 C333 1.379 . S
C333 H311 0.948 . S
C333 C328 1.364 . S
C333 C332 1.379 . S
C334 C303 1.383 . S
C334 C321 1.479 . S
C334 C335 1.398 . S
C335 C300 1.382 . S
C335 H312 0.951 . S
C335 C334 1.398 . S
C9 C325 2.333 . S
C49 C253 2.015 . S
C89 C289 2.024 . S
C26 C301 2.101 . S
C229 C66 2.018 . S
C265 C106 2.243 . S
C43 C181 4.745 . S
C83 C193 5.009 . S
C22 C121 5.101 . S
C157 C62 5.101 . S
C217 C102 4.834 . S
C3 C145 4.748 . S
C223 C15 2.075 . S
C55 C151 2.107 . S
C95 C187 2.090 . S
C295 C42 1.302 . S
C331 C82 1.427 . S
C2 C259 1.137 . S
