# Generated by pormake.
# Topology zzz, (3,6)-cn, num edge types: 1
# Building blocks:
#     Node 0, Type 0, BuildingBlock: BETDAH_clean_linker_0, # of connection points: 3
#     Node 1, Type 0, BuildingBlock: BETDAH_clean_linker_0, # of connection points: 3
#     Node 2, Type 0, BuildingBlock: BETDAH_clean_linker_0, # of connection points: 3
#     Node 3, Type 0, BuildingBlock: BETDAH_clean_linker_0, # of connection points: 3
#     Node 4, Type 0, BuildingBlock: BETDAH_clean_linker_0, # of connection points: 3
#     Node 5, Type 0, BuildingBlock: BETDAH_clean_linker_0, # of connection points: 3
#     Node 6, Type 0, BuildingBlock: BETDAH_clean_linker_0, # of connection points: 3
#     Node 7, Type 0, BuildingBlock: BETDAH_clean_linker_0, # of connection points: 3
#     Node 8, Type 1, BuildingBlock: PAMTOO_clean_sbu_0, # of connection points: 6
#     Node 9, Type 1, BuildingBlock: PAMTOO_clean_sbu_0, # of connection points: 6
#     Node 10, Type 1, BuildingBlock: PAMTOO_clean_sbu_0, # of connection points: 6
#     Node 11, Type 1, BuildingBlock: PAMTOO_clean_sbu_0, # of connection points: 6
#     Edge 12, Type (0, 1), BuildingBlock: KIFKEQ_clean_linker_1, # of connection points: 2
#     Edge 13, Type (0, 1), BuildingBlock: KIFKEQ_clean_linker_1, # of connection points: 2
#     Edge 14, Type (0, 1), BuildingBlock: KIFKEQ_clean_linker_1, # of connection points: 2
#     Edge 15, Type (0, 1), BuildingBlock: KIFKEQ_clean_linker_1, # of connection points: 2
#     Edge 16, Type (0, 1), BuildingBlock: KIFKEQ_clean_linker_1, # of connection points: 2
#     Edge 17, Type (0, 1), BuildingBlock: KIFKEQ_clean_linker_1, # of connection points: 2
#     Edge 18, Type (0, 1), BuildingBlock: KIFKEQ_clean_linker_1, # of connection points: 2
#     Edge 19, Type (0, 1), BuildingBlock: KIFKEQ_clean_linker_1, # of connection points: 2
#     Edge 20, Type (0, 1), BuildingBlock: KIFKEQ_clean_linker_1, # of connection points: 2
#     Edge 21, Type (0, 1), BuildingBlock: KIFKEQ_clean_linker_1, # of connection points: 2
#     Edge 22, Type (0, 1), BuildingBlock: KIFKEQ_clean_linker_1, # of connection points: 2
#     Edge 23, Type (0, 1), BuildingBlock: KIFKEQ_clean_linker_1, # of connection points: 2
#     Edge 24, Type (0, 1), BuildingBlock: KIFKEQ_clean_linker_1, # of connection points: 2
#     Edge 25, Type (0, 1), BuildingBlock: KIFKEQ_clean_linker_1, # of connection points: 2
#     Edge 26, Type (0, 1), BuildingBlock: KIFKEQ_clean_linker_1, # of connection points: 2
#     Edge 27, Type (0, 1), BuildingBlock: KIFKEQ_clean_linker_1, # of connection points: 2
#     Edge 28, Type (0, 1), BuildingBlock: KIFKEQ_clean_linker_1, # of connection points: 2
#     Edge 29, Type (0, 1), BuildingBlock: KIFKEQ_clean_linker_1, # of connection points: 2
#     Edge 30, Type (0, 1), BuildingBlock: KIFKEQ_clean_linker_1, # of connection points: 2
#     Edge 31, Type (0, 1), BuildingBlock: KIFKEQ_clean_linker_1, # of connection points: 2
#     Edge 32, Type (0, 1), BuildingBlock: KIFKEQ_clean_linker_1, # of connection points: 2
#     Edge 33, Type (0, 1), BuildingBlock: KIFKEQ_clean_linker_1, # of connection points: 2
#     Edge 34, Type (0, 1), BuildingBlock: KIFKEQ_clean_linker_1, # of connection points: 2
#     Edge 35, Type (0, 1), BuildingBlock: KIFKEQ_clean_linker_1, # of connection points: 2
# Relax obj value: 0.217
# Max RMSD: 0.237
# Mean RMSD: 0.126
data_MOF--net-zzz--node1-PAMTOO_clean_sbu_0--node2-BETDAH_clean_linker_0--edge1-KIFKEQ_clean_linker_1
_symmetry_space_group_name_H-M    P1
_symmetry_Int_Tables_number       1
_symmetry_cell_setting            triclinic
loop_
_symmetry_equiv_pos_as_xyz
'x, y, z'
_cell_length_a     57.348367
_cell_length_b     50.300792
_cell_length_c     16.35989
_cell_angle_alpha  91.954744
_cell_angle_beta   80.699929
_cell_angle_gamma 85.852366
loop_
_atom_site_label
_atom_site_type_symbol
_atom_site_fract_x
_atom_site_fract_y
_atom_site_fract_z
_atom_type_partial_charge
H0 H 0.85071 0.47125 0.48961 0.0
H1 H 0.78717 0.49159 0.39235 0.0
H2 H 0.80567 0.54077 0.59006 0.0
C3 C 0.83437 0.48383 0.49302 0.0
C4 C 0.82996 0.50612 0.54882 0.0
C5 C 0.81908 0.47861 0.43674 0.0
C6 C 0.79869 0.49565 0.43684 0.0
C7 C 0.79354 0.51805 0.49247 0.0
C8 C 0.80939 0.52333 0.54794 0.0
N9 N 0.77292 0.53574 0.49238 0.0
C10 C 0.75669 0.53263 0.43806 0.0
H11 H 0.98484 0.80077 0.44192 0.0
H12 H 0.99486 0.72063 0.33974 0.0
H13 H 1.01607 0.73934 0.57549 0.0
C14 C 0.98971 0.7798 0.44875 0.0
C15 C 0.99976 0.7723 0.51775 0.0
C16 C 0.98838 0.76135 0.38404 0.0
C17 C 0.99592 0.73458 0.39048 0.0
C18 C 1.00562 0.72623 0.46008 0.0
C19 C 1.00784 0.74536 0.5232 0.0
N20 N 1.01415 0.69913 0.46588 0.0
C21 C 1.01444 0.67952 0.403 0.0
H22 H 0.71978 0.0327 0.3228 0.0
H23 H 0.7916 0.02717 0.19299 0.0
H24 H 0.77336 0.98441 0.41635 0.0
C25 C 0.73825 0.02544 0.31857 0.0
C26 C 0.74448 0.00818 0.37782 0.0
C27 C 0.755 0.03239 0.25194 0.0
C28 C 0.77872 0.02199 0.24483 0.0
C29 C 0.78564 0.00489 0.30473 0.0
C30 C 0.76829 0.99788 0.37083 0.0
N31 N 0.80964 0.99422 0.3002 0.0
C32 C 0.82886 0.99891 0.23907 0.0
H33 H 0.51158 0.67469 0.24907 0.0
H34 H 0.52454 0.74686 0.12263 0.0
H35 H 0.54258 0.73766 0.36718 0.0
C36 C 0.51726 0.69481 0.24939 0.0
C37 C 0.52673 0.70437 0.3172 0.0
C38 C 0.51646 0.70985 0.1794 0.0
C39 C 0.52479 0.73545 0.17748 0.0
C40 C 0.53384 0.74586 0.24621 0.0
C41 C 0.5352 0.72995 0.31506 0.0
N42 N 0.54217 0.77186 0.24797 0.0
C43 C 0.53967 0.79118 0.18998 0.0
H44 H 0.21368 0.46857 0.04999 0.0
H45 H 0.28064 0.47735 0.12837 0.0
H46 H 0.2663 0.50999 0.89915 0.0
C47 C 0.23171 0.47443 0.03718 0.0
C48 C 0.23843 0.48858 0.96625 0.0
C49 C 0.24665 0.47076 0.09647 0.0
C50 C 0.26936 0.47994 0.08171 0.0
C51 C 0.27682 0.49388 0.01017 0.0
C52 C 0.26116 0.49827 0.9525 0.0
N53 N 0.29924 0.50506 -0.00193 0.0
C54 C 0.3143 0.50494 0.05746 0.0
H55 H 1.00756 0.22187 0.15347 0.0
H56 H 1.02038 0.29687 0.26495 0.0
H57 H 0.06178 0.2677 0.03083 0.0
C58 C 1.01652 0.24016 0.15065 0.0
C59 C 0.03447 0.24297 0.08352 0.0
C60 C 1.01146 0.25925 0.21697 0.0
C61 C 1.02427 0.28207 0.21407 0.0
C62 C 0.0424 0.28539 0.1467 0.0
C63 C 0.04752 0.26559 0.08185 0.0
N64 N 0.05618 0.30789 0.14371 0.0
C65 C 0.05413 0.3275 0.20742 0.0
H66 H 0.34304 0.97819 0.24412 0.0
H67 H 0.27099 0.99203 0.36689 0.0
H68 H 0.29407 0.02929 0.13633 0.0
C69 C 0.32523 0.98721 0.24476 0.0
C70 C 0.32089 0.00396 0.18156 0.0
C71 C 0.30744 0.98305 0.31141 0.0
C72 C 0.28452 0.99518 0.31456 0.0
C73 C 0.27932 0.01154 0.25054 0.0
C74 C 0.29779 0.01632 0.18492 0.0
N75 N 0.25597 0.02363 0.25084 0.0
C76 C 0.23573 0.0192 0.30793 0.0
H77 H 0.5311 0.33348 0.30666 0.0
H78 H 0.53189 0.25739 0.4182 0.0
H79 H 0.5168 0.26412 0.1686 0.0
C80 C 0.52922 0.31216 0.30242 0.0
C81 C 0.52354 0.30077 0.23004 0.0
C82 C 0.53238 0.29669 0.36972 0.0
C83 C 0.52967 0.26917 0.3654 0.0
C84 C 0.52404 0.25718 0.29243 0.0
C85 C 0.52115 0.27316 0.22472 0.0
N86 N 0.52101 0.22936 0.28472 0.0
C87 C 0.52228 0.21102 0.34647 0.0
Dy88 Dy 1.01956 0.01831 0.7022 0.0
Dy89 Dy 0.04559 0.99634 0.85126 0.0
C90 C 0.07627 0.00709 0.67712 0.0
O91 O 1.01396 0.97465 0.70066 0.0
O92 O 0.04354 0.96 0.77089 0.0
O93 O 1.02057 0.03638 0.58405 0.0
O94 O 0.98727 0.02548 0.65127 0.0
O95 O 1.00684 0.99042 0.88514 0.0
O96 O 0.99358 0.02624 0.82067 0.0
O97 O 0.04139 0.04055 0.87759 0.0
O98 O 0.03349 0.05476 0.75225 0.0
O99 O 0.04774 0.99705 0.98173 0.0
O100 O 0.07124 0.96938 0.89636 0.0
C101 C 0.02736 0.95518 0.72527 0.0
O102 O 0.05704 0.00408 0.6441 0.0
O103 O 0.07497 0.00967 0.75805 0.0
C104 C 0.98734 0.06613 0.58518 0.0
C105 C 0.97402 0.12014 0.56619 0.0
C106 C 0.98234 0.11219 0.63839 0.0
C107 C 0.98877 0.08535 0.64808 0.0
C108 C 0.97796 0.07376 0.51489 0.0
C109 C 0.97117 0.10063 0.50565 0.0
C110 C 0.99756 0.0388 0.59052 0.0
C111 C 0.98974 0.00839 0.87694 0.0
C112 C 0.03884 0.05964 0.82607 0.0
C113 C 0.05142 0.95205 0.0177 0.0
C114 C 0.0286 0.9063 0.06992 0.0
C115 C 1.01654 0.93173 0.08479 0.0
C116 C 0.02781 0.95434 0.05917 0.0
C117 C 0.06385 0.92675 0.00633 0.0
C118 C 0.05253 0.90406 0.03207 0.0
C119 C 0.06133 0.97482 0.97331 0.0
H120 H 0.98469 0.12686 0.68583 0.0
H121 H 0.99575 0.07972 0.70319 0.0
H122 H 0.97677 0.05915 0.46582 0.0
H123 H 0.96509 0.10634 0.44893 0.0
H124 H 0.99807 0.93411 0.11347 0.0
H125 H 1.01754 0.97345 0.0684 0.0
H126 H 0.08199 0.92441 0.97414 0.0
H127 H 0.0624 0.88473 0.0214 0.0
Dy128 Dy 0.52643 0.98551 0.70358 0.0
Dy129 Dy 0.5406 0.02115 0.85528 0.0
C130 C 0.52907 0.04806 0.69158 0.0
O131 O 0.56441 0.99259 0.65781 0.0
O132 O 0.57532 1.00304 0.78328 0.0
O133 O 0.51932 0.97938 0.57872 0.0
O134 O 0.51649 0.94727 0.6635 0.0
O135 O 0.53069 0.98192 0.90598 0.0
O136 O 0.54349 0.9579 0.78517 0.0
O137 O 0.50064 0.02684 0.87851 0.0
O138 O 0.49291 0.99167 0.79615 0.0
O139 O 0.55675 0.02319 0.96522 0.0
O140 O 0.54277 0.05944 0.9169 0.0
C141 C 0.58087 0.99674 0.70327 0.0
O142 O 0.51613 0.02817 0.68001 0.0
O143 O 0.54395 0.04634 0.74451 0.0
C144 C 0.48783 0.95183 0.57808 0.0
C145 C 0.44108 0.94266 0.55898 0.0
C146 C 0.4458 0.96579 0.60228 0.0
C147 C 0.46894 0.97028 0.6119 0.0
C148 C 0.4833 0.92861 0.53566 0.0
C149 C 0.4601 0.92405 0.52603 0.0
C150 C 0.51187 0.95582 0.59321 0.0
C151 C 0.53761 0.95892 0.86613 0.0
C152 C 0.48574 0.01072 0.85373 0.0
C153 C 0.5789 0.0602 0.96761 0.0
C154 C 0.62561 0.07263 0.97434 0.0
C155 C 0.61969 0.06219 0.90037 0.0
C156 C 0.59645 0.05624 0.89686 0.0
C157 C 0.58443 0.07192 0.04021 0.0
C158 C 0.60762 0.07831 0.0434 0.0
C159 C 0.55587 0.04919 0.96789 0.0
H160 H 0.43168 0.98075 0.62724 0.0
H161 H 0.47209 0.98817 0.6459 0.0
H162 H 0.49766 0.91393 0.51058 0.0
H163 H 0.45704 0.90593 0.49307 0.0
H164 H 0.63322 0.05766 0.84634 0.0
H165 H 0.59241 0.04739 0.84007 0.0
H166 H 0.57111 0.075 0.09543 0.0
H167 H 0.61181 0.08606 0.10146 0.0
Dy168 Dy 0.55665 0.50702 0.79952 0.0
Dy169 Dy 0.50275 0.49802 0.74248 0.0
C170 C 0.52401 0.462 0.88382 0.0
O171 O 0.56025 0.46842 0.72579 0.0
O172 O 0.53318 0.48225 0.64688 0.0
O173 O 0.59426 0.49656 0.7981 0.0
O174 O 0.57733 0.5333 0.86021 0.0
O175 O 0.51262 0.53623 0.68843 0.0
O176 O 0.55288 0.53385 0.69311 0.0
O177 O 0.49748 0.5356 0.82252 0.0
O178 O 0.52794 0.52664 0.89512 0.0
O179 O 0.46419 0.50157 0.75196 0.0
O180 O 0.48624 0.47757 0.65232 0.0
C181 C 0.5491 0.46418 0.66348 0.0
O182 O 0.54322 0.47509 0.88167 0.0
O183 O 0.50725 0.46807 0.83922 0.0
C184 C 0.61142 0.51444 0.91061 0.0
C185 C 0.64164 0.51453 0.03255 0.0
C186 C 0.61697 0.52057 0.0548 0.0
C187 C 0.60204 0.52053 -0.0054 0.0
C188 C 0.63588 0.50775 0.88864 0.0
C189 C 0.65079 0.50774 0.94866 0.0
C190 C 0.59674 0.51756 0.84398 0.0
C191 C 0.5336 0.54553 0.67105 0.0
C192 C 0.5097 0.542 0.88068 0.0
C193 C 0.449 0.49547 0.62388 0.0
C194 C 0.41857 0.50236 0.5036 0.0
C195 C 0.44313 0.5048 0.48269 0.0
C196 C 0.45815 0.50139 0.542 0.0
C197 C 0.42443 0.4941 0.64576 0.0
C198 C 0.40941 0.49757 0.5866 0.0
C199 C 0.46481 0.48712 0.68362 0.0
H200 H 0.60917 0.52551 0.11878 0.0
H201 H 0.58325 0.52583 0.0136 0.0
H202 H 0.64362 0.50328 0.82429 0.0
H203 H 0.66964 0.50332 0.92861 0.0
H204 H 0.45098 0.50823 0.41956 0.0
H205 H 0.47704 0.50241 0.52289 0.0
H206 H 0.41691 0.48943 0.70821 0.0
H207 H 0.39059 0.49608 0.60579 0.0
Dy208 Dy 0.03599 0.53204 0.72503 0.0
Dy209 Dy 1.02414 0.4855 0.85446 0.0
C210 C 0.04019 0.47123 0.66287 0.0
O211 O 0.99644 0.53684 0.75682 0.0
O212 O 0.99106 0.49438 0.79946 0.0
O213 O 0.03135 0.55196 0.61291 0.0
O214 O 0.0571 0.5646 0.686 0.0
O215 O 1.01147 0.52336 0.93023 0.0
O216 O 0.03322 0.55234 0.84995 0.0
O217 O 0.06043 0.49659 0.86918 0.0
O218 O 0.07087 0.51031 0.73776 0.0
O219 O 1.01722 0.46979 0.97677 0.0
O220 O 1.01867 0.44383 0.86795 0.0
C221 C 0.98281 0.51713 0.77332 0.0
O222 O 0.03217 0.49538 0.64897 0.0
O223 O 0.0442 0.46538 0.73705 0.0
C224 C 0.07045 0.55577 0.54457 0.0
C225 C 0.11181 0.52708 0.4606 0.0
C226 C 0.08942 0.5188 0.45234 0.0
C227 C 0.06894 0.53306 0.49355 0.0
C228 C 0.0927 0.56559 0.54574 0.0
C229 C 0.11324 0.55129 0.50433 0.0
C230 C 0.05084 0.56386 0.61282 0.0
C231 C 1.02073 0.54647 0.92069 0.0
C232 C 0.07675 0.50279 0.80836 0.0
C233 C 0.99067 0.43623 0.9827 0.0
C234 C 0.94683 0.41761 0.04905 0.0
C235 C 0.94778 0.44034 0.00123 0.0
C236 C 0.9695 0.44957 0.96854 0.0
C237 C 0.98997 0.41311 0.02805 0.0
C238 C 0.96816 0.40387 0.06131 0.0
C239 C 1.01334 0.44627 0.94831 0.0
H240 H 0.0877 0.50028 0.41884 0.0
H241 H 0.05211 0.52484 0.49108 0.0
H242 H 0.09437 0.583 0.58461 0.0
H243 H 0.13029 0.55855 0.50966 0.0
H244 H 0.93172 0.45175 -0.00786 0.0
H245 H 0.96982 0.46745 0.93349 0.0
H246 H 1.00624 0.40245 0.03866 0.0
H247 H 0.96796 0.38631 0.09786 0.0
H248 H 0.22787 0.9951 0.45568 0.0
H249 H 0.19244 0.0374 0.28045 0.0
H250 H 0.18956 0.99102 0.54419 0.0
H251 H 0.15419 0.03399 0.36891 0.0
H252 H 0.08673 1.00247 0.50649 0.0
H253 H 0.12513 0.00424 0.41806 0.0
H254 H 0.15791 0.01565 0.63511 0.0
H255 H 0.11966 0.0133 0.72337 0.0
C256 C 0.21184 0.00356 0.43629 0.0
C257 C 0.21307 0.01652 0.36124 0.0
C258 C 0.18984 1.0014 0.48719 0.0
C259 C 0.1685 0.01213 0.46421 0.0
C260 C 0.16999 0.02506 0.38857 0.0
C261 C 0.19197 0.0272 0.33792 0.0
C262 C 0.10212 0.00527 0.53551 0.0
C263 C 0.09989 0.00774 0.62248 0.0
C264 C 0.12423 0.00647 0.48458 0.0
C265 C 0.14489 0.01018 0.51885 0.0
C266 C 0.14264 0.01242 0.60593 0.0
C267 C 0.12054 0.01123 0.65681 0.0
H268 H 0.56063 0.18785 0.40117 0.0
H269 H 0.48521 0.18478 0.41589 0.0
H270 H 0.56199 0.14867 0.48574 0.0
H271 H 0.48624 0.14591 0.50187 0.0
H272 H 0.50125 0.05921 0.57271 0.0
H273 H 0.49942 0.09918 0.49256 0.0
H274 H 0.55103 0.13289 0.62233 0.0
H275 H 0.5532 0.09284 0.70102 0.0
C276 C 0.5443 0.17896 0.42373 0.0
C277 C 0.52281 0.18934 0.40278 0.0
C278 C 0.54501 0.15653 0.47235 0.0
C279 C 0.52422 0.14391 0.50083 0.0
C280 C 0.50266 0.15474 0.48032 0.0
C281 C 0.50199 0.17718 0.43178 0.0
C282 C 0.51219 0.07515 0.58424 0.0
C283 C 0.52741 0.07264 0.6434 0.0
C284 C 0.51104 0.09822 0.53853 0.0
C285 C 0.52509 0.11943 0.5506 0.0
C286 C 0.54019 0.11692 0.61019 0.0
C287 C 0.54133 0.0939 0.65584 0.0
H288 H 0.33055 0.46213 0.1331 0.0
H289 H 0.33193 0.54749 0.12457 0.0
H290 H 0.35584 0.46173 0.24029 0.0
H291 H 0.35677 0.54748 0.2332 0.0
H292 H 0.42035 0.53468 0.36999 0.0
H293 H 0.39572 0.53508 0.2616 0.0
H294 H 0.35574 0.4738 0.38262 0.0
H295 H 0.381 0.47253 0.48862 0.0
C296 C 0.33629 0.48082 0.15452 0.0
C297 C 0.32944 0.50481 0.12071 0.0
C298 C 0.35063 0.48068 0.2164 0.0
C299 C 0.35843 0.5046 0.24606 0.0
C300 C 0.35147 0.52862 0.21149 0.0
C301 C 0.33712 0.52871 0.14956 0.0
C302 C 0.40644 0.52113 0.37328 0.0
C303 C 0.4028 0.50358 0.43865 0.0
C304 C 0.39207 0.52157 0.31138 0.0
C305 C 0.37363 0.50445 0.31277 0.0
C306 C 0.3699 0.48706 0.37845 0.0
C307 C 0.38424 0.48661 0.44026 0.0
H308 H 0.03782 0.3236 0.3707 0.0
H309 H 0.06738 0.3776 0.19019 0.0
H310 H 0.03525 0.35849 0.48055 0.0
H311 H 0.06551 0.41246 0.29978 0.0
H312 H 0.03401 0.4766 0.50158 0.0
H313 H 0.03772 0.4419 0.39187 0.0
H314 H 0.05894 0.38355 0.55888 0.0
H315 H 0.05465 0.41822 0.66944 0.0
C316 C 0.04382 0.34299 0.35484 0.0
C317 C 0.05268 0.34811 0.27244 0.0
C318 C 0.04256 0.36293 0.41771 0.0
C319 C 0.0502 0.38839 0.39936 0.0
C320 C 0.05916 0.39329 0.31629 0.0
C321 C 0.06036 0.37333 0.25352 0.0
C322 C 0.03955 0.4564 0.515 0.0
C323 C 0.04393 0.45024 0.59468 0.0
C324 C 0.04182 0.43646 0.45173 0.0
C325 C 0.04855 0.4098 0.46627 0.0
C326 C 0.05333 0.40374 0.54563 0.0
C327 C 0.05105 0.4237 0.60898 0.0
H328 H 0.84857 0.04404 0.18362 0.0
H329 H 0.85933 0.95828 0.16723 0.0
H330 H 0.88727 0.04697 0.0961 0.0
H331 H 0.89771 0.96089 0.07873 0.0
H332 H 0.97583 0.97411 -0.00054 0.0
H333 H 0.93699 0.97249 0.08426 0.0
H334 H 0.91011 0.03941 0.959 0.0
H335 H 0.94925 0.04135 0.87501 0.0
C336 C 0.85913 0.02582 0.1603 0.0
C337 C 0.85095 1.00094 0.18178 0.0
C338 C 0.88132 0.02743 0.1099 0.0
C339 C 0.89593 0.00417 0.08015 0.0
C340 C 0.88734 0.97929 0.1012 0.0
C341 C 0.86519 0.97773 0.15134 0.0
C342 C 0.9617 0.98856 -0.01012 0.0
C343 C 0.96586 0.00786 0.92992 0.0
C344 C 0.93924 0.98751 0.03838 0.0
C345 C 0.92009 0.0057 0.02869 0.0
C346 C 0.92433 0.02519 0.96921 0.0
C347 C 0.94683 0.02623 0.92055 0.0
H348 H 0.57056 0.80153 0.05364 0.0
H349 H 0.50586 0.8321 0.21065 0.0
H350 H 0.57019 0.84192 0.97398 0.0
H351 H 0.50503 0.87234 0.13064 0.0
H352 H 0.52575 0.95316 0.03362 0.0
H353 H 0.52578 0.9121 0.10862 0.0
H354 H 0.5501 0.86657 0.87819 0.0
H355 H 0.55048 0.9077 0.80335 0.0
C356 C 0.55606 0.81678 0.07006 0.0
C357 C 0.53816 0.81376 0.13762 0.0
C358 C 0.55578 0.83992 0.02448 0.0
C359 C 0.53763 0.8606 0.04588 0.0
C360 C 0.51949 0.85713 0.11297 0.0
C361 C 0.51979 0.83398 0.15835 0.0
C362 C 0.53118 0.93442 -0.00115 0.0
C363 C 0.53816 0.93386 0.91228 0.0
C364 C 0.53102 0.91077 0.0419 0.0
C365 C 0.53784 0.88585 -0.00032 0.0
C366 C 0.54497 0.88533 0.9131 0.0
C367 C 0.5451 0.90898 0.87003 0.0
H368 H 0.76679 0.51747 0.27529 0.0
H369 H 0.7089 0.54074 0.47294 0.0
H370 H 0.73872 0.51268 0.17867 0.0
H371 H 0.68059 0.5355 0.37735 0.0
H372 H 0.63916 0.55139 0.16262 0.0
H373 H 0.66655 0.55532 0.26101 0.0
H374 H 0.70867 0.48552 0.14389 0.0
H375 H 0.68127 0.4816 0.04548 0.0
C376 C 0.74798 0.52142 0.29795 0.0
C377 C 0.73993 0.52948 0.38122 0.0
C378 C 0.73185 0.51853 0.24284 0.0
C379 C 0.70724 0.52365 0.26982 0.0
C380 C 0.69933 0.5317 0.35376 0.0
C381 C 0.71551 0.53456 0.40878 0.0
C382 C 0.65406 0.53663 0.15839 0.0
C383 C 0.6579 0.51619 0.09556 0.0
C384 C 0.66986 0.53891 0.215 0.0
C385 C 0.69001 0.52082 0.21064 0.0
C386 C 0.69366 0.50016 0.1485 0.0
C387 C 0.67787 0.49789 0.09191 0.0
H388 H 1.01744 0.68961 0.24104 0.0
H389 H 1.01204 0.62604 0.41155 0.0
H390 H 1.01695 0.65777 0.12592 0.0
H391 H 1.01274 0.59358 0.29569 0.0
H392 H 0.99382 0.5449 0.07617 0.0
H393 H 0.99136 0.57701 0.19354 0.0
H394 H 0.04091 0.62393 0.04504 0.0
H395 H 0.04265 0.59267 0.92804 0.0
C396 C 1.01617 0.66873 0.25371 0.0
C397 C 1.01462 0.66023 0.33492 0.0
C398 C 1.01615 0.65035 0.18757 0.0
C399 C 1.01492 0.62291 0.20088 0.0
C400 C 1.01336 0.61451 0.28284 0.0
C401 C 1.01316 0.63302 0.3492 0.0
C402 C 1.00402 0.5622 0.06852 0.0
C403 C 1.01829 0.5662 -0.00779 0.0
C404 C 1.00277 0.58055 0.13611 0.0
C405 C 1.01587 0.60327 0.12921 0.0
C406 C 0.03013 0.60711 0.05274 0.0
C407 C 0.03123 0.58897 0.98534 0.0
H408 H 1.01706 0.26754 0.37921 0.0
H409 H 0.96944 0.23595 0.22801 0.0
H410 H 0.99926 0.24289 0.49508 0.0
H411 H 0.95345 0.20915 0.33986 0.0
H412 H 0.93663 0.14858 0.5162 0.0
H413 H 0.93667 0.19319 0.46159 0.0
H414 H 1.0078 0.19898 0.51455 0.0
H415 H 1.00677 0.15572 0.57345 0.0
C416 C 1.00234 0.25592 0.37119 0.0
C417 C 0.9954 0.25271 0.29316 0.0
C418 C 0.99238 0.24131 0.43741 0.0
C419 C 0.97587 0.22265 0.42595 0.0
C420 C 0.9664 0.22277 0.35171 0.0
C421 C 0.97584 0.23797 0.28654 0.0
C422 C 0.95189 0.15994 0.51809 0.0
C423 C 0.97178 0.14871 0.54805 0.0
C424 C 0.95205 0.18543 0.48636 0.0
C425 C 0.97245 0.19976 0.48142 0.0
C426 C 0.99156 0.18911 0.51771 0.0
C427 C 0.99112 0.16401 0.55114 0.0
H428 H 0.32101 0.93028 0.3118 0.0
H429 H 0.31189 0.0034 0.46243 0.0
H430 H 0.34885 0.91137 0.39654 0.0
H431 H 0.34029 0.98518 0.54541 0.0
H432 H 0.39902 0.95338 0.66608 0.0
H433 H 0.35905 0.95479 0.63148 0.0
H434 H 0.38836 0.92558 0.38179 0.0
H435 H 0.42787 0.92428 0.41602 0.0
C436 C 0.32409 0.94175 0.36577 0.0
C437 C 0.31457 0.96827 0.38065 0.0
C438 C 0.34024 0.93111 0.41363 0.0
C439 C 0.34741 0.94709 0.4759 0.0
C440 C 0.33525 0.97229 0.49791 0.0
C441 C 0.31888 0.98279 0.45056 0.0
C442 C 0.39681 0.9469 0.60416 0.0
C443 C 0.41667 0.9391 0.54339 0.0
C444 C 0.37392 0.94758 0.58455 0.0
C445 C 0.37045 0.94041 0.50385 0.0
C446 C 0.39022 0.93079 0.44507 0.0
C447 C 0.41302 0.93014 0.46459 0.0
H448 H 0.57541 0.30885 0.4013 0.0
H449 H 0.50064 0.31902 0.49738 0.0
H450 H 0.58191 0.34814 0.48513 0.0
H451 H 0.507 0.35836 0.5805 0.0
H452 H 0.52343 0.44688 0.54869 0.0
H453 H 0.52082 0.40119 0.50005 0.0
H454 H 0.57521 0.3739 0.63836 0.0
H455 H 0.57759 0.41994 0.68948 0.0
C456 C 0.56063 0.31859 0.44414 0.0
C457 C 0.53758 0.31088 0.44398 0.0
C458 C 0.5643 0.34118 0.49137 0.0
C459 C 0.54488 0.35643 0.53783 0.0
C460 C 0.52221 0.34698 0.54448 0.0
C461 C 0.5186 0.3243 0.49801 0.0
C462 C 0.535 0.4313 0.5686 0.0
C463 C 0.55062 0.43711 0.62348 0.0
C464 C 0.5333 0.40507 0.54133 0.0
C465 C 0.54741 0.38405 0.5672 0.0
C466 C 0.56396 0.38981 0.61849 0.0
C467 C 0.56541 0.41614 0.64708 0.0
H468 H 0.24935 0.49682 0.24226 0.0
H469 H 0.21881 0.42976 0.14028 0.0
H470 H 0.21746 0.50063 0.35922 0.0
H471 H 0.18663 0.43354 0.25852 0.0
H472 H 0.12174 0.49908 0.31188 0.0
H473 H 0.158 0.47268 0.25365 0.0
H474 H 0.18729 0.48918 0.47576 0.0
H475 H 0.15054 0.5155 0.53506 0.0
C476 C 0.23664 0.4818 0.2473 0.0
C477 C 0.23594 0.46369 0.18058 0.0
C478 C 0.21822 0.48403 0.31469 0.0
C479 C 0.19903 0.46813 0.31586 0.0
C480 C 0.2009 0.44659 0.25754 0.0
C481 C 0.21934 0.44435 0.19009 0.0
C482 C 0.13566 0.4966 0.34918 0.0
C483 C 0.13348 0.5098 0.42725 0.0
C484 C 0.15639 0.48118 0.31623 0.0
C485 C 0.17548 0.47867 0.36047 0.0
C486 C 0.17288 0.49079 0.44034 0.0
C487 C 0.15202 0.50616 0.47358 0.0
H488 H 1.01783 0.75455 0.2371 0.0
H489 H 0.95038 0.79304 0.353 0.0
H490 H 1.0212 0.78791 0.13331 0.0
H491 H 0.95322 0.82614 0.24693 0.0
H492 H 0.99852 0.89989 0.21313 0.0
H493 H 0.98047 0.85987 0.2592 0.0
H494 H 1.01227 0.81804 0.0283 0.0
H495 H 0.03052 0.85859 0.98188 0.0
C496 C 1.00299 0.76918 0.23716 0.0
C497 C 0.98418 0.77182 0.30412 0.0
C498 C 1.00492 0.78843 0.17756 0.0
C499 C 0.98792 0.81032 0.18413 0.0
C500 C 0.96698 0.80996 0.24213 0.0
C501 C 0.9652 0.7909 0.30234 0.0
C502 C 1.00122 0.88239 0.17124 0.0
C503 C 1.01618 0.88229 0.09442 0.0
C504 C 0.99065 0.85941 0.19729 0.0
C505 C 0.99478 0.8357 0.14716 0.0
C506 C 1.00884 0.83594 0.06843 0.0
C507 C 1.01946 0.85904 0.04229 0.0
H508 H 0.76282 0.02207 0.08393 0.0
H509 H 0.72696 0.07879 0.27488 0.0
H510 H 0.73767 0.03958 0.98807 0.0
H511 H 0.70078 0.09495 0.18277 0.0
H512 H 0.64677 0.11459 0.03448 0.0
H513 H 0.68611 0.11322 0.07402 0.0
H514 H 0.69922 0.03098 0.98087 0.0
H515 H 0.66085 0.03324 0.93715 0.0
C516 C 0.75008 0.03888 0.10451 0.0
C517 C 0.74635 0.0486 0.18737 0.0
C518 C 0.73534 0.04866 0.05009 0.0
C519 C 0.71639 0.06796 0.07823 0.0
C520 C 0.71493 0.08003 0.15801 0.0
C521 C 0.72989 0.07061 0.21158 0.0
C522 C 0.65848 0.09656 0.02054 0.0
C523 C 0.65075 0.07394 0.9837 0.0
C524 C 0.68098 0.09564 0.04359 0.0
C525 C 0.69587 0.07178 0.03273 0.0
C526 C 0.68865 0.04987 -0.01018 0.0
C527 C 0.66644 0.05103 0.96509 0.0
H528 H 0.54525 0.69424 0.03588 0.0
H529 H 0.47358 0.69225 0.16398 0.0
H530 H 0.54015 0.655 0.95009 0.0
H531 H 0.46835 0.65315 0.07736 0.0
H532 H 0.53495 0.56346 -0.0098 0.0
H533 H 0.53332 0.60973 0.03899 0.0
H534 H 0.47393 0.6289 0.91432 0.0
H535 H 0.47578 0.58218 0.86256 0.0
C536 C 0.52796 0.68643 0.04207 0.0
C537 C 0.50981 0.69616 0.10633 0.0
C538 C 0.52512 0.66382 -0.00627 0.0
C539 C 0.50399 0.65093 0.00837 0.0
C540 C 0.48476 0.66281 0.0649 0.0
C541 C 0.48769 0.68526 0.11396 0.0
C542 C 0.52132 0.57728 0.97349 0.0
C543 C 0.50551 0.56899 0.92219 0.0
C544 C 0.52061 0.60389 0.00074 0.0
C545 C 0.5039 0.62287 0.97854 0.0
C546 C 0.48718 0.61459 0.93112 0.0
C547 C 0.48813 0.58785 0.90236 0.0
H548 H 0.82281 0.48401 0.27099 0.0
H549 H 0.83352 0.42641 0.45346 0.0
H550 H 0.84852 0.45599 0.16523 0.0
H551 H 0.8588 0.39756 0.34668 0.0
H552 H 0.9045 0.41594 -0.00817 0.0
H553 H 0.86527 0.41835 0.07743 0.0
H554 H 0.89813 0.40752 0.2953 0.0
H555 H 0.93681 0.4048 0.21029 0.0
C556 C 0.82971 0.46465 0.28748 0.0
C557 C 0.82676 0.45763 0.3705 0.0
C558 C 0.84446 0.44841 0.22664 0.0
C559 C 0.85637 0.42483 0.24797 0.0
C560 C 0.85045 0.41598 0.32878 0.0
C561 C 0.83592 0.4324 0.38984 0.0
C562 C 0.90319 0.41324 0.05778 0.0
C563 C 0.9237 0.41087 0.09473 0.0
C564 C 0.88075 0.4146 0.10677 0.0
C565 C 0.87849 0.41381 0.19351 0.0
C566 C 0.89901 0.40809 0.22878 0.0
C567 C 0.92138 0.40661 0.17985 0.0
H568 H 0.07406 0.20849 0.05609 0.0
H569 H 1.00673 0.22557 0.97649 0.0
H570 H 0.07824 0.16456 0.98303 0.0
H571 H 1.01075 0.18188 0.9034 0.0
H572 H 0.03024 0.10524 0.74455 0.0
H573 H 0.03301 0.15134 0.79094 0.0
H574 H 0.05656 0.12397 0.0135 0.0
H575 H 0.05385 0.07785 0.96731 0.0
C576 C 0.06062 0.20321 0.02023 0.0
C577 C 0.04023 0.22047 0.02088 0.0
C578 C 0.06281 0.17794 0.97947 0.0
C579 C 0.04471 0.16957 0.93806 0.0
C580 C 0.02511 0.1877 0.93403 0.0
C581 C 1.02282 0.21278 0.97555 0.0
C582 C 0.03616 0.10897 0.80318 0.0
C583 C 0.04166 0.08771 0.85242 0.0
C584 C 0.03772 0.13546 0.82978 0.0
C585 C 0.04506 0.1414 0.90586 0.0
C586 C 0.05116 0.12012 0.95401 0.0
C587 C 0.04941 0.09364 0.92781 0.0
H588 H 0.34162 0.05056 0.14166 0.0
H589 H 0.34761 0.96633 0.07712 0.0
H590 H 0.38044 0.05481 0.05594 0.0
H591 H 0.38621 0.97021 -0.00681 0.0
H592 H 0.44943 0.98476 0.80573 0.0
H593 H 0.40829 0.98607 0.87221 0.0
H594 H 0.42217 0.0428 0.0591 0.0
H595 H 0.46352 0.04197 -0.00912 0.0
C596 C 0.35091 0.03312 0.10717 0.0
C597 C 0.34136 0.00818 0.11523 0.0
C598 C 0.37337 0.03542 0.05911 0.0
C599 C 0.38677 0.01283 0.01751 0.0
C600 C 0.37653 0.98818 0.0229 0.0
C601 C 0.35428 0.98591 0.07108 0.0
C602 C 0.44381 0.99769 0.86074 0.0
C603 C 0.46009 0.01309 0.89303 0.0
C604 C 0.42007 0.99835 0.89932 0.0
C605 C 0.41167 0.01433 0.97198 0.0
C606 C 0.42776 0.0304 0.00297 0.0
C607 C 0.45161 0.02981 0.96404 0.0
H608 H 0.55547 0.30901 0.09302 0.0
H609 H 0.48538 0.33495 0.22042 0.0
H610 H 0.55454 0.34729 0.00439 0.0
H611 H 0.4843 0.37329 0.13251 0.0
H612 H 0.48602 0.43134 0.91851 0.0
H613 H 0.4844 0.38961 -0.00911 0.0
H614 H 0.55622 0.39558 0.03336 0.0
H615 H 0.55797 0.43707 0.96112 0.0
C616 C 0.53954 0.3224 0.09983 0.0
C617 C 0.52031 0.31879 0.16221 0.0
C618 C 0.53911 0.34456 0.05016 0.0
C619 C 0.51945 0.36359 0.06195 0.0
C620 C 0.49965 0.35899 0.12121 0.0
C621 C 0.50017 0.33695 0.17122 0.0
C622 C 0.50144 0.42388 0.94373 0.0
C623 C 0.5221 0.43778 0.93402 0.0
C624 C 0.50049 0.3999 0.98519 0.0
C625 C 0.52027 0.38902 0.01715 0.0
C626 C 0.54081 0.40307 0.00819 0.0
C627 C 0.54168 0.42712 0.96754 0.0
H628 H 0.22626 0.46123 0.83362 0.0
H629 H 0.20643 0.53125 -0.00417 0.0
H630 H 0.18785 0.46646 0.78479 0.0
H631 H 0.16801 0.53621 0.94883 0.0
H632 H 0.09359 0.50315 0.95504 0.0
H633 H 0.13458 0.50312 0.97778 0.0
H634 H 0.15858 0.50017 0.71356 0.0
H635 H 0.11722 0.50087 0.6903 0.0
C636 C 0.21411 0.47838 0.85602 0.0
C637 C 0.21954 0.49622 0.91702 0.0
C638 C 0.19204 0.48125 0.82873 0.0
C639 C 0.1748 0.5016 0.86358 0.0
C640 C 0.18085 0.52026 0.92109 0.0
C641 C 0.20297 0.51766 0.94719 0.0
C642 C 0.10753 0.50247 0.90155 0.0
C643 C 0.10201 0.50195 0.82083 0.0
C644 C 0.13105 0.50265 0.91468 0.0
C645 C 0.14985 0.50183 0.84753 0.0
C646 C 0.14448 0.50084 0.76655 0.0
C647 C 0.1208 0.50126 0.75334 0.0
H648 H 0.96665 0.8077 0.60773 0.0
H649 H 0.042 0.78728 0.55381 0.0
H650 H 0.97342 0.851 0.66767 0.0
H651 H 0.04898 0.83089 0.6127 0.0
H652 H 0.05157 0.90946 0.76495 0.0
H653 H 0.04481 0.86318 0.73198 0.0
H654 H 0.98822 0.89051 0.60293 0.0
H655 H 0.99473 0.93661 0.63649 0.0
C656 C 0.98466 0.81219 0.61128 0.0
C657 C 1.00378 0.79406 0.57655 0.0
C658 C 0.98859 0.83717 0.64439 0.0
C659 C 1.01177 0.84477 0.64328 0.0
C660 C 0.03089 0.82575 0.61469 0.0
C661 C 0.02692 0.80064 0.58155 0.0
C662 C 0.03769 0.90563 0.72938 0.0
C663 C 1.02373 0.92692 0.70323 0.0
C664 C 0.03385 0.87903 0.71042 0.0
C665 C 1.01584 0.873 0.66536 0.0
C666 C 1.00195 0.89431 0.63915 0.0
C667 C 1.00584 0.92085 0.65775 0.0
H668 H 0.72429 0.03733 0.51795 0.0
H669 H 0.71921 0.96429 0.37924 0.0
H670 H 0.68576 0.03207 0.60264 0.0
H671 H 0.68066 0.95873 0.46391 0.0
H672 H 0.59991 0.98155 0.54176 0.0
H673 H 0.64107 0.98091 0.47398 0.0
H674 H 0.66127 0.00715 0.70475 0.0
H675 H 0.62003 0.00785 0.7727 0.0
C676 C 0.71532 0.01957 0.5079 0.0
C677 C 0.72505 1.00089 0.44332 0.0
C678 C 0.69311 0.0166 0.55607 0.0
C679 C 0.67981 0.99508 0.53997 0.0
C680 C 0.69015 0.97573 0.47767 0.0
C681 C 0.71245 0.97863 0.42998 0.0
C682 C 0.61309 0.98701 0.57846 0.0
C683 C 0.6064 0.99488 0.66294 0.0
C684 C 0.63684 0.98646 0.53953 0.0
C685 C 0.65471 0.99393 0.58358 0.0
C686 C 0.64808 1.00148 0.66839 0.0
C687 C 0.62433 1.00181 0.70754 0.0
H688 H 0.56553 0.68925 0.38942 0.0
H689 H 0.49132 0.67791 0.39946 0.0
H690 H 0.56884 0.65293 0.48461 0.0
H691 H 0.49462 0.64134 0.49037 0.0
H692 H 0.57004 0.56336 0.5595 0.0
H693 H 0.5693 0.60498 0.48533 0.0
H694 H 0.49926 0.62806 0.62135 0.0
H695 H 0.49964 0.58633 0.69104 0.0
C696 C 0.54984 0.67939 0.41345 0.0
C697 C 0.52816 0.68644 0.38714 0.0
C698 C 0.55179 0.65829 0.46687 0.0
C699 C 0.53205 0.64391 0.49521 0.0
C700 C 0.51019 0.652 0.47145 0.0
C701 C 0.50827 0.67298 0.41874 0.0
C702 C 0.55457 0.57744 0.57325 0.0
C703 C 0.53468 0.57127 0.62939 0.0
C704 C 0.55417 0.60141 0.53134 0.0
C705 C 0.53402 0.61985 0.546 0.0
C706 C 0.51478 0.61412 0.60602 0.0
C707 C 0.51501 0.59012 0.64629 0.0
H708 H 0.84907 0.5535 0.5815 0.0
H709 H 0.8525 0.47022 0.63669 0.0
H710 H 0.88363 0.55937 0.64893 0.0
H711 H 0.88751 0.47542 0.69869 0.0
H712 H 0.94551 0.4893 0.83963 0.0
H713 H 0.90607 0.49028 0.80294 0.0
H714 H 0.92478 0.55038 0.62633 0.0
H715 H 0.96383 0.55037 0.66715 0.0
C716 C 0.85693 0.53655 0.60923 0.0
C717 C 0.84806 0.51134 0.6029 0.0
C718 C 0.87706 0.53977 0.64678 0.0
C719 C 0.88887 0.51783 0.67884 0.0
C720 C 0.87906 0.493 0.67613 0.0
C721 C 0.85896 0.48989 0.63951 0.0
C722 C 0.94112 0.50298 0.79375 0.0
C723 C 0.95798 0.51963 0.75612 0.0
C724 C 0.91843 0.50342 0.77195 0.0
C725 C 0.91201 0.52008 0.7102 0.0
C726 C 0.92869 0.53744 0.67469 0.0
C727 C 0.95127 0.53736 0.69781 0.0
loop_
_geom_bond_atom_site_label_1
_geom_bond_atom_site_label_2
_geom_bond_distance
_geom_bond_site_symmetry_2
_ccdc_geom_bond_type
H0 C3 0.929 . S
H1 C6 0.929 . S
H2 C8 0.930 . S
C3 H0 0.929 . S
C3 C4 1.398 . S
C3 C5 1.396 . S
C4 C3 1.398 . S
C4 C8 1.407 . S
C5 C3 1.396 . S
C5 C6 1.394 . S
C6 H1 0.929 . S
C6 C5 1.394 . S
C6 C7 1.382 . S
C7 C6 1.382 . S
C7 C8 1.392 . S
C7 N9 1.420 . S
C8 H2 0.930 . S
C8 C4 1.407 . S
C8 C7 1.392 . S
N9 C7 1.420 . S
N9 C10 1.244 . S
C10 N9 1.244 . S
H11 C14 0.929 . S
H12 C17 0.931 1_455 S
H13 C19 0.928 1_455 S
C14 H11 0.929 . S
C14 C15 1.398 . S
C14 C16 1.396 . S
C15 C14 1.398 . S
C15 C19 1.408 . S
C16 C14 1.396 . S
C16 C17 1.394 . S
C17 H12 0.931 1_655 S
C17 C16 1.394 . S
C17 C18 1.380 1_655 S
C18 C17 1.380 1_455 S
C18 C19 1.396 1_455 S
C18 N20 1.421 . S
C19 H13 0.928 1_655 S
C19 C15 1.408 . S
C19 C18 1.396 1_655 S
N20 C18 1.421 . S
N20 C21 1.244 1_455 S
C21 N20 1.244 1_655 S
H22 C25 0.929 . S
H23 C28 0.929 . S
H24 C30 0.930 . S
C25 H22 0.929 . S
C25 C26 1.395 1_565 S
C25 C27 1.393 1_565 S
C26 C25 1.395 1_545 S
C26 C30 1.416 . S
C27 C25 1.393 1_545 S
C27 C28 1.398 . S
C28 H23 0.929 . S
C28 C27 1.398 . S
C28 C29 1.382 . S
C29 C28 1.382 . S
C29 C30 1.392 . S
C29 N31 1.420 . S
C30 H24 0.930 . S
C30 C26 1.416 . S
C30 C29 1.392 . S
N31 C29 1.420 . S
N31 C32 1.234 1_545 S
C32 N31 1.234 1_565 S
H33 C36 0.929 . S
H34 C39 0.929 . S
H35 C41 0.930 . S
C36 H33 0.929 . S
C36 C37 1.398 . S
C36 C38 1.396 . S
C37 C36 1.398 . S
C37 C41 1.407 . S
C38 C36 1.396 . S
C38 C39 1.394 . S
C39 H34 0.929 . S
C39 C38 1.394 . S
C39 C40 1.382 . S
C40 C39 1.382 . S
C40 C41 1.392 . S
C40 N42 1.420 . S
C41 H35 0.930 . S
C41 C37 1.407 . S
C41 C40 1.392 . S
N42 C40 1.420 . S
N42 C43 1.244 . S
C43 N42 1.244 . S
H44 C47 0.929 . S
H45 C50 0.929 . S
H46 C52 0.930 . S
C47 H44 0.929 . S
C47 C48 1.398 . S
C47 C49 1.396 1_556 S
C48 C47 1.398 . S
C48 C52 1.407 . S
C49 C47 1.396 1_554 S
C49 C50 1.394 . S
C50 H45 0.929 . S
C50 C49 1.394 . S
C50 C51 1.382 1_554 S
C51 C50 1.382 1_556 S
C51 C52 1.392 . S
C51 N53 1.420 . S
C52 H46 0.930 . S
C52 C48 1.407 . S
C52 C51 1.392 . S
N53 C51 1.420 . S
N53 C54 1.244 1_556 S
C54 N53 1.244 1_554 S
H55 C58 0.929 . S
H56 C61 0.929 . S
H57 C63 0.930 1_556 S
C58 H55 0.929 . S
C58 C59 1.398 . S
C58 C60 1.396 . S
C59 C58 1.398 . S
C59 C63 1.407 . S
C60 C58 1.396 . S
C60 C61 1.394 . S
C61 H56 0.929 . S
C61 C60 1.394 . S
C61 C62 1.382 . S
C62 C61 1.382 . S
C62 C63 1.392 . S
C62 N64 1.420 . S
C63 H57 0.930 1_554 S
C63 C59 1.407 . S
C63 C62 1.392 . S
N64 C62 1.420 . S
N64 C65 1.244 . S
C65 N64 1.244 . S
H66 C69 0.929 . S
H67 C72 0.929 . S
H68 C74 0.930 . S
C69 H66 0.929 . S
C69 C70 1.395 1_565 S
C69 C71 1.396 1_565 S
C70 C69 1.395 1_545 S
C70 C74 1.412 . S
C71 C69 1.396 1_545 S
C71 C72 1.396 . S
C72 H67 0.929 . S
C72 C71 1.396 . S
C72 C73 1.382 . S
C73 C72 1.382 . S
C73 C74 1.392 . S
C73 N75 1.420 . S
C74 H68 0.930 . S
C74 C70 1.412 . S
C74 C73 1.392 . S
N75 C73 1.420 . S
N75 C76 1.235 1_545 S
C76 N75 1.235 1_565 S
H77 C80 0.929 . S
H78 C83 0.929 . S
H79 C85 0.930 . S
C80 H77 0.929 . S
C80 C81 1.398 . S
C80 C82 1.396 . S
C81 C80 1.398 . S
C81 C85 1.407 . S
C82 C80 1.396 . S
C82 C83 1.394 . S
C83 H78 0.929 . S
C83 C82 1.394 . S
C83 C84 1.382 . S
C84 C83 1.382 . S
C84 C85 1.392 . S
C84 N86 1.420 . S
C85 H79 0.930 . S
C85 C81 1.407 . S
C85 C84 1.392 . S
N86 C84 1.420 . S
N86 C87 1.244 . S
C87 N86 1.244 . S
Dy88 O91 2.307 1_545 S
Dy88 O93 2.395 1_655 S
Dy88 O94 2.379 . S
Dy88 O96 2.339 . S
Dy88 O98 2.298 . S
Dy88 O102 2.275 1_655 S
Dy88 C110 2.738 . S
Dy89 O92 2.298 . S
Dy89 O95 2.275 1_455 S
Dy89 O97 2.307 1_565 S
Dy89 O99 2.395 1_455 S
Dy89 O100 2.379 . S
Dy89 O103 2.339 . S
Dy89 C119 2.738 . S
C90 O102 1.254 1_565 S
C90 O103 1.257 . S
O91 Dy88 2.307 1_565 S
O91 C101 1.266 . S
O92 Dy89 2.298 . S
O92 C101 1.236 1_455 S
O93 Dy88 2.395 1_455 S
O93 C110 1.255 1_455 S
O94 Dy88 2.379 . S
O94 C110 1.249 . S
O95 Dy89 2.275 1_655 S
O95 C111 1.254 1_565 S
O96 Dy88 2.339 . S
O96 C111 1.257 . S
O97 Dy89 2.307 1_545 S
O97 C112 1.266 . S
O98 Dy88 2.298 . S
O98 C112 1.236 1_655 S
O99 Dy89 2.395 1_655 S
O99 C119 1.255 1_655 S
O100 Dy89 2.379 . S
O100 C119 1.249 . S
C101 O91 1.266 . S
C101 O92 1.236 1_655 S
O102 Dy88 2.275 1_455 S
O102 C90 1.254 1_545 S
O103 Dy89 2.339 . S
O103 C90 1.257 . S
C104 C107 1.344 1_655 S
C104 C108 1.328 . S
C104 C110 1.516 . S
C105 C106 1.304 1_655 S
C105 C109 1.323 . S
C106 C105 1.304 1_455 S
C106 C107 1.371 . S
C106 H120 0.930 . S
C107 C104 1.344 1_455 S
C107 C106 1.371 . S
C107 H121 0.931 . S
C108 C104 1.328 . S
C108 C109 1.433 . S
C108 H122 0.931 . S
C109 C105 1.323 . S
C109 C108 1.433 . S
C109 H123 0.933 . S
C110 Dy88 2.738 . S
C110 O93 1.255 1_655 S
C110 O94 1.249 . S
C110 C104 1.516 . S
C111 O95 1.254 1_545 S
C111 O96 1.257 . S
C112 O97 1.266 . S
C112 O98 1.236 1_455 S
C113 C116 1.344 1_455 S
C113 C117 1.328 . S
C113 C119 1.516 1_554 S
C114 C115 1.304 1_455 S
C114 C118 1.323 . S
C115 C114 1.304 1_655 S
C115 C116 1.371 . S
C115 H124 0.930 . S
C116 C113 1.344 1_655 S
C116 C115 1.371 . S
C116 H125 0.931 . S
C117 C113 1.328 . S
C117 C118 1.433 . S
C117 H126 0.931 . S
C118 C114 1.323 . S
C118 C117 1.433 . S
C118 H127 0.933 . S
C119 Dy89 2.738 . S
C119 O99 1.255 1_455 S
C119 O100 1.249 . S
C119 C113 1.516 1_556 S
H120 C106 0.930 . S
H121 C107 0.931 . S
H122 C108 0.931 . S
H123 C109 0.933 . S
H124 C115 0.930 . S
H125 C116 0.931 . S
H126 C117 0.931 . S
H127 C118 0.933 . S
Dy128 O131 2.307 . S
Dy128 O133 2.395 1_565 S
Dy128 O134 2.379 . S
Dy128 O136 2.339 . S
Dy128 O138 2.298 . S
Dy128 O142 2.275 1_565 S
Dy128 C150 2.738 . S
Dy129 O132 2.298 . S
Dy129 O135 2.275 1_545 S
Dy129 O137 2.307 . S
Dy129 O139 2.395 1_545 S
Dy129 O140 2.379 . S
Dy129 O143 2.339 . S
Dy129 C159 2.738 . S
C130 O142 1.254 . S
C130 O143 1.257 . S
O131 Dy128 2.307 . S
O131 C141 1.266 . S
O132 Dy129 2.298 . S
O132 C141 1.236 1_545 S
O133 Dy128 2.395 1_545 S
O133 C150 1.255 1_545 S
O134 Dy128 2.379 . S
O134 C150 1.249 . S
O135 Dy129 2.275 1_565 S
O135 C151 1.254 . S
O136 Dy128 2.339 . S
O136 C151 1.257 . S
O137 Dy129 2.307 . S
O137 C152 1.266 . S
O138 Dy128 2.298 . S
O138 C152 1.236 1_565 S
O139 Dy129 2.395 1_565 S
O139 C159 1.255 1_565 S
O140 Dy129 2.379 . S
O140 C159 1.249 . S
C141 O131 1.266 . S
C141 O132 1.236 1_565 S
O142 Dy128 2.275 1_545 S
O142 C130 1.254 . S
O143 Dy129 2.339 . S
O143 C130 1.257 . S
C144 C147 1.344 1_565 S
C144 C148 1.328 . S
C144 C150 1.516 . S
C145 C146 1.304 1_565 S
C145 C149 1.323 . S
C146 C145 1.304 1_545 S
C146 C147 1.371 . S
C146 H160 0.930 . S
C147 C144 1.344 1_545 S
C147 C146 1.371 . S
C147 H161 0.931 . S
C148 C144 1.328 . S
C148 C149 1.433 . S
C148 H162 0.931 . S
C149 C145 1.323 . S
C149 C148 1.433 . S
C149 H163 0.933 . S
C150 Dy128 2.738 . S
C150 O133 1.255 1_565 S
C150 O134 1.249 . S
C150 C144 1.516 . S
C151 O135 1.254 . S
C151 O136 1.257 . S
C152 O137 1.266 . S
C152 O138 1.236 1_545 S
C153 C156 1.344 1_545 S
C153 C157 1.328 1_556 S
C153 C159 1.516 . S
C154 C155 1.304 1_545 S
C154 C158 1.323 . S
C155 C154 1.304 1_565 S
C155 C156 1.371 1_554 S
C155 H164 0.930 . S
C156 C153 1.344 1_565 S
C156 C155 1.371 1_556 S
C156 H165 0.931 . S
C157 C153 1.328 1_554 S
C157 C158 1.433 . S
C157 H166 0.931 . S
C158 C154 1.323 . S
C158 C157 1.433 . S
C158 H167 0.933 . S
C159 Dy129 2.738 . S
C159 O139 1.255 1_545 S
C159 O140 1.249 . S
C159 C153 1.516 . S
H160 C146 0.930 . S
H161 C147 0.931 . S
H162 C148 0.931 . S
H163 C149 0.933 . S
H164 C155 0.930 . S
H165 C156 0.931 . S
H166 C157 0.931 . S
H167 C158 0.933 . S
Dy168 O171 2.307 . S
Dy168 O173 2.395 . S
Dy168 O174 2.379 . S
Dy168 O176 2.339 . S
Dy168 O178 2.298 . S
Dy168 O182 2.275 . S
Dy168 C190 2.738 . S
Dy169 O172 2.298 . S
Dy169 O175 2.275 . S
Dy169 O177 2.307 . S
Dy169 O179 2.395 . S
Dy169 O180 2.379 . S
Dy169 O183 2.339 . S
Dy169 C199 2.738 . S
C170 O182 1.254 . S
C170 O183 1.257 . S
O171 Dy168 2.307 . S
O171 C181 1.266 . S
O172 Dy169 2.298 . S
O172 C181 1.236 . S
O173 Dy168 2.395 . S
O173 C190 1.255 . S
O174 Dy168 2.379 . S
O174 C190 1.249 . S
O175 Dy169 2.275 . S
O175 C191 1.254 . S
O176 Dy168 2.339 . S
O176 C191 1.257 . S
O177 Dy169 2.307 . S
O177 C192 1.266 . S
O178 Dy168 2.298 . S
O178 C192 1.236 . S
O179 Dy169 2.395 . S
O179 C199 1.255 . S
O180 Dy169 2.379 . S
O180 C199 1.249 . S
C181 O171 1.266 . S
C181 O172 1.236 . S
O182 Dy168 2.275 . S
O182 C170 1.254 . S
O183 Dy169 2.339 . S
O183 C170 1.257 . S
C184 C187 1.344 1_556 S
C184 C188 1.328 . S
C184 C190 1.516 . S
C185 C186 1.304 . S
C185 C189 1.323 1_554 S
C186 C185 1.304 . S
C186 C187 1.371 . S
C186 H200 0.930 . S
C187 C184 1.344 1_554 S
C187 C186 1.371 . S
C187 H201 0.931 . S
C188 C184 1.328 . S
C188 C189 1.433 . S
C188 H202 0.931 . S
C189 C185 1.323 1_556 S
C189 C188 1.433 . S
C189 H203 0.933 . S
C190 Dy168 2.738 . S
C190 O173 1.255 . S
C190 O174 1.249 . S
C190 C184 1.516 . S
C191 O175 1.254 . S
C191 O176 1.257 . S
C192 O177 1.266 . S
C192 O178 1.236 . S
C193 C196 1.344 . S
C193 C197 1.328 . S
C193 C199 1.516 . S
C194 C195 1.304 . S
C194 C198 1.323 . S
C195 C194 1.304 . S
C195 C196 1.371 . S
C195 H204 0.930 . S
C196 C193 1.344 . S
C196 C195 1.371 . S
C196 H205 0.931 . S
C197 C193 1.328 . S
C197 C198 1.433 . S
C197 H206 0.931 . S
C198 C194 1.323 . S
C198 C197 1.433 . S
C198 H207 0.933 . S
C199 Dy169 2.738 . S
C199 O179 1.255 . S
C199 O180 1.249 . S
C199 C193 1.516 . S
H200 C186 0.930 . S
H201 C187 0.931 . S
H202 C188 0.931 . S
H203 C189 0.933 . S
H204 C195 0.930 . S
H205 C196 0.931 . S
H206 C197 0.931 . S
H207 C198 0.933 . S
Dy208 O211 2.307 1_455 S
Dy208 O213 2.395 . S
Dy208 O214 2.379 . S
Dy208 O216 2.339 . S
Dy208 O218 2.298 . S
Dy208 O222 2.275 . S
Dy208 C230 2.738 . S
Dy209 O212 2.298 . S
Dy209 O215 2.275 . S
Dy209 O217 2.307 1_655 S
Dy209 O219 2.395 . S
Dy209 O220 2.379 . S
Dy209 O223 2.339 . S
Dy209 C239 2.738 . S
C210 O222 1.254 . S
C210 O223 1.257 1_455 S
O211 Dy208 2.307 1_655 S
O211 C221 1.266 . S
O212 Dy209 2.298 . S
O212 C221 1.236 . S
O213 Dy208 2.395 . S
O213 C230 1.255 . S
O214 Dy208 2.379 . S
O214 C230 1.249 . S
O215 Dy209 2.275 . S
O215 C231 1.254 1_655 S
O216 Dy208 2.339 . S
O216 C231 1.257 . S
O217 Dy209 2.307 1_455 S
O217 C232 1.266 . S
O218 Dy208 2.298 . S
O218 C232 1.236 . S
O219 Dy209 2.395 . S
O219 C239 1.255 . S
O220 Dy209 2.379 . S
O220 C239 1.249 . S
C221 O211 1.266 . S
C221 O212 1.236 . S
O222 Dy208 2.275 . S
O222 C210 1.254 . S
O223 Dy209 2.339 . S
O223 C210 1.257 1_655 S
C224 C227 1.344 . S
C224 C228 1.328 . S
C224 C230 1.516 . S
C225 C226 1.304 . S
C225 C229 1.323 . S
C226 C225 1.304 . S
C226 C227 1.371 . S
C226 H240 0.930 . S
C227 C224 1.344 . S
C227 C226 1.371 . S
C227 H241 0.931 . S
C228 C224 1.328 . S
C228 C229 1.433 . S
C228 H242 0.931 . S
C229 C225 1.323 . S
C229 C228 1.433 . S
C229 H243 0.933 . S
C230 Dy208 2.738 . S
C230 O213 1.255 . S
C230 O214 1.249 . S
C230 C224 1.516 . S
C231 O215 1.254 1_455 S
C231 O216 1.257 . S
C232 O217 1.266 . S
C232 O218 1.236 . S
C233 C236 1.344 . S
C233 C237 1.328 . S
C233 C239 1.516 1_554 S
C234 C235 1.304 . S
C234 C238 1.323 . S
C235 C234 1.304 . S
C235 C236 1.371 . S
C235 H244 0.930 . S
C236 C233 1.344 . S
C236 C235 1.371 . S
C236 H245 0.931 . S
C237 C233 1.328 . S
C237 C238 1.433 . S
C237 H246 0.931 . S
C238 C234 1.323 . S
C238 C237 1.433 . S
C238 H247 0.933 . S
C239 Dy209 2.738 . S
C239 O219 1.255 . S
C239 O220 1.249 . S
C239 C233 1.516 1_556 S
H240 C226 0.930 . S
H241 C227 0.931 . S
H242 C228 0.931 . S
H243 C229 0.933 . S
H244 C235 0.930 . S
H245 C236 0.931 . S
H246 C237 0.931 . S
H247 C238 0.933 . S
H248 C256 0.950 . S
H249 C261 0.950 . S
H250 C258 0.950 . S
H251 C260 0.950 . S
H252 C262 0.950 . S
H253 C264 0.950 . S
H254 C266 0.950 . S
H255 C267 0.950 . S
C256 H248 0.950 . S
C256 C257 1.386 1_565 S
C256 C258 1.391 . S
C257 C256 1.386 1_545 S
C257 C261 1.393 . S
C258 H250 0.950 . S
C258 C256 1.391 . S
C258 C259 1.382 1_565 S
C259 C258 1.382 1_545 S
C259 C260 1.423 . S
C259 C265 1.487 . S
C260 H251 0.950 . S
C260 C259 1.423 . S
C260 C261 1.391 . S
C261 H249 0.950 . S
C261 C257 1.393 . S
C261 C260 1.391 . S
C262 H252 0.950 . S
C262 C263 1.387 . S
C262 C264 1.391 . S
C263 C262 1.387 . S
C263 C267 1.392 1_545 S
C264 H253 0.950 . S
C264 C262 1.391 . S
C264 C265 1.404 . S
C265 C259 1.487 . S
C265 C264 1.404 . S
C265 C266 1.394 1_545 S
C266 H254 0.950 . S
C266 C265 1.394 1_565 S
C266 C267 1.391 . S
C267 H255 0.950 . S
C267 C263 1.392 1_565 S
C267 C266 1.391 . S
H268 C276 0.950 . S
H269 C281 0.950 . S
H270 C278 0.950 . S
H271 C280 0.950 . S
H272 C282 0.950 . S
H273 C284 0.950 . S
H274 C286 0.950 . S
H275 C287 0.950 . S
C276 H268 0.950 . S
C276 C277 1.386 . S
C276 C278 1.391 . S
C277 C276 1.386 . S
C277 C281 1.393 . S
C278 H270 0.950 . S
C278 C276 1.391 . S
C278 C279 1.400 . S
C279 C278 1.400 . S
C279 C280 1.398 . S
C279 C285 1.491 . S
C280 H271 0.950 . S
C280 C279 1.398 . S
C280 C281 1.391 . S
C281 H269 0.950 . S
C281 C277 1.393 . S
C281 C280 1.391 . S
C282 H272 0.950 . S
C282 C283 1.386 . S
C282 C284 1.391 . S
C283 C282 1.386 . S
C283 C287 1.393 . S
C284 H273 0.950 . S
C284 C282 1.391 . S
C284 C285 1.400 . S
C285 C279 1.491 . S
C285 C284 1.400 . S
C285 C286 1.398 . S
C286 H274 0.950 . S
C286 C285 1.398 . S
C286 C287 1.391 . S
C287 H275 0.950 . S
C287 C283 1.393 . S
C287 C286 1.391 . S
H288 C296 0.950 . S
H289 C301 0.950 . S
H290 C298 0.950 . S
H291 C300 0.950 . S
H292 C302 0.950 . S
H293 C304 0.950 . S
H294 C306 0.950 . S
H295 C307 0.950 . S
C296 H288 0.950 . S
C296 C297 1.386 . S
C296 C298 1.391 . S
C297 C296 1.386 . S
C297 C301 1.393 . S
C298 H290 0.950 . S
C298 C296 1.391 . S
C298 C299 1.400 . S
C299 C298 1.400 . S
C299 C300 1.398 . S
C299 C305 1.491 . S
C300 H291 0.950 . S
C300 C299 1.398 . S
C300 C301 1.391 . S
C301 H289 0.950 . S
C301 C297 1.393 . S
C301 C300 1.391 . S
C302 H292 0.950 . S
C302 C303 1.386 . S
C302 C304 1.391 . S
C303 C302 1.386 . S
C303 C307 1.393 . S
C304 H293 0.950 . S
C304 C302 1.391 . S
C304 C305 1.400 . S
C305 C299 1.491 . S
C305 C304 1.400 . S
C305 C306 1.398 . S
C306 H294 0.950 . S
C306 C305 1.398 . S
C306 C307 1.391 . S
C307 H295 0.950 . S
C307 C303 1.393 . S
C307 C306 1.391 . S
H308 C316 0.950 . S
H309 C321 0.950 . S
H310 C318 0.950 . S
H311 C320 0.950 . S
H312 C322 0.950 . S
H313 C324 0.950 . S
H314 C326 0.950 . S
H315 C327 0.950 . S
C316 H308 0.950 . S
C316 C317 1.386 . S
C316 C318 1.391 . S
C317 C316 1.386 . S
C317 C321 1.393 . S
C318 H310 0.950 . S
C318 C316 1.391 . S
C318 C319 1.400 . S
C319 C318 1.400 . S
C319 C320 1.398 . S
C319 C325 1.491 . S
C320 H311 0.950 . S
C320 C319 1.398 . S
C320 C321 1.391 . S
C321 H309 0.950 . S
C321 C317 1.393 . S
C321 C320 1.391 . S
C322 H312 0.950 . S
C322 C323 1.386 . S
C322 C324 1.391 . S
C323 C322 1.386 . S
C323 C327 1.393 . S
C324 H313 0.950 . S
C324 C322 1.391 . S
C324 C325 1.400 . S
C325 C319 1.491 . S
C325 C324 1.400 . S
C325 C326 1.398 . S
C326 H314 0.950 . S
C326 C325 1.398 . S
C326 C327 1.391 . S
C327 H315 0.950 . S
C327 C323 1.393 . S
C327 C326 1.391 . S
H328 C336 0.950 . S
H329 C341 0.950 . S
H330 C338 0.950 . S
H331 C340 0.950 . S
H332 C342 0.950 . S
H333 C344 0.950 . S
H334 C346 0.950 . S
H335 C347 0.950 . S
C336 H328 0.950 . S
C336 C337 1.401 . S
C336 C338 1.391 . S
C337 C336 1.401 . S
C337 C341 1.380 1_545 S
C338 H330 0.950 . S
C338 C336 1.391 . S
C338 C339 1.398 . S
C339 C338 1.398 . S
C339 C340 1.400 1_545 S
C339 C345 1.493 1_545 S
C340 H331 0.950 . S
C340 C339 1.400 1_565 S
C340 C341 1.391 . S
C341 H329 0.950 . S
C341 C337 1.380 1_565 S
C341 C340 1.391 . S
C342 H332 0.950 . S
C342 C343 1.386 1_554 S
C342 C344 1.391 . S
C343 C342 1.386 1_556 S
C343 C347 1.393 1_565 S
C344 H333 0.950 . S
C344 C342 1.391 . S
C344 C345 1.419 . S
C345 C339 1.493 1_565 S
C345 C344 1.419 . S
C345 C346 1.378 1_564 S
C346 H334 0.950 . S
C346 C345 1.378 1_546 S
C346 C347 1.391 . S
C347 H335 0.950 . S
C347 C343 1.393 1_545 S
C347 C346 1.391 . S
H348 C356 0.950 . S
H349 C361 0.950 . S
H350 C358 0.950 . S
H351 C360 0.950 . S
H352 C362 0.950 . S
H353 C364 0.950 1_554 S
H354 C366 0.950 . S
H355 C367 0.950 . S
C356 H348 0.950 . S
C356 C357 1.386 . S
C356 C358 1.391 1_554 S
C357 C356 1.386 . S
C357 C361 1.393 . S
C358 H350 0.950 . S
C358 C356 1.391 1_556 S
C358 C359 1.400 . S
C359 C358 1.400 . S
C359 C360 1.396 1_556 S
C359 C365 1.492 . S
C360 H351 0.950 . S
C360 C359 1.396 1_554 S
C360 C361 1.391 . S
C361 H349 0.950 . S
C361 C357 1.393 . S
C361 C360 1.391 . S
C362 H352 0.950 . S
C362 C363 1.386 . S
C362 C364 1.391 . S
C363 C362 1.386 . S
C363 C367 1.393 . S
C364 H353 0.950 1_556 S
C364 C362 1.391 . S
C364 C365 1.400 . S
C365 C359 1.492 . S
C365 C364 1.400 . S
C365 C366 1.398 . S
C366 H354 0.950 . S
C366 C365 1.398 . S
C366 C367 1.391 . S
C367 H355 0.950 . S
C367 C363 1.393 . S
C367 C366 1.391 . S
H368 C376 0.950 . S
H369 C381 0.950 . S
H370 C378 0.950 . S
H371 C380 0.950 . S
H372 C382 0.950 . S
H373 C384 0.950 . S
H374 C386 0.950 . S
H375 C387 0.950 . S
C376 H368 0.950 . S
C376 C377 1.386 . S
C376 C378 1.391 . S
C377 C376 1.386 . S
C377 C381 1.393 . S
C378 H370 0.950 . S
C378 C376 1.391 . S
C378 C379 1.400 . S
C379 C378 1.400 . S
C379 C380 1.398 . S
C379 C385 1.491 . S
C380 H371 0.950 . S
C380 C379 1.398 . S
C380 C381 1.391 . S
C381 H369 0.950 . S
C381 C377 1.393 . S
C381 C380 1.391 . S
C382 H372 0.950 . S
C382 C383 1.386 . S
C382 C384 1.391 . S
C383 C382 1.386 . S
C383 C387 1.393 . S
C384 H373 0.950 . S
C384 C382 1.391 . S
C384 C385 1.400 . S
C385 C379 1.491 . S
C385 C384 1.400 . S
C385 C386 1.398 . S
C386 H374 0.950 . S
C386 C385 1.398 . S
C386 C387 1.391 . S
C387 H375 0.950 . S
C387 C383 1.393 . S
C387 C386 1.391 . S
H388 C396 0.950 . S
H389 C401 0.950 . S
H390 C398 0.950 . S
H391 C400 0.950 . S
H392 C402 0.950 . S
H393 C404 0.950 . S
H394 C406 0.950 . S
H395 C407 0.950 . S
C396 H388 0.950 . S
C396 C397 1.386 1_455 S
C396 C398 1.391 . S
C397 C396 1.386 1_655 S
C397 C401 1.393 . S
C398 H390 0.950 . S
C398 C396 1.391 . S
C398 C399 1.400 1_455 S
C399 C398 1.400 1_655 S
C399 C400 1.398 . S
C399 C405 1.491 . S
C400 H391 0.950 . S
C400 C399 1.398 . S
C400 C401 1.391 . S
C401 H389 0.950 . S
C401 C397 1.393 . S
C401 C400 1.391 . S
C402 H392 0.950 . S
C402 C403 1.386 1_554 S
C402 C404 1.391 . S
C403 C402 1.386 1_556 S
C403 C407 1.393 1_655 S
C404 H393 0.950 . S
C404 C402 1.391 . S
C404 C405 1.400 . S
C405 C399 1.491 . S
C405 C404 1.400 . S
C405 C406 1.398 1_655 S
C406 H394 0.950 . S
C406 C405 1.398 1_455 S
C406 C407 1.391 1_554 S
C407 H395 0.950 . S
C407 C403 1.393 1_455 S
C407 C406 1.391 1_556 S
H408 C416 0.950 . S
H409 C421 0.950 . S
H410 C418 0.950 . S
H411 C420 0.950 . S
H412 C422 0.950 . S
H413 C424 0.950 . S
H414 C426 0.950 . S
H415 C427 0.950 . S
C416 H408 0.950 . S
C416 C417 1.386 . S
C416 C418 1.391 . S
C417 C416 1.386 . S
C417 C421 1.393 1_455 S
C418 H410 0.950 . S
C418 C416 1.391 . S
C418 C419 1.400 . S
C419 C418 1.400 . S
C419 C420 1.398 1_455 S
C419 C425 1.491 1_455 S
C420 H411 0.950 . S
C420 C419 1.398 1_655 S
C420 C421 1.391 . S
C421 H409 0.950 . S
C421 C417 1.393 1_655 S
C421 C420 1.391 . S
C422 H412 0.950 . S
C422 C423 1.386 . S
C422 C424 1.391 . S
C423 C422 1.386 . S
C423 C427 1.393 1_655 S
C424 H413 0.950 . S
C424 C422 1.391 . S
C424 C425 1.400 . S
C425 C419 1.491 1_655 S
C425 C424 1.400 . S
C425 C426 1.398 1_655 S
C426 H414 0.950 . S
C426 C425 1.398 1_455 S
C426 C427 1.391 . S
C427 H415 0.950 . S
C427 C423 1.393 1_455 S
C427 C426 1.391 . S
H428 C436 0.950 . S
H429 C441 0.950 . S
H430 C438 0.950 . S
H431 C440 0.950 . S
H432 C442 0.950 1_545 S
H433 C444 0.950 1_545 S
H434 C446 0.950 . S
H435 C447 0.950 . S
C436 H428 0.950 . S
C436 C437 1.386 1_565 S
C436 C438 1.391 . S
C437 C436 1.386 1_545 S
C437 C441 1.393 . S
C438 H430 0.950 . S
C438 C436 1.391 . S
C438 C439 1.400 . S
C439 C438 1.400 . S
C439 C440 1.398 1_565 S
C439 C445 1.491 . S
C440 H431 0.950 . S
C440 C439 1.398 1_545 S
C440 C441 1.391 . S
C441 H429 0.950 . S
C441 C437 1.393 . S
C441 C440 1.391 . S
C442 H432 0.950 1_565 S
C442 C443 1.386 . S
C442 C444 1.391 . S
C443 C442 1.386 . S
C443 C447 1.393 . S
C444 H433 0.950 1_565 S
C444 C442 1.391 . S
C444 C445 1.400 . S
C445 C439 1.491 . S
C445 C444 1.400 . S
C445 C446 1.398 . S
C446 H434 0.950 . S
C446 C445 1.398 . S
C446 C447 1.391 . S
C447 H435 0.950 . S
C447 C443 1.393 . S
C447 C446 1.391 . S
H448 C456 0.950 . S
H449 C461 0.950 . S
H450 C458 0.950 . S
H451 C460 0.950 . S
H452 C462 0.950 . S
H453 C464 0.950 . S
H454 C466 0.950 . S
H455 C467 0.950 . S
C456 H448 0.950 . S
C456 C457 1.386 . S
C456 C458 1.391 . S
C457 C456 1.386 . S
C457 C461 1.393 . S
C458 H450 0.950 . S
C458 C456 1.391 . S
C458 C459 1.400 . S
C459 C458 1.400 . S
C459 C460 1.398 . S
C459 C465 1.491 . S
C460 H451 0.950 . S
C460 C459 1.398 . S
C460 C461 1.391 . S
C461 H449 0.950 . S
C461 C457 1.393 . S
C461 C460 1.391 . S
C462 H452 0.950 . S
C462 C463 1.386 . S
C462 C464 1.391 . S
C463 C462 1.386 . S
C463 C467 1.393 . S
C464 H453 0.950 . S
C464 C462 1.391 . S
C464 C465 1.400 . S
C465 C459 1.491 . S
C465 C464 1.400 . S
C465 C466 1.398 . S
C466 H454 0.950 . S
C466 C465 1.398 . S
C466 C467 1.391 . S
C467 H455 0.950 . S
C467 C463 1.393 . S
C467 C466 1.391 . S
H468 C476 0.950 . S
H469 C481 0.950 . S
H470 C478 0.950 . S
H471 C480 0.950 . S
H472 C482 0.950 . S
H473 C484 0.950 . S
H474 C486 0.950 . S
H475 C487 0.950 . S
C476 H468 0.950 . S
C476 C477 1.386 . S
C476 C478 1.391 . S
C477 C476 1.386 . S
C477 C481 1.393 . S
C478 H470 0.950 . S
C478 C476 1.391 . S
C478 C479 1.400 . S
C479 C478 1.400 . S
C479 C480 1.398 . S
C479 C485 1.491 . S
C480 H471 0.950 . S
C480 C479 1.398 . S
C480 C481 1.391 . S
C481 H469 0.950 . S
C481 C477 1.393 . S
C481 C480 1.391 . S
C482 H472 0.950 . S
C482 C483 1.386 . S
C482 C484 1.391 . S
C483 C482 1.386 . S
C483 C487 1.393 . S
C484 H473 0.950 . S
C484 C482 1.391 . S
C484 C485 1.400 . S
C485 C479 1.491 . S
C485 C484 1.400 . S
C485 C486 1.398 . S
C486 H474 0.950 . S
C486 C485 1.398 . S
C486 C487 1.391 . S
C487 H475 0.950 . S
C487 C483 1.393 . S
C487 C486 1.391 . S
H488 C496 0.950 . S
H489 C501 0.950 . S
H490 C498 0.950 . S
H491 C500 0.950 . S
H492 C502 0.950 . S
H493 C504 0.950 . S
H494 C506 0.950 . S
H495 C507 0.950 . S
C496 H488 0.950 . S
C496 C497 1.386 1_455 S
C496 C498 1.391 . S
C497 C496 1.386 1_655 S
C497 C501 1.393 . S
C498 H490 0.950 . S
C498 C496 1.391 . S
C498 C499 1.400 . S
C499 C498 1.400 . S
C499 C500 1.398 1_455 S
C499 C505 1.491 . S
C500 H491 0.950 . S
C500 C499 1.398 1_655 S
C500 C501 1.391 . S
C501 H489 0.950 . S
C501 C497 1.393 . S
C501 C500 1.391 . S
C502 H492 0.950 . S
C502 C503 1.386 1_655 S
C502 C504 1.391 . S
C503 C502 1.386 1_455 S
C503 C507 1.393 . S
C504 H493 0.950 . S
C504 C502 1.391 . S
C504 C505 1.400 1_655 S
C505 C499 1.491 . S
C505 C504 1.400 1_455 S
C505 C506 1.398 . S
C506 H494 0.950 . S
C506 C505 1.398 . S
C506 C507 1.391 . S
C507 H495 0.950 . S
C507 C503 1.393 . S
C507 C506 1.391 . S
H508 C516 0.950 . S
H509 C521 0.950 . S
H510 C518 0.950 . S
H511 C520 0.950 . S
H512 C522 0.950 1_556 S
H513 C524 0.950 . S
H514 C526 0.950 1_565 S
H515 C527 0.950 . S
C516 H508 0.950 . S
C516 C517 1.373 1_565 S
C516 C518 1.391 . S
C517 C516 1.373 1_545 S
C517 C521 1.412 . S
C518 H510 0.950 . S
C518 C516 1.391 . S
C518 C519 1.400 1_565 S
C519 C518 1.400 1_545 S
C519 C520 1.398 . S
C519 C525 1.491 . S
C520 H511 0.950 . S
C520 C519 1.398 . S
C520 C521 1.391 . S
C521 H509 0.950 . S
C521 C517 1.412 . S
C521 C520 1.391 . S
C522 H512 0.950 1_554 S
C522 C523 1.386 . S
C522 C524 1.391 . S
C523 C522 1.386 . S
C523 C527 1.393 . S
C524 H513 0.950 . S
C524 C522 1.391 . S
C524 C525 1.400 . S
C525 C519 1.491 . S
C525 C524 1.400 . S
C525 C526 1.398 . S
C526 H514 0.950 1_545 S
C526 C525 1.398 . S
C526 C527 1.391 . S
C527 H515 0.950 . S
C527 C523 1.393 . S
C527 C526 1.391 . S
H528 C536 0.950 1_556 S
H529 C541 0.950 . S
H530 C538 0.950 . S
H531 C540 0.950 . S
H532 C542 0.950 . S
H533 C544 0.950 . S
H534 C546 0.950 . S
H535 C547 0.950 . S
C536 H528 0.950 1_554 S
C536 C537 1.386 . S
C536 C538 1.391 1_554 S
C537 C536 1.386 . S
C537 C541 1.393 . S
C538 H530 0.950 . S
C538 C536 1.391 1_556 S
C538 C539 1.400 1_556 S
C539 C538 1.400 1_554 S
C539 C540 1.398 . S
C539 C545 1.491 1_554 S
C540 H531 0.950 . S
C540 C539 1.398 . S
C540 C541 1.391 . S
C541 H529 0.950 . S
C541 C537 1.393 . S
C541 C540 1.391 . S
C542 H532 0.950 . S
C542 C543 1.386 1_554 S
C542 C544 1.391 . S
C543 C542 1.386 1_556 S
C543 C547 1.393 . S
C544 H533 0.950 . S
C544 C542 1.391 . S
C544 C545 1.400 1_554 S
C545 C539 1.491 1_556 S
C545 C544 1.400 1_556 S
C545 C546 1.398 . S
C546 H534 0.950 . S
C546 C545 1.398 . S
C546 C547 1.391 . S
C547 H535 0.950 . S
C547 C543 1.393 . S
C547 C546 1.391 . S
H548 C556 0.950 . S
H549 C561 0.950 . S
H550 C558 0.950 . S
H551 C560 0.950 . S
H552 C562 0.950 . S
H553 C564 0.950 . S
H554 C566 0.950 . S
H555 C567 0.950 . S
C556 H548 0.950 . S
C556 C557 1.386 . S
C556 C558 1.391 . S
C557 C556 1.386 . S
C557 C561 1.393 . S
C558 H550 0.950 . S
C558 C556 1.391 . S
C558 C559 1.400 . S
C559 C558 1.400 . S
C559 C560 1.398 . S
C559 C565 1.491 . S
C560 H551 0.950 . S
C560 C559 1.398 . S
C560 C561 1.391 . S
C561 H549 0.950 . S
C561 C557 1.393 . S
C561 C560 1.391 . S
C562 H552 0.950 . S
C562 C563 1.386 . S
C562 C564 1.391 . S
C563 C562 1.386 . S
C563 C567 1.393 . S
C564 H553 0.950 . S
C564 C562 1.391 . S
C564 C565 1.400 . S
C565 C559 1.491 . S
C565 C564 1.400 . S
C565 C566 1.398 . S
C566 H554 0.950 . S
C566 C565 1.398 . S
C566 C567 1.391 . S
C567 H555 0.950 . S
C567 C563 1.393 . S
C567 C566 1.391 . S
H568 C576 0.950 . S
H569 C581 0.950 . S
H570 C578 0.950 1_554 S
H571 C580 0.950 . S
H572 C582 0.979 . S
H573 C584 0.950 . S
H574 C586 0.950 . S
H575 C587 0.950 . S
C576 H568 0.950 . S
C576 C577 1.386 1_554 S
C576 C578 1.391 1_554 S
C577 C576 1.386 1_556 S
C577 C581 1.393 1_455 S
C578 H570 0.950 1_556 S
C578 C576 1.391 1_556 S
C578 C579 1.400 . S
C579 C578 1.400 . S
C579 C580 1.398 1_455 S
C579 C585 1.491 . S
C580 H571 0.950 . S
C580 C579 1.398 1_655 S
C580 C581 1.391 . S
C581 H569 0.950 . S
C581 C577 1.393 1_655 S
C581 C580 1.391 . S
C582 H572 0.979 . S
C582 C583 1.362 1_655 S
C582 C584 1.388 . S
C583 C582 1.362 1_455 S
C583 C587 1.393 . S
C584 H573 0.950 . S
C584 C582 1.388 . S
C584 C585 1.400 1_655 S
C585 C579 1.491 . S
C585 C584 1.400 1_455 S
C585 C586 1.398 . S
C586 H574 0.950 . S
C586 C585 1.398 . S
C586 C587 1.391 . S
C587 H575 0.950 . S
C587 C583 1.393 . S
C587 C586 1.391 . S
H588 C596 0.950 . S
H589 C601 0.950 . S
H590 C598 0.950 1_556 S
H591 C600 0.950 . S
H592 C602 0.950 . S
H593 C604 0.950 . S
H594 C606 0.950 . S
H595 C607 0.950 . S
C596 H588 0.950 . S
C596 C597 1.386 . S
C596 C598 1.391 . S
C597 C596 1.386 . S
C597 C601 1.393 1_545 S
C598 H590 0.950 1_554 S
C598 C596 1.391 . S
C598 C599 1.400 . S
C599 C598 1.400 . S
C599 C600 1.398 1_545 S
C599 C605 1.491 1_554 S
C600 H591 0.950 . S
C600 C599 1.398 1_565 S
C600 C601 1.391 . S
C601 H589 0.950 . S
C601 C597 1.393 1_565 S
C601 C600 1.391 . S
C602 H592 0.950 . S
C602 C603 1.386 1_565 S
C602 C604 1.391 . S
C603 C602 1.386 1_545 S
C603 C607 1.393 . S
C604 H593 0.950 . S
C604 C602 1.391 . S
C604 C605 1.400 1_565 S
C605 C599 1.491 1_556 S
C605 C604 1.400 1_545 S
C605 C606 1.398 . S
C606 H594 0.950 . S
C606 C605 1.398 . S
C606 C607 1.391 . S
C607 H595 0.950 . S
C607 C603 1.393 . S
C607 C606 1.391 . S
H608 C616 0.950 . S
H609 C621 0.950 . S
H610 C618 0.950 . S
H611 C620 0.950 . S
H612 C622 0.950 . S
H613 C624 0.950 1_556 S
H614 C626 0.950 . S
H615 C627 0.950 . S
C616 H608 0.950 . S
C616 C617 1.386 . S
C616 C618 1.391 . S
C617 C616 1.386 . S
C617 C621 1.393 . S
C618 H610 0.950 . S
C618 C616 1.391 . S
C618 C619 1.400 . S
C619 C618 1.400 . S
C619 C620 1.398 . S
C619 C625 1.491 . S
C620 H611 0.950 . S
C620 C619 1.398 . S
C620 C621 1.391 . S
C621 H609 0.950 . S
C621 C617 1.393 . S
C621 C620 1.391 . S
C622 H612 0.950 . S
C622 C623 1.386 . S
C622 C624 1.391 1_556 S
C623 C622 1.386 . S
C623 C627 1.393 1_556 S
C624 H613 0.950 1_554 S
C624 C622 1.391 1_554 S
C624 C625 1.400 . S
C625 C619 1.491 . S
C625 C624 1.400 . S
C625 C626 1.398 . S
C626 H614 0.950 . S
C626 C625 1.398 . S
C626 C627 1.391 . S
C627 H615 0.950 . S
C627 C623 1.393 1_554 S
C627 C626 1.391 . S
H628 C636 0.950 . S
H629 C641 0.950 . S
H630 C638 0.950 . S
H631 C640 0.950 . S
H632 C642 0.950 . S
H633 C644 0.950 . S
H634 C646 0.950 . S
H635 C647 0.950 . S
C636 H628 0.950 . S
C636 C637 1.386 . S
C636 C638 1.391 . S
C637 C636 1.386 . S
C637 C641 1.393 . S
C638 H630 0.950 . S
C638 C636 1.391 . S
C638 C639 1.400 . S
C639 C638 1.400 . S
C639 C640 1.398 . S
C639 C645 1.491 . S
C640 H631 0.950 . S
C640 C639 1.398 . S
C640 C641 1.391 . S
C641 H629 0.950 . S
C641 C637 1.393 . S
C641 C640 1.391 . S
C642 H632 0.950 . S
C642 C643 1.386 . S
C642 C644 1.391 . S
C643 C642 1.386 . S
C643 C647 1.393 . S
C644 H633 0.950 . S
C644 C642 1.391 . S
C644 C645 1.400 . S
C645 C639 1.491 . S
C645 C644 1.400 . S
C645 C646 1.398 . S
C646 H634 0.950 . S
C646 C645 1.398 . S
C646 C647 1.391 . S
C647 H635 0.950 . S
C647 C643 1.393 . S
C647 C646 1.391 . S
H648 C656 0.950 . S
H649 C661 0.950 . S
H650 C658 0.950 . S
H651 C660 0.950 . S
H652 C662 0.950 . S
H653 C664 0.950 . S
H654 C666 0.950 . S
H655 C667 0.950 . S
C656 H648 0.950 . S
C656 C657 1.386 . S
C656 C658 1.391 . S
C657 C656 1.386 . S
C657 C661 1.393 1_655 S
C658 H650 0.950 . S
C658 C656 1.391 . S
C658 C659 1.400 . S
C659 C658 1.400 . S
C659 C660 1.398 1_655 S
C659 C665 1.491 . S
C660 H651 0.950 . S
C660 C659 1.398 1_455 S
C660 C661 1.391 . S
C661 H649 0.950 . S
C661 C657 1.393 1_455 S
C661 C660 1.391 . S
C662 H652 0.950 . S
C662 C663 1.386 1_455 S
C662 C664 1.391 . S
C663 C662 1.386 1_655 S
C663 C667 1.393 . S
C664 H653 0.950 . S
C664 C662 1.391 . S
C664 C665 1.400 1_455 S
C665 C659 1.491 . S
C665 C664 1.400 1_655 S
C665 C666 1.398 . S
C666 H654 0.950 . S
C666 C665 1.398 . S
C666 C667 1.391 . S
C667 H655 0.950 . S
C667 C663 1.393 . S
C667 C666 1.391 . S
H668 C676 0.950 . S
H669 C681 0.950 . S
H670 C678 0.950 . S
H671 C680 0.950 . S
H672 C682 0.950 . S
H673 C684 0.950 . S
H674 C686 0.950 . S
H675 C687 0.950 . S
C676 H668 0.950 . S
C676 C677 1.380 1_545 S
C676 C678 1.391 . S
C677 C676 1.380 1_565 S
C677 C681 1.400 . S
C678 H670 0.950 . S
C678 C676 1.391 . S
C678 C679 1.400 1_545 S
C679 C678 1.400 1_565 S
C679 C680 1.398 . S
C679 C685 1.491 . S
C680 H671 0.950 . S
C680 C679 1.398 . S
C680 C681 1.391 . S
C681 H669 0.950 . S
C681 C677 1.400 . S
C681 C680 1.391 . S
C682 H672 0.950 . S
C682 C683 1.386 . S
C682 C684 1.391 . S
C683 C682 1.386 . S
C683 C687 1.393 1_565 S
C684 H673 0.950 . S
C684 C682 1.391 . S
C684 C685 1.400 . S
C685 C679 1.491 . S
C685 C684 1.400 . S
C685 C686 1.398 1_565 S
C686 H674 0.950 . S
C686 C685 1.398 1_545 S
C686 C687 1.391 . S
C687 H675 0.950 . S
C687 C683 1.393 1_545 S
C687 C686 1.391 . S
H688 C696 0.950 . S
H689 C701 0.950 . S
H690 C698 0.950 . S
H691 C700 0.950 . S
H692 C702 0.950 . S
H693 C704 0.950 . S
H694 C706 0.950 . S
H695 C707 0.950 . S
C696 H688 0.950 . S
C696 C697 1.386 . S
C696 C698 1.391 . S
C697 C696 1.386 . S
C697 C701 1.393 . S
C698 H690 0.950 . S
C698 C696 1.391 . S
C698 C699 1.400 . S
C699 C698 1.400 . S
C699 C700 1.398 . S
C699 C705 1.491 . S
C700 H691 0.950 . S
C700 C699 1.398 . S
C700 C701 1.391 . S
C701 H689 0.950 . S
C701 C697 1.393 . S
C701 C700 1.391 . S
C702 H692 0.950 . S
C702 C703 1.386 . S
C702 C704 1.391 . S
C703 C702 1.386 . S
C703 C707 1.393 . S
C704 H693 0.950 . S
C704 C702 1.391 . S
C704 C705 1.400 . S
C705 C699 1.491 . S
C705 C704 1.400 . S
C705 C706 1.398 . S
C706 H694 0.950 . S
C706 C705 1.398 . S
C706 C707 1.391 . S
C707 H695 0.950 . S
C707 C703 1.393 . S
C707 C706 1.391 . S
H708 C716 0.950 . S
H709 C721 0.950 . S
H710 C718 0.950 . S
H711 C720 0.950 . S
H712 C722 0.950 . S
H713 C724 0.950 . S
H714 C726 0.950 . S
H715 C727 0.950 . S
C716 H708 0.950 . S
C716 C717 1.386 . S
C716 C718 1.391 . S
C717 C716 1.386 . S
C717 C721 1.393 . S
C718 H710 0.950 . S
C718 C716 1.391 . S
C718 C719 1.400 . S
C719 C718 1.400 . S
C719 C720 1.398 . S
C719 C725 1.491 . S
C720 H711 0.950 . S
C720 C719 1.398 . S
C720 C721 1.391 . S
C721 H709 0.950 . S
C721 C717 1.393 . S
C721 C720 1.391 . S
C722 H712 0.950 . S
C722 C723 1.386 . S
C722 C724 1.391 . S
C723 C722 1.386 . S
C723 C727 1.393 . S
C724 H713 0.950 . S
C724 C722 1.391 . S
C724 C725 1.400 . S
C725 C719 1.491 . S
C725 C724 1.400 . S
C725 C726 1.398 . S
C726 H714 0.950 . S
C726 C725 1.398 . S
C726 C727 1.391 . S
C727 H715 0.950 . S
C727 C723 1.393 . S
C727 C726 1.391 . S
C257 C76 1.973 1_545 S
C263 C90 2.032 1_545 S
C283 C130 2.045 . S
C277 C87 2.006 . S
C303 C194 1.901 . S
C297 C54 1.798 . S
C323 C210 1.629 . S
C317 C65 1.489 . S
C343 C111 2.038 1_565 S
C337 C32 1.979 1_545 S
C357 C43 2.013 . S
C363 C151 2.055 . S
C377 C10 1.787 . S
C383 C185 1.890 . S
C397 C21 1.496 . S
C403 C231 1.641 1_655 S
C423 C105 0.449 . S
C417 C60 0.456 . S
C443 C145 0.729 . S
C437 C71 0.712 . S
C463 C181 0.687 . S
C457 C82 0.684 . S
C477 C49 0.551 . S
C483 C225 0.593 . S
C497 C16 0.465 . S
C503 C114 0.446 . S
C523 C154 0.696 . S
C517 C27 0.704 . S
C543 C192 0.700 . S
C537 C38 0.699 . S
C557 C5 0.551 . S
C563 C234 0.567 . S
C577 C59 1.803 1_556 S
C583 C112 2.017 . S
C597 C70 1.853 . S
C603 C152 2.027 . S
C623 C170 1.621 . S
C617 C81 1.609 . S
C643 C232 2.406 . S
C637 C48 2.157 . S
C657 C15 1.827 . S
C663 C101 2.024 . S
C683 C141 2.033 . S
C677 C26 1.850 1_565 S
C703 C191 1.609 . S
C697 C37 1.585 . S
C717 C4 2.174 . S
C723 C221 2.410 . S
