# Generated by pormake.
# Topology rtl, (3,6)-cn, num edge types: 1
# Building blocks:
#     Node 0, Type 0, BuildingBlock: QEWDON_clean_linker_0, # of connection points: 3
#     Node 1, Type 0, BuildingBlock: QEWDON_clean_linker_0, # of connection points: 3
#     Node 2, Type 0, BuildingBlock: QEWDON_clean_linker_0, # of connection points: 3
#     Node 3, Type 0, BuildingBlock: QEWDON_clean_linker_0, # of connection points: 3
#     Node 4, Type 1, BuildingBlock: KUMJIN_clean_sbu_1, # of connection points: 6
#     Node 5, Type 1, BuildingBlock: KUMJIN_clean_sbu_1, # of connection points: 6
#     Edge 6, Type (0, 1), BuildingBlock: TEMPAE_clean_linker_10, # of connection points: 2
#     Edge 7, Type (0, 1), BuildingBlock: TEMPAE_clean_linker_10, # of connection points: 2
#     Edge 8, Type (0, 1), BuildingBlock: TEMPAE_clean_linker_10, # of connection points: 2
#     Edge 9, Type (0, 1), BuildingBlock: TEMPAE_clean_linker_10, # of connection points: 2
#     Edge 10, Type (0, 1), BuildingBlock: TEMPAE_clean_linker_10, # of connection points: 2
#     Edge 11, Type (0, 1), BuildingBlock: TEMPAE_clean_linker_10, # of connection points: 2
#     Edge 12, Type (0, 1), BuildingBlock: TEMPAE_clean_linker_10, # of connection points: 2
#     Edge 13, Type (0, 1), BuildingBlock: TEMPAE_clean_linker_10, # of connection points: 2
#     Edge 14, Type (0, 1), BuildingBlock: TEMPAE_clean_linker_10, # of connection points: 2
#     Edge 15, Type (0, 1), BuildingBlock: TEMPAE_clean_linker_10, # of connection points: 2
#     Edge 16, Type (0, 1), BuildingBlock: TEMPAE_clean_linker_10, # of connection points: 2
#     Edge 17, Type (0, 1), BuildingBlock: TEMPAE_clean_linker_10, # of connection points: 2
# Relax obj value: 0.085
# Max RMSD: 0.273
# Mean RMSD: 0.209
data_MOF--net-rtl--node1-KUMJIN_clean_sbu_1--node2-QEWDON_clean_linker_0--edge1-TEMPAE_clean_linker_10
_symmetry_space_group_name_H-M    P1
_symmetry_Int_Tables_number       1
_symmetry_cell_setting            triclinic
loop_
_symmetry_equiv_pos_as_xyz
'x, y, z'
_cell_length_a     37.80852
_cell_length_b     37.737558
_cell_length_c     27.107898
_cell_angle_alpha  78.849075
_cell_angle_beta   100.80249
_cell_angle_gamma 91.683109
loop_
_atom_site_label
_atom_site_type_symbol
_atom_site_fract_x
_atom_site_fract_y
_atom_site_fract_z
_atom_type_partial_charge
H0 H 0.25817 0.85602 0.09801 0.0
C1 C 0.24122 0.86164 0.06039 0.0
C2 C 0.2062 0.87538 0.05427 0.0
C3 C 0.25483 0.85614 0.01761 0.0
H4 H 0.1602 0.89852 1.00018 0.0
C5 C 0.18569 0.88482 0.00478 0.0
C6 C 0.19848 0.87907 0.96145 0.0
C7 C 0.23313 0.86391 0.96867 0.0
C8 C 0.29358 0.84882 0.02226 0.0
H9 H 0.24412 0.85944 0.93624 0.0
C10 C 0.30686 0.81388 0.0249 0.0
C11 C 0.34388 0.80831 0.02596 0.0
C12 C 0.31722 0.87813 0.02101 0.0
H13 H 0.30734 0.90519 0.01866 0.0
C14 C 0.35358 0.87298 0.02147 0.0
H15 H 0.28843 0.79134 0.02646 0.0
C16 C 0.36679 0.83855 0.02344 0.0
H17 H 0.39502 0.83585 0.02222 0.0
H18 H 0.37156 0.89586 0.01965 0.0
H19 H 0.74625 0.70417 0.5981 0.0
C20 C 0.72888 0.6978 0.62615 0.0
C21 C 0.69773 0.67736 0.61546 0.0
C22 C 0.73881 0.70769 0.67433 0.0
H23 H 0.65329 0.64981 0.64449 0.0
C24 C 0.67627 0.66702 0.65262 0.0
C25 C 0.68522 0.67693 0.70071 0.0
C26 C 0.7163 0.6978 0.71085 0.0
C27 C 0.77462 0.72427 0.68916 0.0
H28 H 0.72345 0.70579 0.74772 0.0
C29 C 0.78876 0.75229 0.65565 0.0
C30 C 0.82351 0.76609 0.67044 0.0
C31 C 0.79569 0.71059 0.73737 0.0
H32 H 0.7861 0.68864 0.76357 0.0
C33 C 0.82974 0.72437 0.75212 0.0
H34 H 0.77299 0.76314 0.61835 0.0
C35 C 0.84359 0.75183 0.71906 0.0
H36 H 0.87003 0.76226 0.73182 0.0
H37 H 0.84559 0.71359 0.78935 0.0
H38 H 0.79154 0.19614 0.12379 0.0
C39 C 0.80408 0.19103 0.09305 0.0
C40 C 0.83858 0.17474 0.10397 0.0
C41 C 0.78494 0.19926 0.04225 0.0
H42 H 0.87827 0.15219 0.0707 0.0
C43 C 0.8533 0.16729 0.06309 0.0
C44 C 0.83563 0.1772 0.01227 0.0
C45 C 0.80139 0.1931 1.00211 0.0
C46 C 0.7464 0.21041 0.03056 0.0
H47 H 0.78713 0.2001 0.96289 0.0
C48 C 0.7339 0.23965 0.0484 0.0
C49 C 0.6972 0.25029 0.03421 0.0
C50 C 0.7218 0.19146 0.99972 0.0
H51 H 0.73053 0.16859 0.98614 0.0
C52 C 0.68575 0.20173 0.98581 0.0
H53 H 0.75268 0.25419 0.07247 0.0
C54 C 0.67359 0.23102 1.00237 0.0
H55 H 0.64559 0.23894 0.98922 0.0
H56 H 0.6672 0.18716 0.96153 0.0
H57 H 0.34341 0.29791 0.52408 0.0
C58 C 0.35204 0.31263 0.48994 0.0
C59 C 0.3687 0.34634 0.49079 0.0
C60 C 0.34926 0.29672 0.44647 0.0
H61 H 0.39288 0.39129 0.44817 0.0
C62 C 0.38104 0.36487 0.44727 0.0
C63 C 0.37903 0.34954 0.4036 0.0
C64 C 0.36269 0.31551 0.40352 0.0
C65 C 0.33637 0.25886 0.44755 0.0
H66 H 0.36148 0.30289 0.37061 0.0
C67 C 0.30497 0.24619 0.46662 0.0
C68 C 0.29371 0.21003 0.46702 0.0
C69 C 0.35634 0.23484 0.42957 0.0
H70 H 0.38093 0.24338 0.4158 0.0
C71 C 0.34522 0.19938 0.42959 0.0
H72 H 0.28944 0.26432 0.48089 0.0
C73 C 0.31417 0.18709 0.44785 0.0
H74 H 0.30591 0.15953 0.44632 0.0
H75 H 0.36074 0.1813 0.41527 0.0
Eu76 Eu 0.04142 0.99238 0.49882 0.0
C77 C 0.95815 0.13416 0.50349 0.0
N78 N 0.99031 0.12179 0.53255 0.0
C79 C 1.01371 0.18193 0.52302 0.0
C80 C 0.95272 0.17128 0.48261 0.0
C81 C 0.01785 0.14495 0.54295 0.0
C82 C 0.98101 0.19517 0.49269 0.0
C83 C 0.89773 0.12163 0.46161 0.0
C84 C 0.93093 0.10949 0.49306 0.0
C85 C 0.89219 0.1586 0.44127 0.0
C86 C 0.91954 0.18335 0.45186 0.0
Eu87 Eu 0.99423 0.05931 0.56578 0.0
N88 N 0.9372 0.07365 0.5125 0.0
C89 C 0.87102 0.09624 0.45142 0.0
C90 C 0.91043 0.04915 0.50493 0.0
C91 C 0.87729 0.05991 0.47357 0.0
H92 H 0.04277 0.13505 0.56761 0.0
H93 H 0.85639 0.04021 0.46715 0.0
H94 H 0.992 0.91739 0.49383 0.0
H95 H 0.17969 1.00814 0.59812 0.0
H96 H 0.91383 0.02143 0.52376 0.0
H97 H 0.84526 0.10448 0.42723 0.0
H98 H 0.12296 0.02785 0.54008 0.0
H99 H 0.03564 0.20022 0.53135 0.0
H100 H 0.86689 0.16832 0.41699 0.0
H101 H 0.91493 0.21175 0.43549 0.0
H102 H 0.99682 0.85236 0.53186 0.0
H103 H 0.9779 0.22384 0.47725 0.0
H104 H 0.18865 0.94399 0.64021 0.0
N105 N 0.04388 0.92973 0.53183 0.0
C106 C 0.07539 0.91671 0.56225 0.0
C107 C 0.01901 0.87018 0.54103 0.0
C108 C 0.07961 0.87962 0.58402 0.0
C109 C 0.0161 0.9071 0.5202 0.0
C110 C 0.05085 0.85638 0.57325 0.0
N111 N 0.09802 0.97657 0.55261 0.0
C112 C 0.12552 1.00033 0.55984 0.0
C113 C 0.13584 0.92796 0.60537 0.0
C114 C 0.1032 0.94071 0.5729 0.0
C115 C 0.16326 0.95271 0.61535 0.0
C116 C 0.15821 0.98897 0.59198 0.0
H117 H 0.05302 0.82775 0.58937 0.0
H118 H 0.1158 0.83857 0.63332 0.0
H119 H 0.16494 0.88084 0.65205 0.0
O120 O 0.07561 1.00575 0.44123 0.0
O121 O 0.04282 0.97723 0.58453 0.0
O122 O 0.04519 0.03112 0.61238 0.0
O123 O 0.04161 0.95874 0.4418 0.0
O124 O 0.06127 0.05059 0.49313 0.0
O125 O 0.05368 0.06976 0.56661 0.0
O126 O 0.95996 0.04616 0.62312 0.0
O127 O 0.99384 0.07488 0.48045 0.0
O128 O 0.99066 0.02114 0.45203 0.0
O129 O 0.9947 0.09261 0.62342 0.0
O130 O 0.97536 1.00088 0.57272 0.0
O131 O 0.98196 0.98247 0.49847 0.0
C132 C 0.05214 0.9964 0.6204 0.0
C133 C 0.05684 0.98601 0.363 0.0
C134 C 0.07181 0.97604 0.28289 0.0
C135 C 0.04152 0.99705 0.25603 0.0
C136 C 0.02711 1.00711 0.33566 0.0
C137 C 0.01951 1.0126 0.28232 0.0
C138 C 0.07924 0.97086 0.33668 0.0
C139 C 0.0697 0.07187 0.52693 0.0
C140 C 0.06466 0.97866 0.41905 0.0
C141 C 0.11213 0.86695 0.61617 0.0
C142 C 0.14011 0.89104 0.62687 0.0
C143 C 0.98382 0.05592 0.44448 0.0
C144 C 0.9805 0.06386 0.70219 0.0
C145 C 0.96889 0.0732 0.78431 0.0
C146 C 0.99737 0.04915 0.80922 0.0
C147 C 1.00835 0.03963 0.72754 0.0
C148 C 0.9607 0.08029 0.73049 0.0
C149 C 0.01681 0.0324 0.7809 0.0
C150 C 0.9675 0.97901 0.53972 0.0
C151 C 0.97171 0.0726 0.64623 0.0
H152 H 0.03445 1.0011 0.21473 0.0
H153 H 1.0098 0.01908 0.3556 0.0
H154 H 0.99632 0.02869 0.26129 0.0
H155 H 0.10257 0.95519 0.35833 0.0
H156 H 1.00488 0.04351 0.85053 0.0
H157 H 0.02337 0.02642 0.70601 0.0
H158 H 0.93861 0.09829 0.71037 0.0
H159 H 0.03857 0.01387 0.80036 0.0
Eu160 Eu 0.48087 0.50232 0.99291 0.0
C161 C 0.62667 0.5731 0.05432 0.0
N162 N 0.61335 0.54195 0.07833 0.0
C163 C 0.66944 0.51172 0.08454 0.0
C164 C 0.66158 0.57428 0.04267 0.0
C165 C 0.635 0.51216 0.09624 0.0
C166 C 0.68257 0.54274 0.0568 0.0
C167 C 0.62012 0.63777 0.02255 0.0
C168 C 0.60624 0.6045 0.04419 0.0
C169 C 0.65432 0.63877 0.00928 0.0
C170 C 0.67494 0.60707 0.01911 0.0
Eu171 Eu 0.55379 0.54532 0.09341 0.0
N172 N 0.57293 0.60264 0.05644 0.0
C173 C 0.59932 0.6691 0.01546 0.0
C174 C 0.55316 0.6332 0.0518 0.0
C175 C 0.56584 0.66683 0.03061 0.0
H176 H 0.62627 0.48891 0.12072 0.0
H177 H 0.54983 0.69095 0.02607 0.0
H178 H 0.40551 0.54071 0.0059 0.0
H179 H 0.51525 0.35864 0.02372 0.0
H180 H 0.52749 0.63149 0.06411 0.0
H181 H 0.60905 0.69516 0.99892 0.0
H182 H 0.51958 0.42336 0.98792 0.0
H183 H 0.68611 0.48769 0.09786 0.0
H184 H 0.66529 0.66401 0.99207 0.0
H185 H 0.70159 0.6084 0.00955 0.0
H186 H 0.351 0.52314 0.043 0.0
H187 H 0.70947 0.54251 0.04843 0.0
H188 H 0.46656 0.33688 0.07125 0.0
N189 N 0.42785 0.48775 0.0263 0.0
C190 C 0.42296 0.45233 0.04563 0.0
C191 C 0.37112 0.50302 0.04422 0.0
C192 C 0.39216 0.44102 0.06657 0.0
C193 C 0.40196 0.51292 0.02344 0.0
C194 C 0.36635 0.46696 0.06631 0.0
N195 N 0.47722 0.43899 0.02104 0.0
C196 C 0.49979 0.41462 0.01146 0.0
C197 C 0.44405 0.39031 0.06273 0.0
C198 C 0.4487 0.42735 0.04376 0.0
C199 C 0.46915 0.36554 0.05713 0.0
C200 C 0.49677 0.37772 0.03054 0.0
H201 H 0.34239 0.45934 0.08227 0.0
H202 H 0.36407 0.39499 0.10178 0.0
H203 H 0.40985 0.35068 0.09957 0.0
O204 O 0.45738 0.47505 0.93033 0.0
O205 O 0.47281 0.50387 0.07338 0.0
O206 O 0.52829 0.49209 0.12291 0.0
O207 O 0.4507 0.53263 0.92127 0.0
O208 O 0.53874 0.48155 0.00708 0.0
O209 O 0.56257 0.48613 0.09073 0.0
O210 O 0.53889 0.56766 0.15518 0.0
O211 O 0.54176 0.57114 0.00856 0.0
O212 O 0.53284 0.52305 0.96814 0.0
O213 O 0.59361 0.55013 0.16153 0.0
O214 O 0.49657 0.56742 0.07785 0.0
O215 O 0.47178 0.56151 0.9945 0.0
C216 C 0.49344 0.48679 0.11486 0.0
C217 C 0.45587 0.50929 0.84777 0.0
C218 C 0.44795 0.49103 0.76471 0.0
C219 C 0.47454 0.51595 0.75104 0.0
C220 C 0.48254 0.53378 0.83353 0.0
C221 C 0.49171 0.53708 0.78533 0.0
C222 C 0.43878 0.48791 0.81334 0.0
C223 C 0.56159 0.47104 0.05046 0.0
C224 C 0.44635 0.50481 0.89885 0.0
C225 C 0.38781 0.40426 0.08623 0.0
C226 C 0.41384 0.37901 0.08478 0.0
C227 C 0.54584 0.55535 0.97089 0.0
C228 C 0.57197 0.54732 0.23819 0.0
C229 C 0.5902 0.55275 0.32769 0.0
C230 C 0.57442 0.51899 0.34223 0.0
C231 C 0.55642 0.51373 0.25331 0.0
C232 C 0.58879 0.56667 0.27531 0.0
C233 C 0.55769 0.49968 0.30521 0.0
C234 C 0.47392 0.57747 0.03422 0.0
C235 C 0.57069 0.56292 0.18396 0.0
H236 H 0.48255 0.51861 0.71418 0.0
H237 H 0.49638 0.55023 0.85966 0.0
H238 H 0.51239 0.5559 0.77465 0.0
H239 H 0.41826 0.46894 0.82441 0.0
H240 H 0.57537 0.50731 0.38223 0.0
H241 H 0.54333 0.49848 0.2251 0.0
H242 H 0.60029 0.59285 0.26324 0.0
H243 H 0.54575 0.47372 0.3168 0.0
C244 C 0.22789 0.21513 0.47116 0.0
C245 C 0.26039 0.19555 0.48574 0.0
C246 C 0.1953 0.19899 0.48167 0.0
C247 C 0.19521 0.16238 0.5069 0.0
C248 C 0.22827 0.14331 0.52441 0.0
C249 C 0.26035 0.1602 0.51407 0.0
C250 C 0.16076 0.22051 0.46331 0.0
C251 C 0.22957 0.10424 0.55134 0.0
C252 C 0.11526 0.11615 0.55974 0.0
C253 C 0.09982 0.09779 0.52064 0.0
C254 C 0.14522 0.13879 0.55488 0.0
C255 C 0.16062 0.14259 0.51033 0.0
C256 C 0.14461 0.12479 0.47032 0.0
C257 C 0.1144 0.1029 0.47581 0.0
C258 C 0.1611 0.15768 0.59811 0.0
C259 C 0.16027 0.12769 0.42236 0.0
H260 H 0.22757 0.24241 0.44926 0.0
H261 H 0.28544 0.14512 0.5266 0.0
H262 H 0.14466 0.21064 0.43011 0.0
H263 H 0.14429 0.21687 0.49376 0.0
H264 H 0.16582 0.24979 0.45141 0.0
H265 H 0.25759 0.09402 0.56567 0.0
H266 H 0.21525 0.10078 0.58408 0.0
H267 H 0.21564 0.08728 0.52453 0.0
H268 H 0.10453 0.11222 0.59475 0.0
H269 H 0.10272 0.08904 0.44518 0.0
H270 H 0.16592 0.18656 0.58313 0.0
H271 H 0.1875 0.14525 0.61764 0.0
H272 H 0.14336 0.15591 0.62685 0.0
H273 H 0.16257 0.15645 0.40432 0.0
H274 H 0.14373 0.1135 0.39385 0.0
H275 H 0.18781 0.11586 0.43229 0.0
C276 C 0.39436 0.76272 0.05527 0.0
C277 C 0.35909 0.7716 0.02892 0.0
C278 C 0.41065 0.72994 0.05468 0.0
C279 C 0.39084 0.70445 0.02878 0.0
C280 C 0.35468 0.71227 0.00416 0.0
C281 C 0.33937 0.7459 0.00394 0.0
C282 C 0.44943 0.72295 0.08092 0.0
C283 C 0.33234 0.68532 0.97742 0.0
C284 C 0.44674 0.6368 0.9881 0.0
C285 C 0.44977 0.60823 0.03012 0.0
C286 C 0.4268 0.668 0.98644 0.0
C287 C 0.40854 0.67001 0.02702 0.0
C288 C 0.41002 0.64021 0.06819 0.0
C289 C 0.43122 0.60993 0.06971 0.0
C290 C 0.42685 0.69951 0.94264 0.0
C291 C 0.39008 0.6407 0.11137 0.0
H292 H 0.40961 0.78164 0.0762 0.0
H293 H 0.31226 0.75231 0.98312 0.0
H294 H 0.45136 0.6986 0.11168 0.0
H295 H 0.46577 0.71759 0.0531 0.0
H296 H 0.46145 0.74605 0.09799 0.0
H297 H 0.30382 0.69417 0.96387 0.0
H298 H 0.34374 0.6814 0.94401 0.0
H299 H 0.3331 0.6587 0.00358 0.0
H300 H 0.46143 0.63545 0.95776 0.0
H301 H 0.43339 0.58755 0.10197 0.0
H302 H 0.44058 0.72279 0.95737 0.0
H303 H 0.39888 0.70818 0.92458 0.0
H304 H 0.44079 0.69296 0.91287 0.0
H305 H 0.4028 0.66036 0.13475 0.0
H306 H 0.39018 0.61379 0.13677 0.0
H307 H 0.36176 0.64953 0.09597 0.0
C308 C 0.87535 0.79303 0.63111 0.0
C309 C 0.83946 0.7958 0.63685 0.0
C310 C 0.8935 0.8229 0.60821 0.0
C311 C 0.87537 0.85655 0.59046 0.0
C312 C 0.83836 0.85889 0.59283 0.0
C313 C 0.82079 0.82843 0.61597 0.0
C314 C 0.93281 0.81899 0.60608 0.0
C315 C 0.81795 0.89415 0.57404 0.0
C316 C 0.93581 0.93801 0.60116 0.0
C317 C 0.94203 0.94901 0.55105 0.0
C318 C 0.91334 0.90873 0.61391 0.0
C319 C 0.89642 0.88981 0.57564 0.0
C320 C 0.90168 0.9014 0.52459 0.0
C321 C 0.92435 0.93094 0.51287 0.0
C322 C 0.90863 0.89738 0.66886 0.0
C323 C 0.88407 0.88209 0.48265 0.0
H324 H 0.88976 0.7677 0.64656 0.0
H325 H 0.7931 0.83078 0.62044 0.0
H326 H 0.93775 0.82999 0.56699 0.0
H327 H 0.94942 0.83477 0.63238 0.0
H328 H 0.94208 0.7904 0.61716 0.0
H329 H 0.78846 0.89042 0.57163 0.0
H330 H 0.82731 0.91286 0.60066 0.0
H331 H 0.82321 0.90724 0.53582 0.0
H332 H 0.94926 0.95176 0.63101 0.0
H333 H 0.9285 0.93964 0.47387 0.0
H334 H 0.91995 0.86984 0.68461 0.0
H335 H 0.87959 0.89631 0.67101 0.0
H336 H 0.92215 0.91601 0.69349 0.0
H337 H 0.89542 0.85439 0.48985 0.0
H338 H 0.88818 0.89633 0.44428 0.0
H339 H 0.85474 0.87939 0.48239 0.0
C340 C 0.64774 0.28167 0.05962 0.0
C341 C 0.68298 0.2822 0.0498 0.0
C342 C 0.631 0.31311 0.06462 0.0
C343 C 0.65032 0.3459 0.06171 0.0
C344 C 0.68693 0.34606 0.05642 0.0
C345 C 0.70273 0.31431 0.04991 0.0
C346 C 0.59176 0.31167 0.06933 0.0
C347 C 0.70888 0.38016 0.05508 0.0
C348 C 0.59315 0.4307 0.00906 0.0
C349 C 0.58675 0.44074 0.05382 0.0
C350 C 0.61446 0.40042 0.01118 0.0
C351 C 0.63096 0.38029 0.05929 0.0
C352 C 0.62627 0.39145 0.10464 0.0
C353 C 0.60371 0.42113 0.1014 0.0
C354 C 0.61805 0.38912 0.96184 0.0
C355 C 0.64424 0.37144 0.15662 0.0
H356 H 0.63254 0.2568 0.06133 0.0
H357 H 0.72995 0.31519 0.04247 0.0
H358 H 0.58747 0.32435 0.10139 0.0
H359 H 0.57551 0.32719 0.03374 0.0
H360 H 0.58146 0.28359 0.07547 0.0
H361 H 0.73812 0.37458 0.05962 0.0
H362 H 0.70013 0.39876 0.01796 0.0
H363 H 0.70457 0.39434 0.08576 0.0
H364 H 0.58066 0.44599 0.97209 0.0
H365 H 0.59891 0.42858 0.13626 0.0
H366 H 0.60644 0.36182 0.9611 0.0
H367 H 0.64685 0.38745 0.95926 0.0
H368 H 0.60414 0.40811 0.92757 0.0
H369 H 0.63147 0.34469 0.16529 0.0
H370 H 0.64214 0.38644 0.18743 0.0
H371 H 0.67312 0.3666 0.15707 0.0
C372 C 0.15467 0.87519 0.10005 0.0
C373 C 0.191 0.8828 0.0981 0.0
C374 C 0.13748 0.88798 0.13472 0.0
C375 C 0.15724 0.90836 0.16911 0.0
C376 C 0.19461 0.91377 0.1701 0.0
C377 C 0.21106 0.90108 0.13432 0.0
C378 C 0.0976 0.88162 0.13221 0.0
C379 C 0.21676 0.93465 0.20704 0.0
C380 C 0.10253 0.97768 0.20785 0.0
C381 C 0.09531 0.95926 0.25504 0.0
C382 C 0.12332 0.96169 0.18015 0.0
C383 C 0.13789 0.92661 0.20044 0.0
C384 C 0.1318 0.90829 0.24878 0.0
C385 C 0.11029 0.92465 0.27522 0.0
C386 C 0.1289 0.98202 0.12846 0.0
C387 C 0.14724 0.87106 0.27199 0.0
H388 H 0.13921 0.86046 0.07276 0.0
H389 H 0.2391 0.90716 0.13298 0.0
H390 H 0.09193 0.87006 0.17075 0.0
H391 H 0.0829 0.90776 0.11883 0.0
H392 H 0.08673 0.86311 0.10583 0.0
H393 H 0.24609 0.93218 0.20788 0.0
H394 H 0.20912 0.96364 0.19566 0.0
H395 H 0.21136 0.92508 0.24627 0.0
H396 H 0.09183 1.00468 0.19233 0.0
H397 H 0.10458 0.90985 0.31126 0.0
H398 H 0.11696 0.96668 0.0984 0.0
H399 H 0.15808 0.98475 0.12766 0.0
H400 H 0.11651 1.00942 0.11865 0.0
H401 H 0.13415 0.85131 0.24903 0.0
H402 H 0.14325 0.86209 0.31208 0.0
H403 H 0.17648 0.87055 0.27135 0.0
C404 C 0.62604 0.65941 0.7284 0.0
C405 C 0.66361 0.66284 0.74117 0.0
C406 C 0.6058 0.6429 0.76502 0.0
C407 C 0.62336 0.62992 0.816 0.0
C408 C 0.66106 0.63427 0.82958 0.0
C409 C 0.6807 0.65053 0.79207 0.0
C410 C 0.56569 0.63866 0.74888 0.0
C411 C 0.68072 0.6217 0.88376 0.0
C412 C 0.56731 0.61228 0.92117 0.0
C413 C 0.56445 0.57456 0.93002 0.0
C414 C 0.58645 0.63069 0.88438 0.0
C415 C 0.60245 0.61095 0.85478 0.0
C416 C 0.59857 0.5729 0.86234 0.0
C417 C 0.57975 0.55517 0.89998 0.0
C418 C 0.59008 0.67119 0.87793 0.0
C419 C 0.61475 0.55087 0.83111 0.0
H420 H 0.61239 0.66934 0.68949 0.0
H421 H 0.70968 0.65258 0.80245 0.0
H422 H 0.55874 0.60957 0.75487 0.0
H423 H 0.55104 0.6514 0.77283 0.0
H424 H 0.55595 0.65092 0.70804 0.0
H425 H 0.71042 0.62351 0.88706 0.0
H426 H 0.67235 0.6388 0.90855 0.0
H427 H 0.67362 0.59341 0.89858 0.0
H428 H 0.55456 0.6275 0.9431 0.0
H429 H 0.57744 0.526 0.90635 0.0
H430 H 0.58289 0.68417 0.83699 0.0
H431 H 0.61851 0.67803 0.8916 0.0
H432 H 0.57281 0.68291 0.89975 0.0
H433 H 0.60453 0.56079 0.78974 0.0
H434 H 0.60847 0.52168 0.84066 0.0
H435 H 0.64444 0.55406 0.83782 0.0
C436 C 0.8969 0.16129 0.16635 0.0
C437 C 0.85902 0.1628 0.15738 0.0
C438 C 0.91674 0.1437 0.21311 0.0
C439 C 0.8987 0.12986 0.25384 0.0
C440 C 0.86091 0.13423 0.247 0.0
C441 C 0.84136 0.14982 0.19849 0.0
C442 C 0.9569 0.13877 0.2182 0.0
C443 C 0.8411 0.12177 0.29067 0.0
C444 C 0.94413 0.05481 0.35942 0.0
C445 C 0.96251 0.07449 0.39509 0.0
C446 C 0.92337 0.07249 0.31311 0.0
C447 C 0.91968 0.11062 0.30329 0.0
C448 C 0.9379 0.13055 0.33934 0.0
C449 C 0.95982 0.11232 0.38402 0.0
C450 C 0.90607 0.05046 0.27424 0.0
C451 C 0.93395 0.17111 0.33108 0.0
H452 H 0.91128 0.17279 0.13607 0.0
H453 H 0.81225 0.15074 0.19265 0.0
H454 H 0.97167 0.15286 0.24804 0.0
H455 H 0.9641 0.10967 0.23037 0.0
H456 H 0.96645 0.14928 0.18181 0.0
H457 H 0.81234 0.13024 0.28057 0.0
H458 H 0.84244 0.09191 0.30174 0.0
H459 H 0.8541 0.13281 0.3247 0.0
H460 H 0.94609 0.0256 0.3675 0.0
H461 H 0.97475 0.1279 0.41048 0.0
H462 H 0.91522 0.0602 0.2374 0.0
H463 H 0.8764 0.05385 0.26687 0.0
H464 H 0.91265 0.02123 0.28696 0.0
H465 H 0.95156 0.18278 0.36147 0.0
H466 H 0.90553 0.17808 0.33044 0.0
H467 H 0.94047 0.18418 0.29363 0.0
C468 C 0.41292 0.36908 0.55719 0.0
C469 C 0.37705 0.36136 0.53821 0.0
C470 C 0.4218 0.38764 0.59778 0.0
C471 C 0.39405 0.3991 0.61977 0.0
C472 C 0.35781 0.38994 0.60228 0.0
C473 C 0.34972 0.37095 0.56167 0.0
C474 C 0.46081 0.39641 0.61553 0.0
C475 C 0.32752 0.40171 0.62473 0.0
C476 C 0.42666 0.43061 0.74552 0.0
C477 C 0.43058 0.46784 0.72858 0.0
C478 C 0.41312 0.40799 0.71088 0.0
C479 C 0.40315 0.42299 0.65811 0.0
C480 C 0.40554 0.46077 0.6412 0.0
C481 C 0.41931 0.48269 0.67658 0.0
C482 C 0.41117 0.36784 0.7304 0.0
C483 C 0.39497 0.47792 0.58534 0.0
H484 H 0.43405 0.36136 0.53917 0.0
H485 H 0.32197 0.36505 0.54676 0.0
H486 H 0.46474 0.42605 0.60636 0.0
H487 H 0.46848 0.38779 0.65764 0.0
H488 H 0.47929 0.38315 0.59716 0.0
H489 H 0.30147 0.38927 0.61081 0.0
H490 H 0.33373 0.39455 0.66711 0.0
H491 H 0.32445 0.43151 0.61418 0.0
H492 H 0.43554 0.41892 0.78561 0.0
H493 H 0.42172 0.51152 0.66342 0.0
H494 H 0.43178 0.35376 0.71687 0.0
H495 H 0.38451 0.35731 0.71509 0.0
H496 H 0.41593 0.36095 0.77287 0.0
H497 H 0.41385 0.4689 0.56337 0.0
H498 H 0.39539 0.50789 0.57905 0.0
H499 H 0.3676 0.4692 0.56955 0.0
C500 C 0.66711 0.68334 0.52441 0.0
C501 C 0.68877 0.66318 0.56767 0.0
C502 C 0.65291 0.66753 0.48207 0.0
C503 C 0.66049 0.63072 0.48352 0.0
C504 C 0.68376 0.61086 0.52644 0.0
C505 C 0.69751 0.62735 0.56813 0.0
C506 C 0.6283 0.68961 0.43702 0.0
C507 C 0.69259 0.57164 0.52953 0.0
C508 C 0.59204 0.57567 0.40906 0.0
C509 C 0.60793 0.57346 0.36696 0.0
C510 C 0.60861 0.59473 0.44673 0.0
C511 C 0.64192 0.61206 0.44228 0.0
C512 C 0.65792 0.61035 0.39959 0.0
C513 C 0.64075 0.59105 0.36246 0.0
C514 C 0.59059 0.59601 0.49161 0.0
C515 C 0.69343 0.6284 0.39357 0.0
H516 H 0.66005 0.71094 0.52468 0.0
H517 H 0.71394 0.6118 0.6021 0.0
H518 H 0.6367 0.68718 0.40072 0.0
H519 H 0.60045 0.67916 0.43529 0.0
H520 H 0.62801 0.71864 0.43954 0.0
H521 H 0.71347 0.56099 0.56346 0.0
H522 H 0.66791 0.5552 0.53177 0.0
H523 H 0.70221 0.56804 0.49458 0.0
H524 H 0.56642 0.56268 0.41238 0.0
H525 H 0.65341 0.58917 0.33033 0.0
H526 H 0.58609 0.62447 0.49414 0.0
H527 H 0.60836 0.5833 0.52774 0.0
H528 H 0.56432 0.58186 0.48878 0.0
H529 H 0.6918 0.65748 0.39499 0.0
H530 H 0.70152 0.62589 0.35705 0.0
H531 H 0.71483 0.61615 0.42575 0.0
C532 C 0.83291 0.15217 0.93217 0.0
C533 C 0.85271 0.16844 0.9709 0.0
C534 C 0.85014 0.13907 0.89757 0.0
C535 C 0.88802 0.142 0.90228 0.0
C536 C 0.90783 0.15999 0.93966 0.0
C537 C 0.88989 0.17328 0.97314 0.0
C538 C 0.82804 0.12064 0.85753 0.0
C539 C 0.94826 0.16357 0.9461 0.0
C540 C 0.93894 0.07154 0.85995 0.0
C541 C 0.94766 0.09078 0.81414 0.0
C542 C 0.91922 0.08782 0.88865 0.0
C543 C 0.9074 0.12408 0.87077 0.0
C544 C 0.9155 0.1435 0.82418 0.0
C545 C 0.93582 0.12675 0.79669 0.0
C546 C 0.91143 0.06632 0.9385 0.0
C547 C 0.90309 0.1821 0.80369 0.0
H548 H 0.80423 0.14816 0.93035 0.0
H549 H 0.90523 0.18646 1.00238 0.0
H550 H 0.83486 0.1314 0.8194 0.0
H551 H 0.83439 0.09131 0.86681 0.0
H552 H 0.79866 0.12415 0.85514 0.0
H553 H 0.95938 0.18018 0.97501 0.0
H554 H 0.96097 0.13638 0.95827 0.0
H555 H 0.95606 0.17597 0.90916 0.0
H556 H 0.94733 0.04358 0.87332 0.0
H557 H 0.94285 0.14209 0.76179 0.0
H558 H 0.88195 0.06502 0.93741 0.0
H559 H 0.92342 0.07992 0.97048 0.0
H560 H 0.9223 0.03833 0.94684 0.0
H561 H 0.87357 0.18421 0.80121 0.0
H562 H 0.90957 0.19265 0.76525 0.0
H563 H 0.91609 0.19963 0.83025 0.0
C564 C 0.3809 0.36552 0.30904 0.0
C565 C 0.39575 0.36834 0.35966 0.0
C566 C 0.39665 0.38302 0.26782 0.0
C567 C 0.42736 0.4049 0.27697 0.0
C568 C 0.44242 0.40805 0.32778 0.0
C569 C 0.42697 0.38923 0.36838 0.0
C570 C 0.38035 0.37814 0.21442 0.0
C571 C 0.47476 0.4316 0.33933 0.0
C572 C 0.48983 0.43133 0.1808 0.0
C573 C 0.47666 0.46568 0.15595 0.0
C574 C 0.47309 0.41057 0.2188 0.0
C575 C 0.44345 0.4252 0.23358 0.0
C576 C 0.43022 0.46005 0.20844 0.0
C577 C 0.44659 0.47958 0.16926 0.0
C578 C 0.48705 0.37296 0.24298 0.0
C579 C 0.39938 0.47716 0.22378 0.0
H580 H 0.35667 0.34994 0.30135 0.0
H581 H 0.43965 0.39086 0.40715 0.0
H582 H 0.37009 0.40445 0.19085 0.0
H583 H 0.40126 0.3685 0.19631 0.0
H584 H 0.35781 0.35857 0.21388 0.0
H585 H 0.48192 0.43291 0.38059 0.0
H586 H 0.49834 0.42102 0.32768 0.0
H587 H 0.46943 0.45945 0.317 0.0
H588 H 0.51269 0.42042 0.16962 0.0
H589 H 0.43641 0.50617 0.14975 0.0
H590 H 0.46467 0.35331 0.24036 0.0
H591 H 0.49817 0.37161 0.28417 0.0
H592 H 0.50842 0.36455 0.22446 0.0
H593 H 0.37509 0.46005 0.2193 0.0
H594 H 0.39255 0.50458 0.20066 0.0
H595 H 0.40644 0.47921 0.26476 0.0
C596 C 0.19308 0.90463 0.86678 0.0
C597 C 0.17653 0.89184 0.90913 0.0
C598 C 0.17266 0.9197 0.81878 0.0
C599 C 0.13501 0.92392 0.8135 0.0
C600 C 0.11799 0.91077 0.85554 0.0
C601 C 0.13872 0.89376 0.90208 0.0
C602 C 0.19145 0.93169 0.7739 0.0
C603 C 0.07798 0.91567 0.85189 0.0
C604 C 0.09059 0.99811 0.706 0.0
C605 C 0.07254 0.9781 0.67055 0.0
C606 C 0.11032 0.98077 0.75323 0.0
C607 C 0.1134 0.94261 0.76424 0.0
C608 C 0.09539 0.92229 0.72852 0.0
C609 C 0.07449 0.94025 0.68275 0.0
C610 C 0.12759 1.00328 0.79151 0.0
C611 C 0.09882 0.88164 0.73805 0.0
H612 H 0.2221 0.90391 0.87105 0.0
H613 H 0.12509 0.88268 0.93333 0.0
H614 H 0.17798 0.91993 0.74077 0.0
H615 H 0.18967 0.96148 0.76187 0.0
H616 H 0.22031 0.92359 0.78309 0.0
H617 H 0.06914 0.90528 0.88883 0.0
H618 H 0.07073 0.94476 0.83975 0.0
H619 H 0.06267 0.9015 0.82251 0.0
H620 H 0.08915 0.02735 0.69701 0.0
H621 H 0.05986 0.92448 0.65631 0.0
H622 H 0.15729 1.00028 0.79836 0.0
H623 H 0.11886 0.99367 0.82869 0.0
H624 H 0.12062 0.0324 0.77843 0.0
H625 H 0.12713 0.87414 0.73895 0.0
H626 H 0.08105 0.86969 0.70808 0.0
H627 H 0.09216 0.86932 0.77572 0.0
loop_
_geom_bond_atom_site_label_1
_geom_bond_atom_site_label_2
_geom_bond_distance
_geom_bond_site_symmetry_2
_ccdc_geom_bond_type
H0 C1 0.949 . S
C1 H0 0.949 . S
C1 C2 1.395 . S
C1 C3 1.391 . S
C2 C1 1.395 . S
C2 C5 1.390 . S
C3 C1 1.391 . S
C3 C7 1.387 1_554 S
C3 C8 1.491 . S
H4 C5 0.950 . S
C5 C2 1.390 . S
C5 H4 0.950 . S
C5 C6 1.378 1_554 S
C6 C5 1.378 1_556 S
C6 C7 1.409 . S
C7 C3 1.387 1_556 S
C7 C6 1.409 . S
C7 H9 0.951 . S
C8 C3 1.491 . S
C8 C10 1.382 . S
C8 C12 1.404 1_554 S
H9 C7 0.951 . S
C10 C8 1.382 . S
C10 C11 1.390 . S
C10 H15 0.949 . S
C11 C10 1.390 . S
C11 C16 1.399 . S
C12 C8 1.404 1_556 S
C12 H13 0.950 . S
C12 C14 1.375 . S
H13 C12 0.950 . S
C14 C12 1.375 . S
C14 C16 1.382 1_556 S
C14 H18 0.950 . S
H15 C10 0.949 . S
C16 C11 1.399 . S
C16 C14 1.382 1_554 S
C16 H17 0.952 . S
H17 C16 0.952 . S
H18 C14 0.950 . S
H19 C20 0.949 . S
C20 H19 0.949 . S
C20 C21 1.395 . S
C20 C22 1.391 . S
C21 C20 1.395 . S
C21 C24 1.390 . S
C22 C20 1.391 . S
C22 C26 1.387 . S
C22 C27 1.491 . S
H23 C24 0.950 . S
C24 C21 1.390 . S
C24 H23 0.950 . S
C24 C25 1.378 . S
C25 C24 1.378 . S
C25 C26 1.409 . S
C26 C22 1.387 . S
C26 C25 1.409 . S
C26 H28 0.951 . S
C27 C22 1.491 . S
C27 C29 1.382 . S
C27 C31 1.404 . S
H28 C26 0.951 . S
C29 C27 1.382 . S
C29 C30 1.390 . S
C29 H34 0.949 . S
C30 C29 1.390 . S
C30 C35 1.399 . S
C31 C27 1.404 . S
C31 H32 0.950 . S
C31 C33 1.375 . S
H32 C31 0.950 . S
C33 C31 1.375 . S
C33 C35 1.382 . S
C33 H37 0.950 . S
H34 C29 0.949 . S
C35 C30 1.399 . S
C35 C33 1.382 . S
C35 H36 0.952 . S
H36 C35 0.952 . S
H37 C33 0.950 . S
H38 C39 0.949 . S
C39 H38 0.949 . S
C39 C40 1.395 . S
C39 C41 1.391 . S
C40 C39 1.395 . S
C40 C43 1.390 . S
C41 C39 1.391 . S
C41 C45 1.387 1_554 S
C41 C46 1.491 . S
H42 C43 0.950 . S
C43 C40 1.390 . S
C43 H42 0.950 . S
C43 C44 1.378 . S
C44 C43 1.378 . S
C44 C45 1.409 1_554 S
C45 C41 1.387 1_556 S
C45 C44 1.409 1_556 S
C45 H47 0.951 . S
C46 C41 1.491 . S
C46 C48 1.382 . S
C46 C50 1.404 1_554 S
H47 C45 0.951 . S
C48 C46 1.382 . S
C48 C49 1.390 . S
C48 H53 0.949 . S
C49 C48 1.390 . S
C49 C54 1.399 1_554 S
C50 C46 1.404 1_556 S
C50 H51 0.950 . S
C50 C52 1.375 . S
H51 C50 0.950 . S
C52 C50 1.375 . S
C52 C54 1.382 . S
C52 H56 0.950 . S
H53 C48 0.949 . S
C54 C49 1.399 1_556 S
C54 C52 1.382 . S
C54 H55 0.952 . S
H55 C54 0.952 . S
H56 C52 0.950 . S
H57 C58 0.949 . S
C58 H57 0.949 . S
C58 C59 1.395 . S
C58 C60 1.391 . S
C59 C58 1.395 . S
C59 C62 1.390 . S
C60 C58 1.391 . S
C60 C64 1.387 . S
C60 C65 1.491 . S
H61 C62 0.950 . S
C62 C59 1.390 . S
C62 H61 0.950 . S
C62 C63 1.378 . S
C63 C62 1.378 . S
C63 C64 1.409 . S
C64 C60 1.387 . S
C64 C63 1.409 . S
C64 H66 0.951 . S
C65 C60 1.491 . S
C65 C67 1.382 . S
C65 C69 1.404 . S
H66 C64 0.951 . S
C67 C65 1.382 . S
C67 C68 1.390 . S
C67 H72 0.949 . S
C68 C67 1.390 . S
C68 C73 1.399 . S
C69 C65 1.404 . S
C69 H70 0.950 . S
C69 C71 1.375 . S
H70 C69 0.950 . S
C71 C69 1.375 . S
C71 C73 1.382 . S
C71 H75 0.950 . S
H72 C67 0.949 . S
C73 C68 1.399 . S
C73 C71 1.382 . S
C73 H74 0.952 . S
H74 C73 0.952 . S
H75 C71 0.950 . S
Eu76 N105 2.600 . S
Eu76 N111 2.562 . S
Eu76 O120 2.462 . S
Eu76 O121 2.373 . S
Eu76 O123 2.432 . S
Eu76 O124 2.291 1_565 S
Eu76 O128 2.335 1_465 S
Eu76 O131 2.372 1_455 S
Eu76 C140 2.787 . S
C77 N78 1.365 . S
C77 C80 1.405 . S
C77 C84 1.448 . S
N78 C77 1.365 . S
N78 C81 1.319 1_655 S
N78 Eu87 2.600 . S
C79 C81 1.397 . S
C79 C82 1.367 1_455 S
C79 H99 0.931 . S
C80 C77 1.405 . S
C80 C82 1.403 . S
C80 C86 1.439 . S
C81 N78 1.319 1_455 S
C81 C79 1.397 . S
C81 H92 0.930 . S
C82 C79 1.367 1_655 S
C82 C80 1.403 . S
C82 H103 0.929 . S
C83 C84 1.430 . S
C83 C85 1.387 . S
C83 C89 1.404 . S
C84 C77 1.448 . S
C84 C83 1.430 . S
C84 N88 1.351 . S
C85 C83 1.387 . S
C85 C86 1.374 . S
C85 H100 0.931 . S
C86 C80 1.439 . S
C86 C85 1.374 . S
C86 H101 0.931 . S
Eu87 N78 2.600 . S
Eu87 N88 2.562 . S
Eu87 O122 2.335 1_655 S
Eu87 O125 2.372 1_655 S
Eu87 O126 2.462 . S
Eu87 O127 2.373 . S
Eu87 O129 2.432 . S
Eu87 O130 2.291 1_545 S
Eu87 C151 2.787 . S
N88 C84 1.351 . S
N88 Eu87 2.562 . S
N88 C90 1.325 . S
C89 C83 1.404 . S
C89 C91 1.366 . S
C89 H97 0.930 . S
C90 N88 1.325 . S
C90 C91 1.416 . S
C90 H96 0.929 . S
C91 C89 1.366 . S
C91 C90 1.416 . S
C91 H93 0.930 . S
H92 C81 0.930 . S
H93 C91 0.930 . S
H94 C109 0.930 1_655 S
H95 C116 0.930 . S
H96 C90 0.929 . S
H97 C89 0.930 . S
H98 C112 0.929 . S
H99 C79 0.931 . S
H100 C85 0.931 . S
H101 C86 0.931 . S
H102 C107 0.931 1_655 S
H103 C82 0.929 . S
H104 C115 0.930 . S
N105 Eu76 2.600 . S
N105 C106 1.365 . S
N105 C109 1.319 . S
C106 N105 1.365 . S
C106 C108 1.405 . S
C106 C114 1.448 . S
C107 H102 0.931 1_455 S
C107 C109 1.397 . S
C107 C110 1.367 . S
C108 C106 1.405 . S
C108 C110 1.403 . S
C108 C141 1.439 . S
C109 H94 0.930 1_455 S
C109 N105 1.319 . S
C109 C107 1.397 . S
C110 C107 1.367 . S
C110 C108 1.403 . S
C110 H117 0.929 . S
N111 Eu76 2.562 . S
N111 C112 1.325 . S
N111 C114 1.351 . S
C112 H98 0.929 . S
C112 N111 1.325 . S
C112 C116 1.416 . S
C113 C114 1.430 . S
C113 C115 1.404 . S
C113 C142 1.387 . S
C114 C106 1.448 . S
C114 N111 1.351 . S
C114 C113 1.430 . S
C115 H104 0.930 . S
C115 C113 1.404 . S
C115 C116 1.366 . S
C116 H95 0.930 . S
C116 C112 1.416 . S
C116 C115 1.366 . S
H117 C110 0.929 . S
H118 C141 0.931 . S
H119 C142 0.931 . S
O120 Eu76 2.462 . S
O120 C140 1.252 . S
O121 Eu76 2.373 . S
O121 C132 1.249 . S
O122 Eu87 2.335 1_455 S
O122 C132 1.264 1_545 S
O123 Eu76 2.432 . S
O123 C140 1.268 . S
O124 Eu76 2.291 1_545 S
O124 C139 1.255 . S
O125 Eu87 2.372 1_455 S
O125 C139 1.257 . S
O126 Eu87 2.462 . S
O126 C151 1.252 . S
O127 Eu87 2.373 . S
O127 C143 1.249 . S
O128 Eu76 2.335 1_645 S
O128 C143 1.264 . S
O129 Eu87 2.432 . S
O129 C151 1.268 . S
O130 Eu87 2.291 1_565 S
O130 C150 1.255 . S
O131 Eu76 2.372 1_655 S
O131 C150 1.257 . S
C132 O121 1.249 . S
C132 O122 1.264 1_565 S
C133 C136 1.382 . S
C133 C138 1.390 . S
C133 C140 1.506 . S
C134 C135 1.398 . S
C134 C138 1.392 . S
C135 C134 1.398 . S
C135 C137 1.372 . S
C135 H152 0.931 . S
C136 C133 1.382 . S
C136 C137 1.390 . S
C136 H153 0.931 . S
C137 C135 1.372 . S
C137 C136 1.390 . S
C137 H154 0.929 . S
C138 C133 1.390 . S
C138 C134 1.392 . S
C138 H155 0.930 . S
C139 O124 1.255 . S
C139 O125 1.257 . S
C140 Eu76 2.787 . S
C140 O120 1.252 . S
C140 O123 1.268 . S
C140 C133 1.506 . S
C141 C108 1.439 . S
C141 H118 0.931 . S
C141 C142 1.374 . S
C142 C113 1.387 . S
C142 H119 0.931 . S
C142 C141 1.374 . S
C143 O127 1.249 . S
C143 O128 1.264 . S
C144 C147 1.382 . S
C144 C148 1.390 . S
C144 C151 1.506 . S
C145 C146 1.398 . S
C145 C148 1.392 . S
C146 C145 1.398 . S
C146 C149 1.372 . S
C146 H156 0.931 . S
C147 C144 1.382 . S
C147 C149 1.390 . S
C147 H157 0.931 . S
C148 C144 1.390 . S
C148 C145 1.392 . S
C148 H158 0.930 . S
C149 C146 1.372 . S
C149 C147 1.390 . S
C149 H159 0.929 . S
C150 O130 1.255 . S
C150 O131 1.257 . S
C151 Eu87 2.787 . S
C151 O126 1.252 . S
C151 O129 1.268 . S
C151 C144 1.506 . S
H152 C135 0.931 . S
H153 C136 0.931 . S
H154 C137 0.929 . S
H155 C138 0.930 . S
H156 C146 0.931 . S
H157 C147 0.931 . S
H158 C148 0.930 . S
H159 C149 0.929 . S
Eu160 N189 2.596 1_556 S
Eu160 N195 2.562 1_556 S
Eu160 O204 2.462 . S
Eu160 O205 2.373 1_556 S
Eu160 O207 2.432 . S
Eu160 O208 2.291 1_556 S
Eu160 O212 2.335 . S
Eu160 O215 2.372 1_556 S
Eu160 C224 2.787 . S
C161 N162 1.365 . S
C161 C164 1.405 . S
C161 C168 1.448 . S
N162 C161 1.365 . S
N162 C165 1.319 . S
N162 Eu171 2.600 . S
C163 C165 1.397 . S
C163 C166 1.367 . S
C163 H183 0.931 . S
C164 C161 1.405 . S
C164 C166 1.403 . S
C164 C170 1.439 . S
C165 N162 1.319 . S
C165 C163 1.397 . S
C165 H176 0.930 . S
C166 C163 1.367 . S
C166 C164 1.403 . S
C166 H187 0.929 . S
C167 C168 1.430 . S
C167 C169 1.387 . S
C167 C173 1.404 . S
C168 C161 1.448 . S
C168 C167 1.430 . S
C168 N172 1.351 . S
C169 C167 1.387 . S
C169 C170 1.374 . S
C169 H184 0.931 . S
C170 C164 1.439 . S
C170 C169 1.374 . S
C170 H185 0.931 . S
Eu171 N162 2.600 . S
Eu171 N172 2.562 . S
Eu171 O206 2.335 . S
Eu171 O209 2.372 . S
Eu171 O210 2.462 . S
Eu171 O211 2.373 . S
Eu171 O213 2.432 . S
Eu171 O214 2.291 . S
Eu171 C235 2.787 . S
N172 C168 1.351 . S
N172 Eu171 2.562 . S
N172 C174 1.325 . S
C173 C167 1.404 . S
C173 C175 1.366 . S
C173 H181 0.930 . S
C174 N172 1.325 . S
C174 C175 1.416 . S
C174 H180 0.929 . S
C175 C173 1.366 . S
C175 C174 1.416 . S
C175 H177 0.930 . S
H176 C165 0.930 . S
H177 C175 0.930 . S
H178 C193 0.930 . S
H179 C200 0.930 . S
H180 C174 0.929 . S
H181 C173 0.930 . S
H182 C196 0.929 . S
H183 C163 0.931 . S
H184 C169 0.931 . S
H185 C170 0.931 . S
H186 C191 0.931 . S
H187 C166 0.929 . S
H188 C199 0.930 . S
N189 Eu160 2.596 1_554 S
N189 C190 1.370 . S
N189 C193 1.320 1_554 S
C190 N189 1.370 . S
C190 C192 1.405 . S
C190 C198 1.448 . S
C191 H186 0.931 . S
C191 C193 1.397 . S
C191 C194 1.367 1_556 S
C192 C190 1.405 . S
C192 C194 1.403 . S
C192 C225 1.439 . S
C193 H178 0.930 . S
C193 N189 1.320 1_556 S
C193 C191 1.397 . S
C194 C191 1.367 1_554 S
C194 C192 1.403 . S
C194 H201 0.929 . S
N195 Eu160 2.562 1_554 S
N195 C196 1.325 . S
N195 C198 1.351 . S
C196 H182 0.929 . S
C196 N195 1.325 . S
C196 C200 1.416 . S
C197 C198 1.430 . S
C197 C199 1.404 . S
C197 C226 1.387 . S
C198 C190 1.448 . S
C198 N195 1.351 . S
C198 C197 1.430 . S
C199 H188 0.930 . S
C199 C197 1.404 . S
C199 C200 1.366 . S
C200 H179 0.930 . S
C200 C196 1.416 . S
C200 C199 1.366 . S
H201 C194 0.929 . S
H202 C225 0.931 . S
H203 C226 0.931 . S
O204 Eu160 2.462 . S
O204 C224 1.252 . S
O205 Eu160 2.373 1_554 S
O205 C216 1.249 . S
O206 Eu171 2.335 . S
O206 C216 1.264 . S
O207 Eu160 2.432 . S
O207 C224 1.268 . S
O208 Eu160 2.291 1_554 S
O208 C223 1.255 . S
O209 Eu171 2.372 . S
O209 C223 1.257 . S
O210 Eu171 2.462 . S
O210 C235 1.252 . S
O211 Eu171 2.373 . S
O211 C227 1.249 1_554 S
O212 Eu160 2.335 . S
O212 C227 1.264 . S
O213 Eu171 2.432 . S
O213 C235 1.268 . S
O214 Eu171 2.291 . S
O214 C234 1.255 . S
O215 Eu160 2.372 1_554 S
O215 C234 1.257 . S
C216 O205 1.249 . S
C216 O206 1.264 . S
C217 C220 1.382 . S
C217 C222 1.390 . S
C217 C224 1.506 . S
C218 C219 1.398 . S
C218 C222 1.392 . S
C219 C218 1.398 . S
C219 C221 1.372 . S
C219 H236 0.931 . S
C220 C217 1.382 . S
C220 C221 1.390 . S
C220 H237 0.931 . S
C221 C219 1.372 . S
C221 C220 1.390 . S
C221 H238 0.929 . S
C222 C217 1.390 . S
C222 C218 1.392 . S
C222 H239 0.930 . S
C223 O208 1.255 . S
C223 O209 1.257 . S
C224 Eu160 2.787 . S
C224 O204 1.252 . S
C224 O207 1.268 . S
C224 C217 1.506 . S
C225 C192 1.439 . S
C225 H202 0.931 . S
C225 C226 1.374 . S
C226 C197 1.387 . S
C226 H203 0.931 . S
C226 C225 1.374 . S
C227 O211 1.249 1_556 S
C227 O212 1.264 . S
C228 C231 1.382 . S
C228 C232 1.390 . S
C228 C235 1.506 . S
C229 C230 1.398 . S
C229 C232 1.392 . S
C230 C229 1.398 . S
C230 C233 1.372 . S
C230 H240 0.931 . S
C231 C228 1.382 . S
C231 C233 1.390 . S
C231 H241 0.931 . S
C232 C228 1.390 . S
C232 C229 1.392 . S
C232 H242 0.930 . S
C233 C230 1.372 . S
C233 C231 1.390 . S
C233 H243 0.929 . S
C234 O214 1.255 . S
C234 O215 1.257 . S
C235 Eu171 2.787 . S
C235 O210 1.252 . S
C235 O213 1.268 . S
C235 C228 1.506 . S
H236 C219 0.931 . S
H237 C220 0.931 . S
H238 C221 0.929 . S
H239 C222 0.930 . S
H240 C230 0.931 . S
H241 C231 0.931 . S
H242 C232 0.930 . S
H243 C233 0.929 . S
C244 C245 1.391 . S
C244 C246 1.394 . S
C244 H260 0.931 . S
C245 C244 1.391 . S
C245 C249 1.376 . S
C246 C244 1.394 . S
C246 C247 1.369 . S
C246 C250 1.531 . S
C247 C246 1.369 . S
C247 C248 1.410 . S
C247 C255 1.503 . S
C248 C247 1.410 . S
C248 C249 1.392 . S
C248 C251 1.511 . S
C249 C245 1.376 . S
C249 C248 1.392 . S
C249 H261 0.929 . S
C250 C246 1.531 . S
C250 H262 0.960 . S
C250 H263 0.962 . S
C250 H264 0.960 . S
C251 C248 1.511 . S
C251 H265 0.961 . S
C251 H266 0.961 . S
C251 H267 0.961 . S
C252 C253 1.370 . S
C252 C254 1.363 . S
C252 H268 0.931 . S
C253 C252 1.370 . S
C253 C257 1.408 . S
C254 C252 1.363 . S
C254 C255 1.370 . S
C254 C258 1.524 . S
C255 C247 1.503 . S
C255 C254 1.370 . S
C255 C256 1.403 . S
C256 C255 1.403 . S
C256 C257 1.404 . S
C256 C259 1.539 . S
C257 C253 1.408 . S
C257 C256 1.404 . S
C257 H269 0.930 . S
C258 C254 1.524 . S
C258 H270 0.956 . S
C258 H271 0.961 . S
C258 H272 0.961 . S
C259 C256 1.539 . S
C259 H273 0.958 . S
C259 H274 0.961 . S
C259 H275 0.960 . S
H260 C244 0.931 . S
H261 C249 0.929 . S
H262 C250 0.960 . S
H263 C250 0.962 . S
H264 C250 0.960 . S
H265 C251 0.961 . S
H266 C251 0.961 . S
H267 C251 0.961 . S
H268 C252 0.931 . S
H269 C257 0.930 . S
H270 C258 0.956 . S
H271 C258 0.961 . S
H272 C258 0.961 . S
H273 C259 0.958 . S
H274 C259 0.961 . S
H275 C259 0.960 . S
C276 C277 1.391 . S
C276 C278 1.394 . S
C276 H292 0.931 . S
C277 C276 1.391 . S
C277 C281 1.376 . S
C278 C276 1.394 . S
C278 C279 1.369 . S
C278 C282 1.531 . S
C279 C278 1.369 . S
C279 C280 1.410 . S
C279 C287 1.503 . S
C280 C279 1.410 . S
C280 C281 1.392 . S
C280 C283 1.511 . S
C281 C277 1.376 . S
C281 C280 1.392 . S
C281 H293 0.929 . S
C282 C278 1.531 . S
C282 H294 0.960 . S
C282 H295 0.962 . S
C282 H296 0.960 . S
C283 C280 1.511 . S
C283 H297 0.961 . S
C283 H298 0.961 . S
C283 H299 0.961 . S
C284 C285 1.370 . S
C284 C286 1.363 . S
C284 H300 0.931 1_554 S
C285 C284 1.370 . S
C285 C289 1.408 . S
C286 C284 1.363 . S
C286 C287 1.370 . S
C286 C290 1.524 1_554 S
C287 C279 1.503 . S
C287 C286 1.370 . S
C287 C288 1.403 . S
C288 C287 1.403 . S
C288 C289 1.404 . S
C288 C291 1.539 . S
C289 C285 1.408 . S
C289 C288 1.404 . S
C289 H301 0.930 . S
C290 C286 1.524 1_556 S
C290 H302 0.956 . S
C290 H303 0.961 . S
C290 H304 0.961 . S
C291 C288 1.539 . S
C291 H305 0.958 . S
C291 H306 0.961 . S
C291 H307 0.960 . S
H292 C276 0.931 . S
H293 C281 0.929 . S
H294 C282 0.960 . S
H295 C282 0.962 . S
H296 C282 0.960 . S
H297 C283 0.961 . S
H298 C283 0.961 . S
H299 C283 0.961 . S
H300 C284 0.931 1_556 S
H301 C289 0.930 . S
H302 C290 0.956 . S
H303 C290 0.961 . S
H304 C290 0.961 . S
H305 C291 0.958 . S
H306 C291 0.961 . S
H307 C291 0.960 . S
C308 C309 1.391 . S
C308 C310 1.394 . S
C308 H324 0.931 . S
C309 C308 1.391 . S
C309 C313 1.376 . S
C310 C308 1.394 . S
C310 C311 1.369 . S
C310 C314 1.531 . S
C311 C310 1.369 . S
C311 C312 1.410 . S
C311 C319 1.503 . S
C312 C311 1.410 . S
C312 C313 1.392 . S
C312 C315 1.511 . S
C313 C309 1.376 . S
C313 C312 1.392 . S
C313 H325 0.929 . S
C314 C310 1.531 . S
C314 H326 0.960 . S
C314 H327 0.962 . S
C314 H328 0.960 . S
C315 C312 1.511 . S
C315 H329 0.961 . S
C315 H330 0.961 . S
C315 H331 0.961 . S
C316 C317 1.370 . S
C316 C318 1.363 . S
C316 H332 0.931 . S
C317 C316 1.370 . S
C317 C321 1.408 . S
C318 C316 1.363 . S
C318 C319 1.370 . S
C318 C322 1.524 . S
C319 C311 1.503 . S
C319 C318 1.370 . S
C319 C320 1.403 . S
C320 C319 1.403 . S
C320 C321 1.404 . S
C320 C323 1.539 . S
C321 C317 1.408 . S
C321 C320 1.404 . S
C321 H333 0.930 . S
C322 C318 1.524 . S
C322 H334 0.956 . S
C322 H335 0.961 . S
C322 H336 0.961 . S
C323 C320 1.539 . S
C323 H337 0.958 . S
C323 H338 0.961 . S
C323 H339 0.960 . S
H324 C308 0.931 . S
H325 C313 0.929 . S
H326 C314 0.960 . S
H327 C314 0.962 . S
H328 C314 0.960 . S
H329 C315 0.961 . S
H330 C315 0.961 . S
H331 C315 0.961 . S
H332 C316 0.931 . S
H333 C321 0.930 . S
H334 C322 0.956 . S
H335 C322 0.961 . S
H336 C322 0.961 . S
H337 C323 0.958 . S
H338 C323 0.961 . S
H339 C323 0.960 . S
C340 C341 1.391 . S
C340 C342 1.394 . S
C340 H356 0.931 . S
C341 C340 1.391 . S
C341 C345 1.376 . S
C342 C340 1.394 . S
C342 C343 1.369 . S
C342 C346 1.531 . S
C343 C342 1.369 . S
C343 C344 1.410 . S
C343 C351 1.503 . S
C344 C343 1.410 . S
C344 C345 1.392 . S
C344 C347 1.511 1_554 S
C345 C341 1.376 . S
C345 C344 1.392 . S
C345 H357 0.929 . S
C346 C342 1.531 . S
C346 H358 0.960 . S
C346 H359 0.962 . S
C346 H360 0.960 . S
C347 C344 1.511 1_556 S
C347 H361 0.961 . S
C347 H362 0.961 . S
C347 H363 0.961 1_556 S
C348 C349 1.370 . S
C348 C350 1.363 . S
C348 H364 0.931 1_554 S
C349 C348 1.370 . S
C349 C353 1.408 . S
C350 C348 1.363 . S
C350 C351 1.370 . S
C350 C354 1.524 1_554 S
C351 C343 1.503 . S
C351 C350 1.370 . S
C351 C352 1.403 . S
C352 C351 1.403 . S
C352 C353 1.404 . S
C352 C355 1.539 . S
C353 C349 1.408 . S
C353 C352 1.404 . S
C353 H365 0.930 . S
C354 C350 1.524 1_556 S
C354 H366 0.956 . S
C354 H367 0.961 . S
C354 H368 0.961 . S
C355 C352 1.539 . S
C355 H369 0.958 . S
C355 H370 0.961 . S
C355 H371 0.960 . S
H356 C340 0.931 . S
H357 C345 0.929 . S
H358 C346 0.960 . S
H359 C346 0.962 . S
H360 C346 0.960 . S
H361 C347 0.961 . S
H362 C347 0.961 . S
H363 C347 0.961 1_554 S
H364 C348 0.931 1_556 S
H365 C353 0.930 . S
H366 C354 0.956 . S
H367 C354 0.961 . S
H368 C354 0.961 . S
H369 C355 0.958 . S
H370 C355 0.961 . S
H371 C355 0.960 . S
C372 C373 1.391 . S
C372 C374 1.394 . S
C372 H388 0.931 . S
C373 C372 1.391 . S
C373 C377 1.376 . S
C374 C372 1.394 . S
C374 C375 1.369 . S
C374 C378 1.531 . S
C375 C374 1.369 . S
C375 C376 1.410 . S
C375 C383 1.503 . S
C376 C375 1.410 . S
C376 C377 1.392 . S
C376 C379 1.511 . S
C377 C373 1.376 . S
C377 C376 1.392 . S
C377 H389 0.929 . S
C378 C374 1.531 . S
C378 H390 0.960 . S
C378 H391 0.962 . S
C378 H392 0.960 . S
C379 C376 1.511 . S
C379 H393 0.961 . S
C379 H394 0.961 . S
C379 H395 0.961 . S
C380 C381 1.370 . S
C380 C382 1.363 . S
C380 H396 0.931 . S
C381 C380 1.370 . S
C381 C385 1.408 . S
C382 C380 1.363 . S
C382 C383 1.370 . S
C382 C386 1.524 . S
C383 C375 1.503 . S
C383 C382 1.370 . S
C383 C384 1.403 . S
C384 C383 1.403 . S
C384 C385 1.404 . S
C384 C387 1.539 . S
C385 C381 1.408 . S
C385 C384 1.404 . S
C385 H397 0.930 . S
C386 C382 1.524 . S
C386 H398 0.956 . S
C386 H399 0.961 . S
C386 H400 0.961 . S
C387 C384 1.539 . S
C387 H401 0.958 . S
C387 H402 0.961 . S
C387 H403 0.960 . S
H388 C372 0.931 . S
H389 C377 0.929 . S
H390 C378 0.960 . S
H391 C378 0.962 . S
H392 C378 0.960 . S
H393 C379 0.961 . S
H394 C379 0.961 . S
H395 C379 0.961 . S
H396 C380 0.931 . S
H397 C385 0.930 . S
H398 C386 0.956 . S
H399 C386 0.961 . S
H400 C386 0.961 . S
H401 C387 0.958 . S
H402 C387 0.961 . S
H403 C387 0.960 . S
C404 C405 1.391 . S
C404 C406 1.394 . S
C404 H420 0.931 . S
C405 C404 1.391 . S
C405 C409 1.376 . S
C406 C404 1.394 . S
C406 C407 1.369 . S
C406 C410 1.531 . S
C407 C406 1.369 . S
C407 C408 1.410 . S
C407 C415 1.503 . S
C408 C407 1.410 . S
C408 C409 1.392 . S
C408 C411 1.511 . S
C409 C405 1.376 . S
C409 C408 1.392 . S
C409 H421 0.929 . S
C410 C406 1.531 . S
C410 H422 0.960 . S
C410 H423 0.962 . S
C410 H424 0.960 . S
C411 C408 1.511 . S
C411 H425 0.961 . S
C411 H426 0.961 . S
C411 H427 0.961 . S
C412 C413 1.370 . S
C412 C414 1.363 . S
C412 H428 0.931 . S
C413 C412 1.370 . S
C413 C417 1.408 . S
C414 C412 1.363 . S
C414 C415 1.370 . S
C414 C418 1.524 . S
C415 C407 1.503 . S
C415 C414 1.370 . S
C415 C416 1.403 . S
C416 C415 1.403 . S
C416 C417 1.404 . S
C416 C419 1.539 . S
C417 C413 1.408 . S
C417 C416 1.404 . S
C417 H429 0.930 . S
C418 C414 1.524 . S
C418 H430 0.956 . S
C418 H431 0.961 . S
C418 H432 0.961 . S
C419 C416 1.539 . S
C419 H433 0.958 . S
C419 H434 0.961 . S
C419 H435 0.960 . S
H420 C404 0.931 . S
H421 C409 0.929 . S
H422 C410 0.960 . S
H423 C410 0.962 . S
H424 C410 0.960 . S
H425 C411 0.961 . S
H426 C411 0.961 . S
H427 C411 0.961 . S
H428 C412 0.931 . S
H429 C417 0.930 . S
H430 C418 0.956 . S
H431 C418 0.961 . S
H432 C418 0.961 . S
H433 C419 0.958 . S
H434 C419 0.961 . S
H435 C419 0.960 . S
C436 C437 1.391 . S
C436 C438 1.394 . S
C436 H452 0.931 . S
C437 C436 1.391 . S
C437 C441 1.376 . S
C438 C436 1.394 . S
C438 C439 1.369 . S
C438 C442 1.531 . S
C439 C438 1.369 . S
C439 C440 1.410 . S
C439 C447 1.503 . S
C440 C439 1.410 . S
C440 C441 1.392 . S
C440 C443 1.511 . S
C441 C437 1.376 . S
C441 C440 1.392 . S
C441 H453 0.929 . S
C442 C438 1.531 . S
C442 H454 0.960 . S
C442 H455 0.962 . S
C442 H456 0.960 . S
C443 C440 1.511 . S
C443 H457 0.961 . S
C443 H458 0.961 . S
C443 H459 0.961 . S
C444 C445 1.370 . S
C444 C446 1.363 . S
C444 H460 0.931 . S
C445 C444 1.370 . S
C445 C449 1.408 . S
C446 C444 1.363 . S
C446 C447 1.370 . S
C446 C450 1.524 . S
C447 C439 1.503 . S
C447 C446 1.370 . S
C447 C448 1.403 . S
C448 C447 1.403 . S
C448 C449 1.404 . S
C448 C451 1.539 . S
C449 C445 1.408 . S
C449 C448 1.404 . S
C449 H461 0.930 . S
C450 C446 1.524 . S
C450 H462 0.956 . S
C450 H463 0.961 . S
C450 H464 0.961 . S
C451 C448 1.539 . S
C451 H465 0.958 . S
C451 H466 0.961 . S
C451 H467 0.960 . S
H452 C436 0.931 . S
H453 C441 0.929 . S
H454 C442 0.960 . S
H455 C442 0.962 . S
H456 C442 0.960 . S
H457 C443 0.961 . S
H458 C443 0.961 . S
H459 C443 0.961 . S
H460 C444 0.931 . S
H461 C449 0.930 . S
H462 C450 0.956 . S
H463 C450 0.961 . S
H464 C450 0.961 . S
H465 C451 0.958 . S
H466 C451 0.961 . S
H467 C451 0.960 . S
C468 C469 1.391 . S
C468 C470 1.394 . S
C468 H484 0.931 . S
C469 C468 1.391 . S
C469 C473 1.376 . S
C470 C468 1.394 . S
C470 C471 1.369 . S
C470 C474 1.531 . S
C471 C470 1.369 . S
C471 C472 1.410 . S
C471 C479 1.503 . S
C472 C471 1.410 . S
C472 C473 1.392 . S
C472 C475 1.511 . S
C473 C469 1.376 . S
C473 C472 1.392 . S
C473 H485 0.929 . S
C474 C470 1.531 . S
C474 H486 0.960 . S
C474 H487 0.962 . S
C474 H488 0.960 . S
C475 C472 1.511 . S
C475 H489 0.961 . S
C475 H490 0.961 . S
C475 H491 0.961 . S
C476 C477 1.370 . S
C476 C478 1.363 . S
C476 H492 0.931 . S
C477 C476 1.370 . S
C477 C481 1.408 . S
C478 C476 1.363 . S
C478 C479 1.370 . S
C478 C482 1.524 . S
C479 C471 1.503 . S
C479 C478 1.370 . S
C479 C480 1.403 . S
C480 C479 1.403 . S
C480 C481 1.404 . S
C480 C483 1.539 . S
C481 C477 1.408 . S
C481 C480 1.404 . S
C481 H493 0.930 . S
C482 C478 1.524 . S
C482 H494 0.956 . S
C482 H495 0.961 . S
C482 H496 0.961 . S
C483 C480 1.539 . S
C483 H497 0.958 . S
C483 H498 0.961 . S
C483 H499 0.960 . S
H484 C468 0.931 . S
H485 C473 0.929 . S
H486 C474 0.960 . S
H487 C474 0.962 . S
H488 C474 0.960 . S
H489 C475 0.961 . S
H490 C475 0.961 . S
H491 C475 0.961 . S
H492 C476 0.931 . S
H493 C481 0.930 . S
H494 C482 0.956 . S
H495 C482 0.961 . S
H496 C482 0.961 . S
H497 C483 0.958 . S
H498 C483 0.961 . S
H499 C483 0.960 . S
C500 C501 1.391 . S
C500 C502 1.394 . S
C500 H516 0.931 . S
C501 C500 1.391 . S
C501 C505 1.376 . S
C502 C500 1.394 . S
C502 C503 1.369 . S
C502 C506 1.531 . S
C503 C502 1.369 . S
C503 C504 1.410 . S
C503 C511 1.503 . S
C504 C503 1.410 . S
C504 C505 1.392 . S
C504 C507 1.511 . S
C505 C501 1.376 . S
C505 C504 1.392 . S
C505 H517 0.929 . S
C506 C502 1.531 . S
C506 H518 0.960 . S
C506 H519 0.962 . S
C506 H520 0.960 . S
C507 C504 1.511 . S
C507 H521 0.961 . S
C507 H522 0.961 . S
C507 H523 0.961 . S
C508 C509 1.370 . S
C508 C510 1.363 . S
C508 H524 0.931 . S
C509 C508 1.370 . S
C509 C513 1.408 . S
C510 C508 1.363 . S
C510 C511 1.370 . S
C510 C514 1.524 . S
C511 C503 1.503 . S
C511 C510 1.370 . S
C511 C512 1.403 . S
C512 C511 1.403 . S
C512 C513 1.404 . S
C512 C515 1.539 . S
C513 C509 1.408 . S
C513 C512 1.404 . S
C513 H525 0.930 . S
C514 C510 1.524 . S
C514 H526 0.956 . S
C514 H527 0.961 . S
C514 H528 0.961 . S
C515 C512 1.539 . S
C515 H529 0.958 . S
C515 H530 0.961 . S
C515 H531 0.960 . S
H516 C500 0.931 . S
H517 C505 0.929 . S
H518 C506 0.960 . S
H519 C506 0.962 . S
H520 C506 0.960 . S
H521 C507 0.961 . S
H522 C507 0.961 . S
H523 C507 0.961 . S
H524 C508 0.931 . S
H525 C513 0.930 . S
H526 C514 0.956 . S
H527 C514 0.961 . S
H528 C514 0.961 . S
H529 C515 0.958 . S
H530 C515 0.961 . S
H531 C515 0.960 . S
C532 C533 1.391 . S
C532 C534 1.394 . S
C532 H548 0.931 . S
C533 C532 1.391 . S
C533 C537 1.376 . S
C534 C532 1.394 . S
C534 C535 1.369 . S
C534 C538 1.531 . S
C535 C534 1.369 . S
C535 C536 1.410 . S
C535 C543 1.503 . S
C536 C535 1.410 . S
C536 C537 1.392 . S
C536 C539 1.511 . S
C537 C533 1.376 . S
C537 C536 1.392 . S
C537 H549 0.929 . S
C538 C534 1.531 . S
C538 H550 0.960 . S
C538 H551 0.962 . S
C538 H552 0.960 . S
C539 C536 1.511 . S
C539 H553 0.961 . S
C539 H554 0.961 . S
C539 H555 0.961 . S
C540 C541 1.370 . S
C540 C542 1.363 . S
C540 H556 0.931 . S
C541 C540 1.370 . S
C541 C545 1.408 . S
C542 C540 1.363 . S
C542 C543 1.370 . S
C542 C546 1.524 . S
C543 C535 1.503 . S
C543 C542 1.370 . S
C543 C544 1.403 . S
C544 C543 1.403 . S
C544 C545 1.404 . S
C544 C547 1.539 . S
C545 C541 1.408 . S
C545 C544 1.404 . S
C545 H557 0.930 . S
C546 C542 1.524 . S
C546 H558 0.956 . S
C546 H559 0.961 . S
C546 H560 0.961 . S
C547 C544 1.539 . S
C547 H561 0.958 . S
C547 H562 0.961 . S
C547 H563 0.960 . S
H548 C532 0.931 . S
H549 C537 0.929 . S
H550 C538 0.960 . S
H551 C538 0.962 . S
H552 C538 0.960 . S
H553 C539 0.961 . S
H554 C539 0.961 . S
H555 C539 0.961 . S
H556 C540 0.931 . S
H557 C545 0.930 . S
H558 C546 0.956 . S
H559 C546 0.961 . S
H560 C546 0.961 . S
H561 C547 0.958 . S
H562 C547 0.961 . S
H563 C547 0.960 . S
C564 C565 1.391 . S
C564 C566 1.394 . S
C564 H580 0.931 . S
C565 C564 1.391 . S
C565 C569 1.376 . S
C566 C564 1.394 . S
C566 C567 1.369 . S
C566 C570 1.531 . S
C567 C566 1.369 . S
C567 C568 1.410 . S
C567 C575 1.503 . S
C568 C567 1.410 . S
C568 C569 1.392 . S
C568 C571 1.511 . S
C569 C565 1.376 . S
C569 C568 1.392 . S
C569 H581 0.929 . S
C570 C566 1.531 . S
C570 H582 0.960 . S
C570 H583 0.962 . S
C570 H584 0.960 . S
C571 C568 1.511 . S
C571 H585 0.961 . S
C571 H586 0.961 . S
C571 H587 0.961 . S
C572 C573 1.370 . S
C572 C574 1.363 . S
C572 H588 0.931 . S
C573 C572 1.370 . S
C573 C577 1.408 . S
C574 C572 1.363 . S
C574 C575 1.370 . S
C574 C578 1.524 . S
C575 C567 1.503 . S
C575 C574 1.370 . S
C575 C576 1.403 . S
C576 C575 1.403 . S
C576 C577 1.404 . S
C576 C579 1.539 . S
C577 C573 1.408 . S
C577 C576 1.404 . S
C577 H589 0.930 . S
C578 C574 1.524 . S
C578 H590 0.956 . S
C578 H591 0.961 . S
C578 H592 0.961 . S
C579 C576 1.539 . S
C579 H593 0.958 . S
C579 H594 0.961 . S
C579 H595 0.960 . S
H580 C564 0.931 . S
H581 C569 0.929 . S
H582 C570 0.960 . S
H583 C570 0.962 . S
H584 C570 0.960 . S
H585 C571 0.961 . S
H586 C571 0.961 . S
H587 C571 0.961 . S
H588 C572 0.931 . S
H589 C577 0.930 . S
H590 C578 0.956 . S
H591 C578 0.961 . S
H592 C578 0.961 . S
H593 C579 0.958 . S
H594 C579 0.961 . S
H595 C579 0.960 . S
C596 C597 1.391 . S
C596 C598 1.394 . S
C596 H612 0.931 . S
C597 C596 1.391 . S
C597 C601 1.376 . S
C598 C596 1.394 . S
C598 C599 1.369 . S
C598 C602 1.531 . S
C599 C598 1.369 . S
C599 C600 1.410 . S
C599 C607 1.503 . S
C600 C599 1.410 . S
C600 C601 1.392 . S
C600 C603 1.511 . S
C601 C597 1.376 . S
C601 C600 1.392 . S
C601 H613 0.929 . S
C602 C598 1.531 . S
C602 H614 0.960 . S
C602 H615 0.962 . S
C602 H616 0.960 . S
C603 C600 1.511 . S
C603 H617 0.961 . S
C603 H618 0.961 . S
C603 H619 0.961 . S
C604 C605 1.370 . S
C604 C606 1.363 . S
C604 H620 0.931 1_565 S
C605 C604 1.370 . S
C605 C609 1.408 . S
C606 C604 1.363 . S
C606 C607 1.370 . S
C606 C610 1.524 . S
C607 C599 1.503 . S
C607 C606 1.370 . S
C607 C608 1.403 . S
C608 C607 1.403 . S
C608 C609 1.404 . S
C608 C611 1.539 . S
C609 C605 1.408 . S
C609 C608 1.404 . S
C609 H621 0.930 . S
C610 C606 1.524 . S
C610 H622 0.956 . S
C610 H623 0.961 . S
C610 H624 0.961 1_565 S
C611 C608 1.539 . S
C611 H625 0.958 . S
C611 H626 0.961 . S
C611 H627 0.960 . S
H612 C596 0.931 . S
H613 C601 0.929 . S
H614 C602 0.960 . S
H615 C602 0.962 . S
H616 C602 0.960 . S
H617 C603 0.961 . S
H618 C603 0.961 . S
H619 C603 0.961 . S
H620 C604 0.931 1_545 S
H621 C609 0.930 . S
H622 C610 0.956 . S
H623 C610 0.961 . S
H624 C610 0.961 1_545 S
H625 C611 0.958 . S
H626 C611 0.961 . S
H627 C611 0.960 . S
C253 C139 1.703 . S
C245 C68 1.629 . S
C277 C11 1.612 . S
C285 C234 1.718 . S
C309 C30 1.635 . S
C317 C150 1.713 . S
C341 C49 1.646 . S
C349 C223 1.669 . S
C381 C134 1.505 . S
C373 C2 1.691 . S
C413 C227 1.789 . S
C405 C25 1.774 . S
C437 C40 1.701 . S
C445 C143 1.711 . S
C469 C59 1.660 . S
C477 C218 1.483 . S
C509 C229 1.429 . S
C501 C21 1.613 . S
C541 C145 1.404 . S
C533 C44 1.609 1_556 S
C573 C216 1.679 . S
C565 C63 1.667 . S
C597 C6 1.623 . S
C605 C132 1.640 . S
