# Generated by pormake.
# Topology pto, (3,4)-cn, num edge types: 1
# Building blocks:
#     Node 0, Type 0, BuildingBlock: BETDIP_clean_linker_0, # of connection points: 3
#     Node 1, Type 0, BuildingBlock: BETDIP_clean_linker_0, # of connection points: 3
#     Node 2, Type 0, BuildingBlock: BETDIP_clean_linker_0, # of connection points: 3
#     Node 3, Type 0, BuildingBlock: BETDIP_clean_linker_0, # of connection points: 3
#     Node 4, Type 0, BuildingBlock: BETDIP_clean_linker_0, # of connection points: 3
#     Node 5, Type 0, BuildingBlock: BETDIP_clean_linker_0, # of connection points: 3
#     Node 6, Type 0, BuildingBlock: BETDIP_clean_linker_0, # of connection points: 3
#     Node 7, Type 0, BuildingBlock: BETDIP_clean_linker_0, # of connection points: 3
#     Node 8, Type 1, BuildingBlock: KOZSID_clean_sbu_0, # of connection points: 4
#     Node 9, Type 1, BuildingBlock: KOZSID_clean_sbu_0, # of connection points: 4
#     Node 10, Type 1, BuildingBlock: KOZSID_clean_sbu_0, # of connection points: 4
#     Node 11, Type 1, BuildingBlock: KOZSID_clean_sbu_0, # of connection points: 4
#     Node 12, Type 1, BuildingBlock: KOZSID_clean_sbu_0, # of connection points: 4
#     Node 13, Type 1, BuildingBlock: KOZSID_clean_sbu_0, # of connection points: 4
#     Edge 14, Type (0, 1), None
#     Edge 15, Type (0, 1), None
#     Edge 16, Type (0, 1), None
#     Edge 17, Type (0, 1), None
#     Edge 18, Type (0, 1), None
#     Edge 19, Type (0, 1), None
#     Edge 20, Type (0, 1), None
#     Edge 21, Type (0, 1), None
#     Edge 22, Type (0, 1), None
#     Edge 23, Type (0, 1), None
#     Edge 24, Type (0, 1), None
#     Edge 25, Type (0, 1), None
#     Edge 26, Type (0, 1), None
#     Edge 27, Type (0, 1), None
#     Edge 28, Type (0, 1), None
#     Edge 29, Type (0, 1), None
#     Edge 30, Type (0, 1), None
#     Edge 31, Type (0, 1), None
#     Edge 32, Type (0, 1), None
#     Edge 33, Type (0, 1), None
#     Edge 34, Type (0, 1), None
#     Edge 35, Type (0, 1), None
#     Edge 36, Type (0, 1), None
#     Edge 37, Type (0, 1), None
# Relax obj value: 0.013
# Max RMSD: 0.135
# Mean RMSD: 0.062
data_MOF--net-pto--node1-KOZSID_clean_sbu_0--node2-BETDIP_clean_linker_0--edge1-none
_symmetry_space_group_name_H-M    P1
_symmetry_Int_Tables_number       1
_symmetry_cell_setting            triclinic
loop_
_symmetry_equiv_pos_as_xyz
'x, y, z'
_cell_length_a     17.674189
_cell_length_b     24.526168
_cell_length_c     21.729566
_cell_angle_alpha  93.39961
_cell_angle_beta   101.04378
_cell_angle_gamma 113.42148
loop_
_atom_site_label
_atom_site_type_symbol
_atom_site_fract_x
_atom_site_fract_y
_atom_site_fract_z
_atom_type_partial_charge
H0 H 0.20437 0.35673 0.38914 0.0
H1 H 0.31688 0.2928 0.2609 0.0
H2 H 0.23392 0.43078 0.21492 0.0
H3 H 0.18877 0.20146 0.29568 0.0
C4 C 0.23165 0.21638 0.34246 0.0
C5 C 0.22527 0.35904 0.34528 0.0
C6 C 0.21563 0.40017 0.30483 0.0
C7 C 0.25881 0.31882 0.32782 0.0
C8 C 0.28733 0.3221 0.27202 0.0
C9 C 0.27981 0.36319 0.23164 0.0
C10 C 0.24095 0.40019 0.24711 0.0
N11 N 0.26486 0.27521 0.36644 0.0
H12 H 0.1509 0.80272 0.64962 0.0
H13 H 0.40676 0.92712 0.73759 0.0
H14 H 0.28533 0.77242 0.82199 0.0
H15 H 0.15669 0.87439 0.59134 0.0
C16 C 0.21842 0.91204 0.60191 0.0
C17 C 0.20859 0.81405 0.68521 0.0
C18 C 0.20881 0.77852 0.73432 0.0
C19 C 0.28296 0.86558 0.68413 0.0
C20 C 0.3529 0.88487 0.73552 0.0
C21 C 0.34992 0.8539 0.78723 0.0
C22 C 0.28266 0.79811 0.78333 0.0
N23 N 0.28803 0.9036 0.63671 0.0
H24 H 0.78836 0.8016 0.27545 0.0
H25 H 0.85298 0.85124 0.47795 0.0
H26 H 0.73633 0.94282 0.35575 0.0
H27 H 0.93512 0.79696 0.47326 0.0
C28 C 0.90561 0.76403 0.43046 0.0
C29 C 0.79025 0.82975 0.31663 0.0
C30 C 0.76111 0.87484 0.30865 0.0
C31 C 0.82338 0.82068 0.37698 0.0
C32 C 0.82757 0.85796 0.43112 0.0
C33 C 0.79791 0.90379 0.42401 0.0
C34 C 0.76366 0.91052 0.36236 0.0
N35 N 0.84938 0.77256 0.37968 0.0
H36 H 0.67805 0.23134 0.86741 0.0
H37 H 0.73326 0.41976 0.87938 0.0
H38 H 0.85675 0.3463 0.76967 0.0
H39 H 0.71575 0.40692 0.97423 0.0
C40 C 0.66664 0.36292 0.9738 0.0
C41 C 0.71178 0.27518 0.85481 0.0
C42 C 0.76706 0.28209 0.81385 0.0
C43 C 0.70224 0.32502 0.88165 0.0
C44 C 0.74408 0.38145 0.86332 0.0
C45 C 0.80195 0.38977 0.82501 0.0
C46 C 0.8133 0.34 0.80045 0.0
N47 N 0.65351 0.3178 0.92863 0.0
H48 H 0.83523 0.85127 0.94087 0.0
H49 H 0.84384 0.89718 0.75396 0.0
H50 H 0.74169 0.98025 0.87533 0.0
H51 H 0.80826 0.7911 0.73366 0.0
C52 C 0.83924 0.78112 0.77692 0.0
C53 C 0.82372 0.87747 0.90464 0.0
C54 C 0.78233 0.91414 0.91446 0.0
C55 C 0.83978 0.86762 0.84563 0.0
C56 C 0.82747 0.90252 0.7988 0.0
C57 C 0.79712 0.94628 0.81113 0.0
C58 C 0.77095 0.94988 0.86786 0.0
N59 N 0.86471 0.8203 0.835 0.0
H60 H 0.61898 0.25438 0.4008 0.0
H61 H 0.88433 0.35478 0.48625 0.0
H62 H 0.74906 0.43218 0.36091 0.0
H63 H 0.85671 0.29269 0.55656 0.0
C64 C 0.79955 0.25199 0.53815 0.0
C65 C 0.67531 0.29641 0.41061 0.0
C66 C 0.67738 0.34228 0.37493 0.0
C67 C 0.74753 0.30269 0.45597 0.0
C68 C 0.82514 0.35379 0.46032 0.0
C69 C 0.82659 0.40116 0.42564 0.0
C70 C 0.74949 0.39667 0.38832 0.0
N71 N 0.74108 0.25295 0.48914 0.0
H72 H 0.18239 0.41399 0.6946 0.0
H73 H 0.33598 0.34587 0.81186 0.0
H74 H 0.26296 0.47287 0.89823 0.0
H75 H 0.22586 0.25718 0.75358 0.0
C76 C 0.23084 0.27056 0.70717 0.0
C77 C 0.21584 0.41387 0.74171 0.0
C78 C 0.21772 0.45087 0.79522 0.0
C79 C 0.25403 0.3737 0.74841 0.0
C80 C 0.3027 0.37476 0.80746 0.0
C81 C 0.30597 0.41009 0.86154 0.0
C82 C 0.26348 0.44815 0.85552 0.0
N83 N 0.23805 0.32909 0.6968 0.0
H84 H 0.35814 0.93741 0.29039 0.0
H85 H 0.31598 0.75122 0.27115 0.0
H86 H 0.19239 0.81591 0.39065 0.0
H87 H 0.46221 0.94904 0.24187 0.0
C88 C 0.44109 0.90742 0.20998 0.0
C89 C 0.32996 0.89295 0.30302 0.0
C90 C 0.27522 0.88279 0.34458 0.0
C91 C 0.34542 0.84555 0.27664 0.0
C92 C 0.30587 0.78811 0.29246 0.0
C93 C 0.25024 0.77717 0.33301 0.0
C94 C 0.23529 0.82455 0.35916 0.0
N95 N 0.39441 0.85242 0.23033 0.0
C96 C 0.22222 0.69539 0.40434 0.0
C97 C 0.29412 0.72951 0.45165 0.0
C98 C 0.28843 0.6994 0.50275 0.0
C99 C 0.21394 0.64861 0.48367 0.0
N100 N 0.17228 0.64428 0.42328 0.0
Co101 Co 0.0598 0.57932 0.37757 0.0
N102 N 0.04257 0.54083 0.45619 0.0
C103 C 0.09591 0.56072 0.51425 0.0
C104 C 0.0677 0.52567 0.55905 0.0
C105 C 0.99089 0.4813 0.52812 0.0
C106 C 0.97778 0.49058 0.46532 0.0
N107 N 0.9507 0.51227 0.3308 0.0
C108 C 0.91032 0.45837 0.34886 0.0
C109 C 0.8596 0.41497 0.29698 0.0
C110 C 0.86174 0.44335 0.24494 0.0
C111 C 0.91714 0.50188 0.26755 0.0
N112 N 0.07364 0.61884 0.29971 0.0
C113 C 0.01797 0.60067 0.24248 0.0
C114 C 0.03928 0.64002 0.20003 0.0
C115 C 0.11182 0.68711 0.23253 0.0
C116 C 0.13102 0.67335 0.29308 0.0
N117 N 0.11831 0.52887 0.35497 0.0
C118 C 0.18132 0.44411 0.32259 0.0
C119 C 0.13462 0.46309 0.27613 0.0
C120 C 0.10599 0.50597 0.29302 0.0
C121 C 0.19816 0.47007 0.38558 0.0
C122 C 0.16641 0.51193 0.40056 0.0
N123 N 1.00156 0.63024 0.39956 0.0
C124 C 0.8964 0.66988 0.36865 0.0
C125 C 0.93535 0.71576 0.42098 0.0
C126 C 0.00561 0.71637 0.46363 0.0
C127 C 0.03752 0.6738 0.45205 0.0
C128 C 0.92992 0.62765 0.35912 0.0
H129 H 0.09164 0.6771 0.48648 0.0
H130 H 0.89839 0.59426 0.31777 0.0
H131 H 0.0729 0.51915 0.25487 0.0
H132 H 0.18155 0.52969 0.44942 0.0
C133 C 0.17446 0.61 0.52393 0.0
C134 C 0.2016 0.71479 0.34357 0.0
C135 C 0.90705 0.44862 0.41454 0.0
C136 C 0.94752 0.54559 0.22949 0.0
H137 H 0.3438 0.77274 0.45008 0.0
H138 H 0.33106 0.71446 0.54936 0.0
H139 H 0.09931 0.53175 0.60844 0.0
H140 H 0.95055 0.44583 0.54962 0.0
H141 H 0.8243 0.36773 0.2975 0.0
H142 H 0.83022 0.42309 0.19617 0.0
H143 H 0.00534 0.63543 0.15155 0.0
H144 H 0.14548 0.72755 0.214 0.0
H145 H 0.11896 0.44468 0.22652 0.0
H146 H 0.23646 0.45879 0.42338 0.0
H147 H 0.84101 0.66693 0.33451 0.0
H148 H 0.0373 0.75051 0.50522 0.0
C149 C 0.11334 0.72046 0.80512 0.0
C150 C 0.14585 0.76879 0.85374 0.0
C151 C 0.13346 0.74563 0.90831 0.0
C152 C 0.09033 0.68486 0.88956 0.0
N153 N 0.07444 0.6679 0.82639 0.0
Co154 Co 0.98336 0.59107 0.77675 0.0
N155 N 0.95711 0.5569 0.8557 0.0
C156 C 0.99858 0.58345 0.91596 0.0
C157 C 0.97618 0.54666 0.96049 0.0
C158 C 0.91832 0.49272 0.92663 0.0
C159 C 0.90749 0.50001 0.86301 0.0
N160 N 0.88723 0.51591 0.72694 0.0
C161 C 0.83902 0.46439 0.7462 0.0
C162 C 0.77845 0.42347 0.69552 0.0
C163 C 0.7906 0.44939 0.64226 0.0
C164 C 0.85683 0.5047 0.66345 0.0
N165 N 0.01399 0.62347 0.69804 0.0
C166 C 0.97517 0.59537 0.6381 0.0
C167 C 0.01004 0.62679 0.59356 0.0
C168 C 0.07732 0.67733 0.62663 0.0
C169 C 0.07672 0.67557 0.69032 0.0
N170 N 0.06361 0.55262 0.77907 0.0
C171 C 0.16679 0.48807 0.78854 0.0
C172 C 0.0969 0.47359 0.73709 0.0
C173 C 0.04844 0.50698 0.7325 0.0
C174 C 0.18525 0.53765 0.83391 0.0
C175 C 0.13278 0.56846 0.82879 0.0
N176 N 0.90455 0.63094 0.77475 0.0
C177 C 0.8462 0.69302 0.71867 0.0
C178 C 0.85317 0.72546 0.77589 0.0
C179 C 0.87416 0.70417 0.83203 0.0
C180 C 0.89716 0.65591 0.83014 0.0
C181 C 0.87092 0.64546 0.71914 0.0
H182 H 0.91321 0.64181 0.87443 0.0
H183 H 0.86609 0.62321 0.674 0.0
H184 H 0.99768 0.49416 0.6912 0.0
H185 H 0.14861 0.60455 0.86604 0.0
C186 C 0.0574 0.64329 0.92909 0.0
C187 C 0.13091 0.72576 0.74164 0.0
C188 C 0.85118 0.45128 0.81117 0.0
C189 C 0.90171 0.54194 0.62487 0.0
H190 H 0.17673 0.81593 0.85003 0.0
H191 H 0.15101 0.77028 0.95558 0.0
H192 H 1.00039 0.5574 0.01143 0.0
H193 H 0.88905 0.45243 0.94683 0.0
H194 H 0.73227 0.37868 0.6966 0.0
H195 H 0.75829 0.42897 0.59362 0.0
H196 H 0.98785 0.61375 0.54292 0.0
H197 H 0.1201 0.71132 0.60528 0.0
H198 H 0.07698 0.43565 0.7005 0.0
H199 H 0.23953 0.55286 0.8738 0.0
H200 H 0.82563 0.70597 0.67386 0.0
H201 H 0.87516 0.7255 0.87747 0.0
C202 C 0.30545 0.02153 0.59748 0.0
C203 C 0.38052 0.03308 0.64164 0.0
C204 C 0.4375 0.08956 0.63753 0.0
C205 C 0.39451 0.11012 0.59226 0.0
N206 N 0.31399 0.07023 0.5677 0.0
Co207 Co 0.22967 0.08262 0.50167 0.0
N208 N 0.31921 0.15133 0.47626 0.0
C209 C 0.40008 0.1813 0.50995 0.0
C210 C 0.44722 0.2285 0.48291 0.0
C211 C 0.39209 0.22959 0.42983 0.0
C212 C 0.31367 0.18317 0.42783 0.0
N213 N 0.14394 0.09308 0.43531 0.0
C214 C 0.15366 0.12512 0.38632 0.0
C215 C 0.0749 0.11879 0.35142 0.0
C216 C 0.01513 0.08382 0.38091 0.0
C217 C 0.05978 0.07026 0.43173 0.0
N218 N 0.14035 0.01601 0.52853 0.0
C219 C 0.05889 1.00731 0.52055 0.0
C220 C 0.01399 0.96221 0.55079 0.0
C221 C 0.06992 0.94038 0.57855 0.0
C222 C 0.14648 0.97342 0.56321 0.0
N223 N 0.22083 0.13972 0.56367 0.0
C224 C 0.22717 0.22599 0.65678 0.0
C225 C 0.22156 0.16991 0.67111 0.0
C226 C 0.219 0.12761 0.62412 0.0
C227 C 0.22772 0.23779 0.59472 0.0
C228 C 0.22253 0.19354 0.54861 0.0
N229 N 0.24038 0.02544 0.44095 0.0
C230 C 0.1804 0.92807 0.37669 0.0
C231 C 0.26174 0.93339 0.37413 0.0
C232 C 0.33141 0.987 0.40266 0.0
C233 C 0.31949 0.03211 0.43602 0.0
C234 C 0.17101 0.97505 0.40954 0.0
H235 H 0.3751 0.07109 0.46044 0.0
H236 H 0.10798 0.96955 0.41184 0.0
H237 H 0.21709 0.08546 0.63715 0.0
H238 H 0.22138 0.20361 0.50113 0.0
C239 C 0.43065 0.16129 0.56425 0.0
C240 C 0.22499 0.96638 0.58643 0.0
C241 C 0.23469 0.17302 0.38155 0.0
C242 C 0.02429 0.03381 0.4749 0.0
H243 H 0.39405 1.00516 0.67457 0.0
H244 H 0.50332 0.112 0.66306 0.0
H245 H 0.51381 0.25835 0.49952 0.0
H246 H 0.4077 0.2616 0.397 0.0
H247 H 0.06173 0.14035 0.31129 0.0
H248 H 0.94736 0.07068 0.36742 0.0
H249 H 0.94818 0.94562 0.55144 0.0
H250 H 0.0559 0.90481 0.60749 0.0
H251 H 0.2203 0.15902 0.71862 0.0
H252 H 0.23076 0.28038 0.58154 0.0
H253 H 0.12466 0.88763 0.35428 0.0
H254 H 0.39529 0.99293 0.40186 0.0
C255 C 0.51258 0.96641 0.13427 0.0
C256 C 0.51319 0.0213 0.15508 0.0
C257 C 0.56813 0.06351 0.12726 0.0
C258 C 0.5973 0.03214 0.09077 0.0
N259 N 0.56336 0.9728 0.0933 0.0
Co260 Co 0.58595 0.91079 0.04692 0.0
N261 N 0.69248 0.97233 0.03179 0.0
C262 C 0.71769 0.03238 0.0419 0.0
C263 C 0.79467 0.06391 0.02833 0.0
C264 C 0.81841 0.0211 0.00647 0.0
C265 C 0.75362 0.96564 0.00699 0.0
N266 N 0.60606 0.84805 0.99894 0.0
C267 C 0.67175 0.85257 0.97265 0.0
C268 C 0.65356 0.79784 0.93678 0.0
C269 C 0.57386 0.75913 0.93911 0.0
C270 C 0.5471 0.79154 0.97589 0.0
N271 N 0.47992 0.84997 0.0635 0.0
C272 C 0.43302 0.7948 0.03026 0.0
C273 C 0.35955 0.76469 0.04925 0.0
C274 C 0.36083 0.80328 0.09815 0.0
C275 C 0.43636 0.85453 0.10704 0.0
N276 N 0.52132 0.91904 0.96711 0.0
C277 C 0.41077 0.8828 0.84837 0.0
C278 C 0.38185 0.89027 0.9026 0.0
C279 C 0.43879 0.90985 0.96167 0.0
C280 C 0.49742 0.90252 0.85355 0.0
C281 C 0.55184 0.92112 0.91353 0.0
N282 N 0.6494 0.90074 0.12607 0.0
C283 C 0.6712 0.83469 0.19808 0.0
C284 C 0.72568 0.88396 0.24432 0.0
C285 C 0.74351 0.94196 0.2292 0.0
C286 C 0.7048 0.94936 0.16985 0.0
C287 C 0.634 0.84405 0.13945 0.0
H288 H 0.71811 0.99436 0.16 0.0
H289 H 0.59048 0.80514 0.10567 0.0
H290 H 0.41464 0.91241 0.00323 0.0
H291 H 0.61717 0.9323 0.91594 0.0
C292 C 0.66898 0.0575 0.06618 0.0
C293 C 0.46311 0.90881 0.1534 0.0
C294 C 0.74325 0.90984 0.97033 0.0
C295 C 0.46699 0.77016 0.9895 0.0
H296 H 0.47872 0.03014 0.18763 0.0
H297 H 0.58822 0.11169 0.13575 0.0
H298 H 0.82864 0.11219 0.03255 0.0
H299 H 0.87396 0.0296 0.9878 0.0
H300 H 0.6904 0.78669 0.9082 0.0
H301 H 0.53856 0.71337 0.91499 0.0
H302 H 0.31191 0.71951 0.03104 0.0
H303 H 0.31088 0.79465 0.12316 0.0
H304 H 0.31551 0.87899 0.89976 0.0
H305 H 0.52218 0.89992 0.81216 0.0
H306 H 0.65493 0.78909 0.20776 0.0
H307 H 0.78643 0.98139 0.26319 0.0
C308 C 0.87557 0.03123 0.75317 0.0
C309 C 0.9544 0.03481 0.78385 0.0
C310 C 0.01236 0.07144 0.75404 0.0
C311 C 0.96628 0.08886 0.70762 0.0
N312 N 0.88292 0.06649 0.70682 0.0
Co313 Co 0.79513 0.08011 0.64548 0.0
N314 N 0.8824 0.14934 0.61946 0.0
C315 C 0.96511 0.16093 0.62818 0.0
C316 C 0.00999 0.2108 0.60384 0.0
C317 C 0.95252 0.23205 0.5781 0.0
C318 C 0.87483 0.1942 0.58884 0.0
N319 N 0.70832 0.09385 0.5829 0.0
C320 C 0.71471 0.14257 0.5534 0.0
C321 C 0.63633 0.13238 0.51462 0.0
C322 C 0.58066 0.07587 0.5196 0.0
C323 C 0.62687 0.0543 0.56097 0.0
N324 N 0.7078 0.01084 0.67228 0.0
C325 C 0.62614 0.98108 0.64056 0.0
C326 C 0.58088 0.93366 0.6683 0.0
C327 C 0.638 0.93273 0.72024 0.0
C328 C 0.71503 0.98006 0.72156 0.0
N329 N 0.78809 0.13579 0.71077 0.0
C330 C 0.77505 0.22906 0.78335 0.0
C331 C 0.70261 0.17757 0.75303 0.0
C332 C 0.71044 0.13173 0.7169 0.0
C333 C 0.85456 0.23086 0.78014 0.0
C334 C 0.85972 0.18345 0.74443 0.0
N335 N 0.80108 0.02475 0.57877 0.0
C336 C 0.78987 0.92712 0.53789 0.0
C337 C 0.80157 0.94556 0.47914 0.0
C338 C 0.81448 1.00504 0.47242 0.0
C339 C 0.81161 0.04286 0.52154 0.0
C340 C 0.79231 0.9678 0.58746 0.0
H341 H 0.81728 0.08685 0.51258 0.0
H342 H 0.78591 0.95259 0.63241 0.0
H343 H 0.65311 0.09451 0.6913 0.0
H344 H 0.92161 0.18683 0.74149 0.0
C345 C 1.00031 0.13064 0.66846 0.0
C346 C 0.79518 0.98931 0.76532 0.0
C347 C 0.79435 0.19804 0.56188 0.0
C348 C 0.59303 1.00241 0.58851 0.0
H349 H 0.96856 0.01221 0.82279 0.0
H350 H 0.08017 0.08449 0.76546 0.0
H351 H 0.07679 0.23092 0.60604 0.0
H352 H 0.96666 0.27035 0.55295 0.0
H353 H 0.61875 0.16186 0.48609 0.0
H354 H 0.51337 0.05438 0.49811 0.0
H355 H 0.5143 0.90348 0.65283 0.0
H356 H 0.62525 0.89974 0.75223 0.0
H357 H 0.6399 0.17415 0.75422 0.0
H358 H 0.91238 0.26931 0.80382 0.0
H359 H 0.77954 0.88182 0.54587 0.0
H360 H 0.82615 0.02275 0.42905 0.0
C361 C 0.39505 0.4239 0.17792 0.0
C362 C 0.41357 0.47938 0.21207 0.0
C363 C 0.49811 0.51385 0.21893 0.0
C364 C 0.52682 0.47816 0.18868 0.0
N365 N 0.46533 0.42377 0.16152 0.0
Co366 Co 0.4819 0.35862 0.11457 0.0
N367 N 0.59706 0.41463 0.10891 0.0
C368 C 0.64572 0.46764 0.14637 0.0
C369 C 0.72541 0.49444 0.13573 0.0
C370 C 0.72714 0.45594 0.08839 0.0
C371 C 0.64737 0.40786 0.07207 0.0
N372 N 0.49908 0.29417 0.06649 0.0
C373 C 0.55616 0.29856 0.03088 0.0
C374 C 0.54909 0.24185 0.00912 0.0
C375 C 0.48409 0.20101 0.03035 0.0
C376 C 0.4558 0.23465 0.06457 0.0
N377 N 0.36752 0.30181 0.12082 0.0
C378 C 0.33499 0.24137 0.10813 0.0
C379 C 0.25246 0.21399 0.11315 0.0
C380 C 0.23253 0.25997 0.1317 0.0
C381 C 0.30479 0.31296 0.13791 0.0
N382 N 0.43127 0.37691 0.03475 0.0
C383 C 0.3464 0.40039 0.92391 0.0
C384 C 0.32663 0.34144 0.93605 0.0
C385 C 0.37003 0.33073 0.99098 0.0
C386 C 0.40946 0.44773 0.96876 0.0
C387 C 0.45156 0.43496 0.02388 0.0
N388 N 0.53145 0.34037 0.19542 0.0
C389 C 0.63829 0.31633 0.25812 0.0
C390 C 0.6163 0.33013 0.31368 0.0
C391 C 0.54658 0.34404 0.30872 0.0
C392 C 0.50371 0.34729 0.24891 0.0
C393 C 0.59706 0.32355 0.19982 0.0
H394 H 0.45099 0.35858 0.24704 0.0
H395 H 0.62087 0.3179 0.15897 0.0
H396 H 0.3533 0.28476 0.99803 0.0
H397 H 0.50035 0.47196 0.05766 0.0
C398 C 0.61001 0.49499 0.18277 0.0
C399 C 0.31779 0.36914 0.1753 0.0
C400 C 0.62215 0.35595 0.02277 0.0
C401 C 0.38048 0.21251 0.08528 0.0
H402 H 0.37253 0.49345 0.23311 0.0
H403 H 0.5345 0.55919 0.24397 0.0
H404 H 0.77534 0.53771 0.15813 0.0
H405 H 0.78147 0.46272 0.06877 0.0
H406 H 0.58745 0.23045 0.9821 0.0
H407 H 0.45883 0.15251 0.02029 0.0
H408 H 0.2117 0.16637 0.1045 0.0
H409 H 0.17382 0.25499 0.14399 0.0
H410 H 0.27817 0.30343 0.90271 0.0
H411 H 0.42745 0.49388 0.96061 0.0
H412 H 0.69041 0.30349 0.26007 0.0
H413 H 0.52775 0.35494 0.35073 0.0
loop_
_geom_bond_atom_site_label_1
_geom_bond_atom_site_label_2
_geom_bond_distance
_geom_bond_site_symmetry_2
_ccdc_geom_bond_type
H0 C5 0.930 . S
H1 C8 0.930 . S
H2 C10 0.930 . S
H3 C4 1.016 . S
C4 H3 1.016 . S
C4 N11 1.286 . S
C5 H0 0.930 . S
C5 C6 1.397 . S
C5 C7 1.361 . S
C6 C5 1.397 . S
C6 C10 1.390 . S
C7 C5 1.361 . S
C7 C8 1.393 . S
C7 N11 1.413 . S
C8 H1 0.930 . S
C8 C7 1.393 . S
C8 C9 1.399 . S
C9 C8 1.399 . S
C9 C10 1.381 . S
C10 H2 0.930 . S
C10 C6 1.390 . S
C10 C9 1.381 . S
N11 C4 1.286 . S
N11 C7 1.413 . S
H12 C17 0.930 . S
H13 C20 0.930 . S
H14 C22 0.930 . S
H15 C16 1.016 . S
C16 H15 1.016 . S
C16 N23 1.286 . S
C17 H12 0.930 . S
C17 C18 1.397 . S
C17 C19 1.361 . S
C18 C17 1.397 . S
C18 C22 1.390 . S
C19 C17 1.361 . S
C19 C20 1.393 . S
C19 N23 1.413 . S
C20 H13 0.930 . S
C20 C19 1.393 . S
C20 C21 1.399 . S
C21 C20 1.399 . S
C21 C22 1.381 . S
C22 H14 0.930 . S
C22 C18 1.390 . S
C22 C21 1.381 . S
N23 C16 1.286 . S
N23 C19 1.413 . S
H24 C29 0.930 . S
H25 C32 0.930 . S
H26 C34 0.930 . S
H27 C28 1.016 . S
C28 H27 1.016 . S
C28 N35 1.286 . S
C29 H24 0.930 . S
C29 C30 1.397 . S
C29 C31 1.361 . S
C30 C29 1.397 . S
C30 C34 1.390 . S
C31 C29 1.361 . S
C31 C32 1.393 . S
C31 N35 1.413 . S
C32 H25 0.930 . S
C32 C31 1.393 . S
C32 C33 1.399 . S
C33 C32 1.399 . S
C33 C34 1.381 . S
C34 H26 0.930 . S
C34 C30 1.390 . S
C34 C33 1.381 . S
N35 C28 1.286 . S
N35 C31 1.413 . S
H36 C41 0.930 . S
H37 C44 0.930 . S
H38 C46 0.930 . S
H39 C40 1.016 . S
C40 H39 1.016 . S
C40 N47 1.286 . S
C41 H36 0.930 . S
C41 C42 1.397 . S
C41 C43 1.361 . S
C42 C41 1.397 . S
C42 C46 1.390 . S
C43 C41 1.361 . S
C43 C44 1.393 . S
C43 N47 1.413 . S
C44 H37 0.930 . S
C44 C43 1.393 . S
C44 C45 1.399 . S
C45 C44 1.399 . S
C45 C46 1.381 . S
C46 H38 0.930 . S
C46 C42 1.390 . S
C46 C45 1.381 . S
N47 C40 1.286 . S
N47 C43 1.413 . S
H48 C53 0.930 . S
H49 C56 0.930 . S
H50 C58 0.930 . S
H51 C52 1.016 . S
C52 H51 1.016 . S
C52 N59 1.286 . S
C53 H48 0.930 . S
C53 C54 1.397 . S
C53 C55 1.361 . S
C54 C53 1.397 . S
C54 C58 1.390 . S
C55 C53 1.361 . S
C55 C56 1.393 . S
C55 N59 1.413 . S
C56 H49 0.930 . S
C56 C55 1.393 . S
C56 C57 1.399 . S
C57 C56 1.399 . S
C57 C58 1.381 . S
C58 H50 0.930 . S
C58 C54 1.390 . S
C58 C57 1.381 . S
N59 C52 1.286 . S
N59 C55 1.413 . S
H60 C65 0.930 . S
H61 C68 0.930 . S
H62 C70 0.930 . S
H63 C64 1.016 . S
C64 H63 1.016 . S
C64 N71 1.286 . S
C65 H60 0.930 . S
C65 C66 1.397 . S
C65 C67 1.361 . S
C66 C65 1.397 . S
C66 C70 1.390 . S
C67 C65 1.361 . S
C67 C68 1.393 . S
C67 N71 1.413 . S
C68 H61 0.930 . S
C68 C67 1.393 . S
C68 C69 1.399 . S
C69 C68 1.399 . S
C69 C70 1.381 . S
C70 H62 0.930 . S
C70 C66 1.390 . S
C70 C69 1.381 . S
N71 C64 1.286 . S
N71 C67 1.413 . S
H72 C77 0.930 . S
H73 C80 0.930 . S
H74 C82 0.930 . S
H75 C76 1.016 . S
C76 H75 1.016 . S
C76 N83 1.286 . S
C77 H72 0.930 . S
C77 C78 1.397 . S
C77 C79 1.361 . S
C78 C77 1.397 . S
C78 C82 1.390 . S
C79 C77 1.361 . S
C79 C80 1.393 . S
C79 N83 1.413 . S
C80 H73 0.930 . S
C80 C79 1.393 . S
C80 C81 1.399 . S
C81 C80 1.399 . S
C81 C82 1.381 . S
C82 H74 0.930 . S
C82 C78 1.390 . S
C82 C81 1.381 . S
N83 C76 1.286 . S
N83 C79 1.413 . S
H84 C89 0.930 . S
H85 C92 0.930 . S
H86 C94 0.930 . S
H87 C88 1.016 . S
C88 H87 1.016 . S
C88 N95 1.286 . S
C89 H84 0.930 . S
C89 C90 1.397 . S
C89 C91 1.361 . S
C90 C89 1.397 . S
C90 C94 1.390 . S
C91 C89 1.361 . S
C91 C92 1.393 . S
C91 N95 1.413 . S
C92 H85 0.930 . S
C92 C91 1.393 . S
C92 C93 1.399 . S
C93 C92 1.399 . S
C93 C94 1.381 . S
C94 H86 0.930 . S
C94 C90 1.390 . S
C94 C93 1.381 . S
N95 C88 1.286 . S
N95 C91 1.413 . S
C96 C97 1.443 . S
C96 N100 1.376 . S
C96 C134 1.389 . S
C97 C96 1.443 . S
C97 C98 1.340 . S
C97 H137 0.951 . S
C98 C97 1.340 . S
C98 C99 1.439 . S
C98 H138 0.950 . S
C99 C98 1.439 . S
C99 N100 1.374 . S
C99 C133 1.395 . S
N100 C96 1.376 . S
N100 C99 1.374 . S
N100 Co101 2.008 . S
Co101 N100 2.008 . S
Co101 N102 1.995 . S
Co101 N107 2.008 . S
Co101 N112 1.995 . S
Co101 N117 2.282 . S
Co101 N123 2.282 . S
N102 Co101 1.995 . S
N102 C103 1.376 . S
N102 C106 1.383 . S
C103 N102 1.376 . S
C103 C104 1.446 . S
C103 C133 1.391 . S
C104 C103 1.446 . S
C104 C105 1.339 . S
C104 H139 0.949 . S
C105 C104 1.339 . S
C105 C106 1.439 . S
C105 H140 0.950 . S
C106 N102 1.383 . S
C106 C105 1.439 . S
C106 C135 1.392 1_455 S
N107 Co101 2.008 . S
N107 C108 1.376 1_455 S
N107 C111 1.374 1_455 S
C108 N107 1.376 1_655 S
C108 C109 1.443 . S
C108 C135 1.389 . S
C109 C108 1.443 . S
C109 C110 1.340 . S
C109 H141 0.951 . S
C110 C109 1.340 . S
C110 C111 1.439 . S
C110 H142 0.950 . S
C111 N107 1.374 1_655 S
C111 C110 1.439 . S
C111 C136 1.395 1_655 S
N112 Co101 1.995 . S
N112 C113 1.376 . S
N112 C116 1.383 . S
C113 N112 1.376 . S
C113 C114 1.446 . S
C113 C136 1.391 . S
C114 C113 1.446 . S
C114 C115 1.339 . S
C114 H143 0.949 . S
C115 C114 1.339 . S
C115 C116 1.439 . S
C115 H144 0.950 . S
C116 N112 1.383 . S
C116 C115 1.439 . S
C116 C134 1.392 . S
N117 Co101 2.282 . S
N117 C120 1.332 . S
N117 C122 1.332 . S
C118 C119 1.386 . S
C118 C121 1.388 . S
C119 C118 1.386 . S
C119 C120 1.382 . S
C119 H145 0.950 . S
C120 N117 1.332 . S
C120 C119 1.382 . S
C120 H131 0.952 . S
C121 C118 1.388 . S
C121 C122 1.382 . S
C121 H146 0.950 . S
C122 N117 1.332 . S
C122 C121 1.382 . S
C122 H132 0.948 . S
N123 Co101 2.282 . S
N123 C127 1.332 . S
N123 C128 1.332 . S
C124 C125 1.388 . S
C124 C128 1.382 . S
C124 H147 0.950 1_455 S
C125 C124 1.388 . S
C125 C126 1.386 . S
C126 C125 1.386 . S
C126 C127 1.382 . S
C126 H148 0.950 . S
C127 N123 1.332 . S
C127 C126 1.382 . S
C127 H129 0.952 . S
C128 N123 1.332 . S
C128 C124 1.382 . S
C128 H130 0.948 . S
H129 C127 0.952 . S
H130 C128 0.948 . S
H131 C120 0.952 . S
H132 C122 0.948 . S
C133 C99 1.395 . S
C133 C103 1.391 . S
C134 C96 1.389 . S
C134 C116 1.392 . S
C135 C106 1.392 1_655 S
C135 C108 1.389 . S
C136 C111 1.395 1_455 S
C136 C113 1.391 . S
H137 C97 0.951 . S
H138 C98 0.950 . S
H139 C104 0.949 . S
H140 C105 0.950 . S
H141 C109 0.951 . S
H142 C110 0.950 . S
H143 C114 0.949 . S
H144 C115 0.950 . S
H145 C119 0.950 . S
H146 C121 0.950 . S
H147 C124 0.950 1_655 S
H148 C126 0.950 . S
C149 C150 1.443 . S
C149 N153 1.376 . S
C149 C187 1.389 . S
C150 C149 1.443 . S
C150 C151 1.340 . S
C150 H190 0.951 . S
C151 C150 1.340 . S
C151 C152 1.439 . S
C151 H191 0.950 . S
C152 C151 1.439 . S
C152 N153 1.374 . S
C152 C186 1.395 . S
N153 C149 1.376 . S
N153 C152 1.374 . S
N153 Co154 2.008 . S
Co154 N153 2.008 . S
Co154 N155 1.995 1_455 S
Co154 N160 2.008 1_455 S
Co154 N165 1.995 . S
Co154 N170 2.282 . S
Co154 N176 2.282 1_455 S
N155 Co154 1.995 1_655 S
N155 C156 1.376 1_655 S
N155 C159 1.383 . S
C156 N155 1.376 1_455 S
C156 C157 1.446 . S
C156 C186 1.391 . S
C157 C156 1.446 . S
C157 C158 1.339 1_455 S
C157 H192 0.949 1_556 S
C158 C157 1.339 1_655 S
C158 C159 1.439 . S
C158 H193 0.950 . S
C159 N155 1.383 . S
C159 C158 1.439 . S
C159 C188 1.392 . S
N160 Co154 2.008 1_655 S
N160 C161 1.376 . S
N160 C164 1.374 . S
C161 N160 1.376 . S
C161 C162 1.443 . S
C161 C188 1.389 . S
C162 C161 1.443 . S
C162 C163 1.340 . S
C162 H194 0.951 . S
C163 C162 1.340 . S
C163 C164 1.439 . S
C163 H195 0.950 . S
C164 N160 1.374 . S
C164 C163 1.439 . S
C164 C189 1.395 . S
N165 Co154 1.995 . S
N165 C166 1.376 1_455 S
N165 C169 1.383 . S
C166 N165 1.376 1_655 S
C166 C167 1.446 . S
C166 C189 1.391 . S
C167 C166 1.446 . S
C167 C168 1.339 1_655 S
C167 H196 0.949 . S
C168 C167 1.339 1_455 S
C168 C169 1.439 . S
C168 H197 0.950 . S
C169 N165 1.383 . S
C169 C168 1.439 . S
C169 C187 1.392 . S
N170 Co154 2.282 . S
N170 C173 1.332 . S
N170 C175 1.332 . S
C171 C172 1.386 . S
C171 C174 1.388 . S
C172 C171 1.386 . S
C172 C173 1.382 . S
C172 H198 0.950 . S
C173 N170 1.332 . S
C173 C172 1.382 . S
C173 H184 0.952 . S
C174 C171 1.388 . S
C174 C175 1.382 . S
C174 H199 0.950 . S
C175 N170 1.332 . S
C175 C174 1.382 . S
C175 H185 0.948 . S
N176 Co154 2.282 1_655 S
N176 C180 1.332 . S
N176 C181 1.332 . S
C177 C178 1.388 . S
C177 C181 1.382 . S
C177 H200 0.950 . S
C178 C177 1.388 . S
C178 C179 1.386 . S
C179 C178 1.386 . S
C179 C180 1.382 . S
C179 H201 0.950 . S
C180 N176 1.332 . S
C180 C179 1.382 . S
C180 H182 0.952 . S
C181 N176 1.332 . S
C181 C177 1.382 . S
C181 H183 0.948 . S
H182 C180 0.952 . S
H183 C181 0.948 . S
H184 C173 0.952 . S
H185 C175 0.948 . S
C186 C152 1.395 . S
C186 C156 1.391 . S
C187 C149 1.389 . S
C187 C169 1.392 . S
C188 C159 1.392 . S
C188 C161 1.389 . S
C189 C164 1.395 . S
C189 C166 1.391 . S
H190 C150 0.951 . S
H191 C151 0.950 . S
H192 C157 0.949 1_554 S
H193 C158 0.950 . S
H194 C162 0.951 . S
H195 C163 0.950 . S
H196 C167 0.949 . S
H197 C168 0.950 . S
H198 C172 0.950 . S
H199 C174 0.950 . S
H200 C177 0.950 . S
H201 C179 0.950 . S
C202 C203 1.443 . S
C202 N206 1.376 . S
C202 C240 1.389 . S
C203 C202 1.443 . S
C203 C204 1.340 . S
C203 H243 0.951 . S
C204 C203 1.340 . S
C204 C205 1.439 1_565 S
C204 H244 0.950 1_565 S
C205 C204 1.439 1_545 S
C205 N206 1.374 1_545 S
C205 C239 1.395 . S
N206 C202 1.376 . S
N206 C205 1.374 1_565 S
N206 Co207 2.008 1_565 S
Co207 N206 2.008 1_545 S
Co207 N208 1.995 . S
Co207 N213 2.008 . S
Co207 N218 1.995 1_545 S
Co207 N223 2.282 . S
Co207 N229 2.282 1_545 S
N208 Co207 1.995 . S
N208 C209 1.376 . S
N208 C212 1.383 . S
C209 N208 1.376 . S
C209 C210 1.446 . S
C209 C239 1.391 . S
C210 C209 1.446 . S
C210 C211 1.339 . S
C210 H245 0.949 . S
C211 C210 1.339 . S
C211 C212 1.439 . S
C211 H246 0.950 . S
C212 N208 1.383 . S
C212 C211 1.439 . S
C212 C241 1.392 . S
N213 Co207 2.008 . S
N213 C214 1.376 . S
N213 C217 1.374 1_445 S
C214 N213 1.376 . S
C214 C215 1.443 1_455 S
C214 C241 1.389 . S
C215 C214 1.443 1_655 S
C215 C216 1.340 . S
C215 H247 0.951 . S
C216 C215 1.340 . S
C216 C217 1.439 1_545 S
C216 H248 0.950 . S
C217 N213 1.374 1_665 S
C217 C216 1.439 1_565 S
C217 C242 1.395 . S
N218 Co207 1.995 1_565 S
N218 C219 1.376 1_455 S
N218 C222 1.383 . S
C219 N218 1.376 1_655 S
C219 C220 1.446 . S
C219 C242 1.391 . S
C220 C219 1.446 . S
C220 C221 1.339 . S
C220 H249 0.949 . S
C221 C220 1.339 . S
C221 C222 1.439 1_655 S
C221 H250 0.950 . S
C222 N218 1.383 . S
C222 C221 1.439 1_455 S
C222 C240 1.392 . S
N223 Co207 2.282 . S
N223 C226 1.332 . S
N223 C228 1.332 . S
C224 C225 1.386 . S
C224 C227 1.388 . S
C225 C224 1.386 . S
C225 C226 1.382 . S
C225 H251 0.950 1_455 S
C226 N223 1.332 . S
C226 C225 1.382 . S
C226 H237 0.952 1_455 S
C227 C224 1.388 . S
C227 C228 1.382 . S
C227 H252 0.950 . S
C228 N223 1.332 . S
C228 C227 1.382 . S
C228 H238 0.948 . S
N229 Co207 2.282 1_565 S
N229 C233 1.332 . S
N229 C234 1.332 . S
C230 C231 1.388 . S
C230 C234 1.382 . S
C230 H253 0.950 . S
C231 C230 1.388 . S
C231 C232 1.386 . S
C232 C231 1.386 . S
C232 C233 1.382 . S
C232 H254 0.950 . S
C233 N229 1.332 . S
C233 C232 1.382 . S
C233 H235 0.952 . S
C234 N229 1.332 . S
C234 C230 1.382 . S
C234 H236 0.948 . S
H235 C233 0.952 . S
H236 C234 0.948 . S
H237 C226 0.952 1_655 S
H238 C228 0.948 . S
C239 C205 1.395 . S
C239 C209 1.391 . S
C240 C202 1.389 . S
C240 C222 1.392 . S
C241 C212 1.392 . S
C241 C214 1.389 . S
C242 C217 1.395 . S
C242 C219 1.391 . S
H243 C203 0.951 . S
H244 C204 0.950 1_545 S
H245 C210 0.949 . S
H246 C211 0.950 . S
H247 C215 0.951 . S
H248 C216 0.950 . S
H249 C220 0.949 . S
H250 C221 0.950 . S
H251 C225 0.950 1_655 S
H252 C227 0.950 . S
H253 C230 0.950 . S
H254 C232 0.950 . S
C255 C256 1.443 1_565 S
C255 N259 1.376 . S
C255 C293 1.389 . S
C256 C255 1.443 1_545 S
C256 C257 1.340 . S
C256 H296 0.951 . S
C257 C256 1.340 . S
C257 C258 1.439 . S
C257 H297 0.950 . S
C258 C257 1.439 . S
C258 N259 1.374 1_545 S
C258 C292 1.395 . S
N259 C255 1.376 . S
N259 C258 1.374 1_565 S
N259 Co260 2.008 . S
Co260 N259 2.008 . S
Co260 N261 1.995 . S
Co260 N266 2.008 1_554 S
Co260 N271 1.995 . S
Co260 N276 2.282 1_554 S
Co260 N282 2.282 . S
N261 Co260 1.995 . S
N261 C262 1.376 1_565 S
N261 C265 1.383 1_554 S
C262 N261 1.376 1_545 S
C262 C263 1.446 1_554 S
C262 C292 1.391 . S
C263 C262 1.446 1_556 S
C263 C264 1.339 . S
C263 H298 0.949 . S
C264 C263 1.339 . S
C264 C265 1.439 1_545 S
C264 H299 0.950 . S
C265 N261 1.383 1_556 S
C265 C264 1.439 1_565 S
C265 C294 1.392 . S
N266 Co260 2.008 1_556 S
N266 C267 1.376 . S
N266 C270 1.374 . S
C267 N266 1.376 . S
C267 C268 1.443 . S
C267 C294 1.389 . S
C268 C267 1.443 . S
C268 C269 1.340 . S
C268 H300 0.951 . S
C269 C268 1.340 . S
C269 C270 1.439 . S
C269 H301 0.950 . S
C270 N266 1.374 . S
C270 C269 1.439 . S
C270 C295 1.395 . S
N271 Co260 1.995 . S
N271 C272 1.376 . S
N271 C275 1.383 . S
C272 N271 1.376 . S
C272 C273 1.446 . S
C272 C295 1.391 1_554 S
C273 C272 1.446 . S
C273 C274 1.339 . S
C273 H302 0.949 . S
C274 C273 1.339 . S
C274 C275 1.439 . S
C274 H303 0.950 . S
C275 N271 1.383 . S
C275 C274 1.439 . S
C275 C293 1.392 . S
N276 Co260 2.282 1_556 S
N276 C279 1.332 . S
N276 C281 1.332 . S
C277 C278 1.386 . S
C277 C280 1.388 . S
C278 C277 1.386 . S
C278 C279 1.382 . S
C278 H304 0.950 . S
C279 N276 1.332 . S
C279 C278 1.382 . S
C279 H290 0.952 . S
C280 C277 1.388 . S
C280 C281 1.382 . S
C280 H305 0.950 . S
C281 N276 1.332 . S
C281 C280 1.382 . S
C281 H291 0.948 . S
N282 Co260 2.282 . S
N282 C286 1.332 . S
N282 C287 1.332 . S
C283 C284 1.388 . S
C283 C287 1.382 . S
C283 H306 0.950 . S
C284 C283 1.388 . S
C284 C285 1.386 . S
C285 C284 1.386 . S
C285 C286 1.382 . S
C285 H307 0.950 1_565 S
C286 N282 1.332 . S
C286 C285 1.382 . S
C286 H288 0.952 1_565 S
C287 N282 1.332 . S
C287 C283 1.382 . S
C287 H289 0.948 . S
H288 C286 0.952 1_545 S
H289 C287 0.948 . S
H290 C279 0.952 . S
H291 C281 0.948 . S
C292 C258 1.395 . S
C292 C262 1.391 . S
C293 C255 1.389 . S
C293 C275 1.392 . S
C294 C265 1.392 . S
C294 C267 1.389 . S
C295 C270 1.395 . S
C295 C272 1.391 1_556 S
H296 C256 0.951 . S
H297 C257 0.950 . S
H298 C263 0.949 . S
H299 C264 0.950 . S
H300 C268 0.951 . S
H301 C269 0.950 . S
H302 C273 0.949 . S
H303 C274 0.950 . S
H304 C278 0.950 . S
H305 C280 0.950 . S
H306 C283 0.950 . S
H307 C285 0.950 1_545 S
C308 C309 1.443 . S
C308 N312 1.376 . S
C308 C346 1.389 1_545 S
C309 C308 1.443 . S
C309 C310 1.340 1_655 S
C309 H349 0.951 1_545 S
C310 C309 1.340 1_455 S
C310 C311 1.439 1_455 S
C310 H350 0.950 . S
C311 C310 1.439 1_655 S
C311 N312 1.374 . S
C311 C345 1.395 1_655 S
N312 C308 1.376 . S
N312 C311 1.374 . S
N312 Co313 2.008 . S
Co313 N312 2.008 . S
Co313 N314 1.995 . S
Co313 N319 2.008 . S
Co313 N324 1.995 . S
Co313 N329 2.282 . S
Co313 N335 2.282 . S
N314 Co313 1.995 . S
N314 C315 1.376 . S
N314 C318 1.383 . S
C315 N314 1.376 . S
C315 C316 1.446 1_655 S
C315 C345 1.391 1_655 S
C316 C315 1.446 1_455 S
C316 C317 1.339 1_455 S
C316 H351 0.949 . S
C317 C316 1.339 1_655 S
C317 C318 1.439 . S
C317 H352 0.950 . S
C318 N314 1.383 . S
C318 C317 1.439 . S
C318 C347 1.392 . S
N319 Co313 2.008 . S
N319 C320 1.376 . S
N319 C323 1.374 . S
C320 N319 1.376 . S
C320 C321 1.443 . S
C320 C347 1.389 . S
C321 C320 1.443 . S
C321 C322 1.340 . S
C321 H353 0.951 . S
C322 C321 1.340 . S
C322 C323 1.439 . S
C322 H354 0.950 . S
C323 N319 1.374 . S
C323 C322 1.439 . S
C323 C348 1.395 . S
N324 Co313 1.995 . S
N324 C325 1.376 1_545 S
N324 C328 1.383 1_545 S
C325 N324 1.376 1_565 S
C325 C326 1.446 . S
C325 C348 1.391 1_565 S
C326 C325 1.446 . S
C326 C327 1.339 . S
C326 H355 0.949 . S
C327 C326 1.339 . S
C327 C328 1.439 . S
C327 H356 0.950 . S
C328 N324 1.383 1_565 S
C328 C327 1.439 . S
C328 C346 1.392 . S
N329 Co313 2.282 . S
N329 C332 1.332 . S
N329 C334 1.332 . S
C330 C331 1.386 . S
C330 C333 1.388 . S
C331 C330 1.386 . S
C331 C332 1.382 . S
C331 H357 0.950 . S
C332 N329 1.332 . S
C332 C331 1.382 . S
C332 H343 0.952 . S
C333 C330 1.388 . S
C333 C334 1.382 . S
C333 H358 0.950 . S
C334 N329 1.332 . S
C334 C333 1.382 . S
C334 H344 0.948 . S
N335 Co313 2.282 . S
N335 C339 1.332 . S
N335 C340 1.332 1_545 S
C336 C337 1.388 . S
C336 C340 1.382 . S
C336 H359 0.950 . S
C337 C336 1.388 . S
C337 C338 1.386 1_565 S
C338 C337 1.386 1_545 S
C338 C339 1.382 . S
C338 H360 0.950 . S
C339 N335 1.332 . S
C339 C338 1.382 . S
C339 H341 0.952 . S
C340 N335 1.332 1_565 S
C340 C336 1.382 . S
C340 H342 0.948 . S
H341 C339 0.952 . S
H342 C340 0.948 . S
H343 C332 0.952 . S
H344 C334 0.948 . S
C345 C311 1.395 1_455 S
C345 C315 1.391 1_455 S
C346 C308 1.389 1_565 S
C346 C328 1.392 . S
C347 C318 1.392 . S
C347 C320 1.389 . S
C348 C323 1.395 . S
C348 C325 1.391 1_545 S
H349 C309 0.951 1_565 S
H350 C310 0.950 . S
H351 C316 0.949 . S
H352 C317 0.950 . S
H353 C321 0.951 . S
H354 C322 0.950 . S
H355 C326 0.949 . S
H356 C327 0.950 . S
H357 C331 0.950 . S
H358 C333 0.950 . S
H359 C336 0.950 . S
H360 C338 0.950 . S
C361 C362 1.443 . S
C361 N365 1.376 . S
C361 C399 1.389 . S
C362 C361 1.443 . S
C362 C363 1.340 . S
C362 H402 0.951 . S
C363 C362 1.340 . S
C363 C364 1.439 . S
C363 H403 0.950 . S
C364 C363 1.439 . S
C364 N365 1.374 . S
C364 C398 1.395 . S
N365 C361 1.376 . S
N365 C364 1.374 . S
N365 Co366 2.008 . S
Co366 N365 2.008 . S
Co366 N367 1.995 . S
Co366 N372 2.008 . S
Co366 N377 1.995 . S
Co366 N382 2.282 . S
Co366 N388 2.282 . S
N367 Co366 1.995 . S
N367 C368 1.376 . S
N367 C371 1.383 . S
C368 N367 1.376 . S
C368 C369 1.446 . S
C368 C398 1.391 . S
C369 C368 1.446 . S
C369 C370 1.339 . S
C369 H404 0.949 . S
C370 C369 1.339 . S
C370 C371 1.439 . S
C370 H405 0.950 . S
C371 N367 1.383 . S
C371 C370 1.439 . S
C371 C400 1.392 . S
N372 Co366 2.008 . S
N372 C373 1.376 . S
N372 C376 1.374 . S
C373 N372 1.376 . S
C373 C374 1.443 1_554 S
C373 C400 1.389 . S
C374 C373 1.443 1_556 S
C374 C375 1.340 1_556 S
C374 H406 0.951 . S
C375 C374 1.340 1_554 S
C375 C376 1.439 . S
C375 H407 0.946 1_554 S
C376 N372 1.374 . S
C376 C375 1.439 . S
C376 C401 1.395 . S
N377 Co366 1.995 . S
N377 C378 1.376 . S
N377 C381 1.383 . S
C378 N377 1.376 . S
C378 C379 1.446 . S
C378 C401 1.391 . S
C379 C378 1.446 . S
C379 C380 1.339 . S
C379 H408 0.949 . S
C380 C379 1.339 . S
C380 C381 1.439 . S
C380 H409 0.950 . S
C381 N377 1.383 . S
C381 C380 1.439 . S
C381 C399 1.392 . S
N382 Co366 2.282 . S
N382 C385 1.332 . S
N382 C387 1.332 . S
C383 C384 1.386 . S
C383 C386 1.388 . S
C384 C383 1.386 . S
C384 C385 1.382 1_556 S
C384 H410 0.950 . S
C385 N382 1.332 . S
C385 C384 1.382 1_554 S
C385 H396 0.952 . S
C386 C383 1.388 . S
C386 C387 1.382 1_556 S
C386 H411 0.950 . S
C387 N382 1.332 . S
C387 C386 1.382 1_554 S
C387 H397 0.948 . S
N388 Co366 2.282 . S
N388 C392 1.332 . S
N388 C393 1.332 . S
C389 C390 1.388 . S
C389 C393 1.382 . S
C389 H412 0.950 . S
C390 C389 1.388 . S
C390 C391 1.386 . S
C391 C390 1.386 . S
C391 C392 1.382 . S
C391 H413 0.950 . S
C392 N388 1.332 . S
C392 C391 1.382 . S
C392 H394 0.952 . S
C393 N388 1.332 . S
C393 C389 1.382 . S
C393 H395 0.948 . S
H394 C392 0.952 . S
H395 C393 0.948 . S
H396 C385 0.952 . S
H397 C387 0.948 . S
C398 C364 1.395 . S
C398 C368 1.391 . S
C399 C361 1.389 . S
C399 C381 1.392 . S
C400 C371 1.392 . S
C400 C373 1.389 . S
C401 C376 1.395 . S
C401 C378 1.391 . S
H402 C362 0.951 . S
H403 C363 0.950 . S
H404 C369 0.949 . S
H405 C370 0.950 . S
H406 C374 0.951 . S
H407 C375 0.946 1_556 S
H408 C379 0.949 . S
H409 C380 0.950 . S
H410 C384 0.950 . S
H411 C386 0.950 . S
H412 C389 0.950 . S
H413 C391 0.950 . S
C118 C6 1.958 . S
C187 C18 1.549 . S
C125 C28 1.650 1_455 S
C188 C45 1.587 . S
C241 C4 1.766 . S
C277 C21 2.384 . S
C33 C337 1.745 . S
C400 C40 1.910 1_554 S
C240 C16 2.170 . S
C30 C284 1.981 . S
C330 C42 1.686 . S
C399 C9 1.849 . S
C52 C178 1.632 . S
C135 C69 1.949 . S
C78 C171 1.499 . S
C93 C134 1.789 . S
C346 C57 1.747 . S
C390 C66 1.844 . S
C224 C76 1.667 . S
C88 C293 2.064 . S
C347 C64 1.668 . S
C383 C81 1.858 . S
C231 C90 1.690 . S
C54 C294 1.839 . S
