# Generated by pormake.
# Topology anh, (6,3)-cn, num edge types: 1
# Building blocks:
#     Node 0, Type 0, BuildingBlock: GEDQOX_clean_sbu_0, # of connection points: 6
#     Node 1, Type 0, BuildingBlock: GEDQOX_clean_sbu_0, # of connection points: 6
#     Node 2, Type 0, BuildingBlock: GEDQOX_clean_sbu_0, # of connection points: 6
#     Node 3, Type 1, BuildingBlock: MIDCAF_clean_linker_0, # of connection points: 3
#     Node 4, Type 1, BuildingBlock: MIDCAF_clean_linker_0, # of connection points: 3
#     Node 5, Type 1, BuildingBlock: MIDCAF_clean_linker_0, # of connection points: 3
#     Node 6, Type 1, BuildingBlock: MIDCAF_clean_linker_0, # of connection points: 3
#     Node 7, Type 1, BuildingBlock: MIDCAF_clean_linker_0, # of connection points: 3
#     Node 8, Type 1, BuildingBlock: MIDCAF_clean_linker_0, # of connection points: 3
#     Edge 9, Type (0, 1), BuildingBlock: XUDNAN_clean_linker_2, # of connection points: 2
#     Edge 10, Type (0, 1), BuildingBlock: XUDNAN_clean_linker_2, # of connection points: 2
#     Edge 11, Type (0, 1), BuildingBlock: XUDNAN_clean_linker_2, # of connection points: 2
#     Edge 12, Type (0, 1), BuildingBlock: XUDNAN_clean_linker_2, # of connection points: 2
#     Edge 13, Type (0, 1), BuildingBlock: XUDNAN_clean_linker_2, # of connection points: 2
#     Edge 14, Type (0, 1), BuildingBlock: XUDNAN_clean_linker_2, # of connection points: 2
#     Edge 15, Type (0, 1), BuildingBlock: XUDNAN_clean_linker_2, # of connection points: 2
#     Edge 16, Type (0, 1), BuildingBlock: XUDNAN_clean_linker_2, # of connection points: 2
#     Edge 17, Type (0, 1), BuildingBlock: XUDNAN_clean_linker_2, # of connection points: 2
#     Edge 18, Type (0, 1), BuildingBlock: XUDNAN_clean_linker_2, # of connection points: 2
#     Edge 19, Type (0, 1), BuildingBlock: XUDNAN_clean_linker_2, # of connection points: 2
#     Edge 20, Type (0, 1), BuildingBlock: XUDNAN_clean_linker_2, # of connection points: 2
#     Edge 21, Type (0, 1), BuildingBlock: XUDNAN_clean_linker_2, # of connection points: 2
#     Edge 22, Type (0, 1), BuildingBlock: XUDNAN_clean_linker_2, # of connection points: 2
#     Edge 23, Type (0, 1), BuildingBlock: XUDNAN_clean_linker_2, # of connection points: 2
#     Edge 24, Type (0, 1), BuildingBlock: XUDNAN_clean_linker_2, # of connection points: 2
#     Edge 25, Type (0, 1), BuildingBlock: XUDNAN_clean_linker_2, # of connection points: 2
#     Edge 26, Type (0, 1), BuildingBlock: XUDNAN_clean_linker_2, # of connection points: 2
# Relax obj value: 0.179
# Max RMSD: 0.211
# Mean RMSD: 0.157
data_MOF--net-anh--node1-GEDQOX_clean_sbu_0--node2-MIDCAF_clean_linker_0--edge1-XUDNAN_clean_linker_2
_symmetry_space_group_name_H-M    P1
_symmetry_Int_Tables_number       1
_symmetry_cell_setting            triclinic
loop_
_symmetry_equiv_pos_as_xyz
'x, y, z'
_cell_length_a     36.613358
_cell_length_b     35.471091
_cell_length_c     66.513751
_cell_angle_alpha  92.940113
_cell_angle_beta   91.021325
_cell_angle_gamma 105.80174
loop_
_atom_site_label
_atom_site_type_symbol
_atom_site_fract_x
_atom_site_fract_y
_atom_site_fract_z
_atom_type_partial_charge
Nd0 Nd 0.09544 0.55049 0.1483 0.0
Nd1 Nd 0.07203 0.46161 0.1484 0.0
C2 C 0.12867 0.62401 0.14055 0.0
C3 C 0.16619 0.65166 0.14532 0.0
C4 C 0.1833 0.67851 0.13124 0.0
C5 C 0.21935 0.70426 0.13537 0.0
C6 C 0.23881 0.70371 0.15374 0.0
C7 C 0.22155 0.67673 0.16783 0.0
C8 C 0.18568 0.65075 0.1636 0.0
C9 C 0.08423 0.52224 0.18589 0.0
C10 C 0.1636 0.50308 0.14957 0.0
C11 C 1.04003 0.38776 0.15627 0.0
C12 C 1.00142 0.36229 0.15954 0.0
C13 C 0.99077 0.35158 0.17908 0.0
C14 C 0.95464 0.32727 0.18245 0.0
C15 C 0.92834 0.31274 0.16632 0.0
C16 C 0.93903 0.32347 0.14675 0.0
C17 C 0.97515 0.34795 0.14339 0.0
C18 C 0.08703 0.49103 0.11147 0.0
C19 C 1.00464 0.50996 0.14627 0.0
O20 O 0.12828 0.59422 0.12802 0.0
O21 O 0.10637 0.61418 0.1557 0.0
O22 O 0.07563 0.55366 0.18076 0.0
O23 O 0.10035 0.50848 0.17186 0.0
O24 O 0.15378 0.53598 0.14719 0.0
O25 O 0.13732 0.46952 0.15186 0.0
O26 O 1.05439 0.41547 0.17025 0.0
O27 O 1.04787 0.39919 0.13806 0.0
O28 O 0.09701 0.4606 0.11708 0.0
O29 O 0.06841 0.50354 0.12476 0.0
O30 O 1.01338 0.47733 0.15096 0.0
O31 O 1.0317 0.54135 0.14183 0.0
H32 H 0.1688 0.67945 0.117 0.0
H33 H 0.23186 0.72489 0.12429 0.0
H34 H 0.23609 0.67527 0.18197 0.0
H35 H 0.17327 0.62982 0.17457 0.0
H36 H 1.01043 0.36205 0.19181 0.0
H37 H 0.94725 0.32012 0.19775 0.0
H38 H 0.91973 0.3124 0.13394 0.0
H39 H 0.98247 0.35538 0.12811 0.0
Nd40 Nd 0.51304 0.9985 0.5201 0.0
Nd41 Nd 0.59653 0.02834 0.51342 0.0
C42 C 0.44499 0.95992 0.53164 0.0
C43 C 0.42264 0.91884 0.52828 0.0
C44 C 0.38711 0.90551 0.53685 0.0
C45 C 0.36514 0.8668 0.53271 0.0
C46 C 0.37845 0.84088 0.51993 0.0
C47 C 0.41453 0.85437 0.51172 0.0
C48 C 0.43637 0.89296 0.51585 0.0
C49 C 0.53077 0.00927 0.4807 0.0
C50 C 0.56489 0.93527 0.51469 0.0
C51 C 0.66438 0.06415 0.50054 0.0
C52 C 0.68978 0.10409 0.4992 0.0
C53 C 0.7008 0.1175 0.48018 0.0
C54 C 0.72616 0.15437 0.47838 0.0
C55 C 0.74142 0.17859 0.49562 0.0
C56 C 0.72973 0.16549 0.51469 0.0
C57 C 0.70412 0.12857 0.51647 0.0
C58 C 0.57767 0.02013 0.5531 0.0
C59 C 0.54484 0.09176 0.51902 0.0
O60 O 0.47575 0.96599 0.54306 0.0
O61 O 0.45054 0.98005 0.51552 0.0
O62 O 0.50209 0.01811 0.48885 0.0
O63 O 0.54826 0.9939 0.49297 0.0
O64 O 0.53429 0.9428 0.52223 0.0
O65 O 0.59198 0.96329 0.50742 0.0
O66 O 0.63357 0.0549 0.48899 0.0
O67 O 0.65888 0.05008 0.51838 0.0
O68 O 0.60645 0.01027 0.54555 0.0
O69 O 0.56097 0.03448 0.54009 0.0
O70 O 0.57592 0.08469 0.51174 0.0
O71 O 0.51773 0.06358 0.52629 0.0
H72 H 0.37617 0.92514 0.54651 0.0
H73 H 0.33768 0.85722 0.53945 0.0
H74 H 0.42546 0.8355 0.50157 0.0
H75 H 0.46366 0.90285 0.50897 0.0
H76 H 0.69003 0.09922 0.46664 0.0
H77 H 0.73393 0.16384 0.46345 0.0
H78 H 0.74115 0.18327 0.52826 0.0
H79 H 0.69607 0.11906 0.53137 0.0
Nd80 Nd 0.52162 0.50196 0.83819 0.0
Nd81 Nd 0.60528 0.51672 0.84325 0.0
C82 C 0.45409 0.50569 0.82561 0.0
C83 C 0.43721 0.53868 0.82425 0.0
C84 C 0.41576 0.54147 0.80701 0.0
C85 C 0.40057 0.57336 0.80533 0.0
C86 C 0.40636 0.60292 0.82096 0.0
C87 C 0.42861 0.60028 0.83803 0.0
C88 C 0.44411 0.56869 0.83958 0.0
C89 C 0.54613 0.50443 0.87757 0.0
C90 C 0.57617 0.59315 0.8434 0.0
C91 C 0.67553 0.51633 0.852 0.0
C92 C 0.7012 0.49418 0.84376 0.0
C93 C 0.69469 0.45364 0.84603 0.0
C94 C 0.71973 0.43364 0.83801 0.0
C95 C 0.75127 0.45377 0.8274 0.0
C96 C 0.75708 0.49402 0.82479 0.0
C97 C 0.73247 0.514 0.83297 0.0
C98 C 0.57978 0.5128 0.80391 0.0
C99 C 0.55067 0.4247 0.84001 0.0
O100 O 0.48177 0.50601 0.81343 0.0
O101 O 0.46095 0.49609 0.84375 0.0
O102 O 0.51482 0.48029 0.87028 0.0
O103 O 0.56221 0.52752 0.8646 0.0
O104 O 0.54521 0.56909 0.83471 0.0
O105 O 0.60209 0.57901 0.85184 0.0
O106 O 0.6465 0.49711 0.86202 0.0
O107 O 0.66701 0.54099 0.84 0.0
O108 O 0.61065 0.53777 0.81094 0.0
O109 O 0.56469 0.49012 0.81717 0.0
O110 O 0.58388 0.44927 0.84563 0.0
O111 O 0.52184 0.43761 0.83413 0.0
H112 H 0.41082 0.519 0.79483 0.0
H113 H 0.38416 0.57474 0.79182 0.0
H114 H 0.43325 0.622 0.85054 0.0
H115 H 0.46126 0.56762 0.85287 0.0
H116 H 0.67062 0.43746 0.85417 0.0
H117 H 0.71488 0.40271 0.84041 0.0
H118 H 0.78174 0.51062 0.8172 0.0
H119 H 0.73818 0.5452 0.83103 0.0
C120 C 0.47892 0.89089 0.22892 0.0
C121 C 0.47357 0.89326 0.20807 0.0
C122 C 0.49824 0.92405 0.19838 0.0
C123 C 0.52747 0.95168 0.20922 0.0
H124 H 0.62192 0.04454 0.20178 0.0
H125 H 0.66976 0.09304 0.18464 0.0
H126 H 0.7267 0.13802 0.24184 0.0
H127 H 0.67943 0.08951 0.25897 0.0
H128 H 0.63185 0.06987 0.29813 0.0
H129 H 0.62816 0.07771 0.33455 0.0
H130 H 0.5474 0.96361 0.3349 0.0
H131 H 0.55078 0.95552 0.2983 0.0
H132 H 0.51121 0.91584 0.25582 0.0
H133 H 0.46088 0.86727 0.23685 0.0
H134 H 0.49464 0.92725 0.18242 0.0
H135 H 0.54568 0.97509 0.20123 0.0
N136 N 0.58997 0.0059 0.23191 0.0
N137 N 0.61797 0.03514 0.26285 0.0
N138 N 0.56421 0.98103 0.26216 0.0
C139 C 0.61759 0.03381 0.24241 0.0
C140 C 0.59148 0.00893 0.27287 0.0
C141 C 0.56321 0.97933 0.24167 0.0
C142 C 0.64671 0.06299 0.23179 0.0
C143 C 0.64467 0.06467 0.21072 0.0
C144 C 0.67198 0.09262 0.20088 0.0
C145 C 0.70206 0.11934 0.21187 0.0
C146 C 0.70418 0.11754 0.2329 0.0
C147 C 0.67685 0.08979 0.24273 0.0
C148 C 0.59134 0.01217 0.2952 0.0
C149 C 0.61354 0.04618 0.3059 0.0
C150 C 0.61139 0.0508 0.32678 0.0
C151 C 0.58739 0.02135 0.3375 0.0
C152 C 0.56632 0.98666 0.327 0.0
C153 C 0.56808 0.9822 0.30603 0.0
C154 C 0.53266 0.94945 0.23009 0.0
C155 C 0.508 0.91868 0.2398 0.0
C156 C 0.5839 0.38811 0.55025 0.0
C157 C 0.56002 0.37312 0.53328 0.0
C158 C 0.54163 0.39803 0.5239 0.0
C159 C 0.54543 0.43633 0.53201 0.0
H160 H 0.5737 0.57205 0.52413 0.0
H161 H 0.57567 0.63501 0.51008 0.0
H162 H 0.54644 0.67825 0.56775 0.0
H163 H 0.54377 0.61578 0.58161 0.0
H164 H 0.56236 0.57723 0.62134 0.0
H165 H 0.55584 0.57265 0.65774 0.0
H166 H 0.5435 0.44807 0.65104 0.0
H167 H 0.54985 0.45233 0.61488 0.0
H168 H 0.60426 0.4358 0.57222 0.0
H169 H 0.59823 0.36975 0.55796 0.0
H170 H 0.52323 0.3874 0.5107 0.0
H171 H 0.52949 0.45415 0.52509 0.0
N172 N 0.56283 0.5193 0.55206 0.0
N173 N 0.55817 0.55003 0.58378 0.0
N174 N 0.56325 0.48576 0.5816 0.0
C175 C 0.55979 0.55155 0.56339 0.0
C176 C 0.55973 0.51725 0.59298 0.0
C177 C 0.56485 0.48633 0.56126 0.0
C178 C 0.5588 0.58866 0.55406 0.0
C179 C 0.56731 0.59485 0.53375 0.0
C180 C 0.56866 0.63107 0.52572 0.0
C181 C 0.56126 0.66186 0.53777 0.0
C182 C 0.5518 0.6552 0.5579 0.0
C183 C 0.55061 0.61925 0.56592 0.0
C184 C 0.55658 0.51515 0.61513 0.0
C185 C 0.55826 0.54886 0.62763 0.0
C186 C 0.55468 0.54631 0.64847 0.0
C187 C 0.5489 0.50996 0.65718 0.0
C188 C 0.54737 0.47638 0.64472 0.0
C189 C 0.5513 0.47894 0.62397 0.0
C190 C 0.56716 0.45009 0.54983 0.0
C191 C 0.5872 0.42597 0.55849 0.0
C192 C 0.98329 0.52193 0.87527 0.0
C193 C 0.992 0.50924 0.85595 0.0
C194 C 1.02734 0.52798 0.84812 0.0
C195 C 1.05266 0.55933 0.85903 0.0
H196 H 0.12074 0.67917 0.85109 0.0
H197 H 0.17568 0.70667 0.83108 0.0
H198 H 0.24746 0.73051 0.88509 0.0
H199 H 0.19261 0.70405 0.90511 0.0
H200 H 0.16113 0.66567 0.94533 0.0
H201 H 0.17006 0.65181 0.98041 0.0
H202 H 1.0526 0.58446 0.98129 0.0
H203 H 1.04355 0.59805 0.94628 0.0
H204 H 1.00109 0.56192 0.90101 0.0
H205 H 0.956 0.50929 0.88168 0.0
H206 H 1.03531 0.5188 0.83345 0.0
H207 H 0.07952 0.5734 0.85251 0.0
N208 N 0.09578 0.6327 0.88005 0.0
N209 N 0.1237 0.66211 0.91102 0.0
N210 N 0.07132 0.60641 0.91015 0.0
C211 C 0.12228 0.66164 0.89056 0.0
C212 C 0.09796 0.63481 0.92092 0.0
C213 C 0.07024 0.60508 0.88973 0.0
C214 C 0.1526 0.68822 0.87959 0.0
C215 C 0.14807 0.69145 0.85877 0.0
C216 C 0.1795 0.70734 0.8473 0.0
C217 C 0.21603 0.71982 0.85641 0.0
C218 C 0.21974 0.72121 0.87755 0.0
C219 C 0.18823 0.70566 0.88906 0.0
C220 C 0.10173 0.63258 0.94296 0.0
C221 C 0.13697 0.64867 0.95313 0.0
C222 C 0.14218 0.6406 0.97317 0.0
C223 C 0.1121 0.61687 0.98347 0.0
C224 C 0.07622 0.60304 0.97374 0.0
C225 C 0.07113 0.61063 0.95365 0.0
C226 C 1.04352 0.5721 0.87816 0.0
C227 C 1.00892 0.55263 0.88632 0.0
C228 C 0.19418 0.59417 0.44178 0.0
C229 C 0.18856 0.60948 0.46099 0.0
C230 C 0.1523 0.59827 0.4691 0.0
C231 C 0.1222 0.57175 0.45823 0.0
H232 H 1.0249 0.47748 0.46656 0.0
H233 H 0.973 0.4329 0.48326 0.0
H234 H 0.92531 0.37966 0.4254 0.0
H235 H 0.97707 0.42346 0.4087 0.0
H236 H 1.03231 0.43677 0.37053 0.0
H237 H 1.03465 0.43097 0.33381 0.0
H238 H 0.10983 0.5482 0.33422 0.0
H239 H 0.10807 0.554 0.37094 0.0
H240 H 0.16924 0.55715 0.41595 0.0
H241 H 0.22184 0.60266 0.43516 0.0
H242 H 0.14737 0.60971 0.48391 0.0
H243 H 0.09455 0.56344 0.46486 0.0
N244 N 0.06613 0.50616 0.43669 0.0
N245 N 1.03927 0.47653 0.40555 0.0
N246 N 0.09712 0.52549 0.40678 0.0
C247 C 1.03761 0.47976 0.42594 0.0
C248 C 0.06877 0.49941 0.39586 0.0
C249 C 0.09605 0.52898 0.42718 0.0
C250 C 1.00542 0.45398 0.43626 0.0
C251 C 1.00331 0.45634 0.45738 0.0
C252 C 0.97348 0.43094 0.46697 0.0
C253 C 0.94525 0.40259 0.45566 0.0
C254 C 0.947 0.40074 0.43456 0.0
C255 C 0.97666 0.42608 0.42498 0.0
C256 C 0.07005 0.49584 0.37364 0.0
C257 C 1.04932 0.46133 0.3628 0.0
C258 C 1.05077 0.4579 0.34182 0.0
C259 C 0.07236 0.48917 0.33127 0.0
C260 C 0.09278 0.52378 0.34204 0.0
C261 C 0.09193 0.52697 0.36304 0.0
C262 C 0.12772 0.55673 0.43889 0.0
C263 C 0.164 0.56835 0.43076 0.0
C264 C 0.59235 0.15194 0.80852 0.0
C265 C 0.56885 0.15274 0.8249 0.0
C266 C 0.55163 0.11708 0.83368 0.0
C267 C 0.5564 0.08132 0.8256 0.0
H268 H 0.5849 0.96152 0.83451 0.0
H269 H 0.58765 0.89944 0.84827 0.0
H270 H 0.58002 0.84624 0.78793 0.0
H271 H 0.57665 0.90705 0.77432 0.0
H272 H 0.61761 0.9871 0.73652 0.0
H273 H 0.61376 0.99313 0.70018 0.0
H274 H 0.51505 0.03693 0.70776 0.0
H275 H 0.52158 0.03415 0.744 0.0
H276 H 0.61353 0.11682 0.78709 0.0
H277 H 0.60576 0.17858 0.80121 0.0
H278 H 0.53358 0.1167 0.84644 0.0
H279 H 0.54148 0.0542 0.83206 0.0
N280 N 0.57878 0.01003 0.80587 0.0
N281 N 0.57672 0.97772 0.77384 0.0
N282 N 0.57452 0.04298 0.77647 0.0
C283 C 0.57874 0.97692 0.79427 0.0
C284 C 0.57428 0.01043 0.76493 0.0
C285 C 0.57715 0.04339 0.79685 0.0
C286 C 0.58049 0.93964 0.80327 0.0
C287 C 0.5837 0.93653 0.82421 0.0
C288 C 0.58543 0.90094 0.83209 0.0
C289 C 0.58378 0.86759 0.81922 0.0
C290 C 0.58061 0.87089 0.79836 0.0
C291 C 0.57898 0.90619 0.79053 0.0
C292 C 0.57016 0.01061 0.74291 0.0
C293 C 0.59521 0.99801 0.73023 0.0
C294 C 0.59272 1.00124 0.70938 0.0
C295 C 0.56434 0.01606 0.70077 0.0
C296 C 0.53821 0.02679 0.71365 0.0
C297 C 0.54157 0.02481 0.73446 0.0
C298 C 0.57795 0.08058 0.8084 0.0
C299 C 0.59663 0.11639 0.80033 0.0
C300 C 0.7046 0.51474 0.14974 0.0
C301 C 0.72581 0.49172 0.1398 0.0
C302 C 0.70599 0.46234 0.12549 0.0
C303 C 0.6675 0.45796 0.12032 0.0
H304 H 0.52765 0.51955 0.15454 0.0
H305 H 0.46503 0.52525 0.16478 0.0
H306 H 0.41244 0.45083 0.11295 0.0
H307 H 0.47425 0.44482 0.10308 0.0
H308 H 0.51882 0.48421 0.0621 0.0
H309 H 0.52139 0.49194 0.02591 0.0
H310 H 0.64087 0.4983 0.02806 0.0
H311 H 0.63864 0.49116 0.06423 0.0
H312 H 0.65131 0.52981 0.1518 0.0
H313 H 0.71834 0.53739 0.16108 0.0
H314 H 0.72076 0.44411 0.1173 0.0
H315 H 0.65422 0.43651 0.10833 0.0
N316 N 0.57716 0.48376 0.12961 0.0
N317 N 0.54552 0.48388 0.09837 0.0
N318 N 0.60927 0.48406 0.09912 0.0
C319 C 0.54439 0.4833 0.11878 0.0
C320 C 0.57764 0.48465 0.08844 0.0
C321 C 0.60982 0.48353 0.11952 0.0
C322 C 0.50649 0.48176 0.12793 0.0
C323 C 0.50264 0.50363 0.14564 0.0
C324 C 0.46651 0.50727 0.15134 0.0
C325 C 0.43298 0.48886 0.13963 0.0
C326 C 0.43692 0.46533 0.12257 0.0
C327 C 0.4728 0.46203 0.11683 0.0
C328 C 0.57856 0.48723 0.0662 0.0
C329 C 0.54566 0.4871 0.05489 0.0
C330 C 0.54704 0.49132 0.03409 0.0
C331 C 0.58137 0.49593 0.0241 0.0
C332 C 0.6141 0.49541 0.03533 0.0
C333 C 0.61271 0.49105 0.0561 0.0
C334 C 0.64687 0.48229 0.12942 0.0
C335 C 0.66576 0.51004 0.14468 0.0
H336 H 0.20198 0.44524 0.14068 0.0
H337 H 0.22145 0.56788 0.16034 0.0
H338 H 0.29038 0.57621 0.16121 0.0
H339 H 0.28121 0.42736 0.16991 0.0
H340 H 0.29364 0.39663 0.15026 0.0
H341 H 0.24526 0.39905 0.15208 0.0
H342 H 0.24568 0.41906 0.11522 0.0
H343 H 0.29404 0.41671 0.1133 0.0
H344 H 0.2819 0.46113 0.1078 0.0
H345 H 0.35819 0.57241 0.15981 0.0
H346 H 0.4193 0.55758 0.15438 0.0
H347 H 0.35899 0.43787 0.13457 0.0
C348 C 0.22074 0.47371 0.14538 0.0
C349 C 0.20563 0.50583 0.15058 0.0
C350 C 0.23168 0.54268 0.15627 0.0
C351 C 0.27119 0.54777 0.15687 0.0
C352 C 0.28515 0.51589 0.15156 0.0
C353 C 0.26081 0.47956 0.14578 0.0
C354 C 0.28386 0.4508 0.13996 0.0
C355 C 0.27549 0.41641 0.15388 0.0
C356 C 0.27589 0.43605 0.11775 0.0
C357 C 0.32468 0.47663 0.14336 0.0
C358 C 0.32457 0.51398 0.15024 0.0
C359 C 0.35851 0.54316 0.15449 0.0
C360 C 0.39337 0.53427 0.15149 0.0
C361 C 0.39482 0.49642 0.14414 0.0
C362 C 0.3595 0.46724 0.14011 0.0
H363 H 0.80009 0.19429 0.46965 0.0
H364 H 0.74841 0.249 0.51699 0.0
H365 H 0.79664 0.31215 0.51307 0.0
H366 H 0.8972 0.2471 0.48177 0.0
H367 H 0.91009 0.25085 0.45577 0.0
H368 H 0.87254 0.20989 0.46305 0.0
H369 H 0.82645 0.22638 0.43702 0.0
H370 H 0.86385 0.26735 0.42965 0.0
H371 H 0.81965 0.2749 0.43796 0.0
H372 H 0.85015 0.37001 0.50307 0.0
H373 H 0.90303 0.41738 0.48741 0.0
H374 H 0.91785 0.32382 0.44648 0.0
C375 C 0.79862 0.21955 0.47913 0.0
C376 C 0.77036 0.21667 0.4936 0.0
C377 C 0.77004 0.25037 0.50594 0.0
C378 C 0.79721 0.28639 0.50377 0.0
C379 C 0.82448 0.28816 0.48921 0.0
C380 C 0.82529 0.25557 0.47711 0.0
C381 C 0.8568 0.26515 0.46226 0.0
C382 C 0.88588 0.24187 0.46595 0.0
C383 C 0.84071 0.25803 0.44044 0.0
C384 C 0.8735 0.30838 0.46773 0.0
C385 C 0.85472 0.32118 0.48338 0.0
C386 C 0.8651 0.36024 0.49084 0.0
C387 C 0.89524 0.38687 0.48193 0.0
C388 C 0.91441 0.37431 0.46567 0.0
C389 C 0.90344 0.33445 0.4587 0.0
H390 H 0.53946 0.63359 0.8197 0.0
H391 H 0.62573 0.65049 0.86741 0.0
H392 H 0.63555 0.72231 0.86745 0.0
H393 H 0.58788 0.71659 0.79259 0.0
H394 H 0.54497 0.7285 0.78511 0.0
H395 H 0.54373 0.6785 0.7895 0.0
H396 H 0.49141 0.67561 0.81559 0.0
H397 H 0.49233 0.72553 0.81112 0.0
H398 H 0.49984 0.7121 0.83632 0.0
H399 H 0.63596 0.79305 0.86203 0.0
H400 H 0.62943 0.85612 0.85041 0.0
H401 H 0.54359 0.7926 0.80593 0.0
C402 C 0.56026 0.65234 0.83026 0.0
C403 C 0.58168 0.6363 0.84364 0.0
C404 C 0.60896 0.66201 0.85702 0.0
C405 C 0.61468 0.70289 0.85718 0.0
C406 C 0.59319 0.71775 0.84372 0.0
C407 C 0.56674 0.69322 0.83041 0.0
C408 C 0.54832 0.71658 0.81698 0.0
C409 C 0.55674 0.70963 0.79473 0.0
C410 C 0.50542 0.70686 0.82018 0.0
C411 C 0.56835 0.75808 0.82485 0.0
C412 C 0.594 0.75821 0.84035 0.0
C413 C 0.61588 0.79322 0.84992 0.0
C414 C 0.61176 0.82896 0.84331 0.0
C415 C 0.58606 0.82957 0.82721 0.0
C416 C 0.56387 0.79339 0.81809 0.0
H417 H 0.93498 0.45016 0.14397 0.0
H418 H 0.9816 0.5768 0.14882 0.0
H419 H 0.91706 0.58486 0.14895 0.0
H420 H 0.85592 0.45026 0.11006 0.0
H421 H 0.82246 0.41009 0.121 0.0
H422 H 0.87243 0.41332 0.12215 0.0
H423 H 0.87057 0.41067 0.16085 0.0
H424 H 0.82059 0.40753 0.15987 0.0
H425 H 0.85288 0.44587 0.17539 0.0
H426 H 0.84741 0.5805 0.14867 0.0
H427 H 0.77769 0.56396 0.14584 0.0
H428 H 0.77257 0.44011 0.13999 0.0
C429 C 0.93159 0.47957 0.14517 0.0
C430 C 0.96409 0.51286 0.14644 0.0
C431 C 0.95781 0.55069 0.14776 0.0
C432 C 0.92098 0.55567 0.14792 0.0
C433 C 0.8898 0.5226 0.14657 0.0
C434 C 0.89452 0.4852 0.14505 0.0
C435 C 0.85561 0.45489 0.14303 0.0
C436 C 0.85137 0.43071 0.12286 0.0
C437 C 0.84956 0.42816 0.16085 0.0
C438 C 0.82859 0.48117 0.14365 0.0
C439 C 0.84916 0.52011 0.1459 0.0
C440 C 0.83105 0.55005 0.14696 0.0
C441 C 0.79108 0.54025 0.1455 0.0
C442 C 0.76874 0.50065 0.14285 0.0
C443 C 0.78826 0.47075 0.14195 0.0
H444 H 0.30169 0.81773 0.51123 0.0
H445 H 0.40058 0.77298 0.51538 0.0
H446 H 0.36168 0.70757 0.50268 0.0
H447 H 0.23219 0.7279 0.52646 0.0
H448 H 0.19588 0.73381 0.50922 0.0
H449 H 0.23097 0.77634 0.52008 0.0
H450 H 0.24905 0.79915 0.48431 0.0
H451 H 0.21425 0.75665 0.47334 0.0
H452 H 0.26312 0.76644 0.4663 0.0
H453 H 0.3136 0.64897 0.48646 0.0
H454 H 0.25873 0.60036 0.46941 0.0
H455 H 0.19056 0.68227 0.47735 0.0
C456 C 0.31501 0.79398 0.50999 0.0
C457 C 0.35428 0.80059 0.5143 0.0
C458 C 0.3707 0.76881 0.51197 0.0
C459 C 0.34876 0.73147 0.50488 0.0
C460 C 0.31034 0.72621 0.5004 0.0
C461 C 0.29348 0.75647 0.50306 0.0
C462 C 0.25202 0.74354 0.49628 0.0
C463 C 0.22625 0.74551 0.51407 0.0
C464 C 0.24418 0.76789 0.47903 0.0
C465 C 0.24839 0.70151 0.48899 0.0
C466 C 0.28235 0.69207 0.49153 0.0
C467 C 0.2867 0.65578 0.4847 0.0
C468 C 0.25553 0.62848 0.47498 0.0
C469 C 0.22051 0.63757 0.47231 0.0
C470 C 0.21685 0.67439 0.47961 0.0
H471 H 0.6065 0.38622 0.83768 0.0
H472 H 0.4846 0.36597 0.84175 0.0
H473 H 0.47679 0.29446 0.84128 0.0
H474 H 0.60181 0.3056 0.80276 0.0
H475 H 0.64281 0.29392 0.81331 0.0
H476 H 0.63914 0.34352 0.81566 0.0
H477 H 0.64772 0.34403 0.85434 0.0
H478 H 0.65134 0.29433 0.85219 0.0
H479 H 0.61629 0.30653 0.86804 0.0
H480 H 0.48206 0.2249 0.83964 0.0
H481 H 0.49915 0.16265 0.83371 0.0
H482 H 0.61747 0.22772 0.82957 0.0
C483 C 0.57819 0.36677 0.83872 0.0
C484 C 0.54614 0.38176 0.83992 0.0
C485 C 0.50955 0.35522 0.84083 0.0
C486 C 0.50486 0.31454 0.84068 0.0
C487 C 0.537 0.30071 0.83944 0.0
C488 C 0.57294 0.32601 0.83827 0.0
C489 C 0.60251 0.30346 0.83567 0.0
C490 C 0.62274 0.31214 0.81566 0.0
C491 C 0.63115 0.31264 0.85363 0.0
C492 C 0.57753 0.26151 0.83537 0.0
C493 C 0.53992 0.26061 0.83787 0.0
C494 C 0.51145 0.22527 0.83776 0.0
C495 C 0.5215 0.18997 0.83454 0.0
C496 C 0.55967 0.19009 0.83125 0.0
C497 C 0.58803 0.22652 0.832 0.0
H498 H 0.51895 0.8712 0.53214 0.0
H499 H 0.61997 0.90716 0.49688 0.0
H500 H 0.62769 0.8402 0.4972 0.0
H501 H 0.55412 0.8105 0.56391 0.0
H502 H 0.50921 0.77389 0.56511 0.0
H503 H 0.51033 0.82398 0.56108 0.0
H504 H 0.46873 0.80134 0.52855 0.0
H505 H 0.46732 0.75106 0.53242 0.0
H506 H 0.48378 0.77224 0.50905 0.0
H507 H 0.62589 0.76978 0.50242 0.0
H508 H 0.616 0.70224 0.51318 0.0
H509 H 0.51609 0.71184 0.54497 0.0
C510 C 0.54254 0.86498 0.52433 0.0
C511 C 0.56881 0.89459 0.51443 0.0
C512 C 0.59944 0.88511 0.50456 0.0
C513 C 0.60403 0.84707 0.50461 0.0
C514 C 0.57779 0.81869 0.51461 0.0
C515 C 0.54769 0.82719 0.52432 0.0
C516 C 0.52438 0.79179 0.53464 0.0
C517 C 0.52454 0.80057 0.55754 0.0
C518 C 0.48364 0.77829 0.52562 0.0
C519 C 0.54636 0.76218 0.52942 0.0
C520 C 0.57688 0.77819 0.51771 0.0
C521 C 0.60189 0.75684 0.51146 0.0
C522 C 0.59588 0.71833 0.51754 0.0
C523 C 0.56521 0.70145 0.52988 0.0
C524 C 0.53995 0.72379 0.53564 0.0
H525 H 0.78494 0.41245 0.85103 0.0
H526 H 0.78752 0.45711 0.79169 0.0
H527 H 0.85277 0.45234 0.78809 0.0
H528 H 0.85865 0.46551 0.86874 0.0
H529 H 0.87852 0.4334 0.88291 0.0
H530 H 0.82871 0.42023 0.87729 0.0
H531 H 0.8315 0.35429 0.85992 0.0
H532 H 0.88179 0.36686 0.8659 0.0
H533 H 0.86457 0.35369 0.84024 0.0
H534 H 0.91961 0.47187 0.79667 0.0
H535 H 0.97823 0.50731 0.81508 0.0
H536 H 0.93769 0.44582 0.86847 0.0
C537 C 0.79847 0.41838 0.83676 0.0
C538 C 0.78163 0.43538 0.82173 0.0
C539 C 0.80016 0.44411 0.8034 0.0
C540 C 0.83725 0.44127 0.80122 0.0
C541 C 0.85511 0.42895 0.81734 0.0
C542 C 0.83578 0.41601 0.83455 0.0
C543 C 0.86309 0.4126 0.85133 0.0
C544 C 0.85687 0.4343 0.87118 0.0
C545 C 0.86006 0.36928 0.85453 0.0
C546 C 0.90057 0.43226 0.84216 0.0
C547 C 0.89554 0.43956 0.82219 0.0
C548 C 0.92429 0.4648 0.81196 0.0
C549 C 0.9578 0.48499 0.82263 0.0
C550 C 0.96249 0.47978 0.8434 0.0
C551 C 0.93467 0.45079 0.85269 0.0
H552 H 0.26487 0.74829 0.18865 0.0
H553 H 0.29905 0.72072 0.12879 0.0
H554 H 0.36296 0.76586 0.13617 0.0
H555 H 0.31542 0.85082 0.19098 0.0
H556 H 0.32809 0.85262 0.21739 0.0
H557 H 0.2853 0.81785 0.20741 0.0
H558 H 0.30802 0.76101 0.2215 0.0
H559 H 0.35093 0.7956 0.23149 0.0
H560 H 0.35363 0.75504 0.21465 0.0
H561 H 0.42344 0.81311 0.15037 0.0
H562 H 0.47545 0.86064 0.16983 0.0
H563 H 0.40088 0.85909 0.22004 0.0
C564 C 0.28591 0.75158 0.17715 0.0
C565 C 0.27708 0.73098 0.15815 0.0
C566 C 0.30516 0.73649 0.14338 0.0
C567 C 0.34155 0.76189 0.14747 0.0
C568 C 0.34932 0.78173 0.16636 0.0
C569 C 0.32224 0.77704 0.18093 0.0
C570 C 0.33762 0.80236 0.19987 0.0
C571 C 0.31528 0.83271 0.20415 0.0
C572 C 0.33755 0.77698 0.21794 0.0
C573 C 0.37769 0.82185 0.19374 0.0
C574 C 0.3839 0.80948 0.17439 0.0
C575 C 0.41882 0.82321 0.1655 0.0
C576 C 0.44814 0.85044 0.17665 0.0
C577 C 0.44237 0.86389 0.19648 0.0
C578 C 0.40653 0.84918 0.20504 0.0
H579 H 0.60064 0.16215 0.52114 0.0
H580 H 0.47842 0.11221 0.51733 0.0
H581 H 0.46964 0.17882 0.51748 0.0
H582 H 0.59885 0.24152 0.55596 0.0
H583 H 0.63819 0.27635 0.54541 0.0
H584 H 0.6351 0.22477 0.54321 0.0
H585 H 0.63907 0.22763 0.50449 0.0
H586 H 0.64197 0.27923 0.50653 0.0
H587 H 0.60543 0.2461 0.49068 0.0
H588 H 0.4738 0.25056 0.51858 0.0
H589 H 0.49018 0.32258 0.52428 0.0
H590 H 0.60963 0.3269 0.52913 0.0
C591 C 0.57208 0.16531 0.52012 0.0
C592 C 0.54017 0.13199 0.51907 0.0
C593 C 0.50324 0.1373 0.51816 0.0
C594 C 0.49797 0.17502 0.51811 0.0
C595 C 0.52993 0.20727 0.51921 0.0
C596 C 0.56627 0.20289 0.52045 0.0
C597 C 0.59558 0.24255 0.52304 0.0
C598 C 0.61825 0.24652 0.5431 0.0
C599 C 0.62207 0.24926 0.50511 0.0
C600 C 0.56998 0.26983 0.52321 0.0
C601 C 0.53227 0.24883 0.52062 0.0
C602 C 0.50324 0.26735 0.52053 0.0
C603 C 0.51286 0.30835 0.52363 0.0
C604 C 0.55118 0.33051 0.52704 0.0
C605 C 0.58008 0.31083 0.52654 0.0
H606 H 0.33484 0.59709 0.80608 0.0
H607 H 0.43278 0.6798 0.83572 0.0
H608 H 0.39641 0.72835 0.83983 0.0
H609 H 0.29255 0.67378 0.78247 0.0
H610 H 0.24534 0.64449 0.78734 0.0
H611 H 0.28199 0.621 0.78124 0.0
H612 H 0.26971 0.58376 0.81407 0.0
H613 H 0.23324 0.60687 0.82016 0.0
H614 H 0.27228 0.61133 0.83785 0.0
H615 H 0.34638 0.76078 0.8482 0.0
H616 H 0.2872 0.77216 0.86106 0.0
H617 H 0.22185 0.6692 0.82561 0.0
C618 C 0.34933 0.6261 0.81248 0.0
C619 C 0.38699 0.6347 0.82026 0.0
C620 C 0.40418 0.6725 0.82942 0.0
C621 C 0.38374 0.70048 0.83169 0.0
C622 C 0.34613 0.69047 0.82458 0.0
C623 C 0.32919 0.65422 0.81494 0.0
C624 C 0.28687 0.64784 0.81188 0.0
C625 C 0.27606 0.64673 0.78939 0.0
C626 C 0.26425 0.61029 0.82159 0.0
C627 C 0.28219 0.68458 0.82285 0.0
C628 C 0.31681 0.70951 0.82947 0.0
C629 C 0.31918 0.74217 0.84258 0.0
C630 C 0.28544 0.74837 0.84988 0.0
C631 C 0.24991 0.72177 0.84419 0.0
C632 C 0.24842 0.69083 0.8297 0.0
H633 H 0.9103 0.25351 0.19256 0.0
H634 H 0.8598 0.3117 0.14829 0.0
H635 H 0.79666 0.26712 0.15418 0.0
H636 H 0.85092 0.15582 0.18122 0.0
H637 H 0.848 0.14319 0.20716 0.0
H638 H 0.88931 0.17885 0.19895 0.0
H639 H 0.8798 0.22966 0.22636 0.0
H640 H 0.83853 0.19413 0.23469 0.0
H641 H 0.83486 0.24124 0.2274 0.0
H642 H 0.73867 0.21631 0.16532 0.0
H643 H 0.69049 0.16497 0.18158 0.0
H644 H 0.77921 0.14151 0.21898 0.0
C645 C 0.88599 0.2572 0.1842 0.0
C646 C 0.89016 0.28612 0.1699 0.0
C647 C 0.85752 0.2894 0.15909 0.0
C648 C 0.82148 0.26434 0.16241 0.0
C649 C 0.81848 0.23621 0.17662 0.0
C650 C 0.84987 0.23264 0.18739 0.0
C651 C 0.83898 0.20057 0.2021 0.0
C652 C 0.85793 0.16766 0.19705 0.0
C653 C 0.84861 0.21742 0.22393 0.0
C654 C 0.7965 0.18674 0.19802 0.0
C655 C 0.7852 0.20747 0.1832 0.0
C656 C 0.74723 0.19986 0.17692 0.0
C657 C 0.7201 0.1705 0.18615 0.0
C658 C 0.73106 0.14926 0.20157 0.0
C659 C 0.76986 0.15751 0.20741 0.0
H660 H 1.05461 0.54058 0.09216 0.0
H661 H 0.14641 0.48507 0.08879 0.0
H662 H 0.1669 0.51747 0.05728 0.0
H663 H 1.03026 0.5274 0.04019 0.0
H664 H 1.01842 0.57329 0.0386 0.0
H665 H 1.01364 0.54933 0.06199 0.0
H666 H 1.05753 0.61227 0.08009 0.0
H667 H 0.06262 0.63644 0.0567 0.0
H668 H 0.10416 0.63329 0.07074 0.0
H669 H 0.17591 0.55359 0.02572 0.0
H670 H 0.16907 0.58551 0.99429 0.0
H671 H 0.06942 0.61493 0.01714 0.0
C672 C 0.07927 0.5357 0.08486 0.0
C673 C 0.09914 0.51061 0.09283 0.0
C674 C 0.13087 0.50422 0.08281 0.0
C675 C 0.14285 0.52269 0.06503 0.0
C676 C 0.12254 0.54713 0.05744 0.0
C677 C 0.09119 0.55334 0.0669 0.0
C678 C 0.07245 0.57821 0.05467 0.0
C679 C 1.03126 0.5557 0.04849 0.0
C680 C 0.07431 0.61738 0.06624 0.0
C681 C 0.09771 0.58433 0.03668 0.0
C682 C 0.12691 0.56686 0.0388 0.0
C683 C 0.15336 0.56764 0.02393 0.0
C684 C 0.14938 0.58602 0.0062 0.0
C685 C 0.11887 0.60283 0.00339 0.0
C686 C 0.09307 0.60241 0.01897 0.0
H687 H 0.55941 0.96646 0.45266 0.0
H688 H 0.52829 0.07519 0.4629 0.0
H689 H 0.54467 0.09239 0.42804 0.0
H690 H 0.63712 1.00219 0.41786 0.0
H691 H 0.62412 0.95764 0.40191 0.0
H692 H 0.61471 0.95606 0.42841 0.0
H693 H 0.54364 0.92214 0.41992 0.0
H694 H 0.55276 0.92375 0.39343 0.0
H695 H 0.51733 0.94528 0.40369 0.0
H696 H 0.56148 0.09665 0.39207 0.0
H697 H 0.5734 0.08577 0.35613 0.0
H698 H 0.5893 0.97202 0.36796 0.0
C699 C 0.55684 0.99418 0.44757 0.0
C700 C 0.54305 0.01982 0.46035 0.0
C701 C 0.53894 0.05535 0.45322 0.0
C702 C 0.54832 0.0654 0.43352 0.0
C703 C 0.56118 0.03926 0.42109 0.0
C704 C 0.56516 1.00421 0.42771 0.0
C705 C 0.57609 0.9798 0.41065 0.0
C706 C 0.61535 0.97357 0.41497 0.0
C707 C 0.54563 0.94042 0.40669 0.0
C708 C 0.57715 0.00642 0.3934 0.0
C709 C 0.56914 0.04085 0.3999 0.0
C710 C 0.56798 0.06992 0.3868 0.0
C711 C 0.57489 0.06353 0.36645 0.0
C712 C 0.58236 0.02815 0.35932 0.0
C713 C 0.58359 0.9993 0.37303 0.0
H714 H 0.6111 0.5582 0.7733 0.0
H715 H 0.51939 0.45689 0.78654 0.0
H716 H 0.49907 0.44752 0.75055 0.0
H717 H 0.55907 0.59426 0.73449 0.0
H718 H 0.60008 0.60968 0.71922 0.0
H719 H 0.60597 0.60977 0.74618 0.0
H720 H 0.65131 0.56537 0.74175 0.0
H721 H 0.64558 0.56514 0.71482 0.0
H722 H 0.63534 0.51942 0.72706 0.0
H723 H 0.49129 0.44678 0.71301 0.0
H724 H 0.49603 0.45505 0.67641 0.0
H725 H 0.59259 0.55715 0.68761 0.0
C726 C 0.58654 0.53427 0.76862 0.0
C727 C 0.56677 0.50821 0.78261 0.0
C728 C 0.53486 0.47716 0.776 0.0
C729 C 0.52309 0.47167 0.75563 0.0
C730 C 0.54343 0.49765 0.74215 0.0
C731 C 0.57437 0.52844 0.74836 0.0
C732 C 0.59207 0.55135 0.73072 0.0
C733 C 0.58911 0.59378 0.73278 0.0
C734 C 0.63353 0.55022 0.72846 0.0
C735 C 0.56674 0.52813 0.71355 0.0
C736 C 0.53874 0.49741 0.72049 0.0
C737 C 0.5129 0.47089 0.70741 0.0
C738 C 0.51594 0.4757 0.68667 0.0
C739 C 0.54462 0.50675 0.67921 0.0
C740 C 0.57002 0.53351 0.6929 0.0
H741 H 0.5969 0.97785 0.58308 0.0
H742 H 0.54335 0.07022 0.57192 0.0
H743 H 0.53421 0.07895 0.60834 0.0
H744 H 0.5331 0.93588 0.62275 0.0
H745 H 0.56969 0.92341 0.63731 0.0
H746 H 0.57253 0.92461 0.61032 0.0
H747 H 0.63935 0.97388 0.61443 0.0
H748 H 0.63662 0.97302 0.64142 0.0
H749 H 0.64553 0.01903 0.62951 0.0
H750 H 0.53546 0.08137 0.64574 0.0
H751 H 0.54016 0.07276 0.68189 0.0
H752 H 0.5857 0.97312 0.66908 0.0
C753 C 0.58324 0.99982 0.58838 0.0
C754 C 0.57111 0.02363 0.57481 0.0
C755 C 0.55286 0.05174 0.58213 0.0
C756 C 0.54764 0.05699 0.60277 0.0
C757 C 0.56015 0.03334 0.61582 0.0
C758 C 0.57695 1.00483 0.60896 0.0
C759 C 0.58658 0.98259 0.62627 0.0
C760 C 0.56413 0.93904 0.62402 0.0
C761 C 0.62958 0.98744 0.628 0.0
C762 C 0.57323 1.00364 0.6439 0.0
C763 C 0.55844 0.033 0.63749 0.0
C764 C 0.54612 0.05785 0.65095 0.0
C765 C 0.54859 0.05235 0.67156 0.0
C766 C 0.56249 0.02159 0.67866 0.0
C767 C 0.575 0.99701 0.66444 0.0
H768 H 0.50979 0.46295 0.90847 0.0
H769 H 0.61061 0.5542 0.89494 0.0
H770 H 0.63114 0.56133 0.93089 0.0
H771 H 0.49243 0.50689 0.95571 0.0
H772 H 0.47662 0.46101 0.96763 0.0
H773 H 0.47041 0.46233 0.94078 0.0
H774 H 0.50709 0.40984 0.93515 0.0
H775 H 0.51333 0.40828 0.96199 0.0
H776 H 0.5541 0.41845 0.94629 0.0
H777 H 0.64013 0.5591 0.96836 0.0
H778 H 0.63685 0.54812 0.00472 0.0
H779 H 0.53014 0.45816 0.99384 0.0
C780 C 0.53624 0.48433 0.91309 0.0
C781 C 0.55864 0.50809 0.89898 0.0
C782 C 0.59303 0.53578 0.90555 0.0
C783 C 0.60492 0.54 0.92591 0.0
C784 C 0.58207 0.51629 0.93948 0.0
C785 C 0.54847 0.48899 0.93336 0.0
C786 C 0.52891 0.46755 0.95102 0.0
C787 C 0.48978 0.4749 0.95395 0.0
C788 C 0.52568 0.42342 0.94845 0.0
C789 C 0.55664 0.48722 0.96806 0.0
C790 C 0.58719 0.51512 0.96107 0.0
C791 C 0.61644 0.53719 0.974 0.0
C792 C 0.61442 0.53059 0.99461 0.0
C793 C 0.58332 0.50219 0.00215 0.0
C794 C 0.55411 0.48031 0.9886 0.0
H795 H 0.06439 0.55851 0.21952 0.0
H796 H 0.10133 0.45716 0.19908 0.0
H797 H 0.09905 0.43561 0.2339 0.0
H798 H 0.12096 0.57843 0.26492 0.0
H799 H 0.08632 0.59444 0.27948 0.0
H800 H 0.08783 0.60005 0.25274 0.0
H801 H 1.01691 0.56085 0.24869 0.0
H802 H 1.01515 0.55515 0.27545 0.0
H803 H 1.00153 0.51252 0.25815 0.0
H804 H 0.09315 0.42555 0.27108 0.0
H805 H 0.08846 0.4302 0.30818 0.0
H806 H 1.05954 0.54037 0.30445 0.0
C807 C 0.07162 0.53157 0.22235 0.0
C808 C 0.08236 0.50905 0.2066 0.0
C809 C 0.09234 0.4744 0.21091 0.0
C810 C 0.09122 0.46201 0.23063 0.0
C811 C 0.08057 0.48494 0.24586 0.0
C812 C 0.07129 0.51918 0.24198 0.0
C813 C 0.06297 0.53969 0.26117 0.0
C814 C 0.09121 0.58056 0.26479 0.0
C815 C 1.02168 0.54218 0.26084 0.0
C816 C 0.06921 0.51176 0.27648 0.0
C817 C 0.07885 0.48009 0.26734 0.0
C818 C 0.08568 0.45024 0.27841 0.0
C819 C 0.08285 0.45304 0.29941 0.0
C820 C 0.07382 0.48569 0.30906 0.0
C821 C 0.06682 0.51529 0.29741 0.0
loop_
_geom_bond_atom_site_label_1
_geom_bond_atom_site_label_2
_geom_bond_distance
_geom_bond_site_symmetry_2
_ccdc_geom_bond_type
Nd0 C2 2.836 . S
Nd0 O20 2.500 . S
Nd0 O21 2.492 . S
Nd0 O22 2.487 . S
Nd0 O23 2.682 . S
Nd0 O24 2.410 . S
Nd0 O29 2.414 . S
Nd0 O31 2.424 1_455 S
Nd1 C11 2.836 . S
Nd1 O23 2.414 1_655 S
Nd1 O25 2.424 1_655 S
Nd1 O26 2.500 . S
Nd1 O27 2.492 . S
Nd1 O28 2.487 1_655 S
Nd1 O29 2.682 1_655 S
Nd1 O30 2.410 . S
C2 Nd0 2.836 . S
C2 C3 1.498 . S
C2 O20 1.258 . S
C2 O21 1.239 . S
C3 C2 1.498 . S
C3 C4 1.366 . S
C3 C8 1.407 . S
C4 C3 1.366 . S
C4 C5 1.392 . S
C4 H32 0.930 . S
C5 C4 1.392 . S
C5 C6 1.398 . S
C5 H33 0.929 . S
C6 C5 1.398 . S
C6 C7 1.352 . S
C7 C6 1.352 . S
C7 C8 1.384 . S
C7 H34 0.930 . S
C8 C3 1.407 . S
C8 C7 1.384 . S
C8 H35 0.929 . S
C9 O22 1.241 . S
C9 O23 1.273 . S
C10 O24 1.251 . S
C10 O25 1.268 . S
C11 Nd1 2.836 . S
C11 C12 1.498 . S
C11 O26 1.258 . S
C11 O27 1.239 . S
C12 C11 1.498 . S
C12 C13 1.366 . S
C12 C17 1.407 . S
C13 C12 1.366 . S
C13 C14 1.392 . S
C13 H36 0.930 . S
C14 C13 1.392 . S
C14 C15 1.398 . S
C14 H37 0.929 . S
C15 C14 1.398 . S
C15 C16 1.352 . S
C16 C15 1.352 . S
C16 C17 1.384 . S
C16 H38 0.930 . S
C17 C12 1.407 . S
C17 C16 1.384 . S
C17 H39 0.929 . S
C18 O28 1.241 . S
C18 O29 1.273 . S
C19 O30 1.251 . S
C19 O31 1.268 . S
O20 Nd0 2.500 . S
O20 C2 1.258 . S
O21 Nd0 2.492 . S
O21 C2 1.239 . S
O22 Nd0 2.487 . S
O22 C9 1.241 . S
O23 Nd0 2.682 . S
O23 Nd1 2.414 1_455 S
O23 C9 1.273 . S
O24 Nd0 2.410 . S
O24 C10 1.251 . S
O25 Nd1 2.424 1_455 S
O25 C10 1.268 . S
O26 Nd1 2.500 . S
O26 C11 1.258 . S
O27 Nd1 2.492 . S
O27 C11 1.239 . S
O28 Nd1 2.487 1_455 S
O28 C18 1.241 . S
O29 Nd0 2.414 . S
O29 Nd1 2.682 1_455 S
O29 C18 1.273 . S
O30 Nd1 2.410 . S
O30 C19 1.251 . S
O31 Nd0 2.424 1_655 S
O31 C19 1.268 . S
H32 C4 0.930 . S
H33 C5 0.929 . S
H34 C7 0.930 . S
H35 C8 0.929 . S
H36 C13 0.930 . S
H37 C14 0.929 . S
H38 C16 0.930 . S
H39 C17 0.929 . S
Nd40 C42 2.820 1_545 S
Nd40 O60 2.484 1_545 S
Nd40 O61 2.479 1_545 S
Nd40 O62 2.487 1_545 S
Nd40 O63 2.684 . S
Nd40 O64 2.388 1_545 S
Nd40 O69 2.411 . S
Nd40 O71 2.447 . S
Nd41 C51 2.836 . S
Nd41 O63 2.414 . S
Nd41 O65 2.424 1_545 S
Nd41 O66 2.500 . S
Nd41 O67 2.492 . S
Nd41 O68 2.487 . S
Nd41 O69 2.682 . S
Nd41 O70 2.410 . S
C42 Nd40 2.820 1_565 S
C42 C43 1.498 . S
C42 O60 1.258 . S
C42 O61 1.239 . S
C43 C42 1.498 . S
C43 C44 1.366 . S
C43 C48 1.407 . S
C44 C43 1.366 . S
C44 C45 1.392 . S
C44 H72 0.930 . S
C45 C44 1.392 . S
C45 C46 1.398 . S
C45 H73 0.929 . S
C46 C45 1.398 . S
C46 C47 1.352 . S
C47 C46 1.352 . S
C47 C48 1.384 . S
C47 H74 0.930 . S
C48 C43 1.407 . S
C48 C47 1.384 . S
C48 H75 0.929 . S
C49 O62 1.242 1_545 S
C49 O63 1.273 . S
C50 O64 1.251 . S
C50 O65 1.268 . S
C51 Nd41 2.836 . S
C51 C52 1.498 . S
C51 O66 1.258 . S
C51 O67 1.239 . S
C52 C51 1.498 . S
C52 C53 1.366 . S
C52 C57 1.407 . S
C53 C52 1.366 . S
C53 C54 1.392 . S
C53 H76 0.930 . S
C54 C53 1.392 . S
C54 C55 1.398 . S
C54 H77 0.929 . S
C55 C54 1.398 . S
C55 C56 1.352 . S
C56 C55 1.352 . S
C56 C57 1.384 . S
C56 H78 0.930 . S
C57 C52 1.407 . S
C57 C56 1.384 . S
C57 H79 0.929 . S
C58 O68 1.241 . S
C58 O69 1.273 . S
C59 O70 1.251 . S
C59 O71 1.268 . S
O60 Nd40 2.484 1_565 S
O60 C42 1.258 . S
O61 Nd40 2.479 1_565 S
O61 C42 1.239 . S
O62 Nd40 2.487 1_565 S
O62 C49 1.242 1_565 S
O63 Nd40 2.684 . S
O63 Nd41 2.414 . S
O63 C49 1.273 . S
O64 Nd40 2.388 1_565 S
O64 C50 1.251 . S
O65 Nd41 2.424 1_565 S
O65 C50 1.268 . S
O66 Nd41 2.500 . S
O66 C51 1.258 . S
O67 Nd41 2.492 . S
O67 C51 1.239 . S
O68 Nd41 2.487 . S
O68 C58 1.241 . S
O69 Nd40 2.411 . S
O69 Nd41 2.682 . S
O69 C58 1.273 . S
O70 Nd41 2.410 . S
O70 C59 1.251 . S
O71 Nd40 2.447 . S
O71 C59 1.268 . S
H72 C44 0.930 . S
H73 C45 0.929 . S
H74 C47 0.930 . S
H75 C48 0.929 . S
H76 C53 0.930 . S
H77 C54 0.929 . S
H78 C56 0.930 . S
H79 C57 0.929 . S
Nd80 C82 2.836 . S
Nd80 O100 2.500 . S
Nd80 O101 2.492 . S
Nd80 O102 2.487 . S
Nd80 O103 2.682 . S
Nd80 O104 2.410 . S
Nd80 O109 2.414 . S
Nd80 O111 2.424 . S
Nd81 C91 2.836 . S
Nd81 O103 2.414 . S
Nd81 O105 2.424 . S
Nd81 O106 2.500 . S
Nd81 O107 2.492 . S
Nd81 O108 2.487 . S
Nd81 O109 2.682 . S
Nd81 O110 2.410 . S
C82 Nd80 2.836 . S
C82 C83 1.498 . S
C82 O100 1.258 . S
C82 O101 1.239 . S
C83 C82 1.498 . S
C83 C84 1.366 . S
C83 C88 1.407 . S
C84 C83 1.366 . S
C84 C85 1.392 . S
C84 H112 0.930 . S
C85 C84 1.392 . S
C85 C86 1.398 . S
C85 H113 0.929 . S
C86 C85 1.398 . S
C86 C87 1.352 . S
C87 C86 1.352 . S
C87 C88 1.384 . S
C87 H114 0.930 . S
C88 C83 1.407 . S
C88 C87 1.384 . S
C88 H115 0.929 . S
C89 O102 1.241 . S
C89 O103 1.273 . S
C90 O104 1.251 . S
C90 O105 1.268 . S
C91 Nd81 2.836 . S
C91 C92 1.498 . S
C91 O106 1.258 . S
C91 O107 1.239 . S
C92 C91 1.498 . S
C92 C93 1.366 . S
C92 C97 1.407 . S
C93 C92 1.366 . S
C93 C94 1.392 . S
C93 H116 0.930 . S
C94 C93 1.392 . S
C94 C95 1.398 . S
C94 H117 0.929 . S
C95 C94 1.398 . S
C95 C96 1.352 . S
C96 C95 1.352 . S
C96 C97 1.384 . S
C96 H118 0.930 . S
C97 C92 1.407 . S
C97 C96 1.384 . S
C97 H119 0.929 . S
C98 O108 1.241 . S
C98 O109 1.273 . S
C99 O110 1.251 . S
C99 O111 1.268 . S
O100 Nd80 2.500 . S
O100 C82 1.258 . S
O101 Nd80 2.492 . S
O101 C82 1.239 . S
O102 Nd80 2.487 . S
O102 C89 1.241 . S
O103 Nd80 2.682 . S
O103 Nd81 2.414 . S
O103 C89 1.273 . S
O104 Nd80 2.410 . S
O104 C90 1.251 . S
O105 Nd81 2.424 . S
O105 C90 1.268 . S
O106 Nd81 2.500 . S
O106 C91 1.258 . S
O107 Nd81 2.492 . S
O107 C91 1.239 . S
O108 Nd81 2.487 . S
O108 C98 1.241 . S
O109 Nd80 2.414 . S
O109 Nd81 2.682 . S
O109 C98 1.273 . S
O110 Nd81 2.410 . S
O110 C99 1.251 . S
O111 Nd80 2.424 . S
O111 C99 1.268 . S
H112 C84 0.930 . S
H113 C85 0.929 . S
H114 C87 0.930 . S
H115 C88 0.929 . S
H116 C93 0.930 . S
H117 C94 0.929 . S
H118 C96 0.930 . S
H119 C97 0.929 . S
C120 C121 1.384 . S
C120 H133 0.947 . S
C120 C155 1.382 . S
C121 C120 1.384 . S
C121 C122 1.378 . S
C122 C121 1.378 . S
C122 C123 1.378 . S
C122 H134 0.952 . S
C123 C122 1.378 . S
C123 H135 0.950 . S
C123 C154 1.383 . S
H124 C143 0.947 . S
H125 C144 0.946 . S
H126 C146 0.953 . S
H127 C147 0.945 . S
H128 C149 0.952 . S
H129 C150 0.949 . S
H130 C152 0.940 1_565 S
H131 C153 0.948 . S
H132 C155 0.951 . S
H133 C120 0.947 . S
H134 C122 0.952 . S
H135 C123 0.950 . S
N136 C139 1.382 . S
N136 C141 1.363 1_545 S
N137 C139 1.371 . S
N137 C140 1.372 . S
N138 C140 1.361 1_565 S
N138 C141 1.377 . S
C139 N136 1.382 . S
C139 N137 1.371 . S
C139 C142 1.480 . S
C140 N137 1.372 . S
C140 N138 1.361 1_545 S
C140 C148 1.457 . S
C141 N136 1.363 1_565 S
C141 N138 1.377 . S
C141 C154 1.479 . S
C142 C139 1.480 . S
C142 C143 1.383 . S
C142 C147 1.385 . S
C143 H124 0.947 . S
C143 C142 1.383 . S
C143 C144 1.388 . S
C144 H125 0.946 . S
C144 C143 1.388 . S
C144 C145 1.384 . S
C145 C144 1.384 . S
C145 C146 1.377 . S
C146 H126 0.953 . S
C146 C145 1.377 . S
C146 C147 1.369 . S
C147 H127 0.945 . S
C147 C142 1.385 . S
C147 C146 1.369 . S
C148 C140 1.457 . S
C148 C149 1.372 . S
C148 C153 1.364 1_545 S
C149 H128 0.952 . S
C149 C148 1.372 . S
C149 C150 1.389 . S
C150 H129 0.949 . S
C150 C149 1.389 . S
C150 C151 1.387 . S
C151 C150 1.387 . S
C151 C152 1.383 . S
C152 H130 0.940 1_545 S
C152 C151 1.383 . S
C152 C153 1.378 1_545 S
C153 H131 0.948 . S
C153 C148 1.364 1_565 S
C153 C152 1.378 1_565 S
C154 C123 1.383 . S
C154 C141 1.479 . S
C154 C155 1.398 . S
C155 C120 1.382 . S
C155 H132 0.951 . S
C155 C154 1.398 . S
C156 C157 1.384 . S
C156 H169 0.947 . S
C156 C191 1.382 . S
C157 C156 1.384 . S
C157 C158 1.378 . S
C158 C157 1.378 . S
C158 C159 1.378 . S
C158 H170 0.952 . S
C159 C158 1.378 . S
C159 H171 0.950 . S
C159 C190 1.383 . S
H160 C179 0.947 . S
H161 C180 0.946 . S
H162 C182 0.953 . S
H163 C183 0.945 . S
H164 C185 0.952 . S
H165 C186 0.949 . S
H166 C188 0.950 . S
H167 C189 0.948 . S
H168 C191 0.951 . S
H169 C156 0.947 . S
H170 C158 0.952 . S
H171 C159 0.950 . S
N172 C175 1.382 . S
N172 C177 1.363 . S
N173 C175 1.371 . S
N173 C176 1.372 . S
N174 C176 1.361 . S
N174 C177 1.377 . S
C175 N172 1.382 . S
C175 N173 1.371 . S
C175 C178 1.480 . S
C176 N173 1.372 . S
C176 N174 1.361 . S
C176 C184 1.457 . S
C177 N172 1.363 . S
C177 N174 1.377 . S
C177 C190 1.479 . S
C178 C175 1.480 . S
C178 C179 1.383 . S
C178 C183 1.385 . S
C179 H160 0.947 . S
C179 C178 1.383 . S
C179 C180 1.388 . S
C180 H161 0.946 . S
C180 C179 1.388 . S
C180 C181 1.384 . S
C181 C180 1.384 . S
C181 C182 1.377 . S
C182 H162 0.953 . S
C182 C181 1.377 . S
C182 C183 1.369 . S
C183 H163 0.945 . S
C183 C178 1.385 . S
C183 C182 1.369 . S
C184 C176 1.457 . S
C184 C185 1.372 . S
C184 C189 1.364 . S
C185 H164 0.952 . S
C185 C184 1.372 . S
C185 C186 1.389 . S
C186 H165 0.949 . S
C186 C185 1.389 . S
C186 C187 1.387 . S
C187 C186 1.387 . S
C187 C188 1.372 . S
C188 H166 0.950 . S
C188 C187 1.372 . S
C188 C189 1.379 . S
C189 H167 0.948 . S
C189 C184 1.364 . S
C189 C188 1.379 . S
C190 C159 1.383 . S
C190 C177 1.479 . S
C190 C191 1.398 . S
C191 C156 1.382 . S
C191 H168 0.951 . S
C191 C190 1.398 . S
C192 C193 1.384 . S
C192 H205 0.947 . S
C192 C227 1.382 . S
C193 C192 1.384 . S
C193 C194 1.378 . S
C194 C193 1.378 . S
C194 C195 1.378 . S
C194 H206 0.952 . S
C195 C194 1.378 . S
C195 H207 0.950 . S
C195 C226 1.383 . S
H196 C215 0.947 . S
H197 C216 0.946 . S
H198 C218 0.953 . S
H199 C219 0.945 . S
H200 C221 0.952 . S
H201 C222 0.949 . S
H202 C224 0.950 1_655 S
H203 C225 0.969 . S
H204 C227 0.951 . S
H205 C192 0.947 . S
H206 C194 0.952 . S
H207 C195 0.950 . S
N208 C211 1.382 . S
N208 C213 1.363 . S
N209 C211 1.371 . S
N209 C212 1.372 . S
N210 C212 1.361 . S
N210 C213 1.377 . S
C211 N208 1.382 . S
C211 N209 1.371 . S
C211 C214 1.480 . S
C212 N209 1.372 . S
C212 N210 1.361 . S
C212 C220 1.457 . S
C213 N208 1.363 . S
C213 N210 1.377 . S
C213 C226 1.479 1_455 S
C214 C211 1.480 . S
C214 C215 1.383 . S
C214 C219 1.385 . S
C215 H196 0.947 . S
C215 C214 1.383 . S
C215 C216 1.388 . S
C216 H197 0.946 . S
C216 C215 1.388 . S
C216 C217 1.384 . S
C217 C216 1.384 . S
C217 C218 1.377 . S
C218 H198 0.953 . S
C218 C217 1.377 . S
C218 C219 1.369 . S
C219 H199 0.945 . S
C219 C214 1.385 . S
C219 C218 1.369 . S
C220 C212 1.457 . S
C220 C221 1.372 . S
C220 C225 1.342 1_455 S
C221 H200 0.952 . S
C221 C220 1.372 . S
C221 C222 1.389 . S
C222 H201 0.949 . S
C222 C221 1.389 . S
C222 C223 1.387 . S
C223 C222 1.387 . S
C223 C224 1.372 . S
C224 H202 0.950 1_455 S
C224 C223 1.372 . S
C224 C225 1.379 1_455 S
C225 H203 0.969 . S
C225 C220 1.342 1_655 S
C225 C224 1.379 1_655 S
C226 C195 1.383 . S
C226 C213 1.479 1_655 S
C226 C227 1.398 . S
C227 C192 1.382 . S
C227 H204 0.951 . S
C227 C226 1.398 . S
C228 C229 1.384 . S
C228 H241 0.947 . S
C228 C263 1.382 . S
C229 C228 1.384 . S
C229 C230 1.378 . S
C230 C229 1.378 . S
C230 C231 1.378 . S
C230 H242 0.952 . S
C231 C230 1.378 . S
C231 H243 0.950 . S
C231 C262 1.383 . S
H232 C251 0.947 . S
H233 C252 0.946 . S
H234 C254 0.953 . S
H235 C255 0.945 . S
H236 C257 0.952 . S
H237 C258 0.949 . S
H238 C260 0.950 . S
H239 C261 0.948 . S
H240 C263 0.951 . S
H241 C228 0.947 . S
H242 C230 0.952 . S
H243 C231 0.950 . S
N244 C247 1.382 1_455 S
N244 C249 1.363 . S
N245 C247 1.371 . S
N245 C248 1.372 1_655 S
N246 C248 1.361 . S
N246 C249 1.377 . S
C247 N244 1.382 1_655 S
C247 N245 1.371 . S
C247 C250 1.480 . S
C248 N245 1.372 1_455 S
C248 N246 1.361 . S
C248 C256 1.457 . S
C249 N244 1.363 . S
C249 N246 1.377 . S
C249 C262 1.479 . S
C250 C247 1.480 . S
C250 C251 1.383 . S
C250 C255 1.385 . S
C251 H232 0.947 . S
C251 C250 1.383 . S
C251 C252 1.388 . S
C252 H233 0.946 . S
C252 C251 1.388 . S
C252 C253 1.384 . S
C253 C252 1.384 . S
C253 C254 1.377 . S
C254 H234 0.953 . S
C254 C253 1.377 . S
C254 C255 1.369 . S
C255 H235 0.945 . S
C255 C250 1.385 . S
C255 C254 1.369 . S
C256 C248 1.457 . S
C256 C257 1.372 1_455 S
C256 C261 1.364 . S
C257 H236 0.952 . S
C257 C256 1.372 1_655 S
C257 C258 1.389 . S
C258 H237 0.949 . S
C258 C257 1.389 . S
C258 C259 1.387 1_655 S
C259 C258 1.387 1_455 S
C259 C260 1.372 . S
C260 H238 0.950 . S
C260 C259 1.372 . S
C260 C261 1.379 . S
C261 H239 0.948 . S
C261 C256 1.364 . S
C261 C260 1.379 . S
C262 C231 1.383 . S
C262 C249 1.479 . S
C262 C263 1.398 . S
C263 C228 1.382 . S
C263 H240 0.951 . S
C263 C262 1.398 . S
C264 C265 1.384 . S
C264 H277 0.947 . S
C264 C299 1.382 . S
C265 C264 1.384 . S
C265 C266 1.378 . S
C266 C265 1.378 . S
C266 C267 1.378 . S
C266 H278 0.952 . S
C267 C266 1.378 . S
C267 H279 0.950 . S
C267 C298 1.383 . S
H268 C287 0.947 . S
H269 C288 0.946 . S
H270 C290 0.953 . S
H271 C291 0.945 . S
H272 C293 0.952 . S
H273 C294 0.949 . S
H274 C296 0.950 . S
H275 C297 0.948 . S
H276 C299 0.951 . S
H277 C264 0.947 . S
H278 C266 0.952 . S
H279 C267 0.950 . S
N280 C283 1.382 1_545 S
N280 C285 1.363 . S
N281 C283 1.371 . S
N281 C284 1.372 1_565 S
N282 C284 1.361 . S
N282 C285 1.377 . S
C283 N280 1.382 1_565 S
C283 N281 1.371 . S
C283 C286 1.480 . S
C284 N281 1.372 1_545 S
C284 N282 1.361 . S
C284 C292 1.457 . S
C285 N280 1.363 . S
C285 N282 1.377 . S
C285 C298 1.479 . S
C286 C283 1.480 . S
C286 C287 1.383 . S
C286 C291 1.385 . S
C287 H268 0.947 . S
C287 C286 1.383 . S
C287 C288 1.388 . S
C288 H269 0.946 . S
C288 C287 1.388 . S
C288 C289 1.384 . S
C289 C288 1.384 . S
C289 C290 1.377 . S
C290 H270 0.953 . S
C290 C289 1.377 . S
C290 C291 1.369 . S
C291 H271 0.945 . S
C291 C286 1.385 . S
C291 C290 1.369 . S
C292 C284 1.457 . S
C292 C293 1.372 1_545 S
C292 C297 1.364 . S
C293 H272 0.952 . S
C293 C292 1.372 1_565 S
C293 C294 1.389 . S
C294 H273 0.949 . S
C294 C293 1.389 . S
C294 C295 1.387 1_565 S
C295 C294 1.387 1_545 S
C295 C296 1.372 . S
C296 H274 0.950 . S
C296 C295 1.372 . S
C296 C297 1.379 . S
C297 H275 0.948 . S
C297 C292 1.364 . S
C297 C296 1.379 . S
C298 C267 1.383 . S
C298 C285 1.479 . S
C298 C299 1.398 . S
C299 C264 1.382 . S
C299 H276 0.951 . S
C299 C298 1.398 . S
C300 C301 1.384 . S
C300 H313 0.947 . S
C300 C335 1.382 . S
C301 C300 1.384 . S
C301 C302 1.378 . S
C302 C301 1.378 . S
C302 C303 1.378 . S
C302 H314 0.952 . S
C303 C302 1.378 . S
C303 H315 0.950 . S
C303 C334 1.383 . S
H304 C323 0.947 . S
H305 C324 0.946 . S
H306 C326 0.953 . S
H307 C327 0.945 . S
H308 C329 0.952 . S
H309 C330 0.949 . S
H310 C332 0.950 . S
H311 C333 0.948 . S
H312 C335 0.951 . S
H313 C300 0.947 . S
H314 C302 0.952 . S
H315 C303 0.950 . S
N316 C319 1.382 . S
N316 C321 1.363 . S
N317 C319 1.371 . S
N317 C320 1.372 . S
N318 C320 1.361 . S
N318 C321 1.377 . S
C319 N316 1.382 . S
C319 N317 1.371 . S
C319 C322 1.480 . S
C320 N317 1.372 . S
C320 N318 1.361 . S
C320 C328 1.457 . S
C321 N316 1.363 . S
C321 N318 1.377 . S
C321 C334 1.479 . S
C322 C319 1.480 . S
C322 C323 1.383 . S
C322 C327 1.385 . S
C323 H304 0.947 . S
C323 C322 1.383 . S
C323 C324 1.388 . S
C324 H305 0.946 . S
C324 C323 1.388 . S
C324 C325 1.384 . S
C325 C324 1.384 . S
C325 C326 1.377 . S
C326 H306 0.953 . S
C326 C325 1.377 . S
C326 C327 1.369 . S
C327 H307 0.945 . S
C327 C322 1.385 . S
C327 C326 1.369 . S
C328 C320 1.457 . S
C328 C329 1.372 . S
C328 C333 1.364 . S
C329 H308 0.952 . S
C329 C328 1.372 . S
C329 C330 1.389 . S
C330 H309 0.949 . S
C330 C329 1.389 . S
C330 C331 1.387 . S
C331 C330 1.387 . S
C331 C332 1.372 . S
C332 H310 0.950 . S
C332 C331 1.372 . S
C332 C333 1.379 . S
C333 H311 0.948 . S
C333 C328 1.364 . S
C333 C332 1.379 . S
C334 C303 1.383 . S
C334 C321 1.479 . S
C334 C335 1.398 . S
C335 C300 1.382 . S
C335 H312 0.951 . S
C335 C334 1.398 . S
H336 C348 0.930 . S
H337 C350 0.930 . S
H338 C351 0.930 . S
H339 C355 0.959 . S
H340 C355 0.959 . S
H341 C355 0.961 . S
H342 C356 0.960 . S
H343 C356 0.961 . S
H344 C356 0.959 . S
H345 C359 0.929 . S
H346 C360 0.931 . S
H347 C362 0.930 . S
C348 H336 0.930 . S
C348 C349 1.399 . S
C348 C353 1.399 . S
C349 C348 1.399 . S
C349 C350 1.376 . S
C350 H337 0.930 . S
C350 C349 1.376 . S
C350 C351 1.388 . S
C351 H338 0.930 . S
C351 C350 1.388 . S
C351 C352 1.390 . S
C352 C351 1.390 . S
C352 C353 1.394 . S
C352 C358 1.465 . S
C353 C348 1.399 . S
C353 C352 1.394 . S
C353 C354 1.516 . S
C354 C353 1.516 . S
C354 C355 1.502 . S
C354 C356 1.561 . S
C354 C357 1.526 . S
C355 H339 0.959 . S
C355 H340 0.959 . S
C355 H341 0.961 . S
C355 C354 1.502 . S
C356 H342 0.960 . S
C356 H343 0.961 . S
C356 H344 0.959 . S
C356 C354 1.561 . S
C357 C354 1.526 . S
C357 C358 1.396 . S
C357 C362 1.390 . S
C358 C352 1.465 . S
C358 C357 1.396 . S
C358 C359 1.399 . S
C359 H345 0.929 . S
C359 C358 1.399 . S
C359 C360 1.385 . S
C360 H346 0.931 . S
C360 C359 1.385 . S
C360 C361 1.389 . S
C361 C360 1.389 . S
C361 C362 1.387 . S
C362 H347 0.930 . S
C362 C357 1.390 . S
C362 C361 1.387 . S
H363 C375 0.930 . S
H364 C377 0.930 . S
H365 C378 0.930 . S
H366 C382 0.959 . S
H367 C382 0.959 . S
H368 C382 0.961 . S
H369 C383 0.960 . S
H370 C383 0.961 . S
H371 C383 0.959 . S
H372 C386 0.929 . S
H373 C387 0.931 . S
H374 C389 0.930 . S
C375 H363 0.930 . S
C375 C376 1.399 . S
C375 C380 1.399 . S
C376 C375 1.399 . S
C376 C377 1.376 . S
C377 H364 0.930 . S
C377 C376 1.376 . S
C377 C378 1.388 . S
C378 H365 0.930 . S
C378 C377 1.388 . S
C378 C379 1.390 . S
C379 C378 1.390 . S
C379 C380 1.394 . S
C379 C385 1.465 . S
C380 C375 1.399 . S
C380 C379 1.394 . S
C380 C381 1.516 . S
C381 C380 1.516 . S
C381 C382 1.502 . S
C381 C383 1.561 . S
C381 C384 1.526 . S
C382 H366 0.959 . S
C382 H367 0.959 . S
C382 H368 0.961 . S
C382 C381 1.502 . S
C383 H369 0.960 . S
C383 H370 0.961 . S
C383 H371 0.959 . S
C383 C381 1.561 . S
C384 C381 1.526 . S
C384 C385 1.396 . S
C384 C389 1.390 . S
C385 C379 1.465 . S
C385 C384 1.396 . S
C385 C386 1.399 . S
C386 H372 0.929 . S
C386 C385 1.399 . S
C386 C387 1.385 . S
C387 H373 0.931 . S
C387 C386 1.385 . S
C387 C388 1.389 . S
C388 C387 1.389 . S
C388 C389 1.387 . S
C389 H374 0.930 . S
C389 C384 1.390 . S
C389 C388 1.387 . S
H390 C402 0.930 . S
H391 C404 0.930 . S
H392 C405 0.930 . S
H393 C409 0.959 . S
H394 C409 0.959 . S
H395 C409 0.961 . S
H396 C410 0.960 . S
H397 C410 0.961 . S
H398 C410 0.959 . S
H399 C413 0.929 . S
H400 C414 0.931 . S
H401 C416 0.930 . S
C402 H390 0.930 . S
C402 C403 1.399 . S
C402 C407 1.399 . S
C403 C402 1.399 . S
C403 C404 1.376 . S
C404 H391 0.930 . S
C404 C403 1.376 . S
C404 C405 1.388 . S
C405 H392 0.930 . S
C405 C404 1.388 . S
C405 C406 1.390 . S
C406 C405 1.390 . S
C406 C407 1.394 . S
C406 C412 1.465 . S
C407 C402 1.399 . S
C407 C406 1.394 . S
C407 C408 1.516 . S
C408 C407 1.516 . S
C408 C409 1.502 . S
C408 C410 1.561 . S
C408 C411 1.526 . S
C409 H393 0.959 . S
C409 H394 0.959 . S
C409 H395 0.961 . S
C409 C408 1.502 . S
C410 H396 0.960 . S
C410 H397 0.961 . S
C410 H398 0.959 . S
C410 C408 1.561 . S
C411 C408 1.526 . S
C411 C412 1.396 . S
C411 C416 1.390 . S
C412 C406 1.465 . S
C412 C411 1.396 . S
C412 C413 1.399 . S
C413 H399 0.929 . S
C413 C412 1.399 . S
C413 C414 1.385 . S
C414 H400 0.931 . S
C414 C413 1.385 . S
C414 C415 1.389 . S
C415 C414 1.389 . S
C415 C416 1.387 . S
C416 H401 0.930 . S
C416 C411 1.390 . S
C416 C415 1.387 . S
H417 C429 0.930 . S
H418 C431 0.930 . S
H419 C432 0.930 . S
H420 C436 0.959 . S
H421 C436 0.959 . S
H422 C436 0.961 . S
H423 C437 0.960 . S
H424 C437 0.961 . S
H425 C437 0.959 . S
H426 C440 0.929 . S
H427 C441 0.931 . S
H428 C443 0.930 . S
C429 H417 0.930 . S
C429 C430 1.399 . S
C429 C434 1.399 . S
C430 C429 1.399 . S
C430 C431 1.376 . S
C431 H418 0.930 . S
C431 C430 1.376 . S
C431 C432 1.388 . S
C432 H419 0.930 . S
C432 C431 1.388 . S
C432 C433 1.390 . S
C433 C432 1.390 . S
C433 C434 1.394 . S
C433 C439 1.465 . S
C434 C429 1.399 . S
C434 C433 1.394 . S
C434 C435 1.516 . S
C435 C434 1.516 . S
C435 C436 1.502 . S
C435 C437 1.561 . S
C435 C438 1.526 . S
C436 H420 0.959 . S
C436 H421 0.959 . S
C436 H422 0.961 . S
C436 C435 1.502 . S
C437 H423 0.960 . S
C437 H424 0.961 . S
C437 H425 0.959 . S
C437 C435 1.561 . S
C438 C435 1.526 . S
C438 C439 1.396 . S
C438 C443 1.390 . S
C439 C433 1.465 . S
C439 C438 1.396 . S
C439 C440 1.399 . S
C440 H426 0.929 . S
C440 C439 1.399 . S
C440 C441 1.385 . S
C441 H427 0.931 . S
C441 C440 1.385 . S
C441 C442 1.389 . S
C442 C441 1.389 . S
C442 C443 1.387 . S
C443 H428 0.930 . S
C443 C438 1.390 . S
C443 C442 1.387 . S
H444 C456 0.930 . S
H445 C458 0.930 . S
H446 C459 0.930 . S
H447 C463 0.959 . S
H448 C463 0.959 . S
H449 C463 0.961 . S
H450 C464 0.960 . S
H451 C464 0.961 . S
H452 C464 0.959 . S
H453 C467 0.929 . S
H454 C468 0.931 . S
H455 C470 0.930 . S
C456 H444 0.930 . S
C456 C457 1.399 . S
C456 C461 1.399 . S
C457 C456 1.399 . S
C457 C458 1.376 . S
C458 H445 0.930 . S
C458 C457 1.376 . S
C458 C459 1.388 . S
C459 H446 0.930 . S
C459 C458 1.388 . S
C459 C460 1.390 . S
C460 C459 1.390 . S
C460 C461 1.394 . S
C460 C466 1.465 . S
C461 C456 1.399 . S
C461 C460 1.394 . S
C461 C462 1.516 . S
C462 C461 1.516 . S
C462 C463 1.502 . S
C462 C464 1.561 . S
C462 C465 1.526 . S
C463 H447 0.959 . S
C463 H448 0.959 . S
C463 H449 0.961 . S
C463 C462 1.502 . S
C464 H450 0.960 . S
C464 H451 0.961 . S
C464 H452 0.959 . S
C464 C462 1.561 . S
C465 C462 1.526 . S
C465 C466 1.396 . S
C465 C470 1.390 . S
C466 C460 1.465 . S
C466 C465 1.396 . S
C466 C467 1.399 . S
C467 H453 0.929 . S
C467 C466 1.399 . S
C467 C468 1.385 . S
C468 H454 0.931 . S
C468 C467 1.385 . S
C468 C469 1.389 . S
C469 C468 1.389 . S
C469 C470 1.387 . S
C470 H455 0.930 . S
C470 C465 1.390 . S
C470 C469 1.387 . S
H471 C483 0.930 . S
H472 C485 0.930 . S
H473 C486 0.930 . S
H474 C490 0.959 . S
H475 C490 0.959 . S
H476 C490 0.961 . S
H477 C491 0.960 . S
H478 C491 0.961 . S
H479 C491 0.959 . S
H480 C494 0.929 . S
H481 C495 0.931 . S
H482 C497 0.930 . S
C483 H471 0.930 . S
C483 C484 1.399 . S
C483 C488 1.399 . S
C484 C483 1.399 . S
C484 C485 1.376 . S
C485 H472 0.930 . S
C485 C484 1.376 . S
C485 C486 1.388 . S
C486 H473 0.930 . S
C486 C485 1.388 . S
C486 C487 1.390 . S
C487 C486 1.390 . S
C487 C488 1.394 . S
C487 C493 1.465 . S
C488 C483 1.399 . S
C488 C487 1.394 . S
C488 C489 1.516 . S
C489 C488 1.516 . S
C489 C490 1.502 . S
C489 C491 1.561 . S
C489 C492 1.526 . S
C490 H474 0.959 . S
C490 H475 0.959 . S
C490 H476 0.961 . S
C490 C489 1.502 . S
C491 H477 0.960 . S
C491 H478 0.961 . S
C491 H479 0.959 . S
C491 C489 1.561 . S
C492 C489 1.526 . S
C492 C493 1.396 . S
C492 C497 1.390 . S
C493 C487 1.465 . S
C493 C492 1.396 . S
C493 C494 1.399 . S
C494 H480 0.929 . S
C494 C493 1.399 . S
C494 C495 1.385 . S
C495 H481 0.931 . S
C495 C494 1.385 . S
C495 C496 1.389 . S
C496 C495 1.389 . S
C496 C497 1.387 . S
C497 H482 0.930 . S
C497 C492 1.390 . S
C497 C496 1.387 . S
H498 C510 0.930 . S
H499 C512 0.930 . S
H500 C513 0.930 . S
H501 C517 0.959 . S
H502 C517 0.959 . S
H503 C517 0.961 . S
H504 C518 0.960 . S
H505 C518 0.961 . S
H506 C518 0.959 . S
H507 C521 0.929 . S
H508 C522 0.931 . S
H509 C524 0.930 . S
C510 H498 0.930 . S
C510 C511 1.399 . S
C510 C515 1.399 . S
C511 C510 1.399 . S
C511 C512 1.376 . S
C512 H499 0.930 . S
C512 C511 1.376 . S
C512 C513 1.388 . S
C513 H500 0.930 . S
C513 C512 1.388 . S
C513 C514 1.390 . S
C514 C513 1.390 . S
C514 C515 1.394 . S
C514 C520 1.465 . S
C515 C510 1.399 . S
C515 C514 1.394 . S
C515 C516 1.516 . S
C516 C515 1.516 . S
C516 C517 1.502 . S
C516 C518 1.561 . S
C516 C519 1.526 . S
C517 H501 0.959 . S
C517 H502 0.959 . S
C517 H503 0.961 . S
C517 C516 1.502 . S
C518 H504 0.960 . S
C518 H505 0.961 . S
C518 H506 0.959 . S
C518 C516 1.561 . S
C519 C516 1.526 . S
C519 C520 1.396 . S
C519 C524 1.390 . S
C520 C514 1.465 . S
C520 C519 1.396 . S
C520 C521 1.399 . S
C521 H507 0.929 . S
C521 C520 1.399 . S
C521 C522 1.385 . S
C522 H508 0.931 . S
C522 C521 1.385 . S
C522 C523 1.389 . S
C523 C522 1.389 . S
C523 C524 1.387 . S
C524 H509 0.930 . S
C524 C519 1.390 . S
C524 C523 1.387 . S
H525 C537 0.930 . S
H526 C539 0.930 . S
H527 C540 0.930 . S
H528 C544 0.959 . S
H529 C544 0.959 . S
H530 C544 0.961 . S
H531 C545 0.960 . S
H532 C545 0.961 . S
H533 C545 0.959 . S
H534 C548 0.929 . S
H535 C549 0.931 . S
H536 C551 0.930 . S
C537 H525 0.930 . S
C537 C538 1.399 . S
C537 C542 1.399 . S
C538 C537 1.399 . S
C538 C539 1.376 . S
C539 H526 0.930 . S
C539 C538 1.376 . S
C539 C540 1.388 . S
C540 H527 0.930 . S
C540 C539 1.388 . S
C540 C541 1.390 . S
C541 C540 1.390 . S
C541 C542 1.394 . S
C541 C547 1.465 . S
C542 C537 1.399 . S
C542 C541 1.394 . S
C542 C543 1.516 . S
C543 C542 1.516 . S
C543 C544 1.502 . S
C543 C545 1.561 . S
C543 C546 1.526 . S
C544 H528 0.959 . S
C544 H529 0.959 . S
C544 H530 0.961 . S
C544 C543 1.502 . S
C545 H531 0.960 . S
C545 H532 0.961 . S
C545 H533 0.959 . S
C545 C543 1.561 . S
C546 C543 1.526 . S
C546 C547 1.396 . S
C546 C551 1.390 . S
C547 C541 1.465 . S
C547 C546 1.396 . S
C547 C548 1.399 . S
C548 H534 0.929 . S
C548 C547 1.399 . S
C548 C549 1.385 . S
C549 H535 0.931 . S
C549 C548 1.385 . S
C549 C550 1.389 . S
C550 C549 1.389 . S
C550 C551 1.387 . S
C551 H536 0.930 . S
C551 C546 1.390 . S
C551 C550 1.387 . S
H552 C564 0.930 . S
H553 C566 0.930 . S
H554 C567 0.930 . S
H555 C571 0.959 . S
H556 C571 0.959 . S
H557 C571 0.961 . S
H558 C572 0.960 . S
H559 C572 0.961 . S
H560 C572 0.959 . S
H561 C575 0.929 . S
H562 C576 0.931 . S
H563 C578 0.930 . S
C564 H552 0.930 . S
C564 C565 1.399 . S
C564 C569 1.399 . S
C565 C564 1.399 . S
C565 C566 1.376 . S
C566 H553 0.930 . S
C566 C565 1.376 . S
C566 C567 1.388 . S
C567 H554 0.930 . S
C567 C566 1.388 . S
C567 C568 1.390 . S
C568 C567 1.390 . S
C568 C569 1.394 . S
C568 C574 1.465 . S
C569 C564 1.399 . S
C569 C568 1.394 . S
C569 C570 1.516 . S
C570 C569 1.516 . S
C570 C571 1.502 . S
C570 C572 1.561 . S
C570 C573 1.526 . S
C571 H555 0.959 . S
C571 H556 0.959 . S
C571 H557 0.961 . S
C571 C570 1.502 . S
C572 H558 0.960 . S
C572 H559 0.961 . S
C572 H560 0.959 . S
C572 C570 1.561 . S
C573 C570 1.526 . S
C573 C574 1.396 . S
C573 C578 1.390 . S
C574 C568 1.465 . S
C574 C573 1.396 . S
C574 C575 1.399 . S
C575 H561 0.929 . S
C575 C574 1.399 . S
C575 C576 1.385 . S
C576 H562 0.931 . S
C576 C575 1.385 . S
C576 C577 1.389 . S
C577 C576 1.389 . S
C577 C578 1.387 . S
C578 H563 0.930 . S
C578 C573 1.390 . S
C578 C577 1.387 . S
H579 C591 0.930 . S
H580 C593 0.930 . S
H581 C594 0.930 . S
H582 C598 0.959 . S
H583 C598 0.959 . S
H584 C598 0.961 . S
H585 C599 0.960 . S
H586 C599 0.961 . S
H587 C599 0.959 . S
H588 C602 0.929 . S
H589 C603 0.931 . S
H590 C605 0.930 . S
C591 H579 0.930 . S
C591 C592 1.399 . S
C591 C596 1.399 . S
C592 C591 1.399 . S
C592 C593 1.376 . S
C593 H580 0.930 . S
C593 C592 1.376 . S
C593 C594 1.388 . S
C594 H581 0.930 . S
C594 C593 1.388 . S
C594 C595 1.390 . S
C595 C594 1.390 . S
C595 C596 1.394 . S
C595 C601 1.465 . S
C596 C591 1.399 . S
C596 C595 1.394 . S
C596 C597 1.516 . S
C597 C596 1.516 . S
C597 C598 1.502 . S
C597 C599 1.561 . S
C597 C600 1.526 . S
C598 H582 0.959 . S
C598 H583 0.959 . S
C598 H584 0.961 . S
C598 C597 1.502 . S
C599 H585 0.960 . S
C599 H586 0.961 . S
C599 H587 0.959 . S
C599 C597 1.561 . S
C600 C597 1.526 . S
C600 C601 1.396 . S
C600 C605 1.390 . S
C601 C595 1.465 . S
C601 C600 1.396 . S
C601 C602 1.399 . S
C602 H588 0.929 . S
C602 C601 1.399 . S
C602 C603 1.385 . S
C603 H589 0.931 . S
C603 C602 1.385 . S
C603 C604 1.389 . S
C604 C603 1.389 . S
C604 C605 1.387 . S
C605 H590 0.930 . S
C605 C600 1.390 . S
C605 C604 1.387 . S
H606 C618 0.930 . S
H607 C620 0.930 . S
H608 C621 0.930 . S
H609 C625 0.959 . S
H610 C625 0.959 . S
H611 C625 0.961 . S
H612 C626 0.960 . S
H613 C626 0.961 . S
H614 C626 0.959 . S
H615 C629 0.929 . S
H616 C630 0.931 . S
H617 C632 0.930 . S
C618 H606 0.930 . S
C618 C619 1.399 . S
C618 C623 1.399 . S
C619 C618 1.399 . S
C619 C620 1.376 . S
C620 H607 0.930 . S
C620 C619 1.376 . S
C620 C621 1.388 . S
C621 H608 0.930 . S
C621 C620 1.388 . S
C621 C622 1.390 . S
C622 C621 1.390 . S
C622 C623 1.394 . S
C622 C628 1.465 . S
C623 C618 1.399 . S
C623 C622 1.394 . S
C623 C624 1.516 . S
C624 C623 1.516 . S
C624 C625 1.502 . S
C624 C626 1.561 . S
C624 C627 1.526 . S
C625 H609 0.959 . S
C625 H610 0.959 . S
C625 H611 0.961 . S
C625 C624 1.502 . S
C626 H612 0.960 . S
C626 H613 0.961 . S
C626 H614 0.959 . S
C626 C624 1.561 . S
C627 C624 1.526 . S
C627 C628 1.396 . S
C627 C632 1.390 . S
C628 C622 1.465 . S
C628 C627 1.396 . S
C628 C629 1.399 . S
C629 H615 0.929 . S
C629 C628 1.399 . S
C629 C630 1.385 . S
C630 H616 0.931 . S
C630 C629 1.385 . S
C630 C631 1.389 . S
C631 C630 1.389 . S
C631 C632 1.387 . S
C632 H617 0.930 . S
C632 C627 1.390 . S
C632 C631 1.387 . S
H633 C645 0.930 . S
H634 C647 0.930 . S
H635 C648 0.930 . S
H636 C652 0.959 . S
H637 C652 0.959 . S
H638 C652 0.961 . S
H639 C653 0.960 . S
H640 C653 0.961 . S
H641 C653 0.959 . S
H642 C656 0.929 . S
H643 C657 0.931 . S
H644 C659 0.930 . S
C645 H633 0.930 . S
C645 C646 1.399 . S
C645 C650 1.399 . S
C646 C645 1.399 . S
C646 C647 1.376 . S
C647 H634 0.930 . S
C647 C646 1.376 . S
C647 C648 1.388 . S
C648 H635 0.930 . S
C648 C647 1.388 . S
C648 C649 1.390 . S
C649 C648 1.390 . S
C649 C650 1.394 . S
C649 C655 1.465 . S
C650 C645 1.399 . S
C650 C649 1.394 . S
C650 C651 1.516 . S
C651 C650 1.516 . S
C651 C652 1.502 . S
C651 C653 1.561 . S
C651 C654 1.526 . S
C652 H636 0.959 . S
C652 H637 0.959 . S
C652 H638 0.961 . S
C652 C651 1.502 . S
C653 H639 0.960 . S
C653 H640 0.961 . S
C653 H641 0.959 . S
C653 C651 1.561 . S
C654 C651 1.526 . S
C654 C655 1.396 . S
C654 C659 1.390 . S
C655 C649 1.465 . S
C655 C654 1.396 . S
C655 C656 1.399 . S
C656 H642 0.929 . S
C656 C655 1.399 . S
C656 C657 1.385 . S
C657 H643 0.931 . S
C657 C656 1.385 . S
C657 C658 1.389 . S
C658 C657 1.389 . S
C658 C659 1.387 . S
C659 H644 0.930 . S
C659 C654 1.390 . S
C659 C658 1.387 . S
H660 C672 0.930 . S
H661 C674 0.930 1_655 S
H662 C675 0.941 . S
H663 C679 0.959 . S
H664 C679 0.959 . S
H665 C679 0.961 . S
H666 C680 0.960 . S
H667 C680 0.961 . S
H668 C680 0.959 . S
H669 C683 0.918 1_655 S
H670 C684 0.931 1_656 S
H671 C686 0.930 . S
C672 H660 0.930 . S
C672 C673 1.399 . S
C672 C677 1.399 . S
C673 C672 1.399 . S
C673 C674 1.376 . S
C674 H661 0.930 1_455 S
C674 C673 1.376 . S
C674 C675 1.386 1_455 S
C675 H662 0.941 . S
C675 C674 1.386 1_655 S
C675 C676 1.382 1_655 S
C676 C675 1.382 1_455 S
C676 C677 1.394 . S
C676 C682 1.465 . S
C677 C672 1.399 . S
C677 C676 1.394 . S
C677 C678 1.516 . S
C678 C677 1.516 . S
C678 C679 1.502 . S
C678 C680 1.561 . S
C678 C681 1.526 . S
C679 H663 0.959 . S
C679 H664 0.959 . S
C679 H665 0.961 . S
C679 C678 1.502 . S
C680 H666 0.960 . S
C680 H667 0.961 . S
C680 H668 0.959 . S
C680 C678 1.561 . S
C681 C678 1.526 . S
C681 C682 1.396 . S
C681 C686 1.390 . S
C682 C676 1.465 . S
C682 C681 1.396 . S
C682 C683 1.410 . S
C683 H669 0.918 1_455 S
C683 C682 1.410 . S
C683 C684 1.386 . S
C684 H670 0.931 1_454 S
C684 C683 1.386 . S
C684 C685 1.389 . S
C685 C684 1.389 . S
C685 C686 1.387 . S
C686 H671 0.930 . S
C686 C681 1.390 . S
C686 C685 1.387 . S
H687 C699 0.939 . S
H688 C701 0.930 . S
H689 C702 0.930 . S
H690 C706 0.959 . S
H691 C706 0.959 . S
H692 C706 0.961 . S
H693 C707 0.960 . S
H694 C707 0.961 . S
H695 C707 0.959 . S
H696 C710 0.929 . S
H697 C711 0.931 . S
H698 C713 0.930 1_565 S
C699 H687 0.939 . S
C699 C700 1.393 1_565 S
C699 C704 1.396 1_565 S
C700 C699 1.393 1_545 S
C700 C701 1.376 . S
C701 H688 0.930 . S
C701 C700 1.376 . S
C701 C702 1.388 . S
C702 H689 0.930 . S
C702 C701 1.388 . S
C702 C703 1.390 . S
C703 C702 1.390 . S
C703 C704 1.394 . S
C703 C709 1.465 . S
C704 C699 1.396 1_545 S
C704 C703 1.394 . S
C704 C705 1.516 1_545 S
C705 C704 1.516 1_565 S
C705 C706 1.502 . S
C705 C707 1.561 . S
C705 C708 1.526 1_565 S
C706 H690 0.959 . S
C706 H691 0.959 . S
C706 H692 0.961 . S
C706 C705 1.502 . S
C707 H693 0.960 . S
C707 H694 0.961 . S
C707 H695 0.959 . S
C707 C705 1.561 . S
C708 C705 1.526 1_545 S
C708 C709 1.396 . S
C708 C713 1.390 . S
C709 C703 1.465 . S
C709 C708 1.396 . S
C709 C710 1.399 . S
C710 H696 0.929 . S
C710 C709 1.399 . S
C710 C711 1.385 . S
C711 H697 0.931 . S
C711 C710 1.385 . S
C711 C712 1.389 . S
C712 C711 1.389 . S
C712 C713 1.387 . S
C713 H698 0.930 1_545 S
C713 C708 1.390 . S
C713 C712 1.387 . S
H714 C726 0.930 . S
H715 C728 0.930 . S
H716 C729 0.930 . S
H717 C733 0.959 . S
H718 C733 0.959 . S
H719 C733 0.961 . S
H720 C734 0.960 . S
H721 C734 0.961 . S
H722 C734 0.959 . S
H723 C737 0.929 . S
H724 C738 0.931 . S
H725 C740 0.930 . S
C726 H714 0.930 . S
C726 C727 1.399 . S
C726 C731 1.399 . S
C727 C726 1.399 . S
C727 C728 1.376 . S
C728 H715 0.930 . S
C728 C727 1.376 . S
C728 C729 1.388 . S
C729 H716 0.930 . S
C729 C728 1.388 . S
C729 C730 1.390 . S
C730 C729 1.390 . S
C730 C731 1.394 . S
C730 C736 1.465 . S
C731 C726 1.399 . S
C731 C730 1.394 . S
C731 C732 1.516 . S
C732 C731 1.516 . S
C732 C733 1.502 . S
C732 C734 1.561 . S
C732 C735 1.526 . S
C733 H717 0.959 . S
C733 H718 0.959 . S
C733 H719 0.961 . S
C733 C732 1.502 . S
C734 H720 0.960 . S
C734 H721 0.961 . S
C734 H722 0.959 . S
C734 C732 1.561 . S
C735 C732 1.526 . S
C735 C736 1.396 . S
C735 C740 1.390 . S
C736 C730 1.465 . S
C736 C735 1.396 . S
C736 C737 1.399 . S
C737 H723 0.929 . S
C737 C736 1.399 . S
C737 C738 1.385 . S
C738 H724 0.931 . S
C738 C737 1.385 . S
C738 C739 1.389 . S
C739 C738 1.389 . S
C739 C740 1.387 . S
C740 H725 0.930 . S
C740 C735 1.390 . S
C740 C739 1.387 . S
H741 C753 0.930 . S
H742 C755 0.930 . S
H743 C756 0.930 . S
H744 C760 0.959 . S
H745 C760 0.959 . S
H746 C760 0.961 . S
H747 C761 0.960 . S
H748 C761 0.961 . S
H749 C761 0.959 . S
H750 C764 0.929 . S
H751 C765 0.931 . S
H752 C767 0.930 . S
C753 H741 0.930 . S
C753 C754 1.399 1_565 S
C753 C758 1.399 . S
C754 C753 1.399 1_545 S
C754 C755 1.376 . S
C755 H742 0.930 . S
C755 C754 1.376 . S
C755 C756 1.388 . S
C756 H743 0.930 . S
C756 C755 1.388 . S
C756 C757 1.390 . S
C757 C756 1.390 . S
C757 C758 1.394 1_545 S
C757 C763 1.465 . S
C758 C753 1.399 . S
C758 C757 1.394 1_565 S
C758 C759 1.516 . S
C759 C758 1.516 . S
C759 C760 1.502 . S
C759 C761 1.561 . S
C759 C762 1.526 . S
C760 H744 0.959 . S
C760 H745 0.959 . S
C760 H746 0.961 . S
C760 C759 1.502 . S
C761 H747 0.960 . S
C761 H748 0.961 . S
C761 H749 0.959 . S
C761 C759 1.561 . S
C762 C759 1.526 . S
C762 C763 1.396 1_565 S
C762 C767 1.390 . S
C763 C757 1.465 . S
C763 C762 1.396 1_545 S
C763 C764 1.399 . S
C764 H750 0.929 . S
C764 C763 1.399 . S
C764 C765 1.385 . S
C765 H751 0.931 . S
C765 C764 1.385 . S
C765 C766 1.389 . S
C766 C765 1.389 . S
C766 C767 1.387 1_545 S
C767 H752 0.930 . S
C767 C762 1.390 . S
C767 C766 1.387 1_565 S
H768 C780 0.930 . S
H769 C782 0.930 . S
H770 C783 0.930 . S
H771 C787 0.959 . S
H772 C787 0.959 . S
H773 C787 0.961 . S
H774 C788 0.960 . S
H775 C788 0.961 . S
H776 C788 0.959 . S
H777 C791 0.929 . S
H778 C792 0.931 1_554 S
H779 C794 0.930 . S
C780 H768 0.930 . S
C780 C781 1.399 . S
C780 C785 1.399 . S
C781 C780 1.399 . S
C781 C782 1.376 . S
C782 H769 0.930 . S
C782 C781 1.376 . S
C782 C783 1.388 . S
C783 H770 0.930 . S
C783 C782 1.388 . S
C783 C784 1.390 . S
C784 C783 1.390 . S
C784 C785 1.394 . S
C784 C790 1.465 . S
C785 C780 1.399 . S
C785 C784 1.394 . S
C785 C786 1.516 . S
C786 C785 1.516 . S
C786 C787 1.502 . S
C786 C788 1.561 . S
C786 C789 1.526 . S
C787 H771 0.959 . S
C787 H772 0.959 . S
C787 H773 0.961 . S
C787 C786 1.502 . S
C788 H774 0.960 . S
C788 H775 0.961 . S
C788 H776 0.959 . S
C788 C786 1.561 . S
C789 C786 1.526 . S
C789 C790 1.396 . S
C789 C794 1.390 . S
C790 C784 1.465 . S
C790 C789 1.396 . S
C790 C791 1.399 . S
C791 H777 0.929 . S
C791 C790 1.399 . S
C791 C792 1.385 . S
C792 H778 0.931 1_556 S
C792 C791 1.385 . S
C792 C793 1.389 . S
C793 C792 1.389 . S
C793 C794 1.387 . S
C794 H779 0.930 . S
C794 C789 1.390 . S
C794 C793 1.387 . S
H795 C807 0.930 . S
H796 C809 0.930 . S
H797 C810 0.930 . S
H798 C814 0.959 . S
H799 C814 0.959 . S
H800 C814 0.961 . S
H801 C815 0.960 . S
H802 C815 0.961 . S
H803 C815 0.959 1_655 S
H804 C818 0.929 . S
H805 C819 0.931 . S
H806 C821 0.930 . S
C807 H795 0.930 . S
C807 C808 1.399 . S
C807 C812 1.399 . S
C808 C807 1.399 . S
C808 C809 1.376 1_455 S
C809 H796 0.930 . S
C809 C808 1.376 1_655 S
C809 C810 1.388 . S
C810 H797 0.930 . S
C810 C809 1.388 . S
C810 C811 1.390 . S
C811 C810 1.390 . S
C811 C812 1.394 1_655 S
C811 C817 1.465 . S
C812 C807 1.399 . S
C812 C811 1.394 1_455 S
C812 C813 1.516 . S
C813 C812 1.516 . S
C813 C814 1.502 . S
C813 C815 1.561 . S
C813 C816 1.526 . S
C814 H798 0.959 . S
C814 H799 0.959 . S
C814 H800 0.961 . S
C814 C813 1.502 . S
C815 H801 0.960 . S
C815 H802 0.961 . S
C815 H803 0.959 1_455 S
C815 C813 1.561 . S
C816 C813 1.526 . S
C816 C817 1.396 1_455 S
C816 C821 1.390 . S
C817 C811 1.465 . S
C817 C816 1.396 1_655 S
C817 C818 1.399 . S
C818 H804 0.929 . S
C818 C817 1.399 . S
C818 C819 1.385 . S
C819 H805 0.931 . S
C819 C818 1.385 . S
C819 C820 1.389 . S
C820 C819 1.389 . S
C820 C821 1.387 1_655 S
C821 H806 0.930 . S
C821 C816 1.390 . S
C821 C820 1.387 1_455 S
C349 C10 3.115 . S
C361 C325 3.044 . S
C376 C55 1.235 . S
C388 C253 1.237 . S
C403 C90 1.900 . S
C415 C289 1.826 . S
C430 C19 2.983 . S
C442 C301 2.963 . S
C469 C229 1.291 . S
C457 C46 1.269 . S
C496 C265 2.022 . S
C484 C99 2.053 . S
C511 C50 1.915 . S
C523 C181 1.820 . S
C538 C95 0.685 . S
C550 C193 0.641 . S
C565 C6 1.346 . S
C577 C121 1.332 . S
C604 C157 1.982 . S
C592 C59 2.026 . S
C631 C217 0.348 . S
C619 C86 0.431 . S
C646 C15 1.251 . S
C658 C145 1.282 . S
C685 C223 1.073 1_554 S
C673 C18 1.056 . S
C700 C49 1.434 . S
C712 C151 1.498 . S
C727 C98 1.335 . S
C739 C187 1.357 . S
C766 C295 1.352 . S
C754 C58 1.293 . S
C793 C331 1.771 1_556 S
C781 C89 1.733 . S
C808 C9 1.477 . S
C820 C259 1.506 1_655 S
