# Generated by pormake.
# Topology ssb, (4,4)-cn, num edge types: 1
# Building blocks:
#     Node 0, Type 0, BuildingBlock: NAWXER_clean_linker_0, # of connection points: 4
#     Node 1, Type 0, BuildingBlock: NAWXER_clean_linker_0, # of connection points: 4
#     Node 2, Type 0, BuildingBlock: NAWXER_clean_linker_0, # of connection points: 4
#     Node 3, Type 0, BuildingBlock: NAWXER_clean_linker_0, # of connection points: 4
#     Node 4, Type 0, BuildingBlock: NAWXER_clean_linker_0, # of connection points: 4
#     Node 5, Type 0, BuildingBlock: NAWXER_clean_linker_0, # of connection points: 4
#     Node 6, Type 0, BuildingBlock: NAWXER_clean_linker_0, # of connection points: 4
#     Node 7, Type 0, BuildingBlock: NAWXER_clean_linker_0, # of connection points: 4
#     Node 8, Type 1, BuildingBlock: KOZSID_clean_sbu_0, # of connection points: 4
#     Node 9, Type 1, BuildingBlock: KOZSID_clean_sbu_0, # of connection points: 4
#     Node 10, Type 1, BuildingBlock: KOZSID_clean_sbu_0, # of connection points: 4
#     Node 11, Type 1, BuildingBlock: KOZSID_clean_sbu_0, # of connection points: 4
#     Node 12, Type 1, BuildingBlock: KOZSID_clean_sbu_0, # of connection points: 4
#     Node 13, Type 1, BuildingBlock: KOZSID_clean_sbu_0, # of connection points: 4
#     Node 14, Type 1, BuildingBlock: KOZSID_clean_sbu_0, # of connection points: 4
#     Node 15, Type 1, BuildingBlock: KOZSID_clean_sbu_0, # of connection points: 4
#     Edge 16, Type (0, 1), BuildingBlock: MIFKUJ_clean_linker_0, # of connection points: 2
#     Edge 17, Type (0, 1), BuildingBlock: MIFKUJ_clean_linker_0, # of connection points: 2
#     Edge 18, Type (0, 1), BuildingBlock: MIFKUJ_clean_linker_0, # of connection points: 2
#     Edge 19, Type (0, 1), BuildingBlock: MIFKUJ_clean_linker_0, # of connection points: 2
#     Edge 20, Type (0, 1), BuildingBlock: MIFKUJ_clean_linker_0, # of connection points: 2
#     Edge 21, Type (0, 1), BuildingBlock: MIFKUJ_clean_linker_0, # of connection points: 2
#     Edge 22, Type (0, 1), BuildingBlock: MIFKUJ_clean_linker_0, # of connection points: 2
#     Edge 23, Type (0, 1), BuildingBlock: MIFKUJ_clean_linker_0, # of connection points: 2
#     Edge 24, Type (0, 1), BuildingBlock: MIFKUJ_clean_linker_0, # of connection points: 2
#     Edge 25, Type (0, 1), BuildingBlock: MIFKUJ_clean_linker_0, # of connection points: 2
#     Edge 26, Type (0, 1), BuildingBlock: MIFKUJ_clean_linker_0, # of connection points: 2
#     Edge 27, Type (0, 1), BuildingBlock: MIFKUJ_clean_linker_0, # of connection points: 2
#     Edge 28, Type (0, 1), BuildingBlock: MIFKUJ_clean_linker_0, # of connection points: 2
#     Edge 29, Type (0, 1), BuildingBlock: MIFKUJ_clean_linker_0, # of connection points: 2
#     Edge 30, Type (0, 1), BuildingBlock: MIFKUJ_clean_linker_0, # of connection points: 2
#     Edge 31, Type (0, 1), BuildingBlock: MIFKUJ_clean_linker_0, # of connection points: 2
#     Edge 32, Type (0, 1), BuildingBlock: MIFKUJ_clean_linker_0, # of connection points: 2
#     Edge 33, Type (0, 1), BuildingBlock: MIFKUJ_clean_linker_0, # of connection points: 2
#     Edge 34, Type (0, 1), BuildingBlock: MIFKUJ_clean_linker_0, # of connection points: 2
#     Edge 35, Type (0, 1), BuildingBlock: MIFKUJ_clean_linker_0, # of connection points: 2
#     Edge 36, Type (0, 1), BuildingBlock: MIFKUJ_clean_linker_0, # of connection points: 2
#     Edge 37, Type (0, 1), BuildingBlock: MIFKUJ_clean_linker_0, # of connection points: 2
#     Edge 38, Type (0, 1), BuildingBlock: MIFKUJ_clean_linker_0, # of connection points: 2
#     Edge 39, Type (0, 1), BuildingBlock: MIFKUJ_clean_linker_0, # of connection points: 2
#     Edge 40, Type (0, 1), BuildingBlock: MIFKUJ_clean_linker_0, # of connection points: 2
#     Edge 41, Type (0, 1), BuildingBlock: MIFKUJ_clean_linker_0, # of connection points: 2
#     Edge 42, Type (0, 1), BuildingBlock: MIFKUJ_clean_linker_0, # of connection points: 2
#     Edge 43, Type (0, 1), BuildingBlock: MIFKUJ_clean_linker_0, # of connection points: 2
#     Edge 44, Type (0, 1), BuildingBlock: MIFKUJ_clean_linker_0, # of connection points: 2
#     Edge 45, Type (0, 1), BuildingBlock: MIFKUJ_clean_linker_0, # of connection points: 2
#     Edge 46, Type (0, 1), BuildingBlock: MIFKUJ_clean_linker_0, # of connection points: 2
#     Edge 47, Type (0, 1), BuildingBlock: MIFKUJ_clean_linker_0, # of connection points: 2
# Relax obj value: 0.002
# Max RMSD: 0.018
# Mean RMSD: 0.011
data_MOF--net-ssb--node1-KOZSID_clean_sbu_0--node2-NAWXER_clean_linker_0--edge1-MIFKUJ_clean_linker_0
_symmetry_space_group_name_H-M    P1
_symmetry_Int_Tables_number       1
_symmetry_cell_setting            triclinic
loop_
_symmetry_equiv_pos_as_xyz
'x, y, z'
_cell_length_a     77.93102
_cell_length_b     77.655279
_cell_length_c     57.380734
_cell_angle_alpha  91.794501
_cell_angle_beta   93.556692
_cell_angle_gamma 89.997415
loop_
_atom_site_label
_atom_site_type_symbol
_atom_site_fract_x
_atom_site_fract_y
_atom_site_fract_z
_atom_type_partial_charge
C0 C 0.29425 0.25017 0.20414 0.0
C1 C 0.31115 0.24941 0.21418 0.0
C2 C 0.28023 0.24996 0.21818 0.0
C3 C 0.28282 0.24913 0.24256 0.0
C4 C 0.31369 0.24834 0.23858 0.0
C5 C 0.29965 0.24807 0.25261 0.0
C6 C 0.26804 0.24876 0.25757 0.0
C7 C 0.26834 0.30149 0.22609 0.0
C8 C 0.25369 0.30529 0.21153 0.0
C9 C 0.26864 0.28713 0.2404 0.0
C10 C 0.25434 0.27606 0.24047 0.0
C11 C 0.23931 0.29431 0.21188 0.0
C12 C 0.23959 0.28 0.22627 0.0
C13 C 0.2544 0.2608 0.25581 0.0
C14 C 0.21342 0.24474 0.33785 0.0
C15 C 0.19667 0.24673 0.32771 0.0
C16 C 0.22753 0.24413 0.32394 0.0
C17 C 0.22516 0.24533 0.29957 0.0
C18 C 0.19436 0.24801 0.30332 0.0
C19 C 0.20847 0.24742 0.28943 0.0
C20 C 0.24003 0.2456 0.2847 0.0
C21 C 0.23943 0.19259 0.31523 0.0
C22 C 0.25385 0.18882 0.33024 0.0
C23 C 0.23931 0.20706 0.30111 0.0
C24 C 0.25358 0.2182 0.30162 0.0
C25 C 0.26819 0.19991 0.33054 0.0
C26 C 0.2681 0.2143 0.31627 0.0
C27 C 0.25367 0.23355 0.28645 0.0
H28 H 0.29186 0.25108 0.18542 0.0
H29 H 0.26735 0.25037 0.20995 0.0
H30 H 0.32653 0.24746 0.24681 0.0
H31 H 0.30193 0.2472 0.27135 0.0
H32 H 0.27971 0.30953 0.22629 0.0
H33 H 0.28006 0.28476 0.25156 0.0
H34 H 0.22768 0.29692 0.20126 0.0
H35 H 0.22829 0.27187 0.22614 0.0
H36 H 0.21564 0.24364 0.35657 0.0
H37 H 0.24031 0.24301 0.33229 0.0
H38 H 0.18167 0.24985 0.29498 0.0
H39 H 0.20635 0.24862 0.27071 0.0
H40 H 0.22812 0.18445 0.31455 0.0
H41 H 0.22805 0.20945 0.28964 0.0
H42 H 0.27962 0.19733 0.34158 0.0
H43 H 0.27937 0.22251 0.31687 0.0
N44 N 0.26719 0.23573 0.27288 0.0
N45 N 0.2409 0.25862 0.26939 0.0
C46 C 0.69514 0.26855 0.22115 0.0
C47 C 0.69126 0.25473 0.20529 0.0
C48 C 0.7105 0.26875 0.23506 0.0
C49 C 0.72231 0.25519 0.23324 0.0
C50 C 0.70302 0.24107 0.20373 0.0
C51 C 0.71835 0.24125 0.2177 0.0
C52 C 0.7385 0.2551 0.24809 0.0
C53 C 0.74377 0.29859 0.19942 0.0
C54 C 0.74516 0.31488 0.21073 0.0
C55 C 0.74507 0.28368 0.21232 0.0
C56 C 0.74763 0.28484 0.23674 0.0
C57 C 0.74768 0.316 0.23519 0.0
C58 C 0.74901 0.30108 0.24807 0.0
C59 C 0.7499 0.26923 0.25047 0.0
C60 C 0.81033 0.2398 0.30738 0.0
C61 C 0.81519 0.25467 0.32067 0.0
C62 C 0.79511 0.23957 0.29316 0.0
C63 C 0.78416 0.25398 0.29271 0.0
C64 C 0.80464 0.26929 0.31957 0.0
C65 C 0.78923 0.26892 0.30578 0.0
C66 C 0.76788 0.25399 0.27789 0.0
C67 C 0.76201 0.21055 0.32675 0.0
C68 C 0.76093 0.19426 0.31537 0.0
C69 C 0.76065 0.22548 0.31387 0.0
C70 C 0.75839 0.22432 0.28942 0.0
C71 C 0.75861 0.19318 0.29088 0.0
C72 C 0.75724 0.2081 0.27804 0.0
C73 C 0.75635 0.2399 0.2756 0.0
H74 H 0.68637 0.27929 0.22267 0.0
H75 H 0.71309 0.27944 0.24735 0.0
H76 H 0.70026 0.23012 0.19194 0.0
H77 H 0.72719 0.23056 0.21624 0.0
H78 H 0.74178 0.29738 0.18058 0.0
H79 H 0.74439 0.27125 0.20318 0.0
H80 H 0.74908 0.32839 0.24431 0.0
H81 H 0.75118 0.30221 0.26689 0.0
H82 H 0.81846 0.22849 0.30768 0.0
H83 H 0.79204 0.22815 0.28241 0.0
H84 H 0.80821 0.28091 0.32967 0.0
H85 H 0.78117 0.2803 0.30548 0.0
H86 H 0.76349 0.21175 0.34562 0.0
H87 H 0.76114 0.23791 0.323 0.0
H88 H 0.75791 0.1808 0.28164 0.0
H89 H 0.75539 0.20698 0.25918 0.0
N90 N 0.74221 0.24094 0.26067 0.0
N91 N 0.7641 0.26817 0.26532 0.0
C92 C 0.70432 0.74817 0.19044 0.0
C93 C 0.68821 0.75042 0.19991 0.0
C94 C 0.7194 0.74849 0.20492 0.0
C95 C 0.7187 0.75074 0.22923 0.0
C96 C 0.68757 0.75276 0.22425 0.0
C97 C 0.70266 0.75297 0.23873 0.0
C98 C 0.7346 0.75206 0.24471 0.0
C99 C 0.73508 0.698 0.21244 0.0
C100 C 0.74862 0.69494 0.19771 0.0
C101 C 0.73492 0.71287 0.22697 0.0
C102 C 0.74833 0.72502 0.22716 0.0
C103 C 0.76204 0.7071 0.19801 0.0
C104 C 0.76197 0.72185 0.21272 0.0
C105 C 0.74863 0.74063 0.24301 0.0
C106 C 0.79532 0.76126 0.32675 0.0
C107 C 0.81128 0.75867 0.31696 0.0
C108 C 0.78007 0.76092 0.31259 0.0
C109 C 0.78047 0.75842 0.28827 0.0
C110 C 0.81158 0.75595 0.29264 0.0
C111 C 0.79635 0.75582 0.27849 0.0
C112 C 0.76445 0.75717 0.27302 0.0
C113 C 0.76481 0.81055 0.30685 0.0
C114 C 0.75076 0.81429 0.32047 0.0
C115 C 0.76476 0.79587 0.29195 0.0
C116 C 0.75076 0.78436 0.29051 0.0
C117 C 0.73661 0.80292 0.31857 0.0
C118 C 0.73659 0.78822 0.30373 0.0
C119 C 0.75043 0.76867 0.2747 0.0
H120 H 0.70529 0.74624 0.1718 0.0
H121 H 0.73163 0.74732 0.19701 0.0
H122 H 0.67543 0.75486 0.23211 0.0
H123 H 0.70181 0.75499 0.25739 0.0
H124 H 0.72452 0.68896 0.2126 0.0
H125 H 0.7244 0.71478 0.23825 0.0
H126 H 0.77278 0.70505 0.18714 0.0
H127 H 0.77255 0.7309 0.2127 0.0
H128 H 0.79458 0.76351 0.34537 0.0
H129 H 0.76796 0.76237 0.32073 0.0
H130 H 0.82355 0.75352 0.28451 0.0
H131 H 0.79699 0.75357 0.25982 0.0
H132 H 0.776 0.81888 0.30785 0.0
H133 H 0.77567 0.79357 0.28149 0.0
H134 H 0.72538 0.80548 0.32834 0.0
H135 H 0.7255 0.77976 0.30273 0.0
N136 N 0.73604 0.76553 0.26054 0.0
N137 N 0.763 0.74374 0.25717 0.0
C138 C 0.30055 0.73524 0.19765 0.0
C139 C 0.30474 0.75003 0.18563 0.0
C140 C 0.28636 0.73518 0.21141 0.0
C141 C 0.27581 0.74979 0.21309 0.0
C142 C 0.29425 0.7647 0.18754 0.0
C143 C 0.27999 0.76457 0.20115 0.0
C144 C 0.26122 0.75028 0.22854 0.0
C145 C 0.24666 0.70876 0.1746 0.0
C146 C 0.24645 0.69216 0.1837 0.0
C147 C 0.24787 0.72329 0.18957 0.0
C148 C 0.24891 0.72144 0.21386 0.0
C149 C 0.24759 0.69042 0.20808 0.0
C150 C 0.24863 0.70494 0.223 0.0
C151 C 0.24935 0.73666 0.22981 0.0
C152 C 0.19661 0.76663 0.29204 0.0
C153 C 0.19325 0.75207 0.30506 0.0
C154 C 0.21033 0.7667 0.27746 0.0
C155 C 0.22121 0.75234 0.2759 0.0
C156 C 0.20401 0.73761 0.30314 0.0
C157 C 0.2178 0.73774 0.28867 0.0
C158 C 0.23558 0.75199 0.2601 0.0
C159 C 0.24897 0.79485 0.31276 0.0
C160 C 0.24974 0.81116 0.30294 0.0
C161 C 0.24794 0.77998 0.29842 0.0
C162 C 0.24753 0.78124 0.27405 0.0
C163 C 0.24935 0.81234 0.27853 0.0
C164 C 0.24836 0.79749 0.26423 0.0
C165 C 0.24735 0.76569 0.25866 0.0
H166 H 0.30824 0.72367 0.19649 0.0
H167 H 0.28387 0.72378 0.22107 0.0
H168 H 0.29726 0.77644 0.17894 0.0
H169 H 0.27224 0.77611 0.20244 0.0
H170 H 0.24549 0.71057 0.15594 0.0
H171 H 0.24767 0.73596 0.18218 0.0
H172 H 0.24775 0.67782 0.21567 0.0
H173 H 0.24936 0.7033 0.24172 0.0
H174 H 0.18866 0.77803 0.29316 0.0
H175 H 0.21229 0.77793 0.26723 0.0
H176 H 0.20163 0.72605 0.31252 0.0
H177 H 0.22583 0.72639 0.28749 0.0
H178 H 0.2492 0.79358 0.33153 0.0
H179 H 0.24772 0.76752 0.30638 0.0
H180 H 0.25021 0.82473 0.27051 0.0
H181 H 0.24828 0.79869 0.24546 0.0
N182 N 0.25965 0.76433 0.24292 0.0
N183 N 0.2371 0.73797 0.24563 0.0
C184 C 0.19712 0.77314 0.7051 0.0
C185 C 0.19304 0.75854 0.69069 0.0
C186 C 0.21197 0.77343 0.72008 0.0
C187 C 0.22306 0.75917 0.7208 0.0
C188 C 0.20419 0.74431 0.69146 0.0
C189 C 0.21899 0.74459 0.70648 0.0
C190 C 0.23828 0.75885 0.73748 0.0
C191 C 0.24831 0.80016 0.6859 0.0
C192 C 0.25105 0.81689 0.6957 0.0
C193 C 0.2481 0.78575 0.70011 0.0
C194 C 0.25042 0.78762 0.72459 0.0
C195 C 0.25363 0.81868 0.7202 0.0
C196 C 0.25342 0.80426 0.73439 0.0
C197 C 0.25055 0.77236 0.74001 0.0
C198 C 0.30657 0.74182 0.80174 0.0
C199 C 0.31091 0.7559 0.81696 0.0
C200 C 0.29163 0.74216 0.78701 0.0
C201 C 0.28072 0.75654 0.78731 0.0
C202 C 0.29997 0.77029 0.81721 0.0
C203 C 0.28508 0.77067 0.80234 0.0
C204 C 0.26527 0.75727 0.7711 0.0
C205 C 0.25523 0.7163 0.82296 0.0
C206 C 0.25279 0.69948 0.81331 0.0
C207 C 0.25532 0.73064 0.80863 0.0
C208 C 0.25311 0.72863 0.78416 0.0
C209 C 0.25035 0.69756 0.78879 0.0
C210 C 0.25039 0.71192 0.77448 0.0
C211 C 0.25295 0.74384 0.76866 0.0
H212 H 0.18881 0.78432 0.70484 0.0
H213 H 0.21463 0.78467 0.73137 0.0
H214 H 0.20126 0.73278 0.68085 0.0
H215 H 0.22725 0.73337 0.70699 0.0
H216 H 0.24618 0.79816 0.66719 0.0
H217 H 0.24629 0.7731 0.69185 0.0
H218 H 0.25611 0.83123 0.72848 0.0
H219 H 0.25552 0.80615 0.75313 0.0
H220 H 0.31471 0.73053 0.80126 0.0
H221 H 0.28872 0.73127 0.77517 0.0
H222 H 0.30312 0.78141 0.82854 0.0
H223 H 0.27693 0.78197 0.80263 0.0
H224 H 0.25676 0.71848 0.8417 0.0
H225 H 0.25689 0.74335 0.81677 0.0
H226 H 0.24862 0.68491 0.78053 0.0
H227 H 0.24853 0.70993 0.75572 0.0
N228 N 0.24001 0.74516 0.75178 0.0
N229 N 0.26352 0.771 0.75687 0.0
C230 C 0.30772 0.27536 0.81636 0.0
C231 C 0.31063 0.26122 0.83067 0.0
C232 C 0.29291 0.27603 0.80137 0.0
C233 C 0.28052 0.26282 0.80108 0.0
C234 C 0.29848 0.24791 0.83018 0.0
C235 C 0.28351 0.24875 0.8156 0.0
C236 C 0.26508 0.26267 0.78458 0.0
C237 C 0.26063 0.31192 0.82709 0.0
C238 C 0.26259 0.32675 0.81399 0.0
C239 C 0.25826 0.2958 0.81595 0.0
C240 C 0.25781 0.29421 0.79152 0.0
C241 C 0.26203 0.32506 0.78948 0.0
C242 C 0.25951 0.30894 0.77835 0.0
C243 C 0.25491 0.27732 0.77957 0.0
C244 C 0.19331 0.24636 0.72532 0.0
C245 C 0.19002 0.25911 0.70876 0.0
C246 C 0.20845 0.24676 0.73968 0.0
C247 C 0.22076 0.25973 0.73749 0.0
C248 C 0.20223 0.27227 0.70693 0.0
C249 C 0.21741 0.2726 0.72122 0.0
C250 C 0.23674 0.26042 0.75284 0.0
C251 C 0.24084 0.2116 0.70943 0.0
C252 C 0.24148 0.19648 0.7223 0.0
C253 C 0.24239 0.22772 0.72082 0.0
C254 C 0.24439 0.22899 0.7453 0.0
C255 C 0.24345 0.19781 0.7468 0.0
C256 C 0.24498 0.21393 0.75818 0.0
C257 C 0.24708 0.24586 0.75752 0.0
H258 H 0.31716 0.28561 0.81629 0.0
H259 H 0.29142 0.28664 0.78964 0.0
H260 H 0.3006 0.23686 0.84106 0.0
H261 H 0.2743 0.23829 0.81554 0.0
H262 H 0.26056 0.3128 0.84596 0.0
H263 H 0.25657 0.28461 0.82639 0.0
H264 H 0.26365 0.33617 0.77888 0.0
H265 H 0.25909 0.30793 0.75944 0.0
H266 H 0.18424 0.236 0.72712 0.0
H267 H 0.21044 0.23698 0.75261 0.0
H268 H 0.19995 0.28248 0.69468 0.0
H269 H 0.2266 0.28288 0.71948 0.0
H270 H 0.23966 0.21097 0.69051 0.0
H271 H 0.24242 0.23915 0.71048 0.0
H272 H 0.24385 0.18639 0.75717 0.0
H273 H 0.24664 0.21464 0.77707 0.0
N274 N 0.26072 0.24752 0.77331 0.0
N275 N 0.24118 0.27565 0.76388 0.0
C276 C 0.80173 0.23721 0.71589 0.0
C277 C 0.80569 0.25199 0.70368 0.0
C278 C 0.78774 0.23712 0.73 0.0
C279 C 0.77714 0.25168 0.73182 0.0
C280 C 0.7952 0.26664 0.70586 0.0
C281 C 0.78112 0.26648 0.71981 0.0
C282 C 0.76255 0.25201 0.74726 0.0
C283 C 0.75007 0.20999 0.69246 0.0
C284 C 0.74943 0.19329 0.70134 0.0
C285 C 0.75046 0.22461 0.70748 0.0
C286 C 0.75028 0.22295 0.73179 0.0
C287 C 0.74906 0.19173 0.72572 0.0
C288 C 0.74934 0.20636 0.74069 0.0
C289 C 0.75055 0.23838 0.74797 0.0
C290 C 0.69744 0.26825 0.80978 0.0
C291 C 0.69373 0.25355 0.82232 0.0
C292 C 0.71138 0.26836 0.79555 0.0
C293 C 0.72214 0.25391 0.79394 0.0
C294 C 0.70435 0.23899 0.82027 0.0
C295 C 0.71836 0.23917 0.80621 0.0
C296 C 0.73677 0.25362 0.77858 0.0
C297 C 0.74807 0.29625 0.8329 0.0
C298 C 0.75006 0.31277 0.82392 0.0
C299 C 0.74772 0.28148 0.81815 0.0
C300 C 0.74904 0.28283 0.79393 0.0
C301 C 0.75179 0.31401 0.79973 0.0
C302 C 0.75135 0.29925 0.78499 0.0
C303 C 0.74879 0.26727 0.77789 0.0
H304 H 0.80943 0.22566 0.71456 0.0
H305 H 0.78537 0.22571 0.7397 0.0
H306 H 0.79804 0.27838 0.69714 0.0
H307 H 0.77332 0.27797 0.72123 0.0
H308 H 0.74999 0.21183 0.67383 0.0
H309 H 0.75072 0.23725 0.70004 0.0
H310 H 0.74881 0.17917 0.73336 0.0
H311 H 0.7491 0.2047 0.75934 0.0
H312 H 0.68964 0.27974 0.81101 0.0
H313 H 0.71364 0.27972 0.7857 0.0
H314 H 0.7017 0.22731 0.82924 0.0
H315 H 0.72628 0.22775 0.80494 0.0
H316 H 0.74661 0.29469 0.85136 0.0
H317 H 0.74647 0.26899 0.82575 0.0
H318 H 0.75373 0.3264 0.79214 0.0
H319 H 0.7527 0.3007 0.76647 0.0
N320 N 0.7611 0.26591 0.76211 0.0
N321 N 0.73823 0.23972 0.76374 0.0
C322 C 0.79351 0.75368 0.68611 0.0
C323 C 0.81031 0.75206 0.69625 0.0
C324 C 0.77938 0.75368 0.69999 0.0
C325 C 0.78179 0.75216 0.72431 0.0
C326 C 0.81265 0.75033 0.72056 0.0
C327 C 0.79851 0.75026 0.73442 0.0
C328 C 0.76697 0.75187 0.73924 0.0
C329 C 0.76763 0.80527 0.71091 0.0
C330 C 0.75244 0.80981 0.69808 0.0
C331 C 0.76827 0.79032 0.72381 0.0
C332 C 0.75381 0.77954 0.72375 0.0
C333 C 0.738 0.79898 0.69813 0.0
C334 C 0.73869 0.78401 0.71088 0.0
C335 C 0.75375 0.76431 0.73841 0.0
C336 C 0.71308 0.74753 0.82061 0.0
C337 C 0.69634 0.7504 0.81094 0.0
C338 C 0.72705 0.74705 0.80642 0.0
C339 C 0.72452 0.7493 0.78225 0.0
C340 C 0.6939 0.75283 0.78677 0.0
C341 C 0.70785 0.75239 0.77262 0.0
C342 C 0.73921 0.74935 0.76703 0.0
C343 C 0.73623 0.69559 0.79233 0.0
C344 C 0.75101 0.69001 0.8052 0.0
C345 C 0.73653 0.71084 0.78017 0.0
C346 C 0.75151 0.72096 0.78107 0.0
C347 C 0.76606 0.70004 0.80576 0.0
C348 C 0.7663 0.71535 0.79376 0.0
C349 C 0.75225 0.73672 0.76753 0.0
H350 H 0.79129 0.75509 0.66745 0.0
H351 H 0.76657 0.75475 0.69171 0.0
H352 H 0.8254 0.74877 0.72886 0.0
H353 H 0.80065 0.74885 0.7531 0.0
H354 H 0.77899 0.81333 0.71112 0.0
H355 H 0.77993 0.78741 0.73418 0.0
H356 H 0.726 0.80229 0.68882 0.0
H357 H 0.72731 0.77598 0.71087 0.0
H358 H 0.71539 0.74555 0.83914 0.0
H359 H 0.73983 0.7451 0.81439 0.0
H360 H 0.68121 0.75536 0.77884 0.0
H361 H 0.70562 0.75439 0.75408 0.0
H362 H 0.72442 0.6882 0.79166 0.0
H363 H 0.72512 0.71459 0.76984 0.0
H364 H 0.77775 0.69591 0.81514 0.0
H365 H 0.77808 0.72282 0.79433 0.0
N366 N 0.76571 0.73857 0.75382 0.0
N367 N 0.74041 0.76256 0.7523 0.0
C368 C 0.02595 0.27391 0.55481 0.0
C369 C 0.03093 0.28977 0.56487 0.0
C370 C 0.02178 0.30195 0.55284 0.0
C371 C 0.01172 0.29287 0.53631 0.0
N372 N 0.01374 0.27559 0.53719 0.0
Co373 Co 0.00168 0.25754 0.51642 0.0
N374 N 0.9895 0.27553 0.49723 0.0
C375 C 0.99129 0.29283 0.49991 0.0
C376 C 0.98083 0.30192 0.4847 0.0
C377 C 0.9717 0.28973 0.47159 0.0
C378 C 0.97721 0.2738 0.47951 0.0
N379 N 0.9893 0.23948 0.49602 0.0
C380 C 0.97705 0.24118 0.47843 0.0
C381 C 0.97166 0.22528 0.4689 0.0
C382 C 0.98046 0.21308 0.48133 0.0
C383 C 0.99075 0.22218 0.49757 0.0
N384 N 0.0142 0.23955 0.53526 0.0
C385 C 0.01299 0.22224 0.53203 0.0
C386 C 0.02384 0.21323 0.54685 0.0
C387 C 0.03273 0.22549 0.56016 0.0
C388 C 0.02667 0.24134 0.55272 0.0
N389 N 0.98246 0.25739 0.53764 0.0
C390 C 0.95417 0.25696 0.566 0.0
C391 C 0.96258 0.24174 0.55995 0.0
C392 C 0.97653 0.24224 0.54583 0.0
C393 C 0.96031 0.27242 0.55791 0.0
C394 C 0.9744 0.27235 0.54399 0.0
N395 N 0.02089 0.25768 0.4952 0.0
C396 C 0.04069 0.24234 0.47121 0.0
C397 C 0.04896 0.25765 0.46644 0.0
C398 C 0.04286 0.27302 0.47612 0.0
C399 C 0.02885 0.27276 0.4902 0.0
C400 C 0.02686 0.24263 0.48555 0.0
H401 H 0.02477 0.2849 0.49695 0.0
H402 H 0.02135 0.23048 0.48875 0.0
H403 H 0.98217 0.23016 0.54157 0.0
H404 H 0.97845 0.28457 0.53848 0.0
C405 C 0.00147 0.30019 0.51847 0.0
C406 C 0.03375 0.25772 0.56193 0.0
C407 C 0.96972 0.25746 0.47065 0.0
C408 C 0.0019 0.21485 0.51446 0.0
H409 H 0.04049 0.29227 0.57906 0.0
H410 H 0.02275 0.3158 0.55536 0.0
H411 H 0.97948 0.31576 0.48389 0.0
H412 H 0.96173 0.29239 0.45825 0.0
H413 H 0.96218 0.22275 0.4546 0.0
H414 H 0.97938 0.19923 0.47896 0.0
H415 H 0.02539 0.1994 0.54753 0.0
H416 H 0.04279 0.22301 0.57349 0.0
H417 H 0.95819 0.22941 0.56564 0.0
H418 H 0.95436 0.28458 0.56242 0.0
H419 H 0.04509 0.23008 0.46431 0.0
H420 H 0.04875 0.28524 0.47269 0.0
C421 C 0.73258 0.03391 0.537 0.0
C422 C 0.71673 0.04171 0.53943 0.0
C423 C 0.70495 0.03224 0.52594 0.0
C424 C 0.7142 0.01929 0.51594 0.0
N425 N 0.73124 0.01988 0.52219 0.0
Co426 Co 0.74935 0.00367 0.51108 0.0
N427 N 0.73197 0.9899 0.49085 0.0
C428 C 0.71489 0.993 0.48808 0.0
C429 C 0.7062 0.98153 0.47304 0.0
C430 C 0.71842 0.97036 0.46575 0.0
C431 C 0.73394 0.97564 0.47691 0.0
N432 N 0.76746 0.98737 0.50009 0.0
C433 C 0.7661 0.9733 0.48537 0.0
C434 C 0.78192 0.9654 0.48309 0.0
C435 C 0.79369 0.97482 0.49666 0.0
C436 C 0.78446 0.98784 0.50654 0.0
N437 N 0.76676 0.01748 0.53116 0.0
C438 C 0.78388 0.01451 0.53367 0.0
C439 C 0.7926 0.02599 0.54867 0.0
C440 C 0.78036 0.03704 0.55616 0.0
C441 C 0.7648 0.03173 0.54514 0.0
N442 N 0.74561 0.9886 0.53747 0.0
C443 C 0.74051 0.96521 0.5727 0.0
C444 C 0.75699 0.97085 0.56851 0.0
C445 C 0.75922 0.98247 0.55097 0.0
C446 C 0.72655 0.97199 0.55967 0.0
C447 C 0.72937 0.98367 0.54235 0.0
N448 N 0.7531 0.01878 0.48473 0.0
C449 C 0.77227 0.0351 0.46233 0.0
C450 C 0.75835 0.04287 0.45038 0.0
C451 C 0.74178 0.03779 0.45509 0.0
C452 C 0.73947 0.02576 0.47212 0.0
C453 C 0.76937 0.02312 0.47924 0.0
H454 H 0.72654 0.02265 0.4751 0.0
H455 H 0.7805 0.01779 0.4879 0.0
H456 H 0.77212 0.98596 0.54835 0.0
H457 H 0.71823 0.98827 0.5329 0.0
C458 C 0.70735 0.00667 0.50012 0.0
C459 C 0.74855 0.04057 0.54875 0.0
C460 C 0.75017 0.9667 0.47351 0.0
C461 C 0.79137 1.00065 0.52198 0.0
H462 H 0.71395 0.05319 0.5497 0.0
H463 H 0.69128 0.03463 0.52348 0.0
H464 H 0.69258 0.98128 0.468 0.0
H465 H 0.71615 0.95956 0.45357 0.0
H466 H 0.78468 0.95392 0.47281 0.0
H467 H 0.80735 0.9724 0.49915 0.0
H468 H 0.80622 0.02622 0.55368 0.0
H469 H 0.78266 0.04777 0.56845 0.0
H470 H 0.76822 0.96579 0.57805 0.0
H471 H 0.71352 0.96809 0.56256 0.0
H472 H 0.78536 0.0384 0.45889 0.0
H473 H 0.73056 0.04352 0.44635 0.0
C474 C 0.02875 0.76446 0.53938 0.0
C475 C 0.03546 0.7802 0.54778 0.0
C476 C 0.02665 0.79263 0.53583 0.0
C477 C 0.01522 0.78384 0.52076 0.0
N478 N 0.01602 0.76652 0.52251 0.0
Co479 Co 0.00279 0.74884 0.50242 0.0
N480 N 0.99018 0.7672 0.4844 0.0
C481 C 0.99176 0.78446 0.48789 0.0
C482 C 0.98066 0.79381 0.47385 0.0
C483 C 0.97119 0.78182 0.46082 0.0
C484 C 0.97719 0.76578 0.4676 0.0
N485 N 0.98999 0.73118 0.48185 0.0
C486 C 0.97741 0.73322 0.46478 0.0
C487 C 0.97203 0.71754 0.45457 0.0
C488 C 0.9813 0.7051 0.46593 0.0
C489 C 0.99184 0.71387 0.48225 0.0
N490 N 0.01492 0.73049 0.52094 0.0
C491 C 0.01259 0.71325 0.51834 0.0
C492 C 0.02263 0.70391 0.53379 0.0
C493 C 0.03206 0.71588 0.54693 0.0
C494 C 0.02728 0.73188 0.53858 0.0
N495 N 0.9841 0.74897 0.52444 0.0
C496 C 0.95641 0.74932 0.55387 0.0
C497 C 0.962 0.73394 0.54361 0.0
C498 C 0.97578 0.73404 0.52917 0.0
C499 C 0.96513 0.76448 0.54948 0.0
C500 C 0.9788 0.76402 0.53483 0.0
N501 N 0.0215 0.74871 0.48036 0.0
C502 C 0.04336 0.73341 0.45982 0.0
C503 C 0.04906 0.7487 0.45072 0.0
C504 C 0.04059 0.76396 0.4564 0.0
C505 C 0.02702 0.76369 0.47119 0.0
C506 C 0.0296 0.73369 0.47433 0.0
H507 H 0.02133 0.7758 0.47511 0.0
H508 H 0.02585 0.72157 0.48053 0.0
H509 H 0.97937 0.72189 0.5219 0.0
H510 H 0.98476 0.77605 0.53195 0.0
C511 C 0.00366 0.79148 0.5047 0.0
C512 C 0.03537 0.74792 0.5473 0.0
C513 C 0.96965 0.7496 0.45838 0.0
C514 C 0.00212 0.70619 0.49981 0.0
H515 H 0.04585 0.78251 0.56089 0.0
H516 H 0.02854 0.80643 0.53764 0.0
H517 H 0.97938 0.80768 0.47346 0.0
H518 H 0.96082 0.78463 0.44809 0.0
H519 H 0.9621 0.71532 0.44075 0.0
H520 H 0.98005 0.69129 0.46321 0.0
H521 H 0.0234 0.69004 0.53486 0.0
H522 H 0.04168 0.71314 0.56075 0.0
H523 H 0.95584 0.7218 0.5468 0.0
H524 H 0.96119 0.77675 0.55688 0.0
H525 H 0.04939 0.72123 0.45562 0.0
H526 H 0.04466 0.77615 0.44988 0.0
C527 C 0.27037 0.97619 0.54648 0.0
C528 C 0.28617 0.9712 0.55655 0.0
C529 C 0.29816 0.98214 0.5489 0.0
C530 C 0.28905 0.99323 0.53474 0.0
N531 N 0.27193 0.9901 0.53289 0.0
Co532 Co 0.25406 0.00344 0.51416 0.0
N533 N 0.27183 0.01928 0.50239 0.0
C534 C 0.28902 0.01855 0.50726 0.0
C535 C 0.29808 0.03074 0.49639 0.0
C536 C 0.28599 0.03989 0.48383 0.0
C537 C 0.27012 0.03282 0.4879 0.0
N538 N 0.23617 0.01688 0.49559 0.0
C539 C 0.23771 0.03085 0.4821 0.0
C540 C 0.22178 0.03647 0.47321 0.0
C541 C 0.20979 0.02563 0.48105 0.0
C542 C 0.21898 0.01411 0.49441 0.0
N543 N 0.23631 0.98749 0.52574 0.0
C544 C 0.21917 0.98789 0.52032 0.0
C545 C 0.21021 0.97512 0.5302 0.0
C546 C 0.22232 0.96593 0.54267 0.0
C547 C 0.23806 0.97372 0.5398 0.0
N548 N 0.25138 0.01931 0.5414 0.0
C549 C 0.24744 0.04368 0.57794 0.0
C550 C 0.23315 0.03568 0.56644 0.0
C551 C 0.2354 0.02357 0.54844 0.0
C552 C 0.26376 0.03886 0.57143 0.0
C553 C 0.26542 0.02672 0.55329 0.0
N554 N 0.25674 0.98759 0.48692 0.0
C555 C 0.24411 0.96905 0.45593 0.0
C556 C 0.26031 0.96309 0.45045 0.0
C557 C 0.27474 0.97007 0.46292 0.0
C558 C 0.27267 0.98226 0.48091 0.0
C559 C 0.24264 0.98124 0.47401 0.0
H560 H 0.28415 0.98695 0.48988 0.0
H561 H 0.22993 0.98506 0.47749 0.0
H562 H 0.224 0.01802 0.54034 0.0
H563 H 0.27818 0.02379 0.54896 0.0
C564 C 0.29625 0.0064 0.52242 0.0
C565 C 0.25428 0.96731 0.55051 0.0
C566 C 0.25387 0.03942 0.47748 0.0
C567 C 0.21186 1.0005 0.50596 0.0
H568 H 0.2888 0.9607 0.5682 0.0
H569 H 0.31189 0.98196 0.55304 0.0
H570 H 0.31186 0.03276 0.49749 0.0
H571 H 0.28861 0.05056 0.47288 0.0
H572 H 0.21903 0.04737 0.46229 0.0
H573 H 0.196 0.02614 0.47754 0.0
H574 H 0.1965 0.97273 0.52845 0.0
H575 H 0.21982 0.95469 0.55262 0.0
H576 H 0.22025 0.0388 0.57119 0.0
H577 H 0.27523 0.04481 0.57977 0.0
H578 H 0.23252 0.96391 0.44688 0.0
H579 H 0.28758 0.96604 0.45902 0.0
C580 C 0.52657 0.77381 0.04088 0.0
C581 C 0.53114 0.78987 0.05065 0.0
C582 C 0.52198 0.80175 0.03806 0.0
C583 C 0.51229 0.7923 0.02151 0.0
N584 N 0.5146 0.77508 0.02286 0.0
Co585 Co 0.50274 0.75661 0.0026 0.0
N586 N 0.49009 0.77415 0.98323 0.0
C587 C 0.49193 0.79148 0.98497 0.0
C588 C 0.48134 0.80014 0.96939 0.0
C589 C 0.47202 0.78762 0.95713 0.0
C590 C 0.47746 0.772 0.96609 0.0
N591 N 0.49038 0.73814 0.98284 0.0
C592 C 0.47738 0.73946 0.96617 0.0
C593 C 0.47155 0.72339 0.95785 0.0
C594 C 0.48108 0.71147 0.96984 0.0
C595 C 0.49207 0.7209 0.98481 0.0
N596 N 0.51582 0.73906 0.02151 0.0
C597 C 0.51519 0.72173 0.01821 0.0
C598 C 0.52641 0.71303 0.03288 0.0
C599 C 0.5349 0.72553 0.04624 0.0
C600 C 0.5282 0.74122 0.03902 0.0
N601 N 0.4838 0.75638 0.02416 0.0
C602 C 0.4555 0.75579 0.05244 0.0
C603 C 0.46443 0.74071 0.04717 0.0
C604 C 0.47841 0.74129 0.0331 0.0
C605 C 0.46123 0.77123 0.04375 0.0
C606 C 0.47533 0.77125 0.02987 0.0
N607 N 0.52173 0.75684 0.98094 0.0
C608 C 0.54114 0.74167 0.95616 0.0
C609 C 0.54966 0.75695 0.95191 0.0
C610 C 0.54381 0.77223 0.96213 0.0
C611 C 0.52988 0.7719 0.97632 0.0
C612 C 0.52738 0.74189 0.97065 0.0
H613 H 0.52604 0.784 0.98344 0.0
H614 H 0.52168 0.72975 0.97342 0.0
H615 H 0.48451 0.72931 0.02942 0.0
H616 H 0.47903 0.78343 0.02377 0.0
C617 C 0.50203 0.79925 0.00332 0.0
C618 C 0.53445 0.75781 0.04876 0.0
C619 C 0.46962 0.75557 0.95859 0.0
C620 C 0.50385 0.71398 0.00124 0.0
H621 H 0.5404 0.79271 0.06511 0.0
H622 H 0.52265 0.81563 0.0403 0.0
H623 H 0.48 0.81394 0.96783 0.0
H624 H 0.46199 0.78974 0.94361 0.0
H625 H 0.46122 0.72054 0.94483 0.0
H626 H 0.47989 0.69759 0.96823 0.0
H627 H 0.52835 0.69925 0.03359 0.0
H628 H 0.54504 0.72329 0.05952 0.0
H629 H 0.4604 0.7284 0.05337 0.0
H630 H 0.45491 0.78331 0.04769 0.0
H631 H 0.54531 0.72947 0.94876 0.0
H632 H 0.54987 0.78444 0.95907 0.0
C633 C 0.22794 0.52466 0.03701 0.0
C634 C 0.21083 0.52697 0.04175 0.0
C635 C 0.20196 0.51324 0.03123 0.0
C636 C 0.21409 0.50347 0.02056 0.0
N637 N 0.22997 0.51022 0.02375 0.0
Co638 Co 0.25113 0.50117 0.01044 0.0
N639 N 0.23762 0.48753 0.98602 0.0
C640 C 0.22092 0.48313 0.98664 0.0
C641 C 0.21511 0.47304 0.96777 0.0
C642 C 0.22905 0.47076 0.95463 0.0
C643 C 0.2427 0.47966 0.96624 0.0
N644 N 0.27238 0.49218 0.99733 0.0
C645 C 0.27462 0.48437 0.97635 0.0
C646 C 0.29187 0.48054 0.974 0.0
C647 C 0.30054 0.48561 0.99458 0.0
C648 C 0.28822 0.49241 0.00822 0.0
N649 N 0.26449 0.51472 0.03496 0.0
C650 C 0.2809 0.51209 0.0426 0.0
C651 C 0.28651 0.52381 0.05985 0.0
C652 C 0.27272 0.53444 0.06313 0.0
C653 C 0.25951 0.52858 0.04755 0.0
N654 N 0.25092 0.48143 0.03131 0.0
C655 C 0.25085 0.45315 0.06117 0.0
C656 C 0.2541 0.45091 0.03747 0.0
C657 C 0.25411 0.46511 0.02296 0.0
C658 C 0.24762 0.46998 0.0695 0.0
C659 C 0.24767 0.48385 0.05436 0.0
N660 N 0.25136 0.52093 0.98964 0.0
C661 C 0.26659 0.54437 0.9733 0.0
C662 C 0.25156 0.5499 0.96094 0.0
C663 C 0.23644 0.54039 0.96329 0.0
C664 C 0.23662 0.52603 0.97761 0.0
C665 C 0.26622 0.52996 0.98745 0.0
H666 H 0.22474 0.51915 0.97911 0.0
H667 H 0.27801 0.52618 0.99671 0.0
H668 H 0.25679 0.46281 0.00494 0.0
H669 H 0.24506 0.49658 0.06136 0.0
C670 C 0.21066 0.49046 0.00351 0.0
C671 C 0.2422 0.53587 0.04565 0.0
C672 C 0.26063 0.47836 0.95968 0.0
C673 C 0.29138 0.50123 0.02975 0.0
H674 H 0.20525 0.53751 0.05142 0.0
H675 H 0.18819 0.51125 0.03027 0.0
H676 H 0.20222 0.46814 0.96383 0.0
H677 H 0.22918 0.46298 0.93868 0.0
H678 H 0.29754 0.47431 0.95919 0.0
H679 H 0.31424 0.4848 0.99882 0.0
H680 H 0.29932 0.52511 0.06813 0.0
H681 H 0.27245 0.54532 0.07536 0.0
H682 H 0.25692 0.43828 0.03016 0.0
H683 H 0.24483 0.47244 0.08755 0.0
H684 H 0.27869 0.55099 0.97192 0.0
H685 H 0.2244 0.54415 0.95447 0.0
C686 C 0.47532 0.26447 0.97996 0.0
C687 C 0.4694 0.27998 0.97111 0.0
C688 C 0.47838 0.29272 0.98335 0.0
C689 C 0.48928 0.28431 0.99879 0.0
N690 N 0.48808 0.26693 0.99686 0.0
Co691 Co 0.50125 0.24969 0.01615 0.0
N692 N 0.5136 0.26847 0.03531 0.0
C693 C 0.51186 0.28567 0.03284 0.0
C694 C 0.52258 0.29534 0.04788 0.0
C695 C 0.53191 0.28364 0.06054 0.0
C696 C 0.52626 0.26744 0.0525 0.0
N697 N 0.51418 0.23244 0.03573 0.0
C698 C 0.52659 0.23488 0.05311 0.0
C699 C 0.53227 0.21939 0.06223 0.0
C700 C 0.52335 0.20666 0.04986 0.0
C701 C 0.51273 0.21508 0.03406 0.0
N702 N 0.48911 0.23091 0.9967 0.0
C703 C 0.49142 0.21371 0.99853 0.0
C704 C 0.48072 0.20402 0.98351 0.0
C705 C 0.47082 0.21567 0.97154 0.0
C706 C 0.47615 0.2319 0.9799 0.0
N707 N 0.52003 0.24956 0.99416 0.0
C708 C 0.54771 0.24956 0.96468 0.0
C709 C 0.54184 0.23424 0.97355 0.0
C710 C 0.52805 0.23452 0.988 0.0
C711 C 0.53933 0.26484 0.97054 0.0
C712 C 0.5257 0.26455 0.98522 0.0
N713 N 0.48251 0.24981 0.03811 0.0
C714 C 0.46163 0.23452 0.0592 0.0
C715 C 0.45501 0.24999 0.06786 0.0
C716 C 0.46253 0.26537 0.06161 0.0
C717 C 0.47611 0.26499 0.04679 0.0
C718 C 0.4753 0.23473 0.04458 0.0
H719 H 0.48109 0.27715 0.0424 0.0
H720 H 0.47974 0.2225 0.03864 0.0
H721 H 0.5242 0.2224 0.99409 0.0
H722 H 0.52011 0.27668 0.98928 0.0
C723 C 0.50044 0.29235 0.01573 0.0
C724 C 0.46783 0.24783 0.97253 0.0
C725 C 0.53392 0.25149 0.06085 0.0
C726 C 0.50227 0.20705 0.01631 0.0
H727 H 0.45937 0.28189 0.95753 0.0
H728 H 0.47689 0.30648 0.98154 0.0
H729 H 0.52373 0.30923 0.04913 0.0
H730 H 0.54199 0.2867 0.07385 0.0
H731 H 0.54212 0.2175 0.07606 0.0
H732 H 0.52478 0.1929 0.05172 0.0
H733 H 0.47968 0.19011 0.98219 0.0
H734 H 0.46048 0.21247 0.95871 0.0
H735 H 0.54778 0.22204 0.96922 0.0
H736 H 0.54352 0.27707 0.96426 0.0
H737 H 0.45637 0.22226 0.06381 0.0
H738 H 0.45774 0.27769 0.06773 0.0
C739 C 0.73671 0.53332 0.03913 0.0
C740 C 0.72074 0.54001 0.0439 0.0
C741 C 0.70874 0.52965 0.03222 0.0
C742 C 0.71801 0.51731 0.02094 0.0
N743 N 0.73523 0.51907 0.02478 0.0
Co744 Co 0.75339 0.5042 0.01095 0.0
N745 N 0.73566 0.48891 0.99378 0.0
C746 C 0.71839 0.49023 0.99455 0.0
C747 C 0.70945 0.47752 0.98194 0.0
C748 C 0.72172 0.46741 0.97255 0.0
C749 C 0.73753 0.47464 0.97982 0.0
N750 N 0.77154 0.48955 0.99674 0.0
C751 C 0.77007 0.47552 0.98195 0.0
C752 C 0.78606 0.46962 0.97585 0.0
C753 C 0.79804 0.48007 0.98741 0.0
C754 C 0.78877 0.49181 0.99974 0.0
N755 N 0.77112 0.51929 0.0285 0.0
C756 C 0.7884 0.51746 0.02872 0.0
C757 C 0.7973 0.52959 0.0425 0.0
C758 C 0.785 0.53982 0.05164 0.0
C759 C 0.76923 0.53336 0.0428 0.0
N760 N 0.75342 0.48891 0.03788 0.0
C761 C 0.75331 0.46463 0.07308 0.0
C762 C 0.76874 0.47025 0.06481 0.0
C763 C 0.7685 0.48238 0.04744 0.0
C764 C 0.738 0.47195 0.06431 0.0
C765 C 0.73835 0.48401 0.04686 0.0
N766 N 0.75335 0.51947 0.98398 0.0
C767 C 0.76864 0.53787 0.95921 0.0
C768 C 0.75326 0.54285 0.94767 0.0
C769 C 0.73796 0.53549 0.95395 0.0
C770 C 0.7383 0.5239 0.97205 0.0
C771 C 0.7684 0.5262 0.9771 0.0
H772 H 0.72621 0.51894 0.97631 0.0
H773 H 0.78054 0.52303 0.98527 0.0
H774 H 0.78066 0.48601 0.04176 0.0
H775 H 0.72624 0.48888 0.04059 0.0
C776 C 0.71092 0.50368 0.00708 0.0
C777 C 0.75286 0.54113 0.04847 0.0
C778 C 0.75391 0.46731 0.97322 0.0
C779 C 0.79588 0.50472 0.01492 0.0
H780 H 0.71804 0.55126 0.05468 0.0
H781 H 0.6949 0.53095 0.03198 0.0
H782 H 0.69566 0.47577 0.9799 0.0
H783 H 0.71925 0.45593 0.96168 0.0
H784 H 0.7888 0.45883 0.96428 0.0
H785 H 0.81188 0.47913 0.98701 0.0
H786 H 0.8111 0.53095 0.04533 0.0
H787 H 0.78737 0.55086 0.06339 0.0
H788 H 0.78094 0.46514 0.07151 0.0
H789 H 0.72572 0.46794 0.07021 0.0
H790 H 0.78084 0.54305 0.95458 0.0
H791 H 0.72573 0.53905 0.94547 0.0
H792 H 0.16501 0.23171 0.31936 0.0
H793 H 0.14009 0.23436 0.34307 0.0
H794 H 0.16942 0.2669 0.39319 0.0
H795 H 0.1944 0.26434 0.36952 0.0
H796 H 0.15106 0.24377 0.41482 0.0
H797 H 0.13989 0.28411 0.35452 0.0
H798 H 0.13663 0.29401 0.31408 0.0
H799 H 0.09533 0.25803 0.29872 0.0
H800 H 0.09851 0.24773 0.339 0.0
H801 H 0.07932 0.27516 0.47446 0.0
H802 H 0.10449 0.27398 0.45092 0.0
H803 H 0.07784 0.23844 0.40198 0.0
H804 H 0.05256 0.23973 0.42528 0.0
H805 H 0.09499 0.26399 0.38016 0.0
H806 H 0.10686 0.22349 0.44088 0.0
H807 H 0.11014 0.21425 0.48163 0.0
H808 H 0.15029 0.25158 0.49651 0.0
H809 H 0.14707 0.26122 0.4559 0.0
C810 C 0.16613 0.23952 0.33536 0.0
C811 C 0.18167 0.24788 0.34249 0.0
C812 C 0.15188 0.24102 0.3489 0.0
C813 C 0.15282 0.25102 0.36976 0.0
C814 C 0.1684 0.25912 0.37716 0.0
C815 C 0.18268 0.25759 0.36365 0.0
C816 C 0.13753 0.25304 0.38382 0.0
C817 C 0.13887 0.24843 0.40732 0.0
C818 C 0.12153 0.25885 0.37395 0.0
C819 C 0.11955 0.26503 0.34972 0.0
C820 C 0.1302 0.27821 0.34246 0.0
C821 C 0.12835 0.28391 0.31958 0.0
C822 C 0.11581 0.27662 0.30382 0.0
C823 C 0.10505 0.26365 0.31094 0.0
C824 C 0.10687 0.25788 0.3338 0.0
C825 C 0.07877 0.26724 0.45856 0.0
C826 C 0.064 0.25749 0.45175 0.0
C827 C 0.09319 0.26648 0.44522 0.0
C828 C 0.09307 0.25599 0.42483 0.0
C829 C 0.0782 0.24657 0.4177 0.0
C830 C 0.06383 0.24723 0.4311 0.0
C831 C 0.10853 0.25464 0.41106 0.0
C832 C 0.10721 0.25938 0.38763 0.0
C833 C 0.12456 0.24905 0.42103 0.0
C834 C 0.12659 0.2432 0.44541 0.0
C835 C 0.11629 0.22983 0.45289 0.0
C836 C 0.11815 0.2245 0.47595 0.0
C837 C 0.13038 0.23236 0.49167 0.0
C838 C 0.1408 0.24553 0.48432 0.0
C839 C 0.13897 0.25092 0.46128 0.0
H840 H 0.13181 0.22821 0.50952 0.0
H841 H 0.11439 0.28106 0.28611 0.0
H842 H 0.74083 0.16562 0.30849 0.0
H843 H 0.74202 0.13943 0.33091 0.0
H844 H 0.7835 0.16104 0.37589 0.0
H845 H 0.78279 0.18714 0.35296 0.0
H846 H 0.78958 0.12777 0.36364 0.0
H847 H 0.74364 0.16016 0.39454 0.0
H848 H 0.71677 0.17695 0.39332 0.0
H849 H 0.68907 0.13336 0.36227 0.0
H850 H 0.71584 0.11637 0.36299 0.0
H851 H 0.78112 0.06953 0.4564 0.0
H852 H 0.78331 0.09448 0.43188 0.0
H853 H 0.74331 0.07341 0.38393 0.0
H854 H 0.7412 0.04826 0.40822 0.0
H855 H 0.73705 0.10669 0.39837 0.0
H856 H 0.78392 0.07432 0.3682 0.0
H857 H 0.81106 0.05798 0.37103 0.0
H858 H 0.83727 0.10218 0.40287 0.0
H859 H 0.81022 0.11872 0.40052 0.0
C860 C 0.75034 0.16473 0.32298 0.0
C861 C 0.76173 0.17841 0.32899 0.0
C862 C 0.75089 0.14984 0.3359 0.0
C863 C 0.76271 0.14843 0.35518 0.0
C864 C 0.77425 0.16195 0.36109 0.0
C865 C 0.77373 0.17687 0.34812 0.0
C866 C 0.76292 0.13281 0.36917 0.0
C867 C 0.77817 0.12325 0.37152 0.0
C868 C 0.74793 0.12686 0.37909 0.0
C869 C 0.73179 0.13704 0.37861 0.0
C870 C 0.73185 0.1542 0.38726 0.0
C871 C 0.71663 0.16374 0.3867 0.0
C872 C 0.70123 0.15624 0.37767 0.0
C873 C 0.70102 0.13916 0.36923 0.0
C874 C 0.71621 0.12956 0.36973 0.0
C875 C 0.77309 0.06999 0.44034 0.0
C876 C 0.76096 0.05697 0.43422 0.0
C877 C 0.77432 0.08427 0.42641 0.0
C878 C 0.7635 0.08571 0.40612 0.0
C879 C 0.75173 0.07251 0.3996 0.0
C880 C 0.75051 0.05821 0.41349 0.0
C881 C 0.76363 0.10152 0.39257 0.0
C882 C 0.74844 0.11117 0.39043 0.0
C883 C 0.77871 0.10761 0.38307 0.0
C884 C 0.79501 0.09771 0.38438 0.0
C885 C 0.79544 0.08051 0.37598 0.0
C886 C 0.81081 0.07122 0.37746 0.0
C887 C 0.82587 0.07902 0.38717 0.0
C888 C 0.82559 0.09615 0.39537 0.0
C889 C 0.81025 0.10549 0.39394 0.0
H890 H 0.83776 0.0718 0.38831 0.0
H891 H 0.68946 0.16365 0.37725 0.0
H892 H 0.81648 0.7452 0.36049 0.0
H893 H 0.84331 0.74408 0.38476 0.0
H894 H 0.86986 0.76937 0.33165 0.0
H895 H 0.84297 0.7712 0.30758 0.0
H896 H 0.88647 0.73925 0.34886 0.0
H897 H 0.86178 0.79201 0.37745 0.0
H898 H 0.83897 0.81004 0.39339 0.0
H899 H 0.83907 0.77875 0.45378 0.0
H900 H 0.86172 0.76037 0.43802 0.0
H901 H 0.9651 0.75897 0.41312 0.0
H902 H 0.93794 0.76024 0.38917 0.0
H903 H 0.91074 0.74153 0.44665 0.0
H904 H 0.93791 0.74066 0.4707 0.0
H905 H 0.89413 0.76799 0.42729 0.0
H906 H 0.91863 0.71537 0.39982 0.0
H907 H 0.94104 0.69661 0.3843 0.0
H908 H 0.94076 0.72629 0.32238 0.0
H909 H 0.91853 0.74542 0.33771 0.0
C910 C 0.82792 0.75082 0.35409 0.0
C911 C 0.82751 0.75832 0.33204 0.0
C912 C 0.84327 0.75005 0.36794 0.0
C913 C 0.85851 0.75666 0.35996 0.0
C914 C 0.85821 0.76412 0.33802 0.0
C915 C 0.84284 0.76508 0.32426 0.0
C916 C 0.87483 0.75559 0.37443 0.0
C917 C 0.88827 0.74571 0.36588 0.0
C918 C 0.8769 0.76363 0.39688 0.0
C919 C 0.86332 0.7747 0.40643 0.0
C920 C 0.85683 0.78888 0.39403 0.0
C921 C 0.84395 0.79918 0.40305 0.0
C922 C 0.83754 0.79552 0.42455 0.0
C923 C 0.84403 0.78156 0.43711 0.0
C924 C 0.8569 0.7712 0.42815 0.0
C925 C 0.95327 0.75511 0.42048 0.0
C926 C 0.9534 0.74976 0.44359 0.0
C927 C 0.93782 0.75576 0.40685 0.0
C928 C 0.92233 0.75084 0.41608 0.0
C929 C 0.92253 0.7454 0.4392 0.0
C930 C 0.93798 0.74482 0.45285 0.0
C931 C 0.90588 0.75167 0.40172 0.0
C932 C 0.89238 0.7615 0.41029 0.0
C933 C 0.90371 0.74345 0.37935 0.0
C934 C 0.91703 0.73193 0.37002 0.0
C935 C 0.92344 0.71799 0.38298 0.0
C936 C 0.9361 0.70727 0.3742 0.0
C937 C 0.94235 0.71028 0.35239 0.0
C938 C 0.93592 0.72399 0.33929 0.0
C939 C 0.92329 0.73477 0.348 0.0
H940 H 0.95214 0.70197 0.34562 0.0
H941 H 0.82757 0.80351 0.43151 0.0
H942 H 0.23262 0.84157 0.29752 0.0
H943 H 0.23628 0.86796 0.32169 0.0
H944 H 0.2744 0.84275 0.36645 0.0
H945 H 0.27078 0.8163 0.34236 0.0
H946 H 0.25205 0.86078 0.39134 0.0
H947 H 0.28641 0.87104 0.32665 0.0
H948 H 0.29228 0.87279 0.28506 0.0
H949 H 0.2536 0.91182 0.27613 0.0
H950 H 0.24732 0.91012 0.31761 0.0
H951 H 0.28168 0.93532 0.45347 0.0
H952 H 0.28208 0.91024 0.42677 0.0
H953 H 0.24262 0.93322 0.38177 0.0
H954 H 0.24256 0.95866 0.40801 0.0
H955 H 0.26686 0.91633 0.35695 0.0
H956 H 0.23164 0.90512 0.42091 0.0
H957 H 0.22562 0.90347 0.46247 0.0
H958 H 0.26584 0.86615 0.47256 0.0
H959 H 0.27227 0.86777 0.43111 0.0
C960 C 0.24184 0.84169 0.31245 0.0
C961 C 0.25146 0.82692 0.31804 0.0
C962 C 0.24393 0.85676 0.32621 0.0
C963 C 0.2558 0.85735 0.34563 0.0
C964 C 0.2652 0.84254 0.35149 0.0
C965 C 0.26307 0.82744 0.33779 0.0
C966 C 0.25825 0.87338 0.36 0.0
C967 C 0.25556 0.87287 0.3839 0.0
C968 C 0.26246 0.8892 0.35012 0.0
C969 C 0.2663 0.89034 0.3252 0.0
C970 C 0.27907 0.8799 0.31578 0.0
C971 C 0.28248 0.8809 0.29223 0.0
C972 C 0.27329 0.89238 0.27795 0.0
C973 C 0.2607 0.90292 0.28721 0.0
C974 C 0.25722 0.90196 0.31074 0.0
C975 C 0.27339 0.93524 0.43761 0.0
C976 C 0.26197 0.94889 0.43293 0.0
C977 C 0.27354 0.92084 0.42249 0.0
C978 C 0.26217 0.9198 0.40257 0.0
C979 C 0.25142 0.93378 0.39716 0.0
C980 C 0.25129 0.94821 0.41225 0.0
C981 C 0.26066 0.90369 0.38823 0.0
C982 C 0.26347 0.9042 0.36437 0.0
C983 C 0.25654 0.88786 0.39811 0.0
C984 C 0.25255 0.8867 0.42297 0.0
C985 C 0.23928 0.89665 0.43203 0.0
C986 C 0.23578 0.89571 0.45556 0.0
C987 C 0.24537 0.88475 0.47016 0.0
C988 C 0.25844 0.87466 0.46124 0.0
C989 C 0.26201 0.87557 0.43773 0.0
H990 H 0.24265 0.88404 0.48838 0.0
H991 H 0.27595 0.89313 0.25972 0.0
H992 H 0.16097 0.76902 0.70167 0.0
H993 H 0.13422 0.76683 0.67711 0.0
H994 H 0.16182 0.74398 0.6211 0.0
H995 H 0.18872 0.74648 0.64541 0.0
H996 H 0.13868 0.76835 0.60562 0.0
H997 H 0.13903 0.71887 0.65391 0.0
H998 H 0.14117 0.70368 0.69107 0.0
H999 H 0.09725 0.7313 0.71406 0.0
H1000 H 0.095 0.74685 0.67715 0.0
H1001 H 0.06691 0.73726 0.53562 0.0
H1002 H 0.09379 0.73807 0.56029 0.0
H1003 H 0.06636 0.75865 0.61802 0.0
H1004 H 0.0394 0.75736 0.59342 0.0
H1005 H 0.08956 0.73522 0.63254 0.0
H1006 H 0.08908 0.78481 0.58472 0.0
H1007 H 0.08655 0.8 0.54757 0.0
H1008 H 0.13046 0.77269 0.52397 0.0
H1009 H 0.13309 0.75711 0.56084 0.0
C1010 C 0.16138 0.76373 0.68402 0.0
C1011 C 0.17694 0.75787 0.67548 0.0
C1012 C 0.14607 0.76235 0.67009 0.0
C1013 C 0.14602 0.75505 0.6474 0.0
C1014 C 0.16158 0.74958 0.63861 0.0
C1015 C 0.1769 0.75091 0.65256 0.0
C1016 C 0.1297 0.75292 0.63294 0.0
C1017 C 0.12801 0.76093 0.61135 0.0
C1018 C 0.11567 0.74355 0.6407 0.0
C1019 C 0.11695 0.73415 0.66286 0.0
C1020 C 0.12991 0.72181 0.66696 0.0
C1021 C 0.13113 0.71311 0.68797 0.0
C1022 C 0.11938 0.71655 0.70494 0.0
C1023 C 0.10636 0.72866 0.70091 0.0
C1024 C 0.1051 0.73741 0.67995 0.0
C1025 C 0.0667 0.74177 0.55366 0.0
C1026 C 0.0513 0.7474 0.56273 0.0
C1027 C 0.08199 0.74233 0.56767 0.0
C1028 C 0.08211 0.74872 0.59086 0.0
C1029 C 0.06656 0.75375 0.60015 0.0
C1030 C 0.05124 0.75307 0.58617 0.0
C1031 C 0.09852 0.75066 0.60521 0.0
C1032 C 0.10023 0.74264 0.62679 0.0
C1033 C 0.11254 0.76009 0.59749 0.0
C1034 C 0.11119 0.76968 0.57547 0.0
C1035 C 0.09814 0.78197 0.57156 0.0
C1036 C 0.09669 0.79065 0.55055 0.0
C1037 C 0.10832 0.78728 0.5334 0.0
C1038 C 0.12145 0.77527 0.53726 0.0
C1039 C 0.12294 0.76651 0.55822 0.0
H1040 H 0.10717 0.79401 0.51714 0.0
H1041 H 0.12034 0.7098 0.72119 0.0
H1042 H 0.22022 0.18607 0.68482 0.0
H1043 H 0.22033 0.15834 0.66343 0.0
H1044 H 0.26105 0.14052 0.71107 0.0
H1045 H 0.26137 0.16839 0.73212 0.0
H1046 H 0.26789 0.13422 0.66613 0.0
H1047 H 0.22047 0.12548 0.71384 0.0
H1048 H 0.19294 0.13267 0.73074 0.0
H1049 H 0.16746 0.13136 0.66218 0.0
H1050 H 0.19489 0.1244 0.64482 0.0
H1051 H 0.26574 0.04869 0.61984 0.0
H1052 H 0.26364 0.07305 0.64764 0.0
H1053 H 0.22249 0.09442 0.60383 0.0
H1054 H 0.2245 0.07015 0.57605 0.0
H1055 H 0.21604 0.09772 0.6494 0.0
H1056 H 0.26308 0.1089 0.60144 0.0
H1057 H 0.29041 0.10246 0.58352 0.0
H1058 H 0.31636 0.10005 0.65158 0.0
H1059 H 0.28911 0.10623 0.66991 0.0
C1060 C 0.2292 0.17624 0.69071 0.0
C1061 C 0.24078 0.17938 0.71014 0.0
C1062 C 0.22913 0.16036 0.67863 0.0
C1063 C 0.24058 0.14735 0.68585 0.0
C1064 C 0.25206 0.15039 0.70533 0.0
C1065 C 0.25213 0.16626 0.71742 0.0
C1066 C 0.24113 0.13085 0.67237 0.0
C1067 C 0.25664 0.12606 0.66283 0.0
C1068 C 0.22632 0.12048 0.66762 0.0
C1069 C 0.20977 0.12455 0.67802 0.0
C1070 C 0.20902 0.12684 0.70235 0.0
C1071 C 0.19343 0.13086 0.71201 0.0
C1072 C 0.17846 0.1325 0.69754 0.0
C1073 C 0.17906 0.13009 0.67337 0.0
C1074 C 0.19462 0.12609 0.66361 0.0
C1075 C 0.25622 0.05857 0.61621 0.0
C1076 C 0.24535 0.05759 0.59574 0.0
C1077 C 0.25502 0.07243 0.63209 0.0
C1078 C 0.24305 0.08561 0.62761 0.0
C1079 C 0.23178 0.08435 0.60762 0.0
C1080 C 0.23292 0.07047 0.59179 0.0
C1081 C 0.24278 0.10115 0.64313 0.0
C1082 C 0.22733 0.10578 0.65295 0.0
C1083 C 0.25761 0.11146 0.64803 0.0
C1084 C 0.27402 0.10783 0.63704 0.0
C1085 C 0.27459 0.10686 0.61258 0.0
C1086 C 0.29006 0.10328 0.60235 0.0
C1087 C 0.3051 0.10079 0.6164 0.0
C1088 C 0.30469 0.10194 0.64072 0.0
C1089 C 0.28924 0.10549 0.65104 0.0
H1090 H 0.31707 0.09803 0.60845 0.0
H1091 H 0.1664 0.13562 0.70505 0.0
H1092 H 0.83737 0.23734 0.71274 0.0
H1093 H 0.86224 0.23799 0.68902 0.0
H1094 H 0.83377 0.26867 0.63857 0.0
H1095 H 0.80848 0.26726 0.66155 0.0
H1096 H 0.85149 0.24532 0.61672 0.0
H1097 H 0.86443 0.28655 0.679 0.0
H1098 H 0.86821 0.29727 0.7199 0.0
H1099 H 0.90795 0.25995 0.73348 0.0
H1100 H 0.90424 0.24884 0.69272 0.0
H1101 H 0.92396 0.27452 0.55911 0.0
H1102 H 0.89875 0.27371 0.58248 0.0
H1103 H 0.92468 0.23783 0.62845 0.0
H1104 H 0.95003 0.23874 0.60532 0.0
H1105 H 0.90834 0.26414 0.65229 0.0
H1106 H 0.8949 0.22334 0.58879 0.0
H1107 H 0.89115 0.21391 0.54735 0.0
H1108 H 0.85221 0.25233 0.53557 0.0
H1109 H 0.8559 0.26215 0.5769 0.0
C1110 C 0.83627 0.24403 0.69644 0.0
C1111 C 0.82087 0.25229 0.68914 0.0
C1112 C 0.85061 0.24458 0.68302 0.0
C1113 C 0.85 0.25364 0.66218 0.0
C1114 C 0.8346 0.26168 0.65465 0.0
C1115 C 0.82019 0.26101 0.66796 0.0
C1116 C 0.8654 0.25468 0.64823 0.0
C1117 C 0.86386 0.24967 0.62446 0.0
C1118 C 0.88164 0.26008 0.65835 0.0
C1119 C 0.88394 0.26675 0.68286 0.0
C1120 C 0.87388 0.28054 0.69075 0.0
C1121 C 0.87603 0.2867 0.7139 0.0
C1122 C 0.88828 0.27927 0.72929 0.0
C1123 C 0.89845 0.26568 0.72154 0.0
C1124 C 0.89634 0.25945 0.69841 0.0
C1125 C 0.92434 0.26657 0.57431 0.0
C1126 C 0.93897 0.25667 0.58036 0.0
C1127 C 0.90989 0.26602 0.58753 0.0
C1128 C 0.9098 0.25559 0.60707 0.0
C1129 C 0.92447 0.24591 0.61339 0.0
C1130 C 0.93889 0.24636 0.60008 0.0
C1131 C 0.89439 0.25475 0.62091 0.0
C1132 C 0.89595 0.25981 0.64463 0.0
C1133 C 0.87814 0.24958 0.61069 0.0
C1134 C 0.8758 0.24359 0.58589 0.0
C1135 C 0.88563 0.22987 0.57732 0.0
C1136 C 0.8835 0.22444 0.55386 0.0
C1137 C 0.87148 0.23255 0.53882 0.0
C1138 C 0.86153 0.24607 0.54723 0.0
C1139 C 0.86362 0.25157 0.57068 0.0
H1140 H 0.86986 0.22833 0.52066 0.0
H1141 H 0.88992 0.28406 0.74721 0.0
H1142 H 0.76555 0.84128 0.71258 0.0
H1143 H 0.76239 0.86845 0.69249 0.0
H1144 H 0.73283 0.8426 0.63566 0.0
H1145 H 0.7367 0.81522 0.65506 0.0
H1146 H 0.75474 0.86426 0.61946 0.0
H1147 H 0.71339 0.86674 0.67801 0.0
H1148 H 0.70337 0.86533 0.71783 0.0
H1149 H 0.73664 0.90746 0.74051 0.0
H1150 H 0.74705 0.90897 0.70088 0.0
H1151 H 0.72019 0.93686 0.56541 0.0
H1152 H 0.7201 0.91135 0.58923 0.0
H1153 H 0.75596 0.93601 0.64001 0.0
H1154 H 0.7559 0.96178 0.61642 0.0
H1155 H 0.73039 0.9154 0.65964 0.0
H1156 H 0.77197 0.91205 0.60056 0.0
H1157 H 0.781 0.91364 0.56025 0.0
H1158 H 0.74599 0.87276 0.53822 0.0
H1159 H 0.73655 0.87113 0.57836 0.0
C1160 C 0.75863 0.84132 0.69562 0.0
C1161 C 0.7513 0.82612 0.68544 0.0
C1162 C 0.75664 0.8569 0.68432 0.0
C1163 C 0.74709 0.85757 0.66283 0.0
C1164 C 0.74014 0.84236 0.65234 0.0
C1165 C 0.74224 0.82676 0.66352 0.0
C1166 C 0.74436 0.87412 0.65118 0.0
C1167 C 0.7492 0.87535 0.62816 0.0
C1168 C 0.73742 0.88868 0.66271 0.0
C1169 C 0.73112 0.88786 0.68653 0.0
C1170 C 0.71867 0.87562 0.69153 0.0
C1171 C 0.7129 0.87482 0.71406 0.0
C1172 C 0.7194 0.88627 0.73171 0.0
C1173 C 0.73164 0.89859 0.72684 0.0
C1174 C 0.73747 0.89943 0.70434 0.0
C1175 C 0.72765 0.93706 0.58199 0.0
C1176 C 0.73818 0.9512 0.58901 0.0
C1177 C 0.72766 0.92246 0.59547 0.0
C1178 C 0.73822 0.9218 0.61611 0.0
C1179 C 0.74779 0.93633 0.62405 0.0
C1180 C 0.74783 0.95094 0.61051 0.0
C1181 C 0.74067 0.90539 0.62802 0.0
C1182 C 0.73586 0.90423 0.65103 0.0
C1183 C 0.74754 0.89084 0.61646 0.0
C1184 C 0.75343 0.89159 0.59241 0.0
C1185 C 0.76611 0.90349 0.58709 0.0
C1186 C 0.77131 0.90438 0.56427 0.0
C1187 C 0.76404 0.89333 0.54667 0.0
C1188 C 0.7516 0.88132 0.55187 0.0
C1189 C 0.74632 0.8804 0.57465 0.0
H1190 H 0.76808 0.89405 0.52901 0.0
H1191 H 0.71492 0.88563 0.74914 0.0
H1192 H 0.81358 0.73522 0.65413 0.0
H1193 H 0.83847 0.73494 0.63015 0.0
H1194 H 0.86602 0.76816 0.68123 0.0
H1195 H 0.84104 0.76879 0.70509 0.0
H1196 H 0.86964 0.77843 0.63669 0.0
H1197 H 0.87495 0.7259 0.67853 0.0
H1198 H 0.86519 0.69803 0.69241 0.0
H1199 H 0.85768 0.6787 0.62158 0.0
H1200 H 0.86717 0.70656 0.60725 0.0
H1201 H 0.95299 0.76732 0.59514 0.0
H1202 H 0.92822 0.7679 0.61931 0.0
H1203 H 0.90126 0.73249 0.57048 0.0
H1204 H 0.92601 0.73182 0.54628 0.0
H1205 H 0.89736 0.72337 0.61414 0.0
H1206 H 0.89171 0.77564 0.57205 0.0
H1207 H 0.90119 0.80348 0.55773 0.0
H1208 H 0.90891 0.8233 0.62831 0.0
H1209 H 0.8997 0.79548 0.64307 0.0
C1210 C 0.82488 0.74258 0.66016 0.0
C1211 C 0.82535 0.75199 0.68154 0.0
C1212 C 0.83914 0.74229 0.64654 0.0
C1213 C 0.85416 0.75138 0.65403 0.0
C1214 C 0.85459 0.761 0.67517 0.0
C1215 C 0.84035 0.76124 0.68885 0.0
C1216 C 0.86943 0.75087 0.6398 0.0
C1217 C 0.87585 0.76642 0.63201 0.0
C1218 C 0.87727 0.73516 0.63325 0.0
C1219 C 0.87161 0.71838 0.64182 0.0
C1220 C 0.87109 0.71576 0.66591 0.0
C1221 C 0.86563 0.69995 0.67386 0.0
C1222 C 0.86078 0.68662 0.65789 0.0
C1223 C 0.86142 0.68905 0.63393 0.0
C1224 C 0.86685 0.70484 0.62589 0.0
C1225 C 0.94174 0.75976 0.58947 0.0
C1226 C 0.94146 0.74956 0.56876 0.0
C1227 C 0.92759 0.76009 0.6033 0.0
C1228 C 0.91279 0.75039 0.59657 0.0
C1229 C 0.91254 0.74005 0.57604 0.0
C1230 C 0.92672 0.73965 0.56226 0.0
C1231 C 0.89758 0.75094 0.61097 0.0
C1232 C 0.89116 0.7354 0.6188 0.0
C1233 C 0.8897 0.76665 0.61749 0.0
C1234 C 0.89517 0.78342 0.60866 0.0
C1235 C 0.89555 0.78589 0.58452 0.0
C1236 C 0.90086 0.80168 0.57633 0.0
C1237 C 0.90569 0.81513 0.59211 0.0
C1238 C 0.90518 0.81285 0.61611 0.0
C1239 C 0.89991 0.79708 0.6244 0.0
H1240 H 0.90979 0.82734 0.58573 0.0
H1241 H 0.85656 0.67439 0.66408 0.0
H1242 H 0.26434 0.81949 0.65245 0.0
H1243 H 0.26478 0.84458 0.62783 0.0
H1244 H 0.23945 0.87474 0.67984 0.0
H1245 H 0.2384 0.84953 0.70421 0.0
H1246 H 0.22583 0.88182 0.6377 0.0
H1247 H 0.28341 0.87852 0.67213 0.0
H1248 H 0.31122 0.86466 0.68239 0.0
H1249 H 0.31954 0.85628 0.60963 0.0
H1250 H 0.29166 0.86989 0.59893 0.0
H1251 H 0.24193 0.9647 0.59387 0.0
H1252 H 0.24162 0.93929 0.61828 0.0
H1253 H 0.26648 0.90956 0.56532 0.0
H1254 H 0.26694 0.9351 0.54107 0.0
H1255 H 0.28033 0.90211 0.60754 0.0
H1256 H 0.22303 0.90581 0.57302 0.0
H1257 H 0.19547 0.92008 0.56264 0.0
H1258 H 0.1866 0.92771 0.63535 0.0
H1259 H 0.21428 0.91376 0.64618 0.0
C1260 C 0.25869 0.83138 0.65863 0.0
C1261 C 0.25137 0.83234 0.68051 0.0
C1262 C 0.25912 0.84585 0.64457 0.0
C1263 C 0.25236 0.86177 0.65199 0.0
C1264 C 0.24484 0.86271 0.67365 0.0
C1265 C 0.2444 0.84825 0.68772 0.0
C1266 C 0.25308 0.87738 0.63721 0.0
C1267 C 0.23781 0.88636 0.6314 0.0
C1268 C 0.26859 0.88322 0.62836 0.0
C1269 C 0.28537 0.87507 0.63474 0.0
C1270 C 0.29111 0.8736 0.65832 0.0
C1271 C 0.3069 0.86581 0.66421 0.0
C1272 C 0.31712 0.85956 0.64667 0.0
C1273 C 0.31159 0.86112 0.6232 0.0
C1274 C 0.29581 0.86888 0.61721 0.0
C1275 C 0.24732 0.95272 0.58751 0.0
C1276 C 0.25439 0.95183 0.56556 0.0
C1277 C 0.24709 0.93816 0.60141 0.0
C1278 C 0.25382 0.92231 0.59362 0.0
C1279 C 0.26117 0.92154 0.57181 0.0
C1280 C 0.26141 0.93612 0.55791 0.0
C1281 C 0.2531 0.90657 0.60811 0.0
C1282 C 0.26835 0.89756 0.61384 0.0
C1283 C 0.23757 0.90069 0.61686 0.0
C1284 C 0.22081 0.90887 0.61041 0.0
C1285 C 0.21526 0.91063 0.5868 0.0
C1286 C 0.19962 0.91866 0.58084 0.0
C1287 C 0.18931 0.92483 0.59833 0.0
C1288 C 0.19461 0.92294 0.62182 0.0
C1289 C 0.21027 0.91497 0.62788 0.0
H1290 H 0.1772 0.93104 0.59368 0.0
H1291 H 0.32933 0.85353 0.65127 0.0
H1292 H 0.1858 0.26637 0.66235 0.0
H1293 H 0.15907 0.26633 0.63772 0.0
H1294 H 0.13097 0.25075 0.696 0.0
H1295 H 0.15759 0.25108 0.7209 0.0
H1296 H 0.12176 0.23211 0.65547 0.0
H1297 H 0.12904 0.29144 0.68027 0.0
H1298 H 0.14461 0.31902 0.68614 0.0
H1299 H 0.14885 0.32196 0.61211 0.0
H1300 H 0.13351 0.29425 0.60583 0.0
H1301 H 0.03751 0.24961 0.60775 0.0
H1302 H 0.06418 0.24997 0.63297 0.0
H1303 H 0.09233 0.26704 0.57544 0.0
H1304 H 0.0656 0.26679 0.55035 0.0
H1305 H 0.10152 0.28489 0.61569 0.0
H1306 H 0.09412 0.22582 0.59062 0.0
H1307 H 0.07834 0.19838 0.58443 0.0
H1308 H 0.07448 0.19479 0.65844 0.0
H1309 H 0.08996 0.22239 0.66505 0.0
C1310 C 0.17392 0.2631 0.67001 0.0
C1311 C 0.17384 0.2588 0.69364 0.0
C1312 C 0.15867 0.26302 0.65588 0.0
C1313 C 0.14305 0.25866 0.66511 0.0
C1314 C 0.14292 0.2541 0.68855 0.0
C1315 C 0.15816 0.25424 0.70272 0.0
C1316 C 0.1268 0.25895 0.65031 0.0
C1317 C 0.11719 0.24369 0.64701 0.0
C1318 C 0.12111 0.27398 0.63889 0.0
C1319 C 0.13028 0.29068 0.64261 0.0
C1320 C 0.13342 0.29789 0.66526 0.0
C1321 C 0.14218 0.31357 0.66866 0.0
C1322 C 0.14776 0.32222 0.64952 0.0
C1323 C 0.14454 0.31523 0.62693 0.0
C1324 C 0.1358 0.29955 0.62344 0.0
C1325 C 0.04945 0.2534 0.60064 0.0
C1326 C 0.04973 0.25803 0.57725 0.0
C1327 C 0.06462 0.25358 0.61493 0.0
C1328 C 0.08024 0.25835 0.60597 0.0
C1329 C 0.08041 0.2633 0.58266 0.0
C1330 C 0.06524 0.26311 0.56837 0.0
C1331 C 0.09645 0.25805 0.62084 0.0
C1332 C 0.10606 0.2733 0.62415 0.0
C1333 C 0.10217 0.24299 0.63221 0.0
C1334 C 0.09306 0.22627 0.62831 0.0
C1335 C 0.08979 0.21925 0.60557 0.0
C1336 C 0.08091 0.20366 0.60198 0.0
C1337 C 0.07538 0.19486 0.62103 0.0
C1338 C 0.07875 0.20163 0.6437 0.0
C1339 C 0.08758 0.21724 0.64738 0.0
H1340 H 0.0685 0.18279 0.61822 0.0
H1341 H 0.15454 0.33435 0.65218 0.0
H1342 H 0.73192 0.16277 0.70535 0.0
H1343 H 0.73187 0.1371 0.67964 0.0
H1344 H 0.76557 0.16246 0.63475 0.0
H1345 H 0.76612 0.18806 0.66069 0.0
H1346 H 0.73899 0.14548 0.60967 0.0
H1347 H 0.78128 0.1325 0.67118 0.0
H1348 H 0.79217 0.12914 0.71205 0.0
H1349 H 0.75372 0.09068 0.72088 0.0
H1350 H 0.74244 0.09398 0.68013 0.0
H1351 H 0.76255 0.07209 0.54168 0.0
H1352 H 0.76263 0.09794 0.5674 0.0
H1353 H 0.73371 0.07058 0.61631 0.0
H1354 H 0.73418 0.04457 0.59085 0.0
H1355 H 0.75765 0.08875 0.63948 0.0
H1356 H 0.71511 0.10123 0.57876 0.0
H1357 H 0.70345 0.10442 0.5382 0.0
H1358 H 0.74091 0.14361 0.52817 0.0
H1359 H 0.75298 0.14048 0.56859 0.0
C1360 C 0.73953 0.16289 0.6902 0.0
C1361 C 0.7491 0.17761 0.68531 0.0
C1362 C 0.73941 0.14816 0.67541 0.0
C1363 C 0.74882 0.14774 0.65529 0.0
C1364 C 0.75817 0.16245 0.65011 0.0
C1365 C 0.75839 0.17716 0.66497 0.0
C1366 C 0.74896 0.13194 0.63973 0.0
C1367 C 0.74328 0.13312 0.61611 0.0
C1368 C 0.75411 0.11567 0.6482 0.0
C1369 C 0.76091 0.11362 0.67267 0.0
C1370 C 0.77506 0.12342 0.68189 0.0
C1371 C 0.78132 0.12151 0.70503 0.0
C1372 C 0.77362 0.10974 0.71907 0.0
C1373 C 0.75966 0.09981 0.70999 0.0
C1374 C 0.75334 0.10169 0.68687 0.0
C1375 C 0.75624 0.07166 0.55794 0.0
C1376 C 0.7483 0.05641 0.56428 0.0
C1377 C 0.75618 0.08645 0.57259 0.0
C1378 C 0.74795 0.08639 0.59375 0.0
C1379 C 0.74012 0.07105 0.60012 0.0
C1380 C 0.7403 0.05622 0.58555 0.0
C1381 C 0.74766 0.10223 0.60932 0.0
C1382 C 0.75332 0.10108 0.63297 0.0
C1383 C 0.74235 0.11849 0.60091 0.0
C1384 C 0.73505 0.1205 0.57664 0.0
C1385 C 0.72095 0.11044 0.56786 0.0
C1386 C 0.71425 0.11225 0.5449 0.0
C1387 C 0.72146 0.12418 0.5306 0.0
C1388 C 0.73536 0.13436 0.53926 0.0
C1389 C 0.74212 0.13258 0.5622 0.0
H1390 H 0.71626 0.12557 0.51283 0.0
H1391 H 0.77848 0.10828 0.73698 0.0
H1392 H 0.82438 0.23308 0.35564 0.0
H1393 H 0.85095 0.2339 0.3811 0.0
H1394 H 0.86885 0.2773 0.34424 0.0
H1395 H 0.84207 0.27686 0.31921 0.0
H1396 H 0.89267 0.24472 0.35348 0.0
H1397 H 0.85776 0.28954 0.38875 0.0
H1398 H 0.83117 0.30025 0.40527 0.0
H1399 H 0.83522 0.26159 0.45722 0.0
H1400 H 0.8617 0.25046 0.44072 0.0
H1401 H 0.96593 0.26859 0.42598 0.0
H1402 H 0.93964 0.2685 0.40024 0.0
H1403 H 0.91212 0.24449 0.45372 0.0
H1404 H 0.93816 0.24572 0.47993 0.0
H1405 H 0.89264 0.26706 0.43546 0.0
H1406 H 0.92642 0.22201 0.40358 0.0
H1407 H 0.95205 0.20843 0.38788 0.0
H1408 H 0.94932 0.24299 0.3308 0.0
H1409 H 0.92381 0.25696 0.34635 0.0
C1410 C 0.83403 0.24276 0.35303 0.0
C1411 C 0.83128 0.25494 0.33561 0.0
C1412 C 0.84911 0.24322 0.36751 0.0
C1413 C 0.86175 0.25566 0.36444 0.0
C1414 C 0.85919 0.26763 0.34678 0.0
C1415 C 0.84394 0.26741 0.33263 0.0
C1416 C 0.87758 0.25626 0.37991 0.0
C1417 C 0.89281 0.2498 0.37132 0.0
C1418 C 0.87744 0.2623 0.40335 0.0
C1419 C 0.86157 0.26903 0.41331 0.0
C1420 C 0.85287 0.28319 0.40352 0.0
C1421 C 0.83784 0.28937 0.41292 0.0
C1422 C 0.83147 0.28156 0.43224 0.0
C1423 C 0.84014 0.2676 0.44223 0.0
C1424 C 0.85516 0.26136 0.43286 0.0
C1425 C 0.95417 0.26346 0.43219 0.0
C1426 C 0.9539 0.25728 0.45486 0.0
C1427 C 0.93922 0.26322 0.41745 0.0
C1428 C 0.92391 0.25622 0.42487 0.0
C1429 C 0.92373 0.24997 0.44757 0.0
C1430 C 0.93858 0.25059 0.46248 0.0
C1431 C 0.90804 0.25558 0.40911 0.0
C1432 C 0.89268 0.26198 0.41763 0.0
C1433 C 0.908 0.24906 0.38574 0.0
C1434 C 0.92329 0.24064 0.37626 0.0
C1435 C 0.93135 0.2268 0.38777 0.0
C1436 C 0.94586 0.21902 0.37889 0.0
C1437 C 0.95234 0.22487 0.35839 0.0
C1438 C 0.9443 0.23848 0.3467 0.0
C1439 C 0.92981 0.24633 0.35553 0.0
H1440 H 0.96357 0.21883 0.35154 0.0
H1441 H 0.81984 0.28637 0.4395 0.0
H1442 H 0.76357 0.84664 0.31326 0.0
H1443 H 0.76375 0.87207 0.33945 0.0
H1444 H 0.73796 0.84328 0.39 0.0
H1445 H 0.73794 0.8177 0.36406 0.0
H1446 H 0.7238 0.87472 0.38549 0.0
H1447 H 0.78085 0.8525 0.39791 0.0
H1448 H 0.80907 0.84196 0.38649 0.0
H1449 H 0.8192 0.89072 0.35676 0.0
H1450 H 0.79092 0.90148 0.36774 0.0
H1451 H 0.7375 0.93475 0.48141 0.0
H1452 H 0.73781 0.90881 0.45581 0.0
H1453 H 0.76379 0.93724 0.40498 0.0
H1454 H 0.7636 0.96312 0.43076 0.0
H1455 H 0.77788 0.90585 0.40983 0.0
H1456 H 0.72072 0.92809 0.39787 0.0
H1457 H 0.69269 0.9386 0.41004 0.0
H1458 H 0.68279 0.88962 0.43929 0.0
H1459 H 0.71092 0.87891 0.42767 0.0
C1460 C 0.75811 0.8456 0.33005 0.0
C1461 C 0.7508 0.82997 0.33646 0.0
C1462 C 0.75817 0.86022 0.34503 0.0
C1463 C 0.75101 0.85963 0.36689 0.0
C1464 C 0.74354 0.84414 0.37325 0.0
C1465 C 0.74349 0.82949 0.3583 0.0
C1466 C 0.75126 0.87516 0.38304 0.0
C1467 C 0.73567 0.88138 0.39105 0.0
C1468 C 0.76666 0.88414 0.39001 0.0
C1469 C 0.78369 0.87774 0.38344 0.0
C1470 C 0.78904 0.86093 0.38877 0.0
C1471 C 0.80505 0.85492 0.38241 0.0
C1472 C 0.8159 0.86565 0.37085 0.0
C1473 C 0.81077 0.88242 0.36569 0.0
C1474 C 0.79476 0.88848 0.37199 0.0
C1475 C 0.74325 0.93539 0.46475 0.0
C1476 C 0.75046 0.95089 0.45796 0.0
C1477 C 0.74339 0.92061 0.45009 0.0
C1478 C 0.75066 0.92104 0.42826 0.0
C1479 C 0.7581 0.93652 0.42167 0.0
C1480 C 0.75795 0.9513 0.43634 0.0
C1481 C 0.75042 0.90543 0.41226 0.0
C1482 C 0.76601 0.8992 0.40428 0.0
C1483 C 0.73502 0.89642 0.40535 0.0
C1484 C 0.718 0.90275 0.41209 0.0
C1485 C 0.71262 0.9196 0.40705 0.0
C1486 C 0.69671 0.92559 0.41384 0.0
C1487 C 0.68598 0.9148 0.42548 0.0
C1488 C 0.69112 0.89798 0.4303 0.0
C1489 C 0.70705 0.89194 0.42361 0.0
H1490 H 0.67366 0.91946 0.43072 0.0
H1491 H 0.82829 0.86097 0.36594 0.0
H1492 H 0.19195 0.73815 0.34829 0.0
H1493 H 0.16745 0.73729 0.37285 0.0
H1494 H 0.13671 0.76493 0.32137 0.0
H1495 H 0.161 0.76552 0.29642 0.0
H1496 H 0.13353 0.77791 0.36635 0.0
H1497 H 0.13102 0.72268 0.32558 0.0
H1498 H 0.14257 0.69474 0.31233 0.0
H1499 H 0.15206 0.68025 0.38357 0.0
H1500 H 0.14078 0.70823 0.39726 0.0
H1501 H 0.05165 0.76533 0.4098 0.0
H1502 H 0.07619 0.76573 0.38523 0.0
H1503 H 0.1045 0.73289 0.43317 0.0
H1504 H 0.07984 0.73218 0.45754 0.0
H1505 H 0.10931 0.72255 0.39026 0.0
H1506 H 0.11234 0.77699 0.43168 0.0
H1507 H 0.10156 0.80496 0.4461 0.0
H1508 H 0.09227 0.82112 0.37555 0.0
H1509 H 0.10277 0.79314 0.3607 0.0
C1510 C 0.17993 0.74389 0.34204 0.0
C1511 C 0.17846 0.75186 0.3203 0.0
C1512 C 0.16596 0.74344 0.35616 0.0
C1513 C 0.15023 0.75094 0.34884 0.0
C1514 C 0.14876 0.75911 0.32736 0.0
C1515 C 0.16269 0.7595 0.31317 0.0
C1516 C 0.13529 0.75027 0.36361 0.0
C1517 C 0.12808 0.76582 0.37135 0.0
C1518 C 0.12851 0.73448 0.37066 0.0
C1519 C 0.13521 0.71762 0.36245 0.0
C1520 C 0.1357 0.7136 0.33843 0.0
C1521 C 0.14217 0.69774 0.33083 0.0
C1522 C 0.14809 0.68574 0.3471 0.0
C1523 C 0.1475 0.68956 0.37099 0.0
C1524 C 0.14105 0.70541 0.37868 0.0
C1525 C 0.06315 0.75826 0.41513 0.0
C1526 C 0.06386 0.74877 0.43563 0.0
C1527 C 0.07718 0.75852 0.40111 0.0
C1528 C 0.09233 0.74956 0.40752 0.0
C1529 C 0.09297 0.7399 0.42785 0.0
C1530 C 0.07887 0.73949 0.44174 0.0
C1531 C 0.10747 0.75022 0.39302 0.0
C1532 C 0.11474 0.73467 0.38532 0.0
C1533 C 0.11442 0.76602 0.38621 0.0
C1534 C 0.1082 0.7829 0.39508 0.0
C1535 C 0.10789 0.78646 0.41924 0.0
C1536 C 0.10184 0.80232 0.42749 0.0
C1537 C 0.0962 0.81479 0.41175 0.0
C1538 C 0.09663 0.81144 0.38772 0.0
C1539 C 0.10264 0.79559 0.37938 0.0
H1540 H 0.09152 0.82706 0.41817 0.0
H1541 H 0.15309 0.67347 0.34119 0.0
H1542 H 0.24175 0.15613 0.31891 0.0
H1543 H 0.24184 0.13104 0.34358 0.0
H1544 H 0.26612 0.16124 0.40077 0.0
H1545 H 0.26633 0.18633 0.37598 0.0
H1546 H 0.28034 0.13109 0.40031 0.0
H1547 H 0.22176 0.1498 0.39711 0.0
H1548 H 0.19382 0.15827 0.37838 0.0
H1549 H 0.18863 0.10836 0.34428 0.0
H1550 H 0.21666 0.09967 0.36257 0.0
H1551 H 0.26286 0.07269 0.49002 0.0
H1552 H 0.26294 0.09789 0.46515 0.0
H1553 H 0.24453 0.06612 0.40583 0.0
H1554 H 0.2446 0.04091 0.43072 0.0
H1555 H 0.22727 0.09693 0.40766 0.0
H1556 H 0.28613 0.07841 0.4123 0.0
H1557 H 0.31358 0.07025 0.43266 0.0
H1558 H 0.31772 0.12055 0.4658 0.0
H1559 H 0.29012 0.12892 0.44595 0.0
C1560 C 0.247 0.15751 0.33679 0.0
C1561 C 0.25395 0.17338 0.3454 0.0
C1562 C 0.24702 0.14309 0.35097 0.0
C1563 C 0.25372 0.14416 0.37434 0.0
C1564 C 0.26085 0.15994 0.38288 0.0
C1565 C 0.26098 0.17433 0.36863 0.0
C1566 C 0.25338 0.12886 0.38977 0.0
C1567 C 0.26864 0.12381 0.40211 0.0
C1568 C 0.23827 0.11898 0.392 0.0
C1569 C 0.22139 0.12415 0.38103 0.0
C1570 C 0.21472 0.14068 0.38548 0.0
C1571 C 0.19886 0.14551 0.37497 0.0
C1572 C 0.18948 0.13388 0.3601 0.0
C1573 C 0.19592 0.11737 0.35577 0.0
C1574 C 0.21178 0.11248 0.36622 0.0
C1575 C 0.25889 0.07112 0.47165 0.0
C1576 C 0.25377 0.05484 0.46228 0.0
C1577 C 0.25895 0.08551 0.45742 0.0
C1578 C 0.25386 0.08397 0.43347 0.0
C1579 C 0.24851 0.06772 0.42419 0.0
C1580 C 0.24857 0.05331 0.4384 0.0
C1581 C 0.25418 0.09924 0.41811 0.0
C1582 C 0.23894 0.10425 0.40581 0.0
C1583 C 0.26926 0.10916 0.41609 0.0
C1584 C 0.28597 0.10423 0.4278 0.0
C1585 C 0.29283 0.08769 0.42406 0.0
C1586 C 0.30842 0.08303 0.4355 0.0
C1587 C 0.31737 0.09486 0.45055 0.0
C1588 C 0.31076 0.11139 0.45415 0.0
C1589 C 0.29515 0.1161 0.44281 0.0
H1590 H 0.32944 0.09123 0.45939 0.0
H1591 H 0.1772 0.13764 0.35198 0.0
H1592 H 0.66445 0.73611 0.80177 0.0
H1593 H 0.63975 0.7379 0.82596 0.0
H1594 H 0.66979 0.76792 0.87825 0.0
H1595 H 0.69459 0.76617 0.85411 0.0
H1596 H 0.65137 0.74412 0.89819 0.0
H1597 H 0.64003 0.78706 0.84149 0.0
H1598 H 0.63655 0.79881 0.80206 0.0
H1599 H 0.59493 0.76363 0.78431 0.0
H1600 H 0.59832 0.75149 0.82355 0.0
H1601 H 0.58027 0.77384 0.96065 0.0
H1602 H 0.60528 0.77319 0.93681 0.0
H1603 H 0.57809 0.73921 0.88634 0.0
H1604 H 0.55296 0.73994 0.90998 0.0
H1605 H 0.59519 0.76585 0.86595 0.0
H1606 H 0.60727 0.72285 0.92336 0.0
H1607 H 0.61081 0.71201 0.9633 0.0
H1608 H 0.65125 0.74869 0.98024 0.0
H1609 H 0.64777 0.75993 0.94047 0.0
C1610 C 0.66577 0.7432 0.81835 0.0
C1611 C 0.68146 0.75108 0.82596 0.0
C1612 C 0.65164 0.7442 0.83216 0.0
C1613 C 0.65284 0.75325 0.85378 0.0
C1614 C 0.66857 0.76087 0.86163 0.0
C1615 C 0.68274 0.75982 0.84785 0.0
C1616 C 0.63767 0.75472 0.86818 0.0
C1617 C 0.63916 0.7491 0.89124 0.0
C1618 C 0.62165 0.76097 0.859 0.0
C1619 C 0.61954 0.76825 0.83539 0.0
C1620 C 0.63022 0.78173 0.82912 0.0
C1621 C 0.62825 0.78848 0.80681 0.0
C1622 C 0.61555 0.78194 0.79067 0.0
C1623 C 0.60477 0.76866 0.79682 0.0
C1624 C 0.6067 0.76185 0.8191 0.0
C1625 C 0.57957 0.76636 0.94437 0.0
C1626 C 0.56467 0.75691 0.9372 0.0
C1627 C 0.5939 0.7659 0.93086 0.0
C1628 C 0.59357 0.75604 0.90992 0.0
C1629 C 0.57861 0.74687 0.90248 0.0
C1630 C 0.56432 0.7472 0.91607 0.0
C1631 C 0.60889 0.75516 0.89584 0.0
C1632 C 0.60742 0.7609 0.87287 0.0
C1633 C 0.62496 0.74916 0.90514 0.0
C1634 C 0.62714 0.74235 0.92901 0.0
C1635 C 0.61682 0.7287 0.93566 0.0
C1636 C 0.61883 0.72247 0.95825 0.0
C1637 C 0.63121 0.72969 0.97432 0.0
C1638 C 0.64164 0.74313 0.96779 0.0
C1639 C 0.63967 0.74943 0.94522 0.0
H1640 H 0.63275 0.72484 0.9918 0.0
H1641 H 0.61404 0.78718 0.77341 0.0
H1642 H 0.27224 0.69391 0.85429 0.0
H1643 H 0.27178 0.66913 0.87937 0.0
H1644 H 0.23324 0.64483 0.83218 0.0
H1645 H 0.233 0.66995 0.80758 0.0
H1646 H 0.22529 0.63991 0.87513 0.0
H1647 H 0.27714 0.63263 0.83487 0.0
H1648 H 0.30519 0.64141 0.82141 0.0
H1649 H 0.32521 0.64806 0.89254 0.0
H1650 H 0.2972 0.63952 0.90643 0.0
H1651 H 0.23333 0.55511 0.91892 0.0
H1652 H 0.23346 0.58036 0.89456 0.0
H1653 H 0.27028 0.60521 0.94373 0.0
H1654 H 0.27007 0.58011 0.96838 0.0
H1655 H 0.2792 0.60989 0.90005 0.0
H1656 H 0.22749 0.61698 0.94028 0.0
H1657 H 0.1994 0.60845 0.95383 0.0
H1658 H 0.17913 0.60225 0.88276 0.0
H1659 H 0.20719 0.61051 0.86876 0.0
C1660 C 0.2635 0.68342 0.84928 0.0
C1661 C 0.25269 0.68409 0.82868 0.0
C1662 C 0.26341 0.66907 0.86358 0.0
C1663 C 0.25268 0.65482 0.85763 0.0
C1664 C 0.24174 0.65552 0.83724 0.0
C1665 C 0.24175 0.66991 0.82298 0.0
C1666 C 0.25274 0.63928 0.87266 0.0
C1667 C 0.23708 0.63323 0.88026 0.0
C1668 C 0.26811 0.63065 0.88 0.0
C1669 C 0.28502 0.63559 0.87169 0.0
C1670 C 0.28749 0.63607 0.84764 0.0
C1671 C 0.30339 0.64099 0.83993 0.0
C1672 C 0.31696 0.64534 0.85611 0.0
C1673 C 0.31468 0.64471 0.88003 0.0
C1674 C 0.2988 0.63981 0.88783 0.0
C1675 C 0.24133 0.56599 0.92479 0.0
C1676 C 0.25165 0.56542 0.94583 0.0
C1677 C 0.24142 0.58048 0.91072 0.0
C1678 C 0.25176 0.5949 0.91729 0.0
C1679 C 0.26221 0.59432 0.93813 0.0
C1680 C 0.26211 0.57984 0.95223 0.0
C1681 C 0.25175 0.6105 0.90242 0.0
C1682 C 0.26742 0.61657 0.89488 0.0
C1683 C 0.23639 0.61913 0.89512 0.0
C1684 C 0.2195 0.61419 0.90347 0.0
C1685 C 0.21708 0.61366 0.92753 0.0
C1686 C 0.20116 0.6089 0.9353 0.0
C1687 C 0.1875 0.60477 0.91916 0.0
C1688 C 0.18973 0.60543 0.89523 0.0
C1689 C 0.20564 0.61016 0.88737 0.0
H1690 H 0.17518 0.60109 0.92521 0.0
H1691 H 0.32925 0.64917 0.8501 0.0
H1692 H 0.33676 0.23891 0.82476 0.0
H1693 H 0.36334 0.23624 0.84943 0.0
H1694 H 0.34656 0.27736 0.89507 0.0
H1695 H 0.32038 0.28061 0.86948 0.0
H1696 H 0.37847 0.28139 0.89063 0.0
H1697 H 0.34486 0.23302 0.90872 0.0
H1698 H 0.32712 0.20691 0.90124 0.0
H1699 H 0.36942 0.1811 0.87077 0.0
H1700 H 0.38735 0.20716 0.87776 0.0
H1701 H 0.43708 0.2593 0.98629 0.0
H1702 H 0.40981 0.2609 0.96257 0.0
H1703 H 0.43382 0.23692 0.90413 0.0
H1704 H 0.4613 0.23591 0.92758 0.0
H1705 H 0.39816 0.22396 0.91686 0.0
H1706 H 0.43106 0.27496 0.89976 0.0
H1707 H 0.44788 0.30093 0.91208 0.0
H1708 H 0.40467 0.32166 0.94643 0.0
H1709 H 0.3877 0.29563 0.93468 0.0
C1710 C 0.33887 0.24738 0.84004 0.0
C1711 C 0.32667 0.25991 0.84543 0.0
C1712 C 0.35395 0.24578 0.85423 0.0
C1713 C 0.35682 0.25633 0.87446 0.0
C1714 C 0.34464 0.26903 0.87963 0.0
C1715 C 0.32971 0.27088 0.86511 0.0
C1716 C 0.37259 0.25421 0.89003 0.0
C1717 C 0.38259 0.26883 0.89656 0.0
C1718 C 0.37813 0.23783 0.89779 0.0
C1719 C 0.3674 0.22211 0.89357 0.0
C1720 C 0.35034 0.22182 0.90026 0.0
C1721 C 0.34026 0.20702 0.89614 0.0
C1722 C 0.34713 0.19237 0.88548 0.0
C1723 C 0.36411 0.19247 0.87899 0.0
C1724 C 0.37425 0.20725 0.88305 0.0
C1725 C 0.43643 0.25427 0.96843 0.0
C1726 C 0.45111 0.24737 0.95868 0.0
C1727 C 0.42093 0.25517 0.95498 0.0
C1728 C 0.4199 0.24898 0.93171 0.0
C1729 C 0.43443 0.24163 0.92214 0.0
C1730 C 0.45003 0.24104 0.93547 0.0
C1731 C 0.40387 0.25104 0.91702 0.0
C1732 C 0.39389 0.23644 0.9108 0.0
C1733 C 0.39813 0.26745 0.91004 0.0
C1734 C 0.40817 0.28328 0.91655 0.0
C1735 C 0.42519 0.285 0.9101 0.0
C1736 C 0.43475 0.29973 0.91695 0.0
C1737 C 0.42736 0.31292 0.93008 0.0
C1738 C 0.41038 0.31142 0.93629 0.0
C1739 C 0.40079 0.29669 0.92953 0.0
H1740 H 0.43479 0.32431 0.93539 0.0
H1741 H 0.3393 0.18092 0.88231 0.0
H1742 H 0.73644 0.34477 0.81482 0.0
H1743 H 0.73762 0.3707 0.84009 0.0
H1744 H 0.76531 0.34281 0.8942 0.0
H1745 H 0.7645 0.31686 0.86888 0.0
H1746 H 0.74008 0.36272 0.91193 0.0
H1747 H 0.78614 0.37076 0.86145 0.0
H1748 H 0.79932 0.37241 0.8236 0.0
H1749 H 0.76558 0.41401 0.80432 0.0
H1750 H 0.75203 0.41246 0.84194 0.0
H1751 H 0.7658 0.43531 0.98438 0.0
H1752 H 0.76572 0.40913 0.95926 0.0
H1753 H 0.74187 0.43736 0.90232 0.0
H1754 H 0.74254 0.46364 0.9273 0.0
H1755 H 0.76537 0.41702 0.88612 0.0
H1756 H 0.71901 0.40915 0.93579 0.0
H1757 H 0.70536 0.40775 0.97332 0.0
H1758 H 0.73867 0.36607 0.99365 0.0
H1759 H 0.7527 0.36739 0.95636 0.0
C1760 C 0.74297 0.34413 0.83198 0.0
C1761 C 0.75046 0.32861 0.83963 0.0
C1762 C 0.74358 0.35901 0.84649 0.0
C1763 C 0.75171 0.35882 0.86904 0.0
C1764 C 0.75893 0.34332 0.87692 0.0
C1765 C 0.75839 0.32843 0.86239 0.0
C1766 C 0.75268 0.37479 0.88435 0.0
C1767 C 0.74582 0.37453 0.90641 0.0
C1768 C 0.75978 0.39037 0.877 0.0
C1769 C 0.76796 0.39138 0.85442 0.0
C1770 C 0.78144 0.38018 0.84906 0.0
C1771 C 0.789 0.38111 0.82767 0.0
C1772 C 0.78326 0.39328 0.81154 0.0
C1773 C 0.77 0.40458 0.81682 0.0
C1774 C 0.76239 0.40369 0.83818 0.0
C1775 C 0.76063 0.43587 0.96646 0.0
C1776 C 0.75411 0.45143 0.95777 0.0
C1777 C 0.76046 0.4209 0.95214 0.0
C1778 C 0.75351 0.42109 0.9289 0.0
C1779 C 0.74726 0.43677 0.92014 0.0
C1780 C 0.74757 0.45177 0.93441 0.0
C1781 C 0.75273 0.40501 0.91375 0.0
C1782 C 0.75962 0.40523 0.89169 0.0
C1783 C 0.74555 0.38943 0.92104 0.0
C1784 C 0.73702 0.38848 0.94337 0.0
C1785 C 0.7235 0.39976 0.94833 0.0
C1786 C 0.71569 0.39897 0.96955 0.0
C1787 C 0.72117 0.38685 0.98589 0.0
C1788 C 0.73445 0.37546 0.98099 0.0
C1789 C 0.74233 0.37622 0.95981 0.0
H1790 H 0.71511 0.38627 0.00231 0.0
H1791 H 0.78913 0.39398 0.79499 0.0
H1792 H 0.68665 0.24583 0.15888 0.0
H1793 H 0.65973 0.24535 0.13456 0.0
H1794 H 0.63224 0.26288 0.1938 0.0
H1795 H 0.65907 0.26302 0.21837 0.0
H1796 H 0.61565 0.23635 0.16915 0.0
H1797 H 0.64125 0.29061 0.15286 0.0
H1798 H 0.66433 0.30973 0.14139 0.0
H1799 H 0.66434 0.28339 0.07447 0.0
H1800 H 0.64142 0.26394 0.08567 0.0
H1801 H 0.53786 0.26003 0.10722 0.0
H1802 H 0.56474 0.26071 0.13201 0.0
H1803 H 0.59285 0.24454 0.07263 0.0
H1804 H 0.56598 0.24412 0.04787 0.0
H1805 H 0.60912 0.27049 0.09747 0.0
H1806 H 0.58372 0.21629 0.11327 0.0
H1807 H 0.56071 0.19694 0.12431 0.0
H1808 H 0.56053 0.22258 0.1917 0.0
H1809 H 0.58336 0.2423 0.1809 0.0
C1810 C 0.67485 0.24946 0.16675 0.0
C1811 C 0.67497 0.2545 0.19051 0.0
C1812 C 0.65951 0.24931 0.15281 0.0
C1813 C 0.64404 0.25424 0.16235 0.0
C1814 C 0.64407 0.25908 0.18611 0.0
C1815 C 0.65941 0.25929 0.20005 0.0
C1816 C 0.6278 0.25432 0.14752 0.0
C1817 C 0.61412 0.24399 0.15365 0.0
C1818 C 0.62601 0.26398 0.12701 0.0
C1819 C 0.63973 0.27571 0.12019 0.0
C1820 C 0.64627 0.2888 0.13577 0.0
C1821 C 0.65931 0.29972 0.1293 0.0
C1822 C 0.66583 0.29775 0.10724 0.0
C1823 C 0.65929 0.28489 0.09157 0.0
C1824 C 0.64627 0.27392 0.09795 0.0
C1825 C 0.54984 0.25668 0.09961 0.0
C1826 C 0.55006 0.25205 0.07583 0.0
C1827 C 0.56512 0.257 0.11369 0.0
C1828 C 0.58076 0.25253 0.10417 0.0
C1829 C 0.58093 0.24804 0.08029 0.0
C1830 C 0.56566 0.24774 0.06623 0.0
C1831 C 0.59695 0.25253 0.1191 0.0
C1832 C 0.61063 0.26286 0.11298 0.0
C1833 C 0.59877 0.24282 0.13957 0.0
C1834 C 0.58513 0.23089 0.14619 0.0
C1835 C 0.57868 0.2179 0.13038 0.0
C1836 C 0.56568 0.20685 0.1366 0.0
C1837 C 0.55913 0.20855 0.15868 0.0
C1838 C 0.5656 0.22129 0.17459 0.0
C1839 C 0.57857 0.23241 0.16843 0.0
H1840 H 0.54908 0.19998 0.16347 0.0
H1841 H 0.67592 0.30621 0.10227 0.0
H1842 H 0.75659 0.69226 0.15181 0.0
H1843 H 0.75727 0.66624 0.12662 0.0
H1844 H 0.74196 0.63566 0.18326 0.0
H1845 H 0.74134 0.66165 0.20859 0.0
H1846 H 0.7688 0.62074 0.16008 0.0
H1847 H 0.71322 0.64464 0.14032 0.0
H1848 H 0.69275 0.66731 0.12803 0.0
H1849 H 0.71703 0.67116 0.06324 0.0
H1850 H 0.73783 0.64868 0.0753 0.0
H1851 H 0.74634 0.54362 0.09461 0.0
H1852 H 0.74575 0.56976 0.11983 0.0
H1853 H 0.75822 0.60049 0.06182 0.0
H1854 H 0.75872 0.57428 0.03664 0.0
H1855 H 0.733 0.61548 0.08562 0.0
H1856 H 0.78837 0.59172 0.10466 0.0
H1857 H 0.80917 0.56923 0.1165 0.0
H1858 H 0.786 0.56545 0.18213 0.0
H1859 H 0.76485 0.58773 0.17051 0.0
C1860 C 0.75343 0.67999 0.15895 0.0
C1861 C 0.74887 0.67908 0.18224 0.0
C1862 C 0.75372 0.66512 0.14447 0.0
C1863 C 0.74956 0.64895 0.15296 0.0
C1864 C 0.7452 0.64797 0.17627 0.0
C1865 C 0.74472 0.66287 0.19069 0.0
C1866 C 0.74979 0.6331 0.13752 0.0
C1867 C 0.76079 0.6195 0.14397 0.0
C1868 C 0.7397 0.63161 0.11614 0.0
C1869 C 0.7272 0.64511 0.10883 0.0
C1870 C 0.7143 0.65043 0.12354 0.0
C1871 C 0.70261 0.66322 0.1166 0.0
C1872 C 0.70362 0.67071 0.0949 0.0
C1873 C 0.71629 0.66538 0.08006 0.0
C1874 C 0.72802 0.6526 0.08694 0.0
C1875 C 0.74898 0.55598 0.08736 0.0
C1876 C 0.75263 0.55702 0.0638 0.0
C1877 C 0.74869 0.5709 0.10174 0.0
C1878 C 0.75209 0.58716 0.09283 0.0
C1879 C 0.75557 0.58816 0.06914 0.0
C1880 C 0.75591 0.57322 0.05479 0.0
C1881 C 0.75198 0.60307 0.1082 0.0
C1882 C 0.74101 0.6167 0.10173 0.0
C1883 C 0.76218 0.60463 0.1295 0.0
C1884 C 0.77491 0.59127 0.13661 0.0
C1885 C 0.78761 0.58599 0.12154 0.0
C1886 C 0.79948 0.57329 0.12822 0.0
C1887 C 0.79888 0.56588 0.15003 0.0
C1888 C 0.78643 0.57118 0.16522 0.0
C1889 C 0.7745 0.58385 0.1586 0.0
H1890 H 0.80808 0.55606 0.15518 0.0
H1891 H 0.69456 0.6806 0.08955 0.0
H1892 H 0.33629 0.73541 0.19578 0.0
H1893 H 0.36166 0.73613 0.17299 0.0
H1894 H 0.33409 0.7668 0.12168 0.0
H1895 H 0.30834 0.76534 0.14371 0.0
H1896 H 0.35219 0.74337 0.10053 0.0
H1897 H 0.36404 0.78465 0.16318 0.0
H1898 H 0.36717 0.79531 0.20416 0.0
H1899 H 0.40681 0.75806 0.21874 0.0
H1900 H 0.40374 0.74702 0.17791 0.0
H1901 H 0.42503 0.77273 0.04457 0.0
H1902 H 0.39959 0.77177 0.06739 0.0
H1903 H 0.42557 0.73676 0.11459 0.0
H1904 H 0.45123 0.73793 0.09209 0.0
H1905 H 0.40845 0.76249 0.13771 0.0
H1906 H 0.39625 0.72163 0.07397 0.0
H1907 H 0.39321 0.71215 0.03251 0.0
H1908 H 0.35412 0.75023 0.01954 0.0
H1909 H 0.35709 0.76011 0.06088 0.0
C1910 C 0.3355 0.74211 0.17948 0.0
C1911 C 0.32022 0.75035 0.17164 0.0
C1912 C 0.35012 0.7427 0.16661 0.0
C1913 C 0.3499 0.75178 0.1458 0.0
C1914 C 0.33462 0.7598 0.13774 0.0
C1915 C 0.31994 0.75909 0.1505 0.0
C1916 C 0.36557 0.75282 0.13238 0.0
C1917 C 0.36442 0.74778 0.10861 0.0
C1918 C 0.38165 0.75827 0.14297 0.0
C1919 C 0.38354 0.7649 0.16754 0.0
C1920 C 0.37333 0.77865 0.17517 0.0
C1921 C 0.37511 0.78477 0.19836 0.0
C1922 C 0.38715 0.77734 0.21406 0.0
C1923 C 0.39747 0.76379 0.20657 0.0
C1924 C 0.39573 0.7576 0.1834 0.0
C1925 C 0.4254 0.76496 0.05993 0.0
C1926 C 0.44014 0.75539 0.06651 0.0
C1927 C 0.4108 0.76431 0.07284 0.0
C1928 C 0.41064 0.75406 0.09254 0.0
C1929 C 0.42542 0.74471 0.09939 0.0
C1930 C 0.44001 0.74529 0.08643 0.0
C1931 C 0.39502 0.75304 0.10596 0.0
C1932 C 0.39619 0.75809 0.12969 0.0
C1933 C 0.37894 0.74776 0.09529 0.0
C1934 C 0.37701 0.74172 0.07048 0.0
C1935 C 0.38709 0.72807 0.06224 0.0
C1936 C 0.38537 0.72261 0.03877 0.0
C1937 C 0.37351 0.73061 0.02338 0.0
C1938 C 0.36331 0.74406 0.03147 0.0
C1939 C 0.365 0.74958 0.05493 0.0
H1940 H 0.3722 0.72637 0.00521 0.0
H1941 H 0.38851 0.7821 0.23201 0.0
H1942 H 0.23965 0.30776 0.1665 0.0
H1943 H 0.23905 0.33277 0.14158 0.0
H1944 H 0.26661 0.36264 0.19636 0.0
H1945 H 0.2669 0.33778 0.22161 0.0
H1946 H 0.24081 0.38133 0.17642 0.0
H1947 H 0.2868 0.34679 0.14872 0.0
H1948 H 0.30035 0.32035 0.13366 0.0
H1949 H 0.26472 0.31942 0.07347 0.0
H1950 H 0.25079 0.34574 0.08834 0.0
H1951 H 0.26339 0.45156 0.10705 0.0
H1952 H 0.26373 0.42688 0.13251 0.0
H1953 H 0.2388 0.39572 0.07682 0.0
H1954 H 0.23848 0.42032 0.05124 0.0
H1955 H 0.26338 0.37766 0.09748 0.0
H1956 H 0.21717 0.41189 0.12494 0.0
H1957 H 0.20323 0.43815 0.1399 0.0
H1958 H 0.23866 0.43951 0.20031 0.0
H1959 H 0.25296 0.41338 0.18554 0.0
C1960 C 0.24548 0.31967 0.17337 0.0
C1961 C 0.25337 0.32063 0.19616 0.0
C1962 C 0.24527 0.33397 0.15897 0.0
C1963 C 0.25295 0.34965 0.16689 0.0
C1964 C 0.26063 0.35073 0.18972 0.0
C1965 C 0.26092 0.33641 0.20411 0.0
C1966 C 0.25294 0.36489 0.15143 0.0
C1967 C 0.24596 0.38057 0.15929 0.0
C1968 C 0.25927 0.36393 0.12878 0.0
C1969 C 0.26765 0.34814 0.11976 0.0
C1970 C 0.28177 0.34087 0.13236 0.0
C1971 C 0.28953 0.32592 0.12384 0.0
C1972 C 0.28337 0.31818 0.10265 0.0
C1973 C 0.26946 0.32541 0.0899 0.0
C1974 C 0.26164 0.34035 0.09835 0.0
C1975 C 0.2578 0.43952 0.10024 0.0
C1976 C 0.25087 0.43806 0.07699 0.0
C1977 C 0.25801 0.42535 0.11489 0.0
C1978 C 0.2511 0.40934 0.10682 0.0
C1979 C 0.24426 0.40783 0.08358 0.0
C1980 C 0.24412 0.42197 0.0689 0.0
C1981 C 0.2512 0.39414 0.12242 0.0
C1982 C 0.2582 0.37845 0.1146 0.0
C1983 C 0.24484 0.39508 0.14507 0.0
C1984 C 0.23624 0.41077 0.15402 0.0
C1985 C 0.22207 0.41786 0.14133 0.0
C1986 C 0.21409 0.43271 0.14978 0.0
C1987 C 0.22008 0.44052 0.17101 0.0
C1988 C 0.23405 0.43347 0.18385 0.0
C1989 C 0.24209 0.41863 0.17546 0.0
H1990 H 0.21389 0.45201 0.17753 0.0
H1991 H 0.28939 0.3066 0.09608 0.0
H1992 H 0.31474 0.23186 0.17266 0.0
H1993 H 0.33928 0.23223 0.1481 0.0
H1994 H 0.36591 0.26749 0.19743 0.0
H1995 H 0.34124 0.26747 0.22187 0.0
H1996 H 0.36831 0.27712 0.15219 0.0
H1997 H 0.37681 0.22569 0.19594 0.0
H1998 H 0.36853 0.19769 0.21104 0.0
H1999 H 0.36088 0.17687 0.14095 0.0
H2000 H 0.36888 0.20483 0.12541 0.0
H2001 H 0.4511 0.2694 0.10781 0.0
H2002 H 0.42677 0.26945 0.13279 0.0
H2003 H 0.40124 0.23093 0.08716 0.0
H2004 H 0.42563 0.23068 0.06231 0.0
H2005 H 0.39832 0.22306 0.13094 0.0
H2006 H 0.38927 0.274 0.0868 0.0
H2007 H 0.39698 0.30192 0.07095 0.0
H2008 H 0.40489 0.32362 0.14053 0.0
H2009 H 0.39745 0.29575 0.15682 0.0
C2010 C 0.32577 0.2398 0.1782 0.0
C2011 C 0.32606 0.24961 0.19925 0.0
C2012 C 0.33984 0.23989 0.16424 0.0
C2013 C 0.3545 0.24976 0.17105 0.0
C2014 C 0.35475 0.25974 0.19189 0.0
C2015 C 0.34071 0.2596 0.20592 0.0
C2016 C 0.36954 0.24969 0.15641 0.0
C2017 C 0.37503 0.26534 0.14779 0.0
C2018 C 0.37802 0.23425 0.1502 0.0
C2019 C 0.37329 0.2174 0.15951 0.0
C2020 C 0.37323 0.21518 0.18374 0.0
C2021 C 0.36861 0.19931 0.19238 0.0
C2022 C 0.36414 0.18553 0.17696 0.0
C2023 C 0.36432 0.18757 0.15287 0.0
C2024 C 0.36892 0.20342 0.14414 0.0
C2025 C 0.44024 0.26103 0.10303 0.0
C2026 C 0.44026 0.25006 0.08307 0.0
C2027 C 0.42634 0.26107 0.11731 0.0
C2028 C 0.41205 0.25035 0.11171 0.0
C2029 C 0.41211 0.2393 0.09187 0.0
C2030 C 0.42607 0.23915 0.0777 0.0
C2031 C 0.39711 0.2505 0.12663 0.0
C2032 C 0.39163 0.23486 0.13532 0.0
C2033 C 0.38856 0.26594 0.13277 0.0
C2034 C 0.39297 0.28274 0.12303 0.0
C2035 C 0.39278 0.28469 0.09872 0.0
C2036 C 0.39708 0.30051 0.08966 0.0
C2037 C 0.40146 0.31452 0.10472 0.0
C2038 C 0.40151 0.31275 0.12889 0.0
C2039 C 0.39724 0.29695 0.13804 0.0
H2040 H 0.40478 0.32677 0.09767 0.0
H2041 H 0.36057 0.17325 0.18368 0.0
H2042 H 0.76176 0.32051 0.17128 0.0
H2043 H 0.76253 0.3471 0.14972 0.0
H2044 H 0.72916 0.37161 0.19799 0.0
H2045 H 0.72802 0.34486 0.21941 0.0
H2046 H 0.72021 0.37842 0.15145 0.0
H2047 H 0.77066 0.37992 0.20417 0.0
H2048 H 0.79743 0.36831 0.2227 0.0
H2049 H 0.81962 0.36496 0.15606 0.0
H2050 H 0.79288 0.37631 0.13706 0.0
H2051 H 0.73476 0.46259 0.11183 0.0
H2052 H 0.73316 0.43811 0.13753 0.0
H2053 H 0.76952 0.41028 0.09693 0.0
H2054 H 0.77125 0.43466 0.07137 0.0
H2055 H 0.77661 0.40632 0.14238 0.0
H2056 H 0.72659 0.40244 0.08899 0.0
H2057 H 0.69991 0.41294 0.06888 0.0
H2058 H 0.67703 0.41962 0.13473 0.0
H2059 H 0.70368 0.40938 0.15527 0.0
C2060 C 0.75438 0.33148 0.1771 0.0
C2061 C 0.74486 0.33067 0.19704 0.0
C2062 C 0.75496 0.34668 0.16491 0.0
C2063 C 0.74609 0.36131 0.17252 0.0
C2064 C 0.73616 0.36043 0.19199 0.0
C2065 C 0.73561 0.34522 0.20425 0.0
C2066 C 0.74745 0.37761 0.16027 0.0
C2067 C 0.73248 0.38472 0.14977 0.0
C2068 C 0.76355 0.38551 0.15774 0.0
C2069 C 0.77971 0.37884 0.16917 0.0
C2070 C 0.78121 0.37659 0.19344 0.0
C2071 C 0.79638 0.37008 0.20403 0.0
C2072 C 0.81021 0.36587 0.19056 0.0
C2073 C 0.8089 0.36821 0.16647 0.0
C2074 C 0.79374 0.37471 0.15579 0.0
C2075 C 0.74243 0.45125 0.10848 0.0
C2076 C 0.75311 0.45048 0.08964 0.0
C2077 C 0.74151 0.43731 0.12312 0.0
C2078 C 0.75108 0.42235 0.11892 0.0
C2079 C 0.76207 0.42174 0.10048 0.0
C2080 C 0.76308 0.43568 0.08595 0.0
C2081 C 0.74938 0.40708 0.1333 0.0
C2082 C 0.7643 0.40014 0.14422 0.0
C2083 C 0.73326 0.39924 0.136 0.0
C2084 C 0.7172 0.40533 0.12368 0.0
C2085 C 0.71592 0.40628 0.09919 0.0
C2086 C 0.70079 0.41216 0.08772 0.0
C2087 C 0.6868 0.417 0.10052 0.0
C2088 C 0.68789 0.41591 0.12483 0.0
C2089 C 0.703 0.41005 0.1364 0.0
H2090 H 0.6751 0.42154 0.09161 0.0
H2091 H 0.82194 0.36082 0.19879 0.0
H2092 H 0.68344 0.76542 0.15742 0.0
H2093 H 0.65703 0.76677 0.13242 0.0
H2094 H 0.63009 0.73873 0.18269 0.0
H2095 H 0.6567 0.73659 0.20733 0.0
H2096 H 0.62095 0.72725 0.13974 0.0
H2097 H 0.62595 0.78267 0.1785 0.0
H2098 H 0.64022 0.80992 0.19165 0.0
H2099 H 0.64484 0.8235 0.12034 0.0
H2100 H 0.63081 0.7962 0.10675 0.0
H2101 H 0.53679 0.74764 0.09384 0.0
H2102 H 0.5627 0.74706 0.12051 0.0
H2103 H 0.5922 0.76909 0.0676 0.0
H2104 H 0.56632 0.7695 0.04089 0.0
H2105 H 0.59942 0.78383 0.11263 0.0
H2106 H 0.59434 0.72784 0.07436 0.0
H2107 H 0.57899 0.70104 0.06189 0.0
H2108 H 0.57369 0.68885 0.13357 0.0
H2109 H 0.58873 0.71579 0.14647 0.0
C2110 C 0.67198 0.7593 0.16304 0.0
C2111 C 0.6722 0.75093 0.18444 0.0
C2112 C 0.65682 0.76028 0.14884 0.0
C2113 C 0.64151 0.75311 0.15587 0.0
C2114 C 0.64173 0.74445 0.17698 0.0
C2115 C 0.65692 0.74337 0.19114 0.0
C2116 C 0.62526 0.7547 0.14119 0.0
C2117 C 0.61613 0.73965 0.13411 0.0
C2118 C 0.61909 0.77085 0.1335 0.0
C2119 C 0.62747 0.78731 0.14161 0.0
C2120 C 0.63013 0.7914 0.16562 0.0
C2121 C 0.63815 0.80687 0.17315 0.0
C2122 C 0.64347 0.81841 0.15684 0.0
C2123 C 0.64073 0.81453 0.13296 0.0
C2124 C 0.63273 0.79908 0.12533 0.0
C2125 C 0.54883 0.75241 0.08808 0.0
C2126 C 0.54976 0.75847 0.06542 0.0
C2127 C 0.56356 0.75208 0.10322 0.0
C2128 C 0.57936 0.75789 0.0959 0.0
C2129 C 0.58012 0.76455 0.07353 0.0
C2130 C 0.56542 0.76475 0.05833 0.0
C2131 C 0.59523 0.75642 0.11123 0.0
C2132 C 0.60426 0.77146 0.11838 0.0
C2133 C 0.60125 0.74029 0.1191 0.0
C2134 C 0.59251 0.72392 0.11138 0.0
C2135 C 0.58979 0.71951 0.08747 0.0
C2136 C 0.58116 0.70429 0.08032 0.0
C2137 C 0.57534 0.69327 0.09693 0.0
C2138 C 0.57819 0.69742 0.12072 0.0
C2139 C 0.58677 0.71266 0.12797 0.0
H2140 H 0.56865 0.68149 0.09136 0.0
H2141 H 0.64968 0.83038 0.16271 0.0
H2142 H 0.26136 0.68633 0.14213 0.0
H2143 H 0.25867 0.66062 0.1164 0.0
H2144 H 0.22562 0.63719 0.16401 0.0
H2145 H 0.2277 0.66299 0.18943 0.0
H2146 H 0.25326 0.61623 0.15035 0.0
H2147 H 0.208 0.65161 0.116 0.0
H2148 H 0.19614 0.67803 0.09854 0.0
H2149 H 0.23039 0.6727 0.04297 0.0
H2150 H 0.24264 0.64637 0.0603 0.0
H2151 H 0.22628 0.54273 0.08575 0.0
H2152 H 0.22483 0.57053 0.10685 0.0
H2153 H 0.25181 0.59455 0.05292 0.0
H2154 H 0.25254 0.56679 0.03128 0.0
H2155 H 0.22769 0.61581 0.06891 0.0
H2156 H 0.27335 0.5815 0.10171 0.0
H2157 H 0.28669 0.55548 0.11838 0.0
H2158 H 0.25421 0.55942 0.17608 0.0
H2159 H 0.24047 0.58533 0.15955 0.0
C2160 C 0.25331 0.67582 0.14697 0.0
C2161 C 0.24478 0.6767 0.16788 0.0
C2162 C 0.25185 0.66114 0.13229 0.0
C2163 C 0.24192 0.64711 0.13836 0.0
C2164 C 0.23339 0.64792 0.15914 0.0
C2165 C 0.2347 0.66262 0.1737 0.0
C2166 C 0.2408 0.63132 0.1234 0.0
C2167 C 0.24746 0.61605 0.13265 0.0
C2168 C 0.23378 0.63135 0.10008 0.0
C2169 C 0.22636 0.64712 0.08959 0.0
C2170 C 0.21311 0.65615 0.10017 0.0
C2171 C 0.20629 0.67109 0.09028 0.0
C2172 C 0.21254 0.67706 0.06969 0.0
C2173 C 0.22558 0.66808 0.05893 0.0
C2174 C 0.23245 0.65314 0.06877 0.0
C2175 C 0.23135 0.5541 0.07809 0.0
C2176 C 0.23921 0.55287 0.05679 0.0
C2177 C 0.23072 0.56988 0.09023 0.0
C2178 C 0.23843 0.58452 0.08157 0.0
C2179 C 0.24576 0.58341 0.05985 0.0
C2180 C 0.2462 0.56763 0.04756 0.0
C2181 C 0.23991 0.60061 0.09599 0.0
C2182 C 0.23344 0.61595 0.08662 0.0
C2183 C 0.24738 0.60074 0.11912 0.0
C2184 C 0.25577 0.58528 0.12928 0.0
C2185 C 0.26897 0.57676 0.11787 0.0
C2186 C 0.27661 0.56203 0.1273 0.0
C2187 C 0.27127 0.55578 0.14825 0.0
C2188 C 0.25831 0.56427 0.15984 0.0
C2189 C 0.2506 0.57898 0.15046 0.0
H2190 H 0.2772 0.54437 0.15552 0.0
H2191 H 0.20725 0.68863 0.06206 0.0
H2192 H 0.34285 0.74606 0.80489 0.0
H2193 H 0.36941 0.74575 0.82983 0.0
H2194 H 0.3419 0.7649 0.88825 0.0
H2195 H 0.31529 0.76546 0.86323 0.0
H2196 H 0.37149 0.78134 0.88685 0.0
H2197 H 0.35399 0.72224 0.88326 0.0
H2198 H 0.34463 0.69461 0.86424 0.0
H2199 H 0.39172 0.69143 0.82927 0.0
H2200 H 0.40128 0.71916 0.84785 0.0
H2201 H 0.43806 0.76323 0.97323 0.0
H2202 H 0.41057 0.76297 0.94981 0.0
H2203 H 0.43694 0.74731 0.88867 0.0
H2204 H 0.46439 0.74742 0.91224 0.0
H2205 H 0.40751 0.72877 0.89265 0.0
H2206 H 0.42461 0.78848 0.89688 0.0
H2207 H 0.43379 0.81562 0.9174 0.0
H2208 H 0.3868 0.81714 0.95272 0.0
H2209 H 0.37747 0.78983 0.93272 0.0
C2210 C 0.34244 0.75007 0.8231 0.0
C2211 C 0.32699 0.75568 0.83217 0.0
C2212 C 0.35762 0.74988 0.83734 0.0
C2213 C 0.3576 0.75505 0.86101 0.0
C2214 C 0.34221 0.76083 0.87005 0.0
C2215 C 0.32704 0.76116 0.85575 0.0
C2216 C 0.3737 0.75461 0.87621 0.0
C2217 C 0.37923 0.76977 0.88838 0.0
C2218 C 0.38396 0.73959 0.87792 0.0
C2219 C 0.37829 0.72286 0.8668 0.0
C2220 C 0.3623 0.71571 0.87138 0.0
C2221 C 0.35696 0.70002 0.86071 0.0
C2222 C 0.36755 0.69129 0.84552 0.0
C2223 C 0.38352 0.69821 0.84103 0.0
C2224 C 0.38892 0.71391 0.85165 0.0
C2225 C 0.43786 0.75974 0.95478 0.0
C2226 C 0.45312 0.75533 0.94436 0.0
C2227 C 0.42226 0.75963 0.94144 0.0
C2228 C 0.42176 0.75525 0.91747 0.0
C2229 C 0.43706 0.7507 0.90713 0.0
C2230 C 0.45267 0.75081 0.92049 0.0
C2231 C 0.4053 0.75551 0.90311 0.0
C2232 C 0.39972 0.74031 0.89112 0.0
C2233 C 0.39494 0.77045 0.90172 0.0
C2234 C 0.40041 0.78703 0.91345 0.0
C2235 C 0.41628 0.79454 0.90914 0.0
C2236 C 0.42151 0.80996 0.92067 0.0
C2237 C 0.4109 0.81808 0.93639 0.0
C2238 C 0.39501 0.81083 0.94056 0.0
C2239 C 0.38974 0.79538 0.92912 0.0
H2240 H 0.41497 0.83002 0.9453 0.0
H2241 H 0.3634 0.67915 0.83726 0.0
H2242 H 0.28149 0.33483 0.85462 0.0
H2243 H 0.28277 0.36247 0.87616 0.0
H2244 H 0.25051 0.3853 0.82174 0.0
H2245 H 0.24859 0.35753 0.80038 0.0
H2246 H 0.2801 0.40638 0.84118 0.0
H2247 H 0.23097 0.37463 0.86414 0.0
H2248 H 0.21624 0.34902 0.87763 0.0
H2249 H 0.24924 0.34991 0.94043 0.0
H2250 H 0.26436 0.37538 0.92713 0.0
H2251 H 0.25469 0.47921 0.91226 0.0
H2252 H 0.25694 0.45493 0.88407 0.0
H2253 H 0.27742 0.42314 0.9396 0.0
H2254 H 0.27426 0.44697 0.96769 0.0
H2255 H 0.25257 0.40726 0.91689 0.0
H2256 H 0.30216 0.43837 0.89493 0.0
H2257 H 0.31793 0.46348 0.88187 0.0
H2258 H 0.28572 0.46366 0.81838 0.0
H2259 H 0.2696 0.43867 0.83121 0.0
C2260 C 0.27462 0.3457 0.84722 0.0
C2261 C 0.26476 0.34391 0.82591 0.0
C2262 C 0.27551 0.3615 0.85944 0.0
C2263 C 0.26667 0.37581 0.85051 0.0
C2264 C 0.25749 0.37436 0.82877 0.0
C2265 C 0.25644 0.35849 0.81661 0.0
C2266 C 0.26592 0.39183 0.86488 0.0
C2267 C 0.27393 0.40673 0.85762 0.0
C2268 C 0.25807 0.39205 0.88641 0.0
C2269 C 0.2489 0.37681 0.89452 0.0
C2270 C 0.23518 0.36927 0.88073 0.0
C2271 C 0.22675 0.3548 0.88836 0.0
C2272 C 0.23183 0.34781 0.90985 0.0
C2273 C 0.24533 0.35532 0.92378 0.0
C2274 C 0.25383 0.36978 0.91621 0.0
C2275 C 0.25998 0.46709 0.91817 0.0
C2276 C 0.26453 0.46491 0.94192 0.0
C2277 C 0.26131 0.45328 0.90214 0.0
C2278 C 0.26746 0.43724 0.90971 0.0
C2279 C 0.27263 0.43537 0.93336 0.0
C2280 C 0.271 0.44901 0.94935 0.0
C2281 C 0.26721 0.42191 0.89366 0.0
C2282 C 0.25881 0.40707 0.9005 0.0
C2283 C 0.27486 0.42177 0.8719 0.0
C2284 C 0.28456 0.43677 0.86415 0.0
C2285 C 0.29835 0.44385 0.87827 0.0
C2286 C 0.30737 0.45805 0.87089 0.0
C2287 C 0.3028 0.46519 0.84934 0.0
C2288 C 0.28923 0.45813 0.83509 0.0
C2289 C 0.28016 0.44394 0.8424 0.0
H2290 H 0.3098 0.47618 0.84366 0.0
H2291 H 0.22528 0.33661 0.91573 0.0
H2292 H 0.66178 0.26773 0.8136 0.0
H2293 H 0.63727 0.26723 0.83812 0.0
H2294 H 0.66684 0.23787 0.88891 0.0
H2295 H 0.69162 0.2387 0.86485 0.0
H2296 H 0.63405 0.22453 0.87839 0.0
H2297 H 0.66029 0.27916 0.90017 0.0
H2298 H 0.6722 0.30779 0.89299 0.0
H2299 H 0.62339 0.32345 0.86183 0.0
H2300 H 0.61125 0.29481 0.86853 0.0
H2301 H 0.57818 0.2324 0.97112 0.0
H2302 H 0.60287 0.23298 0.94688 0.0
H2303 H 0.57558 0.26746 0.90016 0.0
H2304 H 0.55093 0.26711 0.92456 0.0
H2305 H 0.60738 0.27814 0.90842 0.0
H2306 H 0.58092 0.22396 0.88602 0.0
H2307 H 0.5687 0.19529 0.89216 0.0
H2308 H 0.61727 0.17864 0.92301 0.0
H2309 H 0.62972 0.20731 0.91735 0.0
C2310 C 0.6632 0.26137 0.83013 0.0
C2311 C 0.67875 0.2533 0.83724 0.0
C2312 C 0.64912 0.26103 0.84407 0.0
C2313 C 0.65027 0.25259 0.86538 0.0
C2314 C 0.66568 0.2444 0.87247 0.0
C2315 C 0.67981 0.24484 0.85863 0.0
C2316 C 0.63535 0.25223 0.88021 0.0
C2317 C 0.62834 0.23623 0.88524 0.0
C2318 C 0.62766 0.26752 0.88859 0.0
C2319 C 0.63491 0.28478 0.88464 0.0
C2320 C 0.65214 0.28866 0.89161 0.0
C2321 C 0.65892 0.3049 0.88766 0.0
C2322 C 0.64857 0.31742 0.87691 0.0
C2323 C 0.6314 0.31373 0.87013 0.0
C2324 C 0.62455 0.2975 0.87402 0.0
C2325 C 0.57738 0.23997 0.95556 0.0
C2326 C 0.56258 0.24966 0.9497 0.0
C2327 C 0.59151 0.2403 0.9417 0.0
C2328 C 0.59102 0.25009 0.92149 0.0
C2329 C 0.57627 0.25982 0.91566 0.0
C2330 C 0.5622 0.25962 0.92963 0.0
C2331 C 0.60599 0.25041 0.90663 0.0
C2332 C 0.61304 0.26641 0.90159 0.0
C2333 C 0.61364 0.23511 0.89809 0.0
C2334 C 0.60621 0.21784 0.90146 0.0
C2335 C 0.58896 0.21423 0.89428 0.0
C2336 C 0.582 0.19797 0.89765 0.0
C2337 C 0.59219 0.18517 0.90803 0.0
C2338 C 0.60938 0.18858 0.915 0.0
C2339 C 0.6164 0.20483 0.9117 0.0
H2340 H 0.58677 0.17258 0.91062 0.0
H2341 H 0.65385 0.32998 0.87387 0.0
H2342 H 0.73589 0.65945 0.79034 0.0
H2343 H 0.7358 0.63248 0.81125 0.0
H2344 H 0.76601 0.6565 0.86887 0.0
H2345 H 0.76579 0.68362 0.84845 0.0
H2346 H 0.77846 0.62426 0.85425 0.0
H2347 H 0.72492 0.65112 0.87392 0.0
H2348 H 0.69656 0.66421 0.86483 0.0
H2349 H 0.67936 0.61763 0.82836 0.0
H2350 H 0.70773 0.60434 0.83697 0.0
H2351 H 0.77052 0.57325 0.95096 0.0
H2352 H 0.77003 0.59595 0.92256 0.0
H2353 H 0.73521 0.56571 0.87632 0.0
H2354 H 0.73553 0.54289 0.90498 0.0
H2355 H 0.72479 0.59838 0.87984 0.0
H2356 H 0.77718 0.5702 0.86394 0.0
H2357 H 0.80546 0.55696 0.87303 0.0
H2358 H 0.82499 0.6054 0.90146 0.0
H2359 H 0.79675 0.61888 0.89286 0.0
C2360 C 0.74233 0.65905 0.80759 0.0
C2361 C 0.75084 0.67367 0.81778 0.0
C2362 C 0.74234 0.64363 0.81941 0.0
C2363 C 0.75089 0.6426 0.84154 0.0
C2364 C 0.75945 0.65709 0.85171 0.0
C2365 C 0.75935 0.67253 0.83999 0.0
C2366 C 0.75093 0.62643 0.85428 0.0
C2367 C 0.76677 0.61861 0.85999 0.0
C2368 C 0.73557 0.61885 0.86096 0.0
C2369 C 0.71851 0.62682 0.85584 0.0
C2370 C 0.71514 0.64373 0.86378 0.0
C2371 C 0.69906 0.65117 0.85875 0.0
C2372 C 0.68619 0.64178 0.84596 0.0
C2373 C 0.68936 0.6249 0.83823 0.0
C2374 C 0.70543 0.61741 0.84318 0.0
C2375 C 0.76295 0.57133 0.9346 0.0
C2376 C 0.75318 0.55628 0.93003 0.0
C2377 C 0.76268 0.58429 0.91839 0.0
C2378 C 0.75283 0.58235 0.89718 0.0
C2379 C 0.74296 0.56738 0.89257 0.0
C2380 C 0.74313 0.55441 0.90891 0.0
C2381 C 0.75241 0.59637 0.88037 0.0
C2382 C 0.7365 0.6038 0.87381 0.0
C2383 C 0.76772 0.60355 0.87279 0.0
C2384 C 0.78479 0.59553 0.87786 0.0
C2385 C 0.78747 0.57801 0.87227 0.0
C2386 C 0.8035 0.57046 0.87731 0.0
C2387 C 0.81701 0.58032 0.88784 0.0
C2388 C 0.81452 0.59777 0.8933 0.0
C2389 C 0.7985 0.60538 0.88831 0.0
H2390 H 0.82941 0.57446 0.89174 0.0
H2391 H 0.67374 0.64756 0.84209 0.0
loop_
_geom_bond_atom_site_label_1
_geom_bond_atom_site_label_2
_geom_bond_distance
_geom_bond_site_symmetry_2
_ccdc_geom_bond_type
C0 C1 1.384 . S
C0 C2 1.384 . S
C0 H28 0.931 . S
C1 C0 1.384 . S
C1 C4 1.382 . S
C2 C0 1.384 . S
C2 C3 1.381 . S
C2 H29 0.930 . S
C3 C2 1.381 . S
C3 C5 1.381 . S
C3 C6 1.487 . S
C4 C1 1.382 . S
C4 C5 1.387 . S
C4 H30 0.930 . S
C5 C3 1.381 . S
C5 C4 1.387 . S
C5 H31 0.931 . S
C6 C3 1.487 . S
C6 C13 1.399 . S
C6 N44 1.343 . S
C7 C8 1.384 . S
C7 C9 1.384 . S
C7 H32 0.931 . S
C8 C7 1.384 . S
C8 C11 1.382 . S
C9 C7 1.384 . S
C9 C10 1.381 . S
C9 H33 0.930 . S
C10 C9 1.381 . S
C10 C12 1.381 . S
C10 C13 1.487 . S
C11 C8 1.382 . S
C11 C12 1.387 . S
C11 H34 0.930 . S
C12 C10 1.381 . S
C12 C11 1.387 . S
C12 H35 0.931 . S
C13 C6 1.399 . S
C13 C10 1.487 . S
C13 N45 1.343 . S
C14 C15 1.384 . S
C14 C16 1.384 . S
C14 H36 0.931 . S
C15 C14 1.384 . S
C15 C18 1.382 . S
C16 C14 1.384 . S
C16 C17 1.381 . S
C16 H37 0.930 . S
C17 C16 1.381 . S
C17 C19 1.381 . S
C17 C20 1.487 . S
C18 C15 1.382 . S
C18 C19 1.387 . S
C18 H38 0.930 . S
C19 C17 1.381 . S
C19 C18 1.387 . S
C19 H39 0.931 . S
C20 C17 1.487 . S
C20 C27 1.399 . S
C20 N45 1.343 . S
C21 C22 1.384 . S
C21 C23 1.384 . S
C21 H40 0.931 . S
C22 C21 1.384 . S
C22 C25 1.382 . S
C23 C21 1.384 . S
C23 C24 1.381 . S
C23 H41 0.930 . S
C24 C23 1.381 . S
C24 C26 1.381 . S
C24 C27 1.487 . S
C25 C22 1.382 . S
C25 C26 1.387 . S
C25 H42 0.930 . S
C26 C24 1.381 . S
C26 C25 1.387 . S
C26 H43 0.931 . S
C27 C20 1.399 . S
C27 C24 1.487 . S
C27 N44 1.343 . S
H28 C0 0.931 . S
H29 C2 0.930 . S
H30 C4 0.930 . S
H31 C5 0.931 . S
H32 C7 0.931 . S
H33 C9 0.930 . S
H34 C11 0.930 . S
H35 C12 0.931 . S
H36 C14 0.931 . S
H37 C16 0.930 . S
H38 C18 0.930 . S
H39 C19 0.931 . S
H40 C21 0.931 . S
H41 C23 0.930 . S
H42 C25 0.930 . S
H43 C26 0.931 . S
N44 C6 1.343 . S
N44 C27 1.343 . S
N45 C13 1.343 . S
N45 C20 1.343 . S
C46 C47 1.384 . S
C46 C48 1.384 . S
C46 H74 0.931 . S
C47 C46 1.384 . S
C47 C50 1.382 . S
C48 C46 1.384 . S
C48 C49 1.381 . S
C48 H75 0.930 . S
C49 C48 1.381 . S
C49 C51 1.381 . S
C49 C52 1.487 . S
C50 C47 1.382 . S
C50 C51 1.387 . S
C50 H76 0.930 . S
C51 C49 1.381 . S
C51 C50 1.387 . S
C51 H77 0.931 . S
C52 C49 1.487 . S
C52 C59 1.399 . S
C52 N90 1.343 . S
C53 C54 1.384 . S
C53 C55 1.384 . S
C53 H78 0.931 . S
C54 C53 1.384 . S
C54 C57 1.382 . S
C55 C53 1.384 . S
C55 C56 1.381 . S
C55 H79 0.930 . S
C56 C55 1.381 . S
C56 C58 1.381 . S
C56 C59 1.487 . S
C57 C54 1.382 . S
C57 C58 1.387 . S
C57 H80 0.930 . S
C58 C56 1.381 . S
C58 C57 1.387 . S
C58 H81 0.931 . S
C59 C52 1.399 . S
C59 C56 1.487 . S
C59 N91 1.343 . S
C60 C61 1.384 . S
C60 C62 1.384 . S
C60 H82 0.931 . S
C61 C60 1.384 . S
C61 C64 1.382 . S
C62 C60 1.384 . S
C62 C63 1.381 . S
C62 H83 0.930 . S
C63 C62 1.381 . S
C63 C65 1.381 . S
C63 C66 1.487 . S
C64 C61 1.382 . S
C64 C65 1.387 . S
C64 H84 0.930 . S
C65 C63 1.381 . S
C65 C64 1.387 . S
C65 H85 0.931 . S
C66 C63 1.487 . S
C66 C73 1.399 . S
C66 N91 1.343 . S
C67 C68 1.384 . S
C67 C69 1.384 . S
C67 H86 0.931 . S
C68 C67 1.384 . S
C68 C71 1.382 . S
C69 C67 1.384 . S
C69 C70 1.381 . S
C69 H87 0.930 . S
C70 C69 1.381 . S
C70 C72 1.381 . S
C70 C73 1.487 . S
C71 C68 1.382 . S
C71 C72 1.387 . S
C71 H88 0.930 . S
C72 C70 1.381 . S
C72 C71 1.387 . S
C72 H89 0.931 . S
C73 C66 1.399 . S
C73 C70 1.487 . S
C73 N90 1.343 . S
H74 C46 0.931 . S
H75 C48 0.930 . S
H76 C50 0.930 . S
H77 C51 0.931 . S
H78 C53 0.931 . S
H79 C55 0.930 . S
H80 C57 0.930 . S
H81 C58 0.931 . S
H82 C60 0.931 . S
H83 C62 0.930 . S
H84 C64 0.930 . S
H85 C65 0.931 . S
H86 C67 0.931 . S
H87 C69 0.930 . S
H88 C71 0.930 . S
H89 C72 0.931 . S
N90 C52 1.343 . S
N90 C73 1.343 . S
N91 C59 1.343 . S
N91 C66 1.343 . S
C92 C93 1.384 . S
C92 C94 1.384 . S
C92 H120 0.931 . S
C93 C92 1.384 . S
C93 C96 1.382 . S
C94 C92 1.384 . S
C94 C95 1.381 . S
C94 H121 0.930 . S
C95 C94 1.381 . S
C95 C97 1.381 . S
C95 C98 1.487 . S
C96 C93 1.382 . S
C96 C97 1.387 . S
C96 H122 0.930 . S
C97 C95 1.381 . S
C97 C96 1.387 . S
C97 H123 0.931 . S
C98 C95 1.487 . S
C98 C105 1.399 . S
C98 N136 1.343 . S
C99 C100 1.384 . S
C99 C101 1.384 . S
C99 H124 0.931 . S
C100 C99 1.384 . S
C100 C103 1.382 . S
C101 C99 1.384 . S
C101 C102 1.381 . S
C101 H125 0.930 . S
C102 C101 1.381 . S
C102 C104 1.381 . S
C102 C105 1.487 . S
C103 C100 1.382 . S
C103 C104 1.387 . S
C103 H126 0.930 . S
C104 C102 1.381 . S
C104 C103 1.387 . S
C104 H127 0.931 . S
C105 C98 1.399 . S
C105 C102 1.487 . S
C105 N137 1.343 . S
C106 C107 1.384 . S
C106 C108 1.384 . S
C106 H128 0.931 . S
C107 C106 1.384 . S
C107 C110 1.382 . S
C108 C106 1.384 . S
C108 C109 1.381 . S
C108 H129 0.930 . S
C109 C108 1.381 . S
C109 C111 1.381 . S
C109 C112 1.487 . S
C110 C107 1.382 . S
C110 C111 1.387 . S
C110 H130 0.930 . S
C111 C109 1.381 . S
C111 C110 1.387 . S
C111 H131 0.931 . S
C112 C109 1.487 . S
C112 C119 1.399 . S
C112 N137 1.343 . S
C113 C114 1.384 . S
C113 C115 1.384 . S
C113 H132 0.931 . S
C114 C113 1.384 . S
C114 C117 1.382 . S
C115 C113 1.384 . S
C115 C116 1.381 . S
C115 H133 0.930 . S
C116 C115 1.381 . S
C116 C118 1.381 . S
C116 C119 1.487 . S
C117 C114 1.382 . S
C117 C118 1.387 . S
C117 H134 0.930 . S
C118 C116 1.381 . S
C118 C117 1.387 . S
C118 H135 0.931 . S
C119 C112 1.399 . S
C119 C116 1.487 . S
C119 N136 1.343 . S
H120 C92 0.931 . S
H121 C94 0.930 . S
H122 C96 0.930 . S
H123 C97 0.931 . S
H124 C99 0.931 . S
H125 C101 0.930 . S
H126 C103 0.930 . S
H127 C104 0.931 . S
H128 C106 0.931 . S
H129 C108 0.930 . S
H130 C110 0.930 . S
H131 C111 0.931 . S
H132 C113 0.931 . S
H133 C115 0.930 . S
H134 C117 0.930 . S
H135 C118 0.931 . S
N136 C98 1.343 . S
N136 C119 1.343 . S
N137 C105 1.343 . S
N137 C112 1.343 . S
C138 C139 1.384 . S
C138 C140 1.384 . S
C138 H166 0.931 . S
C139 C138 1.384 . S
C139 C142 1.382 . S
C140 C138 1.384 . S
C140 C141 1.381 . S
C140 H167 0.930 . S
C141 C140 1.381 . S
C141 C143 1.381 . S
C141 C144 1.487 . S
C142 C139 1.382 . S
C142 C143 1.387 . S
C142 H168 0.930 . S
C143 C141 1.381 . S
C143 C142 1.387 . S
C143 H169 0.931 . S
C144 C141 1.487 . S
C144 C151 1.399 . S
C144 N182 1.343 . S
C145 C146 1.384 . S
C145 C147 1.384 . S
C145 H170 0.931 . S
C146 C145 1.384 . S
C146 C149 1.382 . S
C147 C145 1.384 . S
C147 C148 1.381 . S
C147 H171 0.930 . S
C148 C147 1.381 . S
C148 C150 1.381 . S
C148 C151 1.487 . S
C149 C146 1.382 . S
C149 C150 1.387 . S
C149 H172 0.930 . S
C150 C148 1.381 . S
C150 C149 1.387 . S
C150 H173 0.931 . S
C151 C144 1.399 . S
C151 C148 1.487 . S
C151 N183 1.343 . S
C152 C153 1.384 . S
C152 C154 1.384 . S
C152 H174 0.931 . S
C153 C152 1.384 . S
C153 C156 1.382 . S
C154 C152 1.384 . S
C154 C155 1.381 . S
C154 H175 0.930 . S
C155 C154 1.381 . S
C155 C157 1.381 . S
C155 C158 1.487 . S
C156 C153 1.382 . S
C156 C157 1.387 . S
C156 H176 0.930 . S
C157 C155 1.381 . S
C157 C156 1.387 . S
C157 H177 0.931 . S
C158 C155 1.487 . S
C158 C165 1.399 . S
C158 N183 1.343 . S
C159 C160 1.384 . S
C159 C161 1.384 . S
C159 H178 0.931 . S
C160 C159 1.384 . S
C160 C163 1.382 . S
C161 C159 1.384 . S
C161 C162 1.381 . S
C161 H179 0.930 . S
C162 C161 1.381 . S
C162 C164 1.381 . S
C162 C165 1.487 . S
C163 C160 1.382 . S
C163 C164 1.387 . S
C163 H180 0.930 . S
C164 C162 1.381 . S
C164 C163 1.387 . S
C164 H181 0.931 . S
C165 C158 1.399 . S
C165 C162 1.487 . S
C165 N182 1.343 . S
H166 C138 0.931 . S
H167 C140 0.930 . S
H168 C142 0.930 . S
H169 C143 0.931 . S
H170 C145 0.931 . S
H171 C147 0.930 . S
H172 C149 0.930 . S
H173 C150 0.931 . S
H174 C152 0.931 . S
H175 C154 0.930 . S
H176 C156 0.930 . S
H177 C157 0.931 . S
H178 C159 0.931 . S
H179 C161 0.930 . S
H180 C163 0.930 . S
H181 C164 0.931 . S
N182 C144 1.343 . S
N182 C165 1.343 . S
N183 C151 1.343 . S
N183 C158 1.343 . S
C184 C185 1.384 . S
C184 C186 1.384 . S
C184 H212 0.931 . S
C185 C184 1.384 . S
C185 C188 1.382 . S
C186 C184 1.384 . S
C186 C187 1.381 . S
C186 H213 0.930 . S
C187 C186 1.381 . S
C187 C189 1.381 . S
C187 C190 1.487 . S
C188 C185 1.382 . S
C188 C189 1.387 . S
C188 H214 0.930 . S
C189 C187 1.381 . S
C189 C188 1.387 . S
C189 H215 0.931 . S
C190 C187 1.487 . S
C190 C197 1.399 . S
C190 N228 1.343 . S
C191 C192 1.384 . S
C191 C193 1.384 . S
C191 H216 0.931 . S
C192 C191 1.384 . S
C192 C195 1.382 . S
C193 C191 1.384 . S
C193 C194 1.381 . S
C193 H217 0.930 . S
C194 C193 1.381 . S
C194 C196 1.381 . S
C194 C197 1.487 . S
C195 C192 1.382 . S
C195 C196 1.387 . S
C195 H218 0.930 . S
C196 C194 1.381 . S
C196 C195 1.387 . S
C196 H219 0.931 . S
C197 C190 1.399 . S
C197 C194 1.487 . S
C197 N229 1.343 . S
C198 C199 1.384 . S
C198 C200 1.384 . S
C198 H220 0.931 . S
C199 C198 1.384 . S
C199 C202 1.382 . S
C200 C198 1.384 . S
C200 C201 1.381 . S
C200 H221 0.930 . S
C201 C200 1.381 . S
C201 C203 1.381 . S
C201 C204 1.487 . S
C202 C199 1.382 . S
C202 C203 1.387 . S
C202 H222 0.930 . S
C203 C201 1.381 . S
C203 C202 1.387 . S
C203 H223 0.931 . S
C204 C201 1.487 . S
C204 C211 1.399 . S
C204 N229 1.343 . S
C205 C206 1.384 . S
C205 C207 1.384 . S
C205 H224 0.931 . S
C206 C205 1.384 . S
C206 C209 1.382 . S
C207 C205 1.384 . S
C207 C208 1.381 . S
C207 H225 0.930 . S
C208 C207 1.381 . S
C208 C210 1.381 . S
C208 C211 1.487 . S
C209 C206 1.382 . S
C209 C210 1.387 . S
C209 H226 0.930 . S
C210 C208 1.381 . S
C210 C209 1.387 . S
C210 H227 0.931 . S
C211 C204 1.399 . S
C211 C208 1.487 . S
C211 N228 1.343 . S
H212 C184 0.931 . S
H213 C186 0.930 . S
H214 C188 0.930 . S
H215 C189 0.931 . S
H216 C191 0.931 . S
H217 C193 0.930 . S
H218 C195 0.930 . S
H219 C196 0.931 . S
H220 C198 0.931 . S
H221 C200 0.930 . S
H222 C202 0.930 . S
H223 C203 0.931 . S
H224 C205 0.931 . S
H225 C207 0.930 . S
H226 C209 0.930 . S
H227 C210 0.931 . S
N228 C190 1.343 . S
N228 C211 1.343 . S
N229 C197 1.343 . S
N229 C204 1.343 . S
C230 C231 1.384 . S
C230 C232 1.384 . S
C230 H258 0.931 . S
C231 C230 1.384 . S
C231 C234 1.382 . S
C232 C230 1.384 . S
C232 C233 1.381 . S
C232 H259 0.930 . S
C233 C232 1.381 . S
C233 C235 1.381 . S
C233 C236 1.487 . S
C234 C231 1.382 . S
C234 C235 1.387 . S
C234 H260 0.930 . S
C235 C233 1.381 . S
C235 C234 1.387 . S
C235 H261 0.931 . S
C236 C233 1.487 . S
C236 C243 1.399 . S
C236 N274 1.343 . S
C237 C238 1.384 . S
C237 C239 1.384 . S
C237 H262 0.931 . S
C238 C237 1.384 . S
C238 C241 1.382 . S
C239 C237 1.384 . S
C239 C240 1.381 . S
C239 H263 0.930 . S
C240 C239 1.381 . S
C240 C242 1.381 . S
C240 C243 1.487 . S
C241 C238 1.382 . S
C241 C242 1.387 . S
C241 H264 0.930 . S
C242 C240 1.381 . S
C242 C241 1.387 . S
C242 H265 0.931 . S
C243 C236 1.399 . S
C243 C240 1.487 . S
C243 N275 1.343 . S
C244 C245 1.384 . S
C244 C246 1.384 . S
C244 H266 0.931 . S
C245 C244 1.384 . S
C245 C248 1.382 . S
C246 C244 1.384 . S
C246 C247 1.381 . S
C246 H267 0.930 . S
C247 C246 1.381 . S
C247 C249 1.381 . S
C247 C250 1.487 . S
C248 C245 1.382 . S
C248 C249 1.387 . S
C248 H268 0.930 . S
C249 C247 1.381 . S
C249 C248 1.387 . S
C249 H269 0.931 . S
C250 C247 1.487 . S
C250 C257 1.399 . S
C250 N275 1.343 . S
C251 C252 1.384 . S
C251 C253 1.384 . S
C251 H270 0.931 . S
C252 C251 1.384 . S
C252 C255 1.382 . S
C253 C251 1.384 . S
C253 C254 1.381 . S
C253 H271 0.930 . S
C254 C253 1.381 . S
C254 C256 1.381 . S
C254 C257 1.487 . S
C255 C252 1.382 . S
C255 C256 1.387 . S
C255 H272 0.930 . S
C256 C254 1.381 . S
C256 C255 1.387 . S
C256 H273 0.931 . S
C257 C250 1.399 . S
C257 C254 1.487 . S
C257 N274 1.343 . S
H258 C230 0.931 . S
H259 C232 0.930 . S
H260 C234 0.930 . S
H261 C235 0.931 . S
H262 C237 0.931 . S
H263 C239 0.930 . S
H264 C241 0.930 . S
H265 C242 0.931 . S
H266 C244 0.931 . S
H267 C246 0.930 . S
H268 C248 0.930 . S
H269 C249 0.931 . S
H270 C251 0.931 . S
H271 C253 0.930 . S
H272 C255 0.930 . S
H273 C256 0.931 . S
N274 C236 1.343 . S
N274 C257 1.343 . S
N275 C243 1.343 . S
N275 C250 1.343 . S
C276 C277 1.384 . S
C276 C278 1.384 . S
C276 H304 0.931 . S
C277 C276 1.384 . S
C277 C280 1.382 . S
C278 C276 1.384 . S
C278 C279 1.381 . S
C278 H305 0.930 . S
C279 C278 1.381 . S
C279 C281 1.381 . S
C279 C282 1.487 . S
C280 C277 1.382 . S
C280 C281 1.387 . S
C280 H306 0.930 . S
C281 C279 1.381 . S
C281 C280 1.387 . S
C281 H307 0.931 . S
C282 C279 1.487 . S
C282 C289 1.399 . S
C282 N320 1.343 . S
C283 C284 1.384 . S
C283 C285 1.384 . S
C283 H308 0.931 . S
C284 C283 1.384 . S
C284 C287 1.382 . S
C285 C283 1.384 . S
C285 C286 1.381 . S
C285 H309 0.930 . S
C286 C285 1.381 . S
C286 C288 1.381 . S
C286 C289 1.487 . S
C287 C284 1.382 . S
C287 C288 1.387 . S
C287 H310 0.930 . S
C288 C286 1.381 . S
C288 C287 1.387 . S
C288 H311 0.931 . S
C289 C282 1.399 . S
C289 C286 1.487 . S
C289 N321 1.343 . S
C290 C291 1.384 . S
C290 C292 1.384 . S
C290 H312 0.931 . S
C291 C290 1.384 . S
C291 C294 1.382 . S
C292 C290 1.384 . S
C292 C293 1.381 . S
C292 H313 0.930 . S
C293 C292 1.381 . S
C293 C295 1.381 . S
C293 C296 1.487 . S
C294 C291 1.382 . S
C294 C295 1.387 . S
C294 H314 0.930 . S
C295 C293 1.381 . S
C295 C294 1.387 . S
C295 H315 0.931 . S
C296 C293 1.487 . S
C296 C303 1.399 . S
C296 N321 1.343 . S
C297 C298 1.384 . S
C297 C299 1.384 . S
C297 H316 0.931 . S
C298 C297 1.384 . S
C298 C301 1.382 . S
C299 C297 1.384 . S
C299 C300 1.381 . S
C299 H317 0.930 . S
C300 C299 1.381 . S
C300 C302 1.381 . S
C300 C303 1.487 . S
C301 C298 1.382 . S
C301 C302 1.387 . S
C301 H318 0.930 . S
C302 C300 1.381 . S
C302 C301 1.387 . S
C302 H319 0.931 . S
C303 C296 1.399 . S
C303 C300 1.487 . S
C303 N320 1.343 . S
H304 C276 0.931 . S
H305 C278 0.930 . S
H306 C280 0.930 . S
H307 C281 0.931 . S
H308 C283 0.931 . S
H309 C285 0.930 . S
H310 C287 0.930 . S
H311 C288 0.931 . S
H312 C290 0.931 . S
H313 C292 0.930 . S
H314 C294 0.930 . S
H315 C295 0.931 . S
H316 C297 0.931 . S
H317 C299 0.930 . S
H318 C301 0.930 . S
H319 C302 0.931 . S
N320 C282 1.343 . S
N320 C303 1.343 . S
N321 C289 1.343 . S
N321 C296 1.343 . S
C322 C323 1.384 . S
C322 C324 1.384 . S
C322 H350 0.931 . S
C323 C322 1.384 . S
C323 C326 1.382 . S
C324 C322 1.384 . S
C324 C325 1.381 . S
C324 H351 0.930 . S
C325 C324 1.381 . S
C325 C327 1.381 . S
C325 C328 1.487 . S
C326 C323 1.382 . S
C326 C327 1.387 . S
C326 H352 0.930 . S
C327 C325 1.381 . S
C327 C326 1.387 . S
C327 H353 0.931 . S
C328 C325 1.487 . S
C328 C335 1.399 . S
C328 N366 1.343 . S
C329 C330 1.384 . S
C329 C331 1.384 . S
C329 H354 0.931 . S
C330 C329 1.384 . S
C330 C333 1.382 . S
C331 C329 1.384 . S
C331 C332 1.381 . S
C331 H355 0.930 . S
C332 C331 1.381 . S
C332 C334 1.381 . S
C332 C335 1.487 . S
C333 C330 1.382 . S
C333 C334 1.387 . S
C333 H356 0.930 . S
C334 C332 1.381 . S
C334 C333 1.387 . S
C334 H357 0.931 . S
C335 C328 1.399 . S
C335 C332 1.487 . S
C335 N367 1.343 . S
C336 C337 1.384 . S
C336 C338 1.384 . S
C336 H358 0.931 . S
C337 C336 1.384 . S
C337 C340 1.382 . S
C338 C336 1.384 . S
C338 C339 1.381 . S
C338 H359 0.930 . S
C339 C338 1.381 . S
C339 C341 1.381 . S
C339 C342 1.487 . S
C340 C337 1.382 . S
C340 C341 1.387 . S
C340 H360 0.930 . S
C341 C339 1.381 . S
C341 C340 1.387 . S
C341 H361 0.931 . S
C342 C339 1.487 . S
C342 C349 1.399 . S
C342 N367 1.343 . S
C343 C344 1.384 . S
C343 C345 1.384 . S
C343 H362 0.931 . S
C344 C343 1.384 . S
C344 C347 1.382 . S
C345 C343 1.384 . S
C345 C346 1.381 . S
C345 H363 0.930 . S
C346 C345 1.381 . S
C346 C348 1.381 . S
C346 C349 1.487 . S
C347 C344 1.382 . S
C347 C348 1.387 . S
C347 H364 0.930 . S
C348 C346 1.381 . S
C348 C347 1.387 . S
C348 H365 0.931 . S
C349 C342 1.399 . S
C349 C346 1.487 . S
C349 N366 1.343 . S
H350 C322 0.931 . S
H351 C324 0.930 . S
H352 C326 0.930 . S
H353 C327 0.931 . S
H354 C329 0.931 . S
H355 C331 0.930 . S
H356 C333 0.930 . S
H357 C334 0.931 . S
H358 C336 0.931 . S
H359 C338 0.930 . S
H360 C340 0.930 . S
H361 C341 0.931 . S
H362 C343 0.931 . S
H363 C345 0.930 . S
H364 C347 0.930 . S
H365 C348 0.931 . S
N366 C328 1.343 . S
N366 C349 1.343 . S
N367 C335 1.343 . S
N367 C342 1.343 . S
C368 C369 1.443 . S
C368 N372 1.376 . S
C368 C406 1.389 . S
C369 C368 1.443 . S
C369 C370 1.340 . S
C369 H409 0.951 . S
C370 C369 1.340 . S
C370 C371 1.439 . S
C370 H410 0.950 . S
C371 C370 1.439 . S
C371 N372 1.374 . S
C371 C405 1.395 . S
N372 C368 1.376 . S
N372 C371 1.374 . S
N372 Co373 2.008 . S
Co373 N372 2.008 . S
Co373 N374 1.995 1_455 S
Co373 N379 2.008 1_455 S
Co373 N384 1.995 . S
Co373 N389 2.282 1_455 S
Co373 N395 2.282 . S
N374 Co373 1.995 1_655 S
N374 C375 1.376 . S
N374 C378 1.383 . S
C375 N374 1.376 . S
C375 C376 1.446 . S
C375 C405 1.391 1_655 S
C376 C375 1.446 . S
C376 C377 1.339 . S
C376 H411 0.949 . S
C377 C376 1.339 . S
C377 C378 1.439 . S
C377 H412 0.950 . S
C378 N374 1.383 . S
C378 C377 1.439 . S
C378 C407 1.392 . S
N379 Co373 2.008 1_655 S
N379 C380 1.376 . S
N379 C383 1.374 . S
C380 N379 1.376 . S
C380 C381 1.443 . S
C380 C407 1.389 . S
C381 C380 1.443 . S
C381 C382 1.340 . S
C381 H413 0.951 . S
C382 C381 1.340 . S
C382 C383 1.439 . S
C382 H414 0.950 . S
C383 N379 1.374 . S
C383 C382 1.439 . S
C383 C408 1.404 . S
N384 Co373 1.995 . S
N384 C385 1.376 . S
N384 C388 1.383 . S
C385 N384 1.376 . S
C385 C386 1.446 . S
C385 C408 1.381 1_455 S
C386 C385 1.446 . S
C386 C387 1.339 . S
C386 H415 0.949 . S
C387 C386 1.339 . S
C387 C388 1.439 . S
C387 H416 0.950 . S
C388 N384 1.383 . S
C388 C387 1.439 . S
C388 C406 1.392 . S
N389 Co373 2.282 1_655 S
N389 C392 1.332 . S
N389 C394 1.332 . S
C390 C391 1.386 . S
C390 C393 1.388 . S
C391 C390 1.386 . S
C391 C392 1.382 . S
C391 H417 0.950 . S
C392 N389 1.332 . S
C392 C391 1.382 . S
C392 H403 0.952 . S
C393 C390 1.388 . S
C393 C394 1.382 . S
C393 H418 0.950 . S
C394 N389 1.332 . S
C394 C393 1.382 . S
C394 H404 0.948 . S
N395 Co373 2.282 . S
N395 C399 1.332 . S
N395 C400 1.332 . S
C396 C397 1.388 . S
C396 C400 1.382 . S
C396 H419 0.950 . S
C397 C396 1.388 . S
C397 C398 1.386 . S
C398 C397 1.386 . S
C398 C399 1.382 . S
C398 H420 0.950 . S
C399 N395 1.332 . S
C399 C398 1.382 . S
C399 H401 0.952 . S
C400 N395 1.332 . S
C400 C396 1.382 . S
C400 H402 0.948 . S
H401 C399 0.952 . S
H402 C400 0.948 . S
H403 C392 0.952 . S
H404 C394 0.948 . S
C405 C371 1.395 . S
C405 C375 1.391 1_455 S
C406 C368 1.389 . S
C406 C388 1.392 . S
C407 C378 1.392 . S
C407 C380 1.389 . S
C408 C383 1.404 . S
C408 C385 1.381 1_655 S
H409 C369 0.951 . S
H410 C370 0.950 . S
H411 C376 0.949 . S
H412 C377 0.950 . S
H413 C381 0.951 . S
H414 C382 0.950 . S
H415 C386 0.949 . S
H416 C387 0.950 . S
H417 C391 0.950 . S
H418 C393 0.950 . S
H419 C396 0.950 . S
H420 C398 0.950 . S
C421 C422 1.443 . S
C421 N425 1.376 . S
C421 C459 1.389 . S
C422 C421 1.443 . S
C422 C423 1.340 . S
C422 H462 0.951 . S
C423 C422 1.340 . S
C423 C424 1.439 . S
C423 H463 0.950 . S
C424 C423 1.439 . S
C424 N425 1.374 . S
C424 C458 1.395 . S
N425 C421 1.376 . S
N425 C424 1.374 . S
N425 Co426 2.008 . S
Co426 N425 2.008 . S
Co426 N427 1.995 1_545 S
Co426 N432 2.008 1_545 S
Co426 N437 1.995 . S
Co426 N442 2.282 1_545 S
Co426 N448 2.282 . S
N427 Co426 1.995 1_565 S
N427 C428 1.376 . S
N427 C431 1.383 . S
C428 N427 1.376 . S
C428 C429 1.446 . S
C428 C458 1.391 1_565 S
C429 C428 1.446 . S
C429 C430 1.339 . S
C429 H464 0.949 . S
C430 C429 1.339 . S
C430 C431 1.439 . S
C430 H465 0.950 . S
C431 N427 1.383 . S
C431 C430 1.439 . S
C431 C460 1.392 . S
N432 Co426 2.008 1_565 S
N432 C433 1.376 . S
N432 C436 1.374 . S
C433 N432 1.376 . S
C433 C434 1.443 . S
C433 C460 1.389 . S
C434 C433 1.443 . S
C434 C435 1.340 . S
C434 H466 0.951 . S
C435 C434 1.340 . S
C435 C436 1.439 . S
C435 H467 0.950 . S
C436 N432 1.374 . S
C436 C435 1.439 . S
C436 C461 1.401 . S
N437 Co426 1.995 . S
N437 C438 1.376 . S
N437 C441 1.383 . S
C438 N437 1.376 . S
C438 C439 1.446 . S
C438 C461 1.385 1_545 S
C439 C438 1.446 . S
C439 C440 1.339 . S
C439 H468 0.949 . S
C440 C439 1.339 . S
C440 C441 1.439 . S
C440 H469 0.950 . S
C441 N437 1.383 . S
C441 C440 1.439 . S
C441 C459 1.392 . S
N442 Co426 2.282 1_565 S
N442 C445 1.332 . S
N442 C447 1.332 . S
C443 C444 1.386 . S
C443 C446 1.388 . S
C444 C443 1.386 . S
C444 C445 1.382 . S
C444 H470 0.950 . S
C445 N442 1.332 . S
C445 C444 1.382 . S
C445 H456 0.952 . S
C446 C443 1.388 . S
C446 C447 1.382 . S
C446 H471 0.950 . S
C447 N442 1.332 . S
C447 C446 1.382 . S
C447 H457 0.948 . S
N448 Co426 2.282 . S
N448 C452 1.332 . S
N448 C453 1.332 . S
C449 C450 1.388 . S
C449 C453 1.382 . S
C449 H472 0.950 . S
C450 C449 1.388 . S
C450 C451 1.386 . S
C451 C450 1.386 . S
C451 C452 1.382 . S
C451 H473 0.950 . S
C452 N448 1.332 . S
C452 C451 1.382 . S
C452 H454 0.952 . S
C453 N448 1.332 . S
C453 C449 1.382 . S
C453 H455 0.948 . S
H454 C452 0.952 . S
H455 C453 0.948 . S
H456 C445 0.952 . S
H457 C447 0.948 . S
C458 C424 1.395 . S
C458 C428 1.391 1_545 S
C459 C421 1.389 . S
C459 C441 1.392 . S
C460 C431 1.392 . S
C460 C433 1.389 . S
C461 C436 1.401 . S
C461 C438 1.385 1_565 S
H462 C422 0.951 . S
H463 C423 0.950 . S
H464 C429 0.949 . S
H465 C430 0.950 . S
H466 C434 0.951 . S
H467 C435 0.950 . S
H468 C439 0.949 . S
H469 C440 0.950 . S
H470 C444 0.950 . S
H471 C446 0.950 . S
H472 C449 0.950 . S
H473 C451 0.950 . S
C474 C475 1.443 . S
C474 N478 1.376 . S
C474 C512 1.389 . S
C475 C474 1.443 . S
C475 C476 1.340 . S
C475 H515 0.951 . S
C476 C475 1.340 . S
C476 C477 1.439 . S
C476 H516 0.950 . S
C477 C476 1.439 . S
C477 N478 1.374 . S
C477 C511 1.395 . S
N478 C474 1.376 . S
N478 C477 1.374 . S
N478 Co479 2.008 . S
Co479 N478 2.008 . S
Co479 N480 1.995 1_455 S
Co479 N485 2.008 1_455 S
Co479 N490 1.995 . S
Co479 N495 2.282 1_455 S
Co479 N501 2.282 . S
N480 Co479 1.995 1_655 S
N480 C481 1.376 . S
N480 C484 1.383 . S
C481 N480 1.376 . S
C481 C482 1.446 . S
C481 C511 1.391 1_655 S
C482 C481 1.446 . S
C482 C483 1.339 . S
C482 H517 0.949 . S
C483 C482 1.339 . S
C483 C484 1.439 . S
C483 H518 0.950 . S
C484 N480 1.383 . S
C484 C483 1.439 . S
C484 C513 1.392 . S
N485 Co479 2.008 1_655 S
N485 C486 1.376 . S
N485 C489 1.374 . S
C486 N485 1.376 . S
C486 C487 1.443 . S
C486 C513 1.389 . S
C487 C486 1.443 . S
C487 C488 1.340 . S
C487 H519 0.951 . S
C488 C487 1.340 . S
C488 C489 1.439 . S
C488 H520 0.950 . S
C489 N485 1.374 . S
C489 C488 1.439 . S
C489 C514 1.433 . S
N490 Co479 1.995 . S
N490 C491 1.376 . S
N490 C494 1.383 . S
C491 N490 1.376 . S
C491 C492 1.446 . S
C491 C514 1.352 1_455 S
C492 C491 1.446 . S
C492 C493 1.339 . S
C492 H521 0.949 . S
C493 C492 1.339 . S
C493 C494 1.439 . S
C493 H522 0.950 . S
C494 N490 1.383 . S
C494 C493 1.439 . S
C494 C512 1.392 . S
N495 Co479 2.282 1_655 S
N495 C498 1.332 . S
N495 C500 1.332 . S
C496 C497 1.386 . S
C496 C499 1.388 . S
C497 C496 1.386 . S
C497 C498 1.382 . S
C497 H523 0.950 . S
C498 N495 1.332 . S
C498 C497 1.382 . S
C498 H509 0.952 . S
C499 C496 1.388 . S
C499 C500 1.382 . S
C499 H524 0.950 . S
C500 N495 1.332 . S
C500 C499 1.382 . S
C500 H510 0.948 . S
N501 Co479 2.282 . S
N501 C505 1.332 . S
N501 C506 1.332 . S
C502 C503 1.388 . S
C502 C506 1.382 . S
C502 H525 0.950 . S
C503 C502 1.388 . S
C503 C504 1.386 . S
C504 C503 1.386 . S
C504 C505 1.382 . S
C504 H526 0.950 . S
C505 N501 1.332 . S
C505 C504 1.382 . S
C505 H507 0.952 . S
C506 N501 1.332 . S
C506 C502 1.382 . S
C506 H508 0.948 . S
H507 C505 0.952 . S
H508 C506 0.948 . S
H509 C498 0.952 . S
H510 C500 0.948 . S
C511 C477 1.395 . S
C511 C481 1.391 1_455 S
C512 C474 1.389 . S
C512 C494 1.392 . S
C513 C484 1.392 . S
C513 C486 1.389 . S
C514 C489 1.433 . S
C514 C491 1.352 1_655 S
H515 C475 0.951 . S
H516 C476 0.950 . S
H517 C482 0.949 . S
H518 C483 0.950 . S
H519 C487 0.951 . S
H520 C488 0.950 . S
H521 C492 0.949 . S
H522 C493 0.950 . S
H523 C497 0.950 . S
H524 C499 0.950 . S
H525 C502 0.950 . S
H526 C504 0.950 . S
C527 C528 1.443 . S
C527 N531 1.376 . S
C527 C565 1.389 . S
C528 C527 1.443 . S
C528 C529 1.340 . S
C528 H568 0.951 . S
C529 C528 1.340 . S
C529 C530 1.439 . S
C529 H569 0.950 . S
C530 C529 1.439 . S
C530 N531 1.374 . S
C530 C564 1.412 . S
N531 C527 1.376 . S
N531 C530 1.374 . S
N531 Co532 2.008 1_565 S
Co532 N531 2.008 1_545 S
Co532 N533 1.995 . S
Co532 N538 2.008 . S
Co532 N543 1.995 1_545 S
Co532 N548 2.282 . S
Co532 N554 2.282 1_545 S
N533 Co532 1.995 . S
N533 C534 1.376 . S
N533 C537 1.383 . S
C534 N533 1.376 . S
C534 C535 1.446 . S
C534 C564 1.373 1_545 S
C535 C534 1.446 . S
C535 C536 1.339 . S
C535 H570 0.949 . S
C536 C535 1.339 . S
C536 C537 1.439 . S
C536 H571 0.950 . S
C537 N533 1.383 . S
C537 C536 1.439 . S
C537 C566 1.392 . S
N538 Co532 2.008 . S
N538 C539 1.376 . S
N538 C542 1.374 . S
C539 N538 1.376 . S
C539 C540 1.443 . S
C539 C566 1.389 . S
C540 C539 1.443 . S
C540 C541 1.340 . S
C540 H572 0.951 . S
C541 C540 1.340 . S
C541 C542 1.439 . S
C541 H573 0.950 . S
C542 N538 1.374 . S
C542 C541 1.439 . S
C542 C567 1.395 . S
N543 Co532 1.995 1_565 S
N543 C544 1.376 . S
N543 C547 1.383 . S
C544 N543 1.376 . S
C544 C545 1.446 . S
C544 C567 1.391 1_565 S
C545 C544 1.446 . S
C545 C546 1.339 . S
C545 H574 0.949 . S
C546 C545 1.339 . S
C546 C547 1.439 . S
C546 H575 0.950 . S
C547 N543 1.383 . S
C547 C546 1.439 . S
C547 C565 1.392 . S
N548 Co532 2.282 . S
N548 C551 1.332 . S
N548 C553 1.332 . S
C549 C550 1.386 . S
C549 C552 1.388 . S
C550 C549 1.386 . S
C550 C551 1.382 . S
C550 H576 0.950 . S
C551 N548 1.332 . S
C551 C550 1.382 . S
C551 H562 0.952 . S
C552 C549 1.388 . S
C552 C553 1.382 . S
C552 H577 0.950 . S
C553 N548 1.332 . S
C553 C552 1.382 . S
C553 H563 0.948 . S
N554 Co532 2.282 1_565 S
N554 C558 1.332 . S
N554 C559 1.332 . S
C555 C556 1.388 . S
C555 C559 1.382 . S
C555 H578 0.950 . S
C556 C555 1.388 . S
C556 C557 1.386 . S
C557 C556 1.386 . S
C557 C558 1.382 . S
C557 H579 0.950 . S
C558 N554 1.332 . S
C558 C557 1.382 . S
C558 H560 0.952 . S
C559 N554 1.332 . S
C559 C555 1.382 . S
C559 H561 0.948 . S
H560 C558 0.952 . S
H561 C559 0.948 . S
H562 C551 0.952 . S
H563 C553 0.948 . S
C564 C530 1.412 . S
C564 C534 1.373 1_565 S
C565 C527 1.389 . S
C565 C547 1.392 . S
C566 C537 1.392 . S
C566 C539 1.389 . S
C567 C542 1.395 . S
C567 C544 1.391 1_545 S
H568 C528 0.951 . S
H569 C529 0.950 . S
H570 C535 0.949 . S
H571 C536 0.950 . S
H572 C540 0.951 . S
H573 C541 0.950 . S
H574 C545 0.949 . S
H575 C546 0.950 . S
H576 C550 0.950 . S
H577 C552 0.950 . S
H578 C555 0.950 . S
H579 C557 0.950 . S
C580 C581 1.443 . S
C580 N584 1.376 . S
C580 C618 1.389 . S
C581 C580 1.443 . S
C581 C582 1.340 . S
C581 H621 0.951 . S
C582 C581 1.340 . S
C582 C583 1.439 . S
C582 H622 0.950 . S
C583 C582 1.439 . S
C583 N584 1.374 . S
C583 C617 1.395 1_554 S
N584 C580 1.376 . S
N584 C583 1.374 . S
N584 Co585 2.017 . S
Co585 N584 2.017 . S
Co585 N586 1.984 1_554 S
Co585 N591 1.999 1_554 S
Co585 N596 2.006 . S
Co585 N601 2.298 . S
Co585 N607 2.267 1_554 S
N586 Co585 1.984 1_556 S
N586 C587 1.376 . S
N586 C590 1.383 . S
C587 N586 1.376 . S
C587 C588 1.446 . S
C587 C617 1.391 . S
C588 C587 1.446 . S
C588 C589 1.339 . S
C588 H623 0.949 . S
C589 C588 1.339 . S
C589 C590 1.439 . S
C589 H624 0.950 . S
C590 N586 1.383 . S
C590 C589 1.439 . S
C590 C619 1.392 . S
N591 Co585 1.999 1_556 S
N591 C592 1.376 . S
N591 C595 1.374 . S
C592 N591 1.376 . S
C592 C593 1.443 . S
C592 C619 1.389 . S
C593 C592 1.443 . S
C593 C594 1.340 . S
C593 H625 0.951 . S
C594 C593 1.340 . S
C594 C595 1.439 . S
C594 H626 0.950 . S
C595 N591 1.374 . S
C595 C594 1.439 . S
C595 C620 1.395 1_556 S
N596 Co585 2.006 . S
N596 C597 1.376 . S
N596 C600 1.383 . S
C597 N596 1.376 . S
C597 C598 1.446 . S
C597 C620 1.391 . S
C598 C597 1.446 . S
C598 C599 1.339 . S
C598 H627 0.949 . S
C599 C598 1.339 . S
C599 C600 1.439 . S
C599 H628 0.950 . S
C600 N596 1.383 . S
C600 C599 1.439 . S
C600 C618 1.392 . S
N601 Co585 2.298 . S
N601 C604 1.332 . S
N601 C606 1.332 . S
C602 C603 1.386 . S
C602 C605 1.388 . S
C603 C602 1.386 . S
C603 C604 1.382 . S
C603 H629 0.950 . S
C604 N601 1.332 . S
C604 C603 1.382 . S
C604 H615 0.952 . S
C605 C602 1.388 . S
C605 C606 1.382 . S
C605 H630 0.950 . S
C606 N601 1.332 . S
C606 C605 1.382 . S
C606 H616 0.948 . S
N607 Co585 2.267 1_556 S
N607 C611 1.332 . S
N607 C612 1.332 . S
C608 C609 1.388 . S
C608 C612 1.382 . S
C608 H631 0.950 . S
C609 C608 1.388 . S
C609 C610 1.386 . S
C610 C609 1.386 . S
C610 C611 1.382 . S
C610 H632 0.950 . S
C611 N607 1.332 . S
C611 C610 1.382 . S
C611 H613 0.952 . S
C612 N607 1.332 . S
C612 C608 1.382 . S
C612 H614 0.948 . S
H613 C611 0.952 . S
H614 C612 0.948 . S
H615 C604 0.952 . S
H616 C606 0.948 . S
C617 C583 1.395 1_556 S
C617 C587 1.391 . S
C618 C580 1.389 . S
C618 C600 1.392 . S
C619 C590 1.392 . S
C619 C592 1.389 . S
C620 C595 1.395 1_554 S
C620 C597 1.391 . S
H621 C581 0.951 . S
H622 C582 0.950 . S
H623 C588 0.949 . S
H624 C589 0.950 . S
H625 C593 0.951 . S
H626 C594 0.950 . S
H627 C598 0.949 . S
H628 C599 0.950 . S
H629 C603 0.950 . S
H630 C605 0.950 . S
H631 C608 0.950 . S
H632 C610 0.950 . S
C633 C634 1.443 . S
C633 N637 1.376 . S
C633 C671 1.389 . S
C634 C633 1.443 . S
C634 C635 1.340 . S
C634 H674 0.951 . S
C635 C634 1.340 . S
C635 C636 1.439 . S
C635 H675 0.950 . S
C636 C635 1.439 . S
C636 N637 1.374 . S
C636 C670 1.395 . S
N637 C633 1.376 . S
N637 C636 1.374 . S
N637 Co638 2.008 . S
Co638 N637 2.008 . S
Co638 N639 1.995 1_554 S
Co638 N644 2.008 1_554 S
Co638 N649 1.995 . S
Co638 N654 2.282 . S
Co638 N660 2.282 1_554 S
N639 Co638 1.995 1_556 S
N639 C640 1.376 . S
N639 C643 1.383 . S
C640 N639 1.376 . S
C640 C641 1.446 . S
C640 C670 1.391 1_556 S
C641 C640 1.446 . S
C641 C642 1.339 . S
C641 H676 0.949 . S
C642 C641 1.339 . S
C642 C643 1.439 . S
C642 H677 0.950 . S
C643 N639 1.383 . S
C643 C642 1.439 . S
C643 C672 1.392 . S
N644 Co638 2.008 1_556 S
N644 C645 1.376 . S
N644 C648 1.374 1_556 S
C645 N644 1.376 . S
C645 C646 1.443 . S
C645 C672 1.389 . S
C646 C645 1.443 . S
C646 C647 1.340 . S
C646 H678 0.951 . S
C647 C646 1.340 . S
C647 C648 1.439 1_556 S
C647 H679 0.950 . S
C648 N644 1.374 1_554 S
C648 C647 1.439 1_554 S
C648 C673 1.395 . S
N649 Co638 1.995 . S
N649 C650 1.376 . S
N649 C653 1.383 . S
C650 N649 1.376 . S
C650 C651 1.446 . S
C650 C673 1.391 . S
C651 C650 1.446 . S
C651 C652 1.339 . S
C651 H680 0.949 . S
C652 C651 1.339 . S
C652 C653 1.439 . S
C652 H681 0.950 . S
C653 N649 1.383 . S
C653 C652 1.439 . S
C653 C671 1.392 . S
N654 Co638 2.282 . S
N654 C657 1.332 . S
N654 C659 1.332 . S
C655 C656 1.386 . S
C655 C658 1.388 . S
C656 C655 1.386 . S
C656 C657 1.382 . S
C656 H682 0.950 . S
C657 N654 1.332 . S
C657 C656 1.382 . S
C657 H668 0.952 . S
C658 C655 1.388 . S
C658 C659 1.382 . S
C658 H683 0.950 . S
C659 N654 1.332 . S
C659 C658 1.382 . S
C659 H669 0.948 . S
N660 Co638 2.282 1_556 S
N660 C664 1.332 . S
N660 C665 1.332 . S
C661 C662 1.388 . S
C661 C665 1.382 . S
C661 H684 0.950 . S
C662 C661 1.388 . S
C662 C663 1.386 . S
C663 C662 1.386 . S
C663 C664 1.382 . S
C663 H685 0.950 . S
C664 N660 1.332 . S
C664 C663 1.382 . S
C664 H666 0.952 . S
C665 N660 1.332 . S
C665 C661 1.382 . S
C665 H667 0.948 . S
H666 C664 0.952 . S
H667 C665 0.948 . S
H668 C657 0.952 . S
H669 C659 0.948 . S
C670 C636 1.395 . S
C670 C640 1.391 1_554 S
C671 C633 1.389 . S
C671 C653 1.392 . S
C672 C643 1.392 . S
C672 C645 1.389 . S
C673 C648 1.395 . S
C673 C650 1.391 . S
H674 C634 0.951 . S
H675 C635 0.950 . S
H676 C641 0.949 . S
H677 C642 0.950 . S
H678 C646 0.951 . S
H679 C647 0.950 . S
H680 C651 0.949 . S
H681 C652 0.950 . S
H682 C656 0.950 . S
H683 C658 0.950 . S
H684 C661 0.950 . S
H685 C663 0.950 . S
C686 C687 1.443 . S
C686 N690 1.376 1_556 S
C686 C724 1.389 . S
C687 C686 1.443 . S
C687 C688 1.357 . S
C687 H727 0.951 . S
C688 C687 1.357 . S
C688 C689 1.425 1_556 S
C688 H728 0.949 1_556 S
C689 C688 1.425 1_554 S
C689 N690 1.374 . S
C689 C723 1.395 . S
N690 C686 1.376 1_554 S
N690 C689 1.374 . S
N690 Co691 2.008 . S
Co691 N690 2.008 . S
Co691 N692 1.995 . S
Co691 N697 2.008 . S
Co691 N702 1.971 1_554 S
Co691 N707 2.282 1_554 S
Co691 N713 2.282 . S
N692 Co691 1.995 . S
N692 C693 1.376 . S
N692 C696 1.383 . S
C693 N692 1.376 . S
C693 C694 1.446 . S
C693 C723 1.391 . S
C694 C693 1.446 . S
C694 C695 1.339 . S
C694 H729 0.949 . S
C695 C694 1.339 . S
C695 C696 1.439 . S
C695 H730 0.950 . S
C696 N692 1.383 . S
C696 C695 1.439 . S
C696 C725 1.392 . S
N697 Co691 2.008 . S
N697 C698 1.376 . S
N697 C701 1.374 . S
C698 N697 1.376 . S
C698 C699 1.443 . S
C698 C725 1.389 . S
C699 C698 1.443 . S
C699 C700 1.340 . S
C699 H731 0.951 . S
C700 C699 1.340 . S
C700 C701 1.439 . S
C700 H732 0.950 . S
C701 N697 1.374 . S
C701 C700 1.439 . S
C701 C726 1.395 . S
N702 Co691 1.971 1_556 S
N702 C703 1.377 . S
N702 C706 1.410 . S
C703 N702 1.377 . S
C703 C704 1.446 . S
C703 C726 1.391 1_556 S
C704 C703 1.446 . S
C704 C705 1.339 . S
C704 H733 0.949 . S
C705 C704 1.339 . S
C705 C706 1.439 . S
C705 H734 0.950 . S
C706 N702 1.410 . S
C706 C705 1.439 . S
C706 C724 1.392 . S
N707 Co691 2.282 1_556 S
N707 C710 1.332 . S
N707 C712 1.332 . S
C708 C709 1.386 . S
C708 C711 1.388 . S
C709 C708 1.386 . S
C709 C710 1.382 . S
C709 H735 0.950 . S
C710 N707 1.332 . S
C710 C709 1.382 . S
C710 H721 0.952 . S
C711 C708 1.388 . S
C711 C712 1.382 . S
C711 H736 0.950 . S
C712 N707 1.332 . S
C712 C711 1.382 . S
C712 H722 0.948 . S
N713 Co691 2.282 . S
N713 C717 1.332 . S
N713 C718 1.332 . S
C714 C715 1.388 . S
C714 C718 1.382 . S
C714 H737 0.950 . S
C715 C714 1.388 . S
C715 C716 1.386 . S
C716 C715 1.386 . S
C716 C717 1.382 . S
C716 H738 0.950 . S
C717 N713 1.332 . S
C717 C716 1.382 . S
C717 H719 0.952 . S
C718 N713 1.332 . S
C718 C714 1.382 . S
C718 H720 0.948 . S
H719 C717 0.952 . S
H720 C718 0.948 . S
H721 C710 0.952 . S
H722 C712 0.948 . S
C723 C689 1.395 . S
C723 C693 1.391 . S
C724 C686 1.389 . S
C724 C706 1.392 . S
C725 C696 1.392 . S
C725 C698 1.389 . S
C726 C701 1.395 . S
C726 C703 1.391 1_554 S
H727 C687 0.951 . S
H728 C688 0.949 1_554 S
H729 C694 0.949 . S
H730 C695 0.950 . S
H731 C699 0.951 . S
H732 C700 0.950 . S
H733 C704 0.949 . S
H734 C705 0.950 . S
H735 C709 0.950 . S
H736 C711 0.950 . S
H737 C714 0.950 . S
H738 C716 0.950 . S
C739 C740 1.443 . S
C739 N743 1.376 . S
C739 C777 1.389 . S
C740 C739 1.443 . S
C740 C741 1.340 . S
C740 H780 0.951 . S
C741 C740 1.340 . S
C741 C742 1.439 . S
C741 H781 0.950 . S
C742 C741 1.439 . S
C742 N743 1.374 . S
C742 C776 1.376 1_554 S
N743 C739 1.376 . S
N743 C742 1.374 . S
N743 Co744 2.008 . S
Co744 N743 2.008 . S
Co744 N745 1.995 1_554 S
Co744 N750 2.008 1_554 S
Co744 N755 1.995 . S
Co744 N760 2.282 . S
Co744 N766 2.282 1_554 S
N745 Co744 1.995 1_556 S
N745 C746 1.376 . S
N745 C749 1.383 . S
C746 N745 1.376 . S
C746 C747 1.446 . S
C746 C776 1.408 . S
C747 C746 1.446 . S
C747 C748 1.339 . S
C747 H782 0.949 . S
C748 C747 1.339 . S
C748 C749 1.439 . S
C748 H783 0.950 . S
C749 N745 1.383 . S
C749 C748 1.439 . S
C749 C778 1.392 . S
N750 Co744 2.008 1_556 S
N750 C751 1.376 . S
N750 C754 1.374 1_556 S
C751 N750 1.376 . S
C751 C752 1.443 . S
C751 C778 1.389 . S
C752 C751 1.443 . S
C752 C753 1.340 . S
C752 H784 0.951 . S
C753 C752 1.340 . S
C753 C754 1.439 1_556 S
C753 H785 0.950 . S
C754 N750 1.374 1_554 S
C754 C753 1.439 1_554 S
C754 C779 1.395 . S
N755 Co744 1.995 . S
N755 C756 1.376 . S
N755 C759 1.383 . S
C756 N755 1.376 . S
C756 C757 1.446 . S
C756 C779 1.391 . S
C757 C756 1.446 . S
C757 C758 1.339 . S
C757 H786 0.949 . S
C758 C757 1.339 . S
C758 C759 1.439 . S
C758 H787 0.950 . S
C759 N755 1.383 . S
C759 C758 1.439 . S
C759 C777 1.392 . S
N760 Co744 2.282 . S
N760 C763 1.332 . S
N760 C765 1.332 . S
C761 C762 1.386 . S
C761 C764 1.388 . S
C762 C761 1.386 . S
C762 C763 1.382 . S
C762 H788 0.950 . S
C763 N760 1.332 . S
C763 C762 1.382 . S
C763 H774 0.952 . S
C764 C761 1.388 . S
C764 C765 1.382 . S
C764 H789 0.950 . S
C765 N760 1.332 . S
C765 C764 1.382 . S
C765 H775 0.948 . S
N766 Co744 2.282 1_556 S
N766 C770 1.332 . S
N766 C771 1.332 . S
C767 C768 1.388 . S
C767 C771 1.382 . S
C767 H790 0.950 . S
C768 C767 1.388 . S
C768 C769 1.386 . S
C769 C768 1.386 . S
C769 C770 1.382 . S
C769 H791 0.950 . S
C770 N766 1.332 . S
C770 C769 1.382 . S
C770 H772 0.952 . S
C771 N766 1.332 . S
C771 C767 1.382 . S
C771 H773 0.948 . S
H772 C770 0.952 . S
H773 C771 0.948 . S
H774 C763 0.952 . S
H775 C765 0.948 . S
C776 C742 1.376 1_556 S
C776 C746 1.408 . S
C777 C739 1.389 . S
C777 C759 1.392 . S
C778 C749 1.392 . S
C778 C751 1.389 . S
C779 C754 1.395 . S
C779 C756 1.391 . S
H780 C740 0.951 . S
H781 C741 0.950 . S
H782 C747 0.949 . S
H783 C748 0.950 . S
H784 C752 0.951 . S
H785 C753 0.950 . S
H786 C757 0.949 . S
H787 C758 0.950 . S
H788 C762 0.950 . S
H789 C764 0.950 . S
H790 C767 0.950 . S
H791 C769 0.950 . S
H792 C810 0.951 . S
H793 C812 0.951 . S
H794 C814 0.950 . S
H795 C815 0.950 . S
H796 C817 0.950 . S
H797 C820 0.950 . S
H798 C821 0.950 . S
H799 C823 0.950 . S
H800 C824 0.950 . S
H801 C825 0.951 . S
H802 C827 0.951 . S
H803 C829 0.950 . S
H804 C830 0.950 . S
H805 C832 0.950 . S
H806 C835 0.950 . S
H807 C836 0.950 . S
H808 C838 0.950 . S
H809 C839 0.950 . S
C810 H792 0.951 . S
C810 C811 1.366 . S
C810 C812 1.388 . S
C811 C810 1.366 . S
C811 C815 1.385 . S
C812 H793 0.951 . S
C812 C810 1.388 . S
C812 C813 1.366 . S
C813 C812 1.366 . S
C813 C814 1.414 . S
C813 C816 1.499 . S
C814 H794 0.950 . S
C814 C813 1.414 . S
C814 C815 1.374 . S
C815 H795 0.950 . S
C815 C811 1.385 . S
C815 C814 1.374 . S
C816 C813 1.499 . S
C816 C817 1.373 . S
C816 C818 1.389 . S
C817 H796 0.950 . S
C817 C816 1.373 . S
C817 C833 1.377 . S
C818 C816 1.389 . S
C818 C819 1.524 . S
C818 C832 1.377 . S
C819 C818 1.524 . S
C819 C820 1.397 . S
C819 C824 1.363 . S
C820 H797 0.950 . S
C820 C819 1.397 . S
C820 C821 1.334 . S
C821 H798 0.950 . S
C821 C820 1.334 . S
C821 C822 1.287 . S
C822 C821 1.287 . S
C822 C823 1.524 . S
C822 H841 0.913 . S
C823 H799 0.950 . S
C823 C822 1.524 . S
C823 C824 1.415 . S
C824 H800 0.950 . S
C824 C819 1.363 . S
C824 C823 1.415 . S
C825 H801 0.951 . S
C825 C826 1.366 . S
C825 C827 1.388 . S
C826 C825 1.366 . S
C826 C830 1.385 . S
C827 H802 0.951 . S
C827 C825 1.388 . S
C827 C828 1.366 . S
C828 C827 1.366 . S
C828 C829 1.414 . S
C828 C831 1.499 . S
C829 H803 0.950 . S
C829 C828 1.414 . S
C829 C830 1.374 . S
C830 H804 0.950 . S
C830 C826 1.385 . S
C830 C829 1.374 . S
C831 C828 1.499 . S
C831 C832 1.373 . S
C831 C833 1.389 . S
C832 H805 0.950 . S
C832 C818 1.377 . S
C832 C831 1.373 . S
C833 C817 1.377 . S
C833 C831 1.389 . S
C833 C834 1.524 . S
C834 C833 1.524 . S
C834 C835 1.397 . S
C834 C839 1.363 . S
C835 H806 0.950 . S
C835 C834 1.397 . S
C835 C836 1.334 . S
C836 H807 0.950 . S
C836 C835 1.334 . S
C836 C837 1.287 . S
C837 C836 1.287 . S
C837 C838 1.524 . S
C837 H840 0.999 . S
C838 H808 0.950 . S
C838 C837 1.524 . S
C838 C839 1.415 . S
C839 H809 0.950 . S
C839 C834 1.363 . S
C839 C838 1.415 . S
H840 C837 0.999 . S
H841 C822 0.913 . S
H842 C860 0.951 . S
H843 C862 0.951 . S
H844 C864 0.950 . S
H845 C865 0.950 . S
H846 C867 0.950 . S
H847 C870 0.950 . S
H848 C871 0.950 . S
H849 C873 0.950 . S
H850 C874 0.950 . S
H851 C875 0.951 . S
H852 C877 0.951 . S
H853 C879 0.950 . S
H854 C880 0.950 . S
H855 C882 0.950 . S
H856 C885 0.950 . S
H857 C886 0.950 . S
H858 C888 0.950 . S
H859 C889 0.950 . S
C860 H842 0.951 . S
C860 C861 1.366 . S
C860 C862 1.388 . S
C861 C860 1.366 . S
C861 C865 1.385 . S
C862 H843 0.951 . S
C862 C860 1.388 . S
C862 C863 1.366 . S
C863 C862 1.366 . S
C863 C864 1.414 . S
C863 C866 1.499 . S
C864 H844 0.950 . S
C864 C863 1.414 . S
C864 C865 1.374 . S
C865 H845 0.950 . S
C865 C861 1.385 . S
C865 C864 1.374 . S
C866 C863 1.499 . S
C866 C867 1.373 . S
C866 C868 1.389 . S
C867 H846 0.950 . S
C867 C866 1.373 . S
C867 C883 1.377 . S
C868 C866 1.389 . S
C868 C869 1.524 . S
C868 C882 1.377 . S
C869 C868 1.524 . S
C869 C870 1.397 . S
C869 C874 1.363 . S
C870 H847 0.950 . S
C870 C869 1.397 . S
C870 C871 1.334 . S
C871 H848 0.950 . S
C871 C870 1.334 . S
C871 C872 1.287 . S
C872 C871 1.287 . S
C872 C873 1.524 . S
C872 H891 0.913 . S
C873 H849 0.950 . S
C873 C872 1.524 . S
C873 C874 1.415 . S
C874 H850 0.950 . S
C874 C869 1.363 . S
C874 C873 1.415 . S
C875 H851 0.951 . S
C875 C876 1.366 . S
C875 C877 1.388 . S
C876 C875 1.366 . S
C876 C880 1.385 . S
C877 H852 0.951 . S
C877 C875 1.388 . S
C877 C878 1.366 . S
C878 C877 1.366 . S
C878 C879 1.414 . S
C878 C881 1.499 . S
C879 H853 0.950 . S
C879 C878 1.414 . S
C879 C880 1.374 . S
C880 H854 0.950 . S
C880 C876 1.385 . S
C880 C879 1.374 . S
C881 C878 1.499 . S
C881 C882 1.373 . S
C881 C883 1.389 . S
C882 H855 0.950 . S
C882 C868 1.377 . S
C882 C881 1.373 . S
C883 C867 1.377 . S
C883 C881 1.389 . S
C883 C884 1.524 . S
C884 C883 1.524 . S
C884 C885 1.397 . S
C884 C889 1.363 . S
C885 H856 0.950 . S
C885 C884 1.397 . S
C885 C886 1.334 . S
C886 H857 0.950 . S
C886 C885 1.334 . S
C886 C887 1.287 . S
C887 C886 1.287 . S
C887 C888 1.524 . S
C887 H890 0.999 . S
C888 H858 0.950 . S
C888 C887 1.524 . S
C888 C889 1.415 . S
C889 H859 0.950 . S
C889 C884 1.363 . S
C889 C888 1.415 . S
H890 C887 0.999 . S
H891 C872 0.913 . S
H892 C910 0.951 . S
H893 C912 0.951 . S
H894 C914 0.950 . S
H895 C915 0.950 . S
H896 C917 0.950 . S
H897 C920 0.950 . S
H898 C921 0.950 . S
H899 C923 0.950 . S
H900 C924 0.950 . S
H901 C925 0.951 . S
H902 C927 0.951 . S
H903 C929 0.950 . S
H904 C930 0.950 . S
H905 C932 0.950 . S
H906 C935 0.950 . S
H907 C936 0.950 . S
H908 C938 0.950 . S
H909 C939 0.950 . S
C910 H892 0.951 . S
C910 C911 1.366 . S
C910 C912 1.388 . S
C911 C910 1.366 . S
C911 C915 1.385 . S
C912 H893 0.951 . S
C912 C910 1.388 . S
C912 C913 1.366 . S
C913 C912 1.366 . S
C913 C914 1.414 . S
C913 C916 1.499 . S
C914 H894 0.950 . S
C914 C913 1.414 . S
C914 C915 1.374 . S
C915 H895 0.950 . S
C915 C911 1.385 . S
C915 C914 1.374 . S
C916 C913 1.499 . S
C916 C917 1.373 . S
C916 C918 1.389 . S
C917 H896 0.950 . S
C917 C916 1.373 . S
C917 C933 1.377 . S
C918 C916 1.389 . S
C918 C919 1.524 . S
C918 C932 1.377 . S
C919 C918 1.524 . S
C919 C920 1.397 . S
C919 C924 1.363 . S
C920 H897 0.950 . S
C920 C919 1.397 . S
C920 C921 1.334 . S
C921 H898 0.950 . S
C921 C920 1.334 . S
C921 C922 1.287 . S
C922 C921 1.287 . S
C922 C923 1.524 . S
C922 H941 0.913 . S
C923 H899 0.950 . S
C923 C922 1.524 . S
C923 C924 1.415 . S
C924 H900 0.950 . S
C924 C919 1.363 . S
C924 C923 1.415 . S
C925 H901 0.951 . S
C925 C926 1.366 . S
C925 C927 1.388 . S
C926 C925 1.366 . S
C926 C930 1.385 . S
C927 H902 0.951 . S
C927 C925 1.388 . S
C927 C928 1.366 . S
C928 C927 1.366 . S
C928 C929 1.414 . S
C928 C931 1.499 . S
C929 H903 0.950 . S
C929 C928 1.414 . S
C929 C930 1.374 . S
C930 H904 0.950 . S
C930 C926 1.385 . S
C930 C929 1.374 . S
C931 C928 1.499 . S
C931 C932 1.373 . S
C931 C933 1.389 . S
C932 H905 0.950 . S
C932 C918 1.377 . S
C932 C931 1.373 . S
C933 C917 1.377 . S
C933 C931 1.389 . S
C933 C934 1.524 . S
C934 C933 1.524 . S
C934 C935 1.397 . S
C934 C939 1.363 . S
C935 H906 0.950 . S
C935 C934 1.397 . S
C935 C936 1.334 . S
C936 H907 0.950 . S
C936 C935 1.334 . S
C936 C937 1.287 . S
C937 C936 1.287 . S
C937 C938 1.524 . S
C937 H940 0.999 . S
C938 H908 0.950 . S
C938 C937 1.524 . S
C938 C939 1.415 . S
C939 H909 0.950 . S
C939 C934 1.363 . S
C939 C938 1.415 . S
H940 C937 0.999 . S
H941 C922 0.913 . S
H942 C960 0.951 . S
H943 C962 0.951 . S
H944 C964 0.950 . S
H945 C965 0.950 . S
H946 C967 0.950 . S
H947 C970 0.950 . S
H948 C971 0.950 . S
H949 C973 0.950 . S
H950 C974 0.950 . S
H951 C975 0.951 . S
H952 C977 0.951 . S
H953 C979 0.950 . S
H954 C980 0.950 . S
H955 C982 0.950 . S
H956 C985 0.950 . S
H957 C986 0.950 . S
H958 C988 0.950 . S
H959 C989 0.950 . S
C960 H942 0.951 . S
C960 C961 1.366 . S
C960 C962 1.388 . S
C961 C960 1.366 . S
C961 C965 1.385 . S
C962 H943 0.951 . S
C962 C960 1.388 . S
C962 C963 1.366 . S
C963 C962 1.366 . S
C963 C964 1.414 . S
C963 C966 1.499 . S
C964 H944 0.950 . S
C964 C963 1.414 . S
C964 C965 1.374 . S
C965 H945 0.950 . S
C965 C961 1.385 . S
C965 C964 1.374 . S
C966 C963 1.499 . S
C966 C967 1.373 . S
C966 C968 1.389 . S
C967 H946 0.950 . S
C967 C966 1.373 . S
C967 C983 1.377 . S
C968 C966 1.389 . S
C968 C969 1.524 . S
C968 C982 1.377 . S
C969 C968 1.524 . S
C969 C970 1.397 . S
C969 C974 1.363 . S
C970 H947 0.950 . S
C970 C969 1.397 . S
C970 C971 1.334 . S
C971 H948 0.950 . S
C971 C970 1.334 . S
C971 C972 1.287 . S
C972 C971 1.287 . S
C972 C973 1.524 . S
C972 H991 0.913 . S
C973 H949 0.950 . S
C973 C972 1.524 . S
C973 C974 1.415 . S
C974 H950 0.950 . S
C974 C969 1.363 . S
C974 C973 1.415 . S
C975 H951 0.951 . S
C975 C976 1.366 . S
C975 C977 1.388 . S
C976 C975 1.366 . S
C976 C980 1.385 . S
C977 H952 0.951 . S
C977 C975 1.388 . S
C977 C978 1.366 . S
C978 C977 1.366 . S
C978 C979 1.414 . S
C978 C981 1.499 . S
C979 H953 0.950 . S
C979 C978 1.414 . S
C979 C980 1.374 . S
C980 H954 0.950 . S
C980 C976 1.385 . S
C980 C979 1.374 . S
C981 C978 1.499 . S
C981 C982 1.373 . S
C981 C983 1.389 . S
C982 H955 0.950 . S
C982 C968 1.377 . S
C982 C981 1.373 . S
C983 C967 1.377 . S
C983 C981 1.389 . S
C983 C984 1.524 . S
C984 C983 1.524 . S
C984 C985 1.397 . S
C984 C989 1.363 . S
C985 H956 0.950 . S
C985 C984 1.397 . S
C985 C986 1.334 . S
C986 H957 0.950 . S
C986 C985 1.334 . S
C986 C987 1.287 . S
C987 C986 1.287 . S
C987 C988 1.524 . S
C987 H990 0.999 . S
C988 H958 0.950 . S
C988 C987 1.524 . S
C988 C989 1.415 . S
C989 H959 0.950 . S
C989 C984 1.363 . S
C989 C988 1.415 . S
H990 C987 0.999 . S
H991 C972 0.913 . S
H992 C1010 0.951 . S
H993 C1012 0.951 . S
H994 C1014 0.950 . S
H995 C1015 0.950 . S
H996 C1017 0.950 . S
H997 C1020 0.950 . S
H998 C1021 0.950 . S
H999 C1023 0.950 . S
H1000 C1024 0.950 . S
H1001 C1025 0.951 . S
H1002 C1027 0.951 . S
H1003 C1029 0.950 . S
H1004 C1030 0.950 . S
H1005 C1032 0.950 . S
H1006 C1035 0.950 . S
H1007 C1036 0.950 . S
H1008 C1038 0.950 . S
H1009 C1039 0.950 . S
C1010 H992 0.951 . S
C1010 C1011 1.366 . S
C1010 C1012 1.388 . S
C1011 C1010 1.366 . S
C1011 C1015 1.385 . S
C1012 H993 0.951 . S
C1012 C1010 1.388 . S
C1012 C1013 1.366 . S
C1013 C1012 1.366 . S
C1013 C1014 1.414 . S
C1013 C1016 1.499 . S
C1014 H994 0.950 . S
C1014 C1013 1.414 . S
C1014 C1015 1.374 . S
C1015 H995 0.950 . S
C1015 C1011 1.385 . S
C1015 C1014 1.374 . S
C1016 C1013 1.499 . S
C1016 C1017 1.373 . S
C1016 C1018 1.389 . S
C1017 H996 0.950 . S
C1017 C1016 1.373 . S
C1017 C1033 1.377 . S
C1018 C1016 1.389 . S
C1018 C1019 1.524 . S
C1018 C1032 1.377 . S
C1019 C1018 1.524 . S
C1019 C1020 1.397 . S
C1019 C1024 1.363 . S
C1020 H997 0.950 . S
C1020 C1019 1.397 . S
C1020 C1021 1.334 . S
C1021 H998 0.950 . S
C1021 C1020 1.334 . S
C1021 C1022 1.287 . S
C1022 C1021 1.287 . S
C1022 C1023 1.524 . S
C1022 H1041 0.913 . S
C1023 H999 0.950 . S
C1023 C1022 1.524 . S
C1023 C1024 1.415 . S
C1024 H1000 0.950 . S
C1024 C1019 1.363 . S
C1024 C1023 1.415 . S
C1025 H1001 0.951 . S
C1025 C1026 1.366 . S
C1025 C1027 1.388 . S
C1026 C1025 1.366 . S
C1026 C1030 1.385 . S
C1027 H1002 0.951 . S
C1027 C1025 1.388 . S
C1027 C1028 1.366 . S
C1028 C1027 1.366 . S
C1028 C1029 1.414 . S
C1028 C1031 1.499 . S
C1029 H1003 0.950 . S
C1029 C1028 1.414 . S
C1029 C1030 1.374 . S
C1030 H1004 0.950 . S
C1030 C1026 1.385 . S
C1030 C1029 1.374 . S
C1031 C1028 1.499 . S
C1031 C1032 1.373 . S
C1031 C1033 1.389 . S
C1032 H1005 0.950 . S
C1032 C1018 1.377 . S
C1032 C1031 1.373 . S
C1033 C1017 1.377 . S
C1033 C1031 1.389 . S
C1033 C1034 1.524 . S
C1034 C1033 1.524 . S
C1034 C1035 1.397 . S
C1034 C1039 1.363 . S
C1035 H1006 0.950 . S
C1035 C1034 1.397 . S
C1035 C1036 1.334 . S
C1036 H1007 0.950 . S
C1036 C1035 1.334 . S
C1036 C1037 1.287 . S
C1037 C1036 1.287 . S
C1037 C1038 1.524 . S
C1037 H1040 0.999 . S
C1038 H1008 0.950 . S
C1038 C1037 1.524 . S
C1038 C1039 1.415 . S
C1039 H1009 0.950 . S
C1039 C1034 1.363 . S
C1039 C1038 1.415 . S
H1040 C1037 0.999 . S
H1041 C1022 0.913 . S
H1042 C1060 0.951 . S
H1043 C1062 0.951 . S
H1044 C1064 0.950 . S
H1045 C1065 0.950 . S
H1046 C1067 0.950 . S
H1047 C1070 0.950 . S
H1048 C1071 0.950 . S
H1049 C1073 0.950 . S
H1050 C1074 0.950 . S
H1051 C1075 0.951 . S
H1052 C1077 0.951 . S
H1053 C1079 0.950 . S
H1054 C1080 0.950 . S
H1055 C1082 0.950 . S
H1056 C1085 0.950 . S
H1057 C1086 0.950 . S
H1058 C1088 0.950 . S
H1059 C1089 0.950 . S
C1060 H1042 0.951 . S
C1060 C1061 1.366 . S
C1060 C1062 1.388 . S
C1061 C1060 1.366 . S
C1061 C1065 1.385 . S
C1062 H1043 0.951 . S
C1062 C1060 1.388 . S
C1062 C1063 1.366 . S
C1063 C1062 1.366 . S
C1063 C1064 1.414 . S
C1063 C1066 1.499 . S
C1064 H1044 0.950 . S
C1064 C1063 1.414 . S
C1064 C1065 1.374 . S
C1065 H1045 0.950 . S
C1065 C1061 1.385 . S
C1065 C1064 1.374 . S
C1066 C1063 1.499 . S
C1066 C1067 1.373 . S
C1066 C1068 1.389 . S
C1067 H1046 0.950 . S
C1067 C1066 1.373 . S
C1067 C1083 1.377 . S
C1068 C1066 1.389 . S
C1068 C1069 1.524 . S
C1068 C1082 1.377 . S
C1069 C1068 1.524 . S
C1069 C1070 1.397 . S
C1069 C1074 1.363 . S
C1070 H1047 0.950 . S
C1070 C1069 1.397 . S
C1070 C1071 1.334 . S
C1071 H1048 0.950 . S
C1071 C1070 1.334 . S
C1071 C1072 1.287 . S
C1072 C1071 1.287 . S
C1072 C1073 1.524 . S
C1072 H1091 0.913 . S
C1073 H1049 0.950 . S
C1073 C1072 1.524 . S
C1073 C1074 1.415 . S
C1074 H1050 0.950 . S
C1074 C1069 1.363 . S
C1074 C1073 1.415 . S
C1075 H1051 0.951 . S
C1075 C1076 1.366 . S
C1075 C1077 1.388 . S
C1076 C1075 1.366 . S
C1076 C1080 1.385 . S
C1077 H1052 0.951 . S
C1077 C1075 1.388 . S
C1077 C1078 1.366 . S
C1078 C1077 1.366 . S
C1078 C1079 1.414 . S
C1078 C1081 1.499 . S
C1079 H1053 0.950 . S
C1079 C1078 1.414 . S
C1079 C1080 1.374 . S
C1080 H1054 0.950 . S
C1080 C1076 1.385 . S
C1080 C1079 1.374 . S
C1081 C1078 1.499 . S
C1081 C1082 1.373 . S
C1081 C1083 1.389 . S
C1082 H1055 0.950 . S
C1082 C1068 1.377 . S
C1082 C1081 1.373 . S
C1083 C1067 1.377 . S
C1083 C1081 1.389 . S
C1083 C1084 1.524 . S
C1084 C1083 1.524 . S
C1084 C1085 1.397 . S
C1084 C1089 1.363 . S
C1085 H1056 0.950 . S
C1085 C1084 1.397 . S
C1085 C1086 1.334 . S
C1086 H1057 0.950 . S
C1086 C1085 1.334 . S
C1086 C1087 1.287 . S
C1087 C1086 1.287 . S
C1087 C1088 1.524 . S
C1087 H1090 0.999 . S
C1088 H1058 0.950 . S
C1088 C1087 1.524 . S
C1088 C1089 1.415 . S
C1089 H1059 0.950 . S
C1089 C1084 1.363 . S
C1089 C1088 1.415 . S
H1090 C1087 0.999 . S
H1091 C1072 0.913 . S
H1092 C1110 0.951 . S
H1093 C1112 0.951 . S
H1094 C1114 0.950 . S
H1095 C1115 0.950 . S
H1096 C1117 0.950 . S
H1097 C1120 0.950 . S
H1098 C1121 0.950 . S
H1099 C1123 0.950 . S
H1100 C1124 0.950 . S
H1101 C1125 0.951 . S
H1102 C1127 0.951 . S
H1103 C1129 0.950 . S
H1104 C1130 0.950 . S
H1105 C1132 0.950 . S
H1106 C1135 0.950 . S
H1107 C1136 0.950 . S
H1108 C1138 0.950 . S
H1109 C1139 0.950 . S
C1110 H1092 0.951 . S
C1110 C1111 1.366 . S
C1110 C1112 1.388 . S
C1111 C1110 1.366 . S
C1111 C1115 1.385 . S
C1112 H1093 0.951 . S
C1112 C1110 1.388 . S
C1112 C1113 1.366 . S
C1113 C1112 1.366 . S
C1113 C1114 1.414 . S
C1113 C1116 1.499 . S
C1114 H1094 0.950 . S
C1114 C1113 1.414 . S
C1114 C1115 1.374 . S
C1115 H1095 0.950 . S
C1115 C1111 1.385 . S
C1115 C1114 1.374 . S
C1116 C1113 1.499 . S
C1116 C1117 1.373 . S
C1116 C1118 1.389 . S
C1117 H1096 0.950 . S
C1117 C1116 1.373 . S
C1117 C1133 1.377 . S
C1118 C1116 1.389 . S
C1118 C1119 1.524 . S
C1118 C1132 1.377 . S
C1119 C1118 1.524 . S
C1119 C1120 1.397 . S
C1119 C1124 1.363 . S
C1120 H1097 0.950 . S
C1120 C1119 1.397 . S
C1120 C1121 1.334 . S
C1121 H1098 0.950 . S
C1121 C1120 1.334 . S
C1121 C1122 1.287 . S
C1122 C1121 1.287 . S
C1122 C1123 1.524 . S
C1122 H1141 0.913 . S
C1123 H1099 0.950 . S
C1123 C1122 1.524 . S
C1123 C1124 1.415 . S
C1124 H1100 0.950 . S
C1124 C1119 1.363 . S
C1124 C1123 1.415 . S
C1125 H1101 0.951 . S
C1125 C1126 1.366 . S
C1125 C1127 1.388 . S
C1126 C1125 1.366 . S
C1126 C1130 1.385 . S
C1127 H1102 0.951 . S
C1127 C1125 1.388 . S
C1127 C1128 1.366 . S
C1128 C1127 1.366 . S
C1128 C1129 1.414 . S
C1128 C1131 1.499 . S
C1129 H1103 0.950 . S
C1129 C1128 1.414 . S
C1129 C1130 1.374 . S
C1130 H1104 0.950 . S
C1130 C1126 1.385 . S
C1130 C1129 1.374 . S
C1131 C1128 1.499 . S
C1131 C1132 1.373 . S
C1131 C1133 1.389 . S
C1132 H1105 0.950 . S
C1132 C1118 1.377 . S
C1132 C1131 1.373 . S
C1133 C1117 1.377 . S
C1133 C1131 1.389 . S
C1133 C1134 1.524 . S
C1134 C1133 1.524 . S
C1134 C1135 1.397 . S
C1134 C1139 1.363 . S
C1135 H1106 0.950 . S
C1135 C1134 1.397 . S
C1135 C1136 1.334 . S
C1136 H1107 0.950 . S
C1136 C1135 1.334 . S
C1136 C1137 1.287 . S
C1137 C1136 1.287 . S
C1137 C1138 1.524 . S
C1137 H1140 0.999 . S
C1138 H1108 0.950 . S
C1138 C1137 1.524 . S
C1138 C1139 1.415 . S
C1139 H1109 0.950 . S
C1139 C1134 1.363 . S
C1139 C1138 1.415 . S
H1140 C1137 0.999 . S
H1141 C1122 0.913 . S
H1142 C1160 0.951 . S
H1143 C1162 0.951 . S
H1144 C1164 0.950 . S
H1145 C1165 0.950 . S
H1146 C1167 0.950 . S
H1147 C1170 0.950 . S
H1148 C1171 0.950 . S
H1149 C1173 0.950 . S
H1150 C1174 0.950 . S
H1151 C1175 0.951 . S
H1152 C1177 0.951 . S
H1153 C1179 0.950 . S
H1154 C1180 0.950 . S
H1155 C1182 0.950 . S
H1156 C1185 0.950 . S
H1157 C1186 0.950 . S
H1158 C1188 0.950 . S
H1159 C1189 0.950 . S
C1160 H1142 0.951 . S
C1160 C1161 1.366 . S
C1160 C1162 1.388 . S
C1161 C1160 1.366 . S
C1161 C1165 1.385 . S
C1162 H1143 0.951 . S
C1162 C1160 1.388 . S
C1162 C1163 1.366 . S
C1163 C1162 1.366 . S
C1163 C1164 1.414 . S
C1163 C1166 1.499 . S
C1164 H1144 0.950 . S
C1164 C1163 1.414 . S
C1164 C1165 1.374 . S
C1165 H1145 0.950 . S
C1165 C1161 1.385 . S
C1165 C1164 1.374 . S
C1166 C1163 1.499 . S
C1166 C1167 1.373 . S
C1166 C1168 1.389 . S
C1167 H1146 0.950 . S
C1167 C1166 1.373 . S
C1167 C1183 1.377 . S
C1168 C1166 1.389 . S
C1168 C1169 1.524 . S
C1168 C1182 1.377 . S
C1169 C1168 1.524 . S
C1169 C1170 1.397 . S
C1169 C1174 1.363 . S
C1170 H1147 0.950 . S
C1170 C1169 1.397 . S
C1170 C1171 1.334 . S
C1171 H1148 0.950 . S
C1171 C1170 1.334 . S
C1171 C1172 1.287 . S
C1172 C1171 1.287 . S
C1172 C1173 1.524 . S
C1172 H1191 0.913 . S
C1173 H1149 0.950 . S
C1173 C1172 1.524 . S
C1173 C1174 1.415 . S
C1174 H1150 0.950 . S
C1174 C1169 1.363 . S
C1174 C1173 1.415 . S
C1175 H1151 0.951 . S
C1175 C1176 1.366 . S
C1175 C1177 1.388 . S
C1176 C1175 1.366 . S
C1176 C1180 1.385 . S
C1177 H1152 0.951 . S
C1177 C1175 1.388 . S
C1177 C1178 1.366 . S
C1178 C1177 1.366 . S
C1178 C1179 1.414 . S
C1178 C1181 1.499 . S
C1179 H1153 0.950 . S
C1179 C1178 1.414 . S
C1179 C1180 1.374 . S
C1180 H1154 0.950 . S
C1180 C1176 1.385 . S
C1180 C1179 1.374 . S
C1181 C1178 1.499 . S
C1181 C1182 1.373 . S
C1181 C1183 1.389 . S
C1182 H1155 0.950 . S
C1182 C1168 1.377 . S
C1182 C1181 1.373 . S
C1183 C1167 1.377 . S
C1183 C1181 1.389 . S
C1183 C1184 1.524 . S
C1184 C1183 1.524 . S
C1184 C1185 1.397 . S
C1184 C1189 1.363 . S
C1185 H1156 0.950 . S
C1185 C1184 1.397 . S
C1185 C1186 1.334 . S
C1186 H1157 0.950 . S
C1186 C1185 1.334 . S
C1186 C1187 1.287 . S
C1187 C1186 1.287 . S
C1187 C1188 1.524 . S
C1187 H1190 0.999 . S
C1188 H1158 0.950 . S
C1188 C1187 1.524 . S
C1188 C1189 1.415 . S
C1189 H1159 0.950 . S
C1189 C1184 1.363 . S
C1189 C1188 1.415 . S
H1190 C1187 0.999 . S
H1191 C1172 0.913 . S
H1192 C1210 0.951 . S
H1193 C1212 0.951 . S
H1194 C1214 0.950 . S
H1195 C1215 0.950 . S
H1196 C1217 0.950 . S
H1197 C1220 0.950 . S
H1198 C1221 0.950 . S
H1199 C1223 0.950 . S
H1200 C1224 0.950 . S
H1201 C1225 0.951 . S
H1202 C1227 0.951 . S
H1203 C1229 0.950 . S
H1204 C1230 0.950 . S
H1205 C1232 0.950 . S
H1206 C1235 0.950 . S
H1207 C1236 0.950 . S
H1208 C1238 0.950 . S
H1209 C1239 0.950 . S
C1210 H1192 0.951 . S
C1210 C1211 1.366 . S
C1210 C1212 1.388 . S
C1211 C1210 1.366 . S
C1211 C1215 1.385 . S
C1212 H1193 0.951 . S
C1212 C1210 1.388 . S
C1212 C1213 1.366 . S
C1213 C1212 1.366 . S
C1213 C1214 1.414 . S
C1213 C1216 1.499 . S
C1214 H1194 0.950 . S
C1214 C1213 1.414 . S
C1214 C1215 1.374 . S
C1215 H1195 0.950 . S
C1215 C1211 1.385 . S
C1215 C1214 1.374 . S
C1216 C1213 1.499 . S
C1216 C1217 1.373 . S
C1216 C1218 1.389 . S
C1217 H1196 0.950 . S
C1217 C1216 1.373 . S
C1217 C1233 1.377 . S
C1218 C1216 1.389 . S
C1218 C1219 1.524 . S
C1218 C1232 1.377 . S
C1219 C1218 1.524 . S
C1219 C1220 1.397 . S
C1219 C1224 1.363 . S
C1220 H1197 0.950 . S
C1220 C1219 1.397 . S
C1220 C1221 1.334 . S
C1221 H1198 0.950 . S
C1221 C1220 1.334 . S
C1221 C1222 1.287 . S
C1222 C1221 1.287 . S
C1222 C1223 1.524 . S
C1222 H1241 0.913 . S
C1223 H1199 0.950 . S
C1223 C1222 1.524 . S
C1223 C1224 1.415 . S
C1224 H1200 0.950 . S
C1224 C1219 1.363 . S
C1224 C1223 1.415 . S
C1225 H1201 0.951 . S
C1225 C1226 1.366 . S
C1225 C1227 1.388 . S
C1226 C1225 1.366 . S
C1226 C1230 1.385 . S
C1227 H1202 0.951 . S
C1227 C1225 1.388 . S
C1227 C1228 1.366 . S
C1228 C1227 1.366 . S
C1228 C1229 1.414 . S
C1228 C1231 1.499 . S
C1229 H1203 0.950 . S
C1229 C1228 1.414 . S
C1229 C1230 1.374 . S
C1230 H1204 0.950 . S
C1230 C1226 1.385 . S
C1230 C1229 1.374 . S
C1231 C1228 1.499 . S
C1231 C1232 1.373 . S
C1231 C1233 1.389 . S
C1232 H1205 0.950 . S
C1232 C1218 1.377 . S
C1232 C1231 1.373 . S
C1233 C1217 1.377 . S
C1233 C1231 1.389 . S
C1233 C1234 1.524 . S
C1234 C1233 1.524 . S
C1234 C1235 1.397 . S
C1234 C1239 1.363 . S
C1235 H1206 0.950 . S
C1235 C1234 1.397 . S
C1235 C1236 1.334 . S
C1236 H1207 0.950 . S
C1236 C1235 1.334 . S
C1236 C1237 1.287 . S
C1237 C1236 1.287 . S
C1237 C1238 1.524 . S
C1237 H1240 0.999 . S
C1238 H1208 0.950 . S
C1238 C1237 1.524 . S
C1238 C1239 1.415 . S
C1239 H1209 0.950 . S
C1239 C1234 1.363 . S
C1239 C1238 1.415 . S
H1240 C1237 0.999 . S
H1241 C1222 0.913 . S
H1242 C1260 0.951 . S
H1243 C1262 0.951 . S
H1244 C1264 0.950 . S
H1245 C1265 0.950 . S
H1246 C1267 0.950 . S
H1247 C1270 0.950 . S
H1248 C1271 0.950 . S
H1249 C1273 0.950 . S
H1250 C1274 0.950 . S
H1251 C1275 0.951 . S
H1252 C1277 0.951 . S
H1253 C1279 0.950 . S
H1254 C1280 0.950 . S
H1255 C1282 0.950 . S
H1256 C1285 0.950 . S
H1257 C1286 0.950 . S
H1258 C1288 0.950 . S
H1259 C1289 0.950 . S
C1260 H1242 0.951 . S
C1260 C1261 1.366 . S
C1260 C1262 1.388 . S
C1261 C1260 1.366 . S
C1261 C1265 1.385 . S
C1262 H1243 0.951 . S
C1262 C1260 1.388 . S
C1262 C1263 1.366 . S
C1263 C1262 1.366 . S
C1263 C1264 1.414 . S
C1263 C1266 1.499 . S
C1264 H1244 0.950 . S
C1264 C1263 1.414 . S
C1264 C1265 1.374 . S
C1265 H1245 0.950 . S
C1265 C1261 1.385 . S
C1265 C1264 1.374 . S
C1266 C1263 1.499 . S
C1266 C1267 1.373 . S
C1266 C1268 1.389 . S
C1267 H1246 0.950 . S
C1267 C1266 1.373 . S
C1267 C1283 1.377 . S
C1268 C1266 1.389 . S
C1268 C1269 1.524 . S
C1268 C1282 1.377 . S
C1269 C1268 1.524 . S
C1269 C1270 1.397 . S
C1269 C1274 1.363 . S
C1270 H1247 0.950 . S
C1270 C1269 1.397 . S
C1270 C1271 1.334 . S
C1271 H1248 0.950 . S
C1271 C1270 1.334 . S
C1271 C1272 1.287 . S
C1272 C1271 1.287 . S
C1272 C1273 1.524 . S
C1272 H1291 0.913 . S
C1273 H1249 0.950 . S
C1273 C1272 1.524 . S
C1273 C1274 1.415 . S
C1274 H1250 0.950 . S
C1274 C1269 1.363 . S
C1274 C1273 1.415 . S
C1275 H1251 0.951 . S
C1275 C1276 1.366 . S
C1275 C1277 1.388 . S
C1276 C1275 1.366 . S
C1276 C1280 1.385 . S
C1277 H1252 0.951 . S
C1277 C1275 1.388 . S
C1277 C1278 1.366 . S
C1278 C1277 1.366 . S
C1278 C1279 1.414 . S
C1278 C1281 1.499 . S
C1279 H1253 0.950 . S
C1279 C1278 1.414 . S
C1279 C1280 1.374 . S
C1280 H1254 0.950 . S
C1280 C1276 1.385 . S
C1280 C1279 1.374 . S
C1281 C1278 1.499 . S
C1281 C1282 1.373 . S
C1281 C1283 1.389 . S
C1282 H1255 0.950 . S
C1282 C1268 1.377 . S
C1282 C1281 1.373 . S
C1283 C1267 1.377 . S
C1283 C1281 1.389 . S
C1283 C1284 1.524 . S
C1284 C1283 1.524 . S
C1284 C1285 1.397 . S
C1284 C1289 1.363 . S
C1285 H1256 0.950 . S
C1285 C1284 1.397 . S
C1285 C1286 1.334 . S
C1286 H1257 0.950 . S
C1286 C1285 1.334 . S
C1286 C1287 1.287 . S
C1287 C1286 1.287 . S
C1287 C1288 1.524 . S
C1287 H1290 0.999 . S
C1288 H1258 0.950 . S
C1288 C1287 1.524 . S
C1288 C1289 1.415 . S
C1289 H1259 0.950 . S
C1289 C1284 1.363 . S
C1289 C1288 1.415 . S
H1290 C1287 0.999 . S
H1291 C1272 0.913 . S
H1292 C1310 0.951 . S
H1293 C1312 0.951 . S
H1294 C1314 0.950 . S
H1295 C1315 0.950 . S
H1296 C1317 0.950 . S
H1297 C1320 0.950 . S
H1298 C1321 0.950 . S
H1299 C1323 0.950 . S
H1300 C1324 0.950 . S
H1301 C1325 0.951 . S
H1302 C1327 0.951 . S
H1303 C1329 0.950 . S
H1304 C1330 0.950 . S
H1305 C1332 0.950 . S
H1306 C1335 0.950 . S
H1307 C1336 0.950 . S
H1308 C1338 0.950 . S
H1309 C1339 0.950 . S
C1310 H1292 0.951 . S
C1310 C1311 1.366 . S
C1310 C1312 1.388 . S
C1311 C1310 1.366 . S
C1311 C1315 1.385 . S
C1312 H1293 0.951 . S
C1312 C1310 1.388 . S
C1312 C1313 1.366 . S
C1313 C1312 1.366 . S
C1313 C1314 1.414 . S
C1313 C1316 1.499 . S
C1314 H1294 0.950 . S
C1314 C1313 1.414 . S
C1314 C1315 1.374 . S
C1315 H1295 0.950 . S
C1315 C1311 1.385 . S
C1315 C1314 1.374 . S
C1316 C1313 1.499 . S
C1316 C1317 1.373 . S
C1316 C1318 1.389 . S
C1317 H1296 0.950 . S
C1317 C1316 1.373 . S
C1317 C1333 1.377 . S
C1318 C1316 1.389 . S
C1318 C1319 1.524 . S
C1318 C1332 1.377 . S
C1319 C1318 1.524 . S
C1319 C1320 1.397 . S
C1319 C1324 1.363 . S
C1320 H1297 0.950 . S
C1320 C1319 1.397 . S
C1320 C1321 1.334 . S
C1321 H1298 0.950 . S
C1321 C1320 1.334 . S
C1321 C1322 1.287 . S
C1322 C1321 1.287 . S
C1322 C1323 1.524 . S
C1322 H1341 0.913 . S
C1323 H1299 0.950 . S
C1323 C1322 1.524 . S
C1323 C1324 1.415 . S
C1324 H1300 0.950 . S
C1324 C1319 1.363 . S
C1324 C1323 1.415 . S
C1325 H1301 0.951 . S
C1325 C1326 1.366 . S
C1325 C1327 1.388 . S
C1326 C1325 1.366 . S
C1326 C1330 1.385 . S
C1327 H1302 0.951 . S
C1327 C1325 1.388 . S
C1327 C1328 1.366 . S
C1328 C1327 1.366 . S
C1328 C1329 1.414 . S
C1328 C1331 1.499 . S
C1329 H1303 0.950 . S
C1329 C1328 1.414 . S
C1329 C1330 1.374 . S
C1330 H1304 0.950 . S
C1330 C1326 1.385 . S
C1330 C1329 1.374 . S
C1331 C1328 1.499 . S
C1331 C1332 1.373 . S
C1331 C1333 1.389 . S
C1332 H1305 0.950 . S
C1332 C1318 1.377 . S
C1332 C1331 1.373 . S
C1333 C1317 1.377 . S
C1333 C1331 1.389 . S
C1333 C1334 1.524 . S
C1334 C1333 1.524 . S
C1334 C1335 1.397 . S
C1334 C1339 1.363 . S
C1335 H1306 0.950 . S
C1335 C1334 1.397 . S
C1335 C1336 1.334 . S
C1336 H1307 0.950 . S
C1336 C1335 1.334 . S
C1336 C1337 1.287 . S
C1337 C1336 1.287 . S
C1337 C1338 1.524 . S
C1337 H1340 0.999 . S
C1338 H1308 0.950 . S
C1338 C1337 1.524 . S
C1338 C1339 1.415 . S
C1339 H1309 0.950 . S
C1339 C1334 1.363 . S
C1339 C1338 1.415 . S
H1340 C1337 0.999 . S
H1341 C1322 0.913 . S
H1342 C1360 0.951 . S
H1343 C1362 0.951 . S
H1344 C1364 0.950 . S
H1345 C1365 0.950 . S
H1346 C1367 0.950 . S
H1347 C1370 0.950 . S
H1348 C1371 0.950 . S
H1349 C1373 0.950 . S
H1350 C1374 0.950 . S
H1351 C1375 0.951 . S
H1352 C1377 0.951 . S
H1353 C1379 0.950 . S
H1354 C1380 0.950 . S
H1355 C1382 0.950 . S
H1356 C1385 0.950 . S
H1357 C1386 0.950 . S
H1358 C1388 0.950 . S
H1359 C1389 0.950 . S
C1360 H1342 0.951 . S
C1360 C1361 1.366 . S
C1360 C1362 1.388 . S
C1361 C1360 1.366 . S
C1361 C1365 1.385 . S
C1362 H1343 0.951 . S
C1362 C1360 1.388 . S
C1362 C1363 1.366 . S
C1363 C1362 1.366 . S
C1363 C1364 1.414 . S
C1363 C1366 1.499 . S
C1364 H1344 0.950 . S
C1364 C1363 1.414 . S
C1364 C1365 1.374 . S
C1365 H1345 0.950 . S
C1365 C1361 1.385 . S
C1365 C1364 1.374 . S
C1366 C1363 1.499 . S
C1366 C1367 1.373 . S
C1366 C1368 1.389 . S
C1367 H1346 0.950 . S
C1367 C1366 1.373 . S
C1367 C1383 1.377 . S
C1368 C1366 1.389 . S
C1368 C1369 1.524 . S
C1368 C1382 1.377 . S
C1369 C1368 1.524 . S
C1369 C1370 1.397 . S
C1369 C1374 1.363 . S
C1370 H1347 0.950 . S
C1370 C1369 1.397 . S
C1370 C1371 1.334 . S
C1371 H1348 0.950 . S
C1371 C1370 1.334 . S
C1371 C1372 1.287 . S
C1372 C1371 1.287 . S
C1372 C1373 1.524 . S
C1372 H1391 0.913 . S
C1373 H1349 0.950 . S
C1373 C1372 1.524 . S
C1373 C1374 1.415 . S
C1374 H1350 0.950 . S
C1374 C1369 1.363 . S
C1374 C1373 1.415 . S
C1375 H1351 0.951 . S
C1375 C1376 1.366 . S
C1375 C1377 1.388 . S
C1376 C1375 1.366 . S
C1376 C1380 1.385 . S
C1377 H1352 0.951 . S
C1377 C1375 1.388 . S
C1377 C1378 1.366 . S
C1378 C1377 1.366 . S
C1378 C1379 1.414 . S
C1378 C1381 1.499 . S
C1379 H1353 0.950 . S
C1379 C1378 1.414 . S
C1379 C1380 1.374 . S
C1380 H1354 0.950 . S
C1380 C1376 1.385 . S
C1380 C1379 1.374 . S
C1381 C1378 1.499 . S
C1381 C1382 1.373 . S
C1381 C1383 1.389 . S
C1382 H1355 0.950 . S
C1382 C1368 1.377 . S
C1382 C1381 1.373 . S
C1383 C1367 1.377 . S
C1383 C1381 1.389 . S
C1383 C1384 1.524 . S
C1384 C1383 1.524 . S
C1384 C1385 1.397 . S
C1384 C1389 1.363 . S
C1385 H1356 0.950 . S
C1385 C1384 1.397 . S
C1385 C1386 1.334 . S
C1386 H1357 0.950 . S
C1386 C1385 1.334 . S
C1386 C1387 1.287 . S
C1387 C1386 1.287 . S
C1387 C1388 1.524 . S
C1387 H1390 0.999 . S
C1388 H1358 0.950 . S
C1388 C1387 1.524 . S
C1388 C1389 1.415 . S
C1389 H1359 0.950 . S
C1389 C1384 1.363 . S
C1389 C1388 1.415 . S
H1390 C1387 0.999 . S
H1391 C1372 0.913 . S
H1392 C1410 0.951 . S
H1393 C1412 0.951 . S
H1394 C1414 0.950 . S
H1395 C1415 0.950 . S
H1396 C1417 0.950 . S
H1397 C1420 0.950 . S
H1398 C1421 0.950 . S
H1399 C1423 0.950 . S
H1400 C1424 0.950 . S
H1401 C1425 0.951 . S
H1402 C1427 0.951 . S
H1403 C1429 0.950 . S
H1404 C1430 0.950 . S
H1405 C1432 0.950 . S
H1406 C1435 0.950 . S
H1407 C1436 0.950 . S
H1408 C1438 0.950 . S
H1409 C1439 0.950 . S
C1410 H1392 0.951 . S
C1410 C1411 1.366 . S
C1410 C1412 1.388 . S
C1411 C1410 1.366 . S
C1411 C1415 1.385 . S
C1412 H1393 0.951 . S
C1412 C1410 1.388 . S
C1412 C1413 1.366 . S
C1413 C1412 1.366 . S
C1413 C1414 1.414 . S
C1413 C1416 1.499 . S
C1414 H1394 0.950 . S
C1414 C1413 1.414 . S
C1414 C1415 1.374 . S
C1415 H1395 0.950 . S
C1415 C1411 1.385 . S
C1415 C1414 1.374 . S
C1416 C1413 1.499 . S
C1416 C1417 1.373 . S
C1416 C1418 1.389 . S
C1417 H1396 0.950 . S
C1417 C1416 1.373 . S
C1417 C1433 1.377 . S
C1418 C1416 1.389 . S
C1418 C1419 1.524 . S
C1418 C1432 1.377 . S
C1419 C1418 1.524 . S
C1419 C1420 1.397 . S
C1419 C1424 1.363 . S
C1420 H1397 0.950 . S
C1420 C1419 1.397 . S
C1420 C1421 1.334 . S
C1421 H1398 0.950 . S
C1421 C1420 1.334 . S
C1421 C1422 1.287 . S
C1422 C1421 1.287 . S
C1422 C1423 1.524 . S
C1422 H1441 0.913 . S
C1423 H1399 0.950 . S
C1423 C1422 1.524 . S
C1423 C1424 1.415 . S
C1424 H1400 0.950 . S
C1424 C1419 1.363 . S
C1424 C1423 1.415 . S
C1425 H1401 0.951 . S
C1425 C1426 1.366 . S
C1425 C1427 1.388 . S
C1426 C1425 1.366 . S
C1426 C1430 1.385 . S
C1427 H1402 0.951 . S
C1427 C1425 1.388 . S
C1427 C1428 1.366 . S
C1428 C1427 1.366 . S
C1428 C1429 1.414 . S
C1428 C1431 1.499 . S
C1429 H1403 0.950 . S
C1429 C1428 1.414 . S
C1429 C1430 1.374 . S
C1430 H1404 0.950 . S
C1430 C1426 1.385 . S
C1430 C1429 1.374 . S
C1431 C1428 1.499 . S
C1431 C1432 1.373 . S
C1431 C1433 1.389 . S
C1432 H1405 0.950 . S
C1432 C1418 1.377 . S
C1432 C1431 1.373 . S
C1433 C1417 1.377 . S
C1433 C1431 1.389 . S
C1433 C1434 1.524 . S
C1434 C1433 1.524 . S
C1434 C1435 1.397 . S
C1434 C1439 1.363 . S
C1435 H1406 0.950 . S
C1435 C1434 1.397 . S
C1435 C1436 1.334 . S
C1436 H1407 0.950 . S
C1436 C1435 1.334 . S
C1436 C1437 1.287 . S
C1437 C1436 1.287 . S
C1437 C1438 1.524 . S
C1437 H1440 0.999 . S
C1438 H1408 0.950 . S
C1438 C1437 1.524 . S
C1438 C1439 1.415 . S
C1439 H1409 0.950 . S
C1439 C1434 1.363 . S
C1439 C1438 1.415 . S
H1440 C1437 0.999 . S
H1441 C1422 0.913 . S
H1442 C1460 0.951 . S
H1443 C1462 0.951 . S
H1444 C1464 0.950 . S
H1445 C1465 0.950 . S
H1446 C1467 0.950 . S
H1447 C1470 0.950 . S
H1448 C1471 0.950 . S
H1449 C1473 0.950 . S
H1450 C1474 0.950 . S
H1451 C1475 0.951 . S
H1452 C1477 0.951 . S
H1453 C1479 0.950 . S
H1454 C1480 0.950 . S
H1455 C1482 0.950 . S
H1456 C1485 0.950 . S
H1457 C1486 0.950 . S
H1458 C1488 0.950 . S
H1459 C1489 0.950 . S
C1460 H1442 0.951 . S
C1460 C1461 1.366 . S
C1460 C1462 1.388 . S
C1461 C1460 1.366 . S
C1461 C1465 1.385 . S
C1462 H1443 0.951 . S
C1462 C1460 1.388 . S
C1462 C1463 1.366 . S
C1463 C1462 1.366 . S
C1463 C1464 1.414 . S
C1463 C1466 1.499 . S
C1464 H1444 0.950 . S
C1464 C1463 1.414 . S
C1464 C1465 1.374 . S
C1465 H1445 0.950 . S
C1465 C1461 1.385 . S
C1465 C1464 1.374 . S
C1466 C1463 1.499 . S
C1466 C1467 1.373 . S
C1466 C1468 1.389 . S
C1467 H1446 0.950 . S
C1467 C1466 1.373 . S
C1467 C1483 1.377 . S
C1468 C1466 1.389 . S
C1468 C1469 1.524 . S
C1468 C1482 1.377 . S
C1469 C1468 1.524 . S
C1469 C1470 1.397 . S
C1469 C1474 1.363 . S
C1470 H1447 0.950 . S
C1470 C1469 1.397 . S
C1470 C1471 1.334 . S
C1471 H1448 0.950 . S
C1471 C1470 1.334 . S
C1471 C1472 1.287 . S
C1472 C1471 1.287 . S
C1472 C1473 1.524 . S
C1472 H1491 0.913 . S
C1473 H1449 0.950 . S
C1473 C1472 1.524 . S
C1473 C1474 1.415 . S
C1474 H1450 0.950 . S
C1474 C1469 1.363 . S
C1474 C1473 1.415 . S
C1475 H1451 0.951 . S
C1475 C1476 1.366 . S
C1475 C1477 1.388 . S
C1476 C1475 1.366 . S
C1476 C1480 1.385 . S
C1477 H1452 0.951 . S
C1477 C1475 1.388 . S
C1477 C1478 1.366 . S
C1478 C1477 1.366 . S
C1478 C1479 1.414 . S
C1478 C1481 1.499 . S
C1479 H1453 0.950 . S
C1479 C1478 1.414 . S
C1479 C1480 1.374 . S
C1480 H1454 0.950 . S
C1480 C1476 1.385 . S
C1480 C1479 1.374 . S
C1481 C1478 1.499 . S
C1481 C1482 1.373 . S
C1481 C1483 1.389 . S
C1482 H1455 0.950 . S
C1482 C1468 1.377 . S
C1482 C1481 1.373 . S
C1483 C1467 1.377 . S
C1483 C1481 1.389 . S
C1483 C1484 1.524 . S
C1484 C1483 1.524 . S
C1484 C1485 1.397 . S
C1484 C1489 1.363 . S
C1485 H1456 0.950 . S
C1485 C1484 1.397 . S
C1485 C1486 1.334 . S
C1486 H1457 0.950 . S
C1486 C1485 1.334 . S
C1486 C1487 1.287 . S
C1487 C1486 1.287 . S
C1487 C1488 1.524 . S
C1487 H1490 0.999 . S
C1488 H1458 0.950 . S
C1488 C1487 1.524 . S
C1488 C1489 1.415 . S
C1489 H1459 0.950 . S
C1489 C1484 1.363 . S
C1489 C1488 1.415 . S
H1490 C1487 0.999 . S
H1491 C1472 0.913 . S
H1492 C1510 0.951 . S
H1493 C1512 0.951 . S
H1494 C1514 0.950 . S
H1495 C1515 0.950 . S
H1496 C1517 0.950 . S
H1497 C1520 0.950 . S
H1498 C1521 0.950 . S
H1499 C1523 0.950 . S
H1500 C1524 0.950 . S
H1501 C1525 0.951 . S
H1502 C1527 0.951 . S
H1503 C1529 0.950 . S
H1504 C1530 0.950 . S
H1505 C1532 0.950 . S
H1506 C1535 0.950 . S
H1507 C1536 0.950 . S
H1508 C1538 0.950 . S
H1509 C1539 0.950 . S
C1510 H1492 0.951 . S
C1510 C1511 1.366 . S
C1510 C1512 1.388 . S
C1511 C1510 1.366 . S
C1511 C1515 1.385 . S
C1512 H1493 0.951 . S
C1512 C1510 1.388 . S
C1512 C1513 1.366 . S
C1513 C1512 1.366 . S
C1513 C1514 1.414 . S
C1513 C1516 1.499 . S
C1514 H1494 0.950 . S
C1514 C1513 1.414 . S
C1514 C1515 1.374 . S
C1515 H1495 0.950 . S
C1515 C1511 1.385 . S
C1515 C1514 1.374 . S
C1516 C1513 1.499 . S
C1516 C1517 1.373 . S
C1516 C1518 1.389 . S
C1517 H1496 0.950 . S
C1517 C1516 1.373 . S
C1517 C1533 1.377 . S
C1518 C1516 1.389 . S
C1518 C1519 1.524 . S
C1518 C1532 1.377 . S
C1519 C1518 1.524 . S
C1519 C1520 1.397 . S
C1519 C1524 1.363 . S
C1520 H1497 0.950 . S
C1520 C1519 1.397 . S
C1520 C1521 1.334 . S
C1521 H1498 0.950 . S
C1521 C1520 1.334 . S
C1521 C1522 1.287 . S
C1522 C1521 1.287 . S
C1522 C1523 1.524 . S
C1522 H1541 0.913 . S
C1523 H1499 0.950 . S
C1523 C1522 1.524 . S
C1523 C1524 1.415 . S
C1524 H1500 0.950 . S
C1524 C1519 1.363 . S
C1524 C1523 1.415 . S
C1525 H1501 0.951 . S
C1525 C1526 1.366 . S
C1525 C1527 1.388 . S
C1526 C1525 1.366 . S
C1526 C1530 1.385 . S
C1527 H1502 0.951 . S
C1527 C1525 1.388 . S
C1527 C1528 1.366 . S
C1528 C1527 1.366 . S
C1528 C1529 1.414 . S
C1528 C1531 1.499 . S
C1529 H1503 0.950 . S
C1529 C1528 1.414 . S
C1529 C1530 1.374 . S
C1530 H1504 0.950 . S
C1530 C1526 1.385 . S
C1530 C1529 1.374 . S
C1531 C1528 1.499 . S
C1531 C1532 1.373 . S
C1531 C1533 1.389 . S
C1532 H1505 0.950 . S
C1532 C1518 1.377 . S
C1532 C1531 1.373 . S
C1533 C1517 1.377 . S
C1533 C1531 1.389 . S
C1533 C1534 1.524 . S
C1534 C1533 1.524 . S
C1534 C1535 1.397 . S
C1534 C1539 1.363 . S
C1535 H1506 0.950 . S
C1535 C1534 1.397 . S
C1535 C1536 1.334 . S
C1536 H1507 0.950 . S
C1536 C1535 1.334 . S
C1536 C1537 1.287 . S
C1537 C1536 1.287 . S
C1537 C1538 1.524 . S
C1537 H1540 0.999 . S
C1538 H1508 0.950 . S
C1538 C1537 1.524 . S
C1538 C1539 1.415 . S
C1539 H1509 0.950 . S
C1539 C1534 1.363 . S
C1539 C1538 1.415 . S
H1540 C1537 0.999 . S
H1541 C1522 0.913 . S
H1542 C1560 0.951 . S
H1543 C1562 0.951 . S
H1544 C1564 0.950 . S
H1545 C1565 0.950 . S
H1546 C1567 0.950 . S
H1547 C1570 0.950 . S
H1548 C1571 0.950 . S
H1549 C1573 0.950 . S
H1550 C1574 0.950 . S
H1551 C1575 0.951 . S
H1552 C1577 0.951 . S
H1553 C1579 0.950 . S
H1554 C1580 0.950 . S
H1555 C1582 0.950 . S
H1556 C1585 0.950 . S
H1557 C1586 0.950 . S
H1558 C1588 0.950 . S
H1559 C1589 0.950 . S
C1560 H1542 0.951 . S
C1560 C1561 1.366 . S
C1560 C1562 1.388 . S
C1561 C1560 1.366 . S
C1561 C1565 1.385 . S
C1562 H1543 0.951 . S
C1562 C1560 1.388 . S
C1562 C1563 1.366 . S
C1563 C1562 1.366 . S
C1563 C1564 1.414 . S
C1563 C1566 1.499 . S
C1564 H1544 0.950 . S
C1564 C1563 1.414 . S
C1564 C1565 1.374 . S
C1565 H1545 0.950 . S
C1565 C1561 1.385 . S
C1565 C1564 1.374 . S
C1566 C1563 1.499 . S
C1566 C1567 1.373 . S
C1566 C1568 1.389 . S
C1567 H1546 0.950 . S
C1567 C1566 1.373 . S
C1567 C1583 1.377 . S
C1568 C1566 1.389 . S
C1568 C1569 1.524 . S
C1568 C1582 1.377 . S
C1569 C1568 1.524 . S
C1569 C1570 1.397 . S
C1569 C1574 1.363 . S
C1570 H1547 0.950 . S
C1570 C1569 1.397 . S
C1570 C1571 1.334 . S
C1571 H1548 0.950 . S
C1571 C1570 1.334 . S
C1571 C1572 1.287 . S
C1572 C1571 1.287 . S
C1572 C1573 1.524 . S
C1572 H1591 0.913 . S
C1573 H1549 0.950 . S
C1573 C1572 1.524 . S
C1573 C1574 1.415 . S
C1574 H1550 0.950 . S
C1574 C1569 1.363 . S
C1574 C1573 1.415 . S
C1575 H1551 0.951 . S
C1575 C1576 1.366 . S
C1575 C1577 1.388 . S
C1576 C1575 1.366 . S
C1576 C1580 1.385 . S
C1577 H1552 0.951 . S
C1577 C1575 1.388 . S
C1577 C1578 1.366 . S
C1578 C1577 1.366 . S
C1578 C1579 1.414 . S
C1578 C1581 1.499 . S
C1579 H1553 0.950 . S
C1579 C1578 1.414 . S
C1579 C1580 1.374 . S
C1580 H1554 0.950 . S
C1580 C1576 1.385 . S
C1580 C1579 1.374 . S
C1581 C1578 1.499 . S
C1581 C1582 1.373 . S
C1581 C1583 1.389 . S
C1582 H1555 0.950 . S
C1582 C1568 1.377 . S
C1582 C1581 1.373 . S
C1583 C1567 1.377 . S
C1583 C1581 1.389 . S
C1583 C1584 1.524 . S
C1584 C1583 1.524 . S
C1584 C1585 1.397 . S
C1584 C1589 1.363 . S
C1585 H1556 0.950 . S
C1585 C1584 1.397 . S
C1585 C1586 1.334 . S
C1586 H1557 0.950 . S
C1586 C1585 1.334 . S
C1586 C1587 1.287 . S
C1587 C1586 1.287 . S
C1587 C1588 1.524 . S
C1587 H1590 0.999 . S
C1588 H1558 0.950 . S
C1588 C1587 1.524 . S
C1588 C1589 1.415 . S
C1589 H1559 0.950 . S
C1589 C1584 1.363 . S
C1589 C1588 1.415 . S
H1590 C1587 0.999 . S
H1591 C1572 0.913 . S
H1592 C1610 0.951 . S
H1593 C1612 0.951 . S
H1594 C1614 0.950 . S
H1595 C1615 0.950 . S
H1596 C1617 0.950 . S
H1597 C1620 0.950 . S
H1598 C1621 0.950 . S
H1599 C1623 0.950 . S
H1600 C1624 0.950 . S
H1601 C1625 0.951 . S
H1602 C1627 0.951 . S
H1603 C1629 0.950 . S
H1604 C1630 0.950 . S
H1605 C1632 0.950 . S
H1606 C1635 0.950 . S
H1607 C1636 0.950 . S
H1608 C1638 0.950 . S
H1609 C1639 0.950 . S
C1610 H1592 0.951 . S
C1610 C1611 1.366 . S
C1610 C1612 1.388 . S
C1611 C1610 1.366 . S
C1611 C1615 1.385 . S
C1612 H1593 0.951 . S
C1612 C1610 1.388 . S
C1612 C1613 1.366 . S
C1613 C1612 1.366 . S
C1613 C1614 1.414 . S
C1613 C1616 1.499 . S
C1614 H1594 0.950 . S
C1614 C1613 1.414 . S
C1614 C1615 1.374 . S
C1615 H1595 0.950 . S
C1615 C1611 1.385 . S
C1615 C1614 1.374 . S
C1616 C1613 1.499 . S
C1616 C1617 1.373 . S
C1616 C1618 1.389 . S
C1617 H1596 0.950 . S
C1617 C1616 1.373 . S
C1617 C1633 1.377 . S
C1618 C1616 1.389 . S
C1618 C1619 1.524 . S
C1618 C1632 1.377 . S
C1619 C1618 1.524 . S
C1619 C1620 1.397 . S
C1619 C1624 1.363 . S
C1620 H1597 0.950 . S
C1620 C1619 1.397 . S
C1620 C1621 1.334 . S
C1621 H1598 0.950 . S
C1621 C1620 1.334 . S
C1621 C1622 1.287 . S
C1622 C1621 1.287 . S
C1622 C1623 1.524 . S
C1622 H1641 0.913 . S
C1623 H1599 0.950 . S
C1623 C1622 1.524 . S
C1623 C1624 1.415 . S
C1624 H1600 0.950 . S
C1624 C1619 1.363 . S
C1624 C1623 1.415 . S
C1625 H1601 0.951 . S
C1625 C1626 1.366 . S
C1625 C1627 1.388 . S
C1626 C1625 1.366 . S
C1626 C1630 1.385 . S
C1627 H1602 0.951 . S
C1627 C1625 1.388 . S
C1627 C1628 1.366 . S
C1628 C1627 1.366 . S
C1628 C1629 1.414 . S
C1628 C1631 1.499 . S
C1629 H1603 0.950 . S
C1629 C1628 1.414 . S
C1629 C1630 1.374 . S
C1630 H1604 0.950 . S
C1630 C1626 1.385 . S
C1630 C1629 1.374 . S
C1631 C1628 1.499 . S
C1631 C1632 1.373 . S
C1631 C1633 1.389 . S
C1632 H1605 0.950 . S
C1632 C1618 1.377 . S
C1632 C1631 1.373 . S
C1633 C1617 1.377 . S
C1633 C1631 1.389 . S
C1633 C1634 1.524 . S
C1634 C1633 1.524 . S
C1634 C1635 1.397 . S
C1634 C1639 1.363 . S
C1635 H1606 0.950 . S
C1635 C1634 1.397 . S
C1635 C1636 1.334 . S
C1636 H1607 0.950 . S
C1636 C1635 1.334 . S
C1636 C1637 1.287 . S
C1637 C1636 1.287 . S
C1637 C1638 1.524 . S
C1637 H1640 0.999 . S
C1638 H1608 0.950 . S
C1638 C1637 1.524 . S
C1638 C1639 1.415 . S
C1639 H1609 0.950 . S
C1639 C1634 1.363 . S
C1639 C1638 1.415 . S
H1640 C1637 0.999 . S
H1641 C1622 0.913 . S
H1642 C1660 0.951 . S
H1643 C1662 0.951 . S
H1644 C1664 0.950 . S
H1645 C1665 0.950 . S
H1646 C1667 0.950 . S
H1647 C1670 0.950 . S
H1648 C1671 0.950 . S
H1649 C1673 0.950 . S
H1650 C1674 0.950 . S
H1651 C1675 0.951 . S
H1652 C1677 0.951 . S
H1653 C1679 0.950 . S
H1654 C1680 0.950 . S
H1655 C1682 0.950 . S
H1656 C1685 0.950 . S
H1657 C1686 0.950 . S
H1658 C1688 0.950 . S
H1659 C1689 0.950 . S
C1660 H1642 0.951 . S
C1660 C1661 1.366 . S
C1660 C1662 1.388 . S
C1661 C1660 1.366 . S
C1661 C1665 1.385 . S
C1662 H1643 0.951 . S
C1662 C1660 1.388 . S
C1662 C1663 1.366 . S
C1663 C1662 1.366 . S
C1663 C1664 1.414 . S
C1663 C1666 1.499 . S
C1664 H1644 0.950 . S
C1664 C1663 1.414 . S
C1664 C1665 1.374 . S
C1665 H1645 0.950 . S
C1665 C1661 1.385 . S
C1665 C1664 1.374 . S
C1666 C1663 1.499 . S
C1666 C1667 1.373 . S
C1666 C1668 1.389 . S
C1667 H1646 0.950 . S
C1667 C1666 1.373 . S
C1667 C1683 1.377 . S
C1668 C1666 1.389 . S
C1668 C1669 1.524 . S
C1668 C1682 1.377 . S
C1669 C1668 1.524 . S
C1669 C1670 1.397 . S
C1669 C1674 1.363 . S
C1670 H1647 0.950 . S
C1670 C1669 1.397 . S
C1670 C1671 1.334 . S
C1671 H1648 0.950 . S
C1671 C1670 1.334 . S
C1671 C1672 1.287 . S
C1672 C1671 1.287 . S
C1672 C1673 1.524 . S
C1672 H1691 0.913 . S
C1673 H1649 0.950 . S
C1673 C1672 1.524 . S
C1673 C1674 1.415 . S
C1674 H1650 0.950 . S
C1674 C1669 1.363 . S
C1674 C1673 1.415 . S
C1675 H1651 0.951 . S
C1675 C1676 1.366 . S
C1675 C1677 1.388 . S
C1676 C1675 1.366 . S
C1676 C1680 1.385 . S
C1677 H1652 0.951 . S
C1677 C1675 1.388 . S
C1677 C1678 1.366 . S
C1678 C1677 1.366 . S
C1678 C1679 1.414 . S
C1678 C1681 1.499 . S
C1679 H1653 0.950 . S
C1679 C1678 1.414 . S
C1679 C1680 1.374 . S
C1680 H1654 0.950 . S
C1680 C1676 1.385 . S
C1680 C1679 1.374 . S
C1681 C1678 1.499 . S
C1681 C1682 1.373 . S
C1681 C1683 1.389 . S
C1682 H1655 0.950 . S
C1682 C1668 1.377 . S
C1682 C1681 1.373 . S
C1683 C1667 1.377 . S
C1683 C1681 1.389 . S
C1683 C1684 1.524 . S
C1684 C1683 1.524 . S
C1684 C1685 1.397 . S
C1684 C1689 1.363 . S
C1685 H1656 0.950 . S
C1685 C1684 1.397 . S
C1685 C1686 1.334 . S
C1686 H1657 0.950 . S
C1686 C1685 1.334 . S
C1686 C1687 1.287 . S
C1687 C1686 1.287 . S
C1687 C1688 1.524 . S
C1687 H1690 0.999 . S
C1688 H1658 0.950 . S
C1688 C1687 1.524 . S
C1688 C1689 1.415 . S
C1689 H1659 0.950 . S
C1689 C1684 1.363 . S
C1689 C1688 1.415 . S
H1690 C1687 0.999 . S
H1691 C1672 0.913 . S
H1692 C1710 0.951 . S
H1693 C1712 0.951 . S
H1694 C1714 0.950 . S
H1695 C1715 0.950 . S
H1696 C1717 0.950 . S
H1697 C1720 0.950 . S
H1698 C1721 0.950 . S
H1699 C1723 0.950 . S
H1700 C1724 0.950 . S
H1701 C1725 0.951 . S
H1702 C1727 0.951 . S
H1703 C1729 0.950 . S
H1704 C1730 0.950 . S
H1705 C1732 0.950 . S
H1706 C1735 0.950 . S
H1707 C1736 0.950 . S
H1708 C1738 0.950 . S
H1709 C1739 0.950 . S
C1710 H1692 0.951 . S
C1710 C1711 1.366 . S
C1710 C1712 1.388 . S
C1711 C1710 1.366 . S
C1711 C1715 1.385 . S
C1712 H1693 0.951 . S
C1712 C1710 1.388 . S
C1712 C1713 1.366 . S
C1713 C1712 1.366 . S
C1713 C1714 1.414 . S
C1713 C1716 1.499 . S
C1714 H1694 0.950 . S
C1714 C1713 1.414 . S
C1714 C1715 1.374 . S
C1715 H1695 0.950 . S
C1715 C1711 1.385 . S
C1715 C1714 1.374 . S
C1716 C1713 1.499 . S
C1716 C1717 1.373 . S
C1716 C1718 1.389 . S
C1717 H1696 0.950 . S
C1717 C1716 1.373 . S
C1717 C1733 1.377 . S
C1718 C1716 1.389 . S
C1718 C1719 1.524 . S
C1718 C1732 1.377 . S
C1719 C1718 1.524 . S
C1719 C1720 1.397 . S
C1719 C1724 1.363 . S
C1720 H1697 0.950 . S
C1720 C1719 1.397 . S
C1720 C1721 1.334 . S
C1721 H1698 0.950 . S
C1721 C1720 1.334 . S
C1721 C1722 1.287 . S
C1722 C1721 1.287 . S
C1722 C1723 1.524 . S
C1722 H1741 0.913 . S
C1723 H1699 0.950 . S
C1723 C1722 1.524 . S
C1723 C1724 1.415 . S
C1724 H1700 0.950 . S
C1724 C1719 1.363 . S
C1724 C1723 1.415 . S
C1725 H1701 0.951 . S
C1725 C1726 1.366 . S
C1725 C1727 1.388 . S
C1726 C1725 1.366 . S
C1726 C1730 1.385 . S
C1727 H1702 0.951 . S
C1727 C1725 1.388 . S
C1727 C1728 1.366 . S
C1728 C1727 1.366 . S
C1728 C1729 1.414 . S
C1728 C1731 1.499 . S
C1729 H1703 0.950 . S
C1729 C1728 1.414 . S
C1729 C1730 1.374 . S
C1730 H1704 0.950 . S
C1730 C1726 1.385 . S
C1730 C1729 1.374 . S
C1731 C1728 1.499 . S
C1731 C1732 1.373 . S
C1731 C1733 1.389 . S
C1732 H1705 0.950 . S
C1732 C1718 1.377 . S
C1732 C1731 1.373 . S
C1733 C1717 1.377 . S
C1733 C1731 1.389 . S
C1733 C1734 1.524 . S
C1734 C1733 1.524 . S
C1734 C1735 1.397 . S
C1734 C1739 1.363 . S
C1735 H1706 0.950 . S
C1735 C1734 1.397 . S
C1735 C1736 1.334 . S
C1736 H1707 0.950 . S
C1736 C1735 1.334 . S
C1736 C1737 1.287 . S
C1737 C1736 1.287 . S
C1737 C1738 1.524 . S
C1737 H1740 0.999 . S
C1738 H1708 0.950 . S
C1738 C1737 1.524 . S
C1738 C1739 1.415 . S
C1739 H1709 0.950 . S
C1739 C1734 1.363 . S
C1739 C1738 1.415 . S
H1740 C1737 0.999 . S
H1741 C1722 0.913 . S
H1742 C1760 0.951 . S
H1743 C1762 0.951 . S
H1744 C1764 0.950 . S
H1745 C1765 0.950 . S
H1746 C1767 0.950 . S
H1747 C1770 0.950 . S
H1748 C1771 0.950 . S
H1749 C1773 0.950 . S
H1750 C1774 0.950 . S
H1751 C1775 0.951 . S
H1752 C1777 0.951 . S
H1753 C1779 0.950 . S
H1754 C1780 0.950 . S
H1755 C1782 0.950 . S
H1756 C1785 0.950 . S
H1757 C1786 0.950 . S
H1758 C1788 0.950 . S
H1759 C1789 0.950 . S
C1760 H1742 0.951 . S
C1760 C1761 1.366 . S
C1760 C1762 1.388 . S
C1761 C1760 1.366 . S
C1761 C1765 1.385 . S
C1762 H1743 0.951 . S
C1762 C1760 1.388 . S
C1762 C1763 1.366 . S
C1763 C1762 1.366 . S
C1763 C1764 1.414 . S
C1763 C1766 1.499 . S
C1764 H1744 0.950 . S
C1764 C1763 1.414 . S
C1764 C1765 1.374 . S
C1765 H1745 0.950 . S
C1765 C1761 1.385 . S
C1765 C1764 1.374 . S
C1766 C1763 1.499 . S
C1766 C1767 1.373 . S
C1766 C1768 1.389 . S
C1767 H1746 0.950 . S
C1767 C1766 1.373 . S
C1767 C1783 1.377 . S
C1768 C1766 1.389 . S
C1768 C1769 1.524 . S
C1768 C1782 1.377 . S
C1769 C1768 1.524 . S
C1769 C1770 1.397 . S
C1769 C1774 1.363 . S
C1770 H1747 0.950 . S
C1770 C1769 1.397 . S
C1770 C1771 1.334 . S
C1771 H1748 0.950 . S
C1771 C1770 1.334 . S
C1771 C1772 1.287 . S
C1772 C1771 1.287 . S
C1772 C1773 1.524 . S
C1772 H1791 0.913 . S
C1773 H1749 0.950 . S
C1773 C1772 1.524 . S
C1773 C1774 1.415 . S
C1774 H1750 0.950 . S
C1774 C1769 1.363 . S
C1774 C1773 1.415 . S
C1775 H1751 0.951 . S
C1775 C1776 1.366 . S
C1775 C1777 1.388 . S
C1776 C1775 1.366 . S
C1776 C1780 1.385 . S
C1777 H1752 0.951 . S
C1777 C1775 1.388 . S
C1777 C1778 1.366 . S
C1778 C1777 1.366 . S
C1778 C1779 1.414 . S
C1778 C1781 1.499 . S
C1779 H1753 0.950 . S
C1779 C1778 1.414 . S
C1779 C1780 1.374 . S
C1780 H1754 0.950 . S
C1780 C1776 1.385 . S
C1780 C1779 1.374 . S
C1781 C1778 1.499 . S
C1781 C1782 1.373 . S
C1781 C1783 1.389 . S
C1782 H1755 0.950 . S
C1782 C1768 1.377 . S
C1782 C1781 1.373 . S
C1783 C1767 1.377 . S
C1783 C1781 1.389 . S
C1783 C1784 1.524 . S
C1784 C1783 1.524 . S
C1784 C1785 1.397 . S
C1784 C1789 1.363 . S
C1785 H1756 0.950 . S
C1785 C1784 1.397 . S
C1785 C1786 1.334 . S
C1786 H1757 0.950 . S
C1786 C1785 1.334 . S
C1786 C1787 1.287 . S
C1787 C1786 1.287 . S
C1787 C1788 1.524 . S
C1787 H1790 0.999 1_556 S
C1788 H1758 0.950 . S
C1788 C1787 1.524 . S
C1788 C1789 1.415 . S
C1789 H1759 0.950 . S
C1789 C1784 1.363 . S
C1789 C1788 1.415 . S
H1790 C1787 0.999 1_554 S
H1791 C1772 0.913 . S
H1792 C1810 0.951 . S
H1793 C1812 0.951 . S
H1794 C1814 0.950 . S
H1795 C1815 0.950 . S
H1796 C1817 0.950 . S
H1797 C1820 0.950 . S
H1798 C1821 0.950 . S
H1799 C1823 0.950 . S
H1800 C1824 0.950 . S
H1801 C1825 0.951 . S
H1802 C1827 0.951 . S
H1803 C1829 0.950 . S
H1804 C1830 0.950 . S
H1805 C1832 0.950 . S
H1806 C1835 0.950 . S
H1807 C1836 0.950 . S
H1808 C1838 0.950 . S
H1809 C1839 0.950 . S
C1810 H1792 0.951 . S
C1810 C1811 1.366 . S
C1810 C1812 1.388 . S
C1811 C1810 1.366 . S
C1811 C1815 1.385 . S
C1812 H1793 0.951 . S
C1812 C1810 1.388 . S
C1812 C1813 1.366 . S
C1813 C1812 1.366 . S
C1813 C1814 1.414 . S
C1813 C1816 1.499 . S
C1814 H1794 0.950 . S
C1814 C1813 1.414 . S
C1814 C1815 1.374 . S
C1815 H1795 0.950 . S
C1815 C1811 1.385 . S
C1815 C1814 1.374 . S
C1816 C1813 1.499 . S
C1816 C1817 1.373 . S
C1816 C1818 1.389 . S
C1817 H1796 0.950 . S
C1817 C1816 1.373 . S
C1817 C1833 1.377 . S
C1818 C1816 1.389 . S
C1818 C1819 1.524 . S
C1818 C1832 1.377 . S
C1819 C1818 1.524 . S
C1819 C1820 1.397 . S
C1819 C1824 1.363 . S
C1820 H1797 0.950 . S
C1820 C1819 1.397 . S
C1820 C1821 1.334 . S
C1821 H1798 0.950 . S
C1821 C1820 1.334 . S
C1821 C1822 1.287 . S
C1822 C1821 1.287 . S
C1822 C1823 1.524 . S
C1822 H1841 0.913 . S
C1823 H1799 0.950 . S
C1823 C1822 1.524 . S
C1823 C1824 1.415 . S
C1824 H1800 0.950 . S
C1824 C1819 1.363 . S
C1824 C1823 1.415 . S
C1825 H1801 0.951 . S
C1825 C1826 1.366 . S
C1825 C1827 1.388 . S
C1826 C1825 1.366 . S
C1826 C1830 1.385 . S
C1827 H1802 0.951 . S
C1827 C1825 1.388 . S
C1827 C1828 1.366 . S
C1828 C1827 1.366 . S
C1828 C1829 1.414 . S
C1828 C1831 1.499 . S
C1829 H1803 0.950 . S
C1829 C1828 1.414 . S
C1829 C1830 1.374 . S
C1830 H1804 0.950 . S
C1830 C1826 1.385 . S
C1830 C1829 1.374 . S
C1831 C1828 1.499 . S
C1831 C1832 1.373 . S
C1831 C1833 1.389 . S
C1832 H1805 0.950 . S
C1832 C1818 1.377 . S
C1832 C1831 1.373 . S
C1833 C1817 1.377 . S
C1833 C1831 1.389 . S
C1833 C1834 1.524 . S
C1834 C1833 1.524 . S
C1834 C1835 1.397 . S
C1834 C1839 1.363 . S
C1835 H1806 0.950 . S
C1835 C1834 1.397 . S
C1835 C1836 1.334 . S
C1836 H1807 0.950 . S
C1836 C1835 1.334 . S
C1836 C1837 1.287 . S
C1837 C1836 1.287 . S
C1837 C1838 1.524 . S
C1837 H1840 0.999 . S
C1838 H1808 0.950 . S
C1838 C1837 1.524 . S
C1838 C1839 1.415 . S
C1839 H1809 0.950 . S
C1839 C1834 1.363 . S
C1839 C1838 1.415 . S
H1840 C1837 0.999 . S
H1841 C1822 0.913 . S
H1842 C1860 0.951 . S
H1843 C1862 0.951 . S
H1844 C1864 0.950 . S
H1845 C1865 0.950 . S
H1846 C1867 0.950 . S
H1847 C1870 0.950 . S
H1848 C1871 0.950 . S
H1849 C1873 0.950 . S
H1850 C1874 0.950 . S
H1851 C1875 0.951 . S
H1852 C1877 0.951 . S
H1853 C1879 0.950 . S
H1854 C1880 0.950 . S
H1855 C1882 0.950 . S
H1856 C1885 0.950 . S
H1857 C1886 0.950 . S
H1858 C1888 0.950 . S
H1859 C1889 0.950 . S
C1860 H1842 0.951 . S
C1860 C1861 1.366 . S
C1860 C1862 1.388 . S
C1861 C1860 1.366 . S
C1861 C1865 1.385 . S
C1862 H1843 0.951 . S
C1862 C1860 1.388 . S
C1862 C1863 1.366 . S
C1863 C1862 1.366 . S
C1863 C1864 1.414 . S
C1863 C1866 1.499 . S
C1864 H1844 0.950 . S
C1864 C1863 1.414 . S
C1864 C1865 1.374 . S
C1865 H1845 0.950 . S
C1865 C1861 1.385 . S
C1865 C1864 1.374 . S
C1866 C1863 1.499 . S
C1866 C1867 1.373 . S
C1866 C1868 1.389 . S
C1867 H1846 0.950 . S
C1867 C1866 1.373 . S
C1867 C1883 1.377 . S
C1868 C1866 1.389 . S
C1868 C1869 1.524 . S
C1868 C1882 1.377 . S
C1869 C1868 1.524 . S
C1869 C1870 1.397 . S
C1869 C1874 1.363 . S
C1870 H1847 0.950 . S
C1870 C1869 1.397 . S
C1870 C1871 1.334 . S
C1871 H1848 0.950 . S
C1871 C1870 1.334 . S
C1871 C1872 1.287 . S
C1872 C1871 1.287 . S
C1872 C1873 1.524 . S
C1872 H1891 0.913 . S
C1873 H1849 0.950 . S
C1873 C1872 1.524 . S
C1873 C1874 1.415 . S
C1874 H1850 0.950 . S
C1874 C1869 1.363 . S
C1874 C1873 1.415 . S
C1875 H1851 0.951 . S
C1875 C1876 1.366 . S
C1875 C1877 1.388 . S
C1876 C1875 1.366 . S
C1876 C1880 1.385 . S
C1877 H1852 0.951 . S
C1877 C1875 1.388 . S
C1877 C1878 1.366 . S
C1878 C1877 1.366 . S
C1878 C1879 1.414 . S
C1878 C1881 1.499 . S
C1879 H1853 0.950 . S
C1879 C1878 1.414 . S
C1879 C1880 1.374 . S
C1880 H1854 0.950 . S
C1880 C1876 1.385 . S
C1880 C1879 1.374 . S
C1881 C1878 1.499 . S
C1881 C1882 1.373 . S
C1881 C1883 1.389 . S
C1882 H1855 0.950 . S
C1882 C1868 1.377 . S
C1882 C1881 1.373 . S
C1883 C1867 1.377 . S
C1883 C1881 1.389 . S
C1883 C1884 1.524 . S
C1884 C1883 1.524 . S
C1884 C1885 1.397 . S
C1884 C1889 1.363 . S
C1885 H1856 0.950 . S
C1885 C1884 1.397 . S
C1885 C1886 1.334 . S
C1886 H1857 0.950 . S
C1886 C1885 1.334 . S
C1886 C1887 1.287 . S
C1887 C1886 1.287 . S
C1887 C1888 1.524 . S
C1887 H1890 0.999 . S
C1888 H1858 0.950 . S
C1888 C1887 1.524 . S
C1888 C1889 1.415 . S
C1889 H1859 0.950 . S
C1889 C1884 1.363 . S
C1889 C1888 1.415 . S
H1890 C1887 0.999 . S
H1891 C1872 0.913 . S
H1892 C1910 0.951 . S
H1893 C1912 0.951 . S
H1894 C1914 0.950 . S
H1895 C1915 0.950 . S
H1896 C1917 0.950 . S
H1897 C1920 0.950 . S
H1898 C1921 0.950 . S
H1899 C1923 0.950 . S
H1900 C1924 0.950 . S
H1901 C1925 0.951 . S
H1902 C1927 0.951 . S
H1903 C1929 0.950 . S
H1904 C1930 0.950 . S
H1905 C1932 0.950 . S
H1906 C1935 0.950 . S
H1907 C1936 0.950 . S
H1908 C1938 0.950 . S
H1909 C1939 0.950 . S
C1910 H1892 0.951 . S
C1910 C1911 1.366 . S
C1910 C1912 1.388 . S
C1911 C1910 1.366 . S
C1911 C1915 1.385 . S
C1912 H1893 0.951 . S
C1912 C1910 1.388 . S
C1912 C1913 1.366 . S
C1913 C1912 1.366 . S
C1913 C1914 1.414 . S
C1913 C1916 1.499 . S
C1914 H1894 0.950 . S
C1914 C1913 1.414 . S
C1914 C1915 1.374 . S
C1915 H1895 0.950 . S
C1915 C1911 1.385 . S
C1915 C1914 1.374 . S
C1916 C1913 1.499 . S
C1916 C1917 1.373 . S
C1916 C1918 1.389 . S
C1917 H1896 0.950 . S
C1917 C1916 1.373 . S
C1917 C1933 1.377 . S
C1918 C1916 1.389 . S
C1918 C1919 1.524 . S
C1918 C1932 1.377 . S
C1919 C1918 1.524 . S
C1919 C1920 1.397 . S
C1919 C1924 1.363 . S
C1920 H1897 0.950 . S
C1920 C1919 1.397 . S
C1920 C1921 1.334 . S
C1921 H1898 0.950 . S
C1921 C1920 1.334 . S
C1921 C1922 1.287 . S
C1922 C1921 1.287 . S
C1922 C1923 1.524 . S
C1922 H1941 0.913 . S
C1923 H1899 0.950 . S
C1923 C1922 1.524 . S
C1923 C1924 1.415 . S
C1924 H1900 0.950 . S
C1924 C1919 1.363 . S
C1924 C1923 1.415 . S
C1925 H1901 0.951 . S
C1925 C1926 1.366 . S
C1925 C1927 1.388 . S
C1926 C1925 1.366 . S
C1926 C1930 1.385 . S
C1927 H1902 0.951 . S
C1927 C1925 1.388 . S
C1927 C1928 1.366 . S
C1928 C1927 1.366 . S
C1928 C1929 1.414 . S
C1928 C1931 1.499 . S
C1929 H1903 0.950 . S
C1929 C1928 1.414 . S
C1929 C1930 1.374 . S
C1930 H1904 0.950 . S
C1930 C1926 1.385 . S
C1930 C1929 1.374 . S
C1931 C1928 1.499 . S
C1931 C1932 1.373 . S
C1931 C1933 1.389 . S
C1932 H1905 0.950 . S
C1932 C1918 1.377 . S
C1932 C1931 1.373 . S
C1933 C1917 1.377 . S
C1933 C1931 1.389 . S
C1933 C1934 1.524 . S
C1934 C1933 1.524 . S
C1934 C1935 1.397 . S
C1934 C1939 1.363 . S
C1935 H1906 0.950 . S
C1935 C1934 1.397 . S
C1935 C1936 1.334 . S
C1936 H1907 0.950 . S
C1936 C1935 1.334 . S
C1936 C1937 1.287 . S
C1937 C1936 1.287 . S
C1937 C1938 1.524 . S
C1937 H1940 0.999 . S
C1938 H1908 0.950 . S
C1938 C1937 1.524 . S
C1938 C1939 1.415 . S
C1939 H1909 0.950 . S
C1939 C1934 1.363 . S
C1939 C1938 1.415 . S
H1940 C1937 0.999 . S
H1941 C1922 0.913 . S
H1942 C1960 0.951 . S
H1943 C1962 0.951 . S
H1944 C1964 0.950 . S
H1945 C1965 0.950 . S
H1946 C1967 0.950 . S
H1947 C1970 0.950 . S
H1948 C1971 0.950 . S
H1949 C1973 0.950 . S
H1950 C1974 0.950 . S
H1951 C1975 0.951 . S
H1952 C1977 0.951 . S
H1953 C1979 0.950 . S
H1954 C1980 0.950 . S
H1955 C1982 0.950 . S
H1956 C1985 0.950 . S
H1957 C1986 0.950 . S
H1958 C1988 0.950 . S
H1959 C1989 0.950 . S
C1960 H1942 0.951 . S
C1960 C1961 1.366 . S
C1960 C1962 1.388 . S
C1961 C1960 1.366 . S
C1961 C1965 1.385 . S
C1962 H1943 0.951 . S
C1962 C1960 1.388 . S
C1962 C1963 1.366 . S
C1963 C1962 1.366 . S
C1963 C1964 1.414 . S
C1963 C1966 1.499 . S
C1964 H1944 0.950 . S
C1964 C1963 1.414 . S
C1964 C1965 1.374 . S
C1965 H1945 0.950 . S
C1965 C1961 1.385 . S
C1965 C1964 1.374 . S
C1966 C1963 1.499 . S
C1966 C1967 1.373 . S
C1966 C1968 1.389 . S
C1967 H1946 0.950 . S
C1967 C1966 1.373 . S
C1967 C1983 1.377 . S
C1968 C1966 1.389 . S
C1968 C1969 1.524 . S
C1968 C1982 1.377 . S
C1969 C1968 1.524 . S
C1969 C1970 1.397 . S
C1969 C1974 1.363 . S
C1970 H1947 0.950 . S
C1970 C1969 1.397 . S
C1970 C1971 1.334 . S
C1971 H1948 0.950 . S
C1971 C1970 1.334 . S
C1971 C1972 1.287 . S
C1972 C1971 1.287 . S
C1972 C1973 1.524 . S
C1972 H1991 0.913 . S
C1973 H1949 0.950 . S
C1973 C1972 1.524 . S
C1973 C1974 1.415 . S
C1974 H1950 0.950 . S
C1974 C1969 1.363 . S
C1974 C1973 1.415 . S
C1975 H1951 0.951 . S
C1975 C1976 1.366 . S
C1975 C1977 1.388 . S
C1976 C1975 1.366 . S
C1976 C1980 1.385 . S
C1977 H1952 0.951 . S
C1977 C1975 1.388 . S
C1977 C1978 1.366 . S
C1978 C1977 1.366 . S
C1978 C1979 1.414 . S
C1978 C1981 1.499 . S
C1979 H1953 0.950 . S
C1979 C1978 1.414 . S
C1979 C1980 1.374 . S
C1980 H1954 0.950 . S
C1980 C1976 1.385 . S
C1980 C1979 1.374 . S
C1981 C1978 1.499 . S
C1981 C1982 1.373 . S
C1981 C1983 1.389 . S
C1982 H1955 0.950 . S
C1982 C1968 1.377 . S
C1982 C1981 1.373 . S
C1983 C1967 1.377 . S
C1983 C1981 1.389 . S
C1983 C1984 1.524 . S
C1984 C1983 1.524 . S
C1984 C1985 1.397 . S
C1984 C1989 1.363 . S
C1985 H1956 0.950 . S
C1985 C1984 1.397 . S
C1985 C1986 1.334 . S
C1986 H1957 0.950 . S
C1986 C1985 1.334 . S
C1986 C1987 1.287 . S
C1987 C1986 1.287 . S
C1987 C1988 1.524 . S
C1987 H1990 0.999 . S
C1988 H1958 0.950 . S
C1988 C1987 1.524 . S
C1988 C1989 1.415 . S
C1989 H1959 0.950 . S
C1989 C1984 1.363 . S
C1989 C1988 1.415 . S
H1990 C1987 0.999 . S
H1991 C1972 0.913 . S
H1992 C2010 0.951 . S
H1993 C2012 0.951 . S
H1994 C2014 0.950 . S
H1995 C2015 0.950 . S
H1996 C2017 0.950 . S
H1997 C2020 0.950 . S
H1998 C2021 0.950 . S
H1999 C2023 0.950 . S
H2000 C2024 0.950 . S
H2001 C2025 0.951 . S
H2002 C2027 0.951 . S
H2003 C2029 0.950 . S
H2004 C2030 0.950 . S
H2005 C2032 0.950 . S
H2006 C2035 0.950 . S
H2007 C2036 0.950 . S
H2008 C2038 0.950 . S
H2009 C2039 0.950 . S
C2010 H1992 0.951 . S
C2010 C2011 1.366 . S
C2010 C2012 1.388 . S
C2011 C2010 1.366 . S
C2011 C2015 1.385 . S
C2012 H1993 0.951 . S
C2012 C2010 1.388 . S
C2012 C2013 1.366 . S
C2013 C2012 1.366 . S
C2013 C2014 1.414 . S
C2013 C2016 1.499 . S
C2014 H1994 0.950 . S
C2014 C2013 1.414 . S
C2014 C2015 1.374 . S
C2015 H1995 0.950 . S
C2015 C2011 1.385 . S
C2015 C2014 1.374 . S
C2016 C2013 1.499 . S
C2016 C2017 1.373 . S
C2016 C2018 1.389 . S
C2017 H1996 0.950 . S
C2017 C2016 1.373 . S
C2017 C2033 1.377 . S
C2018 C2016 1.389 . S
C2018 C2019 1.524 . S
C2018 C2032 1.377 . S
C2019 C2018 1.524 . S
C2019 C2020 1.397 . S
C2019 C2024 1.363 . S
C2020 H1997 0.950 . S
C2020 C2019 1.397 . S
C2020 C2021 1.334 . S
C2021 H1998 0.950 . S
C2021 C2020 1.334 . S
C2021 C2022 1.287 . S
C2022 C2021 1.287 . S
C2022 C2023 1.524 . S
C2022 H2041 0.913 . S
C2023 H1999 0.950 . S
C2023 C2022 1.524 . S
C2023 C2024 1.415 . S
C2024 H2000 0.950 . S
C2024 C2019 1.363 . S
C2024 C2023 1.415 . S
C2025 H2001 0.951 . S
C2025 C2026 1.366 . S
C2025 C2027 1.388 . S
C2026 C2025 1.366 . S
C2026 C2030 1.385 . S
C2027 H2002 0.951 . S
C2027 C2025 1.388 . S
C2027 C2028 1.366 . S
C2028 C2027 1.366 . S
C2028 C2029 1.414 . S
C2028 C2031 1.499 . S
C2029 H2003 0.950 . S
C2029 C2028 1.414 . S
C2029 C2030 1.374 . S
C2030 H2004 0.950 . S
C2030 C2026 1.385 . S
C2030 C2029 1.374 . S
C2031 C2028 1.499 . S
C2031 C2032 1.373 . S
C2031 C2033 1.389 . S
C2032 H2005 0.950 . S
C2032 C2018 1.377 . S
C2032 C2031 1.373 . S
C2033 C2017 1.377 . S
C2033 C2031 1.389 . S
C2033 C2034 1.524 . S
C2034 C2033 1.524 . S
C2034 C2035 1.397 . S
C2034 C2039 1.363 . S
C2035 H2006 0.950 . S
C2035 C2034 1.397 . S
C2035 C2036 1.334 . S
C2036 H2007 0.950 . S
C2036 C2035 1.334 . S
C2036 C2037 1.287 . S
C2037 C2036 1.287 . S
C2037 C2038 1.524 . S
C2037 H2040 0.999 . S
C2038 H2008 0.950 . S
C2038 C2037 1.524 . S
C2038 C2039 1.415 . S
C2039 H2009 0.950 . S
C2039 C2034 1.363 . S
C2039 C2038 1.415 . S
H2040 C2037 0.999 . S
H2041 C2022 0.913 . S
H2042 C2060 0.951 . S
H2043 C2062 0.951 . S
H2044 C2064 0.950 . S
H2045 C2065 0.950 . S
H2046 C2067 0.950 . S
H2047 C2070 0.950 . S
H2048 C2071 0.950 . S
H2049 C2073 0.950 . S
H2050 C2074 0.950 . S
H2051 C2075 0.951 . S
H2052 C2077 0.951 . S
H2053 C2079 0.950 . S
H2054 C2080 0.950 . S
H2055 C2082 0.950 . S
H2056 C2085 0.950 . S
H2057 C2086 0.950 . S
H2058 C2088 0.950 . S
H2059 C2089 0.950 . S
C2060 H2042 0.951 . S
C2060 C2061 1.366 . S
C2060 C2062 1.388 . S
C2061 C2060 1.366 . S
C2061 C2065 1.385 . S
C2062 H2043 0.951 . S
C2062 C2060 1.388 . S
C2062 C2063 1.366 . S
C2063 C2062 1.366 . S
C2063 C2064 1.414 . S
C2063 C2066 1.499 . S
C2064 H2044 0.950 . S
C2064 C2063 1.414 . S
C2064 C2065 1.374 . S
C2065 H2045 0.950 . S
C2065 C2061 1.385 . S
C2065 C2064 1.374 . S
C2066 C2063 1.499 . S
C2066 C2067 1.373 . S
C2066 C2068 1.389 . S
C2067 H2046 0.950 . S
C2067 C2066 1.373 . S
C2067 C2083 1.377 . S
C2068 C2066 1.389 . S
C2068 C2069 1.524 . S
C2068 C2082 1.377 . S
C2069 C2068 1.524 . S
C2069 C2070 1.397 . S
C2069 C2074 1.363 . S
C2070 H2047 0.950 . S
C2070 C2069 1.397 . S
C2070 C2071 1.334 . S
C2071 H2048 0.950 . S
C2071 C2070 1.334 . S
C2071 C2072 1.287 . S
C2072 C2071 1.287 . S
C2072 C2073 1.524 . S
C2072 H2091 0.913 . S
C2073 H2049 0.950 . S
C2073 C2072 1.524 . S
C2073 C2074 1.415 . S
C2074 H2050 0.950 . S
C2074 C2069 1.363 . S
C2074 C2073 1.415 . S
C2075 H2051 0.951 . S
C2075 C2076 1.366 . S
C2075 C2077 1.388 . S
C2076 C2075 1.366 . S
C2076 C2080 1.385 . S
C2077 H2052 0.951 . S
C2077 C2075 1.388 . S
C2077 C2078 1.366 . S
C2078 C2077 1.366 . S
C2078 C2079 1.414 . S
C2078 C2081 1.499 . S
C2079 H2053 0.950 . S
C2079 C2078 1.414 . S
C2079 C2080 1.374 . S
C2080 H2054 0.950 . S
C2080 C2076 1.385 . S
C2080 C2079 1.374 . S
C2081 C2078 1.499 . S
C2081 C2082 1.373 . S
C2081 C2083 1.389 . S
C2082 H2055 0.950 . S
C2082 C2068 1.377 . S
C2082 C2081 1.373 . S
C2083 C2067 1.377 . S
C2083 C2081 1.389 . S
C2083 C2084 1.524 . S
C2084 C2083 1.524 . S
C2084 C2085 1.397 . S
C2084 C2089 1.363 . S
C2085 H2056 0.950 . S
C2085 C2084 1.397 . S
C2085 C2086 1.334 . S
C2086 H2057 0.950 . S
C2086 C2085 1.334 . S
C2086 C2087 1.287 . S
C2087 C2086 1.287 . S
C2087 C2088 1.524 . S
C2087 H2090 0.999 . S
C2088 H2058 0.950 . S
C2088 C2087 1.524 . S
C2088 C2089 1.415 . S
C2089 H2059 0.950 . S
C2089 C2084 1.363 . S
C2089 C2088 1.415 . S
H2090 C2087 0.999 . S
H2091 C2072 0.913 . S
H2092 C2110 0.951 . S
H2093 C2112 0.951 . S
H2094 C2114 0.950 . S
H2095 C2115 0.950 . S
H2096 C2117 0.950 . S
H2097 C2120 0.950 . S
H2098 C2121 0.950 . S
H2099 C2123 0.950 . S
H2100 C2124 0.950 . S
H2101 C2125 0.951 . S
H2102 C2127 0.951 . S
H2103 C2129 0.950 . S
H2104 C2130 0.950 . S
H2105 C2132 0.950 . S
H2106 C2135 0.950 . S
H2107 C2136 0.950 . S
H2108 C2138 0.950 . S
H2109 C2139 0.950 . S
C2110 H2092 0.951 . S
C2110 C2111 1.366 . S
C2110 C2112 1.388 . S
C2111 C2110 1.366 . S
C2111 C2115 1.385 . S
C2112 H2093 0.951 . S
C2112 C2110 1.388 . S
C2112 C2113 1.366 . S
C2113 C2112 1.366 . S
C2113 C2114 1.414 . S
C2113 C2116 1.499 . S
C2114 H2094 0.950 . S
C2114 C2113 1.414 . S
C2114 C2115 1.374 . S
C2115 H2095 0.950 . S
C2115 C2111 1.385 . S
C2115 C2114 1.374 . S
C2116 C2113 1.499 . S
C2116 C2117 1.373 . S
C2116 C2118 1.389 . S
C2117 H2096 0.950 . S
C2117 C2116 1.373 . S
C2117 C2133 1.377 . S
C2118 C2116 1.389 . S
C2118 C2119 1.524 . S
C2118 C2132 1.377 . S
C2119 C2118 1.524 . S
C2119 C2120 1.397 . S
C2119 C2124 1.363 . S
C2120 H2097 0.950 . S
C2120 C2119 1.397 . S
C2120 C2121 1.334 . S
C2121 H2098 0.950 . S
C2121 C2120 1.334 . S
C2121 C2122 1.287 . S
C2122 C2121 1.287 . S
C2122 C2123 1.524 . S
C2122 H2141 0.913 . S
C2123 H2099 0.950 . S
C2123 C2122 1.524 . S
C2123 C2124 1.415 . S
C2124 H2100 0.950 . S
C2124 C2119 1.363 . S
C2124 C2123 1.415 . S
C2125 H2101 0.951 . S
C2125 C2126 1.366 . S
C2125 C2127 1.388 . S
C2126 C2125 1.366 . S
C2126 C2130 1.385 . S
C2127 H2102 0.951 . S
C2127 C2125 1.388 . S
C2127 C2128 1.366 . S
C2128 C2127 1.366 . S
C2128 C2129 1.414 . S
C2128 C2131 1.499 . S
C2129 H2103 0.950 . S
C2129 C2128 1.414 . S
C2129 C2130 1.374 . S
C2130 H2104 0.950 . S
C2130 C2126 1.385 . S
C2130 C2129 1.374 . S
C2131 C2128 1.499 . S
C2131 C2132 1.373 . S
C2131 C2133 1.389 . S
C2132 H2105 0.950 . S
C2132 C2118 1.377 . S
C2132 C2131 1.373 . S
C2133 C2117 1.377 . S
C2133 C2131 1.389 . S
C2133 C2134 1.524 . S
C2134 C2133 1.524 . S
C2134 C2135 1.397 . S
C2134 C2139 1.363 . S
C2135 H2106 0.950 . S
C2135 C2134 1.397 . S
C2135 C2136 1.334 . S
C2136 H2107 0.950 . S
C2136 C2135 1.334 . S
C2136 C2137 1.287 . S
C2137 C2136 1.287 . S
C2137 C2138 1.524 . S
C2137 H2140 0.999 . S
C2138 H2108 0.950 . S
C2138 C2137 1.524 . S
C2138 C2139 1.415 . S
C2139 H2109 0.950 . S
C2139 C2134 1.363 . S
C2139 C2138 1.415 . S
H2140 C2137 0.999 . S
H2141 C2122 0.913 . S
H2142 C2160 0.951 . S
H2143 C2162 0.951 . S
H2144 C2164 0.950 . S
H2145 C2165 0.950 . S
H2146 C2167 0.950 . S
H2147 C2170 0.950 . S
H2148 C2171 0.950 . S
H2149 C2173 0.950 . S
H2150 C2174 0.950 . S
H2151 C2175 0.951 . S
H2152 C2177 0.951 . S
H2153 C2179 0.950 . S
H2154 C2180 0.950 . S
H2155 C2182 0.950 . S
H2156 C2185 0.950 . S
H2157 C2186 0.950 . S
H2158 C2188 0.950 . S
H2159 C2189 0.950 . S
C2160 H2142 0.951 . S
C2160 C2161 1.366 . S
C2160 C2162 1.388 . S
C2161 C2160 1.366 . S
C2161 C2165 1.385 . S
C2162 H2143 0.951 . S
C2162 C2160 1.388 . S
C2162 C2163 1.366 . S
C2163 C2162 1.366 . S
C2163 C2164 1.414 . S
C2163 C2166 1.499 . S
C2164 H2144 0.950 . S
C2164 C2163 1.414 . S
C2164 C2165 1.374 . S
C2165 H2145 0.950 . S
C2165 C2161 1.385 . S
C2165 C2164 1.374 . S
C2166 C2163 1.499 . S
C2166 C2167 1.373 . S
C2166 C2168 1.389 . S
C2167 H2146 0.950 . S
C2167 C2166 1.373 . S
C2167 C2183 1.377 . S
C2168 C2166 1.389 . S
C2168 C2169 1.524 . S
C2168 C2182 1.377 . S
C2169 C2168 1.524 . S
C2169 C2170 1.397 . S
C2169 C2174 1.363 . S
C2170 H2147 0.950 . S
C2170 C2169 1.397 . S
C2170 C2171 1.334 . S
C2171 H2148 0.950 . S
C2171 C2170 1.334 . S
C2171 C2172 1.287 . S
C2172 C2171 1.287 . S
C2172 C2173 1.524 . S
C2172 H2191 0.913 . S
C2173 H2149 0.950 . S
C2173 C2172 1.524 . S
C2173 C2174 1.415 . S
C2174 H2150 0.950 . S
C2174 C2169 1.363 . S
C2174 C2173 1.415 . S
C2175 H2151 0.951 . S
C2175 C2176 1.366 . S
C2175 C2177 1.388 . S
C2176 C2175 1.366 . S
C2176 C2180 1.385 . S
C2177 H2152 0.951 . S
C2177 C2175 1.388 . S
C2177 C2178 1.366 . S
C2178 C2177 1.366 . S
C2178 C2179 1.414 . S
C2178 C2181 1.499 . S
C2179 H2153 0.950 . S
C2179 C2178 1.414 . S
C2179 C2180 1.374 . S
C2180 H2154 0.950 . S
C2180 C2176 1.385 . S
C2180 C2179 1.374 . S
C2181 C2178 1.499 . S
C2181 C2182 1.373 . S
C2181 C2183 1.389 . S
C2182 H2155 0.950 . S
C2182 C2168 1.377 . S
C2182 C2181 1.373 . S
C2183 C2167 1.377 . S
C2183 C2181 1.389 . S
C2183 C2184 1.524 . S
C2184 C2183 1.524 . S
C2184 C2185 1.397 . S
C2184 C2189 1.363 . S
C2185 H2156 0.950 . S
C2185 C2184 1.397 . S
C2185 C2186 1.334 . S
C2186 H2157 0.950 . S
C2186 C2185 1.334 . S
C2186 C2187 1.287 . S
C2187 C2186 1.287 . S
C2187 C2188 1.524 . S
C2187 H2190 0.999 . S
C2188 H2158 0.950 . S
C2188 C2187 1.524 . S
C2188 C2189 1.415 . S
C2189 H2159 0.950 . S
C2189 C2184 1.363 . S
C2189 C2188 1.415 . S
H2190 C2187 0.999 . S
H2191 C2172 0.913 . S
H2192 C2210 0.951 . S
H2193 C2212 0.951 . S
H2194 C2214 0.950 . S
H2195 C2215 0.950 . S
H2196 C2217 0.950 . S
H2197 C2220 0.950 . S
H2198 C2221 0.950 . S
H2199 C2223 0.950 . S
H2200 C2224 0.950 . S
H2201 C2225 0.951 . S
H2202 C2227 0.951 . S
H2203 C2229 0.950 . S
H2204 C2230 0.950 . S
H2205 C2232 0.950 . S
H2206 C2235 0.950 . S
H2207 C2236 0.950 . S
H2208 C2238 0.950 . S
H2209 C2239 0.950 . S
C2210 H2192 0.951 . S
C2210 C2211 1.366 . S
C2210 C2212 1.388 . S
C2211 C2210 1.366 . S
C2211 C2215 1.385 . S
C2212 H2193 0.951 . S
C2212 C2210 1.388 . S
C2212 C2213 1.366 . S
C2213 C2212 1.366 . S
C2213 C2214 1.414 . S
C2213 C2216 1.499 . S
C2214 H2194 0.950 . S
C2214 C2213 1.414 . S
C2214 C2215 1.374 . S
C2215 H2195 0.950 . S
C2215 C2211 1.385 . S
C2215 C2214 1.374 . S
C2216 C2213 1.499 . S
C2216 C2217 1.373 . S
C2216 C2218 1.389 . S
C2217 H2196 0.950 . S
C2217 C2216 1.373 . S
C2217 C2233 1.377 . S
C2218 C2216 1.389 . S
C2218 C2219 1.524 . S
C2218 C2232 1.377 . S
C2219 C2218 1.524 . S
C2219 C2220 1.397 . S
C2219 C2224 1.363 . S
C2220 H2197 0.950 . S
C2220 C2219 1.397 . S
C2220 C2221 1.334 . S
C2221 H2198 0.950 . S
C2221 C2220 1.334 . S
C2221 C2222 1.287 . S
C2222 C2221 1.287 . S
C2222 C2223 1.524 . S
C2222 H2241 0.913 . S
C2223 H2199 0.950 . S
C2223 C2222 1.524 . S
C2223 C2224 1.415 . S
C2224 H2200 0.950 . S
C2224 C2219 1.363 . S
C2224 C2223 1.415 . S
C2225 H2201 0.951 . S
C2225 C2226 1.366 . S
C2225 C2227 1.388 . S
C2226 C2225 1.366 . S
C2226 C2230 1.385 . S
C2227 H2202 0.951 . S
C2227 C2225 1.388 . S
C2227 C2228 1.366 . S
C2228 C2227 1.366 . S
C2228 C2229 1.414 . S
C2228 C2231 1.499 . S
C2229 H2203 0.950 . S
C2229 C2228 1.414 . S
C2229 C2230 1.374 . S
C2230 H2204 0.950 . S
C2230 C2226 1.385 . S
C2230 C2229 1.374 . S
C2231 C2228 1.499 . S
C2231 C2232 1.373 . S
C2231 C2233 1.389 . S
C2232 H2205 0.950 . S
C2232 C2218 1.377 . S
C2232 C2231 1.373 . S
C2233 C2217 1.377 . S
C2233 C2231 1.389 . S
C2233 C2234 1.524 . S
C2234 C2233 1.524 . S
C2234 C2235 1.397 . S
C2234 C2239 1.363 . S
C2235 H2206 0.950 . S
C2235 C2234 1.397 . S
C2235 C2236 1.334 . S
C2236 H2207 0.950 . S
C2236 C2235 1.334 . S
C2236 C2237 1.287 . S
C2237 C2236 1.287 . S
C2237 C2238 1.524 . S
C2237 H2240 0.999 . S
C2238 H2208 0.950 . S
C2238 C2237 1.524 . S
C2238 C2239 1.415 . S
C2239 H2209 0.950 . S
C2239 C2234 1.363 . S
C2239 C2238 1.415 . S
H2240 C2237 0.999 . S
H2241 C2222 0.913 . S
H2242 C2260 0.951 . S
H2243 C2262 0.951 . S
H2244 C2264 0.950 . S
H2245 C2265 0.950 . S
H2246 C2267 0.950 . S
H2247 C2270 0.950 . S
H2248 C2271 0.950 . S
H2249 C2273 0.950 . S
H2250 C2274 0.950 . S
H2251 C2275 0.951 . S
H2252 C2277 0.951 . S
H2253 C2279 0.950 . S
H2254 C2280 0.950 . S
H2255 C2282 0.950 . S
H2256 C2285 0.950 . S
H2257 C2286 0.950 . S
H2258 C2288 0.950 . S
H2259 C2289 0.950 . S
C2260 H2242 0.951 . S
C2260 C2261 1.366 . S
C2260 C2262 1.388 . S
C2261 C2260 1.366 . S
C2261 C2265 1.385 . S
C2262 H2243 0.951 . S
C2262 C2260 1.388 . S
C2262 C2263 1.366 . S
C2263 C2262 1.366 . S
C2263 C2264 1.414 . S
C2263 C2266 1.499 . S
C2264 H2244 0.950 . S
C2264 C2263 1.414 . S
C2264 C2265 1.374 . S
C2265 H2245 0.950 . S
C2265 C2261 1.385 . S
C2265 C2264 1.374 . S
C2266 C2263 1.499 . S
C2266 C2267 1.373 . S
C2266 C2268 1.389 . S
C2267 H2246 0.950 . S
C2267 C2266 1.373 . S
C2267 C2283 1.377 . S
C2268 C2266 1.389 . S
C2268 C2269 1.524 . S
C2268 C2282 1.377 . S
C2269 C2268 1.524 . S
C2269 C2270 1.397 . S
C2269 C2274 1.363 . S
C2270 H2247 0.950 . S
C2270 C2269 1.397 . S
C2270 C2271 1.334 . S
C2271 H2248 0.950 . S
C2271 C2270 1.334 . S
C2271 C2272 1.287 . S
C2272 C2271 1.287 . S
C2272 C2273 1.524 . S
C2272 H2291 0.913 . S
C2273 H2249 0.950 . S
C2273 C2272 1.524 . S
C2273 C2274 1.415 . S
C2274 H2250 0.950 . S
C2274 C2269 1.363 . S
C2274 C2273 1.415 . S
C2275 H2251 0.951 . S
C2275 C2276 1.366 . S
C2275 C2277 1.388 . S
C2276 C2275 1.366 . S
C2276 C2280 1.385 . S
C2277 H2252 0.951 . S
C2277 C2275 1.388 . S
C2277 C2278 1.366 . S
C2278 C2277 1.366 . S
C2278 C2279 1.414 . S
C2278 C2281 1.499 . S
C2279 H2253 0.950 . S
C2279 C2278 1.414 . S
C2279 C2280 1.374 . S
C2280 H2254 0.950 . S
C2280 C2276 1.385 . S
C2280 C2279 1.374 . S
C2281 C2278 1.499 . S
C2281 C2282 1.373 . S
C2281 C2283 1.389 . S
C2282 H2255 0.950 . S
C2282 C2268 1.377 . S
C2282 C2281 1.373 . S
C2283 C2267 1.377 . S
C2283 C2281 1.389 . S
C2283 C2284 1.524 . S
C2284 C2283 1.524 . S
C2284 C2285 1.397 . S
C2284 C2289 1.363 . S
C2285 H2256 0.950 . S
C2285 C2284 1.397 . S
C2285 C2286 1.334 . S
C2286 H2257 0.950 . S
C2286 C2285 1.334 . S
C2286 C2287 1.287 . S
C2287 C2286 1.287 . S
C2287 C2288 1.524 . S
C2287 H2290 0.999 . S
C2288 H2258 0.950 . S
C2288 C2287 1.524 . S
C2288 C2289 1.415 . S
C2289 H2259 0.950 . S
C2289 C2284 1.363 . S
C2289 C2288 1.415 . S
H2290 C2287 0.999 . S
H2291 C2272 0.913 . S
H2292 C2310 0.951 . S
H2293 C2312 0.951 . S
H2294 C2314 0.950 . S
H2295 C2315 0.950 . S
H2296 C2317 0.950 . S
H2297 C2320 0.950 . S
H2298 C2321 0.950 . S
H2299 C2323 0.950 . S
H2300 C2324 0.950 . S
H2301 C2325 0.951 . S
H2302 C2327 0.951 . S
H2303 C2329 0.950 . S
H2304 C2330 0.950 . S
H2305 C2332 0.950 . S
H2306 C2335 0.950 . S
H2307 C2336 0.950 . S
H2308 C2338 0.950 . S
H2309 C2339 0.950 . S
C2310 H2292 0.951 . S
C2310 C2311 1.366 . S
C2310 C2312 1.388 . S
C2311 C2310 1.366 . S
C2311 C2315 1.385 . S
C2312 H2293 0.951 . S
C2312 C2310 1.388 . S
C2312 C2313 1.366 . S
C2313 C2312 1.366 . S
C2313 C2314 1.414 . S
C2313 C2316 1.499 . S
C2314 H2294 0.950 . S
C2314 C2313 1.414 . S
C2314 C2315 1.374 . S
C2315 H2295 0.950 . S
C2315 C2311 1.385 . S
C2315 C2314 1.374 . S
C2316 C2313 1.499 . S
C2316 C2317 1.373 . S
C2316 C2318 1.389 . S
C2317 H2296 0.950 . S
C2317 C2316 1.373 . S
C2317 C2333 1.377 . S
C2318 C2316 1.389 . S
C2318 C2319 1.524 . S
C2318 C2332 1.377 . S
C2319 C2318 1.524 . S
C2319 C2320 1.397 . S
C2319 C2324 1.363 . S
C2320 H2297 0.950 . S
C2320 C2319 1.397 . S
C2320 C2321 1.334 . S
C2321 H2298 0.950 . S
C2321 C2320 1.334 . S
C2321 C2322 1.287 . S
C2322 C2321 1.287 . S
C2322 C2323 1.524 . S
C2322 H2341 0.913 . S
C2323 H2299 0.950 . S
C2323 C2322 1.524 . S
C2323 C2324 1.415 . S
C2324 H2300 0.950 . S
C2324 C2319 1.363 . S
C2324 C2323 1.415 . S
C2325 H2301 0.951 . S
C2325 C2326 1.366 . S
C2325 C2327 1.388 . S
C2326 C2325 1.366 . S
C2326 C2330 1.385 . S
C2327 H2302 0.951 . S
C2327 C2325 1.388 . S
C2327 C2328 1.366 . S
C2328 C2327 1.366 . S
C2328 C2329 1.414 . S
C2328 C2331 1.499 . S
C2329 H2303 0.950 . S
C2329 C2328 1.414 . S
C2329 C2330 1.374 . S
C2330 H2304 0.950 . S
C2330 C2326 1.385 . S
C2330 C2329 1.374 . S
C2331 C2328 1.499 . S
C2331 C2332 1.373 . S
C2331 C2333 1.389 . S
C2332 H2305 0.950 . S
C2332 C2318 1.377 . S
C2332 C2331 1.373 . S
C2333 C2317 1.377 . S
C2333 C2331 1.389 . S
C2333 C2334 1.524 . S
C2334 C2333 1.524 . S
C2334 C2335 1.397 . S
C2334 C2339 1.363 . S
C2335 H2306 0.950 . S
C2335 C2334 1.397 . S
C2335 C2336 1.334 . S
C2336 H2307 0.950 . S
C2336 C2335 1.334 . S
C2336 C2337 1.287 . S
C2337 C2336 1.287 . S
C2337 C2338 1.524 . S
C2337 H2340 0.999 . S
C2338 H2308 0.950 . S
C2338 C2337 1.524 . S
C2338 C2339 1.415 . S
C2339 H2309 0.950 . S
C2339 C2334 1.363 . S
C2339 C2338 1.415 . S
H2340 C2337 0.999 . S
H2341 C2322 0.913 . S
H2342 C2360 0.951 . S
H2343 C2362 0.951 . S
H2344 C2364 0.950 . S
H2345 C2365 0.950 . S
H2346 C2367 0.950 . S
H2347 C2370 0.950 . S
H2348 C2371 0.950 . S
H2349 C2373 0.950 . S
H2350 C2374 0.950 . S
H2351 C2375 0.951 . S
H2352 C2377 0.951 . S
H2353 C2379 0.950 . S
H2354 C2380 0.950 . S
H2355 C2382 0.950 . S
H2356 C2385 0.950 . S
H2357 C2386 0.950 . S
H2358 C2388 0.950 . S
H2359 C2389 0.950 . S
C2360 H2342 0.951 . S
C2360 C2361 1.366 . S
C2360 C2362 1.388 . S
C2361 C2360 1.366 . S
C2361 C2365 1.385 . S
C2362 H2343 0.951 . S
C2362 C2360 1.388 . S
C2362 C2363 1.366 . S
C2363 C2362 1.366 . S
C2363 C2364 1.414 . S
C2363 C2366 1.499 . S
C2364 H2344 0.950 . S
C2364 C2363 1.414 . S
C2364 C2365 1.374 . S
C2365 H2345 0.950 . S
C2365 C2361 1.385 . S
C2365 C2364 1.374 . S
C2366 C2363 1.499 . S
C2366 C2367 1.373 . S
C2366 C2368 1.389 . S
C2367 H2346 0.950 . S
C2367 C2366 1.373 . S
C2367 C2383 1.377 . S
C2368 C2366 1.389 . S
C2368 C2369 1.524 . S
C2368 C2382 1.377 . S
C2369 C2368 1.524 . S
C2369 C2370 1.397 . S
C2369 C2374 1.363 . S
C2370 H2347 0.950 . S
C2370 C2369 1.397 . S
C2370 C2371 1.334 . S
C2371 H2348 0.950 . S
C2371 C2370 1.334 . S
C2371 C2372 1.287 . S
C2372 C2371 1.287 . S
C2372 C2373 1.524 . S
C2372 H2391 0.913 . S
C2373 H2349 0.950 . S
C2373 C2372 1.524 . S
C2373 C2374 1.415 . S
C2374 H2350 0.950 . S
C2374 C2369 1.363 . S
C2374 C2373 1.415 . S
C2375 H2351 0.951 . S
C2375 C2376 1.366 . S
C2375 C2377 1.388 . S
C2376 C2375 1.366 . S
C2376 C2380 1.385 . S
C2377 H2352 0.951 . S
C2377 C2375 1.388 . S
C2377 C2378 1.366 . S
C2378 C2377 1.366 . S
C2378 C2379 1.414 . S
C2378 C2381 1.499 . S
C2379 H2353 0.950 . S
C2379 C2378 1.414 . S
C2379 C2380 1.374 . S
C2380 H2354 0.950 . S
C2380 C2376 1.385 . S
C2380 C2379 1.374 . S
C2381 C2378 1.499 . S
C2381 C2382 1.373 . S
C2381 C2383 1.389 . S
C2382 H2355 0.950 . S
C2382 C2368 1.377 . S
C2382 C2381 1.373 . S
C2383 C2367 1.377 . S
C2383 C2381 1.389 . S
C2383 C2384 1.524 . S
C2384 C2383 1.524 . S
C2384 C2385 1.397 . S
C2384 C2389 1.363 . S
C2385 H2356 0.950 . S
C2385 C2384 1.397 . S
C2385 C2386 1.334 . S
C2386 H2357 0.950 . S
C2386 C2385 1.334 . S
C2386 C2387 1.287 . S
C2387 C2386 1.287 . S
C2387 C2388 1.524 . S
C2387 H2390 0.999 . S
C2388 H2358 0.950 . S
C2388 C2387 1.524 . S
C2388 C2389 1.415 . S
C2389 H2359 0.950 . S
C2389 C2384 1.363 . S
C2389 C2388 1.415 . S
H2390 C2387 0.999 . S
H2391 C2372 0.913 . S
C826 C397 1.461 . S
C811 C15 1.462 . S
C876 C450 1.295 . S
C861 C68 1.295 . S
C926 C513 1.538 . S
C911 C107 1.538 . S
C976 C556 1.246 . S
C961 C160 1.246 . S
C1011 C185 1.535 . S
C1026 C512 1.534 . S
C1076 C549 1.317 . S
C1061 C252 1.317 . S
C1126 C390 1.464 . S
C1111 C277 1.464 . S
C1176 C443 1.222 . S
C1161 C330 1.221 . S
C1226 C496 1.474 . S
C1211 C323 1.473 . S
C1276 C565 1.788 . S
C1261 C192 1.787 . S
C1326 C406 1.556 . S
C1311 C245 1.556 . S
C1376 C459 1.718 . S
C1361 C284 1.717 . S
C1426 C407 1.545 . S
C1411 C61 1.544 . S
C1476 C460 1.790 . S
C1461 C114 1.790 . S
C1526 C503 1.484 . S
C1511 C153 1.482 . S
C1576 C566 1.713 . S
C1561 C22 1.712 . S
C1626 C609 1.429 . S
C1611 C337 1.429 . S
C1661 C206 1.674 . S
C1676 C662 1.673 . S
C1711 C231 1.571 . S
C1726 C724 1.569 . S
C1761 C298 1.670 . S
C1776 C778 1.671 . S
C1811 C47 1.501 . S
C1826 C725 1.501 . S
C1861 C100 1.748 . S
C1876 C777 1.746 . S
C1911 C139 1.494 . S
C1926 C602 1.494 . S
C1976 C655 1.608 . S
C1961 C8 1.606 . S
C2026 C715 1.447 . S
C2011 C1 1.445 . S
C2061 C54 1.336 . S
C2076 C761 1.336 . S
C2111 C93 1.584 . S
C2126 C618 1.585 . S
C2161 C146 1.311 . S
C2176 C671 1.313 . S
C2226 C619 1.514 . S
C2211 C199 1.514 . S
C2276 C672 1.391 . S
C2261 C238 1.391 . S
C2311 C291 1.509 . S
C2326 C708 1.510 . S
C2376 C768 1.268 . S
C2361 C344 1.266 . S
