# Generated by pormake.
# Topology cml, (3,6)-cn, num edge types: 1
# Building blocks:
#     Node 0, Type 0, BuildingBlock: BETDIP_clean_linker_0, # of connection points: 3
#     Node 1, Type 0, BuildingBlock: BETDIP_clean_linker_0, # of connection points: 3
#     Node 2, Type 0, BuildingBlock: BETDIP_clean_linker_0, # of connection points: 3
#     Node 3, Type 0, BuildingBlock: BETDIP_clean_linker_0, # of connection points: 3
#     Node 4, Type 0, BuildingBlock: BETDIP_clean_linker_0, # of connection points: 3
#     Node 5, Type 0, BuildingBlock: BETDIP_clean_linker_0, # of connection points: 3
#     Node 6, Type 0, BuildingBlock: BETDIP_clean_linker_0, # of connection points: 3
#     Node 7, Type 0, BuildingBlock: BETDIP_clean_linker_0, # of connection points: 3
#     Node 8, Type 1, BuildingBlock: IZENUY_clean_sbu_0, # of connection points: 6
#     Node 9, Type 1, BuildingBlock: IZENUY_clean_sbu_0, # of connection points: 6
#     Node 10, Type 1, BuildingBlock: IZENUY_clean_sbu_0, # of connection points: 6
#     Node 11, Type 1, BuildingBlock: IZENUY_clean_sbu_0, # of connection points: 6
#     Edge 12, Type (0, 1), BuildingBlock: XIVTED_clean_linker_0, # of connection points: 2
#     Edge 13, Type (0, 1), BuildingBlock: XIVTED_clean_linker_0, # of connection points: 2
#     Edge 14, Type (0, 1), BuildingBlock: XIVTED_clean_linker_0, # of connection points: 2
#     Edge 15, Type (0, 1), BuildingBlock: XIVTED_clean_linker_0, # of connection points: 2
#     Edge 16, Type (0, 1), BuildingBlock: XIVTED_clean_linker_0, # of connection points: 2
#     Edge 17, Type (0, 1), BuildingBlock: XIVTED_clean_linker_0, # of connection points: 2
#     Edge 18, Type (0, 1), BuildingBlock: XIVTED_clean_linker_0, # of connection points: 2
#     Edge 19, Type (0, 1), BuildingBlock: XIVTED_clean_linker_0, # of connection points: 2
#     Edge 20, Type (0, 1), BuildingBlock: XIVTED_clean_linker_0, # of connection points: 2
#     Edge 21, Type (0, 1), BuildingBlock: XIVTED_clean_linker_0, # of connection points: 2
#     Edge 22, Type (0, 1), BuildingBlock: XIVTED_clean_linker_0, # of connection points: 2
#     Edge 23, Type (0, 1), BuildingBlock: XIVTED_clean_linker_0, # of connection points: 2
#     Edge 24, Type (0, 1), BuildingBlock: XIVTED_clean_linker_0, # of connection points: 2
#     Edge 25, Type (0, 1), BuildingBlock: XIVTED_clean_linker_0, # of connection points: 2
#     Edge 26, Type (0, 1), BuildingBlock: XIVTED_clean_linker_0, # of connection points: 2
#     Edge 27, Type (0, 1), BuildingBlock: XIVTED_clean_linker_0, # of connection points: 2
#     Edge 28, Type (0, 1), BuildingBlock: XIVTED_clean_linker_0, # of connection points: 2
#     Edge 29, Type (0, 1), BuildingBlock: XIVTED_clean_linker_0, # of connection points: 2
#     Edge 30, Type (0, 1), BuildingBlock: XIVTED_clean_linker_0, # of connection points: 2
#     Edge 31, Type (0, 1), BuildingBlock: XIVTED_clean_linker_0, # of connection points: 2
#     Edge 32, Type (0, 1), BuildingBlock: XIVTED_clean_linker_0, # of connection points: 2
#     Edge 33, Type (0, 1), BuildingBlock: XIVTED_clean_linker_0, # of connection points: 2
#     Edge 34, Type (0, 1), BuildingBlock: XIVTED_clean_linker_0, # of connection points: 2
#     Edge 35, Type (0, 1), BuildingBlock: XIVTED_clean_linker_0, # of connection points: 2
# Relax obj value: 0.003
# Max RMSD: 0.066
# Mean RMSD: 0.052
data_MOF--net-cml--node1-IZENUY_clean_sbu_0--node2-BETDIP_clean_linker_0--edge1-XIVTED_clean_linker_0
_symmetry_space_group_name_H-M    P1
_symmetry_Int_Tables_number       1
_symmetry_cell_setting            triclinic
loop_
_symmetry_equiv_pos_as_xyz
'x, y, z'
_cell_length_a     37.596125
_cell_length_b     41.40134
_cell_length_c     36.806564
_cell_angle_alpha  89.950486
_cell_angle_beta   89.937561
_cell_angle_gamma 89.739516
loop_
_atom_site_label
_atom_site_type_symbol
_atom_site_fract_x
_atom_site_fract_y
_atom_site_fract_z
_atom_type_partial_charge
H0 H 0.27592 0.35306 0.04971 0.0
H1 H 0.27783 0.40862 0.95087 0.0
H2 H 0.34386 0.43587 0.04081 0.0
H3 H 0.25628 0.36367 0.92595 0.0
C4 C 0.2413 0.35111 0.9468 0.0
C5 C 0.28614 0.37324 0.03415 0.0
C6 C 0.3109 0.39428 0.04982 0.0
C7 C 0.2745 0.37776 0.99838 0.0
C8 C 0.28735 0.40417 0.97813 0.0
C9 C 0.31209 0.42557 0.99348 0.0
C10 C 0.32369 0.42031 0.02928 0.0
N11 N 0.24952 0.35543 0.98415 0.0
H12 H 0.73681 0.65077 0.55155 0.0
H13 H 0.71962 0.60145 0.45014 0.0
H14 H 0.66497 0.57068 0.54659 0.0
H15 H 0.74803 0.6422 0.42541 0.0
C16 C 0.76345 0.6547 0.44587 0.0
C17 C 0.72401 0.63177 0.53619 0.0
C18 C 0.69992 0.61106 0.55345 0.0
C19 C 0.73157 0.62848 0.49909 0.0
C20 C 0.71451 0.60412 0.47886 0.0
C21 C 0.68998 0.58335 0.49574 0.0
C22 C 0.68361 0.58665 0.5332 0.0
N23 N 0.75636 0.65031 0.48349 0.0
H24 H 0.72646 0.34784 0.0522 0.0
H25 H 0.7408 0.41236 0.96146 0.0
H26 H 0.66603 0.43611 0.04516 0.0
H27 H 0.78985 0.38524 0.95143 0.0
C28 C 0.78787 0.36145 0.96359 0.0
C29 C 0.72024 0.37036 0.03853 0.0
C30 C 0.69388 0.39097 0.05265 0.0
C31 C 0.738 0.37801 0.0061 0.0
C32 C 0.72868 0.40655 0.98725 0.0
C33 C 0.70286 0.42773 0.00145 0.0
C34 C 0.68616 0.41994 0.03435 0.0
N35 N 0.76378 0.35567 0.99269 0.0
H36 H 0.28035 0.65674 0.55193 0.0
H37 H 0.26534 0.59218 0.46153 0.0
H38 H 0.34251 0.56957 0.5432 0.0
H39 H 0.21461 0.61753 0.45422 0.0
C40 C 0.21701 0.64172 0.4652 0.0
C41 C 0.28676 0.63437 0.53806 0.0
C42 C 0.31384 0.61417 0.5515 0.0
C43 C 0.26845 0.62647 0.50609 0.0
C44 C 0.27794 0.59814 0.487 0.0
C45 C 0.30451 0.57738 0.50048 0.0
C46 C 0.32181 0.5854 0.53293 0.0
N47 N 0.24195 0.64836 0.49323 0.0
H48 H 0.77215 0.85864 0.05408 0.0
H49 H 0.77023 0.91478 0.95559 0.0
H50 H 0.83842 0.94241 0.04361 0.0
H51 H 0.75104 0.86887 0.9309 0.0
C52 C 0.73591 0.85639 0.95171 0.0
C53 C 0.78145 0.8791 0.03838 0.0
C54 C 0.80629 0.90044 0.05341 0.0
C55 C 0.76874 0.88362 0.00297 0.0
C56 C 0.78057 0.91033 0.98254 0.0
C57 C 0.80545 0.93193 0.99723 0.0
C58 C 0.81809 0.92671 0.03264 0.0
N59 N 0.74396 0.86094 0.98908 0.0
H60 H 0.23963 0.14726 0.55487 0.0
H61 H 0.22471 0.09639 0.45404 0.0
H62 H 0.16891 0.06632 0.55002 0.0
H63 H 0.24996 0.13878 0.42909 0.0
C64 C 0.26636 0.15071 0.44919 0.0
C65 C 0.22738 0.12788 0.53963 0.0
C66 C 0.20328 0.10712 0.55683 0.0
C67 C 0.23551 0.12421 0.50268 0.0
C68 C 0.21908 0.0994 0.48261 0.0
C69 C 0.19455 0.07862 0.49942 0.0
C70 C 0.18761 0.08228 0.5367 0.0
N71 N 0.26017 0.1461 0.48695 0.0
H72 H 0.23223 0.84725 0.05272 0.0
H73 H 0.23 0.90585 0.95596 0.0
H74 H 0.16597 0.93206 0.04778 0.0
H75 H 0.27626 0.87798 0.93892 0.0
C76 C 0.27855 0.85579 0.9544 0.0
C77 C 0.2224 0.8682 0.03811 0.0
C78 C 0.19804 0.88927 0.05483 0.0
C79 C 0.23467 0.87405 0.00273 0.0
C80 C 0.22165 0.90116 0.98353 0.0
C81 C 0.19724 0.92252 -8e-05 0.0
C82 C 0.18578 0.91638 0.03554 0.0
N83 N 0.25951 0.85174 0.9875 0.0
H84 H 0.77648 0.15657 0.55312 0.0
H85 H 0.77744 0.09974 0.45513 0.0
H86 H 0.84256 0.07178 0.54538 0.0
H87 H 0.72949 0.12635 0.44085 0.0
C88 C 0.7281 0.14885 0.45583 0.0
C89 C 0.78611 0.13589 0.53791 0.0
C90 C 0.81066 0.1145 0.5538 0.0
C91 C 0.77331 0.13063 0.50264 0.0
C92 C 0.78611 0.10389 0.48268 0.0
C93 C 0.8107 0.08223 0.4982 0.0
C94 C 0.82264 0.08772 0.53376 0.0
N95 N 0.74818 0.15309 0.4882 0.0
Fe96 Fe 0.00153 0.82628 0.31264 0.0
Fe97 Fe 0.99884 0.85835 0.38794 0.0
O98 O 1.00116 0.86159 0.33996 0.0
Fe99 Fe 0.00299 0.9002 0.31934 0.0
O100 O 0.96223 0.89299 0.29451 0.0
O101 O 0.97693 0.84466 0.27476 0.0
O102 O 0.9589 0.81344 0.33053 0.0
C103 C 0.95216 0.80929 0.36376 0.0
C104 C 0.05069 0.86294 0.27677 0.0
O105 O 0.97182 0.82155 0.38797 0.0
C106 C 0.04701 0.91009 0.37696 0.0
O107 O 0.02612 0.80156 0.34572 0.0
O108 O 0.04001 0.83529 0.38954 0.0
O109 O 0.03056 0.88721 0.28102 0.0
O110 O 0.04419 0.83656 0.29256 0.0
C111 C 0.95377 0.90944 0.37691 0.0
O112 O 0.02535 0.89458 0.39667 0.0
O113 O 0.04394 0.91009 0.34286 0.0
C114 C 0.04547 0.8093 0.37249 0.0
O115 O 0.9575 0.88132 0.38971 0.0
O116 O 0.97566 0.92038 0.35388 0.0
C117 C 0.95707 0.86943 0.27351 0.0
Fe118 Fe 0.00656 0.14531 0.88813 0.0
Fe119 Fe 0.00485 0.10406 0.81884 0.0
O120 O 0.00608 0.14246 0.84004 0.0
Fe121 Fe 0.007 0.17792 0.81294 0.0
O122 O 0.04902 0.19024 0.8323 0.0
O123 O 0.03473 0.18151 0.88942 0.0
O124 O 0.04722 0.12141 0.89147 0.0
C125 C 0.05117 0.09349 0.8783 0.0
C126 C 0.96149 0.19537 0.87142 0.0
O127 O 0.03013 0.08313 0.85426 0.0
C128 C 0.95901 0.14194 0.775 0.0
O129 O 0.97836 0.10972 0.89527 0.0
O130 O 0.96288 0.09432 0.84032 0.0
O131 O 0.98167 0.20283 0.84518 0.0
O132 O 0.966 0.16928 0.88855 0.0
C133 C 0.05298 0.13502 0.77557 0.0
O134 O 0.97919 0.11771 0.77941 0.0
O135 O 0.96492 0.16806 0.79148 0.0
C136 C 0.95747 0.09482 0.87414 0.0
O137 O 0.04686 0.11125 0.79606 0.0
O138 O 0.03275 0.15957 0.77585 0.0
C139 C 0.05495 0.194 0.86572 0.0
Fe140 Fe 0.49957 0.32668 0.31447 0.0
Fe141 Fe 0.49801 0.35842 0.38998 0.0
O142 O 0.49825 0.36181 0.34196 0.0
Fe143 Fe 0.497 0.40046 0.32141 0.0
O144 O 0.45558 0.39145 0.29853 0.0
O145 O 0.4723 0.34397 0.2778 0.0
O146 O 0.45855 0.31176 0.3341 0.0
C147 C 0.45324 0.30736 0.36756 0.0
C148 C 0.54409 0.3654 0.27559 0.0
O149 O 0.4731 0.32043 0.39103 0.0
C150 C 0.54287 0.41225 0.377 0.0
O151 O 0.52691 0.30313 0.34629 0.0
O152 O 0.54044 0.33722 0.38991 0.0
O153 O 0.52308 0.38873 0.28157 0.0
O154 O 0.54076 0.3391 0.29256 0.0
C155 C 0.44962 0.40728 0.38069 0.0
O156 O 0.52283 0.39586 0.3976 0.0
O157 O 0.53845 0.41207 0.34302 0.0
C158 C 0.54677 0.31163 0.37237 0.0
O159 O 0.4555 0.37945 0.39346 0.0
O160 O 0.47032 0.41937 0.35727 0.0
C161 C 0.45115 0.3679 0.27733 0.0
Fe162 Fe 0.50794 0.64539 0.88909 0.0
Fe163 Fe 0.5104 0.60409 0.81988 0.0
O164 O 0.50874 0.64251 0.84099 0.0
Fe165 Fe 0.50811 0.67788 0.8138 0.0
O166 O 0.54867 0.69249 0.8343 0.0
O167 O 0.53383 0.68293 0.89109 0.0
O168 O 0.54994 0.62357 0.89336 0.0
C169 C 0.55585 0.59592 0.88022 0.0
C170 C 0.46017 0.69306 0.8711 0.0
O171 O 0.53561 0.58439 0.85617 0.0
C172 C 0.46453 0.63973 0.77349 0.0
O173 O 0.48173 0.60844 0.89544 0.0
O174 O 0.46833 0.5925 0.84007 0.0
O175 O 0.48028 0.70142 0.84515 0.0
O176 O 0.46602 0.66736 0.88857 0.0
C177 C 0.55772 0.63711 0.77782 0.0
O178 O 0.48566 0.61646 0.77938 0.0
O179 O 0.46733 0.66573 0.79105 0.0
C180 C 0.4621 0.59272 0.87378 0.0
O181 O 0.55261 0.61323 0.79847 0.0
O182 O 0.53621 0.66079 0.77764 0.0
C183 C 0.55371 0.69645 0.86784 0.0
H184 H 0.19832 0.31377 0.99025 0.0
H185 H 0.10148 0.22776 0.82274 0.0
H186 H 0.2227 0.33435 0.87804 0.0
H187 H 0.07435 0.21038 0.93511 0.0
H188 H 0.14739 0.26539 0.84242 0.0
H189 H 0.15402 0.27461 0.97052 0.0
C190 C 0.19437 0.31004 0.96142 0.0
C191 C 0.2142 0.32732 0.93565 0.0
C192 C 0.13143 0.25331 0.86277 0.0
C193 C 0.16349 0.28247 0.91289 0.0
C194 C 0.10519 0.23177 0.85156 0.0
C195 C 0.08383 0.21594 0.8773 0.0
C196 C 0.13645 0.25911 0.9 0.0
C197 C 0.09004 0.22207 0.91427 0.0
C198 C 0.16904 0.28765 0.95016 0.0
C199 C 0.20791 0.3215 0.89872 0.0
N200 N 0.1157 0.24321 0.92448 0.0
N201 N 0.18309 0.29956 0.8884 0.0
H202 H 0.80707 0.69192 0.48838 0.0
H203 H 0.90681 0.77467 0.32014 0.0
H204 H 0.78205 0.67054 0.37659 0.0
H205 H 0.93107 0.79389 0.43271 0.0
H206 H 0.86016 0.73742 0.3397 0.0
H207 H 0.8519 0.73015 0.46795 0.0
C208 C 0.81099 0.69527 0.45948 0.0
C209 C 0.79082 0.67802 0.43406 0.0
C210 C 0.87569 0.74984 0.36007 0.0
C211 C 0.84227 0.72188 0.41043 0.0
C212 C 0.90232 0.77113 0.34894 0.0
C213 C 0.92306 0.78736 0.37481 0.0
C214 C 0.86973 0.74476 0.39733 0.0
C215 C 0.91593 0.78187 0.41175 0.0
C216 C 0.83665 0.71716 0.4478 0.0
C217 C 0.79711 0.68339 0.397 0.0
N218 N 0.88996 0.76102 0.42185 0.0
N219 N 0.82233 0.70486 0.38625 0.0
H220 H 0.79534 0.29884 0.9885 0.0
H221 H 0.9471 0.25521 0.84334 0.0
H222 H 0.83541 0.36563 0.90847 0.0
H223 H 0.91415 0.18976 0.92824 0.0
H224 H 0.90407 0.29477 0.86528 0.0
H225 H 0.83651 0.2576 0.9655 0.0
C226 C 0.81277 0.30483 0.96607 0.0
C227 C 0.81208 0.33573 0.95034 0.0
C228 C 0.90618 0.27177 0.87915 0.0
C229 C 0.85913 0.28867 0.9239 0.0
C230 C 0.93078 0.24908 0.86659 0.0
C231 C 0.93447 0.21907 0.88405 0.0
C232 C 0.88489 0.26455 0.90943 0.0
C233 C 0.91238 0.21259 0.91399 0.0
C234 C 0.83628 0.28127 0.95296 0.0
C235 C 0.83519 0.34211 0.92136 0.0
N236 N 0.88859 0.23516 0.92577 0.0
N237 N 0.85775 0.31882 0.90908 0.0
H238 H 0.16891 0.63596 0.411 0.0
H239 H 0.09218 0.81614 0.42954 0.0
H240 H 0.20974 0.705 0.48791 0.0
H241 H 0.06023 0.74891 0.3462 0.0
H242 H 0.13492 0.77604 0.45205 0.0
H243 H 0.12817 0.67721 0.38774 0.0
C244 C 0.16925 0.65986 0.42296 0.0
C245 C 0.19264 0.66707 0.45138 0.0
C246 C 0.11859 0.77015 0.42879 0.0
C247 C 0.14608 0.7145 0.42502 0.0
C248 C 0.09416 0.79302 0.41591 0.0
C249 C 0.0724 0.7859 0.38598 0.0
C250 C 0.12122 0.73989 0.4117 0.0
C251 C 0.0763 0.75554 0.36939 0.0
C252 C 0.14605 0.68343 0.40967 0.0
C253 C 0.19211 0.69841 0.46594 0.0
N254 N 0.10007 0.73369 0.38254 0.0
N255 N 0.1691 0.72098 0.45264 0.0
H256 H 0.69271 0.81883 0.99479 0.0
H257 H 0.59958 0.73172 0.82578 0.0
H258 H 0.71815 0.83956 0.88287 0.0
H259 H 0.57118 0.71343 0.93763 0.0
H260 H 0.64412 0.77027 0.84628 0.0
H261 H 0.64892 0.77932 0.9745 0.0
C262 C 0.68909 0.81507 0.96592 0.0
C263 C 0.70907 0.83246 0.94038 0.0
C264 C 0.62816 0.75783 0.86636 0.0
C265 C 0.65901 0.78726 0.917 0.0
C266 C 0.60269 0.73576 0.85467 0.0
C267 C 0.58143 0.71934 0.88 0.0
C268 C 0.63253 0.76358 0.90368 0.0
C269 C 0.58685 0.72556 0.9171 0.0
C270 C 0.66407 0.79249 0.95435 0.0
C271 C 0.70323 0.82662 0.90338 0.0
N272 N 0.61182 0.7472 0.92779 0.0
N273 N 0.67875 0.8045 0.89277 0.0
H274 H 0.28263 0.16697 0.37955 0.0
H275 H 0.43546 0.29097 0.43724 0.0
H276 H 0.31222 0.18685 0.4905 0.0
H277 H 0.40716 0.27199 0.32561 0.0
H278 H 0.38997 0.25309 0.45694 0.0
H279 H 0.32779 0.20541 0.35889 0.0
C280 C 0.29866 0.17944 0.39951 0.0
C281 C 0.2937 0.17376 0.43671 0.0
C282 C 0.39367 0.25717 0.42812 0.0
C283 C 0.34526 0.21767 0.41344 0.0
C284 C 0.4197 0.27884 0.41681 0.0
C285 C 0.4253 0.28464 0.37966 0.0
C286 C 0.37294 0.24108 0.40216 0.0
C287 C 0.40387 0.26823 0.35452 0.0
C288 C 0.32438 0.20136 0.38774 0.0
C289 C 0.31509 0.19048 0.46153 0.0
N290 N 0.37867 0.24717 0.36624 0.0
N291 N 0.33992 0.21166 0.44943 0.0
H292 H 0.31961 0.85793 0.89392 0.0
H293 H 0.4146 0.68689 0.92933 0.0
H294 H 0.29491 0.7968 0.9854 0.0
H295 H 0.4401 0.75031 0.8399 0.0
H296 H 0.36903 0.72549 0.94922 0.0
H297 H 0.36238 0.81748 0.87264 0.0
C298 C 0.3232 0.83592 0.90947 0.0
C299 C 0.30382 0.83077 0.94146 0.0
C300 C 0.38457 0.73088 0.9252 0.0
C301 C 0.35273 0.78427 0.91739 0.0
C302 C 0.41059 0.70884 0.9138 0.0
C303 C 0.43143 0.71539 0.88297 0.0
C304 C 0.37929 0.75967 0.90563 0.0
C305 C 0.42489 0.74423 0.86392 0.0
C306 C 0.3476 0.81283 0.89735 0.0
C307 C 0.30937 0.80182 0.9606 0.0
N308 N 0.39953 0.76526 0.87559 0.0
N309 N 0.33339 0.77968 0.9483 0.0
H310 H 0.68638 0.14653 0.39606 0.0
H311 H 0.5918 0.31776 0.43101 0.0
H312 H 0.71262 0.20822 0.48642 0.0
H313 H 0.56746 0.2547 0.34108 0.0
H314 H 0.63739 0.27921 0.45106 0.0
H315 H 0.64377 0.18706 0.37484 0.0
C316 C 0.68316 0.16869 0.41138 0.0
C317 C 0.70293 0.17398 0.44303 0.0
C318 C 0.6221 0.2739 0.4269 0.0
C319 C 0.65415 0.2206 0.41903 0.0
C320 C 0.59607 0.29591 0.41541 0.0
C321 C 0.57554 0.28944 0.38439 0.0
C322 C 0.62766 0.24522 0.40724 0.0
C323 C 0.5824 0.26073 0.36525 0.0
C324 C 0.65884 0.19184 0.39929 0.0
C325 C 0.69784 0.20312 0.46188 0.0
N326 N 0.60773 0.23973 0.37703 0.0
N327 N 0.67386 0.22533 0.44963 0.0
H328 H 0.33397 0.42572 0.92215 0.0
H329 H 0.43348 0.59417 0.94191 0.0
H330 H 0.32498 0.48735 0.01626 0.0
H331 H 0.42765 0.54236 0.84037 0.0
H332 H 0.39156 0.55612 0.96848 0.0
H333 H 0.3654 0.46898 0.89025 0.0
C334 C 0.33808 0.44851 0.93591 0.0
C335 C 0.32722 0.45275 0.97212 0.0
C336 C 0.39918 0.55316 0.94029 0.0
C337 C 0.36366 0.50213 0.936 0.0
C338 C 0.42324 0.57486 0.92512 0.0
C339 C 0.4344 0.57127 0.88896 0.0
C340 C 0.38639 0.52737 0.91934 0.0
C341 C 0.41989 0.54597 0.86841 0.0
C342 C 0.35621 0.47314 0.91775 0.0
C343 C 0.33356 0.48273 0.98866 0.0
N344 N 0.39693 0.52475 0.88402 0.0
N345 N 0.35164 0.50609 0.97062 0.0
H346 H 0.7129 0.54453 0.43901 0.0
H347 H 0.54253 0.43362 0.44685 0.0
H348 H 0.62008 0.56695 0.5037 0.0
H349 H 0.59852 0.44508 0.34514 0.0
H350 H 0.57952 0.47543 0.47345 0.0
H351 H 0.67857 0.50233 0.40787 0.0
C352 C 0.68538 0.5408 0.44655 0.0
C353 C 0.66963 0.55898 0.4746 0.0
C354 C 0.58377 0.46874 0.44533 0.0
C355 C 0.63086 0.5105 0.4398 0.0
C356 C 0.56284 0.44471 0.43013 0.0
C357 C 0.56728 0.43594 0.39359 0.0
C358 C 0.60982 0.4839 0.42414 0.0
C359 C 0.59407 0.45131 0.37334 0.0
C360 C 0.66595 0.51667 0.42888 0.0
C361 C 0.63386 0.55292 0.48323 0.0
N362 N 0.61452 0.47458 0.38895 0.0
N363 N 0.61591 0.52901 0.46625 0.0
H364 H 0.69056 0.48889 0.02735 0.0
H365 H 0.58372 0.54147 0.84987 0.0
H366 H 0.68627 0.43221 0.92919 0.0
H367 H 0.5928 0.60228 0.94458 0.0
H368 H 0.62632 0.50392 0.87653 0.0
H369 H 0.66043 0.53322 0.99571 0.0
C370 C 0.68368 0.48596 0.99897 0.0
C371 C 0.69061 0.45667 0.98097 0.0
C372 C 0.61929 0.52556 0.89145 0.0
C373 C 0.65593 0.50725 0.94465 0.0
C374 C 0.59482 0.54703 0.87628 0.0
C375 C 0.58424 0.57489 0.89525 0.0
C376 C 0.63322 0.5317 0.92611 0.0
C377 C 0.6 0.58101 0.9291 0.0
C378 C 0.66652 0.51128 0.98092 0.0
C379 C 0.68158 0.45435 0.9441 0.0
N380 N 0.62339 0.55936 0.94366 0.0
N381 N 0.66431 0.47912 0.92732 0.0
H382 H 0.31848 0.57294 0.4276 0.0
H383 H 0.41175 0.39917 0.44425 0.0
H384 H 0.319 0.51648 0.52617 0.0
H385 H 0.42247 0.46277 0.35191 0.0
H386 H 0.36922 0.43741 0.47117 0.0
H387 H 0.34728 0.52807 0.39584 0.0
C388 C 0.324 0.55086 0.4424 0.0
C389 C 0.31665 0.54859 0.47968 0.0
C390 C 0.38068 0.4428 0.44486 0.0
C391 C 0.35025 0.49728 0.44366 0.0
C392 C 0.40488 0.42095 0.42946 0.0
C393 C 0.4211 0.428 0.39603 0.0
C394 C 0.3725 0.47173 0.42656 0.0
C395 C 0.41108 0.45655 0.37801 0.0
C396 C 0.34074 0.52533 0.42433 0.0
C397 C 0.32476 0.51945 0.49754 0.0
N398 N 0.38766 0.4774 0.39358 0.0
N399 N 0.34142 0.49506 0.47947 0.0
H400 H 0.82542 0.93174 0.92538 0.0
H401 H 0.93063 0.09707 0.94305 0.0
H402 H 0.81917 0.99378 0.01937 0.0
H403 H 0.91968 0.04627 0.84131 0.0
H404 H 0.88759 0.0605 0.97045 0.0
H405 H 0.85688 0.97445 0.89268 0.0
C406 C 0.83008 0.95453 0.93894 0.0
C407 C 0.82005 0.95901 0.97536 0.0
C408 C 0.89432 0.05748 0.94204 0.0
C409 C 0.85662 0.00773 0.93833 0.0
C410 C 0.91902 0.07831 0.9264 0.0
C411 C 0.92909 0.07452 0.88994 0.0
C412 C 0.87983 0.03235 0.92124 0.0
C413 C 0.91283 0.05 0.86958 0.0
C414 C 0.84824 0.97884 0.92032 0.0
C415 C 0.82712 0.98898 0.99161 0.0
N416 N 0.88931 0.02958 0.88563 0.0
N417 N 0.84529 0.01201 0.97314 0.0
H418 H 0.21825 0.03953 0.44325 0.0
H419 H 0.04626 0.93017 0.44733 0.0
H420 H 0.12464 0.06207 0.50671 0.0
H421 H 0.10428 0.94183 0.34683 0.0
H422 H 0.08379 0.97087 0.47529 0.0
H423 H 0.18423 0.99742 0.4116 0.0
C424 C 0.19065 0.03581 0.45045 0.0
C425 C 0.17455 0.05404 0.47826 0.0
C426 C 0.08839 0.96443 0.44714 0.0
C427 C 0.13614 0.00566 0.44291 0.0
C428 C 0.06713 0.94104 0.43117 0.0
C429 C 0.07194 0.93273 0.39455 0.0
C430 C 0.11508 0.9794 0.42664 0.0
C431 C 0.09951 0.94774 0.37507 0.0
C432 C 0.17139 0.01174 0.4325 0.0
C433 C 0.13868 0.04801 0.48645 0.0
N434 N 0.12019 0.97043 0.3914 0.0
N435 N 0.12089 0.02416 0.46919 0.0
H436 H 0.18635 0.98441 0.02422 0.0
H437 H 0.07292 0.03583 0.85002 0.0
H438 H 0.17301 0.9242 0.92965 0.0
H439 H 0.09061 0.09934 0.94113 0.0
H440 H 0.11314 0.99641 0.87715 0.0
H441 H 0.15514 0.02825 0.99283 0.0
C442 C 0.17704 0.98049 0.99674 0.0
C443 C 0.18206 0.95047 0.97965 0.0
C444 C 0.10848 0.01902 0.89117 0.0
C445 C 0.14629 1.0006 0.94353 0.0
C446 C 0.08539 0.04159 0.87572 0.0
C447 C 0.078 0.07087 0.89351 0.0
C448 C 0.12426 0.02552 0.9249 0.0
C449 C 0.09537 0.07705 0.92652 0.0
C450 C 0.15933 0.00557 0.9788 0.0
C451 C 0.16994 0.94694 0.94383 0.0
N452 N 0.11743 0.05442 0.94133 0.0
N453 N 0.15234 0.97157 0.92712 0.0
H454 H 0.83355 0.08169 0.42739 0.0
H455 H 0.91241 0.90168 0.43816 0.0
H456 H 0.82184 0.01991 0.52108 0.0
H457 H 0.93342 0.96828 0.35048 0.0
H458 H 0.87236 0.94178 0.46544 0.0
H459 H 0.86306 0.03741 0.39525 0.0
C460 C 0.83671 0.05866 0.44102 0.0
C461 C 0.82544 0.0546 0.47709 0.0
C462 C 0.88556 0.94748 0.44009 0.0
C463 C 0.85969 0.00385 0.44061 0.0
C464 C 0.90835 0.92456 0.42445 0.0
C465 C 0.92666 0.93174 0.39219 0.0
C466 C 0.88093 0.97772 0.42325 0.0
C467 C 0.92025 0.96179 0.3756 0.0
C468 C 0.85381 0.03343 0.42275 0.0
C469 C 0.83063 0.02427 0.4935 0.0
N470 N 0.89813 0.98368 0.3914 0.0
N471 N 0.84755 1.00015 0.47524 0.0
H472 H 0.33258 0.3369 0.07978 0.0
H473 H 0.40832 0.41958 0.26016 0.0
H474 H 0.32157 0.43839 0.10409 0.0
H475 H 0.4327 0.32173 0.22765 0.0
H476 H 0.36863 0.42463 0.20794 0.0
H477 H 0.36123 0.32876 0.13874 0.0
C478 C 0.33571 0.35738 0.09776 0.0
C479 C 0.32495 0.38842 0.08691 0.0
C480 C 0.38248 0.40198 0.2124 0.0
C481 C 0.35805 0.37937 0.1542 0.0
C482 C 0.40511 0.39904 0.24227 0.0
C483 C 0.42428 0.37031 0.24807 0.0
C484 C 0.37886 0.37599 0.1882 0.0
C485 C 0.41881 0.34447 0.22405 0.0
C486 C 0.35228 0.35277 0.1313 0.0
C487 C 0.32999 0.41415 0.11116 0.0
N488 N 0.39681 0.348 0.19505 0.0
N489 N 0.34635 0.40909 0.14357 0.0
H490 H 0.69289 0.566 0.6075 0.0
H491 H 0.57987 0.68521 0.73224 0.0
H492 H 0.68122 0.66794 0.5861 0.0
H493 H 0.60014 0.58538 0.75965 0.0
H494 H 0.62213 0.68068 0.68216 0.0
H495 H 0.66474 0.57381 0.66679 0.0
C496 C 0.68482 0.59011 0.61555 0.0
C497 C 0.68902 0.61631 0.59174 0.0
C498 C 0.61763 0.65983 0.69932 0.0
C499 C 0.65651 0.62542 0.65933 0.0
C500 C 0.5934 0.66238 0.7279 0.0
C501 C 0.586 0.63549 0.74987 0.0
C502 C 0.63443 0.63011 0.69238 0.0
C503 C 0.60473 0.60666 0.74322 0.0
C504 C 0.66879 0.59458 0.64939 0.0
C505 C 0.67855 0.64709 0.60365 0.0
N506 N 0.62774 0.60463 0.7148 0.0
N507 N 0.6623 0.65073 0.63641 0.0
H508 H 0.7171 0.3626 0.11658 0.0
H509 H 0.54123 0.40929 0.2209 0.0
H510 H 0.62259 0.39868 0.06341 0.0
H511 H 0.60196 0.32681 0.25796 0.0
H512 H 0.57841 0.41213 0.16714 0.0
H513 H 0.68168 0.35344 0.17202 0.0
C514 C 0.68896 0.36831 0.1164 0.0
C515 C 0.67298 0.38217 0.08552 0.0
C516 C 0.58365 0.39338 0.187 0.0
C517 C 0.63291 0.37231 0.14861 0.0
C518 C 0.56259 0.39184 0.21792 0.0
C519 C 0.56838 0.36766 0.24402 0.0
C520 C 0.61123 0.37094 0.18208 0.0
C521 C 0.5965 0.34571 0.23838 0.0
C522 C 0.6689 0.36315 0.148 0.0
C523 C 0.63641 0.38905 0.08684 0.0
N524 N 0.61714 0.34794 0.20796 0.0
N525 N 0.61781 0.38446 0.11793 0.0
H526 H 0.29101 0.64154 0.61607 0.0
H527 H 0.47022 0.59842 0.71661 0.0
H528 H 0.38549 0.6078 0.56082 0.0
H529 H 0.4051 0.67667 0.75725 0.0
H530 H 0.43313 0.59576 0.66281 0.0
H531 H 0.32703 0.65091 0.67091 0.0
C532 C 0.31927 0.6364 0.61531 0.0
C533 C 0.33509 0.62314 0.58401 0.0
C534 C 0.42692 0.61358 0.68343 0.0
C535 C 0.37591 0.63328 0.64645 0.0
C536 C 0.44794 0.61499 0.71436 0.0
C537 C 0.44079 0.63786 0.74154 0.0
C538 C 0.39804 0.63482 0.67959 0.0
C539 C 0.41159 0.65878 0.73683 0.0
C540 C 0.33969 0.64168 0.64658 0.0
C541 C 0.37183 0.61699 0.5846 0.0
N542 N 0.39099 0.65664 0.70643 0.0
N543 N 0.39081 0.6217 0.61538 0.0
H544 H 0.81738 0.94428 0.10775 0.0
H545 H 0.93662 0.82304 0.22494 0.0
H546 H 0.83112 0.84342 0.08165 0.0
H547 H 0.91574 0.92195 0.25579 0.0
H548 H 0.89484 0.82901 0.17467 0.0
H549 H 0.8498 0.93559 0.16446 0.0
C550 C 0.827 0.92023 0.11415 0.0
C551 C 0.82183 0.89458 0.08985 0.0
C552 C 0.89921 0.84935 0.19256 0.0
C553 C 0.85909 0.88445 0.15461 0.0
C554 C 0.92315 0.84599 0.22126 0.0
C555 C 0.93006 0.87215 0.24442 0.0
C556 C 0.88212 0.87914 0.18679 0.0
C557 C 0.91149 0.90119 0.23849 0.0
C558 C 0.84543 0.91526 0.14655 0.0
C559 C 0.83439 0.86384 0.09968 0.0
N560 N 0.88862 0.90397 0.21009 0.0
N561 N 0.85279 0.8597 0.13113 0.0
H562 H 0.19559 0.06284 0.61158 0.0
H563 H 0.07671 0.18265 0.7302 0.0
H564 H 0.18272 0.16423 0.58774 0.0
H565 H 0.09473 0.0826 0.75821 0.0
H566 H 0.12076 0.17775 0.68182 0.0
H567 H 0.16483 0.071 0.66943 0.0
C568 C 0.18676 0.08693 0.61884 0.0
C569 C 0.19135 0.11284 0.5947 0.0
C570 C 0.11532 0.15692 0.69871 0.0
C571 C 0.1558 0.12233 0.66061 0.0
C572 C 0.09004 0.15966 0.7263 0.0
C573 C 0.08157 0.13285 0.74798 0.0
C574 C 0.13217 0.12709 0.6925 0.0
C575 C 0.10012 0.10382 0.74195 0.0
C576 C 0.16919 0.09159 0.65183 0.0
C577 C 0.1798 0.14361 0.60558 0.0
N578 N 0.12426 0.10163 0.71452 0.0
N579 N 0.16209 0.14742 0.63751 0.0
H580 H 0.17594 0.83144 0.08374 0.0
H581 H 0.08405 0.9171 0.25328 0.0
H582 H 0.1881 0.93229 0.11024 0.0
H583 H 0.08255 0.8138 0.23793 0.0
H584 H 0.12624 0.92189 0.20342 0.0
H585 H 0.1462 0.82302 0.14227 0.0
C586 C 0.17289 0.85169 0.10211 0.0
C587 C 0.18407 0.88273 0.09188 0.0
C588 C 0.11704 0.89809 0.21106 0.0
C589 C 0.14974 0.87334 0.15857 0.0
C590 C 0.09284 0.89535 0.23952 0.0
C591 C 0.07944 0.86505 0.24947 0.0
C592 C 0.12767 0.87036 0.19188 0.0
C593 C 0.09214 0.83765 0.23102 0.0
C594 C 0.15577 0.84689 0.13543 0.0
C595 C 0.17922 0.90811 0.11666 0.0
N596 N 0.11521 0.84099 0.20271 0.0
N597 N 0.16214 0.90291 0.14861 0.0
H598 H 0.82062 0.07038 0.6081 0.0
H599 H 0.92536 0.19176 0.7388 0.0
H600 H 0.83355 0.17161 0.58372 0.0
H601 H 0.92871 0.08781 0.74739 0.0
H602 H 0.88309 0.18676 0.68825 0.0
H603 H 0.85119 0.07849 0.66574 0.0
C604 C 0.82975 0.09438 0.61499 0.0
C605 C 0.82503 0.12024 0.59081 0.0
C606 C 0.89291 0.16512 0.70147 0.0
C607 C 0.86007 0.12977 0.65692 0.0
C608 C 0.91691 0.16795 0.73036 0.0
C609 C 0.93091 0.14014 0.747 0.0
C610 C 0.88265 0.13429 0.68955 0.0
C611 C 0.91902 0.1099 0.73501 0.0
C612 C 0.84715 0.09902 0.64795 0.0
C613 C 0.83666 0.15099 0.60156 0.0
N614 N 0.89575 0.1078 0.707 0.0
N615 N 0.85402 0.15486 0.6337 0.0
loop_
_geom_bond_atom_site_label_1
_geom_bond_atom_site_label_2
_geom_bond_distance
_geom_bond_site_symmetry_2
_ccdc_geom_bond_type
H0 C5 0.930 . S
H1 C8 0.930 . S
H2 C10 0.930 . S
H3 C4 1.016 . S
C4 H3 1.016 . S
C4 N11 1.286 . S
C5 H0 0.930 . S
C5 C6 1.397 . S
C5 C7 1.361 . S
C6 C5 1.397 . S
C6 C10 1.390 . S
C7 C5 1.361 . S
C7 C8 1.393 1_554 S
C7 N11 1.413 1_554 S
C8 H1 0.930 . S
C8 C7 1.393 1_556 S
C8 C9 1.399 . S
C9 C8 1.399 . S
C9 C10 1.381 1_556 S
C10 H2 0.930 . S
C10 C6 1.390 . S
C10 C9 1.381 1_554 S
N11 C4 1.286 . S
N11 C7 1.413 1_556 S
H12 C17 0.930 . S
H13 C20 0.930 . S
H14 C22 0.930 . S
H15 C16 1.016 . S
C16 H15 1.016 . S
C16 N23 1.286 . S
C17 H12 0.930 . S
C17 C18 1.397 . S
C17 C19 1.361 . S
C18 C17 1.397 . S
C18 C22 1.390 . S
C19 C17 1.361 . S
C19 C20 1.393 . S
C19 N23 1.413 . S
C20 H13 0.930 . S
C20 C19 1.393 . S
C20 C21 1.399 . S
C21 C20 1.399 . S
C21 C22 1.381 . S
C22 H14 0.930 . S
C22 C18 1.390 . S
C22 C21 1.381 . S
N23 C16 1.286 . S
N23 C19 1.413 . S
H24 C29 0.930 . S
H25 C32 0.930 . S
H26 C34 0.930 . S
H27 C28 1.016 . S
C28 H27 1.016 . S
C28 N35 1.286 1_556 S
C29 H24 0.930 . S
C29 C30 1.397 . S
C29 C31 1.361 . S
C30 C29 1.397 . S
C30 C34 1.390 . S
C31 C29 1.361 . S
C31 C32 1.393 1_554 S
C31 N35 1.413 . S
C32 H25 0.930 . S
C32 C31 1.393 1_556 S
C32 C33 1.399 . S
C33 C32 1.399 . S
C33 C34 1.381 1_556 S
C34 H26 0.930 . S
C34 C30 1.390 . S
C34 C33 1.381 1_554 S
N35 C28 1.286 1_554 S
N35 C31 1.413 . S
H36 C41 0.930 . S
H37 C44 0.930 . S
H38 C46 0.930 . S
H39 C40 1.016 . S
C40 H39 1.016 . S
C40 N47 1.286 . S
C41 H36 0.930 . S
C41 C42 1.397 . S
C41 C43 1.361 . S
C42 C41 1.397 . S
C42 C46 1.390 . S
C43 C41 1.361 . S
C43 C44 1.393 . S
C43 N47 1.413 . S
C44 H37 0.930 . S
C44 C43 1.393 . S
C44 C45 1.399 . S
C45 C44 1.399 . S
C45 C46 1.381 . S
C46 H38 0.930 . S
C46 C42 1.390 . S
C46 C45 1.381 . S
N47 C40 1.286 . S
N47 C43 1.413 . S
H48 C53 0.930 . S
H49 C56 0.930 . S
H50 C58 0.930 . S
H51 C52 1.016 . S
C52 H51 1.016 . S
C52 N59 1.286 . S
C53 H48 0.930 . S
C53 C54 1.397 . S
C53 C55 1.361 . S
C54 C53 1.397 . S
C54 C58 1.390 . S
C55 C53 1.361 . S
C55 C56 1.393 1_554 S
C55 N59 1.413 1_554 S
C56 H49 0.930 . S
C56 C55 1.393 1_556 S
C56 C57 1.399 . S
C57 C56 1.399 . S
C57 C58 1.381 1_556 S
C58 H50 0.930 . S
C58 C54 1.390 . S
C58 C57 1.381 1_554 S
N59 C52 1.286 . S
N59 C55 1.413 1_556 S
H60 C65 0.930 . S
H61 C68 0.930 . S
H62 C70 0.930 . S
H63 C64 1.016 . S
C64 H63 1.016 . S
C64 N71 1.286 . S
C65 H60 0.930 . S
C65 C66 1.397 . S
C65 C67 1.361 . S
C66 C65 1.397 . S
C66 C70 1.390 . S
C67 C65 1.361 . S
C67 C68 1.393 . S
C67 N71 1.413 . S
C68 H61 0.930 . S
C68 C67 1.393 . S
C68 C69 1.399 . S
C69 C68 1.399 . S
C69 C70 1.381 . S
C70 H62 0.930 . S
C70 C66 1.390 . S
C70 C69 1.381 . S
N71 C64 1.286 . S
N71 C67 1.413 . S
H72 C77 0.930 . S
H73 C80 0.930 . S
H74 C82 0.930 . S
H75 C76 1.016 . S
C76 H75 1.016 . S
C76 N83 1.286 1_556 S
C77 H72 0.930 . S
C77 C78 1.397 . S
C77 C79 1.361 . S
C78 C77 1.397 . S
C78 C82 1.390 . S
C79 C77 1.361 . S
C79 C80 1.393 1_554 S
C79 N83 1.413 . S
C80 H73 0.930 . S
C80 C79 1.393 1_556 S
C80 C81 1.399 . S
C81 C80 1.399 . S
C81 C82 1.381 1_556 S
C82 H74 0.930 . S
C82 C78 1.390 . S
C82 C81 1.381 1_554 S
N83 C76 1.286 1_554 S
N83 C79 1.413 . S
H84 C89 0.930 . S
H85 C92 0.930 . S
H86 C94 0.930 . S
H87 C88 1.016 . S
C88 H87 1.016 . S
C88 N95 1.286 . S
C89 H84 0.930 . S
C89 C90 1.397 . S
C89 C91 1.361 . S
C90 C89 1.397 . S
C90 C94 1.390 . S
C91 C89 1.361 . S
C91 C92 1.393 . S
C91 N95 1.413 . S
C92 H85 0.930 . S
C92 C91 1.393 . S
C92 C93 1.399 . S
C93 C92 1.399 . S
C93 C94 1.381 . S
C94 H86 0.930 . S
C94 C90 1.390 . S
C94 C93 1.381 . S
N95 C88 1.286 . S
N95 C91 1.413 . S
Fe96 O98 1.918 . S
Fe96 O101 1.997 1_455 S
Fe96 O102 2.002 1_455 S
Fe96 O107 1.976 . S
Fe96 O110 1.996 . S
Fe97 O98 1.918 . S
Fe97 O105 1.997 1_455 S
Fe97 O108 1.996 . S
Fe97 O112 1.976 . S
Fe97 O115 2.002 1_455 S
O98 Fe96 1.918 . S
O98 Fe97 1.918 . S
O98 Fe99 1.918 . S
Fe99 O98 1.918 . S
Fe99 O100 2.002 1_455 S
Fe99 O109 1.976 . S
Fe99 O113 1.996 . S
Fe99 O116 1.997 1_455 S
O100 Fe99 2.002 1_655 S
O100 C117 1.295 . S
O101 Fe96 1.997 1_655 S
O101 C117 1.235 . S
O102 Fe96 2.002 1_655 S
O102 C103 1.295 . S
C103 O102 1.295 . S
C103 O105 1.235 . S
C104 O109 1.287 . S
C104 O110 1.255 . S
O105 Fe97 1.997 1_655 S
O105 C103 1.235 . S
C106 O112 1.287 . S
C106 O113 1.255 . S
O107 Fe96 1.976 . S
O107 C114 1.287 . S
O108 Fe97 1.996 . S
O108 C114 1.255 . S
O109 Fe99 1.976 . S
O109 C104 1.287 . S
O110 Fe96 1.996 . S
O110 C104 1.255 . S
C111 O115 1.295 . S
C111 O116 1.235 . S
O112 Fe97 1.976 . S
O112 C106 1.287 . S
O113 Fe99 1.996 . S
O113 C106 1.255 . S
C114 O107 1.287 . S
C114 O108 1.255 . S
O115 Fe97 2.002 1_655 S
O115 C111 1.295 . S
O116 Fe99 1.997 1_655 S
O116 C111 1.235 . S
C117 O100 1.295 . S
C117 O101 1.235 . S
Fe118 O120 1.919 . S
Fe118 O123 1.976 1_655 S
Fe118 O124 1.982 1_655 S
Fe118 O129 1.996 . S
Fe118 O132 2.016 . S
Fe119 O120 1.919 . S
Fe119 O127 1.976 1_655 S
Fe119 O130 2.016 . S
Fe119 O134 1.996 . S
Fe119 O137 1.982 1_655 S
O120 Fe118 1.919 . S
O120 Fe119 1.919 . S
O120 Fe121 1.919 . S
Fe121 O120 1.919 . S
Fe121 O122 1.981 1_655 S
Fe121 O131 1.997 . S
Fe121 O135 2.016 . S
Fe121 O138 1.976 1_655 S
O122 Fe121 1.981 1_455 S
O122 C139 1.295 . S
O123 Fe118 1.976 1_455 S
O123 C139 1.235 . S
O124 Fe118 1.982 1_455 S
O124 C125 1.295 . S
C125 O124 1.295 . S
C125 O127 1.235 . S
C126 O131 1.287 . S
C126 O132 1.255 . S
O127 Fe119 1.976 1_455 S
O127 C125 1.235 . S
C128 O134 1.287 . S
C128 O135 1.255 . S
O129 Fe118 1.996 . S
O129 C136 1.287 . S
O130 Fe119 2.016 . S
O130 C136 1.255 . S
O131 Fe121 1.997 . S
O131 C126 1.287 . S
O132 Fe118 2.016 . S
O132 C126 1.255 . S
C133 O137 1.295 . S
C133 O138 1.235 . S
O134 Fe119 1.996 . S
O134 C128 1.287 . S
O135 Fe121 2.016 . S
O135 C128 1.255 . S
C136 O129 1.287 . S
C136 O130 1.255 . S
O137 Fe119 1.982 1_455 S
O137 C133 1.295 . S
O138 Fe121 1.976 1_455 S
O138 C133 1.235 . S
C139 O122 1.295 . S
C139 O123 1.235 . S
Fe140 O142 1.918 . S
Fe140 O145 1.997 . S
Fe140 O146 2.002 . S
Fe140 O151 1.976 . S
Fe140 O154 1.996 . S
Fe141 O142 1.918 . S
Fe141 O149 1.997 . S
Fe141 O152 1.996 . S
Fe141 O156 1.976 . S
Fe141 O159 2.002 . S
O142 Fe140 1.918 . S
O142 Fe141 1.918 . S
O142 Fe143 1.918 . S
Fe143 O142 1.918 . S
Fe143 O144 2.002 . S
Fe143 O153 1.976 . S
Fe143 O157 1.996 . S
Fe143 O160 1.997 . S
O144 Fe143 2.002 . S
O144 C161 1.295 . S
O145 Fe140 1.997 . S
O145 C161 1.235 . S
O146 Fe140 2.002 . S
O146 C147 1.295 . S
C147 O146 1.295 . S
C147 O149 1.235 . S
C148 O153 1.287 . S
C148 O154 1.255 . S
O149 Fe141 1.997 . S
O149 C147 1.235 . S
C150 O156 1.287 . S
C150 O157 1.255 . S
O151 Fe140 1.976 . S
O151 C158 1.287 . S
O152 Fe141 1.996 . S
O152 C158 1.255 . S
O153 Fe143 1.976 . S
O153 C148 1.287 . S
O154 Fe140 1.996 . S
O154 C148 1.255 . S
C155 O159 1.295 . S
C155 O160 1.235 . S
O156 Fe141 1.976 . S
O156 C150 1.287 . S
O157 Fe143 1.996 . S
O157 C150 1.255 . S
C158 O151 1.287 . S
C158 O152 1.255 . S
O159 Fe141 2.002 . S
O159 C155 1.295 . S
O160 Fe143 1.997 . S
O160 C155 1.235 . S
C161 O144 1.295 . S
C161 O145 1.235 . S
Fe162 O164 1.918 . S
Fe162 O167 1.997 . S
Fe162 O168 2.002 . S
Fe162 O173 1.976 . S
Fe162 O176 1.996 . S
Fe163 O164 1.918 . S
Fe163 O171 1.997 . S
Fe163 O174 1.996 . S
Fe163 O178 1.976 . S
Fe163 O181 2.002 . S
O164 Fe162 1.918 . S
O164 Fe163 1.918 . S
O164 Fe165 1.918 . S
Fe165 O164 1.918 . S
Fe165 O166 2.002 . S
Fe165 O175 1.976 . S
Fe165 O179 1.996 . S
Fe165 O182 1.997 . S
O166 Fe165 2.002 . S
O166 C183 1.295 . S
O167 Fe162 1.997 . S
O167 C183 1.235 . S
O168 Fe162 2.002 . S
O168 C169 1.295 . S
C169 O168 1.295 . S
C169 O171 1.235 . S
C170 O175 1.287 . S
C170 O176 1.255 . S
O171 Fe163 1.997 . S
O171 C169 1.235 . S
C172 O178 1.287 . S
C172 O179 1.255 . S
O173 Fe162 1.976 . S
O173 C180 1.287 . S
O174 Fe163 1.996 . S
O174 C180 1.255 . S
O175 Fe165 1.976 . S
O175 C170 1.287 . S
O176 Fe162 1.996 . S
O176 C170 1.255 . S
C177 O181 1.295 . S
C177 O182 1.235 . S
O178 Fe163 1.976 . S
O178 C172 1.287 . S
O179 Fe165 1.996 . S
O179 C172 1.255 . S
C180 O173 1.287 . S
C180 O174 1.255 . S
O181 Fe163 2.002 . S
O181 C177 1.295 . S
O182 Fe165 1.997 . S
O182 C177 1.235 . S
C183 O166 1.295 . S
C183 O167 1.235 . S
H184 C190 0.930 1_554 S
H185 C194 0.930 . S
H186 C199 0.929 . S
H187 C197 0.929 . S
H188 C192 0.929 . S
H189 C198 0.929 . S
C190 H184 0.930 1_556 S
C190 C191 1.367 . S
C190 C198 1.378 . S
C191 C190 1.367 . S
C191 C199 1.433 . S
C192 H188 0.929 . S
C192 C194 1.378 . S
C192 C196 1.350 . S
C193 C196 1.463 . S
C193 C198 1.350 . S
C193 N201 1.427 . S
C194 H185 0.930 . S
C194 C192 1.378 . S
C194 C195 1.367 . S
C195 C194 1.367 . S
C195 C197 1.433 . S
C196 C192 1.350 . S
C196 C193 1.463 . S
C196 N200 1.427 . S
C197 H187 0.929 . S
C197 C195 1.433 . S
C197 N200 1.384 . S
C198 H189 0.929 . S
C198 C190 1.378 . S
C198 C193 1.350 . S
C199 H186 0.929 . S
C199 C191 1.433 . S
C199 N201 1.384 . S
N200 C196 1.427 . S
N200 C197 1.384 . S
N201 C193 1.427 . S
N201 C199 1.384 . S
H202 C208 0.930 . S
H203 C212 0.930 . S
H204 C217 0.929 . S
H205 C215 0.929 . S
H206 C210 0.929 . S
H207 C216 0.929 . S
C208 H202 0.930 . S
C208 C209 1.367 . S
C208 C216 1.378 . S
C209 C208 1.367 . S
C209 C217 1.433 . S
C210 H206 0.929 . S
C210 C212 1.378 . S
C210 C214 1.350 . S
C211 C214 1.463 . S
C211 C216 1.350 . S
C211 N219 1.427 . S
C212 H203 0.930 . S
C212 C210 1.378 . S
C212 C213 1.367 . S
C213 C212 1.367 . S
C213 C215 1.433 . S
C214 C210 1.350 . S
C214 C211 1.463 . S
C214 N218 1.427 . S
C215 H205 0.929 . S
C215 C213 1.433 . S
C215 N218 1.384 . S
C216 H207 0.929 . S
C216 C208 1.378 . S
C216 C211 1.350 . S
C217 H204 0.929 . S
C217 C209 1.433 . S
C217 N219 1.384 . S
N218 C214 1.427 . S
N218 C215 1.384 . S
N219 C211 1.427 . S
N219 C217 1.384 . S
H220 C226 0.930 . S
H221 C230 0.930 . S
H222 C235 0.929 . S
H223 C233 0.929 . S
H224 C228 0.929 . S
H225 C234 0.929 . S
C226 H220 0.930 . S
C226 C227 1.367 . S
C226 C234 1.378 . S
C227 C226 1.367 . S
C227 C235 1.433 . S
C228 H224 0.929 . S
C228 C230 1.378 . S
C228 C232 1.350 . S
C229 C232 1.463 . S
C229 C234 1.350 . S
C229 N237 1.427 . S
C230 H221 0.930 . S
C230 C228 1.378 . S
C230 C231 1.367 . S
C231 C230 1.367 . S
C231 C233 1.433 . S
C232 C228 1.350 . S
C232 C229 1.463 . S
C232 N236 1.427 . S
C233 H223 0.929 . S
C233 C231 1.433 . S
C233 N236 1.384 . S
C234 H225 0.929 . S
C234 C226 1.378 . S
C234 C229 1.350 . S
C235 H222 0.929 . S
C235 C227 1.433 . S
C235 N237 1.384 . S
N236 C232 1.427 . S
N236 C233 1.384 . S
N237 C229 1.427 . S
N237 C235 1.384 . S
H238 C244 0.930 . S
H239 C248 0.930 . S
H240 C253 0.929 . S
H241 C251 0.929 . S
H242 C246 0.929 . S
H243 C252 0.929 . S
C244 H238 0.930 . S
C244 C245 1.367 . S
C244 C252 1.378 . S
C245 C244 1.367 . S
C245 C253 1.433 . S
C246 H242 0.929 . S
C246 C248 1.378 . S
C246 C250 1.350 . S
C247 C250 1.463 . S
C247 C252 1.350 . S
C247 N255 1.427 . S
C248 H239 0.930 . S
C248 C246 1.378 . S
C248 C249 1.367 . S
C249 C248 1.367 . S
C249 C251 1.433 . S
C250 C246 1.350 . S
C250 C247 1.463 . S
C250 N254 1.427 . S
C251 H241 0.929 . S
C251 C249 1.433 . S
C251 N254 1.384 . S
C252 H243 0.929 . S
C252 C244 1.378 . S
C252 C247 1.350 . S
C253 H240 0.929 . S
C253 C245 1.433 . S
C253 N255 1.384 . S
N254 C250 1.427 . S
N254 C251 1.384 . S
N255 C247 1.427 . S
N255 C253 1.384 . S
H256 C262 0.930 1_554 S
H257 C266 0.930 . S
H258 C271 0.929 . S
H259 C269 0.929 . S
H260 C264 0.929 . S
H261 C270 0.929 . S
C262 H256 0.930 1_556 S
C262 C263 1.367 . S
C262 C270 1.378 . S
C263 C262 1.367 . S
C263 C271 1.433 . S
C264 H260 0.929 . S
C264 C266 1.378 . S
C264 C268 1.350 . S
C265 C268 1.463 . S
C265 C270 1.350 . S
C265 N273 1.427 . S
C266 H257 0.930 . S
C266 C264 1.378 . S
C266 C267 1.367 . S
C267 C266 1.367 . S
C267 C269 1.433 . S
C268 C264 1.350 . S
C268 C265 1.463 . S
C268 N272 1.427 . S
C269 H259 0.929 . S
C269 C267 1.433 . S
C269 N272 1.384 . S
C270 H261 0.929 . S
C270 C262 1.378 . S
C270 C265 1.350 . S
C271 H258 0.929 . S
C271 C263 1.433 . S
C271 N273 1.384 . S
N272 C268 1.427 . S
N272 C269 1.384 . S
N273 C265 1.427 . S
N273 C271 1.384 . S
H274 C280 0.930 . S
H275 C284 0.930 . S
H276 C289 0.929 . S
H277 C287 0.929 . S
H278 C282 0.929 . S
H279 C288 0.929 . S
C280 H274 0.930 . S
C280 C281 1.367 . S
C280 C288 1.378 . S
C281 C280 1.367 . S
C281 C289 1.433 . S
C282 H278 0.929 . S
C282 C284 1.378 . S
C282 C286 1.350 . S
C283 C286 1.463 . S
C283 C288 1.350 . S
C283 N291 1.427 . S
C284 H275 0.930 . S
C284 C282 1.378 . S
C284 C285 1.367 . S
C285 C284 1.367 . S
C285 C287 1.433 . S
C286 C282 1.350 . S
C286 C283 1.463 . S
C286 N290 1.427 . S
C287 H277 0.929 . S
C287 C285 1.433 . S
C287 N290 1.384 . S
C288 H279 0.929 . S
C288 C280 1.378 . S
C288 C283 1.350 . S
C289 H276 0.929 . S
C289 C281 1.433 . S
C289 N291 1.384 . S
N290 C286 1.427 . S
N290 C287 1.384 . S
N291 C283 1.427 . S
N291 C289 1.384 . S
H292 C298 0.930 . S
H293 C302 0.930 . S
H294 C307 0.929 1_554 S
H295 C305 0.929 . S
H296 C300 0.929 . S
H297 C306 0.929 . S
C298 H292 0.930 . S
C298 C299 1.367 . S
C298 C306 1.378 . S
C299 C298 1.367 . S
C299 C307 1.433 . S
C300 H296 0.929 . S
C300 C302 1.378 . S
C300 C304 1.350 . S
C301 C304 1.463 . S
C301 C306 1.350 . S
C301 N309 1.427 . S
C302 H293 0.930 . S
C302 C300 1.378 . S
C302 C303 1.367 . S
C303 C302 1.367 . S
C303 C305 1.433 . S
C304 C300 1.350 . S
C304 C301 1.463 . S
C304 N308 1.427 . S
C305 H295 0.929 . S
C305 C303 1.433 . S
C305 N308 1.384 . S
C306 H297 0.929 . S
C306 C298 1.378 . S
C306 C301 1.350 . S
C307 H294 0.929 1_556 S
C307 C299 1.433 . S
C307 N309 1.384 . S
N308 C304 1.427 . S
N308 C305 1.384 . S
N309 C301 1.427 . S
N309 C307 1.384 . S
H310 C316 0.930 . S
H311 C320 0.930 . S
H312 C325 0.929 . S
H313 C323 0.929 . S
H314 C318 0.929 . S
H315 C324 0.929 . S
C316 H310 0.930 . S
C316 C317 1.367 . S
C316 C324 1.378 . S
C317 C316 1.367 . S
C317 C325 1.433 . S
C318 H314 0.929 . S
C318 C320 1.378 . S
C318 C322 1.350 . S
C319 C322 1.463 . S
C319 C324 1.350 . S
C319 N327 1.427 . S
C320 H311 0.930 . S
C320 C318 1.378 . S
C320 C321 1.367 . S
C321 C320 1.367 . S
C321 C323 1.433 . S
C322 C318 1.350 . S
C322 C319 1.463 . S
C322 N326 1.427 . S
C323 H313 0.929 . S
C323 C321 1.433 . S
C323 N326 1.384 . S
C324 H315 0.929 . S
C324 C316 1.378 . S
C324 C319 1.350 . S
C325 H312 0.929 . S
C325 C317 1.433 . S
C325 N327 1.384 . S
N326 C322 1.427 . S
N326 C323 1.384 . S
N327 C319 1.427 . S
N327 C325 1.384 . S
H328 C334 0.930 . S
H329 C338 0.930 . S
H330 C343 0.929 1_554 S
H331 C341 0.929 . S
H332 C336 0.929 . S
H333 C342 0.929 . S
C334 H328 0.930 . S
C334 C335 1.367 . S
C334 C342 1.378 . S
C335 C334 1.367 . S
C335 C343 1.433 . S
C336 H332 0.929 . S
C336 C338 1.378 . S
C336 C340 1.350 . S
C337 C340 1.463 . S
C337 C342 1.350 . S
C337 N345 1.427 . S
C338 H329 0.930 . S
C338 C336 1.378 . S
C338 C339 1.367 . S
C339 C338 1.367 . S
C339 C341 1.433 . S
C340 C336 1.350 . S
C340 C337 1.463 . S
C340 N344 1.427 . S
C341 H331 0.929 . S
C341 C339 1.433 . S
C341 N344 1.384 . S
C342 H333 0.929 . S
C342 C334 1.378 . S
C342 C337 1.350 . S
C343 H330 0.929 1_556 S
C343 C335 1.433 . S
C343 N345 1.384 . S
N344 C340 1.427 . S
N344 C341 1.384 . S
N345 C337 1.427 . S
N345 C343 1.384 . S
H346 C352 0.930 . S
H347 C356 0.930 . S
H348 C361 0.929 . S
H349 C359 0.929 . S
H350 C354 0.929 . S
H351 C360 0.929 . S
C352 H346 0.930 . S
C352 C353 1.367 . S
C352 C360 1.378 . S
C353 C352 1.367 . S
C353 C361 1.433 . S
C354 H350 0.929 . S
C354 C356 1.378 . S
C354 C358 1.350 . S
C355 C358 1.463 . S
C355 C360 1.350 . S
C355 N363 1.427 . S
C356 H347 0.930 . S
C356 C354 1.378 . S
C356 C357 1.367 . S
C357 C356 1.367 . S
C357 C359 1.433 . S
C358 C354 1.350 . S
C358 C355 1.463 . S
C358 N362 1.427 . S
C359 H349 0.929 . S
C359 C357 1.433 . S
C359 N362 1.384 . S
C360 H351 0.929 . S
C360 C352 1.378 . S
C360 C355 1.350 . S
C361 H348 0.929 . S
C361 C353 1.433 . S
C361 N363 1.384 . S
N362 C358 1.427 . S
N362 C359 1.384 . S
N363 C355 1.427 . S
N363 C361 1.384 . S
H364 C370 0.930 . S
H365 C374 0.930 . S
H366 C379 0.929 1_554 S
H367 C377 0.929 . S
H368 C372 0.929 . S
H369 C378 0.929 . S
C370 H364 0.930 . S
C370 C371 1.367 . S
C370 C378 1.378 . S
C371 C370 1.367 . S
C371 C379 1.433 . S
C372 H368 0.929 . S
C372 C374 1.378 . S
C372 C376 1.350 . S
C373 C376 1.463 . S
C373 C378 1.350 . S
C373 N381 1.427 . S
C374 H365 0.930 . S
C374 C372 1.378 . S
C374 C375 1.367 . S
C375 C374 1.367 . S
C375 C377 1.433 . S
C376 C372 1.350 . S
C376 C373 1.463 . S
C376 N380 1.427 . S
C377 H367 0.929 . S
C377 C375 1.433 . S
C377 N380 1.384 . S
C378 H369 0.929 . S
C378 C370 1.378 . S
C378 C373 1.350 . S
C379 H366 0.929 1_556 S
C379 C371 1.433 . S
C379 N381 1.384 . S
N380 C376 1.427 . S
N380 C377 1.384 . S
N381 C373 1.427 . S
N381 C379 1.384 . S
H382 C388 0.930 . S
H383 C392 0.930 . S
H384 C397 0.929 . S
H385 C395 0.929 . S
H386 C390 0.929 . S
H387 C396 0.929 . S
C388 H382 0.930 . S
C388 C389 1.367 . S
C388 C396 1.378 . S
C389 C388 1.367 . S
C389 C397 1.433 . S
C390 H386 0.929 . S
C390 C392 1.378 . S
C390 C394 1.350 . S
C391 C394 1.463 . S
C391 C396 1.350 . S
C391 N399 1.427 . S
C392 H383 0.930 . S
C392 C390 1.378 . S
C392 C393 1.367 . S
C393 C392 1.367 . S
C393 C395 1.433 . S
C394 C390 1.350 . S
C394 C391 1.463 . S
C394 N398 1.427 . S
C395 H385 0.929 . S
C395 C393 1.433 . S
C395 N398 1.384 . S
C396 H387 0.929 . S
C396 C388 1.378 . S
C396 C391 1.350 . S
C397 H384 0.929 . S
C397 C389 1.433 . S
C397 N399 1.384 . S
N398 C394 1.427 . S
N398 C395 1.384 . S
N399 C391 1.427 . S
N399 C397 1.384 . S
H400 C406 0.930 . S
H401 C410 0.930 . S
H402 C415 0.929 . S
H403 C413 0.929 . S
H404 C408 0.929 . S
H405 C414 0.929 . S
C406 H400 0.930 . S
C406 C407 1.367 . S
C406 C414 1.378 . S
C407 C406 1.367 . S
C407 C415 1.433 . S
C408 H404 0.929 . S
C408 C410 1.378 . S
C408 C412 1.350 . S
C409 C412 1.463 1_565 S
C409 C414 1.350 . S
C409 N417 1.427 . S
C410 H401 0.930 . S
C410 C408 1.378 . S
C410 C411 1.367 . S
C411 C410 1.367 . S
C411 C413 1.433 . S
C412 C408 1.350 . S
C412 C409 1.463 1_545 S
C412 N416 1.427 1_545 S
C413 H403 0.929 . S
C413 C411 1.433 . S
C413 N416 1.384 1_545 S
C414 H405 0.929 . S
C414 C406 1.378 . S
C414 C409 1.350 . S
C415 H402 0.929 . S
C415 C407 1.433 . S
C415 N417 1.384 . S
N416 C412 1.427 1_565 S
N416 C413 1.384 1_565 S
N417 C409 1.427 . S
N417 C415 1.384 . S
H418 C424 0.930 . S
H419 C428 0.930 . S
H420 C433 0.929 . S
H421 C431 0.929 . S
H422 C426 0.929 . S
H423 C432 0.929 . S
C424 H418 0.930 . S
C424 C425 1.367 . S
C424 C432 1.378 . S
C425 C424 1.367 . S
C425 C433 1.433 . S
C426 H422 0.929 . S
C426 C428 1.378 . S
C426 C430 1.361 . S
C427 C430 1.448 1_545 S
C427 C432 1.350 . S
C427 N435 1.427 . S
C428 H419 0.930 . S
C428 C426 1.378 . S
C428 C429 1.367 . S
C429 C428 1.367 . S
C429 C431 1.433 . S
C430 C426 1.361 . S
C430 C427 1.448 1_565 S
C430 N434 1.430 . S
C431 H421 0.929 . S
C431 C429 1.433 . S
C431 N434 1.384 . S
C432 H423 0.929 . S
C432 C424 1.378 . S
C432 C427 1.350 . S
C433 H420 0.929 . S
C433 C425 1.433 . S
C433 N435 1.384 . S
N434 C430 1.430 . S
N434 C431 1.384 . S
N435 C427 1.427 . S
N435 C433 1.384 . S
H436 C442 0.930 . S
H437 C446 0.930 . S
H438 C451 0.929 . S
H439 C449 0.929 . S
H440 C444 0.929 . S
H441 C450 0.929 1_545 S
C442 H436 0.930 . S
C442 C443 1.367 . S
C442 C450 1.378 . S
C443 C442 1.367 . S
C443 C451 1.433 . S
C444 H440 0.929 . S
C444 C446 1.378 1_565 S
C444 C448 1.350 1_565 S
C445 C448 1.463 1_565 S
C445 C450 1.350 . S
C445 N453 1.427 . S
C446 H437 0.930 . S
C446 C444 1.378 1_545 S
C446 C447 1.367 . S
C447 C446 1.367 . S
C447 C449 1.433 . S
C448 C444 1.350 1_545 S
C448 C445 1.463 1_545 S
C448 N452 1.427 . S
C449 H439 0.929 . S
C449 C447 1.433 . S
C449 N452 1.384 . S
C450 H441 0.929 1_565 S
C450 C442 1.378 . S
C450 C445 1.350 . S
C451 H438 0.929 . S
C451 C443 1.433 . S
C451 N453 1.384 . S
N452 C448 1.427 . S
N452 C449 1.384 . S
N453 C445 1.427 . S
N453 C451 1.384 . S
H454 C460 0.930 . S
H455 C464 0.930 . S
H456 C469 0.929 . S
H457 C467 0.929 . S
H458 C462 0.929 . S
H459 C468 0.929 . S
C460 H454 0.930 . S
C460 C461 1.367 . S
C460 C468 1.378 . S
C461 C460 1.367 . S
C461 C469 1.433 . S
C462 H458 0.929 . S
C462 C464 1.378 . S
C462 C466 1.350 . S
C463 C466 1.463 1_545 S
C463 C468 1.350 . S
C463 N471 1.427 . S
C464 H455 0.930 . S
C464 C462 1.378 . S
C464 C465 1.367 . S
C465 C464 1.367 . S
C465 C467 1.433 . S
C466 C462 1.350 . S
C466 C463 1.463 1_565 S
C466 N470 1.427 1_565 S
C467 H457 0.929 . S
C467 C465 1.433 . S
C467 N470 1.384 1_565 S
C468 H459 0.929 . S
C468 C460 1.378 . S
C468 C463 1.350 . S
C469 H456 0.929 . S
C469 C461 1.433 . S
C469 N471 1.384 . S
N470 C466 1.427 1_545 S
N470 C467 1.384 1_545 S
N471 C463 1.427 . S
N471 C469 1.384 . S
H472 C478 0.930 . S
H473 C482 0.930 . S
H474 C487 0.929 . S
H475 C485 0.929 . S
H476 C480 0.929 . S
H477 C486 0.929 . S
C478 H472 0.930 . S
C478 C479 1.367 . S
C478 C486 1.378 . S
C479 C478 1.367 . S
C479 C487 1.433 . S
C480 H476 0.929 . S
C480 C482 1.378 . S
C480 C484 1.350 . S
C481 C484 1.463 . S
C481 C486 1.350 . S
C481 N489 1.427 . S
C482 H473 0.930 . S
C482 C480 1.378 . S
C482 C483 1.367 . S
C483 C482 1.367 . S
C483 C485 1.433 . S
C484 C480 1.350 . S
C484 C481 1.463 . S
C484 N488 1.427 . S
C485 H475 0.929 . S
C485 C483 1.433 . S
C485 N488 1.384 . S
C486 H477 0.929 . S
C486 C478 1.378 . S
C486 C481 1.350 . S
C487 H474 0.929 . S
C487 C479 1.433 . S
C487 N489 1.384 . S
N488 C484 1.427 . S
N488 C485 1.384 . S
N489 C481 1.427 . S
N489 C487 1.384 . S
H490 C496 0.930 . S
H491 C500 0.930 . S
H492 C505 0.929 . S
H493 C503 0.929 . S
H494 C498 0.929 . S
H495 C504 0.929 . S
C496 H490 0.930 . S
C496 C497 1.367 . S
C496 C504 1.378 . S
C497 C496 1.367 . S
C497 C505 1.433 . S
C498 H494 0.929 . S
C498 C500 1.378 . S
C498 C502 1.350 . S
C499 C502 1.463 . S
C499 C504 1.350 . S
C499 N507 1.427 . S
C500 H491 0.930 . S
C500 C498 1.378 . S
C500 C501 1.367 . S
C501 C500 1.367 . S
C501 C503 1.433 . S
C502 C498 1.350 . S
C502 C499 1.463 . S
C502 N506 1.427 . S
C503 H493 0.929 . S
C503 C501 1.433 . S
C503 N506 1.384 . S
C504 H495 0.929 . S
C504 C496 1.378 . S
C504 C499 1.350 . S
C505 H492 0.929 . S
C505 C497 1.433 . S
C505 N507 1.384 . S
N506 C502 1.427 . S
N506 C503 1.384 . S
N507 C499 1.427 . S
N507 C505 1.384 . S
H508 C514 0.930 . S
H509 C518 0.930 . S
H510 C523 0.929 . S
H511 C521 0.929 . S
H512 C516 0.929 . S
H513 C522 0.929 . S
C514 H508 0.930 . S
C514 C515 1.367 . S
C514 C522 1.378 . S
C515 C514 1.367 . S
C515 C523 1.433 . S
C516 H512 0.929 . S
C516 C518 1.378 . S
C516 C520 1.350 . S
C517 C520 1.463 . S
C517 C522 1.350 . S
C517 N525 1.427 . S
C518 H509 0.930 . S
C518 C516 1.378 . S
C518 C519 1.367 . S
C519 C518 1.367 . S
C519 C521 1.433 . S
C520 C516 1.350 . S
C520 C517 1.463 . S
C520 N524 1.427 . S
C521 H511 0.929 . S
C521 C519 1.433 . S
C521 N524 1.384 . S
C522 H513 0.929 . S
C522 C514 1.378 . S
C522 C517 1.350 . S
C523 H510 0.929 . S
C523 C515 1.433 . S
C523 N525 1.384 . S
N524 C520 1.427 . S
N524 C521 1.384 . S
N525 C517 1.427 . S
N525 C523 1.384 . S
H526 C532 0.930 . S
H527 C536 0.930 . S
H528 C541 0.929 . S
H529 C539 0.929 . S
H530 C534 0.929 . S
H531 C540 0.929 . S
C532 H526 0.930 . S
C532 C533 1.367 . S
C532 C540 1.378 . S
C533 C532 1.367 . S
C533 C541 1.433 . S
C534 H530 0.929 . S
C534 C536 1.378 . S
C534 C538 1.350 . S
C535 C538 1.463 . S
C535 C540 1.350 . S
C535 N543 1.427 . S
C536 H527 0.930 . S
C536 C534 1.378 . S
C536 C537 1.367 . S
C537 C536 1.367 . S
C537 C539 1.433 . S
C538 C534 1.350 . S
C538 C535 1.463 . S
C538 N542 1.427 . S
C539 H529 0.929 . S
C539 C537 1.433 . S
C539 N542 1.384 . S
C540 H531 0.929 . S
C540 C532 1.378 . S
C540 C535 1.350 . S
C541 H528 0.929 . S
C541 C533 1.433 . S
C541 N543 1.384 . S
N542 C538 1.427 . S
N542 C539 1.384 . S
N543 C535 1.427 . S
N543 C541 1.384 . S
H544 C550 0.930 . S
H545 C554 0.930 . S
H546 C559 0.929 . S
H547 C557 0.929 . S
H548 C552 0.929 . S
H549 C558 0.929 . S
C550 H544 0.930 . S
C550 C551 1.367 . S
C550 C558 1.378 . S
C551 C550 1.367 . S
C551 C559 1.433 . S
C552 H548 0.929 . S
C552 C554 1.378 . S
C552 C556 1.350 . S
C553 C556 1.463 . S
C553 C558 1.350 . S
C553 N561 1.427 . S
C554 H545 0.930 . S
C554 C552 1.378 . S
C554 C555 1.367 . S
C555 C554 1.367 . S
C555 C557 1.433 . S
C556 C552 1.350 . S
C556 C553 1.463 . S
C556 N560 1.427 . S
C557 H547 0.929 . S
C557 C555 1.433 . S
C557 N560 1.384 . S
C558 H549 0.929 . S
C558 C550 1.378 . S
C558 C553 1.350 . S
C559 H546 0.929 . S
C559 C551 1.433 . S
C559 N561 1.384 . S
N560 C556 1.427 . S
N560 C557 1.384 . S
N561 C553 1.427 . S
N561 C559 1.384 . S
H562 C568 0.930 . S
H563 C572 0.930 . S
H564 C577 0.929 . S
H565 C575 0.929 . S
H566 C570 0.929 . S
H567 C576 0.929 . S
C568 H562 0.930 . S
C568 C569 1.367 . S
C568 C576 1.378 . S
C569 C568 1.367 . S
C569 C577 1.433 . S
C570 H566 0.929 . S
C570 C572 1.378 . S
C570 C574 1.350 . S
C571 C574 1.463 . S
C571 C576 1.350 . S
C571 N579 1.427 . S
C572 H563 0.930 . S
C572 C570 1.378 . S
C572 C573 1.367 . S
C573 C572 1.367 . S
C573 C575 1.433 . S
C574 C570 1.350 . S
C574 C571 1.463 . S
C574 N578 1.427 . S
C575 H565 0.929 . S
C575 C573 1.433 . S
C575 N578 1.384 . S
C576 H567 0.929 . S
C576 C568 1.378 . S
C576 C571 1.350 . S
C577 H564 0.929 . S
C577 C569 1.433 . S
C577 N579 1.384 . S
N578 C574 1.427 . S
N578 C575 1.384 . S
N579 C571 1.427 . S
N579 C577 1.384 . S
H580 C586 0.930 . S
H581 C590 0.930 . S
H582 C595 0.929 . S
H583 C593 0.929 . S
H584 C588 0.929 . S
H585 C594 0.929 . S
C586 H580 0.930 . S
C586 C587 1.367 . S
C586 C594 1.378 . S
C587 C586 1.367 . S
C587 C595 1.433 . S
C588 H584 0.929 . S
C588 C590 1.378 . S
C588 C592 1.350 . S
C589 C592 1.463 . S
C589 C594 1.350 . S
C589 N597 1.427 . S
C590 H581 0.930 . S
C590 C588 1.378 . S
C590 C591 1.367 . S
C591 C590 1.367 . S
C591 C593 1.433 . S
C592 C588 1.350 . S
C592 C589 1.463 . S
C592 N596 1.427 . S
C593 H583 0.929 . S
C593 C591 1.433 . S
C593 N596 1.384 . S
C594 H585 0.929 . S
C594 C586 1.378 . S
C594 C589 1.350 . S
C595 H582 0.929 . S
C595 C587 1.433 . S
C595 N597 1.384 . S
N596 C592 1.427 . S
N596 C593 1.384 . S
N597 C589 1.427 . S
N597 C595 1.384 . S
H598 C604 0.930 . S
H599 C608 0.930 . S
H600 C613 0.929 . S
H601 C611 0.929 . S
H602 C606 0.929 . S
H603 C612 0.929 . S
C604 H598 0.930 . S
C604 C605 1.367 . S
C604 C612 1.378 . S
C605 C604 1.367 . S
C605 C613 1.433 . S
C606 H602 0.929 . S
C606 C608 1.378 . S
C606 C610 1.350 . S
C607 C610 1.463 . S
C607 C612 1.350 . S
C607 N615 1.427 . S
C608 H599 0.930 . S
C608 C606 1.378 . S
C608 C609 1.367 . S
C609 C608 1.367 . S
C609 C611 1.433 . S
C610 C606 1.350 . S
C610 C607 1.463 . S
C610 N614 1.427 . S
C611 H601 0.929 . S
C611 C609 1.433 . S
C611 N614 1.384 . S
C612 H603 0.929 . S
C612 C604 1.378 . S
C612 C607 1.350 . S
C613 H600 0.929 . S
C613 C605 1.433 . S
C613 N615 1.384 . S
N614 C610 1.427 . S
N614 C611 1.384 . S
N615 C607 1.427 . S
N615 C613 1.384 . S
C191 C4 1.552 . S
C195 C139 1.543 . S
C213 C103 1.541 . S
C209 C16 1.551 . S
C231 C126 1.541 . S
C227 C28 1.530 . S
C249 C114 1.544 . S
C245 C40 1.532 . S
C267 C183 1.542 . S
C263 C52 1.551 . S
C285 C147 1.541 . S
C281 C64 1.547 . S
C299 C76 1.528 . S
C303 C170 1.542 . S
C321 C158 1.542 . S
C317 C88 1.528 . S
C335 C9 1.499 . S
C339 C180 1.527 . S
C357 C150 1.527 . S
C353 C21 1.500 . S
C371 C33 1.533 . S
C375 C169 1.542 . S
C389 C45 1.529 . S
C393 C155 1.545 . S
C411 C136 1.528 . S
C407 C57 1.493 . S
C425 C69 1.500 . S
C429 C106 1.527 . S
C447 C125 1.542 . S
C443 C81 1.532 . S
C465 C111 1.547 . S
C461 C93 1.526 . S
C483 C161 1.519 . S
C479 C6 1.516 . S
C501 C177 1.519 . S
C497 C18 1.518 . S
C515 C30 1.492 . S
C519 C148 1.495 . S
C537 C172 1.495 . S
C533 C42 1.493 . S
C555 C117 1.518 . S
C551 C54 1.518 . S
C569 C66 1.516 . S
C573 C133 1.521 . S
C587 C78 1.492 . S
C591 C104 1.495 . S
C605 C90 1.489 . S
C609 C128 1.496 . S
