# Generated by pormake.
# Topology zzz, (3,6)-cn, num edge types: 1
# Building blocks:
#     Node 0, Type 0, BuildingBlock: BELTOD_clean_linker_0, # of connection points: 3
#     Node 1, Type 0, BuildingBlock: BELTOD_clean_linker_0, # of connection points: 3
#     Node 2, Type 0, BuildingBlock: BELTOD_clean_linker_0, # of connection points: 3
#     Node 3, Type 0, BuildingBlock: BELTOD_clean_linker_0, # of connection points: 3
#     Node 4, Type 0, BuildingBlock: BELTOD_clean_linker_0, # of connection points: 3
#     Node 5, Type 0, BuildingBlock: BELTOD_clean_linker_0, # of connection points: 3
#     Node 6, Type 0, BuildingBlock: BELTOD_clean_linker_0, # of connection points: 3
#     Node 7, Type 0, BuildingBlock: BELTOD_clean_linker_0, # of connection points: 3
#     Node 8, Type 1, BuildingBlock: CUWYAW_clean_sbu_0, # of connection points: 6
#     Node 9, Type 1, BuildingBlock: CUWYAW_clean_sbu_0, # of connection points: 6
#     Node 10, Type 1, BuildingBlock: CUWYAW_clean_sbu_0, # of connection points: 6
#     Node 11, Type 1, BuildingBlock: CUWYAW_clean_sbu_0, # of connection points: 6
#     Edge 12, Type (0, 1), BuildingBlock: CIFDUS_clean_linker_0, # of connection points: 2
#     Edge 13, Type (0, 1), BuildingBlock: CIFDUS_clean_linker_0, # of connection points: 2
#     Edge 14, Type (0, 1), BuildingBlock: CIFDUS_clean_linker_0, # of connection points: 2
#     Edge 15, Type (0, 1), BuildingBlock: CIFDUS_clean_linker_0, # of connection points: 2
#     Edge 16, Type (0, 1), BuildingBlock: CIFDUS_clean_linker_0, # of connection points: 2
#     Edge 17, Type (0, 1), BuildingBlock: CIFDUS_clean_linker_0, # of connection points: 2
#     Edge 18, Type (0, 1), BuildingBlock: CIFDUS_clean_linker_0, # of connection points: 2
#     Edge 19, Type (0, 1), BuildingBlock: CIFDUS_clean_linker_0, # of connection points: 2
#     Edge 20, Type (0, 1), BuildingBlock: CIFDUS_clean_linker_0, # of connection points: 2
#     Edge 21, Type (0, 1), BuildingBlock: CIFDUS_clean_linker_0, # of connection points: 2
#     Edge 22, Type (0, 1), BuildingBlock: CIFDUS_clean_linker_0, # of connection points: 2
#     Edge 23, Type (0, 1), BuildingBlock: CIFDUS_clean_linker_0, # of connection points: 2
#     Edge 24, Type (0, 1), BuildingBlock: CIFDUS_clean_linker_0, # of connection points: 2
#     Edge 25, Type (0, 1), BuildingBlock: CIFDUS_clean_linker_0, # of connection points: 2
#     Edge 26, Type (0, 1), BuildingBlock: CIFDUS_clean_linker_0, # of connection points: 2
#     Edge 27, Type (0, 1), BuildingBlock: CIFDUS_clean_linker_0, # of connection points: 2
#     Edge 28, Type (0, 1), BuildingBlock: CIFDUS_clean_linker_0, # of connection points: 2
#     Edge 29, Type (0, 1), BuildingBlock: CIFDUS_clean_linker_0, # of connection points: 2
#     Edge 30, Type (0, 1), BuildingBlock: CIFDUS_clean_linker_0, # of connection points: 2
#     Edge 31, Type (0, 1), BuildingBlock: CIFDUS_clean_linker_0, # of connection points: 2
#     Edge 32, Type (0, 1), BuildingBlock: CIFDUS_clean_linker_0, # of connection points: 2
#     Edge 33, Type (0, 1), BuildingBlock: CIFDUS_clean_linker_0, # of connection points: 2
#     Edge 34, Type (0, 1), BuildingBlock: CIFDUS_clean_linker_0, # of connection points: 2
#     Edge 35, Type (0, 1), BuildingBlock: CIFDUS_clean_linker_0, # of connection points: 2
# Relax obj value: 0.442
# Max RMSD: 0.234
# Mean RMSD: 0.222
data_MOF--net-zzz--node1-CUWYAW_clean_sbu_0--node2-BELTOD_clean_linker_0--edge1-CIFDUS_clean_linker_0
_symmetry_space_group_name_H-M    P1
_symmetry_Int_Tables_number       1
_symmetry_cell_setting            triclinic
loop_
_symmetry_equiv_pos_as_xyz
'x, y, z'
_cell_length_a     48.857276
_cell_length_b     48.939081
_cell_length_c     15.933078
_cell_angle_alpha  89.966985
_cell_angle_beta   89.832061
_cell_angle_gamma 89.938765
loop_
_atom_site_label
_atom_site_type_symbol
_atom_site_fract_x
_atom_site_fract_y
_atom_site_fract_z
_atom_type_partial_charge
P0 P 0.73235 0.4774 0.38764 0.0
H1 H 0.74772 0.49398 0.55854 0.0
H2 H 0.79122 0.50912 0.61695 0.0
H3 H 0.82377 0.51781 0.36579 0.0
H4 H 0.77984 0.50387 0.30826 0.0
H5 H 0.67888 0.4591 0.33655 0.0
H6 H 0.6479 0.47263 0.22534 0.0
H7 H 0.69974 0.54187 0.1691 0.0
H8 H 0.7314 0.52732 0.27998 0.0
H9 H 0.75875 0.42667 0.44086 0.0
H10 H 0.74548 0.4706 0.20987 0.0
O11 O 0.71546 0.4633 0.46791 0.0
H12 H 0.79231 0.3975 0.37018 0.0
H13 H 0.77935 0.44273 0.14026 0.0
C14 C 0.76027 0.49784 0.42871 0.0
C15 C 0.76388 0.50006 0.51585 0.0
C16 C 0.78909 0.50828 0.54939 0.0
C17 C 0.8115 0.51421 0.49658 0.0
C18 C 0.80716 0.51367 0.40904 0.0
C19 C 0.78184 0.50572 0.37567 0.0
C20 C 0.70725 0.49244 0.3179 0.0
C21 C 0.68328 0.47763 0.30184 0.0
C22 C 0.66543 0.48549 0.23782 0.0
C23 C 0.67103 0.50849 0.18754 0.0
C24 C 0.69477 0.52388 0.20561 0.0
C25 C 0.71279 0.51582 0.26984 0.0
C26 C 0.74945 0.45067 0.33059 0.0
C27 C 0.76234 0.42941 0.37428 0.0
C28 C 0.78173 0.41293 0.33391 0.0
C29 C 0.78893 0.4179 0.24962 0.0
C30 C 0.77421 0.43784 0.20467 0.0
C31 C 0.75474 0.45406 0.24481 0.0
P32 P 0.03712 0.72225 0.43098 0.0
H33 H 0.02129 0.73593 0.60346 0.0
H34 H 0.01092 0.78003 0.66573 0.0
H35 H 0.99756 0.81379 0.41864 0.0
H36 H 1.00872 0.7695 0.35655 0.0
H37 H 0.05881 0.6715 0.36752 0.0
H38 H 0.04773 0.64248 0.24901 0.0
H39 H 0.97726 0.69305 0.19556 0.0
H40 H 0.98932 0.72276 0.31409 0.0
H41 H 0.07795 0.75632 0.51023 0.0
H42 H 0.05445 0.7347 0.25791 0.0
O43 O 0.04967 0.70332 0.50913 0.0
H44 H 0.09795 0.79878 0.45768 0.0
H45 H 0.07538 0.77649 0.20561 0.0
C46 C 0.01558 0.74901 0.47493 0.0
C47 C 0.01494 0.75239 0.56248 0.0
C48 C 1.00917 0.77793 0.59833 0.0
C49 C 1.00392 0.8009 0.54752 0.0
C50 C 1.0021 0.79684 0.46003 0.0
C51 C 1.00783 0.77121 0.42426 0.0
C52 C 0.02465 0.69906 0.35093 0.0
C53 C 0.04061 0.67608 0.33145 0.0
C54 C 0.03414 0.65934 0.2633 0.0
C55 C 0.0114 0.66506 0.21213 0.0
C56 C 0.99507 0.68799 0.23274 0.0
C57 C 1.00174 0.70492 0.30119 0.0
C58 C 0.06452 0.74239 0.38824 0.0
C59 C 0.07874 0.75971 0.44308 0.0
C60 C 0.09012 0.784 0.41323 0.0
C61 C 0.08809 0.79064 0.32794 0.0
C62 C 0.07741 0.77147 0.27156 0.0
C63 C 0.06544 0.74751 0.30164 0.0
P64 P 0.79262 0.03106 0.36784 0.0
H65 H 0.77092 0.02311 0.53666 0.0
H66 H 0.7251 0.01385 0.58595 0.0
H67 H 0.70222 0.98846 0.33571 0.0
H68 H 0.74741 1.00083 0.2856 0.0
H69 H 0.84894 0.04436 0.32872 0.0
H70 H 0.87915 0.03385 0.21131 0.0
H71 H 0.81817 0.97931 0.11055 0.0
H72 H 0.78806 0.98959 0.22947 0.0
H73 H 0.76906 0.07885 0.44883 0.0
H74 H 0.77659 0.04693 0.19761 0.0
O75 O 0.81153 0.04073 0.44971 0.0
H76 H 0.73146 0.10822 0.40338 0.0
H77 H 0.73917 0.07584 0.15222 0.0
C78 C 0.76339 0.01191 0.40737 0.0
C79 C 0.75641 0.01464 0.49258 0.0
C80 C 0.72976 1.00932 0.52105 0.0
C81 C 0.70916 1.00065 0.4653 0.0
C82 C 0.7169 0.99583 0.38101 0.0
C83 C 0.74339 1.00197 0.3522 0.0
C84 C 0.81612 0.01768 0.28909 0.0
C85 C 0.84224 0.0295 0.28285 0.0
C86 C 0.85962 0.02347 0.21535 0.0
C87 C 0.85116 1.00577 0.15109 0.0
C88 C 0.82528 0.99321 0.1586 0.0
C89 C 0.80799 0.99903 0.22705 0.0
C90 C 0.77573 0.06075 0.32663 0.0
C91 C 0.76363 0.07919 0.38298 0.0
C92 C 0.74197 0.09581 0.35713 0.0
C93 C 0.73208 0.09408 0.27456 0.0
C94 C 0.7464 0.07791 0.21609 0.0
C95 C 0.76793 0.06123 0.24212 0.0
P96 P 0.46871 0.79323 0.38676 0.0
H97 H 0.48055 0.78253 0.56453 0.0
H98 H 0.49302 0.74055 0.63738 0.0
H99 H 0.50974 0.70189 0.39891 0.0
H100 H 0.49804 0.74429 0.32683 0.0
H101 H 0.46021 0.85086 0.35207 0.0
H102 H 0.47475 0.88006 0.23799 0.0
H103 H 0.53177 0.81775 0.15618 0.0
H104 H 0.51554 0.78785 0.26879 0.0
H105 H 0.43869 0.74208 0.40857 0.0
H106 H 0.4424 0.80656 0.22414 0.0
O107 O 0.45136 0.81095 0.4589 0.0
H108 H 0.41576 0.71298 0.30926 0.0
H109 H 0.41704 0.7784 0.12601 0.0
C110 C 0.4883 0.76676 0.43986 0.0
C111 C 0.48786 0.76539 0.52785 0.0
C112 C 0.49459 0.74107 0.5696 0.0
C113 C 0.50175 0.71737 0.52434 0.0
C114 C 0.50446 0.71957 0.43642 0.0
C115 C 0.49795 0.74403 0.39478 0.0
C116 C 0.48702 0.81719 0.32031 0.0
C117 C 0.47648 0.84371 0.31133 0.0
C118 C 0.48493 0.86057 0.24525 0.0
C119 C 0.50446 0.85151 0.18623 0.0
C120 C 0.51626 0.82543 0.19868 0.0
C121 C 0.50737 0.80835 0.26431 0.0
C122 C 0.444 0.7758 0.3221 0.0
C123 C 0.43405 0.75024 0.34706 0.0
C124 C 0.42029 0.73368 0.28998 0.0
C125 C 0.4152 0.74282 0.20752 0.0
C126 C 0.42169 0.77008 0.18729 0.0
C127 C 0.43619 0.78635 0.24385 0.0
P128 P 0.30663 0.46175 0.06427 0.0
H129 H 0.28425 0.46615 0.89447 0.0
H130 H 0.2387 0.47979 0.85042 0.0
H131 H 0.2262 0.52006 0.08859 0.0
H132 H 0.2716 0.50547 0.13334 0.0
H133 H 0.35619 0.43492 0.11764 0.0
H134 H 0.39209 0.44656 0.21702 0.0
H135 H 0.35605 0.52642 0.25075 0.0
H136 H 0.32013 0.51465 0.14915 0.0
H137 H 0.26352 0.42243 0.03077 0.0
H138 H 0.29861 0.46206 0.24703 0.0
O139 O 0.31857 0.44058 0.99065 0.0
H140 H 0.21955 0.41959 0.10347 0.0
H141 H 0.25498 0.45888 0.31944 0.0
C142 C 0.28186 0.4849 0.01726 0.0
C143 C 0.27237 0.47906 0.93601 0.0
C144 C 0.24595 0.48674 0.91088 0.0
C145 C 0.22825 0.50053 0.96647 0.0
C146 C 0.23889 0.50889 0.04456 0.0
C147 C 0.26533 0.50116 0.06962 0.0
C148 C 0.33556 0.47397 0.12482 0.0
C149 C 0.35629 0.45521 0.14475 0.0
C150 C 0.37669 0.46178 0.20261 0.0
C151 C 0.37688 0.48732 0.24293 0.0
C152 C 0.35665 0.5066 0.22061 0.0
C153 C 0.33605 0.49991 0.16245 0.0
C154 C 0.28424 0.44296 0.13266 0.0
C155 C 0.2624 0.42873 0.09586 0.0
C156 C 0.23718 0.42722 0.13722 0.0
C157 C 0.23397 0.43957 0.21594 0.0
C158 C 0.25709 0.44942 0.25825 0.0
C159 C 0.28215 0.45111 0.21676 0.0
P160 P 0.05339 0.3022 0.08471 0.0
H161 H 0.04589 0.28313 0.91152 0.0
H162 H 0.03466 0.23784 0.8583 0.0
H163 H 1.00524 0.21478 0.10384 0.0
H164 H 0.01803 0.2595 0.15786 0.0
H165 H 0.07299 0.35491 0.14119 0.0
H166 H 0.0607 0.38465 0.25801 0.0
H167 H 0.99137 0.33298 0.31352 0.0
H168 H 1.00387 0.30323 0.19586 0.0
H169 H 0.09628 0.26644 0.02207 0.0
H170 H 0.06449 0.29122 0.26327 0.0
O171 O 0.0687 0.3196 1.00766 0.0
H172 H 0.11071 0.22296 0.08252 0.0
H173 H 0.07948 0.24821 0.32341 0.0
C174 C 0.03237 0.27536 0.03886 0.0
C175 C 0.03592 0.26884 0.95345 0.0
C176 C 0.02962 0.24265 0.92284 0.0
C177 C 0.0196 0.22224 0.977 0.0
C178 C 0.01354 0.22969 0.06053 0.0
C179 C 0.02014 0.25574 0.09126 0.0
C180 C 0.0393 0.32683 0.15874 0.0
C181 C 0.05466 0.35033 0.17688 0.0
C182 C 0.0476 0.36742 0.24409 0.0
C183 C 0.0251 0.36128 0.29597 0.0
C184 C 1.00905 0.33822 0.27571 0.0
C185 C 0.01609 0.32119 0.20785 0.0
C186 C 0.07876 0.28189 0.13752 0.0
C187 C 0.09422 0.26348 0.08917 0.0
C188 C 0.10261 0.23861 0.12378 0.0
C189 C 0.09595 0.23234 0.20721 0.0
C190 C 0.08499 0.2528 0.25898 0.0
C191 C 0.07623 0.27744 0.22416 0.0
P192 P 0.21492 0.06188 0.05813 0.0
H193 H 0.2372 0.05496 0.88823 0.0
H194 H 0.28299 0.04209 0.84331 0.0
H195 H 0.29875 1.00827 0.0889 0.0
H196 H 0.25351 0.02262 0.13467 0.0
H197 H 0.1576 0.078 0.0747 0.0
H198 H 0.12203 0.06695 0.17738 0.0
H199 H 0.17484 1.00606 0.28695 0.0
H200 H 0.21009 0.01647 0.18231 0.0
H201 H 0.25771 0.10074 0.01634 0.0
H202 H 0.21999 0.06955 0.24194 0.0
O203 O 0.20187 0.08075 0.98062 0.0
H204 H 0.30127 0.10444 0.08966 0.0
H205 H 0.26335 0.07331 0.31476 0.0
C206 C 0.24122 0.03945 0.01485 0.0
C207 C 0.24994 0.04369 0.93167 0.0
C208 C 0.27649 0.03644 0.90595 0.0
C209 C 0.29511 0.02462 0.96277 0.0
C210 C 0.28539 0.01795 0.04364 0.0
C211 C 0.25892 0.02542 0.06943 0.0
C212 C 0.1867 0.04799 0.11971 0.0
C213 C 0.16131 0.06158 0.11877 0.0
C214 C 0.14091 0.05533 0.17781 0.0
C215 C 0.14568 0.03578 0.24065 0.0
C216 C 0.17062 0.02133 0.23947 0.0
C217 C 0.1908 0.02717 0.1791 0.0
C218 C 0.23591 0.0836 0.12237 0.0
C219 C 0.2582 0.0965 0.08307 0.0
C220 C 0.28322 0.09853 0.12489 0.0
C221 C 0.28564 0.08831 0.20671 0.0
C222 C 0.26192 0.08087 0.25097 0.0
C223 C 0.23705 0.07862 0.20893 0.0
P224 P 0.46776 0.21789 0.07931 0.0
H225 H 0.47067 0.23866 0.90632 0.0
H226 H 0.48245 0.28406 0.85439 0.0
H227 H 0.52016 0.30279 0.09201 0.0
H228 H 0.50721 0.2579 0.1449 0.0
H229 H 0.44873 0.16409 0.12782 0.0
H230 H 0.4629 0.13251 0.23751 0.0
H231 H 0.53544 0.18093 0.27946 0.0
H232 H 0.52095 0.21263 0.1693 0.0
H233 H 0.42832 0.26106 0.04918 0.0
H234 H 0.46325 0.22063 0.26473 0.0
O235 O 0.44735 0.20371 1.00772 0.0
H236 H 0.42124 0.30211 0.13329 0.0
H237 H 0.4555 0.26129 0.34847 0.0
C238 C 0.4884 0.24431 0.02948 0.0
C239 C 0.48254 0.25199 0.94633 0.0
C240 C 0.48916 0.27821 0.91659 0.0
C241 C 0.50173 0.29745 0.96952 0.0
C242 C 0.50995 0.28876 0.04996 0.0
C243 C 0.50319 0.26263 0.07975 0.0
C244 C 0.4838 0.19075 0.13943 0.0
C245 C 0.46822 0.16745 0.15835 0.0
C246 C 0.47635 0.14933 0.22159 0.0
C247 C 0.5002 0.15422 0.26837 0.0
C248 C 0.51671 0.17671 0.24571 0.0
C249 C 0.50857 0.19481 0.18198 0.0
C250 C 0.4471 0.23804 0.14964 0.0
C251 C 0.43272 0.26025 0.11574 0.0
C252 C 0.42858 0.28373 0.16384 0.0
C253 C 0.43814 0.28475 0.2467 0.0
C254 C 0.44787 0.26083 0.28467 0.0
C255 C 0.45252 0.23755 0.23615 0.0
C256 C 0.98355 0.03578 0.49149 0.0
Eu257 Eu 0.9942 0.0222 0.64481 0.0
C258 C 0.99894 0.05424 0.43682 0.0
C259 C 0.99196 0.05757 0.35235 0.0
C260 C 1.00577 0.0769 0.30335 0.0
C261 C 0.02678 0.09288 0.33851 0.0
C262 C 0.03462 0.08827 0.42195 0.0
C263 C 0.02065 0.06929 0.47081 0.0
C264 C 0.96227 1.00712 0.77956 0.0
C265 C 0.01321 0.07121 0.77251 0.0
C266 C 0.04972 0.99818 0.96108 0.0
Eu267 Eu 0.03111 1.00795 0.81137 0.0
C268 C 0.04873 0.97875 0.03064 0.0
C269 C 0.07067 0.97823 0.08705 0.0
C270 C 0.0729 0.9572 0.14564 0.0
C271 C 0.05303 0.93656 0.14892 0.0
C272 C 0.03019 0.93799 0.09557 0.0
C273 C 0.02815 0.9589 0.03613 0.0
C274 C 0.06274 0.0229 0.67511 0.0
C275 C 0.0131 0.9593 0.68281 0.0
O276 O 0.9964 0.01318 0.51127 0.0
O277 O 0.97191 0.04762 0.55635 0.0
O278 O 0.95238 0.01374 0.70652 0.0
O279 O 0.98792 1.00828 0.77385 0.0
O280 O 1.00521 0.06427 0.69575 0.0
O281 O 0.02146 0.05298 0.82874 0.0
O282 O 0.02802 0.01329 0.94708 0.0
O283 O 0.06126 0.98907 0.89225 0.0
O284 O 0.0725 0.01649 0.74794 0.0
O285 O 0.03715 0.02173 0.68155 0.0
O286 O 0.02002 0.96545 0.76149 0.0
O287 O 1.0056 0.97789 0.62679 0.0
H288 H 0.97535 0.04592 0.32519 0.0
H289 H 0.9994 0.08009 0.23902 0.0
H290 H 0.05039 0.10052 0.45114 0.0
H291 H 0.02632 0.06687 0.53607 0.0
H292 H 0.08676 0.99343 0.08323 0.0
H293 H 0.09059 0.95652 0.18644 0.0
H294 H 0.01477 0.9221 0.09661 0.0
H295 H 0.01124 0.9589 0.9923 0.0
C296 C 0.47476 0.96504 0.51969 0.0
Eu297 Eu 0.49608 0.98365 0.65724 0.0
C298 C 0.45383 0.97762 0.46651 0.0
C299 C 0.44386 0.9643 0.39515 0.0
C300 C 0.42322 0.97651 0.34711 0.0
C301 C 0.41245 1.00218 0.37001 0.0
C302 C 0.42307 0.01558 0.44063 0.0
C303 C 0.4435 1.00339 0.48833 0.0
C304 C 0.5097 0.95808 0.80321 0.0
C305 C 0.4483 0.01151 0.77428 0.0
C306 C 0.52811 0.0421 0.95213 0.0
Eu307 Eu 0.51241 0.02266 0.80891 0.0
C308 C 0.54982 0.06076 0.97937 0.0
C309 C 0.54672 0.07587 0.05342 0.0
C310 C 0.56833 0.09185 0.08326 0.0
C311 C 0.59345 0.09271 0.03971 0.0
C312 C 0.59578 0.07862 0.96298 0.0
C313 C 0.57413 0.06293 0.93291 0.0
C314 C 0.50852 0.05162 0.66107 0.0
C315 C 0.55973 0.99864 0.68303 0.0
O316 O 0.49805 0.97819 0.52183 0.0
O317 O 0.46636 0.95759 0.59443 0.0
O318 O 0.51384 0.94756 0.72922 0.0
O319 O 0.49678 0.98028 0.79601 0.0
O320 O 0.45541 1.00221 0.69911 0.0
O321 O 0.46684 0.01784 0.83153 0.0
O322 O 0.5364 0.01844 0.92246 0.0
O323 O 0.50838 0.05312 0.90788 0.0
O324 O 0.51515 0.06261 0.73219 0.0
O325 O 0.50448 0.02673 0.67473 0.0
O326 O 0.55368 1.00739 0.75986 0.0
O327 O 0.54068 0.99135 0.62854 0.0
H328 H 0.45174 0.94444 0.37728 0.0
H329 H 0.41549 0.96578 0.29269 0.0
H330 H 0.41491 0.03507 0.46103 0.0
H331 H 0.45098 0.01402 0.54313 0.0
H332 H 0.52789 0.07472 0.08936 0.0
H333 H 0.56565 0.10279 0.14178 0.0
H334 H 0.61485 0.0784 0.92817 0.0
H335 H 0.57677 0.05166 0.8749 0.0
C336 C 0.56154 0.47625 0.53873 0.0
Eu337 Eu 0.53746 0.49866 0.66643 0.0
C338 C 0.54929 0.45622 0.48179 0.0
C339 C 0.56475 0.43438 0.45049 0.0
C340 C 0.55183 0.41321 0.40707 0.0
C341 C 0.52328 0.41361 0.39511 0.0
C342 C 0.50806 0.43597 0.42446 0.0
C343 C 0.52094 0.45702 0.46754 0.0
C344 C 0.56097 0.51341 0.81487 0.0
C345 C 0.51201 0.44961 0.77666 0.0
C346 C 0.46776 0.53066 0.91754 0.0
Eu347 Eu 0.4969 0.51167 0.79357 0.0
C348 C 0.45239 0.5558 0.9366 0.0
C349 C 0.42508 0.55402 0.96347 0.0
C350 C 0.41058 0.57759 0.9857 0.0
C351 C 0.42328 0.60336 0.98229 0.0
C352 C 0.45046 0.60501 0.95284 0.0
C353 C 0.46477 0.58154 0.92967 0.0
C354 C 0.47402 0.49423 0.6479 0.0
C355 C 0.52115 0.56141 0.67568 0.0
O356 O 0.55073 0.50065 0.53601 0.0
O357 O 0.56501 0.46761 0.61552 0.0
O358 O 0.57093 0.51943 0.74169 0.0
O359 O 0.54007 0.49859 0.80627 0.0
O360 O 0.51893 0.45722 0.69995 0.0
O361 O 0.50654 0.46842 0.83346 0.0
O362 O 0.49446 0.53263 0.91363 0.0
O363 O 0.45769 0.51521 0.85849 0.0
O364 O 0.46587 0.48684 0.72185 0.0
O365 O 0.49375 0.51082 0.6533 0.0
O366 O 0.50682 0.55462 0.7433 0.0
O367 O 0.5339 0.5427 0.63108 0.0
H368 H 0.58656 0.43323 0.46216 0.0
H369 H 0.564 0.39605 0.38567 0.0
H370 H 0.48612 0.43701 0.41517 0.0
H371 H 0.50855 0.47355 0.492 0.0
H372 H 0.41508 0.53433 0.9685 0.0
H373 H 0.38962 0.57554 1.00699 0.0
H374 H 0.46125 0.62431 0.95091 0.0
H375 H 0.48575 0.58357 0.90838 0.0
C376 C 0.04099 0.5529 0.53953 0.0
Eu377 Eu 0.02283 0.53359 0.68077 0.0
C378 C 0.06205 0.54154 0.484 0.0
C379 C 0.06975 0.55483 0.40976 0.0
C380 C 0.09033 0.54364 0.35886 0.0
C381 C 0.1033 0.51902 0.3818 0.0
C382 C 0.095 0.50566 0.45557 0.0
C383 C 0.07461 0.51681 0.50598 0.0
C384 C 1.00976 0.55854 0.82842 0.0
C385 C 0.07351 0.50864 0.79166 0.0
C386 C 0.99902 0.47635 0.98446 0.0
Eu387 Eu 0.01053 0.49385 0.83479 0.0
C388 C 0.9802 0.45775 0.02773 0.0
C389 C 0.9684 0.43533 0.98672 0.0
C390 C 0.94855 0.41954 0.02757 0.0
C391 C 0.94001 0.42618 0.1096 0.0
C392 C 0.95288 0.44806 0.15113 0.0
C393 C 0.9728 0.4636 0.1106 0.0
C394 C 0.01503 0.46467 0.68781 0.0
C395 C 0.96022 0.51473 0.71408 0.0
O396 O 0.01881 0.53806 0.54555 0.0
O397 O 0.04977 0.56137 0.61268 0.0
O398 O 1.00426 0.56889 0.75509 0.0
O399 O 0.0236 0.53698 0.81913 0.0
O400 O 0.06516 0.51791 0.71777 0.0
O401 O 0.05598 0.50102 0.8506 0.0
O402 O 0.98788 0.4983 0.95158 0.0
O403 O 0.01785 0.4652 0.93651 0.0
O404 O 1.00994 0.45349 0.76019 0.0
O405 O 0.01741 0.48992 0.69978 0.0
O406 O 0.96768 0.50461 0.7881 0.0
O407 O 0.97806 0.52488 0.65969 0.0
H408 H 0.06009 0.57387 0.39168 0.0
H409 H 0.09624 0.55432 0.3021 0.0
H410 H 0.10488 0.487 0.4761 0.0
H411 H 0.06884 0.50616 0.56279 0.0
H412 H 0.97397 0.43051 0.92253 0.0
H413 H 0.93932 0.40268 0.99404 0.0
H414 H 0.94656 0.45427 0.21346 0.0
H415 H 0.98171 0.4809 0.14301 0.0
H416 H 0.15658 0.03882 0.40649 0.0
H417 H 0.09019 0.02624 0.23363 0.0
H418 H 0.05796 0.0218 0.35165 0.0
H419 H 0.04924 0.01988 0.50633 0.0
H420 H 0.11609 0.03558 0.67538 0.0
H421 H 0.14749 0.03995 0.55743 0.0
C422 C 0.13509 0.03486 0.39467 0.0
C423 C 0.1259 0.03241 0.31152 0.0
C424 C 0.1167 0.03291 0.46253 0.0
C425 C 0.09783 0.02801 0.29715 0.0
C426 C 0.0794 0.02548 0.36465 0.0
C427 C 0.07047 0.02498 0.51694 0.0
C428 C 0.08012 0.02779 0.59976 0.0
C429 C 0.08861 0.02782 0.44794 0.0
C430 C 0.10801 0.03342 0.61247 0.0
C431 C 0.12607 0.03589 0.54495 0.0
H432 H 0.49453 0.09875 0.29253 0.0
H433 H 0.51827 0.17283 0.41994 0.0
H434 H 0.52357 0.1476 0.55071 0.0
H435 H 0.51911 0.10508 0.63169 0.0
H436 H 0.49611 0.03077 0.50617 0.0
H437 H 0.49229 0.05542 0.37286 0.0
C438 C 0.50092 0.10938 0.34884 0.0
C439 C 0.50601 0.13778 0.34571 0.0
C440 C 0.50368 0.09472 0.42473 0.0
C441 C 0.51462 0.15101 0.41949 0.0
C442 C 0.5174 0.13662 0.49484 0.0
C443 C 0.51333 0.09425 0.57508 0.0
C444 C 0.50735 0.06615 0.57918 0.0
C445 C 0.51164 0.10857 0.49853 0.0
C446 C 0.50024 0.05242 0.50507 0.0
C447 C 0.49824 0.06654 0.42869 0.0
H448 H 0.39294 0.4531 0.36823 0.0
H449 H 0.40649 0.53429 0.27156 0.0
H450 H 0.43947 0.54314 0.38408 0.0
H451 H 0.46364 0.52803 0.51368 0.0
H452 H 0.44753 0.44755 0.61196 0.0
H453 H 0.41716 0.4379 0.49413 0.0
C454 C 0.40334 0.47265 0.37093 0.0
C455 C 0.39725 0.49294 0.31092 0.0
C456 C 0.42205 0.47765 0.43615 0.0
C457 C 0.41056 0.51835 0.31702 0.0
C458 C 0.42957 0.52336 0.38119 0.0
C459 C 0.45368 0.50832 0.50846 0.0
C460 C 0.45785 0.48846 0.57129 0.0
C461 C 0.4354 0.50321 0.44155 0.0
C462 C 0.44456 0.46314 0.56451 0.0
C463 C 0.42714 0.45764 0.49724 0.0
H464 H 0.02836 0.41701 0.31901 0.0
H465 H 0.01076 0.342 0.45108 0.0
H466 H 1.00569 0.36724 0.58207 0.0
H467 H 1.00809 0.41033 0.66136 0.0
H468 H 0.02473 0.48553 0.53078 0.0
H469 H 0.02888 0.46065 0.39798 0.0
C470 C 0.02342 0.40616 0.37641 0.0
C471 C 0.01994 0.37749 0.37446 0.0
C472 C 0.02068 0.42087 0.45232 0.0
C473 C 0.01317 0.36399 0.44975 0.0
C474 C 0.0105 0.37842 0.52517 0.0
C475 C 0.01258 0.4213 0.60379 0.0
C476 C 0.01661 0.4498 0.60633 0.0
C477 C 0.01447 0.40681 0.52747 0.0
C478 C 0.02209 0.46364 0.53094 0.0
C479 C 0.02429 0.44937 0.45483 0.0
H480 H 0.90682 0.99832 0.13893 0.0
H481 H 0.83404 1.00655 0.9882 0.0
H482 H 0.86181 1.0062 0.86065 0.0
H483 H 0.90694 1.00674 0.79175 0.0
H484 H 0.97976 0.99747 0.94033 0.0
H485 H 0.95205 0.99517 0.06849 0.0
C486 C 0.89703 0.99989 0.07813 0.0
C487 C 0.86827 1.00253 0.07358 0.0
C488 C 0.91321 0.99977 1.00454 0.0
C489 C 0.856 1.00419 0.99397 0.0
C490 C 0.87192 1.00422 0.92081 0.0
C491 C 0.91675 1.004 0.85214 0.0
C492 C 0.94553 1.00283 0.85665 0.0
C493 C 0.90056 1.00246 0.92533 0.0
C494 C 0.95781 0.99897 0.93529 0.0
C495 C 0.94188 0.99757 1.00857 0.0
H496 H 0.50445 0.90764 0.16824 0.0
H497 H 0.51764 0.8333 0.02735 0.0
H498 H 0.52326 0.85979 0.89938 0.0
H499 H 0.52065 0.90377 0.82392 0.0
H500 H 0.50214 0.97725 0.96212 0.0
H501 H 0.5019 0.95141 0.09344 0.0
C502 C 0.50833 0.89703 0.10975 0.0
C503 C 0.51048 0.86821 0.1089 0.0
C504 C 0.5104 0.91234 0.03499 0.0
C505 C 0.51631 0.85532 0.0317 0.0
C506 C 0.51922 0.8705 0.95765 0.0
C507 C 0.51685 0.91416 0.88291 0.0
C508 C 0.51164 0.94249 0.88313 0.0
C509 C 0.51582 0.89897 0.95816 0.0
C510 C 0.50647 0.95556 0.96009 0.0
C511 C 0.5062 0.94074 0.03529 0.0
H512 H 0.61522 0.5027 0.17324 0.0
H513 H 0.68647 0.52835 0.03291 0.0
H514 H 0.65841 0.53445 0.90803 0.0
H515 H 0.61428 0.52901 0.83468 0.0
H516 H 0.54388 0.50031 0.97264 0.0
H517 H 0.57098 0.49854 0.10137 0.0
C518 C 0.62476 0.50952 0.11541 0.0
C519 C 0.65318 0.51487 0.11335 0.0
C520 C 0.60861 0.51223 0.04267 0.0
C521 C 0.66473 0.52437 0.03766 0.0
C522 C 0.6487 0.52761 0.96554 0.0
C523 C 0.60481 0.52262 0.89311 0.0
C524 C 0.57708 0.5147 0.89386 0.0
C525 C 0.62071 0.52114 0.96682 0.0
C526 C 0.56518 0.50642 0.97015 0.0
C527 C 0.5807 0.50538 0.04384 0.0
H528 H 0.01891 0.60975 0.1917 0.0
H529 H 0.99187 0.68166 0.05824 0.0
H530 H 0.98675 0.65474 0.93044 0.0
H531 H 0.99313 0.61138 0.85293 0.0
H532 H 0.02346 0.54058 0.9846 0.0
H533 H 0.02439 0.56646 0.11562 0.0
C534 C 0.01204 0.6197 0.13474 0.0
C535 C 1.00597 0.64795 0.13552 0.0
C536 C 1.00985 0.60423 0.06042 0.0
C537 C 0.99641 0.66002 0.06081 0.0
C538 C 0.99371 0.64464 0.98705 0.0
C539 C 0.99968 0.60155 0.91049 0.0
C540 C 1.00811 0.57398 0.9088 0.0
C541 C 1.00078 0.61681 0.98566 0.0
C542 C 0.0167 0.56167 0.98398 0.0
C543 C 0.01735 0.57652 0.05903 0.0
H544 H 0.04716 0.21013 0.19781 0.0
H545 H 0.13046 0.19134 0.26281 0.0
H546 H 0.11677 0.14445 0.30173 0.0
H547 H 0.07985 0.11024 0.32509 0.0
H548 H 0.99682 0.13085 0.25719 0.0
H549 H 0.01164 0.17564 0.20995 0.0
C550 C 0.06229 0.19559 0.21983 0.0
C551 C 0.08956 0.20383 0.22839 0.0
C552 C 0.0543 0.16914 0.24088 0.0
C553 C 0.10928 0.18518 0.25653 0.0
C554 C 0.10143 0.15853 0.27845 0.0
C555 C 0.0652 0.12444 0.29836 0.0
C556 C 0.03729 0.11728 0.29445 0.0
C557 C 0.07386 0.15042 0.27179 0.0
C558 C 0.01844 0.13569 0.25959 0.0
C559 C 0.02683 0.16144 0.23351 0.0
H560 H 0.2973 0.0359 0.23104 0.0
H561 H 0.33337 0.11611 0.23945 0.0
H562 H 0.37724 0.09602 0.28398 0.0
H563 H 0.40416 0.0555 0.32639 0.0
H564 H 0.36693 0.97556 0.31604 0.0
H565 H 0.32475 0.99564 0.26287 0.0
C566 C 0.31477 0.04897 0.24324 0.0
C567 C 0.31217 0.07739 0.23472 0.0
C568 C 0.33965 0.03728 0.26693 0.0
C569 C 0.33498 0.09419 0.24761 0.0
C570 C 0.35995 0.08269 0.2725 0.0
C571 C 0.38682 0.0425 0.31216 0.0
C572 C 0.38859 0.01409 0.32586 0.0
C573 C 0.36238 0.05425 0.28327 0.0
C574 C 0.36621 0.99741 0.30543 0.0
C575 C 0.34197 1.0089 0.276 0.0
H576 H 0.47996 0.31313 0.18897 0.0
H577 H 0.41859 0.31332 0.383 0.0
H578 H 0.43924 0.35454 0.44485 0.0
H579 H 0.47639 0.38872 0.44625 0.0
H580 H 0.5389 0.38628 0.25423 0.0
H581 H 0.51674 0.34699 0.18994 0.0
C582 C 0.47084 0.32269 0.24365 0.0
C583 C 0.44753 0.31102 0.28043 0.0
C584 C 0.48329 0.3455 0.27953 0.0
C585 C 0.43624 0.32256 0.35313 0.0
C586 C 0.44815 0.34588 0.38845 0.0
C587 C 0.48483 0.37986 0.38939 0.0
C588 C 0.50919 0.3904 0.35469 0.0
C589 C 0.47186 0.35733 0.35253 0.0
C590 C 0.52029 0.37839 0.28227 0.0
C591 C 0.50747 0.35612 0.245 0.0
H592 H 0.21842 0.49146 0.22915 0.0
H593 H 0.18864 0.40915 0.25715 0.0
H594 H 0.1438 0.4268 0.30282 0.0
H595 H 0.11456 0.46592 0.34266 0.0
H596 H 0.14564 0.54804 0.31513 0.0
H597 H 0.18834 0.53019 0.25779 0.0
C598 C 0.20208 0.47743 0.24575 0.0
C599 C 0.20674 0.44916 0.24248 0.0
C600 C 0.17665 0.48771 0.27059 0.0
C601 C 0.1854 0.43101 0.26103 0.0
C602 C 0.15989 0.44111 0.28668 0.0
C603 C 0.13066 0.47989 0.32374 0.0
C604 C 0.12705 0.50827 0.33408 0.0
C605 C 0.15547 0.46945 0.29291 0.0
C606 C 0.14779 0.52616 0.30737 0.0
C607 C 0.17235 0.51597 0.27556 0.0
H608 H 0.04998 0.82795 0.35881 0.0
H609 H 0.12753 0.81637 0.2349 0.0
H610 H 0.1247 0.86268 0.17552 0.0
H611 H 0.09777 0.90433 0.14874 0.0
H612 H 0.0181 0.91363 0.26232 0.0
H613 H 0.02386 0.87013 0.33622 0.0
C614 C 0.06649 0.83597 0.32036 0.0
C615 C 0.08915 0.81937 0.30194 0.0
C616 C 0.06408 0.8619 0.28421 0.0
C617 C 0.11018 0.82923 0.25036 0.0
C618 C 0.10843 0.85551 0.21628 0.0
C619 C 0.08198 0.89703 0.19117 0.0
C620 C 0.05762 0.91203 0.20081 0.0
C621 C 0.08518 0.87175 0.23137 0.0
C622 C 0.03697 0.90228 0.25428 0.0
C623 C 0.04029 0.8775 0.29643 0.0
H624 H 0.71455 0.11935 0.13149 0.0
H625 H 0.68636 0.08857 0.37048 0.0
H626 H 0.63925 0.09059 0.3225 0.0
H627 H 0.6078 0.09134 0.20424 0.0
H628 H 0.63534 0.12084 0.96296 0.0
H629 H 0.68092 0.1289 0.02021 0.0
C630 C 0.69799 0.11381 0.17366 0.0
C631 C 0.70403 0.1035 0.25392 0.0
C632 C 0.67088 0.11411 0.14467 0.0
C633 C 0.68238 0.09675 0.30852 0.0
C634 C 0.65536 0.09754 0.28075 0.0
C635 C 0.62337 0.10051 0.16464 0.0
C636 C 0.61828 0.10476 0.07876 0.0
C637 C 0.64957 0.10479 0.19762 0.0
C638 C 0.63891 0.11657 0.02873 0.0
C639 C 0.66499 0.12126 0.06145 0.0
H640 H 0.38394 0.69631 0.22146 0.0
H641 H 0.43043 0.74349 0.0411 0.0
H642 H 0.43049 0.7052 0.94522 0.0
H643 H 0.42689 0.65589 0.92572 0.0
H644 H 0.389 0.60668 0.11882 0.0
H645 H 0.37605 0.64776 0.19505 0.0
C646 C 0.39407 0.69836 0.16118 0.0
C647 C 0.40795 0.72271 0.14071 0.0
C648 C 0.39604 0.67548 0.1085 0.0
C649 C 0.41957 0.72523 0.05993 0.0
C650 C 0.42001 0.70307 1.00494 0.0
C651 C 0.41566 0.6541 0.98428 0.0
C652 C 0.4097 0.6281 0.01737 0.0
C653 C 0.40987 0.67769 0.03085 0.0
C654 C 0.39404 0.6263 0.0915 0.0
C655 C 0.38684 0.64985 0.13587 0.0
H656 H 0.8371 0.40834 0.3302 0.0
H657 H 0.7992 0.40265 0.08627 0.0
H658 H 0.84422 0.40011 0.02024 0.0
H659 H 0.89328 0.40979 0.03107 0.0
H660 H 0.93119 0.4134 0.27538 0.0
H661 H 0.88688 0.40584 0.34208 0.0
C662 C 0.83844 0.40537 0.26291 0.0
C663 C 0.81469 0.4067 0.21314 0.0
C664 C 0.86439 0.40411 0.22524 0.0
C665 C 0.81715 0.4027 0.12596 0.0
C666 C 0.84291 0.40123 0.08807 0.0
C667 C 0.89219 0.40787 0.09877 0.0
C668 C 0.91545 0.41322 0.14813 0.0
C669 C 0.86663 0.40356 0.13686 0.0
C670 C 0.91344 0.41045 0.23586 0.0
C671 C 0.8881 0.40602 0.27414 0.0
H672 H 1.00344 0.20008 0.82476 0.0
H673 H 0.03543 0.17781 0.06704 0.0
H674 H 0.03556 0.12984 0.02749 0.0
H675 H 0.02769 0.09388 0.92316 0.0
H676 H 0.99752 0.11555 0.67761 0.0
H677 H 0.99611 0.16368 0.71853 0.0
C678 C 1.01042 0.18474 0.86891 0.0
C679 C 0.01871 0.19277 0.95019 0.0
C680 C 0.01106 0.15689 0.84464 0.0
C681 C 0.02784 0.17237 1.0058 0.0
C682 C 0.02832 0.14483 0.98258 0.0
C683 C 0.0208 0.10904 0.87825 0.0
C684 C 0.01274 0.10079 0.79714 0.0
C685 C 0.02004 0.1368 0.90214 0.0
C686 C 1.00389 0.12104 0.74042 0.0
C687 C 1.00304 0.14869 0.76385 0.0
H688 H 0.31866 0.01133 0.8103 0.0
H689 H 0.33947 0.03257 0.06533 0.0
H690 H 0.38793 0.03044 0.03029 0.0
H691 H 0.42491 0.02355 0.92683 0.0
H692 H 0.40426 1.00352 0.67088 0.0
H693 H 0.35566 1.00485 0.70647 0.0
C694 C 0.33372 0.01564 0.85832 0.0
C695 C 0.32499 0.02185 0.9408 0.0
C696 C 0.36185 0.01489 0.83738 0.0
C697 C 0.34518 0.02705 1.00185 0.0
C698 C 0.37309 0.02617 0.98162 0.0
C699 C 0.40983 0.0196 0.87855 0.0
C700 C 0.41852 0.01351 0.79603 0.0
C701 C 0.38171 0.02025 0.89951 0.0
C702 C 0.39844 1.0083 0.73487 0.0
C703 C 0.37051 1.009 0.75522 0.0
H704 H 0.51553 0.32025 0.81635 0.0
H705 H 0.48982 0.34161 0.0669 0.0
H706 H 0.49133 0.38992 0.03118 0.0
H707 H 0.49907 0.42654 0.92816 0.0
H708 H 0.52285 0.40566 0.67515 0.0
H709 H 0.52241 0.35716 0.71173 0.0
C710 C 0.51026 0.33546 0.86312 0.0
C711 C 0.50334 0.32707 0.94529 0.0
C712 C 0.51052 0.3635 0.84131 0.0
C713 C 0.49639 0.34729 1.00451 0.0
C714 C 0.49682 0.37504 0.98364 0.0
C715 C 0.50412 0.41143 0.88083 0.0
C716 C 0.51098 0.41995 0.79891 0.0
C717 C 0.50383 0.38344 0.90225 0.0
C718 C 0.51746 0.39988 0.73871 0.0
C719 C 0.51726 0.37203 0.75963 0.0
H720 H 0.20344 0.51136 0.81441 0.0
H721 H 0.18495 0.49488 0.0747 0.0
H722 H 0.1362 0.49592 0.04418 0.0
H723 H 0.09839 0.50013 0.94328 0.0
H724 H 0.11645 0.51609 0.68247 0.0
H725 H 0.16542 0.51607 0.71336 0.0
C726 C 0.1888 0.50795 0.86457 0.0
C727 C 0.19825 0.50326 0.94712 0.0
C728 C 0.1605 0.50817 0.84632 0.0
C729 C 0.17864 0.49916 0.011 0.0
C730 C 0.15059 0.49943 0.9934 0.0
C731 C 0.11298 0.5035 0.89292 0.0
C732 C 0.1035 0.50796 0.81041 0.0
C733 C 0.14124 0.50371 0.91122 0.0
C734 C 0.12294 0.51255 0.74652 0.0
C735 C 0.15105 0.51258 0.76418 0.0
H736 H 0.02435 0.84848 0.48246 0.0
H737 H 0.98149 0.81707 0.69898 0.0
H738 H 0.98243 0.86236 0.76359 0.0
H739 H 0.99483 0.91177 0.75781 0.0
H740 H 0.03495 0.94278 0.53607 0.0
H741 H 0.03566 0.89713 0.47498 0.0
C742 C 0.01473 0.8515 0.54308 0.0
C743 C 1.00275 0.82909 0.58508 0.0
C744 C 0.01505 0.87773 0.57964 0.0
C745 C 0.9911 0.83365 0.66495 0.0
C746 C 0.99156 0.85967 0.70208 0.0
C747 C 1.00395 0.90837 0.69658 0.0
C748 C 0.015 0.93066 0.65185 0.0
C749 C 1.00356 0.88194 0.66021 0.0
C750 C 0.02633 0.92601 0.57186 0.0
C751 C 0.02666 0.89988 0.53662 0.0
H752 H 0.68789 0.99011 0.62408 0.0
H753 H 0.6626 1.00853 0.37017 0.0
H754 H 0.6151 1.00759 0.41387 0.0
H755 H 0.58012 1.00363 0.52453 0.0
H756 H 0.60514 0.99105 0.78093 0.0
H757 H 0.6531 0.98861 0.73612 0.0
C758 C 0.67222 0.99428 0.5779 0.0
C759 C 0.67957 0.99901 0.49302 0.0
C760 C 0.64457 0.99507 0.60418 0.0
C761 C 0.65826 1.00386 0.43519 0.0
C762 C 0.63079 1.00375 0.46038 0.0
C763 C 0.59606 1.00022 0.57064 0.0
C764 C 0.58895 0.99731 0.65601 0.0
C765 C 0.62368 0.99955 0.54469 0.0
C766 C 0.60996 0.99337 0.71491 0.0
C767 C 0.63742 0.99191 0.6892 0.0
H768 H 0.53695 0.67488 0.48995 0.0
H769 H 0.47092 0.69795 0.65604 0.0
H770 H 0.47212 0.65291 0.72129 0.0
H771 H 0.49013 0.6056 0.72649 0.0
H772 H 0.55495 0.58249 0.55589 0.0
H773 H 0.55565 0.62839 0.49747 0.0
C774 C 0.52273 0.67013 0.54023 0.0
C775 C 0.50394 0.69014 0.56762 0.0
C776 C 0.52313 0.64386 0.5768 0.0
C777 C 0.48602 0.68339 0.63406 0.0
C778 C 0.48648 0.65742 0.67117 0.0
C779 C 0.50455 0.61066 0.67704 0.0
C780 C 0.52233 0.59033 0.64568 0.0
C781 C 0.50474 0.63731 0.64253 0.0
C782 C 0.54084 0.59745 0.58127 0.0
C783 C 0.5413 0.62382 0.54756 0.0
H784 H 0.83528 0.49097 0.63593 0.0
H785 H 0.85154 0.54884 0.43719 0.0
H786 H 0.89834 0.5542 0.48706 0.0
H787 H 0.93533 0.54156 0.58425 0.0
H788 H 0.91864 0.48527 0.78662 0.0
H789 H 0.87132 0.48084 0.73924 0.0
C790 C 0.84877 0.50521 0.60419 0.0
C791 C 0.83957 0.51928 0.53199 0.0
C792 C 0.87577 0.50852 0.63395 0.0
C793 C 0.8579 0.53723 0.49162 0.0
C794 C 0.88475 0.54048 0.52049 0.0
C795 C 0.92136 0.5284 0.61843 0.0
C796 C 0.93079 0.51366 0.6889 0.0
C797 C 0.89403 0.526 0.59099 0.0
C798 C 0.91213 0.49692 0.73242 0.0
C799 C 0.885 0.49429 0.70511 0.0
loop_
_geom_bond_atom_site_label_1
_geom_bond_atom_site_label_2
_geom_bond_distance
_geom_bond_site_symmetry_2
_ccdc_geom_bond_type
P0 O11 1.490 . S
P0 C14 1.812 . S
P0 C20 1.803 . S
P0 C26 1.819 . S
H1 C15 0.941 . S
H2 C16 0.939 . S
H3 C18 0.940 . S
H4 C19 0.940 . S
H5 C21 0.939 . S
H6 C22 0.942 . S
H7 C24 0.940 . S
H8 C25 0.939 . S
H9 C27 0.941 . S
H10 C31 0.939 . S
O11 P0 1.490 . S
H12 C28 0.939 . S
H13 C30 0.940 . S
C14 P0 1.812 . S
C14 C15 1.389 . S
C14 C19 1.391 . S
C15 H1 0.941 . S
C15 C14 1.389 . S
C15 C16 1.397 . S
C16 H2 0.939 . S
C16 C15 1.397 . S
C16 C17 1.378 . S
C17 C16 1.378 . S
C17 C18 1.378 . S
C18 H3 0.940 . S
C18 C17 1.378 . S
C18 C19 1.396 . S
C19 H4 0.940 . S
C19 C14 1.391 . S
C19 C18 1.396 . S
C20 P0 1.803 . S
C20 C21 1.378 . S
C20 C25 1.400 . S
C21 H5 0.939 . S
C21 C20 1.378 . S
C21 C22 1.361 . S
C22 H6 0.942 . S
C22 C21 1.361 . S
C22 C23 1.369 . S
C23 C22 1.369 . S
C23 C24 1.404 . S
C24 H7 0.940 . S
C24 C23 1.404 . S
C24 C25 1.389 . S
C25 H8 0.939 . S
C25 C20 1.400 . S
C25 C24 1.389 . S
C26 P0 1.819 . S
C26 C27 1.391 . S
C26 C31 1.391 . S
C27 H9 0.941 . S
C27 C26 1.391 . S
C27 C28 1.396 . S
C28 H12 0.939 . S
C28 C27 1.396 . S
C28 C29 1.397 . S
C29 C28 1.397 . S
C29 C30 1.385 . S
C30 H13 0.940 . S
C30 C29 1.385 . S
C30 C31 1.388 . S
C31 H10 0.939 . S
C31 C26 1.391 . S
C31 C30 1.388 . S
P32 O43 1.490 . S
P32 C46 1.812 . S
P32 C52 1.803 . S
P32 C58 1.819 . S
H33 C47 0.941 . S
H34 C48 0.939 . S
H35 C50 0.940 . S
H36 C51 0.950 . S
H37 C53 0.939 . S
H38 C54 0.942 . S
H39 C56 0.940 . S
H40 C57 0.959 . S
H41 C59 0.941 . S
H42 C63 0.929 1_655 S
O43 P32 1.490 . S
H44 C60 0.939 . S
H45 C62 0.940 . S
C46 P32 1.812 . S
C46 C47 1.389 . S
C46 C51 1.375 1_455 S
C47 H33 0.941 . S
C47 C46 1.389 . S
C47 C48 1.397 . S
C48 H34 0.939 . S
C48 C47 1.397 . S
C48 C49 1.378 . S
C49 C48 1.378 . S
C49 C50 1.378 1_455 S
C50 H35 0.940 . S
C50 C49 1.378 1_655 S
C50 C51 1.403 . S
C51 H36 0.950 . S
C51 C46 1.375 1_655 S
C51 C50 1.403 . S
C52 P32 1.803 . S
C52 C53 1.378 . S
C52 C57 1.368 1_455 S
C53 H37 0.939 . S
C53 C52 1.378 . S
C53 C54 1.361 . S
C54 H38 0.942 . S
C54 C53 1.361 . S
C54 C55 1.369 . S
C55 C54 1.369 . S
C55 C56 1.404 1_455 S
C56 H39 0.940 . S
C56 C55 1.404 1_655 S
C56 C57 1.402 . S
C57 H40 0.959 . S
C57 C52 1.368 1_655 S
C57 C56 1.402 . S
C58 P32 1.819 . S
C58 C59 1.391 . S
C58 C63 1.391 . S
C59 H41 0.941 . S
C59 C58 1.391 . S
C59 C60 1.396 . S
C60 H44 0.939 . S
C60 C59 1.396 . S
C60 C61 1.397 . S
C61 C60 1.397 . S
C61 C62 1.385 1_455 S
C62 H45 0.940 . S
C62 C61 1.385 1_655 S
C62 C63 1.388 1_655 S
C63 H42 0.929 1_455 S
C63 C58 1.391 . S
C63 C62 1.388 1_455 S
P64 O75 1.490 . S
P64 C78 1.812 . S
P64 C84 1.803 . S
P64 C90 1.819 . S
H65 C79 0.941 . S
H66 C80 0.939 . S
H67 C82 0.940 . S
H68 C83 0.950 . S
H69 C85 0.939 . S
H70 C86 0.942 . S
H71 C88 0.940 . S
H72 C89 0.959 . S
H73 C91 0.941 . S
H74 C95 0.929 1_565 S
O75 P64 1.490 . S
H76 C92 0.939 . S
H77 C94 0.940 . S
C78 P64 1.812 . S
C78 C79 1.389 . S
C78 C83 1.375 1_545 S
C79 H65 0.941 . S
C79 C78 1.389 . S
C79 C80 1.397 . S
C80 H66 0.939 . S
C80 C79 1.397 . S
C80 C81 1.378 . S
C81 C80 1.378 . S
C81 C82 1.378 1_545 S
C82 H67 0.940 . S
C82 C81 1.378 1_565 S
C82 C83 1.402 . S
C83 H68 0.950 . S
C83 C78 1.375 1_565 S
C83 C82 1.402 . S
C84 P64 1.803 . S
C84 C85 1.378 . S
C84 C89 1.368 1_545 S
C85 H69 0.939 . S
C85 C84 1.378 . S
C85 C86 1.361 . S
C86 H70 0.942 . S
C86 C85 1.361 . S
C86 C87 1.369 . S
C87 C86 1.369 . S
C87 C88 1.404 1_545 S
C88 H71 0.940 . S
C88 C87 1.404 1_565 S
C88 C89 1.402 . S
C89 H72 0.959 . S
C89 C84 1.368 1_565 S
C89 C88 1.402 . S
C90 P64 1.819 . S
C90 C91 1.391 . S
C90 C95 1.391 . S
C91 H73 0.941 . S
C91 C90 1.391 . S
C91 C92 1.396 . S
C92 H76 0.939 . S
C92 C91 1.396 . S
C92 C93 1.397 . S
C93 C92 1.397 . S
C93 C94 1.385 1_545 S
C94 H77 0.940 . S
C94 C93 1.385 1_565 S
C94 C95 1.388 1_565 S
C95 H74 0.929 1_545 S
C95 C90 1.391 . S
C95 C94 1.388 1_545 S
P96 O107 1.490 . S
P96 C110 1.812 . S
P96 C116 1.803 . S
P96 C122 1.819 . S
H97 C111 0.941 . S
H98 C112 0.939 . S
H99 C114 0.940 . S
H100 C115 0.940 . S
H101 C117 0.939 . S
H102 C118 0.942 . S
H103 C120 0.940 . S
H104 C121 0.939 . S
H105 C123 0.941 . S
H106 C127 0.939 . S
O107 P96 1.490 . S
H108 C124 0.939 . S
H109 C126 0.940 . S
C110 P96 1.812 . S
C110 C111 1.389 . S
C110 C115 1.391 . S
C111 H97 0.941 . S
C111 C110 1.389 . S
C111 C112 1.397 . S
C112 H98 0.939 . S
C112 C111 1.397 . S
C112 C113 1.378 . S
C113 C112 1.378 . S
C113 C114 1.378 . S
C114 H99 0.940 . S
C114 C113 1.378 . S
C114 C115 1.396 . S
C115 H100 0.940 . S
C115 C110 1.391 . S
C115 C114 1.396 . S
C116 P96 1.803 . S
C116 C117 1.378 . S
C116 C121 1.400 . S
C117 H101 0.939 . S
C117 C116 1.378 . S
C117 C118 1.361 . S
C118 H102 0.942 . S
C118 C117 1.361 . S
C118 C119 1.369 . S
C119 C118 1.369 . S
C119 C120 1.404 . S
C120 H103 0.940 . S
C120 C119 1.404 . S
C120 C121 1.389 . S
C121 H104 0.939 . S
C121 C116 1.400 . S
C121 C120 1.389 . S
C122 P96 1.819 . S
C122 C123 1.391 . S
C122 C127 1.391 . S
C123 H105 0.941 . S
C123 C122 1.391 . S
C123 C124 1.396 . S
C124 H108 0.939 . S
C124 C123 1.396 . S
C124 C125 1.397 . S
C125 C124 1.397 . S
C125 C126 1.385 . S
C126 H109 0.940 . S
C126 C125 1.385 . S
C126 C127 1.388 . S
C127 H106 0.939 . S
C127 C122 1.391 . S
C127 C126 1.388 . S
P128 O139 1.490 . S
P128 C142 1.812 1_554 S
P128 C148 1.803 . S
P128 C154 1.819 . S
H129 C143 0.941 . S
H130 C144 0.939 . S
H131 C146 0.940 . S
H132 C147 0.948 . S
H133 C149 0.939 . S
H134 C150 0.942 . S
H135 C152 0.940 . S
H136 C153 0.939 . S
H137 C155 0.941 . S
H138 C159 0.939 . S
O139 P128 1.490 . S
H140 C156 0.939 . S
H141 C158 0.940 . S
C142 P128 1.812 1_556 S
C142 C143 1.389 . S
C142 C147 1.391 . S
C143 H129 0.941 . S
C143 C142 1.389 . S
C143 C144 1.397 . S
C144 H130 0.939 . S
C144 C143 1.397 . S
C144 C145 1.378 . S
C145 C144 1.378 . S
C145 C146 1.378 . S
C146 H131 0.940 . S
C146 C145 1.378 . S
C146 C147 1.396 . S
C147 H132 0.948 . S
C147 C142 1.391 . S
C147 C146 1.396 . S
C148 P128 1.803 . S
C148 C149 1.378 . S
C148 C153 1.400 . S
C149 H133 0.939 . S
C149 C148 1.378 . S
C149 C150 1.361 . S
C150 H134 0.942 . S
C150 C149 1.361 . S
C150 C151 1.369 . S
C151 C150 1.369 . S
C151 C152 1.404 . S
C152 H135 0.940 . S
C152 C151 1.404 . S
C152 C153 1.389 . S
C153 H136 0.939 . S
C153 C148 1.400 . S
C153 C152 1.389 . S
C154 P128 1.819 . S
C154 C155 1.391 . S
C154 C159 1.391 . S
C155 H137 0.941 . S
C155 C154 1.391 . S
C155 C156 1.396 . S
C156 H140 0.939 . S
C156 C155 1.396 . S
C156 C157 1.397 . S
C157 C156 1.397 . S
C157 C158 1.385 . S
C158 H141 0.940 . S
C158 C157 1.385 . S
C158 C159 1.388 . S
C159 H138 0.939 . S
C159 C154 1.391 . S
C159 C158 1.388 . S
P160 O171 1.490 . S
P160 C174 1.812 1_554 S
P160 C180 1.803 . S
P160 C186 1.819 . S
H161 C175 0.941 . S
H162 C176 0.939 . S
H163 C178 0.940 . S
H164 C179 0.944 1_554 S
H165 C181 0.939 . S
H166 C182 0.942 . S
H167 C184 0.940 . S
H168 C185 0.953 . S
H169 C187 0.941 . S
H170 C191 0.932 1_655 S
O171 P160 1.490 . S
H172 C188 0.939 . S
H173 C190 0.940 . S
C174 P160 1.812 1_556 S
C174 C175 1.389 . S
C174 C179 1.384 1_455 S
C175 H161 0.941 . S
C175 C174 1.389 . S
C175 C176 1.397 . S
C176 H162 0.939 . S
C176 C175 1.397 . S
C176 C177 1.378 . S
C177 C176 1.378 . S
C177 C178 1.378 1_455 S
C178 H163 0.940 . S
C178 C177 1.378 1_655 S
C178 C179 1.399 . S
C179 H164 0.944 1_556 S
C179 C174 1.384 1_655 S
C179 C178 1.399 . S
C180 P160 1.803 . S
C180 C181 1.378 . S
C180 C185 1.377 1_455 S
C181 H165 0.939 . S
C181 C180 1.378 . S
C181 C182 1.361 . S
C182 H166 0.942 . S
C182 C181 1.361 . S
C182 C183 1.369 . S
C183 C182 1.369 . S
C183 C184 1.404 1_455 S
C184 H167 0.940 . S
C184 C183 1.404 1_655 S
C184 C185 1.398 . S
C185 H168 0.953 . S
C185 C180 1.377 1_655 S
C185 C184 1.398 . S
C186 P160 1.819 . S
C186 C187 1.391 . S
C186 C191 1.391 . S
C187 H169 0.941 . S
C187 C186 1.391 . S
C187 C188 1.396 . S
C188 H172 0.939 . S
C188 C187 1.396 . S
C188 C189 1.397 . S
C189 C188 1.397 . S
C189 C190 1.385 1_455 S
C190 H173 0.940 . S
C190 C189 1.385 1_655 S
C190 C191 1.388 1_655 S
C191 H170 0.932 1_455 S
C191 C186 1.391 . S
C191 C190 1.388 1_455 S
P192 O203 1.490 . S
P192 C206 1.812 1_554 S
P192 C212 1.803 . S
P192 C218 1.819 . S
H193 C207 0.941 . S
H194 C208 0.939 . S
H195 C210 0.940 . S
H196 C211 0.937 1_554 S
H197 C213 0.939 . S
H198 C214 0.942 . S
H199 C216 0.940 . S
H200 C217 0.953 . S
H201 C219 0.941 . S
H202 C223 0.932 1_565 S
O203 P192 1.490 . S
H204 C220 0.939 . S
H205 C222 0.940 . S
C206 P192 1.812 1_556 S
C206 C207 1.389 . S
C206 C211 1.384 1_545 S
C207 H193 0.941 . S
C207 C206 1.389 . S
C207 C208 1.397 . S
C208 H194 0.939 . S
C208 C207 1.397 . S
C208 C209 1.378 . S
C209 C208 1.378 . S
C209 C210 1.378 1_545 S
C210 H195 0.940 . S
C210 C209 1.378 1_565 S
C210 C211 1.399 . S
C211 H196 0.937 1_556 S
C211 C206 1.384 1_565 S
C211 C210 1.399 . S
C212 P192 1.803 . S
C212 C213 1.378 . S
C212 C217 1.377 1_545 S
C213 H197 0.939 . S
C213 C212 1.378 . S
C213 C214 1.361 . S
C214 H198 0.942 . S
C214 C213 1.361 . S
C214 C215 1.369 . S
C215 C214 1.369 . S
C215 C216 1.404 1_545 S
C216 H199 0.940 . S
C216 C215 1.404 1_565 S
C216 C217 1.398 . S
C217 H200 0.953 . S
C217 C212 1.377 1_565 S
C217 C216 1.398 . S
C218 P192 1.819 . S
C218 C219 1.391 . S
C218 C223 1.391 . S
C219 H201 0.941 . S
C219 C218 1.391 . S
C219 C220 1.396 . S
C220 H204 0.939 . S
C220 C219 1.396 . S
C220 C221 1.397 . S
C221 C220 1.397 . S
C221 C222 1.385 1_545 S
C222 H205 0.940 . S
C222 C221 1.385 1_565 S
C222 C223 1.388 1_565 S
C223 H202 0.932 1_545 S
C223 C218 1.391 . S
C223 C222 1.388 1_545 S
P224 O235 1.490 . S
P224 C238 1.812 1_554 S
P224 C244 1.803 . S
P224 C250 1.819 . S
H225 C239 0.941 . S
H226 C240 0.939 . S
H227 C242 0.940 . S
H228 C243 0.940 . S
H229 C245 0.939 . S
H230 C246 0.942 . S
H231 C248 0.940 . S
H232 C249 0.939 . S
H233 C251 0.941 . S
H234 C255 0.939 . S
O235 P224 1.490 . S
H236 C252 0.939 . S
H237 C254 0.940 . S
C238 P224 1.812 1_556 S
C238 C239 1.389 . S
C238 C243 1.391 . S
C239 H225 0.941 . S
C239 C238 1.389 . S
C239 C240 1.397 . S
C240 H226 0.939 . S
C240 C239 1.397 . S
C240 C241 1.378 . S
C241 C240 1.378 . S
C241 C242 1.378 . S
C242 H227 0.940 . S
C242 C241 1.378 . S
C242 C243 1.396 . S
C243 H228 0.940 . S
C243 C238 1.391 . S
C243 C242 1.396 . S
C244 P224 1.803 . S
C244 C245 1.378 . S
C244 C249 1.400 . S
C245 H229 0.939 . S
C245 C244 1.378 . S
C245 C246 1.361 . S
C246 H230 0.942 . S
C246 C245 1.361 . S
C246 C247 1.369 . S
C247 C246 1.369 . S
C247 C248 1.404 . S
C248 H231 0.940 . S
C248 C247 1.404 . S
C248 C249 1.389 . S
C249 H232 0.939 . S
C249 C244 1.400 . S
C249 C248 1.389 . S
C250 P224 1.819 . S
C250 C251 1.391 . S
C250 C255 1.391 . S
C251 H233 0.941 . S
C251 C250 1.391 . S
C251 C252 1.396 . S
C252 H236 0.939 . S
C252 C251 1.396 . S
C252 C253 1.397 . S
C253 C252 1.397 . S
C253 C254 1.385 . S
C254 H237 0.940 . S
C254 C253 1.385 . S
C254 C255 1.388 . S
C255 H234 0.939 . S
C255 C250 1.391 . S
C255 C254 1.388 . S
C256 Eu257 2.835 . S
C256 C258 1.500 . S
C256 O276 1.257 . S
C256 O277 1.260 . S
Eu257 C256 2.835 . S
Eu257 O276 2.473 . S
Eu257 O277 2.480 . S
Eu257 O278 2.430 . S
Eu257 O279 2.670 1_545 S
Eu257 O280 2.394 . S
Eu257 O285 2.355 1_655 S
Eu257 O287 2.374 1_545 S
C258 C256 1.500 . S
C258 C259 1.377 . S
C258 C263 1.377 . S
C259 C258 1.377 . S
C259 C260 1.395 . S
C259 H288 0.931 . S
C260 C259 1.395 . S
C260 C261 1.383 . S
C260 H289 0.931 . S
C261 C260 1.383 . S
C261 C262 1.394 . S
C262 C261 1.394 . S
C262 C263 1.378 . S
C262 H290 0.931 1_655 S
C263 C258 1.377 . S
C263 C262 1.378 . S
C263 H291 0.931 1_655 S
C264 O278 1.259 . S
C264 O279 1.270 1_545 S
C265 O280 1.251 1_455 S
C265 O281 1.251 . S
C266 Eu267 2.835 . S
C266 C268 1.500 . S
C266 O282 1.257 . S
C266 O283 1.260 . S
Eu267 C266 2.835 . S
Eu267 O279 2.355 1_455 S
Eu267 O281 2.374 1_565 S
Eu267 O282 2.473 . S
Eu267 O283 2.480 . S
Eu267 O284 2.430 . S
Eu267 O285 2.670 1_565 S
Eu267 O286 2.394 . S
C268 C266 1.500 . S
C268 C269 1.377 . S
C268 C273 1.377 . S
C269 C268 1.377 . S
C269 C270 1.395 . S
C269 H292 0.931 . S
C270 C269 1.395 . S
C270 C271 1.383 1_556 S
C270 H293 0.931 . S
C271 C270 1.383 1_554 S
C271 C272 1.394 . S
C272 C271 1.394 . S
C272 C273 1.378 1_554 S
C272 H294 0.931 1_455 S
C273 C268 1.377 . S
C273 C272 1.378 1_556 S
C273 H295 0.931 1_455 S
C274 O284 1.259 . S
C274 O285 1.270 1_565 S
C275 O286 1.251 1_655 S
C275 O287 1.251 . S
O276 C256 1.257 . S
O276 Eu257 2.473 . S
O277 C256 1.260 . S
O277 Eu257 2.480 . S
O278 Eu257 2.430 . S
O278 C264 1.259 . S
O279 Eu257 2.670 1_565 S
O279 C264 1.270 1_565 S
O279 Eu267 2.355 1_655 S
O280 Eu257 2.394 . S
O280 C265 1.251 1_655 S
O281 C265 1.251 . S
O281 Eu267 2.374 1_545 S
O282 C266 1.257 . S
O282 Eu267 2.473 . S
O283 C266 1.260 . S
O283 Eu267 2.480 . S
O284 Eu267 2.430 . S
O284 C274 1.259 . S
O285 Eu257 2.355 1_455 S
O285 Eu267 2.670 1_545 S
O285 C274 1.270 1_545 S
O286 Eu267 2.394 . S
O286 C275 1.251 1_455 S
O287 Eu257 2.374 1_565 S
O287 C275 1.251 . S
H288 C259 0.931 . S
H289 C260 0.931 . S
H290 C262 0.931 1_455 S
H291 C263 0.931 1_455 S
H292 C269 0.931 . S
H293 C270 0.931 . S
H294 C272 0.931 1_655 S
H295 C273 0.931 1_655 S
C296 Eu297 2.835 . S
C296 C298 1.500 . S
C296 O316 1.257 . S
C296 O317 1.260 . S
Eu297 C296 2.835 . S
Eu297 O316 2.473 . S
Eu297 O317 2.480 . S
Eu297 O318 2.430 . S
Eu297 O319 2.670 . S
Eu297 O320 2.394 . S
Eu297 O325 2.355 1_565 S
Eu297 O327 2.374 . S
C298 C296 1.500 . S
C298 C299 1.377 . S
C298 C303 1.377 . S
C299 C298 1.377 . S
C299 C300 1.395 . S
C299 H328 0.931 . S
C300 C299 1.395 . S
C300 C301 1.383 . S
C300 H329 0.931 . S
C301 C300 1.383 . S
C301 C302 1.394 . S
C302 C301 1.394 . S
C302 C303 1.378 . S
C302 H330 0.931 1_565 S
C303 C298 1.377 . S
C303 C302 1.378 . S
C303 H331 0.931 1_565 S
C304 O318 1.259 . S
C304 O319 1.270 . S
C305 O320 1.251 1_545 S
C305 O321 1.251 . S
C306 Eu307 2.835 . S
C306 C308 1.500 . S
C306 O322 1.257 . S
C306 O323 1.260 . S
Eu307 C306 2.835 . S
Eu307 O319 2.355 1_545 S
Eu307 O321 2.374 . S
Eu307 O322 2.473 . S
Eu307 O323 2.480 . S
Eu307 O324 2.430 . S
Eu307 O325 2.670 . S
Eu307 O326 2.394 . S
C308 C306 1.500 . S
C308 C309 1.377 . S
C308 C313 1.377 . S
C309 C308 1.377 . S
C309 C310 1.395 . S
C309 H332 0.931 . S
C310 C309 1.395 . S
C310 C311 1.383 1_556 S
C310 H333 0.931 . S
C311 C310 1.383 1_554 S
C311 C312 1.394 . S
C312 C311 1.394 . S
C312 C313 1.378 1_554 S
C312 H334 0.931 1_545 S
C313 C308 1.377 . S
C313 C312 1.378 1_556 S
C313 H335 0.931 1_545 S
C314 O324 1.259 . S
C314 O325 1.270 . S
C315 O326 1.251 1_565 S
C315 O327 1.251 . S
O316 C296 1.257 . S
O316 Eu297 2.473 . S
O317 C296 1.260 . S
O317 Eu297 2.480 . S
O318 Eu297 2.430 . S
O318 C304 1.259 . S
O319 Eu297 2.670 . S
O319 C304 1.270 . S
O319 Eu307 2.355 1_565 S
O320 Eu297 2.394 . S
O320 C305 1.251 1_565 S
O321 C305 1.251 . S
O321 Eu307 2.374 . S
O322 C306 1.257 . S
O322 Eu307 2.473 . S
O323 C306 1.260 . S
O323 Eu307 2.480 . S
O324 Eu307 2.430 . S
O324 C314 1.259 . S
O325 Eu297 2.355 1_545 S
O325 Eu307 2.670 . S
O325 C314 1.270 . S
O326 Eu307 2.394 . S
O326 C315 1.251 1_545 S
O327 Eu297 2.374 . S
O327 C315 1.251 . S
H328 C299 0.931 . S
H329 C300 0.931 . S
H330 C302 0.931 1_545 S
H331 C303 0.931 1_545 S
H332 C309 0.931 . S
H333 C310 0.931 . S
H334 C312 0.931 1_565 S
H335 C313 0.931 1_565 S
C336 Eu337 2.835 . S
C336 C338 1.500 . S
C336 O356 1.257 . S
C336 O357 1.260 . S
Eu337 C336 2.835 . S
Eu337 O356 2.473 . S
Eu337 O357 2.480 . S
Eu337 O358 2.430 . S
Eu337 O359 2.670 . S
Eu337 O360 2.394 . S
Eu337 O365 2.355 . S
Eu337 O367 2.374 . S
C338 C336 1.500 . S
C338 C339 1.377 . S
C338 C343 1.377 . S
C339 C338 1.377 . S
C339 C340 1.395 . S
C339 H368 0.931 . S
C340 C339 1.395 . S
C340 C341 1.383 . S
C340 H369 0.931 . S
C341 C340 1.383 . S
C341 C342 1.394 . S
C342 C341 1.394 . S
C342 C343 1.378 . S
C342 H370 0.931 . S
C343 C338 1.377 . S
C343 C342 1.378 . S
C343 H371 0.931 . S
C344 O358 1.259 . S
C344 O359 1.270 . S
C345 O360 1.251 . S
C345 O361 1.251 . S
C346 Eu347 2.835 . S
C346 C348 1.500 . S
C346 O362 1.257 . S
C346 O363 1.260 . S
Eu347 C346 2.835 . S
Eu347 O359 2.355 . S
Eu347 O361 2.374 . S
Eu347 O362 2.473 . S
Eu347 O363 2.480 . S
Eu347 O364 2.430 . S
Eu347 O365 2.670 . S
Eu347 O366 2.394 . S
C348 C346 1.500 . S
C348 C349 1.377 . S
C348 C353 1.377 . S
C349 C348 1.377 . S
C349 C350 1.395 . S
C349 H372 0.931 . S
C350 C349 1.395 . S
C350 C351 1.383 1_556 S
C350 H373 0.931 . S
C351 C350 1.383 1_554 S
C351 C352 1.394 . S
C352 C351 1.394 . S
C352 C353 1.378 1_554 S
C352 H374 0.931 . S
C353 C348 1.377 . S
C353 C352 1.378 1_556 S
C353 H375 0.931 . S
C354 O364 1.259 . S
C354 O365 1.270 . S
C355 O366 1.251 . S
C355 O367 1.251 . S
O356 C336 1.257 . S
O356 Eu337 2.473 . S
O357 C336 1.260 . S
O357 Eu337 2.480 . S
O358 Eu337 2.430 . S
O358 C344 1.259 . S
O359 Eu337 2.670 . S
O359 C344 1.270 . S
O359 Eu347 2.355 . S
O360 Eu337 2.394 . S
O360 C345 1.251 . S
O361 C345 1.251 . S
O361 Eu347 2.374 . S
O362 C346 1.257 . S
O362 Eu347 2.473 . S
O363 C346 1.260 . S
O363 Eu347 2.480 . S
O364 Eu347 2.430 . S
O364 C354 1.259 . S
O365 Eu337 2.355 . S
O365 Eu347 2.670 . S
O365 C354 1.270 . S
O366 Eu347 2.394 . S
O366 C355 1.251 . S
O367 Eu337 2.374 . S
O367 C355 1.251 . S
H368 C339 0.931 . S
H369 C340 0.931 . S
H370 C342 0.931 . S
H371 C343 0.931 . S
H372 C349 0.931 . S
H373 C350 0.931 . S
H374 C352 0.931 . S
H375 C353 0.931 . S
C376 Eu377 2.835 . S
C376 C378 1.500 . S
C376 O396 1.257 . S
C376 O397 1.260 . S
Eu377 C376 2.835 . S
Eu377 O396 2.473 . S
Eu377 O397 2.480 . S
Eu377 O398 2.430 . S
Eu377 O399 2.670 1_455 S
Eu377 O400 2.394 . S
Eu377 O405 2.355 . S
Eu377 O407 2.374 1_455 S
C378 C376 1.500 . S
C378 C379 1.377 . S
C378 C383 1.377 . S
C379 C378 1.377 . S
C379 C380 1.395 . S
C379 H408 0.931 . S
C380 C379 1.395 . S
C380 C381 1.383 . S
C380 H409 0.931 . S
C381 C380 1.383 . S
C381 C382 1.394 . S
C382 C381 1.394 . S
C382 C383 1.378 . S
C382 H410 0.931 . S
C383 C378 1.377 . S
C383 C382 1.378 . S
C383 H411 0.931 . S
C384 O398 1.262 . S
C384 O399 1.268 1_455 S
C385 O400 1.251 . S
C385 O401 1.251 . S
C386 Eu387 2.835 . S
C386 C388 1.500 . S
C386 O402 1.257 . S
C386 O403 1.260 . S
Eu387 C386 2.835 . S
Eu387 O399 2.355 . S
Eu387 O401 2.374 1_655 S
Eu387 O402 2.473 . S
Eu387 O403 2.480 . S
Eu387 O404 2.430 . S
Eu387 O405 2.670 1_655 S
Eu387 O406 2.394 . S
C388 C386 1.500 . S
C388 C389 1.377 . S
C388 C393 1.377 . S
C389 C388 1.377 . S
C389 C390 1.395 . S
C389 H412 0.931 . S
C390 C389 1.395 . S
C390 C391 1.383 1_556 S
C390 H413 0.931 . S
C391 C390 1.383 1_554 S
C391 C392 1.394 . S
C392 C391 1.394 . S
C392 C393 1.378 1_554 S
C392 H414 0.931 . S
C393 C388 1.377 . S
C393 C392 1.378 1_556 S
C393 H415 0.931 . S
C394 O404 1.258 . S
C394 O405 1.271 1_655 S
C395 O406 1.251 . S
C395 O407 1.251 . S
O396 C376 1.257 . S
O396 Eu377 2.473 . S
O397 C376 1.260 . S
O397 Eu377 2.480 . S
O398 Eu377 2.430 . S
O398 C384 1.262 . S
O399 Eu377 2.670 1_655 S
O399 C384 1.268 1_655 S
O399 Eu387 2.355 . S
O400 Eu377 2.394 . S
O400 C385 1.251 . S
O401 C385 1.251 . S
O401 Eu387 2.374 1_455 S
O402 C386 1.257 . S
O402 Eu387 2.473 . S
O403 C386 1.260 . S
O403 Eu387 2.480 . S
O404 Eu387 2.430 . S
O404 C394 1.258 . S
O405 Eu377 2.355 . S
O405 Eu387 2.670 1_455 S
O405 C394 1.271 1_455 S
O406 Eu387 2.394 . S
O406 C395 1.251 . S
O407 Eu377 2.374 1_655 S
O407 C395 1.251 . S
H408 C379 0.931 . S
H409 C380 0.931 . S
H410 C382 0.931 . S
H411 C383 0.931 . S
H412 C389 0.931 . S
H413 C390 0.931 . S
H414 C392 0.931 . S
H415 C393 0.931 . S
H416 C422 0.930 . S
H417 C425 0.930 . S
H418 C426 0.930 . S
H419 C427 0.930 . S
H420 C430 0.930 . S
H421 C431 0.930 . S
C422 H416 0.930 . S
C422 C423 1.355 1_565 S
C422 C424 1.415 . S
C423 C422 1.355 1_545 S
C423 C425 1.419 . S
C424 C422 1.415 . S
C424 C429 1.425 1_565 S
C424 C431 1.409 . S
C425 H417 0.930 . S
C425 C423 1.419 . S
C425 C426 1.362 . S
C426 H418 0.930 . S
C426 C425 1.362 . S
C426 C429 1.409 . S
C427 H419 0.930 . S
C427 C428 1.355 1_545 S
C427 C429 1.415 . S
C428 C427 1.355 1_565 S
C428 C430 1.419 . S
C429 C424 1.425 1_545 S
C429 C426 1.409 . S
C429 C427 1.415 . S
C430 H420 0.930 . S
C430 C428 1.419 . S
C430 C431 1.362 . S
C431 H421 0.930 . S
C431 C424 1.409 . S
C431 C430 1.362 . S
H432 C438 0.930 . S
H433 C441 0.930 . S
H434 C442 0.930 . S
H435 C443 0.930 . S
H436 C446 0.930 . S
H437 C447 0.930 . S
C438 H432 0.930 . S
C438 C439 1.355 . S
C438 C440 1.415 . S
C439 C438 1.355 . S
C439 C441 1.419 . S
C440 C438 1.415 . S
C440 C445 1.425 . S
C440 C447 1.409 . S
C441 H433 0.930 . S
C441 C439 1.419 . S
C441 C442 1.362 . S
C442 H434 0.930 . S
C442 C441 1.362 . S
C442 C445 1.409 . S
C443 H435 0.930 . S
C443 C444 1.355 . S
C443 C445 1.415 . S
C444 C443 1.355 . S
C444 C446 1.419 . S
C445 C440 1.425 . S
C445 C442 1.409 . S
C445 C443 1.415 . S
C446 H436 0.930 . S
C446 C444 1.419 . S
C446 C447 1.362 . S
C447 H437 0.930 . S
C447 C440 1.409 . S
C447 C446 1.362 . S
H448 C454 0.930 . S
H449 C457 0.930 . S
H450 C458 0.930 . S
H451 C459 0.930 . S
H452 C462 0.930 . S
H453 C463 0.930 . S
C454 H448 0.930 . S
C454 C455 1.355 . S
C454 C456 1.415 . S
C455 C454 1.355 . S
C455 C457 1.419 . S
C456 C454 1.415 . S
C456 C461 1.425 . S
C456 C463 1.409 . S
C457 H449 0.930 . S
C457 C455 1.419 . S
C457 C458 1.362 . S
C458 H450 0.930 . S
C458 C457 1.362 . S
C458 C461 1.409 . S
C459 H451 0.930 . S
C459 C460 1.355 . S
C459 C461 1.415 . S
C460 C459 1.355 . S
C460 C462 1.419 . S
C461 C456 1.425 . S
C461 C458 1.409 . S
C461 C459 1.415 . S
C462 H452 0.930 . S
C462 C460 1.419 . S
C462 C463 1.362 . S
C463 H453 0.930 . S
C463 C456 1.409 . S
C463 C462 1.362 . S
H464 C470 0.930 . S
H465 C473 0.930 . S
H466 C474 0.930 . S
H467 C475 0.930 . S
H468 C478 0.930 . S
H469 C479 0.930 . S
C470 H464 0.930 . S
C470 C471 1.355 1_455 S
C470 C472 1.415 . S
C471 C470 1.355 1_655 S
C471 C473 1.419 . S
C472 C470 1.415 . S
C472 C477 1.425 1_455 S
C472 C479 1.409 . S
C473 H465 0.930 . S
C473 C471 1.419 . S
C473 C474 1.362 . S
C474 H466 0.930 . S
C474 C473 1.362 . S
C474 C477 1.409 . S
C475 H467 0.930 . S
C475 C476 1.355 1_655 S
C475 C477 1.415 . S
C476 C475 1.355 1_455 S
C476 C478 1.419 . S
C477 C472 1.425 1_655 S
C477 C474 1.409 . S
C477 C475 1.415 . S
C478 H468 0.930 . S
C478 C476 1.419 . S
C478 C479 1.362 . S
C479 H469 0.930 . S
C479 C472 1.409 . S
C479 C478 1.362 . S
H480 C486 0.930 . S
H481 C489 0.930 . S
H482 C490 0.930 . S
H483 C491 0.930 . S
H484 C494 0.930 . S
H485 C495 0.930 . S
C486 H480 0.930 . S
C486 C487 1.355 1_565 S
C486 C488 1.415 . S
C487 C486 1.355 1_545 S
C487 C489 1.419 . S
C488 C486 1.415 . S
C488 C493 1.425 1_565 S
C488 C495 1.409 . S
C489 H481 0.930 . S
C489 C487 1.419 . S
C489 C490 1.362 . S
C490 H482 0.930 . S
C490 C489 1.362 . S
C490 C493 1.409 . S
C491 H483 0.930 . S
C491 C492 1.355 1_545 S
C491 C493 1.415 1_556 S
C492 C491 1.355 1_565 S
C492 C494 1.419 . S
C493 C488 1.425 1_545 S
C493 C490 1.409 . S
C493 C491 1.415 1_554 S
C494 H484 0.930 . S
C494 C492 1.419 . S
C494 C495 1.362 1_556 S
C495 H485 0.930 . S
C495 C488 1.409 . S
C495 C494 1.362 1_554 S
H496 C502 0.930 . S
H497 C505 0.930 . S
H498 C506 0.930 . S
H499 C507 0.930 . S
H500 C510 0.930 . S
H501 C511 0.930 . S
C502 H496 0.930 . S
C502 C503 1.355 . S
C502 C504 1.415 . S
C503 C502 1.355 . S
C503 C505 1.419 . S
C504 C502 1.415 . S
C504 C509 1.425 . S
C504 C511 1.409 . S
C505 H497 0.930 . S
C505 C503 1.419 . S
C505 C506 1.362 . S
C506 H498 0.930 . S
C506 C505 1.362 . S
C506 C509 1.409 . S
C507 H499 0.930 . S
C507 C508 1.355 . S
C507 C509 1.415 1_556 S
C508 C507 1.355 . S
C508 C510 1.419 . S
C509 C504 1.425 . S
C509 C506 1.409 . S
C509 C507 1.415 1_554 S
C510 H500 0.930 . S
C510 C508 1.419 . S
C510 C511 1.362 1_556 S
C511 H501 0.930 . S
C511 C504 1.409 . S
C511 C510 1.362 1_554 S
H512 C518 0.930 . S
H513 C521 0.930 . S
H514 C522 0.930 . S
H515 C523 0.930 . S
H516 C526 0.930 . S
H517 C527 0.930 . S
C518 H512 0.930 . S
C518 C519 1.355 . S
C518 C520 1.415 . S
C519 C518 1.355 . S
C519 C521 1.419 . S
C520 C518 1.415 . S
C520 C525 1.425 . S
C520 C527 1.409 . S
C521 H513 0.930 . S
C521 C519 1.419 . S
C521 C522 1.362 . S
C522 H514 0.930 . S
C522 C521 1.362 . S
C522 C525 1.409 . S
C523 H515 0.930 . S
C523 C524 1.355 . S
C523 C525 1.415 1_556 S
C524 C523 1.355 . S
C524 C526 1.419 . S
C525 C520 1.425 . S
C525 C522 1.409 . S
C525 C523 1.415 1_554 S
C526 H516 0.930 . S
C526 C524 1.419 . S
C526 C527 1.362 1_556 S
C527 H517 0.930 . S
C527 C520 1.409 . S
C527 C526 1.362 1_554 S
H528 C534 0.930 . S
H529 C537 0.930 . S
H530 C538 0.930 . S
H531 C539 0.930 . S
H532 C542 0.930 . S
H533 C543 0.930 . S
C534 H528 0.930 . S
C534 C535 1.355 1_455 S
C534 C536 1.415 . S
C535 C534 1.355 1_655 S
C535 C537 1.419 . S
C536 C534 1.415 . S
C536 C541 1.425 1_455 S
C536 C543 1.409 . S
C537 H529 0.930 . S
C537 C535 1.419 . S
C537 C538 1.362 . S
C538 H530 0.930 . S
C538 C537 1.362 . S
C538 C541 1.409 . S
C539 H531 0.930 . S
C539 C540 1.355 1_655 S
C539 C541 1.415 1_556 S
C540 C539 1.355 1_455 S
C540 C542 1.419 . S
C541 C536 1.425 1_655 S
C541 C538 1.409 . S
C541 C539 1.415 1_554 S
C542 H532 0.930 . S
C542 C540 1.419 . S
C542 C543 1.362 1_556 S
C543 H533 0.930 . S
C543 C536 1.409 . S
C543 C542 1.362 1_554 S
H544 C550 0.930 . S
H545 C553 0.930 . S
H546 C554 0.930 . S
H547 C555 0.930 . S
H548 C558 0.930 . S
H549 C559 0.930 . S
C550 H544 0.930 . S
C550 C551 1.355 1_655 S
C550 C552 1.415 . S
C551 C550 1.355 1_455 S
C551 C553 1.419 . S
C552 C550 1.415 . S
C552 C557 1.425 . S
C552 C559 1.409 . S
C553 H545 0.930 . S
C553 C551 1.419 . S
C553 C554 1.362 . S
C554 H546 0.930 . S
C554 C553 1.362 . S
C554 C557 1.409 1_455 S
C555 H547 0.930 . S
C555 C556 1.355 . S
C555 C557 1.415 . S
C556 C555 1.355 . S
C556 C558 1.419 . S
C557 C552 1.425 . S
C557 C554 1.409 1_655 S
C557 C555 1.415 . S
C558 H548 0.930 . S
C558 C556 1.419 . S
C558 C559 1.362 . S
C559 H549 0.930 . S
C559 C552 1.409 . S
C559 C558 1.362 . S
H560 C566 0.930 . S
H561 C569 0.930 . S
H562 C570 0.930 . S
H563 C571 0.930 . S
H564 C574 0.930 . S
H565 C575 0.930 . S
C566 H560 0.930 . S
C566 C567 1.355 1_565 S
C566 C568 1.415 . S
C567 C566 1.355 1_545 S
C567 C569 1.419 . S
C568 C566 1.415 . S
C568 C573 1.425 . S
C568 C575 1.409 . S
C569 H561 0.930 . S
C569 C567 1.419 . S
C569 C570 1.362 . S
C570 H562 0.930 . S
C570 C569 1.362 . S
C570 C573 1.409 1_545 S
C571 H563 0.930 . S
C571 C572 1.355 . S
C571 C573 1.415 . S
C572 C571 1.355 . S
C572 C574 1.419 . S
C573 C568 1.425 . S
C573 C570 1.409 1_565 S
C573 C571 1.415 . S
C574 H564 0.930 . S
C574 C572 1.419 . S
C574 C575 1.362 . S
C575 H565 0.930 . S
C575 C568 1.409 . S
C575 C574 1.362 . S
H576 C582 0.930 . S
H577 C585 0.930 . S
H578 C586 0.930 . S
H579 C587 0.930 . S
H580 C590 0.930 . S
H581 C591 0.930 . S
C582 H576 0.930 . S
C582 C583 1.355 . S
C582 C584 1.415 . S
C583 C582 1.355 . S
C583 C585 1.419 . S
C584 C582 1.415 . S
C584 C589 1.425 . S
C584 C591 1.409 . S
C585 H577 0.930 . S
C585 C583 1.419 . S
C585 C586 1.362 . S
C586 H578 0.930 . S
C586 C585 1.362 . S
C586 C589 1.409 . S
C587 H579 0.930 . S
C587 C588 1.355 . S
C587 C589 1.415 . S
C588 C587 1.355 . S
C588 C590 1.419 . S
C589 C584 1.425 . S
C589 C586 1.409 . S
C589 C587 1.415 . S
C590 H580 0.930 . S
C590 C588 1.419 . S
C590 C591 1.362 . S
C591 H581 0.930 . S
C591 C584 1.409 . S
C591 C590 1.362 . S
H592 C598 0.930 . S
H593 C601 0.930 . S
H594 C602 0.930 . S
H595 C603 0.930 . S
H596 C606 0.930 . S
H597 C607 0.930 . S
C598 H592 0.930 . S
C598 C599 1.355 . S
C598 C600 1.415 . S
C599 C598 1.355 . S
C599 C601 1.419 . S
C600 C598 1.415 . S
C600 C605 1.425 . S
C600 C607 1.409 . S
C601 H593 0.930 . S
C601 C599 1.419 . S
C601 C602 1.362 . S
C602 H594 0.930 . S
C602 C601 1.362 . S
C602 C605 1.409 . S
C603 H595 0.930 . S
C603 C604 1.355 . S
C603 C605 1.415 . S
C604 C603 1.355 . S
C604 C606 1.419 . S
C605 C600 1.425 . S
C605 C602 1.409 . S
C605 C603 1.415 . S
C606 H596 0.930 . S
C606 C604 1.419 . S
C606 C607 1.362 . S
C607 H597 0.930 . S
C607 C600 1.409 . S
C607 C606 1.362 . S
H608 C614 0.930 . S
H609 C617 0.930 . S
H610 C618 0.930 . S
H611 C619 0.930 . S
H612 C622 0.930 . S
H613 C623 0.930 1_655 S
C614 H608 0.930 . S
C614 C615 1.355 . S
C614 C616 1.415 1_655 S
C615 C614 1.355 . S
C615 C617 1.419 1_655 S
C616 C614 1.415 1_455 S
C616 C621 1.425 . S
C616 C623 1.409 . S
C617 H609 0.930 . S
C617 C615 1.419 1_455 S
C617 C618 1.362 . S
C618 H610 0.930 . S
C618 C617 1.362 . S
C618 C621 1.409 . S
C619 H611 0.930 . S
C619 C620 1.355 . S
C619 C621 1.415 . S
C620 C619 1.355 . S
C620 C622 1.419 . S
C621 C616 1.425 . S
C621 C618 1.409 . S
C621 C619 1.415 . S
C622 H612 0.930 . S
C622 C620 1.419 . S
C622 C623 1.362 . S
C623 H613 0.930 1_455 S
C623 C616 1.409 . S
C623 C622 1.362 . S
H624 C630 0.930 . S
H625 C633 0.930 . S
H626 C634 0.930 . S
H627 C635 0.930 . S
H628 C638 0.930 1_556 S
H629 C639 0.930 . S
C630 H624 0.930 . S
C630 C631 1.355 1_545 S
C630 C632 1.415 . S
C631 C630 1.355 1_565 S
C631 C633 1.419 . S
C632 C630 1.415 . S
C632 C637 1.425 . S
C632 C639 1.409 . S
C633 H625 0.930 . S
C633 C631 1.419 . S
C633 C634 1.362 . S
C634 H626 0.930 . S
C634 C633 1.362 . S
C634 C637 1.409 1_565 S
C635 H627 0.930 . S
C635 C636 1.355 . S
C635 C637 1.415 . S
C636 C635 1.355 . S
C636 C638 1.419 . S
C637 C632 1.425 . S
C637 C634 1.409 1_545 S
C637 C635 1.415 . S
C638 H628 0.930 1_554 S
C638 C636 1.419 . S
C638 C639 1.362 . S
C639 H629 0.930 . S
C639 C632 1.409 . S
C639 C638 1.362 . S
H640 C646 0.930 . S
H641 C649 0.930 . S
H642 C650 0.930 . S
H643 C651 0.930 1_556 S
H644 C654 0.930 . S
H645 C655 0.930 . S
C646 H640 0.930 . S
C646 C647 1.355 . S
C646 C648 1.415 . S
C647 C646 1.355 . S
C647 C649 1.419 . S
C648 C646 1.415 . S
C648 C653 1.425 . S
C648 C655 1.409 . S
C649 H641 0.930 . S
C649 C647 1.419 . S
C649 C650 1.362 . S
C650 H642 0.930 . S
C650 C649 1.362 . S
C650 C653 1.409 . S
C651 H643 0.930 1_554 S
C651 C652 1.355 . S
C651 C653 1.415 . S
C652 C651 1.355 . S
C652 C654 1.419 . S
C653 C648 1.425 . S
C653 C650 1.409 . S
C653 C651 1.415 . S
C654 H644 0.930 . S
C654 C652 1.419 . S
C654 C655 1.362 . S
C655 H645 0.930 . S
C655 C648 1.409 . S
C655 C654 1.362 . S
H656 C662 0.930 . S
H657 C665 0.930 . S
H658 C666 0.930 . S
H659 C667 0.930 1_556 S
H660 C670 0.930 . S
H661 C671 0.930 . S
C662 H656 0.930 . S
C662 C663 1.355 . S
C662 C664 1.415 . S
C663 C662 1.355 . S
C663 C665 1.419 . S
C664 C662 1.415 . S
C664 C669 1.425 . S
C664 C671 1.409 . S
C665 H657 0.930 . S
C665 C663 1.419 . S
C665 C666 1.362 . S
C666 H658 0.930 . S
C666 C665 1.362 . S
C666 C669 1.409 . S
C667 H659 0.930 1_554 S
C667 C668 1.355 . S
C667 C669 1.415 . S
C668 C667 1.355 . S
C668 C670 1.419 . S
C669 C664 1.425 . S
C669 C666 1.409 . S
C669 C667 1.415 . S
C670 H660 0.930 . S
C670 C668 1.419 . S
C670 C671 1.362 . S
C671 H661 0.930 . S
C671 C664 1.409 . S
C671 C670 1.362 . S
H672 C678 0.930 . S
H673 C681 0.930 . S
H674 C682 0.930 . S
H675 C683 0.930 . S
H676 C686 0.930 . S
H677 C687 0.930 . S
C678 H672 0.930 . S
C678 C679 1.355 1_655 S
C678 C680 1.415 . S
C679 C678 1.355 1_455 S
C679 C681 1.419 . S
C680 C678 1.415 . S
C680 C685 1.425 1_655 S
C680 C687 1.409 . S
C681 H673 0.930 . S
C681 C679 1.419 . S
C681 C682 1.362 . S
C682 H674 0.930 . S
C682 C681 1.362 . S
C682 C685 1.409 . S
C683 H675 0.930 . S
C683 C684 1.355 . S
C683 C685 1.415 . S
C684 C683 1.355 . S
C684 C686 1.419 1_455 S
C685 C680 1.425 1_455 S
C685 C682 1.409 . S
C685 C683 1.415 . S
C686 H676 0.930 . S
C686 C684 1.419 1_655 S
C686 C687 1.362 . S
C687 H677 0.930 . S
C687 C680 1.409 . S
C687 C686 1.362 . S
H688 C694 0.930 . S
H689 C697 0.930 . S
H690 C698 0.930 . S
H691 C699 0.930 . S
H692 C702 0.930 . S
H693 C703 0.930 . S
C694 H688 0.930 . S
C694 C695 1.355 1_565 S
C694 C696 1.415 . S
C695 C694 1.355 1_545 S
C695 C697 1.419 . S
C696 C694 1.415 . S
C696 C701 1.425 1_565 S
C696 C703 1.409 . S
C697 H689 0.930 . S
C697 C695 1.419 . S
C697 C698 1.362 . S
C698 H690 0.930 . S
C698 C697 1.362 . S
C698 C701 1.409 . S
C699 H691 0.930 . S
C699 C700 1.355 . S
C699 C701 1.415 . S
C700 C699 1.355 . S
C700 C702 1.419 1_545 S
C701 C696 1.425 1_545 S
C701 C698 1.409 . S
C701 C699 1.415 . S
C702 H692 0.930 . S
C702 C700 1.419 1_565 S
C702 C703 1.362 . S
C703 H693 0.930 . S
C703 C696 1.409 . S
C703 C702 1.362 . S
H704 C710 0.930 . S
H705 C713 0.930 . S
H706 C714 0.930 . S
H707 C715 0.930 . S
H708 C718 0.930 . S
H709 C719 0.930 . S
C710 H704 0.930 . S
C710 C711 1.355 . S
C710 C712 1.415 . S
C711 C710 1.355 . S
C711 C713 1.419 . S
C712 C710 1.415 . S
C712 C717 1.425 . S
C712 C719 1.409 . S
C713 H705 0.930 . S
C713 C711 1.419 . S
C713 C714 1.362 . S
C714 H706 0.930 . S
C714 C713 1.362 . S
C714 C717 1.409 . S
C715 H707 0.930 . S
C715 C716 1.355 . S
C715 C717 1.415 . S
C716 C715 1.355 . S
C716 C718 1.419 . S
C717 C712 1.425 . S
C717 C714 1.409 . S
C717 C715 1.415 . S
C718 H708 0.930 . S
C718 C716 1.419 . S
C718 C719 1.362 . S
C719 H709 0.930 . S
C719 C712 1.409 . S
C719 C718 1.362 . S
H720 C726 0.930 . S
H721 C729 0.930 . S
H722 C730 0.930 . S
H723 C731 0.930 . S
H724 C734 0.930 . S
H725 C735 0.930 . S
C726 H720 0.930 . S
C726 C727 1.355 . S
C726 C728 1.415 . S
C727 C726 1.355 . S
C727 C729 1.419 . S
C728 C726 1.415 . S
C728 C733 1.425 . S
C728 C735 1.409 . S
C729 H721 0.930 . S
C729 C727 1.419 . S
C729 C730 1.362 . S
C730 H722 0.930 . S
C730 C729 1.362 . S
C730 C733 1.409 . S
C731 H723 0.930 . S
C731 C732 1.355 . S
C731 C733 1.415 . S
C732 C731 1.355 . S
C732 C734 1.419 . S
C733 C728 1.425 . S
C733 C730 1.409 . S
C733 C731 1.415 . S
C734 H724 0.930 . S
C734 C732 1.419 . S
C734 C735 1.362 . S
C735 H725 0.930 . S
C735 C728 1.409 . S
C735 C734 1.362 . S
H736 C742 0.930 . S
H737 C745 0.930 . S
H738 C746 0.930 . S
H739 C747 0.930 . S
H740 C750 0.930 . S
H741 C751 0.930 . S
C742 H736 0.930 . S
C742 C743 1.373 . S
C742 C744 1.415 . S
C743 C742 1.373 . S
C743 C745 1.399 1_655 S
C744 C742 1.415 . S
C744 C749 1.425 1_655 S
C744 C751 1.409 . S
C745 H737 0.930 . S
C745 C743 1.399 1_455 S
C745 C746 1.362 . S
C746 H738 0.930 . S
C746 C745 1.362 . S
C746 C749 1.409 . S
C747 H739 0.930 . S
C747 C748 1.355 1_455 S
C747 C749 1.415 . S
C748 C747 1.355 1_655 S
C748 C750 1.419 . S
C749 C744 1.425 1_455 S
C749 C746 1.409 . S
C749 C747 1.415 . S
C750 H740 0.930 . S
C750 C748 1.419 . S
C750 C751 1.362 . S
C751 H741 0.930 . S
C751 C744 1.409 . S
C751 C750 1.362 . S
H752 C758 0.930 . S
H753 C761 0.930 . S
H754 C762 0.930 . S
H755 C763 0.930 . S
H756 C766 0.930 . S
H757 C767 0.930 . S
C758 H752 0.930 . S
C758 C759 1.355 1_545 S
C758 C760 1.412 1_545 S
C759 C758 1.355 1_565 S
C759 C761 1.419 . S
C760 C758 1.412 1_565 S
C760 C765 1.438 . S
C760 C767 1.401 1_565 S
C761 H753 0.930 . S
C761 C759 1.419 . S
C761 C762 1.362 . S
C762 H754 0.930 . S
C762 C761 1.362 . S
C762 C765 1.409 . S
C763 H755 0.930 . S
C763 C764 1.355 . S
C763 C765 1.415 . S
C764 C763 1.355 . S
C764 C766 1.419 1_565 S
C765 C760 1.438 . S
C765 C762 1.409 . S
C765 C763 1.415 . S
C766 H756 0.930 . S
C766 C764 1.419 1_545 S
C766 C767 1.362 . S
C767 H757 0.930 . S
C767 C760 1.401 1_545 S
C767 C766 1.362 . S
H768 C774 0.930 . S
H769 C777 0.930 . S
H770 C778 0.930 . S
H771 C779 0.930 . S
H772 C782 0.930 . S
H773 C783 0.930 . S
C774 H768 0.930 . S
C774 C775 1.355 . S
C774 C776 1.415 . S
C775 C774 1.355 . S
C775 C777 1.419 . S
C776 C774 1.415 . S
C776 C781 1.425 . S
C776 C783 1.409 . S
C777 H769 0.930 . S
C777 C775 1.419 . S
C777 C778 1.362 . S
C778 H770 0.930 . S
C778 C777 1.362 . S
C778 C781 1.409 . S
C779 H771 0.930 . S
C779 C780 1.355 . S
C779 C781 1.415 . S
C780 C779 1.355 . S
C780 C782 1.419 . S
C781 C776 1.425 . S
C781 C778 1.409 . S
C781 C779 1.415 . S
C782 H772 0.930 . S
C782 C780 1.419 . S
C782 C783 1.362 . S
C783 H773 0.930 . S
C783 C776 1.409 . S
C783 C782 1.362 . S
H784 C790 0.930 . S
H785 C793 0.930 . S
H786 C794 0.930 . S
H787 C795 0.930 . S
H788 C798 0.930 . S
H789 C799 0.930 . S
C790 H784 0.930 . S
C790 C791 1.355 . S
C790 C792 1.415 . S
C791 C790 1.355 . S
C791 C793 1.419 . S
C792 C790 1.415 . S
C792 C797 1.425 . S
C792 C799 1.409 . S
C793 H785 0.930 . S
C793 C791 1.419 . S
C793 C794 1.362 . S
C794 H786 0.930 . S
C794 C793 1.362 . S
C794 C797 1.409 . S
C795 H787 0.930 . S
C795 C796 1.355 . S
C795 C797 1.415 . S
C796 C795 1.355 . S
C796 C798 1.419 . S
C797 C792 1.425 . S
C797 C794 1.409 . S
C797 C795 1.415 . S
C798 H788 0.930 . S
C798 C796 1.419 . S
C798 C799 1.362 . S
C799 H789 0.930 . S
C799 C792 1.409 . S
C799 C798 1.362 . S
C423 C215 2.161 . S
C428 C274 2.380 . S
C444 C314 2.402 . S
C439 C247 2.152 . S
C460 C354 2.414 . S
C455 C151 2.204 . S
C476 C394 2.392 1_455 S
C471 C183 2.167 1_655 S
C492 C264 2.383 1_565 S
C487 C87 2.123 . S
C503 C119 2.159 . S
C508 C304 2.396 . S
C519 C23 2.169 . S
C524 C344 2.400 . S
C535 C55 2.159 1_655 S
C540 C384 2.382 . S
C556 C261 0.659 . S
C551 C189 0.500 . S
C572 C301 0.655 . S
C567 C221 0.515 . S
C588 C341 0.525 . S
C583 C253 0.529 . S
C599 C157 0.475 . S
C604 C381 0.634 . S
C615 C61 0.601 1_655 S
C620 C271 0.528 . S
C636 C311 0.600 . S
C631 C93 0.653 1_565 S
C652 C351 0.635 . S
C647 C125 0.713 . S
C663 C29 0.608 . S
C668 C391 0.541 . S
C679 C177 2.613 . S
C684 C265 2.966 . S
C695 C209 2.574 . S
C700 C305 2.931 . S
C716 C345 2.915 . S
C711 C241 2.559 . S
C732 C385 2.956 . S
C727 C145 2.573 . S
C743 C49 2.670 1_655 S
C748 C275 3.004 . S
C764 C315 2.933 . S
C759 C81 2.613 1_565 S
C780 C355 2.939 . S
C775 C113 2.596 . S
C791 C17 2.695 . S
C796 C395 2.968 . S
