# Generated by pormake.
# Topology pth, (4,4)-cn, num edge types: 1
# Building blocks:
#     Node 0, Type 0, BuildingBlock: AZAVOO_clean_sbu_0, # of connection points: 4
#     Node 1, Type 0, BuildingBlock: AZAVOO_clean_sbu_0, # of connection points: 4
#     Node 2, Type 0, BuildingBlock: AZAVOO_clean_sbu_0, # of connection points: 4
#     Node 3, Type 1, BuildingBlock: NAWXER_clean_linker_0, # of connection points: 4
#     Node 4, Type 1, BuildingBlock: NAWXER_clean_linker_0, # of connection points: 4
#     Node 5, Type 1, BuildingBlock: NAWXER_clean_linker_0, # of connection points: 4
#     Edge 6, Type (0, 1), BuildingBlock: KIFKEQ_clean_linker_1, # of connection points: 2
#     Edge 7, Type (0, 1), BuildingBlock: KIFKEQ_clean_linker_1, # of connection points: 2
#     Edge 8, Type (0, 1), BuildingBlock: KIFKEQ_clean_linker_1, # of connection points: 2
#     Edge 9, Type (0, 1), BuildingBlock: KIFKEQ_clean_linker_1, # of connection points: 2
#     Edge 10, Type (0, 1), BuildingBlock: KIFKEQ_clean_linker_1, # of connection points: 2
#     Edge 11, Type (0, 1), BuildingBlock: KIFKEQ_clean_linker_1, # of connection points: 2
#     Edge 12, Type (0, 1), BuildingBlock: KIFKEQ_clean_linker_1, # of connection points: 2
#     Edge 13, Type (0, 1), BuildingBlock: KIFKEQ_clean_linker_1, # of connection points: 2
#     Edge 14, Type (0, 1), BuildingBlock: KIFKEQ_clean_linker_1, # of connection points: 2
#     Edge 15, Type (0, 1), BuildingBlock: KIFKEQ_clean_linker_1, # of connection points: 2
#     Edge 16, Type (0, 1), BuildingBlock: KIFKEQ_clean_linker_1, # of connection points: 2
#     Edge 17, Type (0, 1), BuildingBlock: KIFKEQ_clean_linker_1, # of connection points: 2
# Relax obj value: 0.065
# Max RMSD: 0.211
# Mean RMSD: 0.105
data_MOF--net-pth--node1-AZAVOO_clean_sbu_0--node2-NAWXER_clean_linker_0--edge1-KIFKEQ_clean_linker_1
_symmetry_space_group_name_H-M    P1
_symmetry_Int_Tables_number       1
_symmetry_cell_setting            triclinic
loop_
_symmetry_equiv_pos_as_xyz
'x, y, z'
_cell_length_a     29.211447
_cell_length_b     29.714263
_cell_length_c     65.703649
_cell_angle_alpha  90.888814
_cell_angle_beta   92.754448
_cell_angle_gamma 121.89368
loop_
_atom_site_label
_atom_site_type_symbol
_atom_site_fract_x
_atom_site_fract_y
_atom_site_fract_z
_atom_type_partial_charge
Mg0 Mg 0.09548 0.08281 0.04342 0.0
O1 O 0.02646 0.0264 0.02013 0.0
O2 O 0.0189 0.07562 -0.00365 0.0
Mg3 Mg 0.08077 0.16315 0.00481 0.0
C4 C 0.00433 0.03072 0.00365 0.0
C5 C 0.08695 0.98455 0.06316 0.0
O6 O 0.11992 0.99287 0.04878 0.0
O7 O 0.04205 0.10786 0.05769 0.0
O8 O 0.03979 0.16016 0.03414 0.0
O9 O 0.15647 0.08108 0.02433 0.0
O10 O 0.13066 0.13841 0.02112 0.0
C11 C 0.0279 0.13959 0.05151 0.0
C12 C 0.15835 0.11954 0.01466 0.0
O13 O 0.06902 0.01505 0.06507 0.0
Mg14 Mg 0.9574 0.02493 0.36956 0.0
O15 O 0.03743 0.05419 0.38836 0.0
O16 O 0.06104 0.13082 0.40459 0.0
Mg17 Mg -0.00342 0.15026 0.39681 0.0
C18 C 0.06977 0.09401 0.40036 0.0
C19 C 0.93902 0.94282 0.33539 0.0
O20 O 0.9031 0.95458 0.32947 0.0
O21 O -0.00016 0.08772 0.34611 0.0
O22 O 0.01829 0.16142 0.36345 0.0
O23 O 0.90962 0.98184 0.39614 0.0
O24 O 0.93805 0.06525 0.39007 0.0
C25 C 0.01835 0.13748 0.34714 0.0
C26 C 0.91408 0.02604 0.40174 0.0
O27 O 0.96862 0.96546 0.35165 0.0
Mg28 Mg 0.99279 0.01949 0.697 0.0
O29 O 0.05516 0.0838 0.72011 0.0
O30 O 0.01103 0.09726 0.74389 0.0
Mg31 Mg 0.92044 0.04144 0.73596 0.0
C32 C 0.05492 0.10737 0.73647 0.0
C33 C 0.09813 0.03716 0.67999 0.0
O34 O 0.09976 0.01831 0.69779 0.0
O35 O 0.97207 0.07632 0.68313 0.0
O36 O 0.92418 0.08501 0.70667 0.0
O37 O 0.99185 0.95712 0.71553 0.0
O38 O 0.9375 0.98692 0.71948 0.0
C39 C 0.94402 0.09471 0.6892 0.0
C40 C 0.9546 0.95694 0.72552 0.0
O41 O 0.05878 0.04255 0.67501 0.0
C42 C 0.95997 0.34725 0.22887 0.0
C43 C 0.00328 0.36536 0.24367 0.0
C44 C 0.95066 0.38314 0.21888 0.0
C45 C 0.98532 0.43802 0.22304 0.0
C46 C 0.03683 0.4203 0.24823 0.0
C47 C 0.02793 0.45616 0.23803 0.0
C48 C 0.97796 0.47705 0.21193 0.0
C49 C 0.0102 0.3878 0.16408 0.0
C50 C 0.9629 0.35308 0.15178 0.0
C51 C 0.01285 0.42751 0.1767 0.0
C52 C 0.96846 0.43355 0.17716 0.0
C53 C 0.9185 0.35944 0.1524 0.0
C54 C 0.92153 0.39968 0.1648 0.0
C55 C 0.97074 0.47522 0.19046 0.0
C56 C 0.02914 0.69596 0.17527 0.0
C57 C -0.00375 0.68735 0.1575 0.0
C58 C 0.02047 0.65351 0.18687 0.0
C59 C 0.97821 0.60152 0.18112 0.0
C60 C 0.95356 0.63539 0.15188 0.0
C61 C 0.94489 0.59283 0.16351 0.0
C62 C 0.97206 0.55602 0.19238 0.0
C63 C 0.93172 0.6463 0.23466 0.0
C64 C 0.96834 0.67161 0.25173 0.0
C65 C 0.93356 0.60833 0.22258 0.0
C66 C 0.97253 0.59526 0.2271 0.0
C67 C 0.00622 0.65724 0.25665 0.0
C68 C 0.00815 0.61926 0.24448 0.0
C69 C 0.97539 0.55594 0.21393 0.0
H70 H 0.93331 0.30533 0.22488 0.0
H71 H 0.91634 0.36786 0.20789 0.0
H72 H 0.06966 0.43575 0.25991 0.0
H73 H 0.05482 0.49826 0.2417 0.0
H74 H 0.04567 0.3851 0.1637 0.0
H75 H 0.04969 0.4538 0.18598 0.0
H76 H 0.88115 0.33313 0.14342 0.0
H77 H 0.88684 0.40381 0.16502 0.0
H78 H 0.06215 0.73553 0.18008 0.0
H79 H 0.04784 0.66125 0.20003 0.0
H80 H 0.92799 0.62737 0.13811 0.0
H81 H 0.91254 0.55301 0.15862 0.0
H82 H 0.90118 0.65547 0.23075 0.0
H83 H 0.90434 0.58907 0.20968 0.0
H84 H 0.03508 0.67612 0.26967 0.0
H85 H 0.03821 0.60944 0.2484 0.0
N86 N 0.97947 0.51712 0.22288 0.0
N87 N 0.96863 0.515 0.18148 0.0
C88 C 0.71431 0.13984 0.50655 0.0
C89 C 0.69597 0.09089 0.49616 0.0
C90 C 0.67807 0.14895 0.51617 0.0
C91 C 0.62299 0.10919 0.51557 0.0
C92 C 0.64065 0.05158 0.49534 0.0
C93 C 0.60446 0.06083 0.50483 0.0
C94 C 0.58415 0.11702 0.52619 0.0
C95 C 0.69719 0.11269 0.57404 0.0
C96 C 0.72141 0.1557 0.5884 0.0
C97 C 0.65431 0.1041 0.56072 0.0
C98 C 0.63634 0.13964 0.56099 0.0
C99 C 0.70258 0.19036 0.58915 0.0
C100 C 0.66057 0.18255 0.57547 0.0
C101 C 0.59024 0.13091 0.54727 0.0
C102 C 0.36838 0.0715 0.56527 0.0
C103 C 0.37985 0.10961 0.58086 0.0
C104 C 0.40884 0.07774 0.55299 0.0
C105 C 0.46155 0.12236 0.55599 0.0
C106 C 0.43225 0.15493 0.58352 0.0
C107 C 0.47288 0.16098 0.57131 0.0
C108 C 0.5058 0.12571 0.54472 0.0
C109 C 0.40367 0.147 0.49792 0.0
C110 C 0.37672 0.10596 0.48273 0.0
C111 C 0.44373 0.14959 0.51127 0.0
C112 C 0.45748 0.11101 0.50979 0.0
C113 C 0.39071 0.06749 0.48119 0.0
C114 C 0.43107 0.07028 0.4945 0.0
C115 C 0.50123 0.11471 0.52348 0.0
H116 H 0.75674 0.17084 0.50742 0.0
H117 H 0.69304 0.18683 0.52416 0.0
H118 H 0.62521 0.01388 0.48713 0.0
H119 H 0.56202 0.02981 0.50409 0.0
H120 H 0.71033 0.08475 0.57358 0.0
H121 H 0.63472 0.06912 0.5505 0.0
H122 H 0.72042 0.22344 0.6003 0.0
H123 H 0.64686 0.21 0.57625 0.0
H124 H 0.32828 0.03631 0.56283 0.0
H125 H 0.39931 0.04665 0.54165 0.0
H126 H 0.44234 0.18463 0.59557 0.0
H127 H 0.51342 0.19536 0.57405 0.0
H128 H 0.39353 0.177 0.4996 0.0
H129 H 0.46443 0.18222 0.52258 0.0
H130 H 0.37105 0.03574 0.46949 0.0
H131 H 0.44146 0.04043 0.49293 0.0
N132 N 0.54009 0.10983 0.51509 0.0
N133 N 0.55054 0.13432 0.55571 0.0
C134 C 0.4284 0.34185 0.83313 0.0
C135 C 0.40414 0.35829 0.81851 0.0
C136 C 0.47314 0.37929 0.8457 0.0
C137 C 0.49358 0.43375 0.84415 0.0
C138 C 0.426 0.41282 0.8165 0.0
C139 C 0.47025 0.45009 0.82915 0.0
C140 C 0.53911 0.47458 0.85785 0.0
C141 C 0.4061 0.37413 0.89889 0.0
C142 C 0.41972 0.34774 0.91323 0.0
C143 C 0.44573 0.41398 0.88766 0.0
C144 C 0.49963 0.42769 0.89034 0.0
C145 C 0.47373 0.36143 0.91582 0.0
C146 C 0.5134 0.40135 0.90457 0.0
C147 C 0.5422 0.47162 0.87929 0.0
C148 C 0.68898 0.69408 0.90809 0.0
C149 C 0.73046 0.69591 0.92066 0.0
C150 C 0.65409 0.64934 0.89547 0.0
C151 C 0.659 0.60494 0.89544 0.0
C152 C 0.73467 0.65075 0.92069 0.0
C153 C 0.69869 0.60538 0.90842 0.0
C154 C 0.62198 0.55813 0.88193 0.0
C155 C 0.7531 0.67439 0.84339 0.0
C156 C 0.73529 0.68859 0.82586 0.0
C157 C 0.71591 0.63305 0.85487 0.0
C158 C 0.66017 0.60652 0.84936 0.0
C159 C 0.67983 0.66201 0.82025 0.0
C160 C 0.64263 0.62156 0.83194 0.0
C161 C 0.61995 0.56048 0.86049 0.0
H162 H 0.41286 0.30006 0.8348 0.0
H163 H 0.49147 0.36564 0.85667 0.0
H164 H 0.40792 0.4267 0.80551 0.0
H165 H 0.48542 0.49184 0.82756 0.0
H166 H 0.3648 0.36429 0.89646 0.0
H167 H 0.43438 0.43463 0.87711 0.0
H168 H 0.48561 0.3424 0.92698 0.0
H169 H 0.55493 0.4119 0.90703 0.0
H170 H 0.68301 0.72705 0.90801 0.0
H171 H 0.62292 0.64923 0.88579 0.0
H172 H 0.76637 0.65058 0.92985 0.0
H173 H 0.70284 0.57125 0.90861 0.0
H174 H 0.79586 0.69394 0.84777 0.0
H175 H 0.73108 0.62088 0.86759 0.0
H176 H 0.66533 0.67248 0.80675 0.0
H177 H 0.60003 0.60162 0.82721 0.0
N178 N 0.5783 0.51878 0.84936 0.0
N179 N 0.58347 0.51361 0.89052 0.0
H180 H -0.00099 0.10988 0.0906 0.0
H181 H 0.00135 0.21359 0.04467 0.0
H182 H 0.97172 0.15213 0.11527 0.0
H183 H 0.97669 0.25696 0.06932 0.0
H184 H 0.91184 0.31826 0.11351 0.0
H185 H 0.91317 0.25533 0.08999 0.0
H186 H 0.01394 0.2342 0.13421 0.0
H187 H 0.00885 0.2938 0.1584 0.0
C188 C 0.99311 0.14118 0.08568 0.0
C189 C 0.00297 0.15863 0.06568 0.0
C190 C 0.97792 0.16576 0.09988 0.0
C191 C 0.9726 0.20851 0.09443 0.0
C192 C 0.97965 0.22384 0.07412 0.0
C193 C 0.99428 0.19906 0.05993 0.0
C194 C 0.93309 0.29919 0.1185 0.0
C195 C 0.96074 0.31178 0.13787 0.0
C196 C 0.93449 0.26352 0.10484 0.0
C197 C 0.96432 0.2401 0.11001 0.0
C198 C 0.99018 0.25103 0.12968 0.0
C199 C 0.98811 0.28612 0.14346 0.0
H200 H 0.81959 0.95155 0.41696 0.0
H201 H 0.9543 0.11244 0.4279 0.0
H202 H 0.77079 0.96646 0.4427 0.0
H203 H 0.9067 0.12721 0.454 0.0
H204 H 0.77491 0.15751 0.47183 0.0
H205 H 0.83275 0.13958 0.45239 0.0
H206 H 0.76108 0.98438 0.47734 0.0
H207 H 0.70225 0.00222 0.49651 0.0
C208 C 0.83932 0.98962 0.4253 0.0
C209 C 0.89011 0.03124 0.42016 0.0
C210 C 0.81146 -0.00176 0.44007 0.0
C211 C 0.83434 0.04848 0.45013 0.0
C212 C 0.88714 0.0886 0.44609 0.0
C213 C 0.91454 0.08016 0.43116 0.0
C214 C 0.77212 0.11991 0.4734 0.0
C215 C 0.73395 0.08122 0.48561 0.0
C216 C 0.80543 0.1096 0.46232 0.0
C217 C 0.80173 0.06049 0.46331 0.0
C218 C 0.7645 0.02231 0.47599 0.0
C219 C 0.73086 0.03252 0.48698 0.0
H220 H 0.9616 0.87181 0.73501 0.0
H221 H 0.89447 0.9631 0.75492 0.0
H222 H 0.91464 0.80823 0.76111 0.0
H223 H 0.84863 0.90013 0.78119 0.0
H224 H 0.81077 0.79211 0.83655 0.0
H225 H 0.87164 0.86101 0.81399 0.0
H226 H 0.8084 0.7448 0.76353 0.0
H227 H 0.74704 0.67658 0.78591 0.0
C228 C 0.9377 0.87889 0.74517 0.0
C229 C 0.93145 0.92232 0.7428 0.0
C230 C 0.9108 0.84246 0.76004 0.0
C231 C 0.87812 0.84945 0.77306 0.0
C232 C 0.87397 0.89419 0.7714 0.0
C233 C 0.90001 0.93006 0.75627 0.0
C234 C 0.81043 0.78152 0.82067 0.0
C235 C 0.77435 0.72945 0.81283 0.0
C236 C 0.84495 0.82071 0.80782 0.0
C237 C 0.84466 0.80792 0.78712 0.0
C238 C 0.80968 0.75543 0.77949 0.0
C239 C 0.77446 0.71663 0.7922 0.0
H240 H 0.01451 0.95132 0.09294 0.0
H241 H 0.12538 0.91864 0.06484 0.0
H242 H 0.99157 0.87989 0.11619 0.0
H243 H 0.10208 0.84728 0.08785 0.0
H244 H 0.0951 0.76614 0.14662 0.0
H245 H 0.11575 0.83849 0.12441 0.0
H246 H 0.94574 0.78119 0.11564 0.0
H247 H 0.92506 0.70929 0.13841 0.0
C248 C 0.03387 0.92887 0.09168 0.0
C249 C 0.07192 0.9408 0.07708 0.0
C250 C 0.0205 0.88781 0.10492 0.0
C251 C 0.04522 0.85816 0.10391 0.0
C252 C 0.08293 0.86991 0.08921 0.0
C253 C 0.09604 0.91065 0.07594 0.0
C254 C 0.06213 0.76932 0.14019 0.0
C255 C 0.00843 0.73203 0.14431 0.0
C256 C 0.07393 0.81045 0.12728 0.0
C257 C 0.03235 0.81537 0.11818 0.0
C258 C 0.97866 0.77859 0.12252 0.0
C259 C 0.96679 0.73719 0.1354 0.0
H260 H 0.10248 0.02316 0.39627 0.0
H261 H 0.14566 0.17085 0.42757 0.0
H262 H 0.17903 0.02608 0.41437 0.0
H263 H 0.22098 0.17299 0.44588 0.0
H264 H 0.37952 0.18762 0.46311 0.0
H265 H 0.30802 0.18498 0.44141 0.0
H266 H 0.2061 0.01627 0.44882 0.0
H267 H 0.27802 0.01893 0.47037 0.0
C268 C 0.1283 0.05631 0.40694 0.0
C269 C 0.11775 0.09673 0.41046 0.0
C270 C 0.17199 0.05779 0.4174 0.0
C271 C 0.20613 0.09973 0.43159 0.0
C272 C 0.19604 0.1405 0.43484 0.0
C273 C 0.15251 0.13907 0.4244 0.0
C274 C 0.34181 0.14999 0.46011 0.0
C275 C 0.33421 0.10357 0.46859 0.0
C276 C 0.30083 0.14845 0.44769 0.0
C277 C 0.25115 0.10049 0.4435 0.0
C278 C 0.24408 0.05377 0.45154 0.0
C279 C 0.28522 0.05528 0.46392 0.0
H280 H 0.15724 0.1451 0.72452 0.0
H281 H 0.07085 0.15558 0.77419 0.0
H282 H 0.24279 0.20407 0.74405 0.0
H283 H 0.15636 0.21466 0.79354 0.0
H284 H 0.31437 0.26968 0.83092 0.0
H285 H 0.23078 0.20862 0.8106 0.0
H286 H 0.29874 0.2983 0.75733 0.0
H287 H 0.38271 0.35878 0.77758 0.0
C288 C 0.15643 0.16016 0.73953 0.0
C289 C 0.10708 0.14551 0.74778 0.0
C290 C 0.20547 0.19405 0.75068 0.0
C291 C 0.20623 0.21367 0.77037 0.0
C292 C 0.157 0.19951 0.77853 0.0
C293 C 0.10801 0.16598 0.76734 0.0
C294 C 0.31171 0.27585 0.81481 0.0
C295 C 0.355 0.31904 0.80584 0.0
C296 C 0.26368 0.24128 0.80323 0.0
C297 C 0.2581 0.24895 0.78241 0.0
C298 C 0.30194 0.29126 0.77332 0.0
C299 C 0.34982 0.32607 0.78493 0.0
H300 H 0.90682 0.16023 0.69723 0.0
H301 H 0.94157 0.08768 0.64777 0.0
H302 H 0.86382 0.18987 0.67284 0.0
H303 H 0.89589 0.11392 0.62361 0.0
H304 H 0.81958 0.17187 0.58075 0.0
H305 H 0.8862 0.17374 0.60525 0.0
H306 H 0.78221 0.15101 0.65395 0.0
H307 H 0.71815 0.15303 0.62951 0.0
C308 C 0.90577 0.15112 0.68112 0.0
C309 C 0.92712 0.12118 0.67445 0.0
C310 C 0.88061 0.16762 0.66711 0.0
C311 C 0.87513 0.15346 0.64617 0.0
C312 C 0.8996 0.12632 0.63949 0.0
C313 C 0.92573 0.11089 0.65342 0.0
C314 C 0.81187 0.16833 0.5968 0.0
C315 C 0.76399 0.16212 0.60335 0.0
C316 C 0.8497 0.16896 0.61085 0.0
C317 C 0.83962 0.16182 0.63168 0.0
C318 C 0.79224 0.15756 0.63819 0.0
C319 C 0.75512 0.15823 0.62419 0.0
H320 H 0.98292 0.0169 0.96258 0.0
H321 H 0.93196 0.93459 0.01843 0.0
H322 H 0.91782 0.93615 0.94297 0.0
H323 H 0.86363 0.85421 -0.00102 0.0
H324 H 0.78178 0.70423 0.95819 0.0
H325 H 0.84784 0.78423 0.97791 0.0
H326 H 0.82922 0.87902 0.93286 0.0
H327 H 0.76827 0.79973 0.91209 0.0
C328 C 0.9569 0.98161 0.97068 0.0
C329 C 0.96239 0.98202 0.99202 0.0
C330 C 0.91914 0.93517 0.95943 0.0
C331 C 0.88476 0.88817 0.96927 0.0
C332 C 0.88987 0.88904 0.99074 0.0
C333 C 0.92872 0.93526 0.00196 0.0
C334 C 0.79254 0.74212 0.95223 0.0
C335 C 0.76941 0.74496 0.93337 0.0
C336 C 0.82986 0.78828 0.96382 0.0
C337 C 0.8443 0.83864 0.95712 0.0
C338 C 0.8203 0.84134 0.93846 0.0
C339 C 0.78411 0.79536 0.92665 0.0
H340 H 0.88054 0.88644 0.30053 0.0
H341 H 0.01015 0.91045 0.34294 0.0
H342 H 0.88902 0.82164 0.28071 0.0
H343 H 0.01937 0.84625 0.32281 0.0
H344 H 0.97743 0.6854 0.29342 0.0
H345 H 0.97167 0.7515 0.31379 0.0
H346 H 0.95054 0.81741 0.25856 0.0
H347 H 0.95605 0.75134 0.23827 0.0
C348 C 0.91104 0.87809 0.30558 0.0
C349 C 0.94467 0.90368 0.32332 0.0
C350 C 0.91612 0.84113 0.29414 0.0
C351 C 0.95502 0.82886 0.30012 0.0
C352 C 0.9886 0.85436 0.3179 0.0
C353 C 0.98351 0.89138 0.32937 0.0
C354 C 0.97209 0.71435 0.28565 0.0
C355 C 0.96683 0.71289 0.26423 0.0
C356 C 0.96881 0.75225 0.29731 0.0
C357 C 0.9603 0.78957 0.28781 0.0
C358 C 0.95602 0.78861 0.26638 0.0
C359 C 0.95921 0.75074 0.25475 0.0
H360 H 0.1785 0.01625 0.68347 0.0
H361 H 0.1142 0.08826 0.64428 0.0
H362 H 0.24712 0.03559 0.65948 0.0
H363 H 0.18304 0.10753 0.62028 0.0
H364 H 0.35256 0.17967 0.59422 0.0
H365 H 0.28513 0.16414 0.61853 0.0
H366 H 0.24617 0.0031 0.62382 0.0
H367 H 0.31364 0.0187 0.59979 0.0
C368 C 0.17909 0.03635 0.66978 0.0
C369 C 0.14075 0.05049 0.66573 0.0
C370 C 0.21823 0.04719 0.65601 0.0
C371 C 0.22021 0.07283 0.63799 0.0
C372 C 0.18262 0.088 0.63412 0.0
C373 C 0.14308 0.07669 0.6478 0.0
C374 C 0.32956 0.14104 0.60063 0.0
C375 C 0.33816 0.10034 0.59509 0.0
C376 C 0.29083 0.13207 0.61441 0.0
C377 C 0.26061 0.08247 0.62309 0.0
C378 C 0.26925 0.04185 0.61751 0.0
C379 C 0.30746 0.05063 0.60361 0.0
H380 H 0.25536 0.13071 0.00857 0.0
H381 H 0.13574 0.15789 0.9808 0.0
H382 H 0.31672 0.18086 0.98221 0.0
H383 H 0.19598 0.20683 0.95436 0.0
H384 H 0.343 0.35525 0.93212 0.0
H385 H 0.27691 0.29295 0.95445 0.0
H386 H 0.3365 0.18853 0.94639 0.0
H387 H 0.40344 0.25167 0.924 0.0
C388 C 0.24183 0.14653 -0.0034 0.0
C389 C 0.19146 0.14177 -0.00298 0.0
C390 C 0.27685 0.17512 0.98148 0.0
C391 C 0.26168 0.19886 0.96642 0.0
C392 C 0.2096 0.19054 0.9661 0.0
C393 C 0.17503 0.16256 0.98129 0.0
C394 C 0.34151 0.31864 0.93483 0.0
C395 C 0.37826 0.30827 0.92622 0.0
C396 C 0.30351 0.28279 0.94763 0.0
C397 C 0.30107 0.23547 0.95209 0.0
C398 C 0.33762 0.22482 0.94338 0.0
C399 C 0.3759 0.26092 0.93058 0.0
H400 H 0.97904 0.09901 0.30804 0.0
H401 H 0.08707 0.24375 0.34398 0.0
H402 H 0.98252 0.15118 0.27905 0.0
H403 H 0.0908 0.29562 0.31504 0.0
H404 H 0.09996 0.3766 0.25654 0.0
H405 H 0.11397 0.3183 0.2782 0.0
H406 H 0.94147 0.20879 0.27733 0.0
H407 H 0.92708 0.26751 0.25641 0.0
C408 C 0.00504 0.14184 0.30952 0.0
C409 C 0.03229 0.16738 0.32834 0.0
C410 C 0.00667 0.17165 0.29299 0.0
C411 C 0.03635 0.22739 0.29491 0.0
C412 C 0.06773 0.25274 0.31309 0.0
C413 C 0.06544 0.22302 0.32969 0.0
C414 C 0.06495 0.34011 0.26096 0.0
C415 C 0.01231 0.32721 0.25489 0.0
C416 C 0.07311 0.30655 0.2732 0.0
C417 C 0.02885 0.259 0.27938 0.0
C418 C 0.97641 0.24477 0.2725 0.0
C419 C 0.9682 0.27857 0.2605 0.0
loop_
_geom_bond_atom_site_label_1
_geom_bond_atom_site_label_2
_geom_bond_distance
_geom_bond_site_symmetry_2
_ccdc_geom_bond_type
Mg0 O1 2.028 . S
Mg0 O7 1.986 . S
Mg0 O9 2.114 . S
Mg0 O10 2.251 . S
Mg0 O13 2.010 . S
O1 Mg0 2.028 . S
O1 C4 1.250 1_455 S
O2 Mg3 2.028 1_655 S
O2 C4 1.248 . S
Mg3 O2 2.028 1_455 S
Mg3 O8 2.032 . S
Mg3 O10 2.079 . S
C4 O1 1.250 1_655 S
C4 O2 1.248 . S
C5 O6 1.264 1_565 S
C5 O13 1.249 1_565 S
O6 C5 1.264 1_545 S
O7 Mg0 1.986 . S
O7 C11 1.246 . S
O8 Mg3 2.032 . S
O8 C11 1.259 . S
O9 Mg0 2.114 . S
O9 C12 1.252 . S
O10 Mg0 2.251 . S
O10 Mg3 2.079 . S
O10 C12 1.273 . S
C11 O7 1.246 . S
C11 O8 1.259 . S
C12 O9 1.252 . S
C12 O10 1.273 . S
O13 Mg0 2.010 . S
O13 C5 1.249 1_545 S
Mg14 O15 2.028 1_655 S
Mg14 O21 1.986 1_655 S
Mg14 O23 2.114 1_545 S
Mg14 O24 2.251 . S
Mg14 O27 2.010 1_545 S
O15 Mg14 2.028 1_455 S
O15 C18 1.250 . S
O16 Mg17 2.028 . S
O16 C18 1.248 . S
Mg17 O16 2.028 . S
Mg17 O22 2.032 . S
Mg17 O24 2.079 1_455 S
C18 O15 1.250 . S
C18 O16 1.248 . S
C19 O20 1.264 . S
C19 O27 1.249 . S
O20 C19 1.264 . S
O21 Mg14 1.986 1_455 S
O21 C25 1.246 . S
O22 Mg17 2.032 . S
O22 C25 1.259 . S
O23 Mg14 2.114 1_565 S
O23 C26 1.252 1_565 S
O24 Mg14 2.251 . S
O24 Mg17 2.079 1_655 S
O24 C26 1.273 . S
C25 O21 1.246 . S
C25 O22 1.259 . S
C26 O23 1.252 1_545 S
C26 O24 1.273 . S
O27 Mg14 2.010 1_565 S
O27 C19 1.249 . S
Mg28 O29 2.028 . S
Mg28 O35 1.986 1_455 S
Mg28 O37 2.114 1_545 S
Mg28 O38 2.251 1_445 S
Mg28 O41 2.010 . S
O29 Mg28 2.028 . S
O29 C32 1.250 . S
O30 Mg31 2.028 1_455 S
O30 C32 1.248 . S
Mg31 O30 2.028 1_655 S
Mg31 O36 2.032 . S
Mg31 O38 2.079 1_545 S
C32 O29 1.250 . S
C32 O30 1.248 . S
C33 O34 1.264 1_545 S
C33 O41 1.249 . S
O34 C33 1.264 1_565 S
O35 Mg28 1.986 1_655 S
O35 C39 1.246 . S
O36 Mg31 2.032 . S
O36 C39 1.259 . S
O37 Mg28 2.114 1_565 S
O37 C40 1.252 1_455 S
O38 Mg28 2.251 1_665 S
O38 Mg31 2.079 1_565 S
O38 C40 1.273 . S
C39 O35 1.246 . S
C39 O36 1.259 . S
C40 O37 1.252 1_655 S
C40 O38 1.273 . S
O41 Mg28 2.010 . S
O41 C33 1.249 . S
C42 C43 1.384 1_655 S
C42 C44 1.384 . S
C42 H70 0.931 . S
C43 C42 1.384 1_455 S
C43 C46 1.382 . S
C44 C42 1.384 . S
C44 C45 1.381 1_655 S
C44 H71 0.930 . S
C45 C44 1.381 1_455 S
C45 C47 1.381 . S
C45 C48 1.487 . S
C46 C43 1.382 . S
C46 C47 1.387 . S
C46 H72 0.930 . S
C47 C45 1.381 . S
C47 C46 1.387 . S
C47 H73 0.931 . S
C48 C45 1.487 . S
C48 C55 1.399 . S
C48 N86 1.343 . S
C49 C50 1.384 . S
C49 C51 1.384 . S
C49 H74 0.931 . S
C50 C49 1.384 . S
C50 C53 1.382 . S
C51 C49 1.384 . S
C51 C52 1.381 . S
C51 H75 0.930 . S
C52 C51 1.381 . S
C52 C54 1.381 . S
C52 C55 1.487 . S
C53 C50 1.382 . S
C53 C54 1.387 . S
C53 H76 0.930 1_455 S
C54 C52 1.381 . S
C54 C53 1.387 . S
C54 H77 0.931 1_455 S
C55 C48 1.399 . S
C55 C52 1.487 . S
C55 N87 1.343 . S
C56 C57 1.384 . S
C56 C58 1.384 . S
C56 H78 0.931 . S
C57 C56 1.384 . S
C57 C60 1.382 . S
C58 C56 1.384 . S
C58 C59 1.381 . S
C58 H79 0.930 . S
C59 C58 1.381 . S
C59 C61 1.381 . S
C59 C62 1.487 . S
C60 C57 1.382 . S
C60 C61 1.387 . S
C60 H80 0.930 1_455 S
C61 C59 1.381 . S
C61 C60 1.387 . S
C61 H81 0.931 1_455 S
C62 C59 1.487 . S
C62 C69 1.399 . S
C62 N87 1.343 . S
C63 C64 1.384 1_655 S
C63 C65 1.384 . S
C63 H82 0.931 . S
C64 C63 1.384 1_455 S
C64 C67 1.382 . S
C65 C63 1.384 . S
C65 C66 1.381 1_655 S
C65 H83 0.930 . S
C66 C65 1.381 1_455 S
C66 C68 1.381 . S
C66 C69 1.487 . S
C67 C64 1.382 . S
C67 C68 1.387 . S
C67 H84 0.930 . S
C68 C66 1.381 . S
C68 C67 1.387 . S
C68 H85 0.931 . S
C69 C62 1.399 . S
C69 C66 1.487 . S
C69 N86 1.343 . S
H70 C42 0.931 . S
H71 C44 0.930 . S
H72 C46 0.930 . S
H73 C47 0.931 . S
H74 C49 0.931 . S
H75 C51 0.930 . S
H76 C53 0.930 1_655 S
H77 C54 0.931 1_655 S
H78 C56 0.931 . S
H79 C58 0.930 . S
H80 C60 0.930 1_655 S
H81 C61 0.931 1_655 S
H82 C63 0.931 . S
H83 C65 0.930 . S
H84 C67 0.930 . S
H85 C68 0.931 . S
N86 C48 1.343 . S
N86 C69 1.343 . S
N87 C55 1.343 . S
N87 C62 1.343 . S
C88 C89 1.384 . S
C88 C90 1.384 . S
C88 H116 0.931 . S
C89 C88 1.384 . S
C89 C92 1.382 . S
C90 C88 1.384 . S
C90 C91 1.381 . S
C90 H117 0.930 . S
C91 C90 1.381 . S
C91 C93 1.381 . S
C91 C94 1.487 . S
C92 C89 1.382 . S
C92 C93 1.387 . S
C92 H118 0.930 . S
C93 C91 1.381 . S
C93 C92 1.387 . S
C93 H119 0.931 . S
C94 C91 1.487 . S
C94 C101 1.399 . S
C94 N132 1.343 . S
C95 C96 1.384 . S
C95 C97 1.384 . S
C95 H120 0.931 . S
C96 C95 1.384 . S
C96 C99 1.382 . S
C97 C95 1.384 . S
C97 C98 1.381 . S
C97 H121 0.930 . S
C98 C97 1.381 . S
C98 C100 1.381 . S
C98 C101 1.487 . S
C99 C96 1.382 . S
C99 C100 1.387 . S
C99 H122 0.930 . S
C100 C98 1.381 . S
C100 C99 1.387 . S
C100 H123 0.931 . S
C101 C94 1.399 . S
C101 C98 1.487 . S
C101 N133 1.343 . S
C102 C103 1.384 . S
C102 C104 1.384 . S
C102 H124 0.931 . S
C103 C102 1.384 . S
C103 C106 1.382 . S
C104 C102 1.384 . S
C104 C105 1.381 . S
C104 H125 0.930 . S
C105 C104 1.381 . S
C105 C107 1.381 . S
C105 C108 1.487 . S
C106 C103 1.382 . S
C106 C107 1.387 . S
C106 H126 0.930 . S
C107 C105 1.381 . S
C107 C106 1.387 . S
C107 H127 0.931 . S
C108 C105 1.487 . S
C108 C115 1.399 . S
C108 N133 1.343 . S
C109 C110 1.384 . S
C109 C111 1.384 . S
C109 H128 0.931 . S
C110 C109 1.384 . S
C110 C113 1.382 . S
C111 C109 1.384 . S
C111 C112 1.381 . S
C111 H129 0.930 . S
C112 C111 1.381 . S
C112 C114 1.381 . S
C112 C115 1.487 . S
C113 C110 1.382 . S
C113 C114 1.387 . S
C113 H130 0.930 . S
C114 C112 1.381 . S
C114 C113 1.387 . S
C114 H131 0.931 . S
C115 C108 1.399 . S
C115 C112 1.487 . S
C115 N132 1.343 . S
H116 C88 0.931 . S
H117 C90 0.930 . S
H118 C92 0.930 . S
H119 C93 0.931 . S
H120 C95 0.931 . S
H121 C97 0.930 . S
H122 C99 0.930 . S
H123 C100 0.931 . S
H124 C102 0.931 . S
H125 C104 0.930 . S
H126 C106 0.930 . S
H127 C107 0.931 . S
H128 C109 0.931 . S
H129 C111 0.930 . S
H130 C113 0.930 . S
H131 C114 0.931 . S
N132 C94 1.343 . S
N132 C115 1.343 . S
N133 C101 1.343 . S
N133 C108 1.343 . S
C134 C135 1.384 . S
C134 C136 1.384 . S
C134 H162 0.931 . S
C135 C134 1.384 . S
C135 C138 1.382 . S
C136 C134 1.384 . S
C136 C137 1.381 . S
C136 H163 0.930 . S
C137 C136 1.381 . S
C137 C139 1.381 . S
C137 C140 1.487 . S
C138 C135 1.382 . S
C138 C139 1.387 . S
C138 H164 0.930 . S
C139 C137 1.381 . S
C139 C138 1.387 . S
C139 H165 0.931 . S
C140 C137 1.487 . S
C140 C147 1.399 . S
C140 N178 1.343 . S
C141 C142 1.384 . S
C141 C143 1.384 . S
C141 H166 0.931 . S
C142 C141 1.384 . S
C142 C145 1.382 . S
C143 C141 1.384 . S
C143 C144 1.381 . S
C143 H167 0.930 . S
C144 C143 1.381 . S
C144 C146 1.381 . S
C144 C147 1.487 . S
C145 C142 1.382 . S
C145 C146 1.387 . S
C145 H168 0.930 . S
C146 C144 1.381 . S
C146 C145 1.387 . S
C146 H169 0.931 . S
C147 C140 1.399 . S
C147 C144 1.487 . S
C147 N179 1.343 . S
C148 C149 1.384 . S
C148 C150 1.384 . S
C148 H170 0.931 . S
C149 C148 1.384 . S
C149 C152 1.382 . S
C150 C148 1.384 . S
C150 C151 1.381 . S
C150 H171 0.930 . S
C151 C150 1.381 . S
C151 C153 1.381 . S
C151 C154 1.487 . S
C152 C149 1.382 . S
C152 C153 1.387 . S
C152 H172 0.930 . S
C153 C151 1.381 . S
C153 C152 1.387 . S
C153 H173 0.931 . S
C154 C151 1.487 . S
C154 C161 1.399 . S
C154 N179 1.343 . S
C155 C156 1.384 . S
C155 C157 1.384 . S
C155 H174 0.931 . S
C156 C155 1.384 . S
C156 C159 1.382 . S
C157 C155 1.384 . S
C157 C158 1.381 . S
C157 H175 0.930 . S
C158 C157 1.381 . S
C158 C160 1.381 . S
C158 C161 1.487 . S
C159 C156 1.382 . S
C159 C160 1.387 . S
C159 H176 0.930 . S
C160 C158 1.381 . S
C160 C159 1.387 . S
C160 H177 0.931 . S
C161 C154 1.399 . S
C161 C158 1.487 . S
C161 N178 1.343 . S
H162 C134 0.931 . S
H163 C136 0.930 . S
H164 C138 0.930 . S
H165 C139 0.931 . S
H166 C141 0.931 . S
H167 C143 0.930 . S
H168 C145 0.930 . S
H169 C146 0.931 . S
H170 C148 0.931 . S
H171 C150 0.930 . S
H172 C152 0.930 . S
H173 C153 0.931 . S
H174 C155 0.931 . S
H175 C157 0.930 . S
H176 C159 0.930 . S
H177 C160 0.931 . S
N178 C140 1.343 . S
N178 C161 1.343 . S
N179 C147 1.343 . S
N179 C154 1.343 . S
H180 C188 0.950 1_655 S
H181 C193 0.950 . S
H182 C190 0.950 1_655 S
H183 C192 0.950 . S
H184 C194 0.950 . S
H185 C196 0.950 . S
H186 C198 0.950 1_655 S
H187 C199 0.950 1_655 S
C188 H180 0.950 1_455 S
C188 C189 1.386 . S
C188 C190 1.391 . S
C189 C188 1.386 . S
C189 C193 1.393 . S
C190 H182 0.950 1_455 S
C190 C188 1.391 . S
C190 C191 1.400 . S
C191 C190 1.400 . S
C191 C192 1.398 . S
C191 C197 1.491 . S
C192 H183 0.950 . S
C192 C191 1.398 . S
C192 C193 1.391 . S
C193 H181 0.950 . S
C193 C189 1.393 . S
C193 C192 1.391 . S
C194 H184 0.950 . S
C194 C195 1.386 . S
C194 C196 1.391 . S
C195 C194 1.386 . S
C195 C199 1.393 . S
C196 H185 0.950 . S
C196 C194 1.391 . S
C196 C197 1.400 . S
C197 C191 1.491 . S
C197 C196 1.400 . S
C197 C198 1.398 . S
C198 H186 0.950 1_455 S
C198 C197 1.398 . S
C198 C199 1.391 . S
C199 H187 0.950 1_455 S
C199 C195 1.393 . S
C199 C198 1.391 . S
H200 C208 0.950 . S
H201 C213 0.950 . S
H202 C210 0.950 . S
H203 C212 0.950 . S
H204 C214 0.950 . S
H205 C216 0.950 . S
H206 C218 0.950 1_565 S
H207 C219 0.950 1_565 S
C208 H200 0.950 . S
C208 C209 1.386 1_565 S
C208 C210 1.391 . S
C209 C208 1.386 1_545 S
C209 C213 1.393 . S
C210 H202 0.950 . S
C210 C208 1.391 . S
C210 C211 1.400 1_565 S
C211 C210 1.400 1_545 S
C211 C212 1.398 . S
C211 C217 1.491 . S
C212 H203 0.950 . S
C212 C211 1.398 . S
C212 C213 1.391 . S
C213 H201 0.950 . S
C213 C209 1.393 . S
C213 C212 1.391 . S
C214 H204 0.950 . S
C214 C215 1.386 . S
C214 C216 1.391 . S
C215 C214 1.386 . S
C215 C219 1.393 . S
C216 H205 0.950 . S
C216 C214 1.391 . S
C216 C217 1.400 . S
C217 C211 1.491 . S
C217 C216 1.400 . S
C217 C218 1.398 . S
C218 H206 0.950 1_545 S
C218 C217 1.398 . S
C218 C219 1.391 . S
C219 H207 0.950 1_545 S
C219 C215 1.393 . S
C219 C218 1.391 . S
H220 C228 0.950 . S
H221 C233 0.950 . S
H222 C230 0.950 . S
H223 C232 0.950 . S
H224 C234 0.950 . S
H225 C236 0.950 . S
H226 C238 0.950 . S
H227 C239 0.950 . S
C228 H220 0.950 . S
C228 C229 1.386 . S
C228 C230 1.391 . S
C229 C228 1.386 . S
C229 C233 1.393 . S
C230 H222 0.950 . S
C230 C228 1.391 . S
C230 C231 1.400 . S
C231 C230 1.400 . S
C231 C232 1.398 . S
C231 C237 1.491 . S
C232 H223 0.950 . S
C232 C231 1.398 . S
C232 C233 1.391 . S
C233 H221 0.950 . S
C233 C229 1.393 . S
C233 C232 1.391 . S
C234 H224 0.950 . S
C234 C235 1.386 . S
C234 C236 1.391 . S
C235 C234 1.386 . S
C235 C239 1.393 . S
C236 H225 0.950 . S
C236 C234 1.391 . S
C236 C237 1.400 . S
C237 C231 1.491 . S
C237 C236 1.400 . S
C237 C238 1.398 . S
C238 H226 0.950 . S
C238 C237 1.398 . S
C238 C239 1.391 . S
C239 H227 0.950 . S
C239 C235 1.393 . S
C239 C238 1.391 . S
H240 C248 0.950 . S
H241 C253 0.950 . S
H242 C250 0.950 1_655 S
H243 C252 0.950 . S
H244 C254 0.950 . S
H245 C256 0.950 . S
H246 C258 0.950 1_655 S
H247 C259 0.950 1_655 S
C248 H240 0.950 . S
C248 C249 1.386 . S
C248 C250 1.391 . S
C249 C248 1.386 . S
C249 C253 1.393 . S
C250 H242 0.950 1_455 S
C250 C248 1.391 . S
C250 C251 1.400 . S
C251 C250 1.400 . S
C251 C252 1.398 . S
C251 C257 1.491 . S
C252 H243 0.950 . S
C252 C251 1.398 . S
C252 C253 1.391 . S
C253 H241 0.950 . S
C253 C249 1.393 . S
C253 C252 1.391 . S
C254 H244 0.950 . S
C254 C255 1.386 . S
C254 C256 1.391 . S
C255 C254 1.386 . S
C255 C259 1.393 . S
C256 H245 0.950 . S
C256 C254 1.391 . S
C256 C257 1.400 . S
C257 C251 1.491 . S
C257 C256 1.400 . S
C257 C258 1.398 . S
C258 H246 0.950 1_455 S
C258 C257 1.398 . S
C258 C259 1.391 . S
C259 H247 0.950 1_455 S
C259 C255 1.393 . S
C259 C258 1.391 . S
H260 C268 0.950 . S
H261 C273 0.950 . S
H262 C270 0.950 . S
H263 C272 0.950 . S
H264 C274 0.950 . S
H265 C276 0.950 . S
H266 C278 0.950 . S
H267 C279 0.950 . S
C268 H260 0.950 . S
C268 C269 1.386 . S
C268 C270 1.391 . S
C269 C268 1.386 . S
C269 C273 1.393 . S
C270 H262 0.950 . S
C270 C268 1.391 . S
C270 C271 1.400 . S
C271 C270 1.400 . S
C271 C272 1.398 . S
C271 C277 1.491 . S
C272 H263 0.950 . S
C272 C271 1.398 . S
C272 C273 1.391 . S
C273 H261 0.950 . S
C273 C269 1.393 . S
C273 C272 1.391 . S
C274 H264 0.950 . S
C274 C275 1.386 . S
C274 C276 1.391 . S
C275 C274 1.386 . S
C275 C279 1.393 . S
C276 H265 0.950 . S
C276 C274 1.391 . S
C276 C277 1.400 . S
C277 C271 1.491 . S
C277 C276 1.400 . S
C277 C278 1.398 . S
C278 H266 0.950 . S
C278 C277 1.398 . S
C278 C279 1.391 . S
C279 H267 0.950 . S
C279 C275 1.393 . S
C279 C278 1.391 . S
H280 C288 0.950 . S
H281 C293 0.950 . S
H282 C290 0.950 . S
H283 C292 0.950 . S
H284 C294 0.950 . S
H285 C296 0.950 . S
H286 C298 0.950 . S
H287 C299 0.950 . S
C288 H280 0.950 . S
C288 C289 1.386 . S
C288 C290 1.391 . S
C289 C288 1.386 . S
C289 C293 1.393 . S
C290 H282 0.950 . S
C290 C288 1.391 . S
C290 C291 1.400 . S
C291 C290 1.400 . S
C291 C292 1.398 . S
C291 C297 1.491 . S
C292 H283 0.950 . S
C292 C291 1.398 . S
C292 C293 1.391 . S
C293 H281 0.950 . S
C293 C289 1.393 . S
C293 C292 1.391 . S
C294 H284 0.950 . S
C294 C295 1.386 . S
C294 C296 1.391 . S
C295 C294 1.386 . S
C295 C299 1.393 . S
C296 H285 0.950 . S
C296 C294 1.391 . S
C296 C297 1.400 . S
C297 C291 1.491 . S
C297 C296 1.400 . S
C297 C298 1.398 . S
C298 H286 0.950 . S
C298 C297 1.398 . S
C298 C299 1.391 . S
C299 H287 0.950 . S
C299 C295 1.393 . S
C299 C298 1.391 . S
H300 C308 0.950 . S
H301 C313 0.950 . S
H302 C310 0.950 . S
H303 C312 0.950 . S
H304 C314 0.950 . S
H305 C316 0.950 . S
H306 C318 0.950 . S
H307 C319 0.950 . S
C308 H300 0.950 . S
C308 C309 1.386 . S
C308 C310 1.391 . S
C309 C308 1.386 . S
C309 C313 1.393 . S
C310 H302 0.950 . S
C310 C308 1.391 . S
C310 C311 1.400 . S
C311 C310 1.400 . S
C311 C312 1.398 . S
C311 C317 1.491 . S
C312 H303 0.950 . S
C312 C311 1.398 . S
C312 C313 1.391 . S
C313 H301 0.950 . S
C313 C309 1.393 . S
C313 C312 1.391 . S
C314 H304 0.950 . S
C314 C315 1.386 . S
C314 C316 1.391 . S
C315 C314 1.386 . S
C315 C319 1.393 . S
C316 H305 0.950 . S
C316 C314 1.391 . S
C316 C317 1.400 . S
C317 C311 1.491 . S
C317 C316 1.400 . S
C317 C318 1.398 . S
C318 H306 0.950 . S
C318 C317 1.398 . S
C318 C319 1.391 . S
C319 H307 0.950 . S
C319 C315 1.393 . S
C319 C318 1.391 . S
H320 C328 0.950 1_545 S
H321 C333 0.950 . S
H322 C330 0.950 . S
H323 C332 0.950 . S
H324 C334 0.950 . S
H325 C336 0.950 . S
H326 C338 0.950 . S
H327 C339 0.950 . S
C328 H320 0.950 1_565 S
C328 C329 1.386 1_556 S
C328 C330 1.391 . S
C329 C328 1.386 1_554 S
C329 C333 1.393 . S
C330 H322 0.950 . S
C330 C328 1.391 . S
C330 C331 1.400 . S
C331 C330 1.400 . S
C331 C332 1.398 1_556 S
C331 C337 1.491 . S
C332 H323 0.950 . S
C332 C331 1.398 1_554 S
C332 C333 1.391 . S
C333 H321 0.950 . S
C333 C329 1.393 . S
C333 C332 1.391 . S
C334 H324 0.950 . S
C334 C335 1.386 . S
C334 C336 1.391 . S
C335 C334 1.386 . S
C335 C339 1.393 . S
C336 H325 0.950 . S
C336 C334 1.391 . S
C336 C337 1.400 . S
C337 C331 1.491 . S
C337 C336 1.400 . S
C337 C338 1.398 . S
C338 H326 0.950 . S
C338 C337 1.398 . S
C338 C339 1.391 . S
C339 H327 0.950 . S
C339 C335 1.393 . S
C339 C338 1.391 . S
H340 C348 0.950 . S
H341 C353 0.950 . S
H342 C350 0.950 . S
H343 C352 0.950 . S
H344 C354 0.950 . S
H345 C356 0.950 . S
H346 C358 0.950 . S
H347 C359 0.950 . S
C348 H340 0.950 . S
C348 C349 1.386 . S
C348 C350 1.391 . S
C349 C348 1.386 . S
C349 C353 1.393 1_655 S
C350 H342 0.950 . S
C350 C348 1.391 . S
C350 C351 1.400 1_655 S
C351 C350 1.400 1_455 S
C351 C352 1.398 . S
C351 C357 1.491 . S
C352 H343 0.950 . S
C352 C351 1.398 . S
C352 C353 1.391 . S
C353 H341 0.950 . S
C353 C349 1.393 1_455 S
C353 C352 1.391 . S
C354 H344 0.950 . S
C354 C355 1.386 . S
C354 C356 1.391 . S
C355 C354 1.386 . S
C355 C359 1.393 1_455 S
C356 H345 0.950 . S
C356 C354 1.391 . S
C356 C357 1.400 . S
C357 C351 1.491 . S
C357 C356 1.400 . S
C357 C358 1.398 1_455 S
C358 H346 0.950 . S
C358 C357 1.398 1_655 S
C358 C359 1.391 . S
C359 H347 0.950 . S
C359 C355 1.393 1_655 S
C359 C358 1.391 . S
H360 C368 0.950 . S
H361 C373 0.950 . S
H362 C370 0.950 . S
H363 C372 0.950 . S
H364 C374 0.950 . S
H365 C376 0.950 . S
H366 C378 0.950 1_565 S
H367 C379 0.950 1_565 S
C368 H360 0.950 . S
C368 C369 1.386 1_565 S
C368 C370 1.391 . S
C369 C368 1.386 1_545 S
C369 C373 1.393 . S
C370 H362 0.950 . S
C370 C368 1.391 . S
C370 C371 1.400 1_565 S
C371 C370 1.400 1_545 S
C371 C372 1.398 . S
C371 C377 1.491 . S
C372 H363 0.950 . S
C372 C371 1.398 . S
C372 C373 1.391 . S
C373 H361 0.950 . S
C373 C369 1.393 . S
C373 C372 1.391 . S
C374 H364 0.950 . S
C374 C375 1.386 . S
C374 C376 1.391 . S
C375 C374 1.386 . S
C375 C379 1.393 . S
C376 H365 0.950 . S
C376 C374 1.391 . S
C376 C377 1.400 . S
C377 C371 1.491 . S
C377 C376 1.400 . S
C377 C378 1.398 . S
C378 H366 0.950 1_545 S
C378 C377 1.398 . S
C378 C379 1.391 . S
C379 H367 0.950 1_545 S
C379 C375 1.393 . S
C379 C378 1.391 . S
H380 C388 0.950 . S
H381 C393 0.950 . S
H382 C390 0.950 . S
H383 C392 0.950 . S
H384 C394 0.950 . S
H385 C396 0.950 . S
H386 C398 0.950 . S
H387 C399 0.950 . S
C388 H380 0.950 . S
C388 C389 1.386 1_556 S
C388 C390 1.391 . S
C389 C388 1.386 1_554 S
C389 C393 1.393 . S
C390 H382 0.950 . S
C390 C388 1.391 . S
C390 C391 1.400 . S
C391 C390 1.400 . S
C391 C392 1.398 . S
C391 C397 1.491 . S
C392 H383 0.950 . S
C392 C391 1.398 . S
C392 C393 1.391 1_556 S
C393 H381 0.950 . S
C393 C389 1.393 . S
C393 C392 1.391 1_554 S
C394 H384 0.950 . S
C394 C395 1.386 . S
C394 C396 1.391 . S
C395 C394 1.386 . S
C395 C399 1.393 . S
C396 H385 0.950 . S
C396 C394 1.391 . S
C396 C397 1.400 . S
C397 C391 1.491 . S
C397 C396 1.400 . S
C397 C398 1.398 . S
C398 H386 0.950 . S
C398 C397 1.398 . S
C398 C399 1.391 . S
C399 H387 0.950 . S
C399 C395 1.393 . S
C399 C398 1.391 . S
H400 C408 0.950 . S
H401 C413 0.950 . S
H402 C410 0.950 . S
H403 C412 0.950 . S
H404 C414 0.950 . S
H405 C416 0.950 . S
H406 C418 0.950 . S
H407 C419 0.950 . S
C408 H400 0.950 . S
C408 C409 1.386 1_655 S
C408 C410 1.391 . S
C409 C408 1.386 1_455 S
C409 C413 1.393 . S
C410 H402 0.950 . S
C410 C408 1.391 . S
C410 C411 1.400 1_655 S
C411 C410 1.400 1_455 S
C411 C412 1.398 . S
C411 C417 1.491 . S
C412 H403 0.950 . S
C412 C411 1.398 . S
C412 C413 1.391 . S
C413 H401 0.950 . S
C413 C409 1.393 . S
C413 C412 1.391 . S
C414 H404 0.950 . S
C414 C415 1.386 . S
C414 C416 1.391 . S
C415 C414 1.386 . S
C415 C419 1.393 1_455 S
C416 H405 0.950 . S
C416 C414 1.391 . S
C416 C417 1.400 . S
C417 C411 1.491 . S
C417 C416 1.400 . S
C417 C418 1.398 1_455 S
C418 H406 0.950 . S
C418 C417 1.398 1_655 S
C418 C419 1.391 . S
C419 H407 0.950 . S
C419 C415 1.393 1_655 S
C419 C418 1.391 . S
C195 C50 1.380 . S
C189 C11 1.363 . S
C209 C26 1.527 . S
C215 C89 1.537 . S
C229 C40 1.415 . S
C235 C156 1.421 . S
C249 C5 1.231 . S
C255 C57 1.381 . S
C275 C110 1.525 . S
C269 C18 1.518 . S
C289 C32 1.389 . S
C295 C135 1.405 . S
C315 C96 1.269 . S
C309 C39 1.259 . S
C329 C4 1.401 1_565 S
C335 C149 1.414 . S
C355 C64 1.391 . S
C349 C19 1.249 . S
C375 C103 1.309 . S
C369 C33 1.139 . S
C395 C142 1.425 . S
C389 C12 1.414 . S
C409 C25 1.367 . S
C415 C43 1.392 . S
