# Generated by pormake.
# Topology ssa, (4,4)-cn, num edge types: 1
# Building blocks:
#     Node 0, Type 0, BuildingBlock: KOZSID_clean_sbu_0, # of connection points: 4
#     Node 1, Type 0, BuildingBlock: KOZSID_clean_sbu_0, # of connection points: 4
#     Node 2, Type 0, BuildingBlock: KOZSID_clean_sbu_0, # of connection points: 4
#     Node 3, Type 0, BuildingBlock: KOZSID_clean_sbu_0, # of connection points: 4
#     Node 4, Type 0, BuildingBlock: KOZSID_clean_sbu_0, # of connection points: 4
#     Node 5, Type 0, BuildingBlock: KOZSID_clean_sbu_0, # of connection points: 4
#     Node 6, Type 1, BuildingBlock: MIFKUJ_clean_linker_1, # of connection points: 4
#     Node 7, Type 1, BuildingBlock: MIFKUJ_clean_linker_1, # of connection points: 4
#     Node 8, Type 1, BuildingBlock: MIFKUJ_clean_linker_1, # of connection points: 4
#     Node 9, Type 1, BuildingBlock: MIFKUJ_clean_linker_1, # of connection points: 4
#     Node 10, Type 1, BuildingBlock: MIFKUJ_clean_linker_1, # of connection points: 4
#     Node 11, Type 1, BuildingBlock: MIFKUJ_clean_linker_1, # of connection points: 4
#     Edge 12, Type (0, 1), BuildingBlock: OJICUG_clean_linker_0, # of connection points: 2
#     Edge 13, Type (0, 1), BuildingBlock: OJICUG_clean_linker_0, # of connection points: 2
#     Edge 14, Type (0, 1), BuildingBlock: OJICUG_clean_linker_0, # of connection points: 2
#     Edge 15, Type (0, 1), BuildingBlock: OJICUG_clean_linker_0, # of connection points: 2
#     Edge 16, Type (0, 1), BuildingBlock: OJICUG_clean_linker_0, # of connection points: 2
#     Edge 17, Type (0, 1), BuildingBlock: OJICUG_clean_linker_0, # of connection points: 2
#     Edge 18, Type (0, 1), BuildingBlock: OJICUG_clean_linker_0, # of connection points: 2
#     Edge 19, Type (0, 1), BuildingBlock: OJICUG_clean_linker_0, # of connection points: 2
#     Edge 20, Type (0, 1), BuildingBlock: OJICUG_clean_linker_0, # of connection points: 2
#     Edge 21, Type (0, 1), BuildingBlock: OJICUG_clean_linker_0, # of connection points: 2
#     Edge 22, Type (0, 1), BuildingBlock: OJICUG_clean_linker_0, # of connection points: 2
#     Edge 23, Type (0, 1), BuildingBlock: OJICUG_clean_linker_0, # of connection points: 2
#     Edge 24, Type (0, 1), BuildingBlock: OJICUG_clean_linker_0, # of connection points: 2
#     Edge 25, Type (0, 1), BuildingBlock: OJICUG_clean_linker_0, # of connection points: 2
#     Edge 26, Type (0, 1), BuildingBlock: OJICUG_clean_linker_0, # of connection points: 2
#     Edge 27, Type (0, 1), BuildingBlock: OJICUG_clean_linker_0, # of connection points: 2
#     Edge 28, Type (0, 1), BuildingBlock: OJICUG_clean_linker_0, # of connection points: 2
#     Edge 29, Type (0, 1), BuildingBlock: OJICUG_clean_linker_0, # of connection points: 2
#     Edge 30, Type (0, 1), BuildingBlock: OJICUG_clean_linker_0, # of connection points: 2
#     Edge 31, Type (0, 1), BuildingBlock: OJICUG_clean_linker_0, # of connection points: 2
#     Edge 32, Type (0, 1), BuildingBlock: OJICUG_clean_linker_0, # of connection points: 2
#     Edge 33, Type (0, 1), BuildingBlock: OJICUG_clean_linker_0, # of connection points: 2
#     Edge 34, Type (0, 1), BuildingBlock: OJICUG_clean_linker_0, # of connection points: 2
#     Edge 35, Type (0, 1), BuildingBlock: OJICUG_clean_linker_0, # of connection points: 2
# Relax obj value: 0.006
# Max RMSD: 0.024
# Mean RMSD: 0.012
data_MOF--net-ssa--node1-KOZSID_clean_sbu_0--node2-MIFKUJ_clean_linker_1--edge1-OJICUG_clean_linker_0
_symmetry_space_group_name_H-M    P1
_symmetry_Int_Tables_number       1
_symmetry_cell_setting            triclinic
loop_
_symmetry_equiv_pos_as_xyz
'x, y, z'
_cell_length_a     51.639676
_cell_length_b     53.040728
_cell_length_c     33.667441
_cell_angle_alpha  87.061161
_cell_angle_beta   89.964601
_cell_angle_gamma 122.67297
loop_
_atom_site_label
_atom_site_type_symbol
_atom_site_fract_x
_atom_site_fract_y
_atom_site_fract_z
_atom_type_partial_charge
C0 C 0.95092 0.51181 0.99931 0.0
C1 C 0.92556 0.5066 0.02129 0.0
C2 C 0.92321 0.48981 0.0548 0.0
C3 C 0.94726 0.4859 0.05146 0.0
N4 N 0.96512 0.49956 0.01809 0.0
Co5 Co 0.00229 0.49941 0.00105 0.0
N6 N 0.99688 0.47205 0.04804 0.0
C7 C 0.97359 0.45914 0.07576 0.0
C8 C 0.97618 0.44141 0.10447 0.0
C9 C 0.00295 0.44346 0.09487 0.0
C10 C 0.01528 0.46257 0.06087 0.0
N11 N 0.04003 0.49994 0.98471 0.0
C12 C 0.05492 0.48871 0.00441 0.0
C13 C 0.0818 0.49619 0.98402 0.0
C14 C 0.08403 0.51281 0.95041 0.0
C15 C 0.0587 0.51477 0.95228 0.0
N16 N 0.00719 0.52618 0.95345 0.0
C17 C 0.02925 0.53737 0.92418 0.0
C18 C 0.02554 0.55347 0.89413 0.0
C19 C 0.9992 0.55203 0.90437 0.0
C20 C 0.98841 0.53516 0.94032 0.0
N21 N 0.02853 0.53487 0.03253 0.0
C22 C 0.06753 0.58368 0.07855 0.0
C23 C 0.07519 0.58353 0.03884 0.0
C24 C 0.05537 0.55925 0.01644 0.0
C25 C 0.03976 0.55932 0.09466 0.0
C26 C 0.02087 0.53524 0.07141 0.0
N27 N 0.97601 0.46391 0.96948 0.0
C28 C 0.96736 0.43712 0.90976 0.0
C29 C 0.9371 0.41581 0.92241 0.0
C30 C 0.92682 0.41843 0.95934 0.0
C31 C 0.94661 0.44219 0.98245 0.0
C32 C 0.98619 0.46097 0.93341 0.0
H33 H 0.93741 0.44264 0.01049 0.0
H34 H 0.0087 0.47695 0.92149 0.0
H35 H 0.06243 0.56059 0.98629 0.0
H36 H 1.00042 0.517 0.08575 0.0
C37 C 0.95162 0.4668 0.0766 0.0
C38 C 0.9593 0.5267 0.95962 0.0
C39 C 0.04541 0.47251 0.04343 0.0
C40 C 0.05252 0.53149 0.92508 0.0
H41 H 0.90981 0.5134 0.01321 0.0
H42 H 0.90533 0.48048 0.07798 0.0
H43 H 0.96108 0.42944 0.13023 0.0
H44 H 0.01285 0.4329 0.11166 0.0
H45 H 0.09859 0.49098 0.99284 0.0
H46 H 0.10245 0.52306 0.92793 0.0
H47 H 0.03985 0.56429 0.86743 0.0
H48 H 0.98872 0.56168 0.88686 0.0
H49 H 0.09636 0.60217 0.02502 0.0
H50 H 0.03302 0.55843 0.12544 0.0
H51 H 0.97617 0.43589 0.8812 0.0
H52 H 0.90358 0.4021 0.97044 0.0
C53 C 0.54482 0.01305 0.56935 0.0
C54 C 0.54663 0.00207 0.60685 0.0
C55 C 0.51893 0.97597 0.61504 0.0
C56 C 0.50185 0.97253 0.58224 0.0
N57 N 0.51714 0.99463 0.55326 0.0
Co58 Co 0.50065 0.99932 0.50133 0.0
N59 N 0.45892 0.96258 0.51508 0.0
C60 C 0.44988 0.94498 0.54926 0.0
C61 C 0.42013 0.92075 0.54937 0.0
C62 C 0.40968 0.92268 0.51284 0.0
C63 C 0.4338 0.94805 0.49251 0.0
N64 N 0.48421 0.0039 0.44929 0.0
C65 C 0.45663 0.98532 0.43307 0.0
C66 C 0.45491 0.99608 0.39538 0.0
C67 C 0.48259 0.0222 0.38717 0.0
C68 C 0.49956 0.02584 0.42015 0.0
N69 N 0.54231 0.03617 0.48767 0.0
C70 C 0.55123 0.054 0.45371 0.0
C71 C 0.58092 0.0783 0.45366 0.0
C72 C 0.59147 0.07621 0.49004 0.0
C73 C 0.56745 0.05066 0.51021 0.0
N74 N 0.51288 0.97401 0.47616 0.0
C75 C 0.52574 0.93578 0.43769 0.0
C76 C 0.53482 0.96396 0.42029 0.0
C77 C 0.52816 0.98253 0.43984 0.0
C78 C 0.511 0.92747 0.4752 0.0
C79 C 0.50504 0.94682 0.49385 0.0
N80 N 0.48842 0.02465 0.52653 0.0
C81 C 0.48893 0.07055 0.52671 0.0
C82 C 0.47562 0.06295 0.56512 0.0
C83 C 0.46796 0.03539 0.58332 0.0
C84 C 0.47444 0.01676 0.56366 0.0
C85 C 0.49498 0.05121 0.50811 0.0
H86 H 0.46829 0.99628 0.5794 0.0
H87 H 0.5055 0.05853 0.47912 0.0
H88 H 0.53511 0.00342 0.42461 0.0
H89 H 0.49368 0.93908 0.52232 0.0
C90 C 0.47069 0.9503 0.57921 0.0
C91 C 0.56913 0.042 0.55142 0.0
C92 C 0.43231 0.95642 0.45111 0.0
C93 C 0.53056 0.04837 0.42349 0.0
H94 H 0.56568 0.01234 0.62671 0.0
H95 H 0.51169 0.96179 0.64229 0.0
H96 H 0.4079 0.90317 0.57265 0.0
H97 H 0.38717 0.90677 0.5019 0.0
H98 H 0.43592 0.98567 0.37544 0.0
H99 H 0.48986 0.0363 0.35985 0.0
H100 H 0.59312 0.09595 0.43044 0.0
H101 H 0.614 0.09207 0.50094 0.0
H102 H 0.5462 0.97133 0.39113 0.0
H103 H 0.50401 0.90605 0.49019 0.0
H104 H 0.49549 0.09172 0.51136 0.0
H105 H 0.45701 0.02815 0.61272 0.0
C106 C 0.55406 0.53441 0.94345 0.0
C107 C 0.56301 0.55171 0.90775 0.0
C108 C 0.5392 0.55462 0.89726 0.0
C109 C 0.5171 0.53883 0.92684 0.0
N110 N 0.52557 0.52656 0.95612 0.0
Co111 Co 0.4991 0.49896 0.00225 0.0
N112 N 0.46345 0.50192 0.98576 0.0
C113 C 0.46316 0.5191 0.95487 0.0
C114 C 0.43653 0.51883 0.95298 0.0
C115 C 0.41893 0.50091 0.9851 0.0
C116 C 0.43584 0.491 0.00461 0.0
N117 N 0.47215 0.4699 0.04688 0.0
C118 C 0.44302 0.46053 0.05841 0.0
C119 C 0.43247 0.4396 0.09059 0.0
C120 C 0.45614 0.43625 0.10041 0.0
C121 C 0.47958 0.45505 0.07356 0.0
N122 N 0.53522 0.49741 0.02024 0.0
C123 C 0.53666 0.48307 0.05373 0.0
C124 C 0.56465 0.48623 0.0582 0.0
C125 C 0.58197 0.50331 0.02536 0.0
C126 C 0.56337 0.50939 0.00259 0.0
N127 N 0.51238 0.53331 0.03603 0.0
C128 C 0.52764 0.58084 0.08452 0.0
C129 C 0.52079 0.55321 0.10115 0.0
C130 C 0.51369 0.53005 0.07654 0.0
C131 C 0.52748 0.58463 0.04324 0.0
C132 C 0.51958 0.56067 0.01973 0.0
N133 N 0.48592 0.46467 0.96846 0.0
C134 C 0.4864 0.42082 0.95376 0.0
C135 C 0.47316 0.41937 0.91722 0.0
C136 C 0.46517 0.44009 0.90727 0.0
C137 C 0.47193 0.4626 0.93305 0.0
C138 C 0.4921 0.44318 0.979 0.0
H139 H 0.46619 0.47838 0.92328 0.0
H140 H 0.50204 0.44287 0.0066 0.0
H141 H 0.50903 0.50964 0.09111 0.0
H142 H 0.51899 0.56475 0.98853 0.0
C143 C 0.48828 0.53519 0.92817 0.0
C144 C 0.57264 0.52471 0.96316 0.0
C145 C 0.42551 0.4726 0.04199 0.0
C146 C 0.51001 0.46287 0.0765 0.0
H147 H 0.58427 0.56079 0.89061 0.0
H148 H 0.53792 0.56636 0.87083 0.0
H149 H 0.43085 0.53074 0.9313 0.0
H150 H 0.39649 0.49628 0.99352 0.0
H151 H 0.41039 0.42885 0.10631 0.0
H152 H 0.45674 0.42295 0.12545 0.0
H153 H 0.57112 0.47596 0.08139 0.0
H154 H 0.60523 0.50959 0.01814 0.0
H155 H 0.52095 0.54949 0.13308 0.0
H156 H 0.53247 0.60572 0.02922 0.0
H157 H 0.49247 0.40479 0.96275 0.0
H158 H 0.45476 0.43957 0.87914 0.0
C159 C 0.94557 0.43741 0.50914 0.0
C160 C 0.91954 0.41705 0.48931 0.0
C161 C 0.91836 0.43225 0.45612 0.0
C162 C 0.94376 0.46081 0.45741 0.0
N163 N 0.96134 0.46464 0.48913 0.0
Co164 Co 0.00049 0.50231 0.50237 0.0
N165 N 0.99633 0.5258 0.45696 0.0
C166 C 0.97264 0.51576 0.43198 0.0
C167 C 0.97662 0.53693 0.40324 0.0
C168 C 0.00472 0.56184 0.40987 0.0
C169 C 0.01629 0.55437 0.44243 0.0
N170 N 0.04033 0.53973 0.51459 0.0
C171 C 0.05651 0.56656 0.49364 0.0
C172 C 0.08421 0.58615 0.51101 0.0
C173 C 0.08597 0.57087 0.54363 0.0
C174 C 0.05936 0.54299 0.54427 0.0
N175 N 0.0039 0.4791 0.54889 0.0
C176 C 0.02651 0.48973 0.5756 0.0
C177 C 0.02129 0.46941 0.60629 0.0
C178 C 0.99336 0.44447 0.59933 0.0
C179 C 0.98323 0.45094 0.56436 0.0
N180 N 0.02386 0.49198 0.46706 0.0
C181 C 0.06057 0.48292 0.41537 0.0
C182 C 0.06609 0.4854 0.45596 0.0
C183 C 0.04773 0.49009 0.48106 0.0
C184 C 0.03584 0.48404 0.4012 0.0
C185 C 0.01765 0.48812 0.42744 0.0
N186 N 0.97723 0.51275 0.53757 0.0
C187 C 0.97192 0.53136 0.59915 0.0
C188 C 0.94276 0.52484 0.58918 0.0
C189 C 0.93136 0.5126 0.55265 0.0
C190 C 0.94882 0.50682 0.52752 0.0
C191 C 0.98864 0.52525 0.5731 0.0
H192 H 0.93865 0.49716 0.50034 0.0
H193 H 0.01063 0.53062 0.58255 0.0
H194 H 0.05372 0.4927 0.51148 0.0
H195 H 0.999 0.48852 0.41476 0.0
C196 C 0.94943 0.48531 0.43258 0.0
C197 C 0.95314 0.43042 0.54819 0.0
C198 C 0.04738 0.57398 0.45615 0.0
C199 C 0.05182 0.51927 0.57181 0.0
H200 H 0.90258 0.39391 0.49867 0.0
H201 H 0.90036 0.42385 0.43466 0.0
H202 H 0.96169 0.53407 0.37899 0.0
H203 H 0.01595 0.58267 0.39169 0.0
H204 H 0.10161 0.6089 0.50058 0.0
H205 H 0.10472 0.57889 0.56394 0.0
H206 H 0.03564 0.47268 0.63142 0.0
H207 H 0.98156 0.42419 0.61858 0.0
H208 H 0.08513 0.48468 0.46811 0.0
H209 H 0.03053 0.48175 0.36995 0.0
H210 H 0.98194 0.54128 0.62689 0.0
H211 H 0.90872 0.50682 0.54375 0.0
C212 C 0.45832 0.99003 0.07114 0.0
C213 C 0.45881 0.00266 0.10646 0.0
C214 C 0.48683 0.02888 0.10722 0.0
C215 C 0.50185 0.03072 0.07258 0.0
N216 N 0.48493 0.00748 0.04934 0.0
Co217 Co 0.49852 1.00003 0.99778 0.0
N218 N 0.54084 0.03697 0.00105 0.0
C219 C 0.55166 0.05628 0.03052 0.0
C220 C 0.5815 0.07985 0.02404 0.0
C221 C 0.59012 0.07569 0.98791 0.0
C222 C 0.56484 0.04979 0.97436 0.0
N223 N 0.51214 0.99254 0.94627 0.0
C224 C 0.53886 0.00984 0.92464 0.0
C225 C 0.53845 0.99709 0.88946 0.0
C226 C 0.51037 0.97093 0.88864 0.0
C227 C 0.49525 0.96924 0.9231 0.0
N228 N 0.45618 0.96313 0.99446 0.0
C229 C 0.44528 0.94393 0.96487 0.0
C230 C 0.41545 0.92035 0.9714 0.0
C231 C 0.40692 0.92439 0.00768 0.0
C232 C 0.43224 0.95024 0.02126 0.0
N233 N 0.48523 0.02421 0.968 0.0
C234 C 0.4692 0.05993 0.92316 0.0
C235 C 0.45973 0.03118 0.91228 0.0
C236 C 0.46808 0.01397 0.93474 0.0
C237 C 0.4863 0.07018 0.95746 0.0
C238 C 0.49374 0.05203 0.97939 0.0
N239 N 0.51171 0.9758 0.02761 0.0
C240 C 0.50819 0.92875 0.03987 0.0
C241 C 0.52502 0.93894 0.07421 0.0
C242 C 0.53618 0.96821 0.08412 0.0
C243 C 0.52912 0.98608 0.0607 0.0
C244 C 0.50222 0.94756 0.01687 0.0
H245 H 0.53742 0.00783 0.07053 0.0
H246 H 0.48939 0.93852 0.99097 0.0
H247 H 0.46063 0.99259 0.92426 0.0
H248 H 0.50682 0.06121 0.0051 0.0
C249 C 0.53263 0.05255 0.06277 0.0
C250 C 0.43305 0.96051 0.06081 0.0
C251 C 0.56422 0.03931 0.935 0.0
C252 C 0.46437 0.94751 0.93275 0.0
H253 H 0.4412 0.99349 0.12992 0.0
H254 H 0.49567 0.04418 0.13095 0.0
H255 H 0.59507 0.0983 0.04281 0.0
H256 H 0.61224 0.09046 0.97272 0.0
H257 H 0.55618 0.00615 0.86617 0.0
H258 H 0.50159 0.95558 0.86497 0.0
H259 H 0.40187 0.90189 0.95264 0.0
H260 H 0.38487 0.90955 0.02299 0.0
H261 H 0.44593 0.02185 0.88646 0.0
H262 H 0.49463 0.09243 0.96702 0.0
H263 H 0.49954 0.90627 0.0309 0.0
H264 H 0.54936 0.9769 0.11059 0.0
C265 C 0.52278 0.56947 0.49639 0.0
C266 C 0.51736 0.5888 0.5156 0.0
C267 C 0.49798 0.57259 0.54738 0.0
C268 C 0.49281 0.54446 0.54576 0.0
N269 N 0.50835 0.54191 0.51552 0.0
Co270 Co 0.50598 0.50467 0.50051 0.0
N271 N 0.47609 0.48024 0.54592 0.0
C272 C 0.46535 0.49021 0.57372 0.0
C273 C 0.4474 0.46897 0.60327 0.0
C274 C 0.44721 0.44407 0.5944 0.0
C275 C 0.46494 0.45155 0.55957 0.0
N276 N 0.50251 0.46718 0.48434 0.0
C277 C 0.48741 0.43936 0.50267 0.0
C278 C 0.49049 0.41942 0.48122 0.0
C279 C 0.50898 0.43549 0.44868 0.0
C280 C 0.51588 0.46413 0.45199 0.0
N281 N 0.53702 0.52935 0.45633 0.0
C282 C 0.54963 0.51982 0.43057 0.0
C283 C 0.56958 0.54166 0.40281 0.0
C284 C 0.56937 0.56648 0.41091 0.0
C285 C 0.54925 0.55835 0.44341 0.0
N286 N 0.54009 0.51297 0.53597 0.0
C287 C 0.58652 0.52177 0.58814 0.0
C288 C 0.58386 0.50956 0.55148 0.0
C289 C 0.56082 0.50559 0.52593 0.0
C290 C 0.56591 0.52997 0.59801 0.0
C291 C 0.54298 0.52529 0.5718 0.0
N292 N 0.47185 0.49637 0.46501 0.0
C293 C 0.45146 0.49014 0.39904 0.0
C294 C 0.4251 0.48803 0.41383 0.0
C295 C 0.42216 0.48959 0.45466 0.0
C296 C 0.44574 0.49399 0.4795 0.0
C297 C 0.47419 0.4939 0.42499 0.0
H298 H 0.44246 0.4958 0.51019 0.0
H299 H 0.49356 0.49502 0.41182 0.0
H300 H 0.56011 0.49628 0.49835 0.0
H301 H 0.52764 0.53147 0.58149 0.0
C302 C 0.47342 0.51997 0.57199 0.0
C303 C 0.54005 0.57776 0.4586 0.0
C304 C 0.47228 0.4315 0.54191 0.0
C305 C 0.53829 0.4893 0.42891 0.0
H306 H 0.5259 0.612 0.50683 0.0
H307 H 0.48831 0.58022 0.56862 0.0
H308 H 0.43655 0.47156 0.6289 0.0
H309 H 0.43598 0.42315 0.61232 0.0
H310 H 0.48138 0.396 0.48925 0.0
H311 H 0.5177 0.42761 0.42646 0.0
H312 H 0.58134 0.5393 0.37805 0.0
H313 H 0.5816 0.58765 0.39354 0.0
H314 H 0.59964 0.50325 0.54237 0.0
H315 H 0.56697 0.53932 0.62628 0.0
H316 H 0.45444 0.48869 0.36755 0.0
H317 H 0.40208 0.48821 0.46727 0.0
H318 H 0.15938 0.41741 0.16392 0.0
H319 H 0.11837 0.41759 0.12756 0.0
H320 H 0.16084 0.5117 0.14785 0.0
H321 H 0.20073 0.51083 0.1853 0.0
H322 H 0.22717 0.45722 0.14888 0.0
H323 H 0.1514 0.42504 0.25969 0.0
H324 H 0.11359 0.42755 0.3007 0.0
H325 H 0.1799 0.52169 0.31426 0.0
H326 H 0.21782 0.51892 0.27394 0.0
H327 H 0.30392 0.51982 0.27445 0.0
H328 H 0.34554 0.52386 0.31455 0.0
H329 H 0.31056 0.43046 0.29977 0.0
H330 H 0.26931 0.4267 0.25897 0.0
H331 H 0.23811 0.47719 0.29238 0.0
H332 H 0.31398 0.51067 0.18736 0.0
H333 H 0.35473 0.51146 0.14961 0.0
H334 H 0.29133 0.41868 0.12415 0.0
H335 H 0.25034 0.41849 0.16116 0.0
C336 C 0.18286 0.46403 0.17746 0.0
C337 C 0.15969 0.43799 0.16047 0.0
C338 C 0.13638 0.43822 0.13956 0.0
C339 C 0.13611 0.46463 0.13487 0.0
C340 C 0.15977 0.49076 0.15157 0.0
C341 C 0.18278 0.4904 0.17276 0.0
C342 C 0.20729 0.46403 0.20035 0.0
C343 C 0.22922 0.46092 0.18043 0.0
C344 C 0.21053 0.46985 0.2411 0.0
C345 C 0.1873 0.4718 0.26393 0.0
C346 C 0.15768 0.44621 0.27139 0.0
C347 C 0.13621 0.44764 0.29483 0.0
C348 C 0.14394 0.47481 0.31054 0.0
C349 C 0.17339 0.50055 0.30225 0.0
C350 C 0.19503 0.49898 0.27944 0.0
C351 C 0.2837 0.473 0.2638 0.0
C352 C 0.3054 0.50032 0.27964 0.0
C353 C 0.32915 0.50261 0.30233 0.0
C354 C 0.33112 0.47744 0.31019 0.0
C355 C 0.30938 0.45012 0.29422 0.0
C356 C 0.28598 0.44798 0.27089 0.0
C357 C 0.25797 0.47034 0.24102 0.0
C358 C 0.23585 0.47303 0.26096 0.0
C359 C 0.25479 0.46442 0.20027 0.0
C360 C 0.27926 0.46446 0.17729 0.0
C361 C 0.30893 0.49047 0.17376 0.0
C362 C 0.33225 0.49081 0.15232 0.0
C363 C 0.32646 0.46504 0.13403 0.0
C364 C 0.29656 0.43901 0.13745 0.0
C365 C 0.27313 0.43879 0.15872 0.0
H366 H 0.67734 0.1771 0.74847 0.0
H367 H 0.63395 0.13632 0.78816 0.0
H368 H 0.69655 0.12119 0.85446 0.0
H369 H 0.73962 0.16095 0.81315 0.0
H370 H 0.76056 0.2188 0.8075 0.0
H371 H 0.70683 0.20654 0.6547 0.0
H372 H 0.66599 0.16806 0.61587 0.0
H373 H 0.67614 0.10062 0.67782 0.0
H374 H 0.71793 0.13952 0.71552 0.0
H375 H 0.82456 0.25071 0.65391 0.0
H376 H 0.86388 0.29425 0.61336 0.0
H377 H 0.8466 0.35154 0.68021 0.0
H378 H 0.8057 0.30752 0.71861 0.0
H379 H 0.76549 0.22702 0.66001 0.0
H380 H 0.84973 0.27655 0.75059 0.0
H381 H 0.88676 0.31843 0.78876 0.0
H382 H 0.81162 0.31133 0.85654 0.0
H383 H 0.77502 0.27154 0.81595 0.0
C384 C 0.71172 0.17185 0.77748 0.0
C385 C 0.68164 0.16459 0.771 0.0
C386 C 0.65688 0.14148 0.79409 0.0
C387 C 0.66171 0.12546 0.82461 0.0
C388 C 0.69187 0.13269 0.83083 0.0
C389 C 0.71659 0.15564 0.8075 0.0
C390 C 0.73826 0.1973 0.75432 0.0
C391 C 0.76182 0.22061 0.77522 0.0
C392 C 0.73968 0.19956 0.71223 0.0
C393 C 0.71532 0.17592 0.68825 0.0
C394 C 0.70046 0.1835 0.65969 0.0
C395 C 0.67685 0.1614 0.63781 0.0
C396 C 0.66757 0.13118 0.64396 0.0
C397 C 0.68284 0.12369 0.67214 0.0
C398 C 0.70656 0.14586 0.69398 0.0
C399 C 0.81241 0.27583 0.68969 0.0
C400 C 0.82915 0.27265 0.65968 0.0
C401 C 0.85192 0.29769 0.63678 0.0
C402 C 0.85871 0.32658 0.64359 0.0
C403 C 0.84184 0.32967 0.67371 0.0
C404 C 0.81869 0.30453 0.69616 0.0
C405 C 0.78779 0.24889 0.71316 0.0
C406 C 0.76454 0.22522 0.6923 0.0
C407 C 0.78644 0.24661 0.75537 0.0
C408 C 0.80947 0.27113 0.77976 0.0
C409 C 0.84126 0.28437 0.77323 0.0
C410 C 0.86247 0.30812 0.79559 0.0
C411 C 0.85237 0.31866 0.82574 0.0
C412 C 0.82048 0.30459 0.83298 0.0
C413 C 0.79938 0.28137 0.81009 0.0
H414 H 0.59506 0.83411 0.33557 0.0
H415 H 0.58865 0.86887 0.37333 0.0
H416 H 0.49901 0.8337 0.32403 0.0
H417 H 0.50542 0.79891 0.28681 0.0
H418 H 0.55767 0.77075 0.33842 0.0
H419 H 0.58789 0.85464 0.2445 0.0
H420 H 0.58082 0.89063 0.20601 0.0
H421 H 0.50532 0.81767 0.1464 0.0
H422 H 0.51092 0.78189 0.18715 0.0
H423 H 0.5071 0.70934 0.20066 0.0
H424 H 0.50182 0.6683 0.16378 0.0
H425 H 0.59194 0.6913 0.19963 0.0
H426 H 0.59693 0.73218 0.23743 0.0
H427 H 0.55229 0.77067 0.19135 0.0
H428 H 0.51365 0.6879 0.28486 0.0
H429 H 0.51147 0.64712 0.32408 0.0
H430 H 0.59162 0.7115 0.38675 0.0
H431 H 0.59535 0.75212 0.34438 0.0
C432 C 0.55083 0.81415 0.30817 0.0
C433 C 0.57404 0.83392 0.333 0.0
C434 C 0.57044 0.85385 0.35431 0.0
C435 C 0.54334 0.85402 0.35158 0.0
C436 C 0.52002 0.83393 0.327 0.0
C437 C 0.52374 0.8142 0.30552 0.0
C438 C 0.55465 0.79319 0.28522 0.0
C439 C 0.55721 0.7711 0.30619 0.0
C440 C 0.55299 0.79316 0.24326 0.0
C441 C 0.54966 0.81547 0.21922 0.0
C442 C 0.56947 0.84639 0.22364 0.0
C443 C 0.56567 0.86701 0.20114 0.0
C444 C 0.54236 0.85713 0.17314 0.0
C445 C 0.52304 0.82616 0.16826 0.0
C446 C 0.5265 0.80561 0.19121 0.0
C447 C 0.55236 0.72369 0.2218 0.0
C448 C 0.52574 0.70558 0.20056 0.0
C449 C 0.52266 0.68209 0.17975 0.0
C450 C 0.54643 0.67669 0.17909 0.0
C451 C 0.57335 0.69514 0.19974 0.0
C452 C 0.57619 0.71835 0.22129 0.0
C453 C 0.55469 0.74796 0.24455 0.0
C454 C 0.55342 0.77072 0.22354 0.0
C455 C 0.55655 0.74802 0.28649 0.0
C456 C 0.55521 0.72313 0.31075 0.0
C457 C 0.53135 0.69325 0.30615 0.0
C458 C 0.52974 0.66988 0.32938 0.0
C459 C 0.55131 0.67583 0.35889 0.0
C460 C 0.57494 0.70587 0.36388 0.0
C461 C 0.57693 0.72923 0.33993 0.0
H462 H 0.69201 0.49798 0.7708 0.0
H463 H 0.65108 0.49294 0.72855 0.0
H464 H 0.71481 0.58057 0.6717 0.0
H465 H 0.75563 0.58558 0.71428 0.0
H466 H 0.77753 0.54797 0.71654 0.0
H467 H 0.7126 0.49849 0.8681 0.0
H468 H 0.67013 0.49479 0.90594 0.0
H469 H 0.68831 0.57655 0.84422 0.0
H470 H 0.73136 0.58061 0.80742 0.0
H471 H 0.86075 0.58289 0.80691 0.0
H472 H 0.90015 0.57938 0.84227 0.0
H473 H 0.82905 0.49684 0.90411 0.0
H474 H 0.78988 0.49994 0.86763 0.0
H475 H 0.77284 0.53898 0.86413 0.0
H476 H 0.83941 0.58649 0.71182 0.0
H477 H 0.87627 0.58364 0.66967 0.0
H478 H 0.84911 0.49852 0.72991 0.0
H479 H 0.81252 0.50162 0.77202 0.0
C480 C 0.72676 0.54225 0.74584 0.0
C481 C 0.69704 0.51627 0.74962 0.0
C482 C 0.67377 0.51331 0.72527 0.0
C483 C 0.67981 0.53634 0.6968 0.0
C484 C 0.70945 0.56259 0.69363 0.0
C485 C 0.73278 0.56543 0.71776 0.0
C486 C 0.752 0.54434 0.76938 0.0
C487 C 0.7769 0.5467 0.74883 0.0
C488 C 0.75048 0.54156 0.81145 0.0
C489 C 0.72501 0.53969 0.8347 0.0
C490 C 0.70755 0.51572 0.86293 0.0
C491 C 0.68311 0.5135 0.88427 0.0
C492 C 0.67574 0.5353 0.87796 0.0
C493 C 0.69354 0.55952 0.85004 0.0
C494 C 0.71797 0.56171 0.82869 0.0
C495 C 0.82237 0.5415 0.83429 0.0
C496 C 0.85368 0.56398 0.82797 0.0
C497 C 0.87616 0.56208 0.84847 0.0
C498 C 0.86776 0.53774 0.87586 0.0
C499 C 0.83634 0.51562 0.88274 0.0
C500 C 0.81389 0.51752 0.86222 0.0
C501 C 0.79846 0.54259 0.81124 0.0
C502 C 0.77377 0.54075 0.83185 0.0
C503 C 0.79986 0.54536 0.76913 0.0
C504 C 0.82346 0.54443 0.74531 0.0
C505 C 0.84159 0.56733 0.71608 0.0
C506 C 0.86253 0.56561 0.69193 0.0
C507 C 0.86561 0.54084 0.69643 0.0
C508 C 0.84767 0.51812 0.7261 0.0
C509 C 0.82672 0.51985 0.75019 0.0
H510 H 0.26013 0.83828 0.18838 0.0
H511 H 0.30211 0.87799 0.1457 0.0
H512 H 0.36661 0.86354 0.20816 0.0
H513 H 0.32427 0.82275 0.24915 0.0
H514 H 0.23932 0.78056 0.19332 0.0
H515 H 0.28425 0.85931 0.28611 0.0
H516 H 0.32581 0.898 0.32426 0.0
H517 H 0.33776 0.83073 0.38308 0.0
H518 H 0.29715 0.79249 0.34376 0.0
H519 H 0.22002 0.71332 0.34181 0.0
H520 H 0.17884 0.67022 0.38167 0.0
H521 H 0.1119 0.68431 0.32602 0.0
H522 H 0.15328 0.72779 0.2868 0.0
H523 H 0.23832 0.77151 0.34076 0.0
H524 H 0.20592 0.69748 0.24375 0.0
H525 H 0.1696 0.65636 0.20344 0.0
H526 H 0.13674 0.71077 0.15531 0.0
H527 H 0.17342 0.75204 0.19546 0.0
C528 C 0.28904 0.8277 0.22223 0.0
C529 C 0.28334 0.84374 0.19292 0.0
C530 C 0.30745 0.86666 0.16879 0.0
C531 C 0.33781 0.87405 0.1735 0.0
C532 C 0.34349 0.85824 0.20337 0.0
C533 C 0.31933 0.83514 0.22723 0.0
C534 C 0.26309 0.80212 0.24601 0.0
C535 C 0.23885 0.77895 0.2256 0.0
C536 C 0.263 0.79939 0.28812 0.0
C537 C 0.28776 0.82302 0.31172 0.0
C538 C 0.29603 0.85297 0.30696 0.0
C539 C 0.3196 0.87502 0.3291 0.0
C540 C 0.33524 0.86751 0.35666 0.0
C541 C 0.3266 0.83742 0.36167 0.0
C542 C 0.30314 0.81545 0.33948 0.0
C543 C 0.18968 0.72363 0.31121 0.0
C544 C 0.19647 0.7071 0.33821 0.0
C545 C 0.17291 0.68237 0.36073 0.0
C546 C 0.14214 0.67386 0.35689 0.0
C547 C 0.13541 0.69048 0.32983 0.0
C548 C 0.15898 0.71514 0.30717 0.0
C549 C 0.21483 0.7502 0.28799 0.0
C550 C 0.23876 0.77347 0.30849 0.0
C551 C 0.21504 0.75284 0.24602 0.0
C552 C 0.19222 0.72772 0.22267 0.0
C553 C 0.19077 0.70049 0.22467 0.0
C554 C 0.17018 0.67711 0.20152 0.0
C555 C 0.15042 0.68044 0.17627 0.0
C556 C 0.15158 0.70758 0.17474 0.0
C557 C 0.17256 0.73115 0.19746 0.0
H558 H 0.4876 0.28418 0.80874 0.0
H559 H 0.49254 0.32377 0.84738 0.0
H560 H 0.4204 0.32277 0.78077 0.0
H561 H 0.41391 0.28116 0.74412 0.0
H562 H 0.44483 0.22988 0.80434 0.0
H563 H 0.49374 0.3155 0.71126 0.0
H564 H 0.49857 0.35767 0.67169 0.0
H565 H 0.41844 0.29603 0.60682 0.0
H566 H 0.41258 0.25411 0.64853 0.0
H567 H 0.41109 0.17233 0.655 0.0
H568 H 0.4168 0.13628 0.61969 0.0
H569 H 0.50049 0.16352 0.68158 0.0
H570 H 0.49443 0.19918 0.71695 0.0
H571 H 0.44985 0.23391 0.65694 0.0
H572 H 0.41061 0.14709 0.74939 0.0
H573 H 0.4136 0.10922 0.79047 0.0
H574 H 0.48686 0.17928 0.85579 0.0
H575 H 0.48491 0.21708 0.81381 0.0
C576 C 0.45053 0.27971 0.77323 0.0
C577 C 0.47258 0.29222 0.80263 0.0
C578 C 0.47571 0.3153 0.82438 0.0
C579 C 0.45723 0.32697 0.8169 0.0
C580 C 0.43494 0.3143 0.78757 0.0
C581 C 0.43143 0.29071 0.76621 0.0
C582 C 0.44792 0.25515 0.7505 0.0
C583 C 0.44621 0.23093 0.77207 0.0
C584 C 0.44884 0.25604 0.70836 0.0
C585 C 0.45239 0.28168 0.68347 0.0
C586 C 0.47692 0.31111 0.68894 0.0
C587 C 0.47991 0.33521 0.66582 0.0
C588 C 0.45885 0.33035 0.636 0.0
C589 C 0.43472 0.30073 0.62999 0.0
C590 C 0.4315 0.27667 0.65355 0.0
C591 C 0.45208 0.18811 0.68899 0.0
C592 C 0.43068 0.17053 0.66084 0.0
C593 C 0.43404 0.15002 0.64061 0.0
C594 C 0.45901 0.14686 0.64798 0.0
C595 C 0.48067 0.16492 0.67575 0.0
C596 C 0.4773 0.1854 0.69592 0.0
C597 C 0.44828 0.20952 0.71095 0.0
C598 C 0.4483 0.23283 0.6892 0.0
C599 C 0.44698 0.20844 0.75304 0.0
C600 C 0.44775 0.18501 0.77818 0.0
C601 C 0.42757 0.15434 0.77221 0.0
C602 C 0.42915 0.13273 0.79575 0.0
C603 C 0.45035 0.14146 0.82627 0.0
C604 C 0.47008 0.17203 0.8327 0.0
C605 C 0.46894 0.19359 0.80874 0.0
C606 C 0.07765 0.45075 0.05614 0.0
C607 C 0.06762 0.46925 0.06753 0.0
H608 H 0.10775 0.43534 0.06774 0.0
C609 C 0.07887 0.48498 0.10208 0.0
H610 H 0.0689 0.43816 0.02977 0.0
C611 C 0.1005 0.4829 0.12439 0.0
C612 C 0.11159 0.46526 0.11237 0.0
H613 H 0.0711 0.49911 0.11158 0.0
H614 H 0.10854 0.49519 0.15107 0.0
C615 C 0.09963 0.44894 0.07815 0.0
C616 C 0.59206 0.08723 0.59113 0.0
C617 C 0.59397 0.06411 0.5762 0.0
H618 H 0.61353 0.12623 0.62494 0.0
C619 C 0.61977 0.0626 0.58396 0.0
H620 H 0.5722 0.08862 0.58537 0.0
C621 C 0.6436 0.0842 0.60627 0.0
C622 C 0.64197 0.10767 0.6211 0.0
H623 H 0.6216 0.04492 0.57238 0.0
H624 H 0.66356 0.08287 0.6112 0.0
C625 C 0.61578 0.10878 0.61347 0.0
C626 C 0.55981 0.63421 0.10336 0.0
C627 C 0.53357 0.60513 0.11015 0.0
H628 H 0.58478 0.67969 0.12071 0.0
C629 C 0.51234 0.5995 0.14082 0.0
H630 H 0.57653 0.63901 0.07993 0.0
C631 C 0.5168 0.62273 0.1636 0.0
C632 C 0.54288 0.65185 0.15661 0.0
H633 H 0.49183 0.5773 0.14641 0.0
H634 H 0.49978 0.61801 0.18655 0.0
C635 C 0.56461 0.65734 0.12673 0.0
C636 C 0.90664 0.54163 0.60243 0.0
C637 C 0.92407 0.5302 0.61692 0.0
H638 H 0.87443 0.55375 0.61603 0.0
C639 C 0.9229 0.52321 0.658 0.0
H640 H 0.90729 0.54755 0.57101 0.0
C641 C 0.90433 0.52708 0.68389 0.0
C642 C 0.88653 0.53808 0.6693 0.0
H643 H 0.93583 0.5141 0.67008 0.0
H644 H 0.90386 0.52141 0.71536 0.0
C645 C 0.88809 0.54553 0.62831 0.0
C646 C 0.40911 0.91381 0.1052 0.0
C647 C 0.40964 0.93948 0.09149 0.0
H648 H 0.38578 0.87279 0.14131 0.0
C649 C 0.38707 0.94415 0.10543 0.0
H650 H 0.42627 0.90977 0.09441 0.0
C651 C 0.36412 0.92328 0.13276 0.0
C652 C 0.36316 0.89719 0.14621 0.0
H653 H 0.38706 0.96378 0.09486 0.0
H654 H 0.34708 0.92754 0.14325 0.0
C655 C 0.38607 0.89282 0.13223 0.0
C656 C 0.43917 0.38032 0.57628 0.0
C657 C 0.46851 0.40537 0.56577 0.0
H658 H 0.41303 0.33737 0.60779 0.0
C659 C 0.49462 0.40549 0.57741 0.0
H660 H 0.41876 0.37973 0.56708 0.0
C661 C 0.4915 0.38105 0.59979 0.0
C662 C 0.46213 0.35608 0.61129 0.0
H663 H 0.51747 0.42456 0.56915 0.0
H664 H 0.51214 0.38168 0.60775 0.0
C665 C 0.43599 0.356 0.59916 0.0
C666 C 0.50701 0.88438 0.41563 0.0
C667 C 0.5307 0.91482 0.41639 0.0
H668 H 0.49249 0.84136 0.39471 0.0
C669 C 0.5588 0.92507 0.39611 0.0
H670 H 0.48498 0.87587 0.43062 0.0
C671 C 0.56309 0.90528 0.37549 0.0
C672 C 0.53924 0.87492 0.37437 0.0
H673 H 0.57754 0.94836 0.39638 0.0
H674 H 0.58488 0.91385 0.35982 0.0
C675 C 0.51119 0.86469 0.39475 0.0
C676 C 0.5967 0.50216 0.92687 0.0
C677 C 0.59922 0.52761 0.94158 0.0
H678 H 0.6188 0.48469 0.89468 0.0
C679 C 0.62695 0.55556 0.93587 0.0
H680 H 0.57538 0.4804 0.93106 0.0
C681 C 0.65184 0.5581 0.91525 0.0
C682 C 0.64941 0.53266 0.90018 0.0
H683 H 0.62928 0.57537 0.94736 0.0
H684 H 0.67309 0.57991 0.91149 0.0
C685 C 0.62156 0.50464 0.90631 0.0
C686 C 0.09385 0.59718 0.41095 0.0
C687 C 0.07098 0.59936 0.42979 0.0
H688 H 0.13416 0.619 0.37261 0.0
C689 C 0.07122 0.62585 0.42438 0.0
H690 H 0.09394 0.57682 0.41492 0.0
C691 C 0.09412 0.64996 0.40025 0.0
C692 C 0.11726 0.64798 0.38148 0.0
H693 H 0.05384 0.62792 0.43908 0.0
H694 H 0.09409 0.67037 0.39695 0.0
C695 C 0.11683 0.62129 0.387 0.0
C696 C 0.46204 0.0788 0.85657 0.0
C697 C 0.46216 0.07941 0.89836 0.0
H698 H 0.45789 0.09784 0.80107 0.0
C699 C 0.45655 0.09955 0.91611 0.0
H700 H 0.46677 0.064 0.84175 0.0
C701 C 0.45209 0.11929 0.89266 0.0
C702 C 0.45261 0.11897 0.85103 0.0
H703 H 0.45576 0.10022 0.94815 0.0
H704 H 0.44838 0.13494 0.90705 0.0
C705 C 0.45708 0.09824 0.83318 0.0
C706 C 0.37007 0.46204 0.39452 0.0
C707 C 0.4011 0.48479 0.38672 0.0
H708 H 0.32357 0.44165 0.37582 0.0
C709 C 0.40908 0.50475 0.35316 0.0
H710 H 0.36342 0.44633 0.42015 0.0
C711 C 0.38633 0.50233 0.32819 0.0
C712 C 0.35531 0.47956 0.33596 0.0
H713 H 0.43285 0.52258 0.3467 0.0
H714 H 0.39295 0.51818 0.30272 0.0
C715 C 0.34739 0.45927 0.36911 0.0
C716 C 0.92394 0.37208 0.88228 0.0
C717 C 0.91602 0.39143 0.89691 0.0
H718 H 0.90983 0.33336 0.84963 0.0
C719 C 0.88763 0.38734 0.88729 0.0
H720 H 0.94571 0.37477 0.8895 0.0
C721 C 0.8674 0.36423 0.86358 0.0
C722 C 0.87475 0.34414 0.84962 0.0
H723 H 0.88123 0.40229 0.89778 0.0
H724 H 0.84606 0.36231 0.85604 0.0
C725 C 0.90341 0.3485 0.8592 0.0
C726 C 0.93982 0.55796 0.93181 0.0
C727 C 0.93645 0.52995 0.93726 0.0
H728 H 0.92051 0.58239 0.90838 0.0
C729 C 0.91072 0.5046 0.92246 0.0
H730 H 0.95948 0.57769 0.9434 0.0
C731 C 0.88852 0.50718 0.90238 0.0
C732 C 0.89163 0.53518 0.89688 0.0
H733 H 0.90783 0.48281 0.92651 0.0
H734 H 0.86906 0.48726 0.89085 0.0
C735 C 0.91761 0.56058 0.9117 0.0
C736 C 0.38149 0.93511 0.41885 0.0
C737 C 0.40766 0.93417 0.42625 0.0
H738 H 0.3378 0.91453 0.39134 0.0
C739 C 0.4103 0.91171 0.41048 0.0
H740 H 0.37912 0.95231 0.43103 0.0
C741 C 0.38694 0.89027 0.38758 0.0
C742 C 0.36042 0.89085 0.38021 0.0
H743 H 0.43046 0.91078 0.41592 0.0
H744 H 0.38978 0.87337 0.37541 0.0
C745 C 0.35804 0.91363 0.39599 0.0
C746 C 0.43975 0.37588 0.87577 0.0
C747 C 0.46898 0.397 0.88926 0.0
H748 H 0.41283 0.33661 0.84319 0.0
C749 C 0.49444 0.39617 0.87702 0.0
H750 H 0.41981 0.37615 0.88499 0.0
C751 C 0.4907 0.37417 0.85238 0.0
C752 C 0.46127 0.35199 0.84013 0.0
H753 H 0.51728 0.41257 0.88666 0.0
H754 H 0.51097 0.37448 0.8432 0.0
C755 C 0.43586 0.35339 0.85166 0.0
C756 C 0.08795 0.45813 0.39563 0.0
C757 C 0.08105 0.4801 0.3878 0.0
H758 H 0.11304 0.43899 0.37671 0.0
C759 C 0.09439 0.49989 0.35392 0.0
H760 H 0.07785 0.44258 0.42153 0.0
C761 C 0.11477 0.49812 0.32869 0.0
C762 C 0.12168 0.47616 0.33652 0.0
H763 H 0.08955 0.51715 0.34745 0.0
H764 H 0.12511 0.51386 0.303 0.0
C765 C 0.10787 0.45599 0.36996 0.0
C766 C 0.61068 0.0552 0.89164 0.0
C767 C 0.58803 0.06009 0.90455 0.0
H768 H 0.65137 0.07165 0.85532 0.0
C769 C 0.58901 0.08589 0.89029 0.0
H770 H 0.61034 0.03547 0.90265 0.0
C771 C 0.61262 0.10682 0.86385 0.0
C772 C 0.63568 0.10228 0.85103 0.0
H773 H 0.57181 0.09011 0.9003 0.0
H774 H 0.61326 0.12698 0.85438 0.0
C775 C 0.63423 0.07604 0.86493 0.0
C776 C 0.57246 0.62866 0.42299 0.0
C777 C 0.54339 0.60302 0.43297 0.0
H778 H 0.59795 0.67126 0.39051 0.0
C779 C 0.517 0.60155 0.41936 0.0
H780 H 0.59308 0.63039 0.4338 0.0
C781 C 0.51958 0.62526 0.39582 0.0
C782 C 0.5487 0.65082 0.38474 0.0
H783 H 0.49432 0.58204 0.42718 0.0
H784 H 0.49863 0.62359 0.38674 0.0
C785 C 0.57513 0.65219 0.39867 0.0
C786 C 0.47641 0.08767 0.6272 0.0
C787 C 0.47055 0.08391 0.58644 0.0
H788 H 0.47698 0.11004 0.67859 0.0
C789 C 0.46041 0.10073 0.56618 0.0
H790 H 0.4846 0.07536 0.64365 0.0
C791 C 0.45644 0.12097 0.58614 0.0
C792 C 0.46255 0.12489 0.62683 0.0
H793 H 0.45539 0.09818 0.53488 0.0
H794 H 0.44906 0.13391 0.56951 0.0
C795 C 0.47243 0.10787 0.64714 0.0
C796 C 0.4058 0.48376 0.1019 0.0
C797 C 0.39974 0.4695 0.06607 0.0
H798 H 0.38738 0.49293 0.15197 0.0
C799 C 0.36939 0.45259 0.05339 0.0
H800 H 0.42909 0.49668 0.11232 0.0
C801 C 0.34549 0.45082 0.07561 0.0
C802 C 0.35152 0.46565 0.11119 0.0
H803 H 0.36429 0.44119 0.02596 0.0
H804 H 0.32246 0.43842 0.06438 0.0
C805 C 0.38194 0.48178 0.12432 0.0
C806 C 0.93247 0.37973 0.58261 0.0
C807 C 0.92912 0.40377 0.57268 0.0
H808 H 0.91356 0.33706 0.61403 0.0
C809 C 0.90252 0.40235 0.58557 0.0
H810 H 0.95274 0.38033 0.57254 0.0
C811 C 0.87964 0.37731 0.60839 0.0
C812 C 0.88306 0.35327 0.61913 0.0
H813 H 0.89944 0.42064 0.57783 0.0
H814 H 0.85912 0.37669 0.61715 0.0
C815 C 0.90984 0.35487 0.60598 0.0
C816 C 0.50429 0.89072 0.11422 0.0
C817 C 0.52971 0.91863 0.1003 0.0
H818 H 0.48817 0.85005 0.14939 0.0
C819 C 0.55934 0.92685 0.11136 0.0
H820 H 0.48117 0.88416 0.10655 0.0
C821 C 0.56354 0.90702 0.13517 0.0
C822 C 0.5381 0.87882 0.1489 0.0
H823 H 0.57927 0.9483 0.10081 0.0
H824 H 0.58677 0.91358 0.14204 0.0
C825 C 0.50839 0.87116 0.13857 0.0
C826 C 0.6154 0.50227 0.62375 0.0
C827 C 0.61034 0.52555 0.61613 0.0
H828 H 0.64126 0.48745 0.65536 0.0
C829 C 0.62805 0.55232 0.63558 0.0
H830 H 0.60188 0.48129 0.60947 0.0
C831 C 0.65059 0.55585 0.66183 0.0
C832 C 0.6556 0.53254 0.6695 0.0
H833 H 0.62474 0.57068 0.63008 0.0
H834 H 0.66396 0.57673 0.67638 0.0
C835 C 0.63769 0.50568 0.65031 0.0
C836 C 0.12008 0.61887 0.10386 0.0
C837 C 0.08872 0.60874 0.10325 0.0
H838 H 0.16409 0.64934 0.12774 0.0
C839 C 0.07774 0.62245 0.1267 0.0
H840 H 0.12908 0.60854 0.08629 0.0
C841 C 0.09783 0.64598 0.15011 0.0
C842 C 0.12912 0.65585 0.15104 0.0
H843 H 0.05369 0.61513 0.12663 0.0
H844 H 0.08883 0.65618 0.16794 0.0
C845 C 0.14003 0.64202 0.12775 0.0
loop_
_geom_bond_atom_site_label_1
_geom_bond_atom_site_label_2
_geom_bond_distance
_geom_bond_site_symmetry_2
_ccdc_geom_bond_type
C0 C1 1.443 1_556 S
C0 N4 1.376 1_556 S
C0 C38 1.389 . S
C1 C0 1.443 1_554 S
C1 C2 1.340 . S
C1 H41 0.951 1_554 S
C2 C1 1.340 . S
C2 C3 1.439 . S
C2 H42 0.950 . S
C3 C2 1.439 . S
C3 N4 1.374 . S
C3 C37 1.395 . S
N4 C0 1.376 1_554 S
N4 C3 1.374 . S
N4 Co5 2.011 1_655 S
Co5 N4 2.011 1_455 S
Co5 N6 2.006 1_455 S
Co5 N11 2.005 1_554 S
Co5 N16 1.984 1_554 S
Co5 N21 2.291 . S
Co5 N27 2.274 1_454 S
N6 Co5 2.006 1_655 S
N6 C7 1.376 . S
N6 C10 1.383 1_655 S
C7 N6 1.376 . S
C7 C8 1.446 . S
C7 C37 1.391 . S
C8 C7 1.446 . S
C8 C9 1.339 1_655 S
C8 H43 0.949 . S
C9 C8 1.339 1_455 S
C9 C10 1.439 . S
C9 H44 0.950 . S
C10 N6 1.383 1_455 S
C10 C9 1.439 . S
C10 C39 1.392 . S
N11 Co5 2.005 1_556 S
N11 C12 1.376 1_556 S
N11 C15 1.374 . S
C12 N11 1.376 1_554 S
C12 C13 1.443 1_554 S
C12 C39 1.389 . S
C13 C12 1.443 1_556 S
C13 C14 1.340 . S
C13 H45 0.951 1_556 S
C14 C13 1.340 . S
C14 C15 1.439 . S
C14 H46 0.950 . S
C15 N11 1.374 . S
C15 C14 1.439 . S
C15 C40 1.395 . S
N16 Co5 1.984 1_556 S
N16 C17 1.376 . S
N16 C20 1.383 1_455 S
C17 N16 1.376 . S
C17 C18 1.446 . S
C17 C40 1.391 . S
C18 C17 1.446 . S
C18 C19 1.339 1_455 S
C18 H47 0.949 . S
C19 C18 1.339 1_655 S
C19 C20 1.439 . S
C19 H48 0.950 . S
C20 N16 1.383 1_655 S
C20 C19 1.439 . S
C20 C38 1.392 . S
N21 Co5 2.291 . S
N21 C24 1.332 . S
N21 C26 1.332 . S
C22 C23 1.386 . S
C22 C25 1.388 . S
C23 C22 1.386 . S
C23 C24 1.382 . S
C23 H49 0.950 . S
C24 N21 1.332 . S
C24 C23 1.382 . S
C24 H35 0.952 1_554 S
C25 C22 1.388 . S
C25 C26 1.382 . S
C25 H50 0.950 . S
C26 N21 1.332 . S
C26 C25 1.382 . S
C26 H36 0.948 . S
N27 Co5 2.274 1_656 S
N27 C31 1.332 . S
N27 C32 1.332 . S
C28 C29 1.388 . S
C28 C32 1.382 . S
C28 H51 0.950 . S
C29 C28 1.388 . S
C29 C30 1.386 . S
C30 C29 1.386 . S
C30 C31 1.382 . S
C30 H52 0.950 . S
C31 N27 1.332 . S
C31 C30 1.382 . S
C31 H33 0.952 1_556 S
C32 N27 1.332 . S
C32 C28 1.382 . S
C32 H34 0.948 . S
H33 C31 0.952 1_554 S
H34 C32 0.948 . S
H35 C24 0.952 1_556 S
H36 C26 0.948 . S
C37 C3 1.395 . S
C37 C7 1.391 . S
C38 C0 1.389 . S
C38 C20 1.392 . S
C39 C10 1.392 . S
C39 C12 1.389 . S
C40 C15 1.395 . S
C40 C17 1.391 . S
H41 C1 0.951 1_556 S
H42 C2 0.950 . S
H43 C8 0.949 . S
H44 C9 0.950 . S
H45 C13 0.951 1_554 S
H46 C14 0.950 . S
H47 C18 0.949 . S
H48 C19 0.950 . S
H49 C23 0.950 . S
H50 C25 0.950 . S
H51 C28 0.950 . S
H52 C30 0.950 . S
C53 C54 1.443 . S
C53 N57 1.361 1_545 S
C53 C91 1.389 . S
C54 C53 1.443 . S
C54 C55 1.340 1_545 S
C54 H94 0.951 . S
C55 C54 1.340 1_565 S
C55 C56 1.439 . S
C55 H95 0.950 . S
C56 C55 1.439 . S
C56 N57 1.394 . S
C56 C90 1.395 . S
N57 C53 1.361 1_565 S
N57 C56 1.394 . S
N57 Co58 2.000 1_565 S
Co58 N57 2.000 1_545 S
Co58 N59 1.995 1_545 S
Co58 N64 2.008 . S
Co58 N69 1.995 . S
Co58 N74 2.282 1_545 S
Co58 N80 2.282 . S
N59 Co58 1.995 1_565 S
N59 C60 1.376 . S
N59 C63 1.383 . S
C60 N59 1.376 . S
C60 C61 1.446 . S
C60 C90 1.391 . S
C61 C60 1.446 . S
C61 C62 1.339 . S
C61 H96 0.949 . S
C62 C61 1.339 . S
C62 C63 1.439 . S
C62 H97 0.950 . S
C63 N59 1.383 . S
C63 C62 1.439 . S
C63 C92 1.392 . S
N64 Co58 2.008 . S
N64 C65 1.376 1_545 S
N64 C68 1.374 . S
C65 N64 1.376 1_565 S
C65 C66 1.443 . S
C65 C92 1.389 . S
C66 C65 1.443 . S
C66 C67 1.340 1_565 S
C66 H98 0.951 . S
C67 C66 1.340 1_545 S
C67 C68 1.439 . S
C67 H99 0.950 . S
C68 N64 1.374 . S
C68 C67 1.439 . S
C68 C93 1.395 . S
N69 Co58 1.995 . S
N69 C70 1.376 . S
N69 C73 1.383 . S
C70 N69 1.376 . S
C70 C71 1.446 . S
C70 C93 1.391 . S
C71 C70 1.446 . S
C71 C72 1.339 . S
C71 H100 0.949 . S
C72 C71 1.339 . S
C72 C73 1.439 . S
C72 H101 0.950 . S
C73 N69 1.383 . S
C73 C72 1.439 . S
C73 C91 1.392 . S
N74 Co58 2.282 1_565 S
N74 C77 1.332 . S
N74 C79 1.332 . S
C75 C76 1.386 . S
C75 C78 1.388 . S
C76 C75 1.386 . S
C76 C77 1.382 . S
C76 H102 0.950 . S
C77 N74 1.332 . S
C77 C76 1.382 . S
C77 H88 0.952 1_565 S
C78 C75 1.388 . S
C78 C79 1.382 . S
C78 H103 0.950 . S
C79 N74 1.332 . S
C79 C78 1.382 . S
C79 H89 0.948 . S
N80 Co58 2.282 . S
N80 C84 1.332 . S
N80 C85 1.332 . S
C81 C82 1.388 . S
C81 C85 1.382 . S
C81 H104 0.950 . S
C82 C81 1.388 . S
C82 C83 1.386 . S
C83 C82 1.386 . S
C83 C84 1.382 . S
C83 H105 0.950 . S
C84 N80 1.332 . S
C84 C83 1.382 . S
C84 H86 0.952 1_545 S
C85 N80 1.332 . S
C85 C81 1.382 . S
C85 H87 0.948 . S
H86 C84 0.952 1_565 S
H87 C85 0.948 . S
H88 C77 0.952 1_545 S
H89 C79 0.948 . S
C90 C56 1.395 . S
C90 C60 1.391 . S
C91 C53 1.389 . S
C91 C73 1.392 . S
C92 C63 1.392 . S
C92 C65 1.389 . S
C93 C68 1.395 . S
C93 C70 1.391 . S
H94 C54 0.951 . S
H95 C55 0.950 . S
H96 C61 0.949 . S
H97 C62 0.950 . S
H98 C66 0.951 . S
H99 C67 0.950 . S
H100 C71 0.949 . S
H101 C72 0.950 . S
H102 C76 0.950 . S
H103 C78 0.950 . S
H104 C81 0.950 . S
H105 C83 0.950 . S
C106 C107 1.443 . S
C106 N110 1.376 . S
C106 C144 1.389 . S
C107 C106 1.443 . S
C107 C108 1.340 . S
C107 H147 0.951 . S
C108 C107 1.340 . S
C108 C109 1.439 . S
C108 H148 0.950 . S
C109 C108 1.439 . S
C109 N110 1.374 . S
C109 C143 1.395 . S
N110 C106 1.376 . S
N110 C109 1.374 . S
N110 Co111 1.996 1_556 S
Co111 N110 1.996 1_554 S
Co111 N112 1.991 1_554 S
Co111 N117 2.020 . S
Co111 N122 1.998 . S
Co111 N127 2.290 . S
Co111 N133 2.275 1_554 S
N112 Co111 1.991 1_556 S
N112 C113 1.376 . S
N112 C116 1.383 1_556 S
C113 N112 1.376 . S
C113 C114 1.446 . S
C113 C143 1.391 . S
C114 C113 1.446 . S
C114 C115 1.339 . S
C114 H149 0.949 . S
C115 C114 1.339 . S
C115 C116 1.439 1_556 S
C115 H150 0.945 1_556 S
C116 N112 1.383 1_554 S
C116 C115 1.439 1_554 S
C116 C145 1.392 . S
N117 Co111 2.020 . S
N117 C118 1.376 . S
N117 C121 1.374 . S
C118 N117 1.376 . S
C118 C119 1.443 . S
C118 C145 1.389 . S
C119 C118 1.443 . S
C119 C120 1.340 . S
C119 H151 0.951 . S
C120 C119 1.340 . S
C120 C121 1.439 . S
C120 H152 0.950 . S
C121 N117 1.374 . S
C121 C120 1.439 . S
C121 C146 1.395 . S
N122 Co111 1.998 . S
N122 C123 1.376 . S
N122 C126 1.383 1_554 S
C123 N122 1.376 . S
C123 C124 1.446 . S
C123 C146 1.391 . S
C124 C123 1.446 . S
C124 C125 1.339 . S
C124 H153 0.949 . S
C125 C124 1.339 . S
C125 C126 1.439 1_554 S
C125 H154 0.955 . S
C126 N122 1.383 1_556 S
C126 C125 1.439 1_556 S
C126 C144 1.392 . S
N127 Co111 2.290 . S
N127 C130 1.332 . S
N127 C132 1.332 . S
C128 C129 1.386 . S
C128 C131 1.388 . S
C129 C128 1.386 . S
C129 C130 1.382 . S
C129 H155 0.950 . S
C130 N127 1.332 . S
C130 C129 1.382 . S
C130 H141 0.952 . S
C131 C128 1.388 . S
C131 C132 1.382 . S
C131 H156 0.950 . S
C132 N127 1.332 . S
C132 C131 1.382 . S
C132 H142 0.948 1_554 S
N133 Co111 2.275 1_556 S
N133 C137 1.332 . S
N133 C138 1.332 . S
C134 C135 1.388 . S
C134 C138 1.382 . S
C134 H157 0.950 . S
C135 C134 1.388 . S
C135 C136 1.386 . S
C136 C135 1.386 . S
C136 C137 1.382 . S
C136 H158 0.950 . S
C137 N133 1.332 . S
C137 C136 1.382 . S
C137 H139 0.952 . S
C138 N133 1.332 . S
C138 C134 1.382 . S
C138 H140 0.948 1_556 S
H139 C137 0.952 . S
H140 C138 0.948 1_554 S
H141 C130 0.952 . S
H142 C132 0.948 1_556 S
C143 C109 1.395 . S
C143 C113 1.391 . S
C144 C106 1.389 . S
C144 C126 1.392 . S
C145 C116 1.392 . S
C145 C118 1.389 . S
C146 C121 1.395 . S
C146 C123 1.391 . S
H147 C107 0.951 . S
H148 C108 0.950 . S
H149 C114 0.949 . S
H150 C115 0.945 1_554 S
H151 C119 0.951 . S
H152 C120 0.950 . S
H153 C124 0.949 . S
H154 C125 0.955 . S
H155 C129 0.950 . S
H156 C131 0.950 . S
H157 C134 0.950 . S
H158 C136 0.950 . S
C159 C160 1.443 . S
C159 N163 1.376 . S
C159 C197 1.389 . S
C160 C159 1.443 . S
C160 C161 1.340 . S
C160 H200 0.951 . S
C161 C160 1.340 . S
C161 C162 1.439 . S
C161 H201 0.950 . S
C162 C161 1.439 . S
C162 N163 1.374 . S
C162 C196 1.395 . S
N163 C159 1.376 . S
N163 C162 1.374 . S
N163 Co164 2.008 1_655 S
Co164 N163 2.008 1_455 S
Co164 N165 1.995 1_455 S
Co164 N170 2.008 . S
Co164 N175 1.995 . S
Co164 N180 2.282 . S
Co164 N186 2.282 1_455 S
N165 Co164 1.995 1_655 S
N165 C166 1.376 . S
N165 C169 1.383 1_655 S
C166 N165 1.376 . S
C166 C167 1.446 . S
C166 C196 1.391 . S
C167 C166 1.446 . S
C167 C168 1.339 1_655 S
C167 H202 0.949 . S
C168 C167 1.339 1_455 S
C168 C169 1.439 . S
C168 H203 0.950 . S
C169 N165 1.383 1_455 S
C169 C168 1.439 . S
C169 C198 1.392 . S
N170 Co164 2.008 . S
N170 C171 1.376 . S
N170 C174 1.374 . S
C171 N170 1.376 . S
C171 C172 1.443 . S
C171 C198 1.389 . S
C172 C171 1.443 . S
C172 C173 1.340 . S
C172 H204 0.951 . S
C173 C172 1.340 . S
C173 C174 1.439 . S
C173 H205 0.950 . S
C174 N170 1.374 . S
C174 C173 1.439 . S
C174 C199 1.395 . S
N175 Co164 1.995 . S
N175 C176 1.376 . S
N175 C179 1.383 1_455 S
C176 N175 1.376 . S
C176 C177 1.446 . S
C176 C199 1.391 . S
C177 C176 1.446 . S
C177 C178 1.339 1_455 S
C177 H206 0.949 . S
C178 C177 1.339 1_655 S
C178 C179 1.439 . S
C178 H207 0.950 . S
C179 N175 1.383 1_655 S
C179 C178 1.439 . S
C179 C197 1.392 . S
N180 Co164 2.282 . S
N180 C183 1.332 . S
N180 C185 1.332 . S
C181 C182 1.386 . S
C181 C184 1.388 . S
C182 C181 1.386 . S
C182 C183 1.382 . S
C182 H208 0.950 . S
C183 N180 1.332 . S
C183 C182 1.382 . S
C183 H194 0.952 . S
C184 C181 1.388 . S
C184 C185 1.382 . S
C184 H209 0.950 . S
C185 N180 1.332 . S
C185 C184 1.382 . S
C185 H195 0.948 . S
N186 Co164 2.282 1_655 S
N186 C190 1.332 . S
N186 C191 1.332 . S
C187 C188 1.388 . S
C187 C191 1.382 . S
C187 H210 0.950 . S
C188 C187 1.388 . S
C188 C189 1.386 . S
C189 C188 1.386 . S
C189 C190 1.382 . S
C189 H211 0.950 . S
C190 N186 1.332 . S
C190 C189 1.382 . S
C190 H192 0.952 . S
C191 N186 1.332 . S
C191 C187 1.382 . S
C191 H193 0.948 . S
H192 C190 0.952 . S
H193 C191 0.948 . S
H194 C183 0.952 . S
H195 C185 0.948 . S
C196 C162 1.395 . S
C196 C166 1.391 . S
C197 C159 1.389 . S
C197 C179 1.392 . S
C198 C169 1.392 . S
C198 C171 1.389 . S
C199 C174 1.395 . S
C199 C176 1.391 . S
H200 C160 0.951 . S
H201 C161 0.950 . S
H202 C167 0.949 . S
H203 C168 0.950 . S
H204 C172 0.951 . S
H205 C173 0.950 . S
H206 C177 0.949 . S
H207 C178 0.950 . S
H208 C182 0.950 . S
H209 C184 0.950 . S
H210 C187 0.950 . S
H211 C189 0.950 . S
C212 C213 1.443 . S
C212 N216 1.376 1_565 S
C212 C250 1.389 . S
C213 C212 1.443 . S
C213 C214 1.340 1_565 S
C213 H253 0.951 . S
C214 C213 1.340 1_545 S
C214 C215 1.439 . S
C214 H254 0.950 . S
C215 C214 1.439 . S
C215 N216 1.374 . S
C215 C249 1.395 . S
N216 C212 1.376 1_545 S
N216 C215 1.374 . S
N216 Co217 2.020 . S
Co217 N216 2.020 . S
Co217 N218 1.997 . S
Co217 N223 1.995 1_544 S
Co217 N228 1.992 1_544 S
Co217 N233 2.277 1_554 S
Co217 N239 2.288 1_545 S
N218 Co217 1.997 . S
N218 C219 1.376 . S
N218 C222 1.383 1_554 S
C219 N218 1.376 . S
C219 C220 1.446 . S
C219 C249 1.391 . S
C220 C219 1.446 . S
C220 C221 1.339 1_554 S
C220 H255 0.949 . S
C221 C220 1.339 1_556 S
C221 C222 1.439 . S
C221 H256 0.950 . S
C222 N218 1.383 1_556 S
C222 C221 1.439 . S
C222 C251 1.392 . S
N223 Co217 1.995 1_566 S
N223 C224 1.375 1_565 S
N223 C227 1.376 . S
C224 N223 1.375 1_545 S
C224 C225 1.443 . S
C224 C251 1.389 . S
C225 C224 1.443 . S
C225 C226 1.340 1_545 S
C225 H257 0.951 . S
C226 C225 1.340 1_565 S
C226 C227 1.439 . S
C226 H258 0.950 . S
C227 N223 1.376 . S
C227 C226 1.439 . S
C227 C252 1.395 . S
N228 Co217 1.992 1_566 S
N228 C229 1.376 . S
N228 C232 1.383 1_556 S
C229 N228 1.376 . S
C229 C230 1.446 . S
C229 C252 1.391 . S
C230 C229 1.446 . S
C230 C231 1.339 1_556 S
C230 H259 0.949 . S
C231 C230 1.339 1_554 S
C231 C232 1.439 . S
C231 H260 0.950 . S
C232 N228 1.383 1_554 S
C232 C231 1.439 . S
C232 C250 1.392 . S
N233 Co217 2.277 1_556 S
N233 C236 1.332 . S
N233 C238 1.332 . S
C234 C235 1.386 . S
C234 C237 1.388 . S
C235 C234 1.386 . S
C235 C236 1.382 . S
C235 H261 0.950 . S
C236 N233 1.332 . S
C236 C235 1.382 . S
C236 H247 0.917 1_545 S
C237 C234 1.388 . S
C237 C238 1.382 . S
C237 H262 0.950 . S
C238 N233 1.332 . S
C238 C237 1.382 . S
C238 H248 0.948 . S
N239 Co217 2.288 1_565 S
N239 C243 1.332 . S
N239 C244 1.332 . S
C240 C241 1.388 . S
C240 C244 1.382 . S
C240 H263 0.950 . S
C241 C240 1.388 . S
C241 C242 1.386 . S
C242 C241 1.386 . S
C242 C243 1.382 . S
C242 H264 0.950 . S
C243 N239 1.332 . S
C243 C242 1.382 . S
C243 H245 0.952 1_565 S
C244 N239 1.332 . S
C244 C240 1.382 . S
C244 H246 0.948 . S
H245 C243 0.952 1_545 S
H246 C244 0.948 . S
H247 C236 0.917 1_565 S
H248 C238 0.948 . S
C249 C215 1.395 . S
C249 C219 1.391 . S
C250 C212 1.389 . S
C250 C232 1.392 . S
C251 C222 1.392 . S
C251 C224 1.389 . S
C252 C227 1.395 . S
C252 C229 1.391 . S
H253 C213 0.951 . S
H254 C214 0.950 . S
H255 C220 0.949 . S
H256 C221 0.950 . S
H257 C225 0.951 . S
H258 C226 0.950 . S
H259 C230 0.949 . S
H260 C231 0.950 . S
H261 C235 0.950 . S
H262 C237 0.950 . S
H263 C240 0.950 . S
H264 C242 0.950 . S
C265 C266 1.443 . S
C265 N269 1.376 . S
C265 C303 1.389 . S
C266 C265 1.443 . S
C266 C267 1.340 . S
C266 H306 0.951 . S
C267 C266 1.340 . S
C267 C268 1.439 . S
C267 H307 0.950 . S
C268 C267 1.439 . S
C268 N269 1.374 . S
C268 C302 1.395 . S
N269 C265 1.376 . S
N269 C268 1.374 . S
N269 Co270 2.008 . S
Co270 N269 2.008 . S
Co270 N271 1.995 . S
Co270 N276 2.008 . S
Co270 N281 1.995 . S
Co270 N286 2.282 . S
Co270 N292 2.282 . S
N271 Co270 1.995 . S
N271 C272 1.376 . S
N271 C275 1.383 . S
C272 N271 1.376 . S
C272 C273 1.446 . S
C272 C302 1.391 . S
C273 C272 1.446 . S
C273 C274 1.339 . S
C273 H308 0.949 . S
C274 C273 1.339 . S
C274 C275 1.439 . S
C274 H309 0.950 . S
C275 N271 1.383 . S
C275 C274 1.439 . S
C275 C304 1.392 . S
N276 Co270 2.008 . S
N276 C277 1.376 . S
N276 C280 1.374 . S
C277 N276 1.376 . S
C277 C278 1.443 . S
C277 C304 1.389 . S
C278 C277 1.443 . S
C278 C279 1.340 . S
C278 H310 0.951 . S
C279 C278 1.340 . S
C279 C280 1.439 . S
C279 H311 0.950 . S
C280 N276 1.374 . S
C280 C279 1.439 . S
C280 C305 1.395 . S
N281 Co270 1.995 . S
N281 C282 1.376 . S
N281 C285 1.383 . S
C282 N281 1.376 . S
C282 C283 1.446 . S
C282 C305 1.391 . S
C283 C282 1.446 . S
C283 C284 1.339 . S
C283 H312 0.949 . S
C284 C283 1.339 . S
C284 C285 1.439 . S
C284 H313 0.950 . S
C285 N281 1.383 . S
C285 C284 1.439 . S
C285 C303 1.392 . S
N286 Co270 2.282 . S
N286 C289 1.332 . S
N286 C291 1.332 . S
C287 C288 1.386 . S
C287 C290 1.388 . S
C288 C287 1.386 . S
C288 C289 1.382 . S
C288 H314 0.950 . S
C289 N286 1.332 . S
C289 C288 1.382 . S
C289 H300 0.952 . S
C290 C287 1.388 . S
C290 C291 1.382 . S
C290 H315 0.950 . S
C291 N286 1.332 . S
C291 C290 1.382 . S
C291 H301 0.948 . S
N292 Co270 2.282 . S
N292 C296 1.332 . S
N292 C297 1.332 . S
C293 C294 1.388 . S
C293 C297 1.382 . S
C293 H316 0.950 . S
C294 C293 1.388 . S
C294 C295 1.386 . S
C295 C294 1.386 . S
C295 C296 1.382 . S
C295 H317 0.950 . S
C296 N292 1.332 . S
C296 C295 1.382 . S
C296 H298 0.952 . S
C297 N292 1.332 . S
C297 C293 1.382 . S
C297 H299 0.948 . S
H298 C296 0.952 . S
H299 C297 0.948 . S
H300 C289 0.952 . S
H301 C291 0.948 . S
C302 C268 1.395 . S
C302 C272 1.391 . S
C303 C265 1.389 . S
C303 C285 1.392 . S
C304 C275 1.392 . S
C304 C277 1.389 . S
C305 C280 1.395 . S
C305 C282 1.391 . S
H306 C266 0.951 . S
H307 C267 0.950 . S
H308 C273 0.949 . S
H309 C274 0.950 . S
H310 C278 0.951 . S
H311 C279 0.950 . S
H312 C283 0.949 . S
H313 C284 0.950 . S
H314 C288 0.950 . S
H315 C290 0.950 . S
H316 C293 0.950 . S
H317 C295 0.950 . S
H318 C337 0.949 . S
H319 C338 0.950 . S
H320 C340 0.950 . S
H321 C341 0.950 . S
H322 C343 0.950 . S
H323 C346 0.950 . S
H324 C347 0.950 . S
H325 C349 0.951 . S
H326 C350 0.949 . S
H327 C352 0.949 . S
H328 C353 0.950 . S
H329 C355 0.950 . S
H330 C356 0.950 . S
H331 C358 0.950 . S
H332 C361 0.950 . S
H333 C362 0.950 . S
H334 C364 0.951 . S
H335 C365 0.949 . S
C336 C337 1.376 . S
C336 C341 1.386 . S
C336 C342 1.483 . S
C337 H318 0.949 . S
C337 C336 1.376 . S
C337 C338 1.397 . S
C338 H319 0.950 . S
C338 C337 1.397 . S
C338 C339 1.391 . S
C339 C338 1.391 . S
C339 C340 1.405 . S
C340 H320 0.950 . S
C340 C339 1.405 . S
C340 C341 1.367 . S
C341 H321 0.950 . S
C341 C336 1.386 . S
C341 C340 1.367 . S
C342 C336 1.483 . S
C342 C343 1.382 . S
C342 C344 1.403 . S
C343 H322 0.950 . S
C343 C342 1.382 . S
C343 C359 1.411 . S
C344 C342 1.403 . S
C344 C345 1.489 . S
C344 C358 1.411 . S
C345 C344 1.489 . S
C345 C346 1.383 . S
C345 C350 1.382 . S
C346 H323 0.950 . S
C346 C345 1.383 . S
C346 C347 1.395 . S
C347 H324 0.950 . S
C347 C346 1.395 . S
C347 C348 1.288 . S
C348 C347 1.288 . S
C348 C349 1.392 . S
C349 H325 0.951 . S
C349 C348 1.392 . S
C349 C350 1.392 . S
C350 H326 0.949 . S
C350 C345 1.382 . S
C350 C349 1.392 . S
C351 C352 1.376 . S
C351 C356 1.386 . S
C351 C357 1.483 . S
C352 H327 0.949 . S
C352 C351 1.376 . S
C352 C353 1.397 . S
C353 H328 0.950 . S
C353 C352 1.397 . S
C353 C354 1.391 . S
C354 C353 1.391 . S
C354 C355 1.405 . S
C355 H329 0.950 . S
C355 C354 1.405 . S
C355 C356 1.367 . S
C356 H330 0.950 . S
C356 C351 1.386 . S
C356 C355 1.367 . S
C357 C351 1.483 . S
C357 C358 1.382 . S
C357 C359 1.403 . S
C358 H331 0.950 . S
C358 C344 1.411 . S
C358 C357 1.382 . S
C359 C343 1.411 . S
C359 C357 1.403 . S
C359 C360 1.489 . S
C360 C359 1.489 . S
C360 C361 1.383 . S
C360 C365 1.382 . S
C361 H332 0.950 . S
C361 C360 1.383 . S
C361 C362 1.395 . S
C362 H333 0.950 . S
C362 C361 1.395 . S
C362 C363 1.288 . S
C363 C362 1.288 . S
C363 C364 1.392 . S
C364 H334 0.951 . S
C364 C363 1.392 . S
C364 C365 1.392 . S
C365 H335 0.949 . S
C365 C360 1.382 . S
C365 C364 1.392 . S
H366 C385 0.949 . S
H367 C386 0.950 . S
H368 C388 0.950 . S
H369 C389 0.950 . S
H370 C391 0.950 . S
H371 C394 0.950 . S
H372 C395 0.950 . S
H373 C397 0.951 . S
H374 C398 0.949 . S
H375 C400 0.949 . S
H376 C401 0.950 . S
H377 C403 0.950 . S
H378 C404 0.950 . S
H379 C406 0.950 . S
H380 C409 0.950 . S
H381 C410 0.950 . S
H382 C412 0.951 . S
H383 C413 0.949 . S
C384 C385 1.376 . S
C384 C389 1.386 . S
C384 C390 1.483 . S
C385 H366 0.949 . S
C385 C384 1.376 . S
C385 C386 1.397 . S
C386 H367 0.950 . S
C386 C385 1.397 . S
C386 C387 1.391 . S
C387 C386 1.391 . S
C387 C388 1.405 . S
C388 H368 0.950 . S
C388 C387 1.405 . S
C388 C389 1.367 . S
C389 H369 0.950 . S
C389 C384 1.386 . S
C389 C388 1.367 . S
C390 C384 1.483 . S
C390 C391 1.382 . S
C390 C392 1.403 . S
C391 H370 0.950 . S
C391 C390 1.382 . S
C391 C407 1.411 . S
C392 C390 1.403 . S
C392 C393 1.489 . S
C392 C406 1.411 . S
C393 C392 1.489 . S
C393 C394 1.383 . S
C393 C398 1.382 . S
C394 H371 0.950 . S
C394 C393 1.383 . S
C394 C395 1.395 . S
C395 H372 0.950 . S
C395 C394 1.395 . S
C395 C396 1.288 . S
C396 C395 1.288 . S
C396 C397 1.392 . S
C397 H373 0.951 . S
C397 C396 1.392 . S
C397 C398 1.392 . S
C398 H374 0.949 . S
C398 C393 1.382 . S
C398 C397 1.392 . S
C399 C400 1.376 . S
C399 C404 1.386 . S
C399 C405 1.483 . S
C400 H375 0.949 . S
C400 C399 1.376 . S
C400 C401 1.397 . S
C401 H376 0.950 . S
C401 C400 1.397 . S
C401 C402 1.391 . S
C402 C401 1.391 . S
C402 C403 1.405 . S
C403 H377 0.950 . S
C403 C402 1.405 . S
C403 C404 1.367 . S
C404 H378 0.950 . S
C404 C399 1.386 . S
C404 C403 1.367 . S
C405 C399 1.483 . S
C405 C406 1.382 . S
C405 C407 1.403 . S
C406 H379 0.950 . S
C406 C392 1.411 . S
C406 C405 1.382 . S
C407 C391 1.411 . S
C407 C405 1.403 . S
C407 C408 1.489 . S
C408 C407 1.489 . S
C408 C409 1.383 . S
C408 C413 1.382 . S
C409 H380 0.950 . S
C409 C408 1.383 . S
C409 C410 1.395 . S
C410 H381 0.950 . S
C410 C409 1.395 . S
C410 C411 1.288 . S
C411 C410 1.288 . S
C411 C412 1.392 . S
C412 H382 0.951 . S
C412 C411 1.392 . S
C412 C413 1.392 . S
C413 H383 0.949 . S
C413 C408 1.382 . S
C413 C412 1.392 . S
H414 C433 0.949 . S
H415 C434 0.950 . S
H416 C436 0.950 . S
H417 C437 0.950 . S
H418 C439 0.950 . S
H419 C442 0.950 . S
H420 C443 0.950 . S
H421 C445 0.951 . S
H422 C446 0.949 . S
H423 C448 0.949 . S
H424 C449 0.950 . S
H425 C451 0.950 . S
H426 C452 0.950 . S
H427 C454 0.950 . S
H428 C457 0.950 . S
H429 C458 0.950 . S
H430 C460 0.951 . S
H431 C461 0.949 . S
C432 C433 1.376 . S
C432 C437 1.386 . S
C432 C438 1.483 . S
C433 H414 0.949 . S
C433 C432 1.376 . S
C433 C434 1.397 . S
C434 H415 0.950 . S
C434 C433 1.397 . S
C434 C435 1.391 . S
C435 C434 1.391 . S
C435 C436 1.405 . S
C436 H416 0.950 . S
C436 C435 1.405 . S
C436 C437 1.367 . S
C437 H417 0.950 . S
C437 C432 1.386 . S
C437 C436 1.367 . S
C438 C432 1.483 . S
C438 C439 1.382 . S
C438 C440 1.403 . S
C439 H418 0.950 . S
C439 C438 1.382 . S
C439 C455 1.411 . S
C440 C438 1.403 . S
C440 C441 1.489 . S
C440 C454 1.411 . S
C441 C440 1.489 . S
C441 C442 1.383 . S
C441 C446 1.382 . S
C442 H419 0.950 . S
C442 C441 1.383 . S
C442 C443 1.395 . S
C443 H420 0.950 . S
C443 C442 1.395 . S
C443 C444 1.288 . S
C444 C443 1.288 . S
C444 C445 1.392 . S
C445 H421 0.951 . S
C445 C444 1.392 . S
C445 C446 1.392 . S
C446 H422 0.949 . S
C446 C441 1.382 . S
C446 C445 1.392 . S
C447 C448 1.376 . S
C447 C452 1.386 . S
C447 C453 1.483 . S
C448 H423 0.949 . S
C448 C447 1.376 . S
C448 C449 1.397 . S
C449 H424 0.950 . S
C449 C448 1.397 . S
C449 C450 1.391 . S
C450 C449 1.391 . S
C450 C451 1.405 . S
C451 H425 0.950 . S
C451 C450 1.405 . S
C451 C452 1.367 . S
C452 H426 0.950 . S
C452 C447 1.386 . S
C452 C451 1.367 . S
C453 C447 1.483 . S
C453 C454 1.382 . S
C453 C455 1.403 . S
C454 H427 0.950 . S
C454 C440 1.411 . S
C454 C453 1.382 . S
C455 C439 1.411 . S
C455 C453 1.403 . S
C455 C456 1.489 . S
C456 C455 1.489 . S
C456 C457 1.383 . S
C456 C461 1.382 . S
C457 H428 0.950 . S
C457 C456 1.383 . S
C457 C458 1.395 . S
C458 H429 0.950 . S
C458 C457 1.395 . S
C458 C459 1.288 . S
C459 C458 1.288 . S
C459 C460 1.392 . S
C460 H430 0.951 . S
C460 C459 1.392 . S
C460 C461 1.392 . S
C461 H431 0.949 . S
C461 C456 1.382 . S
C461 C460 1.392 . S
H462 C481 0.949 . S
H463 C482 0.950 . S
H464 C484 0.950 . S
H465 C485 0.950 . S
H466 C487 0.950 . S
H467 C490 0.950 . S
H468 C491 0.950 . S
H469 C493 0.951 . S
H470 C494 0.949 . S
H471 C496 0.949 . S
H472 C497 0.950 . S
H473 C499 0.950 . S
H474 C500 0.950 . S
H475 C502 0.950 . S
H476 C505 0.950 . S
H477 C506 0.950 . S
H478 C508 0.951 . S
H479 C509 0.949 . S
C480 C481 1.376 . S
C480 C485 1.386 . S
C480 C486 1.483 . S
C481 H462 0.949 . S
C481 C480 1.376 . S
C481 C482 1.397 . S
C482 H463 0.950 . S
C482 C481 1.397 . S
C482 C483 1.391 . S
C483 C482 1.391 . S
C483 C484 1.405 . S
C484 H464 0.950 . S
C484 C483 1.405 . S
C484 C485 1.367 . S
C485 H465 0.950 . S
C485 C480 1.386 . S
C485 C484 1.367 . S
C486 C480 1.483 . S
C486 C487 1.382 . S
C486 C488 1.403 . S
C487 H466 0.950 . S
C487 C486 1.382 . S
C487 C503 1.411 . S
C488 C486 1.403 . S
C488 C489 1.489 . S
C488 C502 1.411 . S
C489 C488 1.489 . S
C489 C490 1.383 . S
C489 C494 1.382 . S
C490 H467 0.950 . S
C490 C489 1.383 . S
C490 C491 1.395 . S
C491 H468 0.950 . S
C491 C490 1.395 . S
C491 C492 1.288 . S
C492 C491 1.288 . S
C492 C493 1.392 . S
C493 H469 0.951 . S
C493 C492 1.392 . S
C493 C494 1.392 . S
C494 H470 0.949 . S
C494 C489 1.382 . S
C494 C493 1.392 . S
C495 C496 1.376 . S
C495 C500 1.386 . S
C495 C501 1.483 . S
C496 H471 0.949 . S
C496 C495 1.376 . S
C496 C497 1.397 . S
C497 H472 0.950 . S
C497 C496 1.397 . S
C497 C498 1.391 . S
C498 C497 1.391 . S
C498 C499 1.405 . S
C499 H473 0.950 . S
C499 C498 1.405 . S
C499 C500 1.367 . S
C500 H474 0.950 . S
C500 C495 1.386 . S
C500 C499 1.367 . S
C501 C495 1.483 . S
C501 C502 1.382 . S
C501 C503 1.403 . S
C502 H475 0.950 . S
C502 C488 1.411 . S
C502 C501 1.382 . S
C503 C487 1.411 . S
C503 C501 1.403 . S
C503 C504 1.489 . S
C504 C503 1.489 . S
C504 C505 1.383 . S
C504 C509 1.382 . S
C505 H476 0.950 . S
C505 C504 1.383 . S
C505 C506 1.395 . S
C506 H477 0.950 . S
C506 C505 1.395 . S
C506 C507 1.288 . S
C507 C506 1.288 . S
C507 C508 1.392 . S
C508 H478 0.951 . S
C508 C507 1.392 . S
C508 C509 1.392 . S
C509 H479 0.949 . S
C509 C504 1.382 . S
C509 C508 1.392 . S
H510 C529 0.949 . S
H511 C530 0.950 . S
H512 C532 0.950 . S
H513 C533 0.950 . S
H514 C535 0.950 . S
H515 C538 0.950 . S
H516 C539 0.950 . S
H517 C541 0.951 . S
H518 C542 0.949 . S
H519 C544 0.949 . S
H520 C545 0.950 . S
H521 C547 0.950 . S
H522 C548 0.950 . S
H523 C550 0.950 . S
H524 C553 0.950 . S
H525 C554 0.950 . S
H526 C556 0.951 . S
H527 C557 0.949 . S
C528 C529 1.376 . S
C528 C533 1.386 . S
C528 C534 1.483 . S
C529 H510 0.949 . S
C529 C528 1.376 . S
C529 C530 1.397 . S
C530 H511 0.950 . S
C530 C529 1.397 . S
C530 C531 1.391 . S
C531 C530 1.391 . S
C531 C532 1.405 . S
C532 H512 0.950 . S
C532 C531 1.405 . S
C532 C533 1.367 . S
C533 H513 0.950 . S
C533 C528 1.386 . S
C533 C532 1.367 . S
C534 C528 1.483 . S
C534 C535 1.382 . S
C534 C536 1.403 . S
C535 H514 0.950 . S
C535 C534 1.382 . S
C535 C551 1.411 . S
C536 C534 1.403 . S
C536 C537 1.489 . S
C536 C550 1.411 . S
C537 C536 1.489 . S
C537 C538 1.383 . S
C537 C542 1.382 . S
C538 H515 0.950 . S
C538 C537 1.383 . S
C538 C539 1.395 . S
C539 H516 0.950 . S
C539 C538 1.395 . S
C539 C540 1.288 . S
C540 C539 1.288 . S
C540 C541 1.392 . S
C541 H517 0.951 . S
C541 C540 1.392 . S
C541 C542 1.392 . S
C542 H518 0.949 . S
C542 C537 1.382 . S
C542 C541 1.392 . S
C543 C544 1.376 . S
C543 C548 1.386 . S
C543 C549 1.483 . S
C544 H519 0.949 . S
C544 C543 1.376 . S
C544 C545 1.397 . S
C545 H520 0.950 . S
C545 C544 1.397 . S
C545 C546 1.391 . S
C546 C545 1.391 . S
C546 C547 1.405 . S
C547 H521 0.950 . S
C547 C546 1.405 . S
C547 C548 1.367 . S
C548 H522 0.950 . S
C548 C543 1.386 . S
C548 C547 1.367 . S
C549 C543 1.483 . S
C549 C550 1.382 . S
C549 C551 1.403 . S
C550 H523 0.950 . S
C550 C536 1.411 . S
C550 C549 1.382 . S
C551 C535 1.411 . S
C551 C549 1.403 . S
C551 C552 1.489 . S
C552 C551 1.489 . S
C552 C553 1.383 . S
C552 C557 1.382 . S
C553 H524 0.950 . S
C553 C552 1.383 . S
C553 C554 1.395 . S
C554 H525 0.950 . S
C554 C553 1.395 . S
C554 C555 1.288 . S
C555 C554 1.288 . S
C555 C556 1.392 . S
C556 H526 0.951 . S
C556 C555 1.392 . S
C556 C557 1.392 . S
C557 H527 0.949 . S
C557 C552 1.382 . S
C557 C556 1.392 . S
H558 C577 0.949 . S
H559 C578 0.950 . S
H560 C580 0.950 . S
H561 C581 0.950 . S
H562 C583 0.950 . S
H563 C586 0.950 . S
H564 C587 0.950 . S
H565 C589 0.951 . S
H566 C590 0.949 . S
H567 C592 0.949 . S
H568 C593 0.950 . S
H569 C595 0.950 . S
H570 C596 0.950 . S
H571 C598 0.950 . S
H572 C601 0.950 . S
H573 C602 0.950 . S
H574 C604 0.951 . S
H575 C605 0.949 . S
C576 C577 1.376 . S
C576 C581 1.386 . S
C576 C582 1.483 . S
C577 H558 0.949 . S
C577 C576 1.376 . S
C577 C578 1.397 . S
C578 H559 0.950 . S
C578 C577 1.397 . S
C578 C579 1.391 . S
C579 C578 1.391 . S
C579 C580 1.405 . S
C580 H560 0.950 . S
C580 C579 1.405 . S
C580 C581 1.367 . S
C581 H561 0.950 . S
C581 C576 1.386 . S
C581 C580 1.367 . S
C582 C576 1.483 . S
C582 C583 1.382 . S
C582 C584 1.403 . S
C583 H562 0.950 . S
C583 C582 1.382 . S
C583 C599 1.411 . S
C584 C582 1.403 . S
C584 C585 1.489 . S
C584 C598 1.411 . S
C585 C584 1.489 . S
C585 C586 1.383 . S
C585 C590 1.382 . S
C586 H563 0.950 . S
C586 C585 1.383 . S
C586 C587 1.395 . S
C587 H564 0.950 . S
C587 C586 1.395 . S
C587 C588 1.288 . S
C588 C587 1.288 . S
C588 C589 1.392 . S
C589 H565 0.951 . S
C589 C588 1.392 . S
C589 C590 1.392 . S
C590 H566 0.949 . S
C590 C585 1.382 . S
C590 C589 1.392 . S
C591 C592 1.376 . S
C591 C596 1.386 . S
C591 C597 1.483 . S
C592 H567 0.949 . S
C592 C591 1.376 . S
C592 C593 1.397 . S
C593 H568 0.950 . S
C593 C592 1.397 . S
C593 C594 1.391 . S
C594 C593 1.391 . S
C594 C595 1.405 . S
C595 H569 0.950 . S
C595 C594 1.405 . S
C595 C596 1.367 . S
C596 H570 0.950 . S
C596 C591 1.386 . S
C596 C595 1.367 . S
C597 C591 1.483 . S
C597 C598 1.382 . S
C597 C599 1.403 . S
C598 H571 0.950 . S
C598 C584 1.411 . S
C598 C597 1.382 . S
C599 C583 1.411 . S
C599 C597 1.403 . S
C599 C600 1.489 . S
C600 C599 1.489 . S
C600 C601 1.383 . S
C600 C605 1.382 . S
C601 H572 0.950 . S
C601 C600 1.383 . S
C601 C602 1.395 . S
C602 H573 0.950 . S
C602 C601 1.395 . S
C602 C603 1.288 . S
C603 C602 1.288 . S
C603 C604 1.392 . S
C604 H574 0.951 . S
C604 C603 1.392 . S
C604 C605 1.392 . S
C605 H575 0.949 . S
C605 C600 1.382 . S
C605 C604 1.392 . S
C606 C607 1.387 . S
C606 H610 0.950 . S
C606 C615 1.390 . S
C607 C606 1.387 . S
C607 C609 1.387 . S
H608 C615 0.950 . S
C609 C607 1.387 . S
C609 C611 1.390 . S
C609 H613 0.950 . S
H610 C606 0.950 . S
C611 C609 1.390 . S
C611 C612 1.387 . S
C611 H614 0.950 . S
C612 C611 1.387 . S
C612 C615 1.387 . S
H613 C609 0.950 . S
H614 C611 0.950 . S
C615 C606 1.390 . S
C615 H608 0.950 . S
C615 C612 1.387 . S
C616 C617 1.387 . S
C616 H620 0.950 . S
C616 C625 1.390 . S
C617 C616 1.387 . S
C617 C619 1.387 . S
H618 C625 0.950 . S
C619 C617 1.387 . S
C619 C621 1.390 . S
C619 H623 0.950 . S
H620 C616 0.950 . S
C621 C619 1.390 . S
C621 C622 1.387 . S
C621 H624 0.950 . S
C622 C621 1.387 . S
C622 C625 1.387 . S
H623 C619 0.950 . S
H624 C621 0.950 . S
C625 C616 1.390 . S
C625 H618 0.950 . S
C625 C622 1.387 . S
C626 C627 1.387 . S
C626 H630 0.950 . S
C626 C635 1.390 . S
C627 C626 1.387 . S
C627 C629 1.387 . S
H628 C635 0.950 . S
C629 C627 1.387 . S
C629 C631 1.390 . S
C629 H633 0.950 . S
H630 C626 0.950 . S
C631 C629 1.390 . S
C631 C632 1.387 . S
C631 H634 0.950 . S
C632 C631 1.387 . S
C632 C635 1.387 . S
H633 C629 0.950 . S
H634 C631 0.950 . S
C635 C626 1.390 . S
C635 H628 0.950 . S
C635 C632 1.387 . S
C636 C637 1.387 . S
C636 H640 0.950 . S
C636 C645 1.390 . S
C637 C636 1.387 . S
C637 C639 1.387 . S
H638 C645 0.950 . S
C639 C637 1.387 . S
C639 C641 1.390 . S
C639 H643 0.950 . S
H640 C636 0.950 . S
C641 C639 1.390 . S
C641 C642 1.387 . S
C641 H644 0.950 . S
C642 C641 1.387 . S
C642 C645 1.387 . S
H643 C639 0.950 . S
H644 C641 0.950 . S
C645 C636 1.390 . S
C645 H638 0.950 . S
C645 C642 1.387 . S
C646 C647 1.387 . S
C646 H650 0.950 . S
C646 C655 1.390 . S
C647 C646 1.387 . S
C647 C649 1.387 . S
H648 C655 0.950 . S
C649 C647 1.387 . S
C649 C651 1.390 . S
C649 H653 0.950 . S
H650 C646 0.950 . S
C651 C649 1.390 . S
C651 C652 1.387 . S
C651 H654 0.950 . S
C652 C651 1.387 . S
C652 C655 1.387 . S
H653 C649 0.950 . S
H654 C651 0.950 . S
C655 C646 1.390 . S
C655 H648 0.950 . S
C655 C652 1.387 . S
C656 C657 1.387 . S
C656 H660 0.950 . S
C656 C665 1.390 . S
C657 C656 1.387 . S
C657 C659 1.387 . S
H658 C665 0.950 . S
C659 C657 1.387 . S
C659 C661 1.390 . S
C659 H663 0.950 . S
H660 C656 0.950 . S
C661 C659 1.390 . S
C661 C662 1.387 . S
C661 H664 0.950 . S
C662 C661 1.387 . S
C662 C665 1.387 . S
H663 C659 0.950 . S
H664 C661 0.950 . S
C665 C656 1.390 . S
C665 H658 0.950 . S
C665 C662 1.387 . S
C666 C667 1.387 . S
C666 H670 0.950 . S
C666 C675 1.390 . S
C667 C666 1.387 . S
C667 C669 1.387 . S
H668 C675 0.950 . S
C669 C667 1.387 . S
C669 C671 1.390 . S
C669 H673 0.950 . S
H670 C666 0.950 . S
C671 C669 1.390 . S
C671 C672 1.387 . S
C671 H674 0.950 . S
C672 C671 1.387 . S
C672 C675 1.387 . S
H673 C669 0.950 . S
H674 C671 0.950 . S
C675 C666 1.390 . S
C675 H668 0.950 . S
C675 C672 1.387 . S
C676 C677 1.387 . S
C676 H680 0.950 . S
C676 C685 1.390 . S
C677 C676 1.387 . S
C677 C679 1.387 . S
H678 C685 0.950 . S
C679 C677 1.387 . S
C679 C681 1.390 . S
C679 H683 0.950 . S
H680 C676 0.950 . S
C681 C679 1.390 . S
C681 C682 1.387 . S
C681 H684 0.950 . S
C682 C681 1.387 . S
C682 C685 1.387 . S
H683 C679 0.950 . S
H684 C681 0.950 . S
C685 C676 1.390 . S
C685 H678 0.950 . S
C685 C682 1.387 . S
C686 C687 1.387 . S
C686 H690 0.950 . S
C686 C695 1.390 . S
C687 C686 1.387 . S
C687 C689 1.387 . S
H688 C695 0.950 . S
C689 C687 1.387 . S
C689 C691 1.390 . S
C689 H693 0.950 . S
H690 C686 0.950 . S
C691 C689 1.390 . S
C691 C692 1.387 . S
C691 H694 0.950 . S
C692 C691 1.387 . S
C692 C695 1.387 . S
H693 C689 0.950 . S
H694 C691 0.950 . S
C695 C686 1.390 . S
C695 H688 0.950 . S
C695 C692 1.387 . S
C696 C697 1.387 . S
C696 H700 0.950 . S
C696 C705 1.390 . S
C697 C696 1.387 . S
C697 C699 1.387 . S
H698 C705 0.950 . S
C699 C697 1.387 . S
C699 C701 1.390 . S
C699 H703 0.950 . S
H700 C696 0.950 . S
C701 C699 1.390 . S
C701 C702 1.387 . S
C701 H704 0.950 . S
C702 C701 1.387 . S
C702 C705 1.387 . S
H703 C699 0.950 . S
H704 C701 0.950 . S
C705 C696 1.390 . S
C705 H698 0.950 . S
C705 C702 1.387 . S
C706 C707 1.387 . S
C706 H710 0.950 . S
C706 C715 1.390 . S
C707 C706 1.387 . S
C707 C709 1.387 . S
H708 C715 0.950 . S
C709 C707 1.387 . S
C709 C711 1.390 . S
C709 H713 0.950 . S
H710 C706 0.950 . S
C711 C709 1.390 . S
C711 C712 1.387 . S
C711 H714 0.950 . S
C712 C711 1.387 . S
C712 C715 1.387 . S
H713 C709 0.950 . S
H714 C711 0.950 . S
C715 C706 1.390 . S
C715 H708 0.950 . S
C715 C712 1.387 . S
C716 C717 1.387 . S
C716 H720 0.950 . S
C716 C725 1.390 . S
C717 C716 1.387 . S
C717 C719 1.387 . S
H718 C725 0.950 . S
C719 C717 1.387 . S
C719 C721 1.390 . S
C719 H723 0.950 . S
H720 C716 0.950 . S
C721 C719 1.390 . S
C721 C722 1.387 . S
C721 H724 0.950 . S
C722 C721 1.387 . S
C722 C725 1.387 . S
H723 C719 0.950 . S
H724 C721 0.950 . S
C725 C716 1.390 . S
C725 H718 0.950 . S
C725 C722 1.387 . S
C726 C727 1.387 . S
C726 H730 0.950 . S
C726 C735 1.390 . S
C727 C726 1.387 . S
C727 C729 1.387 . S
H728 C735 0.950 . S
C729 C727 1.387 . S
C729 C731 1.390 . S
C729 H733 0.950 . S
H730 C726 0.950 . S
C731 C729 1.390 . S
C731 C732 1.387 . S
C731 H734 0.950 . S
C732 C731 1.387 . S
C732 C735 1.387 . S
H733 C729 0.950 . S
H734 C731 0.950 . S
C735 C726 1.390 . S
C735 H728 0.950 . S
C735 C732 1.387 . S
C736 C737 1.387 . S
C736 H740 0.950 . S
C736 C745 1.390 . S
C737 C736 1.387 . S
C737 C739 1.387 . S
H738 C745 0.950 . S
C739 C737 1.387 . S
C739 C741 1.390 . S
C739 H743 0.950 . S
H740 C736 0.950 . S
C741 C739 1.390 . S
C741 C742 1.387 . S
C741 H744 0.950 . S
C742 C741 1.387 . S
C742 C745 1.387 . S
H743 C739 0.950 . S
H744 C741 0.950 . S
C745 C736 1.390 . S
C745 H738 0.950 . S
C745 C742 1.387 . S
C746 C747 1.387 . S
C746 H750 0.950 . S
C746 C755 1.390 . S
C747 C746 1.387 . S
C747 C749 1.387 . S
H748 C755 0.950 . S
C749 C747 1.387 . S
C749 C751 1.390 . S
C749 H753 0.950 . S
H750 C746 0.950 . S
C751 C749 1.390 . S
C751 C752 1.387 . S
C751 H754 0.950 . S
C752 C751 1.387 . S
C752 C755 1.387 . S
H753 C749 0.950 . S
H754 C751 0.950 . S
C755 C746 1.390 . S
C755 H748 0.950 . S
C755 C752 1.387 . S
C756 C757 1.387 . S
C756 H760 0.950 . S
C756 C765 1.390 . S
C757 C756 1.387 . S
C757 C759 1.387 . S
H758 C765 0.950 . S
C759 C757 1.387 . S
C759 C761 1.390 . S
C759 H763 0.950 . S
H760 C756 0.950 . S
C761 C759 1.390 . S
C761 C762 1.387 . S
C761 H764 0.950 . S
C762 C761 1.387 . S
C762 C765 1.387 . S
H763 C759 0.950 . S
H764 C761 0.950 . S
C765 C756 1.390 . S
C765 H758 0.950 . S
C765 C762 1.387 . S
C766 C767 1.387 . S
C766 H770 0.950 . S
C766 C775 1.390 . S
C767 C766 1.387 . S
C767 C769 1.387 . S
H768 C775 0.950 . S
C769 C767 1.387 . S
C769 C771 1.390 . S
C769 H773 0.950 . S
H770 C766 0.950 . S
C771 C769 1.390 . S
C771 C772 1.387 . S
C771 H774 0.950 . S
C772 C771 1.387 . S
C772 C775 1.387 . S
H773 C769 0.950 . S
H774 C771 0.950 . S
C775 C766 1.390 . S
C775 H768 0.950 . S
C775 C772 1.387 . S
C776 C777 1.387 . S
C776 H780 0.950 . S
C776 C785 1.390 . S
C777 C776 1.387 . S
C777 C779 1.387 . S
H778 C785 0.950 . S
C779 C777 1.387 . S
C779 C781 1.390 . S
C779 H783 0.950 . S
H780 C776 0.950 . S
C781 C779 1.390 . S
C781 C782 1.387 . S
C781 H784 0.950 . S
C782 C781 1.387 . S
C782 C785 1.387 . S
H783 C779 0.950 . S
H784 C781 0.950 . S
C785 C776 1.390 . S
C785 H778 0.950 . S
C785 C782 1.387 . S
C786 C787 1.387 . S
C786 H790 0.950 . S
C786 C795 1.390 . S
C787 C786 1.387 . S
C787 C789 1.387 . S
H788 C795 0.950 . S
C789 C787 1.387 . S
C789 C791 1.390 . S
C789 H793 0.950 . S
H790 C786 0.950 . S
C791 C789 1.390 . S
C791 C792 1.387 . S
C791 H794 0.950 . S
C792 C791 1.387 . S
C792 C795 1.387 . S
H793 C789 0.950 . S
H794 C791 0.950 . S
C795 C786 1.390 . S
C795 H788 0.950 . S
C795 C792 1.387 . S
C796 C797 1.387 . S
C796 H800 0.950 . S
C796 C805 1.390 . S
C797 C796 1.387 . S
C797 C799 1.387 . S
H798 C805 0.950 . S
C799 C797 1.387 . S
C799 C801 1.390 . S
C799 H803 0.950 . S
H800 C796 0.950 . S
C801 C799 1.390 . S
C801 C802 1.387 . S
C801 H804 0.950 . S
C802 C801 1.387 . S
C802 C805 1.387 . S
H803 C799 0.950 . S
H804 C801 0.950 . S
C805 C796 1.390 . S
C805 H798 0.950 . S
C805 C802 1.387 . S
C806 C807 1.387 . S
C806 H810 0.950 . S
C806 C815 1.390 . S
C807 C806 1.387 . S
C807 C809 1.387 . S
H808 C815 0.950 . S
C809 C807 1.387 . S
C809 C811 1.390 . S
C809 H813 0.950 . S
H810 C806 0.950 . S
C811 C809 1.390 . S
C811 C812 1.387 . S
C811 H814 0.950 . S
C812 C811 1.387 . S
C812 C815 1.387 . S
H813 C809 0.950 . S
H814 C811 0.950 . S
C815 C806 1.390 . S
C815 H808 0.950 . S
C815 C812 1.387 . S
C816 C817 1.387 . S
C816 H820 0.950 . S
C816 C825 1.390 . S
C817 C816 1.387 . S
C817 C819 1.387 . S
H818 C825 0.950 . S
C819 C817 1.387 . S
C819 C821 1.390 . S
C819 H823 0.950 . S
H820 C816 0.950 . S
C821 C819 1.390 . S
C821 C822 1.387 . S
C821 H824 0.950 . S
C822 C821 1.387 . S
C822 C825 1.387 . S
H823 C819 0.950 . S
H824 C821 0.950 . S
C825 C816 1.390 . S
C825 H818 0.950 . S
C825 C822 1.387 . S
C826 C827 1.387 . S
C826 H830 0.950 . S
C826 C835 1.390 . S
C827 C826 1.387 . S
C827 C829 1.387 . S
H828 C835 0.950 . S
C829 C827 1.387 . S
C829 C831 1.390 . S
C829 H833 0.950 . S
H830 C826 0.950 . S
C831 C829 1.390 . S
C831 C832 1.387 . S
C831 H834 0.950 . S
C832 C831 1.387 . S
C832 C835 1.387 . S
H833 C829 0.950 . S
H834 C831 0.950 . S
C835 C826 1.390 . S
C835 H828 0.950 . S
C835 C832 1.387 . S
C836 C837 1.387 . S
C836 H840 0.950 . S
C836 C845 1.390 . S
C837 C836 1.387 . S
C837 C839 1.387 . S
H838 C845 0.950 . S
C839 C837 1.387 . S
C839 C841 1.390 . S
C839 H843 0.950 . S
H840 C836 0.950 . S
C841 C839 1.390 . S
C841 C842 1.387 . S
C841 H844 0.950 . S
C842 C841 1.387 . S
C842 C845 1.387 . S
H843 C839 0.950 . S
H844 C841 0.950 . S
C845 C836 1.390 . S
C845 H838 0.950 . S
C845 C842 1.387 . S
C607 C39 1.797 . S
C612 C339 1.771 . S
C617 C91 1.732 . S
C622 C396 1.735 . S
C632 C450 1.581 . S
C627 C128 1.625 . S
C642 C507 1.503 . S
C637 C188 1.563 . S
C652 C531 1.653 . S
C647 C250 1.663 . S
C662 C588 1.767 . S
C657 C304 1.774 . S
C667 C75 1.689 . S
C672 C435 1.659 . S
C677 C144 1.780 . S
C682 C492 1.778 . S
C692 C546 1.679 . S
C687 C198 1.718 . S
C702 C603 1.528 . S
C697 C234 1.599 . S
C707 C294 1.553 . S
C712 C354 1.521 . S
C722 C411 1.519 . S
C717 C29 1.569 . S
C732 C498 1.771 . S
C727 C38 1.797 . S
C737 C92 1.731 . S
C742 C540 1.675 . S
C752 C579 1.580 . S
C747 C135 1.625 . S
C757 C181 1.564 . S
C762 C348 1.505 . S
C767 C251 1.663 . S
C772 C387 1.632 . S
C777 C303 1.773 . S
C782 C459 1.767 . S
C787 C82 1.689 . S
C792 C594 1.659 . S
C802 C363 1.777 . S
C797 C145 1.779 . S
C807 C197 1.718 . S
C812 C402 1.700 . S
C817 C241 1.598 . S
C822 C444 1.527 . S
C827 C287 1.553 . S
C832 C483 1.522 . S
C837 C22 1.568 . S
C842 C555 1.571 . S
