# Generated by pormake.
# Topology pyr, (3,6)-cn, num edge types: 1
# Building blocks:
#     Node 0, Type 0, BuildingBlock: BETDAH_clean_linker_0, # of connection points: 3
#     Node 1, Type 0, BuildingBlock: BETDAH_clean_linker_0, # of connection points: 3
#     Node 2, Type 0, BuildingBlock: BETDAH_clean_linker_0, # of connection points: 3
#     Node 3, Type 0, BuildingBlock: BETDAH_clean_linker_0, # of connection points: 3
#     Node 4, Type 0, BuildingBlock: BETDAH_clean_linker_0, # of connection points: 3
#     Node 5, Type 0, BuildingBlock: BETDAH_clean_linker_0, # of connection points: 3
#     Node 6, Type 0, BuildingBlock: BETDAH_clean_linker_0, # of connection points: 3
#     Node 7, Type 0, BuildingBlock: BETDAH_clean_linker_0, # of connection points: 3
#     Node 8, Type 1, BuildingBlock: PAMTOO_clean_sbu_0, # of connection points: 6
#     Node 9, Type 1, BuildingBlock: PAMTOO_clean_sbu_0, # of connection points: 6
#     Node 10, Type 1, BuildingBlock: PAMTOO_clean_sbu_0, # of connection points: 6
#     Node 11, Type 1, BuildingBlock: PAMTOO_clean_sbu_0, # of connection points: 6
#     Edge 12, Type (0, 1), BuildingBlock: CIFDUS_clean_linker_0, # of connection points: 2
#     Edge 13, Type (0, 1), BuildingBlock: CIFDUS_clean_linker_0, # of connection points: 2
#     Edge 14, Type (0, 1), BuildingBlock: CIFDUS_clean_linker_0, # of connection points: 2
#     Edge 15, Type (0, 1), BuildingBlock: CIFDUS_clean_linker_0, # of connection points: 2
#     Edge 16, Type (0, 1), BuildingBlock: CIFDUS_clean_linker_0, # of connection points: 2
#     Edge 17, Type (0, 1), BuildingBlock: CIFDUS_clean_linker_0, # of connection points: 2
#     Edge 18, Type (0, 1), BuildingBlock: CIFDUS_clean_linker_0, # of connection points: 2
#     Edge 19, Type (0, 1), BuildingBlock: CIFDUS_clean_linker_0, # of connection points: 2
#     Edge 20, Type (0, 1), BuildingBlock: CIFDUS_clean_linker_0, # of connection points: 2
#     Edge 21, Type (0, 1), BuildingBlock: CIFDUS_clean_linker_0, # of connection points: 2
#     Edge 22, Type (0, 1), BuildingBlock: CIFDUS_clean_linker_0, # of connection points: 2
#     Edge 23, Type (0, 1), BuildingBlock: CIFDUS_clean_linker_0, # of connection points: 2
#     Edge 24, Type (0, 1), BuildingBlock: CIFDUS_clean_linker_0, # of connection points: 2
#     Edge 25, Type (0, 1), BuildingBlock: CIFDUS_clean_linker_0, # of connection points: 2
#     Edge 26, Type (0, 1), BuildingBlock: CIFDUS_clean_linker_0, # of connection points: 2
#     Edge 27, Type (0, 1), BuildingBlock: CIFDUS_clean_linker_0, # of connection points: 2
#     Edge 28, Type (0, 1), BuildingBlock: CIFDUS_clean_linker_0, # of connection points: 2
#     Edge 29, Type (0, 1), BuildingBlock: CIFDUS_clean_linker_0, # of connection points: 2
#     Edge 30, Type (0, 1), BuildingBlock: CIFDUS_clean_linker_0, # of connection points: 2
#     Edge 31, Type (0, 1), BuildingBlock: CIFDUS_clean_linker_0, # of connection points: 2
#     Edge 32, Type (0, 1), BuildingBlock: CIFDUS_clean_linker_0, # of connection points: 2
#     Edge 33, Type (0, 1), BuildingBlock: CIFDUS_clean_linker_0, # of connection points: 2
#     Edge 34, Type (0, 1), BuildingBlock: CIFDUS_clean_linker_0, # of connection points: 2
#     Edge 35, Type (0, 1), BuildingBlock: CIFDUS_clean_linker_0, # of connection points: 2
# Relax obj value: 0.150
# Max RMSD: 0.210
# Mean RMSD: 0.127
data_MOF--net-pyr--node1-PAMTOO_clean_sbu_0--node2-BETDAH_clean_linker_0--edge1-CIFDUS_clean_linker_0
_symmetry_space_group_name_H-M    P1
_symmetry_Int_Tables_number       1
_symmetry_cell_setting            triclinic
loop_
_symmetry_equiv_pos_as_xyz
'x, y, z'
_cell_length_a     31.683762
_cell_length_b     34.964599
_cell_length_c     34.778638
_cell_angle_alpha  90.47346
_cell_angle_beta   90.567846
_cell_angle_gamma 110.52275
loop_
_atom_site_label
_atom_site_type_symbol
_atom_site_fract_x
_atom_site_fract_y
_atom_site_fract_z
_atom_type_partial_charge
H0 H 0.42334 0.26285 0.27045 0.0
H1 H 0.45645 0.34998 0.17876 0.0
H2 H 0.3921 0.37252 0.28025 0.0
C3 C 0.42541 0.29221 0.25904 0.0
C4 C 0.40767 0.31717 0.28038 0.0
C5 C 0.44239 0.30322 0.22205 0.0
C6 C 0.44321 0.34072 0.20715 0.0
C7 C 0.42457 0.36541 0.22769 0.0
C8 C 0.40656 0.35348 0.26428 0.0
N9 N 0.42281 0.40134 0.21034 0.0
C10 C 0.3858 0.41356 0.21409 0.0
H11 H 0.25196 0.79771 0.77696 0.0
H12 H 0.13013 0.82113 0.75297 0.0
H13 H 0.17273 0.74608 0.6754 0.0
C14 C 0.22193 0.79211 0.75935 0.0
C15 C 0.21636 0.76926 0.72504 0.0
C16 C 0.19075 0.81045 0.7699 0.0
C17 C 0.15386 0.80631 0.74555 0.0
C18 C 0.14734 0.78287 0.71161 0.0
C19 C 0.17794 0.76372 0.70191 0.0
N20 N 0.11165 0.78031 0.6858 0.0
C21 C 0.1041 0.81536 0.67448 0.0
H22 H 0.7022 0.37242 0.98187 0.0
H23 H 0.7207 0.44562 0.87975 0.0
H24 H 0.60698 0.3338 0.88856 0.0
C25 C 0.69121 0.37767 0.9535 0.0
C26 C 0.6517 0.34887 0.93798 0.0
C27 C 0.71754 0.41217 0.93284 0.0
C28 C 0.70121 0.41953 0.89646 0.0
C29 C 0.66079 0.39132 0.88063 0.0
C30 C 0.63722 0.35583 0.90124 0.0
N31 N 0.64478 0.39458 0.84266 0.0
C32 C 0.64771 0.4298 0.8223 0.0
H33 H 0.84987 0.74992 0.47813 0.0
H34 H 0.93799 0.78974 0.38247 0.0
H35 H 0.82864 0.67417 0.37593 0.0
C36 C 0.85958 0.74441 0.44946 0.0
C37 C 0.83337 0.70874 0.42916 0.0
C38 C 0.89686 0.77421 0.43307 0.0
C39 C 0.90965 0.76689 0.39591 0.0
C40 C 0.88665 0.73017 0.37574 0.0
C41 C 0.84818 0.70108 0.39239 0.0
N42 N 0.89982 0.72692 0.33697 0.0
C43 C 0.90158 0.69242 0.31721 0.0
H44 H 0.76818 0.80364 0.88252 0.0
H45 H 0.67356 0.75084 0.97235 0.0
H46 H 0.65085 0.83687 0.89476 0.0
C47 C 0.73657 0.79949 0.89664 0.0
C48 C 0.7101 0.8218 0.88385 0.0
C49 C 0.7241 0.77388 0.92863 0.0
C50 C 0.68401 0.77047 0.94766 0.0
C51 C 0.65817 0.79378 0.93615 0.0
C52 C 0.67121 0.81934 0.90412 0.0
N53 N 0.62008 0.79219 0.95799 0.0
C54 C 0.60828 0.8265 0.96349 0.0
H55 H 0.9008 0.24849 0.38587 0.0
H56 H 0.92392 0.32927 0.48389 0.0
H57 H 0.85598 0.35125 0.3834 0.0
C58 C 0.89906 0.27604 0.39922 0.0
C59 C 0.87755 0.29925 0.3797 0.0
C60 C 0.91516 0.28625 0.43697 0.0
C61 C 0.91159 0.32113 0.45467 0.0
C62 C 0.89024 0.34456 0.43562 0.0
C63 C 0.87283 0.33336 0.39819 0.0
N64 N 0.88556 0.37848 0.45522 0.0
C65 C 0.8484 0.39021 0.44985 0.0
H66 H 0.34954 0.75924 0.19713 0.0
H67 H 0.34949 0.67396 0.28637 0.0
H68 H 0.45638 0.79089 0.28118 0.0
C69 C 0.36431 0.7518 0.22294 0.0
C70 C 0.40467 0.78024 0.2374 0.0
C71 C 0.34339 0.71356 0.24036 0.0
C72 C 0.36479 0.70318 0.27266 0.0
C73 C 0.40597 0.73123 0.28724 0.0
C74 C 0.42521 0.76936 0.26945 0.0
N75 N 0.43015 0.72337 0.31934 0.0
C76 C 0.41854 0.69008 0.34419 0.0
H77 H 0.22735 0.35974 0.71238 0.0
H78 H 0.22081 0.4588 0.78344 0.0
H79 H 0.10344 0.35064 0.76779 0.0
C80 C 0.20796 0.37237 0.73069 0.0
C81 C 0.16248 0.34955 0.73765 0.0
C82 C 0.22914 0.41191 0.74614 0.0
C83 C 0.20496 0.42835 0.77146 0.0
C84 C 0.15971 0.40534 0.78028 0.0
C85 C 0.13881 0.36682 0.76243 0.0
N86 N 0.13217 0.42053 0.80386 0.0
C87 C 0.14471 0.44809 0.83499 0.0
Dy88 Dy 0.08269 0.07977 0.5425 0.0
Dy89 Dy 0.9897 0.05947 0.59333 0.0
C90 C 0.07609 0.14137 0.61079 0.0
O91 O 0.07794 0.02605 0.5785 0.0
O92 O 0.03201 0.03204 0.62706 0.0
O93 O 0.15471 0.09371 0.53988 0.0
O94 O 0.11414 0.08253 0.48757 0.0
O95 O 0.98329 1.00223 0.55996 0.0
O96 O 0.02684 0.03311 0.5093 0.0
O97 O 0.98183 0.09554 0.54269 0.0
O98 O 0.05536 0.1271 0.5242 0.0
O99 O 0.91688 0.03474 0.59372 0.0
O100 O 0.95464 0.06208 0.64543 0.0
C101 C 0.0602 0.01596 0.61255 0.0
O102 O 0.10172 0.12731 0.58951 0.0
O103 O 0.03232 0.12244 0.6132 0.0
C104 C 0.18723 0.1303 0.48459 0.0
C105 C 0.24459 0.19619 0.44265 0.0
C106 C 0.20854 0.20044 0.46336 0.0
C107 C 0.18006 0.16769 0.48425 0.0
C108 C 0.22395 0.12637 0.46521 0.0
C109 C 0.25245 0.15902 0.44442 0.0
C110 C 0.15471 0.09435 0.50238 0.0
C111 C 0.99657 1.00101 0.52444 0.0
C112 C 0.01297 0.12403 0.52389 0.0
C113 C 0.88577 1.00853 0.65328 0.0
C114 C 0.83142 0.94767 0.70196 0.0
C115 C 0.87327 0.94677 0.68966 0.0
C116 C 0.90024 0.97699 0.66545 0.0
C117 C 0.84365 1.00898 0.66452 0.0
C118 C 0.81661 0.97876 0.68865 0.0
C119 C 0.91505 0.04213 0.63037 0.0
H120 H 0.20185 0.22876 0.46277 0.0
H121 H 0.1517 0.17112 0.49917 0.0
H122 H 0.2297 0.09758 0.46506 0.0
H123 H 0.27941 0.15447 0.42828 0.0
H124 H 0.88589 0.92354 0.69976 0.0
H125 H 0.9328 0.97631 0.65697 0.0
H126 H 0.83203 0.03313 0.65518 0.0
H127 H 0.78431 0.97995 0.69719 0.0
Dy128 Dy 0.46038 0.0513 0.05708 0.0
Dy129 Dy 0.55905 0.07061 0.09868 0.0
C130 C 0.4748 0.99267 0.12303 0.0
O131 O 0.47276 0.10775 0.09225 0.0
O132 O 0.52104 0.09802 0.13734 0.0
O133 O 0.38801 0.03534 0.06061 0.0
O134 O 0.4213 0.0494 1.00574 0.0
O135 O 0.56276 0.12722 0.0669 0.0
O136 O 0.51199 0.09527 1.01962 0.0
O137 O 0.5592 0.03485 1.04503 0.0
O138 O 0.4832 1.00121 1.03724 0.0
O139 O 0.63167 0.09617 0.09559 0.0
O140 O 0.59949 0.06653 0.14753 0.0
C141 C 0.49381 0.11661 0.1256 0.0
O142 O 0.44794 1.01058 0.10867 0.0
O143 O 0.51834 1.00714 0.1168 0.0
C144 C 0.34931 0.9997 1.00561 0.0
C145 C 0.29037 0.93513 0.96106 0.0
C146 C 0.33085 0.93275 0.97595 0.0
C147 C 0.36 0.96473 0.99813 0.0
C148 C 0.30802 1.00138 0.99271 0.0
C149 C 0.27862 0.96924 0.97072 0.0
C150 C 0.38289 0.03585 1.0234 0.0
C151 C 0.5452 0.12734 1.0326 0.0
C152 C 0.52498 1.00427 1.03086 0.0
C153 C 0.66663 0.1222 0.15505 0.0
C154 C 0.71889 0.18339 0.20656 0.0
C155 C 0.6815 0.18755 0.18729 0.0
C156 C 0.65548 0.1571 0.16177 0.0
C157 C 0.70449 0.11842 0.17325 0.0
C158 C 0.73042 0.14871 0.19881 0.0
C159 C 0.63722 0.08823 0.1315 0.0
H160 H 0.34132 0.90726 0.96873 0.0
H161 H 0.39186 0.96302 1.00791 0.0
H162 H 0.29929 0.02819 0.99842 0.0
H163 H 0.24739 0.97171 0.96024 0.0
H164 H 0.67195 0.214 0.19238 0.0
H165 H 0.62609 0.16031 0.14797 0.0
H166 H 0.71323 0.09144 0.16858 0.0
H167 H 0.75843 0.14409 0.21365 0.0
Dy168 Dy 0.5197 0.52525 0.56409 0.0
Dy169 Dy 0.53768 0.60695 0.61701 0.0
C170 C 0.5743 0.53617 0.64331 0.0
O171 O 0.46662 0.50913 0.61005 0.0
O172 O 0.46361 0.57274 0.61795 0.0
O173 O 0.50715 0.4604 0.56119 0.0
O174 O 0.51077 0.49431 0.50897 0.0
O175 O 0.51408 0.6218 0.55999 0.0
O176 O 0.47865 0.55774 0.5341 0.0
O177 O 0.6043 0.61827 0.58913 0.0
O178 O 0.58198 0.57127 0.53941 0.0
O179 O 0.5565 0.6722 0.62556 0.0
O180 O 0.53467 0.6315 0.67363 0.0
C181 C 0.44609 0.53332 0.62307 0.0
O182 O 0.57364 0.52594 0.60679 0.0
O183 O 0.5551 0.56209 0.65438 0.0
C184 C 0.54655 0.44622 0.50976 0.0
C185 C 0.61627 0.42036 0.48397 0.0
C186 C 0.62619 0.45701 0.50506 0.0
C187 C 0.5917 0.46977 0.51778 0.0
C188 C 0.53619 0.40973 0.48862 0.0
C189 C 0.57087 0.39679 0.47584 0.0
C190 C 0.51105 0.46037 0.52392 0.0
C191 C 0.48755 0.59749 0.53376 0.0
C192 C 0.61168 0.6038 0.55574 0.0
C193 C 0.50705 0.68487 0.66972 0.0
C194 C 0.43311 0.70688 0.69133 0.0
C195 C 0.43156 0.68486 0.65702 0.0
C196 C 0.46815 0.67393 0.64637 0.0
C197 C 0.5093 0.70759 0.70351 0.0
C198 C 0.47262 0.71863 0.71422 0.0
C199 C 0.54247 0.66824 0.66093 0.0
H200 H 0.66064 0.47546 0.51254 0.0
H201 H 0.60028 0.49797 0.53426 0.0
H202 H 0.50144 0.39126 0.48216 0.0
H203 H 0.56222 0.3685 0.45953 0.0
H204 H 0.40147 0.67479 0.63905 0.0
H205 H 0.4655 0.65575 0.62046 0.0
H206 H 0.53889 0.71587 0.72207 0.0
H207 H 0.47499 0.73598 0.7406 0.0
Dy208 Dy 0.03547 0.60156 0.05816 0.0
Dy209 Dy 0.02864 0.52433 0.11365 0.0
C210 C 0.98394 0.59074 0.13881 0.0
O211 O 0.08955 0.62537 0.10318 0.0
O212 O 0.10077 0.56616 0.11774 0.0
O213 O 0.04402 0.6653 0.05245 0.0
O214 O 0.03639 0.62719 1.00173 0.0
O215 O 0.05137 0.50908 0.05648 0.0
O216 O 0.08039 0.57234 1.02942 0.0
O217 O 0.95932 0.50645 0.08693 0.0
O218 O 0.97367 0.55178 1.03681 0.0
O219 O 0.01722 0.46028 0.1223 0.0
O220 O 0.03618 0.50258 0.17034 0.0
C221 C 0.11371 0.60609 0.11955 0.0
O222 O 0.98374 0.60064 0.10238 0.0
O223 O 1.00485 0.5662 0.15014 0.0
C224 C 0.99885 0.67396 1.00185 0.0
C225 C 0.92545 0.69361 0.9739 0.0
C226 C 0.92005 0.66716 1.00511 0.0
C227 C 0.95639 0.65726 1.01884 0.0
C228 C 1.00451 0.70038 0.97075 0.0
C229 C 0.96801 0.71012 0.9568 0.0
C230 C 0.03625 0.6619 1.01547 0.0
C231 C 0.07491 0.53322 1.02956 0.0
C232 C 0.94749 0.51903 0.05422 0.0
C233 C 0.06985 0.45305 0.16702 0.0
C234 C 0.14577 0.43286 0.18716 0.0
C235 C 0.14807 0.46047 0.15741 0.0
C236 C 0.1105 0.47043 0.14745 0.0
C237 C 0.06702 0.42514 0.19643 0.0
C238 C 0.10471 0.41494 0.20635 0.0
C239 C 0.03171 0.46615 0.15783 0.0
H240 H 0.88754 0.65359 1.0185 0.0
H241 H 0.95125 0.63625 1.04252 0.0
H242 H 0.037 0.71322 0.95715 0.0
H243 H 0.97315 0.73086 0.93289 0.0
H244 H 0.17891 0.47423 0.14161 0.0
H245 H 0.11329 0.49205 0.12463 0.0
H246 H 0.03594 0.41168 0.21199 0.0
H247 H 0.102 0.39371 0.22949 0.0
H248 H 0.32465 0.31214 0.30415 0.0
H249 H 0.44413 0.2892 0.34018 0.0
H250 H 0.40544 0.25404 0.39717 0.0
H251 H 0.33517 0.22278 0.43215 0.0
H252 H 0.21429 0.24204 0.39384 0.0
H253 H 0.25627 0.28674 0.34315 0.0
C254 C 0.34247 0.30033 0.32503 0.0
C255 C 0.38694 0.30286 0.31796 0.0
C256 C 0.31967 0.2793 0.35719 0.0
C257 C 0.40966 0.28715 0.34496 0.0
C258 C 0.38758 0.26704 0.37745 0.0
C259 C 0.31813 0.23706 0.4129 0.0
C260 C 0.2716 0.22867 0.41647 0.0
C261 C 0.34214 0.26171 0.38311 0.0
C262 C 0.25014 0.2481 0.39187 0.0
C263 C 0.27404 0.2734 0.36262 0.0
H264 H 0.21075 0.79119 0.84136 0.0
H265 H 0.19015 0.88793 0.77656 0.0
H266 H 0.21461 0.93417 0.83206 0.0
H267 H 0.25034 0.94901 0.89583 0.0
H268 H 0.27065 0.85222 0.9611 0.0
H269 H 0.23802 0.80402 0.90836 0.0
C270 C 0.21118 0.82229 0.83966 0.0
C271 C 0.19916 0.83637 0.80498 0.0
C272 C 0.22567 0.84872 0.87149 0.0
C273 C 0.19915 0.87646 0.80307 0.0
C274 C 0.21341 0.90294 0.83468 0.0
C275 C 0.24651 0.91716 0.89909 0.0
C276 C 0.26346 0.90441 0.93225 0.0
C277 C 0.22785 0.88967 0.86866 0.0
C278 C 0.2587 0.86304 0.93559 0.0
C279 C 0.23995 0.83543 0.9055 0.0
H280 H 0.6544 0.42681 0.74536 0.0
H281 H 0.62161 0.49463 0.83697 0.0
H282 H 0.59777 0.53515 0.78973 0.0
H283 H 0.58142 0.5481 0.72206 0.0
H284 H 0.61357 0.47887 0.63077 0.0
H285 H 0.64241 0.44252 0.67782 0.0
C286 C 0.6429 0.45108 0.75489 0.0
C287 C 0.64038 0.45817 0.79459 0.0
C288 C 0.62857 0.47376 0.72748 0.0
C289 C 0.62454 0.48906 0.8066 0.0
C290 C 0.61058 0.512 0.77953 0.0
C291 C 0.59508 0.52533 0.71235 0.0
C292 C 0.59495 0.51636 0.67257 0.0
C293 C 0.61168 0.50418 0.73982 0.0
C294 C 0.61296 0.48662 0.66092 0.0
C295 C 0.62952 0.46566 0.68794 0.0
H296 H 0.89406 0.69346 0.24011 0.0
H297 H 0.93512 0.63218 0.33219 0.0
H298 H 0.96254 0.59369 0.28522 0.0
H299 H 0.97914 0.5806 0.21766 0.0
H300 H 0.93863 0.6434 0.12597 0.0
H301 H 0.90684 0.6777 0.17272 0.0
C302 C 0.90825 0.67107 0.24981 0.0
C303 C 0.912 0.66524 0.28958 0.0
C304 C 0.92456 0.64954 0.22256 0.0
C305 C 0.93125 0.63677 0.30177 0.0
C306 C 0.94722 0.61498 0.27485 0.0
C307 C 0.96302 0.6015 0.20778 0.0
C308 C 0.96166 0.60924 0.16794 0.0
C309 C 0.94473 0.62154 0.2351 0.0
C310 C 0.9405 0.63661 0.15614 0.0
C311 C 0.92222 0.65641 0.18299 0.0
H312 H 0.48841 0.25346 0.24328 0.0
H313 H 0.42152 0.28498 0.14626 0.0
H314 H 0.43238 0.23061 0.10799 0.0
H315 H 0.45659 0.1718 0.10306 0.0
H316 H 0.52235 0.13869 0.19991 0.0
H317 H 0.51533 0.19557 0.23749 0.0
C318 C 0.4763 0.24847 0.21373 0.0
C319 C 0.45416 0.27334 0.19774 0.0
C320 C 0.48177 0.21649 0.19204 0.0
C321 C 0.4393 0.26682 0.1592 0.0
C322 C 0.44499 0.23538 0.13738 0.0
C323 C 0.46924 0.1768 0.13246 0.0
C324 C 0.48937 0.15062 0.14882 0.0
C325 C 0.46543 0.20962 0.15372 0.0
C326 C 0.50632 0.15813 0.18671 0.0
C327 C 0.50244 0.19072 0.20819 0.0
H328 H 0.05781 0.85986 0.70473 0.0
H329 H 0.14563 0.85473 0.6126 0.0
H330 H 0.14264 0.91865 0.58681 0.0
H331 H 0.1131 0.97414 0.58917 0.0
H332 H 0.02332 0.97945 0.68004 0.0
H333 H 0.02951 0.91765 0.70805 0.0
C334 C 0.07614 0.87297 0.67903 0.0
C335 C 0.10157 0.85297 0.66015 0.0
C336 C 0.07412 0.90969 0.66437 0.0
C337 C 0.12562 0.86985 0.62717 0.0
C338 C 0.124 0.90632 0.61256 0.0
C339 C 0.09512 0.96214 0.61531 0.0
C340 C 0.06774 0.9815 0.63239 0.0
C341 C 0.09813 0.92631 0.63077 0.0
C342 C 0.04478 0.96532 0.6663 0.0
C343 C 0.04809 0.92981 0.68224 0.0
H344 H 0.7761 0.38839 0.9768 0.0
H345 H 0.76154 0.49601 0.92719 0.0
H346 H 0.83167 0.53843 0.95952 0.0
H347 H 0.89565 0.54507 1.00451 0.0
H348 H 0.90277 0.43719 0.05943 0.0
H349 H 0.83547 0.39505 1.02393 0.0
C350 C 0.78716 0.42122 0.97358 0.0
C351 C 0.7623 0.43871 0.94992 0.0
C352 C 0.82603 0.44554 0.99383 0.0
C353 C 0.7795 0.48131 0.94492 0.0
C354 C 0.81949 0.50571 0.96381 0.0
C355 C 0.88226 0.51234 1.00885 0.0
C356 C 0.90433 0.49433 1.03475 0.0
C357 C 0.84274 0.4882 0.98878 0.0
C358 C 0.88638 0.45193 1.0401 0.0
C359 C 0.84804 0.42776 1.01954 0.0
H360 H 0.77544 0.73249 0.47282 0.0
H361 H 0.79123 0.62415 0.42476 0.0
H362 H 0.72321 0.58181 0.45831 0.0
H363 H 0.66083 0.57577 0.50448 0.0
H364 H 0.65445 0.68555 0.55777 0.0
H365 H 0.71855 0.72684 0.52046 0.0
C366 C 0.76518 0.69957 0.4702 0.0
C367 C 0.78979 0.68185 0.44675 0.0
C368 C 0.72777 0.6755 0.49114 0.0
C369 C 0.77347 0.63901 0.44245 0.0
C370 C 0.73469 0.61469 0.46201 0.0
C371 C 0.67375 0.60872 0.50801 0.0
C372 C 0.65282 0.62749 0.53416 0.0
C373 C 0.71186 0.63259 0.48697 0.0
C374 C 0.67006 0.6702 0.53838 0.0
C375 C 0.70659 0.69392 0.51678 0.0
H376 H 0.3008 0.36172 0.21794 0.0
H377 H 0.38218 0.48909 0.20979 0.0
H378 H 0.31413 0.50685 0.20321 0.0
H379 H 0.23192 0.48546 0.19582 0.0
H380 H 0.15035 0.35767 0.20193 0.0
H381 H 0.21784 0.34064 0.21396 0.0
C382 C 0.30331 0.39334 0.21519 0.0
C383 C 0.34587 0.42422 0.21433 0.0
C384 C 0.26413 0.40311 0.21095 0.0
C385 C 0.3494 0.46505 0.21061 0.0
C386 C 0.31062 0.47512 0.20673 0.0
C387 C 0.22893 0.45387 0.19976 0.0
C388 C 0.18623 0.42283 0.1976 0.0
C389 C 0.26787 0.4443 0.20616 0.0
C390 C 0.18279 0.38214 0.20362 0.0
C391 C 0.22138 0.37236 0.21026 0.0
H392 H 0.61315 0.26965 0.91115 0.0
H393 H 0.63538 0.34253 1.01528 0.0
H394 H 0.60625 0.28093 0.05338 0.0
H395 H 0.57719 0.20607 0.0579 0.0
H396 H 0.54886 0.13265 0.95421 0.0
H397 H 0.57713 0.19445 0.91536 0.0
C398 C 0.61088 0.27216 0.94209 0.0
C399 C 0.62749 0.31099 0.96017 0.0
C400 C 0.59332 0.23635 0.96408 0.0
C401 C 0.62415 0.31325 1.00045 0.0
C402 C 0.60728 0.27795 1.02239 0.0
C403 C 0.57735 0.20362 1.02679 0.0
C404 C 0.56163 0.1648 1.00899 0.0
C405 C 0.59257 0.23931 1.00463 0.0
C406 C 0.56103 0.16216 0.96862 0.0
C407 C 0.57718 0.19752 0.9464 0.0
H408 H 0.9274 0.85271 0.40538 0.0
H409 H 0.9185 0.78471 0.50987 0.0
H410 H 0.94605 0.84811 0.54718 0.0
H411 H 0.97062 0.92317 0.55094 0.0
H412 H 0.98515 0.99186 0.44651 0.0
H413 H 0.95782 0.92831 0.40865 0.0
C414 C 0.93223 0.8517 0.4362 0.0
C415 C 0.92001 0.81359 0.45464 0.0
C416 C 0.94871 0.8886 0.45772 0.0
C417 C 0.92648 0.8133 0.49478 0.0
C418 C 0.94239 0.84967 0.51627 0.0
C419 C 0.96752 0.9242 0.5199 0.0
C420 C 0.97923 0.96225 0.50166 0.0
C421 C 0.9529 0.8875 0.49819 0.0
C422 C 0.97608 0.96302 0.46132 0.0
C423 C 0.96051 0.92663 0.43963 0.0
H424 H 0.26757 0.73693 0.76844 0.0
H425 H 0.2482 0.77032 0.65208 0.0
H426 H 0.3128 0.75328 0.63139 0.0
H427 H 0.37744 0.73278 0.64691 0.0
H428 H 0.39827 0.70127 0.76351 0.0
H429 H 0.33152 0.71533 0.78377 0.0
C430 C 0.2775 0.74058 0.73856 0.0
C431 C 0.25289 0.75489 0.71193 0.0
C432 C 0.31549 0.73182 0.727 0.0
C433 C 0.26589 0.75872 0.67316 0.0
C434 C 0.30323 0.74945 0.66134 0.0
C435 C 0.36717 0.72865 0.6767 0.0
C436 C 0.39297 0.71618 0.70367 0.0
C437 C 0.3286 0.73651 0.6881 0.0
C438 C 0.37949 0.71151 0.74227 0.0
C439 C 0.34109 0.71918 0.75382 0.0
H440 H 0.7401 0.80383 0.81586 0.0
H441 H 0.71349 0.90067 0.87697 0.0
H442 H 0.74582 0.94753 0.82443 0.0
H443 H 0.78773 0.96232 0.76409 0.0
H444 H 0.81532 0.86558 0.7035 0.0
H445 H 0.77719 0.8174 0.75335 0.0
C446 C 0.74126 0.83518 0.81756 0.0
C447 C 0.72484 0.84891 0.85032 0.0
C448 C 0.76053 0.86201 0.78765 0.0
C449 C 0.72572 0.88934 0.85193 0.0
C450 C 0.7445 0.9162 0.82206 0.0
C451 C 0.78464 0.93053 0.76138 0.0
C452 C 0.80461 0.91762 0.73025 0.0
C453 C 0.7628 0.90305 0.79016 0.0
C454 C 0.80086 0.87643 0.72749 0.0
C455 C 0.77891 0.84884 0.75587 0.0
H456 H 0.79228 0.28878 0.35651 0.0
H457 H 0.91625 0.27748 0.31767 0.0
H458 H 0.87891 0.24453 0.25807 0.0
H459 H 0.80947 0.21307 0.22021 0.0
H460 H 0.68435 0.22038 0.26125 0.0
H461 H 0.72393 0.2619 0.31609 0.0
C462 C 0.81129 0.27992 0.33457 0.0
C463 C 0.85681 0.2853 0.34142 0.0
C464 C 0.78935 0.26016 0.30085 0.0
C465 C 0.88103 0.27327 0.31305 0.0
C466 C 0.85971 0.25444 0.27905 0.0
C467 C 0.79088 0.22387 0.24108 0.0
C468 C 0.74394 0.21323 0.23678 0.0
C469 C 0.81359 0.24667 0.27318 0.0
C470 C 0.72053 0.2283 0.26362 0.0
C471 C 0.74307 0.25176 0.29523 0.0
H472 H 0.4329 0.71214 0.41825 0.0
H473 H 0.41154 0.60998 0.34121 0.0
H474 H 0.42773 0.57037 0.3939 0.0
H475 H 0.45431 0.56716 0.46131 0.0
H476 H 0.47814 0.67176 0.53644 0.0
H477 H 0.45458 0.70759 0.48562 0.0
C478 C 0.43081 0.68084 0.41326 0.0
C479 C 0.42036 0.66374 0.3761 0.0
C480 C 0.44123 0.65877 0.44346 0.0
C481 C 0.41877 0.62354 0.36974 0.0
C482 C 0.4284 0.60105 0.39986 0.0
C483 C 0.45374 0.59755 0.46671 0.0
C484 C 0.46841 0.61664 0.50291 0.0
C485 C 0.44059 0.61861 0.43679 0.0
C486 C 0.46759 0.65624 0.50902 0.0
C487 C 0.45401 0.67689 0.47987 0.0
H488 H 0.12534 0.42065 0.90714 0.0
H489 H 0.15746 0.52907 0.839 0.0
H490 H 0.14154 0.56648 0.89383 0.0
H491 H 0.11229 0.56661 0.96016 0.0
H492 H 0.07909 0.45665 1.02696 0.0
H493 H 0.10164 0.42215 0.9743 0.0
C494 C 0.12988 0.45276 0.90464 0.0
C495 C 0.14328 0.47225 0.86924 0.0
C496 C 0.1198 0.4738 0.93614 0.0
C497 C 0.14797 0.51357 0.86613 0.0
C498 C 0.13846 0.53487 0.89746 0.0
C499 C 0.11053 0.53529 0.96342 0.0
C500 C 0.09351 0.51445 0.99783 0.0
C501 C 0.12344 0.5151 0.9325 0.0
C502 C 0.09154 0.47369 1.00106 0.0
C503 C 0.10453 0.45374 0.9708 0.0
H504 H 0.52834 0.8372 0.96363 0.0
H505 H 0.67094 0.89864 0.98177 0.0
H506 H 0.65829 0.96126 1.00121 0.0
H507 H 0.60615 0.99654 1.01741 0.0
H508 H 0.46297 0.9347 1.00018 0.0
H509 H 0.47631 0.87451 0.97549 0.0
C510 C 0.55647 0.86456 0.97149 0.0
C511 C 0.60037 0.8638 0.97162 0.0
C512 C 0.54883 0.90023 0.98281 0.0
C513 C 0.63686 0.89898 0.9817 0.0
C514 C 0.62962 0.93463 0.9928 0.0
C515 C 0.57784 0.97014 1.00781 0.0
C516 C 0.53362 0.97013 1.011 0.0
C517 C 0.58566 0.93538 0.9941 0.0
C518 C 0.4974 0.93559 0.99826 0.0
C519 C 0.50494 0.90102 0.98423 0.0
H520 H 0.98061 0.25657 0.41731 0.0
H521 H 0.88442 0.25209 0.50553 0.0
H522 H 0.90515 0.20027 0.53968 0.0
H523 H 0.94926 0.15507 0.54354 0.0
H524 H 0.04913 0.16245 0.45784 0.0
H525 H 0.02828 0.21414 0.42335 0.0
C526 C 0.96455 0.24435 0.44416 0.0
C527 C 0.93118 0.25796 0.45903 0.0
C528 C 0.97697 0.2149 0.46378 0.0
C529 C 0.91058 0.24224 0.49387 0.0
C530 C 0.92215 0.21246 0.5132 0.0
C531 C 0.9662 0.16786 0.51717 0.0
C532 C 1.0001 0.15468 0.50282 0.0
C533 C 0.95497 0.1983 0.49823 0.0
C534 C 0.02268 0.17207 0.4692 0.0
C535 C 0.01082 0.2016 0.44955 0.0
H536 H 0.27363 0.73421 0.21324 0.0
H537 H 0.31388 0.62963 0.2293 0.0
H538 H 0.246 0.58652 0.19417 0.0
H539 H 0.17708 0.57974 0.1551 0.0
H540 H 0.1424 0.68726 0.13643 0.0
H541 H 0.20689 0.72794 0.17511 0.0
C542 C 0.26798 0.70203 0.2089 0.0
C543 C 0.2995 0.68551 0.22355 0.0
C544 C 0.23002 0.67793 0.18749 0.0
C545 C 0.29036 0.64335 0.21859 0.0
C546 C 0.25171 0.61874 0.19808 0.0
C547 C 0.18374 0.61209 0.15938 0.0
C548 C 0.15471 0.63025 0.14241 0.0
C549 C 0.22165 0.63587 0.18171 0.0
C550 C 0.16399 0.67226 0.14862 0.0
C551 C 0.20091 0.69568 0.17101 0.0
H552 H 0.25944 0.48565 0.70989 0.0
H553 H 0.30258 0.389 0.75053 0.0
H554 H 0.37284 0.41706 0.71523 0.0
H555 H 0.41979 0.4661 0.66868 0.0
H556 H 0.37872 0.56463 0.62976 0.0
H557 H 0.3102 0.53886 0.66793 0.0
C558 C 0.28485 0.47151 0.71189 0.0
C559 C 0.27575 0.43531 0.73295 0.0
C560 C 0.32518 0.48759 0.69092 0.0
C561 C 0.30879 0.41696 0.73468 0.0
C562 C 0.34882 0.43277 0.71415 0.0
C563 C 0.39571 0.48177 0.66839 0.0
C564 C 0.404 0.51676 0.64571 0.0
C565 C 0.35687 0.46739 0.69129 0.0
C566 C 0.37297 0.53734 0.64655 0.0
C567 C 0.33381 0.52271 0.66855 0.0
H568 H 0.77416 0.7391 0.88724 0.0
H569 H 0.74466 0.7641 1.00378 0.0
H570 H 0.8024 0.73893 1.02803 0.0
H571 H 0.86572 0.71553 1.01595 0.0
H572 H 0.89857 0.695 0.89933 0.0
H573 H 0.83605 0.71412 0.87523 0.0
C574 C 0.78037 0.73917 0.91797 0.0
C575 C 0.75516 0.75377 0.94356 0.0
C576 C 0.8148 0.72616 0.93168 0.0
C577 C 0.76303 0.75262 0.98334 0.0
C578 C 0.79647 0.73867 0.99727 0.0
C579 C 0.85883 0.71482 0.98529 0.0
C580 C 0.88677 0.70407 0.95942 0.0
C581 C 0.82316 0.72619 0.97166 0.0
C582 C 0.87786 0.70371 0.91975 0.0
C583 C 0.84199 0.71439 0.90599 0.0
H584 H 0.36183 0.83005 0.20894 0.0
H585 H 0.49411 0.82245 0.2231 0.0
H586 H 0.5274 0.88757 0.19039 0.0
H587 H 0.51891 0.94585 0.15579 0.0
H588 H 0.38623 0.95251 0.14071 0.0
H589 H 0.35343 0.88861 0.17521 0.0
C590 C 0.39795 0.84242 0.2047 0.0
C591 C 0.42526 0.82097 0.21853 0.0
C592 C 0.41692 0.87983 0.18548 0.0
C593 C 0.47214 0.83821 0.21327 0.0
C594 C 0.49124 0.87543 0.19427 0.0
C595 C 0.48281 0.9335 0.16013 0.0
C596 C 0.45523 0.9543 0.14546 0.0
C597 C 0.46396 0.89643 0.18002 0.0
C598 C 0.40849 0.93748 0.15153 0.0
C599 C 0.38959 0.90078 0.1713 0.0
H600 H 0.18139 0.32222 0.66737 0.0
H601 H 0.09228 0.28254 0.76396 0.0
H602 H 0.05662 0.21609 0.73288 0.0
H603 H 0.05167 0.16789 0.67869 0.0
H604 H 0.14747 0.20579 0.58688 0.0
H605 H 0.18053 0.27346 0.61656 0.0
C606 C 0.15498 0.29907 0.68248 0.0
C607 C 0.14013 0.30828 0.71848 0.0
C608 C 0.13585 0.26004 0.6653 0.0
C609 C 0.10437 0.27741 0.73611 0.0
C610 C 0.0841 0.23893 0.71847 0.0
C611 C 0.0799 0.19097 0.66531 0.0
C612 C 0.09704 0.18168 0.63055 0.0
C613 C 0.09965 0.22978 0.68312 0.0
C614 C 0.13382 0.21188 0.61374 0.0
C615 C 0.15263 0.25073 0.63062 0.0
H616 H 0.76462 0.34014 0.46321 0.0
H617 H 0.84361 0.46362 0.43323 0.0
H618 H 0.77659 0.48322 0.43733 0.0
H619 H 0.69719 0.46613 0.45446 0.0
H620 H 0.61899 0.34316 0.48768 0.0
H621 H 0.6836 0.322 0.47631 0.0
C622 C 0.76673 0.37114 0.4571 0.0
C623 C 0.80838 0.40059 0.44802 0.0
C624 C 0.72832 0.38214 0.46011 0.0
C625 C 0.81148 0.44068 0.44022 0.0
C626 C 0.77332 0.45181 0.44267 0.0
C627 C 0.69426 0.43466 0.45911 0.0
C628 C 0.65348 0.40637 0.4723 0.0
C629 C 0.73181 0.42298 0.45341 0.0
C630 C 0.64988 0.3655 0.47734 0.0
C631 C 0.68693 0.35345 0.47116 0.0
loop_
_geom_bond_atom_site_label_1
_geom_bond_atom_site_label_2
_geom_bond_distance
_geom_bond_site_symmetry_2
_ccdc_geom_bond_type
H0 C3 0.929 . S
H1 C6 0.929 . S
H2 C8 0.930 . S
C3 H0 0.929 . S
C3 C4 1.398 . S
C3 C5 1.396 . S
C4 C3 1.398 . S
C4 C8 1.407 . S
C5 C3 1.396 . S
C5 C6 1.394 . S
C6 H1 0.929 . S
C6 C5 1.394 . S
C6 C7 1.382 . S
C7 C6 1.382 . S
C7 C8 1.392 . S
C7 N9 1.420 . S
C8 H2 0.930 . S
C8 C4 1.407 . S
C8 C7 1.392 . S
N9 C7 1.420 . S
N9 C10 1.244 . S
C10 N9 1.244 . S
H11 C14 0.929 . S
H12 C17 0.929 . S
H13 C19 0.930 . S
C14 H11 0.929 . S
C14 C15 1.398 . S
C14 C16 1.396 . S
C15 C14 1.398 . S
C15 C19 1.407 . S
C16 C14 1.396 . S
C16 C17 1.394 . S
C17 H12 0.929 . S
C17 C16 1.394 . S
C17 C18 1.382 . S
C18 C17 1.382 . S
C18 C19 1.392 . S
C18 N20 1.420 . S
C19 H13 0.930 . S
C19 C15 1.407 . S
C19 C18 1.392 . S
N20 C18 1.420 . S
N20 C21 1.244 . S
C21 N20 1.244 . S
H22 C25 0.929 . S
H23 C28 0.929 . S
H24 C30 0.930 . S
C25 H22 0.929 . S
C25 C26 1.398 . S
C25 C27 1.396 . S
C26 C25 1.398 . S
C26 C30 1.407 . S
C27 C25 1.396 . S
C27 C28 1.394 . S
C28 H23 0.929 . S
C28 C27 1.394 . S
C28 C29 1.382 . S
C29 C28 1.382 . S
C29 C30 1.392 . S
C29 N31 1.420 . S
C30 H24 0.930 . S
C30 C26 1.407 . S
C30 C29 1.392 . S
N31 C29 1.420 . S
N31 C32 1.244 . S
C32 N31 1.244 . S
H33 C36 0.929 . S
H34 C39 0.929 . S
H35 C41 0.930 . S
C36 H33 0.929 . S
C36 C37 1.398 . S
C36 C38 1.396 . S
C37 C36 1.398 . S
C37 C41 1.407 . S
C38 C36 1.396 . S
C38 C39 1.394 . S
C39 H34 0.929 . S
C39 C38 1.394 . S
C39 C40 1.382 . S
C40 C39 1.382 . S
C40 C41 1.392 . S
C40 N42 1.420 . S
C41 H35 0.930 . S
C41 C37 1.407 . S
C41 C40 1.392 . S
N42 C40 1.420 . S
N42 C43 1.244 . S
C43 N42 1.244 . S
H44 C47 0.929 . S
H45 C50 0.929 . S
H46 C52 0.930 . S
C47 H44 0.929 . S
C47 C48 1.398 . S
C47 C49 1.396 . S
C48 C47 1.398 . S
C48 C52 1.407 . S
C49 C47 1.396 . S
C49 C50 1.394 . S
C50 H45 0.929 . S
C50 C49 1.394 . S
C50 C51 1.382 . S
C51 C50 1.382 . S
C51 C52 1.392 . S
C51 N53 1.420 . S
C52 H46 0.930 . S
C52 C48 1.407 . S
C52 C51 1.392 . S
N53 C51 1.420 . S
N53 C54 1.244 . S
C54 N53 1.244 . S
H55 C58 0.929 . S
H56 C61 0.929 . S
H57 C63 0.930 . S
C58 H55 0.929 . S
C58 C59 1.398 . S
C58 C60 1.396 . S
C59 C58 1.398 . S
C59 C63 1.407 . S
C60 C58 1.396 . S
C60 C61 1.394 . S
C61 H56 0.929 . S
C61 C60 1.394 . S
C61 C62 1.382 . S
C62 C61 1.382 . S
C62 C63 1.392 . S
C62 N64 1.420 . S
C63 H57 0.930 . S
C63 C59 1.407 . S
C63 C62 1.392 . S
N64 C62 1.420 . S
N64 C65 1.244 . S
C65 N64 1.244 . S
H66 C69 0.929 . S
H67 C72 0.929 . S
H68 C74 0.930 . S
C69 H66 0.929 . S
C69 C70 1.398 . S
C69 C71 1.396 . S
C70 C69 1.398 . S
C70 C74 1.407 . S
C71 C69 1.396 . S
C71 C72 1.394 . S
C72 H67 0.929 . S
C72 C71 1.394 . S
C72 C73 1.382 . S
C73 C72 1.382 . S
C73 C74 1.392 . S
C73 N75 1.420 . S
C74 H68 0.930 . S
C74 C70 1.407 . S
C74 C73 1.392 . S
N75 C73 1.420 . S
N75 C76 1.244 . S
C76 N75 1.244 . S
H77 C80 0.929 . S
H78 C83 0.929 . S
H79 C85 0.930 . S
C80 H77 0.929 . S
C80 C81 1.398 . S
C80 C82 1.396 . S
C81 C80 1.398 . S
C81 C85 1.407 . S
C82 C80 1.396 . S
C82 C83 1.394 . S
C83 H78 0.929 . S
C83 C82 1.394 . S
C83 C84 1.382 . S
C84 C83 1.382 . S
C84 C85 1.392 . S
C84 N86 1.420 . S
C85 H79 0.930 . S
C85 C81 1.407 . S
C85 C84 1.392 . S
N86 C84 1.420 . S
N86 C87 1.244 . S
C87 N86 1.244 . S
Dy88 O91 2.307 1_545 S
Dy88 O93 2.395 . S
Dy88 O94 2.379 . S
Dy88 O96 2.339 1_545 S
Dy88 O98 2.298 . S
Dy88 O102 2.275 . S
Dy88 C110 2.738 . S
Dy89 O92 2.298 1_645 S
Dy89 O95 2.275 1_545 S
Dy89 O97 2.307 . S
Dy89 O99 2.395 1_545 S
Dy89 O100 2.379 . S
Dy89 O103 2.339 1_655 S
Dy89 C119 2.738 1_545 S
C90 O102 1.254 . S
C90 O103 1.257 . S
O91 Dy88 2.307 1_565 S
O91 C101 1.266 . S
O92 Dy89 2.298 1_465 S
O92 C101 1.236 . S
O93 Dy88 2.395 . S
O93 C110 1.255 . S
O94 Dy88 2.379 . S
O94 C110 1.249 . S
O95 Dy89 2.275 1_565 S
O95 C111 1.254 . S
O96 Dy88 2.339 1_565 S
O96 C111 1.257 1_455 S
O97 Dy89 2.307 . S
O97 C112 1.266 . S
O98 Dy88 2.298 . S
O98 C112 1.236 1_455 S
O99 Dy89 2.395 1_565 S
O99 C119 1.255 . S
O100 Dy89 2.379 . S
O100 C119 1.249 1_545 S
C101 O91 1.266 . S
C101 O92 1.236 . S
O102 Dy88 2.275 . S
O102 C90 1.254 . S
O103 Dy89 2.339 1_455 S
O103 C90 1.257 . S
C104 C107 1.344 . S
C104 C108 1.328 . S
C104 C110 1.516 . S
C105 C106 1.304 . S
C105 C109 1.323 . S
C106 C105 1.304 . S
C106 C107 1.371 . S
C106 H120 0.930 . S
C107 C104 1.344 . S
C107 C106 1.371 . S
C107 H121 0.931 . S
C108 C104 1.328 . S
C108 C109 1.433 . S
C108 H122 0.931 . S
C109 C105 1.323 . S
C109 C108 1.433 . S
C109 H123 0.933 . S
C110 Dy88 2.738 . S
C110 O93 1.255 . S
C110 O94 1.249 . S
C110 C104 1.516 . S
C111 O95 1.254 . S
C111 O96 1.257 1_655 S
C112 O97 1.266 . S
C112 O98 1.236 1_655 S
C113 C116 1.344 . S
C113 C117 1.328 . S
C113 C119 1.516 . S
C114 C115 1.304 . S
C114 C118 1.323 . S
C115 C114 1.304 . S
C115 C116 1.371 . S
C115 H124 0.930 . S
C116 C113 1.344 . S
C116 C115 1.371 . S
C116 H125 0.931 . S
C117 C113 1.328 . S
C117 C118 1.433 . S
C117 H126 0.931 . S
C118 C114 1.323 . S
C118 C117 1.433 . S
C118 H127 0.933 . S
C119 Dy89 2.738 1_565 S
C119 O99 1.255 . S
C119 O100 1.249 1_565 S
C119 C113 1.516 . S
H120 C106 0.930 . S
H121 C107 0.931 . S
H122 C108 0.931 . S
H123 C109 0.933 . S
H124 C115 0.930 . S
H125 C116 0.931 . S
H126 C117 0.931 . S
H127 C118 0.933 . S
Dy128 O131 2.307 . S
Dy128 O133 2.395 1_544 S
Dy128 O134 2.379 1_554 S
Dy128 O136 2.339 1_554 S
Dy128 O138 2.298 1_544 S
Dy128 O142 2.275 1_545 S
Dy128 C150 2.738 1_544 S
Dy129 O132 2.298 . S
Dy129 O135 2.275 . S
Dy129 O137 2.307 1_545 S
Dy129 O139 2.395 . S
Dy129 O140 2.379 . S
Dy129 O143 2.339 1_545 S
Dy129 C159 2.738 . S
C130 O142 1.254 . S
C130 O143 1.257 . S
O131 Dy128 2.307 . S
O131 C141 1.266 . S
O132 Dy129 2.298 . S
O132 C141 1.236 . S
O133 Dy128 2.395 1_566 S
O133 C150 1.255 . S
O134 Dy128 2.379 1_556 S
O134 C150 1.249 1_545 S
O135 Dy129 2.275 . S
O135 C151 1.254 . S
O136 Dy128 2.339 1_556 S
O136 C151 1.257 1_556 S
O137 Dy129 2.307 1_565 S
O137 C152 1.266 . S
O138 Dy128 2.298 1_566 S
O138 C152 1.236 1_556 S
O139 Dy129 2.395 . S
O139 C159 1.255 . S
O140 Dy129 2.379 . S
O140 C159 1.249 . S
C141 O131 1.266 . S
C141 O132 1.236 . S
O142 Dy128 2.275 1_565 S
O142 C130 1.254 . S
O143 Dy129 2.339 1_565 S
O143 C130 1.257 . S
C144 C147 1.344 . S
C144 C148 1.328 . S
C144 C150 1.516 . S
C145 C146 1.304 . S
C145 C149 1.323 . S
C146 C145 1.304 . S
C146 C147 1.371 . S
C146 H160 0.930 . S
C147 C144 1.344 . S
C147 C146 1.371 . S
C147 H161 0.931 . S
C148 C144 1.328 . S
C148 C149 1.433 . S
C148 H162 0.931 . S
C149 C145 1.323 . S
C149 C148 1.433 . S
C149 H163 0.933 . S
C150 Dy128 2.738 1_566 S
C150 O133 1.255 . S
C150 O134 1.249 1_565 S
C150 C144 1.516 . S
C151 O135 1.254 . S
C151 O136 1.257 1_554 S
C152 O137 1.266 . S
C152 O138 1.236 1_554 S
C153 C156 1.344 . S
C153 C157 1.328 . S
C153 C159 1.516 . S
C154 C155 1.304 . S
C154 C158 1.323 . S
C155 C154 1.304 . S
C155 C156 1.371 . S
C155 H164 0.930 . S
C156 C153 1.344 . S
C156 C155 1.371 . S
C156 H165 0.931 . S
C157 C153 1.328 . S
C157 C158 1.433 . S
C157 H166 0.931 . S
C158 C154 1.323 . S
C158 C157 1.433 . S
C158 H167 0.933 . S
C159 Dy129 2.738 . S
C159 O139 1.255 . S
C159 O140 1.249 . S
C159 C153 1.516 . S
H160 C146 0.930 . S
H161 C147 0.931 . S
H162 C148 0.931 . S
H163 C149 0.933 . S
H164 C155 0.930 . S
H165 C156 0.931 . S
H166 C157 0.931 . S
H167 C158 0.933 . S
Dy168 O171 2.307 . S
Dy168 O173 2.395 . S
Dy168 O174 2.379 . S
Dy168 O176 2.339 . S
Dy168 O178 2.298 . S
Dy168 O182 2.275 . S
Dy168 C190 2.738 . S
Dy169 O172 2.298 . S
Dy169 O175 2.275 . S
Dy169 O177 2.307 . S
Dy169 O179 2.395 . S
Dy169 O180 2.379 . S
Dy169 O183 2.339 . S
Dy169 C199 2.738 . S
C170 O182 1.254 . S
C170 O183 1.257 . S
O171 Dy168 2.307 . S
O171 C181 1.266 . S
O172 Dy169 2.298 . S
O172 C181 1.236 . S
O173 Dy168 2.395 . S
O173 C190 1.255 . S
O174 Dy168 2.379 . S
O174 C190 1.249 . S
O175 Dy169 2.275 . S
O175 C191 1.254 . S
O176 Dy168 2.339 . S
O176 C191 1.257 . S
O177 Dy169 2.307 . S
O177 C192 1.266 . S
O178 Dy168 2.298 . S
O178 C192 1.236 . S
O179 Dy169 2.395 . S
O179 C199 1.255 . S
O180 Dy169 2.379 . S
O180 C199 1.249 . S
C181 O171 1.266 . S
C181 O172 1.236 . S
O182 Dy168 2.275 . S
O182 C170 1.254 . S
O183 Dy169 2.339 . S
O183 C170 1.257 . S
C184 C187 1.344 . S
C184 C188 1.328 . S
C184 C190 1.516 . S
C185 C186 1.304 . S
C185 C189 1.323 . S
C186 C185 1.304 . S
C186 C187 1.371 . S
C186 H200 0.930 . S
C187 C184 1.344 . S
C187 C186 1.371 . S
C187 H201 0.931 . S
C188 C184 1.328 . S
C188 C189 1.433 . S
C188 H202 0.931 . S
C189 C185 1.323 . S
C189 C188 1.433 . S
C189 H203 0.933 . S
C190 Dy168 2.738 . S
C190 O173 1.255 . S
C190 O174 1.249 . S
C190 C184 1.516 . S
C191 O175 1.254 . S
C191 O176 1.257 . S
C192 O177 1.266 . S
C192 O178 1.236 . S
C193 C196 1.344 . S
C193 C197 1.328 . S
C193 C199 1.516 . S
C194 C195 1.304 . S
C194 C198 1.323 . S
C195 C194 1.304 . S
C195 C196 1.371 . S
C195 H204 0.930 . S
C196 C193 1.344 . S
C196 C195 1.371 . S
C196 H205 0.931 . S
C197 C193 1.328 . S
C197 C198 1.433 . S
C197 H206 0.931 . S
C198 C194 1.323 . S
C198 C197 1.433 . S
C198 H207 0.933 . S
C199 Dy169 2.738 . S
C199 O179 1.255 . S
C199 O180 1.249 . S
C199 C193 1.516 . S
H200 C186 0.930 . S
H201 C187 0.931 . S
H202 C188 0.931 . S
H203 C189 0.933 . S
H204 C195 0.930 . S
H205 C196 0.931 . S
H206 C197 0.931 . S
H207 C198 0.933 . S
Dy208 O211 2.307 1_556 S
Dy208 O213 2.395 1_455 S
Dy208 O214 2.379 . S
Dy208 O216 2.339 . S
Dy208 O218 2.298 1_455 S
Dy208 O222 2.275 1_556 S
Dy208 C230 2.738 1_455 S
Dy209 O212 2.298 . S
Dy209 O215 2.275 1_554 S
Dy209 O217 2.307 1_455 S
Dy209 O219 2.395 . S
Dy209 O220 2.379 . S
Dy209 O223 2.339 . S
Dy209 C239 2.738 . S
C210 O222 1.254 . S
C210 O223 1.257 . S
O211 Dy208 2.307 1_554 S
O211 C221 1.266 . S
O212 Dy209 2.298 . S
O212 C221 1.236 . S
O213 Dy208 2.395 1_655 S
O213 C230 1.255 . S
O214 Dy208 2.379 . S
O214 C230 1.249 1_455 S
O215 Dy209 2.275 1_556 S
O215 C231 1.254 . S
O216 Dy208 2.339 . S
O216 C231 1.257 . S
O217 Dy209 2.307 1_655 S
O217 C232 1.266 1_554 S
O218 Dy208 2.298 1_655 S
O218 C232 1.236 . S
O219 Dy209 2.395 . S
O219 C239 1.255 . S
O220 Dy209 2.379 . S
O220 C239 1.249 . S
C221 O211 1.266 . S
C221 O212 1.236 . S
O222 Dy208 2.275 1_554 S
O222 C210 1.254 . S
O223 Dy209 2.339 . S
O223 C210 1.257 . S
C224 C227 1.344 . S
C224 C228 1.328 . S
C224 C230 1.516 . S
C225 C226 1.304 . S
C225 C229 1.323 . S
C226 C225 1.304 . S
C226 C227 1.371 . S
C226 H240 0.930 . S
C227 C224 1.344 . S
C227 C226 1.371 . S
C227 H241 0.931 . S
C228 C224 1.328 . S
C228 C229 1.433 . S
C228 H242 0.931 . S
C229 C225 1.323 . S
C229 C228 1.433 . S
C229 H243 0.933 . S
C230 Dy208 2.738 1_655 S
C230 O213 1.255 . S
C230 O214 1.249 1_655 S
C230 C224 1.516 . S
C231 O215 1.254 . S
C231 O216 1.257 . S
C232 O217 1.266 1_556 S
C232 O218 1.236 . S
C233 C236 1.344 . S
C233 C237 1.328 . S
C233 C239 1.516 . S
C234 C235 1.304 . S
C234 C238 1.323 . S
C235 C234 1.304 . S
C235 C236 1.371 . S
C235 H244 0.930 . S
C236 C233 1.344 . S
C236 C235 1.371 . S
C236 H245 0.931 . S
C237 C233 1.328 . S
C237 C238 1.433 . S
C237 H246 0.931 . S
C238 C234 1.323 . S
C238 C237 1.433 . S
C238 H247 0.933 . S
C239 Dy209 2.738 . S
C239 O219 1.255 . S
C239 O220 1.249 . S
C239 C233 1.516 . S
H240 C226 0.930 . S
H241 C227 0.931 . S
H242 C228 0.931 . S
H243 C229 0.933 . S
H244 C235 0.930 . S
H245 C236 0.931 . S
H246 C237 0.931 . S
H247 C238 0.933 . S
H248 C254 0.930 . S
H249 C257 0.930 . S
H250 C258 0.930 . S
H251 C259 0.930 . S
H252 C262 0.930 . S
H253 C263 0.930 . S
C254 H248 0.930 . S
C254 C255 1.355 . S
C254 C256 1.415 . S
C255 C254 1.355 . S
C255 C257 1.419 . S
C256 C254 1.415 . S
C256 C261 1.425 . S
C256 C263 1.409 . S
C257 H249 0.930 . S
C257 C255 1.419 . S
C257 C258 1.362 . S
C258 H250 0.930 . S
C258 C257 1.362 . S
C258 C261 1.409 . S
C259 H251 0.930 . S
C259 C260 1.355 . S
C259 C261 1.415 . S
C260 C259 1.355 . S
C260 C262 1.419 . S
C261 C256 1.425 . S
C261 C258 1.409 . S
C261 C259 1.415 . S
C262 H252 0.930 . S
C262 C260 1.419 . S
C262 C263 1.362 . S
C263 H253 0.930 . S
C263 C256 1.409 . S
C263 C262 1.362 . S
H264 C270 0.930 . S
H265 C273 0.930 . S
H266 C274 0.930 . S
H267 C275 0.930 . S
H268 C278 0.930 . S
H269 C279 0.930 . S
C270 H264 0.930 . S
C270 C271 1.355 . S
C270 C272 1.415 . S
C271 C270 1.355 . S
C271 C273 1.419 . S
C272 C270 1.415 . S
C272 C277 1.425 . S
C272 C279 1.409 . S
C273 H265 0.930 . S
C273 C271 1.419 . S
C273 C274 1.362 . S
C274 H266 0.930 . S
C274 C273 1.362 . S
C274 C277 1.409 . S
C275 H267 0.930 . S
C275 C276 1.355 . S
C275 C277 1.415 . S
C276 C275 1.355 . S
C276 C278 1.419 . S
C277 C272 1.425 . S
C277 C274 1.409 . S
C277 C275 1.415 . S
C278 H268 0.930 . S
C278 C276 1.419 . S
C278 C279 1.362 . S
C279 H269 0.930 . S
C279 C272 1.409 . S
C279 C278 1.362 . S
H280 C286 0.930 . S
H281 C289 0.930 . S
H282 C290 0.930 . S
H283 C291 0.930 . S
H284 C294 0.930 . S
H285 C295 0.930 . S
C286 H280 0.930 . S
C286 C287 1.355 . S
C286 C288 1.415 . S
C287 C286 1.355 . S
C287 C289 1.419 . S
C288 C286 1.415 . S
C288 C293 1.425 . S
C288 C295 1.409 . S
C289 H281 0.930 . S
C289 C287 1.419 . S
C289 C290 1.362 . S
C290 H282 0.930 . S
C290 C289 1.362 . S
C290 C293 1.409 . S
C291 H283 0.930 . S
C291 C292 1.355 . S
C291 C293 1.415 . S
C292 C291 1.355 . S
C292 C294 1.419 . S
C293 C288 1.425 . S
C293 C290 1.409 . S
C293 C291 1.415 . S
C294 H284 0.930 . S
C294 C292 1.419 . S
C294 C295 1.362 . S
C295 H285 0.930 . S
C295 C288 1.409 . S
C295 C294 1.362 . S
H296 C302 0.930 . S
H297 C305 0.930 . S
H298 C306 0.930 1_455 S
H299 C307 0.930 1_455 S
H300 C310 0.930 . S
H301 C311 0.930 . S
C302 H296 0.930 . S
C302 C303 1.355 . S
C302 C304 1.415 . S
C303 C302 1.355 . S
C303 C305 1.419 . S
C304 C302 1.415 . S
C304 C309 1.425 . S
C304 C311 1.409 . S
C305 H297 0.930 . S
C305 C303 1.419 . S
C305 C306 1.362 . S
C306 H298 0.930 1_655 S
C306 C305 1.362 . S
C306 C309 1.409 . S
C307 H299 0.930 1_655 S
C307 C308 1.355 . S
C307 C309 1.415 . S
C308 C307 1.355 . S
C308 C310 1.419 . S
C309 C304 1.425 . S
C309 C306 1.409 . S
C309 C307 1.415 . S
C310 H300 0.930 . S
C310 C308 1.419 . S
C310 C311 1.362 . S
C311 H301 0.930 . S
C311 C304 1.409 . S
C311 C310 1.362 . S
H312 C318 0.930 . S
H313 C321 0.930 . S
H314 C322 0.930 . S
H315 C323 0.930 . S
H316 C326 0.930 . S
H317 C327 0.930 . S
C318 H312 0.930 . S
C318 C319 1.355 . S
C318 C320 1.415 . S
C319 C318 1.355 . S
C319 C321 1.419 . S
C320 C318 1.415 . S
C320 C325 1.425 . S
C320 C327 1.409 . S
C321 H313 0.930 . S
C321 C319 1.419 . S
C321 C322 1.362 . S
C322 H314 0.930 . S
C322 C321 1.362 . S
C322 C325 1.409 . S
C323 H315 0.930 . S
C323 C324 1.355 . S
C323 C325 1.415 . S
C324 C323 1.355 . S
C324 C326 1.419 . S
C325 C320 1.425 . S
C325 C322 1.409 . S
C325 C323 1.415 . S
C326 H316 0.930 . S
C326 C324 1.419 . S
C326 C327 1.362 . S
C327 H317 0.930 . S
C327 C320 1.409 . S
C327 C326 1.362 . S
H328 C334 0.930 1_655 S
H329 C337 0.930 . S
H330 C338 0.930 . S
H331 C339 0.930 . S
H332 C342 0.930 1_655 S
H333 C343 0.930 . S
C334 H328 0.930 1_455 S
C334 C335 1.355 . S
C334 C336 1.415 . S
C335 C334 1.355 . S
C335 C337 1.419 . S
C336 C334 1.415 . S
C336 C341 1.425 . S
C336 C343 1.409 1_455 S
C337 H329 0.930 . S
C337 C335 1.419 . S
C337 C338 1.362 . S
C338 H330 0.930 . S
C338 C337 1.362 . S
C338 C341 1.409 . S
C339 H331 0.930 . S
C339 C340 1.355 . S
C339 C341 1.415 . S
C340 C339 1.355 . S
C340 C342 1.419 . S
C341 C336 1.425 . S
C341 C338 1.409 . S
C341 C339 1.415 . S
C342 H332 0.930 1_455 S
C342 C340 1.419 . S
C342 C343 1.362 1_455 S
C343 H333 0.930 . S
C343 C336 1.409 1_655 S
C343 C342 1.362 1_655 S
H344 C350 0.930 . S
H345 C353 0.930 . S
H346 C354 0.930 . S
H347 C355 0.930 . S
H348 C358 0.930 . S
H349 C359 0.930 . S
C350 H344 0.930 . S
C350 C351 1.355 . S
C350 C352 1.415 . S
C351 C350 1.355 . S
C351 C353 1.419 . S
C352 C350 1.415 . S
C352 C357 1.425 . S
C352 C359 1.409 . S
C353 H345 0.930 . S
C353 C351 1.419 . S
C353 C354 1.362 . S
C354 H346 0.930 . S
C354 C353 1.362 . S
C354 C357 1.409 . S
C355 H347 0.930 . S
C355 C356 1.355 . S
C355 C357 1.415 . S
C356 C355 1.355 . S
C356 C358 1.419 . S
C357 C352 1.425 . S
C357 C354 1.409 . S
C357 C355 1.415 . S
C358 H348 0.930 . S
C358 C356 1.419 . S
C358 C359 1.362 . S
C359 H349 0.930 . S
C359 C352 1.409 . S
C359 C358 1.362 . S
H360 C366 0.930 . S
H361 C369 0.930 . S
H362 C370 0.930 . S
H363 C371 0.930 . S
H364 C374 0.930 . S
H365 C375 0.930 . S
C366 H360 0.930 . S
C366 C367 1.355 . S
C366 C368 1.415 . S
C367 C366 1.355 . S
C367 C369 1.419 . S
C368 C366 1.415 . S
C368 C373 1.425 . S
C368 C375 1.409 . S
C369 H361 0.930 . S
C369 C367 1.419 . S
C369 C370 1.362 . S
C370 H362 0.930 . S
C370 C369 1.362 . S
C370 C373 1.409 . S
C371 H363 0.930 . S
C371 C372 1.355 . S
C371 C373 1.415 . S
C372 C371 1.355 . S
C372 C374 1.419 . S
C373 C368 1.425 . S
C373 C370 1.409 . S
C373 C371 1.415 . S
C374 H364 0.930 . S
C374 C372 1.419 . S
C374 C375 1.362 . S
C375 H365 0.930 . S
C375 C368 1.409 . S
C375 C374 1.362 . S
H376 C382 0.930 . S
H377 C385 0.930 . S
H378 C386 0.930 . S
H379 C387 0.930 . S
H380 C390 0.930 . S
H381 C391 0.930 . S
C382 H376 0.930 . S
C382 C383 1.355 . S
C382 C384 1.415 . S
C383 C382 1.355 . S
C383 C385 1.419 . S
C384 C382 1.415 . S
C384 C389 1.425 . S
C384 C391 1.409 . S
C385 H377 0.930 . S
C385 C383 1.419 . S
C385 C386 1.362 . S
C386 H378 0.930 . S
C386 C385 1.362 . S
C386 C389 1.409 . S
C387 H379 0.930 . S
C387 C388 1.355 . S
C387 C389 1.415 . S
C388 C387 1.355 . S
C388 C390 1.419 . S
C389 C384 1.425 . S
C389 C386 1.409 . S
C389 C387 1.415 . S
C390 H380 0.930 . S
C390 C388 1.419 . S
C390 C391 1.362 . S
C391 H381 0.930 . S
C391 C384 1.409 . S
C391 C390 1.362 . S
H392 C398 0.930 . S
H393 C401 0.930 . S
H394 C402 0.930 1_554 S
H395 C403 0.930 1_554 S
H396 C406 0.930 . S
H397 C407 0.930 . S
C398 H392 0.930 . S
C398 C399 1.355 . S
C398 C400 1.415 . S
C399 C398 1.355 . S
C399 C401 1.419 . S
C400 C398 1.415 . S
C400 C405 1.425 . S
C400 C407 1.409 . S
C401 H393 0.930 . S
C401 C399 1.419 . S
C401 C402 1.362 . S
C402 H394 0.930 1_556 S
C402 C401 1.362 . S
C402 C405 1.409 . S
C403 H395 0.930 1_556 S
C403 C404 1.355 . S
C403 C405 1.415 . S
C404 C403 1.355 . S
C404 C406 1.419 . S
C405 C400 1.425 . S
C405 C402 1.409 . S
C405 C403 1.415 . S
C406 H396 0.930 . S
C406 C404 1.419 . S
C406 C407 1.362 . S
C407 H397 0.930 . S
C407 C400 1.409 . S
C407 C406 1.362 . S
H408 C414 0.930 . S
H409 C417 0.930 . S
H410 C418 0.930 . S
H411 C419 0.930 . S
H412 C422 0.930 . S
H413 C423 0.930 . S
C414 H408 0.930 . S
C414 C415 1.355 . S
C414 C416 1.415 . S
C415 C414 1.355 . S
C415 C417 1.419 . S
C416 C414 1.415 . S
C416 C421 1.425 . S
C416 C423 1.409 . S
C417 H409 0.930 . S
C417 C415 1.419 . S
C417 C418 1.362 . S
C418 H410 0.930 . S
C418 C417 1.362 . S
C418 C421 1.409 . S
C419 H411 0.930 . S
C419 C420 1.355 . S
C419 C421 1.415 . S
C420 C419 1.355 . S
C420 C422 1.419 . S
C421 C416 1.425 . S
C421 C418 1.409 . S
C421 C419 1.415 . S
C422 H412 0.930 . S
C422 C420 1.419 . S
C422 C423 1.362 . S
C423 H413 0.930 . S
C423 C416 1.409 . S
C423 C422 1.362 . S
H424 C430 0.930 . S
H425 C433 0.930 . S
H426 C434 0.930 . S
H427 C435 0.930 . S
H428 C438 0.930 . S
H429 C439 0.930 . S
C430 H424 0.930 . S
C430 C431 1.355 . S
C430 C432 1.415 . S
C431 C430 1.355 . S
C431 C433 1.419 . S
C432 C430 1.415 . S
C432 C437 1.425 . S
C432 C439 1.409 . S
C433 H425 0.930 . S
C433 C431 1.419 . S
C433 C434 1.362 . S
C434 H426 0.930 . S
C434 C433 1.362 . S
C434 C437 1.409 . S
C435 H427 0.930 . S
C435 C436 1.355 . S
C435 C437 1.415 . S
C436 C435 1.355 . S
C436 C438 1.419 . S
C437 C432 1.425 . S
C437 C434 1.409 . S
C437 C435 1.415 . S
C438 H428 0.930 . S
C438 C436 1.419 . S
C438 C439 1.362 . S
C439 H429 0.930 . S
C439 C432 1.409 . S
C439 C438 1.362 . S
H440 C446 0.930 . S
H441 C449 0.930 . S
H442 C450 0.930 . S
H443 C451 0.930 . S
H444 C454 0.930 . S
H445 C455 0.930 . S
C446 H440 0.930 . S
C446 C447 1.355 . S
C446 C448 1.415 . S
C447 C446 1.355 . S
C447 C449 1.419 . S
C448 C446 1.415 . S
C448 C453 1.425 . S
C448 C455 1.409 . S
C449 H441 0.930 . S
C449 C447 1.419 . S
C449 C450 1.362 . S
C450 H442 0.930 . S
C450 C449 1.362 . S
C450 C453 1.409 . S
C451 H443 0.930 . S
C451 C452 1.355 . S
C451 C453 1.415 . S
C452 C451 1.355 . S
C452 C454 1.419 . S
C453 C448 1.425 . S
C453 C450 1.409 . S
C453 C451 1.415 . S
C454 H444 0.930 . S
C454 C452 1.419 . S
C454 C455 1.362 . S
C455 H445 0.930 . S
C455 C448 1.409 . S
C455 C454 1.362 . S
H456 C462 0.930 . S
H457 C465 0.930 . S
H458 C466 0.930 . S
H459 C467 0.930 . S
H460 C470 0.930 . S
H461 C471 0.930 . S
C462 H456 0.930 . S
C462 C463 1.355 . S
C462 C464 1.415 . S
C463 C462 1.355 . S
C463 C465 1.419 . S
C464 C462 1.415 . S
C464 C469 1.425 . S
C464 C471 1.409 . S
C465 H457 0.930 . S
C465 C463 1.419 . S
C465 C466 1.362 . S
C466 H458 0.930 . S
C466 C465 1.362 . S
C466 C469 1.409 . S
C467 H459 0.930 . S
C467 C468 1.355 . S
C467 C469 1.415 . S
C468 C467 1.355 . S
C468 C470 1.419 . S
C469 C464 1.425 . S
C469 C466 1.409 . S
C469 C467 1.415 . S
C470 H460 0.930 . S
C470 C468 1.419 . S
C470 C471 1.362 . S
C471 H461 0.930 . S
C471 C464 1.409 . S
C471 C470 1.362 . S
H472 C478 0.930 . S
H473 C481 0.930 . S
H474 C482 0.930 . S
H475 C483 0.930 . S
H476 C486 0.930 . S
H477 C487 0.930 . S
C478 H472 0.930 . S
C478 C479 1.355 . S
C478 C480 1.415 . S
C479 C478 1.355 . S
C479 C481 1.419 . S
C480 C478 1.415 . S
C480 C485 1.425 . S
C480 C487 1.409 . S
C481 H473 0.930 . S
C481 C479 1.419 . S
C481 C482 1.362 . S
C482 H474 0.930 . S
C482 C481 1.362 . S
C482 C485 1.409 . S
C483 H475 0.930 . S
C483 C484 1.355 . S
C483 C485 1.415 . S
C484 C483 1.355 . S
C484 C486 1.419 . S
C485 C480 1.425 . S
C485 C482 1.409 . S
C485 C483 1.415 . S
C486 H476 0.930 . S
C486 C484 1.419 . S
C486 C487 1.362 . S
C487 H477 0.930 . S
C487 C480 1.409 . S
C487 C486 1.362 . S
H488 C494 0.930 . S
H489 C497 0.930 . S
H490 C498 0.930 . S
H491 C499 0.930 . S
H492 C502 0.930 . S
H493 C503 0.930 . S
C494 H488 0.930 . S
C494 C495 1.355 . S
C494 C496 1.415 . S
C495 C494 1.355 . S
C495 C497 1.419 . S
C496 C494 1.415 . S
C496 C501 1.425 . S
C496 C503 1.409 . S
C497 H489 0.930 . S
C497 C495 1.419 . S
C497 C498 1.362 . S
C498 H490 0.930 . S
C498 C497 1.362 . S
C498 C501 1.409 . S
C499 H491 0.930 . S
C499 C500 1.355 . S
C499 C501 1.415 . S
C500 C499 1.355 . S
C500 C502 1.419 . S
C501 C496 1.425 . S
C501 C498 1.409 . S
C501 C499 1.415 . S
C502 H492 0.930 . S
C502 C500 1.419 . S
C502 C503 1.362 . S
C503 H493 0.930 . S
C503 C496 1.409 . S
C503 C502 1.362 . S
H504 C510 0.930 . S
H505 C513 0.930 . S
H506 C514 0.950 . S
H507 C515 0.930 1_554 S
H508 C518 0.930 . S
H509 C519 0.930 . S
C510 H504 0.930 . S
C510 C511 1.355 . S
C510 C512 1.415 . S
C511 C510 1.355 . S
C511 C513 1.419 . S
C512 C510 1.415 . S
C512 C517 1.425 . S
C512 C519 1.409 . S
C513 H505 0.930 . S
C513 C511 1.419 . S
C513 C514 1.362 . S
C514 H506 0.950 . S
C514 C513 1.362 . S
C514 C517 1.409 . S
C515 H507 0.930 1_556 S
C515 C516 1.355 . S
C515 C517 1.415 . S
C516 C515 1.355 . S
C516 C518 1.419 . S
C517 C512 1.425 . S
C517 C514 1.409 . S
C517 C515 1.415 . S
C518 H508 0.930 . S
C518 C516 1.419 . S
C518 C519 1.362 . S
C519 H509 0.930 . S
C519 C512 1.409 . S
C519 C518 1.362 . S
H520 C526 0.930 . S
H521 C529 0.930 . S
H522 C530 0.930 . S
H523 C531 0.930 . S
H524 C534 0.930 . S
H525 C535 0.930 . S
C526 H520 0.930 . S
C526 C527 1.355 . S
C526 C528 1.415 . S
C527 C526 1.355 . S
C527 C529 1.419 . S
C528 C526 1.415 . S
C528 C533 1.425 . S
C528 C535 1.409 1_655 S
C529 H521 0.930 . S
C529 C527 1.419 . S
C529 C530 1.362 . S
C530 H522 0.930 . S
C530 C529 1.362 . S
C530 C533 1.409 . S
C531 H523 0.930 . S
C531 C532 1.355 . S
C531 C533 1.415 . S
C532 C531 1.355 . S
C532 C534 1.419 1_655 S
C533 C528 1.425 . S
C533 C530 1.409 . S
C533 C531 1.415 . S
C534 H524 0.930 . S
C534 C532 1.419 1_455 S
C534 C535 1.362 . S
C535 H525 0.930 . S
C535 C528 1.409 1_455 S
C535 C534 1.362 . S
H536 C542 0.930 . S
H537 C545 0.930 . S
H538 C546 0.930 . S
H539 C547 0.930 . S
H540 C550 0.930 . S
H541 C551 0.930 . S
C542 H536 0.930 . S
C542 C543 1.355 . S
C542 C544 1.415 . S
C543 C542 1.355 . S
C543 C545 1.419 . S
C544 C542 1.415 . S
C544 C549 1.425 . S
C544 C551 1.409 . S
C545 H537 0.930 . S
C545 C543 1.419 . S
C545 C546 1.362 . S
C546 H538 0.930 . S
C546 C545 1.362 . S
C546 C549 1.409 . S
C547 H539 0.930 . S
C547 C548 1.355 . S
C547 C549 1.415 . S
C548 C547 1.355 . S
C548 C550 1.419 . S
C549 C544 1.425 . S
C549 C546 1.409 . S
C549 C547 1.415 . S
C550 H540 0.930 . S
C550 C548 1.419 . S
C550 C551 1.362 . S
C551 H541 0.930 . S
C551 C544 1.409 . S
C551 C550 1.362 . S
H552 C558 0.930 . S
H553 C561 0.930 . S
H554 C562 0.930 . S
H555 C563 0.930 . S
H556 C566 0.930 . S
H557 C567 0.930 . S
C558 H552 0.930 . S
C558 C559 1.355 . S
C558 C560 1.415 . S
C559 C558 1.355 . S
C559 C561 1.419 . S
C560 C558 1.415 . S
C560 C565 1.425 . S
C560 C567 1.409 . S
C561 H553 0.930 . S
C561 C559 1.419 . S
C561 C562 1.362 . S
C562 H554 0.930 . S
C562 C561 1.362 . S
C562 C565 1.409 . S
C563 H555 0.930 . S
C563 C564 1.355 . S
C563 C565 1.415 . S
C564 C563 1.355 . S
C564 C566 1.419 . S
C565 C560 1.425 . S
C565 C562 1.409 . S
C565 C563 1.415 . S
C566 H556 0.930 . S
C566 C564 1.419 . S
C566 C567 1.362 . S
C567 H557 0.930 . S
C567 C560 1.409 . S
C567 C566 1.362 . S
H568 C574 0.930 . S
H569 C577 0.930 . S
H570 C578 0.930 . S
H571 C579 0.930 . S
H572 C582 0.930 . S
H573 C583 0.930 . S
C574 H568 0.930 . S
C574 C575 1.355 . S
C574 C576 1.415 . S
C575 C574 1.355 . S
C575 C577 1.419 . S
C576 C574 1.415 . S
C576 C581 1.425 . S
C576 C583 1.409 . S
C577 H569 0.930 . S
C577 C575 1.419 . S
C577 C578 1.362 . S
C578 H570 0.930 . S
C578 C577 1.362 . S
C578 C581 1.409 . S
C579 H571 0.930 . S
C579 C580 1.355 . S
C579 C581 1.415 . S
C580 C579 1.355 . S
C580 C582 1.419 . S
C581 C576 1.425 . S
C581 C578 1.409 . S
C581 C579 1.415 . S
C582 H572 0.930 . S
C582 C580 1.419 . S
C582 C583 1.362 . S
C583 H573 0.930 . S
C583 C576 1.409 . S
C583 C582 1.362 . S
H584 C590 0.930 . S
H585 C593 0.930 . S
H586 C594 0.930 . S
H587 C595 0.930 . S
H588 C598 0.930 . S
H589 C599 0.930 . S
C590 H584 0.930 . S
C590 C591 1.355 . S
C590 C592 1.415 . S
C591 C590 1.355 . S
C591 C593 1.419 . S
C592 C590 1.415 . S
C592 C597 1.425 . S
C592 C599 1.409 . S
C593 H585 0.930 . S
C593 C591 1.419 . S
C593 C594 1.362 . S
C594 H586 0.930 . S
C594 C593 1.362 . S
C594 C597 1.409 . S
C595 H587 0.930 . S
C595 C596 1.355 . S
C595 C597 1.415 . S
C596 C595 1.355 . S
C596 C598 1.419 . S
C597 C592 1.425 . S
C597 C594 1.409 . S
C597 C595 1.415 . S
C598 H588 0.930 . S
C598 C596 1.419 . S
C598 C599 1.362 . S
C599 H589 0.930 . S
C599 C592 1.409 . S
C599 C598 1.362 . S
H600 C606 0.930 . S
H601 C609 0.930 . S
H602 C610 0.930 . S
H603 C611 0.930 . S
H604 C614 0.930 . S
H605 C615 0.930 . S
C606 H600 0.930 . S
C606 C607 1.355 . S
C606 C608 1.415 . S
C607 C606 1.355 . S
C607 C609 1.419 . S
C608 C606 1.415 . S
C608 C613 1.425 . S
C608 C615 1.409 . S
C609 H601 0.930 . S
C609 C607 1.419 . S
C609 C610 1.362 . S
C610 H602 0.930 . S
C610 C609 1.362 . S
C610 C613 1.409 . S
C611 H603 0.930 . S
C611 C612 1.355 . S
C611 C613 1.415 . S
C612 C611 1.355 . S
C612 C614 1.419 . S
C613 C608 1.425 . S
C613 C610 1.409 . S
C613 C611 1.415 . S
C614 H604 0.930 . S
C614 C612 1.419 . S
C614 C615 1.362 . S
C615 H605 0.930 . S
C615 C608 1.409 . S
C615 C614 1.362 . S
H616 C622 0.930 . S
H617 C625 0.930 . S
H618 C626 0.930 . S
H619 C627 0.930 . S
H620 C630 0.930 . S
H621 C631 0.930 . S
C622 H616 0.930 . S
C622 C623 1.355 . S
C622 C624 1.415 . S
C623 C622 1.355 . S
C623 C625 1.419 . S
C624 C622 1.415 . S
C624 C629 1.425 . S
C624 C631 1.409 . S
C625 H617 0.930 . S
C625 C623 1.419 . S
C625 C626 1.362 . S
C626 H618 0.930 . S
C626 C625 1.362 . S
C626 C629 1.409 . S
C627 H619 0.930 . S
C627 C628 1.355 . S
C627 C629 1.415 . S
C628 C627 1.355 . S
C628 C630 1.419 . S
C629 C624 1.425 . S
C629 C626 1.409 . S
C629 C627 1.415 . S
C630 H620 0.930 . S
C630 C628 1.419 . S
C630 C631 1.362 . S
C631 H621 0.930 . S
C631 C624 1.409 . S
C631 C630 1.362 . S
C255 C4 1.112 . S
C260 C105 1.117 . S
C271 C16 1.161 . S
C276 C145 1.243 . S
C292 C170 2.098 . S
C287 C32 2.101 . S
C303 C43 2.383 . S
C308 C210 2.345 1_655 S
C324 C141 2.093 . S
C319 C5 1.975 . S
C340 C101 1.435 . S
C335 C21 1.317 . S
C356 C232 1.673 . S
C351 C27 1.702 . S
C372 C192 1.616 . S
C367 C37 1.680 . S
C383 C10 1.253 . S
C388 C234 1.273 . S
C404 C151 2.365 1_556 S
C399 C26 2.412 . S
C415 C38 1.918 . S
C420 C111 1.894 . S
C431 C15 1.518 . S
C436 C194 1.555 . S
C452 C114 1.203 . S
C447 C48 1.156 . S
C463 C59 1.078 . S
C468 C154 1.075 . S
C479 C76 2.398 . S
C484 C191 2.339 . S
C495 C87 2.178 . S
C500 C231 2.164 . S
C511 C54 1.412 . S
C516 C152 1.499 1_556 S
C532 C112 2.063 . S
C527 C60 1.964 . S
C548 C221 1.616 . S
C543 C71 1.636 . S
C564 C181 1.691 . S
C559 C82 1.690 . S
C575 C49 1.643 . S
C580 C225 1.702 . S
C596 C130 1.859 . S
C591 C70 1.890 . S
C612 C90 2.348 . S
C607 C81 2.385 . S
C623 C65 1.288 . S
C628 C185 1.293 . S
