# Generated by pormake.
# Topology eea, (3,6)-cn, num edge types: 1
# Building blocks:
#     Node 0, Type 0, BuildingBlock: KAKCAD_clean_linker_0, # of connection points: 3
#     Node 1, Type 0, BuildingBlock: KAKCAD_clean_linker_0, # of connection points: 3
#     Node 2, Type 0, BuildingBlock: KAKCAD_clean_linker_0, # of connection points: 3
#     Node 3, Type 0, BuildingBlock: KAKCAD_clean_linker_0, # of connection points: 3
#     Node 4, Type 0, BuildingBlock: KAKCAD_clean_linker_0, # of connection points: 3
#     Node 5, Type 0, BuildingBlock: KAKCAD_clean_linker_0, # of connection points: 3
#     Node 6, Type 0, BuildingBlock: KAKCAD_clean_linker_0, # of connection points: 3
#     Node 7, Type 0, BuildingBlock: KAKCAD_clean_linker_0, # of connection points: 3
#     Node 8, Type 0, BuildingBlock: KAKCAD_clean_linker_0, # of connection points: 3
#     Node 9, Type 0, BuildingBlock: KAKCAD_clean_linker_0, # of connection points: 3
#     Node 10, Type 0, BuildingBlock: KAKCAD_clean_linker_0, # of connection points: 3
#     Node 11, Type 0, BuildingBlock: KAKCAD_clean_linker_0, # of connection points: 3
#     Node 12, Type 0, BuildingBlock: KAKCAD_clean_linker_0, # of connection points: 3
#     Node 13, Type 0, BuildingBlock: KAKCAD_clean_linker_0, # of connection points: 3
#     Node 14, Type 0, BuildingBlock: KAKCAD_clean_linker_0, # of connection points: 3
#     Node 15, Type 0, BuildingBlock: KAKCAD_clean_linker_0, # of connection points: 3
#     Node 16, Type 0, BuildingBlock: KAKCAD_clean_linker_0, # of connection points: 3
#     Node 17, Type 0, BuildingBlock: KAKCAD_clean_linker_0, # of connection points: 3
#     Node 18, Type 1, BuildingBlock: KUMBOL_clean_sbu_0, # of connection points: 6
#     Node 19, Type 1, BuildingBlock: KUMBOL_clean_sbu_0, # of connection points: 6
#     Node 20, Type 1, BuildingBlock: KUMBOL_clean_sbu_0, # of connection points: 6
#     Node 21, Type 1, BuildingBlock: KUMBOL_clean_sbu_0, # of connection points: 6
#     Node 22, Type 1, BuildingBlock: KUMBOL_clean_sbu_0, # of connection points: 6
#     Node 23, Type 1, BuildingBlock: KUMBOL_clean_sbu_0, # of connection points: 6
#     Node 24, Type 1, BuildingBlock: KUMBOL_clean_sbu_0, # of connection points: 6
#     Node 25, Type 1, BuildingBlock: KUMBOL_clean_sbu_0, # of connection points: 6
#     Node 26, Type 1, BuildingBlock: KUMBOL_clean_sbu_0, # of connection points: 6
#     Edge 27, Type (0, 1), BuildingBlock: KIFKEQ_clean_linker_1, # of connection points: 2
#     Edge 28, Type (0, 1), BuildingBlock: KIFKEQ_clean_linker_1, # of connection points: 2
#     Edge 29, Type (0, 1), BuildingBlock: KIFKEQ_clean_linker_1, # of connection points: 2
#     Edge 30, Type (0, 1), BuildingBlock: KIFKEQ_clean_linker_1, # of connection points: 2
#     Edge 31, Type (0, 1), BuildingBlock: KIFKEQ_clean_linker_1, # of connection points: 2
#     Edge 32, Type (0, 1), BuildingBlock: KIFKEQ_clean_linker_1, # of connection points: 2
#     Edge 33, Type (0, 1), BuildingBlock: KIFKEQ_clean_linker_1, # of connection points: 2
#     Edge 34, Type (0, 1), BuildingBlock: KIFKEQ_clean_linker_1, # of connection points: 2
#     Edge 35, Type (0, 1), BuildingBlock: KIFKEQ_clean_linker_1, # of connection points: 2
#     Edge 36, Type (0, 1), BuildingBlock: KIFKEQ_clean_linker_1, # of connection points: 2
#     Edge 37, Type (0, 1), BuildingBlock: KIFKEQ_clean_linker_1, # of connection points: 2
#     Edge 38, Type (0, 1), BuildingBlock: KIFKEQ_clean_linker_1, # of connection points: 2
#     Edge 39, Type (0, 1), BuildingBlock: KIFKEQ_clean_linker_1, # of connection points: 2
#     Edge 40, Type (0, 1), BuildingBlock: KIFKEQ_clean_linker_1, # of connection points: 2
#     Edge 41, Type (0, 1), BuildingBlock: KIFKEQ_clean_linker_1, # of connection points: 2
#     Edge 42, Type (0, 1), BuildingBlock: KIFKEQ_clean_linker_1, # of connection points: 2
#     Edge 43, Type (0, 1), BuildingBlock: KIFKEQ_clean_linker_1, # of connection points: 2
#     Edge 44, Type (0, 1), BuildingBlock: KIFKEQ_clean_linker_1, # of connection points: 2
#     Edge 45, Type (0, 1), BuildingBlock: KIFKEQ_clean_linker_1, # of connection points: 2
#     Edge 46, Type (0, 1), BuildingBlock: KIFKEQ_clean_linker_1, # of connection points: 2
#     Edge 47, Type (0, 1), BuildingBlock: KIFKEQ_clean_linker_1, # of connection points: 2
#     Edge 48, Type (0, 1), BuildingBlock: KIFKEQ_clean_linker_1, # of connection points: 2
#     Edge 49, Type (0, 1), BuildingBlock: KIFKEQ_clean_linker_1, # of connection points: 2
#     Edge 50, Type (0, 1), BuildingBlock: KIFKEQ_clean_linker_1, # of connection points: 2
#     Edge 51, Type (0, 1), BuildingBlock: KIFKEQ_clean_linker_1, # of connection points: 2
#     Edge 52, Type (0, 1), BuildingBlock: KIFKEQ_clean_linker_1, # of connection points: 2
#     Edge 53, Type (0, 1), BuildingBlock: KIFKEQ_clean_linker_1, # of connection points: 2
#     Edge 54, Type (0, 1), BuildingBlock: KIFKEQ_clean_linker_1, # of connection points: 2
#     Edge 55, Type (0, 1), BuildingBlock: KIFKEQ_clean_linker_1, # of connection points: 2
#     Edge 56, Type (0, 1), BuildingBlock: KIFKEQ_clean_linker_1, # of connection points: 2
#     Edge 57, Type (0, 1), BuildingBlock: KIFKEQ_clean_linker_1, # of connection points: 2
#     Edge 58, Type (0, 1), BuildingBlock: KIFKEQ_clean_linker_1, # of connection points: 2
#     Edge 59, Type (0, 1), BuildingBlock: KIFKEQ_clean_linker_1, # of connection points: 2
#     Edge 60, Type (0, 1), BuildingBlock: KIFKEQ_clean_linker_1, # of connection points: 2
#     Edge 61, Type (0, 1), BuildingBlock: KIFKEQ_clean_linker_1, # of connection points: 2
#     Edge 62, Type (0, 1), BuildingBlock: KIFKEQ_clean_linker_1, # of connection points: 2
#     Edge 63, Type (0, 1), BuildingBlock: KIFKEQ_clean_linker_1, # of connection points: 2
#     Edge 64, Type (0, 1), BuildingBlock: KIFKEQ_clean_linker_1, # of connection points: 2
#     Edge 65, Type (0, 1), BuildingBlock: KIFKEQ_clean_linker_1, # of connection points: 2
#     Edge 66, Type (0, 1), BuildingBlock: KIFKEQ_clean_linker_1, # of connection points: 2
#     Edge 67, Type (0, 1), BuildingBlock: KIFKEQ_clean_linker_1, # of connection points: 2
#     Edge 68, Type (0, 1), BuildingBlock: KIFKEQ_clean_linker_1, # of connection points: 2
#     Edge 69, Type (0, 1), BuildingBlock: KIFKEQ_clean_linker_1, # of connection points: 2
#     Edge 70, Type (0, 1), BuildingBlock: KIFKEQ_clean_linker_1, # of connection points: 2
#     Edge 71, Type (0, 1), BuildingBlock: KIFKEQ_clean_linker_1, # of connection points: 2
#     Edge 72, Type (0, 1), BuildingBlock: KIFKEQ_clean_linker_1, # of connection points: 2
#     Edge 73, Type (0, 1), BuildingBlock: KIFKEQ_clean_linker_1, # of connection points: 2
#     Edge 74, Type (0, 1), BuildingBlock: KIFKEQ_clean_linker_1, # of connection points: 2
#     Edge 75, Type (0, 1), BuildingBlock: KIFKEQ_clean_linker_1, # of connection points: 2
#     Edge 76, Type (0, 1), BuildingBlock: KIFKEQ_clean_linker_1, # of connection points: 2
#     Edge 77, Type (0, 1), BuildingBlock: KIFKEQ_clean_linker_1, # of connection points: 2
#     Edge 78, Type (0, 1), BuildingBlock: KIFKEQ_clean_linker_1, # of connection points: 2
#     Edge 79, Type (0, 1), BuildingBlock: KIFKEQ_clean_linker_1, # of connection points: 2
#     Edge 80, Type (0, 1), BuildingBlock: KIFKEQ_clean_linker_1, # of connection points: 2
# Relax obj value: 0.009
# Max RMSD: 0.094
# Mean RMSD: 0.061
data_MOF--net-eea--node1-KUMBOL_clean_sbu_0--node2-KAKCAD_clean_linker_0--edge1-KIFKEQ_clean_linker_1
_symmetry_space_group_name_H-M    P1
_symmetry_Int_Tables_number       1
_symmetry_cell_setting            triclinic
loop_
_symmetry_equiv_pos_as_xyz
'x, y, z'
_cell_length_a     63.686713
_cell_length_b     64.859285
_cell_length_c     89.566789
_cell_angle_alpha  90.365445
_cell_angle_beta   90.231065
_cell_angle_gamma 119.9977
loop_
_atom_site_label
_atom_site_type_symbol
_atom_site_fract_x
_atom_site_fract_y
_atom_site_fract_z
_atom_type_partial_charge
C0 C 0.27178 0.14947 0.4868 0.0
C1 C 0.28952 0.14332 0.49024 0.0
C2 C 0.26068 0.14434 0.47269 0.0
C3 C 0.26703 0.13292 0.46168 0.0
C4 C 0.28492 0.12698 0.46508 0.0
C5 C 0.29598 0.13206 0.47918 0.0
C6 C 0.25481 0.12686 0.44678 0.0
C7 C 0.2496 0.1429 0.4394 0.0
C8 C 0.23796 0.13718 0.42535 0.0
C9 C 0.23169 0.11513 0.41868 0.0
C10 C 0.2369 0.09894 0.42579 0.0
C11 C 0.2483 0.10491 0.43987 0.0
C12 C 0.23065 0.0759 0.41841 0.0
C13 C 0.20871 0.06276 0.41047 0.0
C14 C 0.24681 0.06708 0.41905 0.0
C15 C 0.24124 0.04575 0.41184 0.0
C16 C 0.21942 0.03272 0.40376 0.0
C17 C 0.23223 0.1541 0.41762 0.0
C18 C 0.22422 0.16749 0.42571 0.0
C19 C 0.23419 0.1566 0.40201 0.0
C20 C 0.22785 0.17169 0.39467 0.0
C21 C 0.21965 0.18494 0.40274 0.0
C22 C 0.21813 0.18278 0.41839 0.0
C23 C 0.2032 0.04147 0.40321 0.0
H24 H 0.26655 0.1584 0.49498 0.0
H25 H 0.24682 0.14899 0.4705 0.0
H26 H 0.29048 0.11844 0.45682 0.0
H27 H 0.30935 0.12681 0.48147 0.0
H28 H 0.25516 0.16011 0.44446 0.0
H29 H 0.25165 0.09218 0.44563 0.0
H30 H 0.22274 0.11053 0.40788 0.0
H31 H 0.1957 0.06885 0.4099 0.0
H32 H 0.26397 0.07686 0.42493 0.0
H33 H 0.25401 0.03939 0.4127 0.0
H34 H 0.22225 0.16588 0.43772 0.0
H35 H 0.24067 0.14692 0.3954 0.0
H36 H 0.18634 0.03205 0.39697 0.0
H37 H 0.2123 0.19298 0.42503 0.0
H38 H 0.22905 0.17264 0.38261 0.0
C39 C 0.87998 0.16788 0.47628 0.0
C40 C 0.86906 0.15035 0.4873 0.0
C41 C 0.88545 0.16222 0.46223 0.0
C42 C 0.88026 0.1389 0.45884 0.0
C43 C 0.86951 0.12143 0.46993 0.0
C44 C 0.86393 0.12706 0.48393 0.0
C45 C 0.88597 0.13275 0.44384 0.0
C46 C 0.90736 0.14876 0.43637 0.0
C47 C 0.91298 0.14294 0.42235 0.0
C48 C 0.89701 0.12067 0.41584 0.0
C49 C 0.8753 0.10446 0.42294 0.0
C50 C 0.86998 0.11079 0.43691 0.0
C51 C 0.85805 0.08111 0.41568 0.0
C52 C 0.85463 0.0792 0.40007 0.0
C53 C 0.84474 0.06051 0.4243 0.0
C54 C 0.82837 0.03875 0.41752 0.0
C55 C 0.82512 0.03692 0.40195 0.0
C56 C 0.93531 0.16033 0.41435 0.0
C57 C 0.94157 0.18434 0.41345 0.0
C58 C 0.95028 0.15304 0.40733 0.0
C59 C 0.97112 0.16944 0.39969 0.0
C60 C 0.97742 0.19353 0.3988 0.0
C61 C 0.96224 0.20068 0.40573 0.0
C62 C 0.83852 0.05735 0.39329 0.0
H63 H 0.88388 0.18592 0.4784 0.0
H64 H 0.89338 0.17608 0.45394 0.0
H65 H 0.86565 0.1034 0.46786 0.0
H66 H 0.85589 0.1132 0.49222 0.0
H67 H 0.92 0.16562 0.44161 0.0
H68 H 0.85298 0.09883 0.44227 0.0
H69 H 0.90148 0.11608 0.40513 0.0
H70 H 0.86409 0.09466 0.39305 0.0
H71 H 0.84715 0.06107 0.43629 0.0
H72 H 0.81849 0.02323 0.42446 0.0
H73 H 0.9302 0.19045 0.41851 0.0
H74 H 0.94608 0.13469 0.40793 0.0
H75 H 0.83618 0.05654 0.38128 0.0
H76 H 0.96612 0.21891 0.40504 0.0
H77 H 0.98248 0.16328 0.39471 0.0
C78 C 0.89295 0.74436 0.48416 0.0
C79 C 0.86909 0.72767 0.48836 0.0
C80 C 0.89785 0.75489 0.46998 0.0
C81 C 0.87908 0.74901 0.45949 0.0
C82 C 0.85525 0.73233 0.46371 0.0
C83 C 0.85034 0.72197 0.47789 0.0
C84 C 0.88421 0.76013 0.44426 0.0
C85 C 0.90564 0.76538 0.43659 0.0
C86 C 0.91047 0.77554 0.42223 0.0
C87 C 0.89339 0.78047 0.41552 0.0
C88 C 0.87177 0.77525 0.42283 0.0
C89 C 0.86748 0.76524 0.4372 0.0
C90 C 0.8534 0.77987 0.4154 0.0
C91 C 0.86042 0.80127 0.40781 0.0
C92 C 0.82859 0.76277 0.41582 0.0
C93 C 0.81128 0.76692 0.40891 0.0
C94 C 0.81814 0.78846 0.40148 0.0
C95 C 0.93313 0.78059 0.41413 0.0
C96 C 0.95548 0.78994 0.42175 0.0
C97 C 0.93261 0.77599 0.3987 0.0
C98 C 0.95373 0.78046 0.39115 0.0
C99 C 0.97607 0.78974 0.39877 0.0
C100 C 0.97662 0.79448 0.41419 0.0
C101 C 0.84305 0.80555 0.40101 0.0
H102 H 0.908 0.74913 0.49174 0.0
H103 H 0.91642 0.76784 0.46733 0.0
H104 H 0.84024 0.72696 0.45598 0.0
H105 H 0.83166 0.70957 0.48066 0.0
H106 H 0.91827 0.76084 0.44161 0.0
H107 H 0.8512 0.76188 0.44301 0.0
H108 H 0.89684 0.78825 0.40451 0.0
H109 H 0.87935 0.81494 0.40738 0.0
H110 H 0.82254 0.74592 0.42133 0.0
H111 H 0.79246 0.75299 0.40926 0.0
H112 H 0.95671 0.79395 0.43358 0.0
H113 H 0.91576 0.76856 0.39245 0.0
H114 H 0.84918 0.8225 0.39563 0.0
H115 H 0.99335 0.80137 0.42052 0.0
H116 H 0.95254 0.77677 0.37927 0.0
C117 C 0.14314 0.25011 0.53683 0.0
C118 C 0.13837 0.26819 0.53244 0.0
C119 C 0.1383 0.24119 0.55139 0.0
C120 C 0.12854 0.25004 0.56205 0.0
C121 C 0.12343 0.26788 0.55762 0.0
C122 C 0.12829 0.27683 0.54304 0.0
C123 C 0.12393 0.24074 0.5777 0.0
C124 C 0.14053 0.2357 0.58494 0.0
C125 C 0.13624 0.22612 0.59944 0.0
C126 C 0.11479 0.22168 0.60672 0.0
C127 C 0.09819 0.22711 0.5999 0.0
C128 C 0.10296 0.23668 0.58541 0.0
C129 C 0.07577 0.22263 0.6079 0.0
C130 C 0.06081 0.20067 0.61478 0.0
C131 C 0.06924 0.24034 0.6088 0.0
C132 C 0.04837 0.23627 0.61649 0.0
C133 C 0.03313 0.21418 0.62329 0.0
C134 C 0.15431 0.22107 0.60697 0.0
C135 C 0.16767 0.2131 0.59865 0.0
C136 C 0.15876 0.22459 0.62247 0.0
C137 C 0.1762 0.22055 0.62937 0.0
C138 C 0.1899 0.21318 0.62094 0.0
C139 C 0.18529 0.20937 0.60551 0.0
C140 C 0.03971 0.19643 0.62224 0.0
H141 H 0.15044 0.24262 0.52896 0.0
H142 H 0.14202 0.22712 0.55425 0.0
H143 H 0.11616 0.27535 0.56553 0.0
H144 H 0.12465 0.29095 0.54018 0.0
H145 H 0.1572 0.23983 0.57934 0.0
H146 H 0.0899 0.24027 0.57998 0.0
H147 H 0.11097 0.21406 0.61779 0.0
H148 H 0.06519 0.18657 0.61415 0.0
H149 H 0.08055 0.25756 0.60377 0.0
H150 H 0.04443 0.25065 0.61722 0.0
H151 H 0.16448 0.20959 0.58678 0.0
H152 H 0.14923 0.23106 0.62928 0.0
H153 H 0.02837 0.17899 0.62696 0.0
H154 H 0.19525 0.20334 0.59873 0.0
H155 H 0.17946 0.22388 0.64125 0.0
C156 C 0.70132 0.84173 0.54453 0.0
C157 C 0.71133 0.86079 0.53444 0.0
C158 C 0.70936 0.84504 0.55938 0.0
C159 C 0.7275 0.86752 0.56452 0.0
C160 C 0.73768 0.88651 0.55443 0.0
C161 C 0.72975 0.88318 0.53958 0.0
C162 C 0.7358 0.87124 0.58036 0.0
C163 C 0.74055 0.85476 0.58755 0.0
C164 C 0.74947 0.85883 0.60229 0.0
C165 C 0.75296 0.87924 0.60999 0.0
C166 C 0.74815 0.89578 0.60307 0.0
C167 C 0.73964 0.8917 0.58824 0.0
C168 C 0.75328 0.91788 0.61115 0.0
C169 C 0.74651 0.91713 0.62616 0.0
C170 C 0.76614 0.94004 0.60413 0.0
C171 C 0.77269 0.96103 0.61205 0.0
C172 C 0.76642 0.96034 0.62714 0.0
C173 C 0.75636 0.84253 0.6095 0.0
C174 C 0.74074 0.81776 0.60904 0.0
C175 C 0.77876 0.85183 0.61699 0.0
C176 C 0.78543 0.8367 0.62387 0.0
C177 C 0.7698 0.81194 0.6235 0.0
C178 C 0.74734 0.8026 0.61607 0.0
C179 C 0.75291 0.93816 0.63406 0.0
H180 H 0.68687 0.82433 0.54105 0.0
H181 H 0.70102 0.83011 0.56693 0.0
H182 H 0.75201 0.90394 0.55798 0.0
H183 H 0.73823 0.89815 0.53208 0.0
H184 H 0.73832 0.83928 0.58146 0.0
H185 H 0.73575 0.90437 0.58287 0.0
H186 H 0.75996 0.8825 0.62133 0.0
H187 H 0.73641 0.90026 0.63182 0.0
H188 H 0.77178 0.9412 0.59262 0.0
H189 H 0.78281 0.97787 0.60636 0.0
H190 H 0.72333 0.81015 0.6034 0.0
H191 H 0.79127 0.87084 0.61739 0.0
H192 H 0.74787 0.9371 0.64569 0.0
H193 H 0.73504 0.78355 0.6155 0.0
H194 H 0.80279 0.8444 0.62958 0.0
C195 C 0.11524 0.85623 0.53664 0.0
C196 C 0.13929 0.86316 0.53284 0.0
C197 C 0.10955 0.86013 0.55111 0.0
C198 C 0.12775 0.87101 0.56213 0.0
C199 C 0.15168 0.87742 0.55839 0.0
C200 C 0.15736 0.87358 0.54395 0.0
C201 C 0.1221 0.87633 0.57736 0.0
C202 C 0.10085 0.85993 0.5848 0.0
C203 C 0.09551 0.86501 0.59917 0.0
C204 C 0.11195 0.88687 0.60606 0.0
C205 C 0.13339 0.9034 0.59889 0.0
C206 C 0.13814 0.898 0.58452 0.0
C207 C 0.15097 0.92629 0.60638 0.0
C208 C 0.14289 0.93947 0.61466 0.0
C209 C 0.17608 0.9352 0.60524 0.0
C210 C 0.19267 0.95678 0.61208 0.0
C211 C 0.18462 0.97002 0.62028 0.0
C212 C 0.07288 0.84753 0.60701 0.0
C213 C 0.05107 0.83379 0.59902 0.0
C214 C 0.07278 0.84456 0.6226 0.0
C215 C 0.05148 0.82852 0.62996 0.0
C216 C 0.02979 0.81479 0.62192 0.0
C217 C 0.02986 0.81756 0.60636 0.0
C218 C 0.15951 0.96105 0.62154 0.0
H219 H 0.1009 0.84833 0.52832 0.0
H220 H 0.09098 0.85519 0.55354 0.0
H221 H 0.16609 0.88536 0.56666 0.0
H222 H 0.17598 0.87866 0.54153 0.0
H223 H 0.08879 0.84293 0.57953 0.0
H224 H 0.15419 0.91101 0.57872 0.0
H225 H 0.1081 0.89107 0.61708 0.0
H226 H 0.12372 0.93334 0.6156 0.0
H227 H 0.18296 0.92533 0.5992 0.0
H228 H 0.21186 0.96294 0.61109 0.0
H229 H 0.05023 0.83583 0.58708 0.0
H230 H 0.08925 0.8544 0.62914 0.0
H231 H 0.15268 0.97094 0.62761 0.0
H232 H 0.01335 0.80744 0.59988 0.0
H233 H 0.05208 0.82657 0.64193 0.0
C234 C 0.95303 0.48949 0.80889 0.0
C235 C 0.96941 0.48219 0.81352 0.0
C236 C 0.94559 0.48707 0.79393 0.0
C237 C 0.95446 0.47741 0.78322 0.0
C238 C 0.97121 0.47056 0.78784 0.0
C239 C 0.97853 0.47286 0.80279 0.0
C240 C 0.94585 0.47387 0.76738 0.0
C241 C 0.94189 0.49088 0.76016 0.0
C242 C 0.93321 0.48727 0.74532 0.0
C243 C 0.92863 0.46637 0.73773 0.0
C244 C 0.93268 0.44931 0.74466 0.0
C245 C 0.94121 0.45317 0.75947 0.0
C246 C 0.92761 0.42726 0.73648 0.0
C247 C 0.90641 0.41462 0.72779 0.0
C248 C 0.94387 0.4186 0.73736 0.0
C249 C 0.93888 0.39761 0.72991 0.0
C250 C 0.91746 0.38473 0.72143 0.0
C251 C 0.92837 0.50494 0.73779 0.0
C252 C 0.91812 0.51649 0.74571 0.0
C253 C 0.93314 0.50975 0.72247 0.0
C254 C 0.92728 0.52527 0.71521 0.0
C255 C 0.91684 0.5366 0.72313 0.0
C256 C 0.91252 0.5322 0.73848 0.0
C257 C 0.90139 0.3936 0.72036 0.0
H258 H 0.94549 0.49655 0.8169 0.0
H259 H 0.93243 0.49225 0.79083 0.0
H260 H 0.97882 0.4635 0.77988 0.0
H261 H 0.99154 0.4675 0.80592 0.0
H262 H 0.946 0.50716 0.76601 0.0
H263 H 0.94352 0.43962 0.76501 0.0
H264 H 0.92173 0.46324 0.72637 0.0
H265 H 0.89336 0.42065 0.72703 0.0
H266 H 0.96054 0.42814 0.74377 0.0
H267 H 0.95182 0.39147 0.7308 0.0
H268 H 0.9138 0.51295 0.75743 0.0
H269 H 0.94145 0.50157 0.71606 0.0
H270 H 0.88453 0.38393 0.71414 0.0
H271 H 0.90421 0.54045 0.74484 0.0
H272 H 0.9311 0.52856 0.70342 0.0
C273 C 0.54791 0.50307 0.81249 0.0
C274 C 0.5408 0.48654 0.82421 0.0
C275 C 0.55259 0.49743 0.79822 0.0
C276 C 0.54999 0.47499 0.79516 0.0
C277 C 0.54299 0.45846 0.80681 0.0
C278 C 0.53863 0.4642 0.82114 0.0
C279 C 0.55394 0.46865 0.77978 0.0
C280 C 0.57442 0.48461 0.77152 0.0
C281 C 0.57799 0.47901 0.75683 0.0
C282 C 0.56032 0.45723 0.75043 0.0
C283 C 0.53992 0.44092 0.75853 0.0
C284 C 0.53699 0.44671 0.77324 0.0
C285 C 0.52176 0.41784 0.75153 0.0
C286 C 0.51345 0.41706 0.73685 0.0
C287 C 0.51305 0.39636 0.75932 0.0
C288 C 0.49675 0.3746 0.75249 0.0
C289 C 0.48854 0.37382 0.73778 0.0
C290 C 0.60011 0.49561 0.74816 0.0
C291 C 0.61071 0.52047 0.74962 0.0
C292 C 0.61078 0.48666 0.7382 0.0
C293 C 0.63108 0.50201 0.72981 0.0
C294 C 0.64174 0.52688 0.73127 0.0
C295 C 0.63128 0.53586 0.74138 0.0
C296 C 0.49697 0.39534 0.73008 0.0
H297 H 0.54936 0.52027 0.81421 0.0
H298 H 0.55766 0.51046 0.78944 0.0
H299 H 0.5411 0.4411 0.80486 0.0
H300 H 0.53372 0.4511 0.82985 0.0
H301 H 0.58788 0.50113 0.77674 0.0
H302 H 0.52105 0.43443 0.77943 0.0
H303 H 0.56243 0.45279 0.73906 0.0
H304 H 0.51965 0.43331 0.73059 0.0
H305 H 0.51922 0.39635 0.77061 0.0
H306 H 0.49043 0.35836 0.75877 0.0
H307 H 0.603 0.52816 0.75701 0.0
H308 H 0.60357 0.46768 0.73691 0.0
H309 H 0.49115 0.39537 0.71871 0.0
H310 H 0.63908 0.55484 0.74308 0.0
H311 H 0.63824 0.49425 0.72206 0.0
C312 C 0.55443 0.07512 0.81545 0.0
C313 C 0.53078 0.05712 0.81902 0.0
C314 C 0.55971 0.08557 0.80127 0.0
C315 C 0.54147 0.07845 0.79026 0.0
C316 C 0.51783 0.06046 0.79384 0.0
C317 C 0.51259 0.04994 0.80797 0.0
C318 C 0.54694 0.08994 0.7752 0.0
C319 C 0.56854 0.09536 0.76772 0.0
C320 C 0.57406 0.1065 0.75363 0.0
C321 C 0.55742 0.11227 0.74714 0.0
C322 C 0.5355 0.10658 0.75423 0.0
C323 C 0.53051 0.09547 0.76825 0.0
C324 C 0.51763 0.11196 0.74692 0.0
C325 C 0.52517 0.13414 0.74024 0.0
C326 C 0.49281 0.09478 0.74649 0.0
C327 C 0.476 0.09958 0.73949 0.0
C328 C 0.48349 0.12179 0.73287 0.0
C329 C 0.59696 0.11182 0.74562 0.0
C330 C 0.61848 0.11795 0.75359 0.0
C331 C 0.59756 0.11077 0.72989 0.0
C332 C 0.61894 0.11592 0.72242 0.0
C333 C 0.64027 0.12185 0.73043 0.0
C334 C 0.63974 0.1227 0.74611 0.0
C335 C 0.5083 0.13906 0.7334 0.0
H336 H 0.56899 0.08099 0.82358 0.0
H337 H 0.57807 0.09951 0.799 0.0
H338 H 0.50333 0.05431 0.78564 0.0
H339 H 0.49411 0.03635 0.8103 0.0
H340 H 0.58072 0.09023 0.77274 0.0
H341 H 0.51398 0.09167 0.77393 0.0
H342 H 0.56137 0.12108 0.73644 0.0
H343 H 0.54412 0.14783 0.74045 0.0
H344 H 0.48639 0.07745 0.75142 0.0
H345 H 0.45703 0.08594 0.73943 0.0
H346 H 0.61911 0.11947 0.76564 0.0
H347 H 0.5814 0.10561 0.72327 0.0
H348 H 0.51472 0.1563 0.72835 0.0
H349 H 0.65595 0.1275 0.75261 0.0
H350 H 0.61866 0.11485 0.71034 0.0
C351 C 0.80679 0.57892 0.86765 0.0
C352 C 0.8015 0.59677 0.86355 0.0
C353 C 0.80192 0.56947 0.88207 0.0
C354 C 0.79168 0.5776 0.89288 0.0
C355 C 0.78615 0.59528 0.88874 0.0
C356 C 0.79097 0.6047 0.87428 0.0
C357 C 0.78699 0.56775 0.90839 0.0
C358 C 0.80356 0.56251 0.91547 0.0
C359 C 0.79922 0.55258 0.92987 0.0
C360 C 0.77785 0.5481 0.93726 0.0
C361 C 0.76126 0.55368 0.93059 0.0
C362 C 0.766 0.56345 0.91615 0.0
C363 C 0.73895 0.54937 0.93868 0.0
C364 C 0.72432 0.52777 0.94605 0.0
C365 C 0.73212 0.56688 0.93907 0.0
C366 C 0.71118 0.56292 0.9466 0.0
C367 C 0.69622 0.54116 0.95381 0.0
C368 C 0.81722 0.54724 0.93717 0.0
C369 C 0.83029 0.53918 0.92862 0.0
C370 C 0.82194 0.55059 0.95265 0.0
C371 C 0.83943 0.54638 0.95931 0.0
C372 C 0.85287 0.53897 0.95065 0.0
C373 C 0.84795 0.53527 0.93524 0.0
C374 C 0.70319 0.52366 0.95343 0.0
H375 H 0.8145 0.57204 0.85964 0.0
H376 H 0.80599 0.55555 0.88469 0.0
H377 H 0.77856 0.60224 0.89677 0.0
H378 H 0.78694 0.61863 0.87163 0.0
H379 H 0.82025 0.56678 0.90985 0.0
H380 H 0.75292 0.5671 0.91081 0.0
H381 H 0.7741 0.54035 0.94829 0.0
H382 H 0.72893 0.5138 0.94584 0.0
H383 H 0.74317 0.58386 0.9337 0.0
H384 H 0.70691 0.5771 0.94686 0.0
H385 H 0.82687 0.5358 0.91676 0.0
H386 H 0.8126 0.55708 0.95963 0.0
H387 H 0.69208 0.50652 0.95858 0.0
H388 H 0.85771 0.52922 0.92828 0.0
H389 H 0.84294 0.54961 0.97118 0.0
C390 C 0.38023 0.17803 0.87573 0.0
C391 C 0.38848 0.1965 0.86524 0.0
C392 C 0.39082 0.18218 0.88996 0.0
C393 C 0.40979 0.20491 0.89404 0.0
C394 C 0.41836 0.22322 0.88347 0.0
C395 C 0.40788 0.21905 0.86924 0.0
C396 C 0.42019 0.20979 0.9094 0.0
C397 C 0.42575 0.19383 0.91651 0.0
C398 C 0.43577 0.19863 0.93101 0.0
C399 C 0.43996 0.21955 0.93839 0.0
C400 C 0.43446 0.23566 0.93149 0.0
C401 C 0.42456 0.23061 0.917 0.0
C402 C 0.43939 0.2579 0.93935 0.0
C403 C 0.43449 0.25779 0.95466 0.0
C404 C 0.44944 0.27953 0.93163 0.0
C405 C 0.45465 0.30057 0.93905 0.0
C406 C 0.45004 0.30053 0.95439 0.0
C407 C 0.44192 0.18195 0.93855 0.0
C408 C 0.42622 0.15722 0.93756 0.0
C409 C 0.46326 0.1907 0.94716 0.0
C410 C 0.46852 0.17515 0.95486 0.0
C411 C 0.45264 0.15043 0.95407 0.0
C412 C 0.43154 0.14164 0.94521 0.0
C413 C 0.43977 0.27887 0.9621 0.0
H414 H 0.36515 0.16052 0.87309 0.0
H415 H 0.38368 0.16778 0.89791 0.0
H416 H 0.43325 0.24081 0.8862 0.0
H417 H 0.41505 0.23355 0.86136 0.0
H418 H 0.42288 0.17799 0.91059 0.0
H419 H 0.41973 0.24267 0.91172 0.0
H420 H 0.44761 0.22336 0.94957 0.0
H421 H 0.42648 0.24137 0.9609 0.0
H422 H 0.45365 0.28029 0.91987 0.0
H423 H 0.46219 0.31688 0.93271 0.0
H424 H 0.40956 0.14989 0.9311 0.0
H425 H 0.47595 0.20964 0.94799 0.0
H426 H 0.43615 0.27824 0.97394 0.0
H427 H 0.4191 0.12268 0.94415 0.0
H428 H 0.48484 0.18256 0.96165 0.0
C429 C 0.77953 0.17437 0.87044 0.0
C430 C 0.80321 0.17967 0.86685 0.0
C431 C 0.77425 0.17961 0.88467 0.0
C432 C 0.79252 0.19035 0.89565 0.0
C433 C 0.81607 0.19525 0.89215 0.0
C434 C 0.82133 0.18995 0.87797 0.0
C435 C 0.7873 0.19719 0.91053 0.0
C436 C 0.76594 0.1818 0.91826 0.0
C437 C 0.76079 0.18843 0.93222 0.0
C438 C 0.77728 0.211 0.93824 0.0
C439 C 0.79883 0.22642 0.93079 0.0
C440 C 0.80371 0.21937 0.917 0.0
C441 C 0.81636 0.24992 0.93744 0.0
C442 C 0.80858 0.26554 0.9425 0.0
C443 C 0.84102 0.25685 0.93878 0.0
C444 C 0.85755 0.27887 0.94517 0.0
C445 C 0.84982 0.29459 0.95012 0.0
C446 C 0.73844 0.17178 0.9406 0.0
C447 C 0.71642 0.15709 0.93304 0.0
C448 C 0.73894 0.17042 0.95629 0.0
C449 C 0.71803 0.15494 0.96417 0.0
C450 C 0.69612 0.14019 0.95659 0.0
C451 C 0.69558 0.14143 0.94093 0.0
C452 C 0.8252 0.28776 0.94866 0.0
H453 H 0.76515 0.16672 0.86214 0.0
H454 H 0.75598 0.17585 0.88693 0.0
H455 H 0.83049 0.20313 0.90042 0.0
H456 H 0.83964 0.19381 0.87575 0.0
H457 H 0.75367 0.16437 0.91357 0.0
H458 H 0.82007 0.23153 0.9111 0.0
H459 H 0.77349 0.21661 0.94882 0.0
H460 H 0.7897 0.26068 0.94153 0.0
H461 H 0.84746 0.24508 0.93503 0.0
H462 H 0.87644 0.28375 0.94609 0.0
H463 H 0.71515 0.15788 0.92102 0.0
H464 H 0.75561 0.18107 0.96251 0.0
H465 H 0.81874 0.29948 0.95245 0.0
H466 H 0.67889 0.13054 0.93476 0.0
H467 H 0.71912 0.15418 0.97621 0.0
C468 C 0.61731 0.81958 0.14783 0.0
C469 C 0.6343 0.81276 0.15197 0.0
C470 C 0.60864 0.81648 0.13312 0.0
C471 C 0.61674 0.80649 0.12215 0.0
C472 C 0.63374 0.79971 0.12629 0.0
C473 C 0.64236 0.80276 0.14099 0.0
C474 C 0.60732 0.80288 0.1065 0.0
C475 C 0.6032 0.82 0.09956 0.0
C476 C 0.59418 0.81652 0.08485 0.0
C477 C 0.58911 0.79566 0.07711 0.0
C478 C 0.59278 0.77825 0.08384 0.0
C479 C 0.60207 0.78205 0.09848 0.0
C480 C 0.5859 0.75573 0.07568 0.0
C481 C 0.56357 0.74361 0.06804 0.0
C482 C 0.60152 0.74628 0.07534 0.0
C483 C 0.59494 0.72516 0.06746 0.0
C484 C 0.57249 0.71297 0.05994 0.0
C485 C 0.58888 0.83397 0.07761 0.0
C486 C 0.57553 0.84262 0.08516 0.0
C487 C 0.59546 0.8406 0.06268 0.0
C488 C 0.58816 0.85493 0.05531 0.0
C489 C 0.57394 0.86276 0.06266 0.0
C490 C 0.56806 0.85679 0.07774 0.0
C491 C 0.55692 0.72245 0.0603 0.0
H492 H 0.61086 0.82756 0.15593 0.0
H493 H 0.59534 0.82164 0.1304 0.0
H494 H 0.64059 0.79219 0.11813 0.0
H495 H 0.65517 0.79699 0.14377 0.0
H496 H 0.60737 0.83624 0.10549 0.0
H497 H 0.60435 0.76833 0.10381 0.0
H498 H 0.58184 0.79274 0.06584 0.0
H499 H 0.55106 0.75034 0.06821 0.0
H500 H 0.6189 0.75533 0.08105 0.0
H501 H 0.60719 0.71813 0.0675 0.0
H502 H 0.57007 0.83769 0.09662 0.0
H503 H 0.60592 0.83433 0.05663 0.0
H504 H 0.53957 0.71352 0.05454 0.0
H505 H 0.5574 0.86285 0.08376 0.0
H506 H 0.59292 0.85917 0.04369 0.0
C507 C 0.2092 0.82276 0.1441 0.0
C508 C 0.20076 0.80529 0.15526 0.0
C509 C 0.21519 0.8181 0.12993 0.0
C510 C 0.21267 0.79577 0.12651 0.0
C511 C 0.20433 0.77835 0.13768 0.0
C512 C 0.19855 0.78308 0.15189 0.0
C513 C 0.21849 0.79053 0.11133 0.0
C514 C 0.23955 0.80729 0.10392 0.0
C515 C 0.24536 0.80216 0.08976 0.0
C516 C 0.22975 0.78004 0.08296 0.0
C517 C 0.2082 0.76323 0.08995 0.0
C518 C 0.20286 0.76868 0.10419 0.0
C519 C 0.19107 0.74026 0.08226 0.0
C520 C 0.18755 0.73929 0.06667 0.0
C521 C 0.1778 0.71915 0.09043 0.0
C522 C 0.16132 0.69783 0.08326 0.0
C523 C 0.15795 0.69697 0.06771 0.0
C524 C 0.26754 0.82005 0.0819 0.0
C525 C 0.27293 0.84379 0.08088 0.0
C526 C 0.28319 0.81344 0.0751 0.0
C527 C 0.30386 0.83025 0.06753 0.0
C528 C 0.30926 0.85406 0.06642 0.0
C529 C 0.2934 0.86053 0.07316 0.0
C530 C 0.17135 0.71788 0.05949 0.0
H531 H 0.21131 0.84013 0.14636 0.0
H532 H 0.22141 0.83186 0.12156 0.0
H533 H 0.2024 0.76104 0.13547 0.0
H534 H 0.19192 0.76916 0.16017 0.0
H535 H 0.25178 0.82414 0.10934 0.0
H536 H 0.18611 0.75621 0.1096 0.0
H537 H 0.23435 0.77606 0.0721 0.0
H538 H 0.19696 0.75517 0.05999 0.0
H539 H 0.18028 0.71899 0.10239 0.0
H540 H 0.15142 0.6819 0.08986 0.0
H541 H 0.26101 0.84934 0.0858 0.0
H542 H 0.27962 0.7953 0.07581 0.0
H543 H 0.16891 0.7178 0.0475 0.0
H544 H 0.29654 0.8785 0.07231 0.0
H545 H 0.31577 0.82461 0.06275 0.0
C546 C 0.2243 0.4161 0.14859 0.0
C547 C 0.20069 0.39826 0.15237 0.0
C548 C 0.22945 0.42595 0.13424 0.0
C549 C 0.21111 0.41834 0.12325 0.0
C550 C 0.1875 0.40055 0.12704 0.0
C551 C 0.18238 0.39066 0.14136 0.0
C552 C 0.21651 0.42907 0.10797 0.0
C553 C 0.23815 0.43428 0.10063 0.0
C554 C 0.24371 0.44485 0.08635 0.0
C555 C 0.22694 0.45014 0.07951 0.0
C556 C 0.20488 0.44444 0.08641 0.0
C557 C 0.19994 0.43404 0.10064 0.0
C558 C 0.18669 0.44885 0.07862 0.0
C559 C 0.19373 0.47057 0.07144 0.0
C560 C 0.16206 0.43113 0.07817 0.0
C561 C 0.14496 0.43492 0.07065 0.0
C562 C 0.15195 0.45665 0.06351 0.0
C563 C 0.26668 0.4499 0.07851 0.0
C564 C 0.28795 0.45551 0.08664 0.0
C565 C 0.26758 0.44892 0.06278 0.0
C566 C 0.28894 0.45352 0.05549 0.0
C567 C 0.30985 0.45865 0.06369 0.0
C568 C 0.3091 0.45953 0.07934 0.0
C569 C 0.17655 0.47449 0.06407 0.0
H570 H 0.23895 0.42227 0.15668 0.0
H571 H 0.24779 0.43977 0.13182 0.0
H572 H 0.17293 0.39402 0.11888 0.0
H573 H 0.16392 0.37718 0.14384 0.0
H574 H 0.25031 0.42939 0.10592 0.0
H575 H 0.18331 0.43031 0.10617 0.0
H576 H 0.23083 0.4585 0.06868 0.0
H577 H 0.21252 0.48465 0.07164 0.0
H578 H 0.15603 0.41413 0.08348 0.0
H579 H 0.12616 0.42087 0.07057 0.0
H580 H 0.28846 0.45706 0.09869 0.0
H581 H 0.25167 0.44414 0.056 0.0
H582 H 0.18258 0.49138 0.05863 0.0
H583 H 0.32505 0.46366 0.08594 0.0
H584 H 0.28892 0.45248 0.04341 0.0
C585 C 0.47335 0.91042 0.20421 0.0
C586 C 0.4687 0.92867 0.20005 0.0
C587 C 0.46831 0.90107 0.21866 0.0
C588 C 0.45846 0.90965 0.22944 0.0
C589 C 0.45349 0.92768 0.22524 0.0
C590 C 0.45855 0.93706 0.21077 0.0
C591 C 0.45363 0.89992 0.24498 0.0
C592 C 0.47011 0.89469 0.25217 0.0
C593 C 0.46574 0.88495 0.26663 0.0
C594 C 0.44433 0.8806 0.27395 0.0
C595 C 0.42777 0.88616 0.26714 0.0
C596 C 0.43263 0.89579 0.25266 0.0
C597 C 0.40544 0.88207 0.27515 0.0
C598 C 0.39065 0.8606 0.28264 0.0
C599 C 0.39869 0.89968 0.2753 0.0
C600 C 0.37781 0.89599 0.28278 0.0
C601 C 0.36288 0.87446 0.29017 0.0
C602 C 0.4838 0.87975 0.27404 0.0
C603 C 0.49703 0.87177 0.26558 0.0
C604 C 0.48855 0.88331 0.28952 0.0
C605 C 0.50627 0.87947 0.29623 0.0
C606 C 0.51992 0.87221 0.28764 0.0
C607 C 0.5149 0.86823 0.27226 0.0
C608 C 0.36953 0.85677 0.28996 0.0
H609 H 0.48071 0.90314 0.19623 0.0
H610 H 0.47195 0.88689 0.22134 0.0
H611 H 0.44618 0.93496 0.23325 0.0
H612 H 0.45501 0.9513 0.2081 0.0
H613 H 0.48681 0.89886 0.24658 0.0
H614 H 0.41966 0.89948 0.24722 0.0
H615 H 0.44054 0.87301 0.28502 0.0
H616 H 0.39521 0.8466 0.28267 0.0
H617 H 0.40973 0.91647 0.26974 0.0
H618 H 0.37315 0.90992 0.28259 0.0
H619 H 0.4936 0.86819 0.25373 0.0
H620 H 0.47908 0.88973 0.29643 0.0
H621 H 0.35854 0.84004 0.2956 0.0
H622 H 0.52478 0.86225 0.26534 0.0
H623 H 0.5098 0.88289 0.30809 0.0
C624 C 0.04653 0.51049 0.2048 0.0
C625 C 0.05448 0.52853 0.19403 0.0
C626 C 0.05743 0.51523 0.21896 0.0
C627 C 0.07646 0.53812 0.22269 0.0
C628 C 0.08454 0.55607 0.21189 0.0
C629 C 0.07372 0.55133 0.19774 0.0
C630 C 0.08793 0.54343 0.23778 0.0
C631 C 0.09379 0.52754 0.24468 0.0
C632 C 0.10564 0.53311 0.25862 0.0
C633 C 0.11154 0.55475 0.26569 0.0
C634 C 0.1052 0.57061 0.25921 0.0
C635 C 0.09337 0.5647 0.24523 0.0
C636 C 0.11076 0.59316 0.26708 0.0
C637 C 0.10977 0.59406 0.28277 0.0
C638 C 0.11701 0.61398 0.25899 0.0
C639 C 0.12183 0.63497 0.26636 0.0
C640 C 0.12101 0.63576 0.28199 0.0
C641 C 0.11173 0.5163 0.26595 0.0
C642 C 0.09416 0.49215 0.26725 0.0
C643 C 0.13494 0.52444 0.27207 0.0
C644 C 0.14045 0.50875 0.27939 0.0
C645 C 0.1228 0.48459 0.28091 0.0
C646 C 0.09958 0.4765 0.27473 0.0
C647 C 0.1151 0.61521 0.29014 0.0
H648 H 0.03156 0.49281 0.2024 0.0
H649 H 0.05065 0.50108 0.22709 0.0
H650 H 0.09945 0.57378 0.21433 0.0
H651 H 0.08065 0.56553 0.18965 0.0
H652 H 0.08979 0.51114 0.23902 0.0
H653 H 0.08784 0.57641 0.24021 0.0
H654 H 0.12097 0.5591 0.27635 0.0
H655 H 0.10451 0.57836 0.28941 0.0
H656 H 0.11848 0.61422 0.24694 0.0
H657 H 0.12656 0.65072 0.25987 0.0
H658 H 0.07603 0.48548 0.2628 0.0
H659 H 0.14891 0.54294 0.27107 0.0
H660 H 0.11415 0.61539 0.30221 0.0
H661 H 0.08538 0.45814 0.27588 0.0
H662 H 0.15866 0.51556 0.28372 0.0
C663 C 0.44446 0.51744 0.2026 0.0
C664 C 0.46821 0.52289 0.19909 0.0
C665 C 0.43893 0.52223 0.21689 0.0
C666 C 0.45705 0.53271 0.228 0.0
C667 C 0.48072 0.53794 0.22451 0.0
C668 C 0.48622 0.53313 0.21027 0.0
C669 C 0.45157 0.53872 0.24306 0.0
C670 C 0.43012 0.52289 0.25057 0.0
C671 C 0.42519 0.52848 0.2649 0.0
C672 C 0.44187 0.55043 0.27156 0.0
C673 C 0.4634 0.56637 0.26428 0.0
C674 C 0.46808 0.56038 0.25008 0.0
C675 C 0.48121 0.58921 0.27157 0.0
C676 C 0.4737 0.60424 0.278 0.0
C677 C 0.50592 0.59613 0.27211 0.0
C678 C 0.52276 0.61758 0.27898 0.0
C679 C 0.51539 0.63287 0.2853 0.0
C680 C 0.40298 0.51125 0.27312 0.0
C681 C 0.38053 0.49821 0.26569 0.0
C682 C 0.4041 0.50766 0.28852 0.0
C683 C 0.38337 0.49148 0.29627 0.0
C684 C 0.36092 0.47841 0.28885 0.0
C685 C 0.35977 0.48203 0.27346 0.0
C686 C 0.49059 0.62588 0.2847 0.0
H687 H 0.43008 0.50934 0.19432 0.0
H688 H 0.42056 0.51813 0.21916 0.0
H689 H 0.49507 0.54574 0.23282 0.0
H690 H 0.50476 0.53783 0.20796 0.0
H691 H 0.41767 0.50586 0.24546 0.0
H692 H 0.48445 0.57292 0.24434 0.0
H693 H 0.43824 0.55508 0.28251 0.0
H694 H 0.45479 0.59946 0.27761 0.0
H695 H 0.51218 0.58474 0.26741 0.0
H696 H 0.54155 0.62199 0.27947 0.0
H697 H 0.37894 0.50065 0.25387 0.0
H698 H 0.42112 0.51715 0.29458 0.0
H699 H 0.4842 0.63727 0.28918 0.0
H700 H 0.34287 0.47208 0.26733 0.0
H701 H 0.38494 0.48935 0.30813 0.0
Gd702 Gd 0.50957 0.01184 0.02859 0.0
Gd703 Gd 0.49155 0.98397 0.99132 0.0
C704 C 0.41577 0.91793 0.99208 0.0
C705 C 0.42475 0.88575 0.99121 0.0
C706 C 0.45745 0.92699 0.99016 0.0
C707 C 0.44082 0.93467 0.99139 0.0
C708 C 0.44944 0.90238 0.9894 0.0
C709 C 0.40793 0.89352 0.99256 0.0
C710 C 0.39925 0.92616 0.99177 0.0
C711 C 0.40777 0.9504 0.99004 0.0
N712 N 0.44894 0.95841 0.99086 0.0
C713 C 0.43272 0.96628 0.98937 0.0
H714 H 0.43866 0.98478 0.98786 0.0
C715 C 0.49692 0.93639 0.98324 0.0
N716 N 0.48111 0.94349 0.98816 0.0
C717 C 0.48996 0.91228 0.98257 0.0
C718 C 0.46624 0.89518 0.98604 0.0
H719 H 0.51532 0.9494 0.98034 0.0
H720 H 0.38882 0.88047 0.99338 0.0
H721 H 0.55646 0.00224 0.02735 0.0
H722 H 0.37991 0.9139 0.99231 0.0
H723 H 0.39512 0.95691 0.98927 0.0
H724 H 0.41836 0.86681 0.99093 0.0
H725 H 0.49086 0.04915 0.03995 0.0
H726 H 0.62214 0.06939 0.03046 0.0
H727 H 0.60114 0.0255 0.02791 0.0
H728 H 0.59398 0.12464 0.03861 0.0
H729 H 0.50288 0.90691 0.97929 0.0
H730 H 0.46081 0.87648 0.98536 0.0
H731 H 0.61928 0.1064 0.03409 0.0
H732 H 0.50839 0.09223 0.04529 0.0
N733 N 0.55213 0.03257 0.02932 0.0
C734 C 0.6025 0.05923 0.03025 0.0
C735 C 0.59072 0.03447 0.02884 0.0
C736 C 0.58879 0.07054 0.03177 0.0
C737 C 0.56328 0.05648 0.0314 0.0
C738 C 0.56536 0.02132 0.02847 0.0
N739 N 0.5247 0.0524 0.03411 0.0
C740 C 0.5491 0.06676 0.03375 0.0
C741 C 0.52004 0.08534 0.04194 0.0
C742 C 0.545 0.10065 0.04061 0.0
C743 C 0.51019 0.06103 0.03893 0.0
C744 C 0.55994 0.09136 0.03679 0.0
H745 H 0.55262 0.11946 0.04303 0.0
O746 O 0.4918 0.00862 0.0499 0.0
O747 O 0.48028 0.9821 0.01523 0.0
O748 O 0.47889 0.01069 0.99456 0.0
O749 O 0.50303 0.03631 0.01375 0.0
O750 O 0.47035 0.00157 0.0291 0.0
O751 O 0.52064 0.00049 0.04849 0.0
O752 O 0.50987 0.98356 0.97093 0.0
O753 O 0.5229 0.0087 1.00617 0.0
O754 O 0.50902 0.97689 0.02781 0.0
O755 O 0.51466 0.97106 1.00292 0.0
O756 O 0.52139 0.02027 0.98497 0.0
O757 O 0.48001 0.9906 0.96991 0.0
C758 C 0.46234 0.98327 0.02032 0.0
C759 C 0.58531 0.10565 0.03648 0.0
C760 C 0.59972 0.09526 0.03395 0.0
C761 C 0.50534 0.00229 0.05722 0.0
C762 C 0.51468 0.01369 0.07194 0.0
C763 C 0.53156 0.03807 0.07298 0.0
C764 C 0.50694 1.00003 0.08509 0.0
C765 C 0.51618 0.01069 0.09922 0.0
C766 C 0.54054 0.04878 0.08687 0.0
C767 C 0.53296 0.03528 0.09987 0.0
C768 C 0.48833 0.0311 1.00208 0.0
C769 C 0.5336 0.02579 0.99717 0.0
C770 C 0.49614 0.98819 0.96235 0.0
C771 C 0.4881 0.97533 0.94794 0.0
C772 C 0.4731 0.95055 0.94749 0.0
C773 C 0.49505 0.98816 0.93446 0.0
C774 C 0.48691 0.97631 0.92054 0.0
C775 C 0.46522 0.93866 0.93379 0.0
C776 C 0.47201 0.95136 0.92044 0.0
C777 C 0.51444 0.96612 0.01725 0.0
H778 H 0.53784 0.04883 0.06306 0.0
H779 H 0.49412 0.98111 0.08427 0.0
H780 H 0.55348 0.06766 0.08757 0.0
H781 H 0.54012 0.04421 0.11049 0.0
H782 H 0.46739 0.94043 0.95769 0.0
H783 H 0.50635 0.00738 0.93485 0.0
H784 H 0.45372 0.9195 0.9335 0.0
H785 H 0.46573 0.94155 0.91001 0.0
Gd786 Gd 0.98428 0.49262 0.02258 0.0
Gd787 Gd 0.02239 0.50426 0.98896 0.0
C788 C 0.08783 0.49316 0.99098 0.0
C789 C 0.12137 0.53332 0.98735 0.0
C790 C 0.07985 0.52553 0.98724 0.0
C791 C 0.07144 0.50173 0.98986 0.0
C792 C 0.10485 0.54147 0.98545 0.0
C793 C 0.11287 0.50918 0.99015 0.0
C794 C 0.07854 0.46865 0.99243 0.0
C795 C 0.05349 0.45332 0.99212 0.0
N796 N 0.04712 0.48675 0.99041 0.0
C797 C 0.03797 0.46268 0.99088 0.0
H798 H 0.0187 0.45053 0.99078 0.0
C799 C 0.07042 0.55494 0.98001 0.0
N800 N 0.06338 0.53268 0.98523 0.0
C801 C 0.09503 0.5715 0.97818 0.0
C802 C 0.11237 0.56486 0.98117 0.0
H803 H 0.05702 0.56012 0.97775 0.0
H804 H 0.12575 0.50297 0.99117 0.0
H805 H 0.98795 0.54632 0.02093 0.0
H806 H 0.09051 0.46135 0.99339 0.0
H807 H 0.04611 0.43429 0.99292 0.0
H808 H 0.14068 0.54535 0.98621 0.0
H809 H 0.94962 0.43684 0.03399 0.0
H810 H 0.91614 0.53552 0.01821 0.0
H811 H 0.96055 0.56259 0.01881 0.0
H812 H 0.86594 0.45147 0.02514 0.0
H813 H 0.10058 0.58934 0.97447 0.0
H814 H 0.13141 0.57766 0.97966 0.0
H815 H 0.88089 0.49387 0.02025 0.0
H816 H 0.90603 0.40754 0.03709 0.0
N817 N 0.95952 0.51011 0.02116 0.0
C818 C 0.92811 0.52822 0.01917 0.0
C819 C 0.95315 0.54355 0.01955 0.0
C820 C 0.91881 0.50371 0.02056 0.0
C821 C 0.93521 0.49512 0.02168 0.0
C822 C 0.96867 0.53418 0.02077 0.0
N823 N 0.94327 0.46419 0.02631 0.0
C824 C 0.92679 0.47132 0.02425 0.0
C825 C 0.91159 0.42537 0.03335 0.0
C826 C 0.89425 0.43197 0.03027 0.0
C827 C 0.9362 0.44196 0.0316 0.0
C828 C 0.90178 0.45536 0.02599 0.0
H829 H 0.87521 0.41916 0.03173 0.0
O830 O 0.98642 0.47975 0.04457 0.0
O831 O 0.01718 0.49428 0.01293 0.0
O832 O 0.99147 0.4658 0.98943 0.0
O833 O 0.9622 0.4622 0.00667 0.0
O834 O 0.99666 0.46602 0.02678 0.0
O835 O 0.99279 0.51559 0.04207 0.0
O836 O 0.02039 0.5173 0.96699 0.0
O837 O 0.98952 0.50259 0.99863 0.0
O838 O 0.01522 0.53101 0.02207 0.0
O839 O 0.04472 0.53436 1.00513 0.0
O840 O 0.0102 0.53102 0.98493 0.0
O841 O 0.01372 0.48136 0.9694 0.0
C842 C 0.01629 0.47639 0.01908 0.0
C843 C 0.88526 0.46352 0.02405 0.0
C844 C 0.89377 0.48766 0.0213 0.0
C845 C 0.99054 0.49925 0.05136 0.0
C846 C 0.97628 0.49632 0.06484 0.0
C847 C 0.95174 0.48974 0.06382 0.0
C848 C 0.98741 0.50017 0.07894 0.0
C849 C 0.97413 0.49739 0.09206 0.0
C850 C 0.9384 0.4868 0.07674 0.0
C851 C 0.94944 0.49055 0.09077 0.0
C852 C 0.9696 0.45407 0.99546 0.0
C853 C 0.99051 0.52058 0.99257 0.0
C854 C 0.01614 0.49781 0.96013 0.0
C855 C 0.03055 0.50076 0.94668 0.0
C856 C 0.0549 0.50676 0.94791 0.0
C857 C 0.01986 0.49755 0.93245 0.0
C858 C 0.03343 0.50032 0.91945 0.0
C859 C 0.06853 0.50977 0.93513 0.0
C860 C 0.05795 0.50663 0.921 0.0
C861 C 0.03733 0.54249 0.01636 0.0
H862 H 0.94292 0.4869 0.05308 0.0
H863 H 0.00651 0.50567 0.07964 0.0
H864 H 0.91942 0.48158 0.07588 0.0
H865 H 0.93857 0.48787 0.10061 0.0
H866 H 0.06337 0.50907 0.95872 0.0
H867 H 1.00091 0.49254 0.93155 0.0
H868 H 0.08737 0.51456 0.93617 0.0
H869 H 0.06908 0.50937 0.91128 0.0
Gd870 Gd 0.49394 0.50971 0.99046 0.0
Gd871 Gd 0.51331 0.49836 0.02642 0.0
C872 C 0.59036 0.51041 0.02601 0.0
C873 C 0.58355 0.47058 0.03033 0.0
C874 C 0.54951 0.47767 0.02939 0.0
C875 C 0.56514 0.50147 0.0267 0.0
C876 C 0.55858 0.46207 0.03175 0.0
C877 C 0.59942 0.49472 0.02744 0.0
C878 C 0.60572 0.53491 0.02423 0.0
C879 C 0.59585 0.54987 0.0236 0.0
N880 N 0.55576 0.5161 0.02539 0.0
C881 C 0.5707 0.54012 0.02427 0.0
H882 H 0.56332 0.55184 0.02367 0.0
C883 C 0.51014 0.44802 0.03632 0.0
N884 N 0.5256 0.47019 0.03088 0.0
C885 C 0.51816 0.43176 0.03863 0.0
C886 C 0.54242 0.43869 0.03608 0.0
H887 H 0.4914 0.44272 0.03838 0.0
H888 H 0.6187 0.50118 0.02674 0.0
H889 H 0.47605 0.47028 0.96236 0.0
H890 H 0.62519 0.54249 0.02362 0.0
H891 H 0.60759 0.56889 0.02245 0.0
H892 H 0.59084 0.45881 0.03191 0.0
H893 H 0.48091 0.54925 0.00648 0.0
H894 H 0.39867 0.43531 0.95845 0.0
H895 H 0.43783 0.43967 0.95041 0.0
H896 H 0.37887 0.48285 0.99009 0.0
H897 H 0.50567 0.41396 0.04245 0.0
H898 H 0.54866 0.42614 0.03801 0.0
H899 H 0.37669 0.45135 0.97357 0.0
H900 H 0.4453 0.55308 0.01187 0.0
N901 N 0.45841 0.48122 0.97794 0.0
C902 C 0.41534 0.44839 0.96389 0.0
C903 C 0.43739 0.4508 0.95931 0.0
C904 C 0.41527 0.46399 0.97473 0.0
C905 C 0.43749 0.48071 0.98144 0.0
C906 C 0.45893 0.46794 0.96617 0.0
N907 N 0.46084 0.51537 0.99577 0.0
C908 C 0.43877 0.49853 0.99055 0.0
C909 C 0.44315 0.53752 1.00597 0.0
C910 C 0.42015 0.51961 1.00145 0.0
C911 C 0.4634 0.53516 1.00296 0.0
C912 C 0.41776 0.49996 0.99344 0.0
H913 H 0.40449 0.52141 1.00387 0.0
O914 O 0.49758 0.53934 0.97718 0.0
O915 O 0.52578 0.51391 1.0038 0.0
O916 O 0.51832 0.53515 0.0268 0.0
O917 O 0.51643 0.54539 1.00216 0.0
O918 O 0.51997 0.49839 0.98258 0.0
O919 O 0.51027 0.51656 0.96846 0.0
O920 O 0.4956 0.48556 0.04786 0.0
O921 O 0.48475 0.5027 0.01463 0.0
O922 O 0.47965 0.47001 0.99224 0.0
O923 O 0.50197 0.46586 0.01175 0.0
O924 O 0.47341 0.47242 0.02755 0.0
O925 O 0.5281 0.51976 0.04661 0.0
C926 C 0.534 0.50534 0.99414 0.0
C927 C 0.39525 0.48227 0.98777 0.0
C928 C 0.394 0.4643 0.97841 0.0
C929 C 0.50557 0.53339 0.9655 0.0
C930 C 0.49373 0.5315 0.95086 0.0
C931 C 0.47321 0.53419 0.94978 0.0
C932 C 0.50307 0.52696 0.93774 0.0
C933 C 0.4923 0.52553 0.92369 0.0
C934 C 0.46246 0.53273 0.9359 0.0
C935 C 0.47196 0.52857 0.92295 0.0
C936 C 0.52116 0.55078 0.01652 0.0
C937 C 0.46625 0.48414 0.01945 0.0
C938 C 0.51179 0.50396 0.05531 0.0
C939 C 0.52056 0.49914 0.06937 0.0
C940 C 0.53746 0.49131 0.06922 0.0
C941 C 0.51211 0.50267 0.08312 0.0
C942 C 0.52056 0.49846 0.09671 0.0
C943 C 0.54568 0.48682 0.08259 0.0
C944 C 0.53732 0.49032 0.09623 0.0
C945 C 0.48733 0.45763 0.99997 0.0
H946 H 0.46541 0.53741 0.95963 0.0
H947 H 0.5189 0.52485 0.93844 0.0
H948 H 0.44667 0.53484 0.93518 0.0
H949 H 0.46317 0.52738 0.91234 0.0
H950 H 0.54438 0.48876 0.05881 0.0
H951 H 0.49935 0.50911 0.0832 0.0
H952 H 0.55862 0.48064 0.08239 0.0
H953 H 0.54387 0.48647 0.10642 0.0
Gd954 Gd 0.17991 0.35052 0.36054 0.0
Gd955 Gd 0.15846 0.31697 0.32456 0.0
C956 C 0.0819 0.25265 0.32112 0.0
C957 C 0.08997 0.22033 0.31634 0.0
C958 C 0.12328 0.261 0.31908 0.0
C959 C 0.10707 0.26885 0.32154 0.0
C960 C 0.11495 0.23678 0.31596 0.0
C961 C 0.07346 0.22826 0.31896 0.0
C962 C 0.066 0.26156 0.32234 0.0
C963 C 0.07534 0.28612 0.32323 0.0
N964 N 0.1159 0.29256 0.32333 0.0
C965 C 0.10046 0.30146 0.32345 0.0
H966 H 0.10733 0.32037 0.32421 0.0
C967 C 0.16362 0.27121 0.31378 0.0
N968 N 0.14719 0.27741 0.3186 0.0
C969 C 0.1563 0.24739 0.31063 0.0
C970 C 0.1319 0.23001 0.31198 0.0
H971 H 0.18253 0.28461 0.31282 0.0
H972 H 0.0542 0.2155 0.31878 0.0
H973 H 0.23066 0.34635 0.361 0.0
H974 H 0.04654 0.24971 0.32213 0.0
H975 H 0.06321 0.29325 0.32379 0.0
H976 H 0.08321 0.20159 0.31416 0.0
H977 H 0.1564 0.38362 0.37177 0.0
H978 H 0.29202 0.4166 0.36339 0.0
H979 H 0.27482 0.373 0.36163 0.0
H980 H 0.25632 0.46567 0.37092 0.0
H981 H 0.16948 0.24245 0.3072 0.0
H982 H 0.12624 0.21158 0.30948 0.0
H983 H 0.28492 0.45118 0.36662 0.0
H984 H 0.16995 0.42593 0.37724 0.0
N985 N 0.22253 0.37447 0.36192 0.0
C986 C 0.27253 0.40496 0.3631 0.0
C987 C 0.26289 0.38037 0.36216 0.0
C988 C 0.25688 0.41417 0.36423 0.0
C989 C 0.23165 0.39823 0.36372 0.0
C990 C 0.23773 0.36528 0.36182 0.0
N991 N 0.19167 0.39026 0.36633 0.0
C992 C 0.21566 0.40641 0.36599 0.0
C993 C 0.183 0.42072 0.37399 0.0
C994 C 0.20752 0.43782 0.37279 0.0
C995 C 0.17539 0.39681 0.37092 0.0
C996 C 0.22428 0.43071 0.36903 0.0
H997 H 0.2134 0.45632 0.37523 0.0
O998 O 0.16115 0.3456 0.38166 0.0
O999 O 0.14989 0.31999 0.3483 0.0
O1000 O 0.15041 0.3473 0.32609 0.0
O1001 O 0.17506 0.37468 0.34455 0.0
O1002 O 0.1405 0.33986 0.36195 0.0
O1003 O 0.1909 0.33873 0.38024 0.0
O1004 O 0.17721 0.32244 0.30338 0.0
O1005 O 0.18827 0.34732 0.33688 0.0
O1006 O 0.1877 0.31999 0.35914 0.0
O1007 O 0.16378 0.29289 0.34033 0.0
O1008 O 0.19816 0.32836 0.32288 0.0
O1009 O 0.14688 0.3284 0.30497 0.0
C1010 C 0.13211 0.32131 0.35339 0.0
C1011 C 0.24933 0.44688 0.36879 0.0
C1012 C 0.26561 0.43863 0.36636 0.0
C1013 C 0.17507 0.33971 0.38895 0.0
C1014 C 0.18403 0.35109 0.40372 0.0
C1015 C 0.20059 0.37555 0.40478 0.0
C1016 C 0.17628 0.33743 0.41687 0.0
C1017 C 0.18523 0.34819 0.43102 0.0
C1018 C 0.20926 0.38635 0.41868 0.0
C1019 C 0.2017 0.37286 0.43169 0.0
C1020 C 0.16085 0.36865 0.33256 0.0
C1021 C 0.20628 0.34662 0.33167 0.0
C1022 C 0.16288 0.32791 0.29619 0.0
C1023 C 0.15403 0.31651 0.28141 0.0
C1024 C 0.13614 0.29243 0.28041 0.0
C1025 C 0.16343 0.32969 0.26819 0.0
C1026 C 0.15513 0.31873 0.25402 0.0
C1027 C 0.12776 0.28154 0.2665 0.0
C1028 C 0.13712 0.2945 0.25342 0.0
C1029 C 0.17779 0.29885 0.35242 0.0
H1030 H 0.20686 0.38631 0.39486 0.0
H1031 H 0.1637 0.31845 0.41605 0.0
H1032 H 0.22195 0.40529 0.4194 0.0
H1033 H 0.20862 0.38185 0.44231 0.0
H1034 H 0.12858 0.28207 0.29038 0.0
H1035 H 0.17735 0.34828 0.26895 0.0
H1036 H 0.11386 0.26295 0.26583 0.0
H1037 H 0.12995 0.28556 0.24281 0.0
Gd1038 Gd 0.65301 0.82899 0.36024 0.0
Gd1039 Gd 0.69101 0.83969 0.32673 0.0
C1040 C 0.75663 0.82892 0.32931 0.0
C1041 C 0.79006 0.869 0.32528 0.0
C1042 C 0.74849 0.86107 0.32501 0.0
C1043 C 0.74017 0.83739 0.32796 0.0
C1044 C 0.77347 0.877 0.32311 0.0
C1045 C 0.78165 0.84498 0.32842 0.0
C1046 C 0.74741 0.80447 0.33102 0.0
C1047 C 0.72237 0.78907 0.3307 0.0
N1048 N 0.71587 0.82236 0.32856 0.0
C1049 C 0.70679 0.79832 0.32923 0.0
H1050 H 0.68752 0.78613 0.32912 0.0
C1051 C 0.73889 0.89009 0.31715 0.0
N1052 N 0.73195 0.86806 0.32274 0.0
C1053 C 0.76347 0.90663 0.31519 0.0
C1054 C 0.78088 0.9002 0.31845 0.0
H1055 H 0.72543 0.89511 0.31469 0.0
H1056 H 0.79458 0.83886 0.32963 0.0
H1057 H 0.65721 0.88291 0.3579 0.0
H1058 H 0.75943 0.79725 0.33216 0.0
H1059 H 0.71504 0.77006 0.33168 0.0
H1060 H 0.80936 0.88104 0.32407 0.0
H1061 H 0.61796 0.77353 0.37202 0.0
H1062 H 0.58564 0.87267 0.35494 0.0
H1063 H 0.6301 0.89945 0.35542 0.0
H1064 H 0.53486 0.7889 0.36263 0.0
H1065 H 0.76894 0.9243 0.31118 0.0
H1066 H 0.7999 0.91299 0.31684 0.0
H1067 H 0.55016 0.83123 0.3573 0.0
H1068 H 0.57431 0.74464 0.37532 0.0
N1069 N 0.62856 0.8468 0.35846 0.0
C1070 C 0.59748 0.86525 0.35606 0.0
C1071 C 0.62256 0.88041 0.35637 0.0
C1072 C 0.58799 0.84075 0.35771 0.0
C1073 C 0.60422 0.83199 0.35903 0.0
C1074 C 0.63791 0.87088 0.3578 0.0
N1075 N 0.61192 0.80093 0.36406 0.0
C1076 C 0.5956 0.80822 0.36183 0.0
C1077 C 0.58002 0.76242 0.3714 0.0
C1078 C 0.56283 0.76915 0.36816 0.0
C1079 C 0.60467 0.77878 0.36955 0.0
C1080 C 0.57056 0.79247 0.36363 0.0
H1081 H 0.54376 0.75651 0.36968 0.0
O1082 O 0.65477 0.8164 0.38241 0.0
O1083 O 0.68595 0.83025 0.35084 0.0
O1084 O 0.66009 0.80128 0.32759 0.0
O1085 O 0.63065 0.79851 0.34438 0.0
O1086 O 0.66487 0.8021 0.36467 0.0
O1087 O 0.66179 0.85239 0.37954 0.0
O1088 O 0.68881 0.85189 0.30452 0.0
O1089 O 0.6582 0.83836 0.33621 0.0
O1090 O 0.68408 0.8673 0.3595 0.0
O1091 O 0.71339 0.87041 0.34249 0.0
O1092 O 0.67866 0.86625 0.32214 0.0
O1093 O 0.68233 0.81613 0.30753 0.0
C1094 C 0.68465 0.81223 0.35711 0.0
C1095 C 0.5542 0.80078 0.3615 0.0
C1096 C 0.56291 0.82489 0.3585 0.0
C1097 C 0.65914 0.83611 0.38902 0.0
C1098 C 0.64469 0.83364 0.40235 0.0
C1099 C 0.6203 0.82748 0.40102 0.0
C1100 C 0.65544 0.83753 0.41658 0.0
C1101 C 0.64189 0.83521 0.42951 0.0
C1102 C 0.6067 0.82494 0.41374 0.0
C1103 C 0.61733 0.82871 0.42789 0.0
C1104 C 0.63801 0.78998 0.33336 0.0
C1105 C 0.65904 0.85607 0.32985 0.0
C1106 C 0.68457 0.83218 0.29798 0.0
C1107 C 0.69883 0.83466 0.28454 0.0
C1108 C 0.72316 0.84058 0.28576 0.0
C1109 C 0.688 0.83107 0.27033 0.0
C1110 C 0.70142 0.83338 0.25732 0.0
C1111 C 0.73663 0.84311 0.27297 0.0
C1112 C 0.72592 0.83961 0.25886 0.0
C1113 C 0.70607 0.87878 0.35362 0.0
H1114 H 0.61179 0.82468 0.39019 0.0
H1115 H 0.67443 0.84271 0.41753 0.0
H1116 H 0.58782 0.82002 0.41263 0.0
H1117 H 0.60624 0.82633 0.43758 0.0
H1118 H 0.73173 0.8432 0.29657 0.0
H1119 H 0.66907 0.82612 0.26945 0.0
H1120 H 0.75546 0.84785 0.274 0.0
H1121 H 0.73694 0.84202 0.24913 0.0
Gd1122 Gd 0.15784 0.84006 0.32643 0.0
Gd1123 Gd 0.18104 0.8275 0.36108 0.0
C1124 C 0.25497 0.83196 0.36302 0.0
C1125 C 0.24381 0.79102 0.36826 0.0
C1126 C 0.21274 0.80218 0.36596 0.0
C1127 C 0.23024 0.82535 0.36307 0.0
C1128 C 0.21934 0.78488 0.36907 0.0
C1129 C 0.26161 0.81453 0.3652 0.0
C1130 C 0.27231 0.856 0.36133 0.0
C1131 C 0.26483 0.87284 0.3604 0.0
N1132 N 0.22316 0.84174 0.36131 0.0
C1133 C 0.24008 0.8654 0.36068 0.0
H1134 H 0.23468 0.87867 0.35989 0.0
C1135 C 0.17191 0.77542 0.372 0.0
N1136 N 0.18939 0.79702 0.36686 0.0
C1137 C 0.17753 0.75764 0.37525 0.0
C1138 C 0.20127 0.76224 0.37351 0.0
H1139 H 0.15349 0.7717 0.37325 0.0
H1140 H 0.28049 0.81921 0.36503 0.0
H1141 H 0.10464 0.7886 0.32627 0.0
H1142 H 0.29149 0.86181 0.36117 0.0
H1143 H 0.27811 0.89155 0.35943 0.0
H1144 H 0.24923 0.77792 0.37043 0.0
H1145 H 0.18594 0.89778 0.31777 0.0
H1146 H 0.04737 0.80492 0.32578 0.0
H1147 H 0.06103 0.77531 0.32644 0.0
H1148 H 0.08933 0.88973 0.3203 0.0
H1149 H 0.16352 0.74038 0.37901 0.0
H1150 H 0.20559 0.74847 0.37605 0.0
H1151 H 0.05812 0.84773 0.32366 0.0
H1152 H 0.17575 0.92958 0.31426 0.0
N1153 N 0.11578 0.82549 0.32592 0.0
C1154 C 0.06658 0.81088 0.3257 0.0
C1155 C 0.07422 0.79412 0.32603 0.0
C1156 C 0.08382 0.83511 0.32482 0.0
C1157 C 0.10861 0.84192 0.32484 0.0
C1158 C 0.09902 0.80176 0.32593 0.0
N1159 N 0.14964 0.87113 0.32235 0.0
C1160 C 0.1261 0.8655 0.323 0.0
C1161 C 0.16162 0.91166 0.31678 0.0
C1162 C 0.1376 0.9064 0.31812 0.0
C1163 C 0.16732 0.89363 0.31873 0.0
C1164 C 0.11942 0.88301 0.32103 0.0
H1165 H 0.13321 0.92037 0.31656 0.0
O1166 O 0.17505 0.85223 0.30488 0.0
O1167 O 0.18803 0.83749 0.33713 0.0
O1168 O 0.19233 0.86666 0.35865 0.0
O1169 O 0.16303 0.86773 0.34359 0.0
O1170 O 0.19775 0.86614 0.32334 0.0
O1171 O 0.14291 0.81751 0.30672 0.0
O1172 O 0.16395 0.81711 0.38283 0.0
O1173 O 0.15065 0.8293 0.35014 0.0
O1174 O 0.14758 0.80111 0.32788 0.0
O1175 O 0.1738 0.79779 0.34489 0.0
O1176 O 0.14111 0.80116 0.36422 0.0
O1177 O 0.1957 0.85177 0.38006 0.0
C1178 C 0.20598 0.85527 0.33137 0.0
C1179 C 0.09483 0.8765 0.32164 0.0
C1180 C 0.07706 0.85259 0.32355 0.0
C1181 C 0.15896 0.83322 0.29777 0.0
C1182 C 0.14985 0.83717 0.28357 0.0
C1183 C 0.13424 0.84654 0.28344 0.0
C1184 C 0.1572 0.83187 0.26996 0.0
C1185 C 0.14911 0.83602 0.2562 0.0
C1186 C 0.1262 0.85078 0.26992 0.0
C1187 C 0.13359 0.84566 0.25641 0.0
C1188 C 0.18025 0.87715 0.35392 0.0
C1189 C 0.1327 0.81144 0.35581 0.0
C1190 C 0.18003 0.83666 0.38943 0.0
C1191 C 0.18978 0.83384 0.40371 0.0
C1192 C 0.20716 0.82662 0.40396 0.0
C1193 C 0.18157 0.83832 0.41726 0.0
C1194 C 0.19076 0.83569 0.43104 0.0
C1195 C 0.21619 0.82378 0.41753 0.0
C1196 C 0.20808 0.82824 0.43097 0.0
C1197 C 0.15816 0.78966 0.33354 0.0
H1198 H 0.12837 0.85067 0.29377 0.0
H1199 H 0.16901 0.82432 0.27015 0.0
H1200 H 0.11429 0.85819 0.2699 0.0
H1201 H 0.12739 0.8496 0.24611 0.0
H1202 H 0.21377 0.8232 0.39369 0.0
H1203 H 0.16835 0.84418 0.41702 0.0
H1204 H 0.22951 0.81807 0.41764 0.0
H1205 H 0.21522 0.82562 0.44133 0.0
Gd1206 Gd 0.84311 0.68213 0.69256 0.0
Gd1207 Gd 0.82648 0.65435 0.65541 0.0
C1208 C 0.74952 0.62317 0.63671 0.0
C1209 C 0.72844 0.58462 0.64871 0.0
C1210 C 0.77151 0.61126 0.65338 0.0
C1211 C 0.77102 0.62816 0.64432 0.0
C1212 C 0.75027 0.5891 0.65549 0.0
C1213 C 0.72808 0.6016 0.6393 0.0
C1214 C 0.75049 0.63953 0.62623 0.0
C1215 C 0.77275 0.65956 0.62299 0.0
N1216 N 0.79204 0.64873 0.64203 0.0
C1217 C 0.79356 0.66354 0.63075 0.0
H1218 H 0.81088 0.67871 0.62797 0.0
C1219 C 0.7946 0.59908 0.66761 0.0
N1220 N 0.79295 0.61614 0.65967 0.0
C1221 C 0.77405 0.57686 0.67003 0.0
C1222 C 0.7517 0.57195 0.66412 0.0
H1223 H 0.81157 0.60244 0.67233 0.0
H1224 H 0.71131 0.59758 0.63372 0.0
H1225 H 0.89534 0.68171 0.69056 0.0
H1226 H 0.73439 0.63633 0.62012 0.0
H1227 H 0.77394 0.6718 0.61444 0.0
H1228 H 0.7119 0.56782 0.65035 0.0
H1229 H 0.81696 0.71218 0.70539 0.0
H1230 H 0.9541 0.75345 0.69365 0.0
H1231 H 0.93924 0.71033 0.69082 0.0
H1232 H 0.91419 0.79818 0.70342 0.0
H1233 H 0.77544 0.56359 0.67654 0.0
H1234 H 0.7358 0.55476 0.66605 0.0
H1235 H 0.94454 0.78625 0.69802 0.0
H1236 H 0.82815 0.75383 0.71126 0.0
N1237 N 0.8853 0.70827 0.69308 0.0
C1238 C 0.93479 0.74094 0.69361 0.0
C1239 C 0.92647 0.71661 0.69205 0.0
C1240 C 0.91807 0.74874 0.69551 0.0
C1241 C 0.89313 0.7317 0.6953 0.0
C1242 C 0.90152 0.70041 0.69191 0.0
N1243 N 0.85253 0.7212 0.69878 0.0
C1244 C 0.87615 0.73842 0.69817 0.0
C1245 C 0.84181 0.74979 0.70747 0.0
C1246 C 0.86584 0.76799 0.70592 0.0
C1247 C 0.83554 0.72628 0.70415 0.0
C1248 C 0.88348 0.76235 0.70155 0.0
H1249 H 0.87072 0.78616 0.70862 0.0
O1250 O 0.82346 0.67395 0.7136 0.0
O1251 O 0.81574 0.65061 0.67937 0.0
O1252 O 0.81151 0.67935 0.65789 0.0
O1253 O 0.83259 0.70436 0.67825 0.0
O1254 O 0.80313 0.66829 0.69281 0.0
O1255 O 0.85699 0.6737 0.71245 0.0
O1256 O 0.83093 0.62955 0.64107 0.0
O1257 O 0.85707 0.68026 0.67007 0.0
O1258 O 0.85125 0.65226 0.69142 0.0
O1259 O 0.8482 0.63962 0.66667 0.0
O1260 O 0.85304 0.69193 0.64923 0.0
O1261 O 0.84409 0.66546 0.63381 0.0
C1262 C 0.79676 0.65037 0.68395 0.0
C1263 C 0.9082 0.77964 0.70104 0.0
C1264 C 0.92548 0.77285 0.698 0.0
C1265 C 0.83952 0.67133 0.72102 0.0
C1266 C 0.84664 0.68288 0.73588 0.0
C1267 C 0.86133 0.70765 0.73713 0.0
C1268 C 0.83923 0.669 0.74894 0.0
C1269 C 0.84671 0.67986 0.76319 0.0
C1270 C 0.86848 0.71852 0.75115 0.0
C1271 C 0.8613 0.70481 0.76407 0.0
C1272 C 0.81855 0.69874 0.6662 0.0
C1273 C 0.86615 0.69771 0.66116 0.0
C1274 C 0.83909 0.6442 0.62987 0.0
C1275 C 0.82693 0.63562 0.61508 0.0
C1276 C 0.80633 0.61288 0.61365 0.0
C1277 C 0.83535 0.65041 0.60234 0.0
C1278 C 0.82318 0.64257 0.5884 0.0
C1279 C 0.79451 0.60492 0.59993 0.0
C1280 C 0.80282 0.61951 0.58743 0.0
C1281 C 0.85388 0.63941 0.6809 0.0
H1282 H 0.8674 0.71859 0.72728 0.0
H1283 H 0.82815 0.64981 0.74798 0.0
H1284 H 0.87975 0.73768 0.75201 0.0
H1285 H 0.86705 0.7138 0.77479 0.0
H1286 H 0.79921 0.60117 0.62315 0.0
H1287 H 0.85099 0.66811 0.60338 0.0
H1288 H 0.77874 0.58731 0.59896 0.0
H1289 H 0.79332 0.61253 0.57693 0.0
Gd1290 Gd 0.31886 0.16633 0.69462 0.0
Gd1291 Gd 0.3583 0.17745 0.66195 0.0
C1292 C 0.42654 0.17106 0.66338 0.0
C1293 C 0.45844 0.21218 0.66039 0.0
C1294 C 0.41613 0.20194 0.66034 0.0
C1295 C 0.40905 0.1783 0.66254 0.0
C1296 C 0.44087 0.2191 0.65892 0.0
C1297 C 0.45128 0.18819 0.66262 0.0
C1298 C 0.41861 0.14676 0.66461 0.0
C1299 C 0.3938 0.13035 0.66449 0.0
N1300 N 0.385 0.16224 0.66315 0.0
C1301 C 0.37716 0.13841 0.66353 0.0
H1302 H 0.35807 0.12549 0.66352 0.0
C1303 C 0.4046 0.23054 0.65488 0.0
N1304 N 0.39869 0.20795 0.65882 0.0
C1305 C 0.4289 0.24825 0.65348 0.0
C1306 C 0.44715 0.24258 0.65568 0.0
H1307 H 0.39056 0.23503 0.65325 0.0
H1308 H 0.46499 0.18299 0.6634 0.0
H1309 H 0.3183 0.21782 0.69247 0.0
H1310 H 0.43145 0.14047 0.66536 0.0
H1311 H 0.38745 0.11149 0.66518 0.0
H1312 H 0.47756 0.22513 0.65947 0.0
H1313 H 0.28718 0.10889 0.7039 0.0
H1314 H 0.2446 0.20181 0.69001 0.0
H1315 H 0.28849 0.23124 0.69027 0.0
H1316 H 0.19942 0.11727 0.6967 0.0
H1317 H 0.43354 0.26625 0.65071 0.0
H1318 H 0.46596 0.2563 0.65453 0.0
H1319 H 0.21146 0.15916 0.69223 0.0
H1320 H 0.24436 0.07737 0.70652 0.0
N1321 N 0.29173 0.18099 0.6931 0.0
C1322 C 0.25764 0.19579 0.69101 0.0
C1323 C 0.28238 0.21245 0.69118 0.0
C1324 C 0.25001 0.1716 0.69253 0.0
C1325 C 0.26774 0.1647 0.69368 0.0
C1326 C 0.29927 0.20473 0.69245 0.0
N1327 N 0.27863 0.13554 0.69789 0.0
C1328 C 0.26096 0.1412 0.69615 0.0
C1329 C 0.24877 0.09523 0.70354 0.0
C1330 C 0.23031 0.10053 0.70109 0.0
C1331 C 0.27299 0.11312 0.70209 0.0
C1332 C 0.23629 0.12383 0.69757 0.0
H1333 H 0.21157 0.08666 0.70226 0.0
O1334 O 0.3218 0.15517 0.71695 0.0
O1335 O 0.35194 0.16744 0.68579 0.0
O1336 O 0.32847 0.13845 0.66368 0.0
O1337 O 0.2972 0.13817 0.67733 0.0
O1338 O 0.33114 0.13981 0.69989 0.0
O1339 O 0.32632 0.19023 0.71351 0.0
O1340 O 0.35623 0.18927 0.63965 0.0
O1341 O 0.32529 0.17633 0.67079 0.0
O1342 O 0.34842 0.20533 0.69278 0.0
O1343 O 0.37989 0.20558 0.67939 0.0
O1344 O 0.34599 0.20396 0.65671 0.0
O1345 O 0.34982 0.15349 0.64298 0.0
C1346 C 0.35081 0.14968 0.69224 0.0
C1347 C 0.21849 0.1304 0.6958 0.0
C1348 C 0.22534 0.15424 0.69326 0.0
C1349 C 0.32491 0.17469 0.72322 0.0
C1350 C 0.31047 0.17167 0.73661 0.0
C1351 C 0.28605 0.16548 0.7355 0.0
C1352 C 0.32125 0.17459 0.75073 0.0
C1353 C 0.30777 0.17128 0.76382 0.0
C1354 C 0.27253 0.16217 0.7484 0.0
C1355 C 0.28324 0.165 0.76247 0.0
C1356 C 0.30536 0.12831 0.66769 0.0
C1357 C 0.32626 0.19398 0.6643 0.0
C1358 C 0.35199 0.1694 0.63332 0.0
C1359 C 0.36598 0.17164 0.61982 0.0
C1360 C 0.39029 0.17739 0.62078 0.0
C1361 C 0.35489 0.16838 0.60576 0.0
C1362 C 0.36797 0.17093 0.5926 0.0
C1363 C 0.4034 0.17993 0.6078 0.0
C1364 C 0.39238 0.17677 0.59379 0.0
C1365 C 0.37158 0.2155 0.6889 0.0
H1366 H 0.27745 0.16317 0.72472 0.0
H1367 H 0.34024 0.17969 0.75149 0.0
H1368 H 0.25364 0.15728 0.74749 0.0
H1369 H 0.27223 0.16198 0.77229 0.0
H1370 H 0.39911 0.17995 0.63151 0.0
H1371 H 0.33616 0.16422 0.60508 0.0
H1372 H 0.42215 0.18433 0.60859 0.0
H1373 H 0.40288 0.17859 0.5839 0.0
Gd1374 Gd 0.82817 0.17509 0.65787 0.0
Gd1375 Gd 0.84542 0.16514 0.69471 0.0
C1376 C 0.92552 0.18503 0.69391 0.0
C1377 C 0.9227 0.14646 0.69151 0.0
C1378 C 0.88601 0.14929 0.69329 0.0
C1379 C 0.89992 0.17383 0.69415 0.0
C1380 C 0.89737 0.13534 0.69251 0.0
C1381 C 0.93675 0.17127 0.6922 0.0
C1382 C 0.93916 0.20974 0.69559 0.0
C1383 C 0.92735 0.22261 0.69796 0.0
N1384 N 0.88854 0.18676 0.69551 0.0
C1385 C 0.90203 0.2108 0.69813 0.0
H1386 H 0.89379 0.22131 0.70073 0.0
C1387 C 0.84807 0.11505 0.6971 0.0
N1388 N 0.86155 0.139 0.69432 0.0
C1389 C 0.85836 0.10047 0.69615 0.0
C1390 C 0.88306 0.1106 0.69343 0.0
H1391 H 0.82925 0.10694 0.70022 0.0
H1392 H 0.95632 0.17963 0.69175 0.0
H1393 H 0.77995 0.11866 0.65248 0.0
H1394 H 0.9588 0.21896 0.69545 0.0
H1395 H 0.93774 0.24167 0.6998 0.0
H1396 H 0.93164 0.13602 0.69066 0.0
H1397 H 0.84409 0.23317 0.65236 0.0
H1398 H 0.7148 0.12078 0.65773 0.0
H1399 H 0.73599 0.09816 0.65356 0.0
H1400 H 0.74163 0.20372 0.66202 0.0
H1401 H 0.8473 0.08148 0.69782 0.0
H1402 H 0.89108 0.09931 0.69288 0.0
H1403 H 0.71711 0.16008 0.66118 0.0
H1404 H 0.82587 0.25849 0.65467 0.0
N1405 N 0.78506 0.15327 0.65732 0.0
C1406 C 0.73444 0.13008 0.65749 0.0
C1407 C 0.74633 0.11726 0.65522 0.0
C1408 C 0.74799 0.15482 0.65898 0.0
C1409 C 0.77359 0.16612 0.65863 0.0
C1410 C 0.77165 0.12917 0.65493 0.0
N1411 N 0.81188 0.20107 0.65825 0.0
C1412 C 0.78741 0.19068 0.65935 0.0
C1413 C 0.81488 0.2395 0.65637 0.0
C1414 C 0.79018 0.22928 0.6591 0.0
C1415 C 0.82528 0.225 0.65547 0.0
C1416 C 0.77596 0.20455 0.6601 0.0
H1417 H 0.78207 0.24051 0.65963 0.0
O1418 O 0.8468 0.19827 0.63912 0.0
O1419 O 0.85977 0.18013 0.67217 0.0
O1420 O 0.85325 0.20279 0.69449 0.0
O1421 O 0.85305 0.21095 0.66923 0.0
O1422 O 0.85523 0.16425 0.65135 0.0
O1423 O 0.81807 0.162 0.63515 0.0
O1424 O 0.82613 0.14186 0.71329 0.0
O1425 O 0.81384 0.16009 0.68043 0.0
O1426 O 0.82084 0.13768 0.65795 0.0
O1427 O 0.8209 0.12937 0.68318 0.0
O1428 O 0.81868 0.17649 0.70107 0.0
O1429 O 0.85546 0.1777 0.71754 0.0
C1430 C 0.86876 0.17159 0.66308 0.0
C1431 C 0.75064 0.19333 0.66119 0.0
C1432 C 0.73668 0.16851 0.66064 0.0
C1433 C 0.83403 0.18194 0.62915 0.0
C1434 C 0.82636 0.18911 0.61558 0.0
C1435 C 0.81144 0.19924 0.61627 0.0
C1436 C 0.83329 0.18458 0.6016 0.0
C1437 C 0.82533 0.19 0.58826 0.0
C1438 C 0.8037 0.20496 0.60312 0.0
C1439 C 0.81051 0.20035 0.58921 0.0
C1440 C 0.85686 0.21756 0.68348 0.0
C1441 C 0.80493 0.16882 0.68944 0.0
C1442 C 0.83919 0.15778 0.72339 0.0
C1443 C 0.8467 0.14983 0.73669 0.0
C1444 C 0.86188 0.14004 0.73559 0.0
C1445 C 0.83937 0.15325 0.75085 0.0
C1446 C 0.84717 0.14701 0.76393 0.0
C1447 C 0.8694 0.13345 0.74848 0.0
C1448 C 0.86217 0.13692 0.76255 0.0
C1449 C 0.81755 0.12295 0.66891 0.0
H1450 H 0.80562 0.20252 0.62691 0.0
H1451 H 0.84437 0.17623 0.60113 0.0
H1452 H 0.79223 0.21284 0.60369 0.0
H1453 H 0.80428 0.20501 0.5792 0.0
H1454 H 0.86811 0.1377 0.72485 0.0
H1455 H 0.82813 0.1614 0.75166 0.0
H1456 H 0.88106 0.1258 0.74757 0.0
H1457 H 0.86826 0.13161 0.77234 0.0
H1458 H 0.33039 0.848 0.04113 0.0
H1459 H 0.3387 0.90132 0.07356 0.0
H1460 H 0.36661 0.87788 0.02825 0.0
H1461 H 0.37411 0.93106 0.06036 0.0
H1462 H 0.42066 0.98336 0.02511 0.0
H1463 H 0.38282 0.95115 0.03508 0.0
H1464 H 0.41277 0.90436 0.03401 0.0
H1465 H 0.45088 0.93686 0.02424 0.0
C1466 C 0.3399 0.86598 0.04559 0.0
C1467 C 0.33138 0.87215 0.05841 0.0
C1468 C 0.36059 0.8831 0.03813 0.0
C1469 C 0.37303 0.90684 0.04321 0.0
C1470 C 0.36462 0.913 0.05601 0.0
C1471 C 0.3442 0.8959 0.06355 0.0
C1472 C 0.41895 0.96604 0.02675 0.0
C1473 C 0.43846 0.96244 0.02365 0.0
C1474 C 0.39739 0.94767 0.03252 0.0
C1475 C 0.3949 0.92529 0.03541 0.0
C1476 C 0.41411 0.92138 0.03179 0.0
C1477 C 0.43585 0.93991 0.02614 0.0
H1478 H 0.1159 0.42622 0.04437 0.0
H1479 H 0.14638 0.49598 0.06459 0.0
H1480 H 0.08487 0.43176 0.03212 0.0
H1481 H 0.11486 0.50135 0.05276 0.0
H1482 H 0.06422 0.51153 0.02158 0.0
H1483 H 0.09819 0.50745 0.03074 0.0
H1484 H 0.04931 0.43233 0.03762 0.0
H1485 H 0.01591 0.43641 0.02778 0.0
C1486 C 0.11587 0.44271 0.04628 0.0
C1487 C 0.13356 0.46057 0.05556 0.0
C1488 C 0.09798 0.4459 0.03929 0.0
C1489 C 0.09702 0.46694 0.04151 0.0
C1490 C 0.11507 0.48502 0.05057 0.0
C1491 C 0.13314 0.48192 0.05743 0.0
C1492 C 0.06094 0.49409 0.02475 0.0
C1493 C 0.03753 0.47415 0.02358 0.0
C1494 C 0.08035 0.49176 0.03022 0.0
C1495 C 0.07671 0.4695 0.03494 0.0
C1496 C 0.05314 0.44966 0.03381 0.0
C1497 C 0.03386 0.45199 0.02826 0.0
H1498 H 0.59898 0.70161 0.04097 0.0
H1499 H 0.52869 0.67233 0.06155 0.0
H1500 H 0.58642 0.66286 0.02915 0.0
H1501 H 0.5162 0.63389 0.04971 0.0
H1502 H 0.51864 0.56462 0.04478 0.0
H1503 H 0.531 0.60435 0.054 0.0
H1504 H 0.55394 0.63252 0.00979 0.0
H1505 H 0.54129 0.59225 1.00033 0.0
C1506 C 0.58086 0.68693 0.04291 0.0
C1507 C 0.56483 0.68994 0.05222 0.0
C1508 C 0.57362 0.66489 0.03604 0.0
C1509 C 0.55038 0.64543 0.03856 0.0
C1510 C 0.53427 0.64859 0.04766 0.0
C1511 C 0.54138 0.67061 0.05436 0.0
C1512 C 0.52637 0.5792 0.03695 0.0
C1513 C 0.52903 0.57526 0.02179 0.0
C1514 C 0.53329 0.60195 0.04226 0.0
C1515 C 0.5433 0.62145 0.0326 0.0
C1516 C 0.5463 0.61773 0.01746 0.0
C1517 C 0.53899 0.59474 0.01205 0.0
H1518 H 0.88303 0.3037 0.97225 0.0
H1519 H 0.85631 0.3383 0.94306 0.0
H1520 H 0.91212 0.34234 0.98328 0.0
H1521 H 0.88558 0.377 0.95399 0.0
H1522 H 0.96191 0.44198 0.96602 0.0
H1523 H 0.93271 0.40336 0.95496 0.0
H1524 H 0.90946 0.37466 0.99904 0.0
H1525 H 0.93863 0.4132 0.01004 0.0
C1526 C 0.88347 0.31959 0.96816 0.0
C1527 C 0.86743 0.31803 0.95681 0.0
C1528 C 0.89999 0.34165 0.97453 0.0
C1529 C 0.9011 0.36264 0.96947 0.0
C1530 C 0.8852 0.36111 0.95803 0.0
C1531 C 0.86837 0.33899 0.95185 0.0
C1532 C 0.95054 0.42738 0.97332 0.0
C1533 C 0.95226 0.43064 0.98889 0.0
C1534 C 0.93376 0.40537 0.967 0.0
C1535 C 0.91876 0.38606 0.97615 0.0
C1536 C 0.9208 0.38924 0.99173 0.0
C1537 C 0.93727 0.41136 0.99803 0.0
H1538 H 0.67518 0.51508 0.97926 0.0
H1539 H 0.66482 0.55676 0.94562 0.0
H1540 H 0.6373 0.50704 0.99104 0.0
H1541 H 0.62762 0.54936 0.95772 0.0
H1542 H 0.57272 0.5492 0.98979 0.0
H1543 H 0.61319 0.55872 0.98146 0.0
H1544 H 0.59229 0.48447 0.98442 0.0
H1545 H 0.55176 0.47509 0.99262 0.0
C1546 C 0.66492 0.52251 0.97431 0.0
C1547 C 0.67333 0.53664 0.96141 0.0
C1548 C 0.64323 0.51797 0.98115 0.0
C1549 C 0.6295 0.52768 0.97539 0.0
C1550 C 0.63797 0.54196 0.96262 0.0
C1551 C 0.65944 0.54627 0.95569 0.0
C1552 C 0.5771 0.53509 0.98907 0.0
C1553 C 0.5595 0.51156 0.99232 0.0
C1554 C 0.60013 0.54045 0.98413 0.0
C1555 C 0.60599 0.52235 0.98224 0.0
C1556 C 0.5885 0.49887 0.98592 0.0
C1557 C 0.56534 0.49348 0.99065 0.0
H1558 H 0.42073 0.11033 0.96913 0.0
H1559 H 0.49667 0.15311 0.95827 0.0
H1560 H 0.42916 0.08238 0.98221 0.0
H1561 H 0.50508 0.1253 0.97161 0.0
H1562 H 0.5132 0.07924 0.00752 0.0
H1563 H 0.50449 0.10912 0.9973 0.0
H1564 H 0.44198 0.05366 0.97403 0.0
H1565 H 0.45043 0.02402 0.98423 0.0
C1566 C 0.4392 0.11375 0.96948 0.0
C1567 C 0.45798 0.13388 0.96252 0.0
C1568 C 0.44404 0.0978 0.97705 0.0
C1569 C 0.46777 0.10165 0.97791 0.0
C1570 C 0.48666 0.12205 0.97129 0.0
C1571 C 0.48181 0.13795 0.96364 0.0
C1572 C 0.49737 0.07341 1.00042 0.0
C1573 C 0.48242 0.04918 0.99678 0.0
C1574 C 0.49254 0.09053 0.99447 0.0
C1575 C 0.47252 0.0837 0.9849 0.0
C1576 C 0.45735 0.05946 0.98153 0.0
C1577 C 0.46231 0.04244 0.98733 0.0
H1578 H 0.67812 0.14886 0.98219 0.0
H1579 H 0.66391 0.09364 0.94985 0.0
H1580 H 0.64084 0.12152 0.99533 0.0
H1581 H 0.62667 0.06652 0.96282 0.0
H1582 H 0.57026 0.01647 0.99426 0.0
H1583 H 0.61181 0.0446 0.98664 0.0
H1584 H 0.59619 0.10209 0.98951 0.0
H1585 H 0.55467 0.07379 0.99715 0.0
C1586 C 0.66716 0.13083 0.97796 0.0
C1587 C 0.67391 0.12344 0.96493 0.0
C1588 C 0.64577 0.11524 0.98544 0.0
C1589 C 0.63085 0.09182 0.98016 0.0
C1590 C 0.63791 0.08433 0.96731 0.0
C1591 C 0.65911 0.09996 0.95976 0.0
C1592 C 0.5761 0.03527 0.9938 0.0
C1593 C 0.55966 0.04319 0.99673 0.0
C1594 C 0.59972 0.05132 0.98925 0.0
C1595 C 0.60725 0.07556 0.98737 0.0
C1596 C 0.59106 0.0836 0.991 0.0
C1597 C 0.56735 0.06748 0.99541 0.0
H1598 H 0.89864 0.55509 0.94019 0.0
H1599 H 0.85166 0.51593 0.97661 0.0
H1600 H 0.93106 0.5503 0.95118 0.0
H1601 H 0.8843 0.51112 0.98767 0.0
H1602 H 0.94254 0.48559 0.99015 0.0
H1603 H 0.90861 0.48992 0.98093 0.0
H1604 H 0.95745 0.565 0.97448 0.0
H1605 H 0.99111 0.56073 0.98399 0.0
C1606 C 0.89519 0.54534 0.95051 0.0
C1607 C 0.87252 0.53585 0.95749 0.0
C1608 C 0.91384 0.54276 0.95688 0.0
C1609 C 0.91027 0.53037 0.97031 0.0
C1610 C 0.88755 0.52065 0.97727 0.0
C1611 C 0.86894 0.52355 0.97099 0.0
C1612 C 0.94587 0.50307 0.98705 0.0
C1613 C 0.96936 0.52295 0.98812 0.0
C1614 C 0.92648 0.50554 0.98173 0.0
C1615 C 0.93035 0.52781 0.97695 0.0
C1616 C 0.95389 0.5476 0.97798 0.0
C1617 C 0.97314 0.54518 0.98347 0.0
H1618 H 0.49022 0.34433 0.95092 0.0
H1619 H 0.42356 0.30776 0.97578 0.0
H1620 H 0.49915 0.3818 0.96273 0.0
H1621 H 0.43279 0.34536 0.98778 0.0
H1622 H 0.47179 0.41632 0.01543 0.0
H1623 H 0.46322 0.37758 1.00529 0.0
H1624 H 0.4808 0.40766 0.96111 0.0
H1625 H 0.49003 0.44617 0.97133 0.0
C1626 C 0.47742 0.34428 0.95886 0.0
C1627 C 0.45603 0.32308 0.96227 0.0
C1628 C 0.48259 0.36574 0.96566 0.0
C1629 C 0.46656 0.3665 0.97608 0.0
C1630 C 0.44554 0.34524 0.97987 0.0
C1631 C 0.44029 0.32373 0.973 0.0
C1632 C 0.47381 0.41452 1.00358 0.0
C1633 C 0.48113 0.43403 0.99408 0.0
C1634 C 0.46876 0.39239 0.99777 0.0
C1635 C 0.47137 0.38964 0.98242 0.0
C1636 C 0.47877 0.40927 0.973 0.0
C1637 C 0.48362 0.43121 0.97878 0.0
H1638 H 0.11103 0.66634 0.0754 0.0
H1639 H 0.16507 0.67671 0.04281 0.0
H1640 H 0.08178 0.62964 0.06275 0.0
H1641 H 0.13628 0.63944 0.03045 0.0
H1642 H 0.0726 0.58315 1.00326 0.0
H1643 H 0.1015 0.62045 0.01544 0.0
H1644 H 0.07094 0.59021 0.0583 0.0
H1645 H 0.04163 0.55335 0.04593 0.0
C1646 C 0.11671 0.66056 0.06561 0.0
C1647 C 0.14032 0.67437 0.0601 0.0
C1648 C 0.09998 0.63943 0.05837 0.0
C1649 C 0.10654 0.63133 0.04554 0.0
C1650 C 0.1303 0.64519 0.0401 0.0
C1651 C 0.1469 0.66653 0.04723 0.0
C1652 C 0.07226 0.58444 0.01526 0.0
C1653 C 0.05496 0.56528 0.02361 0.0
C1654 C 0.08886 0.60587 0.02231 0.0
C1655 C 0.08875 0.60853 0.03794 0.0
C1656 C 0.0714 0.58917 0.04625 0.0
C1657 C 0.05461 0.56792 0.03917 0.0
H1658 H 0.33518 0.43549 0.06816 0.0
H1659 H 0.33507 0.49085 0.04179 0.0
H1660 H 0.3721 0.44197 0.05553 0.0
H1661 H 0.37254 0.49785 0.02948 0.0
H1662 H 0.45785 0.51712 0.03284 0.0
H1663 H 0.41902 0.51127 0.04212 0.0
H1664 H 0.38302 0.43906 0.02536 0.0
H1665 H 0.42174 0.4453 0.01552 0.0
C1666 C 0.34312 0.44909 0.0597 0.0
C1667 C 0.33227 0.46267 0.05597 0.0
C1668 C 0.36413 0.4527 0.05243 0.0
C1669 C 0.37511 0.47037 0.04152 0.0
C1670 C 0.36442 0.48411 0.03784 0.0
C1671 C 0.34301 0.48008 0.04485 0.0
C1672 C 0.44145 0.50036 0.0306 0.0
C1673 C 0.44255 0.48201 0.02287 0.0
C1674 C 0.41931 0.49692 0.03605 0.0
C1675 C 0.39802 0.47476 0.03437 0.0
C1676 C 0.39914 0.45636 0.02671 0.0
C1677 C 0.4212 0.45996 0.02101 0.0
H1678 H 0.59825 0.90012 0.04353 0.0
H1679 H 0.52803 0.85564 0.06316 0.0
H1680 H 0.58267 0.92317 0.03095 0.0
H1681 H 0.51236 0.87829 0.05046 0.0
H1682 H 0.50401 0.94332 0.04372 0.0
H1683 H 0.51786 0.91739 0.05333 0.0
H1684 H 0.55467 0.92298 0.01184 0.0
H1685 H 0.54132 0.94996 1.00229 0.0
C1686 C 0.57942 0.89512 0.04501 0.0
C1687 C 0.56446 0.87632 0.05452 0.0
C1688 C 0.57046 0.90823 0.03774 0.0
C1689 C 0.54632 0.90271 0.03979 0.0
C1690 C 0.53119 0.88336 0.04889 0.0
C1691 C 0.54016 0.87039 0.0562 0.0
C1692 C 0.51499 0.93902 0.03656 0.0
C1693 C 0.52156 0.94874 0.02221 0.0
C1694 C 0.52276 0.92391 0.04205 0.0
C1695 C 0.53729 0.91797 0.03335 0.0
C1696 C 0.5436 0.92734 0.01886 0.0
C1697 C 0.53575 0.94257 0.01332 0.0
H1698 H 0.00869 0.23998 0.40671 0.0
H1699 H 0.99729 0.18735 0.37297 0.0
H1700 H 0.04446 0.26933 0.39363 0.0
H1701 H 0.03375 0.21687 0.36006 0.0
H1702 H 0.11826 0.27376 0.35482 0.0
H1703 H 0.07976 0.24157 0.36438 0.0
H1704 H 0.05354 0.29105 0.3695 0.0
H1705 H 0.09176 0.32297 0.35989 0.0
C1706 C 0.01362 0.23466 0.39643 0.0
C1707 C 0.99981 0.21124 0.39087 0.0
C1708 C 0.03422 0.25154 0.38894 0.0
C1709 C 0.0418 0.2455 0.37572 0.0
C1710 C 0.0284 0.22202 0.37025 0.0
C1711 C 0.00756 0.20511 0.3777 0.0
C1712 C 0.10398 0.27754 0.35761 0.0
C1713 C 0.10787 0.3008 0.35652 0.0
C1714 C 0.08199 0.25915 0.36312 0.0
C1715 C 0.06375 0.26387 0.36789 0.0
C1716 C 0.06738 0.28694 0.36615 0.0
C1717 C 0.08918 0.30517 0.36058 0.0
H1718 H 0.77192 0.77409 0.41121 0.0
H1719 H 0.82147 0.81345 0.37575 0.0
H1720 H 0.74092 0.78011 0.39952 0.0
H1721 H 0.79039 0.82008 0.36432 0.0
H1722 H 0.68295 0.77176 0.36605 0.0
H1723 H 0.71569 0.76665 0.37619 0.0
H1724 H 0.76617 0.84134 0.36958 0.0
H1725 H 0.73307 0.84649 0.35963 0.0
C1726 C 0.77626 0.78387 0.40086 0.0
C1727 C 0.79936 0.79301 0.39443 0.0
C1728 C 0.75841 0.78741 0.39418 0.0
C1729 C 0.76307 0.80046 0.38092 0.0
C1730 C 0.78625 0.8101 0.37459 0.0
C1731 C 0.8041 0.80632 0.38121 0.0
C1732 C 0.70108 0.78705 0.36665 0.0
C1733 C 0.7055 0.80941 0.36177 0.0
C1734 C 0.71983 0.78416 0.37253 0.0
C1735 C 0.74358 0.80359 0.37377 0.0
C1736 C 0.74814 0.82596 0.36868 0.0
C1737 C 0.72923 0.82891 0.36292 0.0
H1738 H 0.17542 0.99157 0.40143 0.0
H1739 H 0.25037 0.02274 0.38827 0.0
H1740 H 0.16615 0.95458 0.3887 0.0
H1741 H 0.2411 0.98559 0.37579 0.0
H1742 H 0.21953 0.90641 0.37135 0.0
H1743 H 0.22891 0.94418 0.38292 0.0
H1744 H 0.16436 0.93866 0.36306 0.0
H1745 H 0.1547 0.90065 0.35162 0.0
C1746 C 0.18989 0.99064 0.39572 0.0
C1747 C 0.21367 0.01016 0.39592 0.0
C1748 C 0.18456 0.96942 0.38843 0.0
C1749 C 0.2029 0.96717 0.38126 0.0
C1750 C 0.22665 0.98668 0.38139 0.0
C1751 C 0.23195 0.00794 0.38859 0.0
C1752 C 0.20735 0.91324 0.36939 0.0
C1753 C 0.1864 0.90052 0.3605 0.0
C1754 C 0.21281 0.93498 0.37597 0.0
C1755 C 0.19738 0.9444 0.3739 0.0
C1756 C 0.17649 0.93175 0.36496 0.0
C1757 C 0.17108 0.91007 0.3583 0.0
H1758 H 0.50958 0.65505 0.30995 0.0
H1759 H 0.56244 0.66332 0.27689 0.0
H1760 H 0.53875 0.69298 0.32118 0.0
H1761 H 0.59217 0.70027 0.28882 0.0
H1762 H 0.63307 0.77766 0.30398 0.0
H1763 H 0.60334 0.74016 0.29234 0.0
H1764 H 0.5741 0.71213 0.33583 0.0
H1765 H 0.60344 0.74992 0.34725 0.0
C1766 C 0.5274 0.66489 0.30505 0.0
C1767 C 0.53349 0.65597 0.29243 0.0
C1768 C 0.54435 0.68656 0.31167 0.0
C1769 C 0.56798 0.69983 0.30599 0.0
C1770 C 0.5741 0.69083 0.29343 0.0
C1771 C 0.55708 0.66932 0.2867 0.0
C1772 C 0.62029 0.76342 0.31103 0.0
C1773 C 0.62037 0.76683 0.32653 0.0
C1774 C 0.60327 0.74183 0.30437 0.0
C1775 C 0.58613 0.72294 0.31309 0.0
C1776 C 0.58654 0.72635 0.32866 0.0
C1777 C 0.60337 0.74807 0.33527 0.0
H1778 H 0.35749 0.90523 0.30871 0.0
H1779 H 0.31741 0.83481 0.2893 0.0
H1780 H 0.32069 0.89978 0.32052 0.0
H1781 H 0.28028 0.82953 0.30068 0.0
H1782 H 0.21832 0.82007 0.33036 0.0
H1783 H 0.25681 0.824 0.32224 0.0
H1784 H 0.28468 0.89895 0.31445 0.0
H1785 H 0.24682 0.89506 0.32327 0.0
C1786 C 0.34075 0.8886 0.30689 0.0
C1787 C 0.34043 0.87055 0.29795 0.0
C1788 C 0.31953 0.88546 0.31364 0.0
C1789 C 0.2972 0.86428 0.31149 0.0
C1790 C 0.29704 0.84598 0.30281 0.0
C1791 C 0.31836 0.84904 0.2962 0.0
C1792 C 0.23293 0.83745 0.32725 0.0
C1793 C 0.22974 0.85738 0.32777 0.0
C1794 C 0.25493 0.83969 0.32237 0.0
C1795 C 0.27413 0.86184 0.31764 0.0
C1796 C 0.27074 0.88169 0.31827 0.0
C1797 C 0.2489 0.87947 0.32323 0.0
H1798 H 0.10726 0.43785 0.27402 0.0
H1799 H 0.15149 0.49336 0.30584 0.0
H1800 H 0.1162 0.41044 0.28706 0.0
H1801 H 0.16186 0.46634 0.31829 0.0
H1802 H 0.15554 0.40401 0.34591 0.0
H1803 H 0.14646 0.43226 0.33377 0.0
H1804 H 0.14784 0.4023 0.29076 0.0
H1805 H 0.15619 0.37385 0.30299 0.0
C1806 C 0.11889 0.44425 0.2838 0.0
C1807 C 0.12861 0.46789 0.28884 0.0
C1808 C 0.12436 0.42859 0.29117 0.0
C1809 C 0.13995 0.43617 0.30369 0.0
C1810 C 0.14962 0.45978 0.30878 0.0
C1811 C 0.14395 0.47541 0.30148 0.0
C1812 C 0.15416 0.40368 0.33389 0.0
C1813 C 0.15649 0.38667 0.32544 0.0
C1814 C 0.14893 0.41987 0.32689 0.0
C1815 C 0.14619 0.4195 0.31125 0.0
C1816 C 0.14917 0.40278 0.30283 0.0
C1817 C 0.15407 0.38649 0.30984 0.0
H1818 H 0.31425 0.46974 0.28593 0.0
H1819 H 0.35766 0.44713 0.31045 0.0
H1820 H 0.27798 0.43945 0.29837 0.0
H1821 H 0.32153 0.41748 0.3233 0.0
H1822 H 0.24775 0.34681 0.32528 0.0
H1823 H 0.28586 0.38007 0.31659 0.0
H1824 H 0.25669 0.42714 0.3221 0.0
H1825 H 0.21832 0.39357 0.33043 0.0
C1826 C 0.31609 0.45839 0.29402 0.0
C1827 C 0.33891 0.46081 0.29707 0.0
C1828 C 0.29532 0.44123 0.30132 0.0
C1829 C 0.29679 0.42598 0.31184 0.0
C1830 C 0.31968 0.42875 0.31515 0.0
C1831 C 0.34046 0.44594 0.30787 0.0
C1832 C 0.24969 0.36437 0.32486 0.0
C1833 C 0.23023 0.36767 0.32872 0.0
C1834 C 0.27155 0.38347 0.31995 0.0
C1835 C 0.27437 0.40632 0.3186 0.0
C1836 C 0.25505 0.40974 0.32285 0.0
C1837 C 0.23316 0.39058 0.3278 0.0
H1838 H 0.5194 0.84993 0.31384 0.0
H1839 H 0.56568 0.88856 0.27704 0.0
H1840 H 0.55243 0.84573 0.32488 0.0
H1841 H 0.59849 0.88439 0.28802 0.0
H1842 H 0.65929 0.89581 0.3206 0.0
H1843 H 0.62539 0.89961 0.31099 0.0
H1844 H 0.5769 0.82474 0.31844 0.0
H1845 H 0.61106 0.82088 0.32774 0.0
C1846 C 0.53662 0.85757 0.30813 0.0
C1847 C 0.53986 0.86953 0.29452 0.0
C1848 C 0.55545 0.85502 0.3144 0.0
C1849 C 0.5781 0.86475 0.30734 0.0
C1850 C 0.58135 0.87684 0.29381 0.0
C1851 C 0.56246 0.87906 0.28745 0.0
C1852 C 0.64135 0.8802 0.32027 0.0
C1853 C 0.63775 0.85818 0.32525 0.0
C1854 C 0.62195 0.88235 0.31473 0.0
C1855 C 0.59842 0.86249 0.31397 0.0
C1856 C 0.59475 0.84043 0.31903 0.0
C1857 C 0.61428 0.83823 0.32441 0.0
H1858 H 0.09864 0.66164 0.27787 0.0
H1859 H 0.15495 0.65969 0.3036 0.0
H1860 H 0.10666 0.69802 0.29085 0.0
H1861 H 0.16431 0.69694 0.316 0.0
H1862 H 0.16227 0.75283 0.34528 0.0
H1863 H 0.15232 0.71529 0.33337 0.0
H1864 H 0.1332 0.73824 0.29284 0.0
H1865 H 0.14154 0.77491 0.30519 0.0
C1866 C 0.11296 0.66927 0.28621 0.0
C1867 C 0.1262 0.65799 0.28977 0.0
C1868 C 0.11774 0.69023 0.2936 0.0
C1869 C 0.13629 0.70071 0.30449 0.0
C1870 C 0.14958 0.6893 0.30794 0.0
C1871 C 0.1444 0.66804 0.30077 0.0
C1872 C 0.15572 0.74976 0.33392 0.0
C1873 C 0.15241 0.76679 0.32633 0.0
C1874 C 0.15022 0.72825 0.32696 0.0
C1875 C 0.14184 0.72348 0.31206 0.0
C1876 C 0.13895 0.7408 0.30442 0.0
C1877 C 0.14391 0.76202 0.3115 0.0
H1878 H 0.77834 0.00616 0.4099 0.0
H1879 H 0.83261 0.01554 0.37775 0.0
H1880 H 0.74954 0.96851 0.398 0.0
H1881 H 0.80427 0.97738 0.36616 0.0
H1882 H 0.74092 0.91892 0.33982 0.0
H1883 H 0.76944 0.95703 0.35127 0.0
H1884 H 0.73942 0.92899 0.39462 0.0
H1885 H 0.71048 0.89125 0.38296 0.0
C1886 C 0.78417 0.99998 0.40037 0.0
C1887 C 0.80771 0.01379 0.39476 0.0
C1888 C 0.7677 0.9783 0.39356 0.0
C1889 C 0.77446 0.96965 0.38108 0.0
C1890 C 0.79814 0.98353 0.37554 0.0
C1891 C 0.81448 0.00539 0.38223 0.0
C1892 C 0.74063 0.92084 0.35178 0.0
C1893 C 0.72359 0.90202 0.36047 0.0
C1894 C 0.75701 0.94275 0.35841 0.0
C1895 C 0.75693 0.94629 0.37395 0.0
C1896 C 0.73985 0.92727 0.38261 0.0
C1897 C 0.72328 0.90552 0.37594 0.0
H1898 H 0.02278 0.82701 0.40246 0.0
H1899 H 0.98058 0.76229 0.37687 0.0
H1900 H 0.05961 0.83287 0.39036 0.0
H1901 H 0.01727 0.7686 0.36441 0.0
H1902 H 0.09112 0.77086 0.36182 0.0
H1903 H 0.05296 0.76638 0.37079 0.0
H1904 H 0.08219 0.84226 0.36704 0.0
H1905 H 0.12063 0.84665 0.35833 0.0
C1906 C 0.02129 0.81404 0.39423 0.0
C1907 C 0.99857 0.79406 0.39077 0.0
C1908 C 0.04244 0.81759 0.38712 0.0
C1909 C 0.04155 0.8012 0.37638 0.0
C1910 C 0.01878 0.78148 0.37272 0.0
C1911 C 0.99763 0.77798 0.37978 0.0
C1912 C 0.08922 0.78652 0.36268 0.0
C1913 C 0.10873 0.80903 0.35912 0.0
C1914 C 0.0673 0.78397 0.36778 0.0
C1915 C 0.06435 0.80394 0.36969 0.0
C1916 C 0.08381 0.82649 0.36586 0.0
C1917 C 0.10578 0.82901 0.36068 0.0
H1918 H 0.1825 0.19327 0.40953 0.0
H1919 H 0.24059 0.21256 0.37804 0.0
H1920 H 0.17157 0.21991 0.39706 0.0
H1921 H 0.22895 0.23851 0.36531 0.0
H1922 H 0.18397 0.26436 0.33859 0.0
H1923 H 0.19302 0.23572 0.35038 0.0
H1924 H 0.19198 0.26477 0.3937 0.0
H1925 H 0.18279 0.29316 0.38194 0.0
C1926 C 0.19304 0.20323 0.40002 0.0
C1927 C 0.21257 0.20079 0.39489 0.0
C1928 C 0.18664 0.21838 0.39282 0.0
C1929 C 0.19939 0.23124 0.38022 0.0
C1930 C 0.21861 0.22857 0.3749 0.0
C1931 C 0.22523 0.21364 0.3822 0.0
C1932 C 0.18532 0.26439 0.35061 0.0
C1933 C 0.18257 0.28094 0.35931 0.0
C1934 C 0.19076 0.24818 0.35735 0.0
C1935 C 0.19317 0.24801 0.37296 0.0
C1936 C 0.19004 0.26434 0.38166 0.0
C1937 C 0.18497 0.28072 0.37491 0.0
H1938 H 0.67951 0.5204 0.72241 0.0
H1939 H 0.65407 0.57083 0.71979 0.0
H1940 H 0.71504 0.54701 0.70812 0.0
H1941 H 0.69061 0.5983 0.70665 0.0
H1942 H 0.75162 0.64031 0.67541 0.0
H1943 H 0.71302 0.60831 0.68476 0.0
H1944 H 0.75189 0.582 0.71084 0.0
H1945 H 0.79001 0.61319 0.70077 0.0
C1946 C 0.68134 0.5371 0.71878 0.0
C1947 C 0.66369 0.54331 0.72239 0.0
C1948 C 0.70205 0.55262 0.71072 0.0
C1949 C 0.70602 0.57504 0.70622 0.0
C1950 C 0.68822 0.58113 0.70967 0.0
C1951 C 0.66734 0.56546 0.71753 0.0
C1952 C 0.75165 0.62713 0.68278 0.0
C1953 C 0.77359 0.62866 0.68703 0.0
C1954 C 0.72961 0.60899 0.68834 0.0
C1955 C 0.72911 0.5925 0.69873 0.0
C1956 C 0.75125 0.59392 0.70268 0.0
C1957 C 0.7732 0.61181 0.69692 0.0
H1958 H 0.47975 0.16208 0.73524 0.0
H1959 H 0.44631 0.09299 0.71383 0.0
H1960 H 0.44889 0.16938 0.72436 0.0
H1961 H 0.41589 0.10046 0.70255 0.0
H1962 H 0.34869 0.10849 0.6999 0.0
H1963 H 0.38131 0.1024 0.70887 0.0
H1964 H 0.43241 0.17726 0.70293 0.0
H1965 H 0.39927 0.18334 0.69466 0.0
C1966 C 0.466 0.14858 0.72802 0.0
C1967 C 0.46541 0.12685 0.72554 0.0
C1968 C 0.44829 0.15279 0.72171 0.0
C1969 C 0.4296 0.13548 0.7126 0.0
C1970 C 0.42953 0.11404 0.70977 0.0
C1971 C 0.44706 0.10974 0.71622 0.0
C1972 C 0.36696 0.12358 0.7004 0.0
C1973 C 0.3715 0.14626 0.69623 0.0
C1974 C 0.38578 0.1201 0.70545 0.0
C1975 C 0.40975 0.13927 0.70658 0.0
C1976 C 0.41425 0.16205 0.70239 0.0
C1977 C 0.39531 0.16553 0.69741 0.0
H1978 H 0.89686 0.36715 0.69384 0.0
H1979 H 0.92374 0.34949 0.73327 0.0
H1980 H 0.8833 0.32733 0.68358 0.0
H1981 H 0.911 0.31026 0.72282 0.0
H1982 H 0.85429 0.23453 0.71067 0.0
H1983 H 0.8706 0.27549 0.71863 0.0
H1984 H 0.89751 0.29932 0.6742 0.0
H1985 H 0.88117 0.25778 0.66611 0.0
C1986 C 0.90006 0.35487 0.70026 0.0
C1987 C 0.91122 0.36146 0.71444 0.0
C1988 C 0.89253 0.33219 0.6943 0.0
C1989 C 0.8959 0.31561 0.70245 0.0
C1990 C 0.90786 0.32253 0.71636 0.0
C1991 C 0.91539 0.34514 0.72228 0.0
C1992 C 0.86377 0.24841 0.70254 0.0
C1993 C 0.86645 0.24283 0.68773 0.0
C1994 C 0.87321 0.27195 0.70715 0.0
C1995 C 0.88561 0.29066 0.6971 0.0
C1996 C 0.88795 0.28522 0.68217 0.0
C1997 C 0.87853 0.26147 0.67754 0.0
H1998 H 0.22695 0.00553 0.60865 0.0
H1999 H 0.18248 0.98692 0.64806 0.0
H2000 H 0.25602 0.04336 0.62025 0.0
H2001 H 0.21166 0.0247 0.65973 0.0
H2002 H 0.2558 0.10502 0.66919 0.0
H2003 H 0.22688 0.06689 0.65797 0.0
H2004 H 0.28598 0.06012 0.63991 0.0
H2005 H 0.31496 0.09846 0.65097 0.0
C2006 C 0.22349 0.00941 0.61986 0.0
C2007 C 0.20236 0.99315 0.62742 0.0
C2008 C 0.2402 0.03111 0.62653 0.0
C2009 C 0.23626 0.03713 0.64096 0.0
C2010 C 0.21513 0.02085 0.64852 0.0
C2011 C 0.19838 0.99916 0.64183 0.0
C2012 C 0.26269 0.09533 0.66295 0.0
C2013 C 0.28778 0.1048 0.66108 0.0
C2014 C 0.24605 0.07339 0.65652 0.0
C2015 C 0.25404 0.06034 0.64802 0.0
C2016 C 0.27914 0.0698 0.6462 0.0
C2017 C 0.29579 0.09176 0.65262 0.0
H2018 H 0.01132 0.18565 0.64777 0.0
H2019 H 0.00277 0.23204 0.61692 0.0
H2020 H 0.97313 0.17638 0.65954 0.0
H2021 H 0.96535 0.22358 0.62928 0.0
H2022 H 0.90788 0.2167 0.66319 0.0
H2023 H 0.94924 0.22853 0.65511 0.0
H2024 H 0.92845 0.15452 0.64988 0.0
H2025 H 0.88716 0.14289 0.65756 0.0
C2026 C 1.00146 0.19392 0.64343 0.0
C2027 C 0.01037 0.20953 0.6312 0.0
C2028 C 0.97962 0.18872 0.65032 0.0
C2029 C 0.96627 0.19931 0.64539 0.0
C2030 C 0.9754 0.21541 0.63349 0.0
C2031 C 0.997 0.2203 0.62643 0.0
C2032 C 0.91244 0.20305 0.6607 0.0
C2033 C 0.89461 0.17888 0.66141 0.0
C2034 C 0.93597 0.20978 0.65593 0.0
C2035 C 0.94213 0.19244 0.65189 0.0
C2036 C 0.9244 0.16828 0.65308 0.0
C2037 C 0.9008 0.16161 0.6575 0.0
H2038 H 0.74303 0.77403 0.64171 0.0
H2039 H 0.8134 0.81388 0.62129 0.0
H2040 H 0.75537 0.74735 0.65299 0.0
H2041 H 0.82574 0.78743 0.63264 0.0
H2042 H 0.82475 0.71648 0.63845 0.0
H2043 H 0.81286 0.74422 0.62874 0.0
H2044 H 0.78626 0.74858 0.67226 0.0
H2045 H 0.79791 0.72026 0.6819 0.0
C2046 C 0.76111 0.77706 0.63965 0.0
C2047 C 0.77724 0.79596 0.6306 0.0
C2048 C 0.76823 0.76198 0.64621 0.0
C2049 C 0.79149 0.76534 0.64367 0.0
C2050 C 0.80765 0.78435 0.63471 0.0
C2051 C 0.80064 0.79955 0.62829 0.0
C2052 C 0.81607 0.72312 0.64586 0.0
C2053 C 0.81186 0.71604 0.66082 0.0
C2054 C 0.80957 0.73924 0.64038 0.0
C2055 C 0.79862 0.74852 0.64975 0.0
C2056 C 0.79452 0.74154 0.66479 0.0
C2057 C 0.80132 0.72555 0.67032 0.0
H2058 H 0.99761 0.76888 0.61377 0.0
H2059 H 0.01079 0.8218 0.64761 0.0
H2060 H 0.9597 0.74099 0.62589 0.0
H2061 H 0.97276 0.79374 0.65982 0.0
H2062 H 0.88651 0.74571 0.66062 0.0
H2063 H 0.92793 0.77454 0.65299 0.0
H2064 H 0.94454 0.71777 0.64959 0.0
H2065 H 0.90318 0.68914 0.65731 0.0
C2066 C 0.99242 0.77453 0.62382 0.0
C2067 C 0.00715 0.79758 0.62969 0.0
C2068 C 0.97082 0.75847 0.63085 0.0
C2069 C 0.96328 0.76514 0.64385 0.0
C2070 C 0.97807 0.78813 0.6498 0.0
C2071 C 0.99988 0.80412 0.64286 0.0
C2072 C 0.89935 0.73965 0.65869 0.0
C2073 C 0.89205 0.71545 0.65996 0.0
C2074 C 0.92299 0.75608 0.65431 0.0
C2075 C 0.93947 0.7484 0.65063 0.0
C2076 C 0.93222 0.72419 0.65227 0.0
C2077 C 0.9087 0.70787 0.65684 0.0
H2078 H 0.18807 0.19029 0.6471 0.0
H2079 H 0.23595 0.22923 0.61097 0.0
H2080 H 0.2204 0.18551 0.65864 0.0
H2081 H 0.26809 0.22448 0.62246 0.0
H2082 H 0.32744 0.23438 0.65563 0.0
H2083 H 0.29414 0.23903 0.64584 0.0
H2084 H 0.24455 0.16416 0.6525 0.0
H2085 H 0.27807 0.15944 0.66194 0.0
C2086 C 0.20549 0.19789 0.64165 0.0
C2087 C 0.2094 0.21011 0.62808 0.0
C2088 C 0.22393 0.19501 0.64821 0.0
C2089 C 0.24683 0.20467 0.64149 0.0
C2090 C 0.25074 0.217 0.62799 0.0
C2091 C 0.23224 0.21955 0.62134 0.0
C2092 C 0.30937 0.21897 0.65513 0.0
C2093 C 0.30528 0.19668 0.65988 0.0
C2094 C 0.29033 0.2216 0.64947 0.0
C2095 C 0.26669 0.20197 0.64839 0.0
C2096 C 0.2625 0.17968 0.65333 0.0
C2097 C 0.28167 0.17699 0.65882 0.0
H2098 H 0.8113 0.9997 0.62736 0.0
H2099 H 0.73994 0.97164 0.6462 0.0
H2100 H 0.82411 0.03795 0.63944 0.0
H2101 H 0.75274 0.01022 0.65825 0.0
H2102 H 0.79269 0.08172 0.68535 0.0
H2103 H 0.781 0.04108 0.67715 0.0
H2104 H 0.81301 0.06816 0.63413 0.0
H2105 H 0.82507 0.10817 0.64229 0.0
C2106 C 0.79835 0.00174 0.6341 0.0
C2107 C 0.7745 0.98284 0.63561 0.0
C2108 C 0.80569 0.02361 0.64105 0.0
C2109 C 0.78932 0.02719 0.64962 0.0
C2110 C 0.76578 0.00795 0.65177 0.0
C2111 C 0.75844 0.98592 0.64484 0.0
C2112 C 0.7974 0.0789 0.67422 0.0
C2113 C 0.80988 0.09815 0.66451 0.0
C2114 C 0.79057 0.05568 0.6695 0.0
C2115 C 0.79633 0.05148 0.65505 0.0
C2116 C 0.8087 0.0708 0.64541 0.0
C2117 C 0.81537 0.09377 0.65007 0.0
H2118 H 0.4483 0.36291 0.72087 0.0
H2119 H 0.49011 0.33237 0.73796 0.0
H2120 H 0.42046 0.32509 0.70859 0.0
H2121 H 0.46207 0.29443 0.72585 0.0
H2122 H 0.42129 0.23856 0.68873 0.0
H2123 H 0.44961 0.27693 0.7002 0.0
H2124 H 0.38948 0.28402 0.71585 0.0
H2125 H 0.36115 0.24583 0.70432 0.0
C2126 C 0.45159 0.34814 0.72197 0.0
C2127 C 0.47142 0.35067 0.73041 0.0
C2128 C 0.43553 0.32641 0.71503 0.0
C2129 C 0.43904 0.30673 0.71623 0.0
C2130 C 0.45897 0.30929 0.72459 0.0
C2131 C 0.47489 0.33096 0.73166 0.0
C2132 C 0.41408 0.24836 0.69452 0.0
C2133 C 0.3889 0.23909 0.69554 0.0
C2134 C 0.43034 0.27028 0.7012 0.0
C2135 C 0.42182 0.28354 0.70895 0.0
C2136 C 0.39665 0.27438 0.70984 0.0
C2137 C 0.3804 0.25239 0.70328 0.0
H2138 H 0.6611 0.1512 0.7065 0.0
H2139 H 0.67101 0.10479 0.7364 0.0
H2140 H 0.69935 0.16133 0.69416 0.0
H2141 H 0.70909 0.11474 0.72398 0.0
H2142 H 0.76663 0.12325 0.68976 0.0
H2143 H 0.72523 0.11047 0.69819 0.0
H2144 H 0.7441 0.184 0.70319 0.0
H2145 H 0.78545 0.1966 0.69512 0.0
C2146 C 0.6713 0.14297 0.71033 0.0
C2147 C 0.66305 0.12727 0.72248 0.0
C2148 C 0.69324 0.14884 0.7033 0.0
C2149 C 0.70722 0.13879 0.70807 0.0
C2150 C 0.69864 0.12261 0.71995 0.0
C2151 C 0.67694 0.11708 0.72715 0.0
C2152 C 0.76164 0.13659 0.69228 0.0
C2153 C 0.77896 0.16091 0.6914 0.0
C2154 C 0.73808 0.12932 0.69725 0.0
C2155 C 0.73137 0.14623 0.70135 0.0
C2156 C 0.74857 0.17054 0.69997 0.0
C2157 C 0.77221 0.17776 0.69533 0.0
H2158 H 0.89257 0.52914 0.69652 0.0
H2159 H 0.92595 0.58042 0.73237 0.0
H2160 H 0.87837 0.55421 0.68512 0.0
H2161 H 0.91236 0.60569 0.72089 0.0
H2162 H 0.85747 0.62737 0.70937 0.0
H2163 H 0.87394 0.60329 0.71821 0.0
H2164 H 0.88902 0.59197 0.67285 0.0
H2165 H 0.87175 0.61604 0.66378 0.0
C2166 C 0.8972 0.54596 0.70182 0.0
C2167 C 0.91008 0.55269 0.71545 0.0
C2168 C 0.88914 0.56035 0.69527 0.0
C2169 C 0.8939 0.58181 0.70219 0.0
C2170 C 0.9078 0.58899 0.71545 0.0
C2171 C 0.91565 0.57455 0.72203 0.0
C2172 C 0.86435 0.61992 0.70117 0.0
C2173 C 0.86351 0.62392 0.68582 0.0
C2174 C 0.87397 0.60615 0.70631 0.0
C2175 C 0.88326 0.59603 0.69629 0.0
C2176 C 0.882 0.59952 0.68087 0.0
C2177 C 0.87218 0.61334 0.67567 0.0
H2178 H 0.44311 0.94299 0.18213 0.0
H2179 H 0.5084 0.93831 0.18309 0.0
H2180 H 0.45405 0.96134 0.15756 0.0
H2181 H 0.5188 0.95572 0.15834 0.0
H2182 H 0.54491 0.0139 0.12296 0.0
H2183 H 0.53284 0.99346 0.14673 0.0
H2184 H 0.4585 0.95433 0.13131 0.0
H2185 H 0.47056 0.97553 0.10756 0.0
C2186 C 0.45977 0.94582 0.17712 0.0
C2187 C 0.47487 0.93918 0.18472 0.0
C2188 C 0.46591 0.95609 0.1629 0.0
C2189 C 0.48737 0.96012 0.15588 0.0
C2190 C 0.50229 0.9532 0.16342 0.0
C2191 C 0.49615 0.94292 0.17759 0.0
C2192 C 0.52594 0.00101 0.12462 0.0
C2193 C 0.50871 0.99656 0.11332 0.0
C2194 C 0.51904 0.98905 0.13824 0.0
C2195 C 0.49464 0.97219 0.14104 0.0
C2196 C 0.4774 0.96738 0.12965 0.0
C2197 C 0.48436 0.97934 0.11595 0.0
H2198 H 0.03859 0.48865 0.17635 0.0
H2199 H 0.04352 0.55754 0.17774 0.0
H2200 H 0.01884 0.48079 0.15193 0.0
H2201 H 0.02489 0.55017 0.15307 0.0
H2202 H 0.9677 0.51955 0.11629 0.0
H2203 H 0.98648 0.52624 0.14088 0.0
H2204 H 0.02711 0.49294 0.12619 0.0
H2205 H 0.0074 0.4852 0.10176 0.0
C2206 C 0.03546 0.50211 0.17146 0.0
C2207 C 0.04265 0.52373 0.17904 0.0
C2208 C 0.0244 0.49773 0.15737 0.0
C2209 C 0.02027 0.51484 0.1505 0.0
C2210 C 0.02751 0.53646 0.15808 0.0
C2211 C 0.0385 0.54082 0.17217 0.0
C2212 C 0.98041 0.51338 0.11834 0.0
C2213 C 0.98597 0.50177 0.10703 0.0
C2214 C 0.99144 0.5175 0.13241 0.0
C2215 C 0.00839 0.51021 0.13553 0.0
C2216 C 0.01396 0.49859 0.12423 0.0
C2217 C 0.00288 0.49442 0.11015 0.0
H2218 H 0.49813 0.50546 0.19167 0.0
H2219 H 0.45234 0.52965 0.17193 0.0
H2220 H 0.51 0.49971 0.16688 0.0
H2221 H 0.46421 0.5238 0.14705 0.0
H2222 H 0.4746 0.48797 0.10477 0.0
H2223 H 0.46102 0.49337 0.12924 0.0
H2224 H 0.5342 0.52392 0.1463 0.0
H2225 H 0.54772 0.51862 0.12196 0.0
C2226 C 0.49068 0.50969 0.18204 0.0
C2227 C 0.47441 0.51821 0.18385 0.0
C2228 C 0.49751 0.50639 0.1678 0.0
C2229 C 0.48826 0.51149 0.15494 0.0
C2230 C 0.47154 0.51949 0.1567 0.0
C2231 C 0.46471 0.52283 0.17098 0.0
C2232 C 0.48782 0.49607 0.11371 0.0
C2233 C 0.51223 0.50264 0.1114 0.0
C2234 C 0.48003 0.49914 0.12775 0.0
C2235 C 0.49645 0.50885 0.13981 0.0
C2236 C 0.52092 0.51587 0.13738 0.0
C2237 C 0.52869 0.51284 0.12339 0.0
H2238 H 0.97387 0.44928 0.83006 0.0
H2239 H 0.98175 0.51927 0.83314 0.0
H2240 H 0.98745 0.45268 0.85587 0.0
H2241 H 0.9957 0.52288 0.85897 0.0
H2242 H 1.00133 0.51379 0.90916 0.0
H2243 H 0.98403 0.50837 0.88408 0.0
H2244 H 0.02389 0.47387 0.87019 0.0
H2245 H 0.04018 0.47827 0.89531 0.0
C2246 C 0.97867 0.46548 0.83623 0.0
C2247 C 0.97691 0.48408 0.82948 0.0
C2248 C 0.98648 0.46745 0.85105 0.0
C2249 C 0.99288 0.48814 0.85952 0.0
C2250 C 0.99066 0.50657 0.85287 0.0
C2251 C 0.98272 0.50454 0.83804 0.0
C2252 C 0.00612 0.50474 0.9008 0.0
C2253 C 0.02225 0.49655 0.90428 0.0
C2254 C 0.99642 0.50189 0.88636 0.0
C2255 C 1.00257 0.49072 0.87505 0.0
C2256 C 0.01847 0.4823 0.87861 0.0
C2257 C 0.02811 0.48511 0.89301 0.0
H2258 H 0.50661 0.45653 0.84435 0.0
H2259 H 0.56242 0.53002 0.83885 0.0
H2260 H 0.49721 0.46633 0.86881 0.0
H2261 H 0.55218 0.53982 0.86306 0.0
H2262 H 0.50273 0.54985 0.89748 0.0
H2263 H 0.51584 0.54065 0.87399 0.0
H2264 H 0.51632 0.48099 0.89472 0.0
H2265 H 0.5033 0.49034 0.91832 0.0
C2266 C 0.51711 0.47472 0.84834 0.0
C2267 C 0.53532 0.49243 0.83943 0.0
C2268 C 0.51161 0.48033 0.8624 0.0
C2269 C 0.5239 0.50386 0.86788 0.0
C2270 C 0.54218 0.52156 0.85909 0.0
C2271 C 0.54794 0.51591 0.84512 0.0
C2272 C 0.50578 0.53485 0.89704 0.0
C2273 C 0.50195 0.5208 0.90974 0.0
C2274 C 0.51342 0.52966 0.88361 0.0
C2275 C 0.51708 0.51005 0.88246 0.0
C2276 C 0.51351 0.49612 0.89522 0.0
C2277 C 0.50625 0.50157 0.90875 0.0
H2278 H 0.54753 0.07848 0.84657 0.0
H2279 H 0.50104 0.01002 0.82584 0.0
H2280 H 0.53733 0.06005 0.87115 0.0
H2281 H 0.491 0.99159 0.85031 0.0
H2282 H 0.45779 0.96888 0.89613 0.0
H2283 H 0.46867 0.98875 0.87214 0.0
H2284 H 0.54212 0.03387 0.88796 0.0
H2285 H 0.53106 0.014 0.91213 0.0
C2286 C 0.53532 0.05946 0.84722 0.0
C2287 C 0.52504 0.04582 0.83414 0.0
C2288 C 0.52945 0.04885 0.86136 0.0
C2289 C 0.51316 0.02427 0.86284 0.0
C2290 C 0.50317 0.01063 0.84973 0.0
C2291 C 0.50897 0.02123 0.83563 0.0
C2292 C 0.47632 0.98296 0.89451 0.0
C2293 C 0.49357 0.98962 0.9061 0.0
C2294 C 0.48261 0.99437 0.88067 0.0
C2295 C 0.5064 0.01282 0.87792 0.0
C2296 C 0.52357 0.0199 0.88963 0.0
C2297 C 0.51723 0.00849 0.90353 0.0
H2298 H 0.11255 0.28191 0.51426 0.0
H2299 H 0.17795 0.27744 0.51549 0.0
H2300 H 0.12329 0.2996 0.48948 0.0
H2301 H 0.18816 0.2942 0.49057 0.0
H2302 H 0.21402 0.3518 0.4548 0.0
H2303 H 0.20204 0.33172 0.47868 0.0
H2304 H 0.12772 0.29202 0.46328 0.0
H2305 H 0.13971 0.31284 0.43939 0.0
C2306 C 0.1292 0.28464 0.50927 0.0
C2307 C 0.14439 0.27827 0.517 0.0
C2308 C 0.13521 0.29452 0.49494 0.0
C2309 C 0.15665 0.29843 0.48795 0.0
C2310 C 0.17165 0.29176 0.49562 0.0
C2311 C 0.16563 0.28186 0.5099 0.0
C2312 C 0.19509 0.33884 0.45647 0.0
C2313 C 0.17783 0.33414 0.44515 0.0
C2314 C 0.18823 0.32708 0.47017 0.0
C2315 C 0.16386 0.31019 0.47301 0.0
C2316 C 0.14661 0.30511 0.46159 0.0
C2317 C 0.15352 0.31685 0.44781 0.0
H2318 H 0.70403 0.89172 0.51749 0.0
H2319 H 0.69811 0.8224 0.51575 0.0
H2320 H 0.68908 0.88639 0.49193 0.0
H2321 H 0.68191 0.81655 0.4904 0.0
H2322 H 0.67442 0.82258 0.44011 0.0
H2323 H 0.69251 0.82961 0.46503 0.0
H2324 H 0.65211 0.86386 0.47828 0.0
H2325 H 0.63505 0.85793 0.45325 0.0
C2326 C 0.69964 0.87536 0.51165 0.0
C2327 C 0.70231 0.8575 0.51873 0.0
C2328 C 0.69074 0.87217 0.49703 0.0
C2329 C 0.68413 0.85097 0.48909 0.0
C2330 C 0.68702 0.83319 0.4961 0.0
C2331 C 0.69602 0.83642 0.51073 0.0
C2332 C 0.66966 0.8319 0.44829 0.0
C2333 C 0.65322 0.83964 0.44465 0.0
C2334 C 0.6798 0.83567 0.46264 0.0
C2335 C 0.67375 0.84727 0.47371 0.0
C2336 C 0.65744 0.85513 0.47002 0.0
C2337 C 0.64737 0.85143 0.45569 0.0
H2338 H 0.1145 0.82464 0.514 0.0
H2339 H 0.17858 0.89425 0.51652 0.0
H2340 H 0.12619 0.81875 0.48908 0.0
H2341 H 0.19017 0.88848 0.49166 0.0
H2342 H 0.21841 0.85863 0.45566 0.0
H2343 H 0.20515 0.86524 0.47973 0.0
H2344 H 0.13139 0.83176 0.46325 0.0
H2345 H 0.1446 0.82427 0.43923 0.0
C2346 C 0.13093 0.8388 0.50918 0.0
C2347 C 0.14571 0.85983 0.51735 0.0
C2348 C 0.13762 0.83544 0.49487 0.0
C2349 C 0.15924 0.85306 0.48836 0.0
C2350 C 0.17367 0.8743 0.49641 0.0
C2351 C 0.16702 0.87762 0.5107 0.0
C2352 C 0.19932 0.85251 0.45717 0.0
C2353 C 0.18257 0.84077 0.4455 0.0
C2354 C 0.19174 0.85657 0.47095 0.0
C2355 C 0.16718 0.84908 0.47348 0.0
C2356 C 0.15041 0.83756 0.46176 0.0
C2357 C 0.15803 0.83351 0.44793 0.0
H2358 H 0.68063 0.82704 0.16139 0.0
H2359 H 0.6092 0.80604 0.1781 0.0
H2360 H 0.69576 0.83139 0.18689 0.0
H2361 H 0.62452 0.81072 0.20368 0.0
H2362 H 0.66928 0.84674 0.24692 0.0
H2363 H 0.65242 0.84161 0.22171 0.0
H2364 H 0.69127 0.80596 0.2082 0.0
H2365 H 0.70787 0.8108 0.23333 0.0
C2366 C 0.66807 0.82317 0.17049 0.0
C2367 C 0.64362 0.81604 0.16763 0.0
C2368 C 0.67678 0.8257 0.18513 0.0
C2369 C 0.66132 0.82128 0.19734 0.0
C2370 C 0.63696 0.8145 0.19453 0.0
C2371 C 0.6282 0.81185 0.17985 0.0
C2372 C 0.67398 0.83754 0.23863 0.0
C2373 C 0.69013 0.82938 0.24216 0.0
C2374 C 0.66434 0.83463 0.22417 0.0
C2375 C 0.67068 0.82358 0.2129 0.0
C2376 C 0.68641 0.815 0.21653 0.0
C2377 C 0.69595 0.81781 0.23096 0.0
H2378 H 0.1746 0.82719 0.1617 0.0
H2379 H 0.21122 0.79404 0.18275 0.0
H2380 H 0.16263 0.83438 0.18617 0.0
H2381 H 0.19888 0.8009 0.20725 0.0
H2382 H 0.1937 0.84186 0.24872 0.0
H2383 H 0.20644 0.83425 0.22461 0.0
H2384 H 0.13499 0.81063 0.20649 0.0
H2385 H 0.12204 0.8177 0.23058 0.0
C2386 C 0.18021 0.82155 0.17156 0.0
C2387 C 0.19387 0.81004 0.17025 0.0
C2388 C 0.17314 0.82546 0.18558 0.0
C2389 C 0.17971 0.81813 0.19868 0.0
C2390 C 0.19364 0.80689 0.1974 0.0
C2391 C 0.20053 0.80278 0.18335 0.0
C2392 C 0.18057 0.83472 0.23968 0.0
C2393 C 0.15684 0.83057 0.24165 0.0
C2394 C 0.18793 0.83042 0.22583 0.0
C2395 C 0.1718 0.82202 0.21358 0.0
C2396 C 0.14801 0.81754 0.2156 0.0
C2397 C 0.14061 0.82165 0.22945 0.0
H2398 H 0.17073 0.35144 0.15973 0.0
H2399 H 0.21807 0.42036 0.17969 0.0
H2400 H 0.16115 0.3337 0.18439 0.0
H2401 H 0.20913 0.40237 0.20444 0.0
H2402 H 0.16519 0.36419 0.24715 0.0
H2403 H 0.17717 0.38409 0.22298 0.0
H2404 H 0.17897 0.32335 0.20449 0.0
H2405 H 0.16698 0.30358 0.22848 0.0
C2406 C 0.1791 0.36287 0.16937 0.0
C2407 C 0.19517 0.38741 0.16761 0.0
C2408 C 0.17383 0.3526 0.18357 0.0
C2409 C 0.18445 0.36651 0.19651 0.0
C2410 C 0.20046 0.39108 0.19479 0.0
C2411 C 0.2058 0.40137 0.18054 0.0
C2412 C 0.16847 0.35524 0.23797 0.0
C2413 C 0.16479 0.33211 0.23977 0.0
C2414 C 0.17533 0.36665 0.22408 0.0
C2415 C 0.17873 0.35524 0.21163 0.0
C2416 C 0.17593 0.3325 0.21364 0.0
C2417 C 0.16908 0.32114 0.22747 0.0
H2418 H 0.84194 0.60843 0.84687 0.0
H2419 H 0.77455 0.60918 0.8455 0.0
H2420 H 0.85203 0.62621 0.82218 0.0
H2421 H 0.78501 0.62767 0.82092 0.0
H2422 H 0.8022 0.64215 0.77088 0.0
H2423 H 0.79071 0.62065 0.79456 0.0
H2424 H 0.86401 0.66436 0.81097 0.0
H2425 H 0.87551 0.68531 0.78733 0.0
C2426 C 0.82917 0.61224 0.84128 0.0
C2427 C 0.80741 0.60734 0.84826 0.0
C2428 C 0.83509 0.62269 0.82715 0.0
C2429 C 0.81941 0.62851 0.81952 0.0
C2430 C 0.79745 0.62327 0.82638 0.0
C2431 C 0.79158 0.61291 0.84057 0.0
C2432 C 0.8159 0.64693 0.77949 0.0
C2433 C 0.83975 0.66557 0.7772 0.0
C2434 C 0.80927 0.63478 0.79313 0.0
C2435 C 0.82639 0.64078 0.80475 0.0
C2436 C 0.85035 0.65905 0.80228 0.0
C2437 C 0.85691 0.67126 0.78874 0.0
H2438 H 0.37186 0.15725 0.84688 0.0
H2439 H 0.37803 0.2266 0.84982 0.0
H2440 H 0.35169 0.15056 0.82267 0.0
H2441 H 0.35899 0.2204 0.82535 0.0
H2442 H 0.30156 0.19226 0.78876 0.0
H2443 H 0.32031 0.19741 0.81327 0.0
H2444 H 0.35976 0.16367 0.79714 0.0
H2445 H 0.34007 0.15746 0.77283 0.0
C2446 C 0.36893 0.17107 0.84237 0.0
C2447 C 0.37659 0.19247 0.85032 0.0
C2448 C 0.35761 0.16735 0.8284 0.0
C2449 C 0.3537 0.18494 0.82204 0.0
C2450 C 0.36142 0.20634 0.82998 0.0
C2451 C 0.37266 0.21003 0.84394 0.0
C2452 C 0.31399 0.18565 0.79048 0.0
C2453 C 0.31929 0.17444 0.7788 0.0
C2454 C 0.32499 0.18888 0.8045 0.0
C2455 C 0.34165 0.18106 0.80718 0.0
C2456 C 0.34685 0.16972 0.79552 0.0
C2457 C 0.33579 0.16644 0.78151 0.0
H2458 H 0.77574 0.14126 0.84834 0.0
H2459 H 0.84411 0.20726 0.85055 0.0
H2460 H 0.78587 0.13341 0.82348 0.0
H2461 H 0.85427 0.19927 0.82582 0.0
H2462 H 0.87587 0.16464 0.7889 0.0
H2463 H 0.86479 0.17205 0.81354 0.0
H2464 H 0.79195 0.14792 0.79766 0.0
H2465 H 0.80288 0.13984 0.77306 0.0
C2466 C 0.79284 0.1542 0.8435 0.0
C2467 C 0.80915 0.17485 0.85155 0.0
C2468 C 0.79865 0.14968 0.82923 0.0
C2469 C 0.82095 0.16564 0.82265 0.0
C2470 C 0.83714 0.18637 0.83064 0.0
C2471 C 0.83131 0.19092 0.84487 0.0
C2472 C 0.85742 0.16068 0.79069 0.0
C2473 C 0.84026 0.15157 0.77898 0.0
C2474 C 0.85113 0.16519 0.80479 0.0
C2475 C 0.82748 0.16065 0.8076 0.0
C2476 C 0.81026 0.15144 0.79593 0.0
C2477 C 0.8166 0.14703 0.78178 0.0
H2478 H 0.26807 0.13887 0.51745 0.0
H2479 H 0.33714 0.15906 0.49727 0.0
H2480 H 0.28689 0.1466 0.54213 0.0
H2481 H 0.35569 0.16567 0.52194 0.0
H2482 H 0.3868 0.198 0.56763 0.0
H2483 H 0.36781 0.19216 0.5431 0.0
H2484 H 0.30365 0.1301 0.55927 0.0
H2485 H 0.32259 0.13614 0.58384 0.0
C2486 C 0.28729 0.14504 0.51826 0.0
C2487 C 0.30106 0.14833 0.50533 0.0
C2488 C 0.29803 0.14918 0.53244 0.0
C2489 C 0.32282 0.15668 0.53406 0.0
C2490 C 0.33662 0.16015 0.52113 0.0
C2491 C 0.3259 0.15606 0.50696 0.0
C2492 C 0.36869 0.18304 0.56592 0.0
C2493 C 0.35623 0.16751 0.57769 0.0
C2494 C 0.3578 0.17966 0.55184 0.0
C2495 C 0.3342 0.16062 0.54916 0.0
C2496 C 0.32169 0.14517 0.56098 0.0
C2497 C 0.33256 0.1486 0.57507 0.0
H2498 H 0.89627 0.18997 0.5048 0.0
H2499 H 0.82779 0.12409 0.50355 0.0
H2500 H 0.88585 0.19975 0.52903 0.0
H2501 H 0.81765 0.13357 0.52792 0.0
H2502 H 0.7963 0.17073 0.56353 0.0
H2503 H 0.80709 0.16159 0.53926 0.0
H2504 H 0.8801 0.18681 0.5552 0.0
H2505 H 0.86946 0.19653 0.57938 0.0
C2506 C 0.87898 0.17759 0.50968 0.0
C2507 C 0.86287 0.15625 0.50219 0.0
C2508 C 0.87311 0.18308 0.52365 0.0
C2509 C 0.8509 0.16746 0.53045 0.0
C2510 C 0.8348 0.14613 0.52296 0.0
C2511 C 0.84073 0.14057 0.50904 0.0
C2512 C 0.81472 0.17454 0.56183 0.0
C2513 C 0.83202 0.18442 0.57343 0.0
C2514 C 0.82084 0.16905 0.54795 0.0
C2515 C 0.84446 0.1734 0.54526 0.0
C2516 C 0.8618 0.1834 0.55683 0.0
C2517 C 0.85564 0.18876 0.57075 0.0
H2518 H 0.83449 0.6819 0.49564 0.0
H2519 H 0.89145 0.74689 0.51559 0.0
H2520 H 0.82448 0.66352 0.52009 0.0
H2521 H 0.88174 0.72802 0.54008 0.0
H2522 H 0.86979 0.67326 0.57857 0.0
H2523 H 0.8819 0.69488 0.5549 0.0
H2524 H 0.80666 0.66795 0.54356 0.0
H2525 H 0.79462 0.64693 0.56713 0.0
C2526 C 0.84482 0.69244 0.50521 0.0
C2527 C 0.86367 0.71612 0.50347 0.0
C2528 C 0.83909 0.68178 0.51929 0.0
C2529 C 0.85215 0.69431 0.53213 0.0
C2530 C 0.87139 0.71777 0.53044 0.0
C2531 C 0.87699 0.72857 0.51633 0.0
C2532 C 0.85585 0.67227 0.57114 0.0
C2533 C 0.83116 0.65792 0.57474 0.0
C2534 C 0.8628 0.68462 0.55753 0.0
C2535 C 0.84524 0.68283 0.54716 0.0
C2536 C 0.82067 0.66928 0.55107 0.0
C2537 C 0.81377 0.65716 0.56463 0.0
loop_
_geom_bond_atom_site_label_1
_geom_bond_atom_site_label_2
_geom_bond_distance
_geom_bond_site_symmetry_2
_ccdc_geom_bond_type
C0 C1 1.386 . S
C0 C2 1.397 . S
C0 H24 0.931 . S
C1 C0 1.386 . S
C1 C5 1.397 . S
C2 C0 1.397 . S
C2 C3 1.384 . S
C2 H25 0.930 . S
C3 C2 1.384 . S
C3 C4 1.377 . S
C3 C6 1.481 . S
C4 C3 1.377 . S
C4 C5 1.389 . S
C4 H26 0.929 . S
C5 C1 1.397 . S
C5 C4 1.389 . S
C5 H27 0.931 . S
C6 C3 1.481 . S
C6 C7 1.387 . S
C6 C11 1.390 . S
C7 C6 1.387 . S
C7 C8 1.401 . S
C7 H28 0.930 . S
C8 C7 1.401 . S
C8 C9 1.376 . S
C8 C17 1.511 . S
C9 C8 1.376 . S
C9 C10 1.392 . S
C9 H30 0.931 . S
C10 C9 1.392 . S
C10 C11 1.361 . S
C10 C12 1.500 . S
C11 C6 1.390 . S
C11 C10 1.361 . S
C11 H29 0.931 . S
C12 C10 1.500 . S
C12 C13 1.371 . S
C12 C14 1.365 . S
C13 C12 1.371 . S
C13 C23 1.386 . S
C13 H31 0.931 . S
C14 C12 1.365 . S
C14 C15 1.409 . S
C14 H32 0.929 . S
C15 C14 1.409 . S
C15 C16 1.380 . S
C15 H33 0.930 . S
C16 C15 1.380 . S
C16 C23 1.357 . S
C17 C8 1.511 . S
C17 C18 1.341 . S
C17 C19 1.371 . S
C18 C17 1.341 . S
C18 C22 1.394 . S
C18 H34 0.930 . S
C19 C17 1.371 . S
C19 C20 1.392 . S
C19 H35 0.931 . S
C20 C19 1.392 . S
C20 C21 1.331 . S
C20 H38 0.932 . S
C21 C20 1.331 . S
C21 C22 1.336 . S
C22 C18 1.394 . S
C22 C21 1.336 . S
C22 H37 0.929 . S
C23 C13 1.386 . S
C23 C16 1.357 . S
C23 H36 0.928 . S
H24 C0 0.931 . S
H25 C2 0.930 . S
H26 C4 0.929 . S
H27 C5 0.931 . S
H28 C7 0.930 . S
H29 C11 0.931 . S
H30 C9 0.931 . S
H31 C13 0.931 . S
H32 C14 0.929 . S
H33 C15 0.930 . S
H34 C18 0.930 . S
H35 C19 0.931 . S
H36 C23 0.928 . S
H37 C22 0.929 . S
H38 C20 0.932 . S
C39 C40 1.386 . S
C39 C41 1.397 . S
C39 H63 0.931 . S
C40 C39 1.386 . S
C40 C44 1.397 . S
C41 C39 1.397 . S
C41 C42 1.384 . S
C41 H64 0.930 . S
C42 C41 1.384 . S
C42 C43 1.377 . S
C42 C45 1.481 . S
C43 C42 1.377 . S
C43 C44 1.389 . S
C43 H65 0.929 . S
C44 C40 1.397 . S
C44 C43 1.389 . S
C44 H66 0.931 . S
C45 C42 1.481 . S
C45 C46 1.387 . S
C45 C50 1.390 . S
C46 C45 1.387 . S
C46 C47 1.401 . S
C46 H67 0.930 . S
C47 C46 1.401 . S
C47 C48 1.376 . S
C47 C56 1.511 . S
C48 C47 1.376 . S
C48 C49 1.392 . S
C48 H69 0.931 . S
C49 C48 1.392 . S
C49 C50 1.361 . S
C49 C51 1.500 . S
C50 C45 1.390 . S
C50 C49 1.361 . S
C50 H68 0.931 . S
C51 C49 1.500 . S
C51 C52 1.371 . S
C51 C53 1.365 . S
C52 C51 1.371 . S
C52 C62 1.386 . S
C52 H70 0.931 . S
C53 C51 1.365 . S
C53 C54 1.409 . S
C53 H71 0.929 . S
C54 C53 1.409 . S
C54 C55 1.380 . S
C54 H72 0.930 . S
C55 C54 1.380 . S
C55 C62 1.357 . S
C56 C47 1.511 . S
C56 C57 1.341 . S
C56 C58 1.371 . S
C57 C56 1.341 . S
C57 C61 1.394 . S
C57 H73 0.930 . S
C58 C56 1.371 . S
C58 C59 1.392 . S
C58 H74 0.931 . S
C59 C58 1.392 . S
C59 C60 1.331 . S
C59 H77 0.932 . S
C60 C59 1.331 . S
C60 C61 1.336 . S
C61 C57 1.394 . S
C61 C60 1.336 . S
C61 H76 0.929 . S
C62 C52 1.386 . S
C62 C55 1.357 . S
C62 H75 0.928 . S
H63 C39 0.931 . S
H64 C41 0.930 . S
H65 C43 0.929 . S
H66 C44 0.931 . S
H67 C46 0.930 . S
H68 C50 0.931 . S
H69 C48 0.931 . S
H70 C52 0.931 . S
H71 C53 0.929 . S
H72 C54 0.930 . S
H73 C57 0.930 . S
H74 C58 0.931 . S
H75 C62 0.928 . S
H76 C61 0.929 . S
H77 C59 0.932 . S
C78 C79 1.386 . S
C78 C80 1.397 . S
C78 H102 0.931 . S
C79 C78 1.386 . S
C79 C83 1.397 . S
C80 C78 1.397 . S
C80 C81 1.384 . S
C80 H103 0.930 . S
C81 C80 1.384 . S
C81 C82 1.377 . S
C81 C84 1.481 . S
C82 C81 1.377 . S
C82 C83 1.389 . S
C82 H104 0.929 . S
C83 C79 1.397 . S
C83 C82 1.389 . S
C83 H105 0.931 . S
C84 C81 1.481 . S
C84 C85 1.387 . S
C84 C89 1.390 . S
C85 C84 1.387 . S
C85 C86 1.401 . S
C85 H106 0.930 . S
C86 C85 1.401 . S
C86 C87 1.376 . S
C86 C95 1.511 . S
C87 C86 1.376 . S
C87 C88 1.392 . S
C87 H108 0.931 . S
C88 C87 1.392 . S
C88 C89 1.361 . S
C88 C90 1.500 . S
C89 C84 1.390 . S
C89 C88 1.361 . S
C89 H107 0.931 . S
C90 C88 1.500 . S
C90 C91 1.371 . S
C90 C92 1.365 . S
C91 C90 1.371 . S
C91 C101 1.386 . S
C91 H109 0.931 . S
C92 C90 1.365 . S
C92 C93 1.409 . S
C92 H110 0.929 . S
C93 C92 1.409 . S
C93 C94 1.380 . S
C93 H111 0.930 . S
C94 C93 1.380 . S
C94 C101 1.357 . S
C95 C86 1.511 . S
C95 C96 1.341 . S
C95 C97 1.371 . S
C96 C95 1.341 . S
C96 C100 1.394 . S
C96 H112 0.930 . S
C97 C95 1.371 . S
C97 C98 1.392 . S
C97 H113 0.931 . S
C98 C97 1.392 . S
C98 C99 1.331 . S
C98 H116 0.932 . S
C99 C98 1.331 . S
C99 C100 1.336 . S
C100 C96 1.394 . S
C100 C99 1.336 . S
C100 H115 0.929 . S
C101 C91 1.386 . S
C101 C94 1.357 . S
C101 H114 0.928 . S
H102 C78 0.931 . S
H103 C80 0.930 . S
H104 C82 0.929 . S
H105 C83 0.931 . S
H106 C85 0.930 . S
H107 C89 0.931 . S
H108 C87 0.931 . S
H109 C91 0.931 . S
H110 C92 0.929 . S
H111 C93 0.930 . S
H112 C96 0.930 . S
H113 C97 0.931 . S
H114 C101 0.928 . S
H115 C100 0.929 . S
H116 C98 0.932 . S
C117 C118 1.386 . S
C117 C119 1.397 . S
C117 H141 0.931 . S
C118 C117 1.386 . S
C118 C122 1.397 . S
C119 C117 1.397 . S
C119 C120 1.384 . S
C119 H142 0.930 . S
C120 C119 1.384 . S
C120 C121 1.377 . S
C120 C123 1.481 . S
C121 C120 1.377 . S
C121 C122 1.389 . S
C121 H143 0.929 . S
C122 C118 1.397 . S
C122 C121 1.389 . S
C122 H144 0.931 . S
C123 C120 1.481 . S
C123 C124 1.387 . S
C123 C128 1.390 . S
C124 C123 1.387 . S
C124 C125 1.401 . S
C124 H145 0.930 . S
C125 C124 1.401 . S
C125 C126 1.376 . S
C125 C134 1.511 . S
C126 C125 1.376 . S
C126 C127 1.392 . S
C126 H147 0.931 . S
C127 C126 1.392 . S
C127 C128 1.361 . S
C127 C129 1.500 . S
C128 C123 1.390 . S
C128 C127 1.361 . S
C128 H146 0.931 . S
C129 C127 1.500 . S
C129 C130 1.371 . S
C129 C131 1.365 . S
C130 C129 1.371 . S
C130 C140 1.386 . S
C130 H148 0.931 . S
C131 C129 1.365 . S
C131 C132 1.409 . S
C131 H149 0.929 . S
C132 C131 1.409 . S
C132 C133 1.380 . S
C132 H150 0.930 . S
C133 C132 1.380 . S
C133 C140 1.357 . S
C134 C125 1.511 . S
C134 C135 1.341 . S
C134 C136 1.371 . S
C135 C134 1.341 . S
C135 C139 1.394 . S
C135 H151 0.930 . S
C136 C134 1.371 . S
C136 C137 1.392 . S
C136 H152 0.931 . S
C137 C136 1.392 . S
C137 C138 1.331 . S
C137 H155 0.932 . S
C138 C137 1.331 . S
C138 C139 1.336 . S
C139 C135 1.394 . S
C139 C138 1.336 . S
C139 H154 0.929 . S
C140 C130 1.386 . S
C140 C133 1.357 . S
C140 H153 0.928 . S
H141 C117 0.931 . S
H142 C119 0.930 . S
H143 C121 0.929 . S
H144 C122 0.931 . S
H145 C124 0.930 . S
H146 C128 0.931 . S
H147 C126 0.931 . S
H148 C130 0.931 . S
H149 C131 0.929 . S
H150 C132 0.930 . S
H151 C135 0.930 . S
H152 C136 0.931 . S
H153 C140 0.928 . S
H154 C139 0.929 . S
H155 C137 0.932 . S
C156 C157 1.386 . S
C156 C158 1.397 . S
C156 H180 0.931 . S
C157 C156 1.386 . S
C157 C161 1.397 . S
C158 C156 1.397 . S
C158 C159 1.384 . S
C158 H181 0.930 . S
C159 C158 1.384 . S
C159 C160 1.377 . S
C159 C162 1.481 . S
C160 C159 1.377 . S
C160 C161 1.389 . S
C160 H182 0.929 . S
C161 C157 1.397 . S
C161 C160 1.389 . S
C161 H183 0.931 . S
C162 C159 1.481 . S
C162 C163 1.387 . S
C162 C167 1.390 . S
C163 C162 1.387 . S
C163 C164 1.401 . S
C163 H184 0.930 . S
C164 C163 1.401 . S
C164 C165 1.376 . S
C164 C173 1.511 . S
C165 C164 1.376 . S
C165 C166 1.392 . S
C165 H186 0.931 . S
C166 C165 1.392 . S
C166 C167 1.361 . S
C166 C168 1.500 . S
C167 C162 1.390 . S
C167 C166 1.361 . S
C167 H185 0.931 . S
C168 C166 1.500 . S
C168 C169 1.371 . S
C168 C170 1.365 . S
C169 C168 1.371 . S
C169 C179 1.386 . S
C169 H187 0.931 . S
C170 C168 1.365 . S
C170 C171 1.409 . S
C170 H188 0.929 . S
C171 C170 1.409 . S
C171 C172 1.380 . S
C171 H189 0.930 . S
C172 C171 1.380 . S
C172 C179 1.357 . S
C173 C164 1.511 . S
C173 C174 1.341 . S
C173 C175 1.371 . S
C174 C173 1.341 . S
C174 C178 1.394 . S
C174 H190 0.930 . S
C175 C173 1.371 . S
C175 C176 1.392 . S
C175 H191 0.931 . S
C176 C175 1.392 . S
C176 C177 1.331 . S
C176 H194 0.932 . S
C177 C176 1.331 . S
C177 C178 1.336 . S
C178 C174 1.394 . S
C178 C177 1.336 . S
C178 H193 0.929 . S
C179 C169 1.386 . S
C179 C172 1.357 . S
C179 H192 0.928 . S
H180 C156 0.931 . S
H181 C158 0.930 . S
H182 C160 0.929 . S
H183 C161 0.931 . S
H184 C163 0.930 . S
H185 C167 0.931 . S
H186 C165 0.931 . S
H187 C169 0.931 . S
H188 C170 0.929 . S
H189 C171 0.930 . S
H190 C174 0.930 . S
H191 C175 0.931 . S
H192 C179 0.928 . S
H193 C178 0.929 . S
H194 C176 0.932 . S
C195 C196 1.386 . S
C195 C197 1.397 . S
C195 H219 0.931 . S
C196 C195 1.386 . S
C196 C200 1.397 . S
C197 C195 1.397 . S
C197 C198 1.384 . S
C197 H220 0.930 . S
C198 C197 1.384 . S
C198 C199 1.377 . S
C198 C201 1.481 . S
C199 C198 1.377 . S
C199 C200 1.389 . S
C199 H221 0.929 . S
C200 C196 1.397 . S
C200 C199 1.389 . S
C200 H222 0.931 . S
C201 C198 1.481 . S
C201 C202 1.387 . S
C201 C206 1.390 . S
C202 C201 1.387 . S
C202 C203 1.401 . S
C202 H223 0.930 . S
C203 C202 1.401 . S
C203 C204 1.376 . S
C203 C212 1.511 . S
C204 C203 1.376 . S
C204 C205 1.392 . S
C204 H225 0.931 . S
C205 C204 1.392 . S
C205 C206 1.361 . S
C205 C207 1.500 . S
C206 C201 1.390 . S
C206 C205 1.361 . S
C206 H224 0.931 . S
C207 C205 1.500 . S
C207 C208 1.371 . S
C207 C209 1.365 . S
C208 C207 1.371 . S
C208 C218 1.386 . S
C208 H226 0.931 . S
C209 C207 1.365 . S
C209 C210 1.409 . S
C209 H227 0.929 . S
C210 C209 1.409 . S
C210 C211 1.380 . S
C210 H228 0.930 . S
C211 C210 1.380 . S
C211 C218 1.357 . S
C212 C203 1.511 . S
C212 C213 1.341 . S
C212 C214 1.371 . S
C213 C212 1.341 . S
C213 C217 1.394 . S
C213 H229 0.930 . S
C214 C212 1.371 . S
C214 C215 1.392 . S
C214 H230 0.931 . S
C215 C214 1.392 . S
C215 C216 1.331 . S
C215 H233 0.932 . S
C216 C215 1.331 . S
C216 C217 1.336 . S
C217 C213 1.394 . S
C217 C216 1.336 . S
C217 H232 0.929 . S
C218 C208 1.386 . S
C218 C211 1.357 . S
C218 H231 0.928 . S
H219 C195 0.931 . S
H220 C197 0.930 . S
H221 C199 0.929 . S
H222 C200 0.931 . S
H223 C202 0.930 . S
H224 C206 0.931 . S
H225 C204 0.931 . S
H226 C208 0.931 . S
H227 C209 0.929 . S
H228 C210 0.930 . S
H229 C213 0.930 . S
H230 C214 0.931 . S
H231 C218 0.928 . S
H232 C217 0.929 . S
H233 C215 0.932 . S
C234 C235 1.386 . S
C234 C236 1.397 . S
C234 H258 0.931 . S
C235 C234 1.386 . S
C235 C239 1.397 . S
C236 C234 1.397 . S
C236 C237 1.384 . S
C236 H259 0.930 . S
C237 C236 1.384 . S
C237 C238 1.377 . S
C237 C240 1.481 . S
C238 C237 1.377 . S
C238 C239 1.389 . S
C238 H260 0.929 . S
C239 C235 1.397 . S
C239 C238 1.389 . S
C239 H261 0.931 . S
C240 C237 1.481 . S
C240 C241 1.387 . S
C240 C245 1.390 . S
C241 C240 1.387 . S
C241 C242 1.401 . S
C241 H262 0.930 . S
C242 C241 1.401 . S
C242 C243 1.376 . S
C242 C251 1.511 . S
C243 C242 1.376 . S
C243 C244 1.392 . S
C243 H264 0.931 . S
C244 C243 1.392 . S
C244 C245 1.361 . S
C244 C246 1.500 . S
C245 C240 1.390 . S
C245 C244 1.361 . S
C245 H263 0.931 . S
C246 C244 1.500 . S
C246 C247 1.371 . S
C246 C248 1.365 . S
C247 C246 1.371 . S
C247 C257 1.386 . S
C247 H265 0.931 . S
C248 C246 1.365 . S
C248 C249 1.409 . S
C248 H266 0.929 . S
C249 C248 1.409 . S
C249 C250 1.380 . S
C249 H267 0.930 . S
C250 C249 1.380 . S
C250 C257 1.357 . S
C251 C242 1.511 . S
C251 C252 1.341 . S
C251 C253 1.371 . S
C252 C251 1.341 . S
C252 C256 1.394 . S
C252 H268 0.930 . S
C253 C251 1.371 . S
C253 C254 1.392 . S
C253 H269 0.931 . S
C254 C253 1.392 . S
C254 C255 1.331 . S
C254 H272 0.932 . S
C255 C254 1.331 . S
C255 C256 1.336 . S
C256 C252 1.394 . S
C256 C255 1.336 . S
C256 H271 0.929 . S
C257 C247 1.386 . S
C257 C250 1.357 . S
C257 H270 0.928 . S
H258 C234 0.931 . S
H259 C236 0.930 . S
H260 C238 0.929 . S
H261 C239 0.931 . S
H262 C241 0.930 . S
H263 C245 0.931 . S
H264 C243 0.931 . S
H265 C247 0.931 . S
H266 C248 0.929 . S
H267 C249 0.930 . S
H268 C252 0.930 . S
H269 C253 0.931 . S
H270 C257 0.928 . S
H271 C256 0.929 . S
H272 C254 0.932 . S
C273 C274 1.386 . S
C273 C275 1.397 . S
C273 H297 0.931 . S
C274 C273 1.386 . S
C274 C278 1.397 . S
C275 C273 1.397 . S
C275 C276 1.384 . S
C275 H298 0.930 . S
C276 C275 1.384 . S
C276 C277 1.377 . S
C276 C279 1.481 . S
C277 C276 1.377 . S
C277 C278 1.389 . S
C277 H299 0.929 . S
C278 C274 1.397 . S
C278 C277 1.389 . S
C278 H300 0.931 . S
C279 C276 1.481 . S
C279 C280 1.387 . S
C279 C284 1.390 . S
C280 C279 1.387 . S
C280 C281 1.401 . S
C280 H301 0.930 . S
C281 C280 1.401 . S
C281 C282 1.376 . S
C281 C290 1.511 . S
C282 C281 1.376 . S
C282 C283 1.392 . S
C282 H303 0.931 . S
C283 C282 1.392 . S
C283 C284 1.361 . S
C283 C285 1.500 . S
C284 C279 1.390 . S
C284 C283 1.361 . S
C284 H302 0.931 . S
C285 C283 1.500 . S
C285 C286 1.371 . S
C285 C287 1.365 . S
C286 C285 1.371 . S
C286 C296 1.386 . S
C286 H304 0.931 . S
C287 C285 1.365 . S
C287 C288 1.409 . S
C287 H305 0.929 . S
C288 C287 1.409 . S
C288 C289 1.380 . S
C288 H306 0.930 . S
C289 C288 1.380 . S
C289 C296 1.357 . S
C290 C281 1.511 . S
C290 C291 1.341 . S
C290 C292 1.371 . S
C291 C290 1.341 . S
C291 C295 1.394 . S
C291 H307 0.930 . S
C292 C290 1.371 . S
C292 C293 1.392 . S
C292 H308 0.931 . S
C293 C292 1.392 . S
C293 C294 1.331 . S
C293 H311 0.932 . S
C294 C293 1.331 . S
C294 C295 1.336 . S
C295 C291 1.394 . S
C295 C294 1.336 . S
C295 H310 0.929 . S
C296 C286 1.386 . S
C296 C289 1.357 . S
C296 H309 0.928 . S
H297 C273 0.931 . S
H298 C275 0.930 . S
H299 C277 0.929 . S
H300 C278 0.931 . S
H301 C280 0.930 . S
H302 C284 0.931 . S
H303 C282 0.931 . S
H304 C286 0.931 . S
H305 C287 0.929 . S
H306 C288 0.930 . S
H307 C291 0.930 . S
H308 C292 0.931 . S
H309 C296 0.928 . S
H310 C295 0.929 . S
H311 C293 0.932 . S
C312 C313 1.386 . S
C312 C314 1.397 . S
C312 H336 0.931 . S
C313 C312 1.386 . S
C313 C317 1.397 . S
C314 C312 1.397 . S
C314 C315 1.384 . S
C314 H337 0.930 . S
C315 C314 1.384 . S
C315 C316 1.377 . S
C315 C318 1.481 . S
C316 C315 1.377 . S
C316 C317 1.389 . S
C316 H338 0.929 . S
C317 C313 1.397 . S
C317 C316 1.389 . S
C317 H339 0.931 . S
C318 C315 1.481 . S
C318 C319 1.387 . S
C318 C323 1.390 . S
C319 C318 1.387 . S
C319 C320 1.401 . S
C319 H340 0.930 . S
C320 C319 1.401 . S
C320 C321 1.376 . S
C320 C329 1.511 . S
C321 C320 1.376 . S
C321 C322 1.392 . S
C321 H342 0.931 . S
C322 C321 1.392 . S
C322 C323 1.361 . S
C322 C324 1.500 . S
C323 C318 1.390 . S
C323 C322 1.361 . S
C323 H341 0.931 . S
C324 C322 1.500 . S
C324 C325 1.371 . S
C324 C326 1.365 . S
C325 C324 1.371 . S
C325 C335 1.386 . S
C325 H343 0.931 . S
C326 C324 1.365 . S
C326 C327 1.409 . S
C326 H344 0.929 . S
C327 C326 1.409 . S
C327 C328 1.380 . S
C327 H345 0.930 . S
C328 C327 1.380 . S
C328 C335 1.357 . S
C329 C320 1.511 . S
C329 C330 1.341 . S
C329 C331 1.371 . S
C330 C329 1.341 . S
C330 C334 1.394 . S
C330 H346 0.930 . S
C331 C329 1.371 . S
C331 C332 1.392 . S
C331 H347 0.931 . S
C332 C331 1.392 . S
C332 C333 1.331 . S
C332 H350 0.932 . S
C333 C332 1.331 . S
C333 C334 1.336 . S
C334 C330 1.394 . S
C334 C333 1.336 . S
C334 H349 0.929 . S
C335 C325 1.386 . S
C335 C328 1.357 . S
C335 H348 0.928 . S
H336 C312 0.931 . S
H337 C314 0.930 . S
H338 C316 0.929 . S
H339 C317 0.931 . S
H340 C319 0.930 . S
H341 C323 0.931 . S
H342 C321 0.931 . S
H343 C325 0.931 . S
H344 C326 0.929 . S
H345 C327 0.930 . S
H346 C330 0.930 . S
H347 C331 0.931 . S
H348 C335 0.928 . S
H349 C334 0.929 . S
H350 C332 0.932 . S
C351 C352 1.386 . S
C351 C353 1.397 . S
C351 H375 0.931 . S
C352 C351 1.386 . S
C352 C356 1.397 . S
C353 C351 1.397 . S
C353 C354 1.384 . S
C353 H376 0.930 . S
C354 C353 1.384 . S
C354 C355 1.377 . S
C354 C357 1.481 . S
C355 C354 1.377 . S
C355 C356 1.389 . S
C355 H377 0.929 . S
C356 C352 1.397 . S
C356 C355 1.389 . S
C356 H378 0.931 . S
C357 C354 1.481 . S
C357 C358 1.387 . S
C357 C362 1.390 . S
C358 C357 1.387 . S
C358 C359 1.401 . S
C358 H379 0.930 . S
C359 C358 1.401 . S
C359 C360 1.376 . S
C359 C368 1.511 . S
C360 C359 1.376 . S
C360 C361 1.392 . S
C360 H381 0.931 . S
C361 C360 1.392 . S
C361 C362 1.361 . S
C361 C363 1.500 . S
C362 C357 1.390 . S
C362 C361 1.361 . S
C362 H380 0.931 . S
C363 C361 1.500 . S
C363 C364 1.371 . S
C363 C365 1.365 . S
C364 C363 1.371 . S
C364 C374 1.386 . S
C364 H382 0.931 . S
C365 C363 1.365 . S
C365 C366 1.409 . S
C365 H383 0.929 . S
C366 C365 1.409 . S
C366 C367 1.380 . S
C366 H384 0.930 . S
C367 C366 1.380 . S
C367 C374 1.357 . S
C368 C359 1.511 . S
C368 C369 1.341 . S
C368 C370 1.371 . S
C369 C368 1.341 . S
C369 C373 1.394 . S
C369 H385 0.930 . S
C370 C368 1.371 . S
C370 C371 1.392 . S
C370 H386 0.931 . S
C371 C370 1.392 . S
C371 C372 1.331 . S
C371 H389 0.932 . S
C372 C371 1.331 . S
C372 C373 1.336 . S
C373 C369 1.394 . S
C373 C372 1.336 . S
C373 H388 0.929 . S
C374 C364 1.386 . S
C374 C367 1.357 . S
C374 H387 0.928 . S
H375 C351 0.931 . S
H376 C353 0.930 . S
H377 C355 0.929 . S
H378 C356 0.931 . S
H379 C358 0.930 . S
H380 C362 0.931 . S
H381 C360 0.931 . S
H382 C364 0.931 . S
H383 C365 0.929 . S
H384 C366 0.930 . S
H385 C369 0.930 . S
H386 C370 0.931 . S
H387 C374 0.928 . S
H388 C373 0.929 . S
H389 C371 0.932 . S
C390 C391 1.386 . S
C390 C392 1.397 . S
C390 H414 0.931 . S
C391 C390 1.386 . S
C391 C395 1.397 . S
C392 C390 1.397 . S
C392 C393 1.384 . S
C392 H415 0.930 . S
C393 C392 1.384 . S
C393 C394 1.377 . S
C393 C396 1.481 . S
C394 C393 1.377 . S
C394 C395 1.389 . S
C394 H416 0.929 . S
C395 C391 1.397 . S
C395 C394 1.389 . S
C395 H417 0.931 . S
C396 C393 1.481 . S
C396 C397 1.387 . S
C396 C401 1.390 . S
C397 C396 1.387 . S
C397 C398 1.401 . S
C397 H418 0.930 . S
C398 C397 1.401 . S
C398 C399 1.376 . S
C398 C407 1.511 . S
C399 C398 1.376 . S
C399 C400 1.392 . S
C399 H420 0.931 . S
C400 C399 1.392 . S
C400 C401 1.361 . S
C400 C402 1.500 . S
C401 C396 1.390 . S
C401 C400 1.361 . S
C401 H419 0.931 . S
C402 C400 1.500 . S
C402 C403 1.371 . S
C402 C404 1.365 . S
C403 C402 1.371 . S
C403 C413 1.386 . S
C403 H421 0.931 . S
C404 C402 1.365 . S
C404 C405 1.409 . S
C404 H422 0.929 . S
C405 C404 1.409 . S
C405 C406 1.380 . S
C405 H423 0.930 . S
C406 C405 1.380 . S
C406 C413 1.357 . S
C407 C398 1.511 . S
C407 C408 1.341 . S
C407 C409 1.371 . S
C408 C407 1.341 . S
C408 C412 1.394 . S
C408 H424 0.930 . S
C409 C407 1.371 . S
C409 C410 1.392 . S
C409 H425 0.931 . S
C410 C409 1.392 . S
C410 C411 1.331 . S
C410 H428 0.932 . S
C411 C410 1.331 . S
C411 C412 1.336 . S
C412 C408 1.394 . S
C412 C411 1.336 . S
C412 H427 0.929 . S
C413 C403 1.386 . S
C413 C406 1.357 . S
C413 H426 0.928 . S
H414 C390 0.931 . S
H415 C392 0.930 . S
H416 C394 0.929 . S
H417 C395 0.931 . S
H418 C397 0.930 . S
H419 C401 0.931 . S
H420 C399 0.931 . S
H421 C403 0.931 . S
H422 C404 0.929 . S
H423 C405 0.930 . S
H424 C408 0.930 . S
H425 C409 0.931 . S
H426 C413 0.928 . S
H427 C412 0.929 . S
H428 C410 0.932 . S
C429 C430 1.386 . S
C429 C431 1.397 . S
C429 H453 0.931 . S
C430 C429 1.386 . S
C430 C434 1.397 . S
C431 C429 1.397 . S
C431 C432 1.384 . S
C431 H454 0.930 . S
C432 C431 1.384 . S
C432 C433 1.377 . S
C432 C435 1.481 . S
C433 C432 1.377 . S
C433 C434 1.389 . S
C433 H455 0.929 . S
C434 C430 1.397 . S
C434 C433 1.389 . S
C434 H456 0.931 . S
C435 C432 1.481 . S
C435 C436 1.387 . S
C435 C440 1.390 . S
C436 C435 1.387 . S
C436 C437 1.401 . S
C436 H457 0.930 . S
C437 C436 1.401 . S
C437 C438 1.376 . S
C437 C446 1.511 . S
C438 C437 1.376 . S
C438 C439 1.392 . S
C438 H459 0.931 . S
C439 C438 1.392 . S
C439 C440 1.361 . S
C439 C441 1.500 . S
C440 C435 1.390 . S
C440 C439 1.361 . S
C440 H458 0.931 . S
C441 C439 1.500 . S
C441 C442 1.371 . S
C441 C443 1.365 . S
C442 C441 1.371 . S
C442 C452 1.386 . S
C442 H460 0.931 . S
C443 C441 1.365 . S
C443 C444 1.409 . S
C443 H461 0.929 . S
C444 C443 1.409 . S
C444 C445 1.380 . S
C444 H462 0.930 . S
C445 C444 1.380 . S
C445 C452 1.357 . S
C446 C437 1.511 . S
C446 C447 1.341 . S
C446 C448 1.371 . S
C447 C446 1.341 . S
C447 C451 1.394 . S
C447 H463 0.930 . S
C448 C446 1.371 . S
C448 C449 1.392 . S
C448 H464 0.931 . S
C449 C448 1.392 . S
C449 C450 1.331 . S
C449 H467 0.932 . S
C450 C449 1.331 . S
C450 C451 1.336 . S
C451 C447 1.394 . S
C451 C450 1.336 . S
C451 H466 0.929 . S
C452 C442 1.386 . S
C452 C445 1.357 . S
C452 H465 0.928 . S
H453 C429 0.931 . S
H454 C431 0.930 . S
H455 C433 0.929 . S
H456 C434 0.931 . S
H457 C436 0.930 . S
H458 C440 0.931 . S
H459 C438 0.931 . S
H460 C442 0.931 . S
H461 C443 0.929 . S
H462 C444 0.930 . S
H463 C447 0.930 . S
H464 C448 0.931 . S
H465 C452 0.928 . S
H466 C451 0.929 . S
H467 C449 0.932 . S
C468 C469 1.386 . S
C468 C470 1.397 . S
C468 H492 0.931 . S
C469 C468 1.386 . S
C469 C473 1.397 . S
C470 C468 1.397 . S
C470 C471 1.384 . S
C470 H493 0.930 . S
C471 C470 1.384 . S
C471 C472 1.377 . S
C471 C474 1.481 . S
C472 C471 1.377 . S
C472 C473 1.389 . S
C472 H494 0.929 . S
C473 C469 1.397 . S
C473 C472 1.389 . S
C473 H495 0.931 . S
C474 C471 1.481 . S
C474 C475 1.387 . S
C474 C479 1.390 . S
C475 C474 1.387 . S
C475 C476 1.401 . S
C475 H496 0.930 . S
C476 C475 1.401 . S
C476 C477 1.376 . S
C476 C485 1.511 . S
C477 C476 1.376 . S
C477 C478 1.392 . S
C477 H498 0.931 . S
C478 C477 1.392 . S
C478 C479 1.361 . S
C478 C480 1.500 . S
C479 C474 1.390 . S
C479 C478 1.361 . S
C479 H497 0.931 . S
C480 C478 1.500 . S
C480 C481 1.371 . S
C480 C482 1.365 . S
C481 C480 1.371 . S
C481 C491 1.386 . S
C481 H499 0.931 . S
C482 C480 1.365 . S
C482 C483 1.409 . S
C482 H500 0.929 . S
C483 C482 1.409 . S
C483 C484 1.380 . S
C483 H501 0.930 . S
C484 C483 1.380 . S
C484 C491 1.357 . S
C485 C476 1.511 . S
C485 C486 1.341 . S
C485 C487 1.371 . S
C486 C485 1.341 . S
C486 C490 1.394 . S
C486 H502 0.930 . S
C487 C485 1.371 . S
C487 C488 1.392 . S
C487 H503 0.931 . S
C488 C487 1.392 . S
C488 C489 1.331 . S
C488 H506 0.932 . S
C489 C488 1.331 . S
C489 C490 1.336 . S
C490 C486 1.394 . S
C490 C489 1.336 . S
C490 H505 0.929 . S
C491 C481 1.386 . S
C491 C484 1.357 . S
C491 H504 0.928 . S
H492 C468 0.931 . S
H493 C470 0.930 . S
H494 C472 0.929 . S
H495 C473 0.931 . S
H496 C475 0.930 . S
H497 C479 0.931 . S
H498 C477 0.931 . S
H499 C481 0.931 . S
H500 C482 0.929 . S
H501 C483 0.930 . S
H502 C486 0.930 . S
H503 C487 0.931 . S
H504 C491 0.928 . S
H505 C490 0.929 . S
H506 C488 0.932 . S
C507 C508 1.386 . S
C507 C509 1.397 . S
C507 H531 0.931 . S
C508 C507 1.386 . S
C508 C512 1.397 . S
C509 C507 1.397 . S
C509 C510 1.384 . S
C509 H532 0.930 . S
C510 C509 1.384 . S
C510 C511 1.377 . S
C510 C513 1.481 . S
C511 C510 1.377 . S
C511 C512 1.389 . S
C511 H533 0.929 . S
C512 C508 1.397 . S
C512 C511 1.389 . S
C512 H534 0.931 . S
C513 C510 1.481 . S
C513 C514 1.387 . S
C513 C518 1.390 . S
C514 C513 1.387 . S
C514 C515 1.401 . S
C514 H535 0.930 . S
C515 C514 1.401 . S
C515 C516 1.376 . S
C515 C524 1.511 . S
C516 C515 1.376 . S
C516 C517 1.392 . S
C516 H537 0.931 . S
C517 C516 1.392 . S
C517 C518 1.361 . S
C517 C519 1.500 . S
C518 C513 1.390 . S
C518 C517 1.361 . S
C518 H536 0.931 . S
C519 C517 1.500 . S
C519 C520 1.371 . S
C519 C521 1.365 . S
C520 C519 1.371 . S
C520 C530 1.386 . S
C520 H538 0.931 . S
C521 C519 1.365 . S
C521 C522 1.409 . S
C521 H539 0.929 . S
C522 C521 1.409 . S
C522 C523 1.380 . S
C522 H540 0.930 . S
C523 C522 1.380 . S
C523 C530 1.357 . S
C524 C515 1.511 . S
C524 C525 1.341 . S
C524 C526 1.371 . S
C525 C524 1.341 . S
C525 C529 1.394 . S
C525 H541 0.930 . S
C526 C524 1.371 . S
C526 C527 1.392 . S
C526 H542 0.931 . S
C527 C526 1.392 . S
C527 C528 1.331 . S
C527 H545 0.932 . S
C528 C527 1.331 . S
C528 C529 1.336 . S
C529 C525 1.394 . S
C529 C528 1.336 . S
C529 H544 0.929 . S
C530 C520 1.386 . S
C530 C523 1.357 . S
C530 H543 0.928 . S
H531 C507 0.931 . S
H532 C509 0.930 . S
H533 C511 0.929 . S
H534 C512 0.931 . S
H535 C514 0.930 . S
H536 C518 0.931 . S
H537 C516 0.931 . S
H538 C520 0.931 . S
H539 C521 0.929 . S
H540 C522 0.930 . S
H541 C525 0.930 . S
H542 C526 0.931 . S
H543 C530 0.928 . S
H544 C529 0.929 . S
H545 C527 0.932 . S
C546 C547 1.386 . S
C546 C548 1.397 . S
C546 H570 0.931 . S
C547 C546 1.386 . S
C547 C551 1.397 . S
C548 C546 1.397 . S
C548 C549 1.384 . S
C548 H571 0.930 . S
C549 C548 1.384 . S
C549 C550 1.377 . S
C549 C552 1.481 . S
C550 C549 1.377 . S
C550 C551 1.389 . S
C550 H572 0.929 . S
C551 C547 1.397 . S
C551 C550 1.389 . S
C551 H573 0.931 . S
C552 C549 1.481 . S
C552 C553 1.387 . S
C552 C557 1.390 . S
C553 C552 1.387 . S
C553 C554 1.401 . S
C553 H574 0.930 . S
C554 C553 1.401 . S
C554 C555 1.376 . S
C554 C563 1.511 . S
C555 C554 1.376 . S
C555 C556 1.392 . S
C555 H576 0.931 . S
C556 C555 1.392 . S
C556 C557 1.361 . S
C556 C558 1.500 . S
C557 C552 1.390 . S
C557 C556 1.361 . S
C557 H575 0.931 . S
C558 C556 1.500 . S
C558 C559 1.371 . S
C558 C560 1.365 . S
C559 C558 1.371 . S
C559 C569 1.386 . S
C559 H577 0.931 . S
C560 C558 1.365 . S
C560 C561 1.409 . S
C560 H578 0.929 . S
C561 C560 1.409 . S
C561 C562 1.380 . S
C561 H579 0.930 . S
C562 C561 1.380 . S
C562 C569 1.357 . S
C563 C554 1.511 . S
C563 C564 1.341 . S
C563 C565 1.371 . S
C564 C563 1.341 . S
C564 C568 1.394 . S
C564 H580 0.930 . S
C565 C563 1.371 . S
C565 C566 1.392 . S
C565 H581 0.931 . S
C566 C565 1.392 . S
C566 C567 1.331 . S
C566 H584 0.932 . S
C567 C566 1.331 . S
C567 C568 1.336 . S
C568 C564 1.394 . S
C568 C567 1.336 . S
C568 H583 0.929 . S
C569 C559 1.386 . S
C569 C562 1.357 . S
C569 H582 0.928 . S
H570 C546 0.931 . S
H571 C548 0.930 . S
H572 C550 0.929 . S
H573 C551 0.931 . S
H574 C553 0.930 . S
H575 C557 0.931 . S
H576 C555 0.931 . S
H577 C559 0.931 . S
H578 C560 0.929 . S
H579 C561 0.930 . S
H580 C564 0.930 . S
H581 C565 0.931 . S
H582 C569 0.928 . S
H583 C568 0.929 . S
H584 C566 0.932 . S
C585 C586 1.386 . S
C585 C587 1.397 . S
C585 H609 0.931 . S
C586 C585 1.386 . S
C586 C590 1.397 . S
C587 C585 1.397 . S
C587 C588 1.384 . S
C587 H610 0.930 . S
C588 C587 1.384 . S
C588 C589 1.377 . S
C588 C591 1.481 . S
C589 C588 1.377 . S
C589 C590 1.389 . S
C589 H611 0.929 . S
C590 C586 1.397 . S
C590 C589 1.389 . S
C590 H612 0.931 . S
C591 C588 1.481 . S
C591 C592 1.387 . S
C591 C596 1.390 . S
C592 C591 1.387 . S
C592 C593 1.401 . S
C592 H613 0.930 . S
C593 C592 1.401 . S
C593 C594 1.376 . S
C593 C602 1.511 . S
C594 C593 1.376 . S
C594 C595 1.392 . S
C594 H615 0.931 . S
C595 C594 1.392 . S
C595 C596 1.361 . S
C595 C597 1.500 . S
C596 C591 1.390 . S
C596 C595 1.361 . S
C596 H614 0.931 . S
C597 C595 1.500 . S
C597 C598 1.371 . S
C597 C599 1.365 . S
C598 C597 1.371 . S
C598 C608 1.386 . S
C598 H616 0.931 . S
C599 C597 1.365 . S
C599 C600 1.409 . S
C599 H617 0.929 . S
C600 C599 1.409 . S
C600 C601 1.380 . S
C600 H618 0.930 . S
C601 C600 1.380 . S
C601 C608 1.357 . S
C602 C593 1.511 . S
C602 C603 1.341 . S
C602 C604 1.371 . S
C603 C602 1.341 . S
C603 C607 1.394 . S
C603 H619 0.930 . S
C604 C602 1.371 . S
C604 C605 1.392 . S
C604 H620 0.931 . S
C605 C604 1.392 . S
C605 C606 1.331 . S
C605 H623 0.932 . S
C606 C605 1.331 . S
C606 C607 1.336 . S
C607 C603 1.394 . S
C607 C606 1.336 . S
C607 H622 0.929 . S
C608 C598 1.386 . S
C608 C601 1.357 . S
C608 H621 0.928 . S
H609 C585 0.931 . S
H610 C587 0.930 . S
H611 C589 0.929 . S
H612 C590 0.931 . S
H613 C592 0.930 . S
H614 C596 0.931 . S
H615 C594 0.931 . S
H616 C598 0.931 . S
H617 C599 0.929 . S
H618 C600 0.930 . S
H619 C603 0.930 . S
H620 C604 0.931 . S
H621 C608 0.928 . S
H622 C607 0.929 . S
H623 C605 0.932 . S
C624 C625 1.386 . S
C624 C626 1.397 . S
C624 H648 0.931 . S
C625 C624 1.386 . S
C625 C629 1.397 . S
C626 C624 1.397 . S
C626 C627 1.384 . S
C626 H649 0.930 . S
C627 C626 1.384 . S
C627 C628 1.377 . S
C627 C630 1.481 . S
C628 C627 1.377 . S
C628 C629 1.389 . S
C628 H650 0.929 . S
C629 C625 1.397 . S
C629 C628 1.389 . S
C629 H651 0.931 . S
C630 C627 1.481 . S
C630 C631 1.387 . S
C630 C635 1.390 . S
C631 C630 1.387 . S
C631 C632 1.401 . S
C631 H652 0.930 . S
C632 C631 1.401 . S
C632 C633 1.376 . S
C632 C641 1.511 . S
C633 C632 1.376 . S
C633 C634 1.392 . S
C633 H654 0.931 . S
C634 C633 1.392 . S
C634 C635 1.361 . S
C634 C636 1.500 . S
C635 C630 1.390 . S
C635 C634 1.361 . S
C635 H653 0.931 . S
C636 C634 1.500 . S
C636 C637 1.371 . S
C636 C638 1.365 . S
C637 C636 1.371 . S
C637 C647 1.386 . S
C637 H655 0.931 . S
C638 C636 1.365 . S
C638 C639 1.409 . S
C638 H656 0.929 . S
C639 C638 1.409 . S
C639 C640 1.380 . S
C639 H657 0.930 . S
C640 C639 1.380 . S
C640 C647 1.357 . S
C641 C632 1.511 . S
C641 C642 1.341 . S
C641 C643 1.371 . S
C642 C641 1.341 . S
C642 C646 1.394 . S
C642 H658 0.930 . S
C643 C641 1.371 . S
C643 C644 1.392 . S
C643 H659 0.931 . S
C644 C643 1.392 . S
C644 C645 1.331 . S
C644 H662 0.932 . S
C645 C644 1.331 . S
C645 C646 1.336 . S
C646 C642 1.394 . S
C646 C645 1.336 . S
C646 H661 0.929 . S
C647 C637 1.386 . S
C647 C640 1.357 . S
C647 H660 0.928 . S
H648 C624 0.931 . S
H649 C626 0.930 . S
H650 C628 0.929 . S
H651 C629 0.931 . S
H652 C631 0.930 . S
H653 C635 0.931 . S
H654 C633 0.931 . S
H655 C637 0.931 . S
H656 C638 0.929 . S
H657 C639 0.930 . S
H658 C642 0.930 . S
H659 C643 0.931 . S
H660 C647 0.928 . S
H661 C646 0.929 . S
H662 C644 0.932 . S
C663 C664 1.386 . S
C663 C665 1.397 . S
C663 H687 0.931 . S
C664 C663 1.386 . S
C664 C668 1.397 . S
C665 C663 1.397 . S
C665 C666 1.384 . S
C665 H688 0.930 . S
C666 C665 1.384 . S
C666 C667 1.377 . S
C666 C669 1.481 . S
C667 C666 1.377 . S
C667 C668 1.389 . S
C667 H689 0.929 . S
C668 C664 1.397 . S
C668 C667 1.389 . S
C668 H690 0.931 . S
C669 C666 1.481 . S
C669 C670 1.387 . S
C669 C674 1.390 . S
C670 C669 1.387 . S
C670 C671 1.401 . S
C670 H691 0.930 . S
C671 C670 1.401 . S
C671 C672 1.376 . S
C671 C680 1.511 . S
C672 C671 1.376 . S
C672 C673 1.392 . S
C672 H693 0.931 . S
C673 C672 1.392 . S
C673 C674 1.361 . S
C673 C675 1.500 . S
C674 C669 1.390 . S
C674 C673 1.361 . S
C674 H692 0.931 . S
C675 C673 1.500 . S
C675 C676 1.371 . S
C675 C677 1.365 . S
C676 C675 1.371 . S
C676 C686 1.386 . S
C676 H694 0.931 . S
C677 C675 1.365 . S
C677 C678 1.409 . S
C677 H695 0.929 . S
C678 C677 1.409 . S
C678 C679 1.380 . S
C678 H696 0.930 . S
C679 C678 1.380 . S
C679 C686 1.357 . S
C680 C671 1.511 . S
C680 C681 1.341 . S
C680 C682 1.371 . S
C681 C680 1.341 . S
C681 C685 1.394 . S
C681 H697 0.930 . S
C682 C680 1.371 . S
C682 C683 1.392 . S
C682 H698 0.931 . S
C683 C682 1.392 . S
C683 C684 1.331 . S
C683 H701 0.932 . S
C684 C683 1.331 . S
C684 C685 1.336 . S
C685 C681 1.394 . S
C685 C684 1.336 . S
C685 H700 0.929 . S
C686 C676 1.386 . S
C686 C679 1.357 . S
C686 H699 0.928 . S
H687 C663 0.931 . S
H688 C665 0.930 . S
H689 C667 0.929 . S
H690 C668 0.931 . S
H691 C670 0.930 . S
H692 C674 0.931 . S
H693 C672 0.931 . S
H694 C676 0.931 . S
H695 C677 0.929 . S
H696 C678 0.930 . S
H697 C681 0.930 . S
H698 C682 0.931 . S
H699 C686 0.928 . S
H700 C685 0.929 . S
H701 C683 0.932 . S
Gd702 N733 2.661 . S
Gd702 N739 2.601 . S
Gd702 O746 2.545 . S
Gd702 O747 2.606 1_545 S
Gd702 O749 2.429 . S
Gd702 O750 2.545 1_545 S
Gd702 O751 2.412 . S
Gd702 O753 2.296 1_554 S
Gd702 O754 2.324 1_545 S
Gd702 C761 2.828 . S
Gd703 N712 2.661 . S
Gd703 N716 2.601 . S
Gd703 O747 2.362 1_556 S
Gd703 O748 2.324 1_565 S
Gd703 O752 2.545 . S
Gd703 O753 2.646 1_565 S
Gd703 O755 2.429 . S
Gd703 O756 2.545 1_565 S
Gd703 O757 2.412 . S
Gd703 C770 2.828 . S
C704 C707 1.417 . S
C704 C709 1.431 . S
C704 C710 1.412 . S
C705 C708 1.437 . S
C705 C709 1.317 . S
C705 H724 0.929 . S
C706 C707 1.426 . S
C706 C708 1.413 . S
C706 N716 1.359 . S
C707 C704 1.417 . S
C707 C706 1.426 . S
C707 N712 1.350 . S
C708 C705 1.437 . S
C708 C706 1.413 . S
C708 C718 1.391 . S
C709 C704 1.431 . S
C709 C705 1.317 . S
C709 H720 0.930 . S
C710 C704 1.412 . S
C710 C711 1.355 . S
C710 H722 0.930 . S
C711 C710 1.355 . S
C711 C713 1.402 . S
C711 H723 0.930 . S
N712 Gd703 2.661 . S
N712 C707 1.350 . S
N712 C713 1.307 . S
C713 C711 1.402 . S
C713 N712 1.307 . S
C713 H714 0.930 . S
H714 C713 0.930 . S
C715 N716 1.334 . S
C715 C717 1.394 . S
C715 H719 0.930 . S
N716 Gd703 2.601 . S
N716 C706 1.359 . S
N716 C715 1.334 . S
C717 C715 1.394 . S
C717 C718 1.359 . S
C717 H729 0.930 . S
C718 C708 1.391 . S
C718 C717 1.359 . S
C718 H730 0.929 . S
H719 C715 0.930 . S
H720 C709 0.930 . S
H721 C738 0.930 . S
H722 C710 0.930 . S
H723 C711 0.930 . S
H724 C705 0.929 . S
H725 C743 0.930 . S
H726 C734 0.930 . S
H727 C735 0.930 . S
H728 C759 0.929 . S
H729 C717 0.930 . S
H730 C718 0.929 . S
H731 C760 0.930 . S
H732 C741 0.930 . S
N733 Gd702 2.661 . S
N733 C737 1.350 . S
N733 C738 1.307 . S
C734 H726 0.930 . S
C734 C735 1.355 . S
C734 C736 1.412 . S
C735 H727 0.930 . S
C735 C734 1.355 . S
C735 C738 1.402 . S
C736 C734 1.412 . S
C736 C737 1.417 . S
C736 C760 1.431 . S
C737 N733 1.350 . S
C737 C736 1.417 . S
C737 C740 1.426 . S
C738 H721 0.930 . S
C738 N733 1.307 . S
C738 C735 1.402 . S
N739 Gd702 2.601 . S
N739 C740 1.359 . S
N739 C743 1.334 . S
C740 C737 1.426 . S
C740 N739 1.359 . S
C740 C744 1.413 . S
C741 H732 0.930 . S
C741 C742 1.359 . S
C741 C743 1.394 . S
C742 C741 1.359 . S
C742 C744 1.391 . S
C742 H745 0.929 . S
C743 H725 0.930 . S
C743 N739 1.334 . S
C743 C741 1.394 . S
C744 C740 1.413 . S
C744 C742 1.391 . S
C744 C759 1.437 . S
H745 C742 0.929 . S
O746 Gd702 2.545 . S
O746 C761 1.258 . S
O747 Gd702 2.606 1_565 S
O747 Gd703 2.362 1_554 S
O747 C758 1.284 . S
O748 Gd703 2.324 1_545 S
O748 C768 1.254 . S
O749 Gd702 2.429 . S
O749 C768 1.268 1_554 S
O750 Gd702 2.545 1_565 S
O750 C758 1.250 . S
O751 Gd702 2.412 . S
O751 C761 1.252 . S
O752 Gd703 2.545 . S
O752 C770 1.258 . S
O753 Gd702 2.296 1_556 S
O753 Gd703 2.646 1_545 S
O753 C769 1.340 . S
O754 Gd702 2.324 1_565 S
O754 C777 1.254 . S
O755 Gd703 2.429 . S
O755 C777 1.268 1_556 S
O756 Gd703 2.545 1_545 S
O756 C769 1.250 . S
O757 Gd703 2.412 . S
O757 C770 1.252 . S
C758 O747 1.284 . S
C758 O750 1.250 . S
C759 H728 0.929 . S
C759 C744 1.437 . S
C759 C760 1.317 . S
C760 H731 0.930 . S
C760 C736 1.431 . S
C760 C759 1.317 . S
C761 Gd702 2.828 . S
C761 O746 1.258 . S
C761 O751 1.252 . S
C761 C762 1.497 . S
C762 C761 1.497 . S
C762 C763 1.395 . S
C762 C764 1.380 1_545 S
C763 C762 1.395 . S
C763 C766 1.398 . S
C763 H778 0.930 . S
C764 C762 1.380 1_565 S
C764 C765 1.391 . S
C764 H779 0.930 . S
C765 C764 1.391 . S
C765 C767 1.387 1_565 S
C766 C763 1.398 . S
C766 C767 1.380 . S
C766 H780 0.930 . S
C767 C765 1.387 1_545 S
C767 C766 1.380 . S
C767 H781 0.930 . S
C768 O748 1.254 . S
C768 O749 1.268 1_556 S
C769 O753 1.340 . S
C769 O756 1.250 . S
C770 Gd703 2.828 . S
C770 O752 1.258 . S
C770 O757 1.252 . S
C770 C771 1.497 . S
C771 C770 1.497 . S
C771 C772 1.395 . S
C771 C773 1.380 1_565 S
C772 C771 1.395 . S
C772 C775 1.398 . S
C772 H782 0.930 . S
C773 C771 1.380 1_545 S
C773 C774 1.391 . S
C773 H783 0.930 . S
C774 C773 1.391 . S
C774 C776 1.387 1_545 S
C775 C772 1.398 . S
C775 C776 1.380 . S
C775 H784 0.930 . S
C776 C774 1.387 1_565 S
C776 C775 1.380 . S
C776 H785 0.930 . S
C777 O754 1.254 . S
C777 O755 1.268 1_554 S
H778 C763 0.930 . S
H779 C764 0.930 . S
H780 C766 0.930 . S
H781 C767 0.930 . S
H782 C772 0.930 . S
H783 C773 0.930 . S
H784 C775 0.930 . S
H785 C776 0.930 . S
Gd786 N817 2.661 . S
Gd786 N823 2.601 . S
Gd786 O830 2.545 . S
Gd786 O831 2.606 1_655 S
Gd786 O833 2.429 . S
Gd786 O834 2.545 1_655 S
Gd786 O835 2.412 . S
Gd786 O837 2.362 1_554 S
Gd786 O838 2.324 1_655 S
Gd786 C845 2.828 . S
Gd787 N796 2.661 . S
Gd787 N800 2.601 . S
Gd787 O831 2.362 1_556 S
Gd787 O832 2.324 1_455 S
Gd787 O836 2.545 . S
Gd787 O837 2.606 1_455 S
Gd787 O839 2.429 . S
Gd787 O840 2.545 1_455 S
Gd787 O841 2.412 . S
Gd787 C854 2.828 . S
C788 C791 1.417 . S
C788 C793 1.431 . S
C788 C794 1.412 . S
C789 C792 1.437 . S
C789 C793 1.317 . S
C789 H808 0.929 . S
C790 C791 1.426 . S
C790 C792 1.413 . S
C790 N800 1.359 . S
C791 C788 1.417 . S
C791 C790 1.426 . S
C791 N796 1.350 . S
C792 C789 1.437 . S
C792 C790 1.413 . S
C792 C802 1.391 . S
C793 C788 1.431 . S
C793 C789 1.317 . S
C793 H804 0.930 . S
C794 C788 1.412 . S
C794 C795 1.355 . S
C794 H806 0.930 . S
C795 C794 1.355 . S
C795 C797 1.402 . S
C795 H807 0.930 . S
N796 Gd787 2.661 . S
N796 C791 1.350 . S
N796 C797 1.307 . S
C797 C795 1.402 . S
C797 N796 1.307 . S
C797 H798 0.930 . S
H798 C797 0.930 . S
C799 N800 1.334 . S
C799 C801 1.394 . S
C799 H803 0.930 . S
N800 Gd787 2.601 . S
N800 C790 1.359 . S
N800 C799 1.334 . S
C801 C799 1.394 . S
C801 C802 1.359 . S
C801 H813 0.930 . S
C802 C792 1.391 . S
C802 C801 1.359 . S
C802 H814 0.929 . S
H803 C799 0.930 . S
H804 C793 0.930 . S
H805 C822 0.930 . S
H806 C794 0.930 . S
H807 C795 0.930 . S
H808 C789 0.929 . S
H809 C827 0.930 . S
H810 C818 0.930 . S
H811 C819 0.930 . S
H812 C843 0.929 . S
H813 C801 0.930 . S
H814 C802 0.929 . S
H815 C844 0.930 . S
H816 C825 0.930 . S
N817 Gd786 2.661 . S
N817 C821 1.350 . S
N817 C822 1.307 . S
C818 H810 0.930 . S
C818 C819 1.355 . S
C818 C820 1.412 . S
C819 H811 0.930 . S
C819 C818 1.355 . S
C819 C822 1.402 . S
C820 C818 1.412 . S
C820 C821 1.417 . S
C820 C844 1.431 . S
C821 N817 1.350 . S
C821 C820 1.417 . S
C821 C824 1.426 . S
C822 H805 0.930 . S
C822 N817 1.307 . S
C822 C819 1.402 . S
N823 Gd786 2.601 . S
N823 C824 1.359 . S
N823 C827 1.334 . S
C824 C821 1.426 . S
C824 N823 1.359 . S
C824 C828 1.413 . S
C825 H816 0.930 . S
C825 C826 1.359 . S
C825 C827 1.394 . S
C826 C825 1.359 . S
C826 C828 1.391 . S
C826 H829 0.929 . S
C827 H809 0.930 . S
C827 N823 1.334 . S
C827 C825 1.394 . S
C828 C824 1.413 . S
C828 C826 1.391 . S
C828 C843 1.437 . S
H829 C826 0.929 . S
O830 Gd786 2.545 . S
O830 C845 1.258 . S
O831 Gd786 2.606 1_455 S
O831 Gd787 2.362 1_554 S
O831 C842 1.284 . S
O832 Gd787 2.324 1_655 S
O832 C852 1.254 . S
O833 Gd786 2.429 . S
O833 C852 1.268 1_554 S
O834 Gd786 2.545 1_455 S
O834 C842 1.250 . S
O835 Gd786 2.412 . S
O835 C845 1.252 . S
O836 Gd787 2.545 . S
O836 C854 1.258 . S
O837 Gd786 2.362 1_556 S
O837 Gd787 2.606 1_655 S
O837 C853 1.284 . S
O838 Gd786 2.324 1_455 S
O838 C861 1.254 . S
O839 Gd787 2.429 . S
O839 C861 1.268 1_556 S
O840 Gd787 2.545 1_655 S
O840 C853 1.250 . S
O841 Gd787 2.412 . S
O841 C854 1.252 . S
C842 O831 1.284 . S
C842 O834 1.250 . S
C843 H812 0.929 . S
C843 C828 1.437 . S
C843 C844 1.317 . S
C844 H815 0.930 . S
C844 C820 1.431 . S
C844 C843 1.317 . S
C845 Gd786 2.828 . S
C845 O830 1.258 . S
C845 O835 1.252 . S
C845 C846 1.497 . S
C846 C845 1.497 . S
C846 C847 1.395 . S
C846 C848 1.380 1_655 S
C847 C846 1.395 . S
C847 C850 1.398 . S
C847 H862 0.930 . S
C848 C846 1.380 1_455 S
C848 C849 1.391 . S
C848 H863 0.930 . S
C849 C848 1.391 . S
C849 C851 1.387 1_455 S
C850 C847 1.398 . S
C850 C851 1.380 . S
C850 H864 0.930 . S
C851 C849 1.387 1_655 S
C851 C850 1.380 . S
C851 H865 0.930 . S
C852 O832 1.254 . S
C852 O833 1.268 1_556 S
C853 O837 1.284 . S
C853 O840 1.250 . S
C854 Gd787 2.828 . S
C854 O836 1.258 . S
C854 O841 1.252 . S
C854 C855 1.497 . S
C855 C854 1.497 . S
C855 C856 1.395 . S
C855 C857 1.380 1_455 S
C856 C855 1.395 . S
C856 C859 1.398 . S
C856 H866 0.930 . S
C857 C855 1.380 1_655 S
C857 C858 1.391 . S
C857 H867 0.930 . S
C858 C857 1.391 . S
C858 C860 1.387 1_655 S
C859 C856 1.398 . S
C859 C860 1.380 . S
C859 H868 0.930 . S
C860 C858 1.387 1_455 S
C860 C859 1.380 . S
C860 H869 0.930 . S
C861 O838 1.254 . S
C861 O839 1.268 1_554 S
H862 C847 0.930 . S
H863 C848 0.930 . S
H864 C850 0.930 . S
H865 C851 0.930 . S
H866 C856 0.930 . S
H867 C857 0.930 . S
H868 C859 0.930 . S
H869 C860 0.930 . S
Gd870 N901 2.661 . S
Gd870 N907 2.601 . S
Gd870 O914 2.545 . S
Gd870 O915 2.606 . S
Gd870 O917 2.429 . S
Gd870 O918 2.545 . S
Gd870 O919 2.412 . S
Gd870 O921 2.362 1_556 S
Gd870 O922 2.324 . S
Gd870 C929 2.828 . S
Gd871 N880 2.661 . S
Gd871 N884 2.601 . S
Gd871 O915 2.362 1_554 S
Gd871 O916 2.324 . S
Gd871 O920 2.545 . S
Gd871 O921 2.606 . S
Gd871 O923 2.429 . S
Gd871 O924 2.545 . S
Gd871 O925 2.412 . S
Gd871 C938 2.828 . S
C872 C875 1.417 . S
C872 C877 1.431 . S
C872 C878 1.412 . S
C873 C876 1.437 . S
C873 C877 1.317 . S
C873 H892 0.929 . S
C874 C875 1.426 . S
C874 C876 1.413 . S
C874 N884 1.359 . S
C875 C872 1.417 . S
C875 C874 1.426 . S
C875 N880 1.350 . S
C876 C873 1.437 . S
C876 C874 1.413 . S
C876 C886 1.391 . S
C877 C872 1.431 . S
C877 C873 1.317 . S
C877 H888 0.930 . S
C878 C872 1.412 . S
C878 C879 1.355 . S
C878 H890 0.930 . S
C879 C878 1.355 . S
C879 C881 1.402 . S
C879 H891 0.930 . S
N880 Gd871 2.661 . S
N880 C875 1.350 . S
N880 C881 1.307 . S
C881 C879 1.402 . S
C881 N880 1.307 . S
C881 H882 0.930 . S
H882 C881 0.930 . S
C883 N884 1.334 . S
C883 C885 1.394 . S
C883 H887 0.930 . S
N884 Gd871 2.601 . S
N884 C874 1.359 . S
N884 C883 1.334 . S
C885 C883 1.394 . S
C885 C886 1.359 . S
C885 H897 0.930 . S
C886 C876 1.391 . S
C886 C885 1.359 . S
C886 H898 0.929 . S
H887 C883 0.930 . S
H888 C877 0.930 . S
H889 C906 0.930 . S
H890 C878 0.930 . S
H891 C879 0.930 . S
H892 C873 0.929 . S
H893 C911 0.930 . S
H894 C902 0.930 . S
H895 C903 0.930 . S
H896 C927 0.929 . S
H897 C885 0.930 . S
H898 C886 0.929 . S
H899 C928 0.930 . S
H900 C909 0.930 . S
N901 Gd870 2.661 . S
N901 C905 1.350 . S
N901 C906 1.307 . S
C902 H894 0.930 . S
C902 C903 1.355 . S
C902 C904 1.412 . S
C903 H895 0.930 . S
C903 C902 1.355 . S
C903 C906 1.402 . S
C904 C902 1.412 . S
C904 C905 1.417 . S
C904 C928 1.431 . S
C905 N901 1.350 . S
C905 C904 1.417 . S
C905 C908 1.426 . S
C906 H889 0.930 . S
C906 N901 1.307 . S
C906 C903 1.402 . S
N907 Gd870 2.601 . S
N907 C908 1.359 . S
N907 C911 1.334 . S
C908 C905 1.426 . S
C908 N907 1.359 . S
C908 C912 1.413 . S
C909 H900 0.930 . S
C909 C910 1.359 . S
C909 C911 1.394 . S
C910 C909 1.359 . S
C910 C912 1.391 . S
C910 H913 0.929 . S
C911 H893 0.930 . S
C911 N907 1.334 . S
C911 C909 1.394 . S
C912 C908 1.413 . S
C912 C910 1.391 . S
C912 C927 1.437 . S
H913 C910 0.929 . S
O914 Gd870 2.545 . S
O914 C929 1.258 . S
O915 Gd870 2.606 . S
O915 Gd871 2.362 1_556 S
O915 C926 1.284 . S
O916 Gd871 2.324 . S
O916 C936 1.254 . S
O917 Gd870 2.429 . S
O917 C936 1.268 1_556 S
O918 Gd870 2.545 . S
O918 C926 1.250 . S
O919 Gd870 2.412 . S
O919 C929 1.252 . S
O920 Gd871 2.545 . S
O920 C938 1.258 . S
O921 Gd870 2.362 1_554 S
O921 Gd871 2.606 . S
O921 C937 1.284 . S
O922 Gd870 2.324 . S
O922 C945 1.254 . S
O923 Gd871 2.429 . S
O923 C945 1.268 1_554 S
O924 Gd871 2.545 . S
O924 C937 1.250 . S
O925 Gd871 2.412 . S
O925 C938 1.252 . S
C926 O915 1.284 . S
C926 O918 1.250 . S
C927 H896 0.929 . S
C927 C912 1.437 . S
C927 C928 1.317 . S
C928 H899 0.930 . S
C928 C904 1.431 . S
C928 C927 1.317 . S
C929 Gd870 2.828 . S
C929 O914 1.258 . S
C929 O919 1.252 . S
C929 C930 1.497 . S
C930 C929 1.497 . S
C930 C931 1.395 . S
C930 C932 1.380 . S
C931 C930 1.395 . S
C931 C934 1.398 . S
C931 H946 0.930 . S
C932 C930 1.380 . S
C932 C933 1.391 . S
C932 H947 0.930 . S
C933 C932 1.391 . S
C933 C935 1.387 . S
C934 C931 1.398 . S
C934 C935 1.380 . S
C934 H948 0.930 . S
C935 C933 1.387 . S
C935 C934 1.380 . S
C935 H949 0.930 . S
C936 O916 1.254 . S
C936 O917 1.268 1_554 S
C937 O921 1.284 . S
C937 O924 1.250 . S
C938 Gd871 2.828 . S
C938 O920 1.258 . S
C938 O925 1.252 . S
C938 C939 1.497 . S
C939 C938 1.497 . S
C939 C940 1.395 . S
C939 C941 1.380 . S
C940 C939 1.395 . S
C940 C943 1.398 . S
C940 H950 0.930 . S
C941 C939 1.380 . S
C941 C942 1.391 . S
C941 H951 0.930 . S
C942 C941 1.391 . S
C942 C944 1.387 . S
C943 C940 1.398 . S
C943 C944 1.380 . S
C943 H952 0.930 . S
C944 C942 1.387 . S
C944 C943 1.380 . S
C944 H953 0.930 . S
C945 O922 1.254 . S
C945 O923 1.268 1_556 S
H946 C931 0.930 . S
H947 C932 0.930 . S
H948 C934 0.930 . S
H949 C935 0.930 . S
H950 C940 0.930 . S
H951 C941 0.930 . S
H952 C943 0.930 . S
H953 C944 0.930 . S
Gd954 N985 2.661 . S
Gd954 N991 2.601 . S
Gd954 O998 2.545 . S
Gd954 O999 2.606 . S
Gd954 O1001 2.429 . S
Gd954 O1002 2.545 . S
Gd954 O1003 2.412 . S
Gd954 O1005 2.362 . S
Gd954 O1006 2.324 . S
Gd954 C1013 2.828 . S
Gd955 N964 2.661 . S
Gd955 N968 2.601 . S
Gd955 O999 2.362 . S
Gd955 O1000 2.324 . S
Gd955 O1004 2.545 . S
Gd955 O1005 2.606 . S
Gd955 O1007 2.429 . S
Gd955 O1008 2.545 . S
Gd955 O1009 2.412 . S
Gd955 C1022 2.828 . S
C956 C959 1.417 . S
C956 C961 1.431 . S
C956 C962 1.412 . S
C957 C960 1.437 . S
C957 C961 1.317 . S
C957 H976 0.929 . S
C958 C959 1.426 . S
C958 C960 1.413 . S
C958 N968 1.359 . S
C959 C956 1.417 . S
C959 C958 1.426 . S
C959 N964 1.350 . S
C960 C957 1.437 . S
C960 C958 1.413 . S
C960 C970 1.391 . S
C961 C956 1.431 . S
C961 C957 1.317 . S
C961 H972 0.930 . S
C962 C956 1.412 . S
C962 C963 1.355 . S
C962 H974 0.930 . S
C963 C962 1.355 . S
C963 C965 1.402 . S
C963 H975 0.930 . S
N964 Gd955 2.661 . S
N964 C959 1.350 . S
N964 C965 1.307 . S
C965 C963 1.402 . S
C965 N964 1.307 . S
C965 H966 0.930 . S
H966 C965 0.930 . S
C967 N968 1.334 . S
C967 C969 1.394 . S
C967 H971 0.930 . S
N968 Gd955 2.601 . S
N968 C958 1.359 . S
N968 C967 1.334 . S
C969 C967 1.394 . S
C969 C970 1.359 . S
C969 H981 0.930 . S
C970 C960 1.391 . S
C970 C969 1.359 . S
C970 H982 0.929 . S
H971 C967 0.930 . S
H972 C961 0.930 . S
H973 C990 0.930 . S
H974 C962 0.930 . S
H975 C963 0.930 . S
H976 C957 0.929 . S
H977 C995 0.930 . S
H978 C986 0.930 . S
H979 C987 0.930 . S
H980 C1011 0.929 . S
H981 C969 0.930 . S
H982 C970 0.929 . S
H983 C1012 0.930 . S
H984 C993 0.930 . S
N985 Gd954 2.661 . S
N985 C989 1.350 . S
N985 C990 1.307 . S
C986 H978 0.930 . S
C986 C987 1.355 . S
C986 C988 1.412 . S
C987 H979 0.930 . S
C987 C986 1.355 . S
C987 C990 1.402 . S
C988 C986 1.412 . S
C988 C989 1.417 . S
C988 C1012 1.431 . S
C989 N985 1.350 . S
C989 C988 1.417 . S
C989 C992 1.426 . S
C990 H973 0.930 . S
C990 N985 1.307 . S
C990 C987 1.402 . S
N991 Gd954 2.601 . S
N991 C992 1.359 . S
N991 C995 1.334 . S
C992 C989 1.426 . S
C992 N991 1.359 . S
C992 C996 1.413 . S
C993 H984 0.930 . S
C993 C994 1.359 . S
C993 C995 1.394 . S
C994 C993 1.359 . S
C994 C996 1.391 . S
C994 H997 0.929 . S
C995 H977 0.930 . S
C995 N991 1.334 . S
C995 C993 1.394 . S
C996 C992 1.413 . S
C996 C994 1.391 . S
C996 C1011 1.437 . S
H997 C994 0.929 . S
O998 Gd954 2.545 . S
O998 C1013 1.258 . S
O999 Gd954 2.606 . S
O999 Gd955 2.362 . S
O999 C1010 1.284 . S
O1000 Gd955 2.324 . S
O1000 C1020 1.254 . S
O1001 Gd954 2.429 . S
O1001 C1020 1.268 . S
O1002 Gd954 2.545 . S
O1002 C1010 1.250 . S
O1003 Gd954 2.412 . S
O1003 C1013 1.252 . S
O1004 Gd955 2.545 . S
O1004 C1022 1.258 . S
O1005 Gd954 2.362 . S
O1005 Gd955 2.606 . S
O1005 C1021 1.284 . S
O1006 Gd954 2.324 . S
O1006 C1029 1.254 . S
O1007 Gd955 2.429 . S
O1007 C1029 1.268 . S
O1008 Gd955 2.545 . S
O1008 C1021 1.250 . S
O1009 Gd955 2.412 . S
O1009 C1022 1.252 . S
C1010 O999 1.284 . S
C1010 O1002 1.250 . S
C1011 H980 0.929 . S
C1011 C996 1.437 . S
C1011 C1012 1.317 . S
C1012 H983 0.930 . S
C1012 C988 1.431 . S
C1012 C1011 1.317 . S
C1013 Gd954 2.828 . S
C1013 O998 1.258 . S
C1013 O1003 1.252 . S
C1013 C1014 1.497 . S
C1014 C1013 1.497 . S
C1014 C1015 1.395 . S
C1014 C1016 1.380 . S
C1015 C1014 1.395 . S
C1015 C1018 1.398 . S
C1015 H1030 0.930 . S
C1016 C1014 1.380 . S
C1016 C1017 1.391 . S
C1016 H1031 0.930 . S
C1017 C1016 1.391 . S
C1017 C1019 1.387 . S
C1018 C1015 1.398 . S
C1018 C1019 1.380 . S
C1018 H1032 0.930 . S
C1019 C1017 1.387 . S
C1019 C1018 1.380 . S
C1019 H1033 0.930 . S
C1020 O1000 1.254 . S
C1020 O1001 1.268 . S
C1021 O1005 1.284 . S
C1021 O1008 1.250 . S
C1022 Gd955 2.828 . S
C1022 O1004 1.258 . S
C1022 O1009 1.252 . S
C1022 C1023 1.497 . S
C1023 C1022 1.497 . S
C1023 C1024 1.395 . S
C1023 C1025 1.380 . S
C1024 C1023 1.395 . S
C1024 C1027 1.398 . S
C1024 H1034 0.930 . S
C1025 C1023 1.380 . S
C1025 C1026 1.391 . S
C1025 H1035 0.930 . S
C1026 C1025 1.391 . S
C1026 C1028 1.387 . S
C1027 C1024 1.398 . S
C1027 C1028 1.380 . S
C1027 H1036 0.930 . S
C1028 C1026 1.387 . S
C1028 C1027 1.380 . S
C1028 H1037 0.930 . S
C1029 O1006 1.254 . S
C1029 O1007 1.268 . S
H1030 C1015 0.930 . S
H1031 C1016 0.930 . S
H1032 C1018 0.930 . S
H1033 C1019 0.930 . S
H1034 C1024 0.930 . S
H1035 C1025 0.930 . S
H1036 C1027 0.930 . S
H1037 C1028 0.930 . S
Gd1038 N1069 2.661 . S
Gd1038 N1075 2.601 . S
Gd1038 O1082 2.545 . S
Gd1038 O1083 2.606 . S
Gd1038 O1085 2.429 . S
Gd1038 O1086 2.545 . S
Gd1038 O1087 2.412 . S
Gd1038 O1089 2.362 . S
Gd1038 O1090 2.324 . S
Gd1038 C1097 2.828 . S
Gd1039 N1048 2.661 . S
Gd1039 N1052 2.601 . S
Gd1039 O1083 2.362 . S
Gd1039 O1084 2.324 . S
Gd1039 O1088 2.545 . S
Gd1039 O1089 2.606 . S
Gd1039 O1091 2.429 . S
Gd1039 O1092 2.545 . S
Gd1039 O1093 2.412 . S
Gd1039 C1106 2.828 . S
C1040 C1043 1.417 . S
C1040 C1045 1.431 . S
C1040 C1046 1.412 . S
C1041 C1044 1.437 . S
C1041 C1045 1.317 . S
C1041 H1060 0.929 . S
C1042 C1043 1.426 . S
C1042 C1044 1.413 . S
C1042 N1052 1.359 . S
C1043 C1040 1.417 . S
C1043 C1042 1.426 . S
C1043 N1048 1.350 . S
C1044 C1041 1.437 . S
C1044 C1042 1.413 . S
C1044 C1054 1.391 . S
C1045 C1040 1.431 . S
C1045 C1041 1.317 . S
C1045 H1056 0.930 . S
C1046 C1040 1.412 . S
C1046 C1047 1.355 . S
C1046 H1058 0.930 . S
C1047 C1046 1.355 . S
C1047 C1049 1.402 . S
C1047 H1059 0.930 . S
N1048 Gd1039 2.661 . S
N1048 C1043 1.350 . S
N1048 C1049 1.307 . S
C1049 C1047 1.402 . S
C1049 N1048 1.307 . S
C1049 H1050 0.930 . S
H1050 C1049 0.930 . S
C1051 N1052 1.334 . S
C1051 C1053 1.394 . S
C1051 H1055 0.930 . S
N1052 Gd1039 2.601 . S
N1052 C1042 1.359 . S
N1052 C1051 1.334 . S
C1053 C1051 1.394 . S
C1053 C1054 1.359 . S
C1053 H1065 0.930 . S
C1054 C1044 1.391 . S
C1054 C1053 1.359 . S
C1054 H1066 0.929 . S
H1055 C1051 0.930 . S
H1056 C1045 0.930 . S
H1057 C1074 0.930 . S
H1058 C1046 0.930 . S
H1059 C1047 0.930 . S
H1060 C1041 0.929 . S
H1061 C1079 0.930 . S
H1062 C1070 0.930 . S
H1063 C1071 0.930 . S
H1064 C1095 0.929 . S
H1065 C1053 0.930 . S
H1066 C1054 0.929 . S
H1067 C1096 0.930 . S
H1068 C1077 0.930 . S
N1069 Gd1038 2.661 . S
N1069 C1073 1.350 . S
N1069 C1074 1.307 . S
C1070 H1062 0.930 . S
C1070 C1071 1.355 . S
C1070 C1072 1.412 . S
C1071 H1063 0.930 . S
C1071 C1070 1.355 . S
C1071 C1074 1.402 . S
C1072 C1070 1.412 . S
C1072 C1073 1.417 . S
C1072 C1096 1.431 . S
C1073 N1069 1.350 . S
C1073 C1072 1.417 . S
C1073 C1076 1.426 . S
C1074 H1057 0.930 . S
C1074 N1069 1.307 . S
C1074 C1071 1.402 . S
N1075 Gd1038 2.601 . S
N1075 C1076 1.359 . S
N1075 C1079 1.334 . S
C1076 C1073 1.426 . S
C1076 N1075 1.359 . S
C1076 C1080 1.413 . S
C1077 H1068 0.930 . S
C1077 C1078 1.359 . S
C1077 C1079 1.394 . S
C1078 C1077 1.359 . S
C1078 C1080 1.391 . S
C1078 H1081 0.929 . S
C1079 H1061 0.930 . S
C1079 N1075 1.334 . S
C1079 C1077 1.394 . S
C1080 C1076 1.413 . S
C1080 C1078 1.391 . S
C1080 C1095 1.437 . S
H1081 C1078 0.929 . S
O1082 Gd1038 2.545 . S
O1082 C1097 1.258 . S
O1083 Gd1038 2.606 . S
O1083 Gd1039 2.362 . S
O1083 C1094 1.284 . S
O1084 Gd1039 2.324 . S
O1084 C1104 1.254 . S
O1085 Gd1038 2.429 . S
O1085 C1104 1.268 . S
O1086 Gd1038 2.545 . S
O1086 C1094 1.250 . S
O1087 Gd1038 2.412 . S
O1087 C1097 1.252 . S
O1088 Gd1039 2.545 . S
O1088 C1106 1.258 . S
O1089 Gd1038 2.362 . S
O1089 Gd1039 2.606 . S
O1089 C1105 1.284 . S
O1090 Gd1038 2.324 . S
O1090 C1113 1.254 . S
O1091 Gd1039 2.429 . S
O1091 C1113 1.268 . S
O1092 Gd1039 2.545 . S
O1092 C1105 1.250 . S
O1093 Gd1039 2.412 . S
O1093 C1106 1.252 . S
C1094 O1083 1.284 . S
C1094 O1086 1.250 . S
C1095 H1064 0.929 . S
C1095 C1080 1.437 . S
C1095 C1096 1.317 . S
C1096 H1067 0.930 . S
C1096 C1072 1.431 . S
C1096 C1095 1.317 . S
C1097 Gd1038 2.828 . S
C1097 O1082 1.258 . S
C1097 O1087 1.252 . S
C1097 C1098 1.497 . S
C1098 C1097 1.497 . S
C1098 C1099 1.395 . S
C1098 C1100 1.380 . S
C1099 C1098 1.395 . S
C1099 C1102 1.398 . S
C1099 H1114 0.930 . S
C1100 C1098 1.380 . S
C1100 C1101 1.391 . S
C1100 H1115 0.930 . S
C1101 C1100 1.391 . S
C1101 C1103 1.387 . S
C1102 C1099 1.398 . S
C1102 C1103 1.380 . S
C1102 H1116 0.930 . S
C1103 C1101 1.387 . S
C1103 C1102 1.380 . S
C1103 H1117 0.930 . S
C1104 O1084 1.254 . S
C1104 O1085 1.268 . S
C1105 O1089 1.284 . S
C1105 O1092 1.250 . S
C1106 Gd1039 2.828 . S
C1106 O1088 1.258 . S
C1106 O1093 1.252 . S
C1106 C1107 1.497 . S
C1107 C1106 1.497 . S
C1107 C1108 1.395 . S
C1107 C1109 1.380 . S
C1108 C1107 1.395 . S
C1108 C1111 1.398 . S
C1108 H1118 0.930 . S
C1109 C1107 1.380 . S
C1109 C1110 1.391 . S
C1109 H1119 0.930 . S
C1110 C1109 1.391 . S
C1110 C1112 1.387 . S
C1111 C1108 1.398 . S
C1111 C1112 1.380 . S
C1111 H1120 0.930 . S
C1112 C1110 1.387 . S
C1112 C1111 1.380 . S
C1112 H1121 0.930 . S
C1113 O1090 1.254 . S
C1113 O1091 1.268 . S
H1114 C1099 0.930 . S
H1115 C1100 0.930 . S
H1116 C1102 0.930 . S
H1117 C1103 0.930 . S
H1118 C1108 0.930 . S
H1119 C1109 0.930 . S
H1120 C1111 0.930 . S
H1121 C1112 0.930 . S
Gd1122 N1153 2.661 . S
Gd1122 N1159 2.601 . S
Gd1122 O1166 2.545 . S
Gd1122 O1167 2.606 . S
Gd1122 O1169 2.429 . S
Gd1122 O1170 2.545 . S
Gd1122 O1171 2.412 . S
Gd1122 O1173 2.362 . S
Gd1122 O1174 2.324 . S
Gd1122 C1181 2.828 . S
Gd1123 N1132 2.661 . S
Gd1123 N1136 2.601 . S
Gd1123 O1167 2.362 . S
Gd1123 O1168 2.324 . S
Gd1123 O1172 2.545 . S
Gd1123 O1173 2.606 . S
Gd1123 O1175 2.429 . S
Gd1123 O1176 2.545 . S
Gd1123 O1177 2.412 . S
Gd1123 C1190 2.828 . S
C1124 C1127 1.417 . S
C1124 C1129 1.431 . S
C1124 C1130 1.412 . S
C1125 C1128 1.437 . S
C1125 C1129 1.317 . S
C1125 H1144 0.929 . S
C1126 C1127 1.426 . S
C1126 C1128 1.413 . S
C1126 N1136 1.359 . S
C1127 C1124 1.417 . S
C1127 C1126 1.426 . S
C1127 N1132 1.350 . S
C1128 C1125 1.437 . S
C1128 C1126 1.413 . S
C1128 C1138 1.391 . S
C1129 C1124 1.431 . S
C1129 C1125 1.317 . S
C1129 H1140 0.930 . S
C1130 C1124 1.412 . S
C1130 C1131 1.355 . S
C1130 H1142 0.930 . S
C1131 C1130 1.355 . S
C1131 C1133 1.402 . S
C1131 H1143 0.930 . S
N1132 Gd1123 2.661 . S
N1132 C1127 1.350 . S
N1132 C1133 1.307 . S
C1133 C1131 1.402 . S
C1133 N1132 1.307 . S
C1133 H1134 0.930 . S
H1134 C1133 0.930 . S
C1135 N1136 1.334 . S
C1135 C1137 1.394 . S
C1135 H1139 0.930 . S
N1136 Gd1123 2.601 . S
N1136 C1126 1.359 . S
N1136 C1135 1.334 . S
C1137 C1135 1.394 . S
C1137 C1138 1.359 . S
C1137 H1149 0.930 . S
C1138 C1128 1.391 . S
C1138 C1137 1.359 . S
C1138 H1150 0.929 . S
H1139 C1135 0.930 . S
H1140 C1129 0.930 . S
H1141 C1158 0.930 . S
H1142 C1130 0.930 . S
H1143 C1131 0.930 . S
H1144 C1125 0.929 . S
H1145 C1163 0.930 . S
H1146 C1154 0.930 . S
H1147 C1155 0.930 . S
H1148 C1179 0.929 . S
H1149 C1137 0.930 . S
H1150 C1138 0.929 . S
H1151 C1180 0.930 . S
H1152 C1161 0.930 . S
N1153 Gd1122 2.661 . S
N1153 C1157 1.350 . S
N1153 C1158 1.307 . S
C1154 H1146 0.930 . S
C1154 C1155 1.355 . S
C1154 C1156 1.412 . S
C1155 H1147 0.930 . S
C1155 C1154 1.355 . S
C1155 C1158 1.402 . S
C1156 C1154 1.412 . S
C1156 C1157 1.417 . S
C1156 C1180 1.431 . S
C1157 N1153 1.350 . S
C1157 C1156 1.417 . S
C1157 C1160 1.426 . S
C1158 H1141 0.930 . S
C1158 N1153 1.307 . S
C1158 C1155 1.402 . S
N1159 Gd1122 2.601 . S
N1159 C1160 1.359 . S
N1159 C1163 1.334 . S
C1160 C1157 1.426 . S
C1160 N1159 1.359 . S
C1160 C1164 1.413 . S
C1161 H1152 0.930 . S
C1161 C1162 1.359 . S
C1161 C1163 1.394 . S
C1162 C1161 1.359 . S
C1162 C1164 1.391 . S
C1162 H1165 0.929 . S
C1163 H1145 0.930 . S
C1163 N1159 1.334 . S
C1163 C1161 1.394 . S
C1164 C1160 1.413 . S
C1164 C1162 1.391 . S
C1164 C1179 1.437 . S
H1165 C1162 0.929 . S
O1166 Gd1122 2.545 . S
O1166 C1181 1.258 . S
O1167 Gd1122 2.606 . S
O1167 Gd1123 2.362 . S
O1167 C1178 1.284 . S
O1168 Gd1123 2.324 . S
O1168 C1188 1.254 . S
O1169 Gd1122 2.429 . S
O1169 C1188 1.268 . S
O1170 Gd1122 2.545 . S
O1170 C1178 1.250 . S
O1171 Gd1122 2.412 . S
O1171 C1181 1.252 . S
O1172 Gd1123 2.545 . S
O1172 C1190 1.258 . S
O1173 Gd1122 2.362 . S
O1173 Gd1123 2.606 . S
O1173 C1189 1.284 . S
O1174 Gd1122 2.324 . S
O1174 C1197 1.254 . S
O1175 Gd1123 2.429 . S
O1175 C1197 1.268 . S
O1176 Gd1123 2.545 . S
O1176 C1189 1.250 . S
O1177 Gd1123 2.412 . S
O1177 C1190 1.252 . S
C1178 O1167 1.284 . S
C1178 O1170 1.250 . S
C1179 H1148 0.929 . S
C1179 C1164 1.437 . S
C1179 C1180 1.317 . S
C1180 H1151 0.930 . S
C1180 C1156 1.431 . S
C1180 C1179 1.317 . S
C1181 Gd1122 2.828 . S
C1181 O1166 1.258 . S
C1181 O1171 1.252 . S
C1181 C1182 1.497 . S
C1182 C1181 1.497 . S
C1182 C1183 1.395 . S
C1182 C1184 1.380 . S
C1183 C1182 1.395 . S
C1183 C1186 1.398 . S
C1183 H1198 0.930 . S
C1184 C1182 1.380 . S
C1184 C1185 1.391 . S
C1184 H1199 0.930 . S
C1185 C1184 1.391 . S
C1185 C1187 1.387 . S
C1186 C1183 1.398 . S
C1186 C1187 1.380 . S
C1186 H1200 0.930 . S
C1187 C1185 1.387 . S
C1187 C1186 1.380 . S
C1187 H1201 0.930 . S
C1188 O1168 1.254 . S
C1188 O1169 1.268 . S
C1189 O1173 1.284 . S
C1189 O1176 1.250 . S
C1190 Gd1123 2.828 . S
C1190 O1172 1.258 . S
C1190 O1177 1.252 . S
C1190 C1191 1.497 . S
C1191 C1190 1.497 . S
C1191 C1192 1.395 . S
C1191 C1193 1.380 . S
C1192 C1191 1.395 . S
C1192 C1195 1.398 . S
C1192 H1202 0.930 . S
C1193 C1191 1.380 . S
C1193 C1194 1.391 . S
C1193 H1203 0.930 . S
C1194 C1193 1.391 . S
C1194 C1196 1.387 . S
C1195 C1192 1.398 . S
C1195 C1196 1.380 . S
C1195 H1204 0.930 . S
C1196 C1194 1.387 . S
C1196 C1195 1.380 . S
C1196 H1205 0.930 . S
C1197 O1174 1.254 . S
C1197 O1175 1.268 . S
H1198 C1183 0.930 . S
H1199 C1184 0.930 . S
H1200 C1186 0.930 . S
H1201 C1187 0.930 . S
H1202 C1192 0.930 . S
H1203 C1193 0.930 . S
H1204 C1195 0.930 . S
H1205 C1196 0.930 . S
Gd1206 N1237 2.661 . S
Gd1206 N1243 2.601 . S
Gd1206 O1250 2.545 . S
Gd1206 O1251 2.606 . S
Gd1206 O1253 2.429 . S
Gd1206 O1254 2.545 . S
Gd1206 O1255 2.412 . S
Gd1206 O1257 2.362 . S
Gd1206 O1258 2.324 . S
Gd1206 C1265 2.828 . S
Gd1207 N1216 2.661 . S
Gd1207 N1220 2.601 . S
Gd1207 O1251 2.362 . S
Gd1207 O1252 2.324 . S
Gd1207 O1256 2.545 . S
Gd1207 O1257 2.606 . S
Gd1207 O1259 2.429 . S
Gd1207 O1260 2.545 . S
Gd1207 O1261 2.412 . S
Gd1207 C1274 2.828 . S
C1208 C1211 1.417 . S
C1208 C1213 1.431 . S
C1208 C1214 1.412 . S
C1209 C1212 1.437 . S
C1209 C1213 1.317 . S
C1209 H1228 0.929 . S
C1210 C1211 1.426 . S
C1210 C1212 1.413 . S
C1210 N1220 1.359 . S
C1211 C1208 1.417 . S
C1211 C1210 1.426 . S
C1211 N1216 1.350 . S
C1212 C1209 1.437 . S
C1212 C1210 1.413 . S
C1212 C1222 1.391 . S
C1213 C1208 1.431 . S
C1213 C1209 1.317 . S
C1213 H1224 0.930 . S
C1214 C1208 1.412 . S
C1214 C1215 1.355 . S
C1214 H1226 0.930 . S
C1215 C1214 1.355 . S
C1215 C1217 1.402 . S
C1215 H1227 0.930 . S
N1216 Gd1207 2.661 . S
N1216 C1211 1.350 . S
N1216 C1217 1.307 . S
C1217 C1215 1.402 . S
C1217 N1216 1.307 . S
C1217 H1218 0.930 . S
H1218 C1217 0.930 . S
C1219 N1220 1.334 . S
C1219 C1221 1.394 . S
C1219 H1223 0.930 . S
N1220 Gd1207 2.601 . S
N1220 C1210 1.359 . S
N1220 C1219 1.334 . S
C1221 C1219 1.394 . S
C1221 C1222 1.359 . S
C1221 H1233 0.930 . S
C1222 C1212 1.391 . S
C1222 C1221 1.359 . S
C1222 H1234 0.929 . S
H1223 C1219 0.930 . S
H1224 C1213 0.930 . S
H1225 C1242 0.930 . S
H1226 C1214 0.930 . S
H1227 C1215 0.930 . S
H1228 C1209 0.929 . S
H1229 C1247 0.930 . S
H1230 C1238 0.930 . S
H1231 C1239 0.930 . S
H1232 C1263 0.929 . S
H1233 C1221 0.930 . S
H1234 C1222 0.929 . S
H1235 C1264 0.930 . S
H1236 C1245 0.930 . S
N1237 Gd1206 2.661 . S
N1237 C1241 1.350 . S
N1237 C1242 1.307 . S
C1238 H1230 0.930 . S
C1238 C1239 1.355 . S
C1238 C1240 1.412 . S
C1239 H1231 0.930 . S
C1239 C1238 1.355 . S
C1239 C1242 1.402 . S
C1240 C1238 1.412 . S
C1240 C1241 1.417 . S
C1240 C1264 1.431 . S
C1241 N1237 1.350 . S
C1241 C1240 1.417 . S
C1241 C1244 1.426 . S
C1242 H1225 0.930 . S
C1242 N1237 1.307 . S
C1242 C1239 1.402 . S
N1243 Gd1206 2.601 . S
N1243 C1244 1.359 . S
N1243 C1247 1.334 . S
C1244 C1241 1.426 . S
C1244 N1243 1.359 . S
C1244 C1248 1.413 . S
C1245 H1236 0.930 . S
C1245 C1246 1.359 . S
C1245 C1247 1.394 . S
C1246 C1245 1.359 . S
C1246 C1248 1.391 . S
C1246 H1249 0.929 . S
C1247 H1229 0.930 . S
C1247 N1243 1.334 . S
C1247 C1245 1.394 . S
C1248 C1244 1.413 . S
C1248 C1246 1.391 . S
C1248 C1263 1.437 . S
H1249 C1246 0.929 . S
O1250 Gd1206 2.545 . S
O1250 C1265 1.258 . S
O1251 Gd1206 2.606 . S
O1251 Gd1207 2.362 . S
O1251 C1262 1.284 . S
O1252 Gd1207 2.324 . S
O1252 C1272 1.254 . S
O1253 Gd1206 2.429 . S
O1253 C1272 1.268 . S
O1254 Gd1206 2.545 . S
O1254 C1262 1.250 . S
O1255 Gd1206 2.412 . S
O1255 C1265 1.252 . S
O1256 Gd1207 2.545 . S
O1256 C1274 1.258 . S
O1257 Gd1206 2.362 . S
O1257 Gd1207 2.606 . S
O1257 C1273 1.284 . S
O1258 Gd1206 2.324 . S
O1258 C1281 1.254 . S
O1259 Gd1207 2.429 . S
O1259 C1281 1.268 . S
O1260 Gd1207 2.545 . S
O1260 C1273 1.250 . S
O1261 Gd1207 2.412 . S
O1261 C1274 1.252 . S
C1262 O1251 1.284 . S
C1262 O1254 1.250 . S
C1263 H1232 0.929 . S
C1263 C1248 1.437 . S
C1263 C1264 1.317 . S
C1264 H1235 0.930 . S
C1264 C1240 1.431 . S
C1264 C1263 1.317 . S
C1265 Gd1206 2.828 . S
C1265 O1250 1.258 . S
C1265 O1255 1.252 . S
C1265 C1266 1.497 . S
C1266 C1265 1.497 . S
C1266 C1267 1.395 . S
C1266 C1268 1.380 . S
C1267 C1266 1.395 . S
C1267 C1270 1.398 . S
C1267 H1282 0.930 . S
C1268 C1266 1.380 . S
C1268 C1269 1.391 . S
C1268 H1283 0.930 . S
C1269 C1268 1.391 . S
C1269 C1271 1.387 . S
C1270 C1267 1.398 . S
C1270 C1271 1.380 . S
C1270 H1284 0.930 . S
C1271 C1269 1.387 . S
C1271 C1270 1.380 . S
C1271 H1285 0.930 . S
C1272 O1252 1.254 . S
C1272 O1253 1.268 . S
C1273 O1257 1.284 . S
C1273 O1260 1.250 . S
C1274 Gd1207 2.828 . S
C1274 O1256 1.258 . S
C1274 O1261 1.252 . S
C1274 C1275 1.497 . S
C1275 C1274 1.497 . S
C1275 C1276 1.395 . S
C1275 C1277 1.380 . S
C1276 C1275 1.395 . S
C1276 C1279 1.398 . S
C1276 H1286 0.930 . S
C1277 C1275 1.380 . S
C1277 C1278 1.391 . S
C1277 H1287 0.930 . S
C1278 C1277 1.391 . S
C1278 C1280 1.387 . S
C1279 C1276 1.398 . S
C1279 C1280 1.380 . S
C1279 H1288 0.930 . S
C1280 C1278 1.387 . S
C1280 C1279 1.380 . S
C1280 H1289 0.930 . S
C1281 O1258 1.254 . S
C1281 O1259 1.268 . S
H1282 C1267 0.930 . S
H1283 C1268 0.930 . S
H1284 C1270 0.930 . S
H1285 C1271 0.930 . S
H1286 C1276 0.930 . S
H1287 C1277 0.930 . S
H1288 C1279 0.930 . S
H1289 C1280 0.930 . S
Gd1290 N1321 2.661 . S
Gd1290 N1327 2.601 . S
Gd1290 O1334 2.545 . S
Gd1290 O1335 2.606 . S
Gd1290 O1337 2.429 . S
Gd1290 O1338 2.545 . S
Gd1290 O1339 2.412 . S
Gd1290 O1341 2.362 . S
Gd1290 O1342 2.324 . S
Gd1290 C1349 2.828 . S
Gd1291 N1300 2.661 . S
Gd1291 N1304 2.601 . S
Gd1291 O1335 2.362 . S
Gd1291 O1336 2.324 . S
Gd1291 O1340 2.545 . S
Gd1291 O1341 2.606 . S
Gd1291 O1343 2.429 . S
Gd1291 O1344 2.545 . S
Gd1291 O1345 2.412 . S
Gd1291 C1358 2.828 . S
C1292 C1295 1.417 . S
C1292 C1297 1.431 . S
C1292 C1298 1.412 . S
C1293 C1296 1.437 . S
C1293 C1297 1.317 . S
C1293 H1312 0.929 . S
C1294 C1295 1.426 . S
C1294 C1296 1.413 . S
C1294 N1304 1.359 . S
C1295 C1292 1.417 . S
C1295 C1294 1.426 . S
C1295 N1300 1.350 . S
C1296 C1293 1.437 . S
C1296 C1294 1.413 . S
C1296 C1306 1.391 . S
C1297 C1292 1.431 . S
C1297 C1293 1.317 . S
C1297 H1308 0.930 . S
C1298 C1292 1.412 . S
C1298 C1299 1.355 . S
C1298 H1310 0.930 . S
C1299 C1298 1.355 . S
C1299 C1301 1.402 . S
C1299 H1311 0.930 . S
N1300 Gd1291 2.661 . S
N1300 C1295 1.350 . S
N1300 C1301 1.307 . S
C1301 C1299 1.402 . S
C1301 N1300 1.307 . S
C1301 H1302 0.930 . S
H1302 C1301 0.930 . S
C1303 N1304 1.334 . S
C1303 C1305 1.394 . S
C1303 H1307 0.930 . S
N1304 Gd1291 2.601 . S
N1304 C1294 1.359 . S
N1304 C1303 1.334 . S
C1305 C1303 1.394 . S
C1305 C1306 1.359 . S
C1305 H1317 0.930 . S
C1306 C1296 1.391 . S
C1306 C1305 1.359 . S
C1306 H1318 0.929 . S
H1307 C1303 0.930 . S
H1308 C1297 0.930 . S
H1309 C1326 0.930 . S
H1310 C1298 0.930 . S
H1311 C1299 0.930 . S
H1312 C1293 0.929 . S
H1313 C1331 0.930 . S
H1314 C1322 0.930 . S
H1315 C1323 0.930 . S
H1316 C1347 0.929 . S
H1317 C1305 0.930 . S
H1318 C1306 0.929 . S
H1319 C1348 0.930 . S
H1320 C1329 0.930 . S
N1321 Gd1290 2.661 . S
N1321 C1325 1.350 . S
N1321 C1326 1.307 . S
C1322 H1314 0.930 . S
C1322 C1323 1.355 . S
C1322 C1324 1.412 . S
C1323 H1315 0.930 . S
C1323 C1322 1.355 . S
C1323 C1326 1.402 . S
C1324 C1322 1.412 . S
C1324 C1325 1.417 . S
C1324 C1348 1.431 . S
C1325 N1321 1.350 . S
C1325 C1324 1.417 . S
C1325 C1328 1.426 . S
C1326 H1309 0.930 . S
C1326 N1321 1.307 . S
C1326 C1323 1.402 . S
N1327 Gd1290 2.601 . S
N1327 C1328 1.359 . S
N1327 C1331 1.334 . S
C1328 C1325 1.426 . S
C1328 N1327 1.359 . S
C1328 C1332 1.413 . S
C1329 H1320 0.930 . S
C1329 C1330 1.359 . S
C1329 C1331 1.394 . S
C1330 C1329 1.359 . S
C1330 C1332 1.391 . S
C1330 H1333 0.929 . S
C1331 H1313 0.930 . S
C1331 N1327 1.334 . S
C1331 C1329 1.394 . S
C1332 C1328 1.413 . S
C1332 C1330 1.391 . S
C1332 C1347 1.437 . S
H1333 C1330 0.929 . S
O1334 Gd1290 2.545 . S
O1334 C1349 1.258 . S
O1335 Gd1290 2.606 . S
O1335 Gd1291 2.362 . S
O1335 C1346 1.284 . S
O1336 Gd1291 2.324 . S
O1336 C1356 1.254 . S
O1337 Gd1290 2.429 . S
O1337 C1356 1.268 . S
O1338 Gd1290 2.545 . S
O1338 C1346 1.250 . S
O1339 Gd1290 2.412 . S
O1339 C1349 1.252 . S
O1340 Gd1291 2.545 . S
O1340 C1358 1.258 . S
O1341 Gd1290 2.362 . S
O1341 Gd1291 2.606 . S
O1341 C1357 1.284 . S
O1342 Gd1290 2.324 . S
O1342 C1365 1.254 . S
O1343 Gd1291 2.429 . S
O1343 C1365 1.268 . S
O1344 Gd1291 2.545 . S
O1344 C1357 1.250 . S
O1345 Gd1291 2.412 . S
O1345 C1358 1.252 . S
C1346 O1335 1.284 . S
C1346 O1338 1.250 . S
C1347 H1316 0.929 . S
C1347 C1332 1.437 . S
C1347 C1348 1.317 . S
C1348 H1319 0.930 . S
C1348 C1324 1.431 . S
C1348 C1347 1.317 . S
C1349 Gd1290 2.828 . S
C1349 O1334 1.258 . S
C1349 O1339 1.252 . S
C1349 C1350 1.497 . S
C1350 C1349 1.497 . S
C1350 C1351 1.395 . S
C1350 C1352 1.380 . S
C1351 C1350 1.395 . S
C1351 C1354 1.398 . S
C1351 H1366 0.930 . S
C1352 C1350 1.380 . S
C1352 C1353 1.391 . S
C1352 H1367 0.930 . S
C1353 C1352 1.391 . S
C1353 C1355 1.387 . S
C1354 C1351 1.398 . S
C1354 C1355 1.380 . S
C1354 H1368 0.930 . S
C1355 C1353 1.387 . S
C1355 C1354 1.380 . S
C1355 H1369 0.930 . S
C1356 O1336 1.254 . S
C1356 O1337 1.268 . S
C1357 O1341 1.284 . S
C1357 O1344 1.250 . S
C1358 Gd1291 2.828 . S
C1358 O1340 1.258 . S
C1358 O1345 1.252 . S
C1358 C1359 1.497 . S
C1359 C1358 1.497 . S
C1359 C1360 1.395 . S
C1359 C1361 1.380 . S
C1360 C1359 1.395 . S
C1360 C1363 1.398 . S
C1360 H1370 0.930 . S
C1361 C1359 1.380 . S
C1361 C1362 1.391 . S
C1361 H1371 0.930 . S
C1362 C1361 1.391 . S
C1362 C1364 1.387 . S
C1363 C1360 1.398 . S
C1363 C1364 1.380 . S
C1363 H1372 0.930 . S
C1364 C1362 1.387 . S
C1364 C1363 1.380 . S
C1364 H1373 0.930 . S
C1365 O1342 1.254 . S
C1365 O1343 1.268 . S
H1366 C1351 0.930 . S
H1367 C1352 0.930 . S
H1368 C1354 0.930 . S
H1369 C1355 0.930 . S
H1370 C1360 0.930 . S
H1371 C1361 0.930 . S
H1372 C1363 0.930 . S
H1373 C1364 0.930 . S
Gd1374 N1405 2.661 . S
Gd1374 N1411 2.601 . S
Gd1374 O1418 2.545 . S
Gd1374 O1419 2.606 . S
Gd1374 O1421 2.429 . S
Gd1374 O1422 2.545 . S
Gd1374 O1423 2.412 . S
Gd1374 O1425 2.362 . S
Gd1374 O1426 2.324 . S
Gd1374 C1433 2.828 . S
Gd1375 N1384 2.661 . S
Gd1375 N1388 2.601 . S
Gd1375 O1419 2.362 . S
Gd1375 O1420 2.324 . S
Gd1375 O1424 2.545 . S
Gd1375 O1425 2.606 . S
Gd1375 O1427 2.429 . S
Gd1375 O1428 2.545 . S
Gd1375 O1429 2.412 . S
Gd1375 C1442 2.828 . S
C1376 C1379 1.417 . S
C1376 C1381 1.431 . S
C1376 C1382 1.412 . S
C1377 C1380 1.437 . S
C1377 C1381 1.317 . S
C1377 H1396 0.929 . S
C1378 C1379 1.426 . S
C1378 C1380 1.413 . S
C1378 N1388 1.359 . S
C1379 C1376 1.417 . S
C1379 C1378 1.426 . S
C1379 N1384 1.350 . S
C1380 C1377 1.437 . S
C1380 C1378 1.413 . S
C1380 C1390 1.391 . S
C1381 C1376 1.431 . S
C1381 C1377 1.317 . S
C1381 H1392 0.930 . S
C1382 C1376 1.412 . S
C1382 C1383 1.355 . S
C1382 H1394 0.930 . S
C1383 C1382 1.355 . S
C1383 C1385 1.402 . S
C1383 H1395 0.930 . S
N1384 Gd1375 2.661 . S
N1384 C1379 1.350 . S
N1384 C1385 1.307 . S
C1385 C1383 1.402 . S
C1385 N1384 1.307 . S
C1385 H1386 0.930 . S
H1386 C1385 0.930 . S
C1387 N1388 1.334 . S
C1387 C1389 1.394 . S
C1387 H1391 0.930 . S
N1388 Gd1375 2.601 . S
N1388 C1378 1.359 . S
N1388 C1387 1.334 . S
C1389 C1387 1.394 . S
C1389 C1390 1.359 . S
C1389 H1401 0.930 . S
C1390 C1380 1.391 . S
C1390 C1389 1.359 . S
C1390 H1402 0.929 . S
H1391 C1387 0.930 . S
H1392 C1381 0.930 . S
H1393 C1410 0.930 . S
H1394 C1382 0.930 . S
H1395 C1383 0.930 . S
H1396 C1377 0.929 . S
H1397 C1415 0.930 . S
H1398 C1406 0.930 . S
H1399 C1407 0.930 . S
H1400 C1431 0.929 . S
H1401 C1389 0.930 . S
H1402 C1390 0.929 . S
H1403 C1432 0.930 . S
H1404 C1413 0.930 . S
N1405 Gd1374 2.661 . S
N1405 C1409 1.350 . S
N1405 C1410 1.307 . S
C1406 H1398 0.930 . S
C1406 C1407 1.355 . S
C1406 C1408 1.412 . S
C1407 H1399 0.930 . S
C1407 C1406 1.355 . S
C1407 C1410 1.402 . S
C1408 C1406 1.412 . S
C1408 C1409 1.417 . S
C1408 C1432 1.431 . S
C1409 N1405 1.350 . S
C1409 C1408 1.417 . S
C1409 C1412 1.426 . S
C1410 H1393 0.930 . S
C1410 N1405 1.307 . S
C1410 C1407 1.402 . S
N1411 Gd1374 2.601 . S
N1411 C1412 1.359 . S
N1411 C1415 1.334 . S
C1412 C1409 1.426 . S
C1412 N1411 1.359 . S
C1412 C1416 1.413 . S
C1413 H1404 0.930 . S
C1413 C1414 1.359 . S
C1413 C1415 1.394 . S
C1414 C1413 1.359 . S
C1414 C1416 1.391 . S
C1414 H1417 0.929 . S
C1415 H1397 0.930 . S
C1415 N1411 1.334 . S
C1415 C1413 1.394 . S
C1416 C1412 1.413 . S
C1416 C1414 1.391 . S
C1416 C1431 1.437 . S
H1417 C1414 0.929 . S
O1418 Gd1374 2.545 . S
O1418 C1433 1.258 . S
O1419 Gd1374 2.606 . S
O1419 Gd1375 2.362 . S
O1419 C1430 1.284 . S
O1420 Gd1375 2.324 . S
O1420 C1440 1.254 . S
O1421 Gd1374 2.429 . S
O1421 C1440 1.268 . S
O1422 Gd1374 2.545 . S
O1422 C1430 1.250 . S
O1423 Gd1374 2.412 . S
O1423 C1433 1.252 . S
O1424 Gd1375 2.545 . S
O1424 C1442 1.258 . S
O1425 Gd1374 2.362 . S
O1425 Gd1375 2.606 . S
O1425 C1441 1.284 . S
O1426 Gd1374 2.324 . S
O1426 C1449 1.254 . S
O1427 Gd1375 2.429 . S
O1427 C1449 1.268 . S
O1428 Gd1375 2.545 . S
O1428 C1441 1.250 . S
O1429 Gd1375 2.412 . S
O1429 C1442 1.252 . S
C1430 O1419 1.284 . S
C1430 O1422 1.250 . S
C1431 H1400 0.929 . S
C1431 C1416 1.437 . S
C1431 C1432 1.317 . S
C1432 H1403 0.930 . S
C1432 C1408 1.431 . S
C1432 C1431 1.317 . S
C1433 Gd1374 2.828 . S
C1433 O1418 1.258 . S
C1433 O1423 1.252 . S
C1433 C1434 1.497 . S
C1434 C1433 1.497 . S
C1434 C1435 1.395 . S
C1434 C1436 1.380 . S
C1435 C1434 1.395 . S
C1435 C1438 1.398 . S
C1435 H1450 0.930 . S
C1436 C1434 1.380 . S
C1436 C1437 1.391 . S
C1436 H1451 0.930 . S
C1437 C1436 1.391 . S
C1437 C1439 1.387 . S
C1438 C1435 1.398 . S
C1438 C1439 1.380 . S
C1438 H1452 0.930 . S
C1439 C1437 1.387 . S
C1439 C1438 1.380 . S
C1439 H1453 0.930 . S
C1440 O1420 1.254 . S
C1440 O1421 1.268 . S
C1441 O1425 1.284 . S
C1441 O1428 1.250 . S
C1442 Gd1375 2.828 . S
C1442 O1424 1.258 . S
C1442 O1429 1.252 . S
C1442 C1443 1.497 . S
C1443 C1442 1.497 . S
C1443 C1444 1.395 . S
C1443 C1445 1.380 . S
C1444 C1443 1.395 . S
C1444 C1447 1.398 . S
C1444 H1454 0.930 . S
C1445 C1443 1.380 . S
C1445 C1446 1.391 . S
C1445 H1455 0.930 . S
C1446 C1445 1.391 . S
C1446 C1448 1.387 . S
C1447 C1444 1.398 . S
C1447 C1448 1.380 . S
C1447 H1456 0.930 . S
C1448 C1446 1.387 . S
C1448 C1447 1.380 . S
C1448 H1457 0.930 . S
C1449 O1426 1.254 . S
C1449 O1427 1.268 . S
H1450 C1435 0.930 . S
H1451 C1436 0.930 . S
H1452 C1438 0.930 . S
H1453 C1439 0.930 . S
H1454 C1444 0.930 . S
H1455 C1445 0.930 . S
H1456 C1447 0.930 . S
H1457 C1448 0.930 . S
H1458 C1466 0.950 . S
H1459 C1471 0.950 . S
H1460 C1468 0.950 . S
H1461 C1470 0.950 . S
H1462 C1472 0.950 . S
H1463 C1474 0.950 . S
H1464 C1476 0.950 . S
H1465 C1477 0.950 . S
C1466 H1458 0.950 . S
C1466 C1467 1.386 . S
C1466 C1468 1.391 . S
C1467 C1466 1.386 . S
C1467 C1471 1.393 . S
C1468 H1460 0.950 . S
C1468 C1466 1.391 . S
C1468 C1469 1.400 . S
C1469 C1468 1.400 . S
C1469 C1470 1.398 . S
C1469 C1475 1.491 . S
C1470 H1461 0.950 . S
C1470 C1469 1.398 . S
C1470 C1471 1.391 . S
C1471 H1459 0.950 . S
C1471 C1467 1.393 . S
C1471 C1470 1.391 . S
C1472 H1462 0.950 . S
C1472 C1473 1.386 . S
C1472 C1474 1.391 . S
C1473 C1472 1.386 . S
C1473 C1477 1.393 . S
C1474 H1463 0.950 . S
C1474 C1472 1.391 . S
C1474 C1475 1.400 . S
C1475 C1469 1.491 . S
C1475 C1474 1.400 . S
C1475 C1476 1.398 . S
C1476 H1464 0.950 . S
C1476 C1475 1.398 . S
C1476 C1477 1.391 . S
C1477 H1465 0.950 . S
C1477 C1473 1.393 . S
C1477 C1476 1.391 . S
H1478 C1486 0.950 . S
H1479 C1491 0.950 . S
H1480 C1488 0.950 . S
H1481 C1490 0.950 . S
H1482 C1492 0.950 . S
H1483 C1494 0.950 . S
H1484 C1496 0.950 . S
H1485 C1497 0.950 . S
C1486 H1478 0.950 . S
C1486 C1487 1.386 . S
C1486 C1488 1.391 . S
C1487 C1486 1.386 . S
C1487 C1491 1.393 . S
C1488 H1480 0.950 . S
C1488 C1486 1.391 . S
C1488 C1489 1.400 . S
C1489 C1488 1.400 . S
C1489 C1490 1.398 . S
C1489 C1495 1.491 . S
C1490 H1481 0.950 . S
C1490 C1489 1.398 . S
C1490 C1491 1.391 . S
C1491 H1479 0.950 . S
C1491 C1487 1.393 . S
C1491 C1490 1.391 . S
C1492 H1482 0.950 . S
C1492 C1493 1.386 . S
C1492 C1494 1.391 . S
C1493 C1492 1.386 . S
C1493 C1497 1.393 . S
C1494 H1483 0.950 . S
C1494 C1492 1.391 . S
C1494 C1495 1.400 . S
C1495 C1489 1.491 . S
C1495 C1494 1.400 . S
C1495 C1496 1.398 . S
C1496 H1484 0.950 . S
C1496 C1495 1.398 . S
C1496 C1497 1.391 . S
C1497 H1485 0.950 . S
C1497 C1493 1.393 . S
C1497 C1496 1.391 . S
H1498 C1506 0.950 . S
H1499 C1511 0.950 . S
H1500 C1508 0.950 . S
H1501 C1510 0.950 . S
H1502 C1512 0.950 . S
H1503 C1514 0.950 . S
H1504 C1516 0.950 . S
H1505 C1517 0.950 . S
C1506 H1498 0.950 . S
C1506 C1507 1.386 . S
C1506 C1508 1.391 . S
C1507 C1506 1.386 . S
C1507 C1511 1.393 . S
C1508 H1500 0.950 . S
C1508 C1506 1.391 . S
C1508 C1509 1.400 . S
C1509 C1508 1.400 . S
C1509 C1510 1.398 . S
C1509 C1515 1.491 . S
C1510 H1501 0.950 . S
C1510 C1509 1.398 . S
C1510 C1511 1.391 . S
C1511 H1499 0.950 . S
C1511 C1507 1.393 . S
C1511 C1510 1.391 . S
C1512 H1502 0.950 . S
C1512 C1513 1.386 . S
C1512 C1514 1.391 . S
C1513 C1512 1.386 . S
C1513 C1517 1.393 . S
C1514 H1503 0.950 . S
C1514 C1512 1.391 . S
C1514 C1515 1.400 . S
C1515 C1509 1.491 . S
C1515 C1514 1.400 . S
C1515 C1516 1.398 . S
C1516 H1504 0.950 . S
C1516 C1515 1.398 . S
C1516 C1517 1.391 . S
C1517 H1505 0.950 . S
C1517 C1513 1.393 . S
C1517 C1516 1.391 . S
H1518 C1526 0.950 . S
H1519 C1531 0.950 . S
H1520 C1528 0.950 . S
H1521 C1530 0.950 . S
H1522 C1532 0.950 . S
H1523 C1534 0.950 . S
H1524 C1536 0.950 . S
H1525 C1537 0.950 1_554 S
C1526 H1518 0.950 . S
C1526 C1527 1.386 . S
C1526 C1528 1.391 . S
C1527 C1526 1.386 . S
C1527 C1531 1.393 . S
C1528 H1520 0.950 . S
C1528 C1526 1.391 . S
C1528 C1529 1.400 . S
C1529 C1528 1.400 . S
C1529 C1530 1.398 . S
C1529 C1535 1.491 . S
C1530 H1521 0.950 . S
C1530 C1529 1.398 . S
C1530 C1531 1.391 . S
C1531 H1519 0.950 . S
C1531 C1527 1.393 . S
C1531 C1530 1.391 . S
C1532 H1522 0.950 . S
C1532 C1533 1.386 . S
C1532 C1534 1.391 . S
C1533 C1532 1.386 . S
C1533 C1537 1.393 . S
C1534 H1523 0.950 . S
C1534 C1532 1.391 . S
C1534 C1535 1.400 . S
C1535 C1529 1.491 . S
C1535 C1534 1.400 . S
C1535 C1536 1.398 . S
C1536 H1524 0.950 . S
C1536 C1535 1.398 . S
C1536 C1537 1.391 . S
C1537 H1525 0.950 1_556 S
C1537 C1533 1.393 . S
C1537 C1536 1.391 . S
H1538 C1546 0.950 . S
H1539 C1551 0.950 . S
H1540 C1548 0.950 . S
H1541 C1550 0.950 . S
H1542 C1552 0.950 . S
H1543 C1554 0.950 . S
H1544 C1556 0.950 . S
H1545 C1557 0.950 . S
C1546 H1538 0.950 . S
C1546 C1547 1.386 . S
C1546 C1548 1.391 . S
C1547 C1546 1.386 . S
C1547 C1551 1.393 . S
C1548 H1540 0.950 . S
C1548 C1546 1.391 . S
C1548 C1549 1.400 . S
C1549 C1548 1.400 . S
C1549 C1550 1.398 . S
C1549 C1555 1.491 . S
C1550 H1541 0.950 . S
C1550 C1549 1.398 . S
C1550 C1551 1.391 . S
C1551 H1539 0.950 . S
C1551 C1547 1.393 . S
C1551 C1550 1.391 . S
C1552 H1542 0.950 . S
C1552 C1553 1.386 . S
C1552 C1554 1.391 . S
C1553 C1552 1.386 . S
C1553 C1557 1.393 . S
C1554 H1543 0.950 . S
C1554 C1552 1.391 . S
C1554 C1555 1.400 . S
C1555 C1549 1.491 . S
C1555 C1554 1.400 . S
C1555 C1556 1.398 . S
C1556 H1544 0.950 . S
C1556 C1555 1.398 . S
C1556 C1557 1.391 . S
C1557 H1545 0.950 . S
C1557 C1553 1.393 . S
C1557 C1556 1.391 . S
H1558 C1566 0.950 . S
H1559 C1571 0.950 . S
H1560 C1568 0.950 . S
H1561 C1570 0.950 . S
H1562 C1572 0.950 . S
H1563 C1574 0.950 . S
H1564 C1576 0.950 . S
H1565 C1577 0.950 . S
C1566 H1558 0.950 . S
C1566 C1567 1.386 . S
C1566 C1568 1.391 . S
C1567 C1566 1.386 . S
C1567 C1571 1.393 . S
C1568 H1560 0.950 . S
C1568 C1566 1.391 . S
C1568 C1569 1.400 . S
C1569 C1568 1.400 . S
C1569 C1570 1.398 . S
C1569 C1575 1.491 . S
C1570 H1561 0.950 . S
C1570 C1569 1.398 . S
C1570 C1571 1.391 . S
C1571 H1559 0.950 . S
C1571 C1567 1.393 . S
C1571 C1570 1.391 . S
C1572 H1562 0.950 . S
C1572 C1573 1.386 . S
C1572 C1574 1.391 . S
C1573 C1572 1.386 . S
C1573 C1577 1.393 . S
C1574 H1563 0.950 . S
C1574 C1572 1.391 . S
C1574 C1575 1.400 . S
C1575 C1569 1.491 . S
C1575 C1574 1.400 . S
C1575 C1576 1.398 . S
C1576 H1564 0.950 . S
C1576 C1575 1.398 . S
C1576 C1577 1.391 . S
C1577 H1565 0.950 . S
C1577 C1573 1.393 . S
C1577 C1576 1.391 . S
H1578 C1586 0.950 . S
H1579 C1591 0.950 . S
H1580 C1588 0.950 . S
H1581 C1590 0.950 . S
H1582 C1592 0.950 . S
H1583 C1594 0.950 . S
H1584 C1596 0.950 . S
H1585 C1597 0.950 1_554 S
C1586 H1578 0.950 . S
C1586 C1587 1.386 . S
C1586 C1588 1.391 . S
C1587 C1586 1.386 . S
C1587 C1591 1.393 . S
C1588 H1580 0.950 . S
C1588 C1586 1.391 . S
C1588 C1589 1.400 . S
C1589 C1588 1.400 . S
C1589 C1590 1.398 . S
C1589 C1595 1.491 . S
C1590 H1581 0.950 . S
C1590 C1589 1.398 . S
C1590 C1591 1.391 . S
C1591 H1579 0.950 . S
C1591 C1587 1.393 . S
C1591 C1590 1.391 . S
C1592 H1582 0.950 . S
C1592 C1593 1.386 . S
C1592 C1594 1.391 . S
C1593 C1592 1.386 . S
C1593 C1597 1.393 . S
C1594 H1583 0.950 . S
C1594 C1592 1.391 . S
C1594 C1595 1.400 . S
C1595 C1589 1.491 . S
C1595 C1594 1.400 . S
C1595 C1596 1.398 . S
C1596 H1584 0.950 . S
C1596 C1595 1.398 . S
C1596 C1597 1.391 . S
C1597 H1585 0.950 1_556 S
C1597 C1593 1.393 . S
C1597 C1596 1.391 . S
H1598 C1606 0.950 . S
H1599 C1611 0.950 . S
H1600 C1608 0.950 . S
H1601 C1610 0.950 . S
H1602 C1612 0.950 1_554 S
H1603 C1614 0.950 . S
H1604 C1616 0.950 . S
H1605 C1617 0.950 . S
C1606 H1598 0.950 . S
C1606 C1607 1.386 . S
C1606 C1608 1.391 . S
C1607 C1606 1.386 . S
C1607 C1611 1.393 . S
C1608 H1600 0.950 . S
C1608 C1606 1.391 . S
C1608 C1609 1.400 . S
C1609 C1608 1.400 . S
C1609 C1610 1.398 . S
C1609 C1615 1.491 . S
C1610 H1601 0.950 . S
C1610 C1609 1.398 . S
C1610 C1611 1.391 . S
C1611 H1599 0.950 . S
C1611 C1607 1.393 . S
C1611 C1610 1.391 . S
C1612 H1602 0.950 1_556 S
C1612 C1613 1.386 . S
C1612 C1614 1.391 . S
C1613 C1612 1.386 . S
C1613 C1617 1.393 . S
C1614 H1603 0.950 . S
C1614 C1612 1.391 . S
C1614 C1615 1.400 . S
C1615 C1609 1.491 . S
C1615 C1614 1.400 . S
C1615 C1616 1.398 . S
C1616 H1604 0.950 . S
C1616 C1615 1.398 . S
C1616 C1617 1.391 . S
C1617 H1605 0.950 . S
C1617 C1613 1.393 . S
C1617 C1616 1.391 . S
H1618 C1626 0.950 . S
H1619 C1631 0.950 . S
H1620 C1628 0.950 . S
H1621 C1630 0.950 . S
H1622 C1632 0.950 1_554 S
H1623 C1634 0.950 . S
H1624 C1636 0.950 . S
H1625 C1637 0.950 . S
C1626 H1618 0.950 . S
C1626 C1627 1.386 . S
C1626 C1628 1.391 . S
C1627 C1626 1.386 . S
C1627 C1631 1.393 . S
C1628 H1620 0.950 . S
C1628 C1626 1.391 . S
C1628 C1629 1.400 . S
C1629 C1628 1.400 . S
C1629 C1630 1.398 . S
C1629 C1635 1.491 . S
C1630 H1621 0.950 . S
C1630 C1629 1.398 . S
C1630 C1631 1.391 . S
C1631 H1619 0.950 . S
C1631 C1627 1.393 . S
C1631 C1630 1.391 . S
C1632 H1622 0.950 1_556 S
C1632 C1633 1.386 . S
C1632 C1634 1.391 . S
C1633 C1632 1.386 . S
C1633 C1637 1.393 . S
C1634 H1623 0.950 . S
C1634 C1632 1.391 . S
C1634 C1635 1.400 . S
C1635 C1629 1.491 . S
C1635 C1634 1.400 . S
C1635 C1636 1.398 . S
C1636 H1624 0.950 . S
C1636 C1635 1.398 . S
C1636 C1637 1.391 . S
C1637 H1625 0.950 . S
C1637 C1633 1.393 . S
C1637 C1636 1.391 . S
H1638 C1646 0.950 . S
H1639 C1651 0.950 . S
H1640 C1648 0.950 . S
H1641 C1650 0.950 . S
H1642 C1652 0.950 . S
H1643 C1654 0.950 . S
H1644 C1656 0.950 . S
H1645 C1657 0.950 . S
C1646 H1638 0.950 . S
C1646 C1647 1.386 . S
C1646 C1648 1.391 . S
C1647 C1646 1.386 . S
C1647 C1651 1.393 . S
C1648 H1640 0.950 . S
C1648 C1646 1.391 . S
C1648 C1649 1.400 . S
C1649 C1648 1.400 . S
C1649 C1650 1.398 . S
C1649 C1655 1.491 . S
C1650 H1641 0.950 . S
C1650 C1649 1.398 . S
C1650 C1651 1.391 . S
C1651 H1639 0.950 . S
C1651 C1647 1.393 . S
C1651 C1650 1.391 . S
C1652 H1642 0.950 . S
C1652 C1653 1.386 . S
C1652 C1654 1.391 . S
C1653 C1652 1.386 . S
C1653 C1657 1.393 . S
C1654 H1643 0.950 . S
C1654 C1652 1.391 . S
C1654 C1655 1.400 . S
C1655 C1649 1.491 . S
C1655 C1654 1.400 . S
C1655 C1656 1.398 . S
C1656 H1644 0.950 . S
C1656 C1655 1.398 . S
C1656 C1657 1.391 . S
C1657 H1645 0.950 . S
C1657 C1653 1.393 . S
C1657 C1656 1.391 . S
H1658 C1666 0.950 . S
H1659 C1671 0.950 . S
H1660 C1668 0.950 . S
H1661 C1670 0.950 . S
H1662 C1672 0.950 . S
H1663 C1674 0.950 . S
H1664 C1676 0.950 . S
H1665 C1677 0.950 . S
C1666 H1658 0.950 . S
C1666 C1667 1.386 . S
C1666 C1668 1.391 . S
C1667 C1666 1.386 . S
C1667 C1671 1.393 . S
C1668 H1660 0.950 . S
C1668 C1666 1.391 . S
C1668 C1669 1.400 . S
C1669 C1668 1.400 . S
C1669 C1670 1.398 . S
C1669 C1675 1.491 . S
C1670 H1661 0.950 . S
C1670 C1669 1.398 . S
C1670 C1671 1.391 . S
C1671 H1659 0.950 . S
C1671 C1667 1.393 . S
C1671 C1670 1.391 . S
C1672 H1662 0.950 . S
C1672 C1673 1.386 . S
C1672 C1674 1.391 . S
C1673 C1672 1.386 . S
C1673 C1677 1.393 . S
C1674 H1663 0.950 . S
C1674 C1672 1.391 . S
C1674 C1675 1.400 . S
C1675 C1669 1.491 . S
C1675 C1674 1.400 . S
C1675 C1676 1.398 . S
C1676 H1664 0.950 . S
C1676 C1675 1.398 . S
C1676 C1677 1.391 . S
C1677 H1665 0.950 . S
C1677 C1673 1.393 . S
C1677 C1676 1.391 . S
H1678 C1686 0.950 . S
H1679 C1691 0.950 . S
H1680 C1688 0.950 . S
H1681 C1690 0.950 . S
H1682 C1692 0.950 . S
H1683 C1694 0.950 . S
H1684 C1696 0.950 . S
H1685 C1697 0.950 . S
C1686 H1678 0.950 . S
C1686 C1687 1.386 . S
C1686 C1688 1.391 . S
C1687 C1686 1.386 . S
C1687 C1691 1.393 . S
C1688 H1680 0.950 . S
C1688 C1686 1.391 . S
C1688 C1689 1.400 . S
C1689 C1688 1.400 . S
C1689 C1690 1.398 . S
C1689 C1695 1.491 . S
C1690 H1681 0.950 . S
C1690 C1689 1.398 . S
C1690 C1691 1.391 . S
C1691 H1679 0.950 . S
C1691 C1687 1.393 . S
C1691 C1690 1.391 . S
C1692 H1682 0.950 . S
C1692 C1693 1.386 . S
C1692 C1694 1.391 . S
C1693 C1692 1.386 . S
C1693 C1697 1.393 . S
C1694 H1683 0.950 . S
C1694 C1692 1.391 . S
C1694 C1695 1.400 . S
C1695 C1689 1.491 . S
C1695 C1694 1.400 . S
C1695 C1696 1.398 . S
C1696 H1684 0.950 . S
C1696 C1695 1.398 . S
C1696 C1697 1.391 . S
C1697 H1685 0.950 . S
C1697 C1693 1.393 . S
C1697 C1696 1.391 . S
H1698 C1706 0.950 . S
H1699 C1711 0.950 . S
H1700 C1708 0.950 . S
H1701 C1710 0.950 . S
H1702 C1712 0.950 . S
H1703 C1714 0.950 . S
H1704 C1716 0.950 . S
H1705 C1717 0.950 . S
C1706 H1698 0.950 . S
C1706 C1707 1.386 1_455 S
C1706 C1708 1.391 . S
C1707 C1706 1.386 1_655 S
C1707 C1711 1.393 . S
C1708 H1700 0.950 . S
C1708 C1706 1.391 . S
C1708 C1709 1.400 . S
C1709 C1708 1.400 . S
C1709 C1710 1.398 . S
C1709 C1715 1.491 . S
C1710 H1701 0.950 . S
C1710 C1709 1.398 . S
C1710 C1711 1.391 1_455 S
C1711 H1699 0.950 . S
C1711 C1707 1.393 . S
C1711 C1710 1.391 1_655 S
C1712 H1702 0.950 . S
C1712 C1713 1.386 . S
C1712 C1714 1.391 . S
C1713 C1712 1.386 . S
C1713 C1717 1.393 . S
C1714 H1703 0.950 . S
C1714 C1712 1.391 . S
C1714 C1715 1.400 . S
C1715 C1709 1.491 . S
C1715 C1714 1.400 . S
C1715 C1716 1.398 . S
C1716 H1704 0.950 . S
C1716 C1715 1.398 . S
C1716 C1717 1.391 . S
C1717 H1705 0.950 . S
C1717 C1713 1.393 . S
C1717 C1716 1.391 . S
H1718 C1726 0.950 . S
H1719 C1731 0.950 . S
H1720 C1728 0.950 . S
H1721 C1730 0.950 . S
H1722 C1732 0.950 . S
H1723 C1734 0.950 . S
H1724 C1736 0.950 . S
H1725 C1737 0.950 . S
C1726 H1718 0.950 . S
C1726 C1727 1.386 . S
C1726 C1728 1.391 . S
C1727 C1726 1.386 . S
C1727 C1731 1.393 . S
C1728 H1720 0.950 . S
C1728 C1726 1.391 . S
C1728 C1729 1.400 . S
C1729 C1728 1.400 . S
C1729 C1730 1.398 . S
C1729 C1735 1.491 . S
C1730 H1721 0.950 . S
C1730 C1729 1.398 . S
C1730 C1731 1.391 . S
C1731 H1719 0.950 . S
C1731 C1727 1.393 . S
C1731 C1730 1.391 . S
C1732 H1722 0.950 . S
C1732 C1733 1.386 . S
C1732 C1734 1.391 . S
C1733 C1732 1.386 . S
C1733 C1737 1.393 . S
C1734 H1723 0.950 . S
C1734 C1732 1.391 . S
C1734 C1735 1.400 . S
C1735 C1729 1.491 . S
C1735 C1734 1.400 . S
C1735 C1736 1.398 . S
C1736 H1724 0.950 . S
C1736 C1735 1.398 . S
C1736 C1737 1.391 . S
C1737 H1725 0.950 . S
C1737 C1733 1.393 . S
C1737 C1736 1.391 . S
H1738 C1746 0.950 . S
H1739 C1751 0.950 . S
H1740 C1748 0.950 . S
H1741 C1750 0.950 . S
H1742 C1752 0.950 . S
H1743 C1754 0.950 . S
H1744 C1756 0.950 . S
H1745 C1757 0.950 . S
C1746 H1738 0.950 . S
C1746 C1747 1.386 . S
C1746 C1748 1.391 1_545 S
C1747 C1746 1.386 . S
C1747 C1751 1.393 . S
C1748 H1740 0.950 . S
C1748 C1746 1.391 1_565 S
C1748 C1749 1.400 . S
C1749 C1748 1.400 . S
C1749 C1750 1.398 . S
C1749 C1755 1.491 . S
C1750 H1741 0.950 . S
C1750 C1749 1.398 . S
C1750 C1751 1.391 1_565 S
C1751 H1739 0.950 . S
C1751 C1747 1.393 . S
C1751 C1750 1.391 1_545 S
C1752 H1742 0.950 . S
C1752 C1753 1.386 . S
C1752 C1754 1.391 . S
C1753 C1752 1.386 . S
C1753 C1757 1.393 . S
C1754 H1743 0.950 . S
C1754 C1752 1.391 . S
C1754 C1755 1.400 . S
C1755 C1749 1.491 . S
C1755 C1754 1.400 . S
C1755 C1756 1.398 . S
C1756 H1744 0.950 . S
C1756 C1755 1.398 . S
C1756 C1757 1.391 . S
C1757 H1745 0.950 . S
C1757 C1753 1.393 . S
C1757 C1756 1.391 . S
H1758 C1766 0.950 . S
H1759 C1771 0.950 . S
H1760 C1768 0.950 . S
H1761 C1770 0.950 . S
H1762 C1772 0.950 . S
H1763 C1774 0.950 . S
H1764 C1776 0.950 . S
H1765 C1777 0.950 . S
C1766 H1758 0.950 . S
C1766 C1767 1.386 . S
C1766 C1768 1.391 . S
C1767 C1766 1.386 . S
C1767 C1771 1.393 . S
C1768 H1760 0.950 . S
C1768 C1766 1.391 . S
C1768 C1769 1.400 . S
C1769 C1768 1.400 . S
C1769 C1770 1.398 . S
C1769 C1775 1.491 . S
C1770 H1761 0.950 . S
C1770 C1769 1.398 . S
C1770 C1771 1.391 . S
C1771 H1759 0.950 . S
C1771 C1767 1.393 . S
C1771 C1770 1.391 . S
C1772 H1762 0.950 . S
C1772 C1773 1.386 . S
C1772 C1774 1.391 . S
C1773 C1772 1.386 . S
C1773 C1777 1.393 . S
C1774 H1763 0.950 . S
C1774 C1772 1.391 . S
C1774 C1775 1.400 . S
C1775 C1769 1.491 . S
C1775 C1774 1.400 . S
C1775 C1776 1.398 . S
C1776 H1764 0.950 . S
C1776 C1775 1.398 . S
C1776 C1777 1.391 . S
C1777 H1765 0.950 . S
C1777 C1773 1.393 . S
C1777 C1776 1.391 . S
H1778 C1786 0.950 . S
H1779 C1791 0.950 . S
H1780 C1788 0.950 . S
H1781 C1790 0.950 . S
H1782 C1792 0.950 . S
H1783 C1794 0.950 . S
H1784 C1796 0.950 . S
H1785 C1797 0.950 . S
C1786 H1778 0.950 . S
C1786 C1787 1.386 . S
C1786 C1788 1.391 . S
C1787 C1786 1.386 . S
C1787 C1791 1.393 . S
C1788 H1780 0.950 . S
C1788 C1786 1.391 . S
C1788 C1789 1.400 . S
C1789 C1788 1.400 . S
C1789 C1790 1.398 . S
C1789 C1795 1.491 . S
C1790 H1781 0.950 . S
C1790 C1789 1.398 . S
C1790 C1791 1.391 . S
C1791 H1779 0.950 . S
C1791 C1787 1.393 . S
C1791 C1790 1.391 . S
C1792 H1782 0.950 . S
C1792 C1793 1.386 . S
C1792 C1794 1.391 . S
C1793 C1792 1.386 . S
C1793 C1797 1.393 . S
C1794 H1783 0.950 . S
C1794 C1792 1.391 . S
C1794 C1795 1.400 . S
C1795 C1789 1.491 . S
C1795 C1794 1.400 . S
C1795 C1796 1.398 . S
C1796 H1784 0.950 . S
C1796 C1795 1.398 . S
C1796 C1797 1.391 . S
C1797 H1785 0.950 . S
C1797 C1793 1.393 . S
C1797 C1796 1.391 . S
H1798 C1806 0.950 . S
H1799 C1811 0.950 . S
H1800 C1808 0.950 . S
H1801 C1810 0.950 . S
H1802 C1812 0.950 . S
H1803 C1814 0.950 . S
H1804 C1816 0.950 . S
H1805 C1817 0.950 . S
C1806 H1798 0.950 . S
C1806 C1807 1.386 . S
C1806 C1808 1.391 . S
C1807 C1806 1.386 . S
C1807 C1811 1.393 . S
C1808 H1800 0.950 . S
C1808 C1806 1.391 . S
C1808 C1809 1.400 . S
C1809 C1808 1.400 . S
C1809 C1810 1.398 . S
C1809 C1815 1.491 . S
C1810 H1801 0.950 . S
C1810 C1809 1.398 . S
C1810 C1811 1.391 . S
C1811 H1799 0.950 . S
C1811 C1807 1.393 . S
C1811 C1810 1.391 . S
C1812 H1802 0.950 . S
C1812 C1813 1.386 . S
C1812 C1814 1.391 . S
C1813 C1812 1.386 . S
C1813 C1817 1.393 . S
C1814 H1803 0.950 . S
C1814 C1812 1.391 . S
C1814 C1815 1.400 . S
C1815 C1809 1.491 . S
C1815 C1814 1.400 . S
C1815 C1816 1.398 . S
C1816 H1804 0.950 . S
C1816 C1815 1.398 . S
C1816 C1817 1.391 . S
C1817 H1805 0.950 . S
C1817 C1813 1.393 . S
C1817 C1816 1.391 . S
H1818 C1826 0.950 . S
H1819 C1831 0.950 . S
H1820 C1828 0.950 . S
H1821 C1830 0.950 . S
H1822 C1832 0.950 . S
H1823 C1834 0.950 . S
H1824 C1836 0.950 . S
H1825 C1837 0.950 . S
C1826 H1818 0.950 . S
C1826 C1827 1.386 . S
C1826 C1828 1.391 . S
C1827 C1826 1.386 . S
C1827 C1831 1.393 . S
C1828 H1820 0.950 . S
C1828 C1826 1.391 . S
C1828 C1829 1.400 . S
C1829 C1828 1.400 . S
C1829 C1830 1.398 . S
C1829 C1835 1.491 . S
C1830 H1821 0.950 . S
C1830 C1829 1.398 . S
C1830 C1831 1.391 . S
C1831 H1819 0.950 . S
C1831 C1827 1.393 . S
C1831 C1830 1.391 . S
C1832 H1822 0.950 . S
C1832 C1833 1.386 . S
C1832 C1834 1.391 . S
C1833 C1832 1.386 . S
C1833 C1837 1.393 . S
C1834 H1823 0.950 . S
C1834 C1832 1.391 . S
C1834 C1835 1.400 . S
C1835 C1829 1.491 . S
C1835 C1834 1.400 . S
C1835 C1836 1.398 . S
C1836 H1824 0.950 . S
C1836 C1835 1.398 . S
C1836 C1837 1.391 . S
C1837 H1825 0.950 . S
C1837 C1833 1.393 . S
C1837 C1836 1.391 . S
H1838 C1846 0.950 . S
H1839 C1851 0.950 . S
H1840 C1848 0.950 . S
H1841 C1850 0.950 . S
H1842 C1852 0.950 . S
H1843 C1854 0.950 . S
H1844 C1856 0.950 . S
H1845 C1857 0.950 . S
C1846 H1838 0.950 . S
C1846 C1847 1.386 . S
C1846 C1848 1.391 . S
C1847 C1846 1.386 . S
C1847 C1851 1.393 . S
C1848 H1840 0.950 . S
C1848 C1846 1.391 . S
C1848 C1849 1.400 . S
C1849 C1848 1.400 . S
C1849 C1850 1.398 . S
C1849 C1855 1.491 . S
C1850 H1841 0.950 . S
C1850 C1849 1.398 . S
C1850 C1851 1.391 . S
C1851 H1839 0.950 . S
C1851 C1847 1.393 . S
C1851 C1850 1.391 . S
C1852 H1842 0.950 . S
C1852 C1853 1.386 . S
C1852 C1854 1.391 . S
C1853 C1852 1.386 . S
C1853 C1857 1.393 . S
C1854 H1843 0.950 . S
C1854 C1852 1.391 . S
C1854 C1855 1.400 . S
C1855 C1849 1.491 . S
C1855 C1854 1.400 . S
C1855 C1856 1.398 . S
C1856 H1844 0.950 . S
C1856 C1855 1.398 . S
C1856 C1857 1.391 . S
C1857 H1845 0.950 . S
C1857 C1853 1.393 . S
C1857 C1856 1.391 . S
H1858 C1866 0.950 . S
H1859 C1871 0.950 . S
H1860 C1868 0.950 . S
H1861 C1870 0.950 . S
H1862 C1872 0.950 . S
H1863 C1874 0.950 . S
H1864 C1876 0.950 . S
H1865 C1877 0.950 . S
C1866 H1858 0.950 . S
C1866 C1867 1.386 . S
C1866 C1868 1.391 . S
C1867 C1866 1.386 . S
C1867 C1871 1.393 . S
C1868 H1860 0.950 . S
C1868 C1866 1.391 . S
C1868 C1869 1.400 . S
C1869 C1868 1.400 . S
C1869 C1870 1.398 . S
C1869 C1875 1.491 . S
C1870 H1861 0.950 . S
C1870 C1869 1.398 . S
C1870 C1871 1.391 . S
C1871 H1859 0.950 . S
C1871 C1867 1.393 . S
C1871 C1870 1.391 . S
C1872 H1862 0.950 . S
C1872 C1873 1.386 . S
C1872 C1874 1.391 . S
C1873 C1872 1.386 . S
C1873 C1877 1.393 . S
C1874 H1863 0.950 . S
C1874 C1872 1.391 . S
C1874 C1875 1.400 . S
C1875 C1869 1.491 . S
C1875 C1874 1.400 . S
C1875 C1876 1.398 . S
C1876 H1864 0.950 . S
C1876 C1875 1.398 . S
C1876 C1877 1.391 . S
C1877 H1865 0.950 . S
C1877 C1873 1.393 . S
C1877 C1876 1.391 . S
H1878 C1886 0.950 . S
H1879 C1891 0.950 . S
H1880 C1888 0.950 . S
H1881 C1890 0.950 . S
H1882 C1892 0.950 . S
H1883 C1894 0.950 . S
H1884 C1896 0.950 . S
H1885 C1897 0.950 . S
C1886 H1878 0.950 . S
C1886 C1887 1.386 . S
C1886 C1888 1.391 1_545 S
C1887 C1886 1.386 . S
C1887 C1891 1.393 . S
C1888 H1880 0.950 . S
C1888 C1886 1.391 1_565 S
C1888 C1889 1.400 . S
C1889 C1888 1.400 . S
C1889 C1890 1.398 . S
C1889 C1895 1.491 . S
C1890 H1881 0.950 . S
C1890 C1889 1.398 . S
C1890 C1891 1.391 1_565 S
C1891 H1879 0.950 . S
C1891 C1887 1.393 . S
C1891 C1890 1.391 1_545 S
C1892 H1882 0.950 . S
C1892 C1893 1.386 . S
C1892 C1894 1.391 . S
C1893 C1892 1.386 . S
C1893 C1897 1.393 . S
C1894 H1883 0.950 . S
C1894 C1892 1.391 . S
C1894 C1895 1.400 . S
C1895 C1889 1.491 . S
C1895 C1894 1.400 . S
C1895 C1896 1.398 . S
C1896 H1884 0.950 . S
C1896 C1895 1.398 . S
C1896 C1897 1.391 . S
C1897 H1885 0.950 . S
C1897 C1893 1.393 . S
C1897 C1896 1.391 . S
H1898 C1906 0.950 . S
H1899 C1911 0.950 . S
H1900 C1908 0.950 . S
H1901 C1910 0.950 . S
H1902 C1912 0.950 . S
H1903 C1914 0.950 . S
H1904 C1916 0.950 . S
H1905 C1917 0.950 . S
C1906 H1898 0.950 . S
C1906 C1907 1.386 1_455 S
C1906 C1908 1.391 . S
C1907 C1906 1.386 1_655 S
C1907 C1911 1.393 . S
C1908 H1900 0.950 . S
C1908 C1906 1.391 . S
C1908 C1909 1.400 . S
C1909 C1908 1.400 . S
C1909 C1910 1.398 . S
C1909 C1915 1.491 . S
C1910 H1901 0.950 . S
C1910 C1909 1.398 . S
C1910 C1911 1.391 1_455 S
C1911 H1899 0.950 . S
C1911 C1907 1.393 . S
C1911 C1910 1.391 1_655 S
C1912 H1902 0.950 . S
C1912 C1913 1.386 . S
C1912 C1914 1.391 . S
C1913 C1912 1.386 . S
C1913 C1917 1.393 . S
C1914 H1903 0.950 . S
C1914 C1912 1.391 . S
C1914 C1915 1.400 . S
C1915 C1909 1.491 . S
C1915 C1914 1.400 . S
C1915 C1916 1.398 . S
C1916 H1904 0.950 . S
C1916 C1915 1.398 . S
C1916 C1917 1.391 . S
C1917 H1905 0.950 . S
C1917 C1913 1.393 . S
C1917 C1916 1.391 . S
H1918 C1926 0.950 . S
H1919 C1931 0.950 . S
H1920 C1928 0.950 . S
H1921 C1930 0.950 . S
H1922 C1932 0.950 . S
H1923 C1934 0.950 . S
H1924 C1936 0.950 . S
H1925 C1937 0.950 . S
C1926 H1918 0.950 . S
C1926 C1927 1.386 . S
C1926 C1928 1.391 . S
C1927 C1926 1.386 . S
C1927 C1931 1.393 . S
C1928 H1920 0.950 . S
C1928 C1926 1.391 . S
C1928 C1929 1.400 . S
C1929 C1928 1.400 . S
C1929 C1930 1.398 . S
C1929 C1935 1.491 . S
C1930 H1921 0.950 . S
C1930 C1929 1.398 . S
C1930 C1931 1.391 . S
C1931 H1919 0.950 . S
C1931 C1927 1.393 . S
C1931 C1930 1.391 . S
C1932 H1922 0.950 . S
C1932 C1933 1.386 . S
C1932 C1934 1.391 . S
C1933 C1932 1.386 . S
C1933 C1937 1.393 . S
C1934 H1923 0.950 . S
C1934 C1932 1.391 . S
C1934 C1935 1.400 . S
C1935 C1929 1.491 . S
C1935 C1934 1.400 . S
C1935 C1936 1.398 . S
C1936 H1924 0.950 . S
C1936 C1935 1.398 . S
C1936 C1937 1.391 . S
C1937 H1925 0.950 . S
C1937 C1933 1.393 . S
C1937 C1936 1.391 . S
H1938 C1946 0.950 . S
H1939 C1951 0.950 . S
H1940 C1948 0.950 . S
H1941 C1950 0.950 . S
H1942 C1952 0.950 . S
H1943 C1954 0.950 . S
H1944 C1956 0.950 . S
H1945 C1957 0.950 . S
C1946 H1938 0.950 . S
C1946 C1947 1.386 . S
C1946 C1948 1.391 . S
C1947 C1946 1.386 . S
C1947 C1951 1.393 . S
C1948 H1940 0.950 . S
C1948 C1946 1.391 . S
C1948 C1949 1.400 . S
C1949 C1948 1.400 . S
C1949 C1950 1.398 . S
C1949 C1955 1.491 . S
C1950 H1941 0.950 . S
C1950 C1949 1.398 . S
C1950 C1951 1.391 . S
C1951 H1939 0.950 . S
C1951 C1947 1.393 . S
C1951 C1950 1.391 . S
C1952 H1942 0.950 . S
C1952 C1953 1.386 . S
C1952 C1954 1.391 . S
C1953 C1952 1.386 . S
C1953 C1957 1.393 . S
C1954 H1943 0.950 . S
C1954 C1952 1.391 . S
C1954 C1955 1.400 . S
C1955 C1949 1.491 . S
C1955 C1954 1.400 . S
C1955 C1956 1.398 . S
C1956 H1944 0.950 . S
C1956 C1955 1.398 . S
C1956 C1957 1.391 . S
C1957 H1945 0.950 . S
C1957 C1953 1.393 . S
C1957 C1956 1.391 . S
H1958 C1966 0.950 . S
H1959 C1971 0.950 . S
H1960 C1968 0.950 . S
H1961 C1970 0.950 . S
H1962 C1972 0.950 . S
H1963 C1974 0.950 . S
H1964 C1976 0.950 . S
H1965 C1977 0.950 . S
C1966 H1958 0.950 . S
C1966 C1967 1.386 . S
C1966 C1968 1.391 . S
C1967 C1966 1.386 . S
C1967 C1971 1.393 . S
C1968 H1960 0.950 . S
C1968 C1966 1.391 . S
C1968 C1969 1.400 . S
C1969 C1968 1.400 . S
C1969 C1970 1.398 . S
C1969 C1975 1.491 . S
C1970 H1961 0.950 . S
C1970 C1969 1.398 . S
C1970 C1971 1.391 . S
C1971 H1959 0.950 . S
C1971 C1967 1.393 . S
C1971 C1970 1.391 . S
C1972 H1962 0.950 . S
C1972 C1973 1.386 . S
C1972 C1974 1.391 . S
C1973 C1972 1.386 . S
C1973 C1977 1.393 . S
C1974 H1963 0.950 . S
C1974 C1972 1.391 . S
C1974 C1975 1.400 . S
C1975 C1969 1.491 . S
C1975 C1974 1.400 . S
C1975 C1976 1.398 . S
C1976 H1964 0.950 . S
C1976 C1975 1.398 . S
C1976 C1977 1.391 . S
C1977 H1965 0.950 . S
C1977 C1973 1.393 . S
C1977 C1976 1.391 . S
H1978 C1986 0.950 . S
H1979 C1991 0.950 . S
H1980 C1988 0.950 . S
H1981 C1990 0.950 . S
H1982 C1992 0.950 . S
H1983 C1994 0.950 . S
H1984 C1996 0.950 . S
H1985 C1997 0.950 . S
C1986 H1978 0.950 . S
C1986 C1987 1.386 . S
C1986 C1988 1.391 . S
C1987 C1986 1.386 . S
C1987 C1991 1.393 . S
C1988 H1980 0.950 . S
C1988 C1986 1.391 . S
C1988 C1989 1.400 . S
C1989 C1988 1.400 . S
C1989 C1990 1.398 . S
C1989 C1995 1.491 . S
C1990 H1981 0.950 . S
C1990 C1989 1.398 . S
C1990 C1991 1.391 . S
C1991 H1979 0.950 . S
C1991 C1987 1.393 . S
C1991 C1990 1.391 . S
C1992 H1982 0.950 . S
C1992 C1993 1.386 . S
C1992 C1994 1.391 . S
C1993 C1992 1.386 . S
C1993 C1997 1.393 . S
C1994 H1983 0.950 . S
C1994 C1992 1.391 . S
C1994 C1995 1.400 . S
C1995 C1989 1.491 . S
C1995 C1994 1.400 . S
C1995 C1996 1.398 . S
C1996 H1984 0.950 . S
C1996 C1995 1.398 . S
C1996 C1997 1.391 . S
C1997 H1985 0.950 . S
C1997 C1993 1.393 . S
C1997 C1996 1.391 . S
H1998 C2006 0.950 . S
H1999 C2011 0.950 . S
H2000 C2008 0.950 . S
H2001 C2010 0.950 . S
H2002 C2012 0.950 . S
H2003 C2014 0.950 . S
H2004 C2016 0.950 . S
H2005 C2017 0.950 . S
C2006 H1998 0.950 . S
C2006 C2007 1.386 1_545 S
C2006 C2008 1.391 . S
C2007 C2006 1.386 1_565 S
C2007 C2011 1.393 . S
C2008 H2000 0.950 . S
C2008 C2006 1.391 . S
C2008 C2009 1.400 . S
C2009 C2008 1.400 . S
C2009 C2010 1.398 . S
C2009 C2015 1.491 . S
C2010 H2001 0.950 . S
C2010 C2009 1.398 . S
C2010 C2011 1.391 1_545 S
C2011 H1999 0.950 . S
C2011 C2007 1.393 . S
C2011 C2010 1.391 1_565 S
C2012 H2002 0.950 . S
C2012 C2013 1.386 . S
C2012 C2014 1.391 . S
C2013 C2012 1.386 . S
C2013 C2017 1.393 . S
C2014 H2003 0.950 . S
C2014 C2012 1.391 . S
C2014 C2015 1.400 . S
C2015 C2009 1.491 . S
C2015 C2014 1.400 . S
C2015 C2016 1.398 . S
C2016 H2004 0.950 . S
C2016 C2015 1.398 . S
C2016 C2017 1.391 . S
C2017 H2005 0.950 . S
C2017 C2013 1.393 . S
C2017 C2016 1.391 . S
H2018 C2026 0.950 . S
H2019 C2031 0.950 1_455 S
H2020 C2028 0.950 . S
H2021 C2030 0.950 . S
H2022 C2032 0.950 . S
H2023 C2034 0.950 . S
H2024 C2036 0.950 . S
H2025 C2037 0.950 . S
C2026 H2018 0.950 . S
C2026 C2027 1.386 . S
C2026 C2028 1.391 1_455 S
C2027 C2026 1.386 . S
C2027 C2031 1.393 1_455 S
C2028 H2020 0.950 . S
C2028 C2026 1.391 1_655 S
C2028 C2029 1.400 . S
C2029 C2028 1.400 . S
C2029 C2030 1.398 . S
C2029 C2035 1.491 . S
C2030 H2021 0.950 . S
C2030 C2029 1.398 . S
C2030 C2031 1.391 . S
C2031 H2019 0.950 1_655 S
C2031 C2027 1.393 1_655 S
C2031 C2030 1.391 . S
C2032 H2022 0.950 . S
C2032 C2033 1.386 . S
C2032 C2034 1.391 . S
C2033 C2032 1.386 . S
C2033 C2037 1.393 . S
C2034 H2023 0.950 . S
C2034 C2032 1.391 . S
C2034 C2035 1.400 . S
C2035 C2029 1.491 . S
C2035 C2034 1.400 . S
C2035 C2036 1.398 . S
C2036 H2024 0.950 . S
C2036 C2035 1.398 . S
C2036 C2037 1.391 . S
C2037 H2025 0.950 . S
C2037 C2033 1.393 . S
C2037 C2036 1.391 . S
H2038 C2046 0.950 . S
H2039 C2051 0.950 . S
H2040 C2048 0.950 . S
H2041 C2050 0.950 . S
H2042 C2052 0.950 . S
H2043 C2054 0.950 . S
H2044 C2056 0.950 . S
H2045 C2057 0.950 . S
C2046 H2038 0.950 . S
C2046 C2047 1.386 . S
C2046 C2048 1.391 . S
C2047 C2046 1.386 . S
C2047 C2051 1.393 . S
C2048 H2040 0.950 . S
C2048 C2046 1.391 . S
C2048 C2049 1.400 . S
C2049 C2048 1.400 . S
C2049 C2050 1.398 . S
C2049 C2055 1.491 . S
C2050 H2041 0.950 . S
C2050 C2049 1.398 . S
C2050 C2051 1.391 . S
C2051 H2039 0.950 . S
C2051 C2047 1.393 . S
C2051 C2050 1.391 . S
C2052 H2042 0.950 . S
C2052 C2053 1.386 . S
C2052 C2054 1.391 . S
C2053 C2052 1.386 . S
C2053 C2057 1.393 . S
C2054 H2043 0.950 . S
C2054 C2052 1.391 . S
C2054 C2055 1.400 . S
C2055 C2049 1.491 . S
C2055 C2054 1.400 . S
C2055 C2056 1.398 . S
C2056 H2044 0.950 . S
C2056 C2055 1.398 . S
C2056 C2057 1.391 . S
C2057 H2045 0.950 . S
C2057 C2053 1.393 . S
C2057 C2056 1.391 . S
H2058 C2066 0.950 . S
H2059 C2071 0.957 1_455 S
H2060 C2068 0.950 . S
H2061 C2070 0.950 . S
H2062 C2072 0.950 . S
H2063 C2074 0.950 . S
H2064 C2076 0.950 . S
H2065 C2077 0.950 . S
C2066 H2058 0.950 . S
C2066 C2067 1.386 . S
C2066 C2068 1.391 1_455 S
C2067 C2066 1.386 . S
C2067 C2071 1.348 1_455 S
C2068 H2060 0.950 . S
C2068 C2066 1.391 1_655 S
C2068 C2069 1.400 . S
C2069 C2068 1.400 . S
C2069 C2070 1.398 . S
C2069 C2075 1.491 . S
C2070 H2061 0.950 . S
C2070 C2069 1.398 . S
C2070 C2071 1.430 . S
C2071 H2059 0.957 1_655 S
C2071 C2067 1.348 1_655 S
C2071 C2070 1.430 . S
C2072 H2062 0.950 . S
C2072 C2073 1.386 . S
C2072 C2074 1.391 . S
C2073 C2072 1.386 . S
C2073 C2077 1.393 . S
C2074 H2063 0.950 . S
C2074 C2072 1.391 . S
C2074 C2075 1.400 . S
C2075 C2069 1.491 . S
C2075 C2074 1.400 . S
C2075 C2076 1.398 . S
C2076 H2064 0.950 . S
C2076 C2075 1.398 . S
C2076 C2077 1.391 . S
C2077 H2065 0.950 . S
C2077 C2073 1.393 . S
C2077 C2076 1.391 . S
H2078 C2086 0.950 . S
H2079 C2091 0.950 . S
H2080 C2088 0.950 . S
H2081 C2090 0.950 . S
H2082 C2092 0.950 . S
H2083 C2094 0.950 . S
H2084 C2096 0.950 . S
H2085 C2097 0.950 . S
C2086 H2078 0.950 . S
C2086 C2087 1.386 . S
C2086 C2088 1.391 . S
C2087 C2086 1.386 . S
C2087 C2091 1.393 . S
C2088 H2080 0.950 . S
C2088 C2086 1.391 . S
C2088 C2089 1.400 . S
C2089 C2088 1.400 . S
C2089 C2090 1.398 . S
C2089 C2095 1.491 . S
C2090 H2081 0.950 . S
C2090 C2089 1.398 . S
C2090 C2091 1.391 . S
C2091 H2079 0.950 . S
C2091 C2087 1.393 . S
C2091 C2090 1.391 . S
C2092 H2082 0.950 . S
C2092 C2093 1.386 . S
C2092 C2094 1.391 . S
C2093 C2092 1.386 . S
C2093 C2097 1.393 . S
C2094 H2083 0.950 . S
C2094 C2092 1.391 . S
C2094 C2095 1.400 . S
C2095 C2089 1.491 . S
C2095 C2094 1.400 . S
C2095 C2096 1.398 . S
C2096 H2084 0.950 . S
C2096 C2095 1.398 . S
C2096 C2097 1.391 . S
C2097 H2085 0.950 . S
C2097 C2093 1.393 . S
C2097 C2096 1.391 . S
H2098 C2106 0.950 1_565 S
H2099 C2111 0.950 . S
H2100 C2108 0.950 . S
H2101 C2110 0.950 . S
H2102 C2112 0.950 . S
H2103 C2114 0.950 . S
H2104 C2116 0.950 . S
H2105 C2117 0.950 . S
C2106 H2098 0.950 1_545 S
C2106 C2107 1.386 1_545 S
C2106 C2108 1.391 . S
C2107 C2106 1.386 1_565 S
C2107 C2111 1.393 . S
C2108 H2100 0.950 . S
C2108 C2106 1.391 . S
C2108 C2109 1.400 . S
C2109 C2108 1.400 . S
C2109 C2110 1.398 . S
C2109 C2115 1.491 . S
C2110 H2101 0.950 . S
C2110 C2109 1.398 . S
C2110 C2111 1.391 1_545 S
C2111 H2099 0.950 . S
C2111 C2107 1.393 . S
C2111 C2110 1.391 1_565 S
C2112 H2102 0.950 . S
C2112 C2113 1.386 . S
C2112 C2114 1.391 . S
C2113 C2112 1.386 . S
C2113 C2117 1.393 . S
C2114 H2103 0.950 . S
C2114 C2112 1.391 . S
C2114 C2115 1.400 . S
C2115 C2109 1.491 . S
C2115 C2114 1.400 . S
C2115 C2116 1.398 . S
C2116 H2104 0.950 . S
C2116 C2115 1.398 . S
C2116 C2117 1.391 . S
C2117 H2105 0.950 . S
C2117 C2113 1.393 . S
C2117 C2116 1.391 . S
H2118 C2126 0.950 . S
H2119 C2131 0.950 . S
H2120 C2128 0.950 . S
H2121 C2130 0.950 . S
H2122 C2132 0.950 . S
H2123 C2134 0.950 . S
H2124 C2136 0.950 . S
H2125 C2137 0.950 . S
C2126 H2118 0.950 . S
C2126 C2127 1.386 . S
C2126 C2128 1.391 . S
C2127 C2126 1.386 . S
C2127 C2131 1.393 . S
C2128 H2120 0.950 . S
C2128 C2126 1.391 . S
C2128 C2129 1.400 . S
C2129 C2128 1.400 . S
C2129 C2130 1.398 . S
C2129 C2135 1.491 . S
C2130 H2121 0.950 . S
C2130 C2129 1.398 . S
C2130 C2131 1.391 . S
C2131 H2119 0.950 . S
C2131 C2127 1.393 . S
C2131 C2130 1.391 . S
C2132 H2122 0.950 . S
C2132 C2133 1.386 . S
C2132 C2134 1.391 . S
C2133 C2132 1.386 . S
C2133 C2137 1.393 . S
C2134 H2123 0.950 . S
C2134 C2132 1.391 . S
C2134 C2135 1.400 . S
C2135 C2129 1.491 . S
C2135 C2134 1.400 . S
C2135 C2136 1.398 . S
C2136 H2124 0.950 . S
C2136 C2135 1.398 . S
C2136 C2137 1.391 . S
C2137 H2125 0.950 . S
C2137 C2133 1.393 . S
C2137 C2136 1.391 . S
H2138 C2146 0.950 . S
H2139 C2151 0.950 . S
H2140 C2148 0.950 . S
H2141 C2150 0.950 . S
H2142 C2152 0.950 . S
H2143 C2154 0.950 . S
H2144 C2156 0.950 . S
H2145 C2157 0.950 . S
C2146 H2138 0.950 . S
C2146 C2147 1.386 . S
C2146 C2148 1.391 . S
C2147 C2146 1.386 . S
C2147 C2151 1.393 . S
C2148 H2140 0.950 . S
C2148 C2146 1.391 . S
C2148 C2149 1.400 . S
C2149 C2148 1.400 . S
C2149 C2150 1.398 . S
C2149 C2155 1.491 . S
C2150 H2141 0.950 . S
C2150 C2149 1.398 . S
C2150 C2151 1.391 . S
C2151 H2139 0.950 . S
C2151 C2147 1.393 . S
C2151 C2150 1.391 . S
C2152 H2142 0.950 . S
C2152 C2153 1.386 . S
C2152 C2154 1.391 . S
C2153 C2152 1.386 . S
C2153 C2157 1.393 . S
C2154 H2143 0.950 . S
C2154 C2152 1.391 . S
C2154 C2155 1.400 . S
C2155 C2149 1.491 . S
C2155 C2154 1.400 . S
C2155 C2156 1.398 . S
C2156 H2144 0.950 . S
C2156 C2155 1.398 . S
C2156 C2157 1.391 . S
C2157 H2145 0.950 . S
C2157 C2153 1.393 . S
C2157 C2156 1.391 . S
H2158 C2166 0.950 . S
H2159 C2171 0.950 . S
H2160 C2168 0.950 . S
H2161 C2170 0.950 . S
H2162 C2172 0.950 . S
H2163 C2174 0.950 . S
H2164 C2176 0.950 . S
H2165 C2177 0.950 . S
C2166 H2158 0.950 . S
C2166 C2167 1.386 . S
C2166 C2168 1.391 . S
C2167 C2166 1.386 . S
C2167 C2171 1.393 . S
C2168 H2160 0.950 . S
C2168 C2166 1.391 . S
C2168 C2169 1.400 . S
C2169 C2168 1.400 . S
C2169 C2170 1.398 . S
C2169 C2175 1.491 . S
C2170 H2161 0.950 . S
C2170 C2169 1.398 . S
C2170 C2171 1.391 . S
C2171 H2159 0.950 . S
C2171 C2167 1.393 . S
C2171 C2170 1.391 . S
C2172 H2162 0.950 . S
C2172 C2173 1.386 . S
C2172 C2174 1.391 . S
C2173 C2172 1.386 . S
C2173 C2177 1.393 . S
C2174 H2163 0.950 . S
C2174 C2172 1.391 . S
C2174 C2175 1.400 . S
C2175 C2169 1.491 . S
C2175 C2174 1.400 . S
C2175 C2176 1.398 . S
C2176 H2164 0.950 . S
C2176 C2175 1.398 . S
C2176 C2177 1.391 . S
C2177 H2165 0.950 . S
C2177 C2173 1.393 . S
C2177 C2176 1.391 . S
H2178 C2186 0.950 . S
H2179 C2191 0.950 . S
H2180 C2188 0.950 . S
H2181 C2190 0.950 . S
H2182 C2192 0.950 . S
H2183 C2194 0.950 . S
H2184 C2196 0.950 . S
H2185 C2197 0.950 . S
C2186 H2178 0.950 . S
C2186 C2187 1.386 . S
C2186 C2188 1.391 . S
C2187 C2186 1.386 . S
C2187 C2191 1.393 . S
C2188 H2180 0.950 . S
C2188 C2186 1.391 . S
C2188 C2189 1.400 . S
C2189 C2188 1.400 . S
C2189 C2190 1.398 . S
C2189 C2195 1.491 . S
C2190 H2181 0.950 . S
C2190 C2189 1.398 . S
C2190 C2191 1.391 . S
C2191 H2179 0.950 . S
C2191 C2187 1.393 . S
C2191 C2190 1.391 . S
C2192 H2182 0.950 . S
C2192 C2193 1.386 . S
C2192 C2194 1.391 . S
C2193 C2192 1.386 . S
C2193 C2197 1.393 . S
C2194 H2183 0.950 . S
C2194 C2192 1.391 . S
C2194 C2195 1.400 . S
C2195 C2189 1.491 . S
C2195 C2194 1.400 . S
C2195 C2196 1.398 . S
C2196 H2184 0.950 . S
C2196 C2195 1.398 . S
C2196 C2197 1.391 . S
C2197 H2185 0.950 . S
C2197 C2193 1.393 . S
C2197 C2196 1.391 . S
H2198 C2206 0.950 . S
H2199 C2211 0.950 . S
H2200 C2208 0.950 . S
H2201 C2210 0.950 . S
H2202 C2212 0.950 . S
H2203 C2214 0.950 . S
H2204 C2216 0.950 . S
H2205 C2217 0.950 . S
C2206 H2198 0.950 . S
C2206 C2207 1.386 . S
C2206 C2208 1.391 . S
C2207 C2206 1.386 . S
C2207 C2211 1.393 . S
C2208 H2200 0.950 . S
C2208 C2206 1.391 . S
C2208 C2209 1.400 . S
C2209 C2208 1.400 . S
C2209 C2210 1.398 . S
C2209 C2215 1.491 . S
C2210 H2201 0.950 . S
C2210 C2209 1.398 . S
C2210 C2211 1.391 . S
C2211 H2199 0.950 . S
C2211 C2207 1.393 . S
C2211 C2210 1.391 . S
C2212 H2202 0.950 . S
C2212 C2213 1.386 . S
C2212 C2214 1.391 . S
C2213 C2212 1.386 . S
C2213 C2217 1.393 . S
C2214 H2203 0.950 . S
C2214 C2212 1.391 . S
C2214 C2215 1.400 . S
C2215 C2209 1.491 . S
C2215 C2214 1.400 . S
C2215 C2216 1.398 . S
C2216 H2204 0.950 . S
C2216 C2215 1.398 . S
C2216 C2217 1.391 . S
C2217 H2205 0.950 . S
C2217 C2213 1.393 . S
C2217 C2216 1.391 . S
H2218 C2226 0.950 . S
H2219 C2231 0.950 . S
H2220 C2228 0.950 . S
H2221 C2230 0.950 . S
H2222 C2232 0.950 . S
H2223 C2234 0.950 . S
H2224 C2236 0.950 . S
H2225 C2237 0.950 . S
C2226 H2218 0.950 . S
C2226 C2227 1.386 . S
C2226 C2228 1.391 . S
C2227 C2226 1.386 . S
C2227 C2231 1.393 . S
C2228 H2220 0.950 . S
C2228 C2226 1.391 . S
C2228 C2229 1.400 . S
C2229 C2228 1.400 . S
C2229 C2230 1.398 . S
C2229 C2235 1.491 . S
C2230 H2221 0.950 . S
C2230 C2229 1.398 . S
C2230 C2231 1.391 . S
C2231 H2219 0.950 . S
C2231 C2227 1.393 . S
C2231 C2230 1.391 . S
C2232 H2222 0.950 . S
C2232 C2233 1.386 . S
C2232 C2234 1.391 . S
C2233 C2232 1.386 . S
C2233 C2237 1.393 . S
C2234 H2223 0.950 . S
C2234 C2232 1.391 . S
C2234 C2235 1.400 . S
C2235 C2229 1.491 . S
C2235 C2234 1.400 . S
C2235 C2236 1.398 . S
C2236 H2224 0.950 . S
C2236 C2235 1.398 . S
C2236 C2237 1.391 . S
C2237 H2225 0.950 . S
C2237 C2233 1.393 . S
C2237 C2236 1.391 . S
H2238 C2246 0.950 . S
H2239 C2251 0.950 . S
H2240 C2248 0.950 . S
H2241 C2250 0.950 . S
H2242 C2252 0.950 . S
H2243 C2254 0.950 . S
H2244 C2256 0.950 . S
H2245 C2257 0.950 . S
C2246 H2238 0.950 . S
C2246 C2247 1.386 . S
C2246 C2248 1.391 . S
C2247 C2246 1.386 . S
C2247 C2251 1.393 . S
C2248 H2240 0.950 . S
C2248 C2246 1.391 . S
C2248 C2249 1.400 . S
C2249 C2248 1.400 . S
C2249 C2250 1.398 . S
C2249 C2255 1.491 . S
C2250 H2241 0.950 . S
C2250 C2249 1.398 . S
C2250 C2251 1.391 . S
C2251 H2239 0.950 . S
C2251 C2247 1.393 . S
C2251 C2250 1.391 . S
C2252 H2242 0.950 . S
C2252 C2253 1.386 . S
C2252 C2254 1.391 . S
C2253 C2252 1.386 . S
C2253 C2257 1.393 . S
C2254 H2243 0.950 . S
C2254 C2252 1.391 . S
C2254 C2255 1.400 . S
C2255 C2249 1.491 . S
C2255 C2254 1.400 . S
C2255 C2256 1.398 . S
C2256 H2244 0.950 . S
C2256 C2255 1.398 . S
C2256 C2257 1.391 . S
C2257 H2245 0.950 . S
C2257 C2253 1.393 . S
C2257 C2256 1.391 . S
H2258 C2266 0.950 . S
H2259 C2271 0.950 . S
H2260 C2268 0.950 . S
H2261 C2270 0.950 . S
H2262 C2272 0.950 . S
H2263 C2274 0.950 . S
H2264 C2276 0.950 . S
H2265 C2277 0.950 . S
C2266 H2258 0.950 . S
C2266 C2267 1.386 . S
C2266 C2268 1.391 . S
C2267 C2266 1.386 . S
C2267 C2271 1.393 . S
C2268 H2260 0.950 . S
C2268 C2266 1.391 . S
C2268 C2269 1.400 . S
C2269 C2268 1.400 . S
C2269 C2270 1.398 . S
C2269 C2275 1.491 . S
C2270 H2261 0.950 . S
C2270 C2269 1.398 . S
C2270 C2271 1.391 . S
C2271 H2259 0.950 . S
C2271 C2267 1.393 . S
C2271 C2270 1.391 . S
C2272 H2262 0.950 . S
C2272 C2273 1.386 . S
C2272 C2274 1.391 . S
C2273 C2272 1.386 . S
C2273 C2277 1.393 . S
C2274 H2263 0.950 . S
C2274 C2272 1.391 . S
C2274 C2275 1.400 . S
C2275 C2269 1.491 . S
C2275 C2274 1.400 . S
C2275 C2276 1.398 . S
C2276 H2264 0.950 . S
C2276 C2275 1.398 . S
C2276 C2277 1.391 . S
C2277 H2265 0.950 . S
C2277 C2273 1.393 . S
C2277 C2276 1.391 . S
H2278 C2286 0.950 . S
H2279 C2291 0.950 . S
H2280 C2288 0.950 . S
H2281 C2290 0.950 . S
H2282 C2292 0.950 1_565 S
H2283 C2294 0.950 . S
H2284 C2296 0.950 . S
H2285 C2297 0.950 . S
C2286 H2278 0.950 . S
C2286 C2287 1.386 . S
C2286 C2288 1.391 . S
C2287 C2286 1.386 . S
C2287 C2291 1.393 . S
C2288 H2280 0.950 . S
C2288 C2286 1.391 . S
C2288 C2289 1.400 . S
C2289 C2288 1.400 . S
C2289 C2290 1.398 . S
C2289 C2295 1.491 . S
C2290 H2281 0.950 . S
C2290 C2289 1.398 . S
C2290 C2291 1.391 . S
C2291 H2279 0.950 . S
C2291 C2287 1.393 . S
C2291 C2290 1.391 . S
C2292 H2282 0.950 1_545 S
C2292 C2293 1.386 . S
C2292 C2294 1.391 . S
C2293 C2292 1.386 . S
C2293 C2297 1.393 . S
C2294 H2283 0.950 . S
C2294 C2292 1.391 . S
C2294 C2295 1.400 . S
C2295 C2289 1.491 . S
C2295 C2294 1.400 . S
C2295 C2296 1.398 . S
C2296 H2284 0.950 . S
C2296 C2295 1.398 . S
C2296 C2297 1.391 . S
C2297 H2285 0.950 . S
C2297 C2293 1.393 . S
C2297 C2296 1.391 . S
H2298 C2306 0.950 . S
H2299 C2311 0.950 . S
H2300 C2308 0.950 . S
H2301 C2310 0.950 . S
H2302 C2312 0.950 . S
H2303 C2314 0.950 . S
H2304 C2316 0.950 . S
H2305 C2317 0.950 . S
C2306 H2298 0.950 . S
C2306 C2307 1.386 . S
C2306 C2308 1.391 . S
C2307 C2306 1.386 . S
C2307 C2311 1.393 . S
C2308 H2300 0.950 . S
C2308 C2306 1.391 . S
C2308 C2309 1.400 . S
C2309 C2308 1.400 . S
C2309 C2310 1.398 . S
C2309 C2315 1.491 . S
C2310 H2301 0.950 . S
C2310 C2309 1.398 . S
C2310 C2311 1.391 . S
C2311 H2299 0.950 . S
C2311 C2307 1.393 . S
C2311 C2310 1.391 . S
C2312 H2302 0.950 . S
C2312 C2313 1.386 . S
C2312 C2314 1.391 . S
C2313 C2312 1.386 . S
C2313 C2317 1.393 . S
C2314 H2303 0.950 . S
C2314 C2312 1.391 . S
C2314 C2315 1.400 . S
C2315 C2309 1.491 . S
C2315 C2314 1.400 . S
C2315 C2316 1.398 . S
C2316 H2304 0.950 . S
C2316 C2315 1.398 . S
C2316 C2317 1.391 . S
C2317 H2305 0.950 . S
C2317 C2313 1.393 . S
C2317 C2316 1.391 . S
H2318 C2326 0.950 . S
H2319 C2331 0.950 . S
H2320 C2328 0.950 . S
H2321 C2330 0.950 . S
H2322 C2332 0.950 . S
H2323 C2334 0.950 . S
H2324 C2336 0.950 . S
H2325 C2337 0.950 . S
C2326 H2318 0.950 . S
C2326 C2327 1.386 . S
C2326 C2328 1.391 . S
C2327 C2326 1.386 . S
C2327 C2331 1.393 . S
C2328 H2320 0.950 . S
C2328 C2326 1.391 . S
C2328 C2329 1.400 . S
C2329 C2328 1.400 . S
C2329 C2330 1.398 . S
C2329 C2335 1.491 . S
C2330 H2321 0.950 . S
C2330 C2329 1.398 . S
C2330 C2331 1.391 . S
C2331 H2319 0.950 . S
C2331 C2327 1.393 . S
C2331 C2330 1.391 . S
C2332 H2322 0.950 . S
C2332 C2333 1.386 . S
C2332 C2334 1.391 . S
C2333 C2332 1.386 . S
C2333 C2337 1.393 . S
C2334 H2323 0.950 . S
C2334 C2332 1.391 . S
C2334 C2335 1.400 . S
C2335 C2329 1.491 . S
C2335 C2334 1.400 . S
C2335 C2336 1.398 . S
C2336 H2324 0.950 . S
C2336 C2335 1.398 . S
C2336 C2337 1.391 . S
C2337 H2325 0.950 . S
C2337 C2333 1.393 . S
C2337 C2336 1.391 . S
H2338 C2346 0.950 . S
H2339 C2351 0.950 . S
H2340 C2348 0.950 . S
H2341 C2350 0.950 . S
H2342 C2352 0.950 . S
H2343 C2354 0.950 . S
H2344 C2356 0.950 . S
H2345 C2357 0.950 . S
C2346 H2338 0.950 . S
C2346 C2347 1.386 . S
C2346 C2348 1.391 . S
C2347 C2346 1.386 . S
C2347 C2351 1.393 . S
C2348 H2340 0.950 . S
C2348 C2346 1.391 . S
C2348 C2349 1.400 . S
C2349 C2348 1.400 . S
C2349 C2350 1.398 . S
C2349 C2355 1.491 . S
C2350 H2341 0.950 . S
C2350 C2349 1.398 . S
C2350 C2351 1.391 . S
C2351 H2339 0.950 . S
C2351 C2347 1.393 . S
C2351 C2350 1.391 . S
C2352 H2342 0.950 . S
C2352 C2353 1.386 . S
C2352 C2354 1.391 . S
C2353 C2352 1.386 . S
C2353 C2357 1.393 . S
C2354 H2343 0.950 . S
C2354 C2352 1.391 . S
C2354 C2355 1.400 . S
C2355 C2349 1.491 . S
C2355 C2354 1.400 . S
C2355 C2356 1.398 . S
C2356 H2344 0.950 . S
C2356 C2355 1.398 . S
C2356 C2357 1.391 . S
C2357 H2345 0.950 . S
C2357 C2353 1.393 . S
C2357 C2356 1.391 . S
H2358 C2366 0.950 . S
H2359 C2371 0.950 . S
H2360 C2368 0.950 . S
H2361 C2370 0.950 . S
H2362 C2372 0.950 . S
H2363 C2374 0.950 . S
H2364 C2376 0.950 . S
H2365 C2377 0.950 . S
C2366 H2358 0.950 . S
C2366 C2367 1.386 . S
C2366 C2368 1.391 . S
C2367 C2366 1.386 . S
C2367 C2371 1.393 . S
C2368 H2360 0.950 . S
C2368 C2366 1.391 . S
C2368 C2369 1.400 . S
C2369 C2368 1.400 . S
C2369 C2370 1.398 . S
C2369 C2375 1.491 . S
C2370 H2361 0.950 . S
C2370 C2369 1.398 . S
C2370 C2371 1.391 . S
C2371 H2359 0.950 . S
C2371 C2367 1.393 . S
C2371 C2370 1.391 . S
C2372 H2362 0.950 . S
C2372 C2373 1.386 . S
C2372 C2374 1.391 . S
C2373 C2372 1.386 . S
C2373 C2377 1.393 . S
C2374 H2363 0.950 . S
C2374 C2372 1.391 . S
C2374 C2375 1.400 . S
C2375 C2369 1.491 . S
C2375 C2374 1.400 . S
C2375 C2376 1.398 . S
C2376 H2364 0.950 . S
C2376 C2375 1.398 . S
C2376 C2377 1.391 . S
C2377 H2365 0.950 . S
C2377 C2373 1.393 . S
C2377 C2376 1.391 . S
H2378 C2386 0.950 . S
H2379 C2391 0.950 . S
H2380 C2388 0.950 . S
H2381 C2390 0.950 . S
H2382 C2392 0.950 . S
H2383 C2394 0.950 . S
H2384 C2396 0.950 . S
H2385 C2397 0.950 . S
C2386 H2378 0.950 . S
C2386 C2387 1.386 . S
C2386 C2388 1.391 . S
C2387 C2386 1.386 . S
C2387 C2391 1.393 . S
C2388 H2380 0.950 . S
C2388 C2386 1.391 . S
C2388 C2389 1.400 . S
C2389 C2388 1.400 . S
C2389 C2390 1.398 . S
C2389 C2395 1.491 . S
C2390 H2381 0.950 . S
C2390 C2389 1.398 . S
C2390 C2391 1.391 . S
C2391 H2379 0.950 . S
C2391 C2387 1.393 . S
C2391 C2390 1.391 . S
C2392 H2382 0.950 . S
C2392 C2393 1.386 . S
C2392 C2394 1.391 . S
C2393 C2392 1.386 . S
C2393 C2397 1.393 . S
C2394 H2383 0.950 . S
C2394 C2392 1.391 . S
C2394 C2395 1.400 . S
C2395 C2389 1.491 . S
C2395 C2394 1.400 . S
C2395 C2396 1.398 . S
C2396 H2384 0.950 . S
C2396 C2395 1.398 . S
C2396 C2397 1.391 . S
C2397 H2385 0.950 . S
C2397 C2393 1.393 . S
C2397 C2396 1.391 . S
H2398 C2406 0.950 . S
H2399 C2411 0.950 . S
H2400 C2408 0.950 . S
H2401 C2410 0.950 . S
H2402 C2412 0.950 . S
H2403 C2414 0.950 . S
H2404 C2416 0.950 . S
H2405 C2417 0.950 . S
C2406 H2398 0.950 . S
C2406 C2407 1.386 . S
C2406 C2408 1.391 . S
C2407 C2406 1.386 . S
C2407 C2411 1.393 . S
C2408 H2400 0.950 . S
C2408 C2406 1.391 . S
C2408 C2409 1.400 . S
C2409 C2408 1.400 . S
C2409 C2410 1.398 . S
C2409 C2415 1.491 . S
C2410 H2401 0.950 . S
C2410 C2409 1.398 . S
C2410 C2411 1.391 . S
C2411 H2399 0.950 . S
C2411 C2407 1.393 . S
C2411 C2410 1.391 . S
C2412 H2402 0.950 . S
C2412 C2413 1.386 . S
C2412 C2414 1.391 . S
C2413 C2412 1.386 . S
C2413 C2417 1.393 . S
C2414 H2403 0.950 . S
C2414 C2412 1.391 . S
C2414 C2415 1.400 . S
C2415 C2409 1.491 . S
C2415 C2414 1.400 . S
C2415 C2416 1.398 . S
C2416 H2404 0.950 . S
C2416 C2415 1.398 . S
C2416 C2417 1.391 . S
C2417 H2405 0.950 . S
C2417 C2413 1.393 . S
C2417 C2416 1.391 . S
H2418 C2426 0.950 . S
H2419 C2431 0.950 . S
H2420 C2428 0.950 . S
H2421 C2430 0.950 . S
H2422 C2432 0.950 . S
H2423 C2434 0.950 . S
H2424 C2436 0.950 . S
H2425 C2437 0.950 . S
C2426 H2418 0.950 . S
C2426 C2427 1.386 . S
C2426 C2428 1.391 . S
C2427 C2426 1.386 . S
C2427 C2431 1.393 . S
C2428 H2420 0.950 . S
C2428 C2426 1.391 . S
C2428 C2429 1.400 . S
C2429 C2428 1.400 . S
C2429 C2430 1.398 . S
C2429 C2435 1.491 . S
C2430 H2421 0.950 . S
C2430 C2429 1.398 . S
C2430 C2431 1.391 . S
C2431 H2419 0.950 . S
C2431 C2427 1.393 . S
C2431 C2430 1.391 . S
C2432 H2422 0.950 . S
C2432 C2433 1.386 . S
C2432 C2434 1.391 . S
C2433 C2432 1.386 . S
C2433 C2437 1.393 . S
C2434 H2423 0.950 . S
C2434 C2432 1.391 . S
C2434 C2435 1.400 . S
C2435 C2429 1.491 . S
C2435 C2434 1.400 . S
C2435 C2436 1.398 . S
C2436 H2424 0.950 . S
C2436 C2435 1.398 . S
C2436 C2437 1.391 . S
C2437 H2425 0.950 . S
C2437 C2433 1.393 . S
C2437 C2436 1.391 . S
H2438 C2446 0.950 . S
H2439 C2451 0.950 . S
H2440 C2448 0.950 . S
H2441 C2450 0.950 . S
H2442 C2452 0.950 . S
H2443 C2454 0.950 . S
H2444 C2456 0.950 . S
H2445 C2457 0.950 . S
C2446 H2438 0.950 . S
C2446 C2447 1.386 . S
C2446 C2448 1.391 . S
C2447 C2446 1.386 . S
C2447 C2451 1.393 . S
C2448 H2440 0.950 . S
C2448 C2446 1.391 . S
C2448 C2449 1.400 . S
C2449 C2448 1.400 . S
C2449 C2450 1.398 . S
C2449 C2455 1.491 . S
C2450 H2441 0.950 . S
C2450 C2449 1.398 . S
C2450 C2451 1.391 . S
C2451 H2439 0.950 . S
C2451 C2447 1.393 . S
C2451 C2450 1.391 . S
C2452 H2442 0.950 . S
C2452 C2453 1.386 . S
C2452 C2454 1.391 . S
C2453 C2452 1.386 . S
C2453 C2457 1.393 . S
C2454 H2443 0.950 . S
C2454 C2452 1.391 . S
C2454 C2455 1.400 . S
C2455 C2449 1.491 . S
C2455 C2454 1.400 . S
C2455 C2456 1.398 . S
C2456 H2444 0.950 . S
C2456 C2455 1.398 . S
C2456 C2457 1.391 . S
C2457 H2445 0.950 . S
C2457 C2453 1.393 . S
C2457 C2456 1.391 . S
H2458 C2466 0.950 . S
H2459 C2471 0.950 . S
H2460 C2468 0.950 . S
H2461 C2470 0.950 . S
H2462 C2472 0.950 . S
H2463 C2474 0.950 . S
H2464 C2476 0.950 . S
H2465 C2477 0.950 . S
C2466 H2458 0.950 . S
C2466 C2467 1.386 . S
C2466 C2468 1.391 . S
C2467 C2466 1.386 . S
C2467 C2471 1.393 . S
C2468 H2460 0.950 . S
C2468 C2466 1.391 . S
C2468 C2469 1.400 . S
C2469 C2468 1.400 . S
C2469 C2470 1.398 . S
C2469 C2475 1.491 . S
C2470 H2461 0.950 . S
C2470 C2469 1.398 . S
C2470 C2471 1.391 . S
C2471 H2459 0.950 . S
C2471 C2467 1.393 . S
C2471 C2470 1.391 . S
C2472 H2462 0.950 . S
C2472 C2473 1.386 . S
C2472 C2474 1.391 . S
C2473 C2472 1.386 . S
C2473 C2477 1.393 . S
C2474 H2463 0.950 . S
C2474 C2472 1.391 . S
C2474 C2475 1.400 . S
C2475 C2469 1.491 . S
C2475 C2474 1.400 . S
C2475 C2476 1.398 . S
C2476 H2464 0.950 . S
C2476 C2475 1.398 . S
C2476 C2477 1.391 . S
C2477 H2465 0.950 . S
C2477 C2473 1.393 . S
C2477 C2476 1.391 . S
H2478 C2486 0.950 . S
H2479 C2491 0.950 . S
H2480 C2488 0.950 . S
H2481 C2490 0.950 . S
H2482 C2492 0.950 . S
H2483 C2494 0.950 . S
H2484 C2496 0.950 . S
H2485 C2497 0.950 . S
C2486 H2478 0.950 . S
C2486 C2487 1.386 . S
C2486 C2488 1.391 . S
C2487 C2486 1.386 . S
C2487 C2491 1.393 . S
C2488 H2480 0.950 . S
C2488 C2486 1.391 . S
C2488 C2489 1.400 . S
C2489 C2488 1.400 . S
C2489 C2490 1.398 . S
C2489 C2495 1.491 . S
C2490 H2481 0.950 . S
C2490 C2489 1.398 . S
C2490 C2491 1.391 . S
C2491 H2479 0.950 . S
C2491 C2487 1.393 . S
C2491 C2490 1.391 . S
C2492 H2482 0.950 . S
C2492 C2493 1.386 . S
C2492 C2494 1.391 . S
C2493 C2492 1.386 . S
C2493 C2497 1.393 . S
C2494 H2483 0.950 . S
C2494 C2492 1.391 . S
C2494 C2495 1.400 . S
C2495 C2489 1.491 . S
C2495 C2494 1.400 . S
C2495 C2496 1.398 . S
C2496 H2484 0.950 . S
C2496 C2495 1.398 . S
C2496 C2497 1.391 . S
C2497 H2485 0.950 . S
C2497 C2493 1.393 . S
C2497 C2496 1.391 . S
H2498 C2506 0.950 . S
H2499 C2511 0.950 . S
H2500 C2508 0.950 . S
H2501 C2510 0.950 . S
H2502 C2512 0.950 . S
H2503 C2514 0.950 . S
H2504 C2516 0.950 . S
H2505 C2517 0.950 . S
C2506 H2498 0.950 . S
C2506 C2507 1.386 . S
C2506 C2508 1.391 . S
C2507 C2506 1.386 . S
C2507 C2511 1.393 . S
C2508 H2500 0.950 . S
C2508 C2506 1.391 . S
C2508 C2509 1.400 . S
C2509 C2508 1.400 . S
C2509 C2510 1.398 . S
C2509 C2515 1.491 . S
C2510 H2501 0.950 . S
C2510 C2509 1.398 . S
C2510 C2511 1.391 . S
C2511 H2499 0.950 . S
C2511 C2507 1.393 . S
C2511 C2510 1.391 . S
C2512 H2502 0.950 . S
C2512 C2513 1.386 . S
C2512 C2514 1.391 . S
C2513 C2512 1.386 . S
C2513 C2517 1.393 . S
C2514 H2503 0.950 . S
C2514 C2512 1.391 . S
C2514 C2515 1.400 . S
C2515 C2509 1.491 . S
C2515 C2514 1.400 . S
C2515 C2516 1.398 . S
C2516 H2504 0.950 . S
C2516 C2515 1.398 . S
C2516 C2517 1.391 . S
C2517 H2505 0.950 . S
C2517 C2513 1.393 . S
C2517 C2516 1.391 . S
H2518 C2526 0.950 . S
H2519 C2531 0.950 . S
H2520 C2528 0.950 . S
H2521 C2530 0.950 . S
H2522 C2532 0.950 . S
H2523 C2534 0.950 . S
H2524 C2536 0.950 . S
H2525 C2537 0.950 . S
C2526 H2518 0.950 . S
C2526 C2527 1.386 . S
C2526 C2528 1.391 . S
C2527 C2526 1.386 . S
C2527 C2531 1.393 . S
C2528 H2520 0.950 . S
C2528 C2526 1.391 . S
C2528 C2529 1.400 . S
C2529 C2528 1.400 . S
C2529 C2530 1.398 . S
C2529 C2535 1.491 . S
C2530 H2521 0.950 . S
C2530 C2529 1.398 . S
C2530 C2531 1.391 . S
C2531 H2519 0.950 . S
C2531 C2527 1.393 . S
C2531 C2530 1.391 . S
C2532 H2522 0.950 . S
C2532 C2533 1.386 . S
C2532 C2534 1.391 . S
C2533 C2532 1.386 . S
C2533 C2537 1.393 . S
C2534 H2523 0.950 . S
C2534 C2532 1.391 . S
C2534 C2535 1.400 . S
C2535 C2529 1.491 . S
C2535 C2534 1.400 . S
C2535 C2536 1.398 . S
C2536 H2524 0.950 . S
C2536 C2535 1.398 . S
C2536 C2537 1.391 . S
C2537 H2525 0.950 . S
C2537 C2533 1.393 . S
C2537 C2536 1.391 . S
C1467 C528 1.423 . S
C1473 C758 1.349 . S
C1487 C562 1.487 . S
C1493 C842 1.428 . S
C1507 C484 1.470 . S
C1513 C936 1.429 . S
C1527 C445 1.431 . S
C1533 C852 1.396 . S
C1553 C926 1.345 . S
C1547 C367 1.428 . S
C1567 C411 1.388 . S
C1573 C768 1.338 . S
C1593 C769 1.364 . S
C1587 C450 1.429 . S
C1613 C853 1.397 . S
C1607 C372 1.472 . S
C1627 C406 1.472 . S
C1633 C945 1.437 . S
C1647 C523 1.433 . S
C1653 C861 1.401 . S
C1667 C567 1.408 . S
C1673 C937 1.320 . S
C1693 C777 1.367 . S
C1687 C489 1.407 . S
C1713 C1010 1.336 . S
C1707 C60 1.416 . S
C1727 C94 1.484 . S
C1733 C1094 1.402 . S
C1747 C16 1.475 . S
C1753 C1188 1.437 . S
C1767 C679 1.433 . S
C1773 C1104 1.401 . S
C1787 C601 1.425 . S
C1793 C1178 1.365 . S
C1807 C645 1.389 . S
C1813 C1020 1.338 . S
C1827 C684 1.438 . S
C1833 C1021 1.378 . S
C1847 C606 1.463 . S
C1853 C1105 1.391 . S
C1873 C1197 1.438 . S
C1867 C640 1.473 . S
C1887 C55 1.433 . S
C1893 C1113 1.400 . S
C1913 C1189 1.350 . S
C1907 C99 1.407 . S
C1927 C21 1.412 . S
C1933 C1029 1.380 . S
C1953 C1262 1.330 . S
C1947 C294 1.421 . S
C1967 C328 1.487 . S
C1973 C1346 1.398 . S
C1993 C1440 1.437 . S
C1987 C250 1.474 . S
C2013 C1356 1.382 . S
C2007 C211 1.428 . S
C2033 C1430 1.348 . S
C2027 C133 1.429 . S
C2047 C177 1.389 . S
C2053 C1272 1.341 . S
C2067 C216 1.438 . S
C2073 C1273 1.352 . S
C2087 C138 1.465 . S
C2093 C1357 1.408 . S
C2113 C1449 1.429 . S
C2107 C172 1.469 . S
C2127 C289 1.430 . S
C2133 C1365 1.393 . S
C2147 C333 1.403 . S
C2153 C1441 1.342 . S
C2167 C255 1.400 . S
C2173 C1281 1.354 . S
C2187 C586 1.462 . S
C2193 C765 1.360 . S
C2213 C849 1.369 . S
C2207 C625 1.495 . S
C2227 C664 1.476 . S
C2233 C942 1.352 . S
C2247 C235 1.509 . S
C2253 C858 1.382 . S
C2267 C274 1.462 . S
C2273 C933 1.310 . S
C2293 C774 1.333 . S
C2287 C313 1.462 . S
C2307 C118 1.461 . S
C2313 C1017 1.362 . S
C2327 C157 1.493 . S
C2333 C1101 1.329 . S
C2347 C196 1.476 . S
C2353 C1194 1.323 . S
C2367 C469 1.505 . S
C2373 C1110 1.366 . S
C2393 C1185 1.323 . S
C2387 C508 1.462 . S
C2407 C547 1.461 . S
C2413 C1026 1.336 . S
C2427 C352 1.462 . S
C2433 C1269 1.327 . S
C2447 C391 1.495 . S
C2453 C1353 1.368 . S
C2473 C1446 1.325 . S
C2467 C430 1.474 . S
C2487 C1 1.509 . S
C2493 C1362 1.371 . S
C2507 C40 1.463 . S
C2513 C1437 1.351 . S
C2527 C79 1.460 . S
C2533 C1278 1.345 . S
