# Generated by pormake.
# Topology pyr, (3,6)-cn, num edge types: 1
# Building blocks:
#     Node 0, Type 0, BuildingBlock: ESEHIV_clean_linker_0, # of connection points: 3
#     Node 1, Type 0, BuildingBlock: ESEHIV_clean_linker_0, # of connection points: 3
#     Node 2, Type 0, BuildingBlock: ESEHIV_clean_linker_0, # of connection points: 3
#     Node 3, Type 0, BuildingBlock: ESEHIV_clean_linker_0, # of connection points: 3
#     Node 4, Type 0, BuildingBlock: ESEHIV_clean_linker_0, # of connection points: 3
#     Node 5, Type 0, BuildingBlock: ESEHIV_clean_linker_0, # of connection points: 3
#     Node 6, Type 0, BuildingBlock: ESEHIV_clean_linker_0, # of connection points: 3
#     Node 7, Type 0, BuildingBlock: ESEHIV_clean_linker_0, # of connection points: 3
#     Node 8, Type 1, BuildingBlock: JUFBIX_clean_sbu_0, # of connection points: 6
#     Node 9, Type 1, BuildingBlock: JUFBIX_clean_sbu_0, # of connection points: 6
#     Node 10, Type 1, BuildingBlock: JUFBIX_clean_sbu_0, # of connection points: 6
#     Node 11, Type 1, BuildingBlock: JUFBIX_clean_sbu_0, # of connection points: 6
#     Edge 12, Type (0, 1), BuildingBlock: XUDNAN_clean_linker_2, # of connection points: 2
#     Edge 13, Type (0, 1), BuildingBlock: XUDNAN_clean_linker_2, # of connection points: 2
#     Edge 14, Type (0, 1), BuildingBlock: XUDNAN_clean_linker_2, # of connection points: 2
#     Edge 15, Type (0, 1), BuildingBlock: XUDNAN_clean_linker_2, # of connection points: 2
#     Edge 16, Type (0, 1), BuildingBlock: XUDNAN_clean_linker_2, # of connection points: 2
#     Edge 17, Type (0, 1), BuildingBlock: XUDNAN_clean_linker_2, # of connection points: 2
#     Edge 18, Type (0, 1), BuildingBlock: XUDNAN_clean_linker_2, # of connection points: 2
#     Edge 19, Type (0, 1), BuildingBlock: XUDNAN_clean_linker_2, # of connection points: 2
#     Edge 20, Type (0, 1), BuildingBlock: XUDNAN_clean_linker_2, # of connection points: 2
#     Edge 21, Type (0, 1), BuildingBlock: XUDNAN_clean_linker_2, # of connection points: 2
#     Edge 22, Type (0, 1), BuildingBlock: XUDNAN_clean_linker_2, # of connection points: 2
#     Edge 23, Type (0, 1), BuildingBlock: XUDNAN_clean_linker_2, # of connection points: 2
#     Edge 24, Type (0, 1), BuildingBlock: XUDNAN_clean_linker_2, # of connection points: 2
#     Edge 25, Type (0, 1), BuildingBlock: XUDNAN_clean_linker_2, # of connection points: 2
#     Edge 26, Type (0, 1), BuildingBlock: XUDNAN_clean_linker_2, # of connection points: 2
#     Edge 27, Type (0, 1), BuildingBlock: XUDNAN_clean_linker_2, # of connection points: 2
#     Edge 28, Type (0, 1), BuildingBlock: XUDNAN_clean_linker_2, # of connection points: 2
#     Edge 29, Type (0, 1), BuildingBlock: XUDNAN_clean_linker_2, # of connection points: 2
#     Edge 30, Type (0, 1), BuildingBlock: XUDNAN_clean_linker_2, # of connection points: 2
#     Edge 31, Type (0, 1), BuildingBlock: XUDNAN_clean_linker_2, # of connection points: 2
#     Edge 32, Type (0, 1), BuildingBlock: XUDNAN_clean_linker_2, # of connection points: 2
#     Edge 33, Type (0, 1), BuildingBlock: XUDNAN_clean_linker_2, # of connection points: 2
#     Edge 34, Type (0, 1), BuildingBlock: XUDNAN_clean_linker_2, # of connection points: 2
#     Edge 35, Type (0, 1), BuildingBlock: XUDNAN_clean_linker_2, # of connection points: 2
# Relax obj value: 0.067
# Max RMSD: 0.101
# Mean RMSD: 0.035
data_MOF--net-pyr--node1-JUFBIX_clean_sbu_0--node2-ESEHIV_clean_linker_0--edge1-XUDNAN_clean_linker_2
_symmetry_space_group_name_H-M    P1
_symmetry_Int_Tables_number       1
_symmetry_cell_setting            triclinic
loop_
_symmetry_equiv_pos_as_xyz
'x, y, z'
_cell_length_a     35.105578
_cell_length_b     33.345098
_cell_length_c     35.1641
_cell_angle_alpha  81.824051
_cell_angle_beta   89.673293
_cell_angle_gamma 91.844603
loop_
_atom_site_label
_atom_site_type_symbol
_atom_site_fract_x
_atom_site_fract_y
_atom_site_fract_z
_atom_type_partial_charge
H0 H 0.15348 0.18411 0.21953 0.0
H1 H 0.24233 0.09702 0.22195 0.0
H2 H 0.2277 0.18427 0.12167 0.0
C3 C 0.17722 0.17169 0.20582 0.0
C4 C 0.18768 0.18806 0.1678 0.0
C5 C 0.19699 0.13907 0.22612 0.0
C6 C 0.22769 0.12288 0.20749 0.0
C7 C 0.23826 0.13853 0.16942 0.0
C8 C 0.21863 0.1715 0.15048 0.0
H9 H 0.44774 0.96413 0.65559 0.0
H10 H 0.51348 0.86546 0.62786 0.0
H11 H 0.40588 0.89069 0.57363 0.0
C12 C 0.45281 0.94092 0.63768 0.0
C13 C 0.42367 0.931 0.61319 0.0
C14 C 0.4851 0.91704 0.64391 0.0
C15 C 0.48969 0.88525 0.62208 0.0
C16 C 0.46098 0.87525 0.59699 0.0
C17 C 0.42892 0.89953 0.59141 0.0
H18 H 0.72707 0.31742 0.92 0.0
H19 H 0.74705 0.42865 0.84245 0.0
H20 H 0.64895 0.3517 0.82883 0.0
C21 C 0.71864 0.33881 0.89566 0.0
C22 C 0.6855 0.33019 0.87564 0.0
C23 C 0.74145 0.37417 0.88396 0.0
C24 C 0.72974 0.40163 0.85211 0.0
C25 C 0.6961 0.39398 0.83216 0.0
C26 C 0.67442 0.35824 0.84437 0.0
H27 H 0.91425 0.65777 0.4795 0.0
H28 H 1.0231 0.64345 0.42632 0.0
H29 H 0.92784 0.56553 0.40735 0.0
C30 C 0.93257 0.64093 0.46305 0.0
C31 C 0.91667 0.60968 0.44473 0.0
C32 C 0.97141 0.65271 0.45744 0.0
C33 C 0.99417 0.63253 0.43354 0.0
C34 C 0.97837 0.60104 0.41565 0.0
C35 C 0.94024 0.58879 0.42263 0.0
H36 H 0.81223 0.90841 0.84059 0.0
H37 H 0.90104 0.82125 0.84532 0.0
H38 H 0.82694 0.82388 0.94282 0.0
C39 C 0.82685 0.88286 0.8557 0.0
C40 C 0.81634 0.86832 0.89398 0.0
C41 C 0.85747 0.86607 0.83764 0.0
C42 C 0.8773 0.83403 0.85868 0.0
C43 C 0.86693 0.81872 0.89696 0.0
C44 C 0.836 0.83583 0.9138 0.0
H45 H 0.55252 0.19111 0.40455 0.0
H46 H 0.64727 0.11679 0.39022 0.0
H47 H 0.653 0.20085 0.47265 0.0
C48 C 0.58053 0.18085 0.41344 0.0
C49 C 0.60082 0.19937 0.44092 0.0
C50 C 0.59723 0.15066 0.39583 0.0
C51 C 0.63413 0.13872 0.40568 0.0
C52 C 0.65479 0.15659 0.43333 0.0
C53 C 0.6377 0.18685 0.45103 0.0
H54 H 0.33936 0.69263 0.13624 0.0
H55 H 0.30078 0.60705 0.2337 0.0
H56 H 0.40004 0.68317 0.24226 0.0
C57 C 0.34173 0.67953 0.16602 0.0
C58 C 0.37274 0.69202 0.18717 0.0
C59 C 0.31431 0.65003 0.18264 0.0
C60 C 0.32064 0.6304 0.2204 0.0
C61 C 0.35282 0.64079 0.24128 0.0
C62 C 0.37734 0.67283 0.22496 0.0
H63 H 0.02964 0.34999 0.66309 0.0
H64 H 0.12194 0.32121 0.5913 0.0
H65 H 0.13406 0.42042 0.65672 0.0
C66 C 0.05799 0.35639 0.65091 0.0
C67 C 0.07978 0.38903 0.66108 0.0
C68 C 0.07297 0.33182 0.62546 0.0
C69 C 0.11004 0.34048 0.61034 0.0
C70 C 0.13257 0.37246 0.62125 0.0
C71 C 0.11683 0.39672 0.64644 0.0
Co72 Co 1.00264 1.00419 0.51283 0.0
C73 C 0.03188 0.92657 0.51654 0.0
Co74 Co 0.05242 0.99306 0.55022 0.0
C75 C 0.93216 0.03693 0.48645 0.0
C76 C 0.95071 0.99476 0.4503 0.0
N77 N 0.96059 0.01188 0.48155 0.0
N78 N 0.90521 0.03649 0.45955 0.0
C79 C 0.91635 0.00974 0.43679 0.0
H80 H 0.93085 0.05494 0.50969 0.0
H81 H 0.96741 0.97297 0.43807 0.0
C82 C 1.02257 0.06978 0.54806 0.0
N83 N 0.09311 0.9868 0.58354 0.0
C84 C 0.12948 0.97596 0.57916 0.0
C85 C 0.09125 0.99624 0.61952 0.0
N86 N 0.15019 0.97827 0.61123 0.0
C87 C 0.12598 0.99116 0.63644 0.0
C88 C 0.07198 0.02535 0.47425 0.0
O89 O 0.99995 0.05839 0.52356 0.0
O90 O 0.04733 0.04589 0.56305 0.0
O91 O 0.08568 0.01435 0.50755 0.0
O92 O 0.036 0.02269 0.46996 0.0
O93 O 0.05711 0.93989 0.53783 0.0
H94 H 0.06636 1.00741 0.63236 0.0
H95 H 0.14049 0.96703 0.55292 0.0
O96 O 1.00576 0.94983 0.50277 0.0
O97 O 0.96923 0.98577 0.55589 0.0
O98 O 1.01874 0.97182 0.59209 0.0
C99 C 0.98278 0.97218 0.58849 0.0
H100 H 0.90118 1.00229 0.41186 0.0
H101 H 0.13302 0.998 0.66478 0.0
Co102 Co 0.51435 1.00087 1.00096 0.0
C103 C 0.50786 0.94153 0.06538 0.0
Co104 Co 0.54149 0.0182 0.05264 0.0
C105 C 0.50858 0.98474 0.92347 0.0
C106 C 0.45854 0.96374 0.95653 0.0
N107 N 0.49187 0.98469 0.95813 0.0
N108 N 0.48737 0.96399 0.90069 0.0
C109 C 0.45592 0.95051 0.92125 0.0
H110 H 0.53707 0.99693 0.91615 0.0
H111 H 0.43873 0.95621 0.98035 0.0
C112 C 0.54844 0.0774 0.98785 0.0
N113 N 0.56475 0.03451 0.0949 0.0
C114 C 0.54977 0.03561 0.13014 0.0
C115 C 0.59964 0.05257 0.09539 0.0
N116 N 0.57375 0.0543 0.15231 0.0
C117 C 0.60521 0.06488 0.13064 0.0
C118 C 0.59098 0.98029 1.00758 0.0
O119 O 0.52988 0.0512 0.9718 0.0
O120 O 0.55559 0.06953 1.02346 0.0
O121 O 0.58846 0.99679 0.03789 0.0
O122 O 0.56145 0.97802 0.98718 0.0
O123 O 0.52767 0.9668 0.0815 0.0
H124 H 0.61916 0.05789 0.07115 0.0
H125 H 0.52113 0.02488 0.13867 0.0
O126 O 0.49887 0.95051 0.03035 0.0
O127 O 0.46751 0.02362 1.01504 0.0
O128 O 0.49404 0.03939 0.06738 0.0
C129 C 0.4647 0.03834 0.04644 0.0
H130 H 0.43375 0.93077 0.91213 0.0
H131 H 0.6301 0.08113 0.1394 0.0
Co132 Co 0.54303 0.53793 0.52437 0.0
C133 C 0.47338 0.53712 0.48585 0.0
Co134 Co 0.49461 0.51267 0.5612 0.0
C135 C 0.61994 0.55286 0.4928 0.0
C136 C 0.57858 0.59123 0.46313 0.0
N137 N 0.58244 0.56085 0.49247 0.0
N138 N 0.63928 0.57679 0.46446 0.0
C139 C 0.61336 0.60084 0.44571 0.0
H140 H 0.63274 0.52978 0.51307 0.0
H141 H 0.55217 0.60582 0.45504 0.0
C142 C 0.5642 0.51325 0.59969 0.0
N143 N 0.45458 0.49105 0.59238 0.0
C144 C 0.42687 0.46512 0.58348 0.0
C145 C 0.44374 0.5016 0.62638 0.0
N146 N 0.39895 0.45965 0.61021 0.0
C147 C 0.40916 0.48264 0.6372 0.0
C148 C 0.53152 0.4552 0.52656 0.0
O149 O 0.57675 0.52969 0.56696 0.0
O150 O 0.52887 0.50351 0.6036 0.0
O151 O 0.50434 0.46125 0.54874 0.0
O152 O 0.5534 0.4849 0.51245 0.0
O153 O 0.46049 0.522 0.51877 0.0
H154 H 0.459 0.52329 0.64127 0.0
H155 H 0.4259 0.45263 0.55669 0.0
O156 O 0.50883 0.54565 0.48202 0.0
O157 O 0.53207 0.59078 0.53629 0.0
O158 O 0.48462 0.56419 0.57311 0.0
C159 C 0.50411 0.59515 0.55826 0.0
H160 H 0.61933 0.62418 0.42152 0.0
H161 H 0.3921 0.48659 0.66207 0.0
Co162 Co 0.04343 0.50906 1.00391 0.0
C163 C 0.97232 0.46985 1.00815 0.0
Co164 Co 1.01766 0.50267 0.06202 0.0
C165 C 0.0581 0.49386 0.92605 0.0
C166 C 0.08835 0.54659 0.93977 0.0
N167 N 0.06571 0.51495 0.95536 0.0
N168 N 0.07446 0.51158 0.89278 0.0
C169 C 0.0938 0.54457 0.90142 0.0
H170 H 0.03888 0.46757 0.92838 0.0
H171 H 0.09846 0.57101 0.95469 0.0
C172 C 0.08875 0.54209 0.05769 0.0
N173 N 0.99497 0.49878 0.11006 0.0
C174 C 1.01213 0.49854 0.14438 0.0
C175 C 0.95768 0.5033 0.1172 0.0
N176 N 0.98715 0.50379 0.17232 0.0
C177 C 0.95284 0.50664 0.15541 0.0
C178 C 0.06209 0.43771 0.05196 0.0
O179 O 0.08679 0.53653 1.02276 0.0
O180 O 0.06126 0.52975 0.08033 0.0
O181 O 0.04114 0.45197 0.07614 0.0
O182 O 0.06686 0.45765 1.01836 0.0
O183 O 0.97404 0.47513 0.04321 0.0
H184 H 0.93586 0.50701 0.09551 0.0
H185 H 0.0427 0.4981 0.14823 0.0
O186 O 0.99998 0.48209 0.98569 0.0
O187 O 1.01966 0.55965 0.98987 0.0
O188 O 0.99442 0.55409 0.04752 0.0
C189 C 0.99882 0.57392 1.01399 0.0
H190 H 0.10965 0.56649 0.88118 0.0
H191 H 0.92659 0.51328 0.16921 0.0
H192 H 0.12396 0.12401 0.25686 0.0
H193 H 0.24327 0.11377 0.28714 0.0
H194 H 0.22457 0.0839 0.3532 0.0
H195 H 0.09112 0.15102 0.34756 0.0
H196 H 0.0468 0.12219 0.34758 0.0
H197 H 0.06956 0.14298 0.30273 0.0
H198 H 0.06936 0.07143 0.28213 0.0
H199 H 0.04668 0.05043 0.32696 0.0
H200 H 0.09091 0.03056 0.3128 0.0
H201 H 0.19264 0.05523 0.41686 0.0
H202 H 0.15033 0.02926 0.47191 0.0
H203 H 0.05161 0.05763 0.40053 0.0
C204 C 0.14623 0.11588 0.27742 0.0
C205 C 0.18526 0.1214 0.26643 0.0
C206 C 0.21325 0.10956 0.2944 0.0
C207 C 0.20288 0.09272 0.33218 0.0
C208 C 0.16426 0.08763 0.34193 0.0
C209 C 0.13635 0.09882 0.31531 0.0
C210 C 0.09686 0.08965 0.33308 0.0
C211 C 0.07479 0.12879 0.33271 0.0
C212 C 0.07465 0.05867 0.31252 0.0
C213 C 0.10689 0.07157 0.37382 0.0
C214 C 0.14594 0.07081 0.37837 0.0
C215 C 0.16202 0.05568 0.41352 0.0
C216 C 0.13769 0.04097 0.44472 0.0
C217 C 0.0975 0.0412 0.44082 0.0
C218 C 0.08213 0.05681 0.40466 0.0
H219 H 0.50703 0.98397 0.67737 0.0
H220 H 0.50907 0.85251 0.69412 0.0
H221 H 0.52375 0.85264 0.76187 0.0
H222 H 0.57757 1.00165 0.75833 0.0
H223 H 0.549 0.04193 0.77076 0.0
H224 H 0.55249 0.0332 0.72142 0.0
H225 H 0.4789 0.02721 0.71875 0.0
H226 H 0.47503 0.03472 0.76813 0.0
H227 H 0.45361 0.98996 0.75271 0.0
H228 H 0.5181 0.86398 0.8289 0.0
H229 H 0.50058 0.88764 0.8901 0.0
H230 H 0.50078 0.01129 0.83294 0.0
C231 C 0.51225 0.95534 0.69495 0.0
C232 C 0.50689 0.91834 0.68003 0.0
C233 C 0.51376 0.88148 0.70414 0.0
C234 C 0.52185 0.88115 0.74308 0.0
C235 C 0.52332 0.91787 0.7576 0.0
C236 C 0.51963 0.9545 0.73416 0.0
C237 C 0.51591 0.98891 0.75778 0.0
C238 C 0.55084 0.01815 0.75171 0.0
C239 C 0.47865 0.01148 0.74881 0.0
C240 C 0.51511 0.96545 0.79797 0.0
C241 C 0.52021 0.9246 0.79721 0.0
C242 C 0.51542 0.89602 0.83006 0.0
C243 C 0.50511 0.90951 0.86449 0.0
C244 C 0.49982 0.95108 0.86574 0.0
C245 C 0.5056 0.97947 0.83239 0.0
H246 H 0.6232 0.41465 0.81024 0.0
H247 H 0.74149 0.43464 0.77383 0.0
H248 H 0.72076 0.47277 0.71242 0.0
H249 H 0.58948 0.39327 0.72162 0.0
H250 H 0.54443 0.41704 0.725 0.0
H251 H 0.56866 0.39656 0.76802 0.0
H252 H 0.56727 0.46631 0.79235 0.0
H253 H 0.54284 0.487 0.74941 0.0
H254 H 0.58677 0.51073 0.76248 0.0
H255 H 0.68648 0.50345 0.65221 0.0
H256 H 0.64213 0.52371 0.59913 0.0
H257 H 0.5464 0.48032 0.67414 0.0
C258 C 0.64491 0.42726 0.78958 0.0
C259 C 0.68412 0.4215 0.79715 0.0
C260 C 0.71137 0.43908 0.76923 0.0
C261 C 0.69981 0.4606 0.73406 0.0
C262 C 0.66089 0.46441 0.72714 0.0
C263 C 0.63388 0.44832 0.75426 0.0
C264 C 0.59384 0.45393 0.73891 0.0
C265 C 0.57289 0.41275 0.73835 0.0
C266 C 0.57136 0.48112 0.76217 0.0
C267 C 0.60245 0.47504 0.69859 0.0
C268 C 0.64126 0.48125 0.69244 0.0
C269 C 0.65604 0.49903 0.6569 0.0
C270 C 0.63058 0.51043 0.62687 0.0
C271 C 0.59069 0.50374 0.63237 0.0
C272 C 0.57665 0.4861 0.66894 0.0
H273 H 0.96368 0.62978 0.34294 0.0
H274 H 0.03028 0.54126 0.41304 0.0
H275 H 0.04671 0.51021 0.35501 0.0
H276 H 0.92025 0.56262 0.29303 0.0
H277 H 0.91771 0.59562 0.2479 0.0
H278 H 0.91939 0.61678 0.29209 0.0
H279 H 0.97913 0.66112 0.26811 0.0
H280 H 0.97719 0.64084 0.22328 0.0
H281 H 1.02022 0.63758 0.25112 0.0
H282 H 0.0486 0.48432 0.28972 0.0
H283 H 0.03434 0.46531 0.22521 0.0
H284 H 0.96152 0.56796 0.20174 0.0
C285 C 0.98322 0.60504 0.34559 0.0
C286 C 0.99677 0.58843 0.38181 0.0
C287 C 1.02071 0.55491 0.38508 0.0
C288 C 0.02992 0.5371 0.35236 0.0
C289 C 1.01459 0.55319 0.31705 0.0
C290 C 0.99185 0.58663 0.31363 0.0
C291 C 0.97418 0.59487 0.27438 0.0
C292 C 0.93031 0.59229 0.27704 0.0
C293 C 0.98856 0.63604 0.25296 0.0
C294 C 0.98955 0.56025 0.25634 0.0
C295 C 1.0135 0.53694 0.28086 0.0
C296 C 0.0301 0.50258 0.2703 0.0
C297 C 1.02182 0.4919 0.23387 0.0
C298 C 0.99646 0.51492 0.20915 0.0
C299 C 0.98054 0.5496 0.2205 0.0
H300 H 0.31315 0.1198 0.18929 0.0
H301 H 0.22992 0.11448 0.09929 0.0
H302 H 0.27825 0.08817 0.05903 0.0
H303 H 0.39234 0.15321 0.12672 0.0
H304 H 0.42708 0.1235 0.15466 0.0
H305 H 0.38565 0.13987 0.17789 0.0
H306 H 0.36808 0.0655 0.20596 0.0
H307 H 0.40965 0.04899 0.18303 0.0
H308 H 0.3632 0.02786 0.17407 0.0
H309 H 0.33548 0.06456 0.02722 0.0
H310 H 0.39805 0.04365 1.00633 0.0
H311 H 0.44618 0.06448 0.11561 0.0
C312 C 0.30508 0.11249 0.16134 0.0
C313 C 0.26762 0.11929 0.14746 0.0
C314 C 0.25837 0.10981 0.11048 0.0
C315 C 0.28565 0.09477 0.08738 0.0
C316 C 0.3224 0.08923 0.10141 0.0
C317 C 0.33227 0.09759 0.13756 0.0
C318 C 0.3743 0.08979 0.14494 0.0
C319 C 0.39612 0.12893 0.15143 0.0
C320 C 0.37908 0.05602 0.17903 0.0
C321 C 0.38635 0.07606 0.10727 0.0
C322 C 0.35582 0.07588 0.0827 0.0
C323 C 0.3596 0.0645 0.04624 0.0
C324 C 0.39539 0.05272 0.03457 0.0
C325 C 0.4273 0.05246 0.0591 0.0
C326 C 0.42252 0.06448 0.09598 0.0
H327 H 0.36912 0.95339 0.55807 0.0
H328 H 0.38871 0.93699 0.68118 0.0
H329 H 0.3216 0.94923 0.69275 0.0
H330 H 0.297 0.03277 0.55798 0.0
H331 H 0.26864 0.01325 0.52172 0.0
H332 H 0.3195 1.00737 0.52228 0.0
H333 H 0.30887 0.92981 0.52474 0.0
H334 H 0.25801 0.93536 0.52483 0.0
H335 H 0.2799 0.90199 0.56273 0.0
H336 H 0.25252 0.95427 0.69256 0.0
H337 H 0.1844 0.96102 0.68028 0.0
H338 H 0.20692 0.97736 0.55722 0.0
C339 C 0.35937 0.95333 0.58734 0.0
C340 C 0.38454 0.94508 0.6186 0.0
C341 C 0.37053 0.94456 0.6566 0.0
C342 C 0.33223 0.95098 0.6636 0.0
C343 C 0.30811 0.95797 0.63237 0.0
C344 C 0.32097 0.9599 0.59495 0.0
C345 C 0.28821 0.96668 0.56696 0.0
C346 C 0.29367 1.00745 0.54069 0.0
C347 C 0.28348 0.93135 0.54344 0.0
C348 C 0.25505 0.96738 0.59474 0.0
C349 C 0.26744 0.96208 0.63225 0.0
C350 C 0.24245 0.95951 0.6633 0.0
C351 C 0.20367 0.96359 0.65592 0.0
C352 C 0.19004 0.97083 0.61773 0.0
C353 C 0.21622 0.97212 0.58672 0.0
H354 H 0.77471 0.44712 0.89906 0.0
H355 H 0.79237 0.31743 0.91424 0.0
H356 H 0.85127 0.3279 0.94947 0.0
H357 H 0.87462 0.47632 0.88191 0.0
H358 H 0.87232 0.52007 0.90651 0.0
H359 H 0.83058 0.50243 0.88344 0.0
H360 H 0.79294 0.49704 0.94764 0.0
H361 H 0.83466 0.51439 0.97094 0.0
H362 H 0.81103 0.4669 0.98992 0.0
H363 H 0.90833 0.3518 0.98389 0.0
H364 H 0.96149 0.38865 1.01155 0.0
H365 H 0.90972 0.50289 0.97133 0.0
C366 C 0.79103 0.42087 0.90946 0.0
C367 C 0.77808 0.38127 0.90423 0.0
C368 C 0.80062 0.34797 0.91867 0.0
C369 C 0.83448 0.3536 0.93853 0.0
C370 C 0.84605 0.39281 0.94352 0.0
C371 C 0.82528 0.42597 0.92906 0.0
C372 C 0.84478 0.46504 0.93756 0.0
C373 C 0.85626 0.49259 0.90013 0.0
C374 C 0.81933 0.48714 0.96304 0.0
C375 C 0.87957 0.44857 0.9592 0.0
C376 C 0.8796 0.40676 0.96248 0.0
C377 C 0.90863 0.38453 0.98145 0.0
C378 C 0.93858 0.40558 0.99717 0.0
C379 C 0.93932 0.44831 0.99369 0.0
C380 C 0.90949 0.47009 0.9745 0.0
H381 H 0.86233 0.59612 0.5031 0.0
H382 H 0.87679 0.61125 0.37913 0.0
H383 H 0.8078 0.60061 0.37162 0.0
H384 H 0.78713 0.51743 0.50873 0.0
H385 H 0.76085 0.5363 0.54627 0.0
H386 H 0.81184 0.54435 0.54269 0.0
H387 H 0.80405 0.62177 0.53935 0.0
H388 H 0.75309 0.6139 0.54318 0.0
H389 H 0.77373 0.64772 0.5033 0.0
H390 H 0.73832 0.59097 0.3764 0.0
H391 H 0.66999 0.58347 0.39373 0.0
H392 H 0.69832 0.57269 0.51447 0.0
C393 C 0.85079 0.59711 0.4745 0.0
C394 C 0.87486 0.60388 0.44171 0.0
C395 C 0.85889 0.60527 0.40464 0.0
C396 C 0.81975 0.59939 0.40005 0.0
C397 C 0.79683 0.59211 0.43279 0.0
C398 C 0.8115 0.59096 0.46933 0.0
C399 C 0.77992 0.58317 0.49943 0.0
C400 C 0.78527 0.54291 0.52584 0.0
C401 C 0.77756 0.61877 0.52268 0.0
C402 C 0.74541 0.58064 0.47392 0.0
C403 C 0.75606 0.58588 0.43561 0.0
C404 C 0.72954 0.58655 0.40629 0.0
C405 C 0.69091 0.58236 0.41633 0.0
C406 C 0.67917 0.57732 0.45529 0.0
C407 C 0.70678 0.57581 0.48451 0.0
H408 H 0.15537 0.25568 0.19228 0.0
H409 H 0.17012 0.19618 0.09123 0.0
H410 H 0.14054 0.25315 0.0515 0.0
H411 H 0.06149 0.29561 0.16418 0.0
H412 H 0.07021 0.34224 0.18357 0.0
H413 H 0.09263 0.2966 0.20465 0.0
H414 H 0.15876 0.33341 0.19463 0.0
H415 H 0.13657 0.37904 0.17326 0.0
H416 H 0.17306 0.35719 0.1472 0.0
H417 H 0.11354 0.31855 1.02126 0.0
H418 H 0.08434 0.38505 1.00394 0.0
H419 H 0.0814 0.40081 0.12429 0.0
C420 C 0.15193 0.2543 0.16192 0.0
C421 C 0.16613 0.22147 0.14501 0.0
C422 C 0.16084 0.22128 0.10499 0.0
C423 C 0.14372 0.25348 0.08205 0.0
C424 C 0.1311 0.2857 0.09936 0.0
C425 C 0.13429 0.28615 0.13846 0.0
C426 C 0.11769 0.32449 0.14963 0.0
C427 C 0.08347 0.31411 0.17714 0.0
C428 C 0.14836 0.35004 0.16722 0.0
C429 C 0.1052 0.34554 0.11066 0.0
C430 C 0.11356 0.32271 0.08205 0.0
C431 C 0.10641 0.33648 0.04348 0.0
C432 C 0.08997 0.3744 0.03387 0.0
C433 C 0.08028 0.39803 0.06269 0.0
C434 C 0.08801 0.38321 0.10163 0.0
H435 H 0.668 0.28849 0.94806 0.0
H436 H 0.65285 0.28262 0.8264 0.0
H437 H 0.61374 0.21992 0.84222 0.0
H438 H 0.67782 0.18045 0.97522 0.0
H439 H 0.65302 0.17886 1.02046 0.0
H440 H 0.67879 0.2244 0.99975 0.0
H441 H 0.61753 0.26515 1.0029 0.0
H442 H 0.59151 0.21965 1.02335 0.0
H443 H 0.57479 0.24933 0.98017 0.0
H444 H 0.57591 0.15813 0.87059 0.0
H445 H 0.54564 0.09834 0.90989 0.0
H446 H 0.58743 0.14149 1.01335 0.0
C447 C 0.6567 0.27393 0.92471 0.0
C448 C 0.66308 0.2912 0.8859 0.0
C449 C 0.64758 0.27092 0.85635 0.0
C450 C 0.62547 0.23502 0.86502 0.0
C451 C 0.61931 0.21924 0.90342 0.0
C452 C 0.63476 0.2377 0.93284 0.0
C453 C 0.62463 0.21347 0.97167 0.0
C454 C 0.66072 0.1984 0.99302 0.0
C455 C 0.60069 0.2384 0.99595 0.0
C456 C 0.60114 0.17859 0.95937 0.0
C457 C 0.59822 0.18276 0.91987 0.0
C458 C 0.57803 0.15447 0.90157 0.0
C459 C 0.5608 0.12065 0.92419 0.0
C460 C 0.56404 0.11515 0.96474 0.0
C461 C 0.58429 0.14482 0.98245 0.0
H462 H 0.93848 0.72639 0.45237 0.0
H463 H 0.03974 0.66306 0.49285 0.0
H464 H 0.06705 0.72649 0.51222 0.0
H465 H 0.98593 0.81852 0.41267 0.0
H466 H 0.94923 0.85042 0.42635 0.0
H467 H 0.93715 0.79974 0.41738 0.0
H468 H 0.90629 0.78303 0.48518 0.0
H469 H 0.91792 0.8338 0.4942 0.0
H470 H 0.93379 0.79103 0.52675 0.0
H471 H 0.08308 0.79758 0.52676 0.0
H472 H 0.08651 0.87005 0.53521 0.0
H473 H 0.9751 0.88604 0.48331 0.0
C474 C 0.96608 0.72564 0.466 0.0
C475 C 0.98684 0.68973 0.47161 0.0
C476 C 1.02337 0.69029 0.48846 0.0
C477 C 0.03905 0.72611 0.49954 0.0
C478 C 1.01791 0.7611 0.49327 0.0
C479 C 0.98221 0.76107 0.47689 0.0
C480 C 0.96567 0.80279 0.47224 0.0
C481 C 0.95913 0.8188 0.42963 0.0
C482 C 0.92874 0.80264 0.49602 0.0
C483 C 0.99761 0.8264 0.48858 0.0
C484 C 0.02747 0.80189 0.5007 0.0
C485 C 0.05989 0.81705 0.51729 0.0
C486 C 0.06161 0.85823 0.52191 0.0
C487 C 0.03119 0.88377 0.50975 0.0
C488 C 0.999 0.86747 0.49263 0.0
H489 H 0.51919 0.83387 0.56789 0.0
H490 H 0.39989 0.82252 0.60272 0.0
H491 H 0.39812 0.75128 0.593 0.0
H492 H 0.51224 0.76285 0.49508 0.0
H493 H 0.55809 0.74205 0.50722 0.0
H494 H 0.54935 0.79397 0.51246 0.0
H495 H 0.56923 0.77976 0.58381 0.0
H496 H 0.57754 0.72772 0.57896 0.0
H497 H 0.54512 0.73945 0.61544 0.0
H498 H 0.41007 0.6806 0.58798 0.0
H499 H 0.43382 0.6136 0.58099 0.0
H500 H 0.54537 0.66805 0.54768 0.0
C501 C 0.49253 0.81655 0.57256 0.0
C502 C 0.45949 0.8342 0.58524 0.0
C503 C 0.42527 0.81032 0.59174 0.0
C504 C 0.42402 0.76957 0.58671 0.0
C505 C 0.45714 0.75294 0.57507 0.0
C506 C 0.49067 0.77557 0.56749 0.0
C507 C 0.52248 0.74921 0.55696 0.0
C508 C 0.53635 0.76284 0.51545 0.0
C509 C 0.55554 0.74903 0.5855 0.0
C510 C 0.50164 0.70822 0.56089 0.0
C511 C 0.46401 0.71135 0.57146 0.0
C512 C 0.4393 0.67773 0.5791 0.0
C513 C 0.45321 0.63975 0.57534 0.0
C514 C 0.49142 0.63566 0.5637 0.0
C515 C 0.51595 0.6704 0.5563 0.0
H516 H 0.93043 0.87983 0.80687 0.0
H517 H 0.81116 0.89 0.77632 0.0
H518 H 0.82998 0.91808 0.70983 0.0
H519 H 0.96419 0.97154 0.74876 0.0
H520 H 1.00818 0.95068 0.73526 0.0
H521 H 0.9854 0.93122 0.78045 0.0
H522 H 0.98445 0.85873 0.76194 0.0
H523 H 1.00732 0.87797 0.71673 0.0
H524 H 0.96272 0.8495 0.71753 0.0
H525 H 0.862 0.94522 0.64602 0.0
H526 H 0.90448 0.96943 0.59065 0.0
H527 H 1.00299 0.94115 0.66239 0.0
C528 C 0.90819 0.88753 0.78617 0.0
C529 C 0.86917 0.88259 0.79715 0.0
C530 C 0.84118 0.89386 0.76901 0.0
C531 C 0.85162 0.90966 0.73101 0.0
C532 C 0.89025 0.91417 0.72127 0.0
C533 C 0.91811 0.90343 0.74806 0.0
C534 C 0.95762 0.91163 0.73023 0.0
C535 C 0.98017 0.94314 0.74985 0.0
C536 C 0.9793 0.8721 0.7317 0.0
C537 C 0.94766 0.92861 0.68923 0.0
C538 C 0.90863 0.92979 0.68465 0.0
C539 C 0.8926 0.94437 0.64934 0.0
C540 C 0.91702 0.95808 0.61798 0.0
C541 C 0.95717 0.95724 0.62192 0.0
C542 C 0.97248 0.94221 0.65822 0.0
H543 H 0.60534 0.18212 0.32156 0.0
H544 H 0.55163 0.08259 0.3974 0.0
H545 H 0.53201 0.04999 0.34099 0.0
H546 H 0.53776 0.18201 0.2387 0.0
H547 H 0.57633 0.19328 0.20441 0.0
H548 H 0.57862 0.21213 0.24995 0.0
H549 H 0.64354 0.17817 0.26317 0.0
H550 H 0.64123 0.15867 0.21815 0.0
H551 H 0.64674 0.12446 0.26216 0.0
H552 H 0.52585 0.02473 0.27663 0.0
H553 H 0.53497 0.00832 0.21059 0.0
H554 H 0.59532 0.1236 0.17842 0.0
C555 C 0.58806 0.1543 0.32596 0.0
C556 C 0.57894 0.13511 0.36324 0.0
C557 C 0.55784 0.09794 0.36867 0.0
C558 C 0.54672 0.07933 0.3369 0.0
C559 C 0.55713 0.09848 0.30023 0.0
C560 C 0.57715 0.13533 0.29469 0.0
C561 C 0.58906 0.14735 0.25319 0.0
C562 C 0.56925 0.18598 0.23552 0.0
C563 C 0.63272 0.15243 0.24896 0.0
C564 C 0.57409 0.11078 0.23643 0.0
C565 C 0.55499 0.08328 0.26367 0.0
C566 C 0.54029 0.04631 0.25497 0.0
C567 C 0.54559 0.03721 0.21755 0.0
C568 C 0.56607 0.06462 0.18977 0.0
C569 C 0.57991 0.10199 0.19932 0.0
H570 H 0.42325 0.61986 0.26906 0.0
H571 H 0.30351 0.61177 0.30161 0.0
H572 H 0.32067 0.57983 0.36699 0.0
H573 H 0.45243 0.52683 0.32606 0.0
H574 H 0.49748 0.54893 0.33821 0.0
H575 H 0.47512 0.56723 0.29337 0.0
H576 H 0.47774 0.64021 0.31086 0.0
H577 H 0.50005 0.62215 0.35571 0.0
H578 H 0.45669 0.6497 0.35547 0.0
H579 H 0.35238 0.55212 0.43066 0.0
H580 H 0.39493 0.53271 0.4857 0.0
H581 H 0.49341 0.56289 0.41075 0.0
C582 C 0.40045 0.61145 0.28981 0.0
C583 C 0.36194 0.61862 0.28003 0.0
C584 C 0.33316 0.6063 0.30811 0.0
C585 C 0.34269 0.58831 0.34542 0.0
C586 C 0.38111 0.58276 0.35421 0.0
C587 C 0.40945 0.59401 0.32704 0.0
C588 C 0.4487 0.58704 0.34384 0.0
C589 C 0.46965 0.55563 0.3242 0.0
C590 C 0.47216 0.62716 0.34132 0.0
C591 C 0.43822 0.57051 0.38498 0.0
C592 C 0.39914 0.56782 0.39048 0.0
C593 C 0.38299 0.55398 0.42651 0.0
C594 C 0.4074 0.54299 0.45762 0.0
C595 C 0.44756 0.54625 0.45262 0.0
C596 C 0.4629 0.55994 0.41563 0.0
H597 H 0.06284 0.36304 0.7363 0.0
H598 H 0.06983 0.47014 0.6507 0.0
H599 H 0.06133 0.51339 0.70147 0.0
H600 H 0.99427 0.40329 0.80455 0.0
H601 H 1.01894 0.37884 0.84587 0.0
H602 H 1.01728 0.35611 0.80232 0.0
H603 H 0.09101 0.3547 0.8016 0.0
H604 H 0.09301 0.37801 0.84464 0.0
H605 H 0.11848 0.40126 0.80209 0.0
H606 H 0.06279 0.54486 0.76109 0.0
H607 H 0.0709 0.56306 0.82614 0.0
H608 H 0.06444 0.43576 0.87403 0.0
C609 C 0.06075 0.39548 0.72829 0.0
C610 C 0.06607 0.41349 0.68977 0.0
C611 C 0.06503 0.45605 0.68012 0.0
C612 C 0.06028 0.48073 0.70872 0.0
C613 C 0.05665 0.46225 0.74674 0.0
C614 C 0.05639 0.42057 0.75662 0.0
C615 C 0.05661 0.40873 0.79987 0.0
C616 C 1.01956 0.38536 0.81398 0.0
C617 C 0.09188 0.38425 0.81278 0.0
C618 C 0.05861 0.45024 0.81264 0.0
C619 C 0.05812 0.48062 0.78153 0.0
C620 C 0.06256 0.52138 0.78574 0.0
C621 C 0.06762 0.53139 0.82275 0.0
C622 C 0.06837 0.50078 0.85507 0.0
C623 C 0.06336 0.45974 0.84988 0.0
H624 H 0.74239 0.88832 0.87201 0.0
H625 H 0.82368 0.89343 0.96381 0.0
H626 H 0.77537 0.92285 1.00174 0.0
H627 H 0.69514 0.98275 0.88277 0.0
H628 H 0.64826 0.96308 0.87325 0.0
H629 H 0.68964 0.94395 0.85218 0.0
H630 H 0.66907 0.87095 0.88208 0.0
H631 H 0.62777 0.88995 0.90337 0.0
H632 H 0.66081 0.85971 0.9332 0.0
H633 H 0.71869 0.95031 0.03069 0.0
H634 H 0.6566 0.97453 0.04904 0.0
H635 H 0.60984 0.95124 0.93988 0.0
C636 C 0.75003 0.89611 0.8999 0.0
C637 C 0.7869 0.88842 0.91498 0.0
C638 C 0.79563 0.89866 0.95179 0.0
C639 C 0.76838 0.91552 0.97354 0.0
C640 C 0.73223 0.92205 0.9583 0.0
C641 C 0.72285 0.91278 0.92234 0.0
C642 C 0.68136 0.92204 0.91349 0.0
C643 C 0.67844 0.95491 0.87834 0.0
C644 C 0.6584 0.88335 0.9077 0.0
C645 C 0.66904 0.93769 0.95013 0.0
C646 C 0.69901 0.93756 0.97542 0.0
C647 C 0.69499 0.9506 1.01111 0.0
C648 C 0.65949 0.9643 1.02131 0.0
C649 C 0.62811 0.96478 0.99608 0.0
C650 C 0.63312 0.95114 0.95996 0.0
H651 H 0.68569 0.08138 0.43588 0.0
H652 H 0.71519 0.20645 0.44827 0.0
H653 H 0.78231 0.18855 0.45767 0.0
H654 H 0.75325 0.03317 0.50317 0.0
H655 H 0.76404 0.99476 0.47386 0.0
H656 H 0.71772 0.01665 0.47144 0.0
H657 H 0.72617 0.03659 0.39784 0.0
H658 H 0.77262 0.01504 0.40004 0.0
H659 H 0.76726 0.06715 0.37927 0.0
H660 H 0.84628 0.15757 0.46454 0.0
H661 H 0.90321 0.11547 0.46729 0.0
H662 H 0.83309 0.01239 0.44466 0.0
C663 C 0.70616 0.10515 0.44046 0.0
C664 C 0.69488 0.14534 0.44155 0.0
C665 C 0.72274 0.17525 0.44817 0.0
C666 C 0.76108 0.16548 0.45318 0.0
C667 C 0.77119 0.12581 0.45111 0.0
C668 C 0.74459 0.09614 0.4448 0.0
C669 C 0.76314 0.05623 0.44219 0.0
C670 C 0.74868 0.02326 0.4746 0.0
C671 C 0.75693 0.04299 0.40247 0.0
C672 C 0.80444 0.06818 0.44781 0.0
C673 C 0.80836 0.10835 0.45332 0.0
C674 C 0.8436 0.12614 0.46014 0.0
C675 C 0.87566 0.1021 0.46168 0.0
C676 C 0.87228 0.06099 0.45592 0.0
C677 C 0.8363 0.04395 0.44855 0.0
H678 H 0.26904 0.57829 0.18878 0.0
H679 H 0.2778 0.70076 0.12623 0.0
H680 H 0.22378 0.68509 0.08672 0.0
H681 H 0.23861 0.52594 0.11255 0.0
H682 H 0.20404 0.49324 0.14094 0.0
H683 H 0.24528 0.51262 0.16353 0.0
H684 H 0.20167 0.54298 0.21101 0.0
H685 H 0.16029 0.52344 0.18873 0.0
H686 H 0.16488 0.57671 0.19253 0.0
H687 H 0.17118 0.65528 0.05051 0.0
H688 H 0.11716 0.61625 0.027 0.0
H689 H 0.13495 0.51755 0.11881 0.0
C690 C 0.25964 0.60223 0.16723 0.0
C691 C 0.27937 0.64053 0.16029 0.0
C692 C 0.26514 0.67046 0.13141 0.0
C693 C 0.23387 0.66209 0.10887 0.0
C694 C 0.21582 0.62402 0.11607 0.0
C695 C 0.22749 0.59489 0.14517 0.0
C696 C 0.20142 0.55723 0.14824 0.0
C697 C 0.22368 0.52006 0.14087 0.0
C698 C 0.18085 0.54965 0.18746 0.0
C699 C 0.17374 0.56967 0.11596 0.0
C700 C 0.18305 0.60811 0.09738 0.0
C701 C 0.1632 0.62542 0.06522 0.0
C702 C 0.13272 0.60306 0.05197 0.0
C703 C 0.12181 0.56431 0.07138 0.0
C704 C 0.1425 0.54745 0.10386 0.0
H705 H 0.17457 0.44423 0.60747 0.0
H706 H 0.18421 0.31417 0.61067 0.0
H707 H 0.25354 0.32368 0.60088 0.0
H708 H 0.25463 0.47831 0.54117 0.0
H709 H 0.26899 0.518 0.56845 0.0
H710 H 0.21952 0.50205 0.56735 0.0
H711 H 0.21801 0.48808 0.64179 0.0
H712 H 0.26748 0.50352 0.64315 0.0
H713 H 0.25165 0.45409 0.66647 0.0
H714 H 0.32296 0.34675 0.59657 0.0
H715 H 0.38617 0.38144 0.60142 0.0
H716 H 0.33075 0.49379 0.61012 0.0
C717 C 0.19102 0.41763 0.60579 0.0
C718 C 0.17352 0.37845 0.60973 0.0
C719 C 0.19645 0.34469 0.60683 0.0
C720 C 0.23605 0.34972 0.60155 0.0
C721 C 0.25239 0.38858 0.59958 0.0
C722 C 0.23054 0.42193 0.60171 0.0
C723 C 0.25508 0.45969 0.60357 0.0
C724 C 0.2492 0.49138 0.56801 0.0
C725 C 0.24761 0.47736 0.64097 0.0
C726 C 0.2942 0.44218 0.60323 0.0
C727 C 0.29218 0.40135 0.5999 0.0
C728 C 0.32485 0.37871 0.59914 0.0
C729 C 0.36044 0.39841 0.60202 0.0
C730 C 0.36272 0.43979 0.60668 0.0
C731 C 0.32931 0.46191 0.6071 0.0
H732 H 0.90049 0.75148 0.87332 0.0
H733 H 0.88375 0.81142 0.97382 0.0
H734 H 0.91479 0.7557 1.01387 0.0
H735 H 0.88582 0.64974 0.91914 0.0
H736 H 0.92304 0.62912 0.89301 0.0
H737 H 0.89927 0.6737 0.87153 0.0
H738 H 0.96422 0.71292 0.86088 0.0
H739 H 0.98821 0.66835 0.88212 0.0
H740 H 0.99536 0.71544 0.90112 0.0
H741 H 0.94406 0.69153 0.04436 0.0
H742 H 0.97535 0.6262 0.06185 0.0
H743 H 0.97884 0.60987 0.94166 0.0
C744 C 0.90373 0.75326 0.90363 0.0
C745 C 0.88864 0.78583 0.92026 0.0
C746 C 0.89369 0.78647 0.96025 0.0
C747 C 0.91167 0.75501 0.98336 0.0
C748 C 0.92536 0.72312 0.96625 0.0
C749 C 0.92223 0.72224 0.92721 0.0
C750 C 0.94011 0.68453 0.91617 0.0
C751 C 0.91027 0.65769 0.89895 0.0
C752 C 0.97399 0.696 0.88843 0.0
C753 C 0.95333 0.6643 0.95514 0.0
C754 C 0.94418 0.68697 0.98365 0.0
C755 C 0.95181 0.67375 1.02221 0.0
C756 C 0.96947 0.63653 0.03191 0.0
C757 C 0.97989 0.6131 1.00317 0.0
C758 C 0.97173 0.62738 0.96425 0.0
H759 H 0.35877 0.7597 0.13393 0.0
H760 H 0.44973 0.7003 0.20149 0.0
H761 H 0.4933 0.75802 0.17902 0.0
H762 H 0.42061 0.79807 0.05162 0.0
H763 H 0.39501 0.84422 0.04059 0.0
H764 H 0.37045 0.7985 0.06282 0.0
H765 H 0.34799 0.83606 0.11813 0.0
H766 H 0.37278 0.88175 0.09631 0.0
H767 H 0.38284 0.86076 0.14518 0.0
H768 H 0.52591 0.82505 0.15329 0.0
H769 H 0.54745 0.89195 0.1185 0.0
H770 H 0.43847 0.90326 0.06131 0.0
C771 C 0.38797 0.7582 0.14359 0.0
C772 C 0.40018 0.72539 0.17039 0.0
C773 C 0.43885 0.72543 0.18219 0.0
C774 C 0.46412 0.75803 0.16928 0.0
C775 C 0.45082 0.7901 0.14368 0.0
C776 C 0.41393 0.79001 0.13022 0.0
C777 C 0.40723 0.82765 0.10171 0.0
C778 C 0.39777 0.81643 0.06182 0.0
C779 C 0.37585 0.85305 0.11622 0.0
C780 C 0.44595 0.84912 0.10171 0.0
C781 C 0.47054 0.82724 0.12657 0.0
C782 C 0.50714 0.84212 0.13323 0.0
C783 C 0.51908 0.88014 0.11357 0.0
C784 C 0.49478 0.90228 0.087 0.0
C785 C 0.45781 0.8865 0.08102 0.0
H786 H 0.06697 0.30169 0.55685 0.0
H787 H 0.03312 0.27686 0.67703 0.0
H788 H 1.00711 0.20983 0.66687 0.0
H789 H 0.98627 0.24231 0.51819 0.0
H790 H 1.0173 0.22472 0.48348 0.0
H791 H 0.02619 0.27383 0.4981 0.0
H792 H 0.09486 0.25364 0.51731 0.0
H793 H 0.08615 0.20451 0.5031 0.0
H794 H 0.10185 0.2086 0.55116 0.0
H795 H 0.99648 0.142 0.64758 0.0
H796 H 0.99839 0.07852 0.61891 0.0
H797 H 0.03786 0.14624 0.51088 0.0
C798 C 0.05323 0.2825 0.58079 0.0
C799 C 0.05186 0.29464 0.61768 0.0
C800 C 0.03383 0.26863 0.64834 0.0
C801 C 1.01908 0.23038 0.64288 0.0
C802 C 1.02222 0.21875 0.60652 0.0
C803 C 0.03839 0.2442 0.57581 0.0
C804 C 0.04184 0.2228 0.54075 0.0
C805 C 1.01637 0.24206 0.50821 0.0
C806 C 0.08365 0.22236 0.52732 0.0
C807 C 0.02692 0.18075 0.55715 0.0
C808 C 1.0153 0.17928 0.59503 0.0
C809 C 1.00439 0.14295 0.61767 0.0
C810 C 1.0057 0.10715 0.6013 0.0
C811 C 1.01754 0.10813 0.56274 0.0
C812 C 0.02767 0.14528 0.54014 0.0
H813 H 0.63409 0.27389 0.4448 0.0
H814 H 0.53023 0.20156 0.47324 0.0
H815 H 0.50187 0.25919 0.49911 0.0
H816 H 0.63406 0.32771 0.52739 0.0
H817 H 0.6514 0.37491 0.50053 0.0
H818 H 0.66401 0.32754 0.48559 0.0
H819 H 0.63694 0.35103 0.41797 0.0
H820 H 0.62414 0.39841 0.43273 0.0
H821 H 0.58841 0.36705 0.41352 0.0
H822 H 0.48516 0.3237 0.52185 0.0
H823 H 0.47939 0.39256 0.53811 0.0
H824 H 0.59343 0.42467 0.49278 0.0
C825 C 0.60555 0.27014 0.45693 0.0
C826 C 0.58432 0.23334 0.45743 0.0
C827 C 0.54681 0.22961 0.47269 0.0
C828 C 0.53059 0.26206 0.48749 0.0
C829 C 0.55221 0.298 0.48643 0.0
C830 C 0.58878 0.30237 0.47139 0.0
C831 C 0.6053 0.34475 0.47252 0.0
C832 C 0.6408 0.34364 0.49804 0.0
C833 C 0.61421 0.36659 0.43176 0.0
C834 C 0.57228 0.36353 0.49062 0.0
C835 C 0.54211 0.33584 0.49861 0.0
C836 C 0.50854 0.34568 0.51571 0.0
C837 C 0.50562 0.3849 0.52489 0.0
C838 C 0.53599 0.41401 0.5167 0.0
C839 C 0.56972 0.40312 0.49922 0.0
loop_
_geom_bond_atom_site_label_1
_geom_bond_atom_site_label_2
_geom_bond_distance
_geom_bond_site_symmetry_2
_ccdc_geom_bond_type
H0 C3 0.931 . S
H1 C6 0.928 . S
H2 C8 0.930 . S
C3 H0 0.931 . S
C3 C4 1.413 . S
C3 C5 1.360 . S
C4 C3 1.413 . S
C4 C8 1.429 . S
C5 C3 1.360 . S
C5 C6 1.372 . S
C6 H1 0.928 . S
C6 C5 1.372 . S
C6 C7 1.404 . S
C7 C6 1.404 . S
C7 C8 1.391 . S
C8 H2 0.930 . S
C8 C4 1.429 . S
C8 C7 1.391 . S
H9 C12 0.931 . S
H10 C15 0.928 . S
H11 C17 0.930 . S
C12 H9 0.931 . S
C12 C13 1.413 . S
C12 C14 1.360 . S
C13 C12 1.413 . S
C13 C17 1.429 . S
C14 C12 1.360 . S
C14 C15 1.372 . S
C15 H10 0.928 . S
C15 C14 1.372 . S
C15 C16 1.404 . S
C16 C15 1.404 . S
C16 C17 1.391 . S
C17 H11 0.930 . S
C17 C13 1.429 . S
C17 C16 1.391 . S
H18 C21 0.931 . S
H19 C24 0.928 . S
H20 C26 0.930 . S
C21 H18 0.931 . S
C21 C22 1.413 . S
C21 C23 1.360 . S
C22 C21 1.413 . S
C22 C26 1.429 . S
C23 C21 1.360 . S
C23 C24 1.372 . S
C24 H19 0.928 . S
C24 C23 1.372 . S
C24 C25 1.404 . S
C25 C24 1.404 . S
C25 C26 1.391 . S
C26 H20 0.930 . S
C26 C22 1.429 . S
C26 C25 1.391 . S
H27 C30 0.931 . S
H28 C33 0.928 . S
H29 C35 0.930 . S
C30 H27 0.931 . S
C30 C31 1.413 . S
C30 C32 1.360 . S
C31 C30 1.413 . S
C31 C35 1.429 . S
C32 C30 1.360 . S
C32 C33 1.372 . S
C33 H28 0.928 . S
C33 C32 1.372 . S
C33 C34 1.404 . S
C34 C33 1.404 . S
C34 C35 1.391 . S
C35 H29 0.930 . S
C35 C31 1.429 . S
C35 C34 1.391 . S
H36 C39 0.931 . S
H37 C42 0.928 . S
H38 C44 0.930 . S
C39 H36 0.931 . S
C39 C40 1.413 . S
C39 C41 1.360 . S
C40 C39 1.413 . S
C40 C44 1.429 . S
C41 C39 1.360 . S
C41 C42 1.372 . S
C42 H37 0.928 . S
C42 C41 1.372 . S
C42 C43 1.404 . S
C43 C42 1.404 . S
C43 C44 1.391 . S
C44 H38 0.930 . S
C44 C40 1.429 . S
C44 C43 1.391 . S
H45 C48 0.931 . S
H46 C51 0.928 . S
H47 C53 0.930 . S
C48 H45 0.931 . S
C48 C49 1.413 . S
C48 C50 1.360 . S
C49 C48 1.413 . S
C49 C53 1.429 . S
C50 C48 1.360 . S
C50 C51 1.372 . S
C51 H46 0.928 . S
C51 C50 1.372 . S
C51 C52 1.404 . S
C52 C51 1.404 . S
C52 C53 1.391 . S
C53 H47 0.930 . S
C53 C49 1.429 . S
C53 C52 1.391 . S
H54 C57 0.931 . S
H55 C60 0.928 . S
H56 C62 0.930 . S
C57 H54 0.931 . S
C57 C58 1.413 . S
C57 C59 1.360 . S
C58 C57 1.413 . S
C58 C62 1.429 . S
C59 C57 1.360 . S
C59 C60 1.372 . S
C60 H55 0.928 . S
C60 C59 1.372 . S
C60 C61 1.404 . S
C61 C60 1.404 . S
C61 C62 1.391 . S
C62 H56 0.930 . S
C62 C58 1.429 . S
C62 C61 1.391 . S
H63 C66 0.931 . S
H64 C69 0.928 . S
H65 C71 0.930 . S
C66 H63 0.931 . S
C66 C67 1.413 . S
C66 C68 1.360 . S
C67 C66 1.413 . S
C67 C71 1.429 . S
C68 C66 1.360 . S
C68 C69 1.372 . S
C69 H64 0.928 . S
C69 C68 1.372 . S
C69 C70 1.404 . S
C70 C69 1.404 . S
C70 C71 1.391 . S
C71 H65 0.930 . S
C71 C67 1.429 . S
C71 C70 1.391 . S
Co72 N77 2.057 . S
Co72 O89 2.021 . S
Co72 O92 2.062 . S
Co72 O96 2.117 1_545 S
Co72 O97 2.020 1_545 S
C73 O93 1.259 1_655 S
C73 O96 1.258 . S
Co74 N83 2.057 . S
Co74 O90 2.117 1_565 S
Co74 O91 2.020 1_565 S
Co74 O93 2.021 . S
Co74 O98 2.062 . S
C75 N77 1.316 . S
C75 N78 1.347 . S
C75 H80 0.931 . S
C76 N77 1.375 1_565 S
C76 C79 1.350 1_565 S
C76 H81 0.930 . S
N77 Co72 2.057 . S
N77 C75 1.316 . S
N77 C76 1.375 1_545 S
N78 C75 1.347 . S
N78 C79 1.373 . S
C79 C76 1.350 1_545 S
C79 N78 1.373 . S
C79 H100 0.931 . S
H80 C75 0.931 . S
H81 C76 0.930 . S
C82 O89 1.259 1_455 S
C82 O90 1.258 . S
N83 Co74 2.057 . S
N83 C84 1.316 . S
N83 C85 1.375 1_565 S
C84 N83 1.316 . S
C84 N86 1.347 . S
C84 H95 0.931 . S
C85 N83 1.375 1_545 S
C85 C87 1.350 1_545 S
C85 H94 0.930 . S
N86 C84 1.347 . S
N86 C87 1.373 . S
C87 C85 1.350 1_565 S
C87 N86 1.373 . S
C87 H101 0.931 1_565 S
C88 O91 1.256 . S
C88 O92 1.255 1_455 S
O89 Co72 2.021 . S
O89 C82 1.259 1_655 S
O90 Co74 2.117 1_545 S
O90 C82 1.258 . S
O91 Co74 2.020 1_545 S
O91 C88 1.256 . S
O92 Co72 2.062 . S
O92 C88 1.255 1_655 S
O93 C73 1.259 1_455 S
O93 Co74 2.021 . S
H94 C85 0.930 . S
H95 C84 0.931 . S
O96 Co72 2.117 1_565 S
O96 C73 1.258 . S
O97 Co72 2.020 1_565 S
O97 C99 1.256 . S
O98 Co74 2.062 . S
O98 C99 1.255 1_455 S
C99 O97 1.256 . S
C99 O98 1.255 1_655 S
H100 C79 0.931 . S
H101 C87 0.931 1_545 S
Co102 N107 2.069 . S
Co102 O119 2.000 1_565 S
Co102 O122 2.069 . S
Co102 O126 2.136 1_556 S
Co102 O127 2.011 1_565 S
C103 O123 1.259 . S
C103 O126 1.258 . S
Co104 N113 2.057 . S
Co104 O120 2.117 . S
Co104 O121 2.020 1_545 S
Co104 O123 2.021 1_545 S
Co104 O128 2.062 . S
C105 N107 1.316 . S
C105 N108 1.347 . S
C105 H110 0.931 1_565 S
C106 N107 1.375 . S
C106 C109 1.350 . S
C106 H111 0.930 . S
N107 Co102 2.069 . S
N107 C105 1.316 . S
N107 C106 1.375 . S
N108 C105 1.347 . S
N108 C109 1.373 . S
C109 C106 1.350 . S
C109 N108 1.373 . S
C109 H130 0.931 . S
H110 C105 0.931 1_545 S
H111 C106 0.930 . S
C112 O119 1.259 . S
C112 O120 1.258 1_556 S
N113 Co104 2.057 . S
N113 C114 1.316 . S
N113 C115 1.375 . S
C114 N113 1.316 . S
C114 N116 1.347 . S
C114 H125 0.909 1_545 S
C115 N113 1.375 . S
C115 C117 1.350 . S
C115 H124 0.930 . S
N116 C114 1.347 . S
N116 C117 1.373 . S
C117 C115 1.350 . S
C117 N116 1.373 . S
C117 H131 0.931 . S
C118 O121 1.256 1_556 S
C118 O122 1.255 . S
O119 Co102 2.000 1_545 S
O119 C112 1.259 . S
O120 Co104 2.117 . S
O120 C112 1.258 1_554 S
O121 Co104 2.020 1_565 S
O121 C118 1.256 1_554 S
O122 Co102 2.069 . S
O122 C118 1.255 . S
O123 C103 1.259 . S
O123 Co104 2.021 1_565 S
H124 C115 0.930 . S
H125 C114 0.909 1_565 S
O126 Co102 2.136 1_554 S
O126 C103 1.258 . S
O127 Co102 2.011 1_545 S
O127 C129 1.256 1_556 S
O128 Co104 2.062 . S
O128 C129 1.255 . S
C129 O127 1.256 1_554 S
C129 O128 1.255 . S
H130 C109 0.931 . S
H131 C117 0.931 . S
Co132 N137 2.057 . S
Co132 O149 2.021 . S
Co132 O152 2.062 . S
Co132 O156 2.117 . S
Co132 O157 2.020 . S
C133 O153 1.259 . S
C133 O156 1.258 . S
Co134 N143 2.057 . S
Co134 O150 2.117 . S
Co134 O151 2.020 . S
Co134 O153 2.021 . S
Co134 O158 2.062 . S
C135 N137 1.316 . S
C135 N138 1.347 . S
C135 H140 0.931 . S
C136 N137 1.375 . S
C136 C139 1.350 . S
C136 H141 0.930 . S
N137 Co132 2.057 . S
N137 C135 1.316 . S
N137 C136 1.375 . S
N138 C135 1.347 . S
N138 C139 1.373 . S
C139 C136 1.350 . S
C139 N138 1.373 . S
C139 H160 0.931 . S
H140 C135 0.931 . S
H141 C136 0.930 . S
C142 O149 1.259 . S
C142 O150 1.258 . S
N143 Co134 2.057 . S
N143 C144 1.316 . S
N143 C145 1.375 . S
C144 N143 1.316 . S
C144 N146 1.347 . S
C144 H155 0.931 . S
C145 N143 1.375 . S
C145 C147 1.350 . S
C145 H154 0.930 . S
N146 C144 1.347 . S
N146 C147 1.373 . S
C147 C145 1.350 . S
C147 N146 1.373 . S
C147 H161 0.931 . S
C148 O151 1.256 . S
C148 O152 1.255 . S
O149 Co132 2.021 . S
O149 C142 1.259 . S
O150 Co134 2.117 . S
O150 C142 1.258 . S
O151 Co134 2.020 . S
O151 C148 1.256 . S
O152 Co132 2.062 . S
O152 C148 1.255 . S
O153 C133 1.259 . S
O153 Co134 2.021 . S
H154 C145 0.930 . S
H155 C144 0.931 . S
O156 Co132 2.117 . S
O156 C133 1.258 . S
O157 Co132 2.020 . S
O157 C159 1.256 . S
O158 Co134 2.062 . S
O158 C159 1.255 . S
C159 O157 1.256 . S
C159 O158 1.255 . S
H160 C139 0.931 . S
H161 C147 0.931 . S
Co162 N167 2.057 . S
Co162 O179 2.021 . S
Co162 O182 2.062 . S
Co162 O186 2.117 1_455 S
Co162 O187 2.020 1_455 S
C163 O183 1.259 1_556 S
C163 O186 1.258 . S
Co164 N173 2.057 . S
Co164 O180 2.117 1_655 S
Co164 O181 2.020 1_655 S
Co164 O183 2.021 . S
Co164 O188 2.062 . S
C165 N167 1.316 . S
C165 N168 1.347 . S
C165 H170 0.931 . S
C166 N167 1.375 1_655 S
C166 C169 1.350 1_655 S
C166 H171 0.930 . S
N167 Co162 2.057 . S
N167 C165 1.316 . S
N167 C166 1.375 1_455 S
N168 C165 1.347 . S
N168 C169 1.373 . S
C169 C166 1.350 1_455 S
C169 N168 1.373 . S
C169 H190 0.931 1_455 S
H170 C165 0.931 . S
H171 C166 0.930 . S
C172 O179 1.259 1_554 S
C172 O180 1.258 . S
N173 Co164 2.057 . S
N173 C174 1.316 . S
N173 C175 1.375 1_655 S
C174 N173 1.316 . S
C174 N176 1.347 . S
C174 H185 0.931 . S
C175 N173 1.375 1_455 S
C175 C177 1.350 1_455 S
C175 H184 0.930 . S
N176 C174 1.347 . S
N176 C177 1.373 . S
C177 C175 1.350 1_655 S
C177 N176 1.373 . S
C177 H191 0.931 1_655 S
C178 O181 1.256 . S
C178 O182 1.255 1_554 S
O179 Co162 2.021 . S
O179 C172 1.259 1_556 S
O180 Co164 2.117 1_455 S
O180 C172 1.258 . S
O181 Co164 2.020 1_455 S
O181 C178 1.256 . S
O182 Co162 2.062 . S
O182 C178 1.255 1_556 S
O183 C163 1.259 1_554 S
O183 Co164 2.021 . S
H184 C175 0.930 . S
H185 C174 0.931 . S
O186 Co162 2.117 1_655 S
O186 C163 1.258 . S
O187 Co162 2.020 1_655 S
O187 C189 1.256 . S
O188 Co164 2.062 . S
O188 C189 1.255 1_554 S
C189 O187 1.256 . S
C189 O188 1.255 1_556 S
H190 C169 0.931 1_655 S
H191 C177 0.931 1_455 S
H192 C204 0.930 . S
H193 C206 0.930 . S
H194 C207 0.930 . S
H195 C211 0.959 . S
H196 C211 0.959 1_565 S
H197 C211 0.960 1_565 S
H198 C212 0.960 . S
H199 C212 0.961 . S
H200 C212 0.959 . S
H201 C215 0.929 . S
H202 C216 0.931 . S
H203 C218 0.941 . S
C204 H192 0.930 . S
C204 C205 1.399 . S
C204 C209 1.399 . S
C205 C204 1.399 . S
C205 C206 1.376 . S
C206 H193 0.930 . S
C206 C205 1.376 . S
C206 C207 1.388 . S
C207 H194 0.930 . S
C207 C206 1.388 . S
C207 C208 1.390 . S
C208 C207 1.390 . S
C208 C209 1.394 . S
C208 C214 1.465 . S
C209 C204 1.399 . S
C209 C208 1.394 . S
C209 C210 1.516 . S
C210 C209 1.516 . S
C210 C211 1.502 . S
C210 C212 1.561 1_545 S
C210 C213 1.526 . S
C211 H195 0.959 . S
C211 H196 0.959 1_545 S
C211 H197 0.960 1_545 S
C211 C210 1.502 . S
C212 H198 0.960 . S
C212 H199 0.961 . S
C212 H200 0.959 . S
C212 C210 1.561 1_565 S
C213 C210 1.526 . S
C213 C214 1.396 . S
C213 C218 1.390 . S
C214 C208 1.465 . S
C214 C213 1.396 . S
C214 C215 1.399 . S
C215 H201 0.929 . S
C215 C214 1.399 . S
C215 C216 1.385 . S
C216 H202 0.931 . S
C216 C215 1.385 . S
C216 C217 1.389 . S
C217 C216 1.389 . S
C217 C218 1.387 . S
C218 H203 0.941 . S
C218 C213 1.390 . S
C218 C217 1.387 . S
H219 C231 0.930 . S
H220 C233 0.930 . S
H221 C234 0.930 . S
H222 C238 0.959 . S
H223 C238 0.959 1_545 S
H224 C238 0.961 . S
H225 C239 0.960 . S
H226 C239 0.961 1_545 S
H227 C239 0.959 . S
H228 C242 0.929 . S
H229 C243 0.931 . S
H230 C245 0.930 . S
C231 H219 0.930 . S
C231 C232 1.399 . S
C231 C236 1.399 . S
C232 C231 1.399 . S
C232 C233 1.376 . S
C233 H220 0.930 . S
C233 C232 1.376 . S
C233 C234 1.388 . S
C234 H221 0.930 . S
C234 C233 1.388 . S
C234 C235 1.390 . S
C235 C234 1.390 . S
C235 C236 1.394 . S
C235 C241 1.465 . S
C236 C231 1.399 . S
C236 C235 1.394 . S
C236 C237 1.516 . S
C237 C236 1.516 . S
C237 C238 1.502 . S
C237 C239 1.561 . S
C237 C240 1.526 . S
C238 H222 0.959 . S
C238 H223 0.959 1_565 S
C238 H224 0.961 . S
C238 C237 1.502 . S
C239 H225 0.960 . S
C239 H226 0.961 1_565 S
C239 H227 0.959 . S
C239 C237 1.561 . S
C240 C237 1.526 . S
C240 C241 1.396 . S
C240 C245 1.390 . S
C241 C235 1.465 . S
C241 C240 1.396 . S
C241 C242 1.399 . S
C242 H228 0.929 . S
C242 C241 1.399 . S
C242 C243 1.385 . S
C243 H229 0.931 . S
C243 C242 1.385 . S
C243 C244 1.389 . S
C244 C243 1.389 . S
C244 C245 1.387 . S
C245 H230 0.930 . S
C245 C240 1.390 . S
C245 C244 1.387 . S
H246 C258 0.930 . S
H247 C260 0.930 . S
H248 C261 0.930 . S
H249 C265 0.959 . S
H250 C265 0.959 . S
H251 C265 0.961 . S
H252 C266 0.960 . S
H253 C266 0.961 . S
H254 C266 0.959 . S
H255 C269 0.929 . S
H256 C270 0.931 . S
H257 C272 0.930 . S
C258 H246 0.930 . S
C258 C259 1.399 . S
C258 C263 1.399 . S
C259 C258 1.399 . S
C259 C260 1.376 . S
C260 H247 0.930 . S
C260 C259 1.376 . S
C260 C261 1.388 . S
C261 H248 0.930 . S
C261 C260 1.388 . S
C261 C262 1.390 . S
C262 C261 1.390 . S
C262 C263 1.394 . S
C262 C268 1.465 . S
C263 C258 1.399 . S
C263 C262 1.394 . S
C263 C264 1.516 . S
C264 C263 1.516 . S
C264 C265 1.502 . S
C264 C266 1.561 . S
C264 C267 1.526 . S
C265 H249 0.959 . S
C265 H250 0.959 . S
C265 H251 0.961 . S
C265 C264 1.502 . S
C266 H252 0.960 . S
C266 H253 0.961 . S
C266 H254 0.959 . S
C266 C264 1.561 . S
C267 C264 1.526 . S
C267 C268 1.396 . S
C267 C272 1.390 . S
C268 C262 1.465 . S
C268 C267 1.396 . S
C268 C269 1.399 . S
C269 H255 0.929 . S
C269 C268 1.399 . S
C269 C270 1.385 . S
C270 H256 0.931 . S
C270 C269 1.385 . S
C270 C271 1.389 . S
C271 C270 1.389 . S
C271 C272 1.387 . S
C272 H257 0.930 . S
C272 C267 1.390 . S
C272 C271 1.387 . S
H273 C285 0.930 . S
H274 C287 0.930 . S
H275 C288 0.930 . S
H276 C292 0.959 . S
H277 C292 0.959 . S
H278 C292 0.961 . S
H279 C293 0.960 . S
H280 C293 0.961 . S
H281 C293 0.959 . S
H282 C296 0.929 . S
H283 C297 0.931 . S
H284 C299 0.930 . S
C285 H273 0.930 . S
C285 C286 1.399 . S
C285 C290 1.399 . S
C286 C285 1.399 . S
C286 C287 1.376 . S
C287 H274 0.930 . S
C287 C286 1.376 . S
C287 C288 1.388 . S
C288 H275 0.930 . S
C288 C287 1.388 . S
C288 C289 1.390 . S
C289 C288 1.390 . S
C289 C290 1.394 . S
C289 C295 1.465 . S
C290 C285 1.399 . S
C290 C289 1.394 . S
C290 C291 1.516 . S
C291 C290 1.516 . S
C291 C292 1.502 . S
C291 C293 1.561 . S
C291 C294 1.526 . S
C292 H276 0.959 . S
C292 H277 0.959 . S
C292 H278 0.961 . S
C292 C291 1.502 . S
C293 H279 0.960 . S
C293 H280 0.961 . S
C293 H281 0.959 . S
C293 C291 1.561 . S
C294 C291 1.526 . S
C294 C295 1.396 . S
C294 C299 1.390 . S
C295 C289 1.465 . S
C295 C294 1.396 . S
C295 C296 1.399 . S
C296 H282 0.929 . S
C296 C295 1.399 . S
C296 C297 1.385 . S
C297 H283 0.931 . S
C297 C296 1.385 . S
C297 C298 1.389 . S
C298 C297 1.389 . S
C298 C299 1.387 . S
C299 H284 0.930 . S
C299 C294 1.390 . S
C299 C298 1.387 . S
H300 C312 0.930 . S
H301 C314 0.930 . S
H302 C315 0.930 . S
H303 C319 0.959 . S
H304 C319 0.959 . S
H305 C319 0.961 . S
H306 C320 0.960 . S
H307 C320 0.961 . S
H308 C320 0.959 . S
H309 C323 0.929 . S
H310 C324 0.931 . S
H311 C326 0.930 . S
C312 H300 0.930 . S
C312 C313 1.399 . S
C312 C317 1.399 . S
C313 C312 1.399 . S
C313 C314 1.376 . S
C314 H301 0.930 . S
C314 C313 1.376 . S
C314 C315 1.388 . S
C315 H302 0.930 . S
C315 C314 1.388 . S
C315 C316 1.390 . S
C316 C315 1.390 . S
C316 C317 1.394 . S
C316 C322 1.465 . S
C317 C312 1.399 . S
C317 C316 1.394 . S
C317 C318 1.516 . S
C318 C317 1.516 . S
C318 C319 1.502 . S
C318 C320 1.561 . S
C318 C321 1.526 . S
C319 H303 0.959 . S
C319 H304 0.959 . S
C319 H305 0.961 . S
C319 C318 1.502 . S
C320 H306 0.960 . S
C320 H307 0.961 . S
C320 H308 0.959 . S
C320 C318 1.561 . S
C321 C318 1.526 . S
C321 C322 1.396 . S
C321 C326 1.390 . S
C322 C316 1.465 . S
C322 C321 1.396 . S
C322 C323 1.399 . S
C323 H309 0.929 . S
C323 C322 1.399 . S
C323 C324 1.385 . S
C324 H310 0.931 . S
C324 C323 1.385 . S
C324 C325 1.389 . S
C325 C324 1.389 . S
C325 C326 1.387 . S
C326 H311 0.930 . S
C326 C321 1.390 . S
C326 C325 1.387 . S
H327 C339 0.930 . S
H328 C341 0.930 . S
H329 C342 0.930 . S
H330 C346 0.959 . S
H331 C346 0.959 . S
H332 C346 0.961 . S
H333 C347 0.960 . S
H334 C347 0.961 . S
H335 C347 0.959 . S
H336 C350 0.929 . S
H337 C351 0.931 . S
H338 C353 0.930 . S
C339 H327 0.930 . S
C339 C340 1.399 . S
C339 C344 1.399 . S
C340 C339 1.399 . S
C340 C341 1.376 . S
C341 H328 0.930 . S
C341 C340 1.376 . S
C341 C342 1.388 . S
C342 H329 0.930 . S
C342 C341 1.388 . S
C342 C343 1.390 . S
C343 C342 1.390 . S
C343 C344 1.394 . S
C343 C349 1.465 . S
C344 C339 1.399 . S
C344 C343 1.394 . S
C344 C345 1.516 . S
C345 C344 1.516 . S
C345 C346 1.502 . S
C345 C347 1.561 . S
C345 C348 1.526 . S
C346 H330 0.959 . S
C346 H331 0.959 . S
C346 H332 0.961 . S
C346 C345 1.502 . S
C347 H333 0.960 . S
C347 H334 0.961 . S
C347 H335 0.959 . S
C347 C345 1.561 . S
C348 C345 1.526 . S
C348 C349 1.396 . S
C348 C353 1.390 . S
C349 C343 1.465 . S
C349 C348 1.396 . S
C349 C350 1.399 . S
C350 H336 0.929 . S
C350 C349 1.399 . S
C350 C351 1.385 . S
C351 H337 0.931 . S
C351 C350 1.385 . S
C351 C352 1.389 . S
C352 C351 1.389 . S
C352 C353 1.387 . S
C353 H338 0.930 . S
C353 C348 1.390 . S
C353 C352 1.387 . S
H354 C366 0.930 . S
H355 C368 0.930 . S
H356 C369 0.930 . S
H357 C373 0.959 . S
H358 C373 0.959 . S
H359 C373 0.961 . S
H360 C374 0.960 . S
H361 C374 0.961 . S
H362 C374 0.959 . S
H363 C377 0.929 . S
H364 C378 0.931 . S
H365 C380 0.930 . S
C366 H354 0.930 . S
C366 C367 1.399 . S
C366 C371 1.399 . S
C367 C366 1.399 . S
C367 C368 1.376 . S
C368 H355 0.930 . S
C368 C367 1.376 . S
C368 C369 1.388 . S
C369 H356 0.930 . S
C369 C368 1.388 . S
C369 C370 1.390 . S
C370 C369 1.390 . S
C370 C371 1.394 . S
C370 C376 1.465 . S
C371 C366 1.399 . S
C371 C370 1.394 . S
C371 C372 1.516 . S
C372 C371 1.516 . S
C372 C373 1.502 . S
C372 C374 1.561 . S
C372 C375 1.526 . S
C373 H357 0.959 . S
C373 H358 0.959 . S
C373 H359 0.961 . S
C373 C372 1.502 . S
C374 H360 0.960 . S
C374 H361 0.961 . S
C374 H362 0.959 . S
C374 C372 1.561 . S
C375 C372 1.526 . S
C375 C376 1.396 . S
C375 C380 1.390 . S
C376 C370 1.465 . S
C376 C375 1.396 . S
C376 C377 1.399 . S
C377 H363 0.929 . S
C377 C376 1.399 . S
C377 C378 1.385 . S
C378 H364 0.931 . S
C378 C377 1.385 . S
C378 C379 1.389 . S
C379 C378 1.389 . S
C379 C380 1.387 . S
C380 H365 0.930 . S
C380 C375 1.390 . S
C380 C379 1.387 . S
H381 C393 0.930 . S
H382 C395 0.930 . S
H383 C396 0.930 . S
H384 C400 0.959 . S
H385 C400 0.959 . S
H386 C400 0.961 . S
H387 C401 0.960 . S
H388 C401 0.961 . S
H389 C401 0.959 . S
H390 C404 0.929 . S
H391 C405 0.931 . S
H392 C407 0.930 . S
C393 H381 0.930 . S
C393 C394 1.399 . S
C393 C398 1.399 . S
C394 C393 1.399 . S
C394 C395 1.376 . S
C395 H382 0.930 . S
C395 C394 1.376 . S
C395 C396 1.388 . S
C396 H383 0.930 . S
C396 C395 1.388 . S
C396 C397 1.390 . S
C397 C396 1.390 . S
C397 C398 1.394 . S
C397 C403 1.465 . S
C398 C393 1.399 . S
C398 C397 1.394 . S
C398 C399 1.516 . S
C399 C398 1.516 . S
C399 C400 1.502 . S
C399 C401 1.561 . S
C399 C402 1.526 . S
C400 H384 0.959 . S
C400 H385 0.959 . S
C400 H386 0.961 . S
C400 C399 1.502 . S
C401 H387 0.960 . S
C401 H388 0.961 . S
C401 H389 0.959 . S
C401 C399 1.561 . S
C402 C399 1.526 . S
C402 C403 1.396 . S
C402 C407 1.390 . S
C403 C397 1.465 . S
C403 C402 1.396 . S
C403 C404 1.399 . S
C404 H390 0.929 . S
C404 C403 1.399 . S
C404 C405 1.385 . S
C405 H391 0.931 . S
C405 C404 1.385 . S
C405 C406 1.389 . S
C406 C405 1.389 . S
C406 C407 1.387 . S
C407 H392 0.930 . S
C407 C402 1.390 . S
C407 C406 1.387 . S
H408 C420 0.930 . S
H409 C422 0.930 . S
H410 C423 0.930 . S
H411 C427 0.959 . S
H412 C427 0.959 . S
H413 C427 0.961 . S
H414 C428 0.960 . S
H415 C428 0.961 . S
H416 C428 0.959 . S
H417 C431 0.929 1_556 S
H418 C432 0.931 1_556 S
H419 C434 0.930 . S
C420 H408 0.930 . S
C420 C421 1.399 . S
C420 C425 1.399 . S
C421 C420 1.399 . S
C421 C422 1.376 . S
C422 H409 0.930 . S
C422 C421 1.376 . S
C422 C423 1.388 . S
C423 H410 0.930 . S
C423 C422 1.388 . S
C423 C424 1.390 . S
C424 C423 1.390 . S
C424 C425 1.394 . S
C424 C430 1.465 . S
C425 C420 1.399 . S
C425 C424 1.394 . S
C425 C426 1.516 . S
C426 C425 1.516 . S
C426 C427 1.502 . S
C426 C428 1.561 . S
C426 C429 1.526 . S
C427 H411 0.959 . S
C427 H412 0.959 . S
C427 H413 0.961 . S
C427 C426 1.502 . S
C428 H414 0.960 . S
C428 H415 0.961 . S
C428 H416 0.959 . S
C428 C426 1.561 . S
C429 C426 1.526 . S
C429 C430 1.396 . S
C429 C434 1.390 . S
C430 C424 1.465 . S
C430 C429 1.396 . S
C430 C431 1.399 . S
C431 H417 0.929 1_554 S
C431 C430 1.399 . S
C431 C432 1.385 . S
C432 H418 0.931 1_554 S
C432 C431 1.385 . S
C432 C433 1.389 . S
C433 C432 1.389 . S
C433 C434 1.387 . S
C434 H419 0.930 . S
C434 C429 1.390 . S
C434 C433 1.387 . S
H435 C447 0.930 . S
H436 C449 0.930 . S
H437 C450 0.930 . S
H438 C454 0.944 1_556 S
H439 C454 0.978 . S
H440 C454 0.969 . S
H441 C455 0.960 . S
H442 C455 0.961 . S
H443 C455 0.959 1_556 S
H444 C458 0.929 . S
H445 C459 0.931 . S
H446 C461 0.930 1_554 S
C447 H435 0.930 . S
C447 C448 1.399 . S
C447 C452 1.399 . S
C448 C447 1.399 . S
C448 C449 1.376 . S
C449 H436 0.930 . S
C449 C448 1.376 . S
C449 C450 1.388 . S
C450 H437 0.930 . S
C450 C449 1.388 . S
C450 C451 1.390 . S
C451 C450 1.390 . S
C451 C452 1.394 . S
C451 C457 1.465 . S
C452 C447 1.399 . S
C452 C451 1.394 . S
C452 C453 1.516 . S
C453 C452 1.516 . S
C453 C454 1.490 1_556 S
C453 C455 1.561 1_556 S
C453 C456 1.526 . S
C454 H438 0.944 1_554 S
C454 H439 0.978 . S
C454 H440 0.969 . S
C454 C453 1.490 1_554 S
C455 H441 0.960 . S
C455 H442 0.961 . S
C455 H443 0.959 1_554 S
C455 C453 1.561 1_554 S
C456 C453 1.526 . S
C456 C457 1.396 . S
C456 C461 1.390 . S
C457 C451 1.465 . S
C457 C456 1.396 . S
C457 C458 1.399 . S
C458 H444 0.929 . S
C458 C457 1.399 . S
C458 C459 1.385 . S
C459 H445 0.931 . S
C459 C458 1.385 . S
C459 C460 1.389 . S
C460 C459 1.389 . S
C460 C461 1.387 . S
C461 H446 0.930 1_556 S
C461 C456 1.390 . S
C461 C460 1.387 . S
H462 C474 0.930 . S
H463 C476 0.930 . S
H464 C477 0.930 . S
H465 C481 0.959 . S
H466 C481 0.959 . S
H467 C481 0.961 . S
H468 C482 0.960 . S
H469 C482 0.961 . S
H470 C482 0.959 . S
H471 C485 0.929 . S
H472 C486 0.931 . S
H473 C488 0.926 1_455 S
C474 H462 0.930 . S
C474 C475 1.399 . S
C474 C479 1.399 . S
C475 C474 1.399 . S
C475 C476 1.376 . S
C476 H463 0.930 . S
C476 C475 1.376 . S
C476 C477 1.388 . S
C477 H464 0.930 . S
C477 C476 1.388 . S
C477 C478 1.390 . S
C478 C477 1.390 . S
C478 C479 1.394 . S
C478 C484 1.465 . S
C479 C474 1.399 . S
C479 C478 1.394 . S
C479 C480 1.516 . S
C480 C479 1.516 . S
C480 C481 1.502 1_655 S
C480 C482 1.561 . S
C480 C483 1.526 . S
C481 H465 0.959 . S
C481 H466 0.959 . S
C481 H467 0.961 . S
C481 C480 1.502 1_455 S
C482 H468 0.960 . S
C482 H469 0.961 . S
C482 H470 0.959 . S
C482 C480 1.561 . S
C483 C480 1.526 . S
C483 C484 1.396 . S
C483 C488 1.390 . S
C484 C478 1.465 . S
C484 C483 1.396 . S
C484 C485 1.399 . S
C485 H471 0.929 . S
C485 C484 1.399 . S
C485 C486 1.385 . S
C486 H472 0.931 . S
C486 C485 1.385 . S
C486 C487 1.389 . S
C487 C486 1.389 . S
C487 C488 1.387 . S
C488 H473 0.926 1_655 S
C488 C483 1.390 . S
C488 C487 1.387 . S
H489 C501 0.930 . S
H490 C503 0.930 . S
H491 C504 0.930 . S
H492 C508 0.959 . S
H493 C508 0.959 . S
H494 C508 0.961 . S
H495 C509 0.960 . S
H496 C509 0.961 . S
H497 C509 0.959 . S
H498 C512 0.929 . S
H499 C513 0.931 . S
H500 C515 0.930 . S
C501 H489 0.930 . S
C501 C502 1.399 . S
C501 C506 1.399 . S
C502 C501 1.399 . S
C502 C503 1.376 . S
C503 H490 0.930 . S
C503 C502 1.376 . S
C503 C504 1.388 . S
C504 H491 0.930 . S
C504 C503 1.388 . S
C504 C505 1.390 . S
C505 C504 1.390 . S
C505 C506 1.394 . S
C505 C511 1.465 . S
C506 C501 1.399 . S
C506 C505 1.394 . S
C506 C507 1.516 . S
C507 C506 1.516 . S
C507 C508 1.502 . S
C507 C509 1.561 . S
C507 C510 1.526 . S
C508 H492 0.959 . S
C508 H493 0.959 . S
C508 H494 0.961 . S
C508 C507 1.502 . S
C509 H495 0.960 . S
C509 H496 0.961 . S
C509 H497 0.959 . S
C509 C507 1.561 . S
C510 C507 1.526 . S
C510 C511 1.396 . S
C510 C515 1.390 . S
C511 C505 1.465 . S
C511 C510 1.396 . S
C511 C512 1.399 . S
C512 H498 0.929 . S
C512 C511 1.399 . S
C512 C513 1.385 . S
C513 H499 0.931 . S
C513 C512 1.385 . S
C513 C514 1.389 . S
C514 C513 1.389 . S
C514 C515 1.387 . S
C515 H500 0.930 . S
C515 C510 1.390 . S
C515 C514 1.387 . S
H516 C528 0.930 . S
H517 C530 0.930 . S
H518 C531 0.930 1_545 S
H519 C535 0.959 . S
H520 C535 0.959 . S
H521 C535 0.961 . S
H522 C536 0.960 . S
H523 C536 0.961 . S
H524 C536 0.959 . S
H525 C539 0.929 . S
H526 C540 0.931 . S
H527 C542 0.930 . S
C528 H516 0.930 . S
C528 C529 1.399 . S
C528 C533 1.399 . S
C529 C528 1.399 . S
C529 C530 1.376 . S
C530 H517 0.930 . S
C530 C529 1.376 . S
C530 C531 1.388 . S
C531 H518 0.930 1_565 S
C531 C530 1.388 . S
C531 C532 1.390 . S
C532 C531 1.390 . S
C532 C533 1.394 . S
C532 C538 1.465 . S
C533 C528 1.399 . S
C533 C532 1.394 . S
C533 C534 1.516 . S
C534 C533 1.516 . S
C534 C535 1.502 . S
C534 C536 1.561 . S
C534 C537 1.526 . S
C535 H519 0.959 . S
C535 H520 0.959 . S
C535 H521 0.961 . S
C535 C534 1.502 . S
C536 H522 0.960 . S
C536 H523 0.961 . S
C536 H524 0.959 . S
C536 C534 1.561 . S
C537 C534 1.526 . S
C537 C538 1.396 . S
C537 C542 1.390 . S
C538 C532 1.465 . S
C538 C537 1.396 . S
C538 C539 1.399 1_565 S
C539 H525 0.929 . S
C539 C538 1.399 1_545 S
C539 C540 1.385 . S
C540 H526 0.931 . S
C540 C539 1.385 . S
C540 C541 1.389 1_545 S
C541 C540 1.389 1_565 S
C541 C542 1.387 . S
C542 H527 0.930 . S
C542 C537 1.390 . S
C542 C541 1.387 . S
H543 C555 0.930 . S
H544 C557 0.930 . S
H545 C558 0.930 . S
H546 C562 0.959 . S
H547 C562 0.959 . S
H548 C562 0.961 . S
H549 C563 0.960 . S
H550 C563 0.961 . S
H551 C563 0.959 . S
H552 C566 0.929 . S
H553 C567 0.931 1_565 S
H554 C569 0.930 . S
C555 H543 0.930 . S
C555 C556 1.399 . S
C555 C560 1.399 . S
C556 C555 1.399 . S
C556 C557 1.376 . S
C557 H544 0.930 . S
C557 C556 1.376 . S
C557 C558 1.388 . S
C558 H545 0.930 . S
C558 C557 1.388 . S
C558 C559 1.390 . S
C559 C558 1.390 . S
C559 C560 1.394 . S
C559 C565 1.465 . S
C560 C555 1.399 . S
C560 C559 1.394 . S
C560 C561 1.516 . S
C561 C560 1.516 . S
C561 C562 1.502 . S
C561 C563 1.561 . S
C561 C564 1.526 . S
C562 H546 0.959 . S
C562 H547 0.959 . S
C562 H548 0.961 . S
C562 C561 1.502 . S
C563 H549 0.960 . S
C563 H550 0.961 . S
C563 H551 0.959 . S
C563 C561 1.561 . S
C564 C561 1.526 . S
C564 C565 1.396 . S
C564 C569 1.390 . S
C565 C559 1.465 . S
C565 C564 1.396 . S
C565 C566 1.399 . S
C566 H552 0.929 . S
C566 C565 1.399 . S
C566 C567 1.385 . S
C567 H553 0.931 1_545 S
C567 C566 1.385 . S
C567 C568 1.389 . S
C568 C567 1.389 . S
C568 C569 1.387 . S
C569 H554 0.930 . S
C569 C564 1.390 . S
C569 C568 1.387 . S
H570 C582 0.930 . S
H571 C584 0.930 . S
H572 C585 0.930 . S
H573 C589 0.959 . S
H574 C589 0.959 . S
H575 C589 0.961 . S
H576 C590 0.960 . S
H577 C590 0.961 . S
H578 C590 0.959 . S
H579 C593 0.929 . S
H580 C594 0.931 . S
H581 C596 0.930 . S
C582 H570 0.930 . S
C582 C583 1.399 . S
C582 C587 1.399 . S
C583 C582 1.399 . S
C583 C584 1.376 . S
C584 H571 0.930 . S
C584 C583 1.376 . S
C584 C585 1.388 . S
C585 H572 0.930 . S
C585 C584 1.388 . S
C585 C586 1.390 . S
C586 C585 1.390 . S
C586 C587 1.394 . S
C586 C592 1.465 . S
C587 C582 1.399 . S
C587 C586 1.394 . S
C587 C588 1.516 . S
C588 C587 1.516 . S
C588 C589 1.502 . S
C588 C590 1.561 . S
C588 C591 1.526 . S
C589 H573 0.959 . S
C589 H574 0.959 . S
C589 H575 0.961 . S
C589 C588 1.502 . S
C590 H576 0.960 . S
C590 H577 0.961 . S
C590 H578 0.959 . S
C590 C588 1.561 . S
C591 C588 1.526 . S
C591 C592 1.396 . S
C591 C596 1.390 . S
C592 C586 1.465 . S
C592 C591 1.396 . S
C592 C593 1.399 . S
C593 H579 0.929 . S
C593 C592 1.399 . S
C593 C594 1.385 . S
C594 H580 0.931 . S
C594 C593 1.385 . S
C594 C595 1.389 . S
C595 C594 1.389 . S
C595 C596 1.387 . S
C596 H581 0.930 . S
C596 C591 1.390 . S
C596 C595 1.387 . S
H597 C609 0.930 . S
H598 C611 0.930 . S
H599 C612 0.930 . S
H600 C616 0.959 . S
H601 C616 0.959 . S
H602 C616 0.961 . S
H603 C617 0.960 . S
H604 C617 0.961 . S
H605 C617 0.959 . S
H606 C620 0.929 . S
H607 C621 0.931 . S
H608 C623 0.930 . S
C609 H597 0.930 . S
C609 C610 1.399 . S
C609 C614 1.399 . S
C610 C609 1.399 . S
C610 C611 1.376 . S
C611 H598 0.930 . S
C611 C610 1.376 . S
C611 C612 1.388 . S
C612 H599 0.930 . S
C612 C611 1.388 . S
C612 C613 1.390 . S
C613 C612 1.390 . S
C613 C614 1.394 . S
C613 C619 1.465 . S
C614 C609 1.399 . S
C614 C613 1.394 . S
C614 C615 1.516 . S
C615 C614 1.516 . S
C615 C616 1.502 . S
C615 C617 1.561 . S
C615 C618 1.526 . S
C616 H600 0.959 . S
C616 H601 0.959 . S
C616 H602 0.961 . S
C616 C615 1.502 . S
C617 H603 0.960 . S
C617 H604 0.961 . S
C617 H605 0.959 . S
C617 C615 1.561 . S
C618 C615 1.526 . S
C618 C619 1.396 . S
C618 C623 1.390 . S
C619 C613 1.465 . S
C619 C618 1.396 . S
C619 C620 1.399 . S
C620 H606 0.929 . S
C620 C619 1.399 . S
C620 C621 1.385 . S
C621 H607 0.931 . S
C621 C620 1.385 . S
C621 C622 1.389 . S
C622 C621 1.389 . S
C622 C623 1.387 . S
C623 H608 0.930 . S
C623 C618 1.390 . S
C623 C622 1.387 . S
H624 C636 0.930 . S
H625 C638 0.930 . S
H626 C639 0.930 1_545 S
H627 C643 0.959 . S
H628 C643 0.959 . S
H629 C643 0.961 . S
H630 C644 0.960 . S
H631 C644 0.961 . S
H632 C644 0.959 1_554 S
H633 C647 0.932 . S
H634 C648 0.931 . S
H635 C650 0.930 . S
C636 H624 0.930 . S
C636 C637 1.399 . S
C636 C641 1.399 . S
C637 C636 1.399 . S
C637 C638 1.376 . S
C638 H625 0.930 . S
C638 C637 1.376 . S
C638 C639 1.388 . S
C639 H626 0.930 1_565 S
C639 C638 1.388 . S
C639 C640 1.390 . S
C640 C639 1.390 . S
C640 C641 1.394 . S
C640 C646 1.465 . S
C641 C636 1.399 . S
C641 C640 1.394 . S
C641 C642 1.516 . S
C642 C641 1.516 . S
C642 C643 1.502 . S
C642 C644 1.561 . S
C642 C645 1.526 . S
C643 H627 0.959 . S
C643 H628 0.959 . S
C643 H629 0.961 . S
C643 C642 1.502 . S
C644 H630 0.960 . S
C644 H631 0.961 . S
C644 H632 0.959 1_556 S
C644 C642 1.561 . S
C645 C642 1.526 . S
C645 C646 1.396 . S
C645 C650 1.390 . S
C646 C640 1.465 . S
C646 C645 1.396 . S
C646 C647 1.395 1_565 S
C647 H633 0.932 . S
C647 C646 1.395 1_545 S
C647 C648 1.385 . S
C648 H634 0.931 . S
C648 C647 1.385 . S
C648 C649 1.389 1_545 S
C649 C648 1.389 1_565 S
C649 C650 1.387 . S
C650 H635 0.930 . S
C650 C645 1.390 . S
C650 C649 1.387 . S
H651 C663 0.930 . S
H652 C665 0.930 . S
H653 C666 0.930 . S
H654 C670 0.959 . S
H655 C670 0.959 . S
H656 C670 0.961 . S
H657 C671 0.960 . S
H658 C671 0.961 . S
H659 C671 0.959 . S
H660 C674 0.929 . S
H661 C675 0.931 . S
H662 C677 0.930 . S
C663 H651 0.930 . S
C663 C664 1.399 . S
C663 C668 1.399 . S
C664 C663 1.399 . S
C664 C665 1.376 . S
C665 H652 0.930 . S
C665 C664 1.376 . S
C665 C666 1.388 . S
C666 H653 0.930 . S
C666 C665 1.388 . S
C666 C667 1.390 . S
C667 C666 1.390 . S
C667 C668 1.394 . S
C667 C673 1.465 . S
C668 C663 1.399 . S
C668 C667 1.394 . S
C668 C669 1.516 . S
C669 C668 1.516 . S
C669 C670 1.502 . S
C669 C671 1.561 . S
C669 C672 1.526 . S
C670 H654 0.959 . S
C670 H655 0.959 . S
C670 H656 0.961 . S
C670 C669 1.502 . S
C671 H657 0.960 . S
C671 H658 0.961 . S
C671 H659 0.959 . S
C671 C669 1.561 . S
C672 C669 1.526 . S
C672 C673 1.396 . S
C672 C677 1.390 . S
C673 C667 1.465 . S
C673 C672 1.396 . S
C673 C674 1.399 . S
C674 H660 0.929 . S
C674 C673 1.399 . S
C674 C675 1.385 . S
C675 H661 0.931 . S
C675 C674 1.385 . S
C675 C676 1.389 . S
C676 C675 1.389 . S
C676 C677 1.387 . S
C677 H662 0.930 . S
C677 C672 1.390 . S
C677 C676 1.387 . S
H678 C690 0.930 . S
H679 C692 0.930 . S
H680 C693 0.930 . S
H681 C697 0.959 . S
H682 C697 0.959 . S
H683 C697 0.961 . S
H684 C698 0.960 . S
H685 C698 0.961 . S
H686 C698 0.959 . S
H687 C701 0.929 . S
H688 C702 0.931 . S
H689 C704 0.930 . S
C690 H678 0.930 . S
C690 C691 1.399 . S
C690 C695 1.399 . S
C691 C690 1.399 . S
C691 C692 1.376 . S
C692 H679 0.930 . S
C692 C691 1.376 . S
C692 C693 1.388 . S
C693 H680 0.930 . S
C693 C692 1.388 . S
C693 C694 1.390 . S
C694 C693 1.390 . S
C694 C695 1.394 . S
C694 C700 1.465 . S
C695 C690 1.399 . S
C695 C694 1.394 . S
C695 C696 1.516 . S
C696 C695 1.516 . S
C696 C697 1.502 . S
C696 C698 1.561 . S
C696 C699 1.526 . S
C697 H681 0.959 . S
C697 H682 0.959 . S
C697 H683 0.961 . S
C697 C696 1.502 . S
C698 H684 0.960 . S
C698 H685 0.961 . S
C698 H686 0.959 . S
C698 C696 1.561 . S
C699 C696 1.526 . S
C699 C700 1.396 . S
C699 C704 1.390 . S
C700 C694 1.465 . S
C700 C699 1.396 . S
C700 C701 1.399 . S
C701 H687 0.929 . S
C701 C700 1.399 . S
C701 C702 1.385 . S
C702 H688 0.931 . S
C702 C701 1.385 . S
C702 C703 1.389 . S
C703 C702 1.389 . S
C703 C704 1.387 . S
C704 H689 0.930 . S
C704 C699 1.390 . S
C704 C703 1.387 . S
H705 C717 0.930 . S
H706 C719 0.930 . S
H707 C720 0.930 . S
H708 C724 0.959 . S
H709 C724 0.959 . S
H710 C724 0.961 . S
H711 C725 0.960 . S
H712 C725 0.961 . S
H713 C725 0.959 . S
H714 C728 0.929 . S
H715 C729 0.931 . S
H716 C731 0.930 . S
C717 H705 0.930 . S
C717 C718 1.399 . S
C717 C722 1.399 . S
C718 C717 1.399 . S
C718 C719 1.376 . S
C719 H706 0.930 . S
C719 C718 1.376 . S
C719 C720 1.388 . S
C720 H707 0.930 . S
C720 C719 1.388 . S
C720 C721 1.390 . S
C721 C720 1.390 . S
C721 C722 1.394 . S
C721 C727 1.465 . S
C722 C717 1.399 . S
C722 C721 1.394 . S
C722 C723 1.516 . S
C723 C722 1.516 . S
C723 C724 1.502 . S
C723 C725 1.561 . S
C723 C726 1.526 . S
C724 H708 0.959 . S
C724 H709 0.959 . S
C724 H710 0.961 . S
C724 C723 1.502 . S
C725 H711 0.960 . S
C725 H712 0.961 . S
C725 H713 0.959 . S
C725 C723 1.561 . S
C726 C723 1.526 . S
C726 C727 1.396 . S
C726 C731 1.390 . S
C727 C721 1.465 . S
C727 C726 1.396 . S
C727 C728 1.399 . S
C728 H714 0.929 . S
C728 C727 1.399 . S
C728 C729 1.385 . S
C729 H715 0.931 . S
C729 C728 1.385 . S
C729 C730 1.389 . S
C730 C729 1.389 . S
C730 C731 1.387 . S
C731 H716 0.930 . S
C731 C726 1.390 . S
C731 C730 1.387 . S
H732 C744 0.930 . S
H733 C746 0.930 . S
H734 C747 0.930 1_554 S
H735 C751 0.959 . S
H736 C751 0.959 . S
H737 C751 0.961 . S
H738 C752 0.960 . S
H739 C752 0.961 . S
H740 C752 0.963 . S
H741 C755 0.929 . S
H742 C756 0.931 . S
H743 C758 0.930 . S
C744 H732 0.930 . S
C744 C745 1.399 . S
C744 C749 1.399 . S
C745 C744 1.399 . S
C745 C746 1.376 . S
C746 H733 0.930 . S
C746 C745 1.376 . S
C746 C747 1.388 . S
C747 H734 0.930 1_556 S
C747 C746 1.388 . S
C747 C748 1.390 . S
C748 C747 1.390 . S
C748 C749 1.394 . S
C748 C754 1.465 . S
C749 C744 1.399 . S
C749 C748 1.394 . S
C749 C750 1.516 . S
C750 C749 1.516 . S
C750 C751 1.502 . S
C750 C752 1.561 . S
C750 C753 1.526 . S
C751 H735 0.959 . S
C751 H736 0.959 . S
C751 H737 0.961 . S
C751 C750 1.502 . S
C752 H738 0.960 . S
C752 H739 0.961 . S
C752 H740 0.963 . S
C752 C750 1.561 . S
C753 C750 1.526 . S
C753 C754 1.396 . S
C753 C758 1.390 . S
C754 C748 1.465 . S
C754 C753 1.396 . S
C754 C755 1.399 1_556 S
C755 H741 0.929 . S
C755 C754 1.399 1_554 S
C755 C756 1.385 . S
C756 H742 0.931 . S
C756 C755 1.385 . S
C756 C757 1.389 1_554 S
C757 C756 1.389 1_556 S
C757 C758 1.387 . S
C758 H743 0.930 . S
C758 C753 1.390 . S
C758 C757 1.387 . S
H759 C771 0.930 . S
H760 C773 0.930 . S
H761 C774 0.930 . S
H762 C778 0.959 . S
H763 C778 0.959 . S
H764 C778 0.961 . S
H765 C779 0.960 . S
H766 C779 0.961 . S
H767 C779 0.959 . S
H768 C782 0.929 . S
H769 C783 0.931 . S
H770 C785 0.930 . S
C771 H759 0.930 . S
C771 C772 1.399 . S
C771 C776 1.399 . S
C772 C771 1.399 . S
C772 C773 1.376 . S
C773 H760 0.930 . S
C773 C772 1.376 . S
C773 C774 1.388 . S
C774 H761 0.930 . S
C774 C773 1.388 . S
C774 C775 1.390 . S
C775 C774 1.390 . S
C775 C776 1.394 . S
C775 C781 1.465 . S
C776 C771 1.399 . S
C776 C775 1.394 . S
C776 C777 1.516 . S
C777 C776 1.516 . S
C777 C778 1.502 . S
C777 C779 1.561 . S
C777 C780 1.526 . S
C778 H762 0.959 . S
C778 H763 0.959 . S
C778 H764 0.961 . S
C778 C777 1.502 . S
C779 H765 0.960 . S
C779 H766 0.961 . S
C779 H767 0.959 . S
C779 C777 1.561 . S
C780 C777 1.526 . S
C780 C781 1.396 . S
C780 C785 1.390 . S
C781 C775 1.465 . S
C781 C780 1.396 . S
C781 C782 1.399 . S
C782 H768 0.929 . S
C782 C781 1.399 . S
C782 C783 1.385 . S
C783 H769 0.931 . S
C783 C782 1.385 . S
C783 C784 1.389 . S
C784 C783 1.389 . S
C784 C785 1.387 . S
C785 H770 0.930 . S
C785 C780 1.390 . S
C785 C784 1.387 . S
H786 C798 0.930 . S
H787 C800 0.930 . S
H788 C801 0.930 . S
H789 C805 0.959 1_655 S
H790 C805 0.959 . S
H791 C805 0.961 . S
H792 C806 0.960 . S
H793 C806 0.961 . S
H794 C806 0.959 . S
H795 C809 0.929 . S
H796 C810 0.931 . S
H797 C812 0.930 . S
C798 H786 0.930 . S
C798 C799 1.399 . S
C798 C803 1.399 . S
C799 C798 1.399 . S
C799 C800 1.376 . S
C800 H787 0.930 . S
C800 C799 1.376 . S
C800 C801 1.388 . S
C801 H788 0.930 . S
C801 C800 1.388 . S
C801 C802 1.390 . S
C802 C801 1.390 . S
C802 C803 1.394 . S
C802 C808 1.465 . S
C803 C798 1.399 . S
C803 C802 1.394 . S
C803 C804 1.516 . S
C804 C803 1.516 . S
C804 C805 1.502 . S
C804 C806 1.561 . S
C804 C807 1.526 . S
C805 H789 0.959 1_455 S
C805 H790 0.959 . S
C805 H791 0.961 . S
C805 C804 1.502 . S
C806 H792 0.960 . S
C806 H793 0.961 . S
C806 H794 0.959 . S
C806 C804 1.561 . S
C807 C804 1.526 . S
C807 C808 1.396 . S
C807 C812 1.390 . S
C808 C802 1.465 . S
C808 C807 1.396 . S
C808 C809 1.399 . S
C809 H795 0.929 . S
C809 C808 1.399 . S
C809 C810 1.385 . S
C810 H796 0.931 . S
C810 C809 1.385 . S
C810 C811 1.389 . S
C811 C810 1.389 . S
C811 C812 1.387 . S
C812 H797 0.930 . S
C812 C807 1.390 . S
C812 C811 1.387 . S
H813 C825 0.930 . S
H814 C827 0.930 . S
H815 C828 0.930 . S
H816 C832 0.959 . S
H817 C832 0.959 . S
H818 C832 0.961 . S
H819 C833 0.960 . S
H820 C833 0.961 . S
H821 C833 0.959 . S
H822 C836 0.929 . S
H823 C837 0.931 . S
H824 C839 0.930 . S
C825 H813 0.930 . S
C825 C826 1.399 . S
C825 C830 1.399 . S
C826 C825 1.399 . S
C826 C827 1.376 . S
C827 H814 0.930 . S
C827 C826 1.376 . S
C827 C828 1.388 . S
C828 H815 0.930 . S
C828 C827 1.388 . S
C828 C829 1.390 . S
C829 C828 1.390 . S
C829 C830 1.394 . S
C829 C835 1.465 . S
C830 C825 1.399 . S
C830 C829 1.394 . S
C830 C831 1.516 . S
C831 C830 1.516 . S
C831 C832 1.502 . S
C831 C833 1.561 . S
C831 C834 1.526 . S
C832 H816 0.959 . S
C832 H817 0.959 . S
C832 H818 0.961 . S
C832 C831 1.502 . S
C833 H819 0.960 . S
C833 H820 0.961 . S
C833 H821 0.959 . S
C833 C831 1.561 . S
C834 C831 1.526 . S
C834 C835 1.396 . S
C834 C839 1.390 . S
C835 C829 1.465 . S
C835 C834 1.396 . S
C835 C836 1.399 . S
C836 H822 0.929 . S
C836 C835 1.399 . S
C836 C837 1.385 . S
C837 H823 0.931 . S
C837 C836 1.385 . S
C837 C838 1.389 . S
C838 C837 1.389 . S
C838 C839 1.387 . S
C839 H824 0.930 . S
C839 C834 1.390 . S
C839 C838 1.387 . S
C205 C5 2.077 . S
C217 C88 2.101 . S
C232 C14 1.079 . S
C244 N108 1.022 . S
C271 C142 1.945 . S
C259 C25 1.956 . S
C286 C34 1.253 . S
C298 N176 1.128 . S
C325 C129 2.238 . S
C313 C7 2.241 . S
C352 N86 1.123 . S
C340 C13 1.106 . S
C379 C163 1.984 . S
C367 C23 1.972 . S
C406 N138 0.956 . S
C394 C31 0.951 . S
C421 C4 1.762 . S
C433 C178 1.767 . S
C460 C112 1.667 . S
C448 C22 1.652 . S
C475 C32 1.350 . S
C487 C73 1.384 . S
C502 C16 1.341 . S
C514 C159 1.370 . S
C541 C99 2.083 . S
C529 C41 2.081 . S
C556 C50 1.084 . S
C568 N116 1.103 . S
C583 C61 1.942 . S
C595 C133 1.936 . S
C610 C67 1.218 . S
C622 N168 1.196 . S
C637 C40 2.257 . S
C649 C118 2.253 . S
C676 N78 1.083 . S
C664 C52 1.104 . S
C703 C172 1.988 . S
C691 C59 1.963 . S
C730 N146 0.925 . S
C718 C70 0.943 . S
C745 C43 1.767 . S
C757 C189 1.766 . S
C784 C103 1.671 . S
C772 C58 1.657 . S
C811 C82 1.369 . S
C799 C68 1.320 . S
C826 C49 1.386 . S
C838 C148 1.368 . S
