# Generated by pormake.
# Topology ptr, (4,4)-cn, num edge types: 1
# Building blocks:
#     Node 0, Type 0, BuildingBlock: QUQFOY_clean_sbu_1, # of connection points: 4
#     Node 1, Type 0, BuildingBlock: QUQFOY_clean_sbu_1, # of connection points: 4
#     Node 2, Type 0, BuildingBlock: QUQFOY_clean_sbu_1, # of connection points: 4
#     Node 3, Type 0, BuildingBlock: QUQFOY_clean_sbu_1, # of connection points: 4
#     Node 4, Type 0, BuildingBlock: QUQFOY_clean_sbu_1, # of connection points: 4
#     Node 5, Type 0, BuildingBlock: QUQFOY_clean_sbu_1, # of connection points: 4
#     Node 6, Type 0, BuildingBlock: QUQFOY_clean_sbu_1, # of connection points: 4
#     Node 7, Type 0, BuildingBlock: QUQFOY_clean_sbu_1, # of connection points: 4
#     Node 8, Type 0, BuildingBlock: QUQFOY_clean_sbu_1, # of connection points: 4
#     Node 9, Type 0, BuildingBlock: QUQFOY_clean_sbu_1, # of connection points: 4
#     Node 10, Type 0, BuildingBlock: QUQFOY_clean_sbu_1, # of connection points: 4
#     Node 11, Type 0, BuildingBlock: QUQFOY_clean_sbu_1, # of connection points: 4
#     Node 12, Type 0, BuildingBlock: QUQFOY_clean_sbu_1, # of connection points: 4
#     Node 13, Type 0, BuildingBlock: QUQFOY_clean_sbu_1, # of connection points: 4
#     Node 14, Type 0, BuildingBlock: QUQFOY_clean_sbu_1, # of connection points: 4
#     Node 15, Type 0, BuildingBlock: QUQFOY_clean_sbu_1, # of connection points: 4
#     Node 16, Type 0, BuildingBlock: QUQFOY_clean_sbu_1, # of connection points: 4
#     Node 17, Type 0, BuildingBlock: QUQFOY_clean_sbu_1, # of connection points: 4
#     Node 18, Type 1, BuildingBlock: NAWXER_clean_linker_0, # of connection points: 4
#     Node 19, Type 1, BuildingBlock: NAWXER_clean_linker_0, # of connection points: 4
#     Node 20, Type 1, BuildingBlock: NAWXER_clean_linker_0, # of connection points: 4
#     Node 21, Type 1, BuildingBlock: NAWXER_clean_linker_0, # of connection points: 4
#     Node 22, Type 1, BuildingBlock: NAWXER_clean_linker_0, # of connection points: 4
#     Node 23, Type 1, BuildingBlock: NAWXER_clean_linker_0, # of connection points: 4
#     Node 24, Type 1, BuildingBlock: NAWXER_clean_linker_0, # of connection points: 4
#     Node 25, Type 1, BuildingBlock: NAWXER_clean_linker_0, # of connection points: 4
#     Node 26, Type 1, BuildingBlock: NAWXER_clean_linker_0, # of connection points: 4
#     Node 27, Type 1, BuildingBlock: NAWXER_clean_linker_0, # of connection points: 4
#     Node 28, Type 1, BuildingBlock: NAWXER_clean_linker_0, # of connection points: 4
#     Node 29, Type 1, BuildingBlock: NAWXER_clean_linker_0, # of connection points: 4
#     Node 30, Type 1, BuildingBlock: NAWXER_clean_linker_0, # of connection points: 4
#     Node 31, Type 1, BuildingBlock: NAWXER_clean_linker_0, # of connection points: 4
#     Node 32, Type 1, BuildingBlock: NAWXER_clean_linker_0, # of connection points: 4
#     Node 33, Type 1, BuildingBlock: NAWXER_clean_linker_0, # of connection points: 4
#     Node 34, Type 1, BuildingBlock: NAWXER_clean_linker_0, # of connection points: 4
#     Node 35, Type 1, BuildingBlock: NAWXER_clean_linker_0, # of connection points: 4
#     Edge 36, Type (0, 1), None
#     Edge 37, Type (0, 1), None
#     Edge 38, Type (0, 1), None
#     Edge 39, Type (0, 1), None
#     Edge 40, Type (0, 1), None
#     Edge 41, Type (0, 1), None
#     Edge 42, Type (0, 1), None
#     Edge 43, Type (0, 1), None
#     Edge 44, Type (0, 1), None
#     Edge 45, Type (0, 1), None
#     Edge 46, Type (0, 1), None
#     Edge 47, Type (0, 1), None
#     Edge 48, Type (0, 1), None
#     Edge 49, Type (0, 1), None
#     Edge 50, Type (0, 1), None
#     Edge 51, Type (0, 1), None
#     Edge 52, Type (0, 1), None
#     Edge 53, Type (0, 1), None
#     Edge 54, Type (0, 1), None
#     Edge 55, Type (0, 1), None
#     Edge 56, Type (0, 1), None
#     Edge 57, Type (0, 1), None
#     Edge 58, Type (0, 1), None
#     Edge 59, Type (0, 1), None
#     Edge 60, Type (0, 1), None
#     Edge 61, Type (0, 1), None
#     Edge 62, Type (0, 1), None
#     Edge 63, Type (0, 1), None
#     Edge 64, Type (0, 1), None
#     Edge 65, Type (0, 1), None
#     Edge 66, Type (0, 1), None
#     Edge 67, Type (0, 1), None
#     Edge 68, Type (0, 1), None
#     Edge 69, Type (0, 1), None
#     Edge 70, Type (0, 1), None
#     Edge 71, Type (0, 1), None
#     Edge 72, Type (0, 1), None
#     Edge 73, Type (0, 1), None
#     Edge 74, Type (0, 1), None
#     Edge 75, Type (0, 1), None
#     Edge 76, Type (0, 1), None
#     Edge 77, Type (0, 1), None
#     Edge 78, Type (0, 1), None
#     Edge 79, Type (0, 1), None
#     Edge 80, Type (0, 1), None
#     Edge 81, Type (0, 1), None
#     Edge 82, Type (0, 1), None
#     Edge 83, Type (0, 1), None
#     Edge 84, Type (0, 1), None
#     Edge 85, Type (0, 1), None
#     Edge 86, Type (0, 1), None
#     Edge 87, Type (0, 1), None
#     Edge 88, Type (0, 1), None
#     Edge 89, Type (0, 1), None
#     Edge 90, Type (0, 1), None
#     Edge 91, Type (0, 1), None
#     Edge 92, Type (0, 1), None
#     Edge 93, Type (0, 1), None
#     Edge 94, Type (0, 1), None
#     Edge 95, Type (0, 1), None
#     Edge 96, Type (0, 1), None
#     Edge 97, Type (0, 1), None
#     Edge 98, Type (0, 1), None
#     Edge 99, Type (0, 1), None
#     Edge 100, Type (0, 1), None
#     Edge 101, Type (0, 1), None
#     Edge 102, Type (0, 1), None
#     Edge 103, Type (0, 1), None
#     Edge 104, Type (0, 1), None
#     Edge 105, Type (0, 1), None
#     Edge 106, Type (0, 1), None
#     Edge 107, Type (0, 1), None
# Relax obj value: 0.007
# Max RMSD: 0.053
# Mean RMSD: 0.038
data_MOF--net-ptr--node1-QUQFOY_clean_sbu_1--node2-NAWXER_clean_linker_0--edge1-none
_symmetry_space_group_name_H-M    P1
_symmetry_Int_Tables_number       1
_symmetry_cell_setting            triclinic
loop_
_symmetry_equiv_pos_as_xyz
'x, y, z'
_cell_length_a     50.092169
_cell_length_b     50.098842
_cell_length_c     33.605714
_cell_angle_alpha  90.06015
_cell_angle_beta   89.932772
_cell_angle_gamma 119.92995
loop_
_atom_site_label
_atom_site_type_symbol
_atom_site_fract_x
_atom_site_fract_y
_atom_site_fract_z
_atom_type_partial_charge
O0 O 0.00545 0.39396 0.10195 0.0
Cd1 Cd 0.01862 0.37748 0.0541 0.0
Cd2 Cd 0.9577 0.34703 0.04028 0.0
O3 O 0.95519 0.36423 0.09566 0.0
O4 O 0.06096 0.38634 0.06762 0.0
O5 O 0.02106 0.33906 0.06386 0.0
C6 C 0.04987 0.35711 0.07188 0.0
C7 C 0.92654 0.29543 1.02257 0.0
C8 C 0.97834 0.38461 0.1148 0.0
C9 C -0.00208 0.39434 0.97961 0.0
O10 O 0.97081 0.3766 0.99244 0.0
O11 O 0.02109 0.39711 0.99874 0.0
O12 O 0.91539 0.31356 1.02679 0.0
O13 O 0.95536 0.30621 1.03055 0.0
O14 O 0.58601 0.60743 0.10206 0.0
Cd15 Cd 0.60238 0.63703 0.05424 0.0
Cd16 Cd 0.6329 0.60658 0.0401 0.0
O17 O 0.6158 0.58691 0.09547 0.0
O18 O 0.59349 0.67049 0.06794 0.0
O19 O 0.64079 0.67783 0.06396 0.0
C20 C 0.62273 0.6886 0.0721 0.0
C21 C 0.68449 0.62695 1.02228 0.0
C22 C 0.59543 0.58968 0.11475 0.0
C23 C 0.58553 0.59959 0.97959 0.0
O24 O 0.60331 0.5902 0.99228 0.0
O25 O 0.58272 0.61993 0.99887 0.0
O26 O 0.66638 0.5977 1.02643 0.0
O27 O 0.67371 0.645 1.0304 0.0
O28 O 0.39013 0.00972 0.99281 0.0
Cd29 Cd 0.37366 0.02291 0.04066 0.0
Cd30 Cd 0.34325 0.96198 0.05461 0.0
O31 O 0.36044 0.95947 0.99923 0.0
O32 O 0.38251 0.06523 1.02705 0.0
O33 O 0.33522 0.02533 1.03089 0.0
C34 C 0.35326 0.05412 1.0228 0.0
C35 C 0.29166 0.93069 0.07233 0.0
C36 C 0.38079 0.9826 0.98002 0.0
C37 C 0.39057 0.00232 0.11521 0.0
O38 O 0.37285 0.9752 0.10244 0.0
O39 O 0.39332 0.02545 0.09602 0.0
O40 O 0.30987 0.91963 0.06815 0.0
O41 O 0.30236 0.95949 0.06432 0.0
O42 O 0.9709 0.59045 0.99249 0.0
Cd43 Cd 0.95774 0.60694 0.04034 0.0
Cd44 Cd 0.01871 0.63734 0.05418 0.0
O45 O 0.02117 0.62014 0.99879 0.0
O46 O 0.91538 0.59802 1.02683 0.0
O47 O 0.95524 0.64532 1.03058 0.0
C48 C 0.92644 0.62725 1.02256 0.0
C49 C 0.04994 0.68893 0.07193 0.0
C50 C -0.00199 0.59978 0.97964 0.0
C51 C 0.97842 0.59004 0.11484 0.0
O52 O 0.00554 0.60775 0.10201 0.0
O53 O 0.95527 0.5873 0.09571 0.0
O54 O 0.06105 0.67076 0.06769 0.0
O55 O 0.02113 0.6782 0.06394 0.0
O56 O 0.39016 0.377 0.99229 0.0
Cd57 Cd 0.37379 0.34741 0.04011 0.0
Cd58 Cd 0.3433 0.37786 0.05425 0.0
O59 O 0.36039 0.39754 0.99888 0.0
O60 O 0.38265 0.31393 1.02644 0.0
O61 O 0.33536 0.30662 1.03043 0.0
C62 C 0.3534 0.29583 1.0223 0.0
C63 C 0.29171 0.35742 0.07208 0.0
C64 C 0.38075 0.39475 0.9796 0.0
C65 C 0.39067 0.38486 0.11475 0.0
O66 O 0.3729 0.39425 0.10206 0.0
O67 O 0.39346 0.36451 0.09547 0.0
O68 O 0.30979 0.38667 0.06793 0.0
O69 O 0.30253 0.33941 0.06395 0.0
O70 O 0.58643 0.97515 0.10238 0.0
Cd71 Cd 0.60283 0.96188 0.05452 0.0
Cd72 Cd 0.63335 0.02281 0.04057 0.0
O73 O 0.6162 0.02539 0.09596 0.0
O74 O 0.59385 0.91952 0.06809 0.0
O75 O 0.64119 0.95932 0.06424 0.0
C76 C 0.62308 0.93054 0.0723 0.0
C77 C 0.68494 0.05393 1.02279 0.0
C78 C 0.59582 0.00228 0.11516 0.0
C79 C 0.58599 0.98256 0.97998 0.0
O80 O 0.60375 0.00968 0.99276 0.0
O81 O 0.58319 0.95941 0.99917 0.0
O82 O 0.66683 0.06509 1.02701 0.0
O83 O 0.67416 0.02512 1.03082 0.0
O84 O 0.67198 0.72728 0.43535 0.0
Cd85 Cd 0.68519 0.71084 0.3875 0.0
Cd86 Cd 0.62424 0.68047 0.37352 0.0
O87 O 0.62171 0.69764 0.42891 0.0
O88 O 0.72753 0.71972 0.40108 0.0
O89 O 0.68766 0.67243 0.39722 0.0
C90 C 0.71646 0.69048 0.40528 0.0
C91 C 0.59298 0.62891 0.35571 0.0
C92 C 0.64485 0.71796 0.44813 0.0
C93 C 0.66462 0.72779 0.31295 0.0
O94 O 0.63749 0.71008 0.32571 0.0
O95 O 0.68774 0.73051 0.33214 0.0
O96 O 0.5819 0.64711 0.35993 0.0
O97 O 0.62178 0.6396 0.36376 0.0
O98 O 0.25271 0.94082 0.43543 0.0
Cd99 Cd 0.26912 0.97041 0.38761 0.0
Cd100 Cd 0.29956 0.9399 0.3735 0.0
O101 O 0.28244 0.92025 0.42887 0.0
O102 O 0.26028 0.00391 0.40128 0.0
O103 O 0.30756 0.01118 0.39732 0.0
C104 C 0.28953 0.02198 0.40545 0.0
C105 C 0.35116 0.96027 0.35573 0.0
C106 C 0.26209 0.92306 0.44814 0.0
C107 C 0.25222 0.93295 0.31297 0.0
O108 O 0.26997 0.92354 0.32567 0.0
O109 O 0.24944 0.95331 0.33224 0.0
O110 O 0.33305 0.93103 0.35985 0.0
O111 O 0.34037 0.97832 0.36383 0.0
O112 O 0.05659 0.34255 0.32565 0.0
Cd113 Cd 0.04023 0.35589 0.37348 0.0
Cd114 Cd 0.00971 0.29491 0.38754 0.0
O115 O 0.02684 0.29231 0.33215 0.0
O116 O 0.04928 0.39826 0.35984 0.0
O117 O 0.00191 0.35852 0.36374 0.0
C118 C 0.02005 0.38728 0.35564 0.0
C119 C 0.95814 0.26368 0.40539 0.0
C120 C 0.0472 0.31541 0.31291 0.0
C121 C 0.05709 0.33527 0.44807 0.0
O122 O 0.03933 0.30814 0.43534 0.0
O123 O 0.05988 0.3584 0.42885 0.0
O124 O 0.97633 0.2526 0.40118 0.0
O125 O 0.96884 0.29247 0.39732 0.0
O126 O 0.63756 0.92366 0.32595 0.0
Cd127 Cd 0.62432 0.94008 0.3738 0.0
Cd128 Cd 0.68527 0.9705 0.38778 0.0
O129 O 0.68782 0.95334 0.3324 0.0
O130 O 0.58198 0.93119 0.36022 0.0
O131 O 0.62185 0.97849 0.36409 0.0
C132 C 0.59306 0.96043 0.35602 0.0
C133 C 0.71652 0.02207 0.40558 0.0
C134 C 0.6647 0.933 0.31318 0.0
C135 C 0.64492 0.92318 0.44836 0.0
O136 O 0.67205 0.9409 0.43559 0.0
O137 O 0.62179 0.92042 0.42917 0.0
O138 O 0.72761 0.00388 0.40136 0.0
O139 O 0.68772 0.01137 0.39754 0.0
O140 O 0.0569 0.71043 0.32555 0.0
Cd141 Cd 0.04057 0.68083 0.37337 0.0
Cd142 Cd 0.00996 0.71121 0.38749 0.0
O143 O 0.02706 0.73089 0.33212 0.0
O144 O 0.04956 0.64743 0.35969 0.0
O145 O 0.00222 0.63999 0.36366 0.0
C146 C 0.02032 0.62927 0.35553 0.0
C147 C 0.95836 0.69077 0.40531 0.0
C148 C 0.04744 0.72815 0.31285 0.0
C149 C 0.05734 0.71828 0.44802 0.0
O150 O 0.03954 0.72762 0.43532 0.0
O151 O 0.0602 0.69796 0.42875 0.0
O152 O 0.97644 0.72002 0.40115 0.0
O153 O 0.96918 0.67276 0.39719 0.0
O154 O 0.25293 0.30816 0.43521 0.0
Cd155 Cd 0.26938 0.29493 0.38738 0.0
Cd156 Cd 0.29975 0.35587 0.37334 0.0
O157 O 0.28259 0.35842 0.42872 0.0
O158 O 0.26051 0.25261 0.40103 0.0
O159 O 0.30781 0.29249 0.39714 0.0
C160 C 0.28975 0.2637 0.40525 0.0
C161 C 0.35132 0.38717 0.35554 0.0
C162 C 0.26226 0.33529 0.44796 0.0
C163 C 0.25241 0.31545 0.3128 0.0
O164 O 0.27013 0.34259 0.32553 0.0
O165 O 0.24969 0.29234 0.33202 0.0
O166 O 0.33309 0.39822 0.35972 0.0
O167 O 0.34066 0.35839 0.3636 0.0
O168 O 0.33863 0.06075 0.76884 0.0
Cd169 Cd 0.35198 0.0444 0.72102 0.0
Cd170 Cd 0.29097 0.01392 0.70691 0.0
O171 O 0.28838 0.03105 0.7623 0.0
O172 O 0.39436 0.05344 0.7347 0.0
O173 O 0.35461 0.00608 0.73079 0.0
C174 C 0.38338 0.02421 0.73891 0.0
C175 C 0.25964 0.96237 0.68906 0.0
C176 C 0.31149 0.05138 0.78157 0.0
C177 C 0.33143 0.0613 0.6464 0.0
O178 O 0.30429 0.04356 0.65911 0.0
O179 O 0.35454 0.06406 0.66565 0.0
O180 O 0.24862 0.98061 0.69325 0.0
O181 O 0.28843 0.97301 0.69715 0.0
O182 O 0.91939 0.27379 0.76905 0.0
Cd183 Cd 0.93565 0.30342 0.72124 0.0
Cd184 Cd 0.96622 0.27298 0.70694 0.0
O185 O 0.94917 0.25328 0.76231 0.0
O186 O 0.92664 0.33678 0.735 0.0
O187 O 0.974 0.34428 0.73091 0.0
C188 C 0.95588 0.35497 0.73909 0.0
C189 C 0.01778 0.29331 0.68901 0.0
C190 C 0.92884 0.25605 0.78167 0.0
C191 C 0.91881 0.26603 0.64652 0.0
O192 O 0.9366 0.25665 0.65915 0.0
O193 O 0.91598 0.28633 0.66588 0.0
O194 O -0.00035 0.26407 0.69315 0.0
O195 O 0.00704 0.31138 0.6972 0.0
O196 O 0.7233 0.67591 0.65899 0.0
Cd197 Cd 0.70694 0.68922 0.70683 0.0
Cd198 Cd 0.6765 0.62827 0.72095 0.0
O199 O 0.69363 0.62566 0.66556 0.0
O200 O 0.71591 0.73156 0.69318 0.0
O201 O 0.66857 0.69177 0.69713 0.0
C202 C 0.68667 0.72055 0.68901 0.0
C203 C 0.62493 0.59704 0.73877 0.0
C204 C 0.71394 0.64877 0.64627 0.0
C205 C 0.72386 0.66869 0.78146 0.0
O206 O 0.70612 0.64155 0.76875 0.0
O207 O 0.72662 0.6918 0.76219 0.0
O208 O 0.64312 0.58596 0.7346 0.0
O209 O 0.63563 0.62583 0.73067 0.0
O210 O 0.30433 0.257 0.65912 0.0
Cd211 Cd 0.29101 0.27337 0.70694 0.0
Cd212 Cd 0.35197 0.30383 0.72104 0.0
O213 O 0.35458 0.28669 0.66566 0.0
O214 O 0.24865 0.26438 0.69327 0.0
O215 O 0.28844 0.31172 0.69718 0.0
C216 C 0.25967 0.29361 0.68906 0.0
C217 C 0.38322 0.35539 0.73883 0.0
C218 C 0.33148 0.26636 0.64639 0.0
C219 C 0.31154 0.25646 0.78156 0.0
O220 O 0.33869 0.27421 0.76885 0.0
O221 O 0.28843 0.25369 0.7623 0.0
O222 O 0.3943 0.3372 0.73467 0.0
O223 O 0.35443 0.34471 0.73075 0.0
O224 O 0.72369 0.04364 0.65927 0.0
Cd225 Cd 0.70736 0.01402 0.70708 0.0
Cd226 Cd 0.67691 0.04457 0.72137 0.0
O227 O 0.69399 0.06424 0.666 0.0
O228 O 0.71625 0.98057 0.6933 0.0
O229 O 0.66894 0.97322 0.69738 0.0
C230 C 0.687 0.96245 0.68918 0.0
C231 C 0.62535 0.02438 0.73926 0.0
C232 C 0.7143 0.06142 0.64664 0.0
C233 C 0.72429 0.05141 0.7818 0.0
O234 O 0.70653 0.06084 0.76917 0.0
O235 O 0.72706 0.03108 0.76245 0.0
O236 O 0.64355 0.05361 0.73514 0.0
O237 O 0.63603 0.00625 0.73108 0.0
O238 O 0.91947 0.6416 0.76865 0.0
Cd239 Cd 0.93582 0.62826 0.72082 0.0
Cd240 Cd 0.9663 0.68925 0.70668 0.0
O241 O 0.94916 0.69184 0.76207 0.0
O242 O 0.92681 0.5859 0.73451 0.0
O243 O 0.97417 0.62566 0.73056 0.0
C244 C 0.95604 0.5969 0.7387 0.0
C245 C 0.01786 0.72059 0.68886 0.0
C246 C 0.92885 0.66875 0.78136 0.0
C247 C 0.91893 0.6488 0.64617 0.0
O248 O 0.93668 0.67594 0.65887 0.0
O249 O 0.91616 0.62569 0.66544 0.0
O250 O -0.0004 0.7316 0.69302 0.0
O251 O 0.00723 0.69181 0.69695 0.0
C252 C 0.24703 0.36439 0.08904 0.0
C253 C 0.26036 0.34549 0.08852 0.0
C254 C 0.21894 0.35477 0.10816 0.0
C255 C 0.2038 0.3263 0.12788 0.0
C256 C 0.24459 0.31638 0.1068 0.0
C257 C 0.21658 0.30691 0.12649 0.0
C258 C 0.17479 0.31751 0.14959 0.0
C259 C 0.20599 0.2833 0.27012 0.0
C260 C 0.23348 0.31115 0.2769 0.0
C261 C 0.18586 0.28114 0.23975 0.0
C262 C 0.1932 0.30648 0.21501 0.0
C263 C 0.24135 0.33604 0.25101 0.0
C264 C 0.22144 0.33374 0.22043 0.0
C265 C 0.16927 0.30651 0.18918 0.0
C266 C 0.06156 0.28325 0.27018 0.0
C267 C 0.06183 0.31109 0.27696 0.0
C268 C 0.07954 0.28108 0.23976 0.0
C269 C 0.09747 0.3064 0.21498 0.0
C270 C 0.07879 0.33597 0.25102 0.0
C271 C 0.09641 0.33365 0.2204 0.0
C272 C 0.12149 0.30646 0.18916 0.0
C273 C 0.1015 0.36416 0.08883 0.0
C274 C 0.06932 0.34523 0.08836 0.0
C275 C 0.12 0.3546 0.10801 0.0
C276 C 0.10674 0.32618 0.12782 0.0
C277 C 0.05605 0.31615 0.10673 0.0
C278 C 0.07462 0.30675 0.12647 0.0
C279 C 0.127 0.31746 0.14957 0.0
H280 H 0.25857 0.3869 0.07517 0.0
H281 H 0.20948 0.37006 0.10858 0.0
H282 H 0.25435 0.30136 0.10701 0.0
H283 H 0.20504 0.28458 0.14085 0.0
H284 H 0.1992 0.26376 0.28965 0.0
H285 H 0.16395 0.26006 0.23658 0.0
H286 H 0.26239 0.3578 0.25535 0.0
H287 H 0.22731 0.35396 0.20266 0.0
H288 H 0.04886 0.26372 0.28974 0.0
H289 H 0.08044 0.26002 0.2366 0.0
H290 H 0.07945 0.35772 0.25536 0.0
H291 H 0.11071 0.35387 0.20259 0.0
H292 H 0.11243 0.38665 0.07489 0.0
H293 H 0.14473 0.36993 0.10839 0.0
H294 H 0.0313 0.30111 0.10698 0.0
H295 H 0.06389 0.28445 0.14089 0.0
N296 N 0.15344 0.32256 0.13148 0.0
N297 N 0.14275 0.30125 0.20716 0.0
C298 C 0.6159 0.87885 0.08921 0.0
C299 C 0.63489 0.91102 0.08874 0.0
C300 C 0.62541 0.8603 0.10834 0.0
C301 C 0.65385 0.87349 0.12811 0.0
C302 C 0.66398 0.92422 0.10706 0.0
C303 C 0.67334 0.9056 0.12676 0.0
C304 C 0.66253 0.85319 0.14982 0.0
C305 C 0.69681 0.9186 0.27043 0.0
C306 C 0.66898 0.91834 0.27723 0.0
C307 C 0.69895 0.90061 0.24001 0.0
C308 C 0.67361 0.88269 0.21525 0.0
C309 C 0.64408 0.9014 0.25133 0.0
C310 C 0.64636 0.88377 0.2207 0.0
C311 C 0.67352 0.85867 0.18941 0.0
C312 C 0.69675 0.7742 0.27024 0.0
C313 C 0.6689 0.74671 0.27704 0.0
C314 C 0.6989 0.79433 0.23987 0.0
C315 C 0.67355 0.78697 0.21515 0.0
C316 C 0.644 0.73882 0.25116 0.0
C317 C 0.64629 0.75873 0.22059 0.0
C318 C 0.67348 0.81091 0.18936 0.0
C319 C 0.61568 0.73321 0.08913 0.0
C320 C 0.63462 0.71993 0.08858 0.0
C321 C 0.62526 0.76127 0.1083 0.0
C322 C 0.65372 0.77643 0.12802 0.0
C323 C 0.66373 0.73572 0.10686 0.0
C324 C 0.67316 0.7637 0.1266 0.0
C325 C 0.66247 0.80541 0.14978 0.0
H326 H 0.5934 0.86798 0.07531 0.0
H327 H 0.61004 0.83558 0.10873 0.0
H328 H 0.67908 0.94896 0.10731 0.0
H329 H 0.69565 0.91629 0.14114 0.0
H330 H 0.71635 0.93129 0.28997 0.0
H331 H 0.72001 0.89969 0.23681 0.0
H332 H 0.62234 0.90076 0.25569 0.0
H333 H 0.62614 0.86948 0.20291 0.0
H334 H 0.7163 0.781 0.28975 0.0
H335 H 0.71996 0.81624 0.23669 0.0
H336 H 0.62225 0.71779 0.25552 0.0
H337 H 0.62606 0.75285 0.20282 0.0
H338 H 0.59316 0.72165 0.07526 0.0
H339 H 0.60993 0.7707 0.10875 0.0
H340 H 0.67878 0.72599 0.10705 0.0
H341 H 0.69548 0.77525 0.14095 0.0
N342 N 0.65742 0.82677 0.13169 0.0
N343 N 0.67874 0.8374 0.20737 0.0
C344 C 0.10159 0.73347 0.08878 0.0
C345 C 0.0694 0.72026 0.08836 0.0
C346 C 0.12009 0.76153 0.10791 0.0
C347 C 0.10683 0.77675 0.12773 0.0
C348 C 0.05613 0.73612 0.10672 0.0
C349 C 0.0747 0.7641 0.12641 0.0
C350 C 0.12706 0.8057 0.1495 0.0
C351 C 0.06165 0.77455 0.27016 0.0
C352 C 0.06202 0.74704 0.2769 0.0
C353 C 0.07958 0.79465 0.23973 0.0
C354 C 0.09755 0.78726 0.21492 0.0
C355 C 0.07901 0.73911 0.25092 0.0
C356 C 0.09658 0.75899 0.2203 0.0
C357 C 0.12154 0.81118 0.18912 0.0
C358 C 0.20581 0.91871 0.27028 0.0
C359 C 0.23333 0.91835 0.27703 0.0
C360 C 0.18571 0.90078 0.23985 0.0
C361 C 0.19313 0.88283 0.21504 0.0
C362 C 0.24127 0.90137 0.25107 0.0
C363 C 0.2214 0.8838 0.22045 0.0
C364 C 0.16923 0.85888 0.18919 0.0
C365 C 0.24713 0.87901 0.08905 0.0
C366 C 0.26031 0.91119 0.08868 0.0
C367 C 0.21903 0.86047 0.10809 0.0
C368 C 0.20375 0.87369 0.12787 0.0
C369 C 0.24438 0.92441 0.10699 0.0
C370 C 0.21637 0.90581 0.1266 0.0
C371 C 0.17477 0.85341 0.14957 0.0
H372 H 0.11252 0.72186 0.07484 0.0
H373 H 0.14482 0.77089 0.10827 0.0
H374 H 0.03138 0.72645 0.107 0.0
H375 H 0.06396 0.7757 0.14084 0.0
H376 H 0.04892 0.78138 0.28974 0.0
H377 H 0.08041 0.81658 0.2366 0.0
H378 H 0.07974 0.71806 0.25524 0.0
H379 H 0.11091 0.75308 0.20246 0.0
H380 H 0.19896 0.93143 0.28986 0.0
H381 H 0.16379 0.89995 0.2367 0.0
H382 H 0.26233 0.90064 0.25539 0.0
H383 H 0.22732 0.86948 0.20261 0.0
H384 H 0.25879 0.86812 0.07515 0.0
H385 H 0.20969 0.83575 0.10843 0.0
H386 H 0.25403 0.94916 0.1073 0.0
H387 H 0.20472 0.91651 0.14099 0.0
N388 N 0.15347 0.82702 0.13141 0.0
N389 N 0.14275 0.83764 0.20715 0.0
C390 C 0.33205 0.08292 0.84348 0.0
C391 C 0.30717 0.06599 0.81754 0.0
C392 C 0.32974 0.10053 0.87412 0.0
C393 C 0.30248 0.10159 0.87955 0.0
C394 C 0.27932 0.06571 0.82434 0.0
C395 C 0.27715 0.08367 0.85478 0.0
C396 C 0.30256 0.12562 0.90535 0.0
C397 C 0.3123 0.06026 0.98789 0.0
C398 C 0.34138 0.07355 1.00627 0.0
C399 C 0.30289 0.0788 0.9681 0.0
C400 C 0.32231 0.11092 0.96671 0.0
C401 C 0.3603 0.10573 1.00574 0.0
C402 C 0.35074 0.12421 0.98652 0.0
C403 C 0.31357 0.13116 0.94494 0.0
C404 C 0.31239 0.24869 0.9876 0.0
C405 C 0.3415 0.26449 1.00587 0.0
C406 C 0.30294 0.22068 0.96793 0.0
C407 C 0.32236 0.20794 0.96655 0.0
C408 C 0.36043 0.25119 1.00538 0.0
C409 C 0.35083 0.2231 0.98627 0.0
C410 C 0.3136 0.17893 0.94487 0.0
C411 C 0.33213 0.24543 0.84338 0.0
C412 C 0.30724 0.23754 0.81748 0.0
C413 C 0.32982 0.22554 0.87398 0.0
C414 C 0.30256 0.1973 0.87943 0.0
C415 C 0.27939 0.21005 0.82426 0.0
C416 C 0.27722 0.18994 0.85467 0.0
C417 C 0.3026 0.17339 0.90528 0.0
H418 H 0.3538 0.08358 0.83912 0.0
H419 H 0.34995 0.11482 0.89192 0.0
H420 H 0.25979 0.05303 0.80478 0.0
H421 H 0.25609 0.08458 0.85796 0.0
H422 H 0.29726 0.03551 0.98769 0.0
H423 H 0.28058 0.06805 0.95369 0.0
H424 H 0.38279 0.11667 1.01968 0.0
H425 H 0.36606 0.14893 0.9861 0.0
H426 H 0.29735 0.25843 0.98738 0.0
H427 H 0.28062 0.20912 0.95358 0.0
H428 H 0.38294 0.26275 1.01924 0.0
H429 H 0.36615 0.21367 0.98586 0.0
H430 H 0.35389 0.26647 0.83903 0.0
H431 H 0.35004 0.23143 0.89177 0.0
H432 H 0.25985 0.20324 0.80473 0.0
H433 H 0.25615 0.16803 0.85786 0.0
N434 N 0.29734 0.14687 0.88733 0.0
N435 N 0.31866 0.1576 0.963 0.0
C436 C 0.92042 0.24825 0.98781 0.0
C437 C 0.90712 0.26408 1.00619 0.0
C438 C 0.90188 0.22025 0.96816 0.0
C439 C 0.86974 0.20754 0.96691 0.0
C440 C 0.87493 0.25081 1.00583 0.0
C441 C 0.85645 0.22272 0.98675 0.0
C442 C 0.84951 0.17855 0.9452 0.0
C443 C 0.89734 0.24507 0.84367 0.0
C444 C 0.91431 0.23716 0.81764 0.0
C445 C 0.87984 0.2252 0.87433 0.0
C446 C 0.87892 0.19696 0.87971 0.0
C447 C 0.91473 0.20967 0.82437 0.0
C448 C 0.89686 0.18957 0.85484 0.0
C449 C 0.85499 0.17304 0.90558 0.0
C450 C 0.73524 0.08291 0.84377 0.0
C451 C 0.74317 0.06595 0.81776 0.0
C452 C 0.75512 0.10043 0.87442 0.0
C453 C 0.78337 0.10138 0.8798 0.0
C454 C 0.77068 0.06555 0.82449 0.0
C455 C 0.79077 0.08344 0.85495 0.0
C456 C 0.8073 0.12534 0.90563 0.0
C457 C 0.7321 0.05999 0.98799 0.0
C458 C 0.71629 0.07332 1.00636 0.0
C459 C 0.76009 0.07851 0.96829 0.0
C460 C 0.77282 0.11064 0.96699 0.0
C461 C 0.72957 0.10551 1.00595 0.0
C462 C 0.75765 0.12396 0.98682 0.0
C463 C 0.8018 0.13085 0.94524 0.0
H464 H 0.94518 0.25797 0.98748 0.0
H465 H 0.91263 0.20867 0.95372 0.0
H466 H 0.86398 0.26239 1.01978 0.0
H467 H 0.83171 0.21332 0.98644 0.0
H468 H 0.89658 0.26611 0.83937 0.0
H469 H 0.86552 0.2311 0.89221 0.0
H470 H 0.92744 0.20284 0.80474 0.0
H471 H 0.89607 0.16766 0.85797 0.0
H472 H 0.7142 0.08366 0.83947 0.0
H473 H 0.74921 0.11475 0.89228 0.0
H474 H 0.77751 0.05284 0.80488 0.0
H475 H 0.81269 0.08425 0.85808 0.0
H476 H 0.72237 0.03523 0.9877 0.0
H477 H 0.77166 0.06773 0.95386 0.0
H478 H 0.71801 0.11648 1.0199 0.0
H479 H 0.76707 0.14869 0.98647 0.0
N480 N 0.82312 0.15724 0.96334 0.0
N481 N 0.83376 0.14656 0.8876 0.0
C482 C 0.73165 0.66794 0.98756 0.0
C483 C 0.71584 0.63884 1.00585 0.0
C484 C 0.75965 0.67737 0.96787 0.0
C485 C 0.77239 0.65794 0.96651 0.0
C486 C 0.72913 0.6199 1.00537 0.0
C487 C 0.75722 0.62949 0.98625 0.0
C488 C 0.8014 0.66669 0.9448 0.0
C489 C 0.73487 0.64812 0.84331 0.0
C490 C 0.74276 0.673 0.81739 0.0
C491 C 0.75476 0.65045 0.87393 0.0
C492 C 0.78299 0.67771 0.87937 0.0
C493 C 0.77025 0.70086 0.82417 0.0
C494 C 0.79036 0.70304 0.8546 0.0
C495 C 0.80692 0.67768 0.90521 0.0
C496 C 0.89734 0.64822 0.84331 0.0
C497 C 0.91425 0.67308 0.81734 0.0
C498 C 0.87977 0.65055 0.87398 0.0
C499 C 0.87871 0.6778 0.87941 0.0
C500 C 0.91455 0.70092 0.82413 0.0
C501 C 0.89661 0.70311 0.8546 0.0
C502 C 0.85469 0.67773 0.90524 0.0
C503 C 0.92018 0.66815 0.98767 0.0
C504 C 0.90695 0.63909 1.00607 0.0
C505 C 0.90159 0.67752 0.96792 0.0
C506 C 0.86947 0.65806 0.96659 0.0
C507 C 0.87477 0.62013 1.00562 0.0
C508 C 0.85624 0.62965 0.98644 0.0
C509 C 0.84919 0.66674 0.94483 0.0
H510 H 0.72191 0.68298 0.98732 0.0
H511 H 0.77121 0.69969 0.95351 0.0
H512 H 0.71757 0.59739 1.01925 0.0
H513 H 0.76665 0.61417 0.98585 0.0
H514 H 0.71384 0.62636 0.83896 0.0
H515 H 0.74887 0.63023 0.89173 0.0
H516 H 0.77706 0.72039 0.80463 0.0
H517 H 0.81226 0.72411 0.85777 0.0
H518 H 0.89668 0.62646 0.83896 0.0
H519 H 0.86549 0.63034 0.89181 0.0
H520 H 0.92722 0.72044 0.80455 0.0
H521 H 0.89571 0.72417 0.85777 0.0
H522 H 0.94493 0.68322 0.98741 0.0
H523 H 0.9123 0.69981 0.95349 0.0
H524 H 0.86387 0.59765 1.01958 0.0
H525 H 0.83152 0.61431 0.98607 0.0
N526 N 0.82275 0.66165 0.96293 0.0
N527 N 0.83343 0.68294 0.88723 0.0
C528 C 0.72268 0.64952 0.44005 0.0
C529 C 0.73593 0.67861 0.42172 0.0
C530 C 0.74126 0.64012 0.45975 0.0
C531 C 0.77338 0.65955 0.4611 0.0
C532 C 0.76811 0.69756 0.42219 0.0
C533 C 0.78663 0.688 0.44132 0.0
C534 C 0.79365 0.65084 0.48282 0.0
C535 C 0.74548 0.66932 0.58435 0.0
C536 C 0.72855 0.64445 0.6103 0.0
C537 C 0.76307 0.66701 0.55369 0.0
C538 C 0.76412 0.63975 0.54824 0.0
C539 C 0.72826 0.6166 0.60349 0.0
C540 C 0.74621 0.61443 0.57303 0.0
C541 C 0.78814 0.63982 0.52241 0.0
C542 C 0.90795 0.66938 0.58431 0.0
C543 C 0.90004 0.64449 0.61023 0.0
C544 C 0.88807 0.66707 0.55369 0.0
C545 C 0.85983 0.63981 0.54824 0.0
C546 C 0.87255 0.61665 0.60343 0.0
C547 C 0.85245 0.61448 0.573 0.0
C548 C 0.83591 0.63986 0.5224 0.0
C549 C 0.91123 0.64973 0.44003 0.0
C550 C 0.92701 0.67884 0.42175 0.0
C551 C 0.88322 0.64027 0.45972 0.0
C552 C 0.87045 0.65967 0.46111 0.0
C553 C 0.91368 0.69774 0.42225 0.0
C554 C 0.88559 0.68813 0.44138 0.0
C555 C 0.84144 0.65089 0.48282 0.0
H556 H 0.69793 0.63447 0.44029 0.0
H557 H 0.73054 0.61781 0.47413 0.0
H558 H 0.77902 0.72006 0.40828 0.0
H559 H 0.81135 0.70333 0.44171 0.0
H560 H 0.74615 0.69108 0.58871 0.0
H561 H 0.77736 0.68722 0.53588 0.0
H562 H 0.71558 0.59707 0.62306 0.0
H563 H 0.7471 0.59337 0.56984 0.0
H564 H 0.92898 0.69114 0.58867 0.0
H565 H 0.89396 0.68729 0.5359 0.0
H566 H 0.86573 0.59711 0.62296 0.0
H567 H 0.83055 0.59341 0.56981 0.0
H568 H 0.92099 0.63471 0.44024 0.0
H569 H 0.87168 0.61794 0.47408 0.0
H570 H 0.92522 0.72026 0.40838 0.0
H571 H 0.87614 0.70343 0.44179 0.0
N572 N 0.82009 0.65595 0.46472 0.0
N573 N 0.80939 0.6346 0.54039 0.0
C574 C 0.28269 0.21208 0.42228 0.0
C575 C 0.30163 0.24426 0.42177 0.0
C576 C 0.29225 0.19359 0.44148 0.0
C577 C 0.32069 0.20686 0.46128 0.0
C578 C 0.33071 0.25753 0.44012 0.0
C579 C 0.34012 0.23898 0.45989 0.0
C580 C 0.32941 0.18661 0.48303 0.0
C581 C 0.36364 0.25203 0.60365 0.0
C582 C 0.3358 0.25175 0.61043 0.0
C583 C 0.36581 0.23406 0.57321 0.0
C584 C 0.34048 0.21615 0.54843 0.0
C585 C 0.31092 0.23482 0.58449 0.0
C586 C 0.31323 0.21722 0.55386 0.0
C587 C 0.34042 0.19213 0.52261 0.0
C588 C 0.36358 0.1077 0.60368 0.0
C589 C 0.33573 0.08021 0.61047 0.0
C590 C 0.36575 0.12781 0.57326 0.0
C591 C 0.34041 0.12044 0.5485 0.0
C592 C 0.31085 0.07231 0.58456 0.0
C593 C 0.31315 0.0922 0.55394 0.0
C594 C 0.34037 0.14436 0.52265 0.0
C595 C 0.28254 0.06663 0.42245 0.0
C596 C 0.30145 0.05331 0.42194 0.0
C597 C 0.29214 0.0947 0.44161 0.0
C598 C 0.32059 0.10982 0.46136 0.0
C599 C 0.33054 0.06907 0.44025 0.0
C600 C 0.33999 0.09706 0.45997 0.0
C601 C 0.32936 0.13883 0.48307 0.0
H602 H 0.2602 0.20115 0.40836 0.0
H603 H 0.27692 0.16887 0.44189 0.0
H604 H 0.34576 0.28228 0.44034 0.0
H605 H 0.36242 0.24971 0.47429 0.0
H606 H 0.38317 0.26471 0.62321 0.0
H607 H 0.38687 0.23316 0.57003 0.0
H608 H 0.28917 0.23416 0.58884 0.0
H609 H 0.29302 0.20293 0.53605 0.0
H610 H 0.38312 0.11452 0.62322 0.0
H611 H 0.38682 0.14972 0.57008 0.0
H612 H 0.28909 0.05127 0.58891 0.0
H613 H 0.29294 0.0863 0.53615 0.0
H614 H 0.26003 0.0551 0.40856 0.0
H615 H 0.27683 0.10415 0.44203 0.0
H616 H 0.34557 0.05931 0.44046 0.0
H617 H 0.36231 0.10859 0.47435 0.0
N618 N 0.32431 0.16017 0.46495 0.0
N619 N 0.34563 0.17087 0.54062 0.0
C620 C 0.76817 0.06659 0.42242 0.0
C621 C 0.73599 0.05339 0.42201 0.0
C622 C 0.78669 0.09465 0.44154 0.0
C623 C 0.77343 0.10988 0.46137 0.0
C624 C 0.72273 0.06926 0.44039 0.0
C625 C 0.7413 0.09723 0.46008 0.0
C626 C 0.79369 0.13884 0.4831 0.0
C627 C 0.72846 0.1078 0.60392 0.0
C628 C 0.72884 0.0803 0.61067 0.0
C629 C 0.74633 0.12787 0.57344 0.0
C630 C 0.76425 0.12045 0.54857 0.0
C631 C 0.74578 0.07234 0.58465 0.0
C632 C 0.76329 0.09219 0.55397 0.0
C633 C 0.7882 0.14436 0.52271 0.0
C634 C 0.87242 0.25184 0.60381 0.0
C635 C 0.89994 0.25148 0.61055 0.0
C636 C 0.85235 0.23395 0.57334 0.0
C637 C 0.85979 0.21604 0.54849 0.0
C638 C 0.90791 0.23456 0.58454 0.0
C639 C 0.88806 0.21703 0.55387 0.0
C640 C 0.83588 0.19207 0.52267 0.0
C641 C 0.91362 0.21205 0.4223 0.0
C642 C 0.92682 0.24423 0.42186 0.0
C643 C 0.88557 0.19354 0.44146 0.0
C644 C 0.87035 0.2068 0.46129 0.0
C645 C 0.91096 0.25749 0.44024 0.0
C646 C 0.88299 0.23893 0.45996 0.0
C647 C 0.84139 0.18656 0.48305 0.0
H648 H 0.77909 0.05497 0.40847 0.0
H649 H 0.81141 0.10401 0.44188 0.0
H650 H 0.69797 0.05959 0.44069 0.0
H651 H 0.73058 0.10884 0.47452 0.0
H652 H 0.71576 0.11465 0.62354 0.0
H653 H 0.74715 0.14979 0.5703 0.0
H654 H 0.74652 0.05129 0.58896 0.0
H655 H 0.7776 0.08627 0.53609 0.0
H656 H 0.86555 0.26452 0.62343 0.0
H657 H 0.83041 0.2331 0.57021 0.0
H658 H 0.92898 0.23384 0.58884 0.0
H659 H 0.894 0.20274 0.536 0.0
H660 H 0.92523 0.20112 0.40836 0.0
H661 H 0.87621 0.16882 0.44183 0.0
H662 H 0.92062 0.28224 0.44051 0.0
H663 H 0.87138 0.24966 0.4744 0.0
N664 N 0.82008 0.16015 0.46495 0.0
N665 N 0.80942 0.17084 0.54069 0.0
C666 C 0.94638 0.5436 0.15754 0.0
C667 C 0.9742 0.57112 0.15073 0.0
C668 C 0.94428 0.52348 0.18789 0.0
C669 C 0.96966 0.53085 0.21256 0.0
C670 C -0.00086 0.57902 0.17655 0.0
C671 C -0.0031 0.55912 0.2071 0.0
C672 C 0.96976 0.50694 0.23837 0.0
C673 C 0.0275 0.58474 0.3385 0.0
C674 C 0.0085 0.59795 0.33906 0.0
C675 C 0.01797 0.55667 0.31936 0.0
C676 C -0.0105 0.54146 0.29967 0.0
C677 C 0.97939 0.5821 0.32081 0.0
C678 C 0.97001 0.55412 0.3011 0.0
C679 C 0.98079 0.51247 0.27794 0.0
C680 C 0.02732 0.43899 0.33861 0.0
C681 C 0.00828 0.40683 0.33915 0.0
C682 C 0.01784 0.45756 0.31945 0.0
C683 C -0.01062 0.44438 0.29971 0.0
C684 C 0.97918 0.39365 0.32086 0.0
C685 C 0.96985 0.41228 0.30113 0.0
C686 C 0.98073 0.46469 0.27797 0.0
C687 C 0.94629 0.39911 0.15753 0.0
C688 C 0.97411 0.39932 0.15072 0.0
C689 C 0.9442 0.41717 0.1879 0.0
C690 C 0.96958 0.43511 0.2126 0.0
C691 C -0.00097 0.41629 0.17657 0.0
C692 C -0.0032 0.43399 0.20714 0.0
C693 C 0.96971 0.45917 0.23839 0.0
H694 H 0.92681 0.53678 0.13807 0.0
H695 H 0.92323 0.50156 0.19109 0.0
H696 H 0.02087 0.60007 0.17217 0.0
H697 H 0.01715 0.56501 0.22483 0.0
H698 H 0.05003 0.59634 0.35235 0.0
H699 H 0.03334 0.5473 0.31891 0.0
H700 H 0.96429 0.59177 0.32064 0.0
H701 H 0.94767 0.54252 0.28677 0.0
H702 H 0.04983 0.44985 0.35248 0.0
H703 H 0.03324 0.48227 0.319 0.0
H704 H 0.96405 0.36891 0.32067 0.0
H705 H 0.94753 0.40161 0.28678 0.0
H706 H 0.92673 0.3864 0.13803 0.0
H707 H 0.92316 0.41811 0.1911 0.0
H708 H 0.02076 0.41691 0.17219 0.0
H709 H 0.01705 0.44829 0.22489 0.0
N710 N 0.96449 0.48043 0.22039 0.0
N711 N 0.98585 0.49113 0.29606 0.0
C712 C 0.43709 0.39912 0.15743 0.0
C713 C 0.40956 0.39946 0.15068 0.0
C714 C 0.45718 0.41705 0.18785 0.0
C715 C 0.44976 0.435 0.21266 0.0
C716 C 0.40161 0.41643 0.17665 0.0
C717 C 0.42148 0.43401 0.20727 0.0
C718 C 0.47366 0.45897 0.2385 0.0
C719 C 0.39581 0.43885 0.33871 0.0
C720 C 0.38265 0.40667 0.33913 0.0
C721 C 0.42389 0.45739 0.31962 0.0
C722 C 0.43917 0.44418 0.29984 0.0
C723 C 0.39858 0.39345 0.32081 0.0
C724 C 0.42656 0.41206 0.30115 0.0
C725 C 0.46813 0.46445 0.27811 0.0
C726 C 0.54133 0.58441 0.33882 0.0
C727 C 0.57351 0.5976 0.33927 0.0
C728 C 0.52282 0.55635 0.31969 0.0
C729 C 0.53607 0.54112 0.29988 0.0
C730 C 0.58677 0.58172 0.32091 0.0
C731 C 0.5682 0.55375 0.30121 0.0
C732 C 0.51583 0.51217 0.27812 0.0
C733 C 0.58121 0.54328 0.15745 0.0
C734 C 0.58084 0.57079 0.1507 0.0
C735 C 0.56328 0.52318 0.18788 0.0
C736 C 0.54532 0.53059 0.21269 0.0
C737 C 0.56386 0.57873 0.17667 0.0
C738 C 0.54629 0.55885 0.2073 0.0
C739 C 0.52134 0.50667 0.23851 0.0
H740 H 0.44394 0.38641 0.13785 0.0
H741 H 0.47911 0.4179 0.191 0.0
H742 H 0.38054 0.41714 0.17233 0.0
H743 H 0.41555 0.44832 0.22511 0.0
H744 H 0.38415 0.44974 0.35262 0.0
H745 H 0.43321 0.48211 0.31926 0.0
H746 H 0.38894 0.36871 0.32053 0.0
H747 H 0.43822 0.40136 0.28675 0.0
H748 H 0.53041 0.59603 0.35275 0.0
H749 H 0.49809 0.54701 0.31931 0.0
H750 H 0.61152 0.59137 0.32065 0.0
H751 H 0.57893 0.54214 0.28679 0.0
H752 H 0.59393 0.53644 0.13786 0.0
H753 H 0.56245 0.50126 0.19102 0.0
H754 H 0.56313 0.59978 0.17235 0.0
H755 H 0.53196 0.56477 0.22514 0.0
N756 N 0.50012 0.4802 0.2205 0.0
N757 N 0.48943 0.49085 0.29624 0.0
C758 C 0.39836 0.0013 0.32112 0.0
C759 C 0.38252 0.97217 0.33934 0.0
C760 C 0.42638 0.01075 0.30147 0.0
C761 C 0.43911 0.99131 0.30008 0.0
C762 C 0.3958 0.95323 0.33883 0.0
C763 C 0.42391 0.96283 0.31975 0.0
C764 C 0.46812 7e-05 0.27839 0.0
C765 C 0.4016 0.98166 0.17696 0.0
C766 C 0.4095 0.00658 0.15111 0.0
C767 C 0.42151 0.98393 0.20753 0.0
C768 C 0.44976 0.01117 0.21298 0.0
C769 C 0.437 0.03441 0.15791 0.0
C770 C 0.45712 0.03654 0.18828 0.0
C771 C 0.47367 0.0111 0.23881 0.0
C772 C 0.56418 0.98167 0.177 0.0
C773 C 0.58116 0.00657 0.15111 0.0
C774 C 0.54653 0.98396 0.2076 0.0
C775 C 0.54547 0.01121 0.21305 0.0
C776 C 0.58145 0.03441 0.15791 0.0
C777 C 0.56343 0.03656 0.18832 0.0
C778 C 0.52143 0.01112 0.23885 0.0
C779 C 0.58684 0.00141 0.32127 0.0
C780 C 0.57359 0.9723 0.33956 0.0
C781 C 0.56827 0.01082 0.30156 0.0
C782 C 0.53615 0.99137 0.30017 0.0
C783 C 0.54141 0.95336 0.33906 0.0
C784 C 0.5229 0.96292 0.31992 0.0
C785 C 0.5159 0.0001 0.27843 0.0
H786 H 0.38863 0.01635 0.32091 0.0
H787 H 0.43797 0.03309 0.28716 0.0
H788 H 0.38422 0.9307 0.35266 0.0
H789 H 0.43333 0.9475 0.31933 0.0
H790 H 0.38056 0.95991 0.17259 0.0
H791 H 0.41562 0.96369 0.22527 0.0
H792 H 0.44381 0.05397 0.13842 0.0
H793 H 0.47904 0.0576 0.19148 0.0
H794 H 0.56351 0.95992 0.17263 0.0
H795 H 0.53221 0.96373 0.22537 0.0
H796 H 0.59416 0.05396 0.13839 0.0
H797 H 0.56254 0.05762 0.19151 0.0
H798 H 0.6116 0.01647 0.32105 0.0
H799 H 0.579 0.03314 0.2872 0.0
H800 H 0.53049 0.93085 0.35294 0.0
H801 H 0.49818 0.94758 0.3195 0.0
N802 N 0.48945 -0.00501 0.29651 0.0
N803 N 0.50019 0.01636 0.22084 0.0
C804 C 0.58085 0.03161 0.75627 0.0
C805 C 0.59403 0.01258 0.75571 0.0
C806 C 0.55277 0.0221 0.77538 0.0
C807 C 0.53751 -0.00638 0.79506 0.0
C808 C 0.57813 0.98347 0.77395 0.0
C809 C 0.55015 0.97411 0.79364 0.0
C810 C 0.50852 0.98494 0.81677 0.0
C811 C 0.53956 0.95053 0.93726 0.0
C812 C 0.56708 0.97834 0.94408 0.0
C813 C 0.51946 0.94844 0.90688 0.0
C814 C 0.52687 0.97381 0.88217 0.0
C815 C 0.57502 0.00327 0.91822 0.0
C816 C 0.55514 0.00103 0.88764 0.0
C817 C 0.50298 0.97392 0.85635 0.0
C818 C 0.39522 0.95053 0.93725 0.0
C819 C 0.39546 0.97835 0.94407 0.0
C820 C 0.41323 0.94841 0.90683 0.0
C821 C 0.43115 0.97377 0.8821 0.0
C822 C 0.4124 0.00325 0.91818 0.0
C823 C 0.43005 0.001 0.88755 0.0
C824 C 0.45521 0.97389 0.8563 0.0
C825 C 0.43508 0.03148 0.756 0.0
C826 C 0.40291 0.01245 0.75544 0.0
C827 C 0.45364 0.02201 0.7752 0.0
C828 C 0.44045 -0.00644 0.79496 0.0
C829 C 0.38972 0.98336 0.77377 0.0
C830 C 0.40834 0.97404 0.79354 0.0
C831 C 0.46075 0.98491 0.81673 0.0
H832 H 0.59248 0.05414 0.74243 0.0
H833 H 0.54342 0.03749 0.77584 0.0
H834 H 0.58779 0.96835 0.77413 0.0
H835 H 0.53851 0.95177 0.80796 0.0
H836 H 0.53272 0.93097 0.95676 0.0
H837 H 0.49754 0.92739 0.90368 0.0
H838 H 0.59608 0.025 0.92259 0.0
H839 H 0.56106 0.02127 0.86989 0.0
H840 H 0.38253 0.93098 0.95678 0.0
H841 H 0.41416 0.92737 0.90363 0.0
H842 H 0.41303 0.02499 0.92255 0.0
H843 H 0.44434 0.02123 0.86977 0.0
H844 H 0.44595 0.05398 0.7421 0.0
H845 H 0.47835 0.03741 0.77564 0.0
H846 H 0.36498 0.96824 0.77396 0.0
H847 H 0.39767 0.95173 0.80791 0.0
N848 N 0.4872 0.99002 0.79864 0.0
N849 N 0.47646 0.96866 0.87431 0.0
C850 C 0.94881 0.54522 0.75582 0.0
C851 C 0.96784 0.57738 0.75522 0.0
C852 C 0.9583 0.52668 0.77501 0.0
C853 C 0.98678 0.53988 0.79471 0.0
C854 C -0.00305 0.59059 0.77349 0.0
C855 C 0.00629 0.57199 0.79324 0.0
C856 C -0.00454 0.5196 0.81647 0.0
C857 C 0.03001 0.58525 0.93686 0.0
C858 C 0.00222 0.58506 0.94371 0.0
C859 C 0.03207 0.56718 0.90648 0.0
C860 C 0.00668 0.54924 0.88181 0.0
C861 C 0.97727 0.56809 0.91787 0.0
C862 C 0.97947 0.55038 0.88729 0.0
C863 C 0.00652 0.52515 0.85603 0.0
C864 C 0.02993 0.44078 0.93689 0.0
C865 C 0.00212 0.41326 0.94372 0.0
C866 C 0.032 0.46089 0.90654 0.0
C867 C 0.0066 0.4535 0.88189 0.0
C868 C 0.97717 0.40534 0.91792 0.0
C869 C 0.97938 0.42523 0.88738 0.0
C870 C 0.00648 0.47739 0.85608 0.0
C871 C 0.94867 0.39949 0.75611 0.0
C872 C 0.96769 0.3863 0.75552 0.0
C873 C 0.95821 0.42758 0.7752 0.0
C874 C 0.98671 0.44284 0.79482 0.0
C875 C -0.00316 0.4022 0.7737 0.0
C876 C 0.00622 0.4302 0.79336 0.0
C877 C -0.00458 0.47183 0.81652 0.0
H878 H 0.92629 0.53434 0.74197 0.0
H879 H 0.94291 0.50197 0.77549 0.0
H880 H 0.01207 0.61533 0.77363 0.0
H881 H 0.02862 0.58267 0.80757 0.0
H882 H 0.04959 0.59795 0.95634 0.0
H883 H 0.0531 0.56622 0.90326 0.0
H884 H 0.95555 0.56749 0.92227 0.0
H885 H 0.95921 0.53608 0.86957 0.0
H886 H 0.04951 0.44761 0.95634 0.0
H887 H 0.05304 0.48282 0.90332 0.0
H888 H 0.95544 0.38428 0.92231 0.0
H889 H 0.95912 0.41932 0.86967 0.0
H890 H 0.92613 0.38785 0.74232 0.0
H891 H 0.94282 0.43693 0.77568 0.0
H892 H 0.01195 0.39254 0.77385 0.0
H893 H 0.02857 0.44183 0.80764 0.0
N894 N -0.00967 0.49315 0.7984 0.0
N895 N 0.01176 0.50391 0.87403 0.0
C896 C 0.5777 0.59084 0.77348 0.0
C897 C 0.5936 0.57758 0.75519 0.0
C898 C 0.54971 0.57228 0.79316 0.0
C899 C 0.53707 0.54016 0.79451 0.0
C900 C 0.58041 0.5454 0.75566 0.0
C901 C 0.55232 0.5269 0.77476 0.0
C902 C 0.5081 0.51992 0.81624 0.0
C903 C 0.5746 0.568 0.9177 0.0
C904 C 0.56665 0.58498 0.94365 0.0
C905 C 0.55474 0.55041 0.88708 0.0
C906 C 0.52646 0.54942 0.88166 0.0
C907 C 0.53912 0.58532 0.93687 0.0
C908 C 0.51904 0.56738 0.90645 0.0
C909 C 0.50257 0.52544 0.85584 0.0
C910 C 0.41234 0.40571 0.9177 0.0
C911 C 0.39535 0.41364 0.94365 0.0
C912 C 0.42992 0.42558 0.88708 0.0
C913 C 0.43089 0.45384 0.88167 0.0
C914 C 0.39499 0.44116 0.93689 0.0
C915 C 0.41292 0.46125 0.90647 0.0
C916 C 0.45487 0.47775 0.85584 0.0
C917 C 0.38944 0.40263 0.77353 0.0
C918 C 0.40269 0.38673 0.75523 0.0
C919 C 0.40801 0.43062 0.79318 0.0
C920 C 0.44014 0.44325 0.79451 0.0
C921 C 0.43488 0.39991 0.75568 0.0
C922 C 0.45339 0.42799 0.77476 0.0
C923 C 0.46038 0.47222 0.81624 0.0
H924 H 0.58736 0.6156 0.77373 0.0
H925 H 0.53808 0.58301 0.80753 0.0
H926 H 0.59204 0.53448 0.74177 0.0
H927 H 0.54298 0.50218 0.77516 0.0
H928 H 0.59567 0.56729 0.92204 0.0
H929 H 0.56067 0.53609 0.86927 0.0
H930 H 0.53227 0.59804 0.95644 0.0
H931 H 0.49711 0.56653 0.90328 0.0
H932 H 0.41307 0.38465 0.92203 0.0
H933 H 0.44425 0.41966 0.86926 0.0
H934 H 0.38226 0.448 0.95646 0.0
H935 H 0.41376 0.48317 0.90331 0.0
H936 H 0.36468 0.39298 0.77378 0.0
H937 H 0.39729 0.44226 0.80755 0.0
H938 H 0.44579 0.38827 0.7418 0.0
H939 H 0.47811 0.43734 0.77515 0.0
N940 N 0.48679 0.49352 0.79812 0.0
N941 N 0.47609 0.50422 0.87383 0.0
C942 C 0.66551 0.74958 0.50996 0.0
C943 C 0.64059 0.73263 0.48408 0.0
C944 C 0.66325 0.76722 0.54059 0.0
C945 C 0.63602 0.76831 0.54607 0.0
C946 C 0.61277 0.73239 0.49092 0.0
C947 C 0.61065 0.75039 0.52135 0.0
C948 C 0.63613 0.79234 0.57192 0.0
C949 C 0.64574 0.72684 0.65428 0.0
C950 C 0.67485 0.74005 0.67256 0.0
C951 C 0.63637 0.74545 0.63458 0.0
C952 C 0.65586 0.77756 0.63319 0.0
C953 C 0.69385 0.77222 0.67203 0.0
C954 C 0.68433 0.79077 0.65291 0.0
C955 C 0.64717 0.79785 0.61148 0.0
C956 C 0.64598 0.91533 0.65446 0.0
C957 C 0.67511 0.93113 0.67269 0.0
C958 C 0.63654 0.88734 0.63473 0.0
C959 C 0.65598 0.87462 0.63327 0.0
C960 C 0.69406 0.91786 0.6721 0.0
C961 C 0.68447 0.88979 0.65294 0.0
C962 C 0.64722 0.84563 0.61153 0.0
C963 C 0.66558 0.91217 0.51013 0.0
C964 C 0.64066 0.90427 0.48428 0.0
C965 C 0.66332 0.89228 0.54071 0.0
C966 C 0.63608 0.86403 0.54617 0.0
C967 C 0.61283 0.87677 0.4911 0.0
C968 C 0.61071 0.85666 0.52148 0.0
C969 C 0.63617 0.84011 0.57196 0.0
H970 H 0.68725 0.75021 0.50558 0.0
H971 H 0.68349 0.78151 0.55836 0.0
H972 H 0.59322 0.7197 0.4714 0.0
H973 H 0.58961 0.75132 0.52456 0.0
H974 H 0.63065 0.7021 0.65407 0.0
H975 H 0.61405 0.73476 0.62023 0.0
H976 H 0.71636 0.7831 0.6859 0.0
H977 H 0.6997 0.81548 0.65248 0.0
H978 H 0.63092 0.92505 0.65431 0.0
H979 H 0.6142 0.87578 0.62042 0.0
H980 H 0.71659 0.92942 0.68593 0.0
H981 H 0.6998 0.88037 0.65246 0.0
H982 H 0.68733 0.93321 0.50576 0.0
H983 H 0.68357 0.89817 0.55845 0.0
H984 H 0.59327 0.86995 0.4716 0.0
H985 H 0.58965 0.83474 0.52468 0.0
N986 N 0.63089 0.8136 0.55396 0.0
N987 N 0.65229 0.82428 0.6296 0.0
C988 C 0.10374 0.73258 0.49077 0.0
C989 C 0.07621 0.7329 0.48398 0.0
C990 C 0.1238 0.75052 0.52121 0.0
C991 C 0.11634 0.76845 0.546 0.0
C992 C 0.06821 0.74985 0.50992 0.0
C993 C 0.08805 0.76743 0.54056 0.0
C994 C 0.14021 0.79244 0.57185 0.0
C995 C 0.0623 0.77229 0.67199 0.0
C996 C 0.04918 0.74011 0.67244 0.0
C997 C 0.09038 0.79085 0.6529 0.0
C998 C 0.10569 0.77765 0.63316 0.0
C999 C 0.06514 0.72692 0.65415 0.0
C1000 C 0.09312 0.74554 0.6345 0.0
C1001 C 0.13466 0.79793 0.61144 0.0
C1002 C 0.20796 0.91793 0.67213 0.0
C1003 C 0.24014 0.93106 0.67262 0.0
C1004 C 0.18942 0.88987 0.65301 0.0
C1005 C 0.20264 0.87458 0.63325 0.0
C1006 C 0.25336 0.91512 0.65432 0.0
C1007 C 0.23476 0.88716 0.63462 0.0
C1008 C 0.18237 0.84564 0.61149 0.0
C1009 C 0.24782 0.87666 0.49087 0.0
C1010 C 0.24749 0.90419 0.48409 0.0
C1011 C 0.22987 0.85659 0.5213 0.0
C1012 C 0.21192 0.86402 0.54609 0.0
C1013 C 0.23052 0.91216 0.51005 0.0
C1014 C 0.21293 0.89231 0.54068 0.0
C1015 C 0.18791 0.84013 0.57189 0.0
H1016 H 0.11063 0.71988 0.47121 0.0
H1017 H 0.14574 0.75139 0.52439 0.0
H1018 H 0.04714 0.75054 0.50557 0.0
H1019 H 0.08209 0.78173 0.55838 0.0
H1020 H 0.05062 0.78316 0.68587 0.0
H1021 H 0.09968 0.81556 0.65251 0.0
H1022 H 0.05554 0.70217 0.6539 0.0
H1023 H 0.1048 0.73485 0.62013 0.0
H1024 H 0.19707 0.92959 0.68602 0.0
H1025 H 0.1647 0.88057 0.6526 0.0
H1026 H 0.27811 0.92474 0.65408 0.0
H1027 H 0.24546 0.8755 0.62024 0.0
H1028 H 0.26053 0.8698 0.4713 0.0
H1029 H 0.22901 0.83465 0.52447 0.0
H1030 H 0.22982 0.93323 0.50571 0.0
H1031 H 0.19862 0.89825 0.5585 0.0
N1032 N 0.1667 0.81366 0.55388 0.0
N1033 N 0.15595 0.82433 0.62958 0.0
C1034 C 0.24785 0.36738 0.49072 0.0
C1035 C 0.2476 0.33956 0.48392 0.0
C1036 C 0.22985 0.36951 0.52115 0.0
C1037 C 0.21194 0.34417 0.54591 0.0
C1038 C 0.23067 0.31467 0.50983 0.0
C1039 C 0.21304 0.31694 0.54046 0.0
C1040 C 0.1879 0.34406 0.57173 0.0
C1041 C 0.20799 0.28641 0.672 0.0
C1042 C 0.24016 0.30542 0.67254 0.0
C1043 C 0.18945 0.29592 0.65282 0.0
C1044 C 0.20267 0.32436 0.63305 0.0
C1045 C 0.25338 0.3345 0.65421 0.0
C1046 C 0.23478 0.34385 0.63445 0.0
C1047 C 0.18238 0.33304 0.61131 0.0
C1048 C 0.06235 0.28621 0.67191 0.0
C1049 C 0.0491 0.30517 0.67249 0.0
C1050 C 0.09042 0.29577 0.65274 0.0
C1051 C 0.1056 0.32424 0.63303 0.0
C1052 C 0.06491 0.33428 0.65422 0.0
C1053 C 0.09289 0.34369 0.63447 0.0
C1054 C 0.13459 0.33299 0.6113 0.0
C1055 C 0.10351 0.36734 0.49079 0.0
C1056 C 0.07599 0.33952 0.48399 0.0
C1057 C 0.12361 0.36946 0.52119 0.0
C1058 C 0.11621 0.34411 0.54591 0.0
C1059 C 0.06807 0.31461 0.50987 0.0
C1060 C 0.08795 0.31687 0.54046 0.0
C1061 C 0.14012 0.34402 0.57173 0.0
H1062 H 0.26053 0.38693 0.47118 0.0
H1063 H 0.22892 0.39056 0.52434 0.0
H1064 H 0.23004 0.29293 0.50547 0.0
H1065 H 0.19875 0.29671 0.55826 0.0
H1066 H 0.1971 0.26391 0.68591 0.0
H1067 H 0.16474 0.28054 0.65239 0.0
H1068 H 0.27813 0.3496 0.65401 0.0
H1069 H 0.24547 0.36616 0.62007 0.0
H1070 H 0.05079 0.26369 0.68578 0.0
H1071 H 0.09983 0.28043 0.65228 0.0
H1072 H 0.0552 0.34935 0.65406 0.0
H1073 H 0.10446 0.36602 0.62013 0.0
H1074 H 0.11034 0.3869 0.47128 0.0
H1075 H 0.14553 0.39052 0.52438 0.0
H1076 H 0.04702 0.29287 0.50551 0.0
H1077 H 0.08204 0.29664 0.55823 0.0
N1078 N 0.16664 0.34929 0.55374 0.0
N1079 N 0.15594 0.32793 0.62941 0.0
loop_
_geom_bond_atom_site_label_1
_geom_bond_atom_site_label_2
_geom_bond_distance
_geom_bond_site_symmetry_2
_ccdc_geom_bond_type
O0 Cd1 2.223 . S
O0 C8 1.315 . S
Cd1 O0 2.223 . S
Cd1 O4 2.297 . S
Cd1 O5 2.439 . S
Cd1 O11 2.240 1_554 S
Cd2 O3 2.240 . S
Cd2 O10 2.223 1_554 S
Cd2 O12 2.297 1_554 S
Cd2 O13 2.439 1_554 S
O3 Cd2 2.240 . S
O3 C8 1.279 1_655 S
O4 Cd1 2.297 . S
O4 C6 1.247 . S
O5 Cd1 2.439 . S
O5 C6 1.208 . S
C6 O4 1.247 . S
C6 O5 1.208 . S
C7 O12 1.247 . S
C7 O13 1.208 . S
C8 O0 1.315 . S
C8 O3 1.279 1_455 S
C9 O10 1.315 . S
C9 O11 1.279 1_655 S
O10 Cd2 2.223 1_556 S
O10 C9 1.315 . S
O11 Cd1 2.240 1_556 S
O11 C9 1.279 1_455 S
O12 Cd2 2.297 1_556 S
O12 C7 1.247 . S
O13 Cd2 2.439 1_556 S
O13 C7 1.208 . S
O14 Cd15 2.223 . S
O14 C22 1.315 . S
Cd15 O14 2.223 . S
Cd15 O18 2.297 . S
Cd15 O19 2.439 . S
Cd15 O25 2.240 1_554 S
Cd16 O17 2.240 . S
Cd16 O24 2.223 1_554 S
Cd16 O26 2.297 1_554 S
Cd16 O27 2.439 1_554 S
O17 Cd16 2.240 . S
O17 C22 1.279 . S
O18 Cd15 2.297 . S
O18 C20 1.247 . S
O19 Cd15 2.439 . S
O19 C20 1.208 . S
C20 O18 1.247 . S
C20 O19 1.208 . S
C21 O26 1.247 . S
C21 O27 1.208 . S
C22 O14 1.315 . S
C22 O17 1.279 . S
C23 O24 1.315 . S
C23 O25 1.279 . S
O24 Cd16 2.223 1_556 S
O24 C23 1.315 . S
O25 Cd15 2.240 1_556 S
O25 C23 1.279 . S
O26 Cd16 2.297 1_556 S
O26 C21 1.247 . S
O27 Cd16 2.439 1_556 S
O27 C21 1.208 . S
O28 Cd29 2.223 1_556 S
O28 C36 1.315 . S
Cd29 O28 2.223 1_554 S
Cd29 O32 2.297 1_554 S
Cd29 O33 2.439 1_554 S
Cd29 O39 2.240 . S
Cd30 O31 2.240 1_554 S
Cd30 O38 2.223 . S
Cd30 O40 2.297 . S
Cd30 O41 2.439 . S
O31 Cd30 2.240 1_556 S
O31 C36 1.279 1_565 S
O32 Cd29 2.297 1_556 S
O32 C34 1.247 . S
O33 Cd29 2.439 1_556 S
O33 C34 1.208 . S
C34 O32 1.247 . S
C34 O33 1.208 . S
C35 O40 1.247 . S
C35 O41 1.208 . S
C36 O28 1.315 . S
C36 O31 1.279 1_545 S
C37 O38 1.315 . S
C37 O39 1.279 1_565 S
O38 Cd30 2.223 . S
O38 C37 1.315 . S
O39 Cd29 2.240 . S
O39 C37 1.279 1_545 S
O40 Cd30 2.297 . S
O40 C35 1.247 . S
O41 Cd30 2.439 . S
O41 C35 1.208 . S
O42 Cd43 2.223 1_556 S
O42 C50 1.315 . S
Cd43 O42 2.223 1_554 S
Cd43 O46 2.297 1_554 S
Cd43 O47 2.439 1_554 S
Cd43 O53 2.240 . S
Cd44 O45 2.240 1_554 S
Cd44 O52 2.223 . S
Cd44 O54 2.297 . S
Cd44 O55 2.439 . S
O45 Cd44 2.240 1_556 S
O45 C50 1.279 1_455 S
O46 Cd43 2.297 1_556 S
O46 C48 1.247 . S
O47 Cd43 2.439 1_556 S
O47 C48 1.208 . S
C48 O46 1.247 . S
C48 O47 1.208 . S
C49 O54 1.247 . S
C49 O55 1.208 . S
C50 O42 1.315 . S
C50 O45 1.279 1_655 S
C51 O52 1.315 . S
C51 O53 1.279 1_455 S
O52 Cd44 2.223 . S
O52 C51 1.315 . S
O53 Cd43 2.240 . S
O53 C51 1.279 1_655 S
O54 Cd44 2.297 . S
O54 C49 1.247 . S
O55 Cd44 2.439 . S
O55 C49 1.208 . S
O56 Cd57 2.223 1_556 S
O56 C64 1.315 . S
Cd57 O56 2.223 1_554 S
Cd57 O60 2.297 1_554 S
Cd57 O61 2.439 1_554 S
Cd57 O67 2.240 . S
Cd58 O59 2.240 1_554 S
Cd58 O66 2.223 . S
Cd58 O68 2.297 . S
Cd58 O69 2.439 . S
O59 Cd58 2.240 1_556 S
O59 C64 1.279 . S
O60 Cd57 2.297 1_556 S
O60 C62 1.247 . S
O61 Cd57 2.439 1_556 S
O61 C62 1.208 . S
C62 O60 1.247 . S
C62 O61 1.208 . S
C63 O68 1.247 . S
C63 O69 1.208 . S
C64 O56 1.315 . S
C64 O59 1.279 . S
C65 O66 1.315 . S
C65 O67 1.279 . S
O66 Cd58 2.223 . S
O66 C65 1.315 . S
O67 Cd57 2.240 . S
O67 C65 1.279 . S
O68 Cd58 2.297 . S
O68 C63 1.247 . S
O69 Cd58 2.439 . S
O69 C63 1.208 . S
O70 Cd71 2.223 . S
O70 C78 1.315 . S
Cd71 O70 2.223 . S
Cd71 O74 2.297 . S
Cd71 O75 2.439 . S
Cd71 O81 2.240 1_554 S
Cd72 O73 2.240 . S
Cd72 O80 2.223 1_554 S
Cd72 O82 2.297 1_554 S
Cd72 O83 2.439 1_554 S
O73 Cd72 2.240 . S
O73 C78 1.279 1_545 S
O74 Cd71 2.297 . S
O74 C76 1.247 . S
O75 Cd71 2.439 . S
O75 C76 1.208 . S
C76 O74 1.247 . S
C76 O75 1.208 . S
C77 O82 1.247 . S
C77 O83 1.208 . S
C78 O70 1.315 . S
C78 O73 1.279 1_565 S
C79 O80 1.315 . S
C79 O81 1.279 1_545 S
O80 Cd72 2.223 1_556 S
O80 C79 1.315 . S
O81 Cd71 2.240 1_556 S
O81 C79 1.279 1_565 S
O82 Cd72 2.297 1_556 S
O82 C77 1.247 . S
O83 Cd72 2.439 1_556 S
O83 C77 1.208 . S
O84 Cd85 2.223 . S
O84 C92 1.315 . S
Cd85 O84 2.223 . S
Cd85 O88 2.297 . S
Cd85 O89 2.439 . S
Cd85 O95 2.240 . S
Cd86 O87 2.240 . S
Cd86 O94 2.223 . S
Cd86 O96 2.297 . S
Cd86 O97 2.439 . S
O87 Cd86 2.240 . S
O87 C92 1.279 . S
O88 Cd85 2.297 . S
O88 C90 1.247 . S
O89 Cd85 2.439 . S
O89 C90 1.208 . S
C90 O88 1.247 . S
C90 O89 1.208 . S
C91 O96 1.247 . S
C91 O97 1.208 . S
C92 O84 1.315 . S
C92 O87 1.279 . S
C93 O94 1.315 . S
C93 O95 1.279 . S
O94 Cd86 2.223 . S
O94 C93 1.315 . S
O95 Cd85 2.240 . S
O95 C93 1.279 . S
O96 Cd86 2.297 . S
O96 C91 1.247 . S
O97 Cd86 2.439 . S
O97 C91 1.208 . S
O98 Cd99 2.240 . S
O98 C106 1.315 . S
Cd99 O98 2.240 . S
Cd99 O102 2.282 1_565 S
Cd99 O103 2.433 1_565 S
Cd99 O109 2.257 . S
Cd100 O101 2.240 . S
Cd100 O108 2.223 . S
Cd100 O110 2.297 . S
Cd100 O111 2.421 1_565 S
O101 Cd100 2.240 . S
O101 C106 1.279 . S
O102 Cd99 2.282 1_545 S
O102 C104 1.247 . S
O103 Cd99 2.433 1_545 S
O103 C104 1.208 . S
C104 O102 1.247 . S
C104 O103 1.208 . S
C105 O110 1.247 . S
C105 O111 1.188 1_565 S
C106 O98 1.315 . S
C106 O101 1.279 . S
C107 O108 1.315 . S
C107 O109 1.279 . S
O108 Cd100 2.223 . S
O108 C107 1.315 . S
O109 Cd99 2.257 . S
O109 C107 1.279 . S
O110 Cd100 2.297 . S
O110 C105 1.247 . S
O111 Cd100 2.421 1_545 S
O111 C105 1.188 1_545 S
O112 Cd113 2.223 . S
O112 C120 1.315 . S
Cd113 O112 2.223 . S
Cd113 O116 2.297 . S
Cd113 O117 2.426 1_455 S
Cd113 O123 2.240 . S
Cd114 O115 2.240 . S
Cd114 O122 2.223 . S
Cd114 O124 2.297 1_455 S
Cd114 O125 2.439 1_455 S
O115 Cd114 2.240 . S
O115 C120 1.279 . S
O116 Cd113 2.297 . S
O116 C118 1.247 . S
O117 Cd113 2.426 1_655 S
O117 C118 1.207 1_655 S
C118 O116 1.247 . S
C118 O117 1.207 1_455 S
C119 O124 1.247 . S
C119 O125 1.208 . S
C120 O112 1.315 . S
C120 O115 1.279 . S
C121 O122 1.315 . S
C121 O123 1.279 . S
O122 Cd114 2.223 . S
O122 C121 1.315 . S
O123 Cd113 2.240 . S
O123 C121 1.279 . S
O124 Cd114 2.297 1_655 S
O124 C119 1.247 . S
O125 Cd114 2.439 1_655 S
O125 C119 1.208 . S
O126 Cd127 2.223 . S
O126 C134 1.315 . S
Cd127 O126 2.223 . S
Cd127 O130 2.297 . S
Cd127 O131 2.401 1_565 S
Cd127 O137 2.240 . S
Cd128 O129 2.243 . S
Cd128 O136 2.234 . S
Cd128 O138 2.291 1_565 S
Cd128 O139 2.427 1_565 S
O129 Cd128 2.243 . S
O129 C134 1.279 . S
O130 Cd127 2.297 . S
O130 C132 1.247 . S
O131 Cd127 2.401 1_545 S
O131 C132 1.203 1_545 S
C132 O130 1.247 . S
C132 O131 1.203 1_565 S
C133 O138 1.247 . S
C133 O139 1.208 . S
C134 O126 1.315 . S
C134 O129 1.279 . S
C135 O136 1.315 . S
C135 O137 1.279 . S
O136 Cd128 2.234 . S
O136 C135 1.315 . S
O137 Cd127 2.240 . S
O137 C135 1.279 . S
O138 Cd128 2.291 1_545 S
O138 C133 1.247 . S
O139 Cd128 2.427 1_545 S
O139 C133 1.208 . S
O140 Cd141 2.223 . S
O140 C148 1.315 . S
Cd141 O140 2.223 . S
Cd141 O144 2.297 . S
Cd141 O145 2.439 1_455 S
Cd141 O151 2.240 . S
Cd142 O143 2.240 . S
Cd142 O150 2.223 . S
Cd142 O152 2.297 1_455 S
Cd142 O153 2.439 1_455 S
O143 Cd142 2.240 . S
O143 C148 1.279 . S
O144 Cd141 2.297 . S
O144 C146 1.247 . S
O145 Cd141 2.439 1_655 S
O145 C146 1.209 1_655 S
C146 O144 1.247 . S
C146 O145 1.209 1_455 S
C147 O152 1.247 . S
C147 O153 1.208 . S
C148 O140 1.315 . S
C148 O143 1.279 . S
C149 O150 1.315 . S
C149 O151 1.279 . S
O150 Cd142 2.223 . S
O150 C149 1.315 . S
O151 Cd141 2.240 . S
O151 C149 1.279 . S
O152 Cd142 2.297 1_655 S
O152 C147 1.247 . S
O153 Cd142 2.439 1_655 S
O153 C147 1.208 . S
O154 Cd155 2.223 . S
O154 C162 1.315 . S
Cd155 O154 2.223 . S
Cd155 O158 2.297 . S
Cd155 O159 2.439 . S
Cd155 O165 2.240 . S
Cd156 O157 2.240 . S
Cd156 O164 2.223 . S
Cd156 O166 2.297 . S
Cd156 O167 2.439 . S
O157 Cd156 2.240 . S
O157 C162 1.279 . S
O158 Cd155 2.297 . S
O158 C160 1.247 . S
O159 Cd155 2.439 . S
O159 C160 1.208 . S
C160 O158 1.247 . S
C160 O159 1.208 . S
C161 O166 1.247 . S
C161 O167 1.208 . S
C162 O154 1.315 . S
C162 O157 1.279 . S
C163 O164 1.315 . S
C163 O165 1.279 . S
O164 Cd156 2.223 . S
O164 C163 1.315 . S
O165 Cd155 2.240 . S
O165 C163 1.279 . S
O166 Cd156 2.297 . S
O166 C161 1.247 . S
O167 Cd156 2.439 . S
O167 C161 1.208 . S
O168 Cd169 2.223 . S
O168 C176 1.315 . S
Cd169 O168 2.223 . S
Cd169 O172 2.297 . S
Cd169 O173 2.423 1_545 S
Cd169 O179 2.240 . S
Cd170 O171 2.250 . S
Cd170 O178 2.258 . S
Cd170 O180 2.278 1_545 S
Cd170 O181 2.399 1_545 S
O171 Cd170 2.250 . S
O171 C176 1.279 . S
O172 Cd169 2.297 . S
O172 C174 1.247 . S
O173 Cd169 2.423 1_565 S
O173 C174 1.206 1_565 S
C174 O172 1.247 . S
C174 O173 1.206 1_545 S
C175 O180 1.247 . S
C175 O181 1.208 . S
C176 O168 1.315 . S
C176 O171 1.279 . S
C177 O178 1.315 . S
C177 O179 1.279 . S
O178 Cd170 2.258 . S
O178 C177 1.315 . S
O179 Cd169 2.240 . S
O179 C177 1.279 . S
O180 Cd170 2.278 1_565 S
O180 C175 1.247 . S
O181 Cd170 2.399 1_565 S
O181 C175 1.208 . S
O182 Cd183 2.223 . S
O182 C190 1.315 . S
Cd183 O182 2.223 . S
Cd183 O186 2.297 . S
Cd183 O187 2.419 1_655 S
Cd183 O193 2.240 . S
Cd184 O185 2.253 . S
Cd184 O192 2.236 . S
Cd184 O194 2.285 1_655 S
Cd184 O195 2.434 1_655 S
O185 Cd184 2.253 . S
O185 C190 1.279 . S
O186 Cd183 2.297 . S
O186 C188 1.247 . S
O187 Cd183 2.419 1_455 S
O187 C188 1.185 1_455 S
C188 O186 1.247 . S
C188 O187 1.185 1_655 S
C189 O194 1.247 . S
C189 O195 1.208 . S
C190 O182 1.315 . S
C190 O185 1.279 . S
C191 O192 1.315 . S
C191 O193 1.279 . S
O192 Cd184 2.236 . S
O192 C191 1.315 . S
O193 Cd183 2.240 . S
O193 C191 1.279 . S
O194 Cd184 2.285 1_455 S
O194 C189 1.247 . S
O195 Cd184 2.434 1_455 S
O195 C189 1.208 . S
O196 Cd197 2.223 . S
O196 C204 1.315 . S
Cd197 O196 2.223 . S
Cd197 O200 2.297 . S
Cd197 O201 2.439 . S
Cd197 O207 2.240 . S
Cd198 O199 2.240 . S
Cd198 O206 2.223 . S
Cd198 O208 2.297 . S
Cd198 O209 2.439 . S
O199 Cd198 2.240 . S
O199 C204 1.279 . S
O200 Cd197 2.297 . S
O200 C202 1.247 . S
O201 Cd197 2.439 . S
O201 C202 1.208 . S
C202 O200 1.247 . S
C202 O201 1.208 . S
C203 O208 1.247 . S
C203 O209 1.208 . S
C204 O196 1.315 . S
C204 O199 1.279 . S
C205 O206 1.315 . S
C205 O207 1.279 . S
O206 Cd198 2.223 . S
O206 C205 1.315 . S
O207 Cd197 2.240 . S
O207 C205 1.279 . S
O208 Cd198 2.297 . S
O208 C203 1.247 . S
O209 Cd198 2.439 . S
O209 C203 1.208 . S
O210 Cd211 2.223 . S
O210 C218 1.315 . S
Cd211 O210 2.223 . S
Cd211 O214 2.297 . S
Cd211 O215 2.439 . S
Cd211 O221 2.240 . S
Cd212 O213 2.240 . S
Cd212 O220 2.223 . S
Cd212 O222 2.297 . S
Cd212 O223 2.439 . S
O213 Cd212 2.240 . S
O213 C218 1.279 . S
O214 Cd211 2.297 . S
O214 C216 1.247 . S
O215 Cd211 2.439 . S
O215 C216 1.208 . S
C216 O214 1.247 . S
C216 O215 1.208 . S
C217 O222 1.247 . S
C217 O223 1.208 . S
C218 O210 1.315 . S
C218 O213 1.279 . S
C219 O220 1.315 . S
C219 O221 1.279 . S
O220 Cd212 2.223 . S
O220 C219 1.315 . S
O221 Cd211 2.240 . S
O221 C219 1.279 . S
O222 Cd212 2.297 . S
O222 C217 1.247 . S
O223 Cd212 2.439 . S
O223 C217 1.208 . S
O224 Cd225 2.223 . S
O224 C232 1.315 . S
Cd225 O224 2.223 . S
Cd225 O228 2.297 1_545 S
Cd225 O229 2.439 1_545 S
Cd225 O235 2.240 . S
Cd226 O227 2.240 . S
Cd226 O234 2.223 . S
Cd226 O236 2.297 . S
Cd226 O237 2.437 1_545 S
O227 Cd226 2.240 . S
O227 C232 1.279 . S
O228 Cd225 2.297 1_565 S
O228 C230 1.247 . S
O229 Cd225 2.439 1_565 S
O229 C230 1.208 . S
C230 O228 1.247 . S
C230 O229 1.208 . S
C231 O236 1.247 . S
C231 O237 1.206 1_545 S
C232 O224 1.315 . S
C232 O227 1.279 . S
C233 O234 1.315 . S
C233 O235 1.279 . S
O234 Cd226 2.223 . S
O234 C233 1.315 . S
O235 Cd225 2.240 . S
O235 C233 1.279 . S
O236 Cd226 2.297 . S
O236 C231 1.247 . S
O237 Cd226 2.437 1_565 S
O237 C231 1.206 1_565 S
O238 Cd239 2.223 . S
O238 C246 1.315 . S
Cd239 O238 2.223 . S
Cd239 O242 2.297 . S
Cd239 O243 2.439 1_655 S
Cd239 O249 2.240 . S
Cd240 O241 2.242 . S
Cd240 O248 2.230 . S
Cd240 O250 2.293 1_655 S
Cd240 O251 2.431 1_655 S
O241 Cd240 2.242 . S
O241 C246 1.279 . S
O242 Cd239 2.297 . S
O242 C244 1.247 . S
O243 Cd239 2.439 1_455 S
O243 C244 1.208 1_455 S
C244 O242 1.247 . S
C244 O243 1.208 1_655 S
C245 O250 1.247 . S
C245 O251 1.208 . S
C246 O238 1.315 . S
C246 O241 1.279 . S
C247 O248 1.315 . S
C247 O249 1.279 . S
O248 Cd240 2.230 . S
O248 C247 1.315 . S
O249 Cd239 2.240 . S
O249 C247 1.279 . S
O250 Cd240 2.293 1_455 S
O250 C245 1.247 . S
O251 Cd240 2.431 1_455 S
O251 C245 1.208 . S
C252 C253 1.384 . S
C252 C254 1.384 . S
C252 H280 0.931 . S
C253 C252 1.384 . S
C253 C256 1.382 . S
C254 C252 1.384 . S
C254 C255 1.381 . S
C254 H281 0.930 . S
C255 C254 1.381 . S
C255 C257 1.381 . S
C255 C258 1.487 . S
C256 C253 1.382 . S
C256 C257 1.387 . S
C256 H282 0.930 . S
C257 C255 1.381 . S
C257 C256 1.387 . S
C257 H283 0.931 . S
C258 C255 1.487 . S
C258 C265 1.399 . S
C258 N296 1.343 . S
C259 C260 1.384 . S
C259 C261 1.384 . S
C259 H284 0.931 . S
C260 C259 1.384 . S
C260 C263 1.382 . S
C261 C259 1.384 . S
C261 C262 1.381 . S
C261 H285 0.930 . S
C262 C261 1.381 . S
C262 C264 1.381 . S
C262 C265 1.487 . S
C263 C260 1.382 . S
C263 C264 1.387 . S
C263 H286 0.930 . S
C264 C262 1.381 . S
C264 C263 1.387 . S
C264 H287 0.931 . S
C265 C258 1.399 . S
C265 C262 1.487 . S
C265 N297 1.343 . S
C266 C267 1.384 . S
C266 C268 1.384 . S
C266 H288 0.931 . S
C267 C266 1.384 . S
C267 C270 1.382 . S
C268 C266 1.384 . S
C268 C269 1.381 . S
C268 H289 0.930 . S
C269 C268 1.381 . S
C269 C271 1.381 . S
C269 C272 1.487 . S
C270 C267 1.382 . S
C270 C271 1.387 . S
C270 H290 0.930 . S
C271 C269 1.381 . S
C271 C270 1.387 . S
C271 H291 0.931 . S
C272 C269 1.487 . S
C272 C279 1.399 . S
C272 N297 1.343 . S
C273 C274 1.384 . S
C273 C275 1.384 . S
C273 H292 0.931 . S
C274 C273 1.384 . S
C274 C277 1.382 . S
C275 C273 1.384 . S
C275 C276 1.381 . S
C275 H293 0.930 . S
C276 C275 1.381 . S
C276 C278 1.381 . S
C276 C279 1.487 . S
C277 C274 1.382 . S
C277 C278 1.387 . S
C277 H294 0.930 . S
C278 C276 1.381 . S
C278 C277 1.387 . S
C278 H295 0.931 . S
C279 C272 1.399 . S
C279 C276 1.487 . S
C279 N296 1.343 . S
H280 C252 0.931 . S
H281 C254 0.930 . S
H282 C256 0.930 . S
H283 C257 0.931 . S
H284 C259 0.931 . S
H285 C261 0.930 . S
H286 C263 0.930 . S
H287 C264 0.931 . S
H288 C266 0.931 . S
H289 C268 0.930 . S
H290 C270 0.930 . S
H291 C271 0.931 . S
H292 C273 0.931 . S
H293 C275 0.930 . S
H294 C277 0.930 . S
H295 C278 0.931 . S
N296 C258 1.343 . S
N296 C279 1.343 . S
N297 C265 1.343 . S
N297 C272 1.343 . S
C298 C299 1.384 . S
C298 C300 1.384 . S
C298 H326 0.931 . S
C299 C298 1.384 . S
C299 C302 1.382 . S
C300 C298 1.384 . S
C300 C301 1.381 . S
C300 H327 0.930 . S
C301 C300 1.381 . S
C301 C303 1.381 . S
C301 C304 1.487 . S
C302 C299 1.382 . S
C302 C303 1.387 . S
C302 H328 0.930 . S
C303 C301 1.381 . S
C303 C302 1.387 . S
C303 H329 0.931 . S
C304 C301 1.487 . S
C304 C311 1.399 . S
C304 N342 1.343 . S
C305 C306 1.384 . S
C305 C307 1.384 . S
C305 H330 0.931 . S
C306 C305 1.384 . S
C306 C309 1.382 . S
C307 C305 1.384 . S
C307 C308 1.381 . S
C307 H331 0.930 . S
C308 C307 1.381 . S
C308 C310 1.381 . S
C308 C311 1.487 . S
C309 C306 1.382 . S
C309 C310 1.387 . S
C309 H332 0.930 . S
C310 C308 1.381 . S
C310 C309 1.387 . S
C310 H333 0.931 . S
C311 C304 1.399 . S
C311 C308 1.487 . S
C311 N343 1.343 . S
C312 C313 1.384 . S
C312 C314 1.384 . S
C312 H334 0.931 . S
C313 C312 1.384 . S
C313 C316 1.382 . S
C314 C312 1.384 . S
C314 C315 1.381 . S
C314 H335 0.930 . S
C315 C314 1.381 . S
C315 C317 1.381 . S
C315 C318 1.487 . S
C316 C313 1.382 . S
C316 C317 1.387 . S
C316 H336 0.930 . S
C317 C315 1.381 . S
C317 C316 1.387 . S
C317 H337 0.931 . S
C318 C315 1.487 . S
C318 C325 1.399 . S
C318 N343 1.343 . S
C319 C320 1.384 . S
C319 C321 1.384 . S
C319 H338 0.931 . S
C320 C319 1.384 . S
C320 C323 1.382 . S
C321 C319 1.384 . S
C321 C322 1.381 . S
C321 H339 0.930 . S
C322 C321 1.381 . S
C322 C324 1.381 . S
C322 C325 1.487 . S
C323 C320 1.382 . S
C323 C324 1.387 . S
C323 H340 0.930 . S
C324 C322 1.381 . S
C324 C323 1.387 . S
C324 H341 0.931 . S
C325 C318 1.399 . S
C325 C322 1.487 . S
C325 N342 1.343 . S
H326 C298 0.931 . S
H327 C300 0.930 . S
H328 C302 0.930 . S
H329 C303 0.931 . S
H330 C305 0.931 . S
H331 C307 0.930 . S
H332 C309 0.930 . S
H333 C310 0.931 . S
H334 C312 0.931 . S
H335 C314 0.930 . S
H336 C316 0.930 . S
H337 C317 0.931 . S
H338 C319 0.931 . S
H339 C321 0.930 . S
H340 C323 0.930 . S
H341 C324 0.931 . S
N342 C304 1.343 . S
N342 C325 1.343 . S
N343 C311 1.343 . S
N343 C318 1.343 . S
C344 C345 1.384 . S
C344 C346 1.384 . S
C344 H372 0.931 . S
C345 C344 1.384 . S
C345 C348 1.382 . S
C346 C344 1.384 . S
C346 C347 1.381 . S
C346 H373 0.930 . S
C347 C346 1.381 . S
C347 C349 1.381 . S
C347 C350 1.487 . S
C348 C345 1.382 . S
C348 C349 1.387 . S
C348 H374 0.930 . S
C349 C347 1.381 . S
C349 C348 1.387 . S
C349 H375 0.931 . S
C350 C347 1.487 . S
C350 C357 1.399 . S
C350 N388 1.343 . S
C351 C352 1.384 . S
C351 C353 1.384 . S
C351 H376 0.931 . S
C352 C351 1.384 . S
C352 C355 1.382 . S
C353 C351 1.384 . S
C353 C354 1.381 . S
C353 H377 0.930 . S
C354 C353 1.381 . S
C354 C356 1.381 . S
C354 C357 1.487 . S
C355 C352 1.382 . S
C355 C356 1.387 . S
C355 H378 0.930 . S
C356 C354 1.381 . S
C356 C355 1.387 . S
C356 H379 0.931 . S
C357 C350 1.399 . S
C357 C354 1.487 . S
C357 N389 1.343 . S
C358 C359 1.384 . S
C358 C360 1.384 . S
C358 H380 0.931 . S
C359 C358 1.384 . S
C359 C362 1.382 . S
C360 C358 1.384 . S
C360 C361 1.381 . S
C360 H381 0.930 . S
C361 C360 1.381 . S
C361 C363 1.381 . S
C361 C364 1.487 . S
C362 C359 1.382 . S
C362 C363 1.387 . S
C362 H382 0.930 . S
C363 C361 1.381 . S
C363 C362 1.387 . S
C363 H383 0.931 . S
C364 C361 1.487 . S
C364 C371 1.399 . S
C364 N389 1.343 . S
C365 C366 1.384 . S
C365 C367 1.384 . S
C365 H384 0.931 . S
C366 C365 1.384 . S
C366 C369 1.382 . S
C367 C365 1.384 . S
C367 C368 1.381 . S
C367 H385 0.930 . S
C368 C367 1.381 . S
C368 C370 1.381 . S
C368 C371 1.487 . S
C369 C366 1.382 . S
C369 C370 1.387 . S
C369 H386 0.930 . S
C370 C368 1.381 . S
C370 C369 1.387 . S
C370 H387 0.931 . S
C371 C364 1.399 . S
C371 C368 1.487 . S
C371 N388 1.343 . S
H372 C344 0.931 . S
H373 C346 0.930 . S
H374 C348 0.930 . S
H375 C349 0.931 . S
H376 C351 0.931 . S
H377 C353 0.930 . S
H378 C355 0.930 . S
H379 C356 0.931 . S
H380 C358 0.931 . S
H381 C360 0.930 . S
H382 C362 0.930 . S
H383 C363 0.931 . S
H384 C365 0.931 . S
H385 C367 0.930 . S
H386 C369 0.930 . S
H387 C370 0.931 . S
N388 C350 1.343 . S
N388 C371 1.343 . S
N389 C357 1.343 . S
N389 C364 1.343 . S
C390 C391 1.384 . S
C390 C392 1.384 . S
C390 H418 0.931 . S
C391 C390 1.384 . S
C391 C394 1.382 . S
C392 C390 1.384 . S
C392 C393 1.381 . S
C392 H419 0.930 . S
C393 C392 1.381 . S
C393 C395 1.381 . S
C393 C396 1.487 . S
C394 C391 1.382 . S
C394 C395 1.387 . S
C394 H420 0.930 . S
C395 C393 1.381 . S
C395 C394 1.387 . S
C395 H421 0.931 . S
C396 C393 1.487 . S
C396 C403 1.399 . S
C396 N434 1.343 . S
C397 C398 1.384 . S
C397 C399 1.384 . S
C397 H422 0.931 . S
C398 C397 1.384 . S
C398 C401 1.382 . S
C399 C397 1.384 . S
C399 C400 1.381 . S
C399 H423 0.930 . S
C400 C399 1.381 . S
C400 C402 1.381 . S
C400 C403 1.487 . S
C401 C398 1.382 . S
C401 C402 1.387 . S
C401 H424 0.930 . S
C402 C400 1.381 . S
C402 C401 1.387 . S
C402 H425 0.931 . S
C403 C396 1.399 . S
C403 C400 1.487 . S
C403 N435 1.343 . S
C404 C405 1.384 . S
C404 C406 1.384 . S
C404 H426 0.931 . S
C405 C404 1.384 . S
C405 C408 1.382 . S
C406 C404 1.384 . S
C406 C407 1.381 . S
C406 H427 0.930 . S
C407 C406 1.381 . S
C407 C409 1.381 . S
C407 C410 1.487 . S
C408 C405 1.382 . S
C408 C409 1.387 . S
C408 H428 0.930 . S
C409 C407 1.381 . S
C409 C408 1.387 . S
C409 H429 0.931 . S
C410 C407 1.487 . S
C410 C417 1.399 . S
C410 N435 1.343 . S
C411 C412 1.384 . S
C411 C413 1.384 . S
C411 H430 0.931 . S
C412 C411 1.384 . S
C412 C415 1.382 . S
C413 C411 1.384 . S
C413 C414 1.381 . S
C413 H431 0.930 . S
C414 C413 1.381 . S
C414 C416 1.381 . S
C414 C417 1.487 . S
C415 C412 1.382 . S
C415 C416 1.387 . S
C415 H432 0.930 . S
C416 C414 1.381 . S
C416 C415 1.387 . S
C416 H433 0.931 . S
C417 C410 1.399 . S
C417 C414 1.487 . S
C417 N434 1.343 . S
H418 C390 0.931 . S
H419 C392 0.930 . S
H420 C394 0.930 . S
H421 C395 0.931 . S
H422 C397 0.931 . S
H423 C399 0.930 . S
H424 C401 0.930 . S
H425 C402 0.931 . S
H426 C404 0.931 . S
H427 C406 0.930 . S
H428 C408 0.930 . S
H429 C409 0.931 . S
H430 C411 0.931 . S
H431 C413 0.930 . S
H432 C415 0.930 . S
H433 C416 0.931 . S
N434 C396 1.343 . S
N434 C417 1.343 . S
N435 C403 1.343 . S
N435 C410 1.343 . S
C436 C437 1.384 . S
C436 C438 1.384 . S
C436 H464 0.931 . S
C437 C436 1.384 . S
C437 C440 1.382 . S
C438 C436 1.384 . S
C438 C439 1.381 . S
C438 H465 0.930 . S
C439 C438 1.381 . S
C439 C441 1.381 . S
C439 C442 1.487 . S
C440 C437 1.382 . S
C440 C441 1.387 . S
C440 H466 0.930 . S
C441 C439 1.381 . S
C441 C440 1.387 . S
C441 H467 0.931 . S
C442 C439 1.487 . S
C442 C449 1.399 . S
C442 N480 1.343 . S
C443 C444 1.384 . S
C443 C445 1.384 . S
C443 H468 0.931 . S
C444 C443 1.384 . S
C444 C447 1.382 . S
C445 C443 1.384 . S
C445 C446 1.381 . S
C445 H469 0.930 . S
C446 C445 1.381 . S
C446 C448 1.381 . S
C446 C449 1.487 . S
C447 C444 1.382 . S
C447 C448 1.387 . S
C447 H470 0.930 . S
C448 C446 1.381 . S
C448 C447 1.387 . S
C448 H471 0.931 . S
C449 C442 1.399 . S
C449 C446 1.487 . S
C449 N481 1.343 . S
C450 C451 1.384 . S
C450 C452 1.384 . S
C450 H472 0.931 . S
C451 C450 1.384 . S
C451 C454 1.382 . S
C452 C450 1.384 . S
C452 C453 1.381 . S
C452 H473 0.930 . S
C453 C452 1.381 . S
C453 C455 1.381 . S
C453 C456 1.487 . S
C454 C451 1.382 . S
C454 C455 1.387 . S
C454 H474 0.930 . S
C455 C453 1.381 . S
C455 C454 1.387 . S
C455 H475 0.931 . S
C456 C453 1.487 . S
C456 C463 1.399 . S
C456 N481 1.343 . S
C457 C458 1.384 . S
C457 C459 1.384 . S
C457 H476 0.931 . S
C458 C457 1.384 . S
C458 C461 1.382 . S
C459 C457 1.384 . S
C459 C460 1.381 . S
C459 H477 0.930 . S
C460 C459 1.381 . S
C460 C462 1.381 . S
C460 C463 1.487 . S
C461 C458 1.382 . S
C461 C462 1.387 . S
C461 H478 0.930 . S
C462 C460 1.381 . S
C462 C461 1.387 . S
C462 H479 0.931 . S
C463 C456 1.399 . S
C463 C460 1.487 . S
C463 N480 1.343 . S
H464 C436 0.931 . S
H465 C438 0.930 . S
H466 C440 0.930 . S
H467 C441 0.931 . S
H468 C443 0.931 . S
H469 C445 0.930 . S
H470 C447 0.930 . S
H471 C448 0.931 . S
H472 C450 0.931 . S
H473 C452 0.930 . S
H474 C454 0.930 . S
H475 C455 0.931 . S
H476 C457 0.931 . S
H477 C459 0.930 . S
H478 C461 0.930 . S
H479 C462 0.931 . S
N480 C442 1.343 . S
N480 C463 1.343 . S
N481 C449 1.343 . S
N481 C456 1.343 . S
C482 C483 1.384 . S
C482 C484 1.384 . S
C482 H510 0.931 . S
C483 C482 1.384 . S
C483 C486 1.382 . S
C484 C482 1.384 . S
C484 C485 1.381 . S
C484 H511 0.930 . S
C485 C484 1.381 . S
C485 C487 1.381 . S
C485 C488 1.487 . S
C486 C483 1.382 . S
C486 C487 1.387 . S
C486 H512 0.930 . S
C487 C485 1.381 . S
C487 C486 1.387 . S
C487 H513 0.931 . S
C488 C485 1.487 . S
C488 C495 1.399 . S
C488 N526 1.343 . S
C489 C490 1.384 . S
C489 C491 1.384 . S
C489 H514 0.931 . S
C490 C489 1.384 . S
C490 C493 1.382 . S
C491 C489 1.384 . S
C491 C492 1.381 . S
C491 H515 0.930 . S
C492 C491 1.381 . S
C492 C494 1.381 . S
C492 C495 1.487 . S
C493 C490 1.382 . S
C493 C494 1.387 . S
C493 H516 0.930 . S
C494 C492 1.381 . S
C494 C493 1.387 . S
C494 H517 0.931 . S
C495 C488 1.399 . S
C495 C492 1.487 . S
C495 N527 1.343 . S
C496 C497 1.384 . S
C496 C498 1.384 . S
C496 H518 0.931 . S
C497 C496 1.384 . S
C497 C500 1.382 . S
C498 C496 1.384 . S
C498 C499 1.381 . S
C498 H519 0.930 . S
C499 C498 1.381 . S
C499 C501 1.381 . S
C499 C502 1.487 . S
C500 C497 1.382 . S
C500 C501 1.387 . S
C500 H520 0.930 . S
C501 C499 1.381 . S
C501 C500 1.387 . S
C501 H521 0.931 . S
C502 C499 1.487 . S
C502 C509 1.399 . S
C502 N527 1.343 . S
C503 C504 1.384 . S
C503 C505 1.384 . S
C503 H522 0.931 . S
C504 C503 1.384 . S
C504 C507 1.382 . S
C505 C503 1.384 . S
C505 C506 1.381 . S
C505 H523 0.930 . S
C506 C505 1.381 . S
C506 C508 1.381 . S
C506 C509 1.487 . S
C507 C504 1.382 . S
C507 C508 1.387 . S
C507 H524 0.930 . S
C508 C506 1.381 . S
C508 C507 1.387 . S
C508 H525 0.931 . S
C509 C502 1.399 . S
C509 C506 1.487 . S
C509 N526 1.343 . S
H510 C482 0.931 . S
H511 C484 0.930 . S
H512 C486 0.930 . S
H513 C487 0.931 . S
H514 C489 0.931 . S
H515 C491 0.930 . S
H516 C493 0.930 . S
H517 C494 0.931 . S
H518 C496 0.931 . S
H519 C498 0.930 . S
H520 C500 0.930 . S
H521 C501 0.931 . S
H522 C503 0.931 . S
H523 C505 0.930 . S
H524 C507 0.930 . S
H525 C508 0.931 . S
N526 C488 1.343 . S
N526 C509 1.343 . S
N527 C495 1.343 . S
N527 C502 1.343 . S
C528 C529 1.384 . S
C528 C530 1.384 . S
C528 H556 0.931 . S
C529 C528 1.384 . S
C529 C532 1.382 . S
C530 C528 1.384 . S
C530 C531 1.381 . S
C530 H557 0.930 . S
C531 C530 1.381 . S
C531 C533 1.381 . S
C531 C534 1.487 . S
C532 C529 1.382 . S
C532 C533 1.387 . S
C532 H558 0.930 . S
C533 C531 1.381 . S
C533 C532 1.387 . S
C533 H559 0.931 . S
C534 C531 1.487 . S
C534 C541 1.399 . S
C534 N572 1.343 . S
C535 C536 1.384 . S
C535 C537 1.384 . S
C535 H560 0.931 . S
C536 C535 1.384 . S
C536 C539 1.382 . S
C537 C535 1.384 . S
C537 C538 1.381 . S
C537 H561 0.930 . S
C538 C537 1.381 . S
C538 C540 1.381 . S
C538 C541 1.487 . S
C539 C536 1.382 . S
C539 C540 1.387 . S
C539 H562 0.930 . S
C540 C538 1.381 . S
C540 C539 1.387 . S
C540 H563 0.931 . S
C541 C534 1.399 . S
C541 C538 1.487 . S
C541 N573 1.343 . S
C542 C543 1.384 . S
C542 C544 1.384 . S
C542 H564 0.931 . S
C543 C542 1.384 . S
C543 C546 1.382 . S
C544 C542 1.384 . S
C544 C545 1.381 . S
C544 H565 0.930 . S
C545 C544 1.381 . S
C545 C547 1.381 . S
C545 C548 1.487 . S
C546 C543 1.382 . S
C546 C547 1.387 . S
C546 H566 0.930 . S
C547 C545 1.381 . S
C547 C546 1.387 . S
C547 H567 0.931 . S
C548 C545 1.487 . S
C548 C555 1.399 . S
C548 N573 1.343 . S
C549 C550 1.384 . S
C549 C551 1.384 . S
C549 H568 0.931 . S
C550 C549 1.384 . S
C550 C553 1.382 . S
C551 C549 1.384 . S
C551 C552 1.381 . S
C551 H569 0.930 . S
C552 C551 1.381 . S
C552 C554 1.381 . S
C552 C555 1.487 . S
C553 C550 1.382 . S
C553 C554 1.387 . S
C553 H570 0.930 . S
C554 C552 1.381 . S
C554 C553 1.387 . S
C554 H571 0.931 . S
C555 C548 1.399 . S
C555 C552 1.487 . S
C555 N572 1.343 . S
H556 C528 0.931 . S
H557 C530 0.930 . S
H558 C532 0.930 . S
H559 C533 0.931 . S
H560 C535 0.931 . S
H561 C537 0.930 . S
H562 C539 0.930 . S
H563 C540 0.931 . S
H564 C542 0.931 . S
H565 C544 0.930 . S
H566 C546 0.930 . S
H567 C547 0.931 . S
H568 C549 0.931 . S
H569 C551 0.930 . S
H570 C553 0.930 . S
H571 C554 0.931 . S
N572 C534 1.343 . S
N572 C555 1.343 . S
N573 C541 1.343 . S
N573 C548 1.343 . S
C574 C575 1.384 . S
C574 C576 1.384 . S
C574 H602 0.931 . S
C575 C574 1.384 . S
C575 C578 1.382 . S
C576 C574 1.384 . S
C576 C577 1.381 . S
C576 H603 0.930 . S
C577 C576 1.381 . S
C577 C579 1.381 . S
C577 C580 1.487 . S
C578 C575 1.382 . S
C578 C579 1.387 . S
C578 H604 0.930 . S
C579 C577 1.381 . S
C579 C578 1.387 . S
C579 H605 0.931 . S
C580 C577 1.487 . S
C580 C587 1.399 . S
C580 N618 1.343 . S
C581 C582 1.384 . S
C581 C583 1.384 . S
C581 H606 0.931 . S
C582 C581 1.384 . S
C582 C585 1.382 . S
C583 C581 1.384 . S
C583 C584 1.381 . S
C583 H607 0.930 . S
C584 C583 1.381 . S
C584 C586 1.381 . S
C584 C587 1.487 . S
C585 C582 1.382 . S
C585 C586 1.387 . S
C585 H608 0.930 . S
C586 C584 1.381 . S
C586 C585 1.387 . S
C586 H609 0.931 . S
C587 C580 1.399 . S
C587 C584 1.487 . S
C587 N619 1.343 . S
C588 C589 1.384 . S
C588 C590 1.384 . S
C588 H610 0.931 . S
C589 C588 1.384 . S
C589 C592 1.382 . S
C590 C588 1.384 . S
C590 C591 1.381 . S
C590 H611 0.930 . S
C591 C590 1.381 . S
C591 C593 1.381 . S
C591 C594 1.487 . S
C592 C589 1.382 . S
C592 C593 1.387 . S
C592 H612 0.930 . S
C593 C591 1.381 . S
C593 C592 1.387 . S
C593 H613 0.931 . S
C594 C591 1.487 . S
C594 C601 1.399 . S
C594 N619 1.343 . S
C595 C596 1.384 . S
C595 C597 1.384 . S
C595 H614 0.931 . S
C596 C595 1.384 . S
C596 C599 1.382 . S
C597 C595 1.384 . S
C597 C598 1.381 . S
C597 H615 0.930 . S
C598 C597 1.381 . S
C598 C600 1.381 . S
C598 C601 1.487 . S
C599 C596 1.382 . S
C599 C600 1.387 . S
C599 H616 0.930 . S
C600 C598 1.381 . S
C600 C599 1.387 . S
C600 H617 0.931 . S
C601 C594 1.399 . S
C601 C598 1.487 . S
C601 N618 1.343 . S
H602 C574 0.931 . S
H603 C576 0.930 . S
H604 C578 0.930 . S
H605 C579 0.931 . S
H606 C581 0.931 . S
H607 C583 0.930 . S
H608 C585 0.930 . S
H609 C586 0.931 . S
H610 C588 0.931 . S
H611 C590 0.930 . S
H612 C592 0.930 . S
H613 C593 0.931 . S
H614 C595 0.931 . S
H615 C597 0.930 . S
H616 C599 0.930 . S
H617 C600 0.931 . S
N618 C580 1.343 . S
N618 C601 1.343 . S
N619 C587 1.343 . S
N619 C594 1.343 . S
C620 C621 1.384 . S
C620 C622 1.384 . S
C620 H648 0.931 . S
C621 C620 1.384 . S
C621 C624 1.382 . S
C622 C620 1.384 . S
C622 C623 1.381 . S
C622 H649 0.930 . S
C623 C622 1.381 . S
C623 C625 1.381 . S
C623 C626 1.487 . S
C624 C621 1.382 . S
C624 C625 1.387 . S
C624 H650 0.930 . S
C625 C623 1.381 . S
C625 C624 1.387 . S
C625 H651 0.931 . S
C626 C623 1.487 . S
C626 C633 1.399 . S
C626 N664 1.343 . S
C627 C628 1.384 . S
C627 C629 1.384 . S
C627 H652 0.931 . S
C628 C627 1.384 . S
C628 C631 1.382 . S
C629 C627 1.384 . S
C629 C630 1.381 . S
C629 H653 0.930 . S
C630 C629 1.381 . S
C630 C632 1.381 . S
C630 C633 1.487 . S
C631 C628 1.382 . S
C631 C632 1.387 . S
C631 H654 0.930 . S
C632 C630 1.381 . S
C632 C631 1.387 . S
C632 H655 0.931 . S
C633 C626 1.399 . S
C633 C630 1.487 . S
C633 N665 1.343 . S
C634 C635 1.384 . S
C634 C636 1.384 . S
C634 H656 0.931 . S
C635 C634 1.384 . S
C635 C638 1.382 . S
C636 C634 1.384 . S
C636 C637 1.381 . S
C636 H657 0.930 . S
C637 C636 1.381 . S
C637 C639 1.381 . S
C637 C640 1.487 . S
C638 C635 1.382 . S
C638 C639 1.387 . S
C638 H658 0.930 . S
C639 C637 1.381 . S
C639 C638 1.387 . S
C639 H659 0.931 . S
C640 C637 1.487 . S
C640 C647 1.399 . S
C640 N665 1.343 . S
C641 C642 1.384 . S
C641 C643 1.384 . S
C641 H660 0.931 . S
C642 C641 1.384 . S
C642 C645 1.382 . S
C643 C641 1.384 . S
C643 C644 1.381 . S
C643 H661 0.930 . S
C644 C643 1.381 . S
C644 C646 1.381 . S
C644 C647 1.487 . S
C645 C642 1.382 . S
C645 C646 1.387 . S
C645 H662 0.930 . S
C646 C644 1.381 . S
C646 C645 1.387 . S
C646 H663 0.931 . S
C647 C640 1.399 . S
C647 C644 1.487 . S
C647 N664 1.343 . S
H648 C620 0.931 . S
H649 C622 0.930 . S
H650 C624 0.930 . S
H651 C625 0.931 . S
H652 C627 0.931 . S
H653 C629 0.930 . S
H654 C631 0.930 . S
H655 C632 0.931 . S
H656 C634 0.931 . S
H657 C636 0.930 . S
H658 C638 0.930 . S
H659 C639 0.931 . S
H660 C641 0.931 . S
H661 C643 0.930 . S
H662 C645 0.930 . S
H663 C646 0.931 . S
N664 C626 1.343 . S
N664 C647 1.343 . S
N665 C633 1.343 . S
N665 C640 1.343 . S
C666 C667 1.384 . S
C666 C668 1.384 . S
C666 H694 0.931 . S
C667 C666 1.384 . S
C667 C670 1.382 1_655 S
C668 C666 1.384 . S
C668 C669 1.406 . S
C668 H695 0.930 . S
C669 C668 1.406 . S
C669 C671 1.369 1_655 S
C669 C672 1.471 1_655 S
C670 C667 1.382 1_455 S
C670 C671 1.387 . S
C670 H696 0.930 . S
C671 C669 1.369 1_455 S
C671 C670 1.387 . S
C671 H697 0.931 . S
C672 C669 1.471 1_455 S
C672 C679 1.399 1_455 S
C672 N710 1.348 . S
C673 C674 1.384 . S
C673 C675 1.384 . S
C673 H698 0.931 . S
C674 C673 1.384 . S
C674 C677 1.382 1_455 S
C675 C673 1.384 . S
C675 C676 1.387 . S
C675 H699 0.930 . S
C676 C675 1.387 . S
C676 C678 1.365 1_455 S
C676 C679 1.500 1_455 S
C677 C674 1.382 1_655 S
C677 C678 1.387 . S
C677 H700 0.930 . S
C678 C676 1.365 1_655 S
C678 C677 1.387 . S
C678 H701 0.931 . S
C679 C672 1.399 1_655 S
C679 C676 1.500 1_655 S
C679 N711 1.341 . S
C680 C681 1.384 . S
C680 C682 1.384 . S
C680 H702 0.931 . S
C681 C680 1.384 . S
C681 C684 1.382 1_455 S
C682 C680 1.384 . S
C682 C683 1.415 . S
C682 H703 0.930 . S
C683 C682 1.415 . S
C683 C685 1.364 1_455 S
C683 C686 1.471 1_455 S
C684 C681 1.382 1_655 S
C684 C685 1.387 . S
C684 H704 0.930 . S
C685 C683 1.364 1_655 S
C685 C684 1.387 . S
C685 H705 0.931 . S
C686 C683 1.471 1_655 S
C686 C693 1.399 1_655 S
C686 N711 1.343 . S
C687 C688 1.384 . S
C687 C689 1.384 . S
C687 H706 0.931 . S
C688 C687 1.384 . S
C688 C691 1.382 1_655 S
C689 C687 1.384 . S
C689 C690 1.385 . S
C689 H707 0.930 . S
C690 C689 1.385 . S
C690 C692 1.371 1_655 S
C690 C693 1.500 1_655 S
C691 C688 1.382 1_455 S
C691 C692 1.387 . S
C691 H708 0.930 . S
C692 C690 1.371 1_455 S
C692 C691 1.387 . S
C692 H709 0.931 . S
C693 C686 1.399 1_455 S
C693 C690 1.500 1_455 S
C693 N710 1.337 . S
H694 C666 0.931 . S
H695 C668 0.930 . S
H696 C670 0.930 . S
H697 C671 0.931 . S
H698 C673 0.931 . S
H699 C675 0.930 . S
H700 C677 0.930 . S
H701 C678 0.931 . S
H702 C680 0.931 . S
H703 C682 0.930 . S
H704 C684 0.930 . S
H705 C685 0.931 . S
H706 C687 0.931 . S
H707 C689 0.930 . S
H708 C691 0.930 . S
H709 C692 0.931 . S
N710 C672 1.348 . S
N710 C693 1.337 . S
N711 C679 1.341 . S
N711 C686 1.343 . S
C712 C713 1.384 . S
C712 C714 1.384 . S
C712 H740 0.931 . S
C713 C712 1.384 . S
C713 C716 1.382 . S
C714 C712 1.384 . S
C714 C715 1.381 . S
C714 H741 0.930 . S
C715 C714 1.381 . S
C715 C717 1.381 . S
C715 C718 1.487 . S
C716 C713 1.382 . S
C716 C717 1.387 . S
C716 H742 0.930 . S
C717 C715 1.381 . S
C717 C716 1.387 . S
C717 H743 0.931 . S
C718 C715 1.487 . S
C718 C725 1.399 . S
C718 N756 1.343 . S
C719 C720 1.384 . S
C719 C721 1.384 . S
C719 H744 0.931 . S
C720 C719 1.384 . S
C720 C723 1.382 . S
C721 C719 1.384 . S
C721 C722 1.381 . S
C721 H745 0.930 . S
C722 C721 1.381 . S
C722 C724 1.381 . S
C722 C725 1.487 . S
C723 C720 1.382 . S
C723 C724 1.387 . S
C723 H746 0.930 . S
C724 C722 1.381 . S
C724 C723 1.387 . S
C724 H747 0.931 . S
C725 C718 1.399 . S
C725 C722 1.487 . S
C725 N757 1.343 . S
C726 C727 1.384 . S
C726 C728 1.384 . S
C726 H748 0.931 . S
C727 C726 1.384 . S
C727 C730 1.382 . S
C728 C726 1.384 . S
C728 C729 1.381 . S
C728 H749 0.930 . S
C729 C728 1.381 . S
C729 C731 1.381 . S
C729 C732 1.487 . S
C730 C727 1.382 . S
C730 C731 1.387 . S
C730 H750 0.930 . S
C731 C729 1.381 . S
C731 C730 1.387 . S
C731 H751 0.931 . S
C732 C729 1.487 . S
C732 C739 1.399 . S
C732 N757 1.343 . S
C733 C734 1.384 . S
C733 C735 1.384 . S
C733 H752 0.931 . S
C734 C733 1.384 . S
C734 C737 1.382 . S
C735 C733 1.384 . S
C735 C736 1.381 . S
C735 H753 0.930 . S
C736 C735 1.381 . S
C736 C738 1.381 . S
C736 C739 1.487 . S
C737 C734 1.382 . S
C737 C738 1.387 . S
C737 H754 0.930 . S
C738 C736 1.381 . S
C738 C737 1.387 . S
C738 H755 0.931 . S
C739 C732 1.399 . S
C739 C736 1.487 . S
C739 N756 1.343 . S
H740 C712 0.931 . S
H741 C714 0.930 . S
H742 C716 0.930 . S
H743 C717 0.931 . S
H744 C719 0.931 . S
H745 C721 0.930 . S
H746 C723 0.930 . S
H747 C724 0.931 . S
H748 C726 0.931 . S
H749 C728 0.930 . S
H750 C730 0.930 . S
H751 C731 0.931 . S
H752 C733 0.931 . S
H753 C735 0.930 . S
H754 C737 0.930 . S
H755 C738 0.931 . S
N756 C718 1.343 . S
N756 C739 1.343 . S
N757 C725 1.343 . S
N757 C732 1.343 . S
C758 C759 1.384 1_545 S
C758 C760 1.384 . S
C758 H786 0.931 . S
C759 C758 1.384 1_565 S
C759 C762 1.382 . S
C760 C758 1.384 . S
C760 C761 1.381 1_545 S
C760 H787 0.930 . S
C761 C760 1.381 1_565 S
C761 C763 1.381 . S
C761 C764 1.487 . S
C762 C759 1.382 . S
C762 C763 1.387 . S
C762 H788 0.930 . S
C763 C761 1.381 . S
C763 C762 1.387 . S
C763 H789 0.931 . S
C764 C761 1.487 . S
C764 C771 1.399 1_565 S
C764 N802 1.343 . S
C765 C766 1.384 1_565 S
C765 C767 1.384 . S
C765 H790 0.931 . S
C766 C765 1.384 1_545 S
C766 C769 1.382 . S
C767 C765 1.384 . S
C767 C768 1.381 1_565 S
C767 H791 0.930 . S
C768 C767 1.381 1_545 S
C768 C770 1.381 . S
C768 C771 1.487 . S
C769 C766 1.382 . S
C769 C770 1.387 . S
C769 H792 0.930 . S
C770 C768 1.381 . S
C770 C769 1.387 . S
C770 H793 0.931 . S
C771 C764 1.399 1_545 S
C771 C768 1.487 . S
C771 N803 1.343 . S
C772 C773 1.384 1_565 S
C772 C774 1.384 . S
C772 H794 0.931 . S
C773 C772 1.384 1_545 S
C773 C776 1.382 . S
C774 C772 1.384 . S
C774 C775 1.381 1_565 S
C774 H795 0.930 . S
C775 C774 1.381 1_545 S
C775 C777 1.381 . S
C775 C778 1.487 . S
C776 C773 1.382 . S
C776 C777 1.387 . S
C776 H796 0.930 . S
C777 C775 1.381 . S
C777 C776 1.387 . S
C777 H797 0.931 . S
C778 C775 1.487 . S
C778 C785 1.399 1_545 S
C778 N803 1.343 . S
C779 C780 1.384 1_545 S
C779 C781 1.384 . S
C779 H798 0.931 . S
C780 C779 1.384 1_565 S
C780 C783 1.382 . S
C781 C779 1.384 . S
C781 C782 1.381 1_545 S
C781 H799 0.930 . S
C782 C781 1.381 1_565 S
C782 C784 1.381 . S
C782 C785 1.487 . S
C783 C780 1.382 . S
C783 C784 1.387 . S
C783 H800 0.930 . S
C784 C782 1.381 . S
C784 C783 1.387 . S
C784 H801 0.931 . S
C785 C778 1.399 1_565 S
C785 C782 1.487 . S
C785 N802 1.343 . S
H786 C758 0.931 . S
H787 C760 0.930 . S
H788 C762 0.930 . S
H789 C763 0.931 . S
H790 C765 0.931 . S
H791 C767 0.930 . S
H792 C769 0.930 . S
H793 C770 0.931 . S
H794 C772 0.931 . S
H795 C774 0.930 . S
H796 C776 0.930 . S
H797 C777 0.931 . S
H798 C779 0.931 . S
H799 C781 0.930 . S
H800 C783 0.930 . S
H801 C784 0.931 . S
N802 C764 1.343 . S
N802 C785 1.343 . S
N803 C771 1.343 . S
N803 C778 1.343 . S
C804 C805 1.384 . S
C804 C806 1.384 . S
C804 H832 0.931 . S
C805 C804 1.384 . S
C805 C808 1.382 1_545 S
C806 C804 1.384 . S
C806 C807 1.388 . S
C806 H833 0.930 . S
C807 C806 1.388 . S
C807 C809 1.365 1_545 S
C807 C810 1.500 1_545 S
C808 C805 1.382 1_565 S
C808 C809 1.387 . S
C808 H834 0.930 . S
C809 C807 1.365 1_565 S
C809 C808 1.387 . S
C809 H835 0.931 . S
C810 C807 1.500 1_565 S
C810 C817 1.399 1_565 S
C810 N848 1.341 . S
C811 C812 1.384 . S
C811 C813 1.384 . S
C811 H836 0.931 . S
C812 C811 1.384 . S
C812 C815 1.382 1_565 S
C813 C811 1.384 . S
C813 C814 1.405 . S
C813 H837 0.930 . S
C814 C813 1.405 . S
C814 C816 1.369 1_565 S
C814 C817 1.471 1_565 S
C815 C812 1.382 1_545 S
C815 C816 1.387 . S
C815 H838 0.930 . S
C816 C814 1.369 1_545 S
C816 C815 1.387 . S
C816 H839 0.931 . S
C817 C810 1.399 1_545 S
C817 C814 1.471 1_545 S
C817 N849 1.348 . S
C818 C819 1.384 . S
C818 C820 1.384 . S
C818 H840 0.931 . S
C819 C818 1.384 . S
C819 C822 1.382 1_565 S
C820 C818 1.384 . S
C820 C821 1.385 . S
C820 H841 0.930 . S
C821 C820 1.385 . S
C821 C823 1.371 1_565 S
C821 C824 1.500 1_565 S
C822 C819 1.382 1_545 S
C822 C823 1.387 . S
C822 H842 0.930 . S
C823 C821 1.371 1_545 S
C823 C822 1.387 . S
C823 H843 0.931 . S
C824 C821 1.500 1_545 S
C824 C831 1.399 1_545 S
C824 N849 1.337 . S
C825 C826 1.384 . S
C825 C827 1.384 . S
C825 H844 0.931 . S
C826 C825 1.384 . S
C826 C829 1.382 1_545 S
C827 C825 1.384 . S
C827 C828 1.415 . S
C827 H845 0.930 . S
C828 C827 1.415 . S
C828 C830 1.364 1_545 S
C828 C831 1.471 1_545 S
C829 C826 1.382 1_565 S
C829 C830 1.387 . S
C829 H846 0.930 . S
C830 C828 1.364 1_565 S
C830 C829 1.387 . S
C830 H847 0.931 . S
C831 C824 1.399 1_565 S
C831 C828 1.471 1_565 S
C831 N848 1.344 . S
H832 C804 0.931 . S
H833 C806 0.930 . S
H834 C808 0.930 . S
H835 C809 0.931 . S
H836 C811 0.931 . S
H837 C813 0.930 . S
H838 C815 0.930 . S
H839 C816 0.931 . S
H840 C818 0.931 . S
H841 C820 0.930 . S
H842 C822 0.930 . S
H843 C823 0.931 . S
H844 C825 0.931 . S
H845 C827 0.930 . S
H846 C829 0.930 . S
H847 C830 0.931 . S
N848 C810 1.341 . S
N848 C831 1.344 . S
N849 C817 1.348 . S
N849 C824 1.337 . S
C850 C851 1.384 . S
C850 C852 1.384 . S
C850 H878 0.931 . S
C851 C850 1.384 . S
C851 C854 1.382 1_655 S
C852 C850 1.384 . S
C852 C853 1.418 . S
C852 H879 0.930 . S
C853 C852 1.418 . S
C853 C855 1.363 1_655 S
C853 C856 1.470 1_655 S
C854 C851 1.382 1_455 S
C854 C855 1.387 . S
C854 H880 0.930 . S
C855 C853 1.363 1_455 S
C855 C854 1.387 . S
C855 H881 0.931 . S
C856 C853 1.470 1_455 S
C856 C863 1.399 1_455 S
C856 N894 1.343 . S
C857 C858 1.384 . S
C857 C859 1.384 . S
C857 H882 0.931 . S
C858 C857 1.384 . S
C858 C861 1.382 1_455 S
C859 C857 1.384 . S
C859 C860 1.386 . S
C859 H883 0.930 . S
C860 C859 1.386 . S
C860 C862 1.369 1_455 S
C860 C863 1.501 1_455 S
C861 C858 1.382 1_655 S
C861 C862 1.387 . S
C861 H884 0.930 . S
C862 C860 1.369 1_655 S
C862 C861 1.387 . S
C862 H885 0.931 . S
C863 C856 1.399 1_655 S
C863 C860 1.501 1_655 S
C863 N895 1.338 . S
C864 C865 1.384 . S
C864 C866 1.384 . S
C864 H886 0.931 . S
C865 C864 1.384 . S
C865 C868 1.382 1_455 S
C866 C864 1.384 . S
C866 C867 1.409 . S
C866 H887 0.930 . S
C867 C866 1.409 . S
C867 C869 1.367 1_455 S
C867 C870 1.470 1_455 S
C868 C865 1.382 1_655 S
C868 C869 1.387 . S
C868 H888 0.930 . S
C869 C867 1.367 1_655 S
C869 C868 1.387 . S
C869 H889 0.931 . S
C870 C867 1.470 1_655 S
C870 C877 1.399 1_655 S
C870 N895 1.347 . S
C871 C872 1.384 . S
C871 C873 1.384 . S
C871 H890 0.931 . S
C872 C871 1.384 . S
C872 C875 1.382 1_655 S
C873 C871 1.384 . S
C873 C874 1.388 . S
C873 H891 0.930 . S
C874 C873 1.388 . S
C874 C876 1.364 1_655 S
C874 C877 1.501 1_655 S
C875 C872 1.382 1_455 S
C875 C876 1.387 . S
C875 H892 0.930 . S
C876 C874 1.364 1_455 S
C876 C875 1.387 . S
C876 H893 0.931 . S
C877 C870 1.399 1_455 S
C877 C874 1.501 1_455 S
C877 N894 1.342 . S
H878 C850 0.931 . S
H879 C852 0.930 . S
H880 C854 0.930 . S
H881 C855 0.931 . S
H882 C857 0.931 . S
H883 C859 0.930 . S
H884 C861 0.930 . S
H885 C862 0.931 . S
H886 C864 0.931 . S
H887 C866 0.930 . S
H888 C868 0.930 . S
H889 C869 0.931 . S
H890 C871 0.931 . S
H891 C873 0.930 . S
H892 C875 0.930 . S
H893 C876 0.931 . S
N894 C856 1.343 . S
N894 C877 1.342 . S
N895 C863 1.338 . S
N895 C870 1.347 . S
C896 C897 1.384 . S
C896 C898 1.384 . S
C896 H924 0.931 . S
C897 C896 1.384 . S
C897 C900 1.382 . S
C898 C896 1.384 . S
C898 C899 1.381 . S
C898 H925 0.930 . S
C899 C898 1.381 . S
C899 C901 1.381 . S
C899 C902 1.487 . S
C900 C897 1.382 . S
C900 C901 1.387 . S
C900 H926 0.930 . S
C901 C899 1.381 . S
C901 C900 1.387 . S
C901 H927 0.931 . S
C902 C899 1.487 . S
C902 C909 1.399 . S
C902 N940 1.343 . S
C903 C904 1.384 . S
C903 C905 1.384 . S
C903 H928 0.931 . S
C904 C903 1.384 . S
C904 C907 1.382 . S
C905 C903 1.384 . S
C905 C906 1.381 . S
C905 H929 0.930 . S
C906 C905 1.381 . S
C906 C908 1.381 . S
C906 C909 1.487 . S
C907 C904 1.382 . S
C907 C908 1.387 . S
C907 H930 0.930 . S
C908 C906 1.381 . S
C908 C907 1.387 . S
C908 H931 0.931 . S
C909 C902 1.399 . S
C909 C906 1.487 . S
C909 N941 1.343 . S
C910 C911 1.384 . S
C910 C912 1.384 . S
C910 H932 0.931 . S
C911 C910 1.384 . S
C911 C914 1.382 . S
C912 C910 1.384 . S
C912 C913 1.381 . S
C912 H933 0.930 . S
C913 C912 1.381 . S
C913 C915 1.381 . S
C913 C916 1.487 . S
C914 C911 1.382 . S
C914 C915 1.387 . S
C914 H934 0.930 . S
C915 C913 1.381 . S
C915 C914 1.387 . S
C915 H935 0.931 . S
C916 C913 1.487 . S
C916 C923 1.399 . S
C916 N941 1.343 . S
C917 C918 1.384 . S
C917 C919 1.384 . S
C917 H936 0.931 . S
C918 C917 1.384 . S
C918 C921 1.382 . S
C919 C917 1.384 . S
C919 C920 1.381 . S
C919 H937 0.930 . S
C920 C919 1.381 . S
C920 C922 1.381 . S
C920 C923 1.487 . S
C921 C918 1.382 . S
C921 C922 1.387 . S
C921 H938 0.930 . S
C922 C920 1.381 . S
C922 C921 1.387 . S
C922 H939 0.931 . S
C923 C916 1.399 . S
C923 C920 1.487 . S
C923 N940 1.343 . S
H924 C896 0.931 . S
H925 C898 0.930 . S
H926 C900 0.930 . S
H927 C901 0.931 . S
H928 C903 0.931 . S
H929 C905 0.930 . S
H930 C907 0.930 . S
H931 C908 0.931 . S
H932 C910 0.931 . S
H933 C912 0.930 . S
H934 C914 0.930 . S
H935 C915 0.931 . S
H936 C917 0.931 . S
H937 C919 0.930 . S
H938 C921 0.930 . S
H939 C922 0.931 . S
N940 C902 1.343 . S
N940 C923 1.343 . S
N941 C909 1.343 . S
N941 C916 1.343 . S
C942 C943 1.384 . S
C942 C944 1.384 . S
C942 H970 0.931 . S
C943 C942 1.384 . S
C943 C946 1.382 . S
C944 C942 1.384 . S
C944 C945 1.381 . S
C944 H971 0.930 . S
C945 C944 1.381 . S
C945 C947 1.381 . S
C945 C948 1.487 . S
C946 C943 1.382 . S
C946 C947 1.387 . S
C946 H972 0.930 . S
C947 C945 1.381 . S
C947 C946 1.387 . S
C947 H973 0.931 . S
C948 C945 1.487 . S
C948 C955 1.399 . S
C948 N986 1.343 . S
C949 C950 1.384 . S
C949 C951 1.384 . S
C949 H974 0.931 . S
C950 C949 1.384 . S
C950 C953 1.382 . S
C951 C949 1.384 . S
C951 C952 1.381 . S
C951 H975 0.930 . S
C952 C951 1.381 . S
C952 C954 1.381 . S
C952 C955 1.487 . S
C953 C950 1.382 . S
C953 C954 1.387 . S
C953 H976 0.930 . S
C954 C952 1.381 . S
C954 C953 1.387 . S
C954 H977 0.931 . S
C955 C948 1.399 . S
C955 C952 1.487 . S
C955 N987 1.343 . S
C956 C957 1.384 . S
C956 C958 1.384 . S
C956 H978 0.931 . S
C957 C956 1.384 . S
C957 C960 1.382 . S
C958 C956 1.384 . S
C958 C959 1.381 . S
C958 H979 0.930 . S
C959 C958 1.381 . S
C959 C961 1.381 . S
C959 C962 1.487 . S
C960 C957 1.382 . S
C960 C961 1.387 . S
C960 H980 0.930 . S
C961 C959 1.381 . S
C961 C960 1.387 . S
C961 H981 0.931 . S
C962 C959 1.487 . S
C962 C969 1.399 . S
C962 N987 1.343 . S
C963 C964 1.384 . S
C963 C965 1.384 . S
C963 H982 0.931 . S
C964 C963 1.384 . S
C964 C967 1.382 . S
C965 C963 1.384 . S
C965 C966 1.381 . S
C965 H983 0.930 . S
C966 C965 1.381 . S
C966 C968 1.381 . S
C966 C969 1.487 . S
C967 C964 1.382 . S
C967 C968 1.387 . S
C967 H984 0.930 . S
C968 C966 1.381 . S
C968 C967 1.387 . S
C968 H985 0.931 . S
C969 C962 1.399 . S
C969 C966 1.487 . S
C969 N986 1.343 . S
H970 C942 0.931 . S
H971 C944 0.930 . S
H972 C946 0.930 . S
H973 C947 0.931 . S
H974 C949 0.931 . S
H975 C951 0.930 . S
H976 C953 0.930 . S
H977 C954 0.931 . S
H978 C956 0.931 . S
H979 C958 0.930 . S
H980 C960 0.930 . S
H981 C961 0.931 . S
H982 C963 0.931 . S
H983 C965 0.930 . S
H984 C967 0.930 . S
H985 C968 0.931 . S
N986 C948 1.343 . S
N986 C969 1.343 . S
N987 C955 1.343 . S
N987 C962 1.343 . S
C988 C989 1.384 . S
C988 C990 1.384 . S
C988 H1016 0.931 . S
C989 C988 1.384 . S
C989 C992 1.382 . S
C990 C988 1.384 . S
C990 C991 1.381 . S
C990 H1017 0.930 . S
C991 C990 1.381 . S
C991 C993 1.381 . S
C991 C994 1.487 . S
C992 C989 1.382 . S
C992 C993 1.387 . S
C992 H1018 0.930 . S
C993 C991 1.381 . S
C993 C992 1.387 . S
C993 H1019 0.931 . S
C994 C991 1.487 . S
C994 C1001 1.399 . S
C994 N1032 1.343 . S
C995 C996 1.384 . S
C995 C997 1.384 . S
C995 H1020 0.931 . S
C996 C995 1.384 . S
C996 C999 1.382 . S
C997 C995 1.384 . S
C997 C998 1.381 . S
C997 H1021 0.930 . S
C998 C997 1.381 . S
C998 C1000 1.381 . S
C998 C1001 1.487 . S
C999 C996 1.382 . S
C999 C1000 1.387 . S
C999 H1022 0.930 . S
C1000 C998 1.381 . S
C1000 C999 1.387 . S
C1000 H1023 0.931 . S
C1001 C994 1.399 . S
C1001 C998 1.487 . S
C1001 N1033 1.343 . S
C1002 C1003 1.384 . S
C1002 C1004 1.384 . S
C1002 H1024 0.931 . S
C1003 C1002 1.384 . S
C1003 C1006 1.382 . S
C1004 C1002 1.384 . S
C1004 C1005 1.381 . S
C1004 H1025 0.930 . S
C1005 C1004 1.381 . S
C1005 C1007 1.381 . S
C1005 C1008 1.487 . S
C1006 C1003 1.382 . S
C1006 C1007 1.387 . S
C1006 H1026 0.930 . S
C1007 C1005 1.381 . S
C1007 C1006 1.387 . S
C1007 H1027 0.931 . S
C1008 C1005 1.487 . S
C1008 C1015 1.399 . S
C1008 N1033 1.343 . S
C1009 C1010 1.384 . S
C1009 C1011 1.384 . S
C1009 H1028 0.931 . S
C1010 C1009 1.384 . S
C1010 C1013 1.382 . S
C1011 C1009 1.384 . S
C1011 C1012 1.381 . S
C1011 H1029 0.930 . S
C1012 C1011 1.381 . S
C1012 C1014 1.381 . S
C1012 C1015 1.487 . S
C1013 C1010 1.382 . S
C1013 C1014 1.387 . S
C1013 H1030 0.930 . S
C1014 C1012 1.381 . S
C1014 C1013 1.387 . S
C1014 H1031 0.931 . S
C1015 C1008 1.399 . S
C1015 C1012 1.487 . S
C1015 N1032 1.343 . S
H1016 C988 0.931 . S
H1017 C990 0.930 . S
H1018 C992 0.930 . S
H1019 C993 0.931 . S
H1020 C995 0.931 . S
H1021 C997 0.930 . S
H1022 C999 0.930 . S
H1023 C1000 0.931 . S
H1024 C1002 0.931 . S
H1025 C1004 0.930 . S
H1026 C1006 0.930 . S
H1027 C1007 0.931 . S
H1028 C1009 0.931 . S
H1029 C1011 0.930 . S
H1030 C1013 0.930 . S
H1031 C1014 0.931 . S
N1032 C994 1.343 . S
N1032 C1015 1.343 . S
N1033 C1001 1.343 . S
N1033 C1008 1.343 . S
C1034 C1035 1.384 . S
C1034 C1036 1.384 . S
C1034 H1062 0.931 . S
C1035 C1034 1.384 . S
C1035 C1038 1.382 . S
C1036 C1034 1.384 . S
C1036 C1037 1.381 . S
C1036 H1063 0.930 . S
C1037 C1036 1.381 . S
C1037 C1039 1.381 . S
C1037 C1040 1.487 . S
C1038 C1035 1.382 . S
C1038 C1039 1.387 . S
C1038 H1064 0.930 . S
C1039 C1037 1.381 . S
C1039 C1038 1.387 . S
C1039 H1065 0.931 . S
C1040 C1037 1.487 . S
C1040 C1047 1.399 . S
C1040 N1078 1.343 . S
C1041 C1042 1.384 . S
C1041 C1043 1.384 . S
C1041 H1066 0.931 . S
C1042 C1041 1.384 . S
C1042 C1045 1.382 . S
C1043 C1041 1.384 . S
C1043 C1044 1.381 . S
C1043 H1067 0.930 . S
C1044 C1043 1.381 . S
C1044 C1046 1.381 . S
C1044 C1047 1.487 . S
C1045 C1042 1.382 . S
C1045 C1046 1.387 . S
C1045 H1068 0.930 . S
C1046 C1044 1.381 . S
C1046 C1045 1.387 . S
C1046 H1069 0.931 . S
C1047 C1040 1.399 . S
C1047 C1044 1.487 . S
C1047 N1079 1.343 . S
C1048 C1049 1.384 . S
C1048 C1050 1.384 . S
C1048 H1070 0.931 . S
C1049 C1048 1.384 . S
C1049 C1052 1.382 . S
C1050 C1048 1.384 . S
C1050 C1051 1.381 . S
C1050 H1071 0.930 . S
C1051 C1050 1.381 . S
C1051 C1053 1.381 . S
C1051 C1054 1.487 . S
C1052 C1049 1.382 . S
C1052 C1053 1.387 . S
C1052 H1072 0.930 . S
C1053 C1051 1.381 . S
C1053 C1052 1.387 . S
C1053 H1073 0.931 . S
C1054 C1051 1.487 . S
C1054 C1061 1.399 . S
C1054 N1079 1.343 . S
C1055 C1056 1.384 . S
C1055 C1057 1.384 . S
C1055 H1074 0.931 . S
C1056 C1055 1.384 . S
C1056 C1059 1.382 . S
C1057 C1055 1.384 . S
C1057 C1058 1.381 . S
C1057 H1075 0.930 . S
C1058 C1057 1.381 . S
C1058 C1060 1.381 . S
C1058 C1061 1.487 . S
C1059 C1056 1.382 . S
C1059 C1060 1.387 . S
C1059 H1076 0.930 . S
C1060 C1058 1.381 . S
C1060 C1059 1.387 . S
C1060 H1077 0.931 . S
C1061 C1054 1.399 . S
C1061 C1058 1.487 . S
C1061 N1078 1.343 . S
H1062 C1034 0.931 . S
H1063 C1036 0.930 . S
H1064 C1038 0.930 . S
H1065 C1039 0.931 . S
H1066 C1041 0.931 . S
H1067 C1043 0.930 . S
H1068 C1045 0.930 . S
H1069 C1046 0.931 . S
H1070 C1048 0.931 . S
H1071 C1050 0.930 . S
H1072 C1052 0.930 . S
H1073 C1053 0.931 . S
H1074 C1055 0.931 . S
H1075 C1057 0.930 . S
H1076 C1059 0.930 . S
H1077 C1060 0.931 . S
N1078 C1040 1.343 . S
N1078 C1061 1.343 . S
N1079 C1047 1.343 . S
N1079 C1054 1.343 . S
C8 C688 1.481 1_455 S
C22 C734 1.792 . S
C766 C37 1.498 1_545 S
C36 C819 1.479 1_545 S
C9 C865 1.477 1_655 S
C23 C904 1.836 . S
C50 C858 1.462 1_655 S
C911 C64 1.836 . S
C812 C79 1.493 1_565 S
C78 C773 1.483 1_565 S
C667 C51 1.492 1_655 S
C65 C713 1.791 . S
C92 C943 1.907 . S
C106 C1010 1.916 . S
C1056 C121 1.854 . S
C120 C267 1.786 . S
C93 C313 1.813 . S
C107 C359 1.866 . S
C134 C306 1.788 . S
C148 C352 1.867 . S
C260 C163 1.811 . S
C1035 C162 1.865 . S
C964 C135 1.898 . S
C989 C149 1.915 . S
C176 C391 1.833 . S
C190 C444 1.914 . S
C205 C490 1.859 . S
C204 C536 1.907 . S
C589 C177 1.854 . S
C635 C191 1.914 . S
C582 C218 1.864 . S
C628 C232 1.914 . S
C247 C543 1.897 . S
C497 C246 1.835 . S
C219 C412 1.856 . S
C451 C233 1.915 . S
C274 C6 1.767 . S
C20 C320 1.714 . S
C366 C35 1.802 . S
C398 C34 1.725 . S
C437 C7 1.758 . S
C483 C21 1.671 . S
C48 C504 1.728 . S
C62 C405 1.667 . S
C77 C458 1.763 . S
C76 C299 1.769 . S
C345 C49 1.808 . S
C63 C253 1.710 . S
C529 C90 1.671 . S
C104 C596 1.732 . S
C119 C642 1.748 . S
C681 C118 1.441 . S
C91 C727 1.712 . S
C105 C759 1.429 . S
C132 C780 1.418 . S
C146 C674 1.453 . S
C720 C161 1.713 . S
C160 C575 1.716 . S
C133 C621 1.744 . S
C550 C147 1.691 . S
C826 C174 1.441 . S
C188 C872 1.444 . S
C203 C897 1.671 . S
C950 C202 1.671 . S
C1003 C175 1.749 . S
C189 C1049 1.732 . S
C216 C1042 1.717 . S
C230 C957 1.692 . S
C996 C245 1.745 . S
C851 C244 1.432 . S
C918 C217 1.672 . S
C231 C805 1.452 . S
