# Generated by pormake.
# Topology pyr, (3,6)-cn, num edge types: 1
# Building blocks:
#     Node 0, Type 0, BuildingBlock: QEWDON_clean_linker_0, # of connection points: 3
#     Node 1, Type 0, BuildingBlock: QEWDON_clean_linker_0, # of connection points: 3
#     Node 2, Type 0, BuildingBlock: QEWDON_clean_linker_0, # of connection points: 3
#     Node 3, Type 0, BuildingBlock: QEWDON_clean_linker_0, # of connection points: 3
#     Node 4, Type 0, BuildingBlock: QEWDON_clean_linker_0, # of connection points: 3
#     Node 5, Type 0, BuildingBlock: QEWDON_clean_linker_0, # of connection points: 3
#     Node 6, Type 0, BuildingBlock: QEWDON_clean_linker_0, # of connection points: 3
#     Node 7, Type 0, BuildingBlock: QEWDON_clean_linker_0, # of connection points: 3
#     Node 8, Type 1, BuildingBlock: PAMTUU_clean_sbu_0, # of connection points: 6
#     Node 9, Type 1, BuildingBlock: PAMTUU_clean_sbu_0, # of connection points: 6
#     Node 10, Type 1, BuildingBlock: PAMTUU_clean_sbu_0, # of connection points: 6
#     Node 11, Type 1, BuildingBlock: PAMTUU_clean_sbu_0, # of connection points: 6
#     Edge 12, Type (0, 1), BuildingBlock: CIFDUS_clean_linker_0, # of connection points: 2
#     Edge 13, Type (0, 1), BuildingBlock: CIFDUS_clean_linker_0, # of connection points: 2
#     Edge 14, Type (0, 1), BuildingBlock: CIFDUS_clean_linker_0, # of connection points: 2
#     Edge 15, Type (0, 1), BuildingBlock: CIFDUS_clean_linker_0, # of connection points: 2
#     Edge 16, Type (0, 1), BuildingBlock: CIFDUS_clean_linker_0, # of connection points: 2
#     Edge 17, Type (0, 1), BuildingBlock: CIFDUS_clean_linker_0, # of connection points: 2
#     Edge 18, Type (0, 1), BuildingBlock: CIFDUS_clean_linker_0, # of connection points: 2
#     Edge 19, Type (0, 1), BuildingBlock: CIFDUS_clean_linker_0, # of connection points: 2
#     Edge 20, Type (0, 1), BuildingBlock: CIFDUS_clean_linker_0, # of connection points: 2
#     Edge 21, Type (0, 1), BuildingBlock: CIFDUS_clean_linker_0, # of connection points: 2
#     Edge 22, Type (0, 1), BuildingBlock: CIFDUS_clean_linker_0, # of connection points: 2
#     Edge 23, Type (0, 1), BuildingBlock: CIFDUS_clean_linker_0, # of connection points: 2
#     Edge 24, Type (0, 1), BuildingBlock: CIFDUS_clean_linker_0, # of connection points: 2
#     Edge 25, Type (0, 1), BuildingBlock: CIFDUS_clean_linker_0, # of connection points: 2
#     Edge 26, Type (0, 1), BuildingBlock: CIFDUS_clean_linker_0, # of connection points: 2
#     Edge 27, Type (0, 1), BuildingBlock: CIFDUS_clean_linker_0, # of connection points: 2
#     Edge 28, Type (0, 1), BuildingBlock: CIFDUS_clean_linker_0, # of connection points: 2
#     Edge 29, Type (0, 1), BuildingBlock: CIFDUS_clean_linker_0, # of connection points: 2
#     Edge 30, Type (0, 1), BuildingBlock: CIFDUS_clean_linker_0, # of connection points: 2
#     Edge 31, Type (0, 1), BuildingBlock: CIFDUS_clean_linker_0, # of connection points: 2
#     Edge 32, Type (0, 1), BuildingBlock: CIFDUS_clean_linker_0, # of connection points: 2
#     Edge 33, Type (0, 1), BuildingBlock: CIFDUS_clean_linker_0, # of connection points: 2
#     Edge 34, Type (0, 1), BuildingBlock: CIFDUS_clean_linker_0, # of connection points: 2
#     Edge 35, Type (0, 1), BuildingBlock: CIFDUS_clean_linker_0, # of connection points: 2
# Relax obj value: 0.178
# Max RMSD: 0.246
# Mean RMSD: 0.188
data_MOF--net-pyr--node1-PAMTUU_clean_sbu_0--node2-QEWDON_clean_linker_0--edge1-CIFDUS_clean_linker_0
_symmetry_space_group_name_H-M    P1
_symmetry_Int_Tables_number       1
_symmetry_cell_setting            triclinic
loop_
_symmetry_equiv_pos_as_xyz
'x, y, z'
_cell_length_a     34.330997
_cell_length_b     35.575759
_cell_length_c     35.791434
_cell_angle_alpha  90.264313
_cell_angle_beta   89.708936
_cell_angle_gamma 111.81793
loop_
_atom_site_label
_atom_site_type_symbol
_atom_site_fract_x
_atom_site_fract_y
_atom_site_fract_z
_atom_type_partial_charge
H0 H 0.44421 0.35941 0.20066 0.0
C1 C 0.42498 0.34369 0.22404 0.0
C2 C 0.4229 0.30456 0.23332 0.0
C3 C 0.4008 0.36174 0.24377 0.0
H4 H 0.39315 0.25295 0.26899 0.0
C5 C 0.39642 0.28374 0.26256 0.0
C6 C 0.37225 0.30129 0.2824 0.0
C7 C 0.37526 0.34055 0.27352 0.0
C8 C 0.39921 0.40102 0.23146 0.0
H9 H 0.35622 0.35387 0.2888 0.0
C10 C 0.36053 0.40623 0.23036 0.0
C11 C 0.35805 0.44268 0.218 0.0
C12 C 0.43568 0.43303 0.21989 0.0
H13 H 0.46596 0.43009 0.22068 0.0
C14 C 0.43341 0.46937 0.20749 0.0
H15 H 0.33192 0.38138 0.238 0.0
C16 C 0.39485 0.4742 0.2064 0.0
H17 H 0.39382 0.50266 0.19682 0.0
H18 H 0.46167 0.49389 0.1987 0.0
H19 H 0.16577 0.85519 0.78228 0.0
C20 C 0.18801 0.84231 0.77228 0.0
C21 C 0.22417 0.8478 0.79308 0.0
C22 C 0.18073 0.82098 0.73829 0.0
H23 H 0.28208 0.83744 0.79484 0.0
C24 C 0.2533 0.83198 0.77951 0.0
C25 C 0.24693 0.81131 0.74522 0.0
C26 C 0.20997 0.80492 0.72512 0.0
C27 C 0.1446 0.81909 0.71508 0.0
H28 H 0.20532 0.78991 0.69815 0.0
C29 C 0.13853 0.85497 0.70635 0.0
C30 C 0.10425 0.85402 0.68465 0.0
C31 C 0.11623 0.78198 0.7016 0.0
H32 H 0.12045 0.75399 0.70795 0.0
C33 C 0.0817 0.78077 0.68038 0.0
H34 H 0.16066 0.88376 0.71641 0.0
C35 C 0.07556 0.81653 0.67204 0.0
H36 H 0.04892 0.81501 0.65514 0.0
H37 H 0.05969 0.75204 0.67027 0.0
H38 H 0.72807 0.48764 0.91162 0.0
C39 C 0.71331 0.45632 0.92011 0.0
C40 C 0.73353 0.43977 0.94619 0.0
C41 C 0.67275 0.43346 0.90654 0.0
H42 H 0.72711 0.38627 0.97778 0.0
C43 C 0.71242 0.39925 0.95762 0.0
C44 C 0.6718 0.37564 0.94487 0.0
C45 C 0.65251 0.39321 0.9191 0.0
C46 C 0.64697 0.45438 0.88854 0.0
H47 H 0.62041 0.37654 0.9106 0.0
C48 C 0.64961 0.46572 0.85008 0.0
C49 C 0.6236 0.48573 0.8358 0.0
C50 C 0.61828 0.46295 0.91178 0.0
H51 H 0.61561 0.4547 0.94107 0.0
C52 C 0.59276 0.48211 0.8979 0.0
H53 H 0.67154 0.45927 0.83175 0.0
C54 C 0.59526 0.49327 0.86051 0.0
H55 H 0.57425 0.5075 0.85075 0.0
H56 H 0.57068 0.48825 0.91628 0.0
H57 H 0.91313 0.81748 0.38536 0.0
C58 C 0.88827 0.79629 0.40204 0.0
C59 C 0.87965 0.80771 0.43821 0.0
C60 C 0.86284 0.75878 0.38618 0.0
H61 H 0.84002 0.7883 0.48676 0.0
C62 C 0.84573 0.78036 0.45858 0.0
C63 C 0.81913 0.74317 0.44315 0.0
C64 C 0.82835 0.73282 0.4069 0.0
C65 C 0.86512 0.75071 0.34528 0.0
H66 H 0.80725 0.70547 0.39359 0.0
C67 C 0.89209 0.7326 0.32938 0.0
C68 C 0.88924 0.72243 0.29065 0.0
C69 C 0.8366 0.7591 0.32201 0.0
H70 H 0.81562 0.77272 0.33342 0.0
C71 C 0.83416 0.74953 0.2841 0.0
H72 H 0.91415 0.72571 0.34693 0.0
C73 C 0.85996 0.73117 0.26862 0.0
H74 H 0.85728 0.72401 0.23904 0.0
H75 H 0.81186 0.75612 0.26663 0.0
H76 H 0.71352 0.79184 0.99563 0.0
C77 C 0.71945 0.80542 0.9681 0.0
C78 C 0.75611 0.80862 0.94877 0.0
C79 C 0.692 0.8224 0.95295 0.0
H80 H 0.79198 0.82783 0.89853 0.0
C81 C 0.7641 0.8268 0.91355 0.0
C82 C 0.73759 0.84465 0.89826 0.0
C83 C 0.70136 0.84212 0.91818 0.0
C84 C 0.65521 0.82239 0.97456 0.0
H85 H 0.68091 0.85641 0.90726 0.0
C86 C 0.64923 0.8589 0.98073 0.0
C87 C 0.61422 0.85943 1.00082 0.0
C88 C 0.62601 0.78622 0.98899 0.0
H89 H 0.6301 0.75776 0.98458 0.0
C90 C 0.59086 0.78651 1.00866 0.0
H91 H 0.67195 0.88697 0.96997 0.0
C92 C 0.58483 0.82285 1.01446 0.0
H93 H 0.55767 0.82249 1.03022 0.0
H94 H 0.56828 0.7585 1.01953 0.0
H95 H 0.94414 0.35456 0.4839 0.0
C96 C 0.92659 0.34258 0.45862 0.0
C97 C 0.92191 0.3036 0.44617 0.0
C98 C 0.90722 0.36545 0.43968 0.0
H99 H 0.89343 0.25748 0.40468 0.0
C100 C 0.89815 0.2879 0.41399 0.0
C101 C 0.87879 0.31044 0.39462 0.0
C102 C 0.88382 0.34933 0.40736 0.0
C103 C 0.90876 0.40467 0.45547 0.0
H104 H 0.86833 0.36649 0.39277 0.0
C105 C 0.87194 0.4132 0.45807 0.0
C106 C 0.87227 0.44897 0.47536 0.0
C107 C 0.9464 0.43282 0.4697 0.0
H108 H 0.97526 0.42716 0.46789 0.0
C109 C 0.94715 0.46858 0.48645 0.0
H110 H 0.84286 0.39158 0.4471 0.0
C111 C 0.9104 0.47658 0.48949 0.0
H112 H 0.9118 0.50405 0.50356 0.0
H113 H 0.97626 0.48999 0.49752 0.0
H114 H 0.43619 0.80067 0.26008 0.0
C115 C 0.40405 0.78472 0.25138 0.0
C116 C 0.38474 0.80352 0.22666 0.0
C117 C 0.38316 0.74451 0.2637 0.0
H118 H 0.3281 0.79466 0.19579 0.0
C119 C 0.34322 0.78111 0.21506 0.0
C120 C 0.32148 0.74076 0.2268 0.0
C121 C 0.3419 0.72301 0.25135 0.0
C122 C 0.40806 0.72186 0.28011 0.0
H123 H 0.32684 0.69139 0.25887 0.0
C124 C 0.40765 0.7117 0.31866 0.0
C125 C 0.43125 0.68859 0.33137 0.0
C126 C 0.43239 0.70922 0.25513 0.0
H127 H 0.43323 0.71649 0.22568 0.0
C128 C 0.45553 0.68687 0.26746 0.0
H129 H 0.38907 0.72129 0.3383 0.0
C130 C 0.45497 0.67663 0.305 0.0
H131 H 0.47395 0.65974 0.31357 0.0
H132 H 0.47414 0.67743 0.24774 0.0
H133 H 0.24354 0.47891 0.7703 0.0
C134 C 0.22185 0.45125 0.75787 0.0
C135 C 0.22958 0.4403 0.72149 0.0
C136 C 0.1888 0.42511 0.77989 0.0
H137 H 0.20753 0.39527 0.67831 0.0
C138 C 0.20249 0.40301 0.70673 0.0
C139 C 0.16964 0.3755 0.72822 0.0
C140 C 0.16306 0.38721 0.76492 0.0
C141 C 0.18966 0.43265 0.82104 0.0
H142 H 0.13976 0.36594 0.78284 0.0
C143 C 0.16453 0.45109 0.83969 0.0
C144 C 0.16915 0.45909 0.87888 0.0
C145 C 0.21897 0.42259 0.84168 0.0
H146 H 0.2386 0.40873 0.82807 0.0
C147 C 0.22412 0.43095 0.87967 0.0
H148 H 0.14178 0.45892 0.82396 0.0
C149 C 0.19992 0.44923 0.89798 0.0
H150 H 0.20594 0.45615 0.92738 0.0
H151 H 0.24741 0.42357 0.89504 0.0
Tb152 Tb 0.06295 0.09655 0.5583 0.0
Tb153 Tb 0.98022 0.08632 0.60965 0.0
C154 C 0.97832 0.0226 0.54606 0.0
C155 C 0.15671 0.13815 0.49563 0.0
C156 C 0.21516 0.19456 0.44831 0.0
C157 C 0.17336 0.17484 0.43696 0.0
C158 C 0.14436 0.14694 0.46039 0.0
C159 C 0.19827 0.15869 0.50736 0.0
C160 C 0.22721 0.18687 0.48399 0.0
C161 C 0.12744 0.1063 0.51948 0.0
O162 O 0.02609 0.12349 0.52603 0.0
O163 O 0.98839 0.13718 0.57379 0.0
O164 O 0.03295 0.13437 0.63654 0.0
O165 O 0.07824 0.1545 0.58672 0.0
O166 O 0.91531 0.07364 0.61336 0.0
O167 O 0.95479 0.08962 0.66216 0.0
O168 O 0.99959 0.03775 0.62684 0.0
O169 O 0.06857 0.06547 0.60906 0.0
O170 O 0.01942 0.03516 0.54681 0.0
O171 O 0.95824 0.04313 0.56304 0.0
C172 C 1.00286 0.14267 0.5395 0.0
O173 O 0.12844 0.11406 0.55517 0.0
O174 O 0.08914 0.08838 0.5074 0.0
C175 C 0.06614 0.16105 0.62021 0.0
C176 C 0.88757 0.04173 0.67034 0.0
C177 C 0.84467 0.98232 0.72273 0.0
C178 C 0.83404 1.0165 0.71822 0.0
C179 C 0.85567 0.04627 0.69225 0.0
C180 C 0.8957 1.00598 0.67264 0.0
C181 C 0.87457 0.97655 0.69889 0.0
C182 C 0.91645 0.07636 0.6497 0.0
C183 C 0.03786 0.03812 0.62738 0.0
H184 H 0.16328 0.18054 0.40964 0.0
H185 H 0.11256 0.13173 0.4505 0.0
H186 H 0.20862 0.15226 0.5343 0.0
H187 H 0.25939 0.20142 0.4932 0.0
H188 H 0.81132 1.02159 0.73662 0.0
H189 H 0.84924 0.07384 0.69087 0.0
H190 H 0.92023 1.00203 0.65584 0.0
H191 H 0.88318 0.95036 0.702 0.0
Tb192 Tb 0.56598 0.09991 0.11997 0.0
Tb193 Tb 0.48449 0.08952 0.0679 0.0
C194 C 0.54426 0.04361 0.04967 0.0
C195 C 0.6546 0.13567 0.18948 0.0
C196 C 0.70775 0.18062 0.24692 0.0
C197 C 0.72395 0.17884 0.21112 0.0
C198 C 0.69763 0.15635 0.18272 0.0
C199 C 0.63811 0.13895 0.22486 0.0
C200 C 0.66446 0.16113 0.2533 0.0
C201 C 0.6284 0.10796 0.16073 0.0
O202 O 0.58043 0.15855 0.09316 0.0
O203 O 0.53768 0.13818 0.042 0.0
O204 O 0.49221 0.14063 0.10394 0.0
O205 O 0.52746 0.12536 0.15223 0.0
O206 O 0.45909 0.08832 1.01471 0.0
O207 O 0.42044 0.08038 0.06412 0.0
O208 O 0.46152 0.04592 0.114 0.0
O209 O 0.52266 0.03769 0.12861 0.0
O210 O 0.57424 0.07176 0.06796 0.0
O211 O 0.50542 0.04167 0.05091 0.0
C212 C 0.56935 0.16553 0.05953 0.0
O213 O 0.58964 0.08662 0.16977 0.0
O214 O 0.63162 0.12146 0.12658 0.0
C215 C 0.50554 0.14554 0.13852 0.0
C216 C 0.3894 0.04287 1.01049 0.0
C217 C 0.33178 0.97754 0.97062 0.0
C218 C 0.3218 1.01131 0.98043 0.0
C219 C 0.35053 0.04381 1.00006 0.0
C220 C 0.39856 1.00838 1.00268 0.0
C221 C 0.37015 0.97612 0.98274 0.0
C222 C 0.42106 0.07861 1.02775 0.0
C223 C 0.48155 0.02493 0.12984 0.0
H224 H 0.75726 0.19334 0.20554 0.0
H225 H 0.71114 0.15404 0.15579 0.0
H226 H 0.60507 0.12346 0.23102 0.0
H227 H 0.65111 0.16243 0.28054 0.0
H228 H 0.29223 1.01307 0.97217 0.0
H229 H 0.34283 0.07009 1.00625 0.0
H230 H 0.42835 1.00701 1.01079 0.0
H231 H 0.37926 0.95098 0.97535 0.0
Tb232 Tb 0.52872 0.54698 0.56406 0.0
Tb233 Tb 0.52375 0.62795 0.60456 0.0
C234 C 0.48861 0.60288 0.52285 0.0
C235 C 0.57229 0.47562 0.52208 0.0
C236 C 0.64423 0.45703 0.5076 0.0
C237 C 0.61507 0.43598 0.53523 0.0
C238 C 0.57943 0.44504 0.54224 0.0
C239 C 0.60091 0.49611 0.49389 0.0
C240 C 0.63639 0.48685 0.4867 0.0
C241 C 0.53588 0.48671 0.53151 0.0
O242 O 0.58391 0.59685 0.54398 0.0
O243 O 0.58924 0.64674 0.58707 0.0
O244 O 0.54405 0.59583 0.64764 0.0
O245 O 0.56854 0.55444 0.61347 0.0
O246 O 0.52732 0.68824 0.60278 0.0
O247 O 0.51469 0.65499 0.65436 0.0
O248 O 0.45963 0.58342 0.60698 0.0
O249 O 0.47314 0.52525 0.59978 0.0
O250 O 0.48614 0.56565 0.52978 0.0
O251 O 0.50763 0.63261 0.54618 0.0
C252 C 0.60465 0.6324 0.55908 0.0
O253 O 0.52719 0.48739 0.56693 0.0
O254 O 0.53312 0.51769 0.51408 0.0
C255 C 0.56477 0.57131 0.64538 0.0
C256 C 0.48093 0.70036 0.64572 0.0
C257 C 0.41172 0.72085 0.66551 0.0
C258 C 0.44989 0.73745 0.68503 0.0
C259 C 0.48415 0.72734 0.67514 0.0
C260 C 0.44304 0.68355 0.62609 0.0
C261 C 0.40872 0.69383 0.63583 0.0
C262 C 0.5163 0.68789 0.63767 0.0
C263 C 0.44821 0.54397 0.61017 0.0
H264 H 0.62026 0.41314 0.55217 0.0
H265 H 0.55783 0.42865 0.56401 0.0
H266 H 0.59628 0.51966 0.47758 0.0
H267 H 0.65768 0.50314 0.46471 0.0
H268 H 0.45309 0.75765 0.70853 0.0
H269 H 0.51298 0.74006 0.69094 0.0
H270 H 0.4399 0.66222 0.60352 0.0
H271 H 0.37996 0.68075 0.62004 0.0
Tb272 Tb 0.02917 0.61994 0.06414 0.0
Tb273 Tb 0.02317 0.54542 0.11785 0.0
C274 C 0.06617 0.55424 0.0392 0.0
C275 C 0.99173 0.69127 1.01986 0.0
C276 C 0.92235 0.71382 1.00854 0.0
C277 C 0.95944 0.73183 0.98754 0.0
C278 C 0.99387 0.72051 0.9931 0.0
C279 C 0.95506 0.67369 0.04125 0.0
C280 C 0.9206 0.68476 0.03556 0.0
C281 C 0.02645 0.67713 1.02434 0.0
O282 O 0.96351 0.57911 0.06255 0.0
O283 O 0.97317 0.52069 0.0764 0.0
O284 O 0.97842 0.56925 0.14174 0.0
O285 O 1.01109 0.6338 0.12028 0.0
O286 O 1.01243 0.48371 0.12412 0.0
O287 O 0.02946 0.5241 0.17138 0.0
O288 O 0.07713 0.59788 0.13699 0.0
O289 O 0.09351 0.63448 0.08289 0.0
O290 O 0.04719 0.57836 1.02827 0.0
O291 O 0.06881 0.54714 0.0749 0.0
C292 C 0.95076 0.53952 0.06106 0.0
O293 O 0.04328 0.6823 0.05744 0.0
O294 O 0.01884 0.64072 1.01175 0.0
C295 C 0.98542 0.6081 0.14401 0.0
C296 C 0.06319 0.47723 0.16555 0.0
C297 C 0.14051 0.46723 0.17459 0.0
C298 C 0.12421 0.48406 0.20346 0.0
C299 C 0.08593 0.48903 0.19896 0.0
C300 C 0.07836 0.45814 0.13765 0.0
C301 C 0.11665 0.4534 0.14206 0.0
C302 C 0.02678 0.489 0.15818 0.0
C303 C 0.1039 0.6266 0.11645 0.0
H304 H 0.96148 0.75401 0.96622 0.0
H305 H 0.02183 0.7341 0.97618 0.0
H306 H 0.95293 0.65104 0.06211 0.0
H307 H 0.89266 0.67071 0.05239 0.0
H308 H 0.14191 0.49502 0.22885 0.0
H309 H 0.07499 0.50367 0.22102 0.0
H310 H 0.06148 0.44813 0.11173 0.0
H311 H 0.128 0.43955 0.11965 0.0
H312 H 0.35995 0.32186 0.35361 0.0
H313 H 0.31363 0.22628 0.27176 0.0
H314 H 0.26044 0.18532 0.31574 0.0
H315 H 0.22749 0.17638 0.37732 0.0
H316 H 0.27392 0.27042 0.46046 0.0
H317 H 0.32686 0.31243 0.41621 0.0
C318 C 0.33808 0.29209 0.34556 0.0
C319 C 0.34071 0.2769 0.30973 0.0
C320 C 0.30772 0.26856 0.37111 0.0
C321 C 0.31246 0.23826 0.29945 0.0
C322 C 0.28195 0.21496 0.32446 0.0
C323 C 0.24894 0.20627 0.38558 0.0
C324 C 0.2467 0.22058 0.4218 0.0
C325 C 0.27934 0.22979 0.36031 0.0
C326 C 0.27521 0.2589 0.43259 0.0
C327 C 0.30534 0.28287 0.40734 0.0
H328 H 0.24914 0.83101 0.86071 0.0
H329 H 0.22243 0.92321 0.80032 0.0
H330 H 0.24941 0.97056 0.85217 0.0
H331 H 0.28848 0.988 0.9107 0.0
H332 H 0.31421 0.89567 0.97216 0.0
H333 H 0.27998 0.84614 0.92362 0.0
C334 C 0.24876 0.86132 0.85925 0.0
C335 C 0.23421 0.87381 0.82678 0.0
C336 C 0.26463 0.88845 0.88901 0.0
C337 C 0.23333 0.91292 0.82519 0.0
C338 C 0.24902 0.94007 0.85468 0.0
C339 C 0.28561 0.95682 0.91417 0.0
C340 C 0.30456 0.94584 0.94484 0.0
C341 C 0.2658 0.92848 0.88625 0.0
C342 C 0.30083 0.90526 0.94841 0.0
C343 C 0.28111 0.87685 0.92074 0.0
H344 H 0.62465 0.55806 0.81029 0.0
H345 H 0.62058 0.4422 0.77063 0.0
H346 H 0.60528 0.45916 0.70717 0.0
H347 H 0.5853 0.50474 0.66408 0.0
H348 H 0.58632 0.61862 0.7073 0.0
H349 H 0.6099 0.60443 0.76762 0.0
C350 C 0.62091 0.53655 0.78773 0.0
C351 C 0.62356 0.49867 0.79564 0.0
C352 C 0.61076 0.546 0.75169 0.0
C353 C 0.61912 0.47165 0.76564 0.0
C354 C 0.60982 0.48123 0.72931 0.0
C355 C 0.59124 0.52666 0.68655 0.0
C356 C 0.58353 0.56274 0.68077 0.0
C357 C 0.60438 0.51795 0.72211 0.0
C358 C 0.59135 0.59051 0.71059 0.0
C359 C 0.60501 0.58246 0.74532 0.0
H360 H 0.86496 0.64665 0.26089 0.0
H361 H 0.97289 0.75682 0.27408 0.0
H362 H 1.0124 0.73196 0.2294 0.0
H363 H 0.0144 0.68044 0.18267 0.0
H364 H 0.90718 0.5688 0.17261 0.0
H365 H 0.86941 0.59249 0.21947 0.0
C366 C 0.89755 0.66469 0.25477 0.0
C367 C 0.91615 0.70334 0.27136 0.0
C368 C 0.91997 0.65016 0.22888 0.0
C369 C 0.95812 0.72668 0.26248 0.0
C370 C 0.98052 0.71262 0.23648 0.0
C371 C 0.9828 0.66129 0.19082 0.0
C372 C 0.96353 0.62296 0.17362 0.0
C373 C 0.96149 0.67475 0.2188 0.0
C374 C 0.92281 0.59837 0.18513 0.0
C375 C 0.90114 0.61193 0.21203 0.0
H376 H 0.46414 0.25697 0.25751 0.0
H377 H 0.42854 0.303 0.15726 0.0
H378 H 0.45346 0.25942 0.11921 0.0
H379 H 0.47909 0.20408 0.11465 0.0
H380 H 0.51278 0.15585 0.21455 0.0
H381 H 0.49431 0.20419 0.2526 0.0
C382 C 0.4621 0.25762 0.22731 0.0
C383 C 0.44425 0.28305 0.21029 0.0
C384 C 0.47547 0.23167 0.20561 0.0
C385 C 0.44251 0.2841 0.17111 0.0
C386 C 0.45631 0.25882 0.14933 0.0
C387 C 0.48244 0.20404 0.14476 0.0
C388 C 0.49661 0.17589 0.1618 0.0
C389 C 0.47178 0.23177 0.16634 0.0
C390 C 0.5016 0.17694 0.20077 0.0
C391 C 0.49107 0.20458 0.22252 0.0
H392 H 0.03408 0.87179 0.69114 0.0
H393 H 0.16349 0.92204 0.65586 0.0
H394 H 0.15545 0.98492 0.63777 0.0
H395 H 0.11074 0.02421 0.6291 0.0
H396 H 0.98115 0.97402 0.66469 0.0
H397 H 0.99035 0.91288 0.68591 0.0
C398 C 0.06042 0.89655 0.67943 0.0
C399 C 0.0992 0.89229 0.67458 0.0
C400 C 0.05563 0.93269 0.6693 0.0
C401 C 0.13335 0.92474 0.65995 0.0
C402 C 0.12876 0.96064 0.64955 0.0
C403 C 0.08461 1.00017 0.64193 0.0
C404 C 0.04526 1.00376 0.64501 0.0
C405 C 0.08995 0.96483 0.6538 0.0
C406 C 1.01181 0.97219 0.6618 0.0
C407 C 0.01695 0.93703 0.67383 0.0
H408 H 0.79731 0.41624 0.97069 0.0
H409 H 0.76331 0.52138 0.96402 0.0
H410 H 0.82696 0.56125 0.99764 0.0
H411 H 0.89139 0.56608 1.0317 0.0
H412 H 0.92175 0.45923 0.04225 0.0
H413 H 0.85992 0.42039 1.00582 0.0
C414 C 0.8032 0.44772 0.97684 0.0
C415 C 0.77467 0.46525 0.96444 0.0
C416 C 0.83929 0.47035 0.99761 0.0
C417 C 0.78443 0.50668 0.9722 0.0
C418 C 0.82082 0.5296 0.99202 0.0
C419 C 0.88446 0.53424 1.02619 0.0
C420 C 0.91151 0.51578 0.04008 0.0
C421 C 0.84831 0.5117 1.00527 0.0
C422 C 0.90168 0.47443 1.03238 0.0
C423 C 0.86627 0.45211 1.01129 0.0
H424 H 0.76875 0.76556 0.49166 0.0
H425 H 0.78143 0.65971 0.44203 0.0
H426 H 0.71699 0.61664 0.47303 0.0
H427 H 0.65601 0.60867 0.51366 0.0
H428 H 0.64646 0.71418 0.56659 0.0
H429 H 0.71124 0.75723 0.53582 0.0
C430 C 0.75822 0.73305 0.48804 0.0
C431 C 0.78051 0.71639 0.464 0.0
C432 C 0.72147 0.70812 0.50678 0.0
C433 C 0.765 0.67396 0.45948 0.0
C434 C 0.72812 0.64908 0.47754 0.0
C435 C 0.66818 0.64107 0.51867 0.0
C436 C 0.64602 0.65802 0.54245 0.0
C437 C 0.70589 0.66581 0.50107 0.0
C438 C 0.66268 0.7001 0.54867 0.0
C439 C 0.69975 0.72485 0.53089 0.0
H440 H 0.32538 0.47063 0.16037 0.0
H441 H 0.29806 0.42398 0.27244 0.0
H442 H 0.22854 0.42796 0.2693 0.0
H443 H 0.17478 0.44314 0.23401 0.0
H444 H 0.20193 0.4887 0.1215 0.0
H445 H 0.27206 0.48659 0.12541 0.0
C446 C 0.30433 0.46178 0.18421 0.0
C447 C 0.31679 0.44711 0.21658 0.0
C448 C 0.26425 0.46365 0.18202 0.0
C449 C 0.28901 0.43514 0.24711 0.0
C450 C 0.24932 0.43746 0.24536 0.0
C451 C 0.19619 0.45283 0.21048 0.0
C452 C 0.18309 0.46583 0.17747 0.0
C453 C 0.23647 0.45139 0.21285 0.0
C454 C 0.21103 0.47797 0.14704 0.0
C455 C 0.25123 0.47702 0.14932 0.0
H456 H 0.67446 0.34814 1.01628 0.0
H457 H 0.61623 0.30793 0.9092 0.0
H458 H 0.57907 0.24024 0.93469 0.0
H459 H 0.56359 0.19154 0.98761 0.0
H460 H 0.62569 0.23249 0.09313 0.0
H461 H 0.66133 0.29992 0.06763 0.0
C462 C 0.65435 0.3246 0.99804 0.0
C463 C 0.64878 0.33373 0.96049 0.0
C464 C 0.63365 0.28536 1.01266 0.0
C465 C 0.62115 0.30246 0.9382 0.0
C466 C 0.59999 0.26344 0.95275 0.0
C467 C 0.58501 0.21516 1.00501 0.0
C468 C 0.59174 0.20642 0.04242 0.0
C469 C 0.60602 0.25441 0.98998 0.0
C470 C 0.61977 0.23776 0.0643 0.0
C471 C 0.64023 0.27662 0.04974 0.0
H472 H 0.85024 0.85818 0.47748 0.0
H473 H 0.96504 0.85027 0.43571 0.0
H474 H 1.00537 0.91575 0.4645 0.0
H475 H 1.00834 0.97466 0.50323 0.0
H476 H 0.89305 0.98192 0.5448 0.0
H477 H 0.853 0.91737 0.51484 0.0
C478 C 0.88414 0.87052 0.47483 0.0
C479 C 0.90442 0.84875 0.45455 0.0
C480 C 0.9072 0.90824 0.49161 0.0
C481 C 0.94837 0.86611 0.45085 0.0
C482 C 0.97153 0.90358 0.46755 0.0
C483 C 0.97443 0.96226 0.50573 0.0
C484 C 0.95396 0.98353 0.52651 0.0
C485 C 0.95134 0.92485 0.48823 0.0
C486 C 0.9099 0.96665 0.5291 0.0
C487 C 0.88686 0.92954 0.51195 0.0
H488 H 0.24225 0.73841 0.71676 0.0
H489 H 0.32824 0.86066 0.73696 0.0
H490 H 0.38623 0.84394 0.71243 0.0
H491 H 0.41288 0.7946 0.68672 0.0
H492 H 0.32853 0.67108 0.66916 0.0
H493 H 0.26943 0.68846 0.69021 0.0
C494 C 0.27369 0.76129 0.71552 0.0
C495 C 0.28114 0.80055 0.72894 0.0
C496 C 0.3071 0.75134 0.70172 0.0
C497 C 0.32195 0.83006 0.7273 0.0
C498 C 0.35506 0.82059 0.71314 0.0
C499 C 0.38165 0.77132 0.68777 0.0
C500 C 0.3753 0.73156 0.67657 0.0
C501 C 0.34809 0.78126 0.70068 0.0
C502 C 0.33435 0.70206 0.67726 0.0
C503 C 0.30055 0.7119 0.68957 0.0
H504 H 0.81618 0.89157 0.87571 0.0
H505 H 0.68654 0.85196 0.84165 0.0
H506 H 0.70785 0.89188 0.78442 0.0
H507 H 0.76413 0.93773 0.7436 0.0
H508 H 0.89329 0.97058 0.77641 0.0
H509 H 0.87137 0.93215 0.83411 0.0
C510 C 0.79241 0.89059 0.8555 0.0
C511 C 0.74979 0.8683 0.86302 0.0
C512 C 0.8049 0.9122 0.82224 0.0
C513 C 0.71958 0.86909 0.8369 0.0
C514 C 0.73175 0.89166 0.80399 0.0
C515 C 0.78723 0.93605 0.7634 0.0
C516 C 0.83015 0.95657 0.75597 0.0
C517 C 0.77439 0.91328 0.79632 0.0
C518 C 0.86009 0.95449 0.78157 0.0
C519 C 0.84759 0.93279 0.81458 0.0
H520 H 0.81574 0.23724 0.39311 0.0
H521 H 0.878 0.34289 0.32568 0.0
H522 H 0.83035 0.3122 0.27371 0.0
H523 H 0.77096 0.25488 0.2476 0.0
H524 H 0.7084 0.15011 0.3162 0.0
H525 H 0.75612 0.18089 0.36766 0.0
C526 C 0.81907 0.25334 0.36688 0.0
C527 C 0.85049 0.29198 0.36295 0.0
C528 C 0.7914 0.23575 0.33749 0.0
C529 C 0.85397 0.31303 0.32921 0.0
C530 C 0.82683 0.29549 0.29956 0.0
C531 C 0.76794 0.23886 0.27382 0.0
C532 C 0.7362 0.20037 0.27818 0.0
C533 C 0.79543 0.25682 0.30339 0.0
C534 C 0.73226 0.18001 0.31238 0.0
C535 C 0.75968 0.19745 0.34171 0.0
H536 H 0.42282 0.61461 0.35923 0.0
H537 H 0.44705 0.73728 0.3941 0.0
H538 H 0.46523 0.72154 0.45689 0.0
H539 H 0.48058 0.67416 0.50036 0.0
H540 H 0.45627 0.55165 0.46392 0.0
H541 H 0.4323 0.56621 0.40368 0.0
C542 C 0.43152 0.63785 0.3807 0.0
C543 C 0.43366 0.67726 0.37162 0.0
C544 C 0.44264 0.62871 0.41654 0.0
C545 C 0.44467 0.70669 0.40011 0.0
C546 C 0.45557 0.69774 0.436 0.0
C547 C 0.46974 0.65049 0.4794 0.0
C548 C 0.47075 0.61175 0.48706 0.0
C549 C 0.45572 0.65908 0.44432 0.0
C550 C 0.45616 0.58167 0.45927 0.0
C551 C 0.44239 0.59 0.42458 0.0
H552 H 0.13861 0.44058 0.94973 0.0
H553 H 0.14177 0.52073 0.85881 0.0
H554 H 0.10882 0.55669 0.89924 0.0
H555 H 0.08325 0.56822 0.9628 0.0
H556 H 0.08763 0.48978 0.05318 0.0
H557 H 0.11456 0.45169 1.01109 0.0
C558 C 0.1326 0.46617 0.93853 0.0
C559 C 0.1436 0.47809 0.90111 0.0
C560 C 0.1154 0.48768 0.96231 0.0
C561 C 0.13375 0.51051 0.88727 0.0
C562 C 0.11526 0.53144 0.91064 0.0
C563 C 0.09014 0.54283 0.97324 0.0
C564 C 0.08343 0.53237 1.01159 0.0
C565 C 0.10665 0.52084 0.94858 0.0
C566 C 0.09262 0.49916 1.02425 0.0
C567 C 0.10795 0.477 1.00003 0.0
H568 H 0.54436 0.87668 0.99059 0.0
H569 H 0.67278 0.92926 1.02753 0.0
H570 H 0.6638 0.99267 0.04255 0.0
H571 H 0.61811 0.03142 0.04905 0.0
H572 H 0.48939 0.97855 1.01221 0.0
H573 H 0.50004 0.91734 0.99286 0.0
C574 C 0.57031 0.90209 1.00191 0.0
C575 C 0.60902 0.89829 1.00826 0.0
C576 C 0.56494 0.93843 1.0104 0.0
C577 C 0.64269 0.93158 1.02233 0.0
C578 C 0.63755 0.96777 1.031 0.0
C579 C 0.59252 1.0068 0.03628 0.0
C580 C 0.55293 1.00958 1.03244 0.0
C581 C 0.59866 0.97136 1.02559 0.0
C582 C 0.5202 0.9773 1.01571 0.0
C583 C 0.52616 0.9421 1.00477 0.0
H584 H 0.96211 0.25466 0.42132 0.0
H585 H 0.91771 0.29398 0.5216 0.0
H586 H 0.94044 0.24893 0.55894 0.0
H587 H 0.96985 0.19672 0.56309 0.0
H588 H 0.01388 0.15547 0.4637 0.0
H589 H 0.99417 0.20293 0.42596 0.0
C590 C 0.95748 0.25332 0.45135 0.0
C591 C 0.93838 0.2778 0.46864 0.0
C592 C 0.97027 0.22691 0.47275 0.0
C593 C 0.93293 0.27604 0.50762 0.0
C594 C 0.9456 0.25002 0.52899 0.0
C595 C 0.97519 0.19792 0.53315 0.0
C596 C 0.99291 0.1722 0.51621 0.0
C597 C 0.96386 0.22508 0.51181 0.0
C598 C 1.00013 0.17479 0.47745 0.0
C599 C 0.98881 0.20188 0.45587 0.0
H600 H 0.29082 0.74153 0.15583 0.0
H601 H 0.25466 0.6843 0.26333 0.0
H602 H 0.18542 0.64366 0.23883 0.0
H603 H 0.13436 0.62452 0.18703 0.0
H604 H 0.17 0.68362 0.08027 0.0
H605 H 0.23951 0.72353 0.10458 0.0
C606 C 0.26774 0.72067 0.17422 0.0
C607 C 0.27849 0.71639 0.21165 0.0
C608 C 0.22754 0.69755 0.16004 0.0
C609 C 0.24793 0.6882 0.2344 0.0
C610 C 0.20805 0.66499 0.22043 0.0
C611 C 0.15727 0.6461 0.16899 0.0
C612 C 0.14654 0.65083 0.13169 0.0
C613 C 0.19743 0.66936 0.18327 0.0
C614 C 0.17697 0.67916 0.10901 0.0
C615 C 0.21692 0.70209 0.12293 0.0
H616 H 0.28266 0.41514 0.6802 0.0
H617 H 0.26415 0.52345 0.71541 0.0
H618 H 0.32892 0.56504 0.68331 0.0
H619 H 0.39223 0.57077 0.64638 0.0
H620 H 0.40995 0.46161 0.61217 0.0
H621 H 0.34406 0.42065 0.6421 0.0
C622 C 0.29229 0.44783 0.68042 0.0
C623 C 0.26812 0.46593 0.70022 0.0
C624 C 0.32972 0.47161 0.66201 0.0
C625 C 0.28203 0.5085 0.70073 0.0
C626 C 0.3191 0.53237 0.68222 0.0
C627 C 0.38156 0.53802 0.64519 0.0
C628 C 0.40643 0.51952 0.6269 0.0
C629 C 0.34344 0.51429 0.66295 0.0
C630 C 0.39188 0.47694 0.62601 0.0
C631 C 0.35404 0.45333 0.64319 0.0
H632 H 0.75146 0.73351 0.96952 0.0
H633 H 0.83447 0.8588 0.96571 0.0
H634 H 0.89309 0.84082 0.98602 0.0
H635 H 0.92179 0.78917 1.00029 0.0
H636 H 0.84015 0.66325 1.00204 0.0
H637 H 0.77991 0.68158 0.98755 0.0
C638 C 0.78228 0.75672 0.97386 0.0
C639 C 0.78897 0.79729 0.96619 0.0
C640 C 0.81608 0.74602 0.98478 0.0
C641 C 0.82893 0.82735 0.97147 0.0
C642 C 0.86239 0.81709 0.98291 0.0
C643 C 0.8908 0.76577 0.99744 0.0
C644 C 0.88547 0.72498 1.00186 0.0
C645 C 0.85655 0.77647 0.98878 0.0
C646 C 0.84501 0.69495 0.99888 0.0
C647 C 0.81059 0.70538 0.99045 0.0
H648 H 0.3558 0.86383 0.20644 0.0
H649 H 0.46883 0.83733 0.20872 0.0
H650 H 0.5081 0.90284 0.181 0.0
H651 H 0.51086 0.96733 0.15404 0.0
H652 H 0.39755 0.99266 0.14778 0.0
H653 H 0.35826 0.92799 0.17807 0.0
C654 C 0.38894 0.87202 0.20069 0.0
C655 C 0.40892 0.84499 0.2104 0.0
C656 C 0.41156 0.90978 0.18359 0.0
C657 C 0.45225 0.85722 0.20284 0.0
C658 C 0.47489 0.89479 0.18643 0.0
C659 C 0.47758 0.95891 0.15937 0.0
C660 C 0.45744 0.98533 0.14858 0.0
C661 C 0.45494 0.9213 0.17653 0.0
C662 C 0.41412 0.97328 0.15561 0.0
C663 C 0.39154 0.93616 0.17305 0.0
H664 H 0.19555 0.32819 0.68065 0.0
H665 H 0.08623 0.32774 0.74114 0.0
H666 H 0.04547 0.26087 0.7155 0.0
H667 H 0.03983 0.20293 0.67355 0.0
H668 H 0.14847 0.2075 0.60974 0.0
H669 H 0.1898 0.27235 0.6383 0.0
C670 C 0.16262 0.31413 0.6879 0.0
C671 C 0.14431 0.33392 0.71282 0.0
C672 C 0.13892 0.27603 0.67222 0.0
C673 C 0.10173 0.31368 0.72247 0.0
C674 C 0.07816 0.27532 0.70753 0.0
C675 C 0.07262 0.21802 0.66611 0.0
C676 C 0.0909 0.20003 0.63946 0.0
C677 C 0.0963 0.25621 0.68215 0.0
C678 C 0.13337 0.22044 0.62995 0.0
C679 C 0.15715 0.25765 0.64635 0.0
H680 H 0.79337 0.39455 0.49044 0.0
H681 H 0.86216 0.52166 0.46955 0.0
H682 H 0.79813 0.53526 0.47815 0.0
H683 H 0.7229 0.51134 0.4923 0.0
H684 H 0.6532 0.38359 0.50866 0.0
H685 H 0.7174 0.37007 0.50079 0.0
C686 C 0.79439 0.42517 0.48709 0.0
C687 C 0.8328 0.457 0.47942 0.0
C688 C 0.75727 0.43274 0.49136 0.0
C689 C 0.83334 0.49659 0.47607 0.0
C690 C 0.79663 0.50441 0.48071 0.0
C691 C 0.72151 0.48043 0.49357 0.0
C692 C 0.68313 0.4486 0.50123 0.0
C693 C 0.75845 0.47273 0.48845 0.0
C694 C 0.68232 0.40883 0.50345 0.0
C695 C 0.71901 0.401 0.49872 0.0
loop_
_geom_bond_atom_site_label_1
_geom_bond_atom_site_label_2
_geom_bond_distance
_geom_bond_site_symmetry_2
_ccdc_geom_bond_type
H0 C1 0.949 . S
C1 H0 0.949 . S
C1 C2 1.395 . S
C1 C3 1.391 . S
C2 C1 1.395 . S
C2 C5 1.390 . S
C3 C1 1.391 . S
C3 C7 1.387 . S
C3 C8 1.491 . S
H4 C5 0.950 . S
C5 C2 1.390 . S
C5 H4 0.950 . S
C5 C6 1.378 . S
C6 C5 1.378 . S
C6 C7 1.409 . S
C7 C3 1.387 . S
C7 C6 1.409 . S
C7 H9 0.951 . S
C8 C3 1.491 . S
C8 C10 1.382 . S
C8 C12 1.404 . S
H9 C7 0.951 . S
C10 C8 1.382 . S
C10 C11 1.390 . S
C10 H15 0.949 . S
C11 C10 1.390 . S
C11 C16 1.399 . S
C12 C8 1.404 . S
C12 H13 0.950 . S
C12 C14 1.375 . S
H13 C12 0.950 . S
C14 C12 1.375 . S
C14 C16 1.382 . S
C14 H18 0.950 . S
H15 C10 0.949 . S
C16 C11 1.399 . S
C16 C14 1.382 . S
C16 H17 0.952 . S
H17 C16 0.952 . S
H18 C14 0.950 . S
H19 C20 0.949 . S
C20 H19 0.949 . S
C20 C21 1.395 . S
C20 C22 1.391 . S
C21 C20 1.395 . S
C21 C24 1.390 . S
C22 C20 1.391 . S
C22 C26 1.387 . S
C22 C27 1.491 . S
H23 C24 0.950 . S
C24 C21 1.390 . S
C24 H23 0.950 . S
C24 C25 1.378 . S
C25 C24 1.378 . S
C25 C26 1.409 . S
C26 C22 1.387 . S
C26 C25 1.409 . S
C26 H28 0.951 . S
C27 C22 1.491 . S
C27 C29 1.382 . S
C27 C31 1.404 . S
H28 C26 0.951 . S
C29 C27 1.382 . S
C29 C30 1.390 . S
C29 H34 0.949 . S
C30 C29 1.390 . S
C30 C35 1.399 . S
C31 C27 1.404 . S
C31 H32 0.950 . S
C31 C33 1.375 . S
H32 C31 0.950 . S
C33 C31 1.375 . S
C33 C35 1.382 . S
C33 H37 0.950 1_455 S
H34 C29 0.949 . S
C35 C30 1.399 . S
C35 C33 1.382 . S
C35 H36 0.952 1_455 S
H36 C35 0.952 1_655 S
H37 C33 0.950 1_655 S
H38 C39 0.949 . S
C39 H38 0.949 . S
C39 C40 1.395 . S
C39 C41 1.391 . S
C40 C39 1.395 . S
C40 C43 1.390 . S
C41 C39 1.391 . S
C41 C45 1.387 . S
C41 C46 1.491 . S
H42 C43 0.950 . S
C43 C40 1.390 . S
C43 H42 0.950 . S
C43 C44 1.378 . S
C44 C43 1.378 . S
C44 C45 1.409 . S
C45 C41 1.387 . S
C45 C44 1.409 . S
C45 H47 0.951 . S
C46 C41 1.491 . S
C46 C48 1.382 . S
C46 C50 1.404 . S
H47 C45 0.951 . S
C48 C46 1.382 . S
C48 C49 1.390 . S
C48 H53 0.949 . S
C49 C48 1.390 . S
C49 C54 1.399 . S
C50 C46 1.404 . S
C50 H51 0.950 . S
C50 C52 1.375 . S
H51 C50 0.950 . S
C52 C50 1.375 . S
C52 C54 1.382 . S
C52 H56 0.950 . S
H53 C48 0.949 . S
C54 C49 1.399 . S
C54 C52 1.382 . S
C54 H55 0.952 . S
H55 C54 0.952 . S
H56 C52 0.950 . S
H57 C58 0.949 . S
C58 H57 0.949 . S
C58 C59 1.395 . S
C58 C60 1.391 . S
C59 C58 1.395 . S
C59 C62 1.390 . S
C60 C58 1.391 . S
C60 C64 1.387 . S
C60 C65 1.491 . S
H61 C62 0.950 . S
C62 C59 1.390 . S
C62 H61 0.950 . S
C62 C63 1.378 . S
C63 C62 1.378 . S
C63 C64 1.409 . S
C64 C60 1.387 . S
C64 C63 1.409 . S
C64 H66 0.951 . S
C65 C60 1.491 . S
C65 C67 1.382 . S
C65 C69 1.404 . S
H66 C64 0.951 . S
C67 C65 1.382 . S
C67 C68 1.390 . S
C67 H72 0.949 . S
C68 C67 1.390 . S
C68 C73 1.399 . S
C69 C65 1.404 . S
C69 H70 0.950 . S
C69 C71 1.375 . S
H70 C69 0.950 . S
C71 C69 1.375 . S
C71 C73 1.382 . S
C71 H75 0.950 . S
H72 C67 0.949 . S
C73 C68 1.399 . S
C73 C71 1.382 . S
C73 H74 0.952 . S
H74 C73 0.952 . S
H75 C71 0.950 . S
H76 C77 0.949 . S
C77 H76 0.949 . S
C77 C78 1.395 . S
C77 C79 1.391 . S
C78 C77 1.395 . S
C78 C81 1.390 . S
C79 C77 1.391 . S
C79 C83 1.387 . S
C79 C84 1.491 . S
H80 C81 0.950 . S
C81 C78 1.390 . S
C81 H80 0.950 . S
C81 C82 1.378 . S
C82 C81 1.378 . S
C82 C83 1.409 . S
C83 C79 1.387 . S
C83 C82 1.409 . S
C83 H85 0.951 . S
C84 C79 1.491 . S
C84 C86 1.382 . S
C84 C88 1.404 . S
H85 C83 0.951 . S
C86 C84 1.382 . S
C86 C87 1.390 . S
C86 H91 0.949 . S
C87 C86 1.390 . S
C87 C92 1.399 . S
C88 C84 1.404 . S
C88 H89 0.950 . S
C88 C90 1.375 . S
H89 C88 0.950 . S
C90 C88 1.375 . S
C90 C92 1.382 . S
C90 H94 0.950 . S
H91 C86 0.949 . S
C92 C87 1.399 . S
C92 C90 1.382 . S
C92 H93 0.952 . S
H93 C92 0.952 . S
H94 C90 0.950 . S
H95 C96 0.949 . S
C96 H95 0.949 . S
C96 C97 1.395 . S
C96 C98 1.391 . S
C97 C96 1.395 . S
C97 C100 1.390 . S
C98 C96 1.391 . S
C98 C102 1.387 . S
C98 C103 1.491 . S
H99 C100 0.950 . S
C100 C97 1.390 . S
C100 H99 0.950 . S
C100 C101 1.378 . S
C101 C100 1.378 . S
C101 C102 1.409 . S
C102 C98 1.387 . S
C102 C101 1.409 . S
C102 H104 0.951 . S
C103 C98 1.491 . S
C103 C105 1.382 . S
C103 C107 1.404 . S
H104 C102 0.951 . S
C105 C103 1.382 . S
C105 C106 1.390 . S
C105 H110 0.949 . S
C106 C105 1.390 . S
C106 C111 1.399 . S
C107 C103 1.404 . S
C107 H108 0.950 . S
C107 C109 1.375 . S
H108 C107 0.950 . S
C109 C107 1.375 . S
C109 C111 1.382 . S
C109 H113 0.950 . S
H110 C105 0.949 . S
C111 C106 1.399 . S
C111 C109 1.382 . S
C111 H112 0.952 . S
H112 C111 0.952 . S
H113 C109 0.950 . S
H114 C115 0.949 . S
C115 H114 0.949 . S
C115 C116 1.395 . S
C115 C117 1.391 . S
C116 C115 1.395 . S
C116 C119 1.390 . S
C117 C115 1.391 . S
C117 C121 1.387 . S
C117 C122 1.491 . S
H118 C119 0.950 . S
C119 C116 1.390 . S
C119 H118 0.950 . S
C119 C120 1.378 . S
C120 C119 1.378 . S
C120 C121 1.409 . S
C121 C117 1.387 . S
C121 C120 1.409 . S
C121 H123 0.951 . S
C122 C117 1.491 . S
C122 C124 1.382 . S
C122 C126 1.404 . S
H123 C121 0.951 . S
C124 C122 1.382 . S
C124 C125 1.390 . S
C124 H129 0.949 . S
C125 C124 1.390 . S
C125 C130 1.399 . S
C126 C122 1.404 . S
C126 H127 0.950 . S
C126 C128 1.375 . S
H127 C126 0.950 . S
C128 C126 1.375 . S
C128 C130 1.382 . S
C128 H132 0.950 . S
H129 C124 0.949 . S
C130 C125 1.399 . S
C130 C128 1.382 . S
C130 H131 0.952 . S
H131 C130 0.952 . S
H132 C128 0.950 . S
H133 C134 0.949 . S
C134 H133 0.949 . S
C134 C135 1.395 . S
C134 C136 1.391 . S
C135 C134 1.395 . S
C135 C138 1.390 . S
C136 C134 1.391 . S
C136 C140 1.387 . S
C136 C141 1.491 . S
H137 C138 0.950 . S
C138 C135 1.390 . S
C138 H137 0.950 . S
C138 C139 1.378 . S
C139 C138 1.378 . S
C139 C140 1.409 . S
C140 C136 1.387 . S
C140 C139 1.409 . S
C140 H142 0.951 . S
C141 C136 1.491 . S
C141 C143 1.382 . S
C141 C145 1.404 . S
H142 C140 0.951 . S
C143 C141 1.382 . S
C143 C144 1.390 . S
C143 H148 0.949 . S
C144 C143 1.390 . S
C144 C149 1.399 . S
C145 C141 1.404 . S
C145 H146 0.950 . S
C145 C147 1.375 . S
H146 C145 0.950 . S
C147 C145 1.375 . S
C147 C149 1.382 . S
C147 H151 0.950 . S
H148 C143 0.949 . S
C149 C144 1.399 . S
C149 C147 1.382 . S
C149 H150 0.952 . S
H150 C149 0.952 . S
H151 C147 0.950 . S
Tb152 C161 2.764 . S
Tb152 O162 2.325 . S
Tb152 O165 2.303 . S
Tb152 O169 2.322 . S
Tb152 O170 2.349 1_545 S
Tb152 O173 2.415 . S
Tb152 O174 2.399 . S
Tb153 O163 2.322 . S
Tb153 O164 2.349 1_655 S
Tb153 O166 2.415 1_545 S
Tb153 O167 2.399 . S
Tb153 O168 2.325 1_655 S
Tb153 O171 2.313 . S
Tb153 C182 2.764 1_545 S
C154 O170 1.261 1_655 S
C154 O171 1.246 1_565 S
C155 C158 1.358 . S
C155 C159 1.332 . S
C155 C161 1.504 . S
C156 C157 1.373 . S
C156 C160 1.308 . S
C157 C156 1.373 . S
C157 C158 1.429 . S
C157 H184 0.932 . S
C158 C155 1.358 . S
C158 C157 1.429 . S
C158 H185 0.930 . S
C159 C155 1.332 . S
C159 C160 1.394 . S
C159 H186 0.932 . S
C160 C156 1.308 . S
C160 C159 1.394 . S
C160 H187 0.929 . S
C161 Tb152 2.764 . S
C161 C155 1.504 . S
C161 O173 1.239 . S
C161 O174 1.263 . S
O162 Tb152 2.325 . S
O162 C172 1.236 1_455 S
O163 Tb153 2.322 . S
O163 C172 1.257 . S
O164 Tb153 2.349 1_455 S
O164 C175 1.261 . S
O165 Tb152 2.303 . S
O165 C175 1.257 . S
O166 Tb153 2.415 1_565 S
O166 C182 1.239 . S
O167 Tb153 2.399 . S
O167 C182 1.263 1_545 S
O168 Tb153 2.325 1_455 S
O168 C183 1.236 1_545 S
O169 Tb152 2.322 . S
O169 C183 1.257 1_545 S
O170 Tb152 2.349 1_565 S
O170 C154 1.261 1_455 S
O171 Tb153 2.313 . S
O171 C154 1.246 1_545 S
C172 O162 1.236 1_655 S
C172 O163 1.257 . S
O173 Tb152 2.415 . S
O173 C161 1.239 . S
O174 Tb152 2.399 . S
O174 C161 1.263 . S
C175 O164 1.261 . S
C175 O165 1.257 . S
C176 C179 1.358 . S
C176 C180 1.332 . S
C176 C182 1.504 . S
C177 C178 1.373 . S
C177 C181 1.308 . S
C178 C177 1.373 . S
C178 C179 1.429 . S
C178 H188 0.932 . S
C179 C176 1.358 . S
C179 C178 1.429 . S
C179 H189 0.907 1_565 S
C180 C176 1.332 . S
C180 C181 1.394 . S
C180 H190 0.932 . S
C181 C177 1.308 . S
C181 C180 1.394 . S
C181 H191 0.929 . S
C182 Tb153 2.764 1_565 S
C182 O166 1.239 . S
C182 O167 1.263 1_565 S
C182 C176 1.504 . S
C183 O168 1.236 1_565 S
C183 O169 1.257 1_565 S
H184 C157 0.932 . S
H185 C158 0.930 . S
H186 C159 0.932 . S
H187 C160 0.929 . S
H188 C178 0.932 . S
H189 C179 0.907 1_545 S
H190 C180 0.932 . S
H191 C181 0.929 . S
Tb192 C201 2.764 . S
Tb192 O202 2.325 . S
Tb192 O205 2.303 . S
Tb192 O209 2.322 1_545 S
Tb192 O210 2.349 . S
Tb192 O213 2.415 . S
Tb192 O214 2.399 . S
Tb193 O203 2.322 . S
Tb193 O204 2.349 . S
Tb193 O206 2.415 1_545 S
Tb193 O207 2.399 1_545 S
Tb193 O208 2.325 1_545 S
Tb193 O211 2.303 . S
Tb193 C222 2.764 1_545 S
C194 O210 1.259 1_565 S
C194 O211 1.242 1_565 S
C195 C198 1.358 . S
C195 C199 1.332 . S
C195 C201 1.504 . S
C196 C197 1.373 . S
C196 C200 1.308 . S
C197 C196 1.373 . S
C197 C198 1.429 . S
C197 H224 0.932 . S
C198 C195 1.358 . S
C198 C197 1.429 . S
C198 H225 0.930 . S
C199 C195 1.332 . S
C199 C200 1.394 . S
C199 H226 0.932 . S
C200 C196 1.308 . S
C200 C199 1.394 . S
C200 H227 0.929 . S
C201 Tb192 2.764 . S
C201 C195 1.504 . S
C201 O213 1.239 . S
C201 O214 1.263 . S
O202 Tb192 2.325 . S
O202 C212 1.236 . S
O203 Tb193 2.322 . S
O203 C212 1.257 . S
O204 Tb193 2.349 . S
O204 C215 1.261 . S
O205 Tb192 2.303 . S
O205 C215 1.257 . S
O206 Tb193 2.415 1_565 S
O206 C222 1.239 . S
O207 Tb193 2.399 1_565 S
O207 C222 1.263 . S
O208 Tb193 2.325 1_565 S
O208 C223 1.236 . S
O209 Tb192 2.322 1_565 S
O209 C223 1.257 . S
O210 Tb192 2.349 . S
O210 C194 1.259 1_545 S
O211 Tb193 2.303 . S
O211 C194 1.242 1_545 S
C212 O202 1.236 . S
C212 O203 1.257 . S
O213 Tb192 2.415 . S
O213 C201 1.239 . S
O214 Tb192 2.399 . S
O214 C201 1.263 . S
C215 O204 1.261 . S
C215 O205 1.257 . S
C216 C219 1.358 . S
C216 C220 1.332 . S
C216 C222 1.504 1_556 S
C217 C218 1.373 . S
C217 C221 1.308 . S
C218 C217 1.373 . S
C218 C219 1.429 . S
C218 H228 0.932 . S
C219 C216 1.358 . S
C219 C218 1.429 . S
C219 H229 0.930 . S
C220 C216 1.332 . S
C220 C221 1.394 . S
C220 H230 0.932 . S
C221 C217 1.308 . S
C221 C220 1.394 . S
C221 H231 0.929 . S
C222 Tb193 2.764 1_565 S
C222 O206 1.239 . S
C222 O207 1.263 . S
C222 C216 1.504 1_554 S
C223 O208 1.236 . S
C223 O209 1.257 . S
H224 C197 0.932 . S
H225 C198 0.930 . S
H226 C199 0.932 . S
H227 C200 0.929 . S
H228 C218 0.932 . S
H229 C219 0.930 . S
H230 C220 0.932 . S
H231 C221 0.929 . S
Tb232 C241 2.764 . S
Tb232 O242 2.325 . S
Tb232 O245 2.303 . S
Tb232 O249 2.322 . S
Tb232 O250 2.349 . S
Tb232 O253 2.415 . S
Tb232 O254 2.399 . S
Tb233 O243 2.322 . S
Tb233 O244 2.349 . S
Tb233 O246 2.415 . S
Tb233 O247 2.399 . S
Tb233 O248 2.325 . S
Tb233 O251 2.303 . S
Tb233 C262 2.764 . S
C234 O250 1.261 . S
C234 O251 1.257 . S
C235 C238 1.358 . S
C235 C239 1.332 . S
C235 C241 1.504 . S
C236 C237 1.373 . S
C236 C240 1.308 . S
C237 C236 1.373 . S
C237 C238 1.429 . S
C237 H264 0.932 . S
C238 C235 1.358 . S
C238 C237 1.429 . S
C238 H265 0.930 . S
C239 C235 1.332 . S
C239 C240 1.394 . S
C239 H266 0.932 . S
C240 C236 1.308 . S
C240 C239 1.394 . S
C240 H267 0.929 . S
C241 Tb232 2.764 . S
C241 C235 1.504 . S
C241 O253 1.239 . S
C241 O254 1.263 . S
O242 Tb232 2.325 . S
O242 C252 1.236 . S
O243 Tb233 2.322 . S
O243 C252 1.257 . S
O244 Tb233 2.349 . S
O244 C255 1.261 . S
O245 Tb232 2.303 . S
O245 C255 1.257 . S
O246 Tb233 2.415 . S
O246 C262 1.239 . S
O247 Tb233 2.399 . S
O247 C262 1.263 . S
O248 Tb233 2.325 . S
O248 C263 1.236 . S
O249 Tb232 2.322 . S
O249 C263 1.257 . S
O250 Tb232 2.349 . S
O250 C234 1.261 . S
O251 Tb233 2.303 . S
O251 C234 1.257 . S
C252 O242 1.236 . S
C252 O243 1.257 . S
O253 Tb232 2.415 . S
O253 C241 1.239 . S
O254 Tb232 2.399 . S
O254 C241 1.263 . S
C255 O244 1.261 . S
C255 O245 1.257 . S
C256 C259 1.358 . S
C256 C260 1.332 . S
C256 C262 1.504 . S
C257 C258 1.373 . S
C257 C261 1.308 . S
C258 C257 1.373 . S
C258 C259 1.429 . S
C258 H268 0.932 . S
C259 C256 1.358 . S
C259 C258 1.429 . S
C259 H269 0.930 . S
C260 C256 1.332 . S
C260 C261 1.394 . S
C260 H270 0.932 . S
C261 C257 1.308 . S
C261 C260 1.394 . S
C261 H271 0.929 . S
C262 Tb233 2.764 . S
C262 O246 1.239 . S
C262 O247 1.263 . S
C262 C256 1.504 . S
C263 O248 1.236 . S
C263 O249 1.257 . S
H264 C237 0.932 . S
H265 C238 0.930 . S
H266 C239 0.932 . S
H267 C240 0.929 . S
H268 C258 0.932 . S
H269 C259 0.930 . S
H270 C260 0.932 . S
H271 C261 0.929 . S
Tb272 C281 2.758 1_455 S
Tb272 O282 2.325 1_455 S
Tb272 O285 2.303 1_556 S
Tb272 O289 2.322 1_556 S
Tb272 O290 2.349 . S
Tb272 O293 2.415 1_455 S
Tb272 O294 2.399 . S
Tb273 O283 2.322 1_455 S
Tb273 O284 2.349 . S
Tb273 O286 2.415 . S
Tb273 O287 2.399 . S
Tb273 O288 2.325 . S
Tb273 O291 2.303 1_554 S
Tb273 C302 2.764 . S
C274 O290 1.261 . S
C274 O291 1.257 . S
C275 C278 1.358 . S
C275 C279 1.332 . S
C275 C281 1.510 . S
C276 C277 1.373 . S
C276 C280 1.308 . S
C277 C276 1.373 . S
C277 C278 1.429 . S
C277 H304 0.932 . S
C278 C275 1.358 . S
C278 C277 1.429 . S
C278 H305 0.930 1_655 S
C279 C275 1.332 . S
C279 C280 1.394 . S
C279 H306 0.932 . S
C280 C276 1.308 . S
C280 C279 1.394 . S
C280 H307 0.929 . S
C281 Tb272 2.758 1_655 S
C281 C275 1.510 . S
C281 O293 1.239 . S
C281 O294 1.257 1_655 S
O282 Tb272 2.325 1_655 S
O282 C292 1.236 . S
O283 Tb273 2.322 1_655 S
O283 C292 1.257 1_554 S
O284 Tb273 2.349 . S
O284 C295 1.261 . S
O285 Tb272 2.303 1_554 S
O285 C295 1.257 . S
O286 Tb273 2.415 . S
O286 C302 1.239 . S
O287 Tb273 2.399 . S
O287 C302 1.263 . S
O288 Tb273 2.325 . S
O288 C303 1.236 . S
O289 Tb272 2.322 1_554 S
O289 C303 1.257 . S
O290 Tb272 2.349 . S
O290 C274 1.261 . S
O291 Tb273 2.303 1_556 S
O291 C274 1.257 . S
C292 O282 1.236 . S
C292 O283 1.257 1_556 S
O293 Tb272 2.415 1_655 S
O293 C281 1.239 . S
O294 Tb272 2.399 . S
O294 C281 1.257 1_455 S
C295 O284 1.261 . S
C295 O285 1.257 . S
C296 C299 1.358 . S
C296 C300 1.332 . S
C296 C302 1.504 . S
C297 C298 1.373 . S
C297 C301 1.308 . S
C298 C297 1.373 . S
C298 C299 1.429 . S
C298 H308 0.932 . S
C299 C296 1.358 . S
C299 C298 1.429 . S
C299 H309 0.930 . S
C300 C296 1.332 . S
C300 C301 1.394 . S
C300 H310 0.932 . S
C301 C297 1.308 . S
C301 C300 1.394 . S
C301 H311 0.929 . S
C302 Tb273 2.764 . S
C302 O286 1.239 . S
C302 O287 1.263 . S
C302 C296 1.504 . S
C303 O288 1.236 . S
C303 O289 1.257 . S
H304 C277 0.932 . S
H305 C278 0.930 1_455 S
H306 C279 0.932 . S
H307 C280 0.929 . S
H308 C298 0.932 . S
H309 C299 0.930 . S
H310 C300 0.932 . S
H311 C301 0.929 . S
H312 C318 0.930 . S
H313 C321 0.930 . S
H314 C322 0.930 . S
H315 C323 0.930 . S
H316 C326 0.930 . S
H317 C327 0.930 . S
C318 H312 0.930 . S
C318 C319 1.355 . S
C318 C320 1.415 . S
C319 C318 1.355 . S
C319 C321 1.419 . S
C320 C318 1.415 . S
C320 C325 1.425 . S
C320 C327 1.409 . S
C321 H313 0.930 . S
C321 C319 1.419 . S
C321 C322 1.362 . S
C322 H314 0.930 . S
C322 C321 1.362 . S
C322 C325 1.409 . S
C323 H315 0.930 . S
C323 C324 1.355 . S
C323 C325 1.415 . S
C324 C323 1.355 . S
C324 C326 1.419 . S
C325 C320 1.425 . S
C325 C322 1.409 . S
C325 C323 1.415 . S
C326 H316 0.930 . S
C326 C324 1.419 . S
C326 C327 1.362 . S
C327 H317 0.930 . S
C327 C320 1.409 . S
C327 C326 1.362 . S
H328 C334 0.930 . S
H329 C337 0.930 . S
H330 C338 0.930 . S
H331 C339 0.930 . S
H332 C342 0.930 . S
H333 C343 0.930 . S
C334 H328 0.930 . S
C334 C335 1.355 . S
C334 C336 1.415 . S
C335 C334 1.355 . S
C335 C337 1.419 . S
C336 C334 1.415 . S
C336 C341 1.425 . S
C336 C343 1.409 . S
C337 H329 0.930 . S
C337 C335 1.419 . S
C337 C338 1.362 . S
C338 H330 0.930 . S
C338 C337 1.362 . S
C338 C341 1.409 . S
C339 H331 0.930 . S
C339 C340 1.355 . S
C339 C341 1.415 . S
C340 C339 1.355 . S
C340 C342 1.419 . S
C341 C336 1.425 . S
C341 C338 1.409 . S
C341 C339 1.415 . S
C342 H332 0.930 . S
C342 C340 1.419 . S
C342 C343 1.362 . S
C343 H333 0.930 . S
C343 C336 1.409 . S
C343 C342 1.362 . S
H344 C350 0.930 . S
H345 C353 0.930 . S
H346 C354 0.930 . S
H347 C355 0.930 . S
H348 C358 0.930 . S
H349 C359 0.930 . S
C350 H344 0.930 . S
C350 C351 1.355 . S
C350 C352 1.415 . S
C351 C350 1.355 . S
C351 C353 1.419 . S
C352 C350 1.415 . S
C352 C357 1.425 . S
C352 C359 1.409 . S
C353 H345 0.930 . S
C353 C351 1.419 . S
C353 C354 1.362 . S
C354 H346 0.930 . S
C354 C353 1.362 . S
C354 C357 1.409 . S
C355 H347 0.930 . S
C355 C356 1.355 . S
C355 C357 1.415 . S
C356 C355 1.355 . S
C356 C358 1.419 . S
C357 C352 1.425 . S
C357 C354 1.409 . S
C357 C355 1.415 . S
C358 H348 0.930 . S
C358 C356 1.419 . S
C358 C359 1.362 . S
C359 H349 0.930 . S
C359 C352 1.409 . S
C359 C358 1.362 . S
H360 C366 0.930 . S
H361 C369 0.930 . S
H362 C370 0.930 . S
H363 C371 0.930 . S
H364 C374 0.930 . S
H365 C375 0.930 . S
C366 H360 0.930 . S
C366 C367 1.355 . S
C366 C368 1.415 . S
C367 C366 1.355 . S
C367 C369 1.419 . S
C368 C366 1.415 . S
C368 C373 1.425 . S
C368 C375 1.409 . S
C369 H361 0.930 . S
C369 C367 1.419 . S
C369 C370 1.362 . S
C370 H362 0.930 . S
C370 C369 1.362 . S
C370 C373 1.409 . S
C371 H363 0.930 . S
C371 C372 1.355 . S
C371 C373 1.415 . S
C372 C371 1.355 . S
C372 C374 1.419 . S
C373 C368 1.425 . S
C373 C370 1.409 . S
C373 C371 1.415 . S
C374 H364 0.930 . S
C374 C372 1.419 . S
C374 C375 1.362 . S
C375 H365 0.930 . S
C375 C368 1.409 . S
C375 C374 1.362 . S
H376 C382 0.930 . S
H377 C385 0.930 . S
H378 C386 0.930 . S
H379 C387 0.930 . S
H380 C390 0.930 . S
H381 C391 0.930 . S
C382 H376 0.930 . S
C382 C383 1.355 . S
C382 C384 1.415 . S
C383 C382 1.355 . S
C383 C385 1.419 . S
C384 C382 1.415 . S
C384 C389 1.425 . S
C384 C391 1.409 . S
C385 H377 0.930 . S
C385 C383 1.419 . S
C385 C386 1.362 . S
C386 H378 0.930 . S
C386 C385 1.362 . S
C386 C389 1.409 . S
C387 H379 0.930 . S
C387 C388 1.355 . S
C387 C389 1.415 . S
C388 C387 1.355 . S
C388 C390 1.419 . S
C389 C384 1.425 . S
C389 C386 1.409 . S
C389 C387 1.415 . S
C390 H380 0.930 . S
C390 C388 1.419 . S
C390 C391 1.362 . S
C391 H381 0.930 . S
C391 C384 1.409 . S
C391 C390 1.362 . S
H392 C398 0.930 1_655 S
H393 C401 0.930 . S
H394 C402 0.930 . S
H395 C403 0.930 . S
H396 C406 0.908 1_655 S
H397 C407 0.930 . S
C398 H392 0.930 1_455 S
C398 C399 1.355 . S
C398 C400 1.415 . S
C399 C398 1.355 . S
C399 C401 1.419 . S
C400 C398 1.415 . S
C400 C405 1.425 . S
C400 C407 1.409 1_455 S
C401 H393 0.930 . S
C401 C399 1.419 . S
C401 C402 1.362 . S
C402 H394 0.930 . S
C402 C401 1.362 . S
C402 C405 1.409 . S
C403 H395 0.930 . S
C403 C404 1.355 . S
C403 C405 1.415 . S
C404 C403 1.355 . S
C404 C406 1.441 . S
C405 C400 1.425 . S
C405 C402 1.409 . S
C405 C403 1.415 . S
C406 H396 0.908 1_455 S
C406 C404 1.441 . S
C406 C407 1.363 1_455 S
C407 H397 0.930 . S
C407 C400 1.409 1_655 S
C407 C406 1.363 1_655 S
H408 C414 0.930 . S
H409 C417 0.930 . S
H410 C418 0.930 1_554 S
H411 C419 0.930 1_554 S
H412 C422 0.930 . S
H413 C423 0.930 . S
C414 H408 0.930 . S
C414 C415 1.355 . S
C414 C416 1.415 . S
C415 C414 1.355 . S
C415 C417 1.419 . S
C416 C414 1.415 . S
C416 C421 1.425 . S
C416 C423 1.409 . S
C417 H409 0.930 . S
C417 C415 1.419 . S
C417 C418 1.362 . S
C418 H410 0.930 1_556 S
C418 C417 1.362 . S
C418 C421 1.409 . S
C419 H411 0.930 1_556 S
C419 C420 1.355 . S
C419 C421 1.415 . S
C420 C419 1.355 . S
C420 C422 1.419 . S
C421 C416 1.425 . S
C421 C418 1.409 . S
C421 C419 1.415 . S
C422 H412 0.930 . S
C422 C420 1.419 . S
C422 C423 1.362 . S
C423 H413 0.930 . S
C423 C416 1.409 . S
C423 C422 1.362 . S
H424 C430 0.930 . S
H425 C433 0.930 . S
H426 C434 0.930 . S
H427 C435 0.930 . S
H428 C438 0.930 . S
H429 C439 0.930 . S
C430 H424 0.930 . S
C430 C431 1.355 . S
C430 C432 1.415 . S
C431 C430 1.355 . S
C431 C433 1.419 . S
C432 C430 1.415 . S
C432 C437 1.425 . S
C432 C439 1.409 . S
C433 H425 0.930 . S
C433 C431 1.419 . S
C433 C434 1.362 . S
C434 H426 0.930 . S
C434 C433 1.362 . S
C434 C437 1.409 . S
C435 H427 0.930 . S
C435 C436 1.355 . S
C435 C437 1.415 . S
C436 C435 1.355 . S
C436 C438 1.419 . S
C437 C432 1.425 . S
C437 C434 1.409 . S
C437 C435 1.415 . S
C438 H428 0.930 . S
C438 C436 1.419 . S
C438 C439 1.362 . S
C439 H429 0.930 . S
C439 C432 1.409 . S
C439 C438 1.362 . S
H440 C446 0.930 . S
H441 C449 0.930 . S
H442 C450 0.930 . S
H443 C451 0.930 . S
H444 C454 0.930 . S
H445 C455 0.930 . S
C446 H440 0.930 . S
C446 C447 1.355 . S
C446 C448 1.415 . S
C447 C446 1.355 . S
C447 C449 1.419 . S
C448 C446 1.415 . S
C448 C453 1.425 . S
C448 C455 1.409 . S
C449 H441 0.930 . S
C449 C447 1.419 . S
C449 C450 1.362 . S
C450 H442 0.930 . S
C450 C449 1.362 . S
C450 C453 1.409 . S
C451 H443 0.930 . S
C451 C452 1.355 . S
C451 C453 1.415 . S
C452 C451 1.355 . S
C452 C454 1.419 . S
C453 C448 1.425 . S
C453 C450 1.409 . S
C453 C451 1.415 . S
C454 H444 0.930 . S
C454 C452 1.419 . S
C454 C455 1.362 . S
C455 H445 0.930 . S
C455 C448 1.409 . S
C455 C454 1.362 . S
H456 C462 0.930 . S
H457 C465 0.930 . S
H458 C466 0.930 . S
H459 C467 0.930 . S
H460 C470 0.930 . S
H461 C471 0.930 . S
C462 H456 0.930 . S
C462 C463 1.355 1_554 S
C462 C464 1.415 . S
C463 C462 1.355 1_556 S
C463 C465 1.419 . S
C464 C462 1.415 . S
C464 C469 1.425 1_554 S
C464 C471 1.409 . S
C465 H457 0.930 . S
C465 C463 1.419 . S
C465 C466 1.362 . S
C466 H458 0.930 . S
C466 C465 1.362 . S
C466 C469 1.409 . S
C467 H459 0.930 . S
C467 C468 1.355 1_556 S
C467 C469 1.415 . S
C468 C467 1.355 1_554 S
C468 C470 1.419 . S
C469 C464 1.425 1_556 S
C469 C466 1.409 . S
C469 C467 1.415 . S
C470 H460 0.930 . S
C470 C468 1.419 . S
C470 C471 1.362 . S
C471 H461 0.930 . S
C471 C464 1.409 . S
C471 C470 1.362 . S
H472 C478 0.930 . S
H473 C481 0.930 . S
H474 C482 0.911 1_455 S
H475 C483 0.930 1_455 S
H476 C486 0.930 . S
H477 C487 0.930 . S
C478 H472 0.930 . S
C478 C479 1.355 . S
C478 C480 1.415 . S
C479 C478 1.355 . S
C479 C481 1.419 . S
C480 C478 1.415 . S
C480 C485 1.425 . S
C480 C487 1.409 . S
C481 H473 0.930 . S
C481 C479 1.419 . S
C481 C482 1.362 . S
C482 H474 0.911 1_655 S
C482 C481 1.362 . S
C482 C485 1.409 . S
C483 H475 0.930 1_655 S
C483 C484 1.355 . S
C483 C485 1.415 . S
C484 C483 1.355 . S
C484 C486 1.419 . S
C485 C480 1.425 . S
C485 C482 1.409 . S
C485 C483 1.415 . S
C486 H476 0.930 . S
C486 C484 1.419 . S
C486 C487 1.362 . S
C487 H477 0.930 . S
C487 C480 1.409 . S
C487 C486 1.362 . S
H488 C494 0.930 . S
H489 C497 0.930 . S
H490 C498 0.930 . S
H491 C499 0.930 . S
H492 C502 0.930 . S
H493 C503 0.930 . S
C494 H488 0.930 . S
C494 C495 1.355 . S
C494 C496 1.415 . S
C495 C494 1.355 . S
C495 C497 1.419 . S
C496 C494 1.415 . S
C496 C501 1.425 . S
C496 C503 1.409 . S
C497 H489 0.930 . S
C497 C495 1.419 . S
C497 C498 1.362 . S
C498 H490 0.930 . S
C498 C497 1.362 . S
C498 C501 1.409 . S
C499 H491 0.930 . S
C499 C500 1.355 . S
C499 C501 1.415 . S
C500 C499 1.355 . S
C500 C502 1.419 . S
C501 C496 1.425 . S
C501 C498 1.409 . S
C501 C499 1.415 . S
C502 H492 0.930 . S
C502 C500 1.419 . S
C502 C503 1.362 . S
C503 H493 0.930 . S
C503 C496 1.409 . S
C503 C502 1.362 . S
H504 C510 0.930 . S
H505 C513 0.930 . S
H506 C514 0.930 . S
H507 C515 0.930 . S
H508 C518 0.930 . S
H509 C519 0.930 . S
C510 H504 0.930 . S
C510 C511 1.355 . S
C510 C512 1.415 . S
C511 C510 1.355 . S
C511 C513 1.419 . S
C512 C510 1.415 . S
C512 C517 1.425 . S
C512 C519 1.409 . S
C513 H505 0.930 . S
C513 C511 1.419 . S
C513 C514 1.362 . S
C514 H506 0.930 . S
C514 C513 1.362 . S
C514 C517 1.409 . S
C515 H507 0.930 . S
C515 C516 1.355 . S
C515 C517 1.415 . S
C516 C515 1.355 . S
C516 C518 1.419 . S
C517 C512 1.425 . S
C517 C514 1.409 . S
C517 C515 1.415 . S
C518 H508 0.930 . S
C518 C516 1.419 . S
C518 C519 1.362 . S
C519 H509 0.930 . S
C519 C512 1.409 . S
C519 C518 1.362 . S
H520 C526 0.930 . S
H521 C529 0.930 . S
H522 C530 0.930 . S
H523 C531 0.930 . S
H524 C534 0.930 . S
H525 C535 0.930 . S
C526 H520 0.930 . S
C526 C527 1.355 . S
C526 C528 1.415 . S
C527 C526 1.355 . S
C527 C529 1.419 . S
C528 C526 1.415 . S
C528 C533 1.425 . S
C528 C535 1.409 . S
C529 H521 0.930 . S
C529 C527 1.419 . S
C529 C530 1.362 . S
C530 H522 0.930 . S
C530 C529 1.362 . S
C530 C533 1.409 . S
C531 H523 0.930 . S
C531 C532 1.355 . S
C531 C533 1.415 . S
C532 C531 1.355 . S
C532 C534 1.419 . S
C533 C528 1.425 . S
C533 C530 1.409 . S
C533 C531 1.415 . S
C534 H524 0.930 . S
C534 C532 1.419 . S
C534 C535 1.362 . S
C535 H525 0.930 . S
C535 C528 1.409 . S
C535 C534 1.362 . S
H536 C542 0.930 . S
H537 C545 0.930 . S
H538 C546 0.930 . S
H539 C547 0.930 . S
H540 C550 0.930 . S
H541 C551 0.930 . S
C542 H536 0.930 . S
C542 C543 1.355 . S
C542 C544 1.415 . S
C543 C542 1.355 . S
C543 C545 1.419 . S
C544 C542 1.415 . S
C544 C549 1.425 . S
C544 C551 1.409 . S
C545 H537 0.930 . S
C545 C543 1.419 . S
C545 C546 1.362 . S
C546 H538 0.930 . S
C546 C545 1.362 . S
C546 C549 1.409 . S
C547 H539 0.930 . S
C547 C548 1.355 . S
C547 C549 1.415 . S
C548 C547 1.355 . S
C548 C550 1.419 . S
C549 C544 1.425 . S
C549 C546 1.409 . S
C549 C547 1.415 . S
C550 H540 0.930 . S
C550 C548 1.419 . S
C550 C551 1.362 . S
C551 H541 0.930 . S
C551 C544 1.409 . S
C551 C550 1.362 . S
H552 C558 0.930 . S
H553 C561 0.930 . S
H554 C562 0.930 . S
H555 C563 0.930 . S
H556 C566 0.930 . S
H557 C567 0.930 . S
C558 H552 0.930 . S
C558 C559 1.355 . S
C558 C560 1.415 . S
C559 C558 1.355 . S
C559 C561 1.419 . S
C560 C558 1.415 . S
C560 C565 1.425 . S
C560 C567 1.409 . S
C561 H553 0.930 . S
C561 C559 1.419 . S
C561 C562 1.362 . S
C562 H554 0.930 . S
C562 C561 1.362 . S
C562 C565 1.409 . S
C563 H555 0.930 . S
C563 C564 1.355 . S
C563 C565 1.415 . S
C564 C563 1.355 . S
C564 C566 1.419 . S
C565 C560 1.425 . S
C565 C562 1.409 . S
C565 C563 1.415 . S
C566 H556 0.930 . S
C566 C564 1.419 . S
C566 C567 1.362 . S
C567 H557 0.930 . S
C567 C560 1.409 . S
C567 C566 1.362 . S
H568 C574 0.930 . S
H569 C577 0.930 . S
H570 C578 0.930 . S
H571 C579 0.930 . S
H572 C582 0.930 1_545 S
H573 C583 0.930 . S
C574 H568 0.930 . S
C574 C575 1.355 . S
C574 C576 1.415 . S
C575 C574 1.355 . S
C575 C577 1.419 1_556 S
C576 C574 1.415 . S
C576 C581 1.425 1_556 S
C576 C583 1.409 . S
C577 H569 0.930 . S
C577 C575 1.419 1_554 S
C577 C578 1.362 . S
C578 H570 0.930 . S
C578 C577 1.362 . S
C578 C581 1.409 . S
C579 H571 0.930 . S
C579 C580 1.355 . S
C579 C581 1.415 . S
C580 C579 1.355 . S
C580 C582 1.419 1_554 S
C581 C576 1.425 1_554 S
C581 C578 1.409 . S
C581 C579 1.415 . S
C582 H572 0.930 1_565 S
C582 C580 1.419 1_556 S
C582 C583 1.362 . S
C583 H573 0.930 . S
C583 C576 1.409 . S
C583 C582 1.362 . S
H584 C590 0.930 . S
H585 C593 0.930 . S
H586 C594 0.930 . S
H587 C595 0.930 . S
H588 C598 0.930 . S
H589 C599 0.930 . S
C590 H584 0.930 . S
C590 C591 1.355 . S
C590 C592 1.415 . S
C591 C590 1.355 . S
C591 C593 1.419 . S
C592 C590 1.415 . S
C592 C597 1.425 . S
C592 C599 1.409 1_655 S
C593 H585 0.930 . S
C593 C591 1.419 . S
C593 C594 1.362 . S
C594 H586 0.930 . S
C594 C593 1.362 . S
C594 C597 1.409 . S
C595 H587 0.930 . S
C595 C596 1.355 . S
C595 C597 1.415 . S
C596 C595 1.355 . S
C596 C598 1.419 1_655 S
C597 C592 1.425 . S
C597 C594 1.409 . S
C597 C595 1.415 . S
C598 H588 0.930 . S
C598 C596 1.419 1_455 S
C598 C599 1.362 . S
C599 H589 0.930 . S
C599 C592 1.409 1_455 S
C599 C598 1.362 . S
H600 C606 0.930 . S
H601 C609 0.930 . S
H602 C610 0.930 . S
H603 C611 0.930 . S
H604 C614 0.930 . S
H605 C615 0.930 . S
C606 H600 0.930 . S
C606 C607 1.355 . S
C606 C608 1.415 . S
C607 C606 1.355 . S
C607 C609 1.419 . S
C608 C606 1.415 . S
C608 C613 1.425 . S
C608 C615 1.409 . S
C609 H601 0.930 . S
C609 C607 1.419 . S
C609 C610 1.362 . S
C610 H602 0.930 . S
C610 C609 1.362 . S
C610 C613 1.409 . S
C611 H603 0.930 . S
C611 C612 1.355 . S
C611 C613 1.415 . S
C612 C611 1.355 . S
C612 C614 1.419 . S
C613 C608 1.425 . S
C613 C610 1.409 . S
C613 C611 1.415 . S
C614 H604 0.930 . S
C614 C612 1.419 . S
C614 C615 1.362 . S
C615 H605 0.930 . S
C615 C608 1.409 . S
C615 C614 1.362 . S
H616 C622 0.930 . S
H617 C625 0.930 . S
H618 C626 0.930 . S
H619 C627 0.930 . S
H620 C630 0.930 . S
H621 C631 0.930 . S
C622 H616 0.930 . S
C622 C623 1.355 . S
C622 C624 1.415 . S
C623 C622 1.355 . S
C623 C625 1.419 . S
C624 C622 1.415 . S
C624 C629 1.425 . S
C624 C631 1.409 . S
C625 H617 0.930 . S
C625 C623 1.419 . S
C625 C626 1.362 . S
C626 H618 0.930 . S
C626 C625 1.362 . S
C626 C629 1.409 . S
C627 H619 0.930 . S
C627 C628 1.355 . S
C627 C629 1.415 . S
C628 C627 1.355 . S
C628 C630 1.419 . S
C629 C624 1.425 . S
C629 C626 1.409 . S
C629 C627 1.415 . S
C630 H620 0.930 . S
C630 C628 1.419 . S
C630 C631 1.362 . S
C631 H621 0.930 . S
C631 C624 1.409 . S
C631 C630 1.362 . S
H632 C638 0.930 . S
H633 C641 0.930 . S
H634 C642 0.930 . S
H635 C643 0.930 . S
H636 C646 0.930 . S
H637 C647 0.930 . S
C638 H632 0.930 . S
C638 C639 1.355 . S
C638 C640 1.415 . S
C639 C638 1.355 . S
C639 C641 1.419 . S
C640 C638 1.415 . S
C640 C645 1.425 . S
C640 C647 1.409 . S
C641 H633 0.930 . S
C641 C639 1.419 . S
C641 C642 1.362 . S
C642 H634 0.930 . S
C642 C641 1.362 . S
C642 C645 1.409 . S
C643 H635 0.930 . S
C643 C644 1.355 . S
C643 C645 1.415 . S
C644 C643 1.355 . S
C644 C646 1.419 . S
C645 C640 1.425 . S
C645 C642 1.409 . S
C645 C643 1.415 . S
C646 H636 0.930 . S
C646 C644 1.419 . S
C646 C647 1.362 . S
C647 H637 0.930 . S
C647 C640 1.409 . S
C647 C646 1.362 . S
H648 C654 0.930 . S
H649 C657 0.930 . S
H650 C658 0.930 . S
H651 C659 0.930 . S
H652 C662 0.930 . S
H653 C663 0.930 . S
C654 H648 0.930 . S
C654 C655 1.355 . S
C654 C656 1.415 . S
C655 C654 1.355 . S
C655 C657 1.419 . S
C656 C654 1.415 . S
C656 C661 1.425 . S
C656 C663 1.409 . S
C657 H649 0.930 . S
C657 C655 1.419 . S
C657 C658 1.362 . S
C658 H650 0.930 . S
C658 C657 1.362 . S
C658 C661 1.409 . S
C659 H651 0.930 . S
C659 C660 1.355 . S
C659 C661 1.415 . S
C660 C659 1.355 . S
C660 C662 1.419 . S
C661 C656 1.425 . S
C661 C658 1.409 . S
C661 C659 1.415 . S
C662 H652 0.930 . S
C662 C660 1.419 . S
C662 C663 1.362 . S
C663 H653 0.930 . S
C663 C656 1.409 . S
C663 C662 1.362 . S
H664 C670 0.930 . S
H665 C673 0.930 . S
H666 C674 0.930 . S
H667 C675 0.930 . S
H668 C678 0.930 . S
H669 C679 0.930 . S
C670 H664 0.930 . S
C670 C671 1.355 . S
C670 C672 1.415 . S
C671 C670 1.355 . S
C671 C673 1.419 . S
C672 C670 1.415 . S
C672 C677 1.425 . S
C672 C679 1.409 . S
C673 H665 0.930 . S
C673 C671 1.419 . S
C673 C674 1.362 . S
C674 H666 0.930 . S
C674 C673 1.362 . S
C674 C677 1.409 . S
C675 H667 0.930 . S
C675 C676 1.355 . S
C675 C677 1.415 . S
C676 C675 1.355 . S
C676 C678 1.419 . S
C677 C672 1.425 . S
C677 C674 1.409 . S
C677 C675 1.415 . S
C678 H668 0.930 . S
C678 C676 1.419 . S
C678 C679 1.362 . S
C679 H669 0.930 . S
C679 C672 1.409 . S
C679 C678 1.362 . S
H680 C686 0.930 . S
H681 C689 0.930 . S
H682 C690 0.930 . S
H683 C691 0.930 . S
H684 C694 0.930 . S
H685 C695 0.930 . S
C686 H680 0.930 . S
C686 C687 1.355 . S
C686 C688 1.415 . S
C687 C686 1.355 . S
C687 C689 1.419 . S
C688 C686 1.415 . S
C688 C693 1.425 . S
C688 C695 1.409 . S
C689 H681 0.930 . S
C689 C687 1.419 . S
C689 C690 1.362 . S
C690 H682 0.930 . S
C690 C689 1.362 . S
C690 C693 1.409 . S
C691 H683 0.930 . S
C691 C692 1.355 . S
C691 C693 1.415 . S
C692 C691 1.355 . S
C692 C694 1.419 . S
C693 C688 1.425 . S
C693 C690 1.409 . S
C693 C691 1.415 . S
C694 H684 0.930 . S
C694 C692 1.419 . S
C694 C695 1.362 . S
C695 H685 0.930 . S
C695 C688 1.409 . S
C695 C694 1.362 . S
C319 C6 1.091 . S
C324 C156 1.102 . S
C335 C21 1.483 . S
C340 C217 1.512 . S
C356 C255 2.024 . S
C351 C49 1.945 . S
C367 C68 2.119 . S
C372 C295 2.184 1_655 S
C388 C215 2.092 . S
C383 C2 2.028 . S
C404 C183 1.674 . S
C399 C30 1.615 . S
C420 C292 1.741 . S
C415 C40 1.765 . S
C436 C252 1.712 . S
C431 C63 1.757 . S
C447 C11 1.035 . S
C452 C297 1.141 . S
C468 C212 2.679 . S
C463 C44 2.673 . S
C479 C59 1.818 . S
C484 C154 1.805 . S
C495 C25 1.830 . S
C500 C257 1.834 . S
C516 C177 1.233 . S
C511 C82 1.233 . S
C527 C101 1.233 . S
C532 C196 1.237 . S
C543 C125 2.315 . S
C548 C234 2.367 . S
C559 C144 1.883 . S
C564 C274 1.904 . S
C575 C87 1.102 . S
C580 C194 1.146 . S
C596 C172 2.572 . S
C591 C97 2.445 . S
C612 C303 1.606 . S
C607 C120 1.641 . S
C628 C263 1.888 . S
C623 C135 1.902 . S
C639 C78 1.594 . S
C644 C276 1.662 . S
C660 C223 2.000 . S
C655 C116 1.984 . S
C676 C175 2.468 . S
C671 C139 2.496 . S
C687 C106 1.001 . S
C692 C236 1.373 . S
