# Generated by pormake.
# Topology anh, (6,3)-cn, num edge types: 1
# Building blocks:
#     Node 0, Type 0, BuildingBlock: VOLQOD_clean_sbu_1, # of connection points: 6
#     Node 1, Type 0, BuildingBlock: VOLQOD_clean_sbu_1, # of connection points: 6
#     Node 2, Type 0, BuildingBlock: VOLQOD_clean_sbu_1, # of connection points: 6
#     Node 3, Type 1, BuildingBlock: PAMTOO_clean_linker_0, # of connection points: 3
#     Node 4, Type 1, BuildingBlock: PAMTOO_clean_linker_0, # of connection points: 3
#     Node 5, Type 1, BuildingBlock: PAMTOO_clean_linker_0, # of connection points: 3
#     Node 6, Type 1, BuildingBlock: PAMTOO_clean_linker_0, # of connection points: 3
#     Node 7, Type 1, BuildingBlock: PAMTOO_clean_linker_0, # of connection points: 3
#     Node 8, Type 1, BuildingBlock: PAMTOO_clean_linker_0, # of connection points: 3
#     Edge 9, Type (0, 1), BuildingBlock: FUNLAD_clean_linker_0, # of connection points: 2
#     Edge 10, Type (0, 1), BuildingBlock: FUNLAD_clean_linker_0, # of connection points: 2
#     Edge 11, Type (0, 1), BuildingBlock: FUNLAD_clean_linker_0, # of connection points: 2
#     Edge 12, Type (0, 1), BuildingBlock: FUNLAD_clean_linker_0, # of connection points: 2
#     Edge 13, Type (0, 1), BuildingBlock: FUNLAD_clean_linker_0, # of connection points: 2
#     Edge 14, Type (0, 1), BuildingBlock: FUNLAD_clean_linker_0, # of connection points: 2
#     Edge 15, Type (0, 1), BuildingBlock: FUNLAD_clean_linker_0, # of connection points: 2
#     Edge 16, Type (0, 1), BuildingBlock: FUNLAD_clean_linker_0, # of connection points: 2
#     Edge 17, Type (0, 1), BuildingBlock: FUNLAD_clean_linker_0, # of connection points: 2
#     Edge 18, Type (0, 1), BuildingBlock: FUNLAD_clean_linker_0, # of connection points: 2
#     Edge 19, Type (0, 1), BuildingBlock: FUNLAD_clean_linker_0, # of connection points: 2
#     Edge 20, Type (0, 1), BuildingBlock: FUNLAD_clean_linker_0, # of connection points: 2
#     Edge 21, Type (0, 1), BuildingBlock: FUNLAD_clean_linker_0, # of connection points: 2
#     Edge 22, Type (0, 1), BuildingBlock: FUNLAD_clean_linker_0, # of connection points: 2
#     Edge 23, Type (0, 1), BuildingBlock: FUNLAD_clean_linker_0, # of connection points: 2
#     Edge 24, Type (0, 1), BuildingBlock: FUNLAD_clean_linker_0, # of connection points: 2
#     Edge 25, Type (0, 1), BuildingBlock: FUNLAD_clean_linker_0, # of connection points: 2
#     Edge 26, Type (0, 1), BuildingBlock: FUNLAD_clean_linker_0, # of connection points: 2
# Relax obj value: 0.158
# Max RMSD: 0.218
# Mean RMSD: 0.139
data_MOF--net-anh--node1-VOLQOD_clean_sbu_1--node2-PAMTOO_clean_linker_0--edge1-FUNLAD_clean_linker_0
_symmetry_space_group_name_H-M    P1
_symmetry_Int_Tables_number       1
_symmetry_cell_setting            triclinic
loop_
_symmetry_equiv_pos_as_xyz
'x, y, z'
_cell_length_a     34.099217
_cell_length_b     34.018146
_cell_length_c     65.538606
_cell_angle_alpha  84.894735
_cell_angle_beta   92.571896
_cell_angle_gamma 120.34276
loop_
_atom_site_label
_atom_site_type_symbol
_atom_site_fract_x
_atom_site_fract_y
_atom_site_fract_z
_atom_type_partial_charge
O0 O 0.0633 0.55159 0.21445 0.0
Zn1 Zn 0.06162 0.569 0.18434 0.0
O2 O 0.07489 0.53101 0.16837 0.0
Zn3 Zn 0.02425 0.49569 0.1505 0.0
Zn4 Zn 0.08634 0.48894 0.18645 0.0
Zn5 Zn 0.12789 0.57018 0.15154 0.0
O6 O 0.04169 0.51018 0.12068 0.0
O7 O 0.11203 0.56896 0.12171 0.0
O8 O -0.00029 0.56171 0.17717 0.0
O9 O 0.97513 0.50974 0.15428 0.0
O10 O -0.00478 0.4284 0.158 0.0
O11 O 0.03346 0.42441 0.18561 0.0
O12 O 0.14335 0.48967 0.1781 0.0
O13 O 0.11043 0.63573 0.18035 0.0
O14 O 0.17219 0.54808 0.15449 0.0
O15 O 0.15889 0.63482 0.15916 0.0
C16 C 0.07837 0.52823 0.2246 0.0
C17 C 0.07739 0.5419 0.11163 0.0
C18 C 0.00082 0.40534 0.17303 0.0
C19 C 0.96917 0.53571 0.16498 0.0
C20 C 0.17416 0.51592 0.16509 0.0
C21 C 0.14771 0.65624 0.1704 0.0
O22 O 0.09149 0.50499 0.21571 0.0
O23 O 0.5832 0.04632 0.45379 0.0
Zn24 Zn 0.57415 0.04588 0.48395 0.0
O25 O 0.62159 0.04126 0.50007 0.0
Zn26 Zn 0.65621 0.09552 0.51503 0.0
Zn27 Zn 0.66235 0.03598 0.48176 0.0
Zn28 Zn 0.59365 0.98806 0.5198 0.0
O29 O 0.65163 0.08048 0.54541 0.0
O30 O 0.6066 0.00522 0.54906 0.0
O31 O 0.57218 0.10219 0.48932 0.0
O32 O 0.63141 0.13756 0.50983 0.0
O33 O 0.72199 0.1295 0.50707 0.0
O34 O 0.72605 0.08976 0.48296 0.0
O35 O 0.66511 0.97867 0.48936 0.0
O36 O 0.51263 0.99162 0.49083 0.0
O37 O 0.61708 0.94626 0.51554 0.0
O38 O 0.52595 0.95163 0.51592 0.0
C39 C 0.60991 0.03949 0.44363 0.0
C40 C 0.63045 0.04353 0.55673 0.0
C41 C 0.74472 0.12363 0.494 0.0
C42 C 0.59771 0.13574 0.49987 0.0
C43 C 0.64473 0.94624 0.50315 0.0
C44 C 0.49859 0.95707 0.50377 0.0
O45 O 0.6409 0.03375 0.45247 0.0
O46 O 0.5651 0.49831 0.77747 0.0
Zn47 Zn 0.55309 0.47986 0.80758 0.0
O48 O 0.60646 0.51977 0.82369 0.0
Zn49 Zn 0.59197 0.55379 0.84117 0.0
Zn50 Zn 0.65642 0.56307 0.80526 0.0
Zn51 Zn 0.62419 0.48237 0.84138 0.0
O52 O 0.59898 0.54001 0.8711 0.0
O53 O 0.61877 0.48714 0.87157 0.0
O54 O 0.49816 0.48346 0.81493 0.0
O55 O 0.52758 0.53744 0.8369 0.0
O56 O 0.63008 0.62121 0.83463 0.0
O57 O 0.67341 0.6284 0.80868 0.0
O58 O 0.71201 0.55713 0.81054 0.0
O59 O 0.53863 0.41417 0.81146 0.0
O60 O 0.68848 0.50169 0.83561 0.0
O61 O 0.58789 0.41664 0.83532 0.0
C62 C 0.60056 0.52593 0.76706 0.0
C63 C 0.60901 0.51233 0.88094 0.0
C64 C 0.66033 0.64599 0.82123 0.0
C65 C 0.49415 0.50925 0.82659 0.0
C66 C 0.71907 0.53067 0.82318 0.0
C67 C 0.55566 0.39446 0.82301 0.0
O68 O 0.6382 0.55155 0.77573 0.0
H69 H 0.65479 0.10547 0.25514 0.0
H70 H 0.51159 0.01066 0.25057 0.0
H71 H 0.59241 0.06664 0.196 0.0
H72 H 0.49988 0.05482 0.19093 0.0
C73 C 0.48282 0.02792 0.20362 0.0
O74 O 0.51094 0.01145 0.21064 0.0
H75 H 0.47549 0.04351 0.21609 0.0
C76 C 0.62506 0.08666 0.24575 0.0
C77 C 0.62936 0.08992 0.22433 0.0
C78 C 0.58282 0.05849 0.25534 0.0
C79 C 0.54449 0.03254 0.24341 0.0
C80 C 0.54817 0.03583 0.22206 0.0
C81 C 0.5904 0.06423 0.21256 0.0
H82 H 0.62777 0.60775 0.57394 0.0
H83 H 0.57293 0.46223 0.57678 0.0
H84 H 0.5859 0.53655 0.51879 0.0
H85 H 0.50299 0.44908 0.52173 0.0
C86 C 0.5134 0.43047 0.53352 0.0
O87 O 0.55932 0.45636 0.53732 0.0
H88 H 0.49358 0.42375 0.54774 0.0
C89 C 0.61438 0.57646 0.5663 0.0
C90 C 0.60876 0.57745 0.54492 0.0
C91 C 0.60175 0.53515 0.57799 0.0
C92 C 0.58351 0.49459 0.56805 0.0
C93 C 0.57751 0.49538 0.54679 0.0
C94 C 0.59054 0.53662 0.53526 0.0
H95 H 0.01227 0.53311 0.91396 0.0
H96 H 0.14443 0.54894 0.92685 0.0
H97 H 0.09395 0.53496 0.86531 0.0
H98 H 0.12845 0.47492 0.88308 0.0
C99 C 0.16114 0.50227 0.88911 0.0
O100 O 0.16021 0.54233 0.88911 0.0
H101 H 0.16582 0.49107 0.90504 0.0
C102 C 0.04339 0.53576 0.90887 0.0
C103 C 0.04923 0.53364 0.88801 0.0
C104 C 0.07786 0.54209 0.92305 0.0
C105 C 0.11793 0.54549 0.91613 0.0
C106 C 0.12328 0.54248 0.89541 0.0
C107 C 0.08948 0.53752 0.88131 0.0
H108 H 0.06871 0.45011 0.41736 0.0
H109 H 0.16159 0.59533 0.41469 0.0
H110 H 0.10796 0.52109 0.47255 0.0
H111 H 0.11463 0.61028 0.46943 0.0
C112 C 0.14063 0.62751 0.4571 0.0
O113 O 0.16005 0.60144 0.45405 0.0
H114 H 0.1234 0.63149 0.44287 0.0
C115 C 0.08846 0.48132 0.42502 0.0
C116 C 0.08521 0.48028 0.44638 0.0
C117 C 0.1159 0.52259 0.41339 0.0
C118 C 0.14081 0.56299 0.42339 0.0
C119 C 0.13751 0.56224 0.44464 0.0
C120 C 0.11013 0.52105 0.45611 0.0
H121 H 0.66382 0.97722 0.75013 0.0
H122 H 0.61427 0.07174 0.74797 0.0
H123 H 0.62505 0.00769 0.80554 0.0
H124 H 0.54168 0.01387 0.80183 0.0
C125 C 0.55374 0.04345 0.79018 0.0
O126 O 0.59987 0.06283 0.78725 0.0
H127 H 0.53506 0.03067 0.77565 0.0
C128 C 0.65236 0.99655 0.75781 0.0
C129 C 0.64729 0.98994 0.7792 0.0
C130 C 0.64047 0.0258 0.7462 0.0
C131 C 0.62336 0.04865 0.75642 0.0
C132 C 0.61745 0.04163 0.7777 0.0
C133 C 0.62959 0.01259 0.78907 0.0
H134 H 0.65433 0.53108 0.07303 0.0
H135 H 0.51096 0.48451 0.07241 0.0
H136 H 0.58327 0.51063 0.12927 0.0
H137 H 0.49312 0.42933 0.13165 0.0
C138 C 0.47547 0.44008 0.1197 0.0
O139 O 0.50459 0.48422 0.11196 0.0
H140 H 0.46447 0.41634 0.10727 0.0
C141 C 0.62332 0.52152 0.08108 0.0
C142 C 0.62403 0.52242 0.10253 0.0
C143 C 0.58282 0.50812 0.06995 0.0
C144 C 0.54272 0.49543 0.08058 0.0
C145 C 0.54311 0.49601 0.1019 0.0
C146 C 0.58357 0.50975 0.1128 0.0
C147 C 0.2132 0.46965 0.17047 0.0
C148 C 0.21158 0.50752 0.16094 0.0
C149 C 0.24651 0.46001 0.16493 0.0
C150 C 0.27882 0.4882 0.14976 0.0
C151 C 0.27766 0.52645 0.14063 0.0
C152 C 0.2447 0.53617 0.14619 0.0
C153 C 0.31265 0.4779 0.14205 0.0
C154 C 0.32764 0.45237 0.1527 0.0
C155 C 0.36308 0.44523 0.14429 0.0
C156 C 0.39564 0.44318 0.15751 0.0
C157 C 0.43151 0.44027 0.14967 0.0
C158 C 0.4347 0.43827 0.12854 0.0
H159 H 0.34029 0.4419 0.11265 0.0
C160 C 0.40123 0.43858 0.11541 0.0
C161 C 0.36559 0.44175 0.1232 0.0
H162 H 0.40323 0.43727 0.09905 0.0
H163 H 0.18805 0.44675 0.18181 0.0
H164 H 0.24575 0.42969 0.17203 0.0
H165 H 0.30208 0.54873 0.1289 0.0
H166 H 0.24466 0.56569 0.13852 0.0
H167 H 0.3276 0.4942 0.12716 0.0
H168 H 0.31661 0.4395 0.16839 0.0
H169 H 0.39428 0.44552 0.17381 0.0
H170 H 0.45725 0.44052 0.16005 0.0
C171 C 0.8168 0.19007 0.50558 0.0
C172 C 0.79326 0.1582 0.49097 0.0
C173 C 0.86137 0.22543 0.50193 0.0
C174 C 0.88308 0.23022 0.48333 0.0
C175 C 0.86038 0.1968 0.46928 0.0
C176 C 0.81596 0.16111 0.47305 0.0
C177 C 0.92803 0.27053 0.47745 0.0
C178 C 0.94548 0.31091 0.48581 0.0
C179 C 0.98518 0.35388 0.47721 0.0
C180 C 0.98989 0.39559 0.48183 0.0
C181 C 0.02349 0.43679 0.47239 0.0
C182 C 0.05328 0.43717 0.45817 0.0
H183 H 0.01568 0.32341 0.46052 0.0
C184 C 0.0503 0.39576 0.45436 0.0
C185 C 0.0168 0.3545 0.46389 0.0
H186 H 0.07354 0.39524 0.44379 0.0
H187 H 0.80056 0.18811 0.51977 0.0
H188 H 0.87815 0.24904 0.51365 0.0
H189 H 0.8764 0.19922 0.45495 0.0
H190 H 0.79888 0.13687 0.46154 0.0
H191 H 0.94445 0.26803 0.46423 0.0
H192 H 0.92725 0.31429 0.49804 0.0
H193 H 0.96633 0.39626 0.49216 0.0
H194 H 0.02483 0.46816 0.47557 0.0
C195 C 0.69858 0.72213 0.80109 0.0
C196 C 0.67734 0.6957 0.81921 0.0
C197 C 0.70818 0.76733 0.79803 0.0
C198 C 0.69678 0.78702 0.81298 0.0
C199 C 0.6789 0.76167 0.83179 0.0
C200 C 0.66894 0.7164 0.83477 0.0
C201 C 0.70139 0.83266 0.80783 0.0
C202 C 0.6765 0.84695 0.81689 0.0
C203 C 0.67316 0.88751 0.80895 0.0
C204 C 0.63465 0.88947 0.8141 0.0
C205 C 0.62715 0.92391 0.80513 0.0
C206 C 0.65814 0.95722 0.79083 0.0
H207 H 0.73677 0.92373 0.79191 0.0
C208 C 0.69804 0.95699 0.78659 0.0
C209 C 0.7057 0.9227 0.79565 0.0
H210 H 0.723 0.98293 0.77596 0.0
H211 H 0.7058 0.70731 0.78885 0.0
H212 H 0.72262 0.78623 0.78351 0.0
H213 H 0.67158 0.77611 0.84412 0.0
H214 H 0.65351 0.69724 0.84911 0.0
H215 H 0.72183 0.85234 0.7945 0.0
H216 H 0.65338 0.82542 0.82919 0.0
H217 H 0.60923 0.86315 0.82446 0.0
H218 H 0.59605 0.92319 0.80866 0.0
C219 C 0.92087 0.57197 0.1664 0.0
C220 C 0.92498 0.53385 0.16334 0.0
C221 C 0.87902 0.57008 0.1632 0.0
C222 C 0.84066 0.52971 0.15725 0.0
C223 C 0.84454 0.49119 0.15517 0.0
C224 C 0.88627 0.49335 0.15794 0.0
C225 C 0.79619 0.52627 0.15253 0.0
C226 C 0.79203 0.56115 0.14356 0.0
C227 C 0.74827 0.55406 0.13468 0.0
C228 C 0.74895 0.5808 0.11696 0.0
C229 C 0.70857 0.57132 0.10676 0.0
C230 C 0.66662 0.53512 0.11421 0.0
H231 H 0.70413 0.49913 0.15677 0.0
C232 C 0.66577 0.51 0.13258 0.0
C233 C 0.70611 0.51948 0.14277 0.0
H234 H 0.63404 0.48194 0.13876 0.0
H235 H 0.95017 0.60351 0.17068 0.0
H236 H 0.87678 0.60007 0.16536 0.0
H237 H 0.81545 0.45961 0.15076 0.0
H238 H 0.88825 0.4632 0.15575 0.0
H239 H 0.76649 0.49222 0.15394 0.0
H240 H 0.82233 0.59417 0.14023 0.0
H241 H 0.78093 0.60798 0.11055 0.0
H242 H 0.71027 0.59196 0.09289 0.0
C243 C 0.41918 0.92634 0.49044 0.0
C244 C 0.45013 0.92091 0.50359 0.0
C245 C 0.37472 0.89029 0.48851 0.0
C246 C 0.36041 0.84784 0.49955 0.0
C247 C 0.39046 0.84335 0.51359 0.0
C248 C 0.4349 0.87942 0.51557 0.0
C249 C 0.31531 0.80704 0.49623 0.0
C250 C 0.29281 0.80108 0.47828 0.0
C251 C 0.25161 0.75755 0.47348 0.0
C252 C 0.2415 0.74831 0.45283 0.0
C253 C 0.2049 0.70664 0.44755 0.0
C254 C 0.17726 0.67367 0.46282 0.0
H255 H 0.22882 0.73106 0.50482 0.0
C256 C 0.18649 0.68309 0.48346 0.0
C257 C 0.22308 0.72483 0.48877 0.0
H258 H 0.16566 0.65793 0.49548 0.0
H259 H 0.42954 0.95812 0.48126 0.0
H260 H 0.352 0.89576 0.47817 0.0
H261 H 0.38013 0.81123 0.52249 0.0
H262 H 0.4577 0.87417 0.52598 0.0
H263 H 0.30304 0.77924 0.50815 0.0
H264 H 0.30745 0.82742 0.46577 0.0
H265 H 0.26275 0.7729 0.44073 0.0
H266 H 0.19861 0.69976 0.43154 0.0
C267 C 0.56189 0.32497 0.8326 0.0
C268 C 0.54128 0.34604 0.8207 0.0
C269 C 0.55367 0.28183 0.82859 0.0
C270 C 0.52413 0.25834 0.81266 0.0
C271 C 0.50204 0.27859 0.80135 0.0
C272 C 0.51038 0.32189 0.80534 0.0
C273 C 0.51913 0.21523 0.80609 0.0
C274 C 0.53141 0.18848 0.81774 0.0
C275 C 0.53325 0.14954 0.81011 0.0
C276 C 0.53524 0.11731 0.82444 0.0
C277 C 0.54084 0.08236 0.81801 0.0
C278 C 0.54439 0.07885 0.79709 0.0
H279 H 0.53741 0.17091 0.77755 0.0
C280 C 0.54253 0.11094 0.78271 0.0
C281 C 0.53701 0.14597 0.7891 0.0
H282 H 0.54629 0.10942 0.76651 0.0
H283 H 0.58598 0.34256 0.84453 0.0
H284 H 0.57241 0.2684 0.83743 0.0
H285 H 0.47928 0.26147 0.78894 0.0
H286 H 0.49393 0.33709 0.79585 0.0
H287 H 0.50554 0.20591 0.79086 0.0
H288 H 0.54095 0.19523 0.83361 0.0
H289 H 0.53319 0.1196 0.8407 0.0
H290 H 0.54306 0.05844 0.8294 0.0
C291 C 0.61996 0.86574 0.51526 0.0
C292 C 0.65145 0.90651 0.50441 0.0
C293 C 0.62487 0.82747 0.51623 0.0
C294 C 0.66151 0.82905 0.50644 0.0
C295 C 0.69377 0.87001 0.49603 0.0
C296 C 0.68848 0.90839 0.49478 0.0
C297 C 0.66701 0.78848 0.50806 0.0
C298 C 0.63059 0.74628 0.50752 0.0
C299 C 0.6308 0.70369 0.51424 0.0
C300 C 0.59317 0.66202 0.5093 0.0
C301 C 0.58721 0.62082 0.51852 0.0
C302 C 0.61872 0.62051 0.53298 0.0
H303 H 0.69282 0.73465 0.53236 0.0
C304 C 0.65771 0.66201 0.53712 0.0
C305 C 0.66375 0.70329 0.52785 0.0
H306 H 0.68277 0.66266 0.54806 0.0
H307 H 0.59111 0.86312 0.52289 0.0
H308 H 0.60022 0.79677 0.52494 0.0
H309 H 0.72265 0.87209 0.48866 0.0
H310 H 0.71346 0.93951 0.48643 0.0
H311 H 0.70092 0.79353 0.51038 0.0
H312 H 0.59785 0.74278 0.50319 0.0
H313 H 0.56712 0.6614 0.499 0.0
H314 H 0.55661 0.58943 0.51515 0.0
C315 C 0.76784 0.49793 0.83455 0.0
C316 C 0.7634 0.53281 0.82355 0.0
C317 C 0.8097 0.50022 0.83607 0.0
C318 C 0.84833 0.53741 0.82649 0.0
C319 C 0.84391 0.57205 0.81522 0.0
C320 C 0.80167 0.56961 0.81359 0.0
C321 C 0.89405 0.54325 0.83035 0.0
C322 C 0.90014 0.50754 0.83552 0.0
C323 C 0.94044 0.51272 0.84704 0.0
C324 C 0.93373 0.48032 0.86335 0.0
C325 C 0.96934 0.48704 0.87657 0.0
C326 C 0.01249 0.52569 0.87336 0.0
H327 H 0.99031 0.57573 0.83065 0.0
C328 C 0.02005 0.55687 0.85638 0.0
C329 C 0.9841 0.55065 0.84335 0.0
H330 H 0.05334 0.58672 0.8536 0.0
H331 H 0.73908 0.46905 0.8424 0.0
H332 H 0.81177 0.4737 0.84561 0.0
H333 H 0.87332 0.60142 0.80801 0.0
H334 H 0.79928 0.59707 0.80504 0.0
H335 H 0.92226 0.57792 0.83121 0.0
H336 H 0.87194 0.47295 0.83444 0.0
H337 H 0.90034 0.45081 0.86644 0.0
H338 H 0.96311 0.46232 0.88946 0.0
C339 C 0.22255 0.72724 0.16291 0.0
C340 C 0.18037 0.70512 0.17301 0.0
C341 C 0.25553 0.77174 0.16687 0.0
C342 C 0.24698 0.79556 0.1809 0.0
C343 C 0.20435 0.77392 0.19056 0.0
C344 C 0.17132 0.72925 0.18663 0.0
C345 C 0.28287 0.84107 0.18716 0.0
C346 C 0.32068 0.86912 0.17607 0.0
C347 C 0.35975 0.91152 0.18346 0.0
C348 C 0.3924 0.94304 0.16916 0.0
C349 C 0.4317 0.98134 0.17558 0.0
C350 C 0.43902 0.989 0.19644 0.0
H351 H 0.34401 0.89538 0.21606 0.0
C352 C 0.40651 0.9578 0.21079 0.0
C353 C 0.36726 0.9194 0.20441 0.0
H354 H 0.41208 0.96263 0.22701 0.0
H355 H 0.23084 0.70968 0.1524 0.0
H356 H 0.28819 0.78627 0.15949 0.0
H357 H 0.19689 0.79125 0.20154 0.0
H358 H 0.13923 0.71326 0.19471 0.0
H359 H 0.2778 0.85131 0.20157 0.0
H360 H 0.32368 0.86085 0.16082 0.0
H361 H 0.38791 0.93759 0.15298 0.0
H362 H 0.45674 0.00458 0.16427 0.0
C363 C 0.54632 0.16841 0.49331 0.0
C364 C 0.58599 0.17142 0.50219 0.0
C365 C 0.53291 0.19951 0.49753 0.0
C366 C 0.5591 0.23421 0.51066 0.0
C367 C 0.59927 0.23788 0.51902 0.0
C368 C 0.61274 0.20706 0.51477 0.0
C369 C 0.54479 0.26573 0.51705 0.0
C370 C 0.51676 0.27667 0.5062 0.0
C371 C 0.50749 0.31149 0.513 0.0
C372 C 0.50786 0.34475 0.49861 0.0
C373 C 0.50697 0.38228 0.50516 0.0
C374 C 0.50453 0.38631 0.52614 0.0
H375 H 0.50068 0.28833 0.54529 0.0
C376 C 0.50101 0.35146 0.54041 0.0
C377 C 0.50217 0.31416 0.5339 0.0
H378 H 0.49956 0.35421 0.55667 0.0
H379 H 0.52484 0.1412 0.48364 0.0
H380 H 0.50129 0.19513 0.4911 0.0
H381 H 0.62007 0.26434 0.52917 0.0
H382 H 0.64353 0.21051 0.52186 0.0
H383 H 0.5603 0.28279 0.53092 0.0
H384 H 0.50451 0.26389 0.49125 0.0
H385 H 0.51175 0.3432 0.48243 0.0
H386 H 0.51034 0.40919 0.49393 0.0
C387 C 0.44727 0.53858 0.83977 0.0
C388 C 0.44993 0.50663 0.8286 0.0
C389 C 0.40574 0.53558 0.84277 0.0
C390 C 0.36567 0.50073 0.8345 0.0
C391 C 0.3682 0.46891 0.82319 0.0
C392 C 0.41005 0.472 0.82011 0.0
C393 C 0.32073 0.49452 0.83927 0.0
C394 C 0.31567 0.52951 0.84382 0.0
C395 C 0.27466 0.523 0.85389 0.0
C396 C 0.28014 0.55482 0.8676 0.0
C397 C 0.24334 0.54817 0.87888 0.0
C398 C 0.20009 0.51018 0.87625 0.0
H399 H 0.22563 0.46055 0.84023 0.0
C400 C 0.19421 0.47882 0.86217 0.0
C401 C 0.2312 0.48521 0.85101 0.0
H402 H 0.16111 0.44918 0.85995 0.0
H403 H 0.47724 0.56563 0.8466 0.0
H404 H 0.4052 0.55968 0.8523 0.0
H405 H 0.3377 0.44135 0.81693 0.0
H406 H 0.411 0.44677 0.81149 0.0
H407 H 0.29212 0.45981 0.8405 0.0
H408 H 0.34437 0.56415 0.84223 0.0
H409 H 0.31333 0.58413 0.87011 0.0
H410 H 0.24872 0.57251 0.88983 0.0
C411 C 0.9278 0.33616 0.16411 0.0
C412 C 0.96482 0.35713 0.17754 0.0
C413 C 0.88914 0.29475 0.17019 0.0
C414 C 0.88677 0.27329 0.18984 0.0
C415 C 0.92506 0.29256 0.20263 0.0
C416 C 0.96379 0.3339 0.19653 0.0
C417 C 0.84337 0.23516 0.19861 0.0
C418 C 0.8066 0.20868 0.18742 0.0
C419 C 0.76152 0.17796 0.19704 0.0
C420 C 0.73102 0.13665 0.18867 0.0
C421 C 0.68803 0.10795 0.19742 0.0
C422 C 0.67445 0.12056 0.21449 0.0
H423 H 0.76964 0.22349 0.22015 0.0
C424 C 0.70466 0.16272 0.22239 0.0
C425 C 0.74766 0.19095 0.21384 0.0
H426 H 0.69493 0.17432 0.23508 0.0
H427 H 0.92751 0.35299 0.14932 0.0
H428 H 0.8603 0.28156 0.15992 0.0
H429 H 0.9242 0.27678 0.21784 0.0
H430 H 0.99171 0.34894 0.20724 0.0
H431 H 0.84093 0.23019 0.21523 0.0
H432 H 0.80909 0.20967 0.17092 0.0
H433 H 0.74072 0.12626 0.17552 0.0
H434 H 0.66578 0.07562 0.19101 0.0
C435 C 0.04183 0.5175 0.07729 0.0
C436 C 0.07934 0.54679 0.08898 0.0
C437 C 0.04449 0.52113 0.05593 0.0
C438 C 0.08474 0.55436 0.0458 0.0
C439 C 0.12206 0.58365 0.0575 0.0
C440 C 0.11939 0.58012 0.07882 0.0
C441 C 0.09023 0.55805 0.02326 0.0
C442 C 0.0553 0.54299 0.00993 0.0
C443 C 0.06144 0.54492 0.9875 0.0
C444 C 0.0253 0.51342 0.97592 0.0
C445 C 0.03036 0.51279 0.95494 0.0
C446 C 0.07166 0.54393 0.9451 0.0
H447 H 0.13031 0.60327 0.98563 0.0
C448 C 0.10735 0.57643 0.95654 0.0
C449 C 0.10227 0.57715 0.97749 0.0
H450 H 0.13919 0.60153 0.94924 0.0
H451 H 0.01057 0.49125 0.08463 0.0
H452 H 0.01537 0.49694 0.04756 0.0
H453 H 0.15357 0.60932 0.05012 0.0
H454 H 0.14901 0.6032 0.08732 0.0
H455 H 0.12475 0.57367 0.01761 0.0
H456 H 0.02071 0.52712 0.01553 0.0
H457 H 0.99337 0.48849 0.98321 0.0
H458 H 0.00231 0.4872 0.94654 0.0
C459 C 0.5752 0.05027 0.41061 0.0
C460 C 0.60401 0.03702 0.42117 0.0
C461 C 0.56911 0.04734 0.38946 0.0
C462 C 0.59161 0.03092 0.37843 0.0
C463 C 0.61973 0.01695 0.389 0.0
C464 C 0.62623 0.02033 0.41012 0.0
C465 C 0.58603 0.02743 0.35596 0.0
C466 C 0.57911 0.05686 0.3434 0.0
C467 C 0.57771 0.05594 0.32081 0.0
C468 C 0.59562 0.0974 0.3087 0.0
C469 C 0.59683 0.09807 0.28741 0.0
C470 C 0.57918 0.05715 0.27781 0.0
H471 H 0.54397 0.98221 0.32012 0.0
C472 C 0.55956 0.01544 0.28983 0.0
C473 C 0.55905 0.01481 0.31119 0.0
H474 H 0.54564 0.98347 0.28272 0.0
H475 H 0.5573 0.06296 0.41867 0.0
H476 H 0.54623 0.05727 0.38188 0.0
H477 H 0.63718 0.00387 0.38087 0.0
H478 H 0.64831 0.00943 0.4178 0.0
H479 H 0.59138 0.0022 0.34947 0.0
H480 H 0.57857 0.08511 0.34965 0.0
H481 H 0.60976 0.12947 0.31575 0.0
H482 H 0.6117 0.13062 0.27842 0.0
C483 C 0.63769 0.54917 0.73249 0.0
C484 C 0.59793 0.528 0.74442 0.0
C485 C 0.63508 0.55046 0.71112 0.0
C486 C 0.59259 0.53084 0.70125 0.0
C487 C 0.55295 0.5105 0.71315 0.0
C488 C 0.55552 0.50865 0.73451 0.0
C489 C 0.58849 0.53247 0.67862 0.0
C490 C 0.61851 0.53158 0.66628 0.0
C491 C 0.61369 0.53264 0.64366 0.0
C492 C 0.6297 0.51019 0.63253 0.0
C493 C 0.6255 0.51058 0.6112 0.0
C494 C 0.60603 0.53428 0.6006 0.0
H495 H 0.58287 0.57531 0.64106 0.0
C496 C 0.59071 0.5574 0.61171 0.0
C497 C 0.59445 0.55659 0.63302 0.0
H498 H 0.57543 0.57582 0.60393 0.0
H499 H 0.67089 0.56455 0.73966 0.0
H500 H 0.66635 0.56752 0.70239 0.0
H501 H 0.51984 0.49557 0.70589 0.0
H502 H 0.52424 0.49239 0.74324 0.0
H503 H 0.55835 0.53179 0.67204 0.0
H504 H 0.64608 0.52742 0.67294 0.0
H505 H 0.64507 0.4919 0.64037 0.0
H506 H 0.638 0.49288 0.60297 0.0
C507 C 0.62236 0.00677 0.59236 0.0
C508 C 0.63234 0.0456 0.5792 0.0
C509 C 0.62345 0.00884 0.6136 0.0
C510 C 0.63392 0.04966 0.62204 0.0
C511 C 0.64328 0.08821 0.60891 0.0
C512 C 0.6431 0.08642 0.5877 0.0
C513 C 0.63344 0.05235 0.64445 0.0
C514 C 0.6479 0.03018 0.6579 0.0
C515 C 0.64707 0.03235 0.68034 0.0
C516 C 0.68065 0.02976 0.69252 0.0
C517 C 0.67949 0.0294 0.71381 0.0
C518 C 0.64397 0.03043 0.72345 0.0
H519 H 0.58507 0.0354 0.68088 0.0
C520 C 0.61051 0.03341 0.71116 0.0
C521 C 0.61213 0.03453 0.68983 0.0
H522 H 0.58214 0.0333 0.718 0.0
H523 H 0.61379 0.97482 0.58625 0.0
H524 H 0.61507 0.97824 0.62337 0.0
H525 H 0.65105 0.11989 0.61507 0.0
H526 H 0.65052 0.11681 0.57795 0.0
H527 H 0.62312 0.07502 0.6499 0.0
H528 H 0.66267 0.01138 0.65229 0.0
H529 H 0.70791 0.02805 0.68554 0.0
H530 H 0.70631 0.02794 0.72271 0.0
C531 C 0.59697 0.53609 0.91415 0.0
C532 C 0.60895 0.50935 0.90367 0.0
C533 C 0.59657 0.53333 0.93554 0.0
C534 C 0.60789 0.50346 0.94702 0.0
C535 C 0.62055 0.47729 0.93656 0.0
C536 C 0.62086 0.47997 0.91514 0.0
C537 C 0.60853 0.50006 0.96983 0.0
C538 C 0.58259 0.50934 0.98122 0.0
C539 C 0.5831 0.50765 0.00406 0.0
C540 C 0.55887 0.52425 0.01365 0.0
C541 C 0.55855 0.52418 0.03496 0.0
C542 C 0.58248 0.50743 0.04729 0.0
H543 H 0.62503 0.47621 0.01004 0.0
C544 C 0.60632 0.49029 0.03781 0.0
C545 C 0.60659 0.49026 0.01648 0.0
H546 H 0.62442 0.47637 0.04692 0.0
H547 H 0.58803 0.55944 0.90585 0.0
H548 H 0.58824 0.55537 0.94294 0.0
H549 H 0.62993 0.45439 0.945 0.0
H550 H 0.6305 0.45904 0.90759 0.0
H551 H 0.63068 0.48883 0.97714 0.0
H552 H 0.55953 0.51898 0.97347 0.0
H553 H 0.54037 0.5378 0.00459 0.0
H554 H 0.54016 0.538 0.04177 0.0
C555 C 0.10431 0.50974 0.25865 0.0
C556 C 0.08058 0.52807 0.24722 0.0
C557 C 0.10625 0.50955 0.28001 0.0
C558 C 0.08431 0.52757 0.29037 0.0
C559 C 0.0602 0.54536 0.27897 0.0
C560 C 0.05866 0.546 0.25762 0.0
C561 C 0.08405 0.5264 0.31303 0.0
C562 C 0.11796 0.5279 0.32492 0.0
C563 C 0.11686 0.52633 0.3476 0.0
C564 C 0.15781 0.5487 0.35847 0.0
C565 C 0.15765 0.54779 0.37985 0.0
C566 C 0.11651 0.52369 0.39074 0.0
H567 H 0.0436 0.48316 0.35071 0.0
C568 C 0.0756 0.50066 0.37987 0.0
C569 C 0.07573 0.5019 0.35854 0.0
H570 H 0.04335 0.482 0.38786 0.0
H571 H 0.12142 0.49548 0.25113 0.0
H572 H 0.12408 0.49438 0.28834 0.0
H573 H 0.04264 0.55903 0.2866 0.0
H574 H 0.03983 0.56012 0.24931 0.0
H575 H 0.0558 0.52642 0.32005 0.0
H576 H 0.14846 0.53267 0.31788 0.0
H577 H 0.18996 0.56733 0.3504 0.0
H578 H 0.18969 0.56547 0.38788 0.0
loop_
_geom_bond_atom_site_label_1
_geom_bond_atom_site_label_2
_geom_bond_distance
_geom_bond_site_symmetry_2
_ccdc_geom_bond_type
O0 Zn1 1.953 . S
O0 C16 1.225 . S
Zn1 O0 1.953 . S
Zn1 O2 1.949 . S
Zn1 O8 1.919 1_455 S
Zn1 O13 1.924 . S
O2 Zn1 1.949 . S
O2 Zn3 1.923 1_455 S
O2 Zn4 1.950 . S
O2 Zn5 1.945 . S
Zn3 O2 1.923 1_655 S
Zn3 O6 1.933 1_655 S
Zn3 O9 1.941 . S
Zn3 O10 1.965 . S
Zn4 O2 1.950 . S
Zn4 O11 1.938 . S
Zn4 O12 1.906 . S
Zn4 O22 1.953 . S
Zn5 O2 1.945 . S
Zn5 O7 1.932 . S
Zn5 O14 1.977 . S
Zn5 O15 1.910 . S
O6 Zn3 1.933 1_455 S
O6 C17 1.226 . S
O7 Zn5 1.932 . S
O7 C17 1.307 . S
O8 Zn1 1.919 1_655 S
O8 C19 1.253 . S
O9 Zn3 1.941 . S
O9 C19 1.283 . S
O10 Zn3 1.965 . S
O10 C18 1.303 . S
O11 Zn4 1.938 . S
O11 C18 1.247 1_455 S
O12 Zn4 1.906 . S
O12 C20 1.304 . S
O13 Zn1 1.924 . S
O13 C21 1.311 . S
O14 Zn5 1.977 . S
O14 C20 1.272 . S
O15 Zn5 1.910 . S
O15 C21 1.231 . S
C16 O0 1.225 . S
C16 O22 1.298 . S
C17 O6 1.226 . S
C17 O7 1.307 . S
C18 O10 1.303 . S
C18 O11 1.247 1_655 S
C19 O8 1.253 . S
C19 O9 1.283 . S
C20 O12 1.304 . S
C20 O14 1.272 . S
C21 O13 1.311 . S
C21 O15 1.231 . S
O22 Zn4 1.953 . S
O22 C16 1.298 . S
O23 Zn24 1.953 . S
O23 C39 1.225 . S
Zn24 O23 1.953 . S
Zn24 O25 1.949 . S
Zn24 O31 1.919 . S
Zn24 O36 1.924 1_545 S
O25 Zn24 1.949 . S
O25 Zn26 1.923 . S
O25 Zn27 1.950 . S
O25 Zn28 1.945 1_545 S
Zn26 O25 1.923 . S
Zn26 O29 1.933 . S
Zn26 O32 1.941 . S
Zn26 O33 1.965 . S
Zn27 O25 1.950 . S
Zn27 O34 1.938 . S
Zn27 O35 1.906 1_545 S
Zn27 O45 1.953 . S
Zn28 O25 1.945 1_565 S
Zn28 O30 1.932 . S
Zn28 O37 1.977 . S
Zn28 O38 1.910 . S
O29 Zn26 1.933 . S
O29 C40 1.226 . S
O30 Zn28 1.932 . S
O30 C40 1.307 1_565 S
O31 Zn24 1.919 . S
O31 C42 1.253 . S
O32 Zn26 1.941 . S
O32 C42 1.283 . S
O33 Zn26 1.965 . S
O33 C41 1.303 . S
O34 Zn27 1.938 . S
O34 C41 1.247 . S
O35 Zn27 1.906 1_565 S
O35 C43 1.304 . S
O36 Zn24 1.924 1_565 S
O36 C44 1.311 . S
O37 Zn28 1.977 . S
O37 C43 1.272 . S
O38 Zn28 1.910 . S
O38 C44 1.231 . S
C39 O23 1.225 . S
C39 O45 1.298 . S
C40 O29 1.226 . S
C40 O30 1.307 1_545 S
C41 O33 1.303 . S
C41 O34 1.247 . S
C42 O31 1.253 . S
C42 O32 1.283 . S
C43 O35 1.304 . S
C43 O37 1.272 . S
C44 O36 1.311 . S
C44 O38 1.231 . S
O45 Zn27 1.953 . S
O45 C39 1.298 . S
O46 Zn47 1.953 . S
O46 C62 1.225 . S
Zn47 O46 1.953 . S
Zn47 O48 1.949 . S
Zn47 O54 1.919 . S
Zn47 O59 1.924 . S
O48 Zn47 1.949 . S
O48 Zn49 1.923 . S
O48 Zn50 1.950 . S
O48 Zn51 1.945 . S
Zn49 O48 1.923 . S
Zn49 O52 1.933 . S
Zn49 O55 1.941 . S
Zn49 O56 1.965 . S
Zn50 O48 1.950 . S
Zn50 O57 1.938 . S
Zn50 O58 1.906 . S
Zn50 O68 1.953 . S
Zn51 O48 1.945 . S
Zn51 O53 1.932 . S
Zn51 O60 1.977 . S
Zn51 O61 1.910 . S
O52 Zn49 1.933 . S
O52 C63 1.226 . S
O53 Zn51 1.932 . S
O53 C63 1.307 . S
O54 Zn47 1.919 . S
O54 C65 1.253 . S
O55 Zn49 1.941 . S
O55 C65 1.283 . S
O56 Zn49 1.965 . S
O56 C64 1.303 . S
O57 Zn50 1.938 . S
O57 C64 1.247 . S
O58 Zn50 1.906 . S
O58 C66 1.304 . S
O59 Zn47 1.924 . S
O59 C67 1.311 . S
O60 Zn51 1.977 . S
O60 C66 1.272 . S
O61 Zn51 1.910 . S
O61 C67 1.231 . S
C62 O46 1.225 . S
C62 O68 1.298 . S
C63 O52 1.226 . S
C63 O53 1.307 . S
C64 O56 1.303 . S
C64 O57 1.247 . S
C65 O54 1.253 . S
C65 O55 1.283 . S
C66 O58 1.304 . S
C66 O60 1.272 . S
C67 O59 1.311 . S
C67 O61 1.231 . S
O68 Zn50 1.953 . S
O68 C62 1.298 . S
H69 C76 0.929 . S
H70 C79 0.945 . S
H71 C81 0.929 . S
H72 C73 0.969 . S
C73 H72 0.969 . S
C73 O74 1.550 . S
C73 H75 0.973 . S
O74 C73 1.550 . S
O74 C80 1.412 1_565 S
H75 C73 0.973 . S
C76 H69 0.929 . S
C76 C77 1.400 . S
C76 C78 1.364 . S
C77 C76 1.400 . S
C77 C81 1.377 . S
C78 C76 1.364 . S
C78 C79 1.362 1_545 S
C79 H70 0.945 . S
C79 C78 1.362 1_565 S
C79 C80 1.382 1_565 S
C80 O74 1.412 1_545 S
C80 C79 1.382 1_545 S
C80 C81 1.394 . S
C81 H71 0.929 . S
C81 C77 1.377 . S
C81 C80 1.394 . S
H82 C89 0.929 . S
H83 C92 0.930 . S
H84 C94 0.929 . S
H85 C86 0.969 . S
C86 H85 0.969 . S
C86 O87 1.550 . S
C86 H88 0.973 . S
O87 C86 1.550 . S
O87 C93 1.412 . S
H88 C86 0.973 . S
C89 H82 0.929 . S
C89 C90 1.400 . S
C89 C91 1.364 . S
C90 C89 1.400 . S
C90 C94 1.377 . S
C91 C89 1.364 . S
C91 C92 1.374 . S
C92 H83 0.930 . S
C92 C91 1.374 . S
C92 C93 1.383 . S
C93 O87 1.412 . S
C93 C92 1.383 . S
C93 C94 1.394 . S
C94 H84 0.929 . S
C94 C90 1.377 . S
C94 C93 1.394 . S
H95 C102 0.929 . S
H96 C105 0.930 . S
H97 C107 0.929 . S
H98 C99 0.969 . S
C99 H98 0.969 . S
C99 O100 1.550 . S
C99 H101 0.973 . S
O100 C99 1.550 . S
O100 C106 1.412 . S
H101 C99 0.973 . S
C102 H95 0.929 . S
C102 C103 1.400 . S
C102 C104 1.364 . S
C103 C102 1.400 . S
C103 C107 1.377 . S
C104 C102 1.364 . S
C104 C105 1.374 . S
C105 H96 0.930 . S
C105 C104 1.374 . S
C105 C106 1.383 . S
C106 O100 1.412 . S
C106 C105 1.383 . S
C106 C107 1.394 . S
C107 H97 0.929 . S
C107 C103 1.377 . S
C107 C106 1.394 . S
H108 C115 0.929 . S
H109 C118 0.930 . S
H110 C120 0.929 . S
H111 C112 0.969 . S
C112 H111 0.969 . S
C112 O113 1.550 . S
C112 H114 0.973 . S
O113 C112 1.550 . S
O113 C119 1.412 . S
H114 C112 0.973 . S
C115 H108 0.929 . S
C115 C116 1.400 . S
C115 C117 1.364 . S
C116 C115 1.400 . S
C116 C120 1.377 . S
C117 C115 1.364 . S
C117 C118 1.374 . S
C118 H109 0.930 . S
C118 C117 1.374 . S
C118 C119 1.383 . S
C119 O113 1.412 . S
C119 C118 1.383 . S
C119 C120 1.394 . S
C120 H110 0.929 . S
C120 C116 1.377 . S
C120 C119 1.394 . S
H121 C128 0.929 . S
H122 C131 0.930 . S
H123 C133 0.929 . S
H124 C125 0.969 . S
C125 H124 0.969 . S
C125 O126 1.550 . S
C125 H127 0.973 . S
O126 C125 1.550 . S
O126 C132 1.412 . S
H127 C125 0.973 . S
C128 H121 0.929 . S
C128 C129 1.400 . S
C128 C130 1.364 1_565 S
C129 C128 1.400 . S
C129 C133 1.377 1_565 S
C130 C128 1.364 1_545 S
C130 C131 1.374 . S
C131 H122 0.930 . S
C131 C130 1.374 . S
C131 C132 1.383 . S
C132 O126 1.412 . S
C132 C131 1.383 . S
C132 C133 1.394 . S
C133 H123 0.929 . S
C133 C129 1.377 1_545 S
C133 C132 1.394 . S
H134 C141 0.929 . S
H135 C144 0.930 . S
H136 C146 0.929 . S
H137 C138 0.969 . S
C138 H137 0.969 . S
C138 O139 1.550 . S
C138 H140 0.973 . S
O139 C138 1.550 . S
O139 C145 1.412 . S
H140 C138 0.973 . S
C141 H134 0.929 . S
C141 C142 1.400 . S
C141 C143 1.364 . S
C142 C141 1.400 . S
C142 C146 1.377 . S
C143 C141 1.364 . S
C143 C144 1.374 . S
C144 H135 0.930 . S
C144 C143 1.374 . S
C144 C145 1.383 . S
C145 O139 1.412 . S
C145 C144 1.383 . S
C145 C146 1.394 . S
C146 H136 0.929 . S
C146 C142 1.377 . S
C146 C145 1.394 . S
C147 C148 1.386 . S
C147 C149 1.383 . S
C147 H163 0.951 . S
C148 C147 1.386 . S
C148 C152 1.383 . S
C149 C147 1.383 . S
C149 C150 1.402 . S
C149 H164 0.951 . S
C150 C149 1.402 . S
C150 C151 1.375 . S
C150 C153 1.481 . S
C151 C150 1.375 . S
C151 C152 1.367 . S
C151 H165 0.951 . S
C152 C148 1.383 . S
C152 C151 1.367 . S
C152 H166 0.950 . S
C153 C150 1.481 . S
C153 C154 1.297 . S
C153 H167 0.950 . S
C154 C153 1.297 . S
C154 C155 1.479 . S
C154 H168 0.950 . S
C155 C154 1.479 . S
C155 C156 1.375 . S
C155 C161 1.404 . S
C156 C155 1.375 . S
C156 C157 1.369 . S
C156 H169 0.950 . S
C157 C156 1.369 . S
C157 C158 1.392 . S
C157 H170 0.951 . S
C158 C157 1.392 . S
C158 C160 1.384 . S
H159 C161 0.949 . S
C160 C158 1.384 . S
C160 C161 1.385 . S
C160 H162 0.950 . S
C161 C155 1.404 . S
C161 H159 0.949 . S
C161 C160 1.385 . S
H162 C160 0.950 . S
H163 C147 0.951 . S
H164 C149 0.951 . S
H165 C151 0.951 . S
H166 C152 0.950 . S
H167 C153 0.950 . S
H168 C154 0.950 . S
H169 C156 0.950 . S
H170 C157 0.951 . S
C171 C172 1.386 . S
C171 C173 1.383 . S
C171 H187 0.951 . S
C172 C171 1.386 . S
C172 C176 1.383 . S
C173 C171 1.383 . S
C173 C174 1.402 . S
C173 H188 0.951 . S
C174 C173 1.402 . S
C174 C175 1.375 . S
C174 C177 1.481 . S
C175 C174 1.375 . S
C175 C176 1.367 . S
C175 H189 0.951 . S
C176 C172 1.383 . S
C176 C175 1.367 . S
C176 H190 0.950 . S
C177 C174 1.481 . S
C177 C178 1.297 . S
C177 H191 0.950 . S
C178 C177 1.297 . S
C178 C179 1.479 . S
C178 H192 0.950 . S
C179 C178 1.479 . S
C179 C180 1.375 . S
C179 C185 1.404 . S
C180 C179 1.375 . S
C180 C181 1.369 1_655 S
C180 H193 0.950 . S
C181 C180 1.369 1_455 S
C181 C182 1.392 . S
C181 H194 0.951 . S
C182 C181 1.392 . S
C182 C184 1.384 . S
H183 C185 0.949 . S
C184 C182 1.384 . S
C184 C185 1.385 1_455 S
C184 H186 0.950 . S
C185 C179 1.404 . S
C185 H183 0.949 . S
C185 C184 1.385 1_655 S
H186 C184 0.950 . S
H187 C171 0.951 . S
H188 C173 0.951 . S
H189 C175 0.951 . S
H190 C176 0.950 . S
H191 C177 0.950 . S
H192 C178 0.950 . S
H193 C180 0.950 . S
H194 C181 0.951 . S
C195 C196 1.386 . S
C195 C197 1.383 . S
C195 H211 0.951 . S
C196 C195 1.386 . S
C196 C200 1.383 . S
C197 C195 1.383 . S
C197 C198 1.402 . S
C197 H212 0.951 . S
C198 C197 1.402 . S
C198 C199 1.375 . S
C198 C201 1.481 . S
C199 C198 1.375 . S
C199 C200 1.367 . S
C199 H213 0.951 . S
C200 C196 1.383 . S
C200 C199 1.367 . S
C200 H214 0.950 . S
C201 C198 1.481 . S
C201 C202 1.297 . S
C201 H215 0.950 . S
C202 C201 1.297 . S
C202 C203 1.479 . S
C202 H216 0.950 . S
C203 C202 1.479 . S
C203 C204 1.375 . S
C203 C209 1.404 . S
C204 C203 1.375 . S
C204 C205 1.369 . S
C204 H217 0.950 . S
C205 C204 1.369 . S
C205 C206 1.392 . S
C205 H218 0.951 . S
C206 C205 1.392 . S
C206 C208 1.384 . S
H207 C209 0.949 . S
C208 C206 1.384 . S
C208 C209 1.385 . S
C208 H210 0.950 . S
C209 C203 1.404 . S
C209 H207 0.949 . S
C209 C208 1.385 . S
H210 C208 0.950 . S
H211 C195 0.951 . S
H212 C197 0.951 . S
H213 C199 0.951 . S
H214 C200 0.950 . S
H215 C201 0.950 . S
H216 C202 0.950 . S
H217 C204 0.950 . S
H218 C205 0.951 . S
C219 C220 1.386 . S
C219 C221 1.383 . S
C219 H235 0.951 . S
C220 C219 1.386 . S
C220 C224 1.383 . S
C221 C219 1.383 . S
C221 C222 1.402 . S
C221 H236 0.951 . S
C222 C221 1.402 . S
C222 C223 1.375 . S
C222 C225 1.481 . S
C223 C222 1.375 . S
C223 C224 1.367 . S
C223 H237 0.951 . S
C224 C220 1.383 . S
C224 C223 1.367 . S
C224 H238 0.950 . S
C225 C222 1.481 . S
C225 C226 1.297 . S
C225 H239 0.950 . S
C226 C225 1.297 . S
C226 C227 1.479 . S
C226 H240 0.950 . S
C227 C226 1.479 . S
C227 C228 1.375 . S
C227 C233 1.404 . S
C228 C227 1.375 . S
C228 C229 1.369 . S
C228 H241 0.950 . S
C229 C228 1.369 . S
C229 C230 1.392 . S
C229 H242 0.951 . S
C230 C229 1.392 . S
C230 C232 1.384 . S
H231 C233 0.949 . S
C232 C230 1.384 . S
C232 C233 1.385 . S
C232 H234 0.950 . S
C233 C227 1.404 . S
C233 H231 0.949 . S
C233 C232 1.385 . S
H234 C232 0.950 . S
H235 C219 0.951 . S
H236 C221 0.951 . S
H237 C223 0.951 . S
H238 C224 0.950 . S
H239 C225 0.950 . S
H240 C226 0.950 . S
H241 C228 0.950 . S
H242 C229 0.951 . S
C243 C244 1.386 . S
C243 C245 1.383 . S
C243 H259 0.951 . S
C244 C243 1.386 . S
C244 C248 1.383 . S
C245 C243 1.383 . S
C245 C246 1.402 . S
C245 H260 0.951 . S
C246 C245 1.402 . S
C246 C247 1.375 . S
C246 C249 1.481 . S
C247 C246 1.375 . S
C247 C248 1.367 . S
C247 H261 0.951 . S
C248 C244 1.383 . S
C248 C247 1.367 . S
C248 H262 0.950 . S
C249 C246 1.481 . S
C249 C250 1.297 . S
C249 H263 0.950 . S
C250 C249 1.297 . S
C250 C251 1.479 . S
C250 H264 0.950 . S
C251 C250 1.479 . S
C251 C252 1.375 . S
C251 C257 1.404 . S
C252 C251 1.375 . S
C252 C253 1.369 . S
C252 H265 0.950 . S
C253 C252 1.369 . S
C253 C254 1.392 . S
C253 H266 0.951 . S
C254 C253 1.392 . S
C254 C256 1.384 . S
H255 C257 0.949 . S
C256 C254 1.384 . S
C256 C257 1.385 . S
C256 H258 0.950 . S
C257 C251 1.404 . S
C257 H255 0.949 . S
C257 C256 1.385 . S
H258 C256 0.950 . S
H259 C243 0.951 . S
H260 C245 0.951 . S
H261 C247 0.951 . S
H262 C248 0.950 . S
H263 C249 0.950 . S
H264 C250 0.950 . S
H265 C252 0.950 . S
H266 C253 0.951 . S
C267 C268 1.386 . S
C267 C269 1.383 . S
C267 H283 0.951 . S
C268 C267 1.386 . S
C268 C272 1.383 . S
C269 C267 1.383 . S
C269 C270 1.402 . S
C269 H284 0.951 . S
C270 C269 1.402 . S
C270 C271 1.375 . S
C270 C273 1.481 . S
C271 C270 1.375 . S
C271 C272 1.367 . S
C271 H285 0.951 . S
C272 C268 1.383 . S
C272 C271 1.367 . S
C272 H286 0.950 . S
C273 C270 1.481 . S
C273 C274 1.297 . S
C273 H287 0.950 . S
C274 C273 1.297 . S
C274 C275 1.479 . S
C274 H288 0.950 . S
C275 C274 1.479 . S
C275 C276 1.375 . S
C275 C281 1.404 . S
C276 C275 1.375 . S
C276 C277 1.369 . S
C276 H289 0.950 . S
C277 C276 1.369 . S
C277 C278 1.392 . S
C277 H290 0.951 . S
C278 C277 1.392 . S
C278 C280 1.384 . S
H279 C281 0.949 . S
C280 C278 1.384 . S
C280 C281 1.385 . S
C280 H282 0.950 . S
C281 C275 1.404 . S
C281 H279 0.949 . S
C281 C280 1.385 . S
H282 C280 0.950 . S
H283 C267 0.951 . S
H284 C269 0.951 . S
H285 C271 0.951 . S
H286 C272 0.950 . S
H287 C273 0.950 . S
H288 C274 0.950 . S
H289 C276 0.950 . S
H290 C277 0.951 . S
C291 C292 1.386 . S
C291 C293 1.383 . S
C291 H307 0.951 . S
C292 C291 1.386 . S
C292 C296 1.383 . S
C293 C291 1.383 . S
C293 C294 1.402 . S
C293 H308 0.951 . S
C294 C293 1.402 . S
C294 C295 1.375 . S
C294 C297 1.481 . S
C295 C294 1.375 . S
C295 C296 1.367 . S
C295 H309 0.951 . S
C296 C292 1.383 . S
C296 C295 1.367 . S
C296 H310 0.950 . S
C297 C294 1.481 . S
C297 C298 1.297 . S
C297 H311 0.950 . S
C298 C297 1.297 . S
C298 C299 1.479 . S
C298 H312 0.950 . S
C299 C298 1.479 . S
C299 C300 1.375 . S
C299 C305 1.404 . S
C300 C299 1.375 . S
C300 C301 1.369 . S
C300 H313 0.950 . S
C301 C300 1.369 . S
C301 C302 1.392 . S
C301 H314 0.951 . S
C302 C301 1.392 . S
C302 C304 1.384 . S
H303 C305 0.949 . S
C304 C302 1.384 . S
C304 C305 1.385 . S
C304 H306 0.950 . S
C305 C299 1.404 . S
C305 H303 0.949 . S
C305 C304 1.385 . S
H306 C304 0.950 . S
H307 C291 0.951 . S
H308 C293 0.951 . S
H309 C295 0.951 . S
H310 C296 0.950 . S
H311 C297 0.950 . S
H312 C298 0.950 . S
H313 C300 0.950 . S
H314 C301 0.951 . S
C315 C316 1.386 . S
C315 C317 1.383 . S
C315 H331 0.951 . S
C316 C315 1.386 . S
C316 C320 1.383 . S
C317 C315 1.383 . S
C317 C318 1.402 . S
C317 H332 0.951 . S
C318 C317 1.402 . S
C318 C319 1.375 . S
C318 C321 1.481 . S
C319 C318 1.375 . S
C319 C320 1.367 . S
C319 H333 0.951 . S
C320 C316 1.383 . S
C320 C319 1.367 . S
C320 H334 0.950 . S
C321 C318 1.481 . S
C321 C322 1.297 . S
C321 H335 0.950 . S
C322 C321 1.297 . S
C322 C323 1.479 . S
C322 H336 0.950 . S
C323 C322 1.479 . S
C323 C324 1.375 . S
C323 C329 1.404 . S
C324 C323 1.375 . S
C324 C325 1.369 . S
C324 H337 0.950 . S
C325 C324 1.369 . S
C325 C326 1.392 1_655 S
C325 H338 0.951 . S
C326 C325 1.392 1_455 S
C326 C328 1.384 . S
H327 C329 0.949 . S
C328 C326 1.384 . S
C328 C329 1.385 1_455 S
C328 H330 0.950 . S
C329 C323 1.404 . S
C329 H327 0.949 . S
C329 C328 1.385 1_655 S
H330 C328 0.950 . S
H331 C315 0.951 . S
H332 C317 0.951 . S
H333 C319 0.951 . S
H334 C320 0.950 . S
H335 C321 0.950 . S
H336 C322 0.950 . S
H337 C324 0.950 . S
H338 C325 0.951 . S
C339 C340 1.386 . S
C339 C341 1.383 . S
C339 H355 0.951 . S
C340 C339 1.386 . S
C340 C344 1.383 . S
C341 C339 1.383 . S
C341 C342 1.402 . S
C341 H356 0.951 . S
C342 C341 1.402 . S
C342 C343 1.375 . S
C342 C345 1.481 . S
C343 C342 1.375 . S
C343 C344 1.367 . S
C343 H357 0.951 . S
C344 C340 1.383 . S
C344 C343 1.367 . S
C344 H358 0.950 . S
C345 C342 1.481 . S
C345 C346 1.297 . S
C345 H359 0.950 . S
C346 C345 1.297 . S
C346 C347 1.479 . S
C346 H360 0.950 . S
C347 C346 1.479 . S
C347 C348 1.375 . S
C347 C353 1.404 . S
C348 C347 1.375 . S
C348 C349 1.369 . S
C348 H361 0.950 . S
C349 C348 1.369 . S
C349 C350 1.392 . S
C349 H362 0.951 . S
C350 C349 1.392 . S
C350 C352 1.384 . S
H351 C353 0.949 . S
C352 C350 1.384 . S
C352 C353 1.385 . S
C352 H354 0.950 . S
C353 C347 1.404 . S
C353 H351 0.949 . S
C353 C352 1.385 . S
H354 C352 0.950 . S
H355 C339 0.951 . S
H356 C341 0.951 . S
H357 C343 0.951 . S
H358 C344 0.950 . S
H359 C345 0.950 . S
H360 C346 0.950 . S
H361 C348 0.950 . S
H362 C349 0.951 . S
C363 C364 1.386 . S
C363 C365 1.383 . S
C363 H379 0.951 . S
C364 C363 1.386 . S
C364 C368 1.383 . S
C365 C363 1.383 . S
C365 C366 1.402 . S
C365 H380 0.951 . S
C366 C365 1.402 . S
C366 C367 1.375 . S
C366 C369 1.481 . S
C367 C366 1.375 . S
C367 C368 1.367 . S
C367 H381 0.951 . S
C368 C364 1.383 . S
C368 C367 1.367 . S
C368 H382 0.950 . S
C369 C366 1.481 . S
C369 C370 1.297 . S
C369 H383 0.950 . S
C370 C369 1.297 . S
C370 C371 1.479 . S
C370 H384 0.950 . S
C371 C370 1.479 . S
C371 C372 1.375 . S
C371 C377 1.404 . S
C372 C371 1.375 . S
C372 C373 1.369 . S
C372 H385 0.950 . S
C373 C372 1.369 . S
C373 C374 1.392 . S
C373 H386 0.951 . S
C374 C373 1.392 . S
C374 C376 1.384 . S
H375 C377 0.949 . S
C376 C374 1.384 . S
C376 C377 1.385 . S
C376 H378 0.950 . S
C377 C371 1.404 . S
C377 H375 0.949 . S
C377 C376 1.385 . S
H378 C376 0.950 . S
H379 C363 0.951 . S
H380 C365 0.951 . S
H381 C367 0.951 . S
H382 C368 0.950 . S
H383 C369 0.950 . S
H384 C370 0.950 . S
H385 C372 0.950 . S
H386 C373 0.951 . S
C387 C388 1.386 . S
C387 C389 1.383 . S
C387 H403 0.951 . S
C388 C387 1.386 . S
C388 C392 1.383 . S
C389 C387 1.383 . S
C389 C390 1.402 . S
C389 H404 0.951 . S
C390 C389 1.402 . S
C390 C391 1.375 . S
C390 C393 1.481 . S
C391 C390 1.375 . S
C391 C392 1.367 . S
C391 H405 0.951 . S
C392 C388 1.383 . S
C392 C391 1.367 . S
C392 H406 0.950 . S
C393 C390 1.481 . S
C393 C394 1.297 . S
C393 H407 0.950 . S
C394 C393 1.297 . S
C394 C395 1.479 . S
C394 H408 0.950 . S
C395 C394 1.479 . S
C395 C396 1.375 . S
C395 C401 1.404 . S
C396 C395 1.375 . S
C396 C397 1.369 . S
C396 H409 0.950 . S
C397 C396 1.369 . S
C397 C398 1.392 . S
C397 H410 0.951 . S
C398 C397 1.392 . S
C398 C400 1.384 . S
H399 C401 0.949 . S
C400 C398 1.384 . S
C400 C401 1.385 . S
C400 H402 0.950 . S
C401 C395 1.404 . S
C401 H399 0.949 . S
C401 C400 1.385 . S
H402 C400 0.950 . S
H403 C387 0.951 . S
H404 C389 0.951 . S
H405 C391 0.951 . S
H406 C392 0.950 . S
H407 C393 0.950 . S
H408 C394 0.950 . S
H409 C396 0.950 . S
H410 C397 0.951 . S
C411 C412 1.386 . S
C411 C413 1.383 . S
C411 H427 0.951 . S
C412 C411 1.386 . S
C412 C416 1.383 . S
C413 C411 1.383 . S
C413 C414 1.402 . S
C413 H428 0.951 . S
C414 C413 1.402 . S
C414 C415 1.375 . S
C414 C417 1.481 . S
C415 C414 1.375 . S
C415 C416 1.367 . S
C415 H429 0.951 . S
C416 C412 1.383 . S
C416 C415 1.367 . S
C416 H430 0.950 . S
C417 C414 1.481 . S
C417 C418 1.297 . S
C417 H431 0.950 . S
C418 C417 1.297 . S
C418 C419 1.479 . S
C418 H432 0.950 . S
C419 C418 1.479 . S
C419 C420 1.375 . S
C419 C425 1.404 . S
C420 C419 1.375 . S
C420 C421 1.369 . S
C420 H433 0.950 . S
C421 C420 1.369 . S
C421 C422 1.392 . S
C421 H434 0.951 . S
C422 C421 1.392 . S
C422 C424 1.384 . S
H423 C425 0.949 . S
C424 C422 1.384 . S
C424 C425 1.385 . S
C424 H426 0.950 . S
C425 C419 1.404 . S
C425 H423 0.949 . S
C425 C424 1.385 . S
H426 C424 0.950 . S
H427 C411 0.951 . S
H428 C413 0.951 . S
H429 C415 0.951 . S
H430 C416 0.950 . S
H431 C417 0.950 . S
H432 C418 0.950 . S
H433 C420 0.950 . S
H434 C421 0.951 . S
C435 C436 1.386 . S
C435 C437 1.383 . S
C435 H451 0.951 1_455 S
C436 C435 1.386 . S
C436 C440 1.383 . S
C437 C435 1.383 . S
C437 C438 1.402 . S
C437 H452 0.951 . S
C438 C437 1.402 . S
C438 C439 1.375 . S
C438 C441 1.481 . S
C439 C438 1.375 . S
C439 C440 1.367 . S
C439 H453 0.951 . S
C440 C436 1.383 . S
C440 C439 1.367 . S
C440 H454 0.950 . S
C441 C438 1.481 . S
C441 C442 1.297 . S
C441 H455 0.950 . S
C442 C441 1.297 . S
C442 C443 1.479 1_554 S
C442 H456 0.950 . S
C443 C442 1.479 1_556 S
C443 C444 1.375 . S
C443 C449 1.404 . S
C444 C443 1.375 . S
C444 C445 1.369 . S
C444 H457 0.950 . S
C445 C444 1.369 . S
C445 C446 1.392 . S
C445 H458 0.951 . S
C446 C445 1.392 . S
C446 C448 1.384 . S
H447 C449 0.949 . S
C448 C446 1.384 . S
C448 C449 1.385 . S
C448 H450 0.950 . S
C449 C443 1.404 . S
C449 H447 0.949 . S
C449 C448 1.385 . S
H450 C448 0.950 . S
H451 C435 0.951 1_655 S
H452 C437 0.951 . S
H453 C439 0.951 . S
H454 C440 0.950 . S
H455 C441 0.950 . S
H456 C442 0.950 . S
H457 C444 0.950 . S
H458 C445 0.951 . S
C459 C460 1.386 . S
C459 C461 1.383 . S
C459 H475 0.951 . S
C460 C459 1.386 . S
C460 C464 1.383 1_545 S
C461 C459 1.383 . S
C461 C462 1.402 . S
C461 H476 0.951 . S
C462 C461 1.402 . S
C462 C463 1.375 1_545 S
C462 C465 1.481 . S
C463 C462 1.375 1_565 S
C463 C464 1.367 . S
C463 H477 0.951 . S
C464 C460 1.383 1_565 S
C464 C463 1.367 . S
C464 H478 0.950 . S
C465 C462 1.481 . S
C465 C466 1.297 . S
C465 H479 0.950 1_545 S
C466 C465 1.297 . S
C466 C467 1.479 . S
C466 H480 0.950 . S
C467 C466 1.479 . S
C467 C468 1.375 . S
C467 C473 1.404 . S
C468 C467 1.375 . S
C468 C469 1.369 . S
C468 H481 0.950 . S
C469 C468 1.369 . S
C469 C470 1.392 . S
C469 H482 0.951 . S
C470 C469 1.392 . S
C470 C472 1.407 . S
H471 C473 0.949 1_565 S
C472 C470 1.407 . S
C472 C473 1.386 . S
C472 H474 0.926 1_545 S
C473 C467 1.404 . S
C473 H471 0.949 1_545 S
C473 C472 1.386 . S
H474 C472 0.926 1_565 S
H475 C459 0.951 . S
H476 C461 0.951 . S
H477 C463 0.951 . S
H478 C464 0.950 . S
H479 C465 0.950 1_565 S
H480 C466 0.950 . S
H481 C468 0.950 . S
H482 C469 0.951 . S
C483 C484 1.386 . S
C483 C485 1.383 . S
C483 H499 0.951 . S
C484 C483 1.386 . S
C484 C488 1.383 . S
C485 C483 1.383 . S
C485 C486 1.402 . S
C485 H500 0.951 . S
C486 C485 1.402 . S
C486 C487 1.375 . S
C486 C489 1.481 . S
C487 C486 1.375 . S
C487 C488 1.367 . S
C487 H501 0.951 . S
C488 C484 1.383 . S
C488 C487 1.367 . S
C488 H502 0.950 . S
C489 C486 1.481 . S
C489 C490 1.297 . S
C489 H503 0.950 . S
C490 C489 1.297 . S
C490 C491 1.479 . S
C490 H504 0.950 . S
C491 C490 1.479 . S
C491 C492 1.375 . S
C491 C497 1.404 . S
C492 C491 1.375 . S
C492 C493 1.369 . S
C492 H505 0.950 . S
C493 C492 1.369 . S
C493 C494 1.392 . S
C493 H506 0.951 . S
C494 C493 1.392 . S
C494 C496 1.384 . S
H495 C497 0.949 . S
C496 C494 1.384 . S
C496 C497 1.385 . S
C496 H498 0.950 . S
C497 C491 1.404 . S
C497 H495 0.949 . S
C497 C496 1.385 . S
H498 C496 0.950 . S
H499 C483 0.951 . S
H500 C485 0.951 . S
H501 C487 0.951 . S
H502 C488 0.950 . S
H503 C489 0.950 . S
H504 C490 0.950 . S
H505 C492 0.950 . S
H506 C493 0.951 . S
C507 C508 1.386 . S
C507 C509 1.383 . S
C507 H523 0.951 1_545 S
C508 C507 1.386 . S
C508 C512 1.383 . S
C509 C507 1.383 . S
C509 C510 1.402 . S
C509 H524 0.951 1_545 S
C510 C509 1.402 . S
C510 C511 1.375 . S
C510 C513 1.481 . S
C511 C510 1.375 . S
C511 C512 1.367 . S
C511 H525 0.951 . S
C512 C508 1.383 . S
C512 C511 1.367 . S
C512 H526 0.950 . S
C513 C510 1.481 . S
C513 C514 1.297 . S
C513 H527 0.950 . S
C514 C513 1.297 . S
C514 C515 1.479 . S
C514 H528 0.950 . S
C515 C514 1.479 . S
C515 C516 1.375 . S
C515 C521 1.404 . S
C516 C515 1.375 . S
C516 C517 1.369 . S
C516 H529 0.950 1_545 S
C517 C516 1.369 . S
C517 C518 1.392 . S
C517 H530 0.951 1_545 S
C518 C517 1.392 . S
C518 C520 1.384 . S
H519 C521 0.949 . S
C520 C518 1.384 . S
C520 C521 1.385 . S
C520 H522 0.950 . S
C521 C515 1.404 . S
C521 H519 0.949 . S
C521 C520 1.385 . S
H522 C520 0.950 . S
H523 C507 0.951 1_565 S
H524 C509 0.951 1_565 S
H525 C511 0.951 . S
H526 C512 0.950 . S
H527 C513 0.950 . S
H528 C514 0.950 . S
H529 C516 0.950 1_565 S
H530 C517 0.951 1_565 S
C531 C532 1.386 . S
C531 C533 1.383 . S
C531 H547 0.951 . S
C532 C531 1.386 . S
C532 C536 1.383 . S
C533 C531 1.383 . S
C533 C534 1.402 . S
C533 H548 0.951 . S
C534 C533 1.402 . S
C534 C535 1.375 . S
C534 C537 1.481 . S
C535 C534 1.375 . S
C535 C536 1.367 . S
C535 H549 0.951 . S
C536 C532 1.383 . S
C536 C535 1.367 . S
C536 H550 0.950 . S
C537 C534 1.481 . S
C537 C538 1.297 . S
C537 H551 0.950 . S
C538 C537 1.297 . S
C538 C539 1.479 1_556 S
C538 H552 0.950 . S
C539 C538 1.479 1_554 S
C539 C540 1.375 . S
C539 C545 1.404 . S
C540 C539 1.375 . S
C540 C541 1.369 . S
C540 H553 0.950 . S
C541 C540 1.369 . S
C541 C542 1.392 . S
C541 H554 0.951 . S
C542 C541 1.392 . S
C542 C544 1.384 . S
H543 C545 0.949 . S
C544 C542 1.384 . S
C544 C545 1.385 . S
C544 H546 0.950 . S
C545 C539 1.404 . S
C545 H543 0.949 . S
C545 C544 1.385 . S
H546 C544 0.950 . S
H547 C531 0.951 . S
H548 C533 0.951 . S
H549 C535 0.951 . S
H550 C536 0.950 . S
H551 C537 0.950 . S
H552 C538 0.950 . S
H553 C540 0.950 . S
H554 C541 0.951 . S
C555 C556 1.386 . S
C555 C557 1.383 . S
C555 H571 0.951 . S
C556 C555 1.386 . S
C556 C560 1.383 . S
C557 C555 1.383 . S
C557 C558 1.402 . S
C557 H572 0.951 . S
C558 C557 1.402 . S
C558 C559 1.375 . S
C558 C561 1.481 . S
C559 C558 1.375 . S
C559 C560 1.367 . S
C559 H573 0.951 1_455 S
C560 C556 1.383 . S
C560 C559 1.367 . S
C560 H574 0.950 1_455 S
C561 C558 1.481 . S
C561 C562 1.297 . S
C561 H575 0.950 . S
C562 C561 1.297 . S
C562 C563 1.479 . S
C562 H576 0.950 . S
C563 C562 1.479 . S
C563 C564 1.375 . S
C563 C569 1.404 . S
C564 C563 1.375 . S
C564 C565 1.369 . S
C564 H577 0.950 . S
C565 C564 1.369 . S
C565 C566 1.392 . S
C565 H578 0.951 . S
C566 C565 1.392 . S
C566 C568 1.384 . S
H567 C569 0.949 . S
C568 C566 1.384 . S
C568 C569 1.385 . S
C568 H570 0.950 . S
C569 C563 1.404 . S
C569 H567 0.949 . S
C569 C568 1.385 . S
H570 C568 0.950 . S
H571 C555 0.951 . S
H572 C557 0.951 . S
H573 C559 0.951 1_655 S
H574 C560 0.950 1_655 S
H575 C561 0.950 . S
H576 C562 0.950 . S
H577 C564 0.950 . S
H578 C565 0.951 . S
C148 C20 1.235 . S
C158 C138 1.119 . S
C172 C41 1.251 . S
C182 C116 1.214 . S
C196 C64 1.251 . S
C206 C129 1.277 . S
C220 C19 1.158 . S
C230 C142 1.192 . S
C254 C112 1.133 . S
C244 C44 1.274 . S
C278 C125 1.125 . S
C268 C67 1.278 . S
C292 C43 1.125 . S
C302 C90 1.208 . S
C316 C66 1.129 . S
C326 C103 1.208 . S
C340 C21 1.274 . S
C350 C73 1.117 . S
C374 C86 1.136 . S
C364 C42 1.264 . S
C398 C99 1.251 . S
C388 C65 1.268 . S
C412 C18 1.215 . S
C422 C77 1.166 . S
C446 C104 1.488 . S
C436 C17 1.517 . S
C460 C39 1.535 . S
C470 C78 1.500 . S
C484 C62 1.530 . S
C494 C91 1.548 . S
C518 C130 1.491 . S
C508 C40 1.510 . S
C542 C143 1.543 . S
C532 C63 1.539 . S
C556 C16 1.515 . S
C566 C117 1.523 . S
