# Generated by pormake.
# Topology csq, (4,8)-cn, num edge types: 1
# Building blocks:
#     Node 0, Type 0, BuildingBlock: NAHDIM_clean_linker_0, # of connection points: 4
#     Node 1, Type 0, BuildingBlock: NAHDIM_clean_linker_0, # of connection points: 4
#     Node 2, Type 0, BuildingBlock: NAHDIM_clean_linker_0, # of connection points: 4
#     Node 3, Type 0, BuildingBlock: NAHDIM_clean_linker_0, # of connection points: 4
#     Node 4, Type 0, BuildingBlock: NAHDIM_clean_linker_0, # of connection points: 4
#     Node 5, Type 0, BuildingBlock: NAHDIM_clean_linker_0, # of connection points: 4
#     Node 6, Type 1, BuildingBlock: TAGTUT_clean_sbu_1, # of connection points: 8
#     Node 7, Type 1, BuildingBlock: TAGTUT_clean_sbu_1, # of connection points: 8
#     Node 8, Type 1, BuildingBlock: TAGTUT_clean_sbu_1, # of connection points: 8
#     Edge 9, Type (0, 1), BuildingBlock: CIFDUS_clean_linker_0, # of connection points: 2
#     Edge 10, Type (0, 1), BuildingBlock: CIFDUS_clean_linker_0, # of connection points: 2
#     Edge 11, Type (0, 1), BuildingBlock: CIFDUS_clean_linker_0, # of connection points: 2
#     Edge 12, Type (0, 1), BuildingBlock: CIFDUS_clean_linker_0, # of connection points: 2
#     Edge 13, Type (0, 1), BuildingBlock: CIFDUS_clean_linker_0, # of connection points: 2
#     Edge 14, Type (0, 1), BuildingBlock: CIFDUS_clean_linker_0, # of connection points: 2
#     Edge 15, Type (0, 1), BuildingBlock: CIFDUS_clean_linker_0, # of connection points: 2
#     Edge 16, Type (0, 1), BuildingBlock: CIFDUS_clean_linker_0, # of connection points: 2
#     Edge 17, Type (0, 1), BuildingBlock: CIFDUS_clean_linker_0, # of connection points: 2
#     Edge 18, Type (0, 1), BuildingBlock: CIFDUS_clean_linker_0, # of connection points: 2
#     Edge 19, Type (0, 1), BuildingBlock: CIFDUS_clean_linker_0, # of connection points: 2
#     Edge 20, Type (0, 1), BuildingBlock: CIFDUS_clean_linker_0, # of connection points: 2
#     Edge 21, Type (0, 1), BuildingBlock: CIFDUS_clean_linker_0, # of connection points: 2
#     Edge 22, Type (0, 1), BuildingBlock: CIFDUS_clean_linker_0, # of connection points: 2
#     Edge 23, Type (0, 1), BuildingBlock: CIFDUS_clean_linker_0, # of connection points: 2
#     Edge 24, Type (0, 1), BuildingBlock: CIFDUS_clean_linker_0, # of connection points: 2
#     Edge 25, Type (0, 1), BuildingBlock: CIFDUS_clean_linker_0, # of connection points: 2
#     Edge 26, Type (0, 1), BuildingBlock: CIFDUS_clean_linker_0, # of connection points: 2
#     Edge 27, Type (0, 1), BuildingBlock: CIFDUS_clean_linker_0, # of connection points: 2
#     Edge 28, Type (0, 1), BuildingBlock: CIFDUS_clean_linker_0, # of connection points: 2
#     Edge 29, Type (0, 1), BuildingBlock: CIFDUS_clean_linker_0, # of connection points: 2
#     Edge 30, Type (0, 1), BuildingBlock: CIFDUS_clean_linker_0, # of connection points: 2
#     Edge 31, Type (0, 1), BuildingBlock: CIFDUS_clean_linker_0, # of connection points: 2
#     Edge 32, Type (0, 1), BuildingBlock: CIFDUS_clean_linker_0, # of connection points: 2
# Relax obj value: 0.050
# Max RMSD: 0.133
# Mean RMSD: 0.088
data_MOF--net-csq--node1-TAGTUT_clean_sbu_1--node2-NAHDIM_clean_linker_0--edge1-CIFDUS_clean_linker_0
_symmetry_space_group_name_H-M    P1
_symmetry_Int_Tables_number       1
_symmetry_cell_setting            triclinic
loop_
_symmetry_equiv_pos_as_xyz
'x, y, z'
_cell_length_a     62.214058
_cell_length_b     61.177882
_cell_length_c     24.691492
_cell_angle_alpha  92.487704
_cell_angle_beta   92.175043
_cell_angle_gamma 119.94066
loop_
_atom_site_label
_atom_site_type_symbol
_atom_site_fract_x
_atom_site_fract_y
_atom_site_fract_z
_atom_type_partial_charge
C0 C 0.36673 0.48594 0.51954 0.0
C1 C 0.34041 0.47801 0.50388 0.0
C2 C 0.31494 0.46454 0.41757 0.0
C3 C 0.29927 0.44225 0.38579 0.0
C4 C 0.2808 0.44071 0.34886 0.0
C5 C 0.27854 0.46237 0.34247 0.0
C6 C 0.29513 0.48537 0.37274 0.0
C7 C 0.31318 0.48623 0.41012 0.0
C8 C 0.26333 0.41579 0.3177 0.0
C9 C 0.29357 0.50895 0.3661 0.0
C10 C 0.15054 0.43216 0.53485 0.0
C11 C 0.15002 0.45194 0.49953 0.0
C12 C 0.15903 0.44481 0.40771 0.0
C13 C 0.17768 0.46904 0.39651 0.0
C14 C 0.1953 0.47222 0.35919 0.0
C15 C 0.19439 0.45067 0.33305 0.0
C16 C 0.17481 0.42622 0.34232 0.0
C17 C 0.15709 0.42364 0.37899 0.0
C18 C 0.21548 0.4986 0.34927 0.0
C19 C 0.17328 0.40281 0.31545 0.0
C20 C 0.15121 0.43151 0.9659 0.0
C21 C 0.16757 0.45707 0.98243 0.0
C22 C 0.18852 0.46421 0.01789 0.0
C23 C 0.19325 0.44541 0.03674 0.0
C24 C 0.17709 0.4197 0.01907 0.0
C25 C 0.15635 0.41312 0.98339 0.0
C26 C 0.20571 0.49182 0.035 0.0
C27 C 0.18176 0.39919 0.03784 0.0
C28 C 0.35366 0.45133 0.96174 0.0
C29 C 0.34605 0.46645 0.92531 0.0
C30 C 0.32162 0.4774 0.98553 0.0
C31 C 0.32106 0.4972 0.01458 0.0
C32 C 0.30086 0.49279 0.04514 0.0
C33 C 0.28102 0.46774 0.04795 0.0
C34 C 0.28152 0.44754 0.01901 0.0
C35 C 0.30155 0.4526 0.98736 0.0
C36 C 0.30059 0.51497 0.07367 0.0
C37 C 0.26073 0.42054 0.02075 0.0
C38 C 0.2577 0.46041 0.30717 0.0
C39 C 0.23655 0.45681 0.33226 0.0
C40 C 0.21563 0.4537 0.3021 0.0
C41 C 0.21553 0.45373 0.24479 0.0
C42 C 0.19459 0.44991 0.21287 0.0
C43 C 0.19454 0.44937 0.15639 0.0
C44 C 0.21567 0.45329 0.12983 0.0
C45 C 0.2158 0.45264 0.07254 0.0
C46 C 0.23745 0.45783 0.04761 0.0
C47 C 0.25897 0.46278 0.0781 0.0
C48 C 0.25891 0.46233 0.13537 0.0
C49 C 0.2798 0.46599 0.16727 0.0
C50 C 0.27951 0.46549 0.22357 0.0
C51 C 0.25829 0.46126 0.25009 0.0
C52 C 0.23703 0.45766 0.21877 0.0
C53 C 0.23724 0.45787 0.16131 0.0
C54 C 0.08983 0.41315 0.95704 0.0
C55 C 0.11449 0.43357 0.93737 0.0
O56 O 0.33189 0.46448 0.45363 0.0
O57 O 0.34179 0.4831 0.95665 0.0
O58 O 0.13046 0.42406 0.93287 0.0
O59 O 0.14292 0.44139 0.44641 0.0
H60 H 0.33477 0.49243 0.512 0.0
H61 H 0.37665 0.50723 0.52346 0.0
H62 H 0.37541 0.48494 0.48094 0.0
H63 H 0.36432 0.46422 0.58582 0.0
H64 H 0.30113 0.42576 0.39122 0.0
H65 H 0.32602 0.5039 0.43277 0.0
H66 H 0.24376 0.41021 0.32459 0.0
H67 H 0.2667 0.40039 0.32964 0.0
H68 H 0.26563 0.4178 0.27352 0.0
H69 H 0.30987 0.52605 0.38656 0.0
H70 H 0.2765 0.50663 0.38389 0.0
H71 H 0.29224 0.51193 0.32233 0.0
H72 H 0.16922 0.46854 0.50267 0.0
H73 H 0.15865 0.44059 0.57652 0.0
H74 H 0.16244 0.42529 0.51718 0.0
H75 H 0.13153 0.41569 0.5367 0.0
H76 H 0.17861 0.48546 0.41741 0.0
H77 H 0.14234 0.40502 0.38739 0.0
H78 H 0.21804 0.50049 0.30511 0.0
H79 H 0.23331 0.50226 0.36958 0.0
H80 H 0.21131 0.51322 0.36538 0.0
H81 H 0.15689 0.38518 0.32694 0.0
H82 H 0.19039 0.40221 0.32703 0.0
H83 H 0.17215 0.4034 0.27062 0.0
H84 H 0.12189 0.44961 0.96899 0.0
H85 H 0.16415 0.47146 0.96713 0.0
H86 H 0.14376 0.39349 0.96977 0.0
H87 H 0.20757 0.49468 0.08003 0.0
H88 H 0.19901 0.50407 0.0182 0.0
H89 H 0.22451 0.49787 0.02103 0.0
H90 H 0.16716 0.38004 0.02117 0.0
H91 H 0.18251 0.39965 0.0829 0.0
H92 H 0.20005 0.40264 0.02506 0.0
H93 H 0.32885 0.45315 0.89982 0.0
H94 H 0.35753 0.4384 0.93637 0.0
H95 H 0.33869 0.43965 0.9882 0.0
H96 H 0.37058 0.46426 0.98831 0.0
H97 H 0.33647 0.51627 0.0127 0.0
H98 H 0.30124 0.437 0.96438 0.0
H99 H 0.30244 0.51412 0.11828 0.0
H100 H 0.28262 0.51413 0.06372 0.0
H101 H 0.31597 0.53338 0.06234 0.0
H102 H 0.26613 0.40675 0.00528 0.0
H103 H 0.24439 0.41772 0.99509 0.0
H104 H 0.25499 0.4164 0.06286 0.0
H105 H 0.23632 0.45632 0.37615 0.0
H106 H 0.17791 0.44698 0.23125 0.0
H107 H 0.1778 0.44603 0.13375 0.0
H108 H 0.23743 0.45761 0.00362 0.0
H109 H 0.29659 0.46918 0.149 0.0
H110 H 0.29614 0.46847 0.24611 0.0
H111 H 0.07645 0.42014 0.95937 0.0
H112 H 0.09306 0.4083 0.99825 0.0
H113 H 0.08149 0.39566 0.92947 0.0
C114 C 0.85876 0.35597 0.45212 0.0
C115 C 0.87355 0.35072 0.41043 0.0
C116 C 0.85045 0.32684 0.32725 0.0
C117 C 0.85987 0.3104 0.32021 0.0
C118 C 0.84588 0.28705 0.29015 0.0
C119 C 0.82203 0.28013 0.26675 0.0
C120 C 0.81276 0.29698 0.27281 0.0
C121 C 0.82731 0.32035 0.3025 0.0
C122 C 0.85653 0.26977 0.28335 0.0
C123 C 0.7874 0.29017 0.24833 0.0
C124 C 0.74935 0.1705 0.4899 0.0
C125 C 0.72676 0.15817 0.44868 0.0
C126 C 0.7404 0.15985 0.35723 0.0
C127 C 0.72901 0.1719 0.33178 0.0
C128 C 0.73963 0.18672 0.28799 0.0
C129 C 0.76201 0.18943 0.26935 0.0
C130 C 0.77226 0.17548 0.29192 0.0
C131 C 0.76111 0.16059 0.33538 0.0
C132 C 0.7278 0.20075 0.26388 0.0
C133 C 0.79595 0.17771 0.27269 0.0
C134 C 0.72814 0.13428 0.90205 0.0
C135 C 0.71884 0.14912 0.92435 0.0
C136 C 0.73417 0.17087 0.95864 0.0
C137 C 0.75924 0.17771 0.9714 0.0
C138 C 0.76867 0.16283 0.94854 0.0
C139 C 0.75305 0.14147 0.91347 0.0
C140 C 0.7237 0.18681 0.9804 0.0
C141 C 0.7953 0.16956 0.96098 0.0
C142 C 0.87935 0.37318 0.00335 0.0
C143 C 0.88945 0.35969 0.96758 0.0
C144 C 0.85493 0.31721 0.94391 0.0
C145 C 0.82925 0.30725 0.93878 0.0
C146 C 0.813 0.28307 0.95523 0.0
C147 C 0.82287 0.26842 0.9758 0.0
C148 C 0.84873 0.2775 0.97577 0.0
C149 C 0.86458 0.30199 0.96026 0.0
C150 C 0.78551 0.27386 0.95401 0.0
C151 C 0.85977 0.26197 0.99542 0.0
C152 C 0.80699 0.25549 0.23494 0.0
C153 C 0.79219 0.23426 0.26282 0.0
C154 C 0.77714 0.21052 0.23528 0.0
C155 C 0.77676 0.20778 0.17793 0.0
C156 C 0.7617 0.18435 0.14853 0.0
C157 C 0.76148 0.18211 0.09191 0.0
C158 C 0.77629 0.20325 0.06268 0.0
C159 C 0.77603 0.20144 0.00514 0.0
C160 C 0.79155 0.22282 0.97785 0.0
C161 C 0.80704 0.24615 0.00629 0.0
C162 C 0.80705 0.24848 0.06344 0.0
C163 C 0.8219 0.27197 0.09291 0.0
C164 C 0.82201 0.27423 0.14899 0.0
C165 C 0.80711 0.25316 0.17793 0.0
C166 C 0.79191 0.22926 0.14924 0.0
C167 C 0.79179 0.22695 0.09175 0.0
C168 C 0.68966 0.07002 0.88988 0.0
C169 C 0.68976 0.09463 0.88003 0.0
O170 O 0.86315 0.34883 0.35866 0.0
O171 O 0.86997 0.34156 0.93295 0.0
O172 O 0.71352 0.11305 0.86923 0.0
O173 O 0.73215 0.14793 0.40349 0.0
H174 H 0.87192 0.33239 0.42054 0.0
H175 H 0.83949 0.33965 0.45068 0.0
H176 H 0.85771 0.37308 0.44341 0.0
H177 H 0.86747 0.35858 0.4938 0.0
H178 H 0.87817 0.31586 0.3382 0.0
H179 H 0.82035 0.33334 0.30795 0.0
H180 H 0.8445 0.25172 0.30187 0.0
H181 H 0.87571 0.27831 0.30251 0.0
H182 H 0.85678 0.26516 0.23946 0.0
H183 H 0.78235 0.30476 0.25928 0.0
H184 H 0.77311 0.27179 0.2623 0.0
H185 H 0.78702 0.28793 0.2034 0.0
H186 H 0.72308 0.17349 0.4376 0.0
H187 H 0.74493 0.17781 0.5273 0.0
H188 H 0.76512 0.18665 0.47209 0.0
H189 H 0.75536 0.15686 0.50091 0.0
H190 H 0.7122 0.17026 0.34698 0.0
H191 H 0.7694 0.1507 0.35458 0.0
H192 H 0.72741 0.19922 0.21883 0.0
H193 H 0.73906 0.22111 0.27774 0.0
H194 H 0.70854 0.1935 0.27627 0.0
H195 H 0.80015 0.16375 0.29039 0.0
H196 H 0.8117 0.19702 0.28442 0.0
H197 H 0.7946 0.1749 0.2277 0.0
H198 H 0.68422 0.09986 0.91873 0.0
H199 H 0.69972 0.14393 0.91414 0.0
H200 H 0.76008 0.12998 0.89563 0.0
H201 H 0.72368 0.1866 0.02532 0.0
H202 H 0.70439 0.17991 0.96357 0.0
H203 H 0.73559 0.20675 0.97053 0.0
H204 H 0.79891 0.15446 0.94549 0.0
H205 H 0.79999 0.17306 0.00553 0.0
H206 H 0.80787 0.18727 0.94195 0.0
H207 H 0.89718 0.3508 0.99455 0.0
H208 H 0.8937 0.38653 0.03479 0.0
H209 H 0.86337 0.35906 0.02471 0.0
H210 H 0.87291 0.38369 0.97813 0.0
H211 H 0.82206 0.31906 0.92474 0.0
H212 H 0.88447 0.3094 0.96176 0.0
H213 H 0.77943 0.27156 0.99612 0.0
H214 H 0.77496 0.25506 0.93122 0.0
H215 H 0.78071 0.28711 0.93485 0.0
H216 H 0.87899 0.26927 0.98277 0.0
H217 H 0.84807 0.2419 0.97967 0.0
H218 H 0.86037 0.26255 0.04047 0.0
H219 H 0.79228 0.23628 0.30674 0.0
H220 H 0.74991 0.16754 0.16906 0.0
H221 H 0.74955 0.16363 0.07126 0.0
H222 H 0.79135 0.22135 0.93386 0.0
H223 H 0.83363 0.28902 0.07312 0.0
H224 H 0.83392 0.29278 0.16931 0.0
H225 H 0.67051 0.05465 0.89613 0.0
H226 H 0.70171 0.07288 0.92697 0.0
H227 H 0.69693 0.06409 0.85528 0.0
C228 C 0.48647 0.83255 0.34655 0.0
C229 C 0.513 0.84463 0.32837 0.0
C230 C 0.52437 0.83356 0.24335 0.0
C231 C 0.54943 0.84152 0.2566 0.0
C232 C 0.56139 0.83064 0.2286 0.0
C233 C 0.54777 0.81105 0.1874 0.0
C234 C 0.52251 0.80327 0.17356 0.0
C235 C 0.51135 0.81516 0.20094 0.0
C236 C 0.58843 0.83979 0.24369 0.0
C237 C 0.50701 0.78192 0.13108 0.0
C238 C 0.60382 0.66967 0.2168 0.0
C239 C 0.58675 0.6735 0.25438 0.0
C240 C 0.56995 0.69933 0.21887 0.0
C241 C 0.54803 0.69764 0.19772 0.0
C242 C 0.54711 0.71931 0.18568 0.0
C243 C 0.56882 0.74331 0.19497 0.0
C244 C 0.59059 0.74538 0.22028 0.0
C245 C 0.59112 0.72332 0.23117 0.0
C246 C 0.52346 0.71639 0.15918 0.0
C247 C 0.61393 0.77075 0.23118 0.0
C248 C 0.61707 0.7213 0.90686 0.0
C249 C 0.59145 0.71268 0.90084 0.0
C250 C 0.58263 0.7297 0.90647 0.0
C251 C 0.59976 0.75571 0.91886 0.0
C252 C 0.62557 0.76468 0.91886 0.0
C253 C 0.6339 0.74728 0.91256 0.0
C254 C 0.55497 0.71961 0.90426 0.0
C255 C 0.64433 0.79238 0.93041 0.0
C256 C 0.50937 0.84455 0.76701 0.0
C257 C 0.52848 0.86252 0.81227 0.0
C258 C 0.55537 0.84565 0.84079 0.0
C259 C 0.53733 0.82375 0.86306 0.0
C260 C 0.54425 0.80895 0.89272 0.0
C261 C 0.56982 0.81689 0.90224 0.0
C262 C 0.58798 0.83884 0.87934 0.0
C263 C 0.58041 0.85266 0.84802 0.0
C264 C 0.52415 0.78496 0.91413 0.0
C265 C 0.61537 0.84796 0.88863 0.0
C266 C 0.55944 0.79768 0.16105 0.0
C267 C 0.56159 0.77964 0.19019 0.0
C268 C 0.57033 0.76474 0.1663 0.0
C269 C 0.57747 0.76798 0.11233 0.0
C270 C 0.58656 0.75338 0.08748 0.0
C271 C 0.59188 0.75533 0.03341 0.0
C272 C 0.58768 0.77144 0.00136 0.0
C273 C 0.59111 0.77196 0.94508 0.0
C274 C 0.5856 0.78722 0.91377 0.0
C275 C 0.57747 0.80275 0.93786 0.0
C276 C 0.57519 0.80343 0.99465 0.0
C277 C 0.5684 0.8198 0.02074 0.0
C278 C 0.56407 0.81863 0.07576 0.0
C279 C 0.56614 0.80089 0.10657 0.0
C280 C 0.5747 0.78558 0.08192 0.0
C281 C 0.57945 0.78702 0.02606 0.0
C282 C 0.63102 0.67366 0.95132 0.0
C283 C 0.61322 0.68017 0.92137 0.0
O284 O 0.51214 0.84274 0.27216 0.0
O285 O 0.5495 0.8602 0.81086 0.0
O286 O 0.62622 0.7053 0.90932 0.0
O287 O 0.56998 0.67734 0.22397 0.0
H288 H 0.5212 0.83359 0.34545 0.0
H289 H 0.47593 0.81225 0.33178 0.0
H290 H 0.47666 0.84204 0.32988 0.0
H291 H 0.48671 0.83382 0.39163 0.0
H292 H 0.55955 0.85615 0.28897 0.0
H293 H 0.492 0.80928 0.1911 0.0
H294 H 0.59 0.82504 0.2652 0.0
H295 H 0.59726 0.85752 0.2706 0.0
H296 H 0.59887 0.84311 0.20654 0.0
H297 H 0.48684 0.77516 0.13259 0.0
H298 H 0.51005 0.76571 0.13645 0.0
H299 H 0.51257 0.78853 0.09008 0.0
H300 H 0.59898 0.69015 0.28291 0.0
H301 H 0.61592 0.66436 0.24023 0.0
H302 H 0.61594 0.68761 0.19796 0.0
H303 H 0.59283 0.6549 0.18358 0.0
H304 H 0.5318 0.67908 0.18869 0.0
H305 H 0.60848 0.72512 0.24647 0.0
H306 H 0.52636 0.72138 0.11632 0.0
H307 H 0.51855 0.72952 0.18033 0.0
H308 H 0.50759 0.69677 0.15957 0.0
H309 H 0.62752 0.76983 0.26016 0.0
H310 H 0.60941 0.78505 0.24772 0.0
H311 H 0.62282 0.77721 0.19242 0.0
H312 H 0.59861 0.67723 0.94965 0.0
H313 H 0.57824 0.69266 0.89387 0.0
H314 H 0.65364 0.75381 0.91561 0.0
H315 H 0.54903 0.71898 0.94628 0.0
H316 H 0.54436 0.70021 0.88403 0.0
H317 H 0.55021 0.73226 0.88233 0.0
H318 H 0.66339 0.79679 0.92133 0.0
H319 H 0.64455 0.79785 0.97398 0.0
H320 H 0.63903 0.80401 0.90602 0.0
H321 H 0.52033 0.8577 0.85238 0.0
H322 H 0.51636 0.85064 0.72642 0.0
H323 H 0.49137 0.84404 0.77 0.0
H324 H 0.50581 0.825 0.77023 0.0
H325 H 0.51784 0.81791 0.85681 0.0
H326 H 0.59411 0.86947 0.83003 0.0
H327 H 0.52242 0.78857 0.95772 0.0
H328 H 0.52878 0.76964 0.91063 0.0
H329 H 0.50579 0.77827 0.89212 0.0
H330 H 0.62714 0.86694 0.87348 0.0
H331 H 0.61968 0.83441 0.86726 0.0
H332 H 0.6204 0.8488 0.93262 0.0
H333 H 0.55547 0.77647 0.23114 0.0
H334 H 0.5895 0.74002 0.1092 0.0
H335 H 0.59872 0.74346 0.01696 0.0
H336 H 0.5873 0.78674 0.87023 0.0
H337 H 0.56599 0.83344 0.99873 0.0
H338 H 0.55849 0.83137 0.09354 0.0
H339 H 0.62096 0.65361 0.96173 0.0
H340 H 0.63898 0.6859 0.98964 0.0
H341 H 0.64653 0.67669 0.92595 0.0
C342 C 0.90831 0.5961 0.33203 0.0
C343 C 0.88901 0.58121 0.37279 0.0
C344 C 0.85091 0.55943 0.31171 0.0
C345 C 0.83359 0.53614 0.28529 0.0
C346 C 0.81501 0.53404 0.24787 0.0
C347 C 0.81404 0.55596 0.23617 0.0
C348 C 0.83143 0.57962 0.26289 0.0
C349 C 0.84946 0.58107 0.30098 0.0
C350 C 0.79639 0.50844 0.22094 0.0
C351 C 0.8309 0.60339 0.25138 0.0
C352 C 0.65242 0.53971 0.38655 0.0
C353 C 0.67631 0.54686 0.36199 0.0
C354 C 0.69246 0.54223 0.27674 0.0
C355 C 0.71389 0.56612 0.27683 0.0
C356 C 0.7336 0.56984 0.2453 0.0
C357 C 0.732 0.54912 0.21371 0.0
C358 C 0.71005 0.52518 0.21235 0.0
C359 C 0.69035 0.52221 0.24312 0.0
C360 C 0.75639 0.5958 0.24696 0.0
C361 C 0.70771 0.50249 0.18 0.0
C362 C 0.71155 0.56659 0.85691 0.0
C363 C 0.73268 0.58791 0.88215 0.0
C364 C 0.74994 0.58522 0.91515 0.0
C365 C 0.74598 0.56074 0.92294 0.0
C366 C 0.7252 0.5393 0.89605 0.0
C367 C 0.70831 0.54256 0.863 0.0
C368 C 0.77231 0.60851 0.94215 0.0
C369 C 0.72063 0.51298 0.90308 0.0
C370 C 0.86001 0.54656 0.75452 0.0
C371 C 0.87916 0.55077 0.80075 0.0
C372 C 0.85277 0.54366 0.87768 0.0
C373 C 0.85498 0.56767 0.88313 0.0
C374 C 0.83911 0.57194 0.91537 0.0
C375 C 0.82027 0.55167 0.94163 0.0
C376 C 0.8183 0.52756 0.93674 0.0
C377 C 0.83498 0.5241 0.90581 0.0
C378 C 0.84219 0.59805 0.92041 0.0
C379 C 0.79809 0.50515 0.96251 0.0
C380 C 0.79423 0.55413 0.19778 0.0
C381 C 0.77305 0.55223 0.21967 0.0
C382 C 0.75412 0.55189 0.18674 0.0
C383 C 0.75647 0.55377 0.1301 0.0
C384 C 0.73848 0.55484 0.09595 0.0
C385 C 0.74084 0.55635 0.04019 0.0
C386 C 0.76114 0.55654 0.01641 0.0
C387 C 0.76351 0.55767 0.95976 0.0
C388 C 0.78309 0.55635 0.93707 0.0
C389 C 0.80119 0.55497 0.96965 0.0
C390 C 0.80005 0.55552 0.02684 0.0
C391 C 0.81882 0.55606 0.06135 0.0
C392 C 0.81717 0.55598 0.11745 0.0
C393 C 0.79645 0.5549 0.14105 0.0
C394 C 0.77749 0.55475 0.10711 0.0
C395 C 0.77957 0.55562 0.05009 0.0
C396 C 0.6642 0.58164 0.80938 0.0
C397 C 0.68949 0.58852 0.83083 0.0
O398 O 0.86866 0.56009 0.34668 0.0
O399 O 0.86714 0.53837 0.84558 0.0
O400 O 0.69387 0.56841 0.8269 0.0
O401 O 0.67343 0.53798 0.30798 0.0
H402 H 0.88283 0.59353 0.39312 0.0
H403 H 0.9006 0.60331 0.3009 0.0
H404 H 0.91436 0.58388 0.31086 0.0
H405 H 0.92485 0.61267 0.35339 0.0
H406 H 0.83471 0.51952 0.29412 0.0
H407 H 0.86233 0.59917 0.3219 0.0
H408 H 0.77722 0.50424 0.228 0.0
H409 H 0.79901 0.49307 0.23629 0.0
H410 H 0.79817 0.50857 0.17638 0.0
H411 H 0.84722 0.62065 0.27127 0.0
H412 H 0.81376 0.60212 0.26637 0.0
H413 H 0.83045 0.60533 0.20691 0.0
H414 H 0.69105 0.567 0.37079 0.0
H415 H 0.65019 0.51487 0.44576 0.0
H416 H 0.63793 0.53392 0.35177 0.0
H417 H 0.65321 0.55821 0.39718 0.0
H418 H 0.71524 0.58198 0.30106 0.0
H419 H 0.67355 0.50393 0.24277 0.0
H420 H 0.77128 0.59621 0.27392 0.0
H421 H 0.75263 0.61073 0.26299 0.0
H422 H 0.76339 0.60029 0.20585 0.0
H423 H 0.69028 0.4848 0.18684 0.0
H424 H 0.72377 0.49997 0.191 0.0
H425 H 0.70793 0.50558 0.13603 0.0
H426 H 0.69522 0.59922 0.87149 0.0
H427 H 0.7358 0.60668 0.87612 0.0
H428 H 0.6921 0.52626 0.84278 0.0
H429 H 0.77152 0.60809 0.98696 0.0
H430 H 0.77338 0.62626 0.92987 0.0
H431 H 0.7896 0.60868 0.93174 0.0
H432 H 0.70336 0.49822 0.88003 0.0
H433 H 0.71923 0.50926 0.94681 0.0
H434 H 0.7366 0.51141 0.8891 0.0
H435 H 0.89104 0.57135 0.81213 0.0
H436 H 0.84788 0.52603 0.74291 0.0
H437 H 0.86948 0.55627 0.71834 0.0
H438 H 0.84816 0.5544 0.76734 0.0
H439 H 0.86898 0.58315 0.86242 0.0
H440 H 0.83354 0.5057 0.90165 0.0
H441 H 0.84038 0.6032 0.96301 0.0
H442 H 0.82735 0.59826 0.89446 0.0
H443 H 0.86047 0.61264 0.9073 0.0
H444 H 0.79684 0.48708 0.94801 0.0
H445 H 0.77976 0.50367 0.95361 0.0
H446 H 0.80194 0.50767 0.00725 0.0
H447 H 0.77134 0.55115 0.2632 0.0
H448 H 0.72241 0.55458 0.11205 0.0
H449 H 0.72639 0.55707 0.01584 0.0
H450 H 0.7842 0.55634 0.89331 0.0
H451 H 0.83504 0.55663 0.04528 0.0
H452 H 0.83218 0.55642 0.14207 0.0
H453 H 0.67057 0.60353 0.7417 0.0
H454 H 0.65482 0.58382 0.8457 0.0
H455 H 0.6528 0.56034 0.80599 0.0
C456 C 0.3248 0.82882 0.79008 0.0
C457 C 0.33439 0.85498 0.81899 0.0
C458 C 0.32154 0.84666 0.91118 0.0
C459 C 0.30604 0.85707 0.91573 0.0
C460 C 0.28683 0.84764 0.95136 0.0
C461 C 0.28296 0.82722 0.98248 0.0
C462 C 0.2996 0.81778 0.98026 0.0
C463 C 0.31901 0.82801 0.94522 0.0
C464 C 0.26991 0.85866 0.95365 0.0
C465 C 0.29595 0.79579 0.01209 0.0
C466 C 0.13658 0.70859 0.74028 0.0
C467 C 0.13954 0.70122 0.79735 0.0
C468 C 0.15635 0.73207 0.87555 0.0
C469 C 0.17108 0.72341 0.90061 0.0
C470 C 0.19034 0.73901 0.93954 0.0
C471 C 0.19455 0.76349 0.95434 0.0
C472 C 0.17897 0.77178 0.93112 0.0
C473 C 0.15991 0.75582 0.8921 0.0
C474 C 0.20633 0.72945 0.96453 0.0
C475 C 0.18271 0.7976 0.94703 0.0
C476 C 0.13339 0.72242 0.25604 0.0
C477 C 0.15165 0.71562 0.24953 0.0
C478 C 0.1764 0.73414 0.24327 0.0
C479 C 0.18285 0.75985 0.24303 0.0
C480 C 0.16489 0.76686 0.25433 0.0
C481 C 0.14038 0.74798 0.26126 0.0
C482 C 0.19529 0.72608 0.23321 0.0
C483 C 0.17121 0.7941 0.2554 0.0
C484 C 0.3423 0.92408 0.35088 0.0
C485 C 0.33718 0.90673 0.39781 0.0
C486 C 0.31038 0.86541 0.34703 0.0
C487 C 0.30991 0.84381 0.32459 0.0
C488 C 0.28986 0.82596 0.28964 0.0
C489 C 0.27002 0.83021 0.27584 0.0
C490 C 0.26997 0.85164 0.29977 0.0
C491 C 0.28991 0.86876 0.33592 0.0
C492 C 0.29009 0.80279 0.26688 0.0
C493 C 0.24898 0.85664 0.28673 0.0
C494 C 0.25911 0.8127 0.00832 0.0
C495 C 0.23837 0.79638 0.9736 0.0
C496 C 0.21545 0.78053 0.99378 0.0
C497 C 0.21293 0.78046 0.05023 0.0
C498 C 0.19016 0.7642 0.07157 0.0
C499 C 0.18799 0.76363 0.12721 0.0
C500 C 0.20848 0.77939 0.16381 0.0
C501 C 0.20649 0.77834 0.22058 0.0
C502 C 0.22688 0.79484 0.25596 0.0
C503 C 0.24945 0.81248 0.236 0.0
C504 C 0.25199 0.81331 0.17915 0.0
C505 C 0.27445 0.83047 0.15734 0.0
C506 C 0.2769 0.83041 0.10138 0.0
C507 C 0.25684 0.81354 0.06512 0.0
C508 C 0.23372 0.79694 0.08613 0.0
C509 C 0.23141 0.79657 0.1431 0.0
C510 C 0.07255 0.67624 0.20227 0.0
C511 C 0.0968 0.6808 0.23104 0.0
O512 O 0.33896 0.85413 0.87411 0.0
O513 O 0.33101 0.88253 0.37833 0.0
O514 O 0.10888 0.70501 0.25658 0.0
O515 O 0.13871 0.71814 0.83514 0.0
H516 H 0.31993 0.86042 0.8123 0.0
H517 H 0.30707 0.8149 0.80657 0.0
H518 H 0.33853 0.82242 0.79621 0.0
H519 H 0.32123 0.8293 0.74582 0.0
H520 H 0.30872 0.87232 0.89101 0.0
H521 H 0.33146 0.82049 0.94197 0.0
H522 H 0.25226 0.84586 0.92924 0.0
H523 H 0.27839 0.87757 0.93702 0.0
H524 H 0.26531 0.86032 0.99611 0.0
H525 H 0.31016 0.79027 0.00465 0.0
H526 H 0.27724 0.77918 0.00099 0.0
H527 H 0.29694 0.8008 0.05619 0.0
H528 H 0.15798 0.70235 0.80017 0.0
H529 H 0.13701 0.6952 0.70904 0.0
H530 H 0.1521 0.72789 0.73448 0.0
H531 H 0.11877 0.70856 0.73418 0.0
H532 H 0.1676 0.70452 0.88986 0.0
H533 H 0.14811 0.76208 0.87317 0.0
H534 H 0.20519 0.72964 0.00929 0.0
H535 H 0.22607 0.7422 0.95635 0.0
H536 H 0.20067 0.70994 0.94848 0.0
H537 H 0.16858 0.80095 0.92623 0.0
H538 H 0.20147 0.81238 0.93678 0.0
H539 H 0.18179 0.7997 0.99165 0.0
H540 H 0.10814 0.67907 0.19908 0.0
H541 H 0.14655 0.69588 0.24808 0.0
H542 H 0.12622 0.75303 0.26774 0.0
H543 H 0.19865 0.72674 0.18932 0.0
H544 H 0.18883 0.70654 0.24493 0.0
H545 H 0.21326 0.73922 0.25618 0.0
H546 H 0.15545 0.79657 0.26719 0.0
H547 H 0.17642 0.80126 0.21459 0.0
H548 H 0.18747 0.80583 0.28453 0.0
H549 H 0.32169 0.9058 0.42059 0.0
H550 H 0.34844 0.94369 0.36713 0.0
H551 H 0.32541 0.9177 0.32353 0.0
H552 H 0.35703 0.92436 0.32629 0.0
H553 H 0.32555 0.84112 0.3341 0.0
H554 H 0.28947 0.88482 0.35463 0.0
H555 H 0.29344 0.80442 0.22303 0.0
H556 H 0.27179 0.78557 0.27061 0.0
H557 H 0.30482 0.80037 0.28778 0.0
H558 H 0.25312 0.87559 0.30349 0.0
H559 H 0.23187 0.84211 0.30414 0.0
H560 H 0.24508 0.85522 0.24205 0.0
H561 H 0.2402 0.79571 0.93008 0.0
H562 H 0.17378 0.75153 0.0455 0.0
H563 H 0.16995 0.75057 0.14097 0.0
H564 H 0.22512 0.79408 0.29948 0.0
H565 H 0.29051 0.84393 0.18331 0.0
H566 H 0.29466 0.84373 0.08675 0.0
H567 H 0.06018 0.67744 0.23213 0.0
H568 H 0.06266 0.65731 0.17977 0.0
H569 H 0.07666 0.69076 0.17263 0.0
C570 C 0.40121 0.31528 0.47535 0.0
C571 C 0.42686 0.31899 0.46492 0.0
C572 C 0.43951 0.30229 0.38981 0.0
C573 C 0.46346 0.30859 0.40983 0.0
C574 C 0.47549 0.29645 0.38734 0.0
C575 C 0.46299 0.27723 0.34494 0.0
C576 C 0.43841 0.27024 0.32619 0.0
C577 C 0.42728 0.2834 0.34795 0.0
C578 C 0.50173 0.30458 0.40799 0.0
C579 C 0.42394 0.24915 0.28258 0.0
C580 C 0.49929 0.11935 0.42815 0.0
C581 C 0.49025 0.13329 0.39565 0.0
C582 C 0.4977 0.17635 0.38944 0.0
C583 C 0.47724 0.16973 0.35258 0.0
C584 C 0.47343 0.18841 0.33076 0.0
C585 C 0.49094 0.21423 0.34442 0.0
C586 C 0.5113 0.22094 0.38218 0.0
C587 C 0.51423 0.20184 0.40465 0.0
C588 C 0.451 0.18049 0.29201 0.0
C589 C 0.53028 0.24827 0.39775 0.0
C590 C 0.50822 0.18819 0.99707 0.0
C591 C 0.48736 0.18337 0.02557 0.0
C592 C 0.48647 0.20292 0.05513 0.0
C593 C 0.50761 0.22758 0.05966 0.0
C594 C 0.5288 0.23247 0.0315 0.0
C595 C 0.52854 0.21278 -0.0005 0.0
C596 C 0.46268 0.19691 0.08117 0.0
C597 C 0.55178 0.25834 0.03551 0.0
C598 C 0.4882 0.3872 0.09648 0.0
C599 C 0.49895 0.38662 0.04202 0.0
C600 C 0.49274 0.34354 0.03534 0.0
C601 C 0.47403 0.31842 0.02356 0.0
C602 C 0.4766 0.29843 0.04196 0.0
C603 C 0.49884 0.30383 0.07141 0.0
C604 C 0.51858 0.32911 0.08006 0.0
C605 C 0.51522 0.34877 0.0626 0.0
C606 C 0.45514 0.27169 0.03218 0.0
C607 C 0.54287 0.33545 0.10976 0.0
C608 C 0.47608 0.26569 0.31726 0.0
C609 C 0.47881 0.24714 0.34268 0.0
C610 C 0.489 0.23411 0.31608 0.0
C611 C 0.49601 0.23913 0.26219 0.0
C612 C 0.50552 0.22579 0.23347 0.0
C613 C 0.50992 0.22909 0.17881 0.0
C614 C 0.50555 0.24628 0.15125 0.0
C615 C 0.50732 0.24786 0.09447 0.0
C616 C 0.50534 0.26691 0.06936 0.0
C617 C 0.50035 0.28363 0.09927 0.0
C618 C 0.49588 0.28049 0.15487 0.0
C619 C 0.48841 0.29535 0.18486 0.0
C620 C 0.48258 0.29103 0.23852 0.0
C621 C 0.48402 0.27171 0.26433 0.0
C622 C 0.49311 0.25772 0.23605 0.0
C623 C 0.49852 0.26174 0.18089 0.0
C624 C 0.49609 0.12878 0.92321 0.0
C625 C 0.49533 0.14404 0.97094 0.0
O626 O 0.42778 0.31417 0.41009 0.0
O627 O 0.48821 0.36193 0.0197 0.0
O628 O 0.50923 0.1699 0.96589 0.0
O629 O 0.50221 0.15891 0.41128 0.0
H630 H 0.42877 0.30476 0.48827 0.0
H631 H 0.38667 0.29544 0.4631 0.0
H632 H 0.39728 0.32806 0.4516 0.0
H633 H 0.40009 0.31909 0.51927 0.0
H634 H 0.47305 0.32342 0.44194 0.0
H635 H 0.40872 0.27863 0.33309 0.0
H636 H 0.50197 0.28874 0.42775 0.0
H637 H 0.50959 0.32125 0.43791 0.0
H638 H 0.51392 0.30927 0.37355 0.0
H639 H 0.40365 0.24205 0.28242 0.0
H640 H 0.42721 0.2331 0.28818 0.0
H641 H 0.43013 0.25625 0.24221 0.0
H642 H 0.46959 0.12411 0.39112 0.0
H643 H 0.48285 0.10597 0.45059 0.0
H644 H 0.50985 0.13197 0.46569 0.0
H645 H 0.51598 0.10672 0.37134 0.0
H646 H 0.46416 0.15012 0.34037 0.0
H647 H 0.52985 0.20675 0.43335 0.0
H648 H 0.45685 0.18323 0.24977 0.0
H649 H 0.44237 0.19226 0.30068 0.0
H650 H 0.43674 0.16027 0.29434 0.0
H651 H 0.54563 0.25033 0.42594 0.0
H652 H 0.5211 0.25776 0.41763 0.0
H653 H 0.5383 0.2582 0.36074 0.0
H654 H 0.4986 0.13853 0.01157 0.0
H655 H 0.4714 0.16456 0.02424 0.0
H656 H 0.54452 0.21638 0.97716 0.0
H657 H 0.46413 0.19298 0.12418 0.0
H658 H 0.44637 0.17988 0.06049 0.0
H659 H 0.4591 0.21296 0.08027 0.0
H660 H 0.56797 0.25793 0.01907 0.0
H661 H 0.55672 0.26622 0.07844 0.0
H662 H 0.54808 0.27132 0.01206 0.0
H663 H 0.51941 0.39512 0.0485 0.0
H664 H 0.49639 0.407 0.11393 0.0
H665 H 0.49267 0.37651 0.12573 0.0
H666 H 0.46766 0.37849 0.09122 0.0
H667 H 0.45691 0.31459 0.0018 0.0
H668 H 0.53023 0.36802 0.07068 0.0
H669 H 0.44919 0.26325 0.07165 0.0
H670 H 0.46114 0.25999 0.00882 0.0
H671 H 0.43891 0.27075 0.00942 0.0
H672 H 0.55773 0.35515 0.10462 0.0
H673 H 0.54913 0.32226 0.09509 0.0
H674 H 0.54017 0.33327 0.1538 0.0
H675 H 0.4725 0.24243 0.38314 0.0
H676 H 0.50895 0.21209 0.25237 0.0
H677 H 0.51648 0.21779 0.15814 0.0
H678 H 0.50692 0.26829 0.02589 0.0
H679 H 0.48633 0.31007 0.16689 0.0
H680 H 0.47659 0.30282 0.25925 0.0
H681 H 0.506 0.11901 0.93955 0.0
H682 H 0.51207 0.14206 0.89943 0.0
H683 H 0.45876 0.10875 0.88978 0.0
C684 C 0.98584 0.4477 0.75744 0.0
C685 C 0.06263 0.48653 0.71999 0.0
C686 C 0.04877 0.56703 0.70058 0.0
Mg687 Mg 0.0132 0.46163 0.65108 0.0
O688 O 0.00955 0.48986 0.66521 0.0
Mg689 Mg 0.02348 0.50948 0.73701 0.0
Mg690 Mg 0.02303 0.5175 0.61531 0.0
O691 O 0.03619 0.54523 0.5652 0.0
Mg692 Mg 0.02833 0.57038 0.58236 0.0
Mg693 Mg 0.02008 0.52483 0.49442 0.0
C694 C 0.99482 0.46666 0.53173 0.0
C695 C 0.06228 0.51207 0.53936 0.0
O696 O 0.99759 0.47118 0.77511 0.0
O697 O 0.98857 0.44006 0.71043 0.0
O698 O 0.05533 0.5007 0.74237 0.0
O699 O 0.04993 0.47052 0.68032 0.0
O700 O -0.00036 0.45402 0.56564 0.0
O701 O -0.00028 0.48941 0.54416 0.0
C702 C 0.98328 0.52381 0.68857 0.0
O703 O 0.99171 0.52512 0.64144 0.0
O704 O 0.99195 0.51788 0.72956 0.0
O705 O 0.04226 0.56382 0.45444 0.0
O706 O 0.04819 0.59364 0.51963 0.0
O707 O 0.98611 0.53034 0.4937 0.0
C708 C 0.05096 0.58717 0.47148 0.0
O709 O 0.9899 0.55729 0.56169 0.0
O710 O 0.04261 0.57868 0.66672 0.0
C711 C 0.97739 0.54194 0.52119 0.0
O712 O 0.04623 0.54519 0.68811 0.0
O713 O 0.05427 0.51029 0.58725 0.0
O714 O 0.05294 0.5181 0.49944 0.0
C715 C 0.48249 0.04517 0.77459 0.0
C716 C 0.44661 0.9712 0.69019 0.0
C717 C 0.53682 0.98151 0.68912 0.0
Mg718 Mg 0.47518 0.02549 0.654 0.0
O719 O 0.50586 0.02803 0.67288 0.0
Mg720 Mg 0.50665 0.00862 0.73579 0.0
Mg721 Mg 0.52036 0.01517 0.61814 0.0
O722 O 0.53456 0.00211 0.5634 0.0
Mg723 Mg 0.56456 0.00294 0.58042 0.0
Mg724 Mg 0.53294 0.02018 0.49917 0.0
C725 C 0.50203 0.04595 0.54391 0.0
C726 C 0.47652 0.97916 0.52477 0.0
O727 O 0.49283 0.03204 0.78591 0.0
O728 O 0.47522 0.04633 0.72603 0.0
O729 O 0.46629 0.97674 0.71933 0.0
O730 O 0.44594 0.98683 0.6586 0.0
O731 O 0.48407 0.04102 0.57448 0.0
O732 O 0.51979 0.04174 0.55679 0.0
C733 C 0.56339 0.05044 0.71345 0.0
O734 O 0.55884 0.04443 0.66198 0.0
O735 O 0.54666 0.03995 0.74731 0.0
O736 O 0.54399 0.99425 0.44951 0.0
O737 O 0.56231 0.98064 0.50884 0.0
O738 O 0.57418 0.0516 0.51357 0.0
C739 C 0.55358 0.98043 0.46084 0.0
O740 O 0.59431 0.04089 0.57406 0.0
O741 O 0.55458 0.98596 0.65825 0.0
C742 C 0.59389 0.05653 0.5421 0.0
O743 O 0.52071 0.98824 0.67793 0.0
O744 O 0.48191 0.98571 0.5758 0.0
O745 O 0.49259 0.98928 0.48951 0.0
C746 C 0.53226 0.5591 0.43918 0.0
C747 C 0.57842 0.5358 0.52363 0.0
C748 C 0.49519 0.45832 0.58483 0.0
Mg749 Mg 0.55169 0.56421 0.55839 0.0
O750 O 0.52127 0.53457 0.55918 0.0
Mg751 Mg 0.51538 0.5061 0.50514 0.0
Mg752 Mg 0.51566 0.51735 0.62769 0.0
O753 O 0.51029 0.50012 0.69659 0.0
Mg754 Mg 0.48021 0.47018 0.69951 0.0
Mg755 Mg 0.51637 0.52878 0.74983 0.0
C756 C 0.5389 0.57583 0.67531 0.0
C757 C 0.56844 0.54111 0.69854 0.0
O758 O 0.52157 0.53475 0.43773 0.0
O759 O 0.544 0.57346 0.48186 0.0
O760 O 0.55722 0.51786 0.50395 0.0
O761 O 0.58046 0.55505 0.55061 0.0
O762 O 0.55176 0.58356 0.6337 0.0
O763 O 0.5213 0.55278 0.6769 0.0
C764 C 0.46315 0.49428 0.55563 0.0
O765 O 0.47441 0.50214 0.60318 0.0
O766 O 0.47452 0.49444 0.51312 0.0
O767 O 0.51192 0.50149 0.81746 0.0
O768 O 0.48707 0.46198 0.7793 0.0
O769 O 0.4742 0.51574 0.75264 0.0
C770 C 0.50011 0.47732 0.81991 0.0
O771 O 0.45133 0.47928 0.70289 0.0
O772 O 0.48279 0.45056 0.62711 0.0
C773 C 0.45313 0.49795 0.73185 0.0
O774 O 0.50997 0.48192 0.57888 0.0
O775 O 0.55697 0.53262 0.65139 0.0
O776 O 0.55723 0.54124 0.74107 0.0
H777 H 0.13721 0.48153 0.4452 0.0
H778 H 0.12527 0.44554 0.59674 0.0
H779 H 0.09924 0.46267 0.62299 0.0
H780 H 0.07833 0.48666 0.60207 0.0
H781 H 0.08925 0.52172 0.44994 0.0
H782 H 0.11725 0.50642 0.42547 0.0
C783 C 0.12876 0.47724 0.48381 0.0
C784 C 0.13292 0.46163 0.51773 0.0
C785 C 0.11363 0.48714 0.49899 0.0
C786 C 0.12228 0.45692 0.56851 0.0
C787 C 0.10733 0.46686 0.584 0.0
C788 C 0.08697 0.49114 0.56385 0.0
C789 C 0.08148 0.50518 0.52794 0.0
C790 C 0.10271 0.48183 0.5494 0.0
C791 C 0.09296 0.51082 0.4784 0.0
C792 C 0.10896 0.50203 0.46421 0.0
H793 H 0.68199 0.15542 0.45989 0.0
H794 H 0.72064 0.11463 0.49084 0.0
H795 H 0.68387 0.08128 0.5293 0.0
H796 H 0.64003 0.06251 0.5489 0.0
H797 H 0.6002 0.1014 0.51035 0.0
H798 H 0.63823 0.13692 0.48085 0.0
C799 C 0.68239 0.1393 0.4754 0.0
C800 C 0.70411 0.13766 0.47318 0.0
C801 C 0.661 0.11992 0.49623 0.0
C802 C 0.70426 0.1165 0.49279 0.0
C803 C 0.68324 0.09741 0.51466 0.0
C804 C 0.6398 0.07898 0.53504 0.0
C805 C 0.61742 0.07944 0.53209 0.0
C806 C 0.66145 0.09882 0.51615 0.0
C807 C 0.61726 0.10067 0.51306 0.0
C808 C 0.63894 0.1209 0.49596 0.0
H809 H 0.57253 0.622 0.23905 0.0
H810 H 0.56602 0.67594 0.34597 0.0
H811 H 0.54267 0.64294 0.40661 0.0
H812 H 0.52924 0.60087 0.43516 0.0
H813 H 0.53927 0.54769 0.33481 0.0
H814 H 0.55535 0.57806 0.26433 0.0
C815 C 0.56624 0.6267 0.27569 0.0
C816 C 0.57207 0.65182 0.2893 0.0
C817 C 0.55317 0.60767 0.31105 0.0
C818 C 0.56259 0.657 0.3358 0.0
C819 C 0.54907 0.63813 0.37018 0.0
C820 C 0.53437 0.5957 0.39718 0.0
C821 C 0.53338 0.57232 0.39015 0.0
C822 C 0.54494 0.61367 0.359 0.0
C823 C 0.53975 0.56558 0.3408 0.0
C824 C 0.54935 0.58311 0.30106 0.0
H825 H 0.89416 0.53929 0.36796 0.0
H826 H 0.91203 0.60558 0.47144 0.0
H827 H 0.9379 0.59656 0.53308 0.0
H828 H 0.95984 0.57328 0.54982 0.0
H829 H 0.94328 0.50813 0.44324 0.0
H830 H 0.91174 0.51272 0.39168 0.0
C831 C 0.90313 0.55135 0.40483 0.0
C832 C 0.90103 0.57296 0.41545 0.0
C833 C 0.91828 0.5463 0.43938 0.0
C834 C 0.9132 0.58871 0.46279 0.0
C835 C 0.92805 0.58361 0.49784 0.0
C836 C 0.94892 0.5597 0.51615 0.0
C837 C 0.95428 0.54072 0.49972 0.0
C838 C 0.93136 0.56293 0.48555 0.0
C839 C 0.9398 0.52316 0.45625 0.0
C840 C 0.92184 0.52584 0.42654 0.0
H841 H 0.37892 0.90353 0.38497 0.0
H842 H 0.34799 0.93599 0.49357 0.0
H843 H 0.38787 0.95917 0.54726 0.0
H844 H 0.4328 0.97374 0.55674 0.0
H845 H 0.46362 0.94251 0.44475 0.0
H846 H 0.4225 0.91508 0.39924 0.0
C847 C 0.38075 0.91518 0.4212 0.0
C848 C 0.36046 0.91778 0.43573 0.0
C849 C 0.40378 0.9288 0.45102 0.0
C850 C 0.36327 0.93343 0.48203 0.0
C851 C 0.38608 0.94677 0.51254 0.0
C852 C 0.4303 0.96033 0.5236 0.0
C853 C 0.45108 0.95995 0.50436 0.0
C854 C 0.40664 0.94505 0.49668 0.0
C855 C 0.44781 0.94308 0.46016 0.0
C856 C 0.42435 0.92746 0.43406 0.0
H857 H 0.43768 0.36421 0.4234 0.0
H858 H 0.46119 0.33288 0.55037 0.0
H859 H 0.48989 0.37523 0.5912 0.0
H860 H 0.50251 0.41988 0.59988 0.0
H861 H 0.47655 0.45162 0.47927 0.0
H862 H 0.45518 0.41072 0.42574 0.0
C863 C 0.44943 0.36681 0.45948 0.0
C864 C 0.44709 0.34549 0.48437 0.0
C865 C 0.46543 0.39128 0.4837 0.0
C866 C 0.46248 0.34898 0.53087 0.0
C867 C 0.4789 0.37318 0.55419 0.0
C868 C 0.49297 0.41801 0.56072 0.0
C869 C 0.49106 0.43851 0.5432 0.0
C870 C 0.47978 0.3943 0.53217 0.0
C871 C 0.4785 0.43609 0.49296 0.0
C872 C 0.46596 0.4126 0.46296 0.0
H873 H 0.49811 0.88309 0.80964 0.0
H874 H 0.57529 0.9041 0.79964 0.0
H875 H 0.58513 0.94549 0.77351 0.0
H876 H 0.57104 0.97279 0.73745 0.0
H877 H 0.49356 0.95108 0.73715 0.0
H878 H 0.48487 0.91352 0.78463 0.0
C879 C 0.51708 0.89676 0.80189 0.0
C880 C 0.53553 0.88978 0.8043 0.0
C881 C 0.52266 0.92056 0.78493 0.0
C882 C 0.56029 0.90822 0.79642 0.0
C883 C 0.56609 0.93214 0.78158 0.0
C884 C 0.55232 0.96015 0.74886 0.0
C885 C 0.53289 0.96434 0.73264 0.0
C886 C 0.54726 0.93803 0.77325 0.0
C887 C 0.50886 0.94818 0.74886 0.0
C888 C 0.50382 0.92651 0.77538 0.0
H889 H 0.68806 0.56717 0.71261 0.0
H890 H 0.69596 0.64077 0.83802 0.0
H891 H 0.64405 0.62324 0.8092 0.0
H892 H 0.60031 0.5836 0.75777 0.0
H893 H 0.59472 0.52303 0.6498 0.0
H894 H 0.63882 0.53677 0.65999 0.0
C895 C 0.68031 0.57833 0.72845 0.0
C896 C 0.69635 0.60309 0.78565 0.0
C897 C 0.648 0.56844 0.71547 0.0
C898 C 0.68543 0.62522 0.8078 0.0
C899 C 0.65287 0.61346 0.79163 0.0
C900 C 0.60941 0.57451 0.73823 0.0
C901 C 0.59559 0.55216 0.70418 0.0
C902 C 0.63471 0.58504 0.74801 0.0
C903 C 0.60657 0.53989 0.67607 0.0
C904 C 0.63193 0.54753 0.68156 0.0
H905 H 0.14258 0.6582 0.79602 0.0
H906 H 0.09064 0.68481 0.81435 0.0
H907 H 0.05593 0.6414 0.80345 0.0
H908 H 0.04088 0.59822 0.76572 0.0
H909 H 0.09265 0.57213 0.7396 0.0
H910 H 0.12682 0.61246 0.77959 0.0
C911 C 0.12369 0.65436 0.79932 0.0
C912 C 0.11907 0.6746 0.80496 0.0
C913 C 0.10381 0.62939 0.79165 0.0
C914 C 0.09457 0.66949 0.80955 0.0
C915 C 0.07474 0.64469 0.80321 0.0
C916 C 0.05949 0.60098 0.77145 0.0
C917 C 0.06448 0.58268 0.74864 0.0
C918 C 0.07913 0.62472 0.79109 0.0
C919 C 0.08844 0.58608 0.75666 0.0
C920 C 0.10807 0.60936 0.77845 0.0
H921 H 0.45767 0.09227 0.00289 0.0
H922 H 0.47643 0.16344 0.87578 0.0
H923 H 0.48433 0.13413 0.79188 0.0
H924 H 0.48693 0.09081 0.76809 0.0
H925 H 0.47037 0.03103 0.87546 0.0
H926 H 0.46098 0.05116 0.9508 0.0
C927 C 0.4611 0.0994 0.96291 0.0
C928 C 0.4704 0.1328 0.95133 0.0
C929 C 0.46775 0.08357 0.90886 0.0
C930 C 0.47331 0.14473 0.88229 0.0
C931 C 0.4794 0.127 0.83153 0.0
C932 C 0.48161 0.08341 0.80748 0.0
C933 C 0.47889 0.05978 0.81878 0.0
C934 C 0.47737 0.09753 0.84606 0.0
C935 C 0.47206 0.04927 0.86976 0.0
C936 C 0.46642 0.06054 0.91343 0.0
H937 H 0.34785 0.45482 0.81817 0.0
H938 H 0.39087 0.50994 0.95055 0.0
H939 H 0.42728 0.52817 0.89677 0.0
H940 H 0.4483 0.52372 0.81867 0.0
H941 H 0.40562 0.46713 0.68807 0.0
H942 H 0.36752 0.45491 0.73357 0.0
C943 C 0.36502 0.47126 0.83462 0.0
C944 C 0.36669 0.48098 0.88828 0.0
C945 C 0.38598 0.48132 0.80384 0.0
C946 C 0.38911 0.50219 0.90928 0.0
C947 C 0.40995 0.51253 0.87863 0.0
C948 C 0.4306 0.50922 0.79931 0.0
C949 C 0.42993 0.49603 0.75053 0.0
C950 C 0.40885 0.50161 0.82671 0.0
C951 C 0.40675 0.47737 0.72597 0.0
C952 C 0.38494 0.47022 0.75218 0.0
H953 H 0.89319 0.35976 0.85609 0.0
H954 H 0.93385 0.40091 0.00659 0.0
H955 H 0.96713 0.43217 0.9558 0.0
H956 H 0.98428 0.44828 0.86797 0.0
H957 H 0.94437 0.4046 0.71917 0.0
H958 H 0.91129 0.37381 0.7703 0.0
C959 C 0.90919 0.37552 0.87824 0.0
C960 C 0.91046 0.37836 0.93536 0.0
C961 C 0.92851 0.393 0.84898 0.0
C962 C 0.93193 0.39866 0.96264 0.0
C963 C 0.95106 0.41648 0.93365 0.0
C964 C 0.96834 0.43198 0.84694 0.0
C965 C 0.96674 0.42878 0.78995 0.0
C966 C 0.94945 0.41398 0.87672 0.0
C967 C 0.94614 0.40743 0.76309 0.0
C968 C 0.92713 0.38984 0.79224 0.0
H969 H 0.91789 0.57362 0.73642 0.0
H970 H 0.87724 0.50531 0.81929 0.0
H971 H 0.90508 0.49068 0.78936 0.0
H972 H 0.94218 0.49804 0.74303 0.0
H973 H 0.98235 0.56561 0.65835 0.0
H974 H 0.95319 0.57946 0.68404 0.0
C975 C 0.91518 0.55554 0.74788 0.0
C976 C 0.89599 0.54105 0.7815 0.0
C977 C 0.93095 0.54692 0.72949 0.0
C978 C 0.89225 0.51729 0.79484 0.0
C979 C 0.90808 0.50879 0.77742 0.0
C980 C 0.94425 0.5156 0.72958 0.0
C981 C 0.96397 0.53054 0.69781 0.0
C982 C 0.92764 0.52356 0.74528 0.0
C983 C 0.96672 0.55336 0.68096 0.0
C984 C 0.95031 0.56148 0.69653 0.0
H985 H 0.33918 0.8863 0.73906 0.0
H986 H 0.38227 0.86546 0.84324 0.0
H987 H 0.42058 0.89767 0.80748 0.0
H988 H 0.44187 0.9338 0.75255 0.0
H989 H 0.39916 0.95532 0.64858 0.0
H990 H 0.3606 0.92032 0.67726 0.0
C991 C 0.357 0.8889 0.75389 0.0
C992 C 0.35801 0.87422 0.79518 0.0
C993 C 0.37895 0.90741 0.733 0.0
C994 C 0.3811 0.8771 0.81276 0.0
C995 C 0.40297 0.89539 0.79211 0.0
C996 C 0.42416 0.93074 0.73557 0.0
C997 C 0.42346 0.94747 0.69912 0.0
C998 C 0.40213 0.91098 0.75311 0.0
C999 C 0.40029 0.94287 0.67697 0.0
C1000 C 0.37821 0.92295 0.69365 0.0
H1001 H 0.52952 0.43592 0.0213 0.0
H1002 H 0.45641 0.37222 0.97736 0.0
H1003 H 0.44966 0.39573 0.90785 0.0
H1004 H 0.46596 0.4327 0.85437 0.0
H1005 H 0.53871 0.49698 0.89807 0.0
H1006 H 0.54408 0.4751 0.9737 0.0
C1007 C 0.51211 0.4273 0.99655 0.0
C1008 C 0.49389 0.40208 0.00286 0.0
C1009 C 0.50831 0.44098 0.95682 0.0
C1010 C 0.47103 0.39134 0.97199 0.0
C1011 C 0.46712 0.40478 0.93243 0.0
C1012 C 0.48292 0.44202 0.88076 0.0
C1013 C 0.50209 0.4662 0.87029 0.0
C1014 C 0.48589 0.42932 0.92359 0.0
C1015 C 0.52373 0.47831 0.90536 0.0
C1016 C 0.52685 0.46575 0.94831 0.0
H1017 H 0.12433 0.48078 0.91465 0.0
H1018 H 0.09617 0.40585 0.83872 0.0
H1019 H 0.08223 0.41781 0.75699 0.0
H1020 H 0.07127 0.44704 0.71527 0.0
H1021 H 0.09859 0.52158 0.79315 0.0
H1022 H 0.12052 0.51263 0.86484 0.0
C1023 C 0.11555 0.46722 0.87981 0.0
C1024 C 0.11047 0.44224 0.88334 0.0
C1025 C 0.10745 0.47417 0.83326 0.0
C1026 C 0.09966 0.42502 0.83742 0.0
C1027 C 0.09174 0.43186 0.79069 0.0
C1028 C 0.08274 0.46167 0.74682 0.0
C1029 C 0.08275 0.48471 0.74961 0.0
C1030 C 0.09453 0.45605 0.78917 0.0
C1031 C 0.09791 0.50351 0.79055 0.0
C1032 C 0.11028 0.49834 0.83189 0.0
H1033 H 0.65343 0.10695 0.88221 0.0
H1034 H 0.68478 0.07491 0.77375 0.0
H1035 H 0.64985 0.06198 0.70658 0.0
H1036 H 0.60693 0.05366 0.68602 0.0
H1037 H 0.57622 0.08581 0.7961 0.0
H1038 H 0.61458 0.10543 0.85441 0.0
C1039 C 0.65282 0.09747 0.84354 0.0
C1040 C 0.67106 0.09089 0.83404 0.0
C1041 C 0.63274 0.09012 0.80528 0.0
C1042 C 0.67045 0.07935 0.78296 0.0
C1043 C 0.65052 0.07203 0.74442 0.0
C1044 C 0.60907 0.06577 0.72163 0.0
C1045 C 0.58878 0.06817 0.73705 0.0
C1046 C 0.63102 0.0764 0.75609 0.0
C1047 C 0.59161 0.08363 0.78367 0.0
C1048 C 0.61345 0.09469 0.81727 0.0
H1049 H 0.56729 0.63774 0.90415 0.0
H1050 H 0.63425 0.68418 0.82428 0.0
H1051 H 0.61662 0.65643 0.74134 0.0
H1052 H 0.58289 0.61919 0.69242 0.0
H1053 H 0.51577 0.57128 0.77072 0.0
H1054 H 0.53277 0.59956 0.85376 0.0
C1055 C 0.57785 0.64179 0.86833 0.0
C1056 C 0.60182 0.6632 0.86982 0.0
C1057 C 0.56763 0.6256 0.82083 0.0
C1058 C 0.61561 0.66807 0.82366 0.0
C1059 C 0.60557 0.65219 0.77639 0.0
C1060 C 0.57172 0.61491 0.7273 0.0
C1061 C 0.54799 0.59314 0.72517 0.0
C1062 C 0.58165 0.63098 0.77458 0.0
C1063 C 0.53409 0.58787 0.77126 0.0
C1064 C 0.54381 0.60404 0.81869 0.0
H1065 H 0.46233 0.08335 0.33105 0.0
H1066 H 0.54733 0.16325 0.38061 0.0
H1067 H 0.55838 0.13445 0.45564 0.0
H1068 H 0.53745 0.08943 0.50873 0.0
H1069 H 0.46476 0.02405 0.46818 0.0
H1070 H 0.45521 0.04132 0.39008 0.0
C1071 C 0.48089 0.09236 0.35071 0.0
C1072 C 0.50178 0.12729 0.35444 0.0
C1073 C 0.48922 0.07663 0.39993 0.0
C1074 C 0.53473 0.14322 0.38303 0.0
C1075 C 0.54101 0.12542 0.43098 0.0
C1076 C 0.52087 0.08 0.48132 0.0
C1077 C 0.50118 0.05598 0.49153 0.0
C1078 C 0.51803 0.0931 0.44009 0.0
C1079 C 0.47886 0.04262 0.45767 0.0
C1080 C 0.47306 0.0523 0.41266 0.0
H1081 H 0.33909 0.42682 0.48963 0.0
H1082 H 0.3432 0.49666 0.62165 0.0
H1083 H 0.39617 0.51617 0.63964 0.0
H1084 H 0.43646 0.51172 0.60651 0.0
H1085 H 0.43164 0.45312 0.49323 0.0
H1086 H 0.38671 0.43128 0.47852 0.0
C1087 C 0.34931 0.44252 0.51972 0.0
C1088 C 0.33623 0.46214 0.54628 0.0
C1089 C 0.3824 0.45713 0.53144 0.0
C1090 C 0.35192 0.48689 0.60354 0.0
C1091 C 0.38499 0.49964 0.61215 0.0
C1092 C 0.42504 0.49488 0.57988 0.0
C1093 C 0.43596 0.48328 0.54984 0.0
C1094 C 0.39962 0.48526 0.57494 0.0
C1095 C 0.42195 0.46109 0.5146 0.0
C1096 C 0.39603 0.44814 0.50593 0.0
H1097 H 0.89405 0.40196 0.40117 0.0
H1098 H 0.91403 0.345 0.42856 0.0
H1099 H 0.95685 0.37778 0.454 0.0
H1100 H 0.98562 0.42145 0.48697 0.0
H1101 H 0.96438 0.47819 0.47091 0.0
H1102 H 0.92561 0.44706 0.42075 0.0
C1103 C 0.90788 0.39679 0.41213 0.0
C1104 C 0.9007 0.37111 0.41514 0.0
C1105 C 0.93228 0.41577 0.42888 0.0
C1106 C 0.91896 0.36463 0.42744 0.0
C1107 C 0.94345 0.38337 0.44195 0.0
C1108 C 0.97283 0.42722 0.47116 0.0
C1109 C 0.97754 0.45191 0.48417 0.0
C1110 C 0.94994 0.40889 0.44563 0.0
C1111 C 0.96114 0.45926 0.46208 0.0
C1112 C 0.93874 0.44132 0.43404 0.0
H1113 H 0.50959 0.88517 0.29593 0.0
H1114 H 0.54949 0.86493 0.41092 0.0
H1115 H 0.56931 0.90733 0.45633 0.0
H1116 H 0.57079 0.94772 0.47076 0.0
H1117 H 0.5288 0.96737 0.35977 0.0
H1118 H 0.51496 0.928 0.30445 0.0
C1119 C 0.523 0.89029 0.33029 0.0
C1120 C 0.528 0.87197 0.3503 0.0
C1121 C 0.53389 0.91455 0.35701 0.0
C1122 C 0.54533 0.87871 0.39491 0.0
C1123 C 0.55662 0.90292 0.42093 0.0
C1124 C 0.559 0.94372 0.4339 0.0
C1125 C 0.5505 0.96034 0.42013 0.0
C1126 C 0.55039 0.92068 0.40342 0.0
C1127 C 0.53552 0.95489 0.37171 0.0
C1128 C 0.52741 0.93225 0.34023 0.0
H1129 H 0.69634 0.56442 0.47857 0.0
H1130 H 0.64723 0.4882 0.33874 0.0
H1131 H 0.60182 0.48188 0.38134 0.0
H1132 H 0.58208 0.50356 0.45052 0.0
H1133 H 0.62457 0.56715 0.56905 0.0
H1134 H 0.66453 0.57308 0.5467 0.0
C1135 C 0.67899 0.54817 0.46265 0.0
C1136 C 0.67658 0.5299 0.39809 0.0
C1137 C 0.64971 0.54315 0.48414 0.0
C1138 C 0.64776 0.49989 0.3735 0.0
C1139 C 0.61968 0.49685 0.39865 0.0
C1140 C 0.59988 0.51775 0.46986 0.0
C1141 C 0.60144 0.53549 0.5108 0.0
C1142 C 0.62111 0.51883 0.45155 0.0
C1143 C 0.62451 0.55427 0.53745 0.0
C1144 C 0.64786 0.55803 0.52504 0.0
H1145 H 0.09395 0.68486 0.34177 0.0
H1146 H 0.08612 0.63204 0.21043 0.0
H1147 H 0.07233 0.59823 0.27299 0.0
H1148 H 0.06006 0.58332 0.36436 0.0
H1149 H 0.06961 0.63755 0.49483 0.0
H1150 H 0.08563 0.67113 0.43332 0.0
C1151 C 0.08973 0.66611 0.32684 0.0
C1152 C 0.09126 0.66102 0.27152 0.0
C1153 C 0.08202 0.64693 0.36291 0.0
C1154 C 0.08528 0.63644 0.253 0.0
C1155 C 0.07733 0.61712 0.28868 0.0
C1156 C 0.06589 0.60251 0.37944 0.0
C1157 C 0.06325 0.60766 0.43414 0.0
C1158 C 0.07526 0.62205 0.34367 0.0
C1159 C 0.07113 0.63278 0.45293 0.0
C1160 C 0.08031 0.65214 0.41774 0.0
loop_
_geom_bond_atom_site_label_1
_geom_bond_atom_site_label_2
_geom_bond_distance
_geom_bond_site_symmetry_2
_ccdc_geom_bond_type
C0 C1 1.560 . S
C0 H61 0.959 . S
C0 H62 0.959 . S
C0 H63 0.960 . S
C1 C0 1.560 . S
C1 O56 1.426 . S
C1 H60 0.980 . S
C2 C3 1.407 . S
C2 C7 1.418 . S
C2 O56 1.334 . S
C3 C2 1.407 . S
C3 C4 1.360 . S
C3 H64 0.929 . S
C4 C3 1.360 . S
C4 C5 1.401 . S
C4 C8 1.527 . S
C5 C4 1.401 . S
C5 C6 1.405 . S
C5 C38 1.587 . S
C6 C5 1.405 . S
C6 C7 1.332 . S
C6 C9 1.496 . S
C7 C2 1.418 . S
C7 C6 1.332 . S
C7 H65 0.929 . S
C8 C4 1.527 . S
C8 H66 0.959 . S
C8 H67 0.961 . S
C8 H68 0.961 . S
C9 C6 1.496 . S
C9 H69 0.960 . S
C9 H70 0.960 . S
C9 H71 0.961 . S
C10 C11 1.517 . S
C10 H73 0.961 . S
C10 H74 0.960 . S
C10 H75 0.959 . S
C11 C10 1.517 . S
C11 O59 1.468 . S
C11 H72 0.980 . S
C12 C13 1.349 . S
C12 C17 1.367 . S
C12 O59 1.408 . S
C13 C12 1.349 . S
C13 C14 1.407 . S
C13 H76 0.930 . S
C14 C13 1.407 . S
C14 C15 1.449 . S
C14 C18 1.535 . S
C15 C14 1.449 . S
C15 C16 1.384 . S
C15 C40 1.553 . S
C16 C15 1.384 . S
C16 C17 1.364 . S
C16 C19 1.450 . S
C17 C12 1.367 . S
C17 C16 1.364 . S
C17 H77 0.931 . S
C18 C14 1.535 . S
C18 H78 0.959 . S
C18 H79 0.961 . S
C18 H80 0.959 . S
C19 C16 1.450 . S
C19 H81 0.960 . S
C19 H82 0.960 . S
C19 H83 0.960 . S
C20 C21 1.309 1_556 S
C20 C25 1.304 . S
C20 O58 1.435 . S
C21 C20 1.309 1_554 S
C21 C22 1.476 . S
C21 H85 0.930 1_554 S
C22 C21 1.476 . S
C22 C23 1.400 . S
C22 C26 1.567 . S
C23 C22 1.400 . S
C23 C24 1.373 . S
C23 C45 1.432 . S
C24 C23 1.373 . S
C24 C25 1.339 1_554 S
C24 C27 1.530 . S
C25 C20 1.304 . S
C25 C24 1.339 1_556 S
C25 H86 0.930 . S
C26 C22 1.567 . S
C26 H87 0.961 . S
C26 H88 0.960 . S
C26 H89 0.958 . S
C27 C24 1.530 . S
C27 H90 0.961 . S
C27 H91 0.960 . S
C27 H92 0.960 . S
C28 C29 1.530 . S
C28 H94 0.961 . S
C28 H95 0.961 . S
C28 H96 0.959 . S
C29 C28 1.530 . S
C29 O57 1.412 . S
C29 H93 0.980 . S
C30 C31 1.294 . S
C30 C35 1.377 . S
C30 O57 1.393 . S
C31 C30 1.294 . S
C31 C32 1.357 1_556 S
C31 H97 0.938 . S
C32 C31 1.357 1_554 S
C32 C33 1.398 . S
C32 C36 1.527 . S
C33 C32 1.398 . S
C33 C34 1.380 . S
C33 C47 1.497 . S
C34 C33 1.380 . S
C34 C35 1.383 1_554 S
C34 C37 1.603 . S
C35 C30 1.377 . S
C35 C34 1.383 1_556 S
C35 H98 0.929 . S
C36 C32 1.527 . S
C36 H99 0.961 . S
C36 H100 0.959 . S
C36 H101 0.959 . S
C37 C34 1.603 . S
C37 H102 0.960 1_554 S
C37 H103 0.962 . S
C37 H104 0.961 . S
C38 C5 1.587 . S
C38 C39 1.360 . S
C38 C51 1.412 . S
C39 C38 1.360 . S
C39 C40 1.365 . S
C39 H105 0.929 . S
C40 C15 1.553 . S
C40 C39 1.365 . S
C40 C41 1.404 . S
C41 C40 1.404 . S
C41 C42 1.395 . S
C41 C52 1.451 . S
C42 C41 1.395 . S
C42 C43 1.322 . S
C42 H106 0.930 . S
C43 C42 1.322 . S
C43 C44 1.459 . S
C43 H107 0.929 . S
C44 C43 1.459 . S
C44 C45 1.445 . S
C44 C53 1.395 . S
C45 C23 1.432 . S
C45 C44 1.445 . S
C45 C46 1.370 . S
C46 C45 1.370 . S
C46 C47 1.438 . S
C46 H108 0.930 . S
C47 C33 1.497 . S
C47 C46 1.438 . S
C47 C48 1.360 . S
C48 C47 1.360 . S
C48 C49 1.401 . S
C48 C53 1.446 . S
C49 C48 1.401 . S
C49 C50 1.347 . S
C49 H109 0.929 . S
C50 C49 1.347 . S
C50 C51 1.455 . S
C50 H110 0.930 . S
C51 C38 1.412 . S
C51 C50 1.455 . S
C51 C52 1.331 . S
C52 C41 1.451 . S
C52 C51 1.331 . S
C52 C53 1.497 . S
C53 C44 1.395 . S
C53 C48 1.446 . S
C53 C52 1.497 . S
C54 C55 1.582 . S
C54 H111 0.962 . S
C54 H112 0.959 . S
C54 H113 0.958 . S
C55 C54 1.582 . S
C55 O58 1.458 . S
C55 H84 0.980 . S
O56 C1 1.426 . S
O56 C2 1.334 . S
O57 C29 1.412 . S
O57 C30 1.393 . S
O58 C20 1.435 . S
O58 C55 1.458 . S
O59 C11 1.468 . S
O59 C12 1.408 . S
H60 C1 0.980 . S
H61 C0 0.959 . S
H62 C0 0.959 . S
H63 C0 0.960 . S
H64 C3 0.929 . S
H65 C7 0.929 . S
H66 C8 0.959 . S
H67 C8 0.961 . S
H68 C8 0.961 . S
H69 C9 0.960 . S
H70 C9 0.960 . S
H71 C9 0.961 . S
H72 C11 0.980 . S
H73 C10 0.961 . S
H74 C10 0.960 . S
H75 C10 0.959 . S
H76 C13 0.930 . S
H77 C17 0.931 . S
H78 C18 0.959 . S
H79 C18 0.961 . S
H80 C18 0.959 . S
H81 C19 0.960 . S
H82 C19 0.960 . S
H83 C19 0.960 . S
H84 C55 0.980 . S
H85 C21 0.930 1_556 S
H86 C25 0.930 . S
H87 C26 0.961 . S
H88 C26 0.960 . S
H89 C26 0.958 . S
H90 C27 0.961 . S
H91 C27 0.960 . S
H92 C27 0.960 . S
H93 C29 0.980 . S
H94 C28 0.961 . S
H95 C28 0.961 . S
H96 C28 0.959 . S
H97 C31 0.938 . S
H98 C35 0.929 . S
H99 C36 0.961 . S
H100 C36 0.959 . S
H101 C36 0.959 . S
H102 C37 0.960 1_556 S
H103 C37 0.962 . S
H104 C37 0.961 . S
H105 C39 0.929 . S
H106 C42 0.930 . S
H107 C43 0.929 . S
H108 C46 0.930 . S
H109 C49 0.929 . S
H110 C50 0.930 . S
H111 C54 0.962 . S
H112 C54 0.959 . S
H113 C54 0.958 . S
C114 C115 1.560 . S
C114 H175 0.959 . S
C114 H176 0.959 . S
C114 H177 0.960 . S
C115 C114 1.560 . S
C115 O170 1.426 . S
C115 H174 0.980 . S
C116 C117 1.407 . S
C116 C121 1.418 . S
C116 O170 1.334 . S
C117 C116 1.407 . S
C117 C118 1.360 . S
C117 H178 0.929 . S
C118 C117 1.360 . S
C118 C119 1.401 . S
C118 C122 1.527 . S
C119 C118 1.401 . S
C119 C120 1.405 . S
C119 C152 1.587 . S
C120 C119 1.405 . S
C120 C121 1.332 . S
C120 C123 1.496 . S
C121 C116 1.418 . S
C121 C120 1.332 . S
C121 H179 0.929 . S
C122 C118 1.527 . S
C122 H180 0.959 . S
C122 H181 0.961 . S
C122 H182 0.961 . S
C123 C120 1.496 . S
C123 H183 0.960 . S
C123 H184 0.960 . S
C123 H185 0.961 . S
C124 C125 1.517 . S
C124 H187 0.961 . S
C124 H188 0.960 . S
C124 H189 0.959 . S
C125 C124 1.517 . S
C125 O173 1.468 . S
C125 H186 0.980 . S
C126 C127 1.349 . S
C126 C131 1.367 . S
C126 O173 1.408 . S
C127 C126 1.349 . S
C127 C128 1.407 . S
C127 H190 0.930 . S
C128 C127 1.407 . S
C128 C129 1.449 . S
C128 C132 1.535 . S
C129 C128 1.449 . S
C129 C130 1.384 . S
C129 C154 1.553 . S
C130 C129 1.384 . S
C130 C131 1.364 . S
C130 C133 1.450 . S
C131 C126 1.367 . S
C131 C130 1.364 . S
C131 H191 0.931 . S
C132 C128 1.535 . S
C132 H192 0.959 . S
C132 H193 0.961 . S
C132 H194 0.959 . S
C133 C130 1.450 . S
C133 H195 0.960 . S
C133 H196 0.960 . S
C133 H197 0.960 . S
C134 C135 1.309 . S
C134 C139 1.304 . S
C134 O172 1.435 . S
C135 C134 1.309 . S
C135 C136 1.475 1_556 S
C135 H199 0.930 . S
C136 C135 1.475 1_554 S
C136 C137 1.400 . S
C136 C140 1.567 . S
C137 C136 1.400 . S
C137 C138 1.373 1_554 S
C137 C159 1.432 . S
C138 C137 1.373 1_556 S
C138 C139 1.339 . S
C138 C141 1.530 1_556 S
C139 C134 1.304 . S
C139 C138 1.339 . S
C139 H200 0.930 . S
C140 C136 1.567 . S
C140 H201 0.961 . S
C140 H202 0.960 . S
C140 H203 0.958 1_554 S
C141 C138 1.530 1_554 S
C141 H204 0.961 1_554 S
C141 H205 0.960 . S
C141 H206 0.960 1_554 S
C142 C143 1.530 . S
C142 H208 0.961 . S
C142 H209 0.961 . S
C142 H210 0.959 . S
C143 C142 1.530 . S
C143 O171 1.412 . S
C143 H207 0.980 . S
C144 C145 1.288 . S
C144 C149 1.377 . S
C144 O171 1.393 . S
C145 C144 1.288 . S
C145 C146 1.379 . S
C145 H211 0.932 . S
C146 C145 1.379 . S
C146 C147 1.395 1_556 S
C146 C150 1.522 1_556 S
C147 C146 1.395 1_554 S
C147 C148 1.380 1_554 S
C147 C161 1.497 . S
C148 C147 1.380 1_556 S
C148 C149 1.383 . S
C148 C151 1.603 1_556 S
C149 C144 1.377 . S
C149 C148 1.383 . S
C149 H212 0.929 . S
C150 C146 1.522 1_554 S
C150 H213 0.961 . S
C150 H214 0.959 1_554 S
C150 H215 0.959 . S
C151 C148 1.603 1_554 S
C151 H216 0.960 1_554 S
C151 H217 0.962 . S
C151 H218 0.961 . S
C152 C119 1.587 . S
C152 C153 1.360 . S
C152 C165 1.412 . S
C153 C152 1.360 . S
C153 C154 1.365 . S
C153 H219 0.929 . S
C154 C129 1.553 . S
C154 C153 1.365 . S
C154 C155 1.404 . S
C155 C154 1.404 . S
C155 C156 1.395 . S
C155 C166 1.451 . S
C156 C155 1.395 . S
C156 C157 1.322 . S
C156 H220 0.930 . S
C157 C156 1.322 . S
C157 C158 1.459 . S
C157 H221 0.929 . S
C158 C157 1.459 . S
C158 C159 1.445 . S
C158 C167 1.395 . S
C159 C137 1.432 . S
C159 C158 1.445 . S
C159 C160 1.370 . S
C160 C159 1.370 . S
C160 C161 1.438 . S
C160 H222 0.930 1_554 S
C161 C147 1.497 . S
C161 C160 1.438 . S
C161 C162 1.360 . S
C162 C161 1.360 . S
C162 C163 1.401 . S
C162 C167 1.446 . S
C163 C162 1.401 . S
C163 C164 1.347 . S
C163 H223 0.929 . S
C164 C163 1.347 . S
C164 C165 1.455 . S
C164 H224 0.930 . S
C165 C152 1.412 . S
C165 C164 1.455 . S
C165 C166 1.331 . S
C166 C155 1.451 . S
C166 C165 1.331 . S
C166 C167 1.497 . S
C167 C158 1.395 . S
C167 C162 1.446 . S
C167 C166 1.497 . S
C168 C169 1.582 . S
C168 H225 0.962 . S
C168 H226 0.959 . S
C168 H227 0.958 . S
C169 C168 1.582 . S
C169 O172 1.458 . S
C169 H198 0.980 . S
O170 C115 1.426 . S
O170 C116 1.334 . S
O171 C143 1.412 . S
O171 C144 1.393 . S
O172 C134 1.435 . S
O172 C169 1.458 . S
O173 C125 1.468 . S
O173 C126 1.408 . S
H174 C115 0.980 . S
H175 C114 0.959 . S
H176 C114 0.959 . S
H177 C114 0.960 . S
H178 C117 0.929 . S
H179 C121 0.929 . S
H180 C122 0.959 . S
H181 C122 0.961 . S
H182 C122 0.961 . S
H183 C123 0.960 . S
H184 C123 0.960 . S
H185 C123 0.961 . S
H186 C125 0.980 . S
H187 C124 0.961 . S
H188 C124 0.960 . S
H189 C124 0.959 . S
H190 C127 0.930 . S
H191 C131 0.931 . S
H192 C132 0.959 . S
H193 C132 0.961 . S
H194 C132 0.959 . S
H195 C133 0.960 . S
H196 C133 0.960 . S
H197 C133 0.960 . S
H198 C169 0.980 . S
H199 C135 0.930 . S
H200 C139 0.930 . S
H201 C140 0.961 . S
H202 C140 0.960 . S
H203 C140 0.958 1_556 S
H204 C141 0.961 1_556 S
H205 C141 0.960 . S
H206 C141 0.960 1_556 S
H207 C143 0.980 . S
H208 C142 0.961 . S
H209 C142 0.961 . S
H210 C142 0.959 . S
H211 C145 0.932 . S
H212 C149 0.929 . S
H213 C150 0.961 . S
H214 C150 0.959 1_556 S
H215 C150 0.959 . S
H216 C151 0.960 1_556 S
H217 C151 0.962 . S
H218 C151 0.961 . S
H219 C153 0.929 . S
H220 C156 0.930 . S
H221 C157 0.929 . S
H222 C160 0.930 1_556 S
H223 C163 0.929 . S
H224 C164 0.930 . S
H225 C168 0.962 . S
H226 C168 0.959 . S
H227 C168 0.958 . S
C228 C229 1.560 . S
C228 H289 0.959 . S
C228 H290 0.959 . S
C228 H291 0.960 . S
C229 C228 1.560 . S
C229 O284 1.426 . S
C229 H288 0.980 . S
C230 C231 1.407 . S
C230 C235 1.418 . S
C230 O284 1.334 . S
C231 C230 1.407 . S
C231 C232 1.360 . S
C231 H292 0.929 . S
C232 C231 1.360 . S
C232 C233 1.401 . S
C232 C236 1.527 . S
C233 C232 1.401 . S
C233 C234 1.405 . S
C233 C266 1.587 . S
C234 C233 1.405 . S
C234 C235 1.332 . S
C234 C237 1.496 . S
C235 C230 1.418 . S
C235 C234 1.332 . S
C235 H293 0.929 . S
C236 C232 1.527 . S
C236 H294 0.959 . S
C236 H295 0.961 . S
C236 H296 0.961 . S
C237 C234 1.496 . S
C237 H297 0.960 . S
C237 H298 0.960 . S
C237 H299 0.961 . S
C238 C239 1.517 . S
C238 H301 0.961 . S
C238 H302 0.960 . S
C238 H303 0.959 . S
C239 C238 1.517 . S
C239 O287 1.468 . S
C239 H300 0.980 . S
C240 C241 1.349 . S
C240 C245 1.367 . S
C240 O287 1.408 . S
C241 C240 1.349 . S
C241 C242 1.407 . S
C241 H304 0.930 . S
C242 C241 1.407 . S
C242 C243 1.449 . S
C242 C246 1.535 . S
C243 C242 1.449 . S
C243 C244 1.384 . S
C243 C268 1.553 . S
C244 C243 1.384 . S
C244 C245 1.364 . S
C244 C247 1.450 . S
C245 C240 1.367 . S
C245 C244 1.364 . S
C245 H305 0.931 . S
C246 C242 1.535 . S
C246 H306 0.959 . S
C246 H307 0.961 . S
C246 H308 0.959 . S
C247 C244 1.450 . S
C247 H309 0.960 . S
C247 H310 0.960 . S
C247 H311 0.960 . S
C248 C249 1.309 . S
C248 C253 1.304 . S
C248 O286 1.435 . S
C249 C248 1.309 . S
C249 C250 1.476 . S
C249 H313 0.930 . S
C250 C249 1.476 . S
C250 C251 1.400 . S
C250 C254 1.567 . S
C251 C250 1.400 . S
C251 C252 1.373 . S
C251 C273 1.432 . S
C252 C251 1.373 . S
C252 C253 1.339 . S
C252 C255 1.530 . S
C253 C248 1.304 . S
C253 C252 1.339 . S
C253 H314 0.930 . S
C254 C250 1.567 . S
C254 H315 0.961 . S
C254 H316 0.960 . S
C254 H317 0.958 . S
C255 C252 1.530 . S
C255 H318 0.961 . S
C255 H319 0.960 . S
C255 H320 0.960 . S
C256 C257 1.530 . S
C256 H322 0.961 . S
C256 H323 0.961 . S
C256 H324 0.959 . S
C257 C256 1.530 . S
C257 O285 1.412 . S
C257 H321 0.980 . S
C258 C259 1.288 . S
C258 C263 1.377 . S
C258 O285 1.393 . S
C259 C258 1.288 . S
C259 C260 1.369 . S
C259 H325 0.932 . S
C260 C259 1.369 . S
C260 C261 1.398 . S
C260 C264 1.527 . S
C261 C260 1.398 . S
C261 C262 1.380 . S
C261 C275 1.497 . S
C262 C261 1.380 . S
C262 C263 1.383 . S
C262 C265 1.603 . S
C263 C258 1.377 . S
C263 C262 1.383 . S
C263 H326 0.929 . S
C264 C260 1.527 . S
C264 H327 0.961 . S
C264 H328 0.959 . S
C264 H329 0.959 . S
C265 C262 1.603 . S
C265 H330 0.960 . S
C265 H331 0.962 . S
C265 H332 0.961 . S
C266 C233 1.587 . S
C266 C267 1.360 . S
C266 C279 1.412 . S
C267 C266 1.360 . S
C267 C268 1.365 . S
C267 H333 0.929 . S
C268 C243 1.553 . S
C268 C267 1.365 . S
C268 C269 1.404 . S
C269 C268 1.404 . S
C269 C270 1.395 . S
C269 C280 1.451 . S
C270 C269 1.395 . S
C270 C271 1.322 . S
C270 H334 0.930 . S
C271 C270 1.322 . S
C271 C272 1.459 1_554 S
C271 H335 0.929 . S
C272 C271 1.459 1_556 S
C272 C273 1.445 . S
C272 C281 1.395 1_556 S
C273 C251 1.432 . S
C273 C272 1.445 . S
C273 C274 1.370 . S
C274 C273 1.370 . S
C274 C275 1.438 . S
C274 H336 0.930 . S
C275 C261 1.497 . S
C275 C274 1.438 . S
C275 C276 1.360 . S
C276 C275 1.360 . S
C276 C277 1.401 1_556 S
C276 C281 1.446 1_556 S
C277 C276 1.401 1_554 S
C277 C278 1.347 . S
C277 H337 0.929 1_554 S
C278 C277 1.347 . S
C278 C279 1.455 . S
C278 H338 0.930 . S
C279 C266 1.412 . S
C279 C278 1.455 . S
C279 C280 1.331 . S
C280 C269 1.451 . S
C280 C279 1.331 . S
C280 C281 1.497 . S
C281 C272 1.395 1_554 S
C281 C276 1.446 1_554 S
C281 C280 1.497 . S
C282 C283 1.582 . S
C282 H339 0.962 . S
C282 H340 0.959 . S
C282 H341 0.958 . S
C283 C282 1.582 . S
C283 O286 1.458 . S
C283 H312 0.980 . S
O284 C229 1.426 . S
O284 C230 1.334 . S
O285 C257 1.412 . S
O285 C258 1.393 . S
O286 C248 1.435 . S
O286 C283 1.458 . S
O287 C239 1.468 . S
O287 C240 1.408 . S
H288 C229 0.980 . S
H289 C228 0.959 . S
H290 C228 0.959 . S
H291 C228 0.960 . S
H292 C231 0.929 . S
H293 C235 0.929 . S
H294 C236 0.959 . S
H295 C236 0.961 . S
H296 C236 0.961 . S
H297 C237 0.960 . S
H298 C237 0.960 . S
H299 C237 0.961 . S
H300 C239 0.980 . S
H301 C238 0.961 . S
H302 C238 0.960 . S
H303 C238 0.959 . S
H304 C241 0.930 . S
H305 C245 0.931 . S
H306 C246 0.959 . S
H307 C246 0.961 . S
H308 C246 0.959 . S
H309 C247 0.960 . S
H310 C247 0.960 . S
H311 C247 0.960 . S
H312 C283 0.980 . S
H313 C249 0.930 . S
H314 C253 0.930 . S
H315 C254 0.961 . S
H316 C254 0.960 . S
H317 C254 0.958 . S
H318 C255 0.961 . S
H319 C255 0.960 . S
H320 C255 0.960 . S
H321 C257 0.980 . S
H322 C256 0.961 . S
H323 C256 0.961 . S
H324 C256 0.959 . S
H325 C259 0.932 . S
H326 C263 0.929 . S
H327 C264 0.961 . S
H328 C264 0.959 . S
H329 C264 0.959 . S
H330 C265 0.960 . S
H331 C265 0.962 . S
H332 C265 0.961 . S
H333 C267 0.929 . S
H334 C270 0.930 . S
H335 C271 0.929 . S
H336 C274 0.930 . S
H337 C277 0.929 1_556 S
H338 C278 0.930 . S
H339 C282 0.962 . S
H340 C282 0.959 . S
H341 C282 0.958 . S
C342 C343 1.560 . S
C342 H403 0.959 . S
C342 H404 0.959 . S
C342 H405 0.960 . S
C343 C342 1.560 . S
C343 O398 1.426 . S
C343 H402 0.980 . S
C344 C345 1.407 . S
C344 C349 1.418 . S
C344 O398 1.334 . S
C345 C344 1.407 . S
C345 C346 1.360 . S
C345 H406 0.929 . S
C346 C345 1.360 . S
C346 C347 1.401 . S
C346 C350 1.527 . S
C347 C346 1.401 . S
C347 C348 1.405 . S
C347 C380 1.587 . S
C348 C347 1.405 . S
C348 C349 1.332 . S
C348 C351 1.496 . S
C349 C344 1.418 . S
C349 C348 1.332 . S
C349 H407 0.929 . S
C350 C346 1.527 . S
C350 H408 0.959 . S
C350 H409 0.961 . S
C350 H410 0.961 . S
C351 C348 1.496 . S
C351 H411 0.960 . S
C351 H412 0.960 . S
C351 H413 0.961 . S
C352 C353 1.517 . S
C352 H415 0.961 . S
C352 H416 0.960 . S
C352 H417 0.959 . S
C353 C352 1.517 . S
C353 O401 1.468 . S
C353 H414 0.980 . S
C354 C355 1.349 . S
C354 C359 1.367 . S
C354 O401 1.408 . S
C355 C354 1.349 . S
C355 C356 1.407 . S
C355 H418 0.930 . S
C356 C355 1.407 . S
C356 C357 1.449 . S
C356 C360 1.535 . S
C357 C356 1.449 . S
C357 C358 1.384 . S
C357 C382 1.553 . S
C358 C357 1.384 . S
C358 C359 1.364 . S
C358 C361 1.450 . S
C359 C354 1.367 . S
C359 C358 1.364 . S
C359 H419 0.931 . S
C360 C356 1.535 . S
C360 H420 0.959 . S
C360 H421 0.961 . S
C360 H422 0.959 . S
C361 C358 1.450 . S
C361 H423 0.960 . S
C361 H424 0.960 . S
C361 H425 0.960 . S
C362 C363 1.309 . S
C362 C367 1.304 . S
C362 O400 1.435 . S
C363 C362 1.309 . S
C363 C364 1.476 . S
C363 H427 0.930 . S
C364 C363 1.476 . S
C364 C365 1.400 . S
C364 C368 1.567 . S
C365 C364 1.400 . S
C365 C366 1.373 . S
C365 C387 1.432 . S
C366 C365 1.373 . S
C366 C367 1.339 . S
C366 C369 1.530 . S
C367 C362 1.304 . S
C367 C366 1.339 . S
C367 H428 0.930 . S
C368 C364 1.567 . S
C368 H429 0.961 . S
C368 H430 0.960 . S
C368 H431 0.958 . S
C369 C366 1.530 . S
C369 H432 0.961 . S
C369 H433 0.960 . S
C369 H434 0.960 . S
C370 C371 1.530 . S
C370 H436 0.961 . S
C370 H437 0.961 . S
C370 H438 0.959 . S
C371 C370 1.530 . S
C371 O399 1.412 . S
C371 H435 0.980 . S
C372 C373 1.288 . S
C372 C377 1.377 . S
C372 O399 1.393 . S
C373 C372 1.288 . S
C373 C374 1.369 . S
C373 H439 0.932 . S
C374 C373 1.369 . S
C374 C375 1.398 . S
C374 C378 1.527 . S
C375 C374 1.398 . S
C375 C376 1.380 . S
C375 C389 1.497 . S
C376 C375 1.380 . S
C376 C377 1.383 . S
C376 C379 1.603 . S
C377 C372 1.377 . S
C377 C376 1.383 . S
C377 H440 0.929 . S
C378 C374 1.527 . S
C378 H441 0.961 . S
C378 H442 0.959 . S
C378 H443 0.959 . S
C379 C376 1.603 . S
C379 H444 0.960 . S
C379 H445 0.962 . S
C379 H446 0.961 . S
C380 C347 1.587 . S
C380 C381 1.360 . S
C380 C393 1.412 . S
C381 C380 1.360 . S
C381 C382 1.365 . S
C381 H447 0.929 . S
C382 C357 1.553 . S
C382 C381 1.365 . S
C382 C383 1.404 . S
C383 C382 1.404 . S
C383 C384 1.395 . S
C383 C394 1.451 . S
C384 C383 1.395 . S
C384 C385 1.322 . S
C384 H448 0.930 . S
C385 C384 1.322 . S
C385 C386 1.459 . S
C385 H449 0.929 . S
C386 C385 1.459 . S
C386 C387 1.445 1_554 S
C386 C395 1.395 . S
C387 C365 1.432 . S
C387 C386 1.445 1_556 S
C387 C388 1.370 . S
C388 C387 1.370 . S
C388 C389 1.438 . S
C388 H450 0.930 . S
C389 C375 1.497 . S
C389 C388 1.438 . S
C389 C390 1.360 1_556 S
C390 C389 1.360 1_554 S
C390 C391 1.401 . S
C390 C395 1.446 . S
C391 C390 1.401 . S
C391 C392 1.347 . S
C391 H451 0.929 . S
C392 C391 1.347 . S
C392 C393 1.455 . S
C392 H452 0.930 . S
C393 C380 1.412 . S
C393 C392 1.455 . S
C393 C394 1.331 . S
C394 C383 1.451 . S
C394 C393 1.331 . S
C394 C395 1.497 . S
C395 C386 1.395 . S
C395 C390 1.446 . S
C395 C394 1.497 . S
C396 C397 1.582 . S
C396 H453 0.962 . S
C396 H454 0.959 . S
C396 H455 0.958 . S
C397 C396 1.582 . S
C397 O400 1.458 . S
C397 H426 0.980 . S
O398 C343 1.426 . S
O398 C344 1.334 . S
O399 C371 1.412 . S
O399 C372 1.393 . S
O400 C362 1.435 . S
O400 C397 1.458 . S
O401 C353 1.468 . S
O401 C354 1.408 . S
H402 C343 0.980 . S
H403 C342 0.959 . S
H404 C342 0.959 . S
H405 C342 0.960 . S
H406 C345 0.929 . S
H407 C349 0.929 . S
H408 C350 0.959 . S
H409 C350 0.961 . S
H410 C350 0.961 . S
H411 C351 0.960 . S
H412 C351 0.960 . S
H413 C351 0.961 . S
H414 C353 0.980 . S
H415 C352 0.961 . S
H416 C352 0.960 . S
H417 C352 0.959 . S
H418 C355 0.930 . S
H419 C359 0.931 . S
H420 C360 0.959 . S
H421 C360 0.961 . S
H422 C360 0.959 . S
H423 C361 0.960 . S
H424 C361 0.960 . S
H425 C361 0.960 . S
H426 C397 0.980 . S
H427 C363 0.930 . S
H428 C367 0.930 . S
H429 C368 0.961 . S
H430 C368 0.960 . S
H431 C368 0.958 . S
H432 C369 0.961 . S
H433 C369 0.960 . S
H434 C369 0.960 . S
H435 C371 0.980 . S
H436 C370 0.961 . S
H437 C370 0.961 . S
H438 C370 0.959 . S
H439 C373 0.932 . S
H440 C377 0.929 . S
H441 C378 0.961 . S
H442 C378 0.959 . S
H443 C378 0.959 . S
H444 C379 0.960 . S
H445 C379 0.962 . S
H446 C379 0.961 . S
H447 C381 0.929 . S
H448 C384 0.930 . S
H449 C385 0.929 . S
H450 C388 0.930 . S
H451 C391 0.929 . S
H452 C392 0.930 . S
H453 C396 0.962 . S
H454 C396 0.959 . S
H455 C396 0.958 . S
C456 C457 1.560 . S
C456 H517 0.959 . S
C456 H518 0.959 . S
C456 H519 0.960 . S
C457 C456 1.560 . S
C457 O512 1.426 . S
C457 H516 0.980 . S
C458 C459 1.407 . S
C458 C463 1.418 . S
C458 O512 1.334 . S
C459 C458 1.407 . S
C459 C460 1.360 . S
C459 H520 0.929 . S
C460 C459 1.360 . S
C460 C461 1.401 . S
C460 C464 1.527 . S
C461 C460 1.401 . S
C461 C462 1.405 . S
C461 C494 1.587 . S
C462 C461 1.405 . S
C462 C463 1.332 . S
C462 C465 1.496 . S
C463 C458 1.418 . S
C463 C462 1.332 . S
C463 H521 0.929 . S
C464 C460 1.527 . S
C464 H522 0.959 . S
C464 H523 0.961 . S
C464 H524 0.961 . S
C465 C462 1.496 . S
C465 H525 0.960 . S
C465 H526 0.960 . S
C465 H527 0.961 1_556 S
C466 C467 1.517 . S
C466 H529 0.961 . S
C466 H530 0.960 . S
C466 H531 0.959 . S
C467 C466 1.517 . S
C467 O515 1.468 . S
C467 H528 0.980 . S
C468 C469 1.349 . S
C468 C473 1.367 . S
C468 O515 1.408 . S
C469 C468 1.349 . S
C469 C470 1.407 . S
C469 H532 0.930 . S
C470 C469 1.407 . S
C470 C471 1.449 . S
C470 C474 1.535 . S
C471 C470 1.449 . S
C471 C472 1.384 . S
C471 C496 1.553 . S
C472 C471 1.384 . S
C472 C473 1.364 . S
C472 C475 1.450 . S
C473 C468 1.367 . S
C473 C472 1.364 . S
C473 H533 0.931 . S
C474 C470 1.535 . S
C474 H534 0.959 . S
C474 H535 0.961 . S
C474 H536 0.959 . S
C475 C472 1.450 . S
C475 H537 0.960 . S
C475 H538 0.960 . S
C475 H539 0.960 1_556 S
C476 C477 1.309 . S
C476 C481 1.304 . S
C476 O514 1.435 . S
C477 C476 1.309 . S
C477 C478 1.476 . S
C477 H541 0.930 . S
C478 C477 1.476 . S
C478 C479 1.400 . S
C478 C482 1.567 . S
C479 C478 1.400 . S
C479 C480 1.373 . S
C479 C501 1.432 . S
C480 C479 1.373 . S
C480 C481 1.339 . S
C480 C483 1.530 . S
C481 C476 1.304 . S
C481 C480 1.339 . S
C481 H542 0.930 . S
C482 C478 1.567 . S
C482 H543 0.961 . S
C482 H544 0.960 . S
C482 H545 0.958 . S
C483 C480 1.530 . S
C483 H546 0.961 . S
C483 H547 0.960 . S
C483 H548 0.960 . S
C484 C485 1.530 . S
C484 H550 0.961 . S
C484 H551 0.961 . S
C484 H552 0.959 . S
C485 C484 1.530 . S
C485 O513 1.412 . S
C485 H549 0.980 . S
C486 C487 1.288 . S
C486 C491 1.377 . S
C486 O513 1.393 . S
C487 C486 1.288 . S
C487 C488 1.369 . S
C487 H553 0.932 . S
C488 C487 1.369 . S
C488 C489 1.398 . S
C488 C492 1.527 . S
C489 C488 1.398 . S
C489 C490 1.380 . S
C489 C503 1.497 . S
C490 C489 1.380 . S
C490 C491 1.383 . S
C490 C493 1.603 . S
C491 C486 1.377 . S
C491 C490 1.383 . S
C491 H554 0.929 . S
C492 C488 1.527 . S
C492 H555 0.961 . S
C492 H556 0.959 . S
C492 H557 0.959 . S
C493 C490 1.603 . S
C493 H558 0.960 . S
C493 H559 0.962 . S
C493 H560 0.961 . S
C494 C461 1.587 . S
C494 C495 1.360 . S
C494 C507 1.412 1_556 S
C495 C494 1.360 . S
C495 C496 1.365 . S
C495 H561 0.929 . S
C496 C471 1.553 . S
C496 C495 1.365 . S
C496 C497 1.404 1_556 S
C497 C496 1.404 1_554 S
C497 C498 1.395 . S
C497 C508 1.451 . S
C498 C497 1.395 . S
C498 C499 1.322 . S
C498 H562 0.930 . S
C499 C498 1.322 . S
C499 C500 1.459 . S
C499 H563 0.929 . S
C500 C499 1.459 . S
C500 C501 1.445 . S
C500 C509 1.395 . S
C501 C479 1.432 . S
C501 C500 1.445 . S
C501 C502 1.370 . S
C502 C501 1.370 . S
C502 C503 1.438 . S
C502 H564 0.930 . S
C503 C489 1.497 . S
C503 C502 1.438 . S
C503 C504 1.360 . S
C504 C503 1.360 . S
C504 C505 1.401 . S
C504 C509 1.446 . S
C505 C504 1.401 . S
C505 C506 1.347 . S
C505 H565 0.929 . S
C506 C505 1.347 . S
C506 C507 1.455 . S
C506 H566 0.930 . S
C507 C494 1.412 1_554 S
C507 C506 1.455 . S
C507 C508 1.331 . S
C508 C497 1.451 . S
C508 C507 1.331 . S
C508 C509 1.497 . S
C509 C500 1.395 . S
C509 C504 1.446 . S
C509 C508 1.497 . S
C510 C511 1.582 . S
C510 H567 0.962 . S
C510 H568 0.959 . S
C510 H569 0.958 . S
C511 C510 1.582 . S
C511 O514 1.458 . S
C511 H540 0.980 . S
O512 C457 1.426 . S
O512 C458 1.334 . S
O513 C485 1.412 . S
O513 C486 1.393 . S
O514 C476 1.435 . S
O514 C511 1.458 . S
O515 C467 1.468 . S
O515 C468 1.408 . S
H516 C457 0.980 . S
H517 C456 0.959 . S
H518 C456 0.959 . S
H519 C456 0.960 . S
H520 C459 0.929 . S
H521 C463 0.929 . S
H522 C464 0.959 . S
H523 C464 0.961 . S
H524 C464 0.961 . S
H525 C465 0.960 . S
H526 C465 0.960 . S
H527 C465 0.961 1_554 S
H528 C467 0.980 . S
H529 C466 0.961 . S
H530 C466 0.960 . S
H531 C466 0.959 . S
H532 C469 0.930 . S
H533 C473 0.931 . S
H534 C474 0.959 . S
H535 C474 0.961 . S
H536 C474 0.959 . S
H537 C475 0.960 . S
H538 C475 0.960 . S
H539 C475 0.960 1_554 S
H540 C511 0.980 . S
H541 C477 0.930 . S
H542 C481 0.930 . S
H543 C482 0.961 . S
H544 C482 0.960 . S
H545 C482 0.958 . S
H546 C483 0.961 . S
H547 C483 0.960 . S
H548 C483 0.960 . S
H549 C485 0.980 . S
H550 C484 0.961 . S
H551 C484 0.961 . S
H552 C484 0.959 . S
H553 C487 0.932 . S
H554 C491 0.929 . S
H555 C492 0.961 . S
H556 C492 0.959 . S
H557 C492 0.959 . S
H558 C493 0.960 . S
H559 C493 0.962 . S
H560 C493 0.961 . S
H561 C495 0.929 . S
H562 C498 0.930 . S
H563 C499 0.929 . S
H564 C502 0.930 . S
H565 C505 0.929 . S
H566 C506 0.930 . S
H567 C510 0.962 . S
H568 C510 0.959 . S
H569 C510 0.958 . S
C570 C571 1.560 . S
C570 H631 0.959 . S
C570 H632 0.959 . S
C570 H633 0.960 . S
C571 C570 1.560 . S
C571 O626 1.426 . S
C571 H630 0.980 . S
C572 C573 1.407 . S
C572 C577 1.418 . S
C572 O626 1.334 . S
C573 C572 1.407 . S
C573 C574 1.360 . S
C573 H634 0.929 . S
C574 C573 1.360 . S
C574 C575 1.401 . S
C574 C578 1.527 . S
C575 C574 1.401 . S
C575 C576 1.405 . S
C575 C608 1.587 . S
C576 C575 1.405 . S
C576 C577 1.332 . S
C576 C579 1.496 . S
C577 C572 1.418 . S
C577 C576 1.332 . S
C577 H635 0.929 . S
C578 C574 1.527 . S
C578 H636 0.959 . S
C578 H637 0.961 . S
C578 H638 0.961 . S
C579 C576 1.496 . S
C579 H639 0.960 . S
C579 H640 0.960 . S
C579 H641 0.961 . S
C580 C581 1.517 . S
C580 H643 0.961 . S
C580 H644 0.960 . S
C580 H645 0.959 . S
C581 C580 1.517 . S
C581 O629 1.468 . S
C581 H642 0.980 . S
C582 C583 1.349 . S
C582 C587 1.367 . S
C582 O629 1.408 . S
C583 C582 1.349 . S
C583 C584 1.407 . S
C583 H646 0.930 . S
C584 C583 1.407 . S
C584 C585 1.449 . S
C584 C588 1.535 . S
C585 C584 1.449 . S
C585 C586 1.384 . S
C585 C610 1.553 . S
C586 C585 1.384 . S
C586 C587 1.364 . S
C586 C589 1.450 . S
C587 C582 1.367 . S
C587 C586 1.364 . S
C587 H647 0.931 . S
C588 C584 1.535 . S
C588 H648 0.959 . S
C588 H649 0.961 . S
C588 H650 0.959 . S
C589 C586 1.450 . S
C589 H651 0.960 . S
C589 H652 0.960 . S
C589 H653 0.960 . S
C590 C591 1.309 . S
C590 C595 1.304 . S
C590 O628 1.435 1_554 S
C591 C590 1.309 . S
C591 C592 1.476 . S
C591 H655 0.930 . S
C592 C591 1.476 . S
C592 C593 1.400 . S
C592 C596 1.567 . S
C593 C592 1.400 . S
C593 C594 1.373 . S
C593 C615 1.432 . S
C594 C593 1.373 . S
C594 C595 1.339 . S
C594 C597 1.530 . S
C595 C590 1.304 . S
C595 C594 1.339 . S
C595 H656 0.930 . S
C596 C592 1.567 . S
C596 H657 0.961 . S
C596 H658 0.960 . S
C596 H659 0.958 . S
C597 C594 1.530 . S
C597 H660 0.961 . S
C597 H661 0.960 . S
C597 H662 0.960 . S
C598 C599 1.530 . S
C598 H664 0.961 . S
C598 H665 0.961 . S
C598 H666 0.959 . S
C599 C598 1.530 . S
C599 O627 1.412 . S
C599 H663 0.980 1_556 S
C600 C601 1.288 . S
C600 C605 1.377 . S
C600 O627 1.393 1_554 S
C601 C600 1.288 . S
C601 C602 1.369 . S
C601 H667 0.932 . S
C602 C601 1.369 . S
C602 C603 1.398 . S
C602 C606 1.527 . S
C603 C602 1.398 . S
C603 C604 1.380 . S
C603 C617 1.497 . S
C604 C603 1.380 . S
C604 C605 1.383 . S
C604 C607 1.603 . S
C605 C600 1.377 . S
C605 C604 1.383 . S
C605 H668 0.929 . S
C606 C602 1.527 . S
C606 H669 0.961 . S
C606 H670 0.959 . S
C606 H671 0.959 . S
C607 C604 1.603 . S
C607 H672 0.960 . S
C607 H673 0.962 . S
C607 H674 0.961 . S
C608 C575 1.587 . S
C608 C609 1.360 . S
C608 C621 1.412 . S
C609 C608 1.360 . S
C609 C610 1.365 . S
C609 H675 0.929 . S
C610 C585 1.553 . S
C610 C609 1.365 . S
C610 C611 1.404 . S
C611 C610 1.404 . S
C611 C612 1.395 . S
C611 C622 1.451 . S
C612 C611 1.395 . S
C612 C613 1.322 . S
C612 H676 0.930 . S
C613 C612 1.322 . S
C613 C614 1.459 . S
C613 H677 0.929 . S
C614 C613 1.459 . S
C614 C615 1.445 . S
C614 C623 1.395 . S
C615 C593 1.432 . S
C615 C614 1.445 . S
C615 C616 1.370 . S
C616 C615 1.370 . S
C616 C617 1.438 . S
C616 H678 0.930 . S
C617 C603 1.497 . S
C617 C616 1.438 . S
C617 C618 1.360 . S
C618 C617 1.360 . S
C618 C619 1.401 . S
C618 C623 1.446 . S
C619 C618 1.401 . S
C619 C620 1.347 . S
C619 H679 0.929 . S
C620 C619 1.347 . S
C620 C621 1.455 . S
C620 H680 0.930 . S
C621 C608 1.412 . S
C621 C620 1.455 . S
C621 C622 1.331 . S
C622 C611 1.451 . S
C622 C621 1.331 . S
C622 C623 1.497 . S
C623 C614 1.395 . S
C623 C618 1.446 . S
C623 C622 1.497 . S
C624 C625 1.582 . S
C624 H681 0.962 . S
C624 H682 0.959 . S
C624 H683 0.958 . S
C625 C624 1.582 . S
C625 O628 1.458 . S
C625 H654 0.980 1_556 S
O626 C571 1.426 . S
O626 C572 1.334 . S
O627 C599 1.412 . S
O627 C600 1.393 1_556 S
O628 C590 1.435 1_556 S
O628 C625 1.458 . S
O629 C581 1.468 . S
O629 C582 1.408 . S
H630 C571 0.980 . S
H631 C570 0.959 . S
H632 C570 0.959 . S
H633 C570 0.960 . S
H634 C573 0.929 . S
H635 C577 0.929 . S
H636 C578 0.959 . S
H637 C578 0.961 . S
H638 C578 0.961 . S
H639 C579 0.960 . S
H640 C579 0.960 . S
H641 C579 0.961 . S
H642 C581 0.980 . S
H643 C580 0.961 . S
H644 C580 0.960 . S
H645 C580 0.959 . S
H646 C583 0.930 . S
H647 C587 0.931 . S
H648 C588 0.959 . S
H649 C588 0.961 . S
H650 C588 0.959 . S
H651 C589 0.960 . S
H652 C589 0.960 . S
H653 C589 0.960 . S
H654 C625 0.980 1_554 S
H655 C591 0.930 . S
H656 C595 0.930 . S
H657 C596 0.961 . S
H658 C596 0.960 . S
H659 C596 0.958 . S
H660 C597 0.961 . S
H661 C597 0.960 . S
H662 C597 0.960 . S
H663 C599 0.980 1_554 S
H664 C598 0.961 . S
H665 C598 0.961 . S
H666 C598 0.959 . S
H667 C601 0.932 . S
H668 C605 0.929 . S
H669 C606 0.961 . S
H670 C606 0.959 . S
H671 C606 0.959 . S
H672 C607 0.960 . S
H673 C607 0.962 . S
H674 C607 0.961 . S
H675 C609 0.929 . S
H676 C612 0.930 . S
H677 C613 0.929 . S
H678 C616 0.930 . S
H679 C619 0.929 . S
H680 C620 0.930 . S
H681 C624 0.962 . S
H682 C624 0.959 . S
H683 C624 0.958 . S
C684 O696 1.241 . S
C684 O697 1.280 . S
C685 O698 1.277 . S
C685 O699 1.245 . S
C686 O710 1.247 . S
C686 O712 1.289 . S
Mg687 O688 1.926 . S
Mg687 O697 1.984 1_455 S
Mg687 O699 1.988 . S
Mg687 O700 2.061 1_455 S
O688 Mg687 1.926 . S
O688 Mg689 1.986 . S
O688 Mg690 1.917 . S
Mg689 O688 1.986 . S
Mg689 O696 2.042 1_455 S
Mg689 O698 2.041 . S
Mg689 O704 2.038 1_455 S
Mg689 O712 2.238 . S
Mg690 O688 1.917 . S
Mg690 O691 1.917 . S
Mg690 O701 2.106 1_455 S
Mg690 O703 2.079 1_455 S
Mg690 O712 2.106 . S
Mg690 O713 2.079 . S
O691 Mg690 1.917 . S
O691 Mg692 1.926 . S
O691 Mg693 1.986 . S
Mg692 O691 1.926 . S
Mg692 O706 1.984 . S
Mg692 O709 1.988 1_455 S
Mg692 O710 2.061 . S
Mg693 O691 1.986 . S
Mg693 O701 2.238 1_455 S
Mg693 O705 2.042 . S
Mg693 O707 2.041 1_455 S
Mg693 O714 2.038 . S
C694 O700 1.247 . S
C694 O701 1.289 . S
C695 O713 1.245 . S
C695 O714 1.274 . S
O696 C684 1.241 . S
O696 Mg689 2.042 1_655 S
O697 C684 1.280 . S
O697 Mg687 1.984 1_655 S
O698 C685 1.277 . S
O698 Mg689 2.041 . S
O699 C685 1.245 . S
O699 Mg687 1.988 . S
O700 Mg687 2.061 1_655 S
O700 C694 1.247 . S
O701 Mg690 2.106 1_655 S
O701 Mg693 2.238 1_655 S
O701 C694 1.289 . S
C702 O703 1.245 . S
C702 O704 1.274 . S
O703 Mg690 2.079 1_655 S
O703 C702 1.245 . S
O704 Mg689 2.038 1_655 S
O704 C702 1.274 . S
O705 Mg693 2.042 . S
O705 C708 1.241 . S
O706 Mg692 1.984 . S
O706 C708 1.280 . S
O707 Mg693 2.041 1_655 S
O707 C711 1.277 . S
C708 O705 1.241 . S
C708 O706 1.280 . S
O709 Mg692 1.988 1_655 S
O709 C711 1.245 . S
O710 C686 1.247 . S
O710 Mg692 2.061 . S
C711 O707 1.277 . S
C711 O709 1.245 . S
O712 C686 1.289 . S
O712 Mg689 2.238 . S
O712 Mg690 2.106 . S
O713 Mg690 2.079 . S
O713 C695 1.245 . S
O714 Mg693 2.038 . S
O714 C695 1.274 . S
C715 O727 1.241 . S
C715 O728 1.280 . S
C716 O729 1.277 . S
C716 O730 1.245 . S
C717 O741 1.247 . S
C717 O743 1.289 . S
Mg718 O719 1.926 . S
Mg718 O728 1.984 . S
Mg718 O730 1.988 1_545 S
Mg718 O731 2.061 . S
O719 Mg718 1.926 . S
O719 Mg720 1.986 . S
O719 Mg721 1.917 . S
Mg720 O719 1.986 . S
Mg720 O727 2.042 . S
Mg720 O729 2.041 1_545 S
Mg720 O735 2.038 . S
Mg720 O743 2.238 1_545 S
Mg721 O719 1.917 . S
Mg721 O722 1.917 . S
Mg721 O732 2.106 . S
Mg721 O734 2.079 . S
Mg721 O743 2.106 1_545 S
Mg721 O744 2.079 1_545 S
O722 Mg721 1.917 . S
O722 Mg723 1.926 . S
O722 Mg724 1.986 . S
Mg723 O722 1.926 . S
Mg723 O737 1.984 1_545 S
Mg723 O740 1.988 . S
Mg723 O741 2.061 1_545 S
Mg724 O722 1.986 . S
Mg724 O732 2.238 . S
Mg724 O736 2.042 1_545 S
Mg724 O738 2.041 . S
Mg724 O745 2.038 1_545 S
C725 O731 1.247 . S
C725 O732 1.289 . S
C726 O744 1.245 . S
C726 O745 1.274 . S
O727 C715 1.241 . S
O727 Mg720 2.042 . S
O728 C715 1.280 . S
O728 Mg718 1.984 . S
O729 C716 1.277 . S
O729 Mg720 2.041 1_565 S
O730 C716 1.245 . S
O730 Mg718 1.988 1_565 S
O731 Mg718 2.061 . S
O731 C725 1.247 . S
O732 Mg721 2.106 . S
O732 Mg724 2.238 . S
O732 C725 1.289 . S
C733 O734 1.245 . S
C733 O735 1.274 . S
O734 Mg721 2.079 . S
O734 C733 1.245 . S
O735 Mg720 2.038 . S
O735 C733 1.274 . S
O736 Mg724 2.042 1_565 S
O736 C739 1.241 . S
O737 Mg723 1.984 1_565 S
O737 C739 1.280 . S
O738 Mg724 2.041 . S
O738 C742 1.277 . S
C739 O736 1.241 . S
C739 O737 1.280 . S
O740 Mg723 1.988 . S
O740 C742 1.245 . S
O741 C717 1.247 . S
O741 Mg723 2.061 1_565 S
C742 O738 1.277 . S
C742 O740 1.245 . S
O743 C717 1.289 . S
O743 Mg720 2.238 1_565 S
O743 Mg721 2.106 1_565 S
O744 Mg721 2.079 1_565 S
O744 C726 1.245 . S
O745 Mg724 2.038 1_565 S
O745 C726 1.274 . S
C746 O758 1.241 . S
C746 O759 1.280 . S
C747 O760 1.277 . S
C747 O761 1.245 . S
C748 O772 1.247 . S
C748 O774 1.289 . S
Mg749 O750 1.926 . S
Mg749 O759 1.984 . S
Mg749 O761 1.988 . S
Mg749 O762 2.061 . S
O750 Mg749 1.926 . S
O750 Mg751 1.986 . S
O750 Mg752 1.917 . S
Mg751 O750 1.986 . S
Mg751 O758 2.042 . S
Mg751 O760 2.041 . S
Mg751 O766 2.038 . S
Mg751 O774 2.238 . S
Mg752 O750 1.917 . S
Mg752 O753 1.917 . S
Mg752 O763 2.106 . S
Mg752 O765 2.079 . S
Mg752 O774 2.106 . S
Mg752 O775 2.079 . S
O753 Mg752 1.917 . S
O753 Mg754 1.926 . S
O753 Mg755 1.986 . S
Mg754 O753 1.926 . S
Mg754 O768 1.984 . S
Mg754 O771 1.988 . S
Mg754 O772 2.061 . S
Mg755 O753 1.986 . S
Mg755 O763 2.238 . S
Mg755 O767 2.042 . S
Mg755 O769 2.041 . S
Mg755 O776 2.038 . S
C756 O762 1.247 . S
C756 O763 1.289 . S
C757 O775 1.245 . S
C757 O776 1.274 . S
O758 C746 1.241 . S
O758 Mg751 2.042 . S
O759 C746 1.280 . S
O759 Mg749 1.984 . S
O760 C747 1.277 . S
O760 Mg751 2.041 . S
O761 C747 1.245 . S
O761 Mg749 1.988 . S
O762 Mg749 2.061 . S
O762 C756 1.247 . S
O763 Mg752 2.106 . S
O763 Mg755 2.238 . S
O763 C756 1.289 . S
C764 O765 1.245 . S
C764 O766 1.274 . S
O765 Mg752 2.079 . S
O765 C764 1.245 . S
O766 Mg751 2.038 . S
O766 C764 1.274 . S
O767 Mg755 2.042 . S
O767 C770 1.241 . S
O768 Mg754 1.984 . S
O768 C770 1.280 . S
O769 Mg755 2.041 . S
O769 C773 1.277 . S
C770 O767 1.241 . S
C770 O768 1.280 . S
O771 Mg754 1.988 . S
O771 C773 1.245 . S
O772 C748 1.247 . S
O772 Mg754 2.061 . S
C773 O769 1.277 . S
C773 O771 1.245 . S
O774 C748 1.289 . S
O774 Mg751 2.238 . S
O774 Mg752 2.106 . S
O775 Mg752 2.079 . S
O775 C757 1.245 . S
O776 Mg755 2.038 . S
O776 C757 1.274 . S
H777 C783 0.930 . S
H778 C786 0.930 . S
H779 C787 0.930 . S
H780 C788 0.930 . S
H781 C791 0.930 . S
H782 C792 0.930 . S
C783 H777 0.930 . S
C783 C784 1.355 . S
C783 C785 1.415 . S
C784 C783 1.355 . S
C784 C786 1.419 . S
C785 C783 1.415 . S
C785 C790 1.425 . S
C785 C792 1.409 . S
C786 H778 0.930 . S
C786 C784 1.419 . S
C786 C787 1.362 . S
C787 H779 0.930 . S
C787 C786 1.362 . S
C787 C790 1.409 . S
C788 H780 0.930 . S
C788 C789 1.355 . S
C788 C790 1.415 . S
C789 C788 1.355 . S
C789 C791 1.419 . S
C790 C785 1.425 . S
C790 C787 1.409 . S
C790 C788 1.415 . S
C791 H781 0.930 . S
C791 C789 1.419 . S
C791 C792 1.362 . S
C792 H782 0.930 . S
C792 C785 1.409 . S
C792 C791 1.362 . S
H793 C799 0.930 . S
H794 C802 0.930 . S
H795 C803 0.930 . S
H796 C804 0.930 . S
H797 C807 0.930 . S
H798 C808 0.930 . S
C799 H793 0.930 . S
C799 C800 1.355 . S
C799 C801 1.415 . S
C800 C799 1.355 . S
C800 C802 1.419 . S
C801 C799 1.415 . S
C801 C806 1.425 . S
C801 C808 1.409 . S
C802 H794 0.930 . S
C802 C800 1.419 . S
C802 C803 1.362 . S
C803 H795 0.930 . S
C803 C802 1.362 . S
C803 C806 1.409 . S
C804 H796 0.930 . S
C804 C805 1.355 . S
C804 C806 1.415 . S
C805 C804 1.355 . S
C805 C807 1.419 . S
C806 C801 1.425 . S
C806 C803 1.409 . S
C806 C804 1.415 . S
C807 H797 0.930 . S
C807 C805 1.419 . S
C807 C808 1.362 . S
C808 H798 0.930 . S
C808 C801 1.409 . S
C808 C807 1.362 . S
H809 C815 0.930 . S
H810 C818 0.930 . S
H811 C819 0.930 . S
H812 C820 0.930 . S
H813 C823 0.930 . S
H814 C824 0.930 . S
C815 H809 0.930 . S
C815 C816 1.355 . S
C815 C817 1.415 . S
C816 C815 1.355 . S
C816 C818 1.419 . S
C817 C815 1.415 . S
C817 C822 1.425 . S
C817 C824 1.409 . S
C818 H810 0.930 . S
C818 C816 1.419 . S
C818 C819 1.362 . S
C819 H811 0.930 . S
C819 C818 1.362 . S
C819 C822 1.409 . S
C820 H812 0.930 . S
C820 C821 1.355 . S
C820 C822 1.415 . S
C821 C820 1.355 . S
C821 C823 1.419 . S
C822 C817 1.425 . S
C822 C819 1.409 . S
C822 C820 1.415 . S
C823 H813 0.930 . S
C823 C821 1.419 . S
C823 C824 1.362 . S
C824 H814 0.930 . S
C824 C817 1.409 . S
C824 C823 1.362 . S
H825 C831 0.930 . S
H826 C834 0.930 . S
H827 C835 0.930 . S
H828 C836 0.930 . S
H829 C839 0.930 . S
H830 C840 0.930 . S
C831 H825 0.930 . S
C831 C832 1.355 . S
C831 C833 1.415 . S
C832 C831 1.355 . S
C832 C834 1.419 . S
C833 C831 1.415 . S
C833 C838 1.425 . S
C833 C840 1.409 . S
C834 H826 0.930 . S
C834 C832 1.419 . S
C834 C835 1.362 . S
C835 H827 0.930 . S
C835 C834 1.362 . S
C835 C838 1.409 . S
C836 H828 0.930 . S
C836 C837 1.355 . S
C836 C838 1.415 . S
C837 C836 1.355 . S
C837 C839 1.419 . S
C838 C833 1.425 . S
C838 C835 1.409 . S
C838 C836 1.415 . S
C839 H829 0.930 . S
C839 C837 1.419 . S
C839 C840 1.362 . S
C840 H830 0.930 . S
C840 C833 1.409 . S
C840 C839 1.362 . S
H841 C847 0.930 . S
H842 C850 0.930 . S
H843 C851 0.930 . S
H844 C852 0.930 . S
H845 C855 0.930 . S
H846 C856 0.930 . S
C847 H841 0.930 . S
C847 C848 1.355 . S
C847 C849 1.415 . S
C848 C847 1.355 . S
C848 C850 1.419 . S
C849 C847 1.415 . S
C849 C854 1.425 . S
C849 C856 1.409 . S
C850 H842 0.930 . S
C850 C848 1.419 . S
C850 C851 1.362 . S
C851 H843 0.930 . S
C851 C850 1.362 . S
C851 C854 1.409 . S
C852 H844 0.930 . S
C852 C853 1.355 . S
C852 C854 1.415 . S
C853 C852 1.355 . S
C853 C855 1.419 . S
C854 C849 1.425 . S
C854 C851 1.409 . S
C854 C852 1.415 . S
C855 H845 0.930 . S
C855 C853 1.419 . S
C855 C856 1.362 . S
C856 H846 0.930 . S
C856 C849 1.409 . S
C856 C855 1.362 . S
H857 C863 0.930 . S
H858 C866 0.930 . S
H859 C867 0.930 . S
H860 C868 0.930 . S
H861 C871 0.930 . S
H862 C872 0.930 . S
C863 H857 0.930 . S
C863 C864 1.355 . S
C863 C865 1.415 . S
C864 C863 1.355 . S
C864 C866 1.419 . S
C865 C863 1.415 . S
C865 C870 1.425 . S
C865 C872 1.409 . S
C866 H858 0.930 . S
C866 C864 1.419 . S
C866 C867 1.362 . S
C867 H859 0.930 . S
C867 C866 1.362 . S
C867 C870 1.409 . S
C868 H860 0.930 . S
C868 C869 1.355 . S
C868 C870 1.415 . S
C869 C868 1.355 . S
C869 C871 1.419 . S
C870 C865 1.425 . S
C870 C867 1.409 . S
C870 C868 1.415 . S
C871 H861 0.930 . S
C871 C869 1.419 . S
C871 C872 1.362 . S
C872 H862 0.930 . S
C872 C865 1.409 . S
C872 C871 1.362 . S
H873 C879 0.930 . S
H874 C882 0.930 . S
H875 C883 0.930 . S
H876 C884 0.930 . S
H877 C887 0.930 . S
H878 C888 0.930 . S
C879 H873 0.930 . S
C879 C880 1.355 . S
C879 C881 1.415 . S
C880 C879 1.355 . S
C880 C882 1.419 . S
C881 C879 1.415 . S
C881 C886 1.425 . S
C881 C888 1.409 . S
C882 H874 0.930 . S
C882 C880 1.419 . S
C882 C883 1.362 . S
C883 H875 0.930 . S
C883 C882 1.362 . S
C883 C886 1.409 . S
C884 H876 0.930 . S
C884 C885 1.355 . S
C884 C886 1.415 . S
C885 C884 1.355 . S
C885 C887 1.419 . S
C886 C881 1.425 . S
C886 C883 1.409 . S
C886 C884 1.415 . S
C887 H877 0.930 . S
C887 C885 1.419 . S
C887 C888 1.362 . S
C888 H878 0.930 . S
C888 C881 1.409 . S
C888 C887 1.362 . S
H889 C895 0.930 . S
H890 C898 0.930 . S
H891 C899 0.930 . S
H892 C900 0.930 . S
H893 C903 0.930 . S
H894 C904 0.930 . S
C895 H889 0.930 . S
C895 C896 1.355 . S
C895 C897 1.415 . S
C896 C895 1.355 . S
C896 C898 1.419 . S
C897 C895 1.415 . S
C897 C902 1.425 . S
C897 C904 1.409 . S
C898 H890 0.930 . S
C898 C896 1.419 . S
C898 C899 1.362 . S
C899 H891 0.930 . S
C899 C898 1.362 . S
C899 C902 1.409 . S
C900 H892 0.930 . S
C900 C901 1.355 . S
C900 C902 1.415 . S
C901 C900 1.355 . S
C901 C903 1.419 . S
C902 C897 1.425 . S
C902 C899 1.409 . S
C902 C900 1.415 . S
C903 H893 0.930 . S
C903 C901 1.419 . S
C903 C904 1.362 . S
C904 H894 0.930 . S
C904 C897 1.409 . S
C904 C903 1.362 . S
H905 C911 0.930 . S
H906 C914 0.930 . S
H907 C915 0.930 . S
H908 C916 0.930 . S
H909 C919 0.930 . S
H910 C920 0.930 . S
C911 H905 0.930 . S
C911 C912 1.355 . S
C911 C913 1.415 . S
C912 C911 1.355 . S
C912 C914 1.419 . S
C913 C911 1.415 . S
C913 C918 1.425 . S
C913 C920 1.409 . S
C914 H906 0.930 . S
C914 C912 1.419 . S
C914 C915 1.362 . S
C915 H907 0.930 . S
C915 C914 1.362 . S
C915 C918 1.409 . S
C916 H908 0.930 . S
C916 C917 1.355 . S
C916 C918 1.415 . S
C917 C916 1.355 . S
C917 C919 1.419 . S
C918 C913 1.425 . S
C918 C915 1.409 . S
C918 C916 1.415 . S
C919 H909 0.930 . S
C919 C917 1.419 . S
C919 C920 1.362 . S
C920 H910 0.930 . S
C920 C913 1.409 . S
C920 C919 1.362 . S
H921 C927 0.930 . S
H922 C930 0.930 . S
H923 C931 0.930 . S
H924 C932 0.930 . S
H925 C935 0.930 . S
H926 C936 0.930 . S
C927 H921 0.930 . S
C927 C928 1.355 . S
C927 C929 1.415 . S
C928 C927 1.355 . S
C928 C930 1.419 . S
C929 C927 1.415 . S
C929 C934 1.425 . S
C929 C936 1.409 . S
C930 H922 0.930 . S
C930 C928 1.419 . S
C930 C931 1.362 . S
C931 H923 0.930 . S
C931 C930 1.362 . S
C931 C934 1.409 . S
C932 H924 0.930 . S
C932 C933 1.355 . S
C932 C934 1.415 . S
C933 C932 1.355 . S
C933 C935 1.419 . S
C934 C929 1.425 . S
C934 C931 1.409 . S
C934 C932 1.415 . S
C935 H925 0.930 . S
C935 C933 1.419 . S
C935 C936 1.362 . S
C936 H926 0.930 . S
C936 C929 1.409 . S
C936 C935 1.362 . S
H937 C943 0.930 . S
H938 C946 0.930 . S
H939 C947 0.930 . S
H940 C948 0.930 . S
H941 C951 0.930 . S
H942 C952 0.930 . S
C943 H937 0.930 . S
C943 C944 1.355 . S
C943 C945 1.415 . S
C944 C943 1.355 . S
C944 C946 1.419 . S
C945 C943 1.415 . S
C945 C950 1.425 . S
C945 C952 1.409 . S
C946 H938 0.930 . S
C946 C944 1.419 . S
C946 C947 1.362 . S
C947 H939 0.930 . S
C947 C946 1.362 . S
C947 C950 1.409 . S
C948 H940 0.930 . S
C948 C949 1.355 . S
C948 C950 1.415 . S
C949 C948 1.355 . S
C949 C951 1.419 . S
C950 C945 1.425 . S
C950 C947 1.409 . S
C950 C948 1.415 . S
C951 H941 0.930 . S
C951 C949 1.419 . S
C951 C952 1.362 . S
C952 H942 0.930 . S
C952 C945 1.409 . S
C952 C951 1.362 . S
H953 C959 0.930 . S
H954 C962 0.930 . S
H955 C963 0.930 . S
H956 C964 0.930 . S
H957 C967 0.930 . S
H958 C968 0.930 . S
C959 H953 0.930 . S
C959 C960 1.355 . S
C959 C961 1.415 . S
C960 C959 1.355 . S
C960 C962 1.419 . S
C961 C959 1.415 . S
C961 C966 1.425 . S
C961 C968 1.409 . S
C962 H954 0.930 . S
C962 C960 1.419 . S
C962 C963 1.362 . S
C963 H955 0.930 . S
C963 C962 1.362 . S
C963 C966 1.409 . S
C964 H956 0.930 . S
C964 C965 1.355 . S
C964 C966 1.415 . S
C965 C964 1.355 . S
C965 C967 1.419 . S
C966 C961 1.425 . S
C966 C963 1.409 . S
C966 C964 1.415 . S
C967 H957 0.930 . S
C967 C965 1.419 . S
C967 C968 1.362 . S
C968 H958 0.930 . S
C968 C961 1.409 . S
C968 C967 1.362 . S
H969 C975 0.930 . S
H970 C978 0.930 . S
H971 C979 0.930 . S
H972 C980 0.930 . S
H973 C983 0.930 . S
H974 C984 0.930 . S
C975 H969 0.930 . S
C975 C976 1.355 . S
C975 C977 1.415 . S
C976 C975 1.355 . S
C976 C978 1.419 . S
C977 C975 1.415 . S
C977 C982 1.425 . S
C977 C984 1.409 . S
C978 H970 0.930 . S
C978 C976 1.419 . S
C978 C979 1.362 . S
C979 H971 0.930 . S
C979 C978 1.362 . S
C979 C982 1.409 . S
C980 H972 0.930 . S
C980 C981 1.355 . S
C980 C982 1.415 . S
C981 C980 1.355 . S
C981 C983 1.419 . S
C982 C977 1.425 . S
C982 C979 1.409 . S
C982 C980 1.415 . S
C983 H973 0.930 . S
C983 C981 1.419 . S
C983 C984 1.362 . S
C984 H974 0.930 . S
C984 C977 1.409 . S
C984 C983 1.362 . S
H985 C991 0.930 . S
H986 C994 0.930 . S
H987 C995 0.930 . S
H988 C996 0.930 . S
H989 C999 0.930 . S
H990 C1000 0.930 . S
C991 H985 0.930 . S
C991 C992 1.355 . S
C991 C993 1.415 . S
C992 C991 1.355 . S
C992 C994 1.419 . S
C993 C991 1.415 . S
C993 C998 1.425 . S
C993 C1000 1.409 . S
C994 H986 0.930 . S
C994 C992 1.419 . S
C994 C995 1.362 . S
C995 H987 0.930 . S
C995 C994 1.362 . S
C995 C998 1.409 . S
C996 H988 0.930 . S
C996 C997 1.355 . S
C996 C998 1.415 . S
C997 C996 1.355 . S
C997 C999 1.419 . S
C998 C993 1.425 . S
C998 C995 1.409 . S
C998 C996 1.415 . S
C999 H989 0.930 . S
C999 C997 1.419 . S
C999 C1000 1.362 . S
C1000 H990 0.930 . S
C1000 C993 1.409 . S
C1000 C999 1.362 . S
H1001 C1007 0.930 . S
H1002 C1010 0.930 . S
H1003 C1011 0.930 . S
H1004 C1012 0.930 . S
H1005 C1015 0.930 . S
H1006 C1016 0.930 . S
C1007 H1001 0.930 . S
C1007 C1008 1.355 . S
C1007 C1009 1.415 . S
C1008 C1007 1.355 . S
C1008 C1010 1.419 . S
C1009 C1007 1.415 . S
C1009 C1014 1.425 . S
C1009 C1016 1.409 . S
C1010 H1002 0.930 . S
C1010 C1008 1.419 . S
C1010 C1011 1.362 . S
C1011 H1003 0.930 . S
C1011 C1010 1.362 . S
C1011 C1014 1.409 . S
C1012 H1004 0.930 . S
C1012 C1013 1.355 . S
C1012 C1014 1.415 . S
C1013 C1012 1.355 . S
C1013 C1015 1.419 . S
C1014 C1009 1.425 . S
C1014 C1011 1.409 . S
C1014 C1012 1.415 . S
C1015 H1005 0.930 . S
C1015 C1013 1.419 . S
C1015 C1016 1.362 . S
C1016 H1006 0.930 . S
C1016 C1009 1.409 . S
C1016 C1015 1.362 . S
H1017 C1023 0.930 . S
H1018 C1026 0.930 . S
H1019 C1027 0.930 . S
H1020 C1028 0.930 . S
H1021 C1031 0.930 . S
H1022 C1032 0.930 . S
C1023 H1017 0.930 . S
C1023 C1024 1.355 . S
C1023 C1025 1.415 . S
C1024 C1023 1.355 . S
C1024 C1026 1.419 . S
C1025 C1023 1.415 . S
C1025 C1030 1.425 . S
C1025 C1032 1.409 . S
C1026 H1018 0.930 . S
C1026 C1024 1.419 . S
C1026 C1027 1.362 . S
C1027 H1019 0.930 . S
C1027 C1026 1.362 . S
C1027 C1030 1.409 . S
C1028 H1020 0.930 . S
C1028 C1029 1.355 . S
C1028 C1030 1.415 . S
C1029 C1028 1.355 . S
C1029 C1031 1.419 . S
C1030 C1025 1.425 . S
C1030 C1027 1.409 . S
C1030 C1028 1.415 . S
C1031 H1021 0.930 . S
C1031 C1029 1.419 . S
C1031 C1032 1.362 . S
C1032 H1022 0.930 . S
C1032 C1025 1.409 . S
C1032 C1031 1.362 . S
H1033 C1039 0.930 . S
H1034 C1042 0.930 . S
H1035 C1043 0.930 . S
H1036 C1044 0.930 . S
H1037 C1047 0.930 . S
H1038 C1048 0.930 . S
C1039 H1033 0.930 . S
C1039 C1040 1.355 . S
C1039 C1041 1.415 . S
C1040 C1039 1.355 . S
C1040 C1042 1.419 . S
C1041 C1039 1.415 . S
C1041 C1046 1.425 . S
C1041 C1048 1.409 . S
C1042 H1034 0.930 . S
C1042 C1040 1.419 . S
C1042 C1043 1.362 . S
C1043 H1035 0.930 . S
C1043 C1042 1.362 . S
C1043 C1046 1.409 . S
C1044 H1036 0.930 . S
C1044 C1045 1.355 . S
C1044 C1046 1.415 . S
C1045 C1044 1.355 . S
C1045 C1047 1.419 . S
C1046 C1041 1.425 . S
C1046 C1043 1.409 . S
C1046 C1044 1.415 . S
C1047 H1037 0.930 . S
C1047 C1045 1.419 . S
C1047 C1048 1.362 . S
C1048 H1038 0.930 . S
C1048 C1041 1.409 . S
C1048 C1047 1.362 . S
H1049 C1055 0.930 . S
H1050 C1058 0.930 . S
H1051 C1059 0.930 . S
H1052 C1060 0.930 . S
H1053 C1063 0.930 . S
H1054 C1064 0.930 . S
C1055 H1049 0.930 . S
C1055 C1056 1.355 . S
C1055 C1057 1.415 . S
C1056 C1055 1.355 . S
C1056 C1058 1.419 . S
C1057 C1055 1.415 . S
C1057 C1062 1.425 . S
C1057 C1064 1.409 . S
C1058 H1050 0.930 . S
C1058 C1056 1.419 . S
C1058 C1059 1.362 . S
C1059 H1051 0.930 . S
C1059 C1058 1.362 . S
C1059 C1062 1.409 . S
C1060 H1052 0.930 . S
C1060 C1061 1.355 . S
C1060 C1062 1.415 . S
C1061 C1060 1.355 . S
C1061 C1063 1.419 . S
C1062 C1057 1.425 . S
C1062 C1059 1.409 . S
C1062 C1060 1.415 . S
C1063 H1053 0.930 . S
C1063 C1061 1.419 . S
C1063 C1064 1.362 . S
C1064 H1054 0.930 . S
C1064 C1057 1.409 . S
C1064 C1063 1.362 . S
H1065 C1071 0.930 . S
H1066 C1074 0.930 . S
H1067 C1075 0.930 . S
H1068 C1076 0.930 . S
H1069 C1079 0.930 . S
H1070 C1080 0.930 . S
C1071 H1065 0.930 . S
C1071 C1072 1.355 . S
C1071 C1073 1.415 . S
C1072 C1071 1.355 . S
C1072 C1074 1.419 . S
C1073 C1071 1.415 . S
C1073 C1078 1.425 . S
C1073 C1080 1.409 . S
C1074 H1066 0.930 . S
C1074 C1072 1.419 . S
C1074 C1075 1.362 . S
C1075 H1067 0.930 . S
C1075 C1074 1.362 . S
C1075 C1078 1.409 . S
C1076 H1068 0.930 . S
C1076 C1077 1.355 . S
C1076 C1078 1.415 . S
C1077 C1076 1.355 . S
C1077 C1079 1.419 . S
C1078 C1073 1.425 . S
C1078 C1075 1.409 . S
C1078 C1076 1.415 . S
C1079 H1069 0.930 . S
C1079 C1077 1.419 . S
C1079 C1080 1.362 . S
C1080 H1070 0.930 . S
C1080 C1073 1.409 . S
C1080 C1079 1.362 . S
H1081 C1087 0.930 . S
H1082 C1090 0.930 . S
H1083 C1091 0.930 . S
H1084 C1092 0.930 . S
H1085 C1095 0.930 . S
H1086 C1096 0.930 . S
C1087 H1081 0.930 . S
C1087 C1088 1.355 . S
C1087 C1089 1.415 . S
C1088 C1087 1.355 . S
C1088 C1090 1.419 . S
C1089 C1087 1.415 . S
C1089 C1094 1.425 . S
C1089 C1096 1.409 . S
C1090 H1082 0.930 . S
C1090 C1088 1.419 . S
C1090 C1091 1.362 . S
C1091 H1083 0.930 . S
C1091 C1090 1.362 . S
C1091 C1094 1.409 . S
C1092 H1084 0.930 . S
C1092 C1093 1.355 . S
C1092 C1094 1.415 . S
C1093 C1092 1.355 . S
C1093 C1095 1.419 . S
C1094 C1089 1.425 . S
C1094 C1091 1.409 . S
C1094 C1092 1.415 . S
C1095 H1085 0.930 . S
C1095 C1093 1.419 . S
C1095 C1096 1.362 . S
C1096 H1086 0.930 . S
C1096 C1089 1.409 . S
C1096 C1095 1.362 . S
H1097 C1103 0.930 . S
H1098 C1106 0.930 . S
H1099 C1107 0.930 . S
H1100 C1108 0.930 . S
H1101 C1111 0.930 . S
H1102 C1112 0.930 . S
C1103 H1097 0.930 . S
C1103 C1104 1.355 . S
C1103 C1105 1.415 . S
C1104 C1103 1.355 . S
C1104 C1106 1.419 . S
C1105 C1103 1.415 . S
C1105 C1110 1.425 . S
C1105 C1112 1.409 . S
C1106 H1098 0.930 . S
C1106 C1104 1.419 . S
C1106 C1107 1.362 . S
C1107 H1099 0.930 . S
C1107 C1106 1.362 . S
C1107 C1110 1.409 . S
C1108 H1100 0.930 . S
C1108 C1109 1.355 . S
C1108 C1110 1.415 . S
C1109 C1108 1.355 . S
C1109 C1111 1.419 . S
C1110 C1105 1.425 . S
C1110 C1107 1.409 . S
C1110 C1108 1.415 . S
C1111 H1101 0.930 . S
C1111 C1109 1.419 . S
C1111 C1112 1.362 . S
C1112 H1102 0.930 . S
C1112 C1105 1.409 . S
C1112 C1111 1.362 . S
H1113 C1119 0.930 . S
H1114 C1122 0.930 . S
H1115 C1123 0.930 . S
H1116 C1124 0.930 . S
H1117 C1127 0.930 . S
H1118 C1128 0.930 . S
C1119 H1113 0.930 . S
C1119 C1120 1.355 . S
C1119 C1121 1.415 . S
C1120 C1119 1.355 . S
C1120 C1122 1.419 . S
C1121 C1119 1.415 . S
C1121 C1126 1.425 . S
C1121 C1128 1.409 . S
C1122 H1114 0.930 . S
C1122 C1120 1.419 . S
C1122 C1123 1.362 . S
C1123 H1115 0.930 . S
C1123 C1122 1.362 . S
C1123 C1126 1.409 . S
C1124 H1116 0.930 . S
C1124 C1125 1.355 . S
C1124 C1126 1.415 . S
C1125 C1124 1.355 . S
C1125 C1127 1.419 . S
C1126 C1121 1.425 . S
C1126 C1123 1.409 . S
C1126 C1124 1.415 . S
C1127 H1117 0.930 . S
C1127 C1125 1.419 . S
C1127 C1128 1.362 . S
C1128 H1118 0.930 . S
C1128 C1121 1.409 . S
C1128 C1127 1.362 . S
H1129 C1135 0.930 . S
H1130 C1138 0.930 . S
H1131 C1139 0.930 . S
H1132 C1140 0.930 . S
H1133 C1143 0.930 . S
H1134 C1144 0.930 . S
C1135 H1129 0.930 . S
C1135 C1136 1.355 . S
C1135 C1137 1.415 . S
C1136 C1135 1.355 . S
C1136 C1138 1.419 . S
C1137 C1135 1.415 . S
C1137 C1142 1.425 . S
C1137 C1144 1.409 . S
C1138 H1130 0.930 . S
C1138 C1136 1.419 . S
C1138 C1139 1.362 . S
C1139 H1131 0.930 . S
C1139 C1138 1.362 . S
C1139 C1142 1.409 . S
C1140 H1132 0.930 . S
C1140 C1141 1.355 . S
C1140 C1142 1.415 . S
C1141 C1140 1.355 . S
C1141 C1143 1.419 . S
C1142 C1137 1.425 . S
C1142 C1139 1.409 . S
C1142 C1140 1.415 . S
C1143 H1133 0.930 . S
C1143 C1141 1.419 . S
C1143 C1144 1.362 . S
C1144 H1134 0.930 . S
C1144 C1137 1.409 . S
C1144 C1143 1.362 . S
H1145 C1151 0.930 . S
H1146 C1154 0.930 . S
H1147 C1155 0.930 . S
H1148 C1156 0.930 . S
H1149 C1159 0.930 . S
H1150 C1160 0.930 . S
C1151 H1145 0.930 . S
C1151 C1152 1.355 . S
C1151 C1153 1.415 . S
C1152 C1151 1.355 . S
C1152 C1154 1.419 . S
C1153 C1151 1.415 . S
C1153 C1158 1.425 . S
C1153 C1160 1.409 . S
C1154 H1146 0.930 . S
C1154 C1152 1.419 . S
C1154 C1155 1.362 . S
C1155 H1147 0.930 . S
C1155 C1154 1.362 . S
C1155 C1158 1.409 . S
C1156 H1148 0.930 . S
C1156 C1157 1.355 . S
C1156 C1158 1.415 . S
C1157 C1156 1.355 . S
C1157 C1159 1.419 . S
C1158 C1153 1.425 . S
C1158 C1155 1.409 . S
C1158 C1156 1.415 . S
C1159 H1149 0.930 . S
C1159 C1157 1.419 . S
C1159 C1160 1.362 . S
C1160 H1150 0.930 . S
C1160 C1153 1.409 . S
C1160 C1159 1.362 . S
C784 C11 1.551 . S
C789 C695 1.915 . S
C800 C125 1.225 . S
C805 C742 1.619 . S
C821 C746 1.871 . S
C816 C239 1.396 . S
C837 C711 1.412 . S
C832 C343 1.155 . S
C848 C485 1.472 . S
C853 C726 1.867 . S
C869 C748 1.013 . S
C864 C571 0.890 . S
C885 C717 1.535 . S
C880 C257 1.128 . S
C896 C397 0.950 . S
C901 C757 1.588 . S
C917 C686 1.499 . S
C912 C467 1.186 . S
C928 C625 0.964 . S
C933 C715 1.488 . S
C944 C29 1.494 . S
C949 C773 1.973 . S
C965 C684 1.580 . S
C960 C143 1.088 . S
C981 C702 1.843 . S
C976 C371 1.701 . S
C997 C716 1.448 . S
C992 C457 1.199 . S
C1013 C770 1.805 . S
C1008 C599 1.534 . S
C1029 C685 1.544 . S
C1024 C55 1.267 . S
C1045 C733 1.816 . S
C1040 C169 1.601 . S
C1056 C283 0.833 . S
C1061 C756 1.059 . S
C1077 C725 1.361 . S
C1072 C581 0.806 . S
C1093 C764 1.239 . S
C1088 C1 0.933 . S
C1109 C694 1.250 . S
C1104 C115 1.059 . S
C1125 C739 1.254 . S
C1120 C229 0.940 . S
C1136 C353 1.092 . S
C1141 C747 1.910 . S
C1152 C511 1.244 . S
C1157 C708 1.495 . S
