# Generated by pormake.
# Topology ptr, (4,4)-cn, num edge types: 1
# Building blocks:
#     Node 0, Type 0, BuildingBlock: NAHDIM_clean_sbu_0, # of connection points: 4
#     Node 1, Type 0, BuildingBlock: NAHDIM_clean_sbu_0, # of connection points: 4
#     Node 2, Type 0, BuildingBlock: NAHDIM_clean_sbu_0, # of connection points: 4
#     Node 3, Type 0, BuildingBlock: NAHDIM_clean_sbu_0, # of connection points: 4
#     Node 4, Type 0, BuildingBlock: NAHDIM_clean_sbu_0, # of connection points: 4
#     Node 5, Type 0, BuildingBlock: NAHDIM_clean_sbu_0, # of connection points: 4
#     Node 6, Type 0, BuildingBlock: NAHDIM_clean_sbu_0, # of connection points: 4
#     Node 7, Type 0, BuildingBlock: NAHDIM_clean_sbu_0, # of connection points: 4
#     Node 8, Type 0, BuildingBlock: NAHDIM_clean_sbu_0, # of connection points: 4
#     Node 9, Type 0, BuildingBlock: NAHDIM_clean_sbu_0, # of connection points: 4
#     Node 10, Type 0, BuildingBlock: NAHDIM_clean_sbu_0, # of connection points: 4
#     Node 11, Type 0, BuildingBlock: NAHDIM_clean_sbu_0, # of connection points: 4
#     Node 12, Type 0, BuildingBlock: NAHDIM_clean_sbu_0, # of connection points: 4
#     Node 13, Type 0, BuildingBlock: NAHDIM_clean_sbu_0, # of connection points: 4
#     Node 14, Type 0, BuildingBlock: NAHDIM_clean_sbu_0, # of connection points: 4
#     Node 15, Type 0, BuildingBlock: NAHDIM_clean_sbu_0, # of connection points: 4
#     Node 16, Type 0, BuildingBlock: NAHDIM_clean_sbu_0, # of connection points: 4
#     Node 17, Type 0, BuildingBlock: NAHDIM_clean_sbu_0, # of connection points: 4
#     Node 18, Type 1, BuildingBlock: AZAVOO_clean_linker_0, # of connection points: 4
#     Node 19, Type 1, BuildingBlock: AZAVOO_clean_linker_0, # of connection points: 4
#     Node 20, Type 1, BuildingBlock: AZAVOO_clean_linker_0, # of connection points: 4
#     Node 21, Type 1, BuildingBlock: AZAVOO_clean_linker_0, # of connection points: 4
#     Node 22, Type 1, BuildingBlock: AZAVOO_clean_linker_0, # of connection points: 4
#     Node 23, Type 1, BuildingBlock: AZAVOO_clean_linker_0, # of connection points: 4
#     Node 24, Type 1, BuildingBlock: AZAVOO_clean_linker_0, # of connection points: 4
#     Node 25, Type 1, BuildingBlock: AZAVOO_clean_linker_0, # of connection points: 4
#     Node 26, Type 1, BuildingBlock: AZAVOO_clean_linker_0, # of connection points: 4
#     Node 27, Type 1, BuildingBlock: AZAVOO_clean_linker_0, # of connection points: 4
#     Node 28, Type 1, BuildingBlock: AZAVOO_clean_linker_0, # of connection points: 4
#     Node 29, Type 1, BuildingBlock: AZAVOO_clean_linker_0, # of connection points: 4
#     Node 30, Type 1, BuildingBlock: AZAVOO_clean_linker_0, # of connection points: 4
#     Node 31, Type 1, BuildingBlock: AZAVOO_clean_linker_0, # of connection points: 4
#     Node 32, Type 1, BuildingBlock: AZAVOO_clean_linker_0, # of connection points: 4
#     Node 33, Type 1, BuildingBlock: AZAVOO_clean_linker_0, # of connection points: 4
#     Node 34, Type 1, BuildingBlock: AZAVOO_clean_linker_0, # of connection points: 4
#     Node 35, Type 1, BuildingBlock: AZAVOO_clean_linker_0, # of connection points: 4
#     Edge 36, Type (0, 1), BuildingBlock: OJICUG_clean_linker_0, # of connection points: 2
#     Edge 37, Type (0, 1), BuildingBlock: OJICUG_clean_linker_0, # of connection points: 2
#     Edge 38, Type (0, 1), BuildingBlock: OJICUG_clean_linker_0, # of connection points: 2
#     Edge 39, Type (0, 1), BuildingBlock: OJICUG_clean_linker_0, # of connection points: 2
#     Edge 40, Type (0, 1), BuildingBlock: OJICUG_clean_linker_0, # of connection points: 2
#     Edge 41, Type (0, 1), BuildingBlock: OJICUG_clean_linker_0, # of connection points: 2
#     Edge 42, Type (0, 1), BuildingBlock: OJICUG_clean_linker_0, # of connection points: 2
#     Edge 43, Type (0, 1), BuildingBlock: OJICUG_clean_linker_0, # of connection points: 2
#     Edge 44, Type (0, 1), BuildingBlock: OJICUG_clean_linker_0, # of connection points: 2
#     Edge 45, Type (0, 1), BuildingBlock: OJICUG_clean_linker_0, # of connection points: 2
#     Edge 46, Type (0, 1), BuildingBlock: OJICUG_clean_linker_0, # of connection points: 2
#     Edge 47, Type (0, 1), BuildingBlock: OJICUG_clean_linker_0, # of connection points: 2
#     Edge 48, Type (0, 1), BuildingBlock: OJICUG_clean_linker_0, # of connection points: 2
#     Edge 49, Type (0, 1), BuildingBlock: OJICUG_clean_linker_0, # of connection points: 2
#     Edge 50, Type (0, 1), BuildingBlock: OJICUG_clean_linker_0, # of connection points: 2
#     Edge 51, Type (0, 1), BuildingBlock: OJICUG_clean_linker_0, # of connection points: 2
#     Edge 52, Type (0, 1), BuildingBlock: OJICUG_clean_linker_0, # of connection points: 2
#     Edge 53, Type (0, 1), BuildingBlock: OJICUG_clean_linker_0, # of connection points: 2
#     Edge 54, Type (0, 1), BuildingBlock: OJICUG_clean_linker_0, # of connection points: 2
#     Edge 55, Type (0, 1), BuildingBlock: OJICUG_clean_linker_0, # of connection points: 2
#     Edge 56, Type (0, 1), BuildingBlock: OJICUG_clean_linker_0, # of connection points: 2
#     Edge 57, Type (0, 1), BuildingBlock: OJICUG_clean_linker_0, # of connection points: 2
#     Edge 58, Type (0, 1), BuildingBlock: OJICUG_clean_linker_0, # of connection points: 2
#     Edge 59, Type (0, 1), BuildingBlock: OJICUG_clean_linker_0, # of connection points: 2
#     Edge 60, Type (0, 1), BuildingBlock: OJICUG_clean_linker_0, # of connection points: 2
#     Edge 61, Type (0, 1), BuildingBlock: OJICUG_clean_linker_0, # of connection points: 2
#     Edge 62, Type (0, 1), BuildingBlock: OJICUG_clean_linker_0, # of connection points: 2
#     Edge 63, Type (0, 1), BuildingBlock: OJICUG_clean_linker_0, # of connection points: 2
#     Edge 64, Type (0, 1), BuildingBlock: OJICUG_clean_linker_0, # of connection points: 2
#     Edge 65, Type (0, 1), BuildingBlock: OJICUG_clean_linker_0, # of connection points: 2
#     Edge 66, Type (0, 1), BuildingBlock: OJICUG_clean_linker_0, # of connection points: 2
#     Edge 67, Type (0, 1), BuildingBlock: OJICUG_clean_linker_0, # of connection points: 2
#     Edge 68, Type (0, 1), BuildingBlock: OJICUG_clean_linker_0, # of connection points: 2
#     Edge 69, Type (0, 1), BuildingBlock: OJICUG_clean_linker_0, # of connection points: 2
#     Edge 70, Type (0, 1), BuildingBlock: OJICUG_clean_linker_0, # of connection points: 2
#     Edge 71, Type (0, 1), BuildingBlock: OJICUG_clean_linker_0, # of connection points: 2
#     Edge 72, Type (0, 1), BuildingBlock: OJICUG_clean_linker_0, # of connection points: 2
#     Edge 73, Type (0, 1), BuildingBlock: OJICUG_clean_linker_0, # of connection points: 2
#     Edge 74, Type (0, 1), BuildingBlock: OJICUG_clean_linker_0, # of connection points: 2
#     Edge 75, Type (0, 1), BuildingBlock: OJICUG_clean_linker_0, # of connection points: 2
#     Edge 76, Type (0, 1), BuildingBlock: OJICUG_clean_linker_0, # of connection points: 2
#     Edge 77, Type (0, 1), BuildingBlock: OJICUG_clean_linker_0, # of connection points: 2
#     Edge 78, Type (0, 1), BuildingBlock: OJICUG_clean_linker_0, # of connection points: 2
#     Edge 79, Type (0, 1), BuildingBlock: OJICUG_clean_linker_0, # of connection points: 2
#     Edge 80, Type (0, 1), BuildingBlock: OJICUG_clean_linker_0, # of connection points: 2
#     Edge 81, Type (0, 1), BuildingBlock: OJICUG_clean_linker_0, # of connection points: 2
#     Edge 82, Type (0, 1), BuildingBlock: OJICUG_clean_linker_0, # of connection points: 2
#     Edge 83, Type (0, 1), BuildingBlock: OJICUG_clean_linker_0, # of connection points: 2
#     Edge 84, Type (0, 1), BuildingBlock: OJICUG_clean_linker_0, # of connection points: 2
#     Edge 85, Type (0, 1), BuildingBlock: OJICUG_clean_linker_0, # of connection points: 2
#     Edge 86, Type (0, 1), BuildingBlock: OJICUG_clean_linker_0, # of connection points: 2
#     Edge 87, Type (0, 1), BuildingBlock: OJICUG_clean_linker_0, # of connection points: 2
#     Edge 88, Type (0, 1), BuildingBlock: OJICUG_clean_linker_0, # of connection points: 2
#     Edge 89, Type (0, 1), BuildingBlock: OJICUG_clean_linker_0, # of connection points: 2
#     Edge 90, Type (0, 1), BuildingBlock: OJICUG_clean_linker_0, # of connection points: 2
#     Edge 91, Type (0, 1), BuildingBlock: OJICUG_clean_linker_0, # of connection points: 2
#     Edge 92, Type (0, 1), BuildingBlock: OJICUG_clean_linker_0, # of connection points: 2
#     Edge 93, Type (0, 1), BuildingBlock: OJICUG_clean_linker_0, # of connection points: 2
#     Edge 94, Type (0, 1), BuildingBlock: OJICUG_clean_linker_0, # of connection points: 2
#     Edge 95, Type (0, 1), BuildingBlock: OJICUG_clean_linker_0, # of connection points: 2
#     Edge 96, Type (0, 1), BuildingBlock: OJICUG_clean_linker_0, # of connection points: 2
#     Edge 97, Type (0, 1), BuildingBlock: OJICUG_clean_linker_0, # of connection points: 2
#     Edge 98, Type (0, 1), BuildingBlock: OJICUG_clean_linker_0, # of connection points: 2
#     Edge 99, Type (0, 1), BuildingBlock: OJICUG_clean_linker_0, # of connection points: 2
#     Edge 100, Type (0, 1), BuildingBlock: OJICUG_clean_linker_0, # of connection points: 2
#     Edge 101, Type (0, 1), BuildingBlock: OJICUG_clean_linker_0, # of connection points: 2
#     Edge 102, Type (0, 1), BuildingBlock: OJICUG_clean_linker_0, # of connection points: 2
#     Edge 103, Type (0, 1), BuildingBlock: OJICUG_clean_linker_0, # of connection points: 2
#     Edge 104, Type (0, 1), BuildingBlock: OJICUG_clean_linker_0, # of connection points: 2
#     Edge 105, Type (0, 1), BuildingBlock: OJICUG_clean_linker_0, # of connection points: 2
#     Edge 106, Type (0, 1), BuildingBlock: OJICUG_clean_linker_0, # of connection points: 2
#     Edge 107, Type (0, 1), BuildingBlock: OJICUG_clean_linker_0, # of connection points: 2
# Relax obj value: 0.106
# Max RMSD: 0.294
# Mean RMSD: 0.174
data_MOF--net-ptr--node1-NAHDIM_clean_sbu_0--node2-AZAVOO_clean_linker_0--edge1-OJICUG_clean_linker_0
_symmetry_space_group_name_H-M    P1
_symmetry_Int_Tables_number       1
_symmetry_cell_setting            triclinic
loop_
_symmetry_equiv_pos_as_xyz
'x, y, z'
_cell_length_a     64.801905
_cell_length_b     62.561608
_cell_length_c     52.579245
_cell_angle_alpha  95.031831
_cell_angle_beta   91.940865
_cell_angle_gamma 122.0915
loop_
_atom_site_label
_atom_site_type_symbol
_atom_site_fract_x
_atom_site_fract_y
_atom_site_fract_z
_atom_type_partial_charge
C0 C 0.03829 0.34873 0.04901 0.0
O1 O 0.01589 0.33901 0.0555 0.0
O2 O 0.9909 0.33575 0.00351 0.0
Zn3 Zn 0.01972 0.36967 0.01883 0.0
O4 O 0.01097 0.38371 0.04924 0.0
C5 C 0.02331 0.38633 0.96915 0.0
O6 O 0.01153 0.36176 0.96171 0.0
O7 O 0.04554 0.36387 0.03203 0.0
C8 C -0.00147 0.39396 0.04845 0.0
O9 O 0.98998 0.39554 0.02615 0.0
C10 C 0.97113 0.32349 0.01399 0.0
O11 O 0.96864 0.33337 0.03587 0.0
O12 O 0.03029 0.39441 0.99279 0.0
C13 C 0.67438 0.63483 0.06302 0.0
O14 O 0.6661 0.6496 0.05957 0.0
O15 O 0.62756 0.63613 0.08875 0.0
Zn16 Zn 0.62563 0.6044 0.07364 0.0
O17 O 0.60927 0.59322 0.03758 0.0
C18 C 0.61341 0.58571 0.12119 0.0
O19 O 0.63128 0.60934 0.12853 0.0
O20 O 0.66014 0.61326 0.07046 0.0
C21 C 0.5867 0.58258 0.03024 0.0
O22 O 0.57091 0.57731 0.04741 0.0
C23 C 0.62065 0.64856 0.07715 0.0
O24 O 0.61039 0.64017 0.05348 0.0
O25 O 0.60785 0.57792 0.09732 0.0
C26 C 0.38232 0.03929 0.00034 0.0
O27 O 0.38085 0.0226 0.98218 0.0
O28 O 0.37142 0.98641 0.03763 0.0
Zn29 Zn 0.40213 0.01658 0.02788 0.0
O30 O 0.4154 0.00961 0.99612 0.0
C31 C 0.43164 0.01211 0.06413 0.0
O32 O 0.42323 0.99136 0.04798 0.0
O33 O 0.39292 0.04201 0.02225 0.0
C34 C 0.40621 0.98852 0.98189 0.0
O35 O 0.38651 0.96824 0.98808 0.0
C36 C 0.3504 0.97385 0.02516 0.0
O37 O 0.34777 0.97776 0.00147 0.0
O38 O 0.4263 0.02816 0.05887 0.0
C39 C 0.95991 0.62628 0.02275 0.0
O40 O 0.96828 0.61427 0.0093 0.0
O41 O 0.02077 0.66711 0.07845 0.0
Zn42 Zn 0.99489 0.63185 0.06276 0.0
O43 O 0.00877 0.61938 0.03559 0.0
C44 C 0.00192 0.61289 0.10645 0.0
O45 O 0.02426 0.63166 0.1039 0.0
O46 O 0.96756 0.63409 0.04635 0.0
C47 C 0.00586 0.59755 0.03477 0.0
O48 O 0.99437 0.58311 0.05254 0.0
C49 C 0.02647 0.68672 0.06774 0.0
O50 O 0.01556 0.68407 0.04512 0.0
O51 O 0.98449 0.60893 0.09078 0.0
C52 C 0.32646 0.37545 0.00592 0.0
O53 O 0.32214 0.3623 0.98333 0.0
O54 O 0.36453 0.35478 0.98578 0.0
Zn55 Zn 0.3767 0.38997 0.00214 0.0
O56 O 0.39981 0.39829 0.03315 0.0
C57 C 0.41463 0.41982 0.97259 0.0
O58 O 0.4244 0.4099 0.98572 0.0
O59 O 0.34839 0.39014 0.01579 0.0
C60 C 0.41444 0.4212 0.04296 0.0
O61 O 0.41544 0.43958 0.03161 0.0
C62 C 0.3517 0.336 0.99797 0.0
O63 O 0.34727 0.34015 0.02149 0.0
O64 O 0.39318 0.41433 0.9764 0.0
C65 C 0.62747 0.97401 0.06929 0.0
O66 O 0.64184 0.99812 0.07849 0.0
O67 O 0.63739 0.02197 0.03924 0.0
Zn68 Zn 0.60473 0.99646 0.05032 0.0
O69 O 0.59673 0.00625 0.08432 0.0
C70 C 0.58163 0.00677 0.01161 0.0
O71 O 0.59855 0.02975 0.02222 0.0
O72 O 0.60791 0.96693 0.05544 0.0
C73 C 0.59333 0.02388 0.09199 0.0
O74 O 0.59568 0.04021 0.07645 0.0
C75 C 0.65166 0.04597 0.04258 0.0
O76 O 0.64562 0.06006 0.0563 0.0
O77 O 0.57933 0.98779 0.02132 0.0
C78 C 0.70323 0.6876 0.37365 0.0
O79 O 0.68896 0.67024 0.35451 0.0
O80 O 0.6461 0.67094 0.34915 0.0
Zn81 Zn 0.67237 0.70647 0.36342 0.0
O82 O 0.66027 0.72058 0.39067 0.0
C83 C 0.66327 0.72862 0.32522 0.0
O84 O 0.64247 0.71669 0.33565 0.0
O85 O 0.70047 0.70595 0.3799 0.0
C86 C 0.67259 0.74448 0.39714 0.0
O87 O 0.69211 0.75875 0.38541 0.0
C88 C 0.62902 0.65567 0.36169 0.0
O89 O 0.62775 0.66325 0.38537 0.0
O90 O 0.6811 0.72755 0.33426 0.0
C91 C 0.34563 0.95763 0.40987 0.0
O92 O 0.34955 0.97482 0.4289 0.0
O93 O 0.30877 0.97996 0.42544 0.0
Zn94 Zn 0.29559 0.94398 0.41054 0.0
O95 O 0.27455 0.93596 0.37776 0.0
C96 C 0.256 0.91928 0.43977 0.0
O97 O 0.24993 0.93251 0.42686 0.0
O98 O 0.32379 0.94121 0.40066 0.0
C99 C 0.26726 0.91508 0.36393 0.0
O100 O 0.27245 0.89915 0.3724 0.0
C101 C 0.31601 0.99717 0.41073 0.0
O102 O 0.31402 0.99093 0.38584 0.0
O103 O 0.27586 0.92056 0.43591 0.0
C104 C 0.06176 0.36945 0.33148 0.0
O105 O 0.05918 0.35153 0.31417 0.0
O106 O 0.04587 0.31687 0.37249 0.0
Zn107 Zn 0.07754 0.34465 0.3615 0.0
O108 O 0.08889 0.33415 0.33028 0.0
C109 C 0.1049 0.37126 0.41078 0.0
O110 O 0.09236 0.38221 0.41003 0.0
O111 O 0.07135 0.37188 0.35388 0.0
C112 C 0.07797 0.3127 0.31643 0.0
O113 O 0.05715 0.29391 0.3227 0.0
C114 C 0.02503 0.30543 0.35971 0.0
O115 O 0.02325 0.30932 0.33583 0.0
O116 O 0.10241 0.3559 0.39167 0.0
C117 C 0.63087 0.96728 0.35256 0.0
O118 O 0.64968 0.96975 0.34129 0.0
O119 O 0.68276 0.99636 0.40479 0.0
Zn120 Zn 0.65575 0.96021 0.39275 0.0
O121 O 0.66729 0.94447 0.36644 0.0
C122 C 0.66306 0.94506 0.43955 0.0
O123 O 0.68543 0.96353 0.43671 0.0
O124 O 0.62857 0.96208 0.37557 0.0
C125 C 0.66261 0.92193 0.36542 0.0
O126 O 0.64989 0.9076 0.38278 0.0
C127 C 0.70457 0.00551 0.39915 0.0
O128 O 0.70992 0.99095 0.38517 0.0
O129 O 0.64583 0.93984 0.42287 0.0
C130 C 0.99145 0.69618 0.34773 0.0
O131 O 0.00012 0.68162 0.35038 0.0
O132 O 0.02857 0.68728 0.31141 0.0
Zn133 Zn 0.03593 0.72122 0.32776 0.0
O134 O 0.05642 0.73093 0.36121 0.0
C135 C 0.07031 0.74604 0.29318 0.0
O136 O 0.07443 0.72854 0.29893 0.0
O137 O 0.00393 0.7163 0.33714 0.0
C138 C 0.07287 0.75364 0.36999 0.0
O139 O 0.0779 0.77207 0.35619 0.0
C140 C 0.04008 0.67747 0.31923 0.0
O141 O 0.05812 0.69028 0.33751 0.0
O142 O 0.05363 0.74749 0.30368 0.0
C143 C 0.29062 0.30058 0.4145 0.0
O144 O 0.29159 0.31819 0.43101 0.0
O145 O 0.29334 0.34753 0.37008 0.0
Zn146 Zn 0.2661 0.3166 0.38325 0.0
O147 O 0.25304 0.3242 0.41454 0.0
C148 C 0.22614 0.30625 0.34877 0.0
O149 O 0.22698 0.3239 0.3651 0.0
O150 O 0.27951 0.29547 0.39231 0.0
C151 C 0.25848 0.34592 0.42485 0.0
O152 O 0.27316 0.36625 0.41401 0.0
C153 C 0.31487 0.36191 0.38111 0.0
O154 O 0.31976 0.35881 0.40443 0.0
O155 O 0.24025 0.29849 0.35358 0.0
C156 C 0.36475 0.01389 0.7005 0.0
O157 O 0.34882 0.99558 0.68293 0.0
O158 O 0.30979 0.0032 0.67443 0.0
Zn159 Zn 0.33767 0.03745 0.68978 0.0
O160 O 0.32665 0.04993 0.7193 0.0
C161 C 0.34916 0.05514 0.64029 0.0
O162 O 0.34174 0.03132 0.63296 0.0
O163 O 0.36416 0.03382 0.70517 0.0
C164 C 0.31578 0.06185 0.71889 0.0
O165 O 0.31036 0.0671 0.69693 0.0
C166 C 0.29166 0.00011 0.66081 0.0
O167 O 0.29102 0.02008 0.65625 0.0
O168 O 0.34957 0.0622 0.6638 0.0
C169 C 0.00993 0.30418 0.72139 0.0
O170 O 0.99735 0.3137 0.71349 0.0
O171 O 0.96618 0.30631 0.75162 0.0
Zn172 Zn 0.96478 0.27461 0.73809 0.0
O173 O 0.94764 0.2625 0.70258 0.0
C174 C 0.95443 0.2547 0.78588 0.0
O175 O 0.9725 0.27805 0.79402 0.0
O176 O -0.00043 0.28529 0.73409 0.0
C177 C 0.92587 0.25594 0.69572 0.0
O178 O 0.91167 0.25561 0.71313 0.0
C179 C 0.95136 0.30842 0.76513 0.0
O180 O 0.9319 0.28794 0.7714 0.0
O181 O 0.94828 0.24813 0.76193 0.0
C182 C 0.71916 0.70957 0.66977 0.0
O183 O 0.71943 0.69529 0.65008 0.0
O184 O 0.69862 0.64832 0.70002 0.0
Zn185 Zn 0.73138 0.6792 0.69524 0.0
O186 O 0.74446 0.67343 0.66288 0.0
C187 C 0.75046 0.6675 0.73714 0.0
O188 O 0.73396 0.64466 0.72577 0.0
O189 O 0.72538 0.70747 0.69216 0.0
C190 C 0.74508 0.65397 0.65527 0.0
O191 O 0.73762 0.63555 0.66973 0.0
C192 C 0.67823 0.64281 0.68927 0.0
O193 O 0.67784 0.65649 0.67195 0.0
O194 O 0.75399 0.68675 0.72694 0.0
C195 C 0.29378 0.29112 0.68163 0.0
O196 O 0.30697 0.28533 0.66768 0.0
O197 O 0.34863 0.32351 0.73999 0.0
Zn198 Zn 0.32227 0.28869 0.72347 0.0
O199 O 0.33664 0.27584 0.69752 0.0
C200 C 0.32661 0.26853 0.7673 0.0
O201 O 0.34948 0.28603 0.7648 0.0
O202 O 0.29625 0.29228 0.70592 0.0
C203 C 0.33076 0.25283 0.6945 0.0
O204 O 0.31518 0.23682 0.7091 0.0
C205 C 0.35604 0.34329 0.72894 0.0
O206 O 0.3465 0.34107 0.70567 0.0
O207 O 0.30992 0.26553 0.75118 0.0
C208 C 0.65561 0.05097 0.66721 0.0
O209 O 0.65165 0.03486 0.64704 0.0
O210 O 0.69592 0.03148 0.65295 0.0
Zn211 Zn 0.7067 0.0674 0.6654 0.0
O212 O 0.72935 0.07984 0.69757 0.0
C213 C 0.73762 0.08418 0.6262 0.0
O214 O 0.73916 0.06515 0.63239 0.0
O215 O 0.67748 0.0677 0.67605 0.0
C216 C 0.74337 0.07264 0.70475 0.0
O217 O 0.7448 0.05565 0.68971 0.0
C218 C 0.68395 0.01317 0.66597 0.0
O219 O 0.67855 0.0177 0.68888 0.0
O220 O 0.72391 0.08962 0.63809 0.0
C221 C 0.94838 0.61747 0.71192 0.0
O222 O 0.96361 0.63524 0.69853 0.0
O223 O 0.95269 0.67411 0.70136 0.0
Zn224 Zn 0.92354 0.64504 0.71438 0.0
O225 O 0.91698 0.65547 0.74872 0.0
C226 C 0.8963 0.62181 0.66654 0.0
O227 O 0.91338 0.6166 0.66478 0.0
O228 O 0.92989 0.61746 0.71928 0.0
C229 C 0.91112 0.67167 0.75379 0.0
O230 O 0.90889 0.68338 0.73534 0.0
C231 C 0.97406 0.68795 0.71288 0.0
O232 O 0.9782 0.68448 0.73633 0.0
O233 O 0.89563 0.63303 0.68755 0.0
H234 H 0.16945 0.35875 0.98814 0.0
H235 H 0.2947 0.28337 0.1781 0.0
H236 H 0.16102 0.35623 0.12929 0.0
H237 H 0.13223 0.36528 0.10957 0.0
H238 H 0.07698 0.28484 0.09771 0.0
H239 H 0.10603 0.276 0.11777 0.0
H240 H 0.19573 0.35811 0.09548 0.0
H241 H 0.19008 0.36595 0.05177 0.0
H242 H 0.13387 0.2863 0.03232 0.0
H243 H 0.13991 0.27872 0.07607 0.0
H244 H 0.23362 0.35843 0.12864 0.0
H245 H 0.26531 0.37546 0.09919 0.0
H246 H 0.22773 0.30231 0.05223 0.0
H247 H 0.19536 0.2859 0.0814 0.0
H248 H 0.2334 0.34184 0.18266 0.0
H249 H 0.26896 0.34049 0.19706 0.0
H250 H 0.24028 0.26987 0.14742 0.0
H251 H 0.2047 0.27135 0.13339 0.0
H252 H 0.19133 0.33911 0.20715 0.0
H253 H 0.19849 0.33541 0.25191 0.0
H254 H 0.17923 0.25823 0.23026 0.0
H255 H 0.17234 0.26232 0.18522 0.0
H256 H 0.15288 0.34413 0.17868 0.0
H257 H 0.13126 0.34458 0.2156 0.0
H258 H 0.10369 0.26507 0.2188 0.0
H259 H 0.12455 0.26455 0.181 0.0
O260 O 0.1715 0.35521 0.00528 0.0
O261 O 0.14271 0.3141 0.99628 0.0
O262 O 0.29474 0.32066 0.19807 0.0
O263 O 0.28095 0.28451 0.17261 0.0
C264 C 0.1544 0.31034 0.1328 0.0
C265 C 0.17152 0.31307 0.11543 0.0
C266 C 0.19202 0.3123 0.12361 0.0
C267 C 0.19467 0.3072 0.1487 0.0
C268 C 0.17713 0.3037 0.1659 0.0
C269 C 0.15702 0.30545 0.158 0.0
C270 C 0.13549 0.3155 0.12498 0.0
C271 C 0.14253 0.34063 0.12287 0.0
C272 C 0.12619 0.34572 0.11137 0.0
C273 C 0.10249 0.32574 0.1018 0.0
C274 C 0.09511 0.30061 0.10501 0.0
C275 C 0.11157 0.29552 0.11651 0.0
C276 C 0.1684 0.31781 0.08879 0.0
C277 C 0.18238 0.34236 0.08166 0.0
C278 C 0.17903 0.34679 0.05672 0.0
C279 C 0.16155 0.32674 0.03853 0.0
C280 C 0.14752 0.30216 0.04584 0.0
C281 C 0.15093 0.29776 0.07078 0.0
C282 C 0.21243 0.32091 0.10722 0.0
C283 C 0.23245 0.34603 0.11214 0.0
C284 C 0.25053 0.3557 0.09526 0.0
C285 C 0.24914 0.34029 0.07327 0.0
C286 C 0.22919 0.31486 0.06871 0.0
C287 C 0.21088 0.3053 0.0855 0.0
C288 C 0.21639 0.30656 0.1572 0.0
C289 C 0.23478 0.32603 0.17505 0.0
C290 C 0.25509 0.32524 0.18317 0.0
C291 C 0.25742 0.30501 0.17345 0.0
C292 C 0.23904 0.28568 0.15534 0.0
C293 C 0.21871 0.28648 0.14727 0.0
C294 C 0.18122 0.30095 0.19302 0.0
C295 C 0.18845 0.32133 0.21212 0.0
C296 C 0.19234 0.31909 0.2377 0.0
C297 C 0.18919 0.29641 0.24471 0.0
C298 C 0.18191 0.27596 0.22547 0.0
C299 C 0.17795 0.27823 0.19979 0.0
C300 C 0.14013 0.30427 0.17701 0.0
C301 C 0.14145 0.32658 0.18674 0.0
C302 C 0.12943 0.3269 0.20815 0.0
C303 C 0.11609 0.30496 0.22042 0.0
C304 C 0.11369 0.28224 0.20974 0.0
C305 C 0.12559 0.2819 0.18816 0.0
C306 C 0.15795 0.33152 0.01208 0.0
C307 C 0.27887 0.30398 0.18216 0.0
H308 H 0.62547 0.79662 0.99889 0.0
H309 H 0.7065 0.00161 0.22393 0.0
H310 H 0.62201 0.78362 0.13521 0.0
H311 H 0.61046 0.74123 0.1162 0.0
H312 H 0.68424 0.76037 0.13534 0.0
H313 H 0.6957 0.80299 0.15429 0.0
H314 H 0.62417 0.8222 0.10829 0.0
H315 H 0.61777 0.81002 0.06185 0.0
H316 H 0.69104 0.82489 0.06243 0.0
H317 H 0.69729 0.8373 0.10885 0.0
H318 H 0.6257 0.8599 0.14674 0.0
H319 H 0.61587 0.88524 0.12216 0.0
H320 H 0.68674 0.91968 0.09269 0.0
H321 H 0.69646 0.89412 0.1176 0.0
H322 H 0.64096 0.87472 0.2044 0.0
H323 H 0.64564 0.9145 0.22297 0.0
H324 H 0.71537 0.95692 0.19162 0.0
H325 H 0.71059 0.91698 0.17346 0.0
H326 H 0.64035 0.83011 0.2264 0.0
H327 H 0.64137 0.84565 0.27091 0.0
H328 H 0.71583 0.90814 0.26823 0.0
H329 H 0.71459 0.89236 0.22349 0.0
H330 H 0.63313 0.78373 0.1922 0.0
H331 H 0.63203 0.75761 0.2246 0.0
H332 H 0.70865 0.81245 0.24826 0.0
H333 H 0.70983 0.83781 0.21479 0.0
O334 O 0.62843 0.80162 0.01726 0.0
O335 O 0.6662 0.80943 0.01862 0.0
O336 O 0.66827 0.9629 0.23259 0.0
O337 O 0.70414 0.98561 0.21672 0.0
C338 C 0.66641 0.82218 0.15658 0.0
C339 C 0.66527 0.83824 0.14007 0.0
C340 C 0.66779 0.86111 0.15044 0.0
C341 C 0.67299 0.86885 0.17709 0.0
C342 C 0.67486 0.85319 0.19359 0.0
C343 C 0.67144 0.82974 0.18336 0.0
C344 C 0.65974 0.79639 0.14587 0.0
C345 C 0.63571 0.77869 0.13516 0.0
C346 C 0.62916 0.75455 0.12429 0.0
C347 C 0.64649 0.7476 0.12417 0.0
C348 C 0.67048 0.76522 0.13534 0.0
C349 C 0.67708 0.78951 0.14608 0.0
C350 C 0.6613 0.83092 0.11185 0.0
C351 C 0.63889 0.82306 0.0983 0.0
C352 C 0.63525 0.81599 0.0718 0.0
C353 C 0.65392 0.81655 0.0584 0.0
C354 C 0.67631 0.8243 0.07213 0.0
C355 C 0.67993 0.8314 0.09863 0.0
C356 C 0.6618 0.87538 0.13397 0.0
C357 C 0.63897 0.87272 0.13473 0.0
C358 C 0.63332 0.88701 0.12053 0.0
C359 C 0.65052 0.90433 0.10547 0.0
C360 C 0.67321 0.9065 0.10424 0.0
C361 C 0.67878 0.89199 0.11836 0.0
C362 C 0.67553 0.89301 0.18778 0.0
C363 C 0.65726 0.89263 0.20166 0.0
C364 C 0.65996 0.91537 0.21219 0.0
C365 C 0.68093 0.93891 0.20884 0.0
C366 C 0.69904 0.93915 0.19462 0.0
C367 C 0.69634 0.91639 0.18418 0.0
C368 C 0.67738 0.86013 0.22174 0.0
C369 C 0.65713 0.8467 0.23567 0.0
C370 C 0.65777 0.85561 0.26112 0.0
C371 C 0.67864 0.87823 0.27303 0.0
C372 C 0.69941 0.89083 0.25945 0.0
C373 C 0.6988 0.8818 0.234 0.0
C374 C 0.67159 0.81258 0.20104 0.0
C375 C 0.64983 0.78974 0.2039 0.0
C376 C 0.64917 0.77504 0.22268 0.0
C377 C 0.67019 0.78311 0.23925 0.0
C378 C 0.6922 0.80557 0.2357 0.0
C379 C 0.69289 0.82015 0.21669 0.0
C380 C 0.64999 0.809 0.03024 0.0
C381 C 0.68396 0.96312 0.22012 0.0
H382 H 0.13972 0.85307 0.98784 0.0
H383 H 0.35538 0.99076 0.18492 0.0
H384 H 0.12909 0.84875 0.12145 0.0
H385 H 0.09179 0.8081 0.10438 0.0
H386 H 0.12419 0.76802 0.13117 0.0
H387 H 0.16102 0.80842 0.14814 0.0
H388 H 0.17705 0.89621 0.09475 0.0
H389 H 0.16154 0.88466 0.04937 0.0
H390 H 0.15989 0.81464 0.04934 0.0
H391 H 0.1757 0.82657 0.09461 0.0
H392 H 0.23559 0.93884 0.12278 0.0
H393 H 0.26857 0.9583 0.09444 0.0
H394 H 0.25736 0.88486 0.07039 0.0
H395 H 0.2254 0.86567 0.09969 0.0
H396 H 0.23566 0.94371 0.18499 0.0
H397 H 0.27806 0.97877 0.19703 0.0
H398 H 0.30339 0.93216 0.16342 0.0
H399 H 0.26097 0.89716 0.15187 0.0
H400 H 0.19023 0.90372 0.2178 0.0
H401 H 0.20397 0.91093 0.2636 0.0
H402 H 0.25263 0.88538 0.24565 0.0
H403 H 0.23843 0.87771 0.20023 0.0
H404 H 0.13638 0.85657 0.18324 0.0
H405 H 0.10895 0.82845 0.21274 0.0
H406 H 0.16107 0.80771 0.23142 0.0
H407 H 0.18741 0.83446 0.20083 0.0
O408 O 0.14595 0.85731 0.00575 0.0
O409 O 0.14537 0.82154 0.00677 0.0
O410 O 0.32453 -0.0003 0.19945 0.0
O411 O 0.33844 0.97706 0.18087 0.0
C412 C 0.1712 0.85569 0.14436 0.0
C413 C 0.18651 0.8693 0.12564 0.0
C414 C 0.21085 0.8895 0.13312 0.0
C415 C 0.2195 0.89701 0.15946 0.0
C416 C 0.20386 0.88397 0.17824 0.0
C417 C 0.17976 0.86314 0.17066 0.0
C418 C 0.14762 0.83145 0.13617 0.0
C419 C 0.12788 0.83112 0.12388 0.0
C420 C 0.10673 0.80795 0.11404 0.0
C421 C 0.10505 0.78487 0.11648 0.0
C422 C 0.12471 0.78541 0.12937 0.0
C423 C 0.14578 0.80847 0.13907 0.0
C424 C 0.17726 0.86213 0.09802 0.0
C425 C 0.17334 0.8784 0.08488 0.0
C426 C 0.16446 0.87174 0.05898 0.0
C427 C 0.15938 0.84868 0.04575 0.0
C428 C 0.16352 0.8325 0.05897 0.0
C429 C 0.17246 0.83921 0.08486 0.0
C430 C 0.2281 0.90085 0.1133 0.0
C431 C 0.24006 0.92692 0.11118 0.0
C432 C 0.25876 0.93796 0.09504 0.0
C433 C 0.26522 0.92292 0.08034 0.0
C434 C 0.2524 0.89666 0.08141 0.0
C435 C 0.23414 0.88574 0.09801 0.0
C436 C 0.24525 0.91798 0.16739 0.0
C437 C 0.25041 0.94109 0.18038 0.0
C438 C 0.27463 0.96108 0.18718 0.0
C439 C 0.29413 0.95831 0.18106 0.0
C440 C 0.28884 0.93498 0.16832 0.0
C441 C 0.26462 0.91497 0.16166 0.0
C442 C 0.21346 0.89036 0.20571 0.0
C443 C 0.20399 0.8999 0.22383 0.0
C444 C 0.21188 0.90403 0.2499 0.0
C445 C 0.22924 0.89854 0.25822 0.0
C446 C 0.23896 0.88942 0.23989 0.0
C447 C 0.23112 0.88535 0.21392 0.0
C448 C 0.16399 0.84773 0.19005 0.0
C449 C 0.14183 0.84597 0.19382 0.0
C450 C 0.12627 0.83003 0.21079 0.0
C451 C 0.13272 0.81569 0.22438 0.0
C452 C 0.15527 0.81807 0.22095 0.0
C453 C 0.17058 0.83368 0.20377 0.0
C454 C 0.14982 0.8416 0.01826 0.0
C455 C 0.3199 0.97965 0.18775 0.0
H456 H 0.28824 0.17303 0.08334 0.0
H457 H 0.32585 0.01056 0.88693 0.0
H458 H 0.27118 0.17205 0.94798 0.0
H459 H 0.28084 0.2148 0.96399 0.0
H460 H 0.35234 0.24737 0.93628 0.0
H461 H 0.34263 0.20492 0.92061 0.0
H462 H 0.26785 0.12376 0.9778 0.0
H463 H 0.26961 0.13838 0.023 0.0
H464 H 0.34271 0.20301 0.01885 0.0
H465 H 0.34081 0.18799 0.97378 0.0
H466 H 0.27664 0.07624 0.95306 0.0
H467 H 0.29411 0.05501 0.97389 0.0
H468 H 0.36395 0.12622 0.98787 0.0
H469 H 0.34669 0.14707 0.96649 0.0
H470 H 0.26368 0.06814 0.89098 0.0
H471 H 0.26467 0.02986 0.87991 0.0
H472 H 0.34182 0.07223 0.90586 0.0
H473 H 0.34065 0.11039 0.91643 0.0
H474 H 0.26394 0.10773 0.85275 0.0
H475 H 0.26606 0.09162 0.80906 0.0
H476 H 0.3414 0.11652 0.82922 0.0
H477 H 0.33918 0.13253 0.87239 0.0
H478 H 0.26708 0.16234 0.88288 0.0
H479 H 0.27203 0.19118 0.85141 0.0
H480 H 0.34369 0.205 0.83986 0.0
H481 H 0.33894 0.17712 0.87178 0.0
O482 O 0.28798 0.16752 0.06548 0.0
O483 O 0.32549 0.20046 0.06231 0.0
O484 O 0.28557 0.0048 0.87657 0.0
O485 O 0.325 0.02549 0.89075 0.0
C486 C 0.30174 0.15991 0.92558 0.0
C487 C 0.30261 0.14599 0.94495 0.0
C488 C 0.30311 0.12396 0.93822 0.0
C489 C 0.30112 0.11491 0.91206 0.0
C490 C 0.29985 0.12859 0.89274 0.0
C491 C 0.30046 0.15127 0.89946 0.0
C492 C 0.3061 0.18548 0.93289 0.0
C493 C 0.28875 0.18851 0.94508 0.0
C494 C 0.29434 0.21284 0.9543 0.0
C495 C 0.31731 0.23438 0.95128 0.0
C496 C 0.33435 0.23119 0.93847 0.0
C497 C 0.32882 0.20697 0.92947 0.0
C498 C 0.30407 0.15497 0.97245 0.0
C499 C 0.28422 0.14105 0.98671 0.0
C500 C 0.28528 0.14947 0.01251 0.0
C501 C 0.30626 0.17194 0.02452 0.0
C502 C 0.32623 0.18569 0.01018 0.0
C503 C 0.32516 0.17722 0.9844 0.0
C504 C 0.31045 0.11313 0.95804 0.0
C505 C 0.29544 0.08742 0.96151 0.0
C506 C 0.30546 0.07532 0.97324 0.0
C507 C 0.33045 0.08896 0.9821 0.0
C508 C 0.34463 0.11531 0.9813 0.0
C509 C 0.33473 0.12728 0.96922 0.0
C510 C 0.302 0.09192 0.90477 0.0
C511 C 0.28077 0.0691 0.89416 0.0
C512 C 0.2814 0.04728 0.8879 0.0
C513 C 0.30331 0.04796 0.89214 0.0
C514 C 0.32463 0.07101 0.90244 0.0
C515 C 0.32401 0.09282 0.90857 0.0
C516 C 0.30128 0.12085 0.86574 0.0
C517 C 0.28091 0.10989 0.84752 0.0
C518 C 0.28217 0.1008 0.82268 0.0
C519 C 0.30378 0.10252 0.816 0.0
C520 C 0.32439 0.11453 0.83405 0.0
C521 C 0.32317 0.12368 0.85864 0.0
C522 C 0.30254 0.16743 0.87938 0.0
C523 C 0.28376 0.17155 0.8734 0.0
C524 C 0.28658 0.18791 0.85539 0.0
C525 C 0.30831 0.20048 0.84324 0.0
C526 C 0.32688 0.19595 0.84913 0.0
C527 C 0.32408 0.17974 0.86711 0.0
C528 C 0.30726 0.18091 0.05189 0.0
C529 C 0.304 0.02474 0.88596 0.0
H530 H 0.8165 0.18104 0.08333 0.0
H531 H 0.6768 0.98588 0.84891 0.0
H532 H 0.83223 0.19497 0.94728 0.0
H533 H 0.86626 0.23564 0.96843 0.0
H534 H 0.91492 0.20866 0.95844 0.0
H535 H 0.88045 0.16764 0.93728 0.0
H536 H 0.79201 0.15907 0.97218 0.0
H537 H 0.79746 0.1706 0.01867 0.0
H538 H 0.84875 0.14667 0.02526 0.0
H539 H 0.84288 0.13491 0.97875 0.0
H540 H 0.75155 0.12128 0.93055 0.0
H541 H 0.71889 0.1048 0.95923 0.0
H542 H 0.75194 0.07028 0.99749 0.0
H543 H 0.78438 0.08655 0.96838 0.0
H544 H 0.7548 0.11152 0.87342 0.0
H545 H 0.71666 0.0751 0.85151 0.0
H546 H 0.73086 0.02421 0.8879 0.0
H547 H 0.76907 0.06079 0.90947 0.0
H548 H 0.80692 0.15498 0.85651 0.0
H549 H 0.79585 0.14445 0.8104 0.0
H550 H 0.78647 0.07106 0.81434 0.0
H551 H 0.79928 0.08257 0.86041 0.0
H552 H 0.84787 0.19553 0.89343 0.0
H553 H 0.8805 0.22113 0.86691 0.0
H554 H 0.88916 0.15798 0.8475 0.0
H555 H 0.85687 0.1326 0.87481 0.0
O556 O 0.81456 0.17627 0.06497 0.0
O557 O 0.84089 0.16382 0.0673 0.0
O558 O 0.68495 0.02762 0.83961 0.0
O559 O 0.69145 0.00065 0.85779 0.0
C560 C 0.83266 0.15369 0.92892 0.0
C561 C 0.81357 0.13881 0.94389 0.0
C562 C 0.7913 0.11769 0.93199 0.0
C563 C 0.78845 0.11077 0.90523 0.0
C564 C 0.80792 0.12518 0.89027 0.0
C565 C 0.83011 0.14666 0.90217 0.0
C566 C 0.85389 0.17835 0.94103 0.0
C567 C 0.85021 0.19778 0.94981 0.0
C568 C 0.86961 0.22093 0.96192 0.0
C569 C 0.89313 0.22517 0.96528 0.0
C570 C 0.89694 0.20585 0.95601 0.0
C571 C 0.87737 0.1825 0.94402 0.0
C572 C 0.81684 0.14588 0.97216 0.0
C573 C 0.80424 0.15612 0.98373 0.0
C574 C 0.80748 0.16279 0.01028 0.0
C575 C 0.8235 0.15949 0.0257 0.0
C576 C 0.83623 0.1494 0.01396 0.0
C577 C 0.83293 0.14268 0.98742 0.0
C578 C 0.77013 0.10488 0.9473 0.0
C579 C 0.75145 0.10976 0.94484 0.0
C580 C 0.73308 0.1007 0.96146 0.0
C581 C 0.73306 0.08652 0.98076 0.0
C582 C 0.75147 0.08109 0.98273 0.0
C583 C 0.76992 0.09025 0.96612 0.0
C584 C 0.76477 0.08875 0.89285 0.0
C585 C 0.74963 0.09248 0.87661 0.0
C586 C 0.72785 0.07166 0.86416 0.0
C587 C 0.72077 0.04672 0.86787 0.0
C588 C 0.7358 0.04313 0.88455 0.0
C589 C 0.7576 0.06398 0.89695 0.0
C590 C 0.8039 0.11955 0.86185 0.0
C591 C 0.80318 0.13692 0.84732 0.0
C592 C 0.7965 0.1307 0.821 0.0
C593 C 0.78984 0.10671 0.8087 0.0
C594 C 0.79164 0.08975 0.82312 0.0
C595 C 0.79876 0.0962 0.84948 0.0
C596 C 0.85026 0.16233 0.8864 0.0
C597 C 0.85713 0.18737 0.88391 0.0
C598 C 0.87572 0.20194 0.86873 0.0
C599 C 0.88743 0.19155 0.85535 0.0
C600 C 0.88039 0.16639 0.85764 0.0
C601 C 0.86203 0.15194 0.8732 0.0
C602 C 0.82691 0.16662 0.0539 0.0
C603 C 0.69794 0.02451 0.85424 0.0
H604 H 0.8777 0.67448 0.09972 0.0
H605 H 0.68419 0.65718 0.89947 0.0
H606 H 0.89537 0.70643 0.96519 0.0
H607 H 0.92374 0.69552 0.98289 0.0
H608 H 0.8711 0.61616 0.9568 0.0
H609 H 0.84288 0.62717 0.93963 0.0
H610 H 0.86503 0.70787 0.00314 0.0
H611 H 0.87513 0.70146 0.04596 0.0
H612 H 0.82403 0.62038 0.02734 0.0
H613 H 0.81416 0.62714 0.98456 0.0
H614 H 0.81678 0.70536 0.00059 0.0
H615 H 0.7865 0.69665 0.03155 0.0
H616 H 0.73936 0.62062 0.99185 0.0
H617 H 0.76982 0.6294 0.96148 0.0
H618 H 0.79983 0.71441 0.95015 0.0
H619 H 0.76278 0.71516 0.94232 0.0
H620 H 0.72751 0.64079 0.89818 0.0
H621 H 0.76463 0.64024 0.9063 0.0
H622 H 0.81964 0.71579 0.89437 0.0
H623 H 0.80374 0.71429 0.85084 0.0
H624 H 0.79285 0.64016 0.83103 0.0
H625 H 0.80694 0.64111 0.87481 0.0
H626 H 0.87334 0.71856 0.89768 0.0
H627 H 0.89372 0.72024 0.85879 0.0
H628 H 0.86607 0.64012 0.85652 0.0
H629 H 0.84584 0.63867 0.89516 0.0
O630 O 0.87333 0.6766 0.08275 0.0
O631 O 0.84684 0.63507 0.07224 0.0
O632 O 0.71891 0.69673 0.92324 0.0
O633 O 0.69924 0.6576 0.90232 0.0
C634 C 0.84815 0.6731 0.94514 0.0
C635 C 0.83339 0.67195 0.96475 0.0
C636 C 0.81277 0.67334 0.95926 0.0
C637 C 0.80716 0.67665 0.9343 0.0
C638 C 0.82211 0.67821 0.91467 0.0
C639 C 0.84283 0.67672 0.92021 0.0
C640 C 0.86734 0.66764 0.95065 0.0
C641 C 0.89034 0.68682 0.96267 0.0
C642 C 0.90633 0.68052 0.97301 0.0
C643 C 0.89956 0.65498 0.97125 0.0
C644 C 0.87694 0.636 0.95815 0.0
C645 C 0.86088 0.64227 0.94816 0.0
C646 C 0.83888 0.66797 0.99089 0.0
C647 C 0.85601 0.68877 0.00843 0.0
C648 C 0.86175 0.68504 0.03283 0.0
C649 C 0.8504 0.6604 0.04007 0.0
C650 C 0.83311 0.6396 0.02238 0.0
C651 C 0.82739 0.64338 0.99799 0.0
C652 C 0.79528 0.66806 0.97878 0.0
C653 C 0.8 0.68679 0.99886 0.0
C654 C 0.78271 0.68178 0.01642 0.0
C655 C 0.76057 0.65793 0.01415 0.0
C656 C 0.75637 0.63902 0.99439 0.0
C657 C 0.7736 0.64406 0.97687 0.0
C658 C 0.78493 0.67735 0.92866 0.0
C659 C 0.7841 0.69835 0.93872 0.0
C660 C 0.76293 0.69873 0.93422 0.0
C661 C 0.74217 0.67802 0.91962 0.0
C662 C 0.74315 0.65704 0.90949 0.0
C663 C 0.76435 0.65671 0.914 0.0
C664 C 0.81453 0.67859 0.88776 0.0
C665 C 0.81382 0.69928 0.88054 0.0
C666 C 0.80494 0.69847 0.85558 0.0
C667 C 0.79682 0.67701 0.83738 0.0
C668 C 0.79842 0.65677 0.84459 0.0
C669 C 0.80685 0.65742 0.86956 0.0
C670 C 0.85849 0.6786 0.89952 0.0
C671 C 0.87224 0.70155 0.88909 0.0
C672 C 0.88364 0.70242 0.86678 0.0
C673 C 0.88148 0.68031 0.85458 0.0
C674 C 0.86847 0.65759 0.8657 0.0
C675 C 0.85702 0.65674 0.88792 0.0
C676 C 0.85667 0.65649 0.06595 0.0
C677 C 0.71948 0.67813 0.91518 0.0
H678 H 0.83859 0.71625 0.32916 0.0
H679 H 0.94807 0.611 0.50232 0.0
H680 H 0.82563 0.7039 0.46541 0.0
H681 H 0.79652 0.71152 0.44391 0.0
H682 H 0.74177 0.63096 0.43587 0.0
H683 H 0.77133 0.62351 0.45691 0.0
H684 H 0.8647 0.70619 0.4331 0.0
H685 H 0.8598 0.71764 0.39097 0.0
H686 H 0.79636 0.64175 0.36977 0.0
H687 H 0.80168 0.63049 0.41185 0.0
H688 H 0.90171 0.69821 0.46144 0.0
H689 H 0.93274 0.70801 0.43134 0.0
H690 H 0.88169 0.63809 0.38283 0.0
H691 H 0.85075 0.6284 0.41318 0.0
H692 H 0.8966 0.67902 0.51721 0.0
H693 H 0.92899 0.67194 0.52978 0.0
H694 H 0.89626 0.60529 0.47332 0.0
H695 H 0.86371 0.61233 0.46125 0.0
H696 H 0.85575 0.67622 0.54557 0.0
H697 H 0.86354 0.66565 0.58698 0.0
H698 H 0.83918 0.58986 0.55191 0.0
H699 H 0.8315 0.60072 0.51043 0.0
H700 H 0.8232 0.69091 0.51997 0.0
H701 H 0.8026 0.6906 0.55803 0.0
H702 H 0.76423 0.60851 0.5502 0.0
H703 H 0.78566 0.60923 0.51248 0.0
O704 O 0.8403 0.71128 0.34565 0.0
O705 O 0.80771 0.67206 0.33576 0.0
O706 O 0.94963 0.64664 0.5286 0.0
O707 O 0.93559 0.61434 0.49754 0.0
C708 C 0.81978 0.65814 0.46937 0.0
C709 C 0.83628 0.66072 0.45119 0.0
C710 C 0.85544 0.65714 0.45758 0.0
C711 C 0.8575 0.64982 0.48168 0.0
C712 C 0.84055 0.64651 0.49959 0.0
C713 C 0.8219 0.65107 0.49359 0.0
C714 C 0.80054 0.66317 0.46261 0.0
C715 C 0.80712 0.68802 0.45964 0.0
C716 C 0.79048 0.69231 0.44733 0.0
C717 C 0.76697 0.67179 0.43786 0.0
C718 C 0.75992 0.64709 0.44254 0.0
C719 C 0.77661 0.64282 0.45486 0.0
C720 C 0.8336 0.66751 0.42544 0.0
C721 C 0.84988 0.69204 0.41924 0.0
C722 C 0.84698 0.69853 0.39521 0.0
C723 C 0.82768 0.68061 0.377 0.0
C724 C 0.81142 0.656 0.38333 0.0
C725 C 0.8144 0.64952 0.40733 0.0
C726 C 0.87416 0.66254 0.43951 0.0
C727 C 0.89729 0.68504 0.44431 0.0
C728 C 0.91484 0.69072 0.427 0.0
C729 C 0.90953 0.67387 0.40471 0.0
C730 C 0.88625 0.65135 0.39992 0.0
C731 C 0.86864 0.64578 0.41717 0.0
C732 C 0.87775 0.64611 0.48843 0.0
C733 C 0.89644 0.66288 0.50762 0.0
C734 C 0.91492 0.6588 0.51474 0.0
C735 C 0.91516 0.63798 0.50261 0.0
C736 C 0.89661 0.62148 0.48306 0.0
C737 C 0.87804 0.62549 0.47607 0.0
C738 C 0.84306 0.63922 0.52506 0.0
C739 C 0.85163 0.65718 0.54696 0.0
C740 C 0.85596 0.65106 0.57061 0.0
C741 C 0.85194 0.62689 0.57271 0.0
C742 C 0.84262 0.60868 0.55083 0.0
C743 C 0.83819 0.61481 0.52719 0.0
C744 C 0.80585 0.65011 0.51347 0.0
C745 C 0.8099 0.67284 0.52614 0.0
C746 C 0.79809 0.67258 0.54793 0.0
C747 C 0.78183 0.64951 0.55734 0.0
C748 C 0.77695 0.62663 0.54377 0.0
C749 C 0.78891 0.62695 0.52205 0.0
C750 C 0.82454 0.68762 0.35155 0.0
C751 C 0.93455 0.63336 0.51041 0.0
H752 H 0.34813 0.16183 0.33 0.0
H753 H 0.37373 0.33227 0.57373 0.0
H754 H 0.32213 0.13297 0.46131 0.0
H755 H 0.31396 0.09241 0.44062 0.0
H756 H 0.38514 0.11139 0.47134 0.0
H757 H 0.39385 0.15293 0.49111 0.0
H758 H 0.32459 0.16673 0.43585 0.0
H759 H 0.32717 0.16161 0.3897 0.0
H760 H 0.40517 0.19502 0.40347 0.0
H761 H 0.40236 0.20032 0.44965 0.0
H762 H 0.31478 0.19087 0.46787 0.0
H763 H 0.29976 0.21376 0.4464 0.0
H764 H 0.37381 0.27845 0.44885 0.0
H765 H 0.38891 0.25488 0.46965 0.0
H766 H 0.32232 0.20955 0.52974 0.0
H767 H 0.31877 0.24382 0.55077 0.0
H768 H 0.39522 0.29769 0.54297 0.0
H769 H 0.39851 0.26317 0.52212 0.0
H770 H 0.32701 0.16934 0.55571 0.0
H771 H 0.32185 0.18176 0.5992 0.0
H772 H 0.39608 0.24704 0.60661 0.0
H773 H 0.40096 0.23447 0.56287 0.0
H774 H 0.32746 0.12665 0.51947 0.0
H775 H 0.32624 0.0973 0.54811 0.0
H776 H 0.39979 0.15437 0.58046 0.0
H777 H 0.40106 0.18353 0.55134 0.0
O778 O 0.34755 0.16417 0.34835 0.0
O779 O 0.38758 0.1814 0.35647 0.0
O780 O 0.33538 0.28992 0.56895 0.0
O781 O 0.37457 0.3184 0.5653 0.0
C782 C 0.363 0.17052 0.48964 0.0
C783 C 0.36211 0.18746 0.4742 0.0
C784 C 0.36087 0.20791 0.48563 0.0
C785 C 0.36291 0.21297 0.51254 0.0
C786 C 0.36511 0.19689 0.52812 0.0
C787 C 0.36465 0.17532 0.5167 0.0
C788 C 0.3588 0.14615 0.4772 0.0
C789 C 0.33626 0.12874 0.46304 0.0
C790 C 0.33155 0.10556 0.45137 0.0
C791 C 0.34904 0.09905 0.45423 0.0
C792 C 0.37148 0.11619 0.46882 0.0
C793 C 0.37644 0.13978 0.48006 0.0
C794 C 0.36336 0.18426 0.44609 0.0
C795 C 0.34227 0.17327 0.42888 0.0
C796 C 0.34377 0.17019 0.40251 0.0
C797 C 0.36639 0.17799 0.39287 0.0
C798 C 0.38747 0.18888 0.41023 0.0
C799 C 0.38592 0.19194 0.4366 0.0
C800 C 0.35292 0.22109 0.4698 0.0
C801 C 0.32784 0.20966 0.46298 0.0
C802 C 0.31929 0.22273 0.45081 0.0
C803 C 0.33568 0.24773 0.44588 0.0
C804 C 0.36089 0.25911 0.4524 0.0
C805 C 0.36951 0.24574 0.46414 0.0
C806 C 0.36065 0.23396 0.52444 0.0
C807 C 0.33823 0.2288 0.53255 0.0
C808 C 0.33628 0.24839 0.54456 0.0
C809 C 0.35674 0.27351 0.54858 0.0
C810 C 0.37912 0.27858 0.54019 0.0
C811 C 0.38105 0.25894 0.52822 0.0
C812 C 0.36433 0.20102 0.55619 0.0
C813 C 0.34242 0.18581 0.56706 0.0
C814 C 0.33951 0.19298 0.59191 0.0
C815 C 0.35848 0.21555 0.60624 0.0
C816 C 0.38103 0.22976 0.59589 0.0
C817 C 0.38393 0.22252 0.57105 0.0
C818 C 0.36444 0.15712 0.53316 0.0
C819 C 0.34348 0.13264 0.53238 0.0
C820 C 0.34281 0.11592 0.54873 0.0
C821 C 0.36296 0.12356 0.56643 0.0
C822 C 0.38399 0.14806 0.56707 0.0
C823 C 0.38476 0.16467 0.55047 0.0
C824 C 0.36792 0.17467 0.36484 0.0
C825 C 0.35482 0.29435 0.56155 0.0
H826 H 0.81861 0.17394 0.31207 0.0
H827 H 0.02079 0.32462 0.52822 0.0
H828 H 0.79884 0.16959 0.44541 0.0
H829 H 0.76453 0.12697 0.42757 0.0
H830 H 0.80199 0.09389 0.45952 0.0
H831 H 0.83607 0.13628 0.47697 0.0
H832 H 0.84741 0.21944 0.41932 0.0
H833 H 0.83492 0.20651 0.37332 0.0
H834 H 0.83929 0.14039 0.37852 0.0
H835 H 0.85208 0.15371 0.42441 0.0
H836 H 0.90396 0.26611 0.45073 0.0
H837 H 0.93816 0.28723 0.42406 0.0
H838 H 0.93336 0.21627 0.404 0.0
H839 H 0.90025 0.19555 0.43173 0.0
H840 H 0.89981 0.27143 0.51185 0.0
H841 H 0.94054 0.30805 0.52758 0.0
H842 H 0.97247 0.26542 0.50136 0.0
H843 H 0.93164 0.22887 0.48603 0.0
H844 H 0.85508 0.23224 0.54206 0.0
H845 H 0.86775 0.24333 0.58828 0.0
H846 H 0.91712 0.21713 0.5788 0.0
H847 H 0.9048 0.2068 0.53282 0.0
H848 H 0.80423 0.18292 0.50647 0.0
H849 H 0.77609 0.15692 0.53679 0.0
H850 H 0.82746 0.137 0.56139 0.0
H851 H 0.8548 0.16206 0.53037 0.0
O852 O 0.82366 0.17874 0.33027 0.0
O853 O 0.82613 0.14501 0.33397 0.0
O854 O 0.98712 0.33143 0.5356 0.0
O855 O 0.00446 0.31042 0.52224 0.0
C856 C 0.84178 0.18138 0.47117 0.0
C857 C 0.85786 0.19543 0.45318 0.0
C858 C 0.88122 0.21705 0.46177 0.0
C859 C 0.88799 0.22532 0.48835 0.0
C860 C 0.87145 0.21178 0.50626 0.0
C861 C 0.84839 0.18977 0.49766 0.0
C862 C 0.81982 0.15591 0.46248 0.0
C863 C 0.7994 0.15306 0.44876 0.0
C864 C 0.7799 0.1288 0.43865 0.0
C865 C 0.78078 0.10723 0.442 0.0
C866 C 0.80101 0.11022 0.45636 0.0
C867 C 0.82034 0.13434 0.46653 0.0
C868 C 0.8504 0.18739 0.42523 0.0
C869 C 0.84567 0.20218 0.41047 0.0
C870 C 0.83852 0.19474 0.38421 0.0
C871 C 0.83601 0.17236 0.37225 0.0
C872 C 0.84095 0.15767 0.38713 0.0
C873 C 0.84814 0.16517 0.41337 0.0
C874 C 0.89957 0.22928 0.44312 0.0
C875 C 0.91015 0.25509 0.4404 0.0
C876 C 0.92953 0.26707 0.4252 0.0
C877 C 0.93806 0.25319 0.41204 0.0
C878 C 0.92677 0.22716 0.41381 0.0
C879 C 0.90785 0.21536 0.4295 0.0
C880 C 0.9128 0.24758 0.49766 0.0
C881 C 0.91563 0.27006 0.50955 0.0
C882 C 0.93891 0.29094 0.51849 0.0
C883 C 0.95978 0.28968 0.51568 0.0
C884 C 0.95682 0.26706 0.50379 0.0
C885 C 0.93352 0.24618 0.49494 0.0
C886 C 0.87928 0.21905 0.53413 0.0
C887 C 0.86874 0.2291 0.55006 0.0
C888 C 0.87585 0.23521 0.57643 0.0
C889 C 0.89356 0.23126 0.58723 0.0
C890 C 0.90384 0.22093 0.57109 0.0
C891 C 0.89681 0.21496 0.54482 0.0
C892 C 0.83161 0.17454 0.51643 0.0
C893 C 0.80931 0.17289 0.51845 0.0
C894 C 0.79337 0.15818 0.53586 0.0
C895 C 0.79952 0.14487 0.5515 0.0
C896 C 0.82198 0.1467 0.5494 0.0
C897 C 0.83778 0.16125 0.53191 0.0
C898 C 0.82832 0.16447 0.34437 0.0
C899 C 0.98455 0.31181 0.52514 0.0
H900 H 0.98423 0.51227 0.41306 0.0
H901 H 0.01328 0.35026 0.2057 0.0
H902 H 0.96205 0.51394 0.27582 0.0
H903 H 0.97337 0.5575 0.29099 0.0
H904 H 0.04515 0.58676 0.26503 0.0
H905 H 0.03379 0.54343 0.25013 0.0
H906 H 0.95884 0.4643 0.30661 0.0
H907 H 0.9626 0.47863 0.35232 0.0
H908 H 0.03653 0.54099 0.34658 0.0
H909 H 0.03262 0.52627 0.301 0.0
H910 H 0.96449 0.4152 0.27876 0.0
H911 H 0.98008 0.39231 0.29964 0.0
H912 H 0.05155 0.4615 0.31401 0.0
H913 H 0.03613 0.48402 0.29255 0.0
H914 H 0.95146 0.40793 0.21752 0.0
H915 H 0.95209 0.3698 0.20417 0.0
H916 H 0.02968 0.41147 0.22788 0.0
H917 H 0.02885 0.44952 0.24071 0.0
H918 H 0.94989 0.44382 0.18183 0.0
H919 H 0.95114 0.42627 0.1385 0.0
H920 H 0.02876 0.45902 0.15461 0.0
H921 H 0.0273 0.47618 0.19756 0.0
H922 H 0.95266 0.49968 0.21493 0.0
H923 H 0.95446 0.52929 0.18605 0.0
H924 H 0.02639 0.54759 0.16856 0.0
H925 H 0.02469 0.51868 0.19792 0.0
O926 O 0.98316 0.5069 0.39497 0.0
O927 O 0.02105 0.53867 0.39098 0.0
O928 O 0.97279 0.34471 0.19799 0.0
O929 O 0.01254 0.3651 0.21058 0.0
C930 C 0.99136 0.49971 0.25401 0.0
C931 C 0.99274 0.48552 0.27272 0.0
C932 C 0.99235 0.46313 0.26503 0.0
C933 C 0.98946 0.45437 0.23864 0.0
C934 C 0.98758 0.46834 0.22001 0.0
C935 C 0.98844 0.49097 0.22765 0.0
C936 C 0.99711 0.5257 0.26187 0.0
C937 C 0.9801 0.52984 0.27326 0.0
C938 C 0.98655 0.5546 0.2818 0.0
C939 C 0.01016 0.57536 0.27924 0.0
C940 C 0.02695 0.57105 0.26745 0.0
C941 C 0.02044 0.54642 0.25879 0.0
C942 C 0.99533 0.49441 0.30045 0.0
C943 C 0.97582 0.48105 0.31528 0.0
C944 C 0.97802 0.4893 0.34138 0.0
C945 C -0.00017 0.51103 0.35309 0.0
C946 C 0.01944 0.52425 0.33815 0.0
C947 C 0.01721 0.51596 0.31208 0.0
C948 C -0.0008 0.45122 0.28403 0.0
C949 C 0.98328 0.42557 0.28719 0.0
C950 C 0.99222 0.41254 0.29895 0.0
C951 C 0.01706 0.42515 0.30812 0.0
C952 C 0.03231 0.4514 0.30724 0.0
C953 C 0.02347 0.46431 0.29512 0.0
C954 C 0.99004 0.43137 0.23029 0.0
C955 C 0.96856 0.40876 0.21973 0.0
C956 C 0.96898 0.38703 0.21217 0.0
C957 C 0.99093 0.38756 0.21506 0.0
C958 C 0.01247 0.41037 0.22545 0.0
C959 C 0.01204 0.43211 0.23287 0.0
C960 C 0.98848 0.46105 0.19273 0.0
C961 C 0.96718 0.44755 0.1757 0.0
C962 C 0.96793 0.4376 0.15108 0.0
C963 C 0.98998 0.44101 0.14345 0.0
C964 C 0.01145 0.45575 0.16018 0.0
C965 C 0.01069 0.46567 0.1846 0.0
C966 C 0.98841 0.50681 0.20825 0.0
C967 C 0.96864 0.5099 0.20458 0.0
C968 C 0.96969 0.52676 0.18808 0.0
C969 C 0.99063 0.54089 0.17514 0.0
C970 C 0.01015 0.53727 0.17851 0.0
C971 C 0.00908 0.52048 0.19498 0.0
C972 C 0.00208 0.51977 0.3808 0.0
C973 C 0.99144 0.36446 0.20732 0.0
H974 H 0.47341 0.5092 0.42344 0.0
H975 H 0.33991 0.32038 0.1857 0.0
H976 H 0.49328 0.52854 0.28979 0.0
H977 H 0.52677 0.56805 0.3136 0.0
H978 H 0.57601 0.54227 0.30068 0.0
H979 H 0.54203 0.50224 0.27717 0.0
H980 H 0.45129 0.49026 0.312 0.0
H981 H 0.45554 0.50026 0.35863 0.0
H982 H 0.50907 0.47927 0.36499 0.0
H983 H 0.50439 0.46902 0.31832 0.0
H984 H 0.41164 0.45236 0.2694 0.0
H985 H 0.37824 0.43292 0.2969 0.0
H986 H 0.41336 0.39956 0.33353 0.0
H987 H 0.44687 0.4194 0.30606 0.0
H988 H 0.41647 0.44601 0.21303 0.0
H989 H 0.37856 0.40963 0.19069 0.0
H990 H 0.39457 0.35855 0.22386 0.0
H991 H 0.43255 0.39513 0.24589 0.0
H992 H 0.46494 0.48888 0.1975 0.0
H993 H 0.45554 0.47981 0.15111 0.0
H994 H 0.45857 0.41242 0.15192 0.0
H995 H 0.46729 0.42142 0.19871 0.0
H996 H 0.51037 0.53093 0.23407 0.0
H997 H 0.54194 0.55587 0.20611 0.0
H998 H 0.55022 0.49246 0.18672 0.0
H999 H 0.51905 0.46781 0.21527 0.0
O1000 O 0.47196 0.50507 0.40502 0.0
O1001 O 0.4995 0.49422 0.40723 0.0
O1002 O 0.34712 0.36216 0.17817 0.0
O1003 O 0.35467 0.3351 0.19448 0.0
C1004 C 0.49415 0.4881 0.26909 0.0
C1005 C 0.47474 0.47249 0.28347 0.0
C1006 C 0.45283 0.45131 0.27091 0.0
C1007 C 0.45054 0.44525 0.24407 0.0
C1008 C 0.47019 0.46048 0.22977 0.0
C1009 C 0.49214 0.48176 0.24228 0.0
C1010 C 0.51521 0.51248 0.28201 0.0
C1011 C 0.51127 0.53135 0.29221 0.0
C1012 C 0.53034 0.55381 0.30586 0.0
C1013 C 0.55383 0.558 0.30921 0.0
C1014 C 0.558 0.53941 0.29835 0.0
C1015 C 0.53872 0.51666 0.28494 0.0
C1016 C 0.47735 0.47867 0.31182 0.0
C1017 C 0.46376 0.48764 0.32352 0.0
C1018 C 0.46631 0.49343 0.35015 0.0
C1019 C 0.48261 0.49051 0.36556 0.0
C1020 C 0.49632 0.48169 0.3537 0.0
C1021 C 0.4937 0.47584 0.32707 0.0
C1022 C 0.43152 0.43711 0.28568 0.0
C1023 C 0.41188 0.44051 0.2831 0.0
C1024 C 0.39289 0.42948 0.29886 0.0
C1025 C 0.39328 0.41487 0.3175 0.0
C1026 C 0.41279 0.41109 0.31965 0.0
C1027 C 0.43176 0.42212 0.30384 0.0
C1028 C 0.42731 0.42317 0.2309 0.0
C1029 C 0.41179 0.42694 0.21534 0.0
C1030 C 0.39013 0.40613 0.20267 0.0
C1031 C 0.38356 0.38116 0.20544 0.0
C1032 C 0.39909 0.37751 0.22127 0.0
C1033 C 0.42077 0.39835 0.2339 0.0
C1034 C 0.46674 0.45578 0.20138 0.0
C1035 C 0.4639 0.47236 0.18758 0.0
C1036 C 0.45869 0.4672 0.16103 0.0
C1037 C 0.45633 0.44538 0.14771 0.0
C1038 C 0.45996 0.42921 0.1616 0.0
C1039 C 0.46505 0.43434 0.18826 0.0
C1040 C 0.51258 0.49764 0.22692 0.0
C1041 C 0.51938 0.52262 0.22425 0.0
C1042 C 0.53734 0.53679 0.20824 0.0
C1043 C 0.54849 0.52605 0.19428 0.0
C1044 C 0.5418 0.50111 0.19715 0.0
C1045 C 0.52411 0.48709 0.21348 0.0
C1046 C 0.48527 0.49668 0.39385 0.0
C1047 C 0.36067 0.35898 0.19186 0.0
H1048 H 0.52962 0.99361 0.43003 0.0
H1049 H 0.34021 0.97403 0.23835 0.0
H1050 H 0.55113 0.03531 0.30738 0.0
H1051 H 0.58147 0.02732 0.32537 0.0
H1052 H 0.55021 0.95844 0.27252 0.0
H1053 H 0.51938 0.96601 0.25525 0.0
H1054 H 0.50773 0.02777 0.33864 0.0
H1055 H 0.51796 0.02002 0.38069 0.0
H1056 H 0.5042 0.9475 0.34698 0.0
H1057 H 0.49365 0.95532 0.30515 0.0
H1058 H 0.46211 0.02817 0.31472 0.0
H1059 H 0.43277 0.01727 0.34699 0.0
H1060 H 0.41554 0.93996 0.33721 0.0
H1061 H 0.44453 0.95095 0.30459 0.0
H1062 H 0.46232 0.04065 0.25477 0.0
H1063 H 0.4242 0.03909 0.24566 0.0
H1064 H 0.38297 0.95807 0.24959 0.0
H1065 H 0.4212 0.95986 0.25835 0.0
H1066 H 0.50378 0.04951 0.22078 0.0
H1067 H 0.49404 0.053 0.17636 0.0
H1068 H 0.43966 0.97232 0.16473 0.0
H1069 H 0.44978 0.96901 0.20884 0.0
H1070 H 0.5473 0.05044 0.24089 0.0
H1071 H 0.57152 0.05673 0.20403 0.0
H1072 H 0.5235 0.97708 0.17545 0.0
H1073 H 0.49943 0.97108 0.21204 0.0
O1074 O 0.52521 0.99615 0.41329 0.0
O1075 O 0.51817 0.95917 0.39495 0.0
O1076 O 0.37761 0.01662 0.23841 0.0
O1077 O 0.35558 0.97514 0.24138 0.0
C1078 C 0.51113 0.00237 0.27422 0.0
C1079 C 0.49471 0.99737 0.29322 0.0
C1080 C 0.47297 0.99684 0.28773 0.0
C1081 C 0.46763 0.0015 0.26331 0.0
C1082 C 0.484 0.00644 0.24432 0.0
C1083 C 0.5057 0.00679 0.24976 0.0
C1084 C 0.53311 0.00129 0.27995 0.0
C1085 C 0.55127 0.01888 0.29921 0.0
C1086 C 0.56838 0.01418 0.30961 0.0
C1087 C 0.56791 0.99213 0.30047 0.0
C1088 C 0.55096 0.97561 0.2798 0.0
C1089 C 0.53353 0.98005 0.26975 0.0
C1090 C 0.50006 0.99216 0.31887 0.0
C1091 C 0.50678 0.01015 0.34044 0.0
C1092 C 0.51269 0.00571 0.3644 0.0
C1093 C 0.51199 0.98318 0.36718 0.0
C1094 C 0.50498 0.96507 0.34551 0.0
C1095 C 0.49898 0.9695 0.32159 0.0
C1096 C 0.45534 0.99033 0.30735 0.0
C1097 C 0.45197 0.00891 0.3196 0.0
C1098 C 0.43542 0.0027 0.33817 0.0
C1099 C 0.42196 0.97777 0.34472 0.0
C1100 C 0.42553 0.95926 0.33245 0.0
C1101 C 0.4421 0.96551 0.31392 0.0
C1102 C 0.4445 0.0004 0.25736 0.0
C1103 C 0.44503 0.02258 0.25354 0.0
C1104 C 0.42324 0.02164 0.24839 0.0
C1105 C 0.40052 -0.00155 0.247 0.0
C1106 C 0.40012 0.97624 0.25062 0.0
C1107 C 0.42192 0.97721 0.25568 0.0
C1108 C 0.47743 0.00902 0.21795 0.0
C1109 C 0.48974 0.03266 0.20857 0.0
C1110 C 0.48412 0.03462 0.18329 0.0
C1111 C 0.46622 0.01291 0.167 0.0
C1112 C 0.45382 0.98932 0.17665 0.0
C1113 C 0.45938 0.98741 0.20189 0.0
C1114 C 0.52183 0.01026 0.22915 0.0
C1115 C 0.5423 0.03435 0.2268 0.0
C1116 C 0.55594 0.03794 0.20573 0.0
C1117 C 0.54941 0.01737 0.18698 0.0
C1118 C 0.52915 0.99318 0.18978 0.0
C1119 C 0.5154 0.98971 0.21061 0.0
C1120 C 0.51861 0.97868 0.39258 0.0
C1121 C 0.37728 0.99739 0.24196 0.0
H1122 H 0.48812 0.02911 0.65017 0.0
H1123 H 0.63771 0.98582 0.84862 0.0
H1124 H 0.48767 0.03608 0.79444 0.0
H1125 H 0.45697 0.04056 0.77202 0.0
H1126 H 0.40743 0.95879 0.7617 0.0
H1127 H 0.43891 0.95457 0.78368 0.0
H1128 H 0.52144 0.03912 0.75785 0.0
H1129 H 0.51219 0.04265 0.71347 0.0
H1130 H 0.46296 0.96093 0.69934 0.0
H1131 H 0.47258 0.9577 0.74373 0.0
H1132 H 0.56318 0.04574 0.78668 0.0
H1133 H 0.59333 0.06036 0.75537 0.0
H1134 H 0.56023 0.98269 0.72003 0.0
H1135 H 0.52928 0.96857 0.75079 0.0
H1136 H 0.56851 0.03534 0.84516 0.0
H1137 H 0.60662 0.03903 0.86005 0.0
H1138 H 0.5817 0.96603 0.81691 0.0
H1139 H 0.54364 0.96253 0.80232 0.0
H1140 H 0.52151 0.02736 0.87219 0.0
H1141 H 0.53367 0.02902 0.917 0.0
H1142 H 0.53223 0.95943 0.89868 0.0
H1143 H 0.5182 0.95698 0.8541 0.0
H1144 H 0.48069 0.02558 0.84329 0.0
H1145 H 0.45776 0.0238 0.87978 0.0
H1146 H 0.44108 0.94808 0.88733 0.0
H1147 H 0.46322 0.94965 0.85002 0.0
O1148 O 0.49167 0.02726 0.66759 0.0
O1149 O 0.46653 0.98519 0.66134 0.0
O1150 O 0.63597 0.02349 0.86287 0.0
O1151 O 0.62315 0.98522 0.84249 0.0
C1152 C 0.48615 0.99285 0.7989 0.0
C1153 C 0.50298 0.99603 0.78095 0.0
C1154 C 0.52502 0.99816 0.78888 0.0
C1155 C 0.52984 0.99592 0.81453 0.0
C1156 C 0.51267 0.99199 0.83243 0.0
C1157 C 0.49074 0.99047 0.82459 0.0
C1158 C 0.46536 0.99504 0.79084 0.0
C1159 C 0.46992 0.01919 0.78798 0.0
C1160 C 0.45233 0.02168 0.77512 0.0
C1161 C 0.42976 2e-05 0.76494 0.0
C1162 C 0.42478 0.97582 0.76902 0.0
C1163 C 0.44252 0.97335 0.78188 0.0
C1164 C 0.49782 0.99814 0.75386 0.0
C1165 C 0.50884 0.022 0.74504 0.0
C1166 C 0.50344 0.02396 0.71973 0.0
C1167 C 0.48684 0.00206 0.70284 0.0
C1168 C 0.47585 0.97816 0.71182 0.0
C1169 C 0.48131 0.97625 0.73713 0.0
C1170 C 0.5443 0.00613 0.77107 0.0
C1171 C 0.56261 0.03192 0.77224 0.0
C1172 C 0.57982 0.0402 0.75433 0.0
C1173 C 0.57932 0.02272 0.73513 0.0
C1174 C 0.56096 0.99675 0.73423 0.0
C1175 C 0.54347 0.98855 0.75197 0.0
C1176 C 0.55331 -0.00139 0.8228 0.0
C1177 C 0.57136 0.02019 0.83896 0.0
C1178 C 0.5931 0.02226 0.8474 0.0
C1179 C 0.59717 0.00277 0.83974 0.0
C1180 C 0.57913 0.98134 0.82323 0.0
C1181 C 0.55741 0.97931 0.81481 0.0
C1182 C 0.51885 0.99199 0.8599 0.0
C1183 C 0.52324 0.01214 0.87798 0.0
C1184 C 0.53052 0.01322 0.90354 0.0
C1185 C 0.53423 0.99451 0.91147 0.0
C1186 C 0.52928 0.974 0.89337 0.0
C1187 C 0.52152 0.97269 0.86783 0.0
C1188 C 0.47343 0.98765 0.8438 0.0
C1189 C 0.47136 0.00827 0.85223 0.0
C1190 C 0.45861 0.00738 0.8734 0.0
C1191 C 0.44786 0.98592 0.88671 0.0
C1192 C 0.44897 0.9648 0.87743 0.0
C1193 C 0.46162 0.96567 0.85613 0.0
C1194 C 0.48101 0.00422 0.676 0.0
C1195 C 0.61998 0.00458 0.84907 0.0
H1196 H 0.92735 0.44003 0.67886 0.0
H1197 H 0.0402 0.6694 0.8812 0.0
H1198 H 0.94985 0.44379 0.81542 0.0
H1199 H 0.93871 0.40055 0.80028 0.0
H1200 H 0.0151 0.4252 0.80874 0.0
H1201 H 0.0261 0.46861 0.82309 0.0
H1202 H 0.94648 0.48186 0.78705 0.0
H1203 H 0.93175 0.46333 0.7423 0.0
H1204 H 0.00158 0.47247 0.73034 0.0
H1205 H 0.01617 0.49123 0.77508 0.0
H1206 H 0.95878 0.53191 0.82277 0.0
H1207 H 0.94734 0.55286 0.79364 0.0
H1208 H 0.00507 0.56323 0.74706 0.0
H1209 H 0.01737 0.54362 0.77749 0.0
H1210 H 0.97612 0.54311 0.87785 0.0
H1211 H 0.98258 0.58436 0.89372 0.0
H1212 H 0.04519 0.62152 0.84996 0.0
H1213 H 0.03873 0.58014 0.83453 0.0
H1214 H 0.97827 0.49869 0.90102 0.0
H1215 H 0.98302 0.51768 0.945 0.0
H1216 H 0.05333 0.58229 0.93214 0.0
H1217 H 0.04856 0.56284 0.88797 0.0
H1218 H 0.96976 0.45127 0.87115 0.0
H1219 H 0.97706 0.42543 0.89789 0.0
H1220 H 0.05448 0.48257 0.90629 0.0
H1221 H 0.04707 0.50818 0.87895 0.0
O1222 O 0.93358 0.44749 0.69648 0.0
O1223 O 0.96978 0.45252 0.69135 0.0
O1224 O 0.00502 0.63282 0.8975 0.0
O1225 O 0.03721 0.65284 0.87518 0.0
C1226 C 0.99524 0.48547 0.82881 0.0
C1227 C 0.99135 0.49922 0.81145 0.0
C1228 C 0.99539 0.52326 0.8201 0.0
C1229 C 0.0035 0.53364 0.84609 0.0
C1230 C 0.00758 0.51991 0.86347 0.0
C1231 C 0.00367 0.49592 0.85475 0.0
C1232 C 0.98878 0.45929 0.8201 0.0
C1233 C 0.96415 0.43981 0.81385 0.0
C1234 C 0.95782 0.41512 0.80548 0.0
C1235 C 0.97603 0.40949 0.80329 0.0
C1236 C 0.00069 0.42904 0.8099 0.0
C1237 C 0.00702 0.45377 0.81821 0.0
C1238 C 0.98243 0.48803 0.78423 0.0
C1239 C 0.9586 0.47998 0.77468 0.0
C1240 C 0.95022 0.46934 0.74913 0.0
C1241 C 0.96549 0.46644 0.73272 0.0
C1242 C 0.98935 0.47445 0.74245 0.0
C1243 C -0.00227 0.48514 0.76798 0.0
C1244 C 0.98906 0.53653 0.80239 0.0
C1245 C 0.96916 0.53905 0.80647 0.0
C1246 C 0.9624 0.55063 0.78951 0.0
C1247 C 0.97511 0.55951 0.76778 0.0
C1248 C 0.99503 0.55684 0.7637 0.0
C1249 C 0.00202 0.54556 0.78096 0.0
C1250 C 0.00708 0.55867 0.85521 0.0
C1251 C 0.99128 0.56019 0.87181 0.0
C1252 C 0.99498 0.58377 0.88079 0.0
C1253 C 0.01445 0.60626 0.87315 0.0
C1254 C 0.03006 0.60459 0.85627 0.0
C1255 C 0.02639 0.58099 0.84738 0.0
C1256 C 0.01304 0.52938 0.89128 0.0
C1257 C 0.99508 0.51652 0.90792 0.0
C1258 C -0.00218 0.52744 0.93306 0.0
C1259 C 0.0185 0.55155 0.94196 0.0
C1260 C 0.03712 0.56379 0.92569 0.0
C1261 C 0.03448 0.55268 0.90056 0.0
C1262 C 0.00793 0.48141 0.87282 0.0
C1263 C 0.9883 0.45817 0.87869 0.0
C1264 C 0.99251 0.44344 0.89387 0.0
C1265 C 0.01638 0.45189 0.90383 0.0
C1266 C 0.03592 0.47564 0.89879 0.0
C1267 C 0.03172 0.49025 0.88327 0.0
C1268 C 0.95651 0.45508 0.70561 0.0
C1269 C 0.01852 0.63137 0.88273 0.0
H1270 H 0.47158 0.49762 0.64804 0.0
H1271 H 0.68225 0.65718 0.84863 0.0
H1272 H 0.45963 0.50442 0.78387 0.0
H1273 H 0.42239 0.46389 0.76657 0.0
H1274 H 0.45425 0.42352 0.79396 0.0
H1275 H 0.49112 0.46392 0.81116 0.0
H1276 H 0.50485 0.54723 0.75373 0.0
H1277 H 0.49044 0.53254 0.70823 0.0
H1278 H 0.49537 0.46693 0.71484 0.0
H1279 H 0.51003 0.48201 0.76024 0.0
H1280 H 0.55775 0.5925 0.77938 0.0
H1281 H 0.58892 0.61299 0.74944 0.0
H1282 H 0.59262 0.54592 0.73748 0.0
H1283 H 0.56172 0.52575 0.76761 0.0
H1284 H 0.56099 0.60166 0.84385 0.0
H1285 H 0.60213 0.63919 0.85597 0.0
H1286 H 0.63326 0.59606 0.82872 0.0
H1287 H 0.59207 0.55862 0.8171 0.0
H1288 H 0.51758 0.56253 0.87701 0.0
H1289 H 0.5303 0.57268 0.92319 0.0
H1290 H 0.5808 0.54824 0.9119 0.0
H1291 H 0.56806 0.53833 0.86589 0.0
H1292 H 0.47032 0.51878 0.8512 0.0
H1293 H 0.44713 0.49605 0.88605 0.0
H1294 H 0.49197 0.46424 0.89293 0.0
H1295 H 0.51556 0.48794 0.85907 0.0
O1296 O 0.47742 0.50314 0.66603 0.0
O1297 O 0.4802 0.4697 0.67046 0.0
O1298 O 0.64892 0.66323 0.86044 0.0
O1299 O 0.66577 0.6425 0.84455 0.0
C1300 C 0.5015 0.5113 0.8068 0.0
C1301 C 0.5168 0.52455 0.78793 0.0
C1302 C 0.54048 0.54604 0.79534 0.0
C1303 C 0.5486 0.55497 0.82162 0.0
C1304 C 0.53312 0.54195 0.84047 0.0
C1305 C 0.50971 0.51996 0.83301 0.0
C1306 C 0.4779 0.48703 0.79897 0.0
C1307 C 0.4583 0.48675 0.78645 0.0
C1308 C 0.43719 0.46365 0.77645 0.0
C1309 C 0.4354 0.44052 0.77891 0.0
C1310 C 0.45488 0.44096 0.79212 0.0
C1311 C 0.47595 0.464 0.802 0.0
C1312 C 0.50829 0.51558 0.76028 0.0
C1313 C 0.50284 0.52972 0.74528 0.0
C1314 C 0.49459 0.52126 0.71932 0.0
C1315 C 0.49167 0.49851 0.70791 0.0
C1316 C 0.49734 0.48448 0.72303 0.0
C1317 C 0.50564 0.493 0.74897 0.0
C1318 C 0.55761 0.55773 0.77562 0.0
C1319 C 0.56512 0.58219 0.77002 0.0
C1320 C 0.58275 0.59374 0.75284 0.0
C1321 C 0.59316 0.58099 0.74119 0.0
C1322 C 0.58501 0.55619 0.74632 0.0
C1323 C 0.56733 0.54464 0.76338 0.0
C1324 C 0.57358 0.57752 0.82941 0.0
C1325 C 0.57673 0.60036 0.84062 0.0
C1326 C 0.60024 0.62176 0.84748 0.0
C1327 C 0.621 0.62066 0.84319 0.0
C1328 C 0.6177 0.59761 0.83218 0.0
C1329 C 0.5942 0.57621 0.82546 0.0
C1330 C 0.54206 0.54991 0.86812 0.0
C1331 C 0.53152 0.55958 0.88456 0.0
C1332 C 0.53866 0.56516 0.91091 0.0
C1333 C 0.55655 0.56125 0.92122 0.0
C1334 C 0.56723 0.55181 0.90455 0.0
C1335 C 0.56002 0.54616 0.87827 0.0
C1336 C 0.49457 0.50498 0.8528 0.0
C1337 C 0.47498 0.50681 0.86029 0.0
C1338 C 0.46174 0.49374 0.8801 0.0
C1339 C 0.4678 0.47845 0.89248 0.0
C1340 C 0.48716 0.47629 0.88432 0.0
C1341 C 0.50051 0.48958 0.8648 0.0
C1342 C 0.48277 0.4895 0.68036 0.0
C1343 C 0.64602 0.64344 0.84999 0.0
H1344 H 0.62942 0.84677 0.75626 0.0
H1345 H 0.68214 0.69828 0.56035 0.0
H1346 H 0.61506 0.84936 0.62099 0.0
H1347 H 0.62179 0.89103 0.63647 0.0
H1348 H 0.69453 0.92787 0.61136 0.0
H1349 H 0.6877 0.88647 0.59616 0.0
H1350 H 0.61286 0.80152 0.64956 0.0
H1351 H 0.61302 0.81431 0.69494 0.0
H1352 H 0.68579 0.88057 0.69394 0.0
H1353 H 0.68548 0.86741 0.64865 0.0
H1354 H 0.62132 0.75576 0.62257 0.0
H1355 H 0.63639 0.73216 0.6428 0.0
H1356 H 0.70679 0.80175 0.66277 0.0
H1357 H 0.69188 0.82509 0.64199 0.0
H1358 H 0.61418 0.74941 0.56217 0.0
H1359 H 0.61788 0.71281 0.55103 0.0
H1360 H 0.69452 0.75864 0.57923 0.0
H1361 H 0.69063 0.79512 0.58988 0.0
H1362 H 0.61193 0.78453 0.52657 0.0
H1363 H 0.61583 0.76996 0.48302 0.0
H1364 H 0.69374 0.8069 0.50195 0.0
H1365 H 0.68964 0.82124 0.5451 0.0
H1366 H 0.6113 0.8393 0.55607 0.0
H1367 H 0.6136 0.86726 0.52476 0.0
H1368 H 0.6881 0.88932 0.51489 0.0
H1369 H 0.68585 0.86218 0.54664 0.0
O1370 O 0.62979 0.84202 0.73833 0.0
O1371 O 0.66717 0.87582 0.73679 0.0
O1372 O 0.64117 0.69019 0.54835 0.0
O1373 O 0.68028 0.71257 0.564 0.0
C1374 C 0.64782 0.84013 0.59927 0.0
C1375 C 0.64863 0.82579 0.6182 0.0
C1376 C 0.64993 0.80433 0.61094 0.0
C1377 C 0.64951 0.79666 0.5847 0.0
C1378 C 0.64821 0.81067 0.56582 0.0
C1379 C 0.64746 0.83248 0.57305 0.0
C1380 C 0.65078 0.86499 0.60717 0.0
C1381 C 0.63231 0.8665 0.61866 0.0
C1382 C 0.63623 0.89022 0.62759 0.0
C1383 C 0.65863 0.91267 0.62496 0.0
C1384 C 0.67693 0.91095 0.61321 0.0
C1385 C 0.67307 0.88734 0.60449 0.0
C1386 C 0.64904 0.83367 0.64578 0.0
C1387 C 0.62881 0.81878 0.6592 0.0
C1388 C 0.62895 0.82615 0.68511 0.0
C1389 C 0.64938 0.84853 0.69806 0.0
C1390 C 0.66972 0.86329 0.68454 0.0
C1391 C 0.66957 0.85587 0.65865 0.0
C1392 C 0.65559 0.79205 0.63056 0.0
C1393 C 0.63966 0.76605 0.63223 0.0
C1394 C 0.64831 0.75262 0.64365 0.0
C1395 C 0.67283 0.76516 0.65395 0.0
C1396 C 0.6878 0.7917 0.65504 0.0
C1397 C 0.67925 0.80506 0.64328 0.0
C1398 C 0.65208 0.7748 0.577 0.0
C1399 C 0.63177 0.75151 0.56575 0.0
C1400 C 0.63393 0.73065 0.55948 0.0
C1401 C 0.65648 0.73277 0.56437 0.0
C1402 C 0.67688 0.75632 0.57528 0.0
C1403 C 0.67471 0.77717 0.58142 0.0
C1404 C 0.65053 0.80398 0.53881 0.0
C1405 C 0.62983 0.78974 0.52106 0.0
C1406 C 0.63208 0.78135 0.49635 0.0
C1407 C 0.6551 0.78738 0.48911 0.0
C1408 C 0.67584 0.80229 0.50683 0.0
C1409 C 0.67353 0.81041 0.53148 0.0
C1410 C 0.64831 0.84849 0.55336 0.0
C1411 C 0.62804 0.85015 0.54702 0.0
C1412 C 0.62937 0.86603 0.5291 0.0
C1413 C 0.65106 0.88059 0.5174 0.0
C1414 C 0.67123 0.87867 0.52379 0.0
C1415 C 0.66989 0.8629 0.54167 0.0
C1416 C 0.64942 0.85636 0.72554 0.0
C1417 C 0.65875 0.71052 0.55835 0.0
H1418 H 0.14111 0.85191 0.75334 0.0
H1419 H 0.99596 0.64922 0.52718 0.0
H1420 H 0.1487 0.86486 0.61678 0.0
H1421 H 0.18356 0.90741 0.63226 0.0
H1422 H 0.23285 0.88279 0.61373 0.0
H1423 H 0.19766 0.83988 0.59903 0.0
H1424 H 0.10944 0.82628 0.6435 0.0
H1425 H 0.11746 0.83875 0.68992 0.0
H1426 H 0.17395 0.82165 0.69149 0.0
H1427 H 0.16554 0.80897 0.64508 0.0
H1428 H 0.06786 0.78581 0.60462 0.0
H1429 H 0.03579 0.76427 0.63305 0.0
H1430 H 0.07574 0.73424 0.6662 0.0
H1431 H 0.10811 0.75647 0.63791 0.0
H1432 H 0.06784 0.77586 0.54677 0.0
H1433 H 0.02985 0.73738 0.52753 0.0
H1434 H 0.05243 0.69138 0.56097 0.0
H1435 H 0.09051 0.73004 0.57984 0.0
H1436 H 0.11273 0.81917 0.52685 0.0
H1437 H 0.10363 0.80963 0.48036 0.0
H1438 H 0.11206 0.74565 0.48189 0.0
H1439 H 0.1209 0.75529 0.5287 0.0
H1440 H 0.15677 0.86316 0.55853 0.0
H1441 H 0.18474 0.88848 0.52795 0.0
H1442 H 0.20067 0.83022 0.51008 0.0
H1443 H 0.17332 0.80549 0.54149 0.0
O1444 O 0.1382 0.84684 0.73499 0.0
O1445 O 0.16713 0.83788 0.73474 0.0
O1446 O 0.00044 0.68929 0.51724 0.0
O1447 O 0.01071 0.66475 0.53481 0.0
C1448 C 0.14931 0.82407 0.59647 0.0
C1449 C 0.13187 0.80881 0.61282 0.0
C1450 C 0.10973 0.7865 0.60232 0.0
C1451 C 0.10534 0.77906 0.57555 0.0
C1452 C 0.12301 0.79415 0.55928 0.0
C1453 C 0.14507 0.81655 0.56974 0.0
C1454 C 0.17071 0.84932 0.607 0.0
C1455 C 0.16703 0.86859 0.61641 0.0
C1456 C 0.18695 0.89293 0.62492 0.0
C1457 C 0.21094 0.89848 0.62403 0.0
C1458 C 0.21457 0.87901 0.61485 0.0
C1459 C 0.19456 0.85457 0.60639 0.0
C1460 C 0.13675 0.81649 0.641 0.0
C1461 C 0.12341 0.82506 0.65394 0.0
C1462 C 0.1281 0.83226 0.68044 0.0
C1463 C 0.14632 0.83114 0.69443 0.0
C1464 C 0.15977 0.8227 0.68131 0.0
C1465 C 0.15502 0.81546 0.65482 0.0
C1466 C 0.09011 0.77244 0.61908 0.0
C1467 C 0.06958 0.77444 0.61793 0.0
C1468 C 0.05131 0.76213 0.63418 0.0
C1469 C 0.05318 0.74746 0.65183 0.0
C1470 C 0.07391 0.74563 0.65303 0.0
C1471 C 0.09227 0.75807 0.63676 0.0
C1472 C 0.08199 0.7557 0.5645 0.0
C1473 C 0.06458 0.75745 0.54982 0.0
C1474 C 0.04288 0.73545 0.53891 0.0
C1475 C 0.03815 0.71128 0.54263 0.0
C1476 C 0.05552 0.70966 0.55768 0.0
C1477 C 0.07726 0.7317 0.56851 0.0
C1478 C 0.11751 0.78795 0.53105 0.0
C1479 C 0.11275 0.80319 0.5171 0.0
C1480 C 0.10774 0.79781 0.49054 0.0
C1481 C 0.10732 0.77701 0.4774 0.0
C1482 C 0.11211 0.76172 0.49149 0.0
C1483 C 0.11717 0.76717 0.51815 0.0
C1484 C 0.16318 0.83261 0.55235 0.0
C1485 C 0.16664 0.8561 0.54832 0.0
C1486 C 0.18239 0.87038 0.53063 0.0
C1487 C 0.19482 0.86129 0.51645 0.0
C1488 C 0.1916 0.83789 0.52088 0.0
C1489 C 0.17591 0.82369 0.53869 0.0
C1490 C 0.15125 0.8388 0.72259 0.0
C1491 C 0.01526 0.68785 0.53079 0.0
H1492 H 0.2127 0.34496 0.76792 0.0
H1493 H 0.03194 0.34972 0.57836 0.0
H1494 H 0.2334 0.37947 0.64167 0.0
H1495 H 0.25963 0.36515 0.65712 0.0
H1496 H 0.21526 0.29403 0.60786 0.0
H1497 H 0.18886 0.30828 0.59286 0.0
H1498 H 0.19469 0.382 0.67662 0.0
H1499 H 0.20446 0.37354 0.71847 0.0
H1500 H 0.17844 0.29635 0.6866 0.0
H1501 H 0.16843 0.30498 0.64497 0.0
H1502 H 0.15017 0.38749 0.65692 0.0
H1503 H 0.11805 0.37805 0.68555 0.0
H1504 H 0.09161 0.29802 0.67106 0.0
H1505 H 0.12398 0.30776 0.64305 0.0
H1506 H 0.15258 0.40225 0.59925 0.0
H1507 H 0.1178 0.40687 0.59089 0.0
H1508 H 0.06825 0.32567 0.58951 0.0
H1509 H 0.10319 0.32134 0.59762 0.0
H1510 H 0.18612 0.40389 0.56169 0.0
H1511 H 0.17448 0.40935 0.51878 0.0
H1512 H 0.11913 0.32908 0.50531 0.0
H1513 H 0.13047 0.32391 0.54821 0.0
H1514 H 0.23001 0.39165 0.57542 0.0
H1515 H 0.24949 0.39 0.53663 0.0
H1516 H 0.1866 0.31474 0.51107 0.0
H1517 H 0.16792 0.31632 0.55008 0.0
O1518 O 0.20844 0.34781 0.75128 0.0
O1519 O 0.19503 0.30839 0.7339 0.0
O1520 O 0.07225 0.39011 0.58261 0.0
O1521 O 0.04601 0.34847 0.58174 0.0
C1522 C 0.19015 0.35081 0.61192 0.0
C1523 C 0.17595 0.34975 0.63221 0.0
C1524 C 0.15638 0.35324 0.62804 0.0
C1525 C 0.15148 0.35873 0.60392 0.0
C1526 C 0.16574 0.35999 0.58376 0.0
C1527 C 0.18478 0.35558 0.5876 0.0
C1528 C 0.20929 0.34495 0.6161 0.0
C1529 C 0.22978 0.3611 0.6337 0.0
C1530 C 0.24454 0.3528 0.64268 0.0
C1531 C 0.23923 0.32836 0.63391 0.0
C1532 C 0.2198 0.31298 0.61485 0.0
C1533 C 0.20484 0.32118 0.60611 0.0
C1534 C 0.18104 0.34417 0.65776 0.0
C1535 C 0.191 0.36325 0.67878 0.0
C1536 C 0.19662 0.35837 0.70263 0.0
C1537 C 0.19233 0.33429 0.70586 0.0
C1538 C 0.18205 0.31512 0.68476 0.0
C1539 C 0.17636 0.32 0.66096 0.0
C1540 C 0.13927 0.34829 0.64794 0.0
C1541 C 0.1377 0.36802 0.66041 0.0
C1542 C 0.11931 0.36256 0.67662 0.0
C1543 C 0.10218 0.33725 0.68045 0.0
C1544 C 0.10468 0.31773 0.66886 0.0
C1545 C 0.12308 0.32322 0.65274 0.0
C1546 C 0.13035 0.3615 0.59915 0.0
C1547 C 0.13419 0.38552 0.59713 0.0
C1548 C 0.1143 0.38808 0.59237 0.0
C1549 C 0.09023 0.36662 0.58956 0.0
C1550 C 0.08652 0.34258 0.5916 0.0
C1551 C 0.10642 0.34005 0.5963 0.0
C1552 C 0.15914 0.36351 0.55789 0.0
C1553 C 0.1715 0.38756 0.54939 0.0
C1554 C 0.16484 0.39064 0.52503 0.0
C1555 C 0.14606 0.36959 0.50877 0.0
C1556 C 0.13388 0.34553 0.51737 0.0
C1557 C 0.14023 0.34256 0.54181 0.0
C1558 C 0.19765 0.35407 0.56548 0.0
C1559 C 0.22072 0.37473 0.56154 0.0
C1560 C 0.23165 0.37383 0.53929 0.0
C1561 C 0.21959 0.35224 0.52073 0.0
C1562 C 0.1966 0.33149 0.5251 0.0
C1563 C 0.18581 0.33238 0.5473 0.0
C1564 C 0.19863 0.32928 0.73113 0.0
C1565 C 0.06903 0.36922 0.58444 0.0
C1566 C 0.00472 0.40333 0.09608 0.0
C1567 C 0.99479 0.40483 0.07263 0.0
H1568 H 0.01066 0.41334 0.1367 0.0
C1569 C 0.98207 0.41735 0.07268 0.0
H1570 H 0.01443 0.39363 0.09681 0.0
C1571 C 0.97992 0.42872 0.09575 0.0
C1572 C 0.99063 0.42788 0.11901 0.0
H1573 H 0.97413 0.41872 0.05492 0.0
H1574 H 0.9705 0.43874 0.09535 0.0
C1575 C 0.00268 0.41472 0.11896 0.0
C1576 C 0.6011 0.58033 0.16588 0.0
C1577 C 0.59822 0.56961 0.14035 0.0
H1578 H 0.5876 0.57492 0.20292 0.0
C1579 C 0.57972 0.54395 0.1331 0.0
H1580 H 0.61517 0.60004 0.17211 0.0
C1581 C 0.56403 0.52954 0.15086 0.0
C1582 C 0.56638 0.5406 0.17609 0.0
H1583 H 0.57704 0.53515 0.11359 0.0
H1584 H 0.54951 0.51001 0.14461 0.0
C1585 C 0.58525 0.56602 0.18351 0.0
C1586 C 0.44827 0.99585 0.09543 0.0
C1587 C 0.44367 0.01454 0.08961 0.0
H1588 H 0.45929 0.98092 0.12432 0.0
C1589 C 0.44861 0.03404 0.10903 0.0
H1590 H 0.44487 0.98067 0.0809 0.0
C1591 C 0.4568 0.03409 0.13404 0.0
C1592 C 0.46014 0.01461 0.14008 0.0
H1593 H 0.44527 0.04872 0.10518 0.0
H1594 H 0.45949 0.04874 0.14885 0.0
C1595 C 0.45639 0.99588 0.12036 0.0
C1596 C 0.40554 0.96516 0.94015 0.0
C1597 C 0.41699 0.9874 0.9578 0.0
H1598 H 0.40601 0.94733 0.90363 0.0
C1599 C 0.43863 0.00896 0.95192 0.0
H1600 H 0.38879 0.94824 0.94406 0.0
C1601 C 0.44851 0.0084 0.92889 0.0
C1602 C 0.43696 0.9863 0.91106 0.0
H1603 H 0.44802 0.02638 0.96512 0.0
H1604 H 0.46543 0.02526 0.92521 0.0
C1605 C 0.41542 0.96462 0.91701 0.0
C1606 C 0.01157 0.39391 0.92669 0.0
C1607 C 0.02452 0.40376 0.95114 0.0
H1608 H -0.00109 0.40153 0.89257 0.0
C1609 C 0.03654 0.43004 0.95903 0.0
H1610 H 0.00216 0.37379 0.91997 0.0
C1611 C 0.0347 0.44593 0.94324 0.0
C1612 C 0.02062 0.43577 0.91942 0.0
H1613 H 0.04669 0.43821 0.97774 0.0
H1614 H 0.0434 0.46595 0.95012 0.0
C1615 C 0.00955 0.40974 0.91105 0.0
C1616 C 0.5539 0.56522 0.99352 0.0
C1617 C 0.5787 0.57703 0.00243 0.0
H1618 H 0.52739 0.55074 0.96085 0.0
C1619 C 0.59609 0.58382 0.98445 0.0
H1620 H 0.54005 0.55974 0.00686 0.0
C1621 C 0.58888 0.57884 0.95819 0.0
C1622 C 0.56409 0.56692 0.94922 0.0
H1623 H 0.61538 0.59309 0.9906 0.0
H1624 H 0.6028 0.58457 0.94491 0.0
C1625 C 0.54667 0.56022 0.96717 0.0
C1626 C 0.00801 0.5625 0.01092 0.0
C1627 C 0.01259 0.58722 0.01243 0.0
H1628 H 0.00678 0.53197 0.98754 0.0
C1629 C 0.02184 0.60111 0.99157 0.0
H1630 H 0.0011 0.55136 0.02674 0.0
C1631 C 0.02509 0.58996 0.96912 0.0
C1632 C 0.01915 0.56472 0.9671 0.0
H1633 H 0.02561 0.62023 0.99214 0.0
H1634 H 0.03098 0.60065 0.95287 0.0
C1635 C 0.01123 0.55135 0.98847 0.0
C1636 C 0.41587 0.43965 0.93287 0.0
C1637 C 0.42819 0.43626 0.95306 0.0
H1638 H 0.41856 0.45506 0.89749 0.0
C1639 C 0.45366 0.44788 0.95392 0.0
H1640 H 0.3962 0.43081 0.93172 0.0
C1641 C 0.46653 0.46217 0.93467 0.0
C1642 C 0.45417 0.46478 0.91384 0.0
H1643 H 0.46368 0.44586 0.96945 0.0
H1644 H 0.4862 0.47106 0.93609 0.0
C1645 C 0.42871 0.45364 0.91334 0.0
C1646 C 0.5743 0.02463 0.97434 0.0
C1647 C 0.56781 0.0034 0.98708 0.0
H1648 H 0.56944 0.03843 0.94047 0.0
C1649 C 0.54924 0.97915 0.97536 0.0
H1650 H 0.58864 0.04359 0.98271 0.0
C1651 C 0.53781 0.9762 0.95109 0.0
C1652 C 0.54487 0.99743 0.93802 0.0
H1653 H 0.54378 0.96243 0.98476 0.0
H1654 H 0.52359 0.95729 0.94252 0.0
C1655 C 0.56312 0.02168 0.95008 0.0
C1656 C 0.5788 0.04216 0.12621 0.0
C1657 C 0.58445 0.02412 0.11753 0.0
H1658 H 0.56329 0.05422 0.15519 0.0
C1659 C 0.58024 0.00515 0.13295 0.0
H1660 H 0.58188 0.05704 0.11483 0.0
C1661 C 0.5696 0.00353 0.15589 0.0
C1662 C 0.56308 0.02093 0.16408 0.0
H1663 H 0.58454 0.99104 0.12701 0.0
H1664 H 0.56609 0.98836 0.16706 0.0
C1665 C 0.56827 0.04063 0.14935 0.0
C1666 C 0.01735 0.60099 0.14328 0.0
C1667 C -0.00207 0.59526 0.12544 0.0
H1668 H 0.0301 0.58856 0.17315 0.0
C1669 C 0.97547 0.57202 0.12502 0.0
H1670 H 0.03483 0.61883 0.1443 0.0
C1671 C 0.97283 0.55448 0.14152 0.0
C1672 C 0.9926 0.5599 0.1587 0.0
H1673 H 0.96018 0.56704 0.11146 0.0
H1674 H 0.95558 0.53638 0.14026 0.0
C1675 C 0.0147 0.58355 0.15972 0.0
C1676 C 0.44588 0.45202 0.07823 0.0
C1677 C 0.42771 0.4269 0.06849 0.0
H1678 H 0.46988 0.47748 0.11064 0.0
C1679 C 0.42092 0.40754 0.08417 0.0
H1680 H 0.45171 0.4673 0.06648 0.0
C1681 C 0.431 0.41341 0.10961 0.0
C1682 C 0.44829 0.43873 0.11981 0.0
H1683 H 0.40693 0.38797 0.07723 0.0
H1684 H 0.42427 0.39822 0.12158 0.0
C1685 C 0.45618 0.45786 0.10357 0.0
C1686 C 0.68145 0.78204 0.42752 0.0
C1687 C 0.66637 0.75589 0.419 0.0
H1688 H 0.68944 0.81257 0.45621 0.0
C1689 C 0.64617 0.74063 0.43244 0.0
H1690 H 0.69704 0.79437 0.4175 0.0
C1691 C 0.64181 0.75111 0.45461 0.0
C1692 C 0.65762 0.77701 0.4638 0.0
H1693 H 0.63414 0.72043 0.42629 0.0
H1694 H 0.62673 0.73871 0.4652 0.0
C1695 C 0.67715 0.79247 0.44972 0.0
C1696 C 0.21771 0.90159 0.46191 0.0
C1697 C 0.24026 0.90389 0.459 0.0
H1698 H 0.18559 0.88605 0.48195 0.0
C1699 C 0.24769 0.89181 0.47493 0.0
H1700 H 0.21136 0.91053 0.44985 0.0
C1701 C 0.23298 0.87795 0.49357 0.0
C1702 C 0.21052 0.87586 0.49663 0.0
H1703 H 0.265 0.89329 0.47321 0.0
H1704 H 0.23938 0.86922 0.50587 0.0
C1705 C 0.203 0.8877 0.48046 0.0
C1706 C 0.12633 0.35652 0.43779 0.0
C1707 C 0.11861 0.37344 0.43498 0.0
H1708 H 0.14106 0.34209 0.46345 0.0
C1709 C 0.12218 0.39078 0.4562 0.0
H1710 H 0.12392 0.34294 0.42185 0.0
C1711 C 0.13225 0.3904 0.48 0.0
C1712 C 0.1386 0.37246 0.48304 0.0
H1713 H 0.11651 0.40411 0.45463 0.0
H1714 H 0.13399 0.4033 0.4963 0.0
C1715 C 0.13605 0.35592 0.46161 0.0
C1716 C 0.11117 0.32938 0.28699 0.0
C1717 C 0.08794 0.30984 0.29236 0.0
H1718 H 0.13833 0.34291 0.26043 0.0
C1719 C 0.07411 0.28827 0.27408 0.0
H1720 H 0.1224 0.34617 0.30072 0.0
C1721 C 0.08316 0.28655 0.2507 0.0
C1722 C 0.10623 0.30636 0.24518 0.0
H1723 H 0.0561 0.27293 0.27761 0.0
H1724 H 0.07192 0.26995 0.23676 0.0
C1725 C 0.12022 0.32761 0.26375 0.0
C1726 C 0.68624 0.75279 0.28956 0.0
C1727 C 0.66548 0.74274 0.30332 0.0
H1728 H 0.70385 0.77301 0.25813 0.0
C1729 C 0.64645 0.74605 0.29585 0.0
H1730 H 0.70118 0.75047 0.29483 0.0
C1731 C 0.64805 0.75908 0.27509 0.0
C1732 C 0.66866 0.76898 0.26111 0.0
H1733 H 0.63028 0.73872 0.30616 0.0
H1734 H 0.63324 0.76173 0.27027 0.0
C1735 C 0.68779 0.76576 0.26861 0.0
C1736 C 0.24896 0.88756 0.32186 0.0
C1737 C 0.25547 0.90995 0.33763 0.0
H1738 H 0.23529 0.86629 0.28456 0.0
C1739 C 0.25193 0.92797 0.3275 0.0
H1740 H 0.25129 0.87321 0.32909 0.0
C1741 C 0.24284 0.92403 0.30187 0.0
C1742 C 0.23719 0.90204 0.28588 0.0
H1743 H 0.25677 0.94543 0.33916 0.0
H1744 H 0.24101 0.93858 0.29436 0.0
C1745 C 0.23994 0.88366 0.29628 0.0
C1746 C 0.66176 0.88552 0.34016 0.0
C1747 C 0.66936 0.91131 0.34337 0.0
H1748 H 0.65915 0.85486 0.31551 0.0
C1749 C 0.68218 0.92656 0.3244 0.0
H1750 H 0.65199 0.8733 0.3545 0.0
C1751 C 0.68622 0.916 0.30213 0.0
C1752 C 0.67757 0.88995 0.29831 0.0
H1753 H 0.68838 0.94653 0.32631 0.0
H1754 H 0.69507 0.92803 0.28734 0.0
C1755 C 0.66579 0.87494 0.31781 0.0
C1756 C 0.09871 0.75746 0.25897 0.0
C1757 C 0.08518 0.76359 0.27492 0.0
H1758 H 0.12353 0.76855 0.23006 0.0
C1759 C 0.08662 0.78667 0.2736 0.0
H1760 H 0.09774 0.73965 0.25929 0.0
C1761 C 0.1019 0.80361 0.25708 0.0
C1762 C 0.11581 0.79763 0.24144 0.0
H1763 H 0.07642 0.79191 0.28574 0.0
H1764 H 0.10323 0.82161 0.257 0.0
C1765 C 0.11367 0.77415 0.24232 0.0
C1766 C 0.21732 0.28629 0.30311 0.0
C1767 C 0.21287 0.29948 0.323 0.0
H1768 H 0.21357 0.27526 0.26273 0.0
C1769 C 0.19793 0.30876 0.31727 0.0
H1770 H 0.22873 0.27887 0.30687 0.0
C1771 C 0.18904 0.30646 0.29196 0.0
C1772 C 0.19502 0.29497 0.27182 0.0
H1773 H 0.19393 0.31875 0.33219 0.0
H1774 H 0.17816 0.31447 0.28806 0.0
C1775 C 0.20854 0.28413 0.27777 0.0
C1776 C 0.23733 0.32687 0.46315 0.0
C1777 C 0.24906 0.34804 0.44955 0.0
H1778 H 0.21959 0.31185 0.49649 0.0
C1779 C 0.25184 0.37099 0.45996 0.0
H1780 H 0.23517 0.30898 0.45587 0.0
C1781 C 0.24262 0.37255 0.48327 0.0
C1782 C 0.23058 0.35123 0.49667 0.0
H1783 H 0.26083 0.38763 0.44994 0.0
H1784 H 0.24443 0.39028 0.4905 0.0
C1785 C 0.22832 0.32849 0.48645 0.0
C1786 C 0.67749 0.9374 0.48032 0.0
C1787 C 0.65872 0.92945 0.4607 0.0
H1788 H 0.68954 0.92855 0.51385 0.0
C1789 C 0.63662 0.90596 0.46082 0.0
H1790 H 0.69464 0.95552 0.48098 0.0
C1791 C 0.63378 0.89029 0.47962 0.0
C1792 C 0.65298 0.89788 0.49867 0.0
H1793 H 0.62183 0.89929 0.44592 0.0
H1794 H 0.61692 0.87188 0.4787 0.0
C1795 C 0.67462 0.92186 0.4991 0.0
C1796 C 0.07622 0.73982 0.41235 0.0
C1797 C 0.08397 0.75938 0.39669 0.0
H1798 H 0.07731 0.73009 0.45013 0.0
C1799 C 0.10112 0.78456 0.40732 0.0
H1800 H 0.06305 0.72019 0.40474 0.0
C1801 C 0.10946 0.79019 0.43334 0.0
C1802 C 0.10077 0.77076 0.44927 0.0
H1803 H 0.10762 0.80002 0.39572 0.0
H1804 H 0.12237 0.80983 0.4411 0.0
C1805 C 0.0845 0.74546 0.43836 0.0
C1806 C 0.30013 0.08552 0.74423 0.0
C1807 C 0.31077 0.0709 0.74342 0.0
H1808 H 0.28945 0.10706 0.76808 0.0
C1809 C 0.31758 0.06561 0.76657 0.0
H1810 H 0.29461 0.08982 0.72671 0.0
C1811 C 0.31468 0.07543 0.78998 0.0
C1812 C 0.30485 0.09073 0.79087 0.0
H1813 H 0.3256 0.05421 0.76671 0.0
H1814 H 0.32038 0.07124 0.80749 0.0
C1815 C 0.2971 0.09529 0.76783 0.0
C1816 C 0.94138 0.24726 0.83012 0.0
C1817 C 0.93918 0.23761 0.80433 0.0
H1818 H 0.92665 0.24014 0.86651 0.0
C1819 C 0.92099 0.21206 0.79598 0.0
H1820 H 0.95519 0.26685 0.83716 0.0
C1821 C 0.90477 0.19675 0.81287 0.0
C1822 C 0.90627 0.2068 0.83831 0.0
H1823 H 0.91888 0.20407 0.77624 0.0
H1824 H 0.89042 0.17737 0.80576 0.0
C1825 C 0.92498 0.23204 0.8469 0.0
C1826 C 0.75455 0.64911 0.77573 0.0
C1827 C 0.76308 0.67034 0.76237 0.0
H1828 H 0.75781 0.63473 0.80988 0.0
C1829 C 0.78301 0.69398 0.77374 0.0
H1830 H 0.73904 0.63066 0.76772 0.0
C1831 C 0.79419 0.69626 0.79798 0.0
C1832 C 0.78551 0.67497 0.8114 0.0
H1833 H 0.79 0.71069 0.76389 0.0
H1834 H 0.80973 0.71463 0.80609 0.0
C1835 C 0.76547 0.65143 0.79995 0.0
C1836 C 0.75989 0.63408 0.62336 0.0
C1837 C 0.75367 0.65206 0.62997 0.0
H1838 H 0.77412 0.61949 0.59553 0.0
C1839 C 0.75578 0.66844 0.61213 0.0
H1840 H 0.7585 0.62124 0.63672 0.0
C1841 C 0.76424 0.66711 0.58835 0.0
C1842 C 0.77109 0.64959 0.5819 0.0
H1843 H 0.75083 0.6823 0.6165 0.0
H1844 H 0.76543 0.67989 0.57502 0.0
C1845 C 0.76865 0.63295 0.59964 0.0
C1846 C 0.34863 0.06405 0.59484 0.0
C1847 C 0.35474 0.07301 0.62115 0.0
H1848 H 0.34651 0.07311 0.55684 0.0
C1849 C 0.36496 0.099 0.62912 0.0
H1850 H 0.34073 0.04413 0.58809 0.0
C1851 C 0.36837 0.11557 0.61122 0.0
C1852 C 0.36143 0.10643 0.58503 0.0
H1853 H 0.3699 0.1065 0.64925 0.0
H1854 H 0.37563 0.13536 0.61798 0.0
C1855 C 0.35181 0.08058 0.57696 0.0
C1856 C 0.89254 0.23914 0.65967 0.0
C1857 C 0.91727 0.24974 0.6681 0.0
H1858 H 0.86551 0.22458 0.62748 0.0
C1859 C 0.93408 0.2547 0.64977 0.0
H1860 H 0.87916 0.23511 0.67333 0.0
C1861 C 0.92637 0.24904 0.62366 0.0
C1862 C 0.90161 0.23804 0.61513 0.0
H1863 H 0.95333 0.26316 0.65557 0.0
H1864 H 0.93993 0.25348 0.61012 0.0
C1865 C 0.88477 0.23327 0.63342 0.0
C1866 C 0.35463 0.26035 0.65624 0.0
C1867 C 0.33987 0.24377 0.67341 0.0
H1868 H 0.37191 0.26438 0.62153 0.0
C1869 C 0.33291 0.21818 0.66945 0.0
H1870 H 0.36031 0.28017 0.65872 0.0
C1871 C 0.33977 0.20916 0.6482 0.0
C1872 C 0.35376 0.22555 0.63051 0.0
H1873 H 0.32167 0.20495 0.68242 0.0
H1874 H 0.33375 0.18925 0.64536 0.0
C1875 C 0.36147 0.25134 0.63501 0.0
C1876 C 0.75474 0.12245 0.60252 0.0
C1877 C 0.75231 0.09928 0.60626 0.0
H1878 H 0.7719 0.15529 0.58253 0.0
C1879 C 0.7647 0.09082 0.59121 0.0
H1880 H 0.74544 0.12949 0.61387 0.0
C1881 C 0.77958 0.10539 0.57315 0.0
C1882 C 0.78261 0.1289 0.56983 0.0
H1883 H 0.76301 0.07291 0.59342 0.0
H1884 H 0.78873 0.09819 0.56178 0.0
C1885 C 0.7698 0.13716 0.5845 0.0
C1886 C 0.88377 0.60862 0.61956 0.0
C1887 C 0.88129 0.61903 0.64318 0.0
H1888 H 0.87655 0.6031 0.57878 0.0
C1889 C 0.86653 0.62926 0.64367 0.0
H1890 H 0.89494 0.6005 0.61852 0.0
C1891 C 0.85585 0.63063 0.62082 0.0
C1892 C 0.85968 0.62172 0.59708 0.0
H1893 H 0.86412 0.63729 0.66158 0.0
H1894 H 0.84527 0.63943 0.62168 0.0
C1895 C 0.87309 0.60997 0.59675 0.0
C1896 C 0.90946 0.66439 0.79986 0.0
C1897 C 0.9055 0.67593 0.78009 0.0
H1898 H 0.90548 0.65719 0.83898 0.0
C1899 C 0.89522 0.69053 0.78554 0.0
H1900 H 0.91759 0.65323 0.7964 0.0
C1901 C 0.88816 0.69268 0.81001 0.0
C1902 C 0.89131 0.68034 0.82949 0.0
H1903 H 0.89195 0.69967 0.77074 0.0
H1904 H 0.87937 0.7032 0.81336 0.0
C1905 C 0.90247 0.66658 0.82427 0.0
C1906 C 0.33938 0.25772 0.80693 0.0
C1907 C 0.32094 0.25189 0.78771 0.0
H1908 H 0.34963 0.24646 0.83979 0.0
C1909 C 0.2977 0.22967 0.78771 0.0
H1910 H 0.3574 0.27485 0.80768 0.0
C1911 C 0.2933 0.21316 0.8061 0.0
C1912 C 0.31206 0.21864 0.8248 0.0
H1913 H 0.28312 0.22467 0.77313 0.0
H1914 H 0.27548 0.19574 0.80516 0.0
C1915 C 0.33497 0.24136 0.82528 0.0
C1916 C 0.75188 0.09755 0.74768 0.0
C1917 C 0.75644 0.08216 0.73079 0.0
H1918 H 0.75824 0.11671 0.78536 0.0
C1919 C 0.77273 0.07539 0.73942 0.0
H1920 H 0.73929 0.10298 0.74178 0.0
C1921 C 0.78401 0.08367 0.76458 0.0
C1922 C 0.77911 0.09879 0.78155 0.0
H1923 H 0.77665 0.06358 0.72685 0.0
H1924 H 0.79652 0.07823 0.77072 0.0
C1925 C 0.76294 0.10562 0.77272 0.0
C1926 C 0.07924 0.35407 0.05675 0.0
C1927 C 0.05467 0.34244 0.06188 0.0
H1928 H 0.11357 0.35768 0.06523 0.0
C1929 C 0.04581 0.32488 0.07987 0.0
H1930 H 0.08658 0.36759 0.04293 0.0
C1931 C 0.06125 0.31927 0.09267 0.0
C1932 C 0.0859 0.33118 0.08783 0.0
H1933 H 0.02694 0.31555 0.08425 0.0
H1934 H 0.05402 0.30597 0.1067 0.0
C1935 C 0.09472 0.34852 0.06963 0.0
C1936 C 0.64004 0.68366 0.11362 0.0
C1937 C 0.62634 0.67344 0.08954 0.0
H1938 H 0.6571 0.71512 0.14344 0.0
C1939 C 0.61905 0.68766 0.07709 0.0
H1940 H 0.64596 0.67319 0.12374 0.0
C1941 C 0.62551 0.71171 0.0884 0.0
C1942 C 0.63948 0.72203 0.11231 0.0
H1943 H 0.60855 0.68035 0.0585 0.0
H1944 H 0.61995 0.72244 0.07822 0.0
C1945 C 0.6466 0.70775 0.12485 0.0
C1946 C 0.30554 0.94181 0.02571 0.0
C1947 C 0.32869 0.95888 0.03902 0.0
H1948 H 0.26702 0.91664 0.02861 0.0
C1949 C 0.33071 0.96332 0.06595 0.0
H1950 H 0.30346 0.93808 0.00497 0.0
C1951 C 0.30995 0.95165 0.07923 0.0
C1952 C 0.28686 0.93495 0.06591 0.0
H1953 H 0.34824 0.97649 0.07679 0.0
H1954 H 0.31189 0.95568 0.09995 0.0
C1955 C 0.28476 0.92966 0.03913 0.0
C1956 C 0.35213 0.04374 0.97454 0.0
C1957 C 0.3692 0.05224 0.9961 0.0
H1958 H 0.32626 0.04845 0.9536 0.0
C1959 C 0.3727 0.07234 0.01381 0.0
H1960 H 0.34886 0.02818 0.96062 0.0
C1961 C 0.35967 0.08399 0.00973 0.0
C1962 C 0.34262 0.0754 0.98815 0.0
H1963 H 0.38565 0.07922 0.03066 0.0
H1964 H 0.36296 0.09976 0.02335 0.0
C1965 C 0.33891 0.0551 0.97069 0.0
C1966 C 0.9548 0.28674 0.97944 0.0
C1967 C 0.95138 0.29809 0.00185 0.0
H1968 H 0.93899 0.25468 0.95032 0.0
C1969 C 0.92896 0.28491 0.01255 0.0
H1970 H 0.9719 0.29639 0.97076 0.0
C1971 C 0.9102 0.26104 0.00086 0.0
C1972 C 0.91352 0.24984 0.9783 0.0
H1973 H 0.92581 0.29307 0.02986 0.0
H1974 H 0.89306 0.2513 0.00948 0.0
C1975 C 0.93605 0.26279 0.96782 0.0
C1976 C 0.71397 0.66614 0.04713 0.0
C1977 C 0.69852 0.64192 0.05467 0.0
H1978 H 0.74565 0.69013 0.02838 0.0
C1979 C 0.70532 0.62401 0.05165 0.0
H1980 H 0.70935 0.68044 0.04937 0.0
C1981 C 0.7263 0.62966 0.0397 0.0
C1982 C 0.74087 0.65334 0.03067 0.0
H1983 H 0.69386 0.60523 0.05741 0.0
H1984 H 0.73067 0.6152 0.03673 0.0
C1985 C 0.73492 0.67179 0.03526 0.0
C1986 C 0.9339 0.62283 0.98436 0.0
C1987 C 0.94377 0.63295 0.0099 0.0
H1988 H 0.91236 0.62206 0.95203 0.0
C1989 C 0.93911 0.6505 0.02256 0.0
H1990 H 0.93722 0.60935 0.97403 0.0
C1991 C 0.92508 0.65794 0.00986 0.0
C1992 C 0.91526 0.64784 0.98431 0.0
H1993 H 0.94654 0.65874 0.0422 0.0
H1994 H 0.92161 0.67133 0.02014 0.0
C1995 C 0.91969 0.63011 0.97174 0.0
C1996 C 0.34593 0.30555 0.96021 0.0
C1997 C 0.34172 0.30984 0.98565 0.0
H1998 H 0.341 0.27824 0.92923 0.0
C1999 C 0.32807 0.28893 0.99917 0.0
H2000 H 0.35616 0.32123 0.94918 0.0
C2001 C 0.31942 0.26428 0.98772 0.0
C2002 C 0.32426 0.26011 0.96254 0.0
H2003 H 0.32444 0.29162 0.01877 0.0
H2004 H 0.30966 0.24859 0.99886 0.0
C2005 C 0.33728 0.28094 0.94878 0.0
C2006 C 0.68231 0.04208 0.01879 0.0
C2007 C 0.67403 0.05745 0.02903 0.0
H2008 H 0.7073 0.03919 0.99546 0.0
C2009 C 0.68629 0.08301 0.02461 0.0
H2010 H 0.67334 0.02232 0.022 0.0
C2011 C 0.70583 0.09267 0.00929 0.0
C2012 C 0.71353 0.07699 0.99839 0.0
H2013 H 0.68032 0.09528 0.03226 0.0
H2014 H 0.71477 0.11233 0.00577 0.0
C2015 C 0.70187 0.05175 0.0037 0.0
C2016 C 0.61666 0.92941 0.07163 0.0
C2017 C 0.63389 0.95571 0.07595 0.0
H2018 H 0.60857 0.89231 0.07743 0.0
C2019 C 0.65728 0.96469 0.08787 0.0
H2020 H 0.59854 0.92196 0.06237 0.0
C2021 C 0.66303 0.94781 0.0963 0.0
C2022 C 0.64546 0.92161 0.09312 0.0
H2023 H 0.67104 0.98486 0.09127 0.0
H2024 H 0.68087 0.95538 0.10638 0.0
C2025 C 0.62237 0.91249 0.08027 0.0
C2026 C 0.05532 0.71492 0.10582 0.0
C2027 C 0.04548 0.71217 0.08064 0.0
H2028 H 0.08134 0.74013 0.1371 0.0
C2029 C 0.05429 0.73384 0.06791 0.0
H2030 H 0.04874 0.69865 0.11629 0.0
C2031 C 0.07315 0.75765 0.07983 0.0
C2032 C 0.08347 0.76023 0.10473 0.0
H2033 H 0.04704 0.73234 0.04852 0.0
H2034 H 0.0802 0.77386 0.06921 0.0
C2035 C 0.07404 0.73868 0.11774 0.0
C2036 C 0.31173 0.37706 0.04881 0.0
C2037 C 0.30633 0.36889 0.02232 0.0
H2038 H 0.29825 0.37375 0.08558 0.0
C2039 C 0.28179 0.35223 0.01242 0.0
H2040 H 0.33045 0.38971 0.05715 0.0
C2041 C 0.26312 0.34333 0.02883 0.0
C2042 C 0.26866 0.3507 0.05548 0.0
H2043 H 0.27705 0.34562 0.99209 0.0
H2044 H 0.24438 0.33052 0.02063 0.0
C2045 C 0.29318 0.36792 0.06518 0.0
C2046 C 0.72274 0.66346 0.38318 0.0
C2047 C 0.72037 0.68429 0.38951 0.0
H2048 H 0.73941 0.64331 0.3934 0.0
C2049 C 0.7335 0.70108 0.41189 0.0
H2050 H 0.71292 0.65019 0.36606 0.0
C2051 C 0.74846 0.69694 0.42775 0.0
C2052 C 0.7506 0.67593 0.42155 0.0
H2053 H 0.73197 0.71724 0.41739 0.0
H2054 H 0.75811 0.71 0.44503 0.0
C2055 C 0.73771 0.65934 0.39901 0.0
C2056 C 0.327 0.04127 0.40588 0.0
C2057 C 0.3262 0.0238 0.4215 0.0
H2058 H 0.33491 0.07899 0.40421 0.0
C2059 C 0.33471 0.03187 0.44763 0.0
H2060 H 0.3206 0.03559 0.38568 0.0
C2061 C 0.34331 0.05681 0.45807 0.0
C2062 C 0.34313 0.07389 0.44263 0.0
H2063 H 0.33449 0.01884 0.46006 0.0
H2064 H 0.34919 0.06246 0.47839 0.0
C2065 C 0.33517 0.06604 0.41643 0.0
C2066 C 0.98019 0.27301 0.35905 0.0
C2067 C 0.0028 0.29093 0.37294 0.0
H2068 H 0.94172 0.24658 0.36084 0.0
C2069 C 0.00384 0.29615 0.39967 0.0
H2070 H 0.97892 0.26869 0.33844 0.0
C2071 C 0.98262 0.28409 0.41222 0.0
C2072 C 0.96011 0.26624 0.39835 0.0
H2073 H 0.02096 0.31004 0.41086 0.0
H2074 H 0.98379 0.28854 0.43281 0.0
C2075 C 0.959 0.26047 0.37176 0.0
C2076 C 0.05513 0.40508 0.34279 0.0
C2077 C 0.05082 0.38423 0.3257 0.0
H2078 H 0.04764 0.43446 0.35065 0.0
C2079 C 0.03493 0.37671 0.3033 0.0
H2080 H 0.06723 0.41124 0.36024 0.0
C2081 C 0.02348 0.38964 0.29812 0.0
C2082 C 0.02784 0.41052 0.31509 0.0
H2083 H 0.03112 0.36067 0.28978 0.0
H2084 H 0.01162 0.38363 0.2805 0.0
C2085 C 0.04388 0.41827 0.3374 0.0
C2086 C 0.61425 0.62041 0.32581 0.0
C2087 C 0.61043 0.62989 0.34924 0.0
H2088 H 0.59932 0.59003 0.29488 0.0
C2089 C 0.58844 0.61484 0.36015 0.0
H2090 H 0.6311 0.63151 0.31701 0.0
C2091 C 0.57026 0.59117 0.3474 0.0
C2092 C 0.57387 0.58202 0.32367 0.0
H2093 H 0.58501 0.6216 0.37821 0.0
H2094 H 0.55325 0.5801 0.35594 0.0
C2095 C 0.59618 0.59662 0.31321 0.0
C2096 C 0.3617 0.9434 0.37402 0.0
C2097 C 0.36616 0.96058 0.39574 0.0
H2098 H 0.37578 0.93551 0.34074 0.0
C2099 C 0.38985 0.98222 0.40193 0.0
H2100 H 0.34366 0.92653 0.36872 0.0
C2101 C 0.40827 0.98737 0.38585 0.0
C2102 C 0.4034 0.9709 0.36336 0.0
H2103 H 0.39393 0.9958 0.41858 0.0
H2104 H 0.42618 0.00455 0.39069 0.0
C2105 C 0.38013 0.94851 0.358 0.0
C2106 C 0.61328 0.97273 0.31242 0.0
C2107 C 0.61387 0.97244 0.33915 0.0
H2108 H 0.5981 0.9791 0.27918 0.0
C2109 C 0.59899 0.97835 0.35297 0.0
H2110 H 0.62451 0.9682 0.30126 0.0
C2111 C 0.58424 0.98499 0.34036 0.0
C2112 C 0.58383 0.98545 0.31369 0.0
H2113 H 0.59912 0.97837 0.37358 0.0
H2114 H 0.57298 0.98956 0.35143 0.0
C2115 C 0.59821 0.97895 0.29977 0.0
C2116 C 0.01024 0.6357 0.29333 0.0
C2117 C 0.03256 0.65149 0.30862 0.0
H2118 H 0.98556 0.59902 0.27214 0.0
C2119 C 0.04734 0.64202 0.31421 0.0
H2120 H -0.0016 0.64245 0.28881 0.0
C2121 C 0.04001 0.61727 0.30461 0.0
C2122 C 0.01767 0.60147 0.28944 0.0
H2123 H 0.0646 0.65372 0.32598 0.0
H2124 H 0.0517 0.61036 0.30929 0.0
C2125 C 0.00279 0.61083 0.28395 0.0
C2126 C 0.35944 0.39094 0.37622 0.0
C2127 C 0.33494 0.37839 0.36591 0.0
H2128 H 0.39714 0.41251 0.36901 0.0
C2129 C 0.32984 0.37952 0.34003 0.0
H2130 H 0.36398 0.3905 0.39611 0.0
C2131 C 0.34881 0.39186 0.32448 0.0
C2132 C 0.37327 0.40341 0.33449 0.0
H2133 H 0.31116 0.37006 0.33147 0.0
H2134 H 0.34424 0.39151 0.30438 0.0
C2135 C 0.37843 0.40331 0.36065 0.0
C2136 C 0.32081 0.29809 0.44268 0.0
C2137 C 0.30308 0.28764 0.4215 0.0
H2138 H 0.34539 0.29373 0.46666 0.0
C2139 C 0.2974 0.26479 0.40726 0.0
H2140 H 0.32572 0.3158 0.45387 0.0
C2141 C 0.3086 0.25215 0.41469 0.0
C2142 C 0.32597 0.2624 0.43616 0.0
H2143 H 0.28387 0.25637 0.3908 0.0
H2144 H 0.30346 0.23418 0.4039 0.0
C2145 C 0.33227 0.28565 0.44984 0.0
C2146 C 0.74858 0.04079 0.40639 0.0
C2147 C 0.72391 0.03191 0.4092 0.0
H2148 H 0.78585 0.07169 0.41447 0.0
C2149 C 0.71798 0.04832 0.42214 0.0
H2150 H 0.75375 0.02867 0.39646 0.0
C2151 C 0.73641 0.07302 0.43238 0.0
C2152 C 0.76107 0.08162 0.43008 0.0
H2153 H 0.69912 0.04205 0.42454 0.0
H2154 H 0.73142 0.08517 0.44263 0.0
C2155 C 0.76697 0.06537 0.4168 0.0
C2156 C 0.96372 0.70891 0.36597 0.0
C2157 C 0.96878 0.69004 0.35924 0.0
H2158 H 0.94079 0.71852 0.38582 0.0
C2159 C 0.95302 0.66541 0.36566 0.0
H2160 H 0.9756 0.72806 0.36129 0.0
C2161 C 0.93317 0.65996 0.3795 0.0
C2162 C 0.9288 0.67909 0.38741 0.0
H2163 H 0.9564 0.65044 0.3606 0.0
H2164 H 0.9219 0.64104 0.38499 0.0
C2165 C 0.94395 0.7035 0.38013 0.0
C2166 C 0.38445 0.9899 0.71033 0.0
C2167 C 0.38154 0.01036 0.71667 0.0
H2168 H 0.4022 0.97073 0.72045 0.0
C2169 C 0.394 0.02691 0.73934 0.0
H2170 H 0.37506 0.97681 0.693 0.0
C2171 C 0.40908 0.02312 0.75532 0.0
C2172 C 0.4123 0.00286 0.74887 0.0
H2173 H 0.39189 0.04267 0.74497 0.0
H2174 H 0.41819 0.03606 0.77279 0.0
C2175 C 0.39977 0.98624 0.72622 0.0
C2176 C 0.97732 0.35558 0.76651 0.0
C2177 C 0.95699 0.33408 0.77455 0.0
H2178 H -0.00099 0.3961 0.76903 0.0
C2179 C 0.94276 0.3375 0.79202 0.0
H2180 H 0.98862 0.35363 0.75296 0.0
C2181 C 0.94891 0.36199 0.80142 0.0
C2182 C 0.96938 0.38346 0.7935 0.0
H2183 H 0.92707 0.32132 0.79865 0.0
H2184 H 0.93787 0.36412 0.81518 0.0
C2185 C 0.98341 0.37996 0.77586 0.0
C2186 C 0.6556 0.60863 0.71715 0.0
C2187 C 0.65535 0.62417 0.69956 0.0
H2188 H 0.63606 0.58283 0.74412 0.0
C2189 C 0.63368 0.62361 0.694 0.0
H2190 H 0.67201 0.60862 0.7218 0.0
C2191 C 0.61311 0.60892 0.70692 0.0
C2192 C 0.61377 0.5943 0.72535 0.0
H2193 H 0.63291 0.63537 0.68054 0.0
H2194 H 0.59687 0.60941 0.70291 0.0
C2195 C 0.63499 0.59379 0.72986 0.0
C2196 C 0.69302 0.71896 0.64336 0.0
C2197 C 0.7078 0.72435 0.66613 0.0
H2198 H 0.67002 0.72731 0.6221 0.0
C2199 C 0.7105 0.7429 0.68547 0.0
H2200 H 0.6904 0.70465 0.62814 0.0
C2201 C 0.69885 0.75607 0.68187 0.0
C2202 C 0.6839 0.75038 0.65915 0.0
H2203 H 0.72173 0.74736 0.70324 0.0
H2204 H 0.70146 0.77061 0.69678 0.0
C2205 C 0.68107 0.73169 0.64 0.0
C2206 C 0.27177 0.95293 0.65662 0.0
C2207 C 0.27136 0.97419 0.65066 0.0
H2208 H 0.25288 0.91236 0.65311 0.0
C2209 C 0.25127 0.9704 0.6353 0.0
H2210 H 0.287 0.95521 0.66842 0.0
C2211 C 0.23181 0.94581 0.62638 0.0
C2212 C 0.23203 0.92455 0.63268 0.0
H2213 H 0.25049 0.98639 0.63025 0.0
H2214 H 0.2166 0.94346 0.61446 0.0
C2215 C 0.25229 0.92836 0.64772 0.0
C2216 C 0.04528 0.33477 0.69913 0.0
C2217 C 0.03486 0.31426 0.71367 0.0
H2218 H 0.0745 0.35791 0.67713 0.0
C2219 C 0.04789 0.30284 0.71933 0.0
H2220 H 0.03578 0.34408 0.6945 0.0
C2221 C 0.07041 0.31106 0.70957 0.0
C2222 C 0.08026 0.33082 0.69399 0.0
H2223 H 0.0404 0.28711 0.73065 0.0
H2224 H 0.07985 0.30157 0.71372 0.0
C2225 C 0.06767 0.34291 0.68936 0.0
C2226 C 0.27445 0.29633 0.64254 0.0
C2227 C 0.27855 0.29921 0.66941 0.0
H2228 H 0.25883 0.3034 0.61019 0.0
C2229 C 0.26923 0.3113 0.68443 0.0
H2230 H 0.28141 0.28711 0.63042 0.0
C2231 C 0.25657 0.32083 0.67283 0.0
C2232 C 0.25278 0.31828 0.64598 0.0
H2233 H 0.2721 0.31387 0.70517 0.0
H2234 H 0.24958 0.33007 0.68489 0.0
C2235 C 0.26155 0.30565 0.63093 0.0
C2236 C 0.66372 0.96662 0.66951 0.0
C2237 C 0.67627 0.98713 0.65521 0.0
H2238 H 0.6483 0.92686 0.67113 0.0
C2239 C 0.68173 0.98265 0.63043 0.0
H2240 H 0.65918 0.96946 0.68863 0.0
C2241 C 0.67536 0.95832 0.6204 0.0
C2242 C 0.66341 0.93793 0.63492 0.0
H2243 H 0.69119 0.99798 0.6188 0.0
H2244 H 0.67996 0.95551 0.6013 0.0
C2245 C 0.65732 0.94221 0.65943 0.0
C2246 C 0.98957 0.70708 0.67269 0.0
C2247 C 0.99445 0.70497 0.69829 0.0
H2248 H 0.00417 0.72157 0.63794 0.0
C2249 C 0.01888 0.71777 0.70892 0.0
H2250 H 0.97097 0.6974 0.66383 0.0
C2251 C 0.03804 0.73187 0.694 0.0
C2252 C 0.03309 0.73344 0.66821 0.0
H2253 H 0.02323 0.7165 0.72858 0.0
H2254 H 0.05671 0.74149 0.70263 0.0
C2255 C 0.00863 0.72106 0.65783 0.0
C2256 C 0.97933 0.60759 0.72563 0.0
C2257 C 0.95478 0.6004 0.72228 0.0
H2258 H 0.00514 0.60072 0.74321 0.0
C2259 C 0.93673 0.57817 0.73155 0.0
H2260 H 0.99364 0.62473 0.71878 0.0
C2261 C 0.94324 0.56411 0.74511 0.0
C2262 C 0.96798 0.57228 0.75014 0.0
H2263 H 0.91762 0.57205 0.72895 0.0
H2264 H 0.92889 0.54722 0.75227 0.0
C2265 C 0.9859 0.59376 0.7396 0.0
C2266 C 0.385 0.39027 0.72952 0.0
C2267 C 0.37548 0.36843 0.7421 0.0
H2268 H 0.41153 0.43016 0.73124 0.0
C2269 C 0.38498 0.37075 0.76733 0.0
H2270 H 0.37806 0.38912 0.71009 0.0
C2271 C 0.40396 0.39427 0.77951 0.0
C2272 C 0.41391 0.416 0.76673 0.0
H2273 H 0.37791 0.35434 0.77765 0.0
H2274 H 0.41095 0.39542 0.79892 0.0
C2275 C 0.40404 0.41382 0.74171 0.0
C2276 C 0.64087 0.0585 0.70823 0.0
C2277 C 0.63547 0.04611 0.68306 0.0
H2278 H 0.62779 0.06031 0.74449 0.0
C2279 C 0.6111 0.02709 0.6745 0.0
H2280 H 0.65948 0.07313 0.71556 0.0
C2281 C 0.59269 0.01996 0.69111 0.0
C2282 C 0.59833 0.03152 0.7167 0.0
H2283 H 0.60634 0.01723 0.65519 0.0
H2284 H 0.57411 0.00515 0.68397 0.0
C2285 C 0.6226 0.05117 0.72488 0.0
loop_
_geom_bond_atom_site_label_1
_geom_bond_atom_site_label_2
_geom_bond_distance
_geom_bond_site_symmetry_2
_ccdc_geom_bond_type
C0 O1 1.160 . S
C0 O7 1.185 . S
O1 C0 1.160 . S
O2 Zn3 1.899 1_655 S
O2 C10 1.284 . S
Zn3 O2 1.899 1_455 S
Zn3 O4 2.032 . S
Zn3 O7 2.086 . S
Zn3 O12 1.977 . S
O4 Zn3 2.032 . S
O4 C8 1.278 1_455 S
C5 O6 1.203 1_455 S
C5 O12 1.267 1_556 S
O6 C5 1.203 1_655 S
O7 C0 1.185 . S
O7 Zn3 2.086 . S
C8 O4 1.278 1_655 S
C8 O9 1.211 . S
O9 C8 1.211 . S
C10 O2 1.284 . S
C10 O11 1.273 . S
O11 C10 1.273 . S
O12 Zn3 1.977 . S
O12 C5 1.267 1_554 S
C13 O14 1.160 . S
C13 O20 1.185 . S
O14 C13 1.160 . S
O15 Zn16 1.899 . S
O15 C23 1.284 . S
Zn16 O15 1.899 . S
Zn16 O17 2.032 . S
Zn16 O20 2.086 . S
Zn16 O25 1.977 . S
O17 Zn16 2.032 . S
O17 C21 1.278 . S
C18 O19 1.203 . S
C18 O25 1.267 . S
O19 C18 1.203 . S
O20 C13 1.185 . S
O20 Zn16 2.086 . S
C21 O17 1.278 . S
C21 O22 1.211 . S
O22 C21 1.211 . S
C23 O15 1.284 . S
C23 O24 1.273 . S
O24 C23 1.273 . S
O25 Zn16 1.977 . S
O25 C18 1.267 . S
C26 O27 1.160 . S
C26 O33 1.185 . S
O27 C26 1.160 . S
O28 Zn29 1.899 1_565 S
O28 C36 1.284 . S
Zn29 O28 1.899 1_545 S
Zn29 O30 1.999 1_554 S
Zn29 O33 2.086 . S
Zn29 O38 1.977 . S
O30 Zn29 1.999 1_556 S
O30 C34 1.280 1_545 S
C31 O32 1.203 1_545 S
C31 O38 1.267 . S
O32 C31 1.203 1_565 S
O33 C26 1.185 . S
O33 Zn29 2.086 . S
C34 O30 1.280 1_565 S
C34 O35 1.211 1_556 S
O35 C34 1.211 1_554 S
C36 O28 1.284 . S
C36 O37 1.273 . S
O37 C36 1.273 . S
O38 Zn29 1.977 . S
O38 C31 1.267 . S
C39 O40 1.160 . S
C39 O46 1.185 . S
O40 C39 1.160 . S
O41 Zn42 1.899 1_455 S
O41 C49 1.284 . S
Zn42 O41 1.899 1_655 S
Zn42 O43 2.014 1_655 S
Zn42 O46 2.086 . S
Zn42 O51 1.977 . S
O43 Zn42 2.014 1_455 S
O43 C47 1.316 . S
C44 O45 1.203 1_655 S
C44 O51 1.267 . S
O45 C44 1.203 1_455 S
O46 C39 1.185 . S
O46 Zn42 2.086 . S
C47 O43 1.316 . S
C47 O48 1.211 . S
O48 C47 1.211 . S
C49 O41 1.284 . S
C49 O50 1.273 . S
O50 C49 1.273 . S
O51 Zn42 1.977 . S
O51 C44 1.267 . S
C52 O53 1.160 . S
C52 O59 1.185 . S
O53 C52 1.160 . S
O54 Zn55 1.899 1_556 S
O54 C62 1.284 . S
Zn55 O54 1.899 1_554 S
Zn55 O56 2.032 . S
Zn55 O59 2.086 . S
Zn55 O64 1.977 1_554 S
O56 Zn55 2.032 . S
O56 C60 1.278 . S
C57 O58 1.203 . S
C57 O64 1.267 . S
O58 C57 1.203 . S
O59 C52 1.185 . S
O59 Zn55 2.086 . S
C60 O56 1.278 . S
C60 O61 1.211 . S
O61 C60 1.211 . S
C62 O54 1.284 . S
C62 O63 1.259 1_556 S
O63 C62 1.259 1_554 S
O64 Zn55 1.977 1_556 S
O64 C57 1.267 . S
C65 O66 1.160 . S
C65 O72 1.185 . S
O66 C65 1.160 . S
O67 Zn68 1.899 1_545 S
O67 C75 1.284 . S
Zn68 O67 1.899 1_565 S
Zn68 O69 2.032 1_565 S
Zn68 O72 2.086 . S
Zn68 O77 1.977 . S
O69 Zn68 2.032 1_545 S
O69 C73 1.278 . S
C70 O71 1.203 1_565 S
C70 O77 1.267 . S
O71 C70 1.203 1_545 S
O72 C65 1.185 . S
O72 Zn68 2.086 . S
C73 O69 1.278 . S
C73 O74 1.211 . S
O74 C73 1.211 . S
C75 O67 1.284 . S
C75 O76 1.273 . S
O76 C75 1.273 . S
O77 Zn68 1.977 . S
O77 C70 1.267 . S
C78 O79 1.160 . S
C78 O85 1.185 . S
O79 C78 1.160 . S
O80 Zn81 1.899 . S
O80 C88 1.284 . S
Zn81 O80 1.899 . S
Zn81 O82 2.032 . S
Zn81 O85 2.086 . S
Zn81 O90 1.977 . S
O82 Zn81 2.032 . S
O82 C86 1.278 . S
C83 O84 1.203 . S
C83 O90 1.267 . S
O84 C83 1.203 . S
O85 C78 1.185 . S
O85 Zn81 2.086 . S
C86 O82 1.278 . S
C86 O87 1.211 . S
O87 C86 1.211 . S
C88 O80 1.284 . S
C88 O89 1.273 . S
O89 C88 1.273 . S
O90 Zn81 1.977 . S
O90 C83 1.267 . S
C91 O92 1.160 . S
C91 O98 1.185 . S
O92 C91 1.160 . S
O93 Zn94 1.899 . S
O93 C101 1.315 . S
Zn94 O93 1.899 . S
Zn94 O95 2.032 . S
Zn94 O98 2.086 . S
Zn94 O103 1.977 . S
O95 Zn94 2.032 . S
O95 C99 1.278 . S
C96 O97 1.203 . S
C96 O103 1.267 . S
O97 C96 1.203 . S
O98 C91 1.185 . S
O98 Zn94 2.086 . S
C99 O95 1.278 . S
C99 O100 1.211 . S
O100 C99 1.211 . S
C101 O93 1.315 . S
C101 O102 1.270 . S
O102 C101 1.270 . S
O103 Zn94 1.977 . S
O103 C96 1.267 . S
C104 O105 1.160 . S
C104 O111 1.185 . S
O105 C104 1.160 . S
O106 Zn107 1.899 . S
O106 C114 1.284 . S
Zn107 O106 1.899 . S
Zn107 O108 2.032 . S
Zn107 O111 2.086 . S
Zn107 O116 1.977 . S
O108 Zn107 2.032 . S
O108 C112 1.278 . S
C109 O110 1.203 . S
C109 O116 1.267 . S
O110 C109 1.203 . S
O111 C104 1.185 . S
O111 Zn107 2.086 . S
C112 O108 1.278 . S
C112 O113 1.211 . S
O113 C112 1.211 . S
C114 O106 1.284 . S
C114 O115 1.273 . S
O115 C114 1.273 . S
O116 Zn107 1.977 . S
O116 C109 1.267 . S
C117 O118 1.160 . S
C117 O124 1.185 . S
O118 C117 1.160 . S
O119 Zn120 1.899 . S
O119 C127 1.284 1_565 S
Zn120 O119 1.899 . S
Zn120 O121 2.032 . S
Zn120 O124 2.086 . S
Zn120 O129 1.977 . S
O121 Zn120 2.032 . S
O121 C125 1.278 . S
C122 O123 1.203 . S
C122 O129 1.267 . S
O123 C122 1.203 . S
O124 C117 1.185 . S
O124 Zn120 2.086 . S
C125 O121 1.278 . S
C125 O126 1.211 . S
O126 C125 1.211 . S
C127 O119 1.284 1_545 S
C127 O128 1.273 1_545 S
O128 C127 1.273 1_565 S
O129 Zn120 1.977 . S
O129 C122 1.267 . S
C130 O131 1.160 . S
C130 O137 1.185 1_655 S
O131 C130 1.160 . S
O132 Zn133 1.899 . S
O132 C140 1.284 . S
Zn133 O132 1.899 . S
Zn133 O134 2.032 . S
Zn133 O137 2.086 . S
Zn133 O142 1.977 . S
O134 Zn133 2.032 . S
O134 C138 1.278 . S
C135 O136 1.203 . S
C135 O142 1.267 . S
O136 C135 1.203 . S
O137 C130 1.185 1_455 S
O137 Zn133 2.086 . S
C138 O134 1.278 . S
C138 O139 1.211 . S
O139 C138 1.211 . S
C140 O132 1.284 . S
C140 O141 1.273 . S
O141 C140 1.273 . S
O142 Zn133 1.977 . S
O142 C135 1.267 . S
C143 O144 1.160 . S
C143 O150 1.185 . S
O144 C143 1.160 . S
O145 Zn146 1.899 . S
O145 C153 1.284 . S
Zn146 O145 1.899 . S
Zn146 O147 2.032 . S
Zn146 O150 2.086 . S
Zn146 O155 1.977 . S
O147 Zn146 2.032 . S
O147 C151 1.278 . S
C148 O149 1.203 . S
C148 O155 1.267 . S
O149 C148 1.203 . S
O150 C143 1.185 . S
O150 Zn146 2.086 . S
C151 O147 1.278 . S
C151 O152 1.211 . S
O152 C151 1.211 . S
C153 O145 1.284 . S
C153 O154 1.273 . S
O154 C153 1.273 . S
O155 Zn146 1.977 . S
O155 C148 1.267 . S
C156 O157 1.160 . S
C156 O163 1.185 . S
O157 C156 1.160 . S
O158 Zn159 1.899 . S
O158 C166 1.284 1_545 S
Zn159 O158 1.899 . S
Zn159 O160 2.032 . S
Zn159 O163 2.086 . S
Zn159 O168 1.977 . S
O160 Zn159 2.032 . S
O160 C164 1.278 . S
C161 O162 1.203 . S
C161 O168 1.267 . S
O162 C161 1.203 . S
O163 C156 1.185 . S
O163 Zn159 2.086 . S
C164 O160 1.278 . S
C164 O165 1.211 . S
O165 C164 1.211 . S
C166 O158 1.284 1_565 S
C166 O167 1.273 1_565 S
O167 C166 1.273 1_545 S
O168 Zn159 1.977 . S
O168 C161 1.267 . S
C169 O170 1.160 . S
C169 O176 1.197 . S
O170 C169 1.160 . S
O171 Zn172 1.899 . S
O171 C179 1.284 . S
Zn172 O171 1.899 . S
Zn172 O173 2.032 . S
Zn172 O176 2.051 1_655 S
Zn172 O181 1.977 . S
O173 Zn172 2.032 . S
O173 C177 1.278 . S
C174 O175 1.203 . S
C174 O181 1.267 . S
O175 C174 1.203 . S
O176 C169 1.197 . S
O176 Zn172 2.051 1_455 S
C177 O173 1.278 . S
C177 O178 1.211 . S
O178 C177 1.211 . S
C179 O171 1.284 . S
C179 O180 1.273 . S
O180 C179 1.273 . S
O181 Zn172 1.977 . S
O181 C174 1.267 . S
C182 O183 1.160 . S
C182 O189 1.185 . S
O183 C182 1.160 . S
O184 Zn185 1.899 . S
O184 C192 1.284 . S
Zn185 O184 1.899 . S
Zn185 O186 2.032 . S
Zn185 O189 2.086 . S
Zn185 O194 1.977 . S
O186 Zn185 2.032 . S
O186 C190 1.278 . S
C187 O188 1.203 . S
C187 O194 1.267 . S
O188 C187 1.203 . S
O189 C182 1.185 . S
O189 Zn185 2.086 . S
C190 O186 1.278 . S
C190 O191 1.211 . S
O191 C190 1.211 . S
C192 O184 1.284 . S
C192 O193 1.273 . S
O193 C192 1.273 . S
O194 Zn185 1.977 . S
O194 C187 1.267 . S
C195 O196 1.160 . S
C195 O202 1.185 . S
O196 C195 1.160 . S
O197 Zn198 1.899 . S
O197 C205 1.284 . S
Zn198 O197 1.899 . S
Zn198 O199 2.032 . S
Zn198 O202 2.086 . S
Zn198 O207 1.977 . S
O199 Zn198 2.032 . S
O199 C203 1.278 . S
C200 O201 1.203 . S
C200 O207 1.267 . S
O201 C200 1.203 . S
O202 C195 1.185 . S
O202 Zn198 2.086 . S
C203 O199 1.278 . S
C203 O204 1.211 . S
O204 C203 1.211 . S
C205 O197 1.284 . S
C205 O206 1.273 . S
O206 C205 1.273 . S
O207 Zn198 1.977 . S
O207 C200 1.267 . S
C208 O209 1.160 . S
C208 O215 1.185 . S
O209 C208 1.160 . S
O210 Zn211 1.899 . S
O210 C218 1.284 . S
Zn211 O210 1.899 . S
Zn211 O212 2.032 . S
Zn211 O215 2.086 . S
Zn211 O220 1.977 . S
O212 Zn211 2.032 . S
O212 C216 1.278 . S
C213 O214 1.203 . S
C213 O220 1.267 . S
O214 C213 1.203 . S
O215 C208 1.185 . S
O215 Zn211 2.086 . S
C216 O212 1.278 . S
C216 O217 1.211 . S
O217 C216 1.211 . S
C218 O210 1.284 . S
C218 O219 1.273 . S
O219 C218 1.273 . S
O220 Zn211 1.977 . S
O220 C213 1.267 . S
C221 O222 1.160 . S
C221 O228 1.185 . S
O222 C221 1.160 . S
O223 Zn224 1.899 . S
O223 C231 1.284 . S
Zn224 O223 1.899 . S
Zn224 O225 2.032 . S
Zn224 O228 2.086 . S
Zn224 O233 1.977 . S
O225 Zn224 2.032 . S
O225 C229 1.278 . S
C226 O227 1.203 . S
C226 O233 1.267 . S
O227 C226 1.203 . S
O228 C221 1.185 . S
O228 Zn224 2.086 . S
C229 O225 1.278 . S
C229 O230 1.211 . S
O230 C229 1.211 . S
C231 O223 1.284 . S
C231 O232 1.273 . S
O232 C231 1.273 . S
O233 Zn224 1.977 . S
O233 C226 1.267 . S
H234 O260 0.856 1_556 S
H235 O263 0.854 . S
H236 C271 0.930 . S
H237 C272 0.930 . S
H238 C274 0.930 . S
H239 C275 0.930 . S
H240 C277 0.931 . S
H241 C278 0.930 . S
H242 C280 0.930 . S
H243 C281 0.929 . S
H244 C283 0.930 . S
H245 C284 0.931 . S
H246 C286 0.930 . S
H247 C287 0.929 . S
H248 C289 0.931 . S
H249 C290 0.930 . S
H250 C292 0.930 . S
H251 C293 0.932 . S
H252 C295 0.930 . S
H253 C296 0.929 . S
H254 C298 0.931 . S
H255 C299 0.930 . S
H256 C301 0.929 . S
H257 C302 0.931 . S
H258 C304 0.930 . S
H259 C305 0.929 . S
O260 H234 0.856 1_554 S
O260 C306 1.300 . S
O261 C306 1.209 . S
O262 C307 1.199 . S
O263 H235 0.854 . S
O263 C307 1.297 . S
C264 C265 1.404 . S
C264 C269 1.397 . S
C264 C270 1.492 . S
C265 C264 1.404 . S
C265 C266 1.396 . S
C265 C276 1.492 . S
C266 C265 1.396 . S
C266 C267 1.397 . S
C266 C282 1.509 . S
C267 C266 1.397 . S
C267 C268 1.412 . S
C267 C288 1.485 . S
C268 C267 1.412 . S
C268 C269 1.388 . S
C268 C294 1.490 . S
C269 C264 1.397 . S
C269 C268 1.388 . S
C269 C300 1.519 . S
C270 C264 1.492 . S
C270 C271 1.363 . S
C270 C275 1.390 . S
C271 H236 0.930 . S
C271 C270 1.363 . S
C271 C272 1.372 . S
C272 H237 0.930 . S
C272 C271 1.372 . S
C272 C273 1.383 . S
C273 C272 1.383 . S
C273 C274 1.395 . S
C274 H238 0.930 . S
C274 C273 1.395 . S
C274 C275 1.362 . S
C275 H239 0.930 . S
C275 C270 1.390 . S
C275 C274 1.362 . S
C276 C265 1.492 . S
C276 C277 1.377 . S
C276 C281 1.397 . S
C277 H240 0.931 . S
C277 C276 1.377 . S
C277 C278 1.376 . S
C278 H241 0.930 . S
C278 C277 1.376 . S
C278 C279 1.376 . S
C279 C278 1.376 . S
C279 C280 1.378 . S
C279 C306 1.486 . S
C280 H242 0.930 . S
C280 C279 1.378 . S
C280 C281 1.376 . S
C281 H243 0.929 . S
C281 C276 1.397 . S
C281 C280 1.376 . S
C282 C266 1.509 . S
C282 C283 1.391 . S
C282 C287 1.386 . S
C283 H244 0.930 . S
C283 C282 1.391 . S
C283 C284 1.375 . S
C284 H245 0.931 . S
C284 C283 1.375 . S
C284 C285 1.375 . S
C285 C284 1.375 . S
C285 C286 1.361 . S
C286 H246 0.930 . S
C286 C285 1.361 . S
C286 C287 1.399 . S
C287 H247 0.929 . S
C287 C282 1.386 . S
C287 C286 1.399 . S
C288 C267 1.485 . S
C288 C289 1.394 . S
C288 C293 1.360 . S
C289 H248 0.931 . S
C289 C288 1.394 . S
C289 C290 1.372 . S
C290 H249 0.930 . S
C290 C289 1.372 . S
C290 C291 1.397 . S
C291 C290 1.397 . S
C291 C292 1.390 . S
C291 C307 1.476 . S
C292 H250 0.930 . S
C292 C291 1.390 . S
C292 C293 1.366 . S
C293 H251 0.932 . S
C293 C288 1.360 . S
C293 C292 1.366 . S
C294 C268 1.490 . S
C294 C295 1.380 . S
C294 C299 1.386 . S
C295 H252 0.930 . S
C295 C294 1.380 . S
C295 C296 1.381 . S
C296 H253 0.929 . S
C296 C295 1.381 . S
C296 C297 1.371 . S
C297 C296 1.371 . S
C297 C298 1.380 . S
C298 H254 0.931 . S
C298 C297 1.380 . S
C298 C299 1.387 . S
C299 H255 0.930 . S
C299 C294 1.386 . S
C299 C298 1.387 . S
C300 C269 1.519 . S
C300 C301 1.377 . S
C300 C305 1.361 . S
C301 H256 0.929 . S
C301 C300 1.377 . S
C301 C302 1.386 . S
C302 H257 0.931 . S
C302 C301 1.386 . S
C302 C303 1.363 . S
C303 C302 1.363 . S
C303 C304 1.385 . S
C304 H258 0.930 . S
C304 C303 1.385 . S
C304 C305 1.396 . S
C305 H259 0.929 . S
C305 C300 1.361 . S
C305 C304 1.396 . S
C306 O260 1.300 . S
C306 O261 1.209 . S
C306 C279 1.486 . S
C307 O262 1.199 . S
C307 O263 1.297 . S
C307 C291 1.476 . S
H308 O334 0.856 . S
H309 O337 0.854 . S
H310 C345 0.930 . S
H311 C346 0.930 . S
H312 C348 0.930 . S
H313 C349 0.930 . S
H314 C351 0.931 . S
H315 C352 0.930 . S
H316 C354 0.930 . S
H317 C355 0.929 . S
H318 C357 0.930 . S
H319 C358 0.931 . S
H320 C360 0.930 . S
H321 C361 0.929 . S
H322 C363 0.931 . S
H323 C364 0.930 . S
H324 C366 0.930 . S
H325 C367 0.932 . S
H326 C369 0.930 . S
H327 C370 0.929 . S
H328 C372 0.931 . S
H329 C373 0.930 . S
H330 C375 0.929 . S
H331 C376 0.931 . S
H332 C378 0.930 . S
H333 C379 0.929 . S
O334 H308 0.856 . S
O334 C380 1.300 . S
O335 C380 1.209 . S
O336 C381 1.199 . S
O337 H309 0.854 . S
O337 C381 1.297 1_545 S
C338 C339 1.404 . S
C338 C343 1.397 . S
C338 C344 1.492 . S
C339 C338 1.404 . S
C339 C340 1.396 . S
C339 C350 1.492 . S
C340 C339 1.396 . S
C340 C341 1.397 . S
C340 C356 1.509 . S
C341 C340 1.397 . S
C341 C342 1.412 . S
C341 C362 1.485 . S
C342 C341 1.412 . S
C342 C343 1.388 . S
C342 C368 1.490 . S
C343 C338 1.397 . S
C343 C342 1.388 . S
C343 C374 1.519 . S
C344 C338 1.492 . S
C344 C345 1.363 . S
C344 C349 1.390 . S
C345 H310 0.930 . S
C345 C344 1.363 . S
C345 C346 1.372 . S
C346 H311 0.930 . S
C346 C345 1.372 . S
C346 C347 1.383 . S
C347 C346 1.383 . S
C347 C348 1.395 . S
C348 H312 0.930 . S
C348 C347 1.395 . S
C348 C349 1.362 . S
C349 H313 0.930 . S
C349 C344 1.390 . S
C349 C348 1.362 . S
C350 C339 1.492 . S
C350 C351 1.377 . S
C350 C355 1.397 . S
C351 H314 0.931 . S
C351 C350 1.377 . S
C351 C352 1.376 . S
C352 H315 0.930 . S
C352 C351 1.376 . S
C352 C353 1.376 . S
C353 C352 1.376 . S
C353 C354 1.378 . S
C353 C380 1.486 . S
C354 H316 0.930 . S
C354 C353 1.378 . S
C354 C355 1.376 . S
C355 H317 0.929 . S
C355 C350 1.397 . S
C355 C354 1.376 . S
C356 C340 1.509 . S
C356 C357 1.391 . S
C356 C361 1.386 . S
C357 H318 0.930 . S
C357 C356 1.391 . S
C357 C358 1.375 . S
C358 H319 0.931 . S
C358 C357 1.375 . S
C358 C359 1.375 . S
C359 C358 1.375 . S
C359 C360 1.361 . S
C360 H320 0.930 . S
C360 C359 1.361 . S
C360 C361 1.399 . S
C361 H321 0.929 . S
C361 C356 1.386 . S
C361 C360 1.399 . S
C362 C341 1.485 . S
C362 C363 1.394 . S
C362 C367 1.360 . S
C363 H322 0.931 . S
C363 C362 1.394 . S
C363 C364 1.372 . S
C364 H323 0.930 . S
C364 C363 1.372 . S
C364 C365 1.397 . S
C365 C364 1.397 . S
C365 C366 1.390 . S
C365 C381 1.476 . S
C366 H324 0.930 . S
C366 C365 1.390 . S
C366 C367 1.366 . S
C367 H325 0.932 . S
C367 C362 1.360 . S
C367 C366 1.366 . S
C368 C342 1.490 . S
C368 C369 1.380 . S
C368 C373 1.386 . S
C369 H326 0.930 . S
C369 C368 1.380 . S
C369 C370 1.381 . S
C370 H327 0.929 . S
C370 C369 1.381 . S
C370 C371 1.371 . S
C371 C370 1.371 . S
C371 C372 1.380 . S
C372 H328 0.931 . S
C372 C371 1.380 . S
C372 C373 1.387 . S
C373 H329 0.930 . S
C373 C368 1.386 . S
C373 C372 1.387 . S
C374 C343 1.519 . S
C374 C375 1.377 . S
C374 C379 1.361 . S
C375 H330 0.929 . S
C375 C374 1.377 . S
C375 C376 1.386 . S
C376 H331 0.931 . S
C376 C375 1.386 . S
C376 C377 1.363 . S
C377 C376 1.363 . S
C377 C378 1.385 . S
C378 H332 0.930 . S
C378 C377 1.385 . S
C378 C379 1.396 . S
C379 H333 0.929 . S
C379 C374 1.361 . S
C379 C378 1.396 . S
C380 O334 1.300 . S
C380 O335 1.209 . S
C380 C353 1.486 . S
C381 O336 1.199 . S
C381 O337 1.297 1_565 S
C381 C365 1.476 . S
H382 O408 0.856 . S
H383 O411 0.828 1_545 S
H384 C419 0.930 . S
H385 C420 0.930 . S
H386 C422 0.930 . S
H387 C423 0.930 . S
H388 C425 0.931 . S
H389 C426 0.930 . S
H390 C428 0.930 . S
H391 C429 0.929 . S
H392 C431 0.930 . S
H393 C432 0.931 . S
H394 C434 0.930 . S
H395 C435 0.929 . S
H396 C437 0.931 . S
H397 C438 0.930 . S
H398 C440 0.930 . S
H399 C441 0.932 . S
H400 C443 0.930 . S
H401 C444 0.929 . S
H402 C446 0.931 . S
H403 C447 0.930 . S
H404 C449 0.929 . S
H405 C450 0.931 . S
H406 C452 0.930 . S
H407 C453 0.929 . S
O408 H382 0.856 . S
O408 C454 1.300 . S
O409 C454 1.209 . S
O410 C455 1.199 1_545 S
O411 H383 0.828 1_565 S
O411 C455 1.297 . S
C412 C413 1.404 . S
C412 C417 1.397 . S
C412 C418 1.492 . S
C413 C412 1.404 . S
C413 C414 1.396 . S
C413 C424 1.492 . S
C414 C413 1.396 . S
C414 C415 1.397 . S
C414 C430 1.509 . S
C415 C414 1.397 . S
C415 C416 1.412 . S
C415 C436 1.485 . S
C416 C415 1.412 . S
C416 C417 1.388 . S
C416 C442 1.490 . S
C417 C412 1.397 . S
C417 C416 1.388 . S
C417 C448 1.519 . S
C418 C412 1.492 . S
C418 C419 1.363 . S
C418 C423 1.390 . S
C419 H384 0.930 . S
C419 C418 1.363 . S
C419 C420 1.372 . S
C420 H385 0.930 . S
C420 C419 1.372 . S
C420 C421 1.383 . S
C421 C420 1.383 . S
C421 C422 1.395 . S
C422 H386 0.930 . S
C422 C421 1.395 . S
C422 C423 1.362 . S
C423 H387 0.930 . S
C423 C418 1.390 . S
C423 C422 1.362 . S
C424 C413 1.492 . S
C424 C425 1.377 . S
C424 C429 1.397 . S
C425 H388 0.931 . S
C425 C424 1.377 . S
C425 C426 1.376 . S
C426 H389 0.930 . S
C426 C425 1.376 . S
C426 C427 1.376 . S
C427 C426 1.376 . S
C427 C428 1.378 . S
C427 C454 1.486 . S
C428 H390 0.930 . S
C428 C427 1.378 . S
C428 C429 1.376 . S
C429 H391 0.929 . S
C429 C424 1.397 . S
C429 C428 1.376 . S
C430 C414 1.509 . S
C430 C431 1.391 . S
C430 C435 1.386 . S
C431 H392 0.930 . S
C431 C430 1.391 . S
C431 C432 1.375 . S
C432 H393 0.931 . S
C432 C431 1.375 . S
C432 C433 1.375 . S
C433 C432 1.375 . S
C433 C434 1.361 . S
C434 H394 0.930 . S
C434 C433 1.361 . S
C434 C435 1.399 . S
C435 H395 0.929 . S
C435 C430 1.386 . S
C435 C434 1.399 . S
C436 C415 1.485 . S
C436 C437 1.394 . S
C436 C441 1.360 . S
C437 H396 0.931 . S
C437 C436 1.394 . S
C437 C438 1.372 . S
C438 H397 0.930 . S
C438 C437 1.372 . S
C438 C439 1.397 . S
C439 C438 1.397 . S
C439 C440 1.390 . S
C439 C455 1.476 . S
C440 H398 0.930 . S
C440 C439 1.390 . S
C440 C441 1.366 . S
C441 H399 0.932 . S
C441 C436 1.360 . S
C441 C440 1.366 . S
C442 C416 1.490 . S
C442 C443 1.380 . S
C442 C447 1.386 . S
C443 H400 0.930 . S
C443 C442 1.380 . S
C443 C444 1.381 . S
C444 H401 0.929 . S
C444 C443 1.381 . S
C444 C445 1.371 . S
C445 C444 1.371 . S
C445 C446 1.380 . S
C446 H402 0.931 . S
C446 C445 1.380 . S
C446 C447 1.387 . S
C447 H403 0.930 . S
C447 C442 1.386 . S
C447 C446 1.387 . S
C448 C417 1.519 . S
C448 C449 1.377 . S
C448 C453 1.361 . S
C449 H404 0.929 . S
C449 C448 1.377 . S
C449 C450 1.386 . S
C450 H405 0.931 . S
C450 C449 1.386 . S
C450 C451 1.363 . S
C451 C450 1.363 . S
C451 C452 1.385 . S
C452 H406 0.930 . S
C452 C451 1.385 . S
C452 C453 1.396 . S
C453 H407 0.929 . S
C453 C448 1.361 . S
C453 C452 1.396 . S
C454 O408 1.300 . S
C454 O409 1.209 . S
C454 C427 1.486 . S
C455 O410 1.199 1_565 S
C455 O411 1.297 . S
C455 C439 1.476 . S
H456 O482 0.856 . S
H457 O485 0.854 . S
H458 C493 0.930 . S
H459 C494 0.930 . S
H460 C496 0.930 . S
H461 C497 0.930 . S
H462 C499 0.931 . S
H463 C500 0.930 . S
H464 C502 0.930 . S
H465 C503 0.929 . S
H466 C505 0.930 . S
H467 C506 0.931 . S
H468 C508 0.930 . S
H469 C509 0.929 . S
H470 C511 0.931 . S
H471 C512 0.930 . S
H472 C514 0.930 . S
H473 C515 0.932 . S
H474 C517 0.930 . S
H475 C518 0.929 . S
H476 C520 0.931 . S
H477 C521 0.930 . S
H478 C523 0.929 . S
H479 C524 0.931 . S
H480 C526 0.930 . S
H481 C527 0.929 . S
O482 H456 0.856 . S
O482 C528 1.300 . S
O483 C528 1.209 . S
O484 C529 1.199 . S
O485 H457 0.854 . S
O485 C529 1.297 . S
C486 C487 1.404 . S
C486 C491 1.397 . S
C486 C492 1.492 . S
C487 C486 1.404 . S
C487 C488 1.396 . S
C487 C498 1.492 . S
C488 C487 1.396 . S
C488 C489 1.397 . S
C488 C504 1.509 . S
C489 C488 1.397 . S
C489 C490 1.412 . S
C489 C510 1.485 . S
C490 C489 1.412 . S
C490 C491 1.388 . S
C490 C516 1.490 . S
C491 C486 1.397 . S
C491 C490 1.388 . S
C491 C522 1.519 . S
C492 C486 1.492 . S
C492 C493 1.363 . S
C492 C497 1.390 . S
C493 H458 0.930 . S
C493 C492 1.363 . S
C493 C494 1.372 . S
C494 H459 0.930 . S
C494 C493 1.372 . S
C494 C495 1.383 . S
C495 C494 1.383 . S
C495 C496 1.395 . S
C496 H460 0.930 . S
C496 C495 1.395 . S
C496 C497 1.362 . S
C497 H461 0.930 . S
C497 C492 1.390 . S
C497 C496 1.362 . S
C498 C487 1.492 . S
C498 C499 1.377 . S
C498 C503 1.397 . S
C499 H462 0.931 . S
C499 C498 1.377 . S
C499 C500 1.376 1_556 S
C500 H463 0.930 . S
C500 C499 1.376 1_554 S
C500 C501 1.376 . S
C501 C500 1.376 . S
C501 C502 1.378 1_554 S
C501 C528 1.486 . S
C502 H464 0.930 . S
C502 C501 1.378 1_556 S
C502 C503 1.376 . S
C503 H465 0.929 . S
C503 C498 1.397 . S
C503 C502 1.376 . S
C504 C488 1.509 . S
C504 C505 1.391 . S
C504 C509 1.386 . S
C505 H466 0.930 . S
C505 C504 1.391 . S
C505 C506 1.375 . S
C506 H467 0.931 . S
C506 C505 1.375 . S
C506 C507 1.375 . S
C507 C506 1.375 . S
C507 C508 1.361 . S
C508 H468 0.930 . S
C508 C507 1.361 . S
C508 C509 1.399 . S
C509 H469 0.929 . S
C509 C504 1.386 . S
C509 C508 1.399 . S
C510 C489 1.485 . S
C510 C511 1.394 . S
C510 C515 1.360 . S
C511 H470 0.931 . S
C511 C510 1.394 . S
C511 C512 1.372 . S
C512 H471 0.930 . S
C512 C511 1.372 . S
C512 C513 1.397 . S
C513 C512 1.397 . S
C513 C514 1.390 . S
C513 C529 1.476 . S
C514 H472 0.930 . S
C514 C513 1.390 . S
C514 C515 1.366 . S
C515 H473 0.932 . S
C515 C510 1.360 . S
C515 C514 1.366 . S
C516 C490 1.490 . S
C516 C517 1.380 . S
C516 C521 1.386 . S
C517 H474 0.930 . S
C517 C516 1.380 . S
C517 C518 1.381 . S
C518 H475 0.929 . S
C518 C517 1.381 . S
C518 C519 1.371 . S
C519 C518 1.371 . S
C519 C520 1.380 . S
C520 H476 0.931 . S
C520 C519 1.380 . S
C520 C521 1.387 . S
C521 H477 0.930 . S
C521 C516 1.386 . S
C521 C520 1.387 . S
C522 C491 1.519 . S
C522 C523 1.377 . S
C522 C527 1.361 . S
C523 H478 0.929 . S
C523 C522 1.377 . S
C523 C524 1.386 . S
C524 H479 0.931 . S
C524 C523 1.386 . S
C524 C525 1.363 . S
C525 C524 1.363 . S
C525 C526 1.385 . S
C526 H480 0.930 . S
C526 C525 1.385 . S
C526 C527 1.396 . S
C527 H481 0.929 . S
C527 C522 1.361 . S
C527 C526 1.396 . S
C528 O482 1.300 . S
C528 O483 1.209 . S
C528 C501 1.486 . S
C529 O484 1.199 . S
C529 O485 1.297 . S
C529 C513 1.476 . S
H530 O556 0.856 . S
H531 O559 0.854 . S
H532 C567 0.930 . S
H533 C568 0.930 . S
H534 C570 0.930 . S
H535 C571 0.930 . S
H536 C573 0.931 . S
H537 C574 0.930 . S
H538 C576 0.930 . S
H539 C577 0.929 . S
H540 C579 0.930 . S
H541 C580 0.931 . S
H542 C582 0.930 . S
H543 C583 0.929 . S
H544 C585 0.931 . S
H545 C586 0.930 . S
H546 C588 0.930 . S
H547 C589 0.932 . S
H548 C591 0.930 . S
H549 C592 0.929 . S
H550 C594 0.931 . S
H551 C595 0.930 . S
H552 C597 0.929 . S
H553 C598 0.931 . S
H554 C600 0.930 . S
H555 C601 0.929 . S
O556 H530 0.856 . S
O556 C602 1.300 . S
O557 C602 1.209 . S
O558 C603 1.199 . S
O559 H531 0.854 . S
O559 C603 1.297 1_565 S
C560 C561 1.404 . S
C560 C565 1.397 . S
C560 C566 1.492 . S
C561 C560 1.404 . S
C561 C562 1.396 . S
C561 C572 1.492 . S
C562 C561 1.396 . S
C562 C563 1.397 . S
C562 C578 1.509 . S
C563 C562 1.397 . S
C563 C564 1.412 . S
C563 C584 1.485 . S
C564 C563 1.412 . S
C564 C565 1.388 . S
C564 C590 1.490 . S
C565 C560 1.397 . S
C565 C564 1.388 . S
C565 C596 1.519 . S
C566 C560 1.492 . S
C566 C567 1.363 . S
C566 C571 1.390 . S
C567 H532 0.930 . S
C567 C566 1.363 . S
C567 C568 1.372 . S
C568 H533 0.930 . S
C568 C567 1.372 . S
C568 C569 1.383 . S
C569 C568 1.383 . S
C569 C570 1.395 . S
C570 H534 0.930 . S
C570 C569 1.395 . S
C570 C571 1.362 . S
C571 H535 0.930 . S
C571 C566 1.390 . S
C571 C570 1.362 . S
C572 C561 1.492 . S
C572 C573 1.377 . S
C572 C577 1.397 . S
C573 H536 0.931 . S
C573 C572 1.377 . S
C573 C574 1.376 1_556 S
C574 H537 0.930 . S
C574 C573 1.376 1_554 S
C574 C575 1.376 . S
C575 C574 1.376 . S
C575 C576 1.378 . S
C575 C602 1.486 . S
C576 H538 0.930 . S
C576 C575 1.378 . S
C576 C577 1.376 1_554 S
C577 H539 0.929 . S
C577 C572 1.397 . S
C577 C576 1.376 1_556 S
C578 C562 1.509 . S
C578 C579 1.391 . S
C578 C583 1.386 . S
C579 H540 0.930 . S
C579 C578 1.391 . S
C579 C580 1.375 . S
C580 H541 0.931 . S
C580 C579 1.375 . S
C580 C581 1.375 . S
C581 C580 1.375 . S
C581 C582 1.361 . S
C582 H542 0.930 . S
C582 C581 1.361 . S
C582 C583 1.399 . S
C583 H543 0.929 . S
C583 C578 1.386 . S
C583 C582 1.399 . S
C584 C563 1.485 . S
C584 C585 1.394 . S
C584 C589 1.360 . S
C585 H544 0.931 . S
C585 C584 1.394 . S
C585 C586 1.372 . S
C586 H545 0.930 . S
C586 C585 1.372 . S
C586 C587 1.397 . S
C587 C586 1.397 . S
C587 C588 1.390 . S
C587 C603 1.476 . S
C588 H546 0.930 . S
C588 C587 1.390 . S
C588 C589 1.366 . S
C589 H547 0.932 . S
C589 C584 1.360 . S
C589 C588 1.366 . S
C590 C564 1.490 . S
C590 C591 1.380 . S
C590 C595 1.386 . S
C591 H548 0.930 . S
C591 C590 1.380 . S
C591 C592 1.381 . S
C592 H549 0.929 . S
C592 C591 1.381 . S
C592 C593 1.371 . S
C593 C592 1.371 . S
C593 C594 1.380 . S
C594 H550 0.931 . S
C594 C593 1.380 . S
C594 C595 1.387 . S
C595 H551 0.930 . S
C595 C590 1.386 . S
C595 C594 1.387 . S
C596 C565 1.519 . S
C596 C597 1.377 . S
C596 C601 1.361 . S
C597 H552 0.929 . S
C597 C596 1.377 . S
C597 C598 1.386 . S
C598 H553 0.931 . S
C598 C597 1.386 . S
C598 C599 1.363 . S
C599 C598 1.363 . S
C599 C600 1.385 . S
C600 H554 0.930 . S
C600 C599 1.385 . S
C600 C601 1.396 . S
C601 H555 0.929 . S
C601 C596 1.361 . S
C601 C600 1.396 . S
C602 O556 1.300 . S
C602 O557 1.209 . S
C602 C575 1.486 . S
C603 O558 1.199 . S
C603 O559 1.297 1_545 S
C603 C587 1.476 . S
H604 O630 0.856 . S
H605 O633 0.854 . S
H606 C641 0.930 . S
H607 C642 0.930 . S
H608 C644 0.930 . S
H609 C645 0.930 . S
H610 C647 0.927 1_556 S
H611 C648 0.930 . S
H612 C650 0.930 . S
H613 C651 0.929 . S
H614 C653 0.930 . S
H615 C654 0.931 1_554 S
H616 C656 0.930 . S
H617 C657 0.929 . S
H618 C659 0.931 . S
H619 C660 0.930 . S
H620 C662 0.930 . S
H621 C663 0.932 . S
H622 C665 0.930 . S
H623 C666 0.929 . S
H624 C668 0.931 . S
H625 C669 0.930 . S
H626 C671 0.929 . S
H627 C672 0.931 . S
H628 C674 0.930 . S
H629 C675 0.929 . S
O630 H604 0.856 . S
O630 C676 1.300 . S
O631 C676 1.209 . S
O632 C677 1.199 . S
O633 H605 0.854 . S
O633 C677 1.297 . S
C634 C635 1.404 . S
C634 C639 1.397 . S
C634 C640 1.492 . S
C635 C634 1.404 . S
C635 C636 1.396 . S
C635 C646 1.492 . S
C636 C635 1.396 . S
C636 C637 1.397 . S
C636 C652 1.509 . S
C637 C636 1.397 . S
C637 C638 1.412 . S
C637 C658 1.485 . S
C638 C637 1.412 . S
C638 C639 1.388 . S
C638 C664 1.490 . S
C639 C634 1.397 . S
C639 C638 1.388 . S
C639 C670 1.519 . S
C640 C634 1.492 . S
C640 C641 1.363 . S
C640 C645 1.390 . S
C641 H606 0.930 . S
C641 C640 1.363 . S
C641 C642 1.372 . S
C642 H607 0.930 . S
C642 C641 1.372 . S
C642 C643 1.383 . S
C643 C642 1.383 . S
C643 C644 1.395 . S
C644 H608 0.930 . S
C644 C643 1.395 . S
C644 C645 1.362 . S
C645 H609 0.930 . S
C645 C640 1.390 . S
C645 C644 1.362 . S
C646 C635 1.492 . S
C646 C647 1.362 1_556 S
C646 C651 1.397 . S
C647 H610 0.927 1_554 S
C647 C646 1.362 1_554 S
C647 C648 1.395 . S
C648 H611 0.930 . S
C648 C647 1.395 . S
C648 C649 1.376 . S
C649 C648 1.376 . S
C649 C650 1.378 . S
C649 C676 1.486 . S
C650 H612 0.930 . S
C650 C649 1.378 . S
C650 C651 1.376 1_554 S
C651 H613 0.929 . S
C651 C646 1.397 . S
C651 C650 1.376 1_556 S
C652 C636 1.509 . S
C652 C653 1.391 . S
C652 C657 1.386 . S
C653 H614 0.930 . S
C653 C652 1.391 . S
C653 C654 1.375 . S
C654 H615 0.931 1_556 S
C654 C653 1.375 . S
C654 C655 1.375 1_556 S
C655 C654 1.375 1_554 S
C655 C656 1.361 1_554 S
C656 H616 0.930 . S
C656 C655 1.361 1_556 S
C656 C657 1.399 . S
C657 H617 0.929 . S
C657 C652 1.386 . S
C657 C656 1.399 . S
C658 C637 1.485 . S
C658 C659 1.394 . S
C658 C663 1.360 . S
C659 H618 0.931 . S
C659 C658 1.394 . S
C659 C660 1.372 . S
C660 H619 0.930 . S
C660 C659 1.372 . S
C660 C661 1.397 . S
C661 C660 1.397 . S
C661 C662 1.390 . S
C661 C677 1.476 . S
C662 H620 0.930 . S
C662 C661 1.390 . S
C662 C663 1.366 . S
C663 H621 0.932 . S
C663 C658 1.360 . S
C663 C662 1.366 . S
C664 C638 1.490 . S
C664 C665 1.380 . S
C664 C669 1.386 . S
C665 H622 0.930 . S
C665 C664 1.380 . S
C665 C666 1.381 . S
C666 H623 0.929 . S
C666 C665 1.381 . S
C666 C667 1.371 . S
C667 C666 1.371 . S
C667 C668 1.380 . S
C668 H624 0.931 . S
C668 C667 1.380 . S
C668 C669 1.387 . S
C669 H625 0.930 . S
C669 C664 1.386 . S
C669 C668 1.387 . S
C670 C639 1.519 . S
C670 C671 1.377 . S
C670 C675 1.361 . S
C671 H626 0.929 . S
C671 C670 1.377 . S
C671 C672 1.386 . S
C672 H627 0.931 . S
C672 C671 1.386 . S
C672 C673 1.363 . S
C673 C672 1.363 . S
C673 C674 1.385 . S
C674 H628 0.930 . S
C674 C673 1.385 . S
C674 C675 1.396 . S
C675 H629 0.929 . S
C675 C670 1.361 . S
C675 C674 1.396 . S
C676 O630 1.300 . S
C676 O631 1.209 . S
C676 C649 1.486 . S
C677 O632 1.199 . S
C677 O633 1.297 . S
C677 C661 1.476 . S
H678 O704 0.856 . S
H679 O707 0.854 . S
H680 C715 0.930 . S
H681 C716 0.930 . S
H682 C718 0.930 . S
H683 C719 0.930 . S
H684 C721 0.931 . S
H685 C722 0.930 . S
H686 C724 0.930 . S
H687 C725 0.929 . S
H688 C727 0.930 . S
H689 C728 0.931 . S
H690 C730 0.930 . S
H691 C731 0.929 . S
H692 C733 0.931 . S
H693 C734 0.930 . S
H694 C736 0.930 . S
H695 C737 0.932 . S
H696 C739 0.930 . S
H697 C740 0.929 . S
H698 C742 0.931 . S
H699 C743 0.930 . S
H700 C745 0.929 . S
H701 C746 0.931 . S
H702 C748 0.930 . S
H703 C749 0.929 . S
O704 H678 0.856 . S
O704 C750 1.300 . S
O705 C750 1.209 . S
O706 C751 1.199 . S
O707 H679 0.854 . S
O707 C751 1.297 . S
C708 C709 1.404 . S
C708 C713 1.397 . S
C708 C714 1.492 . S
C709 C708 1.404 . S
C709 C710 1.396 . S
C709 C720 1.492 . S
C710 C709 1.396 . S
C710 C711 1.397 . S
C710 C726 1.509 . S
C711 C710 1.397 . S
C711 C712 1.412 . S
C711 C732 1.485 . S
C712 C711 1.412 . S
C712 C713 1.388 . S
C712 C738 1.490 . S
C713 C708 1.397 . S
C713 C712 1.388 . S
C713 C744 1.519 . S
C714 C708 1.492 . S
C714 C715 1.363 . S
C714 C719 1.390 . S
C715 H680 0.930 . S
C715 C714 1.363 . S
C715 C716 1.372 . S
C716 H681 0.930 . S
C716 C715 1.372 . S
C716 C717 1.383 . S
C717 C716 1.383 . S
C717 C718 1.395 . S
C718 H682 0.930 . S
C718 C717 1.395 . S
C718 C719 1.362 . S
C719 H683 0.930 . S
C719 C714 1.390 . S
C719 C718 1.362 . S
C720 C709 1.492 . S
C720 C721 1.377 . S
C720 C725 1.397 . S
C721 H684 0.931 . S
C721 C720 1.377 . S
C721 C722 1.376 . S
C722 H685 0.930 . S
C722 C721 1.376 . S
C722 C723 1.376 . S
C723 C722 1.376 . S
C723 C724 1.378 . S
C723 C750 1.486 . S
C724 H686 0.930 . S
C724 C723 1.378 . S
C724 C725 1.376 . S
C725 H687 0.929 . S
C725 C720 1.397 . S
C725 C724 1.376 . S
C726 C710 1.509 . S
C726 C727 1.391 . S
C726 C731 1.386 . S
C727 H688 0.930 . S
C727 C726 1.391 . S
C727 C728 1.375 . S
C728 H689 0.931 . S
C728 C727 1.375 . S
C728 C729 1.375 . S
C729 C728 1.375 . S
C729 C730 1.361 . S
C730 H690 0.930 . S
C730 C729 1.361 . S
C730 C731 1.399 . S
C731 H691 0.929 . S
C731 C726 1.386 . S
C731 C730 1.399 . S
C732 C711 1.485 . S
C732 C733 1.394 . S
C732 C737 1.360 . S
C733 H692 0.931 . S
C733 C732 1.394 . S
C733 C734 1.372 . S
C734 H693 0.930 . S
C734 C733 1.372 . S
C734 C735 1.397 . S
C735 C734 1.397 . S
C735 C736 1.390 . S
C735 C751 1.476 . S
C736 H694 0.930 . S
C736 C735 1.390 . S
C736 C737 1.366 . S
C737 H695 0.932 . S
C737 C732 1.360 . S
C737 C736 1.366 . S
C738 C712 1.490 . S
C738 C739 1.380 . S
C738 C743 1.386 . S
C739 H696 0.930 . S
C739 C738 1.380 . S
C739 C740 1.381 . S
C740 H697 0.929 . S
C740 C739 1.381 . S
C740 C741 1.371 . S
C741 C740 1.371 . S
C741 C742 1.380 . S
C742 H698 0.931 . S
C742 C741 1.380 . S
C742 C743 1.387 . S
C743 H699 0.930 . S
C743 C738 1.386 . S
C743 C742 1.387 . S
C744 C713 1.519 . S
C744 C745 1.377 . S
C744 C749 1.361 . S
C745 H700 0.929 . S
C745 C744 1.377 . S
C745 C746 1.386 . S
C746 H701 0.931 . S
C746 C745 1.386 . S
C746 C747 1.363 . S
C747 C746 1.363 . S
C747 C748 1.385 . S
C748 H702 0.930 . S
C748 C747 1.385 . S
C748 C749 1.396 . S
C749 H703 0.929 . S
C749 C744 1.361 . S
C749 C748 1.396 . S
C750 O704 1.300 . S
C750 O705 1.209 . S
C750 C723 1.486 . S
C751 O706 1.199 . S
C751 O707 1.297 . S
C751 C735 1.476 . S
H752 O778 0.856 . S
H753 O781 0.854 . S
H754 C789 0.930 . S
H755 C790 0.930 . S
H756 C792 0.930 . S
H757 C793 0.930 . S
H758 C795 0.931 . S
H759 C796 0.930 . S
H760 C798 0.930 . S
H761 C799 0.929 . S
H762 C801 0.930 . S
H763 C802 0.931 . S
H764 C804 0.930 . S
H765 C805 0.929 . S
H766 C807 0.931 . S
H767 C808 0.930 . S
H768 C810 0.930 . S
H769 C811 0.932 . S
H770 C813 0.930 . S
H771 C814 0.929 . S
H772 C816 0.931 . S
H773 C817 0.930 . S
H774 C819 0.929 . S
H775 C820 0.931 . S
H776 C822 0.930 . S
H777 C823 0.929 . S
O778 H752 0.856 . S
O778 C824 1.300 . S
O779 C824 1.209 . S
O780 C825 1.199 . S
O781 H753 0.854 . S
O781 C825 1.297 . S
C782 C783 1.404 . S
C782 C787 1.397 . S
C782 C788 1.492 . S
C783 C782 1.404 . S
C783 C784 1.396 . S
C783 C794 1.492 . S
C784 C783 1.396 . S
C784 C785 1.397 . S
C784 C800 1.509 . S
C785 C784 1.397 . S
C785 C786 1.412 . S
C785 C806 1.485 . S
C786 C785 1.412 . S
C786 C787 1.388 . S
C786 C812 1.490 . S
C787 C782 1.397 . S
C787 C786 1.388 . S
C787 C818 1.519 . S
C788 C782 1.492 . S
C788 C789 1.363 . S
C788 C793 1.390 . S
C789 H754 0.930 . S
C789 C788 1.363 . S
C789 C790 1.372 . S
C790 H755 0.930 . S
C790 C789 1.372 . S
C790 C791 1.383 . S
C791 C790 1.383 . S
C791 C792 1.395 . S
C792 H756 0.930 . S
C792 C791 1.395 . S
C792 C793 1.362 . S
C793 H757 0.930 . S
C793 C788 1.390 . S
C793 C792 1.362 . S
C794 C783 1.492 . S
C794 C795 1.377 . S
C794 C799 1.397 . S
C795 H758 0.931 . S
C795 C794 1.377 . S
C795 C796 1.376 . S
C796 H759 0.930 . S
C796 C795 1.376 . S
C796 C797 1.376 . S
C797 C796 1.376 . S
C797 C798 1.378 . S
C797 C824 1.486 . S
C798 H760 0.930 . S
C798 C797 1.378 . S
C798 C799 1.376 . S
C799 H761 0.929 . S
C799 C794 1.397 . S
C799 C798 1.376 . S
C800 C784 1.509 . S
C800 C801 1.391 . S
C800 C805 1.386 . S
C801 H762 0.930 . S
C801 C800 1.391 . S
C801 C802 1.375 . S
C802 H763 0.931 . S
C802 C801 1.375 . S
C802 C803 1.375 . S
C803 C802 1.375 . S
C803 C804 1.361 . S
C804 H764 0.930 . S
C804 C803 1.361 . S
C804 C805 1.399 . S
C805 H765 0.929 . S
C805 C800 1.386 . S
C805 C804 1.399 . S
C806 C785 1.485 . S
C806 C807 1.394 . S
C806 C811 1.360 . S
C807 H766 0.931 . S
C807 C806 1.394 . S
C807 C808 1.372 . S
C808 H767 0.930 . S
C808 C807 1.372 . S
C808 C809 1.397 . S
C809 C808 1.397 . S
C809 C810 1.390 . S
C809 C825 1.476 . S
C810 H768 0.930 . S
C810 C809 1.390 . S
C810 C811 1.366 . S
C811 H769 0.932 . S
C811 C806 1.360 . S
C811 C810 1.366 . S
C812 C786 1.490 . S
C812 C813 1.380 . S
C812 C817 1.386 . S
C813 H770 0.930 . S
C813 C812 1.380 . S
C813 C814 1.381 . S
C814 H771 0.929 . S
C814 C813 1.381 . S
C814 C815 1.371 . S
C815 C814 1.371 . S
C815 C816 1.380 . S
C816 H772 0.931 . S
C816 C815 1.380 . S
C816 C817 1.387 . S
C817 H773 0.930 . S
C817 C812 1.386 . S
C817 C816 1.387 . S
C818 C787 1.519 . S
C818 C819 1.377 . S
C818 C823 1.361 . S
C819 H774 0.929 . S
C819 C818 1.377 . S
C819 C820 1.386 . S
C820 H775 0.931 . S
C820 C819 1.386 . S
C820 C821 1.363 . S
C821 C820 1.363 . S
C821 C822 1.385 . S
C822 H776 0.930 . S
C822 C821 1.385 . S
C822 C823 1.396 . S
C823 H777 0.929 . S
C823 C818 1.361 . S
C823 C822 1.396 . S
C824 O778 1.300 . S
C824 O779 1.209 . S
C824 C797 1.486 . S
C825 O780 1.199 . S
C825 O781 1.297 . S
C825 C809 1.476 . S
H826 O852 0.856 . S
H827 O855 0.854 . S
H828 C863 0.930 . S
H829 C864 0.930 . S
H830 C866 0.930 . S
H831 C867 0.930 . S
H832 C869 0.931 . S
H833 C870 0.930 . S
H834 C872 0.930 . S
H835 C873 0.929 . S
H836 C875 0.930 . S
H837 C876 0.931 . S
H838 C878 0.930 . S
H839 C879 0.929 . S
H840 C881 0.931 . S
H841 C882 0.930 . S
H842 C884 0.930 . S
H843 C885 0.932 . S
H844 C887 0.930 . S
H845 C888 0.929 . S
H846 C890 0.931 . S
H847 C891 0.930 . S
H848 C893 0.929 . S
H849 C894 0.931 . S
H850 C896 0.930 . S
H851 C897 0.929 . S
O852 H826 0.856 . S
O852 C898 1.300 . S
O853 C898 1.209 . S
O854 C899 1.199 . S
O855 H827 0.854 . S
O855 C899 1.297 . S
C856 C857 1.404 . S
C856 C861 1.397 . S
C856 C862 1.492 . S
C857 C856 1.404 . S
C857 C858 1.396 . S
C857 C868 1.492 . S
C858 C857 1.396 . S
C858 C859 1.397 . S
C858 C874 1.509 . S
C859 C858 1.397 . S
C859 C860 1.412 . S
C859 C880 1.485 . S
C860 C859 1.412 . S
C860 C861 1.388 . S
C860 C886 1.490 . S
C861 C856 1.397 . S
C861 C860 1.388 . S
C861 C892 1.519 . S
C862 C856 1.492 . S
C862 C863 1.363 . S
C862 C867 1.390 . S
C863 H828 0.930 . S
C863 C862 1.363 . S
C863 C864 1.372 . S
C864 H829 0.930 . S
C864 C863 1.372 . S
C864 C865 1.383 . S
C865 C864 1.383 . S
C865 C866 1.395 . S
C866 H830 0.930 . S
C866 C865 1.395 . S
C866 C867 1.362 . S
C867 H831 0.930 . S
C867 C862 1.390 . S
C867 C866 1.362 . S
C868 C857 1.492 . S
C868 C869 1.377 . S
C868 C873 1.397 . S
C869 H832 0.931 . S
C869 C868 1.377 . S
C869 C870 1.376 . S
C870 H833 0.930 . S
C870 C869 1.376 . S
C870 C871 1.376 . S
C871 C870 1.376 . S
C871 C872 1.378 . S
C871 C898 1.486 . S
C872 H834 0.930 . S
C872 C871 1.378 . S
C872 C873 1.376 . S
C873 H835 0.929 . S
C873 C868 1.397 . S
C873 C872 1.376 . S
C874 C858 1.509 . S
C874 C875 1.391 . S
C874 C879 1.386 . S
C875 H836 0.930 . S
C875 C874 1.391 . S
C875 C876 1.375 . S
C876 H837 0.931 . S
C876 C875 1.375 . S
C876 C877 1.375 . S
C877 C876 1.375 . S
C877 C878 1.361 . S
C878 H838 0.930 . S
C878 C877 1.361 . S
C878 C879 1.399 . S
C879 H839 0.929 . S
C879 C874 1.386 . S
C879 C878 1.399 . S
C880 C859 1.485 . S
C880 C881 1.394 . S
C880 C885 1.360 . S
C881 H840 0.931 . S
C881 C880 1.394 . S
C881 C882 1.372 . S
C882 H841 0.930 . S
C882 C881 1.372 . S
C882 C883 1.397 . S
C883 C882 1.397 . S
C883 C884 1.390 . S
C883 C899 1.476 . S
C884 H842 0.930 . S
C884 C883 1.390 . S
C884 C885 1.366 . S
C885 H843 0.932 . S
C885 C880 1.360 . S
C885 C884 1.366 . S
C886 C860 1.490 . S
C886 C887 1.380 . S
C886 C891 1.386 . S
C887 H844 0.930 . S
C887 C886 1.380 . S
C887 C888 1.381 . S
C888 H845 0.929 . S
C888 C887 1.381 . S
C888 C889 1.371 . S
C889 C888 1.371 . S
C889 C890 1.380 . S
C890 H846 0.931 . S
C890 C889 1.380 . S
C890 C891 1.387 . S
C891 H847 0.930 . S
C891 C886 1.386 . S
C891 C890 1.387 . S
C892 C861 1.519 . S
C892 C893 1.377 . S
C892 C897 1.361 . S
C893 H848 0.929 . S
C893 C892 1.377 . S
C893 C894 1.386 . S
C894 H849 0.931 . S
C894 C893 1.386 . S
C894 C895 1.363 . S
C895 C894 1.363 . S
C895 C896 1.385 . S
C896 H850 0.930 . S
C896 C895 1.385 . S
C896 C897 1.396 . S
C897 H851 0.929 . S
C897 C892 1.361 . S
C897 C896 1.396 . S
C898 O852 1.300 . S
C898 O853 1.209 . S
C898 C871 1.486 . S
C899 O854 1.199 . S
C899 O855 1.297 . S
C899 C883 1.476 . S
H900 O926 0.856 . S
H901 O929 0.854 . S
H902 C937 0.930 . S
H903 C938 0.930 . S
H904 C940 0.930 . S
H905 C941 0.930 . S
H906 C943 0.931 . S
H907 C944 0.930 1_655 S
H908 C946 0.930 . S
H909 C947 0.929 . S
H910 C949 0.930 . S
H911 C950 0.931 1_655 S
H912 C952 0.930 . S
H913 C953 0.929 . S
H914 C955 0.931 . S
H915 C956 0.930 . S
H916 C958 0.930 . S
H917 C959 0.932 . S
H918 C961 0.930 . S
H919 C962 0.929 . S
H920 C964 0.931 . S
H921 C965 0.930 . S
H922 C967 0.929 . S
H923 C968 0.931 . S
H924 C970 0.930 . S
H925 C971 0.929 . S
O926 H900 0.856 . S
O926 C972 1.300 . S
O927 C972 1.209 . S
O928 C973 1.199 1_655 S
O929 H901 0.854 . S
O929 C973 1.297 . S
C930 C931 1.404 . S
C930 C935 1.397 . S
C930 C936 1.492 . S
C931 C930 1.404 . S
C931 C932 1.396 . S
C931 C942 1.492 . S
C932 C931 1.396 . S
C932 C933 1.397 . S
C932 C948 1.509 . S
C933 C932 1.397 . S
C933 C934 1.432 . S
C933 C954 1.485 . S
C934 C933 1.432 . S
C934 C935 1.368 . S
C934 C960 1.491 1_455 S
C935 C930 1.397 . S
C935 C934 1.368 . S
C935 C966 1.519 1_455 S
C936 C930 1.492 . S
C936 C937 1.363 1_455 S
C936 C941 1.390 . S
C937 H902 0.930 . S
C937 C936 1.363 1_655 S
C937 C938 1.372 . S
C938 H903 0.930 . S
C938 C937 1.372 . S
C938 C939 1.383 . S
C939 C938 1.383 . S
C939 C940 1.395 1_655 S
C940 H904 0.930 . S
C940 C939 1.395 1_455 S
C940 C941 1.362 . S
C941 H905 0.930 . S
C941 C936 1.390 . S
C941 C940 1.362 . S
C942 C931 1.492 . S
C942 C943 1.377 1_455 S
C942 C947 1.397 . S
C943 H906 0.931 . S
C943 C942 1.377 1_655 S
C943 C944 1.376 1_655 S
C944 H907 0.930 1_455 S
C944 C943 1.376 1_455 S
C944 C945 1.376 . S
C945 C944 1.376 . S
C945 C946 1.378 . S
C945 C972 1.486 . S
C946 H908 0.930 . S
C946 C945 1.378 . S
C946 C947 1.376 . S
C947 H909 0.929 . S
C947 C942 1.397 . S
C947 C946 1.376 . S
C948 C932 1.509 . S
C948 C949 1.391 1_455 S
C948 C953 1.386 . S
C949 H910 0.930 . S
C949 C948 1.391 1_655 S
C949 C950 1.375 1_655 S
C950 H911 0.931 1_455 S
C950 C949 1.375 1_455 S
C950 C951 1.375 . S
C951 C950 1.375 . S
C951 C952 1.361 . S
C952 H912 0.930 . S
C952 C951 1.361 . S
C952 C953 1.399 . S
C953 H913 0.929 . S
C953 C948 1.386 . S
C953 C952 1.399 . S
C954 C933 1.485 . S
C954 C955 1.394 1_455 S
C954 C959 1.360 . S
C955 H914 0.931 . S
C955 C954 1.394 1_655 S
C955 C956 1.372 . S
C956 H915 0.930 . S
C956 C955 1.372 . S
C956 C957 1.397 1_655 S
C957 C956 1.397 1_455 S
C957 C958 1.390 . S
C957 C973 1.476 . S
C958 H916 0.930 . S
C958 C957 1.390 . S
C958 C959 1.366 . S
C959 H917 0.932 . S
C959 C954 1.360 . S
C959 C958 1.366 . S
C960 C934 1.491 1_655 S
C960 C961 1.380 . S
C960 C965 1.386 1_655 S
C961 H918 0.930 . S
C961 C960 1.380 . S
C961 C962 1.381 . S
C962 H919 0.929 . S
C962 C961 1.381 . S
C962 C963 1.371 . S
C963 C962 1.371 . S
C963 C964 1.380 1_655 S
C964 H920 0.931 . S
C964 C963 1.380 1_455 S
C964 C965 1.387 . S
C965 H921 0.930 . S
C965 C960 1.386 1_455 S
C965 C964 1.387 . S
C966 C935 1.519 1_655 S
C966 C967 1.377 . S
C966 C971 1.361 1_655 S
C967 H922 0.929 . S
C967 C966 1.377 . S
C967 C968 1.386 . S
C968 H923 0.931 . S
C968 C967 1.386 . S
C968 C969 1.363 . S
C969 C968 1.363 . S
C969 C970 1.385 1_655 S
C970 H924 0.930 . S
C970 C969 1.385 1_455 S
C970 C971 1.396 . S
C971 H925 0.929 . S
C971 C966 1.361 1_455 S
C971 C970 1.396 . S
C972 O926 1.300 . S
C972 O927 1.209 . S
C972 C945 1.486 . S
C973 O928 1.199 1_455 S
C973 O929 1.297 . S
C973 C957 1.476 . S
H974 O1000 0.856 . S
H975 O1003 0.854 . S
H976 C1011 0.930 . S
H977 C1012 0.930 . S
H978 C1014 0.930 . S
H979 C1015 0.930 . S
H980 C1017 0.931 . S
H981 C1018 0.930 . S
H982 C1020 0.930 . S
H983 C1021 0.929 . S
H984 C1023 0.930 . S
H985 C1024 0.931 . S
H986 C1026 0.930 . S
H987 C1027 0.929 . S
H988 C1029 0.931 . S
H989 C1030 0.930 . S
H990 C1032 0.930 . S
H991 C1033 0.932 . S
H992 C1035 0.930 . S
H993 C1036 0.929 . S
H994 C1038 0.931 . S
H995 C1039 0.930 . S
H996 C1041 0.929 . S
H997 C1042 0.931 . S
H998 C1044 0.930 . S
H999 C1045 0.929 . S
O1000 H974 0.856 . S
O1000 C1046 1.300 . S
O1001 C1046 1.209 . S
O1002 C1047 1.199 . S
O1003 H975 0.854 . S
O1003 C1047 1.297 . S
C1004 C1005 1.404 . S
C1004 C1009 1.397 . S
C1004 C1010 1.492 . S
C1005 C1004 1.404 . S
C1005 C1006 1.396 . S
C1005 C1016 1.492 . S
C1006 C1005 1.396 . S
C1006 C1007 1.397 . S
C1006 C1022 1.509 . S
C1007 C1006 1.397 . S
C1007 C1008 1.412 . S
C1007 C1028 1.485 . S
C1008 C1007 1.412 . S
C1008 C1009 1.388 . S
C1008 C1034 1.490 . S
C1009 C1004 1.397 . S
C1009 C1008 1.388 . S
C1009 C1040 1.519 . S
C1010 C1004 1.492 . S
C1010 C1011 1.363 . S
C1010 C1015 1.390 . S
C1011 H976 0.930 . S
C1011 C1010 1.363 . S
C1011 C1012 1.372 . S
C1012 H977 0.930 . S
C1012 C1011 1.372 . S
C1012 C1013 1.383 . S
C1013 C1012 1.383 . S
C1013 C1014 1.395 . S
C1014 H978 0.930 . S
C1014 C1013 1.395 . S
C1014 C1015 1.362 . S
C1015 H979 0.930 . S
C1015 C1010 1.390 . S
C1015 C1014 1.362 . S
C1016 C1005 1.492 . S
C1016 C1017 1.377 . S
C1016 C1021 1.397 . S
C1017 H980 0.931 . S
C1017 C1016 1.377 . S
C1017 C1018 1.376 . S
C1018 H981 0.930 . S
C1018 C1017 1.376 . S
C1018 C1019 1.376 . S
C1019 C1018 1.376 . S
C1019 C1020 1.378 . S
C1019 C1046 1.486 . S
C1020 H982 0.930 . S
C1020 C1019 1.378 . S
C1020 C1021 1.376 . S
C1021 H983 0.929 . S
C1021 C1016 1.397 . S
C1021 C1020 1.376 . S
C1022 C1006 1.509 . S
C1022 C1023 1.391 . S
C1022 C1027 1.386 . S
C1023 H984 0.930 . S
C1023 C1022 1.391 . S
C1023 C1024 1.375 . S
C1024 H985 0.931 . S
C1024 C1023 1.375 . S
C1024 C1025 1.375 . S
C1025 C1024 1.375 . S
C1025 C1026 1.361 . S
C1026 H986 0.930 . S
C1026 C1025 1.361 . S
C1026 C1027 1.399 . S
C1027 H987 0.929 . S
C1027 C1022 1.386 . S
C1027 C1026 1.399 . S
C1028 C1007 1.485 . S
C1028 C1029 1.394 . S
C1028 C1033 1.360 . S
C1029 H988 0.931 . S
C1029 C1028 1.394 . S
C1029 C1030 1.372 . S
C1030 H989 0.930 . S
C1030 C1029 1.372 . S
C1030 C1031 1.397 . S
C1031 C1030 1.397 . S
C1031 C1032 1.390 . S
C1031 C1047 1.476 . S
C1032 H990 0.930 . S
C1032 C1031 1.390 . S
C1032 C1033 1.366 . S
C1033 H991 0.932 . S
C1033 C1028 1.360 . S
C1033 C1032 1.366 . S
C1034 C1008 1.490 . S
C1034 C1035 1.380 . S
C1034 C1039 1.386 . S
C1035 H992 0.930 . S
C1035 C1034 1.380 . S
C1035 C1036 1.381 . S
C1036 H993 0.929 . S
C1036 C1035 1.381 . S
C1036 C1037 1.371 . S
C1037 C1036 1.371 . S
C1037 C1038 1.380 . S
C1038 H994 0.931 . S
C1038 C1037 1.380 . S
C1038 C1039 1.387 . S
C1039 H995 0.930 . S
C1039 C1034 1.386 . S
C1039 C1038 1.387 . S
C1040 C1009 1.519 . S
C1040 C1041 1.377 . S
C1040 C1045 1.361 . S
C1041 H996 0.929 . S
C1041 C1040 1.377 . S
C1041 C1042 1.386 . S
C1042 H997 0.931 . S
C1042 C1041 1.386 . S
C1042 C1043 1.363 . S
C1043 C1042 1.363 . S
C1043 C1044 1.385 . S
C1044 H998 0.930 . S
C1044 C1043 1.385 . S
C1044 C1045 1.396 . S
C1045 H999 0.929 . S
C1045 C1040 1.361 . S
C1045 C1044 1.396 . S
C1046 O1000 1.300 . S
C1046 O1001 1.209 . S
C1046 C1019 1.486 . S
C1047 O1002 1.199 . S
C1047 O1003 1.297 . S
C1047 C1031 1.476 . S
H1048 O1074 0.856 . S
H1049 O1077 0.854 . S
H1050 C1085 0.930 . S
H1051 C1086 0.930 . S
H1052 C1088 0.930 . S
H1053 C1089 0.930 . S
H1054 C1091 0.931 . S
H1055 C1092 0.910 1_545 S
H1056 C1094 0.930 . S
H1057 C1095 0.929 . S
H1058 C1097 0.930 . S
H1059 C1098 0.931 . S
H1060 C1100 0.930 . S
H1061 C1101 0.929 . S
H1062 C1103 0.931 . S
H1063 C1104 0.930 . S
H1064 C1106 0.930 . S
H1065 C1107 0.932 . S
H1066 C1109 0.930 . S
H1067 C1110 0.929 . S
H1068 C1112 0.931 . S
H1069 C1113 0.930 . S
H1070 C1115 0.929 . S
H1071 C1116 0.931 . S
H1072 C1118 0.930 . S
H1073 C1119 0.929 . S
O1074 H1048 0.856 . S
O1074 C1120 1.300 . S
O1075 C1120 1.209 . S
O1076 C1121 1.199 1_545 S
O1077 H1049 0.854 . S
O1077 C1121 1.297 . S
C1078 C1079 1.404 . S
C1078 C1083 1.416 . S
C1078 C1084 1.492 . S
C1079 C1078 1.404 . S
C1079 C1080 1.396 . S
C1079 C1090 1.492 . S
C1080 C1079 1.396 . S
C1080 C1081 1.397 . S
C1080 C1096 1.509 . S
C1081 C1080 1.397 . S
C1081 C1082 1.412 1_565 S
C1081 C1102 1.485 . S
C1082 C1081 1.412 1_545 S
C1082 C1083 1.362 1_545 S
C1082 C1108 1.489 . S
C1083 C1078 1.416 . S
C1083 C1082 1.362 1_565 S
C1083 C1114 1.535 1_565 S
C1084 C1078 1.492 . S
C1084 C1085 1.363 1_565 S
C1084 C1089 1.390 . S
C1085 H1050 0.930 . S
C1085 C1084 1.363 1_545 S
C1085 C1086 1.372 . S
C1086 H1051 0.930 . S
C1086 C1085 1.372 . S
C1086 C1087 1.383 . S
C1087 C1086 1.383 . S
C1087 C1088 1.395 1_545 S
C1088 H1052 0.930 . S
C1088 C1087 1.395 1_565 S
C1088 C1089 1.362 . S
C1089 H1053 0.930 . S
C1089 C1084 1.390 . S
C1089 C1088 1.362 . S
C1090 C1079 1.492 . S
C1090 C1091 1.377 1_565 S
C1090 C1095 1.397 . S
C1091 H1054 0.931 . S
C1091 C1090 1.377 1_545 S
C1091 C1092 1.363 1_545 S
C1092 H1055 0.910 1_565 S
C1092 C1091 1.363 1_565 S
C1092 C1093 1.409 . S
C1093 C1092 1.409 . S
C1093 C1094 1.378 . S
C1093 C1120 1.486 . S
C1094 H1056 0.930 . S
C1094 C1093 1.378 . S
C1094 C1095 1.376 . S
C1095 H1057 0.929 . S
C1095 C1090 1.397 . S
C1095 C1094 1.376 . S
C1096 C1080 1.509 . S
C1096 C1097 1.391 1_565 S
C1096 C1101 1.386 . S
C1097 H1058 0.930 . S
C1097 C1096 1.391 1_545 S
C1097 C1098 1.375 . S
C1098 H1059 0.931 . S
C1098 C1097 1.375 . S
C1098 C1099 1.375 1_545 S
C1099 C1098 1.375 1_565 S
C1099 C1100 1.361 . S
C1100 H1060 0.930 . S
C1100 C1099 1.361 . S
C1100 C1101 1.399 . S
C1101 H1061 0.929 . S
C1101 C1096 1.386 . S
C1101 C1100 1.399 . S
C1102 C1081 1.485 . S
C1102 C1103 1.394 1_565 S
C1102 C1107 1.360 . S
C1103 H1062 0.931 . S
C1103 C1102 1.394 1_545 S
C1103 C1104 1.372 . S
C1104 H1063 0.930 . S
C1104 C1103 1.372 . S
C1104 C1105 1.397 1_545 S
C1105 C1104 1.397 1_565 S
C1105 C1106 1.390 . S
C1105 C1121 1.476 . S
C1106 H1064 0.930 . S
C1106 C1105 1.390 . S
C1106 C1107 1.366 . S
C1107 H1065 0.932 . S
C1107 C1102 1.360 . S
C1107 C1106 1.366 . S
C1108 C1082 1.489 . S
C1108 C1109 1.380 . S
C1108 C1113 1.386 1_545 S
C1109 H1066 0.930 . S
C1109 C1108 1.380 . S
C1109 C1110 1.381 . S
C1110 H1067 0.929 . S
C1110 C1109 1.381 . S
C1110 C1111 1.371 . S
C1111 C1110 1.371 . S
C1111 C1112 1.380 1_545 S
C1112 H1068 0.931 . S
C1112 C1111 1.380 1_565 S
C1112 C1113 1.387 . S
C1113 H1069 0.930 . S
C1113 C1108 1.386 1_565 S
C1113 C1112 1.387 . S
C1114 C1083 1.535 1_545 S
C1114 C1115 1.379 . S
C1114 C1119 1.357 1_545 S
C1115 H1070 0.929 . S
C1115 C1114 1.379 . S
C1115 C1116 1.386 . S
C1116 H1071 0.931 . S
C1116 C1115 1.386 . S
C1116 C1117 1.363 1_545 S
C1117 C1116 1.363 1_565 S
C1117 C1118 1.385 . S
C1118 H1072 0.930 . S
C1118 C1117 1.385 . S
C1118 C1119 1.396 . S
C1119 H1073 0.929 . S
C1119 C1114 1.357 1_565 S
C1119 C1118 1.396 . S
C1120 O1074 1.300 . S
C1120 O1075 1.209 . S
C1120 C1093 1.486 . S
C1121 O1076 1.199 1_565 S
C1121 O1077 1.297 . S
C1121 C1105 1.476 . S
H1122 O1148 0.856 . S
H1123 O1151 0.854 . S
H1124 C1159 0.930 . S
H1125 C1160 0.930 . S
H1126 C1162 0.930 . S
H1127 C1163 0.930 . S
H1128 C1165 0.931 . S
H1129 C1166 0.930 . S
H1130 C1168 0.930 . S
H1131 C1169 0.929 . S
H1132 C1171 0.930 . S
H1133 C1172 0.931 . S
H1134 C1174 0.930 . S
H1135 C1175 0.929 . S
H1136 C1177 0.931 . S
H1137 C1178 0.930 . S
H1138 C1180 0.930 . S
H1139 C1181 0.932 . S
H1140 C1183 0.930 . S
H1141 C1184 0.929 . S
H1142 C1186 0.931 . S
H1143 C1187 0.930 . S
H1144 C1189 0.929 . S
H1145 C1190 0.931 . S
H1146 C1192 0.930 . S
H1147 C1193 0.929 . S
O1148 H1122 0.856 . S
O1148 C1194 1.300 . S
O1149 C1194 1.209 1_565 S
O1150 C1195 1.199 1_545 S
O1151 H1123 0.854 . S
O1151 C1195 1.297 . S
C1152 C1153 1.404 . S
C1152 C1157 1.396 1_545 S
C1152 C1158 1.492 . S
C1153 C1152 1.404 . S
C1153 C1154 1.396 . S
C1153 C1164 1.492 . S
C1154 C1153 1.396 . S
C1154 C1155 1.385 1_545 S
C1154 C1170 1.527 . S
C1155 C1154 1.385 1_565 S
C1155 C1156 1.400 . S
C1155 C1176 1.511 . S
C1156 C1155 1.400 . S
C1156 C1157 1.390 . S
C1156 C1182 1.490 . S
C1157 C1152 1.396 1_565 S
C1157 C1156 1.390 . S
C1157 C1188 1.518 . S
C1158 C1152 1.492 . S
C1158 C1159 1.363 . S
C1158 C1163 1.390 1_545 S
C1159 H1124 0.930 . S
C1159 C1158 1.363 . S
C1159 C1160 1.372 . S
C1160 H1125 0.930 . S
C1160 C1159 1.372 . S
C1160 C1161 1.383 . S
C1161 C1160 1.383 . S
C1161 C1162 1.395 1_545 S
C1162 H1126 0.930 . S
C1162 C1161 1.395 1_565 S
C1162 C1163 1.362 . S
C1163 H1127 0.930 . S
C1163 C1158 1.390 1_565 S
C1163 C1162 1.362 . S
C1164 C1153 1.492 . S
C1164 C1165 1.377 . S
C1164 C1169 1.397 1_545 S
C1165 H1128 0.931 . S
C1165 C1164 1.377 . S
C1165 C1166 1.376 . S
C1166 H1129 0.930 . S
C1166 C1165 1.376 . S
C1166 C1167 1.376 . S
C1167 C1166 1.376 . S
C1167 C1168 1.378 1_545 S
C1167 C1194 1.486 . S
C1168 H1130 0.930 . S
C1168 C1167 1.378 1_565 S
C1168 C1169 1.376 . S
C1169 H1131 0.929 . S
C1169 C1164 1.397 1_565 S
C1169 C1168 1.376 . S
C1170 C1154 1.527 . S
C1170 C1171 1.413 . S
C1170 C1175 1.349 1_545 S
C1171 H1132 0.930 . S
C1171 C1170 1.413 . S
C1171 C1172 1.375 . S
C1172 H1133 0.931 . S
C1172 C1171 1.375 . S
C1172 C1173 1.395 . S
C1173 C1172 1.395 . S
C1173 C1174 1.351 1_545 S
C1174 H1134 0.930 . S
C1174 C1173 1.351 1_565 S
C1174 C1175 1.399 . S
C1175 H1135 0.929 . S
C1175 C1170 1.349 1_565 S
C1175 C1174 1.399 . S
C1176 C1155 1.511 . S
C1176 C1177 1.394 1_565 S
C1176 C1181 1.360 . S
C1177 H1136 0.931 . S
C1177 C1176 1.394 1_545 S
C1177 C1178 1.372 . S
C1178 H1137 0.930 . S
C1178 C1177 1.372 . S
C1178 C1179 1.397 1_545 S
C1179 C1178 1.397 1_565 S
C1179 C1180 1.390 . S
C1179 C1195 1.476 . S
C1180 H1138 0.930 . S
C1180 C1179 1.390 . S
C1180 C1181 1.366 . S
C1181 H1139 0.932 . S
C1181 C1176 1.360 . S
C1181 C1180 1.366 . S
C1182 C1156 1.490 . S
C1182 C1183 1.380 1_565 S
C1182 C1187 1.386 . S
C1183 H1140 0.930 . S
C1183 C1182 1.380 1_545 S
C1183 C1184 1.381 . S
C1184 H1141 0.929 . S
C1184 C1183 1.381 . S
C1184 C1185 1.336 1_545 S
C1185 C1184 1.336 1_565 S
C1185 C1186 1.407 . S
C1186 H1142 0.931 . S
C1186 C1185 1.407 . S
C1186 C1187 1.387 . S
C1187 H1143 0.930 . S
C1187 C1182 1.386 . S
C1187 C1186 1.387 . S
C1188 C1157 1.518 . S
C1188 C1189 1.377 1_565 S
C1188 C1193 1.361 . S
C1189 H1144 0.929 . S
C1189 C1188 1.377 1_545 S
C1189 C1190 1.386 . S
C1190 H1145 0.931 . S
C1190 C1189 1.386 . S
C1190 C1191 1.363 1_545 S
C1191 C1190 1.363 1_565 S
C1191 C1192 1.385 . S
C1192 H1146 0.930 . S
C1192 C1191 1.385 . S
C1192 C1193 1.396 . S
C1193 H1147 0.929 . S
C1193 C1188 1.361 . S
C1193 C1192 1.396 . S
C1194 O1148 1.300 . S
C1194 O1149 1.209 1_545 S
C1194 C1167 1.486 . S
C1195 O1150 1.199 1_565 S
C1195 O1151 1.297 . S
C1195 C1179 1.476 . S
H1196 O1222 0.856 . S
H1197 O1225 0.854 . S
H1198 C1233 0.930 . S
H1199 C1234 0.930 . S
H1200 C1236 0.930 . S
H1201 C1237 0.930 . S
H1202 C1239 0.931 . S
H1203 C1240 0.930 . S
H1204 C1242 0.930 . S
H1205 C1243 0.929 . S
H1206 C1245 0.930 . S
H1207 C1246 0.931 . S
H1208 C1248 0.930 . S
H1209 C1249 0.929 . S
H1210 C1251 0.931 . S
H1211 C1252 0.930 . S
H1212 C1254 0.930 . S
H1213 C1255 0.932 . S
H1214 C1257 0.930 . S
H1215 C1258 0.929 . S
H1216 C1260 0.931 . S
H1217 C1261 0.930 . S
H1218 C1263 0.929 . S
H1219 C1264 0.931 . S
H1220 C1266 0.930 . S
H1221 C1267 0.929 . S
O1222 H1196 0.856 . S
O1222 C1268 1.300 . S
O1223 C1268 1.209 1_455 S
O1224 C1269 1.199 1_655 S
O1225 H1197 0.854 . S
O1225 C1269 1.297 . S
C1226 C1227 1.404 . S
C1226 C1231 1.397 . S
C1226 C1232 1.492 . S
C1227 C1226 1.404 . S
C1227 C1228 1.396 . S
C1227 C1238 1.492 . S
C1228 C1227 1.396 . S
C1228 C1229 1.393 . S
C1228 C1244 1.509 . S
C1229 C1228 1.393 . S
C1229 C1230 1.384 1_655 S
C1229 C1250 1.524 1_655 S
C1230 C1229 1.384 1_455 S
C1230 C1231 1.401 1_455 S
C1230 C1256 1.487 . S
C1231 C1226 1.397 . S
C1231 C1230 1.401 1_655 S
C1231 C1262 1.521 1_655 S
C1232 C1226 1.492 . S
C1232 C1233 1.363 . S
C1232 C1237 1.390 1_655 S
C1233 H1198 0.930 . S
C1233 C1232 1.363 . S
C1233 C1234 1.372 . S
C1234 H1199 0.930 . S
C1234 C1233 1.372 . S
C1234 C1235 1.383 . S
C1235 C1234 1.383 . S
C1235 C1236 1.395 1_655 S
C1236 H1200 0.930 . S
C1236 C1235 1.395 1_455 S
C1236 C1237 1.362 . S
C1237 H1201 0.930 . S
C1237 C1232 1.390 1_455 S
C1237 C1236 1.362 . S
C1238 C1227 1.492 . S
C1238 C1239 1.377 . S
C1238 C1243 1.397 1_655 S
C1239 H1202 0.931 . S
C1239 C1238 1.377 . S
C1239 C1240 1.376 . S
C1240 H1203 0.930 . S
C1240 C1239 1.376 . S
C1240 C1241 1.376 . S
C1241 C1240 1.376 . S
C1241 C1242 1.378 1_655 S
C1241 C1268 1.486 . S
C1242 H1204 0.930 . S
C1242 C1241 1.378 1_455 S
C1242 C1243 1.376 . S
C1243 H1205 0.929 . S
C1243 C1238 1.397 1_455 S
C1243 C1242 1.376 . S
C1244 C1228 1.509 . S
C1244 C1245 1.391 . S
C1244 C1249 1.386 1_655 S
C1245 H1206 0.930 . S
C1245 C1244 1.391 . S
C1245 C1246 1.375 . S
C1246 H1207 0.931 . S
C1246 C1245 1.375 . S
C1246 C1247 1.375 . S
C1247 C1246 1.375 . S
C1247 C1248 1.361 1_655 S
C1248 H1208 0.930 . S
C1248 C1247 1.361 1_455 S
C1248 C1249 1.399 . S
C1249 H1209 0.929 . S
C1249 C1244 1.386 1_455 S
C1249 C1248 1.399 . S
C1250 C1229 1.524 1_455 S
C1250 C1251 1.373 1_455 S
C1250 C1255 1.368 . S
C1251 H1210 0.931 . S
C1251 C1250 1.373 1_655 S
C1251 C1252 1.372 . S
C1252 H1211 0.930 . S
C1252 C1251 1.372 . S
C1252 C1253 1.397 1_655 S
C1253 C1252 1.397 1_455 S
C1253 C1254 1.390 . S
C1253 C1269 1.476 . S
C1254 H1212 0.930 . S
C1254 C1253 1.390 . S
C1254 C1255 1.366 . S
C1255 H1213 0.932 . S
C1255 C1250 1.368 . S
C1255 C1254 1.366 . S
C1256 C1230 1.487 . S
C1256 C1257 1.380 1_455 S
C1256 C1261 1.386 . S
C1257 H1214 0.930 . S
C1257 C1256 1.380 1_655 S
C1257 C1258 1.381 . S
C1258 H1215 0.929 . S
C1258 C1257 1.381 . S
C1258 C1259 1.371 1_655 S
C1259 C1258 1.371 1_455 S
C1259 C1260 1.380 . S
C1260 H1216 0.931 . S
C1260 C1259 1.380 . S
C1260 C1261 1.387 . S
C1261 H1217 0.930 . S
C1261 C1256 1.386 . S
C1261 C1260 1.387 . S
C1262 C1231 1.521 1_455 S
C1262 C1263 1.377 1_455 S
C1262 C1267 1.361 . S
C1263 H1218 0.929 . S
C1263 C1262 1.377 1_655 S
C1263 C1264 1.386 . S
C1264 H1219 0.931 . S
C1264 C1263 1.386 . S
C1264 C1265 1.363 1_655 S
C1265 C1264 1.363 1_455 S
C1265 C1266 1.385 . S
C1266 H1220 0.930 . S
C1266 C1265 1.385 . S
C1266 C1267 1.396 . S
C1267 H1221 0.929 . S
C1267 C1262 1.361 . S
C1267 C1266 1.396 . S
C1268 O1222 1.300 . S
C1268 O1223 1.209 1_655 S
C1268 C1241 1.486 . S
C1269 O1224 1.199 1_455 S
C1269 O1225 1.297 . S
C1269 C1253 1.476 . S
H1270 O1296 0.856 . S
H1271 O1299 0.854 . S
H1272 C1307 0.930 . S
H1273 C1308 0.930 . S
H1274 C1310 0.930 . S
H1275 C1311 0.930 . S
H1276 C1313 0.931 . S
H1277 C1314 0.930 . S
H1278 C1316 0.930 . S
H1279 C1317 0.929 . S
H1280 C1319 0.930 . S
H1281 C1320 0.931 . S
H1282 C1322 0.930 . S
H1283 C1323 0.929 . S
H1284 C1325 0.931 . S
H1285 C1326 0.930 . S
H1286 C1328 0.930 . S
H1287 C1329 0.932 . S
H1288 C1331 0.930 . S
H1289 C1332 0.929 . S
H1290 C1334 0.931 . S
H1291 C1335 0.930 . S
H1292 C1337 0.929 . S
H1293 C1338 0.931 . S
H1294 C1340 0.930 . S
H1295 C1341 0.929 . S
O1296 H1270 0.856 . S
O1296 C1342 1.300 . S
O1297 C1342 1.209 . S
O1298 C1343 1.199 . S
O1299 H1271 0.854 . S
O1299 C1343 1.297 . S
C1300 C1301 1.404 . S
C1300 C1305 1.397 . S
C1300 C1306 1.492 . S
C1301 C1300 1.404 . S
C1301 C1302 1.396 . S
C1301 C1312 1.492 . S
C1302 C1301 1.396 . S
C1302 C1303 1.397 . S
C1302 C1318 1.509 . S
C1303 C1302 1.397 . S
C1303 C1304 1.412 . S
C1303 C1324 1.485 . S
C1304 C1303 1.412 . S
C1304 C1305 1.388 . S
C1304 C1330 1.490 . S
C1305 C1300 1.397 . S
C1305 C1304 1.388 . S
C1305 C1336 1.519 . S
C1306 C1300 1.492 . S
C1306 C1307 1.363 . S
C1306 C1311 1.390 . S
C1307 H1272 0.930 . S
C1307 C1306 1.363 . S
C1307 C1308 1.372 . S
C1308 H1273 0.930 . S
C1308 C1307 1.372 . S
C1308 C1309 1.383 . S
C1309 C1308 1.383 . S
C1309 C1310 1.395 . S
C1310 H1274 0.930 . S
C1310 C1309 1.395 . S
C1310 C1311 1.362 . S
C1311 H1275 0.930 . S
C1311 C1306 1.390 . S
C1311 C1310 1.362 . S
C1312 C1301 1.492 . S
C1312 C1313 1.377 . S
C1312 C1317 1.397 . S
C1313 H1276 0.931 . S
C1313 C1312 1.377 . S
C1313 C1314 1.376 . S
C1314 H1277 0.930 . S
C1314 C1313 1.376 . S
C1314 C1315 1.376 . S
C1315 C1314 1.376 . S
C1315 C1316 1.378 . S
C1315 C1342 1.486 . S
C1316 H1278 0.930 . S
C1316 C1315 1.378 . S
C1316 C1317 1.376 . S
C1317 H1279 0.929 . S
C1317 C1312 1.397 . S
C1317 C1316 1.376 . S
C1318 C1302 1.509 . S
C1318 C1319 1.391 . S
C1318 C1323 1.386 . S
C1319 H1280 0.930 . S
C1319 C1318 1.391 . S
C1319 C1320 1.375 . S
C1320 H1281 0.931 . S
C1320 C1319 1.375 . S
C1320 C1321 1.375 . S
C1321 C1320 1.375 . S
C1321 C1322 1.361 . S
C1322 H1282 0.930 . S
C1322 C1321 1.361 . S
C1322 C1323 1.399 . S
C1323 H1283 0.929 . S
C1323 C1318 1.386 . S
C1323 C1322 1.399 . S
C1324 C1303 1.485 . S
C1324 C1325 1.394 . S
C1324 C1329 1.360 . S
C1325 H1284 0.931 . S
C1325 C1324 1.394 . S
C1325 C1326 1.372 . S
C1326 H1285 0.930 . S
C1326 C1325 1.372 . S
C1326 C1327 1.397 . S
C1327 C1326 1.397 . S
C1327 C1328 1.390 . S
C1327 C1343 1.476 . S
C1328 H1286 0.930 . S
C1328 C1327 1.390 . S
C1328 C1329 1.366 . S
C1329 H1287 0.932 . S
C1329 C1324 1.360 . S
C1329 C1328 1.366 . S
C1330 C1304 1.490 . S
C1330 C1331 1.380 . S
C1330 C1335 1.386 . S
C1331 H1288 0.930 . S
C1331 C1330 1.380 . S
C1331 C1332 1.381 . S
C1332 H1289 0.929 . S
C1332 C1331 1.381 . S
C1332 C1333 1.371 . S
C1333 C1332 1.371 . S
C1333 C1334 1.380 . S
C1334 H1290 0.931 . S
C1334 C1333 1.380 . S
C1334 C1335 1.387 . S
C1335 H1291 0.930 . S
C1335 C1330 1.386 . S
C1335 C1334 1.387 . S
C1336 C1305 1.519 . S
C1336 C1337 1.377 . S
C1336 C1341 1.361 . S
C1337 H1292 0.929 . S
C1337 C1336 1.377 . S
C1337 C1338 1.386 . S
C1338 H1293 0.931 . S
C1338 C1337 1.386 . S
C1338 C1339 1.363 . S
C1339 C1338 1.363 . S
C1339 C1340 1.385 . S
C1340 H1294 0.930 . S
C1340 C1339 1.385 . S
C1340 C1341 1.396 . S
C1341 H1295 0.929 . S
C1341 C1336 1.361 . S
C1341 C1340 1.396 . S
C1342 O1296 1.300 . S
C1342 O1297 1.209 . S
C1342 C1315 1.486 . S
C1343 O1298 1.199 . S
C1343 O1299 1.297 . S
C1343 C1327 1.476 . S
H1344 O1370 0.856 . S
H1345 O1373 0.854 . S
H1346 C1381 0.930 . S
H1347 C1382 0.930 . S
H1348 C1384 0.930 . S
H1349 C1385 0.930 . S
H1350 C1387 0.931 . S
H1351 C1388 0.930 . S
H1352 C1390 0.930 . S
H1353 C1391 0.929 . S
H1354 C1393 0.930 . S
H1355 C1394 0.931 . S
H1356 C1396 0.930 . S
H1357 C1397 0.929 . S
H1358 C1399 0.931 . S
H1359 C1400 0.930 . S
H1360 C1402 0.930 . S
H1361 C1403 0.932 . S
H1362 C1405 0.930 . S
H1363 C1406 0.929 . S
H1364 C1408 0.931 . S
H1365 C1409 0.930 . S
H1366 C1411 0.929 . S
H1367 C1412 0.931 . S
H1368 C1414 0.930 . S
H1369 C1415 0.929 . S
O1370 H1344 0.856 . S
O1370 C1416 1.300 . S
O1371 C1416 1.209 . S
O1372 C1417 1.199 . S
O1373 H1345 0.854 . S
O1373 C1417 1.297 . S
C1374 C1375 1.404 . S
C1374 C1379 1.397 . S
C1374 C1380 1.492 . S
C1375 C1374 1.404 . S
C1375 C1376 1.396 . S
C1375 C1386 1.492 . S
C1376 C1375 1.396 . S
C1376 C1377 1.397 . S
C1376 C1392 1.509 . S
C1377 C1376 1.397 . S
C1377 C1378 1.412 . S
C1377 C1398 1.485 . S
C1378 C1377 1.412 . S
C1378 C1379 1.388 . S
C1378 C1404 1.490 . S
C1379 C1374 1.397 . S
C1379 C1378 1.388 . S
C1379 C1410 1.519 . S
C1380 C1374 1.492 . S
C1380 C1381 1.363 . S
C1380 C1385 1.390 . S
C1381 H1346 0.930 . S
C1381 C1380 1.363 . S
C1381 C1382 1.372 . S
C1382 H1347 0.930 . S
C1382 C1381 1.372 . S
C1382 C1383 1.383 . S
C1383 C1382 1.383 . S
C1383 C1384 1.395 . S
C1384 H1348 0.930 . S
C1384 C1383 1.395 . S
C1384 C1385 1.362 . S
C1385 H1349 0.930 . S
C1385 C1380 1.390 . S
C1385 C1384 1.362 . S
C1386 C1375 1.492 . S
C1386 C1387 1.377 . S
C1386 C1391 1.397 . S
C1387 H1350 0.931 . S
C1387 C1386 1.377 . S
C1387 C1388 1.376 . S
C1388 H1351 0.930 . S
C1388 C1387 1.376 . S
C1388 C1389 1.376 . S
C1389 C1388 1.376 . S
C1389 C1390 1.378 . S
C1389 C1416 1.486 . S
C1390 H1352 0.930 . S
C1390 C1389 1.378 . S
C1390 C1391 1.376 . S
C1391 H1353 0.929 . S
C1391 C1386 1.397 . S
C1391 C1390 1.376 . S
C1392 C1376 1.509 . S
C1392 C1393 1.391 . S
C1392 C1397 1.386 . S
C1393 H1354 0.930 . S
C1393 C1392 1.391 . S
C1393 C1394 1.375 . S
C1394 H1355 0.931 . S
C1394 C1393 1.375 . S
C1394 C1395 1.375 . S
C1395 C1394 1.375 . S
C1395 C1396 1.361 . S
C1396 H1356 0.930 . S
C1396 C1395 1.361 . S
C1396 C1397 1.399 . S
C1397 H1357 0.929 . S
C1397 C1392 1.386 . S
C1397 C1396 1.399 . S
C1398 C1377 1.485 . S
C1398 C1399 1.394 . S
C1398 C1403 1.360 . S
C1399 H1358 0.931 . S
C1399 C1398 1.394 . S
C1399 C1400 1.372 . S
C1400 H1359 0.930 . S
C1400 C1399 1.372 . S
C1400 C1401 1.397 . S
C1401 C1400 1.397 . S
C1401 C1402 1.390 . S
C1401 C1417 1.476 . S
C1402 H1360 0.930 . S
C1402 C1401 1.390 . S
C1402 C1403 1.366 . S
C1403 H1361 0.932 . S
C1403 C1398 1.360 . S
C1403 C1402 1.366 . S
C1404 C1378 1.490 . S
C1404 C1405 1.380 . S
C1404 C1409 1.386 . S
C1405 H1362 0.930 . S
C1405 C1404 1.380 . S
C1405 C1406 1.381 . S
C1406 H1363 0.929 . S
C1406 C1405 1.381 . S
C1406 C1407 1.371 . S
C1407 C1406 1.371 . S
C1407 C1408 1.380 . S
C1408 H1364 0.931 . S
C1408 C1407 1.380 . S
C1408 C1409 1.387 . S
C1409 H1365 0.930 . S
C1409 C1404 1.386 . S
C1409 C1408 1.387 . S
C1410 C1379 1.519 . S
C1410 C1411 1.377 . S
C1410 C1415 1.361 . S
C1411 H1366 0.929 . S
C1411 C1410 1.377 . S
C1411 C1412 1.386 . S
C1412 H1367 0.931 . S
C1412 C1411 1.386 . S
C1412 C1413 1.363 . S
C1413 C1412 1.363 . S
C1413 C1414 1.385 . S
C1414 H1368 0.930 . S
C1414 C1413 1.385 . S
C1414 C1415 1.396 . S
C1415 H1369 0.929 . S
C1415 C1410 1.361 . S
C1415 C1414 1.396 . S
C1416 O1370 1.300 . S
C1416 O1371 1.209 . S
C1416 C1389 1.486 . S
C1417 O1372 1.199 . S
C1417 O1373 1.297 . S
C1417 C1401 1.476 . S
H1418 O1444 0.856 . S
H1419 O1447 0.854 . S
H1420 C1455 0.930 . S
H1421 C1456 0.930 . S
H1422 C1458 0.930 . S
H1423 C1459 0.930 . S
H1424 C1461 0.931 . S
H1425 C1462 0.930 . S
H1426 C1464 0.930 . S
H1427 C1465 0.929 . S
H1428 C1467 0.930 . S
H1429 C1468 0.931 . S
H1430 C1470 0.930 . S
H1431 C1471 0.929 . S
H1432 C1473 0.931 . S
H1433 C1474 0.930 . S
H1434 C1476 0.930 . S
H1435 C1477 0.932 . S
H1436 C1479 0.930 . S
H1437 C1480 0.929 . S
H1438 C1482 0.931 . S
H1439 C1483 0.930 . S
H1440 C1485 0.929 . S
H1441 C1486 0.931 . S
H1442 C1488 0.930 . S
H1443 C1489 0.929 . S
O1444 H1418 0.856 . S
O1444 C1490 1.300 . S
O1445 C1490 1.209 . S
O1446 C1491 1.199 . S
O1447 H1419 0.854 . S
O1447 C1491 1.297 . S
C1448 C1449 1.404 . S
C1448 C1453 1.397 . S
C1448 C1454 1.492 . S
C1449 C1448 1.404 . S
C1449 C1450 1.396 . S
C1449 C1460 1.492 . S
C1450 C1449 1.396 . S
C1450 C1451 1.397 . S
C1450 C1466 1.509 . S
C1451 C1450 1.397 . S
C1451 C1452 1.412 . S
C1451 C1472 1.485 . S
C1452 C1451 1.412 . S
C1452 C1453 1.388 . S
C1452 C1478 1.490 . S
C1453 C1448 1.397 . S
C1453 C1452 1.388 . S
C1453 C1484 1.519 . S
C1454 C1448 1.492 . S
C1454 C1455 1.363 . S
C1454 C1459 1.390 . S
C1455 H1420 0.930 . S
C1455 C1454 1.363 . S
C1455 C1456 1.372 . S
C1456 H1421 0.930 . S
C1456 C1455 1.372 . S
C1456 C1457 1.383 . S
C1457 C1456 1.383 . S
C1457 C1458 1.395 . S
C1458 H1422 0.930 . S
C1458 C1457 1.395 . S
C1458 C1459 1.362 . S
C1459 H1423 0.930 . S
C1459 C1454 1.390 . S
C1459 C1458 1.362 . S
C1460 C1449 1.492 . S
C1460 C1461 1.377 . S
C1460 C1465 1.397 . S
C1461 H1424 0.931 . S
C1461 C1460 1.377 . S
C1461 C1462 1.376 . S
C1462 H1425 0.930 . S
C1462 C1461 1.376 . S
C1462 C1463 1.376 . S
C1463 C1462 1.376 . S
C1463 C1464 1.378 . S
C1463 C1490 1.486 . S
C1464 H1426 0.930 . S
C1464 C1463 1.378 . S
C1464 C1465 1.376 . S
C1465 H1427 0.929 . S
C1465 C1460 1.397 . S
C1465 C1464 1.376 . S
C1466 C1450 1.509 . S
C1466 C1467 1.391 . S
C1466 C1471 1.386 . S
C1467 H1428 0.930 . S
C1467 C1466 1.391 . S
C1467 C1468 1.375 . S
C1468 H1429 0.931 . S
C1468 C1467 1.375 . S
C1468 C1469 1.375 . S
C1469 C1468 1.375 . S
C1469 C1470 1.361 . S
C1470 H1430 0.930 . S
C1470 C1469 1.361 . S
C1470 C1471 1.399 . S
C1471 H1431 0.929 . S
C1471 C1466 1.386 . S
C1471 C1470 1.399 . S
C1472 C1451 1.485 . S
C1472 C1473 1.394 . S
C1472 C1477 1.360 . S
C1473 H1432 0.931 . S
C1473 C1472 1.394 . S
C1473 C1474 1.372 . S
C1474 H1433 0.930 . S
C1474 C1473 1.372 . S
C1474 C1475 1.397 . S
C1475 C1474 1.397 . S
C1475 C1476 1.390 . S
C1475 C1491 1.476 . S
C1476 H1434 0.930 . S
C1476 C1475 1.390 . S
C1476 C1477 1.366 . S
C1477 H1435 0.932 . S
C1477 C1472 1.360 . S
C1477 C1476 1.366 . S
C1478 C1452 1.490 . S
C1478 C1479 1.380 . S
C1478 C1483 1.386 . S
C1479 H1436 0.930 . S
C1479 C1478 1.380 . S
C1479 C1480 1.381 . S
C1480 H1437 0.929 . S
C1480 C1479 1.381 . S
C1480 C1481 1.371 . S
C1481 C1480 1.371 . S
C1481 C1482 1.380 . S
C1482 H1438 0.931 . S
C1482 C1481 1.380 . S
C1482 C1483 1.387 . S
C1483 H1439 0.930 . S
C1483 C1478 1.386 . S
C1483 C1482 1.387 . S
C1484 C1453 1.519 . S
C1484 C1485 1.377 . S
C1484 C1489 1.361 . S
C1485 H1440 0.929 . S
C1485 C1484 1.377 . S
C1485 C1486 1.386 . S
C1486 H1441 0.931 . S
C1486 C1485 1.386 . S
C1486 C1487 1.363 . S
C1487 C1486 1.363 . S
C1487 C1488 1.385 . S
C1488 H1442 0.930 . S
C1488 C1487 1.385 . S
C1488 C1489 1.396 . S
C1489 H1443 0.929 . S
C1489 C1484 1.361 . S
C1489 C1488 1.396 . S
C1490 O1444 1.300 . S
C1490 O1445 1.209 . S
C1490 C1463 1.486 . S
C1491 O1446 1.199 . S
C1491 O1447 1.297 . S
C1491 C1475 1.476 . S
H1492 O1518 0.856 . S
H1493 O1521 0.854 . S
H1494 C1529 0.930 . S
H1495 C1530 0.930 . S
H1496 C1532 0.930 . S
H1497 C1533 0.930 . S
H1498 C1535 0.931 . S
H1499 C1536 0.930 . S
H1500 C1538 0.930 . S
H1501 C1539 0.929 . S
H1502 C1541 0.930 . S
H1503 C1542 0.931 . S
H1504 C1544 0.930 . S
H1505 C1545 0.929 . S
H1506 C1547 0.931 . S
H1507 C1548 0.930 . S
H1508 C1550 0.930 . S
H1509 C1551 0.932 . S
H1510 C1553 0.930 . S
H1511 C1554 0.929 . S
H1512 C1556 0.931 . S
H1513 C1557 0.930 . S
H1514 C1559 0.929 . S
H1515 C1560 0.931 . S
H1516 C1562 0.930 . S
H1517 C1563 0.929 . S
O1518 H1492 0.856 . S
O1518 C1564 1.300 . S
O1519 C1564 1.209 . S
O1520 C1565 1.199 . S
O1521 H1493 0.854 . S
O1521 C1565 1.297 . S
C1522 C1523 1.404 . S
C1522 C1527 1.397 . S
C1522 C1528 1.492 . S
C1523 C1522 1.404 . S
C1523 C1524 1.396 . S
C1523 C1534 1.492 . S
C1524 C1523 1.396 . S
C1524 C1525 1.397 . S
C1524 C1540 1.509 . S
C1525 C1524 1.397 . S
C1525 C1526 1.412 . S
C1525 C1546 1.485 . S
C1526 C1525 1.412 . S
C1526 C1527 1.388 . S
C1526 C1552 1.490 . S
C1527 C1522 1.397 . S
C1527 C1526 1.388 . S
C1527 C1558 1.519 . S
C1528 C1522 1.492 . S
C1528 C1529 1.363 . S
C1528 C1533 1.390 . S
C1529 H1494 0.930 . S
C1529 C1528 1.363 . S
C1529 C1530 1.372 . S
C1530 H1495 0.930 . S
C1530 C1529 1.372 . S
C1530 C1531 1.383 . S
C1531 C1530 1.383 . S
C1531 C1532 1.395 . S
C1532 H1496 0.930 . S
C1532 C1531 1.395 . S
C1532 C1533 1.362 . S
C1533 H1497 0.930 . S
C1533 C1528 1.390 . S
C1533 C1532 1.362 . S
C1534 C1523 1.492 . S
C1534 C1535 1.377 . S
C1534 C1539 1.397 . S
C1535 H1498 0.931 . S
C1535 C1534 1.377 . S
C1535 C1536 1.376 . S
C1536 H1499 0.930 . S
C1536 C1535 1.376 . S
C1536 C1537 1.376 . S
C1537 C1536 1.376 . S
C1537 C1538 1.378 . S
C1537 C1564 1.486 . S
C1538 H1500 0.930 . S
C1538 C1537 1.378 . S
C1538 C1539 1.376 . S
C1539 H1501 0.929 . S
C1539 C1534 1.397 . S
C1539 C1538 1.376 . S
C1540 C1524 1.509 . S
C1540 C1541 1.391 . S
C1540 C1545 1.386 . S
C1541 H1502 0.930 . S
C1541 C1540 1.391 . S
C1541 C1542 1.375 . S
C1542 H1503 0.931 . S
C1542 C1541 1.375 . S
C1542 C1543 1.375 . S
C1543 C1542 1.375 . S
C1543 C1544 1.361 . S
C1544 H1504 0.930 . S
C1544 C1543 1.361 . S
C1544 C1545 1.399 . S
C1545 H1505 0.929 . S
C1545 C1540 1.386 . S
C1545 C1544 1.399 . S
C1546 C1525 1.485 . S
C1546 C1547 1.394 . S
C1546 C1551 1.360 . S
C1547 H1506 0.931 . S
C1547 C1546 1.394 . S
C1547 C1548 1.372 . S
C1548 H1507 0.930 . S
C1548 C1547 1.372 . S
C1548 C1549 1.397 . S
C1549 C1548 1.397 . S
C1549 C1550 1.390 . S
C1549 C1565 1.476 . S
C1550 H1508 0.930 . S
C1550 C1549 1.390 . S
C1550 C1551 1.366 . S
C1551 H1509 0.932 . S
C1551 C1546 1.360 . S
C1551 C1550 1.366 . S
C1552 C1526 1.490 . S
C1552 C1553 1.380 . S
C1552 C1557 1.386 . S
C1553 H1510 0.930 . S
C1553 C1552 1.380 . S
C1553 C1554 1.381 . S
C1554 H1511 0.929 . S
C1554 C1553 1.381 . S
C1554 C1555 1.371 . S
C1555 C1554 1.371 . S
C1555 C1556 1.380 . S
C1556 H1512 0.931 . S
C1556 C1555 1.380 . S
C1556 C1557 1.387 . S
C1557 H1513 0.930 . S
C1557 C1552 1.386 . S
C1557 C1556 1.387 . S
C1558 C1527 1.519 . S
C1558 C1559 1.377 . S
C1558 C1563 1.361 . S
C1559 H1514 0.929 . S
C1559 C1558 1.377 . S
C1559 C1560 1.386 . S
C1560 H1515 0.931 . S
C1560 C1559 1.386 . S
C1560 C1561 1.363 . S
C1561 C1560 1.363 . S
C1561 C1562 1.385 . S
C1562 H1516 0.930 . S
C1562 C1561 1.385 . S
C1562 C1563 1.396 . S
C1563 H1517 0.929 . S
C1563 C1558 1.361 . S
C1563 C1562 1.396 . S
C1564 O1518 1.300 . S
C1564 O1519 1.209 . S
C1564 C1537 1.486 . S
C1565 O1520 1.199 . S
C1565 O1521 1.297 . S
C1565 C1549 1.476 . S
C1566 C1567 1.387 . S
C1566 H1570 0.950 1_655 S
C1566 C1575 1.390 . S
C1567 C1566 1.387 . S
C1567 C1569 1.387 . S
H1568 C1575 0.950 . S
C1569 C1567 1.387 . S
C1569 C1571 1.390 . S
C1569 H1573 0.950 . S
H1570 C1566 0.950 1_455 S
C1571 C1569 1.390 . S
C1571 C1572 1.387 . S
C1571 H1574 0.950 . S
C1572 C1571 1.387 . S
C1572 C1575 1.387 . S
H1573 C1569 0.950 . S
H1574 C1571 0.950 . S
C1575 C1566 1.390 . S
C1575 H1568 0.950 . S
C1575 C1572 1.387 . S
C1576 C1577 1.387 . S
C1576 H1580 0.950 . S
C1576 C1585 1.390 . S
C1577 C1576 1.387 . S
C1577 C1579 1.387 . S
H1578 C1585 0.950 . S
C1579 C1577 1.387 . S
C1579 C1581 1.390 . S
C1579 H1583 0.950 . S
H1580 C1576 0.950 . S
C1581 C1579 1.390 . S
C1581 C1582 1.387 . S
C1581 H1584 0.950 . S
C1582 C1581 1.387 . S
C1582 C1585 1.387 . S
H1583 C1579 0.950 . S
H1584 C1581 0.950 . S
C1585 C1576 1.390 . S
C1585 H1578 0.950 . S
C1585 C1582 1.387 . S
C1586 C1587 1.385 1_565 S
C1586 H1590 0.951 . S
C1586 C1595 1.392 1_565 S
C1587 C1586 1.385 1_545 S
C1587 C1589 1.387 . S
H1588 C1595 0.947 1_565 S
C1589 C1587 1.387 . S
C1589 C1591 1.390 . S
C1589 H1593 0.950 . S
H1590 C1586 0.951 . S
C1591 C1589 1.390 . S
C1591 C1592 1.387 . S
C1591 H1594 0.950 . S
C1592 C1591 1.387 . S
C1592 C1595 1.389 . S
H1593 C1589 0.950 . S
H1594 C1591 0.950 . S
C1595 C1586 1.392 1_545 S
C1595 H1588 0.947 1_545 S
C1595 C1592 1.389 . S
C1596 C1597 1.387 . S
C1596 H1600 0.950 . S
C1596 C1605 1.390 . S
C1597 C1596 1.387 . S
C1597 C1599 1.387 1_565 S
H1598 C1605 0.950 . S
C1599 C1597 1.387 1_545 S
C1599 C1601 1.390 . S
C1599 H1603 0.950 . S
H1600 C1596 0.950 . S
C1601 C1599 1.390 . S
C1601 C1602 1.387 1_545 S
C1601 H1604 0.950 . S
C1602 C1601 1.387 1_565 S
C1602 C1605 1.387 . S
H1603 C1599 0.950 . S
H1604 C1601 0.950 . S
C1605 C1596 1.390 . S
C1605 H1598 0.950 . S
C1605 C1602 1.387 . S
C1606 C1607 1.387 . S
C1606 H1610 0.950 . S
C1606 C1615 1.390 . S
C1607 C1606 1.387 . S
C1607 C1609 1.387 . S
H1608 C1615 0.950 . S
C1609 C1607 1.387 . S
C1609 C1611 1.390 . S
C1609 H1613 0.950 . S
H1610 C1606 0.950 . S
C1611 C1609 1.390 . S
C1611 C1612 1.387 . S
C1611 H1614 0.950 . S
C1612 C1611 1.387 . S
C1612 C1615 1.387 . S
H1613 C1609 0.950 . S
H1614 C1611 0.950 . S
C1615 C1606 1.390 . S
C1615 H1608 0.950 . S
C1615 C1612 1.387 . S
C1616 C1617 1.387 . S
C1616 H1620 0.950 . S
C1616 C1625 1.390 1_554 S
C1617 C1616 1.387 . S
C1617 C1619 1.387 1_554 S
H1618 C1625 0.950 . S
C1619 C1617 1.387 1_556 S
C1619 C1621 1.390 . S
C1619 H1623 0.950 . S
H1620 C1616 0.950 . S
C1621 C1619 1.390 . S
C1621 C1622 1.387 . S
C1621 H1624 0.950 . S
C1622 C1621 1.387 . S
C1622 C1625 1.387 . S
H1623 C1619 0.950 . S
H1624 C1621 0.950 . S
C1625 C1616 1.390 1_556 S
C1625 H1618 0.950 . S
C1625 C1622 1.387 . S
C1626 C1627 1.386 1_654 S
C1626 H1630 0.962 . S
C1626 C1635 1.380 1_554 S
C1627 C1626 1.386 1_456 S
C1627 C1629 1.387 . S
H1628 C1635 0.950 . S
C1629 C1627 1.387 . S
C1629 C1631 1.390 . S
C1629 H1633 0.950 . S
H1630 C1626 0.962 . S
C1631 C1629 1.390 . S
C1631 C1632 1.387 . S
C1631 H1634 0.950 . S
C1632 C1631 1.387 . S
C1632 C1635 1.387 1_455 S
H1633 C1629 0.950 . S
H1634 C1631 0.950 . S
C1635 C1626 1.380 1_556 S
C1635 H1628 0.950 . S
C1635 C1632 1.387 1_655 S
C1636 C1637 1.387 . S
C1636 H1640 0.950 . S
C1636 C1645 1.390 . S
C1637 C1636 1.387 . S
C1637 C1639 1.387 . S
H1638 C1645 0.950 . S
C1639 C1637 1.387 . S
C1639 C1641 1.390 . S
C1639 H1643 0.950 . S
H1640 C1636 0.950 . S
C1641 C1639 1.390 . S
C1641 C1642 1.387 . S
C1641 H1644 0.950 . S
C1642 C1641 1.387 . S
C1642 C1645 1.387 . S
H1643 C1639 0.950 . S
H1644 C1641 0.950 . S
C1645 C1636 1.390 . S
C1645 H1638 0.950 . S
C1645 C1642 1.387 . S
C1646 C1647 1.387 1_545 S
C1646 H1650 0.950 1_556 S
C1646 C1655 1.390 . S
C1647 C1646 1.387 1_565 S
C1647 C1649 1.387 . S
H1648 C1655 0.950 . S
C1649 C1647 1.387 . S
C1649 C1651 1.390 . S
C1649 H1653 0.950 . S
H1650 C1646 0.950 1_554 S
C1651 C1649 1.390 . S
C1651 C1652 1.387 . S
C1651 H1654 0.950 . S
C1652 C1651 1.387 . S
C1652 C1655 1.387 1_565 S
H1653 C1649 0.950 . S
H1654 C1651 0.950 . S
C1655 C1646 1.390 . S
C1655 H1648 0.950 . S
C1655 C1652 1.387 1_545 S
C1656 C1657 1.387 . S
C1656 H1660 0.950 . S
C1656 C1665 1.390 . S
C1657 C1656 1.387 . S
C1657 C1659 1.387 1_545 S
H1658 C1665 0.950 . S
C1659 C1657 1.387 1_565 S
C1659 C1661 1.390 . S
C1659 H1663 0.950 . S
H1660 C1656 0.950 . S
C1661 C1659 1.390 . S
C1661 C1662 1.387 1_565 S
C1661 H1664 0.950 . S
C1662 C1661 1.387 1_545 S
C1662 C1665 1.387 . S
H1663 C1659 0.950 . S
H1664 C1661 0.950 . S
C1665 C1656 1.390 . S
C1665 H1658 0.950 . S
C1665 C1662 1.387 . S
C1666 C1667 1.387 1_455 S
C1666 H1670 0.950 . S
C1666 C1675 1.390 . S
C1667 C1666 1.387 1_655 S
C1667 C1669 1.387 . S
H1668 C1675 0.950 . S
C1669 C1667 1.387 . S
C1669 C1671 1.390 . S
C1669 H1673 0.950 . S
H1670 C1666 0.950 . S
C1671 C1669 1.390 . S
C1671 C1672 1.387 . S
C1671 H1674 0.950 . S
C1672 C1671 1.387 . S
C1672 C1675 1.387 1_655 S
H1673 C1669 0.950 . S
H1674 C1671 0.950 . S
C1675 C1666 1.390 . S
C1675 H1668 0.950 . S
C1675 C1672 1.387 1_455 S
C1676 C1677 1.387 . S
C1676 H1680 0.950 . S
C1676 C1685 1.390 . S
C1677 C1676 1.387 . S
C1677 C1679 1.387 . S
H1678 C1685 0.950 . S
C1679 C1677 1.387 . S
C1679 C1681 1.390 . S
C1679 H1683 0.950 . S
H1680 C1676 0.950 . S
C1681 C1679 1.390 . S
C1681 C1682 1.387 . S
C1681 H1684 0.950 . S
C1682 C1681 1.387 . S
C1682 C1685 1.387 . S
H1683 C1679 0.950 . S
H1684 C1681 0.950 . S
C1685 C1676 1.390 . S
C1685 H1678 0.950 . S
C1685 C1682 1.387 . S
C1686 C1687 1.387 . S
C1686 H1690 0.950 . S
C1686 C1695 1.390 . S
C1687 C1686 1.387 . S
C1687 C1689 1.387 . S
H1688 C1695 0.950 . S
C1689 C1687 1.387 . S
C1689 C1691 1.390 . S
C1689 H1693 0.950 . S
H1690 C1686 0.950 . S
C1691 C1689 1.390 . S
C1691 C1692 1.387 . S
C1691 H1694 0.950 . S
C1692 C1691 1.387 . S
C1692 C1695 1.387 . S
H1693 C1689 0.950 . S
H1694 C1691 0.950 . S
C1695 C1686 1.390 . S
C1695 H1688 0.950 . S
C1695 C1692 1.387 . S
C1696 C1697 1.387 . S
C1696 H1700 0.950 . S
C1696 C1705 1.390 . S
C1697 C1696 1.387 . S
C1697 C1699 1.387 . S
H1698 C1705 0.950 . S
C1699 C1697 1.387 . S
C1699 C1701 1.390 . S
C1699 H1703 0.950 . S
H1700 C1696 0.950 . S
C1701 C1699 1.390 . S
C1701 C1702 1.387 . S
C1701 H1704 0.950 . S
C1702 C1701 1.387 . S
C1702 C1705 1.387 . S
H1703 C1699 0.950 . S
H1704 C1701 0.950 . S
C1705 C1696 1.390 . S
C1705 H1698 0.950 . S
C1705 C1702 1.387 . S
C1706 C1707 1.387 . S
C1706 H1710 0.950 . S
C1706 C1715 1.390 . S
C1707 C1706 1.387 . S
C1707 C1709 1.387 . S
H1708 C1715 0.950 . S
C1709 C1707 1.387 . S
C1709 C1711 1.390 . S
C1709 H1713 0.950 . S
H1710 C1706 0.950 . S
C1711 C1709 1.390 . S
C1711 C1712 1.387 . S
C1711 H1714 0.950 . S
C1712 C1711 1.387 . S
C1712 C1715 1.387 . S
H1713 C1709 0.950 . S
H1714 C1711 0.950 . S
C1715 C1706 1.390 . S
C1715 H1708 0.950 . S
C1715 C1712 1.387 . S
C1716 C1717 1.387 . S
C1716 H1720 0.950 . S
C1716 C1725 1.390 . S
C1717 C1716 1.387 . S
C1717 C1719 1.387 . S
H1718 C1725 0.950 . S
C1719 C1717 1.387 . S
C1719 C1721 1.390 . S
C1719 H1723 0.950 . S
H1720 C1716 0.950 . S
C1721 C1719 1.390 . S
C1721 C1722 1.387 . S
C1721 H1724 0.950 . S
C1722 C1721 1.387 . S
C1722 C1725 1.387 . S
H1723 C1719 0.950 . S
H1724 C1721 0.950 . S
C1725 C1716 1.390 . S
C1725 H1718 0.950 . S
C1725 C1722 1.387 . S
C1726 C1727 1.387 . S
C1726 H1730 0.950 . S
C1726 C1735 1.390 . S
C1727 C1726 1.387 . S
C1727 C1729 1.387 . S
H1728 C1735 0.950 . S
C1729 C1727 1.387 . S
C1729 C1731 1.390 . S
C1729 H1733 0.950 . S
H1730 C1726 0.950 . S
C1731 C1729 1.390 . S
C1731 C1732 1.387 . S
C1731 H1734 0.950 . S
C1732 C1731 1.387 . S
C1732 C1735 1.387 . S
H1733 C1729 0.950 . S
H1734 C1731 0.950 . S
C1735 C1726 1.390 . S
C1735 H1728 0.950 . S
C1735 C1732 1.387 . S
C1736 C1737 1.387 . S
C1736 H1740 0.950 . S
C1736 C1745 1.390 . S
C1737 C1736 1.387 . S
C1737 C1739 1.387 . S
H1738 C1745 0.950 . S
C1739 C1737 1.387 . S
C1739 C1741 1.390 . S
C1739 H1743 0.950 . S
H1740 C1736 0.950 . S
C1741 C1739 1.390 . S
C1741 C1742 1.387 . S
C1741 H1744 0.950 . S
C1742 C1741 1.387 . S
C1742 C1745 1.387 . S
H1743 C1739 0.950 . S
H1744 C1741 0.950 . S
C1745 C1736 1.390 . S
C1745 H1738 0.950 . S
C1745 C1742 1.387 . S
C1746 C1747 1.387 . S
C1746 H1750 0.950 . S
C1746 C1755 1.390 . S
C1747 C1746 1.387 . S
C1747 C1749 1.387 . S
H1748 C1755 0.950 . S
C1749 C1747 1.387 . S
C1749 C1751 1.390 . S
C1749 H1753 0.950 . S
H1750 C1746 0.950 . S
C1751 C1749 1.390 . S
C1751 C1752 1.387 . S
C1751 H1754 0.950 . S
C1752 C1751 1.387 . S
C1752 C1755 1.387 . S
H1753 C1749 0.950 . S
H1754 C1751 0.950 . S
C1755 C1746 1.390 . S
C1755 H1748 0.950 . S
C1755 C1752 1.387 . S
C1756 C1757 1.387 . S
C1756 H1760 0.950 . S
C1756 C1765 1.390 . S
C1757 C1756 1.387 . S
C1757 C1759 1.387 . S
H1758 C1765 0.950 . S
C1759 C1757 1.387 . S
C1759 C1761 1.390 . S
C1759 H1763 0.950 . S
H1760 C1756 0.950 . S
C1761 C1759 1.390 . S
C1761 C1762 1.387 . S
C1761 H1764 0.950 . S
C1762 C1761 1.387 . S
C1762 C1765 1.387 . S
H1763 C1759 0.950 . S
H1764 C1761 0.950 . S
C1765 C1756 1.390 . S
C1765 H1758 0.950 . S
C1765 C1762 1.387 . S
C1766 C1767 1.387 . S
C1766 H1770 0.950 . S
C1766 C1775 1.390 . S
C1767 C1766 1.387 . S
C1767 C1769 1.387 . S
H1768 C1775 0.950 . S
C1769 C1767 1.387 . S
C1769 C1771 1.390 . S
C1769 H1773 0.950 . S
H1770 C1766 0.950 . S
C1771 C1769 1.390 . S
C1771 C1772 1.387 . S
C1771 H1774 0.950 . S
C1772 C1771 1.387 . S
C1772 C1775 1.387 . S
H1773 C1769 0.950 . S
H1774 C1771 0.950 . S
C1775 C1766 1.390 . S
C1775 H1768 0.950 . S
C1775 C1772 1.387 . S
C1776 C1777 1.387 . S
C1776 H1780 0.950 . S
C1776 C1785 1.390 . S
C1777 C1776 1.387 . S
C1777 C1779 1.387 . S
H1778 C1785 0.950 . S
C1779 C1777 1.387 . S
C1779 C1781 1.390 . S
C1779 H1783 0.950 . S
H1780 C1776 0.950 . S
C1781 C1779 1.390 . S
C1781 C1782 1.387 . S
C1781 H1784 0.950 . S
C1782 C1781 1.387 . S
C1782 C1785 1.387 . S
H1783 C1779 0.950 . S
H1784 C1781 0.950 . S
C1785 C1776 1.390 . S
C1785 H1778 0.950 . S
C1785 C1782 1.387 . S
C1786 C1787 1.387 . S
C1786 H1790 0.950 . S
C1786 C1795 1.390 . S
C1787 C1786 1.387 . S
C1787 C1789 1.387 . S
H1788 C1795 0.950 . S
C1789 C1787 1.387 . S
C1789 C1791 1.390 . S
C1789 H1793 0.950 . S
H1790 C1786 0.950 . S
C1791 C1789 1.390 . S
C1791 C1792 1.387 . S
C1791 H1794 0.950 . S
C1792 C1791 1.387 . S
C1792 C1795 1.387 . S
H1793 C1789 0.950 . S
H1794 C1791 0.950 . S
C1795 C1786 1.390 . S
C1795 H1788 0.950 . S
C1795 C1792 1.387 . S
C1796 C1797 1.387 . S
C1796 H1800 0.950 . S
C1796 C1805 1.390 . S
C1797 C1796 1.387 . S
C1797 C1799 1.387 . S
H1798 C1805 0.950 . S
C1799 C1797 1.387 . S
C1799 C1801 1.390 . S
C1799 H1803 0.950 . S
H1800 C1796 0.950 . S
C1801 C1799 1.390 . S
C1801 C1802 1.387 . S
C1801 H1804 0.950 . S
C1802 C1801 1.387 . S
C1802 C1805 1.387 . S
H1803 C1799 0.950 . S
H1804 C1801 0.950 . S
C1805 C1796 1.390 . S
C1805 H1798 0.950 . S
C1805 C1802 1.387 . S
C1806 C1807 1.387 . S
C1806 H1810 0.950 . S
C1806 C1815 1.390 . S
C1807 C1806 1.387 . S
C1807 C1809 1.387 . S
H1808 C1815 0.950 . S
C1809 C1807 1.387 . S
C1809 C1811 1.390 . S
C1809 H1813 0.950 . S
H1810 C1806 0.950 . S
C1811 C1809 1.390 . S
C1811 C1812 1.387 . S
C1811 H1814 0.950 . S
C1812 C1811 1.387 . S
C1812 C1815 1.387 . S
H1813 C1809 0.950 . S
H1814 C1811 0.950 . S
C1815 C1806 1.390 . S
C1815 H1808 0.950 . S
C1815 C1812 1.387 . S
C1816 C1817 1.387 . S
C1816 H1820 0.950 . S
C1816 C1825 1.390 . S
C1817 C1816 1.387 . S
C1817 C1819 1.387 . S
H1818 C1825 0.950 . S
C1819 C1817 1.387 . S
C1819 C1821 1.390 . S
C1819 H1823 0.950 . S
H1820 C1816 0.950 . S
C1821 C1819 1.390 . S
C1821 C1822 1.387 . S
C1821 H1824 0.950 . S
C1822 C1821 1.387 . S
C1822 C1825 1.387 . S
H1823 C1819 0.950 . S
H1824 C1821 0.950 . S
C1825 C1816 1.390 . S
C1825 H1818 0.950 . S
C1825 C1822 1.387 . S
C1826 C1827 1.387 . S
C1826 H1830 0.950 . S
C1826 C1835 1.390 . S
C1827 C1826 1.387 . S
C1827 C1829 1.387 . S
H1828 C1835 0.950 . S
C1829 C1827 1.387 . S
C1829 C1831 1.390 . S
C1829 H1833 0.950 . S
H1830 C1826 0.950 . S
C1831 C1829 1.390 . S
C1831 C1832 1.387 . S
C1831 H1834 0.950 . S
C1832 C1831 1.387 . S
C1832 C1835 1.387 . S
H1833 C1829 0.950 . S
H1834 C1831 0.950 . S
C1835 C1826 1.390 . S
C1835 H1828 0.950 . S
C1835 C1832 1.387 . S
C1836 C1837 1.387 . S
C1836 H1840 0.950 . S
C1836 C1845 1.390 . S
C1837 C1836 1.387 . S
C1837 C1839 1.387 . S
H1838 C1845 0.950 . S
C1839 C1837 1.387 . S
C1839 C1841 1.390 . S
C1839 H1843 0.950 . S
H1840 C1836 0.950 . S
C1841 C1839 1.390 . S
C1841 C1842 1.387 . S
C1841 H1844 0.950 . S
C1842 C1841 1.387 . S
C1842 C1845 1.387 . S
H1843 C1839 0.950 . S
H1844 C1841 0.950 . S
C1845 C1836 1.390 . S
C1845 H1838 0.950 . S
C1845 C1842 1.387 . S
C1846 C1847 1.387 . S
C1846 H1850 0.950 . S
C1846 C1855 1.390 . S
C1847 C1846 1.387 . S
C1847 C1849 1.387 . S
H1848 C1855 0.950 . S
C1849 C1847 1.387 . S
C1849 C1851 1.390 . S
C1849 H1853 0.950 . S
H1850 C1846 0.950 . S
C1851 C1849 1.390 . S
C1851 C1852 1.387 . S
C1851 H1854 0.950 . S
C1852 C1851 1.387 . S
C1852 C1855 1.387 . S
H1853 C1849 0.950 . S
H1854 C1851 0.950 . S
C1855 C1846 1.390 . S
C1855 H1848 0.950 . S
C1855 C1852 1.387 . S
C1856 C1857 1.387 . S
C1856 H1860 0.950 . S
C1856 C1865 1.390 . S
C1857 C1856 1.387 . S
C1857 C1859 1.387 . S
H1858 C1865 0.950 . S
C1859 C1857 1.387 . S
C1859 C1861 1.390 . S
C1859 H1863 0.950 . S
H1860 C1856 0.950 . S
C1861 C1859 1.390 . S
C1861 C1862 1.387 . S
C1861 H1864 0.950 . S
C1862 C1861 1.387 . S
C1862 C1865 1.387 . S
H1863 C1859 0.950 . S
H1864 C1861 0.950 . S
C1865 C1856 1.390 . S
C1865 H1858 0.950 . S
C1865 C1862 1.387 . S
C1866 C1867 1.387 . S
C1866 H1870 0.950 . S
C1866 C1875 1.390 . S
C1867 C1866 1.387 . S
C1867 C1869 1.387 . S
H1868 C1875 0.950 . S
C1869 C1867 1.387 . S
C1869 C1871 1.390 . S
C1869 H1873 0.950 . S
H1870 C1866 0.950 . S
C1871 C1869 1.390 . S
C1871 C1872 1.387 . S
C1871 H1874 0.950 . S
C1872 C1871 1.387 . S
C1872 C1875 1.387 . S
H1873 C1869 0.950 . S
H1874 C1871 0.950 . S
C1875 C1866 1.390 . S
C1875 H1868 0.950 . S
C1875 C1872 1.387 . S
C1876 C1877 1.387 . S
C1876 H1880 0.950 . S
C1876 C1885 1.390 . S
C1877 C1876 1.387 . S
C1877 C1879 1.387 . S
H1878 C1885 0.950 . S
C1879 C1877 1.387 . S
C1879 C1881 1.390 . S
C1879 H1883 0.950 . S
H1880 C1876 0.950 . S
C1881 C1879 1.390 . S
C1881 C1882 1.387 . S
C1881 H1884 0.950 . S
C1882 C1881 1.387 . S
C1882 C1885 1.387 . S
H1883 C1879 0.950 . S
H1884 C1881 0.950 . S
C1885 C1876 1.390 . S
C1885 H1878 0.950 . S
C1885 C1882 1.387 . S
C1886 C1887 1.387 . S
C1886 H1890 0.950 . S
C1886 C1895 1.390 . S
C1887 C1886 1.387 . S
C1887 C1889 1.387 . S
H1888 C1895 0.950 . S
C1889 C1887 1.387 . S
C1889 C1891 1.390 . S
C1889 H1893 0.950 . S
H1890 C1886 0.950 . S
C1891 C1889 1.390 . S
C1891 C1892 1.387 . S
C1891 H1894 0.950 . S
C1892 C1891 1.387 . S
C1892 C1895 1.387 . S
H1893 C1889 0.950 . S
H1894 C1891 0.950 . S
C1895 C1886 1.390 . S
C1895 H1888 0.950 . S
C1895 C1892 1.387 . S
C1896 C1897 1.387 . S
C1896 H1900 0.950 . S
C1896 C1905 1.390 . S
C1897 C1896 1.387 . S
C1897 C1899 1.387 . S
H1898 C1905 0.950 . S
C1899 C1897 1.387 . S
C1899 C1901 1.390 . S
C1899 H1903 0.950 . S
H1900 C1896 0.950 . S
C1901 C1899 1.390 . S
C1901 C1902 1.387 . S
C1901 H1904 0.950 . S
C1902 C1901 1.387 . S
C1902 C1905 1.387 . S
H1903 C1899 0.950 . S
H1904 C1901 0.950 . S
C1905 C1896 1.390 . S
C1905 H1898 0.950 . S
C1905 C1902 1.387 . S
C1906 C1907 1.387 . S
C1906 H1910 0.950 . S
C1906 C1915 1.390 . S
C1907 C1906 1.387 . S
C1907 C1909 1.387 . S
H1908 C1915 0.950 . S
C1909 C1907 1.387 . S
C1909 C1911 1.390 . S
C1909 H1913 0.950 . S
H1910 C1906 0.950 . S
C1911 C1909 1.390 . S
C1911 C1912 1.387 . S
C1911 H1914 0.950 . S
C1912 C1911 1.387 . S
C1912 C1915 1.387 . S
H1913 C1909 0.950 . S
H1914 C1911 0.950 . S
C1915 C1906 1.390 . S
C1915 H1908 0.950 . S
C1915 C1912 1.387 . S
C1916 C1917 1.387 . S
C1916 H1920 0.950 . S
C1916 C1925 1.390 . S
C1917 C1916 1.387 . S
C1917 C1919 1.387 . S
H1918 C1925 0.950 . S
C1919 C1917 1.387 . S
C1919 C1921 1.390 . S
C1919 H1923 0.950 . S
H1920 C1916 0.950 . S
C1921 C1919 1.390 . S
C1921 C1922 1.387 . S
C1921 H1924 0.950 . S
C1922 C1921 1.387 . S
C1922 C1925 1.387 . S
H1923 C1919 0.950 . S
H1924 C1921 0.950 . S
C1925 C1916 1.390 . S
C1925 H1918 0.950 . S
C1925 C1922 1.387 . S
C1926 C1927 1.387 . S
C1926 H1930 0.950 . S
C1926 C1935 1.390 . S
C1927 C1926 1.387 . S
C1927 C1929 1.387 . S
H1928 C1935 0.950 . S
C1929 C1927 1.387 . S
C1929 C1931 1.390 . S
C1929 H1933 0.950 . S
H1930 C1926 0.950 . S
C1931 C1929 1.390 . S
C1931 C1932 1.387 . S
C1931 H1934 0.950 . S
C1932 C1931 1.387 . S
C1932 C1935 1.387 . S
H1933 C1929 0.950 . S
H1934 C1931 0.950 . S
C1935 C1926 1.390 . S
C1935 H1928 0.950 . S
C1935 C1932 1.387 . S
C1936 C1937 1.387 . S
C1936 H1940 0.950 . S
C1936 C1945 1.390 . S
C1937 C1936 1.387 . S
C1937 C1939 1.387 . S
H1938 C1945 0.950 . S
C1939 C1937 1.387 . S
C1939 C1941 1.390 . S
C1939 H1943 0.950 . S
H1940 C1936 0.950 . S
C1941 C1939 1.390 . S
C1941 C1942 1.387 . S
C1941 H1944 0.950 . S
C1942 C1941 1.387 . S
C1942 C1945 1.387 . S
H1943 C1939 0.950 . S
H1944 C1941 0.950 . S
C1945 C1936 1.390 . S
C1945 H1938 0.950 . S
C1945 C1942 1.387 . S
C1946 C1947 1.387 . S
C1946 H1950 0.950 . S
C1946 C1955 1.390 . S
C1947 C1946 1.387 . S
C1947 C1949 1.387 . S
H1948 C1955 0.950 . S
C1949 C1947 1.387 . S
C1949 C1951 1.390 . S
C1949 H1953 0.950 . S
H1950 C1946 0.950 . S
C1951 C1949 1.390 . S
C1951 C1952 1.387 . S
C1951 H1954 0.950 . S
C1952 C1951 1.387 . S
C1952 C1955 1.387 . S
H1953 C1949 0.950 . S
H1954 C1951 0.950 . S
C1955 C1946 1.390 . S
C1955 H1948 0.950 . S
C1955 C1952 1.387 . S
C1956 C1957 1.387 1_556 S
C1956 H1960 0.950 . S
C1956 C1965 1.390 . S
C1957 C1956 1.387 1_554 S
C1957 C1959 1.387 . S
H1958 C1965 0.950 . S
C1959 C1957 1.387 . S
C1959 C1961 1.390 . S
C1959 H1963 0.950 . S
H1960 C1956 0.950 . S
C1961 C1959 1.390 . S
C1961 C1962 1.387 1_554 S
C1961 H1964 0.950 . S
C1962 C1961 1.387 1_556 S
C1962 C1965 1.387 . S
H1963 C1959 0.950 . S
H1964 C1961 0.950 . S
C1965 C1956 1.390 . S
C1965 H1958 0.950 . S
C1965 C1962 1.387 . S
C1966 C1967 1.387 . S
C1966 H1970 0.950 . S
C1966 C1975 1.390 . S
C1967 C1966 1.387 . S
C1967 C1969 1.387 1_556 S
H1968 C1975 0.950 . S
C1969 C1967 1.387 1_554 S
C1969 C1971 1.390 1_554 S
C1969 H1973 0.950 . S
H1970 C1966 0.950 . S
C1971 C1969 1.390 1_556 S
C1971 C1972 1.387 . S
C1971 H1974 0.957 . S
C1972 C1971 1.387 . S
C1972 C1975 1.387 . S
H1973 C1969 0.950 . S
H1974 C1971 0.957 . S
C1975 C1966 1.390 . S
C1975 H1968 0.950 . S
C1975 C1972 1.387 . S
C1976 C1977 1.387 . S
C1976 H1980 0.950 . S
C1976 C1985 1.390 . S
C1977 C1976 1.387 . S
C1977 C1979 1.387 . S
H1978 C1985 0.950 1_556 S
C1979 C1977 1.387 . S
C1979 C1981 1.390 . S
C1979 H1983 0.950 . S
H1980 C1976 0.950 . S
C1981 C1979 1.390 . S
C1981 C1982 1.387 . S
C1981 H1984 0.950 . S
C1982 C1981 1.387 . S
C1982 C1985 1.387 . S
H1983 C1979 0.950 . S
H1984 C1981 0.950 . S
C1985 C1976 1.390 . S
C1985 H1978 0.950 1_554 S
C1985 C1982 1.387 . S
C1986 C1987 1.387 1_556 S
C1986 H1990 0.950 . S
C1986 C1995 1.390 . S
C1987 C1986 1.387 1_554 S
C1987 C1989 1.387 . S
H1988 C1995 0.950 . S
C1989 C1987 1.387 . S
C1989 C1991 1.390 1_554 S
C1989 H1993 0.950 . S
H1990 C1986 0.950 . S
C1991 C1989 1.390 1_556 S
C1991 C1992 1.387 . S
C1991 H1994 0.950 . S
C1992 C1991 1.387 . S
C1992 C1995 1.387 . S
H1993 C1989 0.950 . S
H1994 C1991 0.950 . S
C1995 C1986 1.390 . S
C1995 H1988 0.950 . S
C1995 C1992 1.387 . S
C1996 C1997 1.387 . S
C1996 H2000 0.950 . S
C1996 C2005 1.390 . S
C1997 C1996 1.387 . S
C1997 C1999 1.387 . S
H1998 C2005 0.950 . S
C1999 C1997 1.387 . S
C1999 C2001 1.390 . S
C1999 H2003 0.950 1_556 S
H2000 C1996 0.950 . S
C2001 C1999 1.390 . S
C2001 C2002 1.387 . S
C2001 H2004 0.950 . S
C2002 C2001 1.387 . S
C2002 C2005 1.387 . S
H2003 C1999 0.950 1_554 S
H2004 C2001 0.950 . S
C2005 C1996 1.390 . S
C2005 H1998 0.950 . S
C2005 C2002 1.387 . S
C2006 C2007 1.387 . S
C2006 H2010 0.950 . S
C2006 C2015 1.390 . S
C2007 C2006 1.387 . S
C2007 C2009 1.387 . S
H2008 C2015 0.950 1_556 S
C2009 C2007 1.387 . S
C2009 C2011 1.390 . S
C2009 H2013 0.950 . S
H2010 C2006 0.950 . S
C2011 C2009 1.390 . S
C2011 C2012 1.387 . S
C2011 H2014 0.950 . S
C2012 C2011 1.387 . S
C2012 C2015 1.387 . S
H2013 C2009 0.950 . S
H2014 C2011 0.950 . S
C2015 C2006 1.390 . S
C2015 H2008 0.950 1_554 S
C2015 C2012 1.387 . S
C2016 C2017 1.387 . S
C2016 H2020 0.950 . S
C2016 C2025 1.390 . S
C2017 C2016 1.387 . S
C2017 C2019 1.387 . S
H2018 C2025 0.950 . S
C2019 C2017 1.387 . S
C2019 C2021 1.390 . S
C2019 H2023 0.950 . S
H2020 C2016 0.950 . S
C2021 C2019 1.390 . S
C2021 C2022 1.387 . S
C2021 H2024 0.950 . S
C2022 C2021 1.387 . S
C2022 C2025 1.387 . S
H2023 C2019 0.950 . S
H2024 C2021 0.950 . S
C2025 C2016 1.390 . S
C2025 H2018 0.950 . S
C2025 C2022 1.387 . S
C2026 C2027 1.387 . S
C2026 H2030 0.950 . S
C2026 C2035 1.390 . S
C2027 C2026 1.387 . S
C2027 C2029 1.387 . S
H2028 C2035 0.950 . S
C2029 C2027 1.387 . S
C2029 C2031 1.390 . S
C2029 H2033 0.950 . S
H2030 C2026 0.950 . S
C2031 C2029 1.390 . S
C2031 C2032 1.387 . S
C2031 H2034 0.950 . S
C2032 C2031 1.387 . S
C2032 C2035 1.387 . S
H2033 C2029 0.950 . S
H2034 C2031 0.950 . S
C2035 C2026 1.390 . S
C2035 H2028 0.950 . S
C2035 C2032 1.387 . S
C2036 C2037 1.387 . S
C2036 H2040 0.950 . S
C2036 C2045 1.390 . S
C2037 C2036 1.387 . S
C2037 C2039 1.387 . S
H2038 C2045 0.950 . S
C2039 C2037 1.387 . S
C2039 C2041 1.390 . S
C2039 H2043 0.950 . S
H2040 C2036 0.950 . S
C2041 C2039 1.390 . S
C2041 C2042 1.387 . S
C2041 H2044 0.950 . S
C2042 C2041 1.387 . S
C2042 C2045 1.387 . S
H2043 C2039 0.950 . S
H2044 C2041 0.950 . S
C2045 C2036 1.390 . S
C2045 H2038 0.950 . S
C2045 C2042 1.387 . S
C2046 C2047 1.387 . S
C2046 H2050 0.950 . S
C2046 C2055 1.390 . S
C2047 C2046 1.387 . S
C2047 C2049 1.387 . S
H2048 C2055 0.950 . S
C2049 C2047 1.387 . S
C2049 C2051 1.390 . S
C2049 H2053 0.950 . S
H2050 C2046 0.950 . S
C2051 C2049 1.390 . S
C2051 C2052 1.387 . S
C2051 H2054 0.950 . S
C2052 C2051 1.387 . S
C2052 C2055 1.387 . S
H2053 C2049 0.950 . S
H2054 C2051 0.950 . S
C2055 C2046 1.390 . S
C2055 H2048 0.950 . S
C2055 C2052 1.387 . S
C2056 C2057 1.387 . S
C2056 H2060 0.950 . S
C2056 C2065 1.390 . S
C2057 C2056 1.387 . S
C2057 C2059 1.387 . S
H2058 C2065 0.950 . S
C2059 C2057 1.387 . S
C2059 C2061 1.390 . S
C2059 H2063 0.950 . S
H2060 C2056 0.950 . S
C2061 C2059 1.390 . S
C2061 C2062 1.387 . S
C2061 H2064 0.950 . S
C2062 C2061 1.387 . S
C2062 C2065 1.387 . S
H2063 C2059 0.950 . S
H2064 C2061 0.950 . S
C2065 C2056 1.390 . S
C2065 H2058 0.950 . S
C2065 C2062 1.387 . S
C2066 C2067 1.387 . S
C2066 H2070 0.950 . S
C2066 C2075 1.390 . S
C2067 C2066 1.387 . S
C2067 C2069 1.387 . S
H2068 C2075 0.950 . S
C2069 C2067 1.387 . S
C2069 C2071 1.390 . S
C2069 H2073 0.951 . S
H2070 C2066 0.950 . S
C2071 C2069 1.390 . S
C2071 C2072 1.387 . S
C2071 H2074 0.950 . S
C2072 C2071 1.387 . S
C2072 C2075 1.387 . S
H2073 C2069 0.951 . S
H2074 C2071 0.950 . S
C2075 C2066 1.390 . S
C2075 H2068 0.950 . S
C2075 C2072 1.387 . S
C2076 C2077 1.387 . S
C2076 H2080 0.950 . S
C2076 C2085 1.390 . S
C2077 C2076 1.387 . S
C2077 C2079 1.387 . S
H2078 C2085 0.950 . S
C2079 C2077 1.387 . S
C2079 C2081 1.390 . S
C2079 H2083 0.950 . S
H2080 C2076 0.950 . S
C2081 C2079 1.390 . S
C2081 C2082 1.387 . S
C2081 H2084 0.950 . S
C2082 C2081 1.387 . S
C2082 C2085 1.387 . S
H2083 C2079 0.950 . S
H2084 C2081 0.950 . S
C2085 C2076 1.390 . S
C2085 H2078 0.950 . S
C2085 C2082 1.387 . S
C2086 C2087 1.387 . S
C2086 H2090 0.950 . S
C2086 C2095 1.390 . S
C2087 C2086 1.387 . S
C2087 C2089 1.387 . S
H2088 C2095 0.950 . S
C2089 C2087 1.387 . S
C2089 C2091 1.390 . S
C2089 H2093 0.950 . S
H2090 C2086 0.950 . S
C2091 C2089 1.390 . S
C2091 C2092 1.387 . S
C2091 H2094 0.950 . S
C2092 C2091 1.387 . S
C2092 C2095 1.387 . S
H2093 C2089 0.950 . S
H2094 C2091 0.950 . S
C2095 C2086 1.390 . S
C2095 H2088 0.950 . S
C2095 C2092 1.387 . S
C2096 C2097 1.387 . S
C2096 H2100 0.950 . S
C2096 C2105 1.390 . S
C2097 C2096 1.387 . S
C2097 C2099 1.387 . S
H2098 C2105 0.950 . S
C2099 C2097 1.387 . S
C2099 C2101 1.390 . S
C2099 H2103 0.950 1_565 S
H2100 C2096 0.950 . S
C2101 C2099 1.390 . S
C2101 C2102 1.387 . S
C2101 H2104 0.950 1_565 S
C2102 C2101 1.387 . S
C2102 C2105 1.387 . S
H2103 C2099 0.950 1_545 S
H2104 C2101 0.950 1_545 S
C2105 C2096 1.390 . S
C2105 H2098 0.950 . S
C2105 C2102 1.387 . S
C2106 C2107 1.387 . S
C2106 H2110 0.950 . S
C2106 C2115 1.390 . S
C2107 C2106 1.387 . S
C2107 C2109 1.387 . S
H2108 C2115 0.950 . S
C2109 C2107 1.387 . S
C2109 C2111 1.414 . S
C2109 H2113 0.950 . S
H2110 C2106 0.950 . S
C2111 C2109 1.414 . S
C2111 C2112 1.393 . S
C2111 H2114 0.922 1_565 S
C2112 C2111 1.393 . S
C2112 C2115 1.387 . S
H2113 C2109 0.950 . S
H2114 C2111 0.922 1_545 S
C2115 C2106 1.390 . S
C2115 H2108 0.950 . S
C2115 C2112 1.387 . S
C2116 C2117 1.387 . S
C2116 H2120 0.950 1_455 S
C2116 C2125 1.390 1_455 S
C2117 C2116 1.387 . S
C2117 C2119 1.387 . S
H2118 C2125 0.950 . S
C2119 C2117 1.387 . S
C2119 C2121 1.390 . S
C2119 H2123 0.950 . S
H2120 C2116 0.950 1_655 S
C2121 C2119 1.390 . S
C2121 C2122 1.387 . S
C2121 H2124 0.950 . S
C2122 C2121 1.387 . S
C2122 C2125 1.387 1_455 S
H2123 C2119 0.950 . S
H2124 C2121 0.950 . S
C2125 C2116 1.390 1_655 S
C2125 H2118 0.950 . S
C2125 C2122 1.387 1_655 S
C2126 C2127 1.387 . S
C2126 H2130 0.950 . S
C2126 C2135 1.390 . S
C2127 C2126 1.387 . S
C2127 C2129 1.387 . S
H2128 C2135 0.950 . S
C2129 C2127 1.387 . S
C2129 C2131 1.390 . S
C2129 H2133 0.950 . S
H2130 C2126 0.950 . S
C2131 C2129 1.390 . S
C2131 C2132 1.387 . S
C2131 H2134 0.950 . S
C2132 C2131 1.387 . S
C2132 C2135 1.387 . S
H2133 C2129 0.950 . S
H2134 C2131 0.950 . S
C2135 C2126 1.390 . S
C2135 H2128 0.950 . S
C2135 C2132 1.387 . S
C2136 C2137 1.387 . S
C2136 H2140 0.950 . S
C2136 C2145 1.390 . S
C2137 C2136 1.387 . S
C2137 C2139 1.387 . S
H2138 C2145 0.950 . S
C2139 C2137 1.387 . S
C2139 C2141 1.390 . S
C2139 H2143 0.950 . S
H2140 C2136 0.950 . S
C2141 C2139 1.390 . S
C2141 C2142 1.387 . S
C2141 H2144 0.950 . S
C2142 C2141 1.387 . S
C2142 C2145 1.387 . S
H2143 C2139 0.950 . S
H2144 C2141 0.950 . S
C2145 C2136 1.390 . S
C2145 H2138 0.950 . S
C2145 C2142 1.387 . S
C2146 C2147 1.387 . S
C2146 H2150 0.950 . S
C2146 C2155 1.390 . S
C2147 C2146 1.387 . S
C2147 C2149 1.387 . S
H2148 C2155 0.950 . S
C2149 C2147 1.387 . S
C2149 C2151 1.390 . S
C2149 H2153 0.950 . S
H2150 C2146 0.950 . S
C2151 C2149 1.390 . S
C2151 C2152 1.387 . S
C2151 H2154 0.950 . S
C2152 C2151 1.387 . S
C2152 C2155 1.387 . S
H2153 C2149 0.950 . S
H2154 C2151 0.950 . S
C2155 C2146 1.390 . S
C2155 H2148 0.950 . S
C2155 C2152 1.387 . S
C2156 C2157 1.387 . S
C2156 H2160 0.950 . S
C2156 C2165 1.390 . S
C2157 C2156 1.387 . S
C2157 C2159 1.387 . S
H2158 C2165 0.950 . S
C2159 C2157 1.387 . S
C2159 C2161 1.390 . S
C2159 H2163 0.950 . S
H2160 C2156 0.950 . S
C2161 C2159 1.390 . S
C2161 C2162 1.387 . S
C2161 H2164 0.950 . S
C2162 C2161 1.387 . S
C2162 C2165 1.387 . S
H2163 C2159 0.950 . S
H2164 C2161 0.950 . S
C2165 C2156 1.390 . S
C2165 H2158 0.950 . S
C2165 C2162 1.387 . S
C2166 C2167 1.387 . S
C2166 H2170 0.950 1_545 S
C2166 C2175 1.407 . S
C2167 C2166 1.387 . S
C2167 C2169 1.387 . S
H2168 C2175 0.925 1_565 S
C2169 C2167 1.387 . S
C2169 C2171 1.390 . S
C2169 H2173 0.950 . S
H2170 C2166 0.950 1_565 S
C2171 C2169 1.390 . S
C2171 C2172 1.387 . S
C2171 H2174 0.950 . S
C2172 C2171 1.387 . S
C2172 C2175 1.396 . S
H2173 C2169 0.950 . S
H2174 C2171 0.950 . S
C2175 C2166 1.407 . S
C2175 H2168 0.925 1_545 S
C2175 C2172 1.396 . S
C2176 C2177 1.387 . S
C2176 H2180 0.950 1_655 S
C2176 C2185 1.390 . S
C2177 C2176 1.387 . S
C2177 C2179 1.387 . S
H2178 C2185 0.950 1_455 S
C2179 C2177 1.387 . S
C2179 C2181 1.390 . S
C2179 H2183 0.950 . S
H2180 C2176 0.950 1_455 S
C2181 C2179 1.390 . S
C2181 C2182 1.387 . S
C2181 H2184 0.950 . S
C2182 C2181 1.387 . S
C2182 C2185 1.387 . S
H2183 C2179 0.950 . S
H2184 C2181 0.950 . S
C2185 C2176 1.390 . S
C2185 H2178 0.950 1_655 S
C2185 C2182 1.387 . S
C2186 C2187 1.387 . S
C2186 H2190 0.950 . S
C2186 C2195 1.390 . S
C2187 C2186 1.387 . S
C2187 C2189 1.387 . S
H2188 C2195 0.950 . S
C2189 C2187 1.387 . S
C2189 C2191 1.390 . S
C2189 H2193 0.950 . S
H2190 C2186 0.950 . S
C2191 C2189 1.390 . S
C2191 C2192 1.387 . S
C2191 H2194 0.950 . S
C2192 C2191 1.387 . S
C2192 C2195 1.387 . S
H2193 C2189 0.950 . S
H2194 C2191 0.950 . S
C2195 C2186 1.390 . S
C2195 H2188 0.950 . S
C2195 C2192 1.387 . S
C2196 C2197 1.387 . S
C2196 H2200 0.950 . S
C2196 C2205 1.390 . S
C2197 C2196 1.387 . S
C2197 C2199 1.387 . S
H2198 C2205 0.950 . S
C2199 C2197 1.387 . S
C2199 C2201 1.390 . S
C2199 H2203 0.950 . S
H2200 C2196 0.950 . S
C2201 C2199 1.390 . S
C2201 C2202 1.387 . S
C2201 H2204 0.950 . S
C2202 C2201 1.387 . S
C2202 C2205 1.387 . S
H2203 C2199 0.950 . S
H2204 C2201 0.950 . S
C2205 C2196 1.390 . S
C2205 H2198 0.950 . S
C2205 C2202 1.387 . S
C2206 C2207 1.387 . S
C2206 H2210 0.950 . S
C2206 C2215 1.390 . S
C2207 C2206 1.387 . S
C2207 C2209 1.387 . S
H2208 C2215 0.950 . S
C2209 C2207 1.387 . S
C2209 C2211 1.390 . S
C2209 H2213 0.950 . S
H2210 C2206 0.950 . S
C2211 C2209 1.390 . S
C2211 C2212 1.387 . S
C2211 H2214 0.950 . S
C2212 C2211 1.387 . S
C2212 C2215 1.387 . S
H2213 C2209 0.950 . S
H2214 C2211 0.950 . S
C2215 C2206 1.390 . S
C2215 H2208 0.950 . S
C2215 C2212 1.387 . S
C2216 C2217 1.387 . S
C2216 H2220 0.950 . S
C2216 C2225 1.390 . S
C2217 C2216 1.387 . S
C2217 C2219 1.387 . S
H2218 C2225 0.950 . S
C2219 C2217 1.387 . S
C2219 C2221 1.390 . S
C2219 H2223 0.950 . S
H2220 C2216 0.950 . S
C2221 C2219 1.390 . S
C2221 C2222 1.387 . S
C2221 H2224 0.950 . S
C2222 C2221 1.387 . S
C2222 C2225 1.387 . S
H2223 C2219 0.950 . S
H2224 C2221 0.950 . S
C2225 C2216 1.390 . S
C2225 H2218 0.950 . S
C2225 C2222 1.387 . S
C2226 C2227 1.387 . S
C2226 H2230 0.950 . S
C2226 C2235 1.390 . S
C2227 C2226 1.387 . S
C2227 C2229 1.387 . S
H2228 C2235 0.950 . S
C2229 C2227 1.387 . S
C2229 C2231 1.390 . S
C2229 H2233 0.950 . S
H2230 C2226 0.950 . S
C2231 C2229 1.390 . S
C2231 C2232 1.387 . S
C2231 H2234 0.950 . S
C2232 C2231 1.387 . S
C2232 C2235 1.387 . S
H2233 C2229 0.950 . S
H2234 C2231 0.950 . S
C2235 C2226 1.390 . S
C2235 H2228 0.950 . S
C2235 C2232 1.387 . S
C2236 C2237 1.387 . S
C2236 H2240 0.950 . S
C2236 C2245 1.390 . S
C2237 C2236 1.387 . S
C2237 C2239 1.387 . S
H2238 C2245 0.950 . S
C2239 C2237 1.387 . S
C2239 C2241 1.390 . S
C2239 H2243 0.950 . S
H2240 C2236 0.950 . S
C2241 C2239 1.390 . S
C2241 C2242 1.387 . S
C2241 H2244 0.950 . S
C2242 C2241 1.387 . S
C2242 C2245 1.387 . S
H2243 C2239 0.950 . S
H2244 C2241 0.950 . S
C2245 C2236 1.390 . S
C2245 H2238 0.950 . S
C2245 C2242 1.387 . S
C2246 C2247 1.387 . S
C2246 H2250 0.950 . S
C2246 C2255 1.390 . S
C2247 C2246 1.387 . S
C2247 C2249 1.387 . S
H2248 C2255 0.950 . S
C2249 C2247 1.387 . S
C2249 C2251 1.390 . S
C2249 H2253 0.950 . S
H2250 C2246 0.950 . S
C2251 C2249 1.390 . S
C2251 C2252 1.387 . S
C2251 H2254 0.950 . S
C2252 C2251 1.387 . S
C2252 C2255 1.387 . S
H2253 C2249 0.950 . S
H2254 C2251 0.950 . S
C2255 C2246 1.390 . S
C2255 H2248 0.950 . S
C2255 C2252 1.387 . S
C2256 C2257 1.387 . S
C2256 H2260 0.950 . S
C2256 C2265 1.390 . S
C2257 C2256 1.387 . S
C2257 C2259 1.387 . S
H2258 C2265 0.950 . S
C2259 C2257 1.387 . S
C2259 C2261 1.390 . S
C2259 H2263 0.950 . S
H2260 C2256 0.950 . S
C2261 C2259 1.390 . S
C2261 C2262 1.387 . S
C2261 H2264 0.950 . S
C2262 C2261 1.387 . S
C2262 C2265 1.387 . S
H2263 C2259 0.950 . S
H2264 C2261 0.950 . S
C2265 C2256 1.390 . S
C2265 H2258 0.950 . S
C2265 C2262 1.387 . S
C2266 C2267 1.387 . S
C2266 H2270 0.950 . S
C2266 C2275 1.390 . S
C2267 C2266 1.387 . S
C2267 C2269 1.387 . S
H2268 C2275 0.950 . S
C2269 C2267 1.387 . S
C2269 C2271 1.390 . S
C2269 H2273 0.950 . S
H2270 C2266 0.950 . S
C2271 C2269 1.390 . S
C2271 C2272 1.387 . S
C2271 H2274 0.950 . S
C2272 C2271 1.387 . S
C2272 C2275 1.387 . S
H2273 C2269 0.950 . S
H2274 C2271 0.950 . S
C2275 C2266 1.390 . S
C2275 H2268 0.950 . S
C2275 C2272 1.387 . S
C2276 C2277 1.387 . S
C2276 H2280 0.950 . S
C2276 C2285 1.390 . S
C2277 C2276 1.387 . S
C2277 C2279 1.387 . S
H2278 C2285 0.950 . S
C2279 C2277 1.387 . S
C2279 C2281 1.390 1_545 S
C2279 H2283 0.934 1_545 S
H2280 C2276 0.950 . S
C2281 C2279 1.390 1_565 S
C2281 C2282 1.387 1_565 S
C2281 H2284 0.950 . S
C2282 C2281 1.387 1_545 S
C2282 C2285 1.387 . S
H2283 C2279 0.934 1_565 S
H2284 C2281 0.950 . S
C2285 C2276 1.390 . S
C2285 H2278 0.950 . S
C2285 C2282 1.387 . S
C1567 C8 1.270 . S
C1572 C963 1.241 . S
C1577 C18 1.540 . S
C1582 C1043 1.522 . S
C1592 C1111 1.357 . S
C1587 C31 1.353 . S
C1597 C34 1.680 . S
C1602 C1191 1.689 . S
C1607 C5 1.484 . S
C1612 C1265 1.535 . S
C1617 C21 1.636 . S
C1622 C1333 1.557 . S
C1627 C47 1.187 1_556 S
C1632 C1259 1.208 . S
C1642 C1339 1.447 . S
C1637 C57 1.376 . S
C1652 C1185 1.386 . S
C1647 C70 1.312 1_556 S
C1657 C73 1.638 . S
C1662 C1117 1.689 1_545 S
C1672 C969 1.529 . S
C1667 C44 1.425 . S
C1677 C60 1.440 . S
C1682 C1037 1.447 . S
C1687 C86 1.514 . S
C1692 C1407 1.408 . S
C1697 C96 1.600 . S
C1702 C1487 1.543 . S
C1712 C1555 1.533 . S
C1707 C109 1.676 . S
C1717 C112 1.961 . S
C1722 C303 1.856 . S
C1727 C83 1.725 . S
C1732 C377 1.671 . S
C1737 C99 1.689 . S
C1742 C445 1.587 . S
C1747 C125 1.186 . S
C1752 C371 1.183 . S
C1757 C135 1.428 . S
C1762 C451 1.484 . S
C1772 C297 1.416 . S
C1767 C148 1.409 . S
C1782 C1561 1.815 . S
C1777 C151 1.826 . S
C1792 C1413 1.530 . S
C1787 C122 1.499 . S
C1802 C1481 1.491 . S
C1797 C138 1.491 . S
C1807 C164 1.428 . S
C1812 C519 1.328 . S
C1817 C174 1.619 . S
C1822 C599 1.573 . S
C1827 C187 1.673 . S
C1832 C667 1.544 . S
C1837 C190 2.021 . S
C1842 C747 1.917 . S
C1852 C821 1.648 . S
C1847 C161 1.720 . S
C1862 C889 1.623 . S
C1857 C177 1.727 . S
C1872 C815 1.277 . S
C1867 C203 1.276 . S
C1882 C895 1.446 . S
C1877 C213 1.405 . S
C1887 C226 1.385 . S
C1892 C741 1.380 . S
C1902 C673 1.747 . S
C1897 C229 1.760 . S
C1907 C200 1.526 . S
C1912 C525 1.573 . S
C1922 C593 1.460 . S
C1917 C216 1.460 . S
C1932 C273 1.918 . S
C1927 C0 1.850 . S
C1937 C23 1.454 . S
C1942 C347 1.425 . S
C1952 C433 1.589 . S
C1947 C36 1.607 . S
C1962 C507 1.351 . S
C1957 C26 1.285 . S
C1972 C569 1.588 . S
C1967 C10 1.627 1_556 S
C1982 C655 1.566 . S
C1977 C13 1.481 . S
C1987 C39 2.039 . S
C1992 C643 2.055 . S
C1997 C62 1.732 . S
C2002 C495 1.593 . S
C2007 C75 1.908 . S
C2012 C581 1.822 1_554 S
C2017 C65 1.561 . S
C2022 C359 1.618 . S
C2032 C421 1.756 . S
C2027 C49 1.912 . S
C2037 C52 1.743 . S
C2042 C285 1.811 . S
C2052 C717 1.858 . S
C2047 C78 1.808 . S
C2057 C101 1.522 1_545 S
C2062 C791 1.519 . S
C2067 C114 1.611 1_655 S
C2072 C877 1.583 . S
C2082 C951 1.166 . S
C2077 C104 1.151 . S
C2087 C88 1.515 . S
C2092 C1013 1.483 . S
C2097 C91 1.327 . S
C2102 C1099 1.356 . S
C2107 C117 1.727 . S
C2112 C1087 1.719 1_565 S
C2117 C140 1.423 . S
C2122 C939 1.353 1_455 S
C2132 C1025 1.706 . S
C2127 C153 1.786 . S
C2137 C143 1.553 . S
C2142 C803 1.590 . S
C2147 C127 1.896 . S
C2152 C865 1.753 . S
C2162 C729 1.838 . S
C2157 C130 1.795 . S
C2172 C1161 1.683 . S
C2167 C156 1.688 . S
C2177 C179 1.244 . S
C2182 C1235 1.231 . S
C2187 C192 1.518 . S
C2192 C1321 1.500 . S
C2202 C1395 1.335 . S
C2197 C182 1.289 . S
C2212 C1457 1.600 . S
C2207 C166 1.633 . S
C2217 C169 1.537 . S
C2222 C1543 1.601 . S
C2227 C195 2.005 . S
C2232 C1531 2.002 . S
C2237 C218 1.818 1_565 S
C2242 C1383 1.681 . S
C2252 C1469 1.786 . S
C2247 C231 1.885 1_455 S
C2262 C1247 1.291 . S
C2257 C221 1.259 . S
C2272 C1309 1.650 . S
C2267 C205 1.781 . S
C2277 C208 1.426 . S
C2282 C1173 1.478 . S
