# Generated by pormake.
# Topology rtl, (3,6)-cn, num edge types: 1
# Building blocks:
#     Node 0, Type 0, BuildingBlock: INOVEN_clean_linker_0, # of connection points: 3
#     Node 1, Type 0, BuildingBlock: INOVEN_clean_linker_0, # of connection points: 3
#     Node 2, Type 0, BuildingBlock: INOVEN_clean_linker_0, # of connection points: 3
#     Node 3, Type 0, BuildingBlock: INOVEN_clean_linker_0, # of connection points: 3
#     Node 4, Type 1, BuildingBlock: VOLQOD_clean_sbu_1, # of connection points: 6
#     Node 5, Type 1, BuildingBlock: VOLQOD_clean_sbu_1, # of connection points: 6
#     Edge 6, Type (0, 1), BuildingBlock: FUNLAD_clean_linker_1, # of connection points: 2
#     Edge 7, Type (0, 1), BuildingBlock: FUNLAD_clean_linker_1, # of connection points: 2
#     Edge 8, Type (0, 1), BuildingBlock: FUNLAD_clean_linker_1, # of connection points: 2
#     Edge 9, Type (0, 1), BuildingBlock: FUNLAD_clean_linker_1, # of connection points: 2
#     Edge 10, Type (0, 1), BuildingBlock: FUNLAD_clean_linker_1, # of connection points: 2
#     Edge 11, Type (0, 1), BuildingBlock: FUNLAD_clean_linker_1, # of connection points: 2
#     Edge 12, Type (0, 1), BuildingBlock: FUNLAD_clean_linker_1, # of connection points: 2
#     Edge 13, Type (0, 1), BuildingBlock: FUNLAD_clean_linker_1, # of connection points: 2
#     Edge 14, Type (0, 1), BuildingBlock: FUNLAD_clean_linker_1, # of connection points: 2
#     Edge 15, Type (0, 1), BuildingBlock: FUNLAD_clean_linker_1, # of connection points: 2
#     Edge 16, Type (0, 1), BuildingBlock: FUNLAD_clean_linker_1, # of connection points: 2
#     Edge 17, Type (0, 1), BuildingBlock: FUNLAD_clean_linker_1, # of connection points: 2
# Relax obj value: 0.042
# Max RMSD: 0.144
# Mean RMSD: 0.093
data_MOF--net-rtl--node1-VOLQOD_clean_sbu_1--node2-INOVEN_clean_linker_0--edge1-FUNLAD_clean_linker_1
_symmetry_space_group_name_H-M    P1
_symmetry_Int_Tables_number       1
_symmetry_cell_setting            triclinic
loop_
_symmetry_equiv_pos_as_xyz
'x, y, z'
_cell_length_a     39.558518
_cell_length_b     38.948544
_cell_length_c     22.705107
_cell_angle_alpha  91.272815
_cell_angle_beta   91.703912
_cell_angle_gamma 89.593742
loop_
_atom_site_label
_atom_site_type_symbol
_atom_site_fract_x
_atom_site_fract_y
_atom_site_fract_z
_atom_type_partial_charge
H0 H 0.18467 0.76845 0.90451 0.0
H1 H 0.12075 0.84178 0.99293 0.0
H2 H 0.19262 0.78249 0.09328 0.0
N3 N 0.21711 0.74637 0.00018 0.0
N4 N 0.23078 0.73713 0.04753 0.0
C5 C 0.17643 0.78109 0.94465 0.0
C6 C 0.15148 0.80687 0.94189 0.0
C7 C 0.19148 0.77211 -0.00104 0.0
C8 C 0.18106 0.7889 0.05103 0.0
C9 C 0.15516 0.81354 0.04901 0.0
C10 C 0.14054 0.82243 0.99443 0.0
H11 H 0.71172 0.69932 0.62825 0.0
H12 H 0.64578 0.63386 0.52302 0.0
H13 H 0.70857 0.70682 0.43951 0.0
N14 N 0.73809 0.73178 0.54081 0.0
N15 N 0.74643 0.74948 0.49865 0.0
C16 C 0.70131 0.69103 0.58559 0.0
C17 C 0.67622 0.66581 0.58202 0.0
C18 C 0.71284 0.70616 0.53471 0.0
C19 C 0.69951 0.69548 0.4792 0.0
C20 C 0.67468 0.66994 0.47462 0.0
C21 C 0.66342 0.65495 0.52628 0.0
H22 H 0.83809 0.25673 0.90358 0.0
H23 H 0.88182 0.17312 0.0002 0.0
H24 H 0.82029 0.24826 0.08896 0.0
N25 N 0.80489 0.28493 0.99121 0.0
N26 N 0.78639 0.29422 0.03217 0.0
C27 C 0.84229 0.24359 0.94478 0.0
C28 C 0.86153 0.21329 0.94601 0.0
C29 C 0.82676 0.25601 0.99573 0.0
C30 C 0.83202 0.23877 0.04921 0.0
C31 C 0.85279 0.20945 0.05166 0.0
C32 C 0.86687 0.1965 -0.00048 0.0
H33 H 0.26902 0.31606 0.41114 0.0
H34 H 0.35153 0.36206 0.51137 0.0
H35 H 0.28283 0.2956 0.59587 0.0
N36 N 0.2447 0.28081 0.49836 0.0
N37 N 0.24297 0.25499 0.52951 0.0
C38 C 0.28331 0.31959 0.4523 0.0
C39 C 0.31241 0.33997 0.45444 0.0
C40 C 0.27318 0.30265 0.50259 0.0
C41 C 0.29124 0.30765 0.55636 0.0
C42 C 0.3198 0.3287 0.55934 0.0
C43 C 0.33036 0.34458 0.50829 0.0
O44 O 0.91538 0.97746 0.48127 0.0
Zn45 Zn 0.94702 0.01784 0.48722 0.0
O46 O 0.99422 0.00253 0.49612 0.0
Zn47 Zn 0.0146 0.02405 0.56701 0.0
Zn48 Zn 0.99582 0.95247 0.50223 0.0
Zn49 Zn 0.01978 0.01589 0.42802 0.0
O50 O 0.05271 0.05538 0.54755 0.0
O51 O 0.05972 0.04527 0.45195 0.0
O52 O 0.93304 0.047 0.55714 0.0
O53 O 0.98064 0.05241 0.61092 0.0
O54 O 0.0333 0.98808 0.62183 0.0
O55 O 0.02028 0.9383 0.57713 0.0
O56 O 0.01968 0.93041 0.4337 0.0
O57 O 0.94018 0.04596 0.41421 0.0
O58 O 0.0371 0.97477 0.38305 0.0
O59 O 0.99036 0.04348 0.37251 0.0
C60 C 0.91972 0.94549 0.48935 0.0
C61 C 0.06849 0.0601 0.50039 0.0
C62 C 0.03375 0.95539 0.6201 0.0
C63 C 0.94936 0.05898 0.60207 0.0
C64 C 0.03497 0.94256 0.39038 0.0
C65 C 0.95971 0.05362 0.37292 0.0
O66 O 0.94895 0.93276 0.50015 0.0
O67 O 0.57567 0.47485 0.02799 0.0
Zn68 Zn 0.54284 0.5145 0.0193 0.0
O69 O 0.4959 0.49853 0.01599 0.0
Zn70 Zn 0.47422 0.51099 0.94105 0.0
Zn71 Zn 0.49549 0.44854 0.0232 0.0
Zn72 Zn 0.47071 0.51993 0.08012 0.0
O73 O 0.43546 0.54398 0.95224 0.0
O74 O 0.43414 0.55174 0.04936 0.0
O75 O 0.55432 0.53891 0.9451 0.0
O76 O 0.50727 0.53401 0.88955 0.0
O77 O 0.45664 0.46927 0.89689 0.0
O78 O 0.47474 0.42545 0.95066 0.0
O79 O 0.46818 0.43469 0.09191 0.0
O80 O 0.55116 0.54614 0.08956 0.0
O81 O 0.44836 0.48412 0.12819 0.0
O82 O 0.50191 0.54747 0.13442 0.0
C83 C 0.57166 0.44274 0.0344 0.0
C84 C 0.42284 0.55815 0.99762 0.0
C85 C 0.45947 0.43714 0.90521 0.0
C86 C 0.53769 0.5439 0.8971 0.0
C87 C 0.45028 0.45146 0.12836 0.0
C88 C 0.53279 0.55613 0.13188 0.0
O89 O 0.54242 0.42942 0.03444 0.0
H90 H 0.1905 0.24369 0.50707 0.0
C91 C 0.21413 0.23376 0.52581 0.0
H92 H 0.24035 0.19199 0.56205 0.0
H93 H 0.1197 0.10477 0.64643 0.0
H94 H 0.15237 0.1153 0.73673 0.0
H95 H 0.20042 0.15536 0.73952 0.0
H96 H 0.21645 0.18459 0.65178 0.0
C97 C 0.21644 0.20121 0.54337 0.0
C98 C 0.1868 0.1777 0.54126 0.0
C99 C 0.17709 0.16163 0.5936 0.0
C100 C 0.14865 0.13943 0.59248 0.0
C101 C 0.14048 0.12258 0.64487 0.0
C102 C 0.1591 0.1283 0.69712 0.0
C103 C 0.18618 0.15079 0.69866 0.0
C104 C 0.19518 0.16733 0.64775 0.0
H105 H 0.11662 0.07942 0.46825 0.0
C106 C 0.09753 0.08347 0.50121 0.0
H107 H 0.08047 0.1147 0.57137 0.0
H108 H 0.20263 0.19719 0.42962 0.0
H109 H 0.167 0.19122 0.34146 0.0
H110 H 0.11187 0.16216 0.34419 0.0
H111 H 0.09301 0.13746 0.43441 0.0
C112 C 0.0998 0.11051 0.53889 0.0
C113 C 0.12914 0.13436 0.5396 0.0
C114 C 0.13803 0.15162 0.48786 0.0
C115 C 0.16803 0.17149 0.48778 0.0
C116 C 0.17868 0.18441 0.43353 0.0
C117 C 0.15865 0.18078 0.38232 0.0
C118 C 0.12776 0.16421 0.38375 0.0
C119 C 0.11742 0.14977 0.43575 0.0
H120 H 0.2669 0.70493 0.09323 0.0
C121 C 0.25654 0.71154 0.05007 0.0
H122 H 0.25946 0.70259 0.95804 0.0
H123 H 0.41163 0.64986 0.98776 0.0
H124 H 0.41961 0.70439 0.94091 0.0
H125 H 0.37147 0.74383 0.92334 0.0
H126 H 0.31509 0.72902 0.9529 0.0
C127 C 0.26858 0.69564 0.0018 0.0
C128 C 0.29669 0.6702 0.00712 0.0
C129 C 0.32929 0.67883 0.98807 0.0
C130 C 0.35693 0.65582 0.99729 0.0
C131 C 0.38953 0.66584 0.98034 0.0
C132 C 0.39453 0.69722 0.95374 0.0
C133 C 0.36744 0.71945 0.94393 0.0
C134 C 0.33518 0.71059 0.96105 0.0
H135 H 0.38563 0.58751 0.94433 0.0
C136 C 0.39471 0.58276 0.98912 0.0
H137 H 0.38836 0.59447 0.07949 0.0
H138 H 0.23666 0.64409 0.04257 0.0
H139 H 0.22846 0.58924 0.08845 0.0
H140 H 0.27651 0.54963 0.10564 0.0
H141 H 0.333 0.56455 0.07677 0.0
C142 C 0.38037 0.59958 0.03431 0.0
C143 C 0.35168 0.62386 0.02434 0.0
C144 C 0.31895 0.61498 0.04239 0.0
C145 C 0.29134 0.63802 0.03327 0.0
C146 C 0.2587 0.62798 0.04992 0.0
C147 C 0.25359 0.59645 0.07592 0.0
C148 C 0.28063 0.57413 0.08553 0.0
C149 C 0.31295 0.58308 0.06887 0.0
H150 H 0.78606 0.77643 0.54851 0.0
C151 C 0.77204 0.77444 0.50661 0.0
H152 H 0.76539 0.79283 0.42078 0.0
H153 H 0.85476 0.91047 0.58056 0.0
H154 H 0.80458 0.91774 0.63827 0.0
H155 H 0.75411 0.88216 0.61731 0.0
H156 H 0.75391 0.83854 0.53945 0.0
C157 C 0.77894 0.79557 0.46295 0.0
C158 C 0.80689 0.82091 0.46936 0.0
C159 C 0.80581 0.84764 0.51282 0.0
C160 C 0.83415 0.86952 0.52257 0.0
C161 C 0.83338 0.89425 0.56924 0.0
C162 C 0.80479 0.89853 0.60307 0.0
C163 C 0.77644 0.87841 0.59145 0.0
C164 C 0.77679 0.85325 0.54691 0.0
H165 H 0.86574 0.93397 0.47186 0.0
C166 C 0.89005 0.9228 0.48473 0.0
H167 H 0.91659 0.87734 0.50646 0.0
H168 H 0.81666 0.77316 0.38082 0.0
H169 H 0.8654 0.76828 0.31896 0.0
H170 H 0.91319 0.80833 0.33211 0.0
H171 H 0.91265 0.8533 0.40759 0.0
C172 C 0.89229 0.88903 0.49522 0.0
C173 C 0.86264 0.86601 0.48634 0.0
C174 C 0.86314 0.84017 0.44136 0.0
C175 C 0.83531 0.81749 0.43305 0.0
C176 C 0.83686 0.79142 0.38863 0.0
C177 C 0.86473 0.78828 0.3528 0.0
C178 C 0.89165 0.81079 0.36025 0.0
C179 C 0.89102 0.83647 0.40389 0.0
H180 H 0.76449 0.33737 0.9853 0.0
C181 C 0.7639 0.32231 0.02506 0.0
H182 H 0.7399 0.31347 0.10452 0.0
H183 H 0.6639 0.45535 0.12846 0.0
H184 H 0.70435 0.45915 0.21073 0.0
H185 H 0.74975 0.41588 0.22247 0.0
H186 H 0.75482 0.36835 0.15232 0.0
C187 C 0.74003 0.32838 0.06462 0.0
C188 C 0.71346 0.35521 0.0557 0.0
C189 C 0.71122 0.38317 0.09656 0.0
C190 C 0.68536 0.40843 0.08929 0.0
C191 C 0.68324 0.43564 0.13151 0.0
C192 C 0.70629 0.43813 0.17898 0.0
C193 C 0.73184 0.41375 0.18561 0.0
C194 C 0.73441 0.38655 0.14505 0.0
H195 H 0.59655 0.39269 0.04752 0.0
C196 C 0.60123 0.41978 0.0407 0.0
H197 H 0.63861 0.45764 0.03079 0.0
H198 H 0.70704 0.30247 0.97339 0.0
H199 H 0.66903 0.30084 0.88795 0.0
H200 H 0.62874 0.34827 0.86921 0.0
H201 H 0.62564 0.39706 0.93702 0.0
C202 C 0.63321 0.4306 0.03625 0.0
C203 C 0.66201 0.40588 0.04088 0.0
C204 C 0.66513 0.37875 -0.0014 0.0
C205 C 0.68998 0.35266 0.00721 0.0
C206 C 0.69021 0.32415 0.96728 0.0
C207 C 0.66823 0.32268 0.91823 0.0
C208 C 0.64544 0.34927 0.90785 0.0
C209 C 0.64376 0.37701 0.94742 0.0
H210 H 0.1639 0.83899 0.13616 0.0
C211 C 0.1445 0.83111 0.10384 0.0
H212 H 0.0924 0.82929 0.08203 0.0
H213 H 0.10691 0.88422 0.36497 0.0
H214 H 0.13494 0.83004 0.38523 0.0
H215 H 0.14587 0.78807 0.30494 0.0
H216 H 0.1298 0.80056 0.20379 0.0
C217 C 0.11178 0.8378 0.11392 0.0
C218 C 0.10121 0.86043 0.16381 0.0
C219 C 0.10883 0.85165 0.2231 0.0
C220 C 0.10035 0.87477 0.26984 0.0
C221 C 0.11091 0.86675 0.32813 0.0
C222 C 0.12731 0.83585 0.34034 0.0
C223 C 0.13363 0.8123 0.29512 0.0
C224 C 0.12453 0.81995 0.23713 0.0
H225 H 0.04142 0.89181 0.34696 0.0
C226 C 0.04922 0.91851 0.34654 0.0
H227 H 0.07841 0.95552 0.30504 0.0
H228 H 0.08327 0.88551 0.05499 0.0
H229 H 0.05186 0.9377 0.03538 0.0
H230 H 0.03304 0.97543 0.11689 0.0
H231 H 0.04594 0.96134 0.21841 0.0
C232 C 0.07083 0.92877 0.306 0.0
C233 C 0.08191 0.90532 0.25751 0.0
C234 C 0.07351 0.91362 0.19831 0.0
C235 C 0.08352 0.89138 0.15141 0.0
C236 C 0.07569 0.90093 0.09259 0.0
C237 C 0.05772 0.93095 0.08057 0.0
C238 C 0.04719 0.95221 0.12643 0.0
C239 C 0.05489 0.94381 0.18462 0.0
H240 H 0.68201 0.65055 0.67525 0.0
C241 C 0.66471 0.65041 0.63709 0.0
H242 H 0.61533 0.63775 0.6056 0.0
H243 H 0.59566 0.51835 0.78387 0.0
H244 H 0.60574 0.48543 0.69409 0.0
H245 H 0.62398 0.51401 0.60459 0.0
H246 H 0.63241 0.57563 0.60447 0.0
C247 C 0.63351 0.63763 0.64235 0.0
C248 C 0.6233 0.62075 0.69702 0.0
C249 C 0.6181 0.58478 0.69605 0.0
C250 C 0.60714 0.56838 0.74732 0.0
C251 C 0.60309 0.53226 0.74568 0.0
C252 C 0.60902 0.51301 0.69454 0.0
C253 C 0.61933 0.52909 0.64419 0.0
C254 C 0.62397 0.56451 0.6447 0.0
H255 H 0.53882 0.564 0.80735 0.0
C256 C 0.55375 0.56084 0.8479 0.0
H257 H 0.60114 0.56975 0.89112 0.0
H258 H 0.62974 0.69045 0.71325 0.0
H259 H 0.62052 0.72308 0.80356 0.0
H260 H 0.60248 0.69437 0.89305 0.0
H261 H 0.59337 0.6328 0.89259 0.0
C262 C 0.58591 0.5717 0.85071 0.0
C263 C 0.60078 0.58813 0.79909 0.0
C264 C 0.60697 0.62392 0.80066 0.0
C265 C 0.6179 0.64037 0.74934 0.0
C266 C 0.62232 0.67644 0.75131 0.0
C267 C 0.6169 0.69555 0.80282 0.0
C268 C 0.6067 0.67939 0.85318 0.0
C269 C 0.6016 0.64404 0.85231 0.0
H270 H 0.83851 0.19276 0.14038 0.0
C271 C 0.85838 0.19168 0.10831 0.0
H272 H 0.9077 0.17378 0.09026 0.0
H273 H 0.91132 0.14707 0.37568 0.0
H274 H 0.90785 0.20905 0.38817 0.0
H275 H 0.89724 0.246 0.30263 0.0
H276 H 0.88986 0.22125 0.20419 0.0
C277 C 0.8872 0.1745 0.12103 0.0
C278 C 0.89117 0.15275 0.17369 0.0
C279 C 0.8953 0.16776 0.23091 0.0
C280 C 0.90188 0.14648 0.28014 0.0
C281 C 0.90631 0.16205 0.33677 0.0
C282 C 0.90441 0.19758 0.34456 0.0
C283 C 0.8984 0.21838 0.2964 0.0
C284 C 0.89403 0.20381 0.24011 0.0
H285 H 0.96394 0.07904 0.28782 0.0
C286 C 0.94703 0.07468 0.32379 0.0
H287 H 0.89897 0.0859 0.35834 0.0
H288 H 0.88261 0.11574 0.07027 0.0
H289 H 0.88522 0.05378 0.05823 0.0
H290 H 0.89584 0.01693 0.14391 0.0
H291 H 0.90418 0.04189 0.24208 0.0
C292 C 0.91592 0.08875 0.322 0.0
C293 C 0.90494 0.11043 0.27178 0.0
C294 C 0.89941 0.09537 0.21493 0.0
C295 C 0.89283 0.11658 0.16575 0.0
C296 C 0.88783 0.10088 0.10925 0.0
C297 C 0.88914 0.06532 0.1017 0.0
C298 C 0.89515 0.04457 0.14992 0.0
C299 C 0.90013 0.05926 0.20598 0.0
H300 H 0.32075 0.34493 0.65302 0.0
C301 C 0.33659 0.33713 0.61671 0.0
H302 H 0.38593 0.33029 0.58645 0.0
H303 H 0.45139 0.45184 0.73385 0.0
H304 H 0.46334 0.46601 0.63332 0.0
H305 H 0.44004 0.43122 0.54983 0.0
H306 H 0.40492 0.38216 0.56623 0.0
C307 C 0.37045 0.33868 0.62287 0.0
C308 C 0.38697 0.35743 0.6737 0.0
C309 C 0.40706 0.38657 0.66291 0.0
C310 C 0.41981 0.40716 0.71092 0.0
C311 C 0.44039 0.43571 0.69904 0.0
C312 C 0.44757 0.44412 0.64149 0.0
C313 C 0.43447 0.42454 0.59451 0.0
C314 C 0.41436 0.39621 0.60474 0.0
H315 H 0.45378 0.38601 0.86211 0.0
C316 C 0.44554 0.41268 0.86059 0.0
H317 H 0.41531 0.44934 0.8164 0.0
H318 H 0.35639 0.29908 0.71017 0.0
H319 H 0.343 0.28564 0.81071 0.0
H320 H 0.35915 0.32504 0.89324 0.0
H321 H 0.38962 0.37742 0.87598 0.0
C322 C 0.42327 0.42261 0.81846 0.0
C323 C 0.41183 0.39909 0.76948 0.0
C324 C 0.39239 0.36952 0.78037 0.0
C325 C 0.38106 0.34798 0.73248 0.0
C326 C 0.36391 0.31727 0.7447 0.0
C327 C 0.35634 0.30911 0.80222 0.0
C328 C 0.36558 0.3312 0.8487 0.0
C329 C 0.38333 0.36111 0.83818 0.0
H330 H 0.6786 0.66129 0.37817 0.0
C331 C 0.66224 0.65808 0.41529 0.0
H332 H 0.61364 0.64254 0.44056 0.0
H333 H 0.55141 0.64688 0.18058 0.0
H334 H 0.53136 0.70196 0.21803 0.0
H335 H 0.55182 0.72496 0.31466 0.0
H336 H 0.5927 0.69312 0.3742 0.0
C337 C 0.63167 0.64383 0.40558 0.0
C338 C 0.62067 0.63066 0.34625 0.0
C339 C 0.59641 0.64931 0.31252 0.0
C340 C 0.58412 0.63574 0.25738 0.0
C341 C 0.56078 0.65548 0.22362 0.0
C342 C 0.54926 0.68726 0.24439 0.0
C343 C 0.56082 0.70023 0.29876 0.0
C344 C 0.5842 0.68165 0.33255 0.0
H345 H 0.53199 0.58267 0.21856 0.0
C346 C 0.54772 0.57676 0.18114 0.0
H347 H 0.59651 0.58025 0.14642 0.0
H348 H 0.6673 0.58837 0.40004 0.0
H349 H 0.6879 0.53373 0.36207 0.0
H350 H 0.66665 0.51016 0.26635 0.0
H351 H 0.62462 0.54105 0.20818 0.0
C352 C 0.58016 0.58684 0.18265 0.0
C353 C 0.59555 0.60314 0.23684 0.0
C354 C 0.62075 0.58505 0.26962 0.0
C355 C 0.63318 0.59874 0.3246 0.0
C356 C 0.65738 0.57952 0.35752 0.0
C357 C 0.66934 0.548 0.33636 0.0
C358 C 0.65737 0.53473 0.28251 0.0
C359 C 0.63325 0.55281 0.24948 0.0
H360 H 0.88809 0.21659 0.86172 0.0
C361 C 0.87612 0.19913 0.89131 0.0
H362 H 0.86209 0.14817 0.90719 0.0
H363 H 0.91344 0.14548 0.62797 0.0
H364 H 0.86883 0.18685 0.60716 0.0
H365 H 0.83355 0.21004 0.68673 0.0
H366 H 0.84337 0.19278 0.7877 0.0
C367 C 0.87473 0.16535 0.87796 0.0
C368 C 0.89351 0.1495 0.82837 0.0
C369 C 0.88602 0.15843 0.76911 0.0
C370 C 0.90483 0.1433 0.72267 0.0
C371 C 0.89869 0.15468 0.66449 0.0
C372 C 0.87334 0.17865 0.65198 0.0
C373 C 0.85359 0.19183 0.69681 0.0
C374 C 0.85971 0.18191 0.75473 0.0
H375 H 0.90366 0.07939 0.64443 0.0
C376 C 0.93115 0.08005 0.6457 0.0
H377 H 0.97504 0.10002 0.68849 0.0
H378 H 0.91531 0.12754 0.9373 0.0
H379 H 0.95755 0.08381 0.95731 0.0
H380 H 0.98701 0.05434 0.87618 0.0
H381 H 0.97462 0.06875 0.77465 0.0
C382 C 0.94756 0.09947 0.68689 0.0
C383 C 0.92936 0.11747 0.73518 0.0
C384 C 0.93653 0.10826 0.79437 0.0
C385 C 0.91888 0.12457 0.84101 0.0
C386 C 0.92727 0.11549 0.89986 0.0
C387 C 0.95162 0.09047 0.91211 0.0
C388 C 0.96824 0.07394 0.86647 0.0
C389 C 0.9609 0.08258 0.80827 0.0
H390 H 0.30351 0.36635 0.36976 0.0
C391 C 0.32295 0.35776 0.40105 0.0
H392 H 0.37537 0.35448 0.42095 0.0
H393 H 0.37216 0.4027 0.14126 0.0
H394 H 0.34353 0.34906 0.11751 0.0
H395 H 0.32649 0.31068 0.19623 0.0
H396 H 0.33719 0.32613 0.29903 0.0
C397 C 0.35568 0.36353 0.39061 0.0
C398 C 0.36635 0.38569 0.34221 0.0
C399 C 0.36119 0.37537 0.28234 0.0
C400 C 0.37277 0.3965 0.23691 0.0
C401 C 0.36542 0.38677 0.17746 0.0
C402 C 0.34875 0.35618 0.16322 0.0
C403 C 0.33903 0.33465 0.20754 0.0
C404 C 0.34515 0.34397 0.26646 0.0
H405 H 0.43839 0.40519 0.17751 0.0
C406 C 0.43193 0.43215 0.17217 0.0
H407 H 0.40113 0.47349 0.2004 0.0
H408 H 0.37774 0.41439 0.4524 0.0
H409 H 0.40719 0.46753 0.47582 0.0
H410 H 0.43048 0.50223 0.39727 0.0
H411 H 0.42386 0.4844 0.29473 0.0
C412 C 0.40763 0.44649 0.2049 0.0
C413 C 0.3913 0.42674 0.25155 0.0
C414 C 0.39572 0.43745 0.31134 0.0
C415 C 0.38303 0.41701 0.35669 0.0
C416 C 0.38739 0.42855 0.41611 0.0
C417 C 0.40422 0.45905 0.43025 0.0
C418 C 0.41724 0.47864 0.38601 0.0
C419 C 0.41319 0.46809 0.32723 0.0
H420 H 0.13249 0.79755 0.8499 0.0
C421 C 0.13648 0.81713 0.88422 0.0
H422 H 0.13252 0.86976 0.90743 0.0
H423 H 0.10637 0.87965 0.6191 0.0
H424 H 0.16311 0.8566 0.60902 0.0
H425 H 0.19569 0.8358 0.69559 0.0
H426 H 0.17169 0.83764 0.79256 0.0
C427 C 0.12785 0.84996 0.87377 0.0
C428 C 0.10814 0.86032 0.82023 0.0
C429 C 0.12274 0.85913 0.76389 0.0
C430 C 0.10422 0.87176 0.71413 0.0
C431 C 0.11936 0.87049 0.65838 0.0
C432 C 0.15193 0.85737 0.65198 0.0
C433 C 0.17025 0.84561 0.70071 0.0
C434 C 0.15605 0.8466 0.75614 0.0
H435 H 0.06011 0.9528 0.70676 0.0
C436 C 0.05034 0.93736 0.66963 0.0
H437 H 0.04555 0.88711 0.63302 0.0
H438 H 0.07202 0.86468 0.92146 0.0
H439 H 0.01525 0.88741 0.93107 0.0
H440 H 0.9831 0.90888 0.84452 0.0
H441 H 0.00773 0.90798 0.74794 0.0
C442 C 0.05397 0.90304 0.67044 0.0
C443 C 0.07159 0.8863 0.72112 0.0
C444 C 0.05655 0.88637 0.77703 0.0
C445 C 0.07494 0.8736 0.8267 0.0
C446 C 0.05938 0.87427 0.88219 0.0
C447 C 0.02669 0.88711 0.88833 0.0
C448 C 0.00862 0.89922 0.83963 0.0
C449 C 0.02317 0.89878 0.7845 0.0
loop_
_geom_bond_atom_site_label_1
_geom_bond_atom_site_label_2
_geom_bond_distance
_geom_bond_site_symmetry_2
_ccdc_geom_bond_type
H0 C5 0.929 . S
H1 C10 0.931 . S
H2 C8 0.930 . S
N3 N4 1.234 1_556 S
N3 C7 1.453 . S
N4 N3 1.234 1_554 S
C5 H0 0.929 . S
C5 C6 1.373 . S
C5 C7 1.368 . S
C6 C5 1.373 . S
C6 C10 1.397 1_556 S
C7 N3 1.453 . S
C7 C5 1.368 . S
C7 C8 1.373 1_556 S
C8 H2 0.930 . S
C8 C7 1.373 1_554 S
C8 C9 1.371 . S
C9 C8 1.371 . S
C9 C10 1.383 . S
C10 H1 0.931 . S
C10 C6 1.397 1_554 S
C10 C9 1.383 . S
H11 C16 0.929 . S
H12 C21 0.931 . S
H13 C19 0.930 . S
N14 N15 1.234 . S
N14 C18 1.453 . S
N15 N14 1.234 . S
C16 H11 0.929 . S
C16 C17 1.373 . S
C16 C18 1.368 . S
C17 C16 1.373 . S
C17 C21 1.397 . S
C18 N14 1.453 . S
C18 C16 1.368 . S
C18 C19 1.373 . S
C19 H13 0.930 . S
C19 C18 1.373 . S
C19 C20 1.371 . S
C20 C19 1.371 . S
C20 C21 1.383 . S
C21 H12 0.931 . S
C21 C17 1.397 . S
C21 C20 1.383 . S
H22 C27 0.929 . S
H23 C32 0.931 . S
H24 C30 0.930 . S
N25 N26 1.234 1_556 S
N25 C29 1.453 . S
N26 N25 1.234 1_554 S
C27 H22 0.929 . S
C27 C28 1.373 . S
C27 C29 1.368 . S
C28 C27 1.373 . S
C28 C32 1.397 1_556 S
C29 N25 1.453 . S
C29 C27 1.368 . S
C29 C30 1.373 1_556 S
C30 H24 0.930 . S
C30 C29 1.373 1_554 S
C30 C31 1.371 . S
C31 C30 1.371 . S
C31 C32 1.383 . S
C32 H23 0.931 . S
C32 C28 1.397 1_554 S
C32 C31 1.383 . S
H33 C38 0.929 . S
H34 C43 0.931 . S
H35 C41 0.930 . S
N36 N37 1.234 . S
N36 C40 1.453 . S
N37 N36 1.234 . S
C38 H33 0.929 . S
C38 C39 1.373 . S
C38 C40 1.368 . S
C39 C38 1.373 . S
C39 C43 1.397 . S
C40 N36 1.453 . S
C40 C38 1.368 . S
C40 C41 1.373 . S
C41 H35 0.930 . S
C41 C40 1.373 . S
C41 C42 1.371 . S
C42 C41 1.371 . S
C42 C43 1.383 . S
C43 H34 0.931 . S
C43 C39 1.397 . S
C43 C42 1.383 . S
O44 Zn45 1.953 1_565 S
O44 C60 1.225 . S
Zn45 O44 1.953 1_545 S
Zn45 O46 1.949 1_655 S
Zn45 O52 1.919 . S
Zn45 O57 1.924 . S
O46 Zn45 1.949 1_455 S
O46 Zn47 1.923 . S
O46 Zn48 1.950 1_545 S
O46 Zn49 1.945 . S
Zn47 O46 1.923 . S
Zn47 O50 1.933 . S
Zn47 O53 1.946 . S
Zn47 O54 1.965 1_545 S
Zn48 O46 1.950 1_565 S
Zn48 O55 1.938 . S
Zn48 O56 1.906 . S
Zn48 O66 1.953 1_455 S
Zn49 O46 1.945 . S
Zn49 O51 1.932 . S
Zn49 O58 1.977 1_545 S
Zn49 O59 1.910 1_455 S
O50 Zn47 1.933 . S
O50 C61 1.226 . S
O51 Zn49 1.932 . S
O51 C61 1.307 . S
O52 Zn45 1.919 . S
O52 C63 1.253 . S
O53 Zn47 1.946 . S
O53 C63 1.276 1_455 S
O54 Zn47 1.965 1_565 S
O54 C62 1.303 . S
O55 Zn48 1.938 . S
O55 C62 1.247 . S
O56 Zn48 1.906 . S
O56 C64 1.304 . S
O57 Zn45 1.924 . S
O57 C65 1.311 . S
O58 Zn49 1.977 1_565 S
O58 C64 1.272 . S
O59 Zn49 1.910 1_655 S
O59 C65 1.231 . S
C60 O44 1.225 . S
C60 O66 1.298 . S
C61 O50 1.226 . S
C61 O51 1.307 . S
C62 O54 1.303 . S
C62 O55 1.247 . S
C63 O52 1.253 . S
C63 O53 1.276 1_655 S
C64 O56 1.304 . S
C64 O58 1.272 . S
C65 O57 1.311 . S
C65 O59 1.231 . S
O66 Zn48 1.953 1_655 S
O66 C60 1.298 . S
O67 Zn68 1.953 . S
O67 C83 1.225 . S
Zn68 O67 1.953 . S
Zn68 O69 1.949 . S
Zn68 O75 1.919 1_554 S
Zn68 O80 1.924 . S
O69 Zn68 1.949 . S
O69 Zn70 1.923 1_554 S
O69 Zn71 1.950 . S
O69 Zn72 1.945 . S
Zn70 O69 1.923 1_556 S
Zn70 O73 1.933 . S
Zn70 O76 1.941 . S
Zn70 O77 1.965 . S
Zn71 O69 1.950 . S
Zn71 O78 1.938 1_554 S
Zn71 O79 1.906 . S
Zn71 O89 1.953 . S
Zn72 O69 1.945 . S
Zn72 O74 1.932 . S
Zn72 O81 1.977 . S
Zn72 O82 1.910 . S
O73 Zn70 1.933 . S
O73 C84 1.226 1_556 S
O74 Zn72 1.932 . S
O74 C84 1.307 . S
O75 Zn68 1.919 1_556 S
O75 C86 1.253 . S
O76 Zn70 1.941 . S
O76 C86 1.283 . S
O77 Zn70 1.965 . S
O77 C85 1.303 . S
O78 Zn71 1.938 1_556 S
O78 C85 1.247 . S
O79 Zn71 1.906 . S
O79 C87 1.304 . S
O80 Zn68 1.924 . S
O80 C88 1.311 . S
O81 Zn72 1.977 . S
O81 C87 1.272 . S
O82 Zn72 1.910 . S
O82 C88 1.231 . S
C83 O67 1.225 . S
C83 O89 1.298 . S
C84 O73 1.226 1_554 S
C84 O74 1.307 . S
C85 O77 1.303 . S
C85 O78 1.247 . S
C86 O75 1.253 . S
C86 O76 1.283 . S
C87 O79 1.304 . S
C87 O81 1.272 . S
C88 O80 1.311 . S
C88 O82 1.231 . S
O89 Zn71 1.953 . S
O89 C83 1.298 . S
H90 C91 0.951 . S
C91 H90 0.951 . S
C91 C97 1.265 . S
H92 C97 0.950 . S
H93 C101 0.949 . S
H94 C102 0.950 . S
H95 C103 0.951 . S
H96 C104 0.951 . S
C97 C91 1.265 . S
C97 H92 0.950 . S
C97 C98 1.478 . S
C98 C97 1.478 . S
C98 C99 1.397 . S
C98 C115 1.394 . S
C99 C98 1.397 . S
C99 C100 1.438 . S
C99 C104 1.429 . S
C100 C99 1.438 . S
C100 C101 1.428 . S
C100 C113 1.394 . S
C101 H93 0.949 . S
C101 C100 1.428 . S
C101 C102 1.345 . S
C102 H94 0.950 . S
C102 C101 1.345 . S
C102 C103 1.424 . S
C103 H95 0.951 . S
C103 C102 1.424 . S
C103 C104 1.347 . S
C104 H96 0.951 . S
C104 C99 1.429 . S
C104 C103 1.347 . S
H105 C106 0.951 . S
C106 H105 0.951 . S
C106 C112 1.265 . S
H107 C112 0.950 . S
H108 C116 0.949 . S
H109 C117 0.950 . S
H110 C118 0.951 . S
H111 C119 0.951 . S
C112 C106 1.265 . S
C112 H107 0.950 . S
C112 C113 1.478 . S
C113 C100 1.394 . S
C113 C112 1.478 . S
C113 C114 1.397 . S
C114 C113 1.397 . S
C114 C115 1.438 . S
C114 C119 1.429 . S
C115 C98 1.394 . S
C115 C114 1.438 . S
C115 C116 1.428 . S
C116 H108 0.949 . S
C116 C115 1.428 . S
C116 C117 1.345 . S
C117 H109 0.950 . S
C117 C116 1.345 . S
C117 C118 1.424 . S
C118 H110 0.951 . S
C118 C117 1.424 . S
C118 C119 1.347 . S
C119 H111 0.951 . S
C119 C114 1.429 . S
C119 C118 1.347 . S
H120 C121 0.951 . S
C121 H120 0.951 . S
C121 C127 1.265 1_554 S
H122 C127 0.950 . S
H123 C131 0.949 . S
H124 C132 0.950 . S
H125 C133 0.951 . S
H126 C134 0.951 . S
C127 C121 1.265 1_556 S
C127 H122 0.950 . S
C127 C128 1.478 1_556 S
C128 C127 1.478 1_554 S
C128 C129 1.397 1_554 S
C128 C145 1.394 . S
C129 C128 1.397 1_556 S
C129 C130 1.440 . S
C129 C134 1.429 . S
C130 C129 1.440 . S
C130 C131 1.432 . S
C130 C143 1.387 1_556 S
C131 H123 0.949 . S
C131 C130 1.432 . S
C131 C132 1.345 . S
C132 H124 0.950 . S
C132 C131 1.345 . S
C132 C133 1.424 . S
C133 H125 0.951 . S
C133 C132 1.424 . S
C133 C134 1.347 . S
C134 H126 0.951 . S
C134 C129 1.429 . S
C134 C133 1.347 . S
H135 C136 0.951 1_556 S
C136 H135 0.951 1_554 S
C136 C142 1.265 . S
H137 C142 0.950 . S
H138 C146 0.949 . S
H139 C147 0.950 . S
H140 C148 0.951 . S
H141 C149 0.951 . S
C142 C136 1.265 . S
C142 H137 0.950 . S
C142 C143 1.478 . S
C143 C130 1.387 1_554 S
C143 C142 1.478 . S
C143 C144 1.397 . S
C144 C143 1.397 . S
C144 C145 1.438 . S
C144 C149 1.429 . S
C145 C128 1.394 . S
C145 C144 1.438 . S
C145 C146 1.428 . S
C146 H138 0.949 . S
C146 C145 1.428 . S
C146 C147 1.345 . S
C147 H139 0.950 . S
C147 C146 1.345 . S
C147 C148 1.424 . S
C148 H140 0.951 . S
C148 C147 1.424 . S
C148 C149 1.347 . S
C149 H141 0.951 . S
C149 C144 1.429 . S
C149 C148 1.347 . S
H150 C151 0.951 . S
C151 H150 0.951 . S
C151 C157 1.265 . S
H152 C157 0.950 . S
H153 C161 0.949 . S
H154 C162 0.950 . S
H155 C163 0.951 . S
H156 C164 0.951 . S
C157 C151 1.265 . S
C157 H152 0.950 . S
C157 C158 1.478 . S
C158 C157 1.478 . S
C158 C159 1.397 . S
C158 C175 1.394 . S
C159 C158 1.397 . S
C159 C160 1.438 . S
C159 C164 1.429 . S
C160 C159 1.438 . S
C160 C161 1.428 . S
C160 C173 1.394 . S
C161 H153 0.949 . S
C161 C160 1.428 . S
C161 C162 1.345 . S
C162 H154 0.950 . S
C162 C161 1.345 . S
C162 C163 1.424 . S
C163 H155 0.951 . S
C163 C162 1.424 . S
C163 C164 1.347 . S
C164 H156 0.951 . S
C164 C159 1.429 . S
C164 C163 1.347 . S
H165 C166 0.951 . S
C166 H165 0.951 . S
C166 C172 1.265 . S
H167 C172 0.950 . S
H168 C176 0.949 . S
H169 C177 0.950 . S
H170 C178 0.951 . S
H171 C179 0.951 . S
C172 C166 1.265 . S
C172 H167 0.950 . S
C172 C173 1.478 . S
C173 C160 1.394 . S
C173 C172 1.478 . S
C173 C174 1.397 . S
C174 C173 1.397 . S
C174 C175 1.438 . S
C174 C179 1.429 . S
C175 C158 1.394 . S
C175 C174 1.438 . S
C175 C176 1.428 . S
C176 H168 0.949 . S
C176 C175 1.428 . S
C176 C177 1.345 . S
C177 H169 0.950 . S
C177 C176 1.345 . S
C177 C178 1.424 . S
C178 H170 0.951 . S
C178 C177 1.424 . S
C178 C179 1.347 . S
C179 H171 0.951 . S
C179 C174 1.429 . S
C179 C178 1.347 . S
H180 C181 0.951 . S
C181 H180 0.951 . S
C181 C187 1.265 . S
H182 C187 0.950 . S
H183 C191 0.949 . S
H184 C192 0.950 . S
H185 C193 0.951 . S
H186 C194 0.951 . S
C187 C181 1.265 . S
C187 H182 0.950 . S
C187 C188 1.478 . S
C188 C187 1.478 . S
C188 C189 1.397 . S
C188 C205 1.394 1_554 S
C189 C188 1.397 . S
C189 C190 1.438 . S
C189 C194 1.429 . S
C190 C189 1.438 . S
C190 C191 1.428 . S
C190 C203 1.394 . S
C191 H183 0.949 . S
C191 C190 1.428 . S
C191 C192 1.345 . S
C192 H184 0.950 . S
C192 C191 1.345 . S
C192 C193 1.424 . S
C193 H185 0.951 . S
C193 C192 1.424 . S
C193 C194 1.347 . S
C194 H186 0.951 . S
C194 C189 1.429 . S
C194 C193 1.347 . S
H195 C196 0.951 . S
C196 H195 0.951 . S
C196 C202 1.265 . S
H197 C202 0.950 . S
H198 C206 0.949 . S
H199 C207 0.950 . S
H200 C208 0.951 . S
H201 C209 0.951 . S
C202 C196 1.265 . S
C202 H197 0.950 . S
C202 C203 1.478 . S
C203 C190 1.394 . S
C203 C202 1.478 . S
C203 C204 1.397 1_554 S
C204 C203 1.397 1_556 S
C204 C205 1.438 . S
C204 C209 1.429 . S
C205 C188 1.394 1_556 S
C205 C204 1.438 . S
C205 C206 1.428 . S
C206 H198 0.949 . S
C206 C205 1.428 . S
C206 C207 1.345 . S
C207 H199 0.950 . S
C207 C206 1.345 . S
C207 C208 1.424 . S
C208 H200 0.951 . S
C208 C207 1.424 . S
C208 C209 1.347 . S
C209 H201 0.951 . S
C209 C204 1.429 . S
C209 C208 1.347 . S
H210 C211 0.951 . S
C211 H210 0.951 . S
C211 C217 1.265 . S
H212 C217 0.950 . S
H213 C221 0.949 . S
H214 C222 0.950 . S
H215 C223 0.951 . S
H216 C224 0.951 . S
C217 C211 1.265 . S
C217 H212 0.950 . S
C217 C218 1.478 . S
C218 C217 1.478 . S
C218 C219 1.397 . S
C218 C235 1.394 . S
C219 C218 1.397 . S
C219 C220 1.438 . S
C219 C224 1.429 . S
C220 C219 1.438 . S
C220 C221 1.428 . S
C220 C233 1.394 . S
C221 H213 0.949 . S
C221 C220 1.428 . S
C221 C222 1.345 . S
C222 H214 0.950 . S
C222 C221 1.345 . S
C222 C223 1.424 . S
C223 H215 0.951 . S
C223 C222 1.424 . S
C223 C224 1.347 . S
C224 H216 0.951 . S
C224 C219 1.429 . S
C224 C223 1.347 . S
H225 C226 0.951 . S
C226 H225 0.951 . S
C226 C232 1.265 . S
H227 C232 0.950 . S
H228 C236 0.949 . S
H229 C237 0.950 . S
H230 C238 0.951 . S
H231 C239 0.951 . S
C232 C226 1.265 . S
C232 H227 0.950 . S
C232 C233 1.478 . S
C233 C220 1.394 . S
C233 C232 1.478 . S
C233 C234 1.397 . S
C234 C233 1.397 . S
C234 C235 1.438 . S
C234 C239 1.429 . S
C235 C218 1.394 . S
C235 C234 1.438 . S
C235 C236 1.428 . S
C236 H228 0.949 . S
C236 C235 1.428 . S
C236 C237 1.345 . S
C237 H229 0.950 . S
C237 C236 1.345 . S
C237 C238 1.424 . S
C238 H230 0.951 . S
C238 C237 1.424 . S
C238 C239 1.347 . S
C239 H231 0.951 . S
C239 C234 1.429 . S
C239 C238 1.347 . S
H240 C241 0.951 . S
C241 H240 0.951 . S
C241 C247 1.265 . S
H242 C247 0.950 . S
H243 C251 0.949 . S
H244 C252 0.950 . S
H245 C253 0.951 . S
H246 C254 0.951 . S
C247 C241 1.265 . S
C247 H242 0.950 . S
C247 C248 1.478 . S
C248 C247 1.478 . S
C248 C249 1.397 . S
C248 C265 1.394 . S
C249 C248 1.397 . S
C249 C250 1.438 . S
C249 C254 1.429 . S
C250 C249 1.438 . S
C250 C251 1.428 . S
C250 C263 1.394 . S
C251 H243 0.949 . S
C251 C250 1.428 . S
C251 C252 1.345 . S
C252 H244 0.950 . S
C252 C251 1.345 . S
C252 C253 1.424 . S
C253 H245 0.951 . S
C253 C252 1.424 . S
C253 C254 1.347 . S
C254 H246 0.951 . S
C254 C249 1.429 . S
C254 C253 1.347 . S
H255 C256 0.951 . S
C256 H255 0.951 . S
C256 C262 1.265 . S
H257 C262 0.950 . S
H258 C266 0.949 . S
H259 C267 0.950 . S
H260 C268 0.951 . S
H261 C269 0.951 . S
C262 C256 1.265 . S
C262 H257 0.950 . S
C262 C263 1.478 . S
C263 C250 1.394 . S
C263 C262 1.478 . S
C263 C264 1.397 . S
C264 C263 1.397 . S
C264 C265 1.438 . S
C264 C269 1.429 . S
C265 C248 1.394 . S
C265 C264 1.438 . S
C265 C266 1.428 . S
C266 H258 0.949 . S
C266 C265 1.428 . S
C266 C267 1.345 . S
C267 H259 0.950 . S
C267 C266 1.345 . S
C267 C268 1.424 . S
C268 H260 0.951 . S
C268 C267 1.424 . S
C268 C269 1.347 . S
C269 H261 0.951 . S
C269 C264 1.429 . S
C269 C268 1.347 . S
H270 C271 0.951 . S
C271 H270 0.951 . S
C271 C277 1.265 . S
H272 C277 0.950 . S
H273 C281 0.949 . S
H274 C282 0.950 . S
H275 C283 0.951 . S
H276 C284 0.951 . S
C277 C271 1.265 . S
C277 H272 0.950 . S
C277 C278 1.478 . S
C278 C277 1.478 . S
C278 C279 1.397 . S
C278 C295 1.394 . S
C279 C278 1.397 . S
C279 C280 1.438 . S
C279 C284 1.429 . S
C280 C279 1.438 . S
C280 C281 1.428 . S
C280 C293 1.394 . S
C281 H273 0.949 . S
C281 C280 1.428 . S
C281 C282 1.345 . S
C282 H274 0.950 . S
C282 C281 1.345 . S
C282 C283 1.424 . S
C283 H275 0.951 . S
C283 C282 1.424 . S
C283 C284 1.347 . S
C284 H276 0.951 . S
C284 C279 1.429 . S
C284 C283 1.347 . S
H285 C286 0.951 . S
C286 H285 0.951 . S
C286 C292 1.265 . S
H287 C292 0.950 . S
H288 C296 0.949 . S
H289 C297 0.950 . S
H290 C298 0.951 . S
H291 C299 0.951 . S
C292 C286 1.265 . S
C292 H287 0.950 . S
C292 C293 1.478 . S
C293 C280 1.394 . S
C293 C292 1.478 . S
C293 C294 1.397 . S
C294 C293 1.397 . S
C294 C295 1.438 . S
C294 C299 1.429 . S
C295 C278 1.394 . S
C295 C294 1.438 . S
C295 C296 1.428 . S
C296 H288 0.949 . S
C296 C295 1.428 . S
C296 C297 1.345 . S
C297 H289 0.950 . S
C297 C296 1.345 . S
C297 C298 1.424 . S
C298 H290 0.951 . S
C298 C297 1.424 . S
C298 C299 1.347 . S
C299 H291 0.951 . S
C299 C294 1.429 . S
C299 C298 1.347 . S
H300 C301 0.951 . S
C301 H300 0.951 . S
C301 C307 1.265 . S
H302 C307 0.950 . S
H303 C311 0.949 . S
H304 C312 0.950 . S
H305 C313 0.951 . S
H306 C314 0.951 . S
C307 C301 1.265 . S
C307 H302 0.950 . S
C307 C308 1.478 . S
C308 C307 1.478 . S
C308 C309 1.397 . S
C308 C325 1.394 . S
C309 C308 1.397 . S
C309 C310 1.438 . S
C309 C314 1.429 . S
C310 C309 1.438 . S
C310 C311 1.428 . S
C310 C323 1.394 . S
C311 H303 0.949 . S
C311 C310 1.428 . S
C311 C312 1.345 . S
C312 H304 0.950 . S
C312 C311 1.345 . S
C312 C313 1.424 . S
C313 H305 0.951 . S
C313 C312 1.424 . S
C313 C314 1.347 . S
C314 H306 0.951 . S
C314 C309 1.429 . S
C314 C313 1.347 . S
H315 C316 0.951 . S
C316 H315 0.951 . S
C316 C322 1.265 . S
H317 C322 0.950 . S
H318 C326 0.949 . S
H319 C327 0.950 . S
H320 C328 0.951 . S
H321 C329 0.951 . S
C322 C316 1.265 . S
C322 H317 0.950 . S
C322 C323 1.478 . S
C323 C310 1.394 . S
C323 C322 1.478 . S
C323 C324 1.397 . S
C324 C323 1.397 . S
C324 C325 1.438 . S
C324 C329 1.429 . S
C325 C308 1.394 . S
C325 C324 1.438 . S
C325 C326 1.428 . S
C326 H318 0.949 . S
C326 C325 1.428 . S
C326 C327 1.345 . S
C327 H319 0.950 . S
C327 C326 1.345 . S
C327 C328 1.424 . S
C328 H320 0.951 . S
C328 C327 1.424 . S
C328 C329 1.347 . S
C329 H321 0.951 . S
C329 C324 1.429 . S
C329 C328 1.347 . S
H330 C331 0.951 . S
C331 H330 0.951 . S
C331 C337 1.265 . S
H332 C337 0.950 . S
H333 C341 0.949 . S
H334 C342 0.950 . S
H335 C343 0.951 . S
H336 C344 0.951 . S
C337 C331 1.265 . S
C337 H332 0.950 . S
C337 C338 1.478 . S
C338 C337 1.478 . S
C338 C339 1.397 . S
C338 C355 1.394 . S
C339 C338 1.397 . S
C339 C340 1.438 . S
C339 C344 1.429 . S
C340 C339 1.438 . S
C340 C341 1.428 . S
C340 C353 1.394 . S
C341 H333 0.949 . S
C341 C340 1.428 . S
C341 C342 1.345 . S
C342 H334 0.950 . S
C342 C341 1.345 . S
C342 C343 1.424 . S
C343 H335 0.951 . S
C343 C342 1.424 . S
C343 C344 1.347 . S
C344 H336 0.951 . S
C344 C339 1.429 . S
C344 C343 1.347 . S
H345 C346 0.951 . S
C346 H345 0.951 . S
C346 C352 1.265 . S
H347 C352 0.950 . S
H348 C356 0.949 . S
H349 C357 0.950 . S
H350 C358 0.951 . S
H351 C359 0.951 . S
C352 C346 1.265 . S
C352 H347 0.950 . S
C352 C353 1.478 . S
C353 C340 1.394 . S
C353 C352 1.478 . S
C353 C354 1.397 . S
C354 C353 1.397 . S
C354 C355 1.438 . S
C354 C359 1.429 . S
C355 C338 1.394 . S
C355 C354 1.438 . S
C355 C356 1.428 . S
C356 H348 0.949 . S
C356 C355 1.428 . S
C356 C357 1.345 . S
C357 H349 0.950 . S
C357 C356 1.345 . S
C357 C358 1.424 . S
C358 H350 0.951 . S
C358 C357 1.424 . S
C358 C359 1.347 . S
C359 H351 0.951 . S
C359 C354 1.429 . S
C359 C358 1.347 . S
H360 C361 0.951 . S
C361 H360 0.951 . S
C361 C367 1.265 . S
H362 C367 0.950 . S
H363 C371 0.949 . S
H364 C372 0.950 . S
H365 C373 0.951 . S
H366 C374 0.951 . S
C367 C361 1.265 . S
C367 H362 0.950 . S
C367 C368 1.478 . S
C368 C367 1.478 . S
C368 C369 1.397 . S
C368 C385 1.394 . S
C369 C368 1.397 . S
C369 C370 1.438 . S
C369 C374 1.429 . S
C370 C369 1.438 . S
C370 C371 1.428 . S
C370 C383 1.394 . S
C371 H363 0.949 . S
C371 C370 1.428 . S
C371 C372 1.345 . S
C372 H364 0.950 . S
C372 C371 1.345 . S
C372 C373 1.424 . S
C373 H365 0.951 . S
C373 C372 1.424 . S
C373 C374 1.347 . S
C374 H366 0.951 . S
C374 C369 1.429 . S
C374 C373 1.347 . S
H375 C376 0.951 . S
C376 H375 0.951 . S
C376 C382 1.265 . S
H377 C382 0.950 . S
H378 C386 0.949 . S
H379 C387 0.950 . S
H380 C388 0.951 1_455 S
H381 C389 0.951 . S
C382 C376 1.265 . S
C382 H377 0.950 . S
C382 C383 1.478 . S
C383 C370 1.394 . S
C383 C382 1.478 . S
C383 C384 1.397 . S
C384 C383 1.397 . S
C384 C385 1.438 . S
C384 C389 1.429 . S
C385 C368 1.394 . S
C385 C384 1.438 . S
C385 C386 1.428 . S
C386 H378 0.949 . S
C386 C385 1.428 . S
C386 C387 1.345 . S
C387 H379 0.950 . S
C387 C386 1.345 . S
C387 C388 1.424 . S
C388 H380 0.951 1_655 S
C388 C387 1.424 . S
C388 C389 1.347 . S
C389 H381 0.951 . S
C389 C384 1.429 . S
C389 C388 1.347 . S
H390 C391 0.951 . S
C391 H390 0.951 . S
C391 C397 1.265 . S
H392 C397 0.950 . S
H393 C401 0.949 . S
H394 C402 0.950 . S
H395 C403 0.951 . S
H396 C404 0.951 . S
C397 C391 1.265 . S
C397 H392 0.950 . S
C397 C398 1.478 . S
C398 C397 1.478 . S
C398 C399 1.397 . S
C398 C415 1.394 . S
C399 C398 1.397 . S
C399 C400 1.438 . S
C399 C404 1.429 . S
C400 C399 1.438 . S
C400 C401 1.428 . S
C400 C413 1.394 . S
C401 H393 0.949 . S
C401 C400 1.428 . S
C401 C402 1.345 . S
C402 H394 0.950 . S
C402 C401 1.345 . S
C402 C403 1.424 . S
C403 H395 0.951 . S
C403 C402 1.424 . S
C403 C404 1.347 . S
C404 H396 0.951 . S
C404 C399 1.429 . S
C404 C403 1.347 . S
H405 C406 0.951 . S
C406 H405 0.951 . S
C406 C412 1.265 . S
H407 C412 0.950 . S
H408 C416 0.949 . S
H409 C417 0.950 . S
H410 C418 0.951 . S
H411 C419 0.951 . S
C412 C406 1.265 . S
C412 H407 0.950 . S
C412 C413 1.478 . S
C413 C400 1.394 . S
C413 C412 1.478 . S
C413 C414 1.397 . S
C414 C413 1.397 . S
C414 C415 1.438 . S
C414 C419 1.429 . S
C415 C398 1.394 . S
C415 C414 1.438 . S
C415 C416 1.428 . S
C416 H408 0.949 . S
C416 C415 1.428 . S
C416 C417 1.345 . S
C417 H409 0.950 . S
C417 C416 1.345 . S
C417 C418 1.424 . S
C418 H410 0.951 . S
C418 C417 1.424 . S
C418 C419 1.347 . S
C419 H411 0.951 . S
C419 C414 1.429 . S
C419 C418 1.347 . S
H420 C421 0.951 . S
C421 H420 0.951 . S
C421 C427 1.265 . S
H422 C427 0.950 . S
H423 C431 0.949 . S
H424 C432 0.950 . S
H425 C433 0.951 . S
H426 C434 0.951 . S
C427 C421 1.265 . S
C427 H422 0.950 . S
C427 C428 1.478 . S
C428 C427 1.478 . S
C428 C429 1.397 . S
C428 C445 1.394 . S
C429 C428 1.397 . S
C429 C430 1.438 . S
C429 C434 1.429 . S
C430 C429 1.438 . S
C430 C431 1.428 . S
C430 C443 1.394 . S
C431 H423 0.949 . S
C431 C430 1.428 . S
C431 C432 1.345 . S
C432 H424 0.950 . S
C432 C431 1.345 . S
C432 C433 1.424 . S
C433 H425 0.951 . S
C433 C432 1.424 . S
C433 C434 1.347 . S
C434 H426 0.951 . S
C434 C429 1.429 . S
C434 C433 1.347 . S
H435 C436 0.951 . S
C436 H435 0.951 . S
C436 C442 1.265 . S
H437 C442 0.950 . S
H438 C446 0.949 . S
H439 C447 0.950 . S
H440 C448 0.951 . S
H441 C449 0.951 . S
C442 C436 1.265 . S
C442 H437 0.950 . S
C442 C443 1.478 . S
C443 C430 1.394 . S
C443 C442 1.478 . S
C443 C444 1.397 . S
C444 C443 1.397 . S
C444 C445 1.438 . S
C444 C449 1.429 . S
C445 C428 1.394 . S
C445 C444 1.438 . S
C445 C446 1.428 . S
C446 H438 0.949 . S
C446 C445 1.428 . S
C446 C447 1.345 . S
C447 H439 0.950 . S
C447 C446 1.345 . S
C447 C448 1.424 . S
C448 H440 0.951 . S
C448 C447 1.424 . S
C448 C449 1.347 . S
C449 H441 0.951 . S
C449 C444 1.429 . S
C449 C448 1.347 . S
C106 C61 1.468 . S
C91 N37 1.473 . S
C121 N4 1.461 . S
C136 C84 1.478 . S
C151 N15 1.492 . S
C166 C60 1.505 . S
C181 N26 1.511 . S
C196 C83 1.512 . S
C226 C64 1.434 . S
C211 C9 1.509 . S
C256 C86 1.512 . S
C241 C17 1.551 . S
C271 C31 1.525 . S
C286 C65 1.447 . S
C301 C42 1.530 . S
C316 C85 1.527 . S
C346 C88 1.380 . S
C331 C20 1.448 . S
C376 C63 1.356 . S
C361 C28 1.449 . S
C406 C87 1.347 . S
C391 C39 1.405 . S
C421 C6 1.424 . S
C436 C62 1.348 . S
