# Generated by pormake.
# Topology nom, (4,4)-cn, num edge types: 1
# Building blocks:
#     Node 0, Type 0, BuildingBlock: GIZVER_clean_linker_0, # of connection points: 4
#     Node 1, Type 0, BuildingBlock: GIZVER_clean_linker_0, # of connection points: 4
#     Node 2, Type 0, BuildingBlock: GIZVER_clean_linker_0, # of connection points: 4
#     Node 3, Type 0, BuildingBlock: GIZVER_clean_linker_0, # of connection points: 4
#     Node 4, Type 0, BuildingBlock: GIZVER_clean_linker_0, # of connection points: 4
#     Node 5, Type 0, BuildingBlock: GIZVER_clean_linker_0, # of connection points: 4
#     Node 6, Type 1, BuildingBlock: GALJAG_clean_sbu_0, # of connection points: 4
#     Node 7, Type 1, BuildingBlock: GALJAG_clean_sbu_0, # of connection points: 4
#     Node 8, Type 1, BuildingBlock: GALJAG_clean_sbu_0, # of connection points: 4
#     Node 9, Type 1, BuildingBlock: GALJAG_clean_sbu_0, # of connection points: 4
#     Node 10, Type 1, BuildingBlock: GALJAG_clean_sbu_0, # of connection points: 4
#     Node 11, Type 1, BuildingBlock: GALJAG_clean_sbu_0, # of connection points: 4
#     Edge 12, Type (0, 1), BuildingBlock: EYOCIG_clean_linker_4, # of connection points: 2
#     Edge 13, Type (0, 1), BuildingBlock: EYOCIG_clean_linker_4, # of connection points: 2
#     Edge 14, Type (0, 1), BuildingBlock: EYOCIG_clean_linker_4, # of connection points: 2
#     Edge 15, Type (0, 1), BuildingBlock: EYOCIG_clean_linker_4, # of connection points: 2
#     Edge 16, Type (0, 1), BuildingBlock: EYOCIG_clean_linker_4, # of connection points: 2
#     Edge 17, Type (0, 1), BuildingBlock: EYOCIG_clean_linker_4, # of connection points: 2
#     Edge 18, Type (0, 1), BuildingBlock: EYOCIG_clean_linker_4, # of connection points: 2
#     Edge 19, Type (0, 1), BuildingBlock: EYOCIG_clean_linker_4, # of connection points: 2
#     Edge 20, Type (0, 1), BuildingBlock: EYOCIG_clean_linker_4, # of connection points: 2
#     Edge 21, Type (0, 1), BuildingBlock: EYOCIG_clean_linker_4, # of connection points: 2
#     Edge 22, Type (0, 1), BuildingBlock: EYOCIG_clean_linker_4, # of connection points: 2
#     Edge 23, Type (0, 1), BuildingBlock: EYOCIG_clean_linker_4, # of connection points: 2
#     Edge 24, Type (0, 1), BuildingBlock: EYOCIG_clean_linker_4, # of connection points: 2
#     Edge 25, Type (0, 1), BuildingBlock: EYOCIG_clean_linker_4, # of connection points: 2
#     Edge 26, Type (0, 1), BuildingBlock: EYOCIG_clean_linker_4, # of connection points: 2
#     Edge 27, Type (0, 1), BuildingBlock: EYOCIG_clean_linker_4, # of connection points: 2
#     Edge 28, Type (0, 1), BuildingBlock: EYOCIG_clean_linker_4, # of connection points: 2
#     Edge 29, Type (0, 1), BuildingBlock: EYOCIG_clean_linker_4, # of connection points: 2
#     Edge 30, Type (0, 1), BuildingBlock: EYOCIG_clean_linker_4, # of connection points: 2
#     Edge 31, Type (0, 1), BuildingBlock: EYOCIG_clean_linker_4, # of connection points: 2
#     Edge 32, Type (0, 1), BuildingBlock: EYOCIG_clean_linker_4, # of connection points: 2
#     Edge 33, Type (0, 1), BuildingBlock: EYOCIG_clean_linker_4, # of connection points: 2
#     Edge 34, Type (0, 1), BuildingBlock: EYOCIG_clean_linker_4, # of connection points: 2
#     Edge 35, Type (0, 1), BuildingBlock: EYOCIG_clean_linker_4, # of connection points: 2
# Relax obj value: 0.013
# Max RMSD: 0.088
# Mean RMSD: 0.072
data_MOF--net-nom--node1-GALJAG_clean_sbu_0--node2-GIZVER_clean_linker_0--edge1-EYOCIG_clean_linker_4
_symmetry_space_group_name_H-M    P1
_symmetry_Int_Tables_number       1
_symmetry_cell_setting            triclinic
loop_
_symmetry_equiv_pos_as_xyz
'x, y, z'
_cell_length_a     36.990201
_cell_length_b     36.975666
_cell_length_c     37.907808
_cell_angle_alpha  90.035454
_cell_angle_beta   89.988306
_cell_angle_gamma 120.1663
loop_
_atom_site_label
_atom_site_type_symbol
_atom_site_fract_x
_atom_site_fract_y
_atom_site_fract_z
_atom_type_partial_charge
H0 H 0.95224 0.56725 0.3672 0.0
H1 H 0.99552 0.58073 0.25957 0.0
H2 H 0.87461 0.47874 0.28844 0.0
H3 H 0.00914 0.63372 0.34688 0.0
H4 H 0.02471 0.64125 0.30177 0.0
H5 H 0.03624 0.59963 0.38885 0.0
H6 H 0.15794 0.62029 0.3613 0.0
H7 H 0.08252 0.63393 0.28235 0.0
C8 C 0.94812 0.55552 0.3404 0.0
C9 C 0.91052 0.52001 0.33068 0.0
C10 C 0.97926 0.57763 0.31491 0.0
C11 C 0.97244 0.56316 0.27968 0.0
C12 C 0.9347 0.52727 0.27031 0.0
C13 C 0.90429 0.50572 0.29595 0.0
C14 C 0.01671 0.61931 0.32438 0.0
C15 C 0.05422 0.61547 0.33408 0.0
C16 C 0.0599 0.60611 0.36906 0.0
C17 C 0.09737 0.60776 0.37874 0.0
C18 C 0.12849 0.61778 0.35354 0.0
C19 C 0.12322 0.6272 0.31899 0.0
C20 C 0.08593 0.62539 0.30899 0.0
H21 H 0.39741 0.94911 0.53265 0.0
H22 H 0.42938 0.99448 0.42571 0.0
H23 H 0.40877 0.87276 0.45311 0.0
H24 H 0.38905 0.00678 0.51302 0.0
H25 H 0.39724 0.02273 0.46802 0.0
H26 H 0.44976 0.03436 0.55528 0.0
H27 H 0.55165 0.15605 0.52804 0.0
H28 H 0.46313 0.08034 0.44856 0.0
C29 C 0.40537 0.94546 0.50586 0.0
C30 C 0.40306 0.90792 0.49571 0.0
C31 C 0.41517 0.97717 0.48077 0.0
C32 C 0.42331 0.97097 0.44553 0.0
C33 C 0.42119 0.93331 0.43573 0.0
C34 C 0.4116 0.90234 0.46096 0.0
C35 C 0.41111 0.01457 0.49054 0.0
C36 C 0.45259 0.05213 0.50039 0.0
C37 C 0.46727 0.05796 0.53551 0.0
C38 C 0.50313 0.0955 0.54533 0.0
C39 C 0.52467 0.12656 0.52016 0.0
C40 C 0.51036 0.1212 0.48548 0.0
C41 C 0.47482 0.08382 0.47531 0.0
H42 H 0.39766 0.46116 0.61487 0.0
H43 H 0.43164 0.44912 0.72141 0.0
H44 H 0.41036 0.54974 0.69411 0.0
H45 H 0.39005 0.39557 0.63435 0.0
H46 H 0.39805 0.38793 0.67939 0.0
H47 H 0.45106 0.4288 0.5922 0.0
H48 H 0.55195 0.40812 0.61984 0.0
H49 H 0.46347 0.39575 0.69898 0.0
C50 C 0.40615 0.47313 0.64153 0.0
C51 C 0.40394 0.50839 0.65165 0.0
C52 C 0.41647 0.45157 0.66651 0.0
C53 C 0.42524 0.46634 0.70164 0.0
C54 C 0.42323 0.50195 0.71143 0.0
C55 C 0.41314 0.52298 0.68626 0.0
C56 C 0.41211 0.40994 0.65684 0.0
C57 C 0.45345 0.41367 0.64711 0.0
C58 C 0.46829 0.42251 0.61203 0.0
C59 C 0.50397 0.4206 0.60233 0.0
C60 C 0.52513 0.41082 0.6276 0.0
C61 C 0.51063 0.40187 0.66224 0.0
C62 C 0.4753 0.40395 0.67226 0.0
H63 H 0.9505 0.39614 0.78212 0.0
H64 H 0.99616 0.42913 0.88892 0.0
H65 H 0.8746 0.40876 0.86126 0.0
H66 H 0.00815 0.38811 0.80162 0.0
H67 H 0.02385 0.39599 0.84669 0.0
H68 H 0.03591 0.44939 0.7597 0.0
H69 H 0.15766 0.55073 0.78763 0.0
H70 H 0.08157 0.46142 0.86642 0.0
C71 C 0.94696 0.40443 0.80883 0.0
C72 C 0.90958 0.4024 0.81887 0.0
C73 C 0.97866 0.41434 0.83393 0.0
C74 C 0.97263 0.42294 0.86908 0.0
C75 C 0.93509 0.42115 0.87878 0.0
C76 C 0.9041 0.41138 0.85351 0.0
C77 C 0.0159 0.41006 0.8242 0.0
C78 C 0.05355 0.45154 0.81457 0.0
C79 C 0.05948 0.46663 0.77958 0.0
C80 C 0.09708 0.50256 0.77 0.0
C81 C 0.12809 0.52373 0.79531 0.0
C82 C 0.12258 0.509 0.82986 0.0
C83 C 0.08516 0.47341 0.83977 0.0
H84 H 0.63466 0.07963 0.03257 0.0
H85 H 0.60279 0.03467 0.92548 0.0
H86 H 0.62328 0.15625 0.95339 0.0
H87 H 0.64287 0.02194 0.01273 0.0
H88 H 0.63495 0.00631 0.96763 0.0
H89 H 0.58217 0.99387 0.05478 0.0
H90 H 0.48001 0.87274 0.02652 0.0
H91 H 0.56886 0.94921 0.94757 0.0
C92 C 0.62669 0.08338 0.00581 0.0
C93 C 0.62899 0.12093 0.99582 0.0
C94 C 0.61694 0.05177 0.98059 0.0
C95 C 0.60882 0.05809 0.9454 0.0
C96 C 0.61092 0.09578 0.93576 0.0
C97 C 0.62044 0.12664 0.96112 0.0
C98 C 0.62096 0.01433 0.99016 0.0
C99 C 0.57938 0.97675 -0.0003 0.0
C100 C 0.56463 0.97055 0.0348 0.0
C101 C 0.52866 0.933 0.04431 0.0
C102 C 0.50706 0.90228 0.01887 0.0
C103 C 0.52143 0.90802 0.98418 0.0
C104 C 0.5571 0.94544 0.97432 0.0
H105 H 0.63358 0.56684 0.1145 0.0
H106 H 0.60329 0.58108 0.22178 0.0
H107 H 0.62284 0.47945 0.19404 0.0
H108 H 0.64262 0.63319 0.13409 0.0
H109 H 0.63497 0.64127 0.17913 0.0
H110 H 0.58111 0.59894 0.09239 0.0
H111 H 0.48041 0.61997 0.12001 0.0
H112 H 0.56983 0.63394 0.19881 0.0
C113 C 0.6259 0.55536 0.14135 0.0
C114 C 0.62818 0.52015 0.15145 0.0
C115 C 0.61659 0.57752 0.16655 0.0
C116 C 0.60893 0.56342 0.20187 0.0
C117 C 0.61098 0.52783 0.21162 0.0
C118 C 0.62003 0.5062 0.18625 0.0
C119 C 0.62077 0.61903 0.15673 0.0
C120 C 0.57929 0.61505 0.14713 0.0
C121 C 0.56405 0.60553 0.11219 0.0
C122 C 0.52825 0.60723 0.10255 0.0
C123 C 0.50732 0.61743 0.12775 0.0
C124 C 0.52221 0.62705 0.16226 0.0
C125 C 0.55769 0.62521 0.17222 0.0
In126 In 0.63864 0.39355 0.40714 0.0
O127 O 0.70737 0.43494 0.42134 0.0
O128 O 0.69245 0.39584 0.37592 0.0
C129 C 0.59961 0.40902 0.45994 0.0
C130 C 0.624 0.43248 0.35371 0.0
C131 C 0.60832 0.31184 0.41987 0.0
O132 O 0.63846 0.4224 0.46067 0.0
O133 O 0.58068 0.38799 0.43307 0.0
O134 O 0.59695 0.32457 0.39359 0.0
O135 O 0.63552 0.33999 0.43936 0.0
C136 C 0.72037 0.42307 0.39556 0.0
O137 O 0.61057 0.39359 0.35315 0.0
O138 O 0.64474 0.45148 0.38068 0.0
In139 In 0.25891 0.63555 0.57416 0.0
O140 O 0.28577 0.59369 0.56039 0.0
O141 O 0.30961 0.6324 0.60603 0.0
C142 C 0.20447 0.6195 0.52111 0.0
C143 C 0.20471 0.5976 0.6275 0.0
C144 C 0.31065 0.71737 0.56147 0.0
O145 O 0.23011 0.60641 0.52059 0.0
O146 O 0.20641 0.64059 0.54786 0.0
O147 O 0.28651 0.70453 0.58775 0.0
O148 O 0.30965 0.68927 0.54196 0.0
C149 C 0.31016 0.60508 0.5865 0.0
O150 O 0.23068 0.63639 0.62785 0.0
O151 O 0.20624 0.57816 0.60079 0.0
In152 In 0.63771 0.25746 0.7406 0.0
O153 O 0.7065 0.28485 0.72674 0.0
O154 O 0.69146 0.30852 0.77239 0.0
C155 C 0.59878 0.20315 0.68759 0.0
C156 C 0.62288 0.20342 0.79362 0.0
C157 C 0.60742 0.3088 0.72837 0.0
O158 O 0.63753 0.22919 0.68671 0.0
O159 O 0.5799 0.20461 0.7147 0.0
O160 O 0.59588 0.28428 0.75441 0.0
O161 O 0.63481 0.30834 0.70891 0.0
C162 C 0.71942 0.3093 0.75286 0.0
O163 O 0.60961 0.22893 0.79444 0.0
O164 O 0.64348 0.20527 0.76657 0.0
In165 In 0.39497 0.63553 0.90701 0.0
O166 O 0.32631 0.59397 0.92138 0.0
O167 O 0.34078 0.63185 0.87528 0.0
C168 C 0.43328 0.61965 0.9602 0.0
C169 C 0.41083 0.59725 0.85372 0.0
C170 C 0.4246 0.71735 0.91914 0.0
O171 O 0.39446 0.60633 0.96053 0.0
O172 O 0.45262 0.64101 0.9336 0.0
O173 O 0.43614 0.70449 0.89306 0.0
O174 O 0.39767 0.68928 0.93883 0.0
C175 C 0.31305 0.60497 0.89524 0.0
O176 O 0.42418 0.63611 0.85343 0.0
O177 O 0.38949 0.57791 0.88032 0.0
In178 In 0.77312 0.39337 0.07406 0.0
O179 O 0.80108 0.39283 0.12794 0.0
O180 O 0.82503 0.45104 0.10099 0.0
C181 C 0.72183 0.31153 0.06134 0.0
C182 C 0.72109 0.42289 0.08632 0.0
C183 C 0.82775 0.40971 0.02106 0.0
O184 O 0.74633 0.32449 0.0874 0.0
O185 O 0.72232 0.33952 0.04203 0.0
O186 O 0.80187 0.42251 0.02045 0.0
O187 O 0.82599 0.38885 0.04789 0.0
C188 C 0.8266 0.43174 0.12775 0.0
O189 O 0.74582 0.43482 0.06042 0.0
O190 O 0.72171 0.39551 0.10568 0.0
In191 In 0.39522 0.77192 0.24039 0.0
O192 O 0.43726 0.74526 0.25415 0.0
O193 O 0.39804 0.7209 0.20883 0.0
C194 C 0.41019 0.82619 0.29334 0.0
C195 C 0.4339 0.82576 0.1871 0.0
C196 C 0.31343 0.72034 0.25267 0.0
O197 O 0.42304 0.80036 0.29436 0.0
O198 O 0.39 0.8246 0.26609 0.0
O199 O 0.32643 0.74479 0.22659 0.0
O200 O 0.34136 0.72093 0.27212 0.0
C201 C 0.42559 0.72058 0.22818 0.0
O202 O 0.39514 0.79974 0.18639 0.0
O203 O 0.45292 0.82453 0.2142 0.0
C204 C 0.19175 0.65718 0.28093 0.0
C205 C 0.1587 0.6438 0.29579 0.0
C206 C 0.23339 0.6767 0.26891 0.0
C207 C 0.26995 0.69661 0.26154 0.0
C208 C 0.54976 0.18998 0.44779 0.0
C209 C 0.52967 0.15675 0.46235 0.0
C210 C 0.5721 0.23177 0.43607 0.0
C211 C 0.58874 0.26837 0.42879 0.0
C212 C 0.37362 0.54678 0.61397 0.0
C213 C 0.38718 0.52714 0.62854 0.0
C214 C 0.35395 0.56884 0.6023 0.0
C215 C 0.334 0.58545 0.59517 0.0
C216 C 0.8412 0.37282 0.78072 0.0
C217 C 0.87423 0.38605 0.79555 0.0
C218 C 0.79951 0.35329 0.76884 0.0
C219 C 0.7629 0.33325 0.76164 0.0
C220 C 0.48213 0.83952 0.94607 0.0
C221 C 0.50221 0.87269 0.96076 0.0
C222 C 0.45999 0.79762 0.93452 0.0
C223 C 0.44373 0.76093 0.92762 0.0
C224 C 0.65717 0.48075 0.11352 0.0
C225 C 0.64414 0.50087 0.12806 0.0
C226 C 0.67671 0.4585 0.10202 0.0
C227 C 0.69688 0.4421 0.09501 0.0
C228 C 0.37379 0.83931 0.53358 0.0
C229 C 0.38691 0.87251 0.519 0.0
C230 C 0.35442 0.79751 0.54529 0.0
C231 C 0.3345 0.76087 0.55254 0.0
C232 C 0.54917 0.37207 0.70036 0.0
C233 C 0.5295 0.3854 0.68553 0.0
C234 C 0.57122 0.35252 0.71231 0.0
C235 C 0.58778 0.33258 0.71961 0.0
C236 C 0.19118 0.54757 0.86782 0.0
C237 C 0.15803 0.52785 0.85309 0.0
C238 C 0.23289 0.5693 0.87972 0.0
C239 C 0.26944 0.58544 0.88699 0.0
C240 C 0.65846 0.1895 0.03378 0.0
C241 C 0.64525 0.15629 0.01919 0.0
C242 C 0.67796 0.23135 0.04538 0.0
C243 C 0.69791 0.26801 0.05252 0.0
C244 C 0.4841 0.65748 0.20027 0.0
C245 C 0.50357 0.64391 0.18543 0.0
C246 C 0.46202 0.67704 0.2122 0.0
C247 C 0.44527 0.69685 0.21936 0.0
C248 C 0.84249 0.48068 0.36912 0.0
C249 C 0.87555 0.50082 0.35436 0.0
C250 C 0.80063 0.45847 0.38058 0.0
C251 C 0.76394 0.4422 0.3873 0.0
C252 C 0.12394 0.60276 0.44184 0.0
C253 C 0.10728 0.60384 0.41481 0.0
C254 C 0.15024 0.60606 0.47023 0.0
C255 C 0.1753 0.61171 0.49306 0.0
C256 C 0.53429 0.12242 0.6085 0.0
C257 C 0.51663 0.10554 0.58147 0.0
C258 C 0.55744 0.1489 0.63679 0.0
C259 C 0.57709 0.17398 0.65958 0.0
C260 C 0.42784 0.53348 0.77454 0.0
C261 C 0.42697 0.51572 0.74754 0.0
C262 C 0.42441 0.55654 0.80285 0.0
C263 C 0.41873 0.57596 0.82565 0.0
C264 C 0.90825 0.426 0.94184 0.0
C265 C 0.92505 0.42495 0.91486 0.0
C266 C 0.8819 0.4229 0.97015 0.0
C267 C 0.85685 0.4174 0.99295 0.0
C268 C 0.49771 0.90577 0.1075 0.0
C269 C 0.51518 0.92261 0.08041 0.0
C270 C 0.47485 0.87951 0.13596 0.0
C271 C 0.45542 0.85467 0.15893 0.0
C272 C 0.60787 0.49699 0.27472 0.0
C273 C 0.60817 0.51454 0.24778 0.0
C274 C 0.61134 0.47383 0.30289 0.0
C275 C 0.61661 0.45412 0.32566 0.0
C276 C 0.42534 0.90634 0.37255 0.0
C277 C 0.42458 0.92319 0.39959 0.0
C278 C 0.4223 0.88006 0.34421 0.0
C279 C 0.41723 0.85516 0.32139 0.0
C280 C 0.53527 0.425 0.53917 0.0
C281 C 0.51765 0.42415 0.56623 0.0
C282 C 0.55831 0.42176 0.51077 0.0
C283 C 0.57789 0.41639 0.48794 0.0
C284 C 0.12409 0.53425 0.70695 0.0
C285 C 0.10725 0.51645 0.73395 0.0
C286 C 0.1505 0.5572 0.67856 0.0
C287 C 0.17558 0.57648 0.65566 0.0
C288 C 0.60712 0.12301 0.87266 0.0
C289 C 0.60772 0.10607 0.89967 0.0
C290 C 0.61041 0.14941 0.84439 0.0
C291 C 0.61563 0.17436 0.82161 0.0
C292 C 0.49659 0.60228 0.03945 0.0
C293 C 0.51436 0.60331 0.06647 0.0
C294 C 0.47373 0.60579 0.01107 0.0
C295 C 0.4545 0.61164 0.98822 0.0
C296 C 0.90669 0.49588 0.20733 0.0
C297 C 0.9239 0.51358 0.23426 0.0
C298 C 0.88022 0.4727 0.17903 0.0
C299 C 0.8554 0.45311 0.15606 0.0
loop_
_geom_bond_atom_site_label_1
_geom_bond_atom_site_label_2
_geom_bond_distance
_geom_bond_site_symmetry_2
_ccdc_geom_bond_type
H0 C8 0.930 . S
H1 C11 0.930 . S
H2 C13 0.930 . S
H3 C14 0.970 . S
H4 C14 0.970 . S
H5 C16 0.930 . S
H6 C18 0.930 . S
H7 C20 0.930 . S
C8 H0 0.930 . S
C8 C9 1.382 . S
C8 C10 1.426 . S
C9 C8 1.382 . S
C9 C13 1.389 . S
C10 C8 1.426 . S
C10 C11 1.375 . S
C10 C14 1.532 1_655 S
C11 H1 0.930 . S
C11 C10 1.375 . S
C11 C12 1.416 . S
C12 C11 1.416 . S
C12 C13 1.371 . S
C13 H2 0.930 . S
C13 C9 1.389 . S
C13 C12 1.371 . S
C14 H3 0.970 . S
C14 H4 0.970 . S
C14 C10 1.532 1_455 S
C14 C15 1.499 . S
C15 C14 1.499 . S
C15 C16 1.370 . S
C15 C20 1.415 . S
C16 H5 0.930 . S
C16 C15 1.370 . S
C16 C17 1.407 . S
C17 C16 1.407 . S
C17 C18 1.365 . S
C18 H6 0.930 . S
C18 C17 1.365 . S
C18 C19 1.393 . S
C19 C18 1.393 . S
C19 C20 1.387 . S
C20 H7 0.930 . S
C20 C15 1.415 . S
C20 C19 1.387 . S
H21 C29 0.930 . S
H22 C32 0.930 . S
H23 C34 0.930 . S
H24 C35 0.970 . S
H25 C35 0.970 . S
H26 C37 0.930 . S
H27 C39 0.930 . S
H28 C41 0.930 . S
C29 H21 0.930 . S
C29 C30 1.382 . S
C29 C31 1.426 . S
C30 C29 1.382 . S
C30 C34 1.389 . S
C31 C29 1.426 . S
C31 C32 1.375 . S
C31 C35 1.532 1_565 S
C32 H22 0.930 . S
C32 C31 1.375 . S
C32 C33 1.416 . S
C33 C32 1.416 . S
C33 C34 1.371 . S
C34 H23 0.930 . S
C34 C30 1.389 . S
C34 C33 1.371 . S
C35 H24 0.970 . S
C35 H25 0.970 . S
C35 C31 1.532 1_545 S
C35 C36 1.499 . S
C36 C35 1.499 . S
C36 C37 1.370 . S
C36 C41 1.415 . S
C37 H26 0.930 . S
C37 C36 1.370 . S
C37 C38 1.407 . S
C38 C37 1.407 . S
C38 C39 1.365 . S
C39 H27 0.930 . S
C39 C38 1.365 . S
C39 C40 1.393 . S
C40 C39 1.393 . S
C40 C41 1.387 . S
C41 H28 0.930 . S
C41 C36 1.415 . S
C41 C40 1.387 . S
H42 C50 0.930 . S
H43 C53 0.930 . S
H44 C55 0.930 . S
H45 C56 0.970 . S
H46 C56 0.970 . S
H47 C58 0.930 . S
H48 C60 0.930 . S
H49 C62 0.930 . S
C50 H42 0.930 . S
C50 C51 1.382 . S
C50 C52 1.426 . S
C51 C50 1.382 . S
C51 C55 1.389 . S
C52 C50 1.426 . S
C52 C53 1.375 . S
C52 C56 1.532 . S
C53 H43 0.930 . S
C53 C52 1.375 . S
C53 C54 1.416 . S
C54 C53 1.416 . S
C54 C55 1.371 . S
C55 H44 0.930 . S
C55 C51 1.389 . S
C55 C54 1.371 . S
C56 H45 0.970 . S
C56 H46 0.970 . S
C56 C52 1.532 . S
C56 C57 1.499 . S
C57 C56 1.499 . S
C57 C58 1.370 . S
C57 C62 1.415 . S
C58 H47 0.930 . S
C58 C57 1.370 . S
C58 C59 1.407 . S
C59 C58 1.407 . S
C59 C60 1.365 . S
C60 H48 0.930 . S
C60 C59 1.365 . S
C60 C61 1.393 . S
C61 C60 1.393 . S
C61 C62 1.387 . S
C62 H49 0.930 . S
C62 C57 1.415 . S
C62 C61 1.387 . S
H63 C71 0.930 . S
H64 C74 0.930 . S
H65 C76 0.930 . S
H66 C77 0.970 . S
H67 C77 0.970 . S
H68 C79 0.930 . S
H69 C81 0.930 . S
H70 C83 0.930 . S
C71 H63 0.930 . S
C71 C72 1.382 . S
C71 C73 1.426 . S
C72 C71 1.382 . S
C72 C76 1.389 . S
C73 C71 1.426 . S
C73 C74 1.375 . S
C73 C77 1.532 1_655 S
C74 H64 0.930 . S
C74 C73 1.375 . S
C74 C75 1.416 . S
C75 C74 1.416 . S
C75 C76 1.371 . S
C76 H65 0.930 . S
C76 C72 1.389 . S
C76 C75 1.371 . S
C77 H66 0.970 . S
C77 H67 0.970 . S
C77 C73 1.532 1_455 S
C77 C78 1.499 . S
C78 C77 1.499 . S
C78 C79 1.370 . S
C78 C83 1.415 . S
C79 H68 0.930 . S
C79 C78 1.370 . S
C79 C80 1.407 . S
C80 C79 1.407 . S
C80 C81 1.365 . S
C81 H69 0.930 . S
C81 C80 1.365 . S
C81 C82 1.393 . S
C82 C81 1.393 . S
C82 C83 1.387 . S
C83 H70 0.930 . S
C83 C78 1.415 . S
C83 C82 1.387 . S
H84 C92 0.930 . S
H85 C95 0.930 . S
H86 C97 0.930 . S
H87 C98 0.970 1_554 S
H88 C98 0.970 . S
H89 C100 0.930 . S
H90 C102 0.930 . S
H91 C104 0.930 . S
C92 H84 0.930 . S
C92 C93 1.375 1_554 S
C92 C94 1.426 1_554 S
C93 C92 1.375 1_556 S
C93 C97 1.414 . S
C94 C92 1.426 1_556 S
C94 C95 1.375 . S
C94 C98 1.532 . S
C95 H85 0.930 . S
C95 C94 1.375 . S
C95 C96 1.416 . S
C96 C95 1.416 . S
C96 C97 1.371 . S
C97 H86 0.930 . S
C97 C93 1.414 . S
C97 C96 1.371 . S
C98 H87 0.970 1_556 S
C98 H88 0.970 . S
C98 C94 1.532 . S
C98 C99 1.499 1_546 S
C99 C98 1.499 1_564 S
C99 C100 1.370 . S
C99 C104 1.415 1_554 S
C100 H89 0.930 . S
C100 C99 1.370 . S
C100 C101 1.407 . S
C101 C100 1.407 . S
C101 C102 1.365 . S
C102 H90 0.930 . S
C102 C101 1.365 . S
C102 C103 1.393 1_554 S
C103 C102 1.393 1_556 S
C103 C104 1.387 . S
C104 H91 0.930 . S
C104 C99 1.415 1_556 S
C104 C103 1.387 . S
H105 C113 0.930 . S
H106 C116 0.930 . S
H107 C118 0.930 . S
H108 C119 0.970 . S
H109 C119 0.970 . S
H110 C121 0.930 . S
H111 C123 0.930 . S
H112 C125 0.930 . S
C113 H105 0.930 . S
C113 C114 1.382 . S
C113 C115 1.426 . S
C114 C113 1.382 . S
C114 C118 1.389 . S
C115 C113 1.426 . S
C115 C116 1.375 . S
C115 C119 1.532 . S
C116 H106 0.930 . S
C116 C115 1.375 . S
C116 C117 1.416 . S
C117 C116 1.416 . S
C117 C118 1.371 . S
C118 H107 0.930 . S
C118 C114 1.389 . S
C118 C117 1.371 . S
C119 H108 0.970 . S
C119 H109 0.970 . S
C119 C115 1.532 . S
C119 C120 1.499 . S
C120 C119 1.499 . S
C120 C121 1.370 . S
C120 C125 1.415 . S
C121 H110 0.930 . S
C121 C120 1.370 . S
C121 C122 1.407 . S
C122 C121 1.407 . S
C122 C123 1.365 . S
C123 H111 0.930 . S
C123 C122 1.365 . S
C123 C124 1.393 . S
C124 C123 1.393 . S
C124 C125 1.387 . S
C125 H112 0.930 . S
C125 C120 1.415 . S
C125 C124 1.387 . S
In126 O127 2.294 . S
In126 O128 2.326 . S
In126 O132 2.266 . S
In126 O133 2.326 . S
In126 O134 2.266 . S
In126 O135 2.326 . S
In126 O137 2.294 . S
In126 O138 2.326 . S
O127 In126 2.294 . S
O127 C136 1.240 . S
O128 In126 2.326 . S
O128 C136 1.252 . S
C129 O132 1.252 . S
C129 O133 1.260 . S
C130 O137 1.240 . S
C130 O138 1.252 . S
C131 O134 1.252 . S
C131 O135 1.260 . S
O132 In126 2.266 . S
O132 C129 1.252 . S
O133 In126 2.326 . S
O133 C129 1.260 . S
O134 In126 2.266 . S
O134 C131 1.252 . S
O135 In126 2.326 . S
O135 C131 1.260 . S
C136 O127 1.240 . S
C136 O128 1.252 . S
O137 In126 2.294 . S
O137 C130 1.240 . S
O138 In126 2.326 . S
O138 C130 1.252 . S
In139 O140 2.294 . S
In139 O141 2.326 . S
In139 O145 2.266 . S
In139 O146 2.326 . S
In139 O147 2.266 . S
In139 O148 2.326 . S
In139 O150 2.294 . S
In139 O151 2.326 . S
O140 In139 2.294 . S
O140 C149 1.240 . S
O141 In139 2.326 . S
O141 C149 1.252 . S
C142 O145 1.252 . S
C142 O146 1.260 . S
C143 O150 1.240 . S
C143 O151 1.252 . S
C144 O147 1.252 . S
C144 O148 1.260 . S
O145 In139 2.266 . S
O145 C142 1.252 . S
O146 In139 2.326 . S
O146 C142 1.260 . S
O147 In139 2.266 . S
O147 C144 1.252 . S
O148 In139 2.326 . S
O148 C144 1.260 . S
C149 O140 1.240 . S
C149 O141 1.252 . S
O150 In139 2.294 . S
O150 C143 1.240 . S
O151 In139 2.326 . S
O151 C143 1.252 . S
In152 O153 2.294 . S
In152 O154 2.326 . S
In152 O158 2.266 . S
In152 O159 2.326 . S
In152 O160 2.266 . S
In152 O161 2.326 . S
In152 O163 2.294 . S
In152 O164 2.326 . S
O153 In152 2.294 . S
O153 C162 1.240 . S
O154 In152 2.326 . S
O154 C162 1.252 . S
C155 O158 1.252 . S
C155 O159 1.260 . S
C156 O163 1.240 . S
C156 O164 1.252 . S
C157 O160 1.252 . S
C157 O161 1.260 . S
O158 In152 2.266 . S
O158 C155 1.252 . S
O159 In152 2.326 . S
O159 C155 1.260 . S
O160 In152 2.266 . S
O160 C157 1.252 . S
O161 In152 2.326 . S
O161 C157 1.260 . S
C162 O153 1.240 . S
C162 O154 1.252 . S
O163 In152 2.294 . S
O163 C156 1.240 . S
O164 In152 2.326 . S
O164 C156 1.252 . S
In165 O166 2.294 . S
In165 O167 2.326 . S
In165 O171 2.266 . S
In165 O172 2.326 . S
In165 O173 2.266 . S
In165 O174 2.326 . S
In165 O176 2.294 . S
In165 O177 2.326 . S
O166 In165 2.294 . S
O166 C175 1.240 . S
O167 In165 2.326 . S
O167 C175 1.252 . S
C168 O171 1.252 . S
C168 O172 1.260 . S
C169 O176 1.240 . S
C169 O177 1.252 . S
C170 O173 1.252 . S
C170 O174 1.260 . S
O171 In165 2.266 . S
O171 C168 1.252 . S
O172 In165 2.326 . S
O172 C168 1.260 . S
O173 In165 2.266 . S
O173 C170 1.252 . S
O174 In165 2.326 . S
O174 C170 1.260 . S
C175 O166 1.240 . S
C175 O167 1.252 . S
O176 In165 2.294 . S
O176 C169 1.240 . S
O177 In165 2.326 . S
O177 C169 1.252 . S
In178 O179 2.294 . S
In178 O180 2.326 . S
In178 O184 2.266 . S
In178 O185 2.326 . S
In178 O186 2.266 . S
In178 O187 2.326 . S
In178 O189 2.294 . S
In178 O190 2.326 . S
O179 In178 2.294 . S
O179 C188 1.240 . S
O180 In178 2.326 . S
O180 C188 1.252 . S
C181 O184 1.252 . S
C181 O185 1.260 . S
C182 O189 1.240 . S
C182 O190 1.252 . S
C183 O186 1.252 . S
C183 O187 1.260 . S
O184 In178 2.266 . S
O184 C181 1.252 . S
O185 In178 2.326 . S
O185 C181 1.260 . S
O186 In178 2.266 . S
O186 C183 1.252 . S
O187 In178 2.326 . S
O187 C183 1.260 . S
C188 O179 1.240 . S
C188 O180 1.252 . S
O189 In178 2.294 . S
O189 C182 1.240 . S
O190 In178 2.326 . S
O190 C182 1.252 . S
In191 O192 2.294 . S
In191 O193 2.326 . S
In191 O197 2.266 . S
In191 O198 2.326 . S
In191 O199 2.266 . S
In191 O200 2.326 . S
In191 O202 2.294 . S
In191 O203 2.326 . S
O192 In191 2.294 . S
O192 C201 1.240 . S
O193 In191 2.326 . S
O193 C201 1.252 . S
C194 O197 1.252 . S
C194 O198 1.260 . S
C195 O202 1.240 . S
C195 O203 1.252 . S
C196 O199 1.252 . S
C196 O200 1.260 . S
O197 In191 2.266 . S
O197 C194 1.252 . S
O198 In191 2.326 . S
O198 C194 1.260 . S
O199 In191 2.266 . S
O199 C196 1.252 . S
O200 In191 2.326 . S
O200 C196 1.260 . S
C201 O192 1.240 . S
C201 O193 1.252 . S
O202 In191 2.294 . S
O202 C195 1.240 . S
O203 In191 2.326 . S
O203 C195 1.252 . S
C204 C205 1.170 . S
C204 C206 1.380 . S
C205 C204 1.170 . S
C206 C204 1.380 . S
C206 C207 1.170 . S
C207 C206 1.170 . S
C208 C209 1.170 . S
C208 C210 1.380 . S
C209 C208 1.170 . S
C210 C208 1.380 . S
C210 C211 1.170 . S
C211 C210 1.170 . S
C212 C213 1.170 . S
C212 C214 1.380 . S
C213 C212 1.170 . S
C214 C212 1.380 . S
C214 C215 1.170 . S
C215 C214 1.170 . S
C216 C217 1.170 . S
C216 C218 1.380 . S
C217 C216 1.170 . S
C218 C216 1.380 . S
C218 C219 1.170 . S
C219 C218 1.170 . S
C220 C221 1.170 . S
C220 C222 1.380 . S
C221 C220 1.170 . S
C222 C220 1.380 . S
C222 C223 1.170 . S
C223 C222 1.170 . S
C224 C225 1.170 . S
C224 C226 1.380 . S
C225 C224 1.170 . S
C226 C224 1.380 . S
C226 C227 1.170 . S
C227 C226 1.170 . S
C228 C229 1.170 . S
C228 C230 1.380 . S
C229 C228 1.170 . S
C230 C228 1.380 . S
C230 C231 1.170 . S
C231 C230 1.170 . S
C232 C233 1.170 . S
C232 C234 1.380 . S
C233 C232 1.170 . S
C234 C232 1.380 . S
C234 C235 1.170 . S
C235 C234 1.170 . S
C236 C237 1.170 . S
C236 C238 1.380 . S
C237 C236 1.170 . S
C238 C236 1.380 . S
C238 C239 1.170 . S
C239 C238 1.170 . S
C240 C241 1.170 . S
C240 C242 1.380 . S
C241 C240 1.170 . S
C242 C240 1.380 . S
C242 C243 1.170 . S
C243 C242 1.170 . S
C244 C245 1.170 . S
C244 C246 1.380 . S
C245 C244 1.170 . S
C246 C244 1.380 . S
C246 C247 1.170 . S
C247 C246 1.170 . S
C248 C249 1.170 . S
C248 C250 1.380 . S
C249 C248 1.170 . S
C250 C248 1.380 . S
C250 C251 1.170 . S
C251 C250 1.170 . S
C252 C253 1.170 . S
C252 C254 1.380 . S
C253 C252 1.170 . S
C254 C252 1.380 . S
C254 C255 1.170 . S
C255 C254 1.170 . S
C256 C257 1.170 . S
C256 C258 1.380 . S
C257 C256 1.170 . S
C258 C256 1.380 . S
C258 C259 1.170 . S
C259 C258 1.170 . S
C260 C261 1.170 . S
C260 C262 1.380 . S
C261 C260 1.170 . S
C262 C260 1.380 . S
C262 C263 1.170 . S
C263 C262 1.170 . S
C264 C265 1.170 . S
C264 C266 1.380 . S
C265 C264 1.170 . S
C266 C264 1.380 . S
C266 C267 1.170 . S
C267 C266 1.170 . S
C268 C269 1.170 . S
C268 C270 1.380 . S
C269 C268 1.170 . S
C270 C268 1.380 . S
C270 C271 1.170 . S
C271 C270 1.170 . S
C272 C273 1.170 . S
C272 C274 1.380 . S
C273 C272 1.170 . S
C274 C272 1.380 . S
C274 C275 1.170 . S
C275 C274 1.170 . S
C276 C277 1.170 . S
C276 C278 1.380 . S
C277 C276 1.170 . S
C278 C276 1.380 . S
C278 C279 1.170 . S
C279 C278 1.170 . S
C280 C281 1.170 . S
C280 C282 1.380 . S
C281 C280 1.170 . S
C282 C280 1.380 . S
C282 C283 1.170 . S
C283 C282 1.170 . S
C284 C285 1.170 . S
C284 C286 1.380 . S
C285 C284 1.170 . S
C286 C284 1.380 . S
C286 C287 1.170 . S
C287 C286 1.170 . S
C288 C289 1.170 . S
C288 C290 1.380 . S
C289 C288 1.170 . S
C290 C288 1.380 . S
C290 C291 1.170 . S
C291 C290 1.170 . S
C292 C293 1.170 . S
C292 C294 1.380 . S
C293 C292 1.170 . S
C294 C292 1.380 . S
C294 C295 1.170 1_554 S
C295 C294 1.170 1_556 S
C296 C297 1.170 . S
C296 C298 1.380 . S
C297 C296 1.170 . S
C298 C296 1.380 . S
C298 C299 1.170 . S
C299 C298 1.170 . S
C207 C196 1.580 . S
C205 C19 1.500 . S
C209 C40 1.512 . S
C211 C131 1.588 . S
C213 C51 1.495 . S
C215 C149 1.588 . S
C217 C72 1.485 . S
C219 C162 1.575 . S
C223 C170 1.590 . S
C221 C103 1.542 . S
C225 C114 1.502 . S
C227 C182 1.585 . S
C229 C30 1.501 . S
C231 C144 1.595 . S
C233 C61 1.508 . S
C235 C157 1.583 . S
C237 C82 1.526 . S
C239 C175 1.581 . S
C243 C181 1.588 . S
C241 C93 1.479 1_554 S
C247 C201 1.570 . S
C245 C124 1.496 . S
C251 C136 1.591 . S
C249 C9 1.531 . S
C253 C17 1.534 . S
C255 C142 1.582 . S
C257 C38 1.521 . S
C259 C155 1.582 . S
C263 C169 1.578 . S
C261 C54 1.525 . S
C265 C75 1.533 . S
C267 C183 1.586 1_556 S
C271 C195 1.576 . S
C269 C101 1.499 . S
C275 C130 1.578 . S
C273 C117 1.493 . S
C279 C194 1.580 . S
C277 C33 1.511 . S
C281 C59 1.518 . S
C283 C129 1.580 . S
C287 C143 1.583 . S
C285 C80 1.528 . S
C289 C96 1.502 . S
C291 C156 1.574 . S
C293 C122 1.530 . S
C295 C168 1.582 . S
C297 C12 1.488 . S
C299 C188 1.584 . S
