# Generated by pormake.
# Topology hwx, (6,3)-cn, num edge types: 1
# Building blocks:
#     Node 0, Type 0, BuildingBlock: OJICUG_clean_sbu_0, # of connection points: 6
#     Node 1, Type 0, BuildingBlock: OJICUG_clean_sbu_0, # of connection points: 6
#     Node 2, Type 0, BuildingBlock: OJICUG_clean_sbu_0, # of connection points: 6
#     Node 3, Type 0, BuildingBlock: OJICUG_clean_sbu_0, # of connection points: 6
#     Node 4, Type 1, BuildingBlock: ESEHIV_clean_linker_0, # of connection points: 3
#     Node 5, Type 1, BuildingBlock: ESEHIV_clean_linker_0, # of connection points: 3
#     Node 6, Type 1, BuildingBlock: ESEHIV_clean_linker_0, # of connection points: 3
#     Node 7, Type 1, BuildingBlock: ESEHIV_clean_linker_0, # of connection points: 3
#     Node 8, Type 1, BuildingBlock: ESEHIV_clean_linker_0, # of connection points: 3
#     Node 9, Type 1, BuildingBlock: ESEHIV_clean_linker_0, # of connection points: 3
#     Node 10, Type 1, BuildingBlock: ESEHIV_clean_linker_0, # of connection points: 3
#     Node 11, Type 1, BuildingBlock: ESEHIV_clean_linker_0, # of connection points: 3
#     Edge 12, Type (0, 1), BuildingBlock: EZIPEK_clean_linker_0, # of connection points: 2
#     Edge 13, Type (0, 1), BuildingBlock: EZIPEK_clean_linker_0, # of connection points: 2
#     Edge 14, Type (0, 1), BuildingBlock: EZIPEK_clean_linker_0, # of connection points: 2
#     Edge 15, Type (0, 1), BuildingBlock: EZIPEK_clean_linker_0, # of connection points: 2
#     Edge 16, Type (0, 1), BuildingBlock: EZIPEK_clean_linker_0, # of connection points: 2
#     Edge 17, Type (0, 1), BuildingBlock: EZIPEK_clean_linker_0, # of connection points: 2
#     Edge 18, Type (0, 1), BuildingBlock: EZIPEK_clean_linker_0, # of connection points: 2
#     Edge 19, Type (0, 1), BuildingBlock: EZIPEK_clean_linker_0, # of connection points: 2
#     Edge 20, Type (0, 1), BuildingBlock: EZIPEK_clean_linker_0, # of connection points: 2
#     Edge 21, Type (0, 1), BuildingBlock: EZIPEK_clean_linker_0, # of connection points: 2
#     Edge 22, Type (0, 1), BuildingBlock: EZIPEK_clean_linker_0, # of connection points: 2
#     Edge 23, Type (0, 1), BuildingBlock: EZIPEK_clean_linker_0, # of connection points: 2
#     Edge 24, Type (0, 1), BuildingBlock: EZIPEK_clean_linker_0, # of connection points: 2
#     Edge 25, Type (0, 1), BuildingBlock: EZIPEK_clean_linker_0, # of connection points: 2
#     Edge 26, Type (0, 1), BuildingBlock: EZIPEK_clean_linker_0, # of connection points: 2
#     Edge 27, Type (0, 1), BuildingBlock: EZIPEK_clean_linker_0, # of connection points: 2
#     Edge 28, Type (0, 1), BuildingBlock: EZIPEK_clean_linker_0, # of connection points: 2
#     Edge 29, Type (0, 1), BuildingBlock: EZIPEK_clean_linker_0, # of connection points: 2
#     Edge 30, Type (0, 1), BuildingBlock: EZIPEK_clean_linker_0, # of connection points: 2
#     Edge 31, Type (0, 1), BuildingBlock: EZIPEK_clean_linker_0, # of connection points: 2
#     Edge 32, Type (0, 1), BuildingBlock: EZIPEK_clean_linker_0, # of connection points: 2
#     Edge 33, Type (0, 1), BuildingBlock: EZIPEK_clean_linker_0, # of connection points: 2
#     Edge 34, Type (0, 1), BuildingBlock: EZIPEK_clean_linker_0, # of connection points: 2
#     Edge 35, Type (0, 1), BuildingBlock: EZIPEK_clean_linker_0, # of connection points: 2
# Relax obj value: 0.076
# Max RMSD: 0.101
# Mean RMSD: 0.093
data_MOF--net-hwx--node1-OJICUG_clean_sbu_0--node2-ESEHIV_clean_linker_0--edge1-EZIPEK_clean_linker_0
_symmetry_space_group_name_H-M    P1
_symmetry_Int_Tables_number       1
_symmetry_cell_setting            triclinic
loop_
_symmetry_equiv_pos_as_xyz
'x, y, z'
_cell_length_a     34.096059
_cell_length_b     34.102273
_cell_length_c     15.524005
_cell_angle_alpha  90.273236
_cell_angle_beta   90.029426
_cell_angle_gamma 89.947106
loop_
_atom_site_label
_atom_site_type_symbol
_atom_site_fract_x
_atom_site_fract_y
_atom_site_fract_z
_atom_type_partial_charge
Sc0 Sc 0.21921 0.21824 0.10774 0.0
Sc1 Sc 0.15401 0.15718 -0.00455 0.0
Sc2 Sc 0.21489 0.22195 0.88263 0.0
O3 O 0.19606 0.19918 -0.00472 0.0
C4 C 0.21304 0.29751 -0.00156 0.0
C5 C 0.13074 0.20947 0.15922 0.0
C6 C 0.12216 0.21358 0.85303 0.0
C7 C 0.21063 0.12558 0.13799 0.0
C8 C 0.2944 0.21586 0.99132 0.0
C9 C 0.20589 0.1333 0.83189 0.0
O10 O 0.22046 0.2788 0.06723 0.0
O11 O 0.12498 0.18072 0.10832 0.0
O12 O 0.15641 0.22368 0.82931 0.0
O13 O 0.22094 0.15987 0.16151 0.0
O14 O 0.27552 0.22323 0.92263 0.0
O15 O 0.17721 0.12775 0.8827 0.0
O16 O 0.27815 0.20958 0.0635 0.0
O17 O 0.18945 0.11886 0.07228 0.0
O18 O 0.22536 0.16493 0.82924 0.0
O19 O 0.16238 0.22898 0.16156 0.0
O20 O 0.20662 0.2811 0.92628 0.0
O21 O 0.11555 0.1925 0.91863 0.0
Sc22 Sc 0.27863 0.71902 0.41008 0.0
Sc23 Sc 0.34162 0.65755 0.52618 0.0
Sc24 Sc 0.27874 0.72218 0.63578 0.0
O25 O 0.29958 0.69963 0.52403 0.0
C26 C 0.28304 0.79799 0.52208 0.0
C27 C 0.36787 0.70946 0.36513 0.0
C28 C 0.37127 0.7137 0.67238 0.0
C29 C 0.28679 0.62621 0.37935 0.0
C30 C 0.20105 0.71691 0.51945 0.0
C31 C 0.28742 0.63366 0.68584 0.0
O32 O 0.27731 0.77947 0.45191 0.0
O33 O 0.37259 0.68068 0.41587 0.0
O34 O 0.3366 0.72375 0.69397 0.0
O35 O 0.27713 0.66057 0.35549 0.0
O36 O 0.21854 0.72355 0.59052 0.0
O37 O 0.31687 0.62833 0.63693 0.0
O38 O 0.2188 0.71125 0.44865 0.0
O39 O 0.30714 0.61938 0.44616 0.0
O40 O 0.2675 0.66509 0.68725 0.0
O41 O 0.3364 0.7292 0.36087 0.0
O42 O 0.28773 0.78139 0.59437 0.0
O43 O 0.37883 0.6929 0.60638 0.0
Sc44 Sc 0.77155 0.77332 0.88181 0.0
Sc45 Sc 0.8463 0.83534 0.96053 0.0
Sc46 Sc 0.78758 0.78082 0.10495 0.0
O47 O 0.80183 0.79651 0.98246 0.0
C48 C 0.70289 0.78638 0.01807 0.0
C49 C 0.78492 0.86062 0.81642 0.0
C50 C 0.8025 0.87304 0.12277 0.0
C51 C 0.85958 0.77186 0.81175 0.0
C52 C 0.77812 0.69942 0.00596 0.0
C53 C 0.88113 0.78617 0.11728 0.0
O54 O 0.71518 0.78346 0.94095 0.0
O55 O 0.81365 0.86756 0.86619 0.0
O56 O 0.78765 0.84085 0.14758 0.0
O57 O 0.82449 0.75944 0.81402 0.0
O58 O 0.78453 0.71879 0.07483 0.0
O59 O 0.88528 0.80788 0.05169 0.0
O60 O 0.77334 0.71529 0.93303 0.0
O61 O 0.87225 0.79927 0.86031 0.0
O62 O 0.84803 0.77349 0.14252 0.0
O63 O 0.76634 0.82838 0.81559 0.0
O64 O 0.72543 0.78654 0.08324 0.0
O65 O 0.8243 0.87605 0.0566 0.0
Sc66 Sc 0.71951 0.28381 0.59645 0.0
Sc67 Sc 0.64898 0.33388 0.47283 0.0
Sc68 Sc 0.716 0.27091 0.37273 0.0
O69 O 0.69504 0.29625 0.48107 0.0
C70 C 0.79501 0.28563 0.4781 0.0
C71 C 0.7017 0.37678 0.6095 0.0
C72 C 0.69873 0.35583 0.30552 0.0
C73 C 0.63021 0.2881 0.64674 0.0
C74 C 0.71966 0.19995 0.50255 0.0
C75 C 0.62283 0.26638 0.34652 0.0
O76 O 0.77859 0.29226 0.55028 0.0
O77 O 0.67971 0.37872 0.54346 0.0
O78 O 0.72149 0.32659 0.31152 0.0
O79 O 0.66373 0.27242 0.65417 0.0
O80 O 0.71405 0.2133 0.42725 0.0
O81 O 0.61487 0.29138 0.40455 0.0
O82 O 0.72338 0.22164 0.56904 0.0
O83 O 0.62172 0.31307 0.58929 0.0
O84 O 0.65787 0.26039 0.32122 0.0
O85 O 0.71685 0.34486 0.63658 0.0
O86 O 0.77619 0.27732 0.40996 0.0
O87 O 0.66875 0.36002 0.35341 0.0
H88 H 0.25227 0.57606 0.04222 0.0
H89 H 0.23287 0.47374 0.88541 0.0
H90 H 0.22589 0.46585 0.16183 0.0
C91 C 0.24389 0.54546 0.03657 0.0
C92 C 0.23846 0.52322 0.11102 0.0
C93 C 0.24191 0.52782 0.95508 0.0
C94 C 0.23296 0.48787 0.94814 0.0
C95 C 0.22654 0.46559 0.02261 0.0
C96 C 0.22892 0.48339 0.10415 0.0
H97 H 0.9227 0.74463 0.44814 0.0
H98 H 0.03913 0.73531 0.35254 0.0
H99 H 0.01851 0.72047 0.62173 0.0
C100 C 0.95263 0.73621 0.46115 0.0
C101 C 0.96499 0.72522 0.54476 0.0
C102 C 0.97883 0.73897 0.39222 0.0
C103 C 0.01872 0.73259 0.40574 0.0
C104 C 0.03256 0.72542 0.48905 0.0
C105 C 0.00606 0.72276 0.55814 0.0
H106 H 0.71299 0.4277 0.9422 0.0
H107 H 0.75379 0.51739 0.11657 0.0
H108 H 0.74898 0.53929 0.84365 0.0
C109 C 0.72459 0.45688 0.95365 0.0
C110 C 0.732 0.4813 0.88354 0.0
C111 C 0.73307 0.46918 0.03796 0.0
C112 C 0.74774 0.50718 0.05168 0.0
C113 C 0.75216 0.53289 0.98205 0.0
C114 C 0.74515 0.51963 0.89768 0.0
H115 H 0.07345 0.24711 0.51723 0.0
H116 H 0.96309 0.27624 0.6348 0.0
H117 H 0.9721 0.26705 0.35881 0.0
C118 C 0.04303 0.25607 0.511 0.0
C119 C 0.02577 0.25774 0.42926 0.0
C120 C 0.02052 0.26243 0.58505 0.0
C121 C 0.98089 0.2727 0.57744 0.0
C122 C 0.96353 0.27478 0.49564 0.0
C123 C 0.986 0.26736 0.42166 0.0
H124 H 0.76491 0.92249 0.45071 0.0
H125 H 0.73528 0.01951 0.61583 0.0
H126 H 0.74701 0.03685 0.34218 0.0
C127 C 0.75658 0.95302 0.45857 0.0
C128 C 0.75559 0.97761 0.38677 0.0
C129 C 0.74961 0.96804 0.54118 0.0
C130 C 0.7398 0.00763 0.55168 0.0
C131 C 0.73878 0.03256 0.48004 0.0
C132 C 0.74666 0.01749 0.39736 0.0
H133 H 0.5746 0.24615 -0.0006 0.0
H134 H 0.46555 0.21653 0.12148 0.0
H135 H 0.46923 0.23731 0.84824 0.0
C136 C 0.54358 0.23941 -0.00517 0.0
C137 C 0.52464 0.24131 0.91494 0.0
C138 C 0.52238 0.23068 0.06939 0.0
C139 C 0.4822 0.2226 0.06355 0.0
C140 C 0.46298 0.22516 0.98394 0.0
C141 C 0.48424 0.23429 0.90944 0.0
H142 H 0.24371 0.07616 0.47398 0.0
H143 H 0.27106 0.96543 0.35514 0.0
H144 H 0.26334 0.97479 0.63139 0.0
C145 C 0.25234 0.04565 0.47984 0.0
C146 C 0.25401 0.02839 0.56136 0.0
C147 C 0.25823 0.02307 0.40554 0.0
C148 C 0.26784 0.98326 0.4127 0.0
C149 C 0.27009 0.96591 0.49437 0.0
C150 C 0.26338 0.98858 0.56858 0.0
H151 H 0.4241 0.74589 0.01246 0.0
H152 H 0.53239 0.7744 0.88622 0.0
H153 H 0.5278 0.76687 0.16307 0.0
C154 C 0.45461 0.75478 0.0163 0.0
C155 C 0.47316 0.75679 0.09665 0.0
C156 C 0.47581 0.7609 0.94052 0.0
C157 C 0.51562 0.77095 0.94501 0.0
C158 C 0.53439 0.77352 0.02544 0.0
C159 C 0.513 0.76662 0.10122 0.0
C160 C 0.08092 0.25671 0.21582 0.0
C161 C 0.0999 0.21986 0.22185 0.0
C162 C 0.06191 0.2048 0.35071 0.0
C163 C 0.04846 0.24419 0.35335 0.0
N164 N 0.04827 0.3093 0.29275 0.0
N165 N 0.11276 0.16065 0.30172 0.0
C166 C 0.05853 0.27064 0.2867 0.0
C167 C 0.09137 0.19417 0.29076 0.0
N168 N 0.08349 0.27781 0.14149 0.0
N169 N 0.04604 0.17744 0.40449 0.0
H170 H 0.13546 0.15245 0.26048 0.0
H171 H 0.11046 0.14299 0.35607 0.0
H172 H 0.02351 0.18394 0.44774 0.0
H173 H 0.05232 0.1476 0.3998 0.0
H174 H 0.06751 0.30335 0.13051 0.0
H175 H 0.09842 0.26736 0.08738 0.0
H176 H 0.05849 0.33057 0.2504 0.0
H177 H 0.03216 0.32073 0.34414 0.0
C178 C 0.2405 0.58374 0.74297 0.0
C179 C 0.27729 0.6029 0.74854 0.0
C180 C 0.29378 0.5643 0.87553 0.0
C181 C 0.25459 0.55048 0.8788 0.0
N182 N 0.18899 0.54995 0.82013 0.0
N183 N 0.33663 0.61626 0.82842 0.0
C184 C 0.22744 0.56072 0.81336 0.0
C185 C 0.30353 0.5943 0.81669 0.0
N186 N 0.21864 0.58674 0.66956 0.0
N187 N 0.32178 0.5484 0.92793 0.0
H188 H 0.34387 0.63977 0.78892 0.0
H189 H 0.35468 0.61372 0.88229 0.0
H190 H 0.31588 0.52557 0.9705 0.0
H191 H 0.35151 0.55501 0.92258 0.0
H192 H 0.19309 0.57073 0.65878 0.0
H193 H 0.22841 0.60216 0.6158 0.0
H194 H 0.16718 0.56021 0.77894 0.0
H195 H 0.17828 0.5332 0.87097 0.0
C196 C 0.93579 0.80412 0.21911 0.0
C197 C 0.91605 0.7753 0.1691 0.0
C198 C 0.94861 0.72283 0.24932 0.0
C199 C 0.96374 0.75144 0.30698 0.0
N200 N 0.97438 0.8189 0.34692 0.0
N201 N 0.91387 0.7093 0.11553 0.0
C202 C 0.95885 0.79207 0.29068 0.0
C203 C 0.92573 0.73515 0.17777 0.0
N204 N 0.93274 0.84281 0.19761 0.0
N205 N 0.95444 0.68392 0.26598 0.0
H206 H 0.89863 0.71846 0.06084 0.0
H207 H 0.92203 0.67992 0.1134 0.0
H208 H 0.9724 0.67415 0.31594 0.0
H209 H 0.94056 0.66128 0.23279 0.0
H210 H 0.94845 0.86528 0.2271 0.0
H211 H 0.91703 0.85244 0.14436 0.0
H212 H 0.96812 0.84874 0.34605 0.0
H213 H 0.99276 0.81104 0.3977 0.0
C214 C 0.67776 0.43307 0.70195 0.0
C215 C 0.70918 0.4129 0.6606 0.0
C216 C 0.75687 0.44729 0.75128 0.0
C217 C 0.72547 0.4655 0.7958 0.0
N218 N 0.65806 0.48584 0.79857 0.0
N219 N 0.77764 0.41093 0.62467 0.0
C220 C 0.68654 0.46194 0.7654 0.0
C221 C 0.74851 0.42346 0.67842 0.0
N222 N 0.63971 0.42288 0.68551 0.0
N223 N 0.79436 0.45109 0.78136 0.0
H224 H 0.7715 0.39475 0.56916 0.0
H225 H 0.80671 0.41999 0.62974 0.0
H226 H 0.80165 0.46942 0.83291 0.0
H227 H 0.81786 0.43466 0.75806 0.0
H228 H 0.61606 0.43292 0.72184 0.0
H229 H 0.63152 0.40238 0.63905 0.0
H230 H 0.62967 0.48737 0.77406 0.0
H231 H 0.66404 0.50699 0.84561 0.0
C232 C 0.55334 0.26644 0.291 0.0
C233 C 0.58995 0.24711 0.29828 0.0
C234 C 0.57202 0.20555 0.17489 0.0
C235 C 0.54224 0.23304 0.15407 0.0
N236 N 0.50593 0.29189 0.191 0.0
N237 N 0.6279 0.18935 0.26564 0.0
C238 C 0.5328 0.26381 0.21226 0.0
C239 C 0.59727 0.21354 0.24602 0.0
N240 N 0.53716 0.28553 0.35981 0.0
N241 N 0.57565 0.17199 0.127 0.0
H242 H 0.64296 0.1916 0.32396 0.0
H243 H 0.63804 0.16692 0.22584 0.0
H244 H 0.55687 0.16535 0.07585 0.0
H245 H 0.59524 0.14949 0.14072 0.0
H246 H 0.50929 0.2981 0.35782 0.0
H247 H 0.54842 0.28297 0.42196 0.0
H248 H 0.50137 0.31694 0.22846 0.0
H249 H 0.49094 0.29219 0.13257 0.0
C250 C 0.19044 0.09384 0.70006 0.0
C251 C 0.21613 0.1023 0.7694 0.0
C252 C 0.26692 0.06097 0.70464 0.0
C253 C 0.2405 0.05105 0.6374 0.0
N254 N 0.17374 0.04862 0.58541 0.0
N255 N 0.27399 0.08571 0.85042 0.0
C256 C 0.20109 0.06446 0.63976 0.0
C257 C 0.25295 0.08326 0.77571 0.0
N258 N 0.15689 0.1152 0.68907 0.0
N259 N 0.30558 0.05068 0.69897 0.0
H260 H 0.26362 0.10071 0.90459 0.0
H261 H 0.2995 0.06966 0.86151 0.0
H262 H 0.31702 0.03464 0.64744 0.0
H263 H 0.32683 0.06081 0.74185 0.0
H264 H 0.13927 0.11297 0.63441 0.0
H265 H 0.14858 0.13776 0.73074 0.0
H266 H 0.14389 0.05487 0.58987 0.0
H267 H 0.18025 0.02614 0.54188 0.0
C268 C 0.40877 0.6933 0.23581 0.0
C269 C 0.39958 0.71934 0.30428 0.0
C270 C 0.44124 0.76991 0.24059 0.0
C271 C 0.45156 0.74327 0.17391 0.0
N272 N 0.45469 0.67635 0.12289 0.0
N273 N 0.41539 0.7776 0.38517 0.0
C274 C 0.43846 0.70381 0.17654 0.0
C275 C 0.41848 0.75621 0.3109 0.0
N276 N 0.38766 0.65964 0.22425 0.0
N277 N 0.4515 0.80853 0.23499 0.0
H278 H 0.40012 0.76737 0.43879 0.0
H279 H 0.43121 0.80322 0.39666 0.0
H280 H 0.46803 0.81972 0.18426 0.0
H281 H 0.44106 0.82996 0.27717 0.0
H282 H 0.39041 0.64172 0.17002 0.0
H283 H 0.36476 0.65152 0.2648 0.0
H284 H 0.44868 0.64648 0.12745 0.0
H285 H 0.47726 0.68289 0.0799 0.0
C286 C 0.73722 0.90562 0.74242 0.0
C287 C 0.77563 0.88988 0.74948 0.0
C288 C 0.79764 0.93169 0.6317 0.0
C289 C 0.75829 0.94326 0.61686 0.0
N290 N 0.68953 0.938 0.65111 0.0
N291 N 0.84037 0.88157 0.68796 0.0
C292 C 0.72768 0.92946 0.67048 0.0
C293 C 0.80541 0.90126 0.69084 0.0
N294 N 0.71033 0.89878 0.80574 0.0
N295 N 0.82773 0.95027 0.5904 0.0
H296 H 0.84694 0.85782 0.72744 0.0
H297 H 0.86125 0.88611 0.64005 0.0
H298 H 0.82333 0.97335 0.54758 0.0
H299 H 0.85714 0.94551 0.60542 0.0
H300 H 0.68304 0.91248 0.80846 0.0
H301 H 0.71687 0.88217 0.86004 0.0
H302 H 0.66577 0.92528 0.68248 0.0
H303 H 0.68152 0.95557 0.59915 0.0
C304 C 0.87223 0.74944 0.66052 0.0
C305 C 0.88599 0.75401 0.74642 0.0
C306 C 0.94625 0.7188 0.70572 0.0
C307 C 0.93532 0.72249 0.61795 0.0
N308 N 0.87739 0.70798 0.53534 0.0
N309 N 0.93486 0.73819 0.85416 0.0
C310 C 0.89492 0.72765 0.60155 0.0
C311 C 0.9227 0.73721 0.77035 0.0
N312 N 0.83874 0.76747 0.63298 0.0
N313 N 0.97422 0.69206 0.7278 0.0
H314 H 0.91709 0.74778 0.90466 0.0
H315 H 0.96325 0.73078 0.87292 0.0
H316 H 0.98583 0.67265 0.68222 0.0
H317 H 0.98145 0.6852 0.79114 0.0
H318 H 0.82989 0.76664 0.56863 0.0
H319 H 0.82239 0.7866 0.67134 0.0
H320 H 0.84712 0.70834 0.52544 0.0
H321 H 0.89298 0.68789 0.49755 0.0
C322 C 0.69986 0.42621 0.25293 0.0
C323 C 0.70747 0.38567 0.23845 0.0
C324 C 0.7407 0.40275 0.10461 0.0
C325 C 0.72623 0.44164 0.11064 0.0
N326 N 0.6824 0.48692 0.18358 0.0
N327 N 0.72436 0.33557 0.13293 0.0
C328 C 0.70299 0.45256 0.18282 0.0
C329 C 0.72489 0.37384 0.15926 0.0
N330 N 0.69151 0.4402 0.33342 0.0
N331 N 0.76983 0.39331 0.04781 0.0
H332 H 0.7089 0.31378 0.1653 0.0
H333 H 0.73461 0.32675 0.07256 0.0
H334 H 0.78391 0.41424 0.01003 0.0
H335 H 0.78283 0.36561 0.04614 0.0
H336 H 0.68865 0.47009 0.34657 0.0
H337 H 0.6926 0.42287 0.38845 0.0
H338 H 0.66271 0.4941 0.23259 0.0
H339 H 0.68141 0.50589 0.13121 0.0
C340 C 0.06476 0.19906 0.75658 0.0
C341 C 0.08875 0.22688 0.80003 0.0
C342 C 0.06053 0.28019 0.71478 0.0
C343 C 0.03783 0.25221 0.66931 0.0
N344 N 0.00971 0.1875 0.66097 0.0
N345 N 0.10145 0.29411 0.83924 0.0
C346 C 0.03691 0.21247 0.69553 0.0
C347 C 0.08396 0.26763 0.78515 0.0
N348 N 0.07037 0.15976 0.76885 0.0
N349 N 0.0608 0.31835 0.68835 0.0
H350 H 0.11805 0.28556 0.89248 0.0
H351 H 0.0966 0.32422 0.83646 0.0
H352 H 0.04252 0.32862 0.63944 0.0
H353 H 0.08024 0.33933 0.71196 0.0
H354 H 0.05769 0.13818 0.73024 0.0
H355 H 0.08979 0.14829 0.81395 0.0
H356 H 0.0048 0.15926 0.68369 0.0
H357 H 0.98944 0.19619 0.61457 0.0
C358 C 0.30143 0.56835 0.28364 0.0
C359 C 0.27354 0.59285 0.32556 0.0
C360 C 0.2205 0.56452 0.23888 0.0
C361 C 0.24856 0.54126 0.19493 0.0
N362 N 0.31329 0.51297 0.1886 0.0
N363 N 0.20616 0.60642 0.3618 0.0
C364 C 0.28821 0.54034 0.22231 0.0
C365 C 0.23284 0.58835 0.30912 0.0
N366 N 0.34069 0.57359 0.29778 0.0
N367 N 0.18245 0.56485 0.21119 0.0
H368 H 0.2145 0.6233 0.415 0.0
H369 H 0.17604 0.60181 0.35797 0.0
H370 H 0.17227 0.54624 0.16251 0.0
H371 H 0.16147 0.58463 0.23347 0.0
H372 H 0.36247 0.56057 0.26034 0.0
H373 H 0.35196 0.59294 0.3435 0.0
H374 H 0.34141 0.50796 0.21229 0.0
H375 H 0.30488 0.49271 0.14163 0.0
C376 C 0.42859 0.69852 0.76906 0.0
C377 C 0.40416 0.72666 0.72804 0.0
C378 C 0.43319 0.77927 0.81532 0.0
C379 C 0.45673 0.75104 0.85752 0.0
N380 N 0.48465 0.68615 0.86128 0.0
N381 N 0.39101 0.79427 0.69381 0.0
C382 C 0.45715 0.71145 0.82939 0.0
C383 C 0.40895 0.76729 0.74547 0.0
N384 N 0.42287 0.65931 0.75501 0.0
N385 N 0.43303 0.8172 0.84415 0.0
H386 H 0.37394 0.78631 0.64072 0.0
H387 H 0.39598 0.82433 0.69825 0.0
H388 H 0.45189 0.82717 0.8925 0.0
H389 H 0.41308 0.83824 0.82328 0.0
H390 H 0.43593 0.63747 0.79187 0.0
H391 H 0.40295 0.64812 0.71046 0.0
H392 H 0.4893 0.65806 0.83677 0.0
H393 H 0.50537 0.69438 0.90736 0.0
C394 C 0.7518 0.91921 0.17889 0.0
C395 C 0.79196 0.90866 0.17274 0.0
C396 C 0.80818 0.95665 0.28515 0.0
C397 C 0.76762 0.9611 0.3024 0.0
N398 N 0.70022 0.9487 0.26545 0.0
N399 N 0.85914 0.91797 0.21668 0.0
C400 C 0.73918 0.94355 0.24809 0.0
C401 C 0.82055 0.92826 0.22354 0.0
N402 N 0.726 0.90599 0.11792 0.0
N403 N 0.83471 0.97931 0.32877 0.0
H404 H 0.86932 0.89855 0.16993 0.0
H405 H 0.88084 0.92722 0.25934 0.0
H406 H 0.82629 5e-05 0.37483 0.0
H407 H 0.8645 0.98012 0.31441 0.0
H408 H 0.69685 0.91491 0.11428 0.0
H409 H 0.7349 0.88873 0.06575 0.0
H410 H 0.67794 0.93303 0.23503 0.0
H411 H 0.6902 0.96772 0.3135 0.0
C412 C 0.58935 0.30428 0.77543 0.0
C413 C 0.59991 0.27729 0.70976 0.0
C414 C 0.55898 0.22667 0.77542 0.0
C415 C 0.54713 0.25428 0.83887 0.0
N416 N 0.54318 0.32137 0.888 0.0
N417 N 0.58931 0.21587 0.63594 0.0
C418 C 0.55977 0.29382 0.83506 0.0
C419 C 0.58296 0.23937 0.70618 0.0
N420 N 0.60907 0.33898 0.78369 0.0
N421 N 0.54875 0.1881 0.78338 0.0
H422 H 0.6067 0.22446 0.58406 0.0
H423 H 0.57476 0.18944 0.62554 0.0
H424 H 0.53076 0.17783 0.83266 0.0
H425 H 0.5602 0.16585 0.74471 0.0
H426 H 0.60552 0.358 0.83579 0.0
H427 H 0.6317 0.34714 0.74241 0.0
H428 H 0.54852 0.35132 0.88242 0.0
H429 H 0.52116 0.31468 0.93222 0.0
C430 C 0.19554 0.06828 0.23376 0.0
C431 C 0.22363 0.0922 0.19143 0.0
C432 C 0.27654 0.06338 0.27727 0.0
C433 C 0.24831 0.04068 0.32145 0.0
N434 N 0.18335 0.0131 0.32794 0.0
N435 N 0.29107 0.10456 0.1542 0.0
C436 C 0.20862 0.04016 0.29443 0.0
C437 C 0.26432 0.08712 0.20723 0.0
N438 N 0.1563 0.07422 0.22088 0.0
N439 N 0.31465 0.06331 0.30458 0.0
H440 H 0.28281 0.12135 0.10113 0.0
H441 H 0.32114 0.09947 0.15762 0.0
H442 H 0.32469 0.04476 0.35314 0.0
H443 H 0.33581 0.08271 0.28209 0.0
H444 H 0.13456 0.06157 0.2587 0.0
H445 H 0.14502 0.09391 0.17622 0.0
H446 H 0.15513 0.00843 0.30445 0.0
H447 H 0.19173 0.99272 0.37431 0.0
C448 C 0.2515 0.35888 0.9801 0.0
C449 C 0.21546 0.34061 0.00107 0.0
C450 C 0.18534 0.40473 0.02829 0.0
C451 C 0.22244 0.42254 0.01549 0.0
N452 N 0.29235 0.41651 0.99417 0.0
N453 N 0.14885 0.34464 0.05174 0.0
C454 C 0.25598 0.39961 -0.00464 0.0
C455 C 0.18253 0.36313 0.02717 0.0
N456 N 0.2812 0.33742 0.94398 0.0
N457 N 0.15275 0.42764 0.03896 0.0
H458 H 0.1455 0.31431 0.04782 0.0
H459 H 0.12521 0.35889 0.08053 0.0
H460 H 0.15391 0.4582 0.0407 0.0
H461 H 0.12428 0.41667 0.03984 0.0
H462 H 0.30659 0.34988 0.91885 0.0
H463 H 0.27917 0.30736 0.93228 0.0
H464 H 0.31829 0.40049 0.98966 0.0
H465 H 0.29703 0.44632 0.00539 0.0
C466 C 0.13501 0.68543 0.53469 0.0
C467 C 0.15782 0.71918 0.51706 0.0
C468 C 0.09817 0.75799 0.49682 0.0
C469 C 0.07548 0.72336 0.50434 0.0
N470 N 0.07188 0.65317 0.52113 0.0
N471 N 0.1619 0.78606 0.46767 0.0
C472 C 0.09373 0.68677 0.52136 0.0
C473 C 0.13963 0.75509 0.49436 0.0
N474 N 0.15284 0.65224 0.56433 0.0
N475 N 0.08006 0.79376 0.49437 0.0
H476 H 0.19242 0.78508 0.46467 0.0
H477 H 0.15006 0.81155 0.44161 0.0
H478 H 0.04967 0.79704 0.49761 0.0
H479 H 0.09515 0.82026 0.49773 0.0
H480 H 0.13762 0.62793 0.58693 0.0
H481 H 0.18313 0.65019 0.57218 0.0
H482 H 0.08401 0.62517 0.5237 0.0
H483 H 0.04157 0.65304 0.51203 0.0
C484 C 0.73316 0.64194 0.99184 0.0
C485 C 0.77126 0.65664 0.01066 0.0
C486 C 0.79725 0.58954 0.01408 0.0
C487 C 0.75894 0.57514 -0.00203 0.0
N488 N 0.68913 0.58632 0.99281 0.0
N489 N 0.83823 0.64503 0.05336 0.0
C490 C 0.72649 0.60099 0.99352 0.0
C491 C 0.80287 0.63055 0.02678 0.0
N492 N 0.70349 0.66699 0.96977 0.0
N493 N 0.82831 0.56416 0.01379 0.0
H494 H 0.84356 0.67494 0.06015 0.0
H495 H 0.86132 0.62755 0.07445 0.0
H496 H 0.82499 0.53393 0.00608 0.0
H497 H 0.85748 0.57307 0.01573 0.0
H498 H 0.67672 0.65768 0.94472 0.0
H499 H 0.70625 0.69739 0.97082 0.0
H500 H 0.6642 0.60372 -0.00027 0.0
H501 H 0.68294 0.55637 0.99341 0.0
C502 C 0.8571 0.24728 0.46092 0.0
C503 C 0.83835 0.28401 0.47476 0.0
C504 C 0.90245 0.31584 0.49224 0.0
C505 C 0.92051 0.27843 0.48789 0.0
N506 N 0.91543 0.20791 0.48005 0.0
N507 N 0.84205 0.3536 0.49945 0.0
C508 C 0.89798 0.244 0.47504 0.0
C509 C 0.86078 0.31845 0.48951 0.0
N510 N 0.83614 0.21551 0.43282 0.0
N511 N 0.92532 0.34874 0.49651 0.0
H512 H 0.81213 0.35687 0.48779 0.0
H513 H 0.85566 0.37922 0.52035 0.0
H514 H 0.95587 0.3476 0.49939 0.0
H515 H 0.91454 0.3772 0.49229 0.0
H516 H 0.84915 0.1897 0.41085 0.0
H517 H 0.80584 0.21545 0.42497 0.0
H518 H 0.89979 0.18173 0.48288 0.0
H519 H 0.9455 0.20398 0.48861 0.0
C520 C 0.69052 0.13327 0.4864 0.0
C521 C 0.7228 0.15688 0.51158 0.0
C522 C 0.76395 0.09825 0.52743 0.0
C523 C 0.73287 0.07525 0.49298 0.0
N524 N 0.66706 0.06982 0.43737 0.0
N525 N 0.78998 0.16293 0.55908 0.0
C526 C 0.69619 0.09246 0.47216 0.0
C527 C 0.75927 0.1396 0.53451 0.0
N528 N 0.65415 0.14992 0.47936 0.0
N529 N 0.79807 0.08045 0.55264 0.0
H530 H 0.78741 0.193 0.56939 0.0
H531 H 0.8187 0.15319 0.56603 0.0
H532 H 0.80418 0.05093 0.54123 0.0
H533 H 0.81995 0.09423 0.58827 0.0
H534 H 0.62849 0.1341 0.46903 0.0
H535 H 0.64907 0.17963 0.49136 0.0
H536 H 0.64139 0.08114 0.41104 0.0
H537 H 0.66936 0.03946 0.43039 0.0
C538 C 0.35659 0.25184 0.0205 0.0
C539 C 0.33753 0.21782 0.98845 0.0
C540 C 0.401 0.18784 0.95427 0.0
C541 C 0.41974 0.22292 0.98104 0.0
N542 N 0.41562 0.29119 0.02136 0.0
N543 N 0.3402 0.15566 0.91419 0.0
C544 C 0.39759 0.25579 0.00894 0.0
C545 C 0.35935 0.18647 0.95181 0.0
N546 N 0.33565 0.28014 0.06307 0.0
N547 N 0.42304 0.15561 0.93372 0.0
H548 H 0.30973 0.1533 0.91399 0.0
H549 H 0.35416 0.13389 0.87831 0.0
H550 H 0.45364 0.15594 0.93319 0.0
H551 H 0.41122 0.1279 0.92274 0.0
H552 H 0.34862 0.30335 0.09627 0.0
H553 H 0.30531 0.27901 0.07097 0.0
H554 H 0.40045 0.31721 0.03286 0.0
H555 H 0.44558 0.29543 0.01177 0.0
C556 C 0.31321 0.86295 0.4871 0.0
C557 C 0.28121 0.84114 0.52003 0.0
C558 C 0.24127 0.90051 0.52838 0.0
C559 C 0.27417 0.92289 0.50212 0.0
N560 N 0.34311 0.92694 0.46892 0.0
N561 N 0.21774 0.83979 0.58901 0.0
C562 C 0.31069 0.90455 0.4848 0.0
C563 C 0.24618 0.86014 0.54624 0.0
N564 N 0.3458 0.84384 0.45754 0.0
N565 N 0.2049 0.91741 0.53237 0.0
H566 H 0.21982 0.80993 0.60234 0.0
H567 H 0.19354 0.85316 0.61772 0.0
H568 H 0.19975 0.9468 0.51784 0.0
H569 H 0.17922 0.90148 0.54182 0.0
H570 H 0.3683 0.85754 0.42384 0.0
H571 H 0.3492 0.81356 0.46244 0.0
H572 H 0.37138 0.91557 0.46452 0.0
H573 H 0.34222 0.9575 0.46668 0.0
C574 C 0.6365 0.81794 0.00484 0.0
C575 C 0.65994 0.78594 0.03231 0.0
C576 C 0.60121 0.74606 0.05388 0.0
C577 C 0.57756 0.77843 0.02978 0.0
N578 N 0.57157 0.8472 -0.00262 0.0
N579 N 0.66403 0.72365 0.10588 0.0
C580 C 0.59489 0.81506 0.00961 0.0
C581 C 0.64211 0.7514 0.0646 0.0
N582 N 0.65415 0.851 0.97426 0.0
N583 N 0.585 0.70955 0.0617 0.0
H584 H 0.69428 0.7256 0.11386 0.0
H585 H 0.65169 0.70015 0.13883 0.0
H586 H 0.55525 0.70391 0.05224 0.0
H587 H 0.60164 0.68415 0.06911 0.0
H588 H 0.63917 0.87355 0.94347 0.0
H589 H 0.6844 0.85511 0.97714 0.0
H590 H 0.58233 0.87556 0.99054 0.0
H591 H 0.54103 0.84599 0.00068 0.0
loop_
_geom_bond_atom_site_label_1
_geom_bond_atom_site_label_2
_geom_bond_distance
_geom_bond_site_symmetry_2
_ccdc_geom_bond_type
Sc0 O3 2.028 . S
Sc0 O10 2.105 . S
Sc0 O13 2.105 . S
Sc0 O16 2.105 . S
Sc0 O19 2.105 . S
Sc1 O3 2.025 . S
Sc1 O11 2.107 . S
Sc1 O15 2.103 1_554 S
Sc1 O17 2.107 . S
Sc1 O21 2.103 1_554 S
Sc2 O3 2.023 1_556 S
Sc2 O12 2.105 . S
Sc2 O14 2.105 . S
Sc2 O18 2.105 . S
Sc2 O20 2.105 . S
O3 Sc0 2.028 . S
O3 Sc1 2.025 . S
O3 Sc2 2.023 1_554 S
C4 O10 1.269 . S
C4 O20 1.267 1_554 S
C5 O11 1.268 . S
C5 O19 1.268 . S
C6 O12 1.268 . S
C6 O21 1.268 . S
C7 O13 1.268 . S
C7 O17 1.268 . S
C8 O14 1.264 1_554 S
C8 O16 1.272 . S
C9 O15 1.268 . S
C9 O18 1.268 . S
O10 Sc0 2.105 . S
O10 C4 1.269 . S
O11 Sc1 2.107 . S
O11 C5 1.268 . S
O12 Sc2 2.105 . S
O12 C6 1.268 . S
O13 Sc0 2.105 . S
O13 C7 1.268 . S
O14 Sc2 2.105 . S
O14 C8 1.264 1_556 S
O15 Sc1 2.103 1_556 S
O15 C9 1.268 . S
O16 Sc0 2.105 . S
O16 C8 1.272 . S
O17 Sc1 2.107 . S
O17 C7 1.268 . S
O18 Sc2 2.105 . S
O18 C9 1.268 . S
O19 Sc0 2.105 . S
O19 C5 1.268 . S
O20 Sc2 2.105 . S
O20 C4 1.267 1_556 S
O21 Sc1 2.103 1_556 S
O21 C6 1.268 . S
Sc22 O25 2.025 . S
Sc22 O32 2.105 . S
Sc22 O35 2.105 . S
Sc22 O38 2.105 . S
Sc22 O41 2.105 . S
Sc23 O25 2.025 . S
Sc23 O33 2.105 . S
Sc23 O37 2.105 . S
Sc23 O39 2.105 . S
Sc23 O43 2.105 . S
Sc24 O25 2.025 . S
Sc24 O34 2.105 . S
Sc24 O36 2.105 . S
Sc24 O40 2.105 . S
Sc24 O42 2.105 . S
O25 Sc22 2.025 . S
O25 Sc23 2.025 . S
O25 Sc24 2.025 . S
C26 O32 1.268 . S
C26 O42 1.268 . S
C27 O33 1.268 . S
C27 O41 1.268 . S
C28 O34 1.268 . S
C28 O43 1.268 . S
C29 O35 1.268 . S
C29 O39 1.268 . S
C30 O36 1.268 . S
C30 O38 1.268 . S
C31 O37 1.268 . S
C31 O40 1.268 . S
O32 Sc22 2.105 . S
O32 C26 1.268 . S
O33 Sc23 2.105 . S
O33 C27 1.268 . S
O34 Sc24 2.105 . S
O34 C28 1.268 . S
O35 Sc22 2.105 . S
O35 C29 1.268 . S
O36 Sc24 2.105 . S
O36 C30 1.268 . S
O37 Sc23 2.105 . S
O37 C31 1.268 . S
O38 Sc22 2.105 . S
O38 C30 1.268 . S
O39 Sc23 2.105 . S
O39 C29 1.268 . S
O40 Sc24 2.105 . S
O40 C31 1.268 . S
O41 Sc22 2.105 . S
O41 C27 1.268 . S
O42 Sc24 2.105 . S
O42 C26 1.268 . S
O43 Sc23 2.105 . S
O43 C28 1.268 . S
Sc44 O47 2.023 1_556 S
Sc44 O54 2.105 . S
Sc44 O57 2.105 . S
Sc44 O60 2.105 . S
Sc44 O63 2.105 . S
Sc45 O47 2.025 . S
Sc45 O55 2.103 1_554 S
Sc45 O59 2.107 . S
Sc45 O61 2.103 1_554 S
Sc45 O65 2.107 . S
Sc46 O47 2.028 . S
Sc46 O56 2.105 . S
Sc46 O58 2.105 . S
Sc46 O62 2.105 . S
Sc46 O64 2.105 . S
O47 Sc44 2.023 1_554 S
O47 Sc45 2.025 . S
O47 Sc46 2.028 . S
C48 O54 1.267 1_554 S
C48 O64 1.269 . S
C49 O55 1.268 . S
C49 O63 1.268 . S
C50 O56 1.268 . S
C50 O65 1.268 . S
C51 O57 1.268 . S
C51 O61 1.268 . S
C52 O58 1.272 . S
C52 O60 1.264 1_554 S
C53 O59 1.268 . S
C53 O62 1.268 . S
O54 Sc44 2.105 . S
O54 C48 1.267 1_556 S
O55 Sc45 2.103 1_556 S
O55 C49 1.268 . S
O56 Sc46 2.105 . S
O56 C50 1.268 . S
O57 Sc44 2.105 . S
O57 C51 1.268 . S
O58 Sc46 2.105 . S
O58 C52 1.272 . S
O59 Sc45 2.107 . S
O59 C53 1.268 . S
O60 Sc44 2.105 . S
O60 C52 1.264 1_556 S
O61 Sc45 2.103 1_556 S
O61 C51 1.268 . S
O62 Sc46 2.105 . S
O62 C53 1.268 . S
O63 Sc44 2.105 . S
O63 C49 1.268 . S
O64 Sc46 2.105 . S
O64 C48 1.269 . S
O65 Sc45 2.107 . S
O65 C50 1.268 . S
Sc66 O69 2.025 . S
Sc66 O76 2.105 . S
Sc66 O79 2.105 . S
Sc66 O82 2.105 . S
Sc66 O85 2.105 . S
Sc67 O69 2.025 . S
Sc67 O77 2.105 . S
Sc67 O81 2.105 . S
Sc67 O83 2.105 . S
Sc67 O87 2.105 . S
Sc68 O69 2.025 . S
Sc68 O78 2.105 . S
Sc68 O80 2.105 . S
Sc68 O84 2.105 . S
Sc68 O86 2.105 . S
O69 Sc66 2.025 . S
O69 Sc67 2.025 . S
O69 Sc68 2.025 . S
C70 O76 1.268 . S
C70 O86 1.268 . S
C71 O77 1.268 . S
C71 O85 1.268 . S
C72 O78 1.268 . S
C72 O87 1.268 . S
C73 O79 1.268 . S
C73 O83 1.268 . S
C74 O80 1.268 . S
C74 O82 1.268 . S
C75 O81 1.268 . S
C75 O84 1.268 . S
O76 Sc66 2.105 . S
O76 C70 1.268 . S
O77 Sc67 2.105 . S
O77 C71 1.268 . S
O78 Sc68 2.105 . S
O78 C72 1.268 . S
O79 Sc66 2.105 . S
O79 C73 1.268 . S
O80 Sc68 2.105 . S
O80 C74 1.268 . S
O81 Sc67 2.105 . S
O81 C75 1.268 . S
O82 Sc66 2.105 . S
O82 C74 1.268 . S
O83 Sc67 2.105 . S
O83 C73 1.268 . S
O84 Sc68 2.105 . S
O84 C75 1.268 . S
O85 Sc66 2.105 . S
O85 C71 1.268 . S
O86 Sc68 2.105 . S
O86 C70 1.268 . S
O87 Sc67 2.105 . S
O87 C72 1.268 . S
H88 C91 0.931 . S
H89 C94 0.928 . S
H90 C96 0.930 . S
C91 H88 0.931 . S
C91 C92 1.413 1_556 S
C91 C93 1.360 . S
C92 C91 1.413 1_554 S
C92 C96 1.429 . S
C93 C91 1.360 . S
C93 C94 1.372 . S
C94 H89 0.928 . S
C94 C93 1.372 . S
C94 C95 1.411 . S
C95 C94 1.411 . S
C95 C96 1.383 1_556 S
C96 H90 0.930 . S
C96 C92 1.429 . S
C96 C95 1.383 1_554 S
H97 C100 0.931 . S
H98 C103 0.925 1_455 S
H99 C105 0.930 . S
C100 H97 0.931 . S
C100 C101 1.413 . S
C100 C102 1.360 . S
C101 C100 1.413 . S
C101 C105 1.429 1_655 S
C102 C100 1.360 . S
C102 C103 1.378 . S
C103 H98 0.925 1_655 S
C103 C102 1.378 . S
C103 C104 1.400 1_655 S
C104 C103 1.400 1_455 S
C104 C105 1.391 . S
C105 H99 0.930 . S
C105 C101 1.429 1_455 S
C105 C104 1.391 . S
H106 C109 0.931 . S
H107 C112 0.928 . S
H108 C114 0.930 . S
C109 H106 0.931 . S
C109 C110 1.413 1_554 S
C109 C111 1.360 . S
C110 C109 1.413 1_556 S
C110 C114 1.429 . S
C111 C109 1.360 . S
C111 C112 1.372 . S
C112 H107 0.928 . S
C112 C111 1.372 . S
C112 C113 1.404 . S
C113 C112 1.404 . S
C113 C114 1.391 1_554 S
C114 H108 0.930 . S
C114 C110 1.429 . S
C114 C113 1.391 1_556 S
H115 C118 0.931 . S
H116 C121 0.932 . S
H117 C123 0.930 . S
C118 H115 0.931 . S
C118 C119 1.413 . S
C118 C120 1.360 . S
C119 C118 1.413 . S
C119 C123 1.429 1_455 S
C120 C118 1.360 . S
C120 C121 1.364 1_455 S
C121 H116 0.932 . S
C121 C120 1.364 1_655 S
C121 C122 1.407 . S
C122 C121 1.407 . S
C122 C123 1.391 . S
C123 H117 0.930 . S
C123 C119 1.429 1_655 S
C123 C122 1.391 . S
H124 C127 0.931 . S
H125 C130 0.925 1_545 S
H126 C132 0.930 . S
C127 H124 0.931 . S
C127 C128 1.413 . S
C127 C129 1.360 . S
C128 C127 1.413 . S
C128 C132 1.429 1_565 S
C129 C127 1.360 . S
C129 C130 1.378 . S
C130 H125 0.925 1_565 S
C130 C129 1.378 . S
C130 C131 1.400 1_565 S
C131 C130 1.400 1_545 S
C131 C132 1.391 . S
C132 H126 0.930 . S
C132 C128 1.429 1_545 S
C132 C131 1.391 . S
H133 C136 0.931 . S
H134 C139 0.928 . S
H135 C141 0.930 . S
C136 H133 0.931 . S
C136 C137 1.413 1_554 S
C136 C138 1.360 . S
C137 C136 1.413 1_556 S
C137 C141 1.429 . S
C138 C136 1.360 . S
C138 C139 1.372 . S
C139 H134 0.928 . S
C139 C138 1.372 . S
C139 C140 1.404 . S
C140 C139 1.404 . S
C140 C141 1.391 1_554 S
C141 H135 0.930 . S
C141 C137 1.429 . S
C141 C140 1.391 1_556 S
H142 C145 0.931 . S
H143 C148 0.932 . S
H144 C150 0.930 . S
C145 H142 0.931 . S
C145 C146 1.413 . S
C145 C147 1.360 . S
C146 C145 1.413 . S
C146 C150 1.429 1_545 S
C147 C145 1.360 . S
C147 C148 1.364 1_545 S
C148 H143 0.932 . S
C148 C147 1.364 1_565 S
C148 C149 1.407 . S
C149 C148 1.407 . S
C149 C150 1.391 . S
C150 H144 0.930 . S
C150 C146 1.429 1_565 S
C150 C149 1.391 . S
H151 C154 0.931 . S
H152 C157 0.928 . S
H153 C159 0.930 . S
C154 H151 0.931 . S
C154 C155 1.413 1_556 S
C154 C156 1.360 . S
C155 C154 1.413 1_554 S
C155 C159 1.429 . S
C156 C154 1.360 . S
C156 C157 1.372 . S
C157 H152 0.928 . S
C157 C156 1.372 . S
C157 C158 1.411 . S
C158 C157 1.411 . S
C158 C159 1.383 1_556 S
C159 H153 0.930 . S
C159 C155 1.429 . S
C159 C158 1.383 1_554 S
C160 C161 1.363 . S
C160 C166 1.379 . S
C160 N168 1.356 . S
C161 C160 1.363 . S
C161 C167 1.363 . S
C162 C163 1.363 . S
C162 C167 1.379 . S
C162 N169 1.356 . S
C163 C162 1.363 . S
C163 C166 1.363 . S
N164 C166 1.356 . S
N164 H176 0.984 . S
N164 H177 0.985 . S
N165 C167 1.356 . S
N165 H170 0.984 . S
N165 H171 0.985 . S
C166 C160 1.379 . S
C166 C163 1.363 . S
C166 N164 1.356 . S
C167 C161 1.363 . S
C167 C162 1.379 . S
C167 N165 1.356 . S
N168 C160 1.356 . S
N168 H174 0.984 . S
N168 H175 0.984 . S
N169 C162 1.356 . S
N169 H172 0.984 . S
N169 H173 0.985 . S
H170 N165 0.984 . S
H171 N165 0.985 . S
H172 N169 0.984 . S
H173 N169 0.985 . S
H174 N168 0.984 . S
H175 N168 0.984 . S
H176 N164 0.984 . S
H177 N164 0.985 . S
C178 C179 1.363 . S
C178 C184 1.379 . S
C178 N186 1.356 . S
C179 C178 1.363 . S
C179 C185 1.363 . S
C180 C181 1.363 . S
C180 C185 1.379 . S
C180 N187 1.356 . S
C181 C180 1.363 . S
C181 C184 1.363 . S
N182 C184 1.356 . S
N182 H194 0.984 . S
N182 H195 0.985 . S
N183 C185 1.356 . S
N183 H188 0.984 . S
N183 H189 0.985 . S
C184 C178 1.379 . S
C184 C181 1.363 . S
C184 N182 1.356 . S
C185 C179 1.363 . S
C185 C180 1.379 . S
C185 N183 1.356 . S
N186 C178 1.356 . S
N186 H192 0.984 . S
N186 H193 0.984 . S
N187 C180 1.356 . S
N187 H190 0.984 . S
N187 H191 0.985 . S
H188 N183 0.984 . S
H189 N183 0.985 . S
H190 N187 0.984 . S
H191 N187 0.985 . S
H192 N186 0.984 . S
H193 N186 0.984 . S
H194 N182 0.984 . S
H195 N182 0.985 . S
C196 C197 1.363 . S
C196 C202 1.379 . S
C196 N204 1.356 . S
C197 C196 1.363 . S
C197 C203 1.363 . S
C198 C199 1.363 . S
C198 C203 1.379 . S
C198 N205 1.356 . S
C199 C198 1.363 . S
C199 C202 1.363 . S
N200 C202 1.356 . S
N200 H212 0.984 . S
N200 H213 0.985 . S
N201 C203 1.356 . S
N201 H206 0.984 . S
N201 H207 0.985 . S
C202 C196 1.379 . S
C202 C199 1.363 . S
C202 N200 1.356 . S
C203 C197 1.363 . S
C203 C198 1.379 . S
C203 N201 1.356 . S
N204 C196 1.356 . S
N204 H210 0.984 . S
N204 H211 0.984 . S
N205 C198 1.356 . S
N205 H208 0.984 . S
N205 H209 0.985 . S
H206 N201 0.984 . S
H207 N201 0.985 . S
H208 N205 0.984 . S
H209 N205 0.985 . S
H210 N204 0.984 . S
H211 N204 0.984 . S
H212 N200 0.984 . S
H213 N200 0.985 . S
C214 C215 1.363 . S
C214 C220 1.379 . S
C214 N222 1.356 . S
C215 C214 1.363 . S
C215 C221 1.363 . S
C216 C217 1.363 . S
C216 C221 1.379 . S
C216 N223 1.356 . S
C217 C216 1.363 . S
C217 C220 1.363 . S
N218 C220 1.356 . S
N218 H230 0.984 . S
N218 H231 0.985 . S
N219 C221 1.356 . S
N219 H224 0.984 . S
N219 H225 0.985 . S
C220 C214 1.379 . S
C220 C217 1.363 . S
C220 N218 1.356 . S
C221 C215 1.363 . S
C221 C216 1.379 . S
C221 N219 1.356 . S
N222 C214 1.356 . S
N222 H228 0.984 . S
N222 H229 0.984 . S
N223 C216 1.356 . S
N223 H226 0.984 . S
N223 H227 0.985 . S
H224 N219 0.984 . S
H225 N219 0.985 . S
H226 N223 0.984 . S
H227 N223 0.985 . S
H228 N222 0.984 . S
H229 N222 0.984 . S
H230 N218 0.984 . S
H231 N218 0.985 . S
C232 C233 1.363 . S
C232 C238 1.379 . S
C232 N240 1.356 . S
C233 C232 1.363 . S
C233 C239 1.363 . S
C234 C235 1.363 . S
C234 C239 1.379 . S
C234 N241 1.356 . S
C235 C234 1.363 . S
C235 C238 1.363 . S
N236 C238 1.356 . S
N236 H248 0.984 . S
N236 H249 0.985 . S
N237 C239 1.356 . S
N237 H242 0.984 . S
N237 H243 0.985 . S
C238 C232 1.379 . S
C238 C235 1.363 . S
C238 N236 1.356 . S
C239 C233 1.363 . S
C239 C234 1.379 . S
C239 N237 1.356 . S
N240 C232 1.356 . S
N240 H246 0.984 . S
N240 H247 0.984 . S
N241 C234 1.356 . S
N241 H244 0.984 . S
N241 H245 0.985 . S
H242 N237 0.984 . S
H243 N237 0.985 . S
H244 N241 0.984 . S
H245 N241 0.985 . S
H246 N240 0.984 . S
H247 N240 0.984 . S
H248 N236 0.984 . S
H249 N236 0.985 . S
C250 C251 1.363 . S
C250 C256 1.379 . S
C250 N258 1.356 . S
C251 C250 1.363 . S
C251 C257 1.363 . S
C252 C253 1.363 . S
C252 C257 1.379 . S
C252 N259 1.356 . S
C253 C252 1.363 . S
C253 C256 1.363 . S
N254 C256 1.356 . S
N254 H266 0.984 . S
N254 H267 0.985 . S
N255 C257 1.356 . S
N255 H260 0.984 . S
N255 H261 0.985 . S
C256 C250 1.379 . S
C256 C253 1.363 . S
C256 N254 1.356 . S
C257 C251 1.363 . S
C257 C252 1.379 . S
C257 N255 1.356 . S
N258 C250 1.356 . S
N258 H264 0.984 . S
N258 H265 0.984 . S
N259 C252 1.356 . S
N259 H262 0.984 . S
N259 H263 0.985 . S
H260 N255 0.984 . S
H261 N255 0.985 . S
H262 N259 0.984 . S
H263 N259 0.985 . S
H264 N258 0.984 . S
H265 N258 0.984 . S
H266 N254 0.984 . S
H267 N254 0.985 . S
C268 C269 1.363 . S
C268 C274 1.379 . S
C268 N276 1.356 . S
C269 C268 1.363 . S
C269 C275 1.363 . S
C270 C271 1.363 . S
C270 C275 1.379 . S
C270 N277 1.356 . S
C271 C270 1.363 . S
C271 C274 1.363 . S
N272 C274 1.356 . S
N272 H284 0.984 . S
N272 H285 0.985 . S
N273 C275 1.356 . S
N273 H278 0.984 . S
N273 H279 0.985 . S
C274 C268 1.379 . S
C274 C271 1.363 . S
C274 N272 1.356 . S
C275 C269 1.363 . S
C275 C270 1.379 . S
C275 N273 1.356 . S
N276 C268 1.356 . S
N276 H282 0.984 . S
N276 H283 0.984 . S
N277 C270 1.356 . S
N277 H280 0.984 . S
N277 H281 0.985 . S
H278 N273 0.984 . S
H279 N273 0.985 . S
H280 N277 0.984 . S
H281 N277 0.985 . S
H282 N276 0.984 . S
H283 N276 0.984 . S
H284 N272 0.984 . S
H285 N272 0.985 . S
C286 C287 1.363 . S
C286 C292 1.379 . S
C286 N294 1.356 . S
C287 C286 1.363 . S
C287 C293 1.363 . S
C288 C289 1.363 . S
C288 C293 1.379 . S
C288 N295 1.356 . S
C289 C288 1.363 . S
C289 C292 1.363 . S
N290 C292 1.356 . S
N290 H302 0.984 . S
N290 H303 0.985 . S
N291 C293 1.356 . S
N291 H296 0.984 . S
N291 H297 0.985 . S
C292 C286 1.379 . S
C292 C289 1.363 . S
C292 N290 1.356 . S
C293 C287 1.363 . S
C293 C288 1.379 . S
C293 N291 1.356 . S
N294 C286 1.356 . S
N294 H300 0.984 . S
N294 H301 0.984 . S
N295 C288 1.356 . S
N295 H298 0.984 . S
N295 H299 0.985 . S
H296 N291 0.984 . S
H297 N291 0.985 . S
H298 N295 0.984 . S
H299 N295 0.985 . S
H300 N294 0.984 . S
H301 N294 0.984 . S
H302 N290 0.984 . S
H303 N290 0.985 . S
C304 C305 1.363 . S
C304 C310 1.379 . S
C304 N312 1.356 . S
C305 C304 1.363 . S
C305 C311 1.363 . S
C306 C307 1.363 . S
C306 C311 1.379 . S
C306 N313 1.356 . S
C307 C306 1.363 . S
C307 C310 1.363 . S
N308 C310 1.356 . S
N308 H320 0.984 . S
N308 H321 0.985 . S
N309 C311 1.356 . S
N309 H314 0.984 . S
N309 H315 0.985 . S
C310 C304 1.379 . S
C310 C307 1.363 . S
C310 N308 1.356 . S
C311 C305 1.363 . S
C311 C306 1.379 . S
C311 N309 1.356 . S
N312 C304 1.356 . S
N312 H318 0.984 . S
N312 H319 0.984 . S
N313 C306 1.356 . S
N313 H316 0.984 . S
N313 H317 0.985 1_655 S
H314 N309 0.984 . S
H315 N309 0.985 . S
H316 N313 0.984 . S
H317 N313 0.985 1_455 S
H318 N312 0.984 . S
H319 N312 0.984 . S
H320 N308 0.984 . S
H321 N308 0.985 . S
C322 C323 1.363 . S
C322 C328 1.379 . S
C322 N330 1.356 . S
C323 C322 1.363 . S
C323 C329 1.363 . S
C324 C325 1.363 . S
C324 C329 1.379 . S
C324 N331 1.356 . S
C325 C324 1.363 . S
C325 C328 1.363 . S
N326 C328 1.356 . S
N326 H338 0.984 . S
N326 H339 0.985 . S
N327 C329 1.356 . S
N327 H332 0.984 . S
N327 H333 0.985 . S
C328 C322 1.379 . S
C328 C325 1.363 . S
C328 N326 1.356 . S
C329 C323 1.363 . S
C329 C324 1.379 . S
C329 N327 1.356 . S
N330 C322 1.356 . S
N330 H336 0.984 . S
N330 H337 0.984 . S
N331 C324 1.356 . S
N331 H334 0.984 . S
N331 H335 0.985 . S
H332 N327 0.984 . S
H333 N327 0.985 . S
H334 N331 0.984 . S
H335 N331 0.985 . S
H336 N330 0.984 . S
H337 N330 0.984 . S
H338 N326 0.984 . S
H339 N326 0.985 . S
C340 C341 1.363 . S
C340 C346 1.379 . S
C340 N348 1.356 . S
C341 C340 1.363 . S
C341 C347 1.363 . S
C342 C343 1.363 . S
C342 C347 1.379 . S
C342 N349 1.356 . S
C343 C342 1.363 . S
C343 C346 1.363 . S
N344 C346 1.356 . S
N344 H356 0.984 . S
N344 H357 0.985 . S
N345 C347 1.356 . S
N345 H350 0.984 . S
N345 H351 0.985 . S
C346 C340 1.379 . S
C346 C343 1.363 . S
C346 N344 1.356 . S
C347 C341 1.363 . S
C347 C342 1.379 . S
C347 N345 1.356 . S
N348 C340 1.356 . S
N348 H354 0.984 . S
N348 H355 0.984 . S
N349 C342 1.356 . S
N349 H352 0.984 . S
N349 H353 0.985 . S
H350 N345 0.984 . S
H351 N345 0.985 . S
H352 N349 0.984 . S
H353 N349 0.985 . S
H354 N348 0.984 . S
H355 N348 0.984 . S
H356 N344 0.984 . S
H357 N344 0.985 . S
C358 C359 1.363 . S
C358 C364 1.379 . S
C358 N366 1.356 . S
C359 C358 1.363 . S
C359 C365 1.363 . S
C360 C361 1.363 . S
C360 C365 1.379 . S
C360 N367 1.356 . S
C361 C360 1.363 . S
C361 C364 1.363 . S
N362 C364 1.356 . S
N362 H374 0.984 . S
N362 H375 0.985 . S
N363 C365 1.356 . S
N363 H368 0.984 . S
N363 H369 0.985 . S
C364 C358 1.379 . S
C364 C361 1.363 . S
C364 N362 1.356 . S
C365 C359 1.363 . S
C365 C360 1.379 . S
C365 N363 1.356 . S
N366 C358 1.356 . S
N366 H372 0.984 . S
N366 H373 0.984 . S
N367 C360 1.356 . S
N367 H370 0.984 . S
N367 H371 0.985 . S
H368 N363 0.984 . S
H369 N363 0.985 . S
H370 N367 0.984 . S
H371 N367 0.985 . S
H372 N366 0.984 . S
H373 N366 0.984 . S
H374 N362 0.984 . S
H375 N362 0.985 . S
C376 C377 1.363 . S
C376 C382 1.379 . S
C376 N384 1.356 . S
C377 C376 1.363 . S
C377 C383 1.363 . S
C378 C379 1.363 . S
C378 C383 1.379 . S
C378 N385 1.356 . S
C379 C378 1.363 . S
C379 C382 1.363 . S
N380 C382 1.356 . S
N380 H392 0.984 . S
N380 H393 0.985 . S
N381 C383 1.356 . S
N381 H386 0.984 . S
N381 H387 0.985 . S
C382 C376 1.379 . S
C382 C379 1.363 . S
C382 N380 1.356 . S
C383 C377 1.363 . S
C383 C378 1.379 . S
C383 N381 1.356 . S
N384 C376 1.356 . S
N384 H390 0.984 . S
N384 H391 0.984 . S
N385 C378 1.356 . S
N385 H388 0.984 . S
N385 H389 0.985 . S
H386 N381 0.984 . S
H387 N381 0.985 . S
H388 N385 0.984 . S
H389 N385 0.985 . S
H390 N384 0.984 . S
H391 N384 0.984 . S
H392 N380 0.984 . S
H393 N380 0.985 . S
C394 C395 1.363 . S
C394 C400 1.379 . S
C394 N402 1.356 . S
C395 C394 1.363 . S
C395 C401 1.363 . S
C396 C397 1.363 . S
C396 C401 1.379 . S
C396 N403 1.356 . S
C397 C396 1.363 . S
C397 C400 1.363 . S
N398 C400 1.356 . S
N398 H410 0.970 1_565 S
N398 H411 0.985 . S
N399 C401 1.356 . S
N399 H404 0.984 . S
N399 H405 0.985 . S
C400 C394 1.379 . S
C400 C397 1.363 . S
C400 N398 1.356 . S
C401 C395 1.363 . S
C401 C396 1.379 . S
C401 N399 1.356 . S
N402 C394 1.356 . S
N402 H408 0.984 . S
N402 H409 0.984 . S
N403 C396 1.356 . S
N403 H406 0.984 . S
N403 H407 0.985 . S
H404 N399 0.984 . S
H405 N399 0.985 . S
H406 N403 0.984 . S
H407 N403 0.985 . S
H408 N402 0.984 . S
H409 N402 0.984 . S
H410 N398 0.970 1_545 S
H411 N398 0.985 . S
C412 C413 1.363 . S
C412 C418 1.379 . S
C412 N420 1.356 . S
C413 C412 1.363 . S
C413 C419 1.363 . S
C414 C415 1.363 . S
C414 C419 1.379 . S
C414 N421 1.356 . S
C415 C414 1.363 . S
C415 C418 1.363 . S
N416 C418 1.356 . S
N416 H428 0.984 . S
N416 H429 0.985 . S
N417 C419 1.356 . S
N417 H422 0.984 . S
N417 H423 0.985 . S
C418 C412 1.379 . S
C418 C415 1.363 . S
C418 N416 1.356 . S
C419 C413 1.363 . S
C419 C414 1.379 . S
C419 N417 1.356 . S
N420 C412 1.356 . S
N420 H426 0.984 . S
N420 H427 0.984 . S
N421 C414 1.356 . S
N421 H424 0.984 . S
N421 H425 0.985 . S
H422 N417 0.984 . S
H423 N417 0.985 . S
H424 N421 0.984 . S
H425 N421 0.985 . S
H426 N420 0.984 . S
H427 N420 0.984 . S
H428 N416 0.984 . S
H429 N416 0.985 . S
C430 C431 1.363 . S
C430 C436 1.379 . S
C430 N438 1.356 . S
C431 C430 1.363 . S
C431 C437 1.363 . S
C432 C433 1.363 . S
C432 C437 1.379 . S
C432 N439 1.356 . S
C433 C432 1.363 . S
C433 C436 1.363 . S
N434 C436 1.356 . S
N434 H446 0.984 1_545 S
N434 H447 0.985 . S
N435 C437 1.356 . S
N435 H440 0.984 . S
N435 H441 0.985 . S
C436 C430 1.379 . S
C436 C433 1.363 . S
C436 N434 1.356 . S
C437 C431 1.363 . S
C437 C432 1.379 . S
C437 N435 1.356 . S
N438 C430 1.356 . S
N438 H444 0.984 . S
N438 H445 0.984 . S
N439 C432 1.356 . S
N439 H442 0.984 . S
N439 H443 0.985 . S
H440 N435 0.984 . S
H441 N435 0.985 . S
H442 N439 0.984 . S
H443 N439 0.985 . S
H444 N438 0.984 . S
H445 N438 0.984 . S
H446 N434 0.984 1_565 S
H447 N434 0.985 . S
C448 C449 1.362 1_556 S
C448 C454 1.379 . S
C448 N456 1.356 . S
C449 C448 1.362 1_554 S
C449 C455 1.364 . S
C450 C451 1.364 . S
C450 C455 1.379 . S
C450 N457 1.356 . S
C451 C450 1.364 . S
C451 C454 1.362 1_554 S
N452 C454 1.356 . S
N452 H464 0.984 . S
N452 H465 0.985 . S
N453 C455 1.356 . S
N453 H458 0.984 . S
N453 H459 0.985 . S
C454 C448 1.379 . S
C454 C451 1.362 1_556 S
C454 N452 1.356 . S
C455 C449 1.364 . S
C455 C450 1.379 . S
C455 N453 1.356 . S
N456 C448 1.356 . S
N456 H462 0.984 . S
N456 H463 0.984 . S
N457 C450 1.356 . S
N457 H460 0.984 . S
N457 H461 0.985 . S
H458 N453 0.984 . S
H459 N453 0.985 . S
H460 N457 0.984 . S
H461 N457 0.985 . S
H462 N456 0.984 . S
H463 N456 0.984 . S
H464 N452 0.984 . S
H465 N452 0.985 . S
C466 C467 1.363 . S
C466 C472 1.379 . S
C466 N474 1.356 . S
C467 C466 1.363 . S
C467 C473 1.363 . S
C468 C469 1.363 . S
C468 C473 1.379 . S
C468 N475 1.356 . S
C469 C468 1.363 . S
C469 C472 1.363 . S
N470 C472 1.356 . S
N470 H482 0.984 . S
N470 H483 0.985 . S
N471 C473 1.356 . S
N471 H476 0.984 . S
N471 H477 0.985 . S
C472 C466 1.379 . S
C472 C469 1.363 . S
C472 N470 1.356 . S
C473 C467 1.363 . S
C473 C468 1.379 . S
C473 N471 1.356 . S
N474 C466 1.356 . S
N474 H480 0.984 . S
N474 H481 0.984 . S
N475 C468 1.356 . S
N475 H478 0.984 . S
N475 H479 0.985 . S
H476 N471 0.984 . S
H477 N471 0.985 . S
H478 N475 0.984 . S
H479 N475 0.985 . S
H480 N474 0.984 . S
H481 N474 0.984 . S
H482 N470 0.984 . S
H483 N470 0.985 . S
C484 C485 1.360 1_556 S
C484 C490 1.379 . S
C484 N492 1.356 . S
C485 C484 1.360 1_554 S
C485 C491 1.366 . S
C486 C487 1.366 . S
C486 C491 1.379 . S
C486 N493 1.356 . S
C487 C486 1.366 . S
C487 C490 1.360 1_554 S
N488 C490 1.356 . S
N488 H500 0.984 . S
N488 H501 0.985 . S
N489 C491 1.356 . S
N489 H494 0.984 . S
N489 H495 0.985 . S
C490 C484 1.379 . S
C490 C487 1.360 1_556 S
C490 N488 1.356 . S
C491 C485 1.366 . S
C491 C486 1.379 . S
C491 N489 1.356 . S
N492 C484 1.356 . S
N492 H498 0.984 . S
N492 H499 0.984 . S
N493 C486 1.356 . S
N493 H496 0.984 . S
N493 H497 0.985 . S
H494 N489 0.984 . S
H495 N489 0.985 . S
H496 N493 0.984 . S
H497 N493 0.985 . S
H498 N492 0.984 . S
H499 N492 0.984 . S
H500 N488 0.984 . S
H501 N488 0.985 . S
C502 C503 1.363 . S
C502 C508 1.379 . S
C502 N510 1.356 . S
C503 C502 1.363 . S
C503 C509 1.363 . S
C504 C505 1.363 . S
C504 C509 1.379 . S
C504 N511 1.356 . S
C505 C504 1.363 . S
C505 C508 1.363 . S
N506 C508 1.356 . S
N506 H518 0.984 . S
N506 H519 0.985 . S
N507 C509 1.356 . S
N507 H512 0.984 . S
N507 H513 0.985 . S
C508 C502 1.379 . S
C508 C505 1.363 . S
C508 N506 1.356 . S
C509 C503 1.363 . S
C509 C504 1.379 . S
C509 N507 1.356 . S
N510 C502 1.356 . S
N510 H516 0.984 . S
N510 H517 0.984 . S
N511 C504 1.356 . S
N511 H514 0.984 . S
N511 H515 0.985 . S
H512 N507 0.984 . S
H513 N507 0.985 . S
H514 N511 0.984 . S
H515 N511 0.985 . S
H516 N510 0.984 . S
H517 N510 0.984 . S
H518 N506 0.984 . S
H519 N506 0.985 . S
C520 C521 1.363 . S
C520 C526 1.379 . S
C520 N528 1.356 . S
C521 C520 1.363 . S
C521 C527 1.363 . S
C522 C523 1.363 . S
C522 C527 1.379 . S
C522 N529 1.356 . S
C523 C522 1.363 . S
C523 C526 1.363 . S
N524 C526 1.356 . S
N524 H536 0.984 . S
N524 H537 0.985 . S
N525 C527 1.356 . S
N525 H530 0.984 . S
N525 H531 0.985 . S
C526 C520 1.379 . S
C526 C523 1.363 . S
C526 N524 1.356 . S
C527 C521 1.363 . S
C527 C522 1.379 . S
C527 N525 1.356 . S
N528 C520 1.356 . S
N528 H534 0.984 . S
N528 H535 0.984 . S
N529 C522 1.356 . S
N529 H532 0.984 . S
N529 H533 0.985 . S
H530 N525 0.984 . S
H531 N525 0.985 . S
H532 N529 0.984 . S
H533 N529 0.985 . S
H534 N528 0.984 . S
H535 N528 0.984 . S
H536 N524 0.984 . S
H537 N524 0.985 . S
C538 C539 1.366 . S
C538 C544 1.379 . S
C538 N546 1.356 . S
C539 C538 1.366 . S
C539 C545 1.360 1_554 S
C540 C541 1.360 1_556 S
C540 C545 1.379 . S
C540 N547 1.356 . S
C541 C540 1.360 1_554 S
C541 C544 1.366 . S
N542 C544 1.356 . S
N542 H554 0.984 . S
N542 H555 0.985 . S
N543 C545 1.356 . S
N543 H548 0.984 . S
N543 H549 0.985 . S
C544 C538 1.379 . S
C544 C541 1.366 . S
C544 N542 1.356 . S
C545 C539 1.360 1_556 S
C545 C540 1.379 . S
C545 N543 1.356 . S
N546 C538 1.356 . S
N546 H552 0.984 . S
N546 H553 0.984 . S
N547 C540 1.356 . S
N547 H550 0.984 . S
N547 H551 0.985 . S
H548 N543 0.984 . S
H549 N543 0.985 . S
H550 N547 0.984 . S
H551 N547 0.985 . S
H552 N546 0.984 . S
H553 N546 0.984 . S
H554 N542 0.984 . S
H555 N542 0.985 . S
C556 C557 1.363 . S
C556 C562 1.379 . S
C556 N564 1.356 . S
C557 C556 1.363 . S
C557 C563 1.363 . S
C558 C559 1.363 . S
C558 C563 1.379 . S
C558 N565 1.356 . S
C559 C558 1.363 . S
C559 C562 1.363 . S
N560 C562 1.356 . S
N560 H572 0.984 . S
N560 H573 0.985 . S
N561 C563 1.356 . S
N561 H566 0.984 . S
N561 H567 0.985 . S
C562 C556 1.379 . S
C562 C559 1.363 . S
C562 N560 1.356 . S
C563 C557 1.363 . S
C563 C558 1.379 . S
C563 N561 1.356 . S
N564 C556 1.356 . S
N564 H570 0.984 . S
N564 H571 0.984 . S
N565 C558 1.356 . S
N565 H568 0.984 . S
N565 H569 0.985 . S
H566 N561 0.984 . S
H567 N561 0.985 . S
H568 N565 0.984 . S
H569 N565 0.985 . S
H570 N564 0.984 . S
H571 N564 0.984 . S
H572 N560 0.984 . S
H573 N560 0.985 . S
C574 C575 1.362 1_556 S
C574 C580 1.379 . S
C574 N582 1.356 . S
C575 C574 1.362 1_554 S
C575 C581 1.364 . S
C576 C577 1.364 . S
C576 C581 1.379 . S
C576 N583 1.356 . S
C577 C576 1.364 . S
C577 C580 1.362 1_554 S
N578 C580 1.356 . S
N578 H590 0.984 . S
N578 H591 0.985 . S
N579 C581 1.356 . S
N579 H584 0.984 . S
N579 H585 0.985 . S
C580 C574 1.379 . S
C580 C577 1.362 1_556 S
C580 N578 1.356 . S
C581 C575 1.364 . S
C581 C576 1.379 . S
C581 N579 1.356 . S
N582 C574 1.356 . S
N582 H588 0.984 . S
N582 H589 0.984 . S
N583 C576 1.356 . S
N583 H586 0.984 . S
N583 H587 0.985 . S
H584 N579 0.984 . S
H585 N579 0.985 . S
H586 N583 0.984 . S
H587 N583 0.985 . S
H588 N582 0.984 . S
H589 N582 0.984 . S
H590 N578 0.984 . S
H591 N578 0.985 . S
C161 C5 1.447 . S
C163 C119 1.466 . S
C179 C31 1.448 . S
C181 C93 1.470 . S
C199 C102 1.469 . S
C197 C53 1.447 . S
C215 C71 1.447 . S
C217 C110 1.466 . S
C235 C138 1.470 . S
C233 C75 1.448 . S
C253 C146 1.466 . S
C251 C9 1.447 . S
C271 C155 1.466 . S
C269 C27 1.447 . S
C289 C129 1.469 . S
C287 C49 1.447 . S
C305 C51 1.447 . S
C307 C101 1.468 . S
C323 C72 1.448 . S
C325 C111 1.466 . S
C341 C6 1.447 . S
C343 C120 1.466 . S
C361 C92 1.468 . S
C359 C29 1.447 . S
C377 C28 1.448 . S
C379 C156 1.466 . S
C397 C128 1.468 . S
C395 C50 1.447 . S
C415 C137 1.468 . S
C413 C73 1.447 . S
C431 C7 1.447 . S
C433 C147 1.466 . S
C451 C95 1.490 1_554 S
C449 C4 1.488 . S
C469 C104 1.490 . S
C467 C30 1.488 . S
C485 C52 1.488 . S
C487 C113 1.487 . S
C503 C70 1.488 . S
C505 C122 1.487 . S
C523 C131 1.490 . S
C521 C74 1.488 . S
C539 C8 1.488 . S
C541 C140 1.491 . S
C557 C26 1.488 . S
C559 C149 1.487 . S
C575 C48 1.488 . S
C577 C158 1.487 1_554 S
