# Generated by pormake.
# Topology ptr, (4,4)-cn, num edge types: 1
# Building blocks:
#     Node 0, Type 0, BuildingBlock: AZAVOO_clean_sbu_0, # of connection points: 4
#     Node 1, Type 0, BuildingBlock: AZAVOO_clean_sbu_0, # of connection points: 4
#     Node 2, Type 0, BuildingBlock: AZAVOO_clean_sbu_0, # of connection points: 4
#     Node 3, Type 0, BuildingBlock: AZAVOO_clean_sbu_0, # of connection points: 4
#     Node 4, Type 0, BuildingBlock: AZAVOO_clean_sbu_0, # of connection points: 4
#     Node 5, Type 0, BuildingBlock: AZAVOO_clean_sbu_0, # of connection points: 4
#     Node 6, Type 0, BuildingBlock: AZAVOO_clean_sbu_0, # of connection points: 4
#     Node 7, Type 0, BuildingBlock: AZAVOO_clean_sbu_0, # of connection points: 4
#     Node 8, Type 0, BuildingBlock: AZAVOO_clean_sbu_0, # of connection points: 4
#     Node 9, Type 0, BuildingBlock: AZAVOO_clean_sbu_0, # of connection points: 4
#     Node 10, Type 0, BuildingBlock: AZAVOO_clean_sbu_0, # of connection points: 4
#     Node 11, Type 0, BuildingBlock: AZAVOO_clean_sbu_0, # of connection points: 4
#     Node 12, Type 0, BuildingBlock: AZAVOO_clean_sbu_0, # of connection points: 4
#     Node 13, Type 0, BuildingBlock: AZAVOO_clean_sbu_0, # of connection points: 4
#     Node 14, Type 0, BuildingBlock: AZAVOO_clean_sbu_0, # of connection points: 4
#     Node 15, Type 0, BuildingBlock: AZAVOO_clean_sbu_0, # of connection points: 4
#     Node 16, Type 0, BuildingBlock: AZAVOO_clean_sbu_0, # of connection points: 4
#     Node 17, Type 0, BuildingBlock: AZAVOO_clean_sbu_0, # of connection points: 4
#     Node 18, Type 1, BuildingBlock: KUFVIS_clean_linker_0, # of connection points: 4
#     Node 19, Type 1, BuildingBlock: KUFVIS_clean_linker_0, # of connection points: 4
#     Node 20, Type 1, BuildingBlock: KUFVIS_clean_linker_0, # of connection points: 4
#     Node 21, Type 1, BuildingBlock: KUFVIS_clean_linker_0, # of connection points: 4
#     Node 22, Type 1, BuildingBlock: KUFVIS_clean_linker_0, # of connection points: 4
#     Node 23, Type 1, BuildingBlock: KUFVIS_clean_linker_0, # of connection points: 4
#     Node 24, Type 1, BuildingBlock: KUFVIS_clean_linker_0, # of connection points: 4
#     Node 25, Type 1, BuildingBlock: KUFVIS_clean_linker_0, # of connection points: 4
#     Node 26, Type 1, BuildingBlock: KUFVIS_clean_linker_0, # of connection points: 4
#     Node 27, Type 1, BuildingBlock: KUFVIS_clean_linker_0, # of connection points: 4
#     Node 28, Type 1, BuildingBlock: KUFVIS_clean_linker_0, # of connection points: 4
#     Node 29, Type 1, BuildingBlock: KUFVIS_clean_linker_0, # of connection points: 4
#     Node 30, Type 1, BuildingBlock: KUFVIS_clean_linker_0, # of connection points: 4
#     Node 31, Type 1, BuildingBlock: KUFVIS_clean_linker_0, # of connection points: 4
#     Node 32, Type 1, BuildingBlock: KUFVIS_clean_linker_0, # of connection points: 4
#     Node 33, Type 1, BuildingBlock: KUFVIS_clean_linker_0, # of connection points: 4
#     Node 34, Type 1, BuildingBlock: KUFVIS_clean_linker_0, # of connection points: 4
#     Node 35, Type 1, BuildingBlock: KUFVIS_clean_linker_0, # of connection points: 4
#     Edge 36, Type (0, 1), BuildingBlock: FUNLAD_clean_linker_1, # of connection points: 2
#     Edge 37, Type (0, 1), BuildingBlock: FUNLAD_clean_linker_1, # of connection points: 2
#     Edge 38, Type (0, 1), BuildingBlock: FUNLAD_clean_linker_1, # of connection points: 2
#     Edge 39, Type (0, 1), BuildingBlock: FUNLAD_clean_linker_1, # of connection points: 2
#     Edge 40, Type (0, 1), BuildingBlock: FUNLAD_clean_linker_1, # of connection points: 2
#     Edge 41, Type (0, 1), BuildingBlock: FUNLAD_clean_linker_1, # of connection points: 2
#     Edge 42, Type (0, 1), BuildingBlock: FUNLAD_clean_linker_1, # of connection points: 2
#     Edge 43, Type (0, 1), BuildingBlock: FUNLAD_clean_linker_1, # of connection points: 2
#     Edge 44, Type (0, 1), BuildingBlock: FUNLAD_clean_linker_1, # of connection points: 2
#     Edge 45, Type (0, 1), BuildingBlock: FUNLAD_clean_linker_1, # of connection points: 2
#     Edge 46, Type (0, 1), BuildingBlock: FUNLAD_clean_linker_1, # of connection points: 2
#     Edge 47, Type (0, 1), BuildingBlock: FUNLAD_clean_linker_1, # of connection points: 2
#     Edge 48, Type (0, 1), BuildingBlock: FUNLAD_clean_linker_1, # of connection points: 2
#     Edge 49, Type (0, 1), BuildingBlock: FUNLAD_clean_linker_1, # of connection points: 2
#     Edge 50, Type (0, 1), BuildingBlock: FUNLAD_clean_linker_1, # of connection points: 2
#     Edge 51, Type (0, 1), BuildingBlock: FUNLAD_clean_linker_1, # of connection points: 2
#     Edge 52, Type (0, 1), BuildingBlock: FUNLAD_clean_linker_1, # of connection points: 2
#     Edge 53, Type (0, 1), BuildingBlock: FUNLAD_clean_linker_1, # of connection points: 2
#     Edge 54, Type (0, 1), BuildingBlock: FUNLAD_clean_linker_1, # of connection points: 2
#     Edge 55, Type (0, 1), BuildingBlock: FUNLAD_clean_linker_1, # of connection points: 2
#     Edge 56, Type (0, 1), BuildingBlock: FUNLAD_clean_linker_1, # of connection points: 2
#     Edge 57, Type (0, 1), BuildingBlock: FUNLAD_clean_linker_1, # of connection points: 2
#     Edge 58, Type (0, 1), BuildingBlock: FUNLAD_clean_linker_1, # of connection points: 2
#     Edge 59, Type (0, 1), BuildingBlock: FUNLAD_clean_linker_1, # of connection points: 2
#     Edge 60, Type (0, 1), BuildingBlock: FUNLAD_clean_linker_1, # of connection points: 2
#     Edge 61, Type (0, 1), BuildingBlock: FUNLAD_clean_linker_1, # of connection points: 2
#     Edge 62, Type (0, 1), BuildingBlock: FUNLAD_clean_linker_1, # of connection points: 2
#     Edge 63, Type (0, 1), BuildingBlock: FUNLAD_clean_linker_1, # of connection points: 2
#     Edge 64, Type (0, 1), BuildingBlock: FUNLAD_clean_linker_1, # of connection points: 2
#     Edge 65, Type (0, 1), BuildingBlock: FUNLAD_clean_linker_1, # of connection points: 2
#     Edge 66, Type (0, 1), BuildingBlock: FUNLAD_clean_linker_1, # of connection points: 2
#     Edge 67, Type (0, 1), BuildingBlock: FUNLAD_clean_linker_1, # of connection points: 2
#     Edge 68, Type (0, 1), BuildingBlock: FUNLAD_clean_linker_1, # of connection points: 2
#     Edge 69, Type (0, 1), BuildingBlock: FUNLAD_clean_linker_1, # of connection points: 2
#     Edge 70, Type (0, 1), BuildingBlock: FUNLAD_clean_linker_1, # of connection points: 2
#     Edge 71, Type (0, 1), BuildingBlock: FUNLAD_clean_linker_1, # of connection points: 2
#     Edge 72, Type (0, 1), BuildingBlock: FUNLAD_clean_linker_1, # of connection points: 2
#     Edge 73, Type (0, 1), BuildingBlock: FUNLAD_clean_linker_1, # of connection points: 2
#     Edge 74, Type (0, 1), BuildingBlock: FUNLAD_clean_linker_1, # of connection points: 2
#     Edge 75, Type (0, 1), BuildingBlock: FUNLAD_clean_linker_1, # of connection points: 2
#     Edge 76, Type (0, 1), BuildingBlock: FUNLAD_clean_linker_1, # of connection points: 2
#     Edge 77, Type (0, 1), BuildingBlock: FUNLAD_clean_linker_1, # of connection points: 2
#     Edge 78, Type (0, 1), BuildingBlock: FUNLAD_clean_linker_1, # of connection points: 2
#     Edge 79, Type (0, 1), BuildingBlock: FUNLAD_clean_linker_1, # of connection points: 2
#     Edge 80, Type (0, 1), BuildingBlock: FUNLAD_clean_linker_1, # of connection points: 2
#     Edge 81, Type (0, 1), BuildingBlock: FUNLAD_clean_linker_1, # of connection points: 2
#     Edge 82, Type (0, 1), BuildingBlock: FUNLAD_clean_linker_1, # of connection points: 2
#     Edge 83, Type (0, 1), BuildingBlock: FUNLAD_clean_linker_1, # of connection points: 2
#     Edge 84, Type (0, 1), BuildingBlock: FUNLAD_clean_linker_1, # of connection points: 2
#     Edge 85, Type (0, 1), BuildingBlock: FUNLAD_clean_linker_1, # of connection points: 2
#     Edge 86, Type (0, 1), BuildingBlock: FUNLAD_clean_linker_1, # of connection points: 2
#     Edge 87, Type (0, 1), BuildingBlock: FUNLAD_clean_linker_1, # of connection points: 2
#     Edge 88, Type (0, 1), BuildingBlock: FUNLAD_clean_linker_1, # of connection points: 2
#     Edge 89, Type (0, 1), BuildingBlock: FUNLAD_clean_linker_1, # of connection points: 2
#     Edge 90, Type (0, 1), BuildingBlock: FUNLAD_clean_linker_1, # of connection points: 2
#     Edge 91, Type (0, 1), BuildingBlock: FUNLAD_clean_linker_1, # of connection points: 2
#     Edge 92, Type (0, 1), BuildingBlock: FUNLAD_clean_linker_1, # of connection points: 2
#     Edge 93, Type (0, 1), BuildingBlock: FUNLAD_clean_linker_1, # of connection points: 2
#     Edge 94, Type (0, 1), BuildingBlock: FUNLAD_clean_linker_1, # of connection points: 2
#     Edge 95, Type (0, 1), BuildingBlock: FUNLAD_clean_linker_1, # of connection points: 2
#     Edge 96, Type (0, 1), BuildingBlock: FUNLAD_clean_linker_1, # of connection points: 2
#     Edge 97, Type (0, 1), BuildingBlock: FUNLAD_clean_linker_1, # of connection points: 2
#     Edge 98, Type (0, 1), BuildingBlock: FUNLAD_clean_linker_1, # of connection points: 2
#     Edge 99, Type (0, 1), BuildingBlock: FUNLAD_clean_linker_1, # of connection points: 2
#     Edge 100, Type (0, 1), BuildingBlock: FUNLAD_clean_linker_1, # of connection points: 2
#     Edge 101, Type (0, 1), BuildingBlock: FUNLAD_clean_linker_1, # of connection points: 2
#     Edge 102, Type (0, 1), BuildingBlock: FUNLAD_clean_linker_1, # of connection points: 2
#     Edge 103, Type (0, 1), BuildingBlock: FUNLAD_clean_linker_1, # of connection points: 2
#     Edge 104, Type (0, 1), BuildingBlock: FUNLAD_clean_linker_1, # of connection points: 2
#     Edge 105, Type (0, 1), BuildingBlock: FUNLAD_clean_linker_1, # of connection points: 2
#     Edge 106, Type (0, 1), BuildingBlock: FUNLAD_clean_linker_1, # of connection points: 2
#     Edge 107, Type (0, 1), BuildingBlock: FUNLAD_clean_linker_1, # of connection points: 2
# Relax obj value: 0.078
# Max RMSD: 0.240
# Mean RMSD: 0.131
data_MOF--net-ptr--node1-AZAVOO_clean_sbu_0--node2-KUFVIS_clean_linker_0--edge1-FUNLAD_clean_linker_1
_symmetry_space_group_name_H-M    P1
_symmetry_Int_Tables_number       1
_symmetry_cell_setting            triclinic
loop_
_symmetry_equiv_pos_as_xyz
'x, y, z'
_cell_length_a     83.380824
_cell_length_b     82.321603
_cell_length_c     48.229938
_cell_angle_alpha  91.081371
_cell_angle_beta   91.305889
_cell_angle_gamma 119.91895
loop_
_atom_site_label
_atom_site_type_symbol
_atom_site_fract_x
_atom_site_fract_y
_atom_site_fract_z
_atom_type_partial_charge
Mg0 Mg 0.0187 0.35748 0.96022 0.0
O1 O 0.01463 0.37306 0.99734 0.0
O2 O 0.99111 0.37772 0.98558 0.0
Mg3 Mg 0.97966 0.36476 0.94254 0.0
C4 C 1.00393 0.3796 0.0026 0.0
C5 C 0.05425 0.35627 0.97909 0.0
O6 O 0.05978 0.36515 0.95581 0.0
O7 O 0.99289 0.3298 0.97079 0.0
O8 O 0.96991 0.33516 0.95879 0.0
O9 O 0.03775 0.38503 0.94173 0.0
O10 O 0.00738 0.36939 0.93407 0.0
C11 C 0.97567 0.32449 0.96825 0.0
C12 C 0.02306 0.38442 0.9312 0.0
O13 O 0.03793 0.35103 0.98682 0.0
Mg14 Mg 0.65672 0.65462 0.0567 0.0
O15 O 0.63937 0.63989 0.01653 0.0
O16 O 0.61001 0.63165 0.02487 0.0
Mg17 Mg 0.60871 0.64215 0.06836 0.0
C18 C 0.62223 0.63196 0.00907 0.0
C19 C 0.69716 0.66591 0.05045 0.0
O20 O 0.69465 0.66322 0.07711 0.0
O21 O 0.65634 0.68169 0.04767 0.0
O22 O 0.62693 0.67299 0.05641 0.0
O23 O 0.65004 0.62664 0.07189 0.0
O24 O 0.63316 0.64002 0.07988 0.0
C25 C 0.64316 0.68531 0.04957 0.0
C26 C 0.63518 0.62555 0.0815 0.0
O27 O 0.68381 0.66409 0.03482 0.0
Mg28 Mg 0.35453 0.98274 0.97166 0.0
O29 O 0.37303 0.99122 0.01179 0.0
O30 O 0.40038 0.0159 0.00181 0.0
Mg31 Mg 0.39928 0.02377 0.95719 0.0
C32 C 0.3897 0.0037 0.01861 0.0
C33 C 0.31351 0.9548 0.98018 0.0
O34 O 0.31355 0.9586 0.95386 0.0
O35 O 0.34959 0.00749 0.9778 0.0
O36 O 0.37715 0.03162 0.96763 0.0
O37 O 0.3655 0.96425 0.95792 0.0
O38 O 0.37824 0.99428 0.94843 0.0
C39 C 0.3604 0.02499 0.97475 0.0
C40 C 0.37893 0.97898 0.94747 0.0
O41 O 0.32859 0.96312 0.99462 0.0
Mg42 Mg 0.98754 0.64708 0.05582 0.0
O43 O 0.99164 0.6334 0.01659 0.0
O44 O 0.01571 0.629 0.02475 0.0
Mg45 Mg 0.0281 0.64136 0.0679 0.0
C46 C 1.00234 0.62731 0.00916 0.0
C47 C 0.95132 0.64863 0.04022 0.0
O48 O 0.94652 0.64084 0.06441 0.0
O49 O 0.01234 0.67592 0.04646 0.0
O50 O 0.03621 0.67124 0.0548 0.0
O51 O 0.9703 0.61829 0.07246 0.0
O52 O 1.00057 0.63583 0.07982 0.0
C53 C 0.02973 0.68181 0.04778 0.0
C54 C 0.98568 0.62 0.08225 0.0
O55 O 0.96713 0.65292 0.0312 0.0
Mg56 Mg 0.35854 0.35908 0.9662 0.0
O57 O 0.38145 0.37385 0.00033 0.0
O58 O 0.40726 0.37577 0.98396 0.0
Mg59 Mg 0.40116 0.36324 0.9397 0.0
C60 C 0.39861 0.37883 0.00298 0.0
C61 C 0.33666 0.3679 0.0095 0.0
O62 O 0.35107 0.38472 0.00729 0.0
O63 O 0.35628 0.33084 0.97489 0.0
O64 O 0.38175 0.33375 0.95582 0.0
O65 O 0.36638 0.3869 0.94936 0.0
O66 O 0.37843 0.36944 0.93627 0.0
C67 C 0.36658 0.32412 0.96819 0.0
C68 C 0.37845 0.38507 0.93525 0.0
O69 O 0.33601 0.35408 0.99626 0.0
Mg70 Mg 0.65167 0.01949 0.04941 0.0
O71 O 0.63186 0.01124 0.01099 0.0
O72 O 0.6058 0.98503 0.0211 0.0
Mg73 Mg 0.60853 0.9769 0.06519 0.0
C74 C 0.6154 0.99807 0.00463 0.0
C75 C 0.69245 0.04447 0.0346 0.0
O76 O 0.69388 0.03646 0.05707 0.0
O77 O 0.65752 0.99556 0.04012 0.0
O78 O 0.63134 0.97052 0.05274 0.0
O79 O 0.63953 0.03637 0.0658 0.0
O80 O 0.62897 0.00651 0.07458 0.0
C81 C 0.64779 0.97798 0.04396 0.0
C82 C 0.6271 0.0211 0.07658 0.0
O83 O 0.67644 0.04013 0.02487 0.0
Mg84 Mg 0.6722 0.68574 0.30661 0.0
O85 O 0.66577 0.69996 0.34313 0.0
O86 O 0.64339 0.7055 0.32806 0.0
Mg87 Mg 0.63495 0.6945 0.28339 0.0
C88 C 0.65482 0.70639 0.34694 0.0
C89 C 0.70606 0.68284 0.3263 0.0
O90 O 0.71108 0.69085 0.30228 0.0
O91 O 0.64556 0.65759 0.31294 0.0
O92 O 0.62414 0.66447 0.29762 0.0
O93 O 0.69225 0.71422 0.29185 0.0
O94 O 0.66264 0.69826 0.27865 0.0
C95 C 0.62869 0.65299 0.30749 0.0
C96 C 0.6783 0.71355 0.27844 0.0
O97 O 0.69014 0.67852 0.3349 0.0
Mg98 Mg 0.31183 0.98533 0.36752 0.0
O99 O 0.29072 0.97079 0.33051 0.0
O100 O 0.2637 0.96717 0.3446 0.0
Mg101 Mg 0.26701 0.97856 0.38896 0.0
C102 C 0.27346 0.96512 0.32638 0.0
C103 C 0.35254 0.00346 0.3519 0.0
O104 O 0.35364 0.01264 0.37508 0.0
O105 O 0.31388 0.01379 0.35991 0.0
O106 O 0.28653 0.00846 0.37503 0.0
O107 O 0.30379 0.95717 0.38319 0.0
O108 O 0.29026 0.9735 0.39473 0.0
C109 C 0.30234 0.01929 0.3652 0.0
C110 C 0.29071 0.95812 0.39573 0.0
O111 O 0.33667 0.99165 0.34141 0.0
Mg112 Mg 0.025 0.31509 0.30452 0.0
O113 O 0.04741 0.32669 0.34019 0.0
O114 O 0.07386 0.34772 0.32136 0.0
Mg115 Mg 0.06856 0.34993 0.27551 0.0
C116 C 0.06479 0.33856 0.342 0.0
C117 C 0.98639 0.30069 0.32773 0.0
O118 O 0.98558 0.30964 0.30598 0.0
O119 O 0.02341 0.34199 0.30509 0.0
O120 O 0.05009 0.3625 0.28654 0.0
O121 O 0.03233 0.29314 0.29544 0.0
O122 O 0.04533 0.32091 0.2762 0.0
C123 C 0.03461 0.3584 0.29702 0.0
C124 C 0.04487 0.3052 0.27984 0.0
O125 O 1.00145 0.3011 0.3342 0.0
Mg126 Mg 0.66163 0.97744 0.3737 0.0
O127 O 0.66994 0.96691 0.33483 0.0
O128 O 0.69537 0.96556 0.34665 0.0
Mg129 Mg 0.70354 0.97535 0.39199 0.0
C130 C 0.68272 0.96326 0.32896 0.0
C131 C 0.62938 0.9853 0.3607 0.0
O132 O 0.62963 0.98549 0.38796 0.0
O133 O 0.68532 0.00739 0.36826 0.0
O134 O 0.71006 0.00527 0.38165 0.0
O135 O 0.64478 0.94793 0.38709 0.0
O136 O 0.67434 0.96639 0.39903 0.0
C137 C 0.70272 0.01482 0.37326 0.0
C138 C 0.65972 0.95005 0.39928 0.0
O139 O 0.64111 0.98257 0.34804 0.0
Mg140 Mg 0.02897 0.68733 0.3248 0.0
O141 O 0.04972 0.69807 0.36217 0.0
O142 O 0.07606 0.70031 0.34763 0.0
Mg143 Mg 0.07233 0.6914 0.30172 0.0
C144 C 0.06649 0.70207 0.36653 0.0
C145 C 0.99101 0.68104 0.3408 0.0
O146 O 0.99168 0.68516 0.31451 0.0
O147 O 0.02483 0.65801 0.32873 0.0
O148 O 0.05081 0.66092 0.31157 0.0
O149 O 0.03899 0.71672 0.31283 0.0
O150 O 0.05091 0.69949 0.29817 0.0
C151 C 0.03479 0.651 0.32147 0.0
C152 C 0.05157 0.71548 0.29926 0.0
O153 O 0.00467 0.68062 0.35228 0.0
Mg154 Mg 0.3236 0.35409 0.38578 0.0
O155 O 0.3047 0.34755 0.34674 0.0
O156 O 0.27625 0.32494 0.3569 0.0
Mg157 Mg 0.27718 0.31619 0.40133 0.0
C158 C 0.2876 0.33666 0.34016 0.0
C159 C 0.35879 0.38897 0.36552 0.0
O160 O 0.35347 0.39683 0.38434 0.0
O161 O 0.3252 0.32742 0.37815 0.0
O162 O 0.29689 0.30529 0.38971 0.0
O163 O 0.3148 0.37439 0.40031 0.0
O164 O 0.30066 0.34441 0.41048 0.0
C165 C 0.31317 0.31028 0.38175 0.0
C166 C 0.30106 0.36022 0.41135 0.0
O167 O 0.34928 0.37135 0.36072 0.0
Mg168 Mg 0.3561 0.02817 0.63993 0.0
O169 O 0.34777 0.0421 0.67459 0.0
O170 O 0.3228 0.04287 0.65809 0.0
Mg171 Mg 0.31571 0.03059 0.61391 0.0
C172 C 0.33504 0.04634 0.67717 0.0
C173 C 0.3899 0.02532 0.65982 0.0
O174 O 0.39313 0.02921 0.63354 0.0
O175 O 0.33138 0.99899 0.64763 0.0
O176 O 0.30759 1.00147 0.63034 0.0
O177 O 0.37429 0.0565 0.62346 0.0
O178 O 0.34486 0.03813 0.61038 0.0
C179 C 0.31409 0.99203 0.64192 0.0
C180 C 0.35979 0.05415 0.60949 0.0
O181 O 0.37524 0.0238 0.66982 0.0
Mg182 Mg 0.98411 0.32164 0.7086 0.0
O183 O 0.96595 0.30683 0.66916 0.0
O184 O 0.93719 0.30055 0.67806 0.0
Mg185 Mg 0.93696 0.31191 0.72133 0.0
C186 C 0.94883 0.2998 0.66209 0.0
C187 C 0.0221 0.32626 0.69964 0.0
O188 O 0.01773 0.31908 0.72426 0.0
O189 O 0.98486 0.34901 0.69852 0.0
O190 O 0.9561 0.34225 0.70812 0.0
O191 O 0.9765 0.29378 0.72513 0.0
O192 O 0.9607 0.30838 0.73253 0.0
C193 C 0.97242 0.35366 0.70036 0.0
C194 C 0.96215 0.2936 0.73506 0.0
O195 O 0.01082 0.32964 0.6862 0.0
Mg196 Mg 0.69328 0.65147 0.63864 0.0
O197 O 0.71708 0.66221 0.67217 0.0
O198 O 0.74347 0.67902 0.64997 0.0
Mg199 Mg 0.73695 0.67926 0.60394 0.0
C200 C 0.73477 0.67208 0.672 0.0
C201 C 0.65711 0.64426 0.66622 0.0
O202 O 0.65675 0.65356 0.64463 0.0
O203 O 0.69625 0.68062 0.63626 0.0
O204 O 0.72256 0.69631 0.61367 0.0
O205 O 0.69612 0.62622 0.6317 0.0
O206 O 0.71134 0.65247 0.60896 0.0
C207 C 0.70854 0.69548 0.62517 0.0
C208 C 0.7087 0.63605 0.61436 0.0
O209 O 0.67101 0.6421 0.67076 0.0
Mg210 Mg 0.33123 0.32094 0.70386 0.0
O211 O 0.33608 0.30605 0.66666 0.0
O212 O 0.35834 0.29986 0.67989 0.0
Mg213 Mg 0.36813 0.31109 0.72431 0.0
C214 C 0.34646 0.29906 0.66192 0.0
C215 C 0.29809 0.32588 0.68517 0.0
O216 O 0.29294 0.31845 0.70953 0.0
O217 O 0.35816 0.34849 0.69651 0.0
O218 O 0.37966 0.34165 0.71132 0.0
O219 O 0.31064 0.29305 0.71971 0.0
O220 O 0.34055 0.30756 0.73094 0.0
C221 C 0.37506 0.35319 0.7017 0.0
C222 C 0.32442 0.29283 0.73219 0.0
O223 O 0.31364 0.32907 0.67636 0.0
Mg224 Mg 0.69468 0.01181 0.64572 0.0
O225 O 0.71168 0.02658 0.68597 0.0
O226 O 0.74042 0.03179 0.68032 0.0
Mg227 Mg 0.74177 0.02018 0.6376 0.0
C228 C 0.72841 0.03306 0.69474 0.0
C229 C 0.65668 0.00788 0.65107 0.0
O230 O 0.66133 0.01389 0.62589 0.0
O231 O 0.69257 0.98408 0.6575 0.0
O232 O 0.72126 0.98988 0.64949 0.0
O233 O 0.70357 0.03963 0.62787 0.0
O234 O 0.71884 0.02422 0.62331 0.0
C235 C 0.70463 0.97885 0.65631 0.0
C236 C 0.71791 0.03916 0.61928 0.0
O237 O 0.66767 0.00491 0.66602 0.0
Mg238 Mg 0.98559 0.69538 0.7149 0.0
O239 O 0.96711 0.68646 0.67498 0.0
O240 O 0.93915 0.66315 0.68573 0.0
Mg241 Mg 0.94003 0.65671 0.73149 0.0
C242 C 0.95025 0.67451 0.66839 0.0
C243 C 0.02669 0.71411 0.69989 0.0
O244 O 0.02662 0.70504 0.72203 0.0
O245 O 0.98865 0.66938 0.71112 0.0
O246 O 0.96097 0.64655 0.7236 0.0
O247 O 0.9758 0.71536 0.72538 0.0
O248 O 0.96225 0.68598 0.73867 0.0
C249 C 0.97754 0.65225 0.71623 0.0
C250 C 0.96218 0.70157 0.73726 0.0
O251 O 0.0116 0.71264 0.69065 0.0
H252 H 0.2373 0.33978 0.14639 0.0
H253 H 0.19567 0.33475 0.08754 0.0
H254 H 0.18762 0.33589 0.17574 0.0
H255 H 0.15883 0.31478 0.16149 0.0
H256 H 0.12031 0.32444 0.11502 0.0
H257 H 0.17558 0.34648 0.08689 0.0
C258 C 0.22438 0.33949 0.14211 0.0
C259 C 0.21333 0.33841 0.16421 0.0
C260 C 0.21841 0.33894 0.11448 0.0
C261 C 0.20058 0.33617 0.10891 0.0
C262 C 0.18905 0.33483 0.13079 0.0
C263 C 0.19587 0.33636 0.15843 0.0
C264 C 0.16978 0.33129 0.12518 0.0
C265 C 0.15587 0.32108 0.14412 0.0
C266 C 0.1382 0.31905 0.14089 0.0
C267 C 0.13387 0.32573 0.11712 0.0
C268 C 0.14702 0.33503 0.097 0.0
C269 C 0.16516 0.33832 0.10158 0.0
H270 H 0.6737 0.89996 0.13525 0.0
H271 H 0.67302 0.85522 0.08873 0.0
H272 H 0.6964 0.86882 0.17296 0.0
H273 H 0.68749 0.83953 0.17508 0.0
H274 H 0.69778 0.80098 0.12912 0.0
H275 H 0.68713 0.83919 0.08495 0.0
C276 C 0.67749 0.88919 0.13426 0.0
C277 C 0.68554 0.88557 0.15736 0.0
C278 C 0.67389 0.87882 0.10937 0.0
C279 C 0.67699 0.86359 0.10783 0.0
C280 C 0.68477 0.85921 0.13096 0.0
C281 C 0.68952 0.8709 0.15528 0.0
C282 C 0.68779 0.84256 0.13016 0.0
C283 C 0.68943 0.83461 0.1552 0.0
C284 C 0.69286 0.81959 0.15504 0.0
C285 C 0.69474 0.81235 0.12966 0.0
C286 C 0.69186 0.81886 0.10464 0.0
C287 C 0.68867 0.83409 0.10473 0.0
H288 H 0.24273 0.88329 0.13457 0.0
H289 H 0.19489 0.83938 0.09153 0.0
H290 H 0.19137 0.85617 0.17596 0.0
H291 H 0.17108 0.82636 0.17961 0.0
H292 H 0.1196 0.78884 0.13849 0.0
H293 H 0.1648 0.82611 0.09005 0.0
C294 C 0.22819 0.87263 0.13462 0.0
C295 C 0.21808 0.87078 0.15814 0.0
C296 C 0.21962 0.86188 0.11048 0.0
C297 C 0.20086 0.84799 0.11023 0.0
C298 C 0.19032 0.84513 0.13414 0.0
C299 C 0.19911 0.85726 0.15774 0.0
C300 C 0.17046 0.8295 0.13488 0.0
C301 C 0.1627 0.82184 0.16055 0.0
C302 C 0.14417 0.80773 0.16197 0.0
C303 C 0.13341 0.80061 0.13742 0.0
C304 C 0.14093 0.80655 0.11139 0.0
C305 C 0.15933 0.82133 0.11025 0.0
H306 H 0.34217 0.10806 0.86624 0.0
H307 H 0.33979 0.14927 0.91852 0.0
H308 H 0.34642 0.15678 0.82995 0.0
H309 H 0.33197 0.17279 0.83529 0.0
H310 H 0.34337 0.22118 0.88497 0.0
H311 H 0.35375 0.18016 0.92015 0.0
C312 C 0.34151 0.12078 0.86855 0.0
C313 C 0.34318 0.13111 0.84502 0.0
C314 C 0.34079 0.1275 0.89515 0.0
C315 C 0.34091 0.14456 0.89794 0.0
C316 C 0.34242 0.15532 0.87451 0.0
C317 C 0.34414 0.14854 0.84818 0.0
C318 C 0.34248 0.17359 0.87748 0.0
C319 C 0.33674 0.18056 0.85492 0.0
C320 C 0.3369 0.19766 0.85746 0.0
C321 C 0.34243 0.20765 0.88289 0.0
C322 C 0.34797 0.2011 0.90551 0.0
C323 C 0.34843 0.18437 0.90274 0.0
H324 H 0.76984 0.11381 0.87953 0.0
H325 H 0.81099 0.16152 0.92669 0.0
H326 H 0.82431 0.14568 0.84808 0.0
H327 H 0.84044 0.17657 0.84377 0.0
H328 H 0.88795 0.21788 0.88969 0.0
H329 H 0.8419 0.17718 0.93374 0.0
C330 C 0.784 0.12523 0.88164 0.0
C331 C 0.7966 0.12824 0.8609 0.0
C332 C 0.78941 0.13678 0.90561 0.0
C333 C 0.80738 0.15235 0.90846 0.0
C334 C 0.82016 0.15631 0.88727 0.0
C335 C 0.81461 0.14367 0.86402 0.0
C336 C 0.83903 0.17363 0.88861 0.0
C337 C 0.84768 0.18187 0.86369 0.0
C338 C 0.86561 0.19732 0.86406 0.0
C339 C 0.87472 0.20517 0.88956 0.0
C340 C 0.86615 0.19849 0.91476 0.0
C341 C 0.84834 0.1825 0.91423 0.0
H342 H 0.77457 0.68057 0.88664 0.0
H343 H 0.81803 0.68177 0.93725 0.0
H344 H 0.81408 0.66881 0.84922 0.0
H345 H 0.84549 0.68664 0.8555 0.0
H346 H 0.88198 0.67309 0.90025 0.0
H347 H 0.83165 0.66331 0.93679 0.0
C348 C 0.7868 0.67913 0.88838 0.0
C349 C 0.79341 0.67477 0.86467 0.0
C350 C 0.7953 0.68118 0.91447 0.0
C351 C 0.8112 0.67946 0.91703 0.0
C352 C 0.81855 0.67552 0.89336 0.0
C353 C 0.80921 0.67278 0.86728 0.0
C354 C 0.83615 0.67478 0.89559 0.0
C355 C 0.84853 0.68094 0.87355 0.0
C356 C 0.86499 0.68016 0.87509 0.0
C357 C 0.86943 0.67397 0.89931 0.0
C358 C 0.85785 0.66847 0.92199 0.0
C359 C 0.84094 0.66834 0.91971 0.0
H360 H 0.89569 0.66764 0.47068 0.0
H361 H 0.85073 0.65839 0.41511 0.0
H362 H 0.84547 0.66011 0.50398 0.0
H363 H 0.81662 0.63754 0.49148 0.0
H364 H 0.77509 0.64447 0.44866 0.0
H365 H 0.82989 0.66964 0.41724 0.0
C366 C 0.88179 0.66522 0.4674 0.0
C367 C 0.87133 0.66396 0.4904 0.0
C368 C 0.87448 0.66324 0.44022 0.0
C369 C 0.85639 0.66014 0.43609 0.0
C370 C 0.84546 0.65854 0.45894 0.0
C371 C 0.85329 0.66071 0.48601 0.0
C372 C 0.82581 0.65424 0.45502 0.0
C373 C 0.81272 0.64359 0.47481 0.0
C374 C 0.79466 0.64071 0.47316 0.0
C375 C 0.78927 0.64735 0.45041 0.0
C376 C 0.80184 0.6579 0.43026 0.0
C377 C 0.8201 0.66118 0.4325 0.0
H378 H 0.34798 0.23876 0.47547 0.0
H379 H 0.35733 0.20173 0.42381 0.0
H380 H 0.35041 0.19314 0.5121 0.0
H381 H 0.36955 0.18214 0.50644 0.0
H382 H 0.36508 0.1359 0.45818 0.0
H383 H 0.34493 0.16991 0.42295 0.0
C384 C 0.34881 0.22611 0.47318 0.0
C385 C 0.34861 0.21638 0.49676 0.0
C386 C 0.3513 0.22051 0.44675 0.0
C387 C 0.3545 0.20535 0.4441 0.0
C388 C 0.3542 0.1951 0.46752 0.0
C389 C 0.35107 0.2008 0.49376 0.0
C390 C 0.35727 0.17866 0.46477 0.0
C391 C 0.36516 0.17382 0.48724 0.0
C392 C 0.36699 0.15781 0.48546 0.0
C393 C 0.36265 0.14761 0.46025 0.0
C394 C 0.35463 0.15183 0.4379 0.0
C395 C 0.35176 0.16722 0.44013 0.0
H396 H 0.89892 0.22956 0.47046 0.0
H397 H 0.86337 0.17792 0.42576 0.0
H398 H 0.84946 0.18823 0.50772 0.0
H399 H 0.83763 0.15679 0.50898 0.0
H400 H 0.79235 0.11264 0.46162 0.0
H401 H 0.83151 0.16142 0.42038 0.0
C402 C 0.8865 0.21589 0.4697 0.0
C403 C 0.87515 0.20976 0.49258 0.0
C404 C 0.8821 0.20455 0.44562 0.0
C405 C 0.86617 0.18679 0.44417 0.0
C406 C 0.85401 0.18061 0.46642 0.0
C407 C 0.8586 0.19246 0.49042 0.0
C408 C 0.83678 0.16178 0.46494 0.0
C409 C 0.8301 0.15147 0.48927 0.0
C410 C 0.81363 0.13415 0.48841 0.0
C411 C 0.80437 0.12657 0.46285 0.0
C412 C 0.81071 0.13629 0.43846 0.0
C413 C 0.82687 0.15391 0.4394 0.0
H414 H 0.00965 0.44028 0.19149 0.0
H415 H 0.00552 0.47856 0.24803 0.0
H416 H 0.99927 0.48225 0.15926 0.0
H417 H 0.98095 0.49295 0.17067 0.0
H418 H 0.98439 0.53676 0.22346 0.0
H419 H 0.01391 0.5089 0.24775 0.0
C420 C 0.00765 0.45213 0.19507 0.0
C421 C 1.00444 0.4606 0.17237 0.0
C422 C 0.00842 0.45879 0.22231 0.0
C423 C 0.00538 0.47392 0.22684 0.0
C424 C 1.00155 0.48246 0.20434 0.0
C425 C 1.00143 0.4757 0.1771 0.0
C426 C 0.99729 0.498 0.20925 0.0
C427 C 0.98631 0.50129 0.18975 0.0
C428 C 0.98193 0.51543 0.19484 0.0
C429 C 0.98758 0.52566 0.21996 0.0
C430 C 0.9991 0.52337 0.23904 0.0
C431 C 1.00428 0.50987 0.2334 0.0
H432 H 0.44353 0.43902 0.20179 0.0
H433 H 0.49162 0.47392 0.25359 0.0
H434 H 0.49151 0.48263 0.16517 0.0
H435 H 0.52129 0.49198 0.17062 0.0
H436 H 0.56551 0.53637 0.219 0.0
H437 H 0.51246 0.5051 0.25459 0.0
C438 C 0.45763 0.4506 0.20406 0.0
C439 C 0.46693 0.45979 0.18054 0.0
C440 C 0.46627 0.45613 0.23045 0.0
C441 C 0.48484 0.47049 0.23319 0.0
C442 C 0.49442 0.48039 0.20977 0.0
C443 C 0.48494 0.47513 0.18353 0.0
C444 C 0.5142 0.49597 0.21252 0.0
C445 C 0.52609 0.50012 0.18995 0.0
C446 C 0.54422 0.51528 0.1918 0.0
C447 C 0.55119 0.52522 0.21708 0.0
C448 C 0.53982 0.52168 0.23956 0.0
C449 C 0.52128 0.50722 0.2373 0.0
H450 H 0.44386 0.00897 0.21529 0.0
H451 H 0.4743 0.9913 0.26715 0.0
H452 H 0.49063 0.00856 0.18308 0.0
H453 H 0.4994 0.98797 0.18398 0.0
H454 H 0.54033 0.98347 0.23187 0.0
H455 H 0.50488 0.99962 0.27289 0.0
C456 C 0.45528 0.00647 0.21836 0.0
C457 C 0.46627 0.00822 0.19601 0.0
C458 C 0.45839 1.00099 0.24429 0.0
C459 C 0.47269 0.99668 0.24761 0.0
C460 C 0.48468 0.99923 0.2256 0.0
C461 C 0.48157 0.00579 0.2002 0.0
C462 C 0.49992 0.99449 0.22818 0.0
C463 C 0.50608 0.98947 0.2041 0.0
C464 C 0.52097 0.98616 0.20547 0.0
C465 C 0.52915 0.98661 0.23112 0.0
C466 C 0.52366 0.99171 0.25551 0.0
C467 C 0.50887 0.99543 0.25406 0.0
H468 H 0.57963 0.0104 0.79761 0.0
H469 H 0.52903 0.99613 0.75304 0.0
H470 H 0.53761 0.01593 0.83893 0.0
H471 H 0.50678 0.9967 0.8385 0.0
H472 H 0.46332 0.99968 0.79428 0.0
H473 H 0.51249 0.01179 0.75226 0.0
C474 C 0.56617 0.00946 0.79706 0.0
C475 C 0.55965 0.01339 0.82117 0.0
C476 C 0.55526 0.00344 0.77256 0.0
C477 C 0.53752 1.00139 0.77197 0.0
C478 C 0.53081 0.00593 0.79585 0.0
C479 C 0.54215 0.01199 0.82044 0.0
C480 C 0.51202 0.00416 0.7953 0.0
C481 C 0.50153 0.99944 0.81947 0.0
C482 C 0.48401 0.99787 0.81931 0.0
C483 C 0.47687 1.001 0.79471 0.0
C484 C 0.48714 0.00632 0.77066 0.0
C485 C 0.50456 0.00756 0.77087 0.0
H486 H 0.98538 0.56201 0.8182 0.0
H487 H 0.99316 0.52574 0.76292 0.0
H488 H 0.99632 0.52073 0.85212 0.0
H489 H 0.0116 0.50694 0.84348 0.0
H490 H 0.01008 0.46452 0.78983 0.0
H491 H 0.98531 0.496 0.76134 0.0
C492 C 0.98767 0.55024 0.81543 0.0
C493 C 0.99114 0.54214 0.83838 0.0
C494 C 0.98805 0.54404 0.78849 0.0
C495 C 0.99223 0.52968 0.78409 0.0
C496 C 0.99519 0.52068 0.80684 0.0
C497 C 0.9945 0.52721 0.83398 0.0
C498 C 0.99901 0.50471 0.80233 0.0
C499 C 0.00746 0.49951 0.8236 0.0
C500 C 0.01022 0.48412 0.81991 0.0
C501 C 0.00684 0.4755 0.79347 0.0
C502 C 0.99764 0.47953 0.77235 0.0
C503 C 0.99338 0.49382 0.77716 0.0
H504 H 0.5704 0.56912 0.8172 0.0
H505 H 0.52726 0.53059 0.76052 0.0
H506 H 0.52112 0.52436 0.84929 0.0
H507 H 0.49187 0.51474 0.83777 0.0
H508 H 0.45157 0.46799 0.78899 0.0
H509 H 0.50722 0.49836 0.76123 0.0
C510 C 0.55694 0.55681 0.81374 0.0
C511 C 0.54654 0.54736 0.83643 0.0
C512 C 0.55013 0.55077 0.78646 0.0
C513 C 0.53252 0.53491 0.7817 0.0
C514 C 0.52148 0.52533 0.8042 0.0
C515 C 0.5289 0.53166 0.83153 0.0
C516 C 0.50205 0.50932 0.7994 0.0
C517 C 0.48853 0.50592 0.81919 0.0
C518 C 0.47071 0.49047 0.81587 0.0
C519 C 0.46557 0.47963 0.7913 0.0
C520 C 0.47854 0.48216 0.77143 0.0
C521 C 0.49694 0.49689 0.77582 0.0
H522 H 0.64663 0.75455 0.54359 0.0
H523 H 0.67046 0.80666 0.59042 0.0
H524 H 0.65081 0.8028 0.50518 0.0
H525 H 0.67066 0.83322 0.50686 0.0
H526 H 0.674 0.87856 0.55571 0.0
H527 H 0.65964 0.82708 0.59476 0.0
C528 C 0.65026 0.76918 0.5451 0.0
C529 C 0.64846 0.77783 0.52163 0.0
C530 C 0.65836 0.77958 0.56973 0.0
C531 C 0.66378 0.79871 0.57138 0.0
C532 C 0.66065 0.80743 0.54847 0.0
C533 C 0.65322 0.79674 0.5234 0.0
C534 C 0.66498 0.82746 0.55066 0.0
C535 C 0.66946 0.8386 0.52687 0.0
C536 C 0.67184 0.8567 0.52855 0.0
C537 C 0.67161 0.8644 0.55444 0.0
C538 C 0.66769 0.85402 0.57847 0.0
C539 C 0.66376 0.83535 0.57637 0.0
H540 H 0.12304 0.76663 0.55609 0.0
H541 H 0.15841 0.82069 0.59518 0.0
H542 H 0.17475 0.80307 0.52088 0.0
H543 H 0.18739 0.83273 0.51206 0.0
H544 H 0.23191 0.88126 0.5524 0.0
H545 H 0.18934 0.84006 0.60158 0.0
C546 C 0.1359 0.77984 0.55702 0.0
C547 C 0.14806 0.78398 0.5354 0.0
C548 C 0.13978 0.79276 0.57909 0.0
C549 C 0.1561 0.81033 0.57908 0.0
C550 C 0.16912 0.81449 0.55815 0.0
C551 C 0.16506 0.80069 0.53698 0.0
C552 C 0.18637 0.83335 0.55716 0.0
C553 C 0.19417 0.84031 0.53128 0.0
C554 C 0.21046 0.8575 0.52956 0.0
C555 C 0.21922 0.868 0.55389 0.0
C556 C 0.21154 0.86206 0.57988 0.0
C557 C 0.19507 0.8447 0.58144 0.0
H558 H 0.10432 0.33369 0.55186 0.0
H559 H 0.15567 0.35282 0.59771 0.0
H560 H 0.15092 0.33787 0.51014 0.0
H561 H 0.18124 0.36197 0.51382 0.0
H562 H 0.22628 0.35988 0.55439 0.0
H563 H 0.17479 0.3388 0.5953 0.0
C564 C 0.11855 0.33669 0.5526 0.0
C565 C 0.12653 0.33539 0.52818 0.0
C566 C 0.12892 0.34285 0.57764 0.0
C567 C 0.14762 0.34763 0.57836 0.0
C568 C 0.15586 0.34577 0.55408 0.0
C569 C 0.14508 0.33968 0.52898 0.0
C570 C 0.17554 0.35004 0.55466 0.0
C571 C 0.18662 0.35807 0.53157 0.0
C572 C 0.20458 0.3608 0.53091 0.0
C573 C 0.21195 0.3565 0.55418 0.0
C574 C 0.20128 0.34832 0.5773 0.0
C575 C 0.18313 0.34533 0.5776 0.0
H576 H 0.0176 0.39161 0.04367 0.0
C577 C 0.00713 0.39058 0.02874 0.0
H578 H 0.98738 0.39887 0.01934 0.0
H579 H 0.97962 0.41598 0.14547 0.0
H580 H 0.9511 0.38654 0.13726 0.0
H581 H 0.94519 0.36817 0.09344 0.0
H582 H 0.96792 0.37911 0.05767 0.0
C583 C 0.99806 0.39994 0.03384 0.0
C584 C 1.00159 0.41141 0.05979 0.0
C585 C 0.98796 0.40508 0.08014 0.0
C586 C 0.99123 0.41585 0.10517 0.0
C587 C 0.97771 0.40871 0.12572 0.0
C588 C 0.96129 0.39173 0.12135 0.0
C589 C 0.95797 0.38138 0.0967 0.0
C590 C 0.97112 0.38786 0.07632 0.0
H591 H 0.99372 0.45399 0.12863 0.0
C592 C 1.00303 0.45293 0.1437 0.0
H593 H 0.02243 0.44375 0.15016 0.0
H594 H 0.02987 0.42843 0.0238 0.0
H595 H 0.05837 0.45803 0.03183 0.0
H596 H 0.06419 0.47656 0.07549 0.0
H597 H 0.04144 0.46563 0.1113 0.0
C598 C 0.01201 0.44381 0.13632 0.0
C599 C 0.00799 0.43316 0.10946 0.0
C600 C 0.02152 0.4396 0.08895 0.0
C601 C 0.01826 0.42879 0.06395 0.0
C602 C 0.03178 0.43584 0.04344 0.0
C603 C 0.04818 0.45288 0.04772 0.0
C604 C 0.05145 0.46331 0.07229 0.0
C605 C 0.0383 0.45686 0.09271 0.0
H606 H 0.60863 0.60834 0.10134 0.0
C607 C 0.62048 0.60811 0.09282 0.0
H608 H 0.63349 0.59201 0.08606 0.0
H609 H 0.59282 0.5444 0.19092 0.0
H610 H 0.62485 0.56123 0.20799 0.0
H611 H 0.64932 0.5847 0.17943 0.0
H612 H 0.64189 0.5915 0.1337 0.0
C613 C 0.6215 0.59235 0.09372 0.0
C614 C 0.60737 0.57589 0.10844 0.0
C615 C 0.61212 0.57162 0.13461 0.0
C616 C 0.59803 0.55821 0.15115 0.0
C617 C 0.60299 0.55462 0.17766 0.0
C618 C 0.62132 0.56412 0.18764 0.0
C619 C 0.63509 0.57732 0.17155 0.0
C620 C 0.63064 0.58109 0.14534 0.0
H621 H 0.55722 0.51202 0.15365 0.0
C622 C 0.55575 0.52191 0.16707 0.0
H623 H 0.56237 0.54987 0.17486 0.0
H624 H 0.59427 0.57821 0.05702 0.0
H625 H 0.56217 0.56115 0.03998 0.0
H626 H 0.53765 0.53833 0.06919 0.0
H627 H 0.54508 0.53238 0.11567 0.0
C628 C 0.56462 0.54031 0.16192 0.0
C629 C 0.57929 0.54919 0.14149 0.0
C630 C 0.57476 0.55225 0.11438 0.0
C631 C 0.58886 0.56556 0.09771 0.0
C632 C 0.584 0.56848 0.07071 0.0
C633 C 0.56567 0.55872 0.06065 0.0
C634 C 0.55186 0.54587 0.07711 0.0
C635 C 0.55627 0.54263 0.10372 0.0
H636 H 0.38784 0.99376 0.0614 0.0
C637 C 0.39719 0.0034 0.04652 0.0
H638 H 0.42505 0.02298 0.03821 0.0
H639 H 0.43229 0.02668 0.17474 0.0
H640 H 0.41674 0.0449 0.17198 0.0
H641 H 0.40407 0.04842 0.12721 0.0
H642 H 0.40691 0.03377 0.08489 0.0
C643 C 0.41537 0.01391 0.05325 0.0
C644 C 0.42321 0.01212 0.0802 0.0
C645 C 0.42143 0.02078 0.10467 0.0
C646 C 0.42876 0.01876 0.13044 0.0
C647 C 0.42685 0.02763 0.15461 0.0
C648 C 0.41801 0.03817 0.15332 0.0
C649 C 0.41088 0.04016 0.12811 0.0
C650 C 0.41256 0.03163 0.10399 0.0
H651 H 0.47233 0.01982 0.15373 0.0
C652 C 0.46134 0.01184 0.16789 0.0
H653 H 0.43238 0.99584 0.17266 0.0
H654 H 0.42977 0.99458 0.03678 0.0
H655 H 0.44535 0.97639 0.03939 0.0
H656 H 0.45736 0.97217 0.08428 0.0
H657 H 0.45402 0.98624 0.12675 0.0
C658 C 0.44352 0.00443 0.15912 0.0
C659 C 0.4379 0.00815 0.13163 0.0
C660 C 0.43996 0.99975 0.10705 0.0
C661 C 0.43277 0.00192 0.08124 0.0
C662 C 0.43495 0.99336 0.05695 0.0
C663 C 0.44383 0.98285 0.05815 0.0
C664 C 0.45061 0.98049 0.08342 0.0
C665 C 0.44867 0.98873 0.10766 0.0
H666 H 0.39139 0.96431 0.92614 0.0
C667 C 0.39408 0.97792 0.93407 0.0
H668 H 0.41313 0.00688 0.93771 0.0
H669 H 0.45925 0.96665 0.88397 0.0
H670 H 0.45519 0.95146 0.92803 0.0
H671 H 0.43719 0.95562 0.96461 0.0
H672 H 0.42289 0.97473 0.9572 0.0
C673 C 0.41038 0.9933 0.92972 0.0
C674 C 0.4235 0.9928 0.90984 0.0
C675 C 0.43229 0.98211 0.91492 0.0
C676 C 0.44319 0.98023 0.89419 0.0
C677 C 0.45115 0.96884 0.89925 0.0
C678 C 0.44891 0.96003 0.92442 0.0
C679 C 0.43873 0.96234 0.945 0.0
C680 C 0.4305 0.97324 0.94043 0.0
H681 H 0.48215 1.00161 0.86457 0.0
C682 C 0.47403 0.995 0.84554 0.0
H683 H 0.44718 0.97949 0.827 0.0
H684 H 0.40954 0.0154 0.89408 0.0
H685 H 0.41542 0.03226 0.85157 0.0
H686 H 0.43558 0.03022 0.81667 0.0
H687 H 0.4498 0.01118 0.82414 0.0
C688 C 0.45545 0.98639 0.84577 0.0
C689 C 0.44571 0.98951 0.86887 0.0
C690 C 0.43791 1.00118 0.86459 0.0
C691 C 0.42668 0.00272 0.88498 0.0
C692 C 0.41851 0.01395 0.87962 0.0
C693 C 0.42172 0.0237 0.85521 0.0
C694 C 0.43302 0.02253 0.83556 0.0
C695 C 0.44103 0.01143 0.84007 0.0
H696 H 0.03444 0.40722 0.90158 0.0
C697 C 0.02423 0.40074 0.91736 0.0
H698 H 1.00343 0.40127 0.94037 0.0
H699 H 0.04615 0.47825 0.86193 0.0
H700 H 0.07449 0.48576 0.88753 0.0
H701 H 0.07455 0.46521 0.92408 0.0
H702 H 0.04632 0.43667 0.93455 0.0
C703 C 0.01316 0.40764 0.92397 0.0
C704 C 0.0125 0.42257 0.90763 0.0
C705 C 0.02882 0.4399 0.90321 0.0
C706 C 0.02855 0.45238 0.88335 0.0
C707 C 0.04538 0.46867 0.87752 0.0
C708 C 0.06178 0.47313 0.89204 0.0
C709 C 0.06183 0.46152 0.91254 0.0
C710 C 0.04558 0.44509 0.91816 0.0
H711 H 0.01927 0.48425 0.86391 0.0
C712 C 0.01479 0.47607 0.84447 0.0
H713 H 0.0052 0.44908 0.826 0.0
H714 H 0.97797 0.39182 0.91385 0.0
H715 H 0.94912 0.38638 0.89262 0.0
H716 H 0.9483 0.40937 0.86144 0.0
H717 H 0.97652 0.43785 0.85099 0.0
C718 C 0.01129 0.45816 0.8443 0.0
C719 C 0.01166 0.44808 0.86942 0.0
C720 C 0.99498 0.43195 0.87654 0.0
C721 C 0.99539 0.41901 0.89524 0.0
C722 C 0.97857 0.40243 0.90041 0.0
C723 C 0.96182 0.39907 0.88827 0.0
C724 C 0.96137 0.41198 0.87067 0.0
C725 C 0.97769 0.42822 0.86475 0.0
H726 H 0.62672 0.62254 0.96813 0.0
C727 C 0.61622 0.62184 0.9818 0.0
H728 H 0.58757 0.60958 0.98832 0.0
H729 H 0.5867 0.59695 0.85189 0.0
H730 H 0.60318 0.63078 0.84983 0.0
H731 H 0.6142 0.65068 0.89269 0.0
H732 H 0.60894 0.63682 0.93778 0.0
C733 C 0.59818 0.61108 0.97425 0.0
C734 C 0.5919 0.59928 0.94815 0.0
C735 C 0.59494 0.60766 0.92194 0.0
C736 C 0.58834 0.59617 0.89724 0.0
C737 C 0.59151 0.60492 0.87133 0.0
C738 C 0.60088 0.62437 0.86983 0.0
C739 C 0.6071 0.63557 0.89395 0.0
C740 C 0.6041 0.6274 0.91974 0.0
H741 H 0.5432 0.55323 0.88036 0.0
C742 C 0.55334 0.55487 0.86524 0.0
H743 H 0.58181 0.56609 0.85801 0.0
H744 H 0.58402 0.57869 0.995 0.0
H745 H 0.56771 0.54478 0.99694 0.0
H746 H 0.55637 0.52492 0.95407 0.0
H747 H 0.56125 0.53886 0.90896 0.0
C748 C 0.5715 0.56465 0.87262 0.0
C749 C 0.5784 0.57633 0.89878 0.0
C750 C 0.57545 0.56795 0.92496 0.0
C751 C 0.58213 0.57944 0.94968 0.0
C752 C 0.57912 0.57069 0.97556 0.0
C753 C 0.56984 0.55122 0.97699 0.0
C754 C 0.56345 0.54004 0.95285 0.0
C755 C 0.56625 0.54822 0.92709 0.0
H756 H 0.98743 0.61642 0.96862 0.0
C757 C 0.99827 0.61694 0.98224 0.0
H758 H 0.01684 0.60683 0.98898 0.0
H759 H 0.972 0.53426 0.91176 0.0
H760 H 0.96644 0.52093 0.95734 0.0
H761 H 0.97657 0.54132 -0.00028 0.0
H762 H 0.99224 0.57515 0.99677 0.0
C763 C 0.00666 0.60723 0.97496 0.0
C764 C 1.00092 0.59509 0.94923 0.0
C765 C 0.99208 0.57533 0.95132 0.0
C766 C 0.98642 0.56356 0.92688 0.0
C767 C 0.97702 0.54386 0.92961 0.0
C768 C 0.97362 0.53601 0.95566 0.0
C769 C 0.9793 0.54749 0.97952 0.0
C770 C 0.98836 0.56691 0.97752 0.0
H771 H 1.00256 0.54939 0.88164 0.0
C772 C 0.99297 0.55026 0.8669 0.0
H773 H 0.97436 0.56037 0.86042 0.0
H774 H 0.01891 0.63248 0.93784 0.0
H775 H 0.02392 0.64579 0.89235 0.0
H776 H 0.01335 0.62543 0.85005 0.0
H777 H 0.99809 0.59164 0.85283 0.0
C778 C 0.98427 0.55962 0.87453 0.0
C779 C 0.98983 0.5716 0.90041 0.0
C780 C 0.99857 0.59137 0.89833 0.0
C781 C 1.00431 0.60314 0.92276 0.0
C782 C 0.01371 0.62284 0.92003 0.0
C783 C 0.01682 0.6307 0.89402 0.0
C784 C 0.01092 0.61923 0.87018 0.0
C785 C 1.00206 0.59982 0.87214 0.0
H786 H 0.40106 0.39753 0.9061 0.0
C787 C 0.39221 0.40043 0.91904 0.0
H788 H 0.38553 0.42093 0.93247 0.0
H789 H 0.46595 0.48338 0.89368 0.0
H790 H 0.47036 0.48799 0.94371 0.0
H791 H 0.44577 0.46722 0.97463 0.0
H792 H 0.41659 0.44165 0.95564 0.0
C793 C 0.3938 0.41749 0.9191 0.0
C794 C 0.40708 0.43201 0.90073 0.0
C795 C 0.42368 0.44734 0.91213 0.0
C796 C 0.43778 0.45943 0.89428 0.0
C797 C 0.45466 0.47399 0.90622 0.0
C798 C 0.45739 0.47675 0.93493 0.0
C799 C 0.44354 0.46505 0.95235 0.0
C800 C 0.42688 0.45044 0.9412 0.0
H801 H 0.45446 0.49322 0.85002 0.0
C802 C 0.45797 0.48378 0.83921 0.0
H803 H 0.45469 0.45676 0.83541 0.0
H804 H 0.37544 0.40601 0.8724 0.0
H805 H 0.37079 0.40138 0.82238 0.0
H806 H 0.39541 0.42194 0.79132 0.0
H807 H 0.42457 0.44733 0.81011 0.0
C808 C 0.45065 0.46578 0.84632 0.0
C809 C 0.43502 0.45622 0.86513 0.0
C810 C 0.41787 0.44163 0.85378 0.0
C811 C 0.40383 0.42962 0.8716 0.0
C812 C 0.38678 0.41524 0.85974 0.0
C813 C 0.38387 0.4125 0.83107 0.0
C814 C 0.39771 0.42408 0.8136 0.0
C815 C 0.41446 0.43855 0.82468 0.0
H816 H 0.59317 0.9858 0.97223 0.0
C817 C 0.60632 0.9982 0.97813 0.0
H818 H 0.62507 0.02635 0.96903 0.0
H819 H 0.57153 0.98572 0.85394 0.0
H820 H 0.58704 0.96754 0.85103 0.0
H821 H 0.60976 0.97074 0.88752 0.0
H822 H 0.61683 0.99194 0.92737 0.0
C823 C 0.61259 0.01342 0.9626 0.0
C824 C 0.60117 0.01362 0.93853 0.0
C825 C 0.59779 1.00176 0.9148 0.0
C826 C 0.58533 1.00057 0.89317 0.0
C827 C 0.58141 0.98779 0.87047 0.0
C828 C 0.59014 0.97715 0.86861 0.0
C829 C 0.60287 0.97889 0.8892 0.0
C830 C 0.60671 0.99103 0.91206 0.0
H831 H 0.58631 0.0249 0.84469 0.0
C832 C 0.57139 0.01812 0.84686 0.0
H833 H 0.54964 0.00363 0.87435 0.0
H834 H 0.60496 0.03815 0.98078 0.0
H835 H 0.59035 0.05727 0.98279 0.0
H836 H 0.56958 0.05598 0.94448 0.0
H837 H 0.56319 0.03542 0.90393 0.0
C838 C 0.56448 0.01119 0.87152 0.0
C839 C 0.57695 0.01192 0.8947 0.0
C840 C 0.58066 0.02408 0.91809 0.0
C841 C 0.59278 0.02494 0.94004 0.0
C842 C 0.59601 0.03703 0.96338 0.0
C843 C 0.58769 0.04808 0.96482 0.0
C844 C 0.57599 0.04735 0.94325 0.0
C845 C 0.57245 0.0355 0.92011 0.0
H846 H 0.60926 0.0326 0.08875 0.0
C847 C 0.61082 0.02027 0.08928 0.0
H848 H 0.59958 0.99245 0.10236 0.0
H849 H 0.55984 0.02448 0.18773 0.0
H850 H 0.59084 0.04644 0.20567 0.0
H851 H 0.61819 0.04887 0.18319 0.0
H852 H 0.61473 0.02957 0.14256 0.0
C853 C 0.59832 0.00496 0.10209 0.0
C854 C 0.58202 0.00408 0.11545 0.0
C855 C 0.58441 0.01537 0.13952 0.0
C856 C 0.56864 0.01356 0.15301 0.0
C857 C 0.57134 0.0251 0.17685 0.0
C858 C 0.58906 0.03778 0.18739 0.0
C859 C 0.60445 0.03918 0.1747 0.0
C860 C 0.60224 0.02809 0.15115 0.0
H861 H 0.53602 0.97526 0.18159 0.0
C862 C 0.52967 0.98403 0.18036 0.0
H863 H 0.52992 0.00656 0.1598 0.0
H864 H 0.57258 0.98094 0.0691 0.0
H865 H 0.54144 0.95839 0.05213 0.0
H866 H 0.51418 0.95464 0.07661 0.0
H867 H 0.51792 0.97355 0.11824 0.0
C868 C 0.53453 0.99632 0.15997 0.0
C869 C 0.5506 0.99995 0.14314 0.0
C870 C 0.5482 0.98887 0.11898 0.0
C871 C 0.56393 0.99097 0.10502 0.0
C872 C 0.56112 0.97978 0.08073 0.0
C873 C 0.54332 0.96683 0.07072 0.0
C874 C 0.52797 0.96472 0.08451 0.0
C875 C 0.5303 0.97559 0.10837 0.0
H876 H 1.00047 0.60671 0.1005 0.0
C877 C 0.98678 0.60427 0.0944 0.0
H878 H 0.9581 0.58471 0.09259 0.0
H879 H 0.96694 0.51301 0.10455 0.0
H880 H 0.95257 0.50771 0.05833 0.0
H881 H 0.94808 0.53208 0.03647 0.0
H882 H 0.95766 0.56179 0.06072 0.0
C883 C 0.97185 0.5876 0.09918 0.0
C884 C 0.97389 0.57254 0.11284 0.0
C885 C 0.96821 0.55523 0.09834 0.0
C886 C 0.97105 0.54124 0.11076 0.0
C887 C 0.96515 0.52408 0.09595 0.0
C888 C 0.95693 0.52088 0.06944 0.0
C889 C 0.95439 0.53461 0.05713 0.0
C890 C 0.95993 0.5516 0.0713 0.0
H891 H 0.96237 0.52419 0.17992 0.0
C892 C 0.97335 0.52162 0.17346 0.0
H893 H 0.99463 0.52896 0.1451 0.0
H894 H 0.9832 0.60241 0.14896 0.0
H895 H 1.00007 0.60881 0.19312 0.0
H896 H 0.00931 0.58671 0.21118 0.0
H897 H 1.00093 0.55775 0.18579 0.0
C898 C 0.98268 0.53009 0.15083 0.0
C899 C 0.97985 0.54469 0.13739 0.0
C900 C 0.98611 0.56226 0.15146 0.0
C901 C 0.98226 0.57575 0.13987 0.0
C902 C 0.98691 0.59225 0.15584 0.0
C903 C 0.99644 0.59602 0.18138 0.0
C904 C 1.00152 0.58353 0.19164 0.0
C905 C 0.99642 0.56683 0.177 0.0
H906 H 0.42283 0.39038 0.03201 0.0
C907 C 0.40931 0.38908 0.02841 0.0
H908 H 0.39008 0.3966 0.0429 0.0
H909 H 0.42063 0.41085 0.1675 0.0
H910 H 0.39027 0.38353 0.17111 0.0
H911 H 0.37071 0.36747 0.12932 0.0
H912 H 0.38154 0.37845 0.08352 0.0
C913 C 0.40357 0.39776 0.0461 0.0
C914 C 0.41508 0.40835 0.07123 0.0
C915 C 0.40853 0.40185 0.09789 0.0
C916 C 0.41996 0.41099 0.12197 0.0
C917 C 0.41284 0.40426 0.14837 0.0
C918 C 0.39532 0.38866 0.15082 0.0
C919 C 0.38431 0.37959 0.12729 0.0
C920 C 0.39073 0.38606 0.1011 0.0
H921 H 0.45667 0.46297 0.13926 0.0
C922 C 0.45763 0.45308 0.15284 0.0
H923 H 0.45164 0.42544 0.15879 0.0
H924 H 0.43045 0.42669 0.02374 0.0
H925 H 0.46172 0.45256 0.01934 0.0
H926 H 0.48307 0.46585 0.06033 0.0
H927 H 0.47309 0.45382 0.10594 0.0
C928 C 0.45021 0.43492 0.14486 0.0
C929 C 0.43813 0.42644 0.11933 0.0
C930 C 0.44469 0.43294 0.09256 0.0
C931 C 0.43286 0.42435 0.06862 0.0
C932 C 0.4392 0.43202 0.04239 0.0
C933 C 0.45707 0.44696 0.03959 0.0
C934 C 0.46905 0.45451 0.06268 0.0
C935 C 0.46305 0.44759 0.08887 0.0
H936 H 0.6678 0.71952 0.38786 0.0
C937 C 0.65627 0.71633 0.37353 0.0
H938 H 0.633 0.71942 0.36513 0.0
H939 H 0.65666 0.7444 0.49984 0.0
H940 H 0.65118 0.71298 0.50624 0.0
H941 H 0.64265 0.69065 0.46637 0.0
H942 H 0.64009 0.69986 0.4198 0.0
C943 C 0.64431 0.72226 0.37968 0.0
C944 C 0.64722 0.73472 0.40438 0.0
C945 C 0.64736 0.72863 0.43167 0.0
C946 C 0.6509 0.74103 0.45488 0.0
C947 C 0.65277 0.7352 0.48164 0.0
C948 C 0.64987 0.71723 0.4856 0.0
C949 C 0.64517 0.7047 0.46314 0.0
C950 C 0.6439 0.71024 0.43646 0.0
H951 H 0.63054 0.75361 0.49352 0.0
C952 C 0.64321 0.76715 0.49492 0.0
H953 H 0.66873 0.78499 0.47705 0.0
H954 H 0.64858 0.75123 0.35488 0.0
H955 H 0.6524 0.78208 0.34879 0.0
H956 H 0.65602 0.80257 0.38924 0.0
H957 H 0.65608 0.7924 0.43607 0.0
C958 C 0.65571 0.77179 0.47515 0.0
C959 C 0.65274 0.75895 0.45093 0.0
C960 C 0.65232 0.76492 0.4237 0.0
C961 C 0.64976 0.7529 0.4004 0.0
C962 C 0.65002 0.75954 0.3734 0.0
C963 C 0.65228 0.77728 0.36956 0.0
C964 C 0.65435 0.78883 0.39233 0.0
C965 C 0.65439 0.78281 0.41912 0.0
H966 H 0.2664 0.94423 0.42157 0.0
C967 C 0.27645 0.94215 0.41038 0.0
H968 H 0.28643 0.92359 0.40141 0.0
H969 H 0.25804 0.88823 0.51915 0.0
H970 H 0.29135 0.90281 0.52619 0.0
H971 H 0.31234 0.92134 0.48957 0.0
H972 H 0.30013 0.92538 0.44572 0.0
C973 C 0.27614 0.92573 0.41171 0.0
C974 C 0.26353 0.91142 0.43091 0.0
C975 C 0.27095 0.90881 0.45603 0.0
C976 C 0.25888 0.89824 0.47715 0.0
C977 C 0.2666 0.89625 0.50245 0.0
C978 C 0.2857 0.9045 0.50675 0.0
C979 C 0.29751 0.91492 0.48612 0.0
C980 C 0.29031 0.91714 0.46105 0.0
H981 H 0.21784 0.85422 0.48663 0.0
C982 C 0.21859 0.86431 0.50224 0.0
H983 H 0.2279 0.89285 0.51201 0.0
H984 H 0.24506 0.91058 0.38289 0.0
H985 H 0.21163 0.89502 0.37517 0.0
H986 H 0.19063 0.8772 0.41227 0.0
H987 H 0.20292 0.87468 0.45722 0.0
C988 C 0.22749 0.88266 0.49695 0.0
C989 C 0.23949 0.89023 0.47292 0.0
C990 C 0.23203 0.89147 0.44693 0.0
C991 C 0.24411 0.90201 0.42575 0.0
C992 C 0.23642 0.90305 0.39984 0.0
C993 C 0.2173 0.89412 0.39513 0.0
C994 C 0.20547 0.88407 0.41601 0.0
C995 C 0.21268 0.88274 0.4417 0.0
H996 H 0.08996 0.35235 0.36894 0.0
C997 C 0.07551 0.34132 0.36813 0.0
H998 H 0.05479 0.31823 0.38873 0.0
H999 H 0.11372 0.3064 0.45737 0.0
H1000 H 0.09837 0.27802 0.42816 0.0
H1001 H 0.07527 0.27396 0.39176 0.0
H1002 H 0.06731 0.29819 0.38438 0.0
C1003 C 0.06888 0.32999 0.38966 0.0
C1004 C 0.08155 0.33179 0.41335 0.0
C1005 C 0.08588 0.31737 0.41755 0.0
C1006 C 0.09919 0.31968 0.43856 0.0
C1007 C 0.10353 0.30524 0.44196 0.0
C1008 C 0.09489 0.28892 0.42526 0.0
C1009 C 0.08189 0.28664 0.40475 0.0
C1010 C 0.07743 0.30067 0.40078 0.0
H1011 H 0.10014 0.32062 0.50371 0.0
C1012 C 0.11498 0.32998 0.50221 0.0
H1013 H 0.13581 0.34932 0.47688 0.0
H1014 H 0.07465 0.36104 0.41341 0.0
H1015 H 0.08998 0.38933 0.44272 0.0
H1016 H 0.11388 0.39381 0.47797 0.0
H1017 H 0.12249 0.36996 0.48425 0.0
C1018 C 0.12137 0.33857 0.47828 0.0
C1019 C 0.1081 0.33636 0.45536 0.0
C1020 C 0.10361 0.35067 0.45142 0.0
C1021 C 0.09012 0.34828 0.43069 0.0
C1022 C 0.08526 0.36241 0.42815 0.0
C1023 C 0.09384 0.37866 0.44502 0.0
C1024 C 0.10727 0.38116 0.46489 0.0
C1025 C 0.1121 0.36736 0.46824 0.0
H1026 H 0.05971 0.28939 0.2755 0.0
C1027 C 0.05897 0.30147 0.26844 0.0
H1028 H 0.07008 0.32471 0.24266 0.0
H1029 H 0.14845 0.3377 0.22399 0.0
H1030 H 0.15542 0.36327 0.25664 0.0
H1031 H 0.13056 0.36429 0.28202 0.0
H1032 H 0.09852 0.33978 0.27457 0.0
C1033 C 0.07056 0.31242 0.24938 0.0
C1034 C 0.08543 0.30945 0.23847 0.0
C1035 C 0.10414 0.32351 0.2438 0.0
C1036 C 0.11848 0.32272 0.22956 0.0
C1037 C 0.13698 0.33743 0.23435 0.0
C1038 C 0.1412 0.35222 0.25311 0.0
C1039 C 0.1272 0.35281 0.26738 0.0
C1040 C 0.10887 0.33868 0.26283 0.0
H1041 H 0.11041 0.30907 0.15678 0.0
C1042 C 0.12412 0.31136 0.16249 0.0
H1043 H 0.1414 0.31288 0.19652 0.0
H1044 H 0.051 0.27941 0.22425 0.0
H1045 H 0.04454 0.25229 0.19539 0.0
H1046 H 0.06989 0.24972 0.17422 0.0
H1047 H 0.10192 0.27467 0.18137 0.0
C1048 C 0.12775 0.30983 0.18935 0.0
C1049 C 0.11401 0.30775 0.21023 0.0
C1050 C 0.09561 0.29253 0.20764 0.0
C1051 C 0.08115 0.29361 0.22104 0.0
C1052 C 0.06267 0.27902 0.21573 0.0
C1053 C 0.05874 0.26339 0.199 0.0
C1054 C 0.073 0.26197 0.187 0.0
C1055 C 0.09125 0.27637 0.19112 0.0
H1056 H 0.66765 0.72765 0.25182 0.0
C1057 C 0.67968 0.7298 0.26415 0.0
H1058 H 0.70737 0.74902 0.27681 0.0
H1059 H 0.71718 0.79283 0.16533 0.0
H1060 H 0.73908 0.78177 0.16024 0.0
H1061 H 0.74168 0.76158 0.1951 0.0
H1062 H 0.72245 0.75235 0.23526 0.0
C1063 C 0.69507 0.74672 0.26515 0.0
C1064 C 0.69613 0.76182 0.24744 0.0
C1065 C 0.7078 0.7674 0.22449 0.0
C1066 C 0.70618 0.77888 0.20428 0.0
C1067 C 0.7177 0.78394 0.18115 0.0
C1068 C 0.73037 0.77775 0.17802 0.0
C1069 C 0.73184 0.76639 0.19766 0.0
C1070 C 0.7207 0.76119 0.22063 0.0
H1071 H 0.70067 0.82059 0.19977 0.0
C1072 C 0.69447 0.81142 0.18147 0.0
H1073 H 0.68197 0.78364 0.16505 0.0
H1074 H 0.67488 0.75715 0.2922 0.0
H1075 H 0.6534 0.76876 0.29781 0.0
H1076 H 0.64963 0.78761 0.26176 0.0
H1077 H 0.66747 0.79517 0.22006 0.0
C1078 C 0.68862 0.793 0.18298 0.0
C1079 C 0.69294 0.78476 0.20712 0.0
C1080 C 0.68236 0.78047 0.23121 0.0
C1081 C 0.68414 0.76917 0.25162 0.0
C1082 C 0.67363 0.76525 0.27573 0.0
C1083 C 0.66136 0.77191 0.27926 0.0
C1084 C 0.65926 0.78255 0.25898 0.0
C1085 C 0.66958 0.7868 0.23515 0.0
H1086 H 0.24955 0.95174 0.29687 0.0
C1087 C 0.26351 0.95424 0.30087 0.0
H1088 H 0.2833 0.94678 0.28887 0.0
H1089 H 0.20776 0.87112 0.24391 0.0
H1090 H 0.20569 0.86309 0.29238 0.0
H1091 H 0.22723 0.88598 0.32801 0.0
H1092 H 0.25098 0.917 0.31542 0.0
C1093 C 0.26968 0.94513 0.28494 0.0
C1094 C 0.25715 0.93111 0.26327 0.0
C1095 C 0.2434 0.91297 0.27098 0.0
C1096 C 0.23104 0.89972 0.25043 0.0
C1097 C 0.21749 0.88171 0.25869 0.0
C1098 C 0.21615 0.87692 0.28644 0.0
C1099 C 0.22827 0.88981 0.3065 0.0
C1100 C 0.2418 0.90761 0.29898 0.0
H1101 H 0.24306 0.88886 0.18432 0.0
C1102 C 0.22818 0.8834 0.18249 0.0
H1103 H 0.20596 0.88544 0.19928 0.0
H1104 H 0.28196 0.96453 0.24174 0.0
H1105 H 0.28367 0.97287 0.19341 0.0
H1106 H 0.26173 0.95028 0.1579 0.0
H1107 H 0.23801 0.9192 0.17035 0.0
C1108 C 0.22066 0.89012 0.20045 0.0
C1109 C 0.23261 0.90453 0.22218 0.0
C1110 C 0.24614 0.92282 0.21456 0.0
C1111 C 0.25857 0.93602 0.23511 0.0
C1112 C 0.27211 0.95405 0.22694 0.0
C1113 C 0.27324 0.95901 0.1993 0.0
C1114 C 0.2609 0.94627 0.17929 0.0
C1115 C 0.24744 0.92841 0.18671 0.0
H1116 H 0.67108 0.95282 0.28644 0.0
C1117 C 0.68213 0.95505 0.30116 0.0
H1118 H 0.70543 0.95172 0.30848 0.0
H1119 H 0.65774 0.88733 0.20878 0.0
H1120 H 0.63497 0.87175 0.24351 0.0
H1121 H 0.63865 0.88657 0.28992 0.0
H1122 H 0.66489 0.91727 0.30155 0.0
C1123 C 0.69409 0.94928 0.29426 0.0
C1124 C 0.69254 0.93963 0.26706 0.0
C1125 C 0.67757 0.92125 0.26109 0.0
C1126 C 0.67601 0.91225 0.23486 0.0
C1127 C 0.66019 0.89447 0.22878 0.0
C1128 C 0.64689 0.8854 0.24849 0.0
C1129 C 0.64891 0.89377 0.27456 0.0
C1130 C 0.66402 0.91147 0.2809 0.0
H1131 H 0.69129 0.89005 0.20288 0.0
C1132 C 0.68891 0.89608 0.18444 0.0
H1133 H 0.6874 0.91944 0.16967 0.0
H1134 H 0.72303 0.97471 0.27205 0.0
H1135 H 0.74656 0.98987 0.23799 0.0
H1136 H 0.74461 0.97376 0.19332 0.0
H1137 H 0.71912 0.94242 0.1824 0.0
C1138 C 0.68838 0.91213 0.18751 0.0
C1139 C 0.68999 0.92124 0.21524 0.0
C1140 C 0.70511 0.93948 0.22144 0.0
C1141 C 0.70636 0.94869 0.24734 0.0
C1142 C 0.72149 0.967 0.25282 0.0
C1143 C 0.73509 0.97588 0.23343 0.0
C1144 C 0.73398 0.96682 0.20828 0.0
C1145 C 0.71922 0.94884 0.20224 0.0
H1146 H 0.06454 0.74437 0.28474 0.0
C1147 C 0.06586 0.73188 0.28524 0.0
H1148 H 0.08041 0.71872 0.27082 0.0
H1149 H 0.09973 0.76286 0.15984 0.0
H1150 H 0.07716 0.73158 0.14335 0.0
H1151 H 0.06054 0.70646 0.17622 0.0
H1152 H 0.06633 0.71265 0.22576 0.0
C1153 C 0.07933 0.73133 0.27131 0.0
C1154 C 0.0906 0.74632 0.25193 0.0
C1155 C 0.08719 0.74241 0.223 0.0
C1156 C 0.09669 0.75693 0.2041 0.0
C1157 C 0.09288 0.75256 0.17526 0.0
C1158 C 0.07995 0.73456 0.16544 0.0
C1159 C 0.07059 0.72043 0.18393 0.0
C1160 C 0.07409 0.72421 0.21237 0.0
H1161 H 0.1459 0.79604 0.20227 0.0
C1162 C 0.13675 0.79826 0.18844 0.0
H1163 H 0.10957 0.79294 0.18035 0.0
H1164 H 0.1018 0.75782 0.30596 0.0
H1165 H 0.12403 0.78941 0.32281 0.0
H1166 H 0.13951 0.81503 0.2902 0.0
H1167 H 0.13308 0.80919 0.24056 0.0
C1168 C 0.11867 0.7905 0.19393 0.0
C1169 C 0.10967 0.77537 0.21418 0.0
C1170 C 0.11335 0.77918 0.24315 0.0
C1171 C 0.10396 0.76455 0.26204 0.0
C1172 C 0.1082 0.76855 0.29081 0.0
C1173 C 0.12097 0.78659 0.30073 0.0
C1174 C 0.12973 0.801 0.28235 0.0
C1175 C 0.12599 0.79744 0.25389 0.0
H1176 H 0.29059 0.34824 0.29842 0.0
C1177 C 0.28064 0.33856 0.31268 0.0
H1178 H 0.2523 0.32056 0.32 0.0
H1179 H 0.22463 0.36087 0.2374 0.0
H1180 H 0.21763 0.36956 0.28191 0.0
H1181 H 0.22784 0.36177 0.3256 0.0
H1182 H 0.24521 0.34537 0.32502 0.0
C1183 C 0.26248 0.32961 0.30548 0.0
C1184 C 0.25558 0.33336 0.27899 0.0
C1185 C 0.24508 0.34261 0.27969 0.0
C1186 C 0.23895 0.34687 0.2545 0.0
C1187 C 0.22918 0.35682 0.25585 0.0
C1188 C 0.22517 0.36202 0.28129 0.0
C1189 C 0.23094 0.35765 0.30588 0.0
C1190 C 0.24086 0.34817 0.30523 0.0
H1191 H 0.2085 0.32898 0.20755 0.0
C1192 C 0.21916 0.33754 0.19327 0.0
H1193 H 0.24788 0.35495 0.18815 0.0
H1194 H 0.27358 0.3136 0.2703 0.0
H1195 H 0.28039 0.30468 0.22586 0.0
H1196 H 0.27023 0.31246 0.18217 0.0
H1197 H 0.25309 0.32906 0.18264 0.0
C1198 C 0.23708 0.34607 0.20197 0.0
C1199 C 0.24306 0.34155 0.22865 0.0
C1200 C 0.25335 0.33206 0.22798 0.0
C1201 C 0.25947 0.32781 0.25316 0.0
C1202 C 0.26909 0.3177 0.25184 0.0
C1203 C 0.27297 0.31235 0.22644 0.0
C1204 C 0.26723 0.31671 0.20185 0.0
C1205 C 0.25745 0.32634 0.20246 0.0
H1206 H 0.27493 0.34892 0.43284 0.0
C1207 C 0.28562 0.36143 0.42339 0.0
H1208 H 0.29519 0.38992 0.41527 0.0
H1209 H 0.20624 0.34528 0.45378 0.0
H1210 H 0.19914 0.33041 0.40752 0.0
H1211 H 0.22407 0.33748 0.37499 0.0
H1212 H 0.25628 0.35927 0.38862 0.0
C1213 C 0.28442 0.3771 0.42384 0.0
C1214 C 0.26925 0.37742 0.43908 0.0
C1215 C 0.25052 0.36527 0.4304 0.0
C1216 C 0.23615 0.36145 0.44893 0.0
C1217 C 0.21763 0.34863 0.44034 0.0
C1218 C 0.2134 0.34009 0.41388 0.0
C1219 C 0.22744 0.34405 0.39557 0.0
C1220 C 0.24584 0.35647 0.40364 0.0
H1221 H 0.21471 0.37853 0.49383 0.0
C1222 C 0.21575 0.36805 0.50585 0.0
H1223 H 0.22746 0.35053 0.50909 0.0
H1224 H 0.3033 0.40463 0.45948 0.0
H1225 H 0.31006 0.42119 0.50424 0.0
H1226 H 0.28505 0.41467 0.5363 0.0
H1227 H 0.2531 0.39157 0.52375 0.0
C1228 C 0.22711 0.36173 0.49803 0.0
C1229 C 0.24056 0.37007 0.47579 0.0
C1230 C 0.25901 0.38404 0.48303 0.0
C1231 C 0.27341 0.38779 0.46456 0.0
C1232 C 0.29184 0.40126 0.47274 0.0
C1233 C 0.2959 0.41087 0.49835 0.0
C1234 C 0.28181 0.4072 0.51641 0.0
C1235 C 0.26356 0.3939 0.509 0.0
H1236 H 0.64656 0.92119 0.41415 0.0
C1237 C 0.6597 0.93417 0.41304 0.0
H1238 H 0.68797 0.94875 0.4256 0.0
H1239 H 0.67543 0.9041 0.53516 0.0
H1240 H 0.68325 0.93481 0.55328 0.0
H1241 H 0.68688 0.95962 0.52182 0.0
H1242 H 0.68269 0.95373 0.47209 0.0
C1243 C 0.67491 0.93564 0.42573 0.0
C1244 C 0.67367 0.92076 0.44418 0.0
C1245 C 0.67633 0.92447 0.47323 0.0
C1246 C 0.67396 0.91008 0.49137 0.0
C1247 C 0.67671 0.91429 0.52034 0.0
C1248 C 0.6813 0.93196 0.53108 0.0
C1249 C 0.68336 0.94591 0.51338 0.0
C1250 C 0.68094 0.94231 0.48481 0.0
H1251 H 0.68443 0.86951 0.48869 0.0
C1252 C 0.67412 0.86778 0.50349 0.0
H1253 H 0.65382 0.87437 0.51522 0.0
H1254 H 0.66998 0.90977 0.38947 0.0
H1255 H 0.66112 0.87862 0.37116 0.0
H1256 H 0.65506 0.85304 0.40265 0.0
H1257 H 0.65811 0.8585 0.45254 0.0
C1258 C 0.66425 0.8766 0.50027 0.0
C1259 C 0.66882 0.89189 0.48048 0.0
C1260 C 0.66653 0.88828 0.45135 0.0
C1261 C 0.66928 0.90284 0.43317 0.0
C1262 C 0.66749 0.89906 0.40417 0.0
C1263 C 0.6625 0.88128 0.3934 0.0
C1264 C 0.65914 0.86689 0.41113 0.0
C1265 C 0.66105 0.87025 0.43977 0.0
H1266 H 0.06739 0.7127 0.40923 0.0
C1267 C 0.07545 0.71035 0.3939 0.0
H1268 H 0.10186 0.71469 0.3841 0.0
H1269 H 0.14286 0.78746 0.4627 0.0
H1270 H 0.15145 0.80042 0.41723 0.0
H1271 H 0.13813 0.78034 0.37484 0.0
H1272 H 0.11608 0.74719 0.37773 0.0
C1273 C 0.09346 0.71632 0.39958 0.0
C1274 C 0.10298 0.72773 0.42526 0.0
C1275 C 0.11637 0.74698 0.4232 0.0
C1276 C 0.12424 0.75852 0.44766 0.0
C1277 C 0.1368 0.77791 0.44493 0.0
C1278 C 0.14178 0.78558 0.41889 0.0
C1279 C 0.13427 0.77428 0.39503 0.0
C1280 C 0.12165 0.75524 0.39702 0.0
H1281 H 0.15319 0.77052 0.49882 0.0
C1282 C 0.14257 0.7715 0.51016 0.0
H1283 H 0.11441 0.76429 0.51025 0.0
H1284 H 0.07976 0.69087 0.43645 0.0
H1285 H 0.07122 0.67779 0.48201 0.0
H1286 H 0.08439 0.69788 0.52444 0.0
H1287 H 0.10634 0.73112 0.52158 0.0
C1288 C 0.12503 0.76286 0.4997 0.0
C1289 C 0.11891 0.75066 0.47411 0.0
C1290 C 0.10604 0.73128 0.47614 0.0
C1291 C 0.0982 0.71975 0.4517 0.0
C1292 C 0.08573 0.70035 0.45435 0.0
C1293 C 0.08081 0.69264 0.48038 0.0
C1294 C 0.08824 0.70395 0.50427 0.0
C1295 C 0.10077 0.72302 0.50231 0.0
H1296 H 0.32141 0.05555 0.707 0.0
C1297 C 0.33453 0.05644 0.70235 0.0
H1298 H 0.36311 0.0697 0.71295 0.0
H1299 H 0.32699 0.11938 0.76942 0.0
H1300 H 0.32195 0.12552 0.72202 0.0
H1301 H 0.33021 0.11189 0.68269 0.0
H1302 H 0.34318 0.09166 0.69056 0.0
C1303 C 0.34981 0.06837 0.71751 0.0
C1304 C 0.3488 0.07995 0.74085 0.0
C1305 C 0.34244 0.0928 0.7359 0.0
C1306 C 0.3387 0.10157 0.7586 0.0
C1307 C 0.33087 0.11303 0.75303 0.0
C1308 C 0.32781 0.1166 0.72588 0.0
C1309 C 0.3324 0.10887 0.70373 0.0
C1310 C 0.33965 0.09713 0.70855 0.0
H1311 H 0.35511 0.13462 0.80331 0.0
C1312 C 0.34567 0.12438 0.81748 0.0
H1313 H 0.32752 0.09572 0.82431 0.0
H1314 H 0.363 0.05788 0.75745 0.0
H1315 H 0.37078 0.05401 0.8047 0.0
H1316 H 0.36618 0.07074 0.84393 0.0
H1317 H 0.35366 0.09131 0.83619 0.0
C1318 C 0.33722 0.10596 0.8104 0.0
C1319 C 0.34249 0.09841 0.78616 0.0
C1320 C 0.35035 0.08683 0.79097 0.0
C1321 C 0.35337 0.07747 0.76832 0.0
C1322 C 0.36063 0.0655 0.77385 0.0
C1323 C 0.36516 0.06314 0.80088 0.0
C1324 C 0.36255 0.07255 0.82297 0.0
C1325 C 0.35525 0.08425 0.81822 0.0
H1326 H 0.95072 0.26532 0.75146 0.0
C1327 C 0.94806 0.27686 0.74867 0.0
H1328 H 0.93048 0.28769 0.75781 0.0
H1329 H 0.88155 0.19703 0.78808 0.0
H1330 H 0.87815 0.19098 0.73824 0.0
H1331 H 0.89413 0.21682 0.70613 0.0
H1332 H 0.91378 0.24886 0.72369 0.0
C1333 C 0.93297 0.27599 0.75941 0.0
C1334 C 0.92137 0.26072 0.77817 0.0
C1335 C 0.9095 0.24219 0.76757 0.0
C1336 C 0.89984 0.22738 0.78609 0.0
C1337 C 0.88874 0.20889 0.77497 0.0
C1338 C 0.88676 0.20521 0.74639 0.0
C1339 C 0.8958 0.21974 0.7283 0.0
C1340 C 0.90708 0.23805 0.73864 0.0
H1341 H 0.8651 0.2084 0.82265 0.0
C1342 C 0.874 0.20706 0.83815 0.0
H1343 H 0.90128 0.21441 0.85041 0.0
H1344 H 0.9425 0.2949 0.80506 0.0
H1345 H 0.94572 0.30117 0.85474 0.0
H1346 H 0.92898 0.27564 0.88696 0.0
H1347 H 0.9087 0.24393 0.86971 0.0
C1348 C 0.89245 0.21603 0.83511 0.0
C1349 C 0.9018 0.23128 0.81513 0.0
C1350 C 0.91342 0.24996 0.82565 0.0
C1351 C 0.92311 0.26468 0.80713 0.0
C1352 C 0.93475 0.28316 0.81818 0.0
C1353 C 0.93675 0.28699 0.84668 0.0
C1354 C 0.92729 0.27264 0.8648 0.0
C1355 C 0.9157 0.25439 0.85455 0.0
H1356 H 0.76093 0.68481 0.69679 0.0
C1357 C 0.74612 0.6751 0.69755 0.0
H1358 H 0.72483 0.65486 0.72134 0.0
H1359 H 0.77924 0.639 0.79432 0.0
H1360 H 0.76202 0.60981 0.76719 0.0
H1361 H 0.7403 0.60669 0.72909 0.0
H1362 H 0.73554 0.63262 0.71797 0.0
C1363 C 0.73938 0.66545 0.72063 0.0
C1364 C 0.75214 0.66729 0.74421 0.0
C1365 C 0.75483 0.652 0.75033 0.0
C1366 C 0.76749 0.65384 0.77213 0.0
C1367 C 0.76981 0.63833 0.77794 0.0
C1368 C 0.76005 0.62153 0.76251 0.0
C1369 C 0.74781 0.61976 0.74106 0.0
C1370 C 0.7452 0.63477 0.73492 0.0
H1371 H 0.76947 0.67133 0.83936 0.0
C1372 C 0.78293 0.67226 0.83804 0.0
H1373 H 0.80232 0.67309 0.80941 0.0
H1374 H 0.74918 0.69886 0.7397 0.0
H1375 H 0.76724 0.7283 0.76574 0.0
H1376 H 0.79059 0.73206 0.8015 0.0
H1377 H 0.79581 0.70628 0.81169 0.0
C1378 C 0.78906 0.67217 0.81256 0.0
C1379 C 0.77741 0.67093 0.7878 0.0
C1380 C 0.77505 0.68637 0.78128 0.0
C1381 C 0.76213 0.68443 0.75988 0.0
C1382 C 0.75932 0.69976 0.75495 0.0
C1383 C 0.7695 0.71671 0.7699 0.0
C1384 C 0.7826 0.71881 0.7901 0.0
C1385 C 0.78539 0.70386 0.79584 0.0
H1386 H 0.72008 0.61689 0.61189 0.0
C1387 C 0.72076 0.62933 0.60336 0.0
H1388 H 0.73351 0.65106 0.5752 0.0
H1389 H 0.80854 0.65659 0.55789 0.0
H1390 H 0.8178 0.68253 0.59091 0.0
H1391 H 0.79448 0.68597 0.617 0.0
H1392 H 0.7617 0.66348 0.60993 0.0
C1393 C 0.73258 0.63842 0.58337 0.0
C1394 C 0.74623 0.63324 0.57356 0.0
C1395 C 0.76533 0.64605 0.57868 0.0
C1396 C 0.77875 0.6439 0.56394 0.0
C1397 C 0.79771 0.65744 0.56852 0.0
C1398 C 0.80324 0.6724 0.58752 0.0
C1399 C 0.79011 0.67435 0.6022 0.0
C1400 C 0.77136 0.6614 0.59787 0.0
H1401 H 0.76746 0.63035 0.49133 0.0
C1402 C 0.78124 0.63239 0.49559 0.0
H1403 H 0.79937 0.633 0.52759 0.0
H1404 H 0.71073 0.60463 0.56143 0.0
H1405 H 0.70184 0.57689 0.53231 0.0
H1406 H 0.72546 0.57217 0.50946 0.0
H1407 H 0.75823 0.59554 0.51525 0.0
C1408 C 0.78564 0.6304 0.52186 0.0
C1409 C 0.77292 0.62887 0.54418 0.0
C1410 C 0.75407 0.61458 0.54231 0.0
C1411 C 0.74057 0.61697 0.55642 0.0
C1412 C 0.72166 0.60328 0.55202 0.0
C1413 C 0.71635 0.5873 0.53524 0.0
C1414 C 0.72965 0.58466 0.52231 0.0
C1415 C 0.74832 0.59814 0.52567 0.0
H1416 H 0.34724 0.06649 0.58267 0.0
C1417 C 0.35991 0.06941 0.59386 0.0
H1418 H 0.38809 0.08947 0.60268 0.0
H1419 H 0.3822 0.12247 0.48454 0.0
H1420 H 0.39497 0.10311 0.46941 0.0
H1421 H 0.39911 0.08266 0.50207 0.0
H1422 H 0.39041 0.08139 0.55004 0.0
C1423 C 0.37513 0.08634 0.59223 0.0
C1424 C 0.37495 0.10053 0.57385 0.0
C1425 C 0.3806 0.1015 0.54619 0.0
C1426 C 0.37818 0.11323 0.52739 0.0
C1427 C 0.38357 0.11364 0.49964 0.0
C1428 C 0.39099 0.10266 0.49071 0.0
C1429 C 0.39331 0.09115 0.5091 0.0
C1430 C 0.38824 0.09053 0.53655 0.0
H1431 H 0.38358 0.16098 0.52427 0.0
C1432 C 0.37256 0.15101 0.51015 0.0
H1433 H 0.35239 0.12275 0.50137 0.0
H1434 H 0.3649 0.10354 0.62637 0.0
H1435 H 0.35219 0.12298 0.64164 0.0
H1436 H 0.34744 0.14298 0.60881 0.0
H1437 H 0.35556 0.14383 0.56057 0.0
C1438 C 0.36382 0.13255 0.51504 0.0
C1439 C 0.37016 0.12401 0.53632 0.0
C1440 C 0.36553 0.12389 0.56443 0.0
C1441 C 0.36802 0.11217 0.58328 0.0
C1442 C 0.36311 0.11209 0.61119 0.0
C1443 C 0.35583 0.12318 0.6202 0.0
C1444 C 0.35318 0.13446 0.60171 0.0
C1445 C 0.3579 0.13483 0.5741 0.0
H1446 H 0.95208 0.28925 0.62128 0.0
C1447 C 0.94208 0.28953 0.63507 0.0
H1448 H 0.9137 0.27925 0.64199 0.0
H1449 H 0.91272 0.26447 0.50579 0.0
H1450 H 0.92939 0.29841 0.50325 0.0
H1451 H 0.94014 0.31859 0.54569 0.0
H1452 H 0.93439 0.3051 0.59109 0.0
C1453 C 0.92391 0.27976 0.62788 0.0
C1454 C 0.91694 0.2677 0.60212 0.0
C1455 C 0.92024 0.27583 0.57573 0.0
C1456 C 0.91382 0.26414 0.55124 0.0
C1457 C 0.91735 0.27266 0.52512 0.0
C1458 C 0.92684 0.2921 0.52331 0.0
C1459 C 0.93291 0.3035 0.54723 0.0
C1460 C 0.92962 0.29555 0.57318 0.0
H1461 H 0.86956 0.22002 0.53214 0.0
C1462 C 0.88046 0.22127 0.51886 0.0
H1463 H 0.90941 0.2334 0.51486 0.0
H1464 H 0.90772 0.24766 0.64957 0.0
H1465 H 0.89105 0.2138 0.65234 0.0
H1466 H 0.88051 0.1935 0.6099 0.0
H1467 H 0.88643 0.20689 0.56446 0.0
C1468 C 0.89829 0.23236 0.52735 0.0
C1469 C 0.90387 0.24434 0.55319 0.0
C1470 C 0.9004 0.23621 0.57963 0.0
C1471 C 0.90677 0.24792 0.60412 0.0
C1472 C 0.90317 0.23945 0.63028 0.0
C1473 C 0.89366 0.22003 0.63219 0.0
C1474 C 0.88771 0.20859 0.6083 0.0
C1475 C 0.89109 0.2165 0.58229 0.0
H1476 H 0.33438 0.28897 0.61949 0.0
C1477 C 0.34393 0.28889 0.63514 0.0
H1478 H 0.36129 0.27797 0.64619 0.0
H1479 H 0.32223 0.20708 0.5648 0.0
H1480 H 0.31185 0.19283 0.60923 0.0
H1481 H 0.31813 0.21242 0.65188 0.0
H1482 H 0.33474 0.24635 0.65034 0.0
C1483 C 0.3524 0.27889 0.63022 0.0
C1484 C 0.34857 0.26724 0.60429 0.0
C1485 C 0.33911 0.2474 0.60561 0.0
C1486 C 0.33568 0.23609 0.58107 0.0
C1487 C 0.32563 0.21633 0.58288 0.0
C1488 C 0.31948 0.20797 0.60824 0.0
C1489 C 0.323 0.21899 0.63224 0.0
C1490 C 0.33262 0.23847 0.63107 0.0
H1491 H 0.35537 0.22187 0.54193 0.0
C1492 C 0.34765 0.22356 0.52486 0.0
H1493 H 0.33063 0.23466 0.5127 0.0
H1494 H 0.36829 0.30487 0.59473 0.0
H1495 H 0.37845 0.3191 0.55033 0.0
H1496 H 0.37206 0.29956 0.50766 0.0
H1497 H 0.35566 0.26569 0.50917 0.0
C1498 C 0.33873 0.23318 0.52938 0.0
C1499 C 0.34196 0.24467 0.55531 0.0
C1500 C 0.35132 0.26452 0.55396 0.0
C1501 C 0.35478 0.27581 0.5785 0.0
C1502 C 0.36482 0.29559 0.57668 0.0
C1503 C 0.37087 0.30397 0.55132 0.0
C1504 C 0.36729 0.29297 0.5273 0.0
C1505 C 0.35776 0.27349 0.52849 0.0
H1506 H 0.73023 0.06694 0.60093 0.0
C1507 C 0.73248 0.05528 0.60516 0.0
H1508 H 0.74964 0.04356 0.59886 0.0
H1509 H 0.77769 0.08417 0.48581 0.0
H1510 H 0.75974 0.05159 0.47034 0.0
H1511 H 0.74157 0.02702 0.50329 0.0
H1512 H 0.74141 0.03492 0.55187 0.0
C1513 C 0.74756 0.05542 0.59569 0.0
C1514 C 0.75992 0.07013 0.57669 0.0
C1515 C 0.75996 0.06518 0.5484 0.0
C1516 C 0.77009 0.07937 0.52932 0.0
C1517 C 0.76995 0.07404 0.50114 0.0
C1518 C 0.75976 0.05535 0.49198 0.0
C1519 C 0.74955 0.04152 0.51052 0.0
C1520 C 0.7496 0.04628 0.53841 0.0
H1521 H 0.81612 0.12332 0.52925 0.0
C1522 C 0.80641 0.12339 0.51389 0.0
H1523 H 0.77841 0.11347 0.50235 0.0
H1524 H 0.76509 0.0839 0.6302 0.0
H1525 H 0.78263 0.11666 0.64558 0.0
H1526 H 0.7988 0.14149 0.61201 0.0
H1527 H 0.79777 0.13371 0.56297 0.0
C1528 C 0.78808 0.11308 0.51745 0.0
C1529 C 0.77998 0.09847 0.5385 0.0
C1530 C 0.78056 0.10336 0.56697 0.0
C1531 C 0.77072 0.08911 0.58619 0.0
C1532 C 0.77186 0.09425 0.61464 0.0
C1533 C 0.78195 0.11297 0.62375 0.0
C1534 C 0.79109 0.12695 0.60486 0.0
C1535 C 0.79043 0.12229 0.57676 0.0
H1536 H 0.9529 0.68424 0.62544 0.0
C1537 C 0.94318 0.67477 0.64013 0.0
H1538 H 0.91507 0.65587 0.64763 0.0
H1539 H 0.8842 0.69022 0.55965 0.0
H1540 H 0.87716 0.70044 0.60285 0.0
H1541 H 0.88854 0.69548 0.64775 0.0
H1542 H 0.90715 0.6804 0.64972 0.0
C1543 C 0.92506 0.66471 0.63274 0.0
C1544 C 0.91778 0.66705 0.60553 0.0
C1545 C 0.90657 0.67553 0.60477 0.0
C1546 C 0.89974 0.67812 0.57889 0.0
C1547 C 0.88927 0.68738 0.57873 0.0
C1548 C 0.88524 0.69345 0.60338 0.0
C1549 C 0.89167 0.69068 0.62866 0.0
C1550 C 0.90229 0.68193 0.62948 0.0
H1551 H 0.86859 0.65647 0.53462 0.0
C1552 C 0.87851 0.66459 0.51916 0.0
H1553 H 0.90683 0.68276 0.51167 0.0
H1554 H 0.93753 0.64882 0.59974 0.0
H1555 H 0.94442 0.63843 0.55659 0.0
H1556 H 0.93285 0.64315 0.51169 0.0
H1557 H 0.91424 0.6582 0.50968 0.0
C1558 C 0.89667 0.67422 0.52653 0.0
C1559 C 0.9038 0.67183 0.55385 0.0
C1560 C 0.91496 0.66329 0.55462 0.0
C1561 C 0.92184 0.66076 0.58049 0.0
C1562 C 0.93236 0.65156 0.58066 0.0
C1563 C 0.93632 0.64539 0.55604 0.0
C1564 C 0.92979 0.64803 0.53076 0.0
C1565 C 0.91916 0.65677 0.52993 0.0
H1566 H 0.94645 0.71634 0.74338 0.0
C1567 C 0.94682 0.70363 0.74781 0.0
H1568 H 0.9342 0.67791 0.76801 0.0
H1569 H 0.90132 0.72343 0.83973 0.0
H1570 H 0.93326 0.74737 0.85078 0.0
H1571 H 0.95905 0.74603 0.82886 0.0
H1572 H 0.95315 0.72128 0.79538 0.0
C1573 C 0.93406 0.69078 0.76392 0.0
C1574 C 0.91892 0.69295 0.77594 0.0
C1575 C 0.92286 0.7073 0.79628 0.0
C1576 C 0.90811 0.70748 0.81021 0.0
C1577 C 0.91218 0.72232 0.82949 0.0
C1578 C 0.93039 0.73616 0.83588 0.0
C1579 C 0.9449 0.73544 0.82345 0.0
C1580 C 0.94128 0.72118 0.804 0.0
H1581 H 0.89135 0.68612 0.85726 0.0
C1582 C 0.87832 0.68569 0.85238 0.0
H1583 H 0.86241 0.68812 0.81938 0.0
H1584 H 0.90644 0.66556 0.73489 0.0
H1585 H 0.87443 0.64194 0.72406 0.0
H1586 H 0.84907 0.64121 0.7504 0.0
H1587 H 0.85552 0.66422 0.78751 0.0
C1588 C 0.87541 0.68923 0.82617 0.0
C1589 C 0.88967 0.69263 0.8054 0.0
C1590 C 0.8856 0.67923 0.7836 0.0
C1591 C 0.90026 0.67946 0.76874 0.0
C1592 C 0.89585 0.66583 0.74715 0.0
C1593 C 0.87755 0.65224 0.74066 0.0
C1594 C 0.86326 0.65184 0.75548 0.0
C1595 C 0.86716 0.66511 0.77677 0.0
H1596 H 0.30737 0.26551 0.75128 0.0
C1597 C 0.3215 0.27616 0.74722 0.0
H1598 H 0.34981 0.28503 0.75346 0.0
H1599 H 0.34553 0.24684 0.86527 0.0
H1600 H 0.36201 0.27964 0.87917 0.0
H1601 H 0.36482 0.30365 0.84676 0.0
H1602 H 0.35156 0.2949 0.80004 0.0
C1603 C 0.33568 0.27427 0.75697 0.0
C1604 C 0.33289 0.25934 0.77649 0.0
C1605 C 0.34029 0.26463 0.80404 0.0
C1606 C 0.3381 0.25072 0.82301 0.0
C1607 C 0.34628 0.25661 0.85009 0.0
C1608 C 0.35587 0.27548 0.85839 0.0
C1609 C 0.3575 0.28899 0.84014 0.0
C1610 C 0.34984 0.28373 0.81329 0.0
H1611 H 0.3391 0.20536 0.81333 0.0
C1612 C 0.33341 0.20632 0.83294 0.0
H1613 H 0.31962 0.21779 0.85491 0.0
H1614 H 0.31895 0.24452 0.72434 0.0
H1615 H 0.3015 0.2115 0.71066 0.0
H1616 H 0.29518 0.1872 0.74471 0.0
H1617 H 0.30669 0.19578 0.79246 0.0
C1618 C 0.32554 0.21714 0.83536 0.0
C1619 C 0.32808 0.23141 0.81466 0.0
C1620 C 0.32049 0.2261 0.78716 0.0
C1621 C 0.32331 0.24011 0.76786 0.0
C1622 C 0.31657 0.23447 0.74011 0.0
C1623 C 0.30661 0.21556 0.73194 0.0
C1624 C 0.30312 0.20188 0.75109 0.0
C1625 C 0.30992 0.207 0.77841 0.0
H1626 H 0.72394 0.04446 0.73385 0.0
C1627 C 0.73429 0.04349 0.72177 0.0
H1628 H 0.76264 0.05175 0.71921 0.0
H1629 H 0.76516 0.11763 0.80386 0.0
H1630 H 0.75457 0.12728 0.7636 0.0
H1631 H 0.74633 0.10891 0.71937 0.0
H1632 H 0.74823 0.08055 0.71538 0.0
C1633 C 0.75214 0.0528 0.73078 0.0
C1634 C 0.75826 0.06464 0.75684 0.0
C1635 C 0.75785 0.08166 0.75842 0.0
C1636 C 0.76352 0.09278 0.78351 0.0
C1637 C 0.76183 0.10907 0.78503 0.0
C1638 C 0.75564 0.11472 0.76209 0.0
C1639 C 0.75093 0.10434 0.73723 0.0
C1640 C 0.75199 0.08801 0.73529 0.0
H1641 H 0.79944 0.12168 0.81705 0.0
C1642 C 0.79107 0.11608 0.83515 0.0
H1643 H 0.7683 0.09199 0.85109 0.0
H1644 H 0.76108 0.03303 0.76053 0.0
H1645 H 0.77292 0.024 0.80022 0.0
H1646 H 0.78393 0.04391 0.84308 0.0
H1647 H 0.78312 0.07292 0.84658 0.0
C1648 C 0.77618 0.09869 0.83304 0.0
C1649 C 0.77046 0.08733 0.80653 0.0
C1650 C 0.77117 0.07049 0.80473 0.0
C1651 C 0.76505 0.05913 0.77989 0.0
C1652 C 0.76574 0.04228 0.7788 0.0
C1653 C 0.77247 0.03692 0.80144 0.0
C1654 C 0.77865 0.04811 0.82558 0.0
C1655 C 0.77806 0.06471 0.82733 0.0
H1656 H 0.06169 0.34519 0.01557 0.0
C1657 C 0.06684 0.35252 0.99642 0.0
H1658 H 0.08946 0.36477 0.96989 0.0
H1659 H 0.12525 0.36027 0.09347 0.0
H1660 H 0.11769 0.38368 0.1091 0.0
H1661 H 0.1012 0.39431 0.07785 0.0
H1662 H 0.09185 0.38127 0.03089 0.0
C1663 C 0.0843 0.35792 0.98935 0.0
C1664 C 0.09666 0.35367 0.00688 0.0
C1665 C 0.1028 0.36207 0.03384 0.0
C1666 C 0.11296 0.35645 0.0515 0.0
C1667 C 0.11794 0.36429 0.07887 0.0
C1668 C 0.11366 0.37776 0.08817 0.0
C1669 C 0.10433 0.38371 0.0706 0.0
C1670 C 0.09894 0.37602 0.04375 0.0
H1671 H 0.15236 0.35598 0.06465 0.0
C1672 C 0.14199 0.34268 0.07263 0.0
H1673 H 0.11445 0.32019 0.06818 0.0
H1674 H 0.08882 0.33633 0.95536 0.0
H1675 H 0.09795 0.31422 0.93878 0.0
H1676 H 0.11628 0.30518 0.96899 0.0
H1677 H 0.12561 0.31823 0.01607 0.0
C1678 C 0.12453 0.3341 0.06173 0.0
C1679 C 0.11751 0.34291 0.0418 0.0
C1680 C 0.1125 0.33554 0.01421 0.0
C1681 C 0.10208 0.34091 0.99671 0.0
C1682 C 0.09688 0.3329 0.96947 0.0
C1683 C 0.102 0.32016 0.9597 0.0
C1684 C 0.11231 0.31505 0.97672 0.0
C1685 C 0.11751 0.32258 0.00369 0.0
H1686 H 0.63488 0.70682 0.04808 0.0
C1687 C 0.64673 0.7047 0.04693 0.0
H1688 H 0.67599 0.71824 0.04694 0.0
H1689 H 0.68476 0.79798 0.01963 0.0
H1690 H 0.69342 0.79012 0.97568 0.0
H1691 H 0.68975 0.7588 0.9668 0.0
H1692 H 0.67746 0.73512 0.00181 0.0
C1693 C 0.66383 0.71983 0.04784 0.0
C1694 C 0.66656 0.739 0.05328 0.0
C1695 C 0.67377 0.75268 0.03268 0.0
C1696 C 0.67591 0.77078 0.0378 0.0
C1697 C 0.68303 0.78411 0.01682 0.0
C1698 C 0.68799 0.77975 0.99153 0.0
C1699 C 0.68591 0.7621 0.98652 0.0
C1700 C 0.67885 0.74865 0.00676 0.0
H1701 H 0.70235 0.80596 0.07569 0.0
C1702 C 0.69056 0.80788 0.07925 0.0
H1703 H 0.66168 0.79526 0.07566 0.0
H1704 H 0.65552 0.7174 0.09933 0.0
H1705 H 0.64687 0.72521 0.14298 0.0
H1706 H 0.64841 0.75566 0.15062 0.0
H1707 H 0.65897 0.77857 0.11492 0.0
C1708 C 0.67374 0.79429 0.06999 0.0
C1709 C 0.67072 0.77514 0.06344 0.0
C1710 C 0.66355 0.76146 0.08412 0.0
C1711 C 0.66196 0.7436 0.07934 0.0
C1712 C 0.65616 0.73082 0.10122 0.0
C1713 C 0.65132 0.73519 0.12657 0.0
C1714 C 0.65223 0.75234 0.1309 0.0
C1715 C 0.65834 0.76539 0.11011 0.0
H1716 H 0.28359 0.93433 0.97888 0.0
C1717 C 0.29615 0.94039 0.99198 0.0
H1718 H 0.30782 0.94024 0.03124 0.0
H1719 H 0.23243 0.906 0.09306 0.0
H1720 H 0.2469 0.9384 0.10925 0.0
H1721 H 0.27557 0.96262 0.08883 0.0
H1722 H 0.28992 0.95449 0.05201 0.0
C1723 C 0.2955 0.93411 0.01764 0.0
C1724 C 0.27775 0.91947 0.02888 0.0
C1725 C 0.26939 0.9245 0.05009 0.0
C1726 C 0.25275 0.91056 0.06162 0.0
C1727 C 0.24493 0.91597 0.08323 0.0
C1728 C 0.25314 0.93456 0.09282 0.0
C1729 C 0.26927 0.94818 0.08133 0.0
C1730 C 0.27736 0.94331 0.06021 0.0
H1731 H 0.24395 0.86736 0.08707 0.0
C1732 C 0.23064 0.8668 0.08541 0.0
H1733 H 0.21574 0.87818 0.06631 0.0
H1734 H 0.29063 0.90482 0.98945 0.0
H1735 H 0.27582 0.8724 0.97272 0.0
H1736 H 0.24636 0.84849 0.99163 0.0
H1737 H 0.23159 0.85687 0.02765 0.0
C1738 C 0.22816 0.87699 0.06619 0.0
C1739 C 0.2445 0.8916 0.05192 0.0
C1740 C 0.25268 0.88661 0.03042 0.0
C1741 C 0.26943 0.90052 0.01904 0.0
C1742 C 0.27767 0.89497 -0.00167 0.0
C1743 C 0.26936 0.87638 0.98863 0.0
C1744 C 0.25279 0.8629 -0.00067 0.0
C1745 C 0.24449 0.86787 0.02002 0.0
H1746 H 0.33797 0.03162 0.96948 0.0
C1747 C 0.35259 0.03762 0.97503 0.0
H1748 H 0.3782 0.06218 0.98279 0.0
H1749 H 0.36635 0.10944 0.89341 0.0
H1750 H 0.39185 0.10678 0.87585 0.0
H1751 H 0.40216 0.08681 0.89859 0.0
H1752 H 0.38705 0.06952 0.93892 0.0
C1753 C 0.36361 0.05635 0.97715 0.0
C1754 C 0.35777 0.06915 0.96485 0.0
C1755 C 0.36693 0.07931 0.94125 0.0
C1756 C 0.36071 0.09046 0.9277 0.0
C1757 C 0.37012 0.10041 0.90417 0.0
C1758 C 0.38492 0.09912 0.89393 0.0
C1759 C 0.39074 0.08792 0.90675 0.0
C1760 C 0.38193 0.0781 0.93008 0.0
H1761 H 0.3515 0.12676 0.93737 0.0
C1762 C 0.34267 0.11802 0.92001 0.0
H1763 H 0.32722 0.09049 0.9027 0.0
H1764 H 0.33895 0.05383 0.01181 0.0
H1765 H 0.31289 0.05613 0.02875 0.0
H1766 H 0.30125 0.07433 0.00389 0.0
H1767 H 0.31577 0.09059 0.96205 0.0
C1768 C 0.33644 0.09945 0.91956 0.0
C1769 C 0.34507 0.09109 0.93732 0.0
C1770 C 0.33639 0.08159 0.96149 0.0
C1771 C 0.34289 0.07078 0.97551 0.0
C1772 C 0.33425 0.0618 -0.0 0.0
C1773 C 0.31936 0.06311 0.01 0.0
C1774 C 0.31281 0.07338 0.99601 0.0
C1775 C 0.3212 0.08257 0.97202 0.0
H1776 H 0.96616 0.29422 0.96986 0.0
C1777 C 0.96189 0.30462 0.97282 0.0
H1778 H 0.93995 0.30959 0.98022 0.0
H1779 H 0.8785 0.23856 0.91422 0.0
H1780 H 0.87901 0.26398 0.88989 0.0
H1781 H 0.90219 0.29677 0.90245 0.0
H1782 H 0.92501 0.30414 0.93934 0.0
C1783 C 0.94397 0.29903 0.97701 0.0
C1784 C 0.92892 0.27912 0.97179 0.0
C1785 C 0.91531 0.27498 0.95035 0.0
C1786 C 0.90206 0.25598 0.94287 0.0
C1787 C 0.88904 0.25247 0.92085 0.0
C1788 C 0.88908 0.26704 0.90665 0.0
C1789 C 0.90209 0.28548 0.91374 0.0
C1790 C 0.9151 0.28949 0.93518 0.0
H1791 H 0.86579 0.21309 0.9537 0.0
C1792 C 0.87473 0.21051 0.94049 0.0
H1793 H 0.9022 0.21866 0.93088 0.0
H1794 H 0.9502 0.2821 0.01768 0.0
H1795 H 0.94965 0.2564 0.04245 0.0
H1796 H 0.92764 0.22352 0.02807 0.0
H1797 H 0.90581 0.21612 0.98905 0.0
C1798 C 0.89328 0.22187 0.94311 0.0
C1799 C 0.90258 0.24107 0.95656 0.0
C1800 C 0.91533 0.24528 0.97918 0.0
C1801 C 0.92833 0.26428 0.98708 0.0
C1802 C 0.94049 0.26795 0.01027 0.0
C1803 C 0.94021 0.25333 0.02477 0.0
C1804 C 0.92781 0.23481 0.01669 0.0
C1805 C 0.91545 0.23075 0.99421 0.0
H1806 H 0.7254 0.67013 0.05356 0.0
C1807 C 0.71486 0.66946 0.03912 0.0
H1808 H 0.70723 0.66923 0.99707 0.0
H1809 H 0.79841 0.70472 0.99119 0.0
H1810 H 0.80149 0.7315 0.018 0.0
H1811 H 0.77402 0.73118 0.03664 0.0
H1812 H 0.74337 0.70409 0.02888 0.0
C1813 C 0.71795 0.67072 0.01186 0.0
C1814 C 0.73476 0.67127 0.00086 0.0
C1815 C 0.75253 0.68739 0.00527 0.0
C1816 C 0.76833 0.68784 0.9938 0.0
C1817 C 0.78595 0.70391 -0.0011 0.0
C1818 C 0.7879 0.71931 0.01433 0.0
C1819 C 0.77244 0.71911 0.02488 0.0
C1820 C 0.75493 0.7034 0.02041 0.0
H1821 H 0.78044 0.69353 0.935 0.0
C1822 C 0.78664 0.68478 0.93842 0.0
H1823 H 0.78643 0.66394 0.96331 0.0
H1824 H 0.70295 0.63773 0.99012 0.0
H1825 H 0.69995 0.61127 0.96283 0.0
H1826 H 0.72717 0.61244 0.94177 0.0
H1827 H 0.75756 0.63999 0.94806 0.0
C1828 C 0.78187 0.67411 0.96078 0.0
C1829 C 0.76627 0.67243 0.97734 0.0
C1830 C 0.7486 0.65609 0.97368 0.0
C1831 C 0.73285 0.65552 0.98545 0.0
C1832 C 0.71536 0.63905 0.98136 0.0
C1833 C 0.71343 0.62372 0.96578 0.0
C1834 C 0.72875 0.62437 0.95395 0.0
C1835 C 0.74615 0.64031 0.95775 0.0
H1836 H 0.94285 0.65798 0.00284 0.0
C1837 C 0.93843 0.65206 0.02309 0.0
H1838 H 0.91715 0.64267 0.05199 0.0
H1839 H 0.8835 0.6899 -0.00153 0.0
H1840 H 0.89571 0.70652 0.04296 0.0
H1841 H 0.914 0.69819 0.07451 0.0
H1842 H 0.92022 0.67323 0.06185 0.0
C1843 C 0.92158 0.64804 0.03148 0.0
C1844 C 0.90898 0.65179 0.01366 0.0
C1845 C 0.90521 0.66619 0.02161 0.0
C1846 C 0.89477 0.67111 0.00334 0.0
C1847 C 0.89151 0.68578 0.01152 0.0
C1848 C 0.89838 0.69537 0.03699 0.0
C1849 C 0.90866 0.69065 0.05478 0.0
C1850 C 0.91211 0.67628 0.04727 0.0
H1851 H 0.85264 0.65058 0.95866 0.0
C1852 C 0.86328 0.66207 0.94742 0.0
H1853 H 0.89179 0.68196 0.94574 0.0
H1854 H 0.91052 0.62111 0.9945 0.0
H1855 H 0.89801 0.60432 0.95032 0.0
H1856 H 0.88108 0.61371 0.91778 0.0
H1857 H 0.8763 0.63971 0.92936 0.0
C1858 C 0.88123 0.66965 0.9557 0.0
C1859 C 0.88805 0.6616 0.97723 0.0
C1860 C 0.89083 0.64641 0.97002 0.0
C1861 C 0.9011 0.64136 0.98841 0.0
C1862 C 0.90333 0.6259 0.98094 0.0
C1863 C 0.89613 0.61607 0.95571 0.0
C1864 C 0.88657 0.62134 0.93742 0.0
C1865 C 0.88392 0.63631 0.94435 0.0
H1866 H 0.34637 0.29576 0.98169 0.0
C1867 C 0.35976 0.304 0.97251 0.0
H1868 H 0.38204 0.30335 0.95349 0.0
H1869 H 0.36536 0.2234 0.98757 0.0
H1870 H 0.39077 0.24258 0.02045 0.0
H1871 H 0.40225 0.2765 0.02667 0.0
H1872 H 0.38835 0.29145 0.00017 0.0
C1873 C 0.36853 0.2953 0.9624 0.0
C1874 C 0.35998 0.27449 0.96131 0.0
C1875 C 0.36821 0.26596 0.97693 0.0
C1876 C 0.36173 0.24643 0.97315 0.0
C1877 C 0.37006 0.23825 0.98925 0.0
C1878 C 0.38456 0.24907 0.00829 0.0
C1879 C 0.39101 0.26817 0.01181 0.0
C1880 C 0.38296 0.27658 0.99641 0.0
H1881 H 0.36913 0.22436 0.93106 0.0
C1882 C 0.3547 0.21331 0.93084 0.0
H1883 H 0.3281 0.20514 0.94399 0.0
H1884 H 0.34118 0.28634 0.92722 0.0
H1885 H 0.3153 0.26708 0.89581 0.0
H1886 H 0.30328 0.23307 0.89056 0.0
H1887 H 0.31717 0.21823 0.91649 0.0
C1888 C 0.34258 0.21602 0.9453 0.0
C1889 C 0.34715 0.23549 0.95353 0.0
C1890 C 0.3381 0.24379 0.93915 0.0
C1891 C 0.34474 0.26337 0.94266 0.0
C1892 C 0.33635 0.27149 0.9264 0.0
C1893 C 0.32149 0.26059 0.90802 0.0
C1894 C 0.31476 0.24147 0.90503 0.0
C1895 C 0.32294 0.23312 0.92018 0.0
H1896 H 0.72259 0.06016 0.02929 0.0
C1897 C 0.70947 0.05835 0.02135 0.0
H1898 H 0.69653 0.06792 0.99309 0.0
H1899 H 0.76932 0.14612 0.97773 0.0
H1900 H 0.75116 0.15583 0.00487 0.0
H1901 H 0.72185 0.13236 0.02473 0.0
H1902 H 0.71049 0.09905 0.0176 0.0
C1903 C 0.7094 0.06889 0.00048 0.0
C1904 C 0.72703 0.08303 0.98817 0.0
C1905 C 0.73341 0.10244 0.99238 0.0
C1906 C 0.75028 0.116 0.98083 0.0
C1907 C 0.75647 0.13528 0.98572 0.0
C1908 C 0.74623 0.14102 0.00135 0.0
C1909 C 0.72973 0.12781 0.01255 0.0
C1910 C 0.72335 0.10873 0.00825 0.0
H1911 H 0.7621 0.1293 0.92114 0.0
C1912 C 0.77573 0.13165 0.92741 0.0
H1913 H 0.79057 0.12448 0.95566 0.0
H1914 H 0.71797 0.04696 0.97385 0.0
H1915 H 0.73599 0.03736 0.94646 0.0
H1916 H 0.76552 0.06085 0.92723 0.0
H1917 H 0.77716 0.09405 0.93524 0.0
C1918 C 0.77755 0.12403 0.95077 0.0
C1919 C 0.76068 0.11014 0.96494 0.0
C1920 C 0.75432 0.09071 0.96074 0.0
C1921 C 0.7374 0.07715 0.97212 0.0
C1922 C 0.73098 0.05788 0.96644 0.0
C1923 C 0.74112 0.05215 0.95053 0.0
C1924 C 0.75773 0.06537 0.93969 0.0
C1925 C 0.76428 0.08442 0.94454 0.0
H1926 H 0.67104 0.973 0.03568 0.0
C1927 C 0.65659 0.96628 0.04113 0.0
H1928 H 0.63343 0.94129 0.0538 0.0
H1929 H 0.65961 0.88373 0.02667 0.0
H1930 H 0.63752 0.87645 0.9881 0.0
H1931 H 0.62463 0.89709 0.97835 0.0
H1932 H 0.63373 0.92513 0.00704 0.0
C1933 C 0.64794 0.94827 0.04867 0.0
C1934 C 0.65771 0.9374 0.05221 0.0
C1935 C 0.65238 0.92116 0.03515 0.0
C1936 C 0.65975 0.9092 0.04081 0.0
C1937 C 0.6542 0.8931 0.02344 0.0
C1938 C 0.64161 0.88882 0.0012 0.0
C1939 C 0.63436 0.90045 0.9957 0.0
C1940 C 0.63965 0.91646 0.01238 0.0
H1941 H 0.65202 0.88009 0.08515 0.0
C1942 C 0.66668 0.88452 0.08551 0.0
H1943 H 0.69319 0.90507 0.07434 0.0
H1944 H 0.67019 0.9668 0.09051 0.0
H1945 H 0.69255 0.97422 0.12822 0.0
H1946 H 0.70648 0.95437 0.13654 0.0
H1947 H 0.69798 0.92696 0.10729 0.0
C1948 C 0.6784 0.89998 0.07218 0.0
C1949 C 0.67246 0.91352 0.0635 0.0
C1950 C 0.67849 0.93025 0.07982 0.0
C1951 C 0.67083 0.94199 0.07455 0.0
C1952 C 0.676 0.95773 0.09269 0.0
C1953 C 0.68876 0.96211 0.11467 0.0
C1954 C 0.69658 0.95093 0.11938 0.0
C1955 C 0.69154 0.93517 0.10232 0.0
H1956 H 0.03802 0.71187 0.05001 0.0
C1957 C 0.0429 0.70213 0.04535 0.0
H1958 H 0.06576 0.69881 0.037 0.0
H1959 H 0.09966 0.79235 0.04133 0.0
H1960 H 0.07896 0.7874 0.00168 0.0
H1961 H 0.05706 0.75544 0.9833 0.0
H1962 H 0.05547 0.7282 0.00463 0.0
C1963 C 0.06108 0.7087 0.04173 0.0
C1964 C 0.07551 0.72831 0.05036 0.0
C1965 C 0.07664 0.74409 0.03717 0.0
C1966 C 0.08957 0.76259 0.04742 0.0
C1967 C 0.09006 0.77806 0.03434 0.0
C1968 C 0.07835 0.7754 0.01153 0.0
C1969 C 0.06599 0.7574 0.00119 0.0
C1970 C 0.06513 0.74188 0.01372 0.0
H1971 H 0.13859 0.79183 0.07119 0.0
C1972 C 0.13069 0.7947 0.08615 0.0
H1973 H 0.10397 0.78742 0.09908 0.0
H1974 H 0.07757 0.70125 0.08031 0.0
H1975 H 0.09901 0.7063 0.11835 0.0
H1976 H 0.1222 0.73828 0.1348 0.0
H1977 H 0.12398 0.76524 0.11333 0.0
C1978 C 0.11203 0.7841 0.08507 0.0
C1979 C 0.10172 0.76536 0.07033 0.0
C1980 C 0.10138 0.74957 0.08243 0.0
C1981 C 0.08818 0.73108 0.07263 0.0
C1982 C 0.08754 0.71562 0.08622 0.0
C1983 C 0.09974 0.71828 0.10829 0.0
C1984 C 0.11276 0.73627 0.11757 0.0
C1985 C 0.11358 0.75172 0.10499 0.0
H1986 H 0.32252 0.37766 0.03765 0.0
C1987 C 0.32092 0.36559 0.02566 0.0
H1988 H 0.30273 0.33724 0.01329 0.0
H1989 H 0.25339 0.32459 0.11834 0.0
H1990 H 0.2679 0.30624 0.12999 0.0
H1991 H 0.29216 0.30678 0.10103 0.0
H1992 H 0.30197 0.32559 0.06009 0.0
C1993 C 0.30456 0.34954 0.02486 0.0
C1994 C 0.2888 0.34795 0.04075 0.0
C1995 C 0.28311 0.33672 0.06438 0.0
C1996 C 0.26926 0.33655 0.08121 0.0
C1997 C 0.26398 0.32538 0.10495 0.0
C1998 C 0.27217 0.31475 0.11186 0.0
C1999 C 0.2858 0.31503 0.09552 0.0
C2000 C 0.29129 0.32588 0.07206 0.0
H2001 H 0.22382 0.3321 0.07207 0.0
C2002 C 0.23034 0.33986 0.09142 0.0
H2003 H 0.2557 0.3578 0.11321 0.0
H2004 H 0.29427 0.36843 0.99424 0.0
H2005 H 0.27937 0.38637 0.98218 0.0
H2006 H 0.2561 0.38692 0.0123 0.0
H2007 H 0.24743 0.36933 0.05453 0.0
C2008 C 0.24893 0.34951 0.09437 0.0
C2009 C 0.2611 0.34754 0.07428 0.0
C2010 C 0.26607 0.35799 0.04987 0.0
C2011 C 0.27982 0.35805 0.03289 0.0
C2012 C 0.28428 0.36831 0.00829 0.0
C2013 C 0.27576 0.37858 0.00104 0.0
C2014 C 0.26263 0.37886 0.01798 0.0
C2015 C 0.25779 0.36871 0.04215 0.0
H2016 H 0.71404 0.67204 0.36265 0.0
C2017 C 0.71875 0.67893 0.34309 0.0
H2018 H 0.74092 0.69112 0.31575 0.0
H2019 H 0.80284 0.70633 0.40737 0.0
H2020 H 0.80978 0.73807 0.39804 0.0
H2021 H 0.78897 0.74365 0.36757 0.0
H2022 H 0.7611 0.71762 0.34627 0.0
C2023 C 0.73585 0.6837 0.33484 0.0
C2024 C 0.74886 0.68024 0.35212 0.0
C2025 C 0.76522 0.69564 0.36412 0.0
C2026 C 0.77717 0.69245 0.38189 0.0
C2027 C 0.79325 0.70804 0.39395 0.0
C2028 C 0.79741 0.72629 0.38869 0.0
C2029 C 0.7857 0.72944 0.37151 0.0
C2030 C 0.76976 0.71436 0.35936 0.0
H2031 H 0.80053 0.66521 0.38628 0.0
C2032 C 0.79553 0.66519 0.40689 0.0
H2033 H 0.7787 0.67176 0.43147 0.0
H2034 H 0.72052 0.64766 0.32859 0.0
H2035 H 0.71377 0.61605 0.3378 0.0
H2036 H 0.73373 0.61051 0.37019 0.0
H2037 H 0.76072 0.63653 0.39319 0.0
C2038 C 0.78286 0.6706 0.41068 0.0
C2039 C 0.77281 0.67391 0.38759 0.0
C2040 C 0.75695 0.65851 0.37451 0.0
C2041 C 0.7451 0.66168 0.35648 0.0
C2042 C 0.72965 0.64606 0.34315 0.0
C2043 C 0.72567 0.62783 0.34812 0.0
C2044 C 0.73693 0.62471 0.36631 0.0
C2045 C 0.7524 0.6398 0.37941 0.0
H2046 H 0.29683 0.04271 0.36614 0.0
C2047 C 0.30774 0.03926 0.36357 0.0
H2048 H 0.3366 0.05 0.36519 0.0
H2049 H 0.32726 0.12637 0.36324 0.0
H2050 H 0.3215 0.11967 0.31356 0.0
H2051 H 0.31944 0.0911 0.29248 0.0
H2052 H 0.32317 0.06903 0.32096 0.0
C2053 C 0.32543 0.05318 0.36556 0.0
C2054 C 0.32957 0.07189 0.37698 0.0
C2055 C 0.32757 0.08473 0.36012 0.0
C2056 C 0.32898 0.10133 0.37228 0.0
C2057 C 0.32662 0.11373 0.355 0.0
C2058 C 0.32324 0.11001 0.3265 0.0
C2059 C 0.32204 0.0939 0.31463 0.0
C2060 C 0.32414 0.08133 0.33116 0.0
H2061 H 0.3588 0.14101 0.3983 0.0
C2062 C 0.34846 0.13891 0.4133 0.0
H2063 H 0.32376 0.11966 0.43136 0.0
H2064 H 0.33609 0.05119 0.41475 0.0
H2065 H 0.34188 0.05777 0.46428 0.0
H2066 H 0.34247 0.08547 0.48585 0.0
H2067 H 0.33758 0.10681 0.45799 0.0
C2068 C 0.33326 0.12192 0.41484 0.0
C2069 C 0.33219 0.10493 0.40133 0.0
C2070 C 0.3344 0.09212 0.41813 0.0
C2071 C 0.33359 0.07588 0.40583 0.0
C2072 C 0.33638 0.06365 0.42302 0.0
C2073 C 0.33973 0.06725 0.45151 0.0
C2074 C 0.34012 0.08286 0.46363 0.0
C2075 C 0.33742 0.09511 0.44729 0.0
H2076 H 0.95769 0.29129 0.33906 0.0
C2077 C 0.96945 0.28924 0.34292 0.0
H2078 H 0.97888 0.27257 0.36233 0.0
H2079 H 0.90767 0.25676 0.43864 0.0
H2080 H 0.92713 0.28858 0.45598 0.0
H2081 H 0.95748 0.30906 0.43613 0.0
H2082 H 0.96831 0.29775 0.39825 0.0
C2083 C 0.96767 0.27559 0.35955 0.0
C2084 C 0.9497 0.26305 0.37224 0.0
C2085 C 0.94362 0.26981 0.39451 0.0
C2086 C 0.92619 0.25792 0.40612 0.0
C2087 C 0.92062 0.26507 0.42864 0.0
C2088 C 0.93175 0.28336 0.43903 0.0
C2089 C 0.9488 0.2949 0.42778 0.0
C2090 C 0.95479 0.28825 0.4059 0.0
H2091 H 0.90469 0.20652 0.4205 0.0
C2092 C 0.89494 0.21155 0.42267 0.0
H2093 H 0.88767 0.23174 0.41252 0.0
H2094 H 0.95745 0.24579 0.32982 0.0
H2095 H 0.93749 0.2142 0.31091 0.0
H2096 H 0.90671 0.19394 0.32976 0.0
H2097 H 0.89579 0.20509 0.3678 0.0
C2098 C 0.8973 0.22668 0.4092 0.0
C2099 C 0.91494 0.23921 0.39552 0.0
C2100 C 0.92091 0.23258 0.37286 0.0
C2101 C 0.93845 0.24443 0.36152 0.0
C2102 C 0.94421 0.23741 0.33914 0.0
C2103 C 0.93288 0.21932 0.32805 0.0
C2104 C 0.91557 0.2079 0.3387 0.0
C2105 C 0.90954 0.21441 0.36073 0.0
H2106 H 0.01363 0.36721 0.29467 0.0
C2107 C 0.02844 0.37237 0.29643 0.0
H2108 H 0.05523 0.39585 0.29688 0.0
H2109 H 0.03664 0.44242 0.21399 0.0
H2110 H 0.06063 0.43948 0.19109 0.0
H2111 H 0.07286 0.42017 0.21062 0.0
H2112 H 0.06127 0.40385 0.25305 0.0
C2113 C 0.04047 0.39084 0.29485 0.0
C2114 C 0.03438 0.40408 0.285 0.0
C2115 C 0.04147 0.41363 0.26006 0.0
C2116 C 0.03414 0.4244 0.2484 0.0
C2117 C 0.0414 0.43373 0.22345 0.0
C2118 C 0.05527 0.43224 0.21013 0.0
C2119 C 0.06217 0.42141 0.22116 0.0
C2120 C 0.05539 0.41215 0.24572 0.0
H2121 H 0.02354 0.46023 0.26169 0.0
C2122 C 0.01385 0.45072 0.24566 0.0
H2123 H 0.99888 0.42279 0.22981 0.0
H2124 H 0.02083 0.39144 0.33614 0.0
H2125 H 0.9969 0.39475 0.35903 0.0
H2126 H 0.98294 0.4119 0.33722 0.0
H2127 H 0.99308 0.42614 0.29253 0.0
C2128 C 0.00894 0.43246 0.24532 0.0
C2129 C 0.01946 0.4253 0.26127 0.0
C2130 C 0.01327 0.41688 0.28707 0.0
C2131 C 0.02096 0.40652 0.29923 0.0
C2132 C 0.01496 0.39883 0.32551 0.0
C2133 C 1.00135 0.40077 0.33895 0.0
C2134 C 0.99351 0.41045 0.32669 0.0
C2135 C 0.99937 0.41848 0.30104 0.0
H2136 H 0.59951 0.63101 0.30769 0.0
C2137 C 0.61357 0.63343 0.30957 0.0
H2138 H 0.63008 0.6207 0.30707 0.0
H2139 H 0.54348 0.54863 0.31555 0.0
H2140 H 0.54811 0.55596 0.36517 0.0
H2141 H 0.57665 0.58357 0.38409 0.0
H2142 H 0.60084 0.60405 0.35349 0.0
C2143 C 0.61615 0.61862 0.30747 0.0
C2144 C 0.60035 0.60026 0.29719 0.0
C2145 C 0.58645 0.58834 0.31525 0.0
C2146 C 0.57004 0.57229 0.30432 0.0
C2147 C 0.5563 0.56081 0.32281 0.0
C2148 C 0.55876 0.5649 0.35129 0.0
C2149 C 0.57482 0.58048 0.36195 0.0
C2150 C 0.58855 0.59214 0.34422 0.0
H2151 H 0.55665 0.53185 0.27836 0.0
C2152 C 0.54788 0.53443 0.26425 0.0
H2153 H 0.54252 0.55458 0.24738 0.0
H2154 H 0.62525 0.61897 0.25722 0.0
H2155 H 0.62074 0.61186 0.2077 0.0
H2156 H 0.59152 0.58543 0.18833 0.0
H2157 H 0.56687 0.56579 0.21836 0.0
C2158 C 0.55035 0.55184 0.26311 0.0
C2159 C 0.5675 0.56835 0.27529 0.0
C2160 C 0.58156 0.58025 0.25727 0.0
C2161 C 0.59819 0.59585 0.26832 0.0
C2162 C 0.61223 0.60708 0.24991 0.0
C2163 C 0.60985 0.60317 0.22142 0.0
C2164 C 0.59343 0.58825 0.21053 0.0
C2165 C 0.57941 0.57697 0.2281 0.0
H2166 H 0.38271 0.01861 0.34639 0.0
C2167 C 0.36974 0.00636 0.33943 0.0
H2168 H 0.35712 0.9817 0.31393 0.0
H2169 H 0.42173 0.01436 0.22888 0.0
H2170 H 0.39736 0.01521 0.20234 0.0
H2171 H 0.36819 0.00826 0.22387 0.0
H2172 H 0.36328 1.00018 0.27213 0.0
C2173 C 0.36997 0.99399 0.32113 0.0
C2174 C 0.38751 0.99753 0.3084 0.0
C2175 C 0.39022 0.00218 0.28016 0.0
C2176 C 0.40714 0.00631 0.26787 0.0
C2177 C 0.40933 0.01103 0.23953 0.0
C2178 C 0.39539 0.01164 0.22394 0.0
C2179 C 0.37897 0.0077 0.23604 0.0
C2180 C 0.37634 0.00306 0.2638 0.0
H2181 H 0.43892 0.985 0.27713 0.0
C2182 C 0.44522 0.99818 0.2665 0.0
H2183 H 0.44595 0.02371 0.25992 0.0
H2184 H 0.38598 0.98719 0.36226 0.0
H2185 H 0.41058 0.98681 0.38957 0.0
H2186 H 0.44065 0.99578 0.36921 0.0
H2187 H 0.44619 0.00487 0.32133 0.0
C2188 C 0.43917 0.0105 0.27049 0.0
C2189 C 0.42136 0.0056 0.28382 0.0
C2190 C 0.4186 1.00092 0.31216 0.0
C2191 C 0.40152 0.99655 0.3243 0.0
C2192 C 0.39886 0.99121 0.35229 0.0
C2193 C 0.41284 0.99086 0.36816 0.0
C2194 C 0.42974 0.99584 0.35667 0.0
C2195 C 0.43269 1.00089 0.32905 0.0
H2196 H 0.61496 0.98629 0.32227 0.0
C2197 C 0.61517 0.9874 0.34479 0.0
H2198 H 0.60273 0.99186 0.37967 0.0
H2199 H 0.56658 0.03087 0.30939 0.0
H2200 H 0.58996 0.05738 0.33742 0.0
H2201 H 0.61249 0.05408 0.36738 0.0
H2202 H 0.61185 0.02432 0.36951 0.0
C2203 C 0.60238 0.99018 0.35722 0.0
C2204 C 0.58784 0.99176 0.34082 0.0
C2205 C 0.58822 0.00917 0.34018 0.0
C2206 C 0.57531 0.01113 0.32274 0.0
C2207 C 0.57621 0.02874 0.32208 0.0
C2208 C 0.5895 0.04402 0.33812 0.0
C2209 C 0.60217 0.04215 0.35502 0.0
C2210 C 0.60163 0.02498 0.35608 0.0
H2211 H 0.52563 0.98727 0.30069 0.0
C2212 C 0.53357 0.99285 0.28224 0.0
H2213 H 0.56002 0.00564 0.265 0.0
H2214 H 0.58094 0.95559 0.34134 0.0
H2215 H 0.55751 0.92912 0.31359 0.0
H2216 H 0.5361 0.93285 0.2817 0.0
H2217 H 0.53776 0.9629 0.27775 0.0
C2218 C 0.55192 0.99898 0.28295 0.0
C2219 C 0.562 0.99571 0.30607 0.0
C2220 C 0.56092 0.978 0.30794 0.0
C2221 C 0.57368 0.97597 0.32563 0.0
C2222 C 0.572 0.95805 0.32758 0.0
C2223 C 0.55854 0.94271 0.31189 0.0
C2224 C 0.54647 0.94479 0.29398 0.0
C2225 C 0.54758 0.96218 0.29193 0.0
H2226 H 0.01278 0.62229 0.3301 0.0
C2227 C 0.0265 0.63043 0.32185 0.0
H2228 H 0.04782 0.62931 0.30047 0.0
H2229 H 0.02048 0.54366 0.3172 0.0
H2230 H 0.04738 0.55794 0.34896 0.0
H2231 H 0.06361 0.59194 0.3602 0.0
H2232 H 0.05302 0.61186 0.33985 0.0
C2233 C 0.03409 0.62147 0.30876 0.0
C2234 C 0.02363 0.6008 0.30321 0.0
C2235 C 0.03005 0.58938 0.31512 0.0
C2236 C 0.02088 0.56981 0.30831 0.0
C2237 C 0.02732 0.55868 0.32102 0.0
C2238 C 0.04263 0.56667 0.33945 0.0
C2239 C 0.05175 0.58581 0.34581 0.0
C2240 C 0.04556 0.59709 0.33393 0.0
H2241 H 0.02281 0.54622 0.26253 0.0
C2242 C 0.00784 0.53735 0.26228 0.0
H2243 H 0.9827 0.53292 0.27749 0.0
H2244 H 0.00861 0.61883 0.27418 0.0
H2245 H 0.98093 0.60438 0.24465 0.0
H2246 H 0.96349 0.57014 0.23597 0.0
H2247 H 0.97385 0.55034 0.25633 0.0
C2248 C 0.99762 0.54213 0.27804 0.0
C2249 C 0.00539 0.56173 0.28938 0.0
C2250 C 0.99825 0.57296 0.27881 0.0
C2251 C 0.00776 0.59261 0.28493 0.0
C2252 C 1.00142 0.60374 0.27171 0.0
C2253 C 0.98559 0.59564 0.25439 0.0
C2254 C 0.97582 0.57639 0.24943 0.0
C2255 C 0.98206 0.56516 0.26123 0.0
H2256 H 0.38106 0.41599 0.35144 0.0
C2257 C 0.37518 0.40088 0.34941 0.0
H2258 H 0.37676 0.37867 0.32958 0.0
H2259 H 0.41334 0.42402 0.22292 0.0
H2260 H 0.38298 0.4008 0.20489 0.0
H2261 H 0.35908 0.37937 0.23604 0.0
H2262 H 0.36534 0.38135 0.2856 0.0
C2263 C 0.38273 0.39377 0.33218 0.0
C2264 C 0.39774 0.40612 0.3136 0.0
C2265 C 0.39394 0.40466 0.2846 0.0
C2266 C 0.40768 0.41718 0.26669 0.0
C2267 C 0.40343 0.41523 0.23773 0.0
C2268 C 0.38605 0.40181 0.22697 0.0
C2269 C 0.37258 0.38978 0.24452 0.0
C2270 C 0.37639 0.39108 0.27298 0.0
H2271 H 0.46086 0.43975 0.26858 0.0
C2272 C 0.4556 0.44647 0.25486 0.0
H2273 H 0.43415 0.45189 0.24462 0.0
H2274 H 0.41041 0.41099 0.36766 0.0
H2275 H 0.44006 0.43572 0.38652 0.0
H2276 H 0.46284 0.45934 0.35613 0.0
H2277 H 0.45632 0.45811 0.3067 0.0
C2278 C 0.43891 0.44484 0.25861 0.0
C2279 C 0.4252 0.43132 0.27783 0.0
C2280 C 0.42898 0.4328 0.30691 0.0
C2281 C 0.41542 0.41983 0.32469 0.0
C2282 C 0.4199 0.42096 0.35341 0.0
C2283 C 0.43691 0.43501 0.36448 0.0
C2284 C 0.44976 0.44826 0.34735 0.0
C2285 C 0.4459 0.44727 0.31892 0.0
H2286 H 0.30816 0.28167 0.38616 0.0
C2287 C 0.31836 0.29558 0.37976 0.0
H2288 H 0.34592 0.31289 0.36811 0.0
H2289 H 0.37031 0.26659 0.44502 0.0
H2290 H 0.38953 0.29847 0.46308 0.0
H2291 H 0.38691 0.32446 0.44315 0.0
H2292 H 0.3651 0.31872 0.40502 0.0
C2293 C 0.3354 0.29894 0.37375 0.0
C2294 C 0.34083 0.28459 0.37995 0.0
C2295 C 0.35426 0.2884 0.40146 0.0
C2296 C 0.35575 0.27341 0.41303 0.0
C2297 C 0.36858 0.27741 0.43547 0.0
C2298 C 0.37973 0.29567 0.44602 0.0
C2299 C 0.37826 0.3103 0.43479 0.0
C2300 C 0.36566 0.30679 0.41286 0.0
H2301 H 0.36236 0.23501 0.40725 0.0
C2302 C 0.35182 0.23161 0.42247 0.0
H2303 H 0.32958 0.23489 0.43542 0.0
H2304 H 0.31787 0.27356 0.33376 0.0
H2305 H 0.29972 0.24172 0.31416 0.0
H2306 H 0.30171 0.21562 0.33512 0.0
H2307 H 0.32204 0.22122 0.37564 0.0
C2308 C 0.34062 0.23899 0.42088 0.0
C2309 C 0.3439 0.25473 0.40293 0.0
C2310 C 0.33218 0.25131 0.37929 0.0
C2311 C 0.3308 0.26629 0.36754 0.0
C2312 C 0.31902 0.26252 0.34383 0.0
C2313 C 0.30866 0.24438 0.33233 0.0
C2314 C 0.30979 0.22967 0.34413 0.0
C2315 C 0.3214 0.23302 0.36738 0.0
H2316 H 0.70764 0.04368 0.36909 0.0
C2317 C 0.71442 0.03546 0.3722 0.0
H2318 H 0.73979 0.03633 0.38127 0.0
H2319 H 0.78948 0.12293 0.35602 0.0
H2320 H 0.78991 0.11022 0.31031 0.0
H2321 H 0.76922 0.07667 0.29806 0.0
H2322 H 0.74785 0.05563 0.33137 0.0
C2323 C 0.73275 0.0443 0.37819 0.0
C2324 C 0.74373 0.06489 0.38429 0.0
C2325 C 0.75615 0.07698 0.36472 0.0
C2326 C 0.7683 0.09628 0.37194 0.0
C2327 C 0.78032 0.10808 0.35179 0.0
C2328 C 0.78061 0.10099 0.32546 0.0
C2329 C 0.76894 0.0821 0.31855 0.0
C2330 C 0.75679 0.07017 0.33785 0.0
H2331 H 0.8049 0.11763 0.40233 0.0
C2332 C 0.80051 0.12663 0.41234 0.0
H2333 H 0.77858 0.13144 0.4195 0.0
H2334 H 0.72154 0.04552 0.42681 0.0
H2335 H 0.72066 0.05817 0.47203 0.0
H2336 H 0.74113 0.09168 0.48436 0.0
H2337 H 0.76259 0.11263 0.45178 0.0
C2338 C 0.78286 0.12266 0.40857 0.0
C2339 C 0.76819 0.10341 0.3989 0.0
C2340 C 0.75499 0.09147 0.41801 0.0
C2341 C 0.74296 0.07217 0.41081 0.0
C2342 C 0.73072 0.06036 0.43086 0.0
C2343 C 0.73008 0.06742 0.457 0.0
C2344 C 0.7416 0.08627 0.46394 0.0
C2345 C 0.75394 0.09818 0.44486 0.0
H2346 H 0.97477 0.67378 0.37869 0.0
C2347 C 0.9748 0.67727 0.35706 0.0
H2348 H 0.96005 0.6814 0.32432 0.0
H2349 H 0.88177 0.63516 0.37774 0.0
H2350 H 0.87789 0.61601 0.33639 0.0
H2351 H 0.90428 0.6235 0.30677 0.0
H2352 H 0.9347 0.65013 0.31821 0.0
C2353 C 0.9604 0.67838 0.34609 0.0
C2354 C 0.9442 0.6747 0.36285 0.0
C2355 C 0.92646 0.65919 0.35561 0.0
C2356 C 0.91123 0.65478 0.37274 0.0
C2357 C 0.89376 0.63905 0.3654 0.0
C2358 C 0.89136 0.62797 0.34175 0.0
C2359 C 0.90622 0.6322 0.32506 0.0
C2360 C 0.92361 0.64756 0.33184 0.0
H2361 H 0.88472 0.67191 0.39782 0.0
C2362 C 0.88609 0.66516 0.41617 0.0
H2363 H 0.90005 0.65245 0.43503 0.0
H2364 H 0.97528 0.70766 0.37952 0.0
H2365 H 0.97892 0.72687 0.42049 0.0
H2366 H 0.95289 0.71833 0.45137 0.0
H2367 H 0.923 0.69068 0.44117 0.0
C2368 C 0.89893 0.65981 0.41731 0.0
C2369 C 0.91379 0.66587 0.39699 0.0
C2370 C 0.93127 0.6819 0.4035 0.0
C2371 C 0.94642 0.68651 0.38617 0.0
C2372 C 0.9635 0.70306 0.39256 0.0
C2373 C 0.96574 0.71432 0.4159 0.0
C2374 C 0.95108 0.70953 0.43325 0.0
C2375 C 0.934 0.69358 0.42719 0.0
H2376 H 0.39989 0.01949 0.6992 0.0
C2377 C 0.40307 0.0227 0.67757 0.0
H2378 H 0.42232 0.02792 0.64637 0.0
H2379 H 0.4901 0.05143 0.73101 0.0
H2380 H 0.49871 0.08111 0.7098 0.0
H2381 H 0.47701 0.08404 0.67745 0.0
H2382 H 0.44659 0.05739 0.66609 0.0
C2383 C 0.41871 0.02417 0.66773 0.0
C2384 C 0.43218 0.02202 0.68597 0.0
C2385 C 0.45 0.03771 0.6921 0.0
C2386 C 0.46248 0.03609 0.71093 0.0
C2387 C 0.48007 0.05201 0.71702 0.0
C2388 C 0.48519 0.06908 0.70495 0.0
C2389 C 0.47298 0.07072 0.6867 0.0
C2390 C 0.45556 0.05529 0.68032 0.0
H2391 H 0.48162 0.00589 0.72512 0.0
C2392 C 0.47929 0.01025 0.74532 0.0
H2393 H 0.46711 0.02368 0.76708 0.0
H2394 H 0.40051 0.9884 0.67491 0.0
H2395 H 0.39197 0.95885 0.69623 0.0
H2396 H 0.41296 0.95646 0.73068 0.0
H2397 H 0.44273 0.98349 0.74364 0.0
C2398 C 0.46853 0.01816 0.74722 0.0
C2399 C 0.45717 0.01883 0.72356 0.0
C2400 C 0.43968 0.00292 0.71651 0.0
C2401 C 0.42729 0.00444 0.69736 0.0
C2402 C 0.41018 0.98819 0.69005 0.0
C2403 C 0.40515 0.9711 0.702 0.0
C2404 C 0.41698 0.96975 0.72134 0.0
C2405 C 0.43405 0.9854 0.7286 0.0
H2406 H 0.99255 0.38389 0.6983 0.0
C2407 C 0.97785 0.37358 0.69735 0.0
H2408 H 0.95066 0.36914 0.6972 0.0
H2409 H 0.97558 0.43863 0.77975 0.0
H2410 H 0.95582 0.41274 0.80757 0.0
H2411 H 0.94245 0.38016 0.78965 0.0
H2412 H 0.94898 0.37347 0.74364 0.0
C2413 C 0.96536 0.3794 0.69779 0.0
C2414 C 0.97108 0.39913 0.70614 0.0
C2415 C 0.96644 0.40287 0.73271 0.0
C2416 C 0.97396 0.42171 0.74287 0.0
C2417 C 0.97004 0.42484 0.77032 0.0
C2418 C 0.95872 0.40999 0.78679 0.0
C2419 C 0.95119 0.39167 0.7767 0.0
C2420 C 0.95504 0.38806 0.75011 0.0
H2421 H 0.97533 0.46227 0.74106 0.0
C2422 C 0.98939 0.4663 0.74784 0.0
H2423 H 0.01132 0.46064 0.74396 0.0
H2424 H 0.98034 0.39673 0.6529 0.0
H2425 H 0.99975 0.4228 0.62404 0.0
H2426 H 0.0128 0.4555 0.64154 0.0
H2427 H 0.00645 0.46235 0.68797 0.0
C2428 C 0.99693 0.45612 0.73867 0.0
C2429 C 0.98577 0.43683 0.72606 0.0
C2430 C 0.98945 0.43302 0.69889 0.0
C2431 C 0.98206 0.41416 0.68888 0.0
C2432 C 0.98591 0.4108 0.66163 0.0
C2433 C 0.99693 0.42562 0.64485 0.0
C2434 C 1.00428 0.44404 0.6547 0.0
C2435 C 1.00061 0.44778 0.68138 0.0
H2436 H 0.63005 0.63892 0.68083 0.0
C2437 C 0.64061 0.63492 0.68319 0.0
H2438 H 0.64808 0.61657 0.70202 0.0
H2439 H 0.59595 0.59671 0.80296 0.0
H2440 H 0.62578 0.61669 0.82568 0.0
H2441 H 0.65363 0.63439 0.79839 0.0
H2442 H 0.65167 0.63201 0.74814 0.0
C2443 C 0.63762 0.62069 0.69947 0.0
C2444 C 0.62048 0.61062 0.71545 0.0
C2445 C 0.62178 0.6123 0.74479 0.0
C2446 C 0.60565 0.60231 0.76045 0.0
C2447 C 0.60755 0.60406 0.78983 0.0
C2448 C 0.62468 0.61552 0.80323 0.0
C2449 C 0.64034 0.62546 0.78789 0.0
C2450 C 0.63901 0.62392 0.75903 0.0
H2451 H 0.56425 0.55295 0.74718 0.0
C2452 C 0.56201 0.56097 0.76322 0.0
H2453 H 0.56885 0.5876 0.77963 0.0
H2454 H 0.61329 0.6029 0.65949 0.0
H2455 H 0.58313 0.58428 0.63644 0.0
H2456 H 0.55481 0.56919 0.66341 0.0
H2457 H 0.55656 0.57228 0.71364 0.0
C2458 C 0.57156 0.57988 0.76364 0.0
C2459 C 0.58815 0.59069 0.74669 0.0
C2460 C 0.58677 0.58949 0.71727 0.0
C2461 C 0.60302 0.59906 0.70165 0.0
C2462 C 0.60137 0.59663 0.67236 0.0
C2463 C 0.58413 0.58588 0.65885 0.0
C2464 C 0.5682 0.57732 0.67404 0.0
C2465 C 0.56941 0.57907 0.7029 0.0
H2466 H 0.71745 0.72461 0.61476 0.0
C2467 C 0.70619 0.71206 0.62327 0.0
H2468 H 0.67869 0.69931 0.63675 0.0
H2469 H 0.67776 0.77577 0.65102 0.0
H2470 H 0.67653 0.76697 0.69912 0.0
H2471 H 0.68045 0.74021 0.71172 0.0
H2472 H 0.68552 0.72199 0.67638 0.0
C2473 C 0.69017 0.71161 0.62816 0.0
C2474 C 0.68742 0.72758 0.62056 0.0
C2475 C 0.6845 0.73809 0.64147 0.0
C2476 C 0.68229 0.75359 0.63424 0.0
C2477 C 0.67942 0.76384 0.65547 0.0
C2478 C 0.67873 0.75897 0.68311 0.0
C2479 C 0.68095 0.7439 0.69021 0.0
C2480 C 0.68383 0.73355 0.66973 0.0
H2481 H 0.65098 0.75653 0.59804 0.0
C2482 C 0.66231 0.77006 0.59228 0.0
H2483 H 0.69119 0.78646 0.58952 0.0
H2484 H 0.68936 0.7085 0.57451 0.0
H2485 H 0.69084 0.71754 0.52678 0.0
H2486 H 0.68943 0.74579 0.51478 0.0
H2487 H 0.68598 0.76483 0.55036 0.0
C2488 C 0.67974 0.774 0.59789 0.0
C2489 C 0.68315 0.75862 0.60619 0.0
C2490 C 0.68604 0.74811 0.58523 0.0
C2491 C 0.68766 0.73229 0.5923 0.0
C2492 C 0.68904 0.72122 0.57062 0.0
C2493 C 0.6897 0.72613 0.54302 0.0
C2494 C 0.68883 0.74198 0.53625 0.0
C2495 C 0.68687 0.75281 0.55695 0.0
H2496 H 0.3071 0.9624 0.64318 0.0
C2497 C 0.30146 0.97173 0.64527 0.0
H2498 H 0.27768 0.97411 0.64933 0.0
H2499 H 0.22432 0.90341 0.57511 0.0
H2500 H 0.22433 0.92867 0.55072 0.0
H2501 H 0.24496 0.96156 0.56631 0.0
H2502 H 0.26567 0.96925 0.6063 0.0
C2503 C 0.28304 0.96456 0.64693 0.0
C2504 C 0.26953 0.94445 0.63946 0.0
C2505 C 0.25721 0.94015 0.6161 0.0
C2506 C 0.24547 0.92116 0.60684 0.0
C2507 C 0.23366 0.91743 0.58307 0.0
C2508 C 0.23347 0.93186 0.56881 0.0
C2509 C 0.24505 0.95036 0.57761 0.0
C2510 C 0.25684 0.95455 0.60083 0.0
H2511 H 0.21046 0.87711 0.61787 0.0
C2512 C 0.21977 0.8753 0.6044 0.0
H2513 H 0.24751 0.88534 0.59392 0.0
H2514 H 0.28854 0.9474 0.68802 0.0
H2515 H 0.28852 0.92186 0.71249 0.0
H2516 H 0.26928 0.8891 0.69507 0.0
H2517 H 0.24966 0.88163 0.65324 0.0
C2518 C 0.23812 0.8876 0.60655 0.0
C2519 C 0.24625 0.90646 0.62068 0.0
C2520 C 0.25776 0.91069 0.64488 0.0
C2521 C 0.2692 0.92966 0.65455 0.0
C2522 C 0.28008 0.93333 0.67929 0.0
C2523 C 0.28008 0.91879 0.69362 0.0
C2524 C 0.26923 0.90033 0.68383 0.0
C2525 C 0.25813 0.89624 0.65977 0.0
H2526 H 0.04647 0.32263 0.69829 0.0
C2527 C 0.03918 0.32864 0.68747 0.0
H2528 H 0.03821 0.34283 0.65211 0.0
H2529 H 0.12184 0.34867 0.65778 0.0
H2530 H 0.12793 0.36763 0.69999 0.0
H2531 H 0.10384 0.37323 0.71908 0.0
H2532 H 0.07338 0.35954 0.69639 0.0
C2533 C 0.04559 0.33713 0.66346 0.0
C2534 C 0.06115 0.33638 0.64993 0.0
C2535 C 0.07918 0.34525 0.66267 0.0
C2536 C 0.09341 0.34288 0.6508 0.0
C2537 C 0.11084 0.35079 0.66507 0.0
C2538 C 0.11446 0.36157 0.68947 0.0
C2539 C 0.10088 0.36466 0.70029 0.0
C2540 C 0.08341 0.35662 0.68715 0.0
H2541 H 0.12335 0.35949 0.6082 0.0
C2542 C 0.1199 0.34531 0.60211 0.0
H2543 H 0.10144 0.31651 0.60456 0.0
H2544 H 0.02819 0.31763 0.62005 0.0
H2545 H 0.02244 0.30002 0.57671 0.0
H2546 H 0.0474 0.29722 0.55473 0.0
H2547 H 0.07806 0.31176 0.57604 0.0
C2548 C 0.10471 0.33049 0.61165 0.0
C2549 C 0.08987 0.33249 0.62537 0.0
C2550 C 0.0719 0.32399 0.6123 0.0
C2551 C 0.05756 0.32589 0.62465 0.0
C2552 C 0.0397 0.31693 0.61144 0.0
C2553 C 0.03616 0.30672 0.58652 0.0
C2554 C 0.05019 0.30513 0.57417 0.0
C2555 C 0.06783 0.3136 0.58676 0.0
H2556 H 0.29047 0.33603 0.6477 0.0
C2557 C 0.28581 0.3301 0.66788 0.0
H2558 H 0.26404 0.32006 0.69592 0.0
H2559 H 0.24571 0.37228 0.61044 0.0
H2560 H 0.2737 0.39879 0.63049 0.0
H2561 H 0.29361 0.3941 0.66416 0.0
H2562 H 0.28583 0.36284 0.67764 0.0
C2563 C 0.26907 0.32653 0.67619 0.0
C2564 C 0.25624 0.32971 0.65797 0.0
C2565 C 0.26067 0.34814 0.65106 0.0
C2566 C 0.24888 0.35089 0.63226 0.0
C2567 C 0.25401 0.36939 0.62488 0.0
C2568 C 0.27004 0.38475 0.63626 0.0
C2569 C 0.28127 0.3821 0.65518 0.0
C2570 C 0.2767 0.36406 0.66261 0.0
H2571 H 0.20512 0.34426 0.62206 0.0
C2572 C 0.20933 0.34323 0.60125 0.0
H2573 H 0.22545 0.33551 0.57691 0.0
H2574 H 0.24281 0.29262 0.66849 0.0
H2575 H 0.21409 0.26629 0.64994 0.0
H2576 H 0.19342 0.27121 0.61815 0.0
H2577 H 0.20136 0.30259 0.60471 0.0
C2578 C 0.22202 0.33783 0.59764 0.0
C2579 C 0.23245 0.33526 0.62096 0.0
C2580 C 0.22751 0.31695 0.62904 0.0
C2581 C 0.23939 0.31415 0.64757 0.0
C2582 C 0.23425 0.29561 0.65474 0.0
C2583 C 0.21781 0.28035 0.64419 0.0
C2584 C 0.20618 0.28312 0.62626 0.0
C2585 C 0.21092 0.30117 0.61866 0.0
H2586 H 0.70935 0.95493 0.65446 0.0
C2587 C 0.69899 0.95888 0.65892 0.0
H2588 H 0.67072 0.94898 0.66543 0.0
H2589 H 0.65048 0.88049 0.582 0.0
H2590 H 0.63519 0.89566 0.56039 0.0
H2591 H 0.6378 0.92444 0.5815 0.0
H2592 H 0.65577 0.9382 0.62424 0.0
C2593 C 0.68135 0.9453 0.66187 0.0
C2594 C 0.67571 0.92553 0.65372 0.0
C2595 C 0.66439 0.91721 0.62937 0.0
C2596 C 0.66304 0.90071 0.61702 0.0
C2597 C 0.65228 0.89314 0.59207 0.0
C2598 C 0.64329 0.90165 0.57951 0.0
C2599 C 0.64476 0.91783 0.5914 0.0
C2600 C 0.65516 0.92559 0.616 0.0
H2601 H 0.65393 0.85468 0.61717 0.0
C2602 C 0.66607 0.86257 0.60493 0.0
H2603 H 0.69017 0.88846 0.59915 0.0
H2604 H 0.69427 0.93504 0.70401 0.0
H2605 H 0.70918 0.91937 0.72613 0.0
H2606 H 0.70762 0.89134 0.70385 0.0
H2607 H 0.69095 0.87865 0.65941 0.0
C2608 C 0.67777 0.88088 0.61099 0.0
C2609 C 0.67313 0.89273 0.62892 0.0
C2610 C 0.68263 0.89979 0.65485 0.0
C2611 C 0.68376 0.9161 0.66746 0.0
C2612 C 0.69338 0.92291 0.69337 0.0
C2613 C 0.70188 0.91399 0.70628 0.0
C2614 C 0.701 0.8982 0.69373 0.0
C2615 C 0.69151 0.89112 0.66826 0.0
H2616 H 0.05606 0.72415 0.69217 0.0
C2617 C 0.04424 0.72563 0.68603 0.0
H2618 H 0.03432 0.73926 0.65993 0.0
H2619 H 0.12726 0.78798 0.65692 0.0
H2620 H 0.12653 0.79663 0.70505 0.0
H2621 H 0.09694 0.78376 0.7288 0.0
H2622 H 0.06793 0.76189 0.70467 0.0
C2623 C 0.04609 0.7378 0.6665 0.0
C2624 C 0.06357 0.74801 0.65132 0.0
C2625 C 0.08032 0.7614 0.66537 0.0
C2626 C 0.09731 0.76939 0.65137 0.0
C2627 C 0.11393 0.7819 0.66631 0.0
C2628 C 0.1137 0.78694 0.69398 0.0
C2629 C 0.09705 0.77966 0.70738 0.0
C2630 C 0.08051 0.76703 0.69335 0.0
H2631 H 0.12329 0.79947 0.60797 0.0
C2632 C 0.12573 0.78839 0.60046 0.0
H2633 H 0.11773 0.75973 0.60167 0.0
H2634 H 0.03375 0.72388 0.61772 0.0
H2635 H 0.03422 0.71666 0.56893 0.0
H2636 H 0.06346 0.73154 0.5441 0.0
H2637 H 0.09232 0.75362 0.56798 0.0
C2638 C 0.11505 0.77072 0.60879 0.0
C2639 C 0.09739 0.76446 0.62309 0.0
C2640 C 0.08046 0.75199 0.6086 0.0
C2641 C 0.06356 0.74369 0.62275 0.0
C2642 C 0.04698 0.73081 0.60795 0.0
C2643 C 0.04703 0.7265 0.5799 0.0
C2644 C 0.06348 0.73485 0.56594 0.0
C2645 C 0.08001 0.74745 0.57998 0.0
H2646 H 0.99892 0.64423 0.70984 0.0
C2647 C 0.98472 0.63903 0.71579 0.0
H2648 H 0.96066 0.61607 0.7309 0.0
H2649 H 0.97806 0.55162 0.70692 0.0
H2650 H 0.95553 0.54527 0.66934 0.0
H2651 H 0.94554 0.56815 0.65865 0.0
H2652 H 0.95801 0.59753 0.68536 0.0
C2653 C 0.97495 0.62156 0.72524 0.0
C2654 C 0.98306 0.60914 0.72915 0.0
C2655 C 0.97573 0.59209 0.71328 0.0
C2656 C 0.98138 0.57881 0.71956 0.0
C2657 C 0.97392 0.56197 0.70329 0.0
C2658 C 0.96109 0.55822 0.6816 0.0
C2659 C 0.95548 0.57111 0.67557 0.0
C2660 C 0.96268 0.58788 0.69112 0.0
H2661 H 0.97006 0.55154 0.76505 0.0
C2662 C 0.98379 0.55304 0.76555 0.0
H2663 H 0.01148 0.56999 0.75494 0.0
H2664 H 0.99998 0.64039 0.7642 0.0
H2665 H 0.02321 0.64704 0.80028 0.0
H2666 H 0.03372 0.62448 0.80999 0.0
H2667 H 0.02084 0.59504 0.78394 0.0
C2668 C 0.99739 0.56735 0.75243 0.0
C2669 C 0.99424 0.58251 0.74185 0.0
C2670 C 1.00249 0.60008 0.75658 0.0
C2671 C 0.99671 0.61329 0.75053 0.0
C2672 C 1.00425 0.6301 0.76702 0.0
C2673 C 0.01754 0.63407 0.78804 0.0
C2674 C 0.02343 0.62136 0.79355 0.0
C2675 C 0.01592 0.60448 0.77831 0.0
H2676 H 0.38515 0.38344 0.69678 0.0
C2677 C 0.38955 0.37318 0.69991 0.0
H2678 H 0.41195 0.36892 0.7096 0.0
H2679 H 0.45621 0.46059 0.68605 0.0
H2680 H 0.44597 0.45163 0.63773 0.0
H2681 H 0.42468 0.41855 0.62354 0.0
H2682 H 0.41329 0.39419 0.65755 0.0
C2683 C 0.40757 0.37911 0.70568 0.0
C2684 C 0.42112 0.39913 0.71339 0.0
C2685 C 0.42791 0.41312 0.69323 0.0
C2686 C 0.44038 0.43221 0.70138 0.0
C2687 C 0.44667 0.44593 0.68091 0.0
C2688 C 0.44097 0.44097 0.65315 0.0
C2689 C 0.42898 0.42233 0.64515 0.0
C2690 C 0.4225 0.4085 0.66486 0.0
H2691 H 0.48259 0.46197 0.74553 0.0
C2692 C 0.47314 0.46719 0.74933 0.0
H2693 H 0.4463 0.46305 0.74194 0.0
H2694 H 0.41081 0.37583 0.75742 0.0
H2695 H 0.42101 0.38472 0.80545 0.0
H2696 H 0.44326 0.41757 0.8194 0.0
H2697 H 0.45549 0.44152 0.78548 0.0
C2698 C 0.4555 0.45741 0.73909 0.0
C2699 C 0.44628 0.43729 0.72957 0.0
C2700 C 0.44004 0.42312 0.7496 0.0
C2701 C 0.42736 0.4041 0.74152 0.0
C2702 C 0.42067 0.39044 0.76222 0.0
C2703 C 0.42634 0.39534 0.78996 0.0
C2704 C 0.43884 0.41381 0.79781 0.0
C2705 C 0.44567 0.42754 0.778 0.0
H2706 H 0.63257 0.01201 0.64977 0.0
C2707 C 0.63979 0.0066 0.66222 0.0
H2708 H 0.64113 0.99519 0.70038 0.0
H2709 H 0.60442 0.0334 0.76801 0.0
H2710 H 0.63563 0.04907 0.78763 0.0
H2711 H 0.65972 0.04405 0.7672 0.0
H2712 H 0.65259 0.02309 0.7272 0.0
C2713 C 0.63374 1.00016 0.68743 0.0
C2714 C 0.61881 0.00253 0.69988 0.0
C2715 C 0.62326 0.01505 0.72309 0.0
C2716 C 0.60945 0.01826 0.73445 0.0
C2717 C 0.61429 0.03058 0.75806 0.0
C2718 C 0.63222 0.0397 0.76966 0.0
C2719 C 0.64577 0.03685 0.75819 0.0
C2720 C 0.64144 0.02472 0.73521 0.0
H2721 H 0.5598 0.98421 0.74607 0.0
C2722 C 0.56271 0.9986 0.74837 0.0
H2723 H 0.58018 0.02672 0.73907 0.0
H2724 H 0.60506 0.97596 0.65751 0.0
H2725 H 0.57399 0.96091 0.63668 0.0
H2726 H 0.55068 0.96832 0.65404 0.0
H2727 H 0.55821 0.99056 0.69269 0.0
C2728 C 0.57689 0.0123 0.73522 0.0
C2729 C 0.5912 0.00908 0.72237 0.0
C2730 C 0.58678 0.99663 0.69905 0.0
C2731 C 0.60048 0.99303 0.68819 0.0
C2732 C 0.59542 0.97978 0.66586 0.0
C2733 C 0.57759 0.97095 0.65383 0.0
C2734 C 0.56445 0.97506 0.66367 0.0
C2735 C 0.56891 0.98776 0.68599 0.0
loop_
_geom_bond_atom_site_label_1
_geom_bond_atom_site_label_2
_geom_bond_distance
_geom_bond_site_symmetry_2
_ccdc_geom_bond_type
Mg0 O1 2.028 1_556 S
Mg0 O7 1.986 1_455 S
Mg0 O9 2.114 . S
Mg0 O10 2.251 1_455 S
Mg0 O13 2.010 1_556 S
O1 Mg0 2.028 1_554 S
O1 C4 1.250 1_455 S
O2 Mg3 2.028 1_554 S
O2 C4 1.248 . S
Mg3 O2 2.028 1_556 S
Mg3 O8 2.032 . S
Mg3 O10 2.079 . S
C4 O1 1.250 1_655 S
C4 O2 1.248 . S
C5 O6 1.264 1_554 S
C5 O13 1.249 . S
O6 C5 1.264 1_556 S
O7 Mg0 1.986 1_655 S
O7 C11 1.246 . S
O8 Mg3 2.032 . S
O8 C11 1.259 . S
O9 Mg0 2.114 . S
O9 C12 1.252 . S
O10 Mg0 2.251 1_655 S
O10 Mg3 2.079 . S
O10 C12 1.273 1_655 S
C11 O7 1.246 . S
C11 O8 1.259 . S
C12 O9 1.252 . S
C12 O10 1.273 1_455 S
O13 Mg0 2.010 1_554 S
O13 C5 1.249 . S
Mg14 O15 2.028 1_554 S
Mg14 O21 1.986 . S
Mg14 O23 2.114 . S
Mg14 O24 2.251 . S
Mg14 O27 2.010 . S
O15 Mg14 2.028 1_556 S
O15 C18 1.250 . S
O16 Mg17 2.028 1_556 S
O16 C18 1.248 . S
Mg17 O16 2.028 1_554 S
Mg17 O22 2.032 . S
Mg17 O24 2.079 . S
C18 O15 1.250 . S
C18 O16 1.248 . S
C19 O20 1.264 . S
C19 O27 1.249 . S
O20 C19 1.264 . S
O21 Mg14 1.986 . S
O21 C25 1.246 . S
O22 Mg17 2.032 . S
O22 C25 1.259 . S
O23 Mg14 2.114 . S
O23 C26 1.252 . S
O24 Mg14 2.251 . S
O24 Mg17 2.079 . S
O24 C26 1.273 . S
C25 O21 1.246 . S
C25 O22 1.259 . S
C26 O23 1.252 . S
C26 O24 1.273 . S
O27 Mg14 2.010 . S
O27 C19 1.249 . S
Mg28 O29 2.023 1_556 S
Mg28 O35 1.986 1_565 S
Mg28 O37 2.114 . S
Mg28 O38 2.251 1_565 S
Mg28 O41 2.010 1_556 S
O29 Mg28 2.023 1_554 S
O29 C32 1.244 1_565 S
O30 Mg31 2.028 1_554 S
O30 C32 1.248 . S
Mg31 O30 2.028 1_556 S
Mg31 O36 2.032 . S
Mg31 O38 2.079 . S
C32 O29 1.244 1_545 S
C32 O30 1.248 . S
C33 O34 1.264 1_554 S
C33 O41 1.249 . S
O34 C33 1.264 1_556 S
O35 Mg28 1.986 1_545 S
O35 C39 1.246 . S
O36 Mg31 2.032 . S
O36 C39 1.259 . S
O37 Mg28 2.114 . S
O37 C40 1.252 . S
O38 Mg28 2.251 1_545 S
O38 Mg31 2.079 . S
O38 C40 1.273 1_545 S
C39 O35 1.246 . S
C39 O36 1.259 . S
C40 O37 1.252 . S
C40 O38 1.273 1_565 S
O41 Mg28 2.010 1_554 S
O41 C33 1.249 . S
Mg42 O43 2.028 1_554 S
Mg42 O49 1.986 1_655 S
Mg42 O51 2.114 . S
Mg42 O52 2.251 1_655 S
Mg42 O55 2.010 . S
O43 Mg42 2.028 1_556 S
O43 C46 1.250 1_655 S
O44 Mg45 2.028 1_556 S
O44 C46 1.248 . S
Mg45 O44 2.028 1_554 S
Mg45 O50 2.032 . S
Mg45 O52 2.079 . S
C46 O43 1.250 1_455 S
C46 O44 1.248 . S
C47 O48 1.264 . S
C47 O55 1.249 . S
O48 C47 1.264 . S
O49 Mg42 1.986 1_455 S
O49 C53 1.246 . S
O50 Mg45 2.032 . S
O50 C53 1.259 . S
O51 Mg42 2.114 . S
O51 C54 1.252 . S
O52 Mg42 2.251 1_455 S
O52 Mg45 2.079 . S
O52 C54 1.273 1_455 S
C53 O49 1.246 . S
C53 O50 1.259 . S
C54 O51 1.252 . S
C54 O52 1.273 1_655 S
O55 Mg42 2.010 . S
O55 C47 1.249 . S
Mg56 O57 2.028 1_556 S
Mg56 O63 1.986 . S
Mg56 O65 2.114 . S
Mg56 O66 2.251 . S
Mg56 O69 2.010 1_556 S
O57 Mg56 2.028 1_554 S
O57 C60 1.250 . S
O58 Mg59 2.028 1_554 S
O58 C60 1.248 . S
Mg59 O58 2.028 1_556 S
Mg59 O64 2.032 . S
Mg59 O66 2.079 . S
C60 O57 1.250 . S
C60 O58 1.248 . S
C61 O62 1.264 . S
C61 O69 1.249 . S
O62 C61 1.264 . S
O63 Mg56 1.986 . S
O63 C67 1.246 . S
O64 Mg59 2.032 . S
O64 C67 1.259 . S
O65 Mg56 2.114 . S
O65 C68 1.252 . S
O66 Mg56 2.251 . S
O66 Mg59 2.079 . S
O66 C68 1.273 . S
C67 O63 1.246 . S
C67 O64 1.259 . S
C68 O65 1.252 . S
C68 O66 1.273 . S
O69 Mg56 2.010 1_554 S
O69 C61 1.249 . S
Mg70 O71 2.028 1_554 S
Mg70 O77 1.986 1_545 S
Mg70 O79 2.114 . S
Mg70 O80 2.251 1_545 S
Mg70 O83 2.010 . S
O71 Mg70 2.028 1_556 S
O71 C74 1.250 1_545 S
O72 Mg73 2.028 1_556 S
O72 C74 1.248 . S
Mg73 O72 2.028 1_554 S
Mg73 O78 2.032 . S
Mg73 O80 2.079 . S
C74 O71 1.250 1_565 S
C74 O72 1.248 . S
C75 O76 1.264 . S
C75 O83 1.249 . S
O76 C75 1.264 . S
O77 Mg70 1.986 1_565 S
O77 C81 1.246 . S
O78 Mg73 2.032 . S
O78 C81 1.259 . S
O79 Mg70 2.114 . S
O79 C82 1.252 . S
O80 Mg70 2.251 1_565 S
O80 Mg73 2.079 . S
O80 C82 1.273 1_565 S
C81 O77 1.246 . S
C81 O78 1.259 . S
C82 O79 1.252 . S
C82 O80 1.273 1_545 S
O83 Mg70 2.010 . S
O83 C75 1.249 . S
Mg84 O85 2.028 . S
Mg84 O91 1.986 . S
Mg84 O93 2.114 . S
Mg84 O94 2.251 . S
Mg84 O97 2.010 . S
O85 Mg84 2.028 . S
O85 C88 1.250 . S
O86 Mg87 2.028 . S
O86 C88 1.248 . S
Mg87 O86 2.028 . S
Mg87 O92 2.032 . S
Mg87 O94 2.079 . S
C88 O85 1.250 . S
C88 O86 1.248 . S
C89 O90 1.264 . S
C89 O97 1.249 . S
O90 C89 1.264 . S
O91 Mg84 1.986 . S
O91 C95 1.246 . S
O92 Mg87 2.032 . S
O92 C95 1.259 . S
O93 Mg84 2.114 . S
O93 C96 1.252 . S
O94 Mg84 2.251 . S
O94 Mg87 2.079 . S
O94 C96 1.273 . S
C95 O91 1.246 . S
C95 O92 1.259 . S
C96 O93 1.252 . S
C96 O94 1.273 . S
O97 Mg84 2.010 . S
O97 C89 1.249 . S
Mg98 O99 2.028 . S
Mg98 O105 1.986 1_565 S
Mg98 O107 2.114 . S
Mg98 O108 2.251 . S
Mg98 O111 2.010 . S
O99 Mg98 2.028 . S
O99 C102 1.250 . S
O100 Mg101 2.028 . S
O100 C102 1.248 . S
Mg101 O100 2.028 . S
Mg101 O106 2.032 1_565 S
Mg101 O108 2.079 . S
C102 O99 1.250 . S
C102 O100 1.248 . S
C103 O104 1.264 . S
C103 O111 1.249 . S
O104 C103 1.264 . S
O105 Mg98 1.986 1_545 S
O105 C109 1.246 . S
O106 Mg101 2.032 1_545 S
O106 C109 1.259 . S
O107 Mg98 2.114 . S
O107 C110 1.252 . S
O108 Mg98 2.251 . S
O108 Mg101 2.079 . S
O108 C110 1.273 . S
C109 O105 1.246 . S
C109 O106 1.259 . S
C110 O107 1.252 . S
C110 O108 1.273 . S
O111 Mg98 2.010 . S
O111 C103 1.249 . S
Mg112 O113 2.028 . S
Mg112 O119 1.986 . S
Mg112 O121 2.114 . S
Mg112 O122 2.251 . S
Mg112 O125 2.010 1_455 S
O113 Mg112 2.028 . S
O113 C116 1.250 . S
O114 Mg115 2.028 . S
O114 C116 1.248 . S
Mg115 O114 2.028 . S
Mg115 O120 2.032 . S
Mg115 O122 2.079 . S
C116 O113 1.250 . S
C116 O114 1.248 . S
C117 O118 1.264 . S
C117 O125 1.249 . S
O118 C117 1.264 . S
O119 Mg112 1.986 . S
O119 C123 1.246 . S
O120 Mg115 2.032 . S
O120 C123 1.259 . S
O121 Mg112 2.114 . S
O121 C124 1.252 . S
O122 Mg112 2.251 . S
O122 Mg115 2.079 . S
O122 C124 1.273 . S
C123 O119 1.246 . S
C123 O120 1.259 . S
C124 O121 1.252 . S
C124 O122 1.273 . S
O125 Mg112 2.010 1_655 S
O125 C117 1.249 . S
Mg126 O127 2.028 . S
Mg126 O133 1.986 1_565 S
Mg126 O135 2.114 . S
Mg126 O136 2.251 . S
Mg126 O139 2.010 . S
O127 Mg126 2.028 . S
O127 C130 1.250 . S
O128 Mg129 2.028 . S
O128 C130 1.248 . S
Mg129 O128 2.028 . S
Mg129 O134 2.032 1_565 S
Mg129 O136 2.079 . S
C130 O127 1.250 . S
C130 O128 1.248 . S
C131 O132 1.264 . S
C131 O139 1.249 . S
O132 C131 1.264 . S
O133 Mg126 1.986 1_545 S
O133 C137 1.246 . S
O134 Mg129 2.032 1_545 S
O134 C137 1.259 . S
O135 Mg126 2.114 . S
O135 C138 1.252 . S
O136 Mg126 2.251 . S
O136 Mg129 2.079 . S
O136 C138 1.273 . S
C137 O133 1.246 . S
C137 O134 1.259 . S
C138 O135 1.252 . S
C138 O136 1.273 . S
O139 Mg126 2.010 . S
O139 C131 1.249 . S
Mg140 O141 2.028 . S
Mg140 O147 1.986 . S
Mg140 O149 2.114 . S
Mg140 O150 2.251 . S
Mg140 O153 2.010 1_455 S
O141 Mg140 2.028 . S
O141 C144 1.250 . S
O142 Mg143 2.028 . S
O142 C144 1.248 . S
Mg143 O142 2.028 . S
Mg143 O148 2.032 . S
Mg143 O150 2.079 . S
C144 O141 1.250 . S
C144 O142 1.248 . S
C145 O146 1.264 . S
C145 O153 1.249 . S
O146 C145 1.264 . S
O147 Mg140 1.986 . S
O147 C151 1.246 . S
O148 Mg143 2.032 . S
O148 C151 1.259 . S
O149 Mg140 2.114 . S
O149 C152 1.252 . S
O150 Mg140 2.251 . S
O150 Mg143 2.079 . S
O150 C152 1.273 . S
C151 O147 1.246 . S
C151 O148 1.259 . S
C152 O149 1.252 . S
C152 O150 1.273 . S
O153 Mg140 2.010 1_655 S
O153 C145 1.249 . S
Mg154 O155 2.028 . S
Mg154 O161 1.986 . S
Mg154 O163 2.114 . S
Mg154 O164 2.251 . S
Mg154 O167 2.010 . S
O155 Mg154 2.028 . S
O155 C158 1.250 . S
O156 Mg157 2.028 . S
O156 C158 1.248 . S
Mg157 O156 2.028 . S
Mg157 O162 2.032 . S
Mg157 O164 2.079 . S
C158 O155 1.250 . S
C158 O156 1.248 . S
C159 O160 1.264 . S
C159 O167 1.249 . S
O160 C159 1.264 . S
O161 Mg154 1.986 . S
O161 C165 1.246 . S
O162 Mg157 2.032 . S
O162 C165 1.259 . S
O163 Mg154 2.114 . S
O163 C166 1.252 . S
O164 Mg154 2.251 . S
O164 Mg157 2.079 . S
O164 C166 1.273 . S
C165 O161 1.246 . S
C165 O162 1.259 . S
C166 O163 1.252 . S
C166 O164 1.273 . S
O167 Mg154 2.010 . S
O167 C159 1.249 . S
Mg168 O169 2.028 . S
Mg168 O175 1.986 1_545 S
Mg168 O177 2.114 . S
Mg168 O178 2.251 . S
Mg168 O181 2.010 . S
O169 Mg168 2.028 . S
O169 C172 1.250 . S
O170 Mg171 2.028 . S
O170 C172 1.248 . S
Mg171 O170 2.028 . S
Mg171 O176 2.032 1_545 S
Mg171 O178 2.079 . S
C172 O169 1.250 . S
C172 O170 1.248 . S
C173 O174 1.264 . S
C173 O181 1.249 . S
O174 C173 1.264 . S
O175 Mg168 1.986 1_565 S
O175 C179 1.246 . S
O176 Mg171 2.032 1_565 S
O176 C179 1.259 . S
O177 Mg168 2.114 . S
O177 C180 1.252 . S
O178 Mg168 2.251 . S
O178 Mg171 2.079 . S
O178 C180 1.273 . S
C179 O175 1.246 . S
C179 O176 1.259 . S
C180 O177 1.252 . S
C180 O178 1.273 . S
O181 Mg168 2.010 . S
O181 C173 1.249 . S
Mg182 O183 2.028 . S
Mg182 O189 1.986 . S
Mg182 O191 2.114 . S
Mg182 O192 2.251 . S
Mg182 O195 2.010 1_655 S
O183 Mg182 2.028 . S
O183 C186 1.250 . S
O184 Mg185 2.028 . S
O184 C186 1.248 . S
Mg185 O184 2.028 . S
Mg185 O190 2.032 . S
Mg185 O192 2.079 . S
C186 O183 1.250 . S
C186 O184 1.248 . S
C187 O188 1.264 . S
C187 O195 1.249 . S
O188 C187 1.264 . S
O189 Mg182 1.986 . S
O189 C193 1.246 . S
O190 Mg185 2.032 . S
O190 C193 1.259 . S
O191 Mg182 2.114 . S
O191 C194 1.252 . S
O192 Mg182 2.251 . S
O192 Mg185 2.079 . S
O192 C194 1.273 . S
C193 O189 1.246 . S
C193 O190 1.259 . S
C194 O191 1.252 . S
C194 O192 1.273 . S
O195 Mg182 2.010 1_455 S
O195 C187 1.249 . S
Mg196 O197 2.028 . S
Mg196 O203 1.986 . S
Mg196 O205 2.114 . S
Mg196 O206 2.251 . S
Mg196 O209 2.010 . S
O197 Mg196 2.028 . S
O197 C200 1.250 . S
O198 Mg199 2.028 . S
O198 C200 1.248 . S
Mg199 O198 2.028 . S
Mg199 O204 2.032 . S
Mg199 O206 2.079 . S
C200 O197 1.250 . S
C200 O198 1.248 . S
C201 O202 1.264 . S
C201 O209 1.249 . S
O202 C201 1.264 . S
O203 Mg196 1.986 . S
O203 C207 1.246 . S
O204 Mg199 2.032 . S
O204 C207 1.259 . S
O205 Mg196 2.114 . S
O205 C208 1.252 . S
O206 Mg196 2.251 . S
O206 Mg199 2.079 . S
O206 C208 1.273 . S
C207 O203 1.246 . S
C207 O204 1.259 . S
C208 O205 1.252 . S
C208 O206 1.273 . S
O209 Mg196 2.010 . S
O209 C201 1.249 . S
Mg210 O211 2.028 . S
Mg210 O217 1.986 . S
Mg210 O219 2.114 . S
Mg210 O220 2.251 . S
Mg210 O223 2.010 . S
O211 Mg210 2.028 . S
O211 C214 1.250 . S
O212 Mg213 2.028 . S
O212 C214 1.248 . S
Mg213 O212 2.028 . S
Mg213 O218 2.032 . S
Mg213 O220 2.079 . S
C214 O211 1.250 . S
C214 O212 1.248 . S
C215 O216 1.264 . S
C215 O223 1.249 . S
O216 C215 1.264 . S
O217 Mg210 1.986 . S
O217 C221 1.246 . S
O218 Mg213 2.032 . S
O218 C221 1.259 . S
O219 Mg210 2.114 . S
O219 C222 1.252 . S
O220 Mg210 2.251 . S
O220 Mg213 2.079 . S
O220 C222 1.273 . S
C221 O217 1.246 . S
C221 O218 1.259 . S
C222 O219 1.252 . S
C222 O220 1.273 . S
O223 Mg210 2.010 . S
O223 C215 1.249 . S
Mg224 O225 2.028 . S
Mg224 O231 1.986 1_545 S
Mg224 O233 2.114 . S
Mg224 O234 2.251 . S
Mg224 O237 2.010 . S
O225 Mg224 2.028 . S
O225 C228 1.250 . S
O226 Mg227 2.028 . S
O226 C228 1.248 . S
Mg227 O226 2.028 . S
Mg227 O232 2.032 1_545 S
Mg227 O234 2.079 . S
C228 O225 1.250 . S
C228 O226 1.248 . S
C229 O230 1.264 . S
C229 O237 1.249 . S
O230 C229 1.264 . S
O231 Mg224 1.986 1_565 S
O231 C235 1.246 . S
O232 Mg227 2.032 1_565 S
O232 C235 1.259 . S
O233 Mg224 2.114 . S
O233 C236 1.252 . S
O234 Mg224 2.251 . S
O234 Mg227 2.079 . S
O234 C236 1.273 . S
C235 O231 1.246 . S
C235 O232 1.259 . S
C236 O233 1.252 . S
C236 O234 1.273 . S
O237 Mg224 2.010 . S
O237 C229 1.249 . S
Mg238 O239 2.028 . S
Mg238 O245 1.986 . S
Mg238 O247 2.114 . S
Mg238 O248 2.251 . S
Mg238 O251 2.010 1_655 S
O239 Mg238 2.028 . S
O239 C242 1.250 . S
O240 Mg241 2.028 . S
O240 C242 1.248 . S
Mg241 O240 2.028 . S
Mg241 O246 2.032 . S
Mg241 O248 2.079 . S
C242 O239 1.250 . S
C242 O240 1.248 . S
C243 O244 1.264 . S
C243 O251 1.249 . S
O244 C243 1.264 . S
O245 Mg238 1.986 . S
O245 C249 1.246 . S
O246 Mg241 2.032 . S
O246 C249 1.259 . S
O247 Mg238 2.114 . S
O247 C250 1.252 . S
O248 Mg238 2.251 . S
O248 Mg241 2.079 . S
O248 C250 1.273 . S
C249 O245 1.246 . S
C249 O246 1.259 . S
C250 O247 1.252 . S
C250 O248 1.273 . S
O251 Mg238 2.010 1_455 S
O251 C243 1.249 . S
H252 C258 0.930 . S
H253 C261 0.931 . S
H254 C263 0.931 . S
H255 C265 0.930 . S
H256 C267 0.930 . S
H257 C269 0.931 . S
C258 H252 0.930 . S
C258 C259 1.380 . S
C258 C260 1.394 . S
C259 C258 1.380 . S
C259 C263 1.382 . S
C260 C258 1.394 . S
C260 C261 1.400 . S
C261 H253 0.931 . S
C261 C260 1.400 . S
C261 C262 1.375 . S
C262 C261 1.375 . S
C262 C263 1.415 . S
C262 C264 1.501 . S
C263 H254 0.931 . S
C263 C259 1.382 . S
C263 C262 1.415 . S
C264 C262 1.501 . S
C264 C265 1.384 . S
C264 C269 1.408 . S
C265 H255 0.930 . S
C265 C264 1.384 . S
C265 C266 1.389 . S
C266 C265 1.389 . S
C266 C267 1.405 . S
C267 H256 0.930 . S
C267 C266 1.405 . S
C267 C268 1.364 . S
C268 C267 1.364 . S
C268 C269 1.400 . S
C269 H257 0.931 . S
C269 C264 1.408 . S
C269 C268 1.400 . S
H270 C276 0.930 . S
H271 C279 0.931 . S
H272 C281 0.931 . S
H273 C283 0.930 . S
H274 C285 0.930 . S
H275 C287 0.931 . S
C276 H270 0.930 . S
C276 C277 1.380 . S
C276 C278 1.394 . S
C277 C276 1.380 . S
C277 C281 1.382 . S
C278 C276 1.394 . S
C278 C279 1.400 . S
C279 H271 0.931 . S
C279 C278 1.400 . S
C279 C280 1.375 . S
C280 C279 1.375 . S
C280 C281 1.415 . S
C280 C282 1.501 . S
C281 H272 0.931 . S
C281 C277 1.382 . S
C281 C280 1.415 . S
C282 C280 1.501 . S
C282 C283 1.384 . S
C282 C287 1.408 . S
C283 H273 0.930 . S
C283 C282 1.384 . S
C283 C284 1.389 . S
C284 C283 1.389 . S
C284 C285 1.405 . S
C285 H274 0.930 . S
C285 C284 1.405 . S
C285 C286 1.364 . S
C286 C285 1.364 . S
C286 C287 1.400 . S
C287 H275 0.931 . S
C287 C282 1.408 . S
C287 C286 1.400 . S
H288 C294 0.930 . S
H289 C297 0.931 . S
H290 C299 0.931 . S
H291 C301 0.930 . S
H292 C303 0.930 . S
H293 C305 0.931 . S
C294 H288 0.930 . S
C294 C295 1.380 . S
C294 C296 1.394 . S
C295 C294 1.380 . S
C295 C299 1.382 . S
C296 C294 1.394 . S
C296 C297 1.400 . S
C297 H289 0.931 . S
C297 C296 1.400 . S
C297 C298 1.375 . S
C298 C297 1.375 . S
C298 C299 1.415 . S
C298 C300 1.501 . S
C299 H290 0.931 . S
C299 C295 1.382 . S
C299 C298 1.415 . S
C300 C298 1.501 . S
C300 C301 1.384 . S
C300 C305 1.408 . S
C301 H291 0.930 . S
C301 C300 1.384 . S
C301 C302 1.389 . S
C302 C301 1.389 . S
C302 C303 1.405 . S
C303 H292 0.930 . S
C303 C302 1.405 . S
C303 C304 1.364 . S
C304 C303 1.364 . S
C304 C305 1.400 . S
C305 H293 0.931 . S
C305 C300 1.408 . S
C305 C304 1.400 . S
H306 C312 0.930 . S
H307 C315 0.931 . S
H308 C317 0.931 . S
H309 C319 0.930 . S
H310 C321 0.930 . S
H311 C323 0.931 . S
C312 H306 0.930 . S
C312 C313 1.380 . S
C312 C314 1.394 . S
C313 C312 1.380 . S
C313 C317 1.382 . S
C314 C312 1.394 . S
C314 C315 1.400 . S
C315 H307 0.931 . S
C315 C314 1.400 . S
C315 C316 1.375 . S
C316 C315 1.375 . S
C316 C317 1.415 . S
C316 C318 1.501 . S
C317 H308 0.931 . S
C317 C313 1.382 . S
C317 C316 1.415 . S
C318 C316 1.501 . S
C318 C319 1.384 . S
C318 C323 1.408 . S
C319 H309 0.930 . S
C319 C318 1.384 . S
C319 C320 1.389 . S
C320 C319 1.389 . S
C320 C321 1.405 . S
C321 H310 0.930 . S
C321 C320 1.405 . S
C321 C322 1.364 . S
C322 C321 1.364 . S
C322 C323 1.400 . S
C323 H311 0.931 . S
C323 C318 1.408 . S
C323 C322 1.400 . S
H324 C330 0.930 . S
H325 C333 0.931 . S
H326 C335 0.931 . S
H327 C337 0.930 . S
H328 C339 0.930 . S
H329 C341 0.931 . S
C330 H324 0.930 . S
C330 C331 1.380 . S
C330 C332 1.394 . S
C331 C330 1.380 . S
C331 C335 1.382 . S
C332 C330 1.394 . S
C332 C333 1.400 . S
C333 H325 0.931 . S
C333 C332 1.400 . S
C333 C334 1.375 . S
C334 C333 1.375 . S
C334 C335 1.415 . S
C334 C336 1.501 . S
C335 H326 0.931 . S
C335 C331 1.382 . S
C335 C334 1.415 . S
C336 C334 1.501 . S
C336 C337 1.384 . S
C336 C341 1.408 . S
C337 H327 0.930 . S
C337 C336 1.384 . S
C337 C338 1.389 . S
C338 C337 1.389 . S
C338 C339 1.405 . S
C339 H328 0.930 . S
C339 C338 1.405 . S
C339 C340 1.364 . S
C340 C339 1.364 . S
C340 C341 1.400 . S
C341 H329 0.931 . S
C341 C336 1.408 . S
C341 C340 1.400 . S
H342 C348 0.930 . S
H343 C351 0.931 . S
H344 C353 0.931 . S
H345 C355 0.930 . S
H346 C357 0.930 . S
H347 C359 0.931 . S
C348 H342 0.930 . S
C348 C349 1.380 . S
C348 C350 1.394 . S
C349 C348 1.380 . S
C349 C353 1.382 . S
C350 C348 1.394 . S
C350 C351 1.400 . S
C351 H343 0.931 . S
C351 C350 1.400 . S
C351 C352 1.375 . S
C352 C351 1.375 . S
C352 C353 1.415 . S
C352 C354 1.501 . S
C353 H344 0.931 . S
C353 C349 1.382 . S
C353 C352 1.415 . S
C354 C352 1.501 . S
C354 C355 1.384 . S
C354 C359 1.408 . S
C355 H345 0.930 . S
C355 C354 1.384 . S
C355 C356 1.389 . S
C356 C355 1.389 . S
C356 C357 1.405 . S
C357 H346 0.930 . S
C357 C356 1.405 . S
C357 C358 1.364 . S
C358 C357 1.364 . S
C358 C359 1.400 . S
C359 H347 0.931 . S
C359 C354 1.408 . S
C359 C358 1.400 . S
H360 C366 0.930 . S
H361 C369 0.931 . S
H362 C371 0.931 . S
H363 C373 0.930 . S
H364 C375 0.930 . S
H365 C377 0.931 . S
C366 H360 0.930 . S
C366 C367 1.380 . S
C366 C368 1.394 . S
C367 C366 1.380 . S
C367 C371 1.382 . S
C368 C366 1.394 . S
C368 C369 1.400 . S
C369 H361 0.931 . S
C369 C368 1.400 . S
C369 C370 1.375 . S
C370 C369 1.375 . S
C370 C371 1.415 . S
C370 C372 1.501 . S
C371 H362 0.931 . S
C371 C367 1.382 . S
C371 C370 1.415 . S
C372 C370 1.501 . S
C372 C373 1.384 . S
C372 C377 1.408 . S
C373 H363 0.930 . S
C373 C372 1.384 . S
C373 C374 1.389 . S
C374 C373 1.389 . S
C374 C375 1.405 . S
C375 H364 0.930 . S
C375 C374 1.405 . S
C375 C376 1.364 . S
C376 C375 1.364 . S
C376 C377 1.400 . S
C377 H365 0.931 . S
C377 C372 1.408 . S
C377 C376 1.400 . S
H378 C384 0.930 . S
H379 C387 0.931 . S
H380 C389 0.931 . S
H381 C391 0.930 . S
H382 C393 0.930 . S
H383 C395 0.931 . S
C384 H378 0.930 . S
C384 C385 1.380 . S
C384 C386 1.394 . S
C385 C384 1.380 . S
C385 C389 1.382 . S
C386 C384 1.394 . S
C386 C387 1.400 . S
C387 H379 0.931 . S
C387 C386 1.400 . S
C387 C388 1.375 . S
C388 C387 1.375 . S
C388 C389 1.415 . S
C388 C390 1.501 . S
C389 H380 0.931 . S
C389 C385 1.382 . S
C389 C388 1.415 . S
C390 C388 1.501 . S
C390 C391 1.384 . S
C390 C395 1.408 . S
C391 H381 0.930 . S
C391 C390 1.384 . S
C391 C392 1.389 . S
C392 C391 1.389 . S
C392 C393 1.405 . S
C393 H382 0.930 . S
C393 C392 1.405 . S
C393 C394 1.364 . S
C394 C393 1.364 . S
C394 C395 1.400 . S
C395 H383 0.931 . S
C395 C390 1.408 . S
C395 C394 1.400 . S
H396 C402 0.930 . S
H397 C405 0.931 . S
H398 C407 0.931 . S
H399 C409 0.930 . S
H400 C411 0.930 . S
H401 C413 0.931 . S
C402 H396 0.930 . S
C402 C403 1.380 . S
C402 C404 1.394 . S
C403 C402 1.380 . S
C403 C407 1.382 . S
C404 C402 1.394 . S
C404 C405 1.400 . S
C405 H397 0.931 . S
C405 C404 1.400 . S
C405 C406 1.375 . S
C406 C405 1.375 . S
C406 C407 1.415 . S
C406 C408 1.501 . S
C407 H398 0.931 . S
C407 C403 1.382 . S
C407 C406 1.415 . S
C408 C406 1.501 . S
C408 C409 1.384 . S
C408 C413 1.408 . S
C409 H399 0.930 . S
C409 C408 1.384 . S
C409 C410 1.389 . S
C410 C409 1.389 . S
C410 C411 1.405 . S
C411 H400 0.930 . S
C411 C410 1.405 . S
C411 C412 1.364 . S
C412 C411 1.364 . S
C412 C413 1.400 . S
C413 H401 0.931 . S
C413 C408 1.408 . S
C413 C412 1.400 . S
H414 C420 0.926 . S
H415 C423 0.931 . S
H416 C425 0.931 . S
H417 C427 0.930 . S
H418 C429 0.930 . S
H419 C431 0.941 . S
C420 H414 0.926 . S
C420 C421 1.383 . S
C420 C422 1.395 1_655 S
C421 C420 1.383 . S
C421 C425 1.382 . S
C422 C420 1.395 1_455 S
C422 C423 1.400 . S
C423 H415 0.931 . S
C423 C422 1.400 . S
C423 C424 1.375 . S
C424 C423 1.375 . S
C424 C425 1.415 1_455 S
C424 C426 1.501 . S
C425 H416 0.931 . S
C425 C421 1.382 . S
C425 C424 1.415 1_655 S
C426 C424 1.501 . S
C426 C427 1.384 . S
C426 C431 1.421 . S
C427 H417 0.930 . S
C427 C426 1.384 . S
C427 C428 1.389 . S
C428 C427 1.389 . S
C428 C429 1.405 . S
C429 H418 0.930 . S
C429 C428 1.405 . S
C429 C430 1.360 . S
C430 C429 1.360 . S
C430 C431 1.391 . S
C431 H419 0.941 . S
C431 C426 1.421 . S
C431 C430 1.391 . S
H432 C438 0.930 . S
H433 C441 0.931 . S
H434 C443 0.931 . S
H435 C445 0.930 . S
H436 C447 0.930 . S
H437 C449 0.931 . S
C438 H432 0.930 . S
C438 C439 1.380 . S
C438 C440 1.394 . S
C439 C438 1.380 . S
C439 C443 1.382 . S
C440 C438 1.394 . S
C440 C441 1.400 . S
C441 H433 0.931 . S
C441 C440 1.400 . S
C441 C442 1.375 . S
C442 C441 1.375 . S
C442 C443 1.415 . S
C442 C444 1.501 . S
C443 H434 0.931 . S
C443 C439 1.382 . S
C443 C442 1.415 . S
C444 C442 1.501 . S
C444 C445 1.384 . S
C444 C449 1.408 . S
C445 H435 0.930 . S
C445 C444 1.384 . S
C445 C446 1.389 . S
C446 C445 1.389 . S
C446 C447 1.405 . S
C447 H436 0.930 . S
C447 C446 1.405 . S
C447 C448 1.364 . S
C448 C447 1.364 . S
C448 C449 1.400 . S
C449 H437 0.931 . S
C449 C444 1.408 . S
C449 C448 1.400 . S
H450 C456 0.938 . S
H451 C459 0.931 . S
H452 C461 0.931 . S
H453 C463 0.930 . S
H454 C465 0.930 . S
H455 C467 0.921 . S
C456 H450 0.938 . S
C456 C457 1.379 . S
C456 C458 1.388 1_545 S
C457 C456 1.379 . S
C457 C461 1.382 . S
C458 C456 1.388 1_565 S
C458 C459 1.400 . S
C459 H451 0.931 . S
C459 C458 1.400 . S
C459 C460 1.375 . S
C460 C459 1.375 . S
C460 C461 1.415 1_565 S
C460 C462 1.501 . S
C461 H452 0.931 . S
C461 C457 1.382 . S
C461 C460 1.415 1_545 S
C462 C460 1.501 . S
C462 C463 1.384 . S
C462 C467 1.396 . S
C463 H453 0.930 . S
C463 C462 1.384 . S
C463 C464 1.389 . S
C464 C463 1.389 . S
C464 C465 1.405 . S
C465 H454 0.930 . S
C465 C464 1.405 . S
C465 C466 1.375 . S
C466 C465 1.375 . S
C466 C467 1.408 . S
C467 H455 0.921 . S
C467 C462 1.396 . S
C467 C466 1.408 . S
H468 C474 0.909 . S
H469 C477 0.931 . S
H470 C479 0.926 . S
H471 C481 0.930 . S
H472 C483 0.930 . S
H473 C485 0.931 . S
C474 H468 0.909 . S
C474 C475 1.385 . S
C474 C476 1.415 1_545 S
C475 C474 1.385 . S
C475 C479 1.403 1_545 S
C476 C474 1.415 1_565 S
C476 C477 1.384 . S
C477 H469 0.931 . S
C477 C476 1.384 . S
C477 C478 1.375 . S
C478 C477 1.375 . S
C478 C479 1.411 . S
C478 C480 1.501 . S
C479 H470 0.926 . S
C479 C475 1.403 1_565 S
C479 C478 1.411 . S
C480 C478 1.501 . S
C480 C481 1.384 . S
C480 C485 1.408 1_565 S
C481 H471 0.930 . S
C481 C480 1.384 . S
C481 C482 1.389 . S
C482 C481 1.389 . S
C482 C483 1.405 . S
C483 H472 0.930 . S
C483 C482 1.405 . S
C483 C484 1.364 1_565 S
C484 C483 1.364 1_545 S
C484 C485 1.400 . S
C485 H473 0.931 . S
C485 C480 1.408 1_545 S
C485 C484 1.400 . S
H486 C492 0.962 . S
H487 C495 0.931 . S
H488 C497 0.934 . S
H489 C499 0.930 . S
H490 C501 0.930 . S
H491 C503 0.931 . S
C492 H486 0.962 . S
C492 C493 1.373 . S
C492 C494 1.371 1_655 S
C493 C492 1.373 . S
C493 C497 1.359 1_655 S
C494 C492 1.371 1_455 S
C494 C495 1.414 . S
C495 H487 0.931 . S
C495 C494 1.414 . S
C495 C496 1.375 . S
C496 C495 1.375 . S
C496 C497 1.422 . S
C496 C498 1.501 . S
C497 H488 0.934 . S
C497 C493 1.359 1_455 S
C497 C496 1.422 . S
C498 C496 1.501 . S
C498 C499 1.384 . S
C498 C503 1.408 1_455 S
C499 H489 0.930 . S
C499 C498 1.384 . S
C499 C500 1.389 . S
C500 C499 1.389 . S
C500 C501 1.405 . S
C501 H490 0.930 . S
C501 C500 1.405 . S
C501 C502 1.364 1_455 S
C502 C501 1.364 1_655 S
C502 C503 1.400 . S
C503 H491 0.931 . S
C503 C498 1.408 1_655 S
C503 C502 1.400 . S
H504 C510 0.930 . S
H505 C513 0.931 . S
H506 C515 0.931 . S
H507 C517 0.930 . S
H508 C519 0.930 . S
H509 C521 0.931 . S
C510 H504 0.930 . S
C510 C511 1.380 . S
C510 C512 1.394 . S
C511 C510 1.380 . S
C511 C515 1.382 . S
C512 C510 1.394 . S
C512 C513 1.400 . S
C513 H505 0.931 . S
C513 C512 1.400 . S
C513 C514 1.375 . S
C514 C513 1.375 . S
C514 C515 1.415 . S
C514 C516 1.501 . S
C515 H506 0.931 . S
C515 C511 1.382 . S
C515 C514 1.415 . S
C516 C514 1.501 . S
C516 C517 1.384 . S
C516 C521 1.408 . S
C517 H507 0.930 . S
C517 C516 1.384 . S
C517 C518 1.389 . S
C518 C517 1.389 . S
C518 C519 1.405 . S
C519 H508 0.930 . S
C519 C518 1.405 . S
C519 C520 1.364 . S
C520 C519 1.364 . S
C520 C521 1.400 . S
C521 H509 0.931 . S
C521 C516 1.408 . S
C521 C520 1.400 . S
H522 C528 0.930 . S
H523 C531 0.931 . S
H524 C533 0.931 . S
H525 C535 0.930 . S
H526 C537 0.930 . S
H527 C539 0.931 . S
C528 H522 0.930 . S
C528 C529 1.380 . S
C528 C530 1.394 . S
C529 C528 1.380 . S
C529 C533 1.382 . S
C530 C528 1.394 . S
C530 C531 1.400 . S
C531 H523 0.931 . S
C531 C530 1.400 . S
C531 C532 1.375 . S
C532 C531 1.375 . S
C532 C533 1.415 . S
C532 C534 1.501 . S
C533 H524 0.931 . S
C533 C529 1.382 . S
C533 C532 1.415 . S
C534 C532 1.501 . S
C534 C535 1.384 . S
C534 C539 1.408 . S
C535 H525 0.930 . S
C535 C534 1.384 . S
C535 C536 1.389 . S
C536 C535 1.389 . S
C536 C537 1.405 . S
C537 H526 0.930 . S
C537 C536 1.405 . S
C537 C538 1.364 . S
C538 C537 1.364 . S
C538 C539 1.400 . S
C539 H527 0.931 . S
C539 C534 1.408 . S
C539 C538 1.400 . S
H540 C546 0.930 . S
H541 C549 0.931 . S
H542 C551 0.931 . S
H543 C553 0.930 . S
H544 C555 0.930 . S
H545 C557 0.931 . S
C546 H540 0.930 . S
C546 C547 1.380 . S
C546 C548 1.394 . S
C547 C546 1.380 . S
C547 C551 1.382 . S
C548 C546 1.394 . S
C548 C549 1.400 . S
C549 H541 0.931 . S
C549 C548 1.400 . S
C549 C550 1.375 . S
C550 C549 1.375 . S
C550 C551 1.415 . S
C550 C552 1.501 . S
C551 H542 0.931 . S
C551 C547 1.382 . S
C551 C550 1.415 . S
C552 C550 1.501 . S
C552 C553 1.384 . S
C552 C557 1.408 . S
C553 H543 0.930 . S
C553 C552 1.384 . S
C553 C554 1.389 . S
C554 C553 1.389 . S
C554 C555 1.405 . S
C555 H544 0.930 . S
C555 C554 1.405 . S
C555 C556 1.364 . S
C556 C555 1.364 . S
C556 C557 1.400 . S
C557 H545 0.931 . S
C557 C552 1.408 . S
C557 C556 1.400 . S
H558 C564 0.930 . S
H559 C567 0.931 . S
H560 C569 0.931 . S
H561 C571 0.930 . S
H562 C573 0.930 . S
H563 C575 0.931 . S
C564 H558 0.930 . S
C564 C565 1.380 . S
C564 C566 1.394 . S
C565 C564 1.380 . S
C565 C569 1.382 . S
C566 C564 1.394 . S
C566 C567 1.400 . S
C567 H559 0.931 . S
C567 C566 1.400 . S
C567 C568 1.375 . S
C568 C567 1.375 . S
C568 C569 1.415 . S
C568 C570 1.501 . S
C569 H560 0.931 . S
C569 C565 1.382 . S
C569 C568 1.415 . S
C570 C568 1.501 . S
C570 C571 1.384 . S
C570 C575 1.408 . S
C571 H561 0.930 . S
C571 C570 1.384 . S
C571 C572 1.389 . S
C572 C571 1.389 . S
C572 C573 1.405 . S
C573 H562 0.930 . S
C573 C572 1.405 . S
C573 C574 1.364 . S
C574 C573 1.364 . S
C574 C575 1.400 . S
C575 H563 0.931 . S
C575 C570 1.408 . S
C575 C574 1.400 . S
H576 C577 0.951 1_455 S
C577 H576 0.951 1_655 S
C577 C583 1.265 . S
H578 C583 0.950 . S
H579 C587 0.949 . S
H580 C588 0.950 . S
H581 C589 0.951 . S
H582 C590 0.951 . S
C583 C577 1.265 . S
C583 H578 0.950 . S
C583 C584 1.478 . S
C584 C583 1.478 . S
C584 C585 1.397 . S
C584 C601 1.394 1_655 S
C585 C584 1.397 . S
C585 C586 1.438 . S
C585 C590 1.429 . S
C586 C585 1.438 . S
C586 C587 1.428 . S
C586 C599 1.411 . S
C587 H579 0.949 . S
C587 C586 1.428 . S
C587 C588 1.345 . S
C588 H580 0.950 . S
C588 C587 1.345 . S
C588 C589 1.424 . S
C589 H581 0.951 . S
C589 C588 1.424 . S
C589 C590 1.347 . S
C590 H582 0.951 . S
C590 C585 1.429 . S
C590 C589 1.347 . S
H591 C592 0.951 . S
C592 H591 0.951 . S
C592 C598 1.265 1_655 S
H593 C598 0.950 . S
H594 C602 0.949 . S
H595 C603 0.950 . S
H596 C604 0.951 . S
H597 C605 0.951 . S
C598 C592 1.265 1_455 S
C598 H593 0.950 . S
C598 C599 1.485 1_455 S
C599 C586 1.411 . S
C599 C598 1.485 1_655 S
C599 C600 1.373 1_655 S
C600 C599 1.373 1_455 S
C600 C601 1.438 . S
C600 C605 1.429 . S
C601 C584 1.394 1_455 S
C601 C600 1.438 . S
C601 C602 1.428 . S
C602 H594 0.949 . S
C602 C601 1.428 . S
C602 C603 1.345 . S
C603 H595 0.950 . S
C603 C602 1.345 . S
C603 C604 1.424 . S
C604 H596 0.951 . S
C604 C603 1.424 . S
C604 C605 1.347 . S
C605 H597 0.951 . S
C605 C600 1.429 . S
C605 C604 1.347 . S
H606 C607 0.951 . S
C607 H606 0.951 . S
C607 C613 1.265 . S
H608 C613 0.950 . S
H609 C617 0.949 . S
H610 C618 0.950 . S
H611 C619 0.951 . S
H612 C620 0.951 . S
C613 C607 1.265 . S
C613 H608 0.950 . S
C613 C614 1.478 . S
C614 C613 1.478 . S
C614 C615 1.397 . S
C614 C631 1.394 . S
C615 C614 1.397 . S
C615 C616 1.438 . S
C615 C620 1.429 . S
C616 C615 1.438 . S
C616 C617 1.428 . S
C616 C629 1.394 . S
C617 H609 0.949 . S
C617 C616 1.428 . S
C617 C618 1.345 . S
C618 H610 0.950 . S
C618 C617 1.345 . S
C618 C619 1.424 . S
C619 H611 0.951 . S
C619 C618 1.424 . S
C619 C620 1.347 . S
C620 H612 0.951 . S
C620 C615 1.429 . S
C620 C619 1.347 . S
H621 C622 0.951 . S
C622 H621 0.951 . S
C622 C628 1.265 . S
H623 C628 0.950 . S
H624 C632 0.949 . S
H625 C633 0.950 . S
H626 C634 0.951 . S
H627 C635 0.951 . S
C628 C622 1.265 . S
C628 H623 0.950 . S
C628 C629 1.478 . S
C629 C616 1.394 . S
C629 C628 1.478 . S
C629 C630 1.397 . S
C630 C629 1.397 . S
C630 C631 1.438 . S
C630 C635 1.429 . S
C631 C614 1.394 . S
C631 C630 1.438 . S
C631 C632 1.428 . S
C632 H624 0.949 . S
C632 C631 1.428 . S
C632 C633 1.345 . S
C633 H625 0.950 . S
C633 C632 1.345 . S
C633 C634 1.424 . S
C634 H626 0.951 . S
C634 C633 1.424 . S
C634 C635 1.347 . S
C635 H627 0.951 . S
C635 C630 1.429 . S
C635 C634 1.347 . S
H636 C637 0.951 1_565 S
C637 H636 0.951 1_545 S
C637 C643 1.265 . S
H638 C643 0.950 . S
H639 C647 0.949 . S
H640 C648 0.950 . S
H641 C649 0.951 . S
H642 C650 0.951 . S
C643 C637 1.265 . S
C643 H638 0.950 . S
C643 C644 1.478 . S
C644 C643 1.478 . S
C644 C645 1.397 . S
C644 C661 1.394 1_545 S
C645 C644 1.397 . S
C645 C646 1.438 . S
C645 C650 1.429 . S
C646 C645 1.438 . S
C646 C647 1.428 . S
C646 C659 1.394 . S
C647 H639 0.949 . S
C647 C646 1.428 . S
C647 C648 1.345 . S
C648 H640 0.950 . S
C648 C647 1.345 . S
C648 C649 1.424 . S
C649 H641 0.951 . S
C649 C648 1.424 . S
C649 C650 1.347 . S
C650 H642 0.951 . S
C650 C645 1.429 . S
C650 C649 1.347 . S
H651 C652 0.951 . S
C652 H651 0.951 . S
C652 C658 1.265 1_545 S
H653 C658 0.950 . S
H654 C662 0.949 . S
H655 C663 0.950 . S
H656 C664 0.951 . S
H657 C665 0.951 . S
C658 C652 1.265 1_565 S
C658 H653 0.950 . S
C658 C659 1.478 1_565 S
C659 C646 1.394 . S
C659 C658 1.478 1_545 S
C659 C660 1.397 1_545 S
C660 C659 1.397 1_565 S
C660 C661 1.438 . S
C660 C665 1.429 . S
C661 C644 1.394 1_565 S
C661 C660 1.438 . S
C661 C662 1.428 . S
C662 H654 0.949 . S
C662 C661 1.428 . S
C662 C663 1.345 . S
C663 H655 0.950 . S
C663 C662 1.345 . S
C663 C664 1.424 . S
C664 H656 0.951 . S
C664 C663 1.424 . S
C664 C665 1.347 . S
C665 H657 0.951 . S
C665 C660 1.429 . S
C665 C664 1.347 . S
H666 C667 0.951 . S
C667 H666 0.951 . S
C667 C673 1.265 . S
H668 C673 0.950 . S
H669 C677 0.949 . S
H670 C678 0.950 . S
H671 C679 0.951 . S
H672 C680 0.951 . S
C673 C667 1.265 . S
C673 H668 0.950 . S
C673 C674 1.478 . S
C674 C673 1.478 . S
C674 C675 1.397 . S
C674 C691 1.394 1_565 S
C675 C674 1.397 . S
C675 C676 1.438 . S
C675 C680 1.429 . S
C676 C675 1.438 . S
C676 C677 1.428 . S
C676 C689 1.394 . S
C677 H669 0.949 . S
C677 C676 1.428 . S
C677 C678 1.345 . S
C678 H670 0.950 . S
C678 C677 1.345 . S
C678 C679 1.424 . S
C679 H671 0.951 . S
C679 C678 1.424 . S
C679 C680 1.347 . S
C680 H672 0.951 . S
C680 C675 1.429 . S
C680 C679 1.347 . S
H681 C682 0.951 . S
C682 H681 0.951 . S
C682 C688 1.265 . S
H683 C688 0.950 . S
H684 C692 0.949 . S
H685 C693 0.950 . S
H686 C694 0.951 . S
H687 C695 0.951 . S
C688 C682 1.265 . S
C688 H683 0.950 . S
C688 C689 1.478 . S
C689 C676 1.394 . S
C689 C688 1.478 . S
C689 C690 1.397 1_565 S
C690 C689 1.397 1_545 S
C690 C691 1.438 . S
C690 C695 1.429 . S
C691 C674 1.394 1_545 S
C691 C690 1.438 . S
C691 C692 1.428 . S
C692 H684 0.949 . S
C692 C691 1.428 . S
C692 C693 1.345 . S
C693 H685 0.950 . S
C693 C692 1.345 . S
C693 C694 1.424 . S
C694 H686 0.951 . S
C694 C693 1.424 . S
C694 C695 1.347 . S
C695 H687 0.951 . S
C695 C690 1.429 . S
C695 C694 1.347 . S
H696 C697 0.951 . S
C697 H696 0.951 . S
C697 C703 1.265 . S
H698 C703 0.950 . S
H699 C707 0.949 . S
H700 C708 0.950 . S
H701 C709 0.951 . S
H702 C710 0.951 . S
C703 C697 1.265 . S
C703 H698 0.950 . S
C703 C704 1.478 . S
C704 C703 1.478 . S
C704 C705 1.397 . S
C704 C721 1.394 1_455 S
C705 C704 1.397 . S
C705 C706 1.438 . S
C705 C710 1.429 . S
C706 C705 1.438 . S
C706 C707 1.428 . S
C706 C719 1.394 . S
C707 H699 0.949 . S
C707 C706 1.428 . S
C707 C708 1.345 . S
C708 H700 0.950 . S
C708 C707 1.345 . S
C708 C709 1.424 . S
C709 H701 0.951 . S
C709 C708 1.424 . S
C709 C710 1.347 . S
C710 H702 0.951 . S
C710 C705 1.429 . S
C710 C709 1.347 . S
H711 C712 0.951 . S
C712 H711 0.951 . S
C712 C718 1.265 . S
H713 C718 0.950 . S
H714 C722 0.949 . S
H715 C723 0.950 . S
H716 C724 0.951 . S
H717 C725 0.951 . S
C718 C712 1.265 . S
C718 H713 0.950 . S
C718 C719 1.478 . S
C719 C706 1.394 . S
C719 C718 1.478 . S
C719 C720 1.397 1_455 S
C720 C719 1.397 1_655 S
C720 C721 1.438 . S
C720 C725 1.429 . S
C721 C704 1.394 1_655 S
C721 C720 1.438 . S
C721 C722 1.428 . S
C722 H714 0.949 . S
C722 C721 1.428 . S
C722 C723 1.345 . S
C723 H715 0.950 . S
C723 C722 1.345 . S
C723 C724 1.424 . S
C724 H716 0.951 . S
C724 C723 1.424 . S
C724 C725 1.347 . S
C725 H717 0.951 . S
C725 C720 1.429 . S
C725 C724 1.347 . S
H726 C727 0.951 . S
C727 H726 0.951 . S
C727 C733 1.265 . S
H728 C733 0.950 . S
H729 C737 0.949 . S
H730 C738 0.950 . S
H731 C739 0.951 . S
H732 C740 0.951 . S
C733 C727 1.265 . S
C733 H728 0.950 . S
C733 C734 1.478 . S
C734 C733 1.478 . S
C734 C735 1.397 . S
C734 C751 1.394 . S
C735 C734 1.397 . S
C735 C736 1.438 . S
C735 C740 1.429 . S
C736 C735 1.438 . S
C736 C737 1.428 . S
C736 C749 1.394 . S
C737 H729 0.949 . S
C737 C736 1.428 . S
C737 C738 1.345 . S
C738 H730 0.950 . S
C738 C737 1.345 . S
C738 C739 1.424 . S
C739 H731 0.951 . S
C739 C738 1.424 . S
C739 C740 1.347 . S
C740 H732 0.951 . S
C740 C735 1.429 . S
C740 C739 1.347 . S
H741 C742 0.951 . S
C742 H741 0.951 . S
C742 C748 1.265 . S
H743 C748 0.950 . S
H744 C752 0.949 . S
H745 C753 0.950 . S
H746 C754 0.951 . S
H747 C755 0.951 . S
C748 C742 1.265 . S
C748 H743 0.950 . S
C748 C749 1.478 . S
C749 C736 1.394 . S
C749 C748 1.478 . S
C749 C750 1.397 . S
C750 C749 1.397 . S
C750 C751 1.438 . S
C750 C755 1.429 . S
C751 C734 1.394 . S
C751 C750 1.438 . S
C751 C752 1.428 . S
C752 H744 0.949 . S
C752 C751 1.428 . S
C752 C753 1.345 . S
C753 H745 0.950 . S
C753 C752 1.345 . S
C753 C754 1.424 . S
C754 H746 0.951 . S
C754 C753 1.424 . S
C754 C755 1.347 . S
C755 H747 0.951 . S
C755 C750 1.429 . S
C755 C754 1.347 . S
H756 C757 0.951 1_655 S
C757 H756 0.951 1_455 S
C757 C763 1.265 . S
H758 C763 0.950 . S
H759 C767 0.949 . S
H760 C768 0.950 . S
H761 C769 0.951 . S
H762 C770 0.951 . S
C763 C757 1.265 . S
C763 H758 0.950 . S
C763 C764 1.478 . S
C764 C763 1.478 . S
C764 C765 1.397 . S
C764 C781 1.394 . S
C765 C764 1.397 . S
C765 C766 1.438 1_455 S
C765 C770 1.429 . S
C766 C765 1.438 1_655 S
C766 C767 1.428 . S
C766 C779 1.389 . S
C767 H759 0.949 . S
C767 C766 1.428 . S
C767 C768 1.345 . S
C768 H760 0.950 . S
C768 C767 1.345 . S
C768 C769 1.424 . S
C769 H761 0.951 . S
C769 C768 1.424 . S
C769 C770 1.347 1_655 S
C770 H762 0.951 . S
C770 C765 1.429 . S
C770 C769 1.347 1_455 S
H771 C772 0.951 . S
C772 H771 0.951 . S
C772 C778 1.265 1_455 S
H773 C778 0.950 . S
H774 C782 0.949 . S
H775 C783 0.950 . S
H776 C784 0.951 . S
H777 C785 0.951 . S
C778 C772 1.265 1_655 S
C778 H773 0.950 . S
C778 C779 1.472 . S
C779 C766 1.389 . S
C779 C778 1.472 . S
C779 C780 1.412 1_655 S
C780 C779 1.412 1_455 S
C780 C781 1.438 . S
C780 C785 1.429 . S
C781 C764 1.394 . S
C781 C780 1.438 . S
C781 C782 1.428 . S
C782 H774 0.949 . S
C782 C781 1.428 . S
C782 C783 1.345 . S
C783 H775 0.950 . S
C783 C782 1.345 . S
C783 C784 1.424 . S
C784 H776 0.951 . S
C784 C783 1.424 . S
C784 C785 1.347 . S
C785 H777 0.951 . S
C785 C780 1.429 . S
C785 C784 1.347 . S
H786 C787 0.951 . S
C787 H786 0.951 . S
C787 C793 1.265 . S
H788 C793 0.950 . S
H789 C797 0.949 . S
H790 C798 0.950 . S
H791 C799 0.951 . S
H792 C800 0.951 . S
C793 C787 1.265 . S
C793 H788 0.950 . S
C793 C794 1.478 . S
C794 C793 1.478 . S
C794 C795 1.397 . S
C794 C811 1.394 . S
C795 C794 1.397 . S
C795 C796 1.438 . S
C795 C800 1.429 . S
C796 C795 1.438 . S
C796 C797 1.428 . S
C796 C809 1.394 . S
C797 H789 0.949 . S
C797 C796 1.428 . S
C797 C798 1.345 . S
C798 H790 0.950 . S
C798 C797 1.345 . S
C798 C799 1.424 . S
C799 H791 0.951 . S
C799 C798 1.424 . S
C799 C800 1.347 . S
C800 H792 0.951 . S
C800 C795 1.429 . S
C800 C799 1.347 . S
H801 C802 0.951 . S
C802 H801 0.951 . S
C802 C808 1.265 . S
H803 C808 0.950 . S
H804 C812 0.949 . S
H805 C813 0.950 . S
H806 C814 0.951 . S
H807 C815 0.951 . S
C808 C802 1.265 . S
C808 H803 0.950 . S
C808 C809 1.478 . S
C809 C796 1.394 . S
C809 C808 1.478 . S
C809 C810 1.397 . S
C810 C809 1.397 . S
C810 C811 1.438 . S
C810 C815 1.429 . S
C811 C794 1.394 . S
C811 C810 1.438 . S
C811 C812 1.428 . S
C812 H804 0.949 . S
C812 C811 1.428 . S
C812 C813 1.345 . S
C813 H805 0.950 . S
C813 C812 1.345 . S
C813 C814 1.424 . S
C814 H806 0.951 . S
C814 C813 1.424 . S
C814 C815 1.347 . S
C815 H807 0.951 . S
C815 C810 1.429 . S
C815 C814 1.347 . S
H816 C817 0.970 . S
C817 H816 0.970 . S
C817 C823 1.265 . S
H818 C823 0.950 . S
H819 C827 0.949 . S
H820 C828 0.950 . S
H821 C829 0.951 . S
H822 C830 0.951 . S
C823 C817 1.265 . S
C823 H818 0.950 . S
C823 C824 1.478 . S
C824 C823 1.478 . S
C824 C825 1.397 . S
C824 C841 1.394 1_565 S
C825 C824 1.397 . S
C825 C826 1.438 . S
C825 C830 1.429 . S
C826 C825 1.438 . S
C826 C827 1.428 . S
C826 C839 1.394 . S
C827 H819 0.949 . S
C827 C826 1.428 . S
C827 C828 1.345 . S
C828 H820 0.950 . S
C828 C827 1.345 . S
C828 C829 1.424 . S
C829 H821 0.951 . S
C829 C828 1.424 . S
C829 C830 1.347 . S
C830 H822 0.951 . S
C830 C825 1.429 . S
C830 C829 1.347 . S
H831 C832 0.960 . S
C832 H831 0.960 . S
C832 C838 1.265 1_565 S
H833 C838 0.950 . S
H834 C842 0.949 . S
H835 C843 0.950 . S
H836 C844 0.951 . S
H837 C845 0.951 . S
C838 C832 1.265 1_545 S
C838 H833 0.950 . S
C838 C839 1.478 1_545 S
C839 C826 1.394 . S
C839 C838 1.478 1_565 S
C839 C840 1.397 1_565 S
C840 C839 1.397 1_545 S
C840 C841 1.438 . S
C840 C845 1.429 . S
C841 C824 1.394 1_545 S
C841 C840 1.438 . S
C841 C842 1.428 . S
C842 H834 0.949 . S
C842 C841 1.428 . S
C842 C843 1.345 . S
C843 H835 0.950 . S
C843 C842 1.345 . S
C843 C844 1.424 . S
C844 H836 0.951 . S
C844 C843 1.424 . S
C844 C845 1.347 . S
C845 H837 0.951 . S
C845 C840 1.429 . S
C845 C844 1.347 . S
H846 C847 0.951 . S
C847 H846 0.951 . S
C847 C853 1.265 . S
H848 C853 0.950 . S
H849 C857 0.949 . S
H850 C858 0.950 . S
H851 C859 0.951 . S
H852 C860 0.951 . S
C853 C847 1.265 . S
C853 H848 0.950 . S
C853 C854 1.478 . S
C854 C853 1.478 . S
C854 C855 1.397 . S
C854 C871 1.394 1_545 S
C855 C854 1.397 . S
C855 C856 1.438 . S
C855 C860 1.429 . S
C856 C855 1.438 . S
C856 C857 1.428 . S
C856 C869 1.394 . S
C857 H849 0.949 . S
C857 C856 1.428 . S
C857 C858 1.345 . S
C858 H850 0.950 . S
C858 C857 1.345 . S
C858 C859 1.424 . S
C859 H851 0.951 . S
C859 C858 1.424 . S
C859 C860 1.347 . S
C860 H852 0.951 . S
C860 C855 1.429 . S
C860 C859 1.347 . S
H861 C862 0.931 1_565 S
C862 H861 0.931 1_545 S
C862 C868 1.266 . S
H863 C868 0.950 . S
H864 C872 0.949 . S
H865 C873 0.950 . S
H866 C874 0.951 . S
H867 C875 0.951 . S
C868 C862 1.266 . S
C868 H863 0.950 . S
C868 C869 1.478 . S
C869 C856 1.394 . S
C869 C868 1.478 . S
C869 C870 1.397 1_545 S
C870 C869 1.397 1_565 S
C870 C871 1.438 . S
C870 C875 1.429 . S
C871 C854 1.394 1_565 S
C871 C870 1.438 . S
C871 C872 1.428 . S
C872 H864 0.949 . S
C872 C871 1.428 . S
C872 C873 1.345 . S
C873 H865 0.950 . S
C873 C872 1.345 . S
C873 C874 1.424 . S
C874 H866 0.951 . S
C874 C873 1.424 . S
C874 C875 1.347 . S
C875 H867 0.951 . S
C875 C870 1.429 . S
C875 C874 1.347 . S
H876 C877 0.951 1_455 S
C877 H876 0.951 1_655 S
C877 C883 1.265 . S
H878 C883 0.950 . S
H879 C887 0.949 . S
H880 C888 0.950 . S
H881 C889 0.951 . S
H882 C890 0.951 . S
C883 C877 1.265 . S
C883 H878 0.950 . S
C883 C884 1.478 . S
C884 C883 1.478 . S
C884 C885 1.397 . S
C884 C901 1.394 1_655 S
C885 C884 1.397 . S
C885 C886 1.438 . S
C885 C890 1.429 . S
C886 C885 1.438 . S
C886 C887 1.428 . S
C886 C899 1.341 1_655 S
C887 H879 0.949 . S
C887 C886 1.428 . S
C887 C888 1.345 . S
C888 H880 0.950 . S
C888 C887 1.345 . S
C888 C889 1.424 . S
C889 H881 0.951 . S
C889 C888 1.424 . S
C889 C890 1.347 . S
C890 H882 0.951 . S
C890 C885 1.429 . S
C890 C889 1.347 . S
H891 C892 0.951 . S
C892 H891 0.951 . S
C892 C898 1.265 1_655 S
H893 C898 0.950 . S
H894 C902 0.949 . S
H895 C903 0.950 . S
H896 C904 0.951 . S
H897 C905 0.951 . S
C898 C892 1.265 1_455 S
C898 H893 0.950 . S
C898 C899 1.519 . S
C899 C886 1.341 1_455 S
C899 C898 1.519 . S
C899 C900 1.412 . S
C900 C899 1.412 . S
C900 C901 1.438 . S
C900 C905 1.429 . S
C901 C884 1.394 1_455 S
C901 C900 1.438 . S
C901 C902 1.428 . S
C902 H894 0.949 . S
C902 C901 1.428 . S
C902 C903 1.345 . S
C903 H895 0.950 . S
C903 C902 1.345 . S
C903 C904 1.424 . S
C904 H896 0.951 . S
C904 C903 1.424 . S
C904 C905 1.347 . S
C905 H897 0.951 . S
C905 C900 1.429 . S
C905 C904 1.347 . S
H906 C907 0.951 . S
C907 H906 0.951 . S
C907 C913 1.265 . S
H908 C913 0.950 . S
H909 C917 0.949 . S
H910 C918 0.950 . S
H911 C919 0.951 . S
H912 C920 0.951 . S
C913 C907 1.265 . S
C913 H908 0.950 . S
C913 C914 1.478 . S
C914 C913 1.478 . S
C914 C915 1.397 . S
C914 C931 1.394 . S
C915 C914 1.397 . S
C915 C916 1.438 . S
C915 C920 1.429 . S
C916 C915 1.438 . S
C916 C917 1.428 . S
C916 C929 1.394 . S
C917 H909 0.949 . S
C917 C916 1.428 . S
C917 C918 1.345 . S
C918 H910 0.950 . S
C918 C917 1.345 . S
C918 C919 1.424 . S
C919 H911 0.951 . S
C919 C918 1.424 . S
C919 C920 1.347 . S
C920 H912 0.951 . S
C920 C915 1.429 . S
C920 C919 1.347 . S
H921 C922 0.951 . S
C922 H921 0.951 . S
C922 C928 1.265 . S
H923 C928 0.950 . S
H924 C932 0.949 . S
H925 C933 0.950 . S
H926 C934 0.951 . S
H927 C935 0.951 . S
C928 C922 1.265 . S
C928 H923 0.950 . S
C928 C929 1.478 . S
C929 C916 1.394 . S
C929 C928 1.478 . S
C929 C930 1.397 . S
C930 C929 1.397 . S
C930 C931 1.438 . S
C930 C935 1.429 . S
C931 C914 1.394 . S
C931 C930 1.438 . S
C931 C932 1.428 . S
C932 H924 0.949 . S
C932 C931 1.428 . S
C932 C933 1.345 . S
C933 H925 0.950 . S
C933 C932 1.345 . S
C933 C934 1.424 . S
C934 H926 0.951 . S
C934 C933 1.424 . S
C934 C935 1.347 . S
C935 H927 0.951 . S
C935 C930 1.429 . S
C935 C934 1.347 . S
H936 C937 0.951 . S
C937 H936 0.951 . S
C937 C943 1.265 . S
H938 C943 0.950 . S
H939 C947 0.949 . S
H940 C948 0.950 . S
H941 C949 0.951 . S
H942 C950 0.951 . S
C943 C937 1.265 . S
C943 H938 0.950 . S
C943 C944 1.478 . S
C944 C943 1.478 . S
C944 C945 1.397 . S
C944 C961 1.394 . S
C945 C944 1.397 . S
C945 C946 1.438 . S
C945 C950 1.429 . S
C946 C945 1.438 . S
C946 C947 1.428 . S
C946 C959 1.394 . S
C947 H939 0.949 . S
C947 C946 1.428 . S
C947 C948 1.345 . S
C948 H940 0.950 . S
C948 C947 1.345 . S
C948 C949 1.424 . S
C949 H941 0.951 . S
C949 C948 1.424 . S
C949 C950 1.347 . S
C950 H942 0.951 . S
C950 C945 1.429 . S
C950 C949 1.347 . S
H951 C952 0.951 . S
C952 H951 0.951 . S
C952 C958 1.265 . S
H953 C958 0.950 . S
H954 C962 0.949 . S
H955 C963 0.950 . S
H956 C964 0.951 . S
H957 C965 0.951 . S
C958 C952 1.265 . S
C958 H953 0.950 . S
C958 C959 1.478 . S
C959 C946 1.394 . S
C959 C958 1.478 . S
C959 C960 1.397 . S
C960 C959 1.397 . S
C960 C961 1.438 . S
C960 C965 1.429 . S
C961 C944 1.394 . S
C961 C960 1.438 . S
C961 C962 1.428 . S
C962 H954 0.949 . S
C962 C961 1.428 . S
C962 C963 1.345 . S
C963 H955 0.950 . S
C963 C962 1.345 . S
C963 C964 1.424 . S
C964 H956 0.951 . S
C964 C963 1.424 . S
C964 C965 1.347 . S
C965 H957 0.951 . S
C965 C960 1.429 . S
C965 C964 1.347 . S
H966 C967 0.951 . S
C967 H966 0.951 . S
C967 C973 1.265 . S
H968 C973 0.950 . S
H969 C977 0.949 . S
H970 C978 0.950 . S
H971 C979 0.951 . S
H972 C980 0.951 . S
C973 C967 1.265 . S
C973 H968 0.950 . S
C973 C974 1.478 . S
C974 C973 1.478 . S
C974 C975 1.397 . S
C974 C991 1.394 . S
C975 C974 1.397 . S
C975 C976 1.438 . S
C975 C980 1.429 . S
C976 C975 1.438 . S
C976 C977 1.428 . S
C976 C989 1.394 . S
C977 H969 0.949 . S
C977 C976 1.428 . S
C977 C978 1.345 . S
C978 H970 0.950 . S
C978 C977 1.345 . S
C978 C979 1.424 . S
C979 H971 0.951 . S
C979 C978 1.424 . S
C979 C980 1.347 . S
C980 H972 0.951 . S
C980 C975 1.429 . S
C980 C979 1.347 . S
H981 C982 0.951 . S
C982 H981 0.951 . S
C982 C988 1.265 . S
H983 C988 0.950 . S
H984 C992 0.949 . S
H985 C993 0.950 . S
H986 C994 0.951 . S
H987 C995 0.951 . S
C988 C982 1.265 . S
C988 H983 0.950 . S
C988 C989 1.478 . S
C989 C976 1.394 . S
C989 C988 1.478 . S
C989 C990 1.397 . S
C990 C989 1.397 . S
C990 C991 1.438 . S
C990 C995 1.429 . S
C991 C974 1.394 . S
C991 C990 1.438 . S
C991 C992 1.428 . S
C992 H984 0.949 . S
C992 C991 1.428 . S
C992 C993 1.345 . S
C993 H985 0.950 . S
C993 C992 1.345 . S
C993 C994 1.424 . S
C994 H986 0.951 . S
C994 C993 1.424 . S
C994 C995 1.347 . S
C995 H987 0.951 . S
C995 C990 1.429 . S
C995 C994 1.347 . S
H996 C997 0.951 . S
C997 H996 0.951 . S
C997 C1003 1.265 . S
H998 C1003 0.950 . S
H999 C1007 0.949 . S
H1000 C1008 0.950 . S
H1001 C1009 0.951 . S
H1002 C1010 0.951 . S
C1003 C997 1.265 . S
C1003 H998 0.950 . S
C1003 C1004 1.478 . S
C1004 C1003 1.478 . S
C1004 C1005 1.397 . S
C1004 C1021 1.394 . S
C1005 C1004 1.397 . S
C1005 C1006 1.438 . S
C1005 C1010 1.429 . S
C1006 C1005 1.438 . S
C1006 C1007 1.428 . S
C1006 C1019 1.394 . S
C1007 H999 0.949 . S
C1007 C1006 1.428 . S
C1007 C1008 1.345 . S
C1008 H1000 0.950 . S
C1008 C1007 1.345 . S
C1008 C1009 1.424 . S
C1009 H1001 0.951 . S
C1009 C1008 1.424 . S
C1009 C1010 1.347 . S
C1010 H1002 0.951 . S
C1010 C1005 1.429 . S
C1010 C1009 1.347 . S
H1011 C1012 0.951 . S
C1012 H1011 0.951 . S
C1012 C1018 1.265 . S
H1013 C1018 0.950 . S
H1014 C1022 0.949 . S
H1015 C1023 0.950 . S
H1016 C1024 0.951 . S
H1017 C1025 0.951 . S
C1018 C1012 1.265 . S
C1018 H1013 0.950 . S
C1018 C1019 1.478 . S
C1019 C1006 1.394 . S
C1019 C1018 1.478 . S
C1019 C1020 1.397 . S
C1020 C1019 1.397 . S
C1020 C1021 1.438 . S
C1020 C1025 1.429 . S
C1021 C1004 1.394 . S
C1021 C1020 1.438 . S
C1021 C1022 1.428 . S
C1022 H1014 0.949 . S
C1022 C1021 1.428 . S
C1022 C1023 1.345 . S
C1023 H1015 0.950 . S
C1023 C1022 1.345 . S
C1023 C1024 1.424 . S
C1024 H1016 0.951 . S
C1024 C1023 1.424 . S
C1024 C1025 1.347 . S
C1025 H1017 0.951 . S
C1025 C1020 1.429 . S
C1025 C1024 1.347 . S
H1026 C1027 0.951 . S
C1027 H1026 0.951 . S
C1027 C1033 1.265 . S
H1028 C1033 0.950 . S
H1029 C1037 0.949 . S
H1030 C1038 0.950 . S
H1031 C1039 0.951 . S
H1032 C1040 0.951 . S
C1033 C1027 1.265 . S
C1033 H1028 0.950 . S
C1033 C1034 1.478 . S
C1034 C1033 1.478 . S
C1034 C1035 1.397 . S
C1034 C1051 1.394 . S
C1035 C1034 1.397 . S
C1035 C1036 1.438 . S
C1035 C1040 1.429 . S
C1036 C1035 1.438 . S
C1036 C1037 1.428 . S
C1036 C1049 1.394 . S
C1037 H1029 0.949 . S
C1037 C1036 1.428 . S
C1037 C1038 1.345 . S
C1038 H1030 0.950 . S
C1038 C1037 1.345 . S
C1038 C1039 1.424 . S
C1039 H1031 0.951 . S
C1039 C1038 1.424 . S
C1039 C1040 1.347 . S
C1040 H1032 0.951 . S
C1040 C1035 1.429 . S
C1040 C1039 1.347 . S
H1041 C1042 0.951 . S
C1042 H1041 0.951 . S
C1042 C1048 1.265 . S
H1043 C1048 0.950 . S
H1044 C1052 0.949 . S
H1045 C1053 0.950 . S
H1046 C1054 0.951 . S
H1047 C1055 0.951 . S
C1048 C1042 1.265 . S
C1048 H1043 0.950 . S
C1048 C1049 1.478 . S
C1049 C1036 1.394 . S
C1049 C1048 1.478 . S
C1049 C1050 1.397 . S
C1050 C1049 1.397 . S
C1050 C1051 1.438 . S
C1050 C1055 1.429 . S
C1051 C1034 1.394 . S
C1051 C1050 1.438 . S
C1051 C1052 1.428 . S
C1052 H1044 0.949 . S
C1052 C1051 1.428 . S
C1052 C1053 1.345 . S
C1053 H1045 0.950 . S
C1053 C1052 1.345 . S
C1053 C1054 1.424 . S
C1054 H1046 0.951 . S
C1054 C1053 1.424 . S
C1054 C1055 1.347 . S
C1055 H1047 0.951 . S
C1055 C1050 1.429 . S
C1055 C1054 1.347 . S
H1056 C1057 0.951 . S
C1057 H1056 0.951 . S
C1057 C1063 1.265 . S
H1058 C1063 0.950 . S
H1059 C1067 0.949 . S
H1060 C1068 0.950 . S
H1061 C1069 0.951 . S
H1062 C1070 0.951 . S
C1063 C1057 1.265 . S
C1063 H1058 0.950 . S
C1063 C1064 1.478 . S
C1064 C1063 1.478 . S
C1064 C1065 1.397 . S
C1064 C1081 1.394 . S
C1065 C1064 1.397 . S
C1065 C1066 1.438 . S
C1065 C1070 1.429 . S
C1066 C1065 1.438 . S
C1066 C1067 1.428 . S
C1066 C1079 1.394 . S
C1067 H1059 0.949 . S
C1067 C1066 1.428 . S
C1067 C1068 1.345 . S
C1068 H1060 0.950 . S
C1068 C1067 1.345 . S
C1068 C1069 1.424 . S
C1069 H1061 0.951 . S
C1069 C1068 1.424 . S
C1069 C1070 1.347 . S
C1070 H1062 0.951 . S
C1070 C1065 1.429 . S
C1070 C1069 1.347 . S
H1071 C1072 0.951 . S
C1072 H1071 0.951 . S
C1072 C1078 1.265 . S
H1073 C1078 0.950 . S
H1074 C1082 0.949 . S
H1075 C1083 0.950 . S
H1076 C1084 0.951 . S
H1077 C1085 0.951 . S
C1078 C1072 1.265 . S
C1078 H1073 0.950 . S
C1078 C1079 1.478 . S
C1079 C1066 1.394 . S
C1079 C1078 1.478 . S
C1079 C1080 1.397 . S
C1080 C1079 1.397 . S
C1080 C1081 1.438 . S
C1080 C1085 1.429 . S
C1081 C1064 1.394 . S
C1081 C1080 1.438 . S
C1081 C1082 1.428 . S
C1082 H1074 0.949 . S
C1082 C1081 1.428 . S
C1082 C1083 1.345 . S
C1083 H1075 0.950 . S
C1083 C1082 1.345 . S
C1083 C1084 1.424 . S
C1084 H1076 0.951 . S
C1084 C1083 1.424 . S
C1084 C1085 1.347 . S
C1085 H1077 0.951 . S
C1085 C1080 1.429 . S
C1085 C1084 1.347 . S
H1086 C1087 0.951 . S
C1087 H1086 0.951 . S
C1087 C1093 1.265 . S
H1088 C1093 0.950 . S
H1089 C1097 0.949 . S
H1090 C1098 0.950 . S
H1091 C1099 0.951 . S
H1092 C1100 0.951 . S
C1093 C1087 1.265 . S
C1093 H1088 0.950 . S
C1093 C1094 1.478 . S
C1094 C1093 1.478 . S
C1094 C1095 1.397 . S
C1094 C1111 1.394 . S
C1095 C1094 1.397 . S
C1095 C1096 1.438 . S
C1095 C1100 1.429 . S
C1096 C1095 1.438 . S
C1096 C1097 1.428 . S
C1096 C1109 1.394 . S
C1097 H1089 0.949 . S
C1097 C1096 1.428 . S
C1097 C1098 1.345 . S
C1098 H1090 0.950 . S
C1098 C1097 1.345 . S
C1098 C1099 1.424 . S
C1099 H1091 0.951 . S
C1099 C1098 1.424 . S
C1099 C1100 1.347 . S
C1100 H1092 0.951 . S
C1100 C1095 1.429 . S
C1100 C1099 1.347 . S
H1101 C1102 0.951 . S
C1102 H1101 0.951 . S
C1102 C1108 1.265 . S
H1103 C1108 0.950 . S
H1104 C1112 0.949 . S
H1105 C1113 0.950 . S
H1106 C1114 0.951 . S
H1107 C1115 0.951 . S
C1108 C1102 1.265 . S
C1108 H1103 0.950 . S
C1108 C1109 1.478 . S
C1109 C1096 1.394 . S
C1109 C1108 1.478 . S
C1109 C1110 1.397 . S
C1110 C1109 1.397 . S
C1110 C1111 1.438 . S
C1110 C1115 1.429 . S
C1111 C1094 1.394 . S
C1111 C1110 1.438 . S
C1111 C1112 1.428 . S
C1112 H1104 0.949 . S
C1112 C1111 1.428 . S
C1112 C1113 1.345 . S
C1113 H1105 0.950 . S
C1113 C1112 1.345 . S
C1113 C1114 1.424 . S
C1114 H1106 0.951 . S
C1114 C1113 1.424 . S
C1114 C1115 1.347 . S
C1115 H1107 0.951 . S
C1115 C1110 1.429 . S
C1115 C1114 1.347 . S
H1116 C1117 0.951 . S
C1117 H1116 0.951 . S
C1117 C1123 1.265 . S
H1118 C1123 0.950 . S
H1119 C1127 0.949 . S
H1120 C1128 0.950 . S
H1121 C1129 0.951 . S
H1122 C1130 0.951 . S
C1123 C1117 1.265 . S
C1123 H1118 0.950 . S
C1123 C1124 1.478 . S
C1124 C1123 1.478 . S
C1124 C1125 1.397 . S
C1124 C1141 1.394 . S
C1125 C1124 1.397 . S
C1125 C1126 1.438 . S
C1125 C1130 1.429 . S
C1126 C1125 1.438 . S
C1126 C1127 1.428 . S
C1126 C1139 1.394 . S
C1127 H1119 0.949 . S
C1127 C1126 1.428 . S
C1127 C1128 1.345 . S
C1128 H1120 0.950 . S
C1128 C1127 1.345 . S
C1128 C1129 1.424 . S
C1129 H1121 0.951 . S
C1129 C1128 1.424 . S
C1129 C1130 1.347 . S
C1130 H1122 0.951 . S
C1130 C1125 1.429 . S
C1130 C1129 1.347 . S
H1131 C1132 0.951 . S
C1132 H1131 0.951 . S
C1132 C1138 1.265 . S
H1133 C1138 0.950 . S
H1134 C1142 0.949 . S
H1135 C1143 0.950 . S
H1136 C1144 0.951 . S
H1137 C1145 0.951 . S
C1138 C1132 1.265 . S
C1138 H1133 0.950 . S
C1138 C1139 1.478 . S
C1139 C1126 1.394 . S
C1139 C1138 1.478 . S
C1139 C1140 1.397 . S
C1140 C1139 1.397 . S
C1140 C1141 1.438 . S
C1140 C1145 1.429 . S
C1141 C1124 1.394 . S
C1141 C1140 1.438 . S
C1141 C1142 1.428 . S
C1142 H1134 0.949 . S
C1142 C1141 1.428 . S
C1142 C1143 1.345 . S
C1143 H1135 0.950 . S
C1143 C1142 1.345 . S
C1143 C1144 1.424 . S
C1144 H1136 0.951 . S
C1144 C1143 1.424 . S
C1144 C1145 1.347 . S
C1145 H1137 0.951 . S
C1145 C1140 1.429 . S
C1145 C1144 1.347 . S
H1146 C1147 0.951 . S
C1147 H1146 0.951 . S
C1147 C1153 1.265 . S
H1148 C1153 0.950 . S
H1149 C1157 0.949 . S
H1150 C1158 0.950 . S
H1151 C1159 0.951 . S
H1152 C1160 0.951 . S
C1153 C1147 1.265 . S
C1153 H1148 0.950 . S
C1153 C1154 1.478 . S
C1154 C1153 1.478 . S
C1154 C1155 1.397 . S
C1154 C1171 1.394 . S
C1155 C1154 1.397 . S
C1155 C1156 1.438 . S
C1155 C1160 1.429 . S
C1156 C1155 1.438 . S
C1156 C1157 1.428 . S
C1156 C1169 1.394 . S
C1157 H1149 0.949 . S
C1157 C1156 1.428 . S
C1157 C1158 1.345 . S
C1158 H1150 0.950 . S
C1158 C1157 1.345 . S
C1158 C1159 1.424 . S
C1159 H1151 0.951 . S
C1159 C1158 1.424 . S
C1159 C1160 1.347 . S
C1160 H1152 0.951 . S
C1160 C1155 1.429 . S
C1160 C1159 1.347 . S
H1161 C1162 0.951 . S
C1162 H1161 0.951 . S
C1162 C1168 1.265 . S
H1163 C1168 0.950 . S
H1164 C1172 0.949 . S
H1165 C1173 0.950 . S
H1166 C1174 0.951 . S
H1167 C1175 0.951 . S
C1168 C1162 1.265 . S
C1168 H1163 0.950 . S
C1168 C1169 1.478 . S
C1169 C1156 1.394 . S
C1169 C1168 1.478 . S
C1169 C1170 1.397 . S
C1170 C1169 1.397 . S
C1170 C1171 1.438 . S
C1170 C1175 1.429 . S
C1171 C1154 1.394 . S
C1171 C1170 1.438 . S
C1171 C1172 1.428 . S
C1172 H1164 0.949 . S
C1172 C1171 1.428 . S
C1172 C1173 1.345 . S
C1173 H1165 0.950 . S
C1173 C1172 1.345 . S
C1173 C1174 1.424 . S
C1174 H1166 0.951 . S
C1174 C1173 1.424 . S
C1174 C1175 1.347 . S
C1175 H1167 0.951 . S
C1175 C1170 1.429 . S
C1175 C1174 1.347 . S
H1176 C1177 0.951 . S
C1177 H1176 0.951 . S
C1177 C1183 1.265 . S
H1178 C1183 0.950 . S
H1179 C1187 0.949 . S
H1180 C1188 0.950 . S
H1181 C1189 0.951 . S
H1182 C1190 0.951 . S
C1183 C1177 1.265 . S
C1183 H1178 0.950 . S
C1183 C1184 1.478 . S
C1184 C1183 1.478 . S
C1184 C1185 1.397 . S
C1184 C1201 1.394 . S
C1185 C1184 1.397 . S
C1185 C1186 1.438 . S
C1185 C1190 1.429 . S
C1186 C1185 1.438 . S
C1186 C1187 1.428 . S
C1186 C1199 1.394 . S
C1187 H1179 0.949 . S
C1187 C1186 1.428 . S
C1187 C1188 1.345 . S
C1188 H1180 0.950 . S
C1188 C1187 1.345 . S
C1188 C1189 1.424 . S
C1189 H1181 0.951 . S
C1189 C1188 1.424 . S
C1189 C1190 1.347 . S
C1190 H1182 0.951 . S
C1190 C1185 1.429 . S
C1190 C1189 1.347 . S
H1191 C1192 0.951 . S
C1192 H1191 0.951 . S
C1192 C1198 1.265 . S
H1193 C1198 0.950 . S
H1194 C1202 0.949 . S
H1195 C1203 0.950 . S
H1196 C1204 0.951 . S
H1197 C1205 0.951 . S
C1198 C1192 1.265 . S
C1198 H1193 0.950 . S
C1198 C1199 1.478 . S
C1199 C1186 1.394 . S
C1199 C1198 1.478 . S
C1199 C1200 1.397 . S
C1200 C1199 1.397 . S
C1200 C1201 1.438 . S
C1200 C1205 1.429 . S
C1201 C1184 1.394 . S
C1201 C1200 1.438 . S
C1201 C1202 1.428 . S
C1202 H1194 0.949 . S
C1202 C1201 1.428 . S
C1202 C1203 1.345 . S
C1203 H1195 0.950 . S
C1203 C1202 1.345 . S
C1203 C1204 1.424 . S
C1204 H1196 0.951 . S
C1204 C1203 1.424 . S
C1204 C1205 1.347 . S
C1205 H1197 0.951 . S
C1205 C1200 1.429 . S
C1205 C1204 1.347 . S
H1206 C1207 0.951 . S
C1207 H1206 0.951 . S
C1207 C1213 1.265 . S
H1208 C1213 0.950 . S
H1209 C1217 0.949 . S
H1210 C1218 0.950 . S
H1211 C1219 0.951 . S
H1212 C1220 0.951 . S
C1213 C1207 1.265 . S
C1213 H1208 0.950 . S
C1213 C1214 1.478 . S
C1214 C1213 1.478 . S
C1214 C1215 1.397 . S
C1214 C1231 1.394 . S
C1215 C1214 1.397 . S
C1215 C1216 1.438 . S
C1215 C1220 1.429 . S
C1216 C1215 1.438 . S
C1216 C1217 1.428 . S
C1216 C1229 1.394 . S
C1217 H1209 0.949 . S
C1217 C1216 1.428 . S
C1217 C1218 1.345 . S
C1218 H1210 0.950 . S
C1218 C1217 1.345 . S
C1218 C1219 1.424 . S
C1219 H1211 0.951 . S
C1219 C1218 1.424 . S
C1219 C1220 1.347 . S
C1220 H1212 0.951 . S
C1220 C1215 1.429 . S
C1220 C1219 1.347 . S
H1221 C1222 0.951 . S
C1222 H1221 0.951 . S
C1222 C1228 1.265 . S
H1223 C1228 0.950 . S
H1224 C1232 0.949 . S
H1225 C1233 0.950 . S
H1226 C1234 0.951 . S
H1227 C1235 0.951 . S
C1228 C1222 1.265 . S
C1228 H1223 0.950 . S
C1228 C1229 1.478 . S
C1229 C1216 1.394 . S
C1229 C1228 1.478 . S
C1229 C1230 1.397 . S
C1230 C1229 1.397 . S
C1230 C1231 1.438 . S
C1230 C1235 1.429 . S
C1231 C1214 1.394 . S
C1231 C1230 1.438 . S
C1231 C1232 1.428 . S
C1232 H1224 0.949 . S
C1232 C1231 1.428 . S
C1232 C1233 1.345 . S
C1233 H1225 0.950 . S
C1233 C1232 1.345 . S
C1233 C1234 1.424 . S
C1234 H1226 0.951 . S
C1234 C1233 1.424 . S
C1234 C1235 1.347 . S
C1235 H1227 0.951 . S
C1235 C1230 1.429 . S
C1235 C1234 1.347 . S
H1236 C1237 0.951 . S
C1237 H1236 0.951 . S
C1237 C1243 1.265 . S
H1238 C1243 0.950 . S
H1239 C1247 0.949 . S
H1240 C1248 0.950 . S
H1241 C1249 0.951 . S
H1242 C1250 0.951 . S
C1243 C1237 1.265 . S
C1243 H1238 0.950 . S
C1243 C1244 1.478 . S
C1244 C1243 1.478 . S
C1244 C1245 1.397 . S
C1244 C1261 1.394 . S
C1245 C1244 1.397 . S
C1245 C1246 1.438 . S
C1245 C1250 1.429 . S
C1246 C1245 1.438 . S
C1246 C1247 1.428 . S
C1246 C1259 1.394 . S
C1247 H1239 0.949 . S
C1247 C1246 1.428 . S
C1247 C1248 1.345 . S
C1248 H1240 0.950 . S
C1248 C1247 1.345 . S
C1248 C1249 1.424 . S
C1249 H1241 0.951 . S
C1249 C1248 1.424 . S
C1249 C1250 1.347 . S
C1250 H1242 0.951 . S
C1250 C1245 1.429 . S
C1250 C1249 1.347 . S
H1251 C1252 0.951 . S
C1252 H1251 0.951 . S
C1252 C1258 1.265 . S
H1253 C1258 0.950 . S
H1254 C1262 0.949 . S
H1255 C1263 0.950 . S
H1256 C1264 0.951 . S
H1257 C1265 0.951 . S
C1258 C1252 1.265 . S
C1258 H1253 0.950 . S
C1258 C1259 1.478 . S
C1259 C1246 1.394 . S
C1259 C1258 1.478 . S
C1259 C1260 1.397 . S
C1260 C1259 1.397 . S
C1260 C1261 1.438 . S
C1260 C1265 1.429 . S
C1261 C1244 1.394 . S
C1261 C1260 1.438 . S
C1261 C1262 1.428 . S
C1262 H1254 0.949 . S
C1262 C1261 1.428 . S
C1262 C1263 1.345 . S
C1263 H1255 0.950 . S
C1263 C1262 1.345 . S
C1263 C1264 1.424 . S
C1264 H1256 0.951 . S
C1264 C1263 1.424 . S
C1264 C1265 1.347 . S
C1265 H1257 0.951 . S
C1265 C1260 1.429 . S
C1265 C1264 1.347 . S
H1266 C1267 0.951 . S
C1267 H1266 0.951 . S
C1267 C1273 1.265 . S
H1268 C1273 0.950 . S
H1269 C1277 0.949 . S
H1270 C1278 0.950 . S
H1271 C1279 0.951 . S
H1272 C1280 0.951 . S
C1273 C1267 1.265 . S
C1273 H1268 0.950 . S
C1273 C1274 1.478 . S
C1274 C1273 1.478 . S
C1274 C1275 1.397 . S
C1274 C1291 1.394 . S
C1275 C1274 1.397 . S
C1275 C1276 1.438 . S
C1275 C1280 1.429 . S
C1276 C1275 1.438 . S
C1276 C1277 1.428 . S
C1276 C1289 1.394 . S
C1277 H1269 0.949 . S
C1277 C1276 1.428 . S
C1277 C1278 1.345 . S
C1278 H1270 0.950 . S
C1278 C1277 1.345 . S
C1278 C1279 1.424 . S
C1279 H1271 0.951 . S
C1279 C1278 1.424 . S
C1279 C1280 1.347 . S
C1280 H1272 0.951 . S
C1280 C1275 1.429 . S
C1280 C1279 1.347 . S
H1281 C1282 0.951 . S
C1282 H1281 0.951 . S
C1282 C1288 1.265 . S
H1283 C1288 0.950 . S
H1284 C1292 0.949 . S
H1285 C1293 0.950 . S
H1286 C1294 0.951 . S
H1287 C1295 0.951 . S
C1288 C1282 1.265 . S
C1288 H1283 0.950 . S
C1288 C1289 1.478 . S
C1289 C1276 1.394 . S
C1289 C1288 1.478 . S
C1289 C1290 1.397 . S
C1290 C1289 1.397 . S
C1290 C1291 1.438 . S
C1290 C1295 1.429 . S
C1291 C1274 1.394 . S
C1291 C1290 1.438 . S
C1291 C1292 1.428 . S
C1292 H1284 0.949 . S
C1292 C1291 1.428 . S
C1292 C1293 1.345 . S
C1293 H1285 0.950 . S
C1293 C1292 1.345 . S
C1293 C1294 1.424 . S
C1294 H1286 0.951 . S
C1294 C1293 1.424 . S
C1294 C1295 1.347 . S
C1295 H1287 0.951 . S
C1295 C1290 1.429 . S
C1295 C1294 1.347 . S
H1296 C1297 0.951 . S
C1297 H1296 0.951 . S
C1297 C1303 1.265 . S
H1298 C1303 0.950 . S
H1299 C1307 0.949 . S
H1300 C1308 0.950 . S
H1301 C1309 0.951 . S
H1302 C1310 0.951 . S
C1303 C1297 1.265 . S
C1303 H1298 0.950 . S
C1303 C1304 1.478 . S
C1304 C1303 1.478 . S
C1304 C1305 1.397 . S
C1304 C1321 1.394 . S
C1305 C1304 1.397 . S
C1305 C1306 1.438 . S
C1305 C1310 1.429 . S
C1306 C1305 1.438 . S
C1306 C1307 1.428 . S
C1306 C1319 1.394 . S
C1307 H1299 0.949 . S
C1307 C1306 1.428 . S
C1307 C1308 1.345 . S
C1308 H1300 0.950 . S
C1308 C1307 1.345 . S
C1308 C1309 1.424 . S
C1309 H1301 0.951 . S
C1309 C1308 1.424 . S
C1309 C1310 1.347 . S
C1310 H1302 0.951 . S
C1310 C1305 1.429 . S
C1310 C1309 1.347 . S
H1311 C1312 0.951 . S
C1312 H1311 0.951 . S
C1312 C1318 1.265 . S
H1313 C1318 0.950 . S
H1314 C1322 0.949 . S
H1315 C1323 0.950 . S
H1316 C1324 0.951 . S
H1317 C1325 0.951 . S
C1318 C1312 1.265 . S
C1318 H1313 0.950 . S
C1318 C1319 1.478 . S
C1319 C1306 1.394 . S
C1319 C1318 1.478 . S
C1319 C1320 1.397 . S
C1320 C1319 1.397 . S
C1320 C1321 1.438 . S
C1320 C1325 1.429 . S
C1321 C1304 1.394 . S
C1321 C1320 1.438 . S
C1321 C1322 1.428 . S
C1322 H1314 0.949 . S
C1322 C1321 1.428 . S
C1322 C1323 1.345 . S
C1323 H1315 0.950 . S
C1323 C1322 1.345 . S
C1323 C1324 1.424 . S
C1324 H1316 0.951 . S
C1324 C1323 1.424 . S
C1324 C1325 1.347 . S
C1325 H1317 0.951 . S
C1325 C1320 1.429 . S
C1325 C1324 1.347 . S
H1326 C1327 0.951 . S
C1327 H1326 0.951 . S
C1327 C1333 1.265 . S
H1328 C1333 0.950 . S
H1329 C1337 0.949 . S
H1330 C1338 0.950 . S
H1331 C1339 0.951 . S
H1332 C1340 0.951 . S
C1333 C1327 1.265 . S
C1333 H1328 0.950 . S
C1333 C1334 1.478 . S
C1334 C1333 1.478 . S
C1334 C1335 1.397 . S
C1334 C1351 1.394 . S
C1335 C1334 1.397 . S
C1335 C1336 1.438 . S
C1335 C1340 1.429 . S
C1336 C1335 1.438 . S
C1336 C1337 1.428 . S
C1336 C1349 1.394 . S
C1337 H1329 0.949 . S
C1337 C1336 1.428 . S
C1337 C1338 1.345 . S
C1338 H1330 0.950 . S
C1338 C1337 1.345 . S
C1338 C1339 1.424 . S
C1339 H1331 0.951 . S
C1339 C1338 1.424 . S
C1339 C1340 1.347 . S
C1340 H1332 0.951 . S
C1340 C1335 1.429 . S
C1340 C1339 1.347 . S
H1341 C1342 0.951 . S
C1342 H1341 0.951 . S
C1342 C1348 1.265 . S
H1343 C1348 0.950 . S
H1344 C1352 0.949 . S
H1345 C1353 0.950 . S
H1346 C1354 0.951 . S
H1347 C1355 0.951 . S
C1348 C1342 1.265 . S
C1348 H1343 0.950 . S
C1348 C1349 1.478 . S
C1349 C1336 1.394 . S
C1349 C1348 1.478 . S
C1349 C1350 1.397 . S
C1350 C1349 1.397 . S
C1350 C1351 1.438 . S
C1350 C1355 1.429 . S
C1351 C1334 1.394 . S
C1351 C1350 1.438 . S
C1351 C1352 1.428 . S
C1352 H1344 0.949 . S
C1352 C1351 1.428 . S
C1352 C1353 1.345 . S
C1353 H1345 0.950 . S
C1353 C1352 1.345 . S
C1353 C1354 1.424 . S
C1354 H1346 0.951 . S
C1354 C1353 1.424 . S
C1354 C1355 1.347 . S
C1355 H1347 0.951 . S
C1355 C1350 1.429 . S
C1355 C1354 1.347 . S
H1356 C1357 0.951 . S
C1357 H1356 0.951 . S
C1357 C1363 1.265 . S
H1358 C1363 0.950 . S
H1359 C1367 0.949 . S
H1360 C1368 0.950 . S
H1361 C1369 0.951 . S
H1362 C1370 0.951 . S
C1363 C1357 1.265 . S
C1363 H1358 0.950 . S
C1363 C1364 1.478 . S
C1364 C1363 1.478 . S
C1364 C1365 1.397 . S
C1364 C1381 1.394 . S
C1365 C1364 1.397 . S
C1365 C1366 1.438 . S
C1365 C1370 1.429 . S
C1366 C1365 1.438 . S
C1366 C1367 1.428 . S
C1366 C1379 1.394 . S
C1367 H1359 0.949 . S
C1367 C1366 1.428 . S
C1367 C1368 1.345 . S
C1368 H1360 0.950 . S
C1368 C1367 1.345 . S
C1368 C1369 1.424 . S
C1369 H1361 0.951 . S
C1369 C1368 1.424 . S
C1369 C1370 1.347 . S
C1370 H1362 0.951 . S
C1370 C1365 1.429 . S
C1370 C1369 1.347 . S
H1371 C1372 0.951 . S
C1372 H1371 0.951 . S
C1372 C1378 1.265 . S
H1373 C1378 0.950 . S
H1374 C1382 0.949 . S
H1375 C1383 0.950 . S
H1376 C1384 0.951 . S
H1377 C1385 0.951 . S
C1378 C1372 1.265 . S
C1378 H1373 0.950 . S
C1378 C1379 1.478 . S
C1379 C1366 1.394 . S
C1379 C1378 1.478 . S
C1379 C1380 1.397 . S
C1380 C1379 1.397 . S
C1380 C1381 1.438 . S
C1380 C1385 1.429 . S
C1381 C1364 1.394 . S
C1381 C1380 1.438 . S
C1381 C1382 1.428 . S
C1382 H1374 0.949 . S
C1382 C1381 1.428 . S
C1382 C1383 1.345 . S
C1383 H1375 0.950 . S
C1383 C1382 1.345 . S
C1383 C1384 1.424 . S
C1384 H1376 0.951 . S
C1384 C1383 1.424 . S
C1384 C1385 1.347 . S
C1385 H1377 0.951 . S
C1385 C1380 1.429 . S
C1385 C1384 1.347 . S
H1386 C1387 0.951 . S
C1387 H1386 0.951 . S
C1387 C1393 1.265 . S
H1388 C1393 0.950 . S
H1389 C1397 0.949 . S
H1390 C1398 0.950 . S
H1391 C1399 0.951 . S
H1392 C1400 0.951 . S
C1393 C1387 1.265 . S
C1393 H1388 0.950 . S
C1393 C1394 1.478 . S
C1394 C1393 1.478 . S
C1394 C1395 1.397 . S
C1394 C1411 1.394 . S
C1395 C1394 1.397 . S
C1395 C1396 1.438 . S
C1395 C1400 1.429 . S
C1396 C1395 1.438 . S
C1396 C1397 1.428 . S
C1396 C1409 1.394 . S
C1397 H1389 0.949 . S
C1397 C1396 1.428 . S
C1397 C1398 1.345 . S
C1398 H1390 0.950 . S
C1398 C1397 1.345 . S
C1398 C1399 1.424 . S
C1399 H1391 0.951 . S
C1399 C1398 1.424 . S
C1399 C1400 1.347 . S
C1400 H1392 0.951 . S
C1400 C1395 1.429 . S
C1400 C1399 1.347 . S
H1401 C1402 0.951 . S
C1402 H1401 0.951 . S
C1402 C1408 1.265 . S
H1403 C1408 0.950 . S
H1404 C1412 0.949 . S
H1405 C1413 0.950 . S
H1406 C1414 0.951 . S
H1407 C1415 0.951 . S
C1408 C1402 1.265 . S
C1408 H1403 0.950 . S
C1408 C1409 1.478 . S
C1409 C1396 1.394 . S
C1409 C1408 1.478 . S
C1409 C1410 1.397 . S
C1410 C1409 1.397 . S
C1410 C1411 1.438 . S
C1410 C1415 1.429 . S
C1411 C1394 1.394 . S
C1411 C1410 1.438 . S
C1411 C1412 1.428 . S
C1412 H1404 0.949 . S
C1412 C1411 1.428 . S
C1412 C1413 1.345 . S
C1413 H1405 0.950 . S
C1413 C1412 1.345 . S
C1413 C1414 1.424 . S
C1414 H1406 0.951 . S
C1414 C1413 1.424 . S
C1414 C1415 1.347 . S
C1415 H1407 0.951 . S
C1415 C1410 1.429 . S
C1415 C1414 1.347 . S
H1416 C1417 0.951 . S
C1417 H1416 0.951 . S
C1417 C1423 1.265 . S
H1418 C1423 0.950 . S
H1419 C1427 0.949 . S
H1420 C1428 0.950 . S
H1421 C1429 0.951 . S
H1422 C1430 0.951 . S
C1423 C1417 1.265 . S
C1423 H1418 0.950 . S
C1423 C1424 1.478 . S
C1424 C1423 1.478 . S
C1424 C1425 1.397 . S
C1424 C1441 1.394 . S
C1425 C1424 1.397 . S
C1425 C1426 1.438 . S
C1425 C1430 1.429 . S
C1426 C1425 1.438 . S
C1426 C1427 1.428 . S
C1426 C1439 1.394 . S
C1427 H1419 0.949 . S
C1427 C1426 1.428 . S
C1427 C1428 1.345 . S
C1428 H1420 0.950 . S
C1428 C1427 1.345 . S
C1428 C1429 1.424 . S
C1429 H1421 0.951 . S
C1429 C1428 1.424 . S
C1429 C1430 1.347 . S
C1430 H1422 0.951 . S
C1430 C1425 1.429 . S
C1430 C1429 1.347 . S
H1431 C1432 0.951 . S
C1432 H1431 0.951 . S
C1432 C1438 1.265 . S
H1433 C1438 0.950 . S
H1434 C1442 0.949 . S
H1435 C1443 0.950 . S
H1436 C1444 0.951 . S
H1437 C1445 0.951 . S
C1438 C1432 1.265 . S
C1438 H1433 0.950 . S
C1438 C1439 1.478 . S
C1439 C1426 1.394 . S
C1439 C1438 1.478 . S
C1439 C1440 1.397 . S
C1440 C1439 1.397 . S
C1440 C1441 1.438 . S
C1440 C1445 1.429 . S
C1441 C1424 1.394 . S
C1441 C1440 1.438 . S
C1441 C1442 1.428 . S
C1442 H1434 0.949 . S
C1442 C1441 1.428 . S
C1442 C1443 1.345 . S
C1443 H1435 0.950 . S
C1443 C1442 1.345 . S
C1443 C1444 1.424 . S
C1444 H1436 0.951 . S
C1444 C1443 1.424 . S
C1444 C1445 1.347 . S
C1445 H1437 0.951 . S
C1445 C1440 1.429 . S
C1445 C1444 1.347 . S
H1446 C1447 0.951 . S
C1447 H1446 0.951 . S
C1447 C1453 1.265 . S
H1448 C1453 0.950 . S
H1449 C1457 0.949 . S
H1450 C1458 0.950 . S
H1451 C1459 0.951 . S
H1452 C1460 0.951 . S
C1453 C1447 1.265 . S
C1453 H1448 0.950 . S
C1453 C1454 1.478 . S
C1454 C1453 1.478 . S
C1454 C1455 1.397 . S
C1454 C1471 1.394 . S
C1455 C1454 1.397 . S
C1455 C1456 1.438 . S
C1455 C1460 1.429 . S
C1456 C1455 1.438 . S
C1456 C1457 1.428 . S
C1456 C1469 1.394 . S
C1457 H1449 0.949 . S
C1457 C1456 1.428 . S
C1457 C1458 1.345 . S
C1458 H1450 0.950 . S
C1458 C1457 1.345 . S
C1458 C1459 1.424 . S
C1459 H1451 0.951 . S
C1459 C1458 1.424 . S
C1459 C1460 1.347 . S
C1460 H1452 0.951 . S
C1460 C1455 1.429 . S
C1460 C1459 1.347 . S
H1461 C1462 0.951 . S
C1462 H1461 0.951 . S
C1462 C1468 1.265 . S
H1463 C1468 0.950 . S
H1464 C1472 0.949 . S
H1465 C1473 0.950 . S
H1466 C1474 0.951 . S
H1467 C1475 0.951 . S
C1468 C1462 1.265 . S
C1468 H1463 0.950 . S
C1468 C1469 1.478 . S
C1469 C1456 1.394 . S
C1469 C1468 1.478 . S
C1469 C1470 1.397 . S
C1470 C1469 1.397 . S
C1470 C1471 1.438 . S
C1470 C1475 1.429 . S
C1471 C1454 1.394 . S
C1471 C1470 1.438 . S
C1471 C1472 1.428 . S
C1472 H1464 0.949 . S
C1472 C1471 1.428 . S
C1472 C1473 1.345 . S
C1473 H1465 0.950 . S
C1473 C1472 1.345 . S
C1473 C1474 1.424 . S
C1474 H1466 0.951 . S
C1474 C1473 1.424 . S
C1474 C1475 1.347 . S
C1475 H1467 0.951 . S
C1475 C1470 1.429 . S
C1475 C1474 1.347 . S
H1476 C1477 0.951 . S
C1477 H1476 0.951 . S
C1477 C1483 1.265 . S
H1478 C1483 0.950 . S
H1479 C1487 0.949 . S
H1480 C1488 0.950 . S
H1481 C1489 0.951 . S
H1482 C1490 0.951 . S
C1483 C1477 1.265 . S
C1483 H1478 0.950 . S
C1483 C1484 1.478 . S
C1484 C1483 1.478 . S
C1484 C1485 1.397 . S
C1484 C1501 1.394 . S
C1485 C1484 1.397 . S
C1485 C1486 1.438 . S
C1485 C1490 1.429 . S
C1486 C1485 1.438 . S
C1486 C1487 1.428 . S
C1486 C1499 1.394 . S
C1487 H1479 0.949 . S
C1487 C1486 1.428 . S
C1487 C1488 1.345 . S
C1488 H1480 0.950 . S
C1488 C1487 1.345 . S
C1488 C1489 1.424 . S
C1489 H1481 0.951 . S
C1489 C1488 1.424 . S
C1489 C1490 1.347 . S
C1490 H1482 0.951 . S
C1490 C1485 1.429 . S
C1490 C1489 1.347 . S
H1491 C1492 0.951 . S
C1492 H1491 0.951 . S
C1492 C1498 1.265 . S
H1493 C1498 0.950 . S
H1494 C1502 0.949 . S
H1495 C1503 0.950 . S
H1496 C1504 0.951 . S
H1497 C1505 0.951 . S
C1498 C1492 1.265 . S
C1498 H1493 0.950 . S
C1498 C1499 1.478 . S
C1499 C1486 1.394 . S
C1499 C1498 1.478 . S
C1499 C1500 1.397 . S
C1500 C1499 1.397 . S
C1500 C1501 1.438 . S
C1500 C1505 1.429 . S
C1501 C1484 1.394 . S
C1501 C1500 1.438 . S
C1501 C1502 1.428 . S
C1502 H1494 0.949 . S
C1502 C1501 1.428 . S
C1502 C1503 1.345 . S
C1503 H1495 0.950 . S
C1503 C1502 1.345 . S
C1503 C1504 1.424 . S
C1504 H1496 0.951 . S
C1504 C1503 1.424 . S
C1504 C1505 1.347 . S
C1505 H1497 0.951 . S
C1505 C1500 1.429 . S
C1505 C1504 1.347 . S
H1506 C1507 0.951 . S
C1507 H1506 0.951 . S
C1507 C1513 1.265 . S
H1508 C1513 0.950 . S
H1509 C1517 0.949 . S
H1510 C1518 0.950 . S
H1511 C1519 0.951 . S
H1512 C1520 0.951 . S
C1513 C1507 1.265 . S
C1513 H1508 0.950 . S
C1513 C1514 1.478 . S
C1514 C1513 1.478 . S
C1514 C1515 1.397 . S
C1514 C1531 1.394 . S
C1515 C1514 1.397 . S
C1515 C1516 1.438 . S
C1515 C1520 1.429 . S
C1516 C1515 1.438 . S
C1516 C1517 1.428 . S
C1516 C1529 1.394 . S
C1517 H1509 0.949 . S
C1517 C1516 1.428 . S
C1517 C1518 1.345 . S
C1518 H1510 0.950 . S
C1518 C1517 1.345 . S
C1518 C1519 1.424 . S
C1519 H1511 0.951 . S
C1519 C1518 1.424 . S
C1519 C1520 1.347 . S
C1520 H1512 0.951 . S
C1520 C1515 1.429 . S
C1520 C1519 1.347 . S
H1521 C1522 0.951 . S
C1522 H1521 0.951 . S
C1522 C1528 1.265 . S
H1523 C1528 0.950 . S
H1524 C1532 0.949 . S
H1525 C1533 0.950 . S
H1526 C1534 0.951 . S
H1527 C1535 0.951 . S
C1528 C1522 1.265 . S
C1528 H1523 0.950 . S
C1528 C1529 1.478 . S
C1529 C1516 1.394 . S
C1529 C1528 1.478 . S
C1529 C1530 1.397 . S
C1530 C1529 1.397 . S
C1530 C1531 1.438 . S
C1530 C1535 1.429 . S
C1531 C1514 1.394 . S
C1531 C1530 1.438 . S
C1531 C1532 1.428 . S
C1532 H1524 0.949 . S
C1532 C1531 1.428 . S
C1532 C1533 1.345 . S
C1533 H1525 0.950 . S
C1533 C1532 1.345 . S
C1533 C1534 1.424 . S
C1534 H1526 0.951 . S
C1534 C1533 1.424 . S
C1534 C1535 1.347 . S
C1535 H1527 0.951 . S
C1535 C1530 1.429 . S
C1535 C1534 1.347 . S
H1536 C1537 0.951 . S
C1537 H1536 0.951 . S
C1537 C1543 1.265 . S
H1538 C1543 0.950 . S
H1539 C1547 0.949 . S
H1540 C1548 0.950 . S
H1541 C1549 0.951 . S
H1542 C1550 0.951 . S
C1543 C1537 1.265 . S
C1543 H1538 0.950 . S
C1543 C1544 1.478 . S
C1544 C1543 1.478 . S
C1544 C1545 1.397 . S
C1544 C1561 1.394 . S
C1545 C1544 1.397 . S
C1545 C1546 1.438 . S
C1545 C1550 1.429 . S
C1546 C1545 1.438 . S
C1546 C1547 1.428 . S
C1546 C1559 1.394 . S
C1547 H1539 0.949 . S
C1547 C1546 1.428 . S
C1547 C1548 1.345 . S
C1548 H1540 0.950 . S
C1548 C1547 1.345 . S
C1548 C1549 1.424 . S
C1549 H1541 0.951 . S
C1549 C1548 1.424 . S
C1549 C1550 1.347 . S
C1550 H1542 0.951 . S
C1550 C1545 1.429 . S
C1550 C1549 1.347 . S
H1551 C1552 0.951 . S
C1552 H1551 0.951 . S
C1552 C1558 1.265 . S
H1553 C1558 0.950 . S
H1554 C1562 0.949 . S
H1555 C1563 0.950 . S
H1556 C1564 0.951 . S
H1557 C1565 0.951 . S
C1558 C1552 1.265 . S
C1558 H1553 0.950 . S
C1558 C1559 1.478 . S
C1559 C1546 1.394 . S
C1559 C1558 1.478 . S
C1559 C1560 1.397 . S
C1560 C1559 1.397 . S
C1560 C1561 1.438 . S
C1560 C1565 1.429 . S
C1561 C1544 1.394 . S
C1561 C1560 1.438 . S
C1561 C1562 1.428 . S
C1562 H1554 0.949 . S
C1562 C1561 1.428 . S
C1562 C1563 1.345 . S
C1563 H1555 0.950 . S
C1563 C1562 1.345 . S
C1563 C1564 1.424 . S
C1564 H1556 0.951 . S
C1564 C1563 1.424 . S
C1564 C1565 1.347 . S
C1565 H1557 0.951 . S
C1565 C1560 1.429 . S
C1565 C1564 1.347 . S
H1566 C1567 0.951 . S
C1567 H1566 0.951 . S
C1567 C1573 1.265 . S
H1568 C1573 0.950 . S
H1569 C1577 0.949 . S
H1570 C1578 0.950 . S
H1571 C1579 0.951 . S
H1572 C1580 0.951 . S
C1573 C1567 1.265 . S
C1573 H1568 0.950 . S
C1573 C1574 1.478 . S
C1574 C1573 1.478 . S
C1574 C1575 1.397 . S
C1574 C1591 1.394 . S
C1575 C1574 1.397 . S
C1575 C1576 1.438 . S
C1575 C1580 1.429 . S
C1576 C1575 1.438 . S
C1576 C1577 1.428 . S
C1576 C1589 1.394 . S
C1577 H1569 0.949 . S
C1577 C1576 1.428 . S
C1577 C1578 1.345 . S
C1578 H1570 0.950 . S
C1578 C1577 1.345 . S
C1578 C1579 1.424 . S
C1579 H1571 0.951 . S
C1579 C1578 1.424 . S
C1579 C1580 1.347 . S
C1580 H1572 0.951 . S
C1580 C1575 1.429 . S
C1580 C1579 1.347 . S
H1581 C1582 0.951 . S
C1582 H1581 0.951 . S
C1582 C1588 1.265 . S
H1583 C1588 0.950 . S
H1584 C1592 0.949 . S
H1585 C1593 0.950 . S
H1586 C1594 0.951 . S
H1587 C1595 0.951 . S
C1588 C1582 1.265 . S
C1588 H1583 0.950 . S
C1588 C1589 1.478 . S
C1589 C1576 1.394 . S
C1589 C1588 1.478 . S
C1589 C1590 1.397 . S
C1590 C1589 1.397 . S
C1590 C1591 1.438 . S
C1590 C1595 1.429 . S
C1591 C1574 1.394 . S
C1591 C1590 1.438 . S
C1591 C1592 1.428 . S
C1592 H1584 0.949 . S
C1592 C1591 1.428 . S
C1592 C1593 1.345 . S
C1593 H1585 0.950 . S
C1593 C1592 1.345 . S
C1593 C1594 1.424 . S
C1594 H1586 0.951 . S
C1594 C1593 1.424 . S
C1594 C1595 1.347 . S
C1595 H1587 0.951 . S
C1595 C1590 1.429 . S
C1595 C1594 1.347 . S
H1596 C1597 0.951 . S
C1597 H1596 0.951 . S
C1597 C1603 1.265 . S
H1598 C1603 0.950 . S
H1599 C1607 0.949 . S
H1600 C1608 0.950 . S
H1601 C1609 0.951 . S
H1602 C1610 0.951 . S
C1603 C1597 1.265 . S
C1603 H1598 0.950 . S
C1603 C1604 1.478 . S
C1604 C1603 1.478 . S
C1604 C1605 1.397 . S
C1604 C1621 1.394 . S
C1605 C1604 1.397 . S
C1605 C1606 1.438 . S
C1605 C1610 1.429 . S
C1606 C1605 1.438 . S
C1606 C1607 1.428 . S
C1606 C1619 1.394 . S
C1607 H1599 0.949 . S
C1607 C1606 1.428 . S
C1607 C1608 1.345 . S
C1608 H1600 0.950 . S
C1608 C1607 1.345 . S
C1608 C1609 1.424 . S
C1609 H1601 0.951 . S
C1609 C1608 1.424 . S
C1609 C1610 1.347 . S
C1610 H1602 0.951 . S
C1610 C1605 1.429 . S
C1610 C1609 1.347 . S
H1611 C1612 0.951 . S
C1612 H1611 0.951 . S
C1612 C1618 1.265 . S
H1613 C1618 0.950 . S
H1614 C1622 0.949 . S
H1615 C1623 0.950 . S
H1616 C1624 0.951 . S
H1617 C1625 0.951 . S
C1618 C1612 1.265 . S
C1618 H1613 0.950 . S
C1618 C1619 1.478 . S
C1619 C1606 1.394 . S
C1619 C1618 1.478 . S
C1619 C1620 1.397 . S
C1620 C1619 1.397 . S
C1620 C1621 1.438 . S
C1620 C1625 1.429 . S
C1621 C1604 1.394 . S
C1621 C1620 1.438 . S
C1621 C1622 1.428 . S
C1622 H1614 0.949 . S
C1622 C1621 1.428 . S
C1622 C1623 1.345 . S
C1623 H1615 0.950 . S
C1623 C1622 1.345 . S
C1623 C1624 1.424 . S
C1624 H1616 0.951 . S
C1624 C1623 1.424 . S
C1624 C1625 1.347 . S
C1625 H1617 0.951 . S
C1625 C1620 1.429 . S
C1625 C1624 1.347 . S
H1626 C1627 0.951 . S
C1627 H1626 0.951 . S
C1627 C1633 1.265 . S
H1628 C1633 0.950 . S
H1629 C1637 0.949 . S
H1630 C1638 0.950 . S
H1631 C1639 0.951 . S
H1632 C1640 0.951 . S
C1633 C1627 1.265 . S
C1633 H1628 0.950 . S
C1633 C1634 1.478 . S
C1634 C1633 1.478 . S
C1634 C1635 1.397 . S
C1634 C1651 1.394 . S
C1635 C1634 1.397 . S
C1635 C1636 1.438 . S
C1635 C1640 1.429 . S
C1636 C1635 1.438 . S
C1636 C1637 1.428 . S
C1636 C1649 1.394 . S
C1637 H1629 0.949 . S
C1637 C1636 1.428 . S
C1637 C1638 1.345 . S
C1638 H1630 0.950 . S
C1638 C1637 1.345 . S
C1638 C1639 1.424 . S
C1639 H1631 0.951 . S
C1639 C1638 1.424 . S
C1639 C1640 1.347 . S
C1640 H1632 0.951 . S
C1640 C1635 1.429 . S
C1640 C1639 1.347 . S
H1641 C1642 0.951 . S
C1642 H1641 0.951 . S
C1642 C1648 1.265 . S
H1643 C1648 0.950 . S
H1644 C1652 0.949 . S
H1645 C1653 0.950 . S
H1646 C1654 0.951 . S
H1647 C1655 0.951 . S
C1648 C1642 1.265 . S
C1648 H1643 0.950 . S
C1648 C1649 1.478 . S
C1649 C1636 1.394 . S
C1649 C1648 1.478 . S
C1649 C1650 1.397 . S
C1650 C1649 1.397 . S
C1650 C1651 1.438 . S
C1650 C1655 1.429 . S
C1651 C1634 1.394 . S
C1651 C1650 1.438 . S
C1651 C1652 1.428 . S
C1652 H1644 0.949 . S
C1652 C1651 1.428 . S
C1652 C1653 1.345 . S
C1653 H1645 0.950 . S
C1653 C1652 1.345 . S
C1653 C1654 1.424 . S
C1654 H1646 0.951 . S
C1654 C1653 1.424 . S
C1654 C1655 1.347 . S
C1655 H1647 0.951 . S
C1655 C1650 1.429 . S
C1655 C1654 1.347 . S
H1656 C1657 0.951 . S
C1657 H1656 0.951 . S
C1657 C1663 1.265 . S
H1658 C1663 0.950 . S
H1659 C1667 0.949 . S
H1660 C1668 0.950 . S
H1661 C1669 0.951 . S
H1662 C1670 0.951 . S
C1663 C1657 1.265 . S
C1663 H1658 0.950 . S
C1663 C1664 1.478 . S
C1664 C1663 1.478 . S
C1664 C1665 1.397 . S
C1664 C1681 1.394 . S
C1665 C1664 1.397 . S
C1665 C1666 1.438 . S
C1665 C1670 1.429 . S
C1666 C1665 1.438 . S
C1666 C1667 1.428 . S
C1666 C1679 1.394 . S
C1667 H1659 0.949 . S
C1667 C1666 1.428 . S
C1667 C1668 1.345 . S
C1668 H1660 0.950 . S
C1668 C1667 1.345 . S
C1668 C1669 1.424 . S
C1669 H1661 0.951 . S
C1669 C1668 1.424 . S
C1669 C1670 1.347 . S
C1670 H1662 0.951 . S
C1670 C1665 1.429 . S
C1670 C1669 1.347 . S
H1671 C1672 0.951 . S
C1672 H1671 0.951 . S
C1672 C1678 1.265 . S
H1673 C1678 0.950 . S
H1674 C1682 0.949 . S
H1675 C1683 0.950 . S
H1676 C1684 0.951 . S
H1677 C1685 0.951 . S
C1678 C1672 1.265 . S
C1678 H1673 0.950 . S
C1678 C1679 1.478 . S
C1679 C1666 1.394 . S
C1679 C1678 1.478 . S
C1679 C1680 1.397 . S
C1680 C1679 1.397 . S
C1680 C1681 1.438 . S
C1680 C1685 1.429 . S
C1681 C1664 1.394 . S
C1681 C1680 1.438 . S
C1681 C1682 1.428 . S
C1682 H1674 0.949 . S
C1682 C1681 1.428 . S
C1682 C1683 1.345 . S
C1683 H1675 0.950 . S
C1683 C1682 1.345 . S
C1683 C1684 1.424 . S
C1684 H1676 0.951 . S
C1684 C1683 1.424 . S
C1684 C1685 1.347 . S
C1685 H1677 0.951 . S
C1685 C1680 1.429 . S
C1685 C1684 1.347 . S
H1686 C1687 0.951 . S
C1687 H1686 0.951 . S
C1687 C1693 1.265 . S
H1688 C1693 0.950 . S
H1689 C1697 0.949 . S
H1690 C1698 0.950 1_556 S
H1691 C1699 0.951 . S
H1692 C1700 0.950 . S
C1693 C1687 1.265 . S
C1693 H1688 0.950 . S
C1693 C1694 1.478 . S
C1694 C1693 1.478 . S
C1694 C1695 1.397 . S
C1694 C1711 1.394 . S
C1695 C1694 1.397 . S
C1695 C1696 1.438 . S
C1695 C1700 1.429 . S
C1696 C1695 1.438 . S
C1696 C1697 1.428 . S
C1696 C1709 1.394 . S
C1697 H1689 0.949 . S
C1697 C1696 1.428 . S
C1697 C1698 1.345 . S
C1698 H1690 0.950 1_554 S
C1698 C1697 1.345 . S
C1698 C1699 1.424 1_554 S
C1699 H1691 0.951 . S
C1699 C1698 1.424 1_556 S
C1699 C1700 1.347 1_556 S
C1700 H1692 0.950 . S
C1700 C1695 1.429 . S
C1700 C1699 1.347 1_554 S
H1701 C1702 0.951 . S
C1702 H1701 0.951 . S
C1702 C1708 1.265 . S
H1703 C1708 0.950 . S
H1704 C1712 0.949 . S
H1705 C1713 0.950 . S
H1706 C1714 0.951 . S
H1707 C1715 0.951 . S
C1708 C1702 1.265 . S
C1708 H1703 0.950 . S
C1708 C1709 1.478 . S
C1709 C1696 1.394 . S
C1709 C1708 1.478 . S
C1709 C1710 1.397 . S
C1710 C1709 1.397 . S
C1710 C1711 1.438 . S
C1710 C1715 1.429 . S
C1711 C1694 1.394 . S
C1711 C1710 1.438 . S
C1711 C1712 1.428 . S
C1712 H1704 0.949 . S
C1712 C1711 1.428 . S
C1712 C1713 1.345 . S
C1713 H1705 0.950 . S
C1713 C1712 1.345 . S
C1713 C1714 1.424 . S
C1714 H1706 0.951 . S
C1714 C1713 1.424 . S
C1714 C1715 1.347 . S
C1715 H1707 0.951 . S
C1715 C1710 1.429 . S
C1715 C1714 1.347 . S
H1716 C1717 0.951 . S
C1717 H1716 0.951 . S
C1717 C1723 1.265 . S
H1718 C1723 0.950 . S
H1719 C1727 0.949 . S
H1720 C1728 0.950 . S
H1721 C1729 0.951 . S
H1722 C1730 0.951 . S
C1723 C1717 1.265 . S
C1723 H1718 0.950 . S
C1723 C1724 1.478 . S
C1724 C1723 1.478 . S
C1724 C1725 1.397 . S
C1724 C1741 1.394 . S
C1725 C1724 1.397 . S
C1725 C1726 1.438 . S
C1725 C1730 1.429 . S
C1726 C1725 1.438 . S
C1726 C1727 1.428 . S
C1726 C1739 1.394 . S
C1727 H1719 0.949 . S
C1727 C1726 1.428 . S
C1727 C1728 1.345 . S
C1728 H1720 0.950 . S
C1728 C1727 1.345 . S
C1728 C1729 1.424 . S
C1729 H1721 0.951 . S
C1729 C1728 1.424 . S
C1729 C1730 1.347 . S
C1730 H1722 0.951 . S
C1730 C1725 1.429 . S
C1730 C1729 1.347 . S
H1731 C1732 0.951 . S
C1732 H1731 0.951 . S
C1732 C1738 1.265 . S
H1733 C1738 0.950 . S
H1734 C1742 0.949 . S
H1735 C1743 0.950 . S
H1736 C1744 0.951 . S
H1737 C1745 0.951 . S
C1738 C1732 1.265 . S
C1738 H1733 0.950 . S
C1738 C1739 1.478 . S
C1739 C1726 1.394 . S
C1739 C1738 1.478 . S
C1739 C1740 1.397 . S
C1740 C1739 1.397 . S
C1740 C1741 1.438 . S
C1740 C1745 1.429 . S
C1741 C1724 1.394 . S
C1741 C1740 1.438 . S
C1741 C1742 1.428 . S
C1742 H1734 0.949 . S
C1742 C1741 1.428 . S
C1742 C1743 1.345 . S
C1743 H1735 0.950 . S
C1743 C1742 1.345 . S
C1743 C1744 1.424 . S
C1744 H1736 0.951 . S
C1744 C1743 1.424 . S
C1744 C1745 1.347 . S
C1745 H1737 0.951 . S
C1745 C1740 1.429 . S
C1745 C1744 1.347 . S
H1746 C1747 0.951 . S
C1747 H1746 0.951 . S
C1747 C1753 1.265 . S
H1748 C1753 0.950 1_554 S
H1749 C1757 0.949 . S
H1750 C1758 0.950 . S
H1751 C1759 0.951 . S
H1752 C1760 0.951 . S
C1753 C1747 1.265 . S
C1753 H1748 0.950 1_556 S
C1753 C1754 1.478 . S
C1754 C1753 1.478 . S
C1754 C1755 1.397 . S
C1754 C1771 1.394 . S
C1755 C1754 1.397 . S
C1755 C1756 1.438 . S
C1755 C1760 1.429 . S
C1756 C1755 1.438 . S
C1756 C1757 1.428 . S
C1756 C1769 1.394 . S
C1757 H1749 0.949 . S
C1757 C1756 1.428 . S
C1757 C1758 1.345 . S
C1758 H1750 0.950 . S
C1758 C1757 1.345 . S
C1758 C1759 1.424 . S
C1759 H1751 0.951 . S
C1759 C1758 1.424 . S
C1759 C1760 1.347 . S
C1760 H1752 0.951 . S
C1760 C1755 1.429 . S
C1760 C1759 1.347 . S
H1761 C1762 0.951 . S
C1762 H1761 0.951 . S
C1762 C1768 1.265 . S
H1763 C1768 0.950 . S
H1764 C1772 0.949 1_554 S
H1765 C1773 0.950 1_554 S
H1766 C1774 0.951 . S
H1767 C1775 0.951 . S
C1768 C1762 1.265 . S
C1768 H1763 0.950 . S
C1768 C1769 1.478 . S
C1769 C1756 1.394 . S
C1769 C1768 1.478 . S
C1769 C1770 1.397 . S
C1770 C1769 1.397 . S
C1770 C1771 1.438 . S
C1770 C1775 1.429 . S
C1771 C1754 1.394 . S
C1771 C1770 1.438 . S
C1771 C1772 1.428 . S
C1772 H1764 0.949 1_556 S
C1772 C1771 1.428 . S
C1772 C1773 1.345 . S
C1773 H1765 0.950 1_556 S
C1773 C1772 1.345 . S
C1773 C1774 1.424 . S
C1774 H1766 0.951 . S
C1774 C1773 1.424 . S
C1774 C1775 1.347 . S
C1775 H1767 0.951 . S
C1775 C1770 1.429 . S
C1775 C1774 1.347 . S
H1776 C1777 0.951 . S
C1777 H1776 0.951 . S
C1777 C1783 1.265 . S
H1778 C1783 0.950 . S
H1779 C1787 0.949 . S
H1780 C1788 0.950 . S
H1781 C1789 0.951 . S
H1782 C1790 0.951 . S
C1783 C1777 1.265 . S
C1783 H1778 0.950 . S
C1783 C1784 1.478 . S
C1784 C1783 1.478 . S
C1784 C1785 1.397 . S
C1784 C1801 1.394 . S
C1785 C1784 1.397 . S
C1785 C1786 1.438 . S
C1785 C1790 1.429 . S
C1786 C1785 1.438 . S
C1786 C1787 1.428 . S
C1786 C1799 1.394 . S
C1787 H1779 0.949 . S
C1787 C1786 1.428 . S
C1787 C1788 1.345 . S
C1788 H1780 0.950 . S
C1788 C1787 1.345 . S
C1788 C1789 1.424 . S
C1789 H1781 0.951 . S
C1789 C1788 1.424 . S
C1789 C1790 1.347 . S
C1790 H1782 0.951 . S
C1790 C1785 1.429 . S
C1790 C1789 1.347 . S
H1791 C1792 0.951 . S
C1792 H1791 0.951 . S
C1792 C1798 1.265 . S
H1793 C1798 0.950 . S
H1794 C1802 0.949 . S
H1795 C1803 0.950 . S
H1796 C1804 0.951 . S
H1797 C1805 0.951 . S
C1798 C1792 1.265 . S
C1798 H1793 0.950 . S
C1798 C1799 1.478 . S
C1799 C1786 1.394 . S
C1799 C1798 1.478 . S
C1799 C1800 1.397 . S
C1800 C1799 1.397 . S
C1800 C1801 1.438 . S
C1800 C1805 1.429 . S
C1801 C1784 1.394 . S
C1801 C1800 1.438 . S
C1801 C1802 1.428 1_556 S
C1802 H1794 0.949 . S
C1802 C1801 1.428 1_554 S
C1802 C1803 1.345 . S
C1803 H1795 0.950 . S
C1803 C1802 1.345 . S
C1803 C1804 1.424 . S
C1804 H1796 0.951 . S
C1804 C1803 1.424 . S
C1804 C1805 1.347 1_554 S
C1805 H1797 0.951 . S
C1805 C1800 1.429 . S
C1805 C1804 1.347 1_556 S
H1806 C1807 0.951 . S
C1807 H1806 0.951 . S
C1807 C1813 1.265 . S
H1808 C1813 0.950 . S
H1809 C1817 0.949 . S
H1810 C1818 0.950 . S
H1811 C1819 0.951 1_554 S
H1812 C1820 0.951 . S
C1813 C1807 1.265 . S
C1813 H1808 0.950 . S
C1813 C1814 1.478 . S
C1814 C1813 1.478 . S
C1814 C1815 1.397 . S
C1814 C1831 1.394 . S
C1815 C1814 1.397 . S
C1815 C1816 1.438 . S
C1815 C1820 1.429 . S
C1816 C1815 1.438 . S
C1816 C1817 1.428 . S
C1816 C1829 1.394 . S
C1817 H1809 0.949 . S
C1817 C1816 1.428 . S
C1817 C1818 1.345 . S
C1818 H1810 0.950 . S
C1818 C1817 1.345 . S
C1818 C1819 1.424 . S
C1819 H1811 0.951 1_556 S
C1819 C1818 1.424 . S
C1819 C1820 1.347 . S
C1820 H1812 0.951 . S
C1820 C1815 1.429 . S
C1820 C1819 1.347 . S
H1821 C1822 0.951 . S
C1822 H1821 0.951 . S
C1822 C1828 1.265 . S
H1823 C1828 0.950 . S
H1824 C1832 0.949 . S
H1825 C1833 0.950 . S
H1826 C1834 0.951 . S
H1827 C1835 0.951 . S
C1828 C1822 1.265 . S
C1828 H1823 0.950 . S
C1828 C1829 1.478 . S
C1829 C1816 1.394 . S
C1829 C1828 1.478 . S
C1829 C1830 1.397 . S
C1830 C1829 1.397 . S
C1830 C1831 1.438 . S
C1830 C1835 1.429 . S
C1831 C1814 1.394 . S
C1831 C1830 1.438 . S
C1831 C1832 1.428 . S
C1832 H1824 0.949 . S
C1832 C1831 1.428 . S
C1832 C1833 1.345 . S
C1833 H1825 0.950 . S
C1833 C1832 1.345 . S
C1833 C1834 1.424 . S
C1834 H1826 0.951 . S
C1834 C1833 1.424 . S
C1834 C1835 1.347 . S
C1835 H1827 0.951 . S
C1835 C1830 1.429 . S
C1835 C1834 1.347 . S
H1836 C1837 0.951 . S
C1837 H1836 0.951 . S
C1837 C1843 1.265 . S
H1838 C1843 0.950 1_554 S
H1839 C1847 0.949 . S
H1840 C1848 0.950 . S
H1841 C1849 0.951 . S
H1842 C1850 0.951 . S
C1843 C1837 1.265 . S
C1843 H1838 0.950 1_556 S
C1843 C1844 1.478 . S
C1844 C1843 1.478 . S
C1844 C1845 1.397 . S
C1844 C1861 1.394 . S
C1845 C1844 1.397 . S
C1845 C1846 1.438 . S
C1845 C1850 1.429 1_556 S
C1846 C1845 1.438 . S
C1846 C1847 1.428 . S
C1846 C1859 1.394 . S
C1847 H1839 0.949 . S
C1847 C1846 1.428 . S
C1847 C1848 1.345 1_556 S
C1848 H1840 0.950 . S
C1848 C1847 1.345 1_554 S
C1848 C1849 1.424 . S
C1849 H1841 0.951 . S
C1849 C1848 1.424 . S
C1849 C1850 1.347 . S
C1850 H1842 0.951 . S
C1850 C1845 1.429 1_554 S
C1850 C1849 1.347 . S
H1851 C1852 0.951 . S
C1852 H1851 0.951 . S
C1852 C1858 1.265 . S
H1853 C1858 0.950 . S
H1854 C1862 0.949 . S
H1855 C1863 0.950 . S
H1856 C1864 0.951 . S
H1857 C1865 0.951 . S
C1858 C1852 1.265 . S
C1858 H1853 0.950 . S
C1858 C1859 1.478 . S
C1859 C1846 1.394 . S
C1859 C1858 1.478 . S
C1859 C1860 1.397 . S
C1860 C1859 1.397 . S
C1860 C1861 1.438 . S
C1860 C1865 1.429 . S
C1861 C1844 1.394 . S
C1861 C1860 1.438 . S
C1861 C1862 1.428 . S
C1862 H1854 0.949 . S
C1862 C1861 1.428 . S
C1862 C1863 1.345 . S
C1863 H1855 0.950 . S
C1863 C1862 1.345 . S
C1863 C1864 1.424 . S
C1864 H1856 0.951 . S
C1864 C1863 1.424 . S
C1864 C1865 1.347 . S
C1865 H1857 0.951 . S
C1865 C1860 1.429 . S
C1865 C1864 1.347 . S
H1866 C1867 0.951 1_554 S
C1867 H1866 0.951 1_556 S
C1867 C1873 1.265 . S
H1868 C1873 0.950 . S
H1869 C1877 0.949 . S
H1870 C1878 0.950 . S
H1871 C1879 0.951 . S
H1872 C1880 0.951 . S
C1873 C1867 1.265 . S
C1873 H1868 0.950 . S
C1873 C1874 1.478 . S
C1874 C1873 1.478 . S
C1874 C1875 1.397 . S
C1874 C1891 1.394 . S
C1875 C1874 1.397 . S
C1875 C1876 1.438 . S
C1875 C1880 1.429 . S
C1876 C1875 1.438 . S
C1876 C1877 1.428 . S
C1876 C1889 1.394 . S
C1877 H1869 0.949 . S
C1877 C1876 1.428 . S
C1877 C1878 1.345 . S
C1878 H1870 0.950 . S
C1878 C1877 1.345 . S
C1878 C1879 1.424 . S
C1879 H1871 0.951 . S
C1879 C1878 1.424 . S
C1879 C1880 1.347 . S
C1880 H1872 0.951 . S
C1880 C1875 1.429 . S
C1880 C1879 1.347 . S
H1881 C1882 0.951 . S
C1882 H1881 0.951 . S
C1882 C1888 1.265 . S
H1883 C1888 0.950 . S
H1884 C1892 0.949 . S
H1885 C1893 0.950 . S
H1886 C1894 0.951 . S
H1887 C1895 0.951 . S
C1888 C1882 1.265 . S
C1888 H1883 0.950 . S
C1888 C1889 1.478 . S
C1889 C1876 1.394 . S
C1889 C1888 1.478 . S
C1889 C1890 1.397 . S
C1890 C1889 1.397 . S
C1890 C1891 1.438 . S
C1890 C1895 1.429 . S
C1891 C1874 1.394 . S
C1891 C1890 1.438 . S
C1891 C1892 1.428 . S
C1892 H1884 0.949 . S
C1892 C1891 1.428 . S
C1892 C1893 1.345 . S
C1893 H1885 0.950 . S
C1893 C1892 1.345 . S
C1893 C1894 1.424 . S
C1894 H1886 0.951 . S
C1894 C1893 1.424 . S
C1894 C1895 1.347 . S
C1895 H1887 0.951 . S
C1895 C1890 1.429 . S
C1895 C1894 1.347 . S
H1896 C1897 0.951 1_554 S
C1897 H1896 0.951 1_556 S
C1897 C1903 1.265 . S
H1898 C1903 0.950 . S
H1899 C1907 0.949 . S
H1900 C1908 0.950 . S
H1901 C1909 0.951 . S
H1902 C1910 0.951 . S
C1903 C1897 1.265 . S
C1903 H1898 0.950 . S
C1903 C1904 1.478 . S
C1904 C1903 1.478 . S
C1904 C1905 1.397 . S
C1904 C1921 1.394 . S
C1905 C1904 1.397 . S
C1905 C1906 1.438 . S
C1905 C1910 1.429 . S
C1906 C1905 1.438 . S
C1906 C1907 1.428 . S
C1906 C1919 1.394 . S
C1907 H1899 0.949 . S
C1907 C1906 1.428 . S
C1907 C1908 1.345 . S
C1908 H1900 0.950 . S
C1908 C1907 1.345 . S
C1908 C1909 1.424 . S
C1909 H1901 0.951 . S
C1909 C1908 1.424 . S
C1909 C1910 1.347 . S
C1910 H1902 0.951 . S
C1910 C1905 1.429 . S
C1910 C1909 1.347 . S
H1911 C1912 0.951 . S
C1912 H1911 0.951 . S
C1912 C1918 1.265 . S
H1913 C1918 0.950 . S
H1914 C1922 0.949 . S
H1915 C1923 0.950 . S
H1916 C1924 0.951 . S
H1917 C1925 0.951 . S
C1918 C1912 1.265 . S
C1918 H1913 0.950 . S
C1918 C1919 1.478 . S
C1919 C1906 1.394 . S
C1919 C1918 1.478 . S
C1919 C1920 1.397 . S
C1920 C1919 1.397 . S
C1920 C1921 1.438 . S
C1920 C1925 1.429 . S
C1921 C1904 1.394 . S
C1921 C1920 1.438 . S
C1921 C1922 1.428 . S
C1922 H1914 0.949 . S
C1922 C1921 1.428 . S
C1922 C1923 1.345 . S
C1923 H1915 0.950 . S
C1923 C1922 1.345 . S
C1923 C1924 1.424 . S
C1924 H1916 0.951 . S
C1924 C1923 1.424 . S
C1924 C1925 1.347 . S
C1925 H1917 0.951 . S
C1925 C1920 1.429 . S
C1925 C1924 1.347 . S
H1926 C1927 0.951 . S
C1927 H1926 0.951 . S
C1927 C1933 1.265 . S
H1928 C1933 0.950 . S
H1929 C1937 0.949 . S
H1930 C1938 0.950 . S
H1931 C1939 0.951 . S
H1932 C1940 0.951 . S
C1933 C1927 1.265 . S
C1933 H1928 0.950 . S
C1933 C1934 1.478 . S
C1934 C1933 1.478 . S
C1934 C1935 1.397 . S
C1934 C1951 1.394 . S
C1935 C1934 1.397 . S
C1935 C1936 1.438 . S
C1935 C1940 1.429 . S
C1936 C1935 1.438 . S
C1936 C1937 1.428 . S
C1936 C1949 1.394 . S
C1937 H1929 0.949 . S
C1937 C1936 1.428 . S
C1937 C1938 1.345 . S
C1938 H1930 0.950 . S
C1938 C1937 1.345 . S
C1938 C1939 1.424 . S
C1939 H1931 0.951 . S
C1939 C1938 1.424 . S
C1939 C1940 1.347 . S
C1940 H1932 0.951 . S
C1940 C1935 1.429 . S
C1940 C1939 1.347 . S
H1941 C1942 0.951 . S
C1942 H1941 0.951 . S
C1942 C1948 1.265 . S
H1943 C1948 0.950 . S
H1944 C1952 0.949 . S
H1945 C1953 0.950 . S
H1946 C1954 0.951 . S
H1947 C1955 0.951 . S
C1948 C1942 1.265 . S
C1948 H1943 0.950 . S
C1948 C1949 1.478 . S
C1949 C1936 1.394 . S
C1949 C1948 1.478 . S
C1949 C1950 1.397 . S
C1950 C1949 1.397 . S
C1950 C1951 1.438 . S
C1950 C1955 1.429 . S
C1951 C1934 1.394 . S
C1951 C1950 1.438 . S
C1951 C1952 1.428 . S
C1952 H1944 0.949 . S
C1952 C1951 1.428 . S
C1952 C1953 1.345 . S
C1953 H1945 0.950 . S
C1953 C1952 1.345 . S
C1953 C1954 1.424 . S
C1954 H1946 0.951 . S
C1954 C1953 1.424 . S
C1954 C1955 1.347 . S
C1955 H1947 0.951 . S
C1955 C1950 1.429 . S
C1955 C1954 1.347 . S
H1956 C1957 0.951 . S
C1957 H1956 0.951 . S
C1957 C1963 1.265 . S
H1958 C1963 0.950 . S
H1959 C1967 0.949 . S
H1960 C1968 0.950 . S
H1961 C1969 0.951 1_556 S
H1962 C1970 0.951 . S
C1963 C1957 1.265 . S
C1963 H1958 0.950 . S
C1963 C1964 1.478 . S
C1964 C1963 1.478 . S
C1964 C1965 1.397 . S
C1964 C1981 1.394 . S
C1965 C1964 1.397 . S
C1965 C1966 1.438 . S
C1965 C1970 1.429 . S
C1966 C1965 1.438 . S
C1966 C1967 1.428 . S
C1966 C1979 1.394 . S
C1967 H1959 0.949 . S
C1967 C1966 1.428 . S
C1967 C1968 1.345 . S
C1968 H1960 0.950 . S
C1968 C1967 1.345 . S
C1968 C1969 1.424 . S
C1969 H1961 0.951 1_554 S
C1969 C1968 1.424 . S
C1969 C1970 1.347 . S
C1970 H1962 0.951 . S
C1970 C1965 1.429 . S
C1970 C1969 1.347 . S
H1971 C1972 0.951 . S
C1972 H1971 0.951 . S
C1972 C1978 1.265 . S
H1973 C1978 0.950 . S
H1974 C1982 0.949 . S
H1975 C1983 0.950 . S
H1976 C1984 0.951 . S
H1977 C1985 0.951 . S
C1978 C1972 1.265 . S
C1978 H1973 0.950 . S
C1978 C1979 1.478 . S
C1979 C1966 1.394 . S
C1979 C1978 1.478 . S
C1979 C1980 1.397 . S
C1980 C1979 1.397 . S
C1980 C1981 1.438 . S
C1980 C1985 1.429 . S
C1981 C1964 1.394 . S
C1981 C1980 1.438 . S
C1981 C1982 1.428 . S
C1982 H1974 0.949 . S
C1982 C1981 1.428 . S
C1982 C1983 1.345 . S
C1983 H1975 0.950 . S
C1983 C1982 1.345 . S
C1983 C1984 1.424 . S
C1984 H1976 0.951 . S
C1984 C1983 1.424 . S
C1984 C1985 1.347 . S
C1985 H1977 0.951 . S
C1985 C1980 1.429 . S
C1985 C1984 1.347 . S
H1986 C1987 0.951 . S
C1987 H1986 0.951 . S
C1987 C1993 1.265 . S
H1988 C1993 0.950 . S
H1989 C1997 0.949 . S
H1990 C1998 0.950 . S
H1991 C1999 0.951 . S
H1992 C2000 0.951 . S
C1993 C1987 1.265 . S
C1993 H1988 0.950 . S
C1993 C1994 1.478 . S
C1994 C1993 1.478 . S
C1994 C1995 1.397 . S
C1994 C2011 1.394 . S
C1995 C1994 1.397 . S
C1995 C1996 1.438 . S
C1995 C2000 1.429 . S
C1996 C1995 1.438 . S
C1996 C1997 1.428 . S
C1996 C2009 1.394 . S
C1997 H1989 0.949 . S
C1997 C1996 1.428 . S
C1997 C1998 1.345 . S
C1998 H1990 0.950 . S
C1998 C1997 1.345 . S
C1998 C1999 1.424 . S
C1999 H1991 0.951 . S
C1999 C1998 1.424 . S
C1999 C2000 1.347 . S
C2000 H1992 0.951 . S
C2000 C1995 1.429 . S
C2000 C1999 1.347 . S
H2001 C2002 0.951 . S
C2002 H2001 0.951 . S
C2002 C2008 1.265 . S
H2003 C2008 0.950 . S
H2004 C2012 0.949 . S
H2005 C2013 0.950 . S
H2006 C2014 0.951 1_556 S
H2007 C2015 0.951 . S
C2008 C2002 1.265 . S
C2008 H2003 0.950 . S
C2008 C2009 1.478 . S
C2009 C1996 1.394 . S
C2009 C2008 1.478 . S
C2009 C2010 1.397 . S
C2010 C2009 1.397 . S
C2010 C2011 1.438 . S
C2010 C2015 1.429 . S
C2011 C1994 1.394 . S
C2011 C2010 1.438 . S
C2011 C2012 1.428 . S
C2012 H2004 0.949 . S
C2012 C2011 1.428 . S
C2012 C2013 1.345 1_554 S
C2013 H2005 0.950 . S
C2013 C2012 1.345 1_556 S
C2013 C2014 1.424 1_556 S
C2014 H2006 0.951 1_554 S
C2014 C2013 1.424 1_554 S
C2014 C2015 1.347 . S
C2015 H2007 0.951 . S
C2015 C2010 1.429 . S
C2015 C2014 1.347 . S
H2016 C2017 0.951 . S
C2017 H2016 0.951 . S
C2017 C2023 1.265 . S
H2018 C2023 0.950 . S
H2019 C2027 0.949 . S
H2020 C2028 0.950 . S
H2021 C2029 0.951 . S
H2022 C2030 0.951 . S
C2023 C2017 1.265 . S
C2023 H2018 0.950 . S
C2023 C2024 1.478 . S
C2024 C2023 1.478 . S
C2024 C2025 1.397 . S
C2024 C2041 1.394 . S
C2025 C2024 1.397 . S
C2025 C2026 1.438 . S
C2025 C2030 1.429 . S
C2026 C2025 1.438 . S
C2026 C2027 1.428 . S
C2026 C2039 1.394 . S
C2027 H2019 0.949 . S
C2027 C2026 1.428 . S
C2027 C2028 1.345 . S
C2028 H2020 0.950 . S
C2028 C2027 1.345 . S
C2028 C2029 1.424 . S
C2029 H2021 0.951 . S
C2029 C2028 1.424 . S
C2029 C2030 1.347 . S
C2030 H2022 0.951 . S
C2030 C2025 1.429 . S
C2030 C2029 1.347 . S
H2031 C2032 0.951 . S
C2032 H2031 0.951 . S
C2032 C2038 1.265 . S
H2033 C2038 0.950 . S
H2034 C2042 0.949 . S
H2035 C2043 0.950 . S
H2036 C2044 0.951 . S
H2037 C2045 0.951 . S
C2038 C2032 1.265 . S
C2038 H2033 0.950 . S
C2038 C2039 1.478 . S
C2039 C2026 1.394 . S
C2039 C2038 1.478 . S
C2039 C2040 1.397 . S
C2040 C2039 1.397 . S
C2040 C2041 1.438 . S
C2040 C2045 1.429 . S
C2041 C2024 1.394 . S
C2041 C2040 1.438 . S
C2041 C2042 1.428 . S
C2042 H2034 0.949 . S
C2042 C2041 1.428 . S
C2042 C2043 1.345 . S
C2043 H2035 0.950 . S
C2043 C2042 1.345 . S
C2043 C2044 1.424 . S
C2044 H2036 0.951 . S
C2044 C2043 1.424 . S
C2044 C2045 1.347 . S
C2045 H2037 0.951 . S
C2045 C2040 1.429 . S
C2045 C2044 1.347 . S
H2046 C2047 0.951 . S
C2047 H2046 0.951 . S
C2047 C2053 1.265 . S
H2048 C2053 0.950 . S
H2049 C2057 0.949 . S
H2050 C2058 0.950 . S
H2051 C2059 0.951 . S
H2052 C2060 0.951 . S
C2053 C2047 1.265 . S
C2053 H2048 0.950 . S
C2053 C2054 1.478 . S
C2054 C2053 1.478 . S
C2054 C2055 1.397 . S
C2054 C2071 1.394 . S
C2055 C2054 1.397 . S
C2055 C2056 1.438 . S
C2055 C2060 1.429 . S
C2056 C2055 1.438 . S
C2056 C2057 1.428 . S
C2056 C2069 1.394 . S
C2057 H2049 0.949 . S
C2057 C2056 1.428 . S
C2057 C2058 1.345 . S
C2058 H2050 0.950 . S
C2058 C2057 1.345 . S
C2058 C2059 1.424 . S
C2059 H2051 0.951 . S
C2059 C2058 1.424 . S
C2059 C2060 1.347 . S
C2060 H2052 0.951 . S
C2060 C2055 1.429 . S
C2060 C2059 1.347 . S
H2061 C2062 0.951 . S
C2062 H2061 0.951 . S
C2062 C2068 1.265 . S
H2063 C2068 0.950 . S
H2064 C2072 0.949 . S
H2065 C2073 0.950 . S
H2066 C2074 0.951 . S
H2067 C2075 0.951 . S
C2068 C2062 1.265 . S
C2068 H2063 0.950 . S
C2068 C2069 1.478 . S
C2069 C2056 1.394 . S
C2069 C2068 1.478 . S
C2069 C2070 1.397 . S
C2070 C2069 1.397 . S
C2070 C2071 1.438 . S
C2070 C2075 1.429 . S
C2071 C2054 1.394 . S
C2071 C2070 1.438 . S
C2071 C2072 1.428 . S
C2072 H2064 0.949 . S
C2072 C2071 1.428 . S
C2072 C2073 1.345 . S
C2073 H2065 0.950 . S
C2073 C2072 1.345 . S
C2073 C2074 1.424 . S
C2074 H2066 0.951 . S
C2074 C2073 1.424 . S
C2074 C2075 1.347 . S
C2075 H2067 0.951 . S
C2075 C2070 1.429 . S
C2075 C2074 1.347 . S
H2076 C2077 0.951 . S
C2077 H2076 0.951 . S
C2077 C2083 1.265 . S
H2078 C2083 0.950 . S
H2079 C2087 0.949 . S
H2080 C2088 0.950 . S
H2081 C2089 0.951 . S
H2082 C2090 0.951 . S
C2083 C2077 1.265 . S
C2083 H2078 0.950 . S
C2083 C2084 1.478 . S
C2084 C2083 1.478 . S
C2084 C2085 1.397 . S
C2084 C2101 1.394 . S
C2085 C2084 1.397 . S
C2085 C2086 1.438 . S
C2085 C2090 1.429 . S
C2086 C2085 1.438 . S
C2086 C2087 1.428 . S
C2086 C2099 1.394 . S
C2087 H2079 0.949 . S
C2087 C2086 1.428 . S
C2087 C2088 1.345 . S
C2088 H2080 0.950 . S
C2088 C2087 1.345 . S
C2088 C2089 1.424 . S
C2089 H2081 0.951 . S
C2089 C2088 1.424 . S
C2089 C2090 1.347 . S
C2090 H2082 0.951 . S
C2090 C2085 1.429 . S
C2090 C2089 1.347 . S
H2091 C2092 0.951 . S
C2092 H2091 0.951 . S
C2092 C2098 1.265 . S
H2093 C2098 0.950 . S
H2094 C2102 0.949 . S
H2095 C2103 0.950 . S
H2096 C2104 0.951 . S
H2097 C2105 0.951 . S
C2098 C2092 1.265 . S
C2098 H2093 0.950 . S
C2098 C2099 1.478 . S
C2099 C2086 1.394 . S
C2099 C2098 1.478 . S
C2099 C2100 1.397 . S
C2100 C2099 1.397 . S
C2100 C2101 1.438 . S
C2100 C2105 1.429 . S
C2101 C2084 1.394 . S
C2101 C2100 1.438 . S
C2101 C2102 1.428 . S
C2102 H2094 0.949 . S
C2102 C2101 1.428 . S
C2102 C2103 1.345 . S
C2103 H2095 0.950 . S
C2103 C2102 1.345 . S
C2103 C2104 1.424 . S
C2104 H2096 0.951 . S
C2104 C2103 1.424 . S
C2104 C2105 1.347 . S
C2105 H2097 0.951 . S
C2105 C2100 1.429 . S
C2105 C2104 1.347 . S
H2106 C2107 0.951 . S
C2107 H2106 0.951 . S
C2107 C2113 1.265 . S
H2108 C2113 0.950 . S
H2109 C2117 0.949 . S
H2110 C2118 0.950 . S
H2111 C2119 0.951 . S
H2112 C2120 0.951 . S
C2113 C2107 1.265 . S
C2113 H2108 0.950 . S
C2113 C2114 1.478 . S
C2114 C2113 1.478 . S
C2114 C2115 1.397 . S
C2114 C2131 1.394 . S
C2115 C2114 1.397 . S
C2115 C2116 1.438 . S
C2115 C2120 1.429 . S
C2116 C2115 1.438 . S
C2116 C2117 1.428 . S
C2116 C2129 1.394 . S
C2117 H2109 0.949 . S
C2117 C2116 1.428 . S
C2117 C2118 1.345 . S
C2118 H2110 0.950 . S
C2118 C2117 1.345 . S
C2118 C2119 1.424 . S
C2119 H2111 0.951 . S
C2119 C2118 1.424 . S
C2119 C2120 1.347 . S
C2120 H2112 0.951 . S
C2120 C2115 1.429 . S
C2120 C2119 1.347 . S
H2121 C2122 0.951 . S
C2122 H2121 0.951 . S
C2122 C2128 1.265 1_455 S
H2123 C2128 0.950 . S
H2124 C2132 0.949 . S
H2125 C2133 0.950 . S
H2126 C2134 0.951 . S
H2127 C2135 0.951 . S
C2128 C2122 1.265 1_655 S
C2128 H2123 0.950 . S
C2128 C2129 1.478 1_655 S
C2129 C2116 1.394 . S
C2129 C2128 1.478 1_455 S
C2129 C2130 1.397 1_455 S
C2130 C2129 1.397 1_655 S
C2130 C2131 1.438 1_655 S
C2130 C2135 1.429 . S
C2131 C2114 1.394 . S
C2131 C2130 1.438 1_455 S
C2131 C2132 1.428 1_455 S
C2132 H2124 0.949 . S
C2132 C2131 1.428 1_655 S
C2132 C2133 1.345 . S
C2133 H2125 0.950 . S
C2133 C2132 1.345 . S
C2133 C2134 1.424 . S
C2134 H2126 0.951 . S
C2134 C2133 1.424 . S
C2134 C2135 1.347 . S
C2135 H2127 0.951 . S
C2135 C2130 1.429 . S
C2135 C2134 1.347 . S
H2136 C2137 0.951 . S
C2137 H2136 0.951 . S
C2137 C2143 1.265 . S
H2138 C2143 0.950 . S
H2139 C2147 0.949 . S
H2140 C2148 0.950 . S
H2141 C2149 0.951 . S
H2142 C2150 0.951 . S
C2143 C2137 1.265 . S
C2143 H2138 0.950 . S
C2143 C2144 1.478 . S
C2144 C2143 1.478 . S
C2144 C2145 1.397 . S
C2144 C2161 1.394 . S
C2145 C2144 1.397 . S
C2145 C2146 1.438 . S
C2145 C2150 1.429 . S
C2146 C2145 1.438 . S
C2146 C2147 1.428 . S
C2146 C2159 1.394 . S
C2147 H2139 0.949 . S
C2147 C2146 1.428 . S
C2147 C2148 1.345 . S
C2148 H2140 0.950 . S
C2148 C2147 1.345 . S
C2148 C2149 1.424 . S
C2149 H2141 0.951 . S
C2149 C2148 1.424 . S
C2149 C2150 1.347 . S
C2150 H2142 0.951 . S
C2150 C2145 1.429 . S
C2150 C2149 1.347 . S
H2151 C2152 0.951 . S
C2152 H2151 0.951 . S
C2152 C2158 1.265 . S
H2153 C2158 0.950 . S
H2154 C2162 0.949 . S
H2155 C2163 0.950 . S
H2156 C2164 0.951 . S
H2157 C2165 0.951 . S
C2158 C2152 1.265 . S
C2158 H2153 0.950 . S
C2158 C2159 1.478 . S
C2159 C2146 1.394 . S
C2159 C2158 1.478 . S
C2159 C2160 1.397 . S
C2160 C2159 1.397 . S
C2160 C2161 1.438 . S
C2160 C2165 1.429 . S
C2161 C2144 1.394 . S
C2161 C2160 1.438 . S
C2161 C2162 1.428 . S
C2162 H2154 0.949 . S
C2162 C2161 1.428 . S
C2162 C2163 1.345 . S
C2163 H2155 0.950 . S
C2163 C2162 1.345 . S
C2163 C2164 1.424 . S
C2164 H2156 0.951 . S
C2164 C2163 1.424 . S
C2164 C2165 1.347 . S
C2165 H2157 0.951 . S
C2165 C2160 1.429 . S
C2165 C2164 1.347 . S
H2166 C2167 0.951 . S
C2167 H2166 0.951 . S
C2167 C2173 1.265 . S
H2168 C2173 0.950 . S
H2169 C2177 0.949 . S
H2170 C2178 0.950 . S
H2171 C2179 0.951 . S
H2172 C2180 0.951 . S
C2173 C2167 1.265 . S
C2173 H2168 0.950 . S
C2173 C2174 1.478 . S
C2174 C2173 1.478 . S
C2174 C2175 1.397 1_565 S
C2174 C2191 1.394 . S
C2175 C2174 1.397 1_545 S
C2175 C2176 1.438 . S
C2175 C2180 1.429 . S
C2176 C2175 1.438 . S
C2176 C2177 1.428 . S
C2176 C2189 1.394 1_545 S
C2177 H2169 0.949 . S
C2177 C2176 1.428 . S
C2177 C2178 1.345 . S
C2178 H2170 0.950 . S
C2178 C2177 1.345 . S
C2178 C2179 1.424 . S
C2179 H2171 0.951 . S
C2179 C2178 1.424 . S
C2179 C2180 1.347 . S
C2180 H2172 0.951 . S
C2180 C2175 1.429 . S
C2180 C2179 1.347 . S
H2181 C2182 0.951 . S
C2182 H2181 0.951 . S
C2182 C2188 1.265 . S
H2183 C2188 0.950 . S
H2184 C2192 0.949 . S
H2185 C2193 0.950 . S
H2186 C2194 0.951 . S
H2187 C2195 0.951 . S
C2188 C2182 1.265 . S
C2188 H2183 0.950 . S
C2188 C2189 1.478 . S
C2189 C2176 1.394 1_565 S
C2189 C2188 1.478 . S
C2189 C2190 1.397 . S
C2190 C2189 1.397 . S
C2190 C2191 1.438 . S
C2190 C2195 1.429 . S
C2191 C2174 1.394 . S
C2191 C2190 1.438 . S
C2191 C2192 1.428 . S
C2192 H2184 0.949 . S
C2192 C2191 1.428 . S
C2192 C2193 1.345 . S
C2193 H2185 0.950 . S
C2193 C2192 1.345 . S
C2193 C2194 1.424 . S
C2194 H2186 0.951 . S
C2194 C2193 1.424 . S
C2194 C2195 1.347 . S
C2195 H2187 0.951 . S
C2195 C2190 1.429 . S
C2195 C2194 1.347 . S
H2196 C2197 0.951 . S
C2197 H2196 0.951 . S
C2197 C2203 1.265 . S
H2198 C2203 0.950 . S
H2199 C2207 0.949 . S
H2200 C2208 0.950 . S
H2201 C2209 0.951 . S
H2202 C2210 0.951 . S
C2203 C2197 1.265 . S
C2203 H2198 0.950 . S
C2203 C2204 1.478 . S
C2204 C2203 1.478 . S
C2204 C2205 1.397 1_565 S
C2204 C2221 1.394 . S
C2205 C2204 1.397 1_545 S
C2205 C2206 1.438 . S
C2205 C2210 1.429 . S
C2206 C2205 1.438 . S
C2206 C2207 1.428 . S
C2206 C2219 1.394 1_545 S
C2207 H2199 0.949 . S
C2207 C2206 1.428 . S
C2207 C2208 1.345 . S
C2208 H2200 0.950 . S
C2208 C2207 1.345 . S
C2208 C2209 1.424 . S
C2209 H2201 0.951 . S
C2209 C2208 1.424 . S
C2209 C2210 1.347 . S
C2210 H2202 0.951 . S
C2210 C2205 1.429 . S
C2210 C2209 1.347 . S
H2211 C2212 0.951 . S
C2212 H2211 0.951 . S
C2212 C2218 1.236 . S
H2213 C2218 0.942 1_545 S
H2214 C2222 0.949 . S
H2215 C2223 0.950 . S
H2216 C2224 0.951 . S
H2217 C2225 0.951 . S
C2218 C2212 1.236 . S
C2218 H2213 0.942 1_565 S
C2218 C2219 1.519 . S
C2219 C2206 1.394 1_565 S
C2219 C2218 1.519 . S
C2219 C2220 1.397 . S
C2220 C2219 1.397 . S
C2220 C2221 1.438 . S
C2220 C2225 1.429 . S
C2221 C2204 1.394 . S
C2221 C2220 1.438 . S
C2221 C2222 1.428 . S
C2222 H2214 0.949 . S
C2222 C2221 1.428 . S
C2222 C2223 1.345 . S
C2223 H2215 0.950 . S
C2223 C2222 1.345 . S
C2223 C2224 1.424 . S
C2224 H2216 0.951 . S
C2224 C2223 1.424 . S
C2224 C2225 1.347 . S
C2225 H2217 0.951 . S
C2225 C2220 1.429 . S
C2225 C2224 1.347 . S
H2226 C2227 0.951 . S
C2227 H2226 0.951 . S
C2227 C2233 1.265 . S
H2228 C2233 0.950 . S
H2229 C2237 0.949 . S
H2230 C2238 0.950 . S
H2231 C2239 0.951 . S
H2232 C2240 0.951 . S
C2233 C2227 1.265 . S
C2233 H2228 0.950 . S
C2233 C2234 1.478 . S
C2234 C2233 1.478 . S
C2234 C2235 1.397 . S
C2234 C2251 1.394 . S
C2235 C2234 1.397 . S
C2235 C2236 1.438 . S
C2235 C2240 1.429 . S
C2236 C2235 1.438 . S
C2236 C2237 1.428 . S
C2236 C2249 1.394 . S
C2237 H2229 0.949 . S
C2237 C2236 1.428 . S
C2237 C2238 1.345 . S
C2238 H2230 0.950 . S
C2238 C2237 1.345 . S
C2238 C2239 1.424 . S
C2239 H2231 0.951 . S
C2239 C2238 1.424 . S
C2239 C2240 1.347 . S
C2240 H2232 0.951 . S
C2240 C2235 1.429 . S
C2240 C2239 1.347 . S
H2241 C2242 0.951 . S
C2242 H2241 0.951 . S
C2242 C2248 1.265 1_455 S
H2243 C2248 0.950 . S
H2244 C2252 0.949 . S
H2245 C2253 0.950 . S
H2246 C2254 0.951 . S
H2247 C2255 0.951 . S
C2248 C2242 1.265 1_655 S
C2248 H2243 0.950 . S
C2248 C2249 1.478 1_655 S
C2249 C2236 1.394 . S
C2249 C2248 1.478 1_455 S
C2249 C2250 1.397 . S
C2250 C2249 1.397 . S
C2250 C2251 1.438 . S
C2250 C2255 1.429 1_455 S
C2251 C2234 1.394 . S
C2251 C2250 1.438 . S
C2251 C2252 1.428 . S
C2252 H2244 0.949 . S
C2252 C2251 1.428 . S
C2252 C2253 1.345 . S
C2253 H2245 0.950 . S
C2253 C2252 1.345 . S
C2253 C2254 1.424 1_455 S
C2254 H2246 0.951 . S
C2254 C2253 1.424 1_655 S
C2254 C2255 1.347 . S
C2255 H2247 0.951 . S
C2255 C2250 1.429 1_655 S
C2255 C2254 1.347 . S
H2256 C2257 0.951 . S
C2257 H2256 0.951 . S
C2257 C2263 1.265 . S
H2258 C2263 0.950 . S
H2259 C2267 0.949 . S
H2260 C2268 0.950 . S
H2261 C2269 0.951 . S
H2262 C2270 0.951 . S
C2263 C2257 1.265 . S
C2263 H2258 0.950 . S
C2263 C2264 1.478 . S
C2264 C2263 1.478 . S
C2264 C2265 1.397 . S
C2264 C2281 1.394 . S
C2265 C2264 1.397 . S
C2265 C2266 1.438 . S
C2265 C2270 1.429 . S
C2266 C2265 1.438 . S
C2266 C2267 1.428 . S
C2266 C2279 1.394 . S
C2267 H2259 0.949 . S
C2267 C2266 1.428 . S
C2267 C2268 1.345 . S
C2268 H2260 0.950 . S
C2268 C2267 1.345 . S
C2268 C2269 1.424 . S
C2269 H2261 0.951 . S
C2269 C2268 1.424 . S
C2269 C2270 1.347 . S
C2270 H2262 0.951 . S
C2270 C2265 1.429 . S
C2270 C2269 1.347 . S
H2271 C2272 0.951 . S
C2272 H2271 0.951 . S
C2272 C2278 1.265 . S
H2273 C2278 0.950 . S
H2274 C2282 0.949 . S
H2275 C2283 0.950 . S
H2276 C2284 0.951 . S
H2277 C2285 0.951 . S
C2278 C2272 1.265 . S
C2278 H2273 0.950 . S
C2278 C2279 1.478 . S
C2279 C2266 1.394 . S
C2279 C2278 1.478 . S
C2279 C2280 1.397 . S
C2280 C2279 1.397 . S
C2280 C2281 1.438 . S
C2280 C2285 1.429 . S
C2281 C2264 1.394 . S
C2281 C2280 1.438 . S
C2281 C2282 1.428 . S
C2282 H2274 0.949 . S
C2282 C2281 1.428 . S
C2282 C2283 1.345 . S
C2283 H2275 0.950 . S
C2283 C2282 1.345 . S
C2283 C2284 1.424 . S
C2284 H2276 0.951 . S
C2284 C2283 1.424 . S
C2284 C2285 1.347 . S
C2285 H2277 0.951 . S
C2285 C2280 1.429 . S
C2285 C2284 1.347 . S
H2286 C2287 0.951 . S
C2287 H2286 0.951 . S
C2287 C2293 1.265 . S
H2288 C2293 0.950 . S
H2289 C2297 0.949 . S
H2290 C2298 0.950 . S
H2291 C2299 0.951 . S
H2292 C2300 0.951 . S
C2293 C2287 1.265 . S
C2293 H2288 0.950 . S
C2293 C2294 1.478 . S
C2294 C2293 1.478 . S
C2294 C2295 1.397 . S
C2294 C2311 1.394 . S
C2295 C2294 1.397 . S
C2295 C2296 1.438 . S
C2295 C2300 1.429 . S
C2296 C2295 1.438 . S
C2296 C2297 1.428 . S
C2296 C2309 1.394 . S
C2297 H2289 0.949 . S
C2297 C2296 1.428 . S
C2297 C2298 1.345 . S
C2298 H2290 0.950 . S
C2298 C2297 1.345 . S
C2298 C2299 1.424 . S
C2299 H2291 0.951 . S
C2299 C2298 1.424 . S
C2299 C2300 1.347 . S
C2300 H2292 0.951 . S
C2300 C2295 1.429 . S
C2300 C2299 1.347 . S
H2301 C2302 0.951 . S
C2302 H2301 0.951 . S
C2302 C2308 1.265 . S
H2303 C2308 0.950 . S
H2304 C2312 0.949 . S
H2305 C2313 0.950 . S
H2306 C2314 0.951 . S
H2307 C2315 0.951 . S
C2308 C2302 1.265 . S
C2308 H2303 0.950 . S
C2308 C2309 1.478 . S
C2309 C2296 1.394 . S
C2309 C2308 1.478 . S
C2309 C2310 1.397 . S
C2310 C2309 1.397 . S
C2310 C2311 1.438 . S
C2310 C2315 1.429 . S
C2311 C2294 1.394 . S
C2311 C2310 1.438 . S
C2311 C2312 1.428 . S
C2312 H2304 0.949 . S
C2312 C2311 1.428 . S
C2312 C2313 1.345 . S
C2313 H2305 0.950 . S
C2313 C2312 1.345 . S
C2313 C2314 1.424 . S
C2314 H2306 0.951 . S
C2314 C2313 1.424 . S
C2314 C2315 1.347 . S
C2315 H2307 0.951 . S
C2315 C2310 1.429 . S
C2315 C2314 1.347 . S
H2316 C2317 0.951 . S
C2317 H2316 0.951 . S
C2317 C2323 1.265 . S
H2318 C2323 0.950 . S
H2319 C2327 0.949 . S
H2320 C2328 0.950 . S
H2321 C2329 0.951 . S
H2322 C2330 0.951 . S
C2323 C2317 1.265 . S
C2323 H2318 0.950 . S
C2323 C2324 1.478 . S
C2324 C2323 1.478 . S
C2324 C2325 1.397 . S
C2324 C2341 1.394 . S
C2325 C2324 1.397 . S
C2325 C2326 1.438 . S
C2325 C2330 1.429 . S
C2326 C2325 1.438 . S
C2326 C2327 1.428 . S
C2326 C2339 1.394 . S
C2327 H2319 0.949 . S
C2327 C2326 1.428 . S
C2327 C2328 1.345 . S
C2328 H2320 0.950 . S
C2328 C2327 1.345 . S
C2328 C2329 1.424 . S
C2329 H2321 0.951 . S
C2329 C2328 1.424 . S
C2329 C2330 1.347 . S
C2330 H2322 0.951 . S
C2330 C2325 1.429 . S
C2330 C2329 1.347 . S
H2331 C2332 0.951 . S
C2332 H2331 0.951 . S
C2332 C2338 1.265 . S
H2333 C2338 0.950 . S
H2334 C2342 0.949 . S
H2335 C2343 0.950 . S
H2336 C2344 0.951 . S
H2337 C2345 0.951 . S
C2338 C2332 1.265 . S
C2338 H2333 0.950 . S
C2338 C2339 1.478 . S
C2339 C2326 1.394 . S
C2339 C2338 1.478 . S
C2339 C2340 1.397 . S
C2340 C2339 1.397 . S
C2340 C2341 1.438 . S
C2340 C2345 1.429 . S
C2341 C2324 1.394 . S
C2341 C2340 1.438 . S
C2341 C2342 1.428 . S
C2342 H2334 0.949 . S
C2342 C2341 1.428 . S
C2342 C2343 1.345 . S
C2343 H2335 0.950 . S
C2343 C2342 1.345 . S
C2343 C2344 1.424 . S
C2344 H2336 0.951 . S
C2344 C2343 1.424 . S
C2344 C2345 1.347 . S
C2345 H2337 0.951 . S
C2345 C2340 1.429 . S
C2345 C2344 1.347 . S
H2346 C2347 0.951 . S
C2347 H2346 0.951 . S
C2347 C2353 1.265 . S
H2348 C2353 0.950 . S
H2349 C2357 0.949 . S
H2350 C2358 0.950 . S
H2351 C2359 0.951 . S
H2352 C2360 0.951 . S
C2353 C2347 1.265 . S
C2353 H2348 0.950 . S
C2353 C2354 1.478 . S
C2354 C2353 1.478 . S
C2354 C2355 1.397 . S
C2354 C2371 1.394 . S
C2355 C2354 1.397 . S
C2355 C2356 1.438 . S
C2355 C2360 1.429 . S
C2356 C2355 1.438 . S
C2356 C2357 1.428 . S
C2356 C2369 1.394 . S
C2357 H2349 0.949 . S
C2357 C2356 1.428 . S
C2357 C2358 1.345 . S
C2358 H2350 0.950 . S
C2358 C2357 1.345 . S
C2358 C2359 1.424 . S
C2359 H2351 0.951 . S
C2359 C2358 1.424 . S
C2359 C2360 1.347 . S
C2360 H2352 0.951 . S
C2360 C2355 1.429 . S
C2360 C2359 1.347 . S
H2361 C2362 0.951 . S
C2362 H2361 0.951 . S
C2362 C2368 1.265 . S
H2363 C2368 0.950 . S
H2364 C2372 0.949 . S
H2365 C2373 0.950 . S
H2366 C2374 0.951 . S
H2367 C2375 0.951 . S
C2368 C2362 1.265 . S
C2368 H2363 0.950 . S
C2368 C2369 1.478 . S
C2369 C2356 1.394 . S
C2369 C2368 1.478 . S
C2369 C2370 1.397 . S
C2370 C2369 1.397 . S
C2370 C2371 1.438 . S
C2370 C2375 1.429 . S
C2371 C2354 1.394 . S
C2371 C2370 1.438 . S
C2371 C2372 1.428 . S
C2372 H2364 0.949 . S
C2372 C2371 1.428 . S
C2372 C2373 1.345 . S
C2373 H2365 0.950 . S
C2373 C2372 1.345 . S
C2373 C2374 1.424 . S
C2374 H2366 0.951 . S
C2374 C2373 1.424 . S
C2374 C2375 1.347 . S
C2375 H2367 0.951 . S
C2375 C2370 1.429 . S
C2375 C2374 1.347 . S
H2376 C2377 0.951 . S
C2377 H2376 0.951 . S
C2377 C2383 1.265 . S
H2378 C2383 0.950 . S
H2379 C2387 0.949 . S
H2380 C2388 0.950 . S
H2381 C2389 0.951 . S
H2382 C2390 0.951 . S
C2383 C2377 1.265 . S
C2383 H2378 0.950 . S
C2383 C2384 1.478 . S
C2384 C2383 1.478 . S
C2384 C2385 1.397 . S
C2384 C2401 1.394 1_545 S
C2385 C2384 1.397 . S
C2385 C2386 1.438 . S
C2385 C2390 1.429 . S
C2386 C2385 1.438 . S
C2386 C2387 1.428 . S
C2386 C2399 1.394 . S
C2387 H2379 0.949 . S
C2387 C2386 1.428 . S
C2387 C2388 1.345 . S
C2388 H2380 0.950 . S
C2388 C2387 1.345 . S
C2388 C2389 1.424 . S
C2389 H2381 0.951 . S
C2389 C2388 1.424 . S
C2389 C2390 1.347 . S
C2390 H2382 0.951 . S
C2390 C2385 1.429 . S
C2390 C2389 1.347 . S
H2391 C2392 0.951 . S
C2392 H2391 0.951 . S
C2392 C2398 1.265 . S
H2393 C2398 0.950 . S
H2394 C2402 0.949 . S
H2395 C2403 0.950 . S
H2396 C2404 0.951 . S
H2397 C2405 0.951 . S
C2398 C2392 1.265 . S
C2398 H2393 0.950 . S
C2398 C2399 1.478 . S
C2399 C2386 1.394 . S
C2399 C2398 1.478 . S
C2399 C2400 1.397 1_545 S
C2400 C2399 1.397 1_565 S
C2400 C2401 1.438 . S
C2400 C2405 1.429 . S
C2401 C2384 1.394 1_565 S
C2401 C2400 1.438 . S
C2401 C2402 1.428 . S
C2402 H2394 0.949 . S
C2402 C2401 1.428 . S
C2402 C2403 1.345 . S
C2403 H2395 0.950 . S
C2403 C2402 1.345 . S
C2403 C2404 1.424 . S
C2404 H2396 0.951 . S
C2404 C2403 1.424 . S
C2404 C2405 1.347 . S
C2405 H2397 0.951 . S
C2405 C2400 1.429 . S
C2405 C2404 1.347 . S
H2406 C2407 1.002 . S
C2407 H2406 1.002 . S
C2407 C2413 1.265 . S
H2408 C2413 0.950 . S
H2409 C2417 0.949 . S
H2410 C2418 0.950 . S
H2411 C2419 0.951 . S
H2412 C2420 0.951 . S
C2413 C2407 1.265 . S
C2413 H2408 0.950 . S
C2413 C2414 1.478 . S
C2414 C2413 1.478 . S
C2414 C2415 1.397 . S
C2414 C2431 1.394 . S
C2415 C2414 1.397 . S
C2415 C2416 1.438 . S
C2415 C2420 1.429 . S
C2416 C2415 1.438 . S
C2416 C2417 1.428 . S
C2416 C2429 1.394 . S
C2417 H2409 0.949 . S
C2417 C2416 1.428 . S
C2417 C2418 1.345 . S
C2418 H2410 0.950 . S
C2418 C2417 1.345 . S
C2418 C2419 1.424 . S
C2419 H2411 0.951 . S
C2419 C2418 1.424 . S
C2419 C2420 1.347 . S
C2420 H2412 0.951 . S
C2420 C2415 1.429 . S
C2420 C2419 1.347 . S
H2421 C2422 0.951 . S
C2422 H2421 0.951 . S
C2422 C2428 1.265 1_655 S
H2423 C2428 0.950 . S
H2424 C2432 0.949 . S
H2425 C2433 0.950 . S
H2426 C2434 0.951 . S
H2427 C2435 0.951 . S
C2428 C2422 1.265 1_455 S
C2428 H2423 0.950 . S
C2428 C2429 1.478 1_455 S
C2429 C2416 1.394 . S
C2429 C2428 1.478 1_655 S
C2429 C2430 1.397 . S
C2430 C2429 1.397 . S
C2430 C2431 1.438 . S
C2430 C2435 1.429 1_655 S
C2431 C2414 1.394 . S
C2431 C2430 1.438 . S
C2431 C2432 1.428 . S
C2432 H2424 0.949 . S
C2432 C2431 1.428 . S
C2432 C2433 1.345 1_655 S
C2433 H2425 0.950 . S
C2433 C2432 1.345 1_455 S
C2433 C2434 1.424 . S
C2434 H2426 0.951 . S
C2434 C2433 1.424 . S
C2434 C2435 1.347 . S
C2435 H2427 0.951 . S
C2435 C2430 1.429 1_455 S
C2435 C2434 1.347 . S
H2436 C2437 0.951 . S
C2437 H2436 0.951 . S
C2437 C2443 1.265 . S
H2438 C2443 0.950 . S
H2439 C2447 0.949 . S
H2440 C2448 0.950 . S
H2441 C2449 0.951 . S
H2442 C2450 0.951 . S
C2443 C2437 1.265 . S
C2443 H2438 0.950 . S
C2443 C2444 1.478 . S
C2444 C2443 1.478 . S
C2444 C2445 1.397 . S
C2444 C2461 1.394 . S
C2445 C2444 1.397 . S
C2445 C2446 1.438 . S
C2445 C2450 1.429 . S
C2446 C2445 1.438 . S
C2446 C2447 1.428 . S
C2446 C2459 1.394 . S
C2447 H2439 0.949 . S
C2447 C2446 1.428 . S
C2447 C2448 1.345 . S
C2448 H2440 0.950 . S
C2448 C2447 1.345 . S
C2448 C2449 1.424 . S
C2449 H2441 0.951 . S
C2449 C2448 1.424 . S
C2449 C2450 1.347 . S
C2450 H2442 0.951 . S
C2450 C2445 1.429 . S
C2450 C2449 1.347 . S
H2451 C2452 0.951 . S
C2452 H2451 0.951 . S
C2452 C2458 1.265 . S
H2453 C2458 0.950 . S
H2454 C2462 0.949 . S
H2455 C2463 0.950 . S
H2456 C2464 0.951 . S
H2457 C2465 0.951 . S
C2458 C2452 1.265 . S
C2458 H2453 0.950 . S
C2458 C2459 1.478 . S
C2459 C2446 1.394 . S
C2459 C2458 1.478 . S
C2459 C2460 1.397 . S
C2460 C2459 1.397 . S
C2460 C2461 1.438 . S
C2460 C2465 1.429 . S
C2461 C2444 1.394 . S
C2461 C2460 1.438 . S
C2461 C2462 1.428 . S
C2462 H2454 0.949 . S
C2462 C2461 1.428 . S
C2462 C2463 1.345 . S
C2463 H2455 0.950 . S
C2463 C2462 1.345 . S
C2463 C2464 1.424 . S
C2464 H2456 0.951 . S
C2464 C2463 1.424 . S
C2464 C2465 1.347 . S
C2465 H2457 0.951 . S
C2465 C2460 1.429 . S
C2465 C2464 1.347 . S
H2466 C2467 0.951 . S
C2467 H2466 0.951 . S
C2467 C2473 1.265 . S
H2468 C2473 0.950 . S
H2469 C2477 0.949 . S
H2470 C2478 0.950 . S
H2471 C2479 0.951 . S
H2472 C2480 0.951 . S
C2473 C2467 1.265 . S
C2473 H2468 0.950 . S
C2473 C2474 1.478 . S
C2474 C2473 1.478 . S
C2474 C2475 1.397 . S
C2474 C2491 1.394 . S
C2475 C2474 1.397 . S
C2475 C2476 1.438 . S
C2475 C2480 1.429 . S
C2476 C2475 1.438 . S
C2476 C2477 1.428 . S
C2476 C2489 1.394 . S
C2477 H2469 0.949 . S
C2477 C2476 1.428 . S
C2477 C2478 1.345 . S
C2478 H2470 0.950 . S
C2478 C2477 1.345 . S
C2478 C2479 1.424 . S
C2479 H2471 0.951 . S
C2479 C2478 1.424 . S
C2479 C2480 1.347 . S
C2480 H2472 0.951 . S
C2480 C2475 1.429 . S
C2480 C2479 1.347 . S
H2481 C2482 0.951 . S
C2482 H2481 0.951 . S
C2482 C2488 1.265 . S
H2483 C2488 0.950 . S
H2484 C2492 0.949 . S
H2485 C2493 0.950 . S
H2486 C2494 0.951 . S
H2487 C2495 0.951 . S
C2488 C2482 1.265 . S
C2488 H2483 0.950 . S
C2488 C2489 1.478 . S
C2489 C2476 1.394 . S
C2489 C2488 1.478 . S
C2489 C2490 1.397 . S
C2490 C2489 1.397 . S
C2490 C2491 1.438 . S
C2490 C2495 1.429 . S
C2491 C2474 1.394 . S
C2491 C2490 1.438 . S
C2491 C2492 1.428 . S
C2492 H2484 0.949 . S
C2492 C2491 1.428 . S
C2492 C2493 1.345 . S
C2493 H2485 0.950 . S
C2493 C2492 1.345 . S
C2493 C2494 1.424 . S
C2494 H2486 0.951 . S
C2494 C2493 1.424 . S
C2494 C2495 1.347 . S
C2495 H2487 0.951 . S
C2495 C2490 1.429 . S
C2495 C2494 1.347 . S
H2496 C2497 0.951 . S
C2497 H2496 0.951 . S
C2497 C2503 1.265 . S
H2498 C2503 0.950 . S
H2499 C2507 0.949 . S
H2500 C2508 0.950 . S
H2501 C2509 0.951 . S
H2502 C2510 0.951 . S
C2503 C2497 1.265 . S
C2503 H2498 0.950 . S
C2503 C2504 1.478 . S
C2504 C2503 1.478 . S
C2504 C2505 1.397 . S
C2504 C2521 1.394 . S
C2505 C2504 1.397 . S
C2505 C2506 1.438 . S
C2505 C2510 1.429 . S
C2506 C2505 1.438 . S
C2506 C2507 1.428 . S
C2506 C2519 1.394 . S
C2507 H2499 0.949 . S
C2507 C2506 1.428 . S
C2507 C2508 1.345 . S
C2508 H2500 0.950 . S
C2508 C2507 1.345 . S
C2508 C2509 1.424 . S
C2509 H2501 0.951 . S
C2509 C2508 1.424 . S
C2509 C2510 1.347 . S
C2510 H2502 0.951 . S
C2510 C2505 1.429 . S
C2510 C2509 1.347 . S
H2511 C2512 0.951 . S
C2512 H2511 0.951 . S
C2512 C2518 1.265 . S
H2513 C2518 0.950 . S
H2514 C2522 0.949 . S
H2515 C2523 0.950 . S
H2516 C2524 0.951 . S
H2517 C2525 0.951 . S
C2518 C2512 1.265 . S
C2518 H2513 0.950 . S
C2518 C2519 1.478 . S
C2519 C2506 1.394 . S
C2519 C2518 1.478 . S
C2519 C2520 1.397 . S
C2520 C2519 1.397 . S
C2520 C2521 1.438 . S
C2520 C2525 1.429 . S
C2521 C2504 1.394 . S
C2521 C2520 1.438 . S
C2521 C2522 1.428 . S
C2522 H2514 0.949 . S
C2522 C2521 1.428 . S
C2522 C2523 1.345 . S
C2523 H2515 0.950 . S
C2523 C2522 1.345 . S
C2523 C2524 1.424 . S
C2524 H2516 0.951 . S
C2524 C2523 1.424 . S
C2524 C2525 1.347 . S
C2525 H2517 0.951 . S
C2525 C2520 1.429 . S
C2525 C2524 1.347 . S
H2526 C2527 0.951 . S
C2527 H2526 0.951 . S
C2527 C2533 1.265 . S
H2528 C2533 0.950 . S
H2529 C2537 0.949 . S
H2530 C2538 0.950 . S
H2531 C2539 0.951 . S
H2532 C2540 0.951 . S
C2533 C2527 1.265 . S
C2533 H2528 0.950 . S
C2533 C2534 1.478 . S
C2534 C2533 1.478 . S
C2534 C2535 1.397 . S
C2534 C2551 1.394 . S
C2535 C2534 1.397 . S
C2535 C2536 1.438 . S
C2535 C2540 1.429 . S
C2536 C2535 1.438 . S
C2536 C2537 1.428 . S
C2536 C2549 1.394 . S
C2537 H2529 0.949 . S
C2537 C2536 1.428 . S
C2537 C2538 1.345 . S
C2538 H2530 0.950 . S
C2538 C2537 1.345 . S
C2538 C2539 1.424 . S
C2539 H2531 0.951 . S
C2539 C2538 1.424 . S
C2539 C2540 1.347 . S
C2540 H2532 0.951 . S
C2540 C2535 1.429 . S
C2540 C2539 1.347 . S
H2541 C2542 0.951 . S
C2542 H2541 0.951 . S
C2542 C2548 1.265 . S
H2543 C2548 0.950 . S
H2544 C2552 0.949 . S
H2545 C2553 0.950 . S
H2546 C2554 0.951 . S
H2547 C2555 0.951 . S
C2548 C2542 1.265 . S
C2548 H2543 0.950 . S
C2548 C2549 1.478 . S
C2549 C2536 1.394 . S
C2549 C2548 1.478 . S
C2549 C2550 1.397 . S
C2550 C2549 1.397 . S
C2550 C2551 1.438 . S
C2550 C2555 1.429 . S
C2551 C2534 1.394 . S
C2551 C2550 1.438 . S
C2551 C2552 1.428 . S
C2552 H2544 0.949 . S
C2552 C2551 1.428 . S
C2552 C2553 1.345 . S
C2553 H2545 0.950 . S
C2553 C2552 1.345 . S
C2553 C2554 1.424 . S
C2554 H2546 0.951 . S
C2554 C2553 1.424 . S
C2554 C2555 1.347 . S
C2555 H2547 0.951 . S
C2555 C2550 1.429 . S
C2555 C2554 1.347 . S
H2556 C2557 0.951 . S
C2557 H2556 0.951 . S
C2557 C2563 1.265 . S
H2558 C2563 0.950 . S
H2559 C2567 0.949 . S
H2560 C2568 0.950 . S
H2561 C2569 0.951 . S
H2562 C2570 0.951 . S
C2563 C2557 1.265 . S
C2563 H2558 0.950 . S
C2563 C2564 1.478 . S
C2564 C2563 1.478 . S
C2564 C2565 1.397 . S
C2564 C2581 1.394 . S
C2565 C2564 1.397 . S
C2565 C2566 1.438 . S
C2565 C2570 1.429 . S
C2566 C2565 1.438 . S
C2566 C2567 1.428 . S
C2566 C2579 1.394 . S
C2567 H2559 0.949 . S
C2567 C2566 1.428 . S
C2567 C2568 1.345 . S
C2568 H2560 0.950 . S
C2568 C2567 1.345 . S
C2568 C2569 1.424 . S
C2569 H2561 0.951 . S
C2569 C2568 1.424 . S
C2569 C2570 1.347 . S
C2570 H2562 0.951 . S
C2570 C2565 1.429 . S
C2570 C2569 1.347 . S
H2571 C2572 0.951 . S
C2572 H2571 0.951 . S
C2572 C2578 1.265 . S
H2573 C2578 0.950 . S
H2574 C2582 0.949 . S
H2575 C2583 0.950 . S
H2576 C2584 0.951 . S
H2577 C2585 0.951 . S
C2578 C2572 1.265 . S
C2578 H2573 0.950 . S
C2578 C2579 1.478 . S
C2579 C2566 1.394 . S
C2579 C2578 1.478 . S
C2579 C2580 1.397 . S
C2580 C2579 1.397 . S
C2580 C2581 1.438 . S
C2580 C2585 1.429 . S
C2581 C2564 1.394 . S
C2581 C2580 1.438 . S
C2581 C2582 1.428 . S
C2582 H2574 0.949 . S
C2582 C2581 1.428 . S
C2582 C2583 1.345 . S
C2583 H2575 0.950 . S
C2583 C2582 1.345 . S
C2583 C2584 1.424 . S
C2584 H2576 0.951 . S
C2584 C2583 1.424 . S
C2584 C2585 1.347 . S
C2585 H2577 0.951 . S
C2585 C2580 1.429 . S
C2585 C2584 1.347 . S
H2586 C2587 0.951 . S
C2587 H2586 0.951 . S
C2587 C2593 1.265 . S
H2588 C2593 0.950 . S
H2589 C2597 0.949 . S
H2590 C2598 0.950 . S
H2591 C2599 0.951 . S
H2592 C2600 0.951 . S
C2593 C2587 1.265 . S
C2593 H2588 0.950 . S
C2593 C2594 1.478 . S
C2594 C2593 1.478 . S
C2594 C2595 1.397 . S
C2594 C2611 1.394 . S
C2595 C2594 1.397 . S
C2595 C2596 1.438 . S
C2595 C2600 1.429 . S
C2596 C2595 1.438 . S
C2596 C2597 1.428 . S
C2596 C2609 1.394 . S
C2597 H2589 0.949 . S
C2597 C2596 1.428 . S
C2597 C2598 1.345 . S
C2598 H2590 0.950 . S
C2598 C2597 1.345 . S
C2598 C2599 1.424 . S
C2599 H2591 0.951 . S
C2599 C2598 1.424 . S
C2599 C2600 1.347 . S
C2600 H2592 0.951 . S
C2600 C2595 1.429 . S
C2600 C2599 1.347 . S
H2601 C2602 0.951 . S
C2602 H2601 0.951 . S
C2602 C2608 1.265 . S
H2603 C2608 0.950 . S
H2604 C2612 0.949 . S
H2605 C2613 0.950 . S
H2606 C2614 0.951 . S
H2607 C2615 0.951 . S
C2608 C2602 1.265 . S
C2608 H2603 0.950 . S
C2608 C2609 1.478 . S
C2609 C2596 1.394 . S
C2609 C2608 1.478 . S
C2609 C2610 1.397 . S
C2610 C2609 1.397 . S
C2610 C2611 1.438 . S
C2610 C2615 1.429 . S
C2611 C2594 1.394 . S
C2611 C2610 1.438 . S
C2611 C2612 1.428 . S
C2612 H2604 0.949 . S
C2612 C2611 1.428 . S
C2612 C2613 1.345 . S
C2613 H2605 0.950 . S
C2613 C2612 1.345 . S
C2613 C2614 1.424 . S
C2614 H2606 0.951 . S
C2614 C2613 1.424 . S
C2614 C2615 1.347 . S
C2615 H2607 0.951 . S
C2615 C2610 1.429 . S
C2615 C2614 1.347 . S
H2616 C2617 0.951 . S
C2617 H2616 0.951 . S
C2617 C2623 1.265 . S
H2618 C2623 0.950 . S
H2619 C2627 0.949 . S
H2620 C2628 0.950 . S
H2621 C2629 0.951 . S
H2622 C2630 0.951 . S
C2623 C2617 1.265 . S
C2623 H2618 0.950 . S
C2623 C2624 1.478 . S
C2624 C2623 1.478 . S
C2624 C2625 1.397 . S
C2624 C2641 1.394 . S
C2625 C2624 1.397 . S
C2625 C2626 1.438 . S
C2625 C2630 1.429 . S
C2626 C2625 1.438 . S
C2626 C2627 1.428 . S
C2626 C2639 1.394 . S
C2627 H2619 0.949 . S
C2627 C2626 1.428 . S
C2627 C2628 1.345 . S
C2628 H2620 0.950 . S
C2628 C2627 1.345 . S
C2628 C2629 1.424 . S
C2629 H2621 0.951 . S
C2629 C2628 1.424 . S
C2629 C2630 1.347 . S
C2630 H2622 0.951 . S
C2630 C2625 1.429 . S
C2630 C2629 1.347 . S
H2631 C2632 0.951 . S
C2632 H2631 0.951 . S
C2632 C2638 1.265 . S
H2633 C2638 0.950 . S
H2634 C2642 0.949 . S
H2635 C2643 0.950 . S
H2636 C2644 0.951 . S
H2637 C2645 0.951 . S
C2638 C2632 1.265 . S
C2638 H2633 0.950 . S
C2638 C2639 1.478 . S
C2639 C2626 1.394 . S
C2639 C2638 1.478 . S
C2639 C2640 1.397 . S
C2640 C2639 1.397 . S
C2640 C2641 1.438 . S
C2640 C2645 1.429 . S
C2641 C2624 1.394 . S
C2641 C2640 1.438 . S
C2641 C2642 1.428 . S
C2642 H2634 0.949 . S
C2642 C2641 1.428 . S
C2642 C2643 1.345 . S
C2643 H2635 0.950 . S
C2643 C2642 1.345 . S
C2643 C2644 1.424 . S
C2644 H2636 0.951 . S
C2644 C2643 1.424 . S
C2644 C2645 1.347 . S
C2645 H2637 0.951 . S
C2645 C2640 1.429 . S
C2645 C2644 1.347 . S
H2646 C2647 0.951 1_455 S
C2647 H2646 0.951 1_655 S
C2647 C2653 1.265 . S
H2648 C2653 0.950 . S
H2649 C2657 0.949 . S
H2650 C2658 0.950 . S
H2651 C2659 0.951 . S
H2652 C2660 0.951 . S
C2653 C2647 1.265 . S
C2653 H2648 0.950 . S
C2653 C2654 1.478 . S
C2654 C2653 1.478 . S
C2654 C2655 1.397 . S
C2654 C2671 1.394 . S
C2655 C2654 1.397 . S
C2655 C2656 1.438 . S
C2655 C2660 1.429 . S
C2656 C2655 1.438 . S
C2656 C2657 1.428 . S
C2656 C2669 1.394 . S
C2657 H2649 0.949 . S
C2657 C2656 1.428 . S
C2657 C2658 1.345 . S
C2658 H2650 0.950 . S
C2658 C2657 1.345 . S
C2658 C2659 1.424 . S
C2659 H2651 0.951 . S
C2659 C2658 1.424 . S
C2659 C2660 1.347 . S
C2660 H2652 0.951 . S
C2660 C2655 1.429 . S
C2660 C2659 1.347 . S
H2661 C2662 0.951 . S
C2662 H2661 0.951 . S
C2662 C2668 1.265 1_655 S
H2663 C2668 0.950 . S
H2664 C2672 0.949 1_655 S
H2665 C2673 0.950 . S
H2666 C2674 0.951 . S
H2667 C2675 0.951 . S
C2668 C2662 1.265 1_455 S
C2668 H2663 0.950 . S
C2668 C2669 1.478 1_455 S
C2669 C2656 1.394 . S
C2669 C2668 1.478 1_655 S
C2669 C2670 1.397 1_655 S
C2670 C2669 1.397 1_455 S
C2670 C2671 1.438 1_455 S
C2670 C2675 1.429 . S
C2671 C2654 1.394 . S
C2671 C2670 1.438 1_655 S
C2671 C2672 1.428 1_655 S
C2672 H2664 0.949 1_455 S
C2672 C2671 1.428 1_455 S
C2672 C2673 1.345 . S
C2673 H2665 0.950 . S
C2673 C2672 1.345 . S
C2673 C2674 1.424 . S
C2674 H2666 0.951 . S
C2674 C2673 1.424 . S
C2674 C2675 1.347 . S
C2675 H2667 0.951 . S
C2675 C2670 1.429 . S
C2675 C2674 1.347 . S
H2676 C2677 0.951 . S
C2677 H2676 0.951 . S
C2677 C2683 1.265 . S
H2678 C2683 0.950 . S
H2679 C2687 0.949 . S
H2680 C2688 0.950 . S
H2681 C2689 0.951 . S
H2682 C2690 0.951 . S
C2683 C2677 1.265 . S
C2683 H2678 0.950 . S
C2683 C2684 1.478 . S
C2684 C2683 1.478 . S
C2684 C2685 1.397 . S
C2684 C2701 1.394 . S
C2685 C2684 1.397 . S
C2685 C2686 1.438 . S
C2685 C2690 1.429 . S
C2686 C2685 1.438 . S
C2686 C2687 1.428 . S
C2686 C2699 1.394 . S
C2687 H2679 0.949 . S
C2687 C2686 1.428 . S
C2687 C2688 1.345 . S
C2688 H2680 0.950 . S
C2688 C2687 1.345 . S
C2688 C2689 1.424 . S
C2689 H2681 0.951 . S
C2689 C2688 1.424 . S
C2689 C2690 1.347 . S
C2690 H2682 0.951 . S
C2690 C2685 1.429 . S
C2690 C2689 1.347 . S
H2691 C2692 0.951 . S
C2692 H2691 0.951 . S
C2692 C2698 1.265 . S
H2693 C2698 0.950 . S
H2694 C2702 0.949 . S
H2695 C2703 0.950 . S
H2696 C2704 0.951 . S
H2697 C2705 0.951 . S
C2698 C2692 1.265 . S
C2698 H2693 0.950 . S
C2698 C2699 1.478 . S
C2699 C2686 1.394 . S
C2699 C2698 1.478 . S
C2699 C2700 1.397 . S
C2700 C2699 1.397 . S
C2700 C2701 1.438 . S
C2700 C2705 1.429 . S
C2701 C2684 1.394 . S
C2701 C2700 1.438 . S
C2701 C2702 1.428 . S
C2702 H2694 0.949 . S
C2702 C2701 1.428 . S
C2702 C2703 1.345 . S
C2703 H2695 0.950 . S
C2703 C2702 1.345 . S
C2703 C2704 1.424 . S
C2704 H2696 0.951 . S
C2704 C2703 1.424 . S
C2704 C2705 1.347 . S
C2705 H2697 0.951 . S
C2705 C2700 1.429 . S
C2705 C2704 1.347 . S
H2706 C2707 0.951 . S
C2707 H2706 0.951 . S
C2707 C2713 1.265 . S
H2708 C2713 0.950 . S
H2709 C2717 0.949 . S
H2710 C2718 0.950 . S
H2711 C2719 0.951 . S
H2712 C2720 0.951 . S
C2713 C2707 1.265 . S
C2713 H2708 0.950 . S
C2713 C2714 1.478 . S
C2714 C2713 1.478 . S
C2714 C2715 1.397 . S
C2714 C2731 1.394 1_545 S
C2715 C2714 1.397 . S
C2715 C2716 1.438 . S
C2715 C2720 1.429 . S
C2716 C2715 1.438 . S
C2716 C2717 1.428 . S
C2716 C2729 1.394 . S
C2717 H2709 0.949 . S
C2717 C2716 1.428 . S
C2717 C2718 1.345 . S
C2718 H2710 0.950 . S
C2718 C2717 1.345 . S
C2718 C2719 1.424 . S
C2719 H2711 0.951 . S
C2719 C2718 1.424 . S
C2719 C2720 1.347 . S
C2720 H2712 0.951 . S
C2720 C2715 1.429 . S
C2720 C2719 1.347 . S
H2721 C2722 0.938 . S
C2722 H2721 0.938 . S
C2722 C2728 1.258 . S
H2723 C2728 0.942 . S
H2724 C2732 0.949 . S
H2725 C2733 0.950 . S
H2726 C2734 0.951 . S
H2727 C2735 0.951 . S
C2728 C2722 1.258 . S
C2728 H2723 0.942 . S
C2728 C2729 1.478 . S
C2729 C2716 1.394 . S
C2729 C2728 1.478 . S
C2729 C2730 1.397 1_545 S
C2730 C2729 1.397 1_565 S
C2730 C2731 1.438 . S
C2730 C2735 1.429 . S
C2731 C2714 1.394 1_565 S
C2731 C2730 1.438 . S
C2731 C2732 1.428 . S
C2732 H2724 0.949 . S
C2732 C2731 1.428 . S
C2732 C2733 1.345 . S
C2733 H2725 0.950 . S
C2733 C2732 1.345 . S
C2733 C2734 1.424 . S
C2734 H2726 0.951 . S
C2734 C2733 1.424 . S
C2734 C2735 1.347 . S
C2735 H2727 0.951 . S
C2735 C2730 1.429 . S
C2735 C2734 1.347 . S
C577 C4 1.564 . S
C592 C421 1.583 . S
C607 C26 1.569 . S
C622 C446 1.571 . S
C652 C457 1.532 . S
C637 C32 1.520 . S
C667 C40 1.517 . S
C682 C482 1.514 . S
C697 C12 1.550 . S
C712 C500 1.555 . S
C727 C18 1.549 . S
C742 C511 1.564 . S
C757 C46 1.549 . S
C772 C493 1.557 1_455 S
C802 C518 1.522 . S
C787 C68 1.521 . S
C832 C475 1.456 1_565 S
C817 C74 1.439 . S
C847 C82 1.470 . S
C862 C464 1.447 1_545 S
C892 C428 1.502 1_655 S
C877 C54 1.515 . S
C907 C60 1.443 . S
C922 C439 1.493 . S
C937 C88 1.548 . S
C952 C529 1.585 . S
C967 C110 1.573 . S
C982 C554 1.561 . S
C1012 C565 1.529 . S
C997 C116 1.491 . S
C1027 C124 1.501 . S
C1042 C266 1.460 . S
C1057 C96 1.545 . S
C1072 C284 1.544 . S
C1087 C102 1.491 . S
C1102 C295 1.509 . S
C1117 C130 1.551 . S
C1132 C277 1.579 . S
C1147 C152 1.560 . S
C1162 C302 1.513 . S
C1192 C259 1.555 . S
C1177 C158 1.535 . S
C1222 C572 1.534 . S
C1207 C166 1.531 . S
C1252 C536 1.508 . S
C1237 C138 1.545 . S
C1282 C547 1.552 . S
C1267 C144 1.532 . S
C1297 C172 1.544 . S
C1312 C313 1.560 . S
C1327 C194 1.595 . S
C1342 C338 1.542 . S
C1357 C200 1.495 . S
C1372 C349 1.531 . S
C1387 C208 1.518 . S
C1402 C374 1.473 . S
C1432 C392 1.552 . S
C1417 C180 1.552 . S
C1462 C403 1.578 . S
C1447 C186 1.551 . S
C1492 C385 1.616 . S
C1477 C214 1.599 . S
C1522 C410 1.534 . S
C1507 C236 1.575 . S
C1537 C242 1.547 . S
C1552 C367 1.567 . S
C1582 C356 1.436 . S
C1567 C250 1.473 . S
C1597 C222 1.557 . S
C1612 C320 1.518 . S
C1642 C331 1.557 . S
C1627 C228 1.532 . S
C1672 C268 1.356 . S
C1657 C5 1.215 . S
C1687 C25 1.279 . S
C1702 C286 1.242 . S
C1732 C296 1.253 . S
C1717 C33 1.110 . S
C1762 C314 1.275 . S
C1747 C39 1.265 . S
C1792 C340 1.251 . S
C1777 C11 1.344 . S
C1822 C350 1.234 . S
C1807 C19 1.114 1_556 S
C1837 C47 1.274 1_556 S
C1852 C358 1.382 . S
C1867 C67 1.362 . S
C1882 C322 1.176 . S
C1897 C75 1.109 1_556 S
C1912 C332 1.270 . S
C1927 C81 1.350 . S
C1942 C278 1.216 . S
C1972 C304 1.314 . S
C1957 C53 1.328 . S
C1987 C61 1.178 . S
C2002 C260 1.291 . S
C2032 C376 1.353 . S
C2017 C89 1.250 . S
C2047 C109 1.324 . S
C2062 C394 1.291 . S
C2077 C117 1.075 . S
C2092 C404 1.245 . S
C2122 C422 1.232 . S
C2107 C123 1.268 . S
C2137 C95 1.283 . S
C2152 C448 1.235 . S
C2167 C103 1.020 . S
C2182 C458 1.168 . S
C2197 C131 1.206 . S
C2212 C466 1.305 . S
C2227 C151 1.317 . S
C2242 C430 1.216 . S
C2272 C440 1.303 . S
C2257 C159 1.190 . S
C2287 C165 1.301 . S
C2302 C386 1.306 . S
C2317 C137 1.402 . S
C2332 C412 1.283 . S
C2362 C368 1.309 . S
C2347 C145 1.143 . S
C2392 C484 1.308 . S
C2377 C173 1.214 . S
C2407 C193 1.292 . S
C2422 C502 1.223 . S
C2437 C201 1.037 . S
C2452 C512 1.213 . S
C2482 C530 1.243 . S
C2467 C207 1.254 . S
C2512 C556 1.344 . S
C2497 C179 1.364 . S
C2527 C187 1.109 . S
C2542 C566 1.254 . S
C2557 C215 1.275 . S
C2572 C574 1.373 . S
C2587 C235 1.371 . S
C2602 C538 1.300 . S
C2632 C548 1.285 . S
C2617 C243 1.117 . S
C2662 C494 1.175 1_655 S
C2647 C249 1.277 . S
C2692 C520 1.310 . S
C2677 C221 1.342 . S
C2707 C229 1.028 . S
C2722 C476 1.220 1_545 S
