# Generated by pormake.
# Topology anh, (6,3)-cn, num edge types: 1
# Building blocks:
#     Node 0, Type 0, BuildingBlock: CUKXOW_clean_sbu_0, # of connection points: 6
#     Node 1, Type 0, BuildingBlock: CUKXOW_clean_sbu_0, # of connection points: 6
#     Node 2, Type 0, BuildingBlock: CUKXOW_clean_sbu_0, # of connection points: 6
#     Node 3, Type 1, BuildingBlock: ESEHIV_clean_linker_0, # of connection points: 3
#     Node 4, Type 1, BuildingBlock: ESEHIV_clean_linker_0, # of connection points: 3
#     Node 5, Type 1, BuildingBlock: ESEHIV_clean_linker_0, # of connection points: 3
#     Node 6, Type 1, BuildingBlock: ESEHIV_clean_linker_0, # of connection points: 3
#     Node 7, Type 1, BuildingBlock: ESEHIV_clean_linker_0, # of connection points: 3
#     Node 8, Type 1, BuildingBlock: ESEHIV_clean_linker_0, # of connection points: 3
#     Edge 9, Type (0, 1), BuildingBlock: ZUJKAS_clean_linker_0, # of connection points: 2
#     Edge 10, Type (0, 1), BuildingBlock: ZUJKAS_clean_linker_0, # of connection points: 2
#     Edge 11, Type (0, 1), BuildingBlock: ZUJKAS_clean_linker_0, # of connection points: 2
#     Edge 12, Type (0, 1), BuildingBlock: ZUJKAS_clean_linker_0, # of connection points: 2
#     Edge 13, Type (0, 1), BuildingBlock: ZUJKAS_clean_linker_0, # of connection points: 2
#     Edge 14, Type (0, 1), BuildingBlock: ZUJKAS_clean_linker_0, # of connection points: 2
#     Edge 15, Type (0, 1), BuildingBlock: ZUJKAS_clean_linker_0, # of connection points: 2
#     Edge 16, Type (0, 1), BuildingBlock: ZUJKAS_clean_linker_0, # of connection points: 2
#     Edge 17, Type (0, 1), BuildingBlock: ZUJKAS_clean_linker_0, # of connection points: 2
#     Edge 18, Type (0, 1), BuildingBlock: ZUJKAS_clean_linker_0, # of connection points: 2
#     Edge 19, Type (0, 1), BuildingBlock: ZUJKAS_clean_linker_0, # of connection points: 2
#     Edge 20, Type (0, 1), BuildingBlock: ZUJKAS_clean_linker_0, # of connection points: 2
#     Edge 21, Type (0, 1), BuildingBlock: ZUJKAS_clean_linker_0, # of connection points: 2
#     Edge 22, Type (0, 1), BuildingBlock: ZUJKAS_clean_linker_0, # of connection points: 2
#     Edge 23, Type (0, 1), BuildingBlock: ZUJKAS_clean_linker_0, # of connection points: 2
#     Edge 24, Type (0, 1), BuildingBlock: ZUJKAS_clean_linker_0, # of connection points: 2
#     Edge 25, Type (0, 1), BuildingBlock: ZUJKAS_clean_linker_0, # of connection points: 2
#     Edge 26, Type (0, 1), BuildingBlock: ZUJKAS_clean_linker_0, # of connection points: 2
# Relax obj value: 0.134
# Max RMSD: 0.194
# Mean RMSD: 0.139
data_MOF--net-anh--node1-CUKXOW_clean_sbu_0--node2-ESEHIV_clean_linker_0--edge1-ZUJKAS_clean_linker_0
_symmetry_space_group_name_H-M    P1
_symmetry_Int_Tables_number       1
_symmetry_cell_setting            triclinic
loop_
_symmetry_equiv_pos_as_xyz
'x, y, z'
_cell_length_a     35.563489
_cell_length_b     34.312448
_cell_length_c     67.128095
_cell_angle_alpha  94.664961
_cell_angle_beta   89.97283
_cell_angle_gamma 114.44078
loop_
_atom_site_label
_atom_site_type_symbol
_atom_site_fract_x
_atom_site_fract_y
_atom_site_fract_z
_atom_type_partial_charge
Tb0 Tb 0.07586 0.54135 0.14798 0.0
C1 C 0.04876 0.49491 0.1877 0.0
Tb2 Tb 0.01722 0.44329 0.1454 0.0
O3 O 0.02654 0.55548 0.13534 0.0
O4 O 1.01141 0.50263 0.15177 0.0
O5 O 0.07665 0.52768 0.17909 0.0
C6 C 0.94863 0.37071 0.1448 0.0
O7 O 0.01982 0.46112 0.1774 0.0
C8 C 0.0968 0.45604 0.14386 0.0
C9 C 0.05047 0.48839 0.10598 0.0
O10 O 0.98194 0.37977 0.15562 0.0
O11 O 0.95413 0.40237 0.13405 0.0
O12 O 0.06581 0.41838 0.14208 0.0
O13 O 0.08069 0.48253 0.14621 0.0
O14 O 0.02038 0.45644 0.11406 0.0
O15 O 0.07866 0.52198 0.1167 0.0
C16 C 0.13967 0.6182 0.15289 0.0
O17 O 0.139 0.58512 0.14183 0.0
O18 O 0.10425 0.6081 0.16124 0.0
C19 C 0.99624 0.5216 0.14099 0.0
Tb20 Tb 0.49988 1.00275 0.49449 0.0
C21 C 0.54452 0.03629 0.45506 0.0
Tb22 Tb 0.58818 0.07185 0.49859 0.0
O23 O 0.47793 0.04925 0.48462 0.0
O24 O 0.52892 0.06898 0.50449 0.0
O25 O 0.51265 0.00575 0.46287 0.0
C26 C 0.65425 0.14619 0.49716 0.0
O27 O 0.57593 0.06572 0.46619 0.0
C28 C 0.58103 0.99284 0.49879 0.0
C29 C 0.54454 0.03649 0.53737 0.0
O30 O 0.61688 0.13882 0.49156 0.0
O31 O 0.65453 0.11166 0.5036 0.0
O32 O 0.61152 0.0258 0.50768 0.0
O33 O 0.55931 0.00572 0.4887 0.0
O34 O 0.57148 0.07131 0.5297 0.0
O35 O 0.51713 0.00346 0.52595 0.0
C36 C 0.43117 0.93054 0.49481 0.0
O37 O 0.43498 0.96841 0.50183 0.0
O38 O 0.46596 0.93338 0.48763 0.0
C39 C 0.50776 0.08199 0.49406 0.0
Tb40 Tb 0.52474 0.54002 0.82431 0.0
C41 C 0.56494 0.53723 0.86532 0.0
Tb42 Tb 0.61055 0.54136 0.82401 0.0
O43 O 0.4963 0.47203 0.8302 0.0
O44 O 0.55061 0.49673 0.81439 0.0
O45 O 0.53767 0.5481 0.85646 0.0
C46 C 0.67584 0.52253 0.82533 0.0
O47 O 0.59397 0.52988 0.85523 0.0
C48 C 0.60755 0.61667 0.82523 0.0
C49 C 0.56968 0.5418 0.78281 0.0
O50 O 0.67727 0.56093 0.82555 0.0
O51 O 0.63766 0.49475 0.82486 0.0
O52 O 0.63621 0.60823 0.81647 0.0
O53 O 0.58451 0.5846 0.83396 0.0
O54 O 0.59844 0.5336 0.79185 0.0
O55 O 0.53955 0.54712 0.7927 0.0
C56 C 0.46755 0.56964 0.81901 0.0
O57 O 0.46021 0.53189 0.82471 0.0
O58 O 0.50665 0.59025 0.8165 0.0
C59 C 0.52639 0.46426 0.82254 0.0
H60 H 0.48323 0.98009 0.23895 0.0
H61 H 0.60674 0.0778 0.23736 0.0
H62 H 0.53843 0.0145 0.18236 0.0
C63 C 0.50902 0.99998 0.23048 0.0
C64 C 0.5062 0.99439 0.2095 0.0
C65 C 0.54526 0.02961 0.24064 0.0
C66 C 0.57906 0.05404 0.22956 0.0
C67 C 0.57697 0.04902 0.20851 0.0
C68 C 0.54036 0.01891 0.19856 0.0
H69 H 0.55504 0.6107 0.5688 0.0
H70 H 0.56171 0.48853 0.56501 0.0
H71 H 0.54342 0.53984 0.51129 0.0
C72 C 0.55364 0.5824 0.5598 0.0
C73 C 0.54796 0.57928 0.53887 0.0
C74 C 0.5588 0.54995 0.56929 0.0
C75 C 0.55885 0.51422 0.55766 0.0
C76 C 0.55367 0.51037 0.53675 0.0
C77 C 0.54788 0.54288 0.5274 0.0
H78 H 0.02294 0.5106 0.88996 0.0
H79 H 0.15167 0.59071 0.90248 0.0
H80 H 0.09831 0.57761 0.84327 0.0
C81 C 0.05302 0.53153 0.88496 0.0
C82 C 0.05698 0.54251 0.8652 0.0
C83 C 0.08704 0.54873 0.89849 0.0
C84 C 0.12533 0.57737 0.89203 0.0
C85 C 0.13011 0.5879 0.87207 0.0
C86 C 0.09543 0.57056 0.85879 0.0
H87 H 0.97867 0.46825 0.40381 0.0
H88 H 0.09597 0.5777 0.40593 0.0
H89 H 0.03573 0.53414 0.46051 0.0
C90 C 1.00371 0.49421 0.41234 0.0
C91 C 1.00293 0.49804 0.43332 0.0
C92 C 0.03734 0.52254 0.40232 0.0
C93 C 0.07031 0.55505 0.41355 0.0
C94 C 0.06992 0.55945 0.43451 0.0
C95 C 0.0361 0.53091 0.44432 0.0
H96 H 0.5594 0.09227 0.75515 0.0
H97 H 0.56335 0.96875 0.75169 0.0
H98 H 0.56819 0.03676 0.80928 0.0
C99 C 0.56166 0.06633 0.76254 0.0
C100 C 0.56417 0.06911 0.78352 0.0
C101 C 0.56117 0.03028 0.75098 0.0
C102 C 0.56336 0.99654 0.76062 0.0
C103 C 0.56625 0.99848 0.78163 0.0
C104 C 0.56575 0.03466 0.7931 0.0
H105 H 0.48547 0.49225 0.08092 0.0
H106 H 0.61135 0.50723 0.08014 0.0
H107 H 0.54888 0.49398 0.13597 0.0
C108 C 0.51313 0.4949 0.08882 0.0
C109 C 0.51266 0.49288 0.10964 0.0
C110 C 0.54846 0.50006 0.07805 0.0
C111 C 0.58393 0.50296 0.0884 0.0
C112 C 0.58492 0.50074 0.10923 0.0
C113 C 0.5488 0.49558 0.11992 0.0
H114 H 0.16796 0.53148 0.15208 0.0
H115 H 0.24035 0.54155 0.14833 0.0
H116 H 0.19848 0.40746 0.12796 0.0
H117 H 0.12681 0.39764 0.13132 0.0
H118 H 0.28652 0.50152 0.16604 0.0
H119 H 0.27529 0.46502 0.08388 0.0
H120 H 0.23689 0.47689 0.09743 0.0
H121 H 0.23611 0.424 0.09656 0.0
C122 C 0.17422 0.5044 0.14649 0.0
C123 C 0.14133 0.46395 0.14163 0.0
C124 C 0.21573 0.51005 0.14452 0.0
C125 C 0.22532 0.47545 0.13749 0.0
C126 C 0.19236 0.43502 0.13297 0.0
H127 H 0.43879 0.42287 0.10697 0.0
H128 H 0.37082 0.42012 0.11559 0.0
C129 C 0.15116 0.42939 0.13499 0.0
C130 C 0.26936 0.48085 0.13497 0.0
H131 H 0.33421 0.46503 0.10063 0.0
C132 C 0.29706 0.49393 0.15169 0.0
C133 C 0.28358 0.47099 0.1163 0.0
C134 C 0.25659 0.45885 0.09747 0.0
C135 C 0.33757 0.4958 0.15039 0.0
C136 C 0.35148 0.48508 0.13176 0.0
C137 C 0.32395 0.4729 0.115 0.0
C138 C 0.39393 0.48556 0.12912 0.0
C139 C 0.36449 0.5077 0.16922 0.0
C140 C 0.43043 0.52281 0.13424 0.0
C141 C 0.46965 0.52407 0.12961 0.0
C142 C 0.47344 0.48822 0.11965 0.0
C143 C 0.43711 0.45066 0.11511 0.0
C144 C 0.39807 0.44929 0.11983 0.0
H145 H 0.34587 0.50272 0.18283 0.0
H146 H 0.38316 0.4886 0.16948 0.0
H147 H 0.38594 0.54222 0.16986 0.0
H148 H 0.4286 0.55175 0.14091 0.0
H149 H 0.4968 0.55396 0.13268 0.0
H150 H 0.73376 0.16589 0.509 0.0
H151 H 0.79522 0.23095 0.50327 0.0
H152 H 0.71855 0.2809 0.4741 0.0
H153 H 0.6571 0.21662 0.48031 0.0
H154 H 0.82341 0.25698 0.46759 0.0
H155 H 0.79172 0.38496 0.50971 0.0
H156 H 0.76294 0.32874 0.51313 0.0
H157 H 0.74998 0.35196 0.49253 0.0
C158 C 0.73008 0.19114 0.50167 0.0
C159 C 0.69085 0.18641 0.49509 0.0
C160 C 0.76512 0.22822 0.49841 0.0
C161 C 0.76143 0.26108 0.48853 0.0
C162 C 0.72208 0.25654 0.48222 0.0
H163 H 0.92043 0.46942 0.42439 0.0
H164 H 0.86311 0.41336 0.43985 0.0
C165 C 0.68703 0.21965 0.48562 0.0
C166 C 0.79888 0.29824 0.48321 0.0
H167 H 0.8436 0.40788 0.48494 0.0
C168 C 0.82814 0.28997 0.47166 0.0
C169 C 0.80496 0.34128 0.48851 0.0
C170 C 0.77592 0.3523 0.50182 0.0
C171 C 0.86254 0.32352 0.46468 0.0
C172 C 0.86783 0.36636 0.46943 0.0
C173 C 0.83918 0.37484 0.4813 0.0
C174 C 0.90216 0.40253 0.4614 0.0
C175 C 0.89236 0.31303 0.4517 0.0
C176 C 0.94281 0.41526 0.46871 0.0
C177 C 0.97554 0.44721 0.45994 0.0
C178 C 0.96804 0.46668 0.44366 0.0
C179 C 0.9271 0.4546 0.43677 0.0
C180 C 0.89439 0.42287 0.44563 0.0
H181 H 0.88113 0.27799 0.4474 0.0
H182 H 0.89762 0.33008 0.43789 0.0
H183 H 0.92258 0.32421 0.45992 0.0
H184 H 0.94923 0.39984 0.48091 0.0
H185 H 1.00681 0.45566 0.46545 0.0
H186 H 0.55965 0.64634 0.84832 0.0
H187 H 0.5471 0.7107 0.84443 0.0
H188 H 0.62976 0.74125 0.79535 0.0
H189 H 0.6419 0.67696 0.799 0.0
H190 H 0.60395 0.79946 0.84558 0.0
H191 H 0.52187 0.7394 0.77184 0.0
H192 H 0.53092 0.70464 0.78816 0.0
H193 H 0.57124 0.73682 0.77265 0.0
C194 C 0.57509 0.66688 0.83672 0.0
C195 C 0.60136 0.65645 0.82379 0.0
C196 C 0.56799 0.70362 0.83454 0.0
C197 C 0.58696 0.7304 0.81939 0.0
C198 C 0.61416 0.72062 0.8069 0.0
H199 H 0.61848 0.96131 0.77102 0.0
H200 H 0.62025 0.89654 0.78266 0.0
C201 C 0.62129 0.68404 0.80908 0.0
C202 C 0.57866 0.76865 0.81643 0.0
H203 H 0.54658 0.81512 0.78088 0.0
C204 C 0.59081 0.80271 0.83157 0.0
C205 C 0.56111 0.77265 0.79822 0.0
C206 C 0.54512 0.73626 0.78186 0.0
C207 C 0.58811 0.84163 0.82849 0.0
C208 C 0.57262 0.84635 0.80987 0.0
C209 C 0.55876 0.81157 0.79511 0.0
C210 C 0.57361 0.88802 0.80461 0.0
C211 C 0.60358 0.87817 0.84474 0.0
C212 C 0.54733 0.90536 0.81339 0.0
C213 C 0.54613 0.9426 0.80667 0.0
C214 C 0.57099 0.96276 0.79099 0.0
C215 C 0.59845 0.94618 0.78291 0.0
C216 C 0.59959 0.9092 0.78957 0.0
H217 H 0.619 0.87105 0.85746 0.0
H218 H 0.62571 0.90795 0.83864 0.0
H219 H 0.57718 0.88448 0.85049 0.0
H220 H 0.52675 0.88928 0.82491 0.0
H221 H 0.52452 0.95447 0.8131 0.0
H222 H 0.92695 0.45939 0.15665 0.0
H223 H 0.85461 0.45045 0.15362 0.0
H224 H 0.89313 0.56004 0.11899 0.0
H225 H 0.96445 0.5682 0.12148 0.0
H226 H 0.81576 0.50267 0.16548 0.0
H227 H 0.80102 0.4745 0.08316 0.0
H228 H 0.84375 0.47323 0.09713 0.0
H229 H 0.84443 0.5237 0.09101 0.0
C230 C 0.91984 0.48121 0.14819 0.0
C231 C 0.95168 0.51426 0.13912 0.0
C232 C 0.8784 0.47624 0.14655 0.0
C233 C 0.86775 0.50404 0.13572 0.0
C234 C 0.8998 0.53729 0.12695 0.0
H235 H 0.66248 0.56314 0.10589 0.0
H236 H 0.72859 0.56132 0.11417 0.0
C237 C 0.94089 0.54212 0.12851 0.0
C238 C 0.82368 0.49928 0.13368 0.0
H239 H 0.75076 0.49492 0.09909 0.0
C240 C 0.80139 0.50038 0.15093 0.0
C241 C 0.80424 0.49596 0.11476 0.0
C242 C 0.82443 0.4913 0.09547 0.0
C243 C 0.76155 0.50038 0.14978 0.0
C244 C 0.74303 0.49895 0.13087 0.0
C245 C 0.7648 0.49649 0.11365 0.0
C246 C 0.70216 0.50196 0.12838 0.0
C247 C 0.74019 0.50356 0.16884 0.0
C248 C 0.6646 0.46984 0.13406 0.0
C249 C 0.62628 0.47091 0.12933 0.0
C250 C 0.62463 0.50404 0.11875 0.0
C251 C 0.66241 0.53715 0.11406 0.0
C252 C 0.70041 0.53603 0.11871 0.0
H253 H 0.76145 0.51244 0.1822 0.0
H254 H 0.72704 0.52772 0.16822 0.0
H255 H 0.7143 0.47202 0.17066 0.0
H256 H 0.66472 0.44282 0.14129 0.0
H257 H 0.59793 0.4445 0.13287 0.0
H258 H 0.41886 0.85199 0.47714 0.0
H259 H 0.35364 0.78779 0.4729 0.0
H260 H 0.29195 0.85541 0.50643 0.0
H261 H 0.35705 0.92021 0.51024 0.0
H262 H 0.29953 0.73805 0.49957 0.0
H263 H 0.22453 0.81649 0.45407 0.0
H264 H 0.27923 0.84055 0.46021 0.0
H265 H 0.24319 0.84279 0.47857 0.0
C266 C 0.3914 0.85306 0.48367 0.0
C267 C 0.39272 0.89105 0.4938 0.0
C268 C 0.35423 0.81639 0.4813 0.0
C269 C 0.31784 0.8171 0.48905 0.0
C270 C 0.3195 0.85451 0.49995 0.0
H271 H 0.06666 0.61663 0.46453 0.0
H272 H 0.12511 0.67795 0.48147 0.0
C273 C 0.35666 0.89136 0.5022 0.0
C274 C 0.27812 0.77908 0.48493 0.0
H275 H 0.18509 0.74429 0.45965 0.0
C276 C 0.27435 0.73946 0.491 0.0
C277 C 0.2453 0.78107 0.47375 0.0
C278 C 0.2482 0.82237 0.4661 0.0
C279 C 0.23901 0.70156 0.48577 0.0
C280 C 0.20688 0.70342 0.47408 0.0
C281 C 0.20984 0.74318 0.4687 0.0
C282 C 0.17179 0.66416 0.4656 0.0
C283 C 0.23653 0.6597 0.49249 0.0
C284 C 0.17889 0.63631 0.45115 0.0
C285 C 0.14575 0.60165 0.44142 0.0
C286 C 0.10492 0.59423 0.446 0.0
C287 C 0.09786 0.62147 0.46087 0.0
C288 C 0.13111 0.65645 0.47049 0.0
H289 H 0.25782 0.66504 0.50554 0.0
H290 H 0.20455 0.63898 0.4965 0.0
H291 H 0.24543 0.64221 0.48006 0.0
H292 H 0.21007 0.64219 0.44695 0.0
H293 H 0.152 0.58096 0.4301 0.0
H294 H 0.57751 0.43889 0.80001 0.0
H295 H 0.58411 0.37052 0.79935 0.0
H296 H 0.48917 0.32679 0.84262 0.0
H297 H 0.48277 0.39548 0.84348 0.0
H298 H 0.60332 0.33125 0.83181 0.0
H299 H 0.44828 0.23057 0.79613 0.0
H300 H 0.47198 0.28835 0.79607 0.0
H301 H 0.44935 0.26409 0.81834 0.0
C302 C 0.5583 0.41485 0.80951 0.0
C303 C 0.52984 0.42262 0.82191 0.0
C304 C 0.56201 0.37575 0.80908 0.0
C305 C 0.53693 0.34338 0.82082 0.0
C306 C 0.50846 0.35106 0.83324 0.0
H307 H 0.51409 0.07672 0.81336 0.0
H308 H 0.5087 0.14315 0.82672 0.0
C309 C 0.50487 0.39031 0.83374 0.0
C310 C 0.54067 0.30166 0.81987 0.0
H311 H 0.4899 0.19517 0.80378 0.0
C312 C 0.57842 0.30142 0.82583 0.0
C313 C 0.50807 0.26267 0.81223 0.0
C314 C 0.46717 0.26116 0.80517 0.0
C315 C 0.58469 0.26343 0.82401 0.0
C316 C 0.55267 0.22474 0.81558 0.0
C317 C 0.51442 0.22471 0.81031 0.0
C318 C 0.55944 0.18522 0.8101 0.0
C319 C 0.62568 0.26522 0.83107 0.0
C320 C 0.59014 0.18678 0.79665 0.0
C321 C 0.5933 0.14914 0.78914 0.0
C322 C 0.56562 0.1089 0.79477 0.0
C323 C 0.53609 0.10733 0.80896 0.0
C324 C 0.53283 0.14521 0.81646 0.0
H325 H 0.64025 0.29134 0.84323 0.0
H326 H 0.62224 0.2343 0.83657 0.0
H327 H 0.64697 0.27209 0.81844 0.0
H328 H 0.61044 0.21692 0.79112 0.0
H329 H 0.6163 0.15127 0.77819 0.0
H330 H 0.61377 0.96078 0.52619 0.0
H331 H 0.60378 0.88623 0.52781 0.0
H332 H 0.52455 0.84852 0.47458 0.0
H333 H 0.53371 0.92323 0.47325 0.0
H334 H 0.49256 0.79208 0.50149 0.0
H335 H 0.65673 0.8223 0.49442 0.0
H336 H 0.65048 0.85531 0.51509 0.0
H337 H 0.63786 0.86233 0.49001 0.0
C338 C 0.59436 0.93659 0.5148 0.0
C339 C 0.57459 0.94767 0.49958 0.0
C340 C 0.58889 0.89403 0.51564 0.0
C341 C 0.56426 0.86183 0.50102 0.0
C342 C 0.54396 0.87281 0.48593 0.0
H343 H 0.58142 0.61445 0.50415 0.0
H344 H 0.58029 0.67848 0.49102 0.0
C345 C 0.5491 0.91541 0.48521 0.0
C346 C 0.55901 0.81668 0.50192 0.0
H347 H 0.61326 0.7562 0.50803 0.0
C348 C 0.51894 0.7841 0.50263 0.0
C349 C 0.59328 0.80585 0.50285 0.0
C350 C 0.63694 0.83826 0.50032 0.0
C351 C 0.51236 0.7416 0.50538 0.0
C352 C 0.54681 0.73164 0.50809 0.0
C353 C 0.58676 0.76373 0.50625 0.0
C354 C 0.54259 0.68933 0.51427 0.0
C355 C 0.46849 0.70794 0.50534 0.0
C356 C 0.5212 0.6735 0.53149 0.0
C357 C 0.52114 0.63652 0.53879 0.0
C358 C 0.54336 0.61493 0.52935 0.0
C359 C 0.5637 0.62997 0.51172 0.0
C360 C 0.56334 0.66682 0.50427 0.0
H361 H 0.44772 0.71593 0.49572 0.0
H362 H 0.46627 0.67556 0.49999 0.0
H363 H 0.4571 0.7069 0.52077 0.0
H364 H 0.5058 0.69067 0.53982 0.0
H365 H 0.50457 0.62553 0.55222 0.0
H366 H 0.7556 0.57811 0.82213 0.0
H367 H 0.81591 0.56135 0.81983 0.0
H368 H 0.7377 0.42687 0.82306 0.0
H369 H 0.67685 0.44351 0.82531 0.0
H370 H 0.8051 0.46305 0.85113 0.0
H371 H 0.85672 0.50103 0.77459 0.0
H372 H 0.84512 0.54215 0.78777 0.0
H373 H 0.80453 0.48932 0.78205 0.0
C374 C 0.75123 0.54494 0.8222 0.0
C375 C 0.71182 0.51209 0.824 0.0
C376 C 0.78557 0.53535 0.82062 0.0
C377 C 0.78099 0.49278 0.8208 0.0
C378 C 0.7416 0.4598 0.82256 0.0
H379 H 1.00193 0.45939 0.85626 0.0
H380 H 0.93337 0.43497 0.83987 0.0
C381 C 0.70708 0.46937 0.824 0.0
C382 C 0.81824 0.48423 0.82163 0.0
H383 H 0.90974 0.50702 0.7989 0.0
C384 C 0.82765 0.47134 0.83952 0.0
C385 C 0.84727 0.4951 0.80639 0.0
C386 C 0.83775 0.50727 0.78653 0.0
C387 C 0.86702 0.47317 0.84344 0.0
C388 C 0.8972 0.48702 0.82871 0.0
C389 C 0.88656 0.49645 0.81014 0.0
C390 C 0.9412 0.49875 0.83365 0.0
C391 C 0.87692 0.464 0.86396 0.0
C392 C 0.96922 0.54208 0.83409 0.0
C393 C 1.00847 0.55586 0.84304 0.0
C394 C 0.01997 0.52649 0.85179 0.0
C395 C 0.99329 0.48258 0.8498 0.0
C396 C 0.95425 0.46869 0.84053 0.0
H397 H 0.85206 0.46083 0.87459 0.0
H398 H 0.8807 0.43339 0.86281 0.0
H399 H 0.90621 0.48998 0.87033 0.0
H400 H 0.95973 0.56576 0.8288 0.0
H401 H 0.02859 0.58987 0.84444 0.0
H402 H 0.14555 0.68933 0.17637 0.0
H403 H 0.20674 0.75753 0.18272 0.0
H404 H 0.27626 0.70881 0.1433 0.0
H405 H 0.21515 0.64085 0.13675 0.0
H406 H 0.28188 0.76659 0.19938 0.0
H407 H 0.30343 0.82764 0.12422 0.0
H408 H 0.25569 0.78552 0.13111 0.0
H409 H 0.29901 0.77361 0.12446 0.0
C410 C 0.17378 0.69343 0.1689 0.0
C411 C 0.1757 0.65998 0.15605 0.0
C412 C 0.20865 0.73233 0.17252 0.0
C413 C 0.24585 0.73846 0.16325 0.0
C414 C 0.24764 0.70514 0.15025 0.0
H415 H 0.49844 0.93194 0.17963 0.0
H416 H 0.4344 0.87124 0.167 0.0
C417 C 0.21281 0.66626 0.14664 0.0
C418 C 0.28355 0.77842 0.16832 0.0
H419 H 0.35835 0.86425 0.14844 0.0
C420 C 0.29841 0.78813 0.18827 0.0
C421 C 0.30523 0.80621 0.15375 0.0
C422 C 0.28991 0.79803 0.13221 0.0
C423 C 0.33473 0.82453 0.19404 0.0
C424 C 0.35634 0.85248 0.17951 0.0
C425 C 0.34161 0.84279 0.15952 0.0
C426 C 0.39433 0.89183 0.185 0.0
C427 C 0.35019 0.83221 0.21557 0.0
C428 C 0.39273 0.92428 0.19862 0.0
C429 C 0.42908 0.95875 0.20584 0.0
C430 C 0.4677 0.96161 0.19942 0.0
C431 C 0.46909 0.93059 0.18477 0.0
C432 C 0.4326 0.89589 0.17761 0.0
H433 H 0.33612 0.80264 0.22355 0.0
H434 H 0.38433 0.84382 0.21658 0.0
H435 H 0.34192 0.85716 0.22342 0.0
H436 H 0.3634 0.92219 0.20417 0.0
H437 H 0.42709 0.98259 0.21689 0.0
H438 H 0.56228 0.15149 0.51724 0.0
H439 H 0.57038 0.22607 0.51804 0.0
H440 H 0.47342 0.1889 0.47251 0.0
H441 H 0.46545 0.11419 0.47148 0.0
H442 H 0.58665 0.28181 0.4847 0.0
H443 H 0.43662 0.24902 0.52071 0.0
H444 H 0.46153 0.21267 0.52103 0.0
H445 H 0.43566 0.21528 0.49857 0.0
C446 C 0.54296 0.15928 0.50726 0.0
C447 C 0.51328 0.12712 0.49427 0.0
C448 C 0.5476 0.20185 0.50775 0.0
C449 C 0.5223 0.21288 0.49544 0.0
C450 C 0.49296 0.18092 0.48226 0.0
H451 H 0.49786 0.45799 0.50737 0.0
H452 H 0.49127 0.38731 0.49282 0.0
C453 C 0.48848 0.13835 0.48168 0.0
C454 C 0.52603 0.25768 0.49689 0.0
H455 H 0.47751 0.32034 0.51446 0.0
C456 C 0.56267 0.29029 0.49103 0.0
C457 C 0.49455 0.26852 0.50498 0.0
C458 C 0.45489 0.23472 0.51183 0.0
C459 C 0.56901 0.33366 0.49344 0.0
C460 C 0.53829 0.34474 0.50239 0.0
C461 C 0.50102 0.31189 0.50755 0.0
C462 C 0.54562 0.39002 0.50849 0.0
C463 C 0.60865 0.36713 0.48643 0.0
C464 C 0.57872 0.41537 0.5218 0.0
C465 C 0.58265 0.45564 0.52997 0.0
C466 C 0.55326 0.47133 0.52521 0.0
C467 C 0.52115 0.4469 0.51117 0.0
C468 C 0.51724 0.40644 0.50296 0.0
H469 H 0.62102 0.35346 0.47383 0.0
H470 H 0.60417 0.39513 0.48156 0.0
H471 H 0.63224 0.37858 0.49888 0.0
H472 H 0.60048 0.40316 0.52669 0.0
H473 H 0.60786 0.47385 0.54066 0.0
H474 H 0.38419 0.5292 0.82172 0.0
H475 H 0.33478 0.56177 0.82106 0.0
H476 H 0.43342 0.68385 0.81082 0.0
H477 H 0.48305 0.65129 0.81148 0.0
H478 H 0.38783 0.68777 0.84354 0.0
H479 H 0.28252 0.60486 0.77862 0.0
H480 H 0.29224 0.56662 0.79199 0.0
H481 H 0.33434 0.60762 0.78047 0.0
C482 C 0.39513 0.56273 0.81895 0.0
C483 C 0.43722 0.58783 0.81674 0.0
C484 C 0.36691 0.58122 0.81833 0.0
C485 C 0.3804 0.62502 0.81548 0.0
C486 C 0.42238 0.64989 0.81272 0.0
H487 H 0.1514 0.64636 0.84353 0.0
H488 H 0.21788 0.67722 0.8273 0.0
C489 C 0.4506 0.6313 0.8132 0.0
C490 C 0.35126 0.6453 0.8186 0.0
H491 H 0.24979 0.62086 0.80893 0.0
C492 C 0.35813 0.67459 0.8355 0.0
C493 C 0.31305 0.62926 0.80779 0.0
C494 C 0.30533 0.60072 0.78856 0.0
C495 C 0.32556 0.68274 0.84363 0.0
C496 C 0.28558 0.66071 0.83467 0.0
C497 C 0.2804 0.63711 0.81602 0.0
C498 C 0.24857 0.65119 0.84665 0.0
C499 C 0.33322 0.71126 0.86285 0.0
C500 C 0.24411 0.6267 0.86293 0.0
C501 C 0.20616 0.60795 0.87176 0.0
C502 C 0.17175 0.61361 0.86464 0.0
C503 C 0.17702 0.6406 0.84914 0.0
C504 C 0.21506 0.65879 0.84002 0.0
H505 H 0.36484 0.73756 0.86352 0.0
H506 H 0.31028 0.72545 0.86447 0.0
H507 H 0.33082 0.692 0.87568 0.0
H508 H 0.26926 0.61936 0.86789 0.0
H509 H 0.20336 0.58672 0.8833 0.0
H510 H 0.93446 0.30414 0.16736 0.0
H511 H 0.86838 0.24423 0.1723 0.0
H512 H 0.80818 0.29131 0.13065 0.0
H513 H 0.87441 0.3519 0.12586 0.0
H514 H 0.76896 0.27471 0.1662 0.0
H515 H 0.7995 0.13528 0.13735 0.0
H516 H 0.83842 0.17064 0.15532 0.0
H517 H 0.83181 0.18956 0.1319 0.0
C518 C 0.90726 0.30134 0.15901 0.0
C519 C 0.90949 0.3325 0.14618 0.0
C520 C 0.86956 0.26692 0.16174 0.0
C521 C 0.83344 0.26284 0.15158 0.0
C522 C 0.83575 0.29362 0.13849 0.0
H523 H 0.5768 0.09061 0.17532 0.0
H524 H 0.63684 0.14004 0.15855 0.0
C525 C 0.87354 0.32812 0.13574 0.0
C526 C 0.79294 0.2286 0.15606 0.0
H527 H 0.74235 0.12036 0.15913 0.0
C528 C 0.76279 0.24088 0.16433 0.0
C529 C 0.785 0.18451 0.15362 0.0
C530 C 0.81525 0.16914 0.14387 0.0
C531 C 0.72581 0.21048 0.17118 0.0
C532 C 0.71854 0.16654 0.1694 0.0
C533 C 0.74805 0.15408 0.1605 0.0
C534 C 0.68196 0.1336 0.17806 0.0
C535 C 0.69576 0.22586 0.18116 0.0
C536 C 0.68747 0.11238 0.19406 0.0
C537 C 0.65334 0.08394 0.20353 0.0
C538 C 0.61296 0.07604 0.19715 0.0
C539 C 0.60748 0.09593 0.18055 0.0
C540 C 0.64173 0.12447 0.17108 0.0
H541 H 0.70962 0.26127 0.1848 0.0
H542 H 0.66842 0.21728 0.17096 0.0
H543 H 0.68487 0.21013 0.19516 0.0
H544 H 0.71827 0.11877 0.19959 0.0
H545 H 0.65858 0.06855 0.21605 0.0
H546 H 0.99897 0.4267 0.07784 0.0
H547 H 1.00353 0.4261 0.04139 0.0
H548 H 0.11157 0.54651 0.0481 0.0
H549 H 0.10782 0.54725 0.08426 0.0
H550 H 0.99999 0.48728 0.01773 0.0
H551 H 0.14884 0.47337 0.00921 0.0
H552 H 0.12007 0.4617 0.03178 0.0
H553 H 0.15281 0.51634 0.02738 0.0
C554 C 0.02391 0.45285 0.07155 0.0
C555 C 0.05309 0.48695 0.08398 0.0
C556 C 0.02646 0.45241 0.05075 0.0
C557 C 0.05835 0.48583 0.04213 0.0
C558 C 0.08736 0.51986 0.05449 0.0
H559 H 0.11972 0.60073 0.93293 0.0
H560 H 0.11113 0.58016 0.96728 0.0
C561 C 0.0849 0.52035 0.07519 0.0
C562 C 0.06027 0.48701 0.02021 0.0
H563 H 0.12629 0.50087 0.98183 0.0
C564 C 0.02722 0.48939 0.00977 0.0
C565 C 0.09585 0.48964 0.00992 0.0
C566 C 0.13122 0.48468 0.02012 0.0
C567 C 0.0298 0.4967 -0.01053 0.0
C568 C 0.06625 0.5016 0.97953 0.0
C569 C 0.09858 0.49745 -0.01031 0.0
C570 C 0.0721 0.51324 0.95879 0.0
C571 C 0.99444 0.50097 0.97892 0.0
C572 C 0.05327 0.48212 0.94284 0.0
C573 C 0.05844 0.4936 0.92323 0.0
C574 C 0.08241 0.53645 0.91932 0.0
C575 C 0.10151 0.56742 0.93543 0.0
C576 C 0.09647 0.55582 0.95502 0.0
H577 H 0.96911 0.49863 -0.01089 0.0
H578 H 1.00571 0.5323 0.97232 0.0
H579 H 0.98173 0.47524 0.96647 0.0
H580 H 0.03459 0.44904 0.94559 0.0
H581 H 0.04389 0.46888 0.91112 0.0
H582 H 0.60335 0.0943 0.43327 0.0
H583 H 0.60519 0.09539 0.39693 0.0
H584 H 0.49065 0.98162 0.39055 0.0
H585 H 0.4886 0.97987 0.42687 0.0
H586 H 0.55265 0.9785 0.36502 0.0
H587 H 0.53105 0.12918 0.36132 0.0
H588 H 0.57263 0.13357 0.37784 0.0
H589 H 0.52026 0.0999 0.38333 0.0
C590 C 0.57846 0.06949 0.42418 0.0
C591 C 0.54575 0.03703 0.43303 0.0
C592 C 0.57949 0.07034 0.40341 0.0
C593 C 0.54779 0.03893 0.3911 0.0
C594 C 0.51532 0.00627 0.39983 0.0
H595 H 0.48685 0.03379 0.26615 0.0
H596 H 0.48901 0.03667 0.30269 0.0
C597 C 0.51421 0.00539 0.4206 0.0
C598 C 0.54877 0.03959 0.36908 0.0
H599 H 0.5461 0.09881 0.33105 0.0
C600 C 0.55124 0.00478 0.35756 0.0
C601 C 0.54652 0.07377 0.35945 0.0
C602 C 0.5421 0.1111 0.37106 0.0
C603 C 0.55181 0.00335 0.33662 0.0
C604 C 0.5504 0.03793 0.32701 0.0
C605 C 0.54761 0.07259 0.33851 0.0
C606 C 0.55016 0.03787 0.30496 0.0
C607 C 0.553 0.96444 0.32492 0.0
C608 C 0.58418 0.03842 0.29419 0.0
C609 C 0.58298 0.03661 0.2733 0.0
C610 C 0.54773 0.03428 0.26285 0.0
C611 C 0.51418 0.03491 0.27376 0.0
C612 C 0.51545 0.03681 0.29462 0.0
H613 H 0.54477 0.93684 0.33417 0.0
H614 H 0.53148 0.95435 0.31162 0.0
H615 H 0.5847 0.97258 0.3196 0.0
H616 H 0.6115 0.03988 0.30193 0.0
H617 H 0.60922 0.03596 0.26532 0.0
H618 H 0.62222 0.52654 0.75662 0.0
H619 H 0.62336 0.53082 0.7204 0.0
H620 H 0.51974 0.56532 0.72308 0.0
H621 H 0.51845 0.56153 0.75925 0.0
H622 H 0.55806 0.48363 0.69167 0.0
H623 H 0.60602 0.65972 0.69228 0.0
H624 H 0.6117 0.63463 0.71403 0.0
H625 H 0.56211 0.63254 0.707 0.0
C626 C 0.59972 0.53517 0.74954 0.0
C627 C 0.57028 0.54377 0.76086 0.0
C628 C 0.60044 0.53758 0.72884 0.0
C629 C 0.57203 0.549 0.71915 0.0
C630 C 0.54242 0.55725 0.73035 0.0
H631 H 0.51404 0.57341 0.59707 0.0
H632 H 0.51885 0.5738 0.63348 0.0
C633 C 0.54158 0.55476 0.75102 0.0
C634 C 0.57251 0.55105 0.69723 0.0
H635 H 0.5845 0.61879 0.66084 0.0
C636 C 0.56412 0.5132 0.68489 0.0
C637 C 0.5803 0.58969 0.68851 0.0
C638 C 0.59091 0.63159 0.7011 0.0
C639 C 0.5623 0.51269 0.66399 0.0
C640 C 0.56996 0.55132 0.65525 0.0
C641 C 0.57864 0.58925 0.6676 0.0
C642 C 0.56849 0.55284 0.63329 0.0
C643 C 0.551 0.47055 0.65148 0.0
C644 C 0.59548 0.54193 0.62119 0.0
C645 C 0.59278 0.54165 0.60042 0.0
C646 C 0.56331 0.55273 0.5914 0.0
C647 C 0.53723 0.56501 0.6036 0.0
C648 C 0.53983 0.56508 0.62438 0.0
H649 H 0.53581 0.44261 0.66041 0.0
H650 H 0.52999 0.46752 0.63865 0.0
H651 H 0.5795 0.46908 0.64548 0.0
H652 H 0.61851 0.53342 0.62782 0.0
H653 H 0.61377 0.53278 0.59141 0.0
H654 H 0.59346 0.09864 0.56581 0.0
H655 H 0.59542 0.09438 0.6019 0.0
H656 H 0.49967 0.96542 0.5948 0.0
H657 H 0.49701 0.96946 0.55865 0.0
H658 H 0.48647 0.01739 0.62571 0.0
H659 H 0.64544 0.02607 0.6312 0.0
H660 H 0.64207 0.06919 0.61895 0.0
H661 H 0.61678 0.01493 0.60767 0.0
C662 C 0.5728 0.06931 0.57187 0.0
C663 C 0.54518 0.03432 0.5593 0.0
C664 C 0.57417 0.06686 0.59251 0.0
C665 C 0.54823 0.02931 0.60096 0.0
C666 C 0.52015 0.99458 0.58853 0.0
H667 H 0.5134 0.96227 0.72466 0.0
H668 H 0.50959 0.95988 0.68809 0.0
C669 C 0.51869 0.997 0.56788 0.0
C670 C 0.54985 0.02666 0.62283 0.0
H671 H 0.61458 0.03394 0.66188 0.0
C672 C 0.51434 0.02063 0.63362 0.0
C673 C 0.58626 0.03081 0.63306 0.0
C674 C 0.62471 0.0352 0.62213 0.0
C675 C 0.51465 0.01997 0.6545 0.0
C676 C 0.55128 0.02488 0.66475 0.0
C677 C 0.5866 0.03031 0.65394 0.0
C678 C 0.55395 0.02572 0.68679 0.0
C679 C 0.47621 0.01532 0.6655 0.0
C680 C 0.58086 0.06317 0.69807 0.0
C681 C 0.5833 0.06454 0.71889 0.0
C682 C 0.55903 0.02835 0.72881 0.0
C683 C 0.53259 0.99059 0.71743 0.0
C684 C 0.5301 0.98929 0.69658 0.0
H685 H 0.45375 0.02102 0.65598 0.0
H686 H 0.4609 0.98222 0.67018 0.0
H687 H 0.48411 0.0381 0.67916 0.0
H688 H 0.59974 0.0915 0.69076 0.0
H689 H 0.60442 0.09387 0.72723 0.0
H690 H 0.51853 0.56118 0.89212 0.0
H691 H 0.51629 0.55581 0.92823 0.0
H692 H 0.60469 0.49964 0.92428 0.0
H693 H 0.60789 0.5058 0.88826 0.0
H694 H 0.49316 0.4859 0.94919 0.0
H695 H 0.65692 0.59387 0.96868 0.0
H696 H 0.63343 0.59071 0.94444 0.0
H697 H 0.65122 0.55072 0.95025 0.0
C698 C 0.53773 0.54792 0.89892 0.0
C699 C 0.56366 0.53425 0.88727 0.0
C700 C 0.53636 0.54484 0.91959 0.0
C701 C 0.56087 0.52804 0.92906 0.0
C702 C 0.58633 0.51379 0.91743 0.0
H703 H 0.58335 0.46436 0.04967 0.0
H704 H 0.58552 0.47118 0.01364 0.0
C705 C 0.58795 0.51713 0.89678 0.0
C706 C 0.55888 0.52433 0.951 0.0
H707 H 0.61797 0.55249 -0.00564 0.0
C708 C 0.52041 0.50071 0.95907 0.0
C709 C 0.59445 0.54372 0.96393 0.0
C710 C 0.63626 0.57153 0.95644 0.0
C711 C 0.51671 0.49528 0.97962 0.0
C712 C 0.55233 0.51417 -0.00756 0.0
C713 C 0.59075 0.53787 0.98444 0.0
C714 C 0.55038 0.50975 0.01426 0.0
C715 C 0.47487 0.46869 0.98744 0.0
C716 C 0.53015 0.52947 0.02655 0.0
C717 C 0.52927 0.52611 0.0472 0.0
C718 C 0.54859 0.50289 0.05598 0.0
C719 C 0.56866 0.48301 0.04352 0.0
C720 C 0.56974 0.48664 0.0229 0.0
H721 H 0.45213 0.44956 0.97519 0.0
H722 H 0.47726 0.4465 -0.00197 0.0
H723 H 0.46291 0.49032 -0.00433 0.0
H724 H 0.51556 0.54801 0.0202 0.0
H725 H 0.51415 0.54246 0.05633 0.0
H726 H 0.99749 0.43433 0.21105 0.0
H727 H 0.99577 0.43875 0.24751 0.0
H728 H 0.09826 0.56349 0.25104 0.0
H729 H 0.10011 0.55973 0.21455 0.0
H730 H 0.0584 0.44936 0.27594 0.0
H731 H 1.00915 0.58365 0.28416 0.0
H732 H 1.00575 0.55296 0.26054 0.0
H733 H 0.05456 0.59406 0.2699 0.0
C734 C 0.01973 0.46277 0.21953 0.0
C735 C 0.04879 0.49682 0.20983 0.0
C736 C 0.01869 0.46517 0.24037 0.0
C737 C 0.04648 0.50169 0.25191 0.0
C738 C 0.07606 0.53536 0.24236 0.0
H739 H 0.1027 0.52852 0.37932 0.0
H740 H 0.10454 0.5228 0.34281 0.0
C741 C 0.07718 0.53302 0.22149 0.0
C742 C 0.04452 0.50436 0.27397 0.0
H743 H 0.02707 0.56183 0.31402 0.0
C744 C 0.05151 0.47389 0.28429 0.0
C745 C 0.03496 0.53607 0.28474 0.0
C746 C 0.02529 0.56836 0.27431 0.0
C747 C 0.04982 0.47468 0.3052 0.0
C748 C 0.04143 0.50713 0.31601 0.0
C749 C 0.03381 0.5372 0.30566 0.0
C750 C 0.04026 0.51038 0.33809 0.0
C751 C 0.05641 0.44042 0.31551 0.0
C752 C 1.00371 0.50618 0.3475 0.0
C753 C 1.00264 0.50983 0.36836 0.0
C754 C 0.03824 0.51809 0.38016 0.0
C755 C 0.07486 0.52249 0.37064 0.0
C756 C 0.07587 0.51878 0.3498 0.0
H757 H 0.05217 0.41213 0.30495 0.0
H758 H 0.08843 0.45386 0.32198 0.0
H759 H 0.03478 0.42947 0.32788 0.0
H760 H 0.97599 0.49999 0.33869 0.0
H761 H 0.97414 0.50684 0.37524 0.0
loop_
_geom_bond_atom_site_label_1
_geom_bond_atom_site_label_2
_geom_bond_distance
_geom_bond_site_symmetry_2
_ccdc_geom_bond_type
Tb0 O3 2.453 1_455 S
Tb0 O4 2.596 1_455 S
Tb0 O5 2.374 . S
Tb0 O13 2.343 . S
Tb0 O15 2.353 . S
Tb0 O17 2.427 . S
Tb0 O18 2.513 . S
C1 O5 1.251 . S
C1 O7 1.263 . S
Tb2 O4 2.343 1_455 S
Tb2 O7 2.353 . S
Tb2 O10 2.427 1_455 S
Tb2 O11 2.513 1_455 S
Tb2 O12 2.453 . S
Tb2 O13 2.596 . S
Tb2 O14 2.374 . S
O3 Tb0 2.453 1_655 S
O3 C19 1.245 . S
O4 Tb0 2.596 1_655 S
O4 Tb2 2.343 1_655 S
O4 C19 1.259 . S
O5 Tb0 2.374 . S
O5 C1 1.251 . S
C6 O10 1.275 . S
C6 O11 1.246 . S
O7 C1 1.263 . S
O7 Tb2 2.353 . S
C8 O12 1.245 . S
C8 O13 1.259 . S
C9 O14 1.250 . S
C9 O15 1.263 . S
O10 Tb2 2.427 1_655 S
O10 C6 1.275 . S
O11 Tb2 2.513 1_655 S
O11 C6 1.246 . S
O12 Tb2 2.453 . S
O12 C8 1.245 . S
O13 Tb0 2.343 . S
O13 Tb2 2.596 . S
O13 C8 1.259 . S
O14 Tb2 2.374 . S
O14 C9 1.250 . S
O15 Tb0 2.353 . S
O15 C9 1.263 . S
C16 O17 1.275 . S
C16 O18 1.246 . S
O17 Tb0 2.427 . S
O17 C16 1.275 . S
O18 Tb0 2.513 . S
O18 C16 1.246 . S
C19 O3 1.245 . S
C19 O4 1.259 . S
Tb20 O23 2.453 . S
Tb20 O24 2.596 . S
Tb20 O25 2.374 . S
Tb20 O33 2.343 1_545 S
Tb20 O35 2.353 . S
Tb20 O37 2.427 1_545 S
Tb20 O38 2.513 1_545 S
C21 O25 1.251 . S
C21 O27 1.263 . S
Tb22 O24 2.343 . S
Tb22 O27 2.353 . S
Tb22 O30 2.427 . S
Tb22 O31 2.513 . S
Tb22 O32 2.453 1_545 S
Tb22 O33 2.596 1_545 S
Tb22 O34 2.374 . S
O23 Tb20 2.453 . S
O23 C39 1.245 . S
O24 Tb20 2.596 . S
O24 Tb22 2.343 . S
O24 C39 1.259 . S
O25 Tb20 2.374 . S
O25 C21 1.251 . S
C26 O30 1.275 . S
C26 O31 1.246 . S
O27 C21 1.263 . S
O27 Tb22 2.353 . S
C28 O32 1.245 . S
C28 O33 1.259 . S
C29 O34 1.250 . S
C29 O35 1.263 . S
O30 Tb22 2.427 . S
O30 C26 1.275 . S
O31 Tb22 2.513 . S
O31 C26 1.246 . S
O32 Tb22 2.453 1_565 S
O32 C28 1.245 . S
O33 Tb20 2.343 1_565 S
O33 Tb22 2.596 1_565 S
O33 C28 1.259 . S
O34 Tb22 2.374 . S
O34 C29 1.250 . S
O35 Tb20 2.353 . S
O35 C29 1.263 . S
C36 O37 1.275 . S
C36 O38 1.246 . S
O37 Tb20 2.427 1_565 S
O37 C36 1.275 . S
O38 Tb20 2.513 1_565 S
O38 C36 1.246 . S
C39 O23 1.245 . S
C39 O24 1.259 . S
Tb40 O43 2.453 . S
Tb40 O44 2.596 . S
Tb40 O45 2.374 . S
Tb40 O53 2.343 . S
Tb40 O55 2.353 . S
Tb40 O57 2.427 . S
Tb40 O58 2.513 . S
C41 O45 1.251 . S
C41 O47 1.263 . S
Tb42 O44 2.343 . S
Tb42 O47 2.353 . S
Tb42 O50 2.427 . S
Tb42 O51 2.513 . S
Tb42 O52 2.453 . S
Tb42 O53 2.596 . S
Tb42 O54 2.374 . S
O43 Tb40 2.453 . S
O43 C59 1.245 . S
O44 Tb40 2.596 . S
O44 Tb42 2.343 . S
O44 C59 1.259 . S
O45 Tb40 2.374 . S
O45 C41 1.251 . S
C46 O50 1.275 . S
C46 O51 1.246 . S
O47 C41 1.263 . S
O47 Tb42 2.353 . S
C48 O52 1.245 . S
C48 O53 1.259 . S
C49 O54 1.250 . S
C49 O55 1.263 . S
O50 Tb42 2.427 . S
O50 C46 1.275 . S
O51 Tb42 2.513 . S
O51 C46 1.246 . S
O52 Tb42 2.453 . S
O52 C48 1.245 . S
O53 Tb40 2.343 . S
O53 Tb42 2.596 . S
O53 C48 1.259 . S
O54 Tb42 2.374 . S
O54 C49 1.250 . S
O55 Tb40 2.353 . S
O55 C49 1.263 . S
C56 O57 1.275 . S
C56 O58 1.246 . S
O57 Tb40 2.427 . S
O57 C56 1.275 . S
O58 Tb40 2.513 . S
O58 C56 1.246 . S
C59 O43 1.245 . S
C59 O44 1.259 . S
H60 C63 0.931 1_565 S
H61 C66 0.928 . S
H62 C68 0.930 . S
C63 H60 0.931 1_545 S
C63 C64 1.413 . S
C63 C65 1.360 . S
C64 C63 1.413 . S
C64 C68 1.429 . S
C65 C63 1.360 . S
C65 C66 1.372 . S
C66 H61 0.928 . S
C66 C65 1.372 . S
C66 C67 1.404 . S
C67 C66 1.404 . S
C67 C68 1.391 . S
C68 H62 0.930 . S
C68 C64 1.429 . S
C68 C67 1.391 . S
H69 C72 0.931 . S
H70 C75 0.928 . S
H71 C77 0.930 . S
C72 H69 0.931 . S
C72 C73 1.413 . S
C72 C74 1.360 . S
C73 C72 1.413 . S
C73 C77 1.429 . S
C74 C72 1.360 . S
C74 C75 1.372 . S
C75 H70 0.928 . S
C75 C74 1.372 . S
C75 C76 1.404 . S
C76 C75 1.404 . S
C76 C77 1.391 . S
C77 H71 0.930 . S
C77 C73 1.429 . S
C77 C76 1.391 . S
H78 C81 0.931 . S
H79 C84 0.928 . S
H80 C86 0.930 . S
C81 H78 0.931 . S
C81 C82 1.413 . S
C81 C83 1.360 . S
C82 C81 1.413 . S
C82 C86 1.429 . S
C83 C81 1.360 . S
C83 C84 1.372 . S
C84 H79 0.928 . S
C84 C83 1.372 . S
C84 C85 1.404 . S
C85 C84 1.404 . S
C85 C86 1.391 . S
C86 H80 0.930 . S
C86 C82 1.429 . S
C86 C85 1.391 . S
H87 C90 0.931 . S
H88 C93 0.928 . S
H89 C95 0.930 . S
C90 H87 0.931 . S
C90 C91 1.413 . S
C90 C92 1.360 1_655 S
C91 C90 1.413 . S
C91 C95 1.429 1_655 S
C92 C90 1.360 1_455 S
C92 C93 1.372 . S
C93 H88 0.928 . S
C93 C92 1.372 . S
C93 C94 1.404 . S
C94 C93 1.404 . S
C94 C95 1.391 . S
C95 H89 0.930 . S
C95 C91 1.429 1_455 S
C95 C94 1.391 . S
H96 C99 0.931 . S
H97 C102 0.928 . S
H98 C104 0.930 . S
C99 H96 0.931 . S
C99 C100 1.413 . S
C99 C101 1.360 . S
C100 C99 1.413 . S
C100 C104 1.429 . S
C101 C99 1.360 . S
C101 C102 1.372 1_545 S
C102 H97 0.928 . S
C102 C101 1.372 1_565 S
C102 C103 1.404 . S
C103 C102 1.404 . S
C103 C104 1.391 1_565 S
C104 H98 0.930 . S
C104 C100 1.429 . S
C104 C103 1.391 1_545 S
H105 C108 0.931 . S
H106 C111 0.928 . S
H107 C113 0.930 . S
C108 H105 0.931 . S
C108 C109 1.413 . S
C108 C110 1.360 . S
C109 C108 1.413 . S
C109 C113 1.429 . S
C110 C108 1.360 . S
C110 C111 1.372 . S
C111 H106 0.928 . S
C111 C110 1.372 . S
C111 C112 1.404 . S
C112 C111 1.404 . S
C112 C113 1.391 . S
C113 H107 0.930 . S
C113 C109 1.429 . S
C113 C112 1.391 . S
H114 C122 0.929 . S
H115 C124 0.930 . S
H116 C126 0.930 . S
H117 C129 0.929 . S
H118 C132 0.930 . S
H119 C134 0.960 . S
H120 C134 0.960 . S
H121 C134 0.960 . S
C122 H114 0.929 . S
C122 C123 1.377 . S
C122 C124 1.384 . S
C123 C122 1.377 . S
C123 C129 1.390 . S
C124 H115 0.930 . S
C124 C122 1.384 . S
C124 C125 1.372 . S
C125 C124 1.372 . S
C125 C126 1.400 . S
C125 C130 1.490 . S
C126 H116 0.930 . S
C126 C125 1.400 . S
C126 C129 1.386 . S
H127 C143 0.930 . S
H128 C144 0.931 . S
C129 H117 0.929 . S
C129 C123 1.390 . S
C129 C126 1.386 . S
C130 C125 1.490 . S
C130 C132 1.395 . S
C130 C133 1.403 . S
H131 C137 0.930 . S
C132 H118 0.930 . S
C132 C130 1.395 . S
C132 C135 1.403 . S
C133 C130 1.403 . S
C133 C134 1.524 . S
C133 C137 1.400 . S
C134 H119 0.960 . S
C134 H120 0.960 . S
C134 H121 0.960 . S
C134 C133 1.524 . S
C135 C132 1.403 . S
C135 C136 1.392 . S
C135 C139 1.495 . S
C136 C135 1.392 . S
C136 C137 1.385 . S
C136 C138 1.478 . S
C137 H131 0.930 . S
C137 C133 1.400 . S
C137 C136 1.385 . S
C138 C136 1.478 . S
C138 C140 1.381 . S
C138 C144 1.383 . S
C139 C135 1.495 . S
C139 H145 0.959 . S
C139 H146 0.961 . S
C139 H147 0.960 . S
C140 C138 1.381 . S
C140 C141 1.394 . S
C140 H148 0.930 . S
C141 C140 1.394 . S
C141 C142 1.383 . S
C141 H149 0.929 . S
C142 C141 1.383 . S
C142 C143 1.377 . S
C143 H127 0.930 . S
C143 C142 1.377 . S
C143 C144 1.379 . S
C144 H128 0.931 . S
C144 C138 1.383 . S
C144 C143 1.379 . S
H145 C139 0.959 . S
H146 C139 0.961 . S
H147 C139 0.960 . S
H148 C140 0.930 . S
H149 C141 0.929 . S
H150 C158 0.929 . S
H151 C160 0.930 . S
H152 C162 0.930 . S
H153 C165 0.929 . S
H154 C168 0.930 . S
H155 C170 0.960 . S
H156 C170 0.960 . S
H157 C170 0.960 . S
C158 H150 0.929 . S
C158 C159 1.377 . S
C158 C160 1.384 . S
C159 C158 1.377 . S
C159 C165 1.390 . S
C160 H151 0.930 . S
C160 C158 1.384 . S
C160 C161 1.372 . S
C161 C160 1.372 . S
C161 C162 1.400 . S
C161 C166 1.490 . S
C162 H152 0.930 . S
C162 C161 1.400 . S
C162 C165 1.386 . S
H163 C179 0.930 . S
H164 C180 0.931 . S
C165 H153 0.929 . S
C165 C159 1.390 . S
C165 C162 1.386 . S
C166 C161 1.490 . S
C166 C168 1.395 . S
C166 C169 1.403 . S
H167 C173 0.930 . S
C168 H154 0.930 . S
C168 C166 1.395 . S
C168 C171 1.403 . S
C169 C166 1.403 . S
C169 C170 1.524 . S
C169 C173 1.400 . S
C170 H155 0.960 . S
C170 H156 0.960 . S
C170 H157 0.960 . S
C170 C169 1.524 . S
C171 C168 1.403 . S
C171 C172 1.392 . S
C171 C175 1.495 . S
C172 C171 1.392 . S
C172 C173 1.385 . S
C172 C174 1.478 . S
C173 H167 0.930 . S
C173 C169 1.400 . S
C173 C172 1.385 . S
C174 C172 1.478 . S
C174 C176 1.381 . S
C174 C180 1.383 . S
C175 C171 1.495 . S
C175 H181 0.959 . S
C175 H182 0.961 . S
C175 H183 0.960 . S
C176 C174 1.381 . S
C176 C177 1.394 . S
C176 H184 0.930 . S
C177 C176 1.394 . S
C177 C178 1.383 . S
C177 H185 0.929 . S
C178 C177 1.383 . S
C178 C179 1.377 . S
C179 H163 0.930 . S
C179 C178 1.377 . S
C179 C180 1.379 . S
C180 H164 0.931 . S
C180 C174 1.383 . S
C180 C179 1.379 . S
H181 C175 0.959 . S
H182 C175 0.961 . S
H183 C175 0.960 . S
H184 C176 0.930 . S
H185 C177 0.929 . S
H186 C194 0.929 . S
H187 C196 0.930 . S
H188 C198 0.930 . S
H189 C201 0.929 . S
H190 C204 0.930 . S
H191 C206 0.960 . S
H192 C206 0.960 . S
H193 C206 0.960 . S
C194 H186 0.929 . S
C194 C195 1.377 . S
C194 C196 1.384 . S
C195 C194 1.377 . S
C195 C201 1.390 . S
C196 H187 0.930 . S
C196 C194 1.384 . S
C196 C197 1.372 . S
C197 C196 1.372 . S
C197 C198 1.400 . S
C197 C202 1.490 . S
C198 H188 0.930 . S
C198 C197 1.400 . S
C198 C201 1.386 . S
H199 C215 0.930 . S
H200 C216 0.931 . S
C201 H189 0.929 . S
C201 C195 1.390 . S
C201 C198 1.386 . S
C202 C197 1.490 . S
C202 C204 1.395 . S
C202 C205 1.403 . S
H203 C209 0.930 . S
C204 H190 0.930 . S
C204 C202 1.395 . S
C204 C207 1.403 . S
C205 C202 1.403 . S
C205 C206 1.524 . S
C205 C209 1.400 . S
C206 H191 0.960 . S
C206 H192 0.960 . S
C206 H193 0.960 . S
C206 C205 1.524 . S
C207 C204 1.403 . S
C207 C208 1.392 . S
C207 C211 1.495 . S
C208 C207 1.392 . S
C208 C209 1.385 . S
C208 C210 1.478 . S
C209 H203 0.930 . S
C209 C205 1.400 . S
C209 C208 1.385 . S
C210 C208 1.478 . S
C210 C212 1.381 . S
C210 C216 1.383 . S
C211 C207 1.495 . S
C211 H217 0.959 . S
C211 H218 0.961 . S
C211 H219 0.960 . S
C212 C210 1.381 . S
C212 C213 1.394 . S
C212 H220 0.930 . S
C213 C212 1.394 . S
C213 C214 1.383 . S
C213 H221 0.929 . S
C214 C213 1.383 . S
C214 C215 1.377 . S
C215 H199 0.930 . S
C215 C214 1.377 . S
C215 C216 1.379 . S
C216 H200 0.931 . S
C216 C210 1.383 . S
C216 C215 1.379 . S
H217 C211 0.959 . S
H218 C211 0.961 . S
H219 C211 0.960 . S
H220 C212 0.930 . S
H221 C213 0.929 . S
H222 C230 0.929 . S
H223 C232 0.930 . S
H224 C234 0.930 . S
H225 C237 0.929 . S
H226 C240 0.930 . S
H227 C242 0.960 . S
H228 C242 0.960 . S
H229 C242 0.960 . S
C230 H222 0.929 . S
C230 C231 1.377 . S
C230 C232 1.384 . S
C231 C230 1.377 . S
C231 C237 1.390 . S
C232 H223 0.930 . S
C232 C230 1.384 . S
C232 C233 1.372 . S
C233 C232 1.372 . S
C233 C234 1.400 . S
C233 C238 1.490 . S
C234 H224 0.930 . S
C234 C233 1.400 . S
C234 C237 1.386 . S
H235 C251 0.930 . S
H236 C252 0.931 . S
C237 H225 0.929 . S
C237 C231 1.390 . S
C237 C234 1.386 . S
C238 C233 1.490 . S
C238 C240 1.395 . S
C238 C241 1.403 . S
H239 C245 0.930 . S
C240 H226 0.930 . S
C240 C238 1.395 . S
C240 C243 1.403 . S
C241 C238 1.403 . S
C241 C242 1.524 . S
C241 C245 1.400 . S
C242 H227 0.960 . S
C242 H228 0.960 . S
C242 H229 0.960 . S
C242 C241 1.524 . S
C243 C240 1.403 . S
C243 C244 1.392 . S
C243 C247 1.495 . S
C244 C243 1.392 . S
C244 C245 1.385 . S
C244 C246 1.478 . S
C245 H239 0.930 . S
C245 C241 1.400 . S
C245 C244 1.385 . S
C246 C244 1.478 . S
C246 C248 1.381 . S
C246 C252 1.383 . S
C247 C243 1.495 . S
C247 H253 0.959 . S
C247 H254 0.961 . S
C247 H255 0.960 . S
C248 C246 1.381 . S
C248 C249 1.394 . S
C248 H256 0.930 . S
C249 C248 1.394 . S
C249 C250 1.383 . S
C249 H257 0.929 . S
C250 C249 1.383 . S
C250 C251 1.377 . S
C251 H235 0.930 . S
C251 C250 1.377 . S
C251 C252 1.379 . S
C252 H236 0.931 . S
C252 C246 1.383 . S
C252 C251 1.379 . S
H253 C247 0.959 . S
H254 C247 0.961 . S
H255 C247 0.960 . S
H256 C248 0.930 . S
H257 C249 0.929 . S
H258 C266 0.929 . S
H259 C268 0.930 . S
H260 C270 0.930 . S
H261 C273 0.929 . S
H262 C276 0.930 . S
H263 C278 0.960 . S
H264 C278 0.960 . S
H265 C278 0.960 . S
C266 H258 0.929 . S
C266 C267 1.377 . S
C266 C268 1.384 . S
C267 C266 1.377 . S
C267 C273 1.390 . S
C268 H259 0.930 . S
C268 C266 1.384 . S
C268 C269 1.372 . S
C269 C268 1.372 . S
C269 C270 1.400 . S
C269 C274 1.490 . S
C270 H260 0.930 . S
C270 C269 1.400 . S
C270 C273 1.386 . S
H271 C287 0.930 . S
H272 C288 0.931 . S
C273 H261 0.929 . S
C273 C267 1.390 . S
C273 C270 1.386 . S
C274 C269 1.490 . S
C274 C276 1.395 . S
C274 C277 1.403 . S
H275 C281 0.930 . S
C276 H262 0.930 . S
C276 C274 1.395 . S
C276 C279 1.403 . S
C277 C274 1.403 . S
C277 C278 1.524 . S
C277 C281 1.400 . S
C278 H263 0.960 . S
C278 H264 0.960 . S
C278 H265 0.960 . S
C278 C277 1.524 . S
C279 C276 1.403 . S
C279 C280 1.392 . S
C279 C283 1.495 . S
C280 C279 1.392 . S
C280 C281 1.385 . S
C280 C282 1.478 . S
C281 H275 0.930 . S
C281 C277 1.400 . S
C281 C280 1.385 . S
C282 C280 1.478 . S
C282 C284 1.381 . S
C282 C288 1.383 . S
C283 C279 1.495 . S
C283 H289 0.959 . S
C283 H290 0.961 . S
C283 H291 0.960 . S
C284 C282 1.381 . S
C284 C285 1.394 . S
C284 H292 0.930 . S
C285 C284 1.394 . S
C285 C286 1.383 . S
C285 H293 0.929 . S
C286 C285 1.383 . S
C286 C287 1.377 . S
C287 H271 0.930 . S
C287 C286 1.377 . S
C287 C288 1.379 . S
C288 H272 0.931 . S
C288 C282 1.383 . S
C288 C287 1.379 . S
H289 C283 0.959 . S
H290 C283 0.961 . S
H291 C283 0.960 . S
H292 C284 0.930 . S
H293 C285 0.929 . S
H294 C302 0.929 . S
H295 C304 0.930 . S
H296 C306 0.930 . S
H297 C309 0.929 . S
H298 C312 0.930 . S
H299 C314 0.960 . S
H300 C314 0.960 . S
H301 C314 0.960 . S
C302 H294 0.929 . S
C302 C303 1.377 . S
C302 C304 1.384 . S
C303 C302 1.377 . S
C303 C309 1.390 . S
C304 H295 0.930 . S
C304 C302 1.384 . S
C304 C305 1.372 . S
C305 C304 1.372 . S
C305 C306 1.400 . S
C305 C310 1.490 . S
C306 H296 0.930 . S
C306 C305 1.400 . S
C306 C309 1.386 . S
H307 C323 0.930 . S
H308 C324 0.931 . S
C309 H297 0.929 . S
C309 C303 1.390 . S
C309 C306 1.386 . S
C310 C305 1.490 . S
C310 C312 1.395 . S
C310 C313 1.403 . S
H311 C317 0.930 . S
C312 H298 0.930 . S
C312 C310 1.395 . S
C312 C315 1.403 . S
C313 C310 1.403 . S
C313 C314 1.524 . S
C313 C317 1.400 . S
C314 H299 0.960 . S
C314 H300 0.960 . S
C314 H301 0.960 . S
C314 C313 1.524 . S
C315 C312 1.403 . S
C315 C316 1.392 . S
C315 C319 1.495 . S
C316 C315 1.392 . S
C316 C317 1.385 . S
C316 C318 1.478 . S
C317 H311 0.930 . S
C317 C313 1.400 . S
C317 C316 1.385 . S
C318 C316 1.478 . S
C318 C320 1.381 . S
C318 C324 1.383 . S
C319 C315 1.495 . S
C319 H325 0.959 . S
C319 H326 0.961 . S
C319 H327 0.960 . S
C320 C318 1.381 . S
C320 C321 1.394 . S
C320 H328 0.930 . S
C321 C320 1.394 . S
C321 C322 1.383 . S
C321 H329 0.929 . S
C322 C321 1.383 . S
C322 C323 1.377 . S
C323 H307 0.930 . S
C323 C322 1.377 . S
C323 C324 1.379 . S
C324 H308 0.931 . S
C324 C318 1.383 . S
C324 C323 1.379 . S
H325 C319 0.959 . S
H326 C319 0.961 . S
H327 C319 0.960 . S
H328 C320 0.930 . S
H329 C321 0.929 . S
H330 C338 0.929 . S
H331 C340 0.930 . S
H332 C342 0.930 . S
H333 C345 0.929 . S
H334 C348 0.930 . S
H335 C350 0.960 . S
H336 C350 0.960 . S
H337 C350 0.960 . S
C338 H330 0.929 . S
C338 C339 1.377 . S
C338 C340 1.384 . S
C339 C338 1.377 . S
C339 C345 1.390 . S
C340 H331 0.930 . S
C340 C338 1.384 . S
C340 C341 1.372 . S
C341 C340 1.372 . S
C341 C342 1.400 . S
C341 C346 1.490 . S
C342 H332 0.930 . S
C342 C341 1.400 . S
C342 C345 1.386 . S
H343 C359 0.930 . S
H344 C360 0.931 . S
C345 H333 0.929 . S
C345 C339 1.390 . S
C345 C342 1.386 . S
C346 C341 1.490 . S
C346 C348 1.395 . S
C346 C349 1.403 . S
H347 C353 0.930 . S
C348 H334 0.930 . S
C348 C346 1.395 . S
C348 C351 1.403 . S
C349 C346 1.403 . S
C349 C350 1.524 . S
C349 C353 1.400 . S
C350 H335 0.960 . S
C350 H336 0.960 . S
C350 H337 0.960 . S
C350 C349 1.524 . S
C351 C348 1.403 . S
C351 C352 1.392 . S
C351 C355 1.495 . S
C352 C351 1.392 . S
C352 C353 1.385 . S
C352 C354 1.478 . S
C353 H347 0.930 . S
C353 C349 1.400 . S
C353 C352 1.385 . S
C354 C352 1.478 . S
C354 C356 1.381 . S
C354 C360 1.383 . S
C355 C351 1.495 . S
C355 H361 0.959 . S
C355 H362 0.961 . S
C355 H363 0.960 . S
C356 C354 1.381 . S
C356 C357 1.394 . S
C356 H364 0.930 . S
C357 C356 1.394 . S
C357 C358 1.383 . S
C357 H365 0.929 . S
C358 C357 1.383 . S
C358 C359 1.377 . S
C359 H343 0.930 . S
C359 C358 1.377 . S
C359 C360 1.379 . S
C360 H344 0.931 . S
C360 C354 1.383 . S
C360 C359 1.379 . S
H361 C355 0.959 . S
H362 C355 0.961 . S
H363 C355 0.960 . S
H364 C356 0.930 . S
H365 C357 0.929 . S
H366 C374 0.929 . S
H367 C376 0.930 . S
H368 C378 0.930 . S
H369 C381 0.929 . S
H370 C384 0.930 . S
H371 C386 0.960 . S
H372 C386 0.960 . S
H373 C386 0.960 . S
C374 H366 0.929 . S
C374 C375 1.377 . S
C374 C376 1.384 . S
C375 C374 1.377 . S
C375 C381 1.390 . S
C376 H367 0.930 . S
C376 C374 1.384 . S
C376 C377 1.372 . S
C377 C376 1.372 . S
C377 C378 1.400 . S
C377 C382 1.490 . S
C378 H368 0.930 . S
C378 C377 1.400 . S
C378 C381 1.386 . S
H379 C395 0.930 . S
H380 C396 0.931 . S
C381 H369 0.929 . S
C381 C375 1.390 . S
C381 C378 1.386 . S
C382 C377 1.490 . S
C382 C384 1.395 . S
C382 C385 1.403 . S
H383 C389 0.930 . S
C384 H370 0.930 . S
C384 C382 1.395 . S
C384 C387 1.403 . S
C385 C382 1.403 . S
C385 C386 1.524 . S
C385 C389 1.400 . S
C386 H371 0.960 . S
C386 H372 0.960 . S
C386 H373 0.960 . S
C386 C385 1.524 . S
C387 C384 1.403 . S
C387 C388 1.392 . S
C387 C391 1.495 . S
C388 C387 1.392 . S
C388 C389 1.385 . S
C388 C390 1.478 . S
C389 H383 0.930 . S
C389 C385 1.400 . S
C389 C388 1.385 . S
C390 C388 1.478 . S
C390 C392 1.381 . S
C390 C396 1.383 . S
C391 C387 1.495 . S
C391 H397 0.959 . S
C391 H398 0.961 . S
C391 H399 0.960 . S
C392 C390 1.381 . S
C392 C393 1.394 1_655 S
C392 H400 0.930 . S
C393 C392 1.394 1_455 S
C393 C394 1.383 . S
C393 H401 0.929 . S
C394 C393 1.383 . S
C394 C395 1.377 1_455 S
C395 H379 0.930 . S
C395 C394 1.377 1_655 S
C395 C396 1.379 . S
C396 H380 0.931 . S
C396 C390 1.383 . S
C396 C395 1.379 . S
H397 C391 0.959 . S
H398 C391 0.961 . S
H399 C391 0.960 . S
H400 C392 0.930 . S
H401 C393 0.929 . S
H402 C410 0.929 . S
H403 C412 0.930 . S
H404 C414 0.930 . S
H405 C417 0.929 . S
H406 C420 0.930 . S
H407 C422 0.960 . S
H408 C422 0.960 . S
H409 C422 0.960 . S
C410 H402 0.929 . S
C410 C411 1.377 . S
C410 C412 1.384 . S
C411 C410 1.377 . S
C411 C417 1.390 . S
C412 H403 0.930 . S
C412 C410 1.384 . S
C412 C413 1.372 . S
C413 C412 1.372 . S
C413 C414 1.400 . S
C413 C418 1.490 . S
C414 H404 0.930 . S
C414 C413 1.400 . S
C414 C417 1.386 . S
H415 C431 0.930 . S
H416 C432 0.931 . S
C417 H405 0.929 . S
C417 C411 1.390 . S
C417 C414 1.386 . S
C418 C413 1.490 . S
C418 C420 1.395 . S
C418 C421 1.403 . S
H419 C425 0.930 . S
C420 H406 0.930 . S
C420 C418 1.395 . S
C420 C423 1.403 . S
C421 C418 1.403 . S
C421 C422 1.524 . S
C421 C425 1.400 . S
C422 H407 0.960 . S
C422 H408 0.960 . S
C422 H409 0.960 . S
C422 C421 1.524 . S
C423 C420 1.403 . S
C423 C424 1.392 . S
C423 C427 1.495 . S
C424 C423 1.392 . S
C424 C425 1.385 . S
C424 C426 1.478 . S
C425 H419 0.930 . S
C425 C421 1.400 . S
C425 C424 1.385 . S
C426 C424 1.478 . S
C426 C428 1.381 . S
C426 C432 1.383 . S
C427 C423 1.495 . S
C427 H433 0.959 . S
C427 H434 0.961 . S
C427 H435 0.960 . S
C428 C426 1.381 . S
C428 C429 1.394 . S
C428 H436 0.930 . S
C429 C428 1.394 . S
C429 C430 1.383 . S
C429 H437 0.929 . S
C430 C429 1.383 . S
C430 C431 1.377 . S
C431 H415 0.930 . S
C431 C430 1.377 . S
C431 C432 1.379 . S
C432 H416 0.931 . S
C432 C426 1.383 . S
C432 C431 1.379 . S
H433 C427 0.959 . S
H434 C427 0.961 . S
H435 C427 0.960 . S
H436 C428 0.930 . S
H437 C429 0.929 . S
H438 C446 0.929 . S
H439 C448 0.930 . S
H440 C450 0.930 . S
H441 C453 0.929 . S
H442 C456 0.930 . S
H443 C458 0.960 . S
H444 C458 0.960 . S
H445 C458 0.960 . S
C446 H438 0.929 . S
C446 C447 1.377 . S
C446 C448 1.384 . S
C447 C446 1.377 . S
C447 C453 1.390 . S
C448 H439 0.930 . S
C448 C446 1.384 . S
C448 C449 1.372 . S
C449 C448 1.372 . S
C449 C450 1.400 . S
C449 C454 1.490 . S
C450 H440 0.930 . S
C450 C449 1.400 . S
C450 C453 1.386 . S
H451 C467 0.930 . S
H452 C468 0.931 . S
C453 H441 0.929 . S
C453 C447 1.390 . S
C453 C450 1.386 . S
C454 C449 1.490 . S
C454 C456 1.395 . S
C454 C457 1.403 . S
H455 C461 0.930 . S
C456 H442 0.930 . S
C456 C454 1.395 . S
C456 C459 1.403 . S
C457 C454 1.403 . S
C457 C458 1.524 . S
C457 C461 1.400 . S
C458 H443 0.960 . S
C458 H444 0.960 . S
C458 H445 0.960 . S
C458 C457 1.524 . S
C459 C456 1.403 . S
C459 C460 1.392 . S
C459 C463 1.495 . S
C460 C459 1.392 . S
C460 C461 1.385 . S
C460 C462 1.478 . S
C461 H455 0.930 . S
C461 C457 1.400 . S
C461 C460 1.385 . S
C462 C460 1.478 . S
C462 C464 1.381 . S
C462 C468 1.383 . S
C463 C459 1.495 . S
C463 H469 0.959 . S
C463 H470 0.961 . S
C463 H471 0.960 . S
C464 C462 1.381 . S
C464 C465 1.394 . S
C464 H472 0.930 . S
C465 C464 1.394 . S
C465 C466 1.383 . S
C465 H473 0.929 . S
C466 C465 1.383 . S
C466 C467 1.377 . S
C467 H451 0.930 . S
C467 C466 1.377 . S
C467 C468 1.379 . S
C468 H452 0.931 . S
C468 C462 1.383 . S
C468 C467 1.379 . S
H469 C463 0.959 . S
H470 C463 0.961 . S
H471 C463 0.960 . S
H472 C464 0.930 . S
H473 C465 0.929 . S
H474 C482 0.929 . S
H475 C484 0.930 . S
H476 C486 0.930 . S
H477 C489 0.929 . S
H478 C492 0.930 . S
H479 C494 0.960 . S
H480 C494 0.960 . S
H481 C494 0.960 . S
C482 H474 0.929 . S
C482 C483 1.377 . S
C482 C484 1.384 . S
C483 C482 1.377 . S
C483 C489 1.390 . S
C484 H475 0.930 . S
C484 C482 1.384 . S
C484 C485 1.372 . S
C485 C484 1.372 . S
C485 C486 1.400 . S
C485 C490 1.490 . S
C486 H476 0.930 . S
C486 C485 1.400 . S
C486 C489 1.386 . S
H487 C503 0.930 . S
H488 C504 0.931 . S
C489 H477 0.929 . S
C489 C483 1.390 . S
C489 C486 1.386 . S
C490 C485 1.490 . S
C490 C492 1.395 . S
C490 C493 1.403 . S
H491 C497 0.930 . S
C492 H478 0.930 . S
C492 C490 1.395 . S
C492 C495 1.403 . S
C493 C490 1.403 . S
C493 C494 1.524 . S
C493 C497 1.400 . S
C494 H479 0.960 . S
C494 H480 0.960 . S
C494 H481 0.960 . S
C494 C493 1.524 . S
C495 C492 1.403 . S
C495 C496 1.392 . S
C495 C499 1.495 . S
C496 C495 1.392 . S
C496 C497 1.385 . S
C496 C498 1.478 . S
C497 H491 0.930 . S
C497 C493 1.400 . S
C497 C496 1.385 . S
C498 C496 1.478 . S
C498 C500 1.381 . S
C498 C504 1.383 . S
C499 C495 1.495 . S
C499 H505 0.959 . S
C499 H506 0.961 . S
C499 H507 0.960 . S
C500 C498 1.381 . S
C500 C501 1.394 . S
C500 H508 0.930 . S
C501 C500 1.394 . S
C501 C502 1.383 . S
C501 H509 0.929 . S
C502 C501 1.383 . S
C502 C503 1.377 . S
C503 H487 0.930 . S
C503 C502 1.377 . S
C503 C504 1.379 . S
C504 H488 0.931 . S
C504 C498 1.383 . S
C504 C503 1.379 . S
H505 C499 0.959 . S
H506 C499 0.961 . S
H507 C499 0.960 . S
H508 C500 0.930 . S
H509 C501 0.929 . S
H510 C518 0.929 . S
H511 C520 0.930 . S
H512 C522 0.930 . S
H513 C525 0.929 . S
H514 C528 0.930 . S
H515 C530 0.960 . S
H516 C530 0.960 . S
H517 C530 0.960 . S
C518 H510 0.929 . S
C518 C519 1.377 . S
C518 C520 1.384 . S
C519 C518 1.377 . S
C519 C525 1.390 . S
C520 H511 0.930 . S
C520 C518 1.384 . S
C520 C521 1.372 . S
C521 C520 1.372 . S
C521 C522 1.400 . S
C521 C526 1.490 . S
C522 H512 0.930 . S
C522 C521 1.400 . S
C522 C525 1.386 . S
H523 C539 0.930 . S
H524 C540 0.931 . S
C525 H513 0.929 . S
C525 C519 1.390 . S
C525 C522 1.386 . S
C526 C521 1.490 . S
C526 C528 1.395 . S
C526 C529 1.403 . S
H527 C533 0.930 . S
C528 H514 0.930 . S
C528 C526 1.395 . S
C528 C531 1.403 . S
C529 C526 1.403 . S
C529 C530 1.524 . S
C529 C533 1.400 . S
C530 H515 0.960 . S
C530 H516 0.960 . S
C530 H517 0.960 . S
C530 C529 1.524 . S
C531 C528 1.403 . S
C531 C532 1.392 . S
C531 C535 1.495 . S
C532 C531 1.392 . S
C532 C533 1.385 . S
C532 C534 1.478 . S
C533 H527 0.930 . S
C533 C529 1.400 . S
C533 C532 1.385 . S
C534 C532 1.478 . S
C534 C536 1.381 . S
C534 C540 1.383 . S
C535 C531 1.495 . S
C535 H541 0.959 . S
C535 H542 0.961 . S
C535 H543 0.960 . S
C536 C534 1.381 . S
C536 C537 1.394 . S
C536 H544 0.930 . S
C537 C536 1.394 . S
C537 C538 1.383 . S
C537 H545 0.929 . S
C538 C537 1.383 . S
C538 C539 1.377 . S
C539 H523 0.930 . S
C539 C538 1.377 . S
C539 C540 1.379 . S
C540 H524 0.931 . S
C540 C534 1.383 . S
C540 C539 1.379 . S
H541 C535 0.959 . S
H542 C535 0.961 . S
H543 C535 0.960 . S
H544 C536 0.930 . S
H545 C537 0.929 . S
H546 C554 0.929 1_655 S
H547 C556 0.930 1_655 S
H548 C558 0.930 . S
H549 C561 0.929 . S
H550 C564 0.930 . S
H551 C566 0.960 . S
H552 C566 0.960 . S
H553 C566 0.960 . S
C554 H546 0.929 1_455 S
C554 C555 1.377 . S
C554 C556 1.384 . S
C555 C554 1.377 . S
C555 C561 1.390 . S
C556 H547 0.930 1_455 S
C556 C554 1.384 . S
C556 C557 1.372 . S
C557 C556 1.372 . S
C557 C558 1.400 . S
C557 C562 1.490 . S
C558 H548 0.930 . S
C558 C557 1.400 . S
C558 C561 1.386 . S
H559 C575 0.930 . S
H560 C576 0.931 . S
C561 H549 0.929 . S
C561 C555 1.390 . S
C561 C558 1.386 . S
C562 C557 1.490 . S
C562 C564 1.395 . S
C562 C565 1.403 . S
H563 C569 0.930 1_556 S
C564 H550 0.930 . S
C564 C562 1.395 . S
C564 C567 1.403 . S
C565 C562 1.403 . S
C565 C566 1.524 . S
C565 C569 1.400 . S
C566 H551 0.960 . S
C566 H552 0.960 . S
C566 H553 0.960 . S
C566 C565 1.524 . S
C567 C564 1.403 . S
C567 C568 1.392 1_554 S
C567 C571 1.516 . S
C568 C567 1.392 1_556 S
C568 C569 1.385 1_556 S
C568 C570 1.478 . S
C569 H563 0.930 1_554 S
C569 C565 1.400 . S
C569 C568 1.385 1_554 S
C570 C568 1.478 . S
C570 C572 1.381 . S
C570 C576 1.383 . S
C571 C567 1.516 . S
C571 H577 1.001 1_455 S
C571 H578 0.938 1_554 S
C571 H579 0.923 1_454 S
C572 C570 1.381 . S
C572 C573 1.394 . S
C572 H580 0.934 . S
C573 C572 1.394 . S
C573 C574 1.383 . S
C573 H581 0.929 . S
C574 C573 1.383 . S
C574 C575 1.377 . S
C575 H559 0.930 . S
C575 C574 1.377 . S
C575 C576 1.379 . S
C576 H560 0.931 . S
C576 C570 1.383 . S
C576 C575 1.379 . S
H577 C571 1.001 1_655 S
H578 C571 0.938 1_556 S
H579 C571 0.923 1_656 S
H580 C572 0.934 . S
H581 C573 0.929 . S
H582 C590 0.929 . S
H583 C592 0.930 . S
H584 C594 0.930 1_565 S
H585 C597 0.929 1_565 S
H586 C600 0.930 . S
H587 C602 0.960 . S
H588 C602 0.960 . S
H589 C602 0.960 . S
C590 H582 0.929 . S
C590 C591 1.377 . S
C590 C592 1.384 . S
C591 C590 1.377 . S
C591 C597 1.390 . S
C592 H583 0.930 . S
C592 C590 1.384 . S
C592 C593 1.372 . S
C593 C592 1.372 . S
C593 C594 1.400 . S
C593 C598 1.490 . S
C594 H584 0.930 1_545 S
C594 C593 1.400 . S
C594 C597 1.386 . S
H595 C611 0.930 1_565 S
H596 C612 0.931 1_565 S
C597 H585 0.929 1_545 S
C597 C591 1.390 . S
C597 C594 1.386 . S
C598 C593 1.490 . S
C598 C600 1.395 . S
C598 C601 1.403 . S
H599 C605 0.930 . S
C600 H586 0.930 . S
C600 C598 1.395 . S
C600 C603 1.403 . S
C601 C598 1.403 . S
C601 C602 1.524 . S
C601 C605 1.400 . S
C602 H587 0.960 . S
C602 H588 0.960 . S
C602 H589 0.960 . S
C602 C601 1.524 . S
C603 C600 1.403 . S
C603 C604 1.392 . S
C603 C607 1.495 . S
C604 C603 1.392 . S
C604 C605 1.385 . S
C604 C606 1.478 . S
C605 H599 0.930 . S
C605 C601 1.400 . S
C605 C604 1.385 . S
C606 C604 1.478 . S
C606 C608 1.381 . S
C606 C612 1.383 . S
C607 C603 1.495 . S
C607 H613 0.959 . S
C607 H614 0.961 . S
C607 H615 0.960 . S
C608 C606 1.381 . S
C608 C609 1.394 . S
C608 H616 0.930 . S
C609 C608 1.394 . S
C609 C610 1.383 . S
C609 H617 0.929 . S
C610 C609 1.383 . S
C610 C611 1.377 . S
C611 H595 0.930 1_545 S
C611 C610 1.377 . S
C611 C612 1.379 . S
C612 H596 0.931 1_545 S
C612 C606 1.383 . S
C612 C611 1.379 . S
H613 C607 0.959 . S
H614 C607 0.961 . S
H615 C607 0.960 . S
H616 C608 0.930 . S
H617 C609 0.929 . S
H618 C626 0.929 . S
H619 C628 0.930 . S
H620 C630 0.930 . S
H621 C633 0.929 . S
H622 C636 0.930 . S
H623 C638 0.960 . S
H624 C638 0.960 . S
H625 C638 0.960 . S
C626 H618 0.929 . S
C626 C627 1.377 . S
C626 C628 1.384 . S
C627 C626 1.377 . S
C627 C633 1.390 . S
C628 H619 0.930 . S
C628 C626 1.384 . S
C628 C629 1.372 . S
C629 C628 1.372 . S
C629 C630 1.400 . S
C629 C634 1.490 . S
C630 H620 0.930 . S
C630 C629 1.400 . S
C630 C633 1.386 . S
H631 C647 0.930 . S
H632 C648 0.931 . S
C633 H621 0.929 . S
C633 C627 1.390 . S
C633 C630 1.386 . S
C634 C629 1.490 . S
C634 C636 1.395 . S
C634 C637 1.403 . S
H635 C641 0.930 . S
C636 H622 0.930 . S
C636 C634 1.395 . S
C636 C639 1.403 . S
C637 C634 1.403 . S
C637 C638 1.524 . S
C637 C641 1.400 . S
C638 H623 0.960 . S
C638 H624 0.960 . S
C638 H625 0.960 . S
C638 C637 1.524 . S
C639 C636 1.403 . S
C639 C640 1.392 . S
C639 C643 1.495 . S
C640 C639 1.392 . S
C640 C641 1.385 . S
C640 C642 1.478 . S
C641 H635 0.930 . S
C641 C637 1.400 . S
C641 C640 1.385 . S
C642 C640 1.478 . S
C642 C644 1.381 . S
C642 C648 1.383 . S
C643 C639 1.495 . S
C643 H649 0.959 . S
C643 H650 0.961 . S
C643 H651 0.960 . S
C644 C642 1.381 . S
C644 C645 1.394 . S
C644 H652 0.930 . S
C645 C644 1.394 . S
C645 C646 1.383 . S
C645 H653 0.929 . S
C646 C645 1.383 . S
C646 C647 1.377 . S
C647 H631 0.930 . S
C647 C646 1.377 . S
C647 C648 1.379 . S
C648 H632 0.931 . S
C648 C642 1.383 . S
C648 C647 1.379 . S
H649 C643 0.959 . S
H650 C643 0.961 . S
H651 C643 0.960 . S
H652 C644 0.930 . S
H653 C645 0.929 . S
H654 C662 0.929 . S
H655 C664 0.930 . S
H656 C666 0.930 . S
H657 C669 0.929 . S
H658 C672 0.930 . S
H659 C674 0.960 . S
H660 C674 0.960 . S
H661 C674 0.960 1_565 S
C662 H654 0.929 . S
C662 C663 1.377 . S
C662 C664 1.384 . S
C663 C662 1.377 . S
C663 C669 1.390 1_545 S
C664 H655 0.930 . S
C664 C662 1.384 . S
C664 C665 1.372 . S
C665 C664 1.372 . S
C665 C666 1.400 1_545 S
C665 C670 1.490 . S
C666 H656 0.930 . S
C666 C665 1.400 1_565 S
C666 C669 1.386 . S
H667 C683 0.930 . S
H668 C684 0.931 . S
C669 H657 0.929 . S
C669 C663 1.390 1_565 S
C669 C666 1.386 . S
C670 C665 1.490 . S
C670 C672 1.395 . S
C670 C673 1.403 . S
H671 C677 0.930 . S
C672 H658 0.930 . S
C672 C670 1.395 . S
C672 C675 1.403 . S
C673 C670 1.403 . S
C673 C674 1.524 . S
C673 C677 1.400 . S
C674 H659 0.960 . S
C674 H660 0.960 . S
C674 H661 0.960 1_545 S
C674 C673 1.524 . S
C675 C672 1.403 . S
C675 C676 1.392 . S
C675 C679 1.495 . S
C676 C675 1.392 . S
C676 C677 1.385 . S
C676 C678 1.478 . S
C677 H671 0.930 . S
C677 C673 1.400 . S
C677 C676 1.385 . S
C678 C676 1.478 . S
C678 C680 1.381 . S
C678 C684 1.383 1_545 S
C679 C675 1.495 . S
C679 H685 0.959 . S
C679 H686 0.961 . S
C679 H687 0.960 . S
C680 C678 1.381 . S
C680 C681 1.394 . S
C680 H688 0.930 . S
C681 C680 1.394 . S
C681 C682 1.383 . S
C681 H689 0.929 . S
C682 C681 1.383 . S
C682 C683 1.377 1_545 S
C683 H667 0.930 . S
C683 C682 1.377 1_565 S
C683 C684 1.379 . S
C684 H668 0.931 . S
C684 C678 1.383 1_565 S
C684 C683 1.379 . S
H685 C679 0.959 . S
H686 C679 0.961 . S
H687 C679 0.960 . S
H688 C680 0.930 . S
H689 C681 0.929 . S
H690 C698 0.929 . S
H691 C700 0.930 . S
H692 C702 0.930 . S
H693 C705 0.929 . S
H694 C708 0.930 . S
H695 C710 0.960 . S
H696 C710 0.960 . S
H697 C710 0.960 . S
C698 H690 0.929 . S
C698 C699 1.377 . S
C698 C700 1.384 . S
C699 C698 1.377 . S
C699 C705 1.390 . S
C700 H691 0.930 . S
C700 C698 1.384 . S
C700 C701 1.372 . S
C701 C700 1.372 . S
C701 C702 1.400 . S
C701 C706 1.490 . S
C702 H692 0.930 . S
C702 C701 1.400 . S
C702 C705 1.386 . S
H703 C719 0.930 . S
H704 C720 0.931 . S
C705 H693 0.929 . S
C705 C699 1.390 . S
C705 C702 1.386 . S
C706 C701 1.490 . S
C706 C708 1.395 . S
C706 C709 1.403 . S
H707 C713 0.901 1_554 S
C708 H694 0.930 . S
C708 C706 1.395 . S
C708 C711 1.403 . S
C709 C706 1.403 . S
C709 C710 1.524 . S
C709 C713 1.400 . S
C710 H695 0.960 . S
C710 H696 0.960 . S
C710 H697 0.960 . S
C710 C709 1.524 . S
C711 C708 1.403 . S
C711 C712 1.392 1_556 S
C711 C715 1.495 . S
C712 C711 1.392 1_554 S
C712 C713 1.385 1_554 S
C712 C714 1.478 . S
C713 H707 0.901 1_556 S
C713 C709 1.400 . S
C713 C712 1.385 1_556 S
C714 C712 1.478 . S
C714 C716 1.381 . S
C714 C720 1.383 . S
C715 C711 1.495 . S
C715 H721 0.959 . S
C715 H722 0.961 1_556 S
C715 H723 0.960 1_556 S
C716 C714 1.381 . S
C716 C717 1.394 . S
C716 H724 0.930 . S
C717 C716 1.394 . S
C717 C718 1.383 . S
C717 H725 0.929 . S
C718 C717 1.383 . S
C718 C719 1.377 . S
C719 H703 0.930 . S
C719 C718 1.377 . S
C719 C720 1.379 . S
C720 H704 0.931 . S
C720 C714 1.383 . S
C720 C719 1.379 . S
H721 C715 0.959 . S
H722 C715 0.961 1_554 S
H723 C715 0.960 1_554 S
H724 C716 0.930 . S
H725 C717 0.929 . S
H726 C734 0.929 . S
H727 C736 0.930 . S
H728 C738 0.930 . S
H729 C741 0.929 . S
H730 C744 0.930 1_655 S
H731 C746 0.960 . S
H732 C746 0.960 1_655 S
H733 C746 0.960 . S
C734 H726 0.929 . S
C734 C735 1.377 1_655 S
C734 C736 1.384 . S
C735 C734 1.377 1_455 S
C735 C741 1.390 . S
C736 H727 0.930 . S
C736 C734 1.384 . S
C736 C737 1.372 1_655 S
C737 C736 1.372 1_455 S
C737 C738 1.400 . S
C737 C742 1.490 . S
C738 H728 0.930 . S
C738 C737 1.400 . S
C738 C741 1.386 . S
H739 C755 0.930 . S
H740 C756 0.931 . S
C741 H729 0.929 . S
C741 C735 1.390 . S
C741 C738 1.386 . S
C742 C737 1.490 . S
C742 C744 1.395 . S
C742 C745 1.403 . S
H743 C749 0.930 . S
C744 H730 0.930 1_455 S
C744 C742 1.395 . S
C744 C747 1.404 1_455 S
C745 C742 1.403 . S
C745 C746 1.524 . S
C745 C749 1.400 . S
C746 H731 0.960 . S
C746 H732 0.960 1_455 S
C746 H733 0.960 . S
C746 C745 1.524 . S
C747 C744 1.404 1_655 S
C747 C748 1.392 1_655 S
C747 C751 1.496 . S
C748 C747 1.392 1_455 S
C748 C749 1.385 . S
C748 C750 1.478 . S
C749 H743 0.930 . S
C749 C745 1.400 . S
C749 C748 1.385 . S
C750 C748 1.478 . S
C750 C752 1.381 1_455 S
C750 C756 1.383 . S
C751 C747 1.496 . S
C751 H757 0.959 . S
C751 H758 0.961 1_655 S
C751 H759 0.960 . S
C752 C750 1.381 1_655 S
C752 C753 1.394 . S
C752 H760 0.930 . S
C753 C752 1.394 . S
C753 C754 1.365 1_655 S
C753 H761 0.929 . S
C754 C753 1.365 1_455 S
C754 C755 1.399 . S
C755 H739 0.930 . S
C755 C754 1.399 . S
C755 C756 1.379 . S
C756 H740 0.931 . S
C756 C750 1.383 . S
C756 C755 1.379 . S
H757 C751 0.959 . S
H758 C751 0.961 1_455 S
H759 C751 0.960 . S
H760 C752 0.930 . S
H761 C753 0.929 . S
C123 C8 1.865 . S
C142 C109 1.923 . S
C159 C26 1.244 . S
C178 C91 1.245 . S
C195 C48 1.386 . S
C214 C103 1.428 . S
C231 C19 1.632 . S
C250 C112 1.718 . S
C286 C94 1.353 . S
C267 C36 1.331 . S
C322 C100 1.584 . S
C303 C59 1.493 . S
C339 C28 1.408 . S
C358 C73 1.450 . S
C375 C46 1.097 . S
C394 C82 1.096 . S
C411 C16 1.407 . S
C430 C64 1.423 1_565 S
C466 C76 1.522 . S
C447 C39 1.453 . S
C502 C85 0.892 . S
C483 C56 0.899 . S
C519 C6 1.262 . S
C538 C67 1.272 . S
C574 C83 1.433 . S
C555 C9 1.404 . S
C591 C21 1.481 . S
C610 C65 1.494 . S
C627 C49 1.465 . S
C646 C74 1.475 . S
C682 C101 1.455 . S
C663 C29 1.442 . S
C718 C110 1.583 . S
C699 C41 1.564 . S
C735 C1 1.492 . S
C754 C92 1.500 . S
