# Generated by pormake.
# Topology tbo, (3,4)-cn, num edge types: 1
# Building blocks:
#     Node 0, Type 0, BuildingBlock: WUSLED_clean_sbu_0, # of connection points: 3
#     Node 1, Type 0, BuildingBlock: WUSLED_clean_sbu_0, # of connection points: 3
#     Node 2, Type 0, BuildingBlock: WUSLED_clean_sbu_0, # of connection points: 3
#     Node 3, Type 0, BuildingBlock: WUSLED_clean_sbu_0, # of connection points: 3
#     Node 4, Type 0, BuildingBlock: WUSLED_clean_sbu_0, # of connection points: 3
#     Node 5, Type 0, BuildingBlock: WUSLED_clean_sbu_0, # of connection points: 3
#     Node 6, Type 0, BuildingBlock: WUSLED_clean_sbu_0, # of connection points: 3
#     Node 7, Type 0, BuildingBlock: WUSLED_clean_sbu_0, # of connection points: 3
#     Node 8, Type 0, BuildingBlock: WUSLED_clean_sbu_0, # of connection points: 3
#     Node 9, Type 0, BuildingBlock: WUSLED_clean_sbu_0, # of connection points: 3
#     Node 10, Type 0, BuildingBlock: WUSLED_clean_sbu_0, # of connection points: 3
#     Node 11, Type 0, BuildingBlock: WUSLED_clean_sbu_0, # of connection points: 3
#     Node 12, Type 0, BuildingBlock: WUSLED_clean_sbu_0, # of connection points: 3
#     Node 13, Type 0, BuildingBlock: WUSLED_clean_sbu_0, # of connection points: 3
#     Node 14, Type 0, BuildingBlock: WUSLED_clean_sbu_0, # of connection points: 3
#     Node 15, Type 0, BuildingBlock: WUSLED_clean_sbu_0, # of connection points: 3
#     Node 16, Type 0, BuildingBlock: WUSLED_clean_sbu_0, # of connection points: 3
#     Node 17, Type 0, BuildingBlock: WUSLED_clean_sbu_0, # of connection points: 3
#     Node 18, Type 0, BuildingBlock: WUSLED_clean_sbu_0, # of connection points: 3
#     Node 19, Type 0, BuildingBlock: WUSLED_clean_sbu_0, # of connection points: 3
#     Node 20, Type 0, BuildingBlock: WUSLED_clean_sbu_0, # of connection points: 3
#     Node 21, Type 0, BuildingBlock: WUSLED_clean_sbu_0, # of connection points: 3
#     Node 22, Type 0, BuildingBlock: WUSLED_clean_sbu_0, # of connection points: 3
#     Node 23, Type 0, BuildingBlock: WUSLED_clean_sbu_0, # of connection points: 3
#     Node 24, Type 0, BuildingBlock: WUSLED_clean_sbu_0, # of connection points: 3
#     Node 25, Type 0, BuildingBlock: WUSLED_clean_sbu_0, # of connection points: 3
#     Node 26, Type 0, BuildingBlock: WUSLED_clean_sbu_0, # of connection points: 3
#     Node 27, Type 0, BuildingBlock: WUSLED_clean_sbu_0, # of connection points: 3
#     Node 28, Type 0, BuildingBlock: WUSLED_clean_sbu_0, # of connection points: 3
#     Node 29, Type 0, BuildingBlock: WUSLED_clean_sbu_0, # of connection points: 3
#     Node 30, Type 0, BuildingBlock: WUSLED_clean_sbu_0, # of connection points: 3
#     Node 31, Type 0, BuildingBlock: WUSLED_clean_sbu_0, # of connection points: 3
#     Node 32, Type 1, BuildingBlock: AZAVOO_clean_linker_0, # of connection points: 4
#     Node 33, Type 1, BuildingBlock: AZAVOO_clean_linker_0, # of connection points: 4
#     Node 34, Type 1, BuildingBlock: AZAVOO_clean_linker_0, # of connection points: 4
#     Node 35, Type 1, BuildingBlock: AZAVOO_clean_linker_0, # of connection points: 4
#     Node 36, Type 1, BuildingBlock: AZAVOO_clean_linker_0, # of connection points: 4
#     Node 37, Type 1, BuildingBlock: AZAVOO_clean_linker_0, # of connection points: 4
#     Node 38, Type 1, BuildingBlock: AZAVOO_clean_linker_0, # of connection points: 4
#     Node 39, Type 1, BuildingBlock: AZAVOO_clean_linker_0, # of connection points: 4
#     Node 40, Type 1, BuildingBlock: AZAVOO_clean_linker_0, # of connection points: 4
#     Node 41, Type 1, BuildingBlock: AZAVOO_clean_linker_0, # of connection points: 4
#     Node 42, Type 1, BuildingBlock: AZAVOO_clean_linker_0, # of connection points: 4
#     Node 43, Type 1, BuildingBlock: AZAVOO_clean_linker_0, # of connection points: 4
#     Node 44, Type 1, BuildingBlock: AZAVOO_clean_linker_0, # of connection points: 4
#     Node 45, Type 1, BuildingBlock: AZAVOO_clean_linker_0, # of connection points: 4
#     Node 46, Type 1, BuildingBlock: AZAVOO_clean_linker_0, # of connection points: 4
#     Node 47, Type 1, BuildingBlock: AZAVOO_clean_linker_0, # of connection points: 4
#     Node 48, Type 1, BuildingBlock: AZAVOO_clean_linker_0, # of connection points: 4
#     Node 49, Type 1, BuildingBlock: AZAVOO_clean_linker_0, # of connection points: 4
#     Node 50, Type 1, BuildingBlock: AZAVOO_clean_linker_0, # of connection points: 4
#     Node 51, Type 1, BuildingBlock: AZAVOO_clean_linker_0, # of connection points: 4
#     Node 52, Type 1, BuildingBlock: AZAVOO_clean_linker_0, # of connection points: 4
#     Node 53, Type 1, BuildingBlock: AZAVOO_clean_linker_0, # of connection points: 4
#     Node 54, Type 1, BuildingBlock: AZAVOO_clean_linker_0, # of connection points: 4
#     Node 55, Type 1, BuildingBlock: AZAVOO_clean_linker_0, # of connection points: 4
#     Edge 56, Type (0, 1), BuildingBlock: ZUJKAS_clean_linker_0, # of connection points: 2
#     Edge 57, Type (0, 1), BuildingBlock: ZUJKAS_clean_linker_0, # of connection points: 2
#     Edge 58, Type (0, 1), BuildingBlock: ZUJKAS_clean_linker_0, # of connection points: 2
#     Edge 59, Type (0, 1), BuildingBlock: ZUJKAS_clean_linker_0, # of connection points: 2
#     Edge 60, Type (0, 1), BuildingBlock: ZUJKAS_clean_linker_0, # of connection points: 2
#     Edge 61, Type (0, 1), BuildingBlock: ZUJKAS_clean_linker_0, # of connection points: 2
#     Edge 62, Type (0, 1), BuildingBlock: ZUJKAS_clean_linker_0, # of connection points: 2
#     Edge 63, Type (0, 1), BuildingBlock: ZUJKAS_clean_linker_0, # of connection points: 2
#     Edge 64, Type (0, 1), BuildingBlock: ZUJKAS_clean_linker_0, # of connection points: 2
#     Edge 65, Type (0, 1), BuildingBlock: ZUJKAS_clean_linker_0, # of connection points: 2
#     Edge 66, Type (0, 1), BuildingBlock: ZUJKAS_clean_linker_0, # of connection points: 2
#     Edge 67, Type (0, 1), BuildingBlock: ZUJKAS_clean_linker_0, # of connection points: 2
#     Edge 68, Type (0, 1), BuildingBlock: ZUJKAS_clean_linker_0, # of connection points: 2
#     Edge 69, Type (0, 1), BuildingBlock: ZUJKAS_clean_linker_0, # of connection points: 2
#     Edge 70, Type (0, 1), BuildingBlock: ZUJKAS_clean_linker_0, # of connection points: 2
#     Edge 71, Type (0, 1), BuildingBlock: ZUJKAS_clean_linker_0, # of connection points: 2
#     Edge 72, Type (0, 1), BuildingBlock: ZUJKAS_clean_linker_0, # of connection points: 2
#     Edge 73, Type (0, 1), BuildingBlock: ZUJKAS_clean_linker_0, # of connection points: 2
#     Edge 74, Type (0, 1), BuildingBlock: ZUJKAS_clean_linker_0, # of connection points: 2
#     Edge 75, Type (0, 1), BuildingBlock: ZUJKAS_clean_linker_0, # of connection points: 2
#     Edge 76, Type (0, 1), BuildingBlock: ZUJKAS_clean_linker_0, # of connection points: 2
#     Edge 77, Type (0, 1), BuildingBlock: ZUJKAS_clean_linker_0, # of connection points: 2
#     Edge 78, Type (0, 1), BuildingBlock: ZUJKAS_clean_linker_0, # of connection points: 2
#     Edge 79, Type (0, 1), BuildingBlock: ZUJKAS_clean_linker_0, # of connection points: 2
#     Edge 80, Type (0, 1), BuildingBlock: ZUJKAS_clean_linker_0, # of connection points: 2
#     Edge 81, Type (0, 1), BuildingBlock: ZUJKAS_clean_linker_0, # of connection points: 2
#     Edge 82, Type (0, 1), BuildingBlock: ZUJKAS_clean_linker_0, # of connection points: 2
#     Edge 83, Type (0, 1), BuildingBlock: ZUJKAS_clean_linker_0, # of connection points: 2
#     Edge 84, Type (0, 1), BuildingBlock: ZUJKAS_clean_linker_0, # of connection points: 2
#     Edge 85, Type (0, 1), BuildingBlock: ZUJKAS_clean_linker_0, # of connection points: 2
#     Edge 86, Type (0, 1), BuildingBlock: ZUJKAS_clean_linker_0, # of connection points: 2
#     Edge 87, Type (0, 1), BuildingBlock: ZUJKAS_clean_linker_0, # of connection points: 2
#     Edge 88, Type (0, 1), BuildingBlock: ZUJKAS_clean_linker_0, # of connection points: 2
#     Edge 89, Type (0, 1), BuildingBlock: ZUJKAS_clean_linker_0, # of connection points: 2
#     Edge 90, Type (0, 1), BuildingBlock: ZUJKAS_clean_linker_0, # of connection points: 2
#     Edge 91, Type (0, 1), BuildingBlock: ZUJKAS_clean_linker_0, # of connection points: 2
#     Edge 92, Type (0, 1), BuildingBlock: ZUJKAS_clean_linker_0, # of connection points: 2
#     Edge 93, Type (0, 1), BuildingBlock: ZUJKAS_clean_linker_0, # of connection points: 2
#     Edge 94, Type (0, 1), BuildingBlock: ZUJKAS_clean_linker_0, # of connection points: 2
#     Edge 95, Type (0, 1), BuildingBlock: ZUJKAS_clean_linker_0, # of connection points: 2
#     Edge 96, Type (0, 1), BuildingBlock: ZUJKAS_clean_linker_0, # of connection points: 2
#     Edge 97, Type (0, 1), BuildingBlock: ZUJKAS_clean_linker_0, # of connection points: 2
#     Edge 98, Type (0, 1), BuildingBlock: ZUJKAS_clean_linker_0, # of connection points: 2
#     Edge 99, Type (0, 1), BuildingBlock: ZUJKAS_clean_linker_0, # of connection points: 2
#     Edge 100, Type (0, 1), BuildingBlock: ZUJKAS_clean_linker_0, # of connection points: 2
#     Edge 101, Type (0, 1), BuildingBlock: ZUJKAS_clean_linker_0, # of connection points: 2
#     Edge 102, Type (0, 1), BuildingBlock: ZUJKAS_clean_linker_0, # of connection points: 2
#     Edge 103, Type (0, 1), BuildingBlock: ZUJKAS_clean_linker_0, # of connection points: 2
#     Edge 104, Type (0, 1), BuildingBlock: ZUJKAS_clean_linker_0, # of connection points: 2
#     Edge 105, Type (0, 1), BuildingBlock: ZUJKAS_clean_linker_0, # of connection points: 2
#     Edge 106, Type (0, 1), BuildingBlock: ZUJKAS_clean_linker_0, # of connection points: 2
#     Edge 107, Type (0, 1), BuildingBlock: ZUJKAS_clean_linker_0, # of connection points: 2
#     Edge 108, Type (0, 1), BuildingBlock: ZUJKAS_clean_linker_0, # of connection points: 2
#     Edge 109, Type (0, 1), BuildingBlock: ZUJKAS_clean_linker_0, # of connection points: 2
#     Edge 110, Type (0, 1), BuildingBlock: ZUJKAS_clean_linker_0, # of connection points: 2
#     Edge 111, Type (0, 1), BuildingBlock: ZUJKAS_clean_linker_0, # of connection points: 2
#     Edge 112, Type (0, 1), BuildingBlock: ZUJKAS_clean_linker_0, # of connection points: 2
#     Edge 113, Type (0, 1), BuildingBlock: ZUJKAS_clean_linker_0, # of connection points: 2
#     Edge 114, Type (0, 1), BuildingBlock: ZUJKAS_clean_linker_0, # of connection points: 2
#     Edge 115, Type (0, 1), BuildingBlock: ZUJKAS_clean_linker_0, # of connection points: 2
#     Edge 116, Type (0, 1), BuildingBlock: ZUJKAS_clean_linker_0, # of connection points: 2
#     Edge 117, Type (0, 1), BuildingBlock: ZUJKAS_clean_linker_0, # of connection points: 2
#     Edge 118, Type (0, 1), BuildingBlock: ZUJKAS_clean_linker_0, # of connection points: 2
#     Edge 119, Type (0, 1), BuildingBlock: ZUJKAS_clean_linker_0, # of connection points: 2
#     Edge 120, Type (0, 1), BuildingBlock: ZUJKAS_clean_linker_0, # of connection points: 2
#     Edge 121, Type (0, 1), BuildingBlock: ZUJKAS_clean_linker_0, # of connection points: 2
#     Edge 122, Type (0, 1), BuildingBlock: ZUJKAS_clean_linker_0, # of connection points: 2
#     Edge 123, Type (0, 1), BuildingBlock: ZUJKAS_clean_linker_0, # of connection points: 2
#     Edge 124, Type (0, 1), BuildingBlock: ZUJKAS_clean_linker_0, # of connection points: 2
#     Edge 125, Type (0, 1), BuildingBlock: ZUJKAS_clean_linker_0, # of connection points: 2
#     Edge 126, Type (0, 1), BuildingBlock: ZUJKAS_clean_linker_0, # of connection points: 2
#     Edge 127, Type (0, 1), BuildingBlock: ZUJKAS_clean_linker_0, # of connection points: 2
#     Edge 128, Type (0, 1), BuildingBlock: ZUJKAS_clean_linker_0, # of connection points: 2
#     Edge 129, Type (0, 1), BuildingBlock: ZUJKAS_clean_linker_0, # of connection points: 2
#     Edge 130, Type (0, 1), BuildingBlock: ZUJKAS_clean_linker_0, # of connection points: 2
#     Edge 131, Type (0, 1), BuildingBlock: ZUJKAS_clean_linker_0, # of connection points: 2
#     Edge 132, Type (0, 1), BuildingBlock: ZUJKAS_clean_linker_0, # of connection points: 2
#     Edge 133, Type (0, 1), BuildingBlock: ZUJKAS_clean_linker_0, # of connection points: 2
#     Edge 134, Type (0, 1), BuildingBlock: ZUJKAS_clean_linker_0, # of connection points: 2
#     Edge 135, Type (0, 1), BuildingBlock: ZUJKAS_clean_linker_0, # of connection points: 2
#     Edge 136, Type (0, 1), BuildingBlock: ZUJKAS_clean_linker_0, # of connection points: 2
#     Edge 137, Type (0, 1), BuildingBlock: ZUJKAS_clean_linker_0, # of connection points: 2
#     Edge 138, Type (0, 1), BuildingBlock: ZUJKAS_clean_linker_0, # of connection points: 2
#     Edge 139, Type (0, 1), BuildingBlock: ZUJKAS_clean_linker_0, # of connection points: 2
#     Edge 140, Type (0, 1), BuildingBlock: ZUJKAS_clean_linker_0, # of connection points: 2
#     Edge 141, Type (0, 1), BuildingBlock: ZUJKAS_clean_linker_0, # of connection points: 2
#     Edge 142, Type (0, 1), BuildingBlock: ZUJKAS_clean_linker_0, # of connection points: 2
#     Edge 143, Type (0, 1), BuildingBlock: ZUJKAS_clean_linker_0, # of connection points: 2
#     Edge 144, Type (0, 1), BuildingBlock: ZUJKAS_clean_linker_0, # of connection points: 2
#     Edge 145, Type (0, 1), BuildingBlock: ZUJKAS_clean_linker_0, # of connection points: 2
#     Edge 146, Type (0, 1), BuildingBlock: ZUJKAS_clean_linker_0, # of connection points: 2
#     Edge 147, Type (0, 1), BuildingBlock: ZUJKAS_clean_linker_0, # of connection points: 2
#     Edge 148, Type (0, 1), BuildingBlock: ZUJKAS_clean_linker_0, # of connection points: 2
#     Edge 149, Type (0, 1), BuildingBlock: ZUJKAS_clean_linker_0, # of connection points: 2
#     Edge 150, Type (0, 1), BuildingBlock: ZUJKAS_clean_linker_0, # of connection points: 2
#     Edge 151, Type (0, 1), BuildingBlock: ZUJKAS_clean_linker_0, # of connection points: 2
# Relax obj value: 0.032
# Max RMSD: 0.257
# Mean RMSD: 0.087
data_MOF--net-tbo--node1-WUSLED_clean_sbu_0--node2-AZAVOO_clean_linker_0--edge1-ZUJKAS_clean_linker_0
_symmetry_space_group_name_H-M    P1
_symmetry_Int_Tables_number       1
_symmetry_cell_setting            triclinic
loop_
_symmetry_equiv_pos_as_xyz
'x, y, z'
_cell_length_a     124.9592
_cell_length_b     125.23757
_cell_length_c     125.22735
_cell_angle_alpha  89.544603
_cell_angle_beta   89.237144
_cell_angle_gamma 88.975167
loop_
_atom_site_label
_atom_site_type_symbol
_atom_site_fract_x
_atom_site_fract_y
_atom_site_fract_z
_atom_type_partial_charge
C0 C 0.19497 0.14958 0.21498 0.0
C1 C 0.20275 0.14499 0.20814 0.0
C2 C 0.20746 0.13237 0.22203 0.0
C3 C 0.20894 0.13632 0.21164 0.0
C4 C 0.19949 0.13681 0.22873 0.0
C5 C 0.19327 0.14539 0.2252 0.0
U6 U 0.19245 0.17265 0.19611 0.0
O7 O 0.17858 0.18182 0.19028 0.0
O8 O 0.19101 0.18975 0.1995 0.0
C9 C 0.18143 0.19046 0.19535 0.0
C10 C 0.18947 0.15943 0.21198 0.0
C11 C 0.17329 0.19499 0.20244 0.0
C12 C 0.16041 0.19305 0.21693 0.0
C13 C 0.16875 0.1888 0.21068 0.0
C14 C 0.1616 0.20977 0.20705 0.0
C15 C 0.15667 0.20346 0.21491 0.0
C16 C 0.1699 0.20555 0.20084 0.0
C17 C 0.21042 0.17482 0.17223 0.0
C18 C 0.20804 0.19003 0.16035 0.0
C19 C 0.2227 0.17735 0.15742 0.0
C20 C 0.21945 0.1715 0.16635 0.0
C21 C 0.21698 0.18658 0.15439 0.0
C22 C 0.20475 0.18415 0.16927 0.0
C23 C 0.20701 0.16864 0.18152 0.0
O24 O 0.19548 0.16789 0.21265 0.0
O25 O 0.18394 0.15904 0.20313 0.0
O26 O 0.19721 0.16503 0.18102 0.0
O27 O 0.20921 0.173 0.19072 0.0
H28 H 0.2042 0.14831 0.20024 0.0
H29 H 0.21505 0.13292 0.2064 0.0
H30 H 0.19818 0.1337 0.23673 0.0
H31 H 0.18734 0.14893 0.23055 0.0
H32 H 0.15657 0.18809 0.22294 0.0
H33 H 0.17142 0.18063 0.21204 0.0
H34 H 0.15872 0.21783 0.20544 0.0
H35 H 0.17345 0.2104 0.19458 0.0
H36 H 0.20354 0.19713 0.15801 0.0
H37 H 0.22961 0.17464 0.15281 0.0
H38 H 0.2239 0.16435 0.16862 0.0
H39 H 0.19778 0.18682 0.17382 0.0
C40 C 0.8675 0.19662 0.14502 0.0
C41 C 0.8715 0.20701 0.144 0.0
C42 C 0.86274 0.20894 0.12696 0.0
C43 C 0.86902 0.21322 0.13501 0.0
C44 C 0.85883 0.19855 0.12803 0.0
C45 C 0.86119 0.19243 0.13701 0.0
U46 U 0.88502 0.19094 0.16853 0.0
O47 O 0.88166 0.18416 0.18441 0.0
O48 O 0.89305 0.17603 0.1735 0.0
C49 C 0.88759 0.17558 0.18252 0.0
C50 C 0.87031 0.1898 0.15406 0.0
C51 C 0.88235 0.16545 0.1846 0.0
C52 C 0.8679 0.15316 0.18173 0.0
C53 C 0.87304 0.16269 0.17918 0.0
C54 C 0.88157 0.14908 0.19482 0.0
C55 C 0.87204 0.14643 0.18975 0.0
C56 C 0.88669 0.15853 0.19226 0.0
C57 C 0.90686 0.21008 0.17483 0.0
C58 C 0.92004 0.20569 0.18825 0.0
C59 C 0.92051 0.22272 0.17885 0.0
C60 C 0.9116 0.21994 0.17306 0.0
C61 C 0.92491 0.21559 0.18643 0.0
C62 C 0.91103 0.20297 0.18249 0.0
C63 C 0.89772 0.20723 0.16845 0.0
O64 O 0.87971 0.18502 0.15311 0.0
O65 O 0.86845 0.19393 0.16355 0.0
O66 O 0.88848 0.20725 0.17358 0.0
O67 O 0.89935 0.19883 0.16238 0.0
H68 H 0.87652 0.21027 0.15012 0.0
H69 H 0.87201 0.22126 0.13432 0.0
H70 H 0.85379 0.19521 0.12197 0.0
H71 H 0.85813 0.18442 0.1377 0.0
H72 H 0.86053 0.15125 0.17776 0.0
H73 H 0.86967 0.16798 0.17317 0.0
H74 H 0.88494 0.14391 0.20094 0.0
H75 H 0.89392 0.16055 0.19641 0.0
H76 H 0.92323 0.20005 0.19404 0.0
H77 H 0.92381 0.23056 0.17752 0.0
H78 H 0.90838 0.2255 0.1672 0.0
H79 H 0.90736 0.1953 0.18393 0.0
C80 C 0.85182 0.86158 0.12124 0.0
C81 C 0.85692 0.85175 0.11894 0.0
C82 C 0.84328 0.84801 0.10588 0.0
C83 C 0.85262 0.84495 0.11131 0.0
C84 C 0.8384 0.85794 0.10801 0.0
C85 C 0.84262 0.86465 0.11566 0.0
U86 U 0.87098 0.8689 0.14371 0.0
O87 O 0.87634 0.88477 0.14862 0.0
O88 O 0.86721 0.87472 0.15983 0.0
C89 C 0.87178 0.88395 0.15811 0.0
C90 C 0.85547 0.86853 0.12981 0.0
C91 C 0.86589 0.89332 0.1622 0.0
C92 C 0.85128 0.90642 0.16175 0.0
C93 C 0.85711 0.89802 0.15692 0.0
C94 C 0.86308 0.90546 0.17696 0.0
C95 C 0.85413 0.91 0.17192 0.0
C96 C 0.86891 0.89722 0.17213 0.0
C97 C 0.89484 0.84965 0.1496 0.0
C98 C 0.90644 0.8495 0.16505 0.0
C99 C 0.90897 0.83627 0.15117 0.0
C100 C 0.90049 0.84081 0.14554 0.0
C101 C 0.91203 0.8405 0.161 0.0
C102 C 0.89788 0.85407 0.15936 0.0
C103 C 0.88546 0.85348 0.14368 0.0
O104 O 0.85462 0.86456 0.13952 0.0
O105 O 0.86449 0.87352 0.12803 0.0
O106 O 0.88652 0.86235 0.1381 0.0
O107 O 0.87622 0.85285 0.14875 0.0
H108 H 0.86404 0.84925 0.1232 0.0
H109 H 0.85646 0.83729 0.10976 0.0
H110 H 0.83113 0.86036 0.10396 0.0
H111 H 0.83855 0.87217 0.11738 0.0
H112 H 0.84436 0.90983 0.15777 0.0
H113 H 0.85465 0.89505 0.14924 0.0
H114 H 0.86545 0.90816 0.18477 0.0
H115 H 0.87566 0.89368 0.1763 0.0
H116 H 0.90865 0.85294 0.1726 0.0
H117 H 0.91294 0.82923 0.14794 0.0
H118 H 0.89818 0.83725 0.13808 0.0
H119 H 0.89355 0.86089 0.16262 0.0
C120 C 0.12263 0.85313 0.15699 0.0
C121 C 0.11815 0.85443 0.16721 0.0
C122 C 0.10553 0.84029 0.16378 0.0
C123 C 0.10963 0.84809 0.17058 0.0
C124 C 0.10995 0.83921 0.15344 0.0
C125 C 0.11843 0.84559 0.15008 0.0
U126 U 0.14903 0.86967 0.14821 0.0
O127 O 0.16142 0.85932 0.14071 0.0
O128 O 0.1521 0.8709 0.13087 0.0
C129 C 0.1592 0.86303 0.13113 0.0
C130 C 0.13213 0.85908 0.15383 0.0
C131 C 0.16681 0.86146 0.12229 0.0
C132 C 0.17407 0.84936 0.10893 0.0
C133 C 0.16688 0.85154 0.11723 0.0
C134 C 0.18108 0.8672 0.11039 0.0
C135 C 0.18132 0.85713 0.10539 0.0
C136 C 0.17389 0.86934 0.11883 0.0
C137 C 0.1595 0.89388 0.16673 0.0
C138 C 0.1742 0.90424 0.17339 0.0
C139 C 0.15641 0.90667 0.18099 0.0
C140 C 0.15254 0.89902 0.17398 0.0
C141 C 0.16735 0.9093 0.18093 0.0
C142 C 0.1703 0.89662 0.16638 0.0
C143 C 0.15566 0.88516 0.16007 0.0
O144 O 0.13157 0.86746 0.14746 0.0
O145 O 0.14168 0.85652 0.15739 0.0
O146 O 0.1591 0.87526 0.16134 0.0
O147 O 0.14883 0.88682 0.1523 0.0
H148 H 0.12138 0.86019 0.17266 0.0
H149 H 0.10652 0.84904 0.17863 0.0
H150 H 0.10691 0.83337 0.14797 0.0
H151 H 0.12187 0.84448 0.14217 0.0
H152 H 0.17411 0.84144 0.10554 0.0
H153 H 0.16143 0.84537 0.11983 0.0
H154 H 0.18642 0.87345 0.1078 0.0
H155 H 0.17389 0.87707 0.12265 0.0
H156 H 0.18268 0.90581 0.17312 0.0
H157 H 0.15079 0.91047 0.18646 0.0
H158 H 0.14416 0.89695 0.17439 0.0
H159 H 0.17579 0.89269 0.16085 0.0
C160 C 0.17002 0.88413 0.86329 0.0
C161 C 0.16643 0.89159 0.85564 0.0
C162 C 0.15219 0.8795 0.85028 0.0
C163 C 0.15755 0.88934 0.84926 0.0
C164 C 0.15611 0.87208 0.85788 0.0
C165 C 0.16475 0.87443 0.86434 0.0
U166 U 0.19659 0.89744 0.87188 0.0
O167 O 0.2024 0.90016 0.88819 0.0
O168 O 0.21124 0.88928 0.87743 0.0
C169 C 0.21061 0.89354 0.88697 0.0
C170 C 0.17934 0.88585 0.87019 0.0
C171 C 0.21347 0.88653 0.89605 0.0
C172 C 0.2105 0.87152 0.90819 0.0
C173 C 0.2069 0.87832 0.89993 0.0
C174 C 0.22705 0.88125 0.90882 0.0
C175 C 0.22074 0.8728 0.91257 0.0
C176 C 0.22347 0.88798 0.90066 0.0
C177 C 0.20793 0.92045 0.85368 0.0
C178 C 0.22472 0.93005 0.85434 0.0
C179 C 0.21318 0.9321 0.83904 0.0
C180 C 0.20586 0.92521 0.84376 0.0
C181 C 0.22278 0.93445 0.84414 0.0
C182 C 0.21735 0.923 0.85907 0.0
C183 C 0.20026 0.91246 0.85758 0.0
O184 O 0.18872 0.88303 0.86618 0.0
O185 O 0.17955 0.89475 0.87569 0.0
O186 O 0.19519 0.91429 0.86668 0.0
O187 O 0.20306 0.9024 0.85625 0.0
H188 H 0.17044 0.89914 0.85463 0.0
H189 H 0.15487 0.8954 0.84365 0.0
H190 H 0.15272 0.86425 0.8588 0.0
H191 H 0.16746 0.86851 0.8701 0.0
H192 H 0.20544 0.86508 0.9109 0.0
H193 H 0.19913 0.87707 0.89646 0.0
H194 H 0.23485 0.88264 0.91216 0.0
H195 H 0.22864 0.89428 0.89782 0.0
H196 H 0.23208 0.93174 0.85843 0.0
H197 H 0.2114 0.93549 0.83126 0.0
H198 H 0.19864 0.92337 0.8395 0.0
H199 H 0.2191 0.91938 0.86675 0.0
C200 C 0.14478 0.13942 0.86039 0.0
C201 C 0.14042 0.14816 0.8661 0.0
C202 C 0.12689 0.15107 0.85229 0.0
C203 C 0.13147 0.1539 0.8621 0.0
C204 C 0.13106 0.14204 0.84696 0.0
C205 C 0.13986 0.13634 0.85095 0.0
U206 U 0.17109 0.1324 0.87649 0.0
O207 O 0.17853 0.11638 0.87864 0.0
O208 O 0.18687 0.12868 0.86933 0.0
C209 C 0.18705 0.11879 0.87289 0.0
C210 C 0.15482 0.13368 0.86333 0.0
C211 C 0.19156 0.11058 0.8656 0.0
C212 C 0.19285 0.10165 0.84838 0.0
C213 C 0.18744 0.10869 0.85541 0.0
C214 C 0.20619 0.098 0.86184 0.0
C215 C 0.20235 0.09633 0.85152 0.0
C216 C 0.20088 0.10507 0.86877 0.0
C217 C 0.17876 0.149 0.90167 0.0
C218 C 0.1955 0.14934 0.91147 0.0
C219 C 0.18153 0.1625 0.91512 0.0
C220 C 0.17504 0.15778 0.90759 0.0
C221 C 0.19195 0.15857 0.91694 0.0
C222 C 0.18896 0.14461 0.9038 0.0
C223 C 0.17201 0.14545 0.89282 0.0
O224 O 0.16378 0.13883 0.86185 0.0
O225 O 0.15482 0.12759 0.87194 0.0
O226 O 0.1678 0.13592 0.89351 0.0
O227 O 0.17535 0.14792 0.88314 0.0
H228 H 0.14408 0.15069 0.87343 0.0
H229 H 0.12844 0.1608 0.86643 0.0
H230 H 0.12763 0.13946 0.83954 0.0
H231 H 0.14303 0.12962 0.84644 0.0
H232 H 0.18973 0.10047 0.84046 0.0
H233 H 0.18027 0.11287 0.85279 0.0
H234 H 0.21355 0.09413 0.86442 0.0
H235 H 0.20425 0.10648 0.87655 0.0
H236 H 0.2035 0.14612 0.91272 0.0
H237 H 0.17848 0.16946 0.91933 0.0
H238 H 0.1672 0.16126 0.90611 0.0
H239 H 0.19198 0.13782 0.89931 0.0
C240 C 0.80196 0.15475 0.82749 0.0
C241 C 0.80698 0.15015 0.81846 0.0
C242 C 0.79298 0.13667 0.81767 0.0
C243 C 0.80249 0.14118 0.81356 0.0
C244 C 0.78794 0.1416 0.8265 0.0
C245 C 0.79239 0.15044 0.83133 0.0
U246 U 0.82196 0.17746 0.83544 0.0
O247 O 0.81752 0.19327 0.84195 0.0
O248 O 0.8263 0.18156 0.8519 0.0
C249 C 0.82202 0.1912 0.85119 0.0
C250 C 0.80634 0.16379 0.8335 0.0
C251 C 0.81718 0.19596 0.86087 0.0
C252 C 0.80372 0.19747 0.87508 0.0
C253 C 0.80775 0.19233 0.86585 0.0
C254 C 0.81853 0.20968 0.87432 0.0
C255 C 0.80904 0.2063 0.8793 0.0
C256 C 0.82251 0.20458 0.86524 0.0
C257 C 0.8484 0.18237 0.81889 0.0
C258 C 0.86249 0.19544 0.82087 0.0
C259 C 0.86403 0.18192 0.8072 0.0
C260 C 0.85423 0.1778 0.81045 0.0
C261 C 0.86828 0.19087 0.81223 0.0
C262 C 0.85258 0.19122 0.82418 0.0
C263 C 0.83809 0.17743 0.82175 0.0
O264 O 0.8149 0.16187 0.83924 0.0
O265 O 0.80622 0.17329 0.82897 0.0
O266 O 0.82932 0.18322 0.82042 0.0
O267 O 0.83785 0.17139 0.83036 0.0
H268 H 0.81438 0.15336 0.81533 0.0
H269 H 0.8066 0.13762 0.80676 0.0
H270 H 0.78048 0.13863 0.82973 0.0
H271 H 0.78834 0.1539 0.83822 0.0
H272 H 0.79638 0.19469 0.87879 0.0
H273 H 0.80353 0.18563 0.86261 0.0
H274 H 0.82294 0.21629 0.87748 0.0
H275 H 0.82984 0.20744 0.86158 0.0
H276 H 0.86552 0.20234 0.82494 0.0
H277 H 0.86833 0.17796 0.80076 0.0
H278 H 0.8512 0.17093 0.80632 0.0
H279 H 0.8482 0.19485 0.83078 0.0
C280 C 0.84129 0.91912 0.85654 0.0
C281 C 0.83067 0.91934 0.86041 0.0
C282 C 0.82619 0.93442 0.84844 0.0
C283 C 0.8232 0.92694 0.85642 0.0
C284 C 0.8369 0.93415 0.84478 0.0
C285 C 0.84429 0.92668 0.84881 0.0
U286 U 0.85561 0.89502 0.8723 0.0
O287 O 0.865 0.8821 0.8645 0.0
O288 O 0.87312 0.89338 0.87479 0.0
C289 C 0.87415 0.88504 0.86852 0.0
C290 C 0.84944 0.91086 0.85959 0.0
C291 C 0.88404 0.88389 0.86171 0.0
C292 C 0.89376 0.88455 0.84458 0.0
C293 C 0.88464 0.88714 0.85093 0.0
C294 C 0.90196 0.87583 0.85975 0.0
C295 C 0.90249 0.87869 0.84887 0.0
C296 C 0.89288 0.87837 0.86603 0.0
C297 C 0.83978 0.88241 0.89765 0.0
C298 C 0.84233 0.86762 0.91036 0.0
C299 C 0.82578 0.87792 0.91067 0.0
C300 C 0.82964 0.88432 0.90229 0.0
C301 C 0.832 0.86944 0.91477 0.0
C302 C 0.84618 0.87403 0.90182 0.0
C303 C 0.8429 0.8892 0.8883 0.0
O304 O 0.85505 0.91228 0.86825 0.0
O305 O 0.84725 0.9008 0.85789 0.0
O306 O 0.84246 0.88514 0.87868 0.0
O307 O 0.85051 0.89623 0.88929 0.0
H308 H 0.82811 0.91358 0.86637 0.0
H309 H 0.81509 0.92691 0.85958 0.0
H310 H 0.83958 0.93948 0.8385 0.0
H311 H 0.85239 0.92664 0.84561 0.0
H312 H 0.89391 0.88699 0.83626 0.0
H313 H 0.87797 0.89142 0.84734 0.0
H314 H 0.90841 0.87124 0.86335 0.0
H315 H 0.89264 0.87567 0.87427 0.0
H316 H 0.84727 0.86109 0.91332 0.0
H317 H 0.81781 0.8795 0.91387 0.0
H318 H 0.82454 0.89071 0.89926 0.0
H319 H 0.85403 0.87235 0.8984 0.0
C320 C 0.13286 0.64019 0.66211 0.0
C321 C 0.14234 0.63544 0.65801 0.0
C322 C 0.14198 0.62162 0.67216 0.0
C323 C 0.14682 0.62623 0.66297 0.0
C324 C 0.13235 0.62632 0.67595 0.0
C325 C 0.12789 0.63539 0.67099 0.0
U326 U 0.12683 0.66745 0.64546 0.0
O327 O 0.11058 0.6749 0.64459 0.0
O328 O 0.1232 0.68274 0.65353 0.0
C329 C 0.11323 0.68318 0.65033 0.0
C330 C 0.12824 0.65058 0.65824 0.0
C331 C 0.10505 0.68891 0.65711 0.0
C332 C 0.09269 0.69086 0.67244 0.0
C333 C 0.0997 0.68446 0.66605 0.0
C334 C 0.09609 0.70599 0.6609 0.0
C335 C 0.09103 0.70184 0.67009 0.0
C336 C 0.10293 0.69966 0.65456 0.0
C337 C 0.14511 0.67461 0.61933 0.0
C338 C 0.14692 0.68873 0.6057 0.0
C339 C 0.1609 0.67532 0.60758 0.0
C340 C 0.15501 0.67039 0.61578 0.0
C341 C 0.15712 0.68469 0.60252 0.0
C342 C 0.141 0.68378 0.61408 0.0
C343 C 0.13991 0.66918 0.62871 0.0
O344 O 0.13378 0.65928 0.65949 0.0
O345 O 0.12211 0.65092 0.64978 0.0
O346 O 0.13018 0.66539 0.62808 0.0
O347 O 0.14233 0.67225 0.63837 0.0
H348 H 0.14637 0.63896 0.65117 0.0
H349 H 0.15416 0.62282 0.65967 0.0
H350 H 0.12842 0.62328 0.68306 0.0
H351 H 0.12065 0.63892 0.67439 0.0
H352 H 0.08892 0.68735 0.67944 0.0
H353 H 0.10111 0.67617 0.66821 0.0
H354 H 0.09489 0.7143 0.65868 0.0
H355 H 0.10683 0.7033 0.6477 0.0
H356 H 0.14372 0.69593 0.60199 0.0
H357 H 0.16858 0.67183 0.60528 0.0
H358 H 0.15836 0.66329 0.61956 0.0
H359 H 0.13336 0.68722 0.61658 0.0
C360 C 0.85107 0.72081 0.6588 0.0
C361 C 0.855 0.73103 0.65643 0.0
C362 C 0.84492 0.73141 0.63995 0.0
C363 C 0.85189 0.73635 0.64702 0.0
C364 C 0.84111 0.72121 0.64233 0.0
C365 C 0.84414 0.71597 0.65168 0.0
U366 U 0.86743 0.71557 0.68438 0.0
O367 O 0.86186 0.7093 0.69995 0.0
O368 O 0.87374 0.70021 0.69043 0.0
C369 C 0.86772 0.70052 0.69911 0.0
C370 C 0.85394 0.71485 0.66854 0.0
C371 C 0.86277 0.69043 0.70253 0.0
C372 C 0.85257 0.67436 0.69938 0.0
C373 C 0.8562 0.68441 0.69592 0.0
C374 C 0.86171 0.67657 0.71612 0.0
C375 C 0.85552 0.67021 0.70946 0.0
C376 C 0.86532 0.68649 0.71267 0.0
C377 C 0.88974 0.73587 0.69112 0.0
C378 C 0.90188 0.73621 0.70615 0.0
C379 C 0.90305 0.74962 0.69215 0.0
C380 C 0.89465 0.74492 0.68687 0.0
C381 C 0.90672 0.74543 0.70191 0.0
C382 C 0.8934 0.73145 0.70078 0.0
C383 C 0.88088 0.73141 0.68508 0.0
O384 O 0.86333 0.70997 0.66838 0.0
O385 O 0.85164 0.71949 0.67768 0.0
O386 O 0.87133 0.73177 0.6896 0.0
O387 O 0.88292 0.7225 0.6799 0.0
H388 H 0.86039 0.73487 0.66184 0.0
H389 H 0.85488 0.74424 0.64526 0.0
H390 H 0.8357 0.71733 0.63696 0.0
H391 H 0.84105 0.7081 0.65338 0.0
H392 H 0.8478 0.66971 0.69403 0.0
H393 H 0.85411 0.68735 0.68804 0.0
H394 H 0.86387 0.67387 0.72405 0.0
H395 H 0.87031 0.69104 0.71792 0.0
H396 H 0.90451 0.7328 0.71366 0.0
H397 H 0.90675 0.75653 0.68851 0.0
H398 H 0.89198 0.74838 0.67938 0.0
H399 H 0.8897 0.72441 0.70416 0.0
C400 C 0.84695 0.34152 0.63836 0.0
C401 C 0.85119 0.33171 0.63469 0.0
C402 C 0.83745 0.331 0.62074 0.0
C403 C 0.84649 0.32651 0.62595 0.0
C404 C 0.83337 0.34083 0.62456 0.0
C405 C 0.83806 0.34598 0.63314 0.0
U406 U 0.86313 0.35146 0.66431 0.0
O407 O 0.86573 0.36867 0.66733 0.0
O408 O 0.85455 0.35957 0.67764 0.0
C409 C 0.85921 0.36871 0.67566 0.0
C410 C 0.85105 0.34743 0.64771 0.0
C411 C 0.85529 0.3788 0.68068 0.0
C412 C 0.84265 0.39384 0.68266 0.0
C413 C 0.84625 0.38461 0.67716 0.0
C414 C 0.85725 0.39168 0.695 0.0
C415 C 0.84803 0.39747 0.69181 0.0
C416 C 0.86074 0.38249 0.68958 0.0
C417 C 0.88772 0.3335 0.67608 0.0
C418 C 0.89916 0.33219 0.69179 0.0
C419 C 0.90113 0.31918 0.67773 0.0
C420 C 0.893 0.3244 0.67203 0.0
C421 C 0.90439 0.32292 0.68773 0.0
C422 C 0.89089 0.33742 0.68603 0.0
C423 C 0.87866 0.33799 0.66972 0.0
O424 O 0.84889 0.344 0.65743 0.0
O425 O 0.86004 0.35271 0.64693 0.0
O426 O 0.88016 0.34619 0.66327 0.0
O427 O 0.86884 0.33738 0.6735 0.0
H428 H 0.85805 0.32806 0.63856 0.0
H429 H 0.84999 0.31902 0.62325 0.0
H430 H 0.82632 0.34452 0.62109 0.0
H431 H 0.83458 0.35349 0.63584 0.0
H432 H 0.8355 0.39792 0.67989 0.0
H433 H 0.84188 0.38195 0.67028 0.0
H434 H 0.86192 0.39422 0.70169 0.0
H435 H 0.86775 0.37819 0.69242 0.0
H436 H 0.90147 0.33541 0.69941 0.0
H437 H 0.90467 0.312 0.67435 0.0
H438 H 0.89066 0.32114 0.66443 0.0
H439 H 0.88695 0.34443 0.68938 0.0
C440 C 0.11852 0.35272 0.68476 0.0
C441 C 0.11471 0.35426 0.69519 0.0
C442 C 0.1022 0.33992 0.69282 0.0
C443 C 0.10653 0.34791 0.6992 0.0
C444 C 0.10617 0.33841 0.68237 0.0
C445 C 0.11425 0.34483 0.67835 0.0
U446 U 0.142 0.37138 0.6733 0.0
O447 O 0.15535 0.36305 0.66515 0.0
O448 O 0.14326 0.37243 0.65575 0.0
C449 C 0.15187 0.36625 0.65578 0.0
C450 C 0.12694 0.35933 0.68048 0.0
C451 C 0.15778 0.36376 0.64607 0.0
C452 C 0.16002 0.3529 0.63034 0.0
C453 C 0.15411 0.35576 0.6394 0.0
C454 C 0.17322 0.36615 0.63461 0.0
C455 C 0.16973 0.35796 0.62792 0.0
C456 C 0.16725 0.36905 0.64362 0.0
C457 C 0.15011 0.39774 0.68923 0.0
C458 C 0.16088 0.41351 0.68994 0.0
C459 C 0.14908 0.40891 0.7048 0.0
C460 C 0.14581 0.39996 0.69934 0.0
C461 C 0.15668 0.41569 0.70017 0.0
C462 C 0.15761 0.40451 0.68448 0.0
C463 C 0.14687 0.38816 0.68389 0.0
O464 O 0.12494 0.36725 0.67382 0.0
O465 O 0.13694 0.35786 0.68333 0.0
O466 O 0.15163 0.37889 0.68567 0.0
O467 O 0.13976 0.38855 0.67625 0.0
H468 H 0.11799 0.36041 0.70016 0.0
H469 H 0.10354 0.34929 0.70724 0.0
H470 H 0.10313 0.33217 0.67736 0.0
H471 H 0.11724 0.34358 0.67028 0.0
H472 H 0.15699 0.3467 0.62528 0.0
H473 H 0.14676 0.35164 0.64128 0.0
H474 H 0.18074 0.37009 0.63312 0.0
H475 H 0.17012 0.37525 0.64879 0.0
H476 H 0.16683 0.41863 0.68631 0.0
H477 H 0.14569 0.41053 0.71264 0.0
H478 H 0.14 0.39472 0.70303 0.0
H479 H 0.16099 0.40277 0.67666 0.0
C480 C 0.11395 0.39882 0.36479 0.0
C481 C 0.11115 0.40478 0.35568 0.0
C482 C 0.09819 0.39138 0.35117 0.0
C483 C 0.10325 0.40109 0.34891 0.0
C484 C 0.10105 0.38553 0.36036 0.0
C485 C 0.10883 0.38926 0.36713 0.0
U486 U 0.13858 0.41522 0.36987 0.0
O487 O 0.14476 0.42119 0.38504 0.0
O488 O 0.1543 0.40976 0.37544 0.0
C489 C 0.15327 0.41487 0.38452 0.0
C490 C 0.12282 0.40186 0.37148 0.0
C491 C 0.15547 0.40832 0.394 0.0
C492 C 0.15288 0.39215 0.40453 0.0
C493 C 0.14949 0.39919 0.39645 0.0
C494 C 0.16783 0.40365 0.40803 0.0
C495 C 0.1623 0.39418 0.4101 0.0
C496 C 0.16444 0.41065 0.40003 0.0
C497 C 0.1477 0.43522 0.34837 0.0
C498 C 0.16546 0.44278 0.3474 0.0
C499 C 0.15306 0.44557 0.33287 0.0
C500 C 0.14534 0.4398 0.33844 0.0
C501 C 0.1633 0.44683 0.33712 0.0
C502 C 0.1577 0.43694 0.35298 0.0
C503 C 0.14007 0.42772 0.35306 0.0
O504 O 0.13229 0.3992 0.3676 0.0
O505 O 0.12229 0.41154 0.37546 0.0
O506 O 0.13515 0.43066 0.36194 0.0
O507 O 0.14338 0.41771 0.35317 0.0
H508 H 0.11519 0.41214 0.35372 0.0
H509 H 0.10118 0.40575 0.34188 0.0
H510 H 0.09755 0.37787 0.36217 0.0
H511 H 0.11107 0.38451 0.37404 0.0
H512 H 0.14851 0.38488 0.406 0.0
H513 H 0.14252 0.39729 0.39182 0.0
H514 H 0.17504 0.40543 0.41232 0.0
H515 H 0.16911 0.41766 0.39824 0.0
H516 H 0.17331 0.44362 0.35084 0.0
H517 H 0.15114 0.44875 0.32504 0.0
H518 H 0.13766 0.43853 0.33479 0.0
H519 H 0.15965 0.43339 0.36065 0.0
C520 C 0.17694 0.70219 0.28216 0.0
C521 C 0.17205 0.70975 0.28898 0.0
C522 C 0.15728 0.71168 0.27666 0.0
C523 C 0.16224 0.71453 0.2862 0.0
C524 C 0.16234 0.70434 0.26979 0.0
C525 C 0.17212 0.69967 0.2725 0.0
U526 U 0.20114 0.69584 0.30007 0.0
O527 O 0.20817 0.68013 0.30397 0.0
O528 O 0.21763 0.69187 0.29494 0.0
C529 C 0.2171 0.68206 0.29868 0.0
C530 C 0.18682 0.69646 0.28496 0.0
C531 C 0.22083 0.6736 0.29145 0.0
C532 C 0.21806 0.66124 0.27692 0.0
C533 C 0.21456 0.67001 0.283 0.0
C534 C 0.23415 0.65989 0.28752 0.0
C535 C 0.22777 0.65601 0.27934 0.0
C536 C 0.23071 0.66865 0.2935 0.0
C537 C 0.20565 0.71081 0.32623 0.0
C538 C 0.21859 0.70566 0.33975 0.0
C539 C 0.2082 0.72208 0.3416 0.0
C540 C 0.20313 0.72005 0.33199 0.0
C541 C 0.21592 0.71488 0.34566 0.0
C542 C 0.2135 0.70365 0.33007 0.0
C543 C 0.19967 0.70872 0.31645 0.0
O544 O 0.19562 0.70205 0.28458 0.0
O545 O 0.1862 0.69007 0.29331 0.0
O546 O 0.19485 0.69949 0.31612 0.0
O547 O 0.20447 0.71131 0.30742 0.0
H548 H 0.17571 0.71176 0.29648 0.0
H549 H 0.15836 0.72013 0.29162 0.0
H550 H 0.15861 0.70208 0.2624 0.0
H551 H 0.17582 0.69388 0.26716 0.0
H552 H 0.21302 0.65827 0.27067 0.0
H553 H 0.20689 0.67379 0.28133 0.0
H554 H 0.24166 0.65594 0.28948 0.0
H555 H 0.23563 0.67135 0.29997 0.0
H556 H 0.22457 0.7 0.34263 0.0
H557 H 0.20583 0.72916 0.34601 0.0
H558 H 0.19707 0.72564 0.32915 0.0
H559 H 0.21558 0.69647 0.32568 0.0
C560 C 0.85842 0.60914 0.35881 0.0
C561 C 0.86143 0.60781 0.34804 0.0
C562 C 0.84946 0.59271 0.34673 0.0
C563 C 0.85696 0.59964 0.34203 0.0
C564 C 0.84686 0.59386 0.35762 0.0
C565 C 0.85131 0.60198 0.36358 0.0
U566 U 0.87669 0.6329 0.36468 0.0
O567 O 0.87201 0.64899 0.37011 0.0
O568 O 0.88217 0.63869 0.38023 0.0
C569 C 0.87708 0.64791 0.37919 0.0
C570 C 0.86186 0.61831 0.3651 0.0
C571 C 0.87178 0.65243 0.38876 0.0
C572 C 0.85725 0.65387 0.40191 0.0
C573 C 0.86212 0.64865 0.39312 0.0
C574 C 0.87168 0.66651 0.40194 0.0
C575 C 0.86197 0.66294 0.40639 0.0
C576 C 0.87651 0.66129 0.39332 0.0
C577 C 0.90037 0.63823 0.3447 0.0
C578 C 0.9122 0.65347 0.34348 0.0
C579 C 0.91342 0.63948 0.33024 0.0
C580 C 0.90532 0.63397 0.33555 0.0
C581 C 0.91681 0.64934 0.33403 0.0
C582 C 0.90395 0.64795 0.34878 0.0
C583 C 0.8911 0.63255 0.34919 0.0
O584 O 0.87098 0.61718 0.37014 0.0
O585 O 0.86056 0.62775 0.36059 0.0
O586 O 0.88175 0.63745 0.34842 0.0
O587 O 0.89241 0.6275 0.35833 0.0
H588 H 0.86696 0.61325 0.34423 0.0
H589 H 0.85918 0.5989 0.33368 0.0
H590 H 0.84099 0.5888 0.36146 0.0
H591 H 0.84887 0.60291 0.37186 0.0
H592 H 0.84981 0.65084 0.40513 0.0
H593 H 0.85831 0.6418 0.38968 0.0
H594 H 0.87545 0.67361 0.40485 0.0
H595 H 0.88391 0.66438 0.39002 0.0
H596 H 0.91466 0.66112 0.34648 0.0
H597 H 0.91686 0.63617 0.32297 0.0
H598 H 0.90268 0.62649 0.33228 0.0
H599 H 0.90019 0.65138 0.35584 0.0
C600 C 0.86479 0.4085 0.36356 0.0
C601 C 0.85458 0.40944 0.36835 0.0
C602 C 0.85019 0.42466 0.35665 0.0
C603 C 0.84734 0.41749 0.36494 0.0
C604 C 0.86051 0.42364 0.35207 0.0
C605 C 0.86769 0.41574 0.35553 0.0
U606 U 0.87616 0.38393 0.37953 0.0
O607 O 0.8837 0.36933 0.37298 0.0
O608 O 0.89311 0.38005 0.38283 0.0
C609 C 0.89306 0.37128 0.37712 0.0
C610 C 0.87252 0.39981 0.36612 0.0
C611 C 0.90262 0.36872 0.37047 0.0
C612 C 0.91522 0.37197 0.35579 0.0
C613 C 0.90623 0.37518 0.36198 0.0
C614 C 0.91689 0.35587 0.36648 0.0
C615 C 0.92067 0.36219 0.35791 0.0
C616 C 0.9081 0.35915 0.37268 0.0
C617 C 0.85886 0.37389 0.40418 0.0
C618 C 0.86033 0.35829 0.41587 0.0
C619 C 0.84481 0.37011 0.41715 0.0
C620 C 0.84908 0.37657 0.40913 0.0
C621 C 0.85027 0.36084 0.42049 0.0
C622 C 0.86459 0.36477 0.40767 0.0
C623 C 0.86223 0.3806 0.39506 0.0
O624 O 0.87817 0.4008 0.37483 0.0
O625 O 0.86938 0.39001 0.3645 0.0
O626 O 0.86142 0.37648 0.3855 0.0
O627 O 0.87067 0.3866 0.39615 0.0
H628 H 0.85217 0.40391 0.37459 0.0
H629 H 0.83952 0.41803 0.36875 0.0
H630 H 0.863 0.42872 0.34549 0.0
H631 H 0.87548 0.41511 0.35167 0.0
H632 H 0.91787 0.37719 0.34939 0.0
H633 H 0.90211 0.38263 0.36012 0.0
H634 H 0.92046 0.34815 0.36829 0.0
H635 H 0.90542 0.35401 0.37915 0.0
H636 H 0.86464 0.35111 0.4183 0.0
H637 H 0.83708 0.37225 0.42061 0.0
H638 H 0.84455 0.38357 0.40655 0.0
H639 H 0.87216 0.36255 0.40392 0.0
C640 C 0.65372 0.1609 0.67987 0.0
C641 C 0.66214 0.15639 0.67377 0.0
C642 C 0.664 0.14197 0.68684 0.0
C643 C 0.66727 0.14696 0.67725 0.0
C644 C 0.65557 0.14661 0.69284 0.0
C645 C 0.65047 0.15594 0.68937 0.0
U646 U 0.65008 0.18572 0.66202 0.0
O647 O 0.63532 0.19434 0.6575 0.0
O648 O 0.64751 0.20237 0.6669 0.0
C649 C 0.63796 0.20299 0.66265 0.0
C650 C 0.64845 0.17101 0.6769 0.0
C651 C 0.62955 0.208 0.66924 0.0
C652 C 0.61764 0.20855 0.68474 0.0
C653 C 0.62568 0.20332 0.67874 0.0
C654 C 0.61741 0.22303 0.67176 0.0
C655 C 0.61338 0.21841 0.6812 0.0
C656 C 0.62541 0.21787 0.66585 0.0
C657 C 0.66809 0.18995 0.6375 0.0
C658 C 0.66837 0.20637 0.62703 0.0
C659 C 0.68081 0.19185 0.62292 0.0
C660 C 0.67643 0.18578 0.63118 0.0
C661 C 0.6769 0.20223 0.62078 0.0
C662 C 0.66398 0.20025 0.63536 0.0
C663 C 0.66433 0.18361 0.64663 0.0
O664 O 0.65431 0.17954 0.67787 0.0
O665 O 0.64278 0.17098 0.66813 0.0
O666 O 0.65458 0.17992 0.646 0.0
O667 O 0.66652 0.18753 0.65604 0.0
H668 H 0.66478 0.1602 0.66642 0.0
H669 H 0.67372 0.14356 0.67244 0.0
H670 H 0.65302 0.14314 0.70039 0.0
H671 H 0.64407 0.15939 0.69421 0.0
H672 H 0.61464 0.20486 0.69201 0.0
H673 H 0.62885 0.19568 0.68147 0.0
H674 H 0.6144 0.23071 0.66897 0.0
H675 H 0.62839 0.22161 0.6586 0.0
H676 H 0.66515 0.21431 0.62552 0.0
H677 H 0.68751 0.1885 0.61842 0.0
H678 H 0.67973 0.17788 0.63281 0.0
H679 H 0.65753 0.20359 0.64022 0.0
C680 C 0.36266 0.21377 0.62173 0.0
C681 C 0.36574 0.22416 0.61877 0.0
C682 C 0.35092 0.22542 0.60616 0.0
C683 C 0.35993 0.22993 0.61096 0.0
C684 C 0.34819 0.21494 0.60896 0.0
C685 C 0.35398 0.20922 0.6166 0.0
U686 U 0.38213 0.20467 0.64534 0.0
O687 O 0.37681 0.1957 0.65963 0.0
O688 O 0.38767 0.18798 0.64793 0.0
C689 C 0.38239 0.18709 0.65703 0.0
C690 C 0.36773 0.20733 0.63033 0.0
C691 C 0.37837 0.1765 0.66049 0.0
C692 C 0.36669 0.16105 0.6597 0.0
C693 C 0.37002 0.17105 0.65561 0.0
C694 C 0.37981 0.16214 0.67362 0.0
C695 C 0.37155 0.15638 0.66884 0.0
C696 C 0.38321 0.17187 0.66944 0.0
C697 C 0.40548 0.22353 0.65501 0.0
C698 C 0.41622 0.22508 0.6711 0.0
C699 C 0.41963 0.2366 0.65591 0.0
C700 C 0.41149 0.2317 0.65033 0.0
C701 C 0.42197 0.23365 0.66652 0.0
C702 C 0.40803 0.22007 0.6654 0.0
C703 C 0.39622 0.21964 0.6489 0.0
O704 O 0.37723 0.20298 0.62855 0.0
O705 O 0.36616 0.21033 0.64026 0.0
O706 O 0.38683 0.21924 0.65374 0.0
O707 O 0.39788 0.21188 0.64204 0.0
H708 H 0.37245 0.22784 0.62261 0.0
H709 H 0.36222 0.23801 0.60895 0.0
H710 H 0.34142 0.21117 0.60531 0.0
H711 H 0.3515 0.20121 0.6187 0.0
H712 H 0.36037 0.15702 0.65561 0.0
H713 H 0.3661 0.17447 0.64869 0.0
H714 H 0.3836 0.15938 0.68085 0.0
H715 H 0.3896 0.17595 0.67341 0.0
H716 H 0.41771 0.22249 0.67922 0.0
H717 H 0.42404 0.24282 0.65184 0.0
H718 H 0.40972 0.23449 0.64232 0.0
H719 H 0.40353 0.21375 0.66921 0.0
C720 C 0.34152 0.83012 0.6364 0.0
C721 C 0.34585 0.82027 0.63294 0.0
C722 C 0.3321 0.81921 0.61912 0.0
C723 C 0.34118 0.81486 0.62436 0.0
C724 C 0.32808 0.82919 0.62256 0.0
C725 C 0.33267 0.83448 0.63107 0.0
U726 U 0.35817 0.84002 0.66172 0.0
O727 O 0.36153 0.85708 0.66441 0.0
O728 O 0.35036 0.84855 0.6752 0.0
C729 C 0.35537 0.85745 0.67299 0.0
C730 C 0.34559 0.8363 0.6455 0.0
C731 C 0.35139 0.86779 0.67731 0.0
C732 C 0.33951 0.88349 0.67776 0.0
C733 C 0.34279 0.87375 0.67303 0.0
C734 C 0.3533 0.88127 0.691 0.0
C735 C 0.34479 0.88741 0.68681 0.0
C736 C 0.35655 0.87166 0.6863 0.0
C737 C 0.38256 0.8214 0.67267 0.0
C738 C 0.39491 0.8199 0.68763 0.0
C739 C 0.39564 0.80679 0.67357 0.0
C740 C 0.3873 0.81216 0.66838 0.0
C741 C 0.39952 0.8104 0.68338 0.0
C742 C 0.38649 0.82536 0.68233 0.0
C743 C 0.37342 0.82616 0.66673 0.0
O744 O 0.3435 0.83303 0.65529 0.0
O745 O 0.3547 0.84131 0.64447 0.0
O746 O 0.37496 0.83422 0.66013 0.0
O747 O 0.36372 0.82587 0.6709 0.0
H748 H 0.35272 0.81673 0.63691 0.0
H749 H 0.34452 0.80719 0.62199 0.0
H750 H 0.32137 0.83304 0.61862 0.0
H751 H 0.32924 0.8421 0.63352 0.0
H752 H 0.33296 0.88802 0.67425 0.0
H753 H 0.33865 0.87091 0.66608 0.0
H754 H 0.35743 0.88381 0.69807 0.0
H755 H 0.36314 0.86717 0.68978 0.0
H756 H 0.39761 0.82298 0.69517 0.0
H757 H 0.39909 0.79979 0.66975 0.0
H758 H 0.38447 0.80898 0.66092 0.0
H759 H 0.38298 0.83251 0.68582 0.0
C760 C 0.61521 0.83565 0.64681 0.0
C761 C 0.61283 0.83752 0.65761 0.0
C762 C 0.59876 0.82421 0.65716 0.0
C763 C 0.60461 0.83185 0.66276 0.0
C764 C 0.60098 0.82277 0.64623 0.0
C765 C 0.60912 0.82838 0.64115 0.0
U766 U 0.64011 0.85287 0.63587 0.0
O767 O 0.65429 0.84417 0.62957 0.0
O768 O 0.64355 0.85306 0.61847 0.0
C769 C 0.65189 0.84663 0.61966 0.0
C770 C 0.62447 0.84023 0.64121 0.0
C771 C 0.65935 0.84416 0.61083 0.0
C772 C 0.66487 0.83229 0.59643 0.0
C773 C 0.65742 0.83536 0.60432 0.0
C774 C 0.67613 0.84696 0.60136 0.0
C775 C 0.67439 0.83796 0.59498 0.0
C776 C 0.66866 0.85003 0.60924 0.0
C777 C 0.64661 0.88035 0.65162 0.0
C778 C 0.6597 0.89375 0.65594 0.0
C779 C 0.64206 0.89453 0.66413 0.0
C780 C 0.63925 0.8854 0.65852 0.0
C781 C 0.65241 0.89879 0.66312 0.0
C782 C 0.65681 0.88466 0.65025 0.0
C783 C 0.64359 0.87041 0.64631 0.0
O784 O 0.62319 0.84822 0.63446 0.0
O785 O 0.63397 0.83954 0.64556 0.0
O786 O 0.64829 0.86125 0.64875 0.0
O787 O 0.6372 0.87027 0.63805 0.0
H788 H 0.61748 0.8431 0.66211 0.0
H789 H 0.60317 0.83314 0.6712 0.0
H790 H 0.5965 0.81718 0.64157 0.0
H791 H 0.61087 0.82682 0.6328 0.0
H792 H 0.66335 0.82526 0.59173 0.0
H793 H 0.65028 0.83068 0.60551 0.0
H794 H 0.68335 0.85154 0.60035 0.0
H795 H 0.67026 0.85684 0.61421 0.0
H796 H 0.66779 0.89655 0.65494 0.0
H797 H 0.63601 0.89819 0.66922 0.0
H798 H 0.63131 0.8822 0.65967 0.0
H799 H 0.66261 0.88087 0.64493 0.0
C800 C 0.64526 0.87871 0.3647 0.0
C801 C 0.64298 0.88243 0.35434 0.0
C802 C 0.62785 0.87025 0.35334 0.0
C803 C 0.63431 0.87826 0.34871 0.0
C804 C 0.62992 0.86708 0.36394 0.0
C805 C 0.63853 0.87119 0.36947 0.0
U806 U 0.67179 0.89378 0.37237 0.0
O807 O 0.67721 0.8962 0.38888 0.0
O808 O 0.68653 0.88584 0.37802 0.0
C809 C 0.68558 0.88981 0.38767 0.0
C810 C 0.65497 0.88156 0.37061 0.0
C811 C 0.6885 0.88263 0.39663 0.0
C812 C 0.68541 0.86775 0.40895 0.0
C813 C 0.68174 0.87471 0.40082 0.0
C814 C 0.7024 0.87675 0.40881 0.0
C815 C 0.6959 0.86858 0.41284 0.0
C816 C 0.69875 0.88365 0.40082 0.0
C817 C 0.68272 0.91776 0.35481 0.0
C818 C 0.69953 0.92745 0.35501 0.0
C819 C 0.68694 0.93059 0.34077 0.0
C820 C 0.67998 0.92327 0.34544 0.0
C821 C 0.69694 0.93261 0.34528 0.0
C822 C 0.69249 0.92002 0.35972 0.0
C823 C 0.67534 0.90933 0.35854 0.0
O824 O 0.6643 0.87941 0.36608 0.0
O825 O 0.65483 0.89044 0.37615 0.0
O826 O 0.67004 0.91076 0.36758 0.0
O827 O 0.67847 0.89939 0.35702 0.0
H828 H 0.64807 0.88827 0.3505 0.0
H829 H 0.63298 0.88095 0.34059 0.0
H830 H 0.62499 0.86125 0.36798 0.0
H831 H 0.6401 0.86823 0.37746 0.0
H832 H 0.68022 0.86153 0.41191 0.0
H833 H 0.67377 0.87379 0.3977 0.0
H834 H 0.71043 0.87774 0.41176 0.0
H835 H 0.70406 0.88973 0.39776 0.0
H836 H 0.70715 0.92883 0.35873 0.0
H837 H 0.68452 0.93457 0.33346 0.0
H838 H 0.67249 0.92171 0.34154 0.0
H839 H 0.69477 0.91586 0.36698 0.0
C840 C 0.6326 0.16753 0.32699 0.0
C841 C 0.6292 0.17669 0.33255 0.0
C842 C 0.61536 0.18012 0.31929 0.0
C843 C 0.62061 0.18295 0.32873 0.0
C844 C 0.61874 0.1708 0.31393 0.0
C845 C 0.62724 0.16458 0.31776 0.0
U846 U 0.65706 0.16057 0.34463 0.0
O847 O 0.66415 0.14473 0.34805 0.0
O848 O 0.67343 0.15674 0.33916 0.0
C849 C 0.67311 0.14694 0.34293 0.0
C850 C 0.64216 0.16128 0.33003 0.0
C851 C 0.67777 0.13865 0.33602 0.0
C852 C 0.67669 0.12446 0.32296 0.0
C853 C 0.67174 0.13273 0.32883 0.0
C854 C 0.69363 0.12841 0.33116 0.0
C855 C 0.68765 0.12209 0.32431 0.0
C856 C 0.68872 0.13655 0.33698 0.0
C857 C 0.6637 0.17695 0.36958 0.0
C858 C 0.68005 0.17531 0.37994 0.0
C859 C 0.66717 0.18951 0.38371 0.0
C860 C 0.66059 0.18579 0.37569 0.0
C861 C 0.67708 0.18449 0.38581 0.0
C862 C 0.67341 0.17159 0.37182 0.0
C863 C 0.65689 0.17406 0.36057 0.0
O864 O 0.65128 0.16627 0.32909 0.0
O865 O 0.64144 0.15539 0.33875 0.0
O866 O 0.65224 0.16473 0.3611 0.0
O867 O 0.66077 0.17632 0.35103 0.0
H868 H 0.63329 0.1791 0.33969 0.0
H869 H 0.61814 0.19002 0.33311 0.0
H870 H 0.61506 0.16847 0.30655 0.0
H871 H 0.62983 0.15758 0.31332 0.0
H872 H 0.67191 0.11972 0.31769 0.0
H873 H 0.66326 0.13435 0.32792 0.0
H874 H 0.70214 0.12698 0.33214 0.0
H875 H 0.6935 0.14113 0.34239 0.0
H876 H 0.68764 0.17126 0.38136 0.0
H877 H 0.66451 0.19643 0.38822 0.0
H878 H 0.65312 0.19001 0.37411 0.0
H879 H 0.67596 0.16473 0.36716 0.0
C880 C 0.32627 0.13579 0.37336 0.0
C881 C 0.33167 0.13151 0.3644 0.0
C882 C 0.31873 0.11699 0.36351 0.0
C883 C 0.32794 0.12218 0.35953 0.0
C884 C 0.31343 0.12145 0.37246 0.0
C885 C 0.31718 0.13064 0.37731 0.0
U886 U 0.34312 0.16154 0.37887 0.0
O887 O 0.33667 0.17699 0.38457 0.0
O888 O 0.34774 0.1676 0.39465 0.0
C889 C 0.3419 0.17637 0.3936 0.0
C890 C 0.32957 0.14563 0.37885 0.0
C891 C 0.33689 0.1811 0.40327 0.0
C892 C 0.32151 0.18629 0.41441 0.0
C893 C 0.32598 0.18017 0.40601 0.0
C894 C 0.33888 0.1938 0.41762 0.0
C895 C 0.32788 0.19347 0.42006 0.0
C896 C 0.34328 0.18774 0.40933 0.0
C897 C 0.36755 0.16865 0.35979 0.0
C898 C 0.37846 0.18455 0.3575 0.0
C899 C 0.38261 0.16867 0.34727 0.0
C900 C 0.3741 0.16344 0.35224 0.0
C901 C 0.38494 0.17931 0.34974 0.0
C902 C 0.36982 0.17925 0.3625 0.0
C903 C 0.35824 0.16271 0.36405 0.0
O904 O 0.33866 0.1453 0.38402 0.0
O905 O 0.32778 0.15479 0.37395 0.0
O906 O 0.34867 0.16711 0.36302 0.0
O907 O 0.35944 0.15744 0.37309 0.0
H908 H 0.33873 0.13536 0.36119 0.0
H909 H 0.33233 0.11901 0.35271 0.0
H910 H 0.30617 0.11801 0.37565 0.0
H911 H 0.31284 0.13382 0.38416 0.0
H912 H 0.31302 0.1858 0.41611 0.0
H913 H 0.32088 0.17506 0.40144 0.0
H914 H 0.3441 0.19898 0.42197 0.0
H915 H 0.35171 0.18857 0.40739 0.0
H916 H 0.38003 0.19272 0.35967 0.0
H917 H 0.38718 0.16439 0.34121 0.0
H918 H 0.37247 0.15531 0.34997 0.0
H919 H 0.36488 0.18346 0.36832 0.0
C920 C 0.37303 0.91575 0.38816 0.0
C921 C 0.36222 0.9142 0.39093 0.0
C922 C 0.35706 0.93052 0.3813 0.0
C923 C 0.3543 0.92152 0.3875 0.0
C924 C 0.36793 0.93233 0.37908 0.0
C925 C 0.37581 0.925 0.38244 0.0
U926 U 0.38574 0.89066 0.40219 0.0
O927 O 0.39392 0.87695 0.3945 0.0
O928 O 0.40286 0.88715 0.40529 0.0
C929 C 0.40314 0.87877 0.39901 0.0
C930 C 0.38141 0.90742 0.39001 0.0
C931 C 0.41304 0.8764 0.39269 0.0
C932 C 0.42489 0.8783 0.37712 0.0
C933 C 0.41588 0.88177 0.38319 0.0
C934 C 0.42829 0.86425 0.39004 0.0
C935 C 0.43115 0.86934 0.38037 0.0
C936 C 0.41945 0.86777 0.39609 0.0
C937 C 0.36882 0.87775 0.42587 0.0
C938 C 0.36844 0.85977 0.43349 0.0
C939 C 0.35623 0.87339 0.44024 0.0
C940 C 0.36062 0.88079 0.43305 0.0
C941 C 0.35988 0.86273 0.44037 0.0
C942 C 0.37291 0.86723 0.42632 0.0
C943 C 0.37185 0.88545 0.41733 0.0
O944 O 0.38693 0.90799 0.39885 0.0
O945 O 0.37893 0.8976 0.38755 0.0
O946 O 0.37132 0.88215 0.40743 0.0
O947 O 0.37996 0.89175 0.41896 0.0
H948 H 0.35987 0.90715 0.39537 0.0
H949 H 0.34599 0.91997 0.38941 0.0
H950 H 0.37031 0.93913 0.37426 0.0
H951 H 0.38408 0.92634 0.38017 0.0
H952 H 0.42685 0.88258 0.36983 0.0
H953 H 0.41107 0.88847 0.38038 0.0
H954 H 0.43261 0.85722 0.39281 0.0
H955 H 0.41738 0.86344 0.40334 0.0
H956 H 0.37146 0.8516 0.43346 0.0
H957 H 0.34958 0.8759 0.44533 0.0
H958 H 0.35726 0.88882 0.4328 0.0
H959 H 0.37923 0.86468 0.42086 0.0
C960 C 0.71609 0.68285 0.22535 0.0
C961 C 0.72421 0.67839 0.2188 0.0
C962 C 0.72542 0.66265 0.23058 0.0
C963 C 0.72885 0.66837 0.22141 0.0
C964 C 0.71726 0.66726 0.23699 0.0
C965 C 0.71275 0.67721 0.23445 0.0
U966 U 0.70879 0.70958 0.20991 0.0
O967 O 0.6926 0.71648 0.20804 0.0
O968 O 0.70445 0.72502 0.21737 0.0
C969 C 0.69459 0.72489 0.21384 0.0
C970 C 0.71062 0.69317 0.22309 0.0
C971 C 0.68589 0.72884 0.22097 0.0
C972 C 0.67313 0.727 0.23578 0.0
C973 C 0.68209 0.72313 0.22993 0.0
C974 C 0.67194 0.7423 0.22389 0.0
C975 C 0.66781 0.73651 0.23261 0.0
C976 C 0.68086 0.73852 0.21818 0.0
C977 C 0.7229 0.71744 0.18291 0.0
C978 C 0.71754 0.73058 0.16942 0.0
C979 C 0.73436 0.72087 0.16744 0.0
C980 C 0.73234 0.71546 0.17705 0.0
C981 C 0.72696 0.72841 0.16341 0.0
C982 C 0.71554 0.72516 0.17912 0.0
C983 C 0.72082 0.71077 0.19251 0.0
O984 O 0.71617 0.70193 0.22401 0.0
O985 O 0.70392 0.6935 0.21508 0.0
O986 O 0.71164 0.70583 0.19296 0.0
O987 O 0.72369 0.71459 0.20177 0.0
H988 H 0.72691 0.68261 0.21171 0.0
H989 H 0.73514 0.66516 0.21628 0.0
H990 H 0.71409 0.6631 0.24391 0.0
H991 H 0.70645 0.68045 0.23957 0.0
H992 H 0.67009 0.72235 0.24246 0.0
H993 H 0.68586 0.71562 0.23223 0.0
H994 H 0.6681 0.7497 0.22134 0.0
H995 H 0.68367 0.74307 0.21133 0.0
H996 H 0.71171 0.73641 0.16659 0.0
H997 H 0.74159 0.71885 0.16299 0.0
H998 H 0.73809 0.7095 0.17978 0.0
H999 H 0.70818 0.72683 0.18352 0.0
C1000 C 0.38316 0.6685 0.13367 0.0
C1001 C 0.38503 0.6795 0.13447 0.0
C1002 C 0.37702 0.68246 0.11705 0.0
C1003 C 0.38196 0.68645 0.12619 0.0
C1004 C 0.37587 0.67137 0.11605 0.0
C1005 C 0.37886 0.66448 0.1243 0.0
U1006 U 0.39714 0.65905 0.15939 0.0
O1007 O 0.39004 0.65164 0.17371 0.0
O1008 O 0.40189 0.64267 0.16405 0.0
C1009 C 0.39501 0.64245 0.17207 0.0
C1010 C 0.3849 0.66107 0.14263 0.0
C1011 C 0.38843 0.63285 0.17299 0.0
C1012 C 0.37183 0.62337 0.17046 0.0
C1013 C 0.37829 0.63221 0.16833 0.0
C1014 C 0.38587 0.61554 0.18131 0.0
C1015 C 0.37545 0.6151 0.17727 0.0
C1016 C 0.39225 0.62434 0.17924 0.0
C1017 C 0.41976 0.67745 0.16992 0.0
C1018 C 0.42924 0.67748 0.18679 0.0
C1019 C 0.43265 0.69118 0.17345 0.0
C1020 C 0.42541 0.68648 0.16666 0.0
C1021 C 0.43447 0.68689 0.18365 0.0
C1022 C 0.42184 0.6728 0.17995 0.0
C1023 C 0.41131 0.6738 0.16283 0.0
O1024 O 0.39401 0.65566 0.1425 0.0
O1025 O 0.38209 0.66456 0.15216 0.0
O1026 O 0.40144 0.67432 0.16656 0.0
O1027 O 0.41339 0.66528 0.15706 0.0
H1028 H 0.38845 0.68274 0.14164 0.0
H1029 H 0.38294 0.69496 0.1272 0.0
H1030 H 0.37232 0.66803 0.109 0.0
H1031 H 0.37748 0.65601 0.12351 0.0
H1032 H 0.36383 0.62328 0.16722 0.0
H1033 H 0.37524 0.63869 0.16338 0.0
H1034 H 0.38902 0.60918 0.18634 0.0
H1035 H 0.4001 0.62464 0.18279 0.0
H1036 H 0.43051 0.67408 0.19466 0.0
H1037 H 0.43661 0.69839 0.17086 0.0
H1038 H 0.42392 0.69016 0.15894 0.0
H1039 H 0.41753 0.66581 0.1826 0.0
C1040 C 0.37563 0.37056 0.0929 0.0
C1041 C 0.38168 0.36118 0.09088 0.0
C1042 C 0.36822 0.35529 0.0783 0.0
C1043 C 0.37799 0.35358 0.08359 0.0
C1044 C 0.36245 0.36482 0.0801 0.0
C1045 C 0.36614 0.37237 0.08727 0.0
U1046 U 0.39099 0.38182 0.11755 0.0
O1047 O 0.39413 0.39876 0.12121 0.0
O1048 O 0.3836 0.38938 0.1317 0.0
C1049 C 0.388 0.39867 0.12983 0.0
C1050 C 0.37831 0.37832 0.10131 0.0
C1051 C 0.38154 0.40838 0.1325 0.0
C1052 C 0.36516 0.41931 0.13216 0.0
C1053 C 0.37141 0.41068 0.12822 0.0
C1054 C 0.3792 0.42353 0.14446 0.0
C1055 C 0.3689 0.42575 0.14051 0.0
C1056 C 0.3854 0.41501 0.14049 0.0
C1057 C 0.41489 0.36412 0.12922 0.0
C1058 C 0.42374 0.36346 0.14649 0.0
C1059 C 0.42851 0.35051 0.13293 0.0
C1060 C 0.42121 0.35535 0.12598 0.0
C1061 C 0.42964 0.3542 0.14344 0.0
C1062 C 0.4164 0.36836 0.13944 0.0
C1063 C 0.4062 0.36768 0.12201 0.0
O1064 O 0.37609 0.37546 0.11119 0.0
O1065 O 0.38734 0.3835 0.10037 0.0
O1066 O 0.40777 0.37604 0.1158 0.0
O1067 O 0.39634 0.36708 0.12569 0.0
H1068 H 0.38902 0.35958 0.09516 0.0
H1069 H 0.38251 0.34622 0.0824 0.0
H1070 H 0.35487 0.36627 0.0762 0.0
H1071 H 0.36133 0.37951 0.08871 0.0
H1072 H 0.35733 0.42083 0.1288 0.0
H1073 H 0.36823 0.40566 0.12205 0.0
H1074 H 0.38235 0.42807 0.15099 0.0
H1075 H 0.39314 0.41335 0.144 0.0
H1076 H 0.42437 0.3666 0.15448 0.0
H1077 H 0.43311 0.34368 0.13008 0.0
H1078 H 0.42023 0.35197 0.11812 0.0
H1079 H 0.41163 0.37515 0.14211 0.0
C1080 C 0.61327 0.35076 0.1563 0.0
C1081 C 0.60983 0.35498 0.16616 0.0
C1082 C 0.59609 0.34124 0.16781 0.0
C1083 C 0.60128 0.35028 0.17185 0.0
C1084 C 0.59965 0.33719 0.1579 0.0
C1085 C 0.60803 0.34193 0.15223 0.0
U1086 U 0.63774 0.36908 0.14872 0.0
O1087 O 0.6531 0.36359 0.14174 0.0
O1088 O 0.64244 0.37414 0.1324 0.0
C1089 C 0.6516 0.36882 0.13274 0.0
C1090 C 0.62248 0.35486 0.15004 0.0
C1091 C 0.65583 0.3639 0.12285 0.0
C1092 C 0.65751 0.34949 0.10991 0.0
C1093 C 0.65216 0.35424 0.11869 0.0
C1094 C 0.6699 0.36416 0.10932 0.0
C1095 C 0.66663 0.35431 0.10537 0.0
C1096 C 0.66454 0.36889 0.11792 0.0
C1097 C 0.64623 0.39279 0.16687 0.0
C1098 C 0.66267 0.40305 0.16701 0.0
C1099 C 0.64804 0.40762 0.17908 0.0
C1100 C 0.64202 0.39939 0.17491 0.0
C1101 C 0.65848 0.40956 0.17529 0.0
C1102 C 0.65658 0.39472 0.16283 0.0
C1103 C 0.6397 0.38367 0.16354 0.0
O1104 O 0.6213 0.36412 0.14514 0.0
O1105 O 0.63207 0.35332 0.15401 0.0
O1106 O 0.64419 0.37412 0.16411 0.0
O1107 O 0.6337 0.38505 0.15509 0.0
H1108 H 0.61378 0.36181 0.16947 0.0
H1109 H 0.59877 0.35374 0.17939 0.0
H1110 H 0.59621 0.33011 0.15456 0.0
H1111 H 0.61058 0.33849 0.14468 0.0
H1112 H 0.65488 0.34187 0.107 0.0
H1113 H 0.64543 0.35025 0.12241 0.0
H1114 H 0.67684 0.36806 0.10592 0.0
H1115 H 0.66749 0.37634 0.12099 0.0
H1116 H 0.67064 0.40435 0.16383 0.0
H1117 H 0.64459 0.41225 0.18557 0.0
H1118 H 0.6341 0.398 0.17821 0.0
H1119 H 0.66001 0.38972 0.1566 0.0
C1120 C 0.64781 0.38749 0.86634 0.0
C1121 C 0.64616 0.39438 0.85757 0.0
C1122 C 0.63105 0.38368 0.85187 0.0
C1123 C 0.6378 0.39251 0.8504 0.0
C1124 C 0.63258 0.37712 0.86091 0.0
C1125 C 0.64085 0.37898 0.868 0.0
U1126 U 0.67434 0.3994 0.87698 0.0
O1127 O 0.67933 0.40088 0.89375 0.0
O1128 O 0.6885 0.39054 0.88274 0.0
C1129 C 0.68744 0.39415 0.89253 0.0
C1130 C 0.65692 0.38842 0.87368 0.0
C1131 C 0.68949 0.38638 0.90119 0.0
C1132 C 0.68551 0.37025 0.91138 0.0
C1133 C 0.68262 0.37789 0.9036 0.0
C1134 C 0.70193 0.37968 0.91451 0.0
C1135 C 0.69525 0.37108 0.91678 0.0
C1136 C 0.69907 0.38726 0.9068 0.0
C1137 C 0.68712 0.42347 0.86147 0.0
C1138 C 0.70517 0.43052 0.8619 0.0
C1139 C 0.69214 0.43814 0.84976 0.0
C1140 C 0.68451 0.43105 0.85362 0.0
C1141 C 0.70268 0.43777 0.85357 0.0
C1142 C 0.69744 0.42338 0.86581 0.0
C1143 C 0.67907 0.41535 0.86409 0.0
O1144 O 0.6664 0.38572 0.86979 0.0
O1145 O 0.6571 0.39685 0.87987 0.0
O1146 O 0.67338 0.41658 0.87291 0.0
O1147 O 0.68183 0.40537 0.86219 0.0
H1148 H 0.65144 0.40102 0.85614 0.0
H1149 H 0.63686 0.39774 0.84353 0.0
H1150 H 0.62742 0.37041 0.86248 0.0
H1151 H 0.64194 0.37361 0.87474 0.0
H1152 H 0.6803 0.3636 0.91302 0.0
H1153 H 0.67521 0.37705 0.89932 0.0
H1154 H 0.7095 0.38039 0.91854 0.0
H1155 H 0.70448 0.39372 0.90502 0.0
H1156 H 0.7132 0.43001 0.86505 0.0
H1157 H 0.68979 0.44379 0.84361 0.0
H1158 H 0.67658 0.43129 0.85021 0.0
H1159 H 0.69962 0.41759 0.87191 0.0
C1160 C 0.62701 0.63241 0.86773 0.0
C1161 C 0.62209 0.64151 0.87229 0.0
C1162 C 0.61032 0.64331 0.85681 0.0
C1163 C 0.61373 0.6469 0.86687 0.0
C1164 C 0.61521 0.63405 0.85257 0.0
C1165 C 0.62333 0.62867 0.858 0.0
U1166 U 0.65269 0.62552 0.88527 0.0
O1167 O 0.65909 0.60916 0.88809 0.0
O1168 O 0.66808 0.62054 0.87804 0.0
C1169 C 0.66779 0.61097 0.88239 0.0
C1170 C 0.63665 0.62698 0.87197 0.0
C1171 C 0.67321 0.60212 0.87667 0.0
C1172 C 0.6769 0.59115 0.86102 0.0
C1173 C 0.67023 0.59849 0.86656 0.0
C1174 C 0.68908 0.59072 0.87591 0.0
C1175 C 0.68663 0.5875 0.86553 0.0
C1176 C 0.68249 0.59797 0.88135 0.0
C1177 C 0.66076 0.64385 0.90958 0.0
C1178 C 0.67639 0.6451 0.92099 0.0
C1179 C 0.66249 0.65879 0.92163 0.0
C1180 C 0.65675 0.65332 0.91403 0.0
C1181 C 0.67243 0.65487 0.92525 0.0
C1182 C 0.67062 0.63965 0.91315 0.0
C1183 C 0.65454 0.63939 0.90076 0.0
O1184 O 0.64585 0.63165 0.87033 0.0
O1185 O 0.63607 0.62161 0.88102 0.0
O1186 O 0.64988 0.63013 0.90211 0.0
O1187 O 0.65815 0.64102 0.89099 0.0
H1188 H 0.62485 0.64458 0.87981 0.0
H1189 H 0.61009 0.65393 0.87047 0.0
H1190 H 0.61315 0.63113 0.84477 0.0
H1191 H 0.62709 0.62174 0.8543 0.0
H1192 H 0.67475 0.58881 0.85304 0.0
H1193 H 0.66306 0.60161 0.86279 0.0
H1194 H 0.69629 0.58788 0.87978 0.0
H1195 H 0.68491 0.60066 0.88915 0.0
H1196 H 0.68396 0.64173 0.9236 0.0
H1197 H 0.65922 0.66636 0.92432 0.0
H1198 H 0.64923 0.65675 0.91132 0.0
H1199 H 0.6739 0.63233 0.9098 0.0
C1200 C 0.31352 0.67301 0.84032 0.0
C1201 C 0.31645 0.66999 0.82987 0.0
C1202 C 0.30376 0.65551 0.83087 0.0
C1203 C 0.31158 0.66124 0.82515 0.0
C1204 C 0.30121 0.65842 0.84142 0.0
C1205 C 0.30601 0.66711 0.84607 0.0
U1206 U 0.33452 0.69457 0.8423 0.0
O1207 O 0.33305 0.71111 0.84785 0.0
O1208 O 0.34347 0.69958 0.85631 0.0
C1209 C 0.33908 0.70919 0.8562 0.0
C1210 C 0.31822 0.68215 0.84558 0.0
C1211 C 0.3347 0.71276 0.86644 0.0
C1212 C 0.32019 0.71428 0.87944 0.0
C1213 C 0.32415 0.71053 0.86964 0.0
C1214 C 0.33744 0.72207 0.88294 0.0
C1215 C 0.32686 0.72006 0.88611 0.0
C1216 C 0.34132 0.71847 0.87315 0.0
C1217 C 0.35666 0.69653 0.82142 0.0
C1218 C 0.37352 0.70534 0.82429 0.0
C1219 C 0.36997 0.69692 0.80734 0.0
C1220 C 0.35989 0.69407 0.81101 0.0
C1221 C 0.37701 0.70219 0.81408 0.0
C1222 C 0.36334 0.70249 0.82798 0.0
C1223 C 0.34679 0.6919 0.8255 0.0
O1224 O 0.32766 0.6803 0.84975 0.0
O1225 O 0.31742 0.69136 0.8405 0.0
O1226 O 0.33829 0.69824 0.82548 0.0
O1227 O 0.34785 0.68622 0.8343 0.0
H1228 H 0.32238 0.67445 0.82539 0.0
H1229 H 0.31372 0.65911 0.81702 0.0
H1230 H 0.29544 0.65397 0.84611 0.0
H1231 H 0.30382 0.66925 0.85419 0.0
H1232 H 0.31199 0.7127 0.8818 0.0
H1233 H 0.31898 0.70602 0.86454 0.0
H1234 H 0.34263 0.72666 0.88795 0.0
H1235 H 0.34948 0.72021 0.87076 0.0
H1236 H 0.37882 0.70948 0.82958 0.0
H1237 H 0.37243 0.69464 0.79933 0.0
H1238 H 0.35477 0.68956 0.80586 0.0
H1239 H 0.36087 0.70449 0.83606 0.0
C1240 C 0.3101 0.3785 0.82527 0.0
C1241 C 0.29957 0.37827 0.82942 0.0
C1242 C 0.29554 0.39567 0.82113 0.0
C1243 C 0.29231 0.38678 0.8273 0.0
C1244 C 0.30604 0.39573 0.81698 0.0
C1245 C 0.31317 0.38727 0.81901 0.0
U1246 U 0.32456 0.35348 0.83877 0.0
O1247 O 0.33375 0.34075 0.83042 0.0
O1248 O 0.34196 0.35167 0.84107 0.0
C1249 C 0.3429 0.34355 0.83453 0.0
C1250 C 0.31823 0.36988 0.82695 0.0
C1251 C 0.35258 0.34301 0.82758 0.0
C1252 C 0.36468 0.34996 0.81383 0.0
C1253 C 0.35507 0.35081 0.81984 0.0
C1254 C 0.36917 0.33349 0.82311 0.0
C1255 C 0.37179 0.34125 0.81543 0.0
C1256 C 0.35972 0.33439 0.82914 0.0
C1257 C 0.31163 0.33976 0.86429 0.0
C1258 C 0.31778 0.32526 0.87596 0.0
C1259 C 0.30084 0.33426 0.87959 0.0
C1260 C 0.3024 0.3408 0.87067 0.0
C1261 C 0.30844 0.32633 0.88239 0.0
C1262 C 0.31937 0.33193 0.86697 0.0
C1263 C 0.31274 0.34727 0.85517 0.0
O1264 O 0.32452 0.37076 0.83521 0.0
O1265 O 0.31559 0.35997 0.82501 0.0
O1266 O 0.31174 0.34345 0.84549 0.0
O1267 O 0.32007 0.35462 0.85581 0.0
H1268 H 0.29698 0.37157 0.83426 0.0
H1269 H 0.28427 0.38652 0.83063 0.0
H1270 H 0.30874 0.40234 0.81208 0.0
H1271 H 0.3212 0.3876 0.81565 0.0
H1272 H 0.36652 0.35604 0.80792 0.0
H1273 H 0.34969 0.35755 0.81851 0.0
H1274 H 0.37455 0.32676 0.82457 0.0
H1275 H 0.35801 0.32834 0.83512 0.0
H1276 H 0.3238 0.31922 0.87782 0.0
H1277 H 0.2937 0.33559 0.88442 0.0
H1278 H 0.29637 0.34683 0.8688 0.0
H1279 H 0.32659 0.33099 0.86216 0.0
H1280 H 0.22918 0.19096 0.02144 0.0
H1281 H 0.27927 0.26962 0.08482 0.0
H1282 H 0.27686 0.22554 0.99975 0.0
H1283 H 0.26907 0.21452 0.98599 0.0
H1284 H 0.24548 0.23943 0.97985 0.0
H1285 H 0.25364 0.25053 0.99339 0.0
H1286 H 0.26663 0.21826 0.02267 0.0
H1287 H 0.25309 0.20437 0.02288 0.0
H1288 H 0.22986 0.22715 0.01055 0.0
H1289 H 0.2434 0.24102 0.01064 0.0
H1290 H 0.27756 0.23075 0.0416 0.0
H1291 H 0.27045 0.22335 0.0584 0.0
H1292 H 0.23922 0.23658 0.05119 0.0
H1293 H 0.24644 0.24437 0.03458 0.0
H1294 H 0.29362 0.24904 0.03764 0.0
H1295 H 0.29831 0.25402 0.05583 0.0
H1296 H 0.26626 0.26675 0.06087 0.0
H1297 H 0.26173 0.2619 0.04263 0.0
H1298 H 0.29961 0.2562 0.01283 0.0
H1299 H 0.31316 0.26907 0.0181 0.0
H1300 H 0.28844 0.28852 0.03306 0.0
H1301 H 0.27494 0.27589 0.02746 0.0
H1302 H 0.28964 0.24612 0.99308 0.0
H1303 H 0.29445 0.25585 0.97664 0.0
H1304 H 0.27303 0.28173 0.98589 0.0
H1305 H 0.26827 0.27196 1.00224 0.0
O1306 O 0.23447 0.1965 0.02109 0.0
O1307 O 0.22309 0.20826 0.01386 0.0
O1308 O 0.29428 0.26171 0.07436 0.0
O1309 O 0.27773 0.26782 0.0775 0.0
C1310 C 0.26846 0.24378 1.00784 0.0
C1311 C 0.26401 0.23925 0.0172 0.0
C1312 C 0.26696 0.24306 0.02723 0.0
C1313 C 0.27427 0.25143 0.02806 0.0
C1314 C 0.27849 0.25628 0.01872 0.0
C1315 C 0.27543 0.25252 1.00857 0.0
C1316 C 0.26587 0.23886 0.99749 0.0
C1317 C 0.27029 0.22878 0.9951 0.0
C1318 C 0.26568 0.22241 0.98738 0.0
C1319 C 0.25649 0.22597 0.98194 0.0
C1320 C 0.25258 0.23643 0.98381 0.0
C1321 C 0.25727 0.24284 0.9915 0.0
C1322 C 0.25602 0.23061 0.01655 0.0
C1323 C 0.25863 0.22021 0.01995 0.0
C1324 C 0.25088 0.2123 0.02008 0.0
C1325 C 0.24039 0.21466 0.01673 0.0
C1326 C 0.23786 0.22507 0.01316 0.0
C1327 C 0.2456 0.23298 0.01313 0.0
C1328 C 0.2625 0.23811 0.03698 0.0
C1329 C 0.2692 0.23204 0.04366 0.0
C1330 C 0.26516 0.22783 0.05316 0.0
C1331 C 0.25436 0.22946 0.05589 0.0
C1332 C 0.24757 0.23525 0.04908 0.0
C1333 C 0.25166 0.23965 0.03967 0.0
C1334 C 0.27735 0.25513 0.03883 0.0
C1335 C 0.28767 0.25303 0.04265 0.0
C1336 C 0.29031 0.25583 0.05305 0.0
C1337 C 0.28264 0.26074 0.05982 0.0
C1338 C 0.27234 0.26296 0.05589 0.0
C1339 C 0.26974 0.26021 0.04547 0.0
C1340 C 0.28628 0.26506 0.0198 0.0
C1341 C 0.29709 0.26341 0.01694 0.0
C1342 C 0.30482 0.27071 0.02003 0.0
C1343 C 0.30186 0.27969 0.02615 0.0
C1344 C 0.29097 0.28159 0.0285 0.0
C1345 C 0.28324 0.27443 0.02523 0.0
C1346 C 0.27864 0.25837 0.9988 0.0
C1347 C 0.28604 0.2539 0.99154 0.0
C1348 C 0.28879 0.25947 0.98221 0.0
C1349 C 0.28409 0.26953 0.98001 0.0
C1350 C 0.27669 0.27396 0.98734 0.0
C1351 C 0.27402 0.26843 0.99669 0.0
C1352 C 0.23211 0.20631 0.0171 0.0
C1353 C 0.28528 0.26345 0.07098 0.0
H1354 H 0.82588 0.22801 1.00305 0.0
H1355 H 0.75964 0.274 0.08808 0.0
H1356 H 0.79185 0.27732 0.99472 0.0
H1357 H 0.79599 0.27096 0.9766 0.0
H1358 H 0.765 0.25633 0.97543 0.0
H1359 H 0.76087 0.26276 0.99348 0.0
H1360 H 0.80174 0.26614 0.01642 0.0
H1361 H 0.81451 0.25189 0.01158 0.0
H1362 H 0.78858 0.23337 0.99927 0.0
H1363 H 0.77587 0.24755 1.00441 0.0
H1364 H 0.79306 0.27462 0.0389 0.0
H1365 H 0.80238 0.26407 0.05253 0.0
H1366 H 0.78604 0.23582 0.04248 0.0
H1367 H 0.77638 0.24654 0.02905 0.0
H1368 H 0.77582 0.29278 0.04066 0.0
H1369 H 0.77327 0.2953 0.05988 0.0
H1370 H 0.75913 0.2641 0.06239 0.0
H1371 H 0.76152 0.26178 0.04312 0.0
H1372 H 0.766 0.30331 0.02181 0.0
H1373 H 0.75311 0.31579 0.03038 0.0
H1374 H 0.73265 0.28941 0.03835 0.0
H1375 H 0.7456 0.277 0.03004 0.0
H1376 H 0.77414 0.2943 0.99568 0.0
H1377 H 0.76367 0.30483 0.98279 0.0
H1378 H 0.73464 0.29078 0.99499 0.0
H1379 H 0.74517 0.27976 1.00743 0.0
O1380 O 0.82072 0.23362 1.00474 0.0
O1381 O 0.80722 0.22472 0.99787 0.0
O1382 O 0.76728 0.28954 0.07862 0.0
O1383 O 0.76057 0.27329 0.08043 0.0
C1384 C 0.77436 0.27249 1.00683 0.0
C1385 C 0.78008 0.26626 0.01431 0.0
C1386 C 0.77818 0.2678 0.02529 0.0
C1387 C 0.77067 0.27551 0.02887 0.0
C1388 C 0.76487 0.28163 0.0214 0.0
C1389 C 0.76667 0.2801 0.01036 0.0
C1390 C 0.77607 0.27047 0.99534 0.0
C1391 C 0.78587 0.27298 0.99041 0.0
C1392 C 0.78821 0.26937 0.98012 0.0
C1393 C 0.78082 0.26312 0.97475 0.0
C1394 C 0.77082 0.26109 0.9795 0.0
C1395 C 0.76843 0.2648 0.98973 0.0
C1396 C 0.7879 0.2579 0.01071 0.0
C1397 C 0.79885 0.25901 0.01264 0.0
C1398 C 0.80612 0.25086 0.00988 0.0
C1399 C 0.80256 0.24149 1.00505 0.0
C1400 C 0.79159 0.24049 1.00297 0.0
C1401 C 0.78432 0.2486 1.00583 0.0
C1402 C 0.78407 0.2613 0.03311 0.0
C1403 C 0.79145 0.26618 0.0397 0.0
C1404 C 0.7967 0.26019 0.04744 0.0
C1405 C 0.79473 0.24925 0.04851 0.0
C1406 C 0.78755 0.24429 0.04174 0.0
C1407 C 0.78213 0.25034 0.03411 0.0
C1408 C 0.76883 0.27712 0.04051 0.0
C1409 C 0.77208 0.28655 0.04536 0.0
C1410 C 0.77065 0.28795 0.05635 0.0
C1411 C 0.76602 0.27988 0.06268 0.0
C1412 C 0.76274 0.27045 0.05776 0.0
C1413 C 0.7641 0.2691 0.04676 0.0
C1414 C 0.75665 0.28931 0.02529 0.0
C1415 C 0.75866 0.30029 0.02528 0.0
C1416 C 0.75137 0.30735 0.03018 0.0
C1417 C 0.74196 0.30347 0.03492 0.0
C1418 C 0.73984 0.29253 0.03463 0.0
C1419 C 0.74718 0.28548 0.0299 0.0
C1420 C 0.76039 0.28635 1.00252 0.0
C1421 C 0.76554 0.29339 0.99547 0.0
C1422 C 0.75959 0.29938 0.98816 0.0
C1423 C 0.74842 0.29856 0.98803 0.0
C1424 C 0.74326 0.29152 0.99506 0.0
C1425 C 0.74924 0.28531 1.00216 0.0
C1426 C 0.81027 0.23276 1.00231 0.0
C1427 C 0.76467 0.28124 0.07438 0.0
H1428 H 0.70583 0.71649 0.03295 0.0
H1429 H 0.76165 0.76142 0.93779 0.0
H1430 H 0.73318 0.76842 0.03144 0.0
H1431 H 0.7303 0.76593 0.05062 0.0
H1432 H 0.763 0.75452 0.0536 0.0
H1433 H 0.76583 0.75732 0.03442 0.0
H1434 H 0.72414 0.75436 0.01271 0.0
H1435 H 0.71359 0.73983 0.02034 0.0
H1436 H 0.74253 0.72503 0.03251 0.0
H1437 H 0.75301 0.7395 0.02466 0.0
H1438 H 0.7294 0.76044 0.98918 0.0
H1439 H 0.71974 0.74699 0.97921 0.0
H1440 H 0.74199 0.72265 0.99033 0.0
H1441 H 0.75176 0.73621 0.99994 0.0
H1442 H 0.74519 0.78148 0.98453 0.0
H1443 H 0.74665 0.78309 0.96508 0.0
H1444 H 0.76364 0.75271 0.96395 0.0
H1445 H 0.7623 0.75131 0.98339 0.0
H1446 H 0.75687 0.79456 1.00568 0.0
H1447 H 0.76715 0.80834 0.99614 0.0
H1448 H 0.78546 0.78378 0.97987 0.0
H1449 H 0.77571 0.77005 0.98986 0.0
H1450 H 0.7507 0.78626 0.02972 0.0
H1451 H 0.76172 0.79619 0.0422 0.0
H1452 H 0.7903 0.78261 0.02767 0.0
H1453 H 0.77931 0.77226 0.01558 0.0
O1454 O 0.71015 0.72221 0.03008 0.0
O1455 O 0.72519 0.7152 0.03664 0.0
O1456 O 0.75266 0.77683 0.94653 0.0
O1457 O 0.76096 0.761 0.94549 0.0
C1458 C 0.7511 0.7639 0.01966 0.0
C1459 C 0.74577 0.7566 0.01316 0.0
C1460 C 0.74674 0.7573 1.00193 0.0
C1461 C 0.75294 0.76544 0.99715 0.0
C1462 C 0.75855 0.77271 1.00358 0.0
C1463 C 0.75768 0.77179 0.01488 0.0
C1464 C 0.74973 0.7631 0.03151 0.0
C1465 C 0.73975 0.76548 0.03627 0.0
C1466 C 0.7381 0.76395 0.04724 0.0
C1467 C 0.74639 0.75995 0.05374 0.0
C1468 C 0.75646 0.75775 0.04894 0.0
C1469 C 0.7581 0.75932 0.03795 0.0
C1470 C 0.73933 0.74797 0.01814 0.0
C1471 C 0.72818 0.74796 0.01702 0.0
C1472 C 0.72218 0.73966 0.0214 0.0
C1473 C 0.72722 0.73126 0.02703 0.0
C1474 C 0.7384 0.73137 0.02822 0.0
C1475 C 0.7444 0.73964 0.02379 0.0
C1476 C 0.7413 0.74931 0.99525 0.0
C1477 C 0.73225 0.75222 0.98932 0.0
C1478 C 0.72668 0.7445 0.98373 0.0
C1479 C 0.73005 0.7337 0.98398 0.0
C1480 C 0.73923 0.73088 0.98983 0.0
C1481 C 0.74481 0.73861 0.99537 0.0
C1482 C 0.7536 0.76627 0.98535 0.0
C1483 C 0.74922 0.77519 0.98006 0.0
C1484 C 0.75006 0.77608 0.96896 0.0
C1485 C 0.75526 0.76802 0.96296 0.0
C1486 C 0.75958 0.75906 0.96831 0.0
C1487 C 0.75878 0.7582 0.97941 0.0
C1488 C 0.76536 0.78119 0.99842 0.0
C1489 C 0.76324 0.79212 1.00022 0.0
C1490 C 0.76909 0.8 0.99475 0.0
C1491 C 0.77703 0.79713 0.98719 0.0
C1492 C 0.77932 0.78623 0.98558 0.0
C1493 C 0.7737 0.77837 0.99125 0.0
C1494 C 0.76422 0.77855 0.02176 0.0
C1495 C 0.75934 0.78541 0.02926 0.0
C1496 C 0.76559 0.79104 0.03635 0.0
C1497 C 0.77677 0.79008 0.03581 0.0
C1498 C 0.78166 0.78345 0.02814 0.0
C1499 C 0.77542 0.77762 0.02123 0.0
C1500 C 0.72083 0.7224 0.03156 0.0
C1501 C 0.75619 0.76892 0.95118 0.0
H1502 H 0.34768 0.73756 1.00486 0.0
H1503 H 0.28056 0.77971 0.09314 0.0
H1504 H 0.31684 0.78831 1.00271 0.0
H1505 H 0.32189 0.78456 0.98408 0.0
H1506 H 0.29 0.77332 0.97838 0.0
H1507 H 0.28514 0.7766 0.99705 0.0
H1508 H 0.32495 0.77475 0.0226 0.0
H1509 H 0.33716 0.76059 0.0163 0.0
H1510 H 0.31071 0.74512 1.00121 0.0
H1511 H 0.29857 0.7592 1.00773 0.0
H1512 H 0.31526 0.78217 0.04602 0.0
H1513 H 0.32457 0.76994 0.05812 0.0
H1514 H 0.30892 0.74329 0.04346 0.0
H1515 H 0.29894 0.75571 0.03213 0.0
H1516 H 0.29827 0.8013 0.04749 0.0
H1517 H 0.29519 0.80261 0.06678 0.0
H1518 H 0.28101 0.77135 0.06691 0.0
H1519 H 0.28404 0.7702 0.04761 0.0
H1520 H 0.28747 0.81318 0.02681 0.0
H1521 H 0.27303 0.82494 0.03355 0.0
H1522 H 0.25526 0.79718 0.04359 0.0
H1523 H 0.2694 0.78561 0.03639 0.0
H1524 H 0.29729 0.80697 1.0035 0.0
H1525 H 0.28726 0.81652 0.98965 0.0
H1526 H 0.25934 0.79795 0.99749 0.0
H1527 H 0.2694 0.78861 0.01143 0.0
O1528 O 0.34273 0.74314 1.00718 0.0
O1529 O 0.32897 0.73581 0.99908 0.0
O1530 O 0.28881 0.79564 0.08497 0.0
O1531 O 0.28173 0.77947 0.08549 0.0
C1532 C 0.29815 0.78344 0.01258 0.0
C1533 C 0.30338 0.77643 0.01972 0.0
C1534 C 0.30112 0.77715 0.03073 0.0
C1535 C 0.29361 0.78477 0.03456 0.0
C1536 C 0.28807 0.79143 0.0273 0.0
C1537 C 0.29032 0.79078 0.01629 0.0
C1538 C 0.30065 0.78273 1.00112 0.0
C1539 C 0.31092 0.78522 0.99736 0.0
C1540 C 0.31377 0.78314 0.9868 0.0
C1541 C 0.30626 0.77881 0.97994 0.0
C1542 C 0.29581 0.77687 0.98357 0.0
C1543 C 0.29304 0.77872 0.99417 0.0
C1544 C 0.31089 0.76801 0.01561 0.0
C1545 C 0.32182 0.76829 0.01794 0.0
C1546 C 0.32877 0.7602 0.01432 0.0
C1547 C 0.32491 0.75172 1.00826 0.0
C1548 C 0.31395 0.75153 1.00585 0.0
C1549 C 0.307 0.75959 0.00953 0.0
C1550 C 0.3065 0.76978 0.03822 0.0
C1551 C 0.31373 0.7737 0.04559 0.0
C1552 C 0.31913 0.76668 0.05238 0.0
C1553 C 0.31758 0.75561 0.05169 0.0
C1554 C 0.3102 0.75176 0.04433 0.0
C1555 C 0.30459 0.75881 0.03775 0.0
C1556 C 0.29142 0.78564 0.0462 0.0
C1557 C 0.29444 0.79478 0.0517 0.0
C1558 C 0.2927 0.79549 0.06271 0.0
C1559 C 0.28789 0.78706 0.06839 0.0
C1560 C 0.28476 0.77797 0.06279 0.0
C1561 C 0.28649 0.77728 0.05178 0.0
C1562 C 0.27943 0.79859 0.0312 0.0
C1563 C 0.28038 0.8097 0.03039 0.0
C1564 C 0.27219 0.81637 0.03428 0.0
C1565 C 0.26301 0.81196 0.03904 0.0
C1566 C 0.26213 0.80081 0.03977 0.0
C1567 C 0.27024 0.79419 0.0358 0.0
C1568 C 0.28403 0.7972 1.00852 0.0
C1569 C 0.28897 0.80507 1.00228 0.0
C1570 C 0.28326 0.81042 0.9943 0.0
C1571 C 0.2725 0.80796 0.99243 0.0
C1572 C 0.26756 0.80013 0.99881 0.0
C1573 C 0.27327 0.79481 1.00679 0.0
C1574 C 0.33229 0.74307 1.00453 0.0
C1575 C 0.28618 0.7877 0.0801 0.0
H1576 H 0.02468 0.23344 0.21689 0.0
H1577 H 0.0982 0.28843 0.28438 0.0
H1578 H 0.01191 0.28603 0.24481 0.0
H1579 H 0.99461 0.28226 0.23748 0.0
H1580 H 0.98345 0.27198 0.26879 0.0
H1581 H 1.00134 0.27479 0.27578 0.0
H1582 H 0.03185 0.27385 0.2384 0.0
H1583 H 0.02969 0.25858 0.22663 0.0
H1584 H 0.01431 0.24131 0.25246 0.0
H1585 H 0.01672 0.25658 0.26422 0.0
H1586 H 0.05171 0.28204 0.24639 0.0
H1587 H 0.06647 0.27075 0.23953 0.0
H1588 H 0.05721 0.24554 0.26136 0.0
H1589 H 0.04248 0.25684 0.26816 0.0
H1590 H 0.05158 0.3025 0.26247 0.0
H1591 H 0.0703 0.30644 0.26605 0.0
H1592 H 0.07325 0.27693 0.28404 0.0
H1593 H 0.05447 0.27322 0.2806 0.0
H1594 H 0.02843 0.31175 0.269 0.0
H1595 H 0.03394 0.32724 0.27916 0.0
H1596 H 0.04714 0.30613 0.30336 0.0
H1597 H 0.0412 0.2907 0.29333 0.0
H1598 H 1.0053 0.30257 0.26468 0.0
H1599 H 0.99169 0.31199 0.27523 0.0
H1600 H 1.00572 0.29888 0.3041 0.0
H1601 H 0.01818 0.28846 0.29336 0.0
O1602 O 0.02512 0.23952 0.22158 0.0
O1603 O 0.01666 0.23119 0.2349 0.0
O1604 O 0.08864 0.30254 0.2742 0.0
O1605 O 0.09075 0.28712 0.28292 0.0
C1606 C 0.01878 0.28128 0.26441 0.0
C1607 C 0.02699 0.27504 0.25963 0.0
C1608 C 0.03769 0.27695 0.26216 0.0
C1609 C 0.04029 0.2852 0.26909 0.0
C1610 C 0.03199 0.29117 0.27396 0.0
C1611 C 0.02122 0.28902 0.27199 0.0
C1612 C 0.00784 0.28035 0.26068 0.0
C1613 C 1.00568 0.283 0.25006 0.0
C1614 C 0.99569 0.28107 0.24597 0.0
C1615 C 0.98765 0.27672 0.25255 0.0
C1616 C 0.98958 0.27511 0.26349 0.0
C1617 C 0.99973 0.2767 0.26749 0.0
C1618 C 0.02449 0.26628 0.25217 0.0
C1619 C 0.02796 0.26678 0.24148 0.0
C1620 C 0.02673 0.25804 0.23478 0.0
C1621 C 0.0219 0.24869 0.23863 0.0
C1622 C 0.0181 0.24837 0.24926 0.0
C1623 C 0.0194 0.2571 0.25597 0.0
C1624 C 0.04619 0.27015 0.25772 0.0
C1625 C 0.05287 0.27404 0.24959 0.0
C1626 C 0.06117 0.26763 0.24567 0.0
C1627 C 0.06281 0.25738 0.24998 0.0
C1628 C 0.056 0.25346 0.25801 0.0
C1629 C 0.04766 0.25984 0.26185 0.0
C1630 C 0.05168 0.28757 0.27126 0.0
C1631 C 0.05627 0.29693 0.26722 0.0
C1632 C 0.06697 0.29914 0.26926 0.0
C1633 C 0.07328 0.29198 0.27531 0.0
C1634 C 0.06863 0.28261 0.27934 0.0
C1635 C 0.05791 0.28044 0.27736 0.0
C1636 C 0.03458 0.30027 0.28049 0.0
C1637 C 0.03234 0.31055 0.2766 0.0
C1638 C 0.03549 0.3193 0.28234 0.0
C1639 C 0.04098 0.31776 0.29192 0.0
C1640 C 0.0428 0.30744 0.29601 0.0
C1641 C 0.03956 0.29868 0.2903 0.0
C1642 C 0.01267 0.29472 0.27823 0.0
C1643 C 1.00519 0.30153 0.27327 0.0
C1644 C 0.99753 0.3071 0.2794 0.0
C1645 C 0.99747 0.30633 0.29065 0.0
C1646 C 1.00514 0.29955 0.29551 0.0
C1647 C 0.01246 0.29366 0.28937 0.0
C1648 C 0.02102 0.23927 0.23162 0.0
C1649 C 0.08467 0.29424 0.27743 0.0
H1650 H 0.84081 0.01764 0.20395 0.0
H1651 H 0.79021 0.09689 0.26941 0.0
H1652 H 0.7857 0.00957 0.2358 0.0
H1653 H 0.79108 0.9937 0.22572 0.0
H1654 H 0.81015 0.9827 0.25229 0.0
H1655 H 0.80478 0.99874 0.26234 0.0
H1656 H 0.80125 0.02752 0.22759 0.0
H1657 H 0.81601 0.0241 0.21498 0.0
H1658 H 0.83451 0.00971 0.24044 0.0
H1659 H 0.81978 0.01343 0.25302 0.0
H1660 H 0.7938 0.04789 0.23539 0.0
H1661 H 0.80488 0.06143 0.22663 0.0
H1662 H 0.831 0.05308 0.24754 0.0
H1663 H 0.81988 0.03946 0.25622 0.0
H1664 H 0.77401 0.04959 0.25226 0.0
H1665 H 0.77073 0.06878 0.25443 0.0
H1666 H 0.80068 0.07121 0.27109 0.0
H1667 H 0.80374 0.05199 0.26908 0.0
H1668 H 0.76413 0.02695 0.26041 0.0
H1669 H 0.74905 0.03543 0.26968 0.0
H1670 H 0.771 0.05021 0.29132 0.0
H1671 H 0.78591 0.04081 0.28262 0.0
H1672 H 0.77062 1.00636 0.25507 0.0
H1673 H 0.75925 0.99495 0.26615 0.0
H1674 H 0.77852 1.00204 0.29359 0.0
H1675 H 0.78939 0.01381 0.28253 0.0
O1676 O 0.83494 0.0186 0.20899 0.0
O1677 O 0.84376 0.01042 0.22212 0.0
O1678 O 0.77549 0.08748 0.26071 0.0
O1679 O 0.79118 0.08925 0.26863 0.0
C1680 C 0.79444 0.01609 0.25393 0.0
C1681 C 0.80099 0.02386 0.24908 0.0
C1682 C 0.79945 0.03467 0.25162 0.0
C1683 C 0.79129 0.03783 0.2588 0.0
C1684 C 0.78508 0.02997 0.26397 0.0
C1685 C 0.78682 0.01905 0.26177 0.0
C1686 C 0.7949 1.00521 0.24973 0.0
C1687 C 0.79069 1.00351 0.23959 0.0
C1688 C 0.79383 0.99454 0.23384 0.0
C1689 C 0.80111 0.98715 0.23824 0.0
C1690 C 0.80449 0.98833 0.24881 0.0
C1691 C 0.80141 0.9974 0.25455 0.0
C1692 C 0.80947 0.02074 0.24121 0.0
C1693 C 0.80849 0.02359 0.23041 0.0
C1694 C 0.81693 0.02163 0.22323 0.0
C1695 C 0.82647 0.01669 0.22672 0.0
C1696 C 0.82728 0.01356 0.2375 0.0
C1697 C 0.81887 0.01561 0.24469 0.0
C1698 C 0.80611 0.04279 0.24638 0.0
C1699 C 0.80192 0.049 0.23804 0.0
C1700 C 0.80823 0.05664 0.23305 0.0
C1701 C 0.81874 0.05817 0.23645 0.0
C1702 C 0.82289 0.05199 0.24486 0.0
C1703 C 0.81661 0.04426 0.24976 0.0
C1704 C 0.78909 0.0494 0.26054 0.0
C1705 C 0.77979 0.05426 0.25648 0.0
C1706 C 0.77797 0.06523 0.25769 0.0
C1707 C 0.78547 0.07153 0.2629 0.0
C1708 C 0.79475 0.0666 0.26701 0.0
C1709 C 0.79652 0.05562 0.26588 0.0
C1710 C 0.77605 0.03334 0.27086 0.0
C1711 C 0.7656 0.03164 0.26745 0.0
C1712 C 0.75704 0.03665 0.27263 0.0
C1713 C 0.75886 0.04369 0.28106 0.0
C1714 C 0.7693 0.04478 0.28491 0.0
C1715 C 0.77784 0.03949 0.27991 0.0
C1716 C 0.78085 0.01088 0.26799 0.0
C1717 C 0.77245 1.00529 0.26344 0.0
C1718 C 0.76596 0.99876 0.26983 0.0
C1719 C 0.76783 0.99758 0.28087 0.0
C1720 C 0.77658 1.00291 0.28523 0.0
C1721 C 0.78294 0.00953 0.27888 0.0
C1722 C 0.83558 0.015 0.21917 0.0
C1723 C 0.7837 0.08322 0.26401 0.0
H1724 H 0.03054 0.69115 0.28527 0.0
H1725 H 0.93628 0.73311 0.22686 0.0
H1726 H 0.0275 0.74435 0.25386 0.0
H1727 H 0.04657 0.74321 0.25826 0.0
H1728 H 0.05305 0.72636 0.22886 0.0
H1729 H 0.03396 0.72775 0.22435 0.0
H1730 H 0.01025 0.72776 0.26392 0.0
H1731 H 0.01781 0.71393 0.27563 0.0
H1732 H 0.03143 0.69782 0.24807 0.0
H1733 H 0.02358 0.71156 0.23643 0.0
H1734 H 0.98736 0.7345 0.25795 0.0
H1735 H 0.97724 0.72221 0.26947 0.0
H1736 H 0.98792 0.6957 0.25005 0.0
H1737 H 0.99802 0.70802 0.23847 0.0
H1738 H 0.98267 0.7534 0.24191 0.0
H1739 H 0.96319 0.75498 0.24063 0.0
H1740 H 0.96269 0.72474 0.22421 0.0
H1741 H 0.9822 0.72339 0.22532 0.0
H1742 H 1.00136 0.76549 0.2336 0.0
H1743 H 0.99146 0.77963 0.22413 0.0
H1744 H 0.98233 0.75688 0.2003 0.0
H1745 H 0.9923 0.74276 0.20981 0.0
H1746 H 0.02423 0.7607 0.23783 0.0
H1747 H 0.03562 0.77325 0.22807 0.0
H1748 H 0.02952 0.75665 0.19871 0.0
H1749 H 0.01827 0.744 0.20861 0.0
O1750 O 0.02771 0.69659 0.2805 0.0
O1751 O 0.0352 0.68904 0.26615 0.0
O1752 O 0.94475 0.74866 0.23509 0.0
O1753 O 0.944 0.73277 0.22734 0.0
C1754 C 0.01798 0.73613 0.23671 0.0
C1755 C 0.01143 0.72881 0.24221 0.0
C1756 C 1.00024 0.72943 0.24108 0.0
C1757 C 0.99564 0.73737 0.23445 0.0
C1758 C 1.0023 0.74453 0.2288 0.0
C1759 C 0.01349 0.74387 0.22986 0.0
C1760 C 0.02949 0.73612 0.23882 0.0
C1761 C 0.03309 0.74057 0.24832 0.0
C1762 C 0.04389 0.73993 0.2508 0.0
C1763 C 0.0511 0.73471 0.24386 0.0
C1764 C 0.04752 0.73041 0.23427 0.0
C1765 C 0.03672 0.73121 0.2317 0.0
C1766 C 0.01633 0.72061 0.24934 0.0
C1767 C 0.01483 0.72121 0.26043 0.0
C1768 C 0.01918 0.71332 0.2671 0.0
C1769 C 0.0252 0.70475 0.26278 0.0
C1770 C 0.02682 0.70429 0.25165 0.0
C1771 C 0.02238 0.71214 0.24499 0.0
C1772 C 0.99336 0.72213 0.24737 0.0
C1773 C 0.98738 0.72607 0.25608 0.0
C1774 C 0.98168 0.71909 0.26265 0.0
C1775 C 0.9819 0.70811 0.26056 0.0
C1776 C 0.98769 0.70417 0.25173 0.0
C1777 C 0.9934 0.71117 0.24515 0.0
C1778 C 0.98383 0.73832 0.23363 0.0
C1779 C 0.97834 0.74719 0.23794 0.0
C1780 C 0.96722 0.74804 0.23725 0.0
C1781 C 0.96139 0.73998 0.23232 0.0
C1782 C 0.96694 0.73109 0.22805 0.0
C1783 C 0.97807 0.73029 0.22868 0.0
C1784 C 0.99748 0.75317 0.22235 0.0
C1785 C 0.99739 0.76363 0.22622 0.0
C1786 C 0.99171 0.77164 0.22087 0.0
C1787 C 0.98614 0.76926 0.21156 0.0
C1788 C 0.98665 0.75887 0.20743 0.0
C1789 C 0.99227 0.75084 0.21284 0.0
C1790 C 0.02047 0.75143 0.22393 0.0
C1791 C 0.02542 0.75974 0.22931 0.0
C1792 C 0.03184 0.76694 0.22371 0.0
C1793 C 0.03343 0.76596 0.21261 0.0
C1794 C 0.02852 0.75755 0.20726 0.0
C1795 C 0.02206 0.75037 0.21288 0.0
C1796 C 0.0297 0.69631 0.26987 0.0
C1797 C 0.94956 0.74078 0.23168 0.0
H1798 H 0.20374 0.01612 0.23415 0.0
H1799 H 0.24492 0.92673 0.30262 0.0
H1800 H 0.25191 0.01601 0.27022 0.0
H1801 H 0.24936 0.03413 0.26323 0.0
H1802 H 0.22982 0.04221 0.29083 0.0
H1803 H 0.23235 0.02391 0.29781 0.0
H1804 H 0.23827 0.99817 0.26019 0.0
H1805 H 0.22566 1.00469 0.24675 0.0
H1806 H 0.20542 0.01796 0.27178 0.0
H1807 H 0.21798 0.01119 0.28515 0.0
H1808 H 0.24635 0.97511 0.26881 0.0
H1809 H 0.23644 0.96436 0.25627 0.0
H1810 H 0.20667 0.97622 0.27014 0.0
H1811 H 0.2167 0.98622 0.28313 0.0
H1812 H 0.26399 0.97377 0.28676 0.0
H1813 H 0.26671 0.95456 0.28958 0.0
H1814 H 0.23435 0.95237 0.30203 0.0
H1815 H 0.23181 0.97159 0.29935 0.0
H1816 H 0.27329 0.99719 0.2952 0.0
H1817 H 0.28748 0.99192 0.30756 0.0
H1818 H 0.26445 0.9751 0.32703 0.0
H1819 H 0.25007 0.98109 0.31509 0.0
H1820 H 0.26727 0.01582 0.28868 0.0
H1821 H 0.276 0.03016 0.29803 0.0
H1822 H 0.25368 0.02643 0.32449 0.0
H1823 H 0.24555 0.01155 0.31526 0.0
O1824 O 0.20864 0.01364 0.2396 0.0
O1825 O 0.19891 0.02097 0.2527 0.0
O1826 O 0.26086 0.93595 0.29552 0.0
O1827 O 0.24412 0.93435 0.3015 0.0
C1828 C 0.24267 1.00755 0.28758 0.0
C1829 C 0.23667 1.00017 0.28184 0.0
C1830 C 0.23829 0.98913 0.28359 0.0
C1831 C 0.24601 0.98563 0.29112 0.0
C1832 C 0.252 0.99319 0.29691 0.0
C1833 C 0.25011 1.00422 0.29526 0.0
C1834 C 0.24218 0.01878 0.28439 0.0
C1835 C 0.24722 0.02176 0.27482 0.0
C1836 C 0.24578 0.03201 0.27087 0.0
C1837 C 0.23934 0.03934 0.27653 0.0
C1838 C 0.23483 0.03657 0.28645 0.0
C1839 C 0.23623 0.02623 0.29038 0.0
C1840 C 0.22899 1.00412 0.27365 0.0
C1841 C 0.23107 1.00241 0.26275 0.0
C1842 C 0.22387 1.00618 0.25509 0.0
C1843 C 0.21452 0.01183 0.25819 0.0
C1844 C 0.21254 0.01362 0.26912 0.0
C1845 C 0.2197 0.00978 0.27677 0.0
C1846 C 0.23228 0.98143 0.27697 0.0
C1847 C 0.23769 0.97512 0.26934 0.0
C1848 C 0.23197 0.96914 0.26202 0.0
C1849 C 0.22068 0.96945 0.26202 0.0
C1850 C 0.21532 0.97557 0.2699 0.0
C1851 C 0.22105 0.98137 0.27735 0.0
C1852 C 0.24773 0.97405 0.2929 0.0
C1853 C 0.25754 0.96913 0.29017 0.0
C1854 C 0.25905 0.95816 0.29175 0.0
C1855 C 0.25074 0.95194 0.29603 0.0
C1856 C 0.24092 0.95692 0.29872 0.0
C1857 C 0.23944 0.96789 0.29719 0.0
C1858 C 0.26059 0.98967 0.30431 0.0
C1859 C 0.27123 0.99261 0.30228 0.0
C1860 C 0.27934 0.98956 0.30929 0.0
C1861 C 0.277 0.98317 0.31822 0.0
C1862 C 0.2664 0.98006 0.32017 0.0
C1863 C 0.25822 0.98341 0.31335 0.0
C1864 C 0.25592 0.01246 0.30138 0.0
C1865 C 0.26442 0.01798 0.29659 0.0
C1866 C 0.26929 0.02635 0.30192 0.0
C1867 C 0.26559 0.02964 0.3121 0.0
C1868 C 0.25698 0.02408 0.31681 0.0
C1869 C 0.25227 0.01555 0.31154 0.0
C1870 C 0.20687 0.01578 0.25004 0.0
C1871 C 0.25226 0.94028 0.29766 0.0
H1872 H 0.02419 0.86505 0.82021 0.0
H1873 H 0.09899 0.81087 0.74582 0.0
H1874 H 0.01331 0.81673 0.79107 0.0
H1875 H 0.99758 0.82433 0.80025 0.0
H1876 H 0.98695 0.8384 0.77061 0.0
H1877 H 1.00302 0.83106 0.76147 0.0
H1878 H 0.03433 0.82639 0.79595 0.0
H1879 H 0.03131 0.84092 0.80865 0.0
H1880 H 0.01687 0.86012 0.78366 0.0
H1881 H 0.02011 0.8456 0.77101 0.0
H1882 H 0.05487 0.81386 0.78408 0.0
H1883 H 0.06969 0.82216 0.79305 0.0
H1884 H 0.05968 0.85293 0.78031 0.0
H1885 H 0.04549 0.8443 0.77054 0.0
H1886 H 0.05231 0.79641 0.76748 0.0
H1887 H 0.07091 0.79201 0.76268 0.0
H1888 H 0.07418 0.8233 0.74827 0.0
H1889 H 0.05555 0.82753 0.75297 0.0
H1890 H 0.02733 0.78856 0.76097 0.0
H1891 H 0.03278 0.77386 0.74916 0.0
H1892 H 0.04856 0.79627 0.72816 0.0
H1893 H 0.04283 0.81092 0.7398 0.0
H1894 H 0.00807 0.79904 0.77199 0.0
H1895 H 0.99259 0.79101 0.76359 0.0
H1896 H 1.0 0.80771 0.73414 0.0
H1897 H 0.01541 0.81579 0.74265 0.0
O1898 O 0.02531 0.85941 0.81505 0.0
O1899 O 0.01747 0.86875 0.80206 0.0
O1900 O 0.08932 0.7961 0.7546 0.0
O1901 O 0.09155 0.8123 0.74762 0.0
C1902 C 0.02036 0.82072 0.77083 0.0
C1903 C 0.02926 0.82615 0.77485 0.0
C1904 C 0.03977 0.82329 0.77153 0.0
C1905 C 0.04146 0.81513 0.76388 0.0
C1906 C 0.03265 0.80981 0.75942 0.0
C1907 C 0.02209 0.81278 0.76289 0.0
C1908 C 0.00943 0.82328 0.77554 0.0
C1909 C 0.00751 0.82128 0.78647 0.0
C1910 C 0.99855 0.82574 0.79175 0.0
C1911 C 0.99104 0.83211 0.78623 0.0
C1912 C 0.99256 0.83354 0.77512 0.0
C1913 C 1.00171 0.82925 0.76985 0.0
C1914 C 0.02749 0.83498 0.78257 0.0
C1915 C 0.03059 0.83377 0.79323 0.0
C1916 C 0.02882 0.84207 0.80047 0.0
C1917 C 0.02386 0.85168 0.79716 0.0
C1918 C 0.02072 0.85283 0.78646 0.0
C1919 C 0.02254 0.84455 0.77923 0.0
C1920 C 0.04908 0.82844 0.77663 0.0
C1921 C 0.05602 0.82236 0.78305 0.0
C1922 C 0.0644 0.82719 0.78834 0.0
C1923 C 0.06588 0.8383 0.78759 0.0
C1924 C 0.05895 0.84436 0.78102 0.0
C1925 C 0.05073 0.83946 0.7755 0.0
C1926 C 0.05259 0.81227 0.76055 0.0
C1927 C 0.05703 0.80225 0.76319 0.0
C1928 C 0.06766 0.79978 0.76048 0.0
C1929 C 0.07404 0.80733 0.75512 0.0
C1930 C 0.06951 0.81732 0.75241 0.0
C1931 C 0.05887 0.81976 0.75509 0.0
C1932 C 0.03467 0.80096 0.7514 0.0
C1933 C 0.03175 0.79037 0.7537 0.0
C1934 C 0.03495 0.78191 0.74693 0.0
C1935 C 0.04129 0.78376 0.73771 0.0
C1936 C 0.04389 0.79442 0.73526 0.0
C1937 C 0.04054 0.80287 0.74192 0.0
C1938 C 0.01281 0.80792 0.75788 0.0
C1939 C 1.00631 0.80096 0.76374 0.0
C1940 C 0.99754 0.79638 0.75893 0.0
C1941 C 0.99516 0.79874 0.74823 0.0
C1942 C 1.00163 0.80584 0.74243 0.0
C1943 C 0.01044 0.81037 0.74723 0.0
C1944 C 0.02199 0.86048 0.80487 0.0
C1945 C 0.08541 0.80486 0.75244 0.0
H1946 H 0.35298 0.01752 0.69486 0.0
H1947 H 0.30844 0.10017 0.7683 0.0
H1948 H 0.3044 0.01139 0.73099 0.0
H1949 H 0.30777 0.99343 0.72404 0.0
H1950 H 0.32719 0.98592 0.75148 0.0
H1951 H 0.32378 1.004 0.75836 0.0
H1952 H 0.31696 0.03199 0.72166 0.0
H1953 H 0.33027 0.02711 0.70795 0.0
H1954 H 0.35044 0.01306 0.73231 0.0
H1955 H 0.33716 0.01817 0.74594 0.0
H1956 H 0.30668 0.05429 0.7328 0.0
H1957 H 0.3149 0.06905 0.72328 0.0
H1958 H 0.34609 0.05797 0.73374 0.0
H1959 H 0.33756 0.04378 0.7441 0.0
H1960 H 0.29036 0.05376 0.75074 0.0
H1961 H 0.28719 0.07266 0.75472 0.0
H1962 H 0.31952 0.07476 0.76635 0.0
H1963 H 0.32252 0.05583 0.76251 0.0
H1964 H 0.28176 0.03049 0.75863 0.0
H1965 H 0.26777 0.03659 0.77128 0.0
H1966 H 0.29181 0.05061 0.79087 0.0
H1967 H 0.30585 0.04424 0.7784 0.0
H1968 H 0.29014 0.00886 0.75127 0.0
H1969 H 0.28051 0.99642 0.76296 0.0
H1970 H 0.29952 1.0063 0.78961 0.0
H1971 H 0.309 0.01874 0.77789 0.0
O1972 O 0.34783 0.01938 0.7004 0.0
O1973 O 0.35766 0.01183 0.71317 0.0
O1974 O 0.29264 0.09099 0.7614 0.0
O1975 O 0.3094 0.09263 0.76683 0.0
C1976 C 0.31253 0.02031 0.74868 0.0
C1977 C 0.3181 0.02842 0.74311 0.0
C1978 C 0.31615 0.03931 0.74555 0.0
C1979 C 0.30867 0.04203 0.75372 0.0
C1980 C 0.3032 0.03395 0.75943 0.0
C1981 C 0.30533 0.02307 0.75706 0.0
C1982 C 0.31382 0.009 0.74519 0.0
C1983 C 0.30927 1.00582 0.73557 0.0
C1984 C 0.31118 0.99553 0.73163 0.0
C1985 C 0.31777 0.98822 0.73718 0.0
C1986 C 0.32217 0.99138 0.74695 0.0
C1987 C 0.32016 1.00167 0.75094 0.0
C1988 C 0.32611 0.02543 0.73477 0.0
C1989 C 0.32428 0.0279 0.724 0.0
C1990 C 0.33188 0.02508 0.7162 0.0
C1991 C 0.34141 0.01969 0.71903 0.0
C1992 C 0.34318 0.0172 0.72985 0.0
C1993 C 0.33561 0.02008 0.73764 0.0
C1994 C 0.32148 0.04793 0.73921 0.0
C1995 C 0.31529 0.05511 0.73312 0.0
C1996 C 0.32007 0.0635 0.72753 0.0
C1997 C 0.33126 0.06479 0.72756 0.0
C1998 C 0.33746 0.05745 0.73358 0.0
C1999 C 0.33262 0.04919 0.73941 0.0
C2000 C 0.30666 0.05344 0.75636 0.0
C2001 C 0.29671 0.0583 0.75424 0.0
C2002 C 0.29494 0.0691 0.75648 0.0
C2003 C 0.30312 0.07523 0.76083 0.0
C2004 C 0.31306 0.07029 0.76299 0.0
C2005 C 0.3148 0.05948 0.7608 0.0
C2006 C 0.29485 0.03693 0.76757 0.0
C2007 C 0.28404 0.0347 0.76575 0.0
C2008 C 0.27607 0.03821 0.77292 0.0
C2009 C 0.27879 0.04405 0.78197 0.0
C2010 C 0.28958 0.0461 0.78392 0.0
C2011 C 0.29757 0.04249 0.77682 0.0
C2012 C 0.30028 0.01467 0.76374 0.0
C2013 C 0.29234 1.00818 0.75959 0.0
C2014 C 0.28685 1.00109 0.76628 0.0
C2015 C 0.2892 1.00043 0.77724 0.0
C2016 C 0.29739 1.00675 0.78126 0.0
C2017 C 0.30288 0.01378 0.77457 0.0
C2018 C 0.34947 0.01671 0.71073 0.0
C2019 C 0.30136 0.08675 0.76303 0.0
H2020 H 1.00007 0.17688 0.80837 0.0
H2021 H 0.0848 0.24755 0.76813 0.0
H2022 H 0.99447 0.21204 0.76027 0.0
H2023 H 0.97618 0.20673 0.76482 0.0
H2024 H 0.97076 0.23688 0.78074 0.0
H2025 H 0.98911 0.24203 0.77633 0.0
H2026 H 0.01555 0.20251 0.77233 0.0
H2027 H 0.0102 0.18922 0.7857 0.0
H2028 H 0.99518 0.21422 0.80459 0.0
H2029 H 1.0008 0.22745 0.79129 0.0
H2030 H 0.0381 0.2112 0.76542 0.0
H2031 H 0.05102 0.2013 0.77634 0.0
H2032 H 0.03941 0.21824 0.80429 0.0
H2033 H 0.02627 0.22772 0.79331 0.0
H2034 H 0.03946 0.23018 0.74733 0.0
H2035 H 0.05858 0.23374 0.74539 0.0
H2036 H 0.05866 0.24641 0.77742 0.0
H2037 H 0.03951 0.24302 0.77916 0.0
H2038 H 0.0197 0.23998 0.73699 0.0
H2039 H 0.0291 0.2528 0.72546 0.0
H2040 H 0.03585 0.27187 0.75312 0.0
H2041 H 0.02655 0.25903 0.76452 0.0
H2042 H 0.99575 0.23261 0.74254 0.0
H2043 H 0.98227 0.2436 0.73322 0.0
H2044 H 0.98816 0.26966 0.7546 0.0
H2045 H 1.00165 0.25864 0.76381 0.0
O2046 O 1.00203 0.18226 0.80315 0.0
O2047 O 0.99385 0.19531 0.81223 0.0
O2048 O 0.0766 0.24035 0.75191 0.0
O2049 O 0.07721 0.24623 0.7686 0.0
C2050 C 1.00452 0.22982 0.76677 0.0
C2051 C 0.01213 0.22401 0.77294 0.0
C2052 C 0.02316 0.2261 0.77187 0.0
C2053 C 0.02652 0.23405 0.76459 0.0
C2054 C 0.01886 0.24004 0.75866 0.0
C2055 C 0.00782 0.23803 0.75974 0.0
C2056 C 0.99306 0.2274 0.76799 0.0
C2057 C 0.98924 0.21756 0.76457 0.0
C2058 C 0.97882 0.21455 0.76715 0.0
C2059 C 0.97212 0.22136 0.77322 0.0
C2060 C 0.97583 0.23143 0.77619 0.0
C2061 C 0.98623 0.23443 0.77358 0.0
C2062 C 0.00852 0.21591 0.78084 0.0
C2063 C 0.0111 0.20509 0.77937 0.0
C2064 C 0.00803 0.19752 0.78701 0.0
C2065 C 1.00226 0.20066 0.79621 0.0
C2066 C 0.99961 0.21153 0.79759 0.0
C2067 C 1.00276 0.21909 0.78999 0.0
C2068 C 0.03117 0.22015 0.77855 0.0
C2069 C 0.03835 0.21273 0.77391 0.0
C2070 C 0.04581 0.20714 0.7802 0.0
C2071 C 0.04635 0.20888 0.7913 0.0
C2072 C 0.03917 0.21643 0.79586 0.0
C2073 C 0.03166 0.22195 0.78957 0.0
C2074 C 0.03812 0.23631 0.76339 0.0
C2075 C 0.04361 0.23378 0.75389 0.0
C2076 C 0.05454 0.2358 0.75282 0.0
C2077 C 0.06016 0.24032 0.76128 0.0
C2078 C 0.05459 0.24289 0.77077 0.0
C2079 C 0.04366 0.24094 0.77179 0.0
C2080 C 0.02256 0.24862 0.75154 0.0
C2081 C 0.023 0.24708 0.74047 0.0
C2082 C 0.02838 0.25434 0.73394 0.0
C2083 C 0.03335 0.26316 0.73847 0.0
C2084 C 0.03228 0.26499 0.74949 0.0
C2085 C 0.0269 0.25777 0.75598 0.0
C2086 C 0.99974 0.24479 0.75388 0.0
C2087 C 0.99416 0.24071 0.74518 0.0
C2088 C 0.98647 0.24702 0.73984 0.0
C2089 C 0.98407 0.25754 0.74315 0.0
C2090 C 0.98969 0.26158 0.75188 0.0
C2091 C 0.99746 0.25531 0.75712 0.0
C2092 C 0.9991 0.19262 0.80436 0.0
C2093 C 0.07181 0.2423 0.76027 0.0
H2094 H 0.67386 0.02231 0.70238 0.0
H2095 H 0.7212 0.94083 0.77462 0.0
H2096 H 0.72323 0.02919 0.73564 0.0
H2097 H 0.71824 0.04653 0.728 0.0
H2098 H 0.70005 0.05406 0.75666 0.0
H2099 H 0.70496 0.03651 0.76418 0.0
H2100 H 0.71095 0.00905 0.72757 0.0
H2101 H 0.69724 0.01361 0.71444 0.0
H2102 H 0.67735 0.0273 0.73953 0.0
H2103 H 0.69102 0.02247 0.7526 0.0
H2104 H 0.72128 0.98705 0.73798 0.0
H2105 H 0.71233 0.97406 0.72698 0.0
H2106 H 0.68171 0.9848 0.73982 0.0
H2107 H 0.69088 0.99721 0.75139 0.0
H2108 H 0.73834 0.98743 0.7554 0.0
H2109 H 0.74177 0.96853 0.7594 0.0
H2110 H 0.70982 0.96611 0.77283 0.0
H2111 H 0.70657 0.98504 0.76894 0.0
H2112 H 0.74732 0.00974 0.76263 0.0
H2113 H 0.76126 1.00258 0.77436 0.0
H2114 H 0.73685 0.99054 0.79583 0.0
H2115 H 0.72302 0.99764 0.784 0.0
H2116 H 0.73983 0.02984 0.75364 0.0
H2117 H 0.74819 0.04531 0.76151 0.0
H2118 H 0.72802 0.0418 0.78964 0.0
H2119 H 0.7201 0.02599 0.78179 0.0
O2120 O 0.67921 0.02065 0.70769 0.0
O2121 O 0.66966 0.02831 0.72073 0.0
O2122 O 0.73666 0.95013 0.76661 0.0
O2123 O 0.72012 0.94836 0.77308 0.0
C2124 C 0.716 0.02052 0.75406 0.0
C2125 C 0.71018 0.01244 0.74906 0.0
C2126 C 0.71228 1.00161 0.75157 0.0
C2127 C 0.72007 0.99897 0.75932 0.0
C2128 C 0.72576 1.00713 0.76453 0.0
C2129 C 0.72368 0.01796 0.76188 0.0
C2130 C 0.71444 0.03167 0.75043 0.0
C2131 C 0.71836 0.03469 0.74034 0.0
C2132 C 0.71552 0.04459 0.73602 0.0
C2133 C 0.70874 0.05161 0.74174 0.0
C2134 C 0.70521 0.04874 0.75206 0.0
C2135 C 0.70807 0.03881 0.7564 0.0
C2136 C 0.70195 0.01539 0.74103 0.0
C2137 C 0.70361 0.01299 0.73021 0.0
C2138 C 0.69577 0.01563 0.72273 0.0
C2139 C 0.68619 0.0208 0.72594 0.0
C2140 C 0.68463 0.02331 0.73679 0.0
C2141 C 0.69243 0.02059 0.74427 0.0
C2142 C 0.70677 0.99309 0.74554 0.0
C2143 C 0.71266 0.98643 0.73859 0.0
C2144 C 0.70748 0.97912 0.73215 0.0
C2145 C 0.69623 0.97841 0.73234 0.0
C2146 C 0.69037 0.98498 0.73949 0.0
C2147 C 0.69559 0.99216 0.74608 0.0
C2148 C 0.72223 0.98759 0.76194 0.0
C2149 C 0.73214 0.98281 0.7593 0.0
C2150 C 0.73405 0.97202 0.76155 0.0
C2151 C 0.72605 0.96581 0.76642 0.0
C2152 C 0.71614 0.97065 0.76907 0.0
C2153 C 0.71426 0.98146 0.76686 0.0
C2154 C 0.73414 1.0042 0.77244 0.0
C2155 C 0.745 1.00575 0.76999 0.0
C2156 C 0.75296 1.00162 0.77671 0.0
C2157 C 0.75022 0.99583 0.786 0.0
C2158 C 0.73929 0.99473 0.78864 0.0
C2159 C 0.73135 0.99888 0.78194 0.0
C2160 C 0.72943 0.02673 0.76718 0.0
C2161 C 0.73735 0.03233 0.76157 0.0
C2162 C 0.742 0.0413 0.76605 0.0
C2163 C 0.73874 0.04498 0.77622 0.0
C2164 C 0.73088 0.0392 0.78188 0.0
C2165 C 0.72631 0.03014 0.77741 0.0
C2166 C 0.67784 0.02351 0.718 0.0
C2167 C 0.72798 0.95431 0.7687 0.0
H2168 H 0.20293 0.70871 0.48932 0.0
H2169 H 0.28627 0.76365 0.42959 0.0
H2170 H 0.23226 0.75629 0.50915 0.0
H2171 H 0.22012 0.74833 0.52225 0.0
H2172 H 0.2462 0.7289 0.53439 0.0
H2173 H 0.25835 0.73697 0.52112 0.0
H2174 H 0.2289 0.74706 0.487 0.0
H2175 H 0.21567 0.73289 0.48666 0.0
H2176 H 0.23838 0.71122 0.50162 0.0
H2177 H 0.25159 0.7254 0.50172 0.0
H2178 H 0.24172 0.76021 0.47051 0.0
H2179 H 0.23665 0.75489 0.45259 0.0
H2180 H 0.25217 0.72414 0.45752 0.0
H2181 H 0.25702 0.72952 0.47559 0.0
H2182 H 0.26022 0.77612 0.47482 0.0
H2183 H 0.26705 0.78144 0.45718 0.0
H2184 H 0.28112 0.74991 0.4531 0.0
H2185 H 0.27444 0.74477 0.4708 0.0
H2186 H 0.26512 0.78182 0.50001 0.0
H2187 H 0.27818 0.79568 0.49561 0.0
H2188 H 0.29928 0.77175 0.48179 0.0
H2189 H 0.28651 0.75788 0.48671 0.0
H2190 H 0.25312 0.77223 0.51802 0.0
H2191 H 0.26222 0.78024 0.53304 0.0
H2192 H 0.28924 0.75868 0.52783 0.0
H2193 H 0.28028 0.75129 0.51249 0.0
O2194 O 0.20827 0.7142 0.48954 0.0
O2195 O 0.22006 0.70352 0.49769 0.0
O2196 O 0.27691 0.77816 0.43942 0.0
O2197 O 0.28371 0.76186 0.4367 0.0
C2198 C 0.25262 0.75015 0.50422 0.0
C2199 C 0.24931 0.74573 0.49442 0.0
C2200 C 0.25388 0.74913 0.48465 0.0
C2201 C 0.26217 0.75662 0.48454 0.0
C2202 C 0.26602 0.76073 0.49424 0.0
C2203 C 0.2613 0.75741 0.50414 0.0
C2204 C 0.24631 0.74737 0.51416 0.0
C2205 C 0.23547 0.75055 0.51484 0.0
C2206 C 0.22845 0.74582 0.52225 0.0
C2207 C 0.23205 0.73778 0.52935 0.0
C2208 C 0.24308 0.73507 0.52912 0.0
C2209 C 0.25011 0.73976 0.52158 0.0
C2210 C 0.24118 0.73724 0.49438 0.0
C2211 C 0.231 0.73923 0.49016 0.0
C2212 C 0.22346 0.73114 0.49 0.0
C2213 C 0.22597 0.72093 0.49411 0.0
C2214 C 0.23618 0.71899 0.49839 0.0
C2215 C 0.24373 0.72708 0.49849 0.0
C2216 C 0.24974 0.74526 0.47433 0.0
C2217 C 0.24388 0.75227 0.46776 0.0
C2218 C 0.2411 0.74925 0.45749 0.0
C2219 C 0.24413 0.73913 0.45355 0.0
C2220 C 0.24965 0.73196 0.46032 0.0
C2221 C 0.25243 0.735 0.47064 0.0
C2222 C 0.26683 0.76007 0.47409 0.0
C2223 C 0.26488 0.77042 0.47014 0.0
C2224 C 0.26875 0.77341 0.46005 0.0
C2225 C 0.27459 0.76607 0.4537 0.0
C2226 C 0.27663 0.75575 0.45775 0.0
C2227 C 0.27282 0.75279 0.46786 0.0
C2228 C 0.27479 0.76877 0.49371 0.0
C2229 C 0.27272 0.7795 0.49639 0.0
C2230 C 0.28014 0.78743 0.49377 0.0
C2231 C 0.28968 0.78482 0.48821 0.0
C2232 C 0.29195 0.77403 0.48595 0.0
C2233 C 0.28468 0.76609 0.48884 0.0
C2234 C 0.26599 0.76113 0.51422 0.0
C2235 C 0.26094 0.76917 0.52026 0.0
C2236 C 0.2662 0.77373 0.52888 0.0
C2237 C 0.27659 0.77021 0.53175 0.0
C2238 C 0.28142 0.76186 0.52581 0.0
C2239 C 0.27622 0.75746 0.51711 0.0
C2240 C 0.21796 0.71234 0.49391 0.0
C2241 C 0.27846 0.76911 0.44286 0.0
H2242 H 0.8331 0.7193 0.51965 0.0
H2243 H 0.78843 0.77901 0.42924 0.0
H2244 H 0.78149 0.74997 0.52148 0.0
H2245 H 0.78682 0.74492 0.53965 0.0
H2246 H 0.79918 0.77648 0.54426 0.0
H2247 H 0.79411 0.78144 0.52595 0.0
H2248 H 0.79462 0.74065 0.50333 0.0
H2249 H 0.80913 0.72893 0.5096 0.0
H2250 H 0.82605 0.75649 0.52063 0.0
H2251 H 0.81161 0.76814 0.51405 0.0
H2252 H 0.78534 0.74632 0.48245 0.0
H2253 H 0.79556 0.73379 0.47146 0.0
H2254 H 0.82383 0.75283 0.47526 0.0
H2255 H 0.81353 0.76498 0.48687 0.0
H2256 H 0.76791 0.7648 0.47662 0.0
H2257 H 0.76615 0.76636 0.45723 0.0
H2258 H 0.79736 0.78068 0.45515 0.0
H2259 H 0.79894 0.77923 0.47455 0.0
H2260 H 0.7563 0.77537 0.49679 0.0
H2261 H 0.74313 0.78684 0.48765 0.0
H2262 H 0.76874 0.80635 0.47535 0.0
H2263 H 0.78179 0.79497 0.48459 0.0
H2264 H 0.76342 0.76732 0.52001 0.0
H2265 H 0.75061 0.77724 0.5314 0.0
H2266 H 0.76501 0.80685 0.52168 0.0
H2267 H 0.77793 0.79692 0.51034 0.0
O2268 O 0.82738 0.72407 0.51738 0.0
O2269 O 0.83529 0.73838 0.52383 0.0
O2270 O 0.77263 0.77148 0.43845 0.0
O2271 O 0.78884 0.77843 0.43693 0.0
C2272 C 0.78664 0.76808 0.5109 0.0
C2273 C 0.79357 0.76241 0.50386 0.0
C2274 C 0.79242 0.76358 0.49276 0.0
C2275 C 0.7847 0.7708 0.48868 0.0
C2276 C 0.77803 0.77679 0.49574 0.0
C2277 C 0.77892 0.77538 0.5069 0.0
C2278 C 0.78748 0.76604 0.52246 0.0
C2279 C 0.7851 0.75587 0.52652 0.0
C2280 C 0.78813 0.753 0.53681 0.0
C2281 C 0.79336 0.76036 0.54317 0.0
C2282 C 0.79507 0.77077 0.53941 0.0
C2283 C 0.79215 0.7736 0.52905 0.0
C2284 C 0.80213 0.75524 0.50813 0.0
C2285 C 0.8015 0.74414 0.50704 0.0
C2286 C 0.80978 0.73747 0.51066 0.0
C2287 C 0.81878 0.74178 0.51556 0.0
C2288 C 0.81925 0.75291 0.51686 0.0
C2289 C 0.81101 0.75958 0.51313 0.0
C2290 C 0.79869 0.75656 0.4854 0.0
C2291 C 0.79373 0.7478 0.48084 0.0
C2292 C 0.79961 0.74068 0.47447 0.0
C2293 C 0.81057 0.74227 0.47232 0.0
C2294 C 0.81547 0.75121 0.47682 0.0
C2295 C 0.80959 0.75825 0.48337 0.0
C2296 C 0.78354 0.77192 0.47696 0.0
C2297 C 0.77432 0.76834 0.47196 0.0
C2298 C 0.77335 0.76921 0.46089 0.0
C2299 C 0.78163 0.77363 0.45464 0.0
C2300 C 0.79085 0.77723 0.45972 0.0
C2301 C 0.79178 0.7764 0.47078 0.0
C2302 C 0.76998 0.78433 0.49129 0.0
C2303 C 0.75902 0.78224 0.49228 0.0
C2304 C 0.75153 0.78876 0.48705 0.0
C2305 C 0.75495 0.79737 0.48068 0.0
C2306 C 0.76591 0.79964 0.48004 0.0
C2307 C 0.77336 0.79321 0.48535 0.0
C2308 C 0.77163 0.78138 0.51434 0.0
C2309 C 0.76392 0.77593 0.52044 0.0
C2310 C 0.75661 0.78158 0.52689 0.0
C2311 C 0.75689 0.79275 0.52735 0.0
C2312 C 0.7647 0.79822 0.52144 0.0
C2313 C 0.77204 0.79256 0.51497 0.0
C2314 C 0.82765 0.73468 0.5192 0.0
C2315 C 0.78072 0.77444 0.44287 0.0
H2316 H 0.70164 0.21832 0.5088 0.0
H2317 H 0.77568 0.26327 0.43109 0.0
H2318 H 0.73608 0.26791 0.51957 0.0
H2319 H 0.72804 0.2628 0.53676 0.0
H2320 H 0.75569 0.24278 0.54346 0.0
H2321 H 0.76376 0.24804 0.52625 0.0
H2322 H 0.72772 0.25542 0.49852 0.0
H2323 H 0.71425 0.24182 0.50192 0.0
H2324 H 0.73846 0.22132 0.51612 0.0
H2325 H 0.75191 0.23485 0.51237 0.0
H2326 H 0.73683 0.26356 0.47818 0.0
H2327 H 0.72721 0.25384 0.46462 0.0
H2328 H 0.74581 0.22533 0.47216 0.0
H2329 H 0.75486 0.23504 0.48613 0.0
H2330 H 0.75583 0.28122 0.47745 0.0
H2331 H 0.75992 0.28426 0.45852 0.0
H2332 H 0.77431 0.25265 0.45662 0.0
H2333 H 0.7704 0.24982 0.47561 0.0
H2334 H 0.76263 0.29025 0.49869 0.0
H2335 H 0.7746 0.30382 0.49116 0.0
H2336 H 0.79736 0.27906 0.48221 0.0
H2337 H 0.7853 0.26548 0.48959 0.0
H2338 H 0.75526 0.28297 0.52162 0.0
H2339 H 0.76468 0.29103 0.53653 0.0
H2340 H 0.79228 0.27083 0.5298 0.0
H2341 H 0.78276 0.26278 0.51498 0.0
O2342 O 0.70705 0.22366 0.50769 0.0
O2343 O 0.71958 0.21383 0.51578 0.0
O2344 O 0.76737 0.27884 0.44018 0.0
O2345 O 0.77418 0.26238 0.43865 0.0
C2346 C 0.75417 0.25977 0.51071 0.0
C2347 C 0.74909 0.25409 0.50252 0.0
C2348 C 0.75201 0.25587 0.49177 0.0
C2349 C 0.76001 0.26332 0.48925 0.0
C2350 C 0.76521 0.26882 0.49751 0.0
C2351 C 0.76242 0.26698 0.50832 0.0
C2352 C 0.75045 0.25831 0.52178 0.0
C2353 C 0.74052 0.26269 0.52491 0.0
C2354 C 0.73597 0.25979 0.53468 0.0
C2355 C 0.7413 0.25242 0.54132 0.0
C2356 C 0.7515 0.24848 0.5384 0.0
C2357 C 0.7561 0.25149 0.52867 0.0
C2358 C 0.74078 0.24612 0.5052 0.0
C2359 C 0.73009 0.24799 0.50236 0.0
C2360 C 0.72242 0.24021 0.50432 0.0
C2361 C 0.72529 0.23047 0.50926 0.0
C2362 C 0.73599 0.22873 0.51228 0.0
C2363 C 0.74367 0.23646 0.51021 0.0
C2364 C 0.74655 0.25001 0.48313 0.0
C2365 C 0.73881 0.25521 0.47687 0.0
C2366 C 0.73336 0.24962 0.46904 0.0
C2367 C 0.73567 0.23871 0.46717 0.0
C2368 C 0.74358 0.23361 0.47343 0.0
C2369 C 0.74888 0.23918 0.48137 0.0
C2370 C 0.76287 0.26532 0.47789 0.0
C2371 C 0.75998 0.27502 0.47296 0.0
C2372 C 0.76228 0.27671 0.46214 0.0
C2373 C 0.76741 0.26867 0.45605 0.0
C2374 C 0.77034 0.25899 0.46106 0.0
C2375 C 0.76812 0.25735 0.4719 0.0
C2376 C 0.77317 0.27694 0.49469 0.0
C2377 C 0.77031 0.2878 0.49532 0.0
C2378 C 0.77707 0.29549 0.491 0.0
C2379 C 0.78681 0.29237 0.48619 0.0
C2380 C 0.78989 0.28156 0.48599 0.0
C2381 C 0.78307 0.27386 0.49019 0.0
C2382 C 0.7683 0.27228 0.51714 0.0
C2383 C 0.76335 0.28032 0.52334 0.0
C2384 C 0.76878 0.28495 0.53185 0.0
C2385 C 0.77927 0.2816 0.53444 0.0
C2386 C 0.78418 0.27355 0.52817 0.0
C2387 C 0.77878 0.26899 0.51961 0.0
C2388 C 0.71716 0.22214 0.51114 0.0
C2389 C 0.76964 0.27032 0.4445 0.0
H2390 H 0.20281 0.35483 0.52065 0.0
H2391 H 0.24797 0.28733 0.43737 0.0
H2392 H 0.25451 0.32432 0.52638 0.0
H2393 H 0.24831 0.33079 0.54327 0.0
H2394 H 0.2373 0.29888 0.55135 0.0
H2395 H 0.24267 0.29306 0.53382 0.0
H2396 H 0.24173 0.33209 0.50672 0.0
H2397 H 0.22702 0.34432 0.51159 0.0
H2398 H 0.21026 0.31814 0.52659 0.0
H2399 H 0.22494 0.30595 0.52146 0.0
H2400 H 0.24944 0.32394 0.48522 0.0
H2401 H 0.2376 0.33381 0.47315 0.0
H2402 H 0.21115 0.31426 0.48358 0.0
H2403 H 0.22304 0.30471 0.49588 0.0
H2404 H 0.26846 0.30569 0.48246 0.0
H2405 H 0.2702 0.30249 0.46325 0.0
H2406 H 0.23919 0.28768 0.46365 0.0
H2407 H 0.23764 0.29078 0.48286 0.0
H2408 H 0.28011 0.2952 0.50226 0.0
H2409 H 0.29186 0.28161 0.49399 0.0
H2410 H 0.26403 0.26316 0.4864 0.0
H2411 H 0.25258 0.27638 0.49517 0.0
H2412 H 0.27405 0.30576 0.52489 0.0
H2413 H 0.2859 0.29626 0.53737 0.0
H2414 H 0.26788 0.26751 0.5332 0.0
H2415 H 0.25607 0.27707 0.52071 0.0
O2416 O 0.20863 0.3499 0.51899 0.0
O2417 O 0.20068 0.33633 0.52725 0.0
O2418 O 0.26371 0.29576 0.44528 0.0
O2419 O 0.24758 0.28855 0.44499 0.0
C2420 C 0.24983 0.3055 0.51748 0.0
C2421 C 0.24297 0.31058 0.51007 0.0
C2422 C 0.24405 0.30825 0.49914 0.0
C2423 C 0.25176 0.30074 0.4956 0.0
C2424 C 0.25827 0.29531 0.50307 0.0
C2425 C 0.25738 0.29773 0.51403 0.0
C2426 C 0.2488 0.30833 0.52883 0.0
C2427 C 0.25083 0.31876 0.53194 0.0
C2428 C 0.24718 0.32244 0.5418 0.0
C2429 C 0.24158 0.31566 0.54894 0.0
C2430 C 0.24084 0.30476 0.54614 0.0
C2431 C 0.2442 0.30121 0.53611 0.0
C2432 C 0.23439 0.31814 0.51372 0.0
C2433 C 0.23488 0.32902 0.51107 0.0
C2434 C 0.22647 0.33599 0.51387 0.0
C2435 C 0.21745 0.3322 0.51944 0.0
C2436 C 0.21709 0.32131 0.52228 0.0
C2437 C 0.22548 0.31434 0.51941 0.0
C2438 C 0.23703 0.3137 0.49138 0.0
C2439 C 0.2411 0.32178 0.48481 0.0
C2440 C 0.23434 0.32734 0.4779 0.0
C2441 C 0.22343 0.32482 0.47743 0.0
C2442 C 0.21947 0.31651 0.48388 0.0
C2443 C 0.22623 0.31101 0.49085 0.0
C2444 C 0.25292 0.2985 0.48401 0.0
C2445 C 0.26209 0.3017 0.47838 0.0
C2446 C 0.26305 0.29989 0.46742 0.0
C2447 C 0.2548 0.29487 0.46191 0.0
C2448 C 0.24566 0.29159 0.46763 0.0
C2449 C 0.24474 0.29337 0.47859 0.0
C2450 C 0.26554 0.2867 0.49931 0.0
C2451 C 0.27665 0.28807 0.49902 0.0
C2452 C 0.2833 0.28038 0.49418 0.0
C2453 C 0.27888 0.27129 0.48953 0.0
C2454 C 0.26774 0.26992 0.49009 0.0
C2455 C 0.26116 0.2775 0.49503 0.0
C2456 C 0.26427 0.29207 0.52187 0.0
C2457 C 0.27265 0.29742 0.52671 0.0
C2458 C 0.27941 0.29199 0.53378 0.0
C2459 C 0.27783 0.28114 0.53619 0.0
C2460 C 0.26925 0.27588 0.53152 0.0
C2461 C 0.26255 0.28129 0.52437 0.0
C2462 C 0.20841 0.33956 0.52217 0.0
C2463 C 0.25568 0.29309 0.45023 0.0
H2464 H 0.85099 0.52367 0.71745 0.0
H2465 H 0.79905 0.59917 0.79231 0.0
H2466 H 0.79737 0.51278 0.75088 0.0
H2467 H 0.80076 0.49581 0.74207 0.0
H2468 H 0.8239 0.48739 0.76632 0.0
H2469 H 0.81963 0.50408 0.7755 0.0
H2470 H 0.81245 0.53387 0.74262 0.0
H2471 H 0.82686 0.53074 0.72953 0.0
H2472 H 0.84627 0.51624 0.75425 0.0
H2473 H 0.8319 0.51965 0.76728 0.0
H2474 H 0.80052 0.55393 0.75382 0.0
H2475 H 0.80731 0.57048 0.74687 0.0
H2476 H 0.83859 0.56233 0.75956 0.0
H2477 H 0.83108 0.54632 0.76768 0.0
H2478 H 0.78425 0.55349 0.77032 0.0
H2479 H 0.78022 0.57208 0.77493 0.0
H2480 H 0.81083 0.57402 0.79044 0.0
H2481 H 0.81467 0.55533 0.78596 0.0
H2482 H 0.77558 0.53233 0.77513 0.0
H2483 H 0.76055 0.53853 0.78618 0.0
H2484 H 0.78249 0.54578 0.8115 0.0
H2485 H 0.7975 0.54015 0.80003 0.0
H2486 H 0.7847 0.50847 0.7686 0.0
H2487 H 0.77396 0.49596 0.77854 0.0
H2488 H 0.78886 0.50637 0.80779 0.0
H2489 H 0.80037 0.5176 0.79741 0.0
O2490 O 0.84537 0.52478 0.72274 0.0
O2491 O 0.85475 0.51679 0.73559 0.0
O2492 O 0.78437 0.59008 0.78323 0.0
O2493 O 0.80035 0.59174 0.79058 0.0
C2494 C 0.80678 0.52055 0.76842 0.0
C2495 C 0.81259 0.52913 0.76387 0.0
C2496 C 0.81024 0.53977 0.76694 0.0
C2497 C 0.80228 0.54183 0.77478 0.0
C2498 C 0.79665 0.53332 0.77947 0.0
C2499 C 0.79901 0.52265 0.77649 0.0
C2500 C 0.8082 0.50965 0.76386 0.0
C2501 C 0.803 0.50714 0.75439 0.0
C2502 C 0.80513 0.49744 0.74925 0.0
C2503 C 0.81281 0.49009 0.75325 0.0
C2504 C 0.81783 0.49261 0.76295 0.0
C2505 C 0.81546 0.50223 0.76824 0.0
C2506 C 0.82115 0.52696 0.75586 0.0
C2507 C 0.81983 0.53003 0.74517 0.0
C2508 C 0.82807 0.52822 0.73772 0.0
C2509 C 0.83772 0.52323 0.74084 0.0
C2510 C 0.83895 0.52009 0.75157 0.0
C2511 C 0.83074 0.52199 0.75902 0.0
C2512 C 0.81526 0.54895 0.76132 0.0
C2513 C 0.80885 0.55575 0.7551 0.0
C2514 C 0.81288 0.56523 0.75096 0.0
C2515 C 0.82366 0.56799 0.75244 0.0
C2516 C 0.83021 0.56082 0.75835 0.0
C2517 C 0.82601 0.55148 0.76286 0.0
C2518 C 0.7997 0.55304 0.77791 0.0
C2519 C 0.79 0.55789 0.77486 0.0
C2520 C 0.78775 0.56853 0.77744 0.0
C2521 C 0.79521 0.57454 0.78305 0.0
C2522 C 0.80491 0.56962 0.78611 0.0
C2523 C 0.80712 0.55896 0.78358 0.0
C2524 C 0.78757 0.53577 0.78682 0.0
C2525 C 0.77708 0.53515 0.78312 0.0
C2526 C 0.76851 0.53868 0.78948 0.0
C2527 C 0.77027 0.5427 0.79976 0.0
C2528 C 0.78082 0.54297 0.80355 0.0
C2529 C 0.78941 0.53962 0.79709 0.0
C2530 C 0.79343 0.51388 0.78223 0.0
C2531 C 0.7859 0.50766 0.77712 0.0
C2532 C 0.77947 0.50065 0.78301 0.0
C2533 C 0.78006 0.50001 0.7943 0.0
C2534 C 0.78793 0.50618 0.79925 0.0
C2535 C 0.79462 0.51281 0.79329 0.0
C2536 C 0.84648 0.52138 0.73293 0.0
C2537 C 0.79294 0.58591 0.78562 0.0
H2538 H 0.27521 0.52182 0.82445 0.0
H2539 H 0.20611 0.60298 0.7787 0.0
H2540 H 0.24308 0.51402 0.77678 0.0
H2541 H 0.25087 0.49677 0.78207 0.0
H2542 H 0.22067 0.48786 0.79635 0.0
H2543 H 0.21295 0.50539 0.79129 0.0
H2544 H 0.24991 0.53383 0.78719 0.0
H2545 H 0.26305 0.52977 0.80099 0.0
H2546 H 0.23807 0.51641 0.82094 0.0
H2547 H 0.22495 0.52071 0.80714 0.0
H2548 H 0.24039 0.55366 0.77652 0.0
H2549 H 0.25076 0.56762 0.78468 0.0
H2550 H 0.2353 0.56124 0.81513 0.0
H2551 H 0.2246 0.54742 0.80671 0.0
H2552 H 0.22307 0.55569 0.76037 0.0
H2553 H 0.2202 0.57486 0.75751 0.0
H2554 H 0.20522 0.57724 0.78876 0.0
H2555 H 0.20792 0.55802 0.79141 0.0
H2556 H 0.21661 0.53444 0.75086 0.0
H2557 H 0.20625 0.54295 0.73652 0.0
H2558 H 0.18272 0.55383 0.75972 0.0
H2559 H 0.19312 0.5453 0.77399 0.0
H2560 H 0.22358 0.51083 0.76011 0.0
H2561 H 0.21362 0.49661 0.75145 0.0
H2562 H 0.18482 0.5067 0.76819 0.0
H2563 H 0.1948 0.52079 0.77701 0.0
O2564 O 0.26988 0.52327 0.81907 0.0
O2565 O 0.25687 0.51593 0.82877 0.0
O2566 O 0.21393 0.59358 0.7631 0.0
O2567 O 0.207 0.59533 0.77946 0.0
C2568 C 0.22357 0.5223 0.78211 0.0
C2569 C 0.22843 0.53042 0.78795 0.0
C2570 C 0.22572 0.54119 0.7859 0.0
C2571 C 0.21808 0.544 0.77814 0.0
C2572 C 0.21305 0.53598 0.77232 0.0
C2573 C 0.2157 0.52513 0.77449 0.0
C2574 C 0.22744 0.51103 0.78366 0.0
C2575 C 0.23808 0.50831 0.78094 0.0
C2576 C 0.24255 0.49849 0.78404 0.0
C2577 C 0.23642 0.49101 0.78974 0.0
C2578 C 0.22558 0.49347 0.79196 0.0
C2579 C 0.22114 0.50344 0.78902 0.0
C2580 C 0.23647 0.52766 0.79622 0.0
C2581 C 0.24728 0.53009 0.79457 0.0
C2582 C 0.25478 0.52773 0.80246 0.0
C2583 C 0.2516 0.52281 0.81209 0.0
C2584 C 0.24077 0.52023 0.81363 0.0
C2585 C 0.23327 0.52266 0.80576 0.0
C2586 C 0.23178 0.54964 0.79105 0.0
C2587 C 0.2392 0.55534 0.78493 0.0
C2588 C 0.24518 0.5632 0.78963 0.0
C2589 C 0.2439 0.56538 0.80055 0.0
C2590 C 0.23638 0.5597 0.80668 0.0
C2591 C 0.23034 0.55183 0.80193 0.0
C2592 C 0.2156 0.55546 0.77605 0.0
C2593 C 0.21899 0.56033 0.7665 0.0
C2594 C 0.21741 0.57129 0.76492 0.0
C2595 C 0.21252 0.57759 0.77294 0.0
C2596 C 0.20903 0.57263 0.78244 0.0
C2597 C 0.21053 0.56166 0.78397 0.0
C2598 C 0.20562 0.53917 0.76351 0.0
C2599 C 0.20907 0.53841 0.75282 0.0
C2600 C 0.20321 0.54341 0.74464 0.0
C2601 C 0.19368 0.54917 0.74695 0.0
C2602 C 0.18996 0.54941 0.75762 0.0
C2603 C 0.19588 0.54451 0.7658 0.0
C2604 C 0.20985 0.51675 0.76913 0.0
C2605 C 0.21514 0.50992 0.76193 0.0
C2606 C 0.20951 0.50188 0.75704 0.0
C2607 C 0.19859 0.50073 0.75929 0.0
C2608 C 0.19328 0.50756 0.76646 0.0
C2609 C 0.19892 0.51555 0.7714 0.0
C2610 C 0.25957 0.52043 0.82049 0.0
C2611 C 0.21119 0.5893 0.77148 0.0
H2612 H 0.21942 0.5342 0.28079 0.0
H2613 H 0.28115 0.43907 0.24489 0.0
H2614 H 0.25595 0.53213 0.23148 0.0
H2615 H 0.25122 0.551 0.23434 0.0
H2616 H 0.27881 0.55417 0.25438 0.0
H2617 H 0.28366 0.53532 0.25129 0.0
H2618 H 0.24399 0.5142 0.24598 0.0
H2619 H 0.23107 0.52182 0.2588 0.0
H2620 H 0.25717 0.53252 0.27812 0.0
H2621 H 0.26998 0.52458 0.26542 0.0
H2622 H 0.24972 0.49185 0.24058 0.0
H2623 H 0.23657 0.48368 0.25257 0.0
H2624 H 0.25648 0.49077 0.27954 0.0
H2625 H 0.26931 0.4993 0.26748 0.0
H2626 H 0.26944 0.48612 0.22214 0.0
H2627 H 0.27069 0.46664 0.221 0.0
H2628 H 0.28329 0.46523 0.253 0.0
H2629 H 0.28223 0.4847 0.25393 0.0
H2630 H 0.27946 0.5062 0.21091 0.0
H2631 H 0.29159 0.49807 0.19754 0.0
H2632 H 0.31201 0.48637 0.22272 0.0
H2633 H 0.29971 0.4943 0.2361 0.0
H2634 H 0.27551 0.53118 0.21795 0.0
H2635 H 0.28748 0.54485 0.211 0.0
H2636 H 0.31321 0.53133 0.22987 0.0
H2637 H 0.30095 0.51819 0.23731 0.0
O2638 O 0.22466 0.53124 0.27582 0.0
O2639 O 0.23836 0.53739 0.28495 0.0
O2640 O 0.275 0.44796 0.22832 0.0
O2641 O 0.28078 0.44679 0.24502 0.0
C2642 C 0.27203 0.52083 0.24058 0.0
C2643 C 0.26577 0.51411 0.24704 0.0
C2644 C 0.26713 0.50297 0.2463 0.0
C2645 C 0.27462 0.49853 0.23895 0.0
C2646 C 0.281 0.50531 0.23251 0.0
C2647 C 0.27984 0.51649 0.23356 0.0
C2648 C 0.27014 0.53246 0.24116 0.0
C2649 C 0.26109 0.53698 0.23628 0.0
C2650 C 0.25841 0.54768 0.23791 0.0
C2651 C 0.26468 0.55389 0.24457 0.0
C2652 C 0.27391 0.54944 0.24922 0.0
C2653 C 0.27669 0.53877 0.24744 0.0
C2654 C 0.25791 0.51882 0.25479 0.0
C2655 C 0.24689 0.51813 0.25303 0.0
C2656 C 0.23953 0.52252 0.26034 0.0
C2657 C 0.24309 0.52779 0.26948 0.0
C2658 C 0.25416 0.52853 0.27116 0.0
C2659 C 0.26149 0.52403 0.26391 0.0
C2660 C 0.26044 0.4961 0.2532 0.0
C2661 C 0.25132 0.49139 0.24906 0.0
C2662 C 0.24383 0.48675 0.25594 0.0
C2663 C 0.24541 0.48667 0.26705 0.0
C2664 C 0.25489 0.49091 0.27106 0.0
C2665 C 0.26231 0.49563 0.26419 0.0
C2666 C 0.27575 0.48679 0.2381 0.0
C2667 C 0.27257 0.48159 0.22884 0.0
C2668 C 0.27325 0.47047 0.22823 0.0
C2669 C 0.27705 0.46438 0.23693 0.0
C2670 C 0.28031 0.46967 0.24617 0.0
C2671 C 0.2797 0.48078 0.24673 0.0
C2672 C 0.28867 0.50078 0.22448 0.0
C2673 C 0.28657 0.50191 0.21354 0.0
C2674 C 0.29347 0.49728 0.20593 0.0
C2675 C 0.30271 0.49163 0.20913 0.0
C2676 C 0.30496 0.49074 0.22007 0.0
C2677 C 0.29794 0.49521 0.22769 0.0
C2678 C 0.28739 0.52372 0.22811 0.0
C2679 C 0.28375 0.53117 0.22053 0.0
C2680 C 0.29061 0.53894 0.21655 0.0
C2681 C 0.3013 0.53922 0.21992 0.0
C2682 C 0.30498 0.53149 0.22727 0.0
C2683 C 0.29806 0.52385 0.23138 0.0
C2684 C 0.23527 0.53245 0.27723 0.0
C2685 C 0.27755 0.45256 0.23645 0.0
H2686 H 0.7024 0.53064 0.21443 0.0
H2687 H 0.74172 0.43691 0.27797 0.0
H2688 H 0.75436 0.52872 0.24682 0.0
H2689 H 0.75364 0.54786 0.24323 0.0
H2690 H 0.73514 0.55252 0.27236 0.0
H2691 H 0.73665 0.53341 0.27618 0.0
H2692 H 0.73854 0.5102 0.23621 0.0
H2693 H 0.72496 0.51781 0.22433 0.0
H2694 H 0.70801 0.53104 0.25166 0.0
H2695 H 0.7215 0.52317 0.26345 0.0
H2696 H 0.74584 0.48674 0.24316 0.0
H2697 H 0.73454 0.47551 0.23236 0.0
H2698 H 0.70671 0.4864 0.25038 0.0
H2699 H 0.71813 0.49783 0.26096 0.0
H2700 H 0.76374 0.48205 0.26045 0.0
H2701 H 0.76493 0.46269 0.26319 0.0
H2702 H 0.73343 0.46337 0.27795 0.0
H2703 H 0.73244 0.48273 0.27534 0.0
H2704 H 0.77582 0.50186 0.26946 0.0
H2705 H 0.78917 0.49302 0.28076 0.0
H2706 H 0.76393 0.48313 0.30246 0.0
H2707 H 0.75069 0.49166 0.29089 0.0
H2708 H 0.76947 0.52623 0.26452 0.0
H2709 H 0.78076 0.53704 0.27581 0.0
H2710 H 0.76304 0.52651 0.30373 0.0
H2711 H 0.75167 0.51582 0.29233 0.0
O2712 O 0.70772 0.52776 0.21926 0.0
O2713 O 0.69971 0.535 0.23349 0.0
O2714 O 0.75792 0.4447 0.26976 0.0
O2715 O 0.7415 0.44456 0.27684 0.0
C2716 C 0.74589 0.51795 0.26366 0.0
C2717 C 0.73905 0.51131 0.2579 0.0
C2718 C 0.73977 0.50009 0.25917 0.0
C2719 C 0.74735 0.49552 0.26622 0.0
C2720 C 0.75413 0.50216 0.27206 0.0
C2721 C 0.75324 0.51337 0.27091 0.0
C2722 C 0.74557 0.52969 0.26175 0.0
C2723 C 0.75024 0.53393 0.25246 0.0
C2724 C 0.7497 0.5449 0.25037 0.0
C2725 C 0.74423 0.5519 0.25742 0.0
C2726 C 0.73959 0.54754 0.26679 0.0
C2727 C 0.74035 0.53657 0.26898 0.0
C2728 C 0.73099 0.51615 0.25067 0.0
C2729 C 0.73187 0.51473 0.2396 0.0
C2730 C 0.72411 0.5191 0.23284 0.0
C2731 C 0.7154 0.52503 0.23705 0.0
C2732 C 0.71462 0.52652 0.24816 0.0
C2733 C 0.72233 0.52207 0.2549 0.0
C2734 C 0.73281 0.49309 0.25284 0.0
C2735 C 0.73731 0.48665 0.24479 0.0
C2736 C 0.73082 0.48019 0.23867 0.0
C2737 C 0.71968 0.47998 0.2405 0.0
C2738 C 0.71522 0.48645 0.24863 0.0
C2739 C 0.72173 0.49294 0.25473 0.0
C2740 C 0.748 0.48377 0.26769 0.0
C2741 C 0.75713 0.478 0.2643 0.0
C2742 C 0.75777 0.46695 0.26586 0.0
C2743 C 0.74926 0.46149 0.27078 0.0
C2744 C 0.74012 0.46732 0.27413 0.0
C2745 C 0.73951 0.47837 0.27262 0.0
C2746 C 0.76228 0.49733 0.27931 0.0
C2747 C 0.77321 0.4978 0.27669 0.0
C2748 C 0.78083 0.49278 0.2832 0.0
C2749 C 0.77767 0.48725 0.29253 0.0
C2750 C 0.76669 0.48706 0.29524 0.0
C2751 C 0.75909 0.49201 0.28868 0.0
C2752 C 0.75976 0.5203 0.27763 0.0
C2753 C 0.76793 0.5264 0.27305 0.0
C2754 C 0.77434 0.53257 0.2795 0.0
C2755 C 0.77274 0.53261 0.29063 0.0
C2756 C 0.76448 0.52655 0.29518 0.0
C2757 C 0.75799 0.52048 0.2887 0.0
C2758 C 0.70713 0.52959 0.22987 0.0
C2759 C 0.74987 0.44975 0.27241 0.0
H2760 H 0.5015 0.36403 0.81098 0.0
H2761 H 0.59076 0.32206 0.74439 0.0
H2762 H 0.49954 0.31589 0.7757 0.0
H2763 H 0.48067 0.31761 0.78122 0.0
H2764 H 0.47375 0.3349 0.75214 0.0
H2765 H 0.4927 0.33312 0.74656 0.0
H2766 H 0.51829 0.32848 0.78545 0.0
H2767 H 0.5122 0.34155 0.79871 0.0
H2768 H 0.49916 0.36142 0.77346 0.0
H2769 H 0.5055 0.34838 0.76026 0.0
H2770 H 0.53915 0.32008 0.7783 0.0
H2771 H 0.55249 0.32884 0.78903 0.0
H2772 H 0.54723 0.3581 0.77107 0.0
H2773 H 0.53345 0.3493 0.76078 0.0
H2774 H 0.54314 0.30357 0.75958 0.0
H2775 H 0.56245 0.30076 0.75724 0.0
H2776 H 0.56494 0.33242 0.7435 0.0
H2777 H 0.54557 0.33501 0.7456 0.0
H2778 H 0.52285 0.29418 0.75099 0.0
H2779 H 0.53265 0.28043 0.74085 0.0
H2780 H 0.54418 0.30456 0.71895 0.0
H2781 H 0.53438 0.31834 0.72917 0.0
H2782 H 0.49859 0.30145 0.75613 0.0
H2783 H 0.48681 0.2911 0.74492 0.0
H2784 H 0.49897 0.30763 0.71695 0.0
H2785 H 0.51013 0.31841 0.72833 0.0
O2786 O 0.50377 0.35893 0.80561 0.0
O2787 O 0.49667 0.36856 0.79239 0.0
O2788 O 0.58126 0.30632 0.75144 0.0
O2789 O 0.58308 0.32288 0.74522 0.0
C2790 C 0.509 0.32384 0.75789 0.0
C2791 C 0.51636 0.3298 0.76385 0.0
C2792 C 0.52748 0.32844 0.76207 0.0
C2793 C 0.53124 0.32122 0.75426 0.0
C2794 C 0.52388 0.31549 0.74814 0.0
C2795 C 0.51274 0.31684 0.74981 0.0
C2796 C 0.49746 0.32441 0.76076 0.0
C2797 C 0.49394 0.31997 0.77048 0.0
C2798 C 0.48322 0.32093 0.77361 0.0
C2799 C 0.47588 0.32636 0.76707 0.0
C2800 C 0.47933 0.33065 0.75725 0.0
C2801 C 0.49008 0.32964 0.75408 0.0
C2802 C 0.5124 0.33754 0.77192 0.0
C2803 C 0.51417 0.33569 0.78281 0.0
C2804 C 0.51066 0.34315 0.79036 0.0
C2805 C 0.50523 0.35255 0.78714 0.0
C2806 C 0.50334 0.35428 0.7762 0.0
C2807 C 0.50692 0.34684 0.76866 0.0
C2808 C 0.5353 0.33406 0.7688 0.0
C2809 C 0.54084 0.32841 0.77677 0.0
C2810 C 0.54858 0.33344 0.7828 0.0
C2811 C 0.55111 0.34422 0.78091 0.0
C2812 C 0.54546 0.34986 0.77291 0.0
C2813 C 0.53759 0.34484 0.76697 0.0
C2814 C 0.54296 0.31947 0.7527 0.0
C2815 C 0.54785 0.30984 0.75596 0.0
C2816 C 0.55889 0.30827 0.75466 0.0
C2817 C 0.56524 0.31638 0.7502 0.0
C2818 C 0.56029 0.32602 0.74696 0.0
C2819 C 0.54923 0.32753 0.74817 0.0
C2820 C 0.52798 0.3072 0.74079 0.0
C2821 C 0.52725 0.29645 0.74383 0.0
C2822 C 0.53287 0.28865 0.73811 0.0
C2823 C 0.53916 0.29154 0.72923 0.0
C2824 C 0.5393 0.30221 0.72576 0.0
C2825 C 0.53375 0.31004 0.73156 0.0
C2826 C 0.50514 0.31081 0.7431 0.0
C2827 C 0.49853 0.30299 0.74761 0.0
C2828 C 0.49192 0.29695 0.74113 0.0
C2829 C 0.4919 0.29844 0.72996 0.0
C2830 C 0.49856 0.30633 0.7255 0.0
C2831 C 0.50503 0.31247 0.732 0.0
C2832 C 0.50161 0.36051 0.79517 0.0
C2833 C 0.577 0.31485 0.749 0.0
H2834 H 0.50131 0.6743 0.7991 0.0
H2835 H 0.59001 0.73483 0.74826 0.0
H2836 H 0.49763 0.70323 0.75017 0.0
H2837 H 0.47937 0.70035 0.75637 0.0
H2838 H 0.47552 0.73438 0.76176 0.0
H2839 H 0.49426 0.73667 0.7578 0.0
H2840 H 0.51857 0.6946 0.7605 0.0
H2841 H 0.51248 0.68333 0.77534 0.0
H2842 H 0.49894 0.7112 0.79101 0.0
H2843 H 0.50526 0.7224 0.77622 0.0
H2844 H 0.54134 0.70125 0.75259 0.0
H2845 H 0.55299 0.69182 0.76528 0.0
H2846 H 0.54136 0.71261 0.79046 0.0
H2847 H 0.53014 0.72219 0.77765 0.0
H2848 H 0.54278 0.71812 0.73133 0.0
H2849 H 0.56203 0.72019 0.72832 0.0
H2850 H 0.56432 0.73586 0.75885 0.0
H2851 H 0.54506 0.73389 0.76167 0.0
H2852 H 0.52145 0.72924 0.72053 0.0
H2853 H 0.52786 0.7422 0.70725 0.0
H2854 H 0.54066 0.76121 0.73263 0.0
H2855 H 0.53382 0.74851 0.74578 0.0
H2856 H 0.49827 0.72274 0.72834 0.0
H2857 H 0.48385 0.73327 0.7205 0.0
H2858 H 0.49328 0.76041 0.73931 0.0
H2859 H 0.5082 0.75001 0.74608 0.0
O2860 O 0.50366 0.67891 0.79332 0.0
O2861 O 0.49642 0.69342 0.80081 0.0
O2862 O 0.58071 0.72622 0.73341 0.0
O2863 O 0.58237 0.73397 0.74921 0.0
C2864 C 0.50879 0.72159 0.75163 0.0
C2865 C 0.51619 0.71618 0.7583 0.0
C2866 C 0.52726 0.71766 0.75678 0.0
C2867 C 0.5309 0.72447 0.74852 0.0
C2868 C 0.52345 0.73016 0.7421 0.0
C2869 C 0.51235 0.72881 0.74367 0.0
C2870 C 0.49725 0.72016 0.75351 0.0
C2871 C 0.49279 0.71002 0.75277 0.0
C2872 C 0.48228 0.70843 0.75615 0.0
C2873 C 0.47595 0.71711 0.75979 0.0
C2874 C 0.48023 0.72741 0.75948 0.0
C2875 C 0.4909 0.72883 0.75687 0.0
C2876 C 0.51234 0.70931 0.76727 0.0
C2877 C 0.51432 0.69825 0.76716 0.0
C2878 C 0.51081 0.69184 0.77564 0.0
C2879 C 0.50521 0.69636 0.78435 0.0
C2880 C 0.50322 0.70745 0.78442 0.0
C2881 C 0.50679 0.71387 0.77597 0.0
C2882 C 0.53492 0.7124 0.76421 0.0
C2883 C 0.54146 0.70384 0.76082 0.0
C2884 C 0.54801 0.6984 0.76811 0.0
C2885 C 0.5481 0.70143 0.77892 0.0
C2886 C 0.54164 0.71015 0.78219 0.0
C2887 C 0.53516 0.7156 0.7749 0.0
C2888 C 0.54256 0.7258 0.74673 0.0
C2889 C 0.54746 0.72203 0.73734 0.0
C2890 C 0.55845 0.7232 0.73565 0.0
C2891 C 0.56472 0.72817 0.74337 0.0
C2892 C 0.55974 0.73198 0.75276 0.0
C2893 C 0.54875 0.73083 0.75441 0.0
C2894 C 0.52725 0.73795 0.73407 0.0
C2895 C 0.52557 0.73627 0.72317 0.0
C2896 C 0.52928 0.74362 0.71563 0.0
C2897 C 0.53473 0.75274 0.7189 0.0
C2898 C 0.53633 0.75438 0.72986 0.0
C2899 C 0.53255 0.74708 0.73737 0.0
C2900 C 0.50439 0.7356 0.73773 0.0
C2901 C 0.49734 0.73107 0.73049 0.0
C2902 C 0.48887 0.73714 0.72619 0.0
C2903 C 0.48698 0.74789 0.72924 0.0
C2904 C 0.49431 0.75237 0.73638 0.0
C2905 C 0.50297 0.74638 0.74037 0.0
C2906 C 0.50148 0.68951 0.79334 0.0
C2907 C 0.5764 0.72938 0.74165 0.0
H2908 H 0.54043 0.72984 0.23234 0.0
H2909 H 0.44896 0.79104 0.2752 0.0
H2910 H 0.54206 0.76273 0.2835 0.0
H2911 H 0.56077 0.75772 0.27958 0.0
H2912 H 0.56436 0.78666 0.26103 0.0
H2913 H 0.54567 0.79178 0.26522 0.0
H2914 H 0.52314 0.7524 0.26967 0.0
H2915 H 0.52963 0.74023 0.25573 0.0
H2916 H 0.54072 0.76722 0.23717 0.0
H2917 H 0.53388 0.77931 0.25101 0.0
H2918 H 0.50142 0.75818 0.27699 0.0
H2919 H 0.49106 0.74645 0.26553 0.0
H2920 H 0.49727 0.76723 0.23858 0.0
H2921 H 0.50783 0.7788 0.25002 0.0
H2922 H 0.49622 0.77682 0.29563 0.0
H2923 H 0.47673 0.77837 0.29751 0.0
H2924 H 0.47512 0.79316 0.26624 0.0
H2925 H 0.4946 0.79178 0.26456 0.0
H2926 H 0.51602 0.78662 0.30662 0.0
H2927 H 0.5069 0.79771 0.31997 0.0
H2928 H 0.49634 0.81927 0.29488 0.0
H2929 H 0.50493 0.8077 0.28165 0.0
H2930 H 0.54281 0.78134 0.29717 0.0
H2931 H 0.55648 0.79241 0.30468 0.0
H2932 H 0.54066 0.82049 0.29135 0.0
H2933 H 0.528 0.80909 0.28266 0.0
O2934 O 0.53796 0.73479 0.23778 0.0
O2935 O 0.54438 0.74885 0.22901 0.0
O2936 O 0.45797 0.78352 0.29108 0.0
O2937 O 0.45669 0.79053 0.27477 0.0
C2938 C 0.5309 0.77989 0.27601 0.0
C2939 C 0.52379 0.77415 0.26964 0.0
C2940 C 0.51265 0.77563 0.27095 0.0
C2941 C 0.50856 0.78287 0.27864 0.0
C2942 C 0.51563 0.78882 0.28494 0.0
C2943 C 0.52687 0.78744 0.2835 0.0
C2944 C 0.54257 0.77767 0.27474 0.0
C2945 C 0.54696 0.7681 0.27879 0.0
C2946 C 0.55761 0.76524 0.27653 0.0
C2947 C 0.56395 0.77181 0.27 0.0
C2948 C 0.55959 0.78146 0.26607 0.0
C2949 C 0.54899 0.78443 0.26851 0.0
C2950 C 0.52804 0.76672 0.26134 0.0
C2951 C 0.52693 0.75566 0.26257 0.0
C2952 C 0.53067 0.74873 0.2546 0.0
C2953 C 0.5357 0.75275 0.24533 0.0
C2954 C 0.53689 0.76386 0.24421 0.0
C2955 C 0.53304 0.77077 0.25211 0.0
C2956 C 0.50532 0.76933 0.26433 0.0
C2957 C 0.50042 0.76026 0.26865 0.0
C2958 C 0.49459 0.75356 0.26211 0.0
C2959 C 0.49344 0.75597 0.25121 0.0
C2960 C 0.49803 0.76526 0.24698 0.0
C2961 C 0.50402 0.77186 0.25348 0.0
C2962 C 0.4968 0.7842 0.27997 0.0
C2963 C 0.49164 0.78049 0.28925 0.0
C2964 C 0.48051 0.78134 0.29028 0.0
C2965 C 0.47436 0.78585 0.282 0.0
C2966 C 0.4796 0.78963 0.27275 0.0
C2967 C 0.49073 0.78884 0.27176 0.0
C2968 C 0.51114 0.79632 0.29314 0.0
C2969 C 0.51179 0.7938 0.30405 0.0
C2970 C 0.50657 0.80023 0.31169 0.0
C2971 C 0.5007 0.80947 0.30864 0.0
C2972 C 0.50045 0.81213 0.29766 0.0
C2973 C 0.5055 0.80558 0.29003 0.0
C2974 C 0.53442 0.79435 0.28926 0.0
C2975 C 0.54242 0.78988 0.29575 0.0
C2976 C 0.55017 0.79632 0.30021 0.0
C2977 C 0.54986 0.80751 0.29871 0.0
C2978 C 0.54152 0.81196 0.29252 0.0
C2979 C 0.53404 0.80544 0.28771 0.0
C2980 C 0.53963 0.74539 0.23687 0.0
C2981 C 0.46253 0.78656 0.28294 0.0
H2982 H 0.50518 0.20645 0.30582 0.0
H2983 H 0.42239 0.25353 0.23688 0.0
H2984 H 0.513 0.25578 0.27128 0.0
H2985 H 0.53021 0.24921 0.27794 0.0
H2986 H 0.53528 0.23137 0.24886 0.0
H2987 H 0.51794 0.23793 0.2423 0.0
H2988 H 0.49228 0.24413 0.28093 0.0
H2989 H 0.49691 0.2302 0.29397 0.0
H2990 H 0.50965 0.21044 0.26848 0.0
H2991 H 0.5047 0.22428 0.2555 0.0
H2992 H 0.47029 0.25403 0.27215 0.0
H2993 H 0.45761 0.24481 0.28381 0.0
H2994 H 0.46639 0.21485 0.26886 0.0
H2995 H 0.4792 0.22419 0.25734 0.0
H2996 H 0.46937 0.27127 0.25342 0.0
H2997 H 0.45028 0.27445 0.25025 0.0
H2998 H 0.44786 0.24244 0.23788 0.0
H2999 H 0.46695 0.23942 0.24097 0.0
H3000 H 0.4929 0.2801 0.24329 0.0
H3001 H 0.4875 0.29328 0.23021 0.0
H3002 H 0.47078 0.2687 0.2131 0.0
H3003 H 0.47762 0.25554 0.22547 0.0
H3004 H 0.51265 0.27276 0.25212 0.0
H3005 H 0.52567 0.28267 0.24154 0.0
H3006 H 0.51967 0.26238 0.2145 0.0
H3007 H 0.50612 0.25306 0.22504 0.0
O3008 O 0.50355 0.21191 0.30054 0.0
O3009 O 0.51094 0.2025 0.28729 0.0
O3010 O 0.43169 0.26908 0.24415 0.0
O3011 O 0.42998 0.25255 0.23809 0.0
C3012 C 0.50288 0.2492 0.25361 0.0
C3013 C 0.49495 0.24346 0.2593 0.0
C3014 C 0.484 0.24547 0.25734 0.0
C3015 C 0.48102 0.25311 0.24949 0.0
C3016 C 0.48897 0.25871 0.24358 0.0
C3017 C 0.49995 0.25668 0.24564 0.0
C3018 C 0.51426 0.24732 0.25632 0.0
C3019 C 0.51799 0.25072 0.26622 0.0
C3020 C 0.52782 0.24696 0.27 0.0
C3021 C 0.53404 0.23971 0.26395 0.0
C3022 C 0.53058 0.23686 0.25373 0.0
C3023 C 0.52077 0.24069 0.24992 0.0
C3024 C 0.49815 0.2352 0.26728 0.0
C3025 C 0.49606 0.23677 0.27819 0.0
C3026 C 0.49872 0.22882 0.28562 0.0
C3027 C 0.50363 0.2192 0.28226 0.0
C3028 C 0.50587 0.21774 0.27133 0.0
C3029 C 0.5031 0.22565 0.2639 0.0
C3030 C 0.47568 0.23982 0.26385 0.0
C3031 C 0.46938 0.2455 0.27131 0.0
C3032 C 0.4621 0.24018 0.27796 0.0
C3033 C 0.4609 0.22903 0.27733 0.0
C3034 C 0.46715 0.22339 0.26972 0.0
C3035 C 0.47444 0.22873 0.26306 0.0
C3036 C 0.46951 0.25512 0.24743 0.0
C3037 C 0.4647 0.26499 0.24997 0.0
C3038 C 0.45381 0.26677 0.24818 0.0
C3039 C 0.44754 0.25868 0.24384 0.0
C3040 C 0.45244 0.24883 0.24126 0.0
C3041 C 0.46333 0.24707 0.24303 0.0
C3042 C 0.48573 0.2668 0.23535 0.0
C3043 C 0.48831 0.27757 0.23651 0.0
C3044 C 0.48492 0.28521 0.22902 0.0
C3045 C 0.47844 0.28241 0.22032 0.0
C3046 C 0.47589 0.2715 0.21932 0.0
C3047 C 0.47967 0.26382 0.22657 0.0
C3048 C 0.50838 0.26225 0.23933 0.0
C3049 C 0.51419 0.27047 0.2439 0.0
C3050 C 0.52173 0.27607 0.23782 0.0
C3051 C 0.52384 0.27342 0.22705 0.0
C3052 C 0.51817 0.2649 0.22263 0.0
C3053 C 0.51047 0.25946 0.22868 0.0
C3054 C 0.50629 0.21069 0.29015 0.0
C3055 C 0.43594 0.26046 0.24204 0.0
H3056 H 0.2284 0.20474 0.15262 0.0
H3057 H 0.23467 0.21323 0.13592 0.0
H3058 H 0.21888 0.18911 0.11776 0.0
H3059 H 0.21266 0.18066 0.13439 0.0
H3060 H 0.24741 0.202 0.11928 0.0
H3061 H 0.20841 0.21834 0.10502 0.0
H3062 H 0.21081 0.21511 0.11889 0.0
H3063 H 0.20837 0.20467 0.10953 0.0
C3064 C 0.2262 0.20141 0.14502 0.0
C3065 C 0.22005 0.19218 0.1446 0.0
C3066 C 0.22978 0.20619 0.13557 0.0
C3067 C 0.22709 0.20181 0.12571 0.0
C3068 C 0.22086 0.19264 0.12533 0.0
H3069 H 0.24044 0.21345 0.05925 0.0
H3070 H 0.23407 0.20665 0.07663 0.0
C3071 C 0.21734 0.18784 0.13476 0.0
C3072 C 0.23113 0.20652 0.11574 0.0
H3073 H 0.22294 0.21842 0.09265 0.0
C3074 C 0.24212 0.2057 0.11348 0.0
C3075 C 0.2241 0.21122 0.10825 0.0
C3076 C 0.21227 0.21249 0.11053 0.0
C3077 C 0.24628 0.20927 0.10369 0.0
C3078 C 0.23923 0.2139 0.09617 0.0
C3079 C 0.22826 0.21481 0.09849 0.0
C3080 C 0.24309 0.21789 0.08582 0.0
C3081 C 0.25808 0.20776 0.10132 0.0
C3082 C 0.2501 0.22649 0.08538 0.0
C3083 C 0.25379 0.23025 0.07555 0.0
C3084 C 0.25033 0.22555 0.06613 0.0
C3085 C 0.24314 0.21711 0.06652 0.0
C3086 C 0.23955 0.21326 0.07637 0.0
H3087 H 0.26194 0.20205 0.10699 0.0
H3088 H 0.2594 0.20481 0.09306 0.0
H3089 H 0.26211 0.21554 0.102 0.0
H3090 H 0.25269 0.23029 0.09262 0.0
H3091 H 0.25928 0.23686 0.07528 0.0
H3092 H 0.86577 0.20397 0.10616 0.0
H3093 H 0.85562 0.21147 0.09122 0.0
H3094 H 0.8415 0.23517 0.11219 0.0
H3095 H 0.8518 0.22779 0.1271 0.0
H3096 H 0.83359 0.21057 0.09304 0.0
H3097 H 0.84657 0.25199 0.08462 0.0
H3098 H 0.85485 0.24234 0.09164 0.0
H3099 H 0.84411 0.24926 0.09853 0.0
C3100 C 0.86083 0.21106 0.10743 0.0
C3101 C 0.85946 0.21533 0.11768 0.0
C3102 C 0.85504 0.21529 0.09895 0.0
C3103 C 0.84785 0.22382 0.10066 0.0
C3104 C 0.84717 0.22869 0.11071 0.0
H3105 H 0.79481 0.253 0.06965 0.0
H3106 H 0.80721 0.24514 0.08261 0.0
C3107 C 0.85304 0.2245 0.1192 0.0
C3108 C 0.8399 0.2265 0.09252 0.0
H3109 H 0.82959 0.24709 0.07787 0.0
C3110 C 0.83278 0.21851 0.08959 0.0
C3111 C 0.83889 0.23687 0.08818 0.0
C3112 C 0.84657 0.24559 0.09082 0.0
C3113 C 0.82441 0.22075 0.08259 0.0
C3114 C 0.82328 0.23118 0.07845 0.0
C3115 C 0.83051 0.23911 0.0812 0.0
C3116 C 0.81459 0.23421 0.07129 0.0
C3117 C 0.81665 0.2121 0.07991 0.0
C3118 C 0.81451 0.23031 0.06084 0.0
C3119 C 0.8074 0.23472 0.05349 0.0
C3120 C 0.80049 0.2431 0.05658 0.0
C3121 C 0.80015 0.24653 0.06719 0.0
C3122 C 0.80718 0.24208 0.07454 0.0
H3123 H 0.81759 0.20499 0.08519 0.0
H3124 H 0.80827 0.21517 0.0806 0.0
H3125 H 0.81803 0.20955 0.07154 0.0
H3126 H 0.82033 0.22435 0.05822 0.0
H3127 H 0.80779 0.23209 0.04526 0.0
H3128 H 0.83185 0.83055 0.11109 0.0
H3129 H 0.82084 0.81997 0.09913 0.0
H3130 H 0.83149 0.83902 0.0723 0.0
H3131 H 0.84245 0.84962 0.08428 0.0
H3132 H 0.80419 0.82874 0.08621 0.0
H3133 H 0.83567 0.80792 0.06202 0.0
H3134 H 0.83838 0.81394 0.07474 0.0
H3135 H 0.83706 0.82214 0.06297 0.0
C3136 C 0.83201 0.83226 0.10259 0.0
C3137 C 0.83807 0.84072 0.0985 0.0
C3138 C 0.82569 0.8263 0.09581 0.0
C3139 C 0.82547 0.82866 0.08484 0.0
C3140 C 0.83172 0.83697 0.08071 0.0
H3141 H 0.79132 0.80508 0.03077 0.0
H3142 H 0.80274 0.8147 0.04307 0.0
C3143 C 0.83796 0.843 0.08752 0.0
C3144 C 0.81821 0.82283 0.07783 0.0
H3145 H 0.81781 0.8065 0.0562 0.0
C3146 C 0.80714 0.82382 0.07968 0.0
C3147 C 0.82213 0.8165 0.0693 0.0
C3148 C 0.83396 0.81496 0.06715 0.0
C3149 C 0.79983 0.81877 0.07307 0.0
C3150 C 0.80376 0.81242 0.06455 0.0
C3151 C 0.81484 0.8114 0.06274 0.0
C3152 C 0.79655 0.80687 0.05728 0.0
C3153 C 0.788 0.82056 0.07508 0.0
C3154 C 0.78933 0.79929 0.06122 0.0
C3155 C 0.78269 0.79396 0.05423 0.0
C3156 C 0.7834 0.79598 0.04322 0.0
C3157 C 0.79069 0.80345 0.03926 0.0
C3158 C 0.79719 0.80891 0.04625 0.0
H3159 H 0.78638 0.82775 0.08003 0.0
H3160 H 0.78364 0.82149 0.06744 0.0
H3161 H 0.78474 0.81356 0.07943 0.0
H3162 H 0.78893 0.79738 0.06967 0.0
H3163 H 0.77719 0.78809 0.05738 0.0
H3164 H 0.17906 0.84393 0.08808 0.0
H3165 H 0.19301 0.83774 0.07571 0.0
H3166 H 0.21552 0.85862 0.09033 0.0
H3167 H 0.20196 0.86418 0.10335 0.0
H3168 H 0.20546 0.84781 0.06095 0.0
H3169 H 0.2308 0.83018 0.09287 0.0
H3170 H 0.21712 0.83445 0.09524 0.0
H3171 H 0.22766 0.84406 0.09483 0.0
C3172 C 0.18701 0.84711 0.08881 0.0
C3173 C 0.18938 0.85443 0.09692 0.0
C3174 C 0.19494 0.84364 0.08163 0.0
C3175 C 0.20535 0.84754 0.08229 0.0
C3176 C 0.2076 0.8553 0.08989 0.0
H3177 H 0.26525 0.83003 0.05083 0.0
H3178 H 0.25107 0.84011 0.06015 0.0
C3179 C 0.19975 0.85862 0.09723 0.0
C3180 C 0.21393 0.84328 0.07522 0.0
H3181 H 0.23835 0.83071 0.07551 0.0
C3182 C 0.21266 0.84407 0.06412 0.0
C3183 C 0.22326 0.83834 0.07939 0.0
C3184 C 0.22477 0.83659 0.09123 0.0
C3185 C 0.2206 0.8402 0.05706 0.0
C3186 C 0.22995 0.83537 0.06126 0.0
C3187 C 0.23122 0.83459 0.07234 0.0
C3188 C 0.23825 0.83038 0.05439 0.0
C3189 C 0.21897 0.84143 0.04519 0.0
C3190 C 0.23566 0.82172 0.04797 0.0
C3191 C 0.24369 0.81607 0.04253 0.0
C3192 C 0.25446 0.81886 0.0436 0.0
C3193 C 0.257 0.82777 0.04976 0.0
C3194 C 0.24894 0.83349 0.05513 0.0
H3195 H 0.21301 0.84784 0.04335 0.0
H3196 H 0.22662 0.84326 0.041 0.0
H3197 H 0.21595 0.83384 0.04198 0.0
H3198 H 0.22749 0.81904 0.0475 0.0
H3199 H 0.24149 0.80932 0.03773 0.0
H3200 H 0.21054 0.86404 0.93018 0.0
H3201 H 0.21855 0.85262 0.94412 0.0
H3202 H 0.24885 0.85314 0.92727 0.0
H3203 H 0.24099 0.8644 0.91341 0.0
H3204 H 0.22876 0.83259 0.94285 0.0
H3205 H 0.25702 0.86291 0.95692 0.0
H3206 H 0.24579 0.86629 0.94854 0.0
H3207 H 0.25791 0.86073 0.94279 0.0
C3208 C 0.21889 0.86165 0.92943 0.0
C3209 C 0.22516 0.86529 0.92076 0.0
C3210 C 0.22346 0.85518 0.93741 0.0
C3211 C 0.23437 0.85227 0.93686 0.0
C3212 C 0.24051 0.85556 0.92804 0.0
H3213 H 0.27963 0.81379 0.97246 0.0
H3214 H 0.26988 0.82406 0.95891 0.0
C3215 C 0.23598 0.862 0.9201 0.0
C3216 C 0.23939 0.84565 0.94536 0.0
H3217 H 0.26017 0.84504 0.96281 0.0
C3218 C 0.23555 0.83534 0.94731 0.0
C3219 C 0.24828 0.84926 0.95114 0.0
C3220 C 0.25244 0.86044 0.94983 0.0
C3221 C 0.24056 0.82843 0.95467 0.0
C3222 C 0.24956 0.83199 0.96025 0.0
C3223 C 0.25332 0.84233 0.95842 0.0
C3224 C 0.25517 0.82518 0.96816 0.0
C3225 C 0.23643 0.81728 0.95621 0.0
C3226 C 0.2501 0.82246 0.97782 0.0
C3227 C 0.25568 0.81673 0.98564 0.0
C3228 C 0.26644 0.81363 0.98392 0.0
C3229 C 0.27142 0.81621 0.97412 0.0
C3230 C 0.26584 0.82199 0.96633 0.0
H3231 H 0.23067 0.81513 0.94993 0.0
H3232 H 0.24316 0.81136 0.95617 0.0
H3233 H 0.23229 0.8167 0.96409 0.0
H3234 H 0.24192 0.82503 0.97944 0.0
H3235 H 0.25165 0.81502 0.99316 0.0
H3236 H 0.20532 0.15125 0.93294 0.0
H3237 H 0.21646 0.16207 0.94463 0.0
H3238 H 0.20625 0.19057 0.92781 0.0
H3239 H 0.19508 0.17994 0.91637 0.0
H3240 H 0.23312 0.1753 0.94009 0.0
H3241 H 0.19994 0.19925 0.95806 0.0
H3242 H 0.19768 0.18722 0.95065 0.0
H3243 H 0.19986 0.19968 0.94375 0.0
C3244 C 0.20547 0.15983 0.93177 0.0
C3245 C 0.19918 0.16476 0.92384 0.0
C3246 C 0.2118 0.166 0.93846 0.0
C3247 C 0.21196 0.17719 0.9373 0.0
C3248 C 0.20597 0.18203 0.92914 0.0
H3249 H 0.24606 0.23052 0.96319 0.0
H3250 H 0.23559 0.21838 0.95241 0.0
C3251 C 0.19962 0.17592 0.92256 0.0
C3252 C 0.2186 0.18387 0.94431 0.0
H3253 H 0.21754 0.20587 0.96032 0.0
C3254 C 0.2297 0.1819 0.94461 0.0
C3255 C 0.21415 0.19253 0.9502 0.0
C3256 C 0.20224 0.19474 0.95075 0.0
C3257 C 0.23647 0.18853 0.95038 0.0
C3258 C 0.23202 0.19729 0.95606 0.0
C3259 C 0.22093 0.19919 0.95587 0.0
C3260 C 0.23869 0.20452 0.96238 0.0
C3261 C 0.24837 0.18632 0.95014 0.0
C3262 C 0.2438 0.20076 0.9716 0.0
C3263 C 0.24966 0.20769 0.97785 0.0
C3264 C 0.25059 0.21854 0.97499 0.0
C3265 C 0.24547 0.22226 0.96569 0.0
C3266 C 0.23953 0.21532 0.95948 0.0
H3267 H 0.25073 0.18052 0.94382 0.0
H3268 H 0.2528 0.19383 0.94878 0.0
H3269 H 0.25085 0.18294 0.95796 0.0
H3270 H 0.24305 0.1925 0.97409 0.0
H3271 H 0.25322 0.20458 0.9851 0.0
H3272 H 0.80713 0.22783 0.88152 0.0
H3273 H 0.8026 0.23786 0.89765 0.0
H3274 H 0.79704 0.20838 0.91469 0.0
H3275 H 0.8018 0.19822 0.89853 0.0
H3276 H 0.78372 0.23801 0.91019 0.0
H3277 H 0.81921 0.2241 0.93305 0.0
H3278 H 0.81832 0.22271 0.91875 0.0
H3279 H 0.81139 0.21364 0.9275 0.0
C3280 C 0.80493 0.22347 0.88869 0.0
C3281 C 0.80492 0.21223 0.88879 0.0
C3282 C 0.80232 0.22921 0.89789 0.0
C3283 C 0.79968 0.22385 0.90739 0.0
C3284 C 0.79925 0.21265 0.90746 0.0
H3285 H 0.78022 0.24204 0.97049 0.0
H3286 H 0.78521 0.23311 0.95379 0.0
C3287 C 0.80184 0.20686 0.89821 0.0
C3288 C 0.79739 0.23007 0.91718 0.0
H3289 H 0.8061 0.23432 0.94249 0.0
C3290 C 0.78863 0.23725 0.91724 0.0
C3291 C 0.80392 0.22916 0.92629 0.0
C3292 C 0.8138 0.22207 0.92642 0.0
C3293 C 0.78601 0.24328 0.92633 0.0
C3294 C 0.79238 0.24213 0.93551 0.0
C3295 C 0.80125 0.23512 0.9354 0.0
C3296 C 0.78958 0.24766 0.94553 0.0
C3297 C 0.77629 0.2506 0.9262 0.0
C3298 C 0.79055 0.25877 0.94638 0.0
C3299 C 0.78775 0.26387 0.95593 0.0
C3300 C 0.78386 0.25791 0.96464 0.0
C3301 C 0.78303 0.24679 0.96379 0.0
C3302 C 0.78592 0.2417 0.95431 0.0
H3303 H 0.77137 0.24945 0.91899 0.0
H3304 H 0.77123 0.24924 0.93342 0.0
H3305 H 0.7789 0.25902 0.9263 0.0
H3306 H 0.79348 0.26346 0.93969 0.0
H3307 H 0.78849 0.27246 0.95648 0.0
H3308 H 0.81662 0.85472 0.91198 0.0
H3309 H 0.80785 0.84344 0.92546 0.0
H3310 H 0.82746 0.8568 0.94988 0.0
H3311 H 0.83632 0.8681 0.93629 0.0
H3312 H 0.81722 0.82797 0.93876 0.0
H3313 H 0.79716 0.85954 0.96317 0.0
H3314 H 0.80243 0.86216 0.94992 0.0
H3315 H 0.81133 0.86084 0.96101 0.0
C3316 C 0.8191 0.8552 0.92022 0.0
C3317 C 0.82724 0.8622 0.92305 0.0
C3318 C 0.81404 0.84878 0.92794 0.0
C3319 C 0.81684 0.8493 0.93877 0.0
C3320 C 0.82499 0.85632 0.94164 0.0
H3321 H 0.79016 0.81308 0.99386 0.0
H3322 H 0.80017 0.82585 0.98267 0.0
C3323 C 0.83015 0.8627 0.93386 0.0
C3324 C 0.8115 0.84209 0.9468 0.0
H3325 H 0.79494 0.8417 0.96888 0.0
C3326 C 0.81236 0.831 0.94534 0.0
C3327 C 0.80525 0.84597 0.95554 0.0
C3328 C 0.80388 0.85777 0.95752 0.0
C3329 C 0.80717 0.82373 0.95223 0.0
C3330 C 0.80055 0.82758 0.9607 0.0
C3331 C 0.7999 0.83868 0.96236 0.0
C3332 C 0.79409 0.82019 0.96766 0.0
C3333 C 0.80907 0.81194 0.95045 0.0
C3334 C 0.78708 0.81288 0.96308 0.0
C3335 C 0.78156 0.80547 0.96945 0.0
C3336 C 0.78262 0.80537 0.9806 0.0
C3337 C 0.78921 0.81297 0.98528 0.0
C3338 C 0.79492 0.82028 0.97887 0.0
H3339 H 0.81674 0.81037 0.9461 0.0
H3340 H 0.80923 0.80746 0.95813 0.0
H3341 H 0.80253 0.8088 0.94552 0.0
H3342 H 0.78593 0.81283 0.95453 0.0
H3343 H 0.7764 0.79981 0.96564 0.0
H3344 H 0.13833 0.20701 0.20472 0.0
H3345 H 0.12201 0.21546 0.21183 0.0
H3346 H 0.13633 0.21713 0.24295 0.0
H3347 H 0.15284 0.20864 0.23575 0.0
H3348 H 0.1087 0.20903 0.22916 0.0
H3349 H 0.12767 0.24852 0.23461 0.0
H3350 H 0.13368 0.23812 0.22649 0.0
H3351 H 0.13429 0.23724 0.24078 0.0
C3352 C 0.13791 0.2091 0.2131 0.0
C3353 C 0.14669 0.20733 0.21974 0.0
C3354 C 0.12865 0.21388 0.21713 0.0
C3355 C 0.12814 0.21698 0.22782 0.0
C3356 C 0.13676 0.21485 0.23463 0.0
H3357 H 0.07805 0.24905 0.26268 0.0
H3358 H 0.09395 0.23872 0.25709 0.0
C3359 C 0.14606 0.20999 0.23058 0.0
C3360 C 0.11858 0.2227 0.23163 0.0
H3361 H 0.10947 0.24719 0.23952 0.0
C3362 C 0.10883 0.21735 0.23149 0.0
C3363 C 0.11891 0.23359 0.2344 0.0
C3364 C 0.12917 0.23977 0.23402 0.0
C3365 C 0.09929 0.22266 0.23421 0.0
C3366 C 0.09967 0.23347 0.23711 0.0
C3367 C 0.10939 0.23883 0.23728 0.0
C3368 C 0.09005 0.23932 0.24032 0.0
C3369 C 0.08888 0.21675 0.234 0.0
C3370 C 0.08282 0.24297 0.23261 0.0
C3371 C 0.07382 0.24886 0.23575 0.0
C3372 C 0.07205 0.25102 0.2466 0.0
C3373 C 0.07929 0.2473 0.25428 0.0
C3374 C 0.08831 0.24149 0.25113 0.0
H3375 H 0.09013 0.20808 0.23253 0.0
H3376 H 0.08447 0.2178 0.24169 0.0
H3377 H 0.08377 0.22013 0.22757 0.0
H3378 H 0.08422 0.24134 0.22422 0.0
H3379 H 0.06824 0.25172 0.22978 0.0
H3380 H 0.86441 0.12994 0.17798 0.0
H3381 H 0.85525 0.11401 0.18494 0.0
H3382 H 0.85741 0.1262 0.21696 0.0
H3383 H 0.8664 0.14202 0.2101 0.0
H3384 H 0.8638 0.0993 0.20186 0.0
H3385 H 0.82521 0.11946 0.2127 0.0
H3386 H 0.83447 0.12494 0.20299 0.0
H3387 H 0.83698 0.12614 0.21702 0.0
C3388 C 0.8628 0.1292 0.18647 0.0
C3389 C 0.8661 0.1371 0.19355 0.0
C3390 C 0.85766 0.12015 0.19042 0.0
C3391 C 0.85565 0.11907 0.20142 0.0
C3392 C 0.85884 0.127 0.20843 0.0
H3393 H 0.82911 0.07425 0.24603 0.0
H3394 H 0.83903 0.08866 0.23719 0.0
C3395 C 0.864 0.13597 0.20453 0.0
C3396 C 0.85035 0.10961 0.20577 0.0
H3397 H 0.82823 0.10206 0.21986 0.0
C3398 C 0.85596 0.09982 0.20567 0.0
C3399 C 0.84021 0.11046 0.2108 0.0
C3400 C 0.8338 0.12079 0.21084 0.0
C3401 C 0.85172 0.09082 0.21078 0.0
C3402 C 0.84166 0.09175 0.21594 0.0
C3403 C 0.836 0.10149 0.21591 0.0
C3404 C 0.83668 0.08264 0.22125 0.0
C3405 C 0.85807 0.08047 0.21091 0.0
C3406 C 0.83217 0.07462 0.21513 0.0
C3407 C 0.82646 0.06651 0.22011 0.0
C3408 C 0.82529 0.06634 0.23127 0.0
C3409 C 0.83004 0.07423 0.23741 0.0
C3410 C 0.83565 0.08241 0.2324 0.0
H3411 H 0.86637 0.08148 0.20781 0.0
H3412 H 0.85841 0.07718 0.21916 0.0
H3413 H 0.85404 0.07454 0.20588 0.0
H3414 H 0.83282 0.07481 0.20649 0.0
H3415 H 0.82287 0.06043 0.21528 0.0
H3416 H 0.91249 0.8357 0.1824 0.0
H3417 H 0.92589 0.82463 0.1917 0.0
H3418 H 0.94417 0.82153 0.1624 0.0
H3419 H 0.93109 0.83282 0.15317 0.0
H3420 H 0.93136 0.80321 0.18571 0.0
H3421 H 0.96679 0.82944 0.18428 0.0
H3422 H 0.95328 0.83452 0.18267 0.0
H3423 H 0.96011 0.82794 0.17178 0.0
C3424 C 0.91951 0.83289 0.17802 0.0
C3425 C 0.92073 0.8351 0.16705 0.0
C3426 C 0.92709 0.82651 0.18331 0.0
C3427 C 0.93602 0.82235 0.17773 0.0
C3428 C 0.93741 0.82481 0.16688 0.0
H3429 H 0.98563 0.77517 0.19061 0.0
H3430 H 0.97334 0.78825 0.18233 0.0
C3431 C 0.92988 0.83118 0.1616 0.0
C3432 C 0.94357 0.8149 0.18302 0.0
H3433 H 0.96985 0.81138 0.18944 0.0
C3434 C 0.93975 0.80502 0.18663 0.0
C3435 C 0.95452 0.81729 0.18406 0.0
C3436 C 0.95893 0.8279 0.18058 0.0
C3437 C 0.94667 0.79738 0.19116 0.0
C3438 C 0.9576 0.79979 0.19218 0.0
C3439 C 0.96143 0.80963 0.18859 0.0
C3440 C 0.96514 0.7922 0.19714 0.0
C3441 C 0.94236 0.78671 0.19464 0.0
C3442 C 0.96459 0.79032 0.20817 0.0
C3443 C 0.9716 0.78297 0.21288 0.0
C3444 C 0.97919 0.7774 0.2066 0.0
C3445 C 0.97979 0.77937 0.19556 0.0
C3446 C 0.97283 0.78681 0.19086 0.0
H3447 H 0.93413 0.78545 0.19172 0.0
H3448 H 0.94766 0.78012 0.19168 0.0
H3449 H 0.94218 0.78624 0.20349 0.0
H3450 H 0.95871 0.79449 0.2131 0.0
H3451 H 0.97094 0.78147 0.2214 0.0
H3452 H 0.16033 0.9129 0.20161 0.0
H3453 H 0.16795 0.92451 0.21488 0.0
H3454 H 0.19262 0.93361 0.19238 0.0
H3455 H 0.18448 0.92287 0.17871 0.0
H3456 H 0.18637 0.92273 0.22388 0.0
H3457 H 0.18541 0.96222 0.20378 0.0
H3458 H 0.17804 0.95104 0.19892 0.0
H3459 H 0.19209 0.95228 0.19579 0.0
C3460 C 0.16715 0.91763 0.19929 0.0
C3461 C 0.17171 0.91686 0.18895 0.0
C3462 C 0.1716 0.9242 0.20699 0.0
C3463 C 0.1808 0.9301 0.20465 0.0
C3464 C 0.18536 0.92941 0.19435 0.0
H3465 H 0.22633 0.96576 0.24098 0.0
H3466 H 0.21641 0.95615 0.22757 0.0
C3467 C 0.18078 0.92302 0.18657 0.0
C3468 C 0.18605 0.93629 0.2132 0.0
H3469 H 0.19663 0.96053 0.21902 0.0
C3470 C 0.18849 0.93103 0.22285 0.0
C3471 C 0.18886 0.94714 0.2119 0.0
C3472 C 0.18586 0.95353 0.20208 0.0
C3473 C 0.19389 0.93618 0.23106 0.0
C3474 C 0.19692 0.94695 0.22966 0.0
C3475 C 0.19439 0.95226 0.22007 0.0
C3476 C 0.2029 0.95277 0.23795 0.0
C3477 C 0.19658 0.92992 0.24105 0.0
C3478 C 0.1986 0.95417 0.24826 0.0
C3479 C 0.20438 0.95945 0.25608 0.0
C3480 C 0.21454 0.96366 0.25372 0.0
C3481 C 0.21869 0.96243 0.24326 0.0
C3482 C 0.21296 0.95703 0.2355 0.0
H3483 H 0.19605 0.92117 0.23981 0.0
H3484 H 0.20477 0.93173 0.24377 0.0
H3485 H 0.19083 0.93215 0.24751 0.0
H3486 H 0.19075 0.95118 0.2503 0.0
H3487 H 0.20088 0.9601 0.264 0.0
H3488 H 0.13583 0.86542 0.85485 0.0
H3489 H 0.1218 0.85956 0.84337 0.0
H3490 H 0.13133 0.88245 0.81936 0.0
H3491 H 0.1464 0.8875 0.83023 0.0
H3492 H 0.105 0.86885 0.83615 0.0
H3493 H 0.12966 0.85719 0.80078 0.0
H3494 H 0.13554 0.86033 0.81342 0.0
H3495 H 0.13111 0.87086 0.80455 0.0
C3496 C 0.13535 0.86903 0.847 0.0
C3497 C 0.14273 0.87676 0.84349 0.0
C3498 C 0.12707 0.86575 0.84047 0.0
C3499 C 0.12559 0.87032 0.83032 0.0
C3500 C 0.13249 0.87847 0.82697 0.0
H3501 H 0.0778 0.85592 0.78203 0.0
H3502 H 0.09165 0.86444 0.79239 0.0
C3503 C 0.14104 0.88153 0.83338 0.0
C3504 C 0.11668 0.86659 0.82352 0.0
H3505 H 0.11093 0.85619 0.7991 0.0
C3506 C 0.10634 0.86608 0.82805 0.0
C3507 C 0.11833 0.86299 0.8129 0.0
C3508 C 0.12927 0.86276 0.80764 0.0
C3509 C 0.09769 0.86204 0.82237 0.0
C3510 C 0.0994 0.85832 0.81183 0.0
C3511 C 0.10964 0.85906 0.80717 0.0
C3512 C 0.09075 0.85331 0.80566 0.0
C3513 C 0.08679 0.86188 0.8277 0.0
C3514 C 0.08566 0.84417 0.80961 0.0
C3515 C 0.07755 0.83942 0.80383 0.0
C3516 C 0.07448 0.84352 0.79379 0.0
C3517 C 0.07974 0.85261 0.78978 0.0
C3518 C 0.08776 0.85745 0.79566 0.0
H3519 H 0.08617 0.86765 0.83438 0.0
H3520 H 0.08038 0.86378 0.82189 0.0
H3521 H 0.08537 0.85379 0.83105 0.0
H3522 H 0.08798 0.84066 0.81718 0.0
H3523 H 0.07363 0.83258 0.80734 0.0
H3524 H 0.20913 0.07558 0.85405 0.0
H3525 H 0.22163 0.06542 0.84247 0.0
H3526 H 0.22308 0.09218 0.82068 0.0
H3527 H 0.21047 0.10227 0.83212 0.0
H3528 H 0.22037 0.06071 0.81889 0.0
H3529 H 0.25492 0.08526 0.83038 0.0
H3530 H 0.24288 0.08434 0.83846 0.0
H3531 H 0.24301 0.09261 0.82668 0.0
C3532 C 0.21201 0.07921 0.8467 0.0
C3533 C 0.2088 0.08969 0.84394 0.0
C3534 C 0.21914 0.07341 0.84012 0.0
C3535 C 0.22336 0.07809 0.83079 0.0
C3536 C 0.21996 0.08845 0.82789 0.0
H3537 H 0.27008 0.06399 0.78151 0.0
H3538 H 0.25628 0.07153 0.79356 0.0
C3539 C 0.2127 0.09418 0.83437 0.0
C3540 C 0.23156 0.07233 0.8242 0.0
H3541 H 0.25769 0.07341 0.81594 0.0
C3542 C 0.22855 0.06341 0.81829 0.0
C3543 C 0.24225 0.07582 0.82352 0.0
C3544 C 0.24604 0.08497 0.83015 0.0
C3545 C 0.23587 0.05817 0.81137 0.0
C3546 C 0.24648 0.06189 0.81045 0.0
C3547 C 0.24953 0.07063 0.81658 0.0
C3548 C 0.25449 0.05707 0.80294 0.0
C3549 C 0.2321 0.04896 0.8048 0.0
C3550 C 0.2581 0.04644 0.80424 0.0
C3551 C 0.26594 0.04214 0.79733 0.0
C3552 C 0.27034 0.04843 0.78912 0.0
C3553 C 0.26676 0.05903 0.78782 0.0
C3554 C 0.2589 0.06331 0.79468 0.0
H3555 H 0.22324 0.04834 0.80498 0.0
H3556 H 0.23485 0.04982 0.79637 0.0
H3557 H 0.23556 0.04139 0.80801 0.0
H3558 H 0.25499 0.04154 0.81068 0.0
H3559 H 0.26867 0.03395 0.79848 0.0
H3560 H 0.88501 0.19879 0.82387 0.0
H3561 H 0.90266 0.20417 0.81707 0.0
H3562 H 0.89297 0.1973 0.78497 0.0
H3563 H 0.87528 0.1926 0.79153 0.0
H3564 H 0.91762 0.19178 0.80601 0.0
H3565 H 0.90521 0.22645 0.78091 0.0
H3566 H 0.89647 0.22068 0.7909 0.0
H3567 H 0.89815 0.2145 0.77804 0.0
C3568 C 0.88655 0.19867 0.81535 0.0
C3569 C 0.8787 0.19517 0.80828 0.0
C3570 C 0.89668 0.20165 0.81148 0.0
C3571 C 0.8991 0.20123 0.80049 0.0
C3572 C 0.89124 0.19789 0.79345 0.0
H3573 H 0.95673 0.21141 0.76177 0.0
H3574 H 0.93912 0.20559 0.76827 0.0
C3575 C 0.88115 0.19506 0.79726 0.0
C3576 C 0.90992 0.20391 0.79634 0.0
H3577 H 0.92305 0.22001 0.77852 0.0
C3578 C 0.91881 0.19801 0.80007 0.0
C3579 C 0.91147 0.21194 0.78847 0.0
C3580 C 0.90233 0.21882 0.78441 0.0
C3581 C 0.92917 0.19991 0.79609 0.0
C3582 C 0.93066 0.20798 0.78829 0.0
C3583 C 0.92181 0.21379 0.78448 0.0
C3584 C 0.94143 0.21095 0.78445 0.0
C3585 C 0.93845 0.19321 0.8001 0.0
C3586 C 0.94844 0.21593 0.7914 0.0
C3587 C 0.95841 0.21929 0.78772 0.0
C3588 C 0.96153 0.21774 0.77701 0.0
C3589 C 0.95453 0.21265 0.77007 0.0
C3590 C 0.9445 0.20935 0.77376 0.0
H3591 H 0.93573 0.18596 0.80444 0.0
H3592 H 0.94378 0.19073 0.79335 0.0
H3593 H 0.94324 0.19801 0.80564 0.0
H3594 H 0.94613 0.21734 0.79964 0.0
H3595 H 0.96372 0.22304 0.79327 0.0
H3596 H 0.8297 0.95486 0.84076 0.0
H3597 H 0.81746 0.96661 0.83098 0.0
H3598 H 0.79232 0.94382 0.8352 0.0
H3599 H 0.80458 0.9318 0.84472 0.0
H3600 H 0.80729 0.96296 0.81224 0.0
H3601 H 0.77723 0.97145 0.844 0.0
H3602 H 0.79029 0.96577 0.84678 0.0
H3603 H 0.7797 0.9574 0.8423 0.0
C3604 C 0.8216 0.95225 0.8396 0.0
C3605 C 0.81827 0.94221 0.84352 0.0
C3606 C 0.81456 0.95907 0.83404 0.0
C3607 C 0.80391 0.95619 0.83239 0.0
C3608 C 0.80044 0.94635 0.83653 0.0
H3609 H 0.7496 0.97621 0.79578 0.0
H3610 H 0.76315 0.96763 0.80695 0.0
C3611 C 0.8075 0.93946 0.84202 0.0
C3612 C 0.79662 0.9632 0.82589 0.0
H3613 H 0.77195 0.97549 0.82614 0.0
C3614 C 0.79962 0.9658 0.81533 0.0
C3615 C 0.78665 0.96707 0.82991 0.0
C3616 C 0.78331 0.96539 0.8414 0.0
C3617 C 0.79271 0.97166 0.80856 0.0
C3618 C 0.78253 0.97505 0.81245 0.0
C3619 C 0.77969 0.97278 0.82311 0.0
C3620 C 0.77446 0.98044 0.80549 0.0
C3621 C 0.79619 0.97383 0.79717 0.0
C3622 C 0.77626 0.99056 0.80096 0.0
C3623 C 0.76844 0.99557 0.79462 0.0
C3624 C 0.75864 0.99058 0.79271 0.0
C3625 C 0.75693 0.98042 0.79724 0.0
C3626 C 0.76471 0.97545 0.80358 0.0
H3627 H 0.80345 0.96911 0.79488 0.0
H3628 H 0.78966 0.97199 0.79158 0.0
H3629 H 0.79803 0.98243 0.79623 0.0
H3630 H 0.78364 0.99467 0.80247 0.0
H3631 H 0.77001 1.00344 0.79137 0.0
H3632 H 0.20982 0.11248 0.21386 0.0
H3633 H 0.21759 0.0969 0.22316 0.0
H3634 H 0.22771 0.11727 0.24864 0.0
H3635 H 0.2198 0.13277 0.23949 0.0
H3636 H 0.23819 0.09171 0.23214 0.0
H3637 H 0.20553 0.09691 0.26242 0.0
H3638 H 0.20537 0.10357 0.24959 0.0
H3639 H 0.21355 0.10849 0.26011 0.0
C3640 C 0.21398 0.1136 0.2213 0.0
C3641 C 0.21415 0.12365 0.22612 0.0
C3642 C 0.21836 0.10477 0.22658 0.0
C3643 C 0.22295 0.10604 0.23663 0.0
C3644 C 0.22399 0.11622 0.24096 0.0
H3645 H 0.24288 0.05921 0.28402 0.0
H3646 H 0.23939 0.07613 0.27445 0.0
C3647 C 0.21954 0.125 0.23575 0.0
C3648 C 0.22566 0.09666 0.24307 0.0
H3649 H 0.21831 0.08326 0.26568 0.0
C3650 C 0.23391 0.08984 0.23949 0.0
C3651 C 0.21989 0.09433 0.25257 0.0
C3652 C 0.21052 0.10114 0.25638 0.0
C3653 C 0.23663 0.08066 0.24529 0.0
C3654 C 0.23089 0.07839 0.25478 0.0
C3655 C 0.22272 0.08524 0.25843 0.0
C3656 C 0.23273 0.06849 0.26065 0.0
C3657 C 0.24555 0.07343 0.24124 0.0
C3658 C 0.22976 0.05886 0.25606 0.0
C3659 C 0.23173 0.04935 0.26144 0.0
C3660 C 0.23658 0.04945 0.27146 0.0
C3661 C 0.23914 0.0591 0.27627 0.0
C3662 C 0.23722 0.06866 0.27083 0.0
H3663 H 0.25054 0.0774 0.23503 0.0
H3664 H 0.25077 0.07078 0.24791 0.0
H3665 H 0.24207 0.06621 0.23768 0.0
H3666 H 0.22605 0.05873 0.2483 0.0
H3667 H 0.22957 0.0419 0.25775 0.0
H3668 H 0.23032 0.93137 0.82401 0.0
H3669 H 0.24223 0.94269 0.81353 0.0
H3670 H 0.24495 0.96387 0.84033 0.0
H3671 H 0.23317 0.95229 0.85101 0.0
H3672 H 0.23903 0.96274 0.80743 0.0
H3673 H 0.27586 0.96023 0.83166 0.0
H3674 H 0.26473 0.95147 0.8339 0.0
H3675 H 0.26428 0.96487 0.83899 0.0
C3676 C 0.23355 0.93838 0.82771 0.0
C3677 C 0.23083 0.94095 0.83832 0.0
C3678 C 0.24035 0.94486 0.82171 0.0
C3679 C 0.24458 0.9541 0.82613 0.0
C3680 C 0.24199 0.95665 0.8368 0.0
H3681 H 0.28182 1.005 0.79738 0.0
H3682 H 0.27114 0.99372 0.80927 0.0
C3683 C 0.23525 0.95006 0.84289 0.0
C3684 C 0.25129 0.96118 0.81933 0.0
H3685 H 0.27587 0.97259 0.81721 0.0
C3686 C 0.2471 0.96485 0.80957 0.0
C3687 C 0.26182 0.96395 0.8221 0.0
C3688 C 0.26699 0.95985 0.83218 0.0
C3689 C 0.25312 0.97123 0.80255 0.0
C3690 C 0.26363 0.97397 0.80534 0.0
C3691 C 0.2678 0.97044 0.81512 0.0
C3692 C 0.27039 0.98059 0.79821 0.0
C3693 C 0.24815 0.97509 0.79227 0.0
C3694 C 0.27365 0.97686 0.78812 0.0
C3695 C 0.27982 0.98325 0.78133 0.0
C3696 C 0.28288 0.99348 0.78453 0.0
C3697 C 0.27972 0.99711 0.79472 0.0
C3698 C 0.27358 0.99071 0.80151 0.0
H3699 H 0.23931 0.97423 0.79239 0.0
H3700 H 0.25004 0.9836 0.79073 0.0
H3701 H 0.25147 0.97031 0.78554 0.0
H3702 H 0.27144 0.96898 0.78552 0.0
H3703 H 0.28226 0.98015 0.7736 0.0
H3704 H 0.12578 0.15711 0.83138 0.0
H3705 H 0.11151 0.16685 0.82228 0.0
H3706 H 0.09395 0.16974 0.85202 0.0
H3707 H 0.10842 0.15999 0.86128 0.0
H3708 H 0.09108 0.16171 0.81963 0.0
H3709 H 0.09245 0.20017 0.84128 0.0
H3710 H 0.10282 0.19004 0.84245 0.0
H3711 H 0.09039 0.18869 0.84969 0.0
C3712 C 0.1189 0.1598 0.83603 0.0
C3713 C 0.11826 0.15768 0.84708 0.0
C3714 C 0.11072 0.16541 0.83079 0.0
C3715 C 0.10163 0.16915 0.83641 0.0
C3716 C 0.10096 0.16716 0.8475 0.0
H3717 H 0.0442 0.20228 0.81233 0.0
H3718 H 0.05725 0.19271 0.82336 0.0
C3719 C 0.10923 0.16156 0.8528 0.0
C3720 C 0.09286 0.17482 0.83045 0.0
H3721 H 0.07882 0.19849 0.82852 0.0
C3722 C 0.08841 0.16976 0.8216 0.0
C3723 C 0.08931 0.18533 0.83297 0.0
C3724 C 0.09404 0.19144 0.84205 0.0
C3725 C 0.08063 0.17487 0.81523 0.0
C3726 C 0.07721 0.18541 0.81766 0.0
C3727 C 0.08145 0.19042 0.82663 0.0
C3728 C 0.06933 0.1914 0.81091 0.0
C3729 C 0.07605 0.16891 0.80597 0.0
C3730 C 0.07181 0.19404 0.80025 0.0
C3731 C 0.06443 0.19971 0.79393 0.0
C3732 C 0.05432 0.20286 0.79808 0.0
C3733 C 0.05191 0.20021 0.80882 0.0
C3734 C 0.05935 0.19464 0.81516 0.0
H3735 H 0.07766 0.16017 0.8066 0.0
H3736 H 0.06727 0.17032 0.8055 0.0
H3737 H 0.07975 0.17183 0.79842 0.0
H3738 H 0.07953 0.19182 0.79684 0.0
H3739 H 0.06676 0.20176 0.78583 0.0
H3740 H 0.78365 0.12015 0.82856 0.0
H3741 H 0.77439 0.10489 0.82144 0.0
H3742 H 0.78232 0.1151 0.7894 0.0
H3743 H 0.7915 0.13065 0.79649 0.0
H3744 H 0.75685 0.10491 0.80817 0.0
H3745 H 0.7915 0.08348 0.78956 0.0
H3746 H 0.79305 0.09406 0.79909 0.0
H3747 H 0.79001 0.09719 0.78542 0.0
C3748 C 0.78341 0.11925 0.81998 0.0
C3749 C 0.78824 0.12679 0.81312 0.0
C3750 C 0.77813 0.11044 0.81592 0.0
C3751 C 0.77765 0.10879 0.80489 0.0
C3752 C 0.78269 0.11611 0.79796 0.0
H3753 H 0.74541 0.06307 0.76558 0.0
H3754 H 0.75439 0.07847 0.77285 0.0
C3755 C 0.78796 0.12501 0.80204 0.0
C3756 C 0.77162 0.09956 0.80074 0.0
H3757 H 0.77431 0.07674 0.78605 0.0
C3758 C 0.76068 0.09874 0.80336 0.0
C3759 C 0.77662 0.09143 0.79456 0.0
C3760 C 0.78846 0.09148 0.79206 0.0
C3761 C 0.7546 0.09014 0.79978 0.0
C3762 C 0.75958 0.08215 0.79343 0.0
C3763 C 0.7705 0.08293 0.79087 0.0
C3764 C 0.75358 0.07298 0.78923 0.0
C3765 C 0.74284 0.08974 0.80262 0.0
C3766 C 0.75011 0.06475 0.79604 0.0
C3767 C 0.74516 0.05575 0.79188 0.0
C3768 C 0.74353 0.05481 0.78081 0.0
C3769 C 0.74676 0.06328 0.77409 0.0
C3770 C 0.75181 0.07219 0.77824 0.0
H3771 H 0.73987 0.09726 0.80635 0.0
H3772 H 0.73809 0.0882 0.79537 0.0
H3773 H 0.74147 0.08306 0.80832 0.0
H3774 H 0.75149 0.06515 0.80455 0.0
H3775 H 0.74293 0.0494 0.79734 0.0
H3776 H 0.90229 0.86962 0.82892 0.0
H3777 H 0.91733 0.86206 0.81859 0.0
H3778 H 0.93914 0.87214 0.84277 0.0
H3779 H 0.92405 0.87921 0.85335 0.0
H3780 H 0.93373 0.86905 0.80897 0.0
H3781 H 0.95016 0.84287 0.84077 0.0
H3782 H 0.93759 0.84997 0.84243 0.0
H3783 H 0.95007 0.85663 0.84453 0.0
C3784 C 0.9103 0.87026 0.83204 0.0
C3785 C 0.91187 0.87498 0.84205 0.0
C3786 C 0.91895 0.86587 0.82612 0.0
C3787 C 0.92951 0.86615 0.82994 0.0
C3788 C 0.93114 0.87131 0.83974 0.0
H3789 H 0.99194 0.84391 0.80452 0.0
H3790 H 0.9772 0.85236 0.81462 0.0
C3791 C 0.92246 0.8755 0.84577 0.0
C3792 C 0.93871 0.86128 0.82353 0.0
H3793 H 0.96076 0.8446 0.82504 0.0
C3794 C 0.93957 0.86364 0.81253 0.0
C3795 C 0.94651 0.85421 0.82801 0.0
C3796 C 0.94599 0.85068 0.83955 0.0
C3797 C 0.94791 0.85936 0.80603 0.0
C3798 C 0.95569 0.85231 0.81051 0.0
C3799 C 0.95489 0.84999 0.82151 0.0
C3800 C 0.96473 0.84732 0.80403 0.0
C3801 C 0.94842 0.86272 0.79444 0.0
C3802 C 0.96282 0.84155 0.79463 0.0
C3803 C 0.97132 0.83684 0.78872 0.0
C3804 C 0.98195 0.8375 0.79219 0.0
C3805 C 0.98385 0.84316 0.80164 0.0
C3806 C 0.97539 0.84802 0.80744 0.0
H3807 H 0.94409 0.87043 0.79307 0.0
H3808 H 0.95682 0.86355 0.79161 0.0
H3809 H 0.94453 0.85659 0.78953 0.0
H3810 H 0.95472 0.84052 0.79192 0.0
H3811 H 0.96953 0.83243 0.78158 0.0
H3812 H 0.84934 0.93066 0.16617 0.0
H3813 H 0.84029 0.94425 0.17736 0.0
H3814 H 0.83505 0.9205 0.20194 0.0
H3815 H 0.84433 0.90711 0.19099 0.0
H3816 H 0.82013 0.9454 0.18598 0.0
H3817 H 0.84981 0.94327 0.21849 0.0
H3818 H 0.85232 0.93743 0.20555 0.0
H3819 H 0.8444 0.93051 0.21543 0.0
C3820 C 0.84616 0.92839 0.17393 0.0
C3821 C 0.84755 0.91792 0.1778 0.0
C3822 C 0.84106 0.93612 0.18031 0.0
C3823 C 0.83729 0.93341 0.19059 0.0
C3824 C 0.83822 0.92283 0.1942 0.0
H3825 H 0.80276 0.96568 0.24167 0.0
H3826 H 0.81143 0.95246 0.22982 0.0
C3827 C 0.84341 0.91517 0.1879 0.0
C3828 C 0.83222 0.94156 0.19755 0.0
H3829 H 0.83343 0.95251 0.22237 0.0
C3830 C 0.82308 0.94704 0.19389 0.0
C3831 C 0.83612 0.94364 0.20789 0.0
C3832 C 0.84626 0.93848 0.21204 0.0
C3833 C 0.81755 0.95437 0.20041 0.0
C3834 C 0.82135 0.95628 0.21078 0.0
C3835 C 0.83052 0.95089 0.21443 0.0
C3836 C 0.8161 0.96412 0.21786 0.0
C3837 C 0.80757 0.95985 0.19627 0.0
C3838 C 0.8161 0.97496 0.21506 0.0
C3839 C 0.81114 0.98242 0.22173 0.0
C3840 C 0.80621 0.97913 0.23131 0.0
C3841 C 0.80646 0.96831 0.23426 0.0
C3842 C 0.81137 0.96082 0.22753 0.0
H3843 H 0.80447 0.95584 0.18909 0.0
H3844 H 0.80119 0.96005 0.20253 0.0
H3845 H 0.80942 0.96822 0.19404 0.0
H3846 H 0.81998 0.97765 0.20776 0.0
H3847 H 0.81125 0.99079 0.21946 0.0
H3848 H 0.0878 0.84508 0.17614 0.0
H3849 H 0.0748 0.83258 0.18369 0.0
H3850 H 0.09106 0.80651 0.16765 0.0
H3851 H 0.10425 0.81883 0.16034 0.0
H3852 H 0.06103 0.8173 0.17304 0.0
H3853 H 0.09093 0.79807 0.19986 0.0
H3854 H 0.09282 0.81109 0.19391 0.0
H3855 H 0.09498 0.79928 0.18608 0.0
C3856 C 0.08863 0.83668 0.17424 0.0
C3857 C 0.09711 0.83294 0.16769 0.0
C3858 C 0.08115 0.82958 0.1785 0.0
C3859 C 0.08208 0.81863 0.17632 0.0
C3860 C 0.0903 0.81493 0.16951 0.0
H3861 H 0.04871 0.76185 0.19723 0.0
H3862 H 0.06004 0.77478 0.18783 0.0
C3863 C 0.09777 0.822 0.16526 0.0
C3864 C 0.07469 0.81099 0.18145 0.0
H3865 H 0.074 0.79003 0.19902 0.0
C3866 C 0.06383 0.81136 0.17876 0.0
C3867 C 0.0784 0.80329 0.18891 0.0
C3868 C 0.0899 0.80291 0.19247 0.0
C3869 C 0.0566 0.80404 0.1832 0.0
C3870 C 0.06035 0.79628 0.19057 0.0
C3871 C 0.07119 0.79595 0.19329 0.0
C3872 C 0.0531 0.78857 0.19579 0.0
C3873 C 0.04505 0.80449 0.17986 0.0
C3874 C 0.04552 0.79207 0.20339 0.0
C3875 C 0.03908 0.78473 0.20879 0.0
C3876 C 0.04011 0.77375 0.20667 0.0
C3877 C 0.04766 0.77027 0.19895 0.0
C3878 C 0.05415 0.77762 0.19361 0.0
H3879 H 0.04378 0.80988 0.17289 0.0
H3880 H 0.04231 0.79637 0.17783 0.0
H3881 H 0.04 0.80744 0.1866 0.0
H3882 H 0.0447 0.80048 0.20527 0.0
H3883 H 0.03328 0.78766 0.21461 0.0
H3884 H 0.94214 0.22712 0.17974 0.0
H3885 H 0.95426 0.23676 0.19119 0.0
H3886 H 0.94094 0.221 0.21891 0.0
H3887 H 0.92834 0.21177 0.20768 0.0
H3888 H 0.93969 0.24798 0.21134 0.0
H3889 H 0.9779 0.22545 0.21826 0.0
H3890 H 0.97057 0.22431 0.20598 0.0
H3891 H 0.96549 0.21829 0.218 0.0
C3892 C 0.94189 0.22557 0.18826 0.0
C3893 C 0.93406 0.21895 0.19285 0.0
C3894 C 0.9489 0.23097 0.19473 0.0
C3895 C 0.94835 0.22953 0.20578 0.0
C3896 C 0.94141 0.22208 0.21032 0.0
H3897 H 0.9783 0.258 0.25816 0.0
H3898 H 0.96703 0.24746 0.24697 0.0
C3899 C 0.93426 0.2168 0.20388 0.0
C3900 C 0.95331 0.23728 0.21265 0.0
H3901 H 0.97506 0.24142 0.22787 0.0
C3902 C 0.94744 0.24663 0.21497 0.0
C3903 C 0.96336 0.23532 0.21722 0.0
C3904 C 0.96978 0.22532 0.21476 0.0
C3905 C 0.9513 0.25408 0.22211 0.0
C3906 C 0.96132 0.25208 0.22682 0.0
C3907 C 0.9673 0.24281 0.22428 0.0
C3908 C 0.96583 0.25943 0.23447 0.0
C3909 C 0.9445 0.26381 0.22477 0.0
C3910 C 0.96821 0.2699 0.23139 0.0
C3911 C 0.97424 0.2762 0.23803 0.0
C3912 C 0.97836 0.27188 0.24755 0.0
C3913 C 0.97518 0.26168 0.25097 0.0
C3914 C 0.96889 0.25554 0.24449 0.0
H3915 H 0.93595 0.26262 0.22283 0.0
H3916 H 0.94506 0.26585 0.23335 0.0
H3917 H 0.94736 0.27071 0.21997 0.0
H3918 H 0.966 0.27297 0.22361 0.0
H3919 H 0.97638 0.28412 0.2353 0.0
H3920 H 0.15236 0.69294 0.58236 0.0
H3921 H 0.16472 0.70124 0.56936 0.0
H3922 H 0.19031 0.69801 0.59196 0.0
H3923 H 0.17821 0.68941 0.60464 0.0
H3924 H 0.17588 0.7187 0.56878 0.0
H3925 H 0.20591 0.68588 0.56736 0.0
H3926 H 0.19301 0.68431 0.57373 0.0
H3927 H 0.20381 0.69041 0.58075 0.0
C3928 C 0.16064 0.69398 0.58452 0.0
C3929 C 0.16427 0.69035 0.59456 0.0
C3930 C 0.16775 0.69871 0.57705 0.0
C3931 C 0.17867 0.70004 0.57943 0.0
C3932 C 0.18214 0.69674 0.5896 0.0
H3933 H 0.23468 0.73079 0.55022 0.0
H3934 H 0.22171 0.7218 0.56193 0.0
C3935 C 0.17512 0.69188 0.59695 0.0
C3936 C 0.18637 0.70518 0.57156 0.0
H3937 H 0.21153 0.70268 0.56033 0.0
C3938 C 0.18361 0.7151 0.56687 0.0
C3939 C 0.19657 0.70062 0.56893 0.0
C3940 C 0.19996 0.68967 0.57287 0.0
C3941 C 0.19076 0.72065 0.56003 0.0
C3942 C 0.20103 0.71618 0.55761 0.0
C3943 C 0.20375 0.70623 0.56219 0.0
C3944 C 0.20902 0.72165 0.55034 0.0
C3945 C 0.18736 0.73146 0.55576 0.0
C3946 C 0.20645 0.72443 0.53976 0.0
C3947 C 0.21388 0.72958 0.53303 0.0
C3948 C 0.2242 0.73207 0.5366 0.0
C3949 C 0.22687 0.72903 0.54712 0.0
C3950 C 0.2194 0.7239 0.55387 0.0
H3951 H 0.18061 0.73498 0.56049 0.0
H3952 H 0.19412 0.73709 0.55578 0.0
H3953 H 0.18466 0.73062 0.54741 0.0
H3954 H 0.19869 0.72251 0.53663 0.0
H3955 H 0.21155 0.73148 0.52493 0.0
H3956 H 0.85281 0.72847 0.61993 0.0
H3957 H 0.84434 0.73418 0.6032 0.0
H3958 H 0.81968 0.75088 0.62121 0.0
H3959 H 0.8283 0.74538 0.6379 0.0
H3960 H 0.82388 0.72851 0.59777 0.0
H3961 H 0.8272 0.77266 0.5982 0.0
H3962 H 0.8354 0.76397 0.60641 0.0
H3963 H 0.82179 0.76704 0.6103 0.0
C3964 C 0.8458 0.73368 0.62024 0.0
C3965 C 0.84128 0.73671 0.6301 0.0
C3966 C 0.84092 0.73685 0.61073 0.0
C3967 C 0.83145 0.74304 0.61098 0.0
C3968 C 0.82712 0.74633 0.62084 0.0
H3969 H 0.78619 0.76456 0.56325 0.0
H3970 H 0.79496 0.75937 0.58003 0.0
C3971 C 0.83203 0.74321 0.63035 0.0
C3972 C 0.82562 0.74526 0.601 0.0
H3973 H 0.8156 0.76543 0.58543 0.0
C3974 C 0.82212 0.73658 0.59502 0.0
C3975 C 0.82328 0.75579 0.5975 0.0
C3976 C 0.82719 0.76541 0.60337 0.0
C3977 C 0.81623 0.73815 0.58568 0.0
C3978 C 0.8139 0.74869 0.58222 0.0
C3979 C 0.81736 0.75736 0.58819 0.0
C3980 C 0.80816 0.75095 0.57224 0.0
C3981 C 0.81235 0.72857 0.57972 0.0
C3982 C 0.8127 0.74789 0.56241 0.0
C3983 C 0.80767 0.75075 0.55292 0.0
C3984 C 0.79814 0.75682 0.5532 0.0
C3985 C 0.79354 0.75984 0.56299 0.0
C3986 C 0.79852 0.75689 0.57249 0.0
H3987 H 0.81258 0.72122 0.58474 0.0
H3988 H 0.80404 0.72994 0.5769 0.0
H3989 H 0.81758 0.72717 0.57262 0.0
H3990 H 0.82027 0.74355 0.56206 0.0
H3991 H 0.81135 0.74849 0.54536 0.0
H3992 H 0.83511 0.30933 0.61697 0.0
H3993 H 0.82565 0.30083 0.60237 0.0
H3994 H 0.81745 0.33179 0.58932 0.0
H3995 H 0.82736 0.3403 0.60338 0.0
H3996 H 0.80462 0.30191 0.59674 0.0
H3997 H 0.82901 0.31746 0.56298 0.0
H3998 H 0.83333 0.3181 0.57665 0.0
H3999 H 0.82383 0.32777 0.57156 0.0
C4000 C 0.83151 0.31436 0.61089 0.0
C4001 C 0.83209 0.32559 0.61151 0.0
C4002 C 0.82597 0.30946 0.60256 0.0
C4003 C 0.8209 0.31561 0.59457 0.0
C4004 C 0.82145 0.32678 0.59518 0.0
H4005 H 0.77973 0.30273 0.54031 0.0
H4006 H 0.78948 0.31069 0.55504 0.0
C4007 C 0.82703 0.33168 0.60342 0.0
C4008 C 0.81485 0.31041 0.58576 0.0
H4009 H 0.81269 0.30922 0.55852 0.0
C4010 C 0.80647 0.30346 0.58839 0.0
C4011 C 0.81716 0.31239 0.5748 0.0
C4012 C 0.82638 0.31925 0.5713 0.0
C4013 C 0.80028 0.29865 0.58045 0.0
C4014 C 0.80254 0.30073 0.56952 0.0
C4015 C 0.81091 0.30765 0.56688 0.0
C4016 C 0.79636 0.29577 0.56072 0.0
C4017 C 0.79117 0.29156 0.58378 0.0
C4018 C 0.79699 0.28471 0.55891 0.0
C4019 C 0.79144 0.28013 0.55045 0.0
C4020 C 0.78508 0.28647 0.54358 0.0
C4021 C 0.78443 0.29755 0.54547 0.0
C4022 C 0.79006 0.30214 0.55388 0.0
H4023 H 0.78924 0.29224 0.59244 0.0
H4024 H 0.78389 0.2936 0.57915 0.0
H4025 H 0.7934 0.28312 0.58209 0.0
H4026 H 0.80188 0.27962 0.56398 0.0
H4027 H 0.79209 0.27157 0.54934 0.0
H4028 H 0.18234 0.37008 0.61465 0.0
H4029 H 0.19492 0.36366 0.60094 0.0
H4030 H 0.18473 0.33138 0.60658 0.0
H4031 H 0.17261 0.33753 0.6207 0.0
H4032 H 0.21156 0.34648 0.60578 0.0
H4033 H 0.18355 0.33735 0.57302 0.0
H4034 H 0.18032 0.34688 0.5834 0.0
H4035 H 0.17975 0.33283 0.5862 0.0
C4036 C 0.1828 0.3616 0.61303 0.0
C4037 C 0.1765 0.35432 0.61883 0.0
C4038 C 0.1899 0.35799 0.60515 0.0
C4039 C 0.19061 0.34711 0.6028 0.0
C4040 C 0.18413 0.33984 0.60826 0.0
H4041 H 0.22667 0.30567 0.56247 0.0
H4042 H 0.21561 0.31359 0.57608 0.0
C4043 C 0.17715 0.3434 0.61627 0.0
C4044 C 0.19866 0.34317 0.59513 0.0
H4045 H 0.20146 0.33105 0.57103 0.0
C4046 C 0.20942 0.34319 0.59812 0.0
C4047 C 0.1957 0.3389 0.58525 0.0
C4048 C 0.18421 0.33902 0.58169 0.0
C4049 C 0.21738 0.33871 0.5915 0.0
C4050 C 0.2144 0.33427 0.58169 0.0
C4051 C 0.20364 0.33443 0.57863 0.0
C4052 C 0.22229 0.32929 0.57444 0.0
C4053 C 0.22883 0.33842 0.59518 0.0
C4054 C 0.22999 0.33546 0.56926 0.0
C4055 C 0.23675 0.3309 0.56157 0.0
C4056 C 0.23569 0.3201 0.55854 0.0
C4057 C 0.2281 0.31392 0.56422 0.0
C4058 C 0.22155 0.31846 0.57208 0.0
H4059 H 0.22949 0.34056 0.60374 0.0
H4060 H 0.23245 0.33036 0.59396 0.0
H4061 H 0.23355 0.3442 0.59039 0.0
H4062 H 0.2306 0.34389 0.57097 0.0
H4063 H 0.24257 0.33611 0.55799 0.0
H4064 H 0.18253 0.38643 0.40897 0.0
H4065 H 0.19136 0.37393 0.42113 0.0
H4066 H 0.16206 0.37115 0.4395 0.0
H4067 H 0.15305 0.38366 0.42711 0.0
H4068 H 0.19415 0.37699 0.44256 0.0
H4069 H 0.17149 0.34001 0.43493 0.0
H4070 H 0.17089 0.3515 0.42614 0.0
H4071 H 0.16355 0.35157 0.43857 0.0
C4072 C 0.17795 0.38313 0.41558 0.0
C4073 C 0.16716 0.38606 0.41721 0.0
C4074 C 0.18299 0.37599 0.4225 0.0
C4075 C 0.17735 0.37162 0.43117 0.0
C4076 C 0.16649 0.37434 0.43274 0.0
H4077 H 0.20295 0.33149 0.48199 0.0
H4078 H 0.19124 0.34261 0.47088 0.0
C4079 C 0.16138 0.38147 0.42572 0.0
C4080 C 0.18314 0.36458 0.4387 0.0
H4081 H 0.18495 0.33893 0.44797 0.0
C4082 C 0.19211 0.36868 0.44378 0.0
C4083 C 0.18044 0.35376 0.44023 0.0
C4084 C 0.17112 0.34888 0.43463 0.0
C4085 C 0.19857 0.36218 0.45025 0.0
C4086 C 0.19597 0.35134 0.45162 0.0
C4087 C 0.18686 0.34728 0.44681 0.0
C4088 C 0.20276 0.34408 0.45794 0.0
C4089 C 0.20817 0.3669 0.45553 0.0
C4090 C 0.21296 0.3411 0.45415 0.0
C4091 C 0.21961 0.33463 0.46037 0.0
C4092 C 0.21615 0.3311 0.47051 0.0
C4093 C 0.2058 0.33394 0.47416 0.0
C4094 C 0.19913 0.34035 0.46788 0.0
H4095 H 0.20797 0.37577 0.45522 0.0
H4096 H 0.20862 0.36427 0.46401 0.0
H4097 H 0.21558 0.36405 0.45139 0.0
H4098 H 0.2158 0.34386 0.4464 0.0
H4099 H 0.22746 0.33241 0.45726 0.0
H4100 H 0.22298 0.73378 0.3535 0.0
H4101 H 0.2288 0.73746 0.37164 0.0
H4102 H 0.22519 0.70425 0.38005 0.0
H4103 H 0.21938 0.7005 0.3619 0.0
H4104 H 0.21692 0.73468 0.38992 0.0
H4105 H 0.25445 0.71045 0.392 0.0
H4106 H 0.24817 0.71394 0.37952 0.0
H4107 H 0.24311 0.70317 0.38758 0.0
C4108 C 0.22352 0.72724 0.35918 0.0
C4109 C 0.22069 0.71685 0.35626 0.0
C4110 C 0.22687 0.72935 0.36954 0.0
C4111 C 0.22753 0.72112 0.37717 0.0
C4112 C 0.22497 0.71069 0.37422 0.0
H4113 H 0.23769 0.71984 0.44577 0.0
H4114 H 0.23371 0.71542 0.42722 0.0
C4115 C 0.22165 0.70855 0.36384 0.0
C4116 C 0.23022 0.7236 0.38838 0.0
H4117 H 0.2477 0.71751 0.40836 0.0
C4118 C 0.22369 0.73098 0.39393 0.0
C4119 C 0.23904 0.71874 0.39359 0.0
C4120 C 0.24667 0.71121 0.38786 0.0
C4121 C 0.22565 0.73351 0.40462 0.0
C4122 C 0.23442 0.72859 0.40985 0.0
C4123 C 0.24095 0.72121 0.40432 0.0
C4124 C 0.23705 0.73119 0.421 0.0
C4125 C 0.21823 0.74129 0.4103 0.0
C4126 C 0.24044 0.74145 0.42357 0.0
C4127 C 0.2428 0.74397 0.43411 0.0
C4128 C 0.24181 0.73629 0.44231 0.0
C4129 C 0.2386 0.72593 0.43966 0.0
C4130 C 0.23627 0.7234 0.42908 0.0
H4131 H 0.2107 0.74275 0.40585 0.0
H4132 H 0.21618 0.73828 0.41843 0.0
H4133 H 0.22229 0.74903 0.41117 0.0
H4134 H 0.24131 0.74749 0.4174 0.0
H4135 H 0.24552 0.75194 0.43581 0.0
H4136 H 0.84039 0.66684 0.41012 0.0
H4137 H 0.83235 0.67968 0.42267 0.0
H4138 H 0.86354 0.68649 0.43487 0.0
H4139 H 0.87162 0.67334 0.42284 0.0
H4140 H 0.83501 0.68244 0.447 0.0
H4141 H 0.85054 0.71541 0.42137 0.0
H4142 H 0.84897 0.70202 0.41644 0.0
H4143 H 0.85986 0.70494 0.42507 0.0
C4144 C 0.84554 0.67082 0.41566 0.0
C4145 C 0.85673 0.66921 0.41521 0.0
C4146 C 0.84092 0.67823 0.42278 0.0
C4147 C 0.8474 0.6842 0.42949 0.0
C4148 C 0.85843 0.6821 0.4296 0.0
H4149 H 0.83182 0.73604 0.474 0.0
H4150 H 0.8415 0.7224 0.46363 0.0
C4151 C 0.86303 0.67462 0.42263 0.0
C4152 C 0.84276 0.69308 0.4359 0.0
H4153 H 0.84122 0.72033 0.43714 0.0
C4154 C 0.83637 0.69072 0.44487 0.0
C4155 C 0.84463 0.70387 0.43311 0.0
C4156 C 0.85132 0.70679 0.42344 0.0
C4157 C 0.83175 0.69891 0.4511 0.0
C4158 C 0.83347 0.70967 0.44819 0.0
C4159 C 0.83997 0.71205 0.43933 0.0
C4160 C 0.82797 0.71851 0.45392 0.0
C4161 C 0.82501 0.69608 0.46076 0.0
C4162 C 0.81728 0.72101 0.45164 0.0
C4163 C 0.81178 0.72895 0.45735 0.0
C4164 C 0.8168 0.73446 0.46562 0.0
C4165 C 0.82767 0.7321 0.46766 0.0
C4166 C 0.83321 0.72423 0.4618 0.0
H4167 H 0.82542 0.6874 0.46266 0.0
H4168 H 0.82768 0.70061 0.46781 0.0
H4169 H 0.81654 0.6984 0.45928 0.0
H4170 H 0.81315 0.71672 0.44549 0.0
H4171 H 0.80355 0.73072 0.45527 0.0
H4172 H 0.83132 0.35136 0.41775 0.0
H4173 H 0.82134 0.34035 0.4305 0.0
H4174 H 0.84674 0.3431 0.45325 0.0
H4175 H 0.85685 0.35418 0.44037 0.0
H4176 H 0.8291 0.32058 0.43992 0.0
H4177 H 0.81819 0.35171 0.46989 0.0
H4178 H 0.82213 0.35502 0.45634 0.0
H4179 H 0.83202 0.35064 0.46573 0.0
C4180 C 0.83479 0.34958 0.42546 0.0
C4181 C 0.84484 0.35355 0.42809 0.0
C4182 C 0.82908 0.34334 0.43273 0.0
C4183 C 0.83325 0.34104 0.44284 0.0
C4184 C 0.84334 0.34492 0.44552 0.0
H4185 H 0.8059 0.29996 0.49247 0.0
H4186 H 0.81752 0.31228 0.48246 0.0
C4187 C 0.84914 0.35112 0.43815 0.0
C4188 C 0.82712 0.33414 0.45025 0.0
H4189 H 0.81204 0.33429 0.47322 0.0
C4190 C 0.82543 0.32355 0.44723 0.0
C4191 C 0.82233 0.33809 0.45976 0.0
C4192 C 0.82366 0.3495 0.46316 0.0
C4193 C 0.81899 0.31681 0.45343 0.0
C4194 C 0.81402 0.32081 0.4628 0.0
C4195 C 0.81588 0.33131 0.46599 0.0
C4196 C 0.8067 0.31418 0.46921 0.0
C4197 C 0.8175 0.30544 0.4499 0.0
C4198 C 0.79674 0.31142 0.46511 0.0
C4199 C 0.79011 0.30452 0.47083 0.0
C4200 C 0.79342 0.30028 0.48066 0.0
C4201 C 0.80327 0.3032 0.48488 0.0
C4202 C 0.80985 0.3102 0.47921 0.0
H4203 H 0.82348 0.303 0.4437 0.0
H4204 H 0.81814 0.29985 0.45681 0.0
H4205 H 0.80939 0.30466 0.44652 0.0
H4206 H 0.79419 0.31446 0.45741 0.0
H4207 H 0.78253 0.30226 0.46746 0.0
H4208 H 0.07092 0.69941 0.67974 0.0
H4209 H 0.06075 0.71259 0.69057 0.0
H4210 H 0.08716 0.73418 0.68804 0.0
H4211 H 0.09705 0.72135 0.67708 0.0
H4212 H 0.06325 0.72187 0.70918 0.0
H4213 H 0.06434 0.75446 0.67944 0.0
H4214 H 0.06822 0.74094 0.67612 0.0
H4215 H 0.07765 0.74976 0.68211 0.0
C4216 C 0.07453 0.70698 0.6815 0.0
C4217 C 0.08479 0.70933 0.67735 0.0
C4218 C 0.06869 0.71456 0.68768 0.0
C4219 C 0.07297 0.72466 0.68993 0.0
C4220 C 0.08337 0.72675 0.68613 0.0
H4221 H 0.0611 0.78129 0.72796 0.0
H4222 H 0.06773 0.76674 0.71662 0.0
C4223 C 0.0891 0.7193 0.67989 0.0
C4224 C 0.06689 0.73294 0.69647 0.0
H4225 H 0.06086 0.75977 0.69756 0.0
C4226 C 0.06261 0.73012 0.70655 0.0
C4227 C 0.06583 0.74378 0.69313 0.0
C4228 C 0.06914 0.74739 0.68206 0.0
C4229 C 0.05794 0.73783 0.71351 0.0
C4230 C 0.05745 0.74875 0.71037 0.0
C4231 C 0.06137 0.75149 0.70015 0.0
C4232 C 0.05325 0.75754 0.7176 0.0
C4233 C 0.05395 0.73421 0.72434 0.0
C4234 C 0.04281 0.75744 0.72199 0.0
C4235 C 0.03897 0.76582 0.72855 0.0
C4236 C 0.04539 0.77466 0.73081 0.0
C4237 C 0.05581 0.77475 0.72634 0.0
C4238 C 0.05966 0.76636 0.71985 0.0
H4239 H 0.05723 0.7262 0.72654 0.0
H4240 H 0.05612 0.73997 0.73061 0.0
H4241 H 0.0451 0.73369 0.72422 0.0
H4242 H 0.03751 0.75097 0.72021 0.0
H4243 H 0.03086 0.76547 0.73167 0.0
H4244 H 0.86784 0.65592 0.72073 0.0
H4245 H 0.86286 0.63858 0.72796 0.0
H4246 H 0.83195 0.6417 0.71331 0.0
H4247 H 0.83669 0.65941 0.70632 0.0
H4248 H 0.84387 0.63447 0.74186 0.0
H4249 H 0.84534 0.61169 0.70391 0.0
H4250 H 0.85216 0.62416 0.70551 0.0
H4251 H 0.83793 0.62415 0.70379 0.0
C4252 C 0.85991 0.65305 0.71912 0.0
C4253 C 0.85261 0.65922 0.71307 0.0
C4254 C 0.85712 0.64307 0.72321 0.0
C4255 C 0.84706 0.63888 0.72119 0.0
C4256 C 0.8398 0.6448 0.71492 0.0
H4257 H 0.81603 0.57998 0.73535 0.0
H4258 H 0.82184 0.59715 0.729 0.0
C4259 C 0.84255 0.65489 0.71088 0.0
C4260 C 0.84417 0.62838 0.72584 0.0
H4261 H 0.83933 0.60255 0.7193 0.0
C4262 C 0.84286 0.62746 0.73696 0.0
C4263 C 0.843 0.61927 0.71942 0.0
C4264 C 0.84474 0.61977 0.70749 0.0
C4265 C 0.84003 0.61773 0.74182 0.0
C4266 C 0.83872 0.60861 0.73537 0.0
C4267 C 0.84027 0.60953 0.72425 0.0
C4268 C 0.83513 0.59818 0.7398 0.0
C4269 C 0.83811 0.61745 0.75374 0.0
C4270 C 0.84064 0.59291 0.74807 0.0
C4271 C 0.83695 0.5832 0.75222 0.0
C4272 C 0.82787 0.57829 0.74794 0.0
C4273 C 0.82272 0.58348 0.73932 0.0
C4274 C 0.82618 0.59332 0.73547 0.0
H4275 H 0.83678 0.62559 0.75703 0.0
H4276 H 0.83107 0.61253 0.75584 0.0
H4277 H 0.84524 0.6139 0.75769 0.0
H4278 H 0.84778 0.59629 0.75134 0.0
H4279 H 0.8412 0.57971 0.75889 0.0
H4280 H 0.90606 0.31944 0.70955 0.0
H4281 H 0.91959 0.30874 0.71907 0.0
H4282 H 0.9355 0.30153 0.6892 0.0
H4283 H 0.92237 0.31249 0.67971 0.0
H4284 H 0.92494 0.28701 0.71713 0.0
H4285 H 0.96032 0.31141 0.707 0.0
H4286 H 0.94677 0.3164 0.70553 0.0
H4287 H 0.95264 0.30766 0.69566 0.0
C4288 C 0.91254 0.31576 0.705 0.0
C4289 C 0.91301 0.31691 0.69379 0.0
C4290 C 0.92024 0.30953 0.71047 0.0
C4291 C 0.9287 0.30437 0.70492 0.0
C4292 C 0.92922 0.30554 0.69375 0.0
H4293 H 0.98091 0.25996 0.72156 0.0
H4294 H 0.96739 0.27109 0.71248 0.0
C4295 C 0.92156 0.31175 0.68829 0.0
C4296 C 0.93684 0.29759 0.7107 0.0
H4297 H 0.96377 0.29448 0.71498 0.0
C4298 C 0.93342 0.28871 0.71672 0.0
C4299 C 0.94795 0.2997 0.71018 0.0
C4300 C 0.95217 0.30936 0.70433 0.0
C4301 C 0.94076 0.28187 0.72201 0.0
C4302 C 0.95185 0.28396 0.72142 0.0
C4303 C 0.95528 0.29282 0.71543 0.0
C4304 C 0.96001 0.27708 0.727 0.0
C4305 C 0.93664 0.27227 0.72802 0.0
C4306 C 0.96047 0.27678 0.73821 0.0
C4307 C 0.96826 0.27049 0.74343 0.0
C4308 C 0.97574 0.26425 0.73757 0.0
C4309 C 0.97523 0.26455 0.72634 0.0
C4310 C 0.96752 0.27096 0.72113 0.0
H4311 H 0.92814 0.27069 0.72621 0.0
H4312 H 0.94155 0.26505 0.72604 0.0
H4313 H 0.93728 0.27364 0.73673 0.0
H4314 H 0.95486 0.28151 0.74294 0.0
H4315 H 0.96835 0.27042 0.75208 0.0
H4316 H 0.15806 0.43628 0.69332 0.0
H4317 H 0.16441 0.45151 0.70356 0.0
H4318 H 0.16988 0.43077 0.7307 0.0
H4319 H 0.16365 0.41555 0.72052 0.0
H4320 H 0.15599 0.45844 0.72519 0.0
H4321 H 0.19901 0.44609 0.72355 0.0
H4322 H 0.18939 0.44156 0.71403 0.0
H4323 H 0.18969 0.43587 0.72722 0.0
C4324 C 0.16068 0.43502 0.70145 0.0
C4325 C 0.16043 0.42483 0.70619 0.0
C4326 C 0.16421 0.44366 0.70727 0.0
C4327 C 0.16762 0.44212 0.71778 0.0
C4328 C 0.16731 0.43199 0.72254 0.0
H4329 H 0.1963 0.48032 0.76571 0.0
H4330 H 0.18752 0.46611 0.75583 0.0
C4331 C 0.16373 0.42337 0.71677 0.0
C4332 C 0.17165 0.45108 0.72382 0.0
H4333 H 0.19429 0.46047 0.73487 0.0
C4334 C 0.16436 0.45898 0.72728 0.0
C4335 C 0.18255 0.45159 0.72646 0.0
C4336 C 0.19066 0.44338 0.72258 0.0
C4337 C 0.16772 0.46738 0.73363 0.0
C4338 C 0.17862 0.46782 0.73635 0.0
C4339 C 0.18591 0.45997 0.73278 0.0
C4340 C 0.18276 0.47649 0.74275 0.0
C4341 C 0.15961 0.47555 0.73757 0.0
C4342 C 0.18287 0.4869 0.73858 0.0
C4343 C 0.1878 0.49493 0.74419 0.0
C4344 C 0.1927 0.49254 0.75392 0.0
C4345 C 0.19246 0.4822 0.7582 0.0
C4346 C 0.18749 0.47417 0.75261 0.0
H4347 H 0.15127 0.47284 0.73657 0.0
H4348 H 0.16089 0.4773 0.74614 0.0
H4349 H 0.16058 0.48309 0.73299 0.0
H4350 H 0.17946 0.48872 0.73086 0.0
H4351 H 0.18806 0.50293 0.74083 0.0
H4352 H 0.09906 0.39141 0.32932 0.0
H4353 H 0.08774 0.38131 0.31741 0.0
H4354 H 0.06932 0.3702 0.34457 0.0
H4355 H 0.07993 0.38091 0.35636 0.0
H4356 H 0.08688 0.36001 0.31836 0.0
H4357 H 0.04597 0.37687 0.32429 0.0
H4358 H 0.05771 0.38374 0.32862 0.0
H4359 H 0.05201 0.37326 0.33672 0.0
C4360 C 0.09232 0.38717 0.33269 0.0
C4361 C 0.09042 0.38687 0.34378 0.0
C4362 C 0.08594 0.38135 0.3259 0.0
C4363 C 0.07766 0.37515 0.33014 0.0
C4364 C 0.0755 0.37517 0.34113 0.0
H4365 H 0.04044 0.32225 0.31304 0.0
H4366 H 0.04993 0.33661 0.32182 0.0
C4367 C 0.08169 0.38115 0.34787 0.0
C4368 C 0.07206 0.36769 0.32334 0.0
H4369 H 0.04722 0.35907 0.3173 0.0
C4370 C 0.07822 0.35991 0.31793 0.0
C4371 C 0.06077 0.36755 0.32299 0.0
C4372 C 0.05376 0.37588 0.3284 0.0
C4373 C 0.07332 0.35173 0.31244 0.0
C4374 C 0.06206 0.35153 0.31232 0.0
C4375 C 0.0559 0.35937 0.31751 0.0
C4376 C 0.05645 0.34306 0.30706 0.0
C4377 C 0.08015 0.34314 0.30717 0.0
C4378 C 0.05696 0.34225 0.29595 0.0
C4379 C 0.05166 0.33409 0.29098 0.0
C4380 C 0.04574 0.32681 0.29711 0.0
C4381 C 0.04503 0.3278 0.30823 0.0
C4382 C 0.0504 0.33593 0.3132 0.0
H4383 H 0.08863 0.3434 0.30971 0.0
H4384 H 0.07699 0.3351 0.30906 0.0
H4385 H 0.07996 0.34425 0.29837 0.0
H4386 H 0.06152 0.34786 0.29118 0.0
H4387 H 0.05241 0.33332 0.28238 0.0
H4388 H 0.22965 0.63689 0.28907 0.0
H4389 H 0.23606 0.62004 0.28135 0.0
H4390 H 0.23958 0.63544 0.25059 0.0
H4391 H 0.23305 0.65244 0.25836 0.0
H4392 H 0.22683 0.60923 0.26327 0.0
H4393 H 0.26947 0.62048 0.25735 0.0
H4394 H 0.26057 0.62746 0.2665 0.0
H4395 H 0.25935 0.62959 0.25239 0.0
C4396 C 0.23174 0.63664 0.28065 0.0
C4397 C 0.23089 0.64586 0.27426 0.0
C4398 C 0.23541 0.62707 0.27627 0.0
C4399 C 0.23838 0.62659 0.26546 0.0
C4400 C 0.23741 0.63575 0.25899 0.0
H4401 H 0.26151 0.57045 0.2308 0.0
H4402 H 0.25493 0.58853 0.23522 0.0
C4403 C 0.23362 0.64537 0.26337 0.0
C4404 C 0.24226 0.61635 0.26108 0.0
H4405 H 0.26481 0.60303 0.2526 0.0
C4406 C 0.2351 0.60788 0.26083 0.0
C4407 C 0.25309 0.61468 0.25803 0.0
C4408 C 0.26114 0.62348 0.25861 0.0
C4409 C 0.23853 0.59767 0.2577 0.0
C4410 C 0.24936 0.59597 0.2548 0.0
C4411 C 0.25649 0.60447 0.25481 0.0
C4412 C 0.25351 0.58527 0.25216 0.0
C4413 C 0.2306 0.58872 0.25761 0.0
C4414 C 0.25497 0.57766 0.2603 0.0
C4415 C 0.25883 0.56746 0.25782 0.0
C4416 C 0.26118 0.5648 0.24718 0.0
C4417 C 0.25974 0.57243 0.23905 0.0
C4418 C 0.25601 0.58268 0.24155 0.0
H4419 H 0.22221 0.59171 0.25843 0.0
H4420 H 0.23143 0.58412 0.25009 0.0
H4421 H 0.23229 0.58316 0.26435 0.0
H4422 H 0.25308 0.57961 0.26853 0.0
H4423 H 0.25979 0.5616 0.26416 0.0
H4424 H 0.93734 0.65514 0.33863 0.0
H4425 H 0.94997 0.66454 0.32663 0.0
H4426 H 0.92571 0.66669 0.3025 0.0
H4427 H 0.91322 0.65729 0.31434 0.0
H4428 H 0.95601 0.65827 0.30349 0.0
H4429 H 0.9362 0.69812 0.30799 0.0
H4430 H 0.935 0.68766 0.31794 0.0
H4431 H 0.92743 0.68712 0.30587 0.0
C4432 C 0.93474 0.65774 0.33079 0.0
C4433 C 0.92432 0.65562 0.32739 0.0
C4434 C 0.94194 0.663 0.32395 0.0
C4435 C 0.93872 0.66633 0.31372 0.0
C4436 C 0.92831 0.66423 0.31038 0.0
H4437 H 0.96164 0.70106 0.25887 0.0
H4438 H 0.9518 0.68999 0.27185 0.0
C4439 C 0.92119 0.65891 0.31714 0.0
C4440 C 0.94605 0.67216 0.30646 0.0
H4441 H 0.9489 0.69624 0.29392 0.0
C4442 C 0.95458 0.66661 0.30148 0.0
C4443 C 0.94408 0.683 0.30384 0.0
C4444 C 0.93523 0.68939 0.30923 0.0
C4445 C 0.961 0.67159 0.29366 0.0
C4446 C 0.95885 0.68237 0.29089 0.0
C4447 C 0.95046 0.68795 0.29603 0.0
C4448 C 0.96512 0.68808 0.28262 0.0
C4449 C 0.96979 0.66523 0.28814 0.0
C4450 C 0.97584 0.69062 0.2844 0.0
C4451 C 0.98141 0.69694 0.27704 0.0
C4452 C 0.97631 0.70077 0.26783 0.0
C4453 C 0.96568 0.69809 0.26593 0.0
C4454 C 0.9601 0.6918 0.2733 0.0
H4455 H 0.96934 0.65656 0.29 0.0
H4456 H 0.96936 0.66639 0.27935 0.0
H4457 H 0.97768 0.6681 0.29074 0.0
H4458 H 0.97978 0.688 0.29164 0.0
H4459 H 0.98961 0.69904 0.27863 0.0
H4460 H 0.85448 0.44471 0.34866 0.0
H4461 H 0.84257 0.45662 0.33869 0.0
H4462 H 0.81629 0.43555 0.34492 0.0
H4463 H 0.82825 0.42325 0.3545 0.0
H4464 H 0.83137 0.45025 0.32012 0.0
H4465 H 0.80392 0.4659 0.35173 0.0
H4466 H 0.81698 0.46023 0.35456 0.0
H4467 H 0.80596 0.45165 0.35197 0.0
C4468 C 0.84618 0.44252 0.34792 0.0
C4469 C 0.84245 0.43281 0.35224 0.0
C4470 C 0.83936 0.44943 0.34227 0.0
C4471 C 0.82855 0.44698 0.34104 0.0
C4472 C 0.8246 0.43765 0.34586 0.0
H4473 H 0.7754 0.46832 0.30348 0.0
H4474 H 0.78825 0.45933 0.31513 0.0
C4475 C 0.83147 0.43063 0.35139 0.0
C4476 C 0.82166 0.45373 0.33404 0.0
H4477 H 0.79868 0.46892 0.33375 0.0
C4478 C 0.82428 0.45443 0.32311 0.0
C4479 C 0.81247 0.45924 0.33797 0.0
C4480 C 0.80968 0.45934 0.34971 0.0
C4481 C 0.81771 0.46014 0.31594 0.0
C4482 C 0.80833 0.46532 0.31983 0.0
C4483 C 0.80585 0.46486 0.33079 0.0
C4484 C 0.8007 0.47087 0.3126 0.0
C4485 C 0.82064 0.4603 0.30422 0.0
C4486 C 0.80343 0.48039 0.30734 0.0
C4487 C 0.79601 0.4857 0.30079 0.0
C4488 C 0.78572 0.48156 0.29935 0.0
C4489 C 0.78312 0.47192 0.30456 0.0
C4490 C 0.79049 0.4667 0.31117 0.0
H4491 H 0.82735 0.45466 0.3023 0.0
H4492 H 0.81362 0.45823 0.29936 0.0
H4493 H 0.8231 0.46846 0.30186 0.0
H4494 H 0.81124 0.48381 0.30844 0.0
H4495 H 0.79829 0.49316 0.29705 0.0
H4496 H 0.13223 0.60495 0.683 0.0
H4497 H 0.14047 0.59169 0.69493 0.0
H4498 H 0.17163 0.60384 0.68707 0.0
H4499 H 0.16349 0.61738 0.6754 0.0
H4500 H 0.15707 0.57525 0.69187 0.0
H4501 H 0.16918 0.60667 0.72006 0.0
H4502 H 0.15906 0.60891 0.7101 0.0
H4503 H 0.17299 0.60903 0.70637 0.0
C4504 C 0.14085 0.60487 0.68379 0.0
C4505 C 0.14713 0.61248 0.67827 0.0
C4506 C 0.14556 0.59717 0.69058 0.0
C4507 C 0.15668 0.59685 0.69208 0.0
C4508 C 0.16302 0.60402 0.68619 0.0
H4509 H 0.20239 0.56198 0.73138 0.0
H4510 H 0.19305 0.57284 0.71792 0.0
C4511 C 0.15833 0.61172 0.6794 0.0
C4512 C 0.16162 0.58943 0.70016 0.0
H4513 H 0.17598 0.58922 0.72328 0.0
C4514 C 0.16115 0.5783 0.69876 0.0
C4515 C 0.16685 0.59335 0.70927 0.0
C4516 C 0.167 0.60513 0.71165 0.0
C4517 C 0.16609 0.5711 0.706 0.0
C4518 C 0.17158 0.57508 0.71491 0.0
C4519 C 0.17187 0.58616 0.7164 0.0
C4520 C 0.17719 0.56793 0.72274 0.0
C4521 C 0.16568 0.55926 0.70397 0.0
C4522 C 0.1714 0.56157 0.72999 0.0
C4523 C 0.17673 0.55539 0.73776 0.0
C4524 C 0.18797 0.55537 0.73841 0.0
C4525 C 0.19374 0.56166 0.73103 0.0
C4526 C 0.18841 0.56792 0.72336 0.0
H4527 H 0.16225 0.55748 0.69605 0.0
H4528 H 0.17384 0.55564 0.7044 0.0
H4529 H 0.16068 0.55542 0.71024 0.0
H4530 H 0.16274 0.56153 0.72977 0.0
H4531 H 0.17203 0.55063 0.74328 0.0
H4532 H 0.1681 0.44195 0.31655 0.0
H4533 H 0.1822 0.44926 0.30517 0.0
H4534 H 0.19196 0.46947 0.3309 0.0
H4535 H 0.17788 0.46199 0.34246 0.0
H4536 H 0.18528 0.46955 0.29848 0.0
H4537 H 0.21996 0.45499 0.32215 0.0
H4538 H 0.20655 0.4503 0.32446 0.0
H4539 H 0.21046 0.46302 0.32955 0.0
C4540 C 0.17322 0.44799 0.31978 0.0
C4541 C 0.17188 0.45145 0.33037 0.0
C4542 C 0.18128 0.45213 0.31328 0.0
C4543 C 0.18819 0.45981 0.31722 0.0
C4544 C 0.18685 0.46338 0.32778 0.0
H4545 H 0.2393 0.49481 0.28647 0.0
H4546 H 0.22543 0.48826 0.29863 0.0
C4547 C 0.1788 0.45915 0.33435 0.0
C4548 C 0.1967 0.46408 0.31015 0.0
H4549 H 0.22378 0.46621 0.30733 0.0
C4550 C 0.1937 0.46882 0.30041 0.0
C4551 C 0.20767 0.46303 0.31267 0.0
C4552 C 0.21139 0.45747 0.32272 0.0
C4553 C 0.20139 0.47261 0.29315 0.0
C4554 C 0.21233 0.47161 0.29571 0.0
C4555 C 0.21535 0.46696 0.30546 0.0
C4556 C 0.22079 0.47539 0.28837 0.0
C4557 C 0.1978 0.47775 0.28283 0.0
C4558 C 0.22282 0.47018 0.27867 0.0
C4559 C 0.23088 0.47377 0.27177 0.0
C4560 C 0.23701 0.48264 0.27446 0.0
C4561 C 0.23491 0.48781 0.28423 0.0
C4562 C 0.22692 0.48416 0.29115 0.0
H4563 H 0.18907 0.47961 0.28291 0.0
H4564 H 0.20222 0.48523 0.28127 0.0
H4565 H 0.19957 0.47222 0.27612 0.0
H4566 H 0.21822 0.4633 0.27648 0.0
H4567 H 0.23237 0.4695 0.2644 0.0
H4568 H 0.13968 0.69978 0.27531 0.0
H4569 H 0.1218 0.70558 0.2697 0.0
H4570 H 0.13271 0.73796 0.26644 0.0
H4571 H 0.15072 0.73212 0.27212 0.0
H4572 H 0.10841 0.72174 0.27952 0.0
H4573 H 0.11902 0.7304 0.23699 0.0
H4574 H 0.12741 0.72219 0.24548 0.0
H4575 H 0.1271 0.73642 0.24703 0.0
C4576 C 0.13821 0.70814 0.27345 0.0
C4577 C 0.14645 0.71554 0.27413 0.0
C4578 C 0.12806 0.71142 0.27025 0.0
C4579 C 0.12605 0.72214 0.26757 0.0
C4580 C 0.13422 0.72962 0.26838 0.0
H4581 H 0.0654 0.75028 0.24709 0.0
H4582 H 0.08399 0.74792 0.25302 0.0
C4583 C 0.1444 0.72633 0.2717 0.0
C4584 C 0.11528 0.72535 0.26408 0.0
H4585 H 0.10098 0.73293 0.2422 0.0
C4586 C 0.10677 0.72428 0.2714 0.0
C4587 C 0.11326 0.72857 0.25344 0.0
C4588 C 0.12214 0.72941 0.24522 0.0
C4589 C 0.09621 0.72624 0.26831 0.0
C4590 C 0.0942 0.72927 0.25765 0.0
C4591 C 0.10268 0.73061 0.25037 0.0
C4592 C 0.08325 0.73069 0.25382 0.0
C4593 C 0.08724 0.72493 0.27637 0.0
C4594 C 0.07693 0.72173 0.25222 0.0
C4595 C 0.06646 0.72305 0.24874 0.0
C4596 C 0.06226 0.73334 0.24692 0.0
C4597 C 0.0686 0.7423 0.24847 0.0
C4598 C 0.07913 0.74096 0.25182 0.0
H4599 H 0.09026 0.72426 0.28466 0.0
H4600 H 0.08151 0.73179 0.2759 0.0
H4601 H 0.0828 0.71758 0.27456 0.0
H4602 H 0.08009 0.71375 0.25373 0.0
H4603 H 0.06158 0.71608 0.24766 0.0
H4604 H 0.84411 0.57221 0.35213 0.0
H4605 H 0.83183 0.56063 0.34278 0.0
H4606 H 0.82888 0.5841 0.31756 0.0
H4607 H 0.8411 0.59573 0.32684 0.0
H4608 H 0.81097 0.56585 0.33845 0.0
H4609 H 0.83308 0.55673 0.30089 0.0
H4610 H 0.83955 0.56195 0.3125 0.0
H4611 H 0.83233 0.57076 0.30363 0.0
C4612 C 0.84097 0.57484 0.34451 0.0
C4613 C 0.84356 0.58492 0.34025 0.0
C4614 C 0.83397 0.56821 0.33919 0.0
C4615 C 0.82951 0.57148 0.32946 0.0
C4616 C 0.83241 0.58133 0.32496 0.0
H4617 H 0.77975 0.5529 0.28762 0.0
H4618 H 0.79316 0.56212 0.29801 0.0
C4619 C 0.83942 0.58796 0.33027 0.0
C4620 C 0.82117 0.56504 0.32445 0.0
H4621 H 0.81431 0.5535 0.301 0.0
C4622 C 0.81174 0.56303 0.33031 0.0
C4623 C 0.82222 0.56136 0.31384 0.0
C4624 C 0.83238 0.56271 0.30738 0.0
C4625 C 0.80316 0.55777 0.32568 0.0
C4626 C 0.8041 0.55444 0.31497 0.0
C4627 C 0.81361 0.5562 0.3092 0.0
C4628 C 0.79529 0.54924 0.30945 0.0
C4629 C 0.79302 0.55614 0.33213 0.0
C4630 C 0.79202 0.53902 0.31255 0.0
C4631 C 0.78439 0.53373 0.30663 0.0
C4632 C 0.78001 0.53859 0.29748 0.0
C4633 C 0.7831 0.54894 0.29457 0.0
C4634 C 0.7907 0.55422 0.30051 0.0
H4635 H 0.79289 0.56085 0.33961 0.0
H4636 H 0.78589 0.5584 0.32736 0.0
H4637 H 0.79239 0.54757 0.33432 0.0
H4638 H 0.79563 0.53498 0.31932 0.0
H4639 H 0.78224 0.52569 0.30896 0.0
H4640 H 0.92507 0.36635 0.33647 0.0
H4641 H 0.93891 0.35806 0.32516 0.0
H4642 H 0.95084 0.34026 0.35217 0.0
H4643 H 0.93766 0.34898 0.36373 0.0
H4644 H 0.96301 0.35605 0.3277 0.0
H4645 H 0.94137 0.31763 0.32925 0.0
H4646 H 0.93508 0.33016 0.33303 0.0
H4647 H 0.94424 0.32353 0.34192 0.0
C4648 C 0.93075 0.36089 0.34014 0.0
C4649 C 0.9299 0.35819 0.35109 0.0
C4650 C 0.93864 0.35609 0.3336 0.0
C4651 C 0.94572 0.34837 0.33779 0.0
C4652 C 0.9453 0.34604 0.34873 0.0
H4653 H 0.9894 0.30141 0.31073 0.0
H4654 H 0.97777 0.31223 0.32204 0.0
C4655 C 0.9376 0.35098 0.35532 0.0
C4656 C 0.95323 0.34236 0.33069 0.0
H4657 H 0.95809 0.31759 0.32034 0.0
C4658 C 0.96195 0.34765 0.32604 0.0
C4659 C 0.95186 0.33139 0.32864 0.0
C4660 C 0.9426 0.32532 0.33339 0.0
C4661 C 0.96947 0.34219 0.31954 0.0
C4662 C 0.968 0.33122 0.31734 0.0
C4663 C 0.95923 0.32598 0.32199 0.0
C4664 C 0.97551 0.32493 0.31042 0.0
C4665 C 0.97911 0.34815 0.31545 0.0
C4666 C 0.97813 0.32838 0.30004 0.0
C4667 C 0.98527 0.32243 0.29366 0.0
C4668 C 0.98966 0.31265 0.29735 0.0
C4669 C 0.98661 0.30903 0.30762 0.0
C4670 C 0.97977 0.31516 0.31411 0.0
H4671 H 0.98074 0.35521 0.32045 0.0
H4672 H 0.98638 0.34292 0.31528 0.0
H4673 H 0.97757 0.35107 0.30722 0.0
H4674 H 0.97467 0.33568 0.29683 0.0
H4675 H 0.98741 0.32566 0.2859 0.0
H4676 H 0.83669 0.41554 0.6849 0.0
H4677 H 0.83041 0.43084 0.69544 0.0
H4678 H 0.8443 0.41681 0.72363 0.0
H4679 H 0.85013 0.40129 0.71344 0.0
H4680 H 0.81668 0.4314 0.71415 0.0
H4681 H 0.85693 0.44712 0.72266 0.0
H4682 H 0.85464 0.43782 0.71202 0.0
H4683 H 0.8553 0.43318 0.7256 0.0
C4684 C 0.83834 0.41557 0.69336 0.0
C4685 C 0.84409 0.40703 0.69816 0.0
C4686 C 0.83479 0.42443 0.69937 0.0
C4687 C 0.83703 0.4251 0.71032 0.0
C4688 C 0.84266 0.41662 0.71516 0.0
H4689 H 0.82074 0.47065 0.76094 0.0
H4690 H 0.82641 0.45495 0.75076 0.0
C4691 C 0.84608 0.40772 0.70922 0.0
C4692 C 0.83332 0.43454 0.71674 0.0
H4693 H 0.84225 0.45519 0.73181 0.0
C4694 C 0.82228 0.43662 0.71796 0.0
C4695 C 0.8406 0.44137 0.72178 0.0
C4696 C 0.85254 0.43986 0.72041 0.0
C4697 C 0.81836 0.44524 0.72415 0.0
C4698 C 0.82565 0.45203 0.72918 0.0
C4699 C 0.83667 0.44995 0.728 0.0
C4700 C 0.822 0.46155 0.73542 0.0
C4701 C 0.80644 0.44697 0.72543 0.0
C4702 C 0.81775 0.47057 0.73018 0.0
C4703 C 0.8148 0.47974 0.73593 0.0
C4704 C 0.81581 0.48011 0.74714 0.0
C4705 C 0.81996 0.47092 0.75235 0.0
C4706 C 0.82313 0.46182 0.74655 0.0
H4707 H 0.80187 0.44013 0.7224 0.0
H4708 H 0.8043 0.44823 0.73397 0.0
H4709 H 0.80397 0.45426 0.72095 0.0
H4710 H 0.81695 0.47061 0.72158 0.0
H4711 H 0.81197 0.48662 0.73144 0.0
H4712 H 0.08449 0.33333 0.68246 0.0
H4713 H 0.07115 0.32075 0.689 0.0
H4714 H 0.08743 0.31835 0.71912 0.0
H4715 H 0.10087 0.33082 0.71262 0.0
H4716 H 0.07534 0.3 0.69548 0.0
H4717 H 0.05634 0.32354 0.72815 0.0
H4718 H 0.06452 0.32954 0.71781 0.0
H4719 H 0.07066 0.32282 0.72897 0.0
C4720 C 0.0852 0.33014 0.69049 0.0
C4721 C 0.09371 0.33301 0.69704 0.0
C4722 C 0.07756 0.32302 0.69421 0.0
C4723 C 0.07828 0.31879 0.70456 0.0
C4724 C 0.08665 0.32177 0.71119 0.0
H4725 H 0.05316 0.26998 0.74317 0.0
H4726 H 0.06364 0.28323 0.73342 0.0
C4727 C 0.0943 0.32887 0.70747 0.0
C4728 C 0.07069 0.3107 0.70819 0.0
H4729 H 0.05328 0.30471 0.72839 0.0
C4730 C 0.07037 0.30106 0.70257 0.0
C4731 C 0.06423 0.31221 0.7174 0.0
C4732 C 0.06386 0.32263 0.72338 0.0
C4733 C 0.06408 0.29264 0.70626 0.0
C4734 C 0.05803 0.29401 0.71574 0.0
C4735 C 0.05804 0.30376 0.72113 0.0
C4736 C 0.05222 0.28519 0.7207 0.0
C4737 C 0.06425 0.28221 0.70032 0.0
C4738 C 0.04248 0.28187 0.71656 0.0
C4739 C 0.03643 0.27436 0.72215 0.0
C4740 C 0.04008 0.27023 0.73193 0.0
C4741 C 0.05008 0.27325 0.73576 0.0
C4742 C 0.05609 0.28072 0.73019 0.0
H4743 H 0.06999 0.28223 0.69347 0.0
H4744 H 0.06643 0.27555 0.70583 0.0
H4745 H 0.05613 0.28065 0.69727 0.0
H4746 H 0.03941 0.28536 0.70925 0.0
H4747 H 0.02873 0.27213 0.71907 0.0
H4748 H 0.90946 0.76685 0.70408 0.0
H4749 H 0.92477 0.77593 0.71138 0.0
H4750 H 0.93904 0.74556 0.72015 0.0
H4751 H 0.92391 0.73631 0.71233 0.0
H4752 H 0.9324 0.77601 0.73142 0.0
H4753 H 0.96321 0.75959 0.70339 0.0
H4754 H 0.94904 0.75855 0.70107 0.0
H4755 H 0.9556 0.74959 0.71029 0.0
C4756 C 0.9159 0.76206 0.70745 0.0
C4757 C 0.91554 0.75084 0.70745 0.0
C4758 C 0.92461 0.76728 0.71168 0.0
C4759 C 0.93314 0.76141 0.71608 0.0
C4760 C 0.93265 0.75022 0.71652 0.0
H4761 H 0.99024 0.77773 0.7489 0.0
H4762 H 0.97498 0.76915 0.74071 0.0
C4763 C 0.92393 0.74496 0.7122 0.0
C4764 C 0.94239 0.76711 0.72037 0.0
H4765 H 0.96946 0.76965 0.71794 0.0
C4766 C 0.9405 0.77466 0.72844 0.0
C4767 C 0.95292 0.76541 0.71636 0.0
C4768 C 0.95534 0.75793 0.70723 0.0
C4769 C 0.94891 0.78035 0.73282 0.0
C4770 C 0.95943 0.77844 0.72898 0.0
C4771 C 0.96134 0.77102 0.72084 0.0
C4772 C 0.96864 0.78373 0.73368 0.0
C4773 C 0.94654 0.78817 0.74169 0.0
C4774 C 0.97011 0.79473 0.73228 0.0
C4775 C 0.9788 0.79965 0.73695 0.0
C4776 C 0.98608 0.79361 0.74309 0.0
C4777 C 0.98464 0.78258 0.74433 0.0
C4778 C 0.976 0.77767 0.73963 0.0
H4779 H 0.93823 0.7875 0.74485 0.0
H4780 H 0.9522 0.78687 0.74836 0.0
H4781 H 0.94761 0.79643 0.73862 0.0
H4782 H 0.96454 0.79948 0.7276 0.0
H4783 H 0.97974 0.80818 0.73591 0.0
H4784 H 0.68212 0.22338 0.62147 0.0
H4785 H 0.69256 0.2334 0.60819 0.0
H4786 H 0.69453 0.20554 0.58819 0.0
H4787 H 0.68375 0.19566 0.6011 0.0
H4788 H 0.71349 0.22791 0.60118 0.0
H4789 H 0.6851 0.22897 0.56746 0.0
H4790 H 0.68093 0.22612 0.58104 0.0
H4791 H 0.68724 0.21587 0.57304 0.0
C4792 C 0.68454 0.21949 0.61412 0.0
C4793 C 0.68213 0.20872 0.61234 0.0
C4794 C 0.69058 0.22518 0.60661 0.0
C4795 C 0.69421 0.22021 0.59721 0.0
C4796 C 0.69164 0.20956 0.59532 0.0
H4797 H 0.73739 0.23162 0.54519 0.0
H4798 H 0.72621 0.2242 0.55957 0.0
C4799 C 0.68557 0.2039 0.60276 0.0
C4800 C 0.70113 0.22592 0.58955 0.0
H4801 H 0.70324 0.23314 0.56332 0.0
C4802 C 0.71121 0.2292 0.59294 0.0
C4803 C 0.69811 0.22751 0.57881 0.0
C4804 C 0.68721 0.22453 0.57487 0.0
C4805 C 0.71851 0.23377 0.58572 0.0
C4806 C 0.71554 0.2351 0.57497 0.0
C4807 C 0.70542 0.23202 0.57162 0.0
C4808 C 0.72293 0.23949 0.56696 0.0
C4809 C 0.72943 0.23686 0.58948 0.0
C4810 C 0.72472 0.25049 0.56652 0.0
C4811 C 0.73103 0.25473 0.55832 0.0
C4812 C 0.73565 0.24797 0.5506 0.0
C4813 C 0.73404 0.23692 0.55122 0.0
C4814 C 0.72764 0.23271 0.55933 0.0
H4815 H 0.73089 0.2343 0.59785 0.0
H4816 H 0.73574 0.23326 0.58423 0.0
H4817 H 0.73019 0.24567 0.58895 0.0
H4818 H 0.72102 0.25579 0.57233 0.0
H4819 H 0.73215 0.26328 0.55788 0.0
H4820 H 0.32926 0.2274 0.60726 0.0
H4821 H 0.31722 0.23646 0.59481 0.0
H4822 H 0.34429 0.2465 0.57579 0.0
H4823 H 0.35649 0.23731 0.58831 0.0
H4824 H 0.31674 0.2583 0.58938 0.0
H4825 H 0.32396 0.23271 0.55384 0.0
H4826 H 0.32757 0.22853 0.56717 0.0
H4827 H 0.33575 0.23784 0.55994 0.0
C4828 C 0.33268 0.2315 0.60041 0.0
C4829 C 0.34384 0.2316 0.59875 0.0
C4830 C 0.32577 0.23669 0.5933 0.0
C4831 C 0.32982 0.24203 0.58429 0.0
C4832 C 0.34098 0.24227 0.58261 0.0
H4833 H 0.2996 0.28089 0.5352 0.0
H4834 H 0.31207 0.27125 0.54692 0.0
C4835 C 0.34794 0.23713 0.58982 0.0
C4836 C 0.3223 0.24768 0.57697 0.0
H4837 H 0.3128 0.24797 0.55149 0.0
C4838 C 0.31587 0.25603 0.5811 0.0
C4839 C 0.3211 0.24465 0.56619 0.0
C4840 C 0.32738 0.23538 0.5615 0.0
C4841 C 0.30843 0.26155 0.57469 0.0
C4842 C 0.30731 0.25858 0.56391 0.0
C4843 C 0.3137 0.25023 0.55977 0.0
C4844 C 0.29968 0.26422 0.55677 0.0
C4845 C 0.30195 0.27066 0.57944 0.0
C4846 C 0.28859 0.26335 0.55839 0.0
C4847 C 0.28145 0.26881 0.55168 0.0
C4848 C 0.28531 0.27528 0.54331 0.0
C4849 C 0.29642 0.27607 0.54168 0.0
C4850 C 0.30354 0.27053 0.54832 0.0
H4851 H 0.30507 0.27315 0.58728 0.0
H4852 H 0.30192 0.27766 0.57393 0.0
H4853 H 0.29354 0.26815 0.58061 0.0
H4854 H 0.28547 0.25844 0.56483 0.0
H4855 H 0.27293 0.26809 0.55311 0.0
H4856 H 0.31058 0.81895 0.61476 0.0
H4857 H 0.30167 0.81073 0.59984 0.0
H4858 H 0.33192 0.79801 0.58837 0.0
H4859 H 0.34106 0.80652 0.60318 0.0
H4860 H 0.30465 0.81385 0.57797 0.0
H4861 H 0.31289 0.77163 0.58945 0.0
H4862 H 0.31446 0.78256 0.59857 0.0
H4863 H 0.32455 0.77979 0.58857 0.0
C4864 C 0.31544 0.81453 0.60904 0.0
C4865 C 0.32664 0.81353 0.61023 0.0
C4866 C 0.31027 0.80975 0.60051 0.0
C4867 C 0.31608 0.80366 0.59301 0.0
C4868 C 0.32722 0.80252 0.59416 0.0
H4869 H 0.29838 0.77287 0.53391 0.0
H4870 H 0.30779 0.78077 0.54875 0.0
C4871 C 0.33244 0.80738 0.60268 0.0
C4872 C 0.31042 0.79867 0.58394 0.0
H4873 H 0.30493 0.77464 0.57259 0.0
C4874 C 0.3047 0.80528 0.57681 0.0
C4875 C 0.31039 0.78747 0.58247 0.0
C4876 C 0.31581 0.77991 0.59021 0.0
C4877 C 0.29914 0.801 0.56818 0.0
C4878 C 0.29925 0.78984 0.56665 0.0
C4879 C 0.30493 0.78322 0.57376 0.0
C4880 C 0.29345 0.78489 0.55773 0.0
C4881 C 0.29329 0.80843 0.56062 0.0
C4882 C 0.28224 0.78445 0.55792 0.0
C4883 C 0.27679 0.77966 0.54957 0.0
C4884 C 0.28241 0.7753 0.54074 0.0
C4885 C 0.29369 0.77586 0.54061 0.0
C4886 C 0.29913 0.78049 0.54905 0.0
H4887 H 0.29517 0.81694 0.56203 0.0
H4888 H 0.29539 0.80643 0.55222 0.0
H4889 H 0.28454 0.80742 0.56168 0.0
H4890 H 0.27771 0.78771 0.56461 0.0
H4891 H 0.26816 0.77924 0.55017 0.0
H4892 H 0.6719 0.83152 0.57426 0.0
H4893 H 0.68581 0.82447 0.562 0.0
H4894 H 0.70956 0.82857 0.58621 0.0
H4895 H 0.69577 0.83558 0.59846 0.0
H4896 H 0.70697 0.83504 0.55565 0.0
H4897 H 0.71113 0.79602 0.57688 0.0
H4898 H 0.69906 0.80415 0.57762 0.0
H4899 H 0.7106 0.80779 0.58504 0.0
C4900 C 0.6801 0.83092 0.57694 0.0
C4901 C 0.68276 0.83413 0.58731 0.0
C4902 C 0.68802 0.82694 0.56994 0.0
C4903 C 0.69868 0.82595 0.57325 0.0
C4904 C 0.70136 0.82923 0.58354 0.0
H4905 H 0.75841 0.79978 0.54778 0.0
H4906 H 0.74428 0.80857 0.55862 0.0
C4907 C 0.69349 0.8333 0.59049 0.0
C4908 C 0.70705 0.82131 0.56608 0.0
H4909 H 0.7238 0.79965 0.56325 0.0
C4910 C 0.71061 0.82727 0.55724 0.0
C4911 C 0.71179 0.8112 0.56823 0.0
C4912 C 0.70794 0.80434 0.57741 0.0
C4913 C 0.719 0.82347 0.5506 0.0
C4914 C 0.72381 0.81339 0.55282 0.0
C4915 C 0.72015 0.8074 0.56162 0.0
C4916 C 0.73255 0.8088 0.54604 0.0
C4917 C 0.72288 0.83037 0.54148 0.0
C4918 C 0.73064 0.806 0.53541 0.0
C4919 C 0.73866 0.80097 0.52927 0.0
C4920 C 0.74872 0.79867 0.53367 0.0
C4921 C 0.75071 0.80156 0.54424 0.0
C4922 C 0.74266 0.80655 0.55041 0.0
H4923 H 0.71975 0.83871 0.54208 0.0
H4924 H 0.73176 0.83049 0.54123 0.0
H4925 H 0.72014 0.82702 0.53382 0.0
H4926 H 0.72285 0.80745 0.53195 0.0
H4927 H 0.73698 0.79871 0.52114 0.0
H4928 H 0.68694 0.86096 0.43163 0.0
H4929 H 0.69553 0.8491 0.4449 0.0
H4930 H 0.72362 0.84658 0.42463 0.0
H4931 H 0.71525 0.85845 0.41159 0.0
H4932 H 0.70309 0.82877 0.44393 0.0
H4933 H 0.737 0.85511 0.45204 0.0
H4934 H 0.72538 0.85971 0.4448 0.0
H4935 H 0.73606 0.85247 0.43805 0.0
C4936 C 0.69493 0.85783 0.43003 0.0
C4937 C 0.70049 0.86078 0.42064 0.0
C4938 C 0.69985 0.85111 0.43762 0.0
C4939 C 0.71036 0.84722 0.43592 0.0
C4940 C 0.71568 0.8498 0.42634 0.0
H4941 H 0.75687 0.80346 0.45988 0.0
H4942 H 0.74488 0.81528 0.4498 0.0
C4943 C 0.71085 0.85654 0.41885 0.0
C4944 C 0.71577 0.8402 0.44388 0.0
H4945 H 0.73941 0.83665 0.45692 0.0
C4946 C 0.71095 0.83057 0.44693 0.0
C4947 C 0.72601 0.84258 0.44787 0.0
C4948 C 0.73135 0.85309 0.44561 0.0
C4949 C 0.71635 0.82301 0.45334 0.0
C4950 C 0.7268 0.82519 0.45679 0.0
C4951 C 0.73144 0.83497 0.45413 0.0
C4952 C 0.73336 0.81727 0.46271 0.0
C4953 C 0.71109 0.81256 0.456 0.0
C4954 C 0.73076 0.8144 0.47327 0.0
C4955 C 0.73762 0.80766 0.47908 0.0
C4956 C 0.74722 0.80382 0.47441 0.0
C4957 C 0.74962 0.80647 0.46373 0.0
C4958 C 0.74276 0.81316 0.45795 0.0
H4959 H 0.70356 0.81152 0.45154 0.0
H4960 H 0.71664 0.80577 0.45418 0.0
H4961 H 0.70918 0.81225 0.46468 0.0
H4962 H 0.72361 0.81763 0.47712 0.0
H4963 H 0.73563 0.80578 0.48731 0.0
H4964 H 0.68146 0.20552 0.38836 0.0
H4965 H 0.69192 0.21376 0.40225 0.0
H4966 H 0.69963 0.18265 0.41533 0.0
H4967 H 0.68905 0.17429 0.40136 0.0
H4968 H 0.68822 0.2126 0.42393 0.0
H4969 H 0.72889 0.19689 0.41359 0.0
H4970 H 0.71787 0.19648 0.40443 0.0
H4971 H 0.71879 0.18694 0.41518 0.0
C4972 C 0.68537 0.2004 0.39418 0.0
C4973 C 0.68431 0.18924 0.39381 0.0
C4974 C 0.69139 0.20513 0.4021 0.0
C4975 C 0.6966 0.19885 0.40982 0.0
C4976 C 0.69581 0.18767 0.40936 0.0
H4977 H 0.73038 0.21738 0.4671 0.0
H4978 H 0.72114 0.20762 0.45329 0.0
C4979 C 0.68976 0.18289 0.40138 0.0
C4980 C 0.70244 0.20416 0.41854 0.0
H4981 H 0.72716 0.20698 0.42945 0.0
C4982 C 0.69674 0.21136 0.42513 0.0
C4983 C 0.71355 0.20258 0.42008 0.0
C4984 C 0.72019 0.19538 0.4129 0.0
C4985 C 0.70184 0.21699 0.43322 0.0
C4986 C 0.71294 0.21541 0.43475 0.0
C4987 C 0.71864 0.20814 0.42826 0.0
C4988 C 0.71877 0.22135 0.44299 0.0
C4989 C 0.69534 0.22455 0.44014 0.0
C4990 C 0.72063 0.2323 0.4417 0.0
C4991 C 0.72615 0.2379 0.44946 0.0
C4992 C 0.72985 0.2327 0.45879 0.0
C4993 C 0.7279 0.22169 0.46 0.0
C4994 C 0.72252 0.21608 0.45214 0.0
H4995 H 0.6866 0.22367 0.43902 0.0
H4996 H 0.6972 0.22318 0.44869 0.0
H4997 H 0.69747 0.2329 0.43811 0.0
H4998 H 0.71789 0.23649 0.43462 0.0
H4999 H 0.72765 0.24627 0.44803 0.0
H5000 H 0.33292 0.2144 0.42235 0.0
H5001 H 0.32601 0.22715 0.43533 0.0
H5002 H 0.30469 0.20341 0.44813 0.0
H5003 H 0.31204 0.19028 0.43539 0.0
H5004 H 0.30621 0.2349 0.43727 0.0
H5005 H 0.31758 0.21474 0.47519 0.0
H5006 H 0.32286 0.21052 0.46239 0.0
H5007 H 0.30964 0.20674 0.46663 0.0
C5008 C 0.32693 0.21175 0.42805 0.0
C5009 C 0.32319 0.20121 0.42792 0.0
C5010 C 0.32292 0.21911 0.43544 0.0
C5011 C 0.31498 0.2162 0.44284 0.0
C5012 C 0.31103 0.20576 0.44266 0.0
H5013 H 0.27684 0.24964 0.48942 0.0
H5014 H 0.28631 0.23686 0.47806 0.0
C5015 C 0.31512 0.19831 0.43528 0.0
C5016 C 0.31052 0.22438 0.45027 0.0
H5017 H 0.30641 0.23016 0.47661 0.0
C5018 C 0.30629 0.23389 0.44588 0.0
C5019 C 0.3107 0.22307 0.4615 0.0
C5020 C 0.31553 0.21326 0.46673 0.0
C5021 C 0.30196 0.24199 0.45237 0.0
C5022 C 0.30203 0.24062 0.4636 0.0
C5023 C 0.30639 0.23119 0.468 0.0
C5024 C 0.29688 0.24848 0.47089 0.0
C5025 C 0.29702 0.25174 0.4471 0.0
C5026 C 0.29986 0.25924 0.47084 0.0
C5027 C 0.29424 0.26666 0.47713 0.0
C5028 C 0.28568 0.26338 0.48373 0.0
C5029 C 0.28319 0.25249 0.48422 0.0
C5030 C 0.28867 0.24514 0.47781 0.0
H5031 H 0.29524 0.25032 0.43856 0.0
H5032 H 0.28948 0.25424 0.45124 0.0
H5033 H 0.3027 0.25843 0.44743 0.0
H5034 H 0.30639 0.26193 0.46579 0.0
H5035 H 0.29635 0.275 0.47655 0.0
H5036 H 0.3516 0.84408 0.4335 0.0
H5037 H 0.34025 0.83166 0.44338 0.0
H5038 H 0.34367 0.85037 0.47188 0.0
H5039 H 0.35457 0.86317 0.46177 0.0
H5040 H 0.34338 0.8189 0.45921 0.0
H5041 H 0.31232 0.84813 0.47301 0.0
H5042 H 0.32268 0.85176 0.46358 0.0
H5043 H 0.32553 0.85074 0.47761 0.0
C5044 C 0.34998 0.84551 0.44189 0.0
C5045 C 0.35399 0.85461 0.44684 0.0
C5046 C 0.34344 0.83842 0.44755 0.0
C5047 C 0.34081 0.84012 0.45838 0.0
C5048 C 0.34518 0.849 0.46347 0.0
H5049 H 0.29842 0.80107 0.49962 0.0
H5050 H 0.31118 0.8145 0.49321 0.0
C5051 C 0.35155 0.85626 0.45772 0.0
C5052 C 0.33369 0.8324 0.46418 0.0
H5053 H 0.31017 0.83022 0.47838 0.0
C5054 C 0.33612 0.82143 0.46338 0.0
C5055 C 0.32427 0.8356 0.46987 0.0
C5056 C 0.32098 0.84719 0.47102 0.0
C5057 C 0.32936 0.81363 0.46778 0.0
C5058 C 0.31972 0.8168 0.47302 0.0
C5059 C 0.31748 0.82776 0.47426 0.0
C5060 C 0.31173 0.80884 0.47692 0.0
C5061 C 0.33273 0.80204 0.46684 0.0
C5062 C 0.30755 0.80132 0.46989 0.0
C5063 C 0.30041 0.79357 0.47357 0.0
C5064 C 0.29707 0.79329 0.48434 0.0
C5065 C 0.30089 0.80107 0.49129 0.0
C5066 C 0.30817 0.80874 0.48763 0.0
H5067 H 0.34154 0.80113 0.4658 0.0
H5068 H 0.33022 0.79738 0.474 0.0
H5069 H 0.32895 0.79858 0.45972 0.0
H5070 H 0.30982 0.80142 0.46152 0.0
H5071 H 0.29742 0.78782 0.46797 0.0
H5072 H 0.61256 0.22333 0.70246 0.0
H5073 H 0.59925 0.23499 0.71145 0.0
H5074 H 0.58186 0.23821 0.68204 0.0
H5075 H 0.59494 0.22651 0.67313 0.0
H5076 H 0.59456 0.25663 0.70431 0.0
H5077 H 0.55855 0.23119 0.7045 0.0
H5078 H 0.57199 0.22575 0.70322 0.0
H5079 H 0.56562 0.23196 0.69193 0.0
C5080 C 0.60574 0.22633 0.69803 0.0
C5081 C 0.60474 0.22406 0.68712 0.0
C5082 C 0.59822 0.23302 0.70312 0.0
C5083 C 0.58958 0.23735 0.69739 0.0
C5084 C 0.5884 0.2348 0.68661 0.0
H5085 H 0.54057 0.28597 0.70827 0.0
H5086 H 0.5531 0.27281 0.70027 0.0
C5087 C 0.59589 0.22818 0.68153 0.0
C5088 C 0.58213 0.24512 0.70238 0.0
H5089 H 0.55577 0.24952 0.70855 0.0
C5090 C 0.5861 0.25506 0.70536 0.0
C5091 C 0.5711 0.24304 0.70356 0.0
C5092 C 0.56654 0.23238 0.70072 0.0
C5093 C 0.57923 0.26306 0.70939 0.0
C5094 C 0.56822 0.26095 0.71053 0.0
C5095 C 0.56425 0.25104 0.70758 0.0
C5096 C 0.56076 0.26883 0.71521 0.0
C5097 C 0.5837 0.27376 0.71225 0.0
C5098 C 0.56098 0.27074 0.7262 0.0
C5099 C 0.55382 0.27808 0.73075 0.0
C5100 C 0.54643 0.28362 0.72433 0.0
C5101 C 0.54624 0.28174 0.71331 0.0
C5102 C 0.55334 0.27428 0.70878 0.0
H5103 H 0.59206 0.27468 0.70931 0.0
H5104 H 0.57865 0.28032 0.70887 0.0
H5105 H 0.5836 0.27462 0.72106 0.0
H5106 H 0.56666 0.26653 0.73124 0.0
H5107 H 0.55415 0.27955 0.73925 0.0
H5108 H 0.38315 0.14219 0.68169 0.0
H5109 H 0.37693 0.12667 0.69135 0.0
H5110 H 0.34635 0.12958 0.67614 0.0
H5111 H 0.35204 0.14588 0.66705 0.0
H5112 H 0.35733 0.12633 0.70558 0.0
H5113 H 0.35767 0.0972 0.67233 0.0
H5114 H 0.36549 0.1092 0.67197 0.0
H5115 H 0.35135 0.10998 0.66974 0.0
C5116 C 0.37496 0.13989 0.68049 0.0
C5117 C 0.36806 0.14583 0.6737 0.0
C5118 C 0.37149 0.13078 0.68597 0.0
C5119 C 0.36117 0.12696 0.68453 0.0
C5120 C 0.35438 0.13238 0.67738 0.0
H5121 H 0.3245 0.07411 0.70873 0.0
H5122 H 0.33209 0.08914 0.69911 0.0
C5123 C 0.35773 0.14174 0.67209 0.0
C5124 C 0.35743 0.11757 0.69088 0.0
H5125 H 0.35036 0.09144 0.68882 0.0
C5126 C 0.35582 0.11868 0.70194 0.0
C5127 C 0.35558 0.10758 0.68615 0.0
C5128 C 0.35767 0.10581 0.67441 0.0
C5129 C 0.35201 0.11021 0.70832 0.0
C5130 C 0.34998 0.10022 0.70356 0.0
C5131 C 0.35183 0.09907 0.69251 0.0
C5132 C 0.34544 0.09103 0.70971 0.0
C5133 C 0.34985 0.1122 0.72003 0.0
C5134 C 0.35041 0.08691 0.71891 0.0
C5135 C 0.34585 0.07846 0.72472 0.0
C5136 C 0.33633 0.07371 0.72133 0.0
C5137 C 0.33162 0.07766 0.71188 0.0
C5138 C 0.33605 0.08622 0.70623 0.0
H5139 H 0.34909 0.12086 0.72178 0.0
H5140 H 0.34241 0.10824 0.72277 0.0
H5141 H 0.35662 0.10892 0.72475 0.0
H5142 H 0.35782 0.09021 0.72164 0.0
H5143 H 0.34975 0.07578 0.73195 0.0
H5144 H 0.41588 0.81761 0.69618 0.0
H5145 H 0.43032 0.80705 0.70446 0.0
H5146 H 0.41749 0.77831 0.69148 0.0
H5147 H 0.40288 0.78858 0.6836 0.0
H5148 H 0.42935 0.78919 0.71924 0.0
H5149 H 0.44898 0.77767 0.68088 0.0
H5150 H 0.43942 0.78861 0.68188 0.0
H5151 H 0.4349 0.77507 0.68171 0.0
C5152 C 0.41602 0.80904 0.69517 0.0
C5153 C 0.40819 0.80407 0.68899 0.0
C5154 C 0.42435 0.803 0.69987 0.0
C5155 C 0.42515 0.79189 0.69841 0.0
C5156 C 0.41724 0.78689 0.6925 0.0
H5157 H 0.46801 0.74069 0.72029 0.0
H5158 H 0.45322 0.75115 0.71308 0.0
C5159 C 0.40887 0.79285 0.68793 0.0
C5160 C 0.43414 0.78545 0.7031 0.0
H5161 H 0.45539 0.76905 0.69651 0.0
C5162 C 0.43509 0.78485 0.71426 0.0
C5163 C 0.4416 0.7797 0.69663 0.0
C5164 C 0.44128 0.78033 0.68461 0.0
C5165 C 0.44319 0.77857 0.71909 0.0
C5166 C 0.45062 0.77284 0.71261 0.0
C5167 C 0.44967 0.77341 0.70147 0.0
C5168 C 0.45964 0.76644 0.71723 0.0
C5169 C 0.44366 0.77793 0.7311 0.0
C5170 C 0.46831 0.77153 0.72183 0.0
C5171 C 0.47712 0.7656 0.7256 0.0
C5172 C 0.47745 0.75431 0.72512 0.0
C5173 C 0.46851 0.74928 0.72065 0.0
C5174 C 0.45984 0.75527 0.71661 0.0
H5175 H 0.43634 0.78137 0.73497 0.0
H5176 H 0.44469 0.76949 0.73375 0.0
H5177 H 0.45068 0.78239 0.73387 0.0
H5178 H 0.4684 0.78017 0.72227 0.0
H5179 H 0.48373 0.77005 0.72863 0.0
H5180 H 0.6679 0.91398 0.65878 0.0
H5181 H 0.67416 0.92793 0.67047 0.0
H5182 H 0.64994 0.91985 0.69381 0.0
H5183 H 0.64436 0.90519 0.68286 0.0
H5184 H 0.66519 0.94566 0.67895 0.0
H5185 H 0.6757 0.91787 0.71208 0.0
H5186 H 0.6724 0.91321 0.69896 0.0
H5187 H 0.66197 0.91723 0.70822 0.0
C5188 C 0.66401 0.91492 0.66649 0.0
C5189 C 0.65568 0.90812 0.6698 0.0
C5190 C 0.66753 0.92308 0.67313 0.0
C5191 C 0.66273 0.92479 0.68318 0.0
C5192 C 0.65403 0.91849 0.68626 0.0
H5193 H 0.67779 0.96705 0.73606 0.0
H5194 H 0.66891 0.95492 0.72396 0.0
C5195 C 0.65069 0.91017 0.67978 0.0
C5196 C 0.66696 0.93298 0.69054 0.0
H5197 H 0.67705 0.93628 0.71554 0.0
C5198 C 0.66781 0.9436 0.68694 0.0
C5199 C 0.67034 0.93034 0.70102 0.0
C5200 C 0.67016 0.91903 0.70528 0.0
C5201 C 0.67185 0.95161 0.69352 0.0
C5202 C 0.67533 0.94891 0.70392 0.0
C5203 C 0.67436 0.93835 0.70758 0.0
C5204 C 0.68039 0.95681 0.71103 0.0
C5205 C 0.67218 0.96293 0.68933 0.0
C5206 C 0.68984 0.96189 0.70784 0.0
C5207 C 0.69486 0.96897 0.71467 0.0
C5208 C 0.69068 0.971 0.72498 0.0
C5209 C 0.6812 0.96585 0.72816 0.0
C5210 C 0.67614 0.95883 0.72127 0.0
H5211 H 0.66665 0.9642 0.68255 0.0
H5212 H 0.67003 0.96871 0.69572 0.0
H5213 H 0.6804 0.96465 0.68644 0.0
H5214 H 0.69343 0.96028 0.70009 0.0
H5215 H 0.70202 0.97287 0.71181 0.0
H5216 H 0.61435 0.87851 0.33774 0.0
H5217 H 0.60061 0.86903 0.32787 0.0
H5218 H 0.60829 0.84008 0.34514 0.0
H5219 H 0.62221 0.8492 0.35464 0.0
H5220 H 0.60369 0.84936 0.3151 0.0
H5221 H 0.57523 0.84397 0.34908 0.0
H5222 H 0.58533 0.85413 0.34893 0.0
H5223 H 0.58893 0.84047 0.35185 0.0
C5224 C 0.61318 0.87011 0.3394 0.0
C5225 C 0.61937 0.86472 0.34717 0.0
C5226 C 0.60526 0.86473 0.33379 0.0
C5227 C 0.60329 0.8539 0.33593 0.0
C5228 C 0.60949 0.8485 0.34354 0.0
H5229 H 0.56178 0.80375 0.31691 0.0
H5230 H 0.57507 0.81502 0.32475 0.0
C5231 C 0.61744 0.85379 0.34904 0.0
C5232 C 0.59505 0.84802 0.33 0.0
H5233 H 0.57219 0.83381 0.33359 0.0
C5234 C 0.59672 0.84606 0.31908 0.0
C5235 C 0.58604 0.84363 0.33526 0.0
C5236 C 0.58368 0.8457 0.34691 0.0
C5237 C 0.58983 0.8395 0.31336 0.0
C5238 C 0.58086 0.83501 0.31866 0.0
C5239 C 0.57908 0.83719 0.32953 0.0
C5240 C 0.5733 0.82786 0.31321 0.0
C5241 C 0.59251 0.83708 0.30184 0.0
C5242 C 0.5679 0.8312 0.30399 0.0
C5243 C 0.56055 0.82454 0.29915 0.0
C5244 C 0.5581 0.81448 0.30362 0.0
C5245 C 0.5635 0.81123 0.31295 0.0
C5246 C 0.57106 0.81778 0.3176 0.0
H5247 H 0.60104 0.83867 0.29989 0.0
H5248 H 0.59087 0.82862 0.29996 0.0
H5249 H 0.58753 0.84227 0.29659 0.0
H5250 H 0.56924 0.83904 0.30059 0.0
H5251 H 0.55686 0.82736 0.29187 0.0
H5252 H 0.686 0.11543 0.30351 0.0
H5253 H 0.69629 0.10085 0.29491 0.0
H5254 H 0.71194 0.09391 0.32474 0.0
H5255 H 0.7014 0.10787 0.33342 0.0
H5256 H 0.71836 0.09932 0.29307 0.0
H5257 H 0.70302 0.0647 0.31602 0.0
H5258 H 0.69629 0.07758 0.3161 0.0
H5259 H 0.70764 0.07503 0.32453 0.0
C5260 C 0.69145 0.1106 0.30825 0.0
C5261 C 0.69296 0.11282 0.31911 0.0
C5262 C 0.69736 0.10236 0.30334 0.0
C5263 C 0.70473 0.09624 0.30926 0.0
C5264 C 0.70611 0.09837 0.3201 0.0
H5265 H 0.75511 0.0502 0.30159 0.0
H5266 H 0.74171 0.0633 0.30766 0.0
C5267 C 0.70018 0.10646 0.325 0.0
C5268 C 0.71151 0.08799 0.30413 0.0
H5269 H 0.71979 0.06206 0.30684 0.0
C5270 C 0.71856 0.09112 0.29592 0.0
C5271 C 0.71181 0.07735 0.308 0.0
C5272 C 0.7042 0.07345 0.31658 0.0
C5273 C 0.72624 0.08395 0.29177 0.0
C5274 C 0.72664 0.0734 0.29582 0.0
C5275 C 0.71943 0.0702 0.30382 0.0
C5276 C 0.73467 0.06555 0.29209 0.0
C5277 C 0.73413 0.08785 0.28344 0.0
C5278 C 0.73494 0.06244 0.28139 0.0
C5279 C 0.7427 0.05516 0.27785 0.0
C5280 C 0.75014 0.05071 0.28504 0.0
C5281 C 0.74959 0.05361 0.29584 0.0
C5282 C 0.74192 0.06102 0.29933 0.0
H5283 H 0.73436 0.09671 0.28308 0.0
H5284 H 0.74232 0.08471 0.28507 0.0
H5285 H 0.73176 0.08497 0.27547 0.0
H5286 H 0.72922 0.0657 0.27576 0.0
H5287 H 0.74303 0.05326 0.26943 0.0
H5288 H 0.38567 0.20018 0.34243 0.0
H5289 H 0.39923 0.20817 0.33066 0.0
H5290 H 0.41789 0.17893 0.33171 0.0
H5291 H 0.40452 0.17094 0.3435 0.0
H5292 H 0.42062 0.21193 0.33228 0.0
H5293 H 0.41461 0.18273 0.29991 0.0
H5294 H 0.40568 0.18376 0.31131 0.0
H5295 H 0.4183 0.17671 0.3124 0.0
C5296 C 0.39273 0.19549 0.34029 0.0
C5297 C 0.39382 0.1848 0.34378 0.0
C5298 C 0.40046 0.20005 0.33348 0.0
C5299 C 0.40944 0.19405 0.32997 0.0
C5300 C 0.41086 0.18362 0.33395 0.0
H5301 H 0.46318 0.20907 0.28669 0.0
H5302 H 0.45094 0.20029 0.29928 0.0
C5303 C 0.40318 0.17906 0.34074 0.0
C5304 C 0.41727 0.19866 0.32212 0.0
H5305 H 0.42882 0.19484 0.29743 0.0
C5306 C 0.42236 0.2082 0.32465 0.0
C5307 C 0.41967 0.19377 0.31216 0.0
C5308 C 0.41422 0.18373 0.30872 0.0
C5309 C 0.42977 0.21294 0.31757 0.0
C5310 C 0.43202 0.20815 0.30757 0.0
C5311 C 0.42708 0.19852 0.30508 0.0
C5312 C 0.43924 0.21323 0.29949 0.0
C5313 C 0.43526 0.22298 0.32093 0.0
C5314 C 0.43662 0.22329 0.29515 0.0
C5315 C 0.44352 0.22829 0.28785 0.0
C5316 C 0.45327 0.22336 0.28469 0.0
C5317 C 0.45573 0.21312 0.28883 0.0
C5318 C 0.44877 0.20809 0.2961 0.0
H5319 H 0.43476 0.22413 0.32971 0.0
H5320 H 0.44383 0.22279 0.31843 0.0
H5321 H 0.43134 0.22998 0.31703 0.0
H5322 H 0.42919 0.22731 0.29742 0.0
H5323 H 0.44117 0.23602 0.28465 0.0
H5324 H 0.35562 0.9525 0.38057 0.0
H5325 H 0.34221 0.96361 0.37126 0.0
H5326 H 0.32677 0.93515 0.36058 0.0
H5327 H 0.33983 0.92412 0.37014 0.0
H5328 H 0.33715 0.96543 0.35058 0.0
H5329 H 0.30152 0.95107 0.3725 0.0
H5330 H 0.31494 0.94852 0.37715 0.0
H5331 H 0.30923 0.94011 0.36717 0.0
C5332 C 0.34926 0.94864 0.37635 0.0
C5333 C 0.34866 0.93742 0.37626 0.0
C5334 C 0.34162 0.955 0.37101 0.0
C5335 C 0.33329 0.95025 0.36541 0.0
C5336 C 0.33285 0.93905 0.36515 0.0
H5337 H 0.28258 0.96264 0.32254 0.0
H5338 H 0.29686 0.95606 0.33419 0.0
C5339 C 0.34034 0.93272 0.37062 0.0
C5340 C 0.3252 0.95684 0.35956 0.0
H5341 H 0.2983 0.95923 0.35545 0.0
C5342 C 0.32865 0.9642 0.35174 0.0
C5343 C 0.31408 0.95542 0.36118 0.0
C5344 C 0.30972 0.94844 0.37004 0.0
C5345 C 0.32131 0.96956 0.34504 0.0
C5346 C 0.31025 0.96751 0.34622 0.0
C5347 C 0.3068 0.96063 0.3544 0.0
C5348 C 0.30209 0.97177 0.3387 0.0
C5349 C 0.32549 0.97698 0.33646 0.0
C5350 C 0.30028 0.98281 0.33731 0.0
C5351 C 0.29221 0.98656 0.33051 0.0
C5352 C 0.28568 0.97934 0.32523 0.0
C5353 C 0.28747 0.96834 0.32663 0.0
C5354 C 0.29563 0.9646 0.33325 0.0
H5355 H 0.33427 0.97602 0.33523 0.0
H5356 H 0.32146 0.97559 0.32876 0.0
H5357 H 0.32381 0.98537 0.33884 0.0
H5358 H 0.30496 0.9885 0.34163 0.0
H5359 H 0.2909 0.99509 0.32957 0.0
H5360 H 0.65464 0.12466 0.69607 0.0
H5361 H 0.66342 0.10964 0.70503 0.0
H5362 H 0.69427 0.12156 0.69538 0.0
H5363 H 0.68552 0.13701 0.6868 0.0
H5364 H 0.67682 0.09399 0.69741 0.0
H5365 H 0.6972 0.11842 0.7277 0.0
H5366 H 0.68658 0.12373 0.71949 0.0
H5367 H 0.69987 0.12208 0.71404 0.0
C5368 C 0.6633 0.12415 0.6959 0.0
C5369 C 0.66939 0.13214 0.6909 0.0
C5370 C 0.6683 0.11552 0.70097 0.0
C5371 C 0.67948 0.11464 0.70106 0.0
C5372 C 0.68562 0.12226 0.6956 0.0
H5373 H 0.72024 0.06587 0.72989 0.0
H5374 H 0.71331 0.08132 0.71987 0.0
C5375 C 0.68061 0.13099 0.69058 0.0
C5376 C 0.68458 0.10571 0.70697 0.0
H5377 H 0.70055 0.09983 0.72821 0.0
C5378 C 0.68204 0.09526 0.70412 0.0
C5379 C 0.69131 0.10743 0.71577 0.0
C5380 C 0.69385 0.11851 0.71953 0.0
C5381 C 0.68604 0.08645 0.70985 0.0
C5382 C 0.69271 0.08819 0.71865 0.0
C5383 C 0.69541 0.0986 0.72142 0.0
C5384 C 0.69691 0.07925 0.72511 0.0
C5385 C 0.68317 0.07534 0.70644 0.0
C5386 C 0.68997 0.07319 0.7315 0.0
C5387 C 0.69388 0.06438 0.73719 0.0
C5388 C 0.7048 0.06154 0.73658 0.0
C5389 C 0.71178 0.06783 0.73041 0.0
C5390 C 0.70785 0.07665 0.72473 0.0
H5391 H 0.67954 0.07531 0.69839 0.0
H5392 H 0.69037 0.07002 0.70638 0.0
H5393 H 0.67731 0.07199 0.71223 0.0
H5394 H 0.6815 0.07519 0.73193 0.0
H5395 H 0.6883 0.05959 0.74177 0.0
H5396 H 0.71036 0.948 0.3532 0.0
H5397 H 0.72224 0.95985 0.34293 0.0
H5398 H 0.713 0.94464 0.31379 0.0
H5399 H 0.70122 0.93292 0.32387 0.0
H5400 H 0.73943 0.95565 0.32987 0.0
H5401 H 0.70782 0.97541 0.30585 0.0
H5402 H 0.70481 0.96749 0.31757 0.0
H5403 H 0.70748 0.96115 0.30493 0.0
C5404 C 0.71088 0.94718 0.34461 0.0
C5405 C 0.70466 0.93961 0.33937 0.0
C5406 C 0.71764 0.95399 0.33873 0.0
C5407 C 0.71829 0.95337 0.32752 0.0
C5408 C 0.71236 0.94558 0.32236 0.0
H5409 H 0.75694 0.97932 0.27586 0.0
H5410 H 0.74497 0.96899 0.28738 0.0
C5411 C 0.70563 0.93884 0.32818 0.0
C5412 C 0.72542 0.96052 0.32114 0.0
H5413 H 0.7258 0.97743 0.29952 0.0
C5414 C 0.73642 0.96051 0.32333 0.0
C5415 C 0.72153 0.96689 0.31255 0.0
C5416 C 0.70975 0.96784 0.31015 0.0
C5417 C 0.74364 0.9664 0.31698 0.0
C5418 C 0.73976 0.9725 0.30826 0.0
C5419 C 0.72877 0.97266 0.30615 0.0
C5420 C 0.74698 0.97885 0.30128 0.0
C5421 C 0.75542 0.96583 0.31944 0.0
C5422 C 0.75193 0.98794 0.30521 0.0
C5423 C 0.75861 0.99402 0.29859 0.0
C5424 C 0.7606 0.99109 0.28788 0.0
C5425 C 0.75555 0.98196 0.28398 0.0
C5426 C 0.74875 0.97597 0.29058 0.0
H5427 H 0.75735 0.95938 0.32529 0.0
H5428 H 0.76019 0.96445 0.31202 0.0
H5429 H 0.75789 0.97355 0.32283 0.0
H5430 H 0.75052 0.99041 0.31339 0.0
H5431 H 0.76205 1.00113 0.30187 0.0
H5432 H 0.61419 0.20203 0.31826 0.0
H5433 H 0.6006 0.21314 0.30934 0.0
H5434 H 0.58384 0.18485 0.30038 0.0
H5435 H 0.59703 0.17375 0.30965 0.0
H5436 H 0.59519 0.21282 0.28773 0.0
H5437 H 0.56006 0.20329 0.3134 0.0
H5438 H 0.57365 0.20061 0.31749 0.0
H5439 H 0.56715 0.19168 0.30856 0.0
C5440 C 0.60747 0.19819 0.31461 0.0
C5441 C 0.60671 0.18699 0.31468 0.0
C5442 C 0.59979 0.20454 0.30943 0.0
C5443 C 0.59117 0.19982 0.30429 0.0
C5444 C 0.59033 0.18868 0.30445 0.0
H5445 H 0.53918 0.21849 0.26373 0.0
H5446 H 0.55378 0.20936 0.27314 0.0
C5447 C 0.59795 0.18233 0.30966 0.0
C5448 C 0.58322 0.20646 0.29846 0.0
H5449 H 0.55643 0.21183 0.29674 0.0
C5450 C 0.58673 0.21271 0.28977 0.0
C5451 C 0.5722 0.2063 0.30114 0.0
C5452 C 0.56803 0.2002 0.31072 0.0
C5453 C 0.57942 0.21854 0.28348 0.0
C5454 C 0.56839 0.21812 0.28602 0.0
C5455 C 0.56491 0.21204 0.2948 0.0
C5456 C 0.56025 0.22381 0.27959 0.0
C5457 C 0.58344 0.22487 0.274 0.0
C5458 C 0.55916 0.23496 0.28008 0.0
C5459 C 0.55083 0.24021 0.2747 0.0
C5460 C 0.54352 0.23437 0.26874 0.0
C5461 C 0.54481 0.22322 0.26809 0.0
C5462 C 0.55309 0.21798 0.27351 0.0
H5463 H 0.59207 0.22328 0.2723 0.0
H5464 H 0.57878 0.22295 0.26679 0.0
H5465 H 0.58229 0.23352 0.27557 0.0
H5466 H 0.56456 0.23956 0.28484 0.0
H5467 H 0.55002 0.2488 0.27533 0.0
H5468 H 0.31903 0.11136 0.34212 0.0
H5469 H 0.31037 0.09617 0.33386 0.0
H5470 H 0.29958 0.08525 0.3648 0.0
H5471 H 0.30854 0.10004 0.37319 0.0
H5472 H 0.31252 0.07321 0.33773 0.0
H5473 H 0.27162 0.08882 0.34731 0.0
H5474 H 0.2833 0.09707 0.34774 0.0
H5475 H 0.28057 0.0878 0.35841 0.0
C5476 C 0.31499 0.10566 0.34723 0.0
C5477 C 0.31436 0.10718 0.35837 0.0
C5478 C 0.30996 0.09699 0.34246 0.0
C5479 C 0.30408 0.08971 0.34868 0.0
C5480 C 0.30382 0.09091 0.3598 0.0
H5481 H 0.26773 0.03279 0.33384 0.0
H5482 H 0.27659 0.04738 0.34281 0.0
C5483 C 0.30893 0.09947 0.36458 0.0
C5484 C 0.29811 0.08094 0.34357 0.0
H5485 H 0.27288 0.07164 0.3396 0.0
C5486 C 0.30386 0.07289 0.33811 0.0
C5487 C 0.28679 0.08047 0.34413 0.0
C5488 C 0.28016 0.08903 0.34963 0.0
C5489 C 0.2986 0.06439 0.33325 0.0
C5490 C 0.2873 0.064 0.33371 0.0
C5491 C 0.28154 0.07197 0.33925 0.0
C5492 C 0.28135 0.05547 0.32826 0.0
C5493 C 0.30514 0.05576 0.32777 0.0
C5494 C 0.28083 0.05532 0.31708 0.0
C5495 C 0.27552 0.04713 0.31188 0.0
C5496 C 0.27075 0.03874 0.31772 0.0
C5497 C 0.27115 0.03908 0.32898 0.0
C5498 C 0.2763 0.0474 0.33417 0.0
H5499 H 0.31378 0.05623 0.32963 0.0
H5500 H 0.30224 0.04775 0.33017 0.0
H5501 H 0.30422 0.05657 0.31899 0.0
H5502 H 0.28453 0.06157 0.31237 0.0
H5503 H 0.27516 0.04746 0.30326 0.0
H5504 H 0.43323 0.86918 0.35831 0.0
H5505 H 0.44677 0.85989 0.34745 0.0
H5506 H 0.46313 0.84965 0.37591 0.0
H5507 H 0.44983 0.85912 0.38685 0.0
H5508 H 0.46853 0.86103 0.34501 0.0
H5509 H 0.45828 0.82127 0.36185 0.0
H5510 H 0.45023 0.83307 0.36452 0.0
H5511 H 0.46254 0.83074 0.37152 0.0
C5512 C 0.43977 0.86513 0.36233 0.0
C5513 C 0.44017 0.86479 0.37357 0.0
C5514 C 0.44751 0.85973 0.35606 0.0
C5515 C 0.45583 0.85375 0.36082 0.0
C5516 C 0.45661 0.85386 0.372 0.0
H5517 H 0.50538 0.81275 0.32998 0.0
H5518 H 0.49529 0.82337 0.34308 0.0
C5519 C 0.44893 0.85931 0.37827 0.0
C5520 C 0.46349 0.84729 0.35408 0.0
H5521 H 0.47231 0.82171 0.34907 0.0
C5522 C 0.46934 0.85244 0.34593 0.0
C5523 C 0.46472 0.83605 0.35531 0.0
C5524 C 0.45856 0.82992 0.36371 0.0
C5525 C 0.47618 0.84669 0.33893 0.0
C5526 C 0.47709 0.83545 0.33993 0.0
C5527 C 0.47156 0.83032 0.34827 0.0
C5528 C 0.48324 0.82887 0.332 0.0
C5529 C 0.48245 0.85267 0.33051 0.0
C5530 C 0.47973 0.82822 0.32143 0.0
C5531 C 0.48531 0.82192 0.31395 0.0
C5532 C 0.4947 0.81618 0.31676 0.0
C5533 C 0.49816 0.81685 0.32742 0.0
C5534 C 0.49244 0.82303 0.33496 0.0
H5535 H 0.48278 0.86134 0.33226 0.0
H5536 H 0.49075 0.84941 0.32984 0.0
H5537 H 0.47858 0.85172 0.32266 0.0
H5538 H 0.47254 0.83248 0.319 0.0
H5539 H 0.48209 0.82144 0.306 0.0
H5540 H 0.35788 0.90235 0.69551 0.0
H5541 H 0.35284 0.91883 0.70467 0.0
H5542 H 0.31958 0.91297 0.69871 0.0
H5543 H 0.32452 0.89617 0.68987 0.0
H5544 H 0.34218 0.93656 0.69663 0.0
H5545 H 0.31914 0.91936 0.73067 0.0
H5546 H 0.32813 0.91142 0.72242 0.0
H5547 H 0.31503 0.91507 0.71772 0.0
C5548 C 0.34946 0.90443 0.69626 0.0
C5549 C 0.34161 0.89779 0.69198 0.0
C5550 C 0.3466 0.91394 0.70146 0.0
C5551 C 0.33582 0.9171 0.70255 0.0
C5552 C 0.32795 0.91061 0.69817 0.0
H5553 H 0.30409 0.97451 0.72749 0.0
H5554 H 0.30846 0.95731 0.71914 0.0
C5555 C 0.3308 0.90106 0.69297 0.0
C5556 C 0.33291 0.92738 0.7079 0.0
H5557 H 0.31866 0.9382 0.72883 0.0
C5558 C 0.33707 0.9369 0.7037 0.0
C5559 C 0.32624 0.92785 0.71713 0.0
C5560 C 0.32194 0.91788 0.72234 0.0
C5561 C 0.33462 0.94685 0.70835 0.0
C5562 C 0.32796 0.94732 0.71755 0.0
C5563 C 0.32376 0.93782 0.72176 0.0
C5564 C 0.32529 0.95761 0.72291 0.0
C5565 C 0.33898 0.95685 0.70324 0.0
C5566 C 0.33326 0.96342 0.72797 0.0
C5567 C 0.33079 0.97324 0.73277 0.0
C5568 C 0.32028 0.97748 0.73259 0.0
C5569 C 0.31228 0.97154 0.72767 0.0
C5570 C 0.31475 0.96168 0.72293 0.0
H5571 H 0.34231 0.95535 0.69511 0.0
H5572 H 0.33262 0.96314 0.70271 0.0
H5573 H 0.34548 0.95996 0.70824 0.0
H5574 H 0.34142 0.96037 0.72815 0.0
H5575 H 0.33716 0.97763 0.7364 0.0
H5576 H 0.58447 0.82951 0.67335 0.0
H5577 H 0.57208 0.81762 0.6828 0.0
H5578 H 0.58221 0.7916 0.6625 0.0
H5579 H 0.595 0.80309 0.65353 0.0
H5580 H 0.55503 0.80514 0.67571 0.0
H5581 H 0.58784 0.77969 0.69209 0.0
H5582 H 0.5902 0.79258 0.68607 0.0
H5583 H 0.58835 0.78107 0.67783 0.0
C5584 C 0.58414 0.82123 0.67098 0.0
C5585 C 0.5908 0.81728 0.66269 0.0
C5586 C 0.57698 0.81448 0.6763 0.0
C5587 C 0.57636 0.8037 0.67344 0.0
C5588 C 0.5827 0.79985 0.66496 0.0
H5589 H 0.54481 0.74825 0.6999 0.0
H5590 H 0.55357 0.76085 0.68775 0.0
C5591 C 0.58992 0.8065 0.65974 0.0
C5592 C 0.56944 0.7963 0.67954 0.0
H5593 H 0.57024 0.77338 0.69443 0.0
C5594 C 0.55833 0.79821 0.67985 0.0
C5595 C 0.5738 0.78727 0.68491 0.0
C5596 C 0.5857 0.78506 0.68531 0.0
C5597 C 0.55145 0.7912 0.68526 0.0
C5598 C 0.55583 0.78217 0.69057 0.0
C5599 C 0.56691 0.78027 0.69024 0.0
C5600 C 0.54922 0.77482 0.69701 0.0
C5601 C 0.53953 0.79338 0.6851 0.0
C5602 C 0.54378 0.77856 0.70613 0.0
C5603 C 0.53868 0.77141 0.71302 0.0
C5604 C 0.53908 0.76039 0.71097 0.0
C5605 C 0.54426 0.75671 0.70163 0.0
C5606 C 0.54931 0.76388 0.69472 0.0
H5607 H 0.53728 0.79901 0.67858 0.0
H5608 H 0.5351 0.78585 0.68412 0.0
H5609 H 0.53696 0.797 0.6928 0.0
H5610 H 0.54382 0.78694 0.70816 0.0
H5611 H 0.53464 0.7745 0.72008 0.0
H5612 H 0.42666 0.25501 0.66461 0.0
H5613 H 0.43966 0.26521 0.67418 0.0
H5614 H 0.44787 0.23743 0.6931 0.0
H5615 H 0.43544 0.22679 0.68286 0.0
H5616 H 0.43966 0.27048 0.69392 0.0
H5617 H 0.47731 0.24758 0.68648 0.0
H5618 H 0.4653 0.24533 0.67904 0.0
H5619 H 0.46693 0.2395 0.69212 0.0
C5620 C 0.43143 0.25086 0.67054 0.0
C5621 C 0.43 0.23989 0.67272 0.0
C5622 C 0.43883 0.25682 0.67614 0.0
C5623 C 0.44495 0.25212 0.68429 0.0
C5624 C 0.4435 0.24123 0.68666 0.0
H5625 H 0.48678 0.27726 0.73252 0.0
H5626 H 0.47545 0.26647 0.7213 0.0
C5627 C 0.43619 0.23517 0.6809 0.0
C5628 C 0.45223 0.2589 0.69069 0.0
H5629 H 0.47778 0.26089 0.69992 0.0
C5630 C 0.44802 0.26839 0.69515 0.0
C5631 C 0.46318 0.25628 0.69229 0.0
C5632 C 0.46849 0.24668 0.68714 0.0
C5633 C 0.4543 0.27514 0.70132 0.0
C5634 C 0.46516 0.27238 0.70311 0.0
C5635 C 0.46943 0.26296 0.69861 0.0
C5636 C 0.47215 0.27905 0.70983 0.0
C5637 C 0.44915 0.28502 0.70609 0.0
C5638 C 0.47418 0.28973 0.70709 0.0
C5639 C 0.4805 0.29602 0.71362 0.0
C5640 C 0.4851 0.29175 0.72298 0.0
C5641 C 0.48322 0.28096 0.72555 0.0
C5642 C 0.47682 0.27471 0.71906 0.0
H5643 H 0.44027 0.28469 0.70604 0.0
H5644 H 0.45178 0.28615 0.71443 0.0
H5645 H 0.45156 0.29212 0.70133 0.0
H5646 H 0.47086 0.29323 0.6999 0.0
H5647 H 0.48165 0.30429 0.71137 0.0
H5648 H 0.71273 0.73189 0.14717 0.0
H5649 H 0.71655 0.73837 0.12904 0.0
H5650 H 0.74947 0.74313 0.1374 0.0
H5651 H 0.74577 0.73643 0.15543 0.0
H5652 H 0.72329 0.75644 0.12065 0.0
H5653 H 0.75412 0.72528 0.11165 0.0
H5654 H 0.74591 0.72484 0.12358 0.0
H5655 H 0.7574 0.73332 0.12288 0.0
C5656 C 0.72076 0.73441 0.14518 0.0
C5657 C 0.72896 0.7335 0.15274 0.0
C5658 C 0.72296 0.73807 0.13478 0.0
C5659 C 0.73339 0.74096 0.1317 0.0
C5660 C 0.74146 0.74058 0.1394 0.0
H5661 H 0.76026 0.7626 0.07041 0.0
H5662 H 0.7572 0.75864 0.08935 0.0
C5663 C 0.7393 0.73681 0.14976 0.0
C5664 C 0.73575 0.74434 0.12044 0.0
H5665 H 0.75173 0.7389 0.09867 0.0
C5666 C 0.72949 0.75257 0.11586 0.0
C5667 C 0.7439 0.73936 0.11412 0.0
C5668 C 0.75065 0.73015 0.11827 0.0
C5669 C 0.73113 0.75593 0.10522 0.0
C5670 C 0.73918 0.75086 0.09891 0.0
C5671 C 0.74557 0.74278 0.10351 0.0
C5672 C 0.74089 0.75358 0.08742 0.0
C5673 C 0.72432 0.76498 0.10085 0.0
C5674 C 0.73279 0.75192 0.07999 0.0
C5675 C 0.73455 0.75404 0.06912 0.0
C5676 C 0.74447 0.75787 0.06539 0.0
C5677 C 0.75257 0.75953 0.0729 0.0
C5678 C 0.75081 0.75734 0.08377 0.0
H5679 H 0.72051 0.76976 0.10735 0.0
H5680 H 0.72916 0.77035 0.09569 0.0
H5681 H 0.71787 0.76166 0.09594 0.0
H5682 H 0.72516 0.74877 0.08257 0.0
H5683 H 0.72819 0.75242 0.0636 0.0
H5684 H 0.35755 0.68045 0.108 0.0
H5685 H 0.34858 0.69267 0.09574 0.0
H5686 H 0.37561 0.71357 0.09632 0.0
H5687 H 0.38492 0.70109 0.10843 0.0
H5688 H 0.34357 0.7137 0.10129 0.0
H5689 H 0.36843 0.71153 0.06413 0.0
H5690 H 0.36888 0.70126 0.07434 0.0
H5691 H 0.37551 0.71368 0.07632 0.0
C5692 C 0.36175 0.68748 0.10532 0.0
C5693 C 0.372 0.68975 0.10911 0.0
C5694 C 0.35657 0.69449 0.09836 0.0
C5695 C 0.36149 0.70392 0.09506 0.0
C5696 C 0.37178 0.70621 0.09866 0.0
H5697 H 0.33847 0.75729 0.05752 0.0
H5698 H 0.34886 0.74492 0.06851 0.0
C5699 C 0.37702 0.69915 0.10565 0.0
C5700 C 0.35533 0.71174 0.08869 0.0
H5701 H 0.35425 0.72422 0.06445 0.0
C5702 C 0.34589 0.71602 0.09323 0.0
C5703 C 0.35842 0.71468 0.07821 0.0
C5704 C 0.36832 0.71001 0.07288 0.0
C5705 C 0.33945 0.72328 0.08759 0.0
C5706 C 0.3425 0.72618 0.07707 0.0
C5707 C 0.35197 0.72195 0.07254 0.0
C5708 C 0.33604 0.7337 0.07068 0.0
C5709 C 0.32957 0.72791 0.09301 0.0
C5710 C 0.3254 0.73144 0.06828 0.0
C5711 C 0.31931 0.73865 0.06229 0.0
C5712 C 0.32387 0.74811 0.05836 0.0
C5713 C 0.33461 0.75023 0.06063 0.0
C5714 C 0.34062 0.74311 0.06679 0.0
H5715 H 0.32994 0.72707 0.10184 0.0
H5716 H 0.32847 0.7365 0.09097 0.0
H5717 H 0.32244 0.72359 0.0903 0.0
H5718 H 0.32181 0.72408 0.07102 0.0
H5719 H 0.31103 0.73681 0.06078 0.0
H5720 H 0.37218 0.34964 0.05738 0.0
H5721 H 0.36196 0.33698 0.04666 0.0
H5722 H 0.34265 0.32938 0.0744 0.0
H5723 H 0.35263 0.34211 0.08494 0.0
H5724 H 0.35814 0.31523 0.04848 0.0
H5725 H 0.31998 0.33785 0.0531 0.0
H5726 H 0.33274 0.3435 0.05623 0.0
H5727 H 0.32602 0.33498 0.06574 0.0
C5728 C 0.36582 0.34514 0.06116 0.0
C5729 C 0.36319 0.34678 0.07199 0.0
C5730 C 0.35997 0.33796 0.05504 0.0
C5731 C 0.35135 0.33239 0.05965 0.0
C5732 C 0.34905 0.33377 0.07057 0.0
H5733 H 0.30371 0.28632 0.04667 0.0
H5734 H 0.31653 0.29887 0.0538 0.0
C5735 C 0.35483 0.34095 0.07663 0.0
C5736 C 0.34467 0.32513 0.05321 0.0
H5737 H 0.31864 0.31972 0.04759 0.0
C5738 C 0.34951 0.31627 0.04815 0.0
C5739 C 0.33341 0.32654 0.05265 0.0
C5740 C 0.32774 0.3363 0.05712 0.0
C5741 C 0.34335 0.30848 0.04313 0.0
C5742 C 0.33205 0.30962 0.04311 0.0
C5743 C 0.32728 0.31872 0.04775 0.0
C5744 C 0.32491 0.30135 0.03876 0.0
C5745 C 0.34895 0.29886 0.03831 0.0
C5746 C 0.32537 0.29845 0.02794 0.0
C5747 C 0.31808 0.29118 0.02386 0.0
C5748 C 0.31006 0.28686 0.03049 0.0
C5749 C 0.30972 0.28964 0.04134 0.0
C5750 C 0.31706 0.29679 0.04543 0.0
H5751 H 0.35739 0.29807 0.04093 0.0
H5752 H 0.34469 0.29143 0.04049 0.0
H5753 H 0.34899 0.29965 0.02948 0.0
H5754 H 0.33117 0.30202 0.02257 0.0
H5755 H 0.31848 0.28921 0.01546 0.0
H5756 H 0.68764 0.34948 0.10717 0.0
H5757 H 0.69977 0.34178 0.09375 0.0
H5758 H 0.67357 0.3392 0.07191 0.0
H5759 H 0.66127 0.34701 0.08546 0.0
H5760 H 0.69785 0.32146 0.08399 0.0
H5761 H 0.6977 0.35506 0.05459 0.0
H5762 H 0.6933 0.35673 0.06828 0.0
H5763 H 0.68488 0.3502 0.05895 0.0
C5764 C 0.68445 0.34726 0.09951 0.0
C5765 C 0.67353 0.34884 0.09733 0.0
C5766 C 0.69139 0.34289 0.09186 0.0
C5767 C 0.6876 0.34007 0.08181 0.0
C5768 C 0.67666 0.34148 0.07959 0.0
H5769 H 0.72141 0.30812 0.02985 0.0
H5770 H 0.70813 0.31789 0.04083 0.0
C5771 C 0.66964 0.34581 0.08734 0.0
C5772 C 0.69517 0.33526 0.07395 0.0
H5773 H 0.70834 0.33989 0.05032 0.0
C5774 C 0.70011 0.32547 0.07661 0.0
C5775 C 0.69813 0.34056 0.06437 0.0
C5776 C 0.69331 0.35126 0.06135 0.0
C5777 C 0.70795 0.32082 0.06994 0.0
C5778 C 0.71102 0.32618 0.06045 0.0
C5779 C 0.70598 0.33588 0.05767 0.0
C5780 C 0.7193 0.32162 0.05325 0.0
C5781 C 0.71286 0.31016 0.07305 0.0
C5782 C 0.73 0.32083 0.0565 0.0
C5783 C 0.73758 0.31538 0.0502 0.0
C5784 C 0.73449 0.31063 0.04064 0.0
C5785 C 0.7239 0.31179 0.0372 0.0
C5786 C 0.71636 0.31734 0.04343 0.0
H5787 H 0.70822 0.30617 0.07952 0.0
H5788 H 0.71338 0.30477 0.06605 0.0
H5789 H 0.72111 0.31137 0.07593 0.0
H5790 H 0.73239 0.32413 0.06406 0.0
H5791 H 0.74571 0.31444 0.05301 0.0
H5792 H 0.70738 0.3537 0.91193 0.0
H5793 H 0.71558 0.34083 0.92438 0.0
H5794 H 0.70052 0.35735 0.95086 0.0
H5795 H 0.69217 0.37012 0.93834 0.0
H5796 H 0.72962 0.34529 0.94017 0.0
H5797 H 0.69335 0.32654 0.95757 0.0
H5798 H 0.69292 0.33471 0.94564 0.0
H5799 H 0.69344 0.34083 0.95857 0.0
C5800 C 0.70565 0.35438 0.9204 0.0
C5801 C 0.69901 0.36269 0.92422 0.0
C5802 C 0.71037 0.34711 0.92749 0.0
C5803 C 0.70853 0.34803 0.93853 0.0
C5804 C 0.70183 0.35633 0.94237 0.0
H5805 H 0.73355 0.31359 0.99339 0.0
H5806 H 0.72384 0.32568 0.98126 0.0
C5807 C 0.69708 0.3636 0.93524 0.0
C5808 C 0.71408 0.34063 0.94599 0.0
H5809 H 0.7099 0.32197 0.96554 0.0
C5810 C 0.72531 0.34015 0.94568 0.0
C5811 C 0.70843 0.33401 0.95324 0.0
C5812 C 0.69637 0.33395 0.95374 0.0
C5813 C 0.73107 0.33329 0.95249 0.0
C5814 C 0.72541 0.32658 0.95963 0.0
C5815 C 0.71419 0.32711 0.96001 0.0
C5816 C 0.731 0.31903 0.96687 0.0
C5817 C 0.74315 0.33351 0.95214 0.0
C5818 C 0.73803 0.31117 0.96277 0.0
C5819 C 0.74369 0.30444 0.96967 0.0
C5820 C 0.74215 0.3053 0.98074 0.0
C5821 C 0.7348 0.31284 0.98485 0.0
C5822 C 0.72929 0.31971 0.97795 0.0
H5823 H 0.74612 0.34103 0.9485 0.0
H5824 H 0.74653 0.33263 0.96026 0.0
H5825 H 0.74624 0.32678 0.94719 0.0
H5826 H 0.7392 0.3103 0.95423 0.0
H5827 H 0.74926 0.29855 0.9664 0.0
H5828 H 0.66474 0.66804 0.94128 0.0
H5829 H 0.6745 0.68117 0.95125 0.0
H5830 H 0.70422 0.66927 0.9377 0.0
H5831 H 0.69443 0.6567 0.92684 0.0
H5832 H 0.68923 0.68046 0.966 0.0
H5833 H 0.70652 0.70024 0.93015 0.0
H5834 H 0.69607 0.69055 0.92933 0.0
H5835 H 0.70981 0.68626 0.93085 0.0
C5836 C 0.67334 0.66827 0.9402 0.0
C5837 C 0.67869 0.66145 0.93287 0.0
C5838 C 0.67894 0.67576 0.94606 0.0
C5839 C 0.69008 0.67649 0.94498 0.0
C5840 C 0.69557 0.66915 0.93837 0.0
H5841 H 0.73805 0.71649 0.97284 0.0
H5842 H 0.72806 0.70264 0.96386 0.0
C5843 C 0.68995 0.66179 0.9323 0.0
C5844 C 0.69586 0.68502 0.9507 0.0
H5845 H 0.71308 0.70568 0.9469 0.0
C5846 C 0.69441 0.68599 0.9618 0.0
C5847 C 0.70251 0.69238 0.94523 0.0
C5848 C 0.70375 0.6924 0.93323 0.0
C5849 C 0.69966 0.69388 0.9676 0.0
C5850 C 0.70652 0.701 0.96215 0.0
C5851 C 0.70789 0.70013 0.95106 0.0
C5852 C 0.71247 0.70937 0.96782 0.0
C5853 C 0.69803 0.69437 0.97955 0.0
C5854 C 0.70701 0.71783 0.97293 0.0
C5855 C 0.7127 0.72574 0.97815 0.0
C5856 C 0.72397 0.72538 0.9783 0.0
C5857 C 0.72938 0.71694 0.97305 0.0
C5858 C 0.72369 0.70904 0.96785 0.0
H5859 H 0.69411 0.68711 0.98277 0.0
H5860 H 0.7058 0.69534 0.9836 0.0
H5861 H 0.69286 0.70139 0.98154 0.0
H5862 H 0.69835 0.71834 0.97285 0.0
H5863 H 0.70825 0.73205 0.98218 0.0
H5864 H 0.31047 0.7343 0.88854 0.0
H5865 H 0.30664 0.74511 0.90444 0.0
H5866 H 0.33054 0.72708 0.92187 0.0
H5867 H 0.33459 0.71649 0.90591 0.0
H5868 H 0.3007 0.74028 0.92543 0.0
H5869 H 0.34131 0.75761 0.92313 0.0
H5870 H 0.3358 0.75 0.91239 0.0
H5871 H 0.34129 0.74329 0.92389 0.0
C5872 C 0.31468 0.73251 0.89587 0.0
C5873 C 0.32283 0.72468 0.89611 0.0
C5874 C 0.31256 0.7387 0.90487 0.0
C5875 C 0.31854 0.73703 0.91414 0.0
C5876 C 0.32608 0.72863 0.91464 0.0
H5877 H 0.32171 0.76412 0.97596 0.0
H5878 H 0.32495 0.7548 0.95909 0.0
C5879 C 0.32829 0.72254 0.90562 0.0
C5880 C 0.31723 0.74435 0.92315 0.0
H5881 H 0.33077 0.7618 0.93847 0.0
C5882 C 0.30722 0.74507 0.92825 0.0
C5883 C 0.32582 0.75056 0.92671 0.0
C5884 C 0.33664 0.75042 0.92119 0.0
C5885 C 0.30562 0.75161 0.93713 0.0
C5886 C 0.31425 0.7577 0.94076 0.0
C5887 C 0.32422 0.75712 0.93556 0.0
C5888 C 0.31324 0.76422 0.95035 0.0
C5889 C 0.29487 0.75166 0.94279 0.0
C5890 C 0.3059 0.7728 0.95077 0.0
C5891 C 0.30399 0.77804 0.96037 0.0
C5892 C 0.30959 0.77486 0.9695 0.0
C5893 C 0.31744 0.76674 0.9689 0.0
C5894 C 0.31924 0.76142 0.95935 0.0
H5895 H 0.28985 0.74492 0.94026 0.0
H5896 H 0.29588 0.75118 0.95158 0.0
H5897 H 0.2905 0.75921 0.94091 0.0
H5898 H 0.30138 0.77515 0.94379 0.0
H5899 H 0.2979 0.78429 0.96078 0.0
H5900 H 0.32301 0.31875 0.8972 0.0
H5901 H 0.31928 0.30862 0.91364 0.0
H5902 H 0.28567 0.30891 0.9063 0.0
H5903 H 0.28934 0.31839 0.88967 0.0
H5904 H 0.30648 0.31453 0.93091 0.0
H5905 H 0.29077 0.27775 0.91288 0.0
H5906 H 0.29816 0.28748 0.9052 0.0
H5907 H 0.28419 0.28974 0.90828 0.0
C5908 C 0.31485 0.31645 0.89895 0.0
C5909 C 0.30649 0.31947 0.89205 0.0
C5910 C 0.31272 0.31075 0.90842 0.0
C5911 C 0.3022 0.30789 0.91116 0.0
C5912 C 0.29388 0.31082 0.90428 0.0
H5913 H 0.27037 0.2793 0.96609 0.0
H5914 H 0.27492 0.28898 0.94959 0.0
C5915 C 0.296 0.3164 0.89481 0.0
C5916 C 0.29982 0.30213 0.92134 0.0
H5917 H 0.28796 0.2798 0.93155 0.0
C5918 C 0.30253 0.30689 0.93104 0.0
C5919 C 0.29457 0.29219 0.92153 0.0
C5920 C 0.29184 0.28644 0.91142 0.0
C5921 C 0.29999 0.30204 0.9409 0.0
C5922 C 0.29471 0.29217 0.94104 0.0
C5923 C 0.29199 0.2874 0.93138 0.0
C5924 C 0.29202 0.28657 0.95114 0.0
C5925 C 0.30271 0.3076 0.95113 0.0
C5926 C 0.30013 0.28195 0.95738 0.0
C5927 C 0.29756 0.27637 0.96675 0.0
C5928 C 0.28683 0.27538 0.97005 0.0
C5929 C 0.27872 0.28004 0.96378 0.0
C5930 C 0.28129 0.28553 0.95436 0.0
H5931 H 0.30523 0.31596 0.9497 0.0
H5932 H 0.29572 0.30765 0.95671 0.0
H5933 H 0.30936 0.30319 0.95509 0.0
H5934 H 0.30845 0.28258 0.95494 0.0
H5935 H 0.30397 0.27292 0.97148 0.0
H5936 H 0.64934 0.74173 0.22258 0.0
H5937 H 0.63242 0.74812 0.2304 0.0
H5938 H 0.64594 0.74596 0.26185 0.0
H5939 H 0.66305 0.73947 0.254 0.0
H5940 H 0.62003 0.73648 0.2465 0.0
H5941 H 0.63182 0.77704 0.25939 0.0
H5942 H 0.6391 0.76976 0.24913 0.0
H5943 H 0.64048 0.76593 0.26288 0.0
C5944 C 0.64875 0.74267 0.23116 0.0
C5945 C 0.65753 0.74012 0.23767 0.0
C5946 C 0.63907 0.74632 0.23562 0.0
C5947 C 0.63795 0.74762 0.24668 0.0
C5948 C 0.64669 0.74512 0.25326 0.0
H5949 H 0.58026 0.76603 0.28323 0.0
H5950 H 0.59846 0.76002 0.27812 0.0
C5951 C 0.6564 0.74132 0.2488 0.0
C5952 C 0.62741 0.75108 0.2512 0.0
H5953 H 0.61396 0.77211 0.26277 0.0
C5954 C 0.61872 0.74424 0.25012 0.0
C5955 C 0.62572 0.76123 0.25587 0.0
C5956 C 0.63472 0.76899 0.25687 0.0
C5957 C 0.60837 0.7473 0.25353 0.0
C5958 C 0.60665 0.7575 0.25803 0.0
C5959 C 0.61535 0.76428 0.25931 0.0
C5960 C 0.59577 0.76133 0.26114 0.0
C5961 C 0.59931 0.73963 0.25229 0.0
C5962 C 0.58832 0.76413 0.25326 0.0
C5963 C 0.57801 0.76767 0.25616 0.0
C5964 C 0.57497 0.76837 0.26697 0.0
C5965 C 0.58244 0.76554 0.27485 0.0
C5966 C 0.5928 0.76214 0.27195 0.0
H5967 H 0.60224 0.73145 0.25026 0.0
H5968 H 0.59444 0.73923 0.25976 0.0
H5969 H 0.594 0.74252 0.24581 0.0
H5970 H 0.59048 0.76356 0.24488 0.0
H5971 H 0.57236 0.76971 0.24995 0.0
H5972 H 0.37363 0.60703 0.19743 0.0
H5973 H 0.36157 0.59343 0.20407 0.0
H5974 H 0.34808 0.59065 0.17271 0.0
H5975 H 0.36058 0.60403 0.1658 0.0
H5976 H 0.34002 0.59527 0.20442 0.0
H5977 H 0.35292 0.55944 0.18142 0.0
H5978 H 0.36105 0.57117 0.18234 0.0
H5979 H 0.34996 0.57102 0.17335 0.0
C5980 C 0.36832 0.60335 0.19183 0.0
C5981 C 0.36818 0.60654 0.18104 0.0
C5982 C 0.36136 0.59563 0.19568 0.0
C5983 C 0.35403 0.59095 0.18887 0.0
C5984 C 0.35384 0.59402 0.17806 0.0
H5985 H 0.30239 0.54728 0.19959 0.0
H5986 H 0.31481 0.56043 0.1925 0.0
C5987 C 0.36088 0.60176 0.17416 0.0
C5988 C 0.34612 0.58346 0.19338 0.0
H5989 H 0.33703 0.55802 0.19181 0.0
C5990 C 0.33938 0.58711 0.20169 0.0
C5991 C 0.34536 0.57283 0.18982 0.0
C5992 C 0.35277 0.56832 0.18131 0.0
C5993 C 0.33176 0.58045 0.20644 0.0
C5994 C 0.33094 0.56986 0.2028 0.0
C5995 C 0.33768 0.56619 0.19451 0.0
C5996 C 0.32306 0.56244 0.2074 0.0
C5997 C 0.32454 0.58486 0.21516 0.0
C5998 C 0.32358 0.55932 0.21815 0.0
C5999 C 0.31636 0.55195 0.2223 0.0
C6000 C 0.30863 0.54746 0.2157 0.0
C6001 C 0.30812 0.55069 0.20494 0.0
C6002 C 0.31527 0.55813 0.20084 0.0
H6003 H 0.32455 0.59373 0.21532 0.0
H6004 H 0.31619 0.58219 0.21415 0.0
H6005 H 0.32738 0.58188 0.22302 0.0
H6006 H 0.32966 0.56245 0.22329 0.0
H6007 H 0.31686 0.54976 0.23066 0.0
H6008 H 0.44176 0.36141 0.1603 0.0
H6009 H 0.4518 0.35062 0.17335 0.0
H6010 H 0.44267 0.32192 0.15737 0.0
H6011 H 0.43241 0.33243 0.14463 0.0
H6012 H 0.44342 0.3346 0.18706 0.0
H6013 H 0.47504 0.31737 0.16061 0.0
H6014 H 0.46739 0.32923 0.15709 0.0
H6015 H 0.46177 0.31624 0.15545 0.0
C6016 C 0.44187 0.35281 0.15954 0.0
C6017 C 0.43629 0.34788 0.15125 0.0
C6018 C 0.4477 0.34665 0.16698 0.0
C6019 C 0.44818 0.33545 0.16622 0.0
C6020 C 0.44269 0.33054 0.15796 0.0
H6021 H 0.46985 0.2796 0.20001 0.0
H6022 H 0.46259 0.29287 0.18798 0.0
C6023 C 0.43682 0.33664 0.15062 0.0
C6024 C 0.45371 0.32875 0.17443 0.0
H6025 H 0.47239 0.30871 0.17742 0.0
C6026 C 0.44987 0.32905 0.18501 0.0
C6027 C 0.46208 0.32146 0.17172 0.0
C6028 C 0.4669 0.32109 0.16062 0.0
C6029 C 0.45382 0.32195 0.19284 0.0
C6030 C 0.46201 0.31446 0.19007 0.0
C6031 C 0.46606 0.31438 0.17955 0.0
C6032 C 0.46624 0.30638 0.19782 0.0
C6033 C 0.44882 0.3222 0.20387 0.0
C6034 C 0.47076 0.30946 0.20748 0.0
C6035 C 0.47454 0.30179 0.21478 0.0
C6036 C 0.47431 0.29074 0.21248 0.0
C6037 C 0.47002 0.2878 0.20255 0.0
C6038 C 0.46595 0.29548 0.19543 0.0
H6039 H 0.44099 0.32654 0.20396 0.0
H6040 H 0.44762 0.31399 0.20702 0.0
H6041 H 0.45421 0.32639 0.20936 0.0
H6042 H 0.47137 0.31783 0.20943 0.0
H6043 H 0.4775 0.30472 0.22224 0.0
H6044 H 0.67995 0.40903 0.18015 0.0
H6045 H 0.68974 0.42192 0.19069 0.0
H6046 H 0.66151 0.44213 0.1927 0.0
H6047 H 0.65169 0.42936 0.18216 0.0
H6048 H 0.69453 0.44283 0.18819 0.0
H6049 H 0.66811 0.43837 0.22387 0.0
H6050 H 0.66743 0.42959 0.21256 0.0
H6051 H 0.66118 0.44264 0.21209 0.0
C6052 C 0.67585 0.41628 0.18269 0.0
C6053 C 0.66494 0.41802 0.18044 0.0
C6054 C 0.68145 0.42363 0.1888 0.0
C6055 C 0.67628 0.43285 0.19281 0.0
C6056 C 0.66559 0.4349 0.19005 0.0
H6057 H 0.69934 0.48432 0.2332 0.0
H6058 H 0.68847 0.47322 0.22173 0.0
C6059 C 0.65999 0.42758 0.18397 0.0
C6060 C 0.68206 0.44026 0.1999 0.0
H6061 H 0.68142 0.45153 0.22473 0.0
C6062 C 0.69167 0.4447 0.19618 0.0
C6063 C 0.67829 0.4428 0.21033 0.0
C6064 C 0.66824 0.43803 0.21501 0.0
C6065 C 0.69759 0.45156 0.20257 0.0
C6066 C 0.69392 0.45392 0.21304 0.0
C6067 C 0.68422 0.44968 0.21671 0.0
C6068 C 0.70028 0.46046 0.2204 0.0
C6069 C 0.70769 0.45634 0.19803 0.0
C6070 C 0.71039 0.45682 0.2237 0.0
C6071 C 0.71657 0.46306 0.23037 0.0
C6072 C 0.71279 0.47311 0.23386 0.0
C6073 C 0.70251 0.4766 0.23075 0.0
C6074 C 0.69629 0.4703 0.22413 0.0
H6075 H 0.70801 0.4559 0.18918 0.0
H6076 H 0.70835 0.46483 0.20042 0.0
H6077 H 0.71473 0.45188 0.20119 0.0
H6078 H 0.71352 0.44913 0.22112 0.0
H6079 H 0.72431 0.45995 0.23281 0.0
H6080 H 0.61717 0.39707 0.84076 0.0
H6081 H 0.60305 0.3919 0.8284 0.0
H6082 H 0.61219 0.35879 0.83255 0.0
H6083 H 0.62622 0.36383 0.84471 0.0
H6084 H 0.60398 0.38054 0.80917 0.0
H6085 H 0.58032 0.35826 0.8394 0.0
H6086 H 0.59059 0.36749 0.84298 0.0
H6087 H 0.59413 0.3541 0.83895 0.0
C6088 C 0.6162 0.3887 0.83899 0.0
C6089 C 0.62274 0.38086 0.84391 0.0
C6090 C 0.60809 0.38575 0.83196 0.0
C6091 C 0.60636 0.37492 0.82976 0.0
C6092 C 0.61312 0.36716 0.83437 0.0
H6093 H 0.56962 0.33526 0.78903 0.0
H6094 H 0.58266 0.34352 0.80054 0.0
C6095 C 0.62117 0.37008 0.84135 0.0
C6096 C 0.59767 0.37159 0.82252 0.0
H6097 H 0.57631 0.35498 0.82114 0.0
C6098 C 0.59783 0.37507 0.81182 0.0
C6099 C 0.58962 0.36447 0.82597 0.0
C6100 C 0.58856 0.36094 0.83748 0.0
C6101 C 0.59044 0.37127 0.80442 0.0
C6102 C 0.58269 0.36385 0.80781 0.0
C6103 C 0.58234 0.3606 0.81854 0.0
C6104 C 0.575 0.35913 0.80032 0.0
C6105 C 0.59117 0.37489 0.79292 0.0
C6106 C 0.56634 0.36517 0.79638 0.0
C6107 C 0.55867 0.36041 0.78998 0.0
C6108 C 0.55954 0.3495 0.78732 0.0
C6109 C 0.56845 0.34359 0.79108 0.0
C6110 C 0.57601 0.34832 0.79759 0.0
H6111 H 0.59835 0.37978 0.79131 0.0
H6112 H 0.59142 0.36786 0.78757 0.0
H6113 H 0.58394 0.37973 0.79093 0.0
H6114 H 0.56535 0.3735 0.79849 0.0
H6115 H 0.5519 0.36523 0.7874 0.0
H6116 H 0.68334 0.57129 0.85112 0.0
H6117 H 0.69696 0.56182 0.84025 0.0
H6118 H 0.72174 0.57984 0.85502 0.0
H6119 H 0.70836 0.58953 0.86554 0.0
H6120 H 0.71222 0.5734 0.82606 0.0
H6121 H 0.73238 0.54778 0.85649 0.0
H6122 H 0.71871 0.55255 0.85803 0.0
H6123 H 0.72959 0.56137 0.86032 0.0
C6124 C 0.69169 0.57322 0.85206 0.0
C6125 C 0.69471 0.58115 0.85927 0.0
C6126 C 0.69945 0.56775 0.84592 0.0
C6127 C 0.71033 0.57005 0.84698 0.0
C6128 C 0.71339 0.57779 0.85426 0.0
H6129 H 0.76995 0.55955 0.8137 0.0
H6130 H 0.75503 0.56581 0.82494 0.0
C6131 C 0.70569 0.58331 0.8603 0.0
C6132 C 0.7185 0.56516 0.83983 0.0
H6133 H 0.74132 0.54976 0.83976 0.0
C6134 C 0.7185 0.56811 0.829 0.0
C6135 C 0.72671 0.55835 0.84377 0.0
C6136 C 0.72687 0.55473 0.85527 0.0
C6137 C 0.72669 0.56462 0.82203 0.0
C6138 C 0.73499 0.558 0.82602 0.0
C6139 C 0.73492 0.55489 0.8368 0.0
C6140 C 0.7439 0.55428 0.81912 0.0
C6141 C 0.72663 0.56822 0.81051 0.0
C6142 C 0.7425 0.54569 0.81223 0.0
C6143 C 0.75106 0.54191 0.80597 0.0
C6144 C 0.76114 0.54673 0.80643 0.0
C6145 C 0.7624 0.55547 0.81329 0.0
C6146 C 0.75387 0.55914 0.81965 0.0
H6147 H 0.72003 0.57403 0.80885 0.0
H6148 H 0.73437 0.57195 0.80838 0.0
H6149 H 0.72572 0.56119 0.80529 0.0
H6150 H 0.73484 0.54182 0.81181 0.0
H6151 H 0.7498 0.53506 0.80094 0.0
H6152 H 0.38906 0.72027 0.81455 0.0
H6153 H 0.40677 0.72258 0.80602 0.0
H6154 H 0.40747 0.68937 0.79717 0.0
H6155 H 0.39003 0.68696 0.80572 0.0
H6156 H 0.42791 0.70596 0.80838 0.0
H6157 H 0.40802 0.71133 0.76901 0.0
H6158 H 0.40147 0.71516 0.78139 0.0
H6159 H 0.40315 0.70131 0.77818 0.0
C6160 C 0.39313 0.71346 0.81096 0.0
C6161 C 0.38816 0.7035 0.81054 0.0
C6162 C 0.40315 0.71478 0.80611 0.0
C6163 C 0.40817 0.70615 0.8009 0.0
C6164 C 0.40355 0.69609 0.80109 0.0
H6165 H 0.46119 0.70157 0.75563 0.0
H6166 H 0.44486 0.69791 0.76587 0.0
C6167 C 0.39362 0.69476 0.80592 0.0
C6168 C 0.41792 0.70764 0.79459 0.0
H6169 H 0.42685 0.71074 0.76898 0.0
C6170 C 0.42774 0.70708 0.79978 0.0
C6171 C 0.4175 0.70879 0.78339 0.0
C6172 C 0.40699 0.70922 0.77759 0.0
C6173 C 0.43732 0.70771 0.79396 0.0
C6174 C 0.4369 0.70922 0.78277 0.0
C6175 C 0.42706 0.70958 0.77757 0.0
C6176 C 0.44657 0.71132 0.77647 0.0
C6177 C 0.44778 0.70663 0.79981 0.0
C6178 C 0.45266 0.72017 0.77896 0.0
C6179 C 0.46213 0.72203 0.77349 0.0
C6180 C 0.46546 0.71536 0.76503 0.0
C6181 C 0.45901 0.70676 0.76221 0.0
C6182 C 0.44964 0.7047 0.76796 0.0
H6183 H 0.44676 0.70236 0.80755 0.0
H6184 H 0.4539 0.70228 0.79492 0.0
H6185 H 0.45083 0.7147 0.80152 0.0
H6186 H 0.45021 0.72552 0.78533 0.0
H6187 H 0.46694 0.72855 0.77619 0.0
H6188 H 0.27489 0.3959 0.81354 0.0
H6189 H 0.26409 0.4116 0.80811 0.0
H6190 H 0.28896 0.43226 0.81878 0.0
H6191 H 0.29983 0.4167 0.82383 0.0
H6192 H 0.25552 0.42848 0.81802 0.0
H6193 H 0.28574 0.44357 0.78928 0.0
H6194 H 0.2869 0.43051 0.79535 0.0
H6195 H 0.2911 0.44218 0.80242 0.0
C6196 C 0.278 0.40381 0.81478 0.0
C6197 C 0.28828 0.40505 0.81899 0.0
C6198 C 0.27184 0.41279 0.81163 0.0
C6199 C 0.27582 0.42318 0.81268 0.0
C6200 C 0.28584 0.42438 0.81745 0.0
H6201 H 0.25518 0.48852 0.80047 0.0
H6202 H 0.26404 0.47187 0.80614 0.0
C6203 C 0.29203 0.41546 0.82044 0.0
C6204 C 0.26956 0.43277 0.80893 0.0
H6205 H 0.27157 0.45569 0.794 0.0
C6206 C 0.259 0.43438 0.81268 0.0
C6207 C 0.27404 0.44051 0.80191 0.0
C6208 C 0.28502 0.43906 0.79692 0.0
C6209 C 0.25299 0.44362 0.80997 0.0
C6210 C 0.25758 0.45146 0.80319 0.0
C6211 C 0.26805 0.44976 0.79928 0.0
C6212 C 0.2518 0.46157 0.80014 0.0
C6213 C 0.2419 0.44506 0.81471 0.0
C6214 C 0.24193 0.4614 0.79487 0.0
C6215 C 0.23678 0.47095 0.79173 0.0
C6216 C 0.24151 0.48086 0.79357 0.0
C6217 C 0.25138 0.48101 0.79885 0.0
C6218 C 0.25644 0.47149 0.80211 0.0
H6219 H 0.24064 0.43982 0.8218 0.0
H6220 H 0.24038 0.45348 0.81709 0.0
H6221 H 0.2359 0.44294 0.80866 0.0
H6222 H 0.23829 0.45388 0.79298 0.0
H6223 H 0.22925 0.47058 0.78757 0.0
H6224 H 0.72851 0.654 0.25063 0.0
H6225 H 0.73307 0.63559 0.25532 0.0
H6226 H 0.7377 0.62814 0.22204 0.0
H6227 H 0.73258 0.64648 0.21714 0.0
H6228 H 0.72108 0.61749 0.24735 0.0
H6229 H 0.76464 0.61493 0.2378 0.0
H6230 H 0.75778 0.62741 0.24072 0.0
H6231 H 0.75627 0.62129 0.22794 0.0
C6232 C 0.73042 0.64849 0.24423 0.0
C6233 C 0.7299 0.6518 0.23345 0.0
C6234 C 0.73314 0.63796 0.24698 0.0
C6235 C 0.73572 0.63049 0.23905 0.0
C6236 C 0.73582 0.63381 0.22831 0.0
H6237 H 0.74322 0.56177 0.23765 0.0
H6238 H 0.74175 0.5808 0.23362 0.0
C6239 C 0.73292 0.64435 0.22552 0.0
C6240 C 0.73743 0.61906 0.242 0.0
H6241 H 0.75607 0.59874 0.24225 0.0
C6242 C 0.72874 0.6134 0.24629 0.0
C6243 C 0.74744 0.61377 0.24066 0.0
C6244 C 0.75712 0.61963 0.23661 0.0
C6245 C 0.72975 0.60254 0.24904 0.0
C6246 C 0.73971 0.59721 0.24754 0.0
C6247 C 0.74843 0.60286 0.24335 0.0
C6248 C 0.74112 0.58569 0.25012 0.0
C6249 C 0.72012 0.59672 0.25333 0.0
C6250 C 0.7414 0.58214 0.26076 0.0
C6251 C 0.74252 0.57123 0.26314 0.0
C6252 C 0.74325 0.5636 0.25492 0.0
C6253 C 0.74295 0.56729 0.24425 0.0
C6254 C 0.74201 0.5782 0.24189 0.0
H6255 H 0.71265 0.60163 0.25273 0.0
H6256 H 0.71906 0.58917 0.24891 0.0
H6257 H 0.72138 0.59462 0.26185 0.0
H6258 H 0.74079 0.58782 0.26723 0.0
H6259 H 0.74294 0.56884 0.27145 0.0
H6260 H 0.70477 0.4426 0.83231 0.0
H6261 H 0.71802 0.45372 0.82348 0.0
H6262 H 0.73317 0.45906 0.85364 0.0
H6263 H 0.71966 0.4481 0.86272 0.0
H6264 H 0.72304 0.4756 0.82758 0.0
H6265 H 0.75759 0.44763 0.83348 0.0
H6266 H 0.74387 0.4435 0.83494 0.0
H6267 H 0.74992 0.45113 0.84524 0.0
C6268 C 0.71079 0.44625 0.83717 0.0
C6269 C 0.71103 0.44449 0.84829 0.0
C6270 C 0.71842 0.45256 0.83205 0.0
C6271 C 0.72661 0.45716 0.83788 0.0
C6272 C 0.72697 0.45547 0.84897 0.0
H6273 H 0.78099 0.49395 0.81594 0.0
H6274 H 0.76793 0.48456 0.82649 0.0
C6275 C 0.71926 0.44917 0.85414 0.0
C6276 C 0.73473 0.46367 0.83219 0.0
H6277 H 0.76109 0.46388 0.82462 0.0
C6278 C 0.73137 0.47308 0.82696 0.0
C6279 C 0.74557 0.46032 0.83137 0.0
C6280 C 0.7495 0.45006 0.83647 0.0
C6281 C 0.73858 0.47925 0.82095 0.0
C6282 C 0.7494 0.47582 0.82 0.0
C6283 C 0.75279 0.46649 0.82536 0.0
C6284 C 0.7573 0.48175 0.81341 0.0
C6285 C 0.73459 0.48949 0.81581 0.0
C6286 C 0.75577 0.48325 0.80244 0.0
C6287 C 0.76305 0.4891 0.7963 0.0
C6288 C 0.77235 0.49335 0.80085 0.0
C6289 C 0.77397 0.49135 0.81187 0.0
C6290 C 0.76651 0.48575 0.81804 0.0
H6291 H 0.72687 0.49228 0.81939 0.0
H6292 H 0.74055 0.4959 0.81658 0.0
H6293 H 0.7333 0.48813 0.80718 0.0
H6294 H 0.74885 0.47997 0.79862 0.0
H6295 H 0.76109 0.49033 0.78802 0.0
H6296 H 0.60692 0.66514 0.85547 0.0
H6297 H 0.59554 0.67493 0.8429 0.0
H6298 H 0.58507 0.64519 0.82985 0.0
H6299 H 0.59556 0.63537 0.84293 0.0
H6300 H 0.59739 0.67501 0.82164 0.0
H6301 H 0.55703 0.66037 0.83242 0.0
H6302 H 0.5684 0.65832 0.84097 0.0
H6303 H 0.56645 0.64976 0.82969 0.0
C6304 C 0.60193 0.66065 0.8502 0.0
C6305 C 0.60231 0.6494 0.85023 0.0
C6306 C 0.59551 0.66628 0.8429 0.0
C6307 C 0.58937 0.66082 0.83546 0.0
C6308 C 0.58953 0.64962 0.83564 0.0
H6309 H 0.55178 0.67978 0.78024 0.0
H6310 H 0.56227 0.66997 0.79359 0.0
C6311 C 0.59574 0.644 0.84305 0.0
C6312 C 0.58332 0.66678 0.8271 0.0
H6313 H 0.55863 0.66978 0.81591 0.0
C6314 C 0.58889 0.67393 0.82046 0.0
C6315 C 0.57225 0.66529 0.82547 0.0
C6316 C 0.56566 0.6581 0.83258 0.0
C6317 C 0.58374 0.67955 0.81219 0.0
C6318 C 0.57269 0.67806 0.81058 0.0
C6319 C 0.56712 0.67087 0.81715 0.0
C6320 C 0.56671 0.68405 0.80227 0.0
C6321 C 0.5902 0.68688 0.8051 0.0
C6322 C 0.56571 0.69521 0.80275 0.0
C6323 C 0.55984 0.70085 0.79508 0.0
C6324 C 0.55473 0.69543 0.78682 0.0
C6325 C 0.55574 0.68423 0.78637 0.0
C6326 C 0.56166 0.6786 0.79404 0.0
H6327 H 0.59893 0.68524 0.80575 0.0
H6328 H 0.58788 0.68607 0.79662 0.0
H6329 H 0.58863 0.69528 0.8075 0.0
H6330 H 0.56937 0.69955 0.80914 0.0
H6331 H 0.55932 0.70947 0.79562 0.0
H6332 H 0.28244 0.65232 0.83186 0.0
H6333 H 0.27296 0.63641 0.82684 0.0
H6334 H 0.30211 0.62301 0.81325 0.0
H6335 H 0.31188 0.63882 0.81892 0.0
H6336 H 0.26915 0.62736 0.80866 0.0
H6337 H 0.29359 0.59957 0.83361 0.0
H6338 H 0.29473 0.61388 0.83437 0.0
H6339 H 0.30112 0.60665 0.82361 0.0
C6340 C 0.28686 0.64597 0.82784 0.0
C6341 C 0.29794 0.64666 0.82603 0.0
C6342 C 0.28142 0.63691 0.82492 0.0
C6343 C 0.2869 0.62842 0.81996 0.0
C6344 C 0.29782 0.62937 0.81739 0.0
H6345 H 0.26518 0.56839 0.79763 0.0
H6346 H 0.27545 0.58367 0.80328 0.0
C6347 C 0.30335 0.63844 0.82047 0.0
C6348 C 0.28101 0.61861 0.8177 0.0
H6349 H 0.28012 0.59193 0.8232 0.0
C6350 C 0.27153 0.61961 0.81185 0.0
C6351 C 0.28411 0.60856 0.82199 0.0
C6352 C 0.29388 0.60708 0.82883 0.0
C6353 C 0.26511 0.6108 0.81007 0.0
C6354 C 0.26827 0.60075 0.81427 0.0
C6355 C 0.27774 0.59971 0.82007 0.0
C6356 C 0.26227 0.59108 0.81201 0.0
C6357 C 0.25511 0.61229 0.80354 0.0
C6358 C 0.25159 0.59008 0.8154 0.0
C6359 C 0.24565 0.58143 0.81205 0.0
C6360 C 0.2504 0.5737 0.80536 0.0
C6361 C 0.26129 0.57439 0.8026 0.0
C6362 C 0.26717 0.58304 0.80587 0.0
H6363 H 0.25502 0.62001 0.7991 0.0
H6364 H 0.25434 0.60571 0.79773 0.0
H6365 H 0.248 0.61222 0.80894 0.0
H6366 H 0.24777 0.59614 0.82034 0.0
H6367 H 0.23726 0.58106 0.81428 0.0
H6368 H 0.37801 0.32492 0.8024 0.0
H6369 H 0.39552 0.32208 0.79362 0.0
H6370 H 0.40629 0.35187 0.80631 0.0
H6371 H 0.38871 0.3548 0.81498 0.0
H6372 H 0.40673 0.33574 0.77849 0.0
H6373 H 0.42902 0.32891 0.81608 0.0
H6374 H 0.41465 0.32789 0.81535 0.0
H6375 H 0.4207 0.34077 0.81583 0.0
C6376 C 0.3841 0.33091 0.80321 0.0
C6377 C 0.38201 0.34011 0.8093 0.0
C6378 C 0.39408 0.32927 0.79822 0.0
C6379 C 0.40225 0.33669 0.79942 0.0
C6380 C 0.40014 0.34598 0.80538 0.0
H6381 H 0.46786 0.34319 0.77812 0.0
H6382 H 0.44967 0.34544 0.78557 0.0
C6383 C 0.39008 0.3477 0.81023 0.0
C6384 C 0.41296 0.33474 0.79441 0.0
H6385 H 0.43937 0.33061 0.8002 0.0
C6386 C 0.41386 0.33456 0.78322 0.0
C6387 C 0.42224 0.3331 0.80061 0.0
C6388 C 0.42166 0.33257 0.81264 0.0
C6389 C 0.42385 0.33314 0.77807 0.0
C6390 C 0.43315 0.33176 0.78429 0.0
C6391 C 0.43223 0.33175 0.79546 0.0
C6392 C 0.44395 0.33054 0.77936 0.0
C6393 C 0.42447 0.33343 0.76604 0.0
C6394 C 0.44675 0.32141 0.77342 0.0
C6395 C 0.45711 0.32013 0.76919 0.0
C6396 C 0.46477 0.32797 0.77083 0.0
C6397 C 0.46198 0.33712 0.77669 0.0
C6398 C 0.45165 0.33837 0.78096 0.0
H6399 H 0.41686 0.33636 0.76246 0.0
H6400 H 0.43107 0.33864 0.76327 0.0
H6401 H 0.42618 0.32526 0.76303 0.0
H6402 H 0.44098 0.31518 0.77224 0.0
H6403 H 0.4592 0.31296 0.76478 0.0
H6404 H 0.37488 0.44519 0.14864 0.0
H6405 H 0.36408 0.45761 0.15946 0.0
H6406 H 0.33635 0.43831 0.15487 0.0
H6407 H 0.34712 0.42563 0.14436 0.0
H6408 H 0.34406 0.46959 0.15535 0.0
H6409 H 0.34018 0.43949 0.18792 0.0
H6410 H 0.35047 0.43863 0.17769 0.0
H6411 H 0.33704 0.4348 0.17482 0.0
C6412 C 0.36649 0.44354 0.14991 0.0
C6413 C 0.36197 0.43423 0.14571 0.0
C6414 C 0.3603 0.45073 0.15605 0.0
C6415 C 0.34944 0.44881 0.15814 0.0
C6416 C 0.34476 0.43988 0.15349 0.0
H6417 H 0.29728 0.4761 0.1953 0.0
H6418 H 0.30901 0.46648 0.1826 0.0
C6419 C 0.35093 0.43268 0.14737 0.0
C6420 C 0.34313 0.45576 0.16562 0.0
H6421 H 0.32954 0.4552 0.18951 0.0
C6422 C 0.34094 0.46647 0.16284 0.0
C6423 C 0.33918 0.45175 0.17548 0.0
C6424 C 0.34189 0.44057 0.17926 0.0
C6425 C 0.33456 0.47312 0.1695 0.0
C6426 C 0.33032 0.46895 0.17916 0.0
C6427 C 0.33271 0.45834 0.18204 0.0
C6428 C 0.32316 0.47534 0.18634 0.0
C6429 C 0.33214 0.48446 0.16607 0.0
C6430 C 0.32725 0.48347 0.19269 0.0
C6431 C 0.3206 0.48885 0.20007 0.0
C6432 C 0.30973 0.48626 0.2011 0.0
C6433 C 0.30562 0.47828 0.19459 0.0
C6434 C 0.3123 0.47279 0.18735 0.0
H6435 H 0.33509 0.48617 0.15784 0.0
H6436 H 0.32337 0.48607 0.16646 0.0
H6437 H 0.33598 0.49003 0.17163 0.0
H6438 H 0.33563 0.48548 0.19212 0.0
H6439 H 0.32393 0.49499 0.20501 0.0
H6440 H 0.57882 0.33053 0.15986 0.0
H6441 H 0.56629 0.31921 0.16953 0.0
H6442 H 0.58025 0.32816 0.19934 0.0
H6443 H 0.59331 0.33908 0.18973 0.0
H6444 H 0.57266 0.30152 0.18355 0.0
H6445 H 0.54697 0.33206 0.20383 0.0
H6446 H 0.55484 0.33495 0.19198 0.0
H6447 H 0.56118 0.33394 0.20473 0.0
C6448 C 0.57937 0.33007 0.16847 0.0
C6449 C 0.58736 0.33563 0.17392 0.0
C6450 C 0.57209 0.32364 0.17399 0.0
C6451 C 0.57234 0.3228 0.18514 0.0
C6452 C 0.57987 0.32873 0.19071 0.0
H6453 H 0.54203 0.28369 0.23355 0.0
H6454 H 0.55365 0.29527 0.22301 0.0
C6455 C 0.58731 0.33505 0.18518 0.0
C6456 C 0.56514 0.31527 0.19087 0.0
H6457 H 0.54466 0.31407 0.20919 0.0
C6458 C 0.5665 0.30426 0.18912 0.0
C6459 C 0.55704 0.31886 0.19805 0.0
C6460 C 0.5548 0.3306 0.19974 0.0
C6461 C 0.56018 0.29674 0.19458 0.0
C6462 C 0.55228 0.30034 0.20196 0.0
C6463 C 0.5508 0.31134 0.2036 0.0
C6464 C 0.54551 0.29282 0.20815 0.0
C6465 C 0.56209 0.28499 0.19265 0.0
C6466 C 0.53707 0.28758 0.20327 0.0
C6467 C 0.53016 0.28116 0.20933 0.0
C6468 C 0.53162 0.27973 0.22041 0.0
C6469 C 0.54037 0.28476 0.22515 0.0
C6470 C 0.54714 0.29131 0.21911 0.0
H6471 H 0.56924 0.28345 0.18748 0.0
H6472 H 0.56316 0.28071 0.20037 0.0
H6473 H 0.555 0.28163 0.18873 0.0
H6474 H 0.53563 0.28871 0.19482 0.0
H6475 H 0.52348 0.27765 0.20533 0.0
H6476 H 0.43054 0.70702 0.19021 0.0
H6477 H 0.44153 0.71803 0.2016 0.0
H6478 H 0.46405 0.6918 0.20533 0.0
H6479 H 0.45295 0.68067 0.19384 0.0
H6480 H 0.4474 0.71376 0.22289 0.0
H6481 H 0.48276 0.71758 0.19574 0.0
H6482 H 0.46987 0.7134 0.19113 0.0
H6483 H 0.4783 0.70422 0.19838 0.0
C6484 C 0.43783 0.7036 0.19349 0.0
C6485 C 0.44093 0.69303 0.19118 0.0
C6486 C 0.4441 0.70989 0.19996 0.0
C6487 C 0.45367 0.70578 0.20418 0.0
C6488 C 0.45676 0.69516 0.20201 0.0
H6489 H 0.49807 0.73499 0.24782 0.0
H6490 H 0.48864 0.72262 0.23624 0.0
C6491 C 0.45039 0.68879 0.19557 0.0
C6492 C 0.46009 0.71264 0.21114 0.0
H6493 H 0.48378 0.72573 0.21265 0.0
C6494 C 0.45537 0.71635 0.22067 0.0
C6495 C 0.47044 0.71606 0.20816 0.0
C6496 C 0.47566 0.7127 0.19776 0.0
C6497 C 0.46073 0.72337 0.22733 0.0
C6498 C 0.47105 0.72682 0.22435 0.0
C6499 C 0.47585 0.72304 0.21488 0.0
C6500 C 0.47693 0.73439 0.231 0.0
C6501 C 0.45536 0.72702 0.23756 0.0
C6502 C 0.47352 0.7451 0.23174 0.0
C6503 C 0.47895 0.75218 0.23824 0.0
C6504 C 0.48777 0.74858 0.24419 0.0
C6505 C 0.49121 0.73788 0.24338 0.0
C6506 C 0.48589 0.73085 0.23676 0.0
H6507 H 0.44821 0.72222 0.23961 0.0
H6508 H 0.46105 0.7265 0.24429 0.0
H6509 H 0.45276 0.7355 0.23668 0.0
H6510 H 0.46665 0.74797 0.2273 0.0
H6511 H 0.47618 0.7604 0.23876 0.0
loop_
_geom_bond_atom_site_label_1
_geom_bond_atom_site_label_2
_geom_bond_distance
_geom_bond_site_symmetry_2
_ccdc_geom_bond_type
C0 C1 1.264 . S
C0 C5 1.479 . S
C0 C10 1.465 . S
C1 C0 1.264 . S
C1 C3 1.339 . S
C1 H28 0.931 . S
C2 C3 1.395 . S
C2 C4 1.320 . S
C3 C1 1.339 . S
C3 C2 1.395 . S
C3 H29 0.929 . S
C4 C2 1.320 . S
C4 C5 1.405 . S
C4 H30 0.930 . S
C5 C0 1.479 . S
C5 C4 1.405 . S
C5 H31 0.931 . S
U6 O7 2.454 . S
U6 O8 2.458 . S
U6 C9 2.984 . S
U6 C10 2.847 . S
U6 C23 2.882 . S
U6 O24 2.441 . S
U6 O25 2.420 . S
U6 O26 2.455 . S
U6 O27 2.449 . S
O7 U6 2.454 . S
O7 C9 1.353 . S
O8 U6 2.458 . S
O8 C9 1.286 . S
C9 U6 2.984 . S
C9 O7 1.353 . S
C9 O8 1.286 . S
C9 C11 1.363 . S
C10 C0 1.465 . S
C10 U6 2.847 . S
C10 O24 1.249 . S
C10 O25 1.202 . S
C11 C9 1.363 . S
C11 C13 1.408 . S
C11 C16 1.342 . S
C12 C13 1.310 . S
C12 C15 1.461 . S
C12 H32 0.932 . S
C13 C11 1.408 . S
C13 C12 1.310 . S
C13 H33 0.930 . S
C14 C15 1.474 . S
C14 C16 1.285 . S
C14 H34 0.929 . S
C15 C12 1.461 . S
C15 C14 1.474 . S
C16 C11 1.342 . S
C16 C14 1.285 . S
C16 H35 0.930 . S
C17 C20 1.424 . S
C17 C22 1.245 . S
C17 C23 1.428 . S
C18 C21 1.260 . S
C18 C22 1.477 . S
C18 H36 0.932 . S
C19 C20 1.384 . S
C19 C21 1.479 . S
C19 H37 0.929 . S
C20 C17 1.424 . S
C20 C19 1.384 . S
C20 H38 0.928 . S
C21 C18 1.260 . S
C21 C19 1.479 . S
C22 C17 1.245 . S
C22 C18 1.477 . S
C22 H39 0.932 . S
C23 U6 2.882 . S
C23 C17 1.428 . S
C23 O26 1.301 . S
C23 O27 1.282 . S
O24 U6 2.441 . S
O24 C10 1.249 . S
O25 U6 2.420 . S
O25 C10 1.202 . S
O26 U6 2.455 . S
O26 C23 1.301 . S
O27 U6 2.449 . S
O27 C23 1.282 . S
H28 C1 0.931 . S
H29 C3 0.929 . S
H30 C4 0.930 . S
H31 C5 0.931 . S
H32 C12 0.932 . S
H33 C13 0.930 . S
H34 C14 0.929 . S
H35 C16 0.930 . S
H36 C18 0.932 . S
H37 C19 0.929 . S
H38 C20 0.928 . S
H39 C22 0.932 . S
C40 C41 1.264 . S
C40 C45 1.479 . S
C40 C50 1.465 . S
C41 C40 1.264 . S
C41 C43 1.339 . S
C41 H68 0.931 . S
C42 C43 1.395 . S
C42 C44 1.320 . S
C43 C41 1.339 . S
C43 C42 1.395 . S
C43 H69 0.929 . S
C44 C42 1.320 . S
C44 C45 1.405 . S
C44 H70 0.930 . S
C45 C40 1.479 . S
C45 C44 1.405 . S
C45 H71 0.931 . S
U46 O47 2.454 . S
U46 O48 2.458 . S
U46 C49 2.984 . S
U46 C50 2.847 . S
U46 C63 2.882 . S
U46 O64 2.441 . S
U46 O65 2.420 . S
U46 O66 2.455 . S
U46 O67 2.449 . S
O47 U46 2.454 . S
O47 C49 1.353 . S
O48 U46 2.458 . S
O48 C49 1.286 . S
C49 U46 2.984 . S
C49 O47 1.353 . S
C49 O48 1.286 . S
C49 C51 1.363 . S
C50 C40 1.465 . S
C50 U46 2.847 . S
C50 O64 1.249 . S
C50 O65 1.202 . S
C51 C49 1.363 . S
C51 C53 1.408 . S
C51 C56 1.342 . S
C52 C53 1.310 . S
C52 C55 1.461 . S
C52 H72 0.932 . S
C53 C51 1.408 . S
C53 C52 1.310 . S
C53 H73 0.930 . S
C54 C55 1.474 . S
C54 C56 1.285 . S
C54 H74 0.929 . S
C55 C52 1.461 . S
C55 C54 1.474 . S
C56 C51 1.342 . S
C56 C54 1.285 . S
C56 H75 0.930 . S
C57 C60 1.424 . S
C57 C62 1.245 . S
C57 C63 1.428 . S
C58 C61 1.260 . S
C58 C62 1.477 . S
C58 H76 0.932 . S
C59 C60 1.384 . S
C59 C61 1.479 . S
C59 H77 0.929 . S
C60 C57 1.424 . S
C60 C59 1.384 . S
C60 H78 0.928 . S
C61 C58 1.260 . S
C61 C59 1.479 . S
C62 C57 1.245 . S
C62 C58 1.477 . S
C62 H79 0.932 . S
C63 U46 2.882 . S
C63 C57 1.428 . S
C63 O66 1.301 . S
C63 O67 1.282 . S
O64 U46 2.441 . S
O64 C50 1.249 . S
O65 U46 2.420 . S
O65 C50 1.202 . S
O66 U46 2.455 . S
O66 C63 1.301 . S
O67 U46 2.449 . S
O67 C63 1.282 . S
H68 C41 0.931 . S
H69 C43 0.929 . S
H70 C44 0.930 . S
H71 C45 0.931 . S
H72 C52 0.932 . S
H73 C53 0.930 . S
H74 C54 0.929 . S
H75 C56 0.930 . S
H76 C58 0.932 . S
H77 C59 0.929 . S
H78 C60 0.928 . S
H79 C62 0.932 . S
C80 C81 1.264 . S
C80 C85 1.479 . S
C80 C90 1.465 . S
C81 C80 1.264 . S
C81 C83 1.339 . S
C81 H108 0.931 . S
C82 C83 1.395 . S
C82 C84 1.320 . S
C83 C81 1.339 . S
C83 C82 1.395 . S
C83 H109 0.929 . S
C84 C82 1.320 . S
C84 C85 1.405 . S
C84 H110 0.930 . S
C85 C80 1.479 . S
C85 C84 1.405 . S
C85 H111 0.931 . S
U86 O87 2.454 . S
U86 O88 2.458 . S
U86 C89 2.984 . S
U86 C90 2.847 . S
U86 C103 2.882 . S
U86 O104 2.441 . S
U86 O105 2.420 . S
U86 O106 2.455 . S
U86 O107 2.449 . S
O87 U86 2.454 . S
O87 C89 1.353 . S
O88 U86 2.458 . S
O88 C89 1.286 . S
C89 U86 2.984 . S
C89 O87 1.353 . S
C89 O88 1.286 . S
C89 C91 1.363 . S
C90 C80 1.465 . S
C90 U86 2.847 . S
C90 O104 1.249 . S
C90 O105 1.202 . S
C91 C89 1.363 . S
C91 C93 1.408 . S
C91 C96 1.342 . S
C92 C93 1.310 . S
C92 C95 1.461 . S
C92 H112 0.932 . S
C93 C91 1.408 . S
C93 C92 1.310 . S
C93 H113 0.930 . S
C94 C95 1.474 . S
C94 C96 1.285 . S
C94 H114 0.929 . S
C95 C92 1.461 . S
C95 C94 1.474 . S
C96 C91 1.342 . S
C96 C94 1.285 . S
C96 H115 0.930 . S
C97 C100 1.424 . S
C97 C102 1.245 . S
C97 C103 1.428 . S
C98 C101 1.260 . S
C98 C102 1.477 . S
C98 H116 0.932 . S
C99 C100 1.384 . S
C99 C101 1.479 . S
C99 H117 0.929 . S
C100 C97 1.424 . S
C100 C99 1.384 . S
C100 H118 0.928 . S
C101 C98 1.260 . S
C101 C99 1.479 . S
C102 C97 1.245 . S
C102 C98 1.477 . S
C102 H119 0.932 . S
C103 U86 2.882 . S
C103 C97 1.428 . S
C103 O106 1.301 . S
C103 O107 1.282 . S
O104 U86 2.441 . S
O104 C90 1.249 . S
O105 U86 2.420 . S
O105 C90 1.202 . S
O106 U86 2.455 . S
O106 C103 1.301 . S
O107 U86 2.449 . S
O107 C103 1.282 . S
H108 C81 0.931 . S
H109 C83 0.929 . S
H110 C84 0.930 . S
H111 C85 0.931 . S
H112 C92 0.932 . S
H113 C93 0.930 . S
H114 C94 0.929 . S
H115 C96 0.930 . S
H116 C98 0.932 . S
H117 C99 0.929 . S
H118 C100 0.928 . S
H119 C102 0.932 . S
C120 C121 1.264 . S
C120 C125 1.479 . S
C120 C130 1.465 . S
C121 C120 1.264 . S
C121 C123 1.339 . S
C121 H148 0.931 . S
C122 C123 1.395 . S
C122 C124 1.320 . S
C123 C121 1.339 . S
C123 C122 1.395 . S
C123 H149 0.929 . S
C124 C122 1.320 . S
C124 C125 1.405 . S
C124 H150 0.930 . S
C125 C120 1.479 . S
C125 C124 1.405 . S
C125 H151 0.931 . S
U126 O127 2.454 . S
U126 O128 2.458 . S
U126 C129 2.984 . S
U126 C130 2.847 . S
U126 C143 2.882 . S
U126 O144 2.441 . S
U126 O145 2.420 . S
U126 O146 2.455 . S
U126 O147 2.449 . S
O127 U126 2.454 . S
O127 C129 1.353 . S
O128 U126 2.458 . S
O128 C129 1.286 . S
C129 U126 2.984 . S
C129 O127 1.353 . S
C129 O128 1.286 . S
C129 C131 1.363 . S
C130 C120 1.465 . S
C130 U126 2.847 . S
C130 O144 1.249 . S
C130 O145 1.202 . S
C131 C129 1.363 . S
C131 C133 1.408 . S
C131 C136 1.342 . S
C132 C133 1.310 . S
C132 C135 1.461 . S
C132 H152 0.932 . S
C133 C131 1.408 . S
C133 C132 1.310 . S
C133 H153 0.930 . S
C134 C135 1.474 . S
C134 C136 1.285 . S
C134 H154 0.929 . S
C135 C132 1.461 . S
C135 C134 1.474 . S
C136 C131 1.342 . S
C136 C134 1.285 . S
C136 H155 0.930 . S
C137 C140 1.424 . S
C137 C142 1.245 . S
C137 C143 1.428 . S
C138 C141 1.260 . S
C138 C142 1.477 . S
C138 H156 0.932 . S
C139 C140 1.384 . S
C139 C141 1.479 . S
C139 H157 0.929 . S
C140 C137 1.424 . S
C140 C139 1.384 . S
C140 H158 0.928 . S
C141 C138 1.260 . S
C141 C139 1.479 . S
C142 C137 1.245 . S
C142 C138 1.477 . S
C142 H159 0.932 . S
C143 U126 2.882 . S
C143 C137 1.428 . S
C143 O146 1.301 . S
C143 O147 1.282 . S
O144 U126 2.441 . S
O144 C130 1.249 . S
O145 U126 2.420 . S
O145 C130 1.202 . S
O146 U126 2.455 . S
O146 C143 1.301 . S
O147 U126 2.449 . S
O147 C143 1.282 . S
H148 C121 0.931 . S
H149 C123 0.929 . S
H150 C124 0.930 . S
H151 C125 0.931 . S
H152 C132 0.932 . S
H153 C133 0.930 . S
H154 C134 0.929 . S
H155 C136 0.930 . S
H156 C138 0.932 . S
H157 C139 0.929 . S
H158 C140 0.928 . S
H159 C142 0.932 . S
C160 C161 1.264 . S
C160 C165 1.479 . S
C160 C170 1.465 . S
C161 C160 1.264 . S
C161 C163 1.339 . S
C161 H188 0.931 . S
C162 C163 1.395 . S
C162 C164 1.320 . S
C163 C161 1.339 . S
C163 C162 1.395 . S
C163 H189 0.929 . S
C164 C162 1.320 . S
C164 C165 1.405 . S
C164 H190 0.930 . S
C165 C160 1.479 . S
C165 C164 1.405 . S
C165 H191 0.931 . S
U166 O167 2.454 . S
U166 O168 2.458 . S
U166 C169 2.984 . S
U166 C170 2.847 . S
U166 C183 2.882 . S
U166 O184 2.441 . S
U166 O185 2.420 . S
U166 O186 2.455 . S
U166 O187 2.449 . S
O167 U166 2.454 . S
O167 C169 1.353 . S
O168 U166 2.458 . S
O168 C169 1.286 . S
C169 U166 2.984 . S
C169 O167 1.353 . S
C169 O168 1.286 . S
C169 C171 1.363 . S
C170 C160 1.465 . S
C170 U166 2.847 . S
C170 O184 1.249 . S
C170 O185 1.202 . S
C171 C169 1.363 . S
C171 C173 1.408 . S
C171 C176 1.342 . S
C172 C173 1.310 . S
C172 C175 1.461 . S
C172 H192 0.932 . S
C173 C171 1.408 . S
C173 C172 1.310 . S
C173 H193 0.930 . S
C174 C175 1.474 . S
C174 C176 1.285 . S
C174 H194 0.929 . S
C175 C172 1.461 . S
C175 C174 1.474 . S
C176 C171 1.342 . S
C176 C174 1.285 . S
C176 H195 0.930 . S
C177 C180 1.424 . S
C177 C182 1.245 . S
C177 C183 1.428 . S
C178 C181 1.260 . S
C178 C182 1.477 . S
C178 H196 0.932 . S
C179 C180 1.384 . S
C179 C181 1.479 . S
C179 H197 0.929 . S
C180 C177 1.424 . S
C180 C179 1.384 . S
C180 H198 0.928 . S
C181 C178 1.260 . S
C181 C179 1.479 . S
C182 C177 1.245 . S
C182 C178 1.477 . S
C182 H199 0.932 . S
C183 U166 2.882 . S
C183 C177 1.428 . S
C183 O186 1.301 . S
C183 O187 1.282 . S
O184 U166 2.441 . S
O184 C170 1.249 . S
O185 U166 2.420 . S
O185 C170 1.202 . S
O186 U166 2.455 . S
O186 C183 1.301 . S
O187 U166 2.449 . S
O187 C183 1.282 . S
H188 C161 0.931 . S
H189 C163 0.929 . S
H190 C164 0.930 . S
H191 C165 0.931 . S
H192 C172 0.932 . S
H193 C173 0.930 . S
H194 C174 0.929 . S
H195 C176 0.930 . S
H196 C178 0.932 . S
H197 C179 0.929 . S
H198 C180 0.928 . S
H199 C182 0.932 . S
C200 C201 1.264 . S
C200 C205 1.479 . S
C200 C210 1.465 . S
C201 C200 1.264 . S
C201 C203 1.339 . S
C201 H228 0.931 . S
C202 C203 1.395 . S
C202 C204 1.320 . S
C203 C201 1.339 . S
C203 C202 1.395 . S
C203 H229 0.929 . S
C204 C202 1.320 . S
C204 C205 1.405 . S
C204 H230 0.930 . S
C205 C200 1.479 . S
C205 C204 1.405 . S
C205 H231 0.931 . S
U206 O207 2.454 . S
U206 O208 2.458 . S
U206 C209 2.984 . S
U206 C210 2.847 . S
U206 C223 2.882 . S
U206 O224 2.441 . S
U206 O225 2.420 . S
U206 O226 2.455 . S
U206 O227 2.449 . S
O207 U206 2.454 . S
O207 C209 1.353 . S
O208 U206 2.458 . S
O208 C209 1.286 . S
C209 U206 2.984 . S
C209 O207 1.353 . S
C209 O208 1.286 . S
C209 C211 1.363 . S
C210 C200 1.465 . S
C210 U206 2.847 . S
C210 O224 1.249 . S
C210 O225 1.202 . S
C211 C209 1.363 . S
C211 C213 1.408 . S
C211 C216 1.342 . S
C212 C213 1.310 . S
C212 C215 1.461 . S
C212 H232 0.932 . S
C213 C211 1.408 . S
C213 C212 1.310 . S
C213 H233 0.930 . S
C214 C215 1.474 . S
C214 C216 1.285 . S
C214 H234 0.929 . S
C215 C212 1.461 . S
C215 C214 1.474 . S
C216 C211 1.342 . S
C216 C214 1.285 . S
C216 H235 0.930 . S
C217 C220 1.424 . S
C217 C222 1.245 . S
C217 C223 1.428 . S
C218 C221 1.260 . S
C218 C222 1.477 . S
C218 H236 0.932 . S
C219 C220 1.384 . S
C219 C221 1.479 . S
C219 H237 0.929 . S
C220 C217 1.424 . S
C220 C219 1.384 . S
C220 H238 0.928 . S
C221 C218 1.260 . S
C221 C219 1.479 . S
C222 C217 1.245 . S
C222 C218 1.477 . S
C222 H239 0.932 . S
C223 U206 2.882 . S
C223 C217 1.428 . S
C223 O226 1.301 . S
C223 O227 1.282 . S
O224 U206 2.441 . S
O224 C210 1.249 . S
O225 U206 2.420 . S
O225 C210 1.202 . S
O226 U206 2.455 . S
O226 C223 1.301 . S
O227 U206 2.449 . S
O227 C223 1.282 . S
H228 C201 0.931 . S
H229 C203 0.929 . S
H230 C204 0.930 . S
H231 C205 0.931 . S
H232 C212 0.932 . S
H233 C213 0.930 . S
H234 C214 0.929 . S
H235 C216 0.930 . S
H236 C218 0.932 . S
H237 C219 0.929 . S
H238 C220 0.928 . S
H239 C222 0.932 . S
C240 C241 1.264 . S
C240 C245 1.479 . S
C240 C250 1.465 . S
C241 C240 1.264 . S
C241 C243 1.339 . S
C241 H268 0.931 . S
C242 C243 1.395 . S
C242 C244 1.320 . S
C243 C241 1.339 . S
C243 C242 1.395 . S
C243 H269 0.929 . S
C244 C242 1.320 . S
C244 C245 1.405 . S
C244 H270 0.930 . S
C245 C240 1.479 . S
C245 C244 1.405 . S
C245 H271 0.931 . S
U246 O247 2.454 . S
U246 O248 2.458 . S
U246 C249 2.984 . S
U246 C250 2.847 . S
U246 C263 2.882 . S
U246 O264 2.441 . S
U246 O265 2.420 . S
U246 O266 2.455 . S
U246 O267 2.449 . S
O247 U246 2.454 . S
O247 C249 1.353 . S
O248 U246 2.458 . S
O248 C249 1.286 . S
C249 U246 2.984 . S
C249 O247 1.353 . S
C249 O248 1.286 . S
C249 C251 1.363 . S
C250 C240 1.465 . S
C250 U246 2.847 . S
C250 O264 1.249 . S
C250 O265 1.202 . S
C251 C249 1.363 . S
C251 C253 1.408 . S
C251 C256 1.342 . S
C252 C253 1.310 . S
C252 C255 1.461 . S
C252 H272 0.932 . S
C253 C251 1.408 . S
C253 C252 1.310 . S
C253 H273 0.930 . S
C254 C255 1.474 . S
C254 C256 1.285 . S
C254 H274 0.929 . S
C255 C252 1.461 . S
C255 C254 1.474 . S
C256 C251 1.342 . S
C256 C254 1.285 . S
C256 H275 0.930 . S
C257 C260 1.424 . S
C257 C262 1.245 . S
C257 C263 1.428 . S
C258 C261 1.260 . S
C258 C262 1.477 . S
C258 H276 0.932 . S
C259 C260 1.384 . S
C259 C261 1.479 . S
C259 H277 0.929 . S
C260 C257 1.424 . S
C260 C259 1.384 . S
C260 H278 0.928 . S
C261 C258 1.260 . S
C261 C259 1.479 . S
C262 C257 1.245 . S
C262 C258 1.477 . S
C262 H279 0.932 . S
C263 U246 2.882 . S
C263 C257 1.428 . S
C263 O266 1.301 . S
C263 O267 1.282 . S
O264 U246 2.441 . S
O264 C250 1.249 . S
O265 U246 2.420 . S
O265 C250 1.202 . S
O266 U246 2.455 . S
O266 C263 1.301 . S
O267 U246 2.449 . S
O267 C263 1.282 . S
H268 C241 0.931 . S
H269 C243 0.929 . S
H270 C244 0.930 . S
H271 C245 0.931 . S
H272 C252 0.932 . S
H273 C253 0.930 . S
H274 C254 0.929 . S
H275 C256 0.930 . S
H276 C258 0.932 . S
H277 C259 0.929 . S
H278 C260 0.928 . S
H279 C262 0.932 . S
C280 C281 1.264 . S
C280 C285 1.479 . S
C280 C290 1.465 . S
C281 C280 1.264 . S
C281 C283 1.339 . S
C281 H308 0.931 . S
C282 C283 1.395 . S
C282 C284 1.320 . S
C283 C281 1.339 . S
C283 C282 1.395 . S
C283 H309 0.929 . S
C284 C282 1.320 . S
C284 C285 1.405 . S
C284 H310 0.930 . S
C285 C280 1.479 . S
C285 C284 1.405 . S
C285 H311 0.931 . S
U286 O287 2.454 . S
U286 O288 2.458 . S
U286 C289 2.984 . S
U286 C290 2.847 . S
U286 C303 2.882 . S
U286 O304 2.441 . S
U286 O305 2.420 . S
U286 O306 2.455 . S
U286 O307 2.449 . S
O287 U286 2.454 . S
O287 C289 1.353 . S
O288 U286 2.458 . S
O288 C289 1.286 . S
C289 U286 2.984 . S
C289 O287 1.353 . S
C289 O288 1.286 . S
C289 C291 1.363 . S
C290 C280 1.465 . S
C290 U286 2.847 . S
C290 O304 1.249 . S
C290 O305 1.202 . S
C291 C289 1.363 . S
C291 C293 1.408 . S
C291 C296 1.342 . S
C292 C293 1.310 . S
C292 C295 1.461 . S
C292 H312 0.932 . S
C293 C291 1.408 . S
C293 C292 1.310 . S
C293 H313 0.930 . S
C294 C295 1.474 . S
C294 C296 1.285 . S
C294 H314 0.929 . S
C295 C292 1.461 . S
C295 C294 1.474 . S
C296 C291 1.342 . S
C296 C294 1.285 . S
C296 H315 0.930 . S
C297 C300 1.424 . S
C297 C302 1.245 . S
C297 C303 1.428 . S
C298 C301 1.260 . S
C298 C302 1.477 . S
C298 H316 0.932 . S
C299 C300 1.384 . S
C299 C301 1.479 . S
C299 H317 0.929 . S
C300 C297 1.424 . S
C300 C299 1.384 . S
C300 H318 0.928 . S
C301 C298 1.260 . S
C301 C299 1.479 . S
C302 C297 1.245 . S
C302 C298 1.477 . S
C302 H319 0.932 . S
C303 U286 2.882 . S
C303 C297 1.428 . S
C303 O306 1.301 . S
C303 O307 1.282 . S
O304 U286 2.441 . S
O304 C290 1.249 . S
O305 U286 2.420 . S
O305 C290 1.202 . S
O306 U286 2.455 . S
O306 C303 1.301 . S
O307 U286 2.449 . S
O307 C303 1.282 . S
H308 C281 0.931 . S
H309 C283 0.929 . S
H310 C284 0.930 . S
H311 C285 0.931 . S
H312 C292 0.932 . S
H313 C293 0.930 . S
H314 C294 0.929 . S
H315 C296 0.930 . S
H316 C298 0.932 . S
H317 C299 0.929 . S
H318 C300 0.928 . S
H319 C302 0.932 . S
C320 C321 1.264 . S
C320 C325 1.479 . S
C320 C330 1.465 . S
C321 C320 1.264 . S
C321 C323 1.339 . S
C321 H348 0.931 . S
C322 C323 1.395 . S
C322 C324 1.320 . S
C323 C321 1.339 . S
C323 C322 1.395 . S
C323 H349 0.929 . S
C324 C322 1.320 . S
C324 C325 1.405 . S
C324 H350 0.930 . S
C325 C320 1.479 . S
C325 C324 1.405 . S
C325 H351 0.931 . S
U326 O327 2.454 . S
U326 O328 2.458 . S
U326 C329 2.984 . S
U326 C330 2.847 . S
U326 C343 2.882 . S
U326 O344 2.441 . S
U326 O345 2.420 . S
U326 O346 2.455 . S
U326 O347 2.449 . S
O327 U326 2.454 . S
O327 C329 1.353 . S
O328 U326 2.458 . S
O328 C329 1.286 . S
C329 U326 2.984 . S
C329 O327 1.353 . S
C329 O328 1.286 . S
C329 C331 1.363 . S
C330 C320 1.465 . S
C330 U326 2.847 . S
C330 O344 1.249 . S
C330 O345 1.202 . S
C331 C329 1.363 . S
C331 C333 1.408 . S
C331 C336 1.342 . S
C332 C333 1.310 . S
C332 C335 1.461 . S
C332 H352 0.932 . S
C333 C331 1.408 . S
C333 C332 1.310 . S
C333 H353 0.930 . S
C334 C335 1.474 . S
C334 C336 1.285 . S
C334 H354 0.929 . S
C335 C332 1.461 . S
C335 C334 1.474 . S
C336 C331 1.342 . S
C336 C334 1.285 . S
C336 H355 0.930 . S
C337 C340 1.424 . S
C337 C342 1.245 . S
C337 C343 1.428 . S
C338 C341 1.260 . S
C338 C342 1.477 . S
C338 H356 0.932 . S
C339 C340 1.384 . S
C339 C341 1.479 . S
C339 H357 0.929 . S
C340 C337 1.424 . S
C340 C339 1.384 . S
C340 H358 0.928 . S
C341 C338 1.260 . S
C341 C339 1.479 . S
C342 C337 1.245 . S
C342 C338 1.477 . S
C342 H359 0.932 . S
C343 U326 2.882 . S
C343 C337 1.428 . S
C343 O346 1.301 . S
C343 O347 1.282 . S
O344 U326 2.441 . S
O344 C330 1.249 . S
O345 U326 2.420 . S
O345 C330 1.202 . S
O346 U326 2.455 . S
O346 C343 1.301 . S
O347 U326 2.449 . S
O347 C343 1.282 . S
H348 C321 0.931 . S
H349 C323 0.929 . S
H350 C324 0.930 . S
H351 C325 0.931 . S
H352 C332 0.932 . S
H353 C333 0.930 . S
H354 C334 0.929 . S
H355 C336 0.930 . S
H356 C338 0.932 . S
H357 C339 0.929 . S
H358 C340 0.928 . S
H359 C342 0.932 . S
C360 C361 1.264 . S
C360 C365 1.479 . S
C360 C370 1.465 . S
C361 C360 1.264 . S
C361 C363 1.339 . S
C361 H388 0.931 . S
C362 C363 1.395 . S
C362 C364 1.320 . S
C363 C361 1.339 . S
C363 C362 1.395 . S
C363 H389 0.929 . S
C364 C362 1.320 . S
C364 C365 1.405 . S
C364 H390 0.930 . S
C365 C360 1.479 . S
C365 C364 1.405 . S
C365 H391 0.931 . S
U366 O367 2.454 . S
U366 O368 2.458 . S
U366 C369 2.984 . S
U366 C370 2.847 . S
U366 C383 2.882 . S
U366 O384 2.441 . S
U366 O385 2.420 . S
U366 O386 2.455 . S
U366 O387 2.449 . S
O367 U366 2.454 . S
O367 C369 1.353 . S
O368 U366 2.458 . S
O368 C369 1.286 . S
C369 U366 2.984 . S
C369 O367 1.353 . S
C369 O368 1.286 . S
C369 C371 1.363 . S
C370 C360 1.465 . S
C370 U366 2.847 . S
C370 O384 1.249 . S
C370 O385 1.202 . S
C371 C369 1.363 . S
C371 C373 1.408 . S
C371 C376 1.342 . S
C372 C373 1.310 . S
C372 C375 1.461 . S
C372 H392 0.932 . S
C373 C371 1.408 . S
C373 C372 1.310 . S
C373 H393 0.930 . S
C374 C375 1.474 . S
C374 C376 1.285 . S
C374 H394 0.929 . S
C375 C372 1.461 . S
C375 C374 1.474 . S
C376 C371 1.342 . S
C376 C374 1.285 . S
C376 H395 0.930 . S
C377 C380 1.424 . S
C377 C382 1.245 . S
C377 C383 1.428 . S
C378 C381 1.260 . S
C378 C382 1.477 . S
C378 H396 0.932 . S
C379 C380 1.384 . S
C379 C381 1.479 . S
C379 H397 0.929 . S
C380 C377 1.424 . S
C380 C379 1.384 . S
C380 H398 0.928 . S
C381 C378 1.260 . S
C381 C379 1.479 . S
C382 C377 1.245 . S
C382 C378 1.477 . S
C382 H399 0.932 . S
C383 U366 2.882 . S
C383 C377 1.428 . S
C383 O386 1.301 . S
C383 O387 1.282 . S
O384 U366 2.441 . S
O384 C370 1.249 . S
O385 U366 2.420 . S
O385 C370 1.202 . S
O386 U366 2.455 . S
O386 C383 1.301 . S
O387 U366 2.449 . S
O387 C383 1.282 . S
H388 C361 0.931 . S
H389 C363 0.929 . S
H390 C364 0.930 . S
H391 C365 0.931 . S
H392 C372 0.932 . S
H393 C373 0.930 . S
H394 C374 0.929 . S
H395 C376 0.930 . S
H396 C378 0.932 . S
H397 C379 0.929 . S
H398 C380 0.928 . S
H399 C382 0.932 . S
C400 C401 1.264 . S
C400 C405 1.479 . S
C400 C410 1.465 . S
C401 C400 1.264 . S
C401 C403 1.339 . S
C401 H428 0.931 . S
C402 C403 1.395 . S
C402 C404 1.320 . S
C403 C401 1.339 . S
C403 C402 1.395 . S
C403 H429 0.929 . S
C404 C402 1.320 . S
C404 C405 1.405 . S
C404 H430 0.930 . S
C405 C400 1.479 . S
C405 C404 1.405 . S
C405 H431 0.931 . S
U406 O407 2.454 . S
U406 O408 2.458 . S
U406 C409 2.984 . S
U406 C410 2.847 . S
U406 C423 2.882 . S
U406 O424 2.441 . S
U406 O425 2.420 . S
U406 O426 2.455 . S
U406 O427 2.449 . S
O407 U406 2.454 . S
O407 C409 1.353 . S
O408 U406 2.458 . S
O408 C409 1.286 . S
C409 U406 2.984 . S
C409 O407 1.353 . S
C409 O408 1.286 . S
C409 C411 1.363 . S
C410 C400 1.465 . S
C410 U406 2.847 . S
C410 O424 1.249 . S
C410 O425 1.202 . S
C411 C409 1.363 . S
C411 C413 1.408 . S
C411 C416 1.342 . S
C412 C413 1.310 . S
C412 C415 1.461 . S
C412 H432 0.932 . S
C413 C411 1.408 . S
C413 C412 1.310 . S
C413 H433 0.930 . S
C414 C415 1.474 . S
C414 C416 1.285 . S
C414 H434 0.929 . S
C415 C412 1.461 . S
C415 C414 1.474 . S
C416 C411 1.342 . S
C416 C414 1.285 . S
C416 H435 0.930 . S
C417 C420 1.424 . S
C417 C422 1.245 . S
C417 C423 1.428 . S
C418 C421 1.260 . S
C418 C422 1.477 . S
C418 H436 0.932 . S
C419 C420 1.384 . S
C419 C421 1.479 . S
C419 H437 0.929 . S
C420 C417 1.424 . S
C420 C419 1.384 . S
C420 H438 0.928 . S
C421 C418 1.260 . S
C421 C419 1.479 . S
C422 C417 1.245 . S
C422 C418 1.477 . S
C422 H439 0.932 . S
C423 U406 2.882 . S
C423 C417 1.428 . S
C423 O426 1.301 . S
C423 O427 1.282 . S
O424 U406 2.441 . S
O424 C410 1.249 . S
O425 U406 2.420 . S
O425 C410 1.202 . S
O426 U406 2.455 . S
O426 C423 1.301 . S
O427 U406 2.449 . S
O427 C423 1.282 . S
H428 C401 0.931 . S
H429 C403 0.929 . S
H430 C404 0.930 . S
H431 C405 0.931 . S
H432 C412 0.932 . S
H433 C413 0.930 . S
H434 C414 0.929 . S
H435 C416 0.930 . S
H436 C418 0.932 . S
H437 C419 0.929 . S
H438 C420 0.928 . S
H439 C422 0.932 . S
C440 C441 1.264 . S
C440 C445 1.479 . S
C440 C450 1.465 . S
C441 C440 1.264 . S
C441 C443 1.339 . S
C441 H468 0.931 . S
C442 C443 1.395 . S
C442 C444 1.320 . S
C443 C441 1.339 . S
C443 C442 1.395 . S
C443 H469 0.929 . S
C444 C442 1.320 . S
C444 C445 1.405 . S
C444 H470 0.930 . S
C445 C440 1.479 . S
C445 C444 1.405 . S
C445 H471 0.931 . S
U446 O447 2.454 . S
U446 O448 2.458 . S
U446 C449 2.984 . S
U446 C450 2.847 . S
U446 C463 2.882 . S
U446 O464 2.441 . S
U446 O465 2.420 . S
U446 O466 2.455 . S
U446 O467 2.449 . S
O447 U446 2.454 . S
O447 C449 1.353 . S
O448 U446 2.458 . S
O448 C449 1.286 . S
C449 U446 2.984 . S
C449 O447 1.353 . S
C449 O448 1.286 . S
C449 C451 1.363 . S
C450 C440 1.465 . S
C450 U446 2.847 . S
C450 O464 1.249 . S
C450 O465 1.202 . S
C451 C449 1.363 . S
C451 C453 1.408 . S
C451 C456 1.342 . S
C452 C453 1.310 . S
C452 C455 1.461 . S
C452 H472 0.932 . S
C453 C451 1.408 . S
C453 C452 1.310 . S
C453 H473 0.930 . S
C454 C455 1.474 . S
C454 C456 1.285 . S
C454 H474 0.929 . S
C455 C452 1.461 . S
C455 C454 1.474 . S
C456 C451 1.342 . S
C456 C454 1.285 . S
C456 H475 0.930 . S
C457 C460 1.424 . S
C457 C462 1.245 . S
C457 C463 1.428 . S
C458 C461 1.260 . S
C458 C462 1.477 . S
C458 H476 0.932 . S
C459 C460 1.384 . S
C459 C461 1.479 . S
C459 H477 0.929 . S
C460 C457 1.424 . S
C460 C459 1.384 . S
C460 H478 0.928 . S
C461 C458 1.260 . S
C461 C459 1.479 . S
C462 C457 1.245 . S
C462 C458 1.477 . S
C462 H479 0.932 . S
C463 U446 2.882 . S
C463 C457 1.428 . S
C463 O466 1.301 . S
C463 O467 1.282 . S
O464 U446 2.441 . S
O464 C450 1.249 . S
O465 U446 2.420 . S
O465 C450 1.202 . S
O466 U446 2.455 . S
O466 C463 1.301 . S
O467 U446 2.449 . S
O467 C463 1.282 . S
H468 C441 0.931 . S
H469 C443 0.929 . S
H470 C444 0.930 . S
H471 C445 0.931 . S
H472 C452 0.932 . S
H473 C453 0.930 . S
H474 C454 0.929 . S
H475 C456 0.930 . S
H476 C458 0.932 . S
H477 C459 0.929 . S
H478 C460 0.928 . S
H479 C462 0.932 . S
C480 C481 1.264 . S
C480 C485 1.479 . S
C480 C490 1.465 . S
C481 C480 1.264 . S
C481 C483 1.339 . S
C481 H508 0.931 . S
C482 C483 1.395 . S
C482 C484 1.320 . S
C483 C481 1.339 . S
C483 C482 1.395 . S
C483 H509 0.929 . S
C484 C482 1.320 . S
C484 C485 1.405 . S
C484 H510 0.930 . S
C485 C480 1.479 . S
C485 C484 1.405 . S
C485 H511 0.931 . S
U486 O487 2.454 . S
U486 O488 2.458 . S
U486 C489 2.984 . S
U486 C490 2.847 . S
U486 C503 2.882 . S
U486 O504 2.441 . S
U486 O505 2.420 . S
U486 O506 2.455 . S
U486 O507 2.449 . S
O487 U486 2.454 . S
O487 C489 1.353 . S
O488 U486 2.458 . S
O488 C489 1.286 . S
C489 U486 2.984 . S
C489 O487 1.353 . S
C489 O488 1.286 . S
C489 C491 1.363 . S
C490 C480 1.465 . S
C490 U486 2.847 . S
C490 O504 1.249 . S
C490 O505 1.202 . S
C491 C489 1.363 . S
C491 C493 1.408 . S
C491 C496 1.342 . S
C492 C493 1.310 . S
C492 C495 1.461 . S
C492 H512 0.932 . S
C493 C491 1.408 . S
C493 C492 1.310 . S
C493 H513 0.930 . S
C494 C495 1.474 . S
C494 C496 1.285 . S
C494 H514 0.929 . S
C495 C492 1.461 . S
C495 C494 1.474 . S
C496 C491 1.342 . S
C496 C494 1.285 . S
C496 H515 0.930 . S
C497 C500 1.424 . S
C497 C502 1.245 . S
C497 C503 1.428 . S
C498 C501 1.260 . S
C498 C502 1.477 . S
C498 H516 0.932 . S
C499 C500 1.384 . S
C499 C501 1.479 . S
C499 H517 0.929 . S
C500 C497 1.424 . S
C500 C499 1.384 . S
C500 H518 0.928 . S
C501 C498 1.260 . S
C501 C499 1.479 . S
C502 C497 1.245 . S
C502 C498 1.477 . S
C502 H519 0.932 . S
C503 U486 2.882 . S
C503 C497 1.428 . S
C503 O506 1.301 . S
C503 O507 1.282 . S
O504 U486 2.441 . S
O504 C490 1.249 . S
O505 U486 2.420 . S
O505 C490 1.202 . S
O506 U486 2.455 . S
O506 C503 1.301 . S
O507 U486 2.449 . S
O507 C503 1.282 . S
H508 C481 0.931 . S
H509 C483 0.929 . S
H510 C484 0.930 . S
H511 C485 0.931 . S
H512 C492 0.932 . S
H513 C493 0.930 . S
H514 C494 0.929 . S
H515 C496 0.930 . S
H516 C498 0.932 . S
H517 C499 0.929 . S
H518 C500 0.928 . S
H519 C502 0.932 . S
C520 C521 1.264 . S
C520 C525 1.479 . S
C520 C530 1.465 . S
C521 C520 1.264 . S
C521 C523 1.339 . S
C521 H548 0.931 . S
C522 C523 1.395 . S
C522 C524 1.320 . S
C523 C521 1.339 . S
C523 C522 1.395 . S
C523 H549 0.929 . S
C524 C522 1.320 . S
C524 C525 1.405 . S
C524 H550 0.930 . S
C525 C520 1.479 . S
C525 C524 1.405 . S
C525 H551 0.931 . S
U526 O527 2.454 . S
U526 O528 2.458 . S
U526 C529 2.984 . S
U526 C530 2.847 . S
U526 C543 2.882 . S
U526 O544 2.441 . S
U526 O545 2.420 . S
U526 O546 2.455 . S
U526 O547 2.449 . S
O527 U526 2.454 . S
O527 C529 1.353 . S
O528 U526 2.458 . S
O528 C529 1.286 . S
C529 U526 2.984 . S
C529 O527 1.353 . S
C529 O528 1.286 . S
C529 C531 1.363 . S
C530 C520 1.465 . S
C530 U526 2.847 . S
C530 O544 1.249 . S
C530 O545 1.202 . S
C531 C529 1.363 . S
C531 C533 1.408 . S
C531 C536 1.342 . S
C532 C533 1.310 . S
C532 C535 1.461 . S
C532 H552 0.932 . S
C533 C531 1.408 . S
C533 C532 1.310 . S
C533 H553 0.930 . S
C534 C535 1.474 . S
C534 C536 1.285 . S
C534 H554 0.929 . S
C535 C532 1.461 . S
C535 C534 1.474 . S
C536 C531 1.342 . S
C536 C534 1.285 . S
C536 H555 0.930 . S
C537 C540 1.424 . S
C537 C542 1.245 . S
C537 C543 1.428 . S
C538 C541 1.260 . S
C538 C542 1.477 . S
C538 H556 0.932 . S
C539 C540 1.384 . S
C539 C541 1.479 . S
C539 H557 0.929 . S
C540 C537 1.424 . S
C540 C539 1.384 . S
C540 H558 0.928 . S
C541 C538 1.260 . S
C541 C539 1.479 . S
C542 C537 1.245 . S
C542 C538 1.477 . S
C542 H559 0.932 . S
C543 U526 2.882 . S
C543 C537 1.428 . S
C543 O546 1.301 . S
C543 O547 1.282 . S
O544 U526 2.441 . S
O544 C530 1.249 . S
O545 U526 2.420 . S
O545 C530 1.202 . S
O546 U526 2.455 . S
O546 C543 1.301 . S
O547 U526 2.449 . S
O547 C543 1.282 . S
H548 C521 0.931 . S
H549 C523 0.929 . S
H550 C524 0.930 . S
H551 C525 0.931 . S
H552 C532 0.932 . S
H553 C533 0.930 . S
H554 C534 0.929 . S
H555 C536 0.930 . S
H556 C538 0.932 . S
H557 C539 0.929 . S
H558 C540 0.928 . S
H559 C542 0.932 . S
C560 C561 1.264 . S
C560 C565 1.479 . S
C560 C570 1.465 . S
C561 C560 1.264 . S
C561 C563 1.339 . S
C561 H588 0.931 . S
C562 C563 1.395 . S
C562 C564 1.320 . S
C563 C561 1.339 . S
C563 C562 1.395 . S
C563 H589 0.929 . S
C564 C562 1.320 . S
C564 C565 1.405 . S
C564 H590 0.930 . S
C565 C560 1.479 . S
C565 C564 1.405 . S
C565 H591 0.931 . S
U566 O567 2.454 . S
U566 O568 2.458 . S
U566 C569 2.984 . S
U566 C570 2.847 . S
U566 C583 2.882 . S
U566 O584 2.441 . S
U566 O585 2.420 . S
U566 O586 2.455 . S
U566 O587 2.449 . S
O567 U566 2.454 . S
O567 C569 1.353 . S
O568 U566 2.458 . S
O568 C569 1.286 . S
C569 U566 2.984 . S
C569 O567 1.353 . S
C569 O568 1.286 . S
C569 C571 1.363 . S
C570 C560 1.465 . S
C570 U566 2.847 . S
C570 O584 1.249 . S
C570 O585 1.202 . S
C571 C569 1.363 . S
C571 C573 1.408 . S
C571 C576 1.342 . S
C572 C573 1.310 . S
C572 C575 1.461 . S
C572 H592 0.932 . S
C573 C571 1.408 . S
C573 C572 1.310 . S
C573 H593 0.930 . S
C574 C575 1.474 . S
C574 C576 1.285 . S
C574 H594 0.929 . S
C575 C572 1.461 . S
C575 C574 1.474 . S
C576 C571 1.342 . S
C576 C574 1.285 . S
C576 H595 0.930 . S
C577 C580 1.424 . S
C577 C582 1.245 . S
C577 C583 1.428 . S
C578 C581 1.260 . S
C578 C582 1.477 . S
C578 H596 0.932 . S
C579 C580 1.384 . S
C579 C581 1.479 . S
C579 H597 0.929 . S
C580 C577 1.424 . S
C580 C579 1.384 . S
C580 H598 0.928 . S
C581 C578 1.260 . S
C581 C579 1.479 . S
C582 C577 1.245 . S
C582 C578 1.477 . S
C582 H599 0.932 . S
C583 U566 2.882 . S
C583 C577 1.428 . S
C583 O586 1.301 . S
C583 O587 1.282 . S
O584 U566 2.441 . S
O584 C570 1.249 . S
O585 U566 2.420 . S
O585 C570 1.202 . S
O586 U566 2.455 . S
O586 C583 1.301 . S
O587 U566 2.449 . S
O587 C583 1.282 . S
H588 C561 0.931 . S
H589 C563 0.929 . S
H590 C564 0.930 . S
H591 C565 0.931 . S
H592 C572 0.932 . S
H593 C573 0.930 . S
H594 C574 0.929 . S
H595 C576 0.930 . S
H596 C578 0.932 . S
H597 C579 0.929 . S
H598 C580 0.928 . S
H599 C582 0.932 . S
C600 C601 1.264 . S
C600 C605 1.479 . S
C600 C610 1.465 . S
C601 C600 1.264 . S
C601 C603 1.339 . S
C601 H628 0.931 . S
C602 C603 1.395 . S
C602 C604 1.320 . S
C603 C601 1.339 . S
C603 C602 1.395 . S
C603 H629 0.929 . S
C604 C602 1.320 . S
C604 C605 1.405 . S
C604 H630 0.930 . S
C605 C600 1.479 . S
C605 C604 1.405 . S
C605 H631 0.931 . S
U606 O607 2.454 . S
U606 O608 2.458 . S
U606 C609 2.984 . S
U606 C610 2.847 . S
U606 C623 2.882 . S
U606 O624 2.441 . S
U606 O625 2.420 . S
U606 O626 2.455 . S
U606 O627 2.449 . S
O607 U606 2.454 . S
O607 C609 1.353 . S
O608 U606 2.458 . S
O608 C609 1.286 . S
C609 U606 2.984 . S
C609 O607 1.353 . S
C609 O608 1.286 . S
C609 C611 1.363 . S
C610 C600 1.465 . S
C610 U606 2.847 . S
C610 O624 1.249 . S
C610 O625 1.202 . S
C611 C609 1.363 . S
C611 C613 1.408 . S
C611 C616 1.342 . S
C612 C613 1.310 . S
C612 C615 1.461 . S
C612 H632 0.932 . S
C613 C611 1.408 . S
C613 C612 1.310 . S
C613 H633 0.930 . S
C614 C615 1.474 . S
C614 C616 1.285 . S
C614 H634 0.929 . S
C615 C612 1.461 . S
C615 C614 1.474 . S
C616 C611 1.342 . S
C616 C614 1.285 . S
C616 H635 0.930 . S
C617 C620 1.424 . S
C617 C622 1.245 . S
C617 C623 1.428 . S
C618 C621 1.260 . S
C618 C622 1.477 . S
C618 H636 0.932 . S
C619 C620 1.384 . S
C619 C621 1.479 . S
C619 H637 0.929 . S
C620 C617 1.424 . S
C620 C619 1.384 . S
C620 H638 0.928 . S
C621 C618 1.260 . S
C621 C619 1.479 . S
C622 C617 1.245 . S
C622 C618 1.477 . S
C622 H639 0.932 . S
C623 U606 2.882 . S
C623 C617 1.428 . S
C623 O626 1.301 . S
C623 O627 1.282 . S
O624 U606 2.441 . S
O624 C610 1.249 . S
O625 U606 2.420 . S
O625 C610 1.202 . S
O626 U606 2.455 . S
O626 C623 1.301 . S
O627 U606 2.449 . S
O627 C623 1.282 . S
H628 C601 0.931 . S
H629 C603 0.929 . S
H630 C604 0.930 . S
H631 C605 0.931 . S
H632 C612 0.932 . S
H633 C613 0.930 . S
H634 C614 0.929 . S
H635 C616 0.930 . S
H636 C618 0.932 . S
H637 C619 0.929 . S
H638 C620 0.928 . S
H639 C622 0.932 . S
C640 C641 1.264 . S
C640 C645 1.479 . S
C640 C650 1.465 . S
C641 C640 1.264 . S
C641 C643 1.339 . S
C641 H668 0.931 . S
C642 C643 1.395 . S
C642 C644 1.320 . S
C643 C641 1.339 . S
C643 C642 1.395 . S
C643 H669 0.929 . S
C644 C642 1.320 . S
C644 C645 1.405 . S
C644 H670 0.930 . S
C645 C640 1.479 . S
C645 C644 1.405 . S
C645 H671 0.931 . S
U646 O647 2.454 . S
U646 O648 2.458 . S
U646 C649 2.984 . S
U646 C650 2.847 . S
U646 C663 2.882 . S
U646 O664 2.441 . S
U646 O665 2.420 . S
U646 O666 2.455 . S
U646 O667 2.449 . S
O647 U646 2.454 . S
O647 C649 1.353 . S
O648 U646 2.458 . S
O648 C649 1.286 . S
C649 U646 2.984 . S
C649 O647 1.353 . S
C649 O648 1.286 . S
C649 C651 1.363 . S
C650 C640 1.465 . S
C650 U646 2.847 . S
C650 O664 1.249 . S
C650 O665 1.202 . S
C651 C649 1.363 . S
C651 C653 1.408 . S
C651 C656 1.342 . S
C652 C653 1.310 . S
C652 C655 1.461 . S
C652 H672 0.932 . S
C653 C651 1.408 . S
C653 C652 1.310 . S
C653 H673 0.930 . S
C654 C655 1.474 . S
C654 C656 1.285 . S
C654 H674 0.929 . S
C655 C652 1.461 . S
C655 C654 1.474 . S
C656 C651 1.342 . S
C656 C654 1.285 . S
C656 H675 0.930 . S
C657 C660 1.424 . S
C657 C662 1.245 . S
C657 C663 1.428 . S
C658 C661 1.260 . S
C658 C662 1.477 . S
C658 H676 0.932 . S
C659 C660 1.384 . S
C659 C661 1.479 . S
C659 H677 0.929 . S
C660 C657 1.424 . S
C660 C659 1.384 . S
C660 H678 0.928 . S
C661 C658 1.260 . S
C661 C659 1.479 . S
C662 C657 1.245 . S
C662 C658 1.477 . S
C662 H679 0.932 . S
C663 U646 2.882 . S
C663 C657 1.428 . S
C663 O666 1.301 . S
C663 O667 1.282 . S
O664 U646 2.441 . S
O664 C650 1.249 . S
O665 U646 2.420 . S
O665 C650 1.202 . S
O666 U646 2.455 . S
O666 C663 1.301 . S
O667 U646 2.449 . S
O667 C663 1.282 . S
H668 C641 0.931 . S
H669 C643 0.929 . S
H670 C644 0.930 . S
H671 C645 0.931 . S
H672 C652 0.932 . S
H673 C653 0.930 . S
H674 C654 0.929 . S
H675 C656 0.930 . S
H676 C658 0.932 . S
H677 C659 0.929 . S
H678 C660 0.928 . S
H679 C662 0.932 . S
C680 C681 1.264 . S
C680 C685 1.479 . S
C680 C690 1.465 . S
C681 C680 1.264 . S
C681 C683 1.339 . S
C681 H708 0.931 . S
C682 C683 1.395 . S
C682 C684 1.320 . S
C683 C681 1.339 . S
C683 C682 1.395 . S
C683 H709 0.929 . S
C684 C682 1.320 . S
C684 C685 1.405 . S
C684 H710 0.930 . S
C685 C680 1.479 . S
C685 C684 1.405 . S
C685 H711 0.931 . S
U686 O687 2.454 . S
U686 O688 2.458 . S
U686 C689 2.984 . S
U686 C690 2.847 . S
U686 C703 2.882 . S
U686 O704 2.441 . S
U686 O705 2.420 . S
U686 O706 2.455 . S
U686 O707 2.449 . S
O687 U686 2.454 . S
O687 C689 1.353 . S
O688 U686 2.458 . S
O688 C689 1.286 . S
C689 U686 2.984 . S
C689 O687 1.353 . S
C689 O688 1.286 . S
C689 C691 1.363 . S
C690 C680 1.465 . S
C690 U686 2.847 . S
C690 O704 1.249 . S
C690 O705 1.202 . S
C691 C689 1.363 . S
C691 C693 1.408 . S
C691 C696 1.342 . S
C692 C693 1.310 . S
C692 C695 1.461 . S
C692 H712 0.932 . S
C693 C691 1.408 . S
C693 C692 1.310 . S
C693 H713 0.930 . S
C694 C695 1.474 . S
C694 C696 1.285 . S
C694 H714 0.929 . S
C695 C692 1.461 . S
C695 C694 1.474 . S
C696 C691 1.342 . S
C696 C694 1.285 . S
C696 H715 0.930 . S
C697 C700 1.424 . S
C697 C702 1.245 . S
C697 C703 1.428 . S
C698 C701 1.260 . S
C698 C702 1.477 . S
C698 H716 0.932 . S
C699 C700 1.384 . S
C699 C701 1.479 . S
C699 H717 0.929 . S
C700 C697 1.424 . S
C700 C699 1.384 . S
C700 H718 0.928 . S
C701 C698 1.260 . S
C701 C699 1.479 . S
C702 C697 1.245 . S
C702 C698 1.477 . S
C702 H719 0.932 . S
C703 U686 2.882 . S
C703 C697 1.428 . S
C703 O706 1.301 . S
C703 O707 1.282 . S
O704 U686 2.441 . S
O704 C690 1.249 . S
O705 U686 2.420 . S
O705 C690 1.202 . S
O706 U686 2.455 . S
O706 C703 1.301 . S
O707 U686 2.449 . S
O707 C703 1.282 . S
H708 C681 0.931 . S
H709 C683 0.929 . S
H710 C684 0.930 . S
H711 C685 0.931 . S
H712 C692 0.932 . S
H713 C693 0.930 . S
H714 C694 0.929 . S
H715 C696 0.930 . S
H716 C698 0.932 . S
H717 C699 0.929 . S
H718 C700 0.928 . S
H719 C702 0.932 . S
C720 C721 1.264 . S
C720 C725 1.479 . S
C720 C730 1.465 . S
C721 C720 1.264 . S
C721 C723 1.339 . S
C721 H748 0.931 . S
C722 C723 1.395 . S
C722 C724 1.320 . S
C723 C721 1.339 . S
C723 C722 1.395 . S
C723 H749 0.929 . S
C724 C722 1.320 . S
C724 C725 1.405 . S
C724 H750 0.930 . S
C725 C720 1.479 . S
C725 C724 1.405 . S
C725 H751 0.931 . S
U726 O727 2.454 . S
U726 O728 2.458 . S
U726 C729 2.984 . S
U726 C730 2.847 . S
U726 C743 2.882 . S
U726 O744 2.441 . S
U726 O745 2.420 . S
U726 O746 2.455 . S
U726 O747 2.449 . S
O727 U726 2.454 . S
O727 C729 1.353 . S
O728 U726 2.458 . S
O728 C729 1.286 . S
C729 U726 2.984 . S
C729 O727 1.353 . S
C729 O728 1.286 . S
C729 C731 1.363 . S
C730 C720 1.465 . S
C730 U726 2.847 . S
C730 O744 1.249 . S
C730 O745 1.202 . S
C731 C729 1.363 . S
C731 C733 1.408 . S
C731 C736 1.342 . S
C732 C733 1.310 . S
C732 C735 1.461 . S
C732 H752 0.932 . S
C733 C731 1.408 . S
C733 C732 1.310 . S
C733 H753 0.930 . S
C734 C735 1.474 . S
C734 C736 1.285 . S
C734 H754 0.929 . S
C735 C732 1.461 . S
C735 C734 1.474 . S
C736 C731 1.342 . S
C736 C734 1.285 . S
C736 H755 0.930 . S
C737 C740 1.424 . S
C737 C742 1.245 . S
C737 C743 1.428 . S
C738 C741 1.260 . S
C738 C742 1.477 . S
C738 H756 0.932 . S
C739 C740 1.384 . S
C739 C741 1.479 . S
C739 H757 0.929 . S
C740 C737 1.424 . S
C740 C739 1.384 . S
C740 H758 0.928 . S
C741 C738 1.260 . S
C741 C739 1.479 . S
C742 C737 1.245 . S
C742 C738 1.477 . S
C742 H759 0.932 . S
C743 U726 2.882 . S
C743 C737 1.428 . S
C743 O746 1.301 . S
C743 O747 1.282 . S
O744 U726 2.441 . S
O744 C730 1.249 . S
O745 U726 2.420 . S
O745 C730 1.202 . S
O746 U726 2.455 . S
O746 C743 1.301 . S
O747 U726 2.449 . S
O747 C743 1.282 . S
H748 C721 0.931 . S
H749 C723 0.929 . S
H750 C724 0.930 . S
H751 C725 0.931 . S
H752 C732 0.932 . S
H753 C733 0.930 . S
H754 C734 0.929 . S
H755 C736 0.930 . S
H756 C738 0.932 . S
H757 C739 0.929 . S
H758 C740 0.928 . S
H759 C742 0.932 . S
C760 C761 1.264 . S
C760 C765 1.479 . S
C760 C770 1.465 . S
C761 C760 1.264 . S
C761 C763 1.339 . S
C761 H788 0.931 . S
C762 C763 1.395 . S
C762 C764 1.320 . S
C763 C761 1.339 . S
C763 C762 1.395 . S
C763 H789 0.929 . S
C764 C762 1.320 . S
C764 C765 1.405 . S
C764 H790 0.930 . S
C765 C760 1.479 . S
C765 C764 1.405 . S
C765 H791 0.931 . S
U766 O767 2.454 . S
U766 O768 2.458 . S
U766 C769 2.984 . S
U766 C770 2.847 . S
U766 C783 2.882 . S
U766 O784 2.441 . S
U766 O785 2.420 . S
U766 O786 2.455 . S
U766 O787 2.449 . S
O767 U766 2.454 . S
O767 C769 1.353 . S
O768 U766 2.458 . S
O768 C769 1.286 . S
C769 U766 2.984 . S
C769 O767 1.353 . S
C769 O768 1.286 . S
C769 C771 1.363 . S
C770 C760 1.465 . S
C770 U766 2.847 . S
C770 O784 1.249 . S
C770 O785 1.202 . S
C771 C769 1.363 . S
C771 C773 1.408 . S
C771 C776 1.342 . S
C772 C773 1.310 . S
C772 C775 1.461 . S
C772 H792 0.932 . S
C773 C771 1.408 . S
C773 C772 1.310 . S
C773 H793 0.930 . S
C774 C775 1.474 . S
C774 C776 1.285 . S
C774 H794 0.929 . S
C775 C772 1.461 . S
C775 C774 1.474 . S
C776 C771 1.342 . S
C776 C774 1.285 . S
C776 H795 0.930 . S
C777 C780 1.424 . S
C777 C782 1.245 . S
C777 C783 1.428 . S
C778 C781 1.260 . S
C778 C782 1.477 . S
C778 H796 0.932 . S
C779 C780 1.384 . S
C779 C781 1.479 . S
C779 H797 0.929 . S
C780 C777 1.424 . S
C780 C779 1.384 . S
C780 H798 0.928 . S
C781 C778 1.260 . S
C781 C779 1.479 . S
C782 C777 1.245 . S
C782 C778 1.477 . S
C782 H799 0.932 . S
C783 U766 2.882 . S
C783 C777 1.428 . S
C783 O786 1.301 . S
C783 O787 1.282 . S
O784 U766 2.441 . S
O784 C770 1.249 . S
O785 U766 2.420 . S
O785 C770 1.202 . S
O786 U766 2.455 . S
O786 C783 1.301 . S
O787 U766 2.449 . S
O787 C783 1.282 . S
H788 C761 0.931 . S
H789 C763 0.929 . S
H790 C764 0.930 . S
H791 C765 0.931 . S
H792 C772 0.932 . S
H793 C773 0.930 . S
H794 C774 0.929 . S
H795 C776 0.930 . S
H796 C778 0.932 . S
H797 C779 0.929 . S
H798 C780 0.928 . S
H799 C782 0.932 . S
C800 C801 1.264 . S
C800 C805 1.479 . S
C800 C810 1.465 . S
C801 C800 1.264 . S
C801 C803 1.339 . S
C801 H828 0.931 . S
C802 C803 1.395 . S
C802 C804 1.320 . S
C803 C801 1.339 . S
C803 C802 1.395 . S
C803 H829 0.929 . S
C804 C802 1.320 . S
C804 C805 1.405 . S
C804 H830 0.930 . S
C805 C800 1.479 . S
C805 C804 1.405 . S
C805 H831 0.931 . S
U806 O807 2.454 . S
U806 O808 2.458 . S
U806 C809 2.984 . S
U806 C810 2.847 . S
U806 C823 2.882 . S
U806 O824 2.441 . S
U806 O825 2.420 . S
U806 O826 2.455 . S
U806 O827 2.449 . S
O807 U806 2.454 . S
O807 C809 1.353 . S
O808 U806 2.458 . S
O808 C809 1.286 . S
C809 U806 2.984 . S
C809 O807 1.353 . S
C809 O808 1.286 . S
C809 C811 1.363 . S
C810 C800 1.465 . S
C810 U806 2.847 . S
C810 O824 1.249 . S
C810 O825 1.202 . S
C811 C809 1.363 . S
C811 C813 1.408 . S
C811 C816 1.342 . S
C812 C813 1.310 . S
C812 C815 1.461 . S
C812 H832 0.932 . S
C813 C811 1.408 . S
C813 C812 1.310 . S
C813 H833 0.930 . S
C814 C815 1.474 . S
C814 C816 1.285 . S
C814 H834 0.929 . S
C815 C812 1.461 . S
C815 C814 1.474 . S
C816 C811 1.342 . S
C816 C814 1.285 . S
C816 H835 0.930 . S
C817 C820 1.424 . S
C817 C822 1.245 . S
C817 C823 1.428 . S
C818 C821 1.260 . S
C818 C822 1.477 . S
C818 H836 0.932 . S
C819 C820 1.384 . S
C819 C821 1.479 . S
C819 H837 0.929 . S
C820 C817 1.424 . S
C820 C819 1.384 . S
C820 H838 0.928 . S
C821 C818 1.260 . S
C821 C819 1.479 . S
C822 C817 1.245 . S
C822 C818 1.477 . S
C822 H839 0.932 . S
C823 U806 2.882 . S
C823 C817 1.428 . S
C823 O826 1.301 . S
C823 O827 1.282 . S
O824 U806 2.441 . S
O824 C810 1.249 . S
O825 U806 2.420 . S
O825 C810 1.202 . S
O826 U806 2.455 . S
O826 C823 1.301 . S
O827 U806 2.449 . S
O827 C823 1.282 . S
H828 C801 0.931 . S
H829 C803 0.929 . S
H830 C804 0.930 . S
H831 C805 0.931 . S
H832 C812 0.932 . S
H833 C813 0.930 . S
H834 C814 0.929 . S
H835 C816 0.930 . S
H836 C818 0.932 . S
H837 C819 0.929 . S
H838 C820 0.928 . S
H839 C822 0.932 . S
C840 C841 1.264 . S
C840 C845 1.479 . S
C840 C850 1.465 . S
C841 C840 1.264 . S
C841 C843 1.339 . S
C841 H868 0.931 . S
C842 C843 1.395 . S
C842 C844 1.320 . S
C843 C841 1.339 . S
C843 C842 1.395 . S
C843 H869 0.929 . S
C844 C842 1.320 . S
C844 C845 1.405 . S
C844 H870 0.930 . S
C845 C840 1.479 . S
C845 C844 1.405 . S
C845 H871 0.931 . S
U846 O847 2.454 . S
U846 O848 2.458 . S
U846 C849 2.984 . S
U846 C850 2.847 . S
U846 C863 2.882 . S
U846 O864 2.441 . S
U846 O865 2.420 . S
U846 O866 2.455 . S
U846 O867 2.449 . S
O847 U846 2.454 . S
O847 C849 1.353 . S
O848 U846 2.458 . S
O848 C849 1.286 . S
C849 U846 2.984 . S
C849 O847 1.353 . S
C849 O848 1.286 . S
C849 C851 1.363 . S
C850 C840 1.465 . S
C850 U846 2.847 . S
C850 O864 1.249 . S
C850 O865 1.202 . S
C851 C849 1.363 . S
C851 C853 1.408 . S
C851 C856 1.342 . S
C852 C853 1.310 . S
C852 C855 1.461 . S
C852 H872 0.932 . S
C853 C851 1.408 . S
C853 C852 1.310 . S
C853 H873 0.930 . S
C854 C855 1.474 . S
C854 C856 1.285 . S
C854 H874 0.929 . S
C855 C852 1.461 . S
C855 C854 1.474 . S
C856 C851 1.342 . S
C856 C854 1.285 . S
C856 H875 0.930 . S
C857 C860 1.424 . S
C857 C862 1.245 . S
C857 C863 1.428 . S
C858 C861 1.260 . S
C858 C862 1.477 . S
C858 H876 0.932 . S
C859 C860 1.384 . S
C859 C861 1.479 . S
C859 H877 0.929 . S
C860 C857 1.424 . S
C860 C859 1.384 . S
C860 H878 0.928 . S
C861 C858 1.260 . S
C861 C859 1.479 . S
C862 C857 1.245 . S
C862 C858 1.477 . S
C862 H879 0.932 . S
C863 U846 2.882 . S
C863 C857 1.428 . S
C863 O866 1.301 . S
C863 O867 1.282 . S
O864 U846 2.441 . S
O864 C850 1.249 . S
O865 U846 2.420 . S
O865 C850 1.202 . S
O866 U846 2.455 . S
O866 C863 1.301 . S
O867 U846 2.449 . S
O867 C863 1.282 . S
H868 C841 0.931 . S
H869 C843 0.929 . S
H870 C844 0.930 . S
H871 C845 0.931 . S
H872 C852 0.932 . S
H873 C853 0.930 . S
H874 C854 0.929 . S
H875 C856 0.930 . S
H876 C858 0.932 . S
H877 C859 0.929 . S
H878 C860 0.928 . S
H879 C862 0.932 . S
C880 C881 1.264 . S
C880 C885 1.479 . S
C880 C890 1.465 . S
C881 C880 1.264 . S
C881 C883 1.339 . S
C881 H908 0.931 . S
C882 C883 1.395 . S
C882 C884 1.320 . S
C883 C881 1.339 . S
C883 C882 1.395 . S
C883 H909 0.929 . S
C884 C882 1.320 . S
C884 C885 1.405 . S
C884 H910 0.930 . S
C885 C880 1.479 . S
C885 C884 1.405 . S
C885 H911 0.931 . S
U886 O887 2.454 . S
U886 O888 2.458 . S
U886 C889 2.984 . S
U886 C890 2.847 . S
U886 C903 2.882 . S
U886 O904 2.441 . S
U886 O905 2.420 . S
U886 O906 2.455 . S
U886 O907 2.449 . S
O887 U886 2.454 . S
O887 C889 1.353 . S
O888 U886 2.458 . S
O888 C889 1.286 . S
C889 U886 2.984 . S
C889 O887 1.353 . S
C889 O888 1.286 . S
C889 C891 1.363 . S
C890 C880 1.465 . S
C890 U886 2.847 . S
C890 O904 1.249 . S
C890 O905 1.202 . S
C891 C889 1.363 . S
C891 C893 1.408 . S
C891 C896 1.342 . S
C892 C893 1.310 . S
C892 C895 1.461 . S
C892 H912 0.932 . S
C893 C891 1.408 . S
C893 C892 1.310 . S
C893 H913 0.930 . S
C894 C895 1.474 . S
C894 C896 1.285 . S
C894 H914 0.929 . S
C895 C892 1.461 . S
C895 C894 1.474 . S
C896 C891 1.342 . S
C896 C894 1.285 . S
C896 H915 0.930 . S
C897 C900 1.424 . S
C897 C902 1.245 . S
C897 C903 1.428 . S
C898 C901 1.260 . S
C898 C902 1.477 . S
C898 H916 0.932 . S
C899 C900 1.384 . S
C899 C901 1.479 . S
C899 H917 0.929 . S
C900 C897 1.424 . S
C900 C899 1.384 . S
C900 H918 0.928 . S
C901 C898 1.260 . S
C901 C899 1.479 . S
C902 C897 1.245 . S
C902 C898 1.477 . S
C902 H919 0.932 . S
C903 U886 2.882 . S
C903 C897 1.428 . S
C903 O906 1.301 . S
C903 O907 1.282 . S
O904 U886 2.441 . S
O904 C890 1.249 . S
O905 U886 2.420 . S
O905 C890 1.202 . S
O906 U886 2.455 . S
O906 C903 1.301 . S
O907 U886 2.449 . S
O907 C903 1.282 . S
H908 C881 0.931 . S
H909 C883 0.929 . S
H910 C884 0.930 . S
H911 C885 0.931 . S
H912 C892 0.932 . S
H913 C893 0.930 . S
H914 C894 0.929 . S
H915 C896 0.930 . S
H916 C898 0.932 . S
H917 C899 0.929 . S
H918 C900 0.928 . S
H919 C902 0.932 . S
C920 C921 1.264 . S
C920 C925 1.479 . S
C920 C930 1.465 . S
C921 C920 1.264 . S
C921 C923 1.339 . S
C921 H948 0.931 . S
C922 C923 1.395 . S
C922 C924 1.320 . S
C923 C921 1.339 . S
C923 C922 1.395 . S
C923 H949 0.929 . S
C924 C922 1.320 . S
C924 C925 1.405 . S
C924 H950 0.930 . S
C925 C920 1.479 . S
C925 C924 1.405 . S
C925 H951 0.931 . S
U926 O927 2.454 . S
U926 O928 2.458 . S
U926 C929 2.984 . S
U926 C930 2.847 . S
U926 C943 2.882 . S
U926 O944 2.441 . S
U926 O945 2.420 . S
U926 O946 2.455 . S
U926 O947 2.449 . S
O927 U926 2.454 . S
O927 C929 1.353 . S
O928 U926 2.458 . S
O928 C929 1.286 . S
C929 U926 2.984 . S
C929 O927 1.353 . S
C929 O928 1.286 . S
C929 C931 1.363 . S
C930 C920 1.465 . S
C930 U926 2.847 . S
C930 O944 1.249 . S
C930 O945 1.202 . S
C931 C929 1.363 . S
C931 C933 1.408 . S
C931 C936 1.342 . S
C932 C933 1.310 . S
C932 C935 1.461 . S
C932 H952 0.932 . S
C933 C931 1.408 . S
C933 C932 1.310 . S
C933 H953 0.930 . S
C934 C935 1.474 . S
C934 C936 1.285 . S
C934 H954 0.929 . S
C935 C932 1.461 . S
C935 C934 1.474 . S
C936 C931 1.342 . S
C936 C934 1.285 . S
C936 H955 0.930 . S
C937 C940 1.424 . S
C937 C942 1.245 . S
C937 C943 1.428 . S
C938 C941 1.260 . S
C938 C942 1.477 . S
C938 H956 0.932 . S
C939 C940 1.384 . S
C939 C941 1.479 . S
C939 H957 0.929 . S
C940 C937 1.424 . S
C940 C939 1.384 . S
C940 H958 0.928 . S
C941 C938 1.260 . S
C941 C939 1.479 . S
C942 C937 1.245 . S
C942 C938 1.477 . S
C942 H959 0.932 . S
C943 U926 2.882 . S
C943 C937 1.428 . S
C943 O946 1.301 . S
C943 O947 1.282 . S
O944 U926 2.441 . S
O944 C930 1.249 . S
O945 U926 2.420 . S
O945 C930 1.202 . S
O946 U926 2.455 . S
O946 C943 1.301 . S
O947 U926 2.449 . S
O947 C943 1.282 . S
H948 C921 0.931 . S
H949 C923 0.929 . S
H950 C924 0.930 . S
H951 C925 0.931 . S
H952 C932 0.932 . S
H953 C933 0.930 . S
H954 C934 0.929 . S
H955 C936 0.930 . S
H956 C938 0.932 . S
H957 C939 0.929 . S
H958 C940 0.928 . S
H959 C942 0.932 . S
C960 C961 1.264 . S
C960 C965 1.479 . S
C960 C970 1.465 . S
C961 C960 1.264 . S
C961 C963 1.339 . S
C961 H988 0.931 . S
C962 C963 1.395 . S
C962 C964 1.320 . S
C963 C961 1.339 . S
C963 C962 1.395 . S
C963 H989 0.929 . S
C964 C962 1.320 . S
C964 C965 1.405 . S
C964 H990 0.930 . S
C965 C960 1.479 . S
C965 C964 1.405 . S
C965 H991 0.931 . S
U966 O967 2.454 . S
U966 O968 2.458 . S
U966 C969 2.984 . S
U966 C970 2.847 . S
U966 C983 2.882 . S
U966 O984 2.441 . S
U966 O985 2.420 . S
U966 O986 2.455 . S
U966 O987 2.449 . S
O967 U966 2.454 . S
O967 C969 1.353 . S
O968 U966 2.458 . S
O968 C969 1.286 . S
C969 U966 2.984 . S
C969 O967 1.353 . S
C969 O968 1.286 . S
C969 C971 1.363 . S
C970 C960 1.465 . S
C970 U966 2.847 . S
C970 O984 1.249 . S
C970 O985 1.202 . S
C971 C969 1.363 . S
C971 C973 1.408 . S
C971 C976 1.342 . S
C972 C973 1.310 . S
C972 C975 1.461 . S
C972 H992 0.932 . S
C973 C971 1.408 . S
C973 C972 1.310 . S
C973 H993 0.930 . S
C974 C975 1.474 . S
C974 C976 1.285 . S
C974 H994 0.929 . S
C975 C972 1.461 . S
C975 C974 1.474 . S
C976 C971 1.342 . S
C976 C974 1.285 . S
C976 H995 0.930 . S
C977 C980 1.424 . S
C977 C982 1.245 . S
C977 C983 1.428 . S
C978 C981 1.260 . S
C978 C982 1.477 . S
C978 H996 0.932 . S
C979 C980 1.384 . S
C979 C981 1.479 . S
C979 H997 0.929 . S
C980 C977 1.424 . S
C980 C979 1.384 . S
C980 H998 0.928 . S
C981 C978 1.260 . S
C981 C979 1.479 . S
C982 C977 1.245 . S
C982 C978 1.477 . S
C982 H999 0.932 . S
C983 U966 2.882 . S
C983 C977 1.428 . S
C983 O986 1.301 . S
C983 O987 1.282 . S
O984 U966 2.441 . S
O984 C970 1.249 . S
O985 U966 2.420 . S
O985 C970 1.202 . S
O986 U966 2.455 . S
O986 C983 1.301 . S
O987 U966 2.449 . S
O987 C983 1.282 . S
H988 C961 0.931 . S
H989 C963 0.929 . S
H990 C964 0.930 . S
H991 C965 0.931 . S
H992 C972 0.932 . S
H993 C973 0.930 . S
H994 C974 0.929 . S
H995 C976 0.930 . S
H996 C978 0.932 . S
H997 C979 0.929 . S
H998 C980 0.928 . S
H999 C982 0.932 . S
C1000 C1001 1.264 . S
C1000 C1005 1.479 . S
C1000 C1010 1.465 . S
C1001 C1000 1.264 . S
C1001 C1003 1.339 . S
C1001 H1028 0.931 . S
C1002 C1003 1.395 . S
C1002 C1004 1.320 . S
C1003 C1001 1.339 . S
C1003 C1002 1.395 . S
C1003 H1029 0.929 . S
C1004 C1002 1.320 . S
C1004 C1005 1.405 . S
C1004 H1030 0.930 . S
C1005 C1000 1.479 . S
C1005 C1004 1.405 . S
C1005 H1031 0.931 . S
U1006 O1007 2.454 . S
U1006 O1008 2.458 . S
U1006 C1009 2.984 . S
U1006 C1010 2.847 . S
U1006 C1023 2.882 . S
U1006 O1024 2.441 . S
U1006 O1025 2.420 . S
U1006 O1026 2.455 . S
U1006 O1027 2.449 . S
O1007 U1006 2.454 . S
O1007 C1009 1.353 . S
O1008 U1006 2.458 . S
O1008 C1009 1.286 . S
C1009 U1006 2.984 . S
C1009 O1007 1.353 . S
C1009 O1008 1.286 . S
C1009 C1011 1.363 . S
C1010 C1000 1.465 . S
C1010 U1006 2.847 . S
C1010 O1024 1.249 . S
C1010 O1025 1.202 . S
C1011 C1009 1.363 . S
C1011 C1013 1.408 . S
C1011 C1016 1.342 . S
C1012 C1013 1.310 . S
C1012 C1015 1.461 . S
C1012 H1032 0.932 . S
C1013 C1011 1.408 . S
C1013 C1012 1.310 . S
C1013 H1033 0.930 . S
C1014 C1015 1.474 . S
C1014 C1016 1.285 . S
C1014 H1034 0.929 . S
C1015 C1012 1.461 . S
C1015 C1014 1.474 . S
C1016 C1011 1.342 . S
C1016 C1014 1.285 . S
C1016 H1035 0.930 . S
C1017 C1020 1.424 . S
C1017 C1022 1.245 . S
C1017 C1023 1.428 . S
C1018 C1021 1.260 . S
C1018 C1022 1.477 . S
C1018 H1036 0.932 . S
C1019 C1020 1.384 . S
C1019 C1021 1.479 . S
C1019 H1037 0.929 . S
C1020 C1017 1.424 . S
C1020 C1019 1.384 . S
C1020 H1038 0.928 . S
C1021 C1018 1.260 . S
C1021 C1019 1.479 . S
C1022 C1017 1.245 . S
C1022 C1018 1.477 . S
C1022 H1039 0.932 . S
C1023 U1006 2.882 . S
C1023 C1017 1.428 . S
C1023 O1026 1.301 . S
C1023 O1027 1.282 . S
O1024 U1006 2.441 . S
O1024 C1010 1.249 . S
O1025 U1006 2.420 . S
O1025 C1010 1.202 . S
O1026 U1006 2.455 . S
O1026 C1023 1.301 . S
O1027 U1006 2.449 . S
O1027 C1023 1.282 . S
H1028 C1001 0.931 . S
H1029 C1003 0.929 . S
H1030 C1004 0.930 . S
H1031 C1005 0.931 . S
H1032 C1012 0.932 . S
H1033 C1013 0.930 . S
H1034 C1014 0.929 . S
H1035 C1016 0.930 . S
H1036 C1018 0.932 . S
H1037 C1019 0.929 . S
H1038 C1020 0.928 . S
H1039 C1022 0.932 . S
C1040 C1041 1.264 . S
C1040 C1045 1.479 . S
C1040 C1050 1.465 . S
C1041 C1040 1.264 . S
C1041 C1043 1.339 . S
C1041 H1068 0.931 . S
C1042 C1043 1.395 . S
C1042 C1044 1.320 . S
C1043 C1041 1.339 . S
C1043 C1042 1.395 . S
C1043 H1069 0.929 . S
C1044 C1042 1.320 . S
C1044 C1045 1.405 . S
C1044 H1070 0.930 . S
C1045 C1040 1.479 . S
C1045 C1044 1.405 . S
C1045 H1071 0.931 . S
U1046 O1047 2.454 . S
U1046 O1048 2.458 . S
U1046 C1049 2.984 . S
U1046 C1050 2.847 . S
U1046 C1063 2.882 . S
U1046 O1064 2.441 . S
U1046 O1065 2.420 . S
U1046 O1066 2.455 . S
U1046 O1067 2.449 . S
O1047 U1046 2.454 . S
O1047 C1049 1.353 . S
O1048 U1046 2.458 . S
O1048 C1049 1.286 . S
C1049 U1046 2.984 . S
C1049 O1047 1.353 . S
C1049 O1048 1.286 . S
C1049 C1051 1.363 . S
C1050 C1040 1.465 . S
C1050 U1046 2.847 . S
C1050 O1064 1.249 . S
C1050 O1065 1.202 . S
C1051 C1049 1.363 . S
C1051 C1053 1.408 . S
C1051 C1056 1.342 . S
C1052 C1053 1.310 . S
C1052 C1055 1.461 . S
C1052 H1072 0.932 . S
C1053 C1051 1.408 . S
C1053 C1052 1.310 . S
C1053 H1073 0.930 . S
C1054 C1055 1.474 . S
C1054 C1056 1.285 . S
C1054 H1074 0.929 . S
C1055 C1052 1.461 . S
C1055 C1054 1.474 . S
C1056 C1051 1.342 . S
C1056 C1054 1.285 . S
C1056 H1075 0.930 . S
C1057 C1060 1.424 . S
C1057 C1062 1.245 . S
C1057 C1063 1.428 . S
C1058 C1061 1.260 . S
C1058 C1062 1.477 . S
C1058 H1076 0.932 . S
C1059 C1060 1.384 . S
C1059 C1061 1.479 . S
C1059 H1077 0.929 . S
C1060 C1057 1.424 . S
C1060 C1059 1.384 . S
C1060 H1078 0.928 . S
C1061 C1058 1.260 . S
C1061 C1059 1.479 . S
C1062 C1057 1.245 . S
C1062 C1058 1.477 . S
C1062 H1079 0.932 . S
C1063 U1046 2.882 . S
C1063 C1057 1.428 . S
C1063 O1066 1.301 . S
C1063 O1067 1.282 . S
O1064 U1046 2.441 . S
O1064 C1050 1.249 . S
O1065 U1046 2.420 . S
O1065 C1050 1.202 . S
O1066 U1046 2.455 . S
O1066 C1063 1.301 . S
O1067 U1046 2.449 . S
O1067 C1063 1.282 . S
H1068 C1041 0.931 . S
H1069 C1043 0.929 . S
H1070 C1044 0.930 . S
H1071 C1045 0.931 . S
H1072 C1052 0.932 . S
H1073 C1053 0.930 . S
H1074 C1054 0.929 . S
H1075 C1056 0.930 . S
H1076 C1058 0.932 . S
H1077 C1059 0.929 . S
H1078 C1060 0.928 . S
H1079 C1062 0.932 . S
C1080 C1081 1.264 . S
C1080 C1085 1.479 . S
C1080 C1090 1.465 . S
C1081 C1080 1.264 . S
C1081 C1083 1.339 . S
C1081 H1108 0.931 . S
C1082 C1083 1.395 . S
C1082 C1084 1.320 . S
C1083 C1081 1.339 . S
C1083 C1082 1.395 . S
C1083 H1109 0.929 . S
C1084 C1082 1.320 . S
C1084 C1085 1.405 . S
C1084 H1110 0.930 . S
C1085 C1080 1.479 . S
C1085 C1084 1.405 . S
C1085 H1111 0.931 . S
U1086 O1087 2.454 . S
U1086 O1088 2.458 . S
U1086 C1089 2.984 . S
U1086 C1090 2.847 . S
U1086 C1103 2.882 . S
U1086 O1104 2.441 . S
U1086 O1105 2.420 . S
U1086 O1106 2.455 . S
U1086 O1107 2.449 . S
O1087 U1086 2.454 . S
O1087 C1089 1.353 . S
O1088 U1086 2.458 . S
O1088 C1089 1.286 . S
C1089 U1086 2.984 . S
C1089 O1087 1.353 . S
C1089 O1088 1.286 . S
C1089 C1091 1.363 . S
C1090 C1080 1.465 . S
C1090 U1086 2.847 . S
C1090 O1104 1.249 . S
C1090 O1105 1.202 . S
C1091 C1089 1.363 . S
C1091 C1093 1.408 . S
C1091 C1096 1.342 . S
C1092 C1093 1.310 . S
C1092 C1095 1.461 . S
C1092 H1112 0.932 . S
C1093 C1091 1.408 . S
C1093 C1092 1.310 . S
C1093 H1113 0.930 . S
C1094 C1095 1.474 . S
C1094 C1096 1.285 . S
C1094 H1114 0.929 . S
C1095 C1092 1.461 . S
C1095 C1094 1.474 . S
C1096 C1091 1.342 . S
C1096 C1094 1.285 . S
C1096 H1115 0.930 . S
C1097 C1100 1.424 . S
C1097 C1102 1.245 . S
C1097 C1103 1.428 . S
C1098 C1101 1.260 . S
C1098 C1102 1.477 . S
C1098 H1116 0.932 . S
C1099 C1100 1.384 . S
C1099 C1101 1.479 . S
C1099 H1117 0.929 . S
C1100 C1097 1.424 . S
C1100 C1099 1.384 . S
C1100 H1118 0.928 . S
C1101 C1098 1.260 . S
C1101 C1099 1.479 . S
C1102 C1097 1.245 . S
C1102 C1098 1.477 . S
C1102 H1119 0.932 . S
C1103 U1086 2.882 . S
C1103 C1097 1.428 . S
C1103 O1106 1.301 . S
C1103 O1107 1.282 . S
O1104 U1086 2.441 . S
O1104 C1090 1.249 . S
O1105 U1086 2.420 . S
O1105 C1090 1.202 . S
O1106 U1086 2.455 . S
O1106 C1103 1.301 . S
O1107 U1086 2.449 . S
O1107 C1103 1.282 . S
H1108 C1081 0.931 . S
H1109 C1083 0.929 . S
H1110 C1084 0.930 . S
H1111 C1085 0.931 . S
H1112 C1092 0.932 . S
H1113 C1093 0.930 . S
H1114 C1094 0.929 . S
H1115 C1096 0.930 . S
H1116 C1098 0.932 . S
H1117 C1099 0.929 . S
H1118 C1100 0.928 . S
H1119 C1102 0.932 . S
C1120 C1121 1.264 . S
C1120 C1125 1.479 . S
C1120 C1130 1.465 . S
C1121 C1120 1.264 . S
C1121 C1123 1.339 . S
C1121 H1148 0.931 . S
C1122 C1123 1.395 . S
C1122 C1124 1.320 . S
C1123 C1121 1.339 . S
C1123 C1122 1.395 . S
C1123 H1149 0.929 . S
C1124 C1122 1.320 . S
C1124 C1125 1.405 . S
C1124 H1150 0.930 . S
C1125 C1120 1.479 . S
C1125 C1124 1.405 . S
C1125 H1151 0.931 . S
U1126 O1127 2.454 . S
U1126 O1128 2.458 . S
U1126 C1129 2.984 . S
U1126 C1130 2.847 . S
U1126 C1143 2.882 . S
U1126 O1144 2.441 . S
U1126 O1145 2.420 . S
U1126 O1146 2.455 . S
U1126 O1147 2.449 . S
O1127 U1126 2.454 . S
O1127 C1129 1.353 . S
O1128 U1126 2.458 . S
O1128 C1129 1.286 . S
C1129 U1126 2.984 . S
C1129 O1127 1.353 . S
C1129 O1128 1.286 . S
C1129 C1131 1.363 . S
C1130 C1120 1.465 . S
C1130 U1126 2.847 . S
C1130 O1144 1.249 . S
C1130 O1145 1.202 . S
C1131 C1129 1.363 . S
C1131 C1133 1.408 . S
C1131 C1136 1.342 . S
C1132 C1133 1.310 . S
C1132 C1135 1.461 . S
C1132 H1152 0.932 . S
C1133 C1131 1.408 . S
C1133 C1132 1.310 . S
C1133 H1153 0.930 . S
C1134 C1135 1.474 . S
C1134 C1136 1.285 . S
C1134 H1154 0.929 . S
C1135 C1132 1.461 . S
C1135 C1134 1.474 . S
C1136 C1131 1.342 . S
C1136 C1134 1.285 . S
C1136 H1155 0.930 . S
C1137 C1140 1.424 . S
C1137 C1142 1.245 . S
C1137 C1143 1.428 . S
C1138 C1141 1.260 . S
C1138 C1142 1.477 . S
C1138 H1156 0.932 . S
C1139 C1140 1.384 . S
C1139 C1141 1.479 . S
C1139 H1157 0.929 . S
C1140 C1137 1.424 . S
C1140 C1139 1.384 . S
C1140 H1158 0.928 . S
C1141 C1138 1.260 . S
C1141 C1139 1.479 . S
C1142 C1137 1.245 . S
C1142 C1138 1.477 . S
C1142 H1159 0.932 . S
C1143 U1126 2.882 . S
C1143 C1137 1.428 . S
C1143 O1146 1.301 . S
C1143 O1147 1.282 . S
O1144 U1126 2.441 . S
O1144 C1130 1.249 . S
O1145 U1126 2.420 . S
O1145 C1130 1.202 . S
O1146 U1126 2.455 . S
O1146 C1143 1.301 . S
O1147 U1126 2.449 . S
O1147 C1143 1.282 . S
H1148 C1121 0.931 . S
H1149 C1123 0.929 . S
H1150 C1124 0.930 . S
H1151 C1125 0.931 . S
H1152 C1132 0.932 . S
H1153 C1133 0.930 . S
H1154 C1134 0.929 . S
H1155 C1136 0.930 . S
H1156 C1138 0.932 . S
H1157 C1139 0.929 . S
H1158 C1140 0.928 . S
H1159 C1142 0.932 . S
C1160 C1161 1.264 . S
C1160 C1165 1.479 . S
C1160 C1170 1.465 . S
C1161 C1160 1.264 . S
C1161 C1163 1.339 . S
C1161 H1188 0.931 . S
C1162 C1163 1.395 . S
C1162 C1164 1.320 . S
C1163 C1161 1.339 . S
C1163 C1162 1.395 . S
C1163 H1189 0.929 . S
C1164 C1162 1.320 . S
C1164 C1165 1.405 . S
C1164 H1190 0.930 . S
C1165 C1160 1.479 . S
C1165 C1164 1.405 . S
C1165 H1191 0.931 . S
U1166 O1167 2.454 . S
U1166 O1168 2.458 . S
U1166 C1169 2.984 . S
U1166 C1170 2.847 . S
U1166 C1183 2.882 . S
U1166 O1184 2.441 . S
U1166 O1185 2.420 . S
U1166 O1186 2.455 . S
U1166 O1187 2.449 . S
O1167 U1166 2.454 . S
O1167 C1169 1.353 . S
O1168 U1166 2.458 . S
O1168 C1169 1.286 . S
C1169 U1166 2.984 . S
C1169 O1167 1.353 . S
C1169 O1168 1.286 . S
C1169 C1171 1.363 . S
C1170 C1160 1.465 . S
C1170 U1166 2.847 . S
C1170 O1184 1.249 . S
C1170 O1185 1.202 . S
C1171 C1169 1.363 . S
C1171 C1173 1.408 . S
C1171 C1176 1.342 . S
C1172 C1173 1.310 . S
C1172 C1175 1.461 . S
C1172 H1192 0.932 . S
C1173 C1171 1.408 . S
C1173 C1172 1.310 . S
C1173 H1193 0.930 . S
C1174 C1175 1.474 . S
C1174 C1176 1.285 . S
C1174 H1194 0.929 . S
C1175 C1172 1.461 . S
C1175 C1174 1.474 . S
C1176 C1171 1.342 . S
C1176 C1174 1.285 . S
C1176 H1195 0.930 . S
C1177 C1180 1.424 . S
C1177 C1182 1.245 . S
C1177 C1183 1.428 . S
C1178 C1181 1.260 . S
C1178 C1182 1.477 . S
C1178 H1196 0.932 . S
C1179 C1180 1.384 . S
C1179 C1181 1.479 . S
C1179 H1197 0.929 . S
C1180 C1177 1.424 . S
C1180 C1179 1.384 . S
C1180 H1198 0.928 . S
C1181 C1178 1.260 . S
C1181 C1179 1.479 . S
C1182 C1177 1.245 . S
C1182 C1178 1.477 . S
C1182 H1199 0.932 . S
C1183 U1166 2.882 . S
C1183 C1177 1.428 . S
C1183 O1186 1.301 . S
C1183 O1187 1.282 . S
O1184 U1166 2.441 . S
O1184 C1170 1.249 . S
O1185 U1166 2.420 . S
O1185 C1170 1.202 . S
O1186 U1166 2.455 . S
O1186 C1183 1.301 . S
O1187 U1166 2.449 . S
O1187 C1183 1.282 . S
H1188 C1161 0.931 . S
H1189 C1163 0.929 . S
H1190 C1164 0.930 . S
H1191 C1165 0.931 . S
H1192 C1172 0.932 . S
H1193 C1173 0.930 . S
H1194 C1174 0.929 . S
H1195 C1176 0.930 . S
H1196 C1178 0.932 . S
H1197 C1179 0.929 . S
H1198 C1180 0.928 . S
H1199 C1182 0.932 . S
C1200 C1201 1.264 . S
C1200 C1205 1.479 . S
C1200 C1210 1.465 . S
C1201 C1200 1.264 . S
C1201 C1203 1.339 . S
C1201 H1228 0.931 . S
C1202 C1203 1.395 . S
C1202 C1204 1.320 . S
C1203 C1201 1.339 . S
C1203 C1202 1.395 . S
C1203 H1229 0.929 . S
C1204 C1202 1.320 . S
C1204 C1205 1.405 . S
C1204 H1230 0.930 . S
C1205 C1200 1.479 . S
C1205 C1204 1.405 . S
C1205 H1231 0.931 . S
U1206 O1207 2.454 . S
U1206 O1208 2.458 . S
U1206 C1209 2.984 . S
U1206 C1210 2.847 . S
U1206 C1223 2.882 . S
U1206 O1224 2.441 . S
U1206 O1225 2.420 . S
U1206 O1226 2.455 . S
U1206 O1227 2.449 . S
O1207 U1206 2.454 . S
O1207 C1209 1.353 . S
O1208 U1206 2.458 . S
O1208 C1209 1.286 . S
C1209 U1206 2.984 . S
C1209 O1207 1.353 . S
C1209 O1208 1.286 . S
C1209 C1211 1.363 . S
C1210 C1200 1.465 . S
C1210 U1206 2.847 . S
C1210 O1224 1.249 . S
C1210 O1225 1.202 . S
C1211 C1209 1.363 . S
C1211 C1213 1.408 . S
C1211 C1216 1.342 . S
C1212 C1213 1.310 . S
C1212 C1215 1.461 . S
C1212 H1232 0.932 . S
C1213 C1211 1.408 . S
C1213 C1212 1.310 . S
C1213 H1233 0.930 . S
C1214 C1215 1.474 . S
C1214 C1216 1.285 . S
C1214 H1234 0.929 . S
C1215 C1212 1.461 . S
C1215 C1214 1.474 . S
C1216 C1211 1.342 . S
C1216 C1214 1.285 . S
C1216 H1235 0.930 . S
C1217 C1220 1.424 . S
C1217 C1222 1.245 . S
C1217 C1223 1.428 . S
C1218 C1221 1.260 . S
C1218 C1222 1.477 . S
C1218 H1236 0.932 . S
C1219 C1220 1.384 . S
C1219 C1221 1.479 . S
C1219 H1237 0.929 . S
C1220 C1217 1.424 . S
C1220 C1219 1.384 . S
C1220 H1238 0.928 . S
C1221 C1218 1.260 . S
C1221 C1219 1.479 . S
C1222 C1217 1.245 . S
C1222 C1218 1.477 . S
C1222 H1239 0.932 . S
C1223 U1206 2.882 . S
C1223 C1217 1.428 . S
C1223 O1226 1.301 . S
C1223 O1227 1.282 . S
O1224 U1206 2.441 . S
O1224 C1210 1.249 . S
O1225 U1206 2.420 . S
O1225 C1210 1.202 . S
O1226 U1206 2.455 . S
O1226 C1223 1.301 . S
O1227 U1206 2.449 . S
O1227 C1223 1.282 . S
H1228 C1201 0.931 . S
H1229 C1203 0.929 . S
H1230 C1204 0.930 . S
H1231 C1205 0.931 . S
H1232 C1212 0.932 . S
H1233 C1213 0.930 . S
H1234 C1214 0.929 . S
H1235 C1216 0.930 . S
H1236 C1218 0.932 . S
H1237 C1219 0.929 . S
H1238 C1220 0.928 . S
H1239 C1222 0.932 . S
C1240 C1241 1.264 . S
C1240 C1245 1.479 . S
C1240 C1250 1.465 . S
C1241 C1240 1.264 . S
C1241 C1243 1.339 . S
C1241 H1268 0.931 . S
C1242 C1243 1.395 . S
C1242 C1244 1.320 . S
C1243 C1241 1.339 . S
C1243 C1242 1.395 . S
C1243 H1269 0.929 . S
C1244 C1242 1.320 . S
C1244 C1245 1.405 . S
C1244 H1270 0.930 . S
C1245 C1240 1.479 . S
C1245 C1244 1.405 . S
C1245 H1271 0.931 . S
U1246 O1247 2.454 . S
U1246 O1248 2.458 . S
U1246 C1249 2.984 . S
U1246 C1250 2.847 . S
U1246 C1263 2.882 . S
U1246 O1264 2.441 . S
U1246 O1265 2.420 . S
U1246 O1266 2.455 . S
U1246 O1267 2.449 . S
O1247 U1246 2.454 . S
O1247 C1249 1.353 . S
O1248 U1246 2.458 . S
O1248 C1249 1.286 . S
C1249 U1246 2.984 . S
C1249 O1247 1.353 . S
C1249 O1248 1.286 . S
C1249 C1251 1.363 . S
C1250 C1240 1.465 . S
C1250 U1246 2.847 . S
C1250 O1264 1.249 . S
C1250 O1265 1.202 . S
C1251 C1249 1.363 . S
C1251 C1253 1.408 . S
C1251 C1256 1.342 . S
C1252 C1253 1.310 . S
C1252 C1255 1.461 . S
C1252 H1272 0.932 . S
C1253 C1251 1.408 . S
C1253 C1252 1.310 . S
C1253 H1273 0.930 . S
C1254 C1255 1.474 . S
C1254 C1256 1.285 . S
C1254 H1274 0.929 . S
C1255 C1252 1.461 . S
C1255 C1254 1.474 . S
C1256 C1251 1.342 . S
C1256 C1254 1.285 . S
C1256 H1275 0.930 . S
C1257 C1260 1.424 . S
C1257 C1262 1.245 . S
C1257 C1263 1.428 . S
C1258 C1261 1.260 . S
C1258 C1262 1.477 . S
C1258 H1276 0.932 . S
C1259 C1260 1.384 . S
C1259 C1261 1.479 . S
C1259 H1277 0.929 . S
C1260 C1257 1.424 . S
C1260 C1259 1.384 . S
C1260 H1278 0.928 . S
C1261 C1258 1.260 . S
C1261 C1259 1.479 . S
C1262 C1257 1.245 . S
C1262 C1258 1.477 . S
C1262 H1279 0.932 . S
C1263 U1246 2.882 . S
C1263 C1257 1.428 . S
C1263 O1266 1.301 . S
C1263 O1267 1.282 . S
O1264 U1246 2.441 . S
O1264 C1250 1.249 . S
O1265 U1246 2.420 . S
O1265 C1250 1.202 . S
O1266 U1246 2.455 . S
O1266 C1263 1.301 . S
O1267 U1246 2.449 . S
O1267 C1263 1.282 . S
H1268 C1241 0.931 . S
H1269 C1243 0.929 . S
H1270 C1244 0.930 . S
H1271 C1245 0.931 . S
H1272 C1252 0.932 . S
H1273 C1253 0.930 . S
H1274 C1254 0.929 . S
H1275 C1256 0.930 . S
H1276 C1258 0.932 . S
H1277 C1259 0.929 . S
H1278 C1260 0.928 . S
H1279 C1262 0.932 . S
H1280 O1306 0.856 . S
H1281 O1309 0.854 . S
H1282 C1317 0.930 . S
H1283 C1318 0.930 . S
H1284 C1320 0.930 . S
H1285 C1321 0.930 . S
H1286 C1323 0.931 . S
H1287 C1324 0.930 . S
H1288 C1326 0.930 . S
H1289 C1327 0.929 . S
H1290 C1329 0.930 . S
H1291 C1330 0.931 . S
H1292 C1332 0.930 . S
H1293 C1333 0.929 . S
H1294 C1335 0.931 . S
H1295 C1336 0.930 . S
H1296 C1338 0.930 . S
H1297 C1339 0.932 . S
H1298 C1341 0.930 . S
H1299 C1342 0.929 . S
H1300 C1344 0.931 . S
H1301 C1345 0.930 . S
H1302 C1347 0.929 . S
H1303 C1348 0.931 . S
H1304 C1350 0.930 . S
H1305 C1351 0.929 . S
O1306 H1280 0.856 . S
O1306 C1352 1.300 . S
O1307 C1352 1.209 . S
O1308 C1353 1.199 . S
O1309 H1281 0.854 . S
O1309 C1353 1.297 . S
C1310 C1311 1.404 . S
C1310 C1315 1.397 . S
C1310 C1316 1.492 1_554 S
C1311 C1310 1.404 . S
C1311 C1312 1.396 . S
C1311 C1322 1.492 . S
C1312 C1311 1.396 . S
C1312 C1313 1.397 . S
C1312 C1328 1.509 . S
C1313 C1312 1.397 . S
C1313 C1314 1.412 . S
C1313 C1334 1.485 . S
C1314 C1313 1.412 . S
C1314 C1315 1.388 . S
C1314 C1340 1.490 . S
C1315 C1310 1.397 . S
C1315 C1314 1.388 . S
C1315 C1346 1.519 1_554 S
C1316 C1310 1.492 1_556 S
C1316 C1317 1.363 . S
C1316 C1321 1.390 . S
C1317 H1282 0.930 . S
C1317 C1316 1.363 . S
C1317 C1318 1.372 . S
C1318 H1283 0.930 . S
C1318 C1317 1.372 . S
C1318 C1319 1.383 . S
C1319 C1318 1.383 . S
C1319 C1320 1.395 . S
C1320 H1284 0.930 . S
C1320 C1319 1.395 . S
C1320 C1321 1.362 . S
C1321 H1285 0.930 . S
C1321 C1316 1.390 . S
C1321 C1320 1.362 . S
C1322 C1311 1.492 . S
C1322 C1323 1.377 . S
C1322 C1327 1.397 . S
C1323 H1286 0.931 . S
C1323 C1322 1.377 . S
C1323 C1324 1.376 . S
C1324 H1287 0.930 . S
C1324 C1323 1.376 . S
C1324 C1325 1.376 . S
C1325 C1324 1.376 . S
C1325 C1326 1.378 . S
C1325 C1352 1.486 . S
C1326 H1288 0.930 . S
C1326 C1325 1.378 . S
C1326 C1327 1.376 . S
C1327 H1289 0.929 . S
C1327 C1322 1.397 . S
C1327 C1326 1.376 . S
C1328 C1312 1.509 . S
C1328 C1329 1.391 . S
C1328 C1333 1.386 . S
C1329 H1290 0.930 . S
C1329 C1328 1.391 . S
C1329 C1330 1.375 . S
C1330 H1291 0.931 . S
C1330 C1329 1.375 . S
C1330 C1331 1.375 . S
C1331 C1330 1.375 . S
C1331 C1332 1.361 . S
C1332 H1292 0.930 . S
C1332 C1331 1.361 . S
C1332 C1333 1.399 . S
C1333 H1293 0.929 . S
C1333 C1328 1.386 . S
C1333 C1332 1.399 . S
C1334 C1313 1.485 . S
C1334 C1335 1.394 . S
C1334 C1339 1.360 . S
C1335 H1294 0.931 . S
C1335 C1334 1.394 . S
C1335 C1336 1.372 . S
C1336 H1295 0.930 . S
C1336 C1335 1.372 . S
C1336 C1337 1.397 . S
C1337 C1336 1.397 . S
C1337 C1338 1.390 . S
C1337 C1353 1.476 . S
C1338 H1296 0.930 . S
C1338 C1337 1.390 . S
C1338 C1339 1.366 . S
C1339 H1297 0.932 . S
C1339 C1334 1.360 . S
C1339 C1338 1.366 . S
C1340 C1314 1.490 . S
C1340 C1341 1.380 . S
C1340 C1345 1.386 . S
C1341 H1298 0.930 . S
C1341 C1340 1.380 . S
C1341 C1342 1.381 . S
C1342 H1299 0.929 . S
C1342 C1341 1.381 . S
C1342 C1343 1.371 . S
C1343 C1342 1.371 . S
C1343 C1344 1.380 . S
C1344 H1300 0.931 . S
C1344 C1343 1.380 . S
C1344 C1345 1.387 . S
C1345 H1301 0.930 . S
C1345 C1340 1.386 . S
C1345 C1344 1.387 . S
C1346 C1315 1.519 1_556 S
C1346 C1347 1.377 . S
C1346 C1351 1.361 . S
C1347 H1302 0.929 . S
C1347 C1346 1.377 . S
C1347 C1348 1.386 . S
C1348 H1303 0.931 . S
C1348 C1347 1.386 . S
C1348 C1349 1.363 . S
C1349 C1348 1.363 . S
C1349 C1350 1.385 . S
C1350 H1304 0.930 . S
C1350 C1349 1.385 . S
C1350 C1351 1.396 . S
C1351 H1305 0.929 . S
C1351 C1346 1.361 . S
C1351 C1350 1.396 . S
C1352 O1306 1.300 . S
C1352 O1307 1.209 . S
C1352 C1325 1.486 . S
C1353 O1308 1.199 . S
C1353 O1309 1.297 . S
C1353 C1337 1.476 . S
H1354 O1380 0.856 . S
H1355 O1383 0.854 . S
H1356 C1391 0.930 . S
H1357 C1392 0.930 . S
H1358 C1394 0.930 . S
H1359 C1395 0.930 . S
H1360 C1397 0.931 . S
H1361 C1398 0.930 . S
H1362 C1400 0.930 . S
H1363 C1401 0.929 . S
H1364 C1403 0.930 . S
H1365 C1404 0.931 . S
H1366 C1406 0.930 . S
H1367 C1407 0.929 . S
H1368 C1409 0.931 . S
H1369 C1410 0.930 . S
H1370 C1412 0.930 . S
H1371 C1413 0.932 . S
H1372 C1415 0.930 . S
H1373 C1416 0.929 . S
H1374 C1418 0.931 . S
H1375 C1419 0.930 . S
H1376 C1421 0.929 . S
H1377 C1422 0.931 . S
H1378 C1424 0.930 . S
H1379 C1425 0.891 1_554 S
O1380 H1354 0.856 . S
O1380 C1426 1.300 . S
O1381 C1426 1.209 . S
O1382 C1427 1.199 . S
O1383 H1355 0.854 . S
O1383 C1427 1.297 . S
C1384 C1385 1.434 . S
C1384 C1389 1.411 . S
C1384 C1390 1.451 1_554 S
C1385 C1384 1.434 . S
C1385 C1386 1.396 . S
C1385 C1396 1.492 . S
C1386 C1385 1.396 . S
C1386 C1387 1.397 . S
C1386 C1402 1.509 . S
C1387 C1386 1.397 . S
C1387 C1388 1.412 . S
C1387 C1408 1.485 . S
C1388 C1387 1.412 . S
C1388 C1389 1.388 . S
C1388 C1414 1.490 . S
C1389 C1384 1.411 . S
C1389 C1388 1.388 . S
C1389 C1420 1.519 1_554 S
C1390 C1384 1.451 1_556 S
C1390 C1391 1.363 . S
C1390 C1395 1.390 . S
C1391 H1356 0.930 . S
C1391 C1390 1.363 . S
C1391 C1392 1.372 . S
C1392 H1357 0.930 . S
C1392 C1391 1.372 . S
C1392 C1393 1.383 . S
C1393 C1392 1.383 . S
C1393 C1394 1.395 . S
C1394 H1358 0.930 . S
C1394 C1393 1.395 . S
C1394 C1395 1.362 . S
C1395 H1359 0.930 . S
C1395 C1390 1.390 . S
C1395 C1394 1.362 . S
C1396 C1385 1.492 . S
C1396 C1397 1.377 . S
C1396 C1401 1.397 1_554 S
C1397 H1360 0.931 . S
C1397 C1396 1.377 . S
C1397 C1398 1.376 . S
C1398 H1361 0.930 . S
C1398 C1397 1.376 . S
C1398 C1399 1.376 1_554 S
C1399 C1398 1.376 1_556 S
C1399 C1400 1.378 . S
C1399 C1426 1.486 . S
C1400 H1362 0.930 . S
C1400 C1399 1.378 . S
C1400 C1401 1.376 . S
C1401 H1363 0.929 . S
C1401 C1396 1.397 1_556 S
C1401 C1400 1.376 . S
C1402 C1386 1.509 . S
C1402 C1403 1.391 . S
C1402 C1407 1.386 . S
C1403 H1364 0.930 . S
C1403 C1402 1.391 . S
C1403 C1404 1.375 . S
C1404 H1365 0.931 . S
C1404 C1403 1.375 . S
C1404 C1405 1.375 . S
C1405 C1404 1.375 . S
C1405 C1406 1.361 . S
C1406 H1366 0.930 . S
C1406 C1405 1.361 . S
C1406 C1407 1.399 . S
C1407 H1367 0.929 . S
C1407 C1402 1.386 . S
C1407 C1406 1.399 . S
C1408 C1387 1.485 . S
C1408 C1409 1.394 . S
C1408 C1413 1.360 . S
C1409 H1368 0.931 . S
C1409 C1408 1.394 . S
C1409 C1410 1.372 . S
C1410 H1369 0.930 . S
C1410 C1409 1.372 . S
C1410 C1411 1.397 . S
C1411 C1410 1.397 . S
C1411 C1412 1.390 . S
C1411 C1427 1.476 . S
C1412 H1370 0.930 . S
C1412 C1411 1.390 . S
C1412 C1413 1.366 . S
C1413 H1371 0.932 . S
C1413 C1408 1.360 . S
C1413 C1412 1.366 . S
C1414 C1388 1.490 . S
C1414 C1415 1.380 . S
C1414 C1419 1.386 . S
C1415 H1372 0.930 . S
C1415 C1414 1.380 . S
C1415 C1416 1.381 . S
C1416 H1373 0.929 . S
C1416 C1415 1.381 . S
C1416 C1417 1.371 . S
C1417 C1416 1.371 . S
C1417 C1418 1.380 . S
C1418 H1374 0.931 . S
C1418 C1417 1.380 . S
C1418 C1419 1.387 . S
C1419 H1375 0.930 . S
C1419 C1414 1.386 . S
C1419 C1418 1.387 . S
C1420 C1389 1.519 1_556 S
C1420 C1421 1.377 . S
C1420 C1425 1.361 . S
C1421 H1376 0.929 . S
C1421 C1420 1.377 . S
C1421 C1422 1.386 . S
C1422 H1377 0.931 . S
C1422 C1421 1.386 . S
C1422 C1423 1.363 . S
C1423 C1422 1.363 . S
C1423 C1424 1.385 . S
C1424 H1378 0.930 . S
C1424 C1423 1.385 . S
C1424 C1425 1.396 . S
C1425 H1379 0.891 1_556 S
C1425 C1420 1.361 . S
C1425 C1424 1.396 . S
C1426 O1380 1.300 . S
C1426 O1381 1.209 . S
C1426 C1399 1.486 . S
C1427 O1382 1.199 . S
C1427 O1383 1.297 . S
C1427 C1411 1.476 . S
H1428 O1454 0.856 . S
H1429 O1457 0.854 . S
H1430 C1465 0.930 . S
H1431 C1466 0.930 . S
H1432 C1468 0.930 . S
H1433 C1469 0.930 . S
H1434 C1471 0.931 . S
H1435 C1472 0.930 . S
H1436 C1474 0.930 . S
H1437 C1475 0.929 . S
H1438 C1477 0.930 . S
H1439 C1478 0.931 . S
H1440 C1480 0.930 . S
H1441 C1481 0.929 . S
H1442 C1483 0.931 . S
H1443 C1484 0.930 . S
H1444 C1486 0.930 . S
H1445 C1487 0.932 . S
H1446 C1489 0.930 . S
H1447 C1490 0.929 . S
H1448 C1492 0.931 . S
H1449 C1493 0.930 . S
H1450 C1495 0.929 . S
H1451 C1496 0.931 . S
H1452 C1498 0.930 . S
H1453 C1499 0.929 . S
O1454 H1428 0.856 . S
O1454 C1500 1.300 . S
O1455 C1500 1.209 . S
O1456 C1501 1.199 . S
O1457 H1429 0.854 . S
O1457 C1501 1.297 . S
C1458 C1459 1.404 . S
C1458 C1463 1.397 . S
C1458 C1464 1.492 . S
C1459 C1458 1.404 . S
C1459 C1460 1.396 1_554 S
C1459 C1470 1.492 . S
C1460 C1459 1.396 1_556 S
C1460 C1461 1.397 . S
C1460 C1476 1.509 . S
C1461 C1460 1.397 . S
C1461 C1462 1.412 . S
C1461 C1482 1.485 . S
C1462 C1461 1.412 . S
C1462 C1463 1.388 1_556 S
C1462 C1488 1.490 . S
C1463 C1458 1.397 . S
C1463 C1462 1.388 1_554 S
C1463 C1494 1.519 . S
C1464 C1458 1.492 . S
C1464 C1465 1.363 . S
C1464 C1469 1.390 . S
C1465 H1430 0.930 . S
C1465 C1464 1.363 . S
C1465 C1466 1.372 . S
C1466 H1431 0.930 . S
C1466 C1465 1.372 . S
C1466 C1467 1.383 . S
C1467 C1466 1.383 . S
C1467 C1468 1.395 . S
C1468 H1432 0.930 . S
C1468 C1467 1.395 . S
C1468 C1469 1.362 . S
C1469 H1433 0.930 . S
C1469 C1464 1.390 . S
C1469 C1468 1.362 . S
C1470 C1459 1.492 . S
C1470 C1471 1.377 . S
C1470 C1475 1.397 . S
C1471 H1434 0.931 . S
C1471 C1470 1.377 . S
C1471 C1472 1.376 . S
C1472 H1435 0.930 . S
C1472 C1471 1.376 . S
C1472 C1473 1.376 . S
C1473 C1472 1.376 . S
C1473 C1474 1.378 . S
C1473 C1500 1.486 . S
C1474 H1436 0.930 . S
C1474 C1473 1.378 . S
C1474 C1475 1.376 . S
C1475 H1437 0.929 . S
C1475 C1470 1.397 . S
C1475 C1474 1.376 . S
C1476 C1460 1.509 . S
C1476 C1477 1.391 . S
C1476 C1481 1.386 . S
C1477 H1438 0.930 . S
C1477 C1476 1.391 . S
C1477 C1478 1.375 . S
C1478 H1439 0.931 . S
C1478 C1477 1.375 . S
C1478 C1479 1.375 . S
C1479 C1478 1.375 . S
C1479 C1480 1.361 . S
C1480 H1440 0.930 . S
C1480 C1479 1.361 . S
C1480 C1481 1.399 . S
C1481 H1441 0.929 . S
C1481 C1476 1.386 . S
C1481 C1480 1.399 . S
C1482 C1461 1.485 . S
C1482 C1483 1.394 . S
C1482 C1487 1.360 . S
C1483 H1442 0.931 . S
C1483 C1482 1.394 . S
C1483 C1484 1.372 . S
C1484 H1443 0.930 . S
C1484 C1483 1.372 . S
C1484 C1485 1.397 . S
C1485 C1484 1.397 . S
C1485 C1486 1.390 . S
C1485 C1501 1.476 . S
C1486 H1444 0.930 . S
C1486 C1485 1.390 . S
C1486 C1487 1.366 . S
C1487 H1445 0.932 . S
C1487 C1482 1.360 . S
C1487 C1486 1.366 . S
C1488 C1462 1.490 . S
C1488 C1489 1.380 . S
C1488 C1493 1.386 . S
C1489 H1446 0.930 . S
C1489 C1488 1.380 . S
C1489 C1490 1.381 . S
C1490 H1447 0.929 . S
C1490 C1489 1.381 . S
C1490 C1491 1.371 . S
C1491 C1490 1.371 . S
C1491 C1492 1.380 . S
C1492 H1448 0.931 . S
C1492 C1491 1.380 . S
C1492 C1493 1.387 . S
C1493 H1449 0.930 . S
C1493 C1488 1.386 . S
C1493 C1492 1.387 . S
C1494 C1463 1.519 . S
C1494 C1495 1.377 . S
C1494 C1499 1.361 . S
C1495 H1450 0.929 . S
C1495 C1494 1.377 . S
C1495 C1496 1.386 . S
C1496 H1451 0.931 . S
C1496 C1495 1.386 . S
C1496 C1497 1.363 . S
C1497 C1496 1.363 . S
C1497 C1498 1.385 . S
C1498 H1452 0.930 . S
C1498 C1497 1.385 . S
C1498 C1499 1.396 . S
C1499 H1453 0.929 . S
C1499 C1494 1.361 . S
C1499 C1498 1.396 . S
C1500 O1454 1.300 . S
C1500 O1455 1.209 . S
C1500 C1473 1.486 . S
C1501 O1456 1.199 . S
C1501 O1457 1.297 . S
C1501 C1485 1.476 . S
H1502 O1528 0.856 . S
H1503 O1531 0.854 . S
H1504 C1539 0.930 . S
H1505 C1540 0.930 . S
H1506 C1542 0.930 . S
H1507 C1543 0.930 . S
H1508 C1545 0.931 . S
H1509 C1546 0.930 . S
H1510 C1548 0.930 . S
H1511 C1549 0.925 1_556 S
H1512 C1551 0.930 . S
H1513 C1552 0.931 . S
H1514 C1554 0.930 . S
H1515 C1555 0.929 . S
H1516 C1557 0.931 . S
H1517 C1558 0.930 . S
H1518 C1560 0.930 . S
H1519 C1561 0.932 . S
H1520 C1563 0.930 . S
H1521 C1564 0.929 . S
H1522 C1566 0.931 . S
H1523 C1567 0.930 . S
H1524 C1569 0.929 . S
H1525 C1570 0.931 . S
H1526 C1572 0.930 . S
H1527 C1573 0.929 1_554 S
O1528 H1502 0.856 . S
O1528 C1574 1.300 . S
O1529 C1574 1.209 . S
O1530 C1575 1.199 . S
O1531 H1503 0.854 . S
O1531 C1575 1.297 . S
C1532 C1533 1.404 . S
C1532 C1537 1.397 . S
C1532 C1538 1.492 1_554 S
C1533 C1532 1.404 . S
C1533 C1534 1.396 . S
C1533 C1544 1.492 . S
C1534 C1533 1.396 . S
C1534 C1535 1.397 . S
C1534 C1550 1.509 . S
C1535 C1534 1.397 . S
C1535 C1536 1.412 . S
C1535 C1556 1.485 . S
C1536 C1535 1.412 . S
C1536 C1537 1.388 . S
C1536 C1562 1.490 . S
C1537 C1532 1.397 . S
C1537 C1536 1.388 . S
C1537 C1568 1.519 1_554 S
C1538 C1532 1.492 1_556 S
C1538 C1539 1.363 . S
C1538 C1543 1.390 . S
C1539 H1504 0.930 . S
C1539 C1538 1.363 . S
C1539 C1540 1.372 . S
C1540 H1505 0.930 . S
C1540 C1539 1.372 . S
C1540 C1541 1.383 . S
C1541 C1540 1.383 . S
C1541 C1542 1.395 . S
C1542 H1506 0.930 . S
C1542 C1541 1.395 . S
C1542 C1543 1.362 . S
C1543 H1507 0.930 . S
C1543 C1538 1.390 . S
C1543 C1542 1.362 . S
C1544 C1533 1.492 . S
C1544 C1545 1.377 . S
C1544 C1549 1.407 . S
C1545 H1508 0.931 . S
C1545 C1544 1.377 . S
C1545 C1546 1.376 . S
C1546 H1509 0.930 . S
C1546 C1545 1.376 . S
C1546 C1547 1.376 1_554 S
C1547 C1546 1.376 1_556 S
C1547 C1548 1.378 . S
C1547 C1574 1.486 . S
C1548 H1510 0.930 . S
C1548 C1547 1.378 . S
C1548 C1549 1.371 1_556 S
C1549 H1511 0.925 1_554 S
C1549 C1544 1.407 . S
C1549 C1548 1.371 1_554 S
C1550 C1534 1.509 . S
C1550 C1551 1.391 . S
C1550 C1555 1.386 . S
C1551 H1512 0.930 . S
C1551 C1550 1.391 . S
C1551 C1552 1.375 . S
C1552 H1513 0.931 . S
C1552 C1551 1.375 . S
C1552 C1553 1.375 . S
C1553 C1552 1.375 . S
C1553 C1554 1.361 . S
C1554 H1514 0.930 . S
C1554 C1553 1.361 . S
C1554 C1555 1.399 . S
C1555 H1515 0.929 . S
C1555 C1550 1.386 . S
C1555 C1554 1.399 . S
C1556 C1535 1.485 . S
C1556 C1557 1.394 . S
C1556 C1561 1.360 . S
C1557 H1516 0.931 . S
C1557 C1556 1.394 . S
C1557 C1558 1.372 . S
C1558 H1517 0.930 . S
C1558 C1557 1.372 . S
C1558 C1559 1.397 . S
C1559 C1558 1.397 . S
C1559 C1560 1.390 . S
C1559 C1575 1.476 . S
C1560 H1518 0.930 . S
C1560 C1559 1.390 . S
C1560 C1561 1.366 . S
C1561 H1519 0.932 . S
C1561 C1556 1.360 . S
C1561 C1560 1.366 . S
C1562 C1536 1.490 . S
C1562 C1563 1.380 . S
C1562 C1567 1.386 . S
C1563 H1520 0.930 . S
C1563 C1562 1.380 . S
C1563 C1564 1.381 . S
C1564 H1521 0.929 . S
C1564 C1563 1.381 . S
C1564 C1565 1.371 . S
C1565 C1564 1.371 . S
C1565 C1566 1.380 . S
C1566 H1522 0.931 . S
C1566 C1565 1.380 . S
C1566 C1567 1.387 . S
C1567 H1523 0.930 . S
C1567 C1562 1.386 . S
C1567 C1566 1.387 . S
C1568 C1537 1.519 1_556 S
C1568 C1569 1.377 . S
C1568 C1573 1.361 . S
C1569 H1524 0.929 . S
C1569 C1568 1.377 . S
C1569 C1570 1.386 . S
C1570 H1525 0.931 . S
C1570 C1569 1.386 . S
C1570 C1571 1.363 . S
C1571 C1570 1.363 . S
C1571 C1572 1.385 . S
C1572 H1526 0.930 . S
C1572 C1571 1.385 . S
C1572 C1573 1.396 . S
C1573 H1527 0.929 1_556 S
C1573 C1568 1.361 . S
C1573 C1572 1.396 . S
C1574 O1528 1.300 . S
C1574 O1529 1.209 . S
C1574 C1547 1.486 . S
C1575 O1530 1.199 . S
C1575 O1531 1.297 . S
C1575 C1559 1.476 . S
H1576 O1602 0.856 . S
H1577 O1605 0.854 . S
H1578 C1613 0.930 . S
H1579 C1614 0.930 . S
H1580 C1616 0.930 . S
H1581 C1617 0.930 . S
H1582 C1619 0.931 . S
H1583 C1620 0.930 . S
H1584 C1622 0.930 . S
H1585 C1623 0.929 . S
H1586 C1625 0.930 . S
H1587 C1626 0.931 . S
H1588 C1628 0.930 . S
H1589 C1629 0.929 . S
H1590 C1631 0.931 . S
H1591 C1632 0.930 . S
H1592 C1634 0.930 . S
H1593 C1635 0.932 . S
H1594 C1637 0.930 . S
H1595 C1638 0.929 . S
H1596 C1640 0.931 . S
H1597 C1641 0.930 . S
H1598 C1643 0.929 . S
H1599 C1644 0.931 . S
H1600 C1646 0.930 . S
H1601 C1647 0.929 . S
O1602 H1576 0.856 . S
O1602 C1648 1.300 . S
O1603 C1648 1.209 . S
O1604 C1649 1.199 . S
O1605 H1577 0.854 . S
O1605 C1649 1.297 . S
C1606 C1607 1.404 . S
C1606 C1611 1.397 . S
C1606 C1612 1.492 . S
C1607 C1606 1.404 . S
C1607 C1608 1.396 . S
C1607 C1618 1.492 . S
C1608 C1607 1.396 . S
C1608 C1609 1.397 . S
C1608 C1624 1.509 . S
C1609 C1608 1.397 . S
C1609 C1610 1.412 . S
C1609 C1630 1.485 . S
C1610 C1609 1.412 . S
C1610 C1611 1.388 . S
C1610 C1636 1.490 . S
C1611 C1606 1.397 . S
C1611 C1610 1.388 . S
C1611 C1642 1.519 . S
C1612 C1606 1.492 . S
C1612 C1613 1.363 . S
C1612 C1617 1.390 1_455 S
C1613 H1578 0.930 . S
C1613 C1612 1.363 . S
C1613 C1614 1.372 1_455 S
C1614 H1579 0.930 . S
C1614 C1613 1.372 1_655 S
C1614 C1615 1.383 . S
C1615 C1614 1.383 . S
C1615 C1616 1.395 . S
C1616 H1580 0.930 . S
C1616 C1615 1.395 . S
C1616 C1617 1.362 . S
C1617 H1581 0.930 . S
C1617 C1612 1.390 1_655 S
C1617 C1616 1.362 . S
C1618 C1607 1.492 . S
C1618 C1619 1.377 . S
C1618 C1623 1.397 . S
C1619 H1582 0.931 . S
C1619 C1618 1.377 . S
C1619 C1620 1.376 . S
C1620 H1583 0.930 . S
C1620 C1619 1.376 . S
C1620 C1621 1.376 . S
C1621 C1620 1.376 . S
C1621 C1622 1.378 . S
C1621 C1648 1.486 . S
C1622 H1584 0.930 . S
C1622 C1621 1.378 . S
C1622 C1623 1.376 . S
C1623 H1585 0.929 . S
C1623 C1618 1.397 . S
C1623 C1622 1.376 . S
C1624 C1608 1.509 . S
C1624 C1625 1.391 . S
C1624 C1629 1.386 . S
C1625 H1586 0.930 . S
C1625 C1624 1.391 . S
C1625 C1626 1.375 . S
C1626 H1587 0.931 . S
C1626 C1625 1.375 . S
C1626 C1627 1.375 . S
C1627 C1626 1.375 . S
C1627 C1628 1.361 . S
C1628 H1588 0.930 . S
C1628 C1627 1.361 . S
C1628 C1629 1.399 . S
C1629 H1589 0.929 . S
C1629 C1624 1.386 . S
C1629 C1628 1.399 . S
C1630 C1609 1.485 . S
C1630 C1631 1.394 . S
C1630 C1635 1.360 . S
C1631 H1590 0.931 . S
C1631 C1630 1.394 . S
C1631 C1632 1.372 . S
C1632 H1591 0.930 . S
C1632 C1631 1.372 . S
C1632 C1633 1.397 . S
C1633 C1632 1.397 . S
C1633 C1634 1.390 . S
C1633 C1649 1.476 . S
C1634 H1592 0.930 . S
C1634 C1633 1.390 . S
C1634 C1635 1.366 . S
C1635 H1593 0.932 . S
C1635 C1630 1.360 . S
C1635 C1634 1.366 . S
C1636 C1610 1.490 . S
C1636 C1637 1.380 . S
C1636 C1641 1.386 . S
C1637 H1594 0.930 . S
C1637 C1636 1.380 . S
C1637 C1638 1.381 . S
C1638 H1595 0.929 . S
C1638 C1637 1.381 . S
C1638 C1639 1.371 . S
C1639 C1638 1.371 . S
C1639 C1640 1.380 . S
C1640 H1596 0.931 . S
C1640 C1639 1.380 . S
C1640 C1641 1.387 . S
C1641 H1597 0.930 . S
C1641 C1636 1.386 . S
C1641 C1640 1.387 . S
C1642 C1611 1.519 . S
C1642 C1643 1.377 . S
C1642 C1647 1.361 . S
C1643 H1598 0.929 . S
C1643 C1642 1.377 . S
C1643 C1644 1.386 1_455 S
C1644 H1599 0.931 . S
C1644 C1643 1.386 1_655 S
C1644 C1645 1.363 . S
C1645 C1644 1.363 . S
C1645 C1646 1.385 . S
C1646 H1600 0.930 . S
C1646 C1645 1.385 . S
C1646 C1647 1.396 1_655 S
C1647 H1601 0.929 . S
C1647 C1642 1.361 . S
C1647 C1646 1.396 1_455 S
C1648 O1602 1.300 . S
C1648 O1603 1.209 . S
C1648 C1621 1.486 . S
C1649 O1604 1.199 . S
C1649 O1605 1.297 . S
C1649 C1633 1.476 . S
H1650 O1676 0.856 . S
H1651 O1679 0.854 . S
H1652 C1687 0.930 1_545 S
H1653 C1688 0.930 . S
H1654 C1690 0.930 . S
H1655 C1691 0.930 . S
H1656 C1693 0.931 . S
H1657 C1694 0.930 . S
H1658 C1696 0.930 . S
H1659 C1697 0.929 . S
H1660 C1699 0.930 . S
H1661 C1700 0.931 . S
H1662 C1702 0.930 . S
H1663 C1703 0.929 . S
H1664 C1705 0.931 . S
H1665 C1706 0.930 . S
H1666 C1708 0.930 . S
H1667 C1709 0.932 . S
H1668 C1711 0.930 . S
H1669 C1712 0.929 . S
H1670 C1714 0.931 . S
H1671 C1715 0.930 . S
H1672 C1717 0.929 . S
H1673 C1718 0.931 . S
H1674 C1720 0.930 . S
H1675 C1721 0.929 . S
O1676 H1650 0.856 . S
O1676 C1722 1.300 . S
O1677 C1722 1.209 . S
O1678 C1723 1.199 . S
O1679 H1651 0.854 . S
O1679 C1723 1.297 . S
C1680 C1681 1.404 . S
C1680 C1685 1.397 . S
C1680 C1686 1.492 . S
C1681 C1680 1.404 . S
C1681 C1682 1.396 . S
C1681 C1692 1.492 . S
C1682 C1681 1.396 . S
C1682 C1683 1.397 . S
C1682 C1698 1.509 . S
C1683 C1682 1.397 . S
C1683 C1684 1.412 . S
C1683 C1704 1.485 . S
C1684 C1683 1.412 . S
C1684 C1685 1.388 . S
C1684 C1710 1.490 . S
C1685 C1680 1.397 . S
C1685 C1684 1.388 . S
C1685 C1716 1.519 . S
C1686 C1680 1.492 . S
C1686 C1687 1.363 1_545 S
C1686 C1691 1.390 1_545 S
C1687 H1652 0.930 1_565 S
C1687 C1686 1.363 1_565 S
C1687 C1688 1.372 . S
C1688 H1653 0.930 . S
C1688 C1687 1.372 . S
C1688 C1689 1.383 . S
C1689 C1688 1.383 . S
C1689 C1690 1.395 . S
C1690 H1654 0.930 . S
C1690 C1689 1.395 . S
C1690 C1691 1.362 . S
C1691 H1655 0.930 . S
C1691 C1686 1.390 1_565 S
C1691 C1690 1.362 . S
C1692 C1681 1.492 . S
C1692 C1693 1.377 . S
C1692 C1697 1.397 . S
C1693 H1656 0.931 . S
C1693 C1692 1.377 . S
C1693 C1694 1.376 . S
C1694 H1657 0.930 . S
C1694 C1693 1.376 . S
C1694 C1695 1.376 . S
C1695 C1694 1.376 . S
C1695 C1696 1.378 . S
C1695 C1722 1.486 . S
C1696 H1658 0.930 . S
C1696 C1695 1.378 . S
C1696 C1697 1.376 . S
C1697 H1659 0.929 . S
C1697 C1692 1.397 . S
C1697 C1696 1.376 . S
C1698 C1682 1.509 . S
C1698 C1699 1.391 . S
C1698 C1703 1.386 . S
C1699 H1660 0.930 . S
C1699 C1698 1.391 . S
C1699 C1700 1.375 . S
C1700 H1661 0.931 . S
C1700 C1699 1.375 . S
C1700 C1701 1.375 . S
C1701 C1700 1.375 . S
C1701 C1702 1.361 . S
C1702 H1662 0.930 . S
C1702 C1701 1.361 . S
C1702 C1703 1.399 . S
C1703 H1663 0.929 . S
C1703 C1698 1.386 . S
C1703 C1702 1.399 . S
C1704 C1683 1.485 . S
C1704 C1705 1.394 . S
C1704 C1709 1.360 . S
C1705 H1664 0.931 . S
C1705 C1704 1.394 . S
C1705 C1706 1.372 . S
C1706 H1665 0.930 . S
C1706 C1705 1.372 . S
C1706 C1707 1.397 . S
C1707 C1706 1.397 . S
C1707 C1708 1.390 . S
C1707 C1723 1.476 . S
C1708 H1666 0.930 . S
C1708 C1707 1.390 . S
C1708 C1709 1.366 . S
C1709 H1667 0.932 . S
C1709 C1704 1.360 . S
C1709 C1708 1.366 . S
C1710 C1684 1.490 . S
C1710 C1711 1.380 . S
C1710 C1715 1.386 . S
C1711 H1668 0.930 . S
C1711 C1710 1.380 . S
C1711 C1712 1.381 . S
C1712 H1669 0.929 . S
C1712 C1711 1.381 . S
C1712 C1713 1.371 . S
C1713 C1712 1.371 . S
C1713 C1714 1.380 . S
C1714 H1670 0.931 . S
C1714 C1713 1.380 . S
C1714 C1715 1.387 . S
C1715 H1671 0.930 . S
C1715 C1710 1.386 . S
C1715 C1714 1.387 . S
C1716 C1685 1.519 . S
C1716 C1717 1.377 . S
C1716 C1721 1.361 . S
C1717 H1672 0.929 . S
C1717 C1716 1.377 . S
C1717 C1718 1.386 1_545 S
C1718 H1673 0.931 . S
C1718 C1717 1.386 1_565 S
C1718 C1719 1.363 . S
C1719 C1718 1.363 . S
C1719 C1720 1.385 . S
C1720 H1674 0.930 . S
C1720 C1719 1.385 . S
C1720 C1721 1.396 1_565 S
C1721 H1675 0.929 . S
C1721 C1716 1.361 . S
C1721 C1720 1.396 1_545 S
C1722 O1676 1.300 . S
C1722 O1677 1.209 . S
C1722 C1695 1.486 . S
C1723 O1678 1.199 . S
C1723 O1679 1.297 . S
C1723 C1707 1.476 . S
H1724 O1750 0.856 . S
H1725 O1753 0.854 . S
H1726 C1761 0.930 . S
H1727 C1762 0.930 . S
H1728 C1764 0.930 . S
H1729 C1765 0.930 . S
H1730 C1767 0.931 . S
H1731 C1768 0.930 . S
H1732 C1770 0.930 . S
H1733 C1771 0.929 . S
H1734 C1773 0.930 . S
H1735 C1774 0.931 . S
H1736 C1776 0.930 . S
H1737 C1777 0.929 . S
H1738 C1779 0.931 . S
H1739 C1780 0.930 . S
H1740 C1782 0.930 . S
H1741 C1783 0.932 . S
H1742 C1785 0.930 . S
H1743 C1786 0.929 . S
H1744 C1788 0.931 . S
H1745 C1789 0.930 . S
H1746 C1791 0.929 . S
H1747 C1792 0.931 . S
H1748 C1794 0.930 . S
H1749 C1795 0.929 . S
O1750 H1724 0.856 . S
O1750 C1796 1.300 . S
O1751 C1796 1.209 . S
O1752 C1797 1.199 . S
O1753 H1725 0.854 . S
O1753 C1797 1.297 . S
C1754 C1755 1.404 . S
C1754 C1759 1.397 . S
C1754 C1760 1.492 . S
C1755 C1754 1.404 . S
C1755 C1756 1.396 1_455 S
C1755 C1766 1.492 . S
C1756 C1755 1.396 1_655 S
C1756 C1757 1.397 . S
C1756 C1772 1.509 . S
C1757 C1756 1.397 . S
C1757 C1758 1.412 . S
C1757 C1778 1.485 . S
C1758 C1757 1.412 . S
C1758 C1759 1.388 1_655 S
C1758 C1784 1.490 . S
C1759 C1754 1.397 . S
C1759 C1758 1.388 1_455 S
C1759 C1790 1.519 . S
C1760 C1754 1.492 . S
C1760 C1761 1.363 . S
C1760 C1765 1.390 . S
C1761 H1726 0.930 . S
C1761 C1760 1.363 . S
C1761 C1762 1.372 . S
C1762 H1727 0.930 . S
C1762 C1761 1.372 . S
C1762 C1763 1.383 . S
C1763 C1762 1.383 . S
C1763 C1764 1.395 . S
C1764 H1728 0.930 . S
C1764 C1763 1.395 . S
C1764 C1765 1.362 . S
C1765 H1729 0.930 . S
C1765 C1760 1.390 . S
C1765 C1764 1.362 . S
C1766 C1755 1.492 . S
C1766 C1767 1.377 . S
C1766 C1771 1.397 . S
C1767 H1730 0.931 . S
C1767 C1766 1.377 . S
C1767 C1768 1.376 . S
C1768 H1731 0.930 . S
C1768 C1767 1.376 . S
C1768 C1769 1.376 . S
C1769 C1768 1.376 . S
C1769 C1770 1.378 . S
C1769 C1796 1.486 . S
C1770 H1732 0.930 . S
C1770 C1769 1.378 . S
C1770 C1771 1.376 . S
C1771 H1733 0.929 . S
C1771 C1766 1.397 . S
C1771 C1770 1.376 . S
C1772 C1756 1.509 . S
C1772 C1773 1.391 . S
C1772 C1777 1.386 . S
C1773 H1734 0.930 . S
C1773 C1772 1.391 . S
C1773 C1774 1.375 . S
C1774 H1735 0.931 . S
C1774 C1773 1.375 . S
C1774 C1775 1.375 . S
C1775 C1774 1.375 . S
C1775 C1776 1.361 . S
C1776 H1736 0.930 . S
C1776 C1775 1.361 . S
C1776 C1777 1.399 . S
C1777 H1737 0.929 . S
C1777 C1772 1.386 . S
C1777 C1776 1.399 . S
C1778 C1757 1.485 . S
C1778 C1779 1.394 . S
C1778 C1783 1.360 . S
C1779 H1738 0.931 . S
C1779 C1778 1.394 . S
C1779 C1780 1.372 . S
C1780 H1739 0.930 . S
C1780 C1779 1.372 . S
C1780 C1781 1.397 . S
C1781 C1780 1.397 . S
C1781 C1782 1.390 . S
C1781 C1797 1.476 . S
C1782 H1740 0.930 . S
C1782 C1781 1.390 . S
C1782 C1783 1.366 . S
C1783 H1741 0.932 . S
C1783 C1778 1.360 . S
C1783 C1782 1.366 . S
C1784 C1758 1.490 . S
C1784 C1785 1.380 . S
C1784 C1789 1.386 . S
C1785 H1742 0.930 . S
C1785 C1784 1.380 . S
C1785 C1786 1.381 . S
C1786 H1743 0.929 . S
C1786 C1785 1.381 . S
C1786 C1787 1.371 . S
C1787 C1786 1.371 . S
C1787 C1788 1.380 . S
C1788 H1744 0.931 . S
C1788 C1787 1.380 . S
C1788 C1789 1.387 . S
C1789 H1745 0.930 . S
C1789 C1784 1.386 . S
C1789 C1788 1.387 . S
C1790 C1759 1.519 . S
C1790 C1791 1.377 . S
C1790 C1795 1.361 . S
C1791 H1746 0.929 . S
C1791 C1790 1.377 . S
C1791 C1792 1.386 . S
C1792 H1747 0.931 . S
C1792 C1791 1.386 . S
C1792 C1793 1.363 . S
C1793 C1792 1.363 . S
C1793 C1794 1.385 . S
C1794 H1748 0.930 . S
C1794 C1793 1.385 . S
C1794 C1795 1.396 . S
C1795 H1749 0.929 . S
C1795 C1790 1.361 . S
C1795 C1794 1.396 . S
C1796 O1750 1.300 . S
C1796 O1751 1.209 . S
C1796 C1769 1.486 . S
C1797 O1752 1.199 . S
C1797 O1753 1.297 . S
C1797 C1781 1.476 . S
H1798 O1824 0.856 . S
H1799 O1827 0.854 . S
H1800 C1835 0.930 . S
H1801 C1836 0.930 . S
H1802 C1838 0.930 . S
H1803 C1839 0.930 . S
H1804 C1841 0.931 . S
H1805 C1842 0.930 . S
H1806 C1844 0.930 . S
H1807 C1845 0.929 . S
H1808 C1847 0.930 . S
H1809 C1848 0.931 . S
H1810 C1850 0.930 . S
H1811 C1851 0.929 . S
H1812 C1853 0.931 . S
H1813 C1854 0.930 . S
H1814 C1856 0.930 . S
H1815 C1857 0.932 . S
H1816 C1859 0.930 . S
H1817 C1860 0.929 . S
H1818 C1862 0.931 . S
H1819 C1863 0.930 . S
H1820 C1865 0.929 . S
H1821 C1866 0.931 . S
H1822 C1868 0.930 . S
H1823 C1869 0.929 . S
O1824 H1798 0.856 . S
O1824 C1870 1.300 . S
O1825 C1870 1.209 . S
O1826 C1871 1.199 . S
O1827 H1799 0.854 . S
O1827 C1871 1.297 . S
C1828 C1829 1.404 1_545 S
C1828 C1833 1.397 1_545 S
C1828 C1834 1.492 . S
C1829 C1828 1.404 1_565 S
C1829 C1830 1.396 . S
C1829 C1840 1.492 . S
C1830 C1829 1.396 . S
C1830 C1831 1.397 . S
C1830 C1846 1.509 . S
C1831 C1830 1.397 . S
C1831 C1832 1.412 . S
C1831 C1852 1.485 . S
C1832 C1831 1.412 . S
C1832 C1833 1.388 . S
C1832 C1858 1.490 . S
C1833 C1828 1.397 1_565 S
C1833 C1832 1.388 . S
C1833 C1864 1.519 1_565 S
C1834 C1828 1.492 . S
C1834 C1835 1.363 . S
C1834 C1839 1.390 . S
C1835 H1800 0.930 . S
C1835 C1834 1.363 . S
C1835 C1836 1.372 . S
C1836 H1801 0.930 . S
C1836 C1835 1.372 . S
C1836 C1837 1.383 . S
C1837 C1836 1.383 . S
C1837 C1838 1.395 . S
C1838 H1802 0.930 . S
C1838 C1837 1.395 . S
C1838 C1839 1.362 . S
C1839 H1803 0.930 . S
C1839 C1834 1.390 . S
C1839 C1838 1.362 . S
C1840 C1829 1.492 . S
C1840 C1841 1.377 . S
C1840 C1845 1.397 1_565 S
C1841 H1804 0.931 . S
C1841 C1840 1.377 . S
C1841 C1842 1.376 . S
C1842 H1805 0.930 . S
C1842 C1841 1.376 . S
C1842 C1843 1.376 1_565 S
C1843 C1842 1.376 1_545 S
C1843 C1844 1.378 . S
C1843 C1870 1.486 . S
C1844 H1806 0.930 . S
C1844 C1843 1.378 . S
C1844 C1845 1.376 . S
C1845 H1807 0.929 . S
C1845 C1840 1.397 1_545 S
C1845 C1844 1.376 . S
C1846 C1830 1.509 . S
C1846 C1847 1.391 . S
C1846 C1851 1.386 . S
C1847 H1808 0.930 . S
C1847 C1846 1.391 . S
C1847 C1848 1.375 . S
C1848 H1809 0.931 . S
C1848 C1847 1.375 . S
C1848 C1849 1.375 . S
C1849 C1848 1.375 . S
C1849 C1850 1.361 . S
C1850 H1810 0.930 . S
C1850 C1849 1.361 . S
C1850 C1851 1.399 . S
C1851 H1811 0.929 . S
C1851 C1846 1.386 . S
C1851 C1850 1.399 . S
C1852 C1831 1.485 . S
C1852 C1853 1.394 . S
C1852 C1857 1.360 . S
C1853 H1812 0.931 . S
C1853 C1852 1.394 . S
C1853 C1854 1.372 . S
C1854 H1813 0.930 . S
C1854 C1853 1.372 . S
C1854 C1855 1.397 . S
C1855 C1854 1.397 . S
C1855 C1856 1.390 . S
C1855 C1871 1.476 . S
C1856 H1814 0.930 . S
C1856 C1855 1.390 . S
C1856 C1857 1.366 . S
C1857 H1815 0.932 . S
C1857 C1852 1.360 . S
C1857 C1856 1.366 . S
C1858 C1832 1.490 . S
C1858 C1859 1.380 . S
C1858 C1863 1.386 . S
C1859 H1816 0.930 . S
C1859 C1858 1.380 . S
C1859 C1860 1.381 . S
C1860 H1817 0.929 . S
C1860 C1859 1.381 . S
C1860 C1861 1.371 . S
C1861 C1860 1.371 . S
C1861 C1862 1.380 . S
C1862 H1818 0.931 . S
C1862 C1861 1.380 . S
C1862 C1863 1.387 . S
C1863 H1819 0.930 . S
C1863 C1858 1.386 . S
C1863 C1862 1.387 . S
C1864 C1833 1.519 1_545 S
C1864 C1865 1.377 . S
C1864 C1869 1.361 . S
C1865 H1820 0.929 . S
C1865 C1864 1.377 . S
C1865 C1866 1.386 . S
C1866 H1821 0.931 . S
C1866 C1865 1.386 . S
C1866 C1867 1.363 . S
C1867 C1866 1.363 . S
C1867 C1868 1.385 . S
C1868 H1822 0.930 . S
C1868 C1867 1.385 . S
C1868 C1869 1.396 . S
C1869 H1823 0.929 . S
C1869 C1864 1.361 . S
C1869 C1868 1.396 . S
C1870 O1824 1.300 . S
C1870 O1825 1.209 . S
C1870 C1843 1.486 . S
C1871 O1826 1.199 . S
C1871 O1827 1.297 . S
C1871 C1855 1.476 . S
H1872 O1898 0.856 . S
H1873 O1901 0.854 . S
H1874 C1909 0.932 . S
H1875 C1910 0.930 . S
H1876 C1912 0.930 . S
H1877 C1913 0.930 . S
H1878 C1915 0.931 . S
H1879 C1916 0.930 . S
H1880 C1918 0.930 . S
H1881 C1919 0.929 . S
H1882 C1921 0.930 . S
H1883 C1922 0.931 . S
H1884 C1924 0.930 . S
H1885 C1925 0.929 . S
H1886 C1927 0.931 . S
H1887 C1928 0.930 . S
H1888 C1930 0.930 . S
H1889 C1931 0.932 . S
H1890 C1933 0.930 . S
H1891 C1934 0.929 . S
H1892 C1936 0.931 . S
H1893 C1937 0.930 . S
H1894 C1939 0.933 . S
H1895 C1940 0.931 . S
H1896 C1942 0.930 . S
H1897 C1943 0.929 . S
O1898 H1872 0.856 . S
O1898 C1944 1.300 . S
O1899 C1944 1.209 . S
O1900 C1945 1.199 . S
O1901 H1873 0.854 . S
O1901 C1945 1.297 . S
C1902 C1903 1.404 . S
C1902 C1907 1.397 . S
C1902 C1908 1.492 . S
C1903 C1902 1.404 . S
C1903 C1904 1.396 . S
C1903 C1914 1.492 . S
C1904 C1903 1.396 . S
C1904 C1905 1.397 . S
C1904 C1920 1.509 . S
C1905 C1904 1.397 . S
C1905 C1906 1.412 . S
C1905 C1926 1.485 . S
C1906 C1905 1.412 . S
C1906 C1907 1.388 . S
C1906 C1932 1.490 . S
C1907 C1902 1.397 . S
C1907 C1906 1.388 . S
C1907 C1938 1.519 . S
C1908 C1902 1.492 . S
C1908 C1909 1.365 . S
C1908 C1913 1.390 1_455 S
C1909 H1874 0.932 . S
C1909 C1908 1.365 . S
C1909 C1910 1.368 1_455 S
C1910 H1875 0.930 . S
C1910 C1909 1.368 1_655 S
C1910 C1911 1.383 . S
C1911 C1910 1.383 . S
C1911 C1912 1.395 . S
C1912 H1876 0.930 . S
C1912 C1911 1.395 . S
C1912 C1913 1.362 . S
C1913 H1877 0.930 . S
C1913 C1908 1.390 1_655 S
C1913 C1912 1.362 . S
C1914 C1903 1.492 . S
C1914 C1915 1.377 . S
C1914 C1919 1.397 . S
C1915 H1878 0.931 . S
C1915 C1914 1.377 . S
C1915 C1916 1.376 . S
C1916 H1879 0.930 . S
C1916 C1915 1.376 . S
C1916 C1917 1.376 . S
C1917 C1916 1.376 . S
C1917 C1918 1.378 . S
C1917 C1944 1.486 . S
C1918 H1880 0.930 . S
C1918 C1917 1.378 . S
C1918 C1919 1.376 . S
C1919 H1881 0.929 . S
C1919 C1914 1.397 . S
C1919 C1918 1.376 . S
C1920 C1904 1.509 . S
C1920 C1921 1.391 . S
C1920 C1925 1.386 . S
C1921 H1882 0.930 . S
C1921 C1920 1.391 . S
C1921 C1922 1.375 . S
C1922 H1883 0.931 . S
C1922 C1921 1.375 . S
C1922 C1923 1.375 . S
C1923 C1922 1.375 . S
C1923 C1924 1.361 . S
C1924 H1884 0.930 . S
C1924 C1923 1.361 . S
C1924 C1925 1.399 . S
C1925 H1885 0.929 . S
C1925 C1920 1.386 . S
C1925 C1924 1.399 . S
C1926 C1905 1.485 . S
C1926 C1927 1.394 . S
C1926 C1931 1.360 . S
C1927 H1886 0.931 . S
C1927 C1926 1.394 . S
C1927 C1928 1.372 . S
C1928 H1887 0.930 . S
C1928 C1927 1.372 . S
C1928 C1929 1.397 . S
C1929 C1928 1.397 . S
C1929 C1930 1.390 . S
C1929 C1945 1.476 . S
C1930 H1888 0.930 . S
C1930 C1929 1.390 . S
C1930 C1931 1.366 . S
C1931 H1889 0.932 . S
C1931 C1926 1.360 . S
C1931 C1930 1.366 . S
C1932 C1906 1.490 . S
C1932 C1933 1.380 . S
C1932 C1937 1.386 . S
C1933 H1890 0.930 . S
C1933 C1932 1.380 . S
C1933 C1934 1.381 . S
C1934 H1891 0.929 . S
C1934 C1933 1.381 . S
C1934 C1935 1.371 . S
C1935 C1934 1.371 . S
C1935 C1936 1.380 . S
C1936 H1892 0.931 . S
C1936 C1935 1.380 . S
C1936 C1937 1.387 . S
C1937 H1893 0.930 . S
C1937 C1932 1.386 . S
C1937 C1936 1.387 . S
C1938 C1907 1.519 . S
C1938 C1939 1.393 . S
C1938 C1943 1.361 . S
C1939 H1894 0.933 . S
C1939 C1938 1.393 . S
C1939 C1940 1.367 1_455 S
C1940 H1895 0.931 . S
C1940 C1939 1.367 1_655 S
C1940 C1941 1.363 . S
C1941 C1940 1.363 . S
C1941 C1942 1.385 . S
C1942 H1896 0.930 . S
C1942 C1941 1.385 . S
C1942 C1943 1.396 1_655 S
C1943 H1897 0.929 . S
C1943 C1938 1.361 . S
C1943 C1942 1.396 1_455 S
C1944 O1898 1.300 . S
C1944 O1899 1.209 . S
C1944 C1917 1.486 . S
C1945 O1900 1.199 . S
C1945 O1901 1.297 . S
C1945 C1929 1.476 . S
H1946 O1972 0.856 . S
H1947 O1975 0.854 . S
H1948 C1983 0.930 1_545 S
H1949 C1984 0.930 . S
H1950 C1986 0.930 . S
H1951 C1987 0.930 . S
H1952 C1989 0.931 . S
H1953 C1990 0.930 . S
H1954 C1992 0.930 . S
H1955 C1993 0.929 . S
H1956 C1995 0.930 . S
H1957 C1996 0.931 . S
H1958 C1998 0.930 . S
H1959 C1999 0.929 . S
H1960 C2001 0.931 . S
H1961 C2002 0.930 . S
H1962 C2004 0.930 . S
H1963 C2005 0.932 . S
H1964 C2007 0.930 . S
H1965 C2008 0.929 . S
H1966 C2010 0.931 . S
H1967 C2011 0.930 . S
H1968 C2013 0.929 . S
H1969 C2014 0.931 . S
H1970 C2016 0.930 . S
H1971 C2017 0.929 . S
O1972 H1946 0.856 . S
O1972 C2018 1.300 . S
O1973 C2018 1.209 . S
O1974 C2019 1.199 . S
O1975 H1947 0.854 . S
O1975 C2019 1.297 . S
C1976 C1977 1.404 . S
C1976 C1981 1.397 . S
C1976 C1982 1.492 . S
C1977 C1976 1.404 . S
C1977 C1978 1.396 . S
C1977 C1988 1.492 . S
C1978 C1977 1.396 . S
C1978 C1979 1.397 . S
C1978 C1994 1.509 . S
C1979 C1978 1.397 . S
C1979 C1980 1.412 . S
C1979 C2000 1.485 . S
C1980 C1979 1.412 . S
C1980 C1981 1.388 . S
C1980 C2006 1.490 . S
C1981 C1976 1.397 . S
C1981 C1980 1.388 . S
C1981 C2012 1.519 . S
C1982 C1976 1.492 . S
C1982 C1983 1.363 1_545 S
C1982 C1987 1.390 1_545 S
C1983 H1948 0.930 1_565 S
C1983 C1982 1.363 1_565 S
C1983 C1984 1.372 . S
C1984 H1949 0.930 . S
C1984 C1983 1.372 . S
C1984 C1985 1.383 . S
C1985 C1984 1.383 . S
C1985 C1986 1.395 . S
C1986 H1950 0.930 . S
C1986 C1985 1.395 . S
C1986 C1987 1.362 . S
C1987 H1951 0.930 . S
C1987 C1982 1.390 1_565 S
C1987 C1986 1.362 . S
C1988 C1977 1.492 . S
C1988 C1989 1.377 . S
C1988 C1993 1.397 . S
C1989 H1952 0.931 . S
C1989 C1988 1.377 . S
C1989 C1990 1.376 . S
C1990 H1953 0.930 . S
C1990 C1989 1.376 . S
C1990 C1991 1.376 . S
C1991 C1990 1.376 . S
C1991 C1992 1.378 . S
C1991 C2018 1.486 . S
C1992 H1954 0.930 . S
C1992 C1991 1.378 . S
C1992 C1993 1.376 . S
C1993 H1955 0.929 . S
C1993 C1988 1.397 . S
C1993 C1992 1.376 . S
C1994 C1978 1.509 . S
C1994 C1995 1.391 . S
C1994 C1999 1.386 . S
C1995 H1956 0.930 . S
C1995 C1994 1.391 . S
C1995 C1996 1.375 . S
C1996 H1957 0.931 . S
C1996 C1995 1.375 . S
C1996 C1997 1.375 . S
C1997 C1996 1.375 . S
C1997 C1998 1.361 . S
C1998 H1958 0.930 . S
C1998 C1997 1.361 . S
C1998 C1999 1.399 . S
C1999 H1959 0.929 . S
C1999 C1994 1.386 . S
C1999 C1998 1.399 . S
C2000 C1979 1.485 . S
C2000 C2001 1.394 . S
C2000 C2005 1.360 . S
C2001 H1960 0.931 . S
C2001 C2000 1.394 . S
C2001 C2002 1.372 . S
C2002 H1961 0.930 . S
C2002 C2001 1.372 . S
C2002 C2003 1.397 . S
C2003 C2002 1.397 . S
C2003 C2004 1.390 . S
C2003 C2019 1.476 . S
C2004 H1962 0.930 . S
C2004 C2003 1.390 . S
C2004 C2005 1.366 . S
C2005 H1963 0.932 . S
C2005 C2000 1.360 . S
C2005 C2004 1.366 . S
C2006 C1980 1.490 . S
C2006 C2007 1.380 . S
C2006 C2011 1.386 . S
C2007 H1964 0.930 . S
C2007 C2006 1.380 . S
C2007 C2008 1.381 . S
C2008 H1965 0.929 . S
C2008 C2007 1.381 . S
C2008 C2009 1.371 . S
C2009 C2008 1.371 . S
C2009 C2010 1.380 . S
C2010 H1966 0.931 . S
C2010 C2009 1.380 . S
C2010 C2011 1.387 . S
C2011 H1967 0.930 . S
C2011 C2006 1.386 . S
C2011 C2010 1.387 . S
C2012 C1981 1.519 . S
C2012 C2013 1.377 . S
C2012 C2017 1.361 . S
C2013 H1968 0.929 . S
C2013 C2012 1.377 . S
C2013 C2014 1.386 1_545 S
C2014 H1969 0.931 . S
C2014 C2013 1.386 1_565 S
C2014 C2015 1.363 . S
C2015 C2014 1.363 . S
C2015 C2016 1.385 . S
C2016 H1970 0.930 . S
C2016 C2015 1.385 . S
C2016 C2017 1.396 1_565 S
C2017 H1971 0.929 . S
C2017 C2012 1.361 . S
C2017 C2016 1.396 1_545 S
C2018 O1972 1.300 . S
C2018 O1973 1.209 . S
C2018 C1991 1.486 . S
C2019 O1974 1.199 . S
C2019 O1975 1.297 . S
C2019 C2003 1.476 . S
H2020 O2046 0.856 . S
H2021 O2049 0.854 . S
H2022 C2057 0.930 . S
H2023 C2058 0.930 . S
H2024 C2060 0.930 . S
H2025 C2061 0.930 . S
H2026 C2063 0.931 . S
H2027 C2064 0.930 . S
H2028 C2066 0.930 . S
H2029 C2067 0.929 . S
H2030 C2069 0.930 . S
H2031 C2070 0.931 . S
H2032 C2072 0.930 . S
H2033 C2073 0.929 . S
H2034 C2075 0.931 . S
H2035 C2076 0.930 . S
H2036 C2078 0.930 . S
H2037 C2079 0.932 . S
H2038 C2081 0.930 . S
H2039 C2082 0.929 . S
H2040 C2084 0.931 . S
H2041 C2085 0.930 . S
H2042 C2087 0.929 . S
H2043 C2088 0.931 . S
H2044 C2090 0.930 . S
H2045 C2091 0.929 . S
O2046 H2020 0.856 . S
O2046 C2092 1.300 . S
O2047 C2092 1.209 . S
O2048 C2093 1.199 . S
O2049 H2021 0.854 . S
O2049 C2093 1.297 . S
C2050 C2051 1.333 1_655 S
C2050 C2055 1.366 1_655 S
C2050 C2056 1.596 . S
C2051 C2050 1.333 1_455 S
C2051 C2052 1.396 . S
C2051 C2062 1.492 . S
C2052 C2051 1.396 . S
C2052 C2053 1.397 . S
C2052 C2068 1.509 . S
C2053 C2052 1.397 . S
C2053 C2054 1.412 . S
C2053 C2074 1.485 . S
C2054 C2053 1.412 . S
C2054 C2055 1.388 . S
C2054 C2080 1.490 . S
C2055 C2050 1.366 1_455 S
C2055 C2054 1.388 . S
C2055 C2086 1.519 1_455 S
C2056 C2050 1.596 . S
C2056 C2057 1.363 . S
C2056 C2061 1.390 . S
C2057 H2022 0.930 . S
C2057 C2056 1.363 . S
C2057 C2058 1.372 . S
C2058 H2023 0.930 . S
C2058 C2057 1.372 . S
C2058 C2059 1.383 . S
C2059 C2058 1.383 . S
C2059 C2060 1.395 . S
C2060 H2024 0.930 . S
C2060 C2059 1.395 . S
C2060 C2061 1.362 . S
C2061 H2025 0.930 . S
C2061 C2056 1.390 . S
C2061 C2060 1.362 . S
C2062 C2051 1.492 . S
C2062 C2063 1.377 . S
C2062 C2067 1.397 1_455 S
C2063 H2026 0.931 . S
C2063 C2062 1.377 . S
C2063 C2064 1.376 . S
C2064 H2027 0.930 . S
C2064 C2063 1.376 . S
C2064 C2065 1.376 1_455 S
C2065 C2064 1.376 1_655 S
C2065 C2066 1.378 . S
C2065 C2092 1.486 . S
C2066 H2028 0.930 . S
C2066 C2065 1.378 . S
C2066 C2067 1.376 . S
C2067 H2029 0.929 . S
C2067 C2062 1.397 1_655 S
C2067 C2066 1.376 . S
C2068 C2052 1.509 . S
C2068 C2069 1.391 . S
C2068 C2073 1.386 . S
C2069 H2030 0.930 . S
C2069 C2068 1.391 . S
C2069 C2070 1.375 . S
C2070 H2031 0.931 . S
C2070 C2069 1.375 . S
C2070 C2071 1.375 . S
C2071 C2070 1.375 . S
C2071 C2072 1.361 . S
C2072 H2032 0.930 . S
C2072 C2071 1.361 . S
C2072 C2073 1.399 . S
C2073 H2033 0.929 . S
C2073 C2068 1.386 . S
C2073 C2072 1.399 . S
C2074 C2053 1.485 . S
C2074 C2075 1.394 . S
C2074 C2079 1.360 . S
C2075 H2034 0.931 . S
C2075 C2074 1.394 . S
C2075 C2076 1.372 . S
C2076 H2035 0.930 . S
C2076 C2075 1.372 . S
C2076 C2077 1.397 . S
C2077 C2076 1.397 . S
C2077 C2078 1.390 . S
C2077 C2093 1.476 . S
C2078 H2036 0.930 . S
C2078 C2077 1.390 . S
C2078 C2079 1.366 . S
C2079 H2037 0.932 . S
C2079 C2074 1.360 . S
C2079 C2078 1.366 . S
C2080 C2054 1.490 . S
C2080 C2081 1.380 . S
C2080 C2085 1.386 . S
C2081 H2038 0.930 . S
C2081 C2080 1.380 . S
C2081 C2082 1.381 . S
C2082 H2039 0.929 . S
C2082 C2081 1.381 . S
C2082 C2083 1.371 . S
C2083 C2082 1.371 . S
C2083 C2084 1.380 . S
C2084 H2040 0.931 . S
C2084 C2083 1.380 . S
C2084 C2085 1.387 . S
C2085 H2041 0.930 . S
C2085 C2080 1.386 . S
C2085 C2084 1.387 . S
C2086 C2055 1.519 1_655 S
C2086 C2087 1.377 . S
C2086 C2091 1.361 . S
C2087 H2042 0.929 . S
C2087 C2086 1.377 . S
C2087 C2088 1.386 . S
C2088 H2043 0.931 . S
C2088 C2087 1.386 . S
C2088 C2089 1.363 . S
C2089 C2088 1.363 . S
C2089 C2090 1.385 . S
C2090 H2044 0.930 . S
C2090 C2089 1.385 . S
C2090 C2091 1.396 . S
C2091 H2045 0.929 . S
C2091 C2086 1.361 . S
C2091 C2090 1.396 . S
C2092 O2046 1.300 . S
C2092 O2047 1.209 . S
C2092 C2065 1.486 . S
C2093 O2048 1.199 . S
C2093 O2049 1.297 . S
C2093 C2077 1.476 . S
H2094 O2120 0.856 . S
H2095 O2123 0.854 . S
H2096 C2131 0.930 . S
H2097 C2132 0.930 . S
H2098 C2134 0.930 . S
H2099 C2135 0.930 . S
H2100 C2137 0.910 1_565 S
H2101 C2138 0.930 . S
H2102 C2140 0.930 . S
H2103 C2141 0.929 . S
H2104 C2143 0.930 . S
H2105 C2144 0.931 . S
H2106 C2146 0.930 . S
H2107 C2147 0.929 . S
H2108 C2149 0.931 . S
H2109 C2150 0.930 . S
H2110 C2152 0.930 . S
H2111 C2153 0.932 . S
H2112 C2155 0.930 1_545 S
H2113 C2156 0.929 . S
H2114 C2158 0.931 . S
H2115 C2159 0.930 . S
H2116 C2161 0.929 . S
H2117 C2162 0.931 . S
H2118 C2164 0.930 . S
H2119 C2165 0.929 . S
O2120 H2094 0.856 . S
O2120 C2166 1.300 . S
O2121 C2166 1.209 . S
O2122 C2167 1.199 . S
O2123 H2095 0.854 . S
O2123 C2167 1.297 . S
C2124 C2125 1.404 . S
C2124 C2129 1.397 . S
C2124 C2130 1.492 . S
C2125 C2124 1.404 . S
C2125 C2126 1.396 1_545 S
C2125 C2136 1.492 . S
C2126 C2125 1.396 1_565 S
C2126 C2127 1.397 . S
C2126 C2142 1.509 . S
C2127 C2126 1.397 . S
C2127 C2128 1.412 . S
C2127 C2148 1.485 . S
C2128 C2127 1.412 . S
C2128 C2129 1.388 1_565 S
C2128 C2154 1.490 . S
C2129 C2124 1.397 . S
C2129 C2128 1.388 1_545 S
C2129 C2160 1.519 . S
C2130 C2124 1.492 . S
C2130 C2131 1.363 . S
C2130 C2135 1.390 . S
C2131 H2096 0.930 . S
C2131 C2130 1.363 . S
C2131 C2132 1.372 . S
C2132 H2097 0.930 . S
C2132 C2131 1.372 . S
C2132 C2133 1.383 . S
C2133 C2132 1.383 . S
C2133 C2134 1.395 . S
C2134 H2098 0.930 . S
C2134 C2133 1.395 . S
C2134 C2135 1.362 . S
C2135 H2099 0.930 . S
C2135 C2130 1.390 . S
C2135 C2134 1.362 . S
C2136 C2125 1.492 . S
C2136 C2137 1.377 . S
C2136 C2141 1.397 . S
C2137 H2100 0.910 1_545 S
C2137 C2136 1.377 . S
C2137 C2138 1.376 . S
C2138 H2101 0.930 . S
C2138 C2137 1.376 . S
C2138 C2139 1.376 . S
C2139 C2138 1.376 . S
C2139 C2140 1.378 . S
C2139 C2166 1.486 . S
C2140 H2102 0.930 . S
C2140 C2139 1.378 . S
C2140 C2141 1.376 . S
C2141 H2103 0.929 . S
C2141 C2136 1.397 . S
C2141 C2140 1.376 . S
C2142 C2126 1.509 . S
C2142 C2143 1.391 . S
C2142 C2147 1.386 . S
C2143 H2104 0.930 . S
C2143 C2142 1.391 . S
C2143 C2144 1.375 . S
C2144 H2105 0.931 . S
C2144 C2143 1.375 . S
C2144 C2145 1.375 . S
C2145 C2144 1.375 . S
C2145 C2146 1.361 . S
C2146 H2106 0.930 . S
C2146 C2145 1.361 . S
C2146 C2147 1.399 . S
C2147 H2107 0.929 . S
C2147 C2142 1.386 . S
C2147 C2146 1.399 . S
C2148 C2127 1.485 . S
C2148 C2149 1.394 . S
C2148 C2153 1.360 . S
C2149 H2108 0.931 . S
C2149 C2148 1.394 . S
C2149 C2150 1.372 . S
C2150 H2109 0.930 . S
C2150 C2149 1.372 . S
C2150 C2151 1.397 . S
C2151 C2150 1.397 . S
C2151 C2152 1.390 . S
C2151 C2167 1.476 . S
C2152 H2110 0.930 . S
C2152 C2151 1.390 . S
C2152 C2153 1.366 . S
C2153 H2111 0.932 . S
C2153 C2148 1.360 . S
C2153 C2152 1.366 . S
C2154 C2128 1.490 . S
C2154 C2155 1.380 . S
C2154 C2159 1.386 . S
C2155 H2112 0.930 1_565 S
C2155 C2154 1.380 . S
C2155 C2156 1.381 . S
C2156 H2113 0.929 . S
C2156 C2155 1.381 . S
C2156 C2157 1.371 . S
C2157 C2156 1.371 . S
C2157 C2158 1.380 . S
C2158 H2114 0.931 . S
C2158 C2157 1.380 . S
C2158 C2159 1.387 . S
C2159 H2115 0.930 . S
C2159 C2154 1.386 . S
C2159 C2158 1.387 . S
C2160 C2129 1.519 . S
C2160 C2161 1.377 . S
C2160 C2165 1.361 . S
C2161 H2116 0.929 . S
C2161 C2160 1.377 . S
C2161 C2162 1.386 . S
C2162 H2117 0.931 . S
C2162 C2161 1.386 . S
C2162 C2163 1.363 . S
C2163 C2162 1.363 . S
C2163 C2164 1.385 . S
C2164 H2118 0.930 . S
C2164 C2163 1.385 . S
C2164 C2165 1.396 . S
C2165 H2119 0.929 . S
C2165 C2160 1.361 . S
C2165 C2164 1.396 . S
C2166 O2120 1.300 . S
C2166 O2121 1.209 . S
C2166 C2139 1.486 . S
C2167 O2122 1.199 . S
C2167 O2123 1.297 . S
C2167 C2151 1.476 . S
H2168 O2194 0.856 . S
H2169 O2197 0.854 . S
H2170 C2205 0.930 . S
H2171 C2206 0.930 . S
H2172 C2208 0.930 . S
H2173 C2209 0.930 . S
H2174 C2211 0.931 . S
H2175 C2212 0.930 . S
H2176 C2214 0.930 . S
H2177 C2215 0.929 . S
H2178 C2217 0.930 . S
H2179 C2218 0.931 . S
H2180 C2220 0.930 . S
H2181 C2221 0.929 . S
H2182 C2223 0.931 . S
H2183 C2224 0.930 . S
H2184 C2226 0.930 . S
H2185 C2227 0.932 . S
H2186 C2229 0.930 . S
H2187 C2230 0.929 . S
H2188 C2232 0.931 . S
H2189 C2233 0.930 . S
H2190 C2235 0.929 . S
H2191 C2236 0.931 . S
H2192 C2238 0.930 . S
H2193 C2239 0.929 . S
O2194 H2168 0.856 . S
O2194 C2240 1.300 . S
O2195 C2240 1.209 . S
O2196 C2241 1.199 . S
O2197 H2169 0.854 . S
O2197 C2241 1.297 . S
C2198 C2199 1.404 . S
C2198 C2203 1.397 . S
C2198 C2204 1.492 . S
C2199 C2198 1.404 . S
C2199 C2200 1.396 . S
C2199 C2210 1.492 . S
C2200 C2199 1.396 . S
C2200 C2201 1.397 . S
C2200 C2216 1.509 . S
C2201 C2200 1.397 . S
C2201 C2202 1.412 . S
C2201 C2222 1.485 . S
C2202 C2201 1.412 . S
C2202 C2203 1.388 . S
C2202 C2228 1.490 . S
C2203 C2198 1.397 . S
C2203 C2202 1.388 . S
C2203 C2234 1.519 . S
C2204 C2198 1.492 . S
C2204 C2205 1.363 . S
C2204 C2209 1.390 . S
C2205 H2170 0.930 . S
C2205 C2204 1.363 . S
C2205 C2206 1.372 . S
C2206 H2171 0.930 . S
C2206 C2205 1.372 . S
C2206 C2207 1.383 . S
C2207 C2206 1.383 . S
C2207 C2208 1.395 . S
C2208 H2172 0.930 . S
C2208 C2207 1.395 . S
C2208 C2209 1.362 . S
C2209 H2173 0.930 . S
C2209 C2204 1.390 . S
C2209 C2208 1.362 . S
C2210 C2199 1.492 . S
C2210 C2211 1.377 . S
C2210 C2215 1.397 . S
C2211 H2174 0.931 . S
C2211 C2210 1.377 . S
C2211 C2212 1.376 . S
C2212 H2175 0.930 . S
C2212 C2211 1.376 . S
C2212 C2213 1.376 . S
C2213 C2212 1.376 . S
C2213 C2214 1.378 . S
C2213 C2240 1.486 . S
C2214 H2176 0.930 . S
C2214 C2213 1.378 . S
C2214 C2215 1.376 . S
C2215 H2177 0.929 . S
C2215 C2210 1.397 . S
C2215 C2214 1.376 . S
C2216 C2200 1.509 . S
C2216 C2217 1.391 . S
C2216 C2221 1.386 . S
C2217 H2178 0.930 . S
C2217 C2216 1.391 . S
C2217 C2218 1.375 . S
C2218 H2179 0.931 . S
C2218 C2217 1.375 . S
C2218 C2219 1.375 . S
C2219 C2218 1.375 . S
C2219 C2220 1.361 . S
C2220 H2180 0.930 . S
C2220 C2219 1.361 . S
C2220 C2221 1.399 . S
C2221 H2181 0.929 . S
C2221 C2216 1.386 . S
C2221 C2220 1.399 . S
C2222 C2201 1.485 . S
C2222 C2223 1.394 . S
C2222 C2227 1.360 . S
C2223 H2182 0.931 . S
C2223 C2222 1.394 . S
C2223 C2224 1.372 . S
C2224 H2183 0.930 . S
C2224 C2223 1.372 . S
C2224 C2225 1.397 . S
C2225 C2224 1.397 . S
C2225 C2226 1.390 . S
C2225 C2241 1.476 . S
C2226 H2184 0.930 . S
C2226 C2225 1.390 . S
C2226 C2227 1.366 . S
C2227 H2185 0.932 . S
C2227 C2222 1.360 . S
C2227 C2226 1.366 . S
C2228 C2202 1.490 . S
C2228 C2229 1.380 . S
C2228 C2233 1.386 . S
C2229 H2186 0.930 . S
C2229 C2228 1.380 . S
C2229 C2230 1.381 . S
C2230 H2187 0.929 . S
C2230 C2229 1.381 . S
C2230 C2231 1.371 . S
C2231 C2230 1.371 . S
C2231 C2232 1.380 . S
C2232 H2188 0.931 . S
C2232 C2231 1.380 . S
C2232 C2233 1.387 . S
C2233 H2189 0.930 . S
C2233 C2228 1.386 . S
C2233 C2232 1.387 . S
C2234 C2203 1.519 . S
C2234 C2235 1.377 . S
C2234 C2239 1.361 . S
C2235 H2190 0.929 . S
C2235 C2234 1.377 . S
C2235 C2236 1.386 . S
C2236 H2191 0.931 . S
C2236 C2235 1.386 . S
C2236 C2237 1.363 . S
C2237 C2236 1.363 . S
C2237 C2238 1.385 . S
C2238 H2192 0.930 . S
C2238 C2237 1.385 . S
C2238 C2239 1.396 . S
C2239 H2193 0.929 . S
C2239 C2234 1.361 . S
C2239 C2238 1.396 . S
C2240 O2194 1.300 . S
C2240 O2195 1.209 . S
C2240 C2213 1.486 . S
C2241 O2196 1.199 . S
C2241 O2197 1.297 . S
C2241 C2225 1.476 . S
H2242 O2268 0.856 . S
H2243 O2271 0.854 . S
H2244 C2279 0.930 . S
H2245 C2280 0.930 . S
H2246 C2282 0.930 . S
H2247 C2283 0.930 . S
H2248 C2285 0.931 . S
H2249 C2286 0.930 . S
H2250 C2288 0.930 . S
H2251 C2289 0.929 . S
H2252 C2291 0.930 . S
H2253 C2292 0.931 . S
H2254 C2294 0.930 . S
H2255 C2295 0.929 . S
H2256 C2297 0.931 . S
H2257 C2298 0.930 . S
H2258 C2300 0.930 . S
H2259 C2301 0.932 . S
H2260 C2303 0.930 . S
H2261 C2304 0.929 . S
H2262 C2306 0.931 . S
H2263 C2307 0.930 . S
H2264 C2309 0.929 . S
H2265 C2310 0.931 . S
H2266 C2312 0.930 . S
H2267 C2313 0.929 . S
O2268 H2242 0.856 . S
O2268 C2314 1.300 . S
O2269 C2314 1.209 . S
O2270 C2315 1.199 . S
O2271 H2243 0.854 . S
O2271 C2315 1.297 . S
C2272 C2273 1.404 . S
C2272 C2277 1.397 . S
C2272 C2278 1.492 . S
C2273 C2272 1.404 . S
C2273 C2274 1.396 . S
C2273 C2284 1.492 . S
C2274 C2273 1.396 . S
C2274 C2275 1.397 . S
C2274 C2290 1.509 . S
C2275 C2274 1.397 . S
C2275 C2276 1.412 . S
C2275 C2296 1.485 . S
C2276 C2275 1.412 . S
C2276 C2277 1.388 . S
C2276 C2302 1.490 . S
C2277 C2272 1.397 . S
C2277 C2276 1.388 . S
C2277 C2308 1.519 . S
C2278 C2272 1.492 . S
C2278 C2279 1.363 . S
C2278 C2283 1.390 . S
C2279 H2244 0.930 . S
C2279 C2278 1.363 . S
C2279 C2280 1.372 . S
C2280 H2245 0.930 . S
C2280 C2279 1.372 . S
C2280 C2281 1.383 . S
C2281 C2280 1.383 . S
C2281 C2282 1.395 . S
C2282 H2246 0.930 . S
C2282 C2281 1.395 . S
C2282 C2283 1.362 . S
C2283 H2247 0.930 . S
C2283 C2278 1.390 . S
C2283 C2282 1.362 . S
C2284 C2273 1.492 . S
C2284 C2285 1.377 . S
C2284 C2289 1.397 . S
C2285 H2248 0.931 . S
C2285 C2284 1.377 . S
C2285 C2286 1.376 . S
C2286 H2249 0.930 . S
C2286 C2285 1.376 . S
C2286 C2287 1.376 . S
C2287 C2286 1.376 . S
C2287 C2288 1.378 . S
C2287 C2314 1.486 . S
C2288 H2250 0.930 . S
C2288 C2287 1.378 . S
C2288 C2289 1.376 . S
C2289 H2251 0.929 . S
C2289 C2284 1.397 . S
C2289 C2288 1.376 . S
C2290 C2274 1.509 . S
C2290 C2291 1.391 . S
C2290 C2295 1.386 . S
C2291 H2252 0.930 . S
C2291 C2290 1.391 . S
C2291 C2292 1.375 . S
C2292 H2253 0.931 . S
C2292 C2291 1.375 . S
C2292 C2293 1.375 . S
C2293 C2292 1.375 . S
C2293 C2294 1.361 . S
C2294 H2254 0.930 . S
C2294 C2293 1.361 . S
C2294 C2295 1.399 . S
C2295 H2255 0.929 . S
C2295 C2290 1.386 . S
C2295 C2294 1.399 . S
C2296 C2275 1.485 . S
C2296 C2297 1.394 . S
C2296 C2301 1.360 . S
C2297 H2256 0.931 . S
C2297 C2296 1.394 . S
C2297 C2298 1.372 . S
C2298 H2257 0.930 . S
C2298 C2297 1.372 . S
C2298 C2299 1.397 . S
C2299 C2298 1.397 . S
C2299 C2300 1.390 . S
C2299 C2315 1.476 . S
C2300 H2258 0.930 . S
C2300 C2299 1.390 . S
C2300 C2301 1.366 . S
C2301 H2259 0.932 . S
C2301 C2296 1.360 . S
C2301 C2300 1.366 . S
C2302 C2276 1.490 . S
C2302 C2303 1.380 . S
C2302 C2307 1.386 . S
C2303 H2260 0.930 . S
C2303 C2302 1.380 . S
C2303 C2304 1.381 . S
C2304 H2261 0.929 . S
C2304 C2303 1.381 . S
C2304 C2305 1.371 . S
C2305 C2304 1.371 . S
C2305 C2306 1.380 . S
C2306 H2262 0.931 . S
C2306 C2305 1.380 . S
C2306 C2307 1.387 . S
C2307 H2263 0.930 . S
C2307 C2302 1.386 . S
C2307 C2306 1.387 . S
C2308 C2277 1.519 . S
C2308 C2309 1.377 . S
C2308 C2313 1.361 . S
C2309 H2264 0.929 . S
C2309 C2308 1.377 . S
C2309 C2310 1.386 . S
C2310 H2265 0.931 . S
C2310 C2309 1.386 . S
C2310 C2311 1.363 . S
C2311 C2310 1.363 . S
C2311 C2312 1.385 . S
C2312 H2266 0.930 . S
C2312 C2311 1.385 . S
C2312 C2313 1.396 . S
C2313 H2267 0.929 . S
C2313 C2308 1.361 . S
C2313 C2312 1.396 . S
C2314 O2268 1.300 . S
C2314 O2269 1.209 . S
C2314 C2287 1.486 . S
C2315 O2270 1.199 . S
C2315 O2271 1.297 . S
C2315 C2299 1.476 . S
H2316 O2342 0.856 . S
H2317 O2345 0.854 . S
H2318 C2353 0.930 . S
H2319 C2354 0.930 . S
H2320 C2356 0.930 . S
H2321 C2357 0.930 . S
H2322 C2359 0.931 . S
H2323 C2360 0.930 . S
H2324 C2362 0.930 . S
H2325 C2363 0.929 . S
H2326 C2365 0.930 . S
H2327 C2366 0.931 . S
H2328 C2368 0.930 . S
H2329 C2369 0.929 . S
H2330 C2371 0.931 . S
H2331 C2372 0.930 . S
H2332 C2374 0.930 . S
H2333 C2375 0.932 . S
H2334 C2377 0.930 . S
H2335 C2378 0.929 . S
H2336 C2380 0.931 . S
H2337 C2381 0.930 . S
H2338 C2383 0.929 . S
H2339 C2384 0.931 . S
H2340 C2386 0.930 . S
H2341 C2387 0.929 . S
O2342 H2316 0.856 . S
O2342 C2388 1.300 . S
O2343 C2388 1.209 . S
O2344 C2389 1.199 . S
O2345 H2317 0.854 . S
O2345 C2389 1.297 . S
C2346 C2347 1.404 . S
C2346 C2351 1.397 . S
C2346 C2352 1.492 . S
C2347 C2346 1.404 . S
C2347 C2348 1.396 . S
C2347 C2358 1.492 . S
C2348 C2347 1.396 . S
C2348 C2349 1.397 . S
C2348 C2364 1.509 . S
C2349 C2348 1.397 . S
C2349 C2350 1.412 . S
C2349 C2370 1.485 . S
C2350 C2349 1.412 . S
C2350 C2351 1.388 . S
C2350 C2376 1.490 . S
C2351 C2346 1.397 . S
C2351 C2350 1.388 . S
C2351 C2382 1.519 . S
C2352 C2346 1.492 . S
C2352 C2353 1.363 . S
C2352 C2357 1.390 . S
C2353 H2318 0.930 . S
C2353 C2352 1.363 . S
C2353 C2354 1.372 . S
C2354 H2319 0.930 . S
C2354 C2353 1.372 . S
C2354 C2355 1.383 . S
C2355 C2354 1.383 . S
C2355 C2356 1.395 . S
C2356 H2320 0.930 . S
C2356 C2355 1.395 . S
C2356 C2357 1.362 . S
C2357 H2321 0.930 . S
C2357 C2352 1.390 . S
C2357 C2356 1.362 . S
C2358 C2347 1.492 . S
C2358 C2359 1.377 . S
C2358 C2363 1.397 . S
C2359 H2322 0.931 . S
C2359 C2358 1.377 . S
C2359 C2360 1.376 . S
C2360 H2323 0.930 . S
C2360 C2359 1.376 . S
C2360 C2361 1.376 . S
C2361 C2360 1.376 . S
C2361 C2362 1.378 . S
C2361 C2388 1.486 . S
C2362 H2324 0.930 . S
C2362 C2361 1.378 . S
C2362 C2363 1.376 . S
C2363 H2325 0.929 . S
C2363 C2358 1.397 . S
C2363 C2362 1.376 . S
C2364 C2348 1.509 . S
C2364 C2365 1.391 . S
C2364 C2369 1.386 . S
C2365 H2326 0.930 . S
C2365 C2364 1.391 . S
C2365 C2366 1.375 . S
C2366 H2327 0.931 . S
C2366 C2365 1.375 . S
C2366 C2367 1.375 . S
C2367 C2366 1.375 . S
C2367 C2368 1.361 . S
C2368 H2328 0.930 . S
C2368 C2367 1.361 . S
C2368 C2369 1.399 . S
C2369 H2329 0.929 . S
C2369 C2364 1.386 . S
C2369 C2368 1.399 . S
C2370 C2349 1.485 . S
C2370 C2371 1.394 . S
C2370 C2375 1.360 . S
C2371 H2330 0.931 . S
C2371 C2370 1.394 . S
C2371 C2372 1.372 . S
C2372 H2331 0.930 . S
C2372 C2371 1.372 . S
C2372 C2373 1.397 . S
C2373 C2372 1.397 . S
C2373 C2374 1.390 . S
C2373 C2389 1.476 . S
C2374 H2332 0.930 . S
C2374 C2373 1.390 . S
C2374 C2375 1.366 . S
C2375 H2333 0.932 . S
C2375 C2370 1.360 . S
C2375 C2374 1.366 . S
C2376 C2350 1.490 . S
C2376 C2377 1.380 . S
C2376 C2381 1.386 . S
C2377 H2334 0.930 . S
C2377 C2376 1.380 . S
C2377 C2378 1.381 . S
C2378 H2335 0.929 . S
C2378 C2377 1.381 . S
C2378 C2379 1.371 . S
C2379 C2378 1.371 . S
C2379 C2380 1.380 . S
C2380 H2336 0.931 . S
C2380 C2379 1.380 . S
C2380 C2381 1.387 . S
C2381 H2337 0.930 . S
C2381 C2376 1.386 . S
C2381 C2380 1.387 . S
C2382 C2351 1.519 . S
C2382 C2383 1.377 . S
C2382 C2387 1.361 . S
C2383 H2338 0.929 . S
C2383 C2382 1.377 . S
C2383 C2384 1.386 . S
C2384 H2339 0.931 . S
C2384 C2383 1.386 . S
C2384 C2385 1.363 . S
C2385 C2384 1.363 . S
C2385 C2386 1.385 . S
C2386 H2340 0.930 . S
C2386 C2385 1.385 . S
C2386 C2387 1.396 . S
C2387 H2341 0.929 . S
C2387 C2382 1.361 . S
C2387 C2386 1.396 . S
C2388 O2342 1.300 . S
C2388 O2343 1.209 . S
C2388 C2361 1.486 . S
C2389 O2344 1.199 . S
C2389 O2345 1.297 . S
C2389 C2373 1.476 . S
H2390 O2416 0.856 . S
H2391 O2419 0.854 . S
H2392 C2427 0.930 . S
H2393 C2428 0.930 . S
H2394 C2430 0.930 . S
H2395 C2431 0.930 . S
H2396 C2433 0.931 . S
H2397 C2434 0.930 . S
H2398 C2436 0.930 . S
H2399 C2437 0.929 . S
H2400 C2439 0.930 . S
H2401 C2440 0.931 . S
H2402 C2442 0.930 . S
H2403 C2443 0.929 . S
H2404 C2445 0.931 . S
H2405 C2446 0.930 . S
H2406 C2448 0.930 . S
H2407 C2449 0.932 . S
H2408 C2451 0.930 . S
H2409 C2452 0.929 . S
H2410 C2454 0.931 . S
H2411 C2455 0.930 . S
H2412 C2457 0.929 . S
H2413 C2458 0.931 . S
H2414 C2460 0.930 . S
H2415 C2461 0.929 . S
O2416 H2390 0.856 . S
O2416 C2462 1.300 . S
O2417 C2462 1.209 . S
O2418 C2463 1.199 . S
O2419 H2391 0.854 . S
O2419 C2463 1.297 . S
C2420 C2421 1.404 . S
C2420 C2425 1.397 . S
C2420 C2426 1.492 . S
C2421 C2420 1.404 . S
C2421 C2422 1.396 . S
C2421 C2432 1.492 . S
C2422 C2421 1.396 . S
C2422 C2423 1.397 . S
C2422 C2438 1.509 . S
C2423 C2422 1.397 . S
C2423 C2424 1.412 . S
C2423 C2444 1.485 . S
C2424 C2423 1.412 . S
C2424 C2425 1.388 . S
C2424 C2450 1.490 . S
C2425 C2420 1.397 . S
C2425 C2424 1.388 . S
C2425 C2456 1.519 . S
C2426 C2420 1.492 . S
C2426 C2427 1.363 . S
C2426 C2431 1.390 . S
C2427 H2392 0.930 . S
C2427 C2426 1.363 . S
C2427 C2428 1.372 . S
C2428 H2393 0.930 . S
C2428 C2427 1.372 . S
C2428 C2429 1.383 . S
C2429 C2428 1.383 . S
C2429 C2430 1.395 . S
C2430 H2394 0.930 . S
C2430 C2429 1.395 . S
C2430 C2431 1.362 . S
C2431 H2395 0.930 . S
C2431 C2426 1.390 . S
C2431 C2430 1.362 . S
C2432 C2421 1.492 . S
C2432 C2433 1.377 . S
C2432 C2437 1.397 . S
C2433 H2396 0.931 . S
C2433 C2432 1.377 . S
C2433 C2434 1.376 . S
C2434 H2397 0.930 . S
C2434 C2433 1.376 . S
C2434 C2435 1.376 . S
C2435 C2434 1.376 . S
C2435 C2436 1.378 . S
C2435 C2462 1.486 . S
C2436 H2398 0.930 . S
C2436 C2435 1.378 . S
C2436 C2437 1.376 . S
C2437 H2399 0.929 . S
C2437 C2432 1.397 . S
C2437 C2436 1.376 . S
C2438 C2422 1.509 . S
C2438 C2439 1.391 . S
C2438 C2443 1.386 . S
C2439 H2400 0.930 . S
C2439 C2438 1.391 . S
C2439 C2440 1.375 . S
C2440 H2401 0.931 . S
C2440 C2439 1.375 . S
C2440 C2441 1.375 . S
C2441 C2440 1.375 . S
C2441 C2442 1.361 . S
C2442 H2402 0.930 . S
C2442 C2441 1.361 . S
C2442 C2443 1.399 . S
C2443 H2403 0.929 . S
C2443 C2438 1.386 . S
C2443 C2442 1.399 . S
C2444 C2423 1.485 . S
C2444 C2445 1.394 . S
C2444 C2449 1.360 . S
C2445 H2404 0.931 . S
C2445 C2444 1.394 . S
C2445 C2446 1.372 . S
C2446 H2405 0.930 . S
C2446 C2445 1.372 . S
C2446 C2447 1.397 . S
C2447 C2446 1.397 . S
C2447 C2448 1.390 . S
C2447 C2463 1.476 . S
C2448 H2406 0.930 . S
C2448 C2447 1.390 . S
C2448 C2449 1.366 . S
C2449 H2407 0.932 . S
C2449 C2444 1.360 . S
C2449 C2448 1.366 . S
C2450 C2424 1.490 . S
C2450 C2451 1.380 . S
C2450 C2455 1.386 . S
C2451 H2408 0.930 . S
C2451 C2450 1.380 . S
C2451 C2452 1.381 . S
C2452 H2409 0.929 . S
C2452 C2451 1.381 . S
C2452 C2453 1.371 . S
C2453 C2452 1.371 . S
C2453 C2454 1.380 . S
C2454 H2410 0.931 . S
C2454 C2453 1.380 . S
C2454 C2455 1.387 . S
C2455 H2411 0.930 . S
C2455 C2450 1.386 . S
C2455 C2454 1.387 . S
C2456 C2425 1.519 . S
C2456 C2457 1.377 . S
C2456 C2461 1.361 . S
C2457 H2412 0.929 . S
C2457 C2456 1.377 . S
C2457 C2458 1.386 . S
C2458 H2413 0.931 . S
C2458 C2457 1.386 . S
C2458 C2459 1.363 . S
C2459 C2458 1.363 . S
C2459 C2460 1.385 . S
C2460 H2414 0.930 . S
C2460 C2459 1.385 . S
C2460 C2461 1.396 . S
C2461 H2415 0.929 . S
C2461 C2456 1.361 . S
C2461 C2460 1.396 . S
C2462 O2416 1.300 . S
C2462 O2417 1.209 . S
C2462 C2435 1.486 . S
C2463 O2418 1.199 . S
C2463 O2419 1.297 . S
C2463 C2447 1.476 . S
H2464 O2490 0.856 . S
H2465 O2493 0.854 . S
H2466 C2501 0.930 . S
H2467 C2502 0.930 . S
H2468 C2504 0.930 . S
H2469 C2505 0.930 . S
H2470 C2507 0.931 . S
H2471 C2508 0.930 . S
H2472 C2510 0.930 . S
H2473 C2511 0.929 . S
H2474 C2513 0.930 . S
H2475 C2514 0.931 . S
H2476 C2516 0.930 . S
H2477 C2517 0.929 . S
H2478 C2519 0.931 . S
H2479 C2520 0.930 . S
H2480 C2522 0.930 . S
H2481 C2523 0.932 . S
H2482 C2525 0.930 . S
H2483 C2526 0.929 . S
H2484 C2528 0.931 . S
H2485 C2529 0.930 . S
H2486 C2531 0.929 . S
H2487 C2532 0.931 . S
H2488 C2534 0.930 . S
H2489 C2535 0.929 . S
O2490 H2464 0.856 . S
O2490 C2536 1.300 . S
O2491 C2536 1.209 . S
O2492 C2537 1.199 . S
O2493 H2465 0.854 . S
O2493 C2537 1.297 . S
C2494 C2495 1.404 . S
C2494 C2499 1.397 . S
C2494 C2500 1.492 . S
C2495 C2494 1.404 . S
C2495 C2496 1.396 . S
C2495 C2506 1.492 . S
C2496 C2495 1.396 . S
C2496 C2497 1.397 . S
C2496 C2512 1.509 . S
C2497 C2496 1.397 . S
C2497 C2498 1.412 . S
C2497 C2518 1.485 . S
C2498 C2497 1.412 . S
C2498 C2499 1.388 . S
C2498 C2524 1.490 . S
C2499 C2494 1.397 . S
C2499 C2498 1.388 . S
C2499 C2530 1.519 . S
C2500 C2494 1.492 . S
C2500 C2501 1.363 . S
C2500 C2505 1.390 . S
C2501 H2466 0.930 . S
C2501 C2500 1.363 . S
C2501 C2502 1.372 . S
C2502 H2467 0.930 . S
C2502 C2501 1.372 . S
C2502 C2503 1.383 . S
C2503 C2502 1.383 . S
C2503 C2504 1.395 . S
C2504 H2468 0.930 . S
C2504 C2503 1.395 . S
C2504 C2505 1.362 . S
C2505 H2469 0.930 . S
C2505 C2500 1.390 . S
C2505 C2504 1.362 . S
C2506 C2495 1.492 . S
C2506 C2507 1.377 . S
C2506 C2511 1.397 . S
C2507 H2470 0.931 . S
C2507 C2506 1.377 . S
C2507 C2508 1.376 . S
C2508 H2471 0.930 . S
C2508 C2507 1.376 . S
C2508 C2509 1.376 . S
C2509 C2508 1.376 . S
C2509 C2510 1.378 . S
C2509 C2536 1.486 . S
C2510 H2472 0.930 . S
C2510 C2509 1.378 . S
C2510 C2511 1.376 . S
C2511 H2473 0.929 . S
C2511 C2506 1.397 . S
C2511 C2510 1.376 . S
C2512 C2496 1.509 . S
C2512 C2513 1.391 . S
C2512 C2517 1.386 . S
C2513 H2474 0.930 . S
C2513 C2512 1.391 . S
C2513 C2514 1.375 . S
C2514 H2475 0.931 . S
C2514 C2513 1.375 . S
C2514 C2515 1.375 . S
C2515 C2514 1.375 . S
C2515 C2516 1.361 . S
C2516 H2476 0.930 . S
C2516 C2515 1.361 . S
C2516 C2517 1.399 . S
C2517 H2477 0.929 . S
C2517 C2512 1.386 . S
C2517 C2516 1.399 . S
C2518 C2497 1.485 . S
C2518 C2519 1.394 . S
C2518 C2523 1.360 . S
C2519 H2478 0.931 . S
C2519 C2518 1.394 . S
C2519 C2520 1.372 . S
C2520 H2479 0.930 . S
C2520 C2519 1.372 . S
C2520 C2521 1.397 . S
C2521 C2520 1.397 . S
C2521 C2522 1.390 . S
C2521 C2537 1.476 . S
C2522 H2480 0.930 . S
C2522 C2521 1.390 . S
C2522 C2523 1.366 . S
C2523 H2481 0.932 . S
C2523 C2518 1.360 . S
C2523 C2522 1.366 . S
C2524 C2498 1.490 . S
C2524 C2525 1.380 . S
C2524 C2529 1.386 . S
C2525 H2482 0.930 . S
C2525 C2524 1.380 . S
C2525 C2526 1.381 . S
C2526 H2483 0.929 . S
C2526 C2525 1.381 . S
C2526 C2527 1.371 . S
C2527 C2526 1.371 . S
C2527 C2528 1.380 . S
C2528 H2484 0.931 . S
C2528 C2527 1.380 . S
C2528 C2529 1.387 . S
C2529 H2485 0.930 . S
C2529 C2524 1.386 . S
C2529 C2528 1.387 . S
C2530 C2499 1.519 . S
C2530 C2531 1.377 . S
C2530 C2535 1.361 . S
C2531 H2486 0.929 . S
C2531 C2530 1.377 . S
C2531 C2532 1.386 . S
C2532 H2487 0.931 . S
C2532 C2531 1.386 . S
C2532 C2533 1.363 . S
C2533 C2532 1.363 . S
C2533 C2534 1.385 . S
C2534 H2488 0.930 . S
C2534 C2533 1.385 . S
C2534 C2535 1.396 . S
C2535 H2489 0.929 . S
C2535 C2530 1.361 . S
C2535 C2534 1.396 . S
C2536 O2490 1.300 . S
C2536 O2491 1.209 . S
C2536 C2509 1.486 . S
C2537 O2492 1.199 . S
C2537 O2493 1.297 . S
C2537 C2521 1.476 . S
H2538 O2564 0.856 . S
H2539 O2567 0.854 . S
H2540 C2575 0.930 . S
H2541 C2576 0.930 . S
H2542 C2578 0.930 . S
H2543 C2579 0.930 . S
H2544 C2581 0.931 . S
H2545 C2582 0.930 . S
H2546 C2584 0.930 . S
H2547 C2585 0.929 . S
H2548 C2587 0.930 . S
H2549 C2588 0.931 . S
H2550 C2590 0.930 . S
H2551 C2591 0.929 . S
H2552 C2593 0.931 . S
H2553 C2594 0.930 . S
H2554 C2596 0.930 . S
H2555 C2597 0.932 . S
H2556 C2599 0.930 . S
H2557 C2600 0.929 . S
H2558 C2602 0.931 . S
H2559 C2603 0.930 . S
H2560 C2605 0.929 . S
H2561 C2606 0.931 . S
H2562 C2608 0.930 . S
H2563 C2609 0.929 . S
O2564 H2538 0.856 . S
O2564 C2610 1.300 . S
O2565 C2610 1.209 . S
O2566 C2611 1.199 . S
O2567 H2539 0.854 . S
O2567 C2611 1.297 . S
C2568 C2569 1.404 . S
C2568 C2573 1.397 . S
C2568 C2574 1.492 . S
C2569 C2568 1.404 . S
C2569 C2570 1.396 . S
C2569 C2580 1.492 . S
C2570 C2569 1.396 . S
C2570 C2571 1.397 . S
C2570 C2586 1.509 . S
C2571 C2570 1.397 . S
C2571 C2572 1.412 . S
C2571 C2592 1.485 . S
C2572 C2571 1.412 . S
C2572 C2573 1.388 . S
C2572 C2598 1.490 . S
C2573 C2568 1.397 . S
C2573 C2572 1.388 . S
C2573 C2604 1.519 . S
C2574 C2568 1.492 . S
C2574 C2575 1.363 . S
C2574 C2579 1.390 . S
C2575 H2540 0.930 . S
C2575 C2574 1.363 . S
C2575 C2576 1.372 . S
C2576 H2541 0.930 . S
C2576 C2575 1.372 . S
C2576 C2577 1.383 . S
C2577 C2576 1.383 . S
C2577 C2578 1.395 . S
C2578 H2542 0.930 . S
C2578 C2577 1.395 . S
C2578 C2579 1.362 . S
C2579 H2543 0.930 . S
C2579 C2574 1.390 . S
C2579 C2578 1.362 . S
C2580 C2569 1.492 . S
C2580 C2581 1.377 . S
C2580 C2585 1.397 . S
C2581 H2544 0.931 . S
C2581 C2580 1.377 . S
C2581 C2582 1.376 . S
C2582 H2545 0.930 . S
C2582 C2581 1.376 . S
C2582 C2583 1.376 . S
C2583 C2582 1.376 . S
C2583 C2584 1.378 . S
C2583 C2610 1.486 . S
C2584 H2546 0.930 . S
C2584 C2583 1.378 . S
C2584 C2585 1.376 . S
C2585 H2547 0.929 . S
C2585 C2580 1.397 . S
C2585 C2584 1.376 . S
C2586 C2570 1.509 . S
C2586 C2587 1.391 . S
C2586 C2591 1.386 . S
C2587 H2548 0.930 . S
C2587 C2586 1.391 . S
C2587 C2588 1.375 . S
C2588 H2549 0.931 . S
C2588 C2587 1.375 . S
C2588 C2589 1.375 . S
C2589 C2588 1.375 . S
C2589 C2590 1.361 . S
C2590 H2550 0.930 . S
C2590 C2589 1.361 . S
C2590 C2591 1.399 . S
C2591 H2551 0.929 . S
C2591 C2586 1.386 . S
C2591 C2590 1.399 . S
C2592 C2571 1.485 . S
C2592 C2593 1.394 . S
C2592 C2597 1.360 . S
C2593 H2552 0.931 . S
C2593 C2592 1.394 . S
C2593 C2594 1.372 . S
C2594 H2553 0.930 . S
C2594 C2593 1.372 . S
C2594 C2595 1.397 . S
C2595 C2594 1.397 . S
C2595 C2596 1.390 . S
C2595 C2611 1.476 . S
C2596 H2554 0.930 . S
C2596 C2595 1.390 . S
C2596 C2597 1.366 . S
C2597 H2555 0.932 . S
C2597 C2592 1.360 . S
C2597 C2596 1.366 . S
C2598 C2572 1.490 . S
C2598 C2599 1.380 . S
C2598 C2603 1.386 . S
C2599 H2556 0.930 . S
C2599 C2598 1.380 . S
C2599 C2600 1.381 . S
C2600 H2557 0.929 . S
C2600 C2599 1.381 . S
C2600 C2601 1.371 . S
C2601 C2600 1.371 . S
C2601 C2602 1.380 . S
C2602 H2558 0.931 . S
C2602 C2601 1.380 . S
C2602 C2603 1.387 . S
C2603 H2559 0.930 . S
C2603 C2598 1.386 . S
C2603 C2602 1.387 . S
C2604 C2573 1.519 . S
C2604 C2605 1.377 . S
C2604 C2609 1.361 . S
C2605 H2560 0.929 . S
C2605 C2604 1.377 . S
C2605 C2606 1.386 . S
C2606 H2561 0.931 . S
C2606 C2605 1.386 . S
C2606 C2607 1.363 . S
C2607 C2606 1.363 . S
C2607 C2608 1.385 . S
C2608 H2562 0.930 . S
C2608 C2607 1.385 . S
C2608 C2609 1.396 . S
C2609 H2563 0.929 . S
C2609 C2604 1.361 . S
C2609 C2608 1.396 . S
C2610 O2564 1.300 . S
C2610 O2565 1.209 . S
C2610 C2583 1.486 . S
C2611 O2566 1.199 . S
C2611 O2567 1.297 . S
C2611 C2595 1.476 . S
H2612 O2638 0.856 . S
H2613 O2641 0.854 . S
H2614 C2649 0.930 . S
H2615 C2650 0.930 . S
H2616 C2652 0.930 . S
H2617 C2653 0.930 . S
H2618 C2655 0.931 . S
H2619 C2656 0.930 . S
H2620 C2658 0.930 . S
H2621 C2659 0.929 . S
H2622 C2661 0.930 . S
H2623 C2662 0.931 . S
H2624 C2664 0.930 . S
H2625 C2665 0.929 . S
H2626 C2667 0.931 . S
H2627 C2668 0.930 . S
H2628 C2670 0.930 . S
H2629 C2671 0.932 . S
H2630 C2673 0.930 . S
H2631 C2674 0.929 . S
H2632 C2676 0.931 . S
H2633 C2677 0.930 . S
H2634 C2679 0.929 . S
H2635 C2680 0.931 . S
H2636 C2682 0.930 . S
H2637 C2683 0.929 . S
O2638 H2612 0.856 . S
O2638 C2684 1.300 . S
O2639 C2684 1.209 . S
O2640 C2685 1.199 . S
O2641 H2613 0.854 . S
O2641 C2685 1.297 . S
C2642 C2643 1.404 . S
C2642 C2647 1.397 . S
C2642 C2648 1.492 . S
C2643 C2642 1.404 . S
C2643 C2644 1.396 . S
C2643 C2654 1.492 . S
C2644 C2643 1.396 . S
C2644 C2645 1.397 . S
C2644 C2660 1.509 . S
C2645 C2644 1.397 . S
C2645 C2646 1.412 . S
C2645 C2666 1.485 . S
C2646 C2645 1.412 . S
C2646 C2647 1.388 . S
C2646 C2672 1.490 . S
C2647 C2642 1.397 . S
C2647 C2646 1.388 . S
C2647 C2678 1.519 . S
C2648 C2642 1.492 . S
C2648 C2649 1.363 . S
C2648 C2653 1.390 . S
C2649 H2614 0.930 . S
C2649 C2648 1.363 . S
C2649 C2650 1.372 . S
C2650 H2615 0.930 . S
C2650 C2649 1.372 . S
C2650 C2651 1.383 . S
C2651 C2650 1.383 . S
C2651 C2652 1.395 . S
C2652 H2616 0.930 . S
C2652 C2651 1.395 . S
C2652 C2653 1.362 . S
C2653 H2617 0.930 . S
C2653 C2648 1.390 . S
C2653 C2652 1.362 . S
C2654 C2643 1.492 . S
C2654 C2655 1.377 . S
C2654 C2659 1.397 . S
C2655 H2618 0.931 . S
C2655 C2654 1.377 . S
C2655 C2656 1.376 . S
C2656 H2619 0.930 . S
C2656 C2655 1.376 . S
C2656 C2657 1.376 . S
C2657 C2656 1.376 . S
C2657 C2658 1.378 . S
C2657 C2684 1.486 . S
C2658 H2620 0.930 . S
C2658 C2657 1.378 . S
C2658 C2659 1.376 . S
C2659 H2621 0.929 . S
C2659 C2654 1.397 . S
C2659 C2658 1.376 . S
C2660 C2644 1.509 . S
C2660 C2661 1.391 . S
C2660 C2665 1.386 . S
C2661 H2622 0.930 . S
C2661 C2660 1.391 . S
C2661 C2662 1.375 . S
C2662 H2623 0.931 . S
C2662 C2661 1.375 . S
C2662 C2663 1.375 . S
C2663 C2662 1.375 . S
C2663 C2664 1.361 . S
C2664 H2624 0.930 . S
C2664 C2663 1.361 . S
C2664 C2665 1.399 . S
C2665 H2625 0.929 . S
C2665 C2660 1.386 . S
C2665 C2664 1.399 . S
C2666 C2645 1.485 . S
C2666 C2667 1.394 . S
C2666 C2671 1.360 . S
C2667 H2626 0.931 . S
C2667 C2666 1.394 . S
C2667 C2668 1.372 . S
C2668 H2627 0.930 . S
C2668 C2667 1.372 . S
C2668 C2669 1.397 . S
C2669 C2668 1.397 . S
C2669 C2670 1.390 . S
C2669 C2685 1.476 . S
C2670 H2628 0.930 . S
C2670 C2669 1.390 . S
C2670 C2671 1.366 . S
C2671 H2629 0.932 . S
C2671 C2666 1.360 . S
C2671 C2670 1.366 . S
C2672 C2646 1.490 . S
C2672 C2673 1.380 . S
C2672 C2677 1.386 . S
C2673 H2630 0.930 . S
C2673 C2672 1.380 . S
C2673 C2674 1.381 . S
C2674 H2631 0.929 . S
C2674 C2673 1.381 . S
C2674 C2675 1.371 . S
C2675 C2674 1.371 . S
C2675 C2676 1.380 . S
C2676 H2632 0.931 . S
C2676 C2675 1.380 . S
C2676 C2677 1.387 . S
C2677 H2633 0.930 . S
C2677 C2672 1.386 . S
C2677 C2676 1.387 . S
C2678 C2647 1.519 . S
C2678 C2679 1.377 . S
C2678 C2683 1.361 . S
C2679 H2634 0.929 . S
C2679 C2678 1.377 . S
C2679 C2680 1.386 . S
C2680 H2635 0.931 . S
C2680 C2679 1.386 . S
C2680 C2681 1.363 . S
C2681 C2680 1.363 . S
C2681 C2682 1.385 . S
C2682 H2636 0.930 . S
C2682 C2681 1.385 . S
C2682 C2683 1.396 . S
C2683 H2637 0.929 . S
C2683 C2678 1.361 . S
C2683 C2682 1.396 . S
C2684 O2638 1.300 . S
C2684 O2639 1.209 . S
C2684 C2657 1.486 . S
C2685 O2640 1.199 . S
C2685 O2641 1.297 . S
C2685 C2669 1.476 . S
H2686 O2712 0.856 . S
H2687 O2715 0.854 . S
H2688 C2723 0.930 . S
H2689 C2724 0.930 . S
H2690 C2726 0.930 . S
H2691 C2727 0.930 . S
H2692 C2729 0.931 . S
H2693 C2730 0.930 . S
H2694 C2732 0.930 . S
H2695 C2733 0.929 . S
H2696 C2735 0.930 . S
H2697 C2736 0.931 . S
H2698 C2738 0.930 . S
H2699 C2739 0.929 . S
H2700 C2741 0.931 . S
H2701 C2742 0.930 . S
H2702 C2744 0.930 . S
H2703 C2745 0.932 . S
H2704 C2747 0.930 . S
H2705 C2748 0.929 . S
H2706 C2750 0.931 . S
H2707 C2751 0.930 . S
H2708 C2753 0.929 . S
H2709 C2754 0.931 . S
H2710 C2756 0.930 . S
H2711 C2757 0.929 . S
O2712 H2686 0.856 . S
O2712 C2758 1.300 . S
O2713 C2758 1.209 . S
O2714 C2759 1.199 . S
O2715 H2687 0.854 . S
O2715 C2759 1.297 . S
C2716 C2717 1.404 . S
C2716 C2721 1.397 . S
C2716 C2722 1.492 . S
C2717 C2716 1.404 . S
C2717 C2718 1.396 . S
C2717 C2728 1.492 . S
C2718 C2717 1.396 . S
C2718 C2719 1.397 . S
C2718 C2734 1.509 . S
C2719 C2718 1.397 . S
C2719 C2720 1.412 . S
C2719 C2740 1.485 . S
C2720 C2719 1.412 . S
C2720 C2721 1.388 . S
C2720 C2746 1.490 . S
C2721 C2716 1.397 . S
C2721 C2720 1.388 . S
C2721 C2752 1.519 . S
C2722 C2716 1.492 . S
C2722 C2723 1.363 . S
C2722 C2727 1.390 . S
C2723 H2688 0.930 . S
C2723 C2722 1.363 . S
C2723 C2724 1.372 . S
C2724 H2689 0.930 . S
C2724 C2723 1.372 . S
C2724 C2725 1.383 . S
C2725 C2724 1.383 . S
C2725 C2726 1.395 . S
C2726 H2690 0.930 . S
C2726 C2725 1.395 . S
C2726 C2727 1.362 . S
C2727 H2691 0.930 . S
C2727 C2722 1.390 . S
C2727 C2726 1.362 . S
C2728 C2717 1.492 . S
C2728 C2729 1.377 . S
C2728 C2733 1.397 . S
C2729 H2692 0.931 . S
C2729 C2728 1.377 . S
C2729 C2730 1.376 . S
C2730 H2693 0.930 . S
C2730 C2729 1.376 . S
C2730 C2731 1.376 . S
C2731 C2730 1.376 . S
C2731 C2732 1.378 . S
C2731 C2758 1.486 . S
C2732 H2694 0.930 . S
C2732 C2731 1.378 . S
C2732 C2733 1.376 . S
C2733 H2695 0.929 . S
C2733 C2728 1.397 . S
C2733 C2732 1.376 . S
C2734 C2718 1.509 . S
C2734 C2735 1.391 . S
C2734 C2739 1.386 . S
C2735 H2696 0.930 . S
C2735 C2734 1.391 . S
C2735 C2736 1.375 . S
C2736 H2697 0.931 . S
C2736 C2735 1.375 . S
C2736 C2737 1.375 . S
C2737 C2736 1.375 . S
C2737 C2738 1.361 . S
C2738 H2698 0.930 . S
C2738 C2737 1.361 . S
C2738 C2739 1.399 . S
C2739 H2699 0.929 . S
C2739 C2734 1.386 . S
C2739 C2738 1.399 . S
C2740 C2719 1.485 . S
C2740 C2741 1.394 . S
C2740 C2745 1.360 . S
C2741 H2700 0.931 . S
C2741 C2740 1.394 . S
C2741 C2742 1.372 . S
C2742 H2701 0.930 . S
C2742 C2741 1.372 . S
C2742 C2743 1.397 . S
C2743 C2742 1.397 . S
C2743 C2744 1.390 . S
C2743 C2759 1.476 . S
C2744 H2702 0.930 . S
C2744 C2743 1.390 . S
C2744 C2745 1.366 . S
C2745 H2703 0.932 . S
C2745 C2740 1.360 . S
C2745 C2744 1.366 . S
C2746 C2720 1.490 . S
C2746 C2747 1.380 . S
C2746 C2751 1.386 . S
C2747 H2704 0.930 . S
C2747 C2746 1.380 . S
C2747 C2748 1.381 . S
C2748 H2705 0.929 . S
C2748 C2747 1.381 . S
C2748 C2749 1.371 . S
C2749 C2748 1.371 . S
C2749 C2750 1.380 . S
C2750 H2706 0.931 . S
C2750 C2749 1.380 . S
C2750 C2751 1.387 . S
C2751 H2707 0.930 . S
C2751 C2746 1.386 . S
C2751 C2750 1.387 . S
C2752 C2721 1.519 . S
C2752 C2753 1.377 . S
C2752 C2757 1.361 . S
C2753 H2708 0.929 . S
C2753 C2752 1.377 . S
C2753 C2754 1.386 . S
C2754 H2709 0.931 . S
C2754 C2753 1.386 . S
C2754 C2755 1.363 . S
C2755 C2754 1.363 . S
C2755 C2756 1.385 . S
C2756 H2710 0.930 . S
C2756 C2755 1.385 . S
C2756 C2757 1.396 . S
C2757 H2711 0.929 . S
C2757 C2752 1.361 . S
C2757 C2756 1.396 . S
C2758 O2712 1.300 . S
C2758 O2713 1.209 . S
C2758 C2731 1.486 . S
C2759 O2714 1.199 . S
C2759 O2715 1.297 . S
C2759 C2743 1.476 . S
H2760 O2786 0.856 . S
H2761 O2789 0.854 . S
H2762 C2797 0.930 . S
H2763 C2798 0.930 . S
H2764 C2800 0.930 . S
H2765 C2801 0.930 . S
H2766 C2803 0.931 . S
H2767 C2804 0.930 . S
H2768 C2806 0.930 . S
H2769 C2807 0.929 . S
H2770 C2809 0.930 . S
H2771 C2810 0.931 . S
H2772 C2812 0.930 . S
H2773 C2813 0.929 . S
H2774 C2815 0.931 . S
H2775 C2816 0.930 . S
H2776 C2818 0.930 . S
H2777 C2819 0.932 . S
H2778 C2821 0.930 . S
H2779 C2822 0.929 . S
H2780 C2824 0.931 . S
H2781 C2825 0.930 . S
H2782 C2827 0.929 . S
H2783 C2828 0.931 . S
H2784 C2830 0.930 . S
H2785 C2831 0.929 . S
O2786 H2760 0.856 . S
O2786 C2832 1.300 . S
O2787 C2832 1.209 . S
O2788 C2833 1.199 . S
O2789 H2761 0.854 . S
O2789 C2833 1.297 . S
C2790 C2791 1.404 . S
C2790 C2795 1.397 . S
C2790 C2796 1.492 . S
C2791 C2790 1.404 . S
C2791 C2792 1.396 . S
C2791 C2802 1.492 . S
C2792 C2791 1.396 . S
C2792 C2793 1.397 . S
C2792 C2808 1.509 . S
C2793 C2792 1.397 . S
C2793 C2794 1.412 . S
C2793 C2814 1.485 . S
C2794 C2793 1.412 . S
C2794 C2795 1.388 . S
C2794 C2820 1.490 . S
C2795 C2790 1.397 . S
C2795 C2794 1.388 . S
C2795 C2826 1.519 . S
C2796 C2790 1.492 . S
C2796 C2797 1.363 . S
C2796 C2801 1.390 . S
C2797 H2762 0.930 . S
C2797 C2796 1.363 . S
C2797 C2798 1.372 . S
C2798 H2763 0.930 . S
C2798 C2797 1.372 . S
C2798 C2799 1.383 . S
C2799 C2798 1.383 . S
C2799 C2800 1.395 . S
C2800 H2764 0.930 . S
C2800 C2799 1.395 . S
C2800 C2801 1.362 . S
C2801 H2765 0.930 . S
C2801 C2796 1.390 . S
C2801 C2800 1.362 . S
C2802 C2791 1.492 . S
C2802 C2803 1.377 . S
C2802 C2807 1.397 . S
C2803 H2766 0.931 . S
C2803 C2802 1.377 . S
C2803 C2804 1.376 . S
C2804 H2767 0.930 . S
C2804 C2803 1.376 . S
C2804 C2805 1.376 . S
C2805 C2804 1.376 . S
C2805 C2806 1.378 . S
C2805 C2832 1.486 . S
C2806 H2768 0.930 . S
C2806 C2805 1.378 . S
C2806 C2807 1.376 . S
C2807 H2769 0.929 . S
C2807 C2802 1.397 . S
C2807 C2806 1.376 . S
C2808 C2792 1.509 . S
C2808 C2809 1.391 . S
C2808 C2813 1.386 . S
C2809 H2770 0.930 . S
C2809 C2808 1.391 . S
C2809 C2810 1.375 . S
C2810 H2771 0.931 . S
C2810 C2809 1.375 . S
C2810 C2811 1.375 . S
C2811 C2810 1.375 . S
C2811 C2812 1.361 . S
C2812 H2772 0.930 . S
C2812 C2811 1.361 . S
C2812 C2813 1.399 . S
C2813 H2773 0.929 . S
C2813 C2808 1.386 . S
C2813 C2812 1.399 . S
C2814 C2793 1.485 . S
C2814 C2815 1.394 . S
C2814 C2819 1.360 . S
C2815 H2774 0.931 . S
C2815 C2814 1.394 . S
C2815 C2816 1.372 . S
C2816 H2775 0.930 . S
C2816 C2815 1.372 . S
C2816 C2817 1.397 . S
C2817 C2816 1.397 . S
C2817 C2818 1.390 . S
C2817 C2833 1.476 . S
C2818 H2776 0.930 . S
C2818 C2817 1.390 . S
C2818 C2819 1.366 . S
C2819 H2777 0.932 . S
C2819 C2814 1.360 . S
C2819 C2818 1.366 . S
C2820 C2794 1.490 . S
C2820 C2821 1.380 . S
C2820 C2825 1.386 . S
C2821 H2778 0.930 . S
C2821 C2820 1.380 . S
C2821 C2822 1.381 . S
C2822 H2779 0.929 . S
C2822 C2821 1.381 . S
C2822 C2823 1.371 . S
C2823 C2822 1.371 . S
C2823 C2824 1.380 . S
C2824 H2780 0.931 . S
C2824 C2823 1.380 . S
C2824 C2825 1.387 . S
C2825 H2781 0.930 . S
C2825 C2820 1.386 . S
C2825 C2824 1.387 . S
C2826 C2795 1.519 . S
C2826 C2827 1.377 . S
C2826 C2831 1.361 . S
C2827 H2782 0.929 . S
C2827 C2826 1.377 . S
C2827 C2828 1.386 . S
C2828 H2783 0.931 . S
C2828 C2827 1.386 . S
C2828 C2829 1.363 . S
C2829 C2828 1.363 . S
C2829 C2830 1.385 . S
C2830 H2784 0.930 . S
C2830 C2829 1.385 . S
C2830 C2831 1.396 . S
C2831 H2785 0.929 . S
C2831 C2826 1.361 . S
C2831 C2830 1.396 . S
C2832 O2786 1.300 . S
C2832 O2787 1.209 . S
C2832 C2805 1.486 . S
C2833 O2788 1.199 . S
C2833 O2789 1.297 . S
C2833 C2817 1.476 . S
H2834 O2860 0.856 . S
H2835 O2863 0.854 . S
H2836 C2871 0.930 . S
H2837 C2872 0.930 . S
H2838 C2874 0.930 . S
H2839 C2875 0.930 . S
H2840 C2877 0.931 . S
H2841 C2878 0.930 . S
H2842 C2880 0.930 . S
H2843 C2881 0.929 . S
H2844 C2883 0.930 . S
H2845 C2884 0.931 . S
H2846 C2886 0.930 . S
H2847 C2887 0.929 . S
H2848 C2889 0.931 . S
H2849 C2890 0.930 . S
H2850 C2892 0.930 . S
H2851 C2893 0.932 . S
H2852 C2895 0.930 . S
H2853 C2896 0.929 . S
H2854 C2898 0.931 . S
H2855 C2899 0.930 . S
H2856 C2901 0.929 . S
H2857 C2902 0.931 . S
H2858 C2904 0.930 . S
H2859 C2905 0.929 . S
O2860 H2834 0.856 . S
O2860 C2906 1.300 . S
O2861 C2906 1.209 . S
O2862 C2907 1.199 . S
O2863 H2835 0.854 . S
O2863 C2907 1.297 . S
C2864 C2865 1.404 . S
C2864 C2869 1.397 . S
C2864 C2870 1.492 . S
C2865 C2864 1.404 . S
C2865 C2866 1.396 . S
C2865 C2876 1.492 . S
C2866 C2865 1.396 . S
C2866 C2867 1.397 . S
C2866 C2882 1.509 . S
C2867 C2866 1.397 . S
C2867 C2868 1.412 . S
C2867 C2888 1.485 . S
C2868 C2867 1.412 . S
C2868 C2869 1.388 . S
C2868 C2894 1.490 . S
C2869 C2864 1.397 . S
C2869 C2868 1.388 . S
C2869 C2900 1.519 . S
C2870 C2864 1.492 . S
C2870 C2871 1.363 . S
C2870 C2875 1.390 . S
C2871 H2836 0.930 . S
C2871 C2870 1.363 . S
C2871 C2872 1.372 . S
C2872 H2837 0.930 . S
C2872 C2871 1.372 . S
C2872 C2873 1.383 . S
C2873 C2872 1.383 . S
C2873 C2874 1.395 . S
C2874 H2838 0.930 . S
C2874 C2873 1.395 . S
C2874 C2875 1.362 . S
C2875 H2839 0.930 . S
C2875 C2870 1.390 . S
C2875 C2874 1.362 . S
C2876 C2865 1.492 . S
C2876 C2877 1.377 . S
C2876 C2881 1.397 . S
C2877 H2840 0.931 . S
C2877 C2876 1.377 . S
C2877 C2878 1.376 . S
C2878 H2841 0.930 . S
C2878 C2877 1.376 . S
C2878 C2879 1.376 . S
C2879 C2878 1.376 . S
C2879 C2880 1.378 . S
C2879 C2906 1.486 . S
C2880 H2842 0.930 . S
C2880 C2879 1.378 . S
C2880 C2881 1.376 . S
C2881 H2843 0.929 . S
C2881 C2876 1.397 . S
C2881 C2880 1.376 . S
C2882 C2866 1.509 . S
C2882 C2883 1.391 . S
C2882 C2887 1.386 . S
C2883 H2844 0.930 . S
C2883 C2882 1.391 . S
C2883 C2884 1.375 . S
C2884 H2845 0.931 . S
C2884 C2883 1.375 . S
C2884 C2885 1.375 . S
C2885 C2884 1.375 . S
C2885 C2886 1.361 . S
C2886 H2846 0.930 . S
C2886 C2885 1.361 . S
C2886 C2887 1.399 . S
C2887 H2847 0.929 . S
C2887 C2882 1.386 . S
C2887 C2886 1.399 . S
C2888 C2867 1.485 . S
C2888 C2889 1.394 . S
C2888 C2893 1.360 . S
C2889 H2848 0.931 . S
C2889 C2888 1.394 . S
C2889 C2890 1.372 . S
C2890 H2849 0.930 . S
C2890 C2889 1.372 . S
C2890 C2891 1.397 . S
C2891 C2890 1.397 . S
C2891 C2892 1.390 . S
C2891 C2907 1.476 . S
C2892 H2850 0.930 . S
C2892 C2891 1.390 . S
C2892 C2893 1.366 . S
C2893 H2851 0.932 . S
C2893 C2888 1.360 . S
C2893 C2892 1.366 . S
C2894 C2868 1.490 . S
C2894 C2895 1.380 . S
C2894 C2899 1.386 . S
C2895 H2852 0.930 . S
C2895 C2894 1.380 . S
C2895 C2896 1.381 . S
C2896 H2853 0.929 . S
C2896 C2895 1.381 . S
C2896 C2897 1.371 . S
C2897 C2896 1.371 . S
C2897 C2898 1.380 . S
C2898 H2854 0.931 . S
C2898 C2897 1.380 . S
C2898 C2899 1.387 . S
C2899 H2855 0.930 . S
C2899 C2894 1.386 . S
C2899 C2898 1.387 . S
C2900 C2869 1.519 . S
C2900 C2901 1.377 . S
C2900 C2905 1.361 . S
C2901 H2856 0.929 . S
C2901 C2900 1.377 . S
C2901 C2902 1.386 . S
C2902 H2857 0.931 . S
C2902 C2901 1.386 . S
C2902 C2903 1.363 . S
C2903 C2902 1.363 . S
C2903 C2904 1.385 . S
C2904 H2858 0.930 . S
C2904 C2903 1.385 . S
C2904 C2905 1.396 . S
C2905 H2859 0.929 . S
C2905 C2900 1.361 . S
C2905 C2904 1.396 . S
C2906 O2860 1.300 . S
C2906 O2861 1.209 . S
C2906 C2879 1.486 . S
C2907 O2862 1.199 . S
C2907 O2863 1.297 . S
C2907 C2891 1.476 . S
H2908 O2934 0.856 . S
H2909 O2937 0.854 . S
H2910 C2945 0.930 . S
H2911 C2946 0.930 . S
H2912 C2948 0.930 . S
H2913 C2949 0.930 . S
H2914 C2951 0.931 . S
H2915 C2952 0.930 . S
H2916 C2954 0.930 . S
H2917 C2955 0.929 . S
H2918 C2957 0.930 . S
H2919 C2958 0.931 . S
H2920 C2960 0.930 . S
H2921 C2961 0.929 . S
H2922 C2963 0.931 . S
H2923 C2964 0.930 . S
H2924 C2966 0.930 . S
H2925 C2967 0.932 . S
H2926 C2969 0.930 . S
H2927 C2970 0.929 . S
H2928 C2972 0.931 . S
H2929 C2973 0.930 . S
H2930 C2975 0.929 . S
H2931 C2976 0.931 . S
H2932 C2978 0.930 . S
H2933 C2979 0.929 . S
O2934 H2908 0.856 . S
O2934 C2980 1.300 . S
O2935 C2980 1.209 . S
O2936 C2981 1.199 . S
O2937 H2909 0.854 . S
O2937 C2981 1.297 . S
C2938 C2939 1.404 . S
C2938 C2943 1.397 . S
C2938 C2944 1.492 . S
C2939 C2938 1.404 . S
C2939 C2940 1.396 . S
C2939 C2950 1.492 . S
C2940 C2939 1.396 . S
C2940 C2941 1.397 . S
C2940 C2956 1.509 . S
C2941 C2940 1.397 . S
C2941 C2942 1.412 . S
C2941 C2962 1.485 . S
C2942 C2941 1.412 . S
C2942 C2943 1.388 . S
C2942 C2968 1.490 . S
C2943 C2938 1.397 . S
C2943 C2942 1.388 . S
C2943 C2974 1.519 . S
C2944 C2938 1.492 . S
C2944 C2945 1.363 . S
C2944 C2949 1.390 . S
C2945 H2910 0.930 . S
C2945 C2944 1.363 . S
C2945 C2946 1.372 . S
C2946 H2911 0.930 . S
C2946 C2945 1.372 . S
C2946 C2947 1.383 . S
C2947 C2946 1.383 . S
C2947 C2948 1.395 . S
C2948 H2912 0.930 . S
C2948 C2947 1.395 . S
C2948 C2949 1.362 . S
C2949 H2913 0.930 . S
C2949 C2944 1.390 . S
C2949 C2948 1.362 . S
C2950 C2939 1.492 . S
C2950 C2951 1.377 . S
C2950 C2955 1.397 . S
C2951 H2914 0.931 . S
C2951 C2950 1.377 . S
C2951 C2952 1.376 . S
C2952 H2915 0.930 . S
C2952 C2951 1.376 . S
C2952 C2953 1.376 . S
C2953 C2952 1.376 . S
C2953 C2954 1.378 . S
C2953 C2980 1.486 . S
C2954 H2916 0.930 . S
C2954 C2953 1.378 . S
C2954 C2955 1.376 . S
C2955 H2917 0.929 . S
C2955 C2950 1.397 . S
C2955 C2954 1.376 . S
C2956 C2940 1.509 . S
C2956 C2957 1.391 . S
C2956 C2961 1.386 . S
C2957 H2918 0.930 . S
C2957 C2956 1.391 . S
C2957 C2958 1.375 . S
C2958 H2919 0.931 . S
C2958 C2957 1.375 . S
C2958 C2959 1.375 . S
C2959 C2958 1.375 . S
C2959 C2960 1.361 . S
C2960 H2920 0.930 . S
C2960 C2959 1.361 . S
C2960 C2961 1.399 . S
C2961 H2921 0.929 . S
C2961 C2956 1.386 . S
C2961 C2960 1.399 . S
C2962 C2941 1.485 . S
C2962 C2963 1.394 . S
C2962 C2967 1.360 . S
C2963 H2922 0.931 . S
C2963 C2962 1.394 . S
C2963 C2964 1.372 . S
C2964 H2923 0.930 . S
C2964 C2963 1.372 . S
C2964 C2965 1.397 . S
C2965 C2964 1.397 . S
C2965 C2966 1.390 . S
C2965 C2981 1.476 . S
C2966 H2924 0.930 . S
C2966 C2965 1.390 . S
C2966 C2967 1.366 . S
C2967 H2925 0.932 . S
C2967 C2962 1.360 . S
C2967 C2966 1.366 . S
C2968 C2942 1.490 . S
C2968 C2969 1.380 . S
C2968 C2973 1.386 . S
C2969 H2926 0.930 . S
C2969 C2968 1.380 . S
C2969 C2970 1.381 . S
C2970 H2927 0.929 . S
C2970 C2969 1.381 . S
C2970 C2971 1.371 . S
C2971 C2970 1.371 . S
C2971 C2972 1.380 . S
C2972 H2928 0.931 . S
C2972 C2971 1.380 . S
C2972 C2973 1.387 . S
C2973 H2929 0.930 . S
C2973 C2968 1.386 . S
C2973 C2972 1.387 . S
C2974 C2943 1.519 . S
C2974 C2975 1.377 . S
C2974 C2979 1.361 . S
C2975 H2930 0.929 . S
C2975 C2974 1.377 . S
C2975 C2976 1.386 . S
C2976 H2931 0.931 . S
C2976 C2975 1.386 . S
C2976 C2977 1.363 . S
C2977 C2976 1.363 . S
C2977 C2978 1.385 . S
C2978 H2932 0.930 . S
C2978 C2977 1.385 . S
C2978 C2979 1.396 . S
C2979 H2933 0.929 . S
C2979 C2974 1.361 . S
C2979 C2978 1.396 . S
C2980 O2934 1.300 . S
C2980 O2935 1.209 . S
C2980 C2953 1.486 . S
C2981 O2936 1.199 . S
C2981 O2937 1.297 . S
C2981 C2965 1.476 . S
H2982 O3008 0.856 . S
H2983 O3011 0.854 . S
H2984 C3019 0.930 . S
H2985 C3020 0.930 . S
H2986 C3022 0.930 . S
H2987 C3023 0.930 . S
H2988 C3025 0.931 . S
H2989 C3026 0.930 . S
H2990 C3028 0.930 . S
H2991 C3029 0.929 . S
H2992 C3031 0.930 . S
H2993 C3032 0.931 . S
H2994 C3034 0.930 . S
H2995 C3035 0.929 . S
H2996 C3037 0.931 . S
H2997 C3038 0.930 . S
H2998 C3040 0.930 . S
H2999 C3041 0.932 . S
H3000 C3043 0.930 . S
H3001 C3044 0.929 . S
H3002 C3046 0.931 . S
H3003 C3047 0.930 . S
H3004 C3049 0.929 . S
H3005 C3050 0.931 . S
H3006 C3052 0.930 . S
H3007 C3053 0.929 . S
O3008 H2982 0.856 . S
O3008 C3054 1.300 . S
O3009 C3054 1.209 . S
O3010 C3055 1.199 . S
O3011 H2983 0.854 . S
O3011 C3055 1.297 . S
C3012 C3013 1.404 . S
C3012 C3017 1.397 . S
C3012 C3018 1.492 . S
C3013 C3012 1.404 . S
C3013 C3014 1.396 . S
C3013 C3024 1.492 . S
C3014 C3013 1.396 . S
C3014 C3015 1.397 . S
C3014 C3030 1.509 . S
C3015 C3014 1.397 . S
C3015 C3016 1.412 . S
C3015 C3036 1.485 . S
C3016 C3015 1.412 . S
C3016 C3017 1.388 . S
C3016 C3042 1.490 . S
C3017 C3012 1.397 . S
C3017 C3016 1.388 . S
C3017 C3048 1.519 . S
C3018 C3012 1.492 . S
C3018 C3019 1.363 . S
C3018 C3023 1.390 . S
C3019 H2984 0.930 . S
C3019 C3018 1.363 . S
C3019 C3020 1.372 . S
C3020 H2985 0.930 . S
C3020 C3019 1.372 . S
C3020 C3021 1.383 . S
C3021 C3020 1.383 . S
C3021 C3022 1.395 . S
C3022 H2986 0.930 . S
C3022 C3021 1.395 . S
C3022 C3023 1.362 . S
C3023 H2987 0.930 . S
C3023 C3018 1.390 . S
C3023 C3022 1.362 . S
C3024 C3013 1.492 . S
C3024 C3025 1.377 . S
C3024 C3029 1.397 . S
C3025 H2988 0.931 . S
C3025 C3024 1.377 . S
C3025 C3026 1.376 . S
C3026 H2989 0.930 . S
C3026 C3025 1.376 . S
C3026 C3027 1.376 . S
C3027 C3026 1.376 . S
C3027 C3028 1.378 . S
C3027 C3054 1.486 . S
C3028 H2990 0.930 . S
C3028 C3027 1.378 . S
C3028 C3029 1.376 . S
C3029 H2991 0.929 . S
C3029 C3024 1.397 . S
C3029 C3028 1.376 . S
C3030 C3014 1.509 . S
C3030 C3031 1.391 . S
C3030 C3035 1.386 . S
C3031 H2992 0.930 . S
C3031 C3030 1.391 . S
C3031 C3032 1.375 . S
C3032 H2993 0.931 . S
C3032 C3031 1.375 . S
C3032 C3033 1.375 . S
C3033 C3032 1.375 . S
C3033 C3034 1.361 . S
C3034 H2994 0.930 . S
C3034 C3033 1.361 . S
C3034 C3035 1.399 . S
C3035 H2995 0.929 . S
C3035 C3030 1.386 . S
C3035 C3034 1.399 . S
C3036 C3015 1.485 . S
C3036 C3037 1.394 . S
C3036 C3041 1.360 . S
C3037 H2996 0.931 . S
C3037 C3036 1.394 . S
C3037 C3038 1.372 . S
C3038 H2997 0.930 . S
C3038 C3037 1.372 . S
C3038 C3039 1.397 . S
C3039 C3038 1.397 . S
C3039 C3040 1.390 . S
C3039 C3055 1.476 . S
C3040 H2998 0.930 . S
C3040 C3039 1.390 . S
C3040 C3041 1.366 . S
C3041 H2999 0.932 . S
C3041 C3036 1.360 . S
C3041 C3040 1.366 . S
C3042 C3016 1.490 . S
C3042 C3043 1.380 . S
C3042 C3047 1.386 . S
C3043 H3000 0.930 . S
C3043 C3042 1.380 . S
C3043 C3044 1.381 . S
C3044 H3001 0.929 . S
C3044 C3043 1.381 . S
C3044 C3045 1.371 . S
C3045 C3044 1.371 . S
C3045 C3046 1.380 . S
C3046 H3002 0.931 . S
C3046 C3045 1.380 . S
C3046 C3047 1.387 . S
C3047 H3003 0.930 . S
C3047 C3042 1.386 . S
C3047 C3046 1.387 . S
C3048 C3017 1.519 . S
C3048 C3049 1.377 . S
C3048 C3053 1.361 . S
C3049 H3004 0.929 . S
C3049 C3048 1.377 . S
C3049 C3050 1.386 . S
C3050 H3005 0.931 . S
C3050 C3049 1.386 . S
C3050 C3051 1.363 . S
C3051 C3050 1.363 . S
C3051 C3052 1.385 . S
C3052 H3006 0.930 . S
C3052 C3051 1.385 . S
C3052 C3053 1.396 . S
C3053 H3007 0.929 . S
C3053 C3048 1.361 . S
C3053 C3052 1.396 . S
C3054 O3008 1.300 . S
C3054 O3009 1.209 . S
C3054 C3027 1.486 . S
C3055 O3010 1.199 . S
C3055 O3011 1.297 . S
C3055 C3039 1.476 . S
H3056 C3064 0.929 . S
H3057 C3066 0.930 . S
H3058 C3068 0.930 . S
H3059 C3071 0.929 . S
H3060 C3074 0.930 . S
H3061 C3076 0.960 . S
H3062 C3076 0.960 . S
H3063 C3076 0.960 . S
C3064 H3056 0.929 . S
C3064 C3065 1.377 . S
C3064 C3066 1.384 . S
C3065 C3064 1.377 . S
C3065 C3071 1.390 . S
C3066 H3057 0.930 . S
C3066 C3064 1.384 . S
C3066 C3067 1.372 . S
C3067 C3066 1.372 . S
C3067 C3068 1.400 . S
C3067 C3072 1.490 . S
C3068 H3058 0.930 . S
C3068 C3067 1.400 . S
C3068 C3071 1.386 . S
H3069 C3085 0.930 . S
H3070 C3086 0.931 . S
C3071 H3059 0.929 . S
C3071 C3065 1.390 . S
C3071 C3068 1.386 . S
C3072 C3067 1.490 . S
C3072 C3074 1.395 . S
C3072 C3075 1.403 . S
H3073 C3079 0.930 . S
C3074 H3060 0.930 . S
C3074 C3072 1.395 . S
C3074 C3077 1.403 . S
C3075 C3072 1.403 . S
C3075 C3076 1.524 . S
C3075 C3079 1.400 . S
C3076 H3061 0.960 . S
C3076 H3062 0.960 . S
C3076 H3063 0.960 . S
C3076 C3075 1.524 . S
C3077 C3074 1.403 . S
C3077 C3078 1.392 . S
C3077 C3081 1.495 . S
C3078 C3077 1.392 . S
C3078 C3079 1.385 . S
C3078 C3080 1.478 . S
C3079 H3073 0.930 . S
C3079 C3075 1.400 . S
C3079 C3078 1.385 . S
C3080 C3078 1.478 . S
C3080 C3082 1.381 . S
C3080 C3086 1.383 . S
C3081 C3077 1.495 . S
C3081 H3087 0.959 . S
C3081 H3088 0.961 . S
C3081 H3089 0.960 . S
C3082 C3080 1.381 . S
C3082 C3083 1.394 . S
C3082 H3090 0.930 . S
C3083 C3082 1.394 . S
C3083 C3084 1.383 . S
C3083 H3091 0.929 . S
C3084 C3083 1.383 . S
C3084 C3085 1.377 . S
C3085 H3069 0.930 . S
C3085 C3084 1.377 . S
C3085 C3086 1.379 . S
C3086 H3070 0.931 . S
C3086 C3080 1.383 . S
C3086 C3085 1.379 . S
H3087 C3081 0.959 . S
H3088 C3081 0.961 . S
H3089 C3081 0.960 . S
H3090 C3082 0.930 . S
H3091 C3083 0.929 . S
H3092 C3100 0.929 . S
H3093 C3102 0.930 . S
H3094 C3104 0.930 . S
H3095 C3107 0.929 . S
H3096 C3110 0.930 . S
H3097 C3112 0.960 . S
H3098 C3112 0.960 . S
H3099 C3112 0.960 . S
C3100 H3092 0.929 . S
C3100 C3101 1.377 . S
C3100 C3102 1.384 . S
C3101 C3100 1.377 . S
C3101 C3107 1.390 . S
C3102 H3093 0.930 . S
C3102 C3100 1.384 . S
C3102 C3103 1.372 . S
C3103 C3102 1.372 . S
C3103 C3104 1.400 . S
C3103 C3108 1.490 . S
C3104 H3094 0.930 . S
C3104 C3103 1.400 . S
C3104 C3107 1.386 . S
H3105 C3121 0.930 . S
H3106 C3122 0.931 . S
C3107 H3095 0.929 . S
C3107 C3101 1.390 . S
C3107 C3104 1.386 . S
C3108 C3103 1.490 . S
C3108 C3110 1.395 . S
C3108 C3111 1.403 . S
H3109 C3115 0.930 . S
C3110 H3096 0.930 . S
C3110 C3108 1.395 . S
C3110 C3113 1.403 . S
C3111 C3108 1.403 . S
C3111 C3112 1.524 . S
C3111 C3115 1.400 . S
C3112 H3097 0.960 . S
C3112 H3098 0.960 . S
C3112 H3099 0.960 . S
C3112 C3111 1.524 . S
C3113 C3110 1.403 . S
C3113 C3114 1.392 . S
C3113 C3117 1.495 . S
C3114 C3113 1.392 . S
C3114 C3115 1.385 . S
C3114 C3116 1.478 . S
C3115 H3109 0.930 . S
C3115 C3111 1.400 . S
C3115 C3114 1.385 . S
C3116 C3114 1.478 . S
C3116 C3118 1.381 . S
C3116 C3122 1.383 . S
C3117 C3113 1.495 . S
C3117 H3123 0.959 . S
C3117 H3124 0.961 . S
C3117 H3125 0.960 . S
C3118 C3116 1.381 . S
C3118 C3119 1.394 . S
C3118 H3126 0.930 . S
C3119 C3118 1.394 . S
C3119 C3120 1.383 . S
C3119 H3127 0.929 . S
C3120 C3119 1.383 . S
C3120 C3121 1.377 . S
C3121 H3105 0.930 . S
C3121 C3120 1.377 . S
C3121 C3122 1.379 . S
C3122 H3106 0.931 . S
C3122 C3116 1.383 . S
C3122 C3121 1.379 . S
H3123 C3117 0.959 . S
H3124 C3117 0.961 . S
H3125 C3117 0.960 . S
H3126 C3118 0.930 . S
H3127 C3119 0.929 . S
H3128 C3136 0.929 . S
H3129 C3138 0.930 . S
H3130 C3140 0.930 . S
H3131 C3143 0.929 . S
H3132 C3146 0.930 . S
H3133 C3148 0.960 . S
H3134 C3148 0.960 . S
H3135 C3148 0.960 . S
C3136 H3128 0.929 . S
C3136 C3137 1.377 . S
C3136 C3138 1.384 . S
C3137 C3136 1.377 . S
C3137 C3143 1.390 . S
C3138 H3129 0.930 . S
C3138 C3136 1.384 . S
C3138 C3139 1.372 . S
C3139 C3138 1.372 . S
C3139 C3140 1.400 . S
C3139 C3144 1.490 . S
C3140 H3130 0.930 . S
C3140 C3139 1.400 . S
C3140 C3143 1.386 . S
H3141 C3157 0.930 . S
H3142 C3158 0.931 . S
C3143 H3131 0.929 . S
C3143 C3137 1.390 . S
C3143 C3140 1.386 . S
C3144 C3139 1.490 . S
C3144 C3146 1.395 . S
C3144 C3147 1.403 . S
H3145 C3151 0.930 . S
C3146 H3132 0.930 . S
C3146 C3144 1.395 . S
C3146 C3149 1.403 . S
C3147 C3144 1.403 . S
C3147 C3148 1.524 . S
C3147 C3151 1.400 . S
C3148 H3133 0.960 . S
C3148 H3134 0.960 . S
C3148 H3135 0.960 . S
C3148 C3147 1.524 . S
C3149 C3146 1.403 . S
C3149 C3150 1.392 . S
C3149 C3153 1.495 . S
C3150 C3149 1.392 . S
C3150 C3151 1.385 . S
C3150 C3152 1.478 . S
C3151 H3145 0.930 . S
C3151 C3147 1.400 . S
C3151 C3150 1.385 . S
C3152 C3150 1.478 . S
C3152 C3154 1.381 . S
C3152 C3158 1.383 . S
C3153 C3149 1.495 . S
C3153 H3159 0.959 . S
C3153 H3160 0.961 . S
C3153 H3161 0.960 . S
C3154 C3152 1.381 . S
C3154 C3155 1.394 . S
C3154 H3162 0.930 . S
C3155 C3154 1.394 . S
C3155 C3156 1.383 . S
C3155 H3163 0.929 . S
C3156 C3155 1.383 . S
C3156 C3157 1.377 . S
C3157 H3141 0.930 . S
C3157 C3156 1.377 . S
C3157 C3158 1.379 . S
C3158 H3142 0.931 . S
C3158 C3152 1.383 . S
C3158 C3157 1.379 . S
H3159 C3153 0.959 . S
H3160 C3153 0.961 . S
H3161 C3153 0.960 . S
H3162 C3154 0.930 . S
H3163 C3155 0.929 . S
H3164 C3172 0.929 . S
H3165 C3174 0.930 . S
H3166 C3176 0.930 . S
H3167 C3179 0.929 . S
H3168 C3182 0.930 . S
H3169 C3184 0.960 . S
H3170 C3184 0.960 . S
H3171 C3184 0.960 . S
C3172 H3164 0.929 . S
C3172 C3173 1.377 . S
C3172 C3174 1.384 . S
C3173 C3172 1.377 . S
C3173 C3179 1.390 . S
C3174 H3165 0.930 . S
C3174 C3172 1.384 . S
C3174 C3175 1.372 . S
C3175 C3174 1.372 . S
C3175 C3176 1.400 . S
C3175 C3180 1.490 . S
C3176 H3166 0.930 . S
C3176 C3175 1.400 . S
C3176 C3179 1.386 . S
H3177 C3193 0.930 . S
H3178 C3194 0.931 . S
C3179 H3167 0.929 . S
C3179 C3173 1.390 . S
C3179 C3176 1.386 . S
C3180 C3175 1.490 . S
C3180 C3182 1.395 . S
C3180 C3183 1.403 . S
H3181 C3187 0.930 . S
C3182 H3168 0.930 . S
C3182 C3180 1.395 . S
C3182 C3185 1.403 . S
C3183 C3180 1.403 . S
C3183 C3184 1.524 . S
C3183 C3187 1.400 . S
C3184 H3169 0.960 . S
C3184 H3170 0.960 . S
C3184 H3171 0.960 . S
C3184 C3183 1.524 . S
C3185 C3182 1.403 . S
C3185 C3186 1.392 . S
C3185 C3189 1.495 . S
C3186 C3185 1.392 . S
C3186 C3187 1.385 . S
C3186 C3188 1.478 . S
C3187 H3181 0.930 . S
C3187 C3183 1.400 . S
C3187 C3186 1.385 . S
C3188 C3186 1.478 . S
C3188 C3190 1.381 . S
C3188 C3194 1.383 . S
C3189 C3185 1.495 . S
C3189 H3195 0.959 . S
C3189 H3196 0.961 . S
C3189 H3197 0.960 . S
C3190 C3188 1.381 . S
C3190 C3191 1.394 . S
C3190 H3198 0.930 . S
C3191 C3190 1.394 . S
C3191 C3192 1.383 . S
C3191 H3199 0.929 . S
C3192 C3191 1.383 . S
C3192 C3193 1.377 . S
C3193 H3177 0.930 . S
C3193 C3192 1.377 . S
C3193 C3194 1.379 . S
C3194 H3178 0.931 . S
C3194 C3188 1.383 . S
C3194 C3193 1.379 . S
H3195 C3189 0.959 . S
H3196 C3189 0.961 . S
H3197 C3189 0.960 . S
H3198 C3190 0.930 . S
H3199 C3191 0.929 . S
H3200 C3208 0.929 . S
H3201 C3210 0.930 . S
H3202 C3212 0.930 . S
H3203 C3215 0.929 . S
H3204 C3218 0.930 . S
H3205 C3220 0.960 . S
H3206 C3220 0.960 . S
H3207 C3220 0.960 . S
C3208 H3200 0.929 . S
C3208 C3209 1.377 . S
C3208 C3210 1.384 . S
C3209 C3208 1.377 . S
C3209 C3215 1.390 . S
C3210 H3201 0.930 . S
C3210 C3208 1.384 . S
C3210 C3211 1.372 . S
C3211 C3210 1.372 . S
C3211 C3212 1.400 . S
C3211 C3216 1.490 . S
C3212 H3202 0.930 . S
C3212 C3211 1.400 . S
C3212 C3215 1.386 . S
H3213 C3229 0.930 . S
H3214 C3230 0.931 . S
C3215 H3203 0.929 . S
C3215 C3209 1.390 . S
C3215 C3212 1.386 . S
C3216 C3211 1.490 . S
C3216 C3218 1.395 . S
C3216 C3219 1.403 . S
H3217 C3223 0.930 . S
C3218 H3204 0.930 . S
C3218 C3216 1.395 . S
C3218 C3221 1.403 . S
C3219 C3216 1.403 . S
C3219 C3220 1.524 . S
C3219 C3223 1.400 . S
C3220 H3205 0.960 . S
C3220 H3206 0.960 . S
C3220 H3207 0.960 . S
C3220 C3219 1.524 . S
C3221 C3218 1.403 . S
C3221 C3222 1.392 . S
C3221 C3225 1.495 . S
C3222 C3221 1.392 . S
C3222 C3223 1.385 . S
C3222 C3224 1.478 . S
C3223 H3217 0.930 . S
C3223 C3219 1.400 . S
C3223 C3222 1.385 . S
C3224 C3222 1.478 . S
C3224 C3226 1.381 . S
C3224 C3230 1.383 . S
C3225 C3221 1.495 . S
C3225 H3231 0.959 . S
C3225 H3232 0.961 . S
C3225 H3233 0.960 . S
C3226 C3224 1.381 . S
C3226 C3227 1.394 . S
C3226 H3234 0.930 . S
C3227 C3226 1.394 . S
C3227 C3228 1.383 . S
C3227 H3235 0.929 . S
C3228 C3227 1.383 . S
C3228 C3229 1.377 . S
C3229 H3213 0.930 . S
C3229 C3228 1.377 . S
C3229 C3230 1.379 . S
C3230 H3214 0.931 . S
C3230 C3224 1.383 . S
C3230 C3229 1.379 . S
H3231 C3225 0.959 . S
H3232 C3225 0.961 . S
H3233 C3225 0.960 . S
H3234 C3226 0.930 . S
H3235 C3227 0.929 . S
H3236 C3244 0.929 . S
H3237 C3246 0.930 . S
H3238 C3248 0.930 . S
H3239 C3251 0.929 . S
H3240 C3254 0.930 . S
H3241 C3256 0.960 . S
H3242 C3256 0.960 . S
H3243 C3256 0.960 . S
C3244 H3236 0.929 . S
C3244 C3245 1.377 . S
C3244 C3246 1.384 . S
C3245 C3244 1.377 . S
C3245 C3251 1.390 . S
C3246 H3237 0.930 . S
C3246 C3244 1.384 . S
C3246 C3247 1.372 . S
C3247 C3246 1.372 . S
C3247 C3248 1.400 . S
C3247 C3252 1.490 . S
C3248 H3238 0.930 . S
C3248 C3247 1.400 . S
C3248 C3251 1.386 . S
H3249 C3265 0.930 . S
H3250 C3266 0.931 . S
C3251 H3239 0.929 . S
C3251 C3245 1.390 . S
C3251 C3248 1.386 . S
C3252 C3247 1.490 . S
C3252 C3254 1.395 . S
C3252 C3255 1.403 . S
H3253 C3259 0.930 . S
C3254 H3240 0.930 . S
C3254 C3252 1.395 . S
C3254 C3257 1.403 . S
C3255 C3252 1.403 . S
C3255 C3256 1.524 . S
C3255 C3259 1.400 . S
C3256 H3241 0.960 . S
C3256 H3242 0.960 . S
C3256 H3243 0.960 . S
C3256 C3255 1.524 . S
C3257 C3254 1.403 . S
C3257 C3258 1.392 . S
C3257 C3261 1.495 . S
C3258 C3257 1.392 . S
C3258 C3259 1.385 . S
C3258 C3260 1.478 . S
C3259 H3253 0.930 . S
C3259 C3255 1.400 . S
C3259 C3258 1.385 . S
C3260 C3258 1.478 . S
C3260 C3262 1.381 . S
C3260 C3266 1.383 . S
C3261 C3257 1.495 . S
C3261 H3267 0.959 . S
C3261 H3268 0.961 . S
C3261 H3269 0.960 . S
C3262 C3260 1.381 . S
C3262 C3263 1.394 . S
C3262 H3270 0.930 . S
C3263 C3262 1.394 . S
C3263 C3264 1.383 . S
C3263 H3271 0.929 . S
C3264 C3263 1.383 . S
C3264 C3265 1.377 . S
C3265 H3249 0.930 . S
C3265 C3264 1.377 . S
C3265 C3266 1.379 . S
C3266 H3250 0.931 . S
C3266 C3260 1.383 . S
C3266 C3265 1.379 . S
H3267 C3261 0.959 . S
H3268 C3261 0.961 . S
H3269 C3261 0.960 . S
H3270 C3262 0.930 . S
H3271 C3263 0.929 . S
H3272 C3280 0.929 . S
H3273 C3282 0.930 . S
H3274 C3284 0.930 . S
H3275 C3287 0.929 . S
H3276 C3290 0.930 . S
H3277 C3292 0.960 . S
H3278 C3292 0.960 . S
H3279 C3292 0.960 . S
C3280 H3272 0.929 . S
C3280 C3281 1.377 . S
C3280 C3282 1.384 . S
C3281 C3280 1.377 . S
C3281 C3287 1.390 . S
C3282 H3273 0.930 . S
C3282 C3280 1.384 . S
C3282 C3283 1.372 . S
C3283 C3282 1.372 . S
C3283 C3284 1.400 . S
C3283 C3288 1.490 . S
C3284 H3274 0.930 . S
C3284 C3283 1.400 . S
C3284 C3287 1.386 . S
H3285 C3301 0.930 . S
H3286 C3302 0.931 . S
C3287 H3275 0.929 . S
C3287 C3281 1.390 . S
C3287 C3284 1.386 . S
C3288 C3283 1.490 . S
C3288 C3290 1.395 . S
C3288 C3291 1.403 . S
H3289 C3295 0.930 . S
C3290 H3276 0.930 . S
C3290 C3288 1.395 . S
C3290 C3293 1.403 . S
C3291 C3288 1.403 . S
C3291 C3292 1.524 . S
C3291 C3295 1.400 . S
C3292 H3277 0.960 . S
C3292 H3278 0.960 . S
C3292 H3279 0.960 . S
C3292 C3291 1.524 . S
C3293 C3290 1.403 . S
C3293 C3294 1.392 . S
C3293 C3297 1.495 . S
C3294 C3293 1.392 . S
C3294 C3295 1.385 . S
C3294 C3296 1.478 . S
C3295 H3289 0.930 . S
C3295 C3291 1.400 . S
C3295 C3294 1.385 . S
C3296 C3294 1.478 . S
C3296 C3298 1.381 . S
C3296 C3302 1.383 . S
C3297 C3293 1.495 . S
C3297 H3303 0.959 . S
C3297 H3304 0.961 . S
C3297 H3305 0.960 . S
C3298 C3296 1.381 . S
C3298 C3299 1.394 . S
C3298 H3306 0.930 . S
C3299 C3298 1.394 . S
C3299 C3300 1.383 . S
C3299 H3307 0.929 . S
C3300 C3299 1.383 . S
C3300 C3301 1.377 . S
C3301 H3285 0.930 . S
C3301 C3300 1.377 . S
C3301 C3302 1.379 . S
C3302 H3286 0.931 . S
C3302 C3296 1.383 . S
C3302 C3301 1.379 . S
H3303 C3297 0.959 . S
H3304 C3297 0.961 . S
H3305 C3297 0.960 . S
H3306 C3298 0.930 . S
H3307 C3299 0.929 . S
H3308 C3316 0.929 . S
H3309 C3318 0.930 . S
H3310 C3320 0.930 . S
H3311 C3323 0.929 . S
H3312 C3326 0.930 . S
H3313 C3328 0.960 . S
H3314 C3328 0.960 . S
H3315 C3328 0.960 . S
C3316 H3308 0.929 . S
C3316 C3317 1.377 . S
C3316 C3318 1.384 . S
C3317 C3316 1.377 . S
C3317 C3323 1.390 . S
C3318 H3309 0.930 . S
C3318 C3316 1.384 . S
C3318 C3319 1.372 . S
C3319 C3318 1.372 . S
C3319 C3320 1.400 . S
C3319 C3324 1.490 . S
C3320 H3310 0.930 . S
C3320 C3319 1.400 . S
C3320 C3323 1.386 . S
H3321 C3337 0.930 . S
H3322 C3338 0.931 . S
C3323 H3311 0.929 . S
C3323 C3317 1.390 . S
C3323 C3320 1.386 . S
C3324 C3319 1.490 . S
C3324 C3326 1.395 . S
C3324 C3327 1.403 . S
H3325 C3331 0.930 . S
C3326 H3312 0.930 . S
C3326 C3324 1.395 . S
C3326 C3329 1.403 . S
C3327 C3324 1.403 . S
C3327 C3328 1.524 . S
C3327 C3331 1.400 . S
C3328 H3313 0.960 . S
C3328 H3314 0.960 . S
C3328 H3315 0.960 . S
C3328 C3327 1.524 . S
C3329 C3326 1.403 . S
C3329 C3330 1.392 . S
C3329 C3333 1.495 . S
C3330 C3329 1.392 . S
C3330 C3331 1.385 . S
C3330 C3332 1.478 . S
C3331 H3325 0.930 . S
C3331 C3327 1.400 . S
C3331 C3330 1.385 . S
C3332 C3330 1.478 . S
C3332 C3334 1.381 . S
C3332 C3338 1.383 . S
C3333 C3329 1.495 . S
C3333 H3339 0.959 . S
C3333 H3340 0.961 . S
C3333 H3341 0.960 . S
C3334 C3332 1.381 . S
C3334 C3335 1.394 . S
C3334 H3342 0.930 . S
C3335 C3334 1.394 . S
C3335 C3336 1.383 . S
C3335 H3343 0.929 . S
C3336 C3335 1.383 . S
C3336 C3337 1.377 . S
C3337 H3321 0.930 . S
C3337 C3336 1.377 . S
C3337 C3338 1.379 . S
C3338 H3322 0.931 . S
C3338 C3332 1.383 . S
C3338 C3337 1.379 . S
H3339 C3333 0.959 . S
H3340 C3333 0.961 . S
H3341 C3333 0.960 . S
H3342 C3334 0.930 . S
H3343 C3335 0.929 . S
H3344 C3352 0.929 . S
H3345 C3354 0.930 . S
H3346 C3356 0.930 . S
H3347 C3359 0.929 . S
H3348 C3362 0.930 . S
H3349 C3364 0.960 . S
H3350 C3364 0.960 . S
H3351 C3364 0.960 . S
C3352 H3344 0.929 . S
C3352 C3353 1.377 . S
C3352 C3354 1.384 . S
C3353 C3352 1.377 . S
C3353 C3359 1.390 . S
C3354 H3345 0.930 . S
C3354 C3352 1.384 . S
C3354 C3355 1.372 . S
C3355 C3354 1.372 . S
C3355 C3356 1.400 . S
C3355 C3360 1.490 . S
C3356 H3346 0.930 . S
C3356 C3355 1.400 . S
C3356 C3359 1.386 . S
H3357 C3373 0.930 . S
H3358 C3374 0.931 . S
C3359 H3347 0.929 . S
C3359 C3353 1.390 . S
C3359 C3356 1.386 . S
C3360 C3355 1.490 . S
C3360 C3362 1.395 . S
C3360 C3363 1.403 . S
H3361 C3367 0.930 . S
C3362 H3348 0.930 . S
C3362 C3360 1.395 . S
C3362 C3365 1.403 . S
C3363 C3360 1.403 . S
C3363 C3364 1.524 . S
C3363 C3367 1.400 . S
C3364 H3349 0.960 . S
C3364 H3350 0.960 . S
C3364 H3351 0.960 . S
C3364 C3363 1.524 . S
C3365 C3362 1.403 . S
C3365 C3366 1.392 . S
C3365 C3369 1.495 . S
C3366 C3365 1.392 . S
C3366 C3367 1.385 . S
C3366 C3368 1.478 . S
C3367 H3361 0.930 . S
C3367 C3363 1.400 . S
C3367 C3366 1.385 . S
C3368 C3366 1.478 . S
C3368 C3370 1.381 . S
C3368 C3374 1.383 . S
C3369 C3365 1.495 . S
C3369 H3375 0.959 . S
C3369 H3376 0.961 . S
C3369 H3377 0.960 . S
C3370 C3368 1.381 . S
C3370 C3371 1.394 . S
C3370 H3378 0.930 . S
C3371 C3370 1.394 . S
C3371 C3372 1.383 . S
C3371 H3379 0.929 . S
C3372 C3371 1.383 . S
C3372 C3373 1.377 . S
C3373 H3357 0.930 . S
C3373 C3372 1.377 . S
C3373 C3374 1.379 . S
C3374 H3358 0.931 . S
C3374 C3368 1.383 . S
C3374 C3373 1.379 . S
H3375 C3369 0.959 . S
H3376 C3369 0.961 . S
H3377 C3369 0.960 . S
H3378 C3370 0.930 . S
H3379 C3371 0.929 . S
H3380 C3388 0.929 . S
H3381 C3390 0.930 . S
H3382 C3392 0.930 . S
H3383 C3395 0.929 . S
H3384 C3398 0.930 . S
H3385 C3400 0.960 . S
H3386 C3400 0.960 . S
H3387 C3400 0.960 . S
C3388 H3380 0.929 . S
C3388 C3389 1.377 . S
C3388 C3390 1.384 . S
C3389 C3388 1.377 . S
C3389 C3395 1.390 . S
C3390 H3381 0.930 . S
C3390 C3388 1.384 . S
C3390 C3391 1.372 . S
C3391 C3390 1.372 . S
C3391 C3392 1.400 . S
C3391 C3396 1.490 . S
C3392 H3382 0.930 . S
C3392 C3391 1.400 . S
C3392 C3395 1.386 . S
H3393 C3409 0.930 . S
H3394 C3410 0.931 . S
C3395 H3383 0.929 . S
C3395 C3389 1.390 . S
C3395 C3392 1.386 . S
C3396 C3391 1.490 . S
C3396 C3398 1.395 . S
C3396 C3399 1.403 . S
H3397 C3403 0.930 . S
C3398 H3384 0.930 . S
C3398 C3396 1.395 . S
C3398 C3401 1.403 . S
C3399 C3396 1.403 . S
C3399 C3400 1.524 . S
C3399 C3403 1.400 . S
C3400 H3385 0.960 . S
C3400 H3386 0.960 . S
C3400 H3387 0.960 . S
C3400 C3399 1.524 . S
C3401 C3398 1.403 . S
C3401 C3402 1.392 . S
C3401 C3405 1.495 . S
C3402 C3401 1.392 . S
C3402 C3403 1.385 . S
C3402 C3404 1.478 . S
C3403 H3397 0.930 . S
C3403 C3399 1.400 . S
C3403 C3402 1.385 . S
C3404 C3402 1.478 . S
C3404 C3406 1.381 . S
C3404 C3410 1.383 . S
C3405 C3401 1.495 . S
C3405 H3411 0.959 . S
C3405 H3412 0.961 . S
C3405 H3413 0.960 . S
C3406 C3404 1.381 . S
C3406 C3407 1.394 . S
C3406 H3414 0.930 . S
C3407 C3406 1.394 . S
C3407 C3408 1.383 . S
C3407 H3415 0.929 . S
C3408 C3407 1.383 . S
C3408 C3409 1.377 . S
C3409 H3393 0.930 . S
C3409 C3408 1.377 . S
C3409 C3410 1.379 . S
C3410 H3394 0.931 . S
C3410 C3404 1.383 . S
C3410 C3409 1.379 . S
H3411 C3405 0.959 . S
H3412 C3405 0.961 . S
H3413 C3405 0.960 . S
H3414 C3406 0.930 . S
H3415 C3407 0.929 . S
H3416 C3424 0.929 . S
H3417 C3426 0.930 . S
H3418 C3428 0.930 . S
H3419 C3431 0.929 . S
H3420 C3434 0.930 . S
H3421 C3436 0.960 . S
H3422 C3436 0.960 . S
H3423 C3436 0.960 . S
C3424 H3416 0.929 . S
C3424 C3425 1.377 . S
C3424 C3426 1.384 . S
C3425 C3424 1.377 . S
C3425 C3431 1.390 . S
C3426 H3417 0.930 . S
C3426 C3424 1.384 . S
C3426 C3427 1.372 . S
C3427 C3426 1.372 . S
C3427 C3428 1.400 . S
C3427 C3432 1.490 . S
C3428 H3418 0.930 . S
C3428 C3427 1.400 . S
C3428 C3431 1.386 . S
H3429 C3445 0.930 . S
H3430 C3446 0.931 . S
C3431 H3419 0.929 . S
C3431 C3425 1.390 . S
C3431 C3428 1.386 . S
C3432 C3427 1.490 . S
C3432 C3434 1.395 . S
C3432 C3435 1.403 . S
H3433 C3439 0.930 . S
C3434 H3420 0.930 . S
C3434 C3432 1.395 . S
C3434 C3437 1.403 . S
C3435 C3432 1.403 . S
C3435 C3436 1.524 . S
C3435 C3439 1.400 . S
C3436 H3421 0.960 . S
C3436 H3422 0.960 . S
C3436 H3423 0.960 . S
C3436 C3435 1.524 . S
C3437 C3434 1.403 . S
C3437 C3438 1.392 . S
C3437 C3441 1.495 . S
C3438 C3437 1.392 . S
C3438 C3439 1.385 . S
C3438 C3440 1.478 . S
C3439 H3433 0.930 . S
C3439 C3435 1.400 . S
C3439 C3438 1.385 . S
C3440 C3438 1.478 . S
C3440 C3442 1.381 . S
C3440 C3446 1.383 . S
C3441 C3437 1.495 . S
C3441 H3447 0.959 . S
C3441 H3448 0.961 . S
C3441 H3449 0.960 . S
C3442 C3440 1.381 . S
C3442 C3443 1.394 . S
C3442 H3450 0.930 . S
C3443 C3442 1.394 . S
C3443 C3444 1.383 . S
C3443 H3451 0.929 . S
C3444 C3443 1.383 . S
C3444 C3445 1.377 . S
C3445 H3429 0.930 . S
C3445 C3444 1.377 . S
C3445 C3446 1.379 . S
C3446 H3430 0.931 . S
C3446 C3440 1.383 . S
C3446 C3445 1.379 . S
H3447 C3441 0.959 . S
H3448 C3441 0.961 . S
H3449 C3441 0.960 . S
H3450 C3442 0.930 . S
H3451 C3443 0.929 . S
H3452 C3460 0.929 . S
H3453 C3462 0.930 . S
H3454 C3464 0.930 . S
H3455 C3467 0.929 . S
H3456 C3470 0.930 . S
H3457 C3472 0.960 . S
H3458 C3472 0.960 . S
H3459 C3472 0.960 . S
C3460 H3452 0.929 . S
C3460 C3461 1.377 . S
C3460 C3462 1.384 . S
C3461 C3460 1.377 . S
C3461 C3467 1.390 . S
C3462 H3453 0.930 . S
C3462 C3460 1.384 . S
C3462 C3463 1.372 . S
C3463 C3462 1.372 . S
C3463 C3464 1.400 . S
C3463 C3468 1.490 . S
C3464 H3454 0.930 . S
C3464 C3463 1.400 . S
C3464 C3467 1.386 . S
H3465 C3481 0.930 . S
H3466 C3482 0.931 . S
C3467 H3455 0.929 . S
C3467 C3461 1.390 . S
C3467 C3464 1.386 . S
C3468 C3463 1.490 . S
C3468 C3470 1.395 . S
C3468 C3471 1.403 . S
H3469 C3475 0.930 . S
C3470 H3456 0.930 . S
C3470 C3468 1.395 . S
C3470 C3473 1.403 . S
C3471 C3468 1.403 . S
C3471 C3472 1.524 . S
C3471 C3475 1.400 . S
C3472 H3457 0.960 . S
C3472 H3458 0.960 . S
C3472 H3459 0.960 . S
C3472 C3471 1.524 . S
C3473 C3470 1.403 . S
C3473 C3474 1.392 . S
C3473 C3477 1.495 . S
C3474 C3473 1.392 . S
C3474 C3475 1.385 . S
C3474 C3476 1.478 . S
C3475 H3469 0.930 . S
C3475 C3471 1.400 . S
C3475 C3474 1.385 . S
C3476 C3474 1.478 . S
C3476 C3478 1.381 . S
C3476 C3482 1.383 . S
C3477 C3473 1.495 . S
C3477 H3483 0.959 . S
C3477 H3484 0.961 . S
C3477 H3485 0.960 . S
C3478 C3476 1.381 . S
C3478 C3479 1.394 . S
C3478 H3486 0.930 . S
C3479 C3478 1.394 . S
C3479 C3480 1.383 . S
C3479 H3487 0.929 . S
C3480 C3479 1.383 . S
C3480 C3481 1.377 . S
C3481 H3465 0.930 . S
C3481 C3480 1.377 . S
C3481 C3482 1.379 . S
C3482 H3466 0.931 . S
C3482 C3476 1.383 . S
C3482 C3481 1.379 . S
H3483 C3477 0.959 . S
H3484 C3477 0.961 . S
H3485 C3477 0.960 . S
H3486 C3478 0.930 . S
H3487 C3479 0.929 . S
H3488 C3496 0.929 . S
H3489 C3498 0.930 . S
H3490 C3500 0.930 . S
H3491 C3503 0.929 . S
H3492 C3506 0.930 . S
H3493 C3508 0.960 . S
H3494 C3508 0.960 . S
H3495 C3508 0.960 . S
C3496 H3488 0.929 . S
C3496 C3497 1.377 . S
C3496 C3498 1.384 . S
C3497 C3496 1.377 . S
C3497 C3503 1.390 . S
C3498 H3489 0.930 . S
C3498 C3496 1.384 . S
C3498 C3499 1.372 . S
C3499 C3498 1.372 . S
C3499 C3500 1.400 . S
C3499 C3504 1.490 . S
C3500 H3490 0.930 . S
C3500 C3499 1.400 . S
C3500 C3503 1.386 . S
H3501 C3517 0.930 . S
H3502 C3518 0.931 . S
C3503 H3491 0.929 . S
C3503 C3497 1.390 . S
C3503 C3500 1.386 . S
C3504 C3499 1.490 . S
C3504 C3506 1.395 . S
C3504 C3507 1.403 . S
H3505 C3511 0.930 . S
C3506 H3492 0.930 . S
C3506 C3504 1.395 . S
C3506 C3509 1.403 . S
C3507 C3504 1.403 . S
C3507 C3508 1.524 . S
C3507 C3511 1.400 . S
C3508 H3493 0.960 . S
C3508 H3494 0.960 . S
C3508 H3495 0.960 . S
C3508 C3507 1.524 . S
C3509 C3506 1.403 . S
C3509 C3510 1.392 . S
C3509 C3513 1.495 . S
C3510 C3509 1.392 . S
C3510 C3511 1.385 . S
C3510 C3512 1.478 . S
C3511 H3505 0.930 . S
C3511 C3507 1.400 . S
C3511 C3510 1.385 . S
C3512 C3510 1.478 . S
C3512 C3514 1.381 . S
C3512 C3518 1.383 . S
C3513 C3509 1.495 . S
C3513 H3519 0.959 . S
C3513 H3520 0.961 . S
C3513 H3521 0.960 . S
C3514 C3512 1.381 . S
C3514 C3515 1.394 . S
C3514 H3522 0.930 . S
C3515 C3514 1.394 . S
C3515 C3516 1.383 . S
C3515 H3523 0.929 . S
C3516 C3515 1.383 . S
C3516 C3517 1.377 . S
C3517 H3501 0.930 . S
C3517 C3516 1.377 . S
C3517 C3518 1.379 . S
C3518 H3502 0.931 . S
C3518 C3512 1.383 . S
C3518 C3517 1.379 . S
H3519 C3513 0.959 . S
H3520 C3513 0.961 . S
H3521 C3513 0.960 . S
H3522 C3514 0.930 . S
H3523 C3515 0.929 . S
H3524 C3532 0.929 . S
H3525 C3534 0.930 . S
H3526 C3536 0.930 . S
H3527 C3539 0.929 . S
H3528 C3542 0.930 . S
H3529 C3544 0.960 . S
H3530 C3544 0.960 . S
H3531 C3544 0.960 . S
C3532 H3524 0.929 . S
C3532 C3533 1.377 . S
C3532 C3534 1.384 . S
C3533 C3532 1.377 . S
C3533 C3539 1.390 . S
C3534 H3525 0.930 . S
C3534 C3532 1.384 . S
C3534 C3535 1.372 . S
C3535 C3534 1.372 . S
C3535 C3536 1.400 . S
C3535 C3540 1.490 . S
C3536 H3526 0.930 . S
C3536 C3535 1.400 . S
C3536 C3539 1.386 . S
H3537 C3553 0.930 . S
H3538 C3554 0.931 . S
C3539 H3527 0.929 . S
C3539 C3533 1.390 . S
C3539 C3536 1.386 . S
C3540 C3535 1.490 . S
C3540 C3542 1.395 . S
C3540 C3543 1.403 . S
H3541 C3547 0.930 . S
C3542 H3528 0.930 . S
C3542 C3540 1.395 . S
C3542 C3545 1.403 . S
C3543 C3540 1.403 . S
C3543 C3544 1.524 . S
C3543 C3547 1.400 . S
C3544 H3529 0.960 . S
C3544 H3530 0.960 . S
C3544 H3531 0.960 . S
C3544 C3543 1.524 . S
C3545 C3542 1.403 . S
C3545 C3546 1.392 . S
C3545 C3549 1.495 . S
C3546 C3545 1.392 . S
C3546 C3547 1.385 . S
C3546 C3548 1.478 . S
C3547 H3541 0.930 . S
C3547 C3543 1.400 . S
C3547 C3546 1.385 . S
C3548 C3546 1.478 . S
C3548 C3550 1.381 . S
C3548 C3554 1.383 . S
C3549 C3545 1.495 . S
C3549 H3555 0.959 . S
C3549 H3556 0.961 . S
C3549 H3557 0.960 . S
C3550 C3548 1.381 . S
C3550 C3551 1.394 . S
C3550 H3558 0.930 . S
C3551 C3550 1.394 . S
C3551 C3552 1.383 . S
C3551 H3559 0.929 . S
C3552 C3551 1.383 . S
C3552 C3553 1.377 . S
C3553 H3537 0.930 . S
C3553 C3552 1.377 . S
C3553 C3554 1.379 . S
C3554 H3538 0.931 . S
C3554 C3548 1.383 . S
C3554 C3553 1.379 . S
H3555 C3549 0.959 . S
H3556 C3549 0.961 . S
H3557 C3549 0.960 . S
H3558 C3550 0.930 . S
H3559 C3551 0.929 . S
H3560 C3568 0.929 . S
H3561 C3570 0.930 . S
H3562 C3572 0.930 . S
H3563 C3575 0.929 . S
H3564 C3578 0.930 . S
H3565 C3580 0.960 . S
H3566 C3580 0.960 . S
H3567 C3580 0.960 . S
C3568 H3560 0.929 . S
C3568 C3569 1.377 . S
C3568 C3570 1.384 . S
C3569 C3568 1.377 . S
C3569 C3575 1.390 . S
C3570 H3561 0.930 . S
C3570 C3568 1.384 . S
C3570 C3571 1.372 . S
C3571 C3570 1.372 . S
C3571 C3572 1.400 . S
C3571 C3576 1.490 . S
C3572 H3562 0.930 . S
C3572 C3571 1.400 . S
C3572 C3575 1.386 . S
H3573 C3589 0.930 . S
H3574 C3590 0.931 . S
C3575 H3563 0.929 . S
C3575 C3569 1.390 . S
C3575 C3572 1.386 . S
C3576 C3571 1.490 . S
C3576 C3578 1.395 . S
C3576 C3579 1.403 . S
H3577 C3583 0.930 . S
C3578 H3564 0.930 . S
C3578 C3576 1.395 . S
C3578 C3581 1.403 . S
C3579 C3576 1.403 . S
C3579 C3580 1.524 . S
C3579 C3583 1.400 . S
C3580 H3565 0.960 . S
C3580 H3566 0.960 . S
C3580 H3567 0.960 . S
C3580 C3579 1.524 . S
C3581 C3578 1.403 . S
C3581 C3582 1.392 . S
C3581 C3585 1.495 . S
C3582 C3581 1.392 . S
C3582 C3583 1.385 . S
C3582 C3584 1.478 . S
C3583 H3577 0.930 . S
C3583 C3579 1.400 . S
C3583 C3582 1.385 . S
C3584 C3582 1.478 . S
C3584 C3586 1.381 . S
C3584 C3590 1.383 . S
C3585 C3581 1.495 . S
C3585 H3591 0.959 . S
C3585 H3592 0.961 . S
C3585 H3593 0.960 . S
C3586 C3584 1.381 . S
C3586 C3587 1.394 . S
C3586 H3594 0.930 . S
C3587 C3586 1.394 . S
C3587 C3588 1.383 . S
C3587 H3595 0.929 . S
C3588 C3587 1.383 . S
C3588 C3589 1.377 . S
C3589 H3573 0.930 . S
C3589 C3588 1.377 . S
C3589 C3590 1.379 . S
C3590 H3574 0.931 . S
C3590 C3584 1.383 . S
C3590 C3589 1.379 . S
H3591 C3585 0.959 . S
H3592 C3585 0.961 . S
H3593 C3585 0.960 . S
H3594 C3586 0.930 . S
H3595 C3587 0.929 . S
H3596 C3604 0.929 . S
H3597 C3606 0.930 . S
H3598 C3608 0.930 . S
H3599 C3611 0.929 . S
H3600 C3614 0.930 . S
H3601 C3616 0.960 . S
H3602 C3616 0.960 . S
H3603 C3616 0.960 . S
C3604 H3596 0.929 . S
C3604 C3605 1.377 . S
C3604 C3606 1.384 . S
C3605 C3604 1.377 . S
C3605 C3611 1.390 . S
C3606 H3597 0.930 . S
C3606 C3604 1.384 . S
C3606 C3607 1.372 . S
C3607 C3606 1.372 . S
C3607 C3608 1.400 . S
C3607 C3612 1.490 . S
C3608 H3598 0.930 . S
C3608 C3607 1.400 . S
C3608 C3611 1.386 . S
H3609 C3625 0.930 . S
H3610 C3626 0.931 . S
C3611 H3599 0.929 . S
C3611 C3605 1.390 . S
C3611 C3608 1.386 . S
C3612 C3607 1.490 . S
C3612 C3614 1.395 . S
C3612 C3615 1.403 . S
H3613 C3619 0.930 . S
C3614 H3600 0.930 . S
C3614 C3612 1.395 . S
C3614 C3617 1.403 . S
C3615 C3612 1.403 . S
C3615 C3616 1.524 . S
C3615 C3619 1.400 . S
C3616 H3601 0.960 . S
C3616 H3602 0.960 . S
C3616 H3603 0.960 . S
C3616 C3615 1.524 . S
C3617 C3614 1.403 . S
C3617 C3618 1.392 . S
C3617 C3621 1.495 . S
C3618 C3617 1.392 . S
C3618 C3619 1.385 . S
C3618 C3620 1.478 . S
C3619 H3613 0.930 . S
C3619 C3615 1.400 . S
C3619 C3618 1.385 . S
C3620 C3618 1.478 . S
C3620 C3622 1.381 . S
C3620 C3626 1.383 . S
C3621 C3617 1.495 . S
C3621 H3627 0.959 . S
C3621 H3628 0.961 . S
C3621 H3629 0.960 . S
C3622 C3620 1.381 . S
C3622 C3623 1.394 . S
C3622 H3630 0.930 . S
C3623 C3622 1.394 . S
C3623 C3624 1.383 . S
C3623 H3631 0.929 . S
C3624 C3623 1.383 . S
C3624 C3625 1.377 . S
C3625 H3609 0.930 . S
C3625 C3624 1.377 . S
C3625 C3626 1.379 . S
C3626 H3610 0.931 . S
C3626 C3620 1.383 . S
C3626 C3625 1.379 . S
H3627 C3621 0.959 . S
H3628 C3621 0.961 . S
H3629 C3621 0.960 . S
H3630 C3622 0.930 . S
H3631 C3623 0.929 . S
H3632 C3640 0.929 . S
H3633 C3642 0.930 . S
H3634 C3644 0.930 . S
H3635 C3647 0.929 . S
H3636 C3650 0.930 . S
H3637 C3652 0.960 . S
H3638 C3652 0.960 . S
H3639 C3652 0.960 . S
C3640 H3632 0.929 . S
C3640 C3641 1.377 . S
C3640 C3642 1.384 . S
C3641 C3640 1.377 . S
C3641 C3647 1.390 . S
C3642 H3633 0.930 . S
C3642 C3640 1.384 . S
C3642 C3643 1.372 . S
C3643 C3642 1.372 . S
C3643 C3644 1.400 . S
C3643 C3648 1.490 . S
C3644 H3634 0.930 . S
C3644 C3643 1.400 . S
C3644 C3647 1.386 . S
H3645 C3661 0.930 . S
H3646 C3662 0.931 . S
C3647 H3635 0.929 . S
C3647 C3641 1.390 . S
C3647 C3644 1.386 . S
C3648 C3643 1.490 . S
C3648 C3650 1.395 . S
C3648 C3651 1.403 . S
H3649 C3655 0.930 . S
C3650 H3636 0.930 . S
C3650 C3648 1.395 . S
C3650 C3653 1.403 . S
C3651 C3648 1.403 . S
C3651 C3652 1.524 . S
C3651 C3655 1.400 . S
C3652 H3637 0.960 . S
C3652 H3638 0.960 . S
C3652 H3639 0.960 . S
C3652 C3651 1.524 . S
C3653 C3650 1.403 . S
C3653 C3654 1.392 . S
C3653 C3657 1.495 . S
C3654 C3653 1.392 . S
C3654 C3655 1.385 . S
C3654 C3656 1.478 . S
C3655 H3649 0.930 . S
C3655 C3651 1.400 . S
C3655 C3654 1.385 . S
C3656 C3654 1.478 . S
C3656 C3658 1.381 . S
C3656 C3662 1.383 . S
C3657 C3653 1.495 . S
C3657 H3663 0.959 . S
C3657 H3664 0.961 . S
C3657 H3665 0.960 . S
C3658 C3656 1.381 . S
C3658 C3659 1.394 . S
C3658 H3666 0.930 . S
C3659 C3658 1.394 . S
C3659 C3660 1.383 . S
C3659 H3667 0.929 . S
C3660 C3659 1.383 . S
C3660 C3661 1.377 . S
C3661 H3645 0.930 . S
C3661 C3660 1.377 . S
C3661 C3662 1.379 . S
C3662 H3646 0.931 . S
C3662 C3656 1.383 . S
C3662 C3661 1.379 . S
H3663 C3657 0.959 . S
H3664 C3657 0.961 . S
H3665 C3657 0.960 . S
H3666 C3658 0.930 . S
H3667 C3659 0.929 . S
H3668 C3676 0.929 . S
H3669 C3678 0.930 . S
H3670 C3680 0.930 . S
H3671 C3683 0.929 . S
H3672 C3686 0.930 . S
H3673 C3688 0.960 . S
H3674 C3688 0.960 . S
H3675 C3688 0.960 . S
C3676 H3668 0.929 . S
C3676 C3677 1.377 . S
C3676 C3678 1.384 . S
C3677 C3676 1.377 . S
C3677 C3683 1.390 . S
C3678 H3669 0.930 . S
C3678 C3676 1.384 . S
C3678 C3679 1.372 . S
C3679 C3678 1.372 . S
C3679 C3680 1.400 . S
C3679 C3684 1.490 . S
C3680 H3670 0.930 . S
C3680 C3679 1.400 . S
C3680 C3683 1.386 . S
H3681 C3697 0.930 . S
H3682 C3698 0.931 . S
C3683 H3671 0.929 . S
C3683 C3677 1.390 . S
C3683 C3680 1.386 . S
C3684 C3679 1.490 . S
C3684 C3686 1.395 . S
C3684 C3687 1.403 . S
H3685 C3691 0.930 . S
C3686 H3672 0.930 . S
C3686 C3684 1.395 . S
C3686 C3689 1.403 . S
C3687 C3684 1.403 . S
C3687 C3688 1.524 . S
C3687 C3691 1.400 . S
C3688 H3673 0.960 . S
C3688 H3674 0.960 . S
C3688 H3675 0.960 . S
C3688 C3687 1.524 . S
C3689 C3686 1.403 . S
C3689 C3690 1.392 . S
C3689 C3693 1.495 . S
C3690 C3689 1.392 . S
C3690 C3691 1.385 . S
C3690 C3692 1.478 . S
C3691 H3685 0.930 . S
C3691 C3687 1.400 . S
C3691 C3690 1.385 . S
C3692 C3690 1.478 . S
C3692 C3694 1.381 . S
C3692 C3698 1.383 . S
C3693 C3689 1.495 . S
C3693 H3699 0.959 . S
C3693 H3700 0.961 . S
C3693 H3701 0.960 . S
C3694 C3692 1.381 . S
C3694 C3695 1.394 . S
C3694 H3702 0.930 . S
C3695 C3694 1.394 . S
C3695 C3696 1.383 . S
C3695 H3703 0.929 . S
C3696 C3695 1.383 . S
C3696 C3697 1.377 . S
C3697 H3681 0.930 . S
C3697 C3696 1.377 . S
C3697 C3698 1.379 . S
C3698 H3682 0.931 . S
C3698 C3692 1.383 . S
C3698 C3697 1.379 . S
H3699 C3693 0.959 . S
H3700 C3693 0.961 . S
H3701 C3693 0.960 . S
H3702 C3694 0.930 . S
H3703 C3695 0.929 . S
H3704 C3712 0.929 . S
H3705 C3714 0.930 . S
H3706 C3716 0.930 . S
H3707 C3719 0.929 . S
H3708 C3722 0.930 . S
H3709 C3724 0.960 . S
H3710 C3724 0.960 . S
H3711 C3724 0.960 . S
C3712 H3704 0.929 . S
C3712 C3713 1.377 . S
C3712 C3714 1.384 . S
C3713 C3712 1.377 . S
C3713 C3719 1.390 . S
C3714 H3705 0.930 . S
C3714 C3712 1.384 . S
C3714 C3715 1.372 . S
C3715 C3714 1.372 . S
C3715 C3716 1.400 . S
C3715 C3720 1.490 . S
C3716 H3706 0.930 . S
C3716 C3715 1.400 . S
C3716 C3719 1.386 . S
H3717 C3733 0.930 . S
H3718 C3734 0.931 . S
C3719 H3707 0.929 . S
C3719 C3713 1.390 . S
C3719 C3716 1.386 . S
C3720 C3715 1.490 . S
C3720 C3722 1.395 . S
C3720 C3723 1.403 . S
H3721 C3727 0.930 . S
C3722 H3708 0.930 . S
C3722 C3720 1.395 . S
C3722 C3725 1.403 . S
C3723 C3720 1.403 . S
C3723 C3724 1.524 . S
C3723 C3727 1.400 . S
C3724 H3709 0.960 . S
C3724 H3710 0.960 . S
C3724 H3711 0.960 . S
C3724 C3723 1.524 . S
C3725 C3722 1.403 . S
C3725 C3726 1.392 . S
C3725 C3729 1.495 . S
C3726 C3725 1.392 . S
C3726 C3727 1.385 . S
C3726 C3728 1.478 . S
C3727 H3721 0.930 . S
C3727 C3723 1.400 . S
C3727 C3726 1.385 . S
C3728 C3726 1.478 . S
C3728 C3730 1.381 . S
C3728 C3734 1.383 . S
C3729 C3725 1.495 . S
C3729 H3735 0.959 . S
C3729 H3736 0.961 . S
C3729 H3737 0.960 . S
C3730 C3728 1.381 . S
C3730 C3731 1.394 . S
C3730 H3738 0.930 . S
C3731 C3730 1.394 . S
C3731 C3732 1.383 . S
C3731 H3739 0.929 . S
C3732 C3731 1.383 . S
C3732 C3733 1.377 . S
C3733 H3717 0.930 . S
C3733 C3732 1.377 . S
C3733 C3734 1.379 . S
C3734 H3718 0.931 . S
C3734 C3728 1.383 . S
C3734 C3733 1.379 . S
H3735 C3729 0.959 . S
H3736 C3729 0.961 . S
H3737 C3729 0.960 . S
H3738 C3730 0.930 . S
H3739 C3731 0.929 . S
H3740 C3748 0.929 . S
H3741 C3750 0.930 . S
H3742 C3752 0.930 . S
H3743 C3755 0.929 . S
H3744 C3758 0.930 . S
H3745 C3760 0.960 . S
H3746 C3760 0.960 . S
H3747 C3760 0.960 . S
C3748 H3740 0.929 . S
C3748 C3749 1.377 . S
C3748 C3750 1.384 . S
C3749 C3748 1.377 . S
C3749 C3755 1.390 . S
C3750 H3741 0.930 . S
C3750 C3748 1.384 . S
C3750 C3751 1.372 . S
C3751 C3750 1.372 . S
C3751 C3752 1.400 . S
C3751 C3756 1.490 . S
C3752 H3742 0.930 . S
C3752 C3751 1.400 . S
C3752 C3755 1.386 . S
H3753 C3769 0.930 . S
H3754 C3770 0.931 . S
C3755 H3743 0.929 . S
C3755 C3749 1.390 . S
C3755 C3752 1.386 . S
C3756 C3751 1.490 . S
C3756 C3758 1.395 . S
C3756 C3759 1.403 . S
H3757 C3763 0.930 . S
C3758 H3744 0.930 . S
C3758 C3756 1.395 . S
C3758 C3761 1.403 . S
C3759 C3756 1.403 . S
C3759 C3760 1.524 . S
C3759 C3763 1.400 . S
C3760 H3745 0.960 . S
C3760 H3746 0.960 . S
C3760 H3747 0.960 . S
C3760 C3759 1.524 . S
C3761 C3758 1.403 . S
C3761 C3762 1.392 . S
C3761 C3765 1.495 . S
C3762 C3761 1.392 . S
C3762 C3763 1.385 . S
C3762 C3764 1.478 . S
C3763 H3757 0.930 . S
C3763 C3759 1.400 . S
C3763 C3762 1.385 . S
C3764 C3762 1.478 . S
C3764 C3766 1.381 . S
C3764 C3770 1.383 . S
C3765 C3761 1.495 . S
C3765 H3771 0.959 . S
C3765 H3772 0.961 . S
C3765 H3773 0.960 . S
C3766 C3764 1.381 . S
C3766 C3767 1.394 . S
C3766 H3774 0.930 . S
C3767 C3766 1.394 . S
C3767 C3768 1.383 . S
C3767 H3775 0.929 . S
C3768 C3767 1.383 . S
C3768 C3769 1.377 . S
C3769 H3753 0.930 . S
C3769 C3768 1.377 . S
C3769 C3770 1.379 . S
C3770 H3754 0.931 . S
C3770 C3764 1.383 . S
C3770 C3769 1.379 . S
H3771 C3765 0.959 . S
H3772 C3765 0.961 . S
H3773 C3765 0.960 . S
H3774 C3766 0.930 . S
H3775 C3767 0.929 . S
H3776 C3784 0.929 . S
H3777 C3786 0.930 . S
H3778 C3788 0.930 . S
H3779 C3791 0.929 . S
H3780 C3794 0.930 . S
H3781 C3796 0.960 . S
H3782 C3796 0.960 . S
H3783 C3796 0.960 . S
C3784 H3776 0.929 . S
C3784 C3785 1.377 . S
C3784 C3786 1.384 . S
C3785 C3784 1.377 . S
C3785 C3791 1.390 . S
C3786 H3777 0.930 . S
C3786 C3784 1.384 . S
C3786 C3787 1.372 . S
C3787 C3786 1.372 . S
C3787 C3788 1.400 . S
C3787 C3792 1.490 . S
C3788 H3778 0.930 . S
C3788 C3787 1.400 . S
C3788 C3791 1.386 . S
H3789 C3805 0.930 . S
H3790 C3806 0.931 . S
C3791 H3779 0.929 . S
C3791 C3785 1.390 . S
C3791 C3788 1.386 . S
C3792 C3787 1.490 . S
C3792 C3794 1.395 . S
C3792 C3795 1.403 . S
H3793 C3799 0.930 . S
C3794 H3780 0.930 . S
C3794 C3792 1.395 . S
C3794 C3797 1.403 . S
C3795 C3792 1.403 . S
C3795 C3796 1.524 . S
C3795 C3799 1.400 . S
C3796 H3781 0.960 . S
C3796 H3782 0.960 . S
C3796 H3783 0.960 . S
C3796 C3795 1.524 . S
C3797 C3794 1.403 . S
C3797 C3798 1.392 . S
C3797 C3801 1.495 . S
C3798 C3797 1.392 . S
C3798 C3799 1.385 . S
C3798 C3800 1.478 . S
C3799 H3793 0.930 . S
C3799 C3795 1.400 . S
C3799 C3798 1.385 . S
C3800 C3798 1.478 . S
C3800 C3802 1.381 . S
C3800 C3806 1.383 . S
C3801 C3797 1.495 . S
C3801 H3807 0.959 . S
C3801 H3808 0.961 . S
C3801 H3809 0.960 . S
C3802 C3800 1.381 . S
C3802 C3803 1.394 . S
C3802 H3810 0.930 . S
C3803 C3802 1.394 . S
C3803 C3804 1.383 . S
C3803 H3811 0.929 . S
C3804 C3803 1.383 . S
C3804 C3805 1.377 . S
C3805 H3789 0.930 . S
C3805 C3804 1.377 . S
C3805 C3806 1.379 . S
C3806 H3790 0.931 . S
C3806 C3800 1.383 . S
C3806 C3805 1.379 . S
H3807 C3801 0.959 . S
H3808 C3801 0.961 . S
H3809 C3801 0.960 . S
H3810 C3802 0.930 . S
H3811 C3803 0.929 . S
H3812 C3820 0.929 . S
H3813 C3822 0.930 . S
H3814 C3824 0.930 . S
H3815 C3827 0.929 . S
H3816 C3830 0.930 . S
H3817 C3832 0.960 . S
H3818 C3832 0.960 . S
H3819 C3832 0.960 . S
C3820 H3812 0.929 . S
C3820 C3821 1.377 . S
C3820 C3822 1.384 . S
C3821 C3820 1.377 . S
C3821 C3827 1.390 . S
C3822 H3813 0.930 . S
C3822 C3820 1.384 . S
C3822 C3823 1.372 . S
C3823 C3822 1.372 . S
C3823 C3824 1.400 . S
C3823 C3828 1.490 . S
C3824 H3814 0.930 . S
C3824 C3823 1.400 . S
C3824 C3827 1.386 . S
H3825 C3841 0.930 . S
H3826 C3842 0.931 . S
C3827 H3815 0.929 . S
C3827 C3821 1.390 . S
C3827 C3824 1.386 . S
C3828 C3823 1.490 . S
C3828 C3830 1.395 . S
C3828 C3831 1.403 . S
H3829 C3835 0.930 . S
C3830 H3816 0.930 . S
C3830 C3828 1.395 . S
C3830 C3833 1.403 . S
C3831 C3828 1.403 . S
C3831 C3832 1.524 . S
C3831 C3835 1.400 . S
C3832 H3817 0.960 . S
C3832 H3818 0.960 . S
C3832 H3819 0.960 . S
C3832 C3831 1.524 . S
C3833 C3830 1.403 . S
C3833 C3834 1.392 . S
C3833 C3837 1.495 . S
C3834 C3833 1.392 . S
C3834 C3835 1.385 . S
C3834 C3836 1.478 . S
C3835 H3829 0.930 . S
C3835 C3831 1.400 . S
C3835 C3834 1.385 . S
C3836 C3834 1.478 . S
C3836 C3838 1.381 . S
C3836 C3842 1.383 . S
C3837 C3833 1.495 . S
C3837 H3843 0.959 . S
C3837 H3844 0.961 . S
C3837 H3845 0.960 . S
C3838 C3836 1.381 . S
C3838 C3839 1.394 . S
C3838 H3846 0.930 . S
C3839 C3838 1.394 . S
C3839 C3840 1.383 . S
C3839 H3847 0.929 . S
C3840 C3839 1.383 . S
C3840 C3841 1.377 . S
C3841 H3825 0.930 . S
C3841 C3840 1.377 . S
C3841 C3842 1.379 . S
C3842 H3826 0.931 . S
C3842 C3836 1.383 . S
C3842 C3841 1.379 . S
H3843 C3837 0.959 . S
H3844 C3837 0.961 . S
H3845 C3837 0.960 . S
H3846 C3838 0.930 . S
H3847 C3839 0.929 . S
H3848 C3856 0.929 . S
H3849 C3858 0.930 . S
H3850 C3860 0.930 . S
H3851 C3863 0.929 . S
H3852 C3866 0.930 . S
H3853 C3868 0.960 . S
H3854 C3868 0.960 . S
H3855 C3868 0.960 . S
C3856 H3848 0.929 . S
C3856 C3857 1.377 . S
C3856 C3858 1.384 . S
C3857 C3856 1.377 . S
C3857 C3863 1.390 . S
C3858 H3849 0.930 . S
C3858 C3856 1.384 . S
C3858 C3859 1.372 . S
C3859 C3858 1.372 . S
C3859 C3860 1.400 . S
C3859 C3864 1.490 . S
C3860 H3850 0.930 . S
C3860 C3859 1.400 . S
C3860 C3863 1.386 . S
H3861 C3877 0.930 . S
H3862 C3878 0.931 . S
C3863 H3851 0.929 . S
C3863 C3857 1.390 . S
C3863 C3860 1.386 . S
C3864 C3859 1.490 . S
C3864 C3866 1.395 . S
C3864 C3867 1.403 . S
H3865 C3871 0.930 . S
C3866 H3852 0.930 . S
C3866 C3864 1.395 . S
C3866 C3869 1.403 . S
C3867 C3864 1.403 . S
C3867 C3868 1.524 . S
C3867 C3871 1.400 . S
C3868 H3853 0.960 . S
C3868 H3854 0.960 . S
C3868 H3855 0.960 . S
C3868 C3867 1.524 . S
C3869 C3866 1.403 . S
C3869 C3870 1.392 . S
C3869 C3873 1.495 . S
C3870 C3869 1.392 . S
C3870 C3871 1.385 . S
C3870 C3872 1.478 . S
C3871 H3865 0.930 . S
C3871 C3867 1.400 . S
C3871 C3870 1.385 . S
C3872 C3870 1.478 . S
C3872 C3874 1.381 . S
C3872 C3878 1.383 . S
C3873 C3869 1.495 . S
C3873 H3879 0.959 . S
C3873 H3880 0.961 . S
C3873 H3881 0.960 . S
C3874 C3872 1.381 . S
C3874 C3875 1.394 . S
C3874 H3882 0.930 . S
C3875 C3874 1.394 . S
C3875 C3876 1.383 . S
C3875 H3883 0.929 . S
C3876 C3875 1.383 . S
C3876 C3877 1.377 . S
C3877 H3861 0.930 . S
C3877 C3876 1.377 . S
C3877 C3878 1.379 . S
C3878 H3862 0.931 . S
C3878 C3872 1.383 . S
C3878 C3877 1.379 . S
H3879 C3873 0.959 . S
H3880 C3873 0.961 . S
H3881 C3873 0.960 . S
H3882 C3874 0.930 . S
H3883 C3875 0.929 . S
H3884 C3892 0.929 . S
H3885 C3894 0.930 . S
H3886 C3896 0.930 . S
H3887 C3899 0.929 . S
H3888 C3902 0.930 . S
H3889 C3904 0.960 . S
H3890 C3904 0.960 . S
H3891 C3904 0.960 . S
C3892 H3884 0.929 . S
C3892 C3893 1.377 . S
C3892 C3894 1.384 . S
C3893 C3892 1.377 . S
C3893 C3899 1.390 . S
C3894 H3885 0.930 . S
C3894 C3892 1.384 . S
C3894 C3895 1.372 . S
C3895 C3894 1.372 . S
C3895 C3896 1.400 . S
C3895 C3900 1.490 . S
C3896 H3886 0.930 . S
C3896 C3895 1.400 . S
C3896 C3899 1.386 . S
H3897 C3913 0.930 . S
H3898 C3914 0.931 . S
C3899 H3887 0.929 . S
C3899 C3893 1.390 . S
C3899 C3896 1.386 . S
C3900 C3895 1.490 . S
C3900 C3902 1.395 . S
C3900 C3903 1.403 . S
H3901 C3907 0.930 . S
C3902 H3888 0.930 . S
C3902 C3900 1.395 . S
C3902 C3905 1.403 . S
C3903 C3900 1.403 . S
C3903 C3904 1.524 . S
C3903 C3907 1.400 . S
C3904 H3889 0.960 . S
C3904 H3890 0.960 . S
C3904 H3891 0.960 . S
C3904 C3903 1.524 . S
C3905 C3902 1.403 . S
C3905 C3906 1.392 . S
C3905 C3909 1.495 . S
C3906 C3905 1.392 . S
C3906 C3907 1.385 . S
C3906 C3908 1.478 . S
C3907 H3901 0.930 . S
C3907 C3903 1.400 . S
C3907 C3906 1.385 . S
C3908 C3906 1.478 . S
C3908 C3910 1.381 . S
C3908 C3914 1.383 . S
C3909 C3905 1.495 . S
C3909 H3915 0.959 . S
C3909 H3916 0.961 . S
C3909 H3917 0.960 . S
C3910 C3908 1.381 . S
C3910 C3911 1.394 . S
C3910 H3918 0.930 . S
C3911 C3910 1.394 . S
C3911 C3912 1.383 . S
C3911 H3919 0.929 . S
C3912 C3911 1.383 . S
C3912 C3913 1.377 . S
C3913 H3897 0.930 . S
C3913 C3912 1.377 . S
C3913 C3914 1.379 . S
C3914 H3898 0.931 . S
C3914 C3908 1.383 . S
C3914 C3913 1.379 . S
H3915 C3909 0.959 . S
H3916 C3909 0.961 . S
H3917 C3909 0.960 . S
H3918 C3910 0.930 . S
H3919 C3911 0.929 . S
H3920 C3928 0.929 . S
H3921 C3930 0.930 . S
H3922 C3932 0.930 . S
H3923 C3935 0.929 . S
H3924 C3938 0.930 . S
H3925 C3940 0.960 . S
H3926 C3940 0.960 . S
H3927 C3940 0.960 . S
C3928 H3920 0.929 . S
C3928 C3929 1.377 . S
C3928 C3930 1.384 . S
C3929 C3928 1.377 . S
C3929 C3935 1.390 . S
C3930 H3921 0.930 . S
C3930 C3928 1.384 . S
C3930 C3931 1.372 . S
C3931 C3930 1.372 . S
C3931 C3932 1.400 . S
C3931 C3936 1.490 . S
C3932 H3922 0.930 . S
C3932 C3931 1.400 . S
C3932 C3935 1.386 . S
H3933 C3949 0.930 . S
H3934 C3950 0.931 . S
C3935 H3923 0.929 . S
C3935 C3929 1.390 . S
C3935 C3932 1.386 . S
C3936 C3931 1.490 . S
C3936 C3938 1.395 . S
C3936 C3939 1.403 . S
H3937 C3943 0.930 . S
C3938 H3924 0.930 . S
C3938 C3936 1.395 . S
C3938 C3941 1.403 . S
C3939 C3936 1.403 . S
C3939 C3940 1.524 . S
C3939 C3943 1.400 . S
C3940 H3925 0.960 . S
C3940 H3926 0.960 . S
C3940 H3927 0.960 . S
C3940 C3939 1.524 . S
C3941 C3938 1.403 . S
C3941 C3942 1.392 . S
C3941 C3945 1.495 . S
C3942 C3941 1.392 . S
C3942 C3943 1.385 . S
C3942 C3944 1.478 . S
C3943 H3937 0.930 . S
C3943 C3939 1.400 . S
C3943 C3942 1.385 . S
C3944 C3942 1.478 . S
C3944 C3946 1.381 . S
C3944 C3950 1.383 . S
C3945 C3941 1.495 . S
C3945 H3951 0.959 . S
C3945 H3952 0.961 . S
C3945 H3953 0.960 . S
C3946 C3944 1.381 . S
C3946 C3947 1.394 . S
C3946 H3954 0.930 . S
C3947 C3946 1.394 . S
C3947 C3948 1.383 . S
C3947 H3955 0.929 . S
C3948 C3947 1.383 . S
C3948 C3949 1.377 . S
C3949 H3933 0.930 . S
C3949 C3948 1.377 . S
C3949 C3950 1.379 . S
C3950 H3934 0.931 . S
C3950 C3944 1.383 . S
C3950 C3949 1.379 . S
H3951 C3945 0.959 . S
H3952 C3945 0.961 . S
H3953 C3945 0.960 . S
H3954 C3946 0.930 . S
H3955 C3947 0.929 . S
H3956 C3964 0.929 . S
H3957 C3966 0.930 . S
H3958 C3968 0.930 . S
H3959 C3971 0.929 . S
H3960 C3974 0.930 . S
H3961 C3976 0.960 . S
H3962 C3976 0.960 . S
H3963 C3976 0.960 . S
C3964 H3956 0.929 . S
C3964 C3965 1.377 . S
C3964 C3966 1.384 . S
C3965 C3964 1.377 . S
C3965 C3971 1.390 . S
C3966 H3957 0.930 . S
C3966 C3964 1.384 . S
C3966 C3967 1.372 . S
C3967 C3966 1.372 . S
C3967 C3968 1.400 . S
C3967 C3972 1.490 . S
C3968 H3958 0.930 . S
C3968 C3967 1.400 . S
C3968 C3971 1.386 . S
H3969 C3985 0.930 . S
H3970 C3986 0.931 . S
C3971 H3959 0.929 . S
C3971 C3965 1.390 . S
C3971 C3968 1.386 . S
C3972 C3967 1.490 . S
C3972 C3974 1.395 . S
C3972 C3975 1.403 . S
H3973 C3979 0.930 . S
C3974 H3960 0.930 . S
C3974 C3972 1.395 . S
C3974 C3977 1.403 . S
C3975 C3972 1.403 . S
C3975 C3976 1.524 . S
C3975 C3979 1.400 . S
C3976 H3961 0.960 . S
C3976 H3962 0.960 . S
C3976 H3963 0.960 . S
C3976 C3975 1.524 . S
C3977 C3974 1.403 . S
C3977 C3978 1.392 . S
C3977 C3981 1.495 . S
C3978 C3977 1.392 . S
C3978 C3979 1.385 . S
C3978 C3980 1.478 . S
C3979 H3973 0.930 . S
C3979 C3975 1.400 . S
C3979 C3978 1.385 . S
C3980 C3978 1.478 . S
C3980 C3982 1.381 . S
C3980 C3986 1.383 . S
C3981 C3977 1.495 . S
C3981 H3987 0.959 . S
C3981 H3988 0.961 . S
C3981 H3989 0.960 . S
C3982 C3980 1.381 . S
C3982 C3983 1.394 . S
C3982 H3990 0.930 . S
C3983 C3982 1.394 . S
C3983 C3984 1.383 . S
C3983 H3991 0.929 . S
C3984 C3983 1.383 . S
C3984 C3985 1.377 . S
C3985 H3969 0.930 . S
C3985 C3984 1.377 . S
C3985 C3986 1.379 . S
C3986 H3970 0.931 . S
C3986 C3980 1.383 . S
C3986 C3985 1.379 . S
H3987 C3981 0.959 . S
H3988 C3981 0.961 . S
H3989 C3981 0.960 . S
H3990 C3982 0.930 . S
H3991 C3983 0.929 . S
H3992 C4000 0.929 . S
H3993 C4002 0.930 . S
H3994 C4004 0.930 . S
H3995 C4007 0.929 . S
H3996 C4010 0.930 . S
H3997 C4012 0.960 . S
H3998 C4012 0.960 . S
H3999 C4012 0.960 . S
C4000 H3992 0.929 . S
C4000 C4001 1.377 . S
C4000 C4002 1.384 . S
C4001 C4000 1.377 . S
C4001 C4007 1.390 . S
C4002 H3993 0.930 . S
C4002 C4000 1.384 . S
C4002 C4003 1.372 . S
C4003 C4002 1.372 . S
C4003 C4004 1.400 . S
C4003 C4008 1.490 . S
C4004 H3994 0.930 . S
C4004 C4003 1.400 . S
C4004 C4007 1.386 . S
H4005 C4021 0.930 . S
H4006 C4022 0.931 . S
C4007 H3995 0.929 . S
C4007 C4001 1.390 . S
C4007 C4004 1.386 . S
C4008 C4003 1.490 . S
C4008 C4010 1.395 . S
C4008 C4011 1.403 . S
H4009 C4015 0.930 . S
C4010 H3996 0.930 . S
C4010 C4008 1.395 . S
C4010 C4013 1.403 . S
C4011 C4008 1.403 . S
C4011 C4012 1.524 . S
C4011 C4015 1.400 . S
C4012 H3997 0.960 . S
C4012 H3998 0.960 . S
C4012 H3999 0.960 . S
C4012 C4011 1.524 . S
C4013 C4010 1.403 . S
C4013 C4014 1.392 . S
C4013 C4017 1.495 . S
C4014 C4013 1.392 . S
C4014 C4015 1.385 . S
C4014 C4016 1.478 . S
C4015 H4009 0.930 . S
C4015 C4011 1.400 . S
C4015 C4014 1.385 . S
C4016 C4014 1.478 . S
C4016 C4018 1.381 . S
C4016 C4022 1.383 . S
C4017 C4013 1.495 . S
C4017 H4023 0.959 . S
C4017 H4024 0.961 . S
C4017 H4025 0.960 . S
C4018 C4016 1.381 . S
C4018 C4019 1.394 . S
C4018 H4026 0.930 . S
C4019 C4018 1.394 . S
C4019 C4020 1.383 . S
C4019 H4027 0.929 . S
C4020 C4019 1.383 . S
C4020 C4021 1.377 . S
C4021 H4005 0.930 . S
C4021 C4020 1.377 . S
C4021 C4022 1.379 . S
C4022 H4006 0.931 . S
C4022 C4016 1.383 . S
C4022 C4021 1.379 . S
H4023 C4017 0.959 . S
H4024 C4017 0.961 . S
H4025 C4017 0.960 . S
H4026 C4018 0.930 . S
H4027 C4019 0.929 . S
H4028 C4036 0.929 . S
H4029 C4038 0.930 . S
H4030 C4040 0.930 . S
H4031 C4043 0.929 . S
H4032 C4046 0.930 . S
H4033 C4048 0.960 . S
H4034 C4048 0.960 . S
H4035 C4048 0.960 . S
C4036 H4028 0.929 . S
C4036 C4037 1.377 . S
C4036 C4038 1.384 . S
C4037 C4036 1.377 . S
C4037 C4043 1.390 . S
C4038 H4029 0.930 . S
C4038 C4036 1.384 . S
C4038 C4039 1.372 . S
C4039 C4038 1.372 . S
C4039 C4040 1.400 . S
C4039 C4044 1.490 . S
C4040 H4030 0.930 . S
C4040 C4039 1.400 . S
C4040 C4043 1.386 . S
H4041 C4057 0.930 . S
H4042 C4058 0.931 . S
C4043 H4031 0.929 . S
C4043 C4037 1.390 . S
C4043 C4040 1.386 . S
C4044 C4039 1.490 . S
C4044 C4046 1.395 . S
C4044 C4047 1.403 . S
H4045 C4051 0.930 . S
C4046 H4032 0.930 . S
C4046 C4044 1.395 . S
C4046 C4049 1.403 . S
C4047 C4044 1.403 . S
C4047 C4048 1.524 . S
C4047 C4051 1.400 . S
C4048 H4033 0.960 . S
C4048 H4034 0.960 . S
C4048 H4035 0.960 . S
C4048 C4047 1.524 . S
C4049 C4046 1.403 . S
C4049 C4050 1.392 . S
C4049 C4053 1.495 . S
C4050 C4049 1.392 . S
C4050 C4051 1.385 . S
C4050 C4052 1.478 . S
C4051 H4045 0.930 . S
C4051 C4047 1.400 . S
C4051 C4050 1.385 . S
C4052 C4050 1.478 . S
C4052 C4054 1.381 . S
C4052 C4058 1.383 . S
C4053 C4049 1.495 . S
C4053 H4059 0.959 . S
C4053 H4060 0.961 . S
C4053 H4061 0.960 . S
C4054 C4052 1.381 . S
C4054 C4055 1.394 . S
C4054 H4062 0.930 . S
C4055 C4054 1.394 . S
C4055 C4056 1.383 . S
C4055 H4063 0.929 . S
C4056 C4055 1.383 . S
C4056 C4057 1.377 . S
C4057 H4041 0.930 . S
C4057 C4056 1.377 . S
C4057 C4058 1.379 . S
C4058 H4042 0.931 . S
C4058 C4052 1.383 . S
C4058 C4057 1.379 . S
H4059 C4053 0.959 . S
H4060 C4053 0.961 . S
H4061 C4053 0.960 . S
H4062 C4054 0.930 . S
H4063 C4055 0.929 . S
H4064 C4072 0.929 . S
H4065 C4074 0.930 . S
H4066 C4076 0.930 . S
H4067 C4079 0.929 . S
H4068 C4082 0.930 . S
H4069 C4084 0.960 . S
H4070 C4084 0.960 . S
H4071 C4084 0.960 . S
C4072 H4064 0.929 . S
C4072 C4073 1.377 . S
C4072 C4074 1.384 . S
C4073 C4072 1.377 . S
C4073 C4079 1.390 . S
C4074 H4065 0.930 . S
C4074 C4072 1.384 . S
C4074 C4075 1.372 . S
C4075 C4074 1.372 . S
C4075 C4076 1.400 . S
C4075 C4080 1.490 . S
C4076 H4066 0.930 . S
C4076 C4075 1.400 . S
C4076 C4079 1.386 . S
H4077 C4093 0.930 . S
H4078 C4094 0.931 . S
C4079 H4067 0.929 . S
C4079 C4073 1.390 . S
C4079 C4076 1.386 . S
C4080 C4075 1.490 . S
C4080 C4082 1.395 . S
C4080 C4083 1.403 . S
H4081 C4087 0.930 . S
C4082 H4068 0.930 . S
C4082 C4080 1.395 . S
C4082 C4085 1.403 . S
C4083 C4080 1.403 . S
C4083 C4084 1.524 . S
C4083 C4087 1.400 . S
C4084 H4069 0.960 . S
C4084 H4070 0.960 . S
C4084 H4071 0.960 . S
C4084 C4083 1.524 . S
C4085 C4082 1.403 . S
C4085 C4086 1.392 . S
C4085 C4089 1.495 . S
C4086 C4085 1.392 . S
C4086 C4087 1.385 . S
C4086 C4088 1.478 . S
C4087 H4081 0.930 . S
C4087 C4083 1.400 . S
C4087 C4086 1.385 . S
C4088 C4086 1.478 . S
C4088 C4090 1.381 . S
C4088 C4094 1.383 . S
C4089 C4085 1.495 . S
C4089 H4095 0.959 . S
C4089 H4096 0.961 . S
C4089 H4097 0.960 . S
C4090 C4088 1.381 . S
C4090 C4091 1.394 . S
C4090 H4098 0.930 . S
C4091 C4090 1.394 . S
C4091 C4092 1.383 . S
C4091 H4099 0.929 . S
C4092 C4091 1.383 . S
C4092 C4093 1.377 . S
C4093 H4077 0.930 . S
C4093 C4092 1.377 . S
C4093 C4094 1.379 . S
C4094 H4078 0.931 . S
C4094 C4088 1.383 . S
C4094 C4093 1.379 . S
H4095 C4089 0.959 . S
H4096 C4089 0.961 . S
H4097 C4089 0.960 . S
H4098 C4090 0.930 . S
H4099 C4091 0.929 . S
H4100 C4108 0.929 . S
H4101 C4110 0.930 . S
H4102 C4112 0.930 . S
H4103 C4115 0.929 . S
H4104 C4118 0.930 . S
H4105 C4120 0.960 . S
H4106 C4120 0.960 . S
H4107 C4120 0.960 . S
C4108 H4100 0.929 . S
C4108 C4109 1.377 . S
C4108 C4110 1.384 . S
C4109 C4108 1.377 . S
C4109 C4115 1.390 . S
C4110 H4101 0.930 . S
C4110 C4108 1.384 . S
C4110 C4111 1.372 . S
C4111 C4110 1.372 . S
C4111 C4112 1.400 . S
C4111 C4116 1.490 . S
C4112 H4102 0.930 . S
C4112 C4111 1.400 . S
C4112 C4115 1.386 . S
H4113 C4129 0.930 . S
H4114 C4130 0.931 . S
C4115 H4103 0.929 . S
C4115 C4109 1.390 . S
C4115 C4112 1.386 . S
C4116 C4111 1.490 . S
C4116 C4118 1.395 . S
C4116 C4119 1.403 . S
H4117 C4123 0.930 . S
C4118 H4104 0.930 . S
C4118 C4116 1.395 . S
C4118 C4121 1.403 . S
C4119 C4116 1.403 . S
C4119 C4120 1.524 . S
C4119 C4123 1.400 . S
C4120 H4105 0.960 . S
C4120 H4106 0.960 . S
C4120 H4107 0.960 . S
C4120 C4119 1.524 . S
C4121 C4118 1.403 . S
C4121 C4122 1.392 . S
C4121 C4125 1.495 . S
C4122 C4121 1.392 . S
C4122 C4123 1.385 . S
C4122 C4124 1.478 . S
C4123 H4117 0.930 . S
C4123 C4119 1.400 . S
C4123 C4122 1.385 . S
C4124 C4122 1.478 . S
C4124 C4126 1.381 . S
C4124 C4130 1.383 . S
C4125 C4121 1.495 . S
C4125 H4131 0.959 . S
C4125 H4132 0.961 . S
C4125 H4133 0.960 . S
C4126 C4124 1.381 . S
C4126 C4127 1.394 . S
C4126 H4134 0.930 . S
C4127 C4126 1.394 . S
C4127 C4128 1.383 . S
C4127 H4135 0.929 . S
C4128 C4127 1.383 . S
C4128 C4129 1.377 . S
C4129 H4113 0.930 . S
C4129 C4128 1.377 . S
C4129 C4130 1.379 . S
C4130 H4114 0.931 . S
C4130 C4124 1.383 . S
C4130 C4129 1.379 . S
H4131 C4125 0.959 . S
H4132 C4125 0.961 . S
H4133 C4125 0.960 . S
H4134 C4126 0.930 . S
H4135 C4127 0.929 . S
H4136 C4144 0.929 . S
H4137 C4146 0.930 . S
H4138 C4148 0.930 . S
H4139 C4151 0.929 . S
H4140 C4154 0.930 . S
H4141 C4156 0.960 . S
H4142 C4156 0.960 . S
H4143 C4156 0.960 . S
C4144 H4136 0.929 . S
C4144 C4145 1.377 . S
C4144 C4146 1.384 . S
C4145 C4144 1.377 . S
C4145 C4151 1.390 . S
C4146 H4137 0.930 . S
C4146 C4144 1.384 . S
C4146 C4147 1.372 . S
C4147 C4146 1.372 . S
C4147 C4148 1.400 . S
C4147 C4152 1.490 . S
C4148 H4138 0.930 . S
C4148 C4147 1.400 . S
C4148 C4151 1.386 . S
H4149 C4165 0.930 . S
H4150 C4166 0.931 . S
C4151 H4139 0.929 . S
C4151 C4145 1.390 . S
C4151 C4148 1.386 . S
C4152 C4147 1.490 . S
C4152 C4154 1.395 . S
C4152 C4155 1.403 . S
H4153 C4159 0.930 . S
C4154 H4140 0.930 . S
C4154 C4152 1.395 . S
C4154 C4157 1.403 . S
C4155 C4152 1.403 . S
C4155 C4156 1.524 . S
C4155 C4159 1.400 . S
C4156 H4141 0.960 . S
C4156 H4142 0.960 . S
C4156 H4143 0.960 . S
C4156 C4155 1.524 . S
C4157 C4154 1.403 . S
C4157 C4158 1.392 . S
C4157 C4161 1.495 . S
C4158 C4157 1.392 . S
C4158 C4159 1.385 . S
C4158 C4160 1.478 . S
C4159 H4153 0.930 . S
C4159 C4155 1.400 . S
C4159 C4158 1.385 . S
C4160 C4158 1.478 . S
C4160 C4162 1.381 . S
C4160 C4166 1.383 . S
C4161 C4157 1.495 . S
C4161 H4167 0.959 . S
C4161 H4168 0.961 . S
C4161 H4169 0.960 . S
C4162 C4160 1.381 . S
C4162 C4163 1.394 . S
C4162 H4170 0.930 . S
C4163 C4162 1.394 . S
C4163 C4164 1.383 . S
C4163 H4171 0.929 . S
C4164 C4163 1.383 . S
C4164 C4165 1.377 . S
C4165 H4149 0.930 . S
C4165 C4164 1.377 . S
C4165 C4166 1.379 . S
C4166 H4150 0.931 . S
C4166 C4160 1.383 . S
C4166 C4165 1.379 . S
H4167 C4161 0.959 . S
H4168 C4161 0.961 . S
H4169 C4161 0.960 . S
H4170 C4162 0.930 . S
H4171 C4163 0.929 . S
H4172 C4180 0.929 . S
H4173 C4182 0.930 . S
H4174 C4184 0.930 . S
H4175 C4187 0.929 . S
H4176 C4190 0.930 . S
H4177 C4192 0.960 . S
H4178 C4192 0.960 . S
H4179 C4192 0.960 . S
C4180 H4172 0.929 . S
C4180 C4181 1.377 . S
C4180 C4182 1.384 . S
C4181 C4180 1.377 . S
C4181 C4187 1.390 . S
C4182 H4173 0.930 . S
C4182 C4180 1.384 . S
C4182 C4183 1.372 . S
C4183 C4182 1.372 . S
C4183 C4184 1.400 . S
C4183 C4188 1.490 . S
C4184 H4174 0.930 . S
C4184 C4183 1.400 . S
C4184 C4187 1.386 . S
H4185 C4201 0.930 . S
H4186 C4202 0.931 . S
C4187 H4175 0.929 . S
C4187 C4181 1.390 . S
C4187 C4184 1.386 . S
C4188 C4183 1.490 . S
C4188 C4190 1.395 . S
C4188 C4191 1.403 . S
H4189 C4195 0.930 . S
C4190 H4176 0.930 . S
C4190 C4188 1.395 . S
C4190 C4193 1.403 . S
C4191 C4188 1.403 . S
C4191 C4192 1.524 . S
C4191 C4195 1.400 . S
C4192 H4177 0.960 . S
C4192 H4178 0.960 . S
C4192 H4179 0.960 . S
C4192 C4191 1.524 . S
C4193 C4190 1.403 . S
C4193 C4194 1.392 . S
C4193 C4197 1.495 . S
C4194 C4193 1.392 . S
C4194 C4195 1.385 . S
C4194 C4196 1.478 . S
C4195 H4189 0.930 . S
C4195 C4191 1.400 . S
C4195 C4194 1.385 . S
C4196 C4194 1.478 . S
C4196 C4198 1.381 . S
C4196 C4202 1.383 . S
C4197 C4193 1.495 . S
C4197 H4203 0.959 . S
C4197 H4204 0.961 . S
C4197 H4205 0.960 . S
C4198 C4196 1.381 . S
C4198 C4199 1.394 . S
C4198 H4206 0.930 . S
C4199 C4198 1.394 . S
C4199 C4200 1.383 . S
C4199 H4207 0.929 . S
C4200 C4199 1.383 . S
C4200 C4201 1.377 . S
C4201 H4185 0.930 . S
C4201 C4200 1.377 . S
C4201 C4202 1.379 . S
C4202 H4186 0.931 . S
C4202 C4196 1.383 . S
C4202 C4201 1.379 . S
H4203 C4197 0.959 . S
H4204 C4197 0.961 . S
H4205 C4197 0.960 . S
H4206 C4198 0.930 . S
H4207 C4199 0.929 . S
H4208 C4216 0.929 . S
H4209 C4218 0.930 . S
H4210 C4220 0.930 . S
H4211 C4223 0.929 . S
H4212 C4226 0.930 . S
H4213 C4228 0.960 . S
H4214 C4228 0.960 . S
H4215 C4228 0.960 . S
C4216 H4208 0.929 . S
C4216 C4217 1.377 . S
C4216 C4218 1.384 . S
C4217 C4216 1.377 . S
C4217 C4223 1.390 . S
C4218 H4209 0.930 . S
C4218 C4216 1.384 . S
C4218 C4219 1.372 . S
C4219 C4218 1.372 . S
C4219 C4220 1.400 . S
C4219 C4224 1.490 . S
C4220 H4210 0.930 . S
C4220 C4219 1.400 . S
C4220 C4223 1.386 . S
H4221 C4237 0.930 . S
H4222 C4238 0.931 . S
C4223 H4211 0.929 . S
C4223 C4217 1.390 . S
C4223 C4220 1.386 . S
C4224 C4219 1.490 . S
C4224 C4226 1.395 . S
C4224 C4227 1.403 . S
H4225 C4231 0.930 . S
C4226 H4212 0.930 . S
C4226 C4224 1.395 . S
C4226 C4229 1.403 . S
C4227 C4224 1.403 . S
C4227 C4228 1.524 . S
C4227 C4231 1.400 . S
C4228 H4213 0.960 . S
C4228 H4214 0.960 . S
C4228 H4215 0.960 . S
C4228 C4227 1.524 . S
C4229 C4226 1.403 . S
C4229 C4230 1.392 . S
C4229 C4233 1.495 . S
C4230 C4229 1.392 . S
C4230 C4231 1.385 . S
C4230 C4232 1.478 . S
C4231 H4225 0.930 . S
C4231 C4227 1.400 . S
C4231 C4230 1.385 . S
C4232 C4230 1.478 . S
C4232 C4234 1.381 . S
C4232 C4238 1.383 . S
C4233 C4229 1.495 . S
C4233 H4239 0.959 . S
C4233 H4240 0.961 . S
C4233 H4241 0.960 . S
C4234 C4232 1.381 . S
C4234 C4235 1.394 . S
C4234 H4242 0.930 . S
C4235 C4234 1.394 . S
C4235 C4236 1.383 . S
C4235 H4243 0.929 . S
C4236 C4235 1.383 . S
C4236 C4237 1.377 . S
C4237 H4221 0.930 . S
C4237 C4236 1.377 . S
C4237 C4238 1.379 . S
C4238 H4222 0.931 . S
C4238 C4232 1.383 . S
C4238 C4237 1.379 . S
H4239 C4233 0.959 . S
H4240 C4233 0.961 . S
H4241 C4233 0.960 . S
H4242 C4234 0.930 . S
H4243 C4235 0.929 . S
H4244 C4252 0.929 . S
H4245 C4254 0.930 . S
H4246 C4256 0.930 . S
H4247 C4259 0.929 . S
H4248 C4262 0.930 . S
H4249 C4264 0.960 . S
H4250 C4264 0.960 . S
H4251 C4264 0.960 . S
C4252 H4244 0.929 . S
C4252 C4253 1.377 . S
C4252 C4254 1.384 . S
C4253 C4252 1.377 . S
C4253 C4259 1.390 . S
C4254 H4245 0.930 . S
C4254 C4252 1.384 . S
C4254 C4255 1.372 . S
C4255 C4254 1.372 . S
C4255 C4256 1.400 . S
C4255 C4260 1.490 . S
C4256 H4246 0.930 . S
C4256 C4255 1.400 . S
C4256 C4259 1.386 . S
H4257 C4273 0.930 . S
H4258 C4274 0.931 . S
C4259 H4247 0.929 . S
C4259 C4253 1.390 . S
C4259 C4256 1.386 . S
C4260 C4255 1.490 . S
C4260 C4262 1.395 . S
C4260 C4263 1.403 . S
H4261 C4267 0.930 . S
C4262 H4248 0.930 . S
C4262 C4260 1.395 . S
C4262 C4265 1.403 . S
C4263 C4260 1.403 . S
C4263 C4264 1.524 . S
C4263 C4267 1.400 . S
C4264 H4249 0.960 . S
C4264 H4250 0.960 . S
C4264 H4251 0.960 . S
C4264 C4263 1.524 . S
C4265 C4262 1.403 . S
C4265 C4266 1.392 . S
C4265 C4269 1.495 . S
C4266 C4265 1.392 . S
C4266 C4267 1.385 . S
C4266 C4268 1.478 . S
C4267 H4261 0.930 . S
C4267 C4263 1.400 . S
C4267 C4266 1.385 . S
C4268 C4266 1.478 . S
C4268 C4270 1.381 . S
C4268 C4274 1.383 . S
C4269 C4265 1.495 . S
C4269 H4275 0.959 . S
C4269 H4276 0.961 . S
C4269 H4277 0.960 . S
C4270 C4268 1.381 . S
C4270 C4271 1.394 . S
C4270 H4278 0.930 . S
C4271 C4270 1.394 . S
C4271 C4272 1.383 . S
C4271 H4279 0.929 . S
C4272 C4271 1.383 . S
C4272 C4273 1.377 . S
C4273 H4257 0.930 . S
C4273 C4272 1.377 . S
C4273 C4274 1.379 . S
C4274 H4258 0.931 . S
C4274 C4268 1.383 . S
C4274 C4273 1.379 . S
H4275 C4269 0.959 . S
H4276 C4269 0.961 . S
H4277 C4269 0.960 . S
H4278 C4270 0.930 . S
H4279 C4271 0.929 . S
H4280 C4288 0.929 . S
H4281 C4290 0.930 . S
H4282 C4292 0.930 . S
H4283 C4295 0.929 . S
H4284 C4298 0.930 . S
H4285 C4300 0.960 . S
H4286 C4300 0.960 . S
H4287 C4300 0.960 . S
C4288 H4280 0.929 . S
C4288 C4289 1.377 . S
C4288 C4290 1.384 . S
C4289 C4288 1.377 . S
C4289 C4295 1.390 . S
C4290 H4281 0.930 . S
C4290 C4288 1.384 . S
C4290 C4291 1.372 . S
C4291 C4290 1.372 . S
C4291 C4292 1.400 . S
C4291 C4296 1.490 . S
C4292 H4282 0.930 . S
C4292 C4291 1.400 . S
C4292 C4295 1.386 . S
H4293 C4309 0.930 . S
H4294 C4310 0.931 . S
C4295 H4283 0.929 . S
C4295 C4289 1.390 . S
C4295 C4292 1.386 . S
C4296 C4291 1.490 . S
C4296 C4298 1.395 . S
C4296 C4299 1.403 . S
H4297 C4303 0.930 . S
C4298 H4284 0.930 . S
C4298 C4296 1.395 . S
C4298 C4301 1.403 . S
C4299 C4296 1.403 . S
C4299 C4300 1.524 . S
C4299 C4303 1.400 . S
C4300 H4285 0.960 . S
C4300 H4286 0.960 . S
C4300 H4287 0.960 . S
C4300 C4299 1.524 . S
C4301 C4298 1.403 . S
C4301 C4302 1.392 . S
C4301 C4305 1.495 . S
C4302 C4301 1.392 . S
C4302 C4303 1.385 . S
C4302 C4304 1.478 . S
C4303 H4297 0.930 . S
C4303 C4299 1.400 . S
C4303 C4302 1.385 . S
C4304 C4302 1.478 . S
C4304 C4306 1.381 . S
C4304 C4310 1.383 . S
C4305 C4301 1.495 . S
C4305 H4311 0.959 . S
C4305 H4312 0.961 . S
C4305 H4313 0.960 . S
C4306 C4304 1.381 . S
C4306 C4307 1.394 . S
C4306 H4314 0.930 . S
C4307 C4306 1.394 . S
C4307 C4308 1.383 . S
C4307 H4315 0.929 . S
C4308 C4307 1.383 . S
C4308 C4309 1.377 . S
C4309 H4293 0.930 . S
C4309 C4308 1.377 . S
C4309 C4310 1.379 . S
C4310 H4294 0.931 . S
C4310 C4304 1.383 . S
C4310 C4309 1.379 . S
H4311 C4305 0.959 . S
H4312 C4305 0.961 . S
H4313 C4305 0.960 . S
H4314 C4306 0.930 . S
H4315 C4307 0.929 . S
H4316 C4324 0.929 . S
H4317 C4326 0.930 . S
H4318 C4328 0.930 . S
H4319 C4331 0.929 . S
H4320 C4334 0.930 . S
H4321 C4336 0.960 . S
H4322 C4336 0.960 . S
H4323 C4336 0.960 . S
C4324 H4316 0.929 . S
C4324 C4325 1.377 . S
C4324 C4326 1.384 . S
C4325 C4324 1.377 . S
C4325 C4331 1.390 . S
C4326 H4317 0.930 . S
C4326 C4324 1.384 . S
C4326 C4327 1.372 . S
C4327 C4326 1.372 . S
C4327 C4328 1.400 . S
C4327 C4332 1.490 . S
C4328 H4318 0.930 . S
C4328 C4327 1.400 . S
C4328 C4331 1.386 . S
H4329 C4345 0.930 . S
H4330 C4346 0.931 . S
C4331 H4319 0.929 . S
C4331 C4325 1.390 . S
C4331 C4328 1.386 . S
C4332 C4327 1.490 . S
C4332 C4334 1.395 . S
C4332 C4335 1.403 . S
H4333 C4339 0.930 . S
C4334 H4320 0.930 . S
C4334 C4332 1.395 . S
C4334 C4337 1.403 . S
C4335 C4332 1.403 . S
C4335 C4336 1.524 . S
C4335 C4339 1.400 . S
C4336 H4321 0.960 . S
C4336 H4322 0.960 . S
C4336 H4323 0.960 . S
C4336 C4335 1.524 . S
C4337 C4334 1.403 . S
C4337 C4338 1.392 . S
C4337 C4341 1.495 . S
C4338 C4337 1.392 . S
C4338 C4339 1.385 . S
C4338 C4340 1.478 . S
C4339 H4333 0.930 . S
C4339 C4335 1.400 . S
C4339 C4338 1.385 . S
C4340 C4338 1.478 . S
C4340 C4342 1.381 . S
C4340 C4346 1.383 . S
C4341 C4337 1.495 . S
C4341 H4347 0.959 . S
C4341 H4348 0.961 . S
C4341 H4349 0.960 . S
C4342 C4340 1.381 . S
C4342 C4343 1.394 . S
C4342 H4350 0.930 . S
C4343 C4342 1.394 . S
C4343 C4344 1.383 . S
C4343 H4351 0.929 . S
C4344 C4343 1.383 . S
C4344 C4345 1.377 . S
C4345 H4329 0.930 . S
C4345 C4344 1.377 . S
C4345 C4346 1.379 . S
C4346 H4330 0.931 . S
C4346 C4340 1.383 . S
C4346 C4345 1.379 . S
H4347 C4341 0.959 . S
H4348 C4341 0.961 . S
H4349 C4341 0.960 . S
H4350 C4342 0.930 . S
H4351 C4343 0.929 . S
H4352 C4360 0.929 . S
H4353 C4362 0.930 . S
H4354 C4364 0.930 . S
H4355 C4367 0.929 . S
H4356 C4370 0.930 . S
H4357 C4372 0.960 . S
H4358 C4372 0.960 . S
H4359 C4372 0.960 . S
C4360 H4352 0.929 . S
C4360 C4361 1.377 . S
C4360 C4362 1.384 . S
C4361 C4360 1.377 . S
C4361 C4367 1.390 . S
C4362 H4353 0.930 . S
C4362 C4360 1.384 . S
C4362 C4363 1.372 . S
C4363 C4362 1.372 . S
C4363 C4364 1.400 . S
C4363 C4368 1.490 . S
C4364 H4354 0.930 . S
C4364 C4363 1.400 . S
C4364 C4367 1.386 . S
H4365 C4381 0.930 . S
H4366 C4382 0.931 . S
C4367 H4355 0.929 . S
C4367 C4361 1.390 . S
C4367 C4364 1.386 . S
C4368 C4363 1.490 . S
C4368 C4370 1.395 . S
C4368 C4371 1.403 . S
H4369 C4375 0.930 . S
C4370 H4356 0.930 . S
C4370 C4368 1.395 . S
C4370 C4373 1.403 . S
C4371 C4368 1.403 . S
C4371 C4372 1.524 . S
C4371 C4375 1.400 . S
C4372 H4357 0.960 . S
C4372 H4358 0.960 . S
C4372 H4359 0.960 . S
C4372 C4371 1.524 . S
C4373 C4370 1.403 . S
C4373 C4374 1.392 . S
C4373 C4377 1.495 . S
C4374 C4373 1.392 . S
C4374 C4375 1.385 . S
C4374 C4376 1.478 . S
C4375 H4369 0.930 . S
C4375 C4371 1.400 . S
C4375 C4374 1.385 . S
C4376 C4374 1.478 . S
C4376 C4378 1.381 . S
C4376 C4382 1.383 . S
C4377 C4373 1.495 . S
C4377 H4383 0.959 . S
C4377 H4384 0.961 . S
C4377 H4385 0.960 . S
C4378 C4376 1.381 . S
C4378 C4379 1.394 . S
C4378 H4386 0.930 . S
C4379 C4378 1.394 . S
C4379 C4380 1.383 . S
C4379 H4387 0.929 . S
C4380 C4379 1.383 . S
C4380 C4381 1.377 . S
C4381 H4365 0.930 . S
C4381 C4380 1.377 . S
C4381 C4382 1.379 . S
C4382 H4366 0.931 . S
C4382 C4376 1.383 . S
C4382 C4381 1.379 . S
H4383 C4377 0.959 . S
H4384 C4377 0.961 . S
H4385 C4377 0.960 . S
H4386 C4378 0.930 . S
H4387 C4379 0.929 . S
H4388 C4396 0.929 . S
H4389 C4398 0.930 . S
H4390 C4400 0.930 . S
H4391 C4403 0.929 . S
H4392 C4406 0.930 . S
H4393 C4408 0.960 . S
H4394 C4408 0.960 . S
H4395 C4408 0.960 . S
C4396 H4388 0.929 . S
C4396 C4397 1.377 . S
C4396 C4398 1.384 . S
C4397 C4396 1.377 . S
C4397 C4403 1.390 . S
C4398 H4389 0.930 . S
C4398 C4396 1.384 . S
C4398 C4399 1.372 . S
C4399 C4398 1.372 . S
C4399 C4400 1.400 . S
C4399 C4404 1.490 . S
C4400 H4390 0.930 . S
C4400 C4399 1.400 . S
C4400 C4403 1.386 . S
H4401 C4417 0.930 . S
H4402 C4418 0.931 . S
C4403 H4391 0.929 . S
C4403 C4397 1.390 . S
C4403 C4400 1.386 . S
C4404 C4399 1.490 . S
C4404 C4406 1.395 . S
C4404 C4407 1.403 . S
H4405 C4411 0.930 . S
C4406 H4392 0.930 . S
C4406 C4404 1.395 . S
C4406 C4409 1.403 . S
C4407 C4404 1.403 . S
C4407 C4408 1.524 . S
C4407 C4411 1.400 . S
C4408 H4393 0.960 . S
C4408 H4394 0.960 . S
C4408 H4395 0.960 . S
C4408 C4407 1.524 . S
C4409 C4406 1.403 . S
C4409 C4410 1.392 . S
C4409 C4413 1.495 . S
C4410 C4409 1.392 . S
C4410 C4411 1.385 . S
C4410 C4412 1.478 . S
C4411 H4405 0.930 . S
C4411 C4407 1.400 . S
C4411 C4410 1.385 . S
C4412 C4410 1.478 . S
C4412 C4414 1.381 . S
C4412 C4418 1.383 . S
C4413 C4409 1.495 . S
C4413 H4419 0.959 . S
C4413 H4420 0.961 . S
C4413 H4421 0.960 . S
C4414 C4412 1.381 . S
C4414 C4415 1.394 . S
C4414 H4422 0.930 . S
C4415 C4414 1.394 . S
C4415 C4416 1.383 . S
C4415 H4423 0.929 . S
C4416 C4415 1.383 . S
C4416 C4417 1.377 . S
C4417 H4401 0.930 . S
C4417 C4416 1.377 . S
C4417 C4418 1.379 . S
C4418 H4402 0.931 . S
C4418 C4412 1.383 . S
C4418 C4417 1.379 . S
H4419 C4413 0.959 . S
H4420 C4413 0.961 . S
H4421 C4413 0.960 . S
H4422 C4414 0.930 . S
H4423 C4415 0.929 . S
H4424 C4432 0.929 . S
H4425 C4434 0.930 . S
H4426 C4436 0.930 . S
H4427 C4439 0.929 . S
H4428 C4442 0.930 . S
H4429 C4444 0.960 . S
H4430 C4444 0.960 . S
H4431 C4444 0.960 . S
C4432 H4424 0.929 . S
C4432 C4433 1.377 . S
C4432 C4434 1.384 . S
C4433 C4432 1.377 . S
C4433 C4439 1.390 . S
C4434 H4425 0.930 . S
C4434 C4432 1.384 . S
C4434 C4435 1.372 . S
C4435 C4434 1.372 . S
C4435 C4436 1.400 . S
C4435 C4440 1.490 . S
C4436 H4426 0.930 . S
C4436 C4435 1.400 . S
C4436 C4439 1.386 . S
H4437 C4453 0.930 . S
H4438 C4454 0.931 . S
C4439 H4427 0.929 . S
C4439 C4433 1.390 . S
C4439 C4436 1.386 . S
C4440 C4435 1.490 . S
C4440 C4442 1.395 . S
C4440 C4443 1.403 . S
H4441 C4447 0.930 . S
C4442 H4428 0.930 . S
C4442 C4440 1.395 . S
C4442 C4445 1.403 . S
C4443 C4440 1.403 . S
C4443 C4444 1.524 . S
C4443 C4447 1.400 . S
C4444 H4429 0.960 . S
C4444 H4430 0.960 . S
C4444 H4431 0.960 . S
C4444 C4443 1.524 . S
C4445 C4442 1.403 . S
C4445 C4446 1.392 . S
C4445 C4449 1.495 . S
C4446 C4445 1.392 . S
C4446 C4447 1.385 . S
C4446 C4448 1.478 . S
C4447 H4441 0.930 . S
C4447 C4443 1.400 . S
C4447 C4446 1.385 . S
C4448 C4446 1.478 . S
C4448 C4450 1.381 . S
C4448 C4454 1.383 . S
C4449 C4445 1.495 . S
C4449 H4455 0.959 . S
C4449 H4456 0.961 . S
C4449 H4457 0.960 . S
C4450 C4448 1.381 . S
C4450 C4451 1.394 . S
C4450 H4458 0.930 . S
C4451 C4450 1.394 . S
C4451 C4452 1.383 . S
C4451 H4459 0.929 . S
C4452 C4451 1.383 . S
C4452 C4453 1.377 . S
C4453 H4437 0.930 . S
C4453 C4452 1.377 . S
C4453 C4454 1.379 . S
C4454 H4438 0.931 . S
C4454 C4448 1.383 . S
C4454 C4453 1.379 . S
H4455 C4449 0.959 . S
H4456 C4449 0.961 . S
H4457 C4449 0.960 . S
H4458 C4450 0.930 . S
H4459 C4451 0.929 . S
H4460 C4468 0.929 . S
H4461 C4470 0.930 . S
H4462 C4472 0.930 . S
H4463 C4475 0.929 . S
H4464 C4478 0.930 . S
H4465 C4480 0.960 . S
H4466 C4480 0.960 . S
H4467 C4480 0.960 . S
C4468 H4460 0.929 . S
C4468 C4469 1.377 . S
C4468 C4470 1.384 . S
C4469 C4468 1.377 . S
C4469 C4475 1.390 . S
C4470 H4461 0.930 . S
C4470 C4468 1.384 . S
C4470 C4471 1.372 . S
C4471 C4470 1.372 . S
C4471 C4472 1.400 . S
C4471 C4476 1.490 . S
C4472 H4462 0.930 . S
C4472 C4471 1.400 . S
C4472 C4475 1.386 . S
H4473 C4489 0.930 . S
H4474 C4490 0.931 . S
C4475 H4463 0.929 . S
C4475 C4469 1.390 . S
C4475 C4472 1.386 . S
C4476 C4471 1.490 . S
C4476 C4478 1.395 . S
C4476 C4479 1.403 . S
H4477 C4483 0.930 . S
C4478 H4464 0.930 . S
C4478 C4476 1.395 . S
C4478 C4481 1.403 . S
C4479 C4476 1.403 . S
C4479 C4480 1.524 . S
C4479 C4483 1.400 . S
C4480 H4465 0.960 . S
C4480 H4466 0.960 . S
C4480 H4467 0.960 . S
C4480 C4479 1.524 . S
C4481 C4478 1.403 . S
C4481 C4482 1.392 . S
C4481 C4485 1.495 . S
C4482 C4481 1.392 . S
C4482 C4483 1.385 . S
C4482 C4484 1.478 . S
C4483 H4477 0.930 . S
C4483 C4479 1.400 . S
C4483 C4482 1.385 . S
C4484 C4482 1.478 . S
C4484 C4486 1.381 . S
C4484 C4490 1.383 . S
C4485 C4481 1.495 . S
C4485 H4491 0.959 . S
C4485 H4492 0.961 . S
C4485 H4493 0.960 . S
C4486 C4484 1.381 . S
C4486 C4487 1.394 . S
C4486 H4494 0.930 . S
C4487 C4486 1.394 . S
C4487 C4488 1.383 . S
C4487 H4495 0.929 . S
C4488 C4487 1.383 . S
C4488 C4489 1.377 . S
C4489 H4473 0.930 . S
C4489 C4488 1.377 . S
C4489 C4490 1.379 . S
C4490 H4474 0.931 . S
C4490 C4484 1.383 . S
C4490 C4489 1.379 . S
H4491 C4485 0.959 . S
H4492 C4485 0.961 . S
H4493 C4485 0.960 . S
H4494 C4486 0.930 . S
H4495 C4487 0.929 . S
H4496 C4504 0.929 . S
H4497 C4506 0.930 . S
H4498 C4508 0.930 . S
H4499 C4511 0.929 . S
H4500 C4514 0.930 . S
H4501 C4516 0.960 . S
H4502 C4516 0.960 . S
H4503 C4516 0.960 . S
C4504 H4496 0.929 . S
C4504 C4505 1.377 . S
C4504 C4506 1.384 . S
C4505 C4504 1.377 . S
C4505 C4511 1.390 . S
C4506 H4497 0.930 . S
C4506 C4504 1.384 . S
C4506 C4507 1.372 . S
C4507 C4506 1.372 . S
C4507 C4508 1.400 . S
C4507 C4512 1.490 . S
C4508 H4498 0.930 . S
C4508 C4507 1.400 . S
C4508 C4511 1.386 . S
H4509 C4525 0.930 . S
H4510 C4526 0.931 . S
C4511 H4499 0.929 . S
C4511 C4505 1.390 . S
C4511 C4508 1.386 . S
C4512 C4507 1.490 . S
C4512 C4514 1.395 . S
C4512 C4515 1.403 . S
H4513 C4519 0.930 . S
C4514 H4500 0.930 . S
C4514 C4512 1.395 . S
C4514 C4517 1.403 . S
C4515 C4512 1.403 . S
C4515 C4516 1.524 . S
C4515 C4519 1.400 . S
C4516 H4501 0.960 . S
C4516 H4502 0.960 . S
C4516 H4503 0.960 . S
C4516 C4515 1.524 . S
C4517 C4514 1.403 . S
C4517 C4518 1.392 . S
C4517 C4521 1.495 . S
C4518 C4517 1.392 . S
C4518 C4519 1.385 . S
C4518 C4520 1.478 . S
C4519 H4513 0.930 . S
C4519 C4515 1.400 . S
C4519 C4518 1.385 . S
C4520 C4518 1.478 . S
C4520 C4522 1.381 . S
C4520 C4526 1.383 . S
C4521 C4517 1.495 . S
C4521 H4527 0.959 . S
C4521 H4528 0.961 . S
C4521 H4529 0.960 . S
C4522 C4520 1.381 . S
C4522 C4523 1.394 . S
C4522 H4530 0.930 . S
C4523 C4522 1.394 . S
C4523 C4524 1.383 . S
C4523 H4531 0.929 . S
C4524 C4523 1.383 . S
C4524 C4525 1.377 . S
C4525 H4509 0.930 . S
C4525 C4524 1.377 . S
C4525 C4526 1.379 . S
C4526 H4510 0.931 . S
C4526 C4520 1.383 . S
C4526 C4525 1.379 . S
H4527 C4521 0.959 . S
H4528 C4521 0.961 . S
H4529 C4521 0.960 . S
H4530 C4522 0.930 . S
H4531 C4523 0.929 . S
H4532 C4540 0.929 . S
H4533 C4542 0.930 . S
H4534 C4544 0.930 . S
H4535 C4547 0.929 . S
H4536 C4550 0.930 . S
H4537 C4552 0.960 . S
H4538 C4552 0.960 . S
H4539 C4552 0.960 . S
C4540 H4532 0.929 . S
C4540 C4541 1.377 . S
C4540 C4542 1.384 . S
C4541 C4540 1.377 . S
C4541 C4547 1.390 . S
C4542 H4533 0.930 . S
C4542 C4540 1.384 . S
C4542 C4543 1.372 . S
C4543 C4542 1.372 . S
C4543 C4544 1.400 . S
C4543 C4548 1.490 . S
C4544 H4534 0.930 . S
C4544 C4543 1.400 . S
C4544 C4547 1.386 . S
H4545 C4561 0.930 . S
H4546 C4562 0.931 . S
C4547 H4535 0.929 . S
C4547 C4541 1.390 . S
C4547 C4544 1.386 . S
C4548 C4543 1.490 . S
C4548 C4550 1.395 . S
C4548 C4551 1.403 . S
H4549 C4555 0.930 . S
C4550 H4536 0.930 . S
C4550 C4548 1.395 . S
C4550 C4553 1.403 . S
C4551 C4548 1.403 . S
C4551 C4552 1.524 . S
C4551 C4555 1.400 . S
C4552 H4537 0.960 . S
C4552 H4538 0.960 . S
C4552 H4539 0.960 . S
C4552 C4551 1.524 . S
C4553 C4550 1.403 . S
C4553 C4554 1.392 . S
C4553 C4557 1.495 . S
C4554 C4553 1.392 . S
C4554 C4555 1.385 . S
C4554 C4556 1.478 . S
C4555 H4549 0.930 . S
C4555 C4551 1.400 . S
C4555 C4554 1.385 . S
C4556 C4554 1.478 . S
C4556 C4558 1.381 . S
C4556 C4562 1.383 . S
C4557 C4553 1.495 . S
C4557 H4563 0.959 . S
C4557 H4564 0.961 . S
C4557 H4565 0.960 . S
C4558 C4556 1.381 . S
C4558 C4559 1.394 . S
C4558 H4566 0.930 . S
C4559 C4558 1.394 . S
C4559 C4560 1.383 . S
C4559 H4567 0.929 . S
C4560 C4559 1.383 . S
C4560 C4561 1.377 . S
C4561 H4545 0.930 . S
C4561 C4560 1.377 . S
C4561 C4562 1.379 . S
C4562 H4546 0.931 . S
C4562 C4556 1.383 . S
C4562 C4561 1.379 . S
H4563 C4557 0.959 . S
H4564 C4557 0.961 . S
H4565 C4557 0.960 . S
H4566 C4558 0.930 . S
H4567 C4559 0.929 . S
H4568 C4576 0.929 . S
H4569 C4578 0.930 . S
H4570 C4580 0.930 . S
H4571 C4583 0.929 . S
H4572 C4586 0.930 . S
H4573 C4588 0.960 . S
H4574 C4588 0.960 . S
H4575 C4588 0.960 . S
C4576 H4568 0.929 . S
C4576 C4577 1.377 . S
C4576 C4578 1.384 . S
C4577 C4576 1.377 . S
C4577 C4583 1.390 . S
C4578 H4569 0.930 . S
C4578 C4576 1.384 . S
C4578 C4579 1.372 . S
C4579 C4578 1.372 . S
C4579 C4580 1.400 . S
C4579 C4584 1.490 . S
C4580 H4570 0.930 . S
C4580 C4579 1.400 . S
C4580 C4583 1.386 . S
H4581 C4597 0.930 . S
H4582 C4598 0.931 . S
C4583 H4571 0.929 . S
C4583 C4577 1.390 . S
C4583 C4580 1.386 . S
C4584 C4579 1.490 . S
C4584 C4586 1.395 . S
C4584 C4587 1.403 . S
H4585 C4591 0.930 . S
C4586 H4572 0.930 . S
C4586 C4584 1.395 . S
C4586 C4589 1.403 . S
C4587 C4584 1.403 . S
C4587 C4588 1.524 . S
C4587 C4591 1.400 . S
C4588 H4573 0.960 . S
C4588 H4574 0.960 . S
C4588 H4575 0.960 . S
C4588 C4587 1.524 . S
C4589 C4586 1.403 . S
C4589 C4590 1.392 . S
C4589 C4593 1.495 . S
C4590 C4589 1.392 . S
C4590 C4591 1.385 . S
C4590 C4592 1.478 . S
C4591 H4585 0.930 . S
C4591 C4587 1.400 . S
C4591 C4590 1.385 . S
C4592 C4590 1.478 . S
C4592 C4594 1.381 . S
C4592 C4598 1.383 . S
C4593 C4589 1.495 . S
C4593 H4599 0.959 . S
C4593 H4600 0.961 . S
C4593 H4601 0.960 . S
C4594 C4592 1.381 . S
C4594 C4595 1.394 . S
C4594 H4602 0.930 . S
C4595 C4594 1.394 . S
C4595 C4596 1.383 . S
C4595 H4603 0.929 . S
C4596 C4595 1.383 . S
C4596 C4597 1.377 . S
C4597 H4581 0.930 . S
C4597 C4596 1.377 . S
C4597 C4598 1.379 . S
C4598 H4582 0.931 . S
C4598 C4592 1.383 . S
C4598 C4597 1.379 . S
H4599 C4593 0.959 . S
H4600 C4593 0.961 . S
H4601 C4593 0.960 . S
H4602 C4594 0.930 . S
H4603 C4595 0.929 . S
H4604 C4612 0.929 . S
H4605 C4614 0.930 . S
H4606 C4616 0.930 . S
H4607 C4619 0.929 . S
H4608 C4622 0.930 . S
H4609 C4624 0.960 . S
H4610 C4624 0.960 . S
H4611 C4624 0.960 . S
C4612 H4604 0.929 . S
C4612 C4613 1.377 . S
C4612 C4614 1.384 . S
C4613 C4612 1.377 . S
C4613 C4619 1.390 . S
C4614 H4605 0.930 . S
C4614 C4612 1.384 . S
C4614 C4615 1.372 . S
C4615 C4614 1.372 . S
C4615 C4616 1.400 . S
C4615 C4620 1.490 . S
C4616 H4606 0.930 . S
C4616 C4615 1.400 . S
C4616 C4619 1.386 . S
H4617 C4633 0.930 . S
H4618 C4634 0.931 . S
C4619 H4607 0.929 . S
C4619 C4613 1.390 . S
C4619 C4616 1.386 . S
C4620 C4615 1.490 . S
C4620 C4622 1.395 . S
C4620 C4623 1.403 . S
H4621 C4627 0.930 . S
C4622 H4608 0.930 . S
C4622 C4620 1.395 . S
C4622 C4625 1.403 . S
C4623 C4620 1.403 . S
C4623 C4624 1.524 . S
C4623 C4627 1.400 . S
C4624 H4609 0.960 . S
C4624 H4610 0.960 . S
C4624 H4611 0.960 . S
C4624 C4623 1.524 . S
C4625 C4622 1.403 . S
C4625 C4626 1.392 . S
C4625 C4629 1.495 . S
C4626 C4625 1.392 . S
C4626 C4627 1.385 . S
C4626 C4628 1.478 . S
C4627 H4621 0.930 . S
C4627 C4623 1.400 . S
C4627 C4626 1.385 . S
C4628 C4626 1.478 . S
C4628 C4630 1.381 . S
C4628 C4634 1.383 . S
C4629 C4625 1.495 . S
C4629 H4635 0.959 . S
C4629 H4636 0.961 . S
C4629 H4637 0.960 . S
C4630 C4628 1.381 . S
C4630 C4631 1.394 . S
C4630 H4638 0.930 . S
C4631 C4630 1.394 . S
C4631 C4632 1.383 . S
C4631 H4639 0.929 . S
C4632 C4631 1.383 . S
C4632 C4633 1.377 . S
C4633 H4617 0.930 . S
C4633 C4632 1.377 . S
C4633 C4634 1.379 . S
C4634 H4618 0.931 . S
C4634 C4628 1.383 . S
C4634 C4633 1.379 . S
H4635 C4629 0.959 . S
H4636 C4629 0.961 . S
H4637 C4629 0.960 . S
H4638 C4630 0.930 . S
H4639 C4631 0.929 . S
H4640 C4648 0.929 . S
H4641 C4650 0.930 . S
H4642 C4652 0.930 . S
H4643 C4655 0.929 . S
H4644 C4658 0.930 . S
H4645 C4660 0.960 . S
H4646 C4660 0.960 . S
H4647 C4660 0.960 . S
C4648 H4640 0.929 . S
C4648 C4649 1.377 . S
C4648 C4650 1.384 . S
C4649 C4648 1.377 . S
C4649 C4655 1.390 . S
C4650 H4641 0.930 . S
C4650 C4648 1.384 . S
C4650 C4651 1.372 . S
C4651 C4650 1.372 . S
C4651 C4652 1.400 . S
C4651 C4656 1.490 . S
C4652 H4642 0.930 . S
C4652 C4651 1.400 . S
C4652 C4655 1.386 . S
H4653 C4669 0.930 . S
H4654 C4670 0.931 . S
C4655 H4643 0.929 . S
C4655 C4649 1.390 . S
C4655 C4652 1.386 . S
C4656 C4651 1.490 . S
C4656 C4658 1.395 . S
C4656 C4659 1.403 . S
H4657 C4663 0.930 . S
C4658 H4644 0.930 . S
C4658 C4656 1.395 . S
C4658 C4661 1.403 . S
C4659 C4656 1.403 . S
C4659 C4660 1.524 . S
C4659 C4663 1.400 . S
C4660 H4645 0.960 . S
C4660 H4646 0.960 . S
C4660 H4647 0.960 . S
C4660 C4659 1.524 . S
C4661 C4658 1.403 . S
C4661 C4662 1.392 . S
C4661 C4665 1.495 . S
C4662 C4661 1.392 . S
C4662 C4663 1.385 . S
C4662 C4664 1.478 . S
C4663 H4657 0.930 . S
C4663 C4659 1.400 . S
C4663 C4662 1.385 . S
C4664 C4662 1.478 . S
C4664 C4666 1.381 . S
C4664 C4670 1.383 . S
C4665 C4661 1.495 . S
C4665 H4671 0.959 . S
C4665 H4672 0.961 . S
C4665 H4673 0.960 . S
C4666 C4664 1.381 . S
C4666 C4667 1.394 . S
C4666 H4674 0.930 . S
C4667 C4666 1.394 . S
C4667 C4668 1.383 . S
C4667 H4675 0.929 . S
C4668 C4667 1.383 . S
C4668 C4669 1.377 . S
C4669 H4653 0.930 . S
C4669 C4668 1.377 . S
C4669 C4670 1.379 . S
C4670 H4654 0.931 . S
C4670 C4664 1.383 . S
C4670 C4669 1.379 . S
H4671 C4665 0.959 . S
H4672 C4665 0.961 . S
H4673 C4665 0.960 . S
H4674 C4666 0.930 . S
H4675 C4667 0.929 . S
H4676 C4684 0.929 . S
H4677 C4686 0.930 . S
H4678 C4688 0.930 . S
H4679 C4691 0.929 . S
H4680 C4694 0.930 . S
H4681 C4696 0.960 . S
H4682 C4696 0.960 . S
H4683 C4696 0.960 . S
C4684 H4676 0.929 . S
C4684 C4685 1.377 . S
C4684 C4686 1.384 . S
C4685 C4684 1.377 . S
C4685 C4691 1.390 . S
C4686 H4677 0.930 . S
C4686 C4684 1.384 . S
C4686 C4687 1.372 . S
C4687 C4686 1.372 . S
C4687 C4688 1.400 . S
C4687 C4692 1.490 . S
C4688 H4678 0.930 . S
C4688 C4687 1.400 . S
C4688 C4691 1.386 . S
H4689 C4705 0.930 . S
H4690 C4706 0.931 . S
C4691 H4679 0.929 . S
C4691 C4685 1.390 . S
C4691 C4688 1.386 . S
C4692 C4687 1.490 . S
C4692 C4694 1.395 . S
C4692 C4695 1.403 . S
H4693 C4699 0.930 . S
C4694 H4680 0.930 . S
C4694 C4692 1.395 . S
C4694 C4697 1.403 . S
C4695 C4692 1.403 . S
C4695 C4696 1.524 . S
C4695 C4699 1.400 . S
C4696 H4681 0.960 . S
C4696 H4682 0.960 . S
C4696 H4683 0.960 . S
C4696 C4695 1.524 . S
C4697 C4694 1.403 . S
C4697 C4698 1.392 . S
C4697 C4701 1.495 . S
C4698 C4697 1.392 . S
C4698 C4699 1.385 . S
C4698 C4700 1.478 . S
C4699 H4693 0.930 . S
C4699 C4695 1.400 . S
C4699 C4698 1.385 . S
C4700 C4698 1.478 . S
C4700 C4702 1.381 . S
C4700 C4706 1.383 . S
C4701 C4697 1.495 . S
C4701 H4707 0.959 . S
C4701 H4708 0.961 . S
C4701 H4709 0.960 . S
C4702 C4700 1.381 . S
C4702 C4703 1.394 . S
C4702 H4710 0.930 . S
C4703 C4702 1.394 . S
C4703 C4704 1.383 . S
C4703 H4711 0.929 . S
C4704 C4703 1.383 . S
C4704 C4705 1.377 . S
C4705 H4689 0.930 . S
C4705 C4704 1.377 . S
C4705 C4706 1.379 . S
C4706 H4690 0.931 . S
C4706 C4700 1.383 . S
C4706 C4705 1.379 . S
H4707 C4701 0.959 . S
H4708 C4701 0.961 . S
H4709 C4701 0.960 . S
H4710 C4702 0.930 . S
H4711 C4703 0.929 . S
H4712 C4720 0.929 . S
H4713 C4722 0.930 . S
H4714 C4724 0.930 . S
H4715 C4727 0.929 . S
H4716 C4730 0.930 . S
H4717 C4732 0.960 . S
H4718 C4732 0.960 . S
H4719 C4732 0.960 . S
C4720 H4712 0.929 . S
C4720 C4721 1.377 . S
C4720 C4722 1.384 . S
C4721 C4720 1.377 . S
C4721 C4727 1.390 . S
C4722 H4713 0.930 . S
C4722 C4720 1.384 . S
C4722 C4723 1.372 . S
C4723 C4722 1.372 . S
C4723 C4724 1.400 . S
C4723 C4728 1.490 . S
C4724 H4714 0.930 . S
C4724 C4723 1.400 . S
C4724 C4727 1.386 . S
H4725 C4741 0.930 . S
H4726 C4742 0.931 . S
C4727 H4715 0.929 . S
C4727 C4721 1.390 . S
C4727 C4724 1.386 . S
C4728 C4723 1.490 . S
C4728 C4730 1.395 . S
C4728 C4731 1.403 . S
H4729 C4735 0.930 . S
C4730 H4716 0.930 . S
C4730 C4728 1.395 . S
C4730 C4733 1.403 . S
C4731 C4728 1.403 . S
C4731 C4732 1.524 . S
C4731 C4735 1.400 . S
C4732 H4717 0.960 . S
C4732 H4718 0.960 . S
C4732 H4719 0.960 . S
C4732 C4731 1.524 . S
C4733 C4730 1.403 . S
C4733 C4734 1.392 . S
C4733 C4737 1.495 . S
C4734 C4733 1.392 . S
C4734 C4735 1.385 . S
C4734 C4736 1.478 . S
C4735 H4729 0.930 . S
C4735 C4731 1.400 . S
C4735 C4734 1.385 . S
C4736 C4734 1.478 . S
C4736 C4738 1.381 . S
C4736 C4742 1.383 . S
C4737 C4733 1.495 . S
C4737 H4743 0.959 . S
C4737 H4744 0.961 . S
C4737 H4745 0.960 . S
C4738 C4736 1.381 . S
C4738 C4739 1.394 . S
C4738 H4746 0.930 . S
C4739 C4738 1.394 . S
C4739 C4740 1.383 . S
C4739 H4747 0.929 . S
C4740 C4739 1.383 . S
C4740 C4741 1.377 . S
C4741 H4725 0.930 . S
C4741 C4740 1.377 . S
C4741 C4742 1.379 . S
C4742 H4726 0.931 . S
C4742 C4736 1.383 . S
C4742 C4741 1.379 . S
H4743 C4737 0.959 . S
H4744 C4737 0.961 . S
H4745 C4737 0.960 . S
H4746 C4738 0.930 . S
H4747 C4739 0.929 . S
H4748 C4756 0.929 . S
H4749 C4758 0.930 . S
H4750 C4760 0.930 . S
H4751 C4763 0.929 . S
H4752 C4766 0.930 . S
H4753 C4768 0.960 . S
H4754 C4768 0.960 . S
H4755 C4768 0.960 . S
C4756 H4748 0.929 . S
C4756 C4757 1.377 . S
C4756 C4758 1.384 . S
C4757 C4756 1.377 . S
C4757 C4763 1.390 . S
C4758 H4749 0.930 . S
C4758 C4756 1.384 . S
C4758 C4759 1.372 . S
C4759 C4758 1.372 . S
C4759 C4760 1.400 . S
C4759 C4764 1.490 . S
C4760 H4750 0.930 . S
C4760 C4759 1.400 . S
C4760 C4763 1.386 . S
H4761 C4777 0.930 . S
H4762 C4778 0.931 . S
C4763 H4751 0.929 . S
C4763 C4757 1.390 . S
C4763 C4760 1.386 . S
C4764 C4759 1.490 . S
C4764 C4766 1.395 . S
C4764 C4767 1.403 . S
H4765 C4771 0.930 . S
C4766 H4752 0.930 . S
C4766 C4764 1.395 . S
C4766 C4769 1.403 . S
C4767 C4764 1.403 . S
C4767 C4768 1.524 . S
C4767 C4771 1.400 . S
C4768 H4753 0.960 . S
C4768 H4754 0.960 . S
C4768 H4755 0.960 . S
C4768 C4767 1.524 . S
C4769 C4766 1.403 . S
C4769 C4770 1.392 . S
C4769 C4773 1.495 . S
C4770 C4769 1.392 . S
C4770 C4771 1.385 . S
C4770 C4772 1.478 . S
C4771 H4765 0.930 . S
C4771 C4767 1.400 . S
C4771 C4770 1.385 . S
C4772 C4770 1.478 . S
C4772 C4774 1.381 . S
C4772 C4778 1.383 . S
C4773 C4769 1.495 . S
C4773 H4779 0.959 . S
C4773 H4780 0.961 . S
C4773 H4781 0.960 . S
C4774 C4772 1.381 . S
C4774 C4775 1.394 . S
C4774 H4782 0.930 . S
C4775 C4774 1.394 . S
C4775 C4776 1.383 . S
C4775 H4783 0.929 . S
C4776 C4775 1.383 . S
C4776 C4777 1.377 . S
C4777 H4761 0.930 . S
C4777 C4776 1.377 . S
C4777 C4778 1.379 . S
C4778 H4762 0.931 . S
C4778 C4772 1.383 . S
C4778 C4777 1.379 . S
H4779 C4773 0.959 . S
H4780 C4773 0.961 . S
H4781 C4773 0.960 . S
H4782 C4774 0.930 . S
H4783 C4775 0.929 . S
H4784 C4792 0.929 . S
H4785 C4794 0.930 . S
H4786 C4796 0.930 . S
H4787 C4799 0.929 . S
H4788 C4802 0.930 . S
H4789 C4804 0.960 . S
H4790 C4804 0.960 . S
H4791 C4804 0.960 . S
C4792 H4784 0.929 . S
C4792 C4793 1.377 . S
C4792 C4794 1.384 . S
C4793 C4792 1.377 . S
C4793 C4799 1.390 . S
C4794 H4785 0.930 . S
C4794 C4792 1.384 . S
C4794 C4795 1.372 . S
C4795 C4794 1.372 . S
C4795 C4796 1.400 . S
C4795 C4800 1.490 . S
C4796 H4786 0.930 . S
C4796 C4795 1.400 . S
C4796 C4799 1.386 . S
H4797 C4813 0.930 . S
H4798 C4814 0.931 . S
C4799 H4787 0.929 . S
C4799 C4793 1.390 . S
C4799 C4796 1.386 . S
C4800 C4795 1.490 . S
C4800 C4802 1.395 . S
C4800 C4803 1.403 . S
H4801 C4807 0.930 . S
C4802 H4788 0.930 . S
C4802 C4800 1.395 . S
C4802 C4805 1.403 . S
C4803 C4800 1.403 . S
C4803 C4804 1.524 . S
C4803 C4807 1.400 . S
C4804 H4789 0.960 . S
C4804 H4790 0.960 . S
C4804 H4791 0.960 . S
C4804 C4803 1.524 . S
C4805 C4802 1.403 . S
C4805 C4806 1.392 . S
C4805 C4809 1.495 . S
C4806 C4805 1.392 . S
C4806 C4807 1.385 . S
C4806 C4808 1.478 . S
C4807 H4801 0.930 . S
C4807 C4803 1.400 . S
C4807 C4806 1.385 . S
C4808 C4806 1.478 . S
C4808 C4810 1.381 . S
C4808 C4814 1.383 . S
C4809 C4805 1.495 . S
C4809 H4815 0.959 . S
C4809 H4816 0.961 . S
C4809 H4817 0.960 . S
C4810 C4808 1.381 . S
C4810 C4811 1.394 . S
C4810 H4818 0.930 . S
C4811 C4810 1.394 . S
C4811 C4812 1.383 . S
C4811 H4819 0.929 . S
C4812 C4811 1.383 . S
C4812 C4813 1.377 . S
C4813 H4797 0.930 . S
C4813 C4812 1.377 . S
C4813 C4814 1.379 . S
C4814 H4798 0.931 . S
C4814 C4808 1.383 . S
C4814 C4813 1.379 . S
H4815 C4809 0.959 . S
H4816 C4809 0.961 . S
H4817 C4809 0.960 . S
H4818 C4810 0.930 . S
H4819 C4811 0.929 . S
H4820 C4828 0.929 . S
H4821 C4830 0.930 . S
H4822 C4832 0.930 . S
H4823 C4835 0.929 . S
H4824 C4838 0.930 . S
H4825 C4840 0.960 . S
H4826 C4840 0.960 . S
H4827 C4840 0.960 . S
C4828 H4820 0.929 . S
C4828 C4829 1.377 . S
C4828 C4830 1.384 . S
C4829 C4828 1.377 . S
C4829 C4835 1.390 . S
C4830 H4821 0.930 . S
C4830 C4828 1.384 . S
C4830 C4831 1.372 . S
C4831 C4830 1.372 . S
C4831 C4832 1.400 . S
C4831 C4836 1.490 . S
C4832 H4822 0.930 . S
C4832 C4831 1.400 . S
C4832 C4835 1.386 . S
H4833 C4849 0.930 . S
H4834 C4850 0.931 . S
C4835 H4823 0.929 . S
C4835 C4829 1.390 . S
C4835 C4832 1.386 . S
C4836 C4831 1.490 . S
C4836 C4838 1.395 . S
C4836 C4839 1.403 . S
H4837 C4843 0.930 . S
C4838 H4824 0.930 . S
C4838 C4836 1.395 . S
C4838 C4841 1.403 . S
C4839 C4836 1.403 . S
C4839 C4840 1.524 . S
C4839 C4843 1.400 . S
C4840 H4825 0.960 . S
C4840 H4826 0.960 . S
C4840 H4827 0.960 . S
C4840 C4839 1.524 . S
C4841 C4838 1.403 . S
C4841 C4842 1.392 . S
C4841 C4845 1.495 . S
C4842 C4841 1.392 . S
C4842 C4843 1.385 . S
C4842 C4844 1.478 . S
C4843 H4837 0.930 . S
C4843 C4839 1.400 . S
C4843 C4842 1.385 . S
C4844 C4842 1.478 . S
C4844 C4846 1.381 . S
C4844 C4850 1.383 . S
C4845 C4841 1.495 . S
C4845 H4851 0.959 . S
C4845 H4852 0.961 . S
C4845 H4853 0.960 . S
C4846 C4844 1.381 . S
C4846 C4847 1.394 . S
C4846 H4854 0.930 . S
C4847 C4846 1.394 . S
C4847 C4848 1.383 . S
C4847 H4855 0.929 . S
C4848 C4847 1.383 . S
C4848 C4849 1.377 . S
C4849 H4833 0.930 . S
C4849 C4848 1.377 . S
C4849 C4850 1.379 . S
C4850 H4834 0.931 . S
C4850 C4844 1.383 . S
C4850 C4849 1.379 . S
H4851 C4845 0.959 . S
H4852 C4845 0.961 . S
H4853 C4845 0.960 . S
H4854 C4846 0.930 . S
H4855 C4847 0.929 . S
H4856 C4864 0.929 . S
H4857 C4866 0.930 . S
H4858 C4868 0.930 . S
H4859 C4871 0.929 . S
H4860 C4874 0.930 . S
H4861 C4876 0.960 . S
H4862 C4876 0.960 . S
H4863 C4876 0.960 . S
C4864 H4856 0.929 . S
C4864 C4865 1.377 . S
C4864 C4866 1.384 . S
C4865 C4864 1.377 . S
C4865 C4871 1.390 . S
C4866 H4857 0.930 . S
C4866 C4864 1.384 . S
C4866 C4867 1.372 . S
C4867 C4866 1.372 . S
C4867 C4868 1.400 . S
C4867 C4872 1.490 . S
C4868 H4858 0.930 . S
C4868 C4867 1.400 . S
C4868 C4871 1.386 . S
H4869 C4885 0.930 . S
H4870 C4886 0.931 . S
C4871 H4859 0.929 . S
C4871 C4865 1.390 . S
C4871 C4868 1.386 . S
C4872 C4867 1.490 . S
C4872 C4874 1.395 . S
C4872 C4875 1.403 . S
H4873 C4879 0.930 . S
C4874 H4860 0.930 . S
C4874 C4872 1.395 . S
C4874 C4877 1.403 . S
C4875 C4872 1.403 . S
C4875 C4876 1.524 . S
C4875 C4879 1.400 . S
C4876 H4861 0.960 . S
C4876 H4862 0.960 . S
C4876 H4863 0.960 . S
C4876 C4875 1.524 . S
C4877 C4874 1.403 . S
C4877 C4878 1.392 . S
C4877 C4881 1.495 . S
C4878 C4877 1.392 . S
C4878 C4879 1.385 . S
C4878 C4880 1.478 . S
C4879 H4873 0.930 . S
C4879 C4875 1.400 . S
C4879 C4878 1.385 . S
C4880 C4878 1.478 . S
C4880 C4882 1.381 . S
C4880 C4886 1.383 . S
C4881 C4877 1.495 . S
C4881 H4887 0.959 . S
C4881 H4888 0.961 . S
C4881 H4889 0.960 . S
C4882 C4880 1.381 . S
C4882 C4883 1.394 . S
C4882 H4890 0.930 . S
C4883 C4882 1.394 . S
C4883 C4884 1.383 . S
C4883 H4891 0.929 . S
C4884 C4883 1.383 . S
C4884 C4885 1.377 . S
C4885 H4869 0.930 . S
C4885 C4884 1.377 . S
C4885 C4886 1.379 . S
C4886 H4870 0.931 . S
C4886 C4880 1.383 . S
C4886 C4885 1.379 . S
H4887 C4881 0.959 . S
H4888 C4881 0.961 . S
H4889 C4881 0.960 . S
H4890 C4882 0.930 . S
H4891 C4883 0.929 . S
H4892 C4900 0.929 . S
H4893 C4902 0.930 . S
H4894 C4904 0.930 . S
H4895 C4907 0.929 . S
H4896 C4910 0.930 . S
H4897 C4912 0.960 . S
H4898 C4912 0.960 . S
H4899 C4912 0.960 . S
C4900 H4892 0.929 . S
C4900 C4901 1.377 . S
C4900 C4902 1.384 . S
C4901 C4900 1.377 . S
C4901 C4907 1.390 . S
C4902 H4893 0.930 . S
C4902 C4900 1.384 . S
C4902 C4903 1.372 . S
C4903 C4902 1.372 . S
C4903 C4904 1.400 . S
C4903 C4908 1.490 . S
C4904 H4894 0.930 . S
C4904 C4903 1.400 . S
C4904 C4907 1.386 . S
H4905 C4921 0.930 . S
H4906 C4922 0.931 . S
C4907 H4895 0.929 . S
C4907 C4901 1.390 . S
C4907 C4904 1.386 . S
C4908 C4903 1.490 . S
C4908 C4910 1.395 . S
C4908 C4911 1.403 . S
H4909 C4915 0.930 . S
C4910 H4896 0.930 . S
C4910 C4908 1.395 . S
C4910 C4913 1.403 . S
C4911 C4908 1.403 . S
C4911 C4912 1.524 . S
C4911 C4915 1.400 . S
C4912 H4897 0.960 . S
C4912 H4898 0.960 . S
C4912 H4899 0.960 . S
C4912 C4911 1.524 . S
C4913 C4910 1.403 . S
C4913 C4914 1.392 . S
C4913 C4917 1.495 . S
C4914 C4913 1.392 . S
C4914 C4915 1.385 . S
C4914 C4916 1.478 . S
C4915 H4909 0.930 . S
C4915 C4911 1.400 . S
C4915 C4914 1.385 . S
C4916 C4914 1.478 . S
C4916 C4918 1.381 . S
C4916 C4922 1.383 . S
C4917 C4913 1.495 . S
C4917 H4923 0.959 . S
C4917 H4924 0.961 . S
C4917 H4925 0.960 . S
C4918 C4916 1.381 . S
C4918 C4919 1.394 . S
C4918 H4926 0.930 . S
C4919 C4918 1.394 . S
C4919 C4920 1.383 . S
C4919 H4927 0.929 . S
C4920 C4919 1.383 . S
C4920 C4921 1.377 . S
C4921 H4905 0.930 . S
C4921 C4920 1.377 . S
C4921 C4922 1.379 . S
C4922 H4906 0.931 . S
C4922 C4916 1.383 . S
C4922 C4921 1.379 . S
H4923 C4917 0.959 . S
H4924 C4917 0.961 . S
H4925 C4917 0.960 . S
H4926 C4918 0.930 . S
H4927 C4919 0.929 . S
H4928 C4936 0.929 . S
H4929 C4938 0.930 . S
H4930 C4940 0.930 . S
H4931 C4943 0.929 . S
H4932 C4946 0.930 . S
H4933 C4948 0.960 . S
H4934 C4948 0.960 . S
H4935 C4948 0.960 . S
C4936 H4928 0.929 . S
C4936 C4937 1.377 . S
C4936 C4938 1.384 . S
C4937 C4936 1.377 . S
C4937 C4943 1.390 . S
C4938 H4929 0.930 . S
C4938 C4936 1.384 . S
C4938 C4939 1.372 . S
C4939 C4938 1.372 . S
C4939 C4940 1.400 . S
C4939 C4944 1.490 . S
C4940 H4930 0.930 . S
C4940 C4939 1.400 . S
C4940 C4943 1.386 . S
H4941 C4957 0.930 . S
H4942 C4958 0.931 . S
C4943 H4931 0.929 . S
C4943 C4937 1.390 . S
C4943 C4940 1.386 . S
C4944 C4939 1.490 . S
C4944 C4946 1.395 . S
C4944 C4947 1.403 . S
H4945 C4951 0.930 . S
C4946 H4932 0.930 . S
C4946 C4944 1.395 . S
C4946 C4949 1.403 . S
C4947 C4944 1.403 . S
C4947 C4948 1.524 . S
C4947 C4951 1.400 . S
C4948 H4933 0.960 . S
C4948 H4934 0.960 . S
C4948 H4935 0.960 . S
C4948 C4947 1.524 . S
C4949 C4946 1.403 . S
C4949 C4950 1.392 . S
C4949 C4953 1.495 . S
C4950 C4949 1.392 . S
C4950 C4951 1.385 . S
C4950 C4952 1.478 . S
C4951 H4945 0.930 . S
C4951 C4947 1.400 . S
C4951 C4950 1.385 . S
C4952 C4950 1.478 . S
C4952 C4954 1.381 . S
C4952 C4958 1.383 . S
C4953 C4949 1.495 . S
C4953 H4959 0.959 . S
C4953 H4960 0.961 . S
C4953 H4961 0.960 . S
C4954 C4952 1.381 . S
C4954 C4955 1.394 . S
C4954 H4962 0.930 . S
C4955 C4954 1.394 . S
C4955 C4956 1.383 . S
C4955 H4963 0.929 . S
C4956 C4955 1.383 . S
C4956 C4957 1.377 . S
C4957 H4941 0.930 . S
C4957 C4956 1.377 . S
C4957 C4958 1.379 . S
C4958 H4942 0.931 . S
C4958 C4952 1.383 . S
C4958 C4957 1.379 . S
H4959 C4953 0.959 . S
H4960 C4953 0.961 . S
H4961 C4953 0.960 . S
H4962 C4954 0.930 . S
H4963 C4955 0.929 . S
H4964 C4972 0.929 . S
H4965 C4974 0.930 . S
H4966 C4976 0.930 . S
H4967 C4979 0.929 . S
H4968 C4982 0.930 . S
H4969 C4984 0.960 . S
H4970 C4984 0.960 . S
H4971 C4984 0.960 . S
C4972 H4964 0.929 . S
C4972 C4973 1.377 . S
C4972 C4974 1.384 . S
C4973 C4972 1.377 . S
C4973 C4979 1.390 . S
C4974 H4965 0.930 . S
C4974 C4972 1.384 . S
C4974 C4975 1.372 . S
C4975 C4974 1.372 . S
C4975 C4976 1.400 . S
C4975 C4980 1.490 . S
C4976 H4966 0.930 . S
C4976 C4975 1.400 . S
C4976 C4979 1.386 . S
H4977 C4993 0.930 . S
H4978 C4994 0.931 . S
C4979 H4967 0.929 . S
C4979 C4973 1.390 . S
C4979 C4976 1.386 . S
C4980 C4975 1.490 . S
C4980 C4982 1.395 . S
C4980 C4983 1.403 . S
H4981 C4987 0.930 . S
C4982 H4968 0.930 . S
C4982 C4980 1.395 . S
C4982 C4985 1.403 . S
C4983 C4980 1.403 . S
C4983 C4984 1.524 . S
C4983 C4987 1.400 . S
C4984 H4969 0.960 . S
C4984 H4970 0.960 . S
C4984 H4971 0.960 . S
C4984 C4983 1.524 . S
C4985 C4982 1.403 . S
C4985 C4986 1.392 . S
C4985 C4989 1.495 . S
C4986 C4985 1.392 . S
C4986 C4987 1.385 . S
C4986 C4988 1.478 . S
C4987 H4981 0.930 . S
C4987 C4983 1.400 . S
C4987 C4986 1.385 . S
C4988 C4986 1.478 . S
C4988 C4990 1.381 . S
C4988 C4994 1.383 . S
C4989 C4985 1.495 . S
C4989 H4995 0.959 . S
C4989 H4996 0.961 . S
C4989 H4997 0.960 . S
C4990 C4988 1.381 . S
C4990 C4991 1.394 . S
C4990 H4998 0.930 . S
C4991 C4990 1.394 . S
C4991 C4992 1.383 . S
C4991 H4999 0.929 . S
C4992 C4991 1.383 . S
C4992 C4993 1.377 . S
C4993 H4977 0.930 . S
C4993 C4992 1.377 . S
C4993 C4994 1.379 . S
C4994 H4978 0.931 . S
C4994 C4988 1.383 . S
C4994 C4993 1.379 . S
H4995 C4989 0.959 . S
H4996 C4989 0.961 . S
H4997 C4989 0.960 . S
H4998 C4990 0.930 . S
H4999 C4991 0.929 . S
H5000 C5008 0.929 . S
H5001 C5010 0.930 . S
H5002 C5012 0.930 . S
H5003 C5015 0.929 . S
H5004 C5018 0.930 . S
H5005 C5020 0.960 . S
H5006 C5020 0.960 . S
H5007 C5020 0.960 . S
C5008 H5000 0.929 . S
C5008 C5009 1.377 . S
C5008 C5010 1.384 . S
C5009 C5008 1.377 . S
C5009 C5015 1.390 . S
C5010 H5001 0.930 . S
C5010 C5008 1.384 . S
C5010 C5011 1.372 . S
C5011 C5010 1.372 . S
C5011 C5012 1.400 . S
C5011 C5016 1.490 . S
C5012 H5002 0.930 . S
C5012 C5011 1.400 . S
C5012 C5015 1.386 . S
H5013 C5029 0.930 . S
H5014 C5030 0.931 . S
C5015 H5003 0.929 . S
C5015 C5009 1.390 . S
C5015 C5012 1.386 . S
C5016 C5011 1.490 . S
C5016 C5018 1.395 . S
C5016 C5019 1.403 . S
H5017 C5023 0.930 . S
C5018 H5004 0.930 . S
C5018 C5016 1.395 . S
C5018 C5021 1.403 . S
C5019 C5016 1.403 . S
C5019 C5020 1.524 . S
C5019 C5023 1.400 . S
C5020 H5005 0.960 . S
C5020 H5006 0.960 . S
C5020 H5007 0.960 . S
C5020 C5019 1.524 . S
C5021 C5018 1.403 . S
C5021 C5022 1.392 . S
C5021 C5025 1.495 . S
C5022 C5021 1.392 . S
C5022 C5023 1.385 . S
C5022 C5024 1.478 . S
C5023 H5017 0.930 . S
C5023 C5019 1.400 . S
C5023 C5022 1.385 . S
C5024 C5022 1.478 . S
C5024 C5026 1.381 . S
C5024 C5030 1.383 . S
C5025 C5021 1.495 . S
C5025 H5031 0.959 . S
C5025 H5032 0.961 . S
C5025 H5033 0.960 . S
C5026 C5024 1.381 . S
C5026 C5027 1.394 . S
C5026 H5034 0.930 . S
C5027 C5026 1.394 . S
C5027 C5028 1.383 . S
C5027 H5035 0.929 . S
C5028 C5027 1.383 . S
C5028 C5029 1.377 . S
C5029 H5013 0.930 . S
C5029 C5028 1.377 . S
C5029 C5030 1.379 . S
C5030 H5014 0.931 . S
C5030 C5024 1.383 . S
C5030 C5029 1.379 . S
H5031 C5025 0.959 . S
H5032 C5025 0.961 . S
H5033 C5025 0.960 . S
H5034 C5026 0.930 . S
H5035 C5027 0.929 . S
H5036 C5044 0.929 . S
H5037 C5046 0.930 . S
H5038 C5048 0.930 . S
H5039 C5051 0.929 . S
H5040 C5054 0.930 . S
H5041 C5056 0.960 . S
H5042 C5056 0.960 . S
H5043 C5056 0.960 . S
C5044 H5036 0.929 . S
C5044 C5045 1.377 . S
C5044 C5046 1.384 . S
C5045 C5044 1.377 . S
C5045 C5051 1.390 . S
C5046 H5037 0.930 . S
C5046 C5044 1.384 . S
C5046 C5047 1.372 . S
C5047 C5046 1.372 . S
C5047 C5048 1.400 . S
C5047 C5052 1.490 . S
C5048 H5038 0.930 . S
C5048 C5047 1.400 . S
C5048 C5051 1.386 . S
H5049 C5065 0.930 . S
H5050 C5066 0.931 . S
C5051 H5039 0.929 . S
C5051 C5045 1.390 . S
C5051 C5048 1.386 . S
C5052 C5047 1.490 . S
C5052 C5054 1.395 . S
C5052 C5055 1.403 . S
H5053 C5059 0.930 . S
C5054 H5040 0.930 . S
C5054 C5052 1.395 . S
C5054 C5057 1.403 . S
C5055 C5052 1.403 . S
C5055 C5056 1.524 . S
C5055 C5059 1.400 . S
C5056 H5041 0.960 . S
C5056 H5042 0.960 . S
C5056 H5043 0.960 . S
C5056 C5055 1.524 . S
C5057 C5054 1.403 . S
C5057 C5058 1.392 . S
C5057 C5061 1.495 . S
C5058 C5057 1.392 . S
C5058 C5059 1.385 . S
C5058 C5060 1.478 . S
C5059 H5053 0.930 . S
C5059 C5055 1.400 . S
C5059 C5058 1.385 . S
C5060 C5058 1.478 . S
C5060 C5062 1.381 . S
C5060 C5066 1.383 . S
C5061 C5057 1.495 . S
C5061 H5067 0.959 . S
C5061 H5068 0.961 . S
C5061 H5069 0.960 . S
C5062 C5060 1.381 . S
C5062 C5063 1.394 . S
C5062 H5070 0.930 . S
C5063 C5062 1.394 . S
C5063 C5064 1.383 . S
C5063 H5071 0.929 . S
C5064 C5063 1.383 . S
C5064 C5065 1.377 . S
C5065 H5049 0.930 . S
C5065 C5064 1.377 . S
C5065 C5066 1.379 . S
C5066 H5050 0.931 . S
C5066 C5060 1.383 . S
C5066 C5065 1.379 . S
H5067 C5061 0.959 . S
H5068 C5061 0.961 . S
H5069 C5061 0.960 . S
H5070 C5062 0.930 . S
H5071 C5063 0.929 . S
H5072 C5080 0.929 . S
H5073 C5082 0.930 . S
H5074 C5084 0.930 . S
H5075 C5087 0.929 . S
H5076 C5090 0.930 . S
H5077 C5092 0.960 . S
H5078 C5092 0.960 . S
H5079 C5092 0.960 . S
C5080 H5072 0.929 . S
C5080 C5081 1.377 . S
C5080 C5082 1.384 . S
C5081 C5080 1.377 . S
C5081 C5087 1.390 . S
C5082 H5073 0.930 . S
C5082 C5080 1.384 . S
C5082 C5083 1.372 . S
C5083 C5082 1.372 . S
C5083 C5084 1.400 . S
C5083 C5088 1.490 . S
C5084 H5074 0.930 . S
C5084 C5083 1.400 . S
C5084 C5087 1.386 . S
H5085 C5101 0.930 . S
H5086 C5102 0.931 . S
C5087 H5075 0.929 . S
C5087 C5081 1.390 . S
C5087 C5084 1.386 . S
C5088 C5083 1.490 . S
C5088 C5090 1.395 . S
C5088 C5091 1.403 . S
H5089 C5095 0.930 . S
C5090 H5076 0.930 . S
C5090 C5088 1.395 . S
C5090 C5093 1.403 . S
C5091 C5088 1.403 . S
C5091 C5092 1.524 . S
C5091 C5095 1.400 . S
C5092 H5077 0.960 . S
C5092 H5078 0.960 . S
C5092 H5079 0.960 . S
C5092 C5091 1.524 . S
C5093 C5090 1.403 . S
C5093 C5094 1.392 . S
C5093 C5097 1.495 . S
C5094 C5093 1.392 . S
C5094 C5095 1.385 . S
C5094 C5096 1.478 . S
C5095 H5089 0.930 . S
C5095 C5091 1.400 . S
C5095 C5094 1.385 . S
C5096 C5094 1.478 . S
C5096 C5098 1.381 . S
C5096 C5102 1.383 . S
C5097 C5093 1.495 . S
C5097 H5103 0.959 . S
C5097 H5104 0.961 . S
C5097 H5105 0.960 . S
C5098 C5096 1.381 . S
C5098 C5099 1.394 . S
C5098 H5106 0.930 . S
C5099 C5098 1.394 . S
C5099 C5100 1.383 . S
C5099 H5107 0.929 . S
C5100 C5099 1.383 . S
C5100 C5101 1.377 . S
C5101 H5085 0.930 . S
C5101 C5100 1.377 . S
C5101 C5102 1.379 . S
C5102 H5086 0.931 . S
C5102 C5096 1.383 . S
C5102 C5101 1.379 . S
H5103 C5097 0.959 . S
H5104 C5097 0.961 . S
H5105 C5097 0.960 . S
H5106 C5098 0.930 . S
H5107 C5099 0.929 . S
H5108 C5116 0.929 . S
H5109 C5118 0.930 . S
H5110 C5120 0.930 . S
H5111 C5123 0.929 . S
H5112 C5126 0.930 . S
H5113 C5128 0.960 . S
H5114 C5128 0.960 . S
H5115 C5128 0.960 . S
C5116 H5108 0.929 . S
C5116 C5117 1.377 . S
C5116 C5118 1.384 . S
C5117 C5116 1.377 . S
C5117 C5123 1.390 . S
C5118 H5109 0.930 . S
C5118 C5116 1.384 . S
C5118 C5119 1.372 . S
C5119 C5118 1.372 . S
C5119 C5120 1.400 . S
C5119 C5124 1.490 . S
C5120 H5110 0.930 . S
C5120 C5119 1.400 . S
C5120 C5123 1.386 . S
H5121 C5137 0.930 . S
H5122 C5138 0.931 . S
C5123 H5111 0.929 . S
C5123 C5117 1.390 . S
C5123 C5120 1.386 . S
C5124 C5119 1.490 . S
C5124 C5126 1.395 . S
C5124 C5127 1.403 . S
H5125 C5131 0.930 . S
C5126 H5112 0.930 . S
C5126 C5124 1.395 . S
C5126 C5129 1.403 . S
C5127 C5124 1.403 . S
C5127 C5128 1.524 . S
C5127 C5131 1.400 . S
C5128 H5113 0.960 . S
C5128 H5114 0.960 . S
C5128 H5115 0.960 . S
C5128 C5127 1.524 . S
C5129 C5126 1.403 . S
C5129 C5130 1.392 . S
C5129 C5133 1.495 . S
C5130 C5129 1.392 . S
C5130 C5131 1.385 . S
C5130 C5132 1.478 . S
C5131 H5125 0.930 . S
C5131 C5127 1.400 . S
C5131 C5130 1.385 . S
C5132 C5130 1.478 . S
C5132 C5134 1.381 . S
C5132 C5138 1.383 . S
C5133 C5129 1.495 . S
C5133 H5139 0.959 . S
C5133 H5140 0.961 . S
C5133 H5141 0.960 . S
C5134 C5132 1.381 . S
C5134 C5135 1.394 . S
C5134 H5142 0.930 . S
C5135 C5134 1.394 . S
C5135 C5136 1.383 . S
C5135 H5143 0.929 . S
C5136 C5135 1.383 . S
C5136 C5137 1.377 . S
C5137 H5121 0.930 . S
C5137 C5136 1.377 . S
C5137 C5138 1.379 . S
C5138 H5122 0.931 . S
C5138 C5132 1.383 . S
C5138 C5137 1.379 . S
H5139 C5133 0.959 . S
H5140 C5133 0.961 . S
H5141 C5133 0.960 . S
H5142 C5134 0.930 . S
H5143 C5135 0.929 . S
H5144 C5152 0.929 . S
H5145 C5154 0.930 . S
H5146 C5156 0.930 . S
H5147 C5159 0.929 . S
H5148 C5162 0.930 . S
H5149 C5164 0.960 . S
H5150 C5164 0.960 . S
H5151 C5164 0.960 . S
C5152 H5144 0.929 . S
C5152 C5153 1.377 . S
C5152 C5154 1.384 . S
C5153 C5152 1.377 . S
C5153 C5159 1.390 . S
C5154 H5145 0.930 . S
C5154 C5152 1.384 . S
C5154 C5155 1.372 . S
C5155 C5154 1.372 . S
C5155 C5156 1.400 . S
C5155 C5160 1.490 . S
C5156 H5146 0.930 . S
C5156 C5155 1.400 . S
C5156 C5159 1.386 . S
H5157 C5173 0.930 . S
H5158 C5174 0.931 . S
C5159 H5147 0.929 . S
C5159 C5153 1.390 . S
C5159 C5156 1.386 . S
C5160 C5155 1.490 . S
C5160 C5162 1.395 . S
C5160 C5163 1.403 . S
H5161 C5167 0.930 . S
C5162 H5148 0.930 . S
C5162 C5160 1.395 . S
C5162 C5165 1.403 . S
C5163 C5160 1.403 . S
C5163 C5164 1.524 . S
C5163 C5167 1.400 . S
C5164 H5149 0.960 . S
C5164 H5150 0.960 . S
C5164 H5151 0.960 . S
C5164 C5163 1.524 . S
C5165 C5162 1.403 . S
C5165 C5166 1.392 . S
C5165 C5169 1.495 . S
C5166 C5165 1.392 . S
C5166 C5167 1.385 . S
C5166 C5168 1.478 . S
C5167 H5161 0.930 . S
C5167 C5163 1.400 . S
C5167 C5166 1.385 . S
C5168 C5166 1.478 . S
C5168 C5170 1.381 . S
C5168 C5174 1.383 . S
C5169 C5165 1.495 . S
C5169 H5175 0.959 . S
C5169 H5176 0.961 . S
C5169 H5177 0.960 . S
C5170 C5168 1.381 . S
C5170 C5171 1.394 . S
C5170 H5178 0.930 . S
C5171 C5170 1.394 . S
C5171 C5172 1.383 . S
C5171 H5179 0.929 . S
C5172 C5171 1.383 . S
C5172 C5173 1.377 . S
C5173 H5157 0.930 . S
C5173 C5172 1.377 . S
C5173 C5174 1.379 . S
C5174 H5158 0.931 . S
C5174 C5168 1.383 . S
C5174 C5173 1.379 . S
H5175 C5169 0.959 . S
H5176 C5169 0.961 . S
H5177 C5169 0.960 . S
H5178 C5170 0.930 . S
H5179 C5171 0.929 . S
H5180 C5188 0.929 . S
H5181 C5190 0.930 . S
H5182 C5192 0.930 . S
H5183 C5195 0.929 . S
H5184 C5198 0.930 . S
H5185 C5200 0.960 . S
H5186 C5200 0.960 . S
H5187 C5200 0.960 . S
C5188 H5180 0.929 . S
C5188 C5189 1.377 . S
C5188 C5190 1.384 . S
C5189 C5188 1.377 . S
C5189 C5195 1.390 . S
C5190 H5181 0.930 . S
C5190 C5188 1.384 . S
C5190 C5191 1.372 . S
C5191 C5190 1.372 . S
C5191 C5192 1.400 . S
C5191 C5196 1.490 . S
C5192 H5182 0.930 . S
C5192 C5191 1.400 . S
C5192 C5195 1.386 . S
H5193 C5209 0.930 . S
H5194 C5210 0.931 . S
C5195 H5183 0.929 . S
C5195 C5189 1.390 . S
C5195 C5192 1.386 . S
C5196 C5191 1.490 . S
C5196 C5198 1.395 . S
C5196 C5199 1.403 . S
H5197 C5203 0.930 . S
C5198 H5184 0.930 . S
C5198 C5196 1.395 . S
C5198 C5201 1.403 . S
C5199 C5196 1.403 . S
C5199 C5200 1.524 . S
C5199 C5203 1.400 . S
C5200 H5185 0.960 . S
C5200 H5186 0.960 . S
C5200 H5187 0.960 . S
C5200 C5199 1.524 . S
C5201 C5198 1.403 . S
C5201 C5202 1.392 . S
C5201 C5205 1.495 . S
C5202 C5201 1.392 . S
C5202 C5203 1.385 . S
C5202 C5204 1.478 . S
C5203 H5197 0.930 . S
C5203 C5199 1.400 . S
C5203 C5202 1.385 . S
C5204 C5202 1.478 . S
C5204 C5206 1.381 . S
C5204 C5210 1.383 . S
C5205 C5201 1.495 . S
C5205 H5211 0.959 . S
C5205 H5212 0.961 . S
C5205 H5213 0.960 . S
C5206 C5204 1.381 . S
C5206 C5207 1.394 . S
C5206 H5214 0.930 . S
C5207 C5206 1.394 . S
C5207 C5208 1.383 . S
C5207 H5215 0.929 . S
C5208 C5207 1.383 . S
C5208 C5209 1.377 . S
C5209 H5193 0.930 . S
C5209 C5208 1.377 . S
C5209 C5210 1.379 . S
C5210 H5194 0.931 . S
C5210 C5204 1.383 . S
C5210 C5209 1.379 . S
H5211 C5205 0.959 . S
H5212 C5205 0.961 . S
H5213 C5205 0.960 . S
H5214 C5206 0.930 . S
H5215 C5207 0.929 . S
H5216 C5224 0.929 . S
H5217 C5226 0.930 . S
H5218 C5228 0.930 . S
H5219 C5231 0.929 . S
H5220 C5234 0.930 . S
H5221 C5236 0.960 . S
H5222 C5236 0.960 . S
H5223 C5236 0.960 . S
C5224 H5216 0.929 . S
C5224 C5225 1.377 . S
C5224 C5226 1.384 . S
C5225 C5224 1.377 . S
C5225 C5231 1.390 . S
C5226 H5217 0.930 . S
C5226 C5224 1.384 . S
C5226 C5227 1.372 . S
C5227 C5226 1.372 . S
C5227 C5228 1.400 . S
C5227 C5232 1.490 . S
C5228 H5218 0.930 . S
C5228 C5227 1.400 . S
C5228 C5231 1.386 . S
H5229 C5245 0.930 . S
H5230 C5246 0.931 . S
C5231 H5219 0.929 . S
C5231 C5225 1.390 . S
C5231 C5228 1.386 . S
C5232 C5227 1.490 . S
C5232 C5234 1.395 . S
C5232 C5235 1.403 . S
H5233 C5239 0.930 . S
C5234 H5220 0.930 . S
C5234 C5232 1.395 . S
C5234 C5237 1.403 . S
C5235 C5232 1.403 . S
C5235 C5236 1.524 . S
C5235 C5239 1.400 . S
C5236 H5221 0.960 . S
C5236 H5222 0.960 . S
C5236 H5223 0.960 . S
C5236 C5235 1.524 . S
C5237 C5234 1.403 . S
C5237 C5238 1.392 . S
C5237 C5241 1.495 . S
C5238 C5237 1.392 . S
C5238 C5239 1.385 . S
C5238 C5240 1.478 . S
C5239 H5233 0.930 . S
C5239 C5235 1.400 . S
C5239 C5238 1.385 . S
C5240 C5238 1.478 . S
C5240 C5242 1.381 . S
C5240 C5246 1.383 . S
C5241 C5237 1.495 . S
C5241 H5247 0.959 . S
C5241 H5248 0.961 . S
C5241 H5249 0.960 . S
C5242 C5240 1.381 . S
C5242 C5243 1.394 . S
C5242 H5250 0.930 . S
C5243 C5242 1.394 . S
C5243 C5244 1.383 . S
C5243 H5251 0.929 . S
C5244 C5243 1.383 . S
C5244 C5245 1.377 . S
C5245 H5229 0.930 . S
C5245 C5244 1.377 . S
C5245 C5246 1.379 . S
C5246 H5230 0.931 . S
C5246 C5240 1.383 . S
C5246 C5245 1.379 . S
H5247 C5241 0.959 . S
H5248 C5241 0.961 . S
H5249 C5241 0.960 . S
H5250 C5242 0.930 . S
H5251 C5243 0.929 . S
H5252 C5260 0.929 . S
H5253 C5262 0.930 . S
H5254 C5264 0.930 . S
H5255 C5267 0.929 . S
H5256 C5270 0.930 . S
H5257 C5272 0.960 . S
H5258 C5272 0.960 . S
H5259 C5272 0.960 . S
C5260 H5252 0.929 . S
C5260 C5261 1.377 . S
C5260 C5262 1.384 . S
C5261 C5260 1.377 . S
C5261 C5267 1.390 . S
C5262 H5253 0.930 . S
C5262 C5260 1.384 . S
C5262 C5263 1.372 . S
C5263 C5262 1.372 . S
C5263 C5264 1.400 . S
C5263 C5268 1.490 . S
C5264 H5254 0.930 . S
C5264 C5263 1.400 . S
C5264 C5267 1.386 . S
H5265 C5281 0.930 . S
H5266 C5282 0.931 . S
C5267 H5255 0.929 . S
C5267 C5261 1.390 . S
C5267 C5264 1.386 . S
C5268 C5263 1.490 . S
C5268 C5270 1.395 . S
C5268 C5271 1.403 . S
H5269 C5275 0.930 . S
C5270 H5256 0.930 . S
C5270 C5268 1.395 . S
C5270 C5273 1.403 . S
C5271 C5268 1.403 . S
C5271 C5272 1.524 . S
C5271 C5275 1.400 . S
C5272 H5257 0.960 . S
C5272 H5258 0.960 . S
C5272 H5259 0.960 . S
C5272 C5271 1.524 . S
C5273 C5270 1.403 . S
C5273 C5274 1.392 . S
C5273 C5277 1.495 . S
C5274 C5273 1.392 . S
C5274 C5275 1.385 . S
C5274 C5276 1.478 . S
C5275 H5269 0.930 . S
C5275 C5271 1.400 . S
C5275 C5274 1.385 . S
C5276 C5274 1.478 . S
C5276 C5278 1.381 . S
C5276 C5282 1.383 . S
C5277 C5273 1.495 . S
C5277 H5283 0.959 . S
C5277 H5284 0.961 . S
C5277 H5285 0.960 . S
C5278 C5276 1.381 . S
C5278 C5279 1.394 . S
C5278 H5286 0.930 . S
C5279 C5278 1.394 . S
C5279 C5280 1.383 . S
C5279 H5287 0.929 . S
C5280 C5279 1.383 . S
C5280 C5281 1.377 . S
C5281 H5265 0.930 . S
C5281 C5280 1.377 . S
C5281 C5282 1.379 . S
C5282 H5266 0.931 . S
C5282 C5276 1.383 . S
C5282 C5281 1.379 . S
H5283 C5277 0.959 . S
H5284 C5277 0.961 . S
H5285 C5277 0.960 . S
H5286 C5278 0.930 . S
H5287 C5279 0.929 . S
H5288 C5296 0.929 . S
H5289 C5298 0.930 . S
H5290 C5300 0.930 . S
H5291 C5303 0.929 . S
H5292 C5306 0.930 . S
H5293 C5308 0.960 . S
H5294 C5308 0.960 . S
H5295 C5308 0.960 . S
C5296 H5288 0.929 . S
C5296 C5297 1.377 . S
C5296 C5298 1.384 . S
C5297 C5296 1.377 . S
C5297 C5303 1.390 . S
C5298 H5289 0.930 . S
C5298 C5296 1.384 . S
C5298 C5299 1.372 . S
C5299 C5298 1.372 . S
C5299 C5300 1.400 . S
C5299 C5304 1.490 . S
C5300 H5290 0.930 . S
C5300 C5299 1.400 . S
C5300 C5303 1.386 . S
H5301 C5317 0.930 . S
H5302 C5318 0.931 . S
C5303 H5291 0.929 . S
C5303 C5297 1.390 . S
C5303 C5300 1.386 . S
C5304 C5299 1.490 . S
C5304 C5306 1.395 . S
C5304 C5307 1.403 . S
H5305 C5311 0.930 . S
C5306 H5292 0.930 . S
C5306 C5304 1.395 . S
C5306 C5309 1.403 . S
C5307 C5304 1.403 . S
C5307 C5308 1.524 . S
C5307 C5311 1.400 . S
C5308 H5293 0.960 . S
C5308 H5294 0.960 . S
C5308 H5295 0.960 . S
C5308 C5307 1.524 . S
C5309 C5306 1.403 . S
C5309 C5310 1.392 . S
C5309 C5313 1.495 . S
C5310 C5309 1.392 . S
C5310 C5311 1.385 . S
C5310 C5312 1.478 . S
C5311 H5305 0.930 . S
C5311 C5307 1.400 . S
C5311 C5310 1.385 . S
C5312 C5310 1.478 . S
C5312 C5314 1.381 . S
C5312 C5318 1.383 . S
C5313 C5309 1.495 . S
C5313 H5319 0.959 . S
C5313 H5320 0.961 . S
C5313 H5321 0.960 . S
C5314 C5312 1.381 . S
C5314 C5315 1.394 . S
C5314 H5322 0.930 . S
C5315 C5314 1.394 . S
C5315 C5316 1.383 . S
C5315 H5323 0.929 . S
C5316 C5315 1.383 . S
C5316 C5317 1.377 . S
C5317 H5301 0.930 . S
C5317 C5316 1.377 . S
C5317 C5318 1.379 . S
C5318 H5302 0.931 . S
C5318 C5312 1.383 . S
C5318 C5317 1.379 . S
H5319 C5313 0.959 . S
H5320 C5313 0.961 . S
H5321 C5313 0.960 . S
H5322 C5314 0.930 . S
H5323 C5315 0.929 . S
H5324 C5332 0.929 . S
H5325 C5334 0.930 . S
H5326 C5336 0.930 . S
H5327 C5339 0.929 . S
H5328 C5342 0.930 . S
H5329 C5344 0.960 . S
H5330 C5344 0.960 . S
H5331 C5344 0.960 . S
C5332 H5324 0.929 . S
C5332 C5333 1.377 . S
C5332 C5334 1.384 . S
C5333 C5332 1.377 . S
C5333 C5339 1.390 . S
C5334 H5325 0.930 . S
C5334 C5332 1.384 . S
C5334 C5335 1.372 . S
C5335 C5334 1.372 . S
C5335 C5336 1.400 . S
C5335 C5340 1.490 . S
C5336 H5326 0.930 . S
C5336 C5335 1.400 . S
C5336 C5339 1.386 . S
H5337 C5353 0.930 . S
H5338 C5354 0.931 . S
C5339 H5327 0.929 . S
C5339 C5333 1.390 . S
C5339 C5336 1.386 . S
C5340 C5335 1.490 . S
C5340 C5342 1.395 . S
C5340 C5343 1.403 . S
H5341 C5347 0.930 . S
C5342 H5328 0.930 . S
C5342 C5340 1.395 . S
C5342 C5345 1.403 . S
C5343 C5340 1.403 . S
C5343 C5344 1.524 . S
C5343 C5347 1.400 . S
C5344 H5329 0.960 . S
C5344 H5330 0.960 . S
C5344 H5331 0.960 . S
C5344 C5343 1.524 . S
C5345 C5342 1.403 . S
C5345 C5346 1.392 . S
C5345 C5349 1.495 . S
C5346 C5345 1.392 . S
C5346 C5347 1.385 . S
C5346 C5348 1.478 . S
C5347 H5341 0.930 . S
C5347 C5343 1.400 . S
C5347 C5346 1.385 . S
C5348 C5346 1.478 . S
C5348 C5350 1.381 . S
C5348 C5354 1.383 . S
C5349 C5345 1.495 . S
C5349 H5355 0.959 . S
C5349 H5356 0.961 . S
C5349 H5357 0.960 . S
C5350 C5348 1.381 . S
C5350 C5351 1.394 . S
C5350 H5358 0.930 . S
C5351 C5350 1.394 . S
C5351 C5352 1.383 . S
C5351 H5359 0.929 . S
C5352 C5351 1.383 . S
C5352 C5353 1.377 . S
C5353 H5337 0.930 . S
C5353 C5352 1.377 . S
C5353 C5354 1.379 . S
C5354 H5338 0.931 . S
C5354 C5348 1.383 . S
C5354 C5353 1.379 . S
H5355 C5349 0.959 . S
H5356 C5349 0.961 . S
H5357 C5349 0.960 . S
H5358 C5350 0.930 . S
H5359 C5351 0.929 . S
H5360 C5368 0.929 . S
H5361 C5370 0.930 . S
H5362 C5372 0.930 . S
H5363 C5375 0.929 . S
H5364 C5378 0.930 . S
H5365 C5380 0.960 . S
H5366 C5380 0.960 . S
H5367 C5380 0.960 . S
C5368 H5360 0.929 . S
C5368 C5369 1.377 . S
C5368 C5370 1.384 . S
C5369 C5368 1.377 . S
C5369 C5375 1.390 . S
C5370 H5361 0.930 . S
C5370 C5368 1.384 . S
C5370 C5371 1.372 . S
C5371 C5370 1.372 . S
C5371 C5372 1.400 . S
C5371 C5376 1.490 . S
C5372 H5362 0.930 . S
C5372 C5371 1.400 . S
C5372 C5375 1.386 . S
H5373 C5389 0.930 . S
H5374 C5390 0.931 . S
C5375 H5363 0.929 . S
C5375 C5369 1.390 . S
C5375 C5372 1.386 . S
C5376 C5371 1.490 . S
C5376 C5378 1.395 . S
C5376 C5379 1.403 . S
H5377 C5383 0.930 . S
C5378 H5364 0.930 . S
C5378 C5376 1.395 . S
C5378 C5381 1.403 . S
C5379 C5376 1.403 . S
C5379 C5380 1.524 . S
C5379 C5383 1.400 . S
C5380 H5365 0.960 . S
C5380 H5366 0.960 . S
C5380 H5367 0.960 . S
C5380 C5379 1.524 . S
C5381 C5378 1.403 . S
C5381 C5382 1.392 . S
C5381 C5385 1.495 . S
C5382 C5381 1.392 . S
C5382 C5383 1.385 . S
C5382 C5384 1.478 . S
C5383 H5377 0.930 . S
C5383 C5379 1.400 . S
C5383 C5382 1.385 . S
C5384 C5382 1.478 . S
C5384 C5386 1.381 . S
C5384 C5390 1.383 . S
C5385 C5381 1.495 . S
C5385 H5391 0.959 . S
C5385 H5392 0.961 . S
C5385 H5393 0.960 . S
C5386 C5384 1.381 . S
C5386 C5387 1.394 . S
C5386 H5394 0.930 . S
C5387 C5386 1.394 . S
C5387 C5388 1.383 . S
C5387 H5395 0.929 . S
C5388 C5387 1.383 . S
C5388 C5389 1.377 . S
C5389 H5373 0.930 . S
C5389 C5388 1.377 . S
C5389 C5390 1.379 . S
C5390 H5374 0.931 . S
C5390 C5384 1.383 . S
C5390 C5389 1.379 . S
H5391 C5385 0.959 . S
H5392 C5385 0.961 . S
H5393 C5385 0.960 . S
H5394 C5386 0.930 . S
H5395 C5387 0.929 . S
H5396 C5404 0.929 . S
H5397 C5406 0.930 . S
H5398 C5408 0.930 . S
H5399 C5411 0.929 . S
H5400 C5414 0.930 . S
H5401 C5416 0.960 . S
H5402 C5416 0.960 . S
H5403 C5416 0.960 . S
C5404 H5396 0.929 . S
C5404 C5405 1.377 . S
C5404 C5406 1.384 . S
C5405 C5404 1.377 . S
C5405 C5411 1.390 . S
C5406 H5397 0.930 . S
C5406 C5404 1.384 . S
C5406 C5407 1.372 . S
C5407 C5406 1.372 . S
C5407 C5408 1.400 . S
C5407 C5412 1.490 . S
C5408 H5398 0.930 . S
C5408 C5407 1.400 . S
C5408 C5411 1.386 . S
H5409 C5425 0.930 . S
H5410 C5426 0.931 . S
C5411 H5399 0.929 . S
C5411 C5405 1.390 . S
C5411 C5408 1.386 . S
C5412 C5407 1.490 . S
C5412 C5414 1.395 . S
C5412 C5415 1.403 . S
H5413 C5419 0.930 . S
C5414 H5400 0.930 . S
C5414 C5412 1.395 . S
C5414 C5417 1.403 . S
C5415 C5412 1.403 . S
C5415 C5416 1.524 . S
C5415 C5419 1.400 . S
C5416 H5401 0.960 . S
C5416 H5402 0.960 . S
C5416 H5403 0.960 . S
C5416 C5415 1.524 . S
C5417 C5414 1.403 . S
C5417 C5418 1.392 . S
C5417 C5421 1.495 . S
C5418 C5417 1.392 . S
C5418 C5419 1.385 . S
C5418 C5420 1.478 . S
C5419 H5413 0.930 . S
C5419 C5415 1.400 . S
C5419 C5418 1.385 . S
C5420 C5418 1.478 . S
C5420 C5422 1.381 . S
C5420 C5426 1.383 . S
C5421 C5417 1.495 . S
C5421 H5427 0.959 . S
C5421 H5428 0.961 . S
C5421 H5429 0.960 . S
C5422 C5420 1.381 . S
C5422 C5423 1.394 . S
C5422 H5430 0.930 . S
C5423 C5422 1.394 . S
C5423 C5424 1.383 . S
C5423 H5431 0.929 . S
C5424 C5423 1.383 . S
C5424 C5425 1.377 . S
C5425 H5409 0.930 . S
C5425 C5424 1.377 . S
C5425 C5426 1.379 . S
C5426 H5410 0.931 . S
C5426 C5420 1.383 . S
C5426 C5425 1.379 . S
H5427 C5421 0.959 . S
H5428 C5421 0.961 . S
H5429 C5421 0.960 . S
H5430 C5422 0.930 . S
H5431 C5423 0.929 . S
H5432 C5440 0.929 . S
H5433 C5442 0.930 . S
H5434 C5444 0.930 . S
H5435 C5447 0.929 . S
H5436 C5450 0.930 . S
H5437 C5452 0.960 . S
H5438 C5452 0.960 . S
H5439 C5452 0.960 . S
C5440 H5432 0.929 . S
C5440 C5441 1.377 . S
C5440 C5442 1.384 . S
C5441 C5440 1.377 . S
C5441 C5447 1.390 . S
C5442 H5433 0.930 . S
C5442 C5440 1.384 . S
C5442 C5443 1.372 . S
C5443 C5442 1.372 . S
C5443 C5444 1.400 . S
C5443 C5448 1.490 . S
C5444 H5434 0.930 . S
C5444 C5443 1.400 . S
C5444 C5447 1.386 . S
H5445 C5461 0.930 . S
H5446 C5462 0.931 . S
C5447 H5435 0.929 . S
C5447 C5441 1.390 . S
C5447 C5444 1.386 . S
C5448 C5443 1.490 . S
C5448 C5450 1.395 . S
C5448 C5451 1.403 . S
H5449 C5455 0.930 . S
C5450 H5436 0.930 . S
C5450 C5448 1.395 . S
C5450 C5453 1.403 . S
C5451 C5448 1.403 . S
C5451 C5452 1.524 . S
C5451 C5455 1.400 . S
C5452 H5437 0.960 . S
C5452 H5438 0.960 . S
C5452 H5439 0.960 . S
C5452 C5451 1.524 . S
C5453 C5450 1.403 . S
C5453 C5454 1.392 . S
C5453 C5457 1.495 . S
C5454 C5453 1.392 . S
C5454 C5455 1.385 . S
C5454 C5456 1.478 . S
C5455 H5449 0.930 . S
C5455 C5451 1.400 . S
C5455 C5454 1.385 . S
C5456 C5454 1.478 . S
C5456 C5458 1.381 . S
C5456 C5462 1.383 . S
C5457 C5453 1.495 . S
C5457 H5463 0.959 . S
C5457 H5464 0.961 . S
C5457 H5465 0.960 . S
C5458 C5456 1.381 . S
C5458 C5459 1.394 . S
C5458 H5466 0.930 . S
C5459 C5458 1.394 . S
C5459 C5460 1.383 . S
C5459 H5467 0.929 . S
C5460 C5459 1.383 . S
C5460 C5461 1.377 . S
C5461 H5445 0.930 . S
C5461 C5460 1.377 . S
C5461 C5462 1.379 . S
C5462 H5446 0.931 . S
C5462 C5456 1.383 . S
C5462 C5461 1.379 . S
H5463 C5457 0.959 . S
H5464 C5457 0.961 . S
H5465 C5457 0.960 . S
H5466 C5458 0.930 . S
H5467 C5459 0.929 . S
H5468 C5476 0.929 . S
H5469 C5478 0.930 . S
H5470 C5480 0.930 . S
H5471 C5483 0.929 . S
H5472 C5486 0.930 . S
H5473 C5488 0.960 . S
H5474 C5488 0.960 . S
H5475 C5488 0.960 . S
C5476 H5468 0.929 . S
C5476 C5477 1.377 . S
C5476 C5478 1.384 . S
C5477 C5476 1.377 . S
C5477 C5483 1.390 . S
C5478 H5469 0.930 . S
C5478 C5476 1.384 . S
C5478 C5479 1.372 . S
C5479 C5478 1.372 . S
C5479 C5480 1.400 . S
C5479 C5484 1.490 . S
C5480 H5470 0.930 . S
C5480 C5479 1.400 . S
C5480 C5483 1.386 . S
H5481 C5497 0.930 . S
H5482 C5498 0.931 . S
C5483 H5471 0.929 . S
C5483 C5477 1.390 . S
C5483 C5480 1.386 . S
C5484 C5479 1.490 . S
C5484 C5486 1.395 . S
C5484 C5487 1.403 . S
H5485 C5491 0.930 . S
C5486 H5472 0.930 . S
C5486 C5484 1.395 . S
C5486 C5489 1.403 . S
C5487 C5484 1.403 . S
C5487 C5488 1.524 . S
C5487 C5491 1.400 . S
C5488 H5473 0.960 . S
C5488 H5474 0.960 . S
C5488 H5475 0.960 . S
C5488 C5487 1.524 . S
C5489 C5486 1.403 . S
C5489 C5490 1.392 . S
C5489 C5493 1.495 . S
C5490 C5489 1.392 . S
C5490 C5491 1.385 . S
C5490 C5492 1.478 . S
C5491 H5485 0.930 . S
C5491 C5487 1.400 . S
C5491 C5490 1.385 . S
C5492 C5490 1.478 . S
C5492 C5494 1.381 . S
C5492 C5498 1.383 . S
C5493 C5489 1.495 . S
C5493 H5499 0.959 . S
C5493 H5500 0.961 . S
C5493 H5501 0.960 . S
C5494 C5492 1.381 . S
C5494 C5495 1.394 . S
C5494 H5502 0.930 . S
C5495 C5494 1.394 . S
C5495 C5496 1.383 . S
C5495 H5503 0.929 . S
C5496 C5495 1.383 . S
C5496 C5497 1.377 . S
C5497 H5481 0.930 . S
C5497 C5496 1.377 . S
C5497 C5498 1.379 . S
C5498 H5482 0.931 . S
C5498 C5492 1.383 . S
C5498 C5497 1.379 . S
H5499 C5493 0.959 . S
H5500 C5493 0.961 . S
H5501 C5493 0.960 . S
H5502 C5494 0.930 . S
H5503 C5495 0.929 . S
H5504 C5512 0.929 . S
H5505 C5514 0.930 . S
H5506 C5516 0.930 . S
H5507 C5519 0.929 . S
H5508 C5522 0.930 . S
H5509 C5524 0.960 . S
H5510 C5524 0.960 . S
H5511 C5524 0.960 . S
C5512 H5504 0.929 . S
C5512 C5513 1.377 . S
C5512 C5514 1.384 . S
C5513 C5512 1.377 . S
C5513 C5519 1.390 . S
C5514 H5505 0.930 . S
C5514 C5512 1.384 . S
C5514 C5515 1.372 . S
C5515 C5514 1.372 . S
C5515 C5516 1.400 . S
C5515 C5520 1.490 . S
C5516 H5506 0.930 . S
C5516 C5515 1.400 . S
C5516 C5519 1.386 . S
H5517 C5533 0.930 . S
H5518 C5534 0.931 . S
C5519 H5507 0.929 . S
C5519 C5513 1.390 . S
C5519 C5516 1.386 . S
C5520 C5515 1.490 . S
C5520 C5522 1.395 . S
C5520 C5523 1.403 . S
H5521 C5527 0.930 . S
C5522 H5508 0.930 . S
C5522 C5520 1.395 . S
C5522 C5525 1.403 . S
C5523 C5520 1.403 . S
C5523 C5524 1.524 . S
C5523 C5527 1.400 . S
C5524 H5509 0.960 . S
C5524 H5510 0.960 . S
C5524 H5511 0.960 . S
C5524 C5523 1.524 . S
C5525 C5522 1.403 . S
C5525 C5526 1.392 . S
C5525 C5529 1.495 . S
C5526 C5525 1.392 . S
C5526 C5527 1.385 . S
C5526 C5528 1.478 . S
C5527 H5521 0.930 . S
C5527 C5523 1.400 . S
C5527 C5526 1.385 . S
C5528 C5526 1.478 . S
C5528 C5530 1.381 . S
C5528 C5534 1.383 . S
C5529 C5525 1.495 . S
C5529 H5535 0.959 . S
C5529 H5536 0.961 . S
C5529 H5537 0.960 . S
C5530 C5528 1.381 . S
C5530 C5531 1.394 . S
C5530 H5538 0.930 . S
C5531 C5530 1.394 . S
C5531 C5532 1.383 . S
C5531 H5539 0.929 . S
C5532 C5531 1.383 . S
C5532 C5533 1.377 . S
C5533 H5517 0.930 . S
C5533 C5532 1.377 . S
C5533 C5534 1.379 . S
C5534 H5518 0.931 . S
C5534 C5528 1.383 . S
C5534 C5533 1.379 . S
H5535 C5529 0.959 . S
H5536 C5529 0.961 . S
H5537 C5529 0.960 . S
H5538 C5530 0.930 . S
H5539 C5531 0.929 . S
H5540 C5548 0.929 . S
H5541 C5550 0.930 . S
H5542 C5552 0.930 . S
H5543 C5555 0.929 . S
H5544 C5558 0.930 . S
H5545 C5560 0.960 . S
H5546 C5560 0.960 . S
H5547 C5560 0.960 . S
C5548 H5540 0.929 . S
C5548 C5549 1.377 . S
C5548 C5550 1.384 . S
C5549 C5548 1.377 . S
C5549 C5555 1.390 . S
C5550 H5541 0.930 . S
C5550 C5548 1.384 . S
C5550 C5551 1.372 . S
C5551 C5550 1.372 . S
C5551 C5552 1.400 . S
C5551 C5556 1.490 . S
C5552 H5542 0.930 . S
C5552 C5551 1.400 . S
C5552 C5555 1.386 . S
H5553 C5569 0.930 . S
H5554 C5570 0.931 . S
C5555 H5543 0.929 . S
C5555 C5549 1.390 . S
C5555 C5552 1.386 . S
C5556 C5551 1.490 . S
C5556 C5558 1.395 . S
C5556 C5559 1.403 . S
H5557 C5563 0.930 . S
C5558 H5544 0.930 . S
C5558 C5556 1.395 . S
C5558 C5561 1.403 . S
C5559 C5556 1.403 . S
C5559 C5560 1.524 . S
C5559 C5563 1.400 . S
C5560 H5545 0.960 . S
C5560 H5546 0.960 . S
C5560 H5547 0.960 . S
C5560 C5559 1.524 . S
C5561 C5558 1.403 . S
C5561 C5562 1.392 . S
C5561 C5565 1.495 . S
C5562 C5561 1.392 . S
C5562 C5563 1.385 . S
C5562 C5564 1.478 . S
C5563 H5557 0.930 . S
C5563 C5559 1.400 . S
C5563 C5562 1.385 . S
C5564 C5562 1.478 . S
C5564 C5566 1.381 . S
C5564 C5570 1.383 . S
C5565 C5561 1.495 . S
C5565 H5571 0.959 . S
C5565 H5572 0.961 . S
C5565 H5573 0.960 . S
C5566 C5564 1.381 . S
C5566 C5567 1.394 . S
C5566 H5574 0.930 . S
C5567 C5566 1.394 . S
C5567 C5568 1.383 . S
C5567 H5575 0.929 . S
C5568 C5567 1.383 . S
C5568 C5569 1.377 . S
C5569 H5553 0.930 . S
C5569 C5568 1.377 . S
C5569 C5570 1.379 . S
C5570 H5554 0.931 . S
C5570 C5564 1.383 . S
C5570 C5569 1.379 . S
H5571 C5565 0.959 . S
H5572 C5565 0.961 . S
H5573 C5565 0.960 . S
H5574 C5566 0.930 . S
H5575 C5567 0.929 . S
H5576 C5584 0.929 . S
H5577 C5586 0.930 . S
H5578 C5588 0.930 . S
H5579 C5591 0.929 . S
H5580 C5594 0.930 . S
H5581 C5596 0.960 . S
H5582 C5596 0.960 . S
H5583 C5596 0.960 . S
C5584 H5576 0.929 . S
C5584 C5585 1.377 . S
C5584 C5586 1.384 . S
C5585 C5584 1.377 . S
C5585 C5591 1.390 . S
C5586 H5577 0.930 . S
C5586 C5584 1.384 . S
C5586 C5587 1.372 . S
C5587 C5586 1.372 . S
C5587 C5588 1.400 . S
C5587 C5592 1.490 . S
C5588 H5578 0.930 . S
C5588 C5587 1.400 . S
C5588 C5591 1.386 . S
H5589 C5605 0.930 . S
H5590 C5606 0.931 . S
C5591 H5579 0.929 . S
C5591 C5585 1.390 . S
C5591 C5588 1.386 . S
C5592 C5587 1.490 . S
C5592 C5594 1.395 . S
C5592 C5595 1.403 . S
H5593 C5599 0.930 . S
C5594 H5580 0.930 . S
C5594 C5592 1.395 . S
C5594 C5597 1.403 . S
C5595 C5592 1.403 . S
C5595 C5596 1.524 . S
C5595 C5599 1.400 . S
C5596 H5581 0.960 . S
C5596 H5582 0.960 . S
C5596 H5583 0.960 . S
C5596 C5595 1.524 . S
C5597 C5594 1.403 . S
C5597 C5598 1.392 . S
C5597 C5601 1.495 . S
C5598 C5597 1.392 . S
C5598 C5599 1.385 . S
C5598 C5600 1.478 . S
C5599 H5593 0.930 . S
C5599 C5595 1.400 . S
C5599 C5598 1.385 . S
C5600 C5598 1.478 . S
C5600 C5602 1.381 . S
C5600 C5606 1.383 . S
C5601 C5597 1.495 . S
C5601 H5607 0.959 . S
C5601 H5608 0.961 . S
C5601 H5609 0.960 . S
C5602 C5600 1.381 . S
C5602 C5603 1.394 . S
C5602 H5610 0.930 . S
C5603 C5602 1.394 . S
C5603 C5604 1.383 . S
C5603 H5611 0.929 . S
C5604 C5603 1.383 . S
C5604 C5605 1.377 . S
C5605 H5589 0.930 . S
C5605 C5604 1.377 . S
C5605 C5606 1.379 . S
C5606 H5590 0.931 . S
C5606 C5600 1.383 . S
C5606 C5605 1.379 . S
H5607 C5601 0.959 . S
H5608 C5601 0.961 . S
H5609 C5601 0.960 . S
H5610 C5602 0.930 . S
H5611 C5603 0.929 . S
H5612 C5620 0.929 . S
H5613 C5622 0.930 . S
H5614 C5624 0.930 . S
H5615 C5627 0.929 . S
H5616 C5630 0.930 . S
H5617 C5632 0.960 . S
H5618 C5632 0.960 . S
H5619 C5632 0.960 . S
C5620 H5612 0.929 . S
C5620 C5621 1.377 . S
C5620 C5622 1.384 . S
C5621 C5620 1.377 . S
C5621 C5627 1.390 . S
C5622 H5613 0.930 . S
C5622 C5620 1.384 . S
C5622 C5623 1.372 . S
C5623 C5622 1.372 . S
C5623 C5624 1.400 . S
C5623 C5628 1.490 . S
C5624 H5614 0.930 . S
C5624 C5623 1.400 . S
C5624 C5627 1.386 . S
H5625 C5641 0.930 . S
H5626 C5642 0.931 . S
C5627 H5615 0.929 . S
C5627 C5621 1.390 . S
C5627 C5624 1.386 . S
C5628 C5623 1.490 . S
C5628 C5630 1.395 . S
C5628 C5631 1.403 . S
H5629 C5635 0.930 . S
C5630 H5616 0.930 . S
C5630 C5628 1.395 . S
C5630 C5633 1.403 . S
C5631 C5628 1.403 . S
C5631 C5632 1.524 . S
C5631 C5635 1.400 . S
C5632 H5617 0.960 . S
C5632 H5618 0.960 . S
C5632 H5619 0.960 . S
C5632 C5631 1.524 . S
C5633 C5630 1.403 . S
C5633 C5634 1.392 . S
C5633 C5637 1.495 . S
C5634 C5633 1.392 . S
C5634 C5635 1.385 . S
C5634 C5636 1.478 . S
C5635 H5629 0.930 . S
C5635 C5631 1.400 . S
C5635 C5634 1.385 . S
C5636 C5634 1.478 . S
C5636 C5638 1.381 . S
C5636 C5642 1.383 . S
C5637 C5633 1.495 . S
C5637 H5643 0.959 . S
C5637 H5644 0.961 . S
C5637 H5645 0.960 . S
C5638 C5636 1.381 . S
C5638 C5639 1.394 . S
C5638 H5646 0.930 . S
C5639 C5638 1.394 . S
C5639 C5640 1.383 . S
C5639 H5647 0.929 . S
C5640 C5639 1.383 . S
C5640 C5641 1.377 . S
C5641 H5625 0.930 . S
C5641 C5640 1.377 . S
C5641 C5642 1.379 . S
C5642 H5626 0.931 . S
C5642 C5636 1.383 . S
C5642 C5641 1.379 . S
H5643 C5637 0.959 . S
H5644 C5637 0.961 . S
H5645 C5637 0.960 . S
H5646 C5638 0.930 . S
H5647 C5639 0.929 . S
H5648 C5656 0.929 . S
H5649 C5658 0.930 . S
H5650 C5660 0.930 . S
H5651 C5663 0.929 . S
H5652 C5666 0.930 . S
H5653 C5668 0.960 . S
H5654 C5668 0.960 . S
H5655 C5668 0.960 . S
C5656 H5648 0.929 . S
C5656 C5657 1.377 . S
C5656 C5658 1.384 . S
C5657 C5656 1.377 . S
C5657 C5663 1.390 . S
C5658 H5649 0.930 . S
C5658 C5656 1.384 . S
C5658 C5659 1.372 . S
C5659 C5658 1.372 . S
C5659 C5660 1.400 . S
C5659 C5664 1.490 . S
C5660 H5650 0.930 . S
C5660 C5659 1.400 . S
C5660 C5663 1.386 . S
H5661 C5677 0.930 . S
H5662 C5678 0.931 . S
C5663 H5651 0.929 . S
C5663 C5657 1.390 . S
C5663 C5660 1.386 . S
C5664 C5659 1.490 . S
C5664 C5666 1.395 . S
C5664 C5667 1.403 . S
H5665 C5671 0.930 . S
C5666 H5652 0.930 . S
C5666 C5664 1.395 . S
C5666 C5669 1.403 . S
C5667 C5664 1.403 . S
C5667 C5668 1.524 . S
C5667 C5671 1.400 . S
C5668 H5653 0.960 . S
C5668 H5654 0.960 . S
C5668 H5655 0.960 . S
C5668 C5667 1.524 . S
C5669 C5666 1.403 . S
C5669 C5670 1.392 . S
C5669 C5673 1.495 . S
C5670 C5669 1.392 . S
C5670 C5671 1.385 . S
C5670 C5672 1.478 . S
C5671 H5665 0.930 . S
C5671 C5667 1.400 . S
C5671 C5670 1.385 . S
C5672 C5670 1.478 . S
C5672 C5674 1.381 . S
C5672 C5678 1.383 . S
C5673 C5669 1.495 . S
C5673 H5679 0.959 . S
C5673 H5680 0.961 . S
C5673 H5681 0.960 . S
C5674 C5672 1.381 . S
C5674 C5675 1.394 . S
C5674 H5682 0.930 . S
C5675 C5674 1.394 . S
C5675 C5676 1.383 . S
C5675 H5683 0.929 . S
C5676 C5675 1.383 . S
C5676 C5677 1.377 . S
C5677 H5661 0.930 . S
C5677 C5676 1.377 . S
C5677 C5678 1.379 . S
C5678 H5662 0.931 . S
C5678 C5672 1.383 . S
C5678 C5677 1.379 . S
H5679 C5673 0.959 . S
H5680 C5673 0.961 . S
H5681 C5673 0.960 . S
H5682 C5674 0.930 . S
H5683 C5675 0.929 . S
H5684 C5692 0.929 . S
H5685 C5694 0.930 . S
H5686 C5696 0.930 . S
H5687 C5699 0.929 . S
H5688 C5702 0.930 . S
H5689 C5704 0.960 . S
H5690 C5704 0.960 . S
H5691 C5704 0.960 . S
C5692 H5684 0.929 . S
C5692 C5693 1.377 . S
C5692 C5694 1.384 . S
C5693 C5692 1.377 . S
C5693 C5699 1.390 . S
C5694 H5685 0.930 . S
C5694 C5692 1.384 . S
C5694 C5695 1.372 . S
C5695 C5694 1.372 . S
C5695 C5696 1.400 . S
C5695 C5700 1.490 . S
C5696 H5686 0.930 . S
C5696 C5695 1.400 . S
C5696 C5699 1.386 . S
H5697 C5713 0.930 . S
H5698 C5714 0.931 . S
C5699 H5687 0.929 . S
C5699 C5693 1.390 . S
C5699 C5696 1.386 . S
C5700 C5695 1.490 . S
C5700 C5702 1.395 . S
C5700 C5703 1.403 . S
H5701 C5707 0.930 . S
C5702 H5688 0.930 . S
C5702 C5700 1.395 . S
C5702 C5705 1.403 . S
C5703 C5700 1.403 . S
C5703 C5704 1.524 . S
C5703 C5707 1.400 . S
C5704 H5689 0.960 . S
C5704 H5690 0.960 . S
C5704 H5691 0.960 . S
C5704 C5703 1.524 . S
C5705 C5702 1.403 . S
C5705 C5706 1.392 . S
C5705 C5709 1.495 . S
C5706 C5705 1.392 . S
C5706 C5707 1.385 . S
C5706 C5708 1.478 . S
C5707 H5701 0.930 . S
C5707 C5703 1.400 . S
C5707 C5706 1.385 . S
C5708 C5706 1.478 . S
C5708 C5710 1.381 . S
C5708 C5714 1.383 . S
C5709 C5705 1.495 . S
C5709 H5715 0.959 . S
C5709 H5716 0.961 . S
C5709 H5717 0.960 . S
C5710 C5708 1.381 . S
C5710 C5711 1.394 . S
C5710 H5718 0.930 . S
C5711 C5710 1.394 . S
C5711 C5712 1.383 . S
C5711 H5719 0.929 . S
C5712 C5711 1.383 . S
C5712 C5713 1.377 . S
C5713 H5697 0.930 . S
C5713 C5712 1.377 . S
C5713 C5714 1.379 . S
C5714 H5698 0.931 . S
C5714 C5708 1.383 . S
C5714 C5713 1.379 . S
H5715 C5709 0.959 . S
H5716 C5709 0.961 . S
H5717 C5709 0.960 . S
H5718 C5710 0.930 . S
H5719 C5711 0.929 . S
H5720 C5728 0.929 . S
H5721 C5730 0.930 . S
H5722 C5732 0.930 . S
H5723 C5735 0.929 . S
H5724 C5738 0.930 . S
H5725 C5740 0.960 . S
H5726 C5740 0.960 . S
H5727 C5740 0.960 . S
C5728 H5720 0.929 . S
C5728 C5729 1.377 . S
C5728 C5730 1.384 . S
C5729 C5728 1.377 . S
C5729 C5735 1.390 . S
C5730 H5721 0.930 . S
C5730 C5728 1.384 . S
C5730 C5731 1.372 . S
C5731 C5730 1.372 . S
C5731 C5732 1.400 . S
C5731 C5736 1.490 . S
C5732 H5722 0.930 . S
C5732 C5731 1.400 . S
C5732 C5735 1.386 . S
H5733 C5749 0.930 . S
H5734 C5750 0.931 . S
C5735 H5723 0.929 . S
C5735 C5729 1.390 . S
C5735 C5732 1.386 . S
C5736 C5731 1.490 . S
C5736 C5738 1.395 . S
C5736 C5739 1.403 . S
H5737 C5743 0.930 . S
C5738 H5724 0.930 . S
C5738 C5736 1.395 . S
C5738 C5741 1.403 . S
C5739 C5736 1.403 . S
C5739 C5740 1.524 . S
C5739 C5743 1.400 . S
C5740 H5725 0.960 . S
C5740 H5726 0.960 . S
C5740 H5727 0.960 . S
C5740 C5739 1.524 . S
C5741 C5738 1.403 . S
C5741 C5742 1.392 . S
C5741 C5745 1.495 . S
C5742 C5741 1.392 . S
C5742 C5743 1.385 . S
C5742 C5744 1.478 . S
C5743 H5737 0.930 . S
C5743 C5739 1.400 . S
C5743 C5742 1.385 . S
C5744 C5742 1.478 . S
C5744 C5746 1.381 . S
C5744 C5750 1.383 . S
C5745 C5741 1.495 . S
C5745 H5751 0.959 . S
C5745 H5752 0.961 . S
C5745 H5753 0.960 . S
C5746 C5744 1.381 . S
C5746 C5747 1.394 . S
C5746 H5754 0.930 . S
C5747 C5746 1.394 . S
C5747 C5748 1.383 . S
C5747 H5755 0.929 . S
C5748 C5747 1.383 . S
C5748 C5749 1.377 . S
C5749 H5733 0.930 . S
C5749 C5748 1.377 . S
C5749 C5750 1.379 . S
C5750 H5734 0.931 . S
C5750 C5744 1.383 . S
C5750 C5749 1.379 . S
H5751 C5745 0.959 . S
H5752 C5745 0.961 . S
H5753 C5745 0.960 . S
H5754 C5746 0.930 . S
H5755 C5747 0.929 . S
H5756 C5764 0.929 . S
H5757 C5766 0.930 . S
H5758 C5768 0.930 . S
H5759 C5771 0.929 . S
H5760 C5774 0.930 . S
H5761 C5776 0.960 . S
H5762 C5776 0.960 . S
H5763 C5776 0.960 . S
C5764 H5756 0.929 . S
C5764 C5765 1.377 . S
C5764 C5766 1.384 . S
C5765 C5764 1.377 . S
C5765 C5771 1.390 . S
C5766 H5757 0.930 . S
C5766 C5764 1.384 . S
C5766 C5767 1.372 . S
C5767 C5766 1.372 . S
C5767 C5768 1.400 . S
C5767 C5772 1.490 . S
C5768 H5758 0.930 . S
C5768 C5767 1.400 . S
C5768 C5771 1.386 . S
H5769 C5785 0.930 . S
H5770 C5786 0.931 . S
C5771 H5759 0.929 . S
C5771 C5765 1.390 . S
C5771 C5768 1.386 . S
C5772 C5767 1.490 . S
C5772 C5774 1.395 . S
C5772 C5775 1.403 . S
H5773 C5779 0.930 . S
C5774 H5760 0.930 . S
C5774 C5772 1.395 . S
C5774 C5777 1.403 . S
C5775 C5772 1.403 . S
C5775 C5776 1.524 . S
C5775 C5779 1.400 . S
C5776 H5761 0.960 . S
C5776 H5762 0.960 . S
C5776 H5763 0.960 . S
C5776 C5775 1.524 . S
C5777 C5774 1.403 . S
C5777 C5778 1.392 . S
C5777 C5781 1.495 . S
C5778 C5777 1.392 . S
C5778 C5779 1.385 . S
C5778 C5780 1.478 . S
C5779 H5773 0.930 . S
C5779 C5775 1.400 . S
C5779 C5778 1.385 . S
C5780 C5778 1.478 . S
C5780 C5782 1.381 . S
C5780 C5786 1.383 . S
C5781 C5777 1.495 . S
C5781 H5787 0.959 . S
C5781 H5788 0.961 . S
C5781 H5789 0.960 . S
C5782 C5780 1.381 . S
C5782 C5783 1.394 . S
C5782 H5790 0.930 . S
C5783 C5782 1.394 . S
C5783 C5784 1.383 . S
C5783 H5791 0.929 . S
C5784 C5783 1.383 . S
C5784 C5785 1.377 . S
C5785 H5769 0.930 . S
C5785 C5784 1.377 . S
C5785 C5786 1.379 . S
C5786 H5770 0.931 . S
C5786 C5780 1.383 . S
C5786 C5785 1.379 . S
H5787 C5781 0.959 . S
H5788 C5781 0.961 . S
H5789 C5781 0.960 . S
H5790 C5782 0.930 . S
H5791 C5783 0.929 . S
H5792 C5800 0.929 . S
H5793 C5802 0.930 . S
H5794 C5804 0.930 . S
H5795 C5807 0.929 . S
H5796 C5810 0.930 . S
H5797 C5812 0.960 . S
H5798 C5812 0.960 . S
H5799 C5812 0.960 . S
C5800 H5792 0.929 . S
C5800 C5801 1.377 . S
C5800 C5802 1.384 . S
C5801 C5800 1.377 . S
C5801 C5807 1.390 . S
C5802 H5793 0.930 . S
C5802 C5800 1.384 . S
C5802 C5803 1.372 . S
C5803 C5802 1.372 . S
C5803 C5804 1.400 . S
C5803 C5808 1.490 . S
C5804 H5794 0.930 . S
C5804 C5803 1.400 . S
C5804 C5807 1.386 . S
H5805 C5821 0.930 . S
H5806 C5822 0.931 . S
C5807 H5795 0.929 . S
C5807 C5801 1.390 . S
C5807 C5804 1.386 . S
C5808 C5803 1.490 . S
C5808 C5810 1.395 . S
C5808 C5811 1.403 . S
H5809 C5815 0.930 . S
C5810 H5796 0.930 . S
C5810 C5808 1.395 . S
C5810 C5813 1.403 . S
C5811 C5808 1.403 . S
C5811 C5812 1.524 . S
C5811 C5815 1.400 . S
C5812 H5797 0.960 . S
C5812 H5798 0.960 . S
C5812 H5799 0.960 . S
C5812 C5811 1.524 . S
C5813 C5810 1.403 . S
C5813 C5814 1.392 . S
C5813 C5817 1.495 . S
C5814 C5813 1.392 . S
C5814 C5815 1.385 . S
C5814 C5816 1.478 . S
C5815 H5809 0.930 . S
C5815 C5811 1.400 . S
C5815 C5814 1.385 . S
C5816 C5814 1.478 . S
C5816 C5818 1.381 . S
C5816 C5822 1.383 . S
C5817 C5813 1.495 . S
C5817 H5823 0.959 . S
C5817 H5824 0.961 . S
C5817 H5825 0.960 . S
C5818 C5816 1.381 . S
C5818 C5819 1.394 . S
C5818 H5826 0.930 . S
C5819 C5818 1.394 . S
C5819 C5820 1.383 . S
C5819 H5827 0.929 . S
C5820 C5819 1.383 . S
C5820 C5821 1.377 . S
C5821 H5805 0.930 . S
C5821 C5820 1.377 . S
C5821 C5822 1.379 . S
C5822 H5806 0.931 . S
C5822 C5816 1.383 . S
C5822 C5821 1.379 . S
H5823 C5817 0.959 . S
H5824 C5817 0.961 . S
H5825 C5817 0.960 . S
H5826 C5818 0.930 . S
H5827 C5819 0.929 . S
H5828 C5836 0.929 . S
H5829 C5838 0.930 . S
H5830 C5840 0.930 . S
H5831 C5843 0.929 . S
H5832 C5846 0.930 . S
H5833 C5848 0.960 . S
H5834 C5848 0.960 . S
H5835 C5848 0.960 . S
C5836 H5828 0.929 . S
C5836 C5837 1.377 . S
C5836 C5838 1.384 . S
C5837 C5836 1.377 . S
C5837 C5843 1.390 . S
C5838 H5829 0.930 . S
C5838 C5836 1.384 . S
C5838 C5839 1.372 . S
C5839 C5838 1.372 . S
C5839 C5840 1.400 . S
C5839 C5844 1.490 . S
C5840 H5830 0.930 . S
C5840 C5839 1.400 . S
C5840 C5843 1.386 . S
H5841 C5857 0.930 . S
H5842 C5858 0.931 . S
C5843 H5831 0.929 . S
C5843 C5837 1.390 . S
C5843 C5840 1.386 . S
C5844 C5839 1.490 . S
C5844 C5846 1.395 . S
C5844 C5847 1.403 . S
H5845 C5851 0.930 . S
C5846 H5832 0.930 . S
C5846 C5844 1.395 . S
C5846 C5849 1.403 . S
C5847 C5844 1.403 . S
C5847 C5848 1.524 . S
C5847 C5851 1.400 . S
C5848 H5833 0.960 . S
C5848 H5834 0.960 . S
C5848 H5835 0.960 . S
C5848 C5847 1.524 . S
C5849 C5846 1.403 . S
C5849 C5850 1.392 . S
C5849 C5853 1.495 . S
C5850 C5849 1.392 . S
C5850 C5851 1.385 . S
C5850 C5852 1.478 . S
C5851 H5845 0.930 . S
C5851 C5847 1.400 . S
C5851 C5850 1.385 . S
C5852 C5850 1.478 . S
C5852 C5854 1.381 . S
C5852 C5858 1.383 . S
C5853 C5849 1.495 . S
C5853 H5859 0.959 . S
C5853 H5860 0.961 . S
C5853 H5861 0.960 . S
C5854 C5852 1.381 . S
C5854 C5855 1.394 . S
C5854 H5862 0.930 . S
C5855 C5854 1.394 . S
C5855 C5856 1.383 . S
C5855 H5863 0.929 . S
C5856 C5855 1.383 . S
C5856 C5857 1.377 . S
C5857 H5841 0.930 . S
C5857 C5856 1.377 . S
C5857 C5858 1.379 . S
C5858 H5842 0.931 . S
C5858 C5852 1.383 . S
C5858 C5857 1.379 . S
H5859 C5853 0.959 . S
H5860 C5853 0.961 . S
H5861 C5853 0.960 . S
H5862 C5854 0.930 . S
H5863 C5855 0.929 . S
H5864 C5872 0.929 . S
H5865 C5874 0.930 . S
H5866 C5876 0.930 . S
H5867 C5879 0.929 . S
H5868 C5882 0.930 . S
H5869 C5884 0.960 . S
H5870 C5884 0.960 . S
H5871 C5884 0.960 . S
C5872 H5864 0.929 . S
C5872 C5873 1.377 . S
C5872 C5874 1.384 . S
C5873 C5872 1.377 . S
C5873 C5879 1.390 . S
C5874 H5865 0.930 . S
C5874 C5872 1.384 . S
C5874 C5875 1.372 . S
C5875 C5874 1.372 . S
C5875 C5876 1.400 . S
C5875 C5880 1.490 . S
C5876 H5866 0.930 . S
C5876 C5875 1.400 . S
C5876 C5879 1.386 . S
H5877 C5893 0.930 . S
H5878 C5894 0.931 . S
C5879 H5867 0.929 . S
C5879 C5873 1.390 . S
C5879 C5876 1.386 . S
C5880 C5875 1.490 . S
C5880 C5882 1.395 . S
C5880 C5883 1.403 . S
H5881 C5887 0.930 . S
C5882 H5868 0.930 . S
C5882 C5880 1.395 . S
C5882 C5885 1.403 . S
C5883 C5880 1.403 . S
C5883 C5884 1.524 . S
C5883 C5887 1.400 . S
C5884 H5869 0.960 . S
C5884 H5870 0.960 . S
C5884 H5871 0.960 . S
C5884 C5883 1.524 . S
C5885 C5882 1.403 . S
C5885 C5886 1.392 . S
C5885 C5889 1.495 . S
C5886 C5885 1.392 . S
C5886 C5887 1.385 . S
C5886 C5888 1.478 . S
C5887 H5881 0.930 . S
C5887 C5883 1.400 . S
C5887 C5886 1.385 . S
C5888 C5886 1.478 . S
C5888 C5890 1.381 . S
C5888 C5894 1.383 . S
C5889 C5885 1.495 . S
C5889 H5895 0.959 . S
C5889 H5896 0.961 . S
C5889 H5897 0.960 . S
C5890 C5888 1.381 . S
C5890 C5891 1.394 . S
C5890 H5898 0.930 . S
C5891 C5890 1.394 . S
C5891 C5892 1.383 . S
C5891 H5899 0.929 . S
C5892 C5891 1.383 . S
C5892 C5893 1.377 . S
C5893 H5877 0.930 . S
C5893 C5892 1.377 . S
C5893 C5894 1.379 . S
C5894 H5878 0.931 . S
C5894 C5888 1.383 . S
C5894 C5893 1.379 . S
H5895 C5889 0.959 . S
H5896 C5889 0.961 . S
H5897 C5889 0.960 . S
H5898 C5890 0.930 . S
H5899 C5891 0.929 . S
H5900 C5908 0.929 . S
H5901 C5910 0.930 . S
H5902 C5912 0.930 . S
H5903 C5915 0.929 . S
H5904 C5918 0.930 . S
H5905 C5920 0.960 . S
H5906 C5920 0.960 . S
H5907 C5920 0.960 . S
C5908 H5900 0.929 . S
C5908 C5909 1.377 . S
C5908 C5910 1.384 . S
C5909 C5908 1.377 . S
C5909 C5915 1.390 . S
C5910 H5901 0.930 . S
C5910 C5908 1.384 . S
C5910 C5911 1.372 . S
C5911 C5910 1.372 . S
C5911 C5912 1.400 . S
C5911 C5916 1.490 . S
C5912 H5902 0.930 . S
C5912 C5911 1.400 . S
C5912 C5915 1.386 . S
H5913 C5929 0.930 . S
H5914 C5930 0.931 . S
C5915 H5903 0.929 . S
C5915 C5909 1.390 . S
C5915 C5912 1.386 . S
C5916 C5911 1.490 . S
C5916 C5918 1.395 . S
C5916 C5919 1.403 . S
H5917 C5923 0.930 . S
C5918 H5904 0.930 . S
C5918 C5916 1.395 . S
C5918 C5921 1.403 . S
C5919 C5916 1.403 . S
C5919 C5920 1.524 . S
C5919 C5923 1.400 . S
C5920 H5905 0.960 . S
C5920 H5906 0.960 . S
C5920 H5907 0.960 . S
C5920 C5919 1.524 . S
C5921 C5918 1.403 . S
C5921 C5922 1.392 . S
C5921 C5925 1.495 . S
C5922 C5921 1.392 . S
C5922 C5923 1.385 . S
C5922 C5924 1.478 . S
C5923 H5917 0.930 . S
C5923 C5919 1.400 . S
C5923 C5922 1.385 . S
C5924 C5922 1.478 . S
C5924 C5926 1.381 . S
C5924 C5930 1.383 . S
C5925 C5921 1.495 . S
C5925 H5931 0.959 . S
C5925 H5932 0.961 . S
C5925 H5933 0.960 . S
C5926 C5924 1.381 . S
C5926 C5927 1.394 . S
C5926 H5934 0.930 . S
C5927 C5926 1.394 . S
C5927 C5928 1.383 . S
C5927 H5935 0.929 . S
C5928 C5927 1.383 . S
C5928 C5929 1.377 . S
C5929 H5913 0.930 . S
C5929 C5928 1.377 . S
C5929 C5930 1.379 . S
C5930 H5914 0.931 . S
C5930 C5924 1.383 . S
C5930 C5929 1.379 . S
H5931 C5925 0.959 . S
H5932 C5925 0.961 . S
H5933 C5925 0.960 . S
H5934 C5926 0.930 . S
H5935 C5927 0.929 . S
H5936 C5944 0.929 . S
H5937 C5946 0.930 . S
H5938 C5948 0.930 . S
H5939 C5951 0.929 . S
H5940 C5954 0.930 . S
H5941 C5956 0.960 . S
H5942 C5956 0.960 . S
H5943 C5956 0.960 . S
C5944 H5936 0.929 . S
C5944 C5945 1.377 . S
C5944 C5946 1.384 . S
C5945 C5944 1.377 . S
C5945 C5951 1.390 . S
C5946 H5937 0.930 . S
C5946 C5944 1.384 . S
C5946 C5947 1.372 . S
C5947 C5946 1.372 . S
C5947 C5948 1.400 . S
C5947 C5952 1.490 . S
C5948 H5938 0.930 . S
C5948 C5947 1.400 . S
C5948 C5951 1.386 . S
H5949 C5965 0.930 . S
H5950 C5966 0.931 . S
C5951 H5939 0.929 . S
C5951 C5945 1.390 . S
C5951 C5948 1.386 . S
C5952 C5947 1.490 . S
C5952 C5954 1.395 . S
C5952 C5955 1.403 . S
H5953 C5959 0.930 . S
C5954 H5940 0.930 . S
C5954 C5952 1.395 . S
C5954 C5957 1.403 . S
C5955 C5952 1.403 . S
C5955 C5956 1.524 . S
C5955 C5959 1.400 . S
C5956 H5941 0.960 . S
C5956 H5942 0.960 . S
C5956 H5943 0.960 . S
C5956 C5955 1.524 . S
C5957 C5954 1.403 . S
C5957 C5958 1.392 . S
C5957 C5961 1.495 . S
C5958 C5957 1.392 . S
C5958 C5959 1.385 . S
C5958 C5960 1.478 . S
C5959 H5953 0.930 . S
C5959 C5955 1.400 . S
C5959 C5958 1.385 . S
C5960 C5958 1.478 . S
C5960 C5962 1.381 . S
C5960 C5966 1.383 . S
C5961 C5957 1.495 . S
C5961 H5967 0.959 . S
C5961 H5968 0.961 . S
C5961 H5969 0.960 . S
C5962 C5960 1.381 . S
C5962 C5963 1.394 . S
C5962 H5970 0.930 . S
C5963 C5962 1.394 . S
C5963 C5964 1.383 . S
C5963 H5971 0.929 . S
C5964 C5963 1.383 . S
C5964 C5965 1.377 . S
C5965 H5949 0.930 . S
C5965 C5964 1.377 . S
C5965 C5966 1.379 . S
C5966 H5950 0.931 . S
C5966 C5960 1.383 . S
C5966 C5965 1.379 . S
H5967 C5961 0.959 . S
H5968 C5961 0.961 . S
H5969 C5961 0.960 . S
H5970 C5962 0.930 . S
H5971 C5963 0.929 . S
H5972 C5980 0.929 . S
H5973 C5982 0.930 . S
H5974 C5984 0.930 . S
H5975 C5987 0.929 . S
H5976 C5990 0.930 . S
H5977 C5992 0.960 . S
H5978 C5992 0.960 . S
H5979 C5992 0.960 . S
C5980 H5972 0.929 . S
C5980 C5981 1.377 . S
C5980 C5982 1.384 . S
C5981 C5980 1.377 . S
C5981 C5987 1.390 . S
C5982 H5973 0.930 . S
C5982 C5980 1.384 . S
C5982 C5983 1.372 . S
C5983 C5982 1.372 . S
C5983 C5984 1.400 . S
C5983 C5988 1.490 . S
C5984 H5974 0.930 . S
C5984 C5983 1.400 . S
C5984 C5987 1.386 . S
H5985 C6001 0.930 . S
H5986 C6002 0.931 . S
C5987 H5975 0.929 . S
C5987 C5981 1.390 . S
C5987 C5984 1.386 . S
C5988 C5983 1.490 . S
C5988 C5990 1.395 . S
C5988 C5991 1.403 . S
H5989 C5995 0.930 . S
C5990 H5976 0.930 . S
C5990 C5988 1.395 . S
C5990 C5993 1.403 . S
C5991 C5988 1.403 . S
C5991 C5992 1.524 . S
C5991 C5995 1.400 . S
C5992 H5977 0.960 . S
C5992 H5978 0.960 . S
C5992 H5979 0.960 . S
C5992 C5991 1.524 . S
C5993 C5990 1.403 . S
C5993 C5994 1.392 . S
C5993 C5997 1.495 . S
C5994 C5993 1.392 . S
C5994 C5995 1.385 . S
C5994 C5996 1.478 . S
C5995 H5989 0.930 . S
C5995 C5991 1.400 . S
C5995 C5994 1.385 . S
C5996 C5994 1.478 . S
C5996 C5998 1.381 . S
C5996 C6002 1.383 . S
C5997 C5993 1.495 . S
C5997 H6003 0.959 . S
C5997 H6004 0.961 . S
C5997 H6005 0.960 . S
C5998 C5996 1.381 . S
C5998 C5999 1.394 . S
C5998 H6006 0.930 . S
C5999 C5998 1.394 . S
C5999 C6000 1.383 . S
C5999 H6007 0.929 . S
C6000 C5999 1.383 . S
C6000 C6001 1.377 . S
C6001 H5985 0.930 . S
C6001 C6000 1.377 . S
C6001 C6002 1.379 . S
C6002 H5986 0.931 . S
C6002 C5996 1.383 . S
C6002 C6001 1.379 . S
H6003 C5997 0.959 . S
H6004 C5997 0.961 . S
H6005 C5997 0.960 . S
H6006 C5998 0.930 . S
H6007 C5999 0.929 . S
H6008 C6016 0.929 . S
H6009 C6018 0.930 . S
H6010 C6020 0.930 . S
H6011 C6023 0.929 . S
H6012 C6026 0.930 . S
H6013 C6028 0.960 . S
H6014 C6028 0.960 . S
H6015 C6028 0.960 . S
C6016 H6008 0.929 . S
C6016 C6017 1.377 . S
C6016 C6018 1.384 . S
C6017 C6016 1.377 . S
C6017 C6023 1.390 . S
C6018 H6009 0.930 . S
C6018 C6016 1.384 . S
C6018 C6019 1.372 . S
C6019 C6018 1.372 . S
C6019 C6020 1.400 . S
C6019 C6024 1.490 . S
C6020 H6010 0.930 . S
C6020 C6019 1.400 . S
C6020 C6023 1.386 . S
H6021 C6037 0.930 . S
H6022 C6038 0.931 . S
C6023 H6011 0.929 . S
C6023 C6017 1.390 . S
C6023 C6020 1.386 . S
C6024 C6019 1.490 . S
C6024 C6026 1.395 . S
C6024 C6027 1.403 . S
H6025 C6031 0.930 . S
C6026 H6012 0.930 . S
C6026 C6024 1.395 . S
C6026 C6029 1.403 . S
C6027 C6024 1.403 . S
C6027 C6028 1.524 . S
C6027 C6031 1.400 . S
C6028 H6013 0.960 . S
C6028 H6014 0.960 . S
C6028 H6015 0.960 . S
C6028 C6027 1.524 . S
C6029 C6026 1.403 . S
C6029 C6030 1.392 . S
C6029 C6033 1.495 . S
C6030 C6029 1.392 . S
C6030 C6031 1.385 . S
C6030 C6032 1.478 . S
C6031 H6025 0.930 . S
C6031 C6027 1.400 . S
C6031 C6030 1.385 . S
C6032 C6030 1.478 . S
C6032 C6034 1.381 . S
C6032 C6038 1.383 . S
C6033 C6029 1.495 . S
C6033 H6039 0.959 . S
C6033 H6040 0.961 . S
C6033 H6041 0.960 . S
C6034 C6032 1.381 . S
C6034 C6035 1.394 . S
C6034 H6042 0.930 . S
C6035 C6034 1.394 . S
C6035 C6036 1.383 . S
C6035 H6043 0.929 . S
C6036 C6035 1.383 . S
C6036 C6037 1.377 . S
C6037 H6021 0.930 . S
C6037 C6036 1.377 . S
C6037 C6038 1.379 . S
C6038 H6022 0.931 . S
C6038 C6032 1.383 . S
C6038 C6037 1.379 . S
H6039 C6033 0.959 . S
H6040 C6033 0.961 . S
H6041 C6033 0.960 . S
H6042 C6034 0.930 . S
H6043 C6035 0.929 . S
H6044 C6052 0.929 . S
H6045 C6054 0.930 . S
H6046 C6056 0.930 . S
H6047 C6059 0.929 . S
H6048 C6062 0.930 . S
H6049 C6064 0.960 . S
H6050 C6064 0.960 . S
H6051 C6064 0.960 . S
C6052 H6044 0.929 . S
C6052 C6053 1.377 . S
C6052 C6054 1.384 . S
C6053 C6052 1.377 . S
C6053 C6059 1.390 . S
C6054 H6045 0.930 . S
C6054 C6052 1.384 . S
C6054 C6055 1.372 . S
C6055 C6054 1.372 . S
C6055 C6056 1.400 . S
C6055 C6060 1.490 . S
C6056 H6046 0.930 . S
C6056 C6055 1.400 . S
C6056 C6059 1.386 . S
H6057 C6073 0.930 . S
H6058 C6074 0.931 . S
C6059 H6047 0.929 . S
C6059 C6053 1.390 . S
C6059 C6056 1.386 . S
C6060 C6055 1.490 . S
C6060 C6062 1.395 . S
C6060 C6063 1.403 . S
H6061 C6067 0.930 . S
C6062 H6048 0.930 . S
C6062 C6060 1.395 . S
C6062 C6065 1.403 . S
C6063 C6060 1.403 . S
C6063 C6064 1.524 . S
C6063 C6067 1.400 . S
C6064 H6049 0.960 . S
C6064 H6050 0.960 . S
C6064 H6051 0.960 . S
C6064 C6063 1.524 . S
C6065 C6062 1.403 . S
C6065 C6066 1.392 . S
C6065 C6069 1.495 . S
C6066 C6065 1.392 . S
C6066 C6067 1.385 . S
C6066 C6068 1.478 . S
C6067 H6061 0.930 . S
C6067 C6063 1.400 . S
C6067 C6066 1.385 . S
C6068 C6066 1.478 . S
C6068 C6070 1.381 . S
C6068 C6074 1.383 . S
C6069 C6065 1.495 . S
C6069 H6075 0.959 . S
C6069 H6076 0.961 . S
C6069 H6077 0.960 . S
C6070 C6068 1.381 . S
C6070 C6071 1.394 . S
C6070 H6078 0.930 . S
C6071 C6070 1.394 . S
C6071 C6072 1.383 . S
C6071 H6079 0.929 . S
C6072 C6071 1.383 . S
C6072 C6073 1.377 . S
C6073 H6057 0.930 . S
C6073 C6072 1.377 . S
C6073 C6074 1.379 . S
C6074 H6058 0.931 . S
C6074 C6068 1.383 . S
C6074 C6073 1.379 . S
H6075 C6069 0.959 . S
H6076 C6069 0.961 . S
H6077 C6069 0.960 . S
H6078 C6070 0.930 . S
H6079 C6071 0.929 . S
H6080 C6088 0.929 . S
H6081 C6090 0.930 . S
H6082 C6092 0.930 . S
H6083 C6095 0.929 . S
H6084 C6098 0.930 . S
H6085 C6100 0.960 . S
H6086 C6100 0.960 . S
H6087 C6100 0.960 . S
C6088 H6080 0.929 . S
C6088 C6089 1.377 . S
C6088 C6090 1.384 . S
C6089 C6088 1.377 . S
C6089 C6095 1.390 . S
C6090 H6081 0.930 . S
C6090 C6088 1.384 . S
C6090 C6091 1.372 . S
C6091 C6090 1.372 . S
C6091 C6092 1.400 . S
C6091 C6096 1.490 . S
C6092 H6082 0.930 . S
C6092 C6091 1.400 . S
C6092 C6095 1.386 . S
H6093 C6109 0.930 . S
H6094 C6110 0.931 . S
C6095 H6083 0.929 . S
C6095 C6089 1.390 . S
C6095 C6092 1.386 . S
C6096 C6091 1.490 . S
C6096 C6098 1.395 . S
C6096 C6099 1.403 . S
H6097 C6103 0.930 . S
C6098 H6084 0.930 . S
C6098 C6096 1.395 . S
C6098 C6101 1.403 . S
C6099 C6096 1.403 . S
C6099 C6100 1.524 . S
C6099 C6103 1.400 . S
C6100 H6085 0.960 . S
C6100 H6086 0.960 . S
C6100 H6087 0.960 . S
C6100 C6099 1.524 . S
C6101 C6098 1.403 . S
C6101 C6102 1.392 . S
C6101 C6105 1.495 . S
C6102 C6101 1.392 . S
C6102 C6103 1.385 . S
C6102 C6104 1.478 . S
C6103 H6097 0.930 . S
C6103 C6099 1.400 . S
C6103 C6102 1.385 . S
C6104 C6102 1.478 . S
C6104 C6106 1.381 . S
C6104 C6110 1.383 . S
C6105 C6101 1.495 . S
C6105 H6111 0.959 . S
C6105 H6112 0.961 . S
C6105 H6113 0.960 . S
C6106 C6104 1.381 . S
C6106 C6107 1.394 . S
C6106 H6114 0.930 . S
C6107 C6106 1.394 . S
C6107 C6108 1.383 . S
C6107 H6115 0.929 . S
C6108 C6107 1.383 . S
C6108 C6109 1.377 . S
C6109 H6093 0.930 . S
C6109 C6108 1.377 . S
C6109 C6110 1.379 . S
C6110 H6094 0.931 . S
C6110 C6104 1.383 . S
C6110 C6109 1.379 . S
H6111 C6105 0.959 . S
H6112 C6105 0.961 . S
H6113 C6105 0.960 . S
H6114 C6106 0.930 . S
H6115 C6107 0.929 . S
H6116 C6124 0.929 . S
H6117 C6126 0.930 . S
H6118 C6128 0.930 . S
H6119 C6131 0.929 . S
H6120 C6134 0.930 . S
H6121 C6136 0.960 . S
H6122 C6136 0.960 . S
H6123 C6136 0.960 . S
C6124 H6116 0.929 . S
C6124 C6125 1.377 . S
C6124 C6126 1.384 . S
C6125 C6124 1.377 . S
C6125 C6131 1.390 . S
C6126 H6117 0.930 . S
C6126 C6124 1.384 . S
C6126 C6127 1.372 . S
C6127 C6126 1.372 . S
C6127 C6128 1.400 . S
C6127 C6132 1.490 . S
C6128 H6118 0.930 . S
C6128 C6127 1.400 . S
C6128 C6131 1.386 . S
H6129 C6145 0.930 . S
H6130 C6146 0.931 . S
C6131 H6119 0.929 . S
C6131 C6125 1.390 . S
C6131 C6128 1.386 . S
C6132 C6127 1.490 . S
C6132 C6134 1.395 . S
C6132 C6135 1.403 . S
H6133 C6139 0.930 . S
C6134 H6120 0.930 . S
C6134 C6132 1.395 . S
C6134 C6137 1.403 . S
C6135 C6132 1.403 . S
C6135 C6136 1.524 . S
C6135 C6139 1.400 . S
C6136 H6121 0.960 . S
C6136 H6122 0.960 . S
C6136 H6123 0.960 . S
C6136 C6135 1.524 . S
C6137 C6134 1.403 . S
C6137 C6138 1.392 . S
C6137 C6141 1.495 . S
C6138 C6137 1.392 . S
C6138 C6139 1.385 . S
C6138 C6140 1.478 . S
C6139 H6133 0.930 . S
C6139 C6135 1.400 . S
C6139 C6138 1.385 . S
C6140 C6138 1.478 . S
C6140 C6142 1.381 . S
C6140 C6146 1.383 . S
C6141 C6137 1.495 . S
C6141 H6147 0.959 . S
C6141 H6148 0.961 . S
C6141 H6149 0.960 . S
C6142 C6140 1.381 . S
C6142 C6143 1.394 . S
C6142 H6150 0.930 . S
C6143 C6142 1.394 . S
C6143 C6144 1.383 . S
C6143 H6151 0.929 . S
C6144 C6143 1.383 . S
C6144 C6145 1.377 . S
C6145 H6129 0.930 . S
C6145 C6144 1.377 . S
C6145 C6146 1.379 . S
C6146 H6130 0.931 . S
C6146 C6140 1.383 . S
C6146 C6145 1.379 . S
H6147 C6141 0.959 . S
H6148 C6141 0.961 . S
H6149 C6141 0.960 . S
H6150 C6142 0.930 . S
H6151 C6143 0.929 . S
H6152 C6160 0.929 . S
H6153 C6162 0.930 . S
H6154 C6164 0.930 . S
H6155 C6167 0.929 . S
H6156 C6170 0.930 . S
H6157 C6172 0.960 . S
H6158 C6172 0.960 . S
H6159 C6172 0.960 . S
C6160 H6152 0.929 . S
C6160 C6161 1.377 . S
C6160 C6162 1.384 . S
C6161 C6160 1.377 . S
C6161 C6167 1.390 . S
C6162 H6153 0.930 . S
C6162 C6160 1.384 . S
C6162 C6163 1.372 . S
C6163 C6162 1.372 . S
C6163 C6164 1.400 . S
C6163 C6168 1.490 . S
C6164 H6154 0.930 . S
C6164 C6163 1.400 . S
C6164 C6167 1.386 . S
H6165 C6181 0.930 . S
H6166 C6182 0.931 . S
C6167 H6155 0.929 . S
C6167 C6161 1.390 . S
C6167 C6164 1.386 . S
C6168 C6163 1.490 . S
C6168 C6170 1.395 . S
C6168 C6171 1.403 . S
H6169 C6175 0.930 . S
C6170 H6156 0.930 . S
C6170 C6168 1.395 . S
C6170 C6173 1.403 . S
C6171 C6168 1.403 . S
C6171 C6172 1.524 . S
C6171 C6175 1.400 . S
C6172 H6157 0.960 . S
C6172 H6158 0.960 . S
C6172 H6159 0.960 . S
C6172 C6171 1.524 . S
C6173 C6170 1.403 . S
C6173 C6174 1.392 . S
C6173 C6177 1.495 . S
C6174 C6173 1.392 . S
C6174 C6175 1.385 . S
C6174 C6176 1.478 . S
C6175 H6169 0.930 . S
C6175 C6171 1.400 . S
C6175 C6174 1.385 . S
C6176 C6174 1.478 . S
C6176 C6178 1.381 . S
C6176 C6182 1.383 . S
C6177 C6173 1.495 . S
C6177 H6183 0.959 . S
C6177 H6184 0.961 . S
C6177 H6185 0.960 . S
C6178 C6176 1.381 . S
C6178 C6179 1.394 . S
C6178 H6186 0.930 . S
C6179 C6178 1.394 . S
C6179 C6180 1.383 . S
C6179 H6187 0.929 . S
C6180 C6179 1.383 . S
C6180 C6181 1.377 . S
C6181 H6165 0.930 . S
C6181 C6180 1.377 . S
C6181 C6182 1.379 . S
C6182 H6166 0.931 . S
C6182 C6176 1.383 . S
C6182 C6181 1.379 . S
H6183 C6177 0.959 . S
H6184 C6177 0.961 . S
H6185 C6177 0.960 . S
H6186 C6178 0.930 . S
H6187 C6179 0.929 . S
H6188 C6196 0.929 . S
H6189 C6198 0.930 . S
H6190 C6200 0.930 . S
H6191 C6203 0.929 . S
H6192 C6206 0.930 . S
H6193 C6208 0.960 . S
H6194 C6208 0.960 . S
H6195 C6208 0.960 . S
C6196 H6188 0.929 . S
C6196 C6197 1.377 . S
C6196 C6198 1.384 . S
C6197 C6196 1.377 . S
C6197 C6203 1.390 . S
C6198 H6189 0.930 . S
C6198 C6196 1.384 . S
C6198 C6199 1.372 . S
C6199 C6198 1.372 . S
C6199 C6200 1.400 . S
C6199 C6204 1.490 . S
C6200 H6190 0.930 . S
C6200 C6199 1.400 . S
C6200 C6203 1.386 . S
H6201 C6217 0.930 . S
H6202 C6218 0.931 . S
C6203 H6191 0.929 . S
C6203 C6197 1.390 . S
C6203 C6200 1.386 . S
C6204 C6199 1.490 . S
C6204 C6206 1.395 . S
C6204 C6207 1.403 . S
H6205 C6211 0.930 . S
C6206 H6192 0.930 . S
C6206 C6204 1.395 . S
C6206 C6209 1.403 . S
C6207 C6204 1.403 . S
C6207 C6208 1.524 . S
C6207 C6211 1.400 . S
C6208 H6193 0.960 . S
C6208 H6194 0.960 . S
C6208 H6195 0.960 . S
C6208 C6207 1.524 . S
C6209 C6206 1.403 . S
C6209 C6210 1.392 . S
C6209 C6213 1.495 . S
C6210 C6209 1.392 . S
C6210 C6211 1.385 . S
C6210 C6212 1.478 . S
C6211 H6205 0.930 . S
C6211 C6207 1.400 . S
C6211 C6210 1.385 . S
C6212 C6210 1.478 . S
C6212 C6214 1.381 . S
C6212 C6218 1.383 . S
C6213 C6209 1.495 . S
C6213 H6219 0.959 . S
C6213 H6220 0.961 . S
C6213 H6221 0.960 . S
C6214 C6212 1.381 . S
C6214 C6215 1.394 . S
C6214 H6222 0.930 . S
C6215 C6214 1.394 . S
C6215 C6216 1.383 . S
C6215 H6223 0.929 . S
C6216 C6215 1.383 . S
C6216 C6217 1.377 . S
C6217 H6201 0.930 . S
C6217 C6216 1.377 . S
C6217 C6218 1.379 . S
C6218 H6202 0.931 . S
C6218 C6212 1.383 . S
C6218 C6217 1.379 . S
H6219 C6213 0.959 . S
H6220 C6213 0.961 . S
H6221 C6213 0.960 . S
H6222 C6214 0.930 . S
H6223 C6215 0.929 . S
H6224 C6232 0.929 . S
H6225 C6234 0.930 . S
H6226 C6236 0.930 . S
H6227 C6239 0.929 . S
H6228 C6242 0.930 . S
H6229 C6244 0.960 . S
H6230 C6244 0.960 . S
H6231 C6244 0.960 . S
C6232 H6224 0.929 . S
C6232 C6233 1.377 . S
C6232 C6234 1.384 . S
C6233 C6232 1.377 . S
C6233 C6239 1.390 . S
C6234 H6225 0.930 . S
C6234 C6232 1.384 . S
C6234 C6235 1.372 . S
C6235 C6234 1.372 . S
C6235 C6236 1.400 . S
C6235 C6240 1.490 . S
C6236 H6226 0.930 . S
C6236 C6235 1.400 . S
C6236 C6239 1.386 . S
H6237 C6253 0.930 . S
H6238 C6254 0.931 . S
C6239 H6227 0.929 . S
C6239 C6233 1.390 . S
C6239 C6236 1.386 . S
C6240 C6235 1.490 . S
C6240 C6242 1.395 . S
C6240 C6243 1.403 . S
H6241 C6247 0.930 . S
C6242 H6228 0.930 . S
C6242 C6240 1.395 . S
C6242 C6245 1.403 . S
C6243 C6240 1.403 . S
C6243 C6244 1.524 . S
C6243 C6247 1.400 . S
C6244 H6229 0.960 . S
C6244 H6230 0.960 . S
C6244 H6231 0.960 . S
C6244 C6243 1.524 . S
C6245 C6242 1.403 . S
C6245 C6246 1.392 . S
C6245 C6249 1.495 . S
C6246 C6245 1.392 . S
C6246 C6247 1.385 . S
C6246 C6248 1.478 . S
C6247 H6241 0.930 . S
C6247 C6243 1.400 . S
C6247 C6246 1.385 . S
C6248 C6246 1.478 . S
C6248 C6250 1.381 . S
C6248 C6254 1.383 . S
C6249 C6245 1.495 . S
C6249 H6255 0.959 . S
C6249 H6256 0.961 . S
C6249 H6257 0.960 . S
C6250 C6248 1.381 . S
C6250 C6251 1.394 . S
C6250 H6258 0.930 . S
C6251 C6250 1.394 . S
C6251 C6252 1.383 . S
C6251 H6259 0.929 . S
C6252 C6251 1.383 . S
C6252 C6253 1.377 . S
C6253 H6237 0.930 . S
C6253 C6252 1.377 . S
C6253 C6254 1.379 . S
C6254 H6238 0.931 . S
C6254 C6248 1.383 . S
C6254 C6253 1.379 . S
H6255 C6249 0.959 . S
H6256 C6249 0.961 . S
H6257 C6249 0.960 . S
H6258 C6250 0.930 . S
H6259 C6251 0.929 . S
H6260 C6268 0.929 . S
H6261 C6270 0.930 . S
H6262 C6272 0.930 . S
H6263 C6275 0.929 . S
H6264 C6278 0.930 . S
H6265 C6280 0.960 . S
H6266 C6280 0.960 . S
H6267 C6280 0.960 . S
C6268 H6260 0.929 . S
C6268 C6269 1.377 . S
C6268 C6270 1.384 . S
C6269 C6268 1.377 . S
C6269 C6275 1.390 . S
C6270 H6261 0.930 . S
C6270 C6268 1.384 . S
C6270 C6271 1.372 . S
C6271 C6270 1.372 . S
C6271 C6272 1.400 . S
C6271 C6276 1.490 . S
C6272 H6262 0.930 . S
C6272 C6271 1.400 . S
C6272 C6275 1.386 . S
H6273 C6289 0.930 . S
H6274 C6290 0.931 . S
C6275 H6263 0.929 . S
C6275 C6269 1.390 . S
C6275 C6272 1.386 . S
C6276 C6271 1.490 . S
C6276 C6278 1.395 . S
C6276 C6279 1.403 . S
H6277 C6283 0.930 . S
C6278 H6264 0.930 . S
C6278 C6276 1.395 . S
C6278 C6281 1.403 . S
C6279 C6276 1.403 . S
C6279 C6280 1.524 . S
C6279 C6283 1.400 . S
C6280 H6265 0.960 . S
C6280 H6266 0.960 . S
C6280 H6267 0.960 . S
C6280 C6279 1.524 . S
C6281 C6278 1.403 . S
C6281 C6282 1.392 . S
C6281 C6285 1.495 . S
C6282 C6281 1.392 . S
C6282 C6283 1.385 . S
C6282 C6284 1.478 . S
C6283 H6277 0.930 . S
C6283 C6279 1.400 . S
C6283 C6282 1.385 . S
C6284 C6282 1.478 . S
C6284 C6286 1.381 . S
C6284 C6290 1.383 . S
C6285 C6281 1.495 . S
C6285 H6291 0.959 . S
C6285 H6292 0.961 . S
C6285 H6293 0.960 . S
C6286 C6284 1.381 . S
C6286 C6287 1.394 . S
C6286 H6294 0.930 . S
C6287 C6286 1.394 . S
C6287 C6288 1.383 . S
C6287 H6295 0.929 . S
C6288 C6287 1.383 . S
C6288 C6289 1.377 . S
C6289 H6273 0.930 . S
C6289 C6288 1.377 . S
C6289 C6290 1.379 . S
C6290 H6274 0.931 . S
C6290 C6284 1.383 . S
C6290 C6289 1.379 . S
H6291 C6285 0.959 . S
H6292 C6285 0.961 . S
H6293 C6285 0.960 . S
H6294 C6286 0.930 . S
H6295 C6287 0.929 . S
H6296 C6304 0.929 . S
H6297 C6306 0.930 . S
H6298 C6308 0.930 . S
H6299 C6311 0.929 . S
H6300 C6314 0.930 . S
H6301 C6316 0.960 . S
H6302 C6316 0.960 . S
H6303 C6316 0.960 . S
C6304 H6296 0.929 . S
C6304 C6305 1.377 . S
C6304 C6306 1.384 . S
C6305 C6304 1.377 . S
C6305 C6311 1.390 . S
C6306 H6297 0.930 . S
C6306 C6304 1.384 . S
C6306 C6307 1.372 . S
C6307 C6306 1.372 . S
C6307 C6308 1.400 . S
C6307 C6312 1.490 . S
C6308 H6298 0.930 . S
C6308 C6307 1.400 . S
C6308 C6311 1.386 . S
H6309 C6325 0.930 . S
H6310 C6326 0.931 . S
C6311 H6299 0.929 . S
C6311 C6305 1.390 . S
C6311 C6308 1.386 . S
C6312 C6307 1.490 . S
C6312 C6314 1.395 . S
C6312 C6315 1.403 . S
H6313 C6319 0.930 . S
C6314 H6300 0.930 . S
C6314 C6312 1.395 . S
C6314 C6317 1.403 . S
C6315 C6312 1.403 . S
C6315 C6316 1.524 . S
C6315 C6319 1.400 . S
C6316 H6301 0.960 . S
C6316 H6302 0.960 . S
C6316 H6303 0.960 . S
C6316 C6315 1.524 . S
C6317 C6314 1.403 . S
C6317 C6318 1.392 . S
C6317 C6321 1.495 . S
C6318 C6317 1.392 . S
C6318 C6319 1.385 . S
C6318 C6320 1.478 . S
C6319 H6313 0.930 . S
C6319 C6315 1.400 . S
C6319 C6318 1.385 . S
C6320 C6318 1.478 . S
C6320 C6322 1.381 . S
C6320 C6326 1.383 . S
C6321 C6317 1.495 . S
C6321 H6327 0.959 . S
C6321 H6328 0.961 . S
C6321 H6329 0.960 . S
C6322 C6320 1.381 . S
C6322 C6323 1.394 . S
C6322 H6330 0.930 . S
C6323 C6322 1.394 . S
C6323 C6324 1.383 . S
C6323 H6331 0.929 . S
C6324 C6323 1.383 . S
C6324 C6325 1.377 . S
C6325 H6309 0.930 . S
C6325 C6324 1.377 . S
C6325 C6326 1.379 . S
C6326 H6310 0.931 . S
C6326 C6320 1.383 . S
C6326 C6325 1.379 . S
H6327 C6321 0.959 . S
H6328 C6321 0.961 . S
H6329 C6321 0.960 . S
H6330 C6322 0.930 . S
H6331 C6323 0.929 . S
H6332 C6340 0.929 . S
H6333 C6342 0.930 . S
H6334 C6344 0.930 . S
H6335 C6347 0.929 . S
H6336 C6350 0.930 . S
H6337 C6352 0.960 . S
H6338 C6352 0.960 . S
H6339 C6352 0.960 . S
C6340 H6332 0.929 . S
C6340 C6341 1.377 . S
C6340 C6342 1.384 . S
C6341 C6340 1.377 . S
C6341 C6347 1.390 . S
C6342 H6333 0.930 . S
C6342 C6340 1.384 . S
C6342 C6343 1.372 . S
C6343 C6342 1.372 . S
C6343 C6344 1.400 . S
C6343 C6348 1.490 . S
C6344 H6334 0.930 . S
C6344 C6343 1.400 . S
C6344 C6347 1.386 . S
H6345 C6361 0.930 . S
H6346 C6362 0.931 . S
C6347 H6335 0.929 . S
C6347 C6341 1.390 . S
C6347 C6344 1.386 . S
C6348 C6343 1.490 . S
C6348 C6350 1.395 . S
C6348 C6351 1.403 . S
H6349 C6355 0.930 . S
C6350 H6336 0.930 . S
C6350 C6348 1.395 . S
C6350 C6353 1.403 . S
C6351 C6348 1.403 . S
C6351 C6352 1.524 . S
C6351 C6355 1.400 . S
C6352 H6337 0.960 . S
C6352 H6338 0.960 . S
C6352 H6339 0.960 . S
C6352 C6351 1.524 . S
C6353 C6350 1.403 . S
C6353 C6354 1.392 . S
C6353 C6357 1.495 . S
C6354 C6353 1.392 . S
C6354 C6355 1.385 . S
C6354 C6356 1.478 . S
C6355 H6349 0.930 . S
C6355 C6351 1.400 . S
C6355 C6354 1.385 . S
C6356 C6354 1.478 . S
C6356 C6358 1.381 . S
C6356 C6362 1.383 . S
C6357 C6353 1.495 . S
C6357 H6363 0.959 . S
C6357 H6364 0.961 . S
C6357 H6365 0.960 . S
C6358 C6356 1.381 . S
C6358 C6359 1.394 . S
C6358 H6366 0.930 . S
C6359 C6358 1.394 . S
C6359 C6360 1.383 . S
C6359 H6367 0.929 . S
C6360 C6359 1.383 . S
C6360 C6361 1.377 . S
C6361 H6345 0.930 . S
C6361 C6360 1.377 . S
C6361 C6362 1.379 . S
C6362 H6346 0.931 . S
C6362 C6356 1.383 . S
C6362 C6361 1.379 . S
H6363 C6357 0.959 . S
H6364 C6357 0.961 . S
H6365 C6357 0.960 . S
H6366 C6358 0.930 . S
H6367 C6359 0.929 . S
H6368 C6376 0.929 . S
H6369 C6378 0.930 . S
H6370 C6380 0.930 . S
H6371 C6383 0.929 . S
H6372 C6386 0.930 . S
H6373 C6388 0.960 . S
H6374 C6388 0.960 . S
H6375 C6388 0.960 . S
C6376 H6368 0.929 . S
C6376 C6377 1.377 . S
C6376 C6378 1.384 . S
C6377 C6376 1.377 . S
C6377 C6383 1.390 . S
C6378 H6369 0.930 . S
C6378 C6376 1.384 . S
C6378 C6379 1.372 . S
C6379 C6378 1.372 . S
C6379 C6380 1.400 . S
C6379 C6384 1.490 . S
C6380 H6370 0.930 . S
C6380 C6379 1.400 . S
C6380 C6383 1.386 . S
H6381 C6397 0.930 . S
H6382 C6398 0.931 . S
C6383 H6371 0.929 . S
C6383 C6377 1.390 . S
C6383 C6380 1.386 . S
C6384 C6379 1.490 . S
C6384 C6386 1.395 . S
C6384 C6387 1.403 . S
H6385 C6391 0.930 . S
C6386 H6372 0.930 . S
C6386 C6384 1.395 . S
C6386 C6389 1.403 . S
C6387 C6384 1.403 . S
C6387 C6388 1.524 . S
C6387 C6391 1.400 . S
C6388 H6373 0.960 . S
C6388 H6374 0.960 . S
C6388 H6375 0.960 . S
C6388 C6387 1.524 . S
C6389 C6386 1.403 . S
C6389 C6390 1.392 . S
C6389 C6393 1.495 . S
C6390 C6389 1.392 . S
C6390 C6391 1.385 . S
C6390 C6392 1.478 . S
C6391 H6385 0.930 . S
C6391 C6387 1.400 . S
C6391 C6390 1.385 . S
C6392 C6390 1.478 . S
C6392 C6394 1.381 . S
C6392 C6398 1.383 . S
C6393 C6389 1.495 . S
C6393 H6399 0.959 . S
C6393 H6400 0.961 . S
C6393 H6401 0.960 . S
C6394 C6392 1.381 . S
C6394 C6395 1.394 . S
C6394 H6402 0.930 . S
C6395 C6394 1.394 . S
C6395 C6396 1.383 . S
C6395 H6403 0.929 . S
C6396 C6395 1.383 . S
C6396 C6397 1.377 . S
C6397 H6381 0.930 . S
C6397 C6396 1.377 . S
C6397 C6398 1.379 . S
C6398 H6382 0.931 . S
C6398 C6392 1.383 . S
C6398 C6397 1.379 . S
H6399 C6393 0.959 . S
H6400 C6393 0.961 . S
H6401 C6393 0.960 . S
H6402 C6394 0.930 . S
H6403 C6395 0.929 . S
H6404 C6412 0.929 . S
H6405 C6414 0.930 . S
H6406 C6416 0.930 . S
H6407 C6419 0.929 . S
H6408 C6422 0.930 . S
H6409 C6424 0.960 . S
H6410 C6424 0.960 . S
H6411 C6424 0.960 . S
C6412 H6404 0.929 . S
C6412 C6413 1.377 . S
C6412 C6414 1.384 . S
C6413 C6412 1.377 . S
C6413 C6419 1.390 . S
C6414 H6405 0.930 . S
C6414 C6412 1.384 . S
C6414 C6415 1.372 . S
C6415 C6414 1.372 . S
C6415 C6416 1.400 . S
C6415 C6420 1.490 . S
C6416 H6406 0.930 . S
C6416 C6415 1.400 . S
C6416 C6419 1.386 . S
H6417 C6433 0.930 . S
H6418 C6434 0.931 . S
C6419 H6407 0.929 . S
C6419 C6413 1.390 . S
C6419 C6416 1.386 . S
C6420 C6415 1.490 . S
C6420 C6422 1.395 . S
C6420 C6423 1.403 . S
H6421 C6427 0.930 . S
C6422 H6408 0.930 . S
C6422 C6420 1.395 . S
C6422 C6425 1.403 . S
C6423 C6420 1.403 . S
C6423 C6424 1.524 . S
C6423 C6427 1.400 . S
C6424 H6409 0.960 . S
C6424 H6410 0.960 . S
C6424 H6411 0.960 . S
C6424 C6423 1.524 . S
C6425 C6422 1.403 . S
C6425 C6426 1.392 . S
C6425 C6429 1.495 . S
C6426 C6425 1.392 . S
C6426 C6427 1.385 . S
C6426 C6428 1.478 . S
C6427 H6421 0.930 . S
C6427 C6423 1.400 . S
C6427 C6426 1.385 . S
C6428 C6426 1.478 . S
C6428 C6430 1.381 . S
C6428 C6434 1.383 . S
C6429 C6425 1.495 . S
C6429 H6435 0.959 . S
C6429 H6436 0.961 . S
C6429 H6437 0.960 . S
C6430 C6428 1.381 . S
C6430 C6431 1.394 . S
C6430 H6438 0.930 . S
C6431 C6430 1.394 . S
C6431 C6432 1.383 . S
C6431 H6439 0.929 . S
C6432 C6431 1.383 . S
C6432 C6433 1.377 . S
C6433 H6417 0.930 . S
C6433 C6432 1.377 . S
C6433 C6434 1.379 . S
C6434 H6418 0.931 . S
C6434 C6428 1.383 . S
C6434 C6433 1.379 . S
H6435 C6429 0.959 . S
H6436 C6429 0.961 . S
H6437 C6429 0.960 . S
H6438 C6430 0.930 . S
H6439 C6431 0.929 . S
H6440 C6448 0.929 . S
H6441 C6450 0.930 . S
H6442 C6452 0.930 . S
H6443 C6455 0.929 . S
H6444 C6458 0.930 . S
H6445 C6460 0.960 . S
H6446 C6460 0.960 . S
H6447 C6460 0.960 . S
C6448 H6440 0.929 . S
C6448 C6449 1.377 . S
C6448 C6450 1.384 . S
C6449 C6448 1.377 . S
C6449 C6455 1.390 . S
C6450 H6441 0.930 . S
C6450 C6448 1.384 . S
C6450 C6451 1.372 . S
C6451 C6450 1.372 . S
C6451 C6452 1.400 . S
C6451 C6456 1.490 . S
C6452 H6442 0.930 . S
C6452 C6451 1.400 . S
C6452 C6455 1.386 . S
H6453 C6469 0.930 . S
H6454 C6470 0.931 . S
C6455 H6443 0.929 . S
C6455 C6449 1.390 . S
C6455 C6452 1.386 . S
C6456 C6451 1.490 . S
C6456 C6458 1.395 . S
C6456 C6459 1.403 . S
H6457 C6463 0.930 . S
C6458 H6444 0.930 . S
C6458 C6456 1.395 . S
C6458 C6461 1.403 . S
C6459 C6456 1.403 . S
C6459 C6460 1.524 . S
C6459 C6463 1.400 . S
C6460 H6445 0.960 . S
C6460 H6446 0.960 . S
C6460 H6447 0.960 . S
C6460 C6459 1.524 . S
C6461 C6458 1.403 . S
C6461 C6462 1.392 . S
C6461 C6465 1.495 . S
C6462 C6461 1.392 . S
C6462 C6463 1.385 . S
C6462 C6464 1.478 . S
C6463 H6457 0.930 . S
C6463 C6459 1.400 . S
C6463 C6462 1.385 . S
C6464 C6462 1.478 . S
C6464 C6466 1.381 . S
C6464 C6470 1.383 . S
C6465 C6461 1.495 . S
C6465 H6471 0.959 . S
C6465 H6472 0.961 . S
C6465 H6473 0.960 . S
C6466 C6464 1.381 . S
C6466 C6467 1.394 . S
C6466 H6474 0.930 . S
C6467 C6466 1.394 . S
C6467 C6468 1.383 . S
C6467 H6475 0.929 . S
C6468 C6467 1.383 . S
C6468 C6469 1.377 . S
C6469 H6453 0.930 . S
C6469 C6468 1.377 . S
C6469 C6470 1.379 . S
C6470 H6454 0.931 . S
C6470 C6464 1.383 . S
C6470 C6469 1.379 . S
H6471 C6465 0.959 . S
H6472 C6465 0.961 . S
H6473 C6465 0.960 . S
H6474 C6466 0.930 . S
H6475 C6467 0.929 . S
H6476 C6484 0.929 . S
H6477 C6486 0.930 . S
H6478 C6488 0.930 . S
H6479 C6491 0.929 . S
H6480 C6494 0.930 . S
H6481 C6496 0.960 . S
H6482 C6496 0.960 . S
H6483 C6496 0.960 . S
C6484 H6476 0.929 . S
C6484 C6485 1.377 . S
C6484 C6486 1.384 . S
C6485 C6484 1.377 . S
C6485 C6491 1.390 . S
C6486 H6477 0.930 . S
C6486 C6484 1.384 . S
C6486 C6487 1.372 . S
C6487 C6486 1.372 . S
C6487 C6488 1.400 . S
C6487 C6492 1.490 . S
C6488 H6478 0.930 . S
C6488 C6487 1.400 . S
C6488 C6491 1.386 . S
H6489 C6505 0.930 . S
H6490 C6506 0.931 . S
C6491 H6479 0.929 . S
C6491 C6485 1.390 . S
C6491 C6488 1.386 . S
C6492 C6487 1.490 . S
C6492 C6494 1.395 . S
C6492 C6495 1.403 . S
H6493 C6499 0.930 . S
C6494 H6480 0.930 . S
C6494 C6492 1.395 . S
C6494 C6497 1.403 . S
C6495 C6492 1.403 . S
C6495 C6496 1.524 . S
C6495 C6499 1.400 . S
C6496 H6481 0.960 . S
C6496 H6482 0.960 . S
C6496 H6483 0.960 . S
C6496 C6495 1.524 . S
C6497 C6494 1.403 . S
C6497 C6498 1.392 . S
C6497 C6501 1.495 . S
C6498 C6497 1.392 . S
C6498 C6499 1.385 . S
C6498 C6500 1.478 . S
C6499 H6493 0.930 . S
C6499 C6495 1.400 . S
C6499 C6498 1.385 . S
C6500 C6498 1.478 . S
C6500 C6502 1.381 . S
C6500 C6506 1.383 . S
C6501 C6497 1.495 . S
C6501 H6507 0.959 . S
C6501 H6508 0.961 . S
C6501 H6509 0.960 . S
C6502 C6500 1.381 . S
C6502 C6503 1.394 . S
C6502 H6510 0.930 . S
C6503 C6502 1.394 . S
C6503 C6504 1.383 . S
C6503 H6511 0.929 . S
C6504 C6503 1.383 . S
C6504 C6505 1.377 . S
C6505 H6489 0.930 . S
C6505 C6504 1.377 . S
C6505 C6506 1.379 . S
C6506 H6490 0.931 . S
C6506 C6500 1.383 . S
C6506 C6505 1.379 . S
H6507 C6501 0.959 . S
H6508 C6501 0.961 . S
H6509 C6501 0.960 . S
H6510 C6502 0.930 . S
H6511 C6503 0.929 . S
C3084 C1331 1.034 . S
C3065 C21 1.036 . S
C3120 C1405 1.140 . S
C3101 C42 1.102 . S
C3137 C82 1.569 . S
C3156 C1497 1.566 . S
C3192 C1565 1.892 . S
C3173 C135 1.919 . S
C3209 C175 1.701 . S
C3228 C1571 1.706 . S
C3245 C221 1.970 . S
C3264 C1319 1.899 . S
C3281 C255 1.692 . S
C3300 C1393 1.641 . S
C3336 C1491 2.132 . S
C3317 C301 2.078 . S
C3372 C1627 0.777 . S
C3353 C15 0.763 . S
C3389 C55 0.850 . S
C3408 C1701 0.865 . S
C3425 C101 1.562 . S
C3444 C1787 1.529 . S
C3480 C1849 1.985 . S
C3461 C141 1.904 . S
C3497 C162 1.547 . S
C3516 C1923 1.524 . S
C3552 C2009 1.541 . S
C3533 C215 1.516 . S
C3569 C261 1.628 . S
C3588 C2059 1.589 . S
C3624 C2157 1.929 . S
C3605 C282 1.881 . S
C3641 C2 0.874 . S
C3660 C1837 0.875 . S
C3677 C181 1.708 . S
C3696 C2015 1.668 . S
C3732 C2071 1.653 . S
C3713 C202 1.649 . S
C3749 C242 2.005 . S
C3768 C2163 2.001 . S
C3804 C1911 2.095 . S
C3785 C295 2.112 . S
C3840 C1689 1.729 . S
C3821 C95 1.798 . S
C3857 C122 1.950 . S
C3876 C1793 2.021 . S
C3912 C1615 1.266 . S
C3893 C61 1.254 . S
C3948 C2207 2.537 . S
C3929 C341 2.607 . S
C3965 C362 1.470 . S
C3984 C2281 1.444 . S
C4001 C402 2.248 . S
C4020 C2385 2.246 . S
C4056 C2429 1.711 . S
C4037 C455 1.786 . S
C4073 C495 1.203 . S
C4092 C2441 1.215 . S
C4109 C541 1.616 . S
C4128 C2219 1.646 . S
C4145 C575 1.640 . S
C4164 C2293 1.636 . S
C4181 C621 1.643 . S
C4200 C2379 1.681 . S
C4236 C1935 2.141 . S
C4217 C335 2.109 . S
C4253 C375 1.584 . S
C4272 C2515 1.545 . S
C4308 C2089 1.987 . S
C4289 C421 1.991 . S
C4325 C461 1.921 . S
C4344 C2607 1.946 . S
C4361 C482 1.031 . S
C4380 C1639 1.002 . S
C4416 C2651 1.046 . S
C4397 C535 1.062 . S
C4433 C581 1.486 . S
C4452 C1775 1.557 . S
C4488 C2749 1.805 . S
C4469 C602 1.719 . S
C4505 C322 2.043 . S
C4524 C2601 2.042 . S
C4560 C2663 1.544 . S
C4541 C501 1.563 . S
C4577 C522 1.313 . S
C4596 C1763 1.350 . S
C4632 C2755 1.730 . S
C4613 C562 1.638 . S
C4649 C615 2.190 . S
C4668 C1645 2.212 . S
C4685 C415 1.997 . S
C4704 C2503 1.976 . S
C4721 C442 1.654 . S
C4740 C2083 1.658 . S
C4757 C381 1.692 . S
C4776 C1941 1.687 . S
C4793 C661 1.457 . S
C4812 C2355 1.423 . S
C4848 C2459 2.180 . S
C4829 C682 2.124 . S
C4865 C722 2.049 . S
C4884 C2237 2.029 . S
C4901 C775 2.275 . S
C4920 C2311 2.257 . S
C4937 C815 1.673 . S
C4956 C2305 1.668 . S
C4973 C861 1.448 . S
C4992 C2367 1.437 . S
C5028 C2453 1.753 . S
C5009 C895 1.811 . S
C5045 C941 1.678 . S
C5064 C2231 1.789 . S
C5100 C2823 1.223 . S
C5081 C655 1.260 . S
C5117 C695 1.640 . S
C5136 C1997 1.632 . S
C5172 C2903 1.847 . S
C5153 C741 1.837 . S
C5189 C781 1.695 . S
C5208 C2145 1.748 . S
C5225 C802 1.887 . S
C5244 C2977 1.896 . S
C5261 C855 1.139 . S
C5280 C1713 1.084 . S
C5316 C3033 1.693 . S
C5297 C901 1.657 . S
C5333 C922 2.139 . S
C5352 C1861 2.281 . S
C5388 C2133 1.440 . S
C5369 C642 1.488 . S
C5424 C1719 2.287 . S
C5405 C821 2.306 . S
C5441 C842 1.749 . S
C5460 C3021 1.689 . S
C5477 C882 1.891 . S
C5496 C1867 1.927 . S
C5532 C2971 2.283 . S
C5513 C935 2.222 . S
C5568 C1985 1.802 . S
C5549 C735 1.830 . S
C5604 C2897 1.974 . S
C5585 C762 1.934 . S
C5640 C2829 2.063 . S
C5621 C701 2.009 . S
C5657 C981 1.746 . S
C5676 C1467 1.817 . S
C5693 C1002 1.219 . S
C5712 C1553 1.282 . S
C5748 C1343 1.862 . S
C5729 C1042 1.874 . S
C5784 C1417 1.589 . S
C5765 C1095 1.632 . S
C5820 C1423 1.800 . S
C5801 C1135 1.820 . S
C5856 C1479 1.781 . S
C5837 C1181 1.783 . S
C5892 C1541 1.136 . S
C5873 C1215 1.209 . S
C5909 C1261 2.039 . S
C5928 C1349 2.039 . S
C5945 C975 1.462 . S
C5964 C2947 1.458 . S
C6000 C2681 1.712 . S
C5981 C1015 1.680 . S
C6036 C3045 2.112 . S
C6017 C1061 2.108 . S
C6072 C2737 1.754 . S
C6053 C1101 1.698 . S
C6089 C1122 1.494 . S
C6108 C2811 1.483 . S
C6144 C2527 1.369 . S
C6125 C1175 1.337 . S
C6180 C2873 1.144 . S
C6161 C1221 1.204 . S
C6197 C1242 1.726 . S
C6216 C2577 1.716 . S
C6252 C2725 1.860 . S
C6233 C962 1.800 . S
C6288 C2533 1.863 . S
C6269 C1141 1.932 . S
C6324 C2885 1.815 . S
C6305 C1162 1.797 . S
C6341 C1202 1.249 . S
C6360 C2589 1.223 . S
C6377 C1255 1.648 . S
C6396 C2799 1.642 . S
C6413 C1055 2.162 . S
C6432 C2675 2.215 . S
C6449 C1082 2.123 . S
C6468 C3051 2.198 . S
C6504 C2959 1.648 . S
C6485 C1021 1.565 . S
