# Generated by pormake.
# Topology zzz, (3,6)-cn, num edge types: 1
# Building blocks:
#     Node 0, Type 0, BuildingBlock: CUQRIR_clean_linker_1, # of connection points: 3
#     Node 1, Type 0, BuildingBlock: CUQRIR_clean_linker_1, # of connection points: 3
#     Node 2, Type 0, BuildingBlock: CUQRIR_clean_linker_1, # of connection points: 3
#     Node 3, Type 0, BuildingBlock: CUQRIR_clean_linker_1, # of connection points: 3
#     Node 4, Type 0, BuildingBlock: CUQRIR_clean_linker_1, # of connection points: 3
#     Node 5, Type 0, BuildingBlock: CUQRIR_clean_linker_1, # of connection points: 3
#     Node 6, Type 0, BuildingBlock: CUQRIR_clean_linker_1, # of connection points: 3
#     Node 7, Type 0, BuildingBlock: CUQRIR_clean_linker_1, # of connection points: 3
#     Node 8, Type 1, BuildingBlock: PAMTOO_clean_sbu_0, # of connection points: 6
#     Node 9, Type 1, BuildingBlock: PAMTOO_clean_sbu_0, # of connection points: 6
#     Node 10, Type 1, BuildingBlock: PAMTOO_clean_sbu_0, # of connection points: 6
#     Node 11, Type 1, BuildingBlock: PAMTOO_clean_sbu_0, # of connection points: 6
#     Edge 12, Type (0, 1), BuildingBlock: XIVTED_clean_linker_0, # of connection points: 2
#     Edge 13, Type (0, 1), BuildingBlock: XIVTED_clean_linker_0, # of connection points: 2
#     Edge 14, Type (0, 1), BuildingBlock: XIVTED_clean_linker_0, # of connection points: 2
#     Edge 15, Type (0, 1), BuildingBlock: XIVTED_clean_linker_0, # of connection points: 2
#     Edge 16, Type (0, 1), BuildingBlock: XIVTED_clean_linker_0, # of connection points: 2
#     Edge 17, Type (0, 1), BuildingBlock: XIVTED_clean_linker_0, # of connection points: 2
#     Edge 18, Type (0, 1), BuildingBlock: XIVTED_clean_linker_0, # of connection points: 2
#     Edge 19, Type (0, 1), BuildingBlock: XIVTED_clean_linker_0, # of connection points: 2
#     Edge 20, Type (0, 1), BuildingBlock: XIVTED_clean_linker_0, # of connection points: 2
#     Edge 21, Type (0, 1), BuildingBlock: XIVTED_clean_linker_0, # of connection points: 2
#     Edge 22, Type (0, 1), BuildingBlock: XIVTED_clean_linker_0, # of connection points: 2
#     Edge 23, Type (0, 1), BuildingBlock: XIVTED_clean_linker_0, # of connection points: 2
#     Edge 24, Type (0, 1), BuildingBlock: XIVTED_clean_linker_0, # of connection points: 2
#     Edge 25, Type (0, 1), BuildingBlock: XIVTED_clean_linker_0, # of connection points: 2
#     Edge 26, Type (0, 1), BuildingBlock: XIVTED_clean_linker_0, # of connection points: 2
#     Edge 27, Type (0, 1), BuildingBlock: XIVTED_clean_linker_0, # of connection points: 2
#     Edge 28, Type (0, 1), BuildingBlock: XIVTED_clean_linker_0, # of connection points: 2
#     Edge 29, Type (0, 1), BuildingBlock: XIVTED_clean_linker_0, # of connection points: 2
#     Edge 30, Type (0, 1), BuildingBlock: XIVTED_clean_linker_0, # of connection points: 2
#     Edge 31, Type (0, 1), BuildingBlock: XIVTED_clean_linker_0, # of connection points: 2
#     Edge 32, Type (0, 1), BuildingBlock: XIVTED_clean_linker_0, # of connection points: 2
#     Edge 33, Type (0, 1), BuildingBlock: XIVTED_clean_linker_0, # of connection points: 2
#     Edge 34, Type (0, 1), BuildingBlock: XIVTED_clean_linker_0, # of connection points: 2
#     Edge 35, Type (0, 1), BuildingBlock: XIVTED_clean_linker_0, # of connection points: 2
# Relax obj value: 0.259
# Max RMSD: 0.251
# Mean RMSD: 0.130
data_MOF--net-zzz--node1-PAMTOO_clean_sbu_0--node2-CUQRIR_clean_linker_1--edge1-XIVTED_clean_linker_0
_symmetry_space_group_name_H-M    P1
_symmetry_Int_Tables_number       1
_symmetry_cell_setting            triclinic
loop_
_symmetry_equiv_pos_as_xyz
'x, y, z'
_cell_length_a     53.950982
_cell_length_b     46.275766
_cell_length_c     14.073268
_cell_angle_alpha  92.426778
_cell_angle_beta   78.198163
_cell_angle_gamma 86.23222
loop_
_atom_site_label
_atom_site_type_symbol
_atom_site_fract_x
_atom_site_fract_y
_atom_site_fract_z
_atom_type_partial_charge
C0 C 0.78072 0.4877 0.61299 0.0
N1 N 0.80081 0.46922 0.62067 0.0
N2 N 0.76379 0.47376 0.57186 0.0
C3 C 0.77814 0.51955 0.64098 0.0
C4 C 0.77452 0.44629 0.55428 0.0
N5 N 0.79727 0.44356 0.58128 0.0
C6 C 0.76453 0.42314 0.49689 0.0
H7 H 0.7865 0.5239 0.70547 0.0
H8 H 0.75789 0.52794 0.6564 0.0
H9 H 0.78855 0.53119 0.57965 0.0
H10 H 0.7667 0.42914 0.42025 0.0
H11 H 0.74401 0.42157 0.52658 0.0
H12 H 0.77477 0.40166 0.49902 0.0
C13 C 1.01494 0.72448 0.51878 0.0
N14 N 0.02984 0.74669 0.52463 0.0
N15 N 0.02754 0.70301 0.45513 0.0
C16 C 0.98732 0.72527 0.56584 0.0
C17 C 0.05051 0.71314 0.42226 0.0
N18 N 0.05191 0.73985 0.46321 0.0
C19 C 0.07117 0.69713 0.34667 0.0
H20 H 0.98369 0.73697 0.63841 0.0
H21 H 0.98098 0.70298 0.57302 0.0
H22 H 0.97612 0.73712 0.51984 0.0
H23 H 0.06707 0.70014 0.27348 0.0
H24 H 0.07158 0.67357 0.35829 0.0
H25 H 0.08999 0.70513 0.34919 0.0
C26 C 0.77204 0.00578 0.44123 0.0
N27 N 0.74643 0.01086 0.45157 0.0
N28 N 0.78458 0.01464 0.35391 0.0
C29 C 0.78476 0.99351 0.51744 0.0
C30 C 0.76548 0.02509 0.31224 0.0
N31 N 0.74268 0.02284 0.37125 0.0
C32 C 0.76886 0.03588 0.21136 0.0
H33 H 0.80313 0.00314 0.51596 0.0
H34 H 0.78865 0.96976 0.50187 0.0
H35 H 0.77234 0.99739 0.59075 0.0
H36 H 0.78605 0.02496 0.16294 0.0
H37 H 0.77095 0.05957 0.21509 0.0
H38 H 0.75204 0.03214 0.17972 0.0
C39 C 0.52963 0.76244 0.37824 0.0
N40 N 0.52873 0.73333 0.3648 0.0
N41 N 0.52443 0.77624 0.30035 0.0
C42 C 0.53523 0.77722 0.46754 0.0
C43 C 0.52034 0.75443 0.23939 0.0
N44 N 0.52304 0.72842 0.27828 0.0
C45 C 0.5136 0.75853 0.14183 0.0
H46 H 0.51846 0.77682 0.52799 0.0
H47 H 0.53947 0.80008 0.45561 0.0
H48 H 0.55148 0.76523 0.48939 0.0
H49 H 0.50415 0.78029 0.138 0.0
H50 H 0.50098 0.74185 0.12545 0.0
H51 H 0.53128 0.75626 0.08489 0.0
C52 C 0.25069 0.4995 0.10685 0.0
N53 N 0.23141 0.51796 0.09137 0.0
N54 N 0.26767 0.51411 0.14587 0.0
C55 C 0.25246 0.46727 0.08702 0.0
C56 C 0.25776 0.542 0.15401 0.0
N57 N 0.23553 0.54436 0.12309 0.0
C58 C 0.26835 0.56659 0.20304 0.0
H59 H 0.27238 0.45804 0.07769 0.0
H60 H 0.245 0.4618 0.02114 0.0
H61 H 0.24067 0.45739 0.14953 0.0
H62 H 0.28785 0.56965 0.16308 0.0
H63 H 0.26945 0.56119 0.27825 0.0
H64 H 0.25681 0.58741 0.20484 0.0
C65 C 0.03184 0.29713 0.11254 0.0
N66 N 0.04144 0.26922 0.09375 0.0
N67 N 0.04672 0.31256 0.15959 0.0
C68 C 1.00658 0.30847 0.09502 0.0
C69 C 0.06559 0.29273 0.16899 0.0
N70 N 0.06219 0.26624 0.13098 0.0
C71 C 0.08534 0.29843 0.22769 0.0
H72 H 1.00585 0.33238 0.09084 0.0
H73 H 0.99141 0.303 0.15615 0.0
H74 H 1.00299 0.29819 0.02691 0.0
H75 H 0.07601 0.3025 0.30548 0.0
H76 H 0.09484 0.31818 0.20351 0.0
H77 H 0.09989 0.27991 0.21989 0.0
C78 C 0.25517 0.00545 0.2568 0.0
N79 N 0.28072 1.00077 0.24966 0.0
N80 N 0.24207 0.9978 0.34503 0.0
C81 C 0.24315 0.01743 0.17838 0.0
C82 C 0.26081 0.98882 0.39095 0.0
N83 N 0.28388 0.99038 0.33301 0.0
C84 C 0.2567 0.97968 0.49412 0.0
H85 H 0.24004 0.04135 0.19087 0.0
H86 H 0.22448 0.0085 0.18006 0.0
H87 H 0.25575 0.01245 0.10589 0.0
H88 H 0.25403 0.95612 0.49449 0.0
H89 H 0.23957 0.9916 0.53971 0.0
H90 H 0.2733 0.98348 0.52687 0.0
C91 C 0.52136 0.24455 0.29595 0.0
N92 N 0.52654 0.27286 0.29132 0.0
N93 N 0.52674 0.23344 0.37825 0.0
C94 C 0.51248 0.22746 0.21796 0.0
C95 C 0.53514 0.25624 0.42335 0.0
N96 N 0.53535 0.2799 0.3701 0.0
C97 C 0.54069 0.2563 0.52399 0.0
H98 H 0.49143 0.22846 0.2354 0.0
H99 H 0.51984 0.20438 0.21433 0.0
H100 H 0.51861 0.23668 0.14614 0.0
H101 H 0.5612 0.25026 0.51851 0.0
H102 H 0.52956 0.2405 0.56856 0.0
H103 H 0.53614 0.27816 0.56147 0.0
Dy104 Dy 1.00142 0.01749 0.76042 0.0
Dy105 Dy 0.02497 1.00015 0.94909 0.0
C106 C 0.06287 0.00689 0.73832 0.0
O107 O 0.99681 0.97022 0.77996 0.0
O108 O 0.0287 0.95832 0.85961 0.0
O109 O 0.99671 0.00413 0.61696 0.0
O110 O 0.97841 0.04494 0.68636 0.0
O111 O 0.9832 0.99379 0.99169 0.0
O112 O 0.96808 0.0237 0.8874 0.0
O113 O 1.01292 0.04782 0.96802 0.0
O114 O 1.01637 0.05834 0.80907 0.0
O115 O 0.02181 0.97947 0.08452 0.0
O116 O 0.05274 0.00663 0.03823 0.0
C117 C 1.01285 0.95086 0.80499 0.0
O118 O 0.04337 0.01342 0.69834 0.0
O119 O 0.06006 1.00118 0.83076 0.0
C120 C 0.99571 0.04396 0.51923 0.0
C121 C 1.01682 0.08256 0.38195 0.0
C122 C 0.03269 0.0627 0.41894 0.0
C123 C 0.0222 0.04362 0.48757 0.0
C124 C 0.97986 0.06187 0.47569 0.0
C125 C 0.99034 0.08102 0.40723 0.0
C126 C 0.98477 0.02876 0.60559 0.0
C127 C 0.9643 0.00883 0.96619 0.0
C128 C 1.0151 0.06672 0.90032 0.0
C129 C 0.06027 0.96652 0.12956 0.0
C130 C 0.08622 0.92027 0.20148 0.0
C131 C 0.07883 0.91699 0.11137 0.0
C132 C 0.06608 0.93993 0.07562 0.0
C133 C 0.06902 0.97066 0.21588 0.0
C134 C 0.08205 0.94776 0.25138 0.0
C135 C 0.04285 0.98872 0.10186 0.0
H136 H 0.05313 0.0636 0.40137 0.0
H137 H 0.03482 0.02992 0.52021 0.0
H138 H 0.9594 0.06234 0.49901 0.0
H139 H 0.97774 0.09603 0.37904 0.0
H140 H 0.08127 0.89617 0.07121 0.0
H141 H 0.05948 0.93641 1.00861 0.0
H142 H 0.06478 0.99118 0.25806 0.0
H143 H 0.08784 0.95126 0.31996 0.0
Dy144 Dy 0.51306 0.9842 0.77174 0.0
Dy145 Dy 0.51576 0.03029 0.95126 0.0
C146 C 0.50918 0.05358 0.74466 0.0
O147 O 0.55423 0.98178 0.78406 0.0
O148 O 0.5554 0.02633 0.85922 0.0
O149 O 0.52891 0.96702 0.62522 0.0
O150 O 0.49846 0.94628 0.71469 0.0
O151 O 0.5291 0.98681 0.99617 0.0
O152 O 0.50754 0.9594 0.90654 0.0
O153 O 0.47489 0.02018 0.97322 0.0
O154 O 0.47194 1.00096 0.82326 0.0
O155 O 0.5021 0.04368 0.10255 0.0
O156 O 0.5288 0.06886 0.01138 0.0
C157 C 0.56711 0.00342 0.80613 0.0
O158 O 0.5146 0.02724 0.70372 0.0
O159 O 0.50487 0.05865 0.83944 0.0
C160 C 0.4973 0.94899 0.55023 0.0
C161 C 0.45918 0.95508 0.44187 0.0
C162 C 0.47482 0.97777 0.45007 0.0
C163 C 0.4936 0.97486 0.50453 0.0
C164 C 0.48362 0.92526 0.53324 0.0
C165 C 0.46465 0.92825 0.47935 0.0
C166 C 0.51194 0.94814 0.62741 0.0
C167 C 0.51896 0.96253 0.97971 0.0
C168 C 0.46117 0.01148 0.91173 0.0
C169 C 0.53257 0.06527 0.1732 0.0
C170 C 0.56846 0.06651 0.29197 0.0
C171 C 0.56224 0.03995 0.25415 0.0
C172 C 0.54455 0.03935 0.19497 0.0
C173 C 0.53739 0.09172 0.21567 0.0
C174 C 0.55527 0.09236 0.27483 0.0
C175 C 0.51694 0.06487 0.09967 0.0
H176 H 0.47135 0.99849 0.42017 0.0
H177 H 0.50398 0.99351 0.51614 0.0
H178 H 0.48626 0.90512 0.56781 0.0
H179 H 0.4529 0.91038 0.47443 0.0
H180 H 0.57234 0.01968 0.26438 0.0
H181 H 0.54116 0.01872 0.16244 0.0
H182 H 0.52816 0.11191 0.19968 0.0
H183 H 0.55958 0.11309 0.30366 0.0
Dy184 Dy 0.55545 0.50408 0.84779 0.0
Dy185 Dy 0.49728 0.4971 0.78573 0.0
C186 C 0.52064 0.45031 0.91637 0.0
O187 O 0.56405 0.48427 0.69556 0.0
O188 O 0.52578 0.46418 0.70095 0.0
O189 O 0.59376 0.48791 0.85522 0.0
O190 O 0.57818 0.52988 0.92344 0.0
O191 O 0.51382 0.53436 0.70453 0.0
O192 O 0.54965 0.54351 0.76491 0.0
O193 O 0.49459 0.53598 0.88699 0.0
O194 O 0.52303 0.51727 0.97129 0.0
O195 O 0.47936 0.48921 0.66438 0.0
O196 O 0.45574 0.49792 0.81135 0.0
C197 C 0.54969 0.46637 0.66092 0.0
O198 O 0.54313 0.46083 0.89422 0.0
O199 O 0.49987 0.46336 0.89598 0.0
C200 C 0.61194 0.50614 0.98605 0.0
C201 C 0.64261 0.50337 0.12843 0.0
C202 C 0.61638 0.51175 0.15527 0.0
C203 C 0.60124 0.51327 0.08482 0.0
C204 C 0.63786 0.49697 0.95982 0.0
C205 C 0.65298 0.4956 0.02976 0.0
C206 C 0.59751 0.51054 0.90754 0.0
C207 C 0.53272 0.55035 0.71245 0.0
C208 C 0.50551 0.5373 0.96193 0.0
C209 C 0.4338 0.489 0.67597 0.0
C210 C 0.39498 0.488 0.56678 0.0
C211 C 0.41476 0.46588 0.55173 0.0
C212 C 0.43415 0.46661 0.60477 0.0
C213 C 0.41329 0.5102 0.6949 0.0
C214 C 0.39424 0.50991 0.64008 0.0
C215 C 0.45653 0.49286 0.71832 0.0
H216 H 0.6077 0.51803 0.23029 0.0
H217 H 0.58133 0.5206 0.10734 0.0
H218 H 0.64665 0.49146 0.88429 0.0
H219 H 0.67291 0.48852 1.00619 0.0
H220 H 0.41594 0.44885 0.4954 0.0
H221 H 0.4499 0.45017 0.58785 0.0
H222 H 0.41273 0.52794 0.74822 0.0
H223 H 0.37923 0.52723 0.65333 0.0
Dy224 Dy 1.01807 0.5272 0.79106 0.0
Dy225 Dy 1.01188 0.47344 0.93738 0.0
C226 C 0.02405 0.46202 0.70569 0.0
O227 O 0.97962 0.51259 0.78734 0.0
O228 O 0.97168 0.48262 0.91524 0.0
O229 O 1.01274 0.54656 0.65948 0.0
O230 O 0.02651 0.57176 0.76834 0.0
O231 O 1.01502 0.51449 0.02339 0.0
O232 O 0.99515 0.54434 0.93489 0.0
O233 O 0.05379 0.47692 0.89444 0.0
O234 O 0.05502 0.52337 0.84369 0.0
O235 O 0.99943 0.45917 0.08171 0.0
O236 O 0.0217 0.42921 0.96833 0.0
C237 C 0.9643 0.49677 0.84477 0.0
O238 O 0.03425 0.48712 0.69752 0.0
O239 O 1.01093 0.45467 0.7894 0.0
C240 C 0.0389 0.58439 0.60494 0.0
C241 C 0.07429 0.60945 0.46222 0.0
C242 C 0.06487 0.58271 0.44202 0.0
C243 C 0.04736 0.57032 0.51255 0.0
C244 C 0.04711 0.61182 0.62357 0.0
C245 C 0.06467 0.62424 0.55296 0.0
C246 C 0.02123 0.57113 0.68193 0.0
C247 C 1.00283 0.53937 0.01536 0.0
C248 C 0.06589 0.50041 0.8756 0.0
C249 C 0.99416 0.40971 0.10066 0.0
C250 C 0.9564 0.37527 0.19381 0.0
C251 C 0.97135 0.39031 0.24757 0.0
C252 C 0.99007 0.40724 0.20125 0.0
C253 C 0.98151 0.39232 0.04507 0.0
C254 C 0.96305 0.3748 0.09132 0.0
C255 C 1.00962 0.43277 0.05891 0.0
H256 H 0.07211 0.57038 0.37376 0.0
H257 H 0.0411 0.54933 0.49539 0.0
H258 H 0.04032 0.62342 0.69356 0.0
H259 H 0.07121 0.64507 0.57032 0.0
H260 H 0.9672 0.3915 0.3262 0.0
H261 H 1.00002 0.42021 0.24508 0.0
H262 H 0.98481 0.39347 0.96682 0.0
H263 H 0.95281 0.36255 0.04686 0.0
H264 H 0.20624 0.04321 0.35452 0.0
H265 H 0.10579 0.97472 0.76077 0.0
H266 H 0.21561 0.95445 0.42889 0.0
H267 H 0.07997 0.03597 0.57284 0.0
H268 H 0.14836 0.972 0.65595 0.0
H269 H 0.16168 0.0456 0.44498 0.0
C270 C 0.19886 0.02412 0.38844 0.0
C271 C 0.21485 0.99865 0.38471 0.0
C272 C 0.13337 0.98604 0.63763 0.0
C273 C 0.16421 1.00158 0.49146 0.0
C274 C 0.10905 0.98774 0.69785 0.0
C275 C 0.0891 0.00556 0.67592 0.0
C276 C 0.13819 1.00284 0.55572 0.0
C277 C 0.09465 0.0218 0.59258 0.0
C278 C 0.1735 0.02556 0.44075 0.0
C279 C 0.20421 0.9747 0.43144 0.0
N280 N 0.11865 0.02029 0.53627 0.0
N281 N 0.17987 0.97688 0.48388 0.0
H282 H 0.56318 0.20076 0.43916 0.0
H283 H 0.50037 0.05595 0.55808 0.0
H284 H 0.48677 0.19933 0.39301 0.0
H285 H 0.52076 0.10847 0.78684 0.0
H286 H 0.50446 0.09798 0.45456 0.0
H287 H 0.55806 0.15525 0.52204 0.0
C288 C 0.54542 0.19067 0.44551 0.0
C289 C 0.52518 0.20419 0.41103 0.0
C290 C 0.50781 0.10014 0.52775 0.0
C291 C 0.51958 0.15164 0.50261 0.0
C292 C 0.50554 0.07628 0.58673 0.0
C293 C 0.50996 0.07877 0.68183 0.0
C294 C 0.51536 0.12624 0.56319 0.0
C295 C 0.51682 0.10559 0.71476 0.0
C296 C 0.54258 0.16473 0.49239 0.0
C297 C 0.50281 0.18967 0.41868 0.0
N298 N 0.51964 0.12808 0.65521 0.0
N299 N 0.50051 0.16417 0.46423 0.0
H300 H 0.26505 0.47584 0.28844 0.0
H301 H 0.38489 0.53271 0.45694 0.0
H302 H 0.31635 0.52857 0.10955 0.0
H303 H 0.36329 0.44682 0.52557 0.0
H304 H 0.35556 0.535 0.34482 0.0
H305 H 0.29716 0.46647 0.38797 0.0
C306 C 0.2833 0.48484 0.26875 0.0
C307 C 0.28802 0.50315 0.19094 0.0
C308 C 0.35724 0.51562 0.3843 0.0
C309 C 0.32428 0.49362 0.30661 0.0
C310 C 0.37382 0.5144 0.44885 0.0
C311 C 0.37648 0.48959 0.50094 0.0
C312 C 0.34264 0.49214 0.373 0.0
C313 C 0.36181 0.46635 0.48676 0.0
C314 C 0.30149 0.47974 0.32603 0.0
C315 C 0.31182 0.51473 0.16976 0.0
N316 N 0.34529 0.4683 0.42504 0.0
N317 N 0.32881 0.51026 0.22813 0.0
H318 H 0.07042 0.36244 0.15081 0.0
H319 H 0.99797 0.41399 0.69077 0.0
H320 H 1.00738 0.32101 0.31264 0.0
H321 H 0.05371 0.46436 0.52105 0.0
H322 H 1.00037 0.38113 0.54923 0.0
H323 H 0.0633 0.40188 0.27877 0.0
C324 C 0.05469 0.36214 0.21231 0.0
C325 C 0.03935 0.33869 0.22132 0.0
C326 C 1.01207 0.39938 0.54245 0.0
C327 C 0.03147 0.38299 0.36898 0.0
C328 C 1.01084 0.41815 0.62377 0.0
C329 C 0.02587 0.44194 0.61855 0.0
C330 C 0.02865 0.40403 0.45456 0.0
C331 C 0.04189 0.44624 0.52883 0.0
C332 C 0.05072 0.38445 0.28556 0.0
C333 C 0.01939 0.33894 0.30265 0.0
N334 N 0.04301 0.42735 0.45061 0.0
N335 N 1.01622 0.3605 0.37377 0.0
H336 H 0.81025 0.05995 0.28222 0.0
H337 H 0.94563 0.97075 0.10441 0.0
H338 H 0.8208 0.96919 0.33063 0.0
H339 H 0.92301 0.0477 0.97147 0.0
H340 H 0.90269 0.97203 0.20651 0.0
H341 H 0.85413 0.05839 0.19012 0.0
C342 C 0.82191 0.0397 0.27402 0.0
C343 C 0.81166 0.01459 0.31329 0.0
C344 C 0.90715 0.98861 0.15497 0.0
C345 C 0.86237 0.01266 0.20831 0.0
C346 C 0.93171 0.98796 0.09662 0.0
C347 C 0.93812 0.00912 0.02851 0.0
C348 C 0.88882 0.01091 0.14703 0.0
C349 C 0.91908 0.03081 0.02216 0.0
C350 C 0.84698 0.0388 0.2212 0.0
C351 C 0.8279 0.98907 0.30199 0.0
N352 N 0.8955 0.03124 0.08079 0.0
N353 N 0.85239 0.98872 0.25039 0.0
H354 H 0.48212 0.81089 0.30476 0.0
H355 H 0.55483 0.9471 0.0873 0.0
H356 H 0.56349 0.81045 0.25295 0.0
H357 H 0.48428 0.92235 0.02125 0.0
H358 H 0.556 0.90414 0.18511 0.0
H359 H 0.48016 0.85958 0.24184 0.0
C360 C 0.4995 0.82151 0.28237 0.0
C361 C 0.52297 0.80684 0.28373 0.0
C362 C 0.54021 0.90835 0.14965 0.0
C363 C 0.52104 0.86223 0.21068 0.0
C364 C 0.53949 0.93285 0.09417 0.0
C365 C 0.51957 0.93814 0.04509 0.0
C366 C 0.52053 0.88953 0.15811 0.0
C367 C 0.50018 0.91895 0.05663 0.0
C368 C 0.49844 0.84908 0.24569 0.0
C369 C 0.54506 0.82125 0.25319 0.0
N370 N 0.50111 0.89566 0.11192 0.0
N371 N 0.54362 0.84812 0.21716 0.0
H372 H 0.71374 0.46535 0.61733 0.0
H373 H 0.69109 0.52093 0.10763 0.0
H374 H 0.76943 0.50715 0.41719 0.0
H375 H 0.63253 0.48572 0.31724 0.0
H376 H 0.71901 0.5185 0.22396 0.0
H377 H 0.68256 0.47591 0.51556 0.0
C378 C 0.7191 0.47752 0.55322 0.0
C379 C 0.74401 0.48578 0.52618 0.0
C380 C 0.70003 0.51142 0.24495 0.0
C381 C 0.70882 0.49716 0.40722 0.0
C382 C 0.68406 0.51259 0.17804 0.0
C383 C 0.65936 0.50321 0.20169 0.0
C384 C 0.69149 0.50063 0.33686 0.0
C385 C 0.65131 0.49328 0.2954 0.0
C386 C 0.70143 0.48331 0.49458 0.0
C387 C 0.75027 0.50091 0.44131 0.0
N388 N 0.66734 0.49203 0.35897 0.0
N389 N 0.73293 0.50584 0.38443 0.0
H390 H 0.0194 0.64908 0.51494 0.0
H391 H 0.98567 0.59618 1.0089 0.0
H392 H 1.01273 0.70516 0.28467 0.0
H393 H 1.01561 0.53728 0.1948 0.0
H394 H 0.98681 0.63626 0.12617 0.0
H395 H 1.00959 0.6078 0.41527 0.0
C396 C 1.01552 0.65258 0.44382 0.0
C397 C 1.01705 0.68016 0.40701 0.0
C398 C 0.99293 0.61453 0.14174 0.0
C399 C 1.0056 0.63377 0.29336 0.0
C400 C 0.99221 0.59156 0.07489 0.0
C401 C 1.00074 0.56325 0.0914 0.0
C402 C 1.00212 0.60928 0.22639 0.0
C403 C 1.00898 0.55874 0.1786 0.0
C404 C 1.00998 0.62921 0.387 0.0
C405 C 1.0116 0.68408 0.31511 0.0
N406 N 1.00958 0.58152 0.24258 0.0
N407 N 1.00621 0.66115 0.26124 0.0
H408 H 0.0832 0.21694 0.02453 0.0
H409 H 1.00004 0.13835 0.43137 0.0
H410 H 0.05708 0.25333 0.31738 0.0
H411 H 0.05828 0.08538 0.23069 0.0
H412 H 0.01979 0.18144 0.37167 0.0
H413 H 0.0767 0.16815 0.08441 0.0
C414 C 0.07741 0.21449 0.10189 0.0
C415 C 0.07016 0.23909 0.16602 0.0
C416 C 0.02837 0.16042 0.34063 0.0
C417 C 0.06247 0.18419 0.23401 0.0
C418 C 1.01681 0.13583 0.37338 0.0
C419 C 0.02743 0.10831 0.33527 0.0
C420 C 0.05068 0.1577 0.26848 0.0
C421 C 0.04956 0.10633 0.26166 0.0
C422 C 0.07355 0.18678 0.13579 0.0
C423 C 0.06284 0.23499 0.26552 0.0
N424 N 0.06046 0.13086 0.2297 0.0
N425 N 0.05852 0.20813 0.29616 0.0
H426 H 0.30634 0.02191 0.45051 0.0
H427 H 0.43604 0.92019 0.32799 0.0
H428 H 0.31667 0.94476 0.26128 0.0
H429 H 0.42622 1.00289 0.49038 0.0
H430 H 0.3926 0.92804 0.30158 0.0
H431 H 0.35035 0.014 0.47008 0.0
C432 C 0.31793 1.00296 0.41501 0.0
C433 C 0.30816 0.98357 0.3561 0.0
C434 C 0.40012 0.94456 0.34205 0.0
C435 C 0.35836 0.97468 0.37485 0.0
C436 C 0.42487 0.94011 0.35695 0.0
C437 C 0.43478 0.96094 0.41117 0.0
C438 C 0.38521 0.96986 0.3826 0.0
C439 C 0.41957 0.98643 0.44678 0.0
C440 C 0.34302 0.99858 0.42485 0.0
C441 C 0.32376 0.95975 0.30859 0.0
N442 N 0.39552 0.99004 0.43249 0.0
N443 N 0.34822 0.9559 0.31889 0.0
H444 H 0.57979 0.29247 0.41792 0.0
H445 H 0.53553 0.46124 0.48922 0.0
H446 H 0.50818 0.33134 0.37794 0.0
H447 H 0.58531 0.42152 0.65777 0.0
H448 H 0.53767 0.41544 0.39401 0.0
H449 H 0.59183 0.34097 0.46241 0.0
C450 C 0.56673 0.31127 0.41802 0.0
C451 C 0.54299 0.3081 0.39432 0.0
C452 C 0.54881 0.41696 0.44968 0.0
C453 C 0.55688 0.36318 0.44097 0.0
C454 C 0.54793 0.44318 0.50283 0.0
C455 C 0.56033 0.445 0.58086 0.0
C456 C 0.56192 0.39236 0.47578 0.0
C457 C 0.57573 0.42092 0.59726 0.0
C458 C 0.57367 0.33879 0.44236 0.0
C459 C 0.5268 0.33298 0.39406 0.0
N460 N 0.57567 0.39522 0.54642 0.0
N461 N 0.53405 0.35946 0.41689 0.0
H462 H 0.21721 0.55833 0.31137 0.0
H463 H 0.08619 0.60604 0.26138 0.0
H464 H 0.20775 0.57946 0.02516 0.0
H465 H 0.11503 0.63362 0.51232 0.0
H466 H 0.12954 0.60273 0.16418 0.0
H467 H 0.1801 0.59051 0.38215 0.0
C468 C 0.20743 0.57024 0.26354 0.0
C469 C 0.21526 0.56604 0.16255 0.0
C470 C 0.12616 0.61064 0.23961 0.0
C471 C 0.17208 0.60211 0.24266 0.0
C472 C 0.10148 0.61229 0.29538 0.0
C473 C 0.09715 0.61866 0.39625 0.0
C474 C 0.14639 0.61519 0.28581 0.0
C475 C 0.11742 0.62782 0.43555 0.0
C476 C 0.18629 0.58867 0.30376 0.0
C477 C 0.20176 0.5815 0.10337 0.0
N478 N 0.1413 0.62492 0.38087 0.0
N479 N 0.18026 0.59837 0.14432 0.0
H480 H 0.06575 0.75248 0.27544 0.0
H481 H 0.07499 0.9089 0.39521 0.0
H482 H 0.0765 0.77616 0.5628 0.0
H483 H 0.11586 0.87147 0.11603 0.0
H484 H 0.0784 0.86163 0.46268 0.0
H485 H 0.08693 0.79479 0.21474 0.0
C486 C 0.07344 0.76601 0.32517 0.0
C487 C 0.06932 0.76086 0.42439 0.0
C488 C 0.08731 0.86399 0.38739 0.0
C489 C 0.09227 0.81035 0.35639 0.0
C490 C 0.08546 0.89109 0.3485 0.0
C491 C 0.09449 0.89415 0.24862 0.0
C492 C 0.09773 0.83975 0.32563 0.0
C493 C 0.10769 0.86996 0.1924 0.0
C494 C 0.08537 0.79035 0.29062 0.0
C495 C 0.07888 0.77979 0.48618 0.0
N496 N 0.10823 0.84357 0.23092 0.0
N497 N 0.08924 0.8043 0.45183 0.0
H498 H 0.72462 0.07763 0.35314 0.0
H499 H 0.5834 0.02976 0.4207 0.0
H500 H 0.70517 0.98896 0.35511 0.0
H501 H 0.60615 0.10376 0.25634 0.0
H502 H 0.62671 0.02169 0.44686 0.0
H503 H 0.6799 0.09346 0.35437 0.0
C504 C 0.7109 0.06161 0.35227 0.0
C505 C 0.71816 0.03208 0.35421 0.0
C506 C 0.62201 0.03997 0.40649 0.0
C507 C 0.66761 0.04972 0.36048 0.0
C508 C 0.59735 0.04468 0.39204 0.0
C509 C 0.59139 0.06699 0.33414 0.0
C510 C 0.64066 0.05786 0.36352 0.0
C511 C 0.60999 0.08618 0.30087 0.0
C512 C 0.68555 0.07056 0.35439 0.0
C513 C 0.69997 0.01192 0.35461 0.0
N514 N 0.63402 0.08089 0.31468 0.0
N515 N 0.6754 0.02111 0.35894 0.0
H516 H 0.54596 0.70515 0.1003 0.0
H517 H 0.51037 0.54645 0.15092 0.0
H518 H 0.49231 0.68812 0.35988 0.0
H519 H 0.49772 0.59122 0.90014 0.0
H520 H 0.51311 0.59374 0.23446 0.0
H521 H 0.53871 0.65813 0.02684 0.0
C522 C 0.53269 0.69147 0.14162 0.0
C523 C 0.51966 0.70042 0.23595 0.0
C524 C 0.50939 0.59298 0.16165 0.0
C525 C 0.51212 0.64661 0.15458 0.0
C526 C 0.50779 0.5662 0.11426 0.0
C527 C 0.50355 0.56505 0.01914 0.0
C528 C 0.50771 0.61839 0.11177 0.0
C529 C 0.50064 0.59118 0.97401 0.0
C530 C 0.52867 0.66477 0.10012 0.0
C531 C 0.50307 0.68169 0.28771 0.0
N532 N 0.50326 0.6168 0.02009 0.0
N533 N 0.4999 0.65541 0.24667 0.0
H534 H 0.82565 0.40164 0.65177 0.0
H535 H 0.91241 0.37489 0.12342 0.0
H536 H 0.81555 0.44179 0.39047 0.0
H537 H 0.94134 0.35642 0.38108 0.0
H538 H 0.87004 0.38034 0.22097 0.0
H539 H 0.86234 0.37116 0.55515 0.0
C540 C 0.83113 0.40387 0.57427 0.0
C541 C 0.81797 0.4243 0.52849 0.0
C542 C 0.88563 0.37464 0.25611 0.0
C543 C 0.85853 0.38912 0.41827 0.0
C544 C 0.91009 0.37103 0.19988 0.0
C545 C 0.93103 0.36676 0.24432 0.0
C546 C 0.882 0.37458 0.35763 0.0
C547 C 0.92601 0.36158 0.34423 0.0
C548 C 0.85173 0.38634 0.51925 0.0
C549 C 0.82529 0.42616 0.42785 0.0
N550 N 0.90204 0.36672 0.39847 0.0
N551 N 0.84502 0.40884 0.37627 0.0
H552 H 0.04719 0.24795 0.90912 0.0
H553 H 1.00812 0.09297 0.08398 0.0
H554 H 1.01033 0.23423 0.20274 0.0
H555 H 0.0231 0.11244 0.78119 0.0
H556 H 1.00938 0.14443 0.12853 0.0
H557 H 0.03763 0.1991 0.85868 0.0
C558 C 0.03621 0.23495 0.96203 0.0
C559 C 0.02925 0.24509 0.05968 0.0
C560 C 1.01215 0.1375 0.05236 0.0
C561 C 0.01924 0.18877 1.00426 0.0
C562 C 1.01158 0.10802 0.02667 0.0
C563 C 1.01552 0.09816 0.92839 0.0
C564 C 1.01693 0.15747 0.97944 0.0
C565 C 0.01994 0.1189 0.85779 0.0
C566 C 0.03105 0.20695 0.93378 0.0
C567 C 1.01565 0.22721 0.1265 0.0
N568 N 0.0207 0.14744 0.88462 0.0
N569 N 1.0115 0.19974 0.09801 0.0
H570 H 0.30288 0.96872 0.08425 0.0
H571 H 0.43247 0.04458 0.06604 0.0
H572 H 0.30874 0.0467 0.25215 0.0
H573 H 0.42474 0.98187 0.84049 0.0
H574 H 0.38702 0.04511 0.13266 0.0
H575 H 0.34624 0.97306 0.98932 0.0
C576 C 0.3129 0.98745 0.09817 0.0
C577 C 0.30187 0.00786 0.17439 0.0
C578 C 0.39509 0.03137 0.06809 0.0
C579 C 0.3521 0.01225 0.06969 0.0
C580 C 0.42123 0.03097 0.02984 0.0
C581 C 0.43277 0.01313 0.94702 0.0
C582 C 0.37992 0.01347 0.0248 0.0
C583 C 0.41683 0.99609 0.904 0.0
C584 C 0.33782 0.9897 0.04509 0.0
C585 C 0.31622 0.03097 0.19237 0.0
N586 N 0.39137 0.99645 0.94384 0.0
N587 N 0.34052 0.03232 0.1417 0.0
H588 H 0.56568 0.29465 0.17438 0.0
H589 H 0.47877 0.4201 0.99392 0.0
H590 H 0.4842 0.2966 0.23926 0.0
H591 H 0.56063 0.41509 0.94594 0.0
H592 H 0.47928 0.37331 0.07157 0.0
H593 H 0.5634 0.3361 0.0736 0.0
C594 C 0.54731 0.30344 0.16473 0.0
C595 C 0.52515 0.29216 0.2141 0.0
C596 C 0.49707 0.38252 0.04356 0.0
C597 C 0.52207 0.34046 0.10162 0.0
C598 C 0.4968 0.40928 0.99939 0.0
C599 C 0.51965 0.42192 0.9637 0.0
C600 C 0.52038 0.36822 0.05151 0.0
C601 C 0.54242 0.40665 0.97274 0.0
C602 C 0.54591 0.32734 0.10826 0.0
C603 C 0.50169 0.30455 0.201 0.0
N604 N 0.54214 0.38088 0.01549 0.0
N605 N 0.50071 0.32832 0.14701 0.0
H606 H 0.19273 0.4861 0.1731 0.0
H607 H 0.10243 0.53912 0.81815 0.0
H608 H 0.21947 0.53488 0.92423 0.0
H609 H 0.08851 0.46416 0.98783 0.0
H610 H 0.14375 0.54113 0.86547 0.0
H611 H 0.15298 0.48017 0.11553 0.0
C612 C 0.1903 0.49521 0.10571 0.0
C613 C 0.20927 0.51111 0.05342 0.0
C614 C 0.13169 0.52413 0.89174 0.0
C615 C 0.16371 0.50518 0.98821 0.0
C616 C 0.10805 0.52299 0.86478 0.0
C617 C 0.09185 0.50133 0.89824 0.0
C618 C 0.13912 0.50385 0.95444 0.0
C619 C 0.1003 0.48113 0.9592 0.0
C620 C 0.16761 0.49202 0.07306 0.0
C621 C 0.20513 0.52275 0.96694 0.0
N622 N 0.12311 0.48304 0.98585 0.0
N623 N 0.18277 0.51991 0.93769 0.0
H624 H 0.0324 0.76237 0.70852 0.0
H625 H 0.99113 0.92982 0.65937 0.0
H626 H 1.01193 0.79484 0.45122 0.0
H627 H 0.03492 0.9016 0.86761 0.0
H628 H 0.99239 0.87961 0.59657 0.0
H629 H 0.02672 0.81217 0.78315 0.0
C630 C 0.02609 0.78004 0.66906 0.0
C631 C 0.02231 0.77475 0.57453 0.0
C632 C 1.00165 0.88436 0.65623 0.0
C633 C 1.01612 0.83154 0.65783 0.0
C634 C 1.00087 0.91306 0.69255 0.0
C635 C 1.01294 0.92008 0.76915 0.0
C636 C 1.01431 0.86222 0.69733 0.0
C637 C 0.0254 0.8973 0.8084 0.0
C638 C 0.02314 0.8084 0.71087 0.0
C639 C 1.01467 0.79822 0.52482 0.0
N640 N 0.0257 0.86941 0.77229 0.0
N641 N 1.01185 0.82561 0.56694 0.0
H642 H 0.72005 0.05266 0.57796 0.0
H643 H 0.59923 0.95853 0.70295 0.0
H644 H 0.72387 0.96138 0.50219 0.0
H645 H 0.59997 0.04601 0.82025 0.0
H646 H 0.64488 0.95839 0.63424 0.0
H647 H 0.67709 0.04984 0.67553 0.0
C648 C 0.71221 0.03173 0.5856 0.0
C649 C 0.72586 0.00711 0.53374 0.0
C650 C 0.63512 0.97755 0.6757 0.0
C651 C 0.67585 0.00378 0.64167 0.0
C652 C 0.60893 0.97768 0.71503 0.0
C653 C 0.59541 1.00233 0.76802 0.0
C654 C 0.64817 1.00233 0.68829 0.0
C655 C 0.60933 0.02643 0.78042 0.0
C656 C 0.68746 0.03017 0.63991 0.0
C657 C 0.71432 0.98071 0.54302 0.0
N658 N 0.63471 0.02587 0.74057 0.0
N659 N 0.68993 0.97981 0.59434 0.0
H660 H 0.56807 0.69264 0.33646 0.0
H661 H 0.49267 0.58566 0.68484 0.0
H662 H 0.49838 0.72195 0.5347 0.0
H663 H 0.57445 0.57978 0.63503 0.0
H664 H 0.49358 0.63276 0.61157 0.0
H665 H 0.57082 0.64881 0.42874 0.0
C666 C 0.55374 0.69009 0.40113 0.0
C667 C 0.53318 0.71095 0.42926 0.0
C668 C 0.51132 0.62119 0.61686 0.0
C669 C 0.53551 0.66058 0.53215 0.0
C670 C 0.51085 0.59417 0.65778 0.0
C671 C 0.53354 0.57861 0.66551 0.0
C672 C 0.53466 0.63258 0.58087 0.0
C673 C 0.55652 0.59101 0.63042 0.0
C674 C 0.55521 0.66511 0.45323 0.0
C675 C 0.51471 0.70652 0.51207 0.0
N676 N 0.55653 0.61708 0.58834 0.0
N677 N 0.51603 0.68156 0.55955 0.0
H678 H 0.83504 0.50882 0.56036 0.0
H679 H 0.92726 0.45982 0.91957 0.0
H680 H 0.8174 0.44362 0.76736 0.0
H681 H 0.94201 0.52744 0.71804 0.0
H682 H 0.88655 0.45421 0.86995 0.0
H683 H 0.87379 0.51682 0.62146 0.0
C684 C 0.83927 0.4964 0.61933 0.0
C685 C 0.82306 0.47551 0.65885 0.0
C686 C 0.89868 0.47038 0.83707 0.0
C687 C 0.86759 0.48415 0.72889 0.0
C688 C 0.92194 0.47367 0.86576 0.0
C689 C 0.93836 0.4941 0.82318 0.0
C690 C 0.89167 0.48763 0.76513 0.0
C691 C 0.93026 0.51126 0.75311 0.0
C692 C 0.86145 0.50079 0.65402 0.0
C693 C 0.8296 0.45969 0.73436 0.0
N694 N 0.90774 0.50757 0.72637 0.0
N695 N 0.8513 0.46422 0.7667 0.0
loop_
_geom_bond_atom_site_label_1
_geom_bond_atom_site_label_2
_geom_bond_distance
_geom_bond_site_symmetry_2
_ccdc_geom_bond_type
C0 N1 1.317 . S
C0 N2 1.348 . S
C0 C3 1.485 . S
N1 C0 1.317 . S
N1 N5 1.370 . S
N2 C0 1.348 . S
N2 C4 1.346 . S
C3 C0 1.485 . S
C3 H7 0.960 . S
C3 H8 0.961 . S
C3 H9 0.960 . S
C4 N2 1.346 . S
C4 N5 1.307 . S
C4 C6 1.486 . S
N5 N1 1.370 . S
N5 C4 1.307 . S
C6 C4 1.486 . S
C6 H10 0.960 . S
C6 H11 0.960 . S
C6 H12 0.959 . S
H7 C3 0.960 . S
H8 C3 0.961 . S
H9 C3 0.960 . S
H10 C6 0.960 . S
H11 C6 0.960 . S
H12 C6 0.959 . S
C13 N14 1.317 . S
C13 N15 1.348 . S
C13 C16 1.485 . S
N14 C13 1.317 . S
N14 N18 1.370 . S
N15 C13 1.348 . S
N15 C17 1.346 . S
C16 C13 1.485 . S
C16 H20 0.960 1_655 S
C16 H21 0.961 . S
C16 H22 0.960 . S
C17 N15 1.346 . S
C17 N18 1.302 . S
C17 C19 1.494 . S
N18 N14 1.370 . S
N18 C17 1.302 . S
C19 C17 1.494 . S
C19 H23 0.958 . S
C19 H24 0.961 1_655 S
C19 H25 0.959 1_655 S
H20 C16 0.960 1_455 S
H21 C16 0.961 . S
H22 C16 0.960 . S
H23 C19 0.958 . S
H24 C19 0.961 1_455 S
H25 C19 0.959 1_455 S
C26 N27 1.317 . S
C26 N28 1.354 . S
C26 C29 1.485 . S
N27 C26 1.317 . S
N27 N31 1.371 . S
N28 C26 1.354 . S
N28 C30 1.346 1_565 S
C29 C26 1.485 . S
C29 H33 0.960 1_565 S
C29 H34 0.961 . S
C29 H35 0.960 . S
C30 N28 1.346 1_545 S
C30 N31 1.305 1_545 S
C30 C32 1.486 . S
N31 N27 1.371 . S
N31 C30 1.305 1_565 S
C32 C30 1.486 . S
C32 H36 0.960 1_545 S
C32 H37 0.960 . S
C32 H38 0.959 . S
H33 C29 0.960 1_545 S
H34 C29 0.961 . S
H35 C29 0.960 . S
H36 C32 0.960 1_565 S
H37 C32 0.960 . S
H38 C32 0.959 . S
C39 N40 1.317 . S
C39 N41 1.348 . S
C39 C42 1.485 . S
N40 C39 1.317 . S
N40 N44 1.370 . S
N41 C39 1.348 . S
N41 C43 1.346 . S
C42 C39 1.485 . S
C42 H46 0.960 . S
C42 H47 0.961 . S
C42 H48 0.960 . S
C43 N41 1.346 . S
C43 N44 1.307 . S
C43 C45 1.486 . S
N44 N40 1.370 . S
N44 C43 1.307 . S
C45 C43 1.486 . S
C45 H49 0.960 . S
C45 H50 0.960 . S
C45 H51 0.959 . S
H46 C42 0.960 . S
H47 C42 0.961 . S
H48 C42 0.960 . S
H49 C45 0.960 . S
H50 C45 0.960 . S
H51 C45 0.959 . S
C52 N53 1.317 . S
C52 N54 1.348 1_556 S
C52 C55 1.485 . S
N53 C52 1.317 . S
N53 N57 1.370 1_556 S
N54 C52 1.348 1_554 S
N54 C56 1.346 . S
C55 C52 1.485 . S
C55 H59 0.960 . S
C55 H60 0.961 . S
C55 H61 0.960 . S
C56 N54 1.346 . S
C56 N57 1.307 . S
C56 C58 1.486 . S
N57 N53 1.370 1_554 S
N57 C56 1.307 . S
C58 C56 1.486 . S
C58 H62 0.960 . S
C58 H63 0.960 . S
C58 H64 0.959 . S
H59 C55 0.960 . S
H60 C55 0.961 . S
H61 C55 0.960 . S
H62 C58 0.960 . S
H63 C58 0.960 . S
H64 C58 0.959 . S
C65 N66 1.317 . S
C65 N67 1.348 . S
C65 C68 1.485 1_554 S
N66 C65 1.317 . S
N66 N70 1.370 . S
N67 C65 1.348 . S
N67 C69 1.346 . S
C68 C65 1.485 1_556 S
C68 H72 0.960 . S
C68 H73 0.961 1_456 S
C68 H74 0.960 1_455 S
C69 N67 1.346 . S
C69 N70 1.307 . S
C69 C71 1.486 . S
N70 N66 1.370 . S
N70 C69 1.307 . S
C71 C69 1.486 . S
C71 H75 0.960 1_455 S
C71 H76 0.960 . S
C71 H77 0.959 . S
H72 C68 0.960 . S
H73 C68 0.961 1_654 S
H74 C68 0.960 1_655 S
H75 C71 0.960 1_655 S
H76 C71 0.960 . S
H77 C71 0.959 . S
C78 N79 1.317 . S
C78 N80 1.347 . S
C78 C81 1.485 . S
N79 C78 1.317 . S
N79 N83 1.370 . S
N80 C78 1.347 . S
N80 C82 1.344 1_565 S
C81 C78 1.485 . S
C81 H85 0.960 1_565 S
C81 H86 0.961 . S
C81 H87 0.960 . S
C82 N80 1.344 1_545 S
C82 N83 1.308 1_545 S
C82 C84 1.486 . S
N83 N79 1.370 . S
N83 C82 1.308 1_565 S
C84 C82 1.486 . S
C84 H88 0.960 1_545 S
C84 H89 0.960 . S
C84 H90 0.959 . S
H85 C81 0.960 1_545 S
H86 C81 0.961 . S
H87 C81 0.960 . S
H88 C84 0.960 1_565 S
H89 C84 0.960 . S
H90 C84 0.959 . S
C91 N92 1.317 . S
C91 N93 1.348 . S
C91 C94 1.485 . S
N92 C91 1.317 . S
N92 N96 1.370 . S
N93 C91 1.348 . S
N93 C95 1.346 . S
C94 C91 1.485 . S
C94 H98 0.960 . S
C94 H99 0.961 . S
C94 H100 0.960 . S
C95 N93 1.346 . S
C95 N96 1.307 . S
C95 C97 1.486 . S
N96 N92 1.370 . S
N96 C95 1.307 . S
C97 C95 1.486 . S
C97 H101 0.960 . S
C97 H102 0.960 . S
C97 H103 0.959 . S
H98 C94 0.960 . S
H99 C94 0.961 . S
H100 C94 0.960 . S
H101 C97 0.960 . S
H102 C97 0.960 . S
H103 C97 0.959 . S
Dy104 O107 2.307 1_545 S
Dy104 O109 2.395 1_655 S
Dy104 O110 2.379 . S
Dy104 O112 2.339 . S
Dy104 O114 2.298 . S
Dy104 O118 2.275 1_655 S
Dy104 C126 2.738 . S
Dy105 O108 2.298 . S
Dy105 O111 2.275 1_455 S
Dy105 O113 2.307 1_565 S
Dy105 O115 2.395 1_456 S
Dy105 O116 2.379 . S
Dy105 O119 2.339 . S
Dy105 C135 2.738 1_556 S
C106 O118 1.254 1_565 S
C106 O119 1.257 . S
O107 Dy104 2.307 1_565 S
O107 C117 1.266 . S
O108 Dy105 2.298 . S
O108 C117 1.236 1_455 S
O109 Dy104 2.395 1_455 S
O109 C126 1.255 1_455 S
O110 Dy104 2.379 . S
O110 C126 1.249 . S
O111 Dy105 2.275 1_655 S
O111 C127 1.254 1_565 S
O112 Dy104 2.339 . S
O112 C127 1.257 . S
O113 Dy105 2.307 1_545 S
O113 C128 1.266 . S
O114 Dy104 2.298 . S
O114 C128 1.236 1_655 S
O115 Dy105 2.395 1_654 S
O115 C135 1.255 1_655 S
O116 Dy105 2.379 . S
O116 C135 1.249 1_556 S
C117 O107 1.266 . S
C117 O108 1.236 1_655 S
O118 Dy104 2.275 1_455 S
O118 C106 1.254 1_545 S
O119 Dy105 2.339 . S
O119 C106 1.257 . S
C120 C123 1.344 1_655 S
C120 C124 1.328 . S
C120 C126 1.516 . S
C121 C122 1.304 1_655 S
C121 C125 1.323 . S
C122 C121 1.304 1_455 S
C122 C123 1.371 . S
C122 H136 0.930 . S
C123 C120 1.344 1_455 S
C123 C122 1.371 . S
C123 H137 0.931 . S
C124 C120 1.328 . S
C124 C125 1.433 . S
C124 H138 0.931 . S
C125 C121 1.323 . S
C125 C124 1.433 . S
C125 H139 0.933 . S
C126 Dy104 2.738 . S
C126 O109 1.255 1_655 S
C126 O110 1.249 . S
C126 C120 1.516 . S
C127 O111 1.254 1_545 S
C127 O112 1.257 . S
C128 O113 1.266 . S
C128 O114 1.236 1_455 S
C129 C132 1.344 1_455 S
C129 C133 1.328 . S
C129 C135 1.516 . S
C130 C131 1.304 1_455 S
C130 C134 1.323 . S
C131 C130 1.304 1_655 S
C131 C132 1.371 . S
C131 H140 0.930 . S
C132 C129 1.344 1_655 S
C132 C131 1.371 . S
C132 H141 0.931 . S
C133 C129 1.328 . S
C133 C134 1.433 . S
C133 H142 0.931 . S
C134 C130 1.323 . S
C134 C133 1.433 . S
C134 H143 0.933 . S
C135 Dy105 2.738 1_554 S
C135 O115 1.255 1_455 S
C135 O116 1.249 1_554 S
C135 C129 1.516 . S
H136 C122 0.930 . S
H137 C123 0.931 . S
H138 C124 0.931 . S
H139 C125 0.933 . S
H140 C131 0.930 . S
H141 C132 0.931 . S
H142 C133 0.931 . S
H143 C134 0.933 . S
Dy144 O147 2.307 . S
Dy144 O149 2.395 1_565 S
Dy144 O150 2.379 . S
Dy144 O152 2.339 . S
Dy144 O154 2.298 . S
Dy144 O158 2.275 1_565 S
Dy144 C166 2.738 . S
Dy145 O148 2.298 . S
Dy145 O151 2.275 1_545 S
Dy145 O153 2.307 . S
Dy145 O155 2.395 1_546 S
Dy145 O156 2.379 . S
Dy145 O159 2.339 . S
Dy145 C175 2.738 1_556 S
C146 O158 1.254 . S
C146 O159 1.257 . S
O147 Dy144 2.307 . S
O147 C157 1.266 . S
O148 Dy145 2.298 . S
O148 C157 1.236 1_545 S
O149 Dy144 2.395 1_545 S
O149 C166 1.255 1_545 S
O150 Dy144 2.379 . S
O150 C166 1.249 . S
O151 Dy145 2.275 1_565 S
O151 C167 1.254 . S
O152 Dy144 2.339 . S
O152 C167 1.257 . S
O153 Dy145 2.307 . S
O153 C168 1.266 . S
O154 Dy144 2.298 . S
O154 C168 1.236 1_565 S
O155 Dy145 2.395 1_564 S
O155 C175 1.255 1_565 S
O156 Dy145 2.379 . S
O156 C175 1.249 1_556 S
C157 O147 1.266 . S
C157 O148 1.236 1_565 S
O158 Dy144 2.275 1_545 S
O158 C146 1.254 . S
O159 Dy145 2.339 . S
O159 C146 1.257 . S
C160 C163 1.344 1_565 S
C160 C164 1.328 . S
C160 C166 1.516 . S
C161 C162 1.298 1_565 S
C161 C165 1.323 . S
C162 C161 1.298 1_545 S
C162 C163 1.371 . S
C162 H176 0.936 . S
C163 C160 1.344 1_545 S
C163 C162 1.371 . S
C163 H177 0.931 . S
C164 C160 1.328 . S
C164 C165 1.433 . S
C164 H178 0.931 . S
C165 C161 1.323 . S
C165 C164 1.433 . S
C165 H179 0.933 . S
C166 Dy144 2.738 . S
C166 O149 1.255 1_565 S
C166 O150 1.249 . S
C166 C160 1.516 . S
C167 O151 1.254 . S
C167 O152 1.257 . S
C168 O153 1.266 . S
C168 O154 1.236 1_545 S
C169 C172 1.344 1_545 S
C169 C173 1.328 . S
C169 C175 1.516 . S
C170 C171 1.306 1_545 S
C170 C174 1.323 . S
C171 C170 1.306 1_565 S
C171 C172 1.371 . S
C171 H180 0.929 . S
C172 C169 1.344 1_565 S
C172 C171 1.371 . S
C172 H181 0.931 . S
C173 C169 1.328 . S
C173 C174 1.433 . S
C173 H182 0.931 . S
C174 C170 1.323 . S
C174 C173 1.433 . S
C174 H183 0.933 . S
C175 Dy145 2.738 1_554 S
C175 O155 1.255 1_545 S
C175 O156 1.249 1_554 S
C175 C169 1.516 . S
H176 C162 0.936 . S
H177 C163 0.931 . S
H178 C164 0.931 . S
H179 C165 0.933 . S
H180 C171 0.929 . S
H181 C172 0.931 . S
H182 C173 0.931 . S
H183 C174 0.933 . S
Dy184 O187 2.307 . S
Dy184 O189 2.395 . S
Dy184 O190 2.379 . S
Dy184 O192 2.339 . S
Dy184 O194 2.298 . S
Dy184 O198 2.275 . S
Dy184 C206 2.738 . S
Dy185 O188 2.298 . S
Dy185 O191 2.275 . S
Dy185 O193 2.307 . S
Dy185 O195 2.395 . S
Dy185 O196 2.379 . S
Dy185 O199 2.339 . S
Dy185 C215 2.738 . S
C186 O198 1.254 . S
C186 O199 1.257 . S
O187 Dy184 2.307 . S
O187 C197 1.266 . S
O188 Dy185 2.298 . S
O188 C197 1.236 . S
O189 Dy184 2.395 . S
O189 C206 1.255 . S
O190 Dy184 2.379 . S
O190 C206 1.249 . S
O191 Dy185 2.275 . S
O191 C207 1.254 . S
O192 Dy184 2.339 . S
O192 C207 1.257 . S
O193 Dy185 2.307 . S
O193 C208 1.266 . S
O194 Dy184 2.298 . S
O194 C208 1.236 . S
O195 Dy185 2.395 . S
O195 C215 1.255 . S
O196 Dy185 2.379 . S
O196 C215 1.249 . S
C197 O187 1.266 . S
C197 O188 1.236 . S
O198 Dy184 2.275 . S
O198 C186 1.254 . S
O199 Dy185 2.339 . S
O199 C186 1.257 . S
C200 C203 1.344 1_556 S
C200 C204 1.328 . S
C200 C206 1.516 . S
C201 C202 1.304 . S
C201 C205 1.323 . S
C202 C201 1.304 . S
C202 C203 1.371 . S
C202 H216 0.930 . S
C203 C200 1.344 1_554 S
C203 C202 1.371 . S
C203 H217 0.931 . S
C204 C200 1.328 . S
C204 C205 1.433 1_556 S
C204 H218 0.931 . S
C205 C201 1.323 . S
C205 C204 1.433 1_554 S
C205 H219 0.933 1_554 S
C206 Dy184 2.738 . S
C206 O189 1.255 . S
C206 O190 1.249 . S
C206 C200 1.516 . S
C207 O191 1.254 . S
C207 O192 1.257 . S
C208 O193 1.266 . S
C208 O194 1.236 . S
C209 C212 1.344 . S
C209 C213 1.328 . S
C209 C215 1.516 . S
C210 C211 1.304 . S
C210 C214 1.323 . S
C211 C210 1.304 . S
C211 C212 1.371 . S
C211 H220 0.930 . S
C212 C209 1.344 . S
C212 C211 1.371 . S
C212 H221 0.931 . S
C213 C209 1.328 . S
C213 C214 1.433 . S
C213 H222 0.931 . S
C214 C210 1.323 . S
C214 C213 1.433 . S
C214 H223 0.933 . S
C215 Dy185 2.738 . S
C215 O195 1.255 . S
C215 O196 1.249 . S
C215 C209 1.516 . S
H216 C202 0.930 . S
H217 C203 0.931 . S
H218 C204 0.931 . S
H219 C205 0.933 1_556 S
H220 C211 0.930 . S
H221 C212 0.931 . S
H222 C213 0.931 . S
H223 C214 0.933 . S
Dy224 O227 2.307 1_455 S
Dy224 O229 2.395 . S
Dy224 O230 2.379 . S
Dy224 O232 2.339 . S
Dy224 O234 2.298 . S
Dy224 O238 2.275 . S
Dy224 C246 2.738 . S
Dy225 O228 2.298 . S
Dy225 O231 2.275 . S
Dy225 O233 2.307 1_655 S
Dy225 O235 2.395 1_556 S
Dy225 O236 2.379 1_556 S
Dy225 O239 2.339 . S
Dy225 C255 2.738 1_556 S
C226 O238 1.254 . S
C226 O239 1.257 1_455 S
O227 Dy224 2.307 1_655 S
O227 C237 1.266 . S
O228 Dy225 2.298 . S
O228 C237 1.236 . S
O229 Dy224 2.395 . S
O229 C246 1.255 . S
O230 Dy224 2.379 . S
O230 C246 1.249 . S
O231 Dy225 2.275 . S
O231 C247 1.254 1_655 S
O232 Dy224 2.339 . S
O232 C247 1.257 . S
O233 Dy225 2.307 1_455 S
O233 C248 1.266 . S
O234 Dy224 2.298 . S
O234 C248 1.236 . S
O235 Dy225 2.395 1_554 S
O235 C255 1.255 . S
O236 Dy225 2.379 1_554 S
O236 C255 1.249 . S
C237 O227 1.266 . S
C237 O228 1.236 . S
O238 Dy224 2.275 . S
O238 C226 1.254 . S
O239 Dy225 2.339 . S
O239 C226 1.257 1_655 S
C240 C243 1.344 . S
C240 C244 1.328 . S
C240 C246 1.516 . S
C241 C242 1.304 . S
C241 C245 1.323 . S
C242 C241 1.304 . S
C242 C243 1.371 . S
C242 H256 0.930 . S
C243 C240 1.344 . S
C243 C242 1.371 . S
C243 H257 0.931 . S
C244 C240 1.328 . S
C244 C245 1.433 . S
C244 H258 0.931 . S
C245 C241 1.323 . S
C245 C244 1.433 . S
C245 H259 0.933 . S
C246 Dy224 2.738 . S
C246 O229 1.255 . S
C246 O230 1.249 . S
C246 C240 1.516 . S
C247 O231 1.254 1_455 S
C247 O232 1.257 . S
C248 O233 1.266 . S
C248 O234 1.236 . S
C249 C252 1.344 . S
C249 C253 1.328 . S
C249 C255 1.516 . S
C250 C251 1.304 . S
C250 C254 1.323 . S
C251 C250 1.304 . S
C251 C252 1.371 . S
C251 H260 0.930 . S
C252 C249 1.344 . S
C252 C251 1.371 . S
C252 H261 0.931 . S
C253 C249 1.328 . S
C253 C254 1.433 . S
C253 H262 0.931 . S
C254 C250 1.323 . S
C254 C253 1.433 . S
C254 H263 0.933 . S
C255 Dy225 2.738 1_554 S
C255 O235 1.255 . S
C255 O236 1.249 . S
C255 C249 1.516 . S
H256 C242 0.930 . S
H257 C243 0.931 . S
H258 C244 0.931 . S
H259 C245 0.933 . S
H260 C251 0.930 . S
H261 C252 0.931 . S
H262 C253 0.931 . S
H263 C254 0.933 . S
H264 C270 0.930 . S
H265 C274 0.930 . S
H266 C279 0.929 . S
H267 C277 0.929 . S
H268 C272 0.929 . S
H269 C278 0.929 . S
C270 H264 0.930 . S
C270 C271 1.386 . S
C270 C278 1.378 . S
C271 C270 1.386 . S
C271 C279 1.411 1_545 S
C272 H268 0.929 . S
C272 C274 1.378 . S
C272 C276 1.348 1_565 S
C273 C276 1.463 . S
C273 C278 1.350 . S
C273 N281 1.427 1_545 S
C274 H265 0.930 . S
C274 C272 1.378 . S
C274 C275 1.348 1_565 S
C275 C274 1.348 1_545 S
C275 C277 1.455 . S
C276 C272 1.348 1_545 S
C276 C273 1.463 . S
C276 N280 1.429 . S
C277 H267 0.929 . S
C277 C275 1.455 . S
C277 N280 1.384 . S
C278 H269 0.929 . S
C278 C270 1.378 . S
C278 C273 1.350 . S
C279 H266 0.929 . S
C279 C271 1.411 1_565 S
C279 N281 1.384 . S
N280 C276 1.429 . S
N280 C277 1.384 . S
N281 C273 1.427 1_565 S
N281 C279 1.384 . S
H282 C288 0.930 . S
H283 C292 0.930 . S
H284 C297 0.929 . S
H285 C295 0.929 . S
H286 C290 0.929 . S
H287 C296 0.929 . S
C288 H282 0.930 . S
C288 C289 1.367 . S
C288 C296 1.378 . S
C289 C288 1.367 . S
C289 C297 1.433 . S
C290 H286 0.929 . S
C290 C292 1.378 . S
C290 C294 1.350 . S
C291 C294 1.463 . S
C291 C296 1.350 . S
C291 N299 1.427 . S
C292 H283 0.930 . S
C292 C290 1.378 . S
C292 C293 1.367 . S
C293 C292 1.367 . S
C293 C295 1.433 . S
C294 C290 1.350 . S
C294 C291 1.463 . S
C294 N298 1.427 . S
C295 H285 0.929 . S
C295 C293 1.433 . S
C295 N298 1.384 . S
C296 H287 0.929 . S
C296 C288 1.378 . S
C296 C291 1.350 . S
C297 H284 0.929 . S
C297 C289 1.433 . S
C297 N299 1.384 . S
N298 C294 1.427 . S
N298 C295 1.384 . S
N299 C291 1.427 . S
N299 C297 1.384 . S
H300 C306 0.930 . S
H301 C310 0.930 . S
H302 C315 0.929 . S
H303 C313 0.929 . S
H304 C308 0.929 . S
H305 C314 0.929 . S
C306 H300 0.930 . S
C306 C307 1.367 . S
C306 C314 1.378 . S
C307 C306 1.367 . S
C307 C315 1.433 . S
C308 H304 0.929 . S
C308 C310 1.378 . S
C308 C312 1.350 . S
C309 C312 1.463 . S
C309 C314 1.350 . S
C309 N317 1.427 . S
C310 H301 0.930 . S
C310 C308 1.378 . S
C310 C311 1.367 . S
C311 C310 1.367 . S
C311 C313 1.433 . S
C312 C308 1.350 . S
C312 C309 1.463 . S
C312 N316 1.427 . S
C313 H303 0.929 . S
C313 C311 1.433 . S
C313 N316 1.384 . S
C314 H305 0.929 . S
C314 C306 1.378 . S
C314 C309 1.350 . S
C315 H302 0.929 . S
C315 C307 1.433 . S
C315 N317 1.384 . S
N316 C312 1.427 . S
N316 C313 1.384 . S
N317 C309 1.427 . S
N317 C315 1.384 . S
H318 C324 0.930 . S
H319 C328 0.930 . S
H320 C333 0.929 . S
H321 C331 0.929 . S
H322 C326 0.929 . S
H323 C332 0.929 . S
C324 H318 0.930 . S
C324 C325 1.367 . S
C324 C332 1.378 . S
C325 C324 1.367 . S
C325 C333 1.433 1_455 S
C326 H322 0.929 . S
C326 C328 1.378 . S
C326 C330 1.350 1_655 S
C327 C330 1.463 . S
C327 C332 1.350 . S
C327 N335 1.427 1_455 S
C328 H319 0.930 . S
C328 C326 1.378 . S
C328 C329 1.367 1_655 S
C329 C328 1.367 1_455 S
C329 C331 1.433 . S
C330 C326 1.350 1_455 S
C330 C327 1.463 . S
C330 N334 1.427 . S
C331 H321 0.929 . S
C331 C329 1.433 . S
C331 N334 1.384 . S
C332 H323 0.929 . S
C332 C324 1.378 . S
C332 C327 1.350 . S
C333 H320 0.929 . S
C333 C325 1.433 1_655 S
C333 N335 1.384 . S
N334 C330 1.427 . S
N334 C331 1.384 . S
N335 C327 1.427 1_655 S
N335 C333 1.384 . S
H336 C342 0.930 . S
H337 C346 0.930 1_556 S
H338 C351 0.929 . S
H339 C349 0.929 . S
H340 C344 0.929 . S
H341 C350 0.929 . S
C342 H336 0.930 . S
C342 C343 1.384 . S
C342 C350 1.378 . S
C343 C342 1.384 . S
C343 C351 1.417 1_545 S
C344 H340 0.929 . S
C344 C346 1.378 . S
C344 C348 1.350 . S
C345 C348 1.463 1_545 S
C345 C350 1.363 . S
C345 N353 1.413 1_545 S
C346 H337 0.930 1_554 S
C346 C344 1.378 . S
C346 C347 1.367 1_554 S
C347 C346 1.367 1_556 S
C347 C349 1.433 1_566 S
C348 C344 1.350 . S
C348 C345 1.463 1_565 S
C348 N352 1.427 1_565 S
C349 H339 0.929 . S
C349 C347 1.433 1_544 S
C349 N352 1.384 . S
C350 H341 0.929 . S
C350 C342 1.378 . S
C350 C345 1.363 . S
C351 H338 0.929 . S
C351 C343 1.417 1_565 S
C351 N353 1.384 . S
N352 C348 1.427 1_545 S
N352 C349 1.384 . S
N353 C345 1.413 1_565 S
N353 C351 1.384 . S
H354 C360 0.930 . S
H355 C364 0.930 . S
H356 C369 0.929 . S
H357 C367 0.929 . S
H358 C362 0.929 . S
H359 C368 0.929 1_556 S
C360 H354 0.930 . S
C360 C361 1.367 . S
C360 C368 1.378 . S
C361 C360 1.367 . S
C361 C369 1.433 . S
C362 H358 0.929 . S
C362 C364 1.378 . S
C362 C366 1.350 . S
C363 C366 1.463 . S
C363 C368 1.350 . S
C363 N371 1.427 . S
C364 H355 0.930 . S
C364 C362 1.378 . S
C364 C365 1.367 1_554 S
C365 C364 1.367 1_556 S
C365 C367 1.433 . S
C366 C362 1.350 . S
C366 C363 1.463 . S
C366 N370 1.427 1_554 S
C367 H357 0.929 . S
C367 C365 1.433 . S
C367 N370 1.384 . S
C368 H359 0.929 1_554 S
C368 C360 1.378 . S
C368 C363 1.350 . S
C369 H356 0.929 . S
C369 C361 1.433 . S
C369 N371 1.384 . S
N370 C366 1.427 1_556 S
N370 C367 1.384 . S
N371 C363 1.427 . S
N371 C369 1.384 . S
H372 C378 0.930 . S
H373 C382 0.930 . S
H374 C387 0.929 . S
H375 C385 0.929 . S
H376 C380 0.929 . S
H377 C386 0.929 . S
C378 H372 0.930 . S
C378 C379 1.367 . S
C378 C386 1.378 . S
C379 C378 1.367 . S
C379 C387 1.433 . S
C380 H376 0.929 . S
C380 C382 1.378 . S
C380 C384 1.350 . S
C381 C384 1.463 . S
C381 C386 1.350 . S
C381 N389 1.427 . S
C382 H373 0.930 . S
C382 C380 1.378 . S
C382 C383 1.367 . S
C383 C382 1.367 . S
C383 C385 1.433 . S
C384 C380 1.350 . S
C384 C381 1.463 . S
C384 N388 1.427 . S
C385 H375 0.929 . S
C385 C383 1.433 . S
C385 N388 1.384 . S
C386 H377 0.929 . S
C386 C378 1.378 . S
C386 C381 1.350 . S
C387 H374 0.929 . S
C387 C379 1.433 . S
C387 N389 1.384 . S
N388 C384 1.427 . S
N388 C385 1.384 . S
N389 C381 1.427 . S
N389 C387 1.384 . S
H390 C396 0.930 . S
H391 C400 0.930 . S
H392 C405 0.929 . S
H393 C403 0.929 . S
H394 C398 0.929 . S
H395 C404 0.929 . S
C396 H390 0.930 . S
C396 C397 1.352 1_455 S
C396 C404 1.378 . S
C397 C396 1.352 1_655 S
C397 C405 1.452 . S
C398 H394 0.929 . S
C398 C400 1.378 . S
C398 C402 1.350 . S
C399 C402 1.463 1_455 S
C399 C404 1.347 . S
C399 N407 1.430 1_455 S
C400 H391 0.930 . S
C400 C398 1.378 . S
C400 C401 1.385 . S
C401 C400 1.385 . S
C401 C403 1.410 1_655 S
C402 C398 1.350 . S
C402 C399 1.463 1_655 S
C402 N406 1.427 1_655 S
C403 H393 0.929 . S
C403 C401 1.410 1_455 S
C403 N406 1.384 . S
C404 H395 0.929 . S
C404 C396 1.378 . S
C404 C399 1.347 . S
C405 H392 0.929 . S
C405 C397 1.452 . S
C405 N407 1.384 . S
N406 C402 1.427 1_455 S
N406 C403 1.384 . S
N407 C399 1.430 1_655 S
N407 C405 1.384 . S
H408 C414 0.930 . S
H409 C418 0.930 . S
H410 C423 0.929 . S
H411 C421 0.929 . S
H412 C416 0.929 . S
H413 C422 0.929 . S
C414 H408 0.930 . S
C414 C415 1.367 . S
C414 C422 1.378 . S
C415 C414 1.367 . S
C415 C423 1.433 . S
C416 H412 0.929 . S
C416 C418 1.378 . S
C416 C420 1.350 . S
C417 C420 1.463 . S
C417 C422 1.350 1_655 S
C417 N425 1.427 . S
C418 H409 0.930 . S
C418 C416 1.378 . S
C418 C419 1.367 . S
C419 C418 1.367 . S
C419 C421 1.433 . S
C420 C416 1.350 . S
C420 C417 1.463 . S
C420 N424 1.427 . S
C421 H411 0.929 . S
C421 C419 1.433 . S
C421 N424 1.384 . S
C422 H413 0.929 . S
C422 C414 1.378 . S
C422 C417 1.350 1_455 S
C423 H410 0.929 . S
C423 C415 1.433 . S
C423 N425 1.384 1_455 S
N424 C420 1.427 . S
N424 C421 1.384 . S
N425 C417 1.427 . S
N425 C423 1.384 1_655 S
H426 C432 0.930 . S
H427 C436 0.930 . S
H428 C441 0.929 . S
H429 C439 0.929 1_545 S
H430 C434 0.929 . S
H431 C440 0.929 . S
C432 H426 0.930 . S
C432 C433 1.387 . S
C432 C440 1.378 . S
C433 C432 1.387 . S
C433 C441 1.408 1_545 S
C434 H430 0.929 . S
C434 C436 1.378 . S
C434 C438 1.350 . S
C435 C438 1.463 . S
C435 C440 1.350 1_565 S
C435 N443 1.427 . S
C436 H427 0.930 . S
C436 C434 1.378 . S
C436 C437 1.367 . S
C437 C436 1.367 . S
C437 C439 1.433 . S
C438 C434 1.350 . S
C438 C435 1.463 . S
C438 N442 1.427 1_565 S
C439 H429 0.929 1_565 S
C439 C437 1.433 . S
C439 N442 1.384 1_565 S
C440 H431 0.929 . S
C440 C432 1.378 . S
C440 C435 1.350 1_545 S
C441 H428 0.929 . S
C441 C433 1.408 1_565 S
C441 N443 1.384 . S
N442 C438 1.427 1_545 S
N442 C439 1.384 1_545 S
N443 C435 1.427 . S
N443 C441 1.384 . S
H444 C450 0.930 . S
H445 C454 0.930 . S
H446 C459 0.929 . S
H447 C457 0.929 . S
H448 C452 0.929 . S
H449 C458 0.929 . S
C450 H444 0.930 . S
C450 C451 1.367 . S
C450 C458 1.378 . S
C451 C450 1.367 . S
C451 C459 1.433 . S
C452 H448 0.929 . S
C452 C454 1.378 . S
C452 C456 1.350 . S
C453 C456 1.463 . S
C453 C458 1.350 . S
C453 N461 1.427 . S
C454 H445 0.930 . S
C454 C452 1.378 . S
C454 C455 1.367 . S
C455 C454 1.367 . S
C455 C457 1.433 . S
C456 C452 1.350 . S
C456 C453 1.463 . S
C456 N460 1.427 . S
C457 H447 0.929 . S
C457 C455 1.433 . S
C457 N460 1.384 . S
C458 H449 0.929 . S
C458 C450 1.378 . S
C458 C453 1.350 . S
C459 H446 0.929 . S
C459 C451 1.433 . S
C459 N461 1.384 . S
N460 C456 1.427 . S
N460 C457 1.384 . S
N461 C453 1.427 . S
N461 C459 1.384 . S
H462 C468 0.930 . S
H463 C472 0.930 . S
H464 C477 0.929 1_556 S
H465 C475 0.929 . S
H466 C470 0.929 . S
H467 C476 0.929 . S
C468 H462 0.930 . S
C468 C469 1.367 . S
C468 C476 1.378 . S
C469 C468 1.367 . S
C469 C477 1.433 . S
C470 H466 0.929 . S
C470 C472 1.378 . S
C470 C474 1.350 . S
C471 C474 1.463 . S
C471 C476 1.350 . S
C471 N479 1.427 . S
C472 H463 0.930 . S
C472 C470 1.378 . S
C472 C473 1.367 . S
C473 C472 1.367 . S
C473 C475 1.433 . S
C474 C470 1.350 . S
C474 C471 1.463 . S
C474 N478 1.427 . S
C475 H465 0.929 . S
C475 C473 1.433 . S
C475 N478 1.384 . S
C476 H467 0.929 . S
C476 C468 1.378 . S
C476 C471 1.350 . S
C477 H464 0.929 1_554 S
C477 C469 1.433 . S
C477 N479 1.384 . S
N478 C474 1.427 . S
N478 C475 1.384 . S
N479 C471 1.427 . S
N479 C477 1.384 . S
H480 C486 0.930 . S
H481 C490 0.930 . S
H482 C495 0.929 . S
H483 C493 0.929 1_655 S
H484 C488 0.929 . S
H485 C494 0.929 . S
C486 H480 0.930 . S
C486 C487 1.367 . S
C486 C494 1.378 . S
C487 C486 1.367 . S
C487 C495 1.433 1_655 S
C488 H484 0.929 . S
C488 C490 1.378 . S
C488 C492 1.350 . S
C489 C492 1.463 . S
C489 C494 1.350 1_455 S
C489 N497 1.427 . S
C490 H481 0.930 . S
C490 C488 1.378 . S
C490 C491 1.367 . S
C491 C490 1.367 . S
C491 C493 1.433 . S
C492 C488 1.350 . S
C492 C489 1.463 . S
C492 N496 1.427 1_455 S
C493 H483 0.929 1_455 S
C493 C491 1.433 . S
C493 N496 1.384 1_455 S
C494 H485 0.929 . S
C494 C486 1.378 . S
C494 C489 1.350 1_655 S
C495 H482 0.929 . S
C495 C487 1.433 1_455 S
C495 N497 1.384 . S
N496 C492 1.427 1_655 S
N496 C493 1.384 1_655 S
N497 C489 1.427 . S
N497 C495 1.384 . S
H498 C504 0.930 . S
H499 C508 0.949 . S
H500 C513 0.929 . S
H501 C511 0.929 . S
H502 C506 0.929 . S
H503 C512 0.929 . S
C504 H498 0.930 . S
C504 C505 1.381 . S
C504 C512 1.378 . S
C505 C504 1.381 . S
C505 C513 1.421 1_545 S
C506 H502 0.929 . S
C506 C508 1.381 . S
C506 C510 1.350 1_565 S
C507 C510 1.463 . S
C507 C512 1.350 . S
C507 N515 1.427 1_545 S
C508 H499 0.949 . S
C508 C506 1.381 . S
C508 C509 1.345 1_565 S
C509 C508 1.345 1_545 S
C509 C511 1.433 . S
C510 C506 1.350 1_545 S
C510 C507 1.463 . S
C510 N514 1.427 . S
C511 H501 0.929 . S
C511 C509 1.433 . S
C511 N514 1.384 . S
C512 H503 0.929 . S
C512 C504 1.378 . S
C512 C507 1.350 . S
C513 H500 0.929 . S
C513 C505 1.421 1_565 S
C513 N515 1.384 . S
N514 C510 1.427 . S
N514 C511 1.384 . S
N515 C507 1.427 1_565 S
N515 C513 1.384 . S
H516 C522 0.930 . S
H517 C526 0.930 . S
H518 C531 0.929 . S
H519 C529 0.929 . S
H520 C524 0.929 . S
H521 C530 0.929 1_556 S
C522 H516 0.930 . S
C522 C523 1.367 . S
C522 C530 1.378 . S
C523 C522 1.367 . S
C523 C531 1.433 . S
C524 H520 0.929 . S
C524 C526 1.378 . S
C524 C528 1.350 . S
C525 C528 1.463 . S
C525 C530 1.350 . S
C525 N533 1.427 . S
C526 H517 0.930 . S
C526 C524 1.378 . S
C526 C527 1.367 . S
C527 C526 1.367 . S
C527 C529 1.433 1_554 S
C528 C524 1.350 . S
C528 C525 1.463 . S
C528 N532 1.427 1_554 S
C529 H519 0.929 . S
C529 C527 1.433 1_556 S
C529 N532 1.384 . S
C530 H521 0.929 1_554 S
C530 C522 1.378 . S
C530 C525 1.350 . S
C531 H518 0.929 . S
C531 C523 1.433 . S
C531 N533 1.384 . S
N532 C528 1.427 1_556 S
N532 C529 1.384 . S
N533 C525 1.427 . S
N533 C531 1.384 . S
H534 C540 0.930 . S
H535 C544 0.930 . S
H536 C549 0.929 . S
H537 C547 0.929 . S
H538 C542 0.929 . S
H539 C548 0.929 . S
C540 H534 0.930 . S
C540 C541 1.367 . S
C540 C548 1.378 . S
C541 C540 1.367 . S
C541 C549 1.433 . S
C542 H538 0.929 . S
C542 C544 1.378 . S
C542 C546 1.350 . S
C543 C546 1.463 . S
C543 C548 1.350 . S
C543 N551 1.427 . S
C544 H535 0.930 . S
C544 C542 1.378 . S
C544 C545 1.367 . S
C545 C544 1.367 . S
C545 C547 1.433 . S
C546 C542 1.350 . S
C546 C543 1.463 . S
C546 N550 1.427 . S
C547 H537 0.929 . S
C547 C545 1.433 . S
C547 N550 1.384 . S
C548 H539 0.929 . S
C548 C540 1.378 . S
C548 C543 1.350 . S
C549 H536 0.929 . S
C549 C541 1.433 . S
C549 N551 1.384 . S
N550 C546 1.427 . S
N550 C547 1.384 . S
N551 C543 1.427 . S
N551 C549 1.384 . S
H552 C558 0.930 . S
H553 C562 0.930 . S
H554 C567 0.929 . S
H555 C565 0.929 . S
H556 C560 0.929 . S
H557 C566 0.929 . S
C558 H552 0.930 . S
C558 C559 1.367 1_556 S
C558 C566 1.378 . S
C559 C558 1.367 1_554 S
C559 C567 1.433 1_455 S
C560 H556 0.929 . S
C560 C562 1.378 . S
C560 C564 1.350 1_654 S
C561 C564 1.463 . S
C561 C566 1.350 . S
C561 N569 1.427 1_456 S
C562 H553 0.930 . S
C562 C560 1.378 . S
C562 C563 1.367 1_654 S
C563 C562 1.367 1_456 S
C563 C565 1.433 . S
C564 C560 1.350 1_456 S
C564 C561 1.463 . S
C564 N568 1.427 . S
C565 H555 0.929 . S
C565 C563 1.433 . S
C565 N568 1.384 . S
C566 H557 0.929 . S
C566 C558 1.378 . S
C566 C561 1.350 . S
C567 H554 0.929 . S
C567 C559 1.433 1_655 S
C567 N569 1.384 . S
N568 C564 1.427 . S
N568 C565 1.384 . S
N569 C561 1.427 1_654 S
N569 C567 1.384 . S
H570 C576 0.929 1_566 S
H571 C580 0.930 . S
H572 C585 0.929 . S
H573 C583 0.929 . S
H574 C578 0.929 . S
H575 C584 0.929 . S
C576 H570 0.929 1_544 S
C576 C577 1.366 . S
C576 C584 1.380 1_554 S
C577 C576 1.366 . S
C577 C585 1.433 . S
C578 H574 0.929 . S
C578 C580 1.378 . S
C578 C582 1.350 . S
C579 C582 1.463 . S
C579 C584 1.350 1_554 S
C579 N587 1.427 . S
C580 H571 0.930 . S
C580 C578 1.378 . S
C580 C581 1.367 1_554 S
C581 C580 1.367 1_556 S
C581 C583 1.433 . S
C582 C578 1.350 . S
C582 C579 1.463 . S
C582 N586 1.427 1_554 S
C583 H573 0.929 . S
C583 C581 1.433 . S
C583 N586 1.384 . S
C584 H575 0.929 . S
C584 C576 1.380 1_556 S
C584 C579 1.350 1_556 S
C585 H572 0.929 . S
C585 C577 1.433 . S
C585 N587 1.384 . S
N586 C582 1.427 1_556 S
N586 C583 1.384 . S
N587 C579 1.427 . S
N587 C585 1.384 . S
H588 C594 0.930 . S
H589 C598 0.930 1_556 S
H590 C603 0.929 . S
H591 C601 0.929 . S
H592 C596 0.929 . S
H593 C602 0.929 . S
C594 H588 0.930 . S
C594 C595 1.367 . S
C594 C602 1.378 . S
C595 C594 1.367 . S
C595 C603 1.433 . S
C596 H592 0.929 . S
C596 C598 1.378 . S
C596 C600 1.350 . S
C597 C600 1.463 . S
C597 C602 1.350 . S
C597 N605 1.427 . S
C598 H589 0.930 1_554 S
C598 C596 1.378 . S
C598 C599 1.367 . S
C599 C598 1.367 . S
C599 C601 1.433 . S
C600 C596 1.350 . S
C600 C597 1.463 . S
C600 N604 1.427 . S
C601 H591 0.929 . S
C601 C599 1.433 . S
C601 N604 1.384 . S
C602 H593 0.929 . S
C602 C594 1.378 . S
C602 C597 1.350 . S
C603 H590 0.929 . S
C603 C595 1.433 . S
C603 N605 1.384 . S
N604 C600 1.427 . S
N604 C601 1.384 . S
N605 C597 1.427 . S
N605 C603 1.384 . S
H606 C612 0.930 . S
H607 C616 0.930 . S
H608 C621 0.929 . S
H609 C619 0.929 . S
H610 C614 0.929 . S
H611 C620 0.929 . S
C612 H606 0.930 . S
C612 C613 1.367 . S
C612 C620 1.378 . S
C613 C612 1.367 . S
C613 C621 1.433 . S
C614 H610 0.929 . S
C614 C616 1.378 . S
C614 C618 1.350 . S
C615 C618 1.463 . S
C615 C620 1.350 . S
C615 N623 1.427 . S
C616 H607 0.930 . S
C616 C614 1.378 . S
C616 C617 1.367 . S
C617 C616 1.367 . S
C617 C619 1.433 . S
C618 C614 1.350 . S
C618 C615 1.463 . S
C618 N622 1.427 . S
C619 H609 0.929 . S
C619 C617 1.433 . S
C619 N622 1.384 . S
C620 H611 0.929 . S
C620 C612 1.378 . S
C620 C615 1.350 . S
C621 H608 0.929 . S
C621 C613 1.433 . S
C621 N623 1.384 . S
N622 C618 1.427 . S
N622 C619 1.384 . S
N623 C615 1.427 . S
N623 C621 1.384 . S
H624 C630 0.930 . S
H625 C634 0.930 . S
H626 C639 0.929 . S
H627 C637 0.929 . S
H628 C632 0.929 . S
H629 C638 0.929 . S
C630 H624 0.930 . S
C630 C631 1.367 1_455 S
C630 C638 1.378 . S
C631 C630 1.367 1_655 S
C631 C639 1.433 . S
C632 H628 0.929 . S
C632 C634 1.378 . S
C632 C636 1.350 . S
C633 C636 1.463 . S
C633 C638 1.350 1_655 S
C633 N641 1.427 . S
C634 H625 0.930 . S
C634 C632 1.378 . S
C634 C635 1.367 . S
C635 C634 1.367 . S
C635 C637 1.433 1_655 S
C636 C632 1.350 . S
C636 C633 1.463 . S
C636 N640 1.427 1_655 S
C637 H627 0.929 . S
C637 C635 1.433 1_455 S
C637 N640 1.384 . S
C638 H629 0.929 . S
C638 C630 1.378 . S
C638 C633 1.350 1_455 S
C639 H626 0.929 . S
C639 C631 1.433 . S
C639 N641 1.384 . S
N640 C636 1.427 1_455 S
N640 C637 1.384 . S
N641 C633 1.427 . S
N641 C639 1.384 . S
H642 C648 0.930 . S
H643 C652 0.930 . S
H644 C657 0.929 . S
H645 C655 0.929 . S
H646 C650 0.929 . S
H647 C656 0.929 . S
C648 H642 0.930 . S
C648 C649 1.340 1_545 S
C648 C656 1.378 . S
C649 C648 1.340 1_565 S
C649 C657 1.466 . S
C650 H646 0.929 . S
C650 C652 1.378 . S
C650 C654 1.350 . S
C651 C654 1.463 . S
C651 C656 1.350 1_565 S
C651 N659 1.427 . S
C652 H643 0.930 . S
C652 C650 1.378 . S
C652 C653 1.367 . S
C653 C652 1.367 . S
C653 C655 1.433 1_565 S
C654 C650 1.350 . S
C654 C651 1.463 . S
C654 N658 1.427 1_565 S
C655 H645 0.929 . S
C655 C653 1.433 1_545 S
C655 N658 1.384 . S
C656 H647 0.929 . S
C656 C648 1.378 . S
C656 C651 1.350 1_545 S
C657 H644 0.929 . S
C657 C649 1.466 . S
C657 N659 1.384 . S
N658 C654 1.427 1_545 S
N658 C655 1.384 . S
N659 C651 1.427 . S
N659 C657 1.384 . S
H660 C666 0.930 . S
H661 C670 0.930 . S
H662 C675 0.929 . S
H663 C673 0.929 . S
H664 C668 0.929 . S
H665 C674 0.929 . S
C666 H660 0.930 . S
C666 C667 1.367 . S
C666 C674 1.378 . S
C667 C666 1.367 . S
C667 C675 1.433 . S
C668 H664 0.929 . S
C668 C670 1.378 . S
C668 C672 1.350 . S
C669 C672 1.463 . S
C669 C674 1.350 . S
C669 N677 1.427 . S
C670 H661 0.930 . S
C670 C668 1.378 . S
C670 C671 1.367 . S
C671 C670 1.367 . S
C671 C673 1.433 . S
C672 C668 1.350 . S
C672 C669 1.463 . S
C672 N676 1.427 . S
C673 H663 0.929 . S
C673 C671 1.433 . S
C673 N676 1.384 . S
C674 H665 0.929 . S
C674 C666 1.378 . S
C674 C669 1.350 . S
C675 H662 0.929 . S
C675 C667 1.433 . S
C675 N677 1.384 . S
N676 C672 1.427 . S
N676 C673 1.384 . S
N677 C669 1.427 . S
N677 C675 1.384 . S
H678 C684 0.930 . S
H679 C688 0.930 . S
H680 C693 0.929 . S
H681 C691 0.929 . S
H682 C686 0.929 . S
H683 C692 0.929 . S
C684 H678 0.930 . S
C684 C685 1.367 . S
C684 C692 1.378 . S
C685 C684 1.367 . S
C685 C693 1.433 . S
C686 H682 0.929 . S
C686 C688 1.378 . S
C686 C690 1.350 . S
C687 C690 1.463 . S
C687 C692 1.350 . S
C687 N695 1.427 . S
C688 H679 0.930 . S
C688 C686 1.378 . S
C688 C689 1.367 . S
C689 C688 1.367 . S
C689 C691 1.433 . S
C690 C686 1.350 . S
C690 C687 1.463 . S
C690 N694 1.427 . S
C691 H681 0.929 . S
C691 C689 1.433 . S
C691 N694 1.384 . S
C692 H683 0.929 . S
C692 C684 1.378 . S
C692 C687 1.350 . S
C693 H680 0.929 . S
C693 C685 1.433 . S
C693 N695 1.384 . S
N694 C690 1.427 . S
N694 C691 1.384 . S
N695 C687 1.427 . S
N695 C693 1.384 . S
C271 N80 2.101 1_545 S
C275 C106 2.108 1_545 S
C293 C146 2.075 . S
C289 N93 2.060 . S
C311 C210 1.828 . S
C307 N54 1.775 . S
C329 C226 1.607 . S
C325 N67 1.521 . S
C347 C127 2.119 1_565 S
C343 N28 2.088 1_545 S
C361 N41 2.070 . S
C365 C167 2.080 . S
C379 N2 1.780 . S
C383 C201 1.828 . S
C397 N15 1.514 . S
C401 C247 1.613 1_654 S
C419 C121 0.416 . S
C415 N70 0.381 . S
C437 C161 0.706 . S
C433 N83 0.689 1_545 S
C455 C197 0.746 . S
C451 N96 0.731 . S
C469 N57 0.548 . S
C473 C241 0.589 . S
C487 N18 0.375 . S
C491 C130 0.443 . S
C509 C170 0.680 . S
C505 N31 0.681 1_545 S
C527 C208 0.748 1_554 S
C523 N44 0.735 . S
C541 N5 0.532 . S
C545 C250 0.555 . S
C559 N66 1.892 . S
C563 C128 1.960 . S
C577 N79 2.023 1_545 S
C581 C168 2.067 . S
C599 C186 1.650 1_554 S
C595 N92 1.685 . S
C617 C248 2.368 . S
C613 N53 2.280 . S
C631 N14 1.891 . S
C635 C117 1.971 . S
C653 C157 2.069 . S
C649 N27 2.012 . S
C671 C207 1.653 . S
C667 N40 1.696 . S
C685 N1 2.282 . S
C689 C237 2.368 . S
