# Generated by pormake.
# Topology ptr, (4,4)-cn, num edge types: 1
# Building blocks:
#     Node 0, Type 0, BuildingBlock: KUFVIS_clean_sbu_0, # of connection points: 4
#     Node 1, Type 0, BuildingBlock: KUFVIS_clean_sbu_0, # of connection points: 4
#     Node 2, Type 0, BuildingBlock: KUFVIS_clean_sbu_0, # of connection points: 4
#     Node 3, Type 0, BuildingBlock: KUFVIS_clean_sbu_0, # of connection points: 4
#     Node 4, Type 0, BuildingBlock: KUFVIS_clean_sbu_0, # of connection points: 4
#     Node 5, Type 0, BuildingBlock: KUFVIS_clean_sbu_0, # of connection points: 4
#     Node 6, Type 0, BuildingBlock: KUFVIS_clean_sbu_0, # of connection points: 4
#     Node 7, Type 0, BuildingBlock: KUFVIS_clean_sbu_0, # of connection points: 4
#     Node 8, Type 0, BuildingBlock: KUFVIS_clean_sbu_0, # of connection points: 4
#     Node 9, Type 0, BuildingBlock: KUFVIS_clean_sbu_0, # of connection points: 4
#     Node 10, Type 0, BuildingBlock: KUFVIS_clean_sbu_0, # of connection points: 4
#     Node 11, Type 0, BuildingBlock: KUFVIS_clean_sbu_0, # of connection points: 4
#     Node 12, Type 0, BuildingBlock: KUFVIS_clean_sbu_0, # of connection points: 4
#     Node 13, Type 0, BuildingBlock: KUFVIS_clean_sbu_0, # of connection points: 4
#     Node 14, Type 0, BuildingBlock: KUFVIS_clean_sbu_0, # of connection points: 4
#     Node 15, Type 0, BuildingBlock: KUFVIS_clean_sbu_0, # of connection points: 4
#     Node 16, Type 0, BuildingBlock: KUFVIS_clean_sbu_0, # of connection points: 4
#     Node 17, Type 0, BuildingBlock: KUFVIS_clean_sbu_0, # of connection points: 4
#     Node 18, Type 1, BuildingBlock: MUDLON_clean_linker_0, # of connection points: 4
#     Node 19, Type 1, BuildingBlock: MUDLON_clean_linker_0, # of connection points: 4
#     Node 20, Type 1, BuildingBlock: MUDLON_clean_linker_0, # of connection points: 4
#     Node 21, Type 1, BuildingBlock: MUDLON_clean_linker_0, # of connection points: 4
#     Node 22, Type 1, BuildingBlock: MUDLON_clean_linker_0, # of connection points: 4
#     Node 23, Type 1, BuildingBlock: MUDLON_clean_linker_0, # of connection points: 4
#     Node 24, Type 1, BuildingBlock: MUDLON_clean_linker_0, # of connection points: 4
#     Node 25, Type 1, BuildingBlock: MUDLON_clean_linker_0, # of connection points: 4
#     Node 26, Type 1, BuildingBlock: MUDLON_clean_linker_0, # of connection points: 4
#     Node 27, Type 1, BuildingBlock: MUDLON_clean_linker_0, # of connection points: 4
#     Node 28, Type 1, BuildingBlock: MUDLON_clean_linker_0, # of connection points: 4
#     Node 29, Type 1, BuildingBlock: MUDLON_clean_linker_0, # of connection points: 4
#     Node 30, Type 1, BuildingBlock: MUDLON_clean_linker_0, # of connection points: 4
#     Node 31, Type 1, BuildingBlock: MUDLON_clean_linker_0, # of connection points: 4
#     Node 32, Type 1, BuildingBlock: MUDLON_clean_linker_0, # of connection points: 4
#     Node 33, Type 1, BuildingBlock: MUDLON_clean_linker_0, # of connection points: 4
#     Node 34, Type 1, BuildingBlock: MUDLON_clean_linker_0, # of connection points: 4
#     Node 35, Type 1, BuildingBlock: MUDLON_clean_linker_0, # of connection points: 4
#     Edge 36, Type (0, 1), BuildingBlock: XIVTED_clean_linker_0, # of connection points: 2
#     Edge 37, Type (0, 1), BuildingBlock: XIVTED_clean_linker_0, # of connection points: 2
#     Edge 38, Type (0, 1), BuildingBlock: XIVTED_clean_linker_0, # of connection points: 2
#     Edge 39, Type (0, 1), BuildingBlock: XIVTED_clean_linker_0, # of connection points: 2
#     Edge 40, Type (0, 1), BuildingBlock: XIVTED_clean_linker_0, # of connection points: 2
#     Edge 41, Type (0, 1), BuildingBlock: XIVTED_clean_linker_0, # of connection points: 2
#     Edge 42, Type (0, 1), BuildingBlock: XIVTED_clean_linker_0, # of connection points: 2
#     Edge 43, Type (0, 1), BuildingBlock: XIVTED_clean_linker_0, # of connection points: 2
#     Edge 44, Type (0, 1), BuildingBlock: XIVTED_clean_linker_0, # of connection points: 2
#     Edge 45, Type (0, 1), BuildingBlock: XIVTED_clean_linker_0, # of connection points: 2
#     Edge 46, Type (0, 1), BuildingBlock: XIVTED_clean_linker_0, # of connection points: 2
#     Edge 47, Type (0, 1), BuildingBlock: XIVTED_clean_linker_0, # of connection points: 2
#     Edge 48, Type (0, 1), BuildingBlock: XIVTED_clean_linker_0, # of connection points: 2
#     Edge 49, Type (0, 1), BuildingBlock: XIVTED_clean_linker_0, # of connection points: 2
#     Edge 50, Type (0, 1), BuildingBlock: XIVTED_clean_linker_0, # of connection points: 2
#     Edge 51, Type (0, 1), BuildingBlock: XIVTED_clean_linker_0, # of connection points: 2
#     Edge 52, Type (0, 1), BuildingBlock: XIVTED_clean_linker_0, # of connection points: 2
#     Edge 53, Type (0, 1), BuildingBlock: XIVTED_clean_linker_0, # of connection points: 2
#     Edge 54, Type (0, 1), BuildingBlock: XIVTED_clean_linker_0, # of connection points: 2
#     Edge 55, Type (0, 1), BuildingBlock: XIVTED_clean_linker_0, # of connection points: 2
#     Edge 56, Type (0, 1), BuildingBlock: XIVTED_clean_linker_0, # of connection points: 2
#     Edge 57, Type (0, 1), BuildingBlock: XIVTED_clean_linker_0, # of connection points: 2
#     Edge 58, Type (0, 1), BuildingBlock: XIVTED_clean_linker_0, # of connection points: 2
#     Edge 59, Type (0, 1), BuildingBlock: XIVTED_clean_linker_0, # of connection points: 2
#     Edge 60, Type (0, 1), BuildingBlock: XIVTED_clean_linker_0, # of connection points: 2
#     Edge 61, Type (0, 1), BuildingBlock: XIVTED_clean_linker_0, # of connection points: 2
#     Edge 62, Type (0, 1), BuildingBlock: XIVTED_clean_linker_0, # of connection points: 2
#     Edge 63, Type (0, 1), BuildingBlock: XIVTED_clean_linker_0, # of connection points: 2
#     Edge 64, Type (0, 1), BuildingBlock: XIVTED_clean_linker_0, # of connection points: 2
#     Edge 65, Type (0, 1), BuildingBlock: XIVTED_clean_linker_0, # of connection points: 2
#     Edge 66, Type (0, 1), BuildingBlock: XIVTED_clean_linker_0, # of connection points: 2
#     Edge 67, Type (0, 1), BuildingBlock: XIVTED_clean_linker_0, # of connection points: 2
#     Edge 68, Type (0, 1), BuildingBlock: XIVTED_clean_linker_0, # of connection points: 2
#     Edge 69, Type (0, 1), BuildingBlock: XIVTED_clean_linker_0, # of connection points: 2
#     Edge 70, Type (0, 1), BuildingBlock: XIVTED_clean_linker_0, # of connection points: 2
#     Edge 71, Type (0, 1), BuildingBlock: XIVTED_clean_linker_0, # of connection points: 2
#     Edge 72, Type (0, 1), BuildingBlock: XIVTED_clean_linker_0, # of connection points: 2
#     Edge 73, Type (0, 1), BuildingBlock: XIVTED_clean_linker_0, # of connection points: 2
#     Edge 74, Type (0, 1), BuildingBlock: XIVTED_clean_linker_0, # of connection points: 2
#     Edge 75, Type (0, 1), BuildingBlock: XIVTED_clean_linker_0, # of connection points: 2
#     Edge 76, Type (0, 1), BuildingBlock: XIVTED_clean_linker_0, # of connection points: 2
#     Edge 77, Type (0, 1), BuildingBlock: XIVTED_clean_linker_0, # of connection points: 2
#     Edge 78, Type (0, 1), BuildingBlock: XIVTED_clean_linker_0, # of connection points: 2
#     Edge 79, Type (0, 1), BuildingBlock: XIVTED_clean_linker_0, # of connection points: 2
#     Edge 80, Type (0, 1), BuildingBlock: XIVTED_clean_linker_0, # of connection points: 2
#     Edge 81, Type (0, 1), BuildingBlock: XIVTED_clean_linker_0, # of connection points: 2
#     Edge 82, Type (0, 1), BuildingBlock: XIVTED_clean_linker_0, # of connection points: 2
#     Edge 83, Type (0, 1), BuildingBlock: XIVTED_clean_linker_0, # of connection points: 2
#     Edge 84, Type (0, 1), BuildingBlock: XIVTED_clean_linker_0, # of connection points: 2
#     Edge 85, Type (0, 1), BuildingBlock: XIVTED_clean_linker_0, # of connection points: 2
#     Edge 86, Type (0, 1), BuildingBlock: XIVTED_clean_linker_0, # of connection points: 2
#     Edge 87, Type (0, 1), BuildingBlock: XIVTED_clean_linker_0, # of connection points: 2
#     Edge 88, Type (0, 1), BuildingBlock: XIVTED_clean_linker_0, # of connection points: 2
#     Edge 89, Type (0, 1), BuildingBlock: XIVTED_clean_linker_0, # of connection points: 2
#     Edge 90, Type (0, 1), BuildingBlock: XIVTED_clean_linker_0, # of connection points: 2
#     Edge 91, Type (0, 1), BuildingBlock: XIVTED_clean_linker_0, # of connection points: 2
#     Edge 92, Type (0, 1), BuildingBlock: XIVTED_clean_linker_0, # of connection points: 2
#     Edge 93, Type (0, 1), BuildingBlock: XIVTED_clean_linker_0, # of connection points: 2
#     Edge 94, Type (0, 1), BuildingBlock: XIVTED_clean_linker_0, # of connection points: 2
#     Edge 95, Type (0, 1), BuildingBlock: XIVTED_clean_linker_0, # of connection points: 2
#     Edge 96, Type (0, 1), BuildingBlock: XIVTED_clean_linker_0, # of connection points: 2
#     Edge 97, Type (0, 1), BuildingBlock: XIVTED_clean_linker_0, # of connection points: 2
#     Edge 98, Type (0, 1), BuildingBlock: XIVTED_clean_linker_0, # of connection points: 2
#     Edge 99, Type (0, 1), BuildingBlock: XIVTED_clean_linker_0, # of connection points: 2
#     Edge 100, Type (0, 1), BuildingBlock: XIVTED_clean_linker_0, # of connection points: 2
#     Edge 101, Type (0, 1), BuildingBlock: XIVTED_clean_linker_0, # of connection points: 2
#     Edge 102, Type (0, 1), BuildingBlock: XIVTED_clean_linker_0, # of connection points: 2
#     Edge 103, Type (0, 1), BuildingBlock: XIVTED_clean_linker_0, # of connection points: 2
#     Edge 104, Type (0, 1), BuildingBlock: XIVTED_clean_linker_0, # of connection points: 2
#     Edge 105, Type (0, 1), BuildingBlock: XIVTED_clean_linker_0, # of connection points: 2
#     Edge 106, Type (0, 1), BuildingBlock: XIVTED_clean_linker_0, # of connection points: 2
#     Edge 107, Type (0, 1), BuildingBlock: XIVTED_clean_linker_0, # of connection points: 2
# Relax obj value: 0.036
# Max RMSD: 0.125
# Mean RMSD: 0.072
data_MOF--net-ptr--node1-KUFVIS_clean_sbu_0--node2-MUDLON_clean_linker_0--edge1-XIVTED_clean_linker_0
_symmetry_space_group_name_H-M    P1
_symmetry_Int_Tables_number       1
_symmetry_cell_setting            triclinic
loop_
_symmetry_equiv_pos_as_xyz
'x, y, z'
_cell_length_a     104.86416
_cell_length_b     104.42909
_cell_length_c     63.762506
_cell_angle_alpha  89.68055
_cell_angle_beta   90.686315
_cell_angle_gamma 119.5194
loop_
_atom_site_label
_atom_site_type_symbol
_atom_site_fract_x
_atom_site_fract_y
_atom_site_fract_z
_atom_type_partial_charge
Mn0 Mn 0.99929 0.36429 0.00105 0.0
Mn1 Mn 0.03198 0.39481 0.99352 0.0
C2 C 0.00137 0.3815 0.97645 0.0
C3 C 0.98344 0.33959 0.99312 0.0
C4 C 0.01244 0.39072 0.03068 0.0
O5 O 0.01377 0.35929 0.01531 0.0
O6 O 0.03511 0.3793 0.00681 0.0
C7 C 0.04371 0.38304 0.96154 0.0
N8 N 0.03991 0.39321 0.96747 0.0
C9 C 0.04719 0.40555 0.93416 0.0
C10 C 0.05128 0.39527 0.92775 0.0
C11 C 0.0495 0.38395 0.94149 0.0
C12 C 0.04151 0.4041 0.95434 0.0
H13 H 0.0423 0.37428 0.97202 0.0
C14 C 0.02775 0.36654 0.01513 0.0
O15 O 0.98225 0.34531 0.01053 0.0
O16 O 0.99385 0.34816 0.98061 0.0
N17 N 0.03071 0.41076 0.98066 0.0
C18 C 0.02593 0.41959 0.98908 0.0
C19 C 0.02685 0.43141 0.97729 0.0
C20 C 0.03278 0.43411 0.95705 0.0
C21 C 0.03783 0.42501 0.94884 0.0
C22 C 0.03678 0.41349 0.96141 0.0
H23 H 0.02141 0.41761 0.00465 0.0
O24 O 0.98861 0.3721 0.98369 0.0
O25 O 0.01242 0.38033 0.98352 0.0
O26 O 0.00167 0.37829 0.02518 0.0
O27 O 0.02433 0.39747 0.02032 0.0
C28 C 0.04369 0.42679 0.92858 0.0
C29 C 0.04832 0.41704 0.92122 0.0
H30 H 0.0557 0.3959 0.91228 0.0
H31 H 0.05256 0.37593 0.93662 0.0
H32 H 0.02296 0.4384 0.98375 0.0
H33 H 0.03333 0.44314 0.94791 0.0
H34 H 0.04454 0.43553 0.91844 0.0
H35 H 0.05265 0.41842 0.90552 0.0
Mn36 Mn 0.64056 0.63593 0.01943 0.0
Mn37 Mn 0.64303 0.60491 0.02292 0.0
C38 C 0.62603 0.61768 0.04289 0.0
C39 C 0.64858 0.66023 0.02929 0.0
C40 C 0.62702 0.61084 0.9875 0.0
O41 O 0.65982 0.64157 0.00499 0.0
O42 O 0.66121 0.62093 0.01025 0.0
C43 C 0.6672 0.61473 0.05408 0.0
N44 N 0.6532 0.60503 0.04802 0.0
C45 C 0.64948 0.59021 0.0788 0.0
C46 C 0.66389 0.59999 0.08532 0.0
C47 C 0.67276 0.61233 0.07294 0.0
C48 C 0.64455 0.59315 0.05985 0.0
H49 H 0.67405 0.62421 0.04458 0.0
C50 C 0.66651 0.63418 0.00361 0.0
O51 O 0.64194 0.65508 0.01146 0.0
O52 O 0.65082 0.65136 0.04112 0.0
N53 N 0.62631 0.58854 0.03507 0.0
C54 C 0.61237 0.58079 0.02734 0.0
C55 C 0.60191 0.56844 0.03833 0.0
C56 C 0.60593 0.56409 0.05701 0.0
C57 C 0.62038 0.57216 0.06455 0.0
C58 C 0.63032 0.58437 0.05293 0.0
H59 H 0.60923 0.58406 0.01296 0.0
O60 O 0.62237 0.62728 0.03659 0.0
O61 O 0.63816 0.61911 0.03541 0.0
O62 O 0.62907 0.6232 0.99422 0.0
O63 O 0.63208 0.6034 0.9968 0.0
C64 C 0.62523 0.56873 0.08335 0.0
C65 C 0.63975 0.57778 0.09052 0.0
H66 H 0.6682 0.59821 0.09988 0.0
H67 H 0.68386 0.61997 0.07791 0.0
H68 H 0.59078 0.56229 0.03242 0.0
H69 H 0.59781 0.55461 0.06551 0.0
H70 H 0.6178 0.55931 0.09262 0.0
H71 H 0.64327 0.57519 0.10521 0.0
Mn72 Mn 0.3594 0.0022 0.0143 0.0
Mn73 Mn 0.39161 0.03407 0.01746 0.0
C74 C 0.37703 0.00448 0.03834 0.0
C75 C 0.3349 0.98759 0.02359 0.0
C76 C 0.38446 0.01143 0.98319 0.0
O77 O 0.35507 0.01674 0.99881 0.0
O78 O 0.37653 0.03766 0.00367 0.0
C79 C 0.38289 0.0499 0.04731 0.0
N80 N 0.39197 0.0446 0.04206 0.0
C81 C 0.4062 0.05429 0.07373 0.0
C82 C 0.39706 0.05995 0.07941 0.0
C83 C 0.38533 0.05771 0.06617 0.0
C84 C 0.40326 0.04666 0.05471 0.0
H85 H 0.37384 0.04817 0.0372 0.0
C86 C 0.36327 0.03063 0.99688 0.0
O87 O 0.33991 0.98542 0.00624 0.0
O88 O 0.34405 0.99846 0.03529 0.0
N89 N 0.40722 0.03238 0.03059 0.0
C90 C 0.41456 0.0256 0.02332 0.0
C91 C 0.4264 0.02646 0.03501 0.0
C92 C 0.43065 0.03439 0.05392 0.0
C93 C 0.42306 0.04145 0.06093 0.0
C94 C 0.41142 0.04029 0.04854 0.0
H95 H 0.41136 0.0195 0.00879 0.0
O96 O 0.36679 0.99157 0.03242 0.0
O97 O 0.37653 0.01571 0.03029 0.0
O98 O 0.37185 0.00202 0.98993 0.0
O99 O 0.39251 0.0239 0.99194 0.0
C100 C 0.4264 0.04933 0.07993 0.0
C101 C 0.41795 0.05571 0.08636 0.0
H102 H 0.39887 0.06591 0.09398 0.0
H103 H 0.37819 0.06197 0.0705 0.0
H104 H 0.4322 0.02099 0.02949 0.0
H105 H 0.43969 0.03491 0.063 0.0
H106 H 0.43531 0.05036 0.08988 0.0
H107 H 0.42049 0.06155 0.10115 0.0
Mn108 Mn 1.00071 0.64275 0.00182 0.0
Mn109 Mn 0.0318 0.6408 0.99782 0.0
C110 C 0.00128 0.62543 0.98014 0.0
C111 C 0.98614 0.65269 0.99088 0.0
C112 C 0.01108 0.62815 0.03449 0.0
O113 O 0.01615 0.66223 0.01428 0.0
O114 O 0.03634 0.6602 0.00975 0.0
C115 C 0.04615 0.66355 0.96508 0.0
N116 N 0.04098 0.64947 0.97184 0.0
C117 C 0.04824 0.64284 0.93986 0.0
C118 C 0.05374 0.6573 0.93261 0.0
C119 C 0.05266 0.66769 0.94527 0.0
C120 C 0.04193 0.63938 0.95977 0.0
H121 H 0.04527 0.67155 0.97471 0.0
C122 C 0.02996 0.66731 0.01572 0.0
O123 O 0.98469 0.64693 0.00941 0.0
O124 O 0.9963 0.65305 0.97909 0.0
N125 N 0.02925 0.62276 0.98642 0.0
C126 C 0.02305 0.60918 0.99548 0.0
C127 C 0.02303 0.59747 0.98472 0.0
C128 C 0.0295 0.59987 0.96488 0.0
C129 C 0.03603 0.61399 0.95604 0.0
C130 C 0.03585 0.62526 0.96759 0.0
H131 H 0.01806 0.60726 0.01072 0.0
O132 O 0.98888 0.62371 0.98672 0.0
O133 O 0.01299 0.63737 0.98613 0.0
O134 O 0.0017 0.63174 0.02798 0.0
O135 O 0.02278 0.63125 0.0246 0.0
C136 C 0.0425 0.61726 0.93607 0.0
C137 C 0.04857 0.63167 0.92797 0.0
H138 H 0.05871 0.66051 0.9173 0.0
H139 H 0.05681 0.67885 0.93974 0.0
H140 H 0.01799 0.58661 0.99167 0.0
H141 H 0.02931 0.59077 0.95652 0.0
H142 H 0.04271 0.60874 0.92671 0.0
H143 H 0.05336 0.63401 0.9125 0.0
Mn144 Mn 0.36155 0.36515 0.0207 0.0
Mn145 Mn 0.39305 0.36383 0.02479 0.0
C146 C 0.37942 0.38 0.04463 0.0
C147 C 0.33724 0.35657 0.03001 0.0
C148 C 0.38669 0.3795 0.98949 0.0
O149 O 0.35656 0.34589 0.00597 0.0
O150 O 0.37763 0.34547 0.01143 0.0
C151 C 0.38346 0.3396 0.05562 0.0
N152 N 0.39289 0.35376 0.04998 0.0
C153 C 0.4067 0.35814 0.08212 0.0
C154 C 0.39719 0.34358 0.08821 0.0
C155 C 0.3855 0.33428 0.07492 0.0
C156 C 0.40414 0.36281 0.06268 0.0
H157 H 0.37444 0.33244 0.04547 0.0
C158 C 0.36443 0.33972 0.00445 0.0
O159 O 0.3423 0.36323 0.01228 0.0
O160 O 0.34615 0.35451 0.04199 0.0
N161 N 0.40893 0.38085 0.03759 0.0
C162 C 0.41674 0.39476 0.02977 0.0
C163 C 0.42866 0.40551 0.04136 0.0
C164 C 0.43248 0.40184 0.06077 0.0
C165 C 0.42441 0.38741 0.06835 0.0
C166 C 0.41271 0.37713 0.05604 0.0
H167 H 0.41387 0.39764 0.01486 0.0
O168 O 0.36962 0.38335 0.03832 0.0
O169 O 0.37839 0.36804 0.03688 0.0
O170 O 0.37427 0.3771 0.99607 0.0
O171 O 0.3944 0.37469 0.99865 0.0
C172 C 0.42734 0.38288 0.08782 0.0
C173 C 0.41847 0.36827 0.09472 0.0
H174 H 0.39869 0.33945 0.10313 0.0
H175 H 0.37807 0.32305 0.07956 0.0
H176 H 0.43485 0.41662 0.03539 0.0
H177 H 0.44159 0.4102 0.06976 0.0
H178 H 0.43625 0.39061 0.09775 0.0
H179 H 0.4207 0.36498 0.10985 0.0
Mn180 Mn 0.63502 0.99607 0.0013 0.0
Mn181 Mn 0.60588 0.96225 0.99306 0.0
C182 C 0.61814 0.99267 0.97519 0.0
C183 C 0.65945 0.0136 0.99555 0.0
C184 C 0.60805 0.98199 0.02931 0.0
O185 O 0.64077 0.98251 0.01674 0.0
O186 O 0.62178 0.96044 0.00761 0.0
C187 C 0.61895 0.95064 0.96295 0.0
N188 N 0.60824 0.95385 0.96788 0.0
C189 C 0.59556 0.94378 0.93523 0.0
C190 C 0.60641 0.94028 0.92984 0.0
C191 C 0.61818 0.94377 0.94373 0.0
C192 C 0.59691 0.95061 0.95459 0.0
H193 H 0.62799 0.95328 0.97361 0.0
C194 C 0.63425 0.96846 0.01652 0.0
O195 O 0.65263 0.01394 0.0122 0.0
O196 O 0.65219 0.00289 0.98244 0.0
N197 N 0.58966 0.96222 0.97894 0.0
C198 C 0.58064 0.96718 0.98591 0.0
C199 C 0.5686 0.96505 0.9735 0.0
C200 C 0.56584 0.95766 0.95421 0.0
C201 C 0.57517 0.95249 0.94749 0.0
C202 C 0.58701 0.95495 0.96052 0.0
H203 H 0.58266 0.97279 0.00077 0.0
O204 O 0.62671 0.00569 0.98279 0.0
O205 O 0.61985 0.98203 0.9828 0.0
O206 O 0.62025 0.99305 0.0242 0.0
O207 O 0.60207 0.9699 0.01911 0.0
C208 C 0.57334 0.94523 0.92822 0.0
C209 C 0.58357 0.94094 0.92204 0.0
H210 H 0.60587 0.935 0.91501 0.0
H211 H 0.62663 0.94116 0.93964 0.0
H212 H 0.56145 0.96908 0.97879 0.0
H213 H 0.55658 0.95611 0.94462 0.0
H214 H 0.56425 0.94312 0.91786 0.0
H215 H 0.5822 0.93562 0.907 0.0
Mn216 Mn 0.66604 0.69683 0.33503 0.0
Mn217 Mn 0.69867 0.72794 0.33027 0.0
C218 C 0.66901 0.71393 0.30967 0.0
C219 C 0.65064 0.67207 0.32713 0.0
C220 C 0.67704 0.72297 0.36482 0.0
O221 O 0.68016 0.69224 0.35146 0.0
O222 O 0.7016 0.71251 0.34413 0.0
C223 C 0.71275 0.71742 0.30018 0.0
N224 N 0.70821 0.72715 0.30536 0.0
C225 C 0.71732 0.7404 0.27303 0.0
C226 C 0.72218 0.73057 0.2674 0.0
C227 C 0.71986 0.71901 0.28102 0.0
C228 C 0.71035 0.73829 0.29235 0.0
H229 H 0.71095 0.70849 0.31058 0.0
C230 C 0.69415 0.69967 0.35218 0.0
O231 O 0.6488 0.67797 0.34388 0.0
O232 O 0.66157 0.68048 0.31522 0.0
N233 N 0.69748 0.74377 0.31686 0.0
C234 C 0.69159 0.75193 0.32423 0.0
C235 C 0.69275 0.7638 0.31229 0.0
C236 C 0.70005 0.76723 0.29301 0.0
C237 C 0.70617 0.75878 0.28587 0.0
C238 C 0.70478 0.74717 0.29853 0.0
H239 H 0.686 0.74938 0.33906 0.0
O240 O 0.65598 0.70431 0.31577 0.0
O241 O 0.67985 0.71307 0.3183 0.0
O242 O 0.6668 0.71061 0.35823 0.0
O243 O 0.68956 0.73 0.35614 0.0
C244 C 0.71336 0.76127 0.26651 0.0
C245 C 0.71889 0.75206 0.26006 0.0
H246 H 0.72761 0.73173 0.2526 0.0
H247 H 0.72352 0.71134 0.27674 0.0
H248 H 0.688 0.77026 0.31791 0.0
H249 H 0.70079 0.77629 0.28374 0.0
H250 H 0.71451 0.77011 0.25632 0.0
H251 H 0.72421 0.75395 0.24501 0.0
Mn252 Mn 0.30564 0.97169 0.35409 0.0
Mn253 Mn 0.30459 0.93895 0.35938 0.0
C254 C 0.28981 0.95443 0.37768 0.0
C255 C 0.3151 0.99636 0.3632 0.0
C256 C 0.28996 0.94586 0.32334 0.0
O257 O 0.32476 0.97564 0.34078 0.0
O258 O 0.32287 0.95333 0.34488 0.0
C259 C 0.32952 0.94857 0.38919 0.0
N260 N 0.31516 0.93939 0.38425 0.0
C261 C 0.31128 0.92626 0.4168 0.0
C262 C 0.32606 0.93551 0.42217 0.0
C263 C 0.3352 0.94674 0.40832 0.0
C264 C 0.30625 0.9286 0.3975 0.0
H265 H 0.33658 0.95723 0.37861 0.0
C266 C 0.32967 0.96673 0.33857 0.0
O267 O 0.30874 0.99136 0.34516 0.0
O268 O 0.31632 0.98714 0.37563 0.0
N269 N 0.28769 0.92392 0.37326 0.0
C270 C 0.27354 0.91646 0.36626 0.0
C271 C 0.26292 0.90504 0.37848 0.0
C272 C 0.26695 0.90135 0.3977 0.0
C273 C 0.2816 0.9091 0.4045 0.0
C274 C 0.29173 0.9203 0.39157 0.0
H275 H 0.27036 0.91931 0.35158 0.0
O276 O 0.28721 0.96457 0.37046 0.0
O277 O 0.30156 0.95465 0.37088 0.0
O278 O 0.29407 0.95909 0.32875 0.0
O279 O 0.29312 0.9373 0.33376 0.0
C280 C 0.28649 0.90636 0.42381 0.0
C281 C 0.3013 0.91497 0.42999 0.0
H282 H 0.33047 0.93417 0.43694 0.0
H283 H 0.34659 0.95396 0.41239 0.0
H284 H 0.25162 0.89915 0.37315 0.0
H285 H 0.2587 0.89264 0.40719 0.0
H286 H 0.27889 0.89782 0.43418 0.0
H287 H 0.30488 0.91291 0.44501 0.0
Mn288 Mn 0.02678 0.33416 0.34897 0.0
Mn289 Mn 0.06003 0.36395 0.35763 0.0
C290 C 0.04285 0.33288 0.37289 0.0
C291 C 0.00187 0.32051 0.35661 0.0
C292 C 0.05273 0.34431 0.3193 0.0
O293 O 0.02454 0.3509 0.3362 0.0
O294 O 0.04645 0.37014 0.34519 0.0
C295 C 0.05169 0.37812 0.39073 0.0
N296 N 0.06017 0.37241 0.38419 0.0
C297 C 0.07301 0.37792 0.41733 0.0
C298 C 0.06448 0.38396 0.42437 0.0
C299 C 0.05376 0.38402 0.41102 0.0
C300 C 0.07049 0.37224 0.39692 0.0
H301 H 0.04339 0.37813 0.38056 0.0
C302 C 0.03356 0.3647 0.33711 0.0
O303 O 0.0069 0.31912 0.33875 0.0
O304 O 0.01124 0.33012 0.36965 0.0
N305 N 0.07429 0.35969 0.36985 0.0
C306 C 0.08124 0.35299 0.36093 0.0
C307 C 0.09215 0.35182 0.37235 0.0
C308 C 0.0959 0.35764 0.39272 0.0
C309 C 0.08876 0.36467 0.40145 0.0
C310 C 0.07807 0.36564 0.38925 0.0
H311 H 0.07843 0.34852 0.34527 0.0
O312 O 0.0322 0.32096 0.36489 0.0
O313 O 0.04363 0.34517 0.36695 0.0
O314 O 0.03962 0.33501 0.32442 0.0
O315 O 0.06104 0.35569 0.33025 0.0
C316 C 0.09164 0.37051 0.42192 0.0
C317 C 0.08374 0.37709 0.42988 0.0
H318 H 0.066 0.38846 0.44005 0.0
H319 H 0.04708 0.38859 0.41639 0.0
H320 H 0.09763 0.3464 0.36549 0.0
H321 H 0.10421 0.35657 0.40157 0.0
H322 H 0.09976 0.36982 0.43179 0.0
H323 H 0.08591 0.38137 0.44574 0.0
Mn324 Mn 0.67015 0.97622 0.33646 0.0
Mn325 Mn 0.70249 0.97652 0.33329 0.0
C326 C 0.67276 0.96086 0.31307 0.0
C327 C 0.65418 0.98487 0.32724 0.0
C328 C 0.68085 0.96129 0.36817 0.0
O329 O 0.68436 0.99547 0.35087 0.0
O330 O 0.70539 0.99486 0.34697 0.0
C331 C 0.71707 0.00115 0.30322 0.0
N332 N 0.71246 0.9869 0.30859 0.0
C333 C 0.72237 0.9829 0.27702 0.0
C334 C 0.7273 0.99756 0.27122 0.0
C335 C 0.7246 0.00671 0.28435 0.0
C336 C 0.71494 0.97798 0.29602 0.0
H337 H 0.715 0.0082 0.31326 0.0
C338 C 0.69821 0.00112 0.35316 0.0
O339 O 0.65305 0.97818 0.34489 0.0
O340 O 0.66489 0.98694 0.31508 0.0
N341 N 0.70153 0.95959 0.32027 0.0
C342 C 0.69551 0.94556 0.32771 0.0
C343 C 0.69699 0.93494 0.31622 0.0
C344 C 0.70477 0.93888 0.29733 0.0
C345 C 0.71104 0.95343 0.29013 0.0
C346 C 0.70929 0.96356 0.30233 0.0
H347 H 0.68953 0.94247 0.34223 0.0
O348 O 0.65985 0.95786 0.31933 0.0
O349 O 0.68379 0.97283 0.32049 0.0
O350 O 0.67131 0.96456 0.36152 0.0
O351 O 0.69297 0.96526 0.35893 0.0
C352 C 0.71873 0.95821 0.27115 0.0
C353 C 0.72434 0.97292 0.26455 0.0
H354 H 0.73308 0.00189 0.25664 0.0
H355 H 0.72832 0.01802 0.27993 0.0
H356 H 0.69211 0.92374 0.32188 0.0
H357 H 0.70577 0.93063 0.2884 0.0
H358 H 0.7202 0.95061 0.26134 0.0
H359 H 0.73004 0.97641 0.24977 0.0
Mn360 Mn 0.02917 0.70076 0.35283 0.0
Mn361 Mn 0.06013 0.69867 0.35896 0.0
C362 C 0.047 0.71594 0.37661 0.0
C363 C 0.00492 0.69295 0.3618 0.0
C364 C 0.05456 0.71373 0.32191 0.0
O365 O 0.02383 0.68105 0.33934 0.0
O366 O 0.04443 0.68004 0.34647 0.0
C367 C 0.04988 0.67532 0.3913 0.0
N368 N 0.05958 0.68923 0.38497 0.0
C369 C 0.07317 0.69426 0.41742 0.0
C370 C 0.06339 0.67995 0.42423 0.0
C371 C 0.05168 0.67045 0.41112 0.0
C372 C 0.07087 0.69847 0.39747 0.0
H373 H 0.04084 0.668 0.38131 0.0
C374 C 0.03132 0.67441 0.33917 0.0
O375 O 0.0101 0.69911 0.34381 0.0
O376 O 0.01368 0.69092 0.37417 0.0
N377 N 0.07615 0.71587 0.37118 0.0
C378 C 0.08416 0.72955 0.36272 0.0
C379 C 0.09607 0.74049 0.37409 0.0
C380 C 0.09968 0.73724 0.39395 0.0
C381 C 0.09138 0.72304 0.40223 0.0
C382 C 0.0797 0.71255 0.39012 0.0
H383 H 0.08145 0.73212 0.34746 0.0
O384 O 0.03751 0.71945 0.36942 0.0
O385 O 0.04571 0.70366 0.36974 0.0
O386 O 0.04215 0.71175 0.3279 0.0
O387 O 0.06193 0.70892 0.33205 0.0
C388 C 0.09406 0.71896 0.4222 0.0
C389 C 0.08495 0.70459 0.42981 0.0
H390 H 0.06469 0.67618 0.43955 0.0
H391 H 0.04404 0.65942 0.41631 0.0
H392 H 0.10242 0.75143 0.36759 0.0
H393 H 0.10878 0.74575 0.40276 0.0
H394 H 0.10296 0.72687 0.43198 0.0
H395 H 0.08699 0.70166 0.44531 0.0
Mn396 Mn 0.30639 0.33502 0.33448 0.0
Mn397 Mn 0.27469 0.30282 0.32976 0.0
C398 C 0.28889 0.33277 0.31015 0.0
C399 C 0.33088 0.3501 0.32558 0.0
C400 C 0.28116 0.3245 0.36533 0.0
O401 O 0.31077 0.3204 0.34973 0.0
O402 O 0.29 0.29919 0.34258 0.0
C403 C 0.28388 0.28837 0.2982 0.0
N404 N 0.27453 0.29314 0.30433 0.0
C405 C 0.26021 0.28403 0.27261 0.0
C406 C 0.26959 0.27888 0.26606 0.0
C407 C 0.28151 0.28111 0.27888 0.0
C408 C 0.26309 0.29115 0.29205 0.0
H409 H 0.2931 0.29015 0.30794 0.0
C410 C 0.303 0.30639 0.35027 0.0
O411 O 0.32576 0.35186 0.34311 0.0
O412 O 0.3219 0.33934 0.3136 0.0
N413 N 0.25891 0.30459 0.31736 0.0
C414 C 0.25142 0.311 0.32539 0.0
C415 C 0.23944 0.31017 0.31416 0.0
C416 C 0.23519 0.30267 0.29491 0.0
C417 C 0.24296 0.29602 0.28708 0.0
C418 C 0.25475 0.29712 0.29903 0.0
H419 H 0.25459 0.31674 0.3402 0.0
O420 O 0.29886 0.34569 0.31652 0.0
O421 O 0.28959 0.32162 0.31797 0.0
O422 O 0.29357 0.33446 0.35874 0.0
O423 O 0.27356 0.31211 0.35614 0.0
C424 C 0.23965 0.28861 0.26768 0.0
C425 C 0.2483 0.28266 0.26042 0.0
H426 H 0.26785 0.27334 0.25112 0.0
H427 H 0.28886 0.27726 0.27385 0.0
H428 H 0.2335 0.31534 0.32031 0.0
H429 H 0.22603 0.30218 0.2862 0.0
H430 H 0.23064 0.28764 0.25805 0.0
H431 H 0.2458 0.27722 0.24531 0.0
Mn432 Mn 0.33249 0.03144 0.67032 0.0
Mn433 Mn 0.36465 0.06306 0.66519 0.0
C434 C 0.33484 0.04853 0.6453 0.0
C435 C 0.31717 0.00666 0.66227 0.0
C436 C 0.34323 0.05765 0.70022 0.0
O437 O 0.347 0.02704 0.68584 0.0
O438 O 0.36805 0.04802 0.67949 0.0
C439 C 0.37902 0.05262 0.63545 0.0
N440 N 0.37421 0.06219 0.64034 0.0
C441 C 0.38299 0.07511 0.60769 0.0
C442 C 0.38811 0.06544 0.60235 0.0
C443 C 0.38608 0.05413 0.61627 0.0
C444 C 0.37605 0.07308 0.62703 0.0
H445 H 0.37745 0.04389 0.64607 0.0
C446 C 0.36094 0.03496 0.68702 0.0
O447 O 0.3156 0.01238 0.67941 0.0
O448 O 0.32782 0.01526 0.65008 0.0
N449 N 0.36305 0.07854 0.65135 0.0
C450 C 0.35696 0.08657 0.65848 0.0
C451 C 0.3578 0.09817 0.64621 0.0
C452 C 0.36498 0.10146 0.62685 0.0
C453 C 0.37134 0.09318 0.61997 0.0
C454 C 0.37025 0.08182 0.63294 0.0
H455 H 0.35145 0.08412 0.67337 0.0
O456 O 0.32196 0.03883 0.65182 0.0
O457 O 0.34589 0.04784 0.65348 0.0
O458 O 0.33343 0.04491 0.69413 0.0
O459 O 0.35544 0.0652 0.69089 0.0
C460 C 0.37849 0.09558 0.60059 0.0
C461 C 0.38427 0.08652 0.59443 0.0
H462 H 0.39351 0.06653 0.58755 0.0
H463 H 0.38994 0.04658 0.61222 0.0
H464 H 0.35287 0.10452 0.65164 0.0
H465 H 0.36547 0.11032 0.61733 0.0
H466 H 0.37941 0.10422 0.59017 0.0
H467 H 0.38957 0.08835 0.57937 0.0
Mn468 Mn 0.97372 0.30362 0.68728 0.0
Mn469 Mn 0.97333 0.27149 0.69606 0.0
C470 C 0.95804 0.28726 0.71198 0.0
C471 C 0.98367 0.32869 0.69423 0.0
C472 C 0.95909 0.27711 0.65793 0.0
O473 O 0.99269 0.30693 0.67388 0.0
O474 O 0.99231 0.28594 0.68344 0.0
C475 C 0.99648 0.28129 0.72883 0.0
N476 N 0.98245 0.27205 0.72241 0.0
C477 C 0.97682 0.25881 0.75507 0.0
C478 C 0.99124 0.26813 0.76199 0.0
C479 C 0.00109 0.27944 0.74883 0.0
C480 C 0.97286 0.26117 0.73497 0.0
H481 H 0.00408 0.29 0.71876 0.0
C482 C 0.99855 0.29873 0.67498 0.0
O483 O 0.97678 0.32297 0.67673 0.0
O484 O 0.98495 0.31989 0.70745 0.0
N485 N 0.95569 0.25649 0.70842 0.0
C486 C 0.94196 0.24901 0.69987 0.0
C487 C 0.93067 0.23761 0.71129 0.0
C488 C 0.93363 0.23391 0.73128 0.0
C489 C 0.94788 0.24163 0.73964 0.0
C490 C 0.95871 0.25285 0.72749 0.0
H491 H 0.93962 0.25177 0.68449 0.0
O492 O 0.95551 0.29726 0.704 0.0
O493 O 0.96974 0.28726 0.70551 0.0
O494 O 0.96172 0.28998 0.66308 0.0
O495 O 0.96338 0.2696 0.66882 0.0
C496 C 0.9517 0.23885 0.75975 0.0
C497 C 0.96614 0.24746 0.76748 0.0
H498 H 0.99482 0.26678 0.77744 0.0
H499 H 0.01222 0.28672 0.7541 0.0
H500 H 0.9197 0.2317 0.70472 0.0
H501 H 0.92487 0.22519 0.74012 0.0
H502 H 0.94355 0.23028 0.76953 0.0
H503 H 0.96888 0.24538 0.78309 0.0
Mn504 Mn 0.69469 0.6697 0.68035 0.0
Mn505 Mn 0.72723 0.70122 0.6834 0.0
C506 C 0.71193 0.67204 0.70515 0.0
C507 C 0.67003 0.65564 0.68922 0.0
C508 C 0.71992 0.67808 0.64985 0.0
O509 O 0.69092 0.68433 0.66396 0.0
O510 O 0.71255 0.70506 0.66892 0.0
C511 C 0.71879 0.71782 0.71227 0.0
N512 N 0.72765 0.71216 0.70758 0.0
C513 C 0.74173 0.722 0.73933 0.0
C514 C 0.73281 0.72802 0.74444 0.0
C515 C 0.72126 0.72589 0.73087 0.0
C516 C 0.73875 0.71409 0.72056 0.0
H517 H 0.70989 0.71618 0.7019 0.0
C518 C 0.69936 0.69817 0.66184 0.0
O519 O 0.67512 0.65307 0.67226 0.0
O520 O 0.67921 0.66659 0.70079 0.0
N521 N 0.74247 0.69924 0.6972 0.0
C522 C 0.74961 0.69211 0.69048 0.0
C523 C 0.76125 0.69285 0.70254 0.0
C524 C 0.76552 0.70101 0.72126 0.0
C525 C 0.75815 0.70841 0.7277 0.0
C526 C 0.74669 0.70736 0.71497 0.0
H527 H 0.74641 0.68585 0.67608 0.0
O528 O 0.70162 0.65909 0.69946 0.0
O529 O 0.71175 0.68321 0.69637 0.0
O530 O 0.70723 0.66889 0.65657 0.0
O531 O 0.72806 0.69062 0.65833 0.0
C532 C 0.76152 0.71656 0.74647 0.0
C533 C 0.75329 0.72331 0.75231 0.0
H534 H 0.73464 0.7342 0.75881 0.0
H535 H 0.71429 0.73044 0.73476 0.0
H536 H 0.7669 0.68711 0.69745 0.0
H537 H 0.77441 0.70143 0.73062 0.0
H538 H 0.77027 0.7175 0.75669 0.0
H539 H 0.75585 0.72936 0.76693 0.0
Mn540 Mn 0.33843 0.31216 0.66687 0.0
Mn541 Mn 0.37045 0.31166 0.6666 0.0
C542 C 0.34205 0.29803 0.64245 0.0
C543 C 0.32385 0.32234 0.65715 0.0
C544 C 0.34649 0.2949 0.6982 0.0
O545 O 0.35204 0.33019 0.68425 0.0
O546 O 0.37313 0.32956 0.68136 0.0
C547 C 0.38745 0.33748 0.6393 0.0
N548 N 0.38211 0.32294 0.64353 0.0
C549 C 0.39383 0.31997 0.61319 0.0
C550 C 0.39954 0.33494 0.60857 0.0
C551 C 0.3963 0.34372 0.62166 0.0
C552 C 0.38511 0.31438 0.63101 0.0
H553 H 0.38498 0.34426 0.64932 0.0
C554 C 0.36577 0.33559 0.68766 0.0
O555 O 0.32117 0.31429 0.67383 0.0
O556 O 0.33522 0.32477 0.64625 0.0
N557 N 0.36964 0.29507 0.65273 0.0
C558 C 0.36258 0.28066 0.65868 0.0
C559 C 0.36431 0.27032 0.64686 0.0
C560 C 0.3734 0.27491 0.62923 0.0
C561 C 0.38071 0.28982 0.62358 0.0
C562 C 0.37862 0.29963 0.636 0.0
H563 H 0.35561 0.27708 0.67226 0.0
O564 O 0.32889 0.29512 0.64718 0.0
O565 O 0.35276 0.30926 0.65192 0.0
O566 O 0.3374 0.29854 0.69072 0.0
O567 O 0.35923 0.29946 0.69065 0.0
C568 C 0.38972 0.29527 0.60583 0.0
C569 C 0.39624 0.31032 0.6006 0.0
H570 H 0.40633 0.33979 0.59494 0.0
H571 H 0.40061 0.35527 0.61814 0.0
H572 H 0.35862 0.25883 0.65132 0.0
H573 H 0.3746 0.26687 0.62004 0.0
H574 H 0.3915 0.28793 0.59589 0.0
H575 H 0.40295 0.31434 0.58673 0.0
Mn576 Mn 0.69462 0.03511 0.68587 0.0
Mn577 Mn 0.72679 0.03539 0.69216 0.0
C578 C 0.71215 0.05158 0.70883 0.0
C579 C 0.67024 0.02617 0.6952 0.0
C580 C 0.71986 0.04903 0.65468 0.0
O581 O 0.69033 0.01549 0.67332 0.0
O582 O 0.71187 0.01625 0.67975 0.0
C583 C 0.7178 0.0123 0.72472 0.0
N584 N 0.72685 0.02636 0.71828 0.0
C585 C 0.74048 0.0323 0.75078 0.0
C586 C 0.73136 0.01786 0.75771 0.0
C587 C 0.71996 0.00782 0.74463 0.0
C588 C 0.73786 0.0361 0.73073 0.0
H589 H 0.70899 0.00457 0.71475 0.0
C590 C 0.69861 0.00974 0.67285 0.0
O591 O 0.67498 0.03203 0.67691 0.0
O592 O 0.67952 0.02505 0.70763 0.0
N593 N 0.74216 0.05312 0.70422 0.0
C594 C 0.74944 0.06685 0.69567 0.0
C595 C 0.7609 0.0783 0.70704 0.0
C596 C 0.76482 0.07551 0.72699 0.0
C597 C 0.75728 0.06126 0.73535 0.0
C598 C 0.74603 0.05026 0.72323 0.0
H599 H 0.74646 0.06907 0.68037 0.0
O600 O 0.702 0.05404 0.70134 0.0
O601 O 0.71166 0.03946 0.70282 0.0
O602 O 0.70708 0.04608 0.66046 0.0
O603 O 0.72794 0.04527 0.66516 0.0
C604 C 0.76028 0.05762 0.75543 0.0
C605 C 0.75187 0.04315 0.76315 0.0
H606 H 0.73293 0.01438 0.7731 0.0
H607 H 0.71283 0.99668 0.74991 0.0
H608 H 0.76665 0.08928 0.70048 0.0
H609 H 0.77356 0.08441 0.7358 0.0
H610 H 0.76887 0.06591 0.7652 0.0
H611 H 0.75414 0.04054 0.77873 0.0
Mn612 Mn 0.97107 0.6703 0.66803 0.0
Mn613 Mn 0.9379 0.63972 0.66327 0.0
C614 C 0.95466 0.66894 0.64223 0.0
C615 C 0.99599 0.68386 0.6604 0.0
C616 C 0.94561 0.66238 0.69774 0.0
O617 O 0.97371 0.65482 0.68444 0.0
O618 O 0.95187 0.63481 0.67735 0.0
C619 C 0.94519 0.62247 0.63389 0.0
N620 N 0.93695 0.62881 0.6388 0.0
C621 C 0.92218 0.61909 0.60758 0.0
C622 C 0.93046 0.61239 0.60224 0.0
C623 C 0.94205 0.61415 0.61541 0.0
C624 C 0.92584 0.62728 0.62617 0.0
H625 H 0.95407 0.62375 0.64402 0.0
C626 C 0.96486 0.64095 0.68519 0.0
O627 O 0.99066 0.68636 0.67715 0.0
O628 O 0.9869 0.67319 0.64833 0.0
N629 N 0.92336 0.64291 0.64958 0.0
C630 C 0.91712 0.65091 0.65626 0.0
C631 C 0.90574 0.65086 0.64436 0.0
C632 C 0.90078 0.64246 0.6259 0.0
C633 C 0.90728 0.63421 0.61946 0.0
C634 C 0.91861 0.63471 0.63192 0.0
H635 H 0.92082 0.65731 0.67051 0.0
O636 O 0.96511 0.68163 0.64856 0.0
O637 O 0.95416 0.65748 0.65109 0.0
O638 O 0.95841 0.67144 0.69133 0.0
O639 O 0.93734 0.65006 0.68881 0.0
C640 C 0.90312 0.62568 0.60101 0.0
C641 C 0.91059 0.61815 0.59505 0.0
H642 H 0.92808 0.60598 0.588 0.0
H643 H 0.94853 0.60907 0.61135 0.0
H644 H 0.90078 0.65727 0.64943 0.0
H645 H 0.89204 0.6425 0.61672 0.0
H646 H 0.89437 0.62504 0.59109 0.0
H647 H 0.90746 0.61185 0.58063 0.0
H648 H 0.22244 0.3404 0.14638 0.0
N649 N 0.20322 0.31473 0.12633 0.0
H650 H 0.2353 0.34268 0.17928 0.0
H651 H 0.19973 0.29313 0.15212 0.0
H652 H 0.2127 0.29536 0.18541 0.0
H653 H 0.21068 0.2983 0.10368 0.0
H654 H 0.23172 0.30698 0.08029 0.0
H655 H 0.2189 0.34273 0.11085 0.0
H656 H 0.24049 0.35161 0.08832 0.0
H657 H 0.19778 0.33498 0.14635 0.0
H658 H 0.17987 0.29905 0.10214 0.0
H659 H 0.17476 0.33493 0.14676 0.0
H660 H 0.15695 0.29975 0.101 0.0
H661 H 0.11328 0.33981 0.1478 0.0
H662 H 0.10526 0.34516 0.18078 0.0
H663 H 0.08627 0.29944 0.19864 0.0
H664 H 0.09419 0.29417 0.16534 0.0
H665 H 0.07896 0.29805 0.1225 0.0
H666 H 0.06598 0.30624 0.09884 0.0
H667 H 0.10721 0.34433 0.08255 0.0
H668 H 0.11987 0.33653 0.107 0.0
H669 H 0.13383 0.33771 0.13688 0.0
H670 H 0.15764 0.33965 0.13165 0.0
H671 H 0.13637 0.29268 0.12065 0.0
N672 N 0.10698 0.3126 0.13369 0.0
H673 H 0.11256 0.2912 0.12423 0.0
C674 C 0.20998 0.31652 0.14677 0.0
C675 C 0.22004 0.33048 0.15481 0.0
C676 C 0.22737 0.3318 0.17376 0.0
C677 C 0.225 0.3192 0.18493 0.0
C678 C 0.2148 0.30525 0.17706 0.0
C679 C 0.20733 0.30396 0.15817 0.0
C680 C 0.21341 0.31986 0.10925 0.0
C681 C 0.21683 0.30988 0.09976 0.0
C682 C 0.22883 0.31485 0.08645 0.0
C683 C 0.23777 0.32996 0.08273 0.0
C684 C 0.23379 0.33991 0.09111 0.0
C685 C 0.22152 0.33486 0.10402 0.0
C686 C 0.19054 0.31671 0.12454 0.0
C687 C 0.18903 0.3272 0.13639 0.0
C688 C 0.17573 0.32728 0.13642 0.0
C689 C 0.16373 0.31717 0.12415 0.0
C690 C 0.16568 0.30739 0.11121 0.0
C691 C 0.17887 0.30709 0.11159 0.0
C692 C 0.10432 0.31654 0.15416 0.0
C693 C 0.10768 0.331 0.15899 0.0
C694 C 0.10307 0.33404 0.17789 0.0
C695 C 0.095 0.3227 0.19228 0.0
C696 C 0.09224 0.30838 0.18775 0.0
C697 C 0.09687 0.30537 0.16887 0.0
C698 C 0.10037 0.31656 0.11669 0.0
C699 C 0.08519 0.30803 0.11351 0.0
C700 C 0.0778 0.31273 0.09989 0.0
C701 C 0.08549 0.32607 0.08887 0.0
C702 C 0.10085 0.33419 0.09114 0.0
C703 C 0.10819 0.3296 0.10505 0.0
C704 C 0.12134 0.31428 0.13058 0.0
C705 C 0.13426 0.32788 0.13294 0.0
C706 C 0.14797 0.32893 0.13019 0.0
C707 C 0.14911 0.31634 0.12568 0.0
C708 C 0.13608 0.30274 0.12354 0.0
C709 C 0.1224 0.30179 0.12579 0.0
H710 H 0.71133 0.79103 0.14153 0.0
N711 N 0.69246 0.79739 0.1226 0.0
H712 H 0.70833 0.77841 0.17506 0.0
H713 H 0.67037 0.79041 0.15059 0.0
H714 H 0.66692 0.77725 0.18359 0.0
H715 H 0.66348 0.77624 0.11879 0.0
H716 H 0.65405 0.75407 0.09746 0.0
H717 H 0.706 0.79295 0.09086 0.0
H718 H 0.6965 0.77073 0.06915 0.0
H719 H 0.71483 0.82419 0.12753 0.0
H720 H 0.6684 0.80079 0.11462 0.0
H721 H 0.71446 0.84733 0.1288 0.0
H722 H 0.66795 0.82395 0.11509 0.0
H723 H 0.71394 0.90954 0.16148 0.0
H724 H 0.71094 0.91941 0.19472 0.0
H725 H 0.66394 0.89485 0.18631 0.0
H726 H 0.66701 0.88512 0.15331 0.0
H727 H 0.66578 0.88083 0.11608 0.0
H728 H 0.65675 0.89337 0.09288 0.0
H729 H 0.70017 0.93143 0.09166 0.0
H730 H 0.70889 0.91894 0.11557 0.0
H731 H 0.71267 0.88843 0.11473 0.0
H732 H 0.71192 0.86498 0.10871 0.0
H733 H 0.66991 0.84225 0.13929 0.0
N734 N 0.69311 0.89308 0.13398 0.0
H735 H 0.67046 0.86563 0.14427 0.0
C736 C 0.69109 0.79157 0.14351 0.0
C737 C 0.70176 0.78827 0.15089 0.0
C738 C 0.69993 0.78093 0.16993 0.0
C739 C 0.68727 0.7766 0.1819 0.0
C740 C 0.67686 0.78049 0.17488 0.0
C741 C 0.67877 0.78795 0.1559 0.0
C742 C 0.68557 0.78629 0.10655 0.0
C743 C 0.6707 0.77542 0.1076 0.0
C744 C 0.66531 0.76266 0.09545 0.0
C745 C 0.6746 0.7606 0.08187 0.0
C746 C 0.68908 0.77205 0.07943 0.0
C747 C 0.69451 0.78475 0.09177 0.0
C748 C 0.69175 0.81079 0.12084 0.0
C749 C 0.70461 0.82412 0.12452 0.0
C750 C 0.70436 0.83734 0.12515 0.0
C751 C 0.69117 0.83757 0.12197 0.0
C752 C 0.67827 0.82418 0.11784 0.0
C753 C 0.67853 0.8109 0.11736 0.0
C754 C 0.69078 0.89653 0.15495 0.0
C755 C 0.70301 0.90603 0.16712 0.0
C756 C 0.70127 0.91174 0.18596 0.0
C757 C 0.6872 0.90798 0.19304 0.0
C758 C 0.67491 0.89783 0.18139 0.0
C759 C 0.67667 0.89223 0.16247 0.0
C760 C 0.68801 0.89905 0.11763 0.0
C761 C 0.67337 0.89179 0.11061 0.0
C762 C 0.66825 0.89898 0.09724 0.0
C763 C 0.67769 0.9135 0.09059 0.0
C764 C 0.69252 0.92038 0.09682 0.0
C765 C 0.69758 0.91322 0.11026 0.0
C766 C 0.69182 0.87888 0.13025 0.0
C767 C 0.70327 0.87835 0.11999 0.0
C768 C 0.70285 0.86494 0.11669 0.0
C769 C 0.69094 0.85169 0.12377 0.0
C770 C 0.67921 0.85219 0.13349 0.0
C771 C 0.67959 0.86564 0.13659 0.0
H772 H 0.11486 0.77372 0.14769 0.0
N773 N 0.11292 0.79773 0.13461 0.0
H774 H 0.10587 0.76045 0.18062 0.0
H775 H 0.10178 0.80507 0.1666 0.0
H776 H 0.09285 0.79193 0.19988 0.0
H777 H 0.08507 0.78618 0.1229 0.0
H778 H 0.07141 0.76591 0.09852 0.0
H779 H 0.125 0.7863 0.10682 0.0
H780 H 0.11165 0.76671 0.08189 0.0
H781 H 0.13744 0.79478 0.1392 0.0
H782 H 0.1228 0.8261 0.12701 0.0
H783 H 0.16272 0.81415 0.13689 0.0
H784 H 0.14824 0.84599 0.12641 0.0
H785 H 0.24431 0.88494 0.14954 0.0
H786 H 0.25491 0.89833 0.18238 0.0
H787 H 0.21544 0.90038 0.19334 0.0
H788 H 0.20509 0.88752 0.15995 0.0
H789 H 0.21698 0.90267 0.12365 0.0
H790 H 0.23227 0.92168 0.09837 0.0
H791 H 0.24969 0.89417 0.07721 0.0
H792 H 0.23424 0.87524 0.10235 0.0
H793 H 0.20647 0.85272 0.15374 0.0
H794 H 0.18094 0.83352 0.15447 0.0
H795 H 0.17024 0.85786 0.1091 0.0
N796 N 0.21842 0.87779 0.13252 0.0
H797 H 0.19556 0.87752 0.10986 0.0
C798 C 0.10901 0.79045 0.15472 0.0
C799 C 0.11032 0.77793 0.15912 0.0
C800 C 0.10516 0.77034 0.178 0.0
C801 C 0.09857 0.77508 0.19286 0.0
C802 C 0.09767 0.78786 0.18864 0.0
C803 C 0.10286 0.79545 0.16976 0.0
C804 C 0.10606 0.78784 0.11705 0.0
C805 C 0.09097 0.78214 0.11369 0.0
C806 C 0.08318 0.77055 0.09966 0.0
C807 C 0.09036 0.76446 0.08838 0.0
C808 C 0.10565 0.77082 0.09072 0.0
C809 C 0.1134 0.78226 0.10499 0.0
C810 C 0.12813 0.80893 0.13287 0.0
C811 C 0.13965 0.80586 0.13603 0.0
C812 C 0.15422 0.8171 0.13501 0.0
C813 C 0.15773 0.83182 0.1316 0.0
C814 C 0.14612 0.83484 0.12863 0.0
C815 C 0.13153 0.82349 0.12911 0.0
C816 C 0.22388 0.88504 0.15247 0.0
C817 C 0.23795 0.88826 0.15904 0.0
C818 C 0.244 0.89595 0.17766 0.0
C819 C 0.23594 0.90033 0.19023 0.0
C820 C 0.22179 0.89704 0.18384 0.0
C821 C 0.21587 0.88965 0.16489 0.0
C822 C 0.22456 0.88756 0.11487 0.0
C823 C 0.22379 0.9006 0.11313 0.0
C824 C 0.23262 0.91149 0.0988 0.0
C825 C 0.24235 0.90953 0.08594 0.0
C826 C 0.24225 0.89601 0.0867 0.0
C827 C 0.23344 0.88516 0.10105 0.0
C828 C 0.2031 0.86659 0.13179 0.0
C829 C 0.19858 0.85392 0.14403 0.0
C830 C 0.18393 0.84284 0.14421 0.0
C831 C 0.17336 0.84391 0.13164 0.0
C832 C 0.17792 0.85664 0.11925 0.0
C833 C 0.19257 0.86793 0.1195 0.0
H834 H 0.33608 0.22964 0.87199 0.0
N835 N 0.30905 0.20822 0.88489 0.0
H836 H 0.34185 0.24263 0.83862 0.0
H837 H 0.291 0.20311 0.85233 0.0
H838 H 0.29677 0.21594 0.81845 0.0
H839 H 0.29425 0.22108 0.89808 0.0
H840 H 0.30263 0.2417 0.92232 0.0
H841 H 0.33369 0.21895 0.90983 0.0
H842 H 0.34193 0.23914 0.93497 0.0
H843 H 0.33076 0.2034 0.86886 0.0
H844 H 0.29247 0.18458 0.90795 0.0
H845 H 0.33165 0.18079 0.87058 0.0
H846 H 0.29406 0.16212 0.91141 0.0
H847 H 0.3385 0.12105 0.86985 0.0
H848 H 0.34437 0.11353 0.83681 0.0
H849 H 0.29878 0.09313 0.81798 0.0
H850 H 0.29299 0.10044 0.85139 0.0
H851 H 0.29603 0.08545 0.89446 0.0
H852 H 0.30413 0.07194 0.91724 0.0
H853 H 0.34304 0.11275 0.93349 0.0
H854 H 0.33521 0.12597 0.91002 0.0
H855 H 0.33558 0.14091 0.88313 0.0
H856 H 0.33628 0.16434 0.88755 0.0
H857 H 0.28904 0.14137 0.89319 0.0
N858 N 0.31105 0.1135 0.88355 0.0
H859 H 0.28875 0.11797 0.89072 0.0
C860 C 0.31303 0.21539 0.86469 0.0
C861 C 0.32742 0.22652 0.86041 0.0
C862 C 0.33075 0.23388 0.84121 0.0
C863 C 0.31977 0.23032 0.82586 0.0
C864 C 0.30544 0.21904 0.83004 0.0
C865 C 0.30213 0.21164 0.84928 0.0
C866 C 0.31326 0.21844 0.90216 0.0
C867 C 0.30452 0.2248 0.90644 0.0
C868 C 0.30935 0.23659 0.92039 0.0
C869 C 0.32305 0.24224 0.93058 0.0
C870 C 0.33146 0.2353 0.92712 0.0
C871 C 0.32668 0.22359 0.91295 0.0
C872 C 0.31122 0.19565 0.88784 0.0
C873 C 0.32261 0.19451 0.87812 0.0
C874 C 0.32324 0.18147 0.87938 0.0
C875 C 0.31281 0.16935 0.89093 0.0
C876 C 0.30203 0.17093 0.90178 0.0
C877 C 0.30118 0.18385 0.90005 0.0
C878 C 0.31524 0.11123 0.86307 0.0
C879 C 0.32982 0.11521 0.85845 0.0
C880 C 0.33316 0.11091 0.8395 0.0
C881 C 0.32201 0.10257 0.82482 0.0
C882 C 0.30758 0.09929 0.8291 0.0
C883 C 0.30426 0.10357 0.84805 0.0
C884 C 0.3149 0.1067 0.90041 0.0
C885 C 0.30615 0.09149 0.90333 0.0
C886 C 0.31081 0.0838 0.91642 0.0
C887 C 0.32436 0.0912 0.92709 0.0
C888 C 0.33271 0.10661 0.92516 0.0
C889 C 0.32811 0.11427 0.91183 0.0
C890 C 0.31208 0.1276 0.88708 0.0
C891 C 0.32543 0.14088 0.88598 0.0
C892 C 0.32576 0.15438 0.88813 0.0
C893 C 0.31271 0.15495 0.89068 0.0
C894 C 0.2994 0.14156 0.8918 0.0
C895 C 0.29915 0.12809 0.8902 0.0
H896 H 0.75959 0.12974 0.87366 0.0
N897 N 0.78024 0.12843 0.89663 0.0
H898 H 0.75028 0.11879 0.83899 0.0
H899 H 0.79155 0.11519 0.87161 0.0
H900 H 0.78231 0.10424 0.83726 0.0
H901 H 0.77559 0.10018 0.89993 0.0
H902 H 0.7581 0.08123 0.92268 0.0
H903 H 0.76808 0.13255 0.93039 0.0
H904 H 0.75163 0.11393 0.95501 0.0
H905 H 0.79051 0.15716 0.89893 0.0
H906 H 0.80377 0.12424 0.90319 0.0
H907 H 0.81602 0.17656 0.90184 0.0
H908 H 0.82948 0.14347 0.90414 0.0
H909 H 0.88384 0.22885 0.87689 0.0
H910 H 0.89415 0.24093 0.84368 0.0
H911 H 0.90992 0.21042 0.83264 0.0
H912 H 0.89918 0.19801 0.86595 0.0
H913 H 0.91058 0.21055 0.91286 0.0
H914 H 0.9262 0.23075 0.93651 0.0
H915 H 0.89374 0.24483 0.93667 0.0
H916 H 0.87797 0.22422 0.91361 0.0
H917 H 0.86173 0.2069 0.87866 0.0
H918 H 0.83646 0.18804 0.88155 0.0
H919 H 0.84936 0.16249 0.92115 0.0
N920 N 0.88589 0.20581 0.89438 0.0
H921 H 0.87505 0.18119 0.91675 0.0
C922 C 0.7762 0.12329 0.87532 0.0
C923 C 0.76473 0.1244 0.8656 0.0
C924 C 0.75948 0.11819 0.84582 0.0
C925 C 0.76553 0.11059 0.83551 0.0
C926 C 0.77735 0.10991 0.84495 0.0
C927 C 0.7827 0.11627 0.86459 0.0
C928 C 0.77275 0.11776 0.91293 0.0
C929 C 0.77043 0.10332 0.91186 0.0
C930 C 0.76045 0.09242 0.92524 0.0
C931 C 0.75295 0.09579 0.94054 0.0
C932 C 0.75658 0.11063 0.94292 0.0
C933 C 0.7662 0.12141 0.92908 0.0
C934 C 0.7953 0.13934 0.90035 0.0
C935 C 0.79902 0.15417 0.9004 0.0
C936 C 0.81365 0.16523 0.9018 0.0
C937 C 0.825 0.16171 0.90268 0.0
C938 C 0.82115 0.14672 0.90355 0.0
C939 C 0.80643 0.13565 0.90267 0.0
C940 C 0.89052 0.21228 0.87383 0.0
C941 C 0.88916 0.22445 0.86719 0.0
C942 C 0.89508 0.2314 0.84816 0.0
C943 C 0.90279 0.22659 0.83559 0.0
C944 C 0.90403 0.21435 0.84207 0.0
C945 C 0.89785 0.20722 0.86097 0.0
C946 C 0.89325 0.21598 0.91132 0.0
C947 C 0.9067 0.21777 0.9185 0.0
C948 C 0.91564 0.2294 0.93182 0.0
C949 C 0.91135 0.2396 0.93813 0.0
C950 C 0.89737 0.23718 0.93214 0.0
C951 C 0.88836 0.22544 0.91886 0.0
C952 C 0.87051 0.19541 0.89718 0.0
C953 C 0.85931 0.1973 0.88789 0.0
C954 C 0.84464 0.18644 0.88983 0.0
C955 C 0.84068 0.17358 0.90158 0.0
C956 C 0.85189 0.17202 0.91157 0.0
C957 C 0.86661 0.18278 0.90926 0.0
H958 H 0.80128 0.71417 0.8615 0.0
N959 N 0.79863 0.69361 0.88859 0.0
H960 H 0.78819 0.71057 0.828 0.0
H961 H 0.7807 0.66714 0.86942 0.0
H962 H 0.76769 0.66348 0.83624 0.0
H963 H 0.7845 0.66605 0.90598 0.0
H964 H 0.76354 0.65679 0.92938 0.0
H965 H 0.7894 0.70944 0.90906 0.0
H966 H 0.76895 0.70052 0.9334 0.0
H967 H 0.82387 0.71489 0.9034 0.0
H968 H 0.8034 0.67062 0.87929 0.0
H969 H 0.84745 0.71547 0.90512 0.0
H970 H 0.82693 0.67131 0.87992 0.0
H971 H 0.92114 0.71371 0.86559 0.0
H972 H 0.92894 0.70883 0.83206 0.0
H973 H 0.8856 0.67159 0.82233 0.0
H974 H 0.87819 0.67617 0.85626 0.0
H975 H 0.88983 0.66891 0.88717 0.0
H976 H 0.9026 0.65976 0.90958 0.0
H977 H 0.92621 0.70224 0.93965 0.0
H978 H 0.91335 0.7114 0.91701 0.0
H979 H 0.88923 0.71874 0.87859 0.0
H980 H 0.86536 0.7173 0.8813 0.0
H981 H 0.84623 0.67179 0.90041 0.0
N982 N 0.89574 0.69752 0.88462 0.0
H983 H 0.86998 0.67318 0.89676 0.0
C984 C 0.79209 0.69101 0.86794 0.0
C985 C 0.79415 0.70309 0.85584 0.0
C986 C 0.7866 0.70101 0.83683 0.0
C987 C 0.77687 0.68673 0.82954 0.0
C988 C 0.77524 0.67461 0.8413 0.0
C989 C 0.78271 0.67671 0.86036 0.0
C990 C 0.78837 0.68843 0.90557 0.0
C991 C 0.78127 0.67366 0.91208 0.0
C992 C 0.76932 0.6684 0.92561 0.0
C993 C 0.76435 0.67785 0.93303 0.0
C994 C 0.77219 0.69284 0.92758 0.0
C995 C 0.784 0.69802 0.91391 0.0
C996 C 0.81192 0.69286 0.891 0.0
C997 C 0.82448 0.70529 0.89854 0.0
C998 C 0.83796 0.70563 0.89931 0.0
C999 C 0.83919 0.69352 0.89234 0.0
C1000 C 0.82642 0.68081 0.88554 0.0
C1001 C 0.8129 0.68044 0.88499 0.0
C1002 C 0.89912 0.69543 0.86344 0.0
C1003 C 0.91329 0.70464 0.85601 0.0
C1004 C 0.91769 0.70184 0.83679 0.0
C1005 C 0.90793 0.68975 0.82443 0.0
C1006 C 0.89351 0.68084 0.83155 0.0
C1007 C 0.88917 0.68357 0.8509 0.0
C1008 C 0.90075 0.69095 0.90031 0.0
C1009 C 0.89747 0.67618 0.89889 0.0
C1010 C 0.90483 0.67097 0.91165 0.0
C1011 C 0.91552 0.68034 0.92616 0.0
C1012 C 0.91798 0.69475 0.92867 0.0
C1013 C 0.91067 0.7 0.91577 0.0
C1014 C 0.88151 0.6962 0.88761 0.0
C1015 C 0.87988 0.70849 0.88348 0.0
C1016 C 0.86623 0.70765 0.8852 0.0
C1017 C 0.85382 0.69444 0.89124 0.0
C1018 C 0.85549 0.6821 0.89554 0.0
C1019 C 0.86916 0.68293 0.89364 0.0
H1020 H 0.74702 0.62552 0.48682 0.0
N1021 N 0.77181 0.64171 0.46641 0.0
H1022 H 0.73955 0.63126 0.51995 0.0
H1023 H 0.78947 0.66424 0.49299 0.0
H1024 H 0.7824 0.66979 0.52665 0.0
H1025 H 0.77835 0.67034 0.46123 0.0
H1026 H 0.76557 0.67911 0.43828 0.0
H1027 H 0.75201 0.62642 0.43686 0.0
H1028 H 0.73918 0.63518 0.41345 0.0
H1029 H 0.78049 0.62317 0.47985 0.0
H1030 H 0.79593 0.66407 0.44626 0.0
H1031 H 0.80448 0.62508 0.47641 0.0
H1032 H 0.81952 0.66558 0.44159 0.0
H1033 H 0.88578 0.63544 0.46591 0.0
H1034 H 0.90021 0.63916 0.49764 0.0
H1035 H 0.88312 0.66598 0.52304 0.0
H1036 H 0.8699 0.66331 0.49055 0.0
H1037 H 0.89073 0.67731 0.45554 0.0
H1038 H 0.91265 0.68863 0.43379 0.0
H1039 H 0.89572 0.64853 0.39776 0.0
H1040 H 0.87385 0.6373 0.41964 0.0
H1041 H 0.84401 0.62433 0.45244 0.0
H1042 H 0.82005 0.62285 0.45321 0.0
H1043 H 0.84136 0.67029 0.45808 0.0
N1044 N 0.87015 0.64814 0.45519 0.0
H1045 H 0.86518 0.67159 0.45589 0.0
C1046 C 0.76876 0.64436 0.48747 0.0
C1047 C 0.75485 0.63505 0.49567 0.0
C1048 C 0.75064 0.63835 0.51467 0.0
C1049 C 0.76034 0.65105 0.52603 0.0
C1050 C 0.77454 0.66007 0.51818 0.0
C1051 C 0.77869 0.65682 0.49903 0.0
C1052 C 0.76619 0.64768 0.45065 0.0
C1053 C 0.77004 0.66263 0.45057 0.0
C1054 C 0.76272 0.66765 0.43737 0.0
C1055 C 0.75131 0.65783 0.42408 0.0
C1056 C 0.74781 0.64298 0.42367 0.0
C1057 C 0.75522 0.63799 0.43683 0.0
C1058 C 0.78618 0.64331 0.46329 0.0
C1059 C 0.78899 0.63246 0.47149 0.0
C1060 C 0.80271 0.63353 0.46931 0.0
C1061 C 0.81402 0.64543 0.45848 0.0
C1062 C 0.81121 0.65634 0.45023 0.0
C1063 C 0.79752 0.65539 0.45276 0.0
C1064 C 0.87663 0.64893 0.47565 0.0
C1065 C 0.88506 0.642 0.47845 0.0
C1066 C 0.89326 0.6441 0.49678 0.0
C1067 C 0.89294 0.65291 0.5132 0.0
C1068 C 0.884 0.65941 0.51069 0.0
C1069 C 0.87614 0.65766 0.49204 0.0
C1070 C 0.8807 0.65639 0.43924 0.0
C1071 C 0.89146 0.67117 0.44243 0.0
C1072 C 0.90405 0.67757 0.43012 0.0
C1073 C 0.906 0.66938 0.4143 0.0
C1074 C 0.89452 0.65514 0.40977 0.0
C1075 C 0.882 0.64871 0.42221 0.0
C1076 C 0.85633 0.64799 0.4543 0.0
C1077 C 0.84343 0.63439 0.45341 0.0
C1078 C 0.82976 0.63359 0.45411 0.0
C1079 C 0.82865 0.64643 0.4561 0.0
C1080 C 0.84168 0.66015 0.45636 0.0
C1081 C 0.85537 0.66093 0.45524 0.0
H1082 H 0.37758 0.12516 0.47874 0.0
N1083 N 0.36014 0.13312 0.45911 0.0
H1084 H 0.37315 0.11191 0.51198 0.0
H1085 H 0.33764 0.12686 0.48594 0.0
H1086 H 0.33279 0.11314 0.51886 0.0
H1087 H 0.33109 0.11278 0.45354 0.0
H1088 H 0.32165 0.09065 0.43206 0.0
H1089 H 0.37425 0.12831 0.42849 0.0
H1090 H 0.36478 0.10615 0.40667 0.0
H1091 H 0.38106 0.1591 0.47193 0.0
H1092 H 0.33804 0.13777 0.44336 0.0
H1093 H 0.38093 0.18231 0.47238 0.0
H1094 H 0.33816 0.16115 0.4424 0.0
H1095 H 0.37648 0.25755 0.47458 0.0
H1096 H 0.37412 0.2684 0.50691 0.0
H1097 H 0.34494 0.22485 0.53099 0.0
H1098 H 0.34654 0.21426 0.49815 0.0
H1099 H 0.33347 0.22506 0.46727 0.0
H1100 H 0.32194 0.23596 0.44535 0.0
H1101 H 0.35825 0.25223 0.40267 0.0
H1102 H 0.37008 0.24183 0.42514 0.0
H1103 H 0.38357 0.22506 0.4557 0.0
H1104 H 0.38307 0.20158 0.45228 0.0
H1105 H 0.33625 0.17871 0.46247 0.0
N1106 N 0.36133 0.22966 0.46273 0.0
H1107 H 0.33684 0.20237 0.46427 0.0
C1108 C 0.35795 0.1269 0.47986 0.0
C1109 C 0.36792 0.12277 0.48766 0.0
C1110 C 0.36528 0.11508 0.50652 0.0
C1111 C 0.35249 0.11126 0.51793 0.0
C1112 C 0.34278 0.11596 0.51053 0.0
C1113 C 0.34549 0.12374 0.49166 0.0
C1114 C 0.35348 0.12221 0.44275 0.0
C1115 C 0.33847 0.11169 0.44294 0.0
C1116 C 0.33308 0.09898 0.43071 0.0
C1117 C 0.34253 0.0966 0.41793 0.0
C1118 C 0.35723 0.10772 0.41631 0.0
C1119 C 0.36265 0.12039 0.42872 0.0
C1120 C 0.35971 0.1467 0.45747 0.0
C1121 C 0.3717 0.15952 0.46537 0.0
C1122 C 0.37162 0.17283 0.46544 0.0
C1123 C 0.35959 0.17377 0.45721 0.0
C1124 C 0.34756 0.16088 0.44911 0.0
C1125 C 0.34754 0.14745 0.44943 0.0
C1126 C 0.36177 0.23512 0.48369 0.0
C1127 C 0.36978 0.25035 0.48701 0.0
C1128 C 0.36844 0.25653 0.50564 0.0
C1129 C 0.35921 0.24756 0.5217 0.0
C1130 C 0.35185 0.23219 0.51885 0.0
C1131 C 0.35295 0.22604 0.49999 0.0
C1132 C 0.35279 0.23287 0.44794 0.0
C1133 C 0.33883 0.23072 0.45301 0.0
C1134 C 0.33227 0.23696 0.44055 0.0
C1135 C 0.33932 0.245 0.42252 0.0
C1136 C 0.35263 0.24604 0.41651 0.0
C1137 C 0.35935 0.2401 0.42924 0.0
C1138 C 0.36036 0.21547 0.46061 0.0
C1139 C 0.37322 0.21494 0.45708 0.0
C1140 C 0.37289 0.20147 0.45532 0.0
C1141 C 0.35965 0.18811 0.45748 0.0
C1142 C 0.34665 0.18869 0.46054 0.0
C1143 C 0.34697 0.20223 0.46183 0.0
H1144 H 0.78024 0.10964 0.4807 0.0
N1145 N 0.77845 0.13385 0.46818 0.0
H1146 H 0.77147 0.09627 0.51354 0.0
H1147 H 0.76748 0.14106 0.5006 0.0
H1148 H 0.75866 0.12769 0.53379 0.0
H1149 H 0.75034 0.12154 0.4574 0.0
H1150 H 0.73667 0.10069 0.43392 0.0
H1151 H 0.79064 0.12306 0.43943 0.0
H1152 H 0.77721 0.10285 0.41549 0.0
H1153 H 0.80269 0.1304 0.47274 0.0
H1154 H 0.78883 0.16232 0.46036 0.0
H1155 H 0.82808 0.14942 0.47056 0.0
H1156 H 0.81447 0.18188 0.45967 0.0
H1157 H 0.90755 0.21167 0.48385 0.0
H1158 H 0.91919 0.22307 0.51727 0.0
H1159 H 0.88767 0.23792 0.5251 0.0
H1160 H 0.87616 0.22651 0.49143 0.0
H1161 H 0.88375 0.23676 0.45626 0.0
H1162 H 0.89907 0.25558 0.43085 0.0
H1163 H 0.91633 0.22783 0.41017 0.0
H1164 H 0.90081 0.20904 0.43544 0.0
H1165 H 0.87196 0.18714 0.48776 0.0
H1166 H 0.8462 0.16869 0.48876 0.0
H1167 H 0.83669 0.19311 0.44205 0.0
N1168 N 0.8848 0.21165 0.46524 0.0
H1169 H 0.86233 0.21209 0.44235 0.0
C1170 C 0.7746 0.12647 0.48824 0.0
C1171 C 0.77584 0.11386 0.49233 0.0
C1172 C 0.77078 0.10619 0.51115 0.0
C1173 C 0.76433 0.11089 0.52627 0.0
C1174 C 0.76342 0.12369 0.52235 0.0
C1175 C 0.76854 0.1314 0.50353 0.0
C1176 C 0.77152 0.1239 0.45068 0.0
C1177 C 0.7563 0.1177 0.44795 0.0
C1178 C 0.7485 0.10576 0.43446 0.0
C1179 C 0.75578 0.09985 0.42307 0.0
C1180 C 0.77117 0.10681 0.42451 0.0
C1181 C 0.77894 0.11859 0.43824 0.0
C1182 C 0.79374 0.14486 0.46642 0.0
C1183 C 0.80508 0.14153 0.46961 0.0
C1184 C 0.81973 0.15257 0.46862 0.0
C1185 C 0.8235 0.16735 0.46515 0.0
C1186 C 0.8121 0.17065 0.46203 0.0
C1187 C 0.79741 0.1595 0.46254 0.0
C1188 C 0.89105 0.21823 0.48526 0.0
C1189 C 0.90316 0.21735 0.49287 0.0
C1190 C 0.90973 0.22381 0.51198 0.0
C1191 C 0.90431 0.23134 0.5239 0.0
C1192 C 0.89217 0.2323 0.51619 0.0
C1193 C 0.88556 0.22576 0.49703 0.0
C1194 C 0.89121 0.2215 0.44775 0.0
C1195 C 0.89057 0.2346 0.44591 0.0
C1196 C 0.89941 0.24539 0.43145 0.0
C1197 C 0.90907 0.2433 0.41862 0.0
C1198 C 0.90893 0.22977 0.4196 0.0
C1199 C 0.90009 0.21901 0.43405 0.0
C1200 C 0.86927 0.20111 0.46514 0.0
C1201 C 0.86429 0.1886 0.47788 0.0
C1202 C 0.84951 0.17792 0.4782 0.0
C1203 C 0.83923 0.17919 0.46526 0.0
C1204 C 0.84418 0.19177 0.45245 0.0
C1205 C 0.859 0.20267 0.45249 0.0
H1206 H 0.00749 0.56753 0.20975 0.0
N1207 N 0.98205 0.5433 0.22257 0.0
H1208 H 0.01137 0.58068 0.17694 0.0
H1209 H 0.9632 0.53661 0.19061 0.0
H1210 H 0.96712 0.54984 0.15722 0.0
H1211 H 0.96344 0.55048 0.23947 0.0
H1212 H 0.96905 0.57021 0.26462 0.0
H1213 H 0.00767 0.55824 0.2455 0.0
H1214 H 0.01355 0.57827 0.26978 0.0
H1215 H 0.00891 0.54599 0.21352 0.0
H1216 H 0.96544 0.51562 0.23513 0.0
H1217 H 0.01512 0.52654 0.2139 0.0
H1218 H 0.97181 0.49595 0.23633 0.0
H1219 H 0.03008 0.47678 0.18493 0.0
H1220 H 0.02905 0.465 0.15145 0.0
H1221 H 0.98729 0.42797 0.16863 0.0
H1222 H 0.98811 0.44027 0.20144 0.0
H1223 H 0.98827 0.4449 0.23866 0.0
H1224 H 0.98932 0.42777 0.26431 0.0
H1225 H 0.03637 0.44951 0.25763 0.0
H1226 H 0.03512 0.46638 0.23207 0.0
H1227 H 0.02735 0.49257 0.23159 0.0
H1228 H 0.02015 0.51135 0.23605 0.0
H1229 H 0.97658 0.48065 0.21334 0.0
N1230 N 0.01133 0.46566 0.21635 0.0
H1231 H 0.98383 0.46175 0.20989 0.0
C1232 C 0.98499 0.55092 0.2027 0.0
C1233 C 0.9986 0.56341 0.19843 0.0
C1234 C 1.00086 0.57095 0.17952 0.0
C1235 C 0.98958 0.56628 0.16443 0.0
C1236 C 0.97599 0.55377 0.16862 0.0
C1237 C 0.97376 0.54615 0.18757 0.0
C1238 C 0.98506 0.55286 0.24045 0.0
C1239 C 0.97427 0.55625 0.24655 0.0
C1240 C 0.97757 0.56766 0.2607 0.0
C1241 C 0.99184 0.57606 0.26898 0.0
C1242 C 0.00242 0.57202 0.26388 0.0
C1243 C 0.99906 0.56051 0.24985 0.0
C1244 C 0.98657 0.53229 0.22419 0.0
C1245 C 1.00069 0.53519 0.21859 0.0
C1246 C 0.0043 0.52398 0.21899 0.0
C1247 C 0.99399 0.50961 0.22518 0.0
C1248 C 0.97998 0.50682 0.23122 0.0
C1249 C 0.97635 0.51806 0.23071 0.0
C1250 C 0.00932 0.45935 0.19573 0.0
C1251 C 0.02058 0.46626 0.18119 0.0
C1252 C 0.02003 0.45941 0.1622 0.0
C1253 C 0.00823 0.44534 0.15747 0.0
C1254 C 0.99653 0.43879 0.17164 0.0
C1255 C 0.99702 0.44578 0.19055 0.0
C1256 C 0.01166 0.45684 0.23349 0.0
C1257 C 0.99878 0.44603 0.24298 0.0
C1258 C 0.9994 0.43624 0.25753 0.0
C1259 C 0.01293 0.43727 0.26297 0.0
C1260 C 0.02581 0.44852 0.25403 0.0
C1261 C 0.02514 0.45816 0.23941 0.0
C1262 C 0.00622 0.47591 0.22019 0.0
C1263 C 0.01621 0.4899 0.22784 0.0
C1264 C 0.01208 0.50063 0.23019 0.0
C1265 C 0.99784 0.49764 0.22472 0.0
C1266 C 0.98762 0.48335 0.21781 0.0
C1267 C 0.99176 0.47254 0.21567 0.0
H1268 H 0.58903 0.54867 0.21726 0.0
N1269 N 0.56136 0.53603 0.22932 0.0
H1270 H 0.59943 0.56152 0.18473 0.0
H1271 H 0.54576 0.53728 0.1948 0.0
H1272 H 0.55581 0.54877 0.16143 0.0
H1273 H 0.55545 0.55857 0.23291 0.0
H1274 H 0.56856 0.57999 0.25603 0.0
H1275 H 0.57825 0.53816 0.26184 0.0
H1276 H 0.5914 0.55946 0.28502 0.0
H1277 H 0.55703 0.50908 0.23499 0.0
H1278 H 0.53417 0.53365 0.22882 0.0
H1279 H 0.53374 0.48622 0.23727 0.0
H1280 H 0.51068 0.51077 0.22941 0.0
H1281 H 0.45891 0.41605 0.2101 0.0
H1282 H 0.44567 0.40691 0.17686 0.0
H1283 H 0.44526 0.44782 0.16843 0.0
H1284 H 0.45901 0.45702 0.20137 0.0
H1285 H 0.44515 0.44961 0.23365 0.0
H1286 H 0.42322 0.43693 0.25502 0.0
H1287 H 0.43978 0.4099 0.28194 0.0
H1288 H 0.4617 0.42254 0.26016 0.0
H1289 H 0.49194 0.44692 0.21553 0.0
H1290 H 0.51479 0.47017 0.21612 0.0
H1291 H 0.4931 0.49055 0.24785 0.0
N1292 N 0.46598 0.44126 0.22905 0.0
H1293 H 0.47005 0.46745 0.24579 0.0
C1294 C 0.56664 0.54191 0.20867 0.0
C1295 C 0.58172 0.54861 0.20505 0.0
C1296 C 0.58764 0.55586 0.18622 0.0
C1297 C 0.57854 0.55624 0.17007 0.0
C1298 C 0.5633 0.54908 0.17349 0.0
C1299 C 0.55744 0.54222 0.19267 0.0
C1300 C 0.56594 0.54682 0.24576 0.0
C1301 C 0.56286 0.55848 0.2448 0.0
C1302 C 0.57039 0.57071 0.25797 0.0
C1303 C 0.58114 0.57146 0.27211 0.0
C1304 C 0.58331 0.55926 0.27408 0.0
C1305 C 0.57574 0.54705 0.26103 0.0
C1306 C 0.54731 0.52295 0.23133 0.0
C1307 C 0.54691 0.50946 0.23394 0.0
C1308 C 0.53354 0.4964 0.23501 0.0
C1309 C 0.52019 0.49649 0.23304 0.0
C1310 C 0.52065 0.51018 0.2311 0.0
C1311 C 0.5341 0.5233 0.23053 0.0
C1312 C 0.45983 0.4371 0.20823 0.0
C1313 C 0.45617 0.4231 0.20084 0.0
C1314 C 0.44849 0.41787 0.18197 0.0
C1315 C 0.44418 0.42654 0.17014 0.0
C1316 C 0.44845 0.44088 0.1771 0.0
C1317 C 0.45624 0.44613 0.19598 0.0
C1318 C 0.45506 0.43691 0.24517 0.0
C1319 C 0.4443 0.44125 0.24451 0.0
C1320 C 0.43172 0.43395 0.25669 0.0
C1321 C 0.42973 0.42231 0.26992 0.0
C1322 C 0.44106 0.41888 0.27195 0.0
C1323 C 0.45359 0.42609 0.25957 0.0
C1324 C 0.47927 0.45528 0.23072 0.0
C1325 C 0.49214 0.45643 0.22261 0.0
C1326 C 0.50526 0.46975 0.22319 0.0
C1327 C 0.50598 0.48233 0.23234 0.0
C1328 C 0.49302 0.4812 0.24049 0.0
C1329 C 0.47977 0.46786 0.23951 0.0
H1330 H 0.5396 0.96511 0.20085 0.0
N1331 N 0.53969 0.98822 0.21811 0.0
H1332 H 0.5495 0.9639 0.16681 0.0
H1333 H 0.54989 0.00971 0.18789 0.0
H1334 H 0.55953 0.00854 0.15378 0.0
H1335 H 0.5684 0.01026 0.2161 0.0
H1336 H 0.58794 0.01331 0.23966 0.0
H1337 H 0.53658 0.97666 0.25625 0.0
H1338 H 0.55593 0.98074 0.28134 0.0
H1339 H 0.51132 0.96997 0.22278 0.0
H1340 H 0.5434 0.01599 0.22016 0.0
H1341 H 0.49179 0.9761 0.22624 0.0
H1342 H 0.52389 0.02238 0.22208 0.0
H1343 H 0.43723 0.99081 0.20398 0.0
H1344 H 0.42518 0.9898 0.17065 0.0
H1345 H 0.45559 0.0359 0.16056 0.0
H1346 H 0.46789 0.03679 0.19403 0.0
H1347 H 0.45013 0.03134 0.23899 0.0
H1348 H 0.42928 0.02314 0.26226 0.0
H1349 H 0.42599 0.98024 0.26612 0.0
H1350 H 0.44633 0.98836 0.24192 0.0
H1351 H 0.45923 0.99016 0.20578 0.0
H1352 H 0.47881 0.9843 0.20603 0.0
H1353 H 0.5059 0.02353 0.24239 0.0
N1354 N 0.4603 0.01517 0.22183 0.0
H1355 H 0.4863 0.02984 0.24087 0.0
C1356 C 0.54391 0.9874 0.19692 0.0
C1357 C 0.54371 0.97451 0.19045 0.0
C1358 C 0.54935 0.97385 0.17099 0.0
C1359 C 0.55537 0.98615 0.1576 0.0
C1360 C 0.55514 0.99894 0.16383 0.0
C1361 C 0.54945 0.99956 0.18329 0.0
C1362 C 0.551 0.99278 0.23402 0.0
C1363 C 0.56554 0.00376 0.23028 0.0
C1364 C 0.5768 0.00563 0.24407 0.0
C1365 C 0.57373 0.99697 0.26233 0.0
C1366 C 0.55893 0.98717 0.26706 0.0
C1367 C 0.54776 0.98496 0.2529 0.0
C1368 C 0.52869 0.99247 0.22083 0.0
C1369 C 0.51408 0.98142 0.22278 0.0
C1370 C 0.50294 0.98498 0.22456 0.0
C1371 C 0.50615 0.99976 0.22406 0.0
C1372 C 0.52094 0.01089 0.22265 0.0
C1373 C 0.53213 0.00728 0.22125 0.0
C1374 C 0.45365 0.0139 0.20142 0.0
C1375 C 0.44156 1.00064 0.19447 0.0
C1376 C 0.43465 1.00007 0.17538 0.0
C1377 C 0.43947 0.01276 0.16302 0.0
C1378 C 0.45163 0.02596 0.16984 0.0
C1379 C 0.45869 0.02648 0.18883 0.0
C1380 C 0.44988 0.01058 0.23871 0.0
C1381 C 0.44508 0.02027 0.24524 0.0
C1382 C 0.43314 0.01553 0.25863 0.0
C1383 C 0.42578 0.00095 0.26604 0.0
C1384 C 0.43115 0.99145 0.2604 0.0
C1385 C 0.44298 0.99616 0.24674 0.0
C1386 C 0.47131 0.01066 0.22306 0.0
C1387 C 0.46933 0.99762 0.21372 0.0
C1388 C 0.4806 0.99415 0.21412 0.0
C1389 C 0.49405 0.00342 0.22423 0.0
C1390 C 0.49584 0.01624 0.2341 0.0
C1391 C 0.4846 0.01981 0.23343 0.0
H1392 H 0.4135 0.96071 0.81996 0.0
N1393 N 0.43862 0.97692 0.80041 0.0
H1394 H 0.4056 0.96621 0.85289 0.0
H1395 H 0.45601 0.99912 0.8276 0.0
H1396 H 0.44848 0.00446 0.86106 0.0
H1397 H 0.44565 0.00571 0.79549 0.0
H1398 H 0.4333 0.01486 0.77236 0.0
H1399 H 0.41947 0.96211 0.76998 0.0
H1400 H 0.40713 0.97126 0.74633 0.0
H1401 H 0.44565 0.95681 0.81208 0.0
H1402 H 0.46381 0.99956 0.78307 0.0
H1403 H 0.46914 0.95757 0.80881 0.0
H1404 H 0.48698 1.00002 0.77848 0.0
H1405 H 0.55053 0.96544 0.79787 0.0
H1406 H 0.56422 0.96731 0.82973 0.0
H1407 H 0.54531 0.9912 0.8594 0.0
H1408 H 0.53287 0.99049 0.82699 0.0
H1409 H 0.5561 0.00697 0.79267 0.0
H1410 H 0.57823 0.0188 0.77142 0.0
H1411 H 0.56046 0.98063 0.73109 0.0
H1412 H 0.53832 0.96892 0.75241 0.0
H1413 H 0.50789 0.95558 0.78422 0.0
H1414 H 0.4846 0.95552 0.78514 0.0
H1415 H 0.50802 0.00261 0.79525 0.0
N1416 N 0.53461 0.97824 0.78931 0.0
H1417 H 0.5312 0.00256 0.79295 0.0
C1418 C 0.4353 0.97941 0.82138 0.0
C1419 C 0.42124 0.97012 0.8291 0.0
C1420 C 0.41678 0.97329 0.84798 0.0
C1421 C 0.42637 0.98583 0.8597 0.0
C1422 C 0.44071 0.99484 0.85232 0.0
C1423 C 0.44512 0.99172 0.83329 0.0
C1424 C 0.43349 0.98317 0.78441 0.0
C1425 C 0.4375 0.99817 0.78451 0.0
C1426 C 0.43042 0.0034 0.77121 0.0
C1427 C 0.41914 0.99377 0.75759 0.0
C1428 C 0.41563 0.97892 0.75685 0.0
C1429 C 0.42276 0.9737 0.77014 0.0
C1430 C 0.45277 0.97795 0.79768 0.0
C1431 C 0.45466 0.96627 0.80475 0.0
C1432 C 0.4681 0.96669 0.80266 0.0
C1433 C 0.48003 0.97878 0.79309 0.0
C1434 C 0.47815 0.99058 0.7861 0.0
C1435 C 0.46474 0.99025 0.78855 0.0
C1436 C 0.54063 0.97778 0.8097 0.0
C1437 C 0.54927 0.97099 0.81134 0.0
C1438 C 0.55704 0.972 0.82975 0.0
C1439 C 0.55604 0.97949 0.84741 0.0
C1440 C 0.54679 0.9857 0.84608 0.0
C1441 C 0.53938 0.98509 0.8274 0.0
C1442 C 0.54559 0.987 0.77412 0.0
C1443 C 0.55671 0.00141 0.77877 0.0
C1444 C 0.56942 0.00809 0.76674 0.0
C1445 C 0.57118 1.00054 0.74979 0.0
C1446 C 0.55942 0.98675 0.74398 0.0
C1447 C 0.54676 0.98005 0.75611 0.0
C1448 C 0.52123 0.97899 0.78867 0.0
C1449 C 0.50793 0.96589 0.78638 0.0
C1450 C 0.49463 0.96589 0.78716 0.0
C1451 C 0.49431 0.97903 0.79065 0.0
C1452 C 0.50775 0.99228 0.79235 0.0
C1453 C 0.52108 0.99228 0.79114 0.0
H1454 H 0.97115 0.53206 0.83427 0.0
N1455 N 0.9892 0.53951 0.80202 0.0
H1456 H 0.97509 0.54569 0.86699 0.0
H1457 H 0.01518 0.56284 0.8154 0.0
H1458 H 0.01946 0.57609 0.84824 0.0
H1459 H 0.01173 0.56035 0.7788 0.0
H1460 H 0.0101 0.57785 0.75446 0.0
H1461 H 0.96512 0.53908 0.78829 0.0
H1462 H 0.9633 0.5562 0.76377 0.0
H1463 H 0.97202 0.51251 0.78769 0.0
H1464 H 0.01693 0.54301 0.8041 0.0
H1465 H 0.97866 0.49363 0.78014 0.0
H1466 H 0.02353 0.52409 0.79804 0.0
H1467 H 0.99487 0.43685 0.80018 0.0
H1468 H 0.99134 0.42361 0.833 0.0
H1469 H 0.03205 0.45903 0.85709 0.0
H1470 H 0.03591 0.47222 0.82358 0.0
H1471 H 0.03989 0.45812 0.77479 0.0
H1472 H 0.03674 0.43823 0.75151 0.0
H1473 H 0.99134 0.42621 0.74172 0.0
H1474 H 0.99479 0.44648 0.76434 0.0
H1475 H 0.9916 0.4588 0.79722 0.0
H1476 H 0.98461 0.47776 0.79787 0.0
H1477 H 0.0273 0.50937 0.77438 0.0
N1478 N 0.01907 0.46297 0.78916 0.0
H1479 H 0.03449 0.49036 0.77512 0.0
C1480 C 0.99282 0.5463 0.82243 0.0
C1481 C 0.9818 0.54149 0.8375 0.0
C1482 C 0.98411 0.54929 0.8562 0.0
C1483 C 0.99757 0.56209 0.86021 0.0
C1484 C 0.00888 0.56644 0.84552 0.0
C1485 C 0.0065 0.55871 0.82677 0.0
C1486 C 0.98849 0.5485 0.7854 0.0
C1487 C 0.00114 0.55936 0.77545 0.0
C1488 C 1.0002 0.56934 0.76162 0.0
C1489 C 0.98658 0.5684 0.75727 0.0
C1490 C 0.97393 0.55712 0.76662 0.0
C1491 C 0.97491 0.54733 0.7806 0.0
C1492 C 0.99385 0.52906 0.79682 0.0
C1493 C 0.98331 0.51509 0.78974 0.0
C1494 C 0.98713 0.50429 0.7856 0.0
C1495 C 0.00162 0.50718 0.78873 0.0
C1496 C 0.01229 0.52142 0.79521 0.0
C1497 C 0.00848 0.53229 0.79899 0.0
C1498 C 0.0159 0.45549 0.80917 0.0
C1499 C 0.00313 0.44185 0.81233 0.0
C1500 C 1.00105 0.43427 0.83117 0.0
C1501 C 0.01149 0.44028 0.8474 0.0
C1502 C 0.02386 0.45421 0.84474 0.0
C1503 C 0.02608 0.4617 0.82568 0.0
C1504 C 0.01761 0.45371 0.77154 0.0
C1505 C 0.02941 0.4515 0.76702 0.0
C1506 C 0.02752 0.44001 0.75392 0.0
C1507 C 0.01368 0.43037 0.74518 0.0
C1508 C 0.00215 0.4334 0.74818 0.0
C1509 C 0.00411 0.44502 0.76118 0.0
C1510 C 0.01373 0.47324 0.78646 0.0
C1511 C 0.99945 0.46976 0.7921 0.0
C1512 C 0.99541 0.48068 0.79227 0.0
C1513 C 0.00544 0.49525 0.78642 0.0
C1514 C 0.0194 0.49841 0.77953 0.0
C1515 C 0.02349 0.48753 0.77968 0.0
H1516 H 0.45084 0.44602 0.8211 0.0
N1517 N 0.44537 0.46746 0.80573 0.0
H1518 H 0.44235 0.43286 0.85384 0.0
H1519 H 0.43043 0.47199 0.83546 0.0
H1520 H 0.42056 0.45783 0.86762 0.0
H1521 H 0.41817 0.45608 0.79111 0.0
H1522 H 0.40526 0.43493 0.76788 0.0
H1523 H 0.45823 0.45479 0.78258 0.0
H1524 H 0.44566 0.43417 0.75854 0.0
H1525 H 0.47121 0.46828 0.81795 0.0
H1526 H 0.45362 0.49327 0.78737 0.0
H1527 H 0.49574 0.48847 0.81363 0.0
H1528 H 0.4786 0.51363 0.78213 0.0
H1529 H 0.56683 0.54236 0.81721 0.0
H1530 H 0.57883 0.55226 0.85105 0.0
H1531 H 0.55649 0.57762 0.85489 0.0
H1532 H 0.5449 0.56793 0.82084 0.0
H1533 H 0.54813 0.5738 0.78422 0.0
H1534 H 0.56478 0.59247 0.75946 0.0
H1535 H 0.58345 0.56484 0.7447 0.0
H1536 H 0.56684 0.54639 0.76952 0.0
H1537 H 0.53921 0.52094 0.788 0.0
H1538 H 0.5138 0.50099 0.78808 0.0
H1539 H 0.49943 0.53252 0.80068 0.0
N1540 N 0.54905 0.54914 0.79597 0.0
H1541 H 0.5249 0.55244 0.79942 0.0
C1542 C 0.44163 0.46037 0.82602 0.0
C1543 C 0.44472 0.4491 0.83149 0.0
C1544 C 0.4395 0.44127 0.85013 0.0
C1545 C 0.43053 0.44405 0.86347 0.0
C1546 C 0.4276 0.45546 0.85806 0.0
C1547 C 0.43319 0.46357 0.83962 0.0
C1548 C 0.43913 0.45709 0.78864 0.0
C1549 C 0.42428 0.45153 0.78365 0.0
C1550 C 0.41693 0.43943 0.7703 0.0
C1551 C 0.42435 0.43267 0.76146 0.0
C1552 C 0.4395 0.43885 0.76543 0.0
C1553 C 0.44679 0.45084 0.77901 0.0
C1554 C 0.46033 0.47921 0.80319 0.0
C1555 C 0.47249 0.47805 0.81025 0.0
C1556 C 0.48672 0.48967 0.8075 0.0
C1557 C 0.48925 0.50271 0.7974 0.0
C1558 C 0.47709 0.50383 0.79019 0.0
C1559 C 0.46282 0.49219 0.79307 0.0
C1560 C 0.55497 0.55433 0.8166 0.0
C1561 C 0.56446 0.54995 0.82552 0.0
C1562 C 0.57123 0.55558 0.84488 0.0
C1563 C 0.56862 0.56575 0.85574 0.0
C1564 C 0.55889 0.56996 0.84685 0.0
C1565 C 0.55213 0.56432 0.82744 0.0
C1566 C 0.55638 0.55878 0.77873 0.0
C1567 C 0.5556 0.57167 0.77532 0.0
C1568 C 0.56517 0.58234 0.76124 0.0
C1569 C 0.57552 0.58019 0.75023 0.0
C1570 C 0.57553 0.5668 0.75272 0.0
C1571 C 0.56607 0.55625 0.76689 0.0
C1572 C 0.53392 0.53806 0.79396 0.0
C1573 C 0.53052 0.5235 0.79044 0.0
C1574 C 0.516 0.51213 0.79073 0.0
C1575 C 0.50452 0.51507 0.79482 0.0
C1576 C 0.50794 0.52983 0.79744 0.0
C1577 C 0.52253 0.54124 0.79691 0.0
H1578 H 0.67376 0.88687 0.53412 0.0
N1579 N 0.64905 0.87771 0.55756 0.0
H1580 H 0.67914 0.9003 0.50105 0.0
H1581 H 0.63101 0.88319 0.53467 0.0
H1582 H 0.63591 0.89591 0.50095 0.0
H1583 H 0.63261 0.8812 0.58577 0.0
H1584 H 0.64035 0.90147 0.61083 0.0
H1585 H 0.67749 0.89824 0.56724 0.0
H1586 H 0.68526 0.91854 0.59172 0.0
H1587 H 0.67239 0.87383 0.56876 0.0
H1588 H 0.62684 0.85109 0.55028 0.0
H1589 H 0.67259 0.85058 0.56918 0.0
H1590 H 0.62703 0.82782 0.54981 0.0
H1591 H 0.67574 0.79102 0.53202 0.0
H1592 H 0.68121 0.7837 0.49881 0.0
H1593 H 0.63475 0.75726 0.48564 0.0
H1594 H 0.62951 0.76583 0.51824 0.0
H1595 H 0.63306 0.75449 0.56148 0.0
H1596 H 0.64144 0.74124 0.58426 0.0
H1597 H 0.68228 0.78157 0.59479 0.0
H1598 H 0.67397 0.79451 0.57116 0.0
H1599 H 0.67182 0.8097 0.54093 0.0
H1600 H 0.67207 0.83287 0.5455 0.0
H1601 H 0.62816 0.80949 0.5702 0.0
N1602 N 0.64846 0.78192 0.54805 0.0
H1603 H 0.62778 0.78616 0.56453 0.0
C1604 C 0.65201 0.88421 0.53697 0.0
C1605 C 0.66546 0.88881 0.52699 0.0
C1606 C 0.66846 0.89639 0.50792 0.0
C1607 C 0.65803 0.89936 0.49835 0.0
C1608 C 0.64436 0.89416 0.50805 0.0
C1609 C 0.64145 0.88676 0.5272 0.0
C1610 C 0.65439 0.88811 0.57465 0.0
C1611 C 0.64416 0.88912 0.58745 0.0
C1612 C 0.64859 0.9008 0.60157 0.0
C1613 C 0.66342 0.91174 0.60313 0.0
C1614 C 0.67378 0.91025 0.59111 0.0
C1615 C 0.66932 0.89858 0.577 0.0
C1616 C 0.64949 0.86418 0.55966 0.0
C1617 C 0.66238 0.86385 0.56496 0.0
C1618 C 0.66251 0.8505 0.56499 0.0
C1619 C 0.64982 0.83725 0.55952 0.0
C1620 C 0.63694 0.83769 0.55452 0.0
C1621 C 0.6368 0.85098 0.55466 0.0
C1622 C 0.65216 0.77927 0.52741 0.0
C1623 C 0.66674 0.78417 0.52162 0.0
C1624 C 0.66984 0.77964 0.50272 0.0
C1625 C 0.65845 0.76969 0.48945 0.0
C1626 C 0.64388 0.76511 0.49512 0.0
C1627 C 0.64081 0.76994 0.51381 0.0
C1628 C 0.65281 0.77543 0.56466 0.0
C1629 C 0.64369 0.76049 0.56911 0.0
C1630 C 0.64851 0.75296 0.5822 0.0
C1631 C 0.66262 0.76028 0.59132 0.0
C1632 C 0.67147 0.7755 0.58774 0.0
C1633 C 0.66667 0.78299 0.57441 0.0
C1634 C 0.64959 0.79604 0.552 0.0
C1635 C 0.66221 0.80944 0.54725 0.0
C1636 C 0.6624 0.82281 0.55013 0.0
C1637 C 0.65008 0.82312 0.55806 0.0
C1638 C 0.63773 0.80971 0.56361 0.0
C1639 C 0.63751 0.79635 0.56053 0.0
H1640 H 0.24073 0.86659 0.53457 0.0
N1641 N 0.22473 0.87152 0.5619 0.0
H1642 H 0.2502 0.87914 0.50103 0.0
H1643 H 0.21721 0.89035 0.54252 0.0
H1644 H 0.22657 0.90288 0.50917 0.0
H1645 H 0.21485 0.88859 0.58004 0.0
H1646 H 0.22934 0.90987 0.60282 0.0
H1647 H 0.24996 0.87843 0.58063 0.0
H1648 H 0.26433 0.89927 0.60399 0.0
H1649 H 0.22015 0.84672 0.57986 0.0
H1650 H 0.19746 0.86775 0.55241 0.0
H1651 H 0.1969 0.82391 0.58371 0.0
H1652 H 0.17426 0.8448 0.55499 0.0
H1653 H 0.12842 0.75442 0.53984 0.0
H1654 H 0.11562 0.74589 0.50614 0.0
H1655 H 0.10614 0.78175 0.50613 0.0
H1656 H 0.1193 0.79037 0.53963 0.0
H1657 H 0.10941 0.78278 0.57458 0.0
H1658 H 0.08868 0.76772 0.59715 0.0
H1659 H 0.10693 0.73939 0.61049 0.0
H1660 H 0.12776 0.75465 0.58787 0.0
H1661 H 0.15791 0.7816 0.5594 0.0
H1662 H 0.18047 0.8052 0.5613 0.0
H1663 H 0.15533 0.82661 0.57594 0.0
N1664 N 0.13074 0.7764 0.56312 0.0
H1665 H 0.13277 0.80294 0.57307 0.0
C1666 C 0.22822 0.87742 0.54098 0.0
C1667 C 0.23737 0.87427 0.52884 0.0
C1668 C 0.24284 0.88153 0.50982 0.0
C1669 C 0.23919 0.89207 0.50255 0.0
C1670 C 0.22946 0.89471 0.51426 0.0
C1671 C 0.22408 0.88753 0.53337 0.0
C1672 C 0.23148 0.88208 0.57851 0.0
C1673 C 0.22555 0.89075 0.58549 0.0
C1674 C 0.23382 0.90287 0.5986 0.0
C1675 C 0.24811 0.90643 0.60494 0.0
C1676 C 0.25351 0.89705 0.59903 0.0
C1677 C 0.24529 0.88505 0.58589 0.0
C1678 C 0.21062 0.85883 0.56553 0.0
C1679 C 0.21011 0.84639 0.5747 0.0
C1680 C 0.19681 0.83333 0.57668 0.0
C1681 C 0.18367 0.83235 0.56925 0.0
C1682 C 0.18411 0.8451 0.56095 0.0
C1683 C 0.19745 0.85826 0.55925 0.0
C1684 C 0.12473 0.77292 0.54221 0.0
C1685 C 0.12378 0.76055 0.53233 0.0
C1686 C 0.11637 0.75565 0.51321 0.0
C1687 C 0.10969 0.76304 0.50361 0.0
C1688 C 0.11122 0.77587 0.51308 0.0
C1689 C 0.11868 0.78077 0.53228 0.0
C1690 C 0.12025 0.76991 0.5797 0.0
C1691 C 0.10928 0.77369 0.58294 0.0
C1692 C 0.09736 0.765 0.59582 0.0
C1693 C 0.0961 0.75228 0.60544 0.0
C1694 C 0.10752 0.74903 0.6031 0.0
C1695 C 0.11948 0.7578 0.59039 0.0
C1696 C 0.1437 0.79044 0.56627 0.0
C1697 C 0.15733 0.79139 0.56324 0.0
C1698 C 0.17022 0.80491 0.56448 0.0
C1699 C 0.16981 0.81789 0.56896 0.0
C1700 C 0.15609 0.81689 0.57228 0.0
C1701 C 0.14313 0.8033 0.57084 0.0
H1702 H 0.22717 0.33246 0.53987 0.0
N1703 N 0.2271 0.35791 0.54981 0.0
H1704 H 0.23508 0.32697 0.50701 0.0
H1705 H 0.23491 0.37413 0.51499 0.0
H1706 H 0.24281 0.36865 0.48175 0.0
H1707 H 0.25539 0.37539 0.55749 0.0
H1708 H 0.27116 0.3708 0.58079 0.0
H1709 H 0.21762 0.33643 0.58055 0.0
H1710 H 0.23306 0.33245 0.60527 0.0
H1711 H 0.20345 0.33027 0.5432 0.0
H1712 H 0.21591 0.37405 0.56445 0.0
H1713 H 0.17785 0.32316 0.5463 0.0
H1714 H 0.19003 0.36673 0.5689 0.0
H1715 H 0.10847 0.30553 0.5229 0.0
H1716 H 0.09654 0.30737 0.49068 0.0
H1717 H 0.10848 0.35207 0.50695 0.0
H1718 H 0.11979 0.34988 0.5393 0.0
H1719 H 0.12178 0.34824 0.57603 0.0
H1720 H 0.10399 0.34649 0.60226 0.0
H1721 H 0.0815 0.2991 0.59673 0.0
H1722 H 0.0991 0.30102 0.57041 0.0
H1723 H 0.13244 0.30963 0.56609 0.0
H1724 H 0.15853 0.31753 0.56881 0.0
H1725 H 0.16884 0.36131 0.54929 0.0
N1726 N 0.12018 0.32529 0.55345 0.0
H1727 H 0.1428 0.35349 0.54805 0.0
C1728 C 0.2304 0.35374 0.52986 0.0
C1729 C 0.23033 0.34033 0.52719 0.0
C1730 C 0.23484 0.33719 0.50834 0.0
C1731 C 0.2396 0.34739 0.49177 0.0
C1732 C 0.23935 0.36064 0.4943 0.0
C1733 C 0.23475 0.36374 0.51317 0.0
C1734 C 0.23533 0.35633 0.56705 0.0
C1735 C 0.25045 0.36613 0.56817 0.0
C1736 C 0.25946 0.36348 0.58168 0.0
C1737 C 0.25353 0.3511 0.59495 0.0
C1738 C 0.23818 0.34185 0.59491 0.0
C1739 C 0.22921 0.34427 0.5809 0.0
C1740 C 0.21173 0.35288 0.55322 0.0
C1741 C 0.20074 0.33838 0.5487 0.0
C1742 C 0.18596 0.33423 0.5508 0.0
C1743 C 0.18174 0.34435 0.55784 0.0
C1744 C 0.19279 0.35869 0.56306 0.0
C1745 C 0.2076 0.36289 0.5607 0.0
C1746 C 0.11508 0.32753 0.53344 0.0
C1747 C 0.10869 0.31578 0.51926 0.0
C1748 C 0.10192 0.31689 0.50085 0.0
C1749 C 0.10146 0.32985 0.49626 0.0
C1750 C 0.10841 0.34184 0.51015 0.0
C1751 C 0.11507 0.34067 0.5286 0.0
C1752 C 0.11161 0.32471 0.57122 0.0
C1753 C 0.11309 0.3375 0.58066 0.0
C1754 C 0.10292 0.33648 0.59559 0.0
C1755 C 0.09132 0.32266 0.6015 0.0
C1756 C 0.09039 0.3099 0.59272 0.0
C1757 C 0.10041 0.31095 0.57769 0.0
C1758 C 0.13564 0.33083 0.5565 0.0
C1759 C 0.14038 0.32097 0.5627 0.0
C1760 C 0.15532 0.3255 0.56403 0.0
C1761 C 0.1659 0.34001 0.55884 0.0
C1762 C 0.16109 0.35007 0.5535 0.0
C1763 C 0.14611 0.34556 0.55254 0.0
H1764 H 0.98763 0.38472 0.05271 0.0
H1765 H 0.03208 0.44523 0.1406 0.0
H1766 H 0.03452 0.41349 0.05231 0.0
H1767 H 0.98536 0.42653 0.13149 0.0
H1768 H 0.03279 0.43172 0.11014 0.0
H1769 H 0.9862 0.3978 0.08369 0.0
C1770 C 0.99762 0.3937 0.05917 0.0
C1771 C 0.01121 0.398 0.04984 0.0
C1772 C 0.02238 0.43061 0.11473 0.0
C1773 C 0.00964 0.41295 0.08521 0.0
C1774 C 0.02197 0.43843 0.13207 0.0
C1775 C 0.00866 0.43721 0.13859 0.0
C1776 C 0.00938 0.42129 0.1038 0.0
C1777 C 0.99587 0.42777 0.12719 0.0
C1778 C 0.99678 0.40121 0.07676 0.0
C1779 C 0.02378 0.40979 0.05885 0.0
N1780 N 0.99654 0.42016 0.11036 0.0
N1781 N 0.02269 0.4168 0.076 0.0
H1782 H 0.59658 0.6006 0.04868 0.0
H1783 H 0.60405 0.56129 0.15062 0.0
H1784 H 0.63838 0.61417 0.07849 0.0
H1785 H 0.56802 0.57015 0.14352 0.0
H1786 H 0.61551 0.5766 0.12017 0.0
H1787 H 0.58435 0.58512 0.0794 0.0
C1788 C 0.60314 0.60017 0.06162 0.0
C1789 C 0.61848 0.60808 0.0608 0.0
C1790 C 0.605 0.575 0.1252 0.0
C1791 C 0.60472 0.59069 0.09569 0.0
C1792 C 0.59847 0.56639 0.14283 0.0
C1793 C 0.58503 0.56447 0.15017 0.0
C1794 C 0.59786 0.58133 0.1142 0.0
C1795 C 0.57823 0.57102 0.13854 0.0
C1796 C 0.5962 0.59142 0.07907 0.0
C1797 C 0.62655 0.60763 0.07816 0.0
N1798 N 0.58468 0.57908 0.12108 0.0
N1799 N 0.61958 0.59889 0.09481 0.0
H1800 H 0.39355 0.99111 0.043 0.0
H1801 H 0.43014 0.03194 0.15092 0.0
H1802 H 0.38129 0.01977 0.07441 0.0
H1803 H 0.43005 0.99242 0.13136 0.0
H1804 H 0.41508 0.03 0.12017 0.0
H1805 H 0.40943 0.99332 0.07305 0.0
C1806 C 0.39432 0.99794 0.05622 0.0
C1807 C 0.38668 0.00579 0.05603 0.0
C1808 C 0.4184 0.02179 0.12258 0.0
C1809 C 0.40446 0.00818 0.09035 0.0
C1810 C 0.42709 0.02296 0.14 0.0
C1811 C 0.4313 0.0123 0.14366 0.0
C1812 C 0.41406 0.00998 0.10859 0.0
C1813 C 0.42691 0.00078 0.12916 0.0
C1814 C 0.40331 0.99917 0.07332 0.0
C1815 C 0.38756 0.01409 0.0737 0.0
N1816 N 0.41854 0.99994 0.11222 0.0
N1817 N 0.39643 0.01521 0.0901 0.0
H1818 H 0.37415 0.98435 0.96478 0.0
H1819 H 0.4331 0.01344 0.87323 0.0
H1820 H 0.40844 0.02964 0.95973 0.0
H1821 H 0.40739 0.96749 0.88972 0.0
H1822 H 0.42316 0.01972 0.90339 0.0
H1823 H 0.38478 0.97811 0.93531 0.0
C1824 C 0.38386 0.99301 0.95743 0.0
C1825 C 0.39039 0.00756 0.96478 0.0
C1826 C 0.41975 0.00827 0.90045 0.0
C1827 C 0.40262 1.00045 0.93103 0.0
C1828 C 0.42552 0.00466 0.8833 0.0
C1829 C 0.4211 0.98988 0.87881 0.0
C1830 C 0.40936 0.99703 0.91315 0.0
C1831 C 0.41096 0.97901 0.89227 0.0
C1832 C 0.38997 0.98941 0.94068 0.0
C1833 C 0.40303 0.01828 0.95466 0.0
N1834 N 0.40538 0.9828 0.90873 0.0
N1835 N 0.40869 0.01452 0.93828 0.0
H1836 H 0.99269 0.4021 0.97217 0.0
H1837 H 0.00764 0.41265 0.84967 0.0
H1838 H 0.01147 0.3799 0.93838 0.0
H1839 H 0.01146 0.44813 0.88836 0.0
H1840 H 0.0046 0.39802 0.88128 0.0
H1841 H 0.99484 0.41666 0.9405 0.0
C1842 C 0.99727 0.40035 0.95805 0.0
C1843 C 0.0024 0.39026 0.95787 0.0
C1844 C 0.00609 0.409 0.88284 0.0
C1845 C 0.0044 0.40628 0.9218 0.0
C1846 C 0.00777 0.4173 0.86487 0.0
C1847 C 0.00977 0.43155 0.86653 0.0
C1848 C 0.00612 0.41489 0.90257 0.0
C1849 C 0.00998 0.43718 0.88653 0.0
C1850 C 0.99851 0.40862 0.9401 0.0
C1851 C 0.00784 0.38796 0.93917 0.0
N1852 N 0.00806 0.42877 0.90385 0.0
N1853 N 0.00872 0.39593 0.92183 0.0
H1854 H 0.61669 0.62393 0.95959 0.0
H1855 H 0.57454 0.55187 0.88794 0.0
H1856 H 0.61677 0.58319 0.97143 0.0
H1857 H 0.58031 0.59426 0.86968 0.0
H1858 H 0.58838 0.56285 0.92011 0.0
H1859 H 0.6018 0.61293 0.928 0.0
C1860 C 0.61359 0.61269 0.95559 0.0
C1861 C 0.61807 0.60451 0.96821 0.0
C1862 C 0.58661 0.56976 0.90909 0.0
C1863 C 0.60096 0.59186 0.93213 0.0
C1864 C 0.57874 0.5635 0.89065 0.0
C1865 C 0.57632 0.57216 0.87595 0.0
C1866 C 0.5921 0.58481 0.91299 0.0
C1867 C 0.58178 0.58712 0.88061 0.0
C1868 C 0.6051 0.60643 0.93754 0.0
C1869 C 0.61369 0.58999 0.96219 0.0
N1870 N 0.58945 0.59298 0.89869 0.0
N1871 N 0.60538 0.58415 0.94465 0.0
H1872 H 0.98817 0.59553 0.98011 0.0
H1873 H 0.01187 0.59221 0.86224 0.0
H1874 H 0.01354 0.63372 0.94181 0.0
H1875 H 0.98724 0.55351 0.90033 0.0
H1876 H 0.01348 0.60752 0.89188 0.0
H1877 H 0.98792 0.5798 0.95141 0.0
C1878 C 0.99377 0.60055 0.96565 0.0
C1879 C 0.00136 0.61587 0.96344 0.0
C1880 C 0.00775 0.59568 0.89381 0.0
C1881 C 1.00086 0.59812 0.93052 0.0
C1882 C 0.00695 0.5869 0.87691 0.0
C1883 C 0.9994 0.57149 0.87872 0.0
C1884 C 1.00086 0.58907 0.91269 0.0
C1885 C 0.99299 0.56531 0.89808 0.0
C1886 C 0.99363 0.59162 0.94932 0.0
C1887 C 0.00805 0.62193 0.94429 0.0
N1888 N 0.99381 0.57412 0.91428 0.0
N1889 N 0.00771 0.61305 0.92858 0.0
H1890 H 0.40479 0.37791 0.96046 0.0
H1891 H 0.42365 0.45177 0.90143 0.0
H1892 H 0.38256 0.40207 0.97573 0.0
H1893 H 0.42181 0.41466 0.86886 0.0
H1894 H 0.41231 0.43588 0.93177 0.0
H1895 H 0.41526 0.39366 0.92964 0.0
C1896 C 0.40212 0.38653 0.95732 0.0
C1897 C 0.39274 0.38866 0.97056 0.0
C1898 C 0.41444 0.43131 0.91791 0.0
C1899 C 0.40489 0.40683 0.9357 0.0
C1900 C 0.42085 0.44033 0.9005 0.0
C1901 C 0.42384 0.43467 0.88238 0.0
C1902 C 0.41127 0.41661 0.91741 0.0
C1903 C 0.42017 0.41975 0.88251 0.0
C1904 C 0.40805 0.39546 0.93974 0.0
C1905 C 0.38964 0.39998 0.96577 0.0
N1906 N 0.41421 0.4113 0.89978 0.0
N1907 N 0.39582 0.40877 0.94882 0.0
H1908 H 0.59951 0.00355 0.96937 0.0
H1909 H 0.56563 0.96086 0.86302 0.0
H1910 H 0.61705 0.97912 0.93844 0.0
H1911 H 0.5672 0.00221 0.87634 0.0
H1912 H 0.58158 0.96488 0.89317 0.0
H1913 H 0.5844 1.00067 0.93804 0.0
C1914 C 0.60007 0.99749 0.95599 0.0
C1915 C 0.60896 0.99097 0.95666 0.0
C1916 C 0.57827 0.97296 0.88955 0.0
C1917 C 0.59201 0.98781 0.92099 0.0
C1918 C 0.56926 0.97079 0.87213 0.0
C1919 C 0.56499 0.98124 0.86675 0.0
C1920 C 0.58268 0.98538 0.90223 0.0
C1921 C 0.56983 0.99363 0.87987 0.0
C1922 C 0.59152 0.9959 0.93818 0.0
C1923 C 0.60976 0.98368 0.93878 0.0
N1924 N 0.57831 0.99529 0.89706 0.0
N1925 N 0.60121 0.98209 0.92173 0.0
H1926 H 0.61682 0.00534 0.05643 0.0
H1927 H 0.54597 0.9637 0.12895 0.0
H1928 H 0.58141 0.96128 0.04457 0.0
H1929 H 0.58105 0.00783 0.14103 0.0
H1930 H 0.55858 0.96291 0.09744 0.0
H1931 H 0.60369 0.00676 0.08696 0.0
C1932 C 0.6063 0.99597 0.0602 0.0
C1933 C 0.60027 0.98315 0.04788 0.0
C1934 C 0.56351 0.9728 0.10692 0.0
C1935 C 0.58515 0.98473 0.08286 0.0
C1936 C 0.55633 0.97323 0.12497 0.0
C1937 C 0.56246 0.98583 0.1377 0.0
C1938 C 0.57698 0.98504 0.10154 0.0
C1939 C 0.57582 0.99794 0.13158 0.0
C1940 C 0.59879 0.9968 0.07765 0.0
C1941 C 0.58656 0.97138 0.05359 0.0
N1942 N 0.58265 0.99722 0.114 0.0
N1943 N 0.5795 0.97245 0.07064 0.0
H1944 H 0.0285 0.61888 0.05402 0.0
H1945 H 0.97105 0.57403 0.14436 0.0
H1946 H 0.98664 0.61716 0.05943 0.0
H1947 H 0.01378 0.57779 0.13949 0.0
H1948 H 0.97605 0.5891 0.1127 0.0
H1949 H 0.02296 0.60351 0.08509 0.0
C1950 C 0.01815 0.61534 0.06176 0.0
C1951 C 0.00803 0.61938 0.05402 0.0
C1952 C 0.98431 0.5866 0.11856 0.0
C1953 C 0.00157 0.60159 0.08973 0.0
C1954 C 0.98142 0.57791 0.13652 0.0
C1955 C 0.99204 0.57469 0.14463 0.0
C1956 C 0.99789 0.59206 0.10859 0.0
C1957 C 0.00536 0.58017 0.13399 0.0
C1958 C 0.01498 0.60651 0.07954 0.0
C1959 C 0.9948 0.61437 0.06481 0.0
N1960 N 0.0079 0.58858 0.11657 0.0
N1961 N 0.99194 0.60572 0.08209 0.0
H1962 H 0.37996 0.36701 0.08103 0.0
H1963 H 0.44508 0.44007 0.13246 0.0
H1964 H 0.3985 0.40932 0.05081 0.0
H1965 H 0.42112 0.39868 0.16507 0.0
H1966 H 0.42868 0.42925 0.1021 0.0
H1967 H 0.39525 0.37864 0.11195 0.0
C1968 C 0.38736 0.37878 0.08097 0.0
C1969 C 0.38845 0.38721 0.06325 0.0
C1970 C 0.42703 0.42258 0.11594 0.0
C1971 C 0.40582 0.40068 0.09855 0.0
C1972 C 0.43636 0.42875 0.13329 0.0
C1973 C 0.43456 0.42026 0.15134 0.0
C1974 C 0.41581 0.40783 0.11667 0.0
C1975 C 0.42315 0.40559 0.1514 0.0
C1976 C 0.39602 0.38545 0.09862 0.0
C1977 C 0.3977 0.40247 0.0641 0.0
N1978 N 0.41426 0.39986 0.13437 0.0
N1979 N 0.40625 0.40874 0.08139 0.0
H1980 H 0.65065 0.71903 0.37822 0.0
H1981 H 0.68104 0.76373 0.48386 0.0
H1982 H 0.69691 0.74248 0.39297 0.0
H1983 H 0.64324 0.76106 0.45175 0.0
H1984 H 0.68579 0.75291 0.45328 0.0
H1985 H 0.64626 0.73094 0.40815 0.0
C1986 C 0.65986 0.7266 0.38783 0.0
C1987 C 0.67417 0.72976 0.38314 0.0
C1988 C 0.67651 0.75478 0.45297 0.0
C1989 C 0.6692 0.74328 0.41737 0.0
C1990 C 0.67381 0.76109 0.47037 0.0
C1991 C 0.66172 0.76347 0.47053 0.0
C1992 C 0.66689 0.75047 0.43571 0.0
C1993 C 0.65255 0.75926 0.45265 0.0
C1994 C 0.65736 0.73346 0.40477 0.0
C1995 C 0.68572 0.73978 0.396 0.0
N1996 N 0.65525 0.75287 0.43605 0.0
N1997 N 0.68297 0.74609 0.41265 0.0
H1998 H 0.26016 0.93824 0.38291 0.0
H1999 H 0.26813 0.9051 0.49242 0.0
H2000 H 0.3014 0.95185 0.41452 0.0
H2001 H 0.22678 0.89978 0.47012 0.0
H2002 H 0.2802 0.92079 0.46234 0.0
H2003 H 0.24732 0.92314 0.41359 0.0
C2004 C 0.26646 0.938 0.39635 0.0
C2005 C 0.28181 0.9457 0.39601 0.0
C2006 C 0.26848 0.9162 0.46398 0.0
C2007 C 0.26737 0.92883 0.43101 0.0
C2008 C 0.26156 0.90712 0.48105 0.0
C2009 C 0.24641 0.90107 0.48373 0.0
C2010 C 0.26021 0.9192 0.4493 0.0
C2011 C 0.23849 0.90429 0.46869 0.0
C2012 C 0.25918 0.92944 0.4138 0.0
C2013 C 0.28954 0.94551 0.41393 0.0
N2014 N 0.24548 0.9131 0.45205 0.0
N2015 N 0.28226 0.93706 0.43063 0.0
H2016 H 0.05857 0.31849 0.37477 0.0
H2017 H 0.08418 0.34274 0.49375 0.0
H2018 H 0.04529 0.3442 0.41174 0.0
H2019 H 0.09927 0.31841 0.45669 0.0
H2020 H 0.0698 0.34319 0.46381 0.0
H2021 H 0.07288 0.31743 0.40488 0.0
C2022 C 0.05874 0.32392 0.38927 0.0
C2023 C 0.05133 0.33194 0.39071 0.0
C2024 C 0.07624 0.33774 0.4622 0.0
C2025 C 0.06725 0.33055 0.42516 0.0
C2026 C 0.0846 0.3376 0.47926 0.0
C2027 C 0.09303 0.33056 0.47778 0.0
C2028 C 0.07618 0.33071 0.44347 0.0
C2029 C 0.09282 0.32382 0.45867 0.0
C2030 C 0.06687 0.32333 0.40641 0.0
C2031 C 0.05139 0.3384 0.4099 0.0
N2032 N 0.08452 0.32405 0.44227 0.0
N2033 N 0.05933 0.33767 0.42636 0.0
H2034 H 0.08018 0.36126 0.30295 0.0
H2035 H 0.06775 0.30562 0.20898 0.0
H2036 H 0.03952 0.32096 0.29194 0.0
H2037 H 0.10795 0.34652 0.21885 0.0
H2038 H 0.05739 0.31087 0.23966 0.0
H2039 H 0.09052 0.35603 0.2723 0.0
C2040 C 0.07337 0.35134 0.29407 0.0
C2041 C 0.05891 0.34154 0.30012 0.0
C2042 C 0.06849 0.3187 0.23515 0.0
C2043 C 0.0708 0.33545 0.26492 0.0
C2044 C 0.07447 0.31565 0.21772 0.0
C2045 C 0.08879 0.32562 0.21134 0.0
C2046 C 0.07687 0.33182 0.24638 0.0
C2047 C 0.09683 0.33858 0.22305 0.0
C2048 C 0.07932 0.34835 0.27655 0.0
C2049 C 0.0507 0.32885 0.28792 0.0
N2050 N 0.09077 0.3413 0.24 0.0
N2051 N 0.05677 0.32617 0.27096 0.0
H2052 H 0.65885 0.73315 0.30277 0.0
H2053 H 0.69339 0.7542 0.18796 0.0
H2054 H 0.68237 0.71398 0.27371 0.0
H2055 H 0.67469 0.77762 0.21914 0.0
H2056 H 0.68835 0.73863 0.21873 0.0
H2057 H 0.66276 0.74834 0.2713 0.0
C2058 C 0.66483 0.73219 0.2897 0.0
C2059 C 0.67082 0.72283 0.29093 0.0
C2060 C 0.68533 0.74717 0.21887 0.0
C2061 C 0.67504 0.73973 0.25499 0.0
C2062 C 0.68835 0.75619 0.20135 0.0
C2063 C 0.68454 0.76733 0.20093 0.0
C2064 C 0.67833 0.74917 0.23615 0.0
C2065 C 0.67768 0.76908 0.21863 0.0
C2066 C 0.66707 0.74082 0.27181 0.0
C2067 C 0.67808 0.72152 0.27352 0.0
N2068 N 0.67479 0.76009 0.23553 0.0
N2069 N 0.68009 0.72997 0.25629 0.0
H2070 H 0.28905 0.96116 0.28874 0.0
H2071 H 0.2258 0.89121 0.2297 0.0
H2072 H 0.27054 0.91716 0.31382 0.0
H2073 H 0.26073 0.92677 0.19583 0.0
H2074 H 0.23808 0.90301 0.26287 0.0
H2075 H 0.27474 0.95085 0.25632 0.0
C2076 C 0.28188 0.94937 0.28753 0.0
C2077 C 0.28101 0.94 0.304 0.0
C2078 C 0.24294 0.90827 0.24815 0.0
C2079 C 0.26452 0.92827 0.26729 0.0
C2080 C 0.23593 0.90162 0.22933 0.0
C2081 C 0.24235 0.90806 0.21018 0.0
C2082 C 0.25627 0.92158 0.24772 0.0
C2083 C 0.25553 0.92149 0.21038 0.0
C2084 C 0.27379 0.94353 0.26905 0.0
C2085 C 0.2716 0.9248 0.30154 0.0
N2086 N 0.26208 0.92786 0.2289 0.0
N2087 N 0.26366 0.91942 0.28358 0.0
H2088 H 0.6607 0.9311 0.30923 0.0
H2089 H 0.70244 0.93728 0.20235 0.0
H2090 H 0.68706 0.97188 0.2766 0.0
H2091 H 0.66756 0.89599 0.22528 0.0
H2092 H 0.69839 0.94994 0.23137 0.0
H2093 H 0.66388 0.91773 0.27994 0.0
C2094 C 0.66717 0.93719 0.29586 0.0
C2095 C 0.67418 0.95259 0.29555 0.0
C2096 C 0.69162 0.93811 0.2301 0.0
C2097 C 0.67765 0.93752 0.26207 0.0
C2098 C 0.69403 0.93085 0.21365 0.0
C2099 C 0.68535 0.91554 0.21143 0.0
C2100 C 0.68052 0.93002 0.24459 0.0
C2101 C 0.67444 0.90782 0.22635 0.0
C2102 C 0.66896 0.9296 0.27919 0.0
C2103 C 0.68203 0.96003 0.27771 0.0
N2104 N 0.67235 0.91514 0.24235 0.0
N2105 N 0.6837 0.95244 0.26176 0.0
H2106 H 0.08093 0.72091 0.30396 0.0
H2107 H 0.07259 0.76852 0.2114 0.0
H2108 H 0.04308 0.72665 0.29582 0.0
H2109 H 0.1098 0.7617 0.21844 0.0
H2110 H 0.06185 0.75363 0.2427 0.0
H2111 H 0.09172 0.73595 0.27286 0.0
C2112 C 0.07483 0.72527 0.29563 0.0
C2113 C 0.06102 0.72245 0.3026 0.0
C2114 C 0.07237 0.7554 0.23743 0.0
C2115 C 0.07344 0.7398 0.2669 0.0
C2116 C 0.07857 0.764 0.21963 0.0
C2117 C 0.09215 0.7664 0.21227 0.0
C2118 C 0.07979 0.74914 0.24803 0.0
C2119 C 0.09925 0.76002 0.22339 0.0
C2120 C 0.08104 0.73389 0.27785 0.0
C2121 C 0.05373 0.72848 0.29109 0.0
N2122 N 0.09299 0.7517 0.2407 0.0
N2123 N 0.06003 0.73687 0.27385 0.0
H2124 H 0.27109 0.34475 0.30483 0.0
H2125 H 0.23882 0.30366 0.19543 0.0
H2126 H 0.28659 0.31858 0.27377 0.0
H2127 H 0.23134 0.3383 0.21781 0.0
H2128 H 0.25462 0.30738 0.2259 0.0
H2129 H 0.25521 0.34157 0.27432 0.0
C2130 C 0.27109 0.33832 0.29154 0.0
C2131 C 0.2796 0.33139 0.29197 0.0
C2132 C 0.24951 0.31416 0.22417 0.0
C2133 C 0.26183 0.3279 0.25716 0.0
C2134 C 0.24038 0.31194 0.20689 0.0
C2135 C 0.23377 0.3207 0.2041 0.0
C2136 C 0.25197 0.32513 0.23888 0.0
C2137 C 0.23634 0.33141 0.21929 0.0
C2138 C 0.26209 0.33652 0.27419 0.0
C2139 C 0.27967 0.32357 0.27426 0.0
N2140 N 0.24522 0.33332 0.23607 0.0
N2141 N 0.27078 0.32189 0.25763 0.0
H2142 H 0.25533 0.3062 0.38513 0.0
H2143 H 0.26389 0.36647 0.46962 0.0
H2144 H 0.2927 0.35003 0.38837 0.0
H2145 H 0.2286 0.3215 0.46984 0.0
H2146 H 0.27396 0.36102 0.43872 0.0
H2147 H 0.24494 0.31187 0.41534 0.0
C2148 C 0.2614 0.317 0.3922 0.0
C2149 C 0.27496 0.32763 0.38414 0.0
C2150 C 0.26399 0.35235 0.44549 0.0
C2151 C 0.26301 0.33423 0.41877 0.0
C2152 C 0.25817 0.35548 0.46304 0.0
C2153 C 0.24538 0.34442 0.47234 0.0
C2154 C 0.25695 0.33805 0.43711 0.0
C2155 C 0.23857 0.33032 0.46332 0.0
C2156 C 0.25543 0.32024 0.40947 0.0
C2157 C 0.28225 0.34146 0.39401 0.0
N2158 N 0.24444 0.32754 0.44623 0.0
N2159 N 0.27617 0.34435 0.41076 0.0
H2160 H 0.65961 0.95556 0.3971 0.0
H2161 H 0.6743 0.89946 0.4646 0.0
H2162 H 0.69455 0.9464 0.38325 0.0
H2163 H 0.64987 0.91979 0.48742 0.0
H2164 H 0.6802 0.91469 0.43305 0.0
H2165 H 0.65409 0.94041 0.42855 0.0
C2166 C 0.66613 0.95036 0.40064 0.0
C2167 C 0.67758 0.95229 0.38747 0.0
C2168 C 0.67355 0.91578 0.445 0.0
C2169 C 0.67123 0.93483 0.42349 0.0
C2170 C 0.67021 0.90714 0.46308 0.0
C2171 C 0.66152 0.90826 0.47878 0.0
C2172 C 0.66806 0.92554 0.44248 0.0
C2173 C 0.65635 0.91826 0.47564 0.0
C2174 C 0.66299 0.94174 0.41865 0.0
C2175 C 0.68566 0.94529 0.39296 0.0
N2176 N 0.65966 0.92646 0.45787 0.0
N2177 N 0.68229 0.93681 0.41051 0.0
H2178 H 0.04671 0.70325 0.41364 0.0
H2179 H 0.10801 0.7775 0.46828 0.0
H2180 H 0.06618 0.74529 0.38253 0.0
H2181 H 0.08993 0.73423 0.49576 0.0
H2182 H 0.09211 0.76653 0.43743 0.0
H2183 H 0.06147 0.71506 0.44488 0.0
C2184 C 0.05423 0.715 0.41343 0.0
C2185 C 0.05574 0.72328 0.39539 0.0
C2186 C 0.09166 0.75947 0.45023 0.0
C2187 C 0.07248 0.73697 0.43109 0.0
C2188 C 0.10069 0.76572 0.46785 0.0
C2189 C 0.10038 0.75676 0.48457 0.0
C2190 C 0.08218 0.74419 0.44946 0.0
C2191 C 0.09075 0.74155 0.48312 0.0
C2192 C 0.06259 0.72176 0.43127 0.0
C2193 C 0.06508 0.73854 0.39608 0.0
N2194 N 0.08206 0.73577 0.46592 0.0
N2195 N 0.07329 0.74492 0.41361 0.0
H2196 H 0.31913 0.04503 0.72557 0.0
H2197 H 0.3459 0.11599 0.79889 0.0
H2198 H 0.36018 0.08524 0.71715 0.0
H2199 H 0.30557 0.07516 0.80764 0.0
H2200 H 0.35128 0.10517 0.76864 0.0
H2201 H 0.31395 0.05613 0.75544 0.0
C2202 C 0.32709 0.05619 0.72999 0.0
C2203 C 0.34014 0.06418 0.71876 0.0
C2204 C 0.34123 0.09861 0.77715 0.0
C2205 C 0.33421 0.07702 0.75307 0.0
C2206 C 0.33818 0.10476 0.79446 0.0
C2207 C 0.32523 0.09651 0.80582 0.0
C2208 C 0.3313 0.08407 0.77116 0.0
C2209 C 0.31556 0.08205 0.79919 0.0
C2210 C 0.32411 0.06253 0.74708 0.0
C2211 C 0.35 0.07861 0.72532 0.0
N2212 N 0.3188 0.07631 0.78237 0.0
N2213 N 0.34682 0.08456 0.74201 0.0
H2214 H 0.96894 0.28548 0.74989 0.0
H2215 H 0.89153 0.23588 0.80374 0.0
H2216 H 0.92833 0.27073 0.71594 0.0
H2217 H 0.93118 0.23656 0.82435 0.0
H2218 H 0.90475 0.25114 0.7735 0.0
H2219 H 0.9552 0.27065 0.78006 0.0
C2220 C 0.95711 0.27897 0.7488 0.0
C2221 C 0.94973 0.2787 0.73024 0.0
C2222 C 0.91051 0.24788 0.78461 0.0
C2223 C 0.93395 0.26213 0.76468 0.0
C2224 C 0.903 0.23921 0.80183 0.0
C2225 C 0.91029 0.23494 0.81649 0.0
C2226 C 0.92547 0.25254 0.78231 0.0
C2227 C 0.92513 0.2395 0.8133 0.0
C2228 C 0.94929 0.27059 0.76598 0.0
C2229 C 0.93438 0.27079 0.72987 0.0
N2230 N 0.93227 0.24816 0.79665 0.0
N2231 N 0.92695 0.26266 0.74681 0.0
H2232 H 0.71466 0.68749 0.74037 0.0
H2233 H 0.77049 0.66684 0.79762 0.0
H2234 H 0.72882 0.65922 0.71241 0.0
H2235 H 0.76213 0.70125 0.81844 0.0
H2236 H 0.75404 0.66241 0.76755 0.0
H2237 H 0.73028 0.6907 0.77095 0.0
C2238 C 0.7212 0.68207 0.74069 0.0
C2239 C 0.72103 0.67361 0.72365 0.0
C2240 C 0.75586 0.67096 0.77868 0.0
C2241 C 0.73865 0.67693 0.75857 0.0
C2242 C 0.76521 0.67347 0.79584 0.0
C2243 C 0.7677 0.68445 0.81053 0.0
C2244 C 0.74883 0.67937 0.77634 0.0
C2245 C 0.76068 0.6928 0.80737 0.0
C2246 C 0.73005 0.68383 0.75813 0.0
C2247 C 0.72906 0.66618 0.7251 0.0
N2248 N 0.75152 0.69004 0.79069 0.0
N2249 N 0.73773 0.66816 0.74219 0.0
H2250 H 0.70941 0.65074 0.63213 0.0
H2251 H 0.76719 0.67876 0.53917 0.0
H2252 H 0.74388 0.69588 0.62611 0.0
H2253 H 0.74179 0.63298 0.55669 0.0
H2254 H 0.75771 0.68533 0.56956 0.0
H2255 H 0.71972 0.64411 0.60266 0.0
C2256 C 0.7191 0.65928 0.62458 0.0
C2257 C 0.72576 0.67391 0.63163 0.0
C2258 C 0.75428 0.67385 0.5668 0.0
C2259 C 0.73761 0.66636 0.59788 0.0
C2260 C 0.75978 0.67008 0.54951 0.0
C2261 C 0.75532 0.65526 0.54525 0.0
C2262 C 0.7441 0.66275 0.57987 0.0
C2263 C 0.74538 0.64452 0.55906 0.0
C2264 C 0.72503 0.65546 0.60783 0.0
C2265 C 0.73837 0.68447 0.62127 0.0
N2266 N 0.74005 0.64847 0.57565 0.0
N2267 N 0.74384 0.68049 0.60489 0.0
H2268 H 0.34775 0.04792 0.60932 0.0
H2269 H 0.34033 0.11313 0.55509 0.0
H2270 H 0.32434 0.06746 0.63765 0.0
H2271 H 0.35645 0.08749 0.52368 0.0
H2272 H 0.3346 0.09698 0.58571 0.0
H2273 H 0.35097 0.06248 0.57771 0.0
C2274 C 0.34334 0.05537 0.6088 0.0
C2275 C 0.33625 0.05698 0.62619 0.0
C2276 C 0.33934 0.09489 0.57206 0.0
C2277 C 0.3397 0.07354 0.59014 0.0
C2278 C 0.3426 0.10408 0.55457 0.0
C2279 C 0.34899 0.10174 0.53681 0.0
C2280 C 0.34248 0.08328 0.57175 0.0
C2281 C 0.35182 0.08993 0.53713 0.0
C2282 C 0.34509 0.06361 0.59076 0.0
C2283 C 0.3302 0.06628 0.62462 0.0
N2284 N 0.34859 0.08119 0.55431 0.0
N2285 N 0.33227 0.07444 0.60698 0.0
H2286 H 0.95011 0.24945 0.64278 0.0
H2287 H 0.91077 0.25838 0.53969 0.0
H2288 H 0.9483 0.28906 0.62872 0.0
H2289 H 0.91395 0.21968 0.5546 0.0
H2290 H 0.92351 0.26958 0.57274 0.0
H2291 H 0.93613 0.23829 0.61094 0.0
C2292 C 0.9468 0.25585 0.633 0.0
C2293 C 0.95049 0.27029 0.63849 0.0
C2294 C 0.92139 0.25863 0.56878 0.0
C2295 C 0.93433 0.25743 0.60177 0.0
C2296 C 0.91404 0.2522 0.54998 0.0
C2297 C 0.91138 0.23811 0.54429 0.0
C2298 C 0.92605 0.25089 0.582 0.0
C2299 C 0.91599 0.23066 0.55815 0.0
C2300 C 0.93877 0.24942 0.61477 0.0
C2301 C 0.94576 0.27792 0.62514 0.0
N2302 N 0.9231 0.23715 0.57628 0.0
N2303 N 0.93795 0.27141 0.60738 0.0
H2304 H 0.35937 0.3106 0.60874 0.0
H2305 H 0.33388 0.23723 0.54468 0.0
H2306 H 0.3288 0.26854 0.63499 0.0
H2307 H 0.37836 0.27341 0.54205 0.0
H2308 H 0.32939 0.24914 0.57426 0.0
H2309 H 0.36353 0.29796 0.57947 0.0
C2310 C 0.35369 0.29869 0.60839 0.0
C2311 C 0.34431 0.29052 0.62466 0.0
C2312 C 0.34012 0.25439 0.56717 0.0
C2313 C 0.34851 0.27608 0.59109 0.0
C2314 C 0.34279 0.24755 0.55037 0.0
C2315 C 0.35656 0.25427 0.54063 0.0
C2316 C 0.35116 0.2682 0.57402 0.0
C2317 C 0.36747 0.2679 0.54859 0.0
C2318 C 0.35598 0.29151 0.59171 0.0
C2319 C 0.33648 0.27515 0.62298 0.0
N2320 N 0.36448 0.27447 0.56465 0.0
N2321 N 0.33883 0.26837 0.60652 0.0
H2322 H 0.70733 0.06089 0.62848 0.0
H2323 H 0.77606 0.09782 0.55138 0.0
H2324 H 0.74642 0.0573 0.63662 0.0
H2325 H 0.73833 0.10386 0.54519 0.0
H2326 H 0.76508 0.08251 0.58227 0.0
H2327 H 0.71816 0.0761 0.59744 0.0
C2328 C 0.71815 0.06323 0.62373 0.0
C2329 C 0.72594 0.05776 0.63526 0.0
C2330 C 0.75921 0.08721 0.5742 0.0
C2331 C 0.73843 0.07526 0.59971 0.0
C2332 C 0.76545 0.09591 0.55651 0.0
C2333 C 0.75811 0.10214 0.54566 0.0
C2334 C 0.74546 0.08463 0.5811 0.0
C2335 C 0.74447 0.09944 0.5532 0.0
C2336 C 0.72435 0.07196 0.60601 0.0
C2337 C 0.73995 0.06123 0.6283 0.0
N2338 N 0.73857 0.09085 0.5704 0.0
N2339 N 0.74573 0.06974 0.61102 0.0
H2340 H 0.93972 0.68354 0.63241 0.0
H2341 H 0.90173 0.63454 0.53181 0.0
H2342 H 0.9516 0.65254 0.60794 0.0
H2343 H 0.90551 0.67746 0.53901 0.0
H2344 H 0.91808 0.63977 0.56169 0.0
H2345 H 0.92505 0.68039 0.6004 0.0
C2346 C 0.93921 0.67609 0.62026 0.0
C2347 C 0.94629 0.6678 0.62301 0.0
C2348 C 0.9152 0.64797 0.55682 0.0
C2349 C 0.92987 0.66429 0.58661 0.0
C2350 C 0.90596 0.64508 0.53952 0.0
C2351 C 0.90219 0.65559 0.53248 0.0
C2352 C 0.92037 0.66123 0.56782 0.0
C2353 C 0.90777 0.66884 0.54388 0.0
C2354 C 0.93091 0.67432 0.60206 0.0
C2355 C 0.94573 0.65862 0.60668 0.0
N2356 N 0.91648 0.67122 0.56107 0.0
N2357 N 0.93747 0.65694 0.58929 0.0
H2358 H 0.92118 0.64453 0.72057 0.0
H2359 H 0.92731 0.70862 0.79512 0.0
H2360 H 0.95675 0.68932 0.71705 0.0
H2361 H 0.90035 0.66236 0.809 0.0
H2362 H 0.93651 0.70212 0.76424 0.0
H2363 H 0.91166 0.65129 0.75075 0.0
C2364 C 0.92701 0.6558 0.72612 0.0
C2365 C 0.93984 0.66636 0.71625 0.0
C2366 C 0.92856 0.69341 0.77405 0.0
C2367 C 0.92888 0.67418 0.7508 0.0
C2368 C 0.92332 0.6971 0.79175 0.0
C2369 C 0.91302 0.68604 0.80483 0.0
C2370 C 0.92339 0.67855 0.76923 0.0
C2371 C 0.90807 0.6713 0.7993 0.0
C2372 C 0.92156 0.65963 0.74339 0.0
C2373 C 0.94688 0.68078 0.72421 0.0
N2374 N 0.9133 0.668 0.78196 0.0
N2375 N 0.94128 0.68428 0.74097 0.0
H2376 H 0.32079 0.28332 0.7202 0.0
H2377 H 0.34408 0.23951 0.80139 0.0
H2378 H 0.36195 0.28331 0.71787 0.0
H2379 H 0.30346 0.24042 0.80493 0.0
H2380 H 0.35033 0.25472 0.76986 0.0
H2381 H 0.3138 0.26682 0.75035 0.0
C2382 C 0.32837 0.27986 0.72598 0.0
C2383 C 0.34203 0.28481 0.71647 0.0
C2384 C 0.34002 0.25156 0.77748 0.0
C2385 C 0.33404 0.26584 0.75106 0.0
C2386 C 0.33647 0.24291 0.79553 0.0
C2387 C 0.32325 0.23874 0.8059 0.0
C2388 C 0.33031 0.25611 0.7697 0.0
C2389 C 0.3137 0.24326 0.79736 0.0
C2390 C 0.32436 0.27042 0.74323 0.0
C2391 C 0.35135 0.27988 0.72471 0.0
N2392 N 0.31745 0.25175 0.77983 0.0
N2393 N 0.34718 0.2707 0.74152 0.0
H2394 H 0.71538 0.04156 0.74667 0.0
H2395 H 0.75743 0.12045 0.80059 0.0
H2396 H 0.72802 0.08146 0.71195 0.0
H2397 H 0.75838 0.08244 0.82556 0.0
H2398 H 0.74515 0.10632 0.76888 0.0
H2399 H 0.72944 0.05625 0.77698 0.0
C2400 C 0.72139 0.05344 0.74538 0.0
C2401 C 0.72115 0.06037 0.72664 0.0
C2402 C 0.74816 0.10113 0.78125 0.0
C2403 C 0.73665 0.07724 0.76136 0.0
C2404 C 0.75509 0.10915 0.79934 0.0
C2405 C 0.75892 0.10259 0.81568 0.0
C2406 C 0.7448 0.08638 0.77969 0.0
C2407 C 0.75573 0.08796 0.81324 0.0
C2408 C 0.7293 0.06182 0.76267 0.0
C2409 C 0.72834 0.07577 0.72603 0.0
N2410 N 0.74875 0.08031 0.79567 0.0
N2411 N 0.73587 0.08374 0.74316 0.0
H2412 H 0.01785 0.33772 0.02658 0.0
H2413 H 0.09223 0.35489 0.08445 0.0
H2414 H 0.0567 0.38058 0.0265 0.0
H2415 H 0.06016 0.31089 0.06511 0.0
H2416 H 0.07842 0.36442 0.06553 0.0
H2417 H 0.03211 0.32756 0.04335 0.0
C2418 C 0.02935 0.34499 0.03009 0.0
C2419 C 0.03607 0.36004 0.02515 0.0
C2420 C 0.07445 0.35269 0.06531 0.0
C2421 C 0.05236 0.3485 0.04436 0.0
C2422 C 0.08241 0.34721 0.07599 0.0
C2423 C 0.07746 0.33201 0.07637 0.0
C2424 C 0.06128 0.34294 0.05512 0.0
C2425 C 0.06435 0.32265 0.06556 0.0
C2426 C 0.03748 0.33917 0.03955 0.0
C2427 C 0.05103 0.36891 0.02996 0.0
N2428 N 0.05667 0.32825 0.05549 0.0
N2429 N 0.05863 0.36303 0.0394 0.0
H2430 H 0.65567 0.67116 0.06898 0.0
H2431 H 0.67741 0.7537 0.04116 0.0
H2432 H 0.65099 0.68347 0.00583 0.0
H2433 H 0.66146 0.73419 0.10179 0.0
H2434 H 0.67103 0.72922 0.02746 0.0
H2435 H 0.66155 0.69565 0.08102 0.0
C2436 C 0.65597 0.67906 0.05762 0.0
C2437 C 0.6528 0.67527 0.03638 0.0
C2438 C 0.66883 0.73034 0.0437 0.0
C2439 C 0.65959 0.70335 0.05007 0.0
C2440 C 0.67247 0.74425 0.0515 0.0
C2441 C 0.66983 0.74592 0.07257 0.0
C2442 C 0.66287 0.71815 0.05723 0.0
C2443 C 0.66347 0.73336 0.08537 0.0
C2444 C 0.65924 0.69299 0.06453 0.0
C2445 C 0.65331 0.68593 0.02236 0.0
N2446 N 0.66035 0.72005 0.07756 0.0
N2447 N 0.65672 0.69955 0.02943 0.0
H2448 H 0.32108 0.9901 0.05814 0.0
H2449 H 0.25244 0.90914 0.04639 0.0
H2450 H 0.31422 0.96208 0.0048 0.0
H2451 H 0.2586 0.93837 0.09789 0.0
H2452 H 0.2737 0.92915 0.02912 0.0
H2453 H 0.29696 0.97214 0.07114 0.0
C2454 C 0.31444 0.98023 0.04905 0.0
C2455 C 0.31973 0.97753 0.03045 0.0
C2456 C 0.27028 0.93124 0.04408 0.0
C2457 C 0.2921 0.95683 0.04533 0.0
C2458 C 0.25816 0.9198 0.05397 0.0
C2459 C 0.25376 0.92202 0.0737 0.0
C2460 C 0.27814 0.94498 0.05405 0.0
C2461 C 0.26148 0.93614 0.08262 0.0
C2462 C 0.30065 0.96996 0.05649 0.0
C2463 C 0.31061 0.96458 0.01928 0.0
N2464 N 0.27336 0.947 0.07285 0.0
N2465 N 0.2973 0.95464 0.027 0.0
H2466 H 0.33443 0.02203 0.98779 0.0
H2467 H 0.35286 0.097 0.92978 0.0
H2468 H 0.37821 0.05905 0.98281 0.0
H2469 H 0.3093 0.06593 0.9507 0.0
H2470 H 0.36217 0.08243 0.94719 0.0
H2471 H 0.3248 0.03695 0.97171 0.0
C2472 C 0.34203 0.03325 0.98325 0.0
C2473 C 0.35717 0.03927 0.98666 0.0
C2474 C 0.35058 0.07884 0.94808 0.0
C2475 C 0.34621 0.05636 0.96827 0.0
C2476 C 0.34524 0.08724 0.93828 0.0
C2477 C 0.33023 0.08278 0.93879 0.0
C2478 C 0.34086 0.06573 0.95832 0.0
C2479 C 0.32091 0.06974 0.9496 0.0
C2480 C 0.33651 0.04178 0.97419 0.0
C2481 C 0.36647 0.05392 0.98056 0.0
N2482 N 0.32636 0.06164 0.95884 0.0
N2483 N 0.36084 0.06192 0.97161 0.0
H2484 H 0.98687 0.32397 0.96193 0.0
H2485 H 0.90662 0.25425 0.97046 0.0
H2486 H 0.95693 0.32004 0.01062 0.0
H2487 H 0.94045 0.25676 0.92992 0.0
H2488 H 0.92443 0.27808 0.98578 0.0
H2489 H 0.96966 0.2991 0.95045 0.0
C2490 C 0.97667 0.31783 0.97029 0.0
C2491 C 0.9733 0.32412 0.98721 0.0
C2492 C 0.92795 0.2733 0.97368 0.0
C2493 C 0.95337 0.29552 0.97399 0.0
C2494 C 0.91778 0.25975 0.96488 0.0
C2495 C 0.92204 0.25344 0.94893 0.0
C2496 C 0.94241 0.28065 0.9663 0.0
C2497 C 0.93668 0.26102 0.9424 0.0
C2498 C 0.96683 0.30358 0.96373 0.0
C2499 C 0.95994 0.31559 0.9975 0.0
N2500 N 0.94626 0.27421 0.951 0.0
N2501 N 0.95038 0.30174 0.99061 0.0
H2502 H 0.68032 0.66018 0.98166 0.0
H2503 H 0.75362 0.65602 0.9631 0.0
H2504 H 0.68642 0.62436 0.00376 0.0
H2505 H 0.74323 0.68605 0.93021 0.0
H2506 H 0.73009 0.64571 0.98099 0.0
H2507 H 0.70452 0.67134 0.96565 0.0
C2508 C 0.68673 0.65466 0.9832 0.0
C2509 C 0.68124 0.64125 0.99399 0.0
C2510 C 0.73302 0.65461 0.96991 0.0
C2511 C 0.70902 0.65403 0.97576 0.0
C2512 C 0.74643 0.66047 0.95963 0.0
C2513 C 0.75049 0.67196 0.94509 0.0
C2514 C 0.72358 0.66029 0.96572 0.0
C2515 C 0.74077 0.6774 0.94153 0.0
C2516 C 0.70055 0.66104 0.97401 0.0
C2517 C 0.69011 0.63464 0.99546 0.0
N2518 N 0.72779 0.67152 0.95173 0.0
N2519 N 0.70354 0.6411 0.98647 0.0
H2520 H 0.96598 0.65698 0.01252 0.0
H2521 H 0.92938 0.66708 0.90828 0.0
H2522 H 0.98324 0.65956 0.95057 0.0
H2523 H 0.9241 0.68336 0.96772 0.0
H2524 H 0.94659 0.66069 0.92479 0.0
H2525 H 0.94838 0.66377 0.99757 0.0
C2526 C 0.96612 0.65904 0.99584 0.0
C2527 C 0.97607 0.6577 0.98276 0.0
C2528 C 0.94165 0.66562 0.93427 0.0
C2529 C 0.95592 0.66517 0.96564 0.0
C2530 C 0.93171 0.66913 0.92491 0.0
C2531 C 0.92524 0.67568 0.93669 0.0
C2532 C 0.94509 0.66853 0.95567 0.0
C2533 C 0.92889 0.67835 0.9581 0.0
C2534 C 0.95611 0.66292 0.98736 0.0
C2535 C 0.9758 0.66049 0.96126 0.0
N2536 N 0.93854 0.6747 0.96698 0.0
N2537 N 0.96581 0.66396 0.95337 0.0
H2538 H 0.37922 0.32613 0.99021 0.0
H2539 H 0.30805 0.25135 0.95638 0.0
H2540 H 0.3355 0.31993 0.99526 0.0
H2541 H 0.35153 0.2647 0.93384 0.0
H2542 H 0.31782 0.27492 0.97467 0.0
H2543 H 0.3691 0.3021 0.97358 0.0
C2544 C 0.36747 0.31972 0.98787 0.0
C2545 C 0.35821 0.32513 0.99413 0.0
C2546 C 0.32519 0.27262 0.96576 0.0
C2547 C 0.34652 0.29743 0.97511 0.0
C2548 C 0.31964 0.25917 0.95525 0.0
C2549 C 0.32894 0.25594 0.94341 0.0
C2550 C 0.34019 0.28288 0.96465 0.0
C2551 C 0.34392 0.26648 0.94298 0.0
C2552 C 0.36171 0.30599 0.9783 0.0
C2553 C 0.34306 0.31626 0.99058 0.0
N2554 N 0.34905 0.27943 0.95341 0.0
N2555 N 0.33768 0.30281 0.98137 0.0
H2556 H 0.67316 0.04179 0.01023 0.0
H2557 H 0.74881 0.06834 0.9524 0.0
H2558 H 0.67978 0.01241 0.97028 0.0
H2559 H 0.72831 0.09548 0.95607 0.0
H2560 H 0.72688 0.04804 0.96784 0.0
H2561 H 0.69713 0.06201 -0.0003 0.0
C2562 C 0.67976 0.03955 -0.00049 0.0
C2563 C 0.67447 0.02545 0.99098 0.0
C2564 C 0.72737 0.05855 0.9654 0.0
C2565 C 0.70187 0.04841 0.97921 0.0
C2566 C 0.73984 0.07017 0.95643 0.0
C2567 C 0.74056 0.08381 0.95254 0.0
C2568 C 0.71567 0.06065 0.9711 0.0
C2569 C 0.72861 0.08542 0.95894 0.0
C2570 C 0.69336 0.05108 0.99347 0.0
C2571 C 0.68343 0.02316 0.97707 0.0
N2572 N 0.71671 0.07401 0.96788 0.0
N2573 N 0.69674 0.03453 0.97163 0.0
H2574 H 0.65877 0.98026 0.04208 0.0
H2575 H 0.65712 0.90333 0.05872 0.0
H2576 H 0.62615 0.93925 0.01436 0.0
H2577 H 0.68506 0.9425 0.09449 0.0
H2578 H 0.64702 0.91689 0.04007 0.0
H2579 H 0.67001 0.96716 0.05915 0.0
C2580 C 0.65397 0.96853 0.03954 0.0
C2581 C 0.64142 0.96086 0.02684 0.0
C2582 C 0.6554 0.92253 0.05196 0.0
C2583 C 0.65428 0.94582 0.04628 0.0
C2584 C 0.66114 0.91477 0.06267 0.0
C2585 C 0.67196 0.92175 0.07824 0.0
C2586 C 0.66052 0.9374 0.05679 0.0
C2587 C 0.6769 0.93669 0.08241 0.0
C2588 C 0.66039 0.96105 0.04932 0.0
C2589 C 0.63573 0.94564 0.02413 0.0
N2590 N 0.67113 0.94399 0.0718 0.0
N2591 N 0.6422 0.93865 0.03375 0.0
H2592 H 0.05882 0.68013 0.02765 0.0
H2593 H 0.0654 0.75626 0.06431 0.0
H2594 H 0.0223 0.68837 0.02494 0.0
H2595 H 0.09561 0.74138 0.0834 0.0
H2596 H 0.05075 0.73297 0.04566 0.0
H2597 H 0.0738 0.70422 0.04368 0.0
C2598 C 0.05393 0.68701 0.03034 0.0
C2599 C 0.0392 0.68213 0.02501 0.0
C2600 C 0.06064 0.73489 0.05387 0.0
C2601 C 0.05642 0.70985 0.04336 0.0
C2602 C 0.069 0.74816 0.0646 0.0
C2603 C 0.08183 0.75088 0.07554 0.0
C2604 C 0.06518 0.72429 0.0539 0.0
C2605 C 0.08601 0.74 0.07494 0.0
C2606 C 0.06251 0.70077 0.03956 0.0
C2607 C 0.03355 0.6916 0.02891 0.0
N2608 N 0.07773 0.72723 0.06435 0.0
N2609 N 0.04217 0.70502 0.03784 0.0
H2610 H 0.32735 0.35258 0.07006 0.0
H2611 H 0.2436 0.32221 0.04442 0.0
H2612 H 0.31329 0.35133 0.00587 0.0
H2613 H 0.26455 0.34926 0.09867 0.0
H2614 H 0.26795 0.32907 0.03039 0.0
H2615 H 0.30302 0.34707 0.08175 0.0
C2616 C 0.31909 0.35102 0.05842 0.0
C2617 C 0.32231 0.35241 0.03697 0.0
C2618 C 0.26715 0.33362 0.04523 0.0
C2619 C 0.29448 0.34601 0.05025 0.0
C2620 C 0.25334 0.32974 0.0532 0.0
C2621 C 0.25215 0.33531 0.07261 0.0
C2622 C 0.27975 0.34273 0.05712 0.0
C2623 C 0.26504 0.3449 0.08352 0.0
C2624 C 0.30527 0.34799 0.06511 0.0
C2625 C 0.31123 0.35038 0.02256 0.0
N2626 N 0.27831 0.34814 0.07578 0.0
N2627 N 0.29772 0.34715 0.02945 0.0
H2628 H 0.72389 0.71178 0.35574 0.0
H2629 H 0.72148 0.64394 0.4181 0.0
H2630 H 0.68348 0.67262 0.37152 0.0
H2631 H 0.76128 0.68357 0.40206 0.0
H2632 H 0.70729 0.65354 0.39983 0.0
H2633 H 0.73758 0.70107 0.3718 0.0
C2634 C 0.71785 0.70092 0.36263 0.0
C2635 C 0.70244 0.69314 0.36231 0.0
C2636 C 0.71913 0.66009 0.40023 0.0
C2637 C 0.71822 0.68072 0.38079 0.0
C2638 C 0.72726 0.65458 0.41051 0.0
C2639 C 0.74261 0.66298 0.41167 0.0
C2640 C 0.72641 0.67412 0.39102 0.0
C2641 C 0.74947 0.67679 0.40182 0.0
C2642 C 0.72572 0.69479 0.37178 0.0
C2643 C 0.69532 0.67907 0.37144 0.0
N2644 N 0.74133 0.68192 0.39198 0.0
N2645 N 0.70327 0.67332 0.38033 0.0
H2646 H 0.31929 0.01999 0.33904 0.0
H2647 H 0.32788 0.07013 0.43748 0.0
H2648 H 0.3215 0.0073 0.40293 0.0
H2649 H 0.3464 0.08958 0.37774 0.0
H2650 H 0.32142 0.04595 0.42347 0.0
H2651 H 0.32585 0.04477 0.35149 0.0
C2652 C 0.32121 0.02243 0.35564 0.0
C2653 C 0.31987 0.01159 0.36998 0.0
C2654 C 0.32684 0.05549 0.41338 0.0
C2655 C 0.32705 0.03967 0.38425 0.0
C2656 C 0.33039 0.06927 0.42129 0.0
C2657 C 0.3376 0.08186 0.4087 0.0
C2658 C 0.33035 0.0542 0.39263 0.0
C2659 C 0.34085 0.08013 0.38794 0.0
C2660 C 0.32496 0.03654 0.36269 0.0
C2661 C 0.32247 0.01533 0.39131 0.0
N2662 N 0.33713 0.06651 0.38048 0.0
N2663 N 0.32579 0.029 0.3978 0.0
H2664 H 0.98781 0.32332 0.39049 0.0
H2665 H 0.91915 0.24253 0.37916 0.0
H2666 H 0.98094 0.29545 0.33697 0.0
H2667 H 0.92519 0.2723 0.42985 0.0
H2668 H 0.94031 0.26244 0.36152 0.0
H2669 H 0.96352 0.30562 0.40309 0.0
C2670 C 0.98112 0.31354 0.38125 0.0
C2671 C 0.98647 0.31079 0.36275 0.0
C2672 C 0.93687 0.26466 0.37637 0.0
C2673 C 0.95863 0.29032 0.37724 0.0
C2674 C 0.92482 0.25328 0.38648 0.0
C2675 C 0.92042 0.25568 0.40612 0.0
C2676 C 0.94466 0.27852 0.38602 0.0
C2677 C 0.92806 0.26991 0.41468 0.0
C2678 C 0.96722 0.30341 0.38847 0.0
C2679 C 0.97726 0.29798 0.35136 0.0
N2680 N 0.93987 0.28071 0.40471 0.0
N2681 N 0.96385 0.28812 0.35893 0.0
H2682 H 0.04757 0.39456 0.34201 0.0
H2683 H 0.99515 0.40725 0.26288 0.0
H2684 H 0.00943 0.3588 0.31254 0.0
H2685 H 0.03273 0.44212 0.29454 0.0
H2686 H 0.99871 0.38916 0.28298 0.0
H2687 H 0.04103 0.41188 0.32654 0.0
C2688 C 0.03779 0.39031 0.33229 0.0
C2689 C 0.02913 0.37515 0.32842 0.0
C2690 C 0.00608 0.40077 0.28566 0.0
C2691 C 0.02154 0.39509 0.31055 0.0
C2692 C 0.00399 0.4111 0.27431 0.0
C2693 C 0.01374 0.42622 0.2769 0.0
C2694 C 0.018 0.40561 0.2997 0.0
C2695 C 0.0251 0.43058 0.29176 0.0
C2696 C 0.03403 0.40025 0.32349 0.0
C2697 C 0.01647 0.37037 0.31588 0.0
N2698 N 0.02697 0.42034 0.30246 0.0
N2699 N 0.01312 0.38032 0.30726 0.0
H2700 H 0.62284 0.65409 0.34149 0.0
H2701 H 0.61089 0.58476 0.27417 0.0
H2702 H 0.65519 0.65496 0.29944 0.0
H2703 H 0.57463 0.59027 0.29372 0.0
H2704 H 0.62788 0.60868 0.28941 0.0
H2705 H 0.60563 0.62892 0.32982 0.0
C2706 C 0.62636 0.64894 0.32996 0.0
C2707 C 0.64043 0.65661 0.32135 0.0
C2708 C 0.61621 0.60462 0.29049 0.0
C2709 C 0.62092 0.62792 0.30814 0.0
C2710 C 0.60649 0.59092 0.28197 0.0
C2711 C 0.59132 0.5855 0.28277 0.0
C2712 C 0.61075 0.61296 0.30009 0.0
C2713 C 0.58626 0.59409 0.29272 0.0
C2714 C 0.61652 0.63463 0.32325 0.0
C2715 C 0.64442 0.64946 0.30639 0.0
N2716 N 0.59597 0.60741 0.30106 0.0
N2717 N 0.63473 0.6355 0.30031 0.0
H2718 H 0.35142 0.99528 0.33221 0.0
H2719 H 0.40123 0.97351 0.26471 0.0
H2720 H 0.34075 0.95024 0.32173 0.0
H2721 H 0.41857 0.01583 0.29508 0.0
H2722 H 0.37824 0.96519 0.28307 0.0
H2723 H 0.37521 0.00356 0.31567 0.0
C2724 C 0.35404 0.98713 0.32639 0.0
C2725 C 0.34405 0.97203 0.32837 0.0
C2726 C 0.38712 0.97627 0.28579 0.0
C2727 C 0.3712 0.98145 0.30938 0.0
C2728 C 0.40035 0.98103 0.27544 0.0
C2729 C 0.412 0.99544 0.27828 0.0
C2730 C 0.38536 0.98602 0.2989 0.0
C2731 C 0.40989 0.00472 0.29203 0.0
C2732 C 0.36765 0.99187 0.31707 0.0
C2733 C 0.3481 0.96199 0.32063 0.0
N2734 N 0.39681 0.99989 0.3017 0.0
N2735 N 0.36131 0.96687 0.31138 0.0
H2736 H 0.62678 0.97432 0.34295 0.0
H2737 H 0.60217 0.01986 0.26889 0.0
H2738 H 0.65603 0.0042 0.29643 0.0
H2739 H 0.57333 0.97423 0.28508 0.0
H2740 H 0.62236 0.01845 0.28633 0.0
H2741 H 0.60738 0.97883 0.32961 0.0
C2742 C 0.6292 0.982 0.33013 0.0
C2743 C 0.643 0.98882 0.32065 0.0
C2744 C 0.61152 0.00886 0.28616 0.0
C2745 C 0.62091 0.99412 0.30556 0.0
C2746 C 0.59996 0.00957 0.27609 0.0
C2747 C 0.58585 0.99711 0.27519 0.0
C2748 C 0.60891 0.99574 0.29589 0.0
C2749 C 0.58378 0.98427 0.28552 0.0
C2750 C 0.6181 0.98451 0.32251 0.0
C2751 C 0.64549 0.99864 0.30405 0.0
N2752 N 0.59515 0.98395 0.29542 0.0
N2753 N 0.63453 0.00102 0.29699 0.0
H2754 H 0.04099 0.6545 0.34336 0.0
H2755 H 0.9825 0.59625 0.26338 0.0
H2756 H 0.00633 0.65983 0.31482 0.0
H2757 H 0.01097 0.58718 0.30263 0.0
H2758 H 0.99096 0.61947 0.28186 0.0
H2759 H 0.03034 0.63001 0.32805 0.0
C2760 C 0.03113 0.65055 0.33386 0.0
C2761 C 0.02461 0.65934 0.33028 0.0
C2762 C 0.99526 0.61234 0.28654 0.0
C2763 C 0.01233 0.63115 0.31264 0.0
C2764 C 0.99035 0.59898 0.2761 0.0
C2765 C 0.99602 0.58965 0.28138 0.0
C2766 C 0.00604 0.61654 0.30229 0.0
C2767 C 0.00644 0.59406 0.29773 0.0
C2768 C 0.02501 0.63649 0.32519 0.0
C2769 C 0.01175 0.65348 0.31799 0.0
N2770 N 0.01118 0.60721 0.30748 0.0
N2771 N 0.00609 0.6398 0.30949 0.0
H2772 H 0.3542 0.37016 0.34934 0.0
H2773 H 0.40322 0.41003 0.25021 0.0
H2774 H 0.34176 0.35382 0.28612 0.0
H2775 H 0.42323 0.41205 0.31051 0.0
H2776 H 0.37939 0.39243 0.26449 0.0
H2777 H 0.37867 0.38822 0.33667 0.0
C2778 C 0.35664 0.37033 0.33285 0.0
C2779 C 0.34596 0.36047 0.31875 0.0
C2780 C 0.38898 0.39677 0.27464 0.0
C2781 C 0.37365 0.38119 0.30421 0.0
C2782 C 0.40255 0.40692 0.26657 0.0
C2783 C 0.41519 0.41256 0.27925 0.0
C2784 C 0.38795 0.39232 0.29564 0.0
C2785 C 0.41372 0.40793 0.30024 0.0
C2786 C 0.37057 0.3806 0.32567 0.0
C2787 C 0.34967 0.36116 0.29755 0.0
N2788 N 0.4003 0.39811 0.30786 0.0
N2789 N 0.36314 0.37143 0.2909 0.0
H2790 H 0.32315 0.31485 0.38236 0.0
H2791 H 0.3314 0.24323 0.38114 0.0
H2792 H 0.29677 0.27838 0.34112 0.0
H2793 H 0.33487 0.2665 0.43843 0.0
H2794 H 0.32292 0.25854 0.3628 0.0
H2795 H 0.33217 0.29978 0.39984 0.0
C2796 C 0.31937 0.30374 0.37688 0.0
C2797 C 0.30916 0.29783 0.36034 0.0
C2798 C 0.32551 0.26022 0.3794 0.0
C2799 C 0.31953 0.28071 0.37999 0.0
C2800 C 0.33032 0.25154 0.38979 0.0
C2801 C 0.33364 0.25357 0.41128 0.0
C2802 C 0.32444 0.27123 0.3905 0.0
C2803 C 0.33221 0.26452 0.42188 0.0
C2804 C 0.32444 0.29515 0.38691 0.0
C2805 C 0.30456 0.28333 0.3539 0.0
N2806 N 0.32783 0.27305 0.41135 0.0
N2807 N 0.30985 0.27529 0.36366 0.0
H2808 H 0.72665 0.01462 0.36699 0.0
H2809 H 0.73007 0.08995 0.40015 0.0
H2810 H 0.68914 0.02118 0.36211 0.0
H2811 H 0.76202 0.07738 0.41934 0.0
H2812 H 0.71579 0.06599 0.38297 0.0
H2813 H 0.74067 0.03885 0.3829 0.0
C2814 C 0.72133 0.02114 0.36926 0.0
C2815 C 0.70664 0.01578 0.36322 0.0
C2816 C 0.72596 0.06855 0.3909 0.0
C2817 C 0.72277 0.04371 0.38143 0.0
C2818 C 0.73412 0.08221 0.40076 0.0
C2819 C 0.74735 0.0858 0.41121 0.0
C2820 C 0.73111 0.05843 0.39136 0.0
C2821 C 0.7521 0.07534 0.41116 0.0
C2822 C 0.72936 0.03499 0.3784 0.0
C2823 C 0.7004 0.0248 0.36661 0.0
N2824 N 0.744 0.06219 0.40141 0.0
N2825 N 0.70851 0.03835 0.37544 0.0
H2826 H 0.99398 0.68606 0.40126 0.0
H2827 H 0.91294 0.66852 0.37291 0.0
H2828 H 0.98217 0.69169 0.33819 0.0
H2829 H 0.93234 0.68156 0.43462 0.0
H2830 H 0.93709 0.67454 0.35916 0.0
H2831 H 0.97006 0.68134 0.41319 0.0
C2832 C 0.98631 0.6862 0.38987 0.0
C2833 C 0.99008 0.68928 0.36869 0.0
C2834 C 0.93604 0.67624 0.37565 0.0
C2835 C 0.96261 0.68388 0.3823 0.0
C2836 C 0.9223 0.67281 0.38349 0.0
C2837 C 0.92065 0.67464 0.40491 0.0
C2838 C 0.94809 0.68121 0.38944 0.0
C2839 C 0.93312 0.68019 0.41795 0.0
C2840 C 0.97268 0.68361 0.39673 0.0
C2841 C 0.9797 0.68939 0.35467 0.0
N2842 N 0.94625 0.68312 0.41006 0.0
N2843 N 0.96637 0.68665 0.3617 0.0
H2844 H 0.39076 0.04794 0.6914 0.0
H2845 H 0.38939 0.97966 0.75104 0.0
H2846 H 0.35085 0.00771 0.70527 0.0
H2847 H 0.429 0.01996 0.73662 0.0
H2848 H 0.37511 0.98924 0.73315 0.0
H2849 H 0.40485 0.03753 0.70722 0.0
C2850 C 0.38492 0.03692 0.69782 0.0
C2851 C 0.36953 0.02873 0.69704 0.0
C2852 C 0.38693 0.99596 0.73381 0.0
C2853 C 0.38574 0.01668 0.71517 0.0
C2854 C 0.39512 0.99045 0.74387 0.0
C2855 C 0.41045 0.99902 0.74537 0.0
C2856 C 0.3941 0.01017 0.72517 0.0
C2857 C 0.41721 0.01303 0.73609 0.0
C2858 C 0.39301 0.03096 0.70682 0.0
C2859 C 0.36266 0.01447 0.70555 0.0
N2860 N 0.40899 0.01817 0.72646 0.0
N2861 N 0.37082 0.00891 0.71428 0.0
H2862 H 0.97896 0.34906 0.67317 0.0
H2863 H 0.0242 0.41227 0.75779 0.0
H2864 H 0.00127 0.34403 0.72722 0.0
H2865 H 0.99648 0.41613 0.71048 0.0
H2866 H 0.01827 0.38842 0.74359 0.0
H2867 H 0.98739 0.37461 0.6837 0.0
C2868 C 0.98572 0.35336 0.68714 0.0
C2869 C 0.98937 0.34439 0.6994 0.0
C2870 C 0.01354 0.39449 0.73618 0.0
C2871 C 0.99904 0.37353 0.71147 0.0
C2872 C 0.01705 0.40824 0.74416 0.0
C2873 C 0.0109 0.41633 0.73528 0.0
C2874 C 0.00374 0.38863 0.71916 0.0
C2875 C 0.00139 0.41024 0.71794 0.0
C2876 C 0.99049 0.36791 0.69316 0.0
C2877 C 0.99813 0.35051 0.71735 0.0
N2878 N 0.99807 0.39674 0.71047 0.0
N2879 N 0.00263 0.36466 0.72284 0.0
H2880 H 0.65599 0.65908 0.72282 0.0
H2881 H 0.58658 0.57863 0.71205 0.0
H2882 H 0.64921 0.63009 0.67076 0.0
H2883 H 0.5916 0.60932 0.76079 0.0
H2884 H 0.60841 0.59801 0.69501 0.0
H2885 H 0.63147 0.64177 0.73535 0.0
C2886 C 0.64929 0.64913 0.71391 0.0
C2887 C 0.65471 0.64597 0.6958 0.0
C2888 C 0.60463 0.60056 0.70928 0.0
C2889 C 0.62663 0.62602 0.71015 0.0
C2890 C 0.59219 0.58949 0.71904 0.0
C2891 C 0.5873 0.59232 0.73796 0.0
C2892 C 0.61236 0.61455 0.71861 0.0
C2893 C 0.59489 0.60665 0.74616 0.0
C2894 C 0.63528 0.63924 0.72107 0.0
C2895 C 0.64551 0.63294 0.68485 0.0
N2896 N 0.60713 0.61717 0.73658 0.0
N2897 N 0.63198 0.62338 0.6923 0.0
H2898 H 0.67066 0.69057 0.65373 0.0
H2899 H 0.69063 0.76449 0.59167 0.0
H2900 H 0.71503 0.72597 0.64585 0.0
H2901 H 0.64775 0.73644 0.61757 0.0
H2902 H 0.6995 0.7495 0.60904 0.0
H2903 H 0.66168 0.70596 0.6374 0.0
C2904 C 0.67852 0.70152 0.64846 0.0
C2905 C 0.69363 0.70697 0.65118 0.0
C2906 C 0.68816 0.74668 0.61101 0.0
C2907 C 0.68342 0.7246 0.63252 0.0
C2908 C 0.6831 0.75533 0.60124 0.0
C2909 C 0.66838 0.7518 0.60312 0.0
C2910 C 0.67844 0.73427 0.62258 0.0
C2911 C 0.65911 0.73949 0.61534 0.0
C2912 C 0.67337 0.71033 0.63928 0.0
C2913 C 0.70329 0.7213 0.64417 0.0
N2914 N 0.66427 0.73112 0.62449 0.0
N2915 N 0.69802 0.72958 0.63511 0.0
H2916 H 0.2928 0.98633 0.68327 0.0
H2917 H 0.24126 0.91974 0.63675 0.0
H2918 H 0.31816 0.99179 0.62779 0.0
H2919 H 0.27712 0.92541 0.59793 0.0
H2920 H 0.25733 0.9436 0.65295 0.0
H2921 H 0.27542 0.96126 0.67217 0.0
C2922 C 0.29468 0.98226 0.66872 0.0
C2923 C 0.3069 0.99121 0.65636 0.0
C2924 C 0.26182 0.93952 0.64126 0.0
C2925 C 0.28682 0.9626 0.6432 0.0
C2926 C 0.25256 0.92593 0.6318 0.0
C2927 C 0.25785 0.92047 0.61606 0.0
C2928 C 0.27651 0.94773 0.63488 0.0
C2929 C 0.27259 0.92899 0.61028 0.0
C2930 C 0.28464 0.96796 0.66224 0.0
C2931 C 0.30886 0.98532 0.63775 0.0
N2932 N 0.28134 0.94219 0.61958 0.0
N2933 N 0.29894 0.97142 0.63176 0.0
H2934 H 0.01472 0.32314 0.65021 0.0
H2935 H 0.07877 0.30346 0.63405 0.0
H2936 H 0.01626 0.28656 0.67963 0.0
H2937 H 0.07697 0.33866 0.60089 0.0
H2938 H 0.05724 0.29908 0.65388 0.0
H2939 H 0.03871 0.33078 0.63469 0.0
C2940 C 0.0201 0.31675 0.65351 0.0
C2941 C 0.01334 0.30408 0.66609 0.0
C2942 C 0.0616 0.30785 0.6424 0.0
C2943 C 0.0408 0.3128 0.64846 0.0
C2944 C 0.0739 0.31035 0.63107 0.0
C2945 C 0.07959 0.32135 0.61566 0.0
C2946 C 0.05482 0.31634 0.63825 0.0
C2947 C 0.07297 0.3301 0.61268 0.0
C2948 C 0.03379 0.32113 0.64464 0.0
C2949 C 0.0209 0.29629 0.66985 0.0
N2950 N 0.06083 0.32731 0.62371 0.0
N2951 N 0.03414 0.30074 0.66103 0.0
H2952 H 0.3301 0.34628 0.63256 0.0
H2953 H 0.24885 0.32354 0.60626 0.0
H2954 H 0.29487 0.31054 0.66592 0.0
H2955 H 0.28104 0.36972 0.61195 0.0
H2956 H 0.26583 0.31742 0.62392 0.0
H2957 H 0.31274 0.35412 0.61995 0.0
C2958 C 0.31874 0.34014 0.63728 0.0
C2959 C 0.31388 0.32777 0.65028 0.0
C2960 C 0.26907 0.32888 0.62139 0.0
C2961 C 0.29408 0.33644 0.63565 0.0
C2962 C 0.25932 0.33246 0.61144 0.0
C2963 C 0.26338 0.34725 0.60739 0.0
C2964 C 0.28315 0.34008 0.62686 0.0
C2965 C 0.27743 0.35816 0.61411 0.0
C2966 C 0.30891 0.34465 0.63018 0.0
C2967 C 0.29907 0.32019 0.65599 0.0
N2968 N 0.28688 0.35434 0.6232 0.0
N2969 N 0.28962 0.32451 0.64837 0.0
H2970 H 0.6717 0.9923 0.65417 0.0
H2971 H 0.68822 0.92696 0.62758 0.0
H2972 H 0.71196 0.99282 0.67116 0.0
H2973 H 0.64906 0.92753 0.60742 0.0
H2974 H 0.69636 0.95033 0.6457 0.0
H2975 H 0.66252 0.96785 0.63898 0.0
C2976 C 0.67862 0.9873 0.65476 0.0
C2977 C 0.69269 0.99474 0.66389 0.0
C2978 C 0.68594 0.9453 0.63742 0.0
C2979 C 0.68218 0.96665 0.6465 0.0
C2980 C 0.6813 0.93196 0.62701 0.0
C2981 C 0.66794 0.92525 0.61588 0.0
C2982 C 0.67719 0.95204 0.63668 0.0
C2983 C 0.65935 0.93217 0.61599 0.0
C2984 C 0.67335 0.97331 0.64607 0.0
C2985 C 0.70109 0.98761 0.6642 0.0
N2986 N 0.66415 0.9452 0.62611 0.0
N2987 N 0.69573 0.97401 0.65561 0.0
H2988 H 0.01598 0.71019 0.67781 0.0
H2989 H 0.08072 0.72242 0.60084 0.0
H2990 H 0.01134 0.67919 0.62978 0.0
H2991 H 0.07991 0.75803 0.63366 0.0
H2992 H 0.05703 0.70522 0.61601 0.0
H2993 H 0.0411 0.7266 0.6663 0.0
C2994 C 0.02029 0.70677 0.66498 0.0
C2995 C 0.01153 0.69332 0.65467 0.0
C2996 C 0.06208 0.71678 0.62001 0.0
C2997 C 0.04026 0.71202 0.6415 0.0
C2998 C 0.07566 0.7266 0.6115 0.0
C2999 C 0.08231 0.7417 0.61602 0.0
C3000 C 0.05511 0.72205 0.63329 0.0
C3001 C 0.07511 0.7465 0.62966 0.0
C3002 C 0.0346 0.71617 0.65837 0.0
C3003 C 0.01768 0.68947 0.6381 0.0
N3004 N 0.0619 0.73671 0.63782 0.0
N3005 N 0.03166 0.69878 0.63203 0.0
H3006 H 0.98984 0.6481 0.70886 0.0
H3007 H 0.96671 0.56327 0.72598 0.0
H3008 H 0.95089 0.61104 0.68321 0.0
H3009 H 0.00363 0.59853 0.75815 0.0
H3010 H 0.96274 0.58135 0.70707 0.0
H3011 H 0.99683 0.63082 0.72453 0.0
C3012 C 0.98278 0.63639 0.70649 0.0
C3013 C 0.96968 0.63105 0.69484 0.0
C3014 C 0.97178 0.58521 0.71816 0.0
C3015 C 0.97766 0.61132 0.71249 0.0
C3016 C 0.97404 0.57486 0.72895 0.0
C3017 C 0.98541 0.57941 0.7438 0.0
C3018 C 0.98089 0.60028 0.72229 0.0
C3019 C 0.99475 0.59458 0.74678 0.0
C3020 C 0.98678 0.62655 0.71541 0.0
C3021 C 0.96101 0.61575 0.69221 0.0
N3022 N 0.9922 0.60451 0.73627 0.0
N3023 N 0.96514 0.6065 0.70095 0.0
H3024 H 0.35721 0.35619 0.69502 0.0
H3025 H 0.42896 0.40897 0.76166 0.0
H3026 H 0.39295 0.34747 0.70589 0.0
H3027 H 0.40064 0.42394 0.73454 0.0
H3028 H 0.41469 0.38554 0.74372 0.0
H3029 H 0.37155 0.38009 0.71243 0.0
C3030 C 0.36801 0.35924 0.70117 0.0
C3031 C 0.37387 0.34979 0.69897 0.0
C3032 C 0.41165 0.39398 0.7416 0.0
C3033 C 0.3903 0.37707 0.71885 0.0
C3034 C 0.41988 0.40747 0.75171 0.0
C3035 C 0.41612 0.4186 0.74958 0.0
C3036 C 0.39939 0.39144 0.72941 0.0
C3037 C 0.4039 0.41568 0.7369 0.0
C3038 C 0.37621 0.37291 0.71097 0.0
C3039 C 0.38798 0.35438 0.70713 0.0
N3040 N 0.39594 0.40237 0.72738 0.0
N3041 N 0.39566 0.36765 0.71674 0.0
H3042 H 0.65952 0.01839 0.73466 0.0
H3043 H 0.5782 0.00127 0.70806 0.0
H3044 H 0.64704 0.02449 0.67224 0.0
H3045 H 0.59743 0.01141 0.77016 0.0
H3046 H 0.60229 0.00756 0.69383 0.0
H3047 H 0.63553 0.01299 0.74719 0.0
C3048 C 0.65169 0.01849 0.72353 0.0
C3049 C 0.6553 0.02192 0.70236 0.0
C3050 C 0.60122 0.00855 0.71052 0.0
C3051 C 0.62774 0.01577 0.71668 0.0
C3052 C 0.5875 0.00496 0.71864 0.0
C3053 C 0.58582 0.00591 0.74031 0.0
C3054 C 0.61322 0.01282 0.72425 0.0
C3055 C 0.59824 0.01073 0.75333 0.0
C3056 C 0.63801 0.01551 0.73074 0.0
C3057 C 0.6447 0.02193 0.6887 0.0
N3058 N 0.61134 0.01387 0.74513 0.0
N3059 N 0.63134 0.01886 0.69608 0.0
loop_
_geom_bond_atom_site_label_1
_geom_bond_atom_site_label_2
_geom_bond_distance
_geom_bond_site_symmetry_2
_ccdc_geom_bond_type
Mn0 O5 2.095 1_655 S
Mn0 O15 2.162 . S
Mn0 O16 2.297 1_554 S
Mn0 O24 2.385 1_554 S
Mn0 O25 2.209 1_654 S
Mn0 O26 2.094 . S
Mn1 O6 2.121 . S
Mn1 N8 2.257 1_554 S
Mn1 N17 2.282 . S
Mn1 O25 2.215 1_554 S
Mn1 O27 2.117 . S
C2 O24 1.234 1_455 S
C2 O25 1.283 . S
C3 O15 1.281 1_556 S
C3 O16 1.236 . S
C4 O26 1.231 1_455 S
C4 O27 1.286 . S
O5 Mn0 2.095 1_455 S
O5 C14 1.250 . S
O6 Mn1 2.121 . S
O6 C14 1.258 . S
C7 N8 1.326 . S
C7 C11 1.460 . S
C7 H13 0.929 . S
N8 Mn1 2.257 1_556 S
N8 C7 1.326 . S
N8 C12 1.362 . S
C9 C10 1.258 . S
C9 C12 1.431 . S
C9 C29 1.449 . S
C10 C9 1.258 . S
C10 C11 1.477 . S
C10 H30 0.931 . S
C11 C7 1.460 . S
C11 C10 1.477 . S
C11 H31 0.930 . S
C12 N8 1.362 . S
C12 C9 1.431 . S
C12 C22 1.476 . S
H13 C7 0.929 . S
C14 O5 1.250 . S
C14 O6 1.258 . S
O15 Mn0 2.162 . S
O15 C3 1.281 1_554 S
O16 Mn0 2.297 1_556 S
O16 C3 1.236 . S
N17 Mn1 2.282 . S
N17 C18 1.328 . S
N17 C22 1.318 1_554 S
C18 N17 1.328 . S
C18 C19 1.457 1_554 S
C18 H23 0.929 . S
C19 C18 1.457 1_556 S
C19 C20 1.291 . S
C19 H32 0.919 1_556 S
C20 C19 1.291 . S
C20 C21 1.373 . S
C20 H33 0.929 . S
C21 C20 1.373 . S
C21 C22 1.396 . S
C21 C28 1.403 . S
C22 C12 1.476 . S
C22 N17 1.318 1_556 S
C22 C21 1.396 . S
H23 C18 0.929 . S
O24 Mn0 2.385 1_556 S
O24 C2 1.234 1_655 S
O25 Mn0 2.209 1_456 S
O25 Mn1 2.215 1_556 S
O25 C2 1.283 . S
O26 Mn0 2.094 . S
O26 C4 1.231 1_655 S
O27 Mn1 2.117 . S
O27 C4 1.286 . S
C28 C21 1.403 . S
C28 C29 1.399 . S
C28 H34 0.929 . S
C29 C9 1.449 . S
C29 C28 1.399 . S
C29 H35 0.930 . S
H30 C10 0.931 . S
H31 C11 0.930 . S
H32 C19 0.919 1_554 S
H33 C20 0.929 . S
H34 C28 0.929 . S
H35 C29 0.930 . S
Mn36 O41 2.095 1_554 S
Mn36 O51 2.162 . S
Mn36 O52 2.297 . S
Mn36 O60 2.385 . S
Mn36 O61 2.209 . S
Mn36 O62 2.094 1_554 S
Mn37 O42 2.121 1_554 S
Mn37 N44 2.257 . S
Mn37 N53 2.282 . S
Mn37 O61 2.215 . S
Mn37 O63 2.117 1_554 S
C38 O60 1.234 . S
C38 O61 1.283 . S
C39 O51 1.281 . S
C39 O52 1.236 . S
C40 O62 1.240 . S
C40 O63 1.264 . S
O41 Mn36 2.095 1_556 S
O41 C50 1.250 . S
O42 Mn37 2.121 1_556 S
O42 C50 1.258 . S
C43 N44 1.326 . S
C43 C47 1.460 . S
C43 H49 0.929 . S
N44 Mn37 2.257 . S
N44 C43 1.326 . S
N44 C48 1.362 . S
C45 C46 1.258 . S
C45 C48 1.431 . S
C45 C65 1.449 . S
C46 C45 1.258 . S
C46 C47 1.477 . S
C46 H66 0.931 . S
C47 C43 1.460 . S
C47 C46 1.477 . S
C47 H67 0.930 . S
C48 N44 1.362 . S
C48 C45 1.431 . S
C48 C58 1.476 . S
H49 C43 0.929 . S
C50 O41 1.250 . S
C50 O42 1.258 . S
O51 Mn36 2.162 . S
O51 C39 1.281 . S
O52 Mn36 2.297 . S
O52 C39 1.236 . S
N53 Mn37 2.282 . S
N53 C54 1.328 . S
N53 C58 1.318 . S
C54 N53 1.328 . S
C54 C55 1.457 . S
C54 H59 0.962 . S
C55 C54 1.457 . S
C55 C56 1.291 . S
C55 H68 0.931 . S
C56 C55 1.291 . S
C56 C57 1.373 . S
C56 H69 0.929 . S
C57 C56 1.373 . S
C57 C58 1.396 . S
C57 C64 1.403 . S
C58 C48 1.476 . S
C58 N53 1.318 . S
C58 C57 1.396 . S
H59 C54 0.962 . S
O60 Mn36 2.385 . S
O60 C38 1.234 . S
O61 Mn36 2.209 . S
O61 Mn37 2.215 . S
O61 C38 1.283 . S
O62 Mn36 2.094 1_556 S
O62 C40 1.240 . S
O63 Mn37 2.117 1_556 S
O63 C40 1.264 . S
C64 C57 1.403 . S
C64 C65 1.399 . S
C64 H70 0.929 . S
C65 C45 1.449 . S
C65 C64 1.399 . S
C65 H71 0.930 . S
H66 C46 0.931 . S
H67 C47 0.930 . S
H68 C55 0.931 . S
H69 C56 0.929 . S
H70 C64 0.929 . S
H71 C65 0.930 . S
Mn72 O77 2.095 1_564 S
Mn72 O87 2.162 . S
Mn72 O88 2.297 . S
Mn72 O96 2.385 . S
Mn72 O97 2.209 1_565 S
Mn72 O98 2.094 1_554 S
Mn73 O78 2.121 . S
Mn73 N80 2.257 . S
Mn73 N89 2.282 . S
Mn73 O97 2.215 . S
Mn73 O99 2.117 1_554 S
C74 O96 1.212 1_545 S
C74 O97 1.306 . S
C75 O87 1.281 . S
C75 O88 1.236 . S
C76 O98 1.243 . S
C76 O99 1.257 1_565 S
O77 Mn72 2.095 1_546 S
O77 C86 1.250 . S
O78 Mn73 2.121 . S
O78 C86 1.258 1_554 S
C79 N80 1.326 . S
C79 C83 1.460 . S
C79 H85 0.929 . S
N80 Mn73 2.257 . S
N80 C79 1.326 . S
N80 C84 1.362 . S
C81 C82 1.258 . S
C81 C84 1.431 . S
C81 C101 1.449 . S
C82 C81 1.258 . S
C82 C83 1.477 . S
C82 H102 0.931 . S
C83 C79 1.460 . S
C83 C82 1.477 . S
C83 H103 0.930 . S
C84 N80 1.362 . S
C84 C81 1.431 . S
C84 C94 1.476 . S
H85 C79 0.929 . S
C86 O77 1.250 . S
C86 O78 1.258 1_556 S
O87 Mn72 2.162 . S
O87 C75 1.281 . S
O88 Mn72 2.297 . S
O88 C75 1.236 . S
N89 Mn73 2.282 . S
N89 C90 1.328 . S
N89 C94 1.318 . S
C90 N89 1.328 . S
C90 C91 1.457 . S
C90 H95 0.929 . S
C91 C90 1.457 . S
C91 C92 1.291 . S
C91 H104 0.931 . S
C92 C91 1.291 . S
C92 C93 1.373 . S
C92 H105 0.929 . S
C93 C92 1.373 . S
C93 C94 1.396 . S
C93 C100 1.403 . S
C94 C84 1.476 . S
C94 N89 1.318 . S
C94 C93 1.396 . S
H95 C90 0.929 . S
O96 Mn72 2.385 . S
O96 C74 1.212 1_565 S
O97 Mn72 2.209 1_545 S
O97 Mn73 2.215 . S
O97 C74 1.306 . S
O98 Mn72 2.094 1_556 S
O98 C76 1.243 . S
O99 Mn73 2.117 1_556 S
O99 C76 1.257 1_545 S
C100 C93 1.403 . S
C100 C101 1.399 . S
C100 H106 0.929 . S
C101 C81 1.449 . S
C101 C100 1.399 . S
C101 H107 0.930 . S
H102 C82 0.931 . S
H103 C83 0.930 . S
H104 C91 0.931 . S
H105 C92 0.929 . S
H106 C100 0.929 . S
H107 C101 0.930 . S
Mn108 O113 2.095 1_655 S
Mn108 O123 2.162 . S
Mn108 O124 2.297 1_554 S
Mn108 O132 2.385 1_554 S
Mn108 O133 2.209 1_654 S
Mn108 O134 2.094 . S
Mn109 O114 2.121 . S
Mn109 N116 2.257 1_554 S
Mn109 N125 2.282 . S
Mn109 O133 2.215 1_554 S
Mn109 O135 2.117 . S
C110 O132 1.185 1_455 S
C110 O133 1.305 . S
C111 O123 1.281 1_556 S
C111 O124 1.236 . S
C112 O134 1.229 1_455 S
C112 O135 1.274 . S
O113 Mn108 2.095 1_455 S
O113 C122 1.250 . S
O114 Mn109 2.121 . S
O114 C122 1.258 . S
C115 N116 1.326 . S
C115 C119 1.460 . S
C115 H121 0.929 . S
N116 Mn109 2.257 1_556 S
N116 C115 1.326 . S
N116 C120 1.362 . S
C117 C118 1.258 . S
C117 C120 1.431 . S
C117 C137 1.449 . S
C118 C117 1.258 . S
C118 C119 1.477 . S
C118 H138 0.931 . S
C119 C115 1.460 . S
C119 C118 1.477 . S
C119 H139 0.930 . S
C120 N116 1.362 . S
C120 C117 1.431 . S
C120 C130 1.476 . S
H121 C115 0.929 . S
C122 O113 1.250 . S
C122 O114 1.258 . S
O123 Mn108 2.162 . S
O123 C111 1.281 1_554 S
O124 Mn108 2.297 1_556 S
O124 C111 1.236 . S
N125 Mn109 2.282 . S
N125 C126 1.328 . S
N125 C130 1.318 1_554 S
C126 N125 1.328 . S
C126 C127 1.457 1_554 S
C126 H131 0.929 . S
C127 C126 1.457 1_556 S
C127 C128 1.291 . S
C127 H140 0.931 1_556 S
C128 C127 1.291 . S
C128 C129 1.373 . S
C128 H141 0.929 . S
C129 C128 1.373 . S
C129 C130 1.396 . S
C129 C136 1.403 . S
C130 C120 1.476 . S
C130 N125 1.318 1_556 S
C130 C129 1.396 . S
H131 C126 0.929 . S
O132 Mn108 2.385 1_556 S
O132 C110 1.185 1_655 S
O133 Mn108 2.209 1_456 S
O133 Mn109 2.215 1_556 S
O133 C110 1.305 . S
O134 Mn108 2.094 . S
O134 C112 1.229 1_655 S
O135 Mn109 2.117 . S
O135 C112 1.274 . S
C136 C129 1.403 . S
C136 C137 1.399 . S
C136 H142 0.929 . S
C137 C117 1.449 . S
C137 C136 1.399 . S
C137 H143 0.930 . S
H138 C118 0.931 . S
H139 C119 0.930 . S
H140 C127 0.931 1_554 S
H141 C128 0.929 . S
H142 C136 0.929 . S
H143 C137 0.930 . S
Mn144 O149 2.095 1_554 S
Mn144 O159 2.162 . S
Mn144 O160 2.297 . S
Mn144 O168 2.385 . S
Mn144 O169 2.209 . S
Mn144 O170 2.094 1_554 S
Mn145 O150 2.125 . S
Mn145 N152 2.257 . S
Mn145 N161 2.282 . S
Mn145 O169 2.215 . S
Mn145 O171 2.117 1_554 S
C146 O168 1.234 . S
C146 O169 1.283 . S
C147 O159 1.281 . S
C147 O160 1.236 . S
C148 O170 1.240 . S
C148 O171 1.264 . S
O149 Mn144 2.095 1_556 S
O149 C158 1.250 . S
O150 Mn145 2.125 . S
O150 C158 1.252 1_554 S
C151 N152 1.326 . S
C151 C155 1.460 . S
C151 H157 0.929 . S
N152 Mn145 2.257 . S
N152 C151 1.326 . S
N152 C156 1.362 . S
C153 C154 1.258 . S
C153 C156 1.431 . S
C153 C173 1.449 . S
C154 C153 1.258 . S
C154 C155 1.477 . S
C154 H174 0.931 . S
C155 C151 1.460 . S
C155 C154 1.477 . S
C155 H175 0.930 . S
C156 N152 1.362 . S
C156 C153 1.431 . S
C156 C166 1.476 . S
H157 C151 0.929 . S
C158 O149 1.250 . S
C158 O150 1.252 1_556 S
O159 Mn144 2.162 . S
O159 C147 1.281 . S
O160 Mn144 2.297 . S
O160 C147 1.236 . S
N161 Mn145 2.282 . S
N161 C162 1.328 . S
N161 C166 1.318 . S
C162 N161 1.328 . S
C162 C163 1.457 . S
C162 H167 0.929 . S
C163 C162 1.457 . S
C163 C164 1.291 . S
C163 H176 0.931 . S
C164 C163 1.291 . S
C164 C165 1.373 . S
C164 H177 0.929 . S
C165 C164 1.373 . S
C165 C166 1.396 . S
C165 C172 1.403 . S
C166 C156 1.476 . S
C166 N161 1.318 . S
C166 C165 1.396 . S
H167 C162 0.929 . S
O168 Mn144 2.385 . S
O168 C146 1.234 . S
O169 Mn144 2.209 . S
O169 Mn145 2.215 . S
O169 C146 1.283 . S
O170 Mn144 2.094 1_556 S
O170 C148 1.240 . S
O171 Mn145 2.117 1_556 S
O171 C148 1.264 . S
C172 C165 1.403 . S
C172 C173 1.399 . S
C172 H178 0.929 . S
C173 C153 1.449 . S
C173 C172 1.399 . S
C173 H179 0.930 . S
H174 C154 0.931 . S
H175 C155 0.930 . S
H176 C163 0.931 . S
H177 C164 0.929 . S
H178 C172 0.929 . S
H179 C173 0.930 . S
Mn180 O185 2.095 1_545 S
Mn180 O195 2.162 . S
Mn180 O196 2.297 1_554 S
Mn180 O204 2.385 1_554 S
Mn180 O205 2.209 1_544 S
Mn180 O206 2.094 . S
Mn181 O186 2.121 . S
Mn181 N188 2.257 1_554 S
Mn181 N197 2.282 . S
Mn181 O205 2.215 1_554 S
Mn181 O207 2.117 . S
C182 O204 1.234 . S
C182 O205 1.283 1_545 S
C183 O195 1.281 1_556 S
C183 O196 1.236 . S
C184 O206 1.240 . S
C184 O207 1.264 1_545 S
O185 Mn180 2.095 1_565 S
O185 C194 1.250 . S
O186 Mn181 2.121 . S
O186 C194 1.258 . S
C187 N188 1.326 . S
C187 C191 1.460 . S
C187 H193 0.929 . S
N188 Mn181 2.257 1_556 S
N188 C187 1.326 . S
N188 C192 1.362 . S
C189 C190 1.258 . S
C189 C192 1.431 . S
C189 C209 1.449 . S
C190 C189 1.258 . S
C190 C191 1.477 . S
C190 H210 0.931 . S
C191 C187 1.460 . S
C191 C190 1.477 . S
C191 H211 0.930 . S
C192 N188 1.362 . S
C192 C189 1.431 . S
C192 C202 1.476 . S
H193 C187 0.929 . S
C194 O185 1.250 . S
C194 O186 1.258 . S
O195 Mn180 2.162 . S
O195 C183 1.281 1_554 S
O196 Mn180 2.297 1_556 S
O196 C183 1.236 . S
N197 Mn181 2.282 . S
N197 C198 1.328 . S
N197 C202 1.318 1_554 S
C198 N197 1.328 . S
C198 C199 1.457 1_554 S
C198 H203 0.929 . S
C199 C198 1.457 1_556 S
C199 C200 1.291 . S
C199 H212 0.923 1_556 S
C200 C199 1.291 . S
C200 C201 1.373 . S
C200 H213 0.929 . S
C201 C200 1.373 . S
C201 C202 1.396 . S
C201 C208 1.403 . S
C202 C192 1.476 . S
C202 N197 1.318 1_556 S
C202 C201 1.396 . S
H203 C198 0.929 . S
O204 Mn180 2.385 1_556 S
O204 C182 1.234 . S
O205 Mn180 2.209 1_566 S
O205 Mn181 2.215 1_556 S
O205 C182 1.283 1_565 S
O206 Mn180 2.094 . S
O206 C184 1.240 . S
O207 Mn181 2.117 . S
O207 C184 1.264 1_565 S
C208 C201 1.403 . S
C208 C209 1.399 . S
C208 H214 0.929 . S
C209 C189 1.449 . S
C209 C208 1.399 . S
C209 H215 0.930 . S
H210 C190 0.931 . S
H211 C191 0.930 . S
H212 C199 0.923 1_554 S
H213 C200 0.929 . S
H214 C208 0.929 . S
H215 C209 0.930 . S
Mn216 O221 2.095 . S
Mn216 O231 2.162 . S
Mn216 O232 2.297 . S
Mn216 O240 2.385 . S
Mn216 O241 2.209 . S
Mn216 O242 2.094 . S
Mn217 O222 2.121 . S
Mn217 N224 2.257 . S
Mn217 N233 2.282 . S
Mn217 O241 2.215 . S
Mn217 O243 2.117 . S
C218 O240 1.234 . S
C218 O241 1.283 . S
C219 O231 1.281 . S
C219 O232 1.236 . S
C220 O242 1.240 . S
C220 O243 1.264 . S
O221 Mn216 2.095 . S
O221 C230 1.250 . S
O222 Mn217 2.121 . S
O222 C230 1.258 . S
C223 N224 1.326 . S
C223 C227 1.460 . S
C223 H229 0.929 . S
N224 Mn217 2.257 . S
N224 C223 1.326 . S
N224 C228 1.362 . S
C225 C226 1.258 . S
C225 C228 1.431 . S
C225 C245 1.449 . S
C226 C225 1.258 . S
C226 C227 1.477 . S
C226 H246 0.931 . S
C227 C223 1.460 . S
C227 C226 1.477 . S
C227 H247 0.930 . S
C228 N224 1.362 . S
C228 C225 1.431 . S
C228 C238 1.476 . S
H229 C223 0.929 . S
C230 O221 1.250 . S
C230 O222 1.258 . S
O231 Mn216 2.162 . S
O231 C219 1.281 . S
O232 Mn216 2.297 . S
O232 C219 1.236 . S
N233 Mn217 2.282 . S
N233 C234 1.328 . S
N233 C238 1.318 . S
C234 N233 1.328 . S
C234 C235 1.457 . S
C234 H239 0.929 . S
C235 C234 1.457 . S
C235 C236 1.291 . S
C235 H248 0.931 . S
C236 C235 1.291 . S
C236 C237 1.373 . S
C236 H249 0.929 . S
C237 C236 1.373 . S
C237 C238 1.396 . S
C237 C244 1.403 . S
C238 C228 1.476 . S
C238 N233 1.318 . S
C238 C237 1.396 . S
H239 C234 0.929 . S
O240 Mn216 2.385 . S
O240 C218 1.234 . S
O241 Mn216 2.209 . S
O241 Mn217 2.215 . S
O241 C218 1.283 . S
O242 Mn216 2.094 . S
O242 C220 1.240 . S
O243 Mn217 2.117 . S
O243 C220 1.264 . S
C244 C237 1.403 . S
C244 C245 1.399 . S
C244 H250 0.929 . S
C245 C225 1.449 . S
C245 C244 1.399 . S
C245 H251 0.930 . S
H246 C226 0.931 . S
H247 C227 0.930 . S
H248 C235 0.931 . S
H249 C236 0.929 . S
H250 C244 0.929 . S
H251 C245 0.930 . S
Mn252 O257 2.095 . S
Mn252 O267 2.140 1_565 S
Mn252 O268 2.297 . S
Mn252 O276 2.385 . S
Mn252 O277 2.209 . S
Mn252 O278 2.094 . S
Mn253 O258 2.121 . S
Mn253 N260 2.257 . S
Mn253 N269 2.282 . S
Mn253 O277 2.215 . S
Mn253 O279 2.117 . S
C254 O276 1.234 . S
C254 O277 1.283 . S
C255 O267 1.281 . S
C255 O268 1.236 1_545 S
C256 O278 1.240 . S
C256 O279 1.264 . S
O257 Mn252 2.095 . S
O257 C266 1.250 . S
O258 Mn253 2.121 . S
O258 C266 1.258 . S
C259 N260 1.326 . S
C259 C263 1.460 . S
C259 H265 0.929 . S
N260 Mn253 2.257 . S
N260 C259 1.326 . S
N260 C264 1.362 . S
C261 C262 1.258 . S
C261 C264 1.431 . S
C261 C281 1.449 . S
C262 C261 1.258 . S
C262 C263 1.477 . S
C262 H282 0.931 . S
C263 C259 1.460 . S
C263 C262 1.477 . S
C263 H283 0.930 . S
C264 N260 1.362 . S
C264 C261 1.431 . S
C264 C274 1.476 . S
H265 C259 0.929 . S
C266 O257 1.250 . S
C266 O258 1.258 . S
O267 Mn252 2.140 1_545 S
O267 C255 1.281 . S
O268 Mn252 2.297 . S
O268 C255 1.236 1_565 S
N269 Mn253 2.282 . S
N269 C270 1.328 . S
N269 C274 1.318 . S
C270 N269 1.328 . S
C270 C271 1.457 . S
C270 H275 0.929 . S
C271 C270 1.457 . S
C271 C272 1.291 . S
C271 H284 0.931 . S
C272 C271 1.291 . S
C272 C273 1.373 . S
C272 H285 0.929 . S
C273 C272 1.373 . S
C273 C274 1.396 . S
C273 C280 1.403 . S
C274 C264 1.476 . S
C274 N269 1.318 . S
C274 C273 1.396 . S
H275 C270 0.929 . S
O276 Mn252 2.385 . S
O276 C254 1.234 . S
O277 Mn252 2.209 . S
O277 Mn253 2.215 . S
O277 C254 1.283 . S
O278 Mn252 2.094 . S
O278 C256 1.240 . S
O279 Mn253 2.117 . S
O279 C256 1.264 . S
C280 C273 1.403 . S
C280 C281 1.399 . S
C280 H286 0.929 . S
C281 C261 1.449 . S
C281 C280 1.399 . S
C281 H287 0.930 . S
H282 C262 0.931 . S
H283 C263 0.930 . S
H284 C271 0.931 . S
H285 C272 0.929 . S
H286 C280 0.929 . S
H287 C281 0.930 . S
Mn288 O293 2.095 . S
Mn288 O303 2.134 1_455 S
Mn288 O304 2.297 . S
Mn288 O312 2.385 . S
Mn288 O313 2.209 . S
Mn288 O314 2.094 . S
Mn289 O294 2.121 . S
Mn289 N296 2.257 . S
Mn289 N305 2.282 . S
Mn289 O313 2.215 . S
Mn289 O315 2.117 . S
C290 O312 1.234 . S
C290 O313 1.283 . S
C291 O303 1.308 . S
C291 O304 1.236 1_655 S
C292 O314 1.240 . S
C292 O315 1.264 . S
O293 Mn288 2.095 . S
O293 C302 1.250 . S
O294 Mn289 2.121 . S
O294 C302 1.258 . S
C295 N296 1.326 . S
C295 C299 1.460 . S
C295 H301 0.929 . S
N296 Mn289 2.257 . S
N296 C295 1.326 . S
N296 C300 1.362 . S
C297 C298 1.258 . S
C297 C300 1.431 . S
C297 C317 1.449 . S
C298 C297 1.258 . S
C298 C299 1.477 . S
C298 H318 0.931 . S
C299 C295 1.460 . S
C299 C298 1.477 . S
C299 H319 0.930 . S
C300 N296 1.362 . S
C300 C297 1.431 . S
C300 C310 1.476 . S
H301 C295 0.929 . S
C302 O293 1.250 . S
C302 O294 1.258 . S
O303 Mn288 2.134 1_655 S
O303 C291 1.308 . S
O304 Mn288 2.297 . S
O304 C291 1.236 1_455 S
N305 Mn289 2.282 . S
N305 C306 1.328 . S
N305 C310 1.318 . S
C306 N305 1.328 . S
C306 C307 1.457 . S
C306 H311 0.929 . S
C307 C306 1.457 . S
C307 C308 1.291 . S
C307 H320 0.931 . S
C308 C307 1.291 . S
C308 C309 1.373 . S
C308 H321 0.929 . S
C309 C308 1.373 . S
C309 C310 1.396 . S
C309 C316 1.403 . S
C310 C300 1.476 . S
C310 N305 1.318 . S
C310 C309 1.396 . S
H311 C306 0.929 . S
O312 Mn288 2.385 . S
O312 C290 1.234 . S
O313 Mn288 2.209 . S
O313 Mn289 2.215 . S
O313 C290 1.283 . S
O314 Mn288 2.094 . S
O314 C292 1.240 . S
O315 Mn289 2.117 . S
O315 C292 1.264 . S
C316 C309 1.403 . S
C316 C317 1.399 . S
C316 H322 0.929 . S
C317 C297 1.449 . S
C317 C316 1.399 . S
C317 H323 0.930 . S
H318 C298 0.931 . S
H319 C299 0.930 . S
H320 C307 0.931 . S
H321 C308 0.929 . S
H322 C316 0.929 . S
H323 C317 0.930 . S
Mn324 O329 2.095 . S
Mn324 O339 2.162 . S
Mn324 O340 2.297 . S
Mn324 O348 2.385 . S
Mn324 O349 2.209 . S
Mn324 O350 2.094 . S
Mn325 O330 2.121 . S
Mn325 N332 2.257 . S
Mn325 N341 2.282 . S
Mn325 O349 2.215 . S
Mn325 O351 2.117 . S
C326 O348 1.234 . S
C326 O349 1.283 . S
C327 O339 1.281 . S
C327 O340 1.236 . S
C328 O350 1.240 . S
C328 O351 1.264 . S
O329 Mn324 2.095 . S
O329 C338 1.250 . S
O330 Mn325 2.121 . S
O330 C338 1.258 . S
C331 N332 1.326 . S
C331 C335 1.460 . S
C331 H337 0.929 1_565 S
N332 Mn325 2.257 . S
N332 C331 1.326 . S
N332 C336 1.362 . S
C333 C334 1.258 . S
C333 C336 1.431 . S
C333 C353 1.449 . S
C334 C333 1.258 . S
C334 C335 1.477 . S
C334 H354 0.931 . S
C335 C331 1.460 . S
C335 C334 1.477 . S
C335 H355 0.930 1_565 S
C336 N332 1.362 . S
C336 C333 1.431 . S
C336 C346 1.476 . S
H337 C331 0.929 1_545 S
C338 O329 1.250 . S
C338 O330 1.258 . S
O339 Mn324 2.162 . S
O339 C327 1.281 . S
O340 Mn324 2.297 . S
O340 C327 1.236 . S
N341 Mn325 2.282 . S
N341 C342 1.328 . S
N341 C346 1.318 . S
C342 N341 1.328 . S
C342 C343 1.457 . S
C342 H347 0.929 . S
C343 C342 1.457 . S
C343 C344 1.291 . S
C343 H356 0.931 . S
C344 C343 1.291 . S
C344 C345 1.373 . S
C344 H357 0.929 . S
C345 C344 1.373 . S
C345 C346 1.396 . S
C345 C352 1.403 . S
C346 C336 1.476 . S
C346 N341 1.318 . S
C346 C345 1.396 . S
H347 C342 0.929 . S
O348 Mn324 2.385 . S
O348 C326 1.234 . S
O349 Mn324 2.209 . S
O349 Mn325 2.215 . S
O349 C326 1.283 . S
O350 Mn324 2.094 . S
O350 C328 1.240 . S
O351 Mn325 2.117 . S
O351 C328 1.264 . S
C352 C345 1.403 . S
C352 C353 1.399 . S
C352 H358 0.929 . S
C353 C333 1.449 . S
C353 C352 1.399 . S
C353 H359 0.930 . S
H354 C334 0.931 . S
H355 C335 0.930 1_545 S
H356 C343 0.931 . S
H357 C344 0.929 . S
H358 C352 0.929 . S
H359 C353 0.930 . S
Mn360 O365 2.095 . S
Mn360 O375 2.162 . S
Mn360 O376 2.297 . S
Mn360 O384 2.385 . S
Mn360 O385 2.209 . S
Mn360 O386 2.094 . S
Mn361 O366 2.121 . S
Mn361 N368 2.257 . S
Mn361 N377 2.282 . S
Mn361 O385 2.215 . S
Mn361 O387 2.117 . S
C362 O384 1.234 . S
C362 O385 1.283 . S
C363 O375 1.285 1_655 S
C363 O376 1.167 1_655 S
C364 O386 1.240 . S
C364 O387 1.264 . S
O365 Mn360 2.095 . S
O365 C374 1.250 . S
O366 Mn361 2.121 . S
O366 C374 1.258 . S
C367 N368 1.326 . S
C367 C371 1.460 . S
C367 H373 0.929 . S
N368 Mn361 2.257 . S
N368 C367 1.326 . S
N368 C372 1.362 . S
C369 C370 1.258 . S
C369 C372 1.431 . S
C369 C389 1.449 . S
C370 C369 1.258 . S
C370 C371 1.477 . S
C370 H390 0.931 . S
C371 C367 1.460 . S
C371 C370 1.477 . S
C371 H391 0.930 . S
C372 N368 1.362 . S
C372 C369 1.431 . S
C372 C382 1.476 . S
H373 C367 0.929 . S
C374 O365 1.250 . S
C374 O366 1.258 . S
O375 Mn360 2.162 . S
O375 C363 1.285 1_455 S
O376 Mn360 2.297 . S
O376 C363 1.167 1_455 S
N377 Mn361 2.282 . S
N377 C378 1.328 . S
N377 C382 1.318 . S
C378 N377 1.328 . S
C378 C379 1.457 . S
C378 H383 0.929 . S
C379 C378 1.457 . S
C379 C380 1.291 . S
C379 H392 0.931 . S
C380 C379 1.291 . S
C380 C381 1.373 . S
C380 H393 0.929 . S
C381 C380 1.373 . S
C381 C382 1.396 . S
C381 C388 1.403 . S
C382 C372 1.476 . S
C382 N377 1.318 . S
C382 C381 1.396 . S
H383 C378 0.929 . S
O384 Mn360 2.385 . S
O384 C362 1.234 . S
O385 Mn360 2.209 . S
O385 Mn361 2.215 . S
O385 C362 1.283 . S
O386 Mn360 2.094 . S
O386 C364 1.240 . S
O387 Mn361 2.117 . S
O387 C364 1.264 . S
C388 C381 1.403 . S
C388 C389 1.399 . S
C388 H394 0.929 . S
C389 C369 1.449 . S
C389 C388 1.399 . S
C389 H395 0.930 . S
H390 C370 0.931 . S
H391 C371 0.930 . S
H392 C379 0.931 . S
H393 C380 0.929 . S
H394 C388 0.929 . S
H395 C389 0.930 . S
Mn396 O401 2.095 . S
Mn396 O411 2.162 . S
Mn396 O412 2.297 . S
Mn396 O420 2.385 . S
Mn396 O421 2.209 . S
Mn396 O422 2.094 . S
Mn397 O402 2.121 . S
Mn397 N404 2.257 . S
Mn397 N413 2.282 . S
Mn397 O421 2.215 . S
Mn397 O423 2.117 . S
C398 O420 1.234 . S
C398 O421 1.283 . S
C399 O411 1.281 . S
C399 O412 1.236 . S
C400 O422 1.240 . S
C400 O423 1.264 . S
O401 Mn396 2.095 . S
O401 C410 1.250 . S
O402 Mn397 2.121 . S
O402 C410 1.258 . S
C403 N404 1.326 . S
C403 C407 1.460 . S
C403 H409 0.929 . S
N404 Mn397 2.257 . S
N404 C403 1.326 . S
N404 C408 1.362 . S
C405 C406 1.258 . S
C405 C408 1.431 . S
C405 C425 1.449 . S
C406 C405 1.258 . S
C406 C407 1.477 . S
C406 H426 0.931 . S
C407 C403 1.460 . S
C407 C406 1.477 . S
C407 H427 0.930 . S
C408 N404 1.362 . S
C408 C405 1.431 . S
C408 C418 1.476 . S
H409 C403 0.929 . S
C410 O401 1.250 . S
C410 O402 1.258 . S
O411 Mn396 2.162 . S
O411 C399 1.281 . S
O412 Mn396 2.297 . S
O412 C399 1.236 . S
N413 Mn397 2.282 . S
N413 C414 1.328 . S
N413 C418 1.318 . S
C414 N413 1.328 . S
C414 C415 1.457 . S
C414 H419 0.929 . S
C415 C414 1.457 . S
C415 C416 1.291 . S
C415 H428 0.931 . S
C416 C415 1.291 . S
C416 C417 1.373 . S
C416 H429 0.929 . S
C417 C416 1.373 . S
C417 C418 1.396 . S
C417 C424 1.403 . S
C418 C408 1.476 . S
C418 N413 1.318 . S
C418 C417 1.396 . S
H419 C414 0.929 . S
O420 Mn396 2.385 . S
O420 C398 1.234 . S
O421 Mn396 2.209 . S
O421 Mn397 2.215 . S
O421 C398 1.283 . S
O422 Mn396 2.094 . S
O422 C400 1.240 . S
O423 Mn397 2.117 . S
O423 C400 1.264 . S
C424 C417 1.403 . S
C424 C425 1.399 . S
C424 H430 0.929 . S
C425 C405 1.449 . S
C425 C424 1.399 . S
C425 H431 0.930 . S
H426 C406 0.931 . S
H427 C407 0.930 . S
H428 C415 0.931 . S
H429 C416 0.929 . S
H430 C424 0.929 . S
H431 C425 0.930 . S
Mn432 O437 2.095 . S
Mn432 O447 2.162 . S
Mn432 O448 2.297 . S
Mn432 O456 2.385 . S
Mn432 O457 2.209 . S
Mn432 O458 2.094 . S
Mn433 O438 2.121 . S
Mn433 N440 2.257 . S
Mn433 N449 2.282 . S
Mn433 O457 2.215 . S
Mn433 O459 2.117 . S
C434 O456 1.234 . S
C434 O457 1.283 . S
C435 O447 1.241 1_565 S
C435 O448 1.224 1_565 S
C436 O458 1.240 . S
C436 O459 1.264 . S
O437 Mn432 2.095 . S
O437 C446 1.250 . S
O438 Mn433 2.121 . S
O438 C446 1.258 . S
C439 N440 1.326 . S
C439 C443 1.460 . S
C439 H445 0.929 . S
N440 Mn433 2.257 . S
N440 C439 1.326 . S
N440 C444 1.362 . S
C441 C442 1.258 . S
C441 C444 1.431 . S
C441 C461 1.449 . S
C442 C441 1.258 . S
C442 C443 1.477 . S
C442 H462 0.931 . S
C443 C439 1.460 . S
C443 C442 1.477 . S
C443 H463 0.930 . S
C444 N440 1.362 . S
C444 C441 1.431 . S
C444 C454 1.476 . S
H445 C439 0.929 . S
C446 O437 1.250 . S
C446 O438 1.258 . S
O447 Mn432 2.162 . S
O447 C435 1.241 1_545 S
O448 Mn432 2.297 . S
O448 C435 1.224 1_545 S
N449 Mn433 2.282 . S
N449 C450 1.328 . S
N449 C454 1.318 . S
C450 N449 1.328 . S
C450 C451 1.457 . S
C450 H455 0.929 . S
C451 C450 1.457 . S
C451 C452 1.291 . S
C451 H464 0.931 . S
C452 C451 1.291 . S
C452 C453 1.373 . S
C452 H465 0.929 . S
C453 C452 1.373 . S
C453 C454 1.396 . S
C453 C460 1.403 . S
C454 C444 1.476 . S
C454 N449 1.318 . S
C454 C453 1.396 . S
H455 C450 0.929 . S
O456 Mn432 2.385 . S
O456 C434 1.234 . S
O457 Mn432 2.209 . S
O457 Mn433 2.215 . S
O457 C434 1.283 . S
O458 Mn432 2.094 . S
O458 C436 1.240 . S
O459 Mn433 2.117 . S
O459 C436 1.264 . S
C460 C453 1.403 . S
C460 C461 1.399 . S
C460 H466 0.929 . S
C461 C441 1.449 . S
C461 C460 1.399 . S
C461 H467 0.930 . S
H462 C442 0.931 . S
H463 C443 0.930 . S
H464 C451 0.931 . S
H465 C452 0.929 . S
H466 C460 0.929 . S
H467 C461 0.930 . S
Mn468 O473 2.095 . S
Mn468 O483 2.162 . S
Mn468 O484 2.297 . S
Mn468 O492 2.385 . S
Mn468 O493 2.209 . S
Mn468 O494 2.094 . S
Mn469 O474 2.121 . S
Mn469 N476 2.257 . S
Mn469 N485 2.282 . S
Mn469 O493 2.215 . S
Mn469 O495 2.117 . S
C470 O492 1.234 . S
C470 O493 1.283 . S
C471 O483 1.281 . S
C471 O484 1.236 . S
C472 O494 1.240 . S
C472 O495 1.264 . S
O473 Mn468 2.095 . S
O473 C482 1.250 . S
O474 Mn469 2.121 . S
O474 C482 1.258 . S
C475 N476 1.326 . S
C475 C479 1.460 . S
C475 H481 0.925 1_655 S
N476 Mn469 2.257 . S
N476 C475 1.326 . S
N476 C480 1.362 . S
C477 C478 1.258 . S
C477 C480 1.431 . S
C477 C497 1.449 . S
C478 C477 1.258 . S
C478 C479 1.477 . S
C478 H498 0.931 . S
C479 C475 1.460 . S
C479 C478 1.477 . S
C479 H499 0.930 1_655 S
C480 N476 1.362 . S
C480 C477 1.431 . S
C480 C490 1.476 . S
H481 C475 0.925 1_455 S
C482 O473 1.250 . S
C482 O474 1.258 . S
O483 Mn468 2.162 . S
O483 C471 1.281 . S
O484 Mn468 2.297 . S
O484 C471 1.236 . S
N485 Mn469 2.282 . S
N485 C486 1.328 . S
N485 C490 1.318 . S
C486 N485 1.328 . S
C486 C487 1.457 . S
C486 H491 0.929 . S
C487 C486 1.457 . S
C487 C488 1.291 . S
C487 H500 0.931 . S
C488 C487 1.291 . S
C488 C489 1.373 . S
C488 H501 0.929 . S
C489 C488 1.373 . S
C489 C490 1.396 . S
C489 C496 1.403 . S
C490 C480 1.476 . S
C490 N485 1.318 . S
C490 C489 1.396 . S
H491 C486 0.929 . S
O492 Mn468 2.385 . S
O492 C470 1.234 . S
O493 Mn468 2.209 . S
O493 Mn469 2.215 . S
O493 C470 1.283 . S
O494 Mn468 2.094 . S
O494 C472 1.240 . S
O495 Mn469 2.117 . S
O495 C472 1.264 . S
C496 C489 1.403 . S
C496 C497 1.399 . S
C496 H502 0.929 . S
C497 C477 1.449 . S
C497 C496 1.399 . S
C497 H503 0.930 . S
H498 C478 0.931 . S
H499 C479 0.930 1_455 S
H500 C487 0.931 . S
H501 C488 0.929 . S
H502 C496 0.929 . S
H503 C497 0.930 . S
Mn504 O509 2.095 . S
Mn504 O519 2.162 . S
Mn504 O520 2.297 . S
Mn504 O528 2.385 . S
Mn504 O529 2.209 . S
Mn504 O530 2.094 . S
Mn505 O510 2.121 . S
Mn505 N512 2.257 . S
Mn505 N521 2.282 . S
Mn505 O529 2.215 . S
Mn505 O531 2.117 . S
C506 O528 1.234 . S
C506 O529 1.283 . S
C507 O519 1.281 . S
C507 O520 1.236 . S
C508 O530 1.240 . S
C508 O531 1.264 . S
O509 Mn504 2.095 . S
O509 C518 1.250 . S
O510 Mn505 2.121 . S
O510 C518 1.258 . S
C511 N512 1.326 . S
C511 C515 1.460 . S
C511 H517 0.929 . S
N512 Mn505 2.257 . S
N512 C511 1.326 . S
N512 C516 1.362 . S
C513 C514 1.258 . S
C513 C516 1.431 . S
C513 C533 1.449 . S
C514 C513 1.258 . S
C514 C515 1.477 . S
C514 H534 0.931 . S
C515 C511 1.460 . S
C515 C514 1.477 . S
C515 H535 0.930 . S
C516 N512 1.362 . S
C516 C513 1.431 . S
C516 C526 1.476 . S
H517 C511 0.929 . S
C518 O509 1.250 . S
C518 O510 1.258 . S
O519 Mn504 2.162 . S
O519 C507 1.281 . S
O520 Mn504 2.297 . S
O520 C507 1.236 . S
N521 Mn505 2.282 . S
N521 C522 1.328 . S
N521 C526 1.318 . S
C522 N521 1.328 . S
C522 C523 1.457 . S
C522 H527 0.929 . S
C523 C522 1.457 . S
C523 C524 1.291 . S
C523 H536 0.931 . S
C524 C523 1.291 . S
C524 C525 1.373 . S
C524 H537 0.929 . S
C525 C524 1.373 . S
C525 C526 1.396 . S
C525 C532 1.403 . S
C526 C516 1.476 . S
C526 N521 1.318 . S
C526 C525 1.396 . S
H527 C522 0.929 . S
O528 Mn504 2.385 . S
O528 C506 1.234 . S
O529 Mn504 2.209 . S
O529 Mn505 2.215 . S
O529 C506 1.283 . S
O530 Mn504 2.094 . S
O530 C508 1.240 . S
O531 Mn505 2.117 . S
O531 C508 1.264 . S
C532 C525 1.403 . S
C532 C533 1.399 . S
C532 H538 0.929 . S
C533 C513 1.449 . S
C533 C532 1.399 . S
C533 H539 0.930 . S
H534 C514 0.931 . S
H535 C515 0.930 . S
H536 C523 0.931 . S
H537 C524 0.929 . S
H538 C532 0.929 . S
H539 C533 0.930 . S
Mn540 O545 2.095 . S
Mn540 O555 2.162 . S
Mn540 O556 2.297 . S
Mn540 O564 2.385 . S
Mn540 O565 2.209 . S
Mn540 O566 2.094 . S
Mn541 O546 2.121 . S
Mn541 N548 2.257 . S
Mn541 N557 2.282 . S
Mn541 O565 2.215 . S
Mn541 O567 2.117 . S
C542 O564 1.234 . S
C542 O565 1.283 . S
C543 O555 1.281 . S
C543 O556 1.236 . S
C544 O566 1.240 . S
C544 O567 1.264 . S
O545 Mn540 2.095 . S
O545 C554 1.250 . S
O546 Mn541 2.121 . S
O546 C554 1.258 . S
C547 N548 1.326 . S
C547 C551 1.460 . S
C547 H553 0.929 . S
N548 Mn541 2.257 . S
N548 C547 1.326 . S
N548 C552 1.362 . S
C549 C550 1.258 . S
C549 C552 1.431 . S
C549 C569 1.449 . S
C550 C549 1.258 . S
C550 C551 1.477 . S
C550 H570 0.931 . S
C551 C547 1.460 . S
C551 C550 1.477 . S
C551 H571 0.930 . S
C552 N548 1.362 . S
C552 C549 1.431 . S
C552 C562 1.476 . S
H553 C547 0.929 . S
C554 O545 1.250 . S
C554 O546 1.258 . S
O555 Mn540 2.162 . S
O555 C543 1.281 . S
O556 Mn540 2.297 . S
O556 C543 1.236 . S
N557 Mn541 2.282 . S
N557 C558 1.328 . S
N557 C562 1.318 . S
C558 N557 1.328 . S
C558 C559 1.457 . S
C558 H563 0.929 . S
C559 C558 1.457 . S
C559 C560 1.291 . S
C559 H572 0.931 . S
C560 C559 1.291 . S
C560 C561 1.373 . S
C560 H573 0.929 . S
C561 C560 1.373 . S
C561 C562 1.396 . S
C561 C568 1.403 . S
C562 C552 1.476 . S
C562 N557 1.318 . S
C562 C561 1.396 . S
H563 C558 0.929 . S
O564 Mn540 2.385 . S
O564 C542 1.234 . S
O565 Mn540 2.209 . S
O565 Mn541 2.215 . S
O565 C542 1.283 . S
O566 Mn540 2.094 . S
O566 C544 1.240 . S
O567 Mn541 2.117 . S
O567 C544 1.264 . S
C568 C561 1.403 . S
C568 C569 1.399 . S
C568 H574 0.929 . S
C569 C549 1.449 . S
C569 C568 1.399 . S
C569 H575 0.930 . S
H570 C550 0.931 . S
H571 C551 0.930 . S
H572 C559 0.931 . S
H573 C560 0.929 . S
H574 C568 0.929 . S
H575 C569 0.930 . S
Mn576 O581 2.095 . S
Mn576 O591 2.162 . S
Mn576 O592 2.297 . S
Mn576 O600 2.385 . S
Mn576 O601 2.209 . S
Mn576 O602 2.094 . S
Mn577 O582 2.121 . S
Mn577 N584 2.257 . S
Mn577 N593 2.282 . S
Mn577 O601 2.215 . S
Mn577 O603 2.117 . S
C578 O600 1.234 . S
C578 O601 1.283 . S
C579 O591 1.281 . S
C579 O592 1.236 . S
C580 O602 1.240 . S
C580 O603 1.264 . S
O581 Mn576 2.095 . S
O581 C590 1.250 . S
O582 Mn577 2.121 . S
O582 C590 1.258 . S
C583 N584 1.326 . S
C583 C587 1.460 . S
C583 H589 0.929 1_545 S
N584 Mn577 2.257 . S
N584 C583 1.326 . S
N584 C588 1.362 . S
C585 C586 1.258 . S
C585 C588 1.431 . S
C585 C605 1.449 . S
C586 C585 1.258 . S
C586 C587 1.477 . S
C586 H606 0.931 . S
C587 C583 1.460 . S
C587 C586 1.477 . S
C587 H607 0.930 1_545 S
C588 N584 1.362 . S
C588 C585 1.431 . S
C588 C598 1.476 . S
H589 C583 0.929 1_565 S
C590 O581 1.250 . S
C590 O582 1.258 . S
O591 Mn576 2.162 . S
O591 C579 1.281 . S
O592 Mn576 2.297 . S
O592 C579 1.236 . S
N593 Mn577 2.282 . S
N593 C594 1.328 . S
N593 C598 1.318 . S
C594 N593 1.328 . S
C594 C595 1.457 . S
C594 H599 0.929 . S
C595 C594 1.457 . S
C595 C596 1.291 . S
C595 H608 0.931 . S
C596 C595 1.291 . S
C596 C597 1.373 . S
C596 H609 0.929 . S
C597 C596 1.373 . S
C597 C598 1.396 . S
C597 C604 1.403 . S
C598 C588 1.476 . S
C598 N593 1.318 . S
C598 C597 1.396 . S
H599 C594 0.929 . S
O600 Mn576 2.385 . S
O600 C578 1.234 . S
O601 Mn576 2.209 . S
O601 Mn577 2.215 . S
O601 C578 1.283 . S
O602 Mn576 2.094 . S
O602 C580 1.240 . S
O603 Mn577 2.117 . S
O603 C580 1.264 . S
C604 C597 1.403 . S
C604 C605 1.399 . S
C604 H610 0.929 . S
C605 C585 1.449 . S
C605 C604 1.399 . S
C605 H611 0.930 . S
H606 C586 0.931 . S
H607 C587 0.930 1_565 S
H608 C595 0.931 . S
H609 C596 0.929 . S
H610 C604 0.929 . S
H611 C605 0.930 . S
Mn612 O617 2.095 . S
Mn612 O627 2.158 . S
Mn612 O628 2.297 . S
Mn612 O636 2.385 . S
Mn612 O637 2.209 . S
Mn612 O638 2.094 . S
Mn613 O618 2.121 . S
Mn613 N620 2.257 . S
Mn613 N629 2.282 . S
Mn613 O637 2.215 . S
Mn613 O639 2.117 . S
C614 O636 1.234 . S
C614 O637 1.283 . S
C615 O627 1.284 1_455 S
C615 O628 1.236 1_455 S
C616 O638 1.240 . S
C616 O639 1.264 . S
O617 Mn612 2.095 . S
O617 C626 1.250 . S
O618 Mn613 2.121 . S
O618 C626 1.258 . S
C619 N620 1.326 . S
C619 C623 1.460 . S
C619 H625 0.929 . S
N620 Mn613 2.257 . S
N620 C619 1.326 . S
N620 C624 1.362 . S
C621 C622 1.258 . S
C621 C624 1.431 . S
C621 C641 1.449 . S
C622 C621 1.258 . S
C622 C623 1.477 . S
C622 H642 0.931 . S
C623 C619 1.460 . S
C623 C622 1.477 . S
C623 H643 0.930 . S
C624 N620 1.362 . S
C624 C621 1.431 . S
C624 C634 1.476 . S
H625 C619 0.929 . S
C626 O617 1.250 . S
C626 O618 1.258 . S
O627 Mn612 2.158 . S
O627 C615 1.284 1_655 S
O628 Mn612 2.297 . S
O628 C615 1.236 1_655 S
N629 Mn613 2.282 . S
N629 C630 1.328 . S
N629 C634 1.318 . S
C630 N629 1.328 . S
C630 C631 1.457 . S
C630 H635 0.929 . S
C631 C630 1.457 . S
C631 C632 1.291 . S
C631 H644 0.931 . S
C632 C631 1.291 . S
C632 C633 1.373 . S
C632 H645 0.929 . S
C633 C632 1.373 . S
C633 C634 1.396 . S
C633 C640 1.403 . S
C634 C624 1.476 . S
C634 N629 1.318 . S
C634 C633 1.396 . S
H635 C630 0.929 . S
O636 Mn612 2.385 . S
O636 C614 1.234 . S
O637 Mn612 2.209 . S
O637 Mn613 2.215 . S
O637 C614 1.283 . S
O638 Mn612 2.094 . S
O638 C616 1.240 . S
O639 Mn613 2.117 . S
O639 C616 1.264 . S
C640 C633 1.403 . S
C640 C641 1.399 . S
C640 H646 0.929 . S
C641 C621 1.449 . S
C641 C640 1.399 . S
C641 H647 0.930 . S
H642 C622 0.931 . S
H643 C623 0.930 . S
H644 C631 0.931 . S
H645 C632 0.929 . S
H646 C640 0.929 . S
H647 C641 0.930 . S
H648 C675 0.929 . S
N649 C674 1.433 . S
N649 C680 1.435 . S
N649 C686 1.423 . S
H650 C676 0.930 . S
H651 C679 0.931 . S
H652 C678 0.929 . S
H653 C681 0.930 . S
H654 C682 0.932 . S
H655 C685 0.929 . S
H656 C684 0.931 . S
H657 C687 0.929 . S
H658 C691 0.932 . S
H659 C688 0.931 . S
H660 C690 0.929 . S
H661 C693 0.929 . S
H662 C694 0.930 . S
H663 C696 0.929 . S
H664 C697 0.931 . S
H665 C699 0.930 . S
H666 C700 0.932 . S
H667 C702 0.931 . S
H668 C703 0.929 . S
H669 C705 0.929 . S
H670 C706 0.931 . S
H671 C708 0.929 . S
N672 C692 1.433 . S
N672 C698 1.435 . S
N672 C704 1.423 . S
H673 C709 0.932 . S
C674 N649 1.433 . S
C674 C675 1.363 . S
C674 C679 1.370 . S
C675 H648 0.929 . S
C675 C674 1.363 . S
C675 C676 1.385 . S
C676 H650 0.930 . S
C676 C675 1.385 . S
C676 C677 1.357 . S
C677 C676 1.357 . S
C677 C678 1.406 . S
C678 H652 0.929 . S
C678 C677 1.406 . S
C678 C679 1.391 . S
C679 H651 0.931 . S
C679 C674 1.370 . S
C679 C678 1.391 . S
C680 N649 1.435 . S
C680 C681 1.358 . S
C680 C685 1.371 . S
C681 H653 0.930 . S
C681 C680 1.358 . S
C681 C682 1.405 . S
C682 H654 0.932 . S
C682 C681 1.405 . S
C682 C683 1.383 . S
C683 C682 1.383 . S
C683 C684 1.393 . S
C684 H656 0.931 . S
C684 C683 1.393 . S
C684 C685 1.382 . S
C685 H655 0.929 . S
C685 C680 1.371 . S
C685 C684 1.382 . S
C686 N649 1.423 . S
C686 C687 1.362 . S
C686 C691 1.388 . S
C687 H657 0.929 . S
C687 C686 1.362 . S
C687 C688 1.376 . S
C688 H659 0.931 . S
C688 C687 1.376 . S
C688 C689 1.396 . S
C689 C688 1.396 . S
C689 C690 1.348 . S
C689 C707 1.472 . S
C690 H660 0.929 . S
C690 C689 1.348 . S
C690 C691 1.443 . S
C691 H658 0.932 . S
C691 C686 1.388 . S
C691 C690 1.443 . S
C692 N672 1.433 . S
C692 C693 1.363 . S
C692 C697 1.370 . S
C693 H661 0.929 . S
C693 C692 1.363 . S
C693 C694 1.385 . S
C694 H662 0.930 . S
C694 C693 1.385 . S
C694 C695 1.357 . S
C695 C694 1.357 . S
C695 C696 1.406 . S
C696 H663 0.929 . S
C696 C695 1.406 . S
C696 C697 1.391 . S
C697 H664 0.931 . S
C697 C692 1.370 . S
C697 C696 1.391 . S
C698 N672 1.435 . S
C698 C699 1.358 . S
C698 C703 1.371 . S
C699 H665 0.930 . S
C699 C698 1.358 . S
C699 C700 1.405 . S
C700 H666 0.932 . S
C700 C699 1.405 . S
C700 C701 1.383 . S
C701 C700 1.383 . S
C701 C702 1.393 . S
C702 H667 0.931 . S
C702 C701 1.393 . S
C702 C703 1.382 . S
C703 H668 0.929 . S
C703 C698 1.371 . S
C703 C702 1.382 . S
C704 N672 1.423 . S
C704 C705 1.362 . S
C704 C709 1.388 . S
C705 H669 0.929 . S
C705 C704 1.362 . S
C705 C706 1.376 . S
C706 H670 0.931 . S
C706 C705 1.376 . S
C706 C707 1.396 . S
C707 C689 1.472 . S
C707 C706 1.396 . S
C707 C708 1.348 . S
C708 H671 0.929 . S
C708 C707 1.348 . S
C708 C709 1.443 . S
C709 H673 0.932 . S
C709 C704 1.388 . S
C709 C708 1.443 . S
H710 C737 0.929 . S
N711 C736 1.433 . S
N711 C742 1.435 . S
N711 C748 1.423 . S
H712 C738 0.930 . S
H713 C741 0.931 . S
H714 C740 0.929 . S
H715 C743 0.930 . S
H716 C744 0.932 . S
H717 C747 0.929 . S
H718 C746 0.931 . S
H719 C749 0.929 . S
H720 C753 0.932 . S
H721 C750 0.931 . S
H722 C752 0.929 . S
H723 C755 0.929 . S
H724 C756 0.930 . S
H725 C758 0.929 . S
H726 C759 0.931 . S
H727 C761 0.930 . S
H728 C762 0.932 . S
H729 C764 0.931 . S
H730 C765 0.929 . S
H731 C767 0.929 . S
H732 C768 0.931 . S
H733 C770 0.929 . S
N734 C754 1.433 . S
N734 C760 1.435 . S
N734 C766 1.423 . S
H735 C771 0.932 . S
C736 N711 1.433 . S
C736 C737 1.363 . S
C736 C741 1.370 . S
C737 H710 0.929 . S
C737 C736 1.363 . S
C737 C738 1.385 . S
C738 H712 0.930 . S
C738 C737 1.385 . S
C738 C739 1.357 . S
C739 C738 1.357 . S
C739 C740 1.406 . S
C740 H714 0.929 . S
C740 C739 1.406 . S
C740 C741 1.391 . S
C741 H713 0.931 . S
C741 C736 1.370 . S
C741 C740 1.391 . S
C742 N711 1.435 . S
C742 C743 1.358 . S
C742 C747 1.371 . S
C743 H715 0.930 . S
C743 C742 1.358 . S
C743 C744 1.405 . S
C744 H716 0.932 . S
C744 C743 1.405 . S
C744 C745 1.383 . S
C745 C744 1.383 . S
C745 C746 1.393 . S
C746 H718 0.931 . S
C746 C745 1.393 . S
C746 C747 1.382 . S
C747 H717 0.929 . S
C747 C742 1.371 . S
C747 C746 1.382 . S
C748 N711 1.423 . S
C748 C749 1.362 . S
C748 C753 1.388 . S
C749 H719 0.929 . S
C749 C748 1.362 . S
C749 C750 1.376 . S
C750 H721 0.931 . S
C750 C749 1.376 . S
C750 C751 1.396 . S
C751 C750 1.396 . S
C751 C752 1.348 . S
C751 C769 1.472 . S
C752 H722 0.929 . S
C752 C751 1.348 . S
C752 C753 1.443 . S
C753 H720 0.932 . S
C753 C748 1.388 . S
C753 C752 1.443 . S
C754 N734 1.433 . S
C754 C755 1.363 . S
C754 C759 1.370 . S
C755 H723 0.929 . S
C755 C754 1.363 . S
C755 C756 1.385 . S
C756 H724 0.930 . S
C756 C755 1.385 . S
C756 C757 1.357 . S
C757 C756 1.357 . S
C757 C758 1.406 . S
C758 H725 0.929 . S
C758 C757 1.406 . S
C758 C759 1.391 . S
C759 H726 0.931 . S
C759 C754 1.370 . S
C759 C758 1.391 . S
C760 N734 1.435 . S
C760 C761 1.358 . S
C760 C765 1.371 . S
C761 H727 0.930 . S
C761 C760 1.358 . S
C761 C762 1.405 . S
C762 H728 0.932 . S
C762 C761 1.405 . S
C762 C763 1.383 . S
C763 C762 1.383 . S
C763 C764 1.393 . S
C764 H729 0.931 . S
C764 C763 1.393 . S
C764 C765 1.382 . S
C765 H730 0.929 . S
C765 C760 1.371 . S
C765 C764 1.382 . S
C766 N734 1.423 . S
C766 C767 1.362 . S
C766 C771 1.388 . S
C767 H731 0.929 . S
C767 C766 1.362 . S
C767 C768 1.376 . S
C768 H732 0.931 . S
C768 C767 1.376 . S
C768 C769 1.396 . S
C769 C751 1.472 . S
C769 C768 1.396 . S
C769 C770 1.348 . S
C770 H733 0.929 . S
C770 C769 1.348 . S
C770 C771 1.443 . S
C771 H735 0.932 . S
C771 C766 1.388 . S
C771 C770 1.443 . S
H772 C799 0.929 . S
N773 C798 1.433 . S
N773 C804 1.435 . S
N773 C810 1.423 . S
H774 C800 0.930 . S
H775 C803 0.931 . S
H776 C802 0.929 . S
H777 C805 0.930 . S
H778 C806 0.932 . S
H779 C809 0.929 . S
H780 C808 0.931 . S
H781 C811 0.929 . S
H782 C815 0.932 . S
H783 C812 0.931 . S
H784 C814 0.929 . S
H785 C817 0.929 . S
H786 C818 0.930 . S
H787 C820 0.929 . S
H788 C821 0.931 . S
H789 C823 0.930 . S
H790 C824 0.932 . S
H791 C826 0.931 . S
H792 C827 0.929 . S
H793 C829 0.929 . S
H794 C830 0.931 . S
H795 C832 0.929 . S
N796 C816 1.433 . S
N796 C822 1.435 . S
N796 C828 1.423 . S
H797 C833 0.932 . S
C798 N773 1.433 . S
C798 C799 1.363 . S
C798 C803 1.370 . S
C799 H772 0.929 . S
C799 C798 1.363 . S
C799 C800 1.385 . S
C800 H774 0.930 . S
C800 C799 1.385 . S
C800 C801 1.357 . S
C801 C800 1.357 . S
C801 C802 1.406 . S
C802 H776 0.929 . S
C802 C801 1.406 . S
C802 C803 1.391 . S
C803 H775 0.931 . S
C803 C798 1.370 . S
C803 C802 1.391 . S
C804 N773 1.435 . S
C804 C805 1.358 . S
C804 C809 1.371 . S
C805 H777 0.930 . S
C805 C804 1.358 . S
C805 C806 1.405 . S
C806 H778 0.932 . S
C806 C805 1.405 . S
C806 C807 1.383 . S
C807 C806 1.383 . S
C807 C808 1.393 . S
C808 H780 0.931 . S
C808 C807 1.393 . S
C808 C809 1.382 . S
C809 H779 0.929 . S
C809 C804 1.371 . S
C809 C808 1.382 . S
C810 N773 1.423 . S
C810 C811 1.362 . S
C810 C815 1.388 . S
C811 H781 0.929 . S
C811 C810 1.362 . S
C811 C812 1.376 . S
C812 H783 0.931 . S
C812 C811 1.376 . S
C812 C813 1.396 . S
C813 C812 1.396 . S
C813 C814 1.348 . S
C813 C831 1.472 . S
C814 H784 0.929 . S
C814 C813 1.348 . S
C814 C815 1.443 . S
C815 H782 0.932 . S
C815 C810 1.388 . S
C815 C814 1.443 . S
C816 N796 1.433 . S
C816 C817 1.363 . S
C816 C821 1.370 . S
C817 H785 0.929 . S
C817 C816 1.363 . S
C817 C818 1.385 . S
C818 H786 0.930 . S
C818 C817 1.385 . S
C818 C819 1.357 . S
C819 C818 1.357 . S
C819 C820 1.406 . S
C820 H787 0.929 . S
C820 C819 1.406 . S
C820 C821 1.391 . S
C821 H788 0.931 . S
C821 C816 1.370 . S
C821 C820 1.391 . S
C822 N796 1.435 . S
C822 C823 1.358 . S
C822 C827 1.371 . S
C823 H789 0.930 . S
C823 C822 1.358 . S
C823 C824 1.405 . S
C824 H790 0.932 . S
C824 C823 1.405 . S
C824 C825 1.383 . S
C825 C824 1.383 . S
C825 C826 1.393 . S
C826 H791 0.931 . S
C826 C825 1.393 . S
C826 C827 1.382 . S
C827 H792 0.929 . S
C827 C822 1.371 . S
C827 C826 1.382 . S
C828 N796 1.423 . S
C828 C829 1.362 . S
C828 C833 1.388 . S
C829 H793 0.929 . S
C829 C828 1.362 . S
C829 C830 1.376 . S
C830 H794 0.931 . S
C830 C829 1.376 . S
C830 C831 1.396 . S
C831 C813 1.472 . S
C831 C830 1.396 . S
C831 C832 1.348 . S
C832 H795 0.929 . S
C832 C831 1.348 . S
C832 C833 1.443 . S
C833 H797 0.932 . S
C833 C828 1.388 . S
C833 C832 1.443 . S
H834 C861 0.929 . S
N835 C860 1.433 . S
N835 C866 1.435 . S
N835 C872 1.423 . S
H836 C862 0.930 . S
H837 C865 0.931 . S
H838 C864 0.929 . S
H839 C867 0.930 . S
H840 C868 0.932 . S
H841 C871 0.929 . S
H842 C870 0.931 . S
H843 C873 0.929 . S
H844 C877 0.932 . S
H845 C874 0.931 . S
H846 C876 0.929 . S
H847 C879 0.929 . S
H848 C880 0.930 . S
H849 C882 0.929 . S
H850 C883 0.931 . S
H851 C885 0.930 . S
H852 C886 0.932 . S
H853 C888 0.931 . S
H854 C889 0.929 . S
H855 C891 0.929 . S
H856 C892 0.931 . S
H857 C894 0.929 . S
N858 C878 1.433 . S
N858 C884 1.435 . S
N858 C890 1.423 . S
H859 C895 0.932 . S
C860 N835 1.433 . S
C860 C861 1.363 . S
C860 C865 1.370 . S
C861 H834 0.929 . S
C861 C860 1.363 . S
C861 C862 1.385 . S
C862 H836 0.930 . S
C862 C861 1.385 . S
C862 C863 1.357 . S
C863 C862 1.357 . S
C863 C864 1.406 . S
C864 H838 0.929 . S
C864 C863 1.406 . S
C864 C865 1.391 . S
C865 H837 0.931 . S
C865 C860 1.370 . S
C865 C864 1.391 . S
C866 N835 1.435 . S
C866 C867 1.358 . S
C866 C871 1.371 . S
C867 H839 0.930 . S
C867 C866 1.358 . S
C867 C868 1.405 . S
C868 H840 0.932 . S
C868 C867 1.405 . S
C868 C869 1.383 . S
C869 C868 1.383 . S
C869 C870 1.393 . S
C870 H842 0.931 . S
C870 C869 1.393 . S
C870 C871 1.382 . S
C871 H841 0.929 . S
C871 C866 1.371 . S
C871 C870 1.382 . S
C872 N835 1.423 . S
C872 C873 1.362 . S
C872 C877 1.388 . S
C873 H843 0.929 . S
C873 C872 1.362 . S
C873 C874 1.376 . S
C874 H845 0.931 . S
C874 C873 1.376 . S
C874 C875 1.396 . S
C875 C874 1.396 . S
C875 C876 1.348 . S
C875 C893 1.472 . S
C876 H846 0.929 . S
C876 C875 1.348 . S
C876 C877 1.443 . S
C877 H844 0.932 . S
C877 C872 1.388 . S
C877 C876 1.443 . S
C878 N858 1.433 . S
C878 C879 1.363 . S
C878 C883 1.370 . S
C879 H847 0.929 . S
C879 C878 1.363 . S
C879 C880 1.385 . S
C880 H848 0.930 . S
C880 C879 1.385 . S
C880 C881 1.357 . S
C881 C880 1.357 . S
C881 C882 1.406 . S
C882 H849 0.929 . S
C882 C881 1.406 . S
C882 C883 1.391 . S
C883 H850 0.931 . S
C883 C878 1.370 . S
C883 C882 1.391 . S
C884 N858 1.435 . S
C884 C885 1.358 . S
C884 C889 1.371 . S
C885 H851 0.930 . S
C885 C884 1.358 . S
C885 C886 1.405 . S
C886 H852 0.932 . S
C886 C885 1.405 . S
C886 C887 1.383 . S
C887 C886 1.383 . S
C887 C888 1.393 . S
C888 H853 0.931 . S
C888 C887 1.393 . S
C888 C889 1.382 . S
C889 H854 0.929 . S
C889 C884 1.371 . S
C889 C888 1.382 . S
C890 N858 1.423 . S
C890 C891 1.362 . S
C890 C895 1.388 . S
C891 H855 0.929 . S
C891 C890 1.362 . S
C891 C892 1.376 . S
C892 H856 0.931 . S
C892 C891 1.376 . S
C892 C893 1.396 . S
C893 C875 1.472 . S
C893 C892 1.396 . S
C893 C894 1.348 . S
C894 H857 0.929 . S
C894 C893 1.348 . S
C894 C895 1.443 . S
C895 H859 0.932 . S
C895 C890 1.388 . S
C895 C894 1.443 . S
H896 C923 0.929 . S
N897 C922 1.433 . S
N897 C928 1.435 . S
N897 C934 1.423 . S
H898 C924 0.930 . S
H899 C927 0.931 . S
H900 C926 0.929 . S
H901 C929 0.930 . S
H902 C930 0.932 . S
H903 C933 0.929 . S
H904 C932 0.931 . S
H905 C935 0.929 . S
H906 C939 0.932 . S
H907 C936 0.931 . S
H908 C938 0.929 . S
H909 C941 0.929 . S
H910 C942 0.930 . S
H911 C944 0.929 . S
H912 C945 0.931 . S
H913 C947 0.930 . S
H914 C948 0.932 . S
H915 C950 0.931 . S
H916 C951 0.929 . S
H917 C953 0.929 . S
H918 C954 0.931 . S
H919 C956 0.929 . S
N920 C940 1.433 . S
N920 C946 1.435 . S
N920 C952 1.423 . S
H921 C957 0.932 . S
C922 N897 1.433 . S
C922 C923 1.363 . S
C922 C927 1.370 . S
C923 H896 0.929 . S
C923 C922 1.363 . S
C923 C924 1.385 . S
C924 H898 0.930 . S
C924 C923 1.385 . S
C924 C925 1.357 . S
C925 C924 1.357 . S
C925 C926 1.406 . S
C926 H900 0.929 . S
C926 C925 1.406 . S
C926 C927 1.391 . S
C927 H899 0.931 . S
C927 C922 1.370 . S
C927 C926 1.391 . S
C928 N897 1.435 . S
C928 C929 1.358 . S
C928 C933 1.371 . S
C929 H901 0.930 . S
C929 C928 1.358 . S
C929 C930 1.405 . S
C930 H902 0.932 . S
C930 C929 1.405 . S
C930 C931 1.383 . S
C931 C930 1.383 . S
C931 C932 1.393 . S
C932 H904 0.931 . S
C932 C931 1.393 . S
C932 C933 1.382 . S
C933 H903 0.929 . S
C933 C928 1.371 . S
C933 C932 1.382 . S
C934 N897 1.423 . S
C934 C935 1.362 . S
C934 C939 1.388 . S
C935 H905 0.929 . S
C935 C934 1.362 . S
C935 C936 1.376 . S
C936 H907 0.931 . S
C936 C935 1.376 . S
C936 C937 1.396 . S
C937 C936 1.396 . S
C937 C938 1.348 . S
C937 C955 1.472 . S
C938 H908 0.929 . S
C938 C937 1.348 . S
C938 C939 1.443 . S
C939 H906 0.932 . S
C939 C934 1.388 . S
C939 C938 1.443 . S
C940 N920 1.433 . S
C940 C941 1.363 . S
C940 C945 1.370 . S
C941 H909 0.929 . S
C941 C940 1.363 . S
C941 C942 1.385 . S
C942 H910 0.930 . S
C942 C941 1.385 . S
C942 C943 1.357 . S
C943 C942 1.357 . S
C943 C944 1.406 . S
C944 H911 0.929 . S
C944 C943 1.406 . S
C944 C945 1.391 . S
C945 H912 0.931 . S
C945 C940 1.370 . S
C945 C944 1.391 . S
C946 N920 1.435 . S
C946 C947 1.358 . S
C946 C951 1.371 . S
C947 H913 0.930 . S
C947 C946 1.358 . S
C947 C948 1.405 . S
C948 H914 0.932 . S
C948 C947 1.405 . S
C948 C949 1.383 . S
C949 C948 1.383 . S
C949 C950 1.393 . S
C950 H915 0.931 . S
C950 C949 1.393 . S
C950 C951 1.382 . S
C951 H916 0.929 . S
C951 C946 1.371 . S
C951 C950 1.382 . S
C952 N920 1.423 . S
C952 C953 1.362 . S
C952 C957 1.388 . S
C953 H917 0.929 . S
C953 C952 1.362 . S
C953 C954 1.376 . S
C954 H918 0.931 . S
C954 C953 1.376 . S
C954 C955 1.396 . S
C955 C937 1.472 . S
C955 C954 1.396 . S
C955 C956 1.348 . S
C956 H919 0.929 . S
C956 C955 1.348 . S
C956 C957 1.443 . S
C957 H921 0.932 . S
C957 C952 1.388 . S
C957 C956 1.443 . S
H958 C985 0.929 . S
N959 C984 1.433 . S
N959 C990 1.435 . S
N959 C996 1.423 . S
H960 C986 0.930 . S
H961 C989 0.931 . S
H962 C988 0.929 . S
H963 C991 0.930 . S
H964 C992 0.932 . S
H965 C995 0.929 . S
H966 C994 0.931 . S
H967 C997 0.929 . S
H968 C1001 0.932 . S
H969 C998 0.931 . S
H970 C1000 0.929 . S
H971 C1003 0.929 . S
H972 C1004 0.930 . S
H973 C1006 0.929 . S
H974 C1007 0.931 . S
H975 C1009 0.930 . S
H976 C1010 0.932 . S
H977 C1012 0.931 . S
H978 C1013 0.929 . S
H979 C1015 0.929 . S
H980 C1016 0.931 . S
H981 C1018 0.929 . S
N982 C1002 1.433 . S
N982 C1008 1.435 . S
N982 C1014 1.423 . S
H983 C1019 0.932 . S
C984 N959 1.433 . S
C984 C985 1.363 . S
C984 C989 1.370 . S
C985 H958 0.929 . S
C985 C984 1.363 . S
C985 C986 1.385 . S
C986 H960 0.930 . S
C986 C985 1.385 . S
C986 C987 1.357 . S
C987 C986 1.357 . S
C987 C988 1.406 . S
C988 H962 0.929 . S
C988 C987 1.406 . S
C988 C989 1.391 . S
C989 H961 0.931 . S
C989 C984 1.370 . S
C989 C988 1.391 . S
C990 N959 1.435 . S
C990 C991 1.358 . S
C990 C995 1.371 . S
C991 H963 0.930 . S
C991 C990 1.358 . S
C991 C992 1.405 . S
C992 H964 0.932 . S
C992 C991 1.405 . S
C992 C993 1.383 . S
C993 C992 1.383 . S
C993 C994 1.393 . S
C994 H966 0.931 . S
C994 C993 1.393 . S
C994 C995 1.382 . S
C995 H965 0.929 . S
C995 C990 1.371 . S
C995 C994 1.382 . S
C996 N959 1.423 . S
C996 C997 1.362 . S
C996 C1001 1.388 . S
C997 H967 0.929 . S
C997 C996 1.362 . S
C997 C998 1.376 . S
C998 H969 0.931 . S
C998 C997 1.376 . S
C998 C999 1.396 . S
C999 C998 1.396 . S
C999 C1000 1.348 . S
C999 C1017 1.472 . S
C1000 H970 0.929 . S
C1000 C999 1.348 . S
C1000 C1001 1.443 . S
C1001 H968 0.932 . S
C1001 C996 1.388 . S
C1001 C1000 1.443 . S
C1002 N982 1.433 . S
C1002 C1003 1.363 . S
C1002 C1007 1.370 . S
C1003 H971 0.929 . S
C1003 C1002 1.363 . S
C1003 C1004 1.385 . S
C1004 H972 0.930 . S
C1004 C1003 1.385 . S
C1004 C1005 1.357 . S
C1005 C1004 1.357 . S
C1005 C1006 1.406 . S
C1006 H973 0.929 . S
C1006 C1005 1.406 . S
C1006 C1007 1.391 . S
C1007 H974 0.931 . S
C1007 C1002 1.370 . S
C1007 C1006 1.391 . S
C1008 N982 1.435 . S
C1008 C1009 1.358 . S
C1008 C1013 1.371 . S
C1009 H975 0.930 . S
C1009 C1008 1.358 . S
C1009 C1010 1.405 . S
C1010 H976 0.932 . S
C1010 C1009 1.405 . S
C1010 C1011 1.383 . S
C1011 C1010 1.383 . S
C1011 C1012 1.393 . S
C1012 H977 0.931 . S
C1012 C1011 1.393 . S
C1012 C1013 1.382 . S
C1013 H978 0.929 . S
C1013 C1008 1.371 . S
C1013 C1012 1.382 . S
C1014 N982 1.423 . S
C1014 C1015 1.362 . S
C1014 C1019 1.388 . S
C1015 H979 0.929 . S
C1015 C1014 1.362 . S
C1015 C1016 1.376 . S
C1016 H980 0.931 . S
C1016 C1015 1.376 . S
C1016 C1017 1.396 . S
C1017 C999 1.472 . S
C1017 C1016 1.396 . S
C1017 C1018 1.348 . S
C1018 H981 0.929 . S
C1018 C1017 1.348 . S
C1018 C1019 1.443 . S
C1019 H983 0.932 . S
C1019 C1014 1.388 . S
C1019 C1018 1.443 . S
H1020 C1047 0.929 . S
N1021 C1046 1.433 . S
N1021 C1052 1.435 . S
N1021 C1058 1.423 . S
H1022 C1048 0.930 . S
H1023 C1051 0.931 . S
H1024 C1050 0.929 . S
H1025 C1053 0.930 . S
H1026 C1054 0.932 . S
H1027 C1057 0.929 . S
H1028 C1056 0.931 . S
H1029 C1059 0.929 . S
H1030 C1063 0.932 . S
H1031 C1060 0.931 . S
H1032 C1062 0.929 . S
H1033 C1065 0.929 . S
H1034 C1066 0.930 . S
H1035 C1068 0.929 . S
H1036 C1069 0.931 . S
H1037 C1071 0.930 . S
H1038 C1072 0.932 . S
H1039 C1074 0.931 . S
H1040 C1075 0.929 . S
H1041 C1077 0.929 . S
H1042 C1078 0.931 . S
H1043 C1080 0.929 . S
N1044 C1064 1.433 . S
N1044 C1070 1.435 . S
N1044 C1076 1.423 . S
H1045 C1081 0.932 . S
C1046 N1021 1.433 . S
C1046 C1047 1.363 . S
C1046 C1051 1.370 . S
C1047 H1020 0.929 . S
C1047 C1046 1.363 . S
C1047 C1048 1.385 . S
C1048 H1022 0.930 . S
C1048 C1047 1.385 . S
C1048 C1049 1.357 . S
C1049 C1048 1.357 . S
C1049 C1050 1.406 . S
C1050 H1024 0.929 . S
C1050 C1049 1.406 . S
C1050 C1051 1.391 . S
C1051 H1023 0.931 . S
C1051 C1046 1.370 . S
C1051 C1050 1.391 . S
C1052 N1021 1.435 . S
C1052 C1053 1.358 . S
C1052 C1057 1.371 . S
C1053 H1025 0.930 . S
C1053 C1052 1.358 . S
C1053 C1054 1.405 . S
C1054 H1026 0.932 . S
C1054 C1053 1.405 . S
C1054 C1055 1.383 . S
C1055 C1054 1.383 . S
C1055 C1056 1.393 . S
C1056 H1028 0.931 . S
C1056 C1055 1.393 . S
C1056 C1057 1.382 . S
C1057 H1027 0.929 . S
C1057 C1052 1.371 . S
C1057 C1056 1.382 . S
C1058 N1021 1.423 . S
C1058 C1059 1.362 . S
C1058 C1063 1.388 . S
C1059 H1029 0.929 . S
C1059 C1058 1.362 . S
C1059 C1060 1.376 . S
C1060 H1031 0.931 . S
C1060 C1059 1.376 . S
C1060 C1061 1.396 . S
C1061 C1060 1.396 . S
C1061 C1062 1.348 . S
C1061 C1079 1.472 . S
C1062 H1032 0.929 . S
C1062 C1061 1.348 . S
C1062 C1063 1.443 . S
C1063 H1030 0.932 . S
C1063 C1058 1.388 . S
C1063 C1062 1.443 . S
C1064 N1044 1.433 . S
C1064 C1065 1.363 . S
C1064 C1069 1.370 . S
C1065 H1033 0.929 . S
C1065 C1064 1.363 . S
C1065 C1066 1.385 . S
C1066 H1034 0.930 . S
C1066 C1065 1.385 . S
C1066 C1067 1.357 . S
C1067 C1066 1.357 . S
C1067 C1068 1.406 . S
C1068 H1035 0.929 . S
C1068 C1067 1.406 . S
C1068 C1069 1.391 . S
C1069 H1036 0.931 . S
C1069 C1064 1.370 . S
C1069 C1068 1.391 . S
C1070 N1044 1.435 . S
C1070 C1071 1.358 . S
C1070 C1075 1.371 . S
C1071 H1037 0.930 . S
C1071 C1070 1.358 . S
C1071 C1072 1.405 . S
C1072 H1038 0.932 . S
C1072 C1071 1.405 . S
C1072 C1073 1.383 . S
C1073 C1072 1.383 . S
C1073 C1074 1.393 . S
C1074 H1039 0.931 . S
C1074 C1073 1.393 . S
C1074 C1075 1.382 . S
C1075 H1040 0.929 . S
C1075 C1070 1.371 . S
C1075 C1074 1.382 . S
C1076 N1044 1.423 . S
C1076 C1077 1.362 . S
C1076 C1081 1.388 . S
C1077 H1041 0.929 . S
C1077 C1076 1.362 . S
C1077 C1078 1.376 . S
C1078 H1042 0.931 . S
C1078 C1077 1.376 . S
C1078 C1079 1.396 . S
C1079 C1061 1.472 . S
C1079 C1078 1.396 . S
C1079 C1080 1.348 . S
C1080 H1043 0.929 . S
C1080 C1079 1.348 . S
C1080 C1081 1.443 . S
C1081 H1045 0.932 . S
C1081 C1076 1.388 . S
C1081 C1080 1.443 . S
H1082 C1109 0.929 . S
N1083 C1108 1.433 . S
N1083 C1114 1.435 . S
N1083 C1120 1.423 . S
H1084 C1110 0.930 . S
H1085 C1113 0.931 . S
H1086 C1112 0.929 . S
H1087 C1115 0.930 . S
H1088 C1116 0.932 . S
H1089 C1119 0.929 . S
H1090 C1118 0.931 . S
H1091 C1121 0.929 . S
H1092 C1125 0.932 . S
H1093 C1122 0.931 . S
H1094 C1124 0.929 . S
H1095 C1127 0.929 . S
H1096 C1128 0.930 . S
H1097 C1130 0.929 . S
H1098 C1131 0.931 . S
H1099 C1133 0.930 . S
H1100 C1134 0.932 . S
H1101 C1136 0.931 . S
H1102 C1137 0.929 . S
H1103 C1139 0.929 . S
H1104 C1140 0.931 . S
H1105 C1142 0.929 . S
N1106 C1126 1.433 . S
N1106 C1132 1.435 . S
N1106 C1138 1.423 . S
H1107 C1143 0.932 . S
C1108 N1083 1.433 . S
C1108 C1109 1.363 . S
C1108 C1113 1.370 . S
C1109 H1082 0.929 . S
C1109 C1108 1.363 . S
C1109 C1110 1.385 . S
C1110 H1084 0.930 . S
C1110 C1109 1.385 . S
C1110 C1111 1.357 . S
C1111 C1110 1.357 . S
C1111 C1112 1.406 . S
C1112 H1086 0.929 . S
C1112 C1111 1.406 . S
C1112 C1113 1.391 . S
C1113 H1085 0.931 . S
C1113 C1108 1.370 . S
C1113 C1112 1.391 . S
C1114 N1083 1.435 . S
C1114 C1115 1.358 . S
C1114 C1119 1.371 . S
C1115 H1087 0.930 . S
C1115 C1114 1.358 . S
C1115 C1116 1.405 . S
C1116 H1088 0.932 . S
C1116 C1115 1.405 . S
C1116 C1117 1.383 . S
C1117 C1116 1.383 . S
C1117 C1118 1.393 . S
C1118 H1090 0.931 . S
C1118 C1117 1.393 . S
C1118 C1119 1.382 . S
C1119 H1089 0.929 . S
C1119 C1114 1.371 . S
C1119 C1118 1.382 . S
C1120 N1083 1.423 . S
C1120 C1121 1.362 . S
C1120 C1125 1.388 . S
C1121 H1091 0.929 . S
C1121 C1120 1.362 . S
C1121 C1122 1.376 . S
C1122 H1093 0.931 . S
C1122 C1121 1.376 . S
C1122 C1123 1.396 . S
C1123 C1122 1.396 . S
C1123 C1124 1.348 . S
C1123 C1141 1.472 . S
C1124 H1094 0.929 . S
C1124 C1123 1.348 . S
C1124 C1125 1.443 . S
C1125 H1092 0.932 . S
C1125 C1120 1.388 . S
C1125 C1124 1.443 . S
C1126 N1106 1.433 . S
C1126 C1127 1.363 . S
C1126 C1131 1.370 . S
C1127 H1095 0.929 . S
C1127 C1126 1.363 . S
C1127 C1128 1.385 . S
C1128 H1096 0.930 . S
C1128 C1127 1.385 . S
C1128 C1129 1.357 . S
C1129 C1128 1.357 . S
C1129 C1130 1.406 . S
C1130 H1097 0.929 . S
C1130 C1129 1.406 . S
C1130 C1131 1.391 . S
C1131 H1098 0.931 . S
C1131 C1126 1.370 . S
C1131 C1130 1.391 . S
C1132 N1106 1.435 . S
C1132 C1133 1.358 . S
C1132 C1137 1.371 . S
C1133 H1099 0.930 . S
C1133 C1132 1.358 . S
C1133 C1134 1.405 . S
C1134 H1100 0.932 . S
C1134 C1133 1.405 . S
C1134 C1135 1.383 . S
C1135 C1134 1.383 . S
C1135 C1136 1.393 . S
C1136 H1101 0.931 . S
C1136 C1135 1.393 . S
C1136 C1137 1.382 . S
C1137 H1102 0.929 . S
C1137 C1132 1.371 . S
C1137 C1136 1.382 . S
C1138 N1106 1.423 . S
C1138 C1139 1.362 . S
C1138 C1143 1.388 . S
C1139 H1103 0.929 . S
C1139 C1138 1.362 . S
C1139 C1140 1.376 . S
C1140 H1104 0.931 . S
C1140 C1139 1.376 . S
C1140 C1141 1.396 . S
C1141 C1123 1.472 . S
C1141 C1140 1.396 . S
C1141 C1142 1.348 . S
C1142 H1105 0.929 . S
C1142 C1141 1.348 . S
C1142 C1143 1.443 . S
C1143 H1107 0.932 . S
C1143 C1138 1.388 . S
C1143 C1142 1.443 . S
H1144 C1171 0.929 . S
N1145 C1170 1.433 . S
N1145 C1176 1.435 . S
N1145 C1182 1.423 . S
H1146 C1172 0.930 . S
H1147 C1175 0.931 . S
H1148 C1174 0.929 . S
H1149 C1177 0.930 . S
H1150 C1178 0.932 . S
H1151 C1181 0.929 . S
H1152 C1180 0.931 . S
H1153 C1183 0.929 . S
H1154 C1187 0.932 . S
H1155 C1184 0.931 . S
H1156 C1186 0.929 . S
H1157 C1189 0.929 . S
H1158 C1190 0.930 . S
H1159 C1192 0.929 . S
H1160 C1193 0.931 . S
H1161 C1195 0.930 . S
H1162 C1196 0.932 . S
H1163 C1198 0.931 . S
H1164 C1199 0.929 . S
H1165 C1201 0.929 . S
H1166 C1202 0.931 . S
H1167 C1204 0.929 . S
N1168 C1188 1.433 . S
N1168 C1194 1.435 . S
N1168 C1200 1.423 . S
H1169 C1205 0.932 . S
C1170 N1145 1.433 . S
C1170 C1171 1.363 . S
C1170 C1175 1.370 . S
C1171 H1144 0.929 . S
C1171 C1170 1.363 . S
C1171 C1172 1.385 . S
C1172 H1146 0.930 . S
C1172 C1171 1.385 . S
C1172 C1173 1.357 . S
C1173 C1172 1.357 . S
C1173 C1174 1.406 . S
C1174 H1148 0.929 . S
C1174 C1173 1.406 . S
C1174 C1175 1.391 . S
C1175 H1147 0.931 . S
C1175 C1170 1.370 . S
C1175 C1174 1.391 . S
C1176 N1145 1.435 . S
C1176 C1177 1.358 . S
C1176 C1181 1.371 . S
C1177 H1149 0.930 . S
C1177 C1176 1.358 . S
C1177 C1178 1.405 . S
C1178 H1150 0.932 . S
C1178 C1177 1.405 . S
C1178 C1179 1.383 . S
C1179 C1178 1.383 . S
C1179 C1180 1.393 . S
C1180 H1152 0.931 . S
C1180 C1179 1.393 . S
C1180 C1181 1.382 . S
C1181 H1151 0.929 . S
C1181 C1176 1.371 . S
C1181 C1180 1.382 . S
C1182 N1145 1.423 . S
C1182 C1183 1.362 . S
C1182 C1187 1.388 . S
C1183 H1153 0.929 . S
C1183 C1182 1.362 . S
C1183 C1184 1.376 . S
C1184 H1155 0.931 . S
C1184 C1183 1.376 . S
C1184 C1185 1.396 . S
C1185 C1184 1.396 . S
C1185 C1186 1.348 . S
C1185 C1203 1.472 . S
C1186 H1156 0.929 . S
C1186 C1185 1.348 . S
C1186 C1187 1.443 . S
C1187 H1154 0.932 . S
C1187 C1182 1.388 . S
C1187 C1186 1.443 . S
C1188 N1168 1.433 . S
C1188 C1189 1.363 . S
C1188 C1193 1.370 . S
C1189 H1157 0.929 . S
C1189 C1188 1.363 . S
C1189 C1190 1.385 . S
C1190 H1158 0.930 . S
C1190 C1189 1.385 . S
C1190 C1191 1.357 . S
C1191 C1190 1.357 . S
C1191 C1192 1.406 . S
C1192 H1159 0.929 . S
C1192 C1191 1.406 . S
C1192 C1193 1.391 . S
C1193 H1160 0.931 . S
C1193 C1188 1.370 . S
C1193 C1192 1.391 . S
C1194 N1168 1.435 . S
C1194 C1195 1.358 . S
C1194 C1199 1.371 . S
C1195 H1161 0.930 . S
C1195 C1194 1.358 . S
C1195 C1196 1.405 . S
C1196 H1162 0.932 . S
C1196 C1195 1.405 . S
C1196 C1197 1.383 . S
C1197 C1196 1.383 . S
C1197 C1198 1.393 . S
C1198 H1163 0.931 . S
C1198 C1197 1.393 . S
C1198 C1199 1.382 . S
C1199 H1164 0.929 . S
C1199 C1194 1.371 . S
C1199 C1198 1.382 . S
C1200 N1168 1.423 . S
C1200 C1201 1.362 . S
C1200 C1205 1.388 . S
C1201 H1165 0.929 . S
C1201 C1200 1.362 . S
C1201 C1202 1.376 . S
C1202 H1166 0.931 . S
C1202 C1201 1.376 . S
C1202 C1203 1.396 . S
C1203 C1185 1.472 . S
C1203 C1202 1.396 . S
C1203 C1204 1.348 . S
C1204 H1167 0.929 . S
C1204 C1203 1.348 . S
C1204 C1205 1.443 . S
C1205 H1169 0.932 . S
C1205 C1200 1.388 . S
C1205 C1204 1.443 . S
H1206 C1233 0.929 . S
N1207 C1232 1.433 . S
N1207 C1238 1.435 . S
N1207 C1244 1.423 . S
H1208 C1234 0.930 . S
H1209 C1237 0.931 . S
H1210 C1236 0.929 . S
H1211 C1239 0.930 . S
H1212 C1240 0.932 . S
H1213 C1243 0.929 . S
H1214 C1242 0.931 . S
H1215 C1245 0.929 . S
H1216 C1249 0.932 1_655 S
H1217 C1246 0.931 . S
H1218 C1248 0.941 . S
H1219 C1251 0.929 . S
H1220 C1252 0.930 . S
H1221 C1254 0.929 . S
H1222 C1255 0.931 . S
H1223 C1257 0.930 . S
H1224 C1258 0.932 . S
H1225 C1260 0.931 . S
H1226 C1261 0.929 . S
H1227 C1263 0.929 . S
H1228 C1264 0.931 . S
H1229 C1266 0.973 . S
N1230 C1250 1.433 . S
N1230 C1256 1.435 . S
N1230 C1262 1.423 . S
H1231 C1267 0.932 1_655 S
C1232 N1207 1.433 . S
C1232 C1233 1.363 . S
C1232 C1237 1.370 1_455 S
C1233 H1206 0.929 . S
C1233 C1232 1.363 . S
C1233 C1234 1.385 . S
C1234 H1208 0.930 . S
C1234 C1233 1.385 . S
C1234 C1235 1.357 1_455 S
C1235 C1234 1.357 1_655 S
C1235 C1236 1.406 . S
C1236 H1210 0.929 . S
C1236 C1235 1.406 . S
C1236 C1237 1.391 . S
C1237 H1209 0.931 . S
C1237 C1232 1.370 1_655 S
C1237 C1236 1.391 . S
C1238 N1207 1.435 . S
C1238 C1239 1.358 1_455 S
C1238 C1243 1.371 . S
C1239 H1211 0.930 . S
C1239 C1238 1.358 1_655 S
C1239 C1240 1.405 . S
C1240 H1212 0.932 . S
C1240 C1239 1.405 . S
C1240 C1241 1.383 1_655 S
C1241 C1240 1.383 1_455 S
C1241 C1242 1.393 . S
C1242 H1214 0.931 . S
C1242 C1241 1.393 . S
C1242 C1243 1.382 . S
C1243 H1213 0.929 . S
C1243 C1238 1.371 . S
C1243 C1242 1.382 . S
C1244 N1207 1.423 . S
C1244 C1245 1.362 . S
C1244 C1249 1.388 . S
C1245 H1215 0.929 . S
C1245 C1244 1.362 . S
C1245 C1246 1.376 . S
C1246 H1217 0.931 . S
C1246 C1245 1.376 . S
C1246 C1247 1.396 . S
C1247 C1246 1.396 . S
C1247 C1248 1.348 . S
C1247 C1265 1.472 . S
C1248 H1218 0.941 . S
C1248 C1247 1.348 . S
C1248 C1249 1.443 . S
C1249 H1216 0.932 1_455 S
C1249 C1244 1.388 . S
C1249 C1248 1.443 . S
C1250 N1230 1.433 . S
C1250 C1251 1.363 . S
C1250 C1255 1.370 1_455 S
C1251 H1219 0.929 . S
C1251 C1250 1.363 . S
C1251 C1252 1.385 . S
C1252 H1220 0.930 . S
C1252 C1251 1.385 . S
C1252 C1253 1.357 1_455 S
C1253 C1252 1.357 1_655 S
C1253 C1254 1.406 . S
C1254 H1221 0.929 . S
C1254 C1253 1.406 . S
C1254 C1255 1.391 . S
C1255 H1222 0.931 . S
C1255 C1250 1.370 1_655 S
C1255 C1254 1.391 . S
C1256 N1230 1.435 . S
C1256 C1257 1.358 1_455 S
C1256 C1261 1.371 . S
C1257 H1223 0.930 . S
C1257 C1256 1.358 1_655 S
C1257 C1258 1.405 . S
C1258 H1224 0.932 . S
C1258 C1257 1.405 . S
C1258 C1259 1.383 1_655 S
C1259 C1258 1.383 1_455 S
C1259 C1260 1.393 . S
C1260 H1225 0.931 . S
C1260 C1259 1.393 . S
C1260 C1261 1.382 . S
C1261 H1226 0.929 . S
C1261 C1256 1.371 . S
C1261 C1260 1.382 . S
C1262 N1230 1.423 . S
C1262 C1263 1.362 . S
C1262 C1267 1.388 . S
C1263 H1227 0.929 . S
C1263 C1262 1.362 . S
C1263 C1264 1.376 . S
C1264 H1228 0.931 . S
C1264 C1263 1.376 . S
C1264 C1265 1.396 . S
C1265 C1247 1.472 . S
C1265 C1264 1.396 . S
C1265 C1266 1.348 . S
C1266 H1229 0.973 . S
C1266 C1265 1.348 . S
C1266 C1267 1.443 . S
C1267 H1231 0.932 1_455 S
C1267 C1262 1.388 . S
C1267 C1266 1.443 . S
H1268 C1295 0.929 . S
N1269 C1294 1.433 . S
N1269 C1300 1.435 . S
N1269 C1306 1.423 . S
H1270 C1296 0.930 . S
H1271 C1299 0.931 . S
H1272 C1298 0.929 . S
H1273 C1301 0.930 . S
H1274 C1302 0.932 . S
H1275 C1305 0.929 . S
H1276 C1304 0.931 . S
H1277 C1307 0.929 . S
H1278 C1311 0.932 . S
H1279 C1308 0.931 . S
H1280 C1310 0.929 . S
H1281 C1313 0.929 . S
H1282 C1314 0.930 . S
H1283 C1316 0.929 . S
H1284 C1317 0.931 . S
H1285 C1319 0.930 . S
H1286 C1320 0.932 . S
H1287 C1322 0.931 . S
H1288 C1323 0.929 . S
H1289 C1325 0.929 . S
H1290 C1326 0.931 . S
H1291 C1328 0.929 . S
N1292 C1312 1.433 . S
N1292 C1318 1.435 . S
N1292 C1324 1.423 . S
H1293 C1329 0.932 . S
C1294 N1269 1.433 . S
C1294 C1295 1.363 . S
C1294 C1299 1.370 . S
C1295 H1268 0.929 . S
C1295 C1294 1.363 . S
C1295 C1296 1.385 . S
C1296 H1270 0.930 . S
C1296 C1295 1.385 . S
C1296 C1297 1.357 . S
C1297 C1296 1.357 . S
C1297 C1298 1.406 . S
C1298 H1272 0.929 . S
C1298 C1297 1.406 . S
C1298 C1299 1.391 . S
C1299 H1271 0.931 . S
C1299 C1294 1.370 . S
C1299 C1298 1.391 . S
C1300 N1269 1.435 . S
C1300 C1301 1.358 . S
C1300 C1305 1.371 . S
C1301 H1273 0.930 . S
C1301 C1300 1.358 . S
C1301 C1302 1.405 . S
C1302 H1274 0.932 . S
C1302 C1301 1.405 . S
C1302 C1303 1.383 . S
C1303 C1302 1.383 . S
C1303 C1304 1.393 . S
C1304 H1276 0.931 . S
C1304 C1303 1.393 . S
C1304 C1305 1.382 . S
C1305 H1275 0.929 . S
C1305 C1300 1.371 . S
C1305 C1304 1.382 . S
C1306 N1269 1.423 . S
C1306 C1307 1.362 . S
C1306 C1311 1.388 . S
C1307 H1277 0.929 . S
C1307 C1306 1.362 . S
C1307 C1308 1.376 . S
C1308 H1279 0.931 . S
C1308 C1307 1.376 . S
C1308 C1309 1.396 . S
C1309 C1308 1.396 . S
C1309 C1310 1.348 . S
C1309 C1327 1.472 . S
C1310 H1280 0.929 . S
C1310 C1309 1.348 . S
C1310 C1311 1.443 . S
C1311 H1278 0.932 . S
C1311 C1306 1.388 . S
C1311 C1310 1.443 . S
C1312 N1292 1.433 . S
C1312 C1313 1.363 . S
C1312 C1317 1.370 . S
C1313 H1281 0.929 . S
C1313 C1312 1.363 . S
C1313 C1314 1.385 . S
C1314 H1282 0.930 . S
C1314 C1313 1.385 . S
C1314 C1315 1.357 . S
C1315 C1314 1.357 . S
C1315 C1316 1.406 . S
C1316 H1283 0.929 . S
C1316 C1315 1.406 . S
C1316 C1317 1.391 . S
C1317 H1284 0.931 . S
C1317 C1312 1.370 . S
C1317 C1316 1.391 . S
C1318 N1292 1.435 . S
C1318 C1319 1.358 . S
C1318 C1323 1.371 . S
C1319 H1285 0.930 . S
C1319 C1318 1.358 . S
C1319 C1320 1.405 . S
C1320 H1286 0.932 . S
C1320 C1319 1.405 . S
C1320 C1321 1.383 . S
C1321 C1320 1.383 . S
C1321 C1322 1.393 . S
C1322 H1287 0.931 . S
C1322 C1321 1.393 . S
C1322 C1323 1.382 . S
C1323 H1288 0.929 . S
C1323 C1318 1.371 . S
C1323 C1322 1.382 . S
C1324 N1292 1.423 . S
C1324 C1325 1.362 . S
C1324 C1329 1.388 . S
C1325 H1289 0.929 . S
C1325 C1324 1.362 . S
C1325 C1326 1.376 . S
C1326 H1290 0.931 . S
C1326 C1325 1.376 . S
C1326 C1327 1.396 . S
C1327 C1309 1.472 . S
C1327 C1326 1.396 . S
C1327 C1328 1.348 . S
C1328 H1291 0.929 . S
C1328 C1327 1.348 . S
C1328 C1329 1.443 . S
C1329 H1293 0.932 . S
C1329 C1324 1.388 . S
C1329 C1328 1.443 . S
H1330 C1357 0.929 . S
N1331 C1356 1.433 . S
N1331 C1362 1.435 . S
N1331 C1368 1.423 . S
H1332 C1358 0.930 . S
H1333 C1361 0.931 . S
H1334 C1360 0.929 . S
H1335 C1363 0.930 . S
H1336 C1364 0.932 . S
H1337 C1367 0.929 . S
H1338 C1366 0.931 . S
H1339 C1369 0.929 . S
H1340 C1373 0.932 1_545 S
H1341 C1370 0.931 . S
H1342 C1372 0.982 . S
H1343 C1375 0.929 . S
H1344 C1376 0.930 . S
H1345 C1378 0.929 . S
H1346 C1379 0.931 . S
H1347 C1381 0.930 . S
H1348 C1382 0.932 . S
H1349 C1384 0.931 . S
H1350 C1385 0.929 . S
H1351 C1387 0.929 . S
H1352 C1388 0.931 . S
H1353 C1390 0.942 . S
N1354 C1374 1.433 . S
N1354 C1380 1.435 . S
N1354 C1386 1.423 . S
H1355 C1391 0.932 1_545 S
C1356 N1331 1.433 . S
C1356 C1357 1.363 . S
C1356 C1361 1.370 1_565 S
C1357 H1330 0.929 . S
C1357 C1356 1.363 . S
C1357 C1358 1.385 . S
C1358 H1332 0.930 . S
C1358 C1357 1.385 . S
C1358 C1359 1.357 1_565 S
C1359 C1358 1.357 1_545 S
C1359 C1360 1.406 . S
C1360 H1334 0.929 . S
C1360 C1359 1.406 . S
C1360 C1361 1.391 . S
C1361 H1333 0.931 . S
C1361 C1356 1.370 1_545 S
C1361 C1360 1.391 . S
C1362 N1331 1.435 . S
C1362 C1363 1.358 1_565 S
C1362 C1367 1.371 . S
C1363 H1335 0.930 . S
C1363 C1362 1.358 1_545 S
C1363 C1364 1.405 . S
C1364 H1336 0.932 . S
C1364 C1363 1.405 . S
C1364 C1365 1.383 1_545 S
C1365 C1364 1.383 1_565 S
C1365 C1366 1.393 . S
C1366 H1338 0.931 . S
C1366 C1365 1.393 . S
C1366 C1367 1.382 . S
C1367 H1337 0.929 . S
C1367 C1362 1.371 . S
C1367 C1366 1.382 . S
C1368 N1331 1.423 . S
C1368 C1369 1.362 . S
C1368 C1373 1.388 . S
C1369 H1339 0.929 . S
C1369 C1368 1.362 . S
C1369 C1370 1.376 . S
C1370 H1341 0.931 . S
C1370 C1369 1.376 . S
C1370 C1371 1.396 . S
C1371 C1370 1.396 . S
C1371 C1372 1.348 . S
C1371 C1389 1.472 . S
C1372 H1342 0.982 . S
C1372 C1371 1.348 . S
C1372 C1373 1.443 . S
C1373 H1340 0.932 1_565 S
C1373 C1368 1.388 . S
C1373 C1372 1.443 . S
C1374 N1354 1.433 . S
C1374 C1375 1.363 . S
C1374 C1379 1.370 1_565 S
C1375 H1343 0.929 . S
C1375 C1374 1.363 . S
C1375 C1376 1.385 . S
C1376 H1344 0.930 . S
C1376 C1375 1.385 . S
C1376 C1377 1.357 1_565 S
C1377 C1376 1.357 1_545 S
C1377 C1378 1.406 . S
C1378 H1345 0.929 . S
C1378 C1377 1.406 . S
C1378 C1379 1.391 . S
C1379 H1346 0.931 . S
C1379 C1374 1.370 1_545 S
C1379 C1378 1.391 . S
C1380 N1354 1.435 . S
C1380 C1381 1.358 1_565 S
C1380 C1385 1.371 . S
C1381 H1347 0.930 . S
C1381 C1380 1.358 1_545 S
C1381 C1382 1.405 . S
C1382 H1348 0.932 . S
C1382 C1381 1.405 . S
C1382 C1383 1.383 1_545 S
C1383 C1382 1.383 1_565 S
C1383 C1384 1.393 . S
C1384 H1349 0.931 . S
C1384 C1383 1.393 . S
C1384 C1385 1.382 . S
C1385 H1350 0.929 . S
C1385 C1380 1.371 . S
C1385 C1384 1.382 . S
C1386 N1354 1.423 . S
C1386 C1387 1.362 . S
C1386 C1391 1.388 . S
C1387 H1351 0.929 . S
C1387 C1386 1.362 . S
C1387 C1388 1.376 . S
C1388 H1352 0.931 . S
C1388 C1387 1.376 . S
C1388 C1389 1.396 . S
C1389 C1371 1.472 . S
C1389 C1388 1.396 . S
C1389 C1390 1.348 . S
C1390 H1353 0.942 . S
C1390 C1389 1.348 . S
C1390 C1391 1.443 . S
C1391 H1355 0.932 1_565 S
C1391 C1386 1.388 . S
C1391 C1390 1.443 . S
H1392 C1419 0.929 . S
N1393 C1418 1.433 . S
N1393 C1424 1.435 . S
N1393 C1430 1.423 . S
H1394 C1420 0.930 . S
H1395 C1423 0.931 . S
H1396 C1422 0.929 . S
H1397 C1425 0.930 . S
H1398 C1426 0.932 . S
H1399 C1429 0.929 . S
H1400 C1428 0.931 . S
H1401 C1431 0.929 . S
H1402 C1435 0.997 . S
H1403 C1432 0.931 . S
H1404 C1434 0.916 1_545 S
H1405 C1437 0.929 . S
H1406 C1438 0.930 . S
H1407 C1440 0.929 . S
H1408 C1441 0.931 . S
H1409 C1443 0.930 . S
H1410 C1444 0.932 . S
H1411 C1446 0.931 . S
H1412 C1447 0.929 . S
H1413 C1449 0.929 . S
H1414 C1450 0.931 . S
H1415 C1452 0.887 1_545 S
N1416 C1436 1.433 . S
N1416 C1442 1.435 . S
N1416 C1448 1.423 . S
H1417 C1453 0.968 . S
C1418 N1393 1.433 . S
C1418 C1419 1.363 . S
C1418 C1423 1.360 1_565 S
C1419 H1392 0.929 . S
C1419 C1418 1.363 . S
C1419 C1420 1.385 . S
C1420 H1394 0.930 . S
C1420 C1419 1.385 . S
C1420 C1421 1.357 . S
C1421 C1420 1.357 . S
C1421 C1422 1.406 1_565 S
C1422 H1396 0.929 . S
C1422 C1421 1.406 1_545 S
C1422 C1423 1.409 . S
C1423 H1395 0.931 . S
C1423 C1418 1.360 1_545 S
C1423 C1422 1.409 . S
C1424 N1393 1.435 . S
C1424 C1425 1.358 1_565 S
C1424 C1429 1.371 . S
C1425 H1397 0.930 . S
C1425 C1424 1.358 1_545 S
C1425 C1426 1.405 . S
C1426 H1398 0.932 . S
C1426 C1425 1.405 . S
C1426 C1427 1.383 . S
C1427 C1426 1.383 . S
C1427 C1428 1.393 1_545 S
C1428 H1400 0.931 . S
C1428 C1427 1.393 1_565 S
C1428 C1429 1.382 . S
C1429 H1399 0.929 . S
C1429 C1424 1.371 . S
C1429 C1428 1.382 . S
C1430 N1393 1.423 . S
C1430 C1431 1.362 . S
C1430 C1435 1.369 1_565 S
C1431 H1401 0.929 . S
C1431 C1430 1.362 . S
C1431 C1432 1.376 . S
C1432 H1403 0.931 . S
C1432 C1431 1.376 . S
C1432 C1433 1.396 . S
C1433 C1432 1.396 . S
C1433 C1434 1.402 . S
C1433 C1451 1.472 . S
C1434 H1404 0.916 1_565 S
C1434 C1433 1.402 . S
C1434 C1435 1.364 1_565 S
C1435 H1402 0.997 . S
C1435 C1430 1.369 1_545 S
C1435 C1434 1.364 1_545 S
C1436 N1416 1.433 . S
C1436 C1437 1.363 . S
C1436 C1441 1.370 1_565 S
C1437 H1405 0.929 . S
C1437 C1436 1.363 . S
C1437 C1438 1.385 . S
C1438 H1406 0.930 . S
C1438 C1437 1.385 . S
C1438 C1439 1.357 . S
C1439 C1438 1.357 . S
C1439 C1440 1.406 1_565 S
C1440 H1407 0.929 . S
C1440 C1439 1.406 1_545 S
C1440 C1441 1.391 . S
C1441 H1408 0.931 . S
C1441 C1436 1.370 1_545 S
C1441 C1440 1.391 . S
C1442 N1416 1.435 . S
C1442 C1443 1.358 1_565 S
C1442 C1447 1.371 . S
C1443 H1409 0.930 . S
C1443 C1442 1.358 1_545 S
C1443 C1444 1.405 . S
C1444 H1410 0.932 . S
C1444 C1443 1.405 . S
C1444 C1445 1.383 . S
C1445 C1444 1.383 . S
C1445 C1446 1.393 1_545 S
C1446 H1411 0.931 . S
C1446 C1445 1.393 1_565 S
C1446 C1447 1.382 . S
C1447 H1412 0.929 . S
C1447 C1442 1.371 . S
C1447 C1446 1.382 . S
C1448 N1416 1.423 . S
C1448 C1449 1.362 . S
C1448 C1453 1.321 1_565 S
C1449 H1413 0.929 . S
C1449 C1448 1.362 . S
C1449 C1450 1.376 . S
C1450 H1414 0.931 . S
C1450 C1449 1.376 . S
C1450 C1451 1.396 . S
C1451 C1433 1.472 . S
C1451 C1450 1.396 . S
C1451 C1452 1.366 . S
C1452 H1415 0.887 1_565 S
C1452 C1451 1.366 . S
C1452 C1453 1.510 1_565 S
C1453 H1417 0.968 . S
C1453 C1448 1.321 1_545 S
C1453 C1452 1.510 1_545 S
H1454 C1481 0.929 . S
N1455 C1480 1.433 . S
N1455 C1486 1.435 . S
N1455 C1492 1.423 . S
H1456 C1482 0.930 . S
H1457 C1485 0.931 . S
H1458 C1484 0.929 . S
H1459 C1487 0.930 . S
H1460 C1488 0.932 . S
H1461 C1491 0.929 . S
H1462 C1490 0.931 . S
H1463 C1493 0.929 . S
H1464 C1497 0.932 1_455 S
H1465 C1494 0.931 . S
H1466 C1496 0.982 . S
H1467 C1499 0.929 . S
H1468 C1500 0.930 . S
H1469 C1502 0.929 . S
H1470 C1503 0.931 . S
H1471 C1505 0.930 . S
H1472 C1506 0.932 . S
H1473 C1508 0.931 . S
H1474 C1509 0.929 . S
H1475 C1511 0.929 . S
H1476 C1512 0.931 . S
H1477 C1514 0.929 . S
N1478 C1498 1.433 . S
N1478 C1504 1.435 . S
N1478 C1510 1.423 . S
H1479 C1515 0.932 1_455 S
C1480 N1455 1.433 . S
C1480 C1481 1.363 . S
C1480 C1485 1.370 1_655 S
C1481 H1454 0.929 . S
C1481 C1480 1.363 . S
C1481 C1482 1.385 . S
C1482 H1456 0.930 . S
C1482 C1481 1.385 . S
C1482 C1483 1.357 1_655 S
C1483 C1482 1.357 1_455 S
C1483 C1484 1.406 . S
C1484 H1458 0.929 . S
C1484 C1483 1.406 . S
C1484 C1485 1.391 . S
C1485 H1457 0.931 . S
C1485 C1480 1.370 1_455 S
C1485 C1484 1.391 . S
C1486 N1455 1.435 . S
C1486 C1487 1.358 1_655 S
C1486 C1491 1.371 . S
C1487 H1459 0.930 . S
C1487 C1486 1.358 1_455 S
C1487 C1488 1.405 . S
C1488 H1460 0.932 . S
C1488 C1487 1.405 . S
C1488 C1489 1.383 1_455 S
C1489 C1488 1.383 1_655 S
C1489 C1490 1.393 . S
C1490 H1462 0.931 . S
C1490 C1489 1.393 . S
C1490 C1491 1.382 . S
C1491 H1461 0.929 . S
C1491 C1486 1.371 . S
C1491 C1490 1.382 . S
C1492 N1455 1.423 . S
C1492 C1493 1.362 . S
C1492 C1497 1.388 . S
C1493 H1463 0.929 . S
C1493 C1492 1.362 . S
C1493 C1494 1.376 . S
C1494 H1465 0.931 . S
C1494 C1493 1.376 . S
C1494 C1495 1.396 . S
C1495 C1494 1.396 . S
C1495 C1496 1.348 . S
C1495 C1513 1.472 . S
C1496 H1466 0.982 . S
C1496 C1495 1.348 . S
C1496 C1497 1.443 . S
C1497 H1464 0.932 1_655 S
C1497 C1492 1.388 . S
C1497 C1496 1.443 . S
C1498 N1478 1.433 . S
C1498 C1499 1.363 . S
C1498 C1503 1.370 1_655 S
C1499 H1467 0.929 . S
C1499 C1498 1.363 . S
C1499 C1500 1.385 . S
C1500 H1468 0.930 . S
C1500 C1499 1.385 . S
C1500 C1501 1.357 1_655 S
C1501 C1500 1.357 1_455 S
C1501 C1502 1.406 . S
C1502 H1469 0.929 . S
C1502 C1501 1.406 . S
C1502 C1503 1.391 . S
C1503 H1470 0.931 . S
C1503 C1498 1.370 1_455 S
C1503 C1502 1.391 . S
C1504 N1478 1.435 . S
C1504 C1505 1.358 1_655 S
C1504 C1509 1.371 . S
C1505 H1471 0.930 . S
C1505 C1504 1.358 1_455 S
C1505 C1506 1.405 . S
C1506 H1472 0.932 . S
C1506 C1505 1.405 . S
C1506 C1507 1.383 1_455 S
C1507 C1506 1.383 1_655 S
C1507 C1508 1.393 . S
C1508 H1473 0.931 . S
C1508 C1507 1.393 . S
C1508 C1509 1.382 . S
C1509 H1474 0.929 . S
C1509 C1504 1.371 . S
C1509 C1508 1.382 . S
C1510 N1478 1.423 . S
C1510 C1511 1.362 . S
C1510 C1515 1.388 . S
C1511 H1475 0.929 . S
C1511 C1510 1.362 . S
C1511 C1512 1.376 . S
C1512 H1476 0.931 . S
C1512 C1511 1.376 . S
C1512 C1513 1.396 . S
C1513 C1495 1.472 . S
C1513 C1512 1.396 . S
C1513 C1514 1.348 . S
C1514 H1477 0.929 . S
C1514 C1513 1.348 . S
C1514 C1515 1.443 . S
C1515 H1479 0.932 1_655 S
C1515 C1510 1.388 . S
C1515 C1514 1.443 . S
H1516 C1543 0.929 . S
N1517 C1542 1.433 . S
N1517 C1548 1.435 . S
N1517 C1554 1.423 . S
H1518 C1544 0.930 . S
H1519 C1547 0.931 . S
H1520 C1546 0.929 . S
H1521 C1549 0.930 . S
H1522 C1550 0.932 . S
H1523 C1553 0.929 . S
H1524 C1552 0.931 . S
H1525 C1555 0.929 . S
H1526 C1559 0.932 . S
H1527 C1556 0.931 . S
H1528 C1558 0.929 . S
H1529 C1561 0.929 . S
H1530 C1562 0.930 . S
H1531 C1564 0.929 . S
H1532 C1565 0.931 . S
H1533 C1567 0.930 . S
H1534 C1568 0.932 . S
H1535 C1570 0.931 . S
H1536 C1571 0.929 . S
H1537 C1573 0.929 . S
H1538 C1574 0.931 . S
H1539 C1576 0.929 . S
N1540 C1560 1.433 . S
N1540 C1566 1.435 . S
N1540 C1572 1.423 . S
H1541 C1577 0.932 . S
C1542 N1517 1.433 . S
C1542 C1543 1.363 . S
C1542 C1547 1.370 . S
C1543 H1516 0.929 . S
C1543 C1542 1.363 . S
C1543 C1544 1.385 . S
C1544 H1518 0.930 . S
C1544 C1543 1.385 . S
C1544 C1545 1.357 . S
C1545 C1544 1.357 . S
C1545 C1546 1.406 . S
C1546 H1520 0.929 . S
C1546 C1545 1.406 . S
C1546 C1547 1.391 . S
C1547 H1519 0.931 . S
C1547 C1542 1.370 . S
C1547 C1546 1.391 . S
C1548 N1517 1.435 . S
C1548 C1549 1.358 . S
C1548 C1553 1.371 . S
C1549 H1521 0.930 . S
C1549 C1548 1.358 . S
C1549 C1550 1.405 . S
C1550 H1522 0.932 . S
C1550 C1549 1.405 . S
C1550 C1551 1.383 . S
C1551 C1550 1.383 . S
C1551 C1552 1.393 . S
C1552 H1524 0.931 . S
C1552 C1551 1.393 . S
C1552 C1553 1.382 . S
C1553 H1523 0.929 . S
C1553 C1548 1.371 . S
C1553 C1552 1.382 . S
C1554 N1517 1.423 . S
C1554 C1555 1.362 . S
C1554 C1559 1.388 . S
C1555 H1525 0.929 . S
C1555 C1554 1.362 . S
C1555 C1556 1.376 . S
C1556 H1527 0.931 . S
C1556 C1555 1.376 . S
C1556 C1557 1.396 . S
C1557 C1556 1.396 . S
C1557 C1558 1.348 . S
C1557 C1575 1.472 . S
C1558 H1528 0.929 . S
C1558 C1557 1.348 . S
C1558 C1559 1.443 . S
C1559 H1526 0.932 . S
C1559 C1554 1.388 . S
C1559 C1558 1.443 . S
C1560 N1540 1.433 . S
C1560 C1561 1.363 . S
C1560 C1565 1.370 . S
C1561 H1529 0.929 . S
C1561 C1560 1.363 . S
C1561 C1562 1.385 . S
C1562 H1530 0.930 . S
C1562 C1561 1.385 . S
C1562 C1563 1.357 . S
C1563 C1562 1.357 . S
C1563 C1564 1.406 . S
C1564 H1531 0.929 . S
C1564 C1563 1.406 . S
C1564 C1565 1.391 . S
C1565 H1532 0.931 . S
C1565 C1560 1.370 . S
C1565 C1564 1.391 . S
C1566 N1540 1.435 . S
C1566 C1567 1.358 . S
C1566 C1571 1.371 . S
C1567 H1533 0.930 . S
C1567 C1566 1.358 . S
C1567 C1568 1.405 . S
C1568 H1534 0.932 . S
C1568 C1567 1.405 . S
C1568 C1569 1.383 . S
C1569 C1568 1.383 . S
C1569 C1570 1.393 . S
C1570 H1535 0.931 . S
C1570 C1569 1.393 . S
C1570 C1571 1.382 . S
C1571 H1536 0.929 . S
C1571 C1566 1.371 . S
C1571 C1570 1.382 . S
C1572 N1540 1.423 . S
C1572 C1573 1.362 . S
C1572 C1577 1.388 . S
C1573 H1537 0.929 . S
C1573 C1572 1.362 . S
C1573 C1574 1.376 . S
C1574 H1538 0.931 . S
C1574 C1573 1.376 . S
C1574 C1575 1.396 . S
C1575 C1557 1.472 . S
C1575 C1574 1.396 . S
C1575 C1576 1.348 . S
C1576 H1539 0.929 . S
C1576 C1575 1.348 . S
C1576 C1577 1.443 . S
C1577 H1541 0.932 . S
C1577 C1572 1.388 . S
C1577 C1576 1.443 . S
H1578 C1605 0.929 . S
N1579 C1604 1.433 . S
N1579 C1610 1.435 . S
N1579 C1616 1.423 . S
H1580 C1606 0.930 . S
H1581 C1609 0.931 . S
H1582 C1608 0.929 . S
H1583 C1611 0.930 . S
H1584 C1612 0.932 . S
H1585 C1615 0.929 . S
H1586 C1614 0.931 . S
H1587 C1617 0.929 . S
H1588 C1621 0.932 . S
H1589 C1618 0.931 . S
H1590 C1620 0.929 . S
H1591 C1623 0.929 . S
H1592 C1624 0.930 . S
H1593 C1626 0.929 . S
H1594 C1627 0.931 . S
H1595 C1629 0.930 . S
H1596 C1630 0.932 . S
H1597 C1632 0.931 . S
H1598 C1633 0.929 . S
H1599 C1635 0.929 . S
H1600 C1636 0.931 . S
H1601 C1638 0.929 . S
N1602 C1622 1.433 . S
N1602 C1628 1.435 . S
N1602 C1634 1.423 . S
H1603 C1639 0.932 . S
C1604 N1579 1.433 . S
C1604 C1605 1.363 . S
C1604 C1609 1.370 . S
C1605 H1578 0.929 . S
C1605 C1604 1.363 . S
C1605 C1606 1.385 . S
C1606 H1580 0.930 . S
C1606 C1605 1.385 . S
C1606 C1607 1.357 . S
C1607 C1606 1.357 . S
C1607 C1608 1.406 . S
C1608 H1582 0.929 . S
C1608 C1607 1.406 . S
C1608 C1609 1.391 . S
C1609 H1581 0.931 . S
C1609 C1604 1.370 . S
C1609 C1608 1.391 . S
C1610 N1579 1.435 . S
C1610 C1611 1.358 . S
C1610 C1615 1.371 . S
C1611 H1583 0.930 . S
C1611 C1610 1.358 . S
C1611 C1612 1.405 . S
C1612 H1584 0.932 . S
C1612 C1611 1.405 . S
C1612 C1613 1.383 . S
C1613 C1612 1.383 . S
C1613 C1614 1.393 . S
C1614 H1586 0.931 . S
C1614 C1613 1.393 . S
C1614 C1615 1.382 . S
C1615 H1585 0.929 . S
C1615 C1610 1.371 . S
C1615 C1614 1.382 . S
C1616 N1579 1.423 . S
C1616 C1617 1.362 . S
C1616 C1621 1.388 . S
C1617 H1587 0.929 . S
C1617 C1616 1.362 . S
C1617 C1618 1.376 . S
C1618 H1589 0.931 . S
C1618 C1617 1.376 . S
C1618 C1619 1.396 . S
C1619 C1618 1.396 . S
C1619 C1620 1.348 . S
C1619 C1637 1.472 . S
C1620 H1590 0.929 . S
C1620 C1619 1.348 . S
C1620 C1621 1.443 . S
C1621 H1588 0.932 . S
C1621 C1616 1.388 . S
C1621 C1620 1.443 . S
C1622 N1602 1.433 . S
C1622 C1623 1.363 . S
C1622 C1627 1.370 . S
C1623 H1591 0.929 . S
C1623 C1622 1.363 . S
C1623 C1624 1.385 . S
C1624 H1592 0.930 . S
C1624 C1623 1.385 . S
C1624 C1625 1.357 . S
C1625 C1624 1.357 . S
C1625 C1626 1.406 . S
C1626 H1593 0.929 . S
C1626 C1625 1.406 . S
C1626 C1627 1.391 . S
C1627 H1594 0.931 . S
C1627 C1622 1.370 . S
C1627 C1626 1.391 . S
C1628 N1602 1.435 . S
C1628 C1629 1.358 . S
C1628 C1633 1.371 . S
C1629 H1595 0.930 . S
C1629 C1628 1.358 . S
C1629 C1630 1.405 . S
C1630 H1596 0.932 . S
C1630 C1629 1.405 . S
C1630 C1631 1.383 . S
C1631 C1630 1.383 . S
C1631 C1632 1.393 . S
C1632 H1597 0.931 . S
C1632 C1631 1.393 . S
C1632 C1633 1.382 . S
C1633 H1598 0.929 . S
C1633 C1628 1.371 . S
C1633 C1632 1.382 . S
C1634 N1602 1.423 . S
C1634 C1635 1.362 . S
C1634 C1639 1.388 . S
C1635 H1599 0.929 . S
C1635 C1634 1.362 . S
C1635 C1636 1.376 . S
C1636 H1600 0.931 . S
C1636 C1635 1.376 . S
C1636 C1637 1.396 . S
C1637 C1619 1.472 . S
C1637 C1636 1.396 . S
C1637 C1638 1.348 . S
C1638 H1601 0.929 . S
C1638 C1637 1.348 . S
C1638 C1639 1.443 . S
C1639 H1603 0.932 . S
C1639 C1634 1.388 . S
C1639 C1638 1.443 . S
H1640 C1667 0.929 . S
N1641 C1666 1.433 . S
N1641 C1672 1.435 . S
N1641 C1678 1.423 . S
H1642 C1668 0.930 . S
H1643 C1671 0.931 . S
H1644 C1670 0.929 . S
H1645 C1673 0.930 . S
H1646 C1674 0.932 . S
H1647 C1677 0.929 . S
H1648 C1676 0.931 . S
H1649 C1679 0.929 . S
H1650 C1683 0.932 . S
H1651 C1680 0.931 . S
H1652 C1682 0.929 . S
H1653 C1685 0.929 . S
H1654 C1686 0.930 . S
H1655 C1688 0.929 . S
H1656 C1689 0.931 . S
H1657 C1691 0.930 . S
H1658 C1692 0.932 . S
H1659 C1694 0.931 . S
H1660 C1695 0.929 . S
H1661 C1697 0.929 . S
H1662 C1698 0.931 . S
H1663 C1700 0.929 . S
N1664 C1684 1.433 . S
N1664 C1690 1.435 . S
N1664 C1696 1.423 . S
H1665 C1701 0.932 . S
C1666 N1641 1.433 . S
C1666 C1667 1.363 . S
C1666 C1671 1.370 . S
C1667 H1640 0.929 . S
C1667 C1666 1.363 . S
C1667 C1668 1.385 . S
C1668 H1642 0.930 . S
C1668 C1667 1.385 . S
C1668 C1669 1.357 . S
C1669 C1668 1.357 . S
C1669 C1670 1.406 . S
C1670 H1644 0.929 . S
C1670 C1669 1.406 . S
C1670 C1671 1.391 . S
C1671 H1643 0.931 . S
C1671 C1666 1.370 . S
C1671 C1670 1.391 . S
C1672 N1641 1.435 . S
C1672 C1673 1.358 . S
C1672 C1677 1.371 . S
C1673 H1645 0.930 . S
C1673 C1672 1.358 . S
C1673 C1674 1.405 . S
C1674 H1646 0.932 . S
C1674 C1673 1.405 . S
C1674 C1675 1.383 . S
C1675 C1674 1.383 . S
C1675 C1676 1.393 . S
C1676 H1648 0.931 . S
C1676 C1675 1.393 . S
C1676 C1677 1.382 . S
C1677 H1647 0.929 . S
C1677 C1672 1.371 . S
C1677 C1676 1.382 . S
C1678 N1641 1.423 . S
C1678 C1679 1.362 . S
C1678 C1683 1.388 . S
C1679 H1649 0.929 . S
C1679 C1678 1.362 . S
C1679 C1680 1.376 . S
C1680 H1651 0.931 . S
C1680 C1679 1.376 . S
C1680 C1681 1.396 . S
C1681 C1680 1.396 . S
C1681 C1682 1.348 . S
C1681 C1699 1.472 . S
C1682 H1652 0.929 . S
C1682 C1681 1.348 . S
C1682 C1683 1.443 . S
C1683 H1650 0.932 . S
C1683 C1678 1.388 . S
C1683 C1682 1.443 . S
C1684 N1664 1.433 . S
C1684 C1685 1.363 . S
C1684 C1689 1.370 . S
C1685 H1653 0.929 . S
C1685 C1684 1.363 . S
C1685 C1686 1.385 . S
C1686 H1654 0.930 . S
C1686 C1685 1.385 . S
C1686 C1687 1.357 . S
C1687 C1686 1.357 . S
C1687 C1688 1.406 . S
C1688 H1655 0.929 . S
C1688 C1687 1.406 . S
C1688 C1689 1.391 . S
C1689 H1656 0.931 . S
C1689 C1684 1.370 . S
C1689 C1688 1.391 . S
C1690 N1664 1.435 . S
C1690 C1691 1.358 . S
C1690 C1695 1.371 . S
C1691 H1657 0.930 . S
C1691 C1690 1.358 . S
C1691 C1692 1.405 . S
C1692 H1658 0.932 . S
C1692 C1691 1.405 . S
C1692 C1693 1.383 . S
C1693 C1692 1.383 . S
C1693 C1694 1.393 . S
C1694 H1659 0.931 . S
C1694 C1693 1.393 . S
C1694 C1695 1.382 . S
C1695 H1660 0.929 . S
C1695 C1690 1.371 . S
C1695 C1694 1.382 . S
C1696 N1664 1.423 . S
C1696 C1697 1.362 . S
C1696 C1701 1.388 . S
C1697 H1661 0.929 . S
C1697 C1696 1.362 . S
C1697 C1698 1.376 . S
C1698 H1662 0.931 . S
C1698 C1697 1.376 . S
C1698 C1699 1.396 . S
C1699 C1681 1.472 . S
C1699 C1698 1.396 . S
C1699 C1700 1.348 . S
C1700 H1663 0.929 . S
C1700 C1699 1.348 . S
C1700 C1701 1.443 . S
C1701 H1665 0.932 . S
C1701 C1696 1.388 . S
C1701 C1700 1.443 . S
H1702 C1729 0.929 . S
N1703 C1728 1.433 . S
N1703 C1734 1.435 . S
N1703 C1740 1.423 . S
H1704 C1730 0.930 . S
H1705 C1733 0.931 . S
H1706 C1732 0.929 . S
H1707 C1735 0.930 . S
H1708 C1736 0.932 . S
H1709 C1739 0.929 . S
H1710 C1738 0.931 . S
H1711 C1741 0.929 . S
H1712 C1745 0.932 . S
H1713 C1742 0.931 . S
H1714 C1744 0.929 . S
H1715 C1747 0.929 . S
H1716 C1748 0.930 . S
H1717 C1750 0.929 . S
H1718 C1751 0.931 . S
H1719 C1753 0.930 . S
H1720 C1754 0.932 . S
H1721 C1756 0.931 . S
H1722 C1757 0.929 . S
H1723 C1759 0.929 . S
H1724 C1760 0.931 . S
H1725 C1762 0.929 . S
N1726 C1746 1.433 . S
N1726 C1752 1.435 . S
N1726 C1758 1.423 . S
H1727 C1763 0.932 . S
C1728 N1703 1.433 . S
C1728 C1729 1.363 . S
C1728 C1733 1.370 . S
C1729 H1702 0.929 . S
C1729 C1728 1.363 . S
C1729 C1730 1.385 . S
C1730 H1704 0.930 . S
C1730 C1729 1.385 . S
C1730 C1731 1.357 . S
C1731 C1730 1.357 . S
C1731 C1732 1.406 . S
C1732 H1706 0.929 . S
C1732 C1731 1.406 . S
C1732 C1733 1.391 . S
C1733 H1705 0.931 . S
C1733 C1728 1.370 . S
C1733 C1732 1.391 . S
C1734 N1703 1.435 . S
C1734 C1735 1.358 . S
C1734 C1739 1.371 . S
C1735 H1707 0.930 . S
C1735 C1734 1.358 . S
C1735 C1736 1.405 . S
C1736 H1708 0.932 . S
C1736 C1735 1.405 . S
C1736 C1737 1.383 . S
C1737 C1736 1.383 . S
C1737 C1738 1.393 . S
C1738 H1710 0.931 . S
C1738 C1737 1.393 . S
C1738 C1739 1.382 . S
C1739 H1709 0.929 . S
C1739 C1734 1.371 . S
C1739 C1738 1.382 . S
C1740 N1703 1.423 . S
C1740 C1741 1.362 . S
C1740 C1745 1.388 . S
C1741 H1711 0.929 . S
C1741 C1740 1.362 . S
C1741 C1742 1.376 . S
C1742 H1713 0.931 . S
C1742 C1741 1.376 . S
C1742 C1743 1.396 . S
C1743 C1742 1.396 . S
C1743 C1744 1.348 . S
C1743 C1761 1.472 . S
C1744 H1714 0.929 . S
C1744 C1743 1.348 . S
C1744 C1745 1.443 . S
C1745 H1712 0.932 . S
C1745 C1740 1.388 . S
C1745 C1744 1.443 . S
C1746 N1726 1.433 . S
C1746 C1747 1.363 . S
C1746 C1751 1.370 . S
C1747 H1715 0.929 . S
C1747 C1746 1.363 . S
C1747 C1748 1.385 . S
C1748 H1716 0.930 . S
C1748 C1747 1.385 . S
C1748 C1749 1.357 . S
C1749 C1748 1.357 . S
C1749 C1750 1.406 . S
C1750 H1717 0.929 . S
C1750 C1749 1.406 . S
C1750 C1751 1.391 . S
C1751 H1718 0.931 . S
C1751 C1746 1.370 . S
C1751 C1750 1.391 . S
C1752 N1726 1.435 . S
C1752 C1753 1.358 . S
C1752 C1757 1.371 . S
C1753 H1719 0.930 . S
C1753 C1752 1.358 . S
C1753 C1754 1.405 . S
C1754 H1720 0.932 . S
C1754 C1753 1.405 . S
C1754 C1755 1.383 . S
C1755 C1754 1.383 . S
C1755 C1756 1.393 . S
C1756 H1721 0.931 . S
C1756 C1755 1.393 . S
C1756 C1757 1.382 . S
C1757 H1722 0.929 . S
C1757 C1752 1.371 . S
C1757 C1756 1.382 . S
C1758 N1726 1.423 . S
C1758 C1759 1.362 . S
C1758 C1763 1.388 . S
C1759 H1723 0.929 . S
C1759 C1758 1.362 . S
C1759 C1760 1.376 . S
C1760 H1724 0.931 . S
C1760 C1759 1.376 . S
C1760 C1761 1.396 . S
C1761 C1743 1.472 . S
C1761 C1760 1.396 . S
C1761 C1762 1.348 . S
C1762 H1725 0.929 . S
C1762 C1761 1.348 . S
C1762 C1763 1.443 . S
C1763 H1727 0.932 . S
C1763 C1758 1.388 . S
C1763 C1762 1.443 . S
H1764 C1770 0.930 . S
H1765 C1774 0.930 . S
H1766 C1779 0.888 1_455 S
H1767 C1777 0.929 . S
H1768 C1772 0.929 . S
H1769 C1778 0.929 . S
C1770 H1764 0.930 . S
C1770 C1771 1.367 . S
C1770 C1778 1.378 . S
C1771 C1770 1.367 . S
C1771 C1779 1.450 . S
C1772 H1768 0.929 . S
C1772 C1774 1.378 . S
C1772 C1776 1.350 . S
C1773 C1776 1.463 . S
C1773 C1778 1.350 . S
C1773 N1781 1.427 . S
C1774 H1765 0.930 . S
C1774 C1772 1.378 . S
C1774 C1775 1.367 . S
C1775 C1774 1.367 . S
C1775 C1777 1.433 . S
C1776 C1772 1.350 . S
C1776 C1773 1.463 . S
C1776 N1780 1.427 . S
C1777 H1767 0.929 . S
C1777 C1775 1.433 . S
C1777 N1780 1.384 . S
C1778 H1769 0.929 . S
C1778 C1770 1.378 . S
C1778 C1773 1.350 . S
C1779 H1766 0.888 1_655 S
C1779 C1771 1.450 . S
C1779 N1781 1.417 . S
N1780 C1776 1.427 . S
N1780 C1777 1.384 . S
N1781 C1773 1.427 . S
N1781 C1779 1.417 . S
H1782 C1788 0.930 . S
H1783 C1792 0.930 . S
H1784 C1797 0.929 . S
H1785 C1795 0.929 . S
H1786 C1790 0.929 . S
H1787 C1796 0.929 . S
C1788 H1782 0.930 . S
C1788 C1789 1.367 . S
C1788 C1796 1.378 . S
C1789 C1788 1.367 . S
C1789 C1797 1.433 . S
C1790 H1786 0.929 . S
C1790 C1792 1.378 . S
C1790 C1794 1.350 . S
C1791 C1794 1.463 . S
C1791 C1796 1.350 . S
C1791 N1799 1.427 . S
C1792 H1783 0.930 . S
C1792 C1790 1.378 . S
C1792 C1793 1.367 . S
C1793 C1792 1.367 . S
C1793 C1795 1.433 . S
C1794 C1790 1.350 . S
C1794 C1791 1.463 . S
C1794 N1798 1.427 . S
C1795 H1785 0.929 . S
C1795 C1793 1.433 . S
C1795 N1798 1.384 . S
C1796 H1787 0.929 . S
C1796 C1788 1.378 . S
C1796 C1791 1.350 . S
C1797 H1784 0.929 . S
C1797 C1789 1.433 . S
C1797 N1799 1.384 . S
N1798 C1794 1.427 . S
N1798 C1795 1.384 . S
N1799 C1791 1.427 . S
N1799 C1797 1.384 . S
H1800 C1806 0.930 . S
H1801 C1810 0.930 . S
H1802 C1815 0.929 . S
H1803 C1813 0.929 . S
H1804 C1808 0.929 . S
H1805 C1814 0.929 . S
C1806 H1800 0.930 . S
C1806 C1807 1.367 1_565 S
C1806 C1814 1.378 . S
C1807 C1806 1.367 1_545 S
C1807 C1815 1.433 . S
C1808 H1804 0.929 . S
C1808 C1810 1.378 . S
C1808 C1812 1.350 . S
C1809 C1812 1.463 . S
C1809 C1814 1.350 1_545 S
C1809 N1817 1.427 . S
C1810 H1801 0.930 . S
C1810 C1808 1.378 . S
C1810 C1811 1.367 . S
C1811 C1810 1.367 . S
C1811 C1813 1.433 1_545 S
C1812 C1808 1.350 . S
C1812 C1809 1.463 . S
C1812 N1816 1.427 1_545 S
C1813 H1803 0.929 . S
C1813 C1811 1.433 1_565 S
C1813 N1816 1.384 . S
C1814 H1805 0.929 . S
C1814 C1806 1.378 . S
C1814 C1809 1.350 1_565 S
C1815 H1802 0.929 . S
C1815 C1807 1.433 . S
C1815 N1817 1.384 . S
N1816 C1812 1.427 1_565 S
N1816 C1813 1.384 . S
N1817 C1809 1.427 . S
N1817 C1815 1.384 . S
H1818 C1824 0.930 . S
H1819 C1828 0.930 . S
H1820 C1833 0.929 . S
H1821 C1831 0.929 . S
H1822 C1826 0.929 . S
H1823 C1832 0.929 . S
C1824 H1818 0.930 . S
C1824 C1825 1.367 . S
C1824 C1832 1.378 . S
C1825 C1824 1.367 . S
C1825 C1833 1.433 1_565 S
C1826 H1822 0.929 . S
C1826 C1828 1.378 . S
C1826 C1830 1.350 1_545 S
C1827 C1830 1.463 . S
C1827 C1832 1.350 . S
C1827 N1835 1.427 1_565 S
C1828 H1819 0.930 . S
C1828 C1826 1.378 . S
C1828 C1829 1.367 1_545 S
C1829 C1828 1.367 1_565 S
C1829 C1831 1.433 . S
C1830 C1826 1.350 1_565 S
C1830 C1827 1.463 . S
C1830 N1834 1.427 . S
C1831 H1821 0.929 . S
C1831 C1829 1.433 . S
C1831 N1834 1.384 . S
C1832 H1823 0.929 . S
C1832 C1824 1.378 . S
C1832 C1827 1.350 . S
C1833 H1820 0.929 . S
C1833 C1825 1.433 1_545 S
C1833 N1835 1.384 . S
N1834 C1830 1.427 . S
N1834 C1831 1.384 . S
N1835 C1827 1.427 1_545 S
N1835 C1833 1.384 . S
H1836 C1842 0.930 . S
H1837 C1846 0.930 . S
H1838 C1851 0.929 . S
H1839 C1849 0.929 . S
H1840 C1844 0.929 . S
H1841 C1850 0.929 . S
C1842 H1836 0.930 . S
C1842 C1843 1.367 . S
C1842 C1850 1.378 . S
C1843 C1842 1.367 . S
C1843 C1851 1.433 1_455 S
C1844 H1840 0.929 . S
C1844 C1846 1.378 . S
C1844 C1848 1.350 1_655 S
C1845 C1848 1.463 . S
C1845 C1850 1.350 . S
C1845 N1853 1.427 1_455 S
C1846 H1837 0.930 . S
C1846 C1844 1.378 . S
C1846 C1847 1.367 1_655 S
C1847 C1846 1.367 1_455 S
C1847 C1849 1.433 . S
C1848 C1844 1.350 1_455 S
C1848 C1845 1.463 . S
C1848 N1852 1.427 . S
C1849 H1839 0.929 . S
C1849 C1847 1.433 . S
C1849 N1852 1.384 . S
C1850 H1841 0.929 . S
C1850 C1842 1.378 . S
C1850 C1845 1.350 . S
C1851 H1838 0.929 . S
C1851 C1843 1.433 1_655 S
C1851 N1853 1.384 . S
N1852 C1848 1.427 . S
N1852 C1849 1.384 . S
N1853 C1845 1.427 1_655 S
N1853 C1851 1.384 . S
H1854 C1860 0.930 . S
H1855 C1864 0.930 . S
H1856 C1869 0.929 . S
H1857 C1867 0.929 . S
H1858 C1862 0.929 . S
H1859 C1868 0.929 . S
C1860 H1854 0.930 . S
C1860 C1861 1.367 . S
C1860 C1868 1.378 . S
C1861 C1860 1.367 . S
C1861 C1869 1.433 . S
C1862 H1858 0.929 . S
C1862 C1864 1.378 . S
C1862 C1866 1.350 . S
C1863 C1866 1.463 . S
C1863 C1868 1.350 . S
C1863 N1871 1.427 . S
C1864 H1855 0.930 . S
C1864 C1862 1.378 . S
C1864 C1865 1.367 . S
C1865 C1864 1.367 . S
C1865 C1867 1.433 . S
C1866 C1862 1.350 . S
C1866 C1863 1.463 . S
C1866 N1870 1.427 . S
C1867 H1857 0.929 . S
C1867 C1865 1.433 . S
C1867 N1870 1.384 . S
C1868 H1859 0.929 . S
C1868 C1860 1.378 . S
C1868 C1863 1.350 . S
C1869 H1856 0.929 . S
C1869 C1861 1.433 . S
C1869 N1871 1.384 . S
N1870 C1866 1.427 . S
N1870 C1867 1.384 . S
N1871 C1863 1.427 . S
N1871 C1869 1.384 . S
H1872 C1878 0.930 . S
H1873 C1882 0.930 . S
H1874 C1887 0.929 . S
H1875 C1885 0.929 . S
H1876 C1880 0.929 . S
H1877 C1886 0.929 . S
C1878 H1872 0.930 . S
C1878 C1879 1.367 1_655 S
C1878 C1886 1.378 . S
C1879 C1878 1.367 1_455 S
C1879 C1887 1.433 . S
C1880 H1876 0.929 . S
C1880 C1882 1.378 . S
C1880 C1884 1.350 . S
C1881 C1884 1.463 . S
C1881 C1886 1.350 1_455 S
C1881 N1889 1.427 . S
C1882 H1873 0.930 . S
C1882 C1880 1.378 . S
C1882 C1883 1.367 . S
C1883 C1882 1.367 . S
C1883 C1885 1.433 1_455 S
C1884 C1880 1.350 . S
C1884 C1881 1.463 . S
C1884 N1888 1.427 1_455 S
C1885 H1875 0.929 . S
C1885 C1883 1.433 1_655 S
C1885 N1888 1.384 . S
C1886 H1877 0.929 . S
C1886 C1878 1.378 . S
C1886 C1881 1.350 1_655 S
C1887 H1874 0.929 . S
C1887 C1879 1.433 . S
C1887 N1889 1.384 . S
N1888 C1884 1.427 1_655 S
N1888 C1885 1.384 . S
N1889 C1881 1.427 . S
N1889 C1887 1.384 . S
H1890 C1896 0.930 . S
H1891 C1900 0.930 . S
H1892 C1905 0.929 . S
H1893 C1903 0.929 . S
H1894 C1898 0.929 . S
H1895 C1904 0.929 . S
C1896 H1890 0.930 . S
C1896 C1897 1.367 . S
C1896 C1904 1.378 . S
C1897 C1896 1.367 . S
C1897 C1905 1.433 . S
C1898 H1894 0.929 . S
C1898 C1900 1.378 . S
C1898 C1902 1.350 . S
C1899 C1902 1.463 . S
C1899 C1904 1.350 . S
C1899 N1907 1.427 . S
C1900 H1891 0.930 . S
C1900 C1898 1.378 . S
C1900 C1901 1.367 . S
C1901 C1900 1.367 . S
C1901 C1903 1.433 . S
C1902 C1898 1.350 . S
C1902 C1899 1.463 . S
C1902 N1906 1.427 . S
C1903 H1893 0.929 . S
C1903 C1901 1.433 . S
C1903 N1906 1.384 . S
C1904 H1895 0.929 . S
C1904 C1896 1.378 . S
C1904 C1899 1.350 . S
C1905 H1892 0.929 . S
C1905 C1897 1.433 . S
C1905 N1907 1.384 . S
N1906 C1902 1.427 . S
N1906 C1903 1.384 . S
N1907 C1899 1.427 . S
N1907 C1905 1.384 . S
H1908 C1914 0.930 . S
H1909 C1918 0.930 . S
H1910 C1923 0.929 . S
H1911 C1921 0.929 . S
H1912 C1916 0.929 . S
H1913 C1922 0.929 . S
C1914 H1908 0.930 . S
C1914 C1915 1.321 1_545 S
C1914 C1922 1.378 . S
C1915 C1914 1.321 1_565 S
C1915 C1923 1.467 . S
C1916 H1912 0.929 . S
C1916 C1918 1.378 . S
C1916 C1920 1.350 . S
C1917 C1920 1.463 . S
C1917 C1922 1.350 1_565 S
C1917 N1925 1.427 . S
C1918 H1909 0.930 . S
C1918 C1916 1.378 . S
C1918 C1919 1.367 . S
C1919 C1918 1.367 . S
C1919 C1921 1.433 1_565 S
C1920 C1916 1.350 . S
C1920 C1917 1.463 . S
C1920 N1924 1.427 1_565 S
C1921 H1911 0.929 . S
C1921 C1919 1.433 1_545 S
C1921 N1924 1.384 . S
C1922 H1913 0.929 . S
C1922 C1914 1.378 . S
C1922 C1917 1.350 1_545 S
C1923 H1910 0.929 . S
C1923 C1915 1.467 . S
C1923 N1925 1.384 . S
N1924 C1920 1.427 1_545 S
N1924 C1921 1.384 . S
N1925 C1917 1.427 . S
N1925 C1923 1.384 . S
H1926 C1932 0.930 . S
H1927 C1936 0.930 . S
H1928 C1941 0.929 . S
H1929 C1939 0.929 . S
H1930 C1934 0.929 . S
H1931 C1940 0.929 . S
C1932 H1926 0.930 . S
C1932 C1933 1.367 . S
C1932 C1940 1.378 . S
C1933 C1932 1.367 . S
C1933 C1941 1.433 1_545 S
C1934 H1930 0.929 . S
C1934 C1936 1.378 . S
C1934 C1938 1.350 1_565 S
C1935 C1938 1.463 . S
C1935 C1940 1.350 . S
C1935 N1943 1.427 1_545 S
C1936 H1927 0.930 . S
C1936 C1934 1.378 . S
C1936 C1937 1.367 1_565 S
C1937 C1936 1.367 1_545 S
C1937 C1939 1.433 . S
C1938 C1934 1.350 1_545 S
C1938 C1935 1.463 . S
C1938 N1942 1.427 . S
C1939 H1929 0.929 . S
C1939 C1937 1.433 . S
C1939 N1942 1.384 . S
C1940 H1931 0.929 . S
C1940 C1932 1.378 . S
C1940 C1935 1.350 . S
C1941 H1928 0.929 . S
C1941 C1933 1.433 1_565 S
C1941 N1943 1.384 . S
N1942 C1938 1.427 . S
N1942 C1939 1.384 . S
N1943 C1935 1.427 1_565 S
N1943 C1941 1.384 . S
H1944 C1950 0.930 . S
H1945 C1954 0.930 . S
H1946 C1959 0.929 . S
H1947 C1957 0.929 . S
H1948 C1952 0.929 . S
H1949 C1958 0.929 . S
C1950 H1944 0.930 . S
C1950 C1951 1.367 1_455 S
C1950 C1958 1.378 . S
C1951 C1950 1.367 1_655 S
C1951 C1959 1.433 . S
C1952 H1948 0.929 . S
C1952 C1954 1.378 . S
C1952 C1956 1.350 . S
C1953 C1956 1.463 . S
C1953 C1958 1.350 1_655 S
C1953 N1961 1.427 . S
C1954 H1945 0.930 . S
C1954 C1952 1.378 . S
C1954 C1955 1.367 . S
C1955 C1954 1.367 . S
C1955 C1957 1.433 1_655 S
C1956 C1952 1.350 . S
C1956 C1953 1.463 . S
C1956 N1960 1.427 1_655 S
C1957 H1947 0.929 . S
C1957 C1955 1.433 1_455 S
C1957 N1960 1.384 . S
C1958 H1949 0.929 . S
C1958 C1950 1.378 . S
C1958 C1953 1.350 1_455 S
C1959 H1946 0.929 . S
C1959 C1951 1.433 . S
C1959 N1961 1.384 . S
N1960 C1956 1.427 1_455 S
N1960 C1957 1.384 . S
N1961 C1953 1.427 . S
N1961 C1959 1.384 . S
H1962 C1968 0.930 . S
H1963 C1972 0.930 . S
H1964 C1977 0.929 . S
H1965 C1975 0.929 . S
H1966 C1970 0.929 . S
H1967 C1976 0.929 . S
C1968 H1962 0.930 . S
C1968 C1969 1.367 . S
C1968 C1976 1.378 . S
C1969 C1968 1.367 . S
C1969 C1977 1.433 . S
C1970 H1966 0.929 . S
C1970 C1972 1.378 . S
C1970 C1974 1.350 . S
C1971 C1974 1.463 . S
C1971 C1976 1.350 . S
C1971 N1979 1.427 . S
C1972 H1963 0.930 . S
C1972 C1970 1.378 . S
C1972 C1973 1.367 . S
C1973 C1972 1.367 . S
C1973 C1975 1.433 . S
C1974 C1970 1.350 . S
C1974 C1971 1.463 . S
C1974 N1978 1.427 . S
C1975 H1965 0.929 . S
C1975 C1973 1.433 . S
C1975 N1978 1.384 . S
C1976 H1967 0.929 . S
C1976 C1968 1.378 . S
C1976 C1971 1.350 . S
C1977 H1964 0.929 . S
C1977 C1969 1.433 . S
C1977 N1979 1.384 . S
N1978 C1974 1.427 . S
N1978 C1975 1.384 . S
N1979 C1971 1.427 . S
N1979 C1977 1.384 . S
H1980 C1986 0.930 . S
H1981 C1990 0.930 . S
H1982 C1995 0.929 . S
H1983 C1993 0.929 . S
H1984 C1988 0.929 . S
H1985 C1994 0.929 . S
C1986 H1980 0.930 . S
C1986 C1987 1.367 . S
C1986 C1994 1.378 . S
C1987 C1986 1.367 . S
C1987 C1995 1.433 . S
C1988 H1984 0.929 . S
C1988 C1990 1.378 . S
C1988 C1992 1.350 . S
C1989 C1992 1.463 . S
C1989 C1994 1.350 . S
C1989 N1997 1.427 . S
C1990 H1981 0.930 . S
C1990 C1988 1.378 . S
C1990 C1991 1.367 . S
C1991 C1990 1.367 . S
C1991 C1993 1.433 . S
C1992 C1988 1.350 . S
C1992 C1989 1.463 . S
C1992 N1996 1.427 . S
C1993 H1983 0.929 . S
C1993 C1991 1.433 . S
C1993 N1996 1.384 . S
C1994 H1985 0.929 . S
C1994 C1986 1.378 . S
C1994 C1989 1.350 . S
C1995 H1982 0.929 . S
C1995 C1987 1.433 . S
C1995 N1997 1.384 . S
N1996 C1992 1.427 . S
N1996 C1993 1.384 . S
N1997 C1989 1.427 . S
N1997 C1995 1.384 . S
H1998 C2004 0.930 . S
H1999 C2008 0.930 . S
H2000 C2013 0.929 . S
H2001 C2011 0.929 . S
H2002 C2006 0.929 . S
H2003 C2012 0.929 . S
C2004 H1998 0.930 . S
C2004 C2005 1.367 . S
C2004 C2012 1.378 . S
C2005 C2004 1.367 . S
C2005 C2013 1.433 . S
C2006 H2002 0.929 . S
C2006 C2008 1.378 . S
C2006 C2010 1.350 . S
C2007 C2010 1.463 . S
C2007 C2012 1.350 . S
C2007 N2015 1.427 . S
C2008 H1999 0.930 . S
C2008 C2006 1.378 . S
C2008 C2009 1.367 . S
C2009 C2008 1.367 . S
C2009 C2011 1.433 . S
C2010 C2006 1.350 . S
C2010 C2007 1.463 . S
C2010 N2014 1.427 . S
C2011 H2001 0.929 . S
C2011 C2009 1.433 . S
C2011 N2014 1.384 . S
C2012 H2003 0.929 . S
C2012 C2004 1.378 . S
C2012 C2007 1.350 . S
C2013 H2000 0.929 . S
C2013 C2005 1.433 . S
C2013 N2015 1.384 . S
N2014 C2010 1.427 . S
N2014 C2011 1.384 . S
N2015 C2007 1.427 . S
N2015 C2013 1.384 . S
H2016 C2022 0.930 . S
H2017 C2026 0.930 . S
H2018 C2031 0.929 . S
H2019 C2029 0.929 . S
H2020 C2024 0.929 . S
H2021 C2030 0.929 . S
C2022 H2016 0.930 . S
C2022 C2023 1.367 . S
C2022 C2030 1.378 . S
C2023 C2022 1.367 . S
C2023 C2031 1.433 . S
C2024 H2020 0.929 . S
C2024 C2026 1.378 . S
C2024 C2028 1.350 . S
C2025 C2028 1.463 . S
C2025 C2030 1.350 . S
C2025 N2033 1.427 . S
C2026 H2017 0.930 . S
C2026 C2024 1.378 . S
C2026 C2027 1.367 . S
C2027 C2026 1.367 . S
C2027 C2029 1.433 . S
C2028 C2024 1.350 . S
C2028 C2025 1.463 . S
C2028 N2032 1.427 . S
C2029 H2019 0.929 . S
C2029 C2027 1.433 . S
C2029 N2032 1.384 . S
C2030 H2021 0.929 . S
C2030 C2022 1.378 . S
C2030 C2025 1.350 . S
C2031 H2018 0.929 . S
C2031 C2023 1.433 . S
C2031 N2033 1.384 . S
N2032 C2028 1.427 . S
N2032 C2029 1.384 . S
N2033 C2025 1.427 . S
N2033 C2031 1.384 . S
H2034 C2040 0.930 . S
H2035 C2044 0.930 . S
H2036 C2049 0.929 . S
H2037 C2047 0.929 . S
H2038 C2042 0.929 . S
H2039 C2048 0.929 . S
C2040 H2034 0.930 . S
C2040 C2041 1.367 . S
C2040 C2048 1.378 . S
C2041 C2040 1.367 . S
C2041 C2049 1.433 . S
C2042 H2038 0.929 . S
C2042 C2044 1.378 . S
C2042 C2046 1.350 . S
C2043 C2046 1.463 . S
C2043 C2048 1.350 . S
C2043 N2051 1.427 . S
C2044 H2035 0.930 . S
C2044 C2042 1.378 . S
C2044 C2045 1.367 . S
C2045 C2044 1.367 . S
C2045 C2047 1.433 . S
C2046 C2042 1.350 . S
C2046 C2043 1.463 . S
C2046 N2050 1.427 . S
C2047 H2037 0.929 . S
C2047 C2045 1.433 . S
C2047 N2050 1.384 . S
C2048 H2039 0.929 . S
C2048 C2040 1.378 . S
C2048 C2043 1.350 . S
C2049 H2036 0.929 . S
C2049 C2041 1.433 . S
C2049 N2051 1.384 . S
N2050 C2046 1.427 . S
N2050 C2047 1.384 . S
N2051 C2043 1.427 . S
N2051 C2049 1.384 . S
H2052 C2058 0.930 . S
H2053 C2062 0.930 . S
H2054 C2067 0.929 . S
H2055 C2065 0.929 . S
H2056 C2060 0.929 . S
H2057 C2066 0.929 . S
C2058 H2052 0.930 . S
C2058 C2059 1.367 . S
C2058 C2066 1.378 . S
C2059 C2058 1.367 . S
C2059 C2067 1.433 . S
C2060 H2056 0.929 . S
C2060 C2062 1.378 . S
C2060 C2064 1.350 . S
C2061 C2064 1.463 . S
C2061 C2066 1.350 . S
C2061 N2069 1.427 . S
C2062 H2053 0.930 . S
C2062 C2060 1.378 . S
C2062 C2063 1.367 . S
C2063 C2062 1.367 . S
C2063 C2065 1.433 . S
C2064 C2060 1.350 . S
C2064 C2061 1.463 . S
C2064 N2068 1.427 . S
C2065 H2055 0.929 . S
C2065 C2063 1.433 . S
C2065 N2068 1.384 . S
C2066 H2057 0.929 . S
C2066 C2058 1.378 . S
C2066 C2061 1.350 . S
C2067 H2054 0.929 . S
C2067 C2059 1.433 . S
C2067 N2069 1.384 . S
N2068 C2064 1.427 . S
N2068 C2065 1.384 . S
N2069 C2061 1.427 . S
N2069 C2067 1.384 . S
H2070 C2076 0.930 . S
H2071 C2080 0.930 . S
H2072 C2085 0.929 . S
H2073 C2083 0.929 . S
H2074 C2078 0.929 . S
H2075 C2084 0.929 . S
C2076 H2070 0.930 . S
C2076 C2077 1.367 . S
C2076 C2084 1.378 . S
C2077 C2076 1.367 . S
C2077 C2085 1.433 . S
C2078 H2074 0.929 . S
C2078 C2080 1.378 . S
C2078 C2082 1.350 . S
C2079 C2082 1.463 . S
C2079 C2084 1.350 . S
C2079 N2087 1.427 . S
C2080 H2071 0.930 . S
C2080 C2078 1.378 . S
C2080 C2081 1.367 . S
C2081 C2080 1.367 . S
C2081 C2083 1.433 . S
C2082 C2078 1.350 . S
C2082 C2079 1.463 . S
C2082 N2086 1.427 . S
C2083 H2073 0.929 . S
C2083 C2081 1.433 . S
C2083 N2086 1.384 . S
C2084 H2075 0.929 . S
C2084 C2076 1.378 . S
C2084 C2079 1.350 . S
C2085 H2072 0.929 . S
C2085 C2077 1.433 . S
C2085 N2087 1.384 . S
N2086 C2082 1.427 . S
N2086 C2083 1.384 . S
N2087 C2079 1.427 . S
N2087 C2085 1.384 . S
H2088 C2094 0.930 . S
H2089 C2098 0.930 . S
H2090 C2103 0.929 . S
H2091 C2101 0.929 . S
H2092 C2096 0.929 . S
H2093 C2102 0.929 . S
C2094 H2088 0.930 . S
C2094 C2095 1.367 . S
C2094 C2102 1.378 . S
C2095 C2094 1.367 . S
C2095 C2103 1.433 . S
C2096 H2092 0.929 . S
C2096 C2098 1.378 . S
C2096 C2100 1.350 . S
C2097 C2100 1.463 . S
C2097 C2102 1.350 . S
C2097 N2105 1.427 . S
C2098 H2089 0.930 . S
C2098 C2096 1.378 . S
C2098 C2099 1.367 . S
C2099 C2098 1.367 . S
C2099 C2101 1.433 . S
C2100 C2096 1.350 . S
C2100 C2097 1.463 . S
C2100 N2104 1.427 . S
C2101 H2091 0.929 . S
C2101 C2099 1.433 . S
C2101 N2104 1.384 . S
C2102 H2093 0.929 . S
C2102 C2094 1.378 . S
C2102 C2097 1.350 . S
C2103 H2090 0.929 . S
C2103 C2095 1.433 . S
C2103 N2105 1.384 . S
N2104 C2100 1.427 . S
N2104 C2101 1.384 . S
N2105 C2097 1.427 . S
N2105 C2103 1.384 . S
H2106 C2112 0.930 . S
H2107 C2116 0.930 . S
H2108 C2121 0.929 . S
H2109 C2119 0.929 . S
H2110 C2114 0.929 . S
H2111 C2120 0.929 . S
C2112 H2106 0.930 . S
C2112 C2113 1.367 . S
C2112 C2120 1.378 . S
C2113 C2112 1.367 . S
C2113 C2121 1.433 . S
C2114 H2110 0.929 . S
C2114 C2116 1.378 . S
C2114 C2118 1.350 . S
C2115 C2118 1.463 . S
C2115 C2120 1.350 . S
C2115 N2123 1.427 . S
C2116 H2107 0.930 . S
C2116 C2114 1.378 . S
C2116 C2117 1.367 . S
C2117 C2116 1.367 . S
C2117 C2119 1.433 . S
C2118 C2114 1.350 . S
C2118 C2115 1.463 . S
C2118 N2122 1.427 . S
C2119 H2109 0.929 . S
C2119 C2117 1.433 . S
C2119 N2122 1.384 . S
C2120 H2111 0.929 . S
C2120 C2112 1.378 . S
C2120 C2115 1.350 . S
C2121 H2108 0.929 . S
C2121 C2113 1.433 . S
C2121 N2123 1.384 . S
N2122 C2118 1.427 . S
N2122 C2119 1.384 . S
N2123 C2115 1.427 . S
N2123 C2121 1.384 . S
H2124 C2130 0.930 . S
H2125 C2134 0.930 . S
H2126 C2139 0.929 . S
H2127 C2137 0.929 . S
H2128 C2132 0.929 . S
H2129 C2138 0.929 . S
C2130 H2124 0.930 . S
C2130 C2131 1.367 . S
C2130 C2138 1.378 . S
C2131 C2130 1.367 . S
C2131 C2139 1.433 . S
C2132 H2128 0.929 . S
C2132 C2134 1.378 . S
C2132 C2136 1.350 . S
C2133 C2136 1.463 . S
C2133 C2138 1.350 . S
C2133 N2141 1.427 . S
C2134 H2125 0.930 . S
C2134 C2132 1.378 . S
C2134 C2135 1.367 . S
C2135 C2134 1.367 . S
C2135 C2137 1.433 . S
C2136 C2132 1.350 . S
C2136 C2133 1.463 . S
C2136 N2140 1.427 . S
C2137 H2127 0.929 . S
C2137 C2135 1.433 . S
C2137 N2140 1.384 . S
C2138 H2129 0.929 . S
C2138 C2130 1.378 . S
C2138 C2133 1.350 . S
C2139 H2126 0.929 . S
C2139 C2131 1.433 . S
C2139 N2141 1.384 . S
N2140 C2136 1.427 . S
N2140 C2137 1.384 . S
N2141 C2133 1.427 . S
N2141 C2139 1.384 . S
H2142 C2148 0.930 . S
H2143 C2152 0.930 . S
H2144 C2157 0.929 . S
H2145 C2155 0.929 . S
H2146 C2150 0.929 . S
H2147 C2156 0.929 . S
C2148 H2142 0.930 . S
C2148 C2149 1.367 . S
C2148 C2156 1.378 . S
C2149 C2148 1.367 . S
C2149 C2157 1.433 . S
C2150 H2146 0.929 . S
C2150 C2152 1.378 . S
C2150 C2154 1.350 . S
C2151 C2154 1.463 . S
C2151 C2156 1.350 . S
C2151 N2159 1.427 . S
C2152 H2143 0.930 . S
C2152 C2150 1.378 . S
C2152 C2153 1.367 . S
C2153 C2152 1.367 . S
C2153 C2155 1.433 . S
C2154 C2150 1.350 . S
C2154 C2151 1.463 . S
C2154 N2158 1.427 . S
C2155 H2145 0.929 . S
C2155 C2153 1.433 . S
C2155 N2158 1.384 . S
C2156 H2147 0.929 . S
C2156 C2148 1.378 . S
C2156 C2151 1.350 . S
C2157 H2144 0.929 . S
C2157 C2149 1.433 . S
C2157 N2159 1.384 . S
N2158 C2154 1.427 . S
N2158 C2155 1.384 . S
N2159 C2151 1.427 . S
N2159 C2157 1.384 . S
H2160 C2166 0.930 . S
H2161 C2170 0.930 . S
H2162 C2175 0.929 . S
H2163 C2173 0.929 . S
H2164 C2168 0.929 . S
H2165 C2174 0.929 . S
C2166 H2160 0.930 . S
C2166 C2167 1.367 . S
C2166 C2174 1.378 . S
C2167 C2166 1.367 . S
C2167 C2175 1.433 . S
C2168 H2164 0.929 . S
C2168 C2170 1.378 . S
C2168 C2172 1.350 . S
C2169 C2172 1.463 . S
C2169 C2174 1.350 . S
C2169 N2177 1.427 . S
C2170 H2161 0.930 . S
C2170 C2168 1.378 . S
C2170 C2171 1.367 . S
C2171 C2170 1.367 . S
C2171 C2173 1.433 . S
C2172 C2168 1.350 . S
C2172 C2169 1.463 . S
C2172 N2176 1.427 . S
C2173 H2163 0.929 . S
C2173 C2171 1.433 . S
C2173 N2176 1.384 . S
C2174 H2165 0.929 . S
C2174 C2166 1.378 . S
C2174 C2169 1.350 . S
C2175 H2162 0.929 . S
C2175 C2167 1.433 . S
C2175 N2177 1.384 . S
N2176 C2172 1.427 . S
N2176 C2173 1.384 . S
N2177 C2169 1.427 . S
N2177 C2175 1.384 . S
H2178 C2184 0.930 . S
H2179 C2188 0.930 . S
H2180 C2193 0.929 . S
H2181 C2191 0.929 . S
H2182 C2186 0.929 . S
H2183 C2192 0.929 . S
C2184 H2178 0.930 . S
C2184 C2185 1.367 . S
C2184 C2192 1.378 . S
C2185 C2184 1.367 . S
C2185 C2193 1.433 . S
C2186 H2182 0.929 . S
C2186 C2188 1.378 . S
C2186 C2190 1.350 . S
C2187 C2190 1.463 . S
C2187 C2192 1.350 . S
C2187 N2195 1.427 . S
C2188 H2179 0.930 . S
C2188 C2186 1.378 . S
C2188 C2189 1.367 . S
C2189 C2188 1.367 . S
C2189 C2191 1.433 . S
C2190 C2186 1.350 . S
C2190 C2187 1.463 . S
C2190 N2194 1.427 . S
C2191 H2181 0.929 . S
C2191 C2189 1.433 . S
C2191 N2194 1.384 . S
C2192 H2183 0.929 . S
C2192 C2184 1.378 . S
C2192 C2187 1.350 . S
C2193 H2180 0.929 . S
C2193 C2185 1.433 . S
C2193 N2195 1.384 . S
N2194 C2190 1.427 . S
N2194 C2191 1.384 . S
N2195 C2187 1.427 . S
N2195 C2193 1.384 . S
H2196 C2202 0.930 . S
H2197 C2206 0.930 . S
H2198 C2211 0.929 . S
H2199 C2209 0.929 . S
H2200 C2204 0.929 . S
H2201 C2210 0.929 . S
C2202 H2196 0.930 . S
C2202 C2203 1.367 . S
C2202 C2210 1.378 . S
C2203 C2202 1.367 . S
C2203 C2211 1.433 . S
C2204 H2200 0.929 . S
C2204 C2206 1.378 . S
C2204 C2208 1.350 . S
C2205 C2208 1.463 . S
C2205 C2210 1.350 . S
C2205 N2213 1.427 . S
C2206 H2197 0.930 . S
C2206 C2204 1.378 . S
C2206 C2207 1.367 . S
C2207 C2206 1.367 . S
C2207 C2209 1.433 . S
C2208 C2204 1.350 . S
C2208 C2205 1.463 . S
C2208 N2212 1.427 . S
C2209 H2199 0.929 . S
C2209 C2207 1.433 . S
C2209 N2212 1.384 . S
C2210 H2201 0.929 . S
C2210 C2202 1.378 . S
C2210 C2205 1.350 . S
C2211 H2198 0.929 . S
C2211 C2203 1.433 . S
C2211 N2213 1.384 . S
N2212 C2208 1.427 . S
N2212 C2209 1.384 . S
N2213 C2205 1.427 . S
N2213 C2211 1.384 . S
H2214 C2220 0.930 . S
H2215 C2224 0.930 . S
H2216 C2229 0.929 . S
H2217 C2227 0.929 . S
H2218 C2222 0.929 . S
H2219 C2228 0.929 . S
C2220 H2214 0.930 . S
C2220 C2221 1.367 . S
C2220 C2228 1.378 . S
C2221 C2220 1.367 . S
C2221 C2229 1.433 . S
C2222 H2218 0.929 . S
C2222 C2224 1.378 . S
C2222 C2226 1.350 . S
C2223 C2226 1.463 . S
C2223 C2228 1.350 . S
C2223 N2231 1.427 . S
C2224 H2215 0.930 . S
C2224 C2222 1.378 . S
C2224 C2225 1.367 . S
C2225 C2224 1.367 . S
C2225 C2227 1.433 . S
C2226 C2222 1.350 . S
C2226 C2223 1.463 . S
C2226 N2230 1.427 . S
C2227 H2217 0.929 . S
C2227 C2225 1.433 . S
C2227 N2230 1.384 . S
C2228 H2219 0.929 . S
C2228 C2220 1.378 . S
C2228 C2223 1.350 . S
C2229 H2216 0.929 . S
C2229 C2221 1.433 . S
C2229 N2231 1.384 . S
N2230 C2226 1.427 . S
N2230 C2227 1.384 . S
N2231 C2223 1.427 . S
N2231 C2229 1.384 . S
H2232 C2238 0.930 . S
H2233 C2242 0.930 . S
H2234 C2247 0.929 . S
H2235 C2245 0.929 . S
H2236 C2240 0.929 . S
H2237 C2246 0.929 . S
C2238 H2232 0.930 . S
C2238 C2239 1.367 . S
C2238 C2246 1.378 . S
C2239 C2238 1.367 . S
C2239 C2247 1.433 . S
C2240 H2236 0.929 . S
C2240 C2242 1.378 . S
C2240 C2244 1.350 . S
C2241 C2244 1.463 . S
C2241 C2246 1.350 . S
C2241 N2249 1.427 . S
C2242 H2233 0.930 . S
C2242 C2240 1.378 . S
C2242 C2243 1.367 . S
C2243 C2242 1.367 . S
C2243 C2245 1.433 . S
C2244 C2240 1.350 . S
C2244 C2241 1.463 . S
C2244 N2248 1.427 . S
C2245 H2235 0.929 . S
C2245 C2243 1.433 . S
C2245 N2248 1.384 . S
C2246 H2237 0.929 . S
C2246 C2238 1.378 . S
C2246 C2241 1.350 . S
C2247 H2234 0.929 . S
C2247 C2239 1.433 . S
C2247 N2249 1.384 . S
N2248 C2244 1.427 . S
N2248 C2245 1.384 . S
N2249 C2241 1.427 . S
N2249 C2247 1.384 . S
H2250 C2256 0.930 . S
H2251 C2260 0.930 . S
H2252 C2265 0.929 . S
H2253 C2263 0.929 . S
H2254 C2258 0.929 . S
H2255 C2264 0.929 . S
C2256 H2250 0.930 . S
C2256 C2257 1.367 . S
C2256 C2264 1.378 . S
C2257 C2256 1.367 . S
C2257 C2265 1.433 . S
C2258 H2254 0.929 . S
C2258 C2260 1.378 . S
C2258 C2262 1.350 . S
C2259 C2262 1.463 . S
C2259 C2264 1.350 . S
C2259 N2267 1.427 . S
C2260 H2251 0.930 . S
C2260 C2258 1.378 . S
C2260 C2261 1.367 . S
C2261 C2260 1.367 . S
C2261 C2263 1.433 . S
C2262 C2258 1.350 . S
C2262 C2259 1.463 . S
C2262 N2266 1.427 . S
C2263 H2253 0.929 . S
C2263 C2261 1.433 . S
C2263 N2266 1.384 . S
C2264 H2255 0.929 . S
C2264 C2256 1.378 . S
C2264 C2259 1.350 . S
C2265 H2252 0.929 . S
C2265 C2257 1.433 . S
C2265 N2267 1.384 . S
N2266 C2262 1.427 . S
N2266 C2263 1.384 . S
N2267 C2259 1.427 . S
N2267 C2265 1.384 . S
H2268 C2274 0.930 . S
H2269 C2278 0.930 . S
H2270 C2283 0.929 . S
H2271 C2281 0.929 . S
H2272 C2276 0.929 . S
H2273 C2282 0.929 . S
C2274 H2268 0.930 . S
C2274 C2275 1.367 . S
C2274 C2282 1.378 . S
C2275 C2274 1.367 . S
C2275 C2283 1.433 . S
C2276 H2272 0.929 . S
C2276 C2278 1.378 . S
C2276 C2280 1.350 . S
C2277 C2280 1.463 . S
C2277 C2282 1.350 . S
C2277 N2285 1.427 . S
C2278 H2269 0.930 . S
C2278 C2276 1.378 . S
C2278 C2279 1.367 . S
C2279 C2278 1.367 . S
C2279 C2281 1.433 . S
C2280 C2276 1.350 . S
C2280 C2277 1.463 . S
C2280 N2284 1.427 . S
C2281 H2271 0.929 . S
C2281 C2279 1.433 . S
C2281 N2284 1.384 . S
C2282 H2273 0.929 . S
C2282 C2274 1.378 . S
C2282 C2277 1.350 . S
C2283 H2270 0.929 . S
C2283 C2275 1.433 . S
C2283 N2285 1.384 . S
N2284 C2280 1.427 . S
N2284 C2281 1.384 . S
N2285 C2277 1.427 . S
N2285 C2283 1.384 . S
H2286 C2292 0.930 . S
H2287 C2296 0.930 . S
H2288 C2301 0.929 . S
H2289 C2299 0.929 . S
H2290 C2294 0.929 . S
H2291 C2300 0.929 . S
C2292 H2286 0.930 . S
C2292 C2293 1.367 . S
C2292 C2300 1.378 . S
C2293 C2292 1.367 . S
C2293 C2301 1.433 . S
C2294 H2290 0.929 . S
C2294 C2296 1.378 . S
C2294 C2298 1.350 . S
C2295 C2298 1.463 . S
C2295 C2300 1.350 . S
C2295 N2303 1.427 . S
C2296 H2287 0.930 . S
C2296 C2294 1.378 . S
C2296 C2297 1.367 . S
C2297 C2296 1.367 . S
C2297 C2299 1.433 . S
C2298 C2294 1.350 . S
C2298 C2295 1.463 . S
C2298 N2302 1.427 . S
C2299 H2289 0.929 . S
C2299 C2297 1.433 . S
C2299 N2302 1.384 . S
C2300 H2291 0.929 . S
C2300 C2292 1.378 . S
C2300 C2295 1.350 . S
C2301 H2288 0.929 . S
C2301 C2293 1.433 . S
C2301 N2303 1.384 . S
N2302 C2298 1.427 . S
N2302 C2299 1.384 . S
N2303 C2295 1.427 . S
N2303 C2301 1.384 . S
H2304 C2310 0.930 . S
H2305 C2314 0.930 . S
H2306 C2319 0.929 . S
H2307 C2317 0.929 . S
H2308 C2312 0.929 . S
H2309 C2318 0.929 . S
C2310 H2304 0.930 . S
C2310 C2311 1.367 . S
C2310 C2318 1.378 . S
C2311 C2310 1.367 . S
C2311 C2319 1.433 . S
C2312 H2308 0.929 . S
C2312 C2314 1.378 . S
C2312 C2316 1.350 . S
C2313 C2316 1.463 . S
C2313 C2318 1.350 . S
C2313 N2321 1.427 . S
C2314 H2305 0.930 . S
C2314 C2312 1.378 . S
C2314 C2315 1.367 . S
C2315 C2314 1.367 . S
C2315 C2317 1.433 . S
C2316 C2312 1.350 . S
C2316 C2313 1.463 . S
C2316 N2320 1.427 . S
C2317 H2307 0.929 . S
C2317 C2315 1.433 . S
C2317 N2320 1.384 . S
C2318 H2309 0.929 . S
C2318 C2310 1.378 . S
C2318 C2313 1.350 . S
C2319 H2306 0.929 . S
C2319 C2311 1.433 . S
C2319 N2321 1.384 . S
N2320 C2316 1.427 . S
N2320 C2317 1.384 . S
N2321 C2313 1.427 . S
N2321 C2319 1.384 . S
H2322 C2328 0.930 . S
H2323 C2332 0.930 . S
H2324 C2337 0.929 . S
H2325 C2335 0.929 . S
H2326 C2330 0.929 . S
H2327 C2336 0.929 . S
C2328 H2322 0.930 . S
C2328 C2329 1.367 . S
C2328 C2336 1.378 . S
C2329 C2328 1.367 . S
C2329 C2337 1.433 . S
C2330 H2326 0.929 . S
C2330 C2332 1.378 . S
C2330 C2334 1.350 . S
C2331 C2334 1.463 . S
C2331 C2336 1.350 . S
C2331 N2339 1.427 . S
C2332 H2323 0.930 . S
C2332 C2330 1.378 . S
C2332 C2333 1.367 . S
C2333 C2332 1.367 . S
C2333 C2335 1.433 . S
C2334 C2330 1.350 . S
C2334 C2331 1.463 . S
C2334 N2338 1.427 . S
C2335 H2325 0.929 . S
C2335 C2333 1.433 . S
C2335 N2338 1.384 . S
C2336 H2327 0.929 . S
C2336 C2328 1.378 . S
C2336 C2331 1.350 . S
C2337 H2324 0.929 . S
C2337 C2329 1.433 . S
C2337 N2339 1.384 . S
N2338 C2334 1.427 . S
N2338 C2335 1.384 . S
N2339 C2331 1.427 . S
N2339 C2337 1.384 . S
H2340 C2346 0.930 . S
H2341 C2350 0.930 . S
H2342 C2355 0.929 . S
H2343 C2353 0.929 . S
H2344 C2348 0.929 . S
H2345 C2354 0.929 . S
C2346 H2340 0.930 . S
C2346 C2347 1.367 . S
C2346 C2354 1.378 . S
C2347 C2346 1.367 . S
C2347 C2355 1.433 . S
C2348 H2344 0.929 . S
C2348 C2350 1.378 . S
C2348 C2352 1.350 . S
C2349 C2352 1.463 . S
C2349 C2354 1.350 . S
C2349 N2357 1.427 . S
C2350 H2341 0.930 . S
C2350 C2348 1.378 . S
C2350 C2351 1.367 . S
C2351 C2350 1.367 . S
C2351 C2353 1.433 . S
C2352 C2348 1.350 . S
C2352 C2349 1.463 . S
C2352 N2356 1.427 . S
C2353 H2343 0.929 . S
C2353 C2351 1.433 . S
C2353 N2356 1.384 . S
C2354 H2345 0.929 . S
C2354 C2346 1.378 . S
C2354 C2349 1.350 . S
C2355 H2342 0.929 . S
C2355 C2347 1.433 . S
C2355 N2357 1.384 . S
N2356 C2352 1.427 . S
N2356 C2353 1.384 . S
N2357 C2349 1.427 . S
N2357 C2355 1.384 . S
H2358 C2364 0.930 . S
H2359 C2368 0.930 . S
H2360 C2373 0.929 . S
H2361 C2371 0.929 . S
H2362 C2366 0.929 . S
H2363 C2372 0.929 . S
C2364 H2358 0.930 . S
C2364 C2365 1.367 . S
C2364 C2372 1.378 . S
C2365 C2364 1.367 . S
C2365 C2373 1.433 . S
C2366 H2362 0.929 . S
C2366 C2368 1.378 . S
C2366 C2370 1.350 . S
C2367 C2370 1.463 . S
C2367 C2372 1.350 . S
C2367 N2375 1.427 . S
C2368 H2359 0.930 . S
C2368 C2366 1.378 . S
C2368 C2369 1.367 . S
C2369 C2368 1.367 . S
C2369 C2371 1.433 . S
C2370 C2366 1.350 . S
C2370 C2367 1.463 . S
C2370 N2374 1.427 . S
C2371 H2361 0.929 . S
C2371 C2369 1.433 . S
C2371 N2374 1.384 . S
C2372 H2363 0.929 . S
C2372 C2364 1.378 . S
C2372 C2367 1.350 . S
C2373 H2360 0.929 . S
C2373 C2365 1.433 . S
C2373 N2375 1.384 . S
N2374 C2370 1.427 . S
N2374 C2371 1.384 . S
N2375 C2367 1.427 . S
N2375 C2373 1.384 . S
H2376 C2382 0.930 . S
H2377 C2386 0.930 . S
H2378 C2391 0.929 . S
H2379 C2389 0.929 . S
H2380 C2384 0.929 . S
H2381 C2390 0.929 . S
C2382 H2376 0.930 . S
C2382 C2383 1.367 . S
C2382 C2390 1.378 . S
C2383 C2382 1.367 . S
C2383 C2391 1.433 . S
C2384 H2380 0.929 . S
C2384 C2386 1.378 . S
C2384 C2388 1.350 . S
C2385 C2388 1.463 . S
C2385 C2390 1.350 . S
C2385 N2393 1.427 . S
C2386 H2377 0.930 . S
C2386 C2384 1.378 . S
C2386 C2387 1.367 . S
C2387 C2386 1.367 . S
C2387 C2389 1.433 . S
C2388 C2384 1.350 . S
C2388 C2385 1.463 . S
C2388 N2392 1.427 . S
C2389 H2379 0.929 . S
C2389 C2387 1.433 . S
C2389 N2392 1.384 . S
C2390 H2381 0.929 . S
C2390 C2382 1.378 . S
C2390 C2385 1.350 . S
C2391 H2378 0.929 . S
C2391 C2383 1.433 . S
C2391 N2393 1.384 . S
N2392 C2388 1.427 . S
N2392 C2389 1.384 . S
N2393 C2385 1.427 . S
N2393 C2391 1.384 . S
H2394 C2400 0.930 . S
H2395 C2404 0.930 . S
H2396 C2409 0.929 . S
H2397 C2407 0.929 . S
H2398 C2402 0.929 . S
H2399 C2408 0.929 . S
C2400 H2394 0.930 . S
C2400 C2401 1.367 . S
C2400 C2408 1.378 . S
C2401 C2400 1.367 . S
C2401 C2409 1.433 . S
C2402 H2398 0.929 . S
C2402 C2404 1.378 . S
C2402 C2406 1.350 . S
C2403 C2406 1.463 . S
C2403 C2408 1.350 . S
C2403 N2411 1.427 . S
C2404 H2395 0.930 . S
C2404 C2402 1.378 . S
C2404 C2405 1.367 . S
C2405 C2404 1.367 . S
C2405 C2407 1.433 . S
C2406 C2402 1.350 . S
C2406 C2403 1.463 . S
C2406 N2410 1.427 . S
C2407 H2397 0.929 . S
C2407 C2405 1.433 . S
C2407 N2410 1.384 . S
C2408 H2399 0.929 . S
C2408 C2400 1.378 . S
C2408 C2403 1.350 . S
C2409 H2396 0.929 . S
C2409 C2401 1.433 . S
C2409 N2411 1.384 . S
N2410 C2406 1.427 . S
N2410 C2407 1.384 . S
N2411 C2403 1.427 . S
N2411 C2409 1.384 . S
H2412 C2418 0.930 . S
H2413 C2422 0.930 . S
H2414 C2427 0.929 . S
H2415 C2425 0.929 . S
H2416 C2420 0.929 . S
H2417 C2426 0.929 . S
C2418 H2412 0.930 . S
C2418 C2419 1.367 . S
C2418 C2426 1.378 . S
C2419 C2418 1.367 . S
C2419 C2427 1.433 . S
C2420 H2416 0.929 . S
C2420 C2422 1.378 . S
C2420 C2424 1.350 . S
C2421 C2424 1.463 . S
C2421 C2426 1.350 . S
C2421 N2429 1.427 . S
C2422 H2413 0.930 . S
C2422 C2420 1.378 . S
C2422 C2423 1.367 . S
C2423 C2422 1.367 . S
C2423 C2425 1.433 . S
C2424 C2420 1.350 . S
C2424 C2421 1.463 . S
C2424 N2428 1.427 . S
C2425 H2415 0.929 . S
C2425 C2423 1.433 . S
C2425 N2428 1.384 . S
C2426 H2417 0.929 . S
C2426 C2418 1.378 . S
C2426 C2421 1.350 . S
C2427 H2414 0.929 . S
C2427 C2419 1.433 . S
C2427 N2429 1.384 . S
N2428 C2424 1.427 . S
N2428 C2425 1.384 . S
N2429 C2421 1.427 . S
N2429 C2427 1.384 . S
H2430 C2436 0.930 . S
H2431 C2440 0.930 . S
H2432 C2445 0.929 . S
H2433 C2443 0.929 . S
H2434 C2438 0.929 . S
H2435 C2444 0.929 . S
C2436 H2430 0.930 . S
C2436 C2437 1.367 . S
C2436 C2444 1.378 . S
C2437 C2436 1.367 . S
C2437 C2445 1.433 . S
C2438 H2434 0.929 . S
C2438 C2440 1.378 . S
C2438 C2442 1.350 . S
C2439 C2442 1.463 . S
C2439 C2444 1.350 . S
C2439 N2447 1.427 . S
C2440 H2431 0.930 . S
C2440 C2438 1.378 . S
C2440 C2441 1.367 . S
C2441 C2440 1.367 . S
C2441 C2443 1.433 . S
C2442 C2438 1.350 . S
C2442 C2439 1.463 . S
C2442 N2446 1.427 . S
C2443 H2433 0.929 . S
C2443 C2441 1.433 . S
C2443 N2446 1.384 . S
C2444 H2435 0.929 . S
C2444 C2436 1.378 . S
C2444 C2439 1.350 . S
C2445 H2432 0.929 . S
C2445 C2437 1.433 . S
C2445 N2447 1.384 . S
N2446 C2442 1.427 . S
N2446 C2443 1.384 . S
N2447 C2439 1.427 . S
N2447 C2445 1.384 . S
H2448 C2454 0.930 . S
H2449 C2458 0.930 . S
H2450 C2463 0.929 . S
H2451 C2461 0.929 . S
H2452 C2456 0.929 . S
H2453 C2462 0.929 . S
C2454 H2448 0.930 . S
C2454 C2455 1.367 . S
C2454 C2462 1.378 . S
C2455 C2454 1.367 . S
C2455 C2463 1.433 . S
C2456 H2452 0.929 . S
C2456 C2458 1.378 . S
C2456 C2460 1.350 . S
C2457 C2460 1.463 . S
C2457 C2462 1.350 . S
C2457 N2465 1.427 . S
C2458 H2449 0.930 . S
C2458 C2456 1.378 . S
C2458 C2459 1.367 . S
C2459 C2458 1.367 . S
C2459 C2461 1.433 . S
C2460 C2456 1.350 . S
C2460 C2457 1.463 . S
C2460 N2464 1.427 . S
C2461 H2451 0.929 . S
C2461 C2459 1.433 . S
C2461 N2464 1.384 . S
C2462 H2453 0.929 . S
C2462 C2454 1.378 . S
C2462 C2457 1.350 . S
C2463 H2450 0.929 . S
C2463 C2455 1.433 . S
C2463 N2465 1.384 . S
N2464 C2460 1.427 . S
N2464 C2461 1.384 . S
N2465 C2457 1.427 . S
N2465 C2463 1.384 . S
H2466 C2472 0.930 . S
H2467 C2476 0.930 . S
H2468 C2481 0.929 . S
H2469 C2479 0.929 . S
H2470 C2474 0.929 . S
H2471 C2480 0.929 . S
C2472 H2466 0.930 . S
C2472 C2473 1.367 . S
C2472 C2480 1.378 . S
C2473 C2472 1.367 . S
C2473 C2481 1.433 . S
C2474 H2470 0.929 . S
C2474 C2476 1.378 . S
C2474 C2478 1.350 . S
C2475 C2478 1.463 . S
C2475 C2480 1.350 . S
C2475 N2483 1.427 . S
C2476 H2467 0.930 . S
C2476 C2474 1.378 . S
C2476 C2477 1.367 . S
C2477 C2476 1.367 . S
C2477 C2479 1.433 . S
C2478 C2474 1.350 . S
C2478 C2475 1.463 . S
C2478 N2482 1.427 . S
C2479 H2469 0.929 . S
C2479 C2477 1.433 . S
C2479 N2482 1.384 . S
C2480 H2471 0.929 . S
C2480 C2472 1.378 . S
C2480 C2475 1.350 . S
C2481 H2468 0.929 . S
C2481 C2473 1.433 . S
C2481 N2483 1.384 . S
N2482 C2478 1.427 . S
N2482 C2479 1.384 . S
N2483 C2475 1.427 . S
N2483 C2481 1.384 . S
H2484 C2490 0.930 . S
H2485 C2494 0.930 . S
H2486 C2499 0.929 1_554 S
H2487 C2497 0.929 . S
H2488 C2492 0.929 . S
H2489 C2498 0.929 . S
C2490 H2484 0.930 . S
C2490 C2491 1.367 . S
C2490 C2498 1.378 . S
C2491 C2490 1.367 . S
C2491 C2499 1.433 . S
C2492 H2488 0.929 . S
C2492 C2494 1.378 . S
C2492 C2496 1.350 . S
C2493 C2496 1.463 . S
C2493 C2498 1.350 . S
C2493 N2501 1.427 . S
C2494 H2485 0.930 . S
C2494 C2492 1.378 . S
C2494 C2495 1.367 . S
C2495 C2494 1.367 . S
C2495 C2497 1.433 . S
C2496 C2492 1.350 . S
C2496 C2493 1.463 . S
C2496 N2500 1.427 . S
C2497 H2487 0.929 . S
C2497 C2495 1.433 . S
C2497 N2500 1.384 . S
C2498 H2489 0.929 . S
C2498 C2490 1.378 . S
C2498 C2493 1.350 . S
C2499 H2486 0.929 1_556 S
C2499 C2491 1.433 . S
C2499 N2501 1.384 . S
N2500 C2496 1.427 . S
N2500 C2497 1.384 . S
N2501 C2493 1.427 . S
N2501 C2499 1.384 . S
H2502 C2508 0.930 . S
H2503 C2512 0.930 . S
H2504 C2517 0.929 . S
H2505 C2515 0.929 . S
H2506 C2510 0.929 . S
H2507 C2516 0.929 . S
C2508 H2502 0.930 . S
C2508 C2509 1.367 . S
C2508 C2516 1.378 . S
C2509 C2508 1.367 . S
C2509 C2517 1.433 . S
C2510 H2506 0.929 . S
C2510 C2512 1.378 . S
C2510 C2514 1.350 . S
C2511 C2514 1.463 . S
C2511 C2516 1.350 . S
C2511 N2519 1.427 . S
C2512 H2503 0.930 . S
C2512 C2510 1.378 . S
C2512 C2513 1.367 . S
C2513 C2512 1.367 . S
C2513 C2515 1.433 . S
C2514 C2510 1.350 . S
C2514 C2511 1.463 . S
C2514 N2518 1.427 . S
C2515 H2505 0.929 . S
C2515 C2513 1.433 . S
C2515 N2518 1.384 . S
C2516 H2507 0.929 . S
C2516 C2508 1.378 . S
C2516 C2511 1.350 . S
C2517 H2504 0.929 . S
C2517 C2509 1.433 . S
C2517 N2519 1.384 . S
N2518 C2514 1.427 . S
N2518 C2515 1.384 . S
N2519 C2511 1.427 . S
N2519 C2517 1.384 . S
H2520 C2526 0.930 . S
H2521 C2530 0.930 . S
H2522 C2535 0.929 . S
H2523 C2533 0.929 . S
H2524 C2528 0.929 . S
H2525 C2534 0.929 1_554 S
C2526 H2520 0.930 . S
C2526 C2527 1.367 1_554 S
C2526 C2534 1.378 1_554 S
C2527 C2526 1.367 1_556 S
C2527 C2535 1.433 . S
C2528 H2524 0.929 . S
C2528 C2530 1.378 . S
C2528 C2532 1.350 . S
C2529 C2532 1.463 . S
C2529 C2534 1.350 . S
C2529 N2537 1.427 . S
C2530 H2521 0.930 . S
C2530 C2528 1.378 . S
C2530 C2531 1.367 . S
C2531 C2530 1.367 . S
C2531 C2533 1.433 . S
C2532 C2528 1.350 . S
C2532 C2529 1.463 . S
C2532 N2536 1.427 . S
C2533 H2523 0.929 . S
C2533 C2531 1.433 . S
C2533 N2536 1.384 . S
C2534 H2525 0.929 1_556 S
C2534 C2526 1.378 1_556 S
C2534 C2529 1.350 . S
C2535 H2522 0.929 . S
C2535 C2527 1.433 . S
C2535 N2537 1.384 . S
N2536 C2532 1.427 . S
N2536 C2533 1.384 . S
N2537 C2529 1.427 . S
N2537 C2535 1.384 . S
H2538 C2544 0.930 . S
H2539 C2548 0.930 . S
H2540 C2553 0.929 1_554 S
H2541 C2551 0.929 . S
H2542 C2546 0.929 . S
H2543 C2552 0.929 . S
C2544 H2538 0.930 . S
C2544 C2545 1.367 . S
C2544 C2552 1.378 . S
C2545 C2544 1.367 . S
C2545 C2553 1.433 . S
C2546 H2542 0.929 . S
C2546 C2548 1.378 . S
C2546 C2550 1.350 . S
C2547 C2550 1.463 . S
C2547 C2552 1.350 . S
C2547 N2555 1.427 . S
C2548 H2539 0.930 . S
C2548 C2546 1.378 . S
C2548 C2549 1.367 . S
C2549 C2548 1.367 . S
C2549 C2551 1.433 . S
C2550 C2546 1.350 . S
C2550 C2547 1.463 . S
C2550 N2554 1.427 . S
C2551 H2541 0.929 . S
C2551 C2549 1.433 . S
C2551 N2554 1.384 . S
C2552 H2543 0.929 . S
C2552 C2544 1.378 . S
C2552 C2547 1.350 . S
C2553 H2540 0.929 1_556 S
C2553 C2545 1.433 . S
C2553 N2555 1.384 . S
N2554 C2550 1.427 . S
N2554 C2551 1.384 . S
N2555 C2547 1.427 . S
N2555 C2553 1.384 . S
H2556 C2562 0.930 . S
H2557 C2566 0.930 . S
H2558 C2571 0.929 . S
H2559 C2569 0.929 . S
H2560 C2564 0.929 . S
H2561 C2570 0.929 . S
C2562 H2556 0.930 . S
C2562 C2563 1.367 . S
C2562 C2570 1.378 . S
C2563 C2562 1.367 . S
C2563 C2571 1.433 . S
C2564 H2560 0.929 . S
C2564 C2566 1.378 . S
C2564 C2568 1.350 . S
C2565 C2568 1.463 . S
C2565 C2570 1.350 . S
C2565 N2573 1.427 . S
C2566 H2557 0.930 . S
C2566 C2564 1.378 . S
C2566 C2567 1.367 . S
C2567 C2566 1.367 . S
C2567 C2569 1.433 . S
C2568 C2564 1.350 . S
C2568 C2565 1.463 . S
C2568 N2572 1.427 . S
C2569 H2559 0.929 . S
C2569 C2567 1.433 . S
C2569 N2572 1.384 . S
C2570 H2561 0.929 . S
C2570 C2562 1.378 . S
C2570 C2565 1.350 . S
C2571 H2558 0.929 . S
C2571 C2563 1.433 . S
C2571 N2573 1.384 . S
N2572 C2568 1.427 . S
N2572 C2569 1.384 . S
N2573 C2565 1.427 . S
N2573 C2571 1.384 . S
H2574 C2580 0.930 . S
H2575 C2584 0.930 . S
H2576 C2589 0.929 . S
H2577 C2587 0.929 . S
H2578 C2582 0.929 . S
H2579 C2588 0.929 . S
C2580 H2574 0.930 . S
C2580 C2581 1.367 . S
C2580 C2588 1.378 . S
C2581 C2580 1.367 . S
C2581 C2589 1.433 . S
C2582 H2578 0.929 . S
C2582 C2584 1.378 . S
C2582 C2586 1.350 . S
C2583 C2586 1.463 . S
C2583 C2588 1.350 . S
C2583 N2591 1.427 . S
C2584 H2575 0.930 . S
C2584 C2582 1.378 . S
C2584 C2585 1.367 . S
C2585 C2584 1.367 . S
C2585 C2587 1.433 . S
C2586 C2582 1.350 . S
C2586 C2583 1.463 . S
C2586 N2590 1.427 . S
C2587 H2577 0.929 . S
C2587 C2585 1.433 . S
C2587 N2590 1.384 . S
C2588 H2579 0.929 . S
C2588 C2580 1.378 . S
C2588 C2583 1.350 . S
C2589 H2576 0.929 . S
C2589 C2581 1.433 . S
C2589 N2591 1.384 . S
N2590 C2586 1.427 . S
N2590 C2587 1.384 . S
N2591 C2583 1.427 . S
N2591 C2589 1.384 . S
H2592 C2598 0.930 . S
H2593 C2602 0.930 . S
H2594 C2607 0.929 . S
H2595 C2605 0.929 . S
H2596 C2600 0.929 . S
H2597 C2606 0.929 . S
C2598 H2592 0.930 . S
C2598 C2599 1.367 . S
C2598 C2606 1.378 . S
C2599 C2598 1.367 . S
C2599 C2607 1.433 . S
C2600 H2596 0.929 . S
C2600 C2602 1.378 . S
C2600 C2604 1.350 . S
C2601 C2604 1.463 . S
C2601 C2606 1.350 . S
C2601 N2609 1.427 . S
C2602 H2593 0.930 . S
C2602 C2600 1.378 . S
C2602 C2603 1.367 . S
C2603 C2602 1.367 . S
C2603 C2605 1.433 . S
C2604 C2600 1.350 . S
C2604 C2601 1.463 . S
C2604 N2608 1.427 . S
C2605 H2595 0.929 . S
C2605 C2603 1.433 . S
C2605 N2608 1.384 . S
C2606 H2597 0.929 . S
C2606 C2598 1.378 . S
C2606 C2601 1.350 . S
C2607 H2594 0.929 . S
C2607 C2599 1.433 . S
C2607 N2609 1.384 . S
N2608 C2604 1.427 . S
N2608 C2605 1.384 . S
N2609 C2601 1.427 . S
N2609 C2607 1.384 . S
H2610 C2616 0.930 . S
H2611 C2620 0.930 . S
H2612 C2625 0.929 . S
H2613 C2623 0.929 . S
H2614 C2618 0.929 . S
H2615 C2624 0.929 . S
C2616 H2610 0.930 . S
C2616 C2617 1.367 . S
C2616 C2624 1.378 . S
C2617 C2616 1.367 . S
C2617 C2625 1.433 . S
C2618 H2614 0.929 . S
C2618 C2620 1.378 . S
C2618 C2622 1.350 . S
C2619 C2622 1.463 . S
C2619 C2624 1.350 . S
C2619 N2627 1.427 . S
C2620 H2611 0.930 . S
C2620 C2618 1.378 . S
C2620 C2621 1.367 . S
C2621 C2620 1.367 . S
C2621 C2623 1.433 . S
C2622 C2618 1.350 . S
C2622 C2619 1.463 . S
C2622 N2626 1.427 . S
C2623 H2613 0.929 . S
C2623 C2621 1.433 . S
C2623 N2626 1.384 . S
C2624 H2615 0.929 . S
C2624 C2616 1.378 . S
C2624 C2619 1.350 . S
C2625 H2612 0.929 . S
C2625 C2617 1.433 . S
C2625 N2627 1.384 . S
N2626 C2622 1.427 . S
N2626 C2623 1.384 . S
N2627 C2619 1.427 . S
N2627 C2625 1.384 . S
H2628 C2634 0.930 . S
H2629 C2638 0.930 . S
H2630 C2643 0.929 . S
H2631 C2641 0.929 . S
H2632 C2636 0.929 . S
H2633 C2642 0.929 . S
C2634 H2628 0.930 . S
C2634 C2635 1.367 . S
C2634 C2642 1.378 . S
C2635 C2634 1.367 . S
C2635 C2643 1.433 . S
C2636 H2632 0.929 . S
C2636 C2638 1.378 . S
C2636 C2640 1.350 . S
C2637 C2640 1.463 . S
C2637 C2642 1.350 . S
C2637 N2645 1.427 . S
C2638 H2629 0.930 . S
C2638 C2636 1.378 . S
C2638 C2639 1.367 . S
C2639 C2638 1.367 . S
C2639 C2641 1.433 . S
C2640 C2636 1.350 . S
C2640 C2637 1.463 . S
C2640 N2644 1.427 . S
C2641 H2631 0.929 . S
C2641 C2639 1.433 . S
C2641 N2644 1.384 . S
C2642 H2633 0.929 . S
C2642 C2634 1.378 . S
C2642 C2637 1.350 . S
C2643 H2630 0.929 . S
C2643 C2635 1.433 . S
C2643 N2645 1.384 . S
N2644 C2640 1.427 . S
N2644 C2641 1.384 . S
N2645 C2637 1.427 . S
N2645 C2643 1.384 . S
H2646 C2652 0.930 . S
H2647 C2656 0.930 . S
H2648 C2661 0.929 . S
H2649 C2659 0.929 . S
H2650 C2654 0.929 . S
H2651 C2660 0.929 . S
C2652 H2646 0.930 . S
C2652 C2653 1.367 . S
C2652 C2660 1.378 . S
C2653 C2652 1.367 . S
C2653 C2661 1.433 . S
C2654 H2650 0.929 . S
C2654 C2656 1.378 . S
C2654 C2658 1.350 . S
C2655 C2658 1.463 . S
C2655 C2660 1.350 . S
C2655 N2663 1.427 . S
C2656 H2647 0.930 . S
C2656 C2654 1.378 . S
C2656 C2657 1.367 . S
C2657 C2656 1.367 . S
C2657 C2659 1.433 . S
C2658 C2654 1.350 . S
C2658 C2655 1.463 . S
C2658 N2662 1.427 . S
C2659 H2649 0.929 . S
C2659 C2657 1.433 . S
C2659 N2662 1.384 . S
C2660 H2651 0.929 . S
C2660 C2652 1.378 . S
C2660 C2655 1.350 . S
C2661 H2648 0.929 . S
C2661 C2653 1.433 . S
C2661 N2663 1.384 . S
N2662 C2658 1.427 . S
N2662 C2659 1.384 . S
N2663 C2655 1.427 . S
N2663 C2661 1.384 . S
H2664 C2670 0.930 . S
H2665 C2674 0.930 . S
H2666 C2679 0.929 . S
H2667 C2677 0.929 . S
H2668 C2672 0.929 . S
H2669 C2678 0.929 . S
C2670 H2664 0.930 . S
C2670 C2671 1.367 . S
C2670 C2678 1.378 . S
C2671 C2670 1.367 . S
C2671 C2679 1.433 . S
C2672 H2668 0.929 . S
C2672 C2674 1.378 . S
C2672 C2676 1.350 . S
C2673 C2676 1.463 . S
C2673 C2678 1.350 . S
C2673 N2681 1.427 . S
C2674 H2665 0.930 . S
C2674 C2672 1.378 . S
C2674 C2675 1.367 . S
C2675 C2674 1.367 . S
C2675 C2677 1.433 . S
C2676 C2672 1.350 . S
C2676 C2673 1.463 . S
C2676 N2680 1.427 . S
C2677 H2667 0.929 . S
C2677 C2675 1.433 . S
C2677 N2680 1.384 . S
C2678 H2669 0.929 . S
C2678 C2670 1.378 . S
C2678 C2673 1.350 . S
C2679 H2666 0.929 . S
C2679 C2671 1.433 . S
C2679 N2681 1.384 . S
N2680 C2676 1.427 . S
N2680 C2677 1.384 . S
N2681 C2673 1.427 . S
N2681 C2679 1.384 . S
H2682 C2688 0.930 . S
H2683 C2692 0.930 . S
H2684 C2697 0.929 . S
H2685 C2695 0.929 . S
H2686 C2690 0.929 . S
H2687 C2696 0.929 . S
C2688 H2682 0.930 . S
C2688 C2689 1.367 . S
C2688 C2696 1.378 . S
C2689 C2688 1.367 . S
C2689 C2697 1.433 . S
C2690 H2686 0.929 . S
C2690 C2692 1.378 . S
C2690 C2694 1.350 . S
C2691 C2694 1.463 . S
C2691 C2696 1.350 . S
C2691 N2699 1.427 . S
C2692 H2683 0.930 . S
C2692 C2690 1.378 . S
C2692 C2693 1.367 . S
C2693 C2692 1.367 . S
C2693 C2695 1.433 . S
C2694 C2690 1.350 . S
C2694 C2691 1.463 . S
C2694 N2698 1.427 . S
C2695 H2685 0.929 . S
C2695 C2693 1.433 . S
C2695 N2698 1.384 . S
C2696 H2687 0.929 . S
C2696 C2688 1.378 . S
C2696 C2691 1.350 . S
C2697 H2684 0.929 . S
C2697 C2689 1.433 . S
C2697 N2699 1.384 . S
N2698 C2694 1.427 . S
N2698 C2695 1.384 . S
N2699 C2691 1.427 . S
N2699 C2697 1.384 . S
H2700 C2706 0.930 . S
H2701 C2710 0.930 . S
H2702 C2715 0.929 . S
H2703 C2713 0.929 . S
H2704 C2708 0.929 . S
H2705 C2714 0.929 . S
C2706 H2700 0.930 . S
C2706 C2707 1.367 . S
C2706 C2714 1.378 . S
C2707 C2706 1.367 . S
C2707 C2715 1.433 . S
C2708 H2704 0.929 . S
C2708 C2710 1.378 . S
C2708 C2712 1.350 . S
C2709 C2712 1.463 . S
C2709 C2714 1.350 . S
C2709 N2717 1.427 . S
C2710 H2701 0.930 . S
C2710 C2708 1.378 . S
C2710 C2711 1.367 . S
C2711 C2710 1.367 . S
C2711 C2713 1.433 . S
C2712 C2708 1.350 . S
C2712 C2709 1.463 . S
C2712 N2716 1.427 . S
C2713 H2703 0.929 . S
C2713 C2711 1.433 . S
C2713 N2716 1.384 . S
C2714 H2705 0.929 . S
C2714 C2706 1.378 . S
C2714 C2709 1.350 . S
C2715 H2702 0.929 . S
C2715 C2707 1.433 . S
C2715 N2717 1.384 . S
N2716 C2712 1.427 . S
N2716 C2713 1.384 . S
N2717 C2709 1.427 . S
N2717 C2715 1.384 . S
H2718 C2724 0.930 1_545 S
H2719 C2728 0.930 . S
H2720 C2733 0.929 . S
H2721 C2731 0.929 . S
H2722 C2726 0.929 . S
H2723 C2732 0.929 1_545 S
C2724 H2718 0.930 1_565 S
C2724 C2725 1.367 . S
C2724 C2732 1.378 . S
C2725 C2724 1.367 . S
C2725 C2733 1.433 . S
C2726 H2722 0.929 . S
C2726 C2728 1.378 . S
C2726 C2730 1.350 . S
C2727 C2730 1.463 . S
C2727 C2732 1.350 . S
C2727 N2735 1.427 . S
C2728 H2719 0.930 . S
C2728 C2726 1.378 . S
C2728 C2729 1.367 . S
C2729 C2728 1.367 . S
C2729 C2731 1.433 1_565 S
C2730 C2726 1.350 . S
C2730 C2727 1.463 . S
C2730 N2734 1.427 1_565 S
C2731 H2721 0.929 . S
C2731 C2729 1.433 1_545 S
C2731 N2734 1.384 . S
C2732 H2723 0.929 1_565 S
C2732 C2724 1.378 . S
C2732 C2727 1.350 . S
C2733 H2720 0.929 . S
C2733 C2725 1.433 . S
C2733 N2735 1.384 . S
N2734 C2730 1.427 1_545 S
N2734 C2731 1.384 . S
N2735 C2727 1.427 . S
N2735 C2733 1.384 . S
H2736 C2742 0.930 . S
H2737 C2746 0.930 . S
H2738 C2751 0.929 1_545 S
H2739 C2749 0.929 . S
H2740 C2744 0.929 . S
H2741 C2750 0.929 . S
C2742 H2736 0.930 . S
C2742 C2743 1.367 . S
C2742 C2750 1.378 . S
C2743 C2742 1.367 . S
C2743 C2751 1.433 . S
C2744 H2740 0.929 . S
C2744 C2746 1.378 . S
C2744 C2748 1.350 1_545 S
C2745 C2748 1.463 . S
C2745 C2750 1.350 . S
C2745 N2753 1.427 . S
C2746 H2737 0.930 . S
C2746 C2744 1.378 . S
C2746 C2747 1.367 1_545 S
C2747 C2746 1.367 1_565 S
C2747 C2749 1.433 . S
C2748 C2744 1.350 1_565 S
C2748 C2745 1.463 . S
C2748 N2752 1.427 . S
C2749 H2739 0.929 . S
C2749 C2747 1.433 . S
C2749 N2752 1.384 . S
C2750 H2741 0.929 . S
C2750 C2742 1.378 . S
C2750 C2745 1.350 . S
C2751 H2738 0.929 1_565 S
C2751 C2743 1.433 . S
C2751 N2753 1.384 . S
N2752 C2748 1.427 . S
N2752 C2749 1.384 . S
N2753 C2745 1.427 . S
N2753 C2751 1.384 . S
H2754 C2760 0.930 . S
H2755 C2764 0.930 . S
H2756 C2769 0.929 . S
H2757 C2767 0.929 . S
H2758 C2762 0.929 . S
H2759 C2768 0.929 . S
C2760 H2754 0.930 . S
C2760 C2761 1.367 . S
C2760 C2768 1.378 . S
C2761 C2760 1.367 . S
C2761 C2769 1.433 . S
C2762 H2758 0.929 . S
C2762 C2764 1.378 . S
C2762 C2766 1.350 . S
C2763 C2766 1.463 . S
C2763 C2768 1.350 . S
C2763 N2771 1.427 . S
C2764 H2755 0.930 . S
C2764 C2762 1.378 . S
C2764 C2765 1.367 . S
C2765 C2764 1.367 . S
C2765 C2767 1.433 . S
C2766 C2762 1.350 . S
C2766 C2763 1.463 . S
C2766 N2770 1.427 . S
C2767 H2757 0.929 . S
C2767 C2765 1.433 . S
C2767 N2770 1.384 . S
C2768 H2759 0.929 . S
C2768 C2760 1.378 . S
C2768 C2763 1.350 . S
C2769 H2756 0.929 . S
C2769 C2761 1.433 . S
C2769 N2771 1.384 . S
N2770 C2766 1.427 . S
N2770 C2767 1.384 . S
N2771 C2763 1.427 . S
N2771 C2769 1.384 . S
H2772 C2778 0.930 . S
H2773 C2782 0.930 . S
H2774 C2787 0.929 . S
H2775 C2785 0.929 . S
H2776 C2780 0.929 . S
H2777 C2786 0.929 . S
C2778 H2772 0.930 . S
C2778 C2779 1.367 . S
C2778 C2786 1.378 . S
C2779 C2778 1.367 . S
C2779 C2787 1.433 . S
C2780 H2776 0.929 . S
C2780 C2782 1.378 . S
C2780 C2784 1.350 . S
C2781 C2784 1.463 . S
C2781 C2786 1.350 . S
C2781 N2789 1.427 . S
C2782 H2773 0.930 . S
C2782 C2780 1.378 . S
C2782 C2783 1.367 . S
C2783 C2782 1.367 . S
C2783 C2785 1.433 . S
C2784 C2780 1.350 . S
C2784 C2781 1.463 . S
C2784 N2788 1.427 . S
C2785 H2775 0.929 . S
C2785 C2783 1.433 . S
C2785 N2788 1.384 . S
C2786 H2777 0.929 . S
C2786 C2778 1.378 . S
C2786 C2781 1.350 . S
C2787 H2774 0.929 . S
C2787 C2779 1.433 . S
C2787 N2789 1.384 . S
N2788 C2784 1.427 . S
N2788 C2785 1.384 . S
N2789 C2781 1.427 . S
N2789 C2787 1.384 . S
H2790 C2796 0.930 . S
H2791 C2800 0.930 . S
H2792 C2805 0.929 . S
H2793 C2803 0.929 . S
H2794 C2798 0.929 . S
H2795 C2804 0.929 . S
C2796 H2790 0.930 . S
C2796 C2797 1.367 . S
C2796 C2804 1.378 . S
C2797 C2796 1.367 . S
C2797 C2805 1.433 . S
C2798 H2794 0.929 . S
C2798 C2800 1.378 . S
C2798 C2802 1.350 . S
C2799 C2802 1.463 . S
C2799 C2804 1.350 . S
C2799 N2807 1.427 . S
C2800 H2791 0.930 . S
C2800 C2798 1.378 . S
C2800 C2801 1.367 . S
C2801 C2800 1.367 . S
C2801 C2803 1.433 . S
C2802 C2798 1.350 . S
C2802 C2799 1.463 . S
C2802 N2806 1.427 . S
C2803 H2793 0.929 . S
C2803 C2801 1.433 . S
C2803 N2806 1.384 . S
C2804 H2795 0.929 . S
C2804 C2796 1.378 . S
C2804 C2799 1.350 . S
C2805 H2792 0.929 . S
C2805 C2797 1.433 . S
C2805 N2807 1.384 . S
N2806 C2802 1.427 . S
N2806 C2803 1.384 . S
N2807 C2799 1.427 . S
N2807 C2805 1.384 . S
H2808 C2814 0.930 . S
H2809 C2818 0.930 . S
H2810 C2823 0.929 . S
H2811 C2821 0.929 . S
H2812 C2816 0.929 . S
H2813 C2822 0.929 . S
C2814 H2808 0.930 . S
C2814 C2815 1.367 . S
C2814 C2822 1.378 . S
C2815 C2814 1.367 . S
C2815 C2823 1.433 . S
C2816 H2812 0.929 . S
C2816 C2818 1.378 . S
C2816 C2820 1.350 . S
C2817 C2820 1.463 . S
C2817 C2822 1.350 . S
C2817 N2825 1.427 . S
C2818 H2809 0.930 . S
C2818 C2816 1.378 . S
C2818 C2819 1.367 . S
C2819 C2818 1.367 . S
C2819 C2821 1.433 . S
C2820 C2816 1.350 . S
C2820 C2817 1.463 . S
C2820 N2824 1.427 . S
C2821 H2811 0.929 . S
C2821 C2819 1.433 . S
C2821 N2824 1.384 . S
C2822 H2813 0.929 . S
C2822 C2814 1.378 . S
C2822 C2817 1.350 . S
C2823 H2810 0.929 . S
C2823 C2815 1.433 . S
C2823 N2825 1.384 . S
N2824 C2820 1.427 . S
N2824 C2821 1.384 . S
N2825 C2817 1.427 . S
N2825 C2823 1.384 . S
H2826 C2832 0.930 . S
H2827 C2836 0.930 . S
H2828 C2841 0.929 . S
H2829 C2839 0.929 . S
H2830 C2834 0.929 . S
H2831 C2840 0.929 . S
C2832 H2826 0.930 . S
C2832 C2833 1.367 . S
C2832 C2840 1.378 . S
C2833 C2832 1.367 . S
C2833 C2841 1.433 . S
C2834 H2830 0.929 . S
C2834 C2836 1.378 . S
C2834 C2838 1.350 . S
C2835 C2838 1.463 . S
C2835 C2840 1.350 . S
C2835 N2843 1.427 . S
C2836 H2827 0.930 . S
C2836 C2834 1.378 . S
C2836 C2837 1.367 . S
C2837 C2836 1.367 . S
C2837 C2839 1.433 . S
C2838 C2834 1.350 . S
C2838 C2835 1.463 . S
C2838 N2842 1.427 . S
C2839 H2829 0.929 . S
C2839 C2837 1.433 . S
C2839 N2842 1.384 . S
C2840 H2831 0.929 . S
C2840 C2832 1.378 . S
C2840 C2835 1.350 . S
C2841 H2828 0.929 . S
C2841 C2833 1.433 . S
C2841 N2843 1.384 . S
N2842 C2838 1.427 . S
N2842 C2839 1.384 . S
N2843 C2835 1.427 . S
N2843 C2841 1.384 . S
H2844 C2850 0.930 . S
H2845 C2854 0.930 . S
H2846 C2859 0.929 . S
H2847 C2857 0.929 . S
H2848 C2852 0.941 . S
H2849 C2858 0.929 . S
C2850 H2844 0.930 . S
C2850 C2851 1.367 . S
C2850 C2858 1.378 . S
C2851 C2850 1.367 . S
C2851 C2859 1.433 . S
C2852 H2848 0.941 . S
C2852 C2854 1.413 . S
C2852 C2856 1.305 1_565 S
C2853 C2856 1.463 . S
C2853 C2858 1.350 . S
C2853 N2861 1.427 . S
C2854 H2845 0.930 . S
C2854 C2852 1.413 . S
C2854 C2855 1.367 1_565 S
C2855 C2854 1.367 1_545 S
C2855 C2857 1.433 . S
C2856 C2852 1.305 1_545 S
C2856 C2853 1.463 . S
C2856 N2860 1.427 . S
C2857 H2847 0.929 . S
C2857 C2855 1.433 . S
C2857 N2860 1.384 . S
C2858 H2849 0.929 . S
C2858 C2850 1.378 . S
C2858 C2853 1.350 . S
C2859 H2846 0.929 . S
C2859 C2851 1.433 . S
C2859 N2861 1.384 . S
N2860 C2856 1.427 . S
N2860 C2857 1.384 . S
N2861 C2853 1.427 . S
N2861 C2859 1.384 . S
H2862 C2868 0.930 . S
H2863 C2872 0.930 . S
H2864 C2877 0.929 . S
H2865 C2875 0.929 . S
H2866 C2870 0.929 1_455 S
H2867 C2876 0.929 . S
C2868 H2862 0.930 . S
C2868 C2869 1.367 . S
C2868 C2876 1.378 . S
C2869 C2868 1.367 . S
C2869 C2877 1.433 . S
C2870 H2866 0.929 1_655 S
C2870 C2872 1.378 1_655 S
C2870 C2874 1.350 . S
C2871 C2874 1.463 . S
C2871 C2876 1.350 . S
C2871 N2879 1.427 . S
C2872 H2863 0.930 . S
C2872 C2870 1.378 1_455 S
C2872 C2873 1.367 1_455 S
C2873 C2872 1.367 1_655 S
C2873 C2875 1.433 . S
C2874 C2870 1.350 . S
C2874 C2871 1.463 . S
C2874 N2878 1.427 . S
C2875 H2865 0.929 . S
C2875 C2873 1.433 . S
C2875 N2878 1.384 . S
C2876 H2867 0.929 . S
C2876 C2868 1.378 . S
C2876 C2871 1.350 . S
C2877 H2864 0.929 . S
C2877 C2869 1.433 . S
C2877 N2879 1.384 . S
N2878 C2874 1.427 . S
N2878 C2875 1.384 . S
N2879 C2871 1.427 . S
N2879 C2877 1.384 . S
H2880 C2886 0.930 . S
H2881 C2890 0.930 . S
H2882 C2895 0.929 . S
H2883 C2893 0.929 . S
H2884 C2888 0.929 . S
H2885 C2894 0.929 . S
C2886 H2880 0.930 . S
C2886 C2887 1.367 . S
C2886 C2894 1.378 . S
C2887 C2886 1.367 . S
C2887 C2895 1.433 . S
C2888 H2884 0.929 . S
C2888 C2890 1.378 . S
C2888 C2892 1.350 . S
C2889 C2892 1.463 . S
C2889 C2894 1.350 . S
C2889 N2897 1.427 . S
C2890 H2881 0.930 . S
C2890 C2888 1.378 . S
C2890 C2891 1.367 . S
C2891 C2890 1.367 . S
C2891 C2893 1.433 . S
C2892 C2888 1.350 . S
C2892 C2889 1.463 . S
C2892 N2896 1.427 . S
C2893 H2883 0.929 . S
C2893 C2891 1.433 . S
C2893 N2896 1.384 . S
C2894 H2885 0.929 . S
C2894 C2886 1.378 . S
C2894 C2889 1.350 . S
C2895 H2882 0.929 . S
C2895 C2887 1.433 . S
C2895 N2897 1.384 . S
N2896 C2892 1.427 . S
N2896 C2893 1.384 . S
N2897 C2889 1.427 . S
N2897 C2895 1.384 . S
H2898 C2904 0.930 . S
H2899 C2908 0.930 . S
H2900 C2913 0.929 . S
H2901 C2911 0.929 . S
H2902 C2906 0.929 . S
H2903 C2912 0.929 . S
C2904 H2898 0.930 . S
C2904 C2905 1.367 . S
C2904 C2912 1.378 . S
C2905 C2904 1.367 . S
C2905 C2913 1.433 . S
C2906 H2902 0.929 . S
C2906 C2908 1.378 . S
C2906 C2910 1.350 . S
C2907 C2910 1.463 . S
C2907 C2912 1.350 . S
C2907 N2915 1.427 . S
C2908 H2899 0.930 . S
C2908 C2906 1.378 . S
C2908 C2909 1.367 . S
C2909 C2908 1.367 . S
C2909 C2911 1.433 . S
C2910 C2906 1.350 . S
C2910 C2907 1.463 . S
C2910 N2914 1.427 . S
C2911 H2901 0.929 . S
C2911 C2909 1.433 . S
C2911 N2914 1.384 . S
C2912 H2903 0.929 . S
C2912 C2904 1.378 . S
C2912 C2907 1.350 . S
C2913 H2900 0.929 . S
C2913 C2905 1.433 . S
C2913 N2915 1.384 . S
N2914 C2910 1.427 . S
N2914 C2911 1.384 . S
N2915 C2907 1.427 . S
N2915 C2913 1.384 . S
H2916 C2922 0.930 . S
H2917 C2926 0.930 . S
H2918 C2931 0.929 . S
H2919 C2929 0.929 . S
H2920 C2924 0.929 . S
H2921 C2930 0.929 . S
C2922 H2916 0.930 . S
C2922 C2923 1.367 . S
C2922 C2930 1.378 . S
C2923 C2922 1.367 . S
C2923 C2931 1.433 . S
C2924 H2920 0.929 . S
C2924 C2926 1.378 . S
C2924 C2928 1.350 . S
C2925 C2928 1.463 . S
C2925 C2930 1.350 . S
C2925 N2933 1.427 . S
C2926 H2917 0.930 . S
C2926 C2924 1.378 . S
C2926 C2927 1.367 . S
C2927 C2926 1.367 . S
C2927 C2929 1.433 . S
C2928 C2924 1.350 . S
C2928 C2925 1.463 . S
C2928 N2932 1.427 . S
C2929 H2919 0.929 . S
C2929 C2927 1.433 . S
C2929 N2932 1.384 . S
C2930 H2921 0.929 . S
C2930 C2922 1.378 . S
C2930 C2925 1.350 . S
C2931 H2918 0.929 . S
C2931 C2923 1.433 . S
C2931 N2933 1.384 . S
N2932 C2928 1.427 . S
N2932 C2929 1.384 . S
N2933 C2925 1.427 . S
N2933 C2931 1.384 . S
H2934 C2940 0.930 . S
H2935 C2944 0.930 . S
H2936 C2949 0.929 . S
H2937 C2947 0.929 . S
H2938 C2942 0.929 . S
H2939 C2948 0.929 . S
C2940 H2934 0.930 . S
C2940 C2941 1.367 . S
C2940 C2948 1.378 . S
C2941 C2940 1.367 . S
C2941 C2949 1.433 . S
C2942 H2938 0.929 . S
C2942 C2944 1.378 . S
C2942 C2946 1.350 . S
C2943 C2946 1.463 . S
C2943 C2948 1.350 . S
C2943 N2951 1.427 . S
C2944 H2935 0.930 . S
C2944 C2942 1.378 . S
C2944 C2945 1.367 . S
C2945 C2944 1.367 . S
C2945 C2947 1.433 . S
C2946 C2942 1.350 . S
C2946 C2943 1.463 . S
C2946 N2950 1.427 . S
C2947 H2937 0.929 . S
C2947 C2945 1.433 . S
C2947 N2950 1.384 . S
C2948 H2939 0.929 . S
C2948 C2940 1.378 . S
C2948 C2943 1.350 . S
C2949 H2936 0.929 . S
C2949 C2941 1.433 . S
C2949 N2951 1.384 . S
N2950 C2946 1.427 . S
N2950 C2947 1.384 . S
N2951 C2943 1.427 . S
N2951 C2949 1.384 . S
H2952 C2958 0.930 . S
H2953 C2962 0.930 . S
H2954 C2967 0.929 . S
H2955 C2965 0.929 . S
H2956 C2960 0.929 . S
H2957 C2966 0.929 . S
C2958 H2952 0.930 . S
C2958 C2959 1.367 . S
C2958 C2966 1.378 . S
C2959 C2958 1.367 . S
C2959 C2967 1.433 . S
C2960 H2956 0.929 . S
C2960 C2962 1.378 . S
C2960 C2964 1.350 . S
C2961 C2964 1.463 . S
C2961 C2966 1.350 . S
C2961 N2969 1.427 . S
C2962 H2953 0.930 . S
C2962 C2960 1.378 . S
C2962 C2963 1.367 . S
C2963 C2962 1.367 . S
C2963 C2965 1.433 . S
C2964 C2960 1.350 . S
C2964 C2961 1.463 . S
C2964 N2968 1.427 . S
C2965 H2955 0.929 . S
C2965 C2963 1.433 . S
C2965 N2968 1.384 . S
C2966 H2957 0.929 . S
C2966 C2958 1.378 . S
C2966 C2961 1.350 . S
C2967 H2954 0.929 . S
C2967 C2959 1.433 . S
C2967 N2969 1.384 . S
N2968 C2964 1.427 . S
N2968 C2965 1.384 . S
N2969 C2961 1.427 . S
N2969 C2967 1.384 . S
H2970 C2976 0.930 . S
H2971 C2980 0.930 . S
H2972 C2985 0.929 . S
H2973 C2983 0.929 . S
H2974 C2978 0.929 . S
H2975 C2984 0.929 . S
C2976 H2970 0.930 . S
C2976 C2977 1.367 . S
C2976 C2984 1.378 . S
C2977 C2976 1.367 . S
C2977 C2985 1.433 . S
C2978 H2974 0.929 . S
C2978 C2980 1.378 . S
C2978 C2982 1.350 . S
C2979 C2982 1.463 . S
C2979 C2984 1.350 . S
C2979 N2987 1.427 . S
C2980 H2971 0.930 . S
C2980 C2978 1.378 . S
C2980 C2981 1.367 . S
C2981 C2980 1.367 . S
C2981 C2983 1.433 . S
C2982 C2978 1.350 . S
C2982 C2979 1.463 . S
C2982 N2986 1.427 . S
C2983 H2973 0.929 . S
C2983 C2981 1.433 . S
C2983 N2986 1.384 . S
C2984 H2975 0.929 . S
C2984 C2976 1.378 . S
C2984 C2979 1.350 . S
C2985 H2972 0.929 . S
C2985 C2977 1.433 . S
C2985 N2987 1.384 . S
N2986 C2982 1.427 . S
N2986 C2983 1.384 . S
N2987 C2979 1.427 . S
N2987 C2985 1.384 . S
H2988 C2994 0.930 . S
H2989 C2998 0.930 . S
H2990 C3003 0.929 . S
H2991 C3001 0.929 . S
H2992 C2996 0.929 . S
H2993 C3002 0.929 . S
C2994 H2988 0.930 . S
C2994 C2995 1.367 . S
C2994 C3002 1.378 . S
C2995 C2994 1.367 . S
C2995 C3003 1.433 . S
C2996 H2992 0.929 . S
C2996 C2998 1.378 . S
C2996 C3000 1.350 . S
C2997 C3000 1.463 . S
C2997 C3002 1.350 . S
C2997 N3005 1.427 . S
C2998 H2989 0.930 . S
C2998 C2996 1.378 . S
C2998 C2999 1.367 . S
C2999 C2998 1.367 . S
C2999 C3001 1.433 . S
C3000 C2996 1.350 . S
C3000 C2997 1.463 . S
C3000 N3004 1.427 . S
C3001 H2991 0.929 . S
C3001 C2999 1.433 . S
C3001 N3004 1.384 . S
C3002 H2993 0.929 . S
C3002 C2994 1.378 . S
C3002 C2997 1.350 . S
C3003 H2990 0.929 . S
C3003 C2995 1.433 . S
C3003 N3005 1.384 . S
N3004 C3000 1.427 . S
N3004 C3001 1.384 . S
N3005 C2997 1.427 . S
N3005 C3003 1.384 . S
H3006 C3012 0.930 . S
H3007 C3016 0.930 . S
H3008 C3021 0.929 . S
H3009 C3019 0.929 . S
H3010 C3014 0.929 . S
H3011 C3020 0.929 1_455 S
C3012 H3006 0.930 . S
C3012 C3013 1.367 . S
C3012 C3020 1.378 . S
C3013 C3012 1.367 . S
C3013 C3021 1.433 . S
C3014 H3010 0.929 . S
C3014 C3016 1.378 . S
C3014 C3018 1.350 . S
C3015 C3018 1.463 . S
C3015 C3020 1.350 . S
C3015 N3023 1.427 . S
C3016 H3007 0.930 . S
C3016 C3014 1.378 . S
C3016 C3017 1.367 . S
C3017 C3016 1.367 . S
C3017 C3019 1.433 1_655 S
C3018 C3014 1.350 . S
C3018 C3015 1.463 . S
C3018 N3022 1.434 1_655 S
C3019 H3009 0.929 . S
C3019 C3017 1.433 1_455 S
C3019 N3022 1.378 . S
C3020 H3011 0.929 1_655 S
C3020 C3012 1.378 . S
C3020 C3015 1.350 . S
C3021 H3008 0.929 . S
C3021 C3013 1.433 . S
C3021 N3023 1.384 . S
N3022 C3018 1.434 1_455 S
N3022 C3019 1.378 . S
N3023 C3015 1.427 . S
N3023 C3021 1.384 . S
H3024 C3030 0.930 . S
H3025 C3034 0.930 . S
H3026 C3039 0.929 . S
H3027 C3037 0.929 . S
H3028 C3032 0.929 . S
H3029 C3038 0.929 . S
C3030 H3024 0.930 . S
C3030 C3031 1.367 . S
C3030 C3038 1.378 . S
C3031 C3030 1.367 . S
C3031 C3039 1.433 . S
C3032 H3028 0.929 . S
C3032 C3034 1.378 . S
C3032 C3036 1.350 . S
C3033 C3036 1.463 . S
C3033 C3038 1.350 . S
C3033 N3041 1.427 . S
C3034 H3025 0.930 . S
C3034 C3032 1.378 . S
C3034 C3035 1.367 . S
C3035 C3034 1.367 . S
C3035 C3037 1.433 . S
C3036 C3032 1.350 . S
C3036 C3033 1.463 . S
C3036 N3040 1.427 . S
C3037 H3027 0.929 . S
C3037 C3035 1.433 . S
C3037 N3040 1.384 . S
C3038 H3029 0.929 . S
C3038 C3030 1.378 . S
C3038 C3033 1.350 . S
C3039 H3026 0.929 . S
C3039 C3031 1.433 . S
C3039 N3041 1.384 . S
N3040 C3036 1.427 . S
N3040 C3037 1.384 . S
N3041 C3033 1.427 . S
N3041 C3039 1.384 . S
H3042 C3048 0.930 . S
H3043 C3052 0.930 . S
H3044 C3057 0.929 . S
H3045 C3055 0.929 . S
H3046 C3050 0.929 . S
H3047 C3056 0.929 . S
C3048 H3042 0.930 . S
C3048 C3049 1.367 . S
C3048 C3056 1.378 . S
C3049 C3048 1.367 . S
C3049 C3057 1.433 . S
C3050 H3046 0.929 . S
C3050 C3052 1.378 . S
C3050 C3054 1.350 . S
C3051 C3054 1.463 . S
C3051 C3056 1.350 . S
C3051 N3059 1.427 . S
C3052 H3043 0.930 . S
C3052 C3050 1.378 . S
C3052 C3053 1.367 . S
C3053 C3052 1.367 . S
C3053 C3055 1.433 . S
C3054 C3050 1.350 . S
C3054 C3051 1.463 . S
C3054 N3058 1.427 . S
C3055 H3045 0.929 . S
C3055 C3053 1.433 . S
C3055 N3058 1.384 . S
C3056 H3047 0.929 . S
C3056 C3048 1.378 . S
C3056 C3051 1.350 . S
C3057 H3044 0.929 . S
C3057 C3049 1.433 . S
C3057 N3059 1.384 . S
N3058 C3054 1.427 . S
N3058 C3055 1.384 . S
N3059 C3051 1.427 . S
N3059 C3057 1.384 . S
C1771 C4 1.541 1_655 S
C1775 C1253 1.502 . S
C1789 C38 1.741 . S
C1793 C1297 1.706 . S
C1811 C1377 1.517 . S
C1807 C74 1.548 . S
C1825 C76 1.535 . S
C1829 C1421 1.497 . S
C1843 C2 1.642 . S
C1847 C1501 1.599 . S
C1861 C40 1.585 . S
C1865 C1563 1.520 . S
C1879 C110 1.638 . S
C1883 C1483 1.565 . S
C1901 C1545 1.519 . S
C1897 C148 1.584 . S
C1919 C1439 1.604 . S
C1915 C182 1.637 1_565 S
C1933 C184 1.576 . S
C1937 C1359 1.522 . S
C1955 C1235 1.489 . S
C1951 C112 1.530 1_655 S
C1969 C146 1.678 . S
C1973 C1315 1.644 . S
C1987 C220 1.648 . S
C1991 C1625 1.575 . S
C2005 C254 1.789 . S
C2009 C1669 1.743 . S
C2027 C1749 1.603 . S
C2023 C290 1.671 . S
C2041 C292 1.577 . S
C2045 C695 1.514 . S
C2059 C218 1.715 . S
C2063 C739 1.678 . S
C2077 C256 1.598 . S
C2081 C819 1.534 . S
C2095 C326 1.715 . S
C2099 C757 1.673 . S
C2113 C364 1.629 . S
C2117 C801 1.564 . S
C2135 C677 1.650 . S
C2131 C398 1.724 . S
C2153 C1731 1.608 . S
C2149 C400 1.672 . S
C2171 C1607 1.491 . S
C2167 C328 1.558 . S
C2189 C1687 1.691 . S
C2185 C362 1.726 . S
C2203 C436 1.624 . S
C2207 C881 1.556 . S
C2221 C470 1.779 . S
C2225 C943 1.690 . S
C2239 C506 1.675 . S
C2243 C987 1.646 . S
C2257 C508 1.612 . S
C2261 C1049 1.572 . S
C2279 C1111 1.692 . S
C2275 C434 1.724 . S
C2297 C1191 1.548 . S
C2293 C472 1.613 . S
C2315 C1129 1.715 . S
C2311 C542 1.759 . S
C2333 C1173 1.557 . S
C2329 C580 1.633 . S
C2347 C614 1.714 . S
C2351 C1067 1.684 . S
C2369 C1005 1.595 . S
C2365 C616 1.629 . S
C2383 C544 1.568 . S
C2387 C863 1.509 . S
C2405 C925 1.624 . S
C2401 C578 1.703 . S
C2423 C701 1.501 . S
C2419 C14 1.573 . S
C2437 C39 1.546 . S
C2441 C745 1.495 . S
C2459 C825 1.455 . S
C2455 C75 1.540 . S
C2477 C887 1.366 . S
C2473 C86 1.415 . S
C2495 C949 1.496 . S
C2491 C3 1.565 . S
C2513 C993 1.481 . S
C2509 C50 1.519 . S
C2527 C111 1.562 . S
C2531 C1011 1.496 . S
C2545 C158 1.469 . S
C2549 C869 1.420 . S
C2563 C183 1.639 . S
C2567 C931 1.561 . S
C2581 C194 1.539 . S
C2585 C763 1.519 . S
C2603 C807 1.413 . S
C2599 C122 1.465 . S
C2617 C147 1.471 . S
C2621 C683 1.407 . S
C2639 C1055 1.508 . S
C2635 C230 1.550 . S
C2653 C255 1.603 . S
C2657 C1117 1.539 . S
C2671 C291 1.560 . S
C2675 C1197 1.478 . S
C2693 C1259 1.323 . S
C2689 C302 1.356 . S
C2707 C219 1.553 . S
C2711 C1303 1.495 . S
C2725 C266 1.426 . S
C2729 C1383 1.403 . S
C2743 C327 1.415 . S
C2747 C1365 1.344 . S
C2761 C374 1.412 . S
C2765 C1241 1.369 . S
C2783 C1321 1.558 . S
C2779 C399 1.619 . S
C2797 C410 1.542 . S
C2801 C1135 1.523 . S
C2815 C338 1.522 1_545 S
C2819 C1179 1.477 . S
C2837 C1073 1.474 . S
C2833 C363 1.597 . S
C2855 C1427 1.425 . S
C2851 C446 1.436 . S
C2869 C471 1.464 . S
C2873 C1507 1.404 . S
C2887 C507 1.510 . S
C2891 C1569 1.434 . S
C2909 C1631 1.378 . S
C2905 C518 1.437 . S
C2927 C1675 1.547 . S
C2923 C435 1.669 . S
C2941 C482 1.560 1_455 S
C2945 C1755 1.523 . S
C2959 C543 1.530 . S
C2963 C1737 1.447 . S
C2977 C590 1.524 1_565 S
C2981 C1613 1.476 . S
C2999 C1693 1.597 . S
C2995 C615 1.660 . S
C3017 C1489 1.419 . S
C3013 C626 1.425 . S
C3035 C1551 1.427 . S
C3031 C554 1.493 . S
C3049 C579 1.415 . S
C3053 C1445 1.371 . S
