# Generated by pormake.
# Topology ptr, (4,4)-cn, num edge types: 1
# Building blocks:
#     Node 0, Type 0, BuildingBlock: NAHDIM_clean_sbu_0, # of connection points: 4
#     Node 1, Type 0, BuildingBlock: NAHDIM_clean_sbu_0, # of connection points: 4
#     Node 2, Type 0, BuildingBlock: NAHDIM_clean_sbu_0, # of connection points: 4
#     Node 3, Type 0, BuildingBlock: NAHDIM_clean_sbu_0, # of connection points: 4
#     Node 4, Type 0, BuildingBlock: NAHDIM_clean_sbu_0, # of connection points: 4
#     Node 5, Type 0, BuildingBlock: NAHDIM_clean_sbu_0, # of connection points: 4
#     Node 6, Type 0, BuildingBlock: NAHDIM_clean_sbu_0, # of connection points: 4
#     Node 7, Type 0, BuildingBlock: NAHDIM_clean_sbu_0, # of connection points: 4
#     Node 8, Type 0, BuildingBlock: NAHDIM_clean_sbu_0, # of connection points: 4
#     Node 9, Type 0, BuildingBlock: NAHDIM_clean_sbu_0, # of connection points: 4
#     Node 10, Type 0, BuildingBlock: NAHDIM_clean_sbu_0, # of connection points: 4
#     Node 11, Type 0, BuildingBlock: NAHDIM_clean_sbu_0, # of connection points: 4
#     Node 12, Type 0, BuildingBlock: NAHDIM_clean_sbu_0, # of connection points: 4
#     Node 13, Type 0, BuildingBlock: NAHDIM_clean_sbu_0, # of connection points: 4
#     Node 14, Type 0, BuildingBlock: NAHDIM_clean_sbu_0, # of connection points: 4
#     Node 15, Type 0, BuildingBlock: NAHDIM_clean_sbu_0, # of connection points: 4
#     Node 16, Type 0, BuildingBlock: NAHDIM_clean_sbu_0, # of connection points: 4
#     Node 17, Type 0, BuildingBlock: NAHDIM_clean_sbu_0, # of connection points: 4
#     Node 18, Type 1, BuildingBlock: MIFKUJ_clean_linker_1, # of connection points: 4
#     Node 19, Type 1, BuildingBlock: MIFKUJ_clean_linker_1, # of connection points: 4
#     Node 20, Type 1, BuildingBlock: MIFKUJ_clean_linker_1, # of connection points: 4
#     Node 21, Type 1, BuildingBlock: MIFKUJ_clean_linker_1, # of connection points: 4
#     Node 22, Type 1, BuildingBlock: MIFKUJ_clean_linker_1, # of connection points: 4
#     Node 23, Type 1, BuildingBlock: MIFKUJ_clean_linker_1, # of connection points: 4
#     Node 24, Type 1, BuildingBlock: MIFKUJ_clean_linker_1, # of connection points: 4
#     Node 25, Type 1, BuildingBlock: MIFKUJ_clean_linker_1, # of connection points: 4
#     Node 26, Type 1, BuildingBlock: MIFKUJ_clean_linker_1, # of connection points: 4
#     Node 27, Type 1, BuildingBlock: MIFKUJ_clean_linker_1, # of connection points: 4
#     Node 28, Type 1, BuildingBlock: MIFKUJ_clean_linker_1, # of connection points: 4
#     Node 29, Type 1, BuildingBlock: MIFKUJ_clean_linker_1, # of connection points: 4
#     Node 30, Type 1, BuildingBlock: MIFKUJ_clean_linker_1, # of connection points: 4
#     Node 31, Type 1, BuildingBlock: MIFKUJ_clean_linker_1, # of connection points: 4
#     Node 32, Type 1, BuildingBlock: MIFKUJ_clean_linker_1, # of connection points: 4
#     Node 33, Type 1, BuildingBlock: MIFKUJ_clean_linker_1, # of connection points: 4
#     Node 34, Type 1, BuildingBlock: MIFKUJ_clean_linker_1, # of connection points: 4
#     Node 35, Type 1, BuildingBlock: MIFKUJ_clean_linker_1, # of connection points: 4
#     Edge 36, Type (0, 1), BuildingBlock: TEMPAE_clean_linker_10, # of connection points: 2
#     Edge 37, Type (0, 1), BuildingBlock: TEMPAE_clean_linker_10, # of connection points: 2
#     Edge 38, Type (0, 1), BuildingBlock: TEMPAE_clean_linker_10, # of connection points: 2
#     Edge 39, Type (0, 1), BuildingBlock: TEMPAE_clean_linker_10, # of connection points: 2
#     Edge 40, Type (0, 1), BuildingBlock: TEMPAE_clean_linker_10, # of connection points: 2
#     Edge 41, Type (0, 1), BuildingBlock: TEMPAE_clean_linker_10, # of connection points: 2
#     Edge 42, Type (0, 1), BuildingBlock: TEMPAE_clean_linker_10, # of connection points: 2
#     Edge 43, Type (0, 1), BuildingBlock: TEMPAE_clean_linker_10, # of connection points: 2
#     Edge 44, Type (0, 1), BuildingBlock: TEMPAE_clean_linker_10, # of connection points: 2
#     Edge 45, Type (0, 1), BuildingBlock: TEMPAE_clean_linker_10, # of connection points: 2
#     Edge 46, Type (0, 1), BuildingBlock: TEMPAE_clean_linker_10, # of connection points: 2
#     Edge 47, Type (0, 1), BuildingBlock: TEMPAE_clean_linker_10, # of connection points: 2
#     Edge 48, Type (0, 1), BuildingBlock: TEMPAE_clean_linker_10, # of connection points: 2
#     Edge 49, Type (0, 1), BuildingBlock: TEMPAE_clean_linker_10, # of connection points: 2
#     Edge 50, Type (0, 1), BuildingBlock: TEMPAE_clean_linker_10, # of connection points: 2
#     Edge 51, Type (0, 1), BuildingBlock: TEMPAE_clean_linker_10, # of connection points: 2
#     Edge 52, Type (0, 1), BuildingBlock: TEMPAE_clean_linker_10, # of connection points: 2
#     Edge 53, Type (0, 1), BuildingBlock: TEMPAE_clean_linker_10, # of connection points: 2
#     Edge 54, Type (0, 1), BuildingBlock: TEMPAE_clean_linker_10, # of connection points: 2
#     Edge 55, Type (0, 1), BuildingBlock: TEMPAE_clean_linker_10, # of connection points: 2
#     Edge 56, Type (0, 1), BuildingBlock: TEMPAE_clean_linker_10, # of connection points: 2
#     Edge 57, Type (0, 1), BuildingBlock: TEMPAE_clean_linker_10, # of connection points: 2
#     Edge 58, Type (0, 1), BuildingBlock: TEMPAE_clean_linker_10, # of connection points: 2
#     Edge 59, Type (0, 1), BuildingBlock: TEMPAE_clean_linker_10, # of connection points: 2
#     Edge 60, Type (0, 1), BuildingBlock: TEMPAE_clean_linker_10, # of connection points: 2
#     Edge 61, Type (0, 1), BuildingBlock: TEMPAE_clean_linker_10, # of connection points: 2
#     Edge 62, Type (0, 1), BuildingBlock: TEMPAE_clean_linker_10, # of connection points: 2
#     Edge 63, Type (0, 1), BuildingBlock: TEMPAE_clean_linker_10, # of connection points: 2
#     Edge 64, Type (0, 1), BuildingBlock: TEMPAE_clean_linker_10, # of connection points: 2
#     Edge 65, Type (0, 1), BuildingBlock: TEMPAE_clean_linker_10, # of connection points: 2
#     Edge 66, Type (0, 1), BuildingBlock: TEMPAE_clean_linker_10, # of connection points: 2
#     Edge 67, Type (0, 1), BuildingBlock: TEMPAE_clean_linker_10, # of connection points: 2
#     Edge 68, Type (0, 1), BuildingBlock: TEMPAE_clean_linker_10, # of connection points: 2
#     Edge 69, Type (0, 1), BuildingBlock: TEMPAE_clean_linker_10, # of connection points: 2
#     Edge 70, Type (0, 1), BuildingBlock: TEMPAE_clean_linker_10, # of connection points: 2
#     Edge 71, Type (0, 1), BuildingBlock: TEMPAE_clean_linker_10, # of connection points: 2
#     Edge 72, Type (0, 1), BuildingBlock: TEMPAE_clean_linker_10, # of connection points: 2
#     Edge 73, Type (0, 1), BuildingBlock: TEMPAE_clean_linker_10, # of connection points: 2
#     Edge 74, Type (0, 1), BuildingBlock: TEMPAE_clean_linker_10, # of connection points: 2
#     Edge 75, Type (0, 1), BuildingBlock: TEMPAE_clean_linker_10, # of connection points: 2
#     Edge 76, Type (0, 1), BuildingBlock: TEMPAE_clean_linker_10, # of connection points: 2
#     Edge 77, Type (0, 1), BuildingBlock: TEMPAE_clean_linker_10, # of connection points: 2
#     Edge 78, Type (0, 1), BuildingBlock: TEMPAE_clean_linker_10, # of connection points: 2
#     Edge 79, Type (0, 1), BuildingBlock: TEMPAE_clean_linker_10, # of connection points: 2
#     Edge 80, Type (0, 1), BuildingBlock: TEMPAE_clean_linker_10, # of connection points: 2
#     Edge 81, Type (0, 1), BuildingBlock: TEMPAE_clean_linker_10, # of connection points: 2
#     Edge 82, Type (0, 1), BuildingBlock: TEMPAE_clean_linker_10, # of connection points: 2
#     Edge 83, Type (0, 1), BuildingBlock: TEMPAE_clean_linker_10, # of connection points: 2
#     Edge 84, Type (0, 1), BuildingBlock: TEMPAE_clean_linker_10, # of connection points: 2
#     Edge 85, Type (0, 1), BuildingBlock: TEMPAE_clean_linker_10, # of connection points: 2
#     Edge 86, Type (0, 1), BuildingBlock: TEMPAE_clean_linker_10, # of connection points: 2
#     Edge 87, Type (0, 1), BuildingBlock: TEMPAE_clean_linker_10, # of connection points: 2
#     Edge 88, Type (0, 1), BuildingBlock: TEMPAE_clean_linker_10, # of connection points: 2
#     Edge 89, Type (0, 1), BuildingBlock: TEMPAE_clean_linker_10, # of connection points: 2
#     Edge 90, Type (0, 1), BuildingBlock: TEMPAE_clean_linker_10, # of connection points: 2
#     Edge 91, Type (0, 1), BuildingBlock: TEMPAE_clean_linker_10, # of connection points: 2
#     Edge 92, Type (0, 1), BuildingBlock: TEMPAE_clean_linker_10, # of connection points: 2
#     Edge 93, Type (0, 1), BuildingBlock: TEMPAE_clean_linker_10, # of connection points: 2
#     Edge 94, Type (0, 1), BuildingBlock: TEMPAE_clean_linker_10, # of connection points: 2
#     Edge 95, Type (0, 1), BuildingBlock: TEMPAE_clean_linker_10, # of connection points: 2
#     Edge 96, Type (0, 1), BuildingBlock: TEMPAE_clean_linker_10, # of connection points: 2
#     Edge 97, Type (0, 1), BuildingBlock: TEMPAE_clean_linker_10, # of connection points: 2
#     Edge 98, Type (0, 1), BuildingBlock: TEMPAE_clean_linker_10, # of connection points: 2
#     Edge 99, Type (0, 1), BuildingBlock: TEMPAE_clean_linker_10, # of connection points: 2
#     Edge 100, Type (0, 1), BuildingBlock: TEMPAE_clean_linker_10, # of connection points: 2
#     Edge 101, Type (0, 1), BuildingBlock: TEMPAE_clean_linker_10, # of connection points: 2
#     Edge 102, Type (0, 1), BuildingBlock: TEMPAE_clean_linker_10, # of connection points: 2
#     Edge 103, Type (0, 1), BuildingBlock: TEMPAE_clean_linker_10, # of connection points: 2
#     Edge 104, Type (0, 1), BuildingBlock: TEMPAE_clean_linker_10, # of connection points: 2
#     Edge 105, Type (0, 1), BuildingBlock: TEMPAE_clean_linker_10, # of connection points: 2
#     Edge 106, Type (0, 1), BuildingBlock: TEMPAE_clean_linker_10, # of connection points: 2
#     Edge 107, Type (0, 1), BuildingBlock: TEMPAE_clean_linker_10, # of connection points: 2
# Relax obj value: 0.073
# Max RMSD: 0.246
# Mean RMSD: 0.109
data_MOF--net-ptr--node1-NAHDIM_clean_sbu_0--node2-MIFKUJ_clean_linker_1--edge1-TEMPAE_clean_linker_10
_symmetry_space_group_name_H-M    P1
_symmetry_Int_Tables_number       1
_symmetry_cell_setting            triclinic
loop_
_symmetry_equiv_pos_as_xyz
'x, y, z'
_cell_length_a     92.182783
_cell_length_b     90.435605
_cell_length_c     61.114204
_cell_angle_alpha  91.766556
_cell_angle_beta   89.131546
_cell_angle_gamma 121.83441
loop_
_atom_site_label
_atom_site_type_symbol
_atom_site_fract_x
_atom_site_fract_y
_atom_site_fract_z
_atom_type_partial_charge
C0 C 0.02722 0.34805 0.04075 0.0
O1 O 0.01339 0.34463 0.05154 0.0
O2 O 0.99145 0.32915 0.00062 0.0
Zn3 Zn 0.00949 0.35392 0.00858 0.0
O4 O 0.00121 0.3642 0.03176 0.0
C5 C 0.00608 0.36568 0.96689 0.0
O6 O 0.9906 0.35193 0.96843 0.0
O7 O 0.02901 0.35301 0.02113 0.0
C8 C 0.99376 0.37225 0.02742 0.0
O9 O 0.99054 0.37349 0.00694 0.0
C10 C 0.97544 0.32276 0.00083 0.0
O11 O 0.96949 0.33268 0.00665 0.0
O12 O 0.01689 0.36897 0.98187 0.0
C13 C 0.6822 0.65297 0.97311 0.0
O14 O 0.67162 0.65605 0.96302 0.0
O15 O 0.6608 0.66516 0.01687 0.0
Zn16 Zn 0.6564 0.64218 0.00524 0.0
O17 O 0.63773 0.63193 0.98253 0.0
C18 C 0.65299 0.6297 0.0495 0.0
O19 O 0.66414 0.64611 0.05455 0.0
O20 O 0.67826 0.64637 0.99195 0.0
C21 C 0.63215 0.64026 0.97302 0.0
O22 O 0.63891 0.65691 0.97771 0.0
C23 C 0.65011 0.66666 0.02854 0.0
O24 O 0.63528 0.65267 0.03293 0.0
O25 O 0.64854 0.62524 0.02964 0.0
C26 C 0.34159 0.02559 0.98543 0.0
O27 O 0.33564 0.00987 0.97704 0.0
O28 O 0.33139 0.99364 0.02769 0.0
Zn29 Zn 0.35388 0.01191 0.01526 0.0
O30 O 0.36123 0.00176 0.99091 0.0
C31 C 0.3692 0.02181 0.05893 0.0
O32 O 0.35357 0.01621 0.06564 0.0
O33 O 0.35056 0.03016 0.00276 0.0
C34 C 0.37087 0.99602 0.99475 0.0
O35 O 0.37533 0.99597 0.01505 0.0
C36 C 0.32927 0.98096 0.0387 0.0
O37 O 0.34232 0.97919 0.042 0.0
O38 O 0.37212 0.02187 0.03853 0.0
C39 C 0.97262 0.6612 0.97619 0.0
O40 O 0.98671 0.6646 0.96611 0.0
O41 O 0.00762 0.67764 0.01658 0.0
Zn42 Zn 0.98869 0.6533 0.00831 0.0
O43 O 0.99635 0.64242 0.98515 0.0
C44 C 0.9913 0.64112 0.05 0.0
O45 O 0.00688 0.65472 0.04859 0.0
O46 O 0.96996 0.65548 0.9955 0.0
C47 C 0.00328 0.63389 0.9896 0.0
O48 O 0.00621 0.63241 0.01013 0.0
C49 C 0.02344 0.68309 0.01588 0.0
O50 O 0.02837 0.67248 0.00916 0.0
O51 O 0.98063 0.63805 0.03491 0.0
C52 C 0.31149 0.33821 0.03312 0.0
O53 O 0.31725 0.32775 0.03476 0.0
O54 O 0.33588 0.33224 0.996 0.0
Zn55 Zn 0.34153 0.35562 0.00827 0.0
O56 O 0.35949 0.36454 0.03197 0.0
C57 C 0.35816 0.3721 0.96833 0.0
O58 O 0.36123 0.35948 0.96779 0.0
O59 O 0.32002 0.35196 0.02216 0.0
C60 C 0.37543 0.3734 0.02811 0.0
O61 O 0.38073 0.37651 0.00776 0.0
C62 C 0.34591 0.32661 0.99479 0.0
O63 O 0.36177 0.33659 0.00153 0.0
O64 O 0.34947 0.37305 0.98407 0.0
C65 C 0.65684 0.97634 0.03355 0.0
O66 O 0.66345 0.99196 0.0426 0.0
O67 O 0.6683 0.00978 0.99312 0.0
Zn68 Zn 0.64551 0.99177 0.00508 0.0
O69 O 0.63841 0.00163 0.03 0.0
C70 C 0.62968 0.9808 0.9617 0.0
O71 O 0.64442 0.9832 0.95524 0.0
O72 O 0.64783 0.97256 0.01637 0.0
C73 C 0.63108 0.0099 0.02635 0.0
O74 O 0.62901 0.01276 0.00602 0.0
C75 C 0.67056 0.02161 0.98031 0.0
O76 O 0.65747 0.02273 0.97477 0.0
O77 O 0.6275 0.9831 0.9818 0.0
C78 C 0.70436 0.69857 0.37044 0.0
O79 O 0.70555 0.71276 0.37869 0.0
O80 O 0.65641 0.67264 0.33355 0.0
Zn81 Zn 0.67625 0.69512 0.34512 0.0
O82 O 0.66907 0.70514 0.36971 0.0
C83 C 0.68666 0.70826 0.30135 0.0
O84 O 0.68132 0.69196 0.29617 0.0
O85 O 0.69324 0.68965 0.35583 0.0
C86 C 0.6553 0.69655 0.3805 0.0
O87 O 0.6449 0.6799 0.3759 0.0
C88 C 0.64454 0.67138 0.32183 0.0
O89 O 0.64465 0.68553 0.31719 0.0
O90 O 0.6861 0.71252 0.32121 0.0
C91 C 0.34239 0.98596 0.3221 0.0
O92 O 0.3349 0.99356 0.314 0.0
O93 O 0.32357 0.00088 0.36253 0.0
Zn94 Zn 0.31597 0.97647 0.35255 0.0
O95 O 0.29757 0.96712 0.32956 0.0
C96 C 0.29156 0.95282 0.383 0.0
O97 O 0.28143 0.95548 0.37112 0.0
O98 O 0.33636 0.97723 0.33935 0.0
C99 C 0.29277 0.97582 0.31929 0.0
O100 O 0.30008 0.99259 0.32353 0.0
C101 C 0.31439 0.00494 0.3737 0.0
O102 O 0.29873 0.99276 0.37878 0.0
O103 O 0.30733 0.96055 0.37819 0.0
C104 C 0.01248 0.36437 0.31467 0.0
O105 O 0.00607 0.34875 0.30574 0.0
O106 O 0.00093 0.33053 0.35596 0.0
Zn107 Zn 0.02372 0.34957 0.345 0.0
O108 O 0.03252 0.34022 0.32139 0.0
C109 C 0.03685 0.3569 0.38969 0.0
O110 O 0.02065 0.34838 0.3952 0.0
O111 O 0.02092 0.36814 0.33236 0.0
C112 C 0.02353 0.32581 0.31096 0.0
O113 O 0.00717 0.31589 0.31534 0.0
C114 C -0.00097 0.31709 0.36483 0.0
O115 O 0.01228 0.31542 0.36666 0.0
O116 O 0.04097 0.35942 0.36959 0.0
C117 C 0.64316 0.98619 0.30991 0.0
O118 O 0.65821 0.99266 0.30066 0.0
O119 O 0.67719 0.00186 0.35262 0.0
Zn120 Zn 0.65982 0.97791 0.34123 0.0
O121 O 0.67021 0.97019 0.31791 0.0
C122 C 0.65084 0.96431 0.3854 0.0
O123 O 0.65536 0.98028 0.39125 0.0
O124 O 0.64045 0.97874 0.32812 0.0
C125 C 0.66088 0.95472 0.31037 0.0
O126 O 0.64533 0.94496 0.31811 0.0
C127 C 0.69004 0.00487 0.36374 0.0
O128 O 0.69216 0.99194 0.3678 0.0
O129 O 0.65147 0.9606 0.36532 0.0
C130 C 0.9853 0.68235 0.37673 0.0
O131 O 0.99539 0.67852 0.38669 0.0
O132 O 0.00866 0.67247 0.33326 0.0
Zn133 Zn 0.01245 0.69481 0.34658 0.0
O134 O 0.02925 0.70279 0.37142 0.0
C135 C 0.01727 0.70998 0.30393 0.0
O136 O 0.00562 0.69397 0.29784 0.0
O137 O 0.98997 0.68995 0.35853 0.0
C138 C 0.04529 0.71201 0.36844 0.0
O139 O 0.05119 0.71643 0.34847 0.0
C140 C 0.01957 0.67183 0.32098 0.0
O141 O 0.0341 0.68628 0.31693 0.0
O142 O 0.02168 0.71336 0.32394 0.0
C143 C 0.3335 0.31466 0.35827 0.0
O144 O 0.34531 0.33128 0.35725 0.0
O145 O 0.33642 0.34614 0.32587 0.0
Zn146 Zn 0.3142 0.32675 0.33807 0.0
O147 O 0.30522 0.3352 0.36252 0.0
C148 C 0.29709 0.32443 0.298 0.0
O149 O 0.31001 0.34055 0.29657 0.0
O150 O 0.31868 0.30926 0.35074 0.0
C151 C 0.2973 0.34293 0.35917 0.0
O152 O 0.29531 0.34624 0.33904 0.0
C153 C 0.34143 0.36218 0.32563 0.0
O154 O 0.33159 0.36747 0.33369 0.0
O155 O 0.29632 0.31555 0.31421 0.0
C156 C 0.35571 0.01041 0.70125 0.0
O157 O 0.3395 0.99845 0.70384 0.0
O158 O 0.32358 -0.00071 0.66417 0.0
Zn159 Zn 0.34033 0.02363 0.67533 0.0
O160 O 0.32987 0.03128 0.69883 0.0
C161 C 0.33919 0.03846 0.63482 0.0
O162 O 0.3234 0.02509 0.63469 0.0
O163 O 0.3597 0.02322 0.68919 0.0
C164 C 0.32201 0.039 0.695 0.0
O165 O 0.31999 0.04186 0.67467 0.0
C166 C 0.30751 0.99241 0.66343 0.0
O167 O 0.30084 0.00155 0.66989 0.0
O168 O 0.34905 0.04046 0.65046 0.0
C169 C 0.02353 0.33244 0.67195 0.0
O170 O 0.02186 0.34435 0.68242 0.0
O171 O 0.9884 0.33166 0.69391 0.0
Zn172 Zn 0.98722 0.31054 0.68044 0.0
O173 O 0.97094 0.30114 0.65479 0.0
C174 C 0.96813 0.29129 0.71732 0.0
O175 O 0.96292 0.30225 0.71632 0.0
O176 O 0.0106 0.31707 0.66963 0.0
C177 C 0.95599 0.29855 0.6559 0.0
O178 O 0.95088 0.30227 0.67427 0.0
C179 C 0.98709 0.34276 0.68332 0.0
O180 O 0.98441 0.34048 0.66209 0.0
O181 O 0.97901 0.29227 0.70346 0.0
C182 C 0.66449 0.68743 0.65636 0.0
O183 O 0.65275 0.67081 0.65768 0.0
O184 O 0.66174 0.65769 0.6916 0.0
Zn185 Zn 0.68369 0.67572 0.67746 0.0
O186 O 0.69071 0.66515 0.65321 0.0
C187 C 0.70244 0.6794 0.71654 0.0
O188 O 0.68981 0.66324 0.71886 0.0
O189 O 0.67934 0.69301 0.66391 0.0
C190 C 0.69912 0.65794 0.65652 0.0
O191 O 0.70312 0.65677 0.67666 0.0
C192 C 0.65641 0.64166 0.69342 0.0
O193 O 0.66579 0.63558 0.68609 0.0
O194 O 0.70252 0.68771 0.70009 0.0
C195 C 0.3086 0.32748 0.65236 0.0
O196 O 0.32505 0.33709 0.64839 0.0
O197 O 0.33901 0.33394 0.69152 0.0
Zn198 Zn 0.3211 0.31115 0.67762 0.0
O199 O 0.33072 0.30348 0.65298 0.0
C200 C 0.32112 0.29419 0.71611 0.0
O201 O 0.33698 0.30743 0.7165 0.0
O202 O 0.30318 0.31469 0.66499 0.0
C203 C 0.34103 0.29845 0.65613 0.0
O204 O 0.34617 0.29868 0.67612 0.0
C205 C 0.35356 0.34448 0.68343 0.0
O206 O 0.35787 0.34062 0.6645 0.0
O207 O 0.31124 0.29292 0.70087 0.0
C208 C 0.66004 0.0231 0.70132 0.0
O209 O 0.66973 0.01993 0.71336 0.0
O210 O 0.67916 0.00636 0.6564 0.0
Zn211 Zn 0.68571 0.02946 0.67003 0.0
O212 O 0.70242 0.03587 0.69461 0.0
C213 C 0.68885 0.05173 0.63442 0.0
O214 O 0.67222 0.04418 0.63632 0.0
O215 O 0.66444 0.02781 0.68173 0.0
C216 C 0.71787 0.04053 0.69124 0.0
O217 O 0.72311 0.04084 0.67105 0.0
C218 C 0.67745 0.99391 0.66753 0.0
O219 O 0.68048 0.99629 0.68869 0.0
O220 O 0.69683 0.04755 0.64712 0.0
C221 C 0.98508 0.63295 0.67958 0.0
O222 O 0.99479 0.64058 0.66256 0.0
O223 O 0.99531 0.6725 0.65781 0.0
Zn224 Zn 0.9727 0.65557 0.67124 0.0
O225 O 0.96592 0.66734 0.69405 0.0
C226 C 0.95266 0.65548 0.63679 0.0
O227 O 0.96248 0.67229 0.64098 0.0
O228 O 0.97437 0.63698 0.68584 0.0
C229 C 0.97262 0.68368 0.69674 0.0
O230 O 0.98511 0.69436 0.68385 0.0
C231 C 0.00872 0.68086 0.66944 0.0
O232 O 0.00762 0.67875 0.69071 0.0
O233 O 0.95473 0.64506 0.64784 0.0
H234 H 0.1338 0.31213 0.2089 0.0
H235 H 0.11206 0.31292 0.23115 0.0
H236 H 0.07329 0.27805 0.18471 0.0
H237 H 0.09512 0.27677 0.16262 0.0
H238 H 0.14003 0.28899 0.19867 0.0
H239 H 0.12702 0.32447 0.15898 0.0
H240 H 0.11014 0.33348 0.13959 0.0
H241 H 0.0974 0.29317 0.09018 0.0
H242 H 0.11364 0.28365 0.11035 0.0
H243 H 0.16032 0.27814 0.11351 0.0
H244 H 0.18632 0.28482 0.09371 0.0
H245 H 0.21561 0.33095 0.13491 0.0
H246 H 0.1897 0.32386 0.15492 0.0
H247 H 0.14723 0.30152 0.11948 0.0
H248 H 0.16799 0.27161 0.16445 0.0
H249 H 0.19046 0.27183 0.18574 0.0
H250 H 0.19578 0.31477 0.22562 0.0
H251 H 0.17319 0.31414 0.20478 0.0
C252 C 0.11614 0.2944 0.18404 0.0
C253 C 0.12061 0.30442 0.20359 0.0
C254 C 0.10818 0.30488 0.2163 0.0
C255 C 0.09102 0.29547 0.20967 0.0
C256 C 0.08647 0.28546 0.19009 0.0
C257 C 0.09892 0.28478 0.17748 0.0
C258 C 0.1297 0.29432 0.17068 0.0
C259 C 0.14151 0.29168 0.18133 0.0
C260 C 0.13177 0.29788 0.14804 0.0
C261 C 0.12129 0.30314 0.13636 0.0
C262 C 0.12035 0.31737 0.14418 0.0
C263 C 0.1109 0.32268 0.13288 0.0
C264 C 0.10243 0.31407 0.1133 0.0
C265 C 0.10356 0.29993 0.10537 0.0
C266 C 0.11292 0.29454 0.11679 0.0
C267 C 0.17318 0.30039 0.13579 0.0
C268 C 0.17239 0.28963 0.11826 0.0
C269 C 0.18723 0.29353 0.10691 0.0
C270 C 0.20307 0.30841 0.11276 0.0
C271 C 0.20371 0.31922 0.13025 0.0
C272 C 0.18891 0.31523 0.14165 0.0
C273 C 0.15754 0.29652 0.14765 0.0
C274 C 0.14534 0.29832 0.13667 0.0
C275 C 0.15563 0.29321 0.17026 0.0
C276 C 0.16889 0.29281 0.18313 0.0
C277 C 0.17399 0.28099 0.17787 0.0
C278 C 0.18685 0.28117 0.18999 0.0
C279 C 0.19483 0.29322 0.20752 0.0
C280 C 0.18965 0.30503 0.21261 0.0
C281 C 0.17677 0.30475 0.20064 0.0
H282 H 0.72319 0.88463 0.18066 0.0
H283 H 0.72111 0.90531 0.20543 0.0
H284 H 0.66986 0.8856 0.18223 0.0
H285 H 0.67193 0.86496 0.15785 0.0
H286 H 0.70371 0.8495 0.1812 0.0
H287 H 0.71551 0.89292 0.12724 0.0
H288 H 0.70913 0.91282 0.10955 0.0
H289 H 0.65968 0.86917 0.09012 0.0
H290 H 0.666 0.8494 0.10807 0.0
H291 H 0.66623 0.80834 0.10672 0.0
H292 H 0.6594 0.78116 0.08806 0.0
H293 H 0.7088 0.79058 0.10608 0.0
H294 H 0.71557 0.81783 0.12482 0.0
H295 H 0.68974 0.84146 0.10198 0.0
H296 H 0.67343 0.79928 0.15634 0.0
H297 H 0.67339 0.77718 0.17824 0.0
H298 H 0.72451 0.81503 0.20065 0.0
H299 H 0.72477 0.83691 0.17776 0.0
C300 C 0.69783 0.87345 0.16714 0.0
C301 C 0.71159 0.88492 0.18079 0.0
C302 C 0.71037 0.89668 0.19493 0.0
C303 C 0.69536 0.89715 0.19564 0.0
C304 C 0.68172 0.88581 0.18173 0.0
C305 C 0.6829 0.87401 0.16775 0.0
C306 C 0.69849 0.86002 0.15338 0.0
C307 C 0.70117 0.84802 0.16374 0.0
C308 C 0.69449 0.8577 0.13079 0.0
C309 C 0.6912 0.86972 0.11904 0.0
C310 C 0.70333 0.88766 0.11911 0.0
C311 C 0.69971 0.89898 0.10892 0.0
C312 C 0.68388 0.89251 0.09856 0.0
C313 C 0.6719 0.87451 0.09819 0.0
C314 C 0.67555 0.86321 0.10826 0.0
C315 C 0.69137 0.81505 0.11727 0.0
C316 C 0.67569 0.80468 0.1064 0.0
C317 C 0.67181 0.78916 0.09573 0.0
C318 C 0.68354 0.78371 0.09568 0.0
C319 C 0.69941 0.79433 0.10613 0.0
C320 C 0.70332 0.80991 0.11676 0.0
C321 C 0.69475 0.83083 0.12987 0.0
C322 C 0.69285 0.84324 0.11929 0.0
C323 C 0.69894 0.83323 0.15241 0.0
C324 C 0.69921 0.81968 0.16514 0.0
C325 C 0.68477 0.80274 0.1656 0.0
C326 C 0.68469 0.79016 0.17835 0.0
C327 C 0.69893 0.79435 0.19126 0.0
C328 C 0.71343 0.81131 0.19066 0.0
C329 C 0.71355 0.82387 0.17775 0.0
H330 H 0.11334 0.84328 0.18608 0.0
H331 H 0.09091 0.8204 0.20831 0.0
H332 H 0.10368 0.78385 0.1816 0.0
H333 H 0.12662 0.80696 0.16037 0.0
H334 H 0.14663 0.85664 0.18893 0.0
H335 H 0.10422 0.82529 0.13289 0.0
H336 H 0.084 0.79965 0.11066 0.0
H337 H 0.12551 0.79487 0.08608 0.0
H338 H 0.14558 0.81989 0.10894 0.0
H339 H 0.18721 0.85823 0.1173 0.0
H340 H 0.21466 0.87778 0.10009 0.0
H341 H 0.21084 0.92186 0.12007 0.0
H342 H 0.18327 0.90216 0.13736 0.0
H343 H 0.15612 0.85153 0.10972 0.0
H344 H 0.19559 0.87419 0.16952 0.0
H345 H 0.21749 0.89601 0.1942 0.0
H346 H 0.18424 0.91469 0.21199 0.0
H347 H 0.16227 0.89268 0.18722 0.0
C348 C 0.12156 0.82681 0.17137 0.0
C349 C 0.11124 0.8303 0.18495 0.0
C350 C 0.09832 0.81717 0.19751 0.0
C351 C 0.09549 0.80027 0.19675 0.0
C352 C 0.10564 0.79675 0.18278 0.0
C353 C 0.11863 0.80992 0.1704 0.0
C354 C 0.13612 0.84106 0.15936 0.0
C355 C 0.14849 0.85569 0.17149 0.0
C356 C 0.13882 0.83959 0.13671 0.0
C357 C 0.12643 0.82446 0.1228 0.0
C358 C 0.10896 0.81863 0.12291 0.0
C359 C 0.09744 0.80407 0.11016 0.0
C360 C 0.10328 0.79542 0.09669 0.0
C361 C 0.12076 0.80147 0.0962 0.0
C362 C 0.13221 0.81577 0.10923 0.0
C363 C 0.18321 0.87873 0.12866 0.0
C364 C 0.1922 0.87209 0.11783 0.0
C365 C 0.20788 0.88327 0.10798 0.0
C366 C 0.21489 0.90135 0.10871 0.0
C367 C 0.20584 0.908 0.11947 0.0
C368 C 0.19009 0.89677 0.1293 0.0
C369 C 0.16676 0.86661 0.13946 0.0
C370 C 0.15402 0.85255 0.12707 0.0
C371 C 0.16392 0.86828 0.16194 0.0
C372 C 0.1774 0.88197 0.17633 0.0
C373 C 0.19311 0.88315 0.17848 0.0
C374 C 0.20563 0.89567 0.19256 0.0
C375 C 0.20264 0.90716 0.20495 0.0
C376 C 0.18688 0.90596 0.20276 0.0
C377 C 0.17435 0.89343 0.18861 0.0
H378 H 0.26758 0.1579 0.8349 0.0
H379 H 0.26809 0.17968 0.81142 0.0
H380 H 0.31681 0.2189 0.83886 0.0
H381 H 0.31671 0.19705 0.86151 0.0
H382 H 0.28859 0.14676 0.83357 0.0
H383 H 0.27577 0.1781 0.88879 0.0
H384 H 0.28217 0.20484 0.9088 0.0
H385 H 0.32881 0.21098 0.93309 0.0
H386 H 0.3229 0.18486 0.91243 0.0
H387 H 0.32592 0.14705 0.9066 0.0
H388 H 0.33326 0.12802 0.92442 0.0
H389 H 0.28492 0.08315 0.90402 0.0
H390 H 0.27751 0.10232 0.88638 0.0
H391 H 0.30075 0.15299 0.91317 0.0
H392 H 0.32073 0.13182 0.8563 0.0
H393 H 0.32359 0.11224 0.83079 0.0
H394 H 0.27244 0.09235 0.807 0.0
H395 H 0.26939 0.11152 0.83332 0.0
C396 C 0.29197 0.17586 0.85027 0.0
C397 C 0.27832 0.17121 0.83599 0.0
C398 C 0.27858 0.18362 0.82263 0.0
C399 C 0.29241 0.20093 0.82355 0.0
C400 C 0.30587 0.20568 0.83817 0.0
C401 C 0.30578 0.19321 0.85117 0.0
C402 C 0.2924 0.1623 0.86284 0.0
C403 C 0.29078 0.1479 0.85111 0.0
C404 C 0.29607 0.16419 0.88557 0.0
C405 C 0.29894 0.17953 0.89888 0.0
C406 C 0.28741 0.18524 0.89833 0.0
C407 C 0.29102 0.20044 0.90979 0.0
C408 C 0.30595 0.20986 0.92243 0.0
C409 C 0.31714 0.20382 0.9236 0.0
C410 C 0.31373 0.18888 0.91183 0.0
C411 C 0.30119 0.12608 0.89513 0.0
C412 C 0.31684 0.13313 0.90611 0.0
C413 C 0.32108 0.12225 0.91611 0.0
C414 C 0.30969 0.10413 0.91549 0.0
C415 C 0.29388 0.09709 0.90483 0.0
C416 C 0.28968 0.10799 0.89468 0.0
C417 C 0.29725 0.13779 0.88378 0.0
C418 C 0.29808 0.15167 0.89575 0.0
C419 C 0.29362 0.1359 0.86113 0.0
C420 C 0.29475 0.12295 0.84694 0.0
C421 C 0.30996 0.12293 0.84601 0.0
C422 C 0.31166 0.11189 0.83121 0.0
C423 C 0.29828 0.10082 0.81678 0.0
C424 C 0.28291 0.10058 0.81806 0.0
C425 C 0.28119 0.11159 0.83298 0.0
H426 H 0.83927 0.10826 0.83567 0.0
H427 H 0.81795 0.09 0.80773 0.0
H428 H 0.78711 0.11087 0.82863 0.0
H429 H 0.80863 0.12939 0.85598 0.0
H430 H 0.85699 0.14406 0.83678 0.0
H431 H 0.81839 0.09821 0.8864 0.0
H432 H 0.79033 0.07892 0.90274 0.0
H433 H 0.78819 0.12378 0.92393 0.0
H434 H 0.81622 0.1429 0.90788 0.0
H435 H 0.85729 0.17979 0.91665 0.0
H436 H 0.87707 0.20552 0.93862 0.0
H437 H 0.91913 0.20116 0.91538 0.0
H438 H 0.89917 0.17475 0.89409 0.0
H439 H 0.84671 0.14823 0.91592 0.0
H440 H 0.87802 0.19333 0.86618 0.0
H441 H 0.90046 0.21582 0.84365 0.0
H442 H 0.91194 0.17842 0.81678 0.0
H443 H 0.88981 0.15599 0.83999 0.0
C444 C 0.82545 0.12003 0.84805 0.0
C445 C 0.82781 0.10872 0.83437 0.0
C446 C 0.81559 0.09825 0.81851 0.0
C447 C 0.8009 0.09907 0.81595 0.0
C448 C 0.79839 0.11009 0.83007 0.0
C449 C 0.81058 0.12053 0.84588 0.0
C450 C 0.83917 0.13249 0.86322 0.0
C451 C 0.85499 0.14473 0.85424 0.0
C452 C 0.83616 0.13382 0.88572 0.0
C453 C 0.81938 0.12197 0.89594 0.0
C454 C 0.81185 0.10384 0.89458 0.0
C455 C 0.7958 0.09286 0.90384 0.0
C456 C 0.78705 0.09984 0.91465 0.0
C457 C 0.7947 0.11801 0.91604 0.0
C458 C 0.81072 0.12895 0.90684 0.0
C459 C 0.87671 0.17534 0.90353 0.0
C460 C 0.87071 0.18408 0.91657 0.0
C461 C 0.882 0.19881 0.92909 0.0
C462 C 0.89956 0.20525 0.9286 0.0
C463 C 0.90562 0.19643 0.91588 0.0
C464 C 0.89424 0.18143 0.90367 0.0
C465 C 0.86453 0.16023 0.88941 0.0
C466 C 0.84903 0.14738 0.8986 0.0
C467 C 0.86752 0.15891 0.86681 0.0
C468 C 0.88239 0.173 0.85507 0.0
C469 C 0.88573 0.19007 0.85604 0.0
C470 C 0.89852 0.20291 0.8431 0.0
C471 C 0.90793 0.19883 0.82856 0.0
C472 C 0.90484 0.18186 0.82788 0.0
C473 C 0.89223 0.16908 0.8411 0.0
H474 H 0.82981 0.69752 0.80819 0.0
H475 H 0.80712 0.69649 0.7872 0.0
H476 H 0.80842 0.73585 0.83064 0.0
H477 H 0.83101 0.73641 0.85212 0.0
H478 H 0.8617 0.72276 0.81639 0.0
H479 H 0.81137 0.68624 0.8548 0.0
H480 H 0.78461 0.67642 0.87403 0.0
H481 H 0.81196 0.71486 0.92561 0.0
H482 H 0.8387 0.72531 0.90552 0.0
H483 H 0.8876 0.72663 0.90421 0.0
H484 H 0.90403 0.71729 0.92431 0.0
H485 H 0.89317 0.6784 0.87357 0.0
H486 H 0.87608 0.68718 0.85423 0.0
H487 H 0.85383 0.70714 0.89454 0.0
H488 H 0.90688 0.73569 0.8501 0.0
H489 H 0.92854 0.73542 0.82636 0.0
H490 H 0.88859 0.69786 0.78298 0.0
H491 H 0.86724 0.69814 0.8065 0.0
C492 C 0.83215 0.71709 0.83165 0.0
C493 C 0.82535 0.70608 0.81308 0.0
C494 C 0.81241 0.70558 0.80102 0.0
C495 C 0.80607 0.71626 0.80705 0.0
C496 C 0.81295 0.72739 0.82563 0.0
C497 C 0.82589 0.72778 0.83786 0.0
C498 C 0.84549 0.71683 0.84455 0.0
C499 C 0.86007 0.71947 0.83355 0.0
C500 C 0.84324 0.7124 0.86685 0.0
C501 C 0.82699 0.7068 0.87846 0.0
C502 C 0.81158 0.69283 0.87 0.0
C503 C 0.79631 0.68702 0.88123 0.0
C504 C 0.79613 0.69481 0.90142 0.0
C505 C 0.81161 0.70873 0.90996 0.0
C506 C 0.82691 0.71466 0.89858 0.0
C507 C 0.88088 0.70784 0.87752 0.0
C508 C 0.88884 0.71614 0.89741 0.0
C509 C 0.89829 0.71085 0.90881 0.0
C510 C 0.89994 0.6971 0.90054 0.0
C511 C 0.89201 0.68888 0.88054 0.0
C512 C 0.88246 0.69409 0.86927 0.0
C513 C 0.86992 0.71267 0.86621 0.0
C514 C 0.85583 0.71106 0.87762 0.0
C515 C 0.87202 0.71688 0.84381 0.0
C516 C 0.88546 0.71702 0.82999 0.0
C517 C 0.90285 0.72741 0.83548 0.0
C518 C 0.91518 0.72724 0.82194 0.0
C519 C 0.91025 0.71681 0.80267 0.0
C520 C 0.89283 0.70636 0.79742 0.0
C521 C 0.8806 0.70648 0.8109 0.0
H522 H 0.79035 0.6554 0.49857 0.0
H523 H 0.77066 0.65877 0.52204 0.0
H524 H 0.74755 0.60548 0.54191 0.0
H525 H 0.76668 0.60188 0.51727 0.0
H526 H 0.80024 0.61901 0.52234 0.0
H527 H 0.81021 0.66298 0.45199 0.0
H528 H 0.79462 0.67377 0.43318 0.0
H529 H 0.74738 0.62489 0.44358 0.0
H530 H 0.76311 0.61424 0.46278 0.0
H531 H 0.82811 0.61718 0.43643 0.0
H532 H 0.85548 0.62609 0.41897 0.0
H533 H 0.88186 0.66179 0.4734 0.0
H534 H 0.85451 0.65356 0.49004 0.0
H535 H 0.81527 0.63741 0.44553 0.0
H536 H 0.83251 0.60464 0.48953 0.0
H537 H 0.85363 0.60389 0.51273 0.0
H538 H 0.85126 0.63975 0.55886 0.0
H539 H 0.83048 0.64057 0.53576 0.0
C540 C 0.77983 0.62829 0.50586 0.0
C541 C 0.78066 0.64424 0.50737 0.0
C542 C 0.76956 0.64624 0.5211 0.0
C543 C 0.75764 0.63246 0.53406 0.0
C544 C 0.75645 0.61631 0.53201 0.0
C545 C 0.76745 0.61426 0.51804 0.0
C546 C 0.79315 0.62696 0.49364 0.0
C547 C 0.80333 0.62268 0.50539 0.0
C548 C 0.79737 0.63207 0.47166 0.0
C549 C 0.78781 0.63783 0.45882 0.0
C550 C 0.79652 0.65449 0.44995 0.0
C551 C 0.78759 0.66063 0.43918 0.0
C552 C 0.76976 0.6502 0.43691 0.0
C553 C 0.76109 0.63333 0.44535 0.0
C554 C 0.77005 0.6272 0.45621 0.0
C555 C 0.83926 0.63448 0.46471 0.0
C556 C 0.83981 0.62689 0.44459 0.0
C557 C 0.85547 0.63191 0.43472 0.0
C558 C 0.87088 0.64465 0.44479 0.0
C559 C 0.87025 0.65211 0.46504 0.0
C560 C 0.85461 0.64722 0.47477 0.0
C561 C 0.82266 0.62999 0.47448 0.0
C562 C 0.81183 0.63308 0.46222 0.0
C563 C 0.81829 0.62459 0.49635 0.0
C564 C 0.82993 0.62268 0.51088 0.0
C565 C 0.83649 0.61223 0.50472 0.0
C566 C 0.84854 0.61182 0.51795 0.0
C567 C 0.85402 0.62169 0.53766 0.0
C568 C 0.84706 0.63174 0.54399 0.0
C569 C 0.83517 0.63223 0.53077 0.0
H570 H 0.39425 0.22501 0.52166 0.0
H571 H 0.39039 0.24425 0.54693 0.0
H572 H 0.3399 0.22398 0.52058 0.0
H573 H 0.3437 0.20459 0.49569 0.0
H574 H 0.37421 0.18906 0.52102 0.0
H575 H 0.38789 0.23529 0.47164 0.0
H576 H 0.38241 0.25525 0.45239 0.0
H577 H 0.33847 0.21141 0.42098 0.0
H578 H 0.34353 0.19148 0.44076 0.0
H579 H 0.34301 0.15207 0.44178 0.0
H580 H 0.33672 0.12527 0.42274 0.0
H581 H 0.38384 0.13232 0.44696 0.0
H582 H 0.39014 0.15934 0.46604 0.0
H583 H 0.3669 0.18489 0.44042 0.0
H584 H 0.34705 0.13957 0.49111 0.0
H585 H 0.34565 0.11675 0.51313 0.0
H586 H 0.39319 0.15462 0.54446 0.0
H587 H 0.39507 0.1774 0.52157 0.0
C588 C 0.36932 0.21349 0.50671 0.0
C589 C 0.38243 0.22486 0.52121 0.0
C590 C 0.38025 0.2359 0.53552 0.0
C591 C 0.36483 0.23558 0.53573 0.0
C592 C 0.35186 0.2244 0.52089 0.0
C593 C 0.35407 0.21344 0.50655 0.0
C594 C 0.37104 0.20077 0.49284 0.0
C595 C 0.37305 0.18838 0.50332 0.0
C596 C 0.36883 0.19955 0.46986 0.0
C597 C 0.36604 0.21186 0.45782 0.0
C598 C 0.37697 0.22996 0.4608 0.0
C599 C 0.37388 0.24134 0.44978 0.0
C600 C 0.36004 0.2348 0.43524 0.0
C601 C 0.34931 0.21674 0.43196 0.0
C602 C 0.35223 0.20538 0.44323 0.0
C603 C 0.36699 0.15765 0.45546 0.0
C604 C 0.35217 0.14805 0.44267 0.0
C605 C 0.34859 0.13273 0.43177 0.0
C606 C 0.35977 0.12667 0.4334 0.0
C607 C 0.3749 0.13659 0.44563 0.0
C608 C 0.37853 0.15202 0.45647 0.0
C609 C 0.3696 0.17291 0.46865 0.0
C610 C 0.36849 0.18582 0.45806 0.0
C611 C 0.37189 0.17419 0.49164 0.0
C612 C 0.37138 0.16016 0.50429 0.0
C613 C 0.35746 0.14292 0.5022 0.0
C614 C 0.35661 0.1299 0.51484 0.0
C615 C 0.36938 0.13398 0.5303 0.0
C616 C 0.38324 0.15121 0.53255 0.0
C617 C 0.38429 0.16418 0.51955 0.0
H618 H 0.78179 0.1795 0.50418 0.0
H619 H 0.75758 0.15843 0.52622 0.0
H620 H 0.77154 0.12032 0.51262 0.0
H621 H 0.79545 0.1413 0.49047 0.0
H622 H 0.81627 0.19108 0.51256 0.0
H623 H 0.77458 0.15943 0.45426 0.0
H624 H 0.75385 0.1319 0.43573 0.0
H625 H 0.79406 0.12206 0.42106 0.0
H626 H 0.81463 0.14937 0.43977 0.0
H627 H 0.85718 0.18974 0.44085 0.0
H628 H 0.88473 0.20926 0.42364 0.0
H629 H 0.88159 0.25351 0.44485 0.0
H630 H 0.85401 0.23394 0.46198 0.0
H631 H 0.82635 0.18234 0.43458 0.0
H632 H 0.86402 0.20282 0.49402 0.0
H633 H 0.88608 0.22182 0.52063 0.0
H634 H 0.85759 0.24597 0.53823 0.0
H635 H 0.83555 0.22699 0.51133 0.0
C636 C 0.79027 0.16188 0.49553 0.0
C637 C 0.77947 0.16652 0.50579 0.0
C638 C 0.7657 0.15451 0.51841 0.0
C639 C 0.76261 0.13769 0.52113 0.0
C640 C 0.77334 0.13303 0.51052 0.0
C641 C 0.78706 0.14503 0.4979 0.0
C642 C 0.80557 0.17495 0.4835 0.0
C643 C 0.81829 0.18947 0.49533 0.0
C644 C 0.80856 0.17222 0.46139 0.0
C645 C 0.79613 0.1564 0.44858 0.0
C646 C 0.77892 0.15135 0.44703 0.0
C647 C 0.7671 0.13564 0.43647 0.0
C648 C 0.77235 0.12483 0.42703 0.0
C649 C 0.78968 0.13021 0.42798 0.0
C650 C 0.80144 0.14582 0.43866 0.0
C651 C 0.85358 0.21038 0.45281 0.0
C652 C 0.86236 0.20364 0.44164 0.0
C653 C 0.87809 0.21479 0.43181 0.0
C654 C 0.88533 0.23291 0.43297 0.0
C655 C 0.87644 0.23962 0.44398 0.0
C656 C 0.86068 0.22846 0.45374 0.0
C657 C 0.83708 0.1985 0.46367 0.0
C658 C 0.82415 0.18426 0.45164 0.0
C659 C 0.83422 0.20092 0.48594 0.0
C660 C 0.84823 0.21361 0.50057 0.0
C661 C 0.86268 0.21243 0.5033 0.0
C662 C 0.87519 0.22317 0.51862 0.0
C663 C 0.87349 0.2353 0.53153 0.0
C664 C 0.85927 0.23683 0.52836 0.0
C665 C 0.84666 0.22597 0.5131 0.0
H666 H 0.95302 0.50548 0.16173 0.0
H667 H 0.95081 0.52673 0.14033 0.0
H668 H -0.00054 0.56777 0.16581 0.0
H669 H 0.00215 0.5465 0.1862 0.0
H670 H 0.97483 0.49558 0.15863 0.0
H671 H 0.96115 0.52418 0.21711 0.0
H672 H 0.96622 0.55028 0.23742 0.0
H673 H 0.0169 0.56267 0.25412 0.0
H674 H 0.01178 0.53665 0.23385 0.0
H675 H 0.01295 0.49419 0.23106 0.0
H676 H 0.01784 0.47369 0.24987 0.0
H677 H 0.96778 0.43139 0.22997 0.0
H678 H 0.96285 0.45199 0.21145 0.0
H679 H 0.98942 0.50281 0.2376 0.0
H680 H 0.00651 0.47909 0.18018 0.0
H681 H 0.00725 0.45764 0.15572 0.0
H682 H 0.95594 0.43957 0.13416 0.0
H683 H 0.95506 0.46069 0.15931 0.0
C684 C 0.97761 0.52439 0.17591 0.0
C685 C 0.96321 0.51905 0.16275 0.0
C686 C 0.9619 0.53115 0.15062 0.0
C687 C 0.97487 0.54883 0.15173 0.0
C688 C 0.98917 0.55423 0.16506 0.0
C689 C 0.99066 0.54209 0.17677 0.0
C690 C 0.97933 0.51134 0.18789 0.0
C691 C 0.97761 0.49695 0.17602 0.0
C692 C 0.98372 0.5135 0.21038 0.0
C693 C 0.98615 0.52857 0.22382 0.0
C694 C 0.97333 0.53252 0.22519 0.0
C695 C 0.97625 0.54743 0.23674 0.0
C696 C 0.99198 0.55854 0.24728 0.0
C697 C 0.00459 0.55426 0.24638 0.0
C698 C 0.00169 0.53941 0.23479 0.0
C699 C 0.98758 0.47458 0.21979 0.0
C700 C 0.00301 0.48051 0.23084 0.0
C701 C 0.00583 0.46879 0.24142 0.0
C702 C 0.9932 0.45096 0.24132 0.0
C703 C 0.97768 0.44508 0.23044 0.0
C704 C 0.9749 0.4568 0.21974 0.0
C705 C 0.98476 0.48705 0.20834 0.0
C706 C 0.98628 0.50128 0.2203 0.0
C707 C 0.98058 0.48497 0.18584 0.0
C708 C 0.98065 0.47136 0.17176 0.0
C709 C 0.9953 0.47029 0.17051 0.0
C710 C 0.99577 0.45815 0.15633 0.0
C711 C 0.98167 0.44695 0.14295 0.0
C712 C 0.96693 0.44788 0.14444 0.0
C713 C 0.96646 0.46002 0.15867 0.0
H714 H 0.50088 0.4548 0.16436 0.0
H715 H 0.47879 0.43451 0.13848 0.0
H716 H 0.44548 0.45157 0.16249 0.0
H717 H 0.46781 0.47227 0.1876 0.0
H718 H 0.51699 0.48939 0.16493 0.0
H719 H 0.48121 0.44464 0.21481 0.0
H720 H 0.45473 0.42419 0.23378 0.0
H721 H 0.45207 0.46725 0.26119 0.0
H722 H 0.47807 0.48764 0.24157 0.0
H723 H 0.5183 0.5294 0.23865 0.0
H724 H 0.53824 0.55668 0.25787 0.0
H725 H 0.57955 0.54863 0.24254 0.0
H726 H 0.55945 0.52126 0.22319 0.0
H727 H 0.50856 0.49627 0.24405 0.0
H728 H 0.53777 0.53934 0.18971 0.0
H729 H 0.56198 0.56155 0.16903 0.0
H730 H 0.57493 0.52367 0.14887 0.0
H731 H 0.55111 0.50169 0.17049 0.0
C732 C 0.48596 0.46494 0.17805 0.0
C733 C 0.48877 0.45406 0.16412 0.0
C734 C 0.47609 0.44239 0.14947 0.0
C735 C 0.46039 0.44146 0.14841 0.0
C736 C 0.4575 0.45211 0.16273 0.0
C737 C 0.47019 0.46381 0.17728 0.0
C738 C 0.49987 0.47835 0.19229 0.0
C739 C 0.51528 0.49064 0.18235 0.0
C740 C 0.49747 0.48027 0.21491 0.0
C741 C 0.48159 0.46771 0.22658 0.0
C742 C 0.47483 0.44969 0.22465 0.0
C743 C 0.45977 0.43803 0.23553 0.0
C744 C 0.45148 0.44422 0.24891 0.0
C745 C 0.45835 0.46221 0.2511 0.0
C746 C 0.47321 0.47383 0.23993 0.0
C747 C 0.53741 0.52336 0.22939 0.0
C748 C 0.53161 0.53339 0.23967 0.0
C749 C 0.54302 0.54897 0.25066 0.0
C750 C 0.56047 0.55482 0.25166 0.0
C751 C 0.56621 0.54456 0.24177 0.0
C752 C 0.55475 0.52892 0.23079 0.0
C753 C 0.52527 0.5075 0.2165 0.0
C754 C 0.51032 0.49474 0.22672 0.0
C755 C 0.52787 0.50535 0.19406 0.0
C756 C 0.54279 0.51892 0.18189 0.0
C757 C 0.54601 0.5359 0.18117 0.0
C758 C 0.55975 0.54854 0.16914 0.0
C759 C 0.57038 0.54438 0.15727 0.0
C760 C 0.56715 0.52737 0.15809 0.0
C761 C 0.55346 0.51475 0.17026 0.0
H762 H 0.54476 0.04586 0.16308 0.0
H763 H 0.56573 0.04639 0.13749 0.0
H764 H 0.54901 0.99356 0.15384 0.0
H765 H 0.52771 0.9929 0.17869 0.0
H766 H 0.51054 0.02522 0.16105 0.0
H767 H 0.5538 0.03609 0.21351 0.0
H768 H 0.57443 0.03085 0.23069 0.0
H769 H 0.53354 0.97914 0.24716 0.0
H770 H 0.51301 0.98432 0.22952 0.0
H771 H 0.47008 0.98455 0.23271 0.0
H772 H 0.44493 0.97924 0.25349 0.0
H773 H 0.45823 0.0319 0.24224 0.0
H774 H 0.48354 0.03724 0.22185 0.0
H775 H 0.50397 0.00748 0.23837 0.0
H776 H 0.46124 0.99471 0.18563 0.0
H777 H 0.43959 0.9972 0.1666 0.0
H778 H 0.47803 0.04953 0.14852 0.0
H779 H 0.49952 0.04722 0.16854 0.0
C780 C 0.53478 0.01941 0.17293 0.0
C781 C 0.54569 0.03444 0.16119 0.0
C782 C 0.55774 0.03476 0.14672 0.0
C783 C 0.559 0.02001 0.14364 0.0
C784 C 0.54823 0.00507 0.15569 0.0
C785 C 0.53617 0.00474 0.17008 0.0
C786 C 0.52132 0.01866 0.1873 0.0
C787 C 0.50933 0.02174 0.17811 0.0
C788 C 0.51941 0.01353 0.20931 0.0
C789 C 0.5319 0.01055 0.22011 0.0
C790 C 0.5493 0.02361 0.22073 0.0
C791 C 0.56104 0.02065 0.23069 0.0
C792 C 0.55558 0.00458 0.24024 0.0
C793 C 0.53813 0.99157 0.23973 0.0
C794 C 0.52639 0.99456 0.22982 0.0
C795 C 0.47858 0.01124 0.22564 0.0
C796 C 0.46766 0.995 0.23494 0.0
C797 C 0.45325 0.99194 0.24663 0.0
C798 C 0.4496 0.00513 0.24937 0.0
C799 C 0.4608 0.02154 0.24052 0.0
C800 C 0.47518 0.02457 0.22876 0.0
C801 C 0.49322 0.01402 0.21211 0.0
C802 C 0.50537 0.01127 0.22143 0.0
C803 C 0.49515 0.01923 0.19012 0.0
C804 C 0.48196 0.02087 0.17877 0.0
C805 C 0.46496 0.00683 0.1779 0.0
C806 C 0.45262 0.00821 0.16679 0.0
C807 C 0.45708 0.02356 0.156 0.0
C808 C 0.47412 0.03762 0.15692 0.0
C809 C 0.48645 0.03627 0.16817 0.0
H810 H 0.4843 0.00547 0.86955 0.0
H811 H 0.46324 0.00546 0.89408 0.0
H812 H 0.42263 0.965 0.85396 0.0
H813 H 0.44391 0.96456 0.82988 0.0
H814 H 0.49087 0.98093 0.86036 0.0
H815 H 0.47389 0.01422 0.81813 0.0
H816 H 0.45376 0.01932 0.79928 0.0
H817 H 0.43666 0.97245 0.7598 0.0
H818 H 0.45719 0.96779 0.77831 0.0
H819 H 0.50688 0.97215 0.7695 0.0
H820 H 0.53213 0.97905 0.74773 0.0
H821 H 0.56413 0.01939 0.79523 0.0
H822 H 0.53889 0.01301 0.81622 0.0
H823 H 0.49348 0.99143 0.78079 0.0
H824 H 0.51617 0.96263 0.81969 0.0
H825 H 0.53853 0.96055 0.83782 0.0
H826 H 0.54523 0.00017 0.88519 0.0
H827 H 0.52337 0.0026 0.86663 0.0
C828 C 0.4657 0.9851 0.84781 0.0
C829 C 0.47087 0.99655 0.86606 0.0
C830 C 0.45879 0.99666 0.87994 0.0
C831 C 0.44124 0.98534 0.87586 0.0
C832 C 0.43605 0.97381 0.85759 0.0
C833 C 0.44819 0.97366 0.84372 0.0
C834 C 0.47883 0.98517 0.8334 0.0
C835 C 0.49148 0.9833 0.84297 0.0
C836 C 0.47936 0.98772 0.81063 0.0
C837 C 0.4669 0.99057 0.79967 0.0
C838 C 0.46573 0.00504 0.80547 0.0
C839 C 0.45418 0.00788 0.79473 0.0
C840 C 0.44359 0.99629 0.77802 0.0
C841 C 0.44481 0.98178 0.77233 0.0
C842 C 0.45644 0.97903 0.78297 0.0
C843 C 0.52104 0.99187 0.79466 0.0
C844 C 0.51935 0.98254 0.7751 0.0
C845 C 0.53378 0.98642 0.76278 0.0
C846 C 0.55015 -0.00026 0.76978 0.0
C847 C 0.55172 0.0092 0.78922 0.0
C848 C 0.53731 0.0054 0.80141 0.0
C849 C 0.50585 0.98779 0.80791 0.0
C850 C 0.49273 0.98877 0.7981 0.0
C851 C 0.50499 0.98457 0.83054 0.0
C852 C 0.51818 0.98286 0.84173 0.0
C853 C 0.52256 0.97095 0.83389 0.0
C854 C 0.53524 0.96968 0.84434 0.0
C855 C 0.54372 0.98028 0.86284 0.0
C856 C 0.53915 0.99205 0.87075 0.0
C857 C 0.52652 0.99331 0.86031 0.0
H858 H 0.04238 0.54599 0.85718 0.0
H859 H 0.04147 0.567 0.88251 0.0
H860 H 0.99012 0.54888 0.8611 0.0
H861 H 0.99087 0.52752 0.83653 0.0
H862 H 0.02271 0.5111 0.85782 0.0
H863 H 0.03427 0.55446 0.80332 0.0
H864 H 0.02944 0.57393 0.78194 0.0
H865 H 0.97835 0.53116 0.76665 0.0
H866 H 0.98351 0.51175 0.78741 0.0
H867 H 0.98623 0.47102 0.78116 0.0
H868 H 0.9819 0.44642 0.75838 0.0
H869 H 0.03148 0.45697 0.77774 0.0
H870 H 0.03611 0.48219 0.79969 0.0
H871 H 0.00805 0.50404 0.77893 0.0
H872 H 0.99538 0.46019 0.82966 0.0
H873 H 0.99781 0.4388 0.85014 0.0
H874 H 0.04622 0.47968 0.87642 0.0
H875 H 0.04427 0.50106 0.85498 0.0
C876 C 0.01677 0.53531 0.8448 0.0
C877 C 0.03098 0.54664 0.85789 0.0
C878 C 0.03048 0.55871 0.87222 0.0
C879 C 0.01571 0.55959 0.87382 0.0
C880 C 0.00162 0.54841 0.86042 0.0
C881 C 0.00211 0.53633 0.84616 0.0
C882 C 0.01683 0.5217 0.83072 0.0
C883 C 0.0199 0.50974 0.84044 0.0
C884 C 0.0125 0.51956 0.80829 0.0
C885 C 0.00925 0.5317 0.79686 0.0
C886 C 0.022 0.54937 0.79548 0.0
C887 C 0.01919 0.56047 0.78332 0.0
C888 C 0.00354 0.55406 0.77244 0.0
C889 C 0.99066 0.53643 0.77442 0.0
C890 C 0.99354 0.52534 0.78638 0.0
C891 C 0.01144 0.47837 0.79226 0.0
C892 C 0.99625 0.46814 0.78035 0.0
C893 C 0.99371 0.45396 0.7675 0.0
C894 C 0.00629 0.44965 0.76637 0.0
C895 C 0.02161 0.46004 0.77812 0.0
C896 C 0.0242 0.47434 0.79086 0.0
C897 C 0.01379 0.49327 0.806 0.0
C898 C 0.01117 0.50549 0.79623 0.0
C899 C 0.01817 0.49537 0.82849 0.0
C900 C 0.01981 0.48224 0.84038 0.0
C901 C 0.00677 0.46454 0.83929 0.0
C902 C 0.00811 0.45233 0.85105 0.0
C903 C 0.02226 0.45765 0.86464 0.0
C904 C 0.03524 0.47532 0.86594 0.0
C905 C 0.03408 0.4875 0.85378 0.0
H906 H 0.44566 0.51014 0.85124 0.0
H907 H 0.42303 0.48822 0.87453 0.0
H908 H 0.43248 0.44936 0.84779 0.0
H909 H 0.4556 0.47132 0.82549 0.0
H910 H 0.47845 0.52189 0.85258 0.0
H911 H 0.4346 0.49016 0.79508 0.0
H912 H 0.41436 0.4632 0.77492 0.0
H913 H 0.45558 0.45558 0.75731 0.0
H914 H 0.47556 0.48211 0.7778 0.0
H915 H 0.51548 0.52158 0.77604 0.0
H916 H 0.5422 0.54079 0.757 0.0
H917 H 0.54199 0.58559 0.78304 0.0
H918 H 0.51481 0.56632 0.80148 0.0
H919 H 0.48531 0.51486 0.77303 0.0
H920 H 0.52649 0.53721 0.82963 0.0
H921 H 0.54986 0.55864 0.853 0.0
H922 H 0.51889 0.57903 0.87515 0.0
H923 H 0.49546 0.5575 0.85158 0.0
C924 C 0.45213 0.49234 0.83623 0.0
C925 C 0.44278 0.49687 0.85028 0.0
C926 C 0.42986 0.48439 0.8635 0.0
C927 C 0.42595 0.46713 0.86265 0.0
C928 C 0.43507 0.46252 0.84837 0.0
C929 C 0.44821 0.47506 0.83553 0.0
C930 C 0.46678 0.50592 0.82358 0.0
C931 C 0.47974 0.52057 0.83507 0.0
C932 C 0.46892 0.50381 0.80093 0.0
C933 C 0.45655 0.48807 0.78802 0.0
C934 C 0.43923 0.48265 0.78687 0.0
C935 C 0.42772 0.46733 0.77527 0.0
C936 C 0.4334 0.45725 0.76468 0.0
C937 C 0.4508 0.46293 0.76557 0.0
C938 C 0.46225 0.47818 0.77709 0.0
C939 C 0.51314 0.54248 0.79031 0.0
C940 C 0.52102 0.53552 0.77745 0.0
C941 C 0.53629 0.54648 0.76662 0.0
C942 C 0.54409 0.56461 0.76865 0.0
C943 C 0.53625 0.57163 0.78143 0.0
C944 C 0.52078 0.56064 0.79198 0.0
C945 C 0.49708 0.5306 0.8021 0.0
C946 C 0.48382 0.51641 0.79045 0.0
C947 C 0.49507 0.53261 0.82479 0.0
C948 C 0.50933 0.54594 0.83863 0.0
C949 C 0.52481 0.54646 0.83926 0.0
C950 C 0.53817 0.55874 0.85259 0.0
C951 C 0.53625 0.5706 0.86578 0.0
C952 C 0.5207 0.57 0.86523 0.0
C953 C 0.50734 0.55775 0.85178 0.0
H954 H 0.60527 0.83076 0.50255 0.0
H955 H 0.6079 0.85405 0.48025 0.0
H956 H 0.65767 0.88965 0.50839 0.0
H957 H 0.65528 0.86613 0.5298 0.0
H958 H 0.62544 0.81712 0.50111 0.0
H959 H 0.6121 0.84874 0.55601 0.0
H960 H 0.61913 0.87553 0.5762 0.0
H961 H 0.66445 0.87931 0.60184 0.0
H962 H 0.65783 0.85312 0.5809 0.0
H963 H 0.65532 0.81265 0.58085 0.0
H964 H 0.65958 0.79174 0.59956 0.0
H965 H 0.61419 0.74934 0.56872 0.0
H966 H 0.60949 0.7703 0.55063 0.0
H967 H 0.63308 0.82096 0.58166 0.0
H968 H 0.6539 0.79889 0.52641 0.0
H969 H 0.65554 0.77738 0.5032 0.0
H970 H 0.60536 0.75952 0.47737 0.0
H971 H 0.60385 0.78123 0.50065 0.0
C972 C 0.62997 0.84674 0.51804 0.0
C973 C 0.61671 0.8436 0.50394 0.0
C974 C 0.61818 0.85697 0.49135 0.0
C975 C 0.63299 0.87374 0.49257 0.0
C976 C 0.64617 0.87686 0.50689 0.0
C977 C 0.64474 0.86347 0.51935 0.0
C978 C 0.62876 0.83233 0.53053 0.0
C979 C 0.62672 0.81777 0.51879 0.0
C980 C 0.63118 0.83353 0.55349 0.0
C981 C 0.63454 0.84904 0.56675 0.0
C982 C 0.62358 0.8554 0.56592 0.0
C983 C 0.62753 0.87062 0.57762 0.0
C984 C 0.64242 0.87961 0.59049 0.0
C985 C 0.65306 0.87288 0.59177 0.0
C986 C 0.64918 0.85779 0.57999 0.0
C987 C 0.63216 0.79308 0.56416 0.0
C988 C 0.6461 0.79887 0.57835 0.0
C989 C 0.64856 0.78695 0.58899 0.0
C990 C 0.63724 0.769 0.58546 0.0
C991 C 0.62317 0.76315 0.5715 0.0
C992 C 0.62052 0.7751 0.56115 0.0
C993 C 0.63018 0.80596 0.5522 0.0
C994 C 0.63145 0.82013 0.56403 0.0
C995 C 0.62794 0.80486 0.52922 0.0
C996 C 0.62866 0.7915 0.51543 0.0
C997 C 0.64316 0.7902 0.51595 0.0
C998 C 0.64406 0.77785 0.50273 0.0
C999 C 0.63053 0.76666 0.48856 0.0
C1000 C 0.61603 0.76803 0.48802 0.0
C1001 C 0.61513 0.78038 0.50131 0.0
H1002 H 0.1678 0.77423 0.50811 0.0
H1003 H 0.14501 0.75691 0.48153 0.0
H1004 H 0.11404 0.77426 0.51297 0.0
H1005 H 0.13711 0.79208 0.53886 0.0
H1006 H 0.1844 0.80906 0.51139 0.0
H1007 H 0.14986 0.76194 0.56014 0.0
H1008 H 0.12306 0.74169 0.57844 0.0
H1009 H 0.12408 0.7851 0.61181 0.0
H1010 H 0.15014 0.80522 0.59248 0.0
H1011 H 0.18899 0.84371 0.59324 0.0
H1012 H 0.20947 0.8707 0.61262 0.0
H1013 H 0.25107 0.86857 0.5827 0.0
H1014 H 0.23052 0.84104 0.56394 0.0
H1015 H 0.18031 0.81215 0.59217 0.0
H1016 H 0.2034 0.85671 0.53888 0.0
H1017 H 0.22373 0.87979 0.51511 0.0
H1018 H 0.24073 0.84618 0.49006 0.0
H1019 H 0.22004 0.823 0.51365 0.0
C1020 C 0.15411 0.78432 0.5256 0.0
C1021 C 0.156 0.7741 0.50944 0.0
C1022 C 0.14292 0.76412 0.49434 0.0
C1023 C 0.12774 0.76427 0.49509 0.0
C1024 C 0.12565 0.77403 0.5118 0.0
C1025 C 0.13875 0.78405 0.5268 0.0
C1026 C 0.16881 0.79674 0.5396 0.0
C1027 C 0.18368 0.80944 0.52912 0.0
C1028 C 0.16759 0.79766 0.56267 0.0
C1029 C 0.15195 0.78512 0.57473 0.0
C1030 C 0.14422 0.76708 0.57127 0.0
C1031 C 0.129 0.75551 0.58194 0.0
C1032 C 0.12135 0.76178 0.5965 0.0
C1033 C 0.12941 0.77983 0.60038 0.0
C1034 C 0.14447 0.79136 0.58954 0.0
C1035 C 0.20818 0.84039 0.57691 0.0
C1036 C 0.20251 0.84879 0.59118 0.0
C1037 C 0.2142 0.86423 0.60222 0.0
C1038 C 0.23179 0.87169 0.59902 0.0
C1039 C 0.23753 0.8631 0.58524 0.0
C1040 C 0.22582 0.84744 0.57449 0.0
C1041 C 0.19552 0.82483 0.56385 0.0
C1042 C 0.18118 0.81146 0.57449 0.0
C1043 C 0.19678 0.82373 0.54083 0.0
C1044 C 0.21033 0.83822 0.52811 0.0
C1045 C 0.21173 0.85444 0.52855 0.0
C1046 C 0.22341 0.86764 0.515 0.0
C1047 C 0.23386 0.86482 0.50067 0.0
C1048 C 0.23272 0.84869 0.50072 0.0
C1049 C 0.22099 0.83547 0.51423 0.0
H1050 H 0.14353 0.33949 0.49529 0.0
H1051 H 0.12103 0.33989 0.47549 0.0
H1052 H 0.14058 0.39272 0.49922 0.0
H1053 H 0.16233 0.39159 0.52029 0.0
H1054 H 0.18018 0.36396 0.49115 0.0
H1055 H 0.13444 0.34058 0.54081 0.0
H1056 H 0.1113 0.33808 0.56348 0.0
H1057 H 0.14771 0.38289 0.60238 0.0
H1058 H 0.17096 0.38579 0.57902 0.0
H1059 H 0.22047 0.38566 0.56823 0.0
H1060 H 0.24044 0.38037 0.58741 0.0
H1061 H 0.21341 0.32736 0.5618 0.0
H1062 H 0.19377 0.33286 0.54256 0.0
H1063 H 0.18162 0.36358 0.57229 0.0
H1064 H 0.2247 0.38864 0.50679 0.0
H1065 H 0.24418 0.38631 0.48129 0.0
H1066 H 0.20896 0.33054 0.47631 0.0
H1067 H 0.18923 0.33326 0.50073 0.0
C1068 C 0.15454 0.36551 0.50916 0.0
C1069 C 0.14288 0.35112 0.49623 0.0
C1070 C 0.13011 0.35146 0.48477 0.0
C1071 C 0.12903 0.36644 0.48543 0.0
C1072 C 0.14081 0.38087 0.49849 0.0
C1073 C 0.15336 0.38034 0.51042 0.0
C1074 C 0.16804 0.36494 0.52111 0.0
C1075 C 0.18051 0.36398 0.5089 0.0
C1076 C 0.1684 0.36484 0.54424 0.0
C1077 C 0.1544 0.36368 0.5578 0.0
C1078 C 0.13745 0.35019 0.55379 0.0
C1079 C 0.12424 0.34869 0.56685 0.0
C1080 C 0.12775 0.36039 0.58451 0.0
C1081 C 0.14472 0.37373 0.58881 0.0
C1082 C 0.15795 0.37539 0.5755 0.0
C1083 C 0.20588 0.35973 0.55375 0.0
C1084 C 0.21896 0.37296 0.56674 0.0
C1085 C 0.23026 0.36987 0.57775 0.0
C1086 C 0.22856 0.35347 0.57602 0.0
C1087 C 0.21529 0.34023 0.56312 0.0
C1088 C 0.20405 0.34334 0.55213 0.0
C1089 C 0.19373 0.36274 0.5423 0.0
C1090 C 0.18151 0.36412 0.55459 0.0
C1091 C 0.19323 0.36273 0.51927 0.0
C1092 C 0.20563 0.36112 0.50555 0.0
C1093 C 0.2213 0.37594 0.50022 0.0
C1094 C 0.23245 0.37454 0.48577 0.0
C1095 C 0.22813 0.35823 0.47659 0.0
C1096 C 0.21256 0.34335 0.48263 0.0
C1097 C 0.20134 0.34483 0.49676 0.0
C1098 C 0.99432 0.38081 0.0669 0.0
C1099 C 0.98997 0.38126 0.04513 0.0
C1100 C 0.99206 0.39044 0.08356 0.0
C1101 C 0.98528 0.40077 0.07832 0.0
C1102 C 0.98033 0.40082 0.05653 0.0
C1103 C 0.98273 0.39106 0.04019 0.0
C1104 C 0.99745 0.39003 0.10664 0.0
C1105 C 0.97303 0.41164 0.05032 0.0
C1106 C 0.96876 0.41774 0.12372 0.0
C1107 C 0.98263 0.43486 0.12683 0.0
C1108 C 0.96946 0.40641 0.10811 0.0
C1109 C 0.98438 0.41237 0.09533 0.0
C1110 C -0.00154 0.42958 0.0985 0.0
C1111 C 0.9974 0.44061 0.11419 0.0
C1112 C 0.95423 0.38811 0.10522 0.0
C1113 C 0.01458 0.43643 0.08514 0.0
H1114 H -0.00014 0.37323 0.07089 0.0
H1115 H 0.97926 0.39144 0.02344 0.0
H1116 H 0.00833 0.40311 0.11158 0.0
H1117 H 0.98686 0.38678 0.11823 0.0
H1118 H 0.00138 0.38043 0.10829 0.0
H1119 H 0.96884 0.40942 0.03295 0.0
H1120 H 0.96197 0.40862 0.06092 0.0
H1121 H 0.98279 0.42566 0.05294 0.0
H1122 H 0.95738 0.41318 0.13361 0.0
H1123 H 0.00806 0.45391 0.11626 0.0
H1124 H 0.95806 0.37856 0.10789 0.0
H1125 H 0.94935 0.38597 0.0882 0.0
H1126 H 0.94369 0.38542 0.11667 0.0
H1127 H 0.01994 0.42808 0.08711 0.0
H1128 H 0.02449 0.45004 0.08992 0.0
H1129 H 0.01162 0.43599 0.06751 0.0
C1130 C 0.64516 0.62251 0.08883 0.0
C1131 C 0.64386 0.61695 0.06687 0.0
C1132 C 0.63472 0.61088 0.10496 0.0
C1133 C 0.62281 0.59329 0.09897 0.0
C1134 C 0.62215 0.5874 0.07708 0.0
C1135 C 0.63266 0.5993 0.06128 0.0
C1136 C 0.63578 0.61764 0.12815 0.0
C1137 C 0.60972 0.5687 0.07008 0.0
C1138 C 0.60015 0.55891 0.14205 0.0
C1139 C 0.58424 0.5575 0.14323 0.0
C1140 C 0.61301 0.57076 0.12803 0.0
C1141 C 0.60987 0.58144 0.11497 0.0
C1142 C 0.59398 0.58031 0.11642 0.0
C1143 C 0.58136 0.56833 0.13047 0.0
C1144 C 0.62981 0.57163 0.1269 0.0
C1145 C 0.59014 0.59149 0.10275 0.0
H1146 H 0.6538 0.63612 0.09329 0.0
H1147 H 0.63169 0.59486 0.04439 0.0
H1148 H 0.62399 0.61765 0.13209 0.0
H1149 H 0.63664 0.60902 0.1399 0.0
H1150 H 0.64693 0.63109 0.13066 0.0
H1151 H 0.61195 0.56583 0.05298 0.0
H1152 H 0.61067 0.55972 0.08109 0.0
H1153 H 0.59648 0.56589 0.07129 0.0
H1154 H 0.60253 0.55074 0.15207 0.0
H1155 H 0.56902 0.56713 0.13101 0.0
H1156 H 0.64053 0.58518 0.13013 0.0
H1157 H 0.63167 0.56776 0.11019 0.0
H1158 H 0.6305 0.56299 0.13882 0.0
H1159 H 0.60005 0.60545 0.10547 0.0
H1160 H 0.57745 0.58958 0.10656 0.0
H1161 H 0.59043 0.58833 0.08512 0.0
C1162 C 0.39949 0.03171 0.06748 0.0
C1163 C 0.38278 0.02548 0.07478 0.0
C1164 C 0.41197 0.03301 0.08163 0.0
C1165 C 0.40763 0.02789 0.10359 0.0
C1166 C 0.39104 0.02244 0.11137 0.0
C1167 C 0.37881 0.02134 0.09687 0.0
C1168 C 0.42957 0.03905 0.07275 0.0
C1169 C 0.38593 0.01686 0.13468 0.0
C1170 C 0.4323 0.01039 0.13007 0.0
C1171 C 0.4441 0.02464 0.14316 0.0
C1172 C 0.42021 0.01122 0.11744 0.0
C1173 C 0.41995 0.02674 0.11775 0.0
C1174 C 0.43172 0.04115 0.13102 0.0
C1175 C 0.44365 0.03992 0.1436 0.0
C1176 C 0.40786 0.99556 0.10349 0.0
C1177 C 0.43182 0.0579 0.13172 0.0
H1178 H 0.40271 0.03505 0.05047 0.0
H1179 H 0.36594 0.01654 0.10267 0.0
H1180 H 0.43949 0.04939 0.08362 0.0
H1181 H 0.43164 0.02801 0.07229 0.0
H1182 H 0.43138 0.04413 0.05597 0.0
H1183 H 0.37316 0.01465 0.13877 0.0
H1184 H 0.38561 0.00459 0.1372 0.0
H1185 H 0.39545 0.02682 0.14629 0.0
H1186 H 0.43274 0.99864 0.12934 0.0
H1187 H 0.45259 0.05091 0.15388 0.0
H1188 H 0.40986 0.99896 0.08596 0.0
H1189 H 0.39453 0.99154 0.10761 0.0
H1190 H 0.40936 0.98428 0.10568 0.0
H1191 H 0.43448 0.06345 0.11515 0.0
H1192 H 0.44155 0.06777 0.14326 0.0
H1193 H 0.41908 0.05533 0.13669 0.0
C1194 C 0.39184 0.98859 0.98044 0.0
C1195 C 0.37852 0.99135 0.97643 0.0
C1196 C 0.40057 0.98613 0.96312 0.0
C1197 C 0.39574 0.98625 0.94128 0.0
C1198 C 0.38175 0.98813 0.93713 0.0
C1199 C 0.37334 0.99075 0.95477 0.0
C1200 C 0.41549 0.98424 0.96821 0.0
C1201 C 0.37609 0.98808 0.91406 0.0
C1202 C 0.43131 0.00132 0.89961 0.0
C1203 C 0.42855 0.98548 0.89101 0.0
C1204 C 0.42044 0.00173 0.91554 0.0
C1205 C 0.40631 0.9859 0.9229 0.0
C1206 C 0.40297 0.96987 0.9136 0.0
C1207 C 0.41419 0.96984 0.8978 0.0
C1208 C 0.42442 0.01911 0.92504 0.0
C1209 C 0.38792 0.95275 0.92088 0.0
H1210 H 0.3959 0.98899 0.99711 0.0
H1211 H 0.36296 0.99274 0.95155 0.0
H1212 H 0.41398 0.9725 0.9597 0.0
H1213 H 0.42746 0.99566 0.96212 0.0
H1214 H 0.4169 0.98327 0.98604 0.0
H1215 H 0.3639 0.98781 0.91368 0.0
H1216 H 0.38605 -8e-05 0.90574 0.0
H1217 H 0.37446 0.97666 0.90452 0.0
H1218 H 0.44218 0.01346 0.89409 0.0
H1219 H 0.41203 0.95754 0.89134 0.0
H1220 H 0.42728 0.01993 0.94276 0.0
H1221 H 0.41319 0.02043 0.92344 0.0
H1222 H 0.43551 0.03023 0.91691 0.0
H1223 H 0.38982 0.95055 0.93808 0.0
H1224 H 0.38614 0.94158 0.91055 0.0
H1225 H 0.37604 0.95302 0.92036 0.0
C1226 C 0.99658 0.37879 0.93974 0.0
C1227 C 0.00996 0.37845 0.94978 0.0
C1228 C -0.00015 0.39179 0.92504 0.0
C1229 C 0.01695 0.40451 0.91982 0.0
C1230 C 0.03053 0.40381 0.92917 0.0
C1231 C 0.02688 0.3909 0.94431 0.0
C1232 C 0.98502 0.39229 0.91578 0.0
C1233 C 0.04889 0.41688 0.92352 0.0
C1234 C 0.02121 0.42975 0.8692 0.0
C1235 C 0.02282 0.44489 0.87853 0.0
C1236 C 0.02028 0.41687 0.88245 0.0
C1237 C 0.02046 0.41903 0.90552 0.0
C1238 C 0.0225 0.43453 0.91495 0.0
C1239 C 0.02385 0.44738 0.9013 0.0
C1240 C 0.01853 0.40073 0.8718 0.0
C1241 C 0.02237 0.43716 0.93946 0.0
H1242 H 0.98348 0.36928 0.94402 0.0
H1243 H 0.03725 0.3906 0.95196 0.0
H1244 H 0.98599 0.40466 0.92094 0.0
H1245 H 0.98538 0.39191 0.89763 0.0
H1246 H 0.97248 0.38126 0.92124 0.0
H1247 H 0.05783 0.4136 0.93061 0.0
H1248 H 0.05057 0.41761 0.90549 0.0
H1249 H 0.0524 0.43001 0.92977 0.0
H1250 H 0.02051 0.42794 0.85154 0.0
H1251 H 0.02495 0.45905 0.90844 0.0
H1252 H 0.00555 0.38936 0.8748 0.0
H1253 H 0.02778 0.39795 0.87906 0.0
H1254 H 0.02065 0.40198 0.85383 0.0
H1255 H 0.00973 0.42725 0.94611 0.0
H1256 H 0.02492 0.45029 0.94417 0.0
H1257 H 0.03208 0.43538 0.94734 0.0
C1258 C 0.61192 0.64019 0.94598 0.0
C1259 C 0.61813 0.63118 0.95682 0.0
C1260 C 0.59857 0.63159 0.93069 0.0
C1261 C 0.59128 0.61358 0.92619 0.0
C1262 C 0.59751 0.60443 0.93706 0.0
C1263 C 0.61086 0.61334 0.95222 0.0
C1264 C 0.59224 0.64175 0.91937 0.0
C1265 C 0.59006 0.58521 0.93271 0.0
C1266 C 0.54671 0.58533 0.9025 0.0
C1267 C 0.55024 0.58303 0.8807 0.0
C1268 C 0.55995 0.59579 0.91733 0.0
C1269 C 0.57711 0.60415 0.91015 0.0
C1270 C 0.58072 0.60243 0.88795 0.0
C1271 C 0.56724 0.59187 0.87349 0.0
C1272 C 0.55559 0.5973 0.94089 0.0
C1273 C 0.59885 0.61123 0.87965 0.0
H1274 H 0.61747 0.65397 0.94944 0.0
H1275 H 0.61556 0.60625 0.96051 0.0
H1276 H 0.59355 0.64086 0.90138 0.0
H1277 H 0.57847 0.63606 0.92287 0.0
H1278 H 0.59931 0.6557 0.92462 0.0
H1279 H 0.59635 0.58001 0.94256 0.0
H1280 H 0.57622 0.57783 0.93653 0.0
H1281 H 0.5914 0.58275 0.91511 0.0
H1282 H 0.53361 0.57839 0.90821 0.0
H1283 H 0.57 0.59034 0.85656 0.0
H1284 H 0.5621 0.61118 0.94629 0.0
H1285 H 0.56022 0.5909 0.95153 0.0
H1286 H 0.54163 0.59116 0.94344 0.0
H1287 H 0.60588 0.62533 0.88404 0.0
H1288 H 0.59944 0.60967 0.86161 0.0
H1289 H 0.60558 0.60563 0.88756 0.0
C1290 C 0.00276 0.62533 0.95014 0.0
C1291 C 0.007 0.62479 0.97193 0.0
C1292 C 0.00508 0.61574 0.93348 0.0
C1293 C 0.01181 0.60539 0.93876 0.0
C1294 C 0.01663 0.60523 0.96059 0.0
C1295 C 0.01416 0.61493 0.97692 0.0
C1296 C -0.0002 0.61623 0.91038 0.0
C1297 C 0.02391 0.59439 0.96682 0.0
C1298 C -0.0001 0.56572 0.90266 0.0
C1299 C 0.01471 0.57157 0.89007 0.0
C1300 C -0.00123 0.57666 0.91841 0.0
C1301 C 0.01282 0.59387 0.92173 0.0
C1302 C 0.02779 0.59991 0.90904 0.0
C1303 C 0.02856 0.58867 0.89334 0.0
C1304 C 0.98258 0.56973 0.93166 0.0
C1305 C 0.04301 0.61819 0.91212 0.0
H1306 H 0.99727 0.63296 0.94612 0.0
H1307 H 0.01755 0.6145 0.99369 0.0
H1308 H 0.01047 0.61958 0.89888 0.0
H1309 H 0.98898 0.60316 0.9053 0.0
H1310 H 0.99583 0.6258 0.90872 0.0
H1311 H 0.02799 0.59653 0.98423 0.0
H1312 H 0.01417 0.58037 0.96407 0.0
H1313 H 0.03503 0.59747 0.95632 0.0
H1314 H 0.98925 0.55243 0.90048 0.0
H1315 H 0.03997 0.59331 0.8835 0.0
H1316 H 0.97722 0.57808 0.9297 0.0
H1317 H 0.98547 0.5701 0.9493 0.0
H1318 H 0.9727 0.55614 0.92676 0.0
H1319 H 0.03919 0.62776 0.90941 0.0
H1320 H 0.05363 0.62093 0.90078 0.0
H1321 H 0.04777 0.62026 0.92919 0.0
C1322 C 0.3598 0.39662 0.94805 0.0
C1323 C 0.36623 0.38594 0.95206 0.0
C1324 C 0.36781 0.41007 0.93296 0.0
C1325 C 0.38281 0.41313 0.92214 0.0
C1326 C 0.38932 0.40237 0.92618 0.0
C1327 C 0.38084 0.38879 0.94088 0.0
C1328 C 0.36029 0.42102 0.92864 0.0
C1329 C 0.40549 0.40541 0.91532 0.0
C1330 C 0.40005 0.43801 0.86976 0.0
C1331 C 0.41333 0.45416 0.8778 0.0
C1332 C 0.38922 0.42484 0.88412 0.0
C1333 C 0.3921 0.42781 0.90698 0.0
C1334 C 0.40513 0.44435 0.91515 0.0
C1335 C 0.41549 0.4574 0.90042 0.0
C1336 C 0.37521 0.40752 0.87481 0.0
C1337 C 0.40884 0.44792 0.93937 0.0
H1338 H 0.34845 0.39438 0.95659 0.0
H1339 H 0.38594 0.38066 0.94407 0.0
H1340 H 0.36946 0.43476 0.93371 0.0
H1341 H 0.35796 0.42085 0.91084 0.0
H1342 H 0.3481 0.4164 0.93753 0.0
H1343 H 0.40896 0.39599 0.92046 0.0
H1344 H 0.40395 0.40435 0.89727 0.0
H1345 H 0.41625 0.41879 0.9194 0.0
H1346 H 0.39836 0.43559 0.85222 0.0
H1347 H 0.42589 0.46987 0.90657 0.0
H1348 H 0.36302 0.40317 0.88356 0.0
H1349 H 0.37853 0.39754 0.87713 0.0
H1350 H 0.3732 0.40808 0.85705 0.0
H1351 H 0.397 0.44424 0.94858 0.0
H1352 H 0.4185 0.46182 0.94314 0.0
H1353 H 0.41369 0.43985 0.94537 0.0
C1354 C 0.60122 0.97618 0.95277 0.0
C1355 C 0.61643 0.9776 0.94558 0.0
C1356 C 0.58934 0.97517 0.93784 0.0
C1357 C 0.59267 0.97551 0.91513 0.0
C1358 C 0.60758 0.9761 0.90769 0.0
C1359 C 0.61933 0.97717 0.92303 0.0
C1360 C 0.57357 0.97455 0.94644 0.0
C1361 C 0.61147 0.97632 0.88357 0.0
C1362 C 0.55467 0.96266 0.87852 0.0
C1363 C 0.55709 0.97897 0.87424 0.0
C1364 C 0.56656 0.9613 0.891 0.0
C1365 C 0.58114 0.97662 0.89944 0.0
C1366 C 0.584 0.99312 0.89437 0.0
C1367 C 0.57197 0.99409 0.88179 0.0
C1368 C 0.56315 0.94349 0.89596 0.0
C1369 C 0.59943 0.00977 0.90301 0.0
H1370 H 0.59881 0.9764 0.97015 0.0
H1371 H 0.63101 0.9782 0.91733 0.0
H1372 H 0.57405 0.98663 0.94215 0.0
H1373 H 0.56195 0.96345 0.9387 0.0
H1374 H 0.57233 0.97325 0.9645 0.0
H1375 H 0.62262 0.97497 0.88042 0.0
H1376 H 0.60024 0.96566 0.87464 0.0
H1377 H 0.61424 0.98877 0.87671 0.0
H1378 H 0.54315 0.95092 0.87283 0.0
H1379 H 0.57407 0.00673 0.87814 0.0
H1380 H 0.56009 0.94093 0.91359 0.0
H1381 H 0.57467 0.94286 0.89262 0.0
H1382 H 0.55232 0.93301 0.88621 0.0
H1383 H 0.59877 0.01043 0.92113 0.0
H1384 H 0.60034 0.02154 0.8964 0.0
H1385 H 0.61129 0.01 0.89877 0.0
C1386 C 0.62399 0.00982 0.06605 0.0
C1387 C 0.62321 0.01441 0.04456 0.0
C1388 C 0.61491 0.01217 0.08303 0.0
C1389 C 0.60485 0.01928 0.0784 0.0
C1390 C 0.60469 0.02473 0.05699 0.0
C1391 C 0.61387 0.02223 0.04032 0.0
C1392 C 0.61545 0.00625 0.10568 0.0
C1393 C 0.59416 0.03244 0.05145 0.0
C1394 C 0.56554 0.00533 0.11321 0.0
C1395 C 0.57098 0.01988 0.12723 0.0
C1396 C 0.5765 0.00497 0.09736 0.0
C1397 C 0.59331 0.01956 0.09542 0.0
C1398 C 0.59892 0.0343 0.10953 0.0
C1399 C 0.58767 0.03429 0.12529 0.0
C1400 C 0.57002 0.98902 0.08256 0.0
C1401 C 0.61678 0.05006 0.10794 0.0
H1402 H 0.63125 0.00386 0.06951 0.0
H1403 H 0.61328 0.02591 0.0238 0.0
H1404 H 0.61834 0.01668 0.11806 0.0
H1405 H 0.60274 0.99482 0.10975 0.0
H1406 H 0.62512 0.00254 0.10706 0.0
H1407 H 0.59662 0.03746 0.03458 0.0
H1408 H 0.58039 0.02236 0.05291 0.0
H1409 H 0.59689 0.04323 0.06316 0.0
H1410 H 0.55257 0.99427 0.11437 0.0
H1411 H 0.59198 0.04551 0.13623 0.0
H1412 H 0.57828 0.98358 0.08411 0.0
H1413 H 0.57058 0.99261 0.06524 0.0
H1414 H 0.55667 0.97869 0.0864 0.0
H1415 H 0.62627 0.04626 0.1104 0.0
H1416 H 0.61919 0.06044 0.1202 0.0
H1417 H 0.61894 0.05548 0.09134 0.0
C1418 C 0.0005 0.62772 0.07711 0.0
C1419 C 0.98722 0.6282 0.06698 0.0
C1420 C 0.99708 0.61463 0.09172 0.0
C1421 C 0.97995 0.60194 0.09678 0.0
C1422 C 0.96646 0.60277 0.08734 0.0
C1423 C 0.97026 0.61577 0.07227 0.0
C1424 C 0.01183 0.614 0.10107 0.0
C1425 C 0.94806 0.58973 0.09283 0.0
C1426 C 0.97304 0.55904 0.11514 0.0
C1427 C 0.97413 0.56152 0.13791 0.0
C1428 C 0.97431 0.57188 0.10154 0.0
C1429 C 0.97632 0.58735 0.11103 0.0
C1430 C 0.9765 0.58946 0.1341 0.0
C1431 C 0.97566 0.5766 0.1473 0.0
C1432 C 0.97446 0.5693 0.07702 0.0
C1433 C 0.9782 0.60557 0.14482 0.0
H1434 H 0.01364 0.6372 0.07297 0.0
H1435 H 0.95996 0.61618 0.06456 0.0
H1436 H 0.01141 0.61436 0.11922 0.0
H1437 H 0.01079 0.60161 0.09591 0.0
H1438 H 0.02442 0.62499 0.09568 0.0
H1439 H 0.93919 0.59311 0.08569 0.0
H1440 H 0.94451 0.57661 0.08651 0.0
H1441 H 0.94628 0.58893 0.11085 0.0
H1442 H 0.972 0.54741 0.10796 0.0
H1443 H 0.9764 0.5784 0.16496 0.0
H1444 H 0.98714 0.57917 0.07043 0.0
H1445 H 0.96482 0.57119 0.06913 0.0
H1446 H 0.97182 0.55614 0.07227 0.0
H1447 H 0.99122 0.61693 0.14197 0.0
H1448 H 0.97596 0.60422 0.16276 0.0
H1449 H 0.96902 0.60841 0.13748 0.0
C1450 C 0.38217 0.37928 0.06815 0.0
C1451 C 0.38784 0.38122 0.04639 0.0
C1452 C 0.39373 0.38784 0.08548 0.0
C1453 C 0.41138 0.39857 0.08092 0.0
C1454 C 0.41725 0.40007 0.05909 0.0
C1455 C 0.40541 0.39138 0.04208 0.0
C1456 C 0.387 0.38592 0.10856 0.0
C1457 C 0.43599 0.41134 0.0536 0.0
C1458 C 0.43894 0.43644 0.11993 0.0
C1459 C 0.44743 0.43012 0.13166 0.0
C1460 C 0.42704 0.4262 0.10359 0.0
C1461 C 0.42357 0.40923 0.09875 0.0
C1462 C 0.43199 0.40269 0.1106 0.0
C1463 C 0.44383 0.41323 0.12693 0.0
C1464 C 0.41835 0.43366 0.09128 0.0
C1465 C 0.42858 0.38464 0.10589 0.0
H1466 H 0.36863 0.3714 0.07165 0.0
H1467 H 0.40992 0.39289 0.02534 0.0
H1468 H 0.39391 0.38212 0.11953 0.0
H1469 H 0.38926 0.39861 0.11485 0.0
H1470 H 0.37311 0.37607 0.10954 0.0
H1471 H 0.43858 0.41015 0.03603 0.0
H1472 H 0.44053 0.42518 0.05754 0.0
H1473 H 0.44357 0.40779 0.06365 0.0
H1474 H 0.44186 0.44959 0.12322 0.0
H1475 H 0.45023 0.40821 0.13609 0.0
H1476 H 0.40428 0.42505 0.09268 0.0
H1477 H 0.42157 0.43434 0.07363 0.0
H1478 H 0.42214 0.44692 0.09743 0.0
H1479 H 0.41478 0.37484 0.10784 0.0
H1480 H 0.43595 0.38138 0.11685 0.0
H1481 H 0.43198 0.38355 0.08868 0.0
C1482 C 0.63502 0.69669 0.4082 0.0
C1483 C 0.65087 0.70551 0.39756 0.0
C1484 C 0.63052 0.70532 0.42379 0.0
C1485 C 0.64217 0.72316 0.42885 0.0
C1486 C 0.65829 0.73205 0.41842 0.0
C1487 C 0.66243 0.72313 0.40291 0.0
C1488 C 0.61321 0.69545 0.4346 0.0
C1489 C 0.67109 0.75107 0.42345 0.0
C1490 C 0.62718 0.75233 0.45169 0.0
C1491 C 0.63197 0.75417 0.47375 0.0
C1492 C 0.62983 0.74173 0.43706 0.0
C1493 C 0.63749 0.73278 0.44467 0.0
C1494 C 0.64177 0.73407 0.46707 0.0
C1495 C 0.63895 0.74475 0.48136 0.0
C1496 C 0.62508 0.74067 0.41327 0.0
C1497 C 0.64988 0.72466 0.47581 0.0
H1498 H 0.62601 0.68308 0.40417 0.0
H1499 H 0.67474 0.73004 0.39484 0.0
H1500 H 0.61469 0.69634 0.45266 0.0
H1501 H 0.60571 0.70137 0.43053 0.0
H1502 H 0.60584 0.68149 0.42938 0.0
H1503 H 0.68322 0.75596 0.41427 0.0
H1504 H 0.66561 0.75899 0.41924 0.0
H1505 H 0.67403 0.75314 0.44122 0.0
H1506 H 0.62194 0.75971 0.44566 0.0
H1507 H 0.64242 0.7459 0.49847 0.0
H1508 H 0.61707 0.72688 0.40761 0.0
H1509 H 0.63682 0.74682 0.40311 0.0
H1510 H 0.61804 0.74731 0.41033 0.0
H1511 H 0.64217 0.71062 0.47112 0.0
H1512 H 0.65125 0.72596 0.49392 0.0
H1513 H 0.66273 0.72999 0.46847 0.0
C1514 C 0.26754 0.93372 0.40789 0.0
C1515 C 0.28458 0.94079 0.40147 0.0
C1516 C 0.26049 0.92191 0.42492 0.0
C1517 C 0.27068 0.91695 0.43574 0.0
C1518 C 0.28796 0.9242 0.42958 0.0
C1519 C 0.29473 0.93609 0.41253 0.0
C1520 C 0.24203 0.91453 0.43112 0.0
C1521 C 0.29916 0.91913 0.4407 0.0
C1522 C 0.25388 0.89597 0.49064 0.0
C1523 C 0.2449 0.87821 0.48462 0.0
C1524 C 0.26288 0.90877 0.47503 0.0
C1525 C 0.26295 0.90367 0.45292 0.0
C1526 C 0.25454 0.88578 0.44692 0.0
C1527 C 0.24556 0.87327 0.46282 0.0
C1528 C 0.27173 0.92773 0.48204 0.0
C1529 C 0.25437 0.87983 0.42351 0.0
H1530 H 0.25964 0.93736 0.39952 0.0
H1531 H 0.30791 0.9415 0.40767 0.0
H1532 H 0.23462 0.90021 0.42824 0.0
H1533 H 0.24104 0.91701 0.44881 0.0
H1534 H 0.23603 0.92021 0.42163 0.0
H1535 H 0.31251 0.92647 0.43458 0.0
H1536 H 0.2993 0.92147 0.45864 0.0
H1537 H 0.29391 0.90501 0.43791 0.0
H1538 H 0.25363 0.89986 0.50753 0.0
H1539 H 0.23848 0.8596 0.45795 0.0
H1540 H 0.26532 0.93377 0.47438 0.0
H1541 H 0.28518 0.93485 0.47636 0.0
H1542 H 0.27159 0.92952 0.50009 0.0
H1543 H 0.24707 0.88356 0.41318 0.0
H1544 H 0.24849 0.8655 0.42189 0.0
H1545 H 0.26756 0.88632 0.41695 0.0
C1546 C 0.06695 0.37475 0.40302 0.0
C1547 C 0.05006 0.36113 0.40625 0.0
C1548 C 0.07999 0.37754 0.41731 0.0
C1549 C 0.07609 0.36607 0.43475 0.0
C1550 C 0.05894 0.35268 0.43853 0.0
C1551 C 0.04608 0.35054 0.42439 0.0
C1552 C 0.09805 0.3923 0.41318 0.0
C1553 C 0.0543 0.3399 0.4566 0.0
C1554 C 0.11077 0.35821 0.4518 0.0
C1555 C 0.11581 0.36695 0.47226 0.0
C1556 C 0.09782 0.35779 0.43957 0.0
C1557 C 0.09008 0.36685 0.44754 0.0
C1558 C 0.09545 0.37622 0.46776 0.0
C1559 C 0.10808 0.37595 0.48004 0.0
C1560 C 0.09227 0.3474 0.41822 0.0
C1561 C 0.08778 0.3864 0.4765 0.0
H1562 H 0.07001 0.38304 0.38909 0.0
H1563 H 0.03304 0.33991 0.42682 0.0
H1564 H 0.10403 0.39969 0.42865 0.0
H1565 H 0.10581 0.38699 0.40697 0.0
H1566 H 0.09857 0.40144 0.40099 0.0
H1567 H 0.04027 0.33106 0.45836 0.0
H1568 H 0.05997 0.33189 0.45305 0.0
H1569 H 0.05963 0.34689 0.47246 0.0
H1570 H 0.11694 0.35164 0.44523 0.0
H1571 H 0.11168 0.3826 0.49589 0.0
H1572 H 0.09449 0.3561 0.4045 0.0
H1573 H 0.07838 0.33753 0.41868 0.0
H1574 H 0.09921 0.34061 0.41469 0.0
H1575 H 0.08861 0.39544 0.46397 0.0
H1576 H 0.09425 0.39406 0.49165 0.0
H1577 H 0.07405 0.37739 0.48014 0.0
C1578 C 0.04827 0.33192 0.28724 0.0
C1579 C 0.0316 0.32018 0.29435 0.0
C1580 C 0.05643 0.32668 0.2722 0.0
C1581 C 0.04777 0.30922 0.26422 0.0
C1582 C 0.03082 0.29736 0.27097 0.0
C1583 C 0.02289 0.30301 0.28591 0.0
C1584 C 0.07449 0.33976 0.26523 0.0
C1585 C 0.02124 0.27862 0.26291 0.0
C1586 C 0.06737 0.3012 0.21366 0.0
C1587 C 0.07816 0.29662 0.22312 0.0
C1588 C 0.05678 0.30465 0.22677 0.0
C1589 C 0.05694 0.30329 0.24978 0.0
C1590 C 0.06712 0.2977 0.25924 0.0
C1591 C 0.07767 0.29452 0.24578 0.0
C1592 C 0.04617 0.31065 0.21612 0.0
C1593 C 0.06748 0.29588 0.28367 0.0
H1594 H 0.05504 0.34525 0.29354 0.0
H1595 H 0.01 0.29386 0.29135 0.0
H1596 H 0.08323 0.33569 0.27083 0.0
H1597 H 0.07531 0.34029 0.24711 0.0
H1598 H 0.07907 0.35306 0.272 0.0
H1599 H 0.00781 0.27131 0.26872 0.0
H1600 H 0.02127 0.27792 0.24476 0.0
H1601 H 0.02774 0.27205 0.26872 0.0
H1602 H 0.06783 0.30293 0.19613 0.0
H1603 H 0.08589 0.29077 0.25305 0.0
H1604 H 0.05136 0.32454 0.22063 0.0
H1605 H 0.03281 0.30313 0.22209 0.0
H1606 H 0.0461 0.3093 0.19798 0.0
H1607 H 0.07344 0.30891 0.29189 0.0
H1608 H 0.07481 0.28983 0.28818 0.0
H1609 H 0.05431 0.28786 0.29013 0.0
C1610 C 0.69812 0.73876 0.28982 0.0
C1611 C 0.69139 0.72117 0.28409 0.0
C1612 C 0.70086 0.75084 0.27395 0.0
C1613 C 0.69668 0.74518 0.25183 0.0
C1614 C 0.69063 0.72763 0.24577 0.0
C1615 C 0.6881 0.71582 0.26199 0.0
C1616 C 0.70749 0.76949 0.28103 0.0
C1617 C 0.68601 0.72112 0.22235 0.0
C1618 C 0.68345 0.77062 0.21814 0.0
C1619 C 0.6983 0.78131 0.20609 0.0
C1620 C 0.68269 0.75859 0.23272 0.0
C1621 C 0.69719 0.75727 0.23549 0.0
C1622 C 0.71218 0.76788 0.22326 0.0
C1623 C 0.71255 0.77977 0.20866 0.0
C1624 C 0.66646 0.7475 0.24548 0.0
C1625 C 0.72787 0.76683 0.22583 0.0
H1626 H 0.70084 0.74303 0.30684 0.0
H1627 H 0.68292 0.70227 0.25742 0.0
H1628 H 0.71846 0.77853 0.27069 0.0
H1629 H 0.69735 0.77243 0.27884 0.0
H1630 H 0.71159 0.77214 0.29845 0.0
H1631 H 0.68306 0.70757 0.21999 0.0
H1632 H 0.67466 0.72147 0.21744 0.0
H1633 H 0.69659 0.72969 0.21121 0.0
H1634 H 0.67249 0.77194 0.21655 0.0
H1635 H 0.72399 0.78785 0.19921 0.0
H1636 H 0.669 0.75051 0.26326 0.0
H1637 H 0.66187 0.73351 0.24282 0.0
H1638 H 0.65611 0.74962 0.24077 0.0
H1639 H 0.73259 0.77037 0.24293 0.0
H1640 H 0.73833 0.77561 0.21464 0.0
H1641 H 0.72465 0.75329 0.22255 0.0
C1642 C 0.27187 0.94914 0.2978 0.0
C1643 C 0.27926 0.967 0.30239 0.0
C1644 C 0.25927 0.94053 0.28166 0.0
C1645 C 0.25387 0.94998 0.26979 0.0
C1646 C 0.26115 0.96797 0.2744 0.0
C1647 C 0.27379 0.97629 0.29066 0.0
C1648 C 0.25182 0.92131 0.27721 0.0
C1649 C 0.25564 0.97843 0.26209 0.0
C1650 C 0.23304 0.92885 0.21528 0.0
C1651 C 0.21567 0.91974 0.22083 0.0
C1652 C 0.24561 0.93939 0.23083 0.0
C1653 C 0.24068 0.94088 0.25243 0.0
C1654 C 0.22315 0.93237 0.25787 0.0
C1655 C 0.21084 0.92188 0.24201 0.0
C1656 C 0.26419 0.94832 0.22437 0.0
C1657 C 0.21739 0.93366 0.28074 0.0
H1658 H 0.27598 0.94183 0.30678 0.0
H1659 H 0.27941 0.99009 0.29412 0.0
H1660 H 0.23778 0.91404 0.27963 0.0
H1661 H 0.25418 0.91905 0.25993 0.0
H1662 H 0.25733 0.91584 0.28802 0.0
H1663 H 0.26238 0.99226 0.26785 0.0
H1664 H 0.25816 0.97798 0.24435 0.0
H1665 H 0.24169 0.97266 0.26401 0.0
H1666 H 0.23682 0.92748 0.19882 0.0
H1667 H 0.19745 0.91476 0.24647 0.0
H1668 H 0.27037 0.94254 0.23322 0.0
H1669 H 0.27099 0.96235 0.22911 0.0
H1670 H 0.26585 0.94706 0.2065 0.0
H1671 H 0.22108 0.9269 0.29219 0.0
H1672 H 0.20335 0.92772 0.28174 0.0
H1673 H 0.22379 0.94747 0.2864 0.0
C1674 C 0.68361 0.95824 0.28413 0.0
C1675 C 0.66734 0.94769 0.29327 0.0
C1676 C 0.68978 0.9516 0.2679 0.0
C1677 C 0.67943 0.934 0.26074 0.0
C1678 C 0.66302 0.9233 0.26992 0.0
C1679 C 0.65717 0.93028 0.28604 0.0
C1680 C 0.70732 0.96338 0.25842 0.0
C1681 C 0.65162 0.90444 0.26274 0.0
C1682 C 0.68554 0.91753 0.2057 0.0
C1683 C 0.69334 0.90851 0.2118 0.0
C1684 C 0.68167 0.92661 0.22135 0.0
C1685 C 0.68563 0.9266 0.24363 0.0
C1686 C 0.69422 0.9182 0.24974 0.0
C1687 C 0.69799 0.90927 0.23374 0.0
C1688 C 0.67264 0.93554 0.21416 0.0
C1689 C 0.69864 0.91788 0.27335 0.0
H1690 H 0.69154 0.97172 0.28961 0.0
H1691 H 0.6446 0.92202 0.29302 0.0
H1692 H 0.71545 0.95795 0.2612 0.0
H1693 H 0.70638 0.96413 0.24045 0.0
H1694 H 0.71374 0.97678 0.2657 0.0
H1695 H 0.63924 0.89786 0.27159 0.0
H1696 H 0.64902 0.9035 0.24493 0.0
H1697 H 0.65814 0.89728 0.2656 0.0
H1698 H 0.68215 0.91718 0.1887 0.0
H1699 H 0.70387 0.90218 0.23858 0.0
H1700 H 0.67928 0.94914 0.22074 0.0
H1701 H 0.65946 0.92868 0.22082 0.0
H1702 H 0.6719 0.93573 0.19605 0.0
H1703 H 0.70547 0.93123 0.28072 0.0
H1704 H 0.70671 0.91222 0.27511 0.0
H1705 H 0.68673 0.91001 0.28286 0.0
C1706 C 0.03821 0.74082 0.29411 0.0
C1707 C 0.02653 0.72353 0.28743 0.0
C1708 C 0.04831 0.75348 0.2788 0.0
C1709 C 0.04677 0.74871 0.25629 0.0
C1710 C 0.03457 0.73145 0.24936 0.0
C1711 C 0.02454 0.71906 0.26502 0.0
C1712 C 0.06107 0.7718 0.28681 0.0
C1713 C 0.03262 0.72586 0.2255 0.0
C1714 C 0.06674 0.78493 0.21508 0.0
C1715 C 0.0826 0.78661 0.21128 0.0
C1716 C 0.05483 0.77251 0.2295 0.0
C1717 C 0.05884 0.76147 0.24026 0.0
C1718 C 0.07469 0.76291 0.23622 0.0
C1719 C 0.08639 0.7755 0.22188 0.0
C1720 C 0.03806 0.77136 0.23346 0.0
C1721 C 0.07944 0.75135 0.24735 0.0
H1722 H 0.03975 0.74441 0.31138 0.0
H1723 H 0.01554 0.70574 0.25972 0.0
H1724 H 0.07422 0.77477 0.28371 0.0
H1725 H 0.05953 0.78132 0.27771 0.0
H1726 H 0.05973 0.77373 0.3046 0.0
H1727 H 0.02165 0.71236 0.22262 0.0
H1728 H 0.03085 0.73479 0.21544 0.0
H1729 H 0.04443 0.72656 0.21969 0.0
H1730 H 0.06363 0.79331 0.20676 0.0
H1731 H 0.09871 0.77689 0.21937 0.0
H1732 H 0.03697 0.77419 0.25099 0.0
H1733 H 0.02727 0.75796 0.22963 0.0
H1734 H 0.03673 0.78062 0.22343 0.0
H1735 H 0.08001 0.75369 0.26533 0.0
H1736 H 0.09198 0.75366 0.24176 0.0
H1737 H 0.06955 0.73746 0.2441 0.0
C1738 C 0.26987 0.29982 0.28172 0.0
C1739 C 0.28269 0.31755 0.28242 0.0
C1740 C 0.25542 0.29358 0.26831 0.0
C1741 C 0.25366 0.30542 0.25572 0.0
C1742 C 0.26683 0.32322 0.25584 0.0
C1743 C 0.28125 0.32903 0.26903 0.0
C1744 C 0.2418 0.27444 0.26819 0.0
C1745 C 0.26534 0.33631 0.24286 0.0
C1746 C 0.2216 0.29239 0.2097 0.0
C1747 C 0.20883 0.29397 0.22025 0.0
C1748 C 0.23587 0.29506 0.22132 0.0
C1749 C 0.23749 0.29968 0.24388 0.0
C1750 C 0.22426 0.30048 0.2548 0.0
C1751 C 0.21003 0.29743 0.2429 0.0
C1752 C 0.24957 0.29376 0.20922 0.0
C1753 C 0.22553 0.30546 0.27884 0.0
H1754 H 0.27098 0.29086 0.2919 0.0
H1755 H 0.29109 0.34275 0.26948 0.0
H1756 H 0.23017 0.27256 0.27643 0.0
H1757 H 0.2382 0.2693 0.25113 0.0
H1758 H 0.24603 0.26667 0.27672 0.0
H1759 H 0.27707 0.34952 0.24393 0.0
H1760 H 0.26278 0.33209 0.22538 0.0
H1761 H 0.25441 0.33715 0.24905 0.0
H1762 H 0.22084 0.2898 0.19219 0.0
H1763 H 0.2 0.29822 0.25129 0.0
H1764 H 0.25346 0.28611 0.21862 0.0
H1765 H 0.26103 0.30698 0.20738 0.0
H1766 H 0.24528 0.28762 0.19266 0.0
H1767 H 0.22811 0.29697 0.28862 0.0
H1768 H 0.21372 0.30453 0.28513 0.0
H1769 H 0.23638 0.31905 0.2815 0.0
C1770 C 0.28585 0.33815 0.39729 0.0
C1771 C 0.28931 0.34699 0.37761 0.0
C1772 C 0.27688 0.3407 0.41422 0.0
C1773 C 0.27156 0.35263 0.41154 0.0
C1774 C 0.2757 0.36218 0.3921 0.0
C1775 C 0.28438 0.3591 0.37525 0.0
C1776 C 0.27244 0.33005 0.43455 0.0
C1777 C 0.27055 0.37528 0.38884 0.0
C1778 C 0.23227 0.34508 0.44219 0.0
C1779 C 0.23942 0.35679 0.46012 0.0
C1780 C 0.24261 0.3435 0.42644 0.0
C1781 C 0.26058 0.35416 0.42835 0.0
C1782 C 0.26793 0.36615 0.44622 0.0
C1783 C 0.25727 0.36721 0.46201 0.0
C1784 C 0.23427 0.33042 0.40772 0.0
C1785 C 0.28706 0.37788 0.44861 0.0
H1786 H 0.28959 0.32872 0.39917 0.0
H1787 H 0.28717 0.36609 0.36014 0.0
H1788 H 0.27667 0.33867 0.4494 0.0
H1789 H 0.25838 0.32123 0.43567 0.0
H1790 H 0.27835 0.32206 0.43462 0.0
H1791 H 0.2761 0.38276 0.37371 0.0
H1792 H 0.25644 0.36849 0.38779 0.0
H1793 H 0.27468 0.38456 0.40305 0.0
H1794 H 0.21852 0.33725 0.44024 0.0
H1795 H 0.26294 0.37614 0.47592 0.0
H1796 H 0.23891 0.32132 0.40726 0.0
H1797 H 0.23781 0.33721 0.39193 0.0
H1798 H 0.22012 0.32271 0.40902 0.0
H1799 H 0.29291 0.36994 0.45008 0.0
H1800 H 0.29075 0.38682 0.46316 0.0
H1801 H 0.29252 0.38578 0.43378 0.0
C1802 C 0.64882 0.95568 0.42442 0.0
C1803 C 0.64633 0.95101 0.40207 0.0
C1804 C 0.6459 0.94342 0.44019 0.0
C1805 C 0.64026 0.92609 0.43342 0.0
C1806 C 0.63715 0.92117 0.41097 0.0
C1807 C 0.64027 0.93369 0.39557 0.0
C1808 C 0.64941 0.94915 0.46399 0.0
C1809 C 0.63101 0.90278 0.40313 0.0
C1810 C 0.65064 0.89872 0.46796 0.0
C1811 C 0.63498 0.8877 0.47828 0.0
C1812 C 0.65261 0.91153 0.45374 0.0
C1813 C 0.63855 0.91331 0.44959 0.0
C1814 C 0.62277 0.90242 0.46016 0.0
C1815 C 0.62118 0.88976 0.47442 0.0
C1816 C 0.66967 0.92291 0.44279 0.0
C1817 C 0.60749 0.90393 0.4561 0.0
H1818 H 0.65351 0.96903 0.42958 0.0
H1819 H 0.6382 0.92994 0.37835 0.0
H1820 H 0.63812 0.94047 0.47411 0.0
H1821 H 0.66018 0.94815 0.46986 0.0
H1822 H 0.65267 0.96278 0.46672 0.0
H1823 H 0.62822 0.90081 0.38529 0.0
H1824 H 0.64088 0.89966 0.40659 0.0
H1825 H 0.61929 0.89339 0.41209 0.0
H1826 H 0.66129 0.89705 0.47056 0.0
H1827 H 0.60911 0.88146 0.48257 0.0
H1828 H 0.67423 0.93685 0.44592 0.0
H1829 H 0.66827 0.92053 0.4248 0.0
H1830 H 0.67955 0.92045 0.4486 0.0
H1831 H 0.61077 0.91745 0.45974 0.0
H1832 H 0.59631 0.8949 0.4662 0.0
H1833 H 0.6038 0.90103 0.43858 0.0
C1834 C 0.0507 0.71429 0.40878 0.0
C1835 C 0.0571 0.71824 0.38738 0.0
C1836 C 0.06171 0.72075 0.42692 0.0
C1837 C 0.07954 0.73139 0.42357 0.0
C1838 C 0.0861 0.73511 0.40201 0.0
C1839 C 0.0748 0.7285 0.38417 0.0
C1840 C 0.05424 0.71653 0.44968 0.0
C1841 C 0.10505 0.74638 0.39779 0.0
C1842 C 0.10714 0.76367 0.46836 0.0
C1843 C 0.11467 0.75529 0.47759 0.0
C1844 C 0.09548 0.7559 0.45102 0.0
C1845 C 0.09129 0.73935 0.4426 0.0
C1846 C 0.09864 0.73068 0.45201 0.0
C1847 C 0.11025 0.73876 0.46941 0.0
C1848 C 0.08792 0.76556 0.44141 0.0
C1849 C 0.09442 0.71299 0.44349 0.0
H1850 H 0.03704 0.70634 0.41143 0.0
H1851 H 0.07986 0.73156 0.36769 0.0
H1852 H 0.06013 0.71071 0.45907 0.0
H1853 H 0.05715 0.72868 0.45858 0.0
H1854 H 0.04018 0.70737 0.44947 0.0
H1855 H 0.10814 0.74739 0.38005 0.0
H1856 H 0.11001 0.75967 0.40478 0.0
H1857 H 0.11189 0.74104 0.40604 0.0
H1858 H 0.11071 0.77658 0.47432 0.0
H1859 H 0.1159 0.73214 0.47662 0.0
H1860 H 0.07377 0.75738 0.44178 0.0
H1861 H 0.09178 0.76837 0.42402 0.0
H1862 H 0.09204 0.77805 0.45035 0.0
H1863 H 0.08042 0.70362 0.44409 0.0
H1864 H 0.10086 0.70778 0.453 0.0
H1865 H 0.09835 0.71381 0.4261 0.0
C1866 C 0.30813 0.05483 0.70915 0.0
C1867 C 0.31629 0.04579 0.71334 0.0
C1868 C 0.3039 0.06257 0.72627 0.0
C1869 C 0.30797 0.06127 0.74809 0.0
C1870 C 0.31562 0.05162 0.75251 0.0
C1871 C 0.31968 0.04398 0.73508 0.0
C1872 C 0.29567 0.07271 0.72093 0.0
C1873 C 0.32013 0.04994 0.77557 0.0
C1874 C 0.31612 0.09786 0.78786 0.0
C1875 C 0.30076 0.09037 0.79962 0.0
C1876 C 0.31864 0.08845 0.7712 0.0
C1877 C 0.30544 0.07114 0.76606 0.0
C1878 C 0.28991 0.06344 0.77788 0.0
C1879 C 0.28775 0.07317 0.79454 0.0
C1880 C 0.33537 0.09714 0.75893 0.0
C1881 C 0.27558 0.04499 0.77285 0.0
H1882 H 0.30536 0.0562 0.69242 0.0
H1883 H 0.32592 0.03695 0.73848 0.0
H1884 H 0.28402 0.06826 0.73097 0.0
H1885 H 0.3046 0.08671 0.72501 0.0
H1886 H 0.29215 0.07136 0.70336 0.0
H1887 H 0.32479 0.04087 0.77642 0.0
H1888 H 0.33025 0.0629 0.78209 0.0
H1889 H 0.30887 0.04525 0.78644 0.0
H1890 H 0.32611 0.11125 0.79141 0.0
H1891 H 0.27591 0.06727 0.8037 0.0
H1892 H 0.33305 0.09769 0.7413 0.0
H1893 H 0.34148 0.08941 0.7602 0.0
H1894 H 0.34445 0.11058 0.76522 0.0
H1895 H 0.27142 0.04376 0.7556 0.0
H1896 H 0.26437 0.04087 0.78369 0.0
H1897 H 0.28011 0.03592 0.77472 0.0
C1898 C 0.96918 0.269 0.73949 0.0
C1899 C 0.96094 0.27772 0.734 0.0
C1900 C 0.96231 0.25612 0.75539 0.0
C1901 C 0.94668 0.25166 0.76562 0.0
C1902 C 0.9383 0.26039 0.76004 0.0
C1903 C 0.94561 0.27341 0.74446 0.0
C1904 C 0.97173 0.24729 0.76124 0.0
C1905 C 0.92146 0.2558 0.77032 0.0
C1906 C 0.91772 0.20752 0.79029 0.0
C1907 C 0.91967 0.21183 0.81272 0.0
C1908 C 0.92703 0.22025 0.77474 0.0
C1909 C 0.93873 0.23762 0.78185 0.0
C1910 C 0.94146 0.24181 0.80453 0.0
C1911 C 0.93175 0.22887 0.81972 0.0
C1912 C 0.92354 0.21531 0.75071 0.0
C1913 C 0.95406 0.26011 0.81273 0.0
H1914 H 0.9811 0.27238 0.73153 0.0
H1915 H 0.93913 0.28003 0.74019 0.0
H1916 H 0.97432 0.24878 0.77909 0.0
H1917 H 0.9637 0.23313 0.75735 0.0
H1918 H 0.98403 0.25268 0.75234 0.0
H1919 H 0.91652 0.26372 0.764 0.0
H1920 H 0.91179 0.24184 0.76706 0.0
H1921 H 0.9229 0.25784 0.78834 0.0
H1922 H 0.90824 0.19437 0.78487 0.0
H1923 H 0.93332 0.23215 0.83709 0.0
H1924 H 0.93566 0.21997 0.74168 0.0
H1925 H 0.91723 0.22168 0.74366 0.0
H1926 H 0.91517 0.20102 0.74789 0.0
H1927 H 0.96648 0.26537 0.80421 0.0
H1928 H 0.95623 0.26075 0.83066 0.0
H1929 H 0.94922 0.26869 0.8091 0.0
C1930 C 0.72892 0.70508 0.73276 0.0
C1931 C 0.71719 0.68706 0.73163 0.0
C1932 C 0.74349 0.71222 0.74614 0.0
C1933 C 0.74656 0.701 0.75816 0.0
C1934 C 0.73455 0.68284 0.75742 0.0
C1935 C 0.71993 0.67612 0.74435 0.0
C1936 C 0.75579 0.73169 0.74699 0.0
C1937 C 0.73748 0.67038 0.7697 0.0
C1938 C 0.79139 0.71269 0.7714 0.0
C1939 C 0.7919 0.71511 0.79423 0.0
C1940 C 0.77698 0.70887 0.75931 0.0
C1941 C 0.76286 0.70788 0.77023 0.0
C1942 C 0.76378 0.71164 0.79301 0.0
C1943 C 0.77825 0.71505 0.8048 0.0
C1944 C 0.77647 0.70483 0.73506 0.0
C1945 C 0.74913 0.71111 0.80512 0.0
H1946 H 0.72676 0.7136 0.7231 0.0
H1947 H 0.71095 0.66217 0.7435 0.0
H1948 H 0.75882 0.73652 0.76424 0.0
H1949 H 0.76796 0.73493 0.73895 0.0
H1950 H 0.75064 0.73872 0.73868 0.0
H1951 H 0.72666 0.65668 0.76788 0.0
H1952 H 0.74925 0.67115 0.76357 0.0
H1953 H 0.73941 0.67405 0.78737 0.0
H1954 H 0.80209 0.7132 0.76301 0.0
H1955 H 0.77848 0.71687 0.82243 0.0
H1956 H 0.77285 0.71273 0.72574 0.0
H1957 H 0.76662 0.69093 0.73172 0.0
H1958 H 0.78893 0.70732 0.72881 0.0
H1959 H 0.74429 0.71807 0.79601 0.0
H1960 H 0.75287 0.717 0.82187 0.0
H1961 H 0.73845 0.69739 0.80651 0.0
C1962 C 0.71385 0.64323 0.64144 0.0
C1963 C 0.70533 0.65198 0.63781 0.0
C1964 C 0.72098 0.63873 0.624 0.0
C1965 C 0.71965 0.6432 0.60244 0.0
C1966 C 0.71053 0.65147 0.59857 0.0
C1967 C 0.70343 0.65572 0.6163 0.0
C1968 C 0.73049 0.62977 0.62875 0.0
C1969 C 0.70891 0.65651 0.57582 0.0
C1970 C 0.75517 0.65088 0.56344 0.0
C1971 C 0.74746 0.63535 0.55083 0.0
C1972 C 0.74613 0.65367 0.58 0.0
C1973 C 0.729 0.64053 0.58427 0.0
C1974 C 0.72106 0.62486 0.57155 0.0
C1975 C 0.73038 0.62246 0.55492 0.0
C1976 C 0.75505 0.67059 0.59319 0.0
C1977 C 0.70281 0.61055 0.5757 0.0
H1978 H 0.71526 0.64017 0.65798 0.0
H1979 H 0.69682 0.66244 0.61333 0.0
H1980 H 0.72577 0.61798 0.61802 0.0
H1981 H 0.74426 0.63862 0.62515 0.0
H1982 H 0.72916 0.62589 0.64609 0.0
H1983 H 0.70027 0.66159 0.57532 0.0
H1984 H 0.72168 0.6667 0.56985 0.0
H1985 H 0.70401 0.64515 0.56429 0.0
H1986 H 0.76845 0.66076 0.56073 0.0
H1987 H 0.7243 0.6105 0.54512 0.0
H1988 H 0.75574 0.66795 0.61063 0.0
H1989 H 0.74768 0.67707 0.59245 0.0
H1990 H 0.76822 0.67972 0.58726 0.0
H1991 H 0.70155 0.6059 0.59262 0.0
H1992 H 0.6984 0.59929 0.56407 0.0
H1993 H 0.69424 0.61563 0.57431 0.0
C1994 C 0.36224 0.0634 0.61396 0.0
C1995 C 0.34483 0.05191 0.61815 0.0
C1996 C 0.36763 0.07668 0.59879 0.0
C1997 C 0.35533 0.07874 0.58806 0.0
C1998 C 0.33774 0.06707 0.59212 0.0
C1999 C 0.3327 0.05367 0.60692 0.0
C2000 C 0.38648 0.08862 0.59446 0.0
C2001 C 0.32423 0.06905 0.58134 0.0
C2002 C 0.36742 0.123 0.56774 0.0
C2003 C 0.36753 0.12046 0.54504 0.0
C2004 C 0.36389 0.10965 0.58199 0.0
C2005 C 0.36075 0.09352 0.57329 0.0
C2006 C 0.36161 0.09117 0.55039 0.0
C2007 C 0.36477 0.10463 0.53648 0.0
C2008 C 0.36273 0.11253 0.60627 0.0
C2009 C 0.35872 0.07431 0.54055 0.0
H2010 H 0.37164 0.06199 0.62252 0.0
H2011 H 0.31923 0.0449 0.61023 0.0
H2012 H 0.38903 0.08897 0.57661 0.0
H2013 H 0.39069 0.10209 0.60005 0.0
H2014 H 0.39431 0.08451 0.60293 0.0
H2015 H 0.3111 0.0588 0.58615 0.0
H2016 H 0.32619 0.08196 0.58588 0.0
H2017 H 0.32531 0.0685 0.56328 0.0
H2018 H 0.3694 0.13522 0.57428 0.0
H2019 H 0.36495 0.10275 0.51889 0.0
H2020 H 0.37126 0.10971 0.61543 0.0
H2021 H 0.3495 0.10343 0.61198 0.0
H2022 H 0.36621 0.12606 0.61045 0.0
H2023 H 0.36686 0.07053 0.54888 0.0
H2024 H 0.36152 0.07521 0.52273 0.0
H2025 H 0.34524 0.06374 0.54301 0.0
C2026 C 0.95037 0.28932 0.61635 0.0
C2027 C 0.94427 0.29084 0.63694 0.0
C2028 C 0.93924 0.28134 0.59848 0.0
C2029 C 0.92157 0.27455 0.60135 0.0
C2030 C 0.91538 0.27635 0.62198 0.0
C2031 C 0.92682 0.28456 0.63949 0.0
C2032 C 0.94633 0.27984 0.57666 0.0
C2033 C 0.8966 0.26911 0.62572 0.0
C2034 C 0.89293 0.26352 0.55167 0.0
C2035 C 0.88603 0.24556 0.5491 0.0
C2036 C 0.90469 0.27321 0.56848 0.0
C2037 C 0.90942 0.26466 0.58316 0.0
C2038 C 0.90243 0.24651 0.58066 0.0
C2039 C 0.89088 0.2372 0.56359 0.0
C2040 C 0.91205 0.29258 0.57051 0.0
C2041 C 0.90699 0.23687 0.59614 0.0
H2042 H 0.96385 0.29426 0.6142 0.0
H2043 H 0.92201 0.28568 0.65535 0.0
H2044 H 0.94119 0.26593 0.57236 0.0
H2045 H 0.94227 0.28515 0.5636 0.0
H2046 H 0.9605 0.28684 0.57674 0.0
H2047 H 0.89395 0.27225 0.64246 0.0
H2048 H 0.89171 0.27436 0.61365 0.0
H2049 H 0.88934 0.25475 0.62328 0.0
H2050 H 0.88926 0.27 0.54038 0.0
H2051 H 0.88536 0.22327 0.56182 0.0
H2052 H 0.92619 0.29968 0.56955 0.0
H2053 H 0.90875 0.2959 0.5867 0.0
H2054 H 0.90728 0.2973 0.55753 0.0
H2055 H 0.92097 0.24241 0.59584 0.0
H2056 H 0.90038 0.22274 0.59195 0.0
H2057 H 0.90355 0.23849 0.61315 0.0
C2058 C 0.35516 0.28296 0.64165 0.0
C2059 C 0.34627 0.29129 0.63766 0.0
C2060 C 0.35905 0.27492 0.62454 0.0
C2061 C 0.35405 0.27534 0.60289 0.0
C2062 C 0.34563 0.28428 0.59863 0.0
C2063 C 0.34177 0.29209 0.61609 0.0
C2064 C 0.36797 0.26544 0.62974 0.0
C2065 C 0.34025 0.28514 0.57573 0.0
C2066 C 0.37452 0.2636 0.55663 0.0
C2067 C 0.36191 0.24612 0.55222 0.0
C2068 C 0.37204 0.27341 0.57282 0.0
C2069 C 0.35666 0.26548 0.58498 0.0
C2070 C 0.34384 0.24789 0.58046 0.0
C2071 C 0.34661 0.23844 0.56409 0.0
C2072 C 0.38591 0.29219 0.57706 0.0
C2073 C 0.32733 0.23892 0.5932 0.0
H2074 H 0.35869 0.28229 0.65826 0.0
H2075 H 0.33501 0.29861 0.61284 0.0
H2076 H 0.35939 0.25133 0.62591 0.0
H2077 H 0.37953 0.27019 0.61943 0.0
H2078 H 0.3718 0.2671 0.64722 0.0
H2079 H 0.335 0.2937 0.57493 0.0
H2080 H 0.35126 0.29003 0.56438 0.0
H2081 H 0.33035 0.27189 0.56977 0.0
H2082 H 0.3863 0.2696 0.54734 0.0
H2083 H 0.33694 0.22486 0.56096 0.0
H2084 H 0.3907 0.29396 0.59407 0.0
H2085 H 0.3807 0.30071 0.57542 0.0
H2086 H 0.39684 0.29659 0.56563 0.0
H2087 H 0.33006 0.23885 0.6108 0.0
H2088 H 0.31854 0.22527 0.58736 0.0
H2089 H 0.32072 0.24615 0.59186 0.0
C2090 C 0.69002 0.07029 0.60394 0.0
C2091 C 0.69831 0.06463 0.61729 0.0
C2092 C 0.69896 0.08237 0.58749 0.0
C2093 C 0.71654 0.0888 0.5843 0.0
C2094 C 0.72495 0.08313 0.59773 0.0
C2095 C 0.71575 0.07117 0.61409 0.0
C2096 C 0.68964 0.08824 0.57355 0.0
C2097 C 0.74367 0.08964 0.59478 0.0
C2098 C 0.73923 0.10753 0.53074 0.0
C2099 C 0.74903 0.12538 0.53615 0.0
C2100 C 0.72792 0.0955 0.54592 0.0
C2101 C 0.72632 0.10149 0.56696 0.0
C2102 C 0.73545 0.11956 0.57209 0.0
C2103 C 0.74675 0.13129 0.55664 0.0
C2104 C 0.71837 0.07633 0.53983 0.0
C2105 C 0.73401 0.12645 0.59431 0.0
H2106 H 0.67656 0.06532 0.60633 0.0
H2107 H 0.72226 0.06685 0.62428 0.0
H2108 H 0.69584 0.10259 0.57507 0.0
H2109 H 0.69035 0.08501 0.55606 0.0
H2110 H 0.67599 0.08209 0.57821 0.0
H2111 H 0.74827 0.08388 0.60654 0.0
H2112 H 0.746 0.08647 0.57791 0.0
H2113 H 0.7514 0.10402 0.59699 0.0
H2114 H 0.74071 0.10291 0.51478 0.0
H2115 H 0.75438 0.14503 0.56105 0.0
H2116 H 0.7046 0.07018 0.54365 0.0
H2117 H 0.7233 0.06978 0.54965 0.0
H2118 H 0.71975 0.07393 0.5222 0.0
H2119 H 0.72041 0.12064 0.59891 0.0
H2120 H 0.74038 0.14086 0.59484 0.0
H2121 H 0.74001 0.12272 0.60683 0.0
C2122 C 0.92866 0.63094 0.6152 0.0
C2123 C 0.9388 0.64882 0.62039 0.0
C2124 C 0.91487 0.62447 0.60059 0.0
C2125 C 0.91109 0.63614 0.59114 0.0
C2126 C 0.92154 0.65423 0.59588 0.0
C2127 C 0.9353 0.66035 0.61038 0.0
C2128 C 0.9041 0.60513 0.59572 0.0
C2129 C 0.91788 0.6671 0.58619 0.0
C2130 C 0.88267 0.62513 0.54143 0.0
C2131 C 0.86763 0.62247 0.55119 0.0
C2132 C 0.89669 0.62862 0.55429 0.0
C2133 C 0.89561 0.62954 0.57738 0.0
C2134 C 0.8801 0.62581 0.5873 0.0
C2135 C 0.86629 0.62226 0.57407 0.0
C2136 C 0.91296 0.63235 0.54313 0.0
C2137 C 0.8784 0.6266 0.61186 0.0
H2138 H 0.93135 0.62196 0.62277 0.0
H2139 H 0.94308 0.67417 0.61425 0.0
H2140 H 0.89105 0.59987 0.60237 0.0
H2141 H 0.90282 0.60252 0.57777 0.0
H2142 H 0.90955 0.59798 0.60295 0.0
H2143 H 0.92765 0.68079 0.59082 0.0
H2144 H 0.91735 0.66572 0.56807 0.0
H2145 H 0.90522 0.66436 0.59185 0.0
H2146 H 0.88381 0.62539 0.52375 0.0
H2147 H 0.85456 0.6199 0.58166 0.0
H2148 H 0.91812 0.62513 0.5509 0.0
H2149 H 0.92275 0.64643 0.54495 0.0
H2150 H 0.91102 0.62879 0.52539 0.0
H2151 H 0.88266 0.61867 0.61983 0.0
H2152 H 0.86507 0.62189 0.61701 0.0
H2153 H 0.88674 0.64023 0.61797 0.0
C2154 C 0.951 0.67893 0.72524 0.0
C2155 C 0.96591 0.69047 0.71382 0.0
C2156 C 0.9439 0.68508 0.74068 0.0
C2157 C 0.95197 0.70321 0.74498 0.0
C2158 C 0.96732 0.71491 0.73407 0.0
C2159 C 0.97407 0.7084 0.7185 0.0
C2160 C 0.92742 0.67217 0.75186 0.0
C2161 C 0.97637 0.73431 0.73846 0.0
C2162 C 0.9212 0.71618 0.76528 0.0
C2163 C 0.92296 0.71627 0.78804 0.0
C2164 C 0.93126 0.71289 0.75102 0.0
C2165 C 0.94351 0.70978 0.75974 0.0
C2166 C 0.94621 0.71108 0.78265 0.0
C2167 C 0.93584 0.71427 0.79659 0.0
C2168 C 0.928 0.71165 0.72669 0.0
C2169 C 0.9593 0.70805 0.79252 0.0
H2170 H 0.94461 0.66505 0.72177 0.0
H2171 H 0.98567 0.71739 0.70986 0.0
H2172 H 0.92898 0.67391 0.7699 0.0
H2173 H 0.91721 0.67452 0.74734 0.0
H2174 H 0.92315 0.65847 0.74735 0.0
H2175 H 0.98893 0.74151 0.7301 0.0
H2176 H 0.96834 0.73921 0.7327 0.0
H2177 H 0.97835 0.73726 0.7563 0.0
H2178 H 0.91149 0.71809 0.75862 0.0
H2179 H 0.93723 0.71431 0.81418 0.0
H2180 H 0.92235 0.69796 0.72079 0.0
H2181 H 0.94015 0.71967 0.71772 0.0
H2182 H 0.91914 0.71596 0.72247 0.0
H2183 H 0.95482 0.69401 0.79097 0.0
H2184 H 0.96156 0.71201 0.81013 0.0
H2185 H 0.97161 0.71533 0.78363 0.0
C2186 C 0.32739 0.27823 0.74305 0.0
C2187 C 0.31534 0.28044 0.73238 0.0
C2188 C 0.32231 0.26495 0.75803 0.0
C2189 C 0.30476 0.25384 0.76286 0.0
C2190 C 0.29252 0.25622 0.75248 0.0
C2191 C 0.29796 0.26938 0.7371 0.0
C2192 C 0.33573 0.26261 0.76839 0.0
C2193 C 0.27374 0.24487 0.75762 0.0
C2194 C 0.29255 0.21022 0.78558 0.0
C2195 C 0.29352 0.21377 0.80816 0.0
C2196 C 0.29559 0.22298 0.77059 0.0
C2197 C 0.29935 0.23954 0.77843 0.0
C2198 C 0.29946 0.24286 0.80125 0.0
C2199 C 0.29676 0.22998 0.81588 0.0
C2200 C 0.29572 0.21905 0.74641 0.0
C2201 C 0.30305 0.26022 0.81022 0.0
H2202 H 0.34084 0.28666 0.73931 0.0
H2203 H 0.28862 0.27113 0.72896 0.0
H2204 H 0.3354 0.264 0.78646 0.0
H2205 H 0.33302 0.24931 0.76458 0.0
H2206 H 0.34882 0.2722 0.76262 0.0
H2207 H 0.26595 0.24888 0.74885 0.0
H2208 H 0.26909 0.23111 0.75302 0.0
H2209 H 0.27166 0.24541 0.77548 0.0
H2210 H 0.29021 0.19771 0.77966 0.0
H2211 H 0.29741 0.23264 0.83338 0.0
H2212 H 0.30884 0.22738 0.7399 0.0
H2213 H 0.28733 0.22213 0.73738 0.0
H2214 H 0.29145 0.20521 0.74296 0.0
H2215 H 0.31656 0.2704 0.80708 0.0
H2216 H 0.30069 0.26 0.82812 0.0
H2217 H 0.29497 0.26404 0.80182 0.0
C2218 C 0.72416 0.04581 0.73135 0.0
C2219 C 0.73003 0.04679 0.7098 0.0
C2220 C 0.73562 0.053 0.74898 0.0
C2221 C 0.75337 0.06143 0.74497 0.0
C2222 C 0.75934 0.06188 0.72337 0.0
C2223 C 0.74759 0.05452 0.70603 0.0
C2224 C 0.72876 0.05216 0.77181 0.0
C2225 C 0.77819 0.07077 0.71846 0.0
C2226 C 0.78262 0.09749 0.78512 0.0
C2227 C 0.78868 0.08924 0.79786 0.0
C2228 C 0.77121 0.08859 0.76781 0.0
C2229 C 0.7657 0.07096 0.7631 0.0
C2230 C 0.7718 0.06254 0.77583 0.0
C2231 C 0.78328 0.0718 0.79306 0.0
C2232 C 0.76506 0.09807 0.75454 0.0
C2233 C 0.76612 0.04373 0.77133 0.0
H2234 H 0.7106 0.03973 0.73444 0.0
H2235 H 0.75222 0.05528 0.68944 0.0
H2236 H 0.73412 0.04693 0.7832 0.0
H2237 H 0.73274 0.06547 0.77786 0.0
H2238 H 0.7146 0.04391 0.7724 0.0
H2239 H 0.78068 0.06881 0.7011 0.0
H2240 H 0.78448 0.08496 0.72201 0.0
H2241 H 0.78424 0.06581 0.72913 0.0
H2242 H 0.787 0.11106 0.78851 0.0
H2243 H 0.78786 0.06535 0.80296 0.0
H2244 H 0.75095 0.09135 0.75555 0.0
H2245 H 0.76839 0.09791 0.73705 0.0
H2246 H 0.77069 0.11182 0.76023 0.0
H2247 H 0.75206 0.03535 0.77311 0.0
H2248 H 0.77222 0.03915 0.78256 0.0
H2249 H 0.76926 0.04197 0.75423 0.0
C2250 C 0.0389 0.34188 0.07338 0.0
C2251 C 0.03977 0.3449 0.0509 0.0
C2252 C 0.04988 0.33766 0.08312 0.0
C2253 C 0.06192 0.33627 0.07002 0.0
C2254 C 0.06312 0.33967 0.04739 0.0
C2255 C 0.05208 0.34404 0.0381 0.0
C2256 C 0.04836 0.33435 0.10737 0.0
C2257 C 0.07573 0.33819 0.03289 0.0
C2258 C 0.09852 0.33759 0.09952 0.0
C2259 C 0.09242 0.3198 0.10129 0.0
C2260 C 0.08886 0.34317 0.08905 0.0
C2261 C 0.0728 0.33066 0.07995 0.0
C2262 C 0.06674 0.31271 0.08119 0.0
C2263 C 0.07659 0.30749 0.09193 0.0
C2264 C 0.0957 0.36243 0.0881 0.0
C2265 C 0.04969 0.29899 0.07158 0.0
H2266 H 0.02949 0.34263 0.0834 0.0
H2267 H 0.05278 0.34631 0.0207 0.0
H2268 H 0.04445 0.32065 0.11007 0.0
H2269 H 0.06093 0.3428 0.11547 0.0
H2270 H 0.0389 0.33678 0.11543 0.0
H2271 H 0.07557 0.34198 0.01582 0.0
H2272 H 0.08885 0.34655 0.03955 0.0
H2273 H 0.07272 0.32458 0.03259 0.0
H2274 H 0.11088 0.34719 0.10635 0.0
H2275 H 0.07169 0.29373 0.09345 0.0
H2276 H 0.08699 0.36548 0.09706 0.0
H2277 H 0.0962 0.36621 0.07088 0.0
H2278 H 0.10867 0.37049 0.09535 0.0
H2279 H 0.0393 0.29952 0.08024 0.0
H2280 H 0.04728 0.28564 0.07283 0.0
H2281 H 0.04904 0.30154 0.05409 0.0
C2282 C 0.64336 0.68572 0.05142 0.0
C2283 C 0.65471 0.68393 0.03771 0.0
C2284 C 0.64787 0.70198 0.0607 0.0
C2285 C 0.6641 0.71678 0.05615 0.0
C2286 C 0.67554 0.71509 0.04217 0.0
C2287 C 0.67071 0.6987 0.03311 0.0
C2288 C 0.63533 0.70332 0.07553 0.0
C2289 C 0.69296 0.73059 0.03694 0.0
C2290 C 0.67067 0.76163 0.0649 0.0
C2291 C 0.67898 0.76677 0.08525 0.0
C2292 C 0.66574 0.74538 0.05524 0.0
C2293 C 0.66921 0.73402 0.06619 0.0
C2294 C 0.67769 0.73917 0.08667 0.0
C2295 C 0.68248 0.75549 0.09596 0.0
C2296 C 0.65678 0.74035 0.03333 0.0
C2297 C 0.6816 0.72738 0.09883 0.0
H2298 H 0.63098 0.67438 0.05505 0.0
H2299 H 0.67956 0.69745 0.02252 0.0
H2300 H 0.641 0.70814 0.09205 0.0
H2301 H 0.63251 0.71288 0.06908 0.0
H2302 H 0.62313 0.69063 0.07717 0.0
H2303 H 0.70025 0.72712 0.02549 0.0
H2304 H 0.69165 0.74087 0.02952 0.0
H2305 H 0.70048 0.73624 0.05223 0.0
H2306 H 0.66812 0.77039 0.05646 0.0
H2307 H 0.68867 0.75931 0.11184 0.0
H2308 H 0.64409 0.72818 0.03471 0.0
H2309 H 0.66426 0.73771 0.02117 0.0
H2310 H 0.65498 0.75065 0.027 0.0
H2311 H 0.66958 0.71495 0.10233 0.0
H2312 H 0.68837 0.73339 0.11454 0.0
H2313 H 0.68963 0.72415 0.08853 0.0
C2314 C 0.29868 0.97113 0.04514 0.0
C2315 C 0.31243 0.96893 0.04861 0.0
C2316 C 0.28275 0.9602 0.05487 0.0
C2317 C 0.28051 0.94673 0.06838 0.0
C2318 C 0.29429 0.94434 0.07186 0.0
C2319 C 0.31011 0.95548 0.06191 0.0
C2320 C 0.26834 0.96312 0.05075 0.0
C2321 C 0.29234 0.93008 0.08615 0.0
C2322 C 0.24399 0.92849 0.10918 0.0
C2323 C 0.23163 0.91314 0.09829 0.0
C2324 C 0.26001 0.93952 0.09967 0.0
C2325 C 0.2637 0.93509 0.07878 0.0
C2326 C 0.25124 0.91965 0.06768 0.0
C2327 C 0.23535 0.90887 0.07757 0.0
C2328 C 0.273 0.95588 0.11199 0.0
C2329 C 0.25469 0.91455 0.04533 0.0
H2330 H 0.30035 0.98149 0.03488 0.0
H2331 H 0.32067 0.95371 0.06469 0.0
H2332 H 0.25733 0.95119 0.04328 0.0
H2333 H 0.26389 0.96581 0.06648 0.0
H2334 H 0.27216 0.97414 0.03975 0.0
H2335 H 0.30429 0.92994 0.08717 0.0
H2336 H 0.28857 0.93175 0.10293 0.0
H2337 H 0.28202 0.91722 0.07965 0.0
H2338 H 0.24124 0.93172 0.12531 0.0
H2339 H 0.22574 0.89713 0.06897 0.0
H2340 H 0.27664 0.96745 0.10216 0.0
H2341 H 0.28477 0.95569 0.11471 0.0
H2342 H 0.26814 0.95742 0.12811 0.0
H2343 H 0.25758 0.92483 0.03352 0.0
H2344 H 0.2437 0.90202 0.03901 0.0
H2345 H 0.26605 0.91336 0.04602 0.0
C2346 C 0.34119 0.05308 0.9858 0.0
C2347 C 0.33742 0.03749 0.97512 0.0
C2348 C 0.33678 0.06414 0.97639 0.0
C2349 C 0.32854 0.05956 0.95575 0.0
C2350 C 0.32488 0.04395 0.94478 0.0
C2351 C 0.3293 0.03307 0.95464 0.0
C2352 C 0.34078 0.08065 0.9886 0.0
C2353 C 0.31626 0.03873 0.92264 0.0
C2354 C 0.30288 0.07926 0.93934 0.0
C2355 C 0.31444 0.09264 0.92576 0.0
C2356 C 0.30736 0.06848 0.94939 0.0
C2357 C 0.32373 0.07108 0.94557 0.0
C2358 C 0.33542 0.08452 0.93178 0.0
C2359 C 0.33065 0.09518 0.92209 0.0
C2360 C 0.29462 0.05436 0.96414 0.0
C2361 C 0.35291 0.08754 0.92712 0.0
H2362 H 0.34741 0.05654 0.00166 0.0
H2363 H 0.3264 0.02108 0.94624 0.0
H2364 H 0.34916 0.09211 0.97852 0.0
H2365 H 0.32884 0.08055 0.99169 0.0
H2366 H 0.3472 0.08231 0.00452 0.0
H2367 H 0.31455 0.02629 0.91614 0.0
H2368 H 0.30354 0.03726 0.92379 0.0
H2369 H 0.32391 0.04906 0.91074 0.0
H2370 H 0.29041 0.07741 0.94236 0.0
H2371 H 0.33953 0.1054 0.91138 0.0
H2372 H 0.30017 0.0562 0.98071 0.0
H2373 H 0.29161 0.04144 0.95768 0.0
H2374 H 0.28252 0.05423 0.96566 0.0
H2375 H 0.36007 0.09023 0.94265 0.0
H2376 H 0.3605 0.0986 0.91608 0.0
H2377 H 0.35166 0.07564 0.91945 0.0
C2378 C 0.94787 0.29973 0.98385 0.0
C2379 C 0.96386 0.30475 0.99256 0.0
C2380 C 0.93742 0.28312 0.97418 0.0
C2381 C 0.94296 0.27118 0.97366 0.0
C2382 C 0.95881 0.27598 0.98317 0.0
C2383 C 0.96916 0.29279 0.9923 0.0
C2384 C 0.92071 0.27855 0.9639 0.0
C2385 C 0.96497 0.26347 0.98336 0.0
C2386 C 0.90894 0.22369 0.96285 0.0
C2387 C 0.91148 0.22164 0.94058 0.0
C2388 C 0.91941 0.23963 0.97403 0.0
C2389 C 0.93244 0.25391 0.96247 0.0
C2390 C 0.93517 0.25182 0.94 0.0
C2391 C 0.92474 0.23562 0.92937 0.0
C2392 C 0.91637 0.24126 0.99808 0.0
C2393 C 0.94877 0.26682 0.92705 0.0
H2394 H 0.94379 0.30899 0.9839 0.0
H2395 H 0.98146 0.2966 0.99918 0.0
H2396 H 0.92091 0.27576 0.94612 0.0
H2397 H 0.91001 0.2666 0.97116 0.0
H2398 H 0.91811 0.28919 0.96604 0.0
H2399 H 0.97705 0.26882 0.99269 0.0
H2400 H 0.95511 0.25103 0.99068 0.0
H2401 H 0.96709 0.26041 0.96634 0.0
H2402 H 0.89869 0.2128 0.97149 0.0
H2403 H 0.92654 0.23404 0.91207 0.0
H2404 H 0.91236 0.2508 0.00063 0.0
H2405 H 0.92838 0.24625 0.00742 0.0
H2406 H 0.90639 0.22865 0.00494 0.0
H2407 H 0.94622 0.27752 0.9272 0.0
H2408 H 0.94934 0.26297 0.90977 0.0
H2409 H 0.96146 0.27207 0.9347 0.0
C2410 C 0.71192 0.65897 0.97568 0.0
C2411 C 0.69885 0.65807 0.96312 0.0
C2412 C 0.72807 0.66474 0.96661 0.0
C2413 C 0.73111 0.66951 0.9444 0.0
C2414 C 0.71787 0.66829 0.93153 0.0
C2415 C 0.70193 0.66268 0.94109 0.0
C2416 C 0.74196 0.66604 0.98086 0.0
C2417 C 0.72058 0.67304 0.9077 0.0
C2418 C 0.77618 0.69998 0.92396 0.0
C2419 C 0.77983 0.6883 0.91346 0.0
C2420 C 0.76053 0.694 0.93461 0.0
C2421 C 0.74818 0.67593 0.93456 0.0
C2422 C 0.75188 0.66405 0.92433 0.0
C2423 C 0.7677 0.67037 0.91403 0.0
C2424 C 0.75706 0.70705 0.9455 0.0
C2425 C 0.739 0.64469 0.92388 0.0
H2426 H 0.70964 0.6555 0.99276 0.0
H2427 H 0.69186 0.66193 0.93126 0.0
H2428 H 0.7468 0.65808 0.97355 0.0
H2429 H 0.75288 0.67972 0.9818 0.0
H2430 H 0.73745 0.66161 0.99774 0.0
H2431 H 0.70882 0.67093 0.89983 0.0
H2432 H 0.73082 0.68693 0.90616 0.0
H2433 H 0.72481 0.66517 0.89858 0.0
H2434 H 0.7854 0.71386 0.9234 0.0
H2435 H 0.77056 0.66123 0.90634 0.0
H2436 H 0.75316 0.70358 0.96277 0.0
H2437 H 0.74633 0.70676 0.93708 0.0
H2438 H 0.76837 0.72053 0.94522 0.0
H2439 H 0.73512 0.64003 0.94079 0.0
H2440 H 0.74405 0.63716 0.91573 0.0
H2441 H 0.72734 0.64187 0.91506 0.0
C2442 C 0.96248 0.66877 0.94322 0.0
C2443 C 0.96068 0.66499 0.96553 0.0
C2444 C 0.95196 0.67336 0.93299 0.0
C2445 C 0.93942 0.67437 0.94544 0.0
C2446 C 0.93733 0.67031 0.9679 0.0
C2447 C 0.94794 0.66556 0.97767 0.0
C2448 C 0.95443 0.67739 0.90893 0.0
C2449 C 0.92417 0.67136 0.9817 0.0
C2450 C 0.9252 0.70342 0.92309 0.0
C2451 C 0.90975 0.69124 0.91277 0.0
C2452 C 0.93476 0.69806 0.93426 0.0
C2453 C 0.92883 0.68011 0.93496 0.0
C2454 C 0.91316 0.66773 0.92484 0.0
C2455 C 0.90377 0.67344 0.91396 0.0
C2456 C 0.9514 0.71165 0.94496 0.0
C2457 C 0.90645 0.64847 0.92517 0.0
H2458 H 0.97223 0.66824 0.9337 0.0
H2459 H 0.94652 0.66272 0.99495 0.0
H2460 H 0.94223 0.66905 0.89998 0.0
H2461 H 0.95828 0.69112 0.90668 0.0
H2462 H 0.96431 0.67535 0.90141 0.0
H2463 H 0.9238 0.66726 0.99876 0.0
H2464 H 0.92703 0.68493 0.9822 0.0
H2465 H 0.91131 0.66302 0.97432 0.0
H2466 H 0.93001 0.7172 0.92205 0.0
H2467 H 0.89169 0.66392 0.90639 0.0
H2468 H 0.96216 0.71143 0.93691 0.0
H2469 H 0.95141 0.70868 0.96244 0.0
H2470 H 0.95375 0.72498 0.94397 0.0
H2471 H 0.9156 0.64577 0.91676 0.0
H2472 H 0.89381 0.6405 0.91704 0.0
H2473 H 0.90527 0.64425 0.9423 0.0
C2474 C 0.35128 0.30493 0.97625 0.0
C2475 C 0.33975 0.30912 0.98513 0.0
C2476 C 0.34544 0.28858 0.96618 0.0
C2477 C 0.32768 0.27607 0.96541 0.0
C2478 C 0.31602 0.28011 0.97478 0.0
C2479 C 0.32219 0.29667 0.98434 0.0
C2480 C 0.35822 0.2848 0.95604 0.0
C2481 C 0.29703 0.26697 0.97466 0.0
C2482 C 0.31125 0.23987 0.92202 0.0
C2483 C 0.31034 0.22636 0.93378 0.0
C2484 C 0.31684 0.25614 0.93214 0.0
C2485 C 0.32131 0.25878 0.95462 0.0
C2486 C 0.31993 0.24498 0.9667 0.0
C2487 C 0.31462 0.22896 0.95605 0.0
C2488 C 0.3184 0.27063 0.91867 0.0
C2489 C 0.32423 0.2472 0.99078 0.0
H2490 H 0.36485 0.31458 0.97673 0.0
H2491 H 0.31324 0.29982 0.99136 0.0
H2492 H 0.35718 0.27333 0.96372 0.0
H2493 H 0.35543 0.28156 0.93834 0.0
H2494 H 0.37157 0.296 0.95789 0.0
H2495 H 0.28974 0.27198 0.98333 0.0
H2496 H 0.29232 0.26339 0.95756 0.0
H2497 H 0.29432 0.25488 0.98257 0.0
H2498 H 0.30812 0.23786 0.90473 0.0
H2499 H 0.31382 0.21843 0.9651 0.0
H2500 H 0.33185 0.28172 0.91874 0.0
H2501 H 0.31054 0.27548 0.92595 0.0
H2502 H 0.3143 0.26639 0.90142 0.0
H2503 H 0.33791 0.25733 0.99326 0.0
H2504 H 0.3217 0.23494 0.99801 0.0
H2505 H 0.31667 0.2517 -0.00016 0.0
C2506 C 0.69056 0.04695 0.95741 0.0
C2507 C 0.68768 0.03342 0.97098 0.0
C2508 C 0.70668 0.05795 0.94812 0.0
C2509 C 0.72017 0.05528 0.95242 0.0
C2510 C 0.71736 0.04169 0.96613 0.0
C2511 C 0.70116 0.03096 0.97529 0.0
C2512 C 0.70928 0.0724 0.93367 0.0
C2513 C 0.73143 0.03841 0.97102 0.0
C2514 C 0.75761 0.07315 0.9131 0.0
C2515 C 0.76996 0.08828 0.9244 0.0
C2516 C 0.74132 0.0623 0.922 0.0
C2517 C 0.73729 0.06673 0.94265 0.0
C2518 C 0.74968 0.08198 0.95414 0.0
C2519 C 0.76588 0.09253 0.94491 0.0
C2520 C 0.72843 0.0461 0.90932 0.0
C2521 C 0.74583 0.0871 0.97622 0.0
H2522 H 0.68022 0.04895 0.95402 0.0
H2523 H 0.69904 0.02051 0.98571 0.0
H2524 H 0.71959 0.08515 0.94045 0.0
H2525 H 0.71337 0.07071 0.9171 0.0
H2526 H 0.6975 0.0728 0.93205 0.0
H2527 H 0.72713 0.02728 0.982 0.0
H2528 H 0.73617 0.0357 0.95556 0.0
H2529 H 0.74236 0.05019 0.97886 0.0
H2530 H 0.76061 0.06992 0.89711 0.0
H2531 H 0.77544 0.10407 0.95387 0.0
H2532 H 0.71691 0.04661 0.90595 0.0
H2533 H 0.72429 0.03443 0.91919 0.0
H2534 H 0.7336 0.04449 0.8935 0.0
H2535 H 0.7346 0.08848 0.97497 0.0
H2536 H 0.75678 0.09955 0.98282 0.0
H2537 H 0.74254 0.07675 0.98809 0.0
C2538 C 0.6556 0.948 0.03164 0.0
C2539 C 0.66028 0.96362 0.04297 0.0
C2540 C 0.65928 0.93611 0.0402 0.0
C2541 C 0.66771 0.9399 0.06064 0.0
C2542 C 0.67231 0.95556 0.07225 0.0
C2543 C 0.6686 0.96726 0.06323 0.0
C2544 C 0.65427 0.91957 0.02732 0.0
C2545 C 0.68118 0.95997 0.0942 0.0
C2546 C 0.66389 0.90279 0.09275 0.0
C2547 C 0.6797 0.90452 0.08856 0.0
C2548 C 0.65977 0.91417 0.08365 0.0
C2549 C 0.67173 0.92751 0.06995 0.0
C2550 C 0.68766 0.92923 0.06552 0.0
C2551 C 0.69149 0.91774 0.07498 0.0
C2552 C 0.64273 0.91206 0.08893 0.0
C2553 C 0.70067 0.94322 0.05085 0.0
H2554 H 0.64922 0.94513 0.01593 0.0
H2555 H 0.6722 0.97928 0.07212 0.0
H2556 H 0.66578 0.91897 0.02366 0.0
H2557 H 0.64557 0.90808 0.03718 0.0
H2558 H 0.64783 0.91859 0.01166 0.0
H2559 H 0.68368 0.97257 0.10126 0.0
H2560 H 0.67327 0.94957 0.10591 0.0
H2561 H 0.69352 0.96066 0.0925 0.0
H2562 H 0.65484 0.89271 0.10347 0.0
H2563 H 0.70366 0.91898 0.07157 0.0
H2564 H 0.63556 0.91014 0.07361 0.0
H2565 H 0.64472 0.92407 0.09727 0.0
H2566 H 0.63477 0.90086 0.09963 0.0
H2567 H 0.69499 0.94203 0.03453 0.0
H2568 H 0.7123 0.94255 0.04866 0.0
H2569 H 0.70451 0.95626 0.05786 0.0
C2570 C 0.03173 0.71336 0.02678 0.0
C2571 C 0.03589 0.70053 0.0251 0.0
C2572 C 0.04281 0.72952 0.03711 0.0
C2573 C 0.05822 0.73274 0.04637 0.0
C2574 C 0.06265 0.71996 0.04433 0.0
C2575 C 0.05149 0.70405 0.03349 0.0
C2576 C 0.03784 0.74299 0.03854 0.0
C2577 C 0.07887 0.72284 0.0543 0.0
C2578 C 0.09396 0.77881 0.06108 0.0
C2579 C 0.0912 0.7798 0.08354 0.0
C2580 C 0.08307 0.76369 0.04862 0.0
C2581 C 0.06937 0.74917 0.05904 0.0
C2582 C 0.06648 0.75018 0.08172 0.0
C2583 C 0.07736 0.76558 0.09367 0.0
C2584 C 0.0863 0.76322 0.02439 0.0
C2585 C 0.05216 0.73485 0.09346 0.0
H2586 H 0.01971 0.71071 0.02015 0.0
H2587 H 0.0547 0.69411 0.03235 0.0
H2588 H 0.03565 0.74526 0.05588 0.0
H2589 H 0.04836 0.75558 0.03233 0.0
H2590 H 0.02607 0.73895 0.02906 0.0
H2591 H 0.08067 0.71179 0.05073 0.0
H2592 H 0.09009 0.73491 0.04805 0.0
H2593 H 0.07857 0.72459 0.07232 0.0
H2594 H 0.10464 0.78989 0.05329 0.0
H2595 H 0.07538 0.76635 0.1111 0.0
H2596 H 0.07463 0.75963 0.01501 0.0
H2597 H 0.08939 0.75311 0.02059 0.0
H2598 H 0.09698 0.77592 0.01862 0.0
H2599 H 0.03972 0.73088 0.08587 0.0
H2600 H 0.05165 0.73779 0.11114 0.0
H2601 H 0.0538 0.72356 0.09186 0.0
C2602 C 0.29078 0.34644 0.04643 0.0
C2603 C 0.29533 0.33393 0.04398 0.0
C2604 C 0.27568 0.34254 0.05728 0.0
C2605 C 0.26482 0.32569 0.06559 0.0
C2606 C 0.26921 0.31294 0.06282 0.0
C2607 C 0.28447 0.31725 0.05216 0.0
C2608 C 0.27146 0.35651 0.06015 0.0
C2609 C 0.25784 0.29476 0.07122 0.0
C2610 C 0.23434 0.31933 0.11186 0.0
C2611 C 0.21887 0.31276 0.10061 0.0
C2612 C 0.24943 0.32381 0.10062 0.0
C2613 C 0.24901 0.32144 0.07759 0.0
C2614 C 0.23344 0.31471 0.06612 0.0
C2615 C 0.21857 0.31053 0.07776 0.0
C2616 C 0.26581 0.33101 0.1134 0.0
C2617 C 0.2325 0.31187 0.04158 0.0
H2618 H 0.29915 0.35936 0.04019 0.0
H2619 H 0.28785 0.30748 0.05018 0.0
H2620 H 0.25881 0.35202 0.05283 0.0
H2621 H 0.27065 0.35913 0.07784 0.0
H2622 H 0.28114 0.36888 0.05249 0.0
H2623 H 0.26285 0.28621 0.06713 0.0
H2624 H 0.25658 0.29531 0.08926 0.0
H2625 H 0.24484 0.28874 0.06417 0.0
H2626 H 0.23463 0.32083 0.12954 0.0
H2627 H 0.20674 0.30571 0.06891 0.0
H2628 H 0.27569 0.34387 0.10706 0.0
H2629 H 0.27075 0.32222 0.11128 0.0
H2630 H 0.26406 0.33257 0.13117 0.0
H2631 H 0.24121 0.32436 0.0335 0.0
H2632 H 0.21938 0.30642 0.03514 0.0
H2633 H 0.23679 0.30282 0.03691 0.0
C2634 C 0.71208 0.67597 0.37185 0.0
C2635 C 0.71493 0.69218 0.37909 0.0
C2636 C 0.72122 0.66917 0.38071 0.0
C2637 C 0.73359 0.67886 0.39712 0.0
C2638 C 0.73681 0.69539 0.40418 0.0
C2639 C 0.7274 0.70184 0.39511 0.0
C2640 C 0.71739 0.65146 0.37284 0.0
C2641 C 0.75003 0.70613 0.42154 0.0
C2642 C 0.74491 0.65421 0.43541 0.0
C2643 C 0.76026 0.65715 0.42634 0.0
C2644 C 0.7361 0.6612 0.42604 0.0
C2645 C 0.74285 0.67146 0.40724 0.0
C2646 C 0.7583 0.67445 0.39797 0.0
C2647 C 0.76679 0.6672 0.40758 0.0
C2648 C 0.71959 0.65766 0.43632 0.0
C2649 C 0.76587 0.68532 0.37791 0.0
H2650 H 0.70247 0.6684 0.35947 0.0
H2651 H 0.7297 0.71439 0.40074 0.0
H2652 H 0.72921 0.65237 0.36671 0.0
H2653 H 0.71265 0.64239 0.38666 0.0
H2654 H 0.70767 0.6458 0.35957 0.0
H2655 H 0.75142 0.71898 0.42466 0.0
H2656 H 0.74644 0.699 0.43709 0.0
H2657 H 0.76261 0.70828 0.41654 0.0
H2658 H 0.73993 0.64669 0.4501 0.0
H2659 H 0.77852 0.66934 0.40033 0.0
H2660 H 0.70909 0.65118 0.42414 0.0
H2661 H 0.72077 0.67012 0.44148 0.0
H2662 H 0.716 0.64928 0.45079 0.0
H2663 H 0.75676 0.67938 0.36403 0.0
H2664 H 0.77812 0.68663 0.37292 0.0
H2665 H 0.76813 0.69853 0.38108 0.0
C2666 C 0.31157 0.02779 0.3939 0.0
C2667 C 0.32156 0.02317 0.38147 0.0
C2668 C 0.31838 0.04492 0.40185 0.0
C2669 C 0.3356 0.05772 0.39727 0.0
C2670 C 0.34572 0.05318 0.3846 0.0
C2671 C 0.33857 0.03596 0.37683 0.0
C2672 C 0.30719 0.04932 0.41525 0.0
C2673 C 0.36413 0.06648 0.37941 0.0
C2674 C 0.34784 0.10482 0.4023 0.0
C2675 C 0.35505 0.10958 0.42332 0.0
C2676 C 0.34179 0.08809 0.39341 0.0
C2677 C 0.343 0.07584 0.40585 0.0
C2678 C 0.35074 0.08072 0.4268 0.0
C2679 C 0.35667 0.09755 0.4353 0.0
C2680 C 0.33369 0.08337 0.37096 0.0
C2681 C 0.35228 0.06801 0.44052 0.0
H2682 H 0.29842 0.018 0.39753 0.0
H2683 H 0.3464 0.03251 0.36723 0.0
H2684 H 0.31284 0.0543 0.43175 0.0
H2685 H 0.30645 0.0598 0.40738 0.0
H2686 H 0.29403 0.0379 0.41718 0.0
H2687 H 0.37021 0.06088 0.36915 0.0
H2688 H 0.36497 0.07748 0.37068 0.0
H2689 H 0.37154 0.07192 0.39481 0.0
H2690 H 0.34675 0.11417 0.39289 0.0
H2691 H 0.36204 0.10109 0.45166 0.0
H2692 H 0.32007 0.07282 0.37223 0.0
H2693 H 0.34006 0.07837 0.36021 0.0
H2694 H 0.33441 0.09463 0.36304 0.0
H2695 H 0.33936 0.05695 0.44464 0.0
H2696 H 0.3594 0.07412 0.45599 0.0
H2697 H 0.35887 0.06255 0.43114 0.0
C2698 C 0.98043 0.29009 0.38587 0.0
C2699 C 0.98225 0.30397 0.37393 0.0
C2700 C 0.96473 0.278 0.39533 0.0
C2701 C 0.95052 0.27982 0.3927 0.0
C2702 C 0.9522 0.29363 0.38037 0.0
C2703 C 0.96805 0.30555 0.37115 0.0
C2704 C 0.96339 0.26343 0.40841 0.0
C2705 C 0.93731 0.29595 0.37714 0.0
C2706 C 0.90582 0.24101 0.40172 0.0
C2707 C 0.90213 0.24477 0.42276 0.0
C2708 C 0.92159 0.25222 0.39179 0.0
C2709 C 0.93396 0.26752 0.40322 0.0
C2710 C 0.93037 0.27131 0.42455 0.0
C2711 C 0.91448 0.25989 0.43405 0.0
C2712 C 0.92495 0.24782 0.36898 0.0
C2713 C 0.94329 0.28747 0.43728 0.0
H2714 H 0.99135 0.28879 0.38809 0.0
H2715 H 0.96932 0.3162 0.36189 0.0
H2716 H 0.95987 0.26449 0.42557 0.0
H2717 H 0.95314 0.25066 0.4016 0.0
H2718 H 0.97553 0.2636 0.40848 0.0
H2719 H 0.94061 0.30709 0.3666 0.0
H2720 H 0.92643 0.28395 0.3696 0.0
H2721 H 0.93291 0.29814 0.39323 0.0
H2722 H 0.89623 0.22942 0.39285 0.0
H2723 H 0.91176 0.2627 0.45044 0.0
H2724 H 0.93664 0.24718 0.36889 0.0
H2725 H 0.92723 0.25821 0.35769 0.0
H2726 H 0.91415 0.23521 0.36254 0.0
H2727 H 0.95534 0.28764 0.43904 0.0
H2728 H 0.93862 0.28833 0.45385 0.0
H2729 H 0.94637 0.29924 0.42824 0.0
C2730 C 0.00223 0.37369 0.28346 0.0
C2731 C 0.00988 0.37733 0.30419 0.0
C2732 C -0.00036 0.38579 0.27324 0.0
C2733 C 0.00472 0.40185 0.28409 0.0
C2734 C 0.01242 0.40561 0.30503 0.0
C2735 C 0.01497 0.39331 0.31481 0.0
C2736 C 0.9915 0.38139 0.25082 0.0
C2737 C 0.0179 0.42258 0.31713 0.0
C2738 C 0.01171 0.43925 0.24961 0.0
C2739 C 0.99623 0.43852 0.2525 0.0
C2740 C 0.01469 0.42745 0.2599 0.0
C2741 C 0.00191 0.4147 0.27349 0.0
C2742 C 0.98631 0.414 0.27663 0.0
C2743 C 0.98364 0.4259 0.26602 0.0
C2744 C 0.03142 0.42848 0.25603 0.0
C2745 C 0.97245 0.40066 0.29114 0.0
H2746 H 0.99832 0.3614 0.27511 0.0
H2747 H 0.02085 0.39619 0.33086 0.0
H2748 H 0.97954 0.38153 0.2514 0.0
H2749 H 0.00017 0.39135 0.23905 0.0
H2750 H 0.98845 0.3684 0.24451 0.0
H2751 H 0.02363 0.42346 0.33334 0.0
H2752 H 0.02737 0.43368 0.30725 0.0
H2753 H 0.00676 0.42403 0.31961 0.0
H2754 H 0.02139 0.44889 0.23898 0.0
H2755 H 0.97174 0.42545 0.26848 0.0
H2756 H 0.029 0.41609 0.2484 0.0
H2757 H 0.03798 0.43031 0.27184 0.0
H2758 H 0.04011 0.43933 0.24523 0.0
H2759 H 0.96816 0.38735 0.28477 0.0
H2760 H 0.96121 0.40209 0.29221 0.0
H2761 H 0.97751 0.40187 0.30789 0.0
C2762 C 0.61886 0.65263 0.29824 0.0
C2763 C 0.63139 0.65419 0.31251 0.0
C2764 C 0.60688 0.63646 0.28853 0.0
C2765 C 0.6075 0.62157 0.29324 0.0
C2766 C 0.61994 0.62302 0.3079 0.0
C2767 C 0.63172 0.6393 0.31737 0.0
C2768 C 0.59373 0.63535 0.27301 0.0
C2769 C 0.62098 0.60742 0.31332 0.0
C2770 C 0.56843 0.57662 0.28252 0.0
C2771 C 0.57264 0.57179 0.26252 0.0
C2772 C 0.5796 0.59285 0.29264 0.0
C2773 C 0.59536 0.60449 0.28252 0.0
C2774 C 0.59972 0.59968 0.26236 0.0
C2775 C 0.58829 0.58338 0.25259 0.0
C2776 C 0.57457 0.59751 0.3142 0.0
C2777 C 0.61643 0.61177 0.25109 0.0
H2778 H 0.61852 0.66406 0.29442 0.0
H2779 H 0.64133 0.64037 0.32841 0.0
H2780 H 0.59537 0.63095 0.25653 0.0
H2781 H 0.5807 0.62558 0.27868 0.0
H2782 H 0.59468 0.64805 0.27154 0.0
H2783 H 0.63116 0.61067 0.32547 0.0
H2784 H 0.60859 0.59699 0.31996 0.0
H2785 H 0.62356 0.60205 0.29823 0.0
H2786 H 0.55642 0.56762 0.29037 0.0
H2787 H 0.59148 0.57982 0.23697 0.0
H2788 H 0.57461 0.60972 0.31274 0.0
H2789 H 0.58402 0.59989 0.32701 0.0
H2790 H 0.56172 0.5871 0.31971 0.0
H2791 H 0.61741 0.62426 0.24771 0.0
H2792 H 0.61783 0.6061 0.23541 0.0
H2793 H 0.62725 0.61484 0.26196 0.0
C2794 C 0.36698 0.98148 0.3214 0.0
C2795 C 0.35787 0.98798 0.31158 0.0
C2796 C 0.38194 0.98378 0.31182 0.0
C2797 C 0.38785 0.99271 0.29193 0.0
C2798 C 0.37862 -0.00087 0.28183 0.0
C2799 C 0.36375 0.99672 0.2918 0.0
C2800 C 0.39151 0.9768 0.32306 0.0
C2801 C 0.38449 0.00864 0.26053 0.0
C2802 C 0.4345 0.01379 0.2763 0.0
C2803 C 0.4339 0.00166 0.26092 0.0
C2804 C 0.41963 0.01089 0.28683 0.0
C2805 C 0.4038 0.99554 0.28173 0.0
C2806 C 0.40315 0.98315 0.2664 0.0
C2807 C 0.41823 0.98635 0.25619 0.0
C2808 C 0.42083 0.02434 0.30321 0.0
C2809 C 0.38647 0.96668 0.26045 0.0
H2810 H 0.36252 0.97473 0.3367 0.0
H2811 H 0.35676 0.00174 0.28408 0.0
H2812 H 0.39268 0.96758 0.3119 0.0
H2813 H 0.40464 0.98764 0.32715 0.0
H2814 H 0.38512 0.97001 0.33835 0.0
H2815 H 0.37568 0.01253 0.2546 0.0
H2816 H 0.39738 0.0205 0.26265 0.0
H2817 H 0.38552 0.00026 0.24774 0.0
H2818 H 0.44664 0.02554 0.28016 0.0
H2819 H 0.41769 0.97704 0.24411 0.0
H2820 H 0.41543 0.01823 0.31915 0.0
H2821 H 0.41317 0.02967 0.29745 0.0
H2822 H 0.43419 0.0353 0.30585 0.0
H2823 H 0.38015 0.95928 0.27539 0.0
H2824 H 0.38824 0.95811 0.24875 0.0
H2825 H 0.3777 0.97002 0.25299 0.0
C2826 C 0.61428 0.98255 0.31027 0.0
C2827 C 0.62981 0.98802 0.29954 0.0
C2828 C 0.60177 0.98475 0.30085 0.0
C2829 C 0.60486 0.99254 0.2802 0.0
C2830 C 0.6204 0.99787 0.26915 0.0
C2831 C 0.6327 0.99557 0.27898 0.0
C2832 C 0.58535 0.97894 0.31311 0.0
C2833 C 0.62411 0.00615 0.24704 0.0
C2834 C 0.56732 0.98564 0.24672 0.0
C2835 C 0.56806 0.00138 0.2507 0.0
C2836 C 0.57916 0.98253 0.25632 0.0
C2837 C 0.59199 0.99546 0.27028 0.0
C2838 C 0.59272 0.01132 0.27449 0.0
C2839 C 0.58076 0.0141 0.26461 0.0
C2840 C 0.57805 0.96551 0.25135 0.0
C2841 C 0.60617 0.02536 0.28939 0.0
H2842 H 0.61195 0.9767 0.32616 0.0
H2843 H 0.64464 -0.00022 0.27054 0.0
H2844 H 0.58399 0.99027 0.3166 0.0
H2845 H 0.57427 0.96946 0.3029 0.0
H2846 H 0.5848 0.97282 0.32884 0.0
H2847 H 0.63663 0.00916 0.24037 0.0
H2848 H 0.61396 0.99736 0.23521 0.0
H2849 H 0.62409 0.01841 0.24834 0.0
H2850 H 0.55764 0.97586 0.23578 0.0
H2851 H 0.58123 0.02619 0.26794 0.0
H2852 H 0.5767 0.95873 0.26677 0.0
H2853 H 0.59001 0.96802 0.24336 0.0
H2854 H 0.56712 0.95669 0.24046 0.0
H2855 H 0.60537 0.02011 0.30583 0.0
H2856 H 0.60482 0.03684 0.29123 0.0
H2857 H 0.61907 0.02975 0.28282 0.0
C2858 C -4e-05 0.63972 0.31494 0.0
C2859 C 0.01561 0.65506 0.31074 0.0
C2860 C 0.99582 0.62379 0.30498 0.0
C2861 C 0.00761 0.62317 0.29049 0.0
C2862 C 0.02347 0.63855 0.28628 0.0
C2863 C 0.02728 0.65433 0.29647 0.0
C2864 C 0.97879 0.60763 0.30987 0.0
C2865 C 0.03636 0.63836 0.27092 0.0
C2866 C 0.00372 0.57973 0.27909 0.0
C2867 C 0.99547 0.57481 0.25871 0.0
C2868 C 0.00769 0.59541 0.28968 0.0
C2869 C 0.0033 0.60641 0.27961 0.0
C2870 C 0.99483 0.60145 0.25912 0.0
C2871 C 0.99101 0.58569 0.24891 0.0
C2872 C 0.01666 0.60025 0.31157 0.0
C2873 C 0.98998 0.61288 0.24787 0.0
H2874 H 0.99086 0.64016 0.32595 0.0
H2875 H 0.03939 0.66611 0.29313 0.0
H2876 H 0.97133 0.60207 0.29453 0.0
H2877 H 0.98075 0.59757 0.31665 0.0
H2878 H 0.97113 0.61029 0.32172 0.0
H2879 H 0.04816 0.65143 0.26952 0.0
H2880 H 0.0399 0.62917 0.2767 0.0
H2881 H 0.03068 0.63371 0.25437 0.0
H2882 H 0.00702 0.57126 0.28683 0.0
H2883 H 0.98485 0.58205 0.23301 0.0
H2884 H 0.00885 0.60208 0.32408 0.0
H2885 H 0.02904 0.6128 0.3105 0.0
H2886 H 0.0191 0.5902 0.31724 0.0
H2887 H 0.98158 0.61523 0.25866 0.0
H2888 H 0.98327 0.60702 0.23209 0.0
H2889 H 0.0016 0.62573 0.24467 0.0
C2890 C 0.37042 0.37031 0.31267 0.0
C2891 C 0.35791 0.37457 0.31536 0.0
C2892 C 0.38597 0.38167 0.30238 0.0
C2893 C 0.3889 0.39749 0.29422 0.0
C2894 C 0.37632 0.40189 0.29694 0.0
C2895 C 0.36102 0.39043 0.30769 0.0
C2896 C 0.39922 0.37671 0.30016 0.0
C2897 C 0.37892 0.41855 0.28814 0.0
C2898 C 0.43428 0.43417 0.28314 0.0
C2899 C 0.43562 0.432 0.26056 0.0
C2900 C 0.41919 0.42288 0.29438 0.0
C2901 C 0.40506 0.40936 0.28262 0.0
C2902 C 0.40635 0.40716 0.25978 0.0
C2903 C 0.42171 0.41844 0.24904 0.0
C2904 C 0.41839 0.4254 0.31882 0.0
C2905 C 0.39144 0.39305 0.24666 0.0
H2906 H 0.3681 0.3581 0.31873 0.0
H2907 H 0.35132 0.3937 0.30963 0.0
H2908 H 0.40171 0.37544 0.2826 0.0
H2909 H 0.41145 0.38709 0.30758 0.0
H2910 H 0.39519 0.36423 0.30813 0.0
H2911 H 0.36787 0.42001 0.29156 0.0
H2912 H 0.39053 0.42993 0.29549 0.0
H2913 H 0.38095 0.41883 0.27018 0.0
H2914 H 0.44513 0.44462 0.29203 0.0
H2915 H 0.42276 0.41691 0.23152 0.0
H2916 H 0.41508 0.41329 0.32719 0.0
H2917 H 0.40821 0.4281 0.32275 0.0
H2918 H 0.43067 0.43628 0.32558 0.0
H2919 H 0.38753 0.38008 0.25295 0.0
H2920 H 0.39448 0.39325 0.22897 0.0
H2921 H 0.38032 0.39461 0.24849 0.0
C2922 C 0.32418 0.28637 0.37577 0.0
C2923 C 0.33738 0.30261 0.36867 0.0
C2924 C 0.32779 0.2752 0.38655 0.0
C2925 C 0.345 0.2803 0.38994 0.0
C2926 C 0.35837 0.29654 0.38241 0.0
C2927 C 0.35439 0.30756 0.37202 0.0
C2928 C 0.31321 0.25806 0.39463 0.0
C2929 C 0.37688 0.30228 0.3854 0.0
C2930 C 0.35545 0.25963 0.43526 0.0
C2931 C 0.35662 0.24673 0.4236 0.0
C2932 C 0.35154 0.27059 0.42451 0.0
C2933 C 0.34905 0.26873 0.40154 0.0
C2934 C 0.35048 0.25588 0.38966 0.0
C2935 C 0.35412 0.24492 0.40088 0.0
C2936 C 0.34988 0.284 0.43775 0.0
C2937 C 0.34821 0.25373 0.36512 0.0
H2938 H 0.311 0.28253 0.37332 0.0
H2939 H 0.36465 0.32006 0.36643 0.0
H2940 H 0.31394 0.24713 0.38717 0.0
H2941 H 0.31419 0.25752 0.41262 0.0
H2942 H 0.30055 0.25605 0.39072 0.0
H2943 H 0.38574 0.31506 0.37797 0.0
H2944 H 0.37989 0.30331 0.4031 0.0
H2945 H 0.37928 0.29244 0.3779 0.0
H2946 H 0.35722 0.26089 0.45286 0.0
H2947 H 0.35517 0.235 0.39189 0.0
H2948 H 0.33696 0.2818 0.43544 0.0
H2949 H 0.35924 0.29724 0.43196 0.0
H2950 H 0.352 0.2836 0.45551 0.0
H2951 H 0.33522 0.25053 0.36068 0.0
H2952 H 0.35007 0.24332 0.35829 0.0
H2953 H 0.35745 0.26615 0.35721 0.0
C2954 C 0.71543 0.0258 0.38653 0.0
C2955 C 0.70214 0.02265 0.37251 0.0
C2956 C 0.72678 0.04255 0.39525 0.0
C2957 C 0.72481 0.05649 0.38973 0.0
C2958 C 0.71149 0.05344 0.37548 0.0
C2959 C 0.7003 0.03655 0.36708 0.0
C2960 C 0.74082 0.04533 0.41046 0.0
C2961 C 0.70906 0.068 0.36916 0.0
C2962 C 0.74446 0.0964 0.42771 0.0
C2963 C 0.75977 0.1077 0.4169 0.0
C2964 C 0.73288 0.07973 0.41897 0.0
C2965 C 0.73671 0.07429 0.39888 0.0
C2966 C 0.752 0.08576 0.38769 0.0
C2967 C 0.76338 0.10232 0.39687 0.0
C2968 C 0.71673 0.06781 0.43141 0.0
C2969 C 0.75644 0.08047 0.36615 0.0
H2970 H 0.71692 0.01513 0.39084 0.0
H2971 H 0.69007 0.03424 0.35622 0.0
H2972 H 0.75345 0.05507 0.40364 0.0
H2973 H 0.73957 0.0506 0.42653 0.0
H2974 H 0.74059 0.03312 0.41315 0.0
H2975 H 0.69816 0.06348 0.35773 0.0
H2976 H 0.70679 0.07387 0.38401 0.0
H2977 H 0.72081 0.07844 0.36126 0.0
H2978 H 0.74173 0.10043 0.44334 0.0
H2979 H 0.77513 0.11111 0.38837 0.0
H2980 H 0.71654 0.05592 0.43592 0.0
H2981 H 0.70541 0.06358 0.42091 0.0
H2982 H 0.7155 0.07416 0.44658 0.0
H2983 H 0.75751 0.06896 0.36836 0.0
H2984 H 0.76864 0.09109 0.35928 0.0
H2985 H 0.74611 0.07666 0.35405 0.0
C2986 C 0.96489 0.67193 0.40806 0.0
C2987 C 0.96857 0.6774 0.38638 0.0
C2988 C 0.94898 0.6668 0.4174 0.0
C2989 C 0.93638 0.66695 0.40464 0.0
C2990 C 0.94001 0.67248 0.38274 0.0
C2991 C 0.95612 0.67775 0.3739 0.0
C2992 C 0.94565 0.66119 0.4409 0.0
C2993 C 0.9268 0.67264 0.3686 0.0
C2994 C 0.89044 0.63826 0.42324 0.0
C2995 C 0.88755 0.65038 0.43408 0.0
C2996 C 0.90618 0.64352 0.41322 0.0
C2997 C 0.9194 0.6613 0.4143 0.0
C2998 C 0.91657 0.67361 0.4251 0.0
C2999 C 0.90065 0.66802 0.43473 0.0
C3000 C 0.90872 0.63004 0.40172 0.0
C3001 C 0.93041 0.69267 0.42667 0.0
H3002 H 0.97449 0.6717 0.41783 0.0
H3003 H 0.95886 0.68189 0.35709 0.0
H3004 H 0.94213 0.66943 0.45058 0.0
H3005 H 0.93473 0.64755 0.44173 0.0
H3006 H 0.95692 0.66211 0.4487 0.0
H3007 H 0.93164 0.6773 0.35189 0.0
H3008 H 0.91528 0.65934 0.36719 0.0
H3009 H 0.92275 0.68117 0.3763 0.0
H3010 H 0.88048 0.62458 0.42287 0.0
H3011 H 0.89843 0.67753 0.4427 0.0
H3012 H 0.91897 0.62934 0.40999 0.0
H3013 H 0.91288 0.6338 0.38459 0.0
H3014 H 0.89691 0.61688 0.40152 0.0
H3015 H 0.94168 0.69429 0.4353 0.0
H3016 H 0.9261 0.7006 0.43554 0.0
H3017 H 0.93465 0.69788 0.41005 0.0
C3018 C 0.36473 0.99326 0.72202 0.0
C3019 C 0.36902 0.00889 0.71227 0.0
C3020 C 0.37712 0.99152 0.73258 0.0
C3021 C 0.39418 0.00584 0.73362 0.0
C3022 C 0.39859 0.02169 0.7239 0.0
C3023 C 0.38596 0.023 0.7132 0.0
C3024 C 0.37198 0.97434 0.74254 0.0
C3025 C 0.41663 0.03728 0.7249 0.0
C3026 C 0.42199 0.00517 0.77821 0.0
C3027 C 0.4313 -0.00072 0.76653 0.0
C3028 C 0.41013 0.00773 0.76761 0.0
C3029 C 0.40737 0.00412 0.74484 0.0
C3030 C 0.41681 0.99833 0.73291 0.0
C3031 C 0.42873 0.99608 0.74388 0.0
C3032 C 0.40036 0.01403 0.78084 0.0
C3033 C 0.41414 0.99427 0.70862 0.0
H3034 H 0.35167 0.98228 0.72127 0.0
H3035 H 0.38933 0.03514 0.70577 0.0
H3036 H 0.37957 0.9692 0.73516 0.0
H3037 H 0.37473 0.97622 0.76036 0.0
H3038 H 0.3582 0.96443 0.74012 0.0
H3039 H 0.41793 0.04871 0.71669 0.0
H3040 H 0.4207 0.04099 0.74222 0.0
H3041 H 0.4255 0.03396 0.71701 0.0
H3042 H 0.42373 0.00746 0.79575 0.0
H3043 H 0.43609 0.99183 0.73466 0.0
H3044 H 0.38653 0.00393 0.78049 0.0
H3045 H 0.40191 0.02587 0.77355 0.0
H3046 H 0.40463 0.01709 0.79818 0.0
H3047 H 0.4007 0.98374 0.70538 0.0
H3048 H 0.42268 0.9901 0.7017 0.0
H3049 H 0.41646 0.00588 0.69985 0.0
C3050 C 0.98661 0.3702 0.68403 0.0
C3051 C 0.98951 0.35853 0.69481 0.0
C3052 C 0.98915 0.38531 0.69485 0.0
C3053 C 0.99483 0.38883 0.71686 0.0
C3054 C 0.9978 0.37711 0.72779 0.0
C3055 C 0.99503 0.36207 0.71667 0.0
C3056 C 0.98571 0.39748 0.68278 0.0
C3057 C 0.00397 0.38049 0.75123 0.0
C3058 C 0.01644 0.43492 0.74051 0.0
C3059 C 0.00329 0.43423 0.75318 0.0
C3060 C 0.01379 0.42031 0.7283 0.0
C3061 C 0.99757 0.4047 0.72865 0.0
C3062 C 0.98417 0.40399 0.74111 0.0
C3063 C 0.98722 0.41873 0.75332 0.0
C3064 C 0.0284 0.42149 0.71527 0.0
C3065 C 0.96669 0.38756 0.74186 0.0
H3066 H 0.98231 0.36752 0.66716 0.0
H3067 H 0.99738 0.35316 0.7251 0.0
H3068 H 0.97584 0.39885 0.69157 0.0
H3069 H 0.99746 0.41063 0.68232 0.0
H3070 H 0.98129 0.39284 0.66573 0.0
H3071 H 0.00584 0.37015 0.75728 0.0
H3072 H 0.01625 0.39316 0.75272 0.0
H3073 H 0.99463 0.38134 0.76203 0.0
H3074 H 0.02881 0.44692 0.74007 0.0
H3075 H 0.97706 0.41801 0.76331 0.0
H3076 H 0.02468 0.41799 0.69782 0.0
H3077 H 0.03149 0.41204 0.7214 0.0
H3078 H 0.04009 0.43472 0.71626 0.0
H3079 H 0.96166 0.383 0.72502 0.0
H3080 H 0.9574 0.38946 0.75137 0.0
H3081 H 0.9676 0.37708 0.74942 0.0
C3082 C 0.62785 0.63513 0.70611 0.0
C3083 C 0.63987 0.63013 0.70416 0.0
C3084 C 0.61213 0.62449 0.71642 0.0
C3085 C 0.60848 0.60862 0.72532 0.0
C3086 C 0.62058 0.60353 0.72349 0.0
C3087 C 0.6361 0.61429 0.71272 0.0
C3088 C 0.5994 0.63019 0.71772 0.0
C3089 C 0.6172 0.5868 0.73308 0.0
C3090 C 0.57442 0.58935 0.76934 0.0
C3091 C 0.56047 0.57611 0.75751 0.0
C3092 C 0.59022 0.59993 0.75911 0.0
C3093 C 0.59194 0.59734 0.73648 0.0
C3094 C 0.57779 0.5841 0.72443 0.0
C3095 C 0.56224 0.57353 0.73516 0.0
C3096 C 0.6051 0.61376 0.77254 0.0
C3097 C 0.57907 0.58117 0.70019 0.0
H3098 H 0.63066 0.64732 0.69937 0.0
H3099 H 0.64541 0.61045 0.71135 0.0
H3100 H 0.58719 0.62011 0.70993 0.0
H3101 H 0.5966 0.63166 0.73509 0.0
H3102 H 0.60409 0.64274 0.70956 0.0
H3103 H 0.62805 0.58486 0.73055 0.0
H3104 H 0.61474 0.58682 0.75091 0.0
H3105 H 0.6056 0.57554 0.72553 0.0
H3106 H 0.57304 0.59119 0.78669 0.0
H3107 H 0.55137 0.56333 0.72603 0.0
H3108 H 0.60966 0.62679 0.76593 0.0
H3109 H 0.61589 0.61162 0.77144 0.0
H3110 H 0.60173 0.61383 0.79005 0.0
H3111 H 0.58298 0.59327 0.69137 0.0
H3112 H 0.5668 0.57047 0.69317 0.0
H3113 H 0.58901 0.57798 0.69711 0.0
C3114 C 0.67341 0.71567 0.63899 0.0
C3115 C 0.66037 0.69937 0.64615 0.0
C3116 C 0.66957 0.72692 0.62887 0.0
C3117 C 0.65229 0.72184 0.62626 0.0
C3118 C 0.63908 0.70548 0.63368 0.0
C3119 C 0.64329 0.69438 0.64338 0.0
C3120 C 0.68398 0.74417 0.62084 0.0
C3121 C 0.62052 0.69976 0.6315 0.0
C3122 C 0.6433 0.75772 0.61861 0.0
C3123 C 0.64041 0.75649 0.59601 0.0
C3124 C 0.64694 0.74634 0.62873 0.0
C3125 C 0.64802 0.73369 0.61583 0.0
C3126 C 0.64509 0.73239 0.59297 0.0
C3127 C 0.64116 0.74374 0.58335 0.0
C3128 C 0.64968 0.74789 0.6532 0.0
C3129 C 0.64638 0.71922 0.57866 0.0
H3130 H 0.68664 0.71954 0.64099 0.0
H3131 H 0.63316 0.68183 0.64902 0.0
H3132 H 0.68249 0.74511 0.60305 0.0
H3133 H 0.68356 0.755 0.62922 0.0
H3134 H 0.6967 0.74602 0.62375 0.0
H3135 H 0.61181 0.68675 0.63846 0.0
H3136 H 0.61821 0.70935 0.63999 0.0
H3137 H 0.61723 0.69927 0.614 0.0
H3138 H 0.6426 0.76755 0.62837 0.0
H3139 H 0.6391 0.74296 0.56582 0.0
H3140 H 0.66278 0.75107 0.65691 0.0
H3141 H 0.64065 0.73527 0.66081 0.0
H3142 H 0.64788 0.7581 0.66093 0.0
H3143 H 0.65935 0.72136 0.58007 0.0
H3144 H 0.64382 0.71998 0.56115 0.0
H3145 H 0.63717 0.70587 0.58422 0.0
C3146 C 0.28 0.96845 0.64734 0.0
C3147 C 0.29655 0.9744 0.6548 0.0
C3148 C 0.26971 0.95154 0.63844 0.0
C3149 C 0.27603 0.94026 0.63739 0.0
C3150 C 0.2926 0.9461 0.64528 0.0
C3151 C 0.30273 0.96316 0.65372 0.0
C3152 C 0.25218 0.94582 0.62989 0.0
C3153 C 0.29964 0.93433 0.64477 0.0
C3154 C 0.24301 0.89194 0.63161 0.0
C3155 C 0.24397 0.88886 0.60919 0.0
C3156 C 0.25369 0.90854 0.64114 0.0
C3157 C 0.26534 0.92239 0.6278 0.0
C3158 C 0.26649 0.91927 0.60518 0.0
C3159 C 0.25587 0.90247 0.59617 0.0
C3160 C 0.25234 0.91132 0.6654 0.0
C3161 C 0.27859 0.93378 0.59038 0.0
H3162 H 0.27522 0.97712 0.64805 0.0
H3163 H 0.31547 0.96767 0.65964 0.0
H3164 H 0.25123 0.94202 0.61229 0.0
H3165 H 0.24232 0.93421 0.63868 0.0
H3166 H 0.24922 0.95622 0.63178 0.0
H3167 H 0.31257 0.9407 0.6522 0.0
H3168 H 0.29097 0.92227 0.65372 0.0
H3169 H 0.30036 0.93037 0.62763 0.0
H3170 H 0.23384 0.88135 0.64165 0.0
H3171 H 0.25643 0.90009 0.57877 0.0
H3172 H 0.24799 0.92056 0.66815 0.0
H3173 H 0.26506 0.91718 0.67324 0.0
H3174 H 0.24327 0.89899 0.67364 0.0
H3175 H 0.27535 0.94399 0.59049 0.0
H3176 H 0.2781 0.92911 0.57322 0.0
H3177 H 0.29187 0.93998 0.59649 0.0
C3178 C 0.04259 0.3243 0.6528 0.0
C3179 C 0.03996 0.33722 0.66151 0.0
C3180 C 0.05768 0.32872 0.64157 0.0
C3181 C 0.07033 0.34649 0.63877 0.0
C3182 C 0.06794 0.35959 0.64799 0.0
C3183 C 0.05281 0.3548 0.65937 0.0
C3184 C 0.05989 0.31438 0.6322 0.0
C3185 C 0.08108 0.37867 0.64517 0.0
C3186 C 0.11459 0.35749 0.62142 0.0
C3187 C 0.11364 0.35824 0.59866 0.0
C3188 C 0.10066 0.35393 0.6348 0.0
C3189 C 0.08558 0.35129 0.62513 0.0
C3190 C 0.08481 0.35262 0.60221 0.0
C3191 C 0.09882 0.35597 0.58923 0.0
C3192 C 0.10187 0.35244 0.65916 0.0
C3193 C 0.06904 0.35015 0.59134 0.0
H3194 H 0.03277 0.31069 0.65453 0.0
H3195 H 0.05086 0.36487 0.66603 0.0
H3196 H 0.06025 0.31479 0.61406 0.0
H3197 H 0.07221 0.31632 0.63768 0.0
H3198 H 0.04941 0.30126 0.63708 0.0
H3199 H 0.07771 0.38724 0.65435 0.0
H3200 H 0.09379 0.38173 0.65078 0.0
H3201 H 0.08227 0.38178 0.62756 0.0
H3202 H 0.12602 0.35909 0.62866 0.0
H3203 H 0.09818 0.35672 0.57163 0.0
H3204 H 0.09238 0.33897 0.66409 0.0
H3205 H 0.09879 0.36125 0.66823 0.0
H3206 H 0.11477 0.35565 0.66421 0.0
H3207 H 0.05814 0.33668 0.59371 0.0
H3208 H 0.07085 0.35254 0.5735 0.0
H3209 H 0.06551 0.35911 0.599 0.0
C3210 C 0.30314 0.34675 0.63012 0.0
C3211 C 0.29671 0.33153 0.6421 0.0
C3212 C 0.29214 0.35072 0.6199 0.0
C3213 C 0.27428 0.33915 0.62157 0.0
C3214 C 0.26768 0.32385 0.6338 0.0
C3215 C 0.27899 0.32024 0.64399 0.0
C3216 C 0.29965 0.36722 0.60711 0.0
C3217 C 0.24869 0.31117 0.63584 0.0
C3218 C 0.24543 0.3561 0.60932 0.0
C3219 C 0.24047 0.35005 0.58767 0.0
C3220 C 0.25642 0.35263 0.62059 0.0
C3221 C 0.26253 0.34283 0.60998 0.0
C3222 C 0.2576 0.33672 0.58813 0.0
C3223 C 0.24668 0.34045 0.57723 0.0
C3224 C 0.26146 0.35941 0.64387 0.0
C3225 C 0.2639 0.32627 0.57626 0.0
H3226 H 0.31682 0.3556 0.62867 0.0
H3227 H 0.27393 0.30846 0.65321 0.0
H3228 H 0.29578 0.36396 0.58968 0.0
H3229 H 0.29464 0.3753 0.61345 0.0
H3230 H 0.31381 0.37511 0.60797 0.0
H3231 H 0.24562 0.30008 0.64636 0.0
H3232 H 0.24246 0.31792 0.64281 0.0
H3233 H 0.24306 0.30594 0.61938 0.0
H3234 H 0.2405 0.36334 0.61757 0.0
H3235 H 0.2431 0.33596 0.5604 0.0
H3236 H 0.27555 0.36794 0.64514 0.0
H3237 H 0.25744 0.3484 0.65493 0.0
H3238 H 0.25566 0.36691 0.64972 0.0
H3239 H 0.27805 0.33405 0.57525 0.0
H3240 H 0.25865 0.32224 0.5594 0.0
H3241 H 0.26029 0.31443 0.58548 0.0
C3242 C 0.67152 0.96354 0.66829 0.0
C3243 C 0.67185 0.97686 0.65671 0.0
C3244 C 0.66634 0.94739 0.65807 0.0
C3245 C 0.6613 0.9445 0.63581 0.0
C3246 C 0.66141 0.95782 0.62412 0.0
C3247 C 0.66674 0.97386 0.63469 0.0
C3248 C 0.66648 0.93349 0.67098 0.0
C3249 C 0.65604 0.95517 0.60038 0.0
C3250 C 0.66418 0.91015 0.60241 0.0
C3251 C 0.64714 0.89618 0.6022 0.0
C3252 C 0.66897 0.92586 0.6135 0.0
C3253 C 0.6564 0.92773 0.62449 0.0
C3254 C 0.63916 0.91375 0.6243 0.0
C3255 C 0.63474 0.8981 0.61318 0.0
C3256 C 0.68748 0.9405 0.61332 0.0
C3257 C 0.62541 0.91533 0.63579 0.0
H3258 H 0.67545 0.96577 0.6853 0.0
H3259 H 0.66688 0.98406 0.62565 0.0
H3260 H 0.65361 0.92145 0.67075 0.0
H3261 H 0.67541 0.93015 0.66331 0.0
H3262 H 0.6704 0.93767 0.68828 0.0
H3263 H 0.65638 0.96667 0.59382 0.0
H3264 H 0.66458 0.95254 0.5903 0.0
H3265 H 0.6429 0.94366 0.59847 0.0
H3266 H 0.67378 0.90886 0.59363 0.0
H3267 H 0.62159 0.8873 0.61329 0.0
H3268 H 0.69227 0.94456 0.63034 0.0
H3269 H 0.68874 0.95199 0.60539 0.0
H3270 H 0.69575 0.93677 0.60448 0.0
H3271 H 0.6285 0.91839 0.65346 0.0
H3272 H 0.61261 0.90322 0.63413 0.0
H3273 H 0.62481 0.92623 0.62898 0.0
C3274 C 0.0272 0.69162 0.63628 0.0
C3275 C 0.02538 0.69253 0.65902 0.0
C3276 C 0.04293 0.70251 0.62609 0.0
C3277 C 0.05711 0.71475 0.63894 0.0
C3278 C 0.05537 0.71575 0.66191 0.0
C3279 C 0.03953 0.70452 0.6717 0.0
C3280 C 0.04436 0.70093 0.60159 0.0
C3281 C 0.07017 0.72883 0.67607 0.0
C3282 C 0.10158 0.73371 0.61521 0.0
C3283 C 0.10489 0.74963 0.60739 0.0
C3284 C 0.08605 0.72219 0.6255 0.0
C3285 C 0.07365 0.72681 0.62824 0.0
C3286 C 0.07693 0.74287 0.62049 0.0
C3287 C 0.09243 0.75401 0.61 0.0
C3288 C 0.0829 0.70507 0.63339 0.0
C3289 C 0.06402 0.74826 0.62321 0.0
H3290 H 0.01634 0.68227 0.6264 0.0
H3291 H 0.03817 0.70531 0.68928 0.0
H3292 H 0.04793 0.71338 0.59394 0.0
H3293 H 0.05462 0.69833 0.59764 0.0
H3294 H 0.03226 0.69036 0.59406 0.0
H3295 H 0.06674 0.72782 0.6937 0.0
H3296 H 0.08105 0.72691 0.67403 0.0
H3297 H 0.07462 0.74222 0.67086 0.0
H3298 H 0.1112 0.73032 0.61351 0.0
H3299 H 0.09473 0.76611 0.60364 0.0
H3300 H 0.07124 0.69412 0.62551 0.0
H3301 H 0.08065 0.70424 0.65131 0.0
H3302 H 0.09378 0.70335 0.62976 0.0
H3303 H 0.05206 0.7388 0.61444 0.0
H3304 H 0.06877 0.76144 0.61687 0.0
H3305 H 0.06076 0.74821 0.64077 0.0
C3306 C 0.97544 0.61064 0.70838 0.0
C3307 C 0.98736 0.62069 0.69231 0.0
C3308 C 0.97783 0.59954 0.72127 0.0
C3309 C 0.99258 0.59863 0.71815 0.0
C3310 C 0.0046 0.60863 0.70185 0.0
C3311 C 0.00179 0.61948 0.68902 0.0
C3312 C 0.96462 0.58886 0.73831 0.0
C3313 C 0.02055 0.60809 0.69822 0.0
C3314 C 0.00676 0.58282 0.76528 0.0
C3315 C 0.00077 0.56556 0.75858 0.0
C3316 C 0.00429 0.59378 0.75219 0.0
C3317 C 0.99548 0.58726 0.73205 0.0
C3318 C 0.98936 0.56986 0.72521 0.0
C3319 C 0.99218 0.55926 0.73849 0.0
C3320 C 0.01108 0.61232 0.75994 0.0
C3321 C 0.97982 0.56244 0.70387 0.0
H3322 H 0.96422 0.61147 0.71093 0.0
H3323 H 0.01109 0.62729 0.6767 0.0
H3324 H 0.95973 0.57483 0.73535 0.0
H3325 H 0.97053 0.59245 0.75482 0.0
H3326 H 0.95366 0.59076 0.7383 0.0
H3327 H 0.02858 0.6166 0.68478 0.0
H3328 H 0.02828 0.61229 0.71345 0.0
H3329 H 0.0171 0.59456 0.69422 0.0
H3330 H 0.01322 0.58771 0.7809 0.0
H3331 H 0.98779 0.54604 0.73298 0.0
H3332 H 0.0004 0.61457 0.76189 0.0
H3333 H 0.01989 0.62148 0.74753 0.0
H3334 H 0.01798 0.61549 0.77578 0.0
H3335 H 0.96838 0.56352 0.70371 0.0
H3336 H 0.97567 0.54855 0.7011 0.0
H3337 H 0.98804 0.57002 0.69 0.0
C3338 C 0.36068 0.36481 0.71568 0.0
C3339 C 0.36527 0.36113 0.69515 0.0
C3340 C 0.37151 0.38054 0.72701 0.0
C3341 C 0.3873 0.39293 0.71758 0.0
C3342 C 0.39201 0.38936 0.69684 0.0
C3343 C 0.38093 0.37347 0.68587 0.0
C3344 C 0.36609 0.38388 0.74914 0.0
C3345 C 0.40877 0.40229 0.68631 0.0
C3346 C 0.40902 0.43977 0.7387 0.0
C3347 C 0.4213 0.44072 0.75291 0.0
C3348 C 0.39789 0.4243 0.72699 0.0
C3349 C 0.39905 0.40946 0.72968 0.0
C3350 C 0.41131 0.41031 0.74416 0.0
C3351 C 0.42228 0.42594 0.7556 0.0
C3352 C 0.38496 0.42384 0.71166 0.0
C3353 C 0.41284 0.39471 0.74758 0.0
H3354 H 0.3486 0.35535 0.723 0.0
H3355 H 0.38455 0.37074 0.67 0.0
H3356 H 0.37551 0.38583 0.76178 0.0
H3357 H 0.36579 0.39597 0.74894 0.0
H3358 H 0.3533 0.37298 0.75407 0.0
H3359 H 0.41039 0.39766 0.66993 0.0
H3360 H 0.40964 0.4149 0.6845 0.0
H3361 H 0.41953 0.40478 0.69694 0.0
H3362 H 0.40834 0.45123 0.73644 0.0
H3363 H 0.4316 0.42656 0.76683 0.0
H3364 H 0.37187 0.41363 0.7166 0.0
H3365 H 0.38701 0.42042 0.69478 0.0
H3366 H 0.38571 0.43651 0.71143 0.0
H3367 H 0.40058 0.38376 0.75379 0.0
H3368 H 0.42312 0.39758 0.75936 0.0
H3369 H 0.41552 0.39027 0.73176 0.0
C3370 C 0.64034 0.01769 0.73267 0.0
C3371 C 0.64391 0.02055 0.71028 0.0
C3372 C 0.6249 0.01468 0.7414 0.0
C3373 C 0.61266 0.01437 0.72737 0.0
C3374 C 0.61621 0.01736 0.70477 0.0
C3375 C 0.63185 0.02051 0.6965 0.0
C3376 C 0.62163 0.01173 0.76564 0.0
C3377 C 0.60339 0.01698 0.68932 0.0
C3378 C 0.5672 0.98992 0.74858 0.0
C3379 C 0.56562 0.00355 0.75726 0.0
C3380 C 0.58225 0.9933 0.7381 0.0
C3381 C 0.59609 0.01071 0.73644 0.0
C3382 C 0.59442 0.02455 0.7446 0.0
C3383 C 0.57917 0.0208 0.75482 0.0
C3384 C 0.58355 0.97821 0.72945 0.0
C3385 C 0.60893 0.04328 0.74316 0.0
H3386 H 0.64963 0.01779 0.74343 0.0
H3387 H 0.63451 0.02265 0.67916 0.0
H3388 H 0.61891 0.02136 0.77306 0.0
H3389 H 0.61023 0.9986 0.76831 0.0
H3390 H 0.63264 0.01279 0.77439 0.0
H3391 H 0.60822 0.01982 0.67224 0.0
H3392 H 0.59142 0.00398 0.68942 0.0
H3393 H 0.60009 0.02665 0.69483 0.0
H3394 H 0.55687 0.97656 0.7506 0.0
H3395 H 0.57792 0.03141 0.76112 0.0
H3396 H 0.59328 0.97743 0.73895 0.0
H3397 H 0.58777 0.98022 0.71212 0.0
H3398 H 0.57121 0.96558 0.73053 0.0
H3399 H 0.61994 0.04535 0.7529 0.0
H3400 H 0.60527 0.05255 0.74931 0.0
H3401 H 0.61329 0.04635 0.72597 0.0
loop_
_geom_bond_atom_site_label_1
_geom_bond_atom_site_label_2
_geom_bond_distance
_geom_bond_site_symmetry_2
_ccdc_geom_bond_type
C0 O1 1.160 . S
C0 O7 1.185 . S
O1 C0 1.160 . S
O2 Zn3 1.899 1_656 S
O2 C10 1.294 . S
Zn3 O2 1.899 1_454 S
Zn3 O4 2.032 . S
Zn3 O7 2.086 . S
Zn3 O12 1.977 1_554 S
O4 Zn3 2.032 . S
O4 C8 1.278 1_455 S
C5 O6 1.203 1_455 S
C5 O12 1.267 . S
O6 C5 1.203 1_655 S
O7 C0 1.185 . S
O7 Zn3 2.086 . S
C8 O4 1.278 1_655 S
C8 O9 1.211 . S
O9 C8 1.211 . S
C10 O2 1.294 . S
C10 O11 1.254 1_556 S
O11 C10 1.254 1_554 S
O12 Zn3 1.977 1_556 S
O12 C5 1.267 . S
C13 O14 1.160 . S
C13 O20 1.185 1_556 S
O14 C13 1.160 . S
O15 Zn16 1.899 . S
O15 C23 1.284 . S
Zn16 O15 1.899 . S
Zn16 O17 2.032 1_554 S
Zn16 O20 2.086 . S
Zn16 O25 1.977 . S
O17 Zn16 2.032 1_556 S
O17 C21 1.278 . S
C18 O19 1.203 . S
C18 O25 1.267 . S
O19 C18 1.203 . S
O20 C13 1.185 1_554 S
O20 Zn16 2.086 . S
C21 O17 1.278 . S
C21 O22 1.211 . S
O22 C21 1.211 . S
C23 O15 1.284 . S
C23 O24 1.273 . S
O24 C23 1.273 . S
O25 Zn16 1.977 . S
O25 C18 1.267 . S
C26 O27 1.160 . S
C26 O33 1.185 1_556 S
O27 C26 1.160 . S
O28 Zn29 1.899 1_565 S
O28 C36 1.284 . S
Zn29 O28 1.899 1_545 S
Zn29 O30 2.032 1_554 S
Zn29 O33 2.086 . S
Zn29 O38 1.977 . S
O30 Zn29 2.032 1_556 S
O30 C34 1.293 . S
C31 O32 1.203 1_545 S
C31 O38 1.267 . S
O32 C31 1.203 1_565 S
O33 C26 1.185 1_554 S
O33 Zn29 2.086 . S
C34 O30 1.293 . S
C34 O35 1.200 1_545 S
O35 C34 1.200 1_565 S
C36 O28 1.284 . S
C36 O37 1.273 . S
O37 C36 1.273 . S
O38 Zn29 1.977 . S
O38 C31 1.267 . S
C39 O40 1.160 . S
C39 O46 1.185 1_556 S
O40 C39 1.160 . S
O41 Zn42 1.899 1_455 S
O41 C49 1.284 . S
Zn42 O41 1.899 1_655 S
Zn42 O43 2.033 1_654 S
Zn42 O46 2.086 . S
Zn42 O51 1.977 . S
O43 Zn42 2.033 1_456 S
O43 C47 1.274 . S
C44 O45 1.203 1_655 S
C44 O51 1.267 . S
O45 C44 1.203 1_455 S
O46 C39 1.185 1_554 S
O46 Zn42 2.086 . S
C47 O43 1.274 . S
C47 O48 1.211 . S
O48 C47 1.211 . S
C49 O41 1.284 . S
C49 O50 1.273 . S
O50 C49 1.273 . S
O51 Zn42 1.977 . S
O51 C44 1.267 . S
C52 O53 1.160 . S
C52 O59 1.185 . S
O53 C52 1.160 . S
O54 Zn55 1.899 1_556 S
O54 C62 1.284 . S
Zn55 O54 1.899 1_554 S
Zn55 O56 2.032 . S
Zn55 O59 2.086 . S
Zn55 O64 1.977 1_554 S
O56 Zn55 2.032 . S
O56 C60 1.278 . S
C57 O58 1.203 . S
C57 O64 1.267 . S
O58 C57 1.203 . S
O59 C52 1.185 . S
O59 Zn55 2.086 . S
C60 O56 1.278 . S
C60 O61 1.211 . S
O61 C60 1.211 . S
C62 O54 1.284 . S
C62 O63 1.273 1_556 S
O63 C62 1.273 1_554 S
O64 Zn55 1.977 1_556 S
O64 C57 1.267 . S
C65 O66 1.160 . S
C65 O72 1.185 . S
O66 C65 1.160 . S
O67 Zn68 1.899 1_546 S
O67 C75 1.284 . S
Zn68 O67 1.899 1_564 S
Zn68 O69 2.021 1_565 S
Zn68 O72 2.086 . S
Zn68 O77 1.977 1_554 S
O69 Zn68 2.021 1_545 S
O69 C73 1.307 . S
C70 O71 1.203 1_565 S
C70 O77 1.267 . S
O71 C70 1.203 1_545 S
O72 C65 1.185 . S
O72 Zn68 2.086 . S
C73 O69 1.307 . S
C73 O74 1.211 . S
O74 C73 1.211 . S
C75 O67 1.284 . S
C75 O76 1.273 1_556 S
O76 C75 1.273 1_554 S
O77 Zn68 1.977 1_556 S
O77 C70 1.267 . S
C78 O79 1.160 . S
C78 O85 1.185 . S
O79 C78 1.160 . S
O80 Zn81 1.899 . S
O80 C88 1.284 . S
Zn81 O80 1.899 . S
Zn81 O82 2.032 . S
Zn81 O85 2.086 . S
Zn81 O90 1.977 . S
O82 Zn81 2.032 . S
O82 C86 1.278 . S
C83 O84 1.203 . S
C83 O90 1.267 . S
O84 C83 1.203 . S
O85 C78 1.185 . S
O85 Zn81 2.086 . S
C86 O82 1.278 . S
C86 O87 1.211 . S
O87 C86 1.211 . S
C88 O80 1.284 . S
C88 O89 1.273 . S
O89 C88 1.273 . S
O90 Zn81 1.977 . S
O90 C83 1.267 . S
C91 O92 1.160 1_565 S
C91 O98 1.185 . S
O92 C91 1.160 1_545 S
O93 Zn94 1.899 1_545 S
O93 C101 1.284 . S
Zn94 O93 1.899 1_565 S
Zn94 O95 2.032 . S
Zn94 O98 2.086 . S
Zn94 O103 1.977 . S
O95 Zn94 2.032 . S
O95 C99 1.278 . S
C96 O97 1.203 . S
C96 O103 1.267 . S
O97 C96 1.203 . S
O98 C91 1.185 . S
O98 Zn94 2.086 . S
C99 O95 1.278 . S
C99 O100 1.211 . S
O100 C99 1.211 . S
C101 O93 1.284 . S
C101 O102 1.273 . S
O102 C101 1.273 . S
O103 Zn94 1.977 . S
O103 C96 1.267 . S
C104 O105 1.160 . S
C104 O111 1.185 . S
O105 C104 1.160 . S
O106 Zn107 1.899 . S
O106 C114 1.284 1_455 S
Zn107 O106 1.899 . S
Zn107 O108 2.032 . S
Zn107 O111 2.086 . S
Zn107 O116 1.977 . S
O108 Zn107 2.032 . S
O108 C112 1.278 . S
C109 O110 1.203 . S
C109 O116 1.267 . S
O110 C109 1.203 . S
O111 C104 1.185 . S
O111 Zn107 2.086 . S
C112 O108 1.278 . S
C112 O113 1.211 . S
O113 C112 1.211 . S
C114 O106 1.284 1_655 S
C114 O115 1.273 1_655 S
O115 C114 1.273 1_455 S
O116 Zn107 1.977 . S
O116 C109 1.267 . S
C117 O118 1.160 1_565 S
C117 O124 1.185 . S
O118 C117 1.160 1_545 S
O119 Zn120 1.899 1_545 S
O119 C127 1.284 . S
Zn120 O119 1.899 1_565 S
Zn120 O121 2.032 . S
Zn120 O124 2.086 . S
Zn120 O129 1.977 . S
O121 Zn120 2.032 . S
O121 C125 1.278 . S
C122 O123 1.203 . S
C122 O129 1.267 . S
O123 C122 1.203 . S
O124 C117 1.185 . S
O124 Zn120 2.086 . S
C125 O121 1.278 . S
C125 O126 1.211 . S
O126 C125 1.211 . S
C127 O119 1.284 . S
C127 O128 1.273 . S
O128 C127 1.273 . S
O129 Zn120 1.977 . S
O129 C122 1.267 . S
C130 O131 1.160 . S
C130 O137 1.185 . S
O131 C130 1.160 . S
O132 Zn133 1.899 . S
O132 C140 1.284 . S
Zn133 O132 1.899 . S
Zn133 O134 2.032 . S
Zn133 O137 2.086 1_455 S
Zn133 O142 1.977 . S
O134 Zn133 2.032 . S
O134 C138 1.278 . S
C135 O136 1.203 . S
C135 O142 1.267 . S
O136 C135 1.203 . S
O137 C130 1.185 . S
O137 Zn133 2.086 1_655 S
C138 O134 1.278 . S
C138 O139 1.211 . S
O139 C138 1.211 . S
C140 O132 1.284 . S
C140 O141 1.273 . S
O141 C140 1.273 . S
O142 Zn133 1.977 . S
O142 C135 1.267 . S
C143 O144 1.160 . S
C143 O150 1.185 . S
O144 C143 1.160 . S
O145 Zn146 1.899 . S
O145 C153 1.284 . S
Zn146 O145 1.899 . S
Zn146 O147 2.032 . S
Zn146 O150 2.086 . S
Zn146 O155 1.977 . S
O147 Zn146 2.032 . S
O147 C151 1.278 . S
C148 O149 1.203 . S
C148 O155 1.267 . S
O149 C148 1.203 . S
O150 C143 1.185 . S
O150 Zn146 2.086 . S
C151 O147 1.278 . S
C151 O152 1.211 . S
O152 C151 1.211 . S
C153 O145 1.284 . S
C153 O154 1.273 . S
O154 C153 1.273 . S
O155 Zn146 1.977 . S
O155 C148 1.267 . S
C156 O157 1.160 . S
C156 O163 1.185 . S
O157 C156 1.160 . S
O158 Zn159 1.901 . S
O158 C166 1.285 1_545 S
Zn159 O158 1.901 . S
Zn159 O160 2.032 . S
Zn159 O163 2.086 . S
Zn159 O168 1.977 . S
O160 Zn159 2.032 . S
O160 C164 1.278 . S
C161 O162 1.203 . S
C161 O168 1.267 . S
O162 C161 1.203 . S
O163 C156 1.185 . S
O163 Zn159 2.086 . S
C164 O160 1.278 . S
C164 O165 1.211 . S
O165 C164 1.211 . S
C166 O158 1.285 1_565 S
C166 O167 1.240 1_565 S
O167 C166 1.240 1_545 S
O168 Zn159 1.977 . S
O168 C161 1.267 . S
C169 O170 1.160 . S
C169 O176 1.185 . S
O170 C169 1.160 . S
O171 Zn172 1.899 . S
O171 C179 1.284 . S
Zn172 O171 1.899 . S
Zn172 O173 2.032 . S
Zn172 O176 2.086 1_655 S
Zn172 O181 1.977 . S
O173 Zn172 2.032 . S
O173 C177 1.278 . S
C174 O175 1.203 . S
C174 O181 1.267 . S
O175 C174 1.203 . S
O176 C169 1.185 . S
O176 Zn172 2.086 1_455 S
C177 O173 1.278 . S
C177 O178 1.211 . S
O178 C177 1.211 . S
C179 O171 1.284 . S
C179 O180 1.273 . S
O180 C179 1.273 . S
O181 Zn172 1.977 . S
O181 C174 1.267 . S
C182 O183 1.160 . S
C182 O189 1.185 . S
O183 C182 1.160 . S
O184 Zn185 1.899 . S
O184 C192 1.284 . S
Zn185 O184 1.899 . S
Zn185 O186 2.032 . S
Zn185 O189 2.086 . S
Zn185 O194 1.977 . S
O186 Zn185 2.032 . S
O186 C190 1.278 . S
C187 O188 1.203 . S
C187 O194 1.267 . S
O188 C187 1.203 . S
O189 C182 1.185 . S
O189 Zn185 2.086 . S
C190 O186 1.278 . S
C190 O191 1.211 . S
O191 C190 1.211 . S
C192 O184 1.284 . S
C192 O193 1.273 . S
O193 C192 1.273 . S
O194 Zn185 1.977 . S
O194 C187 1.267 . S
C195 O196 1.160 . S
C195 O202 1.185 . S
O196 C195 1.160 . S
O197 Zn198 1.899 . S
O197 C205 1.284 . S
Zn198 O197 1.899 . S
Zn198 O199 2.032 . S
Zn198 O202 2.086 . S
Zn198 O207 1.977 . S
O199 Zn198 2.032 . S
O199 C203 1.278 . S
C200 O201 1.203 . S
C200 O207 1.267 . S
O201 C200 1.203 . S
O202 C195 1.185 . S
O202 Zn198 2.086 . S
C203 O199 1.278 . S
C203 O204 1.211 . S
O204 C203 1.211 . S
C205 O197 1.284 . S
C205 O206 1.273 . S
O206 C205 1.273 . S
O207 Zn198 1.977 . S
O207 C200 1.267 . S
C208 O209 1.160 . S
C208 O215 1.185 . S
O209 C208 1.160 . S
O210 Zn211 1.894 . S
O210 C218 1.290 1_545 S
Zn211 O210 1.894 . S
Zn211 O212 2.032 . S
Zn211 O215 2.086 . S
Zn211 O220 1.977 . S
O212 Zn211 2.032 . S
O212 C216 1.278 . S
C213 O214 1.203 . S
C213 O220 1.267 . S
O214 C213 1.203 . S
O215 C208 1.185 . S
O215 Zn211 2.086 . S
C216 O212 1.278 . S
C216 O217 1.211 . S
O217 C216 1.211 . S
C218 O210 1.290 1_565 S
C218 O219 1.274 1_565 S
O219 C218 1.274 1_545 S
O220 Zn211 1.977 . S
O220 C213 1.267 . S
C221 O222 1.160 . S
C221 O228 1.185 . S
O222 C221 1.160 . S
O223 Zn224 1.899 . S
O223 C231 1.284 1_655 S
Zn224 O223 1.899 . S
Zn224 O225 2.032 . S
Zn224 O228 2.086 . S
Zn224 O233 1.977 . S
O225 Zn224 2.032 . S
O225 C229 1.278 . S
C226 O227 1.203 . S
C226 O233 1.267 . S
O227 C226 1.203 . S
O228 C221 1.185 . S
O228 Zn224 2.086 . S
C229 O225 1.278 . S
C229 O230 1.211 . S
O230 C229 1.211 . S
C231 O223 1.284 1_455 S
C231 O232 1.218 1_455 S
O232 C231 1.218 1_655 S
O233 Zn224 1.977 . S
O233 C226 1.267 . S
H234 C253 0.949 . S
H235 C254 0.950 . S
H236 C256 0.950 . S
H237 C257 0.950 . S
H238 C259 0.950 . S
H239 C262 0.950 . S
H240 C263 0.950 . S
H241 C265 0.951 . S
H242 C266 0.949 . S
H243 C268 0.949 . S
H244 C269 0.950 . S
H245 C271 0.950 . S
H246 C272 0.950 . S
H247 C274 0.950 . S
H248 C277 0.950 . S
H249 C278 0.950 . S
H250 C280 0.951 . S
H251 C281 0.949 . S
C252 C253 1.376 . S
C252 C257 1.386 . S
C252 C258 1.483 . S
C253 H234 0.949 . S
C253 C252 1.376 . S
C253 C254 1.397 . S
C254 H235 0.950 . S
C254 C253 1.397 . S
C254 C255 1.391 . S
C255 C254 1.391 . S
C255 C256 1.405 . S
C256 H236 0.950 . S
C256 C255 1.405 . S
C256 C257 1.367 . S
C257 H237 0.950 . S
C257 C252 1.386 . S
C257 C256 1.367 . S
C258 C252 1.483 . S
C258 C259 1.382 . S
C258 C260 1.403 . S
C259 H238 0.950 . S
C259 C258 1.382 . S
C259 C275 1.411 . S
C260 C258 1.403 . S
C260 C261 1.489 . S
C260 C274 1.411 . S
C261 C260 1.489 . S
C261 C262 1.383 . S
C261 C266 1.382 . S
C262 H239 0.950 . S
C262 C261 1.383 . S
C262 C263 1.395 . S
C263 H240 0.950 . S
C263 C262 1.395 . S
C263 C264 1.288 . S
C264 C263 1.288 . S
C264 C265 1.392 . S
C265 H241 0.951 . S
C265 C264 1.392 . S
C265 C266 1.392 . S
C266 H242 0.949 . S
C266 C261 1.382 . S
C266 C265 1.392 . S
C267 C268 1.376 . S
C267 C272 1.386 . S
C267 C273 1.483 . S
C268 H243 0.949 . S
C268 C267 1.376 . S
C268 C269 1.397 . S
C269 H244 0.950 . S
C269 C268 1.397 . S
C269 C270 1.391 . S
C270 C269 1.391 . S
C270 C271 1.405 . S
C271 H245 0.950 . S
C271 C270 1.405 . S
C271 C272 1.367 . S
C272 H246 0.950 . S
C272 C267 1.386 . S
C272 C271 1.367 . S
C273 C267 1.483 . S
C273 C274 1.382 . S
C273 C275 1.403 . S
C274 H247 0.950 . S
C274 C260 1.411 . S
C274 C273 1.382 . S
C275 C259 1.411 . S
C275 C273 1.403 . S
C275 C276 1.489 . S
C276 C275 1.489 . S
C276 C277 1.383 . S
C276 C281 1.382 . S
C277 H248 0.950 . S
C277 C276 1.383 . S
C277 C278 1.395 . S
C278 H249 0.950 . S
C278 C277 1.395 . S
C278 C279 1.288 . S
C279 C278 1.288 . S
C279 C280 1.392 . S
C280 H250 0.951 . S
C280 C279 1.392 . S
C280 C281 1.392 . S
C281 H251 0.949 . S
C281 C276 1.382 . S
C281 C280 1.392 . S
H282 C301 0.949 . S
H283 C302 0.950 . S
H284 C304 0.950 . S
H285 C305 0.950 . S
H286 C307 0.950 . S
H287 C310 0.950 . S
H288 C311 0.950 . S
H289 C313 0.951 . S
H290 C314 0.949 . S
H291 C316 0.949 . S
H292 C317 0.950 . S
H293 C319 0.950 . S
H294 C320 0.950 . S
H295 C322 0.950 . S
H296 C325 0.950 . S
H297 C326 0.950 . S
H298 C328 0.951 . S
H299 C329 0.949 . S
C300 C301 1.376 . S
C300 C305 1.386 . S
C300 C306 1.483 . S
C301 H282 0.949 . S
C301 C300 1.376 . S
C301 C302 1.397 . S
C302 H283 0.950 . S
C302 C301 1.397 . S
C302 C303 1.391 . S
C303 C302 1.391 . S
C303 C304 1.405 . S
C304 H284 0.950 . S
C304 C303 1.405 . S
C304 C305 1.367 . S
C305 H285 0.950 . S
C305 C300 1.386 . S
C305 C304 1.367 . S
C306 C300 1.483 . S
C306 C307 1.382 . S
C306 C308 1.403 . S
C307 H286 0.950 . S
C307 C306 1.382 . S
C307 C323 1.411 . S
C308 C306 1.403 . S
C308 C309 1.489 . S
C308 C322 1.411 . S
C309 C308 1.489 . S
C309 C310 1.383 . S
C309 C314 1.382 . S
C310 H287 0.950 . S
C310 C309 1.383 . S
C310 C311 1.395 . S
C311 H288 0.950 . S
C311 C310 1.395 . S
C311 C312 1.288 . S
C312 C311 1.288 . S
C312 C313 1.392 . S
C313 H289 0.951 . S
C313 C312 1.392 . S
C313 C314 1.392 . S
C314 H290 0.949 . S
C314 C309 1.382 . S
C314 C313 1.392 . S
C315 C316 1.376 . S
C315 C320 1.386 . S
C315 C321 1.483 . S
C316 H291 0.949 . S
C316 C315 1.376 . S
C316 C317 1.397 . S
C317 H292 0.950 . S
C317 C316 1.397 . S
C317 C318 1.391 . S
C318 C317 1.391 . S
C318 C319 1.405 . S
C319 H293 0.950 . S
C319 C318 1.405 . S
C319 C320 1.367 . S
C320 H294 0.950 . S
C320 C315 1.386 . S
C320 C319 1.367 . S
C321 C315 1.483 . S
C321 C322 1.382 . S
C321 C323 1.403 . S
C322 H295 0.950 . S
C322 C308 1.411 . S
C322 C321 1.382 . S
C323 C307 1.411 . S
C323 C321 1.403 . S
C323 C324 1.489 . S
C324 C323 1.489 . S
C324 C325 1.383 . S
C324 C329 1.382 . S
C325 H296 0.950 . S
C325 C324 1.383 . S
C325 C326 1.395 . S
C326 H297 0.950 . S
C326 C325 1.395 . S
C326 C327 1.288 . S
C327 C326 1.288 . S
C327 C328 1.392 . S
C328 H298 0.951 . S
C328 C327 1.392 . S
C328 C329 1.392 . S
C329 H299 0.949 . S
C329 C324 1.382 . S
C329 C328 1.392 . S
H330 C349 0.949 . S
H331 C350 0.950 . S
H332 C352 0.950 . S
H333 C353 0.950 . S
H334 C355 0.950 . S
H335 C358 0.950 . S
H336 C359 0.950 . S
H337 C361 0.951 . S
H338 C362 0.949 . S
H339 C364 0.949 . S
H340 C365 0.950 . S
H341 C367 0.950 . S
H342 C368 0.950 . S
H343 C370 0.950 . S
H344 C373 0.950 . S
H345 C374 0.950 . S
H346 C376 0.951 . S
H347 C377 0.949 . S
C348 C349 1.376 . S
C348 C353 1.386 . S
C348 C354 1.483 . S
C349 H330 0.949 . S
C349 C348 1.376 . S
C349 C350 1.397 . S
C350 H331 0.950 . S
C350 C349 1.397 . S
C350 C351 1.391 . S
C351 C350 1.391 . S
C351 C352 1.405 . S
C352 H332 0.950 . S
C352 C351 1.405 . S
C352 C353 1.367 . S
C353 H333 0.950 . S
C353 C348 1.386 . S
C353 C352 1.367 . S
C354 C348 1.483 . S
C354 C355 1.382 . S
C354 C356 1.403 . S
C355 H334 0.950 . S
C355 C354 1.382 . S
C355 C371 1.411 . S
C356 C354 1.403 . S
C356 C357 1.489 . S
C356 C370 1.411 . S
C357 C356 1.489 . S
C357 C358 1.383 . S
C357 C362 1.382 . S
C358 H335 0.950 . S
C358 C357 1.383 . S
C358 C359 1.395 . S
C359 H336 0.950 . S
C359 C358 1.395 . S
C359 C360 1.288 . S
C360 C359 1.288 . S
C360 C361 1.392 . S
C361 H337 0.951 . S
C361 C360 1.392 . S
C361 C362 1.392 . S
C362 H338 0.949 . S
C362 C357 1.382 . S
C362 C361 1.392 . S
C363 C364 1.376 . S
C363 C368 1.386 . S
C363 C369 1.483 . S
C364 H339 0.949 . S
C364 C363 1.376 . S
C364 C365 1.397 . S
C365 H340 0.950 . S
C365 C364 1.397 . S
C365 C366 1.391 . S
C366 C365 1.391 . S
C366 C367 1.405 . S
C367 H341 0.950 . S
C367 C366 1.405 . S
C367 C368 1.367 . S
C368 H342 0.950 . S
C368 C363 1.386 . S
C368 C367 1.367 . S
C369 C363 1.483 . S
C369 C370 1.382 . S
C369 C371 1.403 . S
C370 H343 0.950 . S
C370 C356 1.411 . S
C370 C369 1.382 . S
C371 C355 1.411 . S
C371 C369 1.403 . S
C371 C372 1.489 . S
C372 C371 1.489 . S
C372 C373 1.383 . S
C372 C377 1.382 . S
C373 H344 0.950 . S
C373 C372 1.383 . S
C373 C374 1.395 . S
C374 H345 0.950 . S
C374 C373 1.395 . S
C374 C375 1.288 . S
C375 C374 1.288 . S
C375 C376 1.392 . S
C376 H346 0.951 . S
C376 C375 1.392 . S
C376 C377 1.392 . S
C377 H347 0.949 . S
C377 C372 1.382 . S
C377 C376 1.392 . S
H378 C397 0.949 . S
H379 C398 0.950 . S
H380 C400 0.950 . S
H381 C401 0.950 . S
H382 C403 0.950 . S
H383 C406 0.950 . S
H384 C407 0.950 . S
H385 C409 0.951 . S
H386 C410 0.949 . S
H387 C412 0.949 . S
H388 C413 0.950 . S
H389 C415 0.950 . S
H390 C416 0.950 . S
H391 C418 0.950 . S
H392 C421 0.950 . S
H393 C422 0.950 . S
H394 C424 0.951 . S
H395 C425 0.949 . S
C396 C397 1.376 . S
C396 C401 1.386 . S
C396 C402 1.483 . S
C397 H378 0.949 . S
C397 C396 1.376 . S
C397 C398 1.397 . S
C398 H379 0.950 . S
C398 C397 1.397 . S
C398 C399 1.391 . S
C399 C398 1.391 . S
C399 C400 1.405 . S
C400 H380 0.950 . S
C400 C399 1.405 . S
C400 C401 1.367 . S
C401 H381 0.950 . S
C401 C396 1.386 . S
C401 C400 1.367 . S
C402 C396 1.483 . S
C402 C403 1.382 . S
C402 C404 1.403 . S
C403 H382 0.950 . S
C403 C402 1.382 . S
C403 C419 1.411 . S
C404 C402 1.403 . S
C404 C405 1.489 . S
C404 C418 1.411 . S
C405 C404 1.489 . S
C405 C406 1.383 . S
C405 C410 1.382 . S
C406 H383 0.950 . S
C406 C405 1.383 . S
C406 C407 1.395 . S
C407 H384 0.950 . S
C407 C406 1.395 . S
C407 C408 1.288 . S
C408 C407 1.288 . S
C408 C409 1.392 . S
C409 H385 0.951 . S
C409 C408 1.392 . S
C409 C410 1.392 . S
C410 H386 0.949 . S
C410 C405 1.382 . S
C410 C409 1.392 . S
C411 C412 1.376 . S
C411 C416 1.386 . S
C411 C417 1.483 . S
C412 H387 0.949 . S
C412 C411 1.376 . S
C412 C413 1.397 . S
C413 H388 0.950 . S
C413 C412 1.397 . S
C413 C414 1.391 . S
C414 C413 1.391 . S
C414 C415 1.405 . S
C415 H389 0.950 . S
C415 C414 1.405 . S
C415 C416 1.367 . S
C416 H390 0.950 . S
C416 C411 1.386 . S
C416 C415 1.367 . S
C417 C411 1.483 . S
C417 C418 1.382 . S
C417 C419 1.403 . S
C418 H391 0.950 . S
C418 C404 1.411 . S
C418 C417 1.382 . S
C419 C403 1.411 . S
C419 C417 1.403 . S
C419 C420 1.489 . S
C420 C419 1.489 . S
C420 C421 1.383 . S
C420 C425 1.382 . S
C421 H392 0.950 . S
C421 C420 1.383 . S
C421 C422 1.395 . S
C422 H393 0.950 . S
C422 C421 1.395 . S
C422 C423 1.288 . S
C423 C422 1.288 . S
C423 C424 1.392 . S
C424 H394 0.951 . S
C424 C423 1.392 . S
C424 C425 1.392 . S
C425 H395 0.949 . S
C425 C420 1.382 . S
C425 C424 1.392 . S
H426 C445 0.949 . S
H427 C446 0.950 . S
H428 C448 0.950 . S
H429 C449 0.950 . S
H430 C451 0.950 . S
H431 C454 0.950 . S
H432 C455 0.950 . S
H433 C457 0.951 . S
H434 C458 0.949 . S
H435 C460 0.949 . S
H436 C461 0.950 . S
H437 C463 0.950 . S
H438 C464 0.950 . S
H439 C466 0.950 . S
H440 C469 0.950 . S
H441 C470 0.950 . S
H442 C472 0.951 . S
H443 C473 0.949 . S
C444 C445 1.376 . S
C444 C449 1.386 . S
C444 C450 1.483 . S
C445 H426 0.949 . S
C445 C444 1.376 . S
C445 C446 1.397 . S
C446 H427 0.950 . S
C446 C445 1.397 . S
C446 C447 1.391 . S
C447 C446 1.391 . S
C447 C448 1.405 . S
C448 H428 0.950 . S
C448 C447 1.405 . S
C448 C449 1.367 . S
C449 H429 0.950 . S
C449 C444 1.386 . S
C449 C448 1.367 . S
C450 C444 1.483 . S
C450 C451 1.382 . S
C450 C452 1.403 . S
C451 H430 0.950 . S
C451 C450 1.382 . S
C451 C467 1.411 . S
C452 C450 1.403 . S
C452 C453 1.489 . S
C452 C466 1.411 . S
C453 C452 1.489 . S
C453 C454 1.383 . S
C453 C458 1.382 . S
C454 H431 0.950 . S
C454 C453 1.383 . S
C454 C455 1.395 . S
C455 H432 0.950 . S
C455 C454 1.395 . S
C455 C456 1.288 . S
C456 C455 1.288 . S
C456 C457 1.392 . S
C457 H433 0.951 . S
C457 C456 1.392 . S
C457 C458 1.392 . S
C458 H434 0.949 . S
C458 C453 1.382 . S
C458 C457 1.392 . S
C459 C460 1.376 . S
C459 C464 1.386 . S
C459 C465 1.483 . S
C460 H435 0.949 . S
C460 C459 1.376 . S
C460 C461 1.397 . S
C461 H436 0.950 . S
C461 C460 1.397 . S
C461 C462 1.391 . S
C462 C461 1.391 . S
C462 C463 1.405 . S
C463 H437 0.950 . S
C463 C462 1.405 . S
C463 C464 1.367 . S
C464 H438 0.950 . S
C464 C459 1.386 . S
C464 C463 1.367 . S
C465 C459 1.483 . S
C465 C466 1.382 . S
C465 C467 1.403 . S
C466 H439 0.950 . S
C466 C452 1.411 . S
C466 C465 1.382 . S
C467 C451 1.411 . S
C467 C465 1.403 . S
C467 C468 1.489 . S
C468 C467 1.489 . S
C468 C469 1.383 . S
C468 C473 1.382 . S
C469 H440 0.950 . S
C469 C468 1.383 . S
C469 C470 1.395 . S
C470 H441 0.950 . S
C470 C469 1.395 . S
C470 C471 1.288 . S
C471 C470 1.288 . S
C471 C472 1.392 . S
C472 H442 0.951 . S
C472 C471 1.392 . S
C472 C473 1.392 . S
C473 H443 0.949 . S
C473 C468 1.382 . S
C473 C472 1.392 . S
H474 C493 0.949 . S
H475 C494 0.950 . S
H476 C496 0.950 . S
H477 C497 0.950 . S
H478 C499 0.950 . S
H479 C502 0.950 . S
H480 C503 0.950 . S
H481 C505 0.951 . S
H482 C506 0.949 . S
H483 C508 0.949 . S
H484 C509 0.950 . S
H485 C511 0.950 . S
H486 C512 0.950 . S
H487 C514 0.950 . S
H488 C517 0.950 . S
H489 C518 0.950 . S
H490 C520 0.951 . S
H491 C521 0.949 . S
C492 C493 1.376 . S
C492 C497 1.386 . S
C492 C498 1.483 . S
C493 H474 0.949 . S
C493 C492 1.376 . S
C493 C494 1.397 . S
C494 H475 0.950 . S
C494 C493 1.397 . S
C494 C495 1.391 . S
C495 C494 1.391 . S
C495 C496 1.405 . S
C496 H476 0.950 . S
C496 C495 1.405 . S
C496 C497 1.367 . S
C497 H477 0.950 . S
C497 C492 1.386 . S
C497 C496 1.367 . S
C498 C492 1.483 . S
C498 C499 1.382 . S
C498 C500 1.403 . S
C499 H478 0.950 . S
C499 C498 1.382 . S
C499 C515 1.411 . S
C500 C498 1.403 . S
C500 C501 1.489 . S
C500 C514 1.411 . S
C501 C500 1.489 . S
C501 C502 1.383 . S
C501 C506 1.382 . S
C502 H479 0.950 . S
C502 C501 1.383 . S
C502 C503 1.395 . S
C503 H480 0.950 . S
C503 C502 1.395 . S
C503 C504 1.288 . S
C504 C503 1.288 . S
C504 C505 1.392 . S
C505 H481 0.951 . S
C505 C504 1.392 . S
C505 C506 1.392 . S
C506 H482 0.949 . S
C506 C501 1.382 . S
C506 C505 1.392 . S
C507 C508 1.376 . S
C507 C512 1.386 . S
C507 C513 1.483 . S
C508 H483 0.949 . S
C508 C507 1.376 . S
C508 C509 1.397 . S
C509 H484 0.950 . S
C509 C508 1.397 . S
C509 C510 1.391 . S
C510 C509 1.391 . S
C510 C511 1.405 . S
C511 H485 0.950 . S
C511 C510 1.405 . S
C511 C512 1.367 . S
C512 H486 0.950 . S
C512 C507 1.386 . S
C512 C511 1.367 . S
C513 C507 1.483 . S
C513 C514 1.382 . S
C513 C515 1.403 . S
C514 H487 0.950 . S
C514 C500 1.411 . S
C514 C513 1.382 . S
C515 C499 1.411 . S
C515 C513 1.403 . S
C515 C516 1.489 . S
C516 C515 1.489 . S
C516 C517 1.383 . S
C516 C521 1.382 . S
C517 H488 0.950 . S
C517 C516 1.383 . S
C517 C518 1.395 . S
C518 H489 0.950 . S
C518 C517 1.395 . S
C518 C519 1.288 . S
C519 C518 1.288 . S
C519 C520 1.392 . S
C520 H490 0.951 . S
C520 C519 1.392 . S
C520 C521 1.392 . S
C521 H491 0.949 . S
C521 C516 1.382 . S
C521 C520 1.392 . S
H522 C541 0.949 . S
H523 C542 0.950 . S
H524 C544 0.950 . S
H525 C545 0.950 . S
H526 C547 0.950 . S
H527 C550 0.950 . S
H528 C551 0.950 . S
H529 C553 0.951 . S
H530 C554 0.949 . S
H531 C556 0.949 . S
H532 C557 0.950 . S
H533 C559 0.950 . S
H534 C560 0.950 . S
H535 C562 0.950 . S
H536 C565 0.950 . S
H537 C566 0.950 . S
H538 C568 0.951 . S
H539 C569 0.949 . S
C540 C541 1.376 . S
C540 C545 1.386 . S
C540 C546 1.483 . S
C541 H522 0.949 . S
C541 C540 1.376 . S
C541 C542 1.397 . S
C542 H523 0.950 . S
C542 C541 1.397 . S
C542 C543 1.391 . S
C543 C542 1.391 . S
C543 C544 1.405 . S
C544 H524 0.950 . S
C544 C543 1.405 . S
C544 C545 1.367 . S
C545 H525 0.950 . S
C545 C540 1.386 . S
C545 C544 1.367 . S
C546 C540 1.483 . S
C546 C547 1.382 . S
C546 C548 1.403 . S
C547 H526 0.950 . S
C547 C546 1.382 . S
C547 C563 1.411 . S
C548 C546 1.403 . S
C548 C549 1.489 . S
C548 C562 1.411 . S
C549 C548 1.489 . S
C549 C550 1.383 . S
C549 C554 1.382 . S
C550 H527 0.950 . S
C550 C549 1.383 . S
C550 C551 1.395 . S
C551 H528 0.950 . S
C551 C550 1.395 . S
C551 C552 1.288 . S
C552 C551 1.288 . S
C552 C553 1.392 . S
C553 H529 0.951 . S
C553 C552 1.392 . S
C553 C554 1.392 . S
C554 H530 0.949 . S
C554 C549 1.382 . S
C554 C553 1.392 . S
C555 C556 1.376 . S
C555 C560 1.386 . S
C555 C561 1.483 . S
C556 H531 0.949 . S
C556 C555 1.376 . S
C556 C557 1.397 . S
C557 H532 0.950 . S
C557 C556 1.397 . S
C557 C558 1.391 . S
C558 C557 1.391 . S
C558 C559 1.405 . S
C559 H533 0.950 . S
C559 C558 1.405 . S
C559 C560 1.367 . S
C560 H534 0.950 . S
C560 C555 1.386 . S
C560 C559 1.367 . S
C561 C555 1.483 . S
C561 C562 1.382 . S
C561 C563 1.403 . S
C562 H535 0.950 . S
C562 C548 1.411 . S
C562 C561 1.382 . S
C563 C547 1.411 . S
C563 C561 1.403 . S
C563 C564 1.489 . S
C564 C563 1.489 . S
C564 C565 1.383 . S
C564 C569 1.382 . S
C565 H536 0.950 . S
C565 C564 1.383 . S
C565 C566 1.395 . S
C566 H537 0.950 . S
C566 C565 1.395 . S
C566 C567 1.288 . S
C567 C566 1.288 . S
C567 C568 1.392 . S
C568 H538 0.951 . S
C568 C567 1.392 . S
C568 C569 1.392 . S
C569 H539 0.949 . S
C569 C564 1.382 . S
C569 C568 1.392 . S
H570 C589 0.949 . S
H571 C590 0.950 . S
H572 C592 0.950 . S
H573 C593 0.950 . S
H574 C595 0.950 . S
H575 C598 0.950 . S
H576 C599 0.950 . S
H577 C601 0.951 . S
H578 C602 0.949 . S
H579 C604 0.949 . S
H580 C605 0.950 . S
H581 C607 0.950 . S
H582 C608 0.950 . S
H583 C610 0.950 . S
H584 C613 0.950 . S
H585 C614 0.950 . S
H586 C616 0.951 . S
H587 C617 0.949 . S
C588 C589 1.376 . S
C588 C593 1.386 . S
C588 C594 1.483 . S
C589 H570 0.949 . S
C589 C588 1.376 . S
C589 C590 1.397 . S
C590 H571 0.950 . S
C590 C589 1.397 . S
C590 C591 1.391 . S
C591 C590 1.391 . S
C591 C592 1.405 . S
C592 H572 0.950 . S
C592 C591 1.405 . S
C592 C593 1.367 . S
C593 H573 0.950 . S
C593 C588 1.386 . S
C593 C592 1.367 . S
C594 C588 1.483 . S
C594 C595 1.382 . S
C594 C596 1.403 . S
C595 H574 0.950 . S
C595 C594 1.382 . S
C595 C611 1.411 . S
C596 C594 1.403 . S
C596 C597 1.489 . S
C596 C610 1.411 . S
C597 C596 1.489 . S
C597 C598 1.383 . S
C597 C602 1.382 . S
C598 H575 0.950 . S
C598 C597 1.383 . S
C598 C599 1.395 . S
C599 H576 0.950 . S
C599 C598 1.395 . S
C599 C600 1.288 . S
C600 C599 1.288 . S
C600 C601 1.392 . S
C601 H577 0.951 . S
C601 C600 1.392 . S
C601 C602 1.392 . S
C602 H578 0.949 . S
C602 C597 1.382 . S
C602 C601 1.392 . S
C603 C604 1.376 . S
C603 C608 1.386 . S
C603 C609 1.483 . S
C604 H579 0.949 . S
C604 C603 1.376 . S
C604 C605 1.397 . S
C605 H580 0.950 . S
C605 C604 1.397 . S
C605 C606 1.391 . S
C606 C605 1.391 . S
C606 C607 1.405 . S
C607 H581 0.950 . S
C607 C606 1.405 . S
C607 C608 1.367 . S
C608 H582 0.950 . S
C608 C603 1.386 . S
C608 C607 1.367 . S
C609 C603 1.483 . S
C609 C610 1.382 . S
C609 C611 1.403 . S
C610 H583 0.950 . S
C610 C596 1.411 . S
C610 C609 1.382 . S
C611 C595 1.411 . S
C611 C609 1.403 . S
C611 C612 1.489 . S
C612 C611 1.489 . S
C612 C613 1.383 . S
C612 C617 1.382 . S
C613 H584 0.950 . S
C613 C612 1.383 . S
C613 C614 1.395 . S
C614 H585 0.950 . S
C614 C613 1.395 . S
C614 C615 1.288 . S
C615 C614 1.288 . S
C615 C616 1.392 . S
C616 H586 0.951 . S
C616 C615 1.392 . S
C616 C617 1.392 . S
C617 H587 0.949 . S
C617 C612 1.382 . S
C617 C616 1.392 . S
H618 C637 0.949 . S
H619 C638 0.950 . S
H620 C640 0.950 . S
H621 C641 0.950 . S
H622 C643 0.950 . S
H623 C646 0.950 . S
H624 C647 0.950 . S
H625 C649 0.951 . S
H626 C650 0.949 . S
H627 C652 0.949 . S
H628 C653 0.950 . S
H629 C655 0.950 . S
H630 C656 0.950 . S
H631 C658 0.950 . S
H632 C661 0.950 . S
H633 C662 0.950 . S
H634 C664 0.951 . S
H635 C665 0.949 . S
C636 C637 1.376 . S
C636 C641 1.386 . S
C636 C642 1.483 . S
C637 H618 0.949 . S
C637 C636 1.376 . S
C637 C638 1.397 . S
C638 H619 0.950 . S
C638 C637 1.397 . S
C638 C639 1.391 . S
C639 C638 1.391 . S
C639 C640 1.405 . S
C640 H620 0.950 . S
C640 C639 1.405 . S
C640 C641 1.367 . S
C641 H621 0.950 . S
C641 C636 1.386 . S
C641 C640 1.367 . S
C642 C636 1.483 . S
C642 C643 1.382 . S
C642 C644 1.403 . S
C643 H622 0.950 . S
C643 C642 1.382 . S
C643 C659 1.411 . S
C644 C642 1.403 . S
C644 C645 1.489 . S
C644 C658 1.411 . S
C645 C644 1.489 . S
C645 C646 1.383 . S
C645 C650 1.382 . S
C646 H623 0.950 . S
C646 C645 1.383 . S
C646 C647 1.395 . S
C647 H624 0.950 . S
C647 C646 1.395 . S
C647 C648 1.288 . S
C648 C647 1.288 . S
C648 C649 1.392 . S
C649 H625 0.951 . S
C649 C648 1.392 . S
C649 C650 1.392 . S
C650 H626 0.949 . S
C650 C645 1.382 . S
C650 C649 1.392 . S
C651 C652 1.376 . S
C651 C656 1.386 . S
C651 C657 1.483 . S
C652 H627 0.949 . S
C652 C651 1.376 . S
C652 C653 1.397 . S
C653 H628 0.950 . S
C653 C652 1.397 . S
C653 C654 1.391 . S
C654 C653 1.391 . S
C654 C655 1.405 . S
C655 H629 0.950 . S
C655 C654 1.405 . S
C655 C656 1.367 . S
C656 H630 0.950 . S
C656 C651 1.386 . S
C656 C655 1.367 . S
C657 C651 1.483 . S
C657 C658 1.382 . S
C657 C659 1.403 . S
C658 H631 0.950 . S
C658 C644 1.411 . S
C658 C657 1.382 . S
C659 C643 1.411 . S
C659 C657 1.403 . S
C659 C660 1.489 . S
C660 C659 1.489 . S
C660 C661 1.383 . S
C660 C665 1.382 . S
C661 H632 0.950 . S
C661 C660 1.383 . S
C661 C662 1.395 . S
C662 H633 0.950 . S
C662 C661 1.395 . S
C662 C663 1.288 . S
C663 C662 1.288 . S
C663 C664 1.392 . S
C664 H634 0.951 . S
C664 C663 1.392 . S
C664 C665 1.392 . S
C665 H635 0.949 . S
C665 C660 1.382 . S
C665 C664 1.392 . S
H666 C685 0.949 . S
H667 C686 0.950 . S
H668 C688 0.950 . S
H669 C689 0.950 . S
H670 C691 0.950 . S
H671 C694 0.950 . S
H672 C695 0.950 . S
H673 C697 0.951 . S
H674 C698 0.949 . S
H675 C700 0.949 . S
H676 C701 0.950 . S
H677 C703 0.950 . S
H678 C704 0.950 . S
H679 C706 0.950 . S
H680 C709 0.950 . S
H681 C710 0.950 . S
H682 C712 0.951 . S
H683 C713 0.949 . S
C684 C685 1.376 . S
C684 C689 1.386 1_655 S
C684 C690 1.483 . S
C685 H666 0.949 . S
C685 C684 1.376 . S
C685 C686 1.397 . S
C686 H667 0.950 . S
C686 C685 1.397 . S
C686 C687 1.391 . S
C687 C686 1.391 . S
C687 C688 1.405 1_655 S
C688 H668 0.950 . S
C688 C687 1.405 1_455 S
C688 C689 1.367 . S
C689 H669 0.950 . S
C689 C684 1.386 1_455 S
C689 C688 1.367 . S
C690 C684 1.483 . S
C690 C691 1.382 . S
C690 C692 1.403 1_655 S
C691 H670 0.950 . S
C691 C690 1.382 . S
C691 C707 1.411 . S
C692 C690 1.403 1_455 S
C692 C693 1.489 . S
C692 C706 1.411 . S
C693 C692 1.489 . S
C693 C694 1.383 1_455 S
C693 C698 1.382 . S
C694 H671 0.950 . S
C694 C693 1.383 1_655 S
C694 C695 1.395 . S
C695 H672 0.950 . S
C695 C694 1.395 . S
C695 C696 1.288 1_655 S
C696 C695 1.288 1_455 S
C696 C697 1.392 . S
C697 H673 0.951 . S
C697 C696 1.392 . S
C697 C698 1.392 . S
C698 H674 0.949 . S
C698 C693 1.382 . S
C698 C697 1.392 . S
C699 C700 1.376 . S
C699 C704 1.386 1_455 S
C699 C705 1.483 . S
C700 H675 0.949 . S
C700 C699 1.376 . S
C700 C701 1.397 . S
C701 H676 0.950 . S
C701 C700 1.397 . S
C701 C702 1.391 . S
C702 C701 1.391 . S
C702 C703 1.405 1_455 S
C703 H677 0.950 . S
C703 C702 1.405 1_655 S
C703 C704 1.367 . S
C704 H678 0.950 . S
C704 C699 1.386 1_655 S
C704 C703 1.367 . S
C705 C699 1.483 . S
C705 C706 1.382 . S
C705 C707 1.403 1_455 S
C706 H679 0.950 . S
C706 C692 1.411 . S
C706 C705 1.382 . S
C707 C691 1.411 . S
C707 C705 1.403 1_655 S
C707 C708 1.489 . S
C708 C707 1.489 . S
C708 C709 1.383 1_655 S
C708 C713 1.382 . S
C709 H680 0.950 . S
C709 C708 1.383 1_455 S
C709 C710 1.395 . S
C710 H681 0.950 . S
C710 C709 1.395 . S
C710 C711 1.288 1_455 S
C711 C710 1.288 1_655 S
C711 C712 1.392 . S
C712 H682 0.951 . S
C712 C711 1.392 . S
C712 C713 1.392 . S
C713 H683 0.949 . S
C713 C708 1.382 . S
C713 C712 1.392 . S
H714 C733 0.949 . S
H715 C734 0.950 . S
H716 C736 0.950 . S
H717 C737 0.950 . S
H718 C739 0.950 . S
H719 C742 0.950 . S
H720 C743 0.950 . S
H721 C745 0.951 . S
H722 C746 0.949 . S
H723 C748 0.949 . S
H724 C749 0.950 . S
H725 C751 0.950 . S
H726 C752 0.950 . S
H727 C754 0.950 . S
H728 C757 0.950 . S
H729 C758 0.950 . S
H730 C760 0.951 . S
H731 C761 0.949 . S
C732 C733 1.376 . S
C732 C737 1.386 . S
C732 C738 1.483 . S
C733 H714 0.949 . S
C733 C732 1.376 . S
C733 C734 1.397 . S
C734 H715 0.950 . S
C734 C733 1.397 . S
C734 C735 1.391 . S
C735 C734 1.391 . S
C735 C736 1.405 . S
C736 H716 0.950 . S
C736 C735 1.405 . S
C736 C737 1.367 . S
C737 H717 0.950 . S
C737 C732 1.386 . S
C737 C736 1.367 . S
C738 C732 1.483 . S
C738 C739 1.382 . S
C738 C740 1.403 . S
C739 H718 0.950 . S
C739 C738 1.382 . S
C739 C755 1.411 . S
C740 C738 1.403 . S
C740 C741 1.489 . S
C740 C754 1.411 . S
C741 C740 1.489 . S
C741 C742 1.383 . S
C741 C746 1.382 . S
C742 H719 0.950 . S
C742 C741 1.383 . S
C742 C743 1.395 . S
C743 H720 0.950 . S
C743 C742 1.395 . S
C743 C744 1.288 . S
C744 C743 1.288 . S
C744 C745 1.392 . S
C745 H721 0.951 . S
C745 C744 1.392 . S
C745 C746 1.392 . S
C746 H722 0.949 . S
C746 C741 1.382 . S
C746 C745 1.392 . S
C747 C748 1.376 . S
C747 C752 1.386 . S
C747 C753 1.483 . S
C748 H723 0.949 . S
C748 C747 1.376 . S
C748 C749 1.397 . S
C749 H724 0.950 . S
C749 C748 1.397 . S
C749 C750 1.391 . S
C750 C749 1.391 . S
C750 C751 1.405 . S
C751 H725 0.950 . S
C751 C750 1.405 . S
C751 C752 1.367 . S
C752 H726 0.950 . S
C752 C747 1.386 . S
C752 C751 1.367 . S
C753 C747 1.483 . S
C753 C754 1.382 . S
C753 C755 1.403 . S
C754 H727 0.950 . S
C754 C740 1.411 . S
C754 C753 1.382 . S
C755 C739 1.411 . S
C755 C753 1.403 . S
C755 C756 1.489 . S
C756 C755 1.489 . S
C756 C757 1.383 . S
C756 C761 1.382 . S
C757 H728 0.950 . S
C757 C756 1.383 . S
C757 C758 1.395 . S
C758 H729 0.950 . S
C758 C757 1.395 . S
C758 C759 1.288 . S
C759 C758 1.288 . S
C759 C760 1.392 . S
C760 H730 0.951 . S
C760 C759 1.392 . S
C760 C761 1.392 . S
C761 H731 0.949 . S
C761 C756 1.382 . S
C761 C760 1.392 . S
H762 C781 0.949 . S
H763 C782 0.950 . S
H764 C784 0.950 . S
H765 C785 0.950 . S
H766 C787 0.950 . S
H767 C790 0.950 . S
H768 C791 0.950 . S
H769 C793 0.951 . S
H770 C794 0.949 . S
H771 C796 0.949 . S
H772 C797 0.950 . S
H773 C799 0.950 . S
H774 C800 0.950 . S
H775 C802 0.950 . S
H776 C805 0.950 . S
H777 C806 0.950 . S
H778 C808 0.951 . S
H779 C809 0.949 . S
C780 C781 1.376 . S
C780 C785 1.386 1_545 S
C780 C786 1.483 . S
C781 H762 0.949 . S
C781 C780 1.376 . S
C781 C782 1.397 . S
C782 H763 0.950 . S
C782 C781 1.397 . S
C782 C783 1.391 . S
C783 C782 1.391 . S
C783 C784 1.405 1_545 S
C784 H764 0.950 . S
C784 C783 1.405 1_565 S
C784 C785 1.367 . S
C785 H765 0.950 . S
C785 C780 1.386 1_565 S
C785 C784 1.367 . S
C786 C780 1.483 . S
C786 C787 1.382 . S
C786 C788 1.403 1_545 S
C787 H766 0.950 . S
C787 C786 1.382 . S
C787 C803 1.411 . S
C788 C786 1.403 1_565 S
C788 C789 1.489 . S
C788 C802 1.411 . S
C789 C788 1.489 . S
C789 C790 1.383 1_565 S
C789 C794 1.382 . S
C790 H767 0.950 . S
C790 C789 1.383 1_545 S
C790 C791 1.395 . S
C791 H768 0.950 . S
C791 C790 1.395 . S
C791 C792 1.288 1_545 S
C792 C791 1.288 1_565 S
C792 C793 1.392 . S
C793 H769 0.951 . S
C793 C792 1.392 . S
C793 C794 1.392 . S
C794 H770 0.949 . S
C794 C789 1.382 . S
C794 C793 1.392 . S
C795 C796 1.376 . S
C795 C800 1.386 1_565 S
C795 C801 1.483 . S
C796 H771 0.949 . S
C796 C795 1.376 . S
C796 C797 1.397 . S
C797 H772 0.950 . S
C797 C796 1.397 . S
C797 C798 1.391 . S
C798 C797 1.391 . S
C798 C799 1.405 1_565 S
C799 H773 0.950 . S
C799 C798 1.405 1_545 S
C799 C800 1.367 . S
C800 H774 0.950 . S
C800 C795 1.386 1_545 S
C800 C799 1.367 . S
C801 C795 1.483 . S
C801 C802 1.382 . S
C801 C803 1.403 1_565 S
C802 H775 0.950 . S
C802 C788 1.411 . S
C802 C801 1.382 . S
C803 C787 1.411 . S
C803 C801 1.403 1_545 S
C803 C804 1.489 . S
C804 C803 1.489 . S
C804 C805 1.383 1_545 S
C804 C809 1.382 . S
C805 H776 0.950 . S
C805 C804 1.383 1_565 S
C805 C806 1.395 . S
C806 H777 0.950 . S
C806 C805 1.395 . S
C806 C807 1.288 1_565 S
C807 C806 1.288 1_545 S
C807 C808 1.392 . S
C808 H778 0.951 . S
C808 C807 1.392 . S
C808 C809 1.392 . S
C809 H779 0.949 . S
C809 C804 1.382 . S
C809 C808 1.392 . S
H810 C829 0.949 . S
H811 C830 0.950 . S
H812 C832 0.950 . S
H813 C833 0.950 . S
H814 C835 0.950 . S
H815 C838 0.950 . S
H816 C839 0.950 . S
H817 C841 0.951 . S
H818 C842 0.949 . S
H819 C844 0.949 . S
H820 C845 0.950 . S
H821 C847 0.950 . S
H822 C848 0.950 . S
H823 C850 0.950 . S
H824 C853 0.950 . S
H825 C854 0.950 . S
H826 C856 0.951 . S
H827 C857 0.949 . S
C828 C829 1.403 . S
C828 C833 1.375 1_545 S
C828 C834 1.499 . S
C829 H810 0.949 . S
C829 C828 1.403 . S
C829 C830 1.397 . S
C830 H811 0.950 . S
C830 C829 1.397 . S
C830 C831 1.391 1_545 S
C831 C830 1.391 1_565 S
C831 C832 1.405 . S
C832 H812 0.950 . S
C832 C831 1.405 . S
C832 C833 1.367 . S
C833 H813 0.950 . S
C833 C828 1.375 1_565 S
C833 C832 1.367 . S
C834 C828 1.499 . S
C834 C835 1.350 . S
C834 C836 1.402 1_545 S
C835 H814 0.950 . S
C835 C834 1.350 . S
C835 C851 1.438 . S
C836 C834 1.402 1_565 S
C836 C837 1.476 . S
C836 C850 1.428 . S
C837 C836 1.476 . S
C837 C838 1.378 1_565 S
C837 C842 1.384 . S
C838 H815 0.950 . S
C838 C837 1.378 1_545 S
C838 C839 1.395 . S
C839 H816 0.950 . S
C839 C838 1.395 . S
C839 C840 1.288 . S
C840 C839 1.288 . S
C840 C841 1.392 1_545 S
C841 H817 0.951 . S
C841 C840 1.392 1_565 S
C841 C842 1.392 . S
C842 H818 0.949 . S
C842 C837 1.384 . S
C842 C841 1.392 . S
C843 C844 1.390 . S
C843 C848 1.380 1_565 S
C843 C849 1.499 . S
C844 H819 0.949 . S
C844 C843 1.390 . S
C844 C845 1.397 . S
C845 H820 0.950 . S
C845 C844 1.397 . S
C845 C846 1.391 1_565 S
C846 C845 1.391 1_545 S
C846 C847 1.405 . S
C847 H821 0.950 . S
C847 C846 1.405 . S
C847 C848 1.367 . S
C848 H822 0.950 . S
C848 C843 1.380 1_545 S
C848 C847 1.367 . S
C849 C843 1.499 . S
C849 C850 1.357 . S
C849 C851 1.402 1_565 S
C850 H823 0.950 . S
C850 C836 1.428 . S
C850 C849 1.357 . S
C851 C835 1.438 . S
C851 C849 1.402 1_545 S
C851 C852 1.476 . S
C852 C851 1.476 . S
C852 C853 1.361 1_545 S
C852 C857 1.393 . S
C853 H824 0.950 . S
C853 C852 1.361 1_565 S
C853 C854 1.395 . S
C854 H825 0.950 . S
C854 C853 1.395 . S
C854 C855 1.288 . S
C855 C854 1.288 . S
C855 C856 1.392 1_565 S
C856 H826 0.951 . S
C856 C855 1.392 1_545 S
C856 C857 1.392 . S
C857 H827 0.949 . S
C857 C852 1.393 . S
C857 C856 1.392 . S
H858 C877 0.949 . S
H859 C878 0.950 . S
H860 C880 0.950 . S
H861 C881 0.950 . S
H862 C883 0.950 . S
H863 C886 0.950 . S
H864 C887 0.950 . S
H865 C889 0.951 . S
H866 C890 0.949 . S
H867 C892 0.949 . S
H868 C893 0.950 . S
H869 C895 0.950 . S
H870 C896 0.950 . S
H871 C898 0.950 . S
H872 C901 0.950 . S
H873 C902 0.950 . S
H874 C904 0.951 . S
H875 C905 0.949 . S
C876 C877 1.376 . S
C876 C881 1.386 1_455 S
C876 C882 1.483 . S
C877 H858 0.949 . S
C877 C876 1.376 . S
C877 C878 1.397 . S
C878 H859 0.950 . S
C878 C877 1.397 . S
C878 C879 1.391 . S
C879 C878 1.391 . S
C879 C880 1.405 1_455 S
C880 H860 0.950 . S
C880 C879 1.405 1_655 S
C880 C881 1.367 . S
C881 H861 0.950 . S
C881 C876 1.386 1_655 S
C881 C880 1.367 . S
C882 C876 1.483 . S
C882 C883 1.382 . S
C882 C884 1.403 1_455 S
C883 H862 0.950 . S
C883 C882 1.382 . S
C883 C899 1.411 . S
C884 C882 1.403 1_655 S
C884 C885 1.489 . S
C884 C898 1.411 . S
C885 C884 1.489 . S
C885 C886 1.383 1_655 S
C885 C890 1.382 . S
C886 H863 0.950 . S
C886 C885 1.383 1_455 S
C886 C887 1.395 . S
C887 H864 0.950 . S
C887 C886 1.395 . S
C887 C888 1.288 1_455 S
C888 C887 1.288 1_655 S
C888 C889 1.392 . S
C889 H865 0.951 . S
C889 C888 1.392 . S
C889 C890 1.392 . S
C890 H866 0.949 . S
C890 C885 1.382 . S
C890 C889 1.392 . S
C891 C892 1.376 . S
C891 C896 1.386 1_655 S
C891 C897 1.483 . S
C892 H867 0.949 . S
C892 C891 1.376 . S
C892 C893 1.397 . S
C893 H868 0.950 . S
C893 C892 1.397 . S
C893 C894 1.391 . S
C894 C893 1.391 . S
C894 C895 1.405 1_655 S
C895 H869 0.950 . S
C895 C894 1.405 1_455 S
C895 C896 1.367 . S
C896 H870 0.950 . S
C896 C891 1.386 1_455 S
C896 C895 1.367 . S
C897 C891 1.483 . S
C897 C898 1.382 . S
C897 C899 1.403 1_655 S
C898 H871 0.950 . S
C898 C884 1.411 . S
C898 C897 1.382 . S
C899 C883 1.411 . S
C899 C897 1.403 1_455 S
C899 C900 1.489 . S
C900 C899 1.489 . S
C900 C901 1.383 1_455 S
C900 C905 1.382 . S
C901 H872 0.950 . S
C901 C900 1.383 1_655 S
C901 C902 1.395 . S
C902 H873 0.950 . S
C902 C901 1.395 . S
C902 C903 1.288 1_655 S
C903 C902 1.288 1_455 S
C903 C904 1.392 . S
C904 H874 0.951 . S
C904 C903 1.392 . S
C904 C905 1.392 . S
C905 H875 0.949 . S
C905 C900 1.382 . S
C905 C904 1.392 . S
H906 C925 0.949 . S
H907 C926 0.950 . S
H908 C928 0.950 . S
H909 C929 0.950 . S
H910 C931 0.950 . S
H911 C934 0.950 . S
H912 C935 0.950 . S
H913 C937 0.951 . S
H914 C938 0.949 . S
H915 C940 0.949 . S
H916 C941 0.950 . S
H917 C943 0.950 . S
H918 C944 0.950 . S
H919 C946 0.950 . S
H920 C949 0.950 . S
H921 C950 0.950 . S
H922 C952 0.951 . S
H923 C953 0.949 . S
C924 C925 1.376 . S
C924 C929 1.386 . S
C924 C930 1.483 . S
C925 H906 0.949 . S
C925 C924 1.376 . S
C925 C926 1.397 . S
C926 H907 0.950 . S
C926 C925 1.397 . S
C926 C927 1.391 . S
C927 C926 1.391 . S
C927 C928 1.405 . S
C928 H908 0.950 . S
C928 C927 1.405 . S
C928 C929 1.367 . S
C929 H909 0.950 . S
C929 C924 1.386 . S
C929 C928 1.367 . S
C930 C924 1.483 . S
C930 C931 1.382 . S
C930 C932 1.403 . S
C931 H910 0.950 . S
C931 C930 1.382 . S
C931 C947 1.411 . S
C932 C930 1.403 . S
C932 C933 1.489 . S
C932 C946 1.411 . S
C933 C932 1.489 . S
C933 C934 1.383 . S
C933 C938 1.382 . S
C934 H911 0.950 . S
C934 C933 1.383 . S
C934 C935 1.395 . S
C935 H912 0.950 . S
C935 C934 1.395 . S
C935 C936 1.288 . S
C936 C935 1.288 . S
C936 C937 1.392 . S
C937 H913 0.951 . S
C937 C936 1.392 . S
C937 C938 1.392 . S
C938 H914 0.949 . S
C938 C933 1.382 . S
C938 C937 1.392 . S
C939 C940 1.376 . S
C939 C944 1.386 . S
C939 C945 1.483 . S
C940 H915 0.949 . S
C940 C939 1.376 . S
C940 C941 1.397 . S
C941 H916 0.950 . S
C941 C940 1.397 . S
C941 C942 1.391 . S
C942 C941 1.391 . S
C942 C943 1.405 . S
C943 H917 0.950 . S
C943 C942 1.405 . S
C943 C944 1.367 . S
C944 H918 0.950 . S
C944 C939 1.386 . S
C944 C943 1.367 . S
C945 C939 1.483 . S
C945 C946 1.382 . S
C945 C947 1.403 . S
C946 H919 0.950 . S
C946 C932 1.411 . S
C946 C945 1.382 . S
C947 C931 1.411 . S
C947 C945 1.403 . S
C947 C948 1.489 . S
C948 C947 1.489 . S
C948 C949 1.383 . S
C948 C953 1.382 . S
C949 H920 0.950 . S
C949 C948 1.383 . S
C949 C950 1.395 . S
C950 H921 0.950 . S
C950 C949 1.395 . S
C950 C951 1.288 . S
C951 C950 1.288 . S
C951 C952 1.392 . S
C952 H922 0.951 . S
C952 C951 1.392 . S
C952 C953 1.392 . S
C953 H923 0.949 . S
C953 C948 1.382 . S
C953 C952 1.392 . S
H954 C973 0.949 . S
H955 C974 0.950 . S
H956 C976 0.950 . S
H957 C977 0.950 . S
H958 C979 0.950 . S
H959 C982 0.950 . S
H960 C983 0.950 . S
H961 C985 0.951 . S
H962 C986 0.949 . S
H963 C988 0.949 . S
H964 C989 0.950 . S
H965 C991 0.950 . S
H966 C992 0.950 . S
H967 C994 0.950 . S
H968 C997 0.950 . S
H969 C998 0.950 . S
H970 C1000 0.951 . S
H971 C1001 0.949 . S
C972 C973 1.376 . S
C972 C977 1.386 . S
C972 C978 1.483 . S
C973 H954 0.949 . S
C973 C972 1.376 . S
C973 C974 1.397 . S
C974 H955 0.950 . S
C974 C973 1.397 . S
C974 C975 1.391 . S
C975 C974 1.391 . S
C975 C976 1.405 . S
C976 H956 0.950 . S
C976 C975 1.405 . S
C976 C977 1.367 . S
C977 H957 0.950 . S
C977 C972 1.386 . S
C977 C976 1.367 . S
C978 C972 1.483 . S
C978 C979 1.382 . S
C978 C980 1.403 . S
C979 H958 0.950 . S
C979 C978 1.382 . S
C979 C995 1.411 . S
C980 C978 1.403 . S
C980 C981 1.489 . S
C980 C994 1.411 . S
C981 C980 1.489 . S
C981 C982 1.383 . S
C981 C986 1.382 . S
C982 H959 0.950 . S
C982 C981 1.383 . S
C982 C983 1.395 . S
C983 H960 0.950 . S
C983 C982 1.395 . S
C983 C984 1.288 . S
C984 C983 1.288 . S
C984 C985 1.392 . S
C985 H961 0.951 . S
C985 C984 1.392 . S
C985 C986 1.392 . S
C986 H962 0.949 . S
C986 C981 1.382 . S
C986 C985 1.392 . S
C987 C988 1.376 . S
C987 C992 1.386 . S
C987 C993 1.483 . S
C988 H963 0.949 . S
C988 C987 1.376 . S
C988 C989 1.397 . S
C989 H964 0.950 . S
C989 C988 1.397 . S
C989 C990 1.391 . S
C990 C989 1.391 . S
C990 C991 1.405 . S
C991 H965 0.950 . S
C991 C990 1.405 . S
C991 C992 1.367 . S
C992 H966 0.950 . S
C992 C987 1.386 . S
C992 C991 1.367 . S
C993 C987 1.483 . S
C993 C994 1.382 . S
C993 C995 1.403 . S
C994 H967 0.950 . S
C994 C980 1.411 . S
C994 C993 1.382 . S
C995 C979 1.411 . S
C995 C993 1.403 . S
C995 C996 1.489 . S
C996 C995 1.489 . S
C996 C997 1.383 . S
C996 C1001 1.382 . S
C997 H968 0.950 . S
C997 C996 1.383 . S
C997 C998 1.395 . S
C998 H969 0.950 . S
C998 C997 1.395 . S
C998 C999 1.288 . S
C999 C998 1.288 . S
C999 C1000 1.392 . S
C1000 H970 0.951 . S
C1000 C999 1.392 . S
C1000 C1001 1.392 . S
C1001 H971 0.949 . S
C1001 C996 1.382 . S
C1001 C1000 1.392 . S
H1002 C1021 0.949 . S
H1003 C1022 0.950 . S
H1004 C1024 0.950 . S
H1005 C1025 0.950 . S
H1006 C1027 0.950 . S
H1007 C1030 0.950 . S
H1008 C1031 0.950 . S
H1009 C1033 0.951 . S
H1010 C1034 0.949 . S
H1011 C1036 0.949 . S
H1012 C1037 0.950 . S
H1013 C1039 0.950 . S
H1014 C1040 0.950 . S
H1015 C1042 0.950 . S
H1016 C1045 0.950 . S
H1017 C1046 0.950 . S
H1018 C1048 0.951 . S
H1019 C1049 0.949 . S
C1020 C1021 1.376 . S
C1020 C1025 1.386 . S
C1020 C1026 1.483 . S
C1021 H1002 0.949 . S
C1021 C1020 1.376 . S
C1021 C1022 1.397 . S
C1022 H1003 0.950 . S
C1022 C1021 1.397 . S
C1022 C1023 1.391 . S
C1023 C1022 1.391 . S
C1023 C1024 1.405 . S
C1024 H1004 0.950 . S
C1024 C1023 1.405 . S
C1024 C1025 1.367 . S
C1025 H1005 0.950 . S
C1025 C1020 1.386 . S
C1025 C1024 1.367 . S
C1026 C1020 1.483 . S
C1026 C1027 1.382 . S
C1026 C1028 1.403 . S
C1027 H1006 0.950 . S
C1027 C1026 1.382 . S
C1027 C1043 1.411 . S
C1028 C1026 1.403 . S
C1028 C1029 1.489 . S
C1028 C1042 1.411 . S
C1029 C1028 1.489 . S
C1029 C1030 1.383 . S
C1029 C1034 1.382 . S
C1030 H1007 0.950 . S
C1030 C1029 1.383 . S
C1030 C1031 1.395 . S
C1031 H1008 0.950 . S
C1031 C1030 1.395 . S
C1031 C1032 1.288 . S
C1032 C1031 1.288 . S
C1032 C1033 1.392 . S
C1033 H1009 0.951 . S
C1033 C1032 1.392 . S
C1033 C1034 1.392 . S
C1034 H1010 0.949 . S
C1034 C1029 1.382 . S
C1034 C1033 1.392 . S
C1035 C1036 1.376 . S
C1035 C1040 1.386 . S
C1035 C1041 1.483 . S
C1036 H1011 0.949 . S
C1036 C1035 1.376 . S
C1036 C1037 1.397 . S
C1037 H1012 0.950 . S
C1037 C1036 1.397 . S
C1037 C1038 1.391 . S
C1038 C1037 1.391 . S
C1038 C1039 1.405 . S
C1039 H1013 0.950 . S
C1039 C1038 1.405 . S
C1039 C1040 1.367 . S
C1040 H1014 0.950 . S
C1040 C1035 1.386 . S
C1040 C1039 1.367 . S
C1041 C1035 1.483 . S
C1041 C1042 1.382 . S
C1041 C1043 1.403 . S
C1042 H1015 0.950 . S
C1042 C1028 1.411 . S
C1042 C1041 1.382 . S
C1043 C1027 1.411 . S
C1043 C1041 1.403 . S
C1043 C1044 1.489 . S
C1044 C1043 1.489 . S
C1044 C1045 1.383 . S
C1044 C1049 1.382 . S
C1045 H1016 0.950 . S
C1045 C1044 1.383 . S
C1045 C1046 1.395 . S
C1046 H1017 0.950 . S
C1046 C1045 1.395 . S
C1046 C1047 1.288 . S
C1047 C1046 1.288 . S
C1047 C1048 1.392 . S
C1048 H1018 0.951 . S
C1048 C1047 1.392 . S
C1048 C1049 1.392 . S
C1049 H1019 0.949 . S
C1049 C1044 1.382 . S
C1049 C1048 1.392 . S
H1050 C1069 0.949 . S
H1051 C1070 0.950 . S
H1052 C1072 0.950 . S
H1053 C1073 0.950 . S
H1054 C1075 0.950 . S
H1055 C1078 0.950 . S
H1056 C1079 0.950 . S
H1057 C1081 0.951 . S
H1058 C1082 0.949 . S
H1059 C1084 0.949 . S
H1060 C1085 0.950 . S
H1061 C1087 0.950 . S
H1062 C1088 0.950 . S
H1063 C1090 0.950 . S
H1064 C1093 0.950 . S
H1065 C1094 0.950 . S
H1066 C1096 0.951 . S
H1067 C1097 0.949 . S
C1068 C1069 1.376 . S
C1068 C1073 1.386 . S
C1068 C1074 1.483 . S
C1069 H1050 0.949 . S
C1069 C1068 1.376 . S
C1069 C1070 1.397 . S
C1070 H1051 0.950 . S
C1070 C1069 1.397 . S
C1070 C1071 1.391 . S
C1071 C1070 1.391 . S
C1071 C1072 1.405 . S
C1072 H1052 0.950 . S
C1072 C1071 1.405 . S
C1072 C1073 1.367 . S
C1073 H1053 0.950 . S
C1073 C1068 1.386 . S
C1073 C1072 1.367 . S
C1074 C1068 1.483 . S
C1074 C1075 1.382 . S
C1074 C1076 1.403 . S
C1075 H1054 0.950 . S
C1075 C1074 1.382 . S
C1075 C1091 1.411 . S
C1076 C1074 1.403 . S
C1076 C1077 1.489 . S
C1076 C1090 1.411 . S
C1077 C1076 1.489 . S
C1077 C1078 1.383 . S
C1077 C1082 1.382 . S
C1078 H1055 0.950 . S
C1078 C1077 1.383 . S
C1078 C1079 1.395 . S
C1079 H1056 0.950 . S
C1079 C1078 1.395 . S
C1079 C1080 1.288 . S
C1080 C1079 1.288 . S
C1080 C1081 1.392 . S
C1081 H1057 0.951 . S
C1081 C1080 1.392 . S
C1081 C1082 1.392 . S
C1082 H1058 0.949 . S
C1082 C1077 1.382 . S
C1082 C1081 1.392 . S
C1083 C1084 1.376 . S
C1083 C1088 1.386 . S
C1083 C1089 1.483 . S
C1084 H1059 0.949 . S
C1084 C1083 1.376 . S
C1084 C1085 1.397 . S
C1085 H1060 0.950 . S
C1085 C1084 1.397 . S
C1085 C1086 1.391 . S
C1086 C1085 1.391 . S
C1086 C1087 1.405 . S
C1087 H1061 0.950 . S
C1087 C1086 1.405 . S
C1087 C1088 1.367 . S
C1088 H1062 0.950 . S
C1088 C1083 1.386 . S
C1088 C1087 1.367 . S
C1089 C1083 1.483 . S
C1089 C1090 1.382 . S
C1089 C1091 1.403 . S
C1090 H1063 0.950 . S
C1090 C1076 1.411 . S
C1090 C1089 1.382 . S
C1091 C1075 1.411 . S
C1091 C1089 1.403 . S
C1091 C1092 1.489 . S
C1092 C1091 1.489 . S
C1092 C1093 1.383 . S
C1092 C1097 1.382 . S
C1093 H1064 0.950 . S
C1093 C1092 1.383 . S
C1093 C1094 1.395 . S
C1094 H1065 0.950 . S
C1094 C1093 1.395 . S
C1094 C1095 1.288 . S
C1095 C1094 1.288 . S
C1095 C1096 1.392 . S
C1096 H1066 0.951 . S
C1096 C1095 1.392 . S
C1096 C1097 1.392 . S
C1097 H1067 0.949 . S
C1097 C1092 1.382 . S
C1097 C1096 1.392 . S
C1098 C1099 1.391 . S
C1098 C1100 1.394 . S
C1098 H1114 0.931 . S
C1099 C1098 1.391 . S
C1099 C1103 1.381 1_655 S
C1100 C1098 1.394 . S
C1100 C1101 1.357 . S
C1100 C1104 1.531 . S
C1101 C1100 1.357 . S
C1101 C1102 1.409 1_655 S
C1101 C1109 1.492 . S
C1102 C1101 1.409 1_455 S
C1102 C1103 1.387 . S
C1102 C1105 1.511 . S
C1103 C1099 1.381 1_455 S
C1103 C1102 1.387 . S
C1103 H1115 0.929 . S
C1104 C1100 1.531 . S
C1104 H1116 0.965 . S
C1104 H1117 0.962 . S
C1104 H1118 0.960 . S
C1105 C1102 1.511 . S
C1105 H1119 0.961 . S
C1105 H1120 0.961 . S
C1105 H1121 0.961 . S
C1106 C1107 1.370 . S
C1106 C1108 1.363 . S
C1106 H1122 0.931 . S
C1107 C1106 1.370 . S
C1107 C1111 1.408 1_655 S
C1108 C1106 1.363 . S
C1108 C1109 1.440 . S
C1108 C1112 1.524 . S
C1109 C1101 1.492 . S
C1109 C1108 1.440 . S
C1109 C1110 1.363 1_655 S
C1110 C1109 1.363 1_455 S
C1110 C1111 1.404 . S
C1110 C1113 1.539 . S
C1111 C1107 1.408 1_455 S
C1111 C1110 1.404 . S
C1111 H1123 0.930 . S
C1112 C1108 1.524 . S
C1112 H1124 0.956 . S
C1112 H1125 0.961 . S
C1112 H1126 0.961 . S
C1113 C1110 1.539 . S
C1113 H1127 0.958 . S
C1113 H1128 0.961 . S
C1113 H1129 0.960 . S
H1114 C1098 0.931 . S
H1115 C1103 0.929 . S
H1116 C1104 0.965 . S
H1117 C1104 0.962 . S
H1118 C1104 0.960 . S
H1119 C1105 0.961 . S
H1120 C1105 0.961 . S
H1121 C1105 0.961 . S
H1122 C1106 0.931 . S
H1123 C1111 0.930 . S
H1124 C1112 0.956 . S
H1125 C1112 0.961 . S
H1126 C1112 0.961 . S
H1127 C1113 0.958 . S
H1128 C1113 0.961 . S
H1129 C1113 0.960 . S
C1130 C1131 1.391 . S
C1130 C1132 1.394 . S
C1130 H1146 0.931 . S
C1131 C1130 1.391 . S
C1131 C1135 1.376 . S
C1132 C1130 1.394 . S
C1132 C1133 1.369 . S
C1132 C1136 1.531 . S
C1133 C1132 1.369 . S
C1133 C1134 1.410 . S
C1133 C1141 1.503 . S
C1134 C1133 1.410 . S
C1134 C1135 1.392 . S
C1134 C1137 1.511 . S
C1135 C1131 1.376 . S
C1135 C1134 1.392 . S
C1135 H1147 0.929 . S
C1136 C1132 1.531 . S
C1136 H1148 0.960 . S
C1136 H1149 0.962 . S
C1136 H1150 0.960 . S
C1137 C1134 1.511 . S
C1137 H1151 0.961 . S
C1137 H1152 0.961 . S
C1137 H1153 0.961 . S
C1138 C1139 1.370 . S
C1138 C1140 1.363 . S
C1138 H1154 0.931 . S
C1139 C1138 1.370 . S
C1139 C1143 1.408 . S
C1140 C1138 1.363 . S
C1140 C1141 1.370 . S
C1140 C1144 1.524 . S
C1141 C1133 1.503 . S
C1141 C1140 1.370 . S
C1141 C1142 1.403 . S
C1142 C1141 1.403 . S
C1142 C1143 1.404 . S
C1142 C1145 1.539 . S
C1143 C1139 1.408 . S
C1143 C1142 1.404 . S
C1143 H1155 0.930 . S
C1144 C1140 1.524 . S
C1144 H1156 0.956 . S
C1144 H1157 0.961 . S
C1144 H1158 0.961 . S
C1145 C1142 1.539 . S
C1145 H1159 0.958 . S
C1145 H1160 0.961 . S
C1145 H1161 0.960 . S
H1146 C1130 0.931 . S
H1147 C1135 0.929 . S
H1148 C1136 0.960 . S
H1149 C1136 0.962 . S
H1150 C1136 0.960 . S
H1151 C1137 0.961 . S
H1152 C1137 0.961 . S
H1153 C1137 0.961 . S
H1154 C1138 0.931 . S
H1155 C1143 0.930 . S
H1156 C1144 0.956 . S
H1157 C1144 0.961 . S
H1158 C1144 0.961 . S
H1159 C1145 0.958 . S
H1160 C1145 0.961 . S
H1161 C1145 0.960 . S
C1162 C1163 1.391 . S
C1162 C1164 1.394 . S
C1162 H1178 0.931 . S
C1163 C1162 1.391 . S
C1163 C1167 1.376 . S
C1164 C1162 1.394 . S
C1164 C1165 1.369 . S
C1164 C1168 1.531 . S
C1165 C1164 1.369 . S
C1165 C1166 1.410 . S
C1165 C1173 1.503 . S
C1166 C1165 1.410 . S
C1166 C1167 1.392 . S
C1166 C1169 1.511 . S
C1167 C1163 1.376 . S
C1167 C1166 1.392 . S
C1167 H1179 0.929 . S
C1168 C1164 1.531 . S
C1168 H1180 0.960 . S
C1168 H1181 0.962 . S
C1168 H1182 0.960 . S
C1169 C1166 1.511 . S
C1169 H1183 0.961 . S
C1169 H1184 0.961 . S
C1169 H1185 0.961 . S
C1170 C1171 1.370 1_565 S
C1170 C1172 1.363 . S
C1170 H1186 0.931 . S
C1171 C1170 1.370 1_545 S
C1171 C1175 1.408 . S
C1172 C1170 1.363 . S
C1172 C1173 1.370 1_565 S
C1172 C1176 1.524 . S
C1173 C1165 1.503 . S
C1173 C1172 1.370 1_545 S
C1173 C1174 1.403 . S
C1174 C1173 1.403 . S
C1174 C1175 1.404 . S
C1174 C1177 1.539 . S
C1175 C1171 1.408 . S
C1175 C1174 1.404 . S
C1175 H1187 0.930 . S
C1176 C1172 1.524 . S
C1176 H1188 0.956 . S
C1176 H1189 0.961 . S
C1176 H1190 0.961 . S
C1177 C1174 1.539 . S
C1177 H1191 0.958 . S
C1177 H1192 0.961 . S
C1177 H1193 0.960 . S
H1178 C1162 0.931 . S
H1179 C1167 0.929 . S
H1180 C1168 0.960 . S
H1181 C1168 0.962 . S
H1182 C1168 0.960 . S
H1183 C1169 0.961 . S
H1184 C1169 0.961 . S
H1185 C1169 0.961 . S
H1186 C1170 0.931 . S
H1187 C1175 0.930 . S
H1188 C1176 0.956 . S
H1189 C1176 0.961 . S
H1190 C1176 0.961 . S
H1191 C1177 0.958 . S
H1192 C1177 0.961 . S
H1193 C1177 0.960 . S
C1194 C1195 1.391 1_545 S
C1194 C1196 1.394 1_545 S
C1194 H1210 0.931 . S
C1195 C1194 1.391 1_565 S
C1195 C1199 1.376 . S
C1196 C1194 1.394 1_565 S
C1196 C1197 1.369 . S
C1196 C1200 1.531 1_565 S
C1197 C1196 1.369 . S
C1197 C1198 1.410 . S
C1197 C1205 1.503 . S
C1198 C1197 1.410 . S
C1198 C1199 1.392 . S
C1198 C1201 1.511 . S
C1199 C1195 1.376 . S
C1199 C1198 1.392 . S
C1199 H1211 0.929 . S
C1200 C1196 1.531 1_545 S
C1200 H1212 0.960 1_545 S
C1200 H1213 0.962 . S
C1200 H1214 0.958 1_545 S
C1201 C1198 1.511 . S
C1201 H1215 0.961 . S
C1201 H1216 0.961 . S
C1201 H1217 0.961 . S
C1202 C1203 1.370 1_545 S
C1202 C1204 1.363 . S
C1202 H1218 0.931 . S
C1203 C1202 1.370 1_565 S
C1203 C1207 1.408 . S
C1204 C1202 1.363 . S
C1204 C1205 1.370 1_545 S
C1204 C1208 1.524 . S
C1205 C1197 1.503 . S
C1205 C1204 1.370 1_565 S
C1205 C1206 1.403 . S
C1206 C1205 1.403 . S
C1206 C1207 1.404 . S
C1206 C1209 1.539 . S
C1207 C1203 1.408 . S
C1207 C1206 1.404 . S
C1207 H1219 0.930 . S
C1208 C1204 1.524 . S
C1208 H1220 0.956 . S
C1208 H1221 0.961 . S
C1208 H1222 0.961 . S
C1209 C1206 1.539 . S
C1209 H1223 0.958 . S
C1209 H1224 0.961 . S
C1209 H1225 0.960 . S
H1210 C1194 0.931 . S
H1211 C1199 0.929 . S
H1212 C1200 0.960 1_565 S
H1213 C1200 0.962 . S
H1214 C1200 0.958 1_565 S
H1215 C1201 0.961 . S
H1216 C1201 0.961 . S
H1217 C1201 0.961 . S
H1218 C1202 0.931 . S
H1219 C1207 0.930 . S
H1220 C1208 0.956 . S
H1221 C1208 0.961 . S
H1222 C1208 0.961 . S
H1223 C1209 0.958 . S
H1224 C1209 0.961 . S
H1225 C1209 0.960 . S
C1226 C1227 1.391 1_655 S
C1226 C1228 1.394 . S
C1226 H1242 0.931 . S
C1227 C1226 1.391 1_455 S
C1227 C1231 1.376 . S
C1228 C1226 1.394 . S
C1228 C1229 1.369 1_655 S
C1228 C1232 1.531 . S
C1229 C1228 1.369 1_455 S
C1229 C1230 1.410 . S
C1229 C1237 1.503 . S
C1230 C1229 1.410 . S
C1230 C1231 1.392 . S
C1230 C1233 1.511 . S
C1231 C1227 1.376 . S
C1231 C1230 1.392 . S
C1231 H1243 0.929 . S
C1232 C1228 1.531 . S
C1232 H1244 0.960 . S
C1232 H1245 0.962 . S
C1232 H1246 0.960 . S
C1233 C1230 1.511 . S
C1233 H1247 0.961 . S
C1233 H1248 0.961 . S
C1233 H1249 0.961 . S
C1234 C1235 1.375 1_655 S
C1234 C1236 1.353 1_655 S
C1234 H1250 0.937 . S
C1235 C1234 1.375 1_455 S
C1235 C1239 1.408 . S
C1236 C1234 1.353 1_455 S
C1236 C1237 1.370 . S
C1236 C1240 1.524 1_455 S
C1237 C1229 1.503 . S
C1237 C1236 1.370 . S
C1237 C1238 1.403 . S
C1238 C1237 1.403 . S
C1238 C1239 1.404 . S
C1238 C1241 1.539 . S
C1239 C1235 1.408 . S
C1239 C1238 1.404 . S
C1239 H1251 0.930 . S
C1240 C1236 1.524 1_655 S
C1240 H1252 0.956 . S
C1240 H1253 0.961 1_655 S
C1240 H1254 0.961 . S
C1241 C1238 1.539 . S
C1241 H1255 0.958 . S
C1241 H1256 0.961 . S
C1241 H1257 0.960 . S
H1242 C1226 0.931 . S
H1243 C1231 0.929 . S
H1244 C1232 0.960 . S
H1245 C1232 0.962 . S
H1246 C1232 0.960 . S
H1247 C1233 0.961 . S
H1248 C1233 0.961 . S
H1249 C1233 0.961 . S
H1250 C1234 0.937 . S
H1251 C1239 0.930 . S
H1252 C1240 0.956 . S
H1253 C1240 0.961 1_455 S
H1254 C1240 0.961 . S
H1255 C1241 0.958 . S
H1256 C1241 0.961 . S
H1257 C1241 0.960 . S
C1258 C1259 1.391 . S
C1258 C1260 1.394 . S
C1258 H1274 0.931 . S
C1259 C1258 1.391 . S
C1259 C1263 1.376 . S
C1260 C1258 1.394 . S
C1260 C1261 1.369 . S
C1260 C1264 1.531 . S
C1261 C1260 1.369 . S
C1261 C1262 1.410 . S
C1261 C1269 1.503 . S
C1262 C1261 1.410 . S
C1262 C1263 1.392 . S
C1262 C1265 1.511 . S
C1263 C1259 1.376 . S
C1263 C1262 1.392 . S
C1263 H1275 0.929 . S
C1264 C1260 1.531 . S
C1264 H1276 0.960 . S
C1264 H1277 0.962 . S
C1264 H1278 0.960 . S
C1265 C1262 1.511 . S
C1265 H1279 0.961 . S
C1265 H1280 0.961 . S
C1265 H1281 0.961 . S
C1266 C1267 1.370 . S
C1266 C1268 1.363 . S
C1266 H1282 0.931 . S
C1267 C1266 1.370 . S
C1267 C1271 1.408 . S
C1268 C1266 1.363 . S
C1268 C1269 1.370 . S
C1268 C1272 1.524 . S
C1269 C1261 1.503 . S
C1269 C1268 1.370 . S
C1269 C1270 1.403 . S
C1270 C1269 1.403 . S
C1270 C1271 1.404 . S
C1270 C1273 1.539 . S
C1271 C1267 1.408 . S
C1271 C1270 1.404 . S
C1271 H1283 0.930 . S
C1272 C1268 1.524 . S
C1272 H1284 0.956 . S
C1272 H1285 0.961 . S
C1272 H1286 0.961 . S
C1273 C1270 1.539 . S
C1273 H1287 0.958 . S
C1273 H1288 0.961 . S
C1273 H1289 0.960 . S
H1274 C1258 0.931 . S
H1275 C1263 0.929 . S
H1276 C1264 0.960 . S
H1277 C1264 0.962 . S
H1278 C1264 0.960 . S
H1279 C1265 0.961 . S
H1280 C1265 0.961 . S
H1281 C1265 0.961 . S
H1282 C1266 0.931 . S
H1283 C1271 0.930 . S
H1284 C1272 0.956 . S
H1285 C1272 0.961 . S
H1286 C1272 0.961 . S
H1287 C1273 0.958 . S
H1288 C1273 0.961 . S
H1289 C1273 0.960 . S
C1290 C1291 1.391 . S
C1290 C1292 1.367 . S
C1290 H1306 0.931 1_455 S
C1291 C1290 1.391 . S
C1291 C1295 1.376 . S
C1292 C1290 1.367 . S
C1292 C1293 1.436 . S
C1292 C1296 1.494 1_455 S
C1293 C1292 1.436 . S
C1293 C1294 1.410 . S
C1293 C1301 1.503 . S
C1294 C1293 1.410 . S
C1294 C1295 1.392 . S
C1294 C1297 1.511 . S
C1295 C1291 1.376 . S
C1295 C1294 1.392 . S
C1295 H1307 0.929 . S
C1296 C1292 1.494 1_655 S
C1296 H1308 0.960 . S
C1296 H1309 0.962 . S
C1296 H1310 0.960 . S
C1297 C1294 1.511 . S
C1297 H1311 0.961 . S
C1297 H1312 0.961 . S
C1297 H1313 0.961 . S
C1298 C1299 1.370 1_655 S
C1298 C1300 1.363 . S
C1298 H1314 0.931 . S
C1299 C1298 1.370 1_455 S
C1299 C1303 1.408 . S
C1300 C1298 1.363 . S
C1300 C1301 1.370 1_655 S
C1300 C1304 1.524 . S
C1301 C1293 1.503 . S
C1301 C1300 1.370 1_455 S
C1301 C1302 1.403 . S
C1302 C1301 1.403 . S
C1302 C1303 1.404 . S
C1302 C1305 1.539 . S
C1303 C1299 1.408 . S
C1303 C1302 1.404 . S
C1303 H1315 0.930 . S
C1304 C1300 1.524 . S
C1304 H1316 0.956 . S
C1304 H1317 0.961 . S
C1304 H1318 0.961 . S
C1305 C1302 1.539 . S
C1305 H1319 0.958 . S
C1305 H1320 0.961 . S
C1305 H1321 0.960 . S
H1306 C1290 0.931 1_655 S
H1307 C1295 0.929 . S
H1308 C1296 0.960 . S
H1309 C1296 0.962 . S
H1310 C1296 0.960 . S
H1311 C1297 0.961 . S
H1312 C1297 0.961 . S
H1313 C1297 0.961 . S
H1314 C1298 0.931 . S
H1315 C1303 0.930 . S
H1316 C1304 0.956 . S
H1317 C1304 0.961 . S
H1318 C1304 0.961 . S
H1319 C1305 0.958 . S
H1320 C1305 0.961 . S
H1321 C1305 0.960 . S
C1322 C1323 1.391 . S
C1322 C1324 1.394 . S
C1322 H1338 0.931 . S
C1323 C1322 1.391 . S
C1323 C1327 1.376 . S
C1324 C1322 1.394 . S
C1324 C1325 1.369 . S
C1324 C1328 1.531 . S
C1325 C1324 1.369 . S
C1325 C1326 1.410 . S
C1325 C1333 1.503 . S
C1326 C1325 1.410 . S
C1326 C1327 1.392 . S
C1326 C1329 1.511 . S
C1327 C1323 1.376 . S
C1327 C1326 1.392 . S
C1327 H1339 0.929 . S
C1328 C1324 1.531 . S
C1328 H1340 0.960 . S
C1328 H1341 0.962 . S
C1328 H1342 0.960 . S
C1329 C1326 1.511 . S
C1329 H1343 0.961 . S
C1329 H1344 0.961 . S
C1329 H1345 0.961 . S
C1330 C1331 1.370 . S
C1330 C1332 1.363 . S
C1330 H1346 0.931 . S
C1331 C1330 1.370 . S
C1331 C1335 1.408 . S
C1332 C1330 1.363 . S
C1332 C1333 1.370 . S
C1332 C1336 1.524 . S
C1333 C1325 1.503 . S
C1333 C1332 1.370 . S
C1333 C1334 1.403 . S
C1334 C1333 1.403 . S
C1334 C1335 1.404 . S
C1334 C1337 1.539 . S
C1335 C1331 1.408 . S
C1335 C1334 1.404 . S
C1335 H1347 0.930 . S
C1336 C1332 1.524 . S
C1336 H1348 0.956 . S
C1336 H1349 0.961 . S
C1336 H1350 0.961 . S
C1337 C1334 1.539 . S
C1337 H1351 0.958 . S
C1337 H1352 0.961 . S
C1337 H1353 0.960 . S
H1338 C1322 0.931 . S
H1339 C1327 0.929 . S
H1340 C1328 0.960 . S
H1341 C1328 0.962 . S
H1342 C1328 0.960 . S
H1343 C1329 0.961 . S
H1344 C1329 0.961 . S
H1345 C1329 0.961 . S
H1346 C1330 0.931 . S
H1347 C1335 0.930 . S
H1348 C1336 0.956 . S
H1349 C1336 0.961 . S
H1350 C1336 0.961 . S
H1351 C1337 0.958 . S
H1352 C1337 0.961 . S
H1353 C1337 0.960 . S
C1354 C1355 1.391 . S
C1354 C1356 1.394 . S
C1354 H1370 0.931 . S
C1355 C1354 1.391 . S
C1355 C1359 1.376 . S
C1356 C1354 1.394 . S
C1356 C1357 1.369 . S
C1356 C1360 1.531 . S
C1357 C1356 1.369 . S
C1357 C1358 1.399 . S
C1357 C1365 1.503 . S
C1358 C1357 1.399 . S
C1358 C1359 1.408 . S
C1358 C1361 1.508 1_565 S
C1359 C1355 1.376 . S
C1359 C1358 1.408 . S
C1359 H1371 0.929 . S
C1360 C1356 1.531 . S
C1360 H1372 1.000 . S
C1360 H1373 0.962 . S
C1360 H1374 0.960 . S
C1361 C1358 1.508 1_545 S
C1361 H1375 0.928 1_545 S
C1361 H1376 0.961 1_545 S
C1361 H1377 0.961 . S
C1362 C1363 1.370 . S
C1362 C1364 1.363 . S
C1362 H1378 0.931 . S
C1363 C1362 1.370 . S
C1363 C1367 1.408 1_565 S
C1364 C1362 1.363 . S
C1364 C1365 1.370 . S
C1364 C1368 1.524 . S
C1365 C1357 1.503 . S
C1365 C1364 1.370 . S
C1365 C1366 1.403 1_565 S
C1366 C1365 1.403 1_545 S
C1366 C1367 1.404 . S
C1366 C1369 1.539 . S
C1367 C1363 1.408 1_545 S
C1367 C1366 1.404 . S
C1367 H1379 0.930 . S
C1368 C1364 1.524 . S
C1368 H1380 0.956 . S
C1368 H1381 0.961 . S
C1368 H1382 0.961 . S
C1369 C1366 1.539 . S
C1369 H1383 0.958 . S
C1369 H1384 0.961 . S
C1369 H1385 0.960 . S
H1370 C1354 0.931 . S
H1371 C1359 0.929 . S
H1372 C1360 1.000 . S
H1373 C1360 0.962 . S
H1374 C1360 0.960 . S
H1375 C1361 0.928 1_565 S
H1376 C1361 0.961 1_565 S
H1377 C1361 0.961 . S
H1378 C1362 0.931 . S
H1379 C1367 0.930 . S
H1380 C1368 0.956 . S
H1381 C1368 0.961 . S
H1382 C1368 0.961 . S
H1383 C1369 0.958 . S
H1384 C1369 0.961 . S
H1385 C1369 0.960 . S
C1386 C1387 1.391 1_565 S
C1386 C1388 1.394 . S
C1386 H1402 0.931 . S
C1387 C1386 1.391 1_545 S
C1387 C1391 1.376 . S
C1388 C1386 1.394 . S
C1388 C1389 1.369 1_565 S
C1388 C1392 1.531 . S
C1389 C1388 1.369 1_545 S
C1389 C1390 1.410 . S
C1389 C1397 1.503 . S
C1390 C1389 1.410 . S
C1390 C1391 1.392 . S
C1390 C1393 1.511 . S
C1391 C1387 1.376 . S
C1391 C1390 1.392 . S
C1391 H1403 0.929 . S
C1392 C1388 1.531 . S
C1392 H1404 0.960 . S
C1392 H1405 0.962 . S
C1392 H1406 0.960 . S
C1393 C1390 1.511 . S
C1393 H1407 0.961 . S
C1393 H1408 0.961 . S
C1393 H1409 0.961 . S
C1394 C1395 1.370 . S
C1394 C1396 1.363 . S
C1394 H1410 0.931 . S
C1395 C1394 1.370 . S
C1395 C1399 1.408 1_545 S
C1396 C1394 1.363 . S
C1396 C1397 1.370 . S
C1396 C1400 1.524 . S
C1397 C1389 1.503 . S
C1397 C1396 1.370 . S
C1397 C1398 1.389 1_545 S
C1398 C1397 1.389 1_565 S
C1398 C1399 1.390 . S
C1398 C1401 1.566 . S
C1399 C1395 1.408 1_565 S
C1399 C1398 1.390 . S
C1399 H1411 0.930 . S
C1400 C1396 1.524 . S
C1400 H1412 0.956 . S
C1400 H1413 0.961 . S
C1400 H1414 0.961 . S
C1401 C1398 1.566 . S
C1401 H1415 0.958 . S
C1401 H1416 0.961 . S
C1401 H1417 0.960 1_565 S
H1402 C1386 0.931 . S
H1403 C1391 0.929 . S
H1404 C1392 0.960 . S
H1405 C1392 0.962 . S
H1406 C1392 0.960 . S
H1407 C1393 0.961 . S
H1408 C1393 0.961 . S
H1409 C1393 0.961 . S
H1410 C1394 0.931 . S
H1411 C1399 0.930 . S
H1412 C1400 0.956 . S
H1413 C1400 0.961 . S
H1414 C1400 0.961 . S
H1415 C1401 0.958 . S
H1416 C1401 0.961 . S
H1417 C1401 0.960 1_545 S
C1418 C1419 1.391 1_455 S
C1418 C1420 1.394 . S
C1418 H1434 0.931 . S
C1419 C1418 1.391 1_655 S
C1419 C1423 1.376 . S
C1420 C1418 1.394 . S
C1420 C1421 1.369 1_455 S
C1420 C1424 1.531 . S
C1421 C1420 1.369 1_655 S
C1421 C1422 1.410 . S
C1421 C1429 1.503 . S
C1422 C1421 1.410 . S
C1422 C1423 1.392 . S
C1422 C1425 1.511 . S
C1423 C1419 1.376 . S
C1423 C1422 1.392 . S
C1423 H1435 0.929 . S
C1424 C1420 1.531 . S
C1424 H1436 0.960 . S
C1424 H1437 0.962 . S
C1424 H1438 0.960 . S
C1425 C1422 1.511 . S
C1425 H1439 0.961 . S
C1425 H1440 0.961 . S
C1425 H1441 0.961 . S
C1426 C1427 1.370 . S
C1426 C1428 1.363 . S
C1426 H1442 0.931 1_655 S
C1427 C1426 1.370 . S
C1427 C1431 1.408 . S
C1428 C1426 1.363 . S
C1428 C1429 1.370 . S
C1428 C1432 1.524 1_655 S
C1429 C1421 1.503 . S
C1429 C1428 1.370 . S
C1429 C1430 1.403 . S
C1430 C1429 1.403 . S
C1430 C1431 1.404 . S
C1430 C1433 1.539 . S
C1431 C1427 1.408 . S
C1431 C1430 1.404 . S
C1431 H1443 0.930 . S
C1432 C1428 1.524 1_455 S
C1432 H1444 0.956 . S
C1432 H1445 0.961 1_455 S
C1432 H1446 0.961 . S
C1433 C1430 1.539 . S
C1433 H1447 0.958 . S
C1433 H1448 0.961 . S
C1433 H1449 0.960 . S
H1434 C1418 0.931 . S
H1435 C1423 0.929 . S
H1436 C1424 0.960 . S
H1437 C1424 0.962 . S
H1438 C1424 0.960 . S
H1439 C1425 0.961 . S
H1440 C1425 0.961 . S
H1441 C1425 0.961 . S
H1442 C1426 0.931 1_455 S
H1443 C1431 0.930 . S
H1444 C1432 0.956 . S
H1445 C1432 0.961 1_655 S
H1446 C1432 0.961 . S
H1447 C1433 0.958 . S
H1448 C1433 0.961 . S
H1449 C1433 0.960 . S
C1450 C1451 1.391 . S
C1450 C1452 1.394 . S
C1450 H1466 0.931 . S
C1451 C1450 1.391 . S
C1451 C1455 1.376 . S
C1452 C1450 1.394 . S
C1452 C1453 1.369 . S
C1452 C1456 1.531 . S
C1453 C1452 1.369 . S
C1453 C1454 1.410 . S
C1453 C1461 1.503 . S
C1454 C1453 1.410 . S
C1454 C1455 1.392 . S
C1454 C1457 1.511 . S
C1455 C1451 1.376 . S
C1455 C1454 1.392 . S
C1455 H1467 0.929 . S
C1456 C1452 1.531 . S
C1456 H1468 0.960 . S
C1456 H1469 0.962 . S
C1456 H1470 0.960 . S
C1457 C1454 1.511 . S
C1457 H1471 0.961 . S
C1457 H1472 0.961 . S
C1457 H1473 0.961 . S
C1458 C1459 1.370 . S
C1458 C1460 1.363 . S
C1458 H1474 0.931 . S
C1459 C1458 1.370 . S
C1459 C1463 1.408 . S
C1460 C1458 1.363 . S
C1460 C1461 1.370 . S
C1460 C1464 1.524 . S
C1461 C1453 1.503 . S
C1461 C1460 1.370 . S
C1461 C1462 1.403 . S
C1462 C1461 1.403 . S
C1462 C1463 1.404 . S
C1462 C1465 1.539 . S
C1463 C1459 1.408 . S
C1463 C1462 1.404 . S
C1463 H1475 0.930 . S
C1464 C1460 1.524 . S
C1464 H1476 0.956 . S
C1464 H1477 0.961 . S
C1464 H1478 0.961 . S
C1465 C1462 1.539 . S
C1465 H1479 0.958 . S
C1465 H1480 0.961 . S
C1465 H1481 0.960 . S
H1466 C1450 0.931 . S
H1467 C1455 0.929 . S
H1468 C1456 0.960 . S
H1469 C1456 0.962 . S
H1470 C1456 0.960 . S
H1471 C1457 0.961 . S
H1472 C1457 0.961 . S
H1473 C1457 0.961 . S
H1474 C1458 0.931 . S
H1475 C1463 0.930 . S
H1476 C1464 0.956 . S
H1477 C1464 0.961 . S
H1478 C1464 0.961 . S
H1479 C1465 0.958 . S
H1480 C1465 0.961 . S
H1481 C1465 0.960 . S
C1482 C1483 1.391 . S
C1482 C1484 1.394 . S
C1482 H1498 0.931 . S
C1483 C1482 1.391 . S
C1483 C1487 1.376 . S
C1484 C1482 1.394 . S
C1484 C1485 1.369 . S
C1484 C1488 1.531 . S
C1485 C1484 1.369 . S
C1485 C1486 1.410 . S
C1485 C1493 1.503 . S
C1486 C1485 1.410 . S
C1486 C1487 1.392 . S
C1486 C1489 1.511 . S
C1487 C1483 1.376 . S
C1487 C1486 1.392 . S
C1487 H1499 0.929 . S
C1488 C1484 1.531 . S
C1488 H1500 0.960 . S
C1488 H1501 0.962 . S
C1488 H1502 0.960 . S
C1489 C1486 1.511 . S
C1489 H1503 0.961 . S
C1489 H1504 0.961 . S
C1489 H1505 0.961 . S
C1490 C1491 1.370 . S
C1490 C1492 1.363 . S
C1490 H1506 0.931 . S
C1491 C1490 1.370 . S
C1491 C1495 1.408 . S
C1492 C1490 1.363 . S
C1492 C1493 1.370 . S
C1492 C1496 1.524 . S
C1493 C1485 1.503 . S
C1493 C1492 1.370 . S
C1493 C1494 1.403 . S
C1494 C1493 1.403 . S
C1494 C1495 1.404 . S
C1494 C1497 1.539 . S
C1495 C1491 1.408 . S
C1495 C1494 1.404 . S
C1495 H1507 0.930 . S
C1496 C1492 1.524 . S
C1496 H1508 0.956 . S
C1496 H1509 0.961 . S
C1496 H1510 0.961 . S
C1497 C1494 1.539 . S
C1497 H1511 0.958 . S
C1497 H1512 0.961 . S
C1497 H1513 0.960 . S
H1498 C1482 0.931 . S
H1499 C1487 0.929 . S
H1500 C1488 0.960 . S
H1501 C1488 0.962 . S
H1502 C1488 0.960 . S
H1503 C1489 0.961 . S
H1504 C1489 0.961 . S
H1505 C1489 0.961 . S
H1506 C1490 0.931 . S
H1507 C1495 0.930 . S
H1508 C1496 0.956 . S
H1509 C1496 0.961 . S
H1510 C1496 0.961 . S
H1511 C1497 0.958 . S
H1512 C1497 0.961 . S
H1513 C1497 0.960 . S
C1514 C1515 1.391 . S
C1514 C1516 1.394 . S
C1514 H1530 0.931 . S
C1515 C1514 1.391 . S
C1515 C1519 1.376 . S
C1516 C1514 1.394 . S
C1516 C1517 1.369 . S
C1516 C1520 1.531 . S
C1517 C1516 1.369 . S
C1517 C1518 1.410 . S
C1517 C1525 1.503 . S
C1518 C1517 1.410 . S
C1518 C1519 1.392 . S
C1518 C1521 1.511 . S
C1519 C1515 1.376 . S
C1519 C1518 1.392 . S
C1519 H1531 0.929 . S
C1520 C1516 1.531 . S
C1520 H1532 0.960 . S
C1520 H1533 0.962 . S
C1520 H1534 0.960 . S
C1521 C1518 1.511 . S
C1521 H1535 0.961 . S
C1521 H1536 0.961 . S
C1521 H1537 0.961 . S
C1522 C1523 1.370 . S
C1522 C1524 1.363 . S
C1522 H1538 0.931 . S
C1523 C1522 1.370 . S
C1523 C1527 1.408 . S
C1524 C1522 1.363 . S
C1524 C1525 1.370 . S
C1524 C1528 1.524 . S
C1525 C1517 1.503 . S
C1525 C1524 1.370 . S
C1525 C1526 1.403 . S
C1526 C1525 1.403 . S
C1526 C1527 1.404 . S
C1526 C1529 1.539 . S
C1527 C1523 1.408 . S
C1527 C1526 1.404 . S
C1527 H1539 0.930 . S
C1528 C1524 1.524 . S
C1528 H1540 0.956 . S
C1528 H1541 0.961 . S
C1528 H1542 0.961 . S
C1529 C1526 1.539 . S
C1529 H1543 0.958 . S
C1529 H1544 0.961 . S
C1529 H1545 0.960 . S
H1530 C1514 0.931 . S
H1531 C1519 0.929 . S
H1532 C1520 0.960 . S
H1533 C1520 0.962 . S
H1534 C1520 0.960 . S
H1535 C1521 0.961 . S
H1536 C1521 0.961 . S
H1537 C1521 0.961 . S
H1538 C1522 0.931 . S
H1539 C1527 0.930 . S
H1540 C1528 0.956 . S
H1541 C1528 0.961 . S
H1542 C1528 0.961 . S
H1543 C1529 0.958 . S
H1544 C1529 0.961 . S
H1545 C1529 0.960 . S
C1546 C1547 1.391 . S
C1546 C1548 1.394 . S
C1546 H1562 0.931 . S
C1547 C1546 1.391 . S
C1547 C1551 1.376 . S
C1548 C1546 1.394 . S
C1548 C1549 1.369 . S
C1548 C1552 1.531 . S
C1549 C1548 1.369 . S
C1549 C1550 1.410 . S
C1549 C1557 1.503 . S
C1550 C1549 1.410 . S
C1550 C1551 1.392 . S
C1550 C1553 1.511 . S
C1551 C1547 1.376 . S
C1551 C1550 1.392 . S
C1551 H1563 0.929 . S
C1552 C1548 1.531 . S
C1552 H1564 0.960 . S
C1552 H1565 0.962 . S
C1552 H1566 0.960 . S
C1553 C1550 1.511 . S
C1553 H1567 0.961 . S
C1553 H1568 0.961 . S
C1553 H1569 0.961 . S
C1554 C1555 1.370 . S
C1554 C1556 1.363 . S
C1554 H1570 0.931 . S
C1555 C1554 1.370 . S
C1555 C1559 1.408 . S
C1556 C1554 1.363 . S
C1556 C1557 1.370 . S
C1556 C1560 1.524 . S
C1557 C1549 1.503 . S
C1557 C1556 1.370 . S
C1557 C1558 1.403 . S
C1558 C1557 1.403 . S
C1558 C1559 1.404 . S
C1558 C1561 1.539 . S
C1559 C1555 1.408 . S
C1559 C1558 1.404 . S
C1559 H1571 0.930 . S
C1560 C1556 1.524 . S
C1560 H1572 0.956 . S
C1560 H1573 0.961 . S
C1560 H1574 0.961 . S
C1561 C1558 1.539 . S
C1561 H1575 0.958 . S
C1561 H1576 0.961 . S
C1561 H1577 0.960 . S
H1562 C1546 0.931 . S
H1563 C1551 0.929 . S
H1564 C1552 0.960 . S
H1565 C1552 0.962 . S
H1566 C1552 0.960 . S
H1567 C1553 0.961 . S
H1568 C1553 0.961 . S
H1569 C1553 0.961 . S
H1570 C1554 0.931 . S
H1571 C1559 0.930 . S
H1572 C1560 0.956 . S
H1573 C1560 0.961 . S
H1574 C1560 0.961 . S
H1575 C1561 0.958 . S
H1576 C1561 0.961 . S
H1577 C1561 0.960 . S
C1578 C1579 1.391 . S
C1578 C1580 1.394 . S
C1578 H1594 0.931 . S
C1579 C1578 1.391 . S
C1579 C1583 1.376 . S
C1580 C1578 1.394 . S
C1580 C1581 1.369 . S
C1580 C1584 1.531 . S
C1581 C1580 1.369 . S
C1581 C1582 1.410 . S
C1581 C1589 1.503 . S
C1582 C1581 1.410 . S
C1582 C1583 1.392 . S
C1582 C1585 1.511 . S
C1583 C1579 1.376 . S
C1583 C1582 1.392 . S
C1583 H1595 0.929 . S
C1584 C1580 1.531 . S
C1584 H1596 0.960 . S
C1584 H1597 0.962 . S
C1584 H1598 0.960 . S
C1585 C1582 1.511 . S
C1585 H1599 0.961 . S
C1585 H1600 0.961 . S
C1585 H1601 0.961 . S
C1586 C1587 1.370 . S
C1586 C1588 1.363 . S
C1586 H1602 0.931 . S
C1587 C1586 1.370 . S
C1587 C1591 1.408 . S
C1588 C1586 1.363 . S
C1588 C1589 1.370 . S
C1588 C1592 1.524 . S
C1589 C1581 1.503 . S
C1589 C1588 1.370 . S
C1589 C1590 1.403 . S
C1590 C1589 1.403 . S
C1590 C1591 1.404 . S
C1590 C1593 1.539 . S
C1591 C1587 1.408 . S
C1591 C1590 1.404 . S
C1591 H1603 0.930 . S
C1592 C1588 1.524 . S
C1592 H1604 0.956 . S
C1592 H1605 0.961 . S
C1592 H1606 0.961 . S
C1593 C1590 1.539 . S
C1593 H1607 0.958 . S
C1593 H1608 0.961 . S
C1593 H1609 0.960 . S
H1594 C1578 0.931 . S
H1595 C1583 0.929 . S
H1596 C1584 0.960 . S
H1597 C1584 0.962 . S
H1598 C1584 0.960 . S
H1599 C1585 0.961 . S
H1600 C1585 0.961 . S
H1601 C1585 0.961 . S
H1602 C1586 0.931 . S
H1603 C1591 0.930 . S
H1604 C1592 0.956 . S
H1605 C1592 0.961 . S
H1606 C1592 0.961 . S
H1607 C1593 0.958 . S
H1608 C1593 0.961 . S
H1609 C1593 0.960 . S
C1610 C1611 1.391 . S
C1610 C1612 1.394 . S
C1610 H1626 0.931 . S
C1611 C1610 1.391 . S
C1611 C1615 1.376 . S
C1612 C1610 1.394 . S
C1612 C1613 1.369 . S
C1612 C1616 1.531 . S
C1613 C1612 1.369 . S
C1613 C1614 1.410 . S
C1613 C1621 1.503 . S
C1614 C1613 1.410 . S
C1614 C1615 1.392 . S
C1614 C1617 1.511 . S
C1615 C1611 1.376 . S
C1615 C1614 1.392 . S
C1615 H1627 0.929 . S
C1616 C1612 1.531 . S
C1616 H1628 0.960 . S
C1616 H1629 0.962 . S
C1616 H1630 0.960 . S
C1617 C1614 1.511 . S
C1617 H1631 0.961 . S
C1617 H1632 0.961 . S
C1617 H1633 0.961 . S
C1618 C1619 1.370 . S
C1618 C1620 1.363 . S
C1618 H1634 0.931 . S
C1619 C1618 1.370 . S
C1619 C1623 1.408 . S
C1620 C1618 1.363 . S
C1620 C1621 1.370 . S
C1620 C1624 1.524 . S
C1621 C1613 1.503 . S
C1621 C1620 1.370 . S
C1621 C1622 1.403 . S
C1622 C1621 1.403 . S
C1622 C1623 1.404 . S
C1622 C1625 1.539 . S
C1623 C1619 1.408 . S
C1623 C1622 1.404 . S
C1623 H1635 0.930 . S
C1624 C1620 1.524 . S
C1624 H1636 0.956 . S
C1624 H1637 0.961 . S
C1624 H1638 0.961 . S
C1625 C1622 1.539 . S
C1625 H1639 0.958 . S
C1625 H1640 0.961 . S
C1625 H1641 0.960 . S
H1626 C1610 0.931 . S
H1627 C1615 0.929 . S
H1628 C1616 0.960 . S
H1629 C1616 0.962 . S
H1630 C1616 0.960 . S
H1631 C1617 0.961 . S
H1632 C1617 0.961 . S
H1633 C1617 0.961 . S
H1634 C1618 0.931 . S
H1635 C1623 0.930 . S
H1636 C1624 0.956 . S
H1637 C1624 0.961 . S
H1638 C1624 0.961 . S
H1639 C1625 0.958 . S
H1640 C1625 0.961 . S
H1641 C1625 0.960 . S
C1642 C1643 1.391 . S
C1642 C1644 1.394 . S
C1642 H1658 0.931 . S
C1643 C1642 1.391 . S
C1643 C1647 1.376 . S
C1644 C1642 1.394 . S
C1644 C1645 1.369 . S
C1644 C1648 1.531 . S
C1645 C1644 1.369 . S
C1645 C1646 1.410 . S
C1645 C1653 1.503 . S
C1646 C1645 1.410 . S
C1646 C1647 1.392 . S
C1646 C1649 1.511 . S
C1647 C1643 1.376 . S
C1647 C1646 1.392 . S
C1647 H1659 0.929 . S
C1648 C1644 1.531 . S
C1648 H1660 0.960 . S
C1648 H1661 0.962 . S
C1648 H1662 0.960 . S
C1649 C1646 1.511 . S
C1649 H1663 0.961 . S
C1649 H1664 0.961 . S
C1649 H1665 0.961 . S
C1650 C1651 1.370 . S
C1650 C1652 1.363 . S
C1650 H1666 0.931 . S
C1651 C1650 1.370 . S
C1651 C1655 1.408 . S
C1652 C1650 1.363 . S
C1652 C1653 1.370 . S
C1652 C1656 1.524 . S
C1653 C1645 1.503 . S
C1653 C1652 1.370 . S
C1653 C1654 1.403 . S
C1654 C1653 1.403 . S
C1654 C1655 1.404 . S
C1654 C1657 1.539 . S
C1655 C1651 1.408 . S
C1655 C1654 1.404 . S
C1655 H1667 0.930 . S
C1656 C1652 1.524 . S
C1656 H1668 0.956 . S
C1656 H1669 0.961 . S
C1656 H1670 0.961 . S
C1657 C1654 1.539 . S
C1657 H1671 0.958 . S
C1657 H1672 0.961 . S
C1657 H1673 0.960 . S
H1658 C1642 0.931 . S
H1659 C1647 0.929 . S
H1660 C1648 0.960 . S
H1661 C1648 0.962 . S
H1662 C1648 0.960 . S
H1663 C1649 0.961 . S
H1664 C1649 0.961 . S
H1665 C1649 0.961 . S
H1666 C1650 0.931 . S
H1667 C1655 0.930 . S
H1668 C1656 0.956 . S
H1669 C1656 0.961 . S
H1670 C1656 0.961 . S
H1671 C1657 0.958 . S
H1672 C1657 0.961 . S
H1673 C1657 0.960 . S
C1674 C1675 1.391 . S
C1674 C1676 1.394 . S
C1674 H1690 0.931 . S
C1675 C1674 1.391 . S
C1675 C1679 1.376 . S
C1676 C1674 1.394 . S
C1676 C1677 1.369 . S
C1676 C1680 1.531 . S
C1677 C1676 1.369 . S
C1677 C1678 1.410 . S
C1677 C1685 1.503 . S
C1678 C1677 1.410 . S
C1678 C1679 1.392 . S
C1678 C1681 1.511 . S
C1679 C1675 1.376 . S
C1679 C1678 1.392 . S
C1679 H1691 0.929 . S
C1680 C1676 1.531 . S
C1680 H1692 0.960 . S
C1680 H1693 0.962 . S
C1680 H1694 0.960 . S
C1681 C1678 1.511 . S
C1681 H1695 0.961 . S
C1681 H1696 0.961 . S
C1681 H1697 0.961 . S
C1682 C1683 1.370 . S
C1682 C1684 1.363 . S
C1682 H1698 0.931 . S
C1683 C1682 1.370 . S
C1683 C1687 1.408 . S
C1684 C1682 1.363 . S
C1684 C1685 1.370 . S
C1684 C1688 1.524 . S
C1685 C1677 1.503 . S
C1685 C1684 1.370 . S
C1685 C1686 1.403 . S
C1686 C1685 1.403 . S
C1686 C1687 1.404 . S
C1686 C1689 1.539 . S
C1687 C1683 1.408 . S
C1687 C1686 1.404 . S
C1687 H1699 0.930 . S
C1688 C1684 1.524 . S
C1688 H1700 0.956 . S
C1688 H1701 0.961 . S
C1688 H1702 0.961 . S
C1689 C1686 1.539 . S
C1689 H1703 0.958 . S
C1689 H1704 0.961 . S
C1689 H1705 0.960 . S
H1690 C1674 0.931 . S
H1691 C1679 0.929 . S
H1692 C1680 0.960 . S
H1693 C1680 0.962 . S
H1694 C1680 0.960 . S
H1695 C1681 0.961 . S
H1696 C1681 0.961 . S
H1697 C1681 0.961 . S
H1698 C1682 0.931 . S
H1699 C1687 0.930 . S
H1700 C1688 0.956 . S
H1701 C1688 0.961 . S
H1702 C1688 0.961 . S
H1703 C1689 0.958 . S
H1704 C1689 0.961 . S
H1705 C1689 0.960 . S
C1706 C1707 1.391 . S
C1706 C1708 1.394 . S
C1706 H1722 0.931 . S
C1707 C1706 1.391 . S
C1707 C1711 1.376 . S
C1708 C1706 1.394 . S
C1708 C1709 1.369 . S
C1708 C1712 1.531 . S
C1709 C1708 1.369 . S
C1709 C1710 1.410 . S
C1709 C1717 1.503 . S
C1710 C1709 1.410 . S
C1710 C1711 1.392 . S
C1710 C1713 1.511 . S
C1711 C1707 1.376 . S
C1711 C1710 1.392 . S
C1711 H1723 0.929 . S
C1712 C1708 1.531 . S
C1712 H1724 0.960 . S
C1712 H1725 0.962 . S
C1712 H1726 0.960 . S
C1713 C1710 1.511 . S
C1713 H1727 0.961 . S
C1713 H1728 0.961 . S
C1713 H1729 0.961 . S
C1714 C1715 1.370 . S
C1714 C1716 1.363 . S
C1714 H1730 0.931 . S
C1715 C1714 1.370 . S
C1715 C1719 1.408 . S
C1716 C1714 1.363 . S
C1716 C1717 1.370 . S
C1716 C1720 1.524 . S
C1717 C1709 1.503 . S
C1717 C1716 1.370 . S
C1717 C1718 1.403 . S
C1718 C1717 1.403 . S
C1718 C1719 1.404 . S
C1718 C1721 1.539 . S
C1719 C1715 1.408 . S
C1719 C1718 1.404 . S
C1719 H1731 0.930 . S
C1720 C1716 1.524 . S
C1720 H1732 0.956 . S
C1720 H1733 0.961 . S
C1720 H1734 0.961 . S
C1721 C1718 1.539 . S
C1721 H1735 0.958 . S
C1721 H1736 0.961 . S
C1721 H1737 0.960 . S
H1722 C1706 0.931 . S
H1723 C1711 0.929 . S
H1724 C1712 0.960 . S
H1725 C1712 0.962 . S
H1726 C1712 0.960 . S
H1727 C1713 0.961 . S
H1728 C1713 0.961 . S
H1729 C1713 0.961 . S
H1730 C1714 0.931 . S
H1731 C1719 0.930 . S
H1732 C1720 0.956 . S
H1733 C1720 0.961 . S
H1734 C1720 0.961 . S
H1735 C1721 0.958 . S
H1736 C1721 0.961 . S
H1737 C1721 0.960 . S
C1738 C1739 1.391 . S
C1738 C1740 1.394 . S
C1738 H1754 0.931 . S
C1739 C1738 1.391 . S
C1739 C1743 1.376 . S
C1740 C1738 1.394 . S
C1740 C1741 1.369 . S
C1740 C1744 1.531 . S
C1741 C1740 1.369 . S
C1741 C1742 1.410 . S
C1741 C1749 1.503 . S
C1742 C1741 1.410 . S
C1742 C1743 1.392 . S
C1742 C1745 1.511 . S
C1743 C1739 1.376 . S
C1743 C1742 1.392 . S
C1743 H1755 0.929 . S
C1744 C1740 1.531 . S
C1744 H1756 0.960 . S
C1744 H1757 0.962 . S
C1744 H1758 0.960 . S
C1745 C1742 1.511 . S
C1745 H1759 0.961 . S
C1745 H1760 0.961 . S
C1745 H1761 0.961 . S
C1746 C1747 1.370 . S
C1746 C1748 1.363 . S
C1746 H1762 0.931 . S
C1747 C1746 1.370 . S
C1747 C1751 1.408 . S
C1748 C1746 1.363 . S
C1748 C1749 1.370 . S
C1748 C1752 1.524 . S
C1749 C1741 1.503 . S
C1749 C1748 1.370 . S
C1749 C1750 1.403 . S
C1750 C1749 1.403 . S
C1750 C1751 1.404 . S
C1750 C1753 1.539 . S
C1751 C1747 1.408 . S
C1751 C1750 1.404 . S
C1751 H1763 0.930 . S
C1752 C1748 1.524 . S
C1752 H1764 0.956 . S
C1752 H1765 0.961 . S
C1752 H1766 0.961 . S
C1753 C1750 1.539 . S
C1753 H1767 0.958 . S
C1753 H1768 0.961 . S
C1753 H1769 0.960 . S
H1754 C1738 0.931 . S
H1755 C1743 0.929 . S
H1756 C1744 0.960 . S
H1757 C1744 0.962 . S
H1758 C1744 0.960 . S
H1759 C1745 0.961 . S
H1760 C1745 0.961 . S
H1761 C1745 0.961 . S
H1762 C1746 0.931 . S
H1763 C1751 0.930 . S
H1764 C1752 0.956 . S
H1765 C1752 0.961 . S
H1766 C1752 0.961 . S
H1767 C1753 0.958 . S
H1768 C1753 0.961 . S
H1769 C1753 0.960 . S
C1770 C1771 1.391 . S
C1770 C1772 1.394 . S
C1770 H1786 0.931 . S
C1771 C1770 1.391 . S
C1771 C1775 1.376 . S
C1772 C1770 1.394 . S
C1772 C1773 1.369 . S
C1772 C1776 1.531 . S
C1773 C1772 1.369 . S
C1773 C1774 1.410 . S
C1773 C1781 1.503 . S
C1774 C1773 1.410 . S
C1774 C1775 1.392 . S
C1774 C1777 1.511 . S
C1775 C1771 1.376 . S
C1775 C1774 1.392 . S
C1775 H1787 0.929 . S
C1776 C1772 1.531 . S
C1776 H1788 0.960 . S
C1776 H1789 0.962 . S
C1776 H1790 0.960 . S
C1777 C1774 1.511 . S
C1777 H1791 0.961 . S
C1777 H1792 0.961 . S
C1777 H1793 0.961 . S
C1778 C1779 1.370 . S
C1778 C1780 1.363 . S
C1778 H1794 0.931 . S
C1779 C1778 1.370 . S
C1779 C1783 1.408 . S
C1780 C1778 1.363 . S
C1780 C1781 1.370 . S
C1780 C1784 1.524 . S
C1781 C1773 1.503 . S
C1781 C1780 1.370 . S
C1781 C1782 1.403 . S
C1782 C1781 1.403 . S
C1782 C1783 1.404 . S
C1782 C1785 1.539 . S
C1783 C1779 1.408 . S
C1783 C1782 1.404 . S
C1783 H1795 0.930 . S
C1784 C1780 1.524 . S
C1784 H1796 0.956 . S
C1784 H1797 0.961 . S
C1784 H1798 0.961 . S
C1785 C1782 1.539 . S
C1785 H1799 0.958 . S
C1785 H1800 0.961 . S
C1785 H1801 0.960 . S
H1786 C1770 0.931 . S
H1787 C1775 0.929 . S
H1788 C1776 0.960 . S
H1789 C1776 0.962 . S
H1790 C1776 0.960 . S
H1791 C1777 0.961 . S
H1792 C1777 0.961 . S
H1793 C1777 0.961 . S
H1794 C1778 0.931 . S
H1795 C1783 0.930 . S
H1796 C1784 0.956 . S
H1797 C1784 0.961 . S
H1798 C1784 0.961 . S
H1799 C1785 0.958 . S
H1800 C1785 0.961 . S
H1801 C1785 0.960 . S
C1802 C1803 1.391 . S
C1802 C1804 1.394 . S
C1802 H1818 0.931 . S
C1803 C1802 1.391 . S
C1803 C1807 1.376 . S
C1804 C1802 1.394 . S
C1804 C1805 1.369 . S
C1804 C1808 1.531 . S
C1805 C1804 1.369 . S
C1805 C1806 1.410 . S
C1805 C1813 1.503 . S
C1806 C1805 1.410 . S
C1806 C1807 1.392 . S
C1806 C1809 1.511 . S
C1807 C1803 1.376 . S
C1807 C1806 1.392 . S
C1807 H1819 0.929 . S
C1808 C1804 1.531 . S
C1808 H1820 0.960 . S
C1808 H1821 0.962 . S
C1808 H1822 0.960 . S
C1809 C1806 1.511 . S
C1809 H1823 0.961 . S
C1809 H1824 0.961 . S
C1809 H1825 0.961 . S
C1810 C1811 1.370 . S
C1810 C1812 1.363 . S
C1810 H1826 0.931 . S
C1811 C1810 1.370 . S
C1811 C1815 1.408 . S
C1812 C1810 1.363 . S
C1812 C1813 1.370 . S
C1812 C1816 1.524 . S
C1813 C1805 1.503 . S
C1813 C1812 1.370 . S
C1813 C1814 1.403 . S
C1814 C1813 1.403 . S
C1814 C1815 1.404 . S
C1814 C1817 1.539 . S
C1815 C1811 1.408 . S
C1815 C1814 1.404 . S
C1815 H1827 0.930 . S
C1816 C1812 1.524 . S
C1816 H1828 0.956 . S
C1816 H1829 0.961 . S
C1816 H1830 0.961 . S
C1817 C1814 1.539 . S
C1817 H1831 0.958 . S
C1817 H1832 0.961 . S
C1817 H1833 0.960 . S
H1818 C1802 0.931 . S
H1819 C1807 0.929 . S
H1820 C1808 0.960 . S
H1821 C1808 0.962 . S
H1822 C1808 0.960 . S
H1823 C1809 0.961 . S
H1824 C1809 0.961 . S
H1825 C1809 0.961 . S
H1826 C1810 0.931 . S
H1827 C1815 0.930 . S
H1828 C1816 0.956 . S
H1829 C1816 0.961 . S
H1830 C1816 0.961 . S
H1831 C1817 0.958 . S
H1832 C1817 0.961 . S
H1833 C1817 0.960 . S
C1834 C1835 1.391 . S
C1834 C1836 1.394 . S
C1834 H1850 0.931 . S
C1835 C1834 1.391 . S
C1835 C1839 1.376 . S
C1836 C1834 1.394 . S
C1836 C1837 1.369 . S
C1836 C1840 1.531 . S
C1837 C1836 1.369 . S
C1837 C1838 1.410 . S
C1837 C1845 1.503 . S
C1838 C1837 1.410 . S
C1838 C1839 1.392 . S
C1838 C1841 1.511 . S
C1839 C1835 1.376 . S
C1839 C1838 1.392 . S
C1839 H1851 0.929 . S
C1840 C1836 1.531 . S
C1840 H1852 0.960 . S
C1840 H1853 0.962 . S
C1840 H1854 0.960 . S
C1841 C1838 1.511 . S
C1841 H1855 0.961 . S
C1841 H1856 0.961 . S
C1841 H1857 0.961 . S
C1842 C1843 1.370 . S
C1842 C1844 1.363 . S
C1842 H1858 0.931 . S
C1843 C1842 1.370 . S
C1843 C1847 1.408 . S
C1844 C1842 1.363 . S
C1844 C1845 1.370 . S
C1844 C1848 1.524 . S
C1845 C1837 1.503 . S
C1845 C1844 1.370 . S
C1845 C1846 1.403 . S
C1846 C1845 1.403 . S
C1846 C1847 1.404 . S
C1846 C1849 1.539 . S
C1847 C1843 1.408 . S
C1847 C1846 1.404 . S
C1847 H1859 0.930 . S
C1848 C1844 1.524 . S
C1848 H1860 0.956 . S
C1848 H1861 0.961 . S
C1848 H1862 0.961 . S
C1849 C1846 1.539 . S
C1849 H1863 0.958 . S
C1849 H1864 0.961 . S
C1849 H1865 0.960 . S
H1850 C1834 0.931 . S
H1851 C1839 0.929 . S
H1852 C1840 0.960 . S
H1853 C1840 0.962 . S
H1854 C1840 0.960 . S
H1855 C1841 0.961 . S
H1856 C1841 0.961 . S
H1857 C1841 0.961 . S
H1858 C1842 0.931 . S
H1859 C1847 0.930 . S
H1860 C1848 0.956 . S
H1861 C1848 0.961 . S
H1862 C1848 0.961 . S
H1863 C1849 0.958 . S
H1864 C1849 0.961 . S
H1865 C1849 0.960 . S
C1866 C1867 1.391 . S
C1866 C1868 1.394 . S
C1866 H1882 0.931 . S
C1867 C1866 1.391 . S
C1867 C1871 1.376 . S
C1868 C1866 1.394 . S
C1868 C1869 1.369 . S
C1868 C1872 1.531 . S
C1869 C1868 1.369 . S
C1869 C1870 1.410 . S
C1869 C1877 1.503 . S
C1870 C1869 1.410 . S
C1870 C1871 1.392 . S
C1870 C1873 1.511 . S
C1871 C1867 1.376 . S
C1871 C1870 1.392 . S
C1871 H1883 0.929 . S
C1872 C1868 1.531 . S
C1872 H1884 0.960 . S
C1872 H1885 0.962 . S
C1872 H1886 0.960 . S
C1873 C1870 1.511 . S
C1873 H1887 0.961 . S
C1873 H1888 0.961 . S
C1873 H1889 0.961 . S
C1874 C1875 1.370 . S
C1874 C1876 1.363 . S
C1874 H1890 0.931 . S
C1875 C1874 1.370 . S
C1875 C1879 1.408 . S
C1876 C1874 1.363 . S
C1876 C1877 1.370 . S
C1876 C1880 1.524 . S
C1877 C1869 1.503 . S
C1877 C1876 1.370 . S
C1877 C1878 1.403 . S
C1878 C1877 1.403 . S
C1878 C1879 1.404 . S
C1878 C1881 1.539 . S
C1879 C1875 1.408 . S
C1879 C1878 1.404 . S
C1879 H1891 0.930 . S
C1880 C1876 1.524 . S
C1880 H1892 0.956 . S
C1880 H1893 0.961 . S
C1880 H1894 0.961 . S
C1881 C1878 1.539 . S
C1881 H1895 0.958 . S
C1881 H1896 0.961 . S
C1881 H1897 0.960 . S
H1882 C1866 0.931 . S
H1883 C1871 0.929 . S
H1884 C1872 0.960 . S
H1885 C1872 0.962 . S
H1886 C1872 0.960 . S
H1887 C1873 0.961 . S
H1888 C1873 0.961 . S
H1889 C1873 0.961 . S
H1890 C1874 0.931 . S
H1891 C1879 0.930 . S
H1892 C1880 0.956 . S
H1893 C1880 0.961 . S
H1894 C1880 0.961 . S
H1895 C1881 0.958 . S
H1896 C1881 0.961 . S
H1897 C1881 0.960 . S
C1898 C1899 1.391 . S
C1898 C1900 1.394 . S
C1898 H1914 0.931 . S
C1899 C1898 1.391 . S
C1899 C1903 1.376 . S
C1900 C1898 1.394 . S
C1900 C1901 1.369 . S
C1900 C1904 1.531 . S
C1901 C1900 1.369 . S
C1901 C1902 1.410 . S
C1901 C1909 1.503 . S
C1902 C1901 1.410 . S
C1902 C1903 1.392 . S
C1902 C1905 1.511 . S
C1903 C1899 1.376 . S
C1903 C1902 1.392 . S
C1903 H1915 0.929 . S
C1904 C1900 1.531 . S
C1904 H1916 0.960 . S
C1904 H1917 0.962 . S
C1904 H1918 0.960 . S
C1905 C1902 1.511 . S
C1905 H1919 0.961 . S
C1905 H1920 0.961 . S
C1905 H1921 0.961 . S
C1906 C1907 1.370 . S
C1906 C1908 1.363 . S
C1906 H1922 0.931 . S
C1907 C1906 1.370 . S
C1907 C1911 1.408 . S
C1908 C1906 1.363 . S
C1908 C1909 1.370 . S
C1908 C1912 1.524 . S
C1909 C1901 1.503 . S
C1909 C1908 1.370 . S
C1909 C1910 1.403 . S
C1910 C1909 1.403 . S
C1910 C1911 1.404 . S
C1910 C1913 1.539 . S
C1911 C1907 1.408 . S
C1911 C1910 1.404 . S
C1911 H1923 0.930 . S
C1912 C1908 1.524 . S
C1912 H1924 0.956 . S
C1912 H1925 0.961 . S
C1912 H1926 0.961 . S
C1913 C1910 1.539 . S
C1913 H1927 0.958 . S
C1913 H1928 0.961 . S
C1913 H1929 0.960 . S
H1914 C1898 0.931 . S
H1915 C1903 0.929 . S
H1916 C1904 0.960 . S
H1917 C1904 0.962 . S
H1918 C1904 0.960 . S
H1919 C1905 0.961 . S
H1920 C1905 0.961 . S
H1921 C1905 0.961 . S
H1922 C1906 0.931 . S
H1923 C1911 0.930 . S
H1924 C1912 0.956 . S
H1925 C1912 0.961 . S
H1926 C1912 0.961 . S
H1927 C1913 0.958 . S
H1928 C1913 0.961 . S
H1929 C1913 0.960 . S
C1930 C1931 1.391 . S
C1930 C1932 1.394 . S
C1930 H1946 0.931 . S
C1931 C1930 1.391 . S
C1931 C1935 1.376 . S
C1932 C1930 1.394 . S
C1932 C1933 1.369 . S
C1932 C1936 1.531 . S
C1933 C1932 1.369 . S
C1933 C1934 1.410 . S
C1933 C1941 1.503 . S
C1934 C1933 1.410 . S
C1934 C1935 1.392 . S
C1934 C1937 1.511 . S
C1935 C1931 1.376 . S
C1935 C1934 1.392 . S
C1935 H1947 0.929 . S
C1936 C1932 1.531 . S
C1936 H1948 0.960 . S
C1936 H1949 0.962 . S
C1936 H1950 0.960 . S
C1937 C1934 1.511 . S
C1937 H1951 0.961 . S
C1937 H1952 0.961 . S
C1937 H1953 0.961 . S
C1938 C1939 1.370 . S
C1938 C1940 1.363 . S
C1938 H1954 0.931 . S
C1939 C1938 1.370 . S
C1939 C1943 1.408 . S
C1940 C1938 1.363 . S
C1940 C1941 1.370 . S
C1940 C1944 1.524 . S
C1941 C1933 1.503 . S
C1941 C1940 1.370 . S
C1941 C1942 1.403 . S
C1942 C1941 1.403 . S
C1942 C1943 1.404 . S
C1942 C1945 1.539 . S
C1943 C1939 1.408 . S
C1943 C1942 1.404 . S
C1943 H1955 0.930 . S
C1944 C1940 1.524 . S
C1944 H1956 0.956 . S
C1944 H1957 0.961 . S
C1944 H1958 0.961 . S
C1945 C1942 1.539 . S
C1945 H1959 0.958 . S
C1945 H1960 0.961 . S
C1945 H1961 0.960 . S
H1946 C1930 0.931 . S
H1947 C1935 0.929 . S
H1948 C1936 0.960 . S
H1949 C1936 0.962 . S
H1950 C1936 0.960 . S
H1951 C1937 0.961 . S
H1952 C1937 0.961 . S
H1953 C1937 0.961 . S
H1954 C1938 0.931 . S
H1955 C1943 0.930 . S
H1956 C1944 0.956 . S
H1957 C1944 0.961 . S
H1958 C1944 0.961 . S
H1959 C1945 0.958 . S
H1960 C1945 0.961 . S
H1961 C1945 0.960 . S
C1962 C1963 1.391 . S
C1962 C1964 1.394 . S
C1962 H1978 0.931 . S
C1963 C1962 1.391 . S
C1963 C1967 1.376 . S
C1964 C1962 1.394 . S
C1964 C1965 1.369 . S
C1964 C1968 1.531 . S
C1965 C1964 1.369 . S
C1965 C1966 1.410 . S
C1965 C1973 1.503 . S
C1966 C1965 1.410 . S
C1966 C1967 1.392 . S
C1966 C1969 1.511 . S
C1967 C1963 1.376 . S
C1967 C1966 1.392 . S
C1967 H1979 0.929 . S
C1968 C1964 1.531 . S
C1968 H1980 0.960 . S
C1968 H1981 0.962 . S
C1968 H1982 0.960 . S
C1969 C1966 1.511 . S
C1969 H1983 0.961 . S
C1969 H1984 0.961 . S
C1969 H1985 0.961 . S
C1970 C1971 1.370 . S
C1970 C1972 1.363 . S
C1970 H1986 0.931 . S
C1971 C1970 1.370 . S
C1971 C1975 1.408 . S
C1972 C1970 1.363 . S
C1972 C1973 1.370 . S
C1972 C1976 1.524 . S
C1973 C1965 1.503 . S
C1973 C1972 1.370 . S
C1973 C1974 1.403 . S
C1974 C1973 1.403 . S
C1974 C1975 1.404 . S
C1974 C1977 1.539 . S
C1975 C1971 1.408 . S
C1975 C1974 1.404 . S
C1975 H1987 0.930 . S
C1976 C1972 1.524 . S
C1976 H1988 0.956 . S
C1976 H1989 0.961 . S
C1976 H1990 0.961 . S
C1977 C1974 1.539 . S
C1977 H1991 0.958 . S
C1977 H1992 0.961 . S
C1977 H1993 0.960 . S
H1978 C1962 0.931 . S
H1979 C1967 0.929 . S
H1980 C1968 0.960 . S
H1981 C1968 0.962 . S
H1982 C1968 0.960 . S
H1983 C1969 0.961 . S
H1984 C1969 0.961 . S
H1985 C1969 0.961 . S
H1986 C1970 0.931 . S
H1987 C1975 0.930 . S
H1988 C1976 0.956 . S
H1989 C1976 0.961 . S
H1990 C1976 0.961 . S
H1991 C1977 0.958 . S
H1992 C1977 0.961 . S
H1993 C1977 0.960 . S
C1994 C1995 1.391 . S
C1994 C1996 1.394 . S
C1994 H2010 0.931 . S
C1995 C1994 1.391 . S
C1995 C1999 1.376 . S
C1996 C1994 1.394 . S
C1996 C1997 1.369 . S
C1996 C2000 1.531 . S
C1997 C1996 1.369 . S
C1997 C1998 1.410 . S
C1997 C2005 1.503 . S
C1998 C1997 1.410 . S
C1998 C1999 1.392 . S
C1998 C2001 1.511 . S
C1999 C1995 1.376 . S
C1999 C1998 1.392 . S
C1999 H2011 0.929 . S
C2000 C1996 1.531 . S
C2000 H2012 0.960 . S
C2000 H2013 0.962 . S
C2000 H2014 0.960 . S
C2001 C1998 1.511 . S
C2001 H2015 0.961 . S
C2001 H2016 0.961 . S
C2001 H2017 0.961 . S
C2002 C2003 1.370 . S
C2002 C2004 1.363 . S
C2002 H2018 0.931 . S
C2003 C2002 1.370 . S
C2003 C2007 1.408 . S
C2004 C2002 1.363 . S
C2004 C2005 1.370 . S
C2004 C2008 1.524 . S
C2005 C1997 1.503 . S
C2005 C2004 1.370 . S
C2005 C2006 1.403 . S
C2006 C2005 1.403 . S
C2006 C2007 1.404 . S
C2006 C2009 1.539 . S
C2007 C2003 1.408 . S
C2007 C2006 1.404 . S
C2007 H2019 0.930 . S
C2008 C2004 1.524 . S
C2008 H2020 0.956 . S
C2008 H2021 0.961 . S
C2008 H2022 0.961 . S
C2009 C2006 1.539 . S
C2009 H2023 0.958 . S
C2009 H2024 0.961 . S
C2009 H2025 0.960 . S
H2010 C1994 0.931 . S
H2011 C1999 0.929 . S
H2012 C2000 0.960 . S
H2013 C2000 0.962 . S
H2014 C2000 0.960 . S
H2015 C2001 0.961 . S
H2016 C2001 0.961 . S
H2017 C2001 0.961 . S
H2018 C2002 0.931 . S
H2019 C2007 0.930 . S
H2020 C2008 0.956 . S
H2021 C2008 0.961 . S
H2022 C2008 0.961 . S
H2023 C2009 0.958 . S
H2024 C2009 0.961 . S
H2025 C2009 0.960 . S
C2026 C2027 1.391 . S
C2026 C2028 1.394 . S
C2026 H2042 0.931 . S
C2027 C2026 1.391 . S
C2027 C2031 1.376 . S
C2028 C2026 1.394 . S
C2028 C2029 1.369 . S
C2028 C2032 1.531 . S
C2029 C2028 1.369 . S
C2029 C2030 1.410 . S
C2029 C2037 1.503 . S
C2030 C2029 1.410 . S
C2030 C2031 1.392 . S
C2030 C2033 1.511 . S
C2031 C2027 1.376 . S
C2031 C2030 1.392 . S
C2031 H2043 0.929 . S
C2032 C2028 1.531 . S
C2032 H2044 0.960 . S
C2032 H2045 0.962 . S
C2032 H2046 0.960 . S
C2033 C2030 1.511 . S
C2033 H2047 0.961 . S
C2033 H2048 0.961 . S
C2033 H2049 0.961 . S
C2034 C2035 1.370 . S
C2034 C2036 1.363 . S
C2034 H2050 0.931 . S
C2035 C2034 1.370 . S
C2035 C2039 1.408 . S
C2036 C2034 1.363 . S
C2036 C2037 1.370 . S
C2036 C2040 1.524 . S
C2037 C2029 1.503 . S
C2037 C2036 1.370 . S
C2037 C2038 1.403 . S
C2038 C2037 1.403 . S
C2038 C2039 1.404 . S
C2038 C2041 1.539 . S
C2039 C2035 1.408 . S
C2039 C2038 1.404 . S
C2039 H2051 0.930 . S
C2040 C2036 1.524 . S
C2040 H2052 0.956 . S
C2040 H2053 0.961 . S
C2040 H2054 0.961 . S
C2041 C2038 1.539 . S
C2041 H2055 0.958 . S
C2041 H2056 0.961 . S
C2041 H2057 0.960 . S
H2042 C2026 0.931 . S
H2043 C2031 0.929 . S
H2044 C2032 0.960 . S
H2045 C2032 0.962 . S
H2046 C2032 0.960 . S
H2047 C2033 0.961 . S
H2048 C2033 0.961 . S
H2049 C2033 0.961 . S
H2050 C2034 0.931 . S
H2051 C2039 0.930 . S
H2052 C2040 0.956 . S
H2053 C2040 0.961 . S
H2054 C2040 0.961 . S
H2055 C2041 0.958 . S
H2056 C2041 0.961 . S
H2057 C2041 0.960 . S
C2058 C2059 1.391 . S
C2058 C2060 1.394 . S
C2058 H2074 0.931 . S
C2059 C2058 1.391 . S
C2059 C2063 1.376 . S
C2060 C2058 1.394 . S
C2060 C2061 1.369 . S
C2060 C2064 1.531 . S
C2061 C2060 1.369 . S
C2061 C2062 1.410 . S
C2061 C2069 1.503 . S
C2062 C2061 1.410 . S
C2062 C2063 1.392 . S
C2062 C2065 1.511 . S
C2063 C2059 1.376 . S
C2063 C2062 1.392 . S
C2063 H2075 0.929 . S
C2064 C2060 1.531 . S
C2064 H2076 0.960 . S
C2064 H2077 0.962 . S
C2064 H2078 0.960 . S
C2065 C2062 1.511 . S
C2065 H2079 0.961 . S
C2065 H2080 0.961 . S
C2065 H2081 0.961 . S
C2066 C2067 1.370 . S
C2066 C2068 1.363 . S
C2066 H2082 0.931 . S
C2067 C2066 1.370 . S
C2067 C2071 1.408 . S
C2068 C2066 1.363 . S
C2068 C2069 1.370 . S
C2068 C2072 1.524 . S
C2069 C2061 1.503 . S
C2069 C2068 1.370 . S
C2069 C2070 1.403 . S
C2070 C2069 1.403 . S
C2070 C2071 1.404 . S
C2070 C2073 1.539 . S
C2071 C2067 1.408 . S
C2071 C2070 1.404 . S
C2071 H2083 0.930 . S
C2072 C2068 1.524 . S
C2072 H2084 0.956 . S
C2072 H2085 0.961 . S
C2072 H2086 0.961 . S
C2073 C2070 1.539 . S
C2073 H2087 0.958 . S
C2073 H2088 0.961 . S
C2073 H2089 0.960 . S
H2074 C2058 0.931 . S
H2075 C2063 0.929 . S
H2076 C2064 0.960 . S
H2077 C2064 0.962 . S
H2078 C2064 0.960 . S
H2079 C2065 0.961 . S
H2080 C2065 0.961 . S
H2081 C2065 0.961 . S
H2082 C2066 0.931 . S
H2083 C2071 0.930 . S
H2084 C2072 0.956 . S
H2085 C2072 0.961 . S
H2086 C2072 0.961 . S
H2087 C2073 0.958 . S
H2088 C2073 0.961 . S
H2089 C2073 0.960 . S
C2090 C2091 1.391 . S
C2090 C2092 1.394 . S
C2090 H2106 0.931 . S
C2091 C2090 1.391 . S
C2091 C2095 1.376 . S
C2092 C2090 1.394 . S
C2092 C2093 1.369 . S
C2092 C2096 1.531 . S
C2093 C2092 1.369 . S
C2093 C2094 1.410 . S
C2093 C2101 1.503 . S
C2094 C2093 1.410 . S
C2094 C2095 1.392 . S
C2094 C2097 1.511 . S
C2095 C2091 1.376 . S
C2095 C2094 1.392 . S
C2095 H2107 0.929 . S
C2096 C2092 1.531 . S
C2096 H2108 0.960 . S
C2096 H2109 0.962 . S
C2096 H2110 0.960 . S
C2097 C2094 1.511 . S
C2097 H2111 0.961 . S
C2097 H2112 0.961 . S
C2097 H2113 0.961 . S
C2098 C2099 1.370 . S
C2098 C2100 1.363 . S
C2098 H2114 0.931 . S
C2099 C2098 1.370 . S
C2099 C2103 1.408 . S
C2100 C2098 1.363 . S
C2100 C2101 1.370 . S
C2100 C2104 1.524 . S
C2101 C2093 1.503 . S
C2101 C2100 1.370 . S
C2101 C2102 1.403 . S
C2102 C2101 1.403 . S
C2102 C2103 1.404 . S
C2102 C2105 1.539 . S
C2103 C2099 1.408 . S
C2103 C2102 1.404 . S
C2103 H2115 0.930 . S
C2104 C2100 1.524 . S
C2104 H2116 0.956 . S
C2104 H2117 0.961 . S
C2104 H2118 0.961 . S
C2105 C2102 1.539 . S
C2105 H2119 0.958 . S
C2105 H2120 0.961 . S
C2105 H2121 0.960 . S
H2106 C2090 0.931 . S
H2107 C2095 0.929 . S
H2108 C2096 0.960 . S
H2109 C2096 0.962 . S
H2110 C2096 0.960 . S
H2111 C2097 0.961 . S
H2112 C2097 0.961 . S
H2113 C2097 0.961 . S
H2114 C2098 0.931 . S
H2115 C2103 0.930 . S
H2116 C2104 0.956 . S
H2117 C2104 0.961 . S
H2118 C2104 0.961 . S
H2119 C2105 0.958 . S
H2120 C2105 0.961 . S
H2121 C2105 0.960 . S
C2122 C2123 1.391 . S
C2122 C2124 1.394 . S
C2122 H2138 0.931 . S
C2123 C2122 1.391 . S
C2123 C2127 1.376 . S
C2124 C2122 1.394 . S
C2124 C2125 1.369 . S
C2124 C2128 1.531 . S
C2125 C2124 1.369 . S
C2125 C2126 1.410 . S
C2125 C2133 1.503 . S
C2126 C2125 1.410 . S
C2126 C2127 1.392 . S
C2126 C2129 1.511 . S
C2127 C2123 1.376 . S
C2127 C2126 1.392 . S
C2127 H2139 0.929 . S
C2128 C2124 1.531 . S
C2128 H2140 0.960 . S
C2128 H2141 0.962 . S
C2128 H2142 0.960 . S
C2129 C2126 1.511 . S
C2129 H2143 0.961 . S
C2129 H2144 0.961 . S
C2129 H2145 0.961 . S
C2130 C2131 1.370 . S
C2130 C2132 1.363 . S
C2130 H2146 0.931 . S
C2131 C2130 1.370 . S
C2131 C2135 1.408 . S
C2132 C2130 1.363 . S
C2132 C2133 1.370 . S
C2132 C2136 1.524 . S
C2133 C2125 1.503 . S
C2133 C2132 1.370 . S
C2133 C2134 1.403 . S
C2134 C2133 1.403 . S
C2134 C2135 1.404 . S
C2134 C2137 1.539 . S
C2135 C2131 1.408 . S
C2135 C2134 1.404 . S
C2135 H2147 0.930 . S
C2136 C2132 1.524 . S
C2136 H2148 0.956 . S
C2136 H2149 0.961 . S
C2136 H2150 0.961 . S
C2137 C2134 1.539 . S
C2137 H2151 0.958 . S
C2137 H2152 0.961 . S
C2137 H2153 0.960 . S
H2138 C2122 0.931 . S
H2139 C2127 0.929 . S
H2140 C2128 0.960 . S
H2141 C2128 0.962 . S
H2142 C2128 0.960 . S
H2143 C2129 0.961 . S
H2144 C2129 0.961 . S
H2145 C2129 0.961 . S
H2146 C2130 0.931 . S
H2147 C2135 0.930 . S
H2148 C2136 0.956 . S
H2149 C2136 0.961 . S
H2150 C2136 0.961 . S
H2151 C2137 0.958 . S
H2152 C2137 0.961 . S
H2153 C2137 0.960 . S
C2154 C2155 1.391 . S
C2154 C2156 1.394 . S
C2154 H2170 0.931 . S
C2155 C2154 1.391 . S
C2155 C2159 1.376 . S
C2156 C2154 1.394 . S
C2156 C2157 1.369 . S
C2156 C2160 1.531 . S
C2157 C2156 1.369 . S
C2157 C2158 1.410 . S
C2157 C2165 1.503 . S
C2158 C2157 1.410 . S
C2158 C2159 1.392 . S
C2158 C2161 1.511 . S
C2159 C2155 1.376 . S
C2159 C2158 1.392 . S
C2159 H2171 0.929 . S
C2160 C2156 1.531 . S
C2160 H2172 0.960 . S
C2160 H2173 0.962 . S
C2160 H2174 0.960 . S
C2161 C2158 1.511 . S
C2161 H2175 0.961 . S
C2161 H2176 0.961 . S
C2161 H2177 0.961 . S
C2162 C2163 1.370 . S
C2162 C2164 1.363 . S
C2162 H2178 0.931 . S
C2163 C2162 1.370 . S
C2163 C2167 1.408 . S
C2164 C2162 1.363 . S
C2164 C2165 1.370 . S
C2164 C2168 1.524 . S
C2165 C2157 1.503 . S
C2165 C2164 1.370 . S
C2165 C2166 1.403 . S
C2166 C2165 1.403 . S
C2166 C2167 1.404 . S
C2166 C2169 1.539 . S
C2167 C2163 1.408 . S
C2167 C2166 1.404 . S
C2167 H2179 0.930 . S
C2168 C2164 1.524 . S
C2168 H2180 0.956 . S
C2168 H2181 0.961 . S
C2168 H2182 0.961 . S
C2169 C2166 1.539 . S
C2169 H2183 0.958 . S
C2169 H2184 0.961 . S
C2169 H2185 0.960 . S
H2170 C2154 0.931 . S
H2171 C2159 0.929 . S
H2172 C2160 0.960 . S
H2173 C2160 0.962 . S
H2174 C2160 0.960 . S
H2175 C2161 0.961 . S
H2176 C2161 0.961 . S
H2177 C2161 0.961 . S
H2178 C2162 0.931 . S
H2179 C2167 0.930 . S
H2180 C2168 0.956 . S
H2181 C2168 0.961 . S
H2182 C2168 0.961 . S
H2183 C2169 0.958 . S
H2184 C2169 0.961 . S
H2185 C2169 0.960 . S
C2186 C2187 1.391 . S
C2186 C2188 1.394 . S
C2186 H2202 0.931 . S
C2187 C2186 1.391 . S
C2187 C2191 1.376 . S
C2188 C2186 1.394 . S
C2188 C2189 1.369 . S
C2188 C2192 1.531 . S
C2189 C2188 1.369 . S
C2189 C2190 1.410 . S
C2189 C2197 1.503 . S
C2190 C2189 1.410 . S
C2190 C2191 1.392 . S
C2190 C2193 1.511 . S
C2191 C2187 1.376 . S
C2191 C2190 1.392 . S
C2191 H2203 0.929 . S
C2192 C2188 1.531 . S
C2192 H2204 0.960 . S
C2192 H2205 0.962 . S
C2192 H2206 0.960 . S
C2193 C2190 1.511 . S
C2193 H2207 0.961 . S
C2193 H2208 0.961 . S
C2193 H2209 0.961 . S
C2194 C2195 1.370 . S
C2194 C2196 1.363 . S
C2194 H2210 0.931 . S
C2195 C2194 1.370 . S
C2195 C2199 1.408 . S
C2196 C2194 1.363 . S
C2196 C2197 1.370 . S
C2196 C2200 1.524 . S
C2197 C2189 1.503 . S
C2197 C2196 1.370 . S
C2197 C2198 1.403 . S
C2198 C2197 1.403 . S
C2198 C2199 1.404 . S
C2198 C2201 1.539 . S
C2199 C2195 1.408 . S
C2199 C2198 1.404 . S
C2199 H2211 0.930 . S
C2200 C2196 1.524 . S
C2200 H2212 0.956 . S
C2200 H2213 0.961 . S
C2200 H2214 0.961 . S
C2201 C2198 1.539 . S
C2201 H2215 0.958 . S
C2201 H2216 0.961 . S
C2201 H2217 0.960 . S
H2202 C2186 0.931 . S
H2203 C2191 0.929 . S
H2204 C2192 0.960 . S
H2205 C2192 0.962 . S
H2206 C2192 0.960 . S
H2207 C2193 0.961 . S
H2208 C2193 0.961 . S
H2209 C2193 0.961 . S
H2210 C2194 0.931 . S
H2211 C2199 0.930 . S
H2212 C2200 0.956 . S
H2213 C2200 0.961 . S
H2214 C2200 0.961 . S
H2215 C2201 0.958 . S
H2216 C2201 0.961 . S
H2217 C2201 0.960 . S
C2218 C2219 1.391 . S
C2218 C2220 1.394 . S
C2218 H2234 0.931 . S
C2219 C2218 1.391 . S
C2219 C2223 1.376 . S
C2220 C2218 1.394 . S
C2220 C2221 1.369 . S
C2220 C2224 1.531 . S
C2221 C2220 1.369 . S
C2221 C2222 1.410 . S
C2221 C2229 1.503 . S
C2222 C2221 1.410 . S
C2222 C2223 1.392 . S
C2222 C2225 1.511 . S
C2223 C2219 1.376 . S
C2223 C2222 1.392 . S
C2223 H2235 0.929 . S
C2224 C2220 1.531 . S
C2224 H2236 0.960 . S
C2224 H2237 0.962 . S
C2224 H2238 0.960 . S
C2225 C2222 1.511 . S
C2225 H2239 0.961 . S
C2225 H2240 0.961 . S
C2225 H2241 0.961 . S
C2226 C2227 1.370 . S
C2226 C2228 1.363 . S
C2226 H2242 0.931 . S
C2227 C2226 1.370 . S
C2227 C2231 1.408 . S
C2228 C2226 1.363 . S
C2228 C2229 1.370 . S
C2228 C2232 1.524 . S
C2229 C2221 1.503 . S
C2229 C2228 1.370 . S
C2229 C2230 1.403 . S
C2230 C2229 1.403 . S
C2230 C2231 1.404 . S
C2230 C2233 1.539 . S
C2231 C2227 1.408 . S
C2231 C2230 1.404 . S
C2231 H2243 0.930 . S
C2232 C2228 1.524 . S
C2232 H2244 0.956 . S
C2232 H2245 0.961 . S
C2232 H2246 0.961 . S
C2233 C2230 1.539 . S
C2233 H2247 0.958 . S
C2233 H2248 0.961 . S
C2233 H2249 0.960 . S
H2234 C2218 0.931 . S
H2235 C2223 0.929 . S
H2236 C2224 0.960 . S
H2237 C2224 0.962 . S
H2238 C2224 0.960 . S
H2239 C2225 0.961 . S
H2240 C2225 0.961 . S
H2241 C2225 0.961 . S
H2242 C2226 0.931 . S
H2243 C2231 0.930 . S
H2244 C2232 0.956 . S
H2245 C2232 0.961 . S
H2246 C2232 0.961 . S
H2247 C2233 0.958 . S
H2248 C2233 0.961 . S
H2249 C2233 0.960 . S
C2250 C2251 1.391 . S
C2250 C2252 1.394 . S
C2250 H2266 0.931 . S
C2251 C2250 1.391 . S
C2251 C2255 1.376 . S
C2252 C2250 1.394 . S
C2252 C2253 1.369 . S
C2252 C2256 1.531 . S
C2253 C2252 1.369 . S
C2253 C2254 1.410 . S
C2253 C2261 1.503 . S
C2254 C2253 1.410 . S
C2254 C2255 1.392 . S
C2254 C2257 1.511 . S
C2255 C2251 1.376 . S
C2255 C2254 1.392 . S
C2255 H2267 0.929 . S
C2256 C2252 1.531 . S
C2256 H2268 0.960 . S
C2256 H2269 0.962 . S
C2256 H2270 0.960 . S
C2257 C2254 1.511 . S
C2257 H2271 0.961 . S
C2257 H2272 0.961 . S
C2257 H2273 0.961 . S
C2258 C2259 1.370 . S
C2258 C2260 1.363 . S
C2258 H2274 0.931 . S
C2259 C2258 1.370 . S
C2259 C2263 1.408 . S
C2260 C2258 1.363 . S
C2260 C2261 1.370 . S
C2260 C2264 1.524 . S
C2261 C2253 1.503 . S
C2261 C2260 1.370 . S
C2261 C2262 1.403 . S
C2262 C2261 1.403 . S
C2262 C2263 1.404 . S
C2262 C2265 1.539 . S
C2263 C2259 1.408 . S
C2263 C2262 1.404 . S
C2263 H2275 0.930 . S
C2264 C2260 1.524 . S
C2264 H2276 0.956 . S
C2264 H2277 0.961 . S
C2264 H2278 0.961 . S
C2265 C2262 1.539 . S
C2265 H2279 0.958 . S
C2265 H2280 0.961 . S
C2265 H2281 0.960 . S
H2266 C2250 0.931 . S
H2267 C2255 0.929 . S
H2268 C2256 0.960 . S
H2269 C2256 0.962 . S
H2270 C2256 0.960 . S
H2271 C2257 0.961 . S
H2272 C2257 0.961 . S
H2273 C2257 0.961 . S
H2274 C2258 0.931 . S
H2275 C2263 0.930 . S
H2276 C2264 0.956 . S
H2277 C2264 0.961 . S
H2278 C2264 0.961 . S
H2279 C2265 0.958 . S
H2280 C2265 0.961 . S
H2281 C2265 0.960 . S
C2282 C2283 1.391 . S
C2282 C2284 1.394 . S
C2282 H2298 0.931 . S
C2283 C2282 1.391 . S
C2283 C2287 1.376 . S
C2284 C2282 1.394 . S
C2284 C2285 1.369 . S
C2284 C2288 1.531 . S
C2285 C2284 1.369 . S
C2285 C2286 1.410 . S
C2285 C2293 1.503 . S
C2286 C2285 1.410 . S
C2286 C2287 1.392 . S
C2286 C2289 1.511 . S
C2287 C2283 1.376 . S
C2287 C2286 1.392 . S
C2287 H2299 0.929 . S
C2288 C2284 1.531 . S
C2288 H2300 0.960 . S
C2288 H2301 0.962 . S
C2288 H2302 0.960 . S
C2289 C2286 1.511 . S
C2289 H2303 0.961 . S
C2289 H2304 0.961 . S
C2289 H2305 0.961 . S
C2290 C2291 1.370 . S
C2290 C2292 1.363 . S
C2290 H2306 0.931 . S
C2291 C2290 1.370 . S
C2291 C2295 1.408 . S
C2292 C2290 1.363 . S
C2292 C2293 1.370 . S
C2292 C2296 1.524 . S
C2293 C2285 1.503 . S
C2293 C2292 1.370 . S
C2293 C2294 1.403 . S
C2294 C2293 1.403 . S
C2294 C2295 1.404 . S
C2294 C2297 1.539 . S
C2295 C2291 1.408 . S
C2295 C2294 1.404 . S
C2295 H2307 0.930 . S
C2296 C2292 1.524 . S
C2296 H2308 0.956 . S
C2296 H2309 0.961 . S
C2296 H2310 0.961 . S
C2297 C2294 1.539 . S
C2297 H2311 0.958 . S
C2297 H2312 0.961 . S
C2297 H2313 0.960 . S
H2298 C2282 0.931 . S
H2299 C2287 0.929 . S
H2300 C2288 0.960 . S
H2301 C2288 0.962 . S
H2302 C2288 0.960 . S
H2303 C2289 0.961 . S
H2304 C2289 0.961 . S
H2305 C2289 0.961 . S
H2306 C2290 0.931 . S
H2307 C2295 0.930 . S
H2308 C2296 0.956 . S
H2309 C2296 0.961 . S
H2310 C2296 0.961 . S
H2311 C2297 0.958 . S
H2312 C2297 0.961 . S
H2313 C2297 0.960 . S
C2314 C2315 1.391 . S
C2314 C2316 1.394 . S
C2314 H2330 0.931 . S
C2315 C2314 1.391 . S
C2315 C2319 1.376 . S
C2316 C2314 1.394 . S
C2316 C2317 1.369 . S
C2316 C2320 1.531 . S
C2317 C2316 1.369 . S
C2317 C2318 1.410 . S
C2317 C2325 1.503 . S
C2318 C2317 1.410 . S
C2318 C2319 1.392 . S
C2318 C2321 1.511 . S
C2319 C2315 1.376 . S
C2319 C2318 1.392 . S
C2319 H2331 0.929 . S
C2320 C2316 1.531 . S
C2320 H2332 0.960 . S
C2320 H2333 0.962 . S
C2320 H2334 0.960 . S
C2321 C2318 1.511 . S
C2321 H2335 0.961 . S
C2321 H2336 0.961 . S
C2321 H2337 0.961 . S
C2322 C2323 1.370 . S
C2322 C2324 1.363 . S
C2322 H2338 0.931 . S
C2323 C2322 1.370 . S
C2323 C2327 1.408 . S
C2324 C2322 1.363 . S
C2324 C2325 1.370 . S
C2324 C2328 1.524 . S
C2325 C2317 1.503 . S
C2325 C2324 1.370 . S
C2325 C2326 1.403 . S
C2326 C2325 1.403 . S
C2326 C2327 1.404 . S
C2326 C2329 1.539 . S
C2327 C2323 1.408 . S
C2327 C2326 1.404 . S
C2327 H2339 0.930 . S
C2328 C2324 1.524 . S
C2328 H2340 0.956 . S
C2328 H2341 0.961 . S
C2328 H2342 0.961 . S
C2329 C2326 1.539 . S
C2329 H2343 0.958 . S
C2329 H2344 0.961 . S
C2329 H2345 0.960 . S
H2330 C2314 0.931 . S
H2331 C2319 0.929 . S
H2332 C2320 0.960 . S
H2333 C2320 0.962 . S
H2334 C2320 0.960 . S
H2335 C2321 0.961 . S
H2336 C2321 0.961 . S
H2337 C2321 0.961 . S
H2338 C2322 0.931 . S
H2339 C2327 0.930 . S
H2340 C2328 0.956 . S
H2341 C2328 0.961 . S
H2342 C2328 0.961 . S
H2343 C2329 0.958 . S
H2344 C2329 0.961 . S
H2345 C2329 0.960 . S
C2346 C2347 1.391 . S
C2346 C2348 1.394 . S
C2346 H2362 0.953 . S
C2347 C2346 1.391 . S
C2347 C2351 1.376 . S
C2348 C2346 1.394 . S
C2348 C2349 1.369 . S
C2348 C2352 1.531 . S
C2349 C2348 1.369 . S
C2349 C2350 1.410 . S
C2349 C2357 1.503 . S
C2350 C2349 1.410 . S
C2350 C2351 1.392 . S
C2350 C2353 1.511 . S
C2351 C2347 1.376 . S
C2351 C2350 1.392 . S
C2351 H2363 0.929 . S
C2352 C2348 1.531 . S
C2352 H2364 0.960 . S
C2352 H2365 0.962 . S
C2352 H2366 0.960 . S
C2353 C2350 1.511 . S
C2353 H2367 0.961 . S
C2353 H2368 0.961 . S
C2353 H2369 0.961 . S
C2354 C2355 1.370 . S
C2354 C2356 1.363 . S
C2354 H2370 0.931 . S
C2355 C2354 1.370 . S
C2355 C2359 1.408 . S
C2356 C2354 1.363 . S
C2356 C2357 1.370 . S
C2356 C2360 1.524 . S
C2357 C2349 1.503 . S
C2357 C2356 1.370 . S
C2357 C2358 1.403 . S
C2358 C2357 1.403 . S
C2358 C2359 1.404 . S
C2358 C2361 1.539 . S
C2359 C2355 1.408 . S
C2359 C2358 1.404 . S
C2359 H2371 0.930 . S
C2360 C2356 1.524 . S
C2360 H2372 0.978 . S
C2360 H2373 0.961 . S
C2360 H2374 0.961 . S
C2361 C2358 1.539 . S
C2361 H2375 0.958 . S
C2361 H2376 0.961 . S
C2361 H2377 0.960 . S
H2362 C2346 0.953 . S
H2363 C2351 0.929 . S
H2364 C2352 0.960 . S
H2365 C2352 0.962 . S
H2366 C2352 0.960 . S
H2367 C2353 0.961 . S
H2368 C2353 0.961 . S
H2369 C2353 0.961 . S
H2370 C2354 0.931 . S
H2371 C2359 0.930 . S
H2372 C2360 0.978 . S
H2373 C2360 0.961 . S
H2374 C2360 0.961 . S
H2375 C2361 0.958 . S
H2376 C2361 0.961 . S
H2377 C2361 0.960 . S
C2378 C2379 1.391 . S
C2378 C2380 1.394 . S
C2378 H2394 0.931 . S
C2379 C2378 1.391 . S
C2379 C2383 1.376 . S
C2380 C2378 1.394 . S
C2380 C2381 1.369 . S
C2380 C2384 1.531 . S
C2381 C2380 1.369 . S
C2381 C2382 1.410 . S
C2381 C2389 1.503 . S
C2382 C2381 1.410 . S
C2382 C2383 1.392 . S
C2382 C2385 1.511 . S
C2383 C2379 1.376 . S
C2383 C2382 1.392 . S
C2383 H2395 0.929 . S
C2384 C2380 1.531 . S
C2384 H2396 0.960 . S
C2384 H2397 0.962 . S
C2384 H2398 0.960 . S
C2385 C2382 1.511 . S
C2385 H2399 0.961 . S
C2385 H2400 0.961 . S
C2385 H2401 0.961 . S
C2386 C2387 1.370 . S
C2386 C2388 1.363 . S
C2386 H2402 0.931 . S
C2387 C2386 1.370 . S
C2387 C2391 1.408 . S
C2388 C2386 1.363 . S
C2388 C2389 1.370 . S
C2388 C2392 1.524 . S
C2389 C2381 1.503 . S
C2389 C2388 1.370 . S
C2389 C2390 1.403 . S
C2390 C2389 1.403 . S
C2390 C2391 1.404 . S
C2390 C2393 1.539 . S
C2391 C2387 1.408 . S
C2391 C2390 1.404 . S
C2391 H2403 0.930 . S
C2392 C2388 1.524 . S
C2392 H2404 0.955 1_556 S
C2392 H2405 0.961 . S
C2392 H2406 0.961 1_556 S
C2393 C2390 1.539 . S
C2393 H2407 0.958 . S
C2393 H2408 0.961 . S
C2393 H2409 0.960 . S
H2394 C2378 0.931 . S
H2395 C2383 0.929 . S
H2396 C2384 0.960 . S
H2397 C2384 0.962 . S
H2398 C2384 0.960 . S
H2399 C2385 0.961 . S
H2400 C2385 0.961 . S
H2401 C2385 0.961 . S
H2402 C2386 0.931 . S
H2403 C2391 0.930 . S
H2404 C2392 0.955 1_554 S
H2405 C2392 0.961 . S
H2406 C2392 0.961 1_554 S
H2407 C2393 0.958 . S
H2408 C2393 0.961 . S
H2409 C2393 0.960 . S
C2410 C2411 1.391 . S
C2410 C2412 1.394 . S
C2410 H2426 0.931 1_556 S
C2411 C2410 1.391 . S
C2411 C2415 1.376 . S
C2412 C2410 1.394 . S
C2412 C2413 1.369 . S
C2412 C2416 1.531 . S
C2413 C2412 1.369 . S
C2413 C2414 1.410 . S
C2413 C2421 1.503 . S
C2414 C2413 1.410 . S
C2414 C2415 1.392 . S
C2414 C2417 1.511 . S
C2415 C2411 1.376 . S
C2415 C2414 1.392 . S
C2415 H2427 0.929 . S
C2416 C2412 1.531 . S
C2416 H2428 0.960 . S
C2416 H2429 0.962 1_556 S
C2416 H2430 0.960 1_556 S
C2417 C2414 1.511 . S
C2417 H2431 0.961 . S
C2417 H2432 0.961 . S
C2417 H2433 0.961 . S
C2418 C2419 1.370 . S
C2418 C2420 1.363 . S
C2418 H2434 0.931 . S
C2419 C2418 1.370 . S
C2419 C2423 1.408 . S
C2420 C2418 1.363 . S
C2420 C2421 1.370 . S
C2420 C2424 1.524 . S
C2421 C2413 1.503 . S
C2421 C2420 1.370 . S
C2421 C2422 1.403 . S
C2422 C2421 1.403 . S
C2422 C2423 1.404 . S
C2422 C2425 1.539 . S
C2423 C2419 1.408 . S
C2423 C2422 1.404 . S
C2423 H2435 0.930 . S
C2424 C2420 1.524 . S
C2424 H2436 0.956 . S
C2424 H2437 0.961 . S
C2424 H2438 0.961 . S
C2425 C2422 1.539 . S
C2425 H2439 0.958 . S
C2425 H2440 0.961 . S
C2425 H2441 0.960 . S
H2426 C2410 0.931 1_554 S
H2427 C2415 0.929 . S
H2428 C2416 0.960 . S
H2429 C2416 0.962 1_554 S
H2430 C2416 0.960 1_554 S
H2431 C2417 0.961 . S
H2432 C2417 0.961 . S
H2433 C2417 0.961 . S
H2434 C2418 0.931 . S
H2435 C2423 0.930 . S
H2436 C2424 0.956 . S
H2437 C2424 0.961 . S
H2438 C2424 0.961 . S
H2439 C2425 0.958 . S
H2440 C2425 0.961 . S
H2441 C2425 0.960 . S
C2442 C2443 1.391 . S
C2442 C2444 1.394 . S
C2442 H2458 0.931 . S
C2443 C2442 1.391 . S
C2443 C2447 1.376 . S
C2444 C2442 1.394 . S
C2444 C2445 1.369 . S
C2444 C2448 1.531 . S
C2445 C2444 1.369 . S
C2445 C2446 1.410 . S
C2445 C2453 1.503 . S
C2446 C2445 1.410 . S
C2446 C2447 1.392 . S
C2446 C2449 1.511 . S
C2447 C2443 1.376 . S
C2447 C2446 1.392 . S
C2447 H2459 0.929 1_556 S
C2448 C2444 1.531 . S
C2448 H2460 0.960 . S
C2448 H2461 0.962 . S
C2448 H2462 0.960 . S
C2449 C2446 1.511 . S
C2449 H2463 0.961 1_556 S
C2449 H2464 0.961 . S
C2449 H2465 0.961 . S
C2450 C2451 1.370 . S
C2450 C2452 1.363 . S
C2450 H2466 0.931 . S
C2451 C2450 1.370 . S
C2451 C2455 1.408 . S
C2452 C2450 1.363 . S
C2452 C2453 1.370 . S
C2452 C2456 1.524 . S
C2453 C2445 1.503 . S
C2453 C2452 1.370 . S
C2453 C2454 1.403 . S
C2454 C2453 1.403 . S
C2454 C2455 1.404 . S
C2454 C2457 1.539 . S
C2455 C2451 1.408 . S
C2455 C2454 1.404 . S
C2455 H2467 0.930 . S
C2456 C2452 1.524 . S
C2456 H2468 0.956 . S
C2456 H2469 0.961 . S
C2456 H2470 0.961 . S
C2457 C2454 1.539 . S
C2457 H2471 0.958 . S
C2457 H2472 0.961 . S
C2457 H2473 0.960 . S
H2458 C2442 0.931 . S
H2459 C2447 0.929 1_554 S
H2460 C2448 0.960 . S
H2461 C2448 0.962 . S
H2462 C2448 0.960 . S
H2463 C2449 0.961 1_554 S
H2464 C2449 0.961 . S
H2465 C2449 0.961 . S
H2466 C2450 0.931 . S
H2467 C2455 0.930 . S
H2468 C2456 0.956 . S
H2469 C2456 0.961 . S
H2470 C2456 0.961 . S
H2471 C2457 0.958 . S
H2472 C2457 0.961 . S
H2473 C2457 0.960 . S
C2474 C2475 1.391 . S
C2474 C2476 1.394 . S
C2474 H2490 0.931 . S
C2475 C2474 1.391 . S
C2475 C2479 1.376 . S
C2476 C2474 1.394 . S
C2476 C2477 1.369 . S
C2476 C2480 1.531 . S
C2477 C2476 1.369 . S
C2477 C2478 1.410 . S
C2477 C2485 1.503 . S
C2478 C2477 1.410 . S
C2478 C2479 1.392 . S
C2478 C2481 1.511 . S
C2479 C2475 1.376 . S
C2479 C2478 1.392 . S
C2479 H2491 0.929 1_556 S
C2480 C2476 1.531 . S
C2480 H2492 0.960 . S
C2480 H2493 0.962 . S
C2480 H2494 0.960 . S
C2481 C2478 1.511 . S
C2481 H2495 0.961 . S
C2481 H2496 0.961 . S
C2481 H2497 0.961 1_556 S
C2482 C2483 1.370 . S
C2482 C2484 1.363 . S
C2482 H2498 0.931 . S
C2483 C2482 1.370 . S
C2483 C2487 1.408 . S
C2484 C2482 1.363 . S
C2484 C2485 1.370 . S
C2484 C2488 1.524 . S
C2485 C2477 1.503 . S
C2485 C2484 1.370 . S
C2485 C2486 1.403 . S
C2486 C2485 1.403 . S
C2486 C2487 1.404 . S
C2486 C2489 1.539 . S
C2487 C2483 1.408 . S
C2487 C2486 1.404 . S
C2487 H2499 0.930 . S
C2488 C2484 1.524 . S
C2488 H2500 0.956 . S
C2488 H2501 0.961 . S
C2488 H2502 0.961 . S
C2489 C2486 1.539 . S
C2489 H2503 0.958 . S
C2489 H2504 0.961 . S
C2489 H2505 0.960 . S
H2490 C2474 0.931 . S
H2491 C2479 0.929 1_554 S
H2492 C2480 0.960 . S
H2493 C2480 0.962 . S
H2494 C2480 0.960 . S
H2495 C2481 0.961 . S
H2496 C2481 0.961 . S
H2497 C2481 0.961 1_554 S
H2498 C2482 0.931 . S
H2499 C2487 0.930 . S
H2500 C2488 0.956 . S
H2501 C2488 0.961 . S
H2502 C2488 0.961 . S
H2503 C2489 0.958 . S
H2504 C2489 0.961 . S
H2505 C2489 0.960 . S
C2506 C2507 1.391 . S
C2506 C2508 1.394 . S
C2506 H2522 0.931 . S
C2507 C2506 1.391 . S
C2507 C2511 1.376 . S
C2508 C2506 1.394 . S
C2508 C2509 1.369 . S
C2508 C2512 1.531 . S
C2509 C2508 1.369 . S
C2509 C2510 1.410 . S
C2509 C2517 1.503 . S
C2510 C2509 1.410 . S
C2510 C2511 1.392 . S
C2510 C2513 1.511 . S
C2511 C2507 1.376 . S
C2511 C2510 1.392 . S
C2511 H2523 0.929 . S
C2512 C2508 1.531 . S
C2512 H2524 0.960 . S
C2512 H2525 0.962 . S
C2512 H2526 0.960 . S
C2513 C2510 1.511 . S
C2513 H2527 0.961 . S
C2513 H2528 0.961 . S
C2513 H2529 0.961 . S
C2514 C2515 1.370 . S
C2514 C2516 1.363 . S
C2514 H2530 0.931 . S
C2515 C2514 1.370 . S
C2515 C2519 1.408 . S
C2516 C2514 1.363 . S
C2516 C2517 1.370 . S
C2516 C2520 1.524 . S
C2517 C2509 1.503 . S
C2517 C2516 1.370 . S
C2517 C2518 1.403 . S
C2518 C2517 1.403 . S
C2518 C2519 1.404 . S
C2518 C2521 1.539 . S
C2519 C2515 1.408 . S
C2519 C2518 1.404 . S
C2519 H2531 0.930 . S
C2520 C2516 1.524 . S
C2520 H2532 0.956 . S
C2520 H2533 0.961 . S
C2520 H2534 0.961 . S
C2521 C2518 1.539 . S
C2521 H2535 0.958 1_556 S
C2521 H2536 0.961 1_556 S
C2521 H2537 0.960 1_556 S
H2522 C2506 0.931 . S
H2523 C2511 0.929 . S
H2524 C2512 0.960 . S
H2525 C2512 0.962 . S
H2526 C2512 0.960 . S
H2527 C2513 0.961 . S
H2528 C2513 0.961 . S
H2529 C2513 0.961 . S
H2530 C2514 0.931 . S
H2531 C2519 0.930 . S
H2532 C2520 0.956 . S
H2533 C2520 0.961 . S
H2534 C2520 0.961 . S
H2535 C2521 0.958 1_554 S
H2536 C2521 0.961 1_554 S
H2537 C2521 0.960 1_554 S
C2538 C2539 1.391 . S
C2538 C2540 1.394 . S
C2538 H2554 0.931 . S
C2539 C2538 1.391 . S
C2539 C2543 1.376 . S
C2540 C2538 1.394 . S
C2540 C2541 1.369 . S
C2540 C2544 1.531 . S
C2541 C2540 1.369 . S
C2541 C2542 1.410 . S
C2541 C2549 1.503 . S
C2542 C2541 1.410 . S
C2542 C2543 1.392 . S
C2542 C2545 1.511 . S
C2543 C2539 1.376 . S
C2543 C2542 1.392 . S
C2543 H2555 0.929 . S
C2544 C2540 1.531 . S
C2544 H2556 0.960 . S
C2544 H2557 0.962 . S
C2544 H2558 0.960 . S
C2545 C2542 1.511 . S
C2545 H2559 0.961 . S
C2545 H2560 0.961 . S
C2545 H2561 0.961 . S
C2546 C2547 1.370 . S
C2546 C2548 1.363 . S
C2546 H2562 0.931 . S
C2547 C2546 1.370 . S
C2547 C2551 1.408 . S
C2548 C2546 1.363 . S
C2548 C2549 1.370 . S
C2548 C2552 1.524 . S
C2549 C2541 1.503 . S
C2549 C2548 1.370 . S
C2549 C2550 1.403 . S
C2550 C2549 1.403 . S
C2550 C2551 1.404 . S
C2550 C2553 1.539 . S
C2551 C2547 1.408 . S
C2551 C2550 1.404 . S
C2551 H2563 0.930 . S
C2552 C2548 1.524 . S
C2552 H2564 0.956 . S
C2552 H2565 0.961 . S
C2552 H2566 0.961 . S
C2553 C2550 1.539 . S
C2553 H2567 0.958 . S
C2553 H2568 0.961 . S
C2553 H2569 0.960 . S
H2554 C2538 0.931 . S
H2555 C2543 0.929 . S
H2556 C2544 0.960 . S
H2557 C2544 0.962 . S
H2558 C2544 0.960 . S
H2559 C2545 0.961 . S
H2560 C2545 0.961 . S
H2561 C2545 0.961 . S
H2562 C2546 0.931 . S
H2563 C2551 0.930 . S
H2564 C2552 0.956 . S
H2565 C2552 0.961 . S
H2566 C2552 0.961 . S
H2567 C2553 0.958 . S
H2568 C2553 0.961 . S
H2569 C2553 0.960 . S
C2570 C2571 1.391 . S
C2570 C2572 1.394 . S
C2570 H2586 0.931 . S
C2571 C2570 1.391 . S
C2571 C2575 1.376 . S
C2572 C2570 1.394 . S
C2572 C2573 1.369 . S
C2572 C2576 1.531 . S
C2573 C2572 1.369 . S
C2573 C2574 1.410 . S
C2573 C2581 1.503 . S
C2574 C2573 1.410 . S
C2574 C2575 1.392 . S
C2574 C2577 1.511 . S
C2575 C2571 1.376 . S
C2575 C2574 1.392 . S
C2575 H2587 0.929 . S
C2576 C2572 1.531 . S
C2576 H2588 0.960 . S
C2576 H2589 0.962 . S
C2576 H2590 0.960 . S
C2577 C2574 1.511 . S
C2577 H2591 0.961 . S
C2577 H2592 0.961 . S
C2577 H2593 0.961 . S
C2578 C2579 1.370 . S
C2578 C2580 1.363 . S
C2578 H2594 0.931 . S
C2579 C2578 1.370 . S
C2579 C2583 1.408 . S
C2580 C2578 1.363 . S
C2580 C2581 1.370 . S
C2580 C2584 1.524 . S
C2581 C2573 1.503 . S
C2581 C2580 1.370 . S
C2581 C2582 1.403 . S
C2582 C2581 1.403 . S
C2582 C2583 1.404 . S
C2582 C2585 1.539 . S
C2583 C2579 1.408 . S
C2583 C2582 1.404 . S
C2583 H2595 0.930 . S
C2584 C2580 1.524 . S
C2584 H2596 0.956 . S
C2584 H2597 0.961 . S
C2584 H2598 0.961 . S
C2585 C2582 1.539 . S
C2585 H2599 0.958 . S
C2585 H2600 0.961 . S
C2585 H2601 0.960 . S
H2586 C2570 0.931 . S
H2587 C2575 0.929 . S
H2588 C2576 0.960 . S
H2589 C2576 0.962 . S
H2590 C2576 0.960 . S
H2591 C2577 0.961 . S
H2592 C2577 0.961 . S
H2593 C2577 0.961 . S
H2594 C2578 0.931 . S
H2595 C2583 0.930 . S
H2596 C2584 0.956 . S
H2597 C2584 0.961 . S
H2598 C2584 0.961 . S
H2599 C2585 0.958 . S
H2600 C2585 0.961 . S
H2601 C2585 0.960 . S
C2602 C2603 1.391 . S
C2602 C2604 1.394 . S
C2602 H2618 0.931 . S
C2603 C2602 1.391 . S
C2603 C2607 1.376 . S
C2604 C2602 1.394 . S
C2604 C2605 1.369 . S
C2604 C2608 1.531 . S
C2605 C2604 1.369 . S
C2605 C2606 1.410 . S
C2605 C2613 1.503 . S
C2606 C2605 1.410 . S
C2606 C2607 1.392 . S
C2606 C2609 1.511 . S
C2607 C2603 1.376 . S
C2607 C2606 1.392 . S
C2607 H2619 0.929 . S
C2608 C2604 1.531 . S
C2608 H2620 0.960 . S
C2608 H2621 0.962 . S
C2608 H2622 0.960 . S
C2609 C2606 1.511 . S
C2609 H2623 0.961 . S
C2609 H2624 0.961 . S
C2609 H2625 0.961 . S
C2610 C2611 1.370 . S
C2610 C2612 1.363 . S
C2610 H2626 0.931 . S
C2611 C2610 1.370 . S
C2611 C2615 1.408 . S
C2612 C2610 1.363 . S
C2612 C2613 1.370 . S
C2612 C2616 1.524 . S
C2613 C2605 1.503 . S
C2613 C2612 1.370 . S
C2613 C2614 1.403 . S
C2614 C2613 1.403 . S
C2614 C2615 1.404 . S
C2614 C2617 1.539 . S
C2615 C2611 1.408 . S
C2615 C2614 1.404 . S
C2615 H2627 0.930 . S
C2616 C2612 1.524 . S
C2616 H2628 0.956 . S
C2616 H2629 0.961 . S
C2616 H2630 0.961 . S
C2617 C2614 1.539 . S
C2617 H2631 0.958 . S
C2617 H2632 0.961 . S
C2617 H2633 0.960 . S
H2618 C2602 0.931 . S
H2619 C2607 0.929 . S
H2620 C2608 0.960 . S
H2621 C2608 0.962 . S
H2622 C2608 0.960 . S
H2623 C2609 0.961 . S
H2624 C2609 0.961 . S
H2625 C2609 0.961 . S
H2626 C2610 0.931 . S
H2627 C2615 0.930 . S
H2628 C2616 0.956 . S
H2629 C2616 0.961 . S
H2630 C2616 0.961 . S
H2631 C2617 0.958 . S
H2632 C2617 0.961 . S
H2633 C2617 0.960 . S
C2634 C2635 1.391 . S
C2634 C2636 1.394 . S
C2634 H2650 0.931 . S
C2635 C2634 1.391 . S
C2635 C2639 1.376 . S
C2636 C2634 1.394 . S
C2636 C2637 1.369 . S
C2636 C2640 1.531 . S
C2637 C2636 1.369 . S
C2637 C2638 1.410 . S
C2637 C2645 1.503 . S
C2638 C2637 1.410 . S
C2638 C2639 1.392 . S
C2638 C2641 1.511 . S
C2639 C2635 1.376 . S
C2639 C2638 1.392 . S
C2639 H2651 0.929 . S
C2640 C2636 1.531 . S
C2640 H2652 0.960 . S
C2640 H2653 0.962 . S
C2640 H2654 0.960 . S
C2641 C2638 1.511 . S
C2641 H2655 0.961 . S
C2641 H2656 0.961 . S
C2641 H2657 0.961 . S
C2642 C2643 1.370 . S
C2642 C2644 1.363 . S
C2642 H2658 0.931 . S
C2643 C2642 1.370 . S
C2643 C2647 1.408 . S
C2644 C2642 1.363 . S
C2644 C2645 1.370 . S
C2644 C2648 1.524 . S
C2645 C2637 1.503 . S
C2645 C2644 1.370 . S
C2645 C2646 1.403 . S
C2646 C2645 1.403 . S
C2646 C2647 1.404 . S
C2646 C2649 1.539 . S
C2647 C2643 1.408 . S
C2647 C2646 1.404 . S
C2647 H2659 0.930 . S
C2648 C2644 1.524 . S
C2648 H2660 0.956 . S
C2648 H2661 0.961 . S
C2648 H2662 0.961 . S
C2649 C2646 1.539 . S
C2649 H2663 0.958 . S
C2649 H2664 0.961 . S
C2649 H2665 0.960 . S
H2650 C2634 0.931 . S
H2651 C2639 0.929 . S
H2652 C2640 0.960 . S
H2653 C2640 0.962 . S
H2654 C2640 0.960 . S
H2655 C2641 0.961 . S
H2656 C2641 0.961 . S
H2657 C2641 0.961 . S
H2658 C2642 0.931 . S
H2659 C2647 0.930 . S
H2660 C2648 0.956 . S
H2661 C2648 0.961 . S
H2662 C2648 0.961 . S
H2663 C2649 0.958 . S
H2664 C2649 0.961 . S
H2665 C2649 0.960 . S
C2666 C2667 1.391 . S
C2666 C2668 1.394 . S
C2666 H2682 0.931 . S
C2667 C2666 1.391 . S
C2667 C2671 1.376 . S
C2668 C2666 1.394 . S
C2668 C2669 1.369 . S
C2668 C2672 1.531 . S
C2669 C2668 1.369 . S
C2669 C2670 1.410 . S
C2669 C2677 1.503 . S
C2670 C2669 1.410 . S
C2670 C2671 1.392 . S
C2670 C2673 1.511 . S
C2671 C2667 1.376 . S
C2671 C2670 1.392 . S
C2671 H2683 0.929 . S
C2672 C2668 1.531 . S
C2672 H2684 0.960 . S
C2672 H2685 0.962 . S
C2672 H2686 0.960 . S
C2673 C2670 1.511 . S
C2673 H2687 0.961 . S
C2673 H2688 0.961 . S
C2673 H2689 0.961 . S
C2674 C2675 1.370 . S
C2674 C2676 1.363 . S
C2674 H2690 0.931 . S
C2675 C2674 1.370 . S
C2675 C2679 1.408 . S
C2676 C2674 1.363 . S
C2676 C2677 1.370 . S
C2676 C2680 1.524 . S
C2677 C2669 1.503 . S
C2677 C2676 1.370 . S
C2677 C2678 1.403 . S
C2678 C2677 1.403 . S
C2678 C2679 1.404 . S
C2678 C2681 1.539 . S
C2679 C2675 1.408 . S
C2679 C2678 1.404 . S
C2679 H2691 0.930 . S
C2680 C2676 1.524 . S
C2680 H2692 0.956 . S
C2680 H2693 0.961 . S
C2680 H2694 0.961 . S
C2681 C2678 1.539 . S
C2681 H2695 0.958 . S
C2681 H2696 0.961 . S
C2681 H2697 0.960 . S
H2682 C2666 0.931 . S
H2683 C2671 0.929 . S
H2684 C2672 0.960 . S
H2685 C2672 0.962 . S
H2686 C2672 0.960 . S
H2687 C2673 0.961 . S
H2688 C2673 0.961 . S
H2689 C2673 0.961 . S
H2690 C2674 0.931 . S
H2691 C2679 0.930 . S
H2692 C2680 0.956 . S
H2693 C2680 0.961 . S
H2694 C2680 0.961 . S
H2695 C2681 0.958 . S
H2696 C2681 0.961 . S
H2697 C2681 0.960 . S
C2698 C2699 1.391 . S
C2698 C2700 1.394 . S
C2698 H2714 0.931 . S
C2699 C2698 1.391 . S
C2699 C2703 1.376 . S
C2700 C2698 1.394 . S
C2700 C2701 1.369 . S
C2700 C2704 1.531 . S
C2701 C2700 1.369 . S
C2701 C2702 1.410 . S
C2701 C2709 1.503 . S
C2702 C2701 1.410 . S
C2702 C2703 1.392 . S
C2702 C2705 1.511 . S
C2703 C2699 1.376 . S
C2703 C2702 1.392 . S
C2703 H2715 0.929 . S
C2704 C2700 1.531 . S
C2704 H2716 0.960 . S
C2704 H2717 0.962 . S
C2704 H2718 0.960 . S
C2705 C2702 1.511 . S
C2705 H2719 0.961 . S
C2705 H2720 0.961 . S
C2705 H2721 0.961 . S
C2706 C2707 1.370 . S
C2706 C2708 1.363 . S
C2706 H2722 0.931 . S
C2707 C2706 1.370 . S
C2707 C2711 1.408 . S
C2708 C2706 1.363 . S
C2708 C2709 1.370 . S
C2708 C2712 1.524 . S
C2709 C2701 1.503 . S
C2709 C2708 1.370 . S
C2709 C2710 1.403 . S
C2710 C2709 1.403 . S
C2710 C2711 1.404 . S
C2710 C2713 1.539 . S
C2711 C2707 1.408 . S
C2711 C2710 1.404 . S
C2711 H2723 0.930 . S
C2712 C2708 1.524 . S
C2712 H2724 0.956 . S
C2712 H2725 0.961 . S
C2712 H2726 0.961 . S
C2713 C2710 1.539 . S
C2713 H2727 0.958 . S
C2713 H2728 0.961 . S
C2713 H2729 0.960 . S
H2714 C2698 0.931 . S
H2715 C2703 0.929 . S
H2716 C2704 0.960 . S
H2717 C2704 0.962 . S
H2718 C2704 0.960 . S
H2719 C2705 0.961 . S
H2720 C2705 0.961 . S
H2721 C2705 0.961 . S
H2722 C2706 0.931 . S
H2723 C2711 0.930 . S
H2724 C2712 0.956 . S
H2725 C2712 0.961 . S
H2726 C2712 0.961 . S
H2727 C2713 0.958 . S
H2728 C2713 0.961 . S
H2729 C2713 0.960 . S
C2730 C2731 1.391 . S
C2730 C2732 1.389 . S
C2730 H2746 0.931 1_455 S
C2731 C2730 1.391 . S
C2731 C2735 1.376 . S
C2732 C2730 1.389 . S
C2732 C2733 1.368 . S
C2732 C2736 1.536 1_455 S
C2733 C2732 1.368 . S
C2733 C2734 1.410 . S
C2733 C2741 1.503 . S
C2734 C2733 1.410 . S
C2734 C2735 1.392 . S
C2734 C2737 1.511 . S
C2735 C2731 1.376 . S
C2735 C2734 1.392 . S
C2735 H2747 0.929 . S
C2736 C2732 1.536 1_655 S
C2736 H2748 0.960 . S
C2736 H2749 0.962 . S
C2736 H2750 0.960 . S
C2737 C2734 1.511 . S
C2737 H2751 0.961 . S
C2737 H2752 0.961 . S
C2737 H2753 0.961 . S
C2738 C2739 1.370 . S
C2738 C2740 1.363 . S
C2738 H2754 0.931 . S
C2739 C2738 1.370 . S
C2739 C2743 1.408 1_455 S
C2740 C2738 1.363 . S
C2740 C2741 1.370 . S
C2740 C2744 1.524 . S
C2741 C2733 1.503 . S
C2741 C2740 1.370 . S
C2741 C2742 1.403 1_455 S
C2742 C2741 1.403 1_655 S
C2742 C2743 1.404 . S
C2742 C2745 1.539 . S
C2743 C2739 1.408 1_655 S
C2743 C2742 1.404 . S
C2743 H2755 0.930 . S
C2744 C2740 1.524 . S
C2744 H2756 0.956 . S
C2744 H2757 0.961 . S
C2744 H2758 0.961 . S
C2745 C2742 1.539 . S
C2745 H2759 0.958 . S
C2745 H2760 0.961 . S
C2745 H2761 0.960 . S
H2746 C2730 0.931 1_655 S
H2747 C2735 0.929 . S
H2748 C2736 0.960 . S
H2749 C2736 0.962 . S
H2750 C2736 0.960 . S
H2751 C2737 0.961 . S
H2752 C2737 0.961 . S
H2753 C2737 0.961 . S
H2754 C2738 0.931 . S
H2755 C2743 0.930 . S
H2756 C2744 0.956 . S
H2757 C2744 0.961 . S
H2758 C2744 0.961 . S
H2759 C2745 0.958 . S
H2760 C2745 0.961 . S
H2761 C2745 0.960 . S
C2762 C2763 1.391 . S
C2762 C2764 1.394 . S
C2762 H2778 0.931 . S
C2763 C2762 1.391 . S
C2763 C2767 1.376 . S
C2764 C2762 1.394 . S
C2764 C2765 1.369 . S
C2764 C2768 1.531 . S
C2765 C2764 1.369 . S
C2765 C2766 1.410 . S
C2765 C2773 1.503 . S
C2766 C2765 1.410 . S
C2766 C2767 1.392 . S
C2766 C2769 1.511 . S
C2767 C2763 1.376 . S
C2767 C2766 1.392 . S
C2767 H2779 0.929 . S
C2768 C2764 1.531 . S
C2768 H2780 0.960 . S
C2768 H2781 0.962 . S
C2768 H2782 0.960 . S
C2769 C2766 1.511 . S
C2769 H2783 0.961 . S
C2769 H2784 0.961 . S
C2769 H2785 0.961 . S
C2770 C2771 1.370 . S
C2770 C2772 1.363 . S
C2770 H2786 0.931 . S
C2771 C2770 1.370 . S
C2771 C2775 1.408 . S
C2772 C2770 1.363 . S
C2772 C2773 1.370 . S
C2772 C2776 1.524 . S
C2773 C2765 1.503 . S
C2773 C2772 1.370 . S
C2773 C2774 1.403 . S
C2774 C2773 1.403 . S
C2774 C2775 1.404 . S
C2774 C2777 1.539 . S
C2775 C2771 1.408 . S
C2775 C2774 1.404 . S
C2775 H2787 0.930 . S
C2776 C2772 1.524 . S
C2776 H2788 0.956 . S
C2776 H2789 0.961 . S
C2776 H2790 0.961 . S
C2777 C2774 1.539 . S
C2777 H2791 0.958 . S
C2777 H2792 0.961 . S
C2777 H2793 0.960 . S
H2778 C2762 0.931 . S
H2779 C2767 0.929 . S
H2780 C2768 0.960 . S
H2781 C2768 0.962 . S
H2782 C2768 0.960 . S
H2783 C2769 0.961 . S
H2784 C2769 0.961 . S
H2785 C2769 0.961 . S
H2786 C2770 0.931 . S
H2787 C2775 0.930 . S
H2788 C2776 0.956 . S
H2789 C2776 0.961 . S
H2790 C2776 0.961 . S
H2791 C2777 0.958 . S
H2792 C2777 0.961 . S
H2793 C2777 0.960 . S
C2794 C2795 1.391 . S
C2794 C2796 1.394 . S
C2794 H2810 0.931 . S
C2795 C2794 1.391 . S
C2795 C2799 1.376 . S
C2796 C2794 1.394 . S
C2796 C2797 1.369 . S
C2796 C2800 1.531 . S
C2797 C2796 1.369 . S
C2797 C2798 1.410 . S
C2797 C2805 1.503 . S
C2798 C2797 1.410 . S
C2798 C2799 1.392 . S
C2798 C2801 1.511 . S
C2799 C2795 1.376 . S
C2799 C2798 1.392 . S
C2799 H2811 0.929 . S
C2800 C2796 1.531 . S
C2800 H2812 0.960 . S
C2800 H2813 0.962 . S
C2800 H2814 0.960 . S
C2801 C2798 1.511 . S
C2801 H2815 0.889 1_565 S
C2801 H2816 0.962 1_565 S
C2801 H2817 0.961 . S
C2802 C2803 1.370 1_545 S
C2802 C2804 1.363 . S
C2802 H2818 0.931 . S
C2803 C2802 1.370 1_565 S
C2803 C2807 1.408 . S
C2804 C2802 1.363 . S
C2804 C2805 1.370 1_545 S
C2804 C2808 1.524 . S
C2805 C2797 1.503 . S
C2805 C2804 1.370 1_565 S
C2805 C2806 1.403 . S
C2806 C2805 1.403 . S
C2806 C2807 1.404 . S
C2806 C2809 1.539 . S
C2807 C2803 1.408 . S
C2807 C2806 1.404 . S
C2807 H2819 0.930 . S
C2808 C2804 1.524 . S
C2808 H2820 0.956 . S
C2808 H2821 0.961 . S
C2808 H2822 0.961 . S
C2809 C2806 1.539 . S
C2809 H2823 0.958 . S
C2809 H2824 0.961 . S
C2809 H2825 0.960 . S
H2810 C2794 0.931 . S
H2811 C2799 0.929 . S
H2812 C2800 0.960 . S
H2813 C2800 0.962 . S
H2814 C2800 0.960 . S
H2815 C2801 0.889 1_545 S
H2816 C2801 0.962 1_545 S
H2817 C2801 0.961 . S
H2818 C2802 0.931 . S
H2819 C2807 0.930 . S
H2820 C2808 0.956 . S
H2821 C2808 0.961 . S
H2822 C2808 0.961 . S
H2823 C2809 0.958 . S
H2824 C2809 0.961 . S
H2825 C2809 0.960 . S
C2826 C2827 1.391 . S
C2826 C2828 1.394 . S
C2826 H2842 0.931 . S
C2827 C2826 1.391 . S
C2827 C2831 1.376 . S
C2828 C2826 1.394 . S
C2828 C2829 1.369 . S
C2828 C2832 1.531 . S
C2829 C2828 1.369 . S
C2829 C2830 1.410 . S
C2829 C2837 1.503 . S
C2830 C2829 1.410 . S
C2830 C2831 1.392 . S
C2830 C2833 1.511 . S
C2831 C2827 1.376 . S
C2831 C2830 1.392 . S
C2831 H2843 0.929 . S
C2832 C2828 1.531 . S
C2832 H2844 0.929 1_565 S
C2832 H2845 0.962 . S
C2832 H2846 0.960 . S
C2833 C2830 1.511 . S
C2833 H2847 0.961 . S
C2833 H2848 0.961 . S
C2833 H2849 0.961 1_565 S
C2834 C2835 1.370 . S
C2834 C2836 1.363 . S
C2834 H2850 0.931 . S
C2835 C2834 1.370 . S
C2835 C2839 1.408 1_565 S
C2836 C2834 1.363 . S
C2836 C2837 1.370 . S
C2836 C2840 1.524 . S
C2837 C2829 1.503 . S
C2837 C2836 1.370 . S
C2837 C2838 1.403 1_565 S
C2838 C2837 1.403 1_545 S
C2838 C2839 1.404 . S
C2838 C2841 1.539 . S
C2839 C2835 1.408 1_545 S
C2839 C2838 1.404 . S
C2839 H2851 0.930 . S
C2840 C2836 1.524 . S
C2840 H2852 0.956 . S
C2840 H2853 0.961 . S
C2840 H2854 0.961 . S
C2841 C2838 1.539 . S
C2841 H2855 0.958 . S
C2841 H2856 0.961 . S
C2841 H2857 0.960 . S
H2842 C2826 0.931 . S
H2843 C2831 0.929 . S
H2844 C2832 0.929 1_545 S
H2845 C2832 0.962 . S
H2846 C2832 0.960 . S
H2847 C2833 0.961 . S
H2848 C2833 0.961 . S
H2849 C2833 0.961 1_545 S
H2850 C2834 0.931 . S
H2851 C2839 0.930 . S
H2852 C2840 0.956 . S
H2853 C2840 0.961 . S
H2854 C2840 0.961 . S
H2855 C2841 0.958 . S
H2856 C2841 0.961 . S
H2857 C2841 0.960 . S
C2858 C2859 1.391 1_655 S
C2858 C2860 1.394 . S
C2858 H2874 0.931 . S
C2859 C2858 1.391 1_455 S
C2859 C2863 1.376 . S
C2860 C2858 1.394 . S
C2860 C2861 1.369 1_655 S
C2860 C2864 1.531 . S
C2861 C2860 1.369 1_455 S
C2861 C2862 1.410 . S
C2861 C2869 1.503 . S
C2862 C2861 1.410 . S
C2862 C2863 1.392 . S
C2862 C2865 1.511 . S
C2863 C2859 1.376 . S
C2863 C2862 1.392 . S
C2863 H2875 0.929 . S
C2864 C2860 1.531 . S
C2864 H2876 0.960 . S
C2864 H2877 0.962 . S
C2864 H2878 0.960 . S
C2865 C2862 1.511 . S
C2865 H2879 0.961 . S
C2865 H2880 0.961 . S
C2865 H2881 0.961 . S
C2866 C2867 1.370 . S
C2866 C2868 1.363 . S
C2866 H2882 0.931 . S
C2867 C2866 1.370 . S
C2867 C2871 1.447 . S
C2868 C2866 1.363 . S
C2868 C2869 1.370 . S
C2868 C2872 1.524 . S
C2869 C2861 1.503 . S
C2869 C2868 1.370 . S
C2869 C2870 1.403 . S
C2870 C2869 1.403 . S
C2870 C2871 1.373 . S
C2870 C2873 1.539 . S
C2871 C2867 1.447 . S
C2871 C2870 1.373 . S
C2871 H2883 0.934 1_455 S
C2872 C2868 1.524 . S
C2872 H2884 0.963 . S
C2872 H2885 0.961 . S
C2872 H2886 0.961 . S
C2873 C2870 1.539 . S
C2873 H2887 0.958 1_455 S
C2873 H2888 0.961 . S
C2873 H2889 0.960 . S
H2874 C2858 0.931 . S
H2875 C2863 0.929 . S
H2876 C2864 0.960 . S
H2877 C2864 0.962 . S
H2878 C2864 0.960 . S
H2879 C2865 0.961 . S
H2880 C2865 0.961 . S
H2881 C2865 0.961 . S
H2882 C2866 0.931 . S
H2883 C2871 0.934 1_655 S
H2884 C2872 0.963 . S
H2885 C2872 0.961 . S
H2886 C2872 0.961 . S
H2887 C2873 0.958 1_655 S
H2888 C2873 0.961 . S
H2889 C2873 0.960 . S
C2890 C2891 1.391 . S
C2890 C2892 1.394 . S
C2890 H2906 0.931 . S
C2891 C2890 1.391 . S
C2891 C2895 1.376 . S
C2892 C2890 1.394 . S
C2892 C2893 1.369 . S
C2892 C2896 1.531 . S
C2893 C2892 1.369 . S
C2893 C2894 1.410 . S
C2893 C2901 1.503 . S
C2894 C2893 1.410 . S
C2894 C2895 1.392 . S
C2894 C2897 1.511 . S
C2895 C2891 1.376 . S
C2895 C2894 1.392 . S
C2895 H2907 0.929 . S
C2896 C2892 1.531 . S
C2896 H2908 0.960 . S
C2896 H2909 0.962 . S
C2896 H2910 0.960 . S
C2897 C2894 1.511 . S
C2897 H2911 0.961 . S
C2897 H2912 0.961 . S
C2897 H2913 0.961 . S
C2898 C2899 1.370 . S
C2898 C2900 1.363 . S
C2898 H2914 0.931 . S
C2899 C2898 1.370 . S
C2899 C2903 1.408 . S
C2900 C2898 1.363 . S
C2900 C2901 1.370 . S
C2900 C2904 1.524 . S
C2901 C2893 1.503 . S
C2901 C2900 1.370 . S
C2901 C2902 1.403 . S
C2902 C2901 1.403 . S
C2902 C2903 1.404 . S
C2902 C2905 1.539 . S
C2903 C2899 1.408 . S
C2903 C2902 1.404 . S
C2903 H2915 0.930 . S
C2904 C2900 1.524 . S
C2904 H2916 0.956 . S
C2904 H2917 0.961 . S
C2904 H2918 0.961 . S
C2905 C2902 1.539 . S
C2905 H2919 0.958 . S
C2905 H2920 0.961 . S
C2905 H2921 0.960 . S
H2906 C2890 0.931 . S
H2907 C2895 0.929 . S
H2908 C2896 0.960 . S
H2909 C2896 0.962 . S
H2910 C2896 0.960 . S
H2911 C2897 0.961 . S
H2912 C2897 0.961 . S
H2913 C2897 0.961 . S
H2914 C2898 0.931 . S
H2915 C2903 0.930 . S
H2916 C2904 0.956 . S
H2917 C2904 0.961 . S
H2918 C2904 0.961 . S
H2919 C2905 0.958 . S
H2920 C2905 0.961 . S
H2921 C2905 0.960 . S
C2922 C2923 1.391 . S
C2922 C2924 1.394 . S
C2922 H2938 0.931 . S
C2923 C2922 1.391 . S
C2923 C2927 1.376 . S
C2924 C2922 1.394 . S
C2924 C2925 1.369 . S
C2924 C2928 1.531 . S
C2925 C2924 1.369 . S
C2925 C2926 1.410 . S
C2925 C2933 1.503 . S
C2926 C2925 1.410 . S
C2926 C2927 1.392 . S
C2926 C2929 1.511 . S
C2927 C2923 1.376 . S
C2927 C2926 1.392 . S
C2927 H2939 0.929 . S
C2928 C2924 1.531 . S
C2928 H2940 0.960 . S
C2928 H2941 0.962 . S
C2928 H2942 0.960 . S
C2929 C2926 1.511 . S
C2929 H2943 0.961 . S
C2929 H2944 0.961 . S
C2929 H2945 0.961 . S
C2930 C2931 1.370 . S
C2930 C2932 1.363 . S
C2930 H2946 0.931 . S
C2931 C2930 1.370 . S
C2931 C2935 1.408 . S
C2932 C2930 1.363 . S
C2932 C2933 1.370 . S
C2932 C2936 1.524 . S
C2933 C2925 1.503 . S
C2933 C2932 1.370 . S
C2933 C2934 1.403 . S
C2934 C2933 1.403 . S
C2934 C2935 1.404 . S
C2934 C2937 1.539 . S
C2935 C2931 1.408 . S
C2935 C2934 1.404 . S
C2935 H2947 0.930 . S
C2936 C2932 1.524 . S
C2936 H2948 0.956 . S
C2936 H2949 0.961 . S
C2936 H2950 0.961 . S
C2937 C2934 1.539 . S
C2937 H2951 0.958 . S
C2937 H2952 0.961 . S
C2937 H2953 0.960 . S
H2938 C2922 0.931 . S
H2939 C2927 0.929 . S
H2940 C2928 0.960 . S
H2941 C2928 0.962 . S
H2942 C2928 0.960 . S
H2943 C2929 0.961 . S
H2944 C2929 0.961 . S
H2945 C2929 0.961 . S
H2946 C2930 0.931 . S
H2947 C2935 0.930 . S
H2948 C2936 0.956 . S
H2949 C2936 0.961 . S
H2950 C2936 0.961 . S
H2951 C2937 0.958 . S
H2952 C2937 0.961 . S
H2953 C2937 0.960 . S
C2954 C2955 1.391 . S
C2954 C2956 1.394 . S
C2954 H2970 0.931 . S
C2955 C2954 1.391 . S
C2955 C2959 1.376 . S
C2956 C2954 1.394 . S
C2956 C2957 1.369 . S
C2956 C2960 1.531 . S
C2957 C2956 1.369 . S
C2957 C2958 1.410 . S
C2957 C2965 1.503 . S
C2958 C2957 1.410 . S
C2958 C2959 1.392 . S
C2958 C2961 1.511 . S
C2959 C2955 1.376 . S
C2959 C2958 1.392 . S
C2959 H2971 0.929 . S
C2960 C2956 1.531 . S
C2960 H2972 0.960 . S
C2960 H2973 0.962 . S
C2960 H2974 0.960 . S
C2961 C2958 1.511 . S
C2961 H2975 0.961 . S
C2961 H2976 0.961 . S
C2961 H2977 0.961 . S
C2962 C2963 1.370 . S
C2962 C2964 1.363 . S
C2962 H2978 0.931 . S
C2963 C2962 1.370 . S
C2963 C2967 1.408 . S
C2964 C2962 1.363 . S
C2964 C2965 1.370 . S
C2964 C2968 1.524 . S
C2965 C2957 1.503 . S
C2965 C2964 1.370 . S
C2965 C2966 1.403 . S
C2966 C2965 1.403 . S
C2966 C2967 1.404 . S
C2966 C2969 1.539 . S
C2967 C2963 1.408 . S
C2967 C2966 1.404 . S
C2967 H2979 0.930 . S
C2968 C2964 1.524 . S
C2968 H2980 0.956 . S
C2968 H2981 0.961 . S
C2968 H2982 0.961 . S
C2969 C2966 1.539 . S
C2969 H2983 0.958 . S
C2969 H2984 0.961 . S
C2969 H2985 0.960 . S
H2970 C2954 0.931 . S
H2971 C2959 0.929 . S
H2972 C2960 0.960 . S
H2973 C2960 0.962 . S
H2974 C2960 0.960 . S
H2975 C2961 0.961 . S
H2976 C2961 0.961 . S
H2977 C2961 0.961 . S
H2978 C2962 0.931 . S
H2979 C2967 0.930 . S
H2980 C2968 0.956 . S
H2981 C2968 0.961 . S
H2982 C2968 0.961 . S
H2983 C2969 0.958 . S
H2984 C2969 0.961 . S
H2985 C2969 0.960 . S
C2986 C2987 1.391 . S
C2986 C2988 1.394 . S
C2986 H3002 0.931 . S
C2987 C2986 1.391 . S
C2987 C2991 1.376 . S
C2988 C2986 1.394 . S
C2988 C2989 1.369 . S
C2988 C2992 1.531 . S
C2989 C2988 1.369 . S
C2989 C2990 1.410 . S
C2989 C2997 1.503 . S
C2990 C2989 1.410 . S
C2990 C2991 1.392 . S
C2990 C2993 1.511 . S
C2991 C2987 1.376 . S
C2991 C2990 1.392 . S
C2991 H3003 0.929 . S
C2992 C2988 1.531 . S
C2992 H3004 0.960 . S
C2992 H3005 0.962 . S
C2992 H3006 0.960 . S
C2993 C2990 1.511 . S
C2993 H3007 0.961 . S
C2993 H3008 0.961 . S
C2993 H3009 0.961 . S
C2994 C2995 1.370 . S
C2994 C2996 1.363 . S
C2994 H3010 0.931 . S
C2995 C2994 1.370 . S
C2995 C2999 1.408 . S
C2996 C2994 1.363 . S
C2996 C2997 1.370 . S
C2996 C3000 1.524 . S
C2997 C2989 1.503 . S
C2997 C2996 1.370 . S
C2997 C2998 1.403 . S
C2998 C2997 1.403 . S
C2998 C2999 1.404 . S
C2998 C3001 1.539 . S
C2999 C2995 1.408 . S
C2999 C2998 1.404 . S
C2999 H3011 0.930 . S
C3000 C2996 1.524 . S
C3000 H3012 0.956 . S
C3000 H3013 0.961 . S
C3000 H3014 0.961 . S
C3001 C2998 1.539 . S
C3001 H3015 0.958 . S
C3001 H3016 0.961 . S
C3001 H3017 0.960 . S
H3002 C2986 0.931 . S
H3003 C2991 0.929 . S
H3004 C2992 0.960 . S
H3005 C2992 0.962 . S
H3006 C2992 0.960 . S
H3007 C2993 0.961 . S
H3008 C2993 0.961 . S
H3009 C2993 0.961 . S
H3010 C2994 0.931 . S
H3011 C2999 0.930 . S
H3012 C3000 0.956 . S
H3013 C3000 0.961 . S
H3014 C3000 0.961 . S
H3015 C3001 0.958 . S
H3016 C3001 0.961 . S
H3017 C3001 0.960 . S
C3018 C3019 1.372 1_565 S
C3018 C3020 1.405 . S
C3018 H3034 0.938 . S
C3019 C3018 1.372 1_545 S
C3019 C3023 1.376 . S
C3020 C3018 1.405 . S
C3020 C3021 1.369 1_565 S
C3020 C3024 1.531 . S
C3021 C3020 1.369 1_545 S
C3021 C3022 1.410 . S
C3021 C3029 1.503 . S
C3022 C3021 1.410 . S
C3022 C3023 1.392 . S
C3022 C3025 1.511 . S
C3023 C3019 1.376 . S
C3023 C3022 1.392 . S
C3023 H3035 0.929 . S
C3024 C3020 1.531 . S
C3024 H3036 0.960 . S
C3024 H3037 0.962 . S
C3024 H3038 0.960 . S
C3025 C3022 1.511 . S
C3025 H3039 0.961 . S
C3025 H3040 0.961 . S
C3025 H3041 0.961 . S
C3026 C3027 1.370 . S
C3026 C3028 1.363 . S
C3026 H3042 0.931 . S
C3027 C3026 1.370 . S
C3027 C3031 1.408 . S
C3028 C3026 1.363 . S
C3028 C3029 1.370 . S
C3028 C3032 1.524 . S
C3029 C3021 1.503 . S
C3029 C3028 1.370 . S
C3029 C3030 1.403 . S
C3030 C3029 1.403 . S
C3030 C3031 1.404 . S
C3030 C3033 1.539 . S
C3031 C3027 1.408 . S
C3031 C3030 1.404 . S
C3031 H3043 0.930 . S
C3032 C3028 1.524 . S
C3032 H3044 0.956 . S
C3032 H3045 0.961 . S
C3032 H3046 0.961 . S
C3033 C3030 1.539 . S
C3033 H3047 0.958 1_545 S
C3033 H3048 0.961 . S
C3033 H3049 0.960 . S
H3034 C3018 0.938 . S
H3035 C3023 0.929 . S
H3036 C3024 0.960 . S
H3037 C3024 0.962 . S
H3038 C3024 0.960 . S
H3039 C3025 0.961 . S
H3040 C3025 0.961 . S
H3041 C3025 0.961 . S
H3042 C3026 0.931 . S
H3043 C3031 0.930 . S
H3044 C3032 0.956 . S
H3045 C3032 0.961 . S
H3046 C3032 0.961 . S
H3047 C3033 0.958 1_565 S
H3048 C3033 0.961 . S
H3049 C3033 0.960 . S
C3050 C3051 1.391 . S
C3050 C3052 1.394 . S
C3050 H3066 0.931 . S
C3051 C3050 1.391 . S
C3051 C3055 1.373 . S
C3052 C3050 1.394 . S
C3052 C3053 1.369 . S
C3052 C3056 1.531 . S
C3053 C3052 1.369 . S
C3053 C3054 1.370 1_655 S
C3053 C3061 1.503 . S
C3054 C3053 1.370 1_455 S
C3054 C3055 1.409 1_455 S
C3054 C3057 1.532 . S
C3055 C3051 1.373 . S
C3055 C3054 1.409 1_655 S
C3055 H3067 0.935 1_655 S
C3056 C3052 1.531 . S
C3056 H3068 0.960 . S
C3056 H3069 0.962 . S
C3056 H3070 0.960 . S
C3057 C3054 1.532 . S
C3057 H3071 0.961 . S
C3057 H3072 0.961 . S
C3057 H3073 0.961 . S
C3058 C3059 1.370 1_455 S
C3058 C3060 1.363 . S
C3058 H3074 0.931 . S
C3059 C3058 1.370 1_655 S
C3059 C3063 1.408 . S
C3060 C3058 1.363 . S
C3060 C3061 1.370 1_455 S
C3060 C3064 1.524 . S
C3061 C3053 1.503 . S
C3061 C3060 1.370 1_655 S
C3061 C3062 1.403 . S
C3062 C3061 1.403 . S
C3062 C3063 1.404 . S
C3062 C3065 1.539 . S
C3063 C3059 1.408 . S
C3063 C3062 1.404 . S
C3063 H3075 0.930 . S
C3064 C3060 1.524 . S
C3064 H3076 0.956 . S
C3064 H3077 0.961 . S
C3064 H3078 0.961 . S
C3065 C3062 1.539 . S
C3065 H3079 0.958 . S
C3065 H3080 0.961 . S
C3065 H3081 0.960 . S
H3066 C3050 0.931 . S
H3067 C3055 0.935 1_455 S
H3068 C3056 0.960 . S
H3069 C3056 0.962 . S
H3070 C3056 0.960 . S
H3071 C3057 0.961 . S
H3072 C3057 0.961 . S
H3073 C3057 0.961 . S
H3074 C3058 0.931 . S
H3075 C3063 0.930 . S
H3076 C3064 0.956 . S
H3077 C3064 0.961 . S
H3078 C3064 0.961 . S
H3079 C3065 0.958 . S
H3080 C3065 0.961 . S
H3081 C3065 0.960 . S
C3082 C3083 1.391 . S
C3082 C3084 1.394 . S
C3082 H3098 0.931 . S
C3083 C3082 1.391 . S
C3083 C3087 1.376 . S
C3084 C3082 1.394 . S
C3084 C3085 1.369 . S
C3084 C3088 1.531 . S
C3085 C3084 1.369 . S
C3085 C3086 1.410 . S
C3085 C3093 1.503 . S
C3086 C3085 1.410 . S
C3086 C3087 1.392 . S
C3086 C3089 1.511 . S
C3087 C3083 1.376 . S
C3087 C3086 1.392 . S
C3087 H3099 0.929 . S
C3088 C3084 1.531 . S
C3088 H3100 0.960 . S
C3088 H3101 0.962 . S
C3088 H3102 0.960 . S
C3089 C3086 1.511 . S
C3089 H3103 0.961 . S
C3089 H3104 0.961 . S
C3089 H3105 0.961 . S
C3090 C3091 1.370 . S
C3090 C3092 1.363 . S
C3090 H3106 0.931 . S
C3091 C3090 1.370 . S
C3091 C3095 1.408 . S
C3092 C3090 1.363 . S
C3092 C3093 1.370 . S
C3092 C3096 1.524 . S
C3093 C3085 1.503 . S
C3093 C3092 1.370 . S
C3093 C3094 1.403 . S
C3094 C3093 1.403 . S
C3094 C3095 1.404 . S
C3094 C3097 1.539 . S
C3095 C3091 1.408 . S
C3095 C3094 1.404 . S
C3095 H3107 0.930 . S
C3096 C3092 1.524 . S
C3096 H3108 0.956 . S
C3096 H3109 0.961 . S
C3096 H3110 0.961 . S
C3097 C3094 1.539 . S
C3097 H3111 0.958 . S
C3097 H3112 0.961 . S
C3097 H3113 0.960 . S
H3098 C3082 0.931 . S
H3099 C3087 0.929 . S
H3100 C3088 0.960 . S
H3101 C3088 0.962 . S
H3102 C3088 0.960 . S
H3103 C3089 0.961 . S
H3104 C3089 0.961 . S
H3105 C3089 0.961 . S
H3106 C3090 0.931 . S
H3107 C3095 0.930 . S
H3108 C3096 0.956 . S
H3109 C3096 0.961 . S
H3110 C3096 0.961 . S
H3111 C3097 0.958 . S
H3112 C3097 0.961 . S
H3113 C3097 0.960 . S
C3114 C3115 1.391 . S
C3114 C3116 1.394 . S
C3114 H3130 0.931 . S
C3115 C3114 1.391 . S
C3115 C3119 1.376 . S
C3116 C3114 1.394 . S
C3116 C3117 1.369 . S
C3116 C3120 1.531 . S
C3117 C3116 1.369 . S
C3117 C3118 1.410 . S
C3117 C3125 1.503 . S
C3118 C3117 1.410 . S
C3118 C3119 1.392 . S
C3118 C3121 1.511 . S
C3119 C3115 1.376 . S
C3119 C3118 1.392 . S
C3119 H3131 0.929 . S
C3120 C3116 1.531 . S
C3120 H3132 0.960 . S
C3120 H3133 0.962 . S
C3120 H3134 0.960 . S
C3121 C3118 1.511 . S
C3121 H3135 0.961 . S
C3121 H3136 0.961 . S
C3121 H3137 0.961 . S
C3122 C3123 1.370 . S
C3122 C3124 1.363 . S
C3122 H3138 0.931 . S
C3123 C3122 1.370 . S
C3123 C3127 1.408 . S
C3124 C3122 1.363 . S
C3124 C3125 1.370 . S
C3124 C3128 1.524 . S
C3125 C3117 1.503 . S
C3125 C3124 1.370 . S
C3125 C3126 1.403 . S
C3126 C3125 1.403 . S
C3126 C3127 1.404 . S
C3126 C3129 1.539 . S
C3127 C3123 1.408 . S
C3127 C3126 1.404 . S
C3127 H3139 0.930 . S
C3128 C3124 1.524 . S
C3128 H3140 0.956 . S
C3128 H3141 0.961 . S
C3128 H3142 0.961 . S
C3129 C3126 1.539 . S
C3129 H3143 0.958 . S
C3129 H3144 0.961 . S
C3129 H3145 0.960 . S
H3130 C3114 0.931 . S
H3131 C3119 0.929 . S
H3132 C3120 0.960 . S
H3133 C3120 0.962 . S
H3134 C3120 0.960 . S
H3135 C3121 0.961 . S
H3136 C3121 0.961 . S
H3137 C3121 0.961 . S
H3138 C3122 0.931 . S
H3139 C3127 0.930 . S
H3140 C3128 0.956 . S
H3141 C3128 0.961 . S
H3142 C3128 0.961 . S
H3143 C3129 0.958 . S
H3144 C3129 0.961 . S
H3145 C3129 0.960 . S
C3146 C3147 1.391 . S
C3146 C3148 1.394 . S
C3146 H3162 0.931 . S
C3147 C3146 1.391 . S
C3147 C3151 1.376 . S
C3148 C3146 1.394 . S
C3148 C3149 1.369 . S
C3148 C3152 1.531 . S
C3149 C3148 1.369 . S
C3149 C3150 1.410 . S
C3149 C3157 1.503 . S
C3150 C3149 1.410 . S
C3150 C3151 1.392 . S
C3150 C3153 1.511 . S
C3151 C3147 1.376 . S
C3151 C3150 1.392 . S
C3151 H3163 0.929 . S
C3152 C3148 1.531 . S
C3152 H3164 0.960 . S
C3152 H3165 0.962 . S
C3152 H3166 0.960 . S
C3153 C3150 1.511 . S
C3153 H3167 0.961 . S
C3153 H3168 0.961 . S
C3153 H3169 0.961 . S
C3154 C3155 1.370 . S
C3154 C3156 1.363 . S
C3154 H3170 0.931 . S
C3155 C3154 1.370 . S
C3155 C3159 1.408 . S
C3156 C3154 1.363 . S
C3156 C3157 1.370 . S
C3156 C3160 1.524 . S
C3157 C3149 1.503 . S
C3157 C3156 1.370 . S
C3157 C3158 1.403 . S
C3158 C3157 1.403 . S
C3158 C3159 1.404 . S
C3158 C3161 1.539 . S
C3159 C3155 1.408 . S
C3159 C3158 1.404 . S
C3159 H3171 0.930 . S
C3160 C3156 1.524 . S
C3160 H3172 0.956 . S
C3160 H3173 0.961 . S
C3160 H3174 0.961 . S
C3161 C3158 1.539 . S
C3161 H3175 0.958 . S
C3161 H3176 0.961 . S
C3161 H3177 0.960 . S
H3162 C3146 0.931 . S
H3163 C3151 0.929 . S
H3164 C3152 0.960 . S
H3165 C3152 0.962 . S
H3166 C3152 0.960 . S
H3167 C3153 0.961 . S
H3168 C3153 0.961 . S
H3169 C3153 0.961 . S
H3170 C3154 0.931 . S
H3171 C3159 0.930 . S
H3172 C3160 0.956 . S
H3173 C3160 0.961 . S
H3174 C3160 0.961 . S
H3175 C3161 0.958 . S
H3176 C3161 0.961 . S
H3177 C3161 0.960 . S
C3178 C3179 1.391 . S
C3178 C3180 1.394 . S
C3178 H3194 0.931 . S
C3179 C3178 1.391 . S
C3179 C3183 1.376 . S
C3180 C3178 1.394 . S
C3180 C3181 1.369 . S
C3180 C3184 1.531 . S
C3181 C3180 1.369 . S
C3181 C3182 1.410 . S
C3181 C3189 1.503 . S
C3182 C3181 1.410 . S
C3182 C3183 1.392 . S
C3182 C3185 1.511 . S
C3183 C3179 1.376 . S
C3183 C3182 1.392 . S
C3183 H3195 0.929 . S
C3184 C3180 1.531 . S
C3184 H3196 0.960 . S
C3184 H3197 0.962 . S
C3184 H3198 0.960 . S
C3185 C3182 1.511 . S
C3185 H3199 0.961 . S
C3185 H3200 0.961 . S
C3185 H3201 0.961 . S
C3186 C3187 1.370 . S
C3186 C3188 1.363 . S
C3186 H3202 0.931 . S
C3187 C3186 1.370 . S
C3187 C3191 1.408 . S
C3188 C3186 1.363 . S
C3188 C3189 1.370 . S
C3188 C3192 1.524 . S
C3189 C3181 1.503 . S
C3189 C3188 1.370 . S
C3189 C3190 1.403 . S
C3190 C3189 1.403 . S
C3190 C3191 1.404 . S
C3190 C3193 1.539 . S
C3191 C3187 1.408 . S
C3191 C3190 1.404 . S
C3191 H3203 0.930 . S
C3192 C3188 1.524 . S
C3192 H3204 0.956 . S
C3192 H3205 0.961 . S
C3192 H3206 0.961 . S
C3193 C3190 1.539 . S
C3193 H3207 0.958 . S
C3193 H3208 0.961 . S
C3193 H3209 0.960 . S
H3194 C3178 0.931 . S
H3195 C3183 0.929 . S
H3196 C3184 0.960 . S
H3197 C3184 0.962 . S
H3198 C3184 0.960 . S
H3199 C3185 0.961 . S
H3200 C3185 0.961 . S
H3201 C3185 0.961 . S
H3202 C3186 0.931 . S
H3203 C3191 0.930 . S
H3204 C3192 0.956 . S
H3205 C3192 0.961 . S
H3206 C3192 0.961 . S
H3207 C3193 0.958 . S
H3208 C3193 0.961 . S
H3209 C3193 0.960 . S
C3210 C3211 1.391 . S
C3210 C3212 1.394 . S
C3210 H3226 0.931 . S
C3211 C3210 1.391 . S
C3211 C3215 1.376 . S
C3212 C3210 1.394 . S
C3212 C3213 1.369 . S
C3212 C3216 1.531 . S
C3213 C3212 1.369 . S
C3213 C3214 1.410 . S
C3213 C3221 1.503 . S
C3214 C3213 1.410 . S
C3214 C3215 1.392 . S
C3214 C3217 1.511 . S
C3215 C3211 1.376 . S
C3215 C3214 1.392 . S
C3215 H3227 0.929 . S
C3216 C3212 1.531 . S
C3216 H3228 0.960 . S
C3216 H3229 0.962 . S
C3216 H3230 0.960 . S
C3217 C3214 1.511 . S
C3217 H3231 0.961 . S
C3217 H3232 0.961 . S
C3217 H3233 0.961 . S
C3218 C3219 1.370 . S
C3218 C3220 1.363 . S
C3218 H3234 0.931 . S
C3219 C3218 1.370 . S
C3219 C3223 1.408 . S
C3220 C3218 1.363 . S
C3220 C3221 1.370 . S
C3220 C3224 1.524 . S
C3221 C3213 1.503 . S
C3221 C3220 1.370 . S
C3221 C3222 1.403 . S
C3222 C3221 1.403 . S
C3222 C3223 1.404 . S
C3222 C3225 1.539 . S
C3223 C3219 1.408 . S
C3223 C3222 1.404 . S
C3223 H3235 0.930 . S
C3224 C3220 1.524 . S
C3224 H3236 0.956 . S
C3224 H3237 0.961 . S
C3224 H3238 0.961 . S
C3225 C3222 1.539 . S
C3225 H3239 0.958 . S
C3225 H3240 0.961 . S
C3225 H3241 0.960 . S
H3226 C3210 0.931 . S
H3227 C3215 0.929 . S
H3228 C3216 0.960 . S
H3229 C3216 0.962 . S
H3230 C3216 0.960 . S
H3231 C3217 0.961 . S
H3232 C3217 0.961 . S
H3233 C3217 0.961 . S
H3234 C3218 0.931 . S
H3235 C3223 0.930 . S
H3236 C3224 0.956 . S
H3237 C3224 0.961 . S
H3238 C3224 0.961 . S
H3239 C3225 0.958 . S
H3240 C3225 0.961 . S
H3241 C3225 0.960 . S
C3242 C3243 1.391 . S
C3242 C3244 1.394 . S
C3242 H3258 0.931 . S
C3243 C3242 1.391 . S
C3243 C3247 1.376 . S
C3244 C3242 1.394 . S
C3244 C3245 1.369 . S
C3244 C3248 1.531 . S
C3245 C3244 1.369 . S
C3245 C3246 1.410 . S
C3245 C3253 1.503 . S
C3246 C3245 1.410 . S
C3246 C3247 1.392 . S
C3246 C3249 1.511 . S
C3247 C3243 1.376 . S
C3247 C3246 1.392 . S
C3247 H3259 0.929 . S
C3248 C3244 1.531 . S
C3248 H3260 0.960 . S
C3248 H3261 0.962 . S
C3248 H3262 0.960 . S
C3249 C3246 1.511 . S
C3249 H3263 0.961 . S
C3249 H3264 0.961 . S
C3249 H3265 0.961 . S
C3250 C3251 1.370 . S
C3250 C3252 1.363 . S
C3250 H3266 0.931 . S
C3251 C3250 1.370 . S
C3251 C3255 1.408 . S
C3252 C3250 1.363 . S
C3252 C3253 1.370 . S
C3252 C3256 1.524 . S
C3253 C3245 1.503 . S
C3253 C3252 1.370 . S
C3253 C3254 1.403 . S
C3254 C3253 1.403 . S
C3254 C3255 1.404 . S
C3254 C3257 1.539 . S
C3255 C3251 1.408 . S
C3255 C3254 1.404 . S
C3255 H3267 0.930 . S
C3256 C3252 1.524 . S
C3256 H3268 0.956 . S
C3256 H3269 0.961 . S
C3256 H3270 0.961 . S
C3257 C3254 1.539 . S
C3257 H3271 0.958 . S
C3257 H3272 0.961 . S
C3257 H3273 0.960 . S
H3258 C3242 0.931 . S
H3259 C3247 0.929 . S
H3260 C3248 0.960 . S
H3261 C3248 0.962 . S
H3262 C3248 0.960 . S
H3263 C3249 0.961 . S
H3264 C3249 0.961 . S
H3265 C3249 0.961 . S
H3266 C3250 0.931 . S
H3267 C3255 0.930 . S
H3268 C3256 0.956 . S
H3269 C3256 0.961 . S
H3270 C3256 0.961 . S
H3271 C3257 0.958 . S
H3272 C3257 0.961 . S
H3273 C3257 0.960 . S
C3274 C3275 1.391 . S
C3274 C3276 1.394 . S
C3274 H3290 0.931 . S
C3275 C3274 1.391 . S
C3275 C3279 1.376 . S
C3276 C3274 1.394 . S
C3276 C3277 1.369 . S
C3276 C3280 1.531 . S
C3277 C3276 1.369 . S
C3277 C3278 1.410 . S
C3277 C3285 1.503 . S
C3278 C3277 1.410 . S
C3278 C3279 1.392 . S
C3278 C3281 1.511 . S
C3279 C3275 1.376 . S
C3279 C3278 1.392 . S
C3279 H3291 0.929 . S
C3280 C3276 1.531 . S
C3280 H3292 0.960 . S
C3280 H3293 0.962 . S
C3280 H3294 0.960 . S
C3281 C3278 1.511 . S
C3281 H3295 0.961 . S
C3281 H3296 0.961 . S
C3281 H3297 0.961 . S
C3282 C3283 1.370 . S
C3282 C3284 1.363 . S
C3282 H3298 0.931 . S
C3283 C3282 1.370 . S
C3283 C3287 1.408 . S
C3284 C3282 1.363 . S
C3284 C3285 1.370 . S
C3284 C3288 1.524 . S
C3285 C3277 1.503 . S
C3285 C3284 1.370 . S
C3285 C3286 1.403 . S
C3286 C3285 1.403 . S
C3286 C3287 1.404 . S
C3286 C3289 1.539 . S
C3287 C3283 1.408 . S
C3287 C3286 1.404 . S
C3287 H3299 0.930 . S
C3288 C3284 1.524 . S
C3288 H3300 0.956 . S
C3288 H3301 0.961 . S
C3288 H3302 0.961 . S
C3289 C3286 1.539 . S
C3289 H3303 0.958 . S
C3289 H3304 0.961 . S
C3289 H3305 0.960 . S
H3290 C3274 0.931 . S
H3291 C3279 0.929 . S
H3292 C3280 0.960 . S
H3293 C3280 0.962 . S
H3294 C3280 0.960 . S
H3295 C3281 0.961 . S
H3296 C3281 0.961 . S
H3297 C3281 0.961 . S
H3298 C3282 0.931 . S
H3299 C3287 0.930 . S
H3300 C3288 0.956 . S
H3301 C3288 0.961 . S
H3302 C3288 0.961 . S
H3303 C3289 0.958 . S
H3304 C3289 0.961 . S
H3305 C3289 0.960 . S
C3306 C3307 1.391 . S
C3306 C3308 1.394 . S
C3306 H3322 0.931 . S
C3307 C3306 1.391 . S
C3307 C3311 1.376 . S
C3308 C3306 1.394 . S
C3308 C3309 1.369 . S
C3308 C3312 1.531 . S
C3309 C3308 1.369 . S
C3309 C3310 1.436 . S
C3309 C3317 1.503 . S
C3310 C3309 1.436 . S
C3310 C3311 1.428 . S
C3310 C3313 1.453 1_655 S
C3311 C3307 1.376 . S
C3311 C3310 1.428 . S
C3311 H3323 0.929 1_655 S
C3312 C3308 1.531 . S
C3312 H3324 0.960 . S
C3312 H3325 0.962 . S
C3312 H3326 0.960 . S
C3313 C3310 1.453 1_455 S
C3313 H3327 0.961 . S
C3313 H3328 0.961 . S
C3313 H3329 0.961 . S
C3314 C3315 1.370 . S
C3314 C3316 1.363 . S
C3314 H3330 0.931 1_655 S
C3315 C3314 1.370 . S
C3315 C3319 1.408 . S
C3316 C3314 1.363 . S
C3316 C3317 1.370 . S
C3316 C3320 1.506 . S
C3317 C3309 1.503 . S
C3317 C3316 1.370 . S
C3317 C3318 1.403 . S
C3318 C3317 1.403 . S
C3318 C3319 1.404 . S
C3318 C3321 1.539 . S
C3319 C3315 1.408 . S
C3319 C3318 1.404 . S
C3319 H3331 0.930 . S
C3320 C3316 1.506 . S
C3320 H3332 1.026 . S
C3320 H3333 0.946 1_655 S
C3320 H3334 0.929 1_655 S
C3321 C3318 1.539 . S
C3321 H3335 0.958 . S
C3321 H3336 0.961 . S
C3321 H3337 0.960 . S
H3322 C3306 0.931 . S
H3323 C3311 0.929 1_455 S
H3324 C3312 0.960 . S
H3325 C3312 0.962 . S
H3326 C3312 0.960 . S
H3327 C3313 0.961 . S
H3328 C3313 0.961 . S
H3329 C3313 0.961 . S
H3330 C3314 0.931 1_455 S
H3331 C3319 0.930 . S
H3332 C3320 1.026 . S
H3333 C3320 0.946 1_455 S
H3334 C3320 0.929 1_455 S
H3335 C3321 0.958 . S
H3336 C3321 0.961 . S
H3337 C3321 0.960 . S
C3338 C3339 1.391 . S
C3338 C3340 1.394 . S
C3338 H3354 0.931 . S
C3339 C3338 1.391 . S
C3339 C3343 1.376 . S
C3340 C3338 1.394 . S
C3340 C3341 1.369 . S
C3340 C3344 1.531 . S
C3341 C3340 1.369 . S
C3341 C3342 1.410 . S
C3341 C3349 1.503 . S
C3342 C3341 1.410 . S
C3342 C3343 1.392 . S
C3342 C3345 1.511 . S
C3343 C3339 1.376 . S
C3343 C3342 1.392 . S
C3343 H3355 0.929 . S
C3344 C3340 1.531 . S
C3344 H3356 0.960 . S
C3344 H3357 0.962 . S
C3344 H3358 0.960 . S
C3345 C3342 1.511 . S
C3345 H3359 0.961 . S
C3345 H3360 0.961 . S
C3345 H3361 0.961 . S
C3346 C3347 1.370 . S
C3346 C3348 1.363 . S
C3346 H3362 0.931 . S
C3347 C3346 1.370 . S
C3347 C3351 1.408 . S
C3348 C3346 1.363 . S
C3348 C3349 1.370 . S
C3348 C3352 1.524 . S
C3349 C3341 1.503 . S
C3349 C3348 1.370 . S
C3349 C3350 1.403 . S
C3350 C3349 1.403 . S
C3350 C3351 1.404 . S
C3350 C3353 1.539 . S
C3351 C3347 1.408 . S
C3351 C3350 1.404 . S
C3351 H3363 0.930 . S
C3352 C3348 1.524 . S
C3352 H3364 0.956 . S
C3352 H3365 0.961 . S
C3352 H3366 0.961 . S
C3353 C3350 1.539 . S
C3353 H3367 0.958 . S
C3353 H3368 0.961 . S
C3353 H3369 0.960 . S
H3354 C3338 0.931 . S
H3355 C3343 0.929 . S
H3356 C3344 0.960 . S
H3357 C3344 0.962 . S
H3358 C3344 0.960 . S
H3359 C3345 0.961 . S
H3360 C3345 0.961 . S
H3361 C3345 0.961 . S
H3362 C3346 0.931 . S
H3363 C3351 0.930 . S
H3364 C3352 0.956 . S
H3365 C3352 0.961 . S
H3366 C3352 0.961 . S
H3367 C3353 0.958 . S
H3368 C3353 0.961 . S
H3369 C3353 0.960 . S
C3370 C3371 1.391 . S
C3370 C3372 1.394 . S
C3370 H3386 0.931 . S
C3371 C3370 1.391 . S
C3371 C3375 1.376 . S
C3372 C3370 1.394 . S
C3372 C3373 1.369 . S
C3372 C3376 1.531 . S
C3373 C3372 1.369 . S
C3373 C3374 1.410 . S
C3373 C3381 1.503 . S
C3374 C3373 1.410 . S
C3374 C3375 1.392 . S
C3374 C3377 1.511 . S
C3375 C3371 1.376 . S
C3375 C3374 1.392 . S
C3375 H3387 0.929 . S
C3376 C3372 1.531 . S
C3376 H3388 0.960 . S
C3376 H3389 0.962 1_545 S
C3376 H3390 0.960 . S
C3377 C3374 1.511 . S
C3377 H3391 0.961 . S
C3377 H3392 0.961 . S
C3377 H3393 0.961 . S
C3378 C3379 1.370 1_565 S
C3378 C3380 1.363 . S
C3378 H3394 0.931 . S
C3379 C3378 1.370 1_545 S
C3379 C3383 1.408 . S
C3380 C3378 1.363 . S
C3380 C3381 1.370 1_565 S
C3380 C3384 1.524 . S
C3381 C3373 1.503 . S
C3381 C3380 1.370 1_545 S
C3381 C3382 1.403 . S
C3382 C3381 1.403 . S
C3382 C3383 1.404 . S
C3382 C3385 1.539 . S
C3383 C3379 1.408 . S
C3383 C3382 1.404 . S
C3383 H3395 0.930 . S
C3384 C3380 1.524 . S
C3384 H3396 0.956 . S
C3384 H3397 0.961 . S
C3384 H3398 0.961 . S
C3385 C3382 1.539 . S
C3385 H3399 0.958 . S
C3385 H3400 0.961 . S
C3385 H3401 0.960 . S
H3386 C3370 0.931 . S
H3387 C3375 0.929 . S
H3388 C3376 0.960 . S
H3389 C3376 0.962 1_565 S
H3390 C3376 0.960 . S
H3391 C3377 0.961 . S
H3392 C3377 0.961 . S
H3393 C3377 0.961 . S
H3394 C3378 0.931 . S
H3395 C3383 0.930 . S
H3396 C3384 0.956 . S
H3397 C3384 0.961 . S
H3398 C3384 0.961 . S
H3399 C3385 0.958 . S
H3400 C3385 0.961 . S
H3401 C3385 0.960 . S
C1099 C8 1.416 . S
C1107 C711 1.487 . S
C1131 C18 1.462 . S
C1139 C759 1.535 . S
C1171 C807 1.509 . S
C1163 C31 1.477 . S
C1195 C34 1.435 1_565 S
C1203 C831 1.513 . S
C1227 C5 1.446 . S
C1235 C903 1.504 . S
C1259 C21 1.524 . S
C1267 C951 1.555 . S
C1291 C47 1.449 . S
C1299 C879 1.486 . S
C1331 C927 1.537 . S
C1323 C57 1.492 . S
C1363 C855 1.524 . S
C1355 C70 1.427 . S
C1387 C73 1.441 . S
C1395 C783 1.488 . S
C1427 C687 1.530 . S
C1419 C44 1.473 . S
C1451 C60 1.508 . S
C1459 C735 1.555 . S
C1483 C86 1.595 . S
C1491 C999 1.623 . S
C1515 C96 1.561 . S
C1523 C1047 1.571 . S
C1555 C1071 1.625 . S
C1547 C109 1.621 . S
C1579 C112 1.564 . S
C1587 C255 1.613 . S
C1611 C83 1.615 . S
C1619 C327 1.630 . S
C1643 C99 1.528 . S
C1651 C375 1.590 . S
C1675 C125 1.481 . S
C1683 C303 1.553 . S
C1707 C135 1.522 . S
C1715 C351 1.580 . S
C1747 C279 1.598 . S
C1739 C148 1.598 . S
C1779 C1095 1.660 . S
C1771 C151 1.668 . S
C1811 C975 1.611 . S
C1803 C122 1.591 . S
C1843 C1023 1.629 . S
C1835 C138 1.605 . S
C1867 C164 1.533 . S
C1875 C423 1.560 . S
C1899 C174 1.512 . S
C1907 C471 1.571 . S
C1931 C187 1.594 . S
C1939 C495 1.619 . S
C1963 C190 1.660 . S
C1971 C543 1.684 . S
C2003 C615 1.625 . S
C1995 C161 1.593 . S
C2035 C663 1.618 . S
C2027 C177 1.557 . S
C2067 C591 1.630 . S
C2059 C203 1.568 . S
C2099 C639 1.593 . S
C2091 C213 1.578 . S
C2123 C226 1.599 . S
C2131 C567 1.586 . S
C2163 C519 1.594 . S
C2155 C229 1.596 . S
C2187 C200 1.595 . S
C2195 C399 1.632 . S
C2227 C447 1.610 . S
C2219 C216 1.579 . S
C2259 C264 1.490 . S
C2251 C0 1.384 . S
C2283 C23 1.418 . S
C2291 C318 1.380 . S
C2323 C366 1.465 . S
C2315 C36 1.483 . S
C2355 C414 1.481 . S
C2347 C26 1.459 . S
C2387 C462 1.423 . S
C2379 C10 1.483 . S
C2419 C504 1.435 . S
C2411 C13 1.413 . S
C2443 C39 1.456 . S
C2451 C510 1.483 . S
C2475 C62 1.397 . S
C2483 C408 1.367 . S
C2507 C75 1.449 . S
C2515 C456 1.421 . S
C2539 C65 1.450 . S
C2547 C312 1.516 . S
C2579 C360 1.417 . S
C2571 C49 1.457 . S
C2603 C52 1.356 . S
C2611 C270 1.439 . S
C2643 C552 1.450 . S
C2635 C78 1.429 . S
C2667 C101 1.514 . S
C2675 C606 1.478 . S
C2699 C114 1.527 . S
C2707 C654 1.493 . S
C2739 C702 1.315 . S
C2731 C104 1.265 . S
C2763 C88 1.417 . S
C2771 C750 1.386 . S
C2795 C91 1.233 . S
C2803 C798 1.221 . S
C2827 C117 1.216 . S
C2835 C792 1.259 . S
C2859 C140 1.268 . S
C2867 C696 1.258 . S
C2899 C744 1.400 . S
C2891 C153 1.434 . S
C2923 C143 1.428 . S
C2931 C600 1.444 . S
C2955 C127 1.505 . S
C2963 C648 1.473 . S
C2995 C558 1.504 . S
C2987 C130 1.501 . S
C3027 C840 1.283 . S
C3019 C156 1.249 . S
C3051 C179 1.248 . S
C3059 C894 1.247 . S
C3083 C192 1.417 . S
C3091 C942 1.408 . S
C3123 C990 1.434 . S
C3115 C182 1.397 . S
C3155 C1038 1.483 . S
C3147 C166 1.522 . S
C3179 C169 1.464 . S
C3187 C1080 1.523 . S
C3211 C195 1.431 . S
C3219 C1086 1.448 . S
C3243 C218 1.495 . S
C3251 C984 1.476 . S
C3283 C1032 1.455 . S
C3275 C231 1.499 . S
C3315 C888 1.286 . S
C3307 C221 1.270 . S
C3347 C936 1.377 . S
C3339 C205 1.425 . S
C3371 C208 1.253 . S
C3379 C846 1.248 . S
