# Generated by pormake.
# Topology pyr, (3,6)-cn, num edge types: 1
# Building blocks:
#     Node 0, Type 0, BuildingBlock: VETTIZ_charged_linker_0, # of connection points: 3
#     Node 1, Type 0, BuildingBlock: VETTIZ_charged_linker_0, # of connection points: 3
#     Node 2, Type 0, BuildingBlock: VETTIZ_charged_linker_0, # of connection points: 3
#     Node 3, Type 0, BuildingBlock: VETTIZ_charged_linker_0, # of connection points: 3
#     Node 4, Type 0, BuildingBlock: VETTIZ_charged_linker_0, # of connection points: 3
#     Node 5, Type 0, BuildingBlock: VETTIZ_charged_linker_0, # of connection points: 3
#     Node 6, Type 0, BuildingBlock: VETTIZ_charged_linker_0, # of connection points: 3
#     Node 7, Type 0, BuildingBlock: VETTIZ_charged_linker_0, # of connection points: 3
#     Node 8, Type 1, BuildingBlock: JUFBIX_clean_sbu_0, # of connection points: 6
#     Node 9, Type 1, BuildingBlock: JUFBIX_clean_sbu_0, # of connection points: 6
#     Node 10, Type 1, BuildingBlock: JUFBIX_clean_sbu_0, # of connection points: 6
#     Node 11, Type 1, BuildingBlock: JUFBIX_clean_sbu_0, # of connection points: 6
#     Edge 12, Type (0, 1), BuildingBlock: ZUJKAS_clean_linker_0, # of connection points: 2
#     Edge 13, Type (0, 1), BuildingBlock: ZUJKAS_clean_linker_0, # of connection points: 2
#     Edge 14, Type (0, 1), BuildingBlock: ZUJKAS_clean_linker_0, # of connection points: 2
#     Edge 15, Type (0, 1), BuildingBlock: ZUJKAS_clean_linker_0, # of connection points: 2
#     Edge 16, Type (0, 1), BuildingBlock: ZUJKAS_clean_linker_0, # of connection points: 2
#     Edge 17, Type (0, 1), BuildingBlock: ZUJKAS_clean_linker_0, # of connection points: 2
#     Edge 18, Type (0, 1), BuildingBlock: ZUJKAS_clean_linker_0, # of connection points: 2
#     Edge 19, Type (0, 1), BuildingBlock: ZUJKAS_clean_linker_0, # of connection points: 2
#     Edge 20, Type (0, 1), BuildingBlock: ZUJKAS_clean_linker_0, # of connection points: 2
#     Edge 21, Type (0, 1), BuildingBlock: ZUJKAS_clean_linker_0, # of connection points: 2
#     Edge 22, Type (0, 1), BuildingBlock: ZUJKAS_clean_linker_0, # of connection points: 2
#     Edge 23, Type (0, 1), BuildingBlock: ZUJKAS_clean_linker_0, # of connection points: 2
#     Edge 24, Type (0, 1), BuildingBlock: ZUJKAS_clean_linker_0, # of connection points: 2
#     Edge 25, Type (0, 1), BuildingBlock: ZUJKAS_clean_linker_0, # of connection points: 2
#     Edge 26, Type (0, 1), BuildingBlock: ZUJKAS_clean_linker_0, # of connection points: 2
#     Edge 27, Type (0, 1), BuildingBlock: ZUJKAS_clean_linker_0, # of connection points: 2
#     Edge 28, Type (0, 1), BuildingBlock: ZUJKAS_clean_linker_0, # of connection points: 2
#     Edge 29, Type (0, 1), BuildingBlock: ZUJKAS_clean_linker_0, # of connection points: 2
#     Edge 30, Type (0, 1), BuildingBlock: ZUJKAS_clean_linker_0, # of connection points: 2
#     Edge 31, Type (0, 1), BuildingBlock: ZUJKAS_clean_linker_0, # of connection points: 2
#     Edge 32, Type (0, 1), BuildingBlock: ZUJKAS_clean_linker_0, # of connection points: 2
#     Edge 33, Type (0, 1), BuildingBlock: ZUJKAS_clean_linker_0, # of connection points: 2
#     Edge 34, Type (0, 1), BuildingBlock: ZUJKAS_clean_linker_0, # of connection points: 2
#     Edge 35, Type (0, 1), BuildingBlock: ZUJKAS_clean_linker_0, # of connection points: 2
# Relax obj value: 0.036
# Max RMSD: 0.087
# Mean RMSD: 0.029
data_MOF--net-pry--node1-JUFBIX_clean_sbu_0--node2-VETTIZ_charged_linker_0--edge1-ZUJKAS_clean_linker_0
_symmetry_space_group_name_H-M    P1
_symmetry_Int_Tables_number       1
_symmetry_cell_setting            triclinic
loop_
_symmetry_equiv_pos_as_xyz
'x, y, z'
_cell_length_a     56.882544
_cell_length_b     54.547599
_cell_length_c     56.808877
_cell_angle_alpha  86.834061
_cell_angle_beta   90.320208
_cell_angle_gamma 91.881924
loop_
_atom_site_label
_atom_site_type_symbol
_atom_site_fract_x
_atom_site_fract_y
_atom_site_fract_z
_atom_type_partial_charge
C0 C 0.15193 0.11689 0.23671 0.0
C1 C 0.1318 0.12496 0.2483 0.0
C2 C 0.12032 0.14551 0.23799 0.0
C3 C 0.14888 0.15 0.20619 0.0
C4 C 0.16012 0.12967 0.2158 0.0
C5 C 0.18124 0.12385 0.20119 0.0
H6 H 0.25237 0.15214 0.10609 0.0
C7 C 0.16181 0.15943 0.18464 0.0
C8 C 0.1809 0.14415 0.18153 0.0
H9 H 0.25797 0.09154 0.15797 0.0
H10 H 0.22376 0.10483 0.17803 0.0
H11 H 0.23952 0.19321 0.14377 0.0
H12 H 0.19537 0.14785 0.10058 0.0
H13 H 0.18488 0.17789 0.09888 0.0
H14 H 0.21394 0.17249 0.08821 0.0
H15 H 0.2383 0.19791 0.11225 0.0
H16 H 0.21727 0.21128 0.13096 0.0
C17 C 0.20347 0.126 0.21682 0.0
C18 C 0.17684 0.09811 0.19155 0.0
C19 C 0.1328 0.23572 0.1384 0.0
C20 C 0.14091 0.24958 0.11815 0.0
C21 C 0.16137 0.24185 0.10702 0.0
C22 C 0.17335 0.22098 0.11572 0.0
C23 C 0.16499 0.2074 0.13594 0.0
C24 C 0.14504 0.21495 0.14692 0.0
C25 C 0.13878 0.19861 0.16838 0.0
C26 C 0.15809 0.17991 0.16847 0.0
C27 C 0.17348 0.18502 0.14938 0.0
C28 C 0.1404 0.21443 0.19022 0.0
C29 C 0.11416 0.18655 0.1642 0.0
C30 C 0.24639 0.14179 0.12187 0.0
C31 C 0.25817 0.12055 0.1302 0.0
C32 C 0.24929 0.10766 0.15073 0.0
C33 C 0.22938 0.11551 0.16253 0.0
C34 C 0.21779 0.13659 0.15389 0.0
C35 C 0.22635 0.14934 0.13383 0.0
C36 C 0.21162 0.1712 0.12701 0.0
C37 C 0.19285 0.16947 0.14615 0.0
C38 C 0.19655 0.14913 0.16203 0.0
C39 C 0.22739 0.19474 0.12835 0.0
C40 C 0.20093 0.16742 0.10231 0.0
H41 H 0.11898 0.17341 0.21064 0.0
H42 H 0.16134 0.10126 0.24393 0.0
H43 H 0.15807 0.09538 0.18643 0.0
H44 H 0.1869 0.09545 0.1754 0.0
H45 H 0.18107 0.08339 0.20507 0.0
H46 H 0.20267 0.14226 0.22775 0.0
H47 H 0.20511 0.10946 0.22896 0.0
H48 H 0.2198 0.1288 0.2065 0.0
H49 H 0.11741 0.2411 0.14772 0.0
H50 H 0.16801 0.25178 0.09128 0.0
H51 H 0.18869 0.21618 0.1063 0.0
H52 H 0.15499 0.22848 0.18825 0.0
H53 H 0.12387 0.22427 0.19264 0.0
H54 H 0.14452 0.20366 0.20666 0.0
H55 H 0.11165 0.18263 0.14532 0.0
H56 H 0.11161 0.16852 0.17385 0.0
H57 H 0.09995 0.19878 0.16907 0.0
H58 H 0.10451 0.15196 0.24582 0.0
C59 C 0.12868 0.15796 0.21726 0.0
C60 C 0.31609 0.87414 0.61147 0.0
C61 C 0.30526 0.89423 0.62081 0.0
C62 C 0.31866 0.91001 0.6349 0.0
C63 C 0.35302 0.88571 0.63005 0.0
C64 C 0.33987 0.87034 0.6162 0.0
C65 C 0.35399 0.84998 0.6074 0.0
H66 H 0.45586 0.79015 0.60673 0.0
C67 C 0.37716 0.87656 0.63151 0.0
C68 C 0.37785 0.85574 0.61816 0.0
H69 H 0.38948 0.77117 0.57361 0.0
H70 H 0.37294 0.80799 0.58645 0.0
H71 H 0.45567 0.84894 0.59243 0.0
H72 H 0.43295 0.80578 0.65448 0.0
H73 H 0.44794 0.83221 0.66375 0.0
H74 H 0.46342 0.81079 0.64703 0.0
H75 H 0.47612 0.83557 0.6132 0.0
H76 H 0.46408 0.86528 0.6171 0.0
C77 C 0.35454 0.85277 0.58009 0.0
C78 C 0.34303 0.82523 0.61762 0.0
C79 C 0.43719 0.91642 0.68472 0.0
C80 C 0.46035 0.91079 0.69128 0.0
C81 C 0.47176 0.89241 0.6796 0.0
C82 C 0.4599 0.87909 0.66248 0.0
C83 C 0.4363 0.88403 0.65714 0.0
C84 C 0.42556 0.90287 0.66777 0.0
C85 C 0.40037 0.90545 0.6602 0.0
C86 C 0.39756 0.88465 0.6437 0.0
C87 C 0.4186 0.87207 0.64205 0.0
C88 C 0.39804 0.9309 0.64702 0.0
C89 C 0.38458 0.90125 0.68232 0.0
C90 C 0.43775 0.79393 0.60227 0.0
C91 C 0.42402 0.77765 0.58908 0.0
C92 C 0.40062 0.7835 0.58341 0.0
C93 C 0.39092 0.80483 0.59111 0.0
C94 C 0.4046 0.82048 0.60487 0.0
C95 C 0.42769 0.81511 0.61003 0.0
C96 C 0.4393 0.83365 0.62539 0.0
C97 C 0.41928 0.8509 0.62864 0.0
C98 C 0.39904 0.84295 0.61665 0.0
C99 C 0.46002 0.84653 0.61152 0.0
C100 C 0.4465 0.82008 0.64889 0.0
H101 H 0.35171 0.91857 0.65034 0.0
H102 H 0.30628 0.86152 0.60076 0.0
H103 H 0.33545 0.82726 0.6354 0.0
H104 H 0.35606 0.81077 0.62043 0.0
H105 H 0.32866 0.81845 0.60611 0.0
H106 H 0.35486 0.87248 0.57386 0.0
H107 H 0.33877 0.84378 0.57226 0.0
H108 H 0.37052 0.8454 0.57252 0.0
H109 H 0.42773 0.93014 0.69356 0.0
H110 H 0.4897 0.88792 0.68412 0.0
H111 H 0.46935 0.865 0.65454 0.0
H112 H 0.41442 0.93644 0.63721 0.0
H113 H 0.39471 0.94535 0.65951 0.0
H114 H 0.38408 0.931 0.63341 0.0
H115 H 0.39164 0.88661 0.69456 0.0
H116 H 0.36652 0.89479 0.67822 0.0
H117 H 0.38372 0.91824 0.69215 0.0
H118 H 0.31086 0.92587 0.64199 0.0
C119 C 0.34246 0.90588 0.63955 0.0
C120 C 0.64576 0.2796 0.88112 0.0
C121 C 0.62469 0.2689 0.87268 0.0
C122 C 0.61436 0.2795 0.85206 0.0
C123 C 0.64572 0.31073 0.84878 0.0
C124 C 0.65588 0.30041 0.86898 0.0
C125 C 0.67818 0.31406 0.87561 0.0
H126 H 0.75726 0.40826 0.85376 0.0
C127 C 0.66064 0.3322 0.84043 0.0
C128 C 0.67968 0.33428 0.8561 0.0
H129 H 0.75802 0.35163 0.91008 0.0
H130 H 0.72211 0.33346 0.89528 0.0
H131 H 0.70054 0.41726 0.85519 0.0
H132 H 0.74245 0.37193 0.81318 0.0
H133 H 0.72108 0.38542 0.79467 0.0
H134 H 0.74272 0.40477 0.80863 0.0
H135 H 0.72049 0.42989 0.83297 0.0
H136 H 0.69077 0.42044 0.82577 0.0
C137 C 0.67451 0.32449 0.9001 0.0
C138 C 0.69879 0.29626 0.87455 0.0
C139 C 0.63779 0.38174 0.76583 0.0
C140 C 0.64793 0.40248 0.75343 0.0
C141 C 0.66866 0.41344 0.76251 0.0
C142 C 0.67914 0.40383 0.78334 0.0
C143 C 0.66887 0.38296 0.79536 0.0
C144 C 0.64848 0.37235 0.78657 0.0
C145 C 0.63992 0.35034 0.80161 0.0
C146 C 0.65862 0.3493 0.82078 0.0
C147 C 0.67557 0.36845 0.81709 0.0
C148 C 0.61544 0.35595 0.8115 0.0
C149 C 0.64013 0.32758 0.78644 0.0
C150 C 0.74955 0.39206 0.86298 0.0
C151 C 0.76056 0.38137 0.88314 0.0
C152 C 0.7501 0.36007 0.89439 0.0
C153 C 0.72914 0.3496 0.88582 0.0
C154 C 0.7184 0.36038 0.86564 0.0
C155 C 0.72864 0.38121 0.85449 0.0
C156 C 0.715 0.38968 0.83287 0.0
C157 C 0.69482 0.37067 0.83306 0.0
C158 C 0.69688 0.35361 0.85238 0.0
C159 C 0.70628 0.41576 0.83665 0.0
C160 C 0.73105 0.3881 0.8111 0.0
H161 H 0.61596 0.30732 0.82453 0.0
H162 H 0.65409 0.27215 0.89702 0.0
H163 H 0.69585 0.28317 0.86039 0.0
H164 H 0.71575 0.30577 0.87007 0.0
H165 H 0.7007 0.28526 0.89146 0.0
H166 H 0.65628 0.33096 0.90179 0.0
H167 H 0.67735 0.31025 0.91449 0.0
H168 H 0.68598 0.34072 0.90315 0.0
H169 H 0.62168 0.37304 0.75966 0.0
H170 H 0.67704 0.42926 0.75328 0.0
H171 H 0.69493 0.41295 0.78922 0.0
H172 H 0.61437 0.37574 0.81507 0.0
H173 H 0.60121 0.35154 0.79879 0.0
H174 H 0.61164 0.34608 0.82863 0.0
H175 H 0.6554 0.32874 0.77423 0.0
H176 H 0.64217 0.31019 0.79702 0.0
H177 H 0.6239 0.32617 0.77558 0.0
H178 H 0.59836 0.27149 0.8449 0.0
C179 C 0.62471 0.30027 0.84012 0.0
C180 C 0.96349 0.69315 0.4226 0.0
C181 C 0.9526 0.70805 0.43855 0.0
C182 C 0.93078 0.69989 0.44843 0.0
C183 C 0.93092 0.66325 0.42618 0.0
C184 C 0.95229 0.67111 0.41653 0.0
C185 C 0.96065 0.65416 0.39854 0.0
H186 H 0.93889 0.55555 0.33371 0.0
C187 C 0.92364 0.64003 0.41559 0.0
C188 C 0.94099 0.63462 0.39934 0.0
H189 H 0.99768 0.60777 0.32797 0.0
H190 H 0.98358 0.62814 0.36161 0.0
H191 H 0.93966 0.54836 0.39079 0.0
H192 H 0.90054 0.59407 0.34164 0.0
H193 H 0.88074 0.58175 0.36313 0.0
H194 H 0.89593 0.56135 0.34507 0.0
H195 H 0.91504 0.53649 0.37462 0.0
H196 H 0.91136 0.54998 0.40266 0.0
C197 C 0.9843 0.6436 0.40723 0.0
C198 C 0.96199 0.66874 0.37432 0.0
C199 C 0.84535 0.59756 0.43809 0.0
C200 C 0.83367 0.57616 0.43064 0.0
C201 C 0.84518 0.56151 0.41487 0.0
C202 C 0.86752 0.56842 0.40608 0.0
C203 C 0.87855 0.5903 0.413 0.0
C204 C 0.86769 0.60422 0.42911 0.0
C205 C 0.88222 0.62678 0.43457 0.0
C206 C 0.90346 0.62419 0.41891 0.0
C207 C 0.90107 0.60292 0.40617 0.0
C208 C 0.88883 0.62478 0.46107 0.0
C209 C 0.868 0.64969 0.42696 0.0
C210 C 0.94901 0.57105 0.34 0.0
C211 C 0.96939 0.5801 0.32814 0.0
C212 C 0.98179 0.60062 0.33666 0.0
C213 C 0.97355 0.61243 0.35617 0.0
C214 C 0.95253 0.60384 0.36713 0.0
C215 C 0.94087 0.58321 0.35926 0.0
C216 C 0.91851 0.57702 0.3726 0.0
C217 C 0.91839 0.59765 0.38944 0.0
C218 C 0.93832 0.61332 0.38615 0.0
C219 C 0.92103 0.55159 0.38579 0.0
C220 C 0.89773 0.57841 0.35483 0.0
H221 H 0.90337 0.67263 0.45045 0.0
H222 H 0.98029 0.69855 0.41473 0.0
H223 H 0.94855 0.68313 0.37292 0.0
H224 H 0.95809 0.65719 0.35933 0.0
H225 H 0.9795 0.67807 0.37165 0.0
H226 H 0.98383 0.63914 0.42657 0.0
H227 H 0.99909 0.65705 0.40362 0.0
H228 H 0.98827 0.62619 0.39928 0.0
H229 H 0.83698 0.60935 0.45004 0.0
H230 H 0.83681 0.54471 0.40919 0.0
H231 H 0.87515 0.55663 0.39392 0.0
H232 H 0.89266 0.60548 0.46683 0.0
H233 H 0.87421 0.63067 0.47211 0.0
H234 H 0.90498 0.6355 0.46519 0.0
H235 H 0.8571 0.64631 0.41107 0.0
H236 H 0.87929 0.66591 0.42173 0.0
H237 H 0.85595 0.65454 0.44118 0.0
H238 H 0.92157 0.71105 0.46032 0.0
C239 C 0.92002 0.67759 0.44247 0.0
C240 C 0.85659 0.77628 0.89126 0.0
C241 C 0.87715 0.76501 0.88378 0.0
C242 C 0.88902 0.77583 0.86381 0.0
C243 C 0.86 0.80751 0.85887 0.0
C244 C 0.84841 0.79741 0.8786 0.0
C245 C 0.82695 0.81177 0.88401 0.0
H246 H 0.75549 0.90769 0.85709 0.0
C247 C 0.84699 0.82926 0.84952 0.0
C248 C 0.82757 0.83196 0.86424 0.0
H249 H 0.74917 0.85294 0.91493 0.0
H250 H 0.78379 0.83355 0.90179 0.0
H251 H 0.76969 0.86902 0.81754 0.0
H252 H 0.8136 0.91539 0.86017 0.0
H253 H 0.82334 0.91792 0.8307 0.0
H254 H 0.7944 0.92778 0.83762 0.0
H255 H 0.77054 0.90191 0.81317 0.0
H256 H 0.79201 0.88346 0.79989 0.0
C257 C 0.80498 0.79446 0.88221 0.0
C258 C 0.83058 0.82237 0.90854 0.0
C259 C 0.87682 0.87667 0.77499 0.0
C260 C 0.86901 0.8973 0.76139 0.0
C261 C 0.84857 0.90865 0.769 0.0
C262 C 0.83632 0.89976 0.78945 0.0
C263 C 0.84438 0.87911 0.80273 0.0
C264 C 0.86436 0.86798 0.79532 0.0
C265 C 0.87049 0.84621 0.81137 0.0
C266 C 0.85096 0.84593 0.82959 0.0
C267 C 0.83557 0.86529 0.8246 0.0
C268 C 0.86909 0.82304 0.79674 0.0
C269 C 0.89497 0.85161 0.82243 0.0
C270 C 0.76164 0.89164 0.86705 0.0
C271 C 0.74916 0.88193 0.88716 0.0
C272 C 0.75792 0.86076 0.89925 0.0
C273 C 0.77825 0.84952 0.89165 0.0
C274 C 0.79037 0.85932 0.87158 0.0
C275 C 0.782 0.88003 0.85956 0.0
C276 C 0.79706 0.88755 0.83831 0.0
C277 C 0.8159 0.86819 0.83973 0.0
C278 C 0.81189 0.85163 0.85938 0.0
C279 C 0.78162 0.8856 0.81594 0.0
C280 C 0.80763 0.9136 0.84164 0.0
H281 H 0.89059 0.80377 0.83642 0.0
H282 H 0.84685 0.76866 0.90642 0.0
H283 H 0.84924 0.82848 0.91104 0.0
H284 H 0.8203 0.83886 0.91088 0.0
H285 H 0.8261 0.80834 0.92287 0.0
H286 H 0.80675 0.78223 0.86732 0.0
H287 H 0.80255 0.7826 0.8986 0.0
H288 H 0.78869 0.80442 0.87843 0.0
H289 H 0.89217 0.86711 0.76976 0.0
H290 H 0.84214 0.92473 0.7593 0.0
H291 H 0.82103 0.90937 0.79419 0.0
H292 H 0.85427 0.82406 0.78389 0.0
H293 H 0.88552 0.82116 0.78662 0.0
H294 H 0.86551 0.80592 0.80759 0.0
H295 H 0.89773 0.87156 0.82506 0.0
H296 H 0.89704 0.84264 0.84021 0.0
H297 H 0.90934 0.84599 0.81092 0.0
H298 H 0.90516 0.7683 0.8578 0.0
C299 C 0.8806 0.79675 0.85141 0.0
C300 C 0.69821 0.13189 0.40287 0.0
C301 C 0.7098 0.11236 0.3934 0.0
C302 C 0.69709 0.09606 0.37931 0.0
C303 C 0.66205 0.11944 0.38335 0.0
C304 C 0.67444 0.13516 0.39751 0.0
C305 C 0.65976 0.15571 0.40508 0.0
H306 H 0.56103 0.22027 0.3915 0.0
C307 C 0.63814 0.12876 0.38004 0.0
C308 C 0.63666 0.15 0.39267 0.0
H309 H 0.62096 0.23443 0.43649 0.0
H310 H 0.63793 0.19661 0.42614 0.0
H311 H 0.55622 0.1615 0.40761 0.0
H312 H 0.58921 0.20128 0.34829 0.0
H313 H 0.57454 0.17518 0.33782 0.0
H314 H 0.55784 0.19811 0.35132 0.0
H315 H 0.53952 0.1756 0.38393 0.0
H316 H 0.55025 0.14496 0.38245 0.0
C317 C 0.65729 0.15332 0.4323 0.0
C318 C 0.67149 0.18025 0.39541 0.0
C319 C 0.58202 0.08717 0.3242 0.0
C320 C 0.56049 0.09391 0.3139 0.0
C321 C 0.54911 0.11437 0.32216 0.0
C322 C 0.5596 0.12849 0.33952 0.0
C323 C 0.58185 0.12232 0.34851 0.0
C324 C 0.59252 0.10177 0.341 0.0
C325 C 0.61681 0.09886 0.35101 0.0
C326 C 0.61887 0.12086 0.36612 0.0
C327 C 0.59836 0.13451 0.36468 0.0
C328 C 0.61707 0.07438 0.36614 0.0
C329 C 0.63461 0.10067 0.33027 0.0
C330 C 0.57783 0.21515 0.39903 0.0
C331 C 0.58985 0.23037 0.4146 0.0
C332 C 0.61141 0.22293 0.42449 0.0
C333 C 0.6213 0.20107 0.41833 0.0
C334 C 0.60957 0.18651 0.40206 0.0
C335 C 0.58789 0.19322 0.39321 0.0
C336 C 0.57761 0.17479 0.37695 0.0
C337 C 0.59695 0.15625 0.37715 0.0
C338 C 0.61578 0.16353 0.39154 0.0
C339 C 0.55459 0.16363 0.38808 0.0
C340 C 0.57441 0.18787 0.35228 0.0
H341 H 0.66456 0.0864 0.36351 0.0
H342 H 0.70758 0.14472 0.41372 0.0
H343 H 0.67758 0.17866 0.37699 0.0
H344 H 0.6595 0.19573 0.39453 0.0
H345 H 0.68704 0.18533 0.40624 0.0
H346 H 0.65898 0.13396 0.43919 0.0
H347 H 0.67105 0.16458 0.44103 0.0
H348 H 0.63974 0.15852 0.43828 0.0
H349 H 0.59115 0.07139 0.31859 0.0
H350 H 0.53261 0.12018 0.31445 0.0
H351 H 0.55038 0.14418 0.34464 0.0
H352 H 0.60068 0.07173 0.37671 0.0
H353 H 0.61825 0.05849 0.35484 0.0
H354 H 0.63159 0.07378 0.37913 0.0
H355 H 0.62754 0.11124 0.31463 0.0
H356 H 0.65112 0.11077 0.33455 0.0
H357 H 0.63888 0.08218 0.32456 0.0
H358 H 0.7056 0.08061 0.37221 0.0
C359 C 0.67325 0.0994 0.37436 0.0
C360 C 0.37665 0.63242 0.24365 0.0
C361 C 0.36713 0.61127 0.25593 0.0
C362 C 0.34623 0.60027 0.24726 0.0
C363 C 0.34483 0.63125 0.21492 0.0
C364 C 0.36533 0.64197 0.22332 0.0
C365 C 0.3734 0.66415 0.20821 0.0
H366 H 0.35586 0.74313 0.11402 0.0
C367 C 0.33756 0.64578 0.19342 0.0
C368 C 0.35432 0.66506 0.18941 0.0
H369 H 0.41368 0.74321 0.16385 0.0
H370 H 0.39671 0.70735 0.18466 0.0
H371 H 0.31493 0.72973 0.15181 0.0
H372 H 0.35525 0.68522 0.10776 0.0
H373 H 0.32636 0.67292 0.108 0.0
H374 H 0.33206 0.70395 0.09621 0.0
H375 H 0.31082 0.72965 0.12046 0.0
H376 H 0.29546 0.70774 0.14026 0.0
C377 C 0.37322 0.68681 0.2235 0.0
C378 C 0.39776 0.65892 0.19782 0.0
C379 C 0.26266 0.62178 0.14925 0.0
C380 C 0.25175 0.63168 0.12868 0.0
C381 C 0.26219 0.65268 0.11686 0.0
C382 C 0.28304 0.66357 0.12523 0.0
C383 C 0.29378 0.65342 0.14569 0.0
C384 C 0.28362 0.63285 0.15735 0.0
C385 C 0.29776 0.62447 0.17865 0.0
C386 C 0.31799 0.64344 0.17787 0.0
C387 C 0.31551 0.66038 0.15853 0.0
C388 C 0.28227 0.62626 0.20077 0.0
C389 C 0.30629 0.59831 0.17482 0.0
C390 C 0.36502 0.73534 0.12928 0.0
C391 C 0.38615 0.7463 0.13728 0.0
C392 C 0.3972 0.73556 0.15746 0.0
C393 C 0.38738 0.71454 0.16947 0.0
C394 C 0.36625 0.70391 0.16129 0.0
C395 C 0.35549 0.71425 0.14144 0.0
C396 C 0.3333 0.70025 0.13512 0.0
C397 C 0.33248 0.67987 0.1545 0.0
C398 C 0.35179 0.68215 0.16981 0.0
C399 C 0.31243 0.71763 0.13678 0.0
C400 C 0.33666 0.69012 0.11044 0.0
H401 H 0.31928 0.60083 0.22127 0.0
H402 H 0.39248 0.64162 0.24984 0.0
H403 H 0.39914 0.63912 0.19446 0.0
H404 H 0.40097 0.66862 0.1805 0.0
H405 H 0.4122 0.66383 0.21012 0.0
H406 H 0.35788 0.68564 0.23562 0.0
H407 H 0.38941 0.68805 0.23445 0.0
H408 H 0.37136 0.70428 0.213 0.0
H409 H 0.25527 0.60552 0.15864 0.0
H410 H 0.25405 0.66092 0.1012 0.0
H411 H 0.28997 0.67952 0.11541 0.0
H412 H 0.27161 0.64302 0.19923 0.0
H413 H 0.26991 0.61011 0.20304 0.0
H414 H 0.29262 0.62797 0.21711 0.0
H415 H 0.31054 0.59624 0.15595 0.0
H416 H 0.32271 0.59412 0.18444 0.0
H417 H 0.29254 0.58413 0.17999 0.0
H418 H 0.33862 0.58377 0.25604 0.0
C419 C 0.33506 0.61012 0.22692 0.0
C420 C 0.05742 0.30532 0.59256 0.0
C421 C 0.06758 0.2918 0.57505 0.0
C422 C 0.08898 0.30077 0.56478 0.0
C423 C 0.09005 0.33517 0.59008 0.0
C424 C 0.06905 0.32653 0.6 0.0
C425 C 0.06174 0.3413 0.62012 0.0
H426 H 0.08811 0.42989 0.69517 0.0
C427 C 0.09801 0.35708 0.60256 0.0
C428 C 0.08151 0.36063 0.62026 0.0
H429 H 0.02934 0.37749 0.69801 0.0
H430 H 0.04119 0.36215 0.66099 0.0
H431 H 0.08332 0.44543 0.64073 0.0
H432 H 0.1265 0.39308 0.67829 0.0
H433 H 0.14426 0.41091 0.6581 0.0
H434 H 0.12922 0.42575 0.68076 0.0
H435 H 0.11074 0.45461 0.65383 0.0
H436 H 0.10917 0.44441 0.62409 0.0
C437 C 0.03786 0.35279 0.61373 0.0
C438 C 0.0614 0.32421 0.64294 0.0
C439 C 0.17526 0.40217 0.58046 0.0
C440 C 0.18687 0.42314 0.58899 0.0
C441 C 0.17559 0.43627 0.60618 0.0
C442 C 0.15379 0.4281 0.61546 0.0
C443 C 0.14299 0.40656 0.60753 0.0
C444 C 0.15333 0.39437 0.58982 0.0
C445 C 0.13865 0.37238 0.58296 0.0
C446 C 0.11802 0.37325 0.59975 0.0
C447 C 0.12095 0.39307 0.61438 0.0
C448 C 0.13101 0.37678 0.55691 0.0
C449 C 0.15318 0.3491 0.58791 0.0
C450 C 0.07757 0.41537 0.68763 0.0
C451 C 0.05789 0.40472 0.69964 0.0
C452 C 0.0448 0.38571 0.6893 0.0
C453 C 0.05171 0.37684 0.6678 0.0
C454 C 0.07207 0.38689 0.65659 0.0
C455 C 0.08436 0.40616 0.66628 0.0
C456 C 0.1057 0.41437 0.65205 0.0
C457 C 0.10466 0.39622 0.63272 0.0
C458 C 0.08496 0.38018 0.63551 0.0
C459 C 0.10228 0.44113 0.64223 0.0
C460 C 0.12768 0.41104 0.66802 0.0
H461 H 0.11649 0.32801 0.56378 0.0
H462 H 0.04093 0.29935 0.60077 0.0
H463 H 0.07358 0.30879 0.64168 0.0
H464 H 0.06761 0.33367 0.65864 0.0
H465 H 0.04354 0.31603 0.64644 0.0
H466 H 0.03759 0.35963 0.59491 0.0
H467 H 0.02313 0.33905 0.61639 0.0
H468 H 0.03431 0.36893 0.62391 0.0
H469 H 0.18332 0.39156 0.56731 0.0
H470 H 0.18369 0.45285 0.61263 0.0
H471 H 0.14637 0.43869 0.62874 0.0
H472 H 0.12674 0.39637 0.55307 0.0
H473 H 0.14528 0.37231 0.54475 0.0
H474 H 0.11486 0.36623 0.55248 0.0
H475 H 0.16422 0.35081 0.60401 0.0
H476 H 0.14211 0.33234 0.59154 0.0
H477 H 0.16512 0.34614 0.57299 0.0
H478 H 0.09761 0.29067 0.55161 0.0
C479 C 0.10014 0.32241 0.57207 0.0
Co480 Co 0.9895 0.00396 0.49751 0.0
C481 C 0.00779 0.95679 0.49324 0.0
Co482 Co 0.02485 0.99829 0.5122 0.0
C483 C 0.94741 0.02383 0.47549 0.0
C484 C 0.94295 0.98659 0.48919 0.0
N485 N 0.95912 0.00513 0.48614 0.0
N486 N 0.92451 0.01764 0.47208 0.0
C487 C 0.92173 0.99419 0.48055 0.0
H488 H 0.95525 0.04187 0.47126 0.0
H489 H 0.94619 0.96887 0.49788 0.0
C490 C 1.00679 0.04548 0.51636 0.0
N491 N 0.05509 0.99723 0.52391 0.0
C492 C 0.06567 0.97985 0.53767 0.0
C493 C 0.07143 0.01559 0.52068 0.0
N494 N 0.08783 0.98697 0.54339 0.0
C495 C 0.09149 0.00939 0.53271 0.0
C496 C 0.02434 0.01615 0.46427 0.0
O497 O 0.9885 0.03713 0.50623 0.0
O498 O 0.02378 0.03139 0.5206 0.0
O499 O 0.03724 0.00927 0.48165 0.0
O500 O 1.00208 0.01524 0.46701 0.0
O501 O 0.02589 0.96517 0.50368 0.0
H502 H 0.06887 0.0325 0.51027 0.0
H503 H 0.05721 0.96258 0.54367 0.0
O504 O 0.99072 0.97079 0.48888 0.0
O505 O 0.97711 0.99288 0.52793 0.0
O506 O 0.01216 0.98725 0.54282 0.0
C507 C 0.98989 0.98628 0.54546 0.0
H508 H 0.90543 0.98337 0.48075 0.0
H509 H 0.10771 0.02031 0.53323 0.0
Co510 Co 0.49371 1.00386 0.98689 0.0
C511 C 0.48927 0.96608 0.02172 0.0
Co512 Co 0.51374 0.01096 0.01907 0.0
C513 C 0.48567 0.99757 0.93773 0.0
C514 C 0.45437 0.99016 0.95797 0.0
N515 N 0.47714 0.99746 0.95982 0.0
N516 N 0.46923 0.99038 0.92212 0.0
C517 C 0.44944 0.98582 0.9348 0.0
H518 H 0.50375 1.0025 0.93327 0.0
H519 H 0.44234 0.98743 0.97263 0.0
C520 C 0.51826 0.04873 0.98428 0.0
N521 N 0.53026 0.01739 0.0461 0.0
C522 C 0.52186 0.01638 0.06828 0.0
C523 C 0.55268 0.02592 0.04787 0.0
N524 N 0.53801 0.02426 0.08383 0.0
C525 C 0.55748 0.03024 0.07107 0.0
C526 C 0.54028 0.98721 0.98608 0.0
O527 O 0.50441 0.03487 0.97292 0.0
O528 O 0.52439 0.04179 1.00507 0.0
O529 O 0.54099 0.99571 0.00652 0.0
O530 O 0.5211 0.98861 0.97447 0.0
O531 O 0.503 0.98007 0.03304 0.0
H532 H 0.56451 0.02944 0.03314 0.0
H533 H 0.50388 0.01099 0.07276 0.0
O534 O 0.48312 0.97288 1.00089 0.0
O535 O 0.46641 0.01907 0.99954 0.0
O536 O 0.48644 0.02627 0.03148 0.0
C537 C 0.46721 0.02761 0.01997 0.0
H538 H 0.43287 0.9788 0.92804 0.0
H539 H 0.57389 0.03756 0.07793 0.0
Co540 Co 0.52471 0.51327 0.49617 0.0
C541 C 0.48574 0.51694 0.46578 0.0
Co542 Co 0.49232 0.49431 0.5099 0.0
C543 C 0.57355 0.52531 0.48491 0.0
C544 C 0.55037 0.55396 0.47402 0.0
N545 N 0.55068 0.53123 0.48457 0.0
N546 N 0.58752 0.54349 0.47491 0.0
C547 C 0.57292 0.56153 0.46806 0.0
H548 H 0.57976 0.50794 0.49221 0.0
H549 H 0.53472 0.56448 0.47106 0.0
C550 C 0.53127 0.49074 0.54033 0.0
N551 N 0.46641 0.47616 0.52147 0.0
C552 C 0.4434 0.48159 0.52116 0.0
C553 C 0.46707 0.45308 0.53122 0.0
N554 N 0.42972 0.46263 0.53011 0.0
C555 C 0.4446 0.44472 0.5365 0.0
C556 C 0.52147 0.46582 0.4836 0.0
O557 O 0.5418 0.5034 0.52389 0.0
O558 O 0.50959 0.48495 0.53778 0.0
O559 O 0.50257 0.46623 0.49531 0.0
O560 O 0.53453 0.48513 0.48132 0.0
O561 O 0.47529 0.50389 0.48202 0.0
H562 H 0.48291 0.44285 0.53404 0.0
H563 H 0.43678 0.49883 0.51398 0.0
O564 O 0.50734 0.52298 0.46848 0.0
O565 O 0.51474 0.54124 0.51114 0.0
O566 O 0.48224 0.52259 0.52429 0.0
C567 C 0.49559 0.54173 0.52246 0.0
H568 H 0.57816 0.57918 0.45977 0.0
H569 H 0.43961 0.42688 0.54456 0.0
Co570 Co 0.01369 0.50701 0.99264 0.0
C571 C 0.96905 0.48492 0.99106 0.0
Co572 Co 0.99412 0.5091 0.02576 0.0
C573 C 0.02879 0.48831 0.9489 0.0
C574 C 0.04501 0.52331 0.95517 0.0
N575 N 0.03022 0.50577 0.96482 0.0
N576 N 0.04193 0.49435 0.9296 0.0
C577 C 0.05228 0.51632 0.93356 0.0
H578 H 0.01794 0.47169 0.95125 0.0
H579 H 0.04956 0.5405 0.96295 0.0
C580 C 0.03879 0.53111 0.02731 0.0
N581 N 0.97738 0.51083 0.05341 0.0
C582 C 0.98563 0.5104 0.07575 0.0
C583 C 0.95415 0.51442 0.05528 0.0
N584 N 0.9685 0.51384 0.0915 0.0
C585 C 0.94864 0.51625 0.07863 0.0
C586 C 0.02164 0.46724 0.02485 0.0
O587 O 0.03962 0.5243 0.00632 0.0
O588 O 0.02009 0.52667 0.03913 0.0
O589 O 0.00738 0.4785 0.03737 0.0
O590 O 0.02666 0.47639 1.00428 0.0
O591 O 0.96824 0.49148 0.01216 0.0
H592 H 0.94208 0.51617 0.04055 0.0
H593 H 1.00402 0.50853 0.08025 0.0
O594 O 0.98766 0.48971 0.97921 0.0
O595 O 1.00058 0.53758 0.9811 0.0
O596 O 0.98105 0.53973 0.01394 0.0
C597 C 0.9862 0.54884 0.99341 0.0
H598 H 0.06341 0.52713 0.92127 0.0
H599 H 0.93136 0.51936 0.08551 0.0
H600 H 0.1301 0.07532 0.26231 0.0
H601 H 0.11304 0.05554 0.2984 0.0
H602 H 0.09452 0.12629 0.32151 0.0
H603 H 0.1124 0.14617 0.28625 0.0
H604 H 0.11113 0.09969 0.35753 0.0
H605 H 0.04464 0.04194 0.31278 0.0
H606 H 0.07427 0.03653 0.30426 0.0
H607 H 0.06183 0.06596 0.29719 0.0
C608 C 0.12262 0.08674 0.27515 0.0
C609 C 0.12246 0.11247 0.27092 0.0
C610 C 0.1125 0.07532 0.29573 0.0
C611 C 0.10181 0.08924 0.31266 0.0
C612 C 0.10231 0.11493 0.30879 0.0
H613 H 1.00297 0.03668 0.42438 0.0
H614 H 0.02177 0.05397 0.38807 0.0
C615 C 0.11244 0.12633 0.28834 0.0
C616 C 0.09041 0.07741 0.33457 0.0
H617 H 0.04799 0.03511 0.35427 0.0
C618 C 0.09734 0.08555 0.35673 0.0
C619 C 0.07204 0.0592 0.33381 0.0
C620 C 0.06255 0.05053 0.31075 0.0
C621 C 0.08673 0.07602 0.37787 0.0
C622 C 0.06889 0.05724 0.37719 0.0
C623 C 0.06177 0.04926 0.35503 0.0
C624 C 0.05728 0.04595 0.39919 0.0
C625 C 0.09434 0.08678 0.40071 0.0
C626 C 0.07071 0.0351 0.41761 0.0
C627 C 0.06 0.02532 0.43846 0.0
C628 C 0.03543 0.02576 0.4415 0.0
C629 C 0.0219 0.036 0.42279 0.0
C630 C 0.03267 0.04591 0.40194 0.0
H631 H 0.10255 0.10545 0.39768 0.0
H632 H 0.07925 0.08795 0.41287 0.0
H633 H 0.10762 0.0749 0.40948 0.0
H634 H 0.0896 0.03417 0.4159 0.0
H635 H 0.07107 0.01745 0.45228 0.0
H636 H 0.45897 0.95872 0.7033 0.0
H637 H 0.46846 0.97444 0.74175 0.0
H638 H 0.49579 0.90425 0.76481 0.0
H639 H 0.48546 0.88808 0.72679 0.0
H640 H 0.46092 0.91815 0.79265 0.0
H641 H 0.52615 0.99516 0.77908 0.0
H642 H 0.50138 0.99777 0.7595 0.0
H643 H 0.52075 0.97257 0.75742 0.0
C644 C 0.46743 0.94678 0.7164 0.0
C645 C 0.4712 0.92207 0.71208 0.0
C646 C 0.47312 0.95589 0.73828 0.0
C647 C 0.48295 0.94055 0.7561 0.0
C648 C 0.48832 0.91642 0.75124 0.0
H649 H 0.50992 0.97885 0.90116 0.0
H650 H 0.51481 0.96785 0.86039 0.0
C651 C 0.48254 0.90726 0.72941 0.0
C652 C 0.48403 0.94832 0.78064 0.0
H653 H 0.50414 0.99381 0.81526 0.0
C654 C 0.47064 0.93451 0.79764 0.0
C655 C 0.49675 0.96963 0.78713 0.0
C656 C 0.51226 0.98451 0.76987 0.0
C657 C 0.46904 0.94183 0.82078 0.0
C658 C 0.4808 0.96377 0.82698 0.0
C659 C 0.49487 0.97718 0.81028 0.0
C660 C 0.47841 0.97296 0.85078 0.0
C661 C 0.45467 0.92605 0.83842 0.0
C662 C 0.45644 0.98011 0.85858 0.0
C663 C 0.45358 0.98648 0.88182 0.0
C664 C 0.47266 0.9859 0.89764 0.0
C665 C 0.49489 0.97971 0.88943 0.0
C666 C 0.49773 0.97333 0.86616 0.0
H667 H 0.45156 0.90712 0.83253 0.0
H668 H 0.46352 0.92494 0.8559 0.0
H669 H 0.4373 0.93434 0.84058 0.0
H670 H 0.4414 0.98026 0.84679 0.0
H671 H 0.43636 0.9916 0.88747 0.0
H672 H 0.62795 0.37684 0.71779 0.0
H673 H 0.6093 0.39319 0.68167 0.0
H674 H 0.62493 0.46702 0.70184 0.0
H675 H 0.64294 0.45082 0.73848 0.0
H676 H 0.57935 0.46078 0.686 0.0
H677 H 0.64158 0.42418 0.623 0.0
H678 H 0.62901 0.40103 0.64327 0.0
H679 H 0.64784 0.42506 0.65413 0.0
C680 C 0.62732 0.39657 0.71466 0.0
C681 C 0.63701 0.41249 0.73111 0.0
C682 C 0.6169 0.40589 0.69382 0.0
C683 C 0.61606 0.43135 0.68881 0.0
C684 C 0.62555 0.44731 0.70522 0.0
H685 H 0.57744 0.50027 0.55192 0.0
H686 H 0.59814 0.48703 0.58813 0.0
C687 C 0.63599 0.43801 0.7261 0.0
C688 C 0.60464 0.44127 0.66681 0.0
H689 H 0.60613 0.44016 0.60673 0.0
C690 C 0.58529 0.45638 0.66866 0.0
C691 C 0.61257 0.43583 0.64416 0.0
C692 C 0.63403 0.42084 0.64093 0.0
C693 C 0.57331 0.46567 0.64854 0.0
C694 C 0.58063 0.45936 0.62594 0.0
C695 C 0.60036 0.44478 0.62406 0.0
C696 C 0.56796 0.46756 0.60404 0.0
C697 C 0.55308 0.48238 0.65169 0.0
C698 C 0.5442 0.46076 0.60078 0.0
C699 C 0.53231 0.46833 0.58014 0.0
C700 C 0.54398 0.48274 0.56221 0.0
C701 C 0.56788 0.48928 0.56539 0.0
C702 C 0.57975 0.4817 0.58608 0.0
H703 H 0.55396 0.49089 0.66901 0.0
H704 H 0.55282 0.49722 0.63751 0.0
H705 H 0.53629 0.47151 0.65093 0.0
H706 H 0.53486 0.4494 0.61413 0.0
H707 H 0.51397 0.46279 0.57823 0.0
H708 H 0.97103 0.5315 0.31854 0.0
H709 H 0.97707 0.51451 0.28009 0.0
H710 H 0.9883 0.58779 0.24877 0.0
H711 H 0.98252 0.60479 0.28704 0.0
H712 H 0.94938 0.52251 0.24266 0.0
H713 H 0.04012 0.55245 0.21829 0.0
H714 H 0.02928 0.55319 0.24805 0.0
H715 H 0.02337 0.57783 0.22662 0.0
C716 C 0.9752 0.54393 0.30351 0.0
C717 C 0.97633 0.56948 0.30581 0.0
C718 C 0.97871 0.53421 0.28159 0.0
C719 C 0.98345 0.54984 0.26159 0.0
C720 C 0.98534 0.5753 0.26403 0.0
H721 H 0.94112 0.5396 0.11944 0.0
H722 H 0.94593 0.54475 0.16151 0.0
C723 C 0.98196 0.58502 0.28594 0.0
C724 C 0.9837 0.53994 0.2378 0.0
H725 H 0.01402 0.54298 0.18596 0.0
C726 C 0.96372 0.52661 0.23041 0.0
C727 C 1.00252 0.54495 0.22188 0.0
C728 C 0.02513 0.55766 0.22921 0.0
C729 C 0.96147 0.51939 0.20718 0.0
C730 C 0.97947 0.52612 0.19078 0.0
C731 C 1.00007 0.53816 0.19848 0.0
C732 C 0.97652 0.5223 0.16531 0.0
C733 C 0.93965 0.50493 0.20034 0.0
C734 C 0.99248 0.50843 0.15333 0.0
C735 C 0.98978 0.50544 0.12914 0.0
C736 C 0.97114 0.5164 0.11652 0.0
C737 C 0.95533 0.53042 0.12864 0.0
C738 C 0.95807 0.53341 0.15273 0.0
H739 H 0.93159 0.49469 0.21587 0.0
H740 H 0.92648 0.51779 0.19287 0.0
H741 H 0.9436 0.49169 0.18686 0.0
H742 H 0.00694 0.49983 0.16272 0.0
H743 H 1.00217 0.49441 0.12038 0.0
H744 H 0.295 0.14786 0.10909 0.0
H745 H 0.32997 0.13316 0.09002 0.0
H746 H 0.30495 0.05835 0.10376 0.0
H747 H 0.27012 0.07288 0.12301 0.0
H748 H 0.3502 0.06149 0.11367 0.0
H749 H 0.33801 0.10832 0.02579 0.0
H750 H 0.33933 0.12934 0.04898 0.0
H751 H 0.31541 0.10696 0.048 0.0
C752 C 0.29672 0.12827 0.10782 0.0
C753 C 0.27946 0.11167 0.11772 0.0
C754 C 0.31684 0.11983 0.09678 0.0
C755 C 0.32023 0.09451 0.09493 0.0
C756 C 0.30301 0.07795 0.1048 0.0
H757 H 0.42204 0.02961 1.00212 0.0
H758 H 0.38707 0.04552 0.02032 0.0
C759 C 0.283 0.08635 0.11596 0.0
C760 C 0.34187 0.08517 0.08342 0.0
H761 H 0.37481 0.08966 0.03282 0.0
C762 C 0.35548 0.06768 0.09596 0.0
C763 C 0.34889 0.09275 0.06011 0.0
C764 C 0.33453 0.11017 0.04483 0.0
C765 C 0.37573 0.05792 0.08615 0.0
C766 C 0.38325 0.06618 0.06317 0.0
C767 C 0.36946 0.08341 0.05049 0.0
C768 C 0.40497 0.05683 0.05184 0.0
C769 C 0.38847 0.03827 0.10039 0.0
C770 C 0.42711 0.05812 0.06305 0.0
C771 C 0.44719 0.04884 0.05269 0.0
C772 C 0.44589 0.03827 0.0306 0.0
C773 C 0.42385 0.03755 0.01912 0.0
C774 C 0.40375 0.04671 0.02956 0.0
H775 H 0.37683 0.02879 0.1139 0.0
H776 H 0.39533 0.02432 0.08893 0.0
H777 H 0.40353 0.04686 0.10973 0.0
H778 H 0.42896 0.0664 0.07987 0.0
H779 H 0.46378 0.04996 0.06208 0.0
H780 H 0.28279 0.89035 0.57849 0.0
H781 H 0.2424 0.90084 0.56855 0.0
H782 H 0.23112 0.92061 0.63996 0.0
H783 H 0.27136 0.90931 0.65036 0.0
H784 H 0.19198 0.89363 0.61845 0.0
H785 H 0.22605 0.97451 0.56354 0.0
H786 H 0.23757 0.94557 0.55641 0.0
H787 H 0.24424 0.95774 0.58452 0.0
C788 C 0.27161 0.89644 0.59223 0.0
C789 C 0.28033 0.8992 0.61518 0.0
C790 C 0.2486 0.90256 0.58647 0.0
C791 C 0.23398 0.91172 0.60348 0.0
C792 C 0.24224 0.9136 0.62662 0.0
H793 H 0.11863 0.00544 0.57422 0.0
H794 H 0.15223 0.98462 0.5921 0.0
C795 C 0.26527 0.90742 0.63244 0.0
C796 C 0.21078 0.92116 0.59663 0.0
H797 H 0.18512 0.96637 0.56274 0.0
C798 C 0.19037 0.90953 0.6063 0.0
C799 C 0.20892 0.94205 0.58098 0.0
C800 C 0.23033 0.95587 0.57088 0.0
C801 C 0.16798 0.91825 0.60048 0.0
C802 C 0.16617 0.93892 0.58454 0.0
C803 C 0.18662 0.95049 0.57496 0.0
C804 C 0.14343 0.94956 0.57769 0.0
C805 C 0.14652 0.90565 0.6117 0.0
C806 C 0.12694 0.93647 0.56433 0.0
C807 C 0.10761 0.94836 0.55422 0.0
C808 C 0.10485 0.97352 0.55707 0.0
C809 C 0.12062 0.98611 0.57156 0.0
C810 C 0.13971 0.97423 0.58182 0.0
H811 H 0.15116 0.8936 0.62733 0.0
H812 H 0.1339 0.91936 0.61715 0.0
H813 H 0.13755 0.89412 0.59867 0.0
H814 H 0.12974 0.91753 0.56061 0.0
H815 H 0.09573 0.93839 0.54295 0.0
H816 H 0.77162 0.42978 0.88993 0.0
H817 H 0.80758 0.44702 0.90736 0.0
H818 H 0.8359 0.37459 0.91486 0.0
H819 H 0.79984 0.35726 0.89791 0.0
H820 H 0.84222 0.39783 0.95424 0.0
H821 H 0.87156 0.46019 0.87914 0.0
H822 H 0.84234 0.46608 0.88856 0.0
H823 H 0.84835 0.43718 0.87636 0.0
C824 C 0.78565 0.4176 0.89502 0.0
C825 C 0.78287 0.39215 0.89253 0.0
C826 C 0.80625 0.42748 0.90492 0.0
C827 C 0.82469 0.41219 0.91214 0.0
C828 C 0.82199 0.3868 0.90944 0.0
H829 H 0.96645 0.46409 0.94829 0.0
H830 H 0.93181 0.44555 0.92967 0.0
C831 C 0.80133 0.3769 0.89978 0.0
C832 C 0.84637 0.42237 0.9234 0.0
H833 H 0.89126 0.46526 0.91579 0.0
C834 C 0.85299 0.4125 0.94575 0.0
C835 C 0.86069 0.44127 0.91226 0.0
C836 C 0.85554 0.45163 0.88766 0.0
C837 C 0.87325 0.42119 0.95736 0.0
C838 C 0.88701 0.4408 0.94665 0.0
C839 C 0.88061 0.45042 0.92415 0.0
C840 C 0.90818 0.45151 0.95839 0.0
C841 C 0.87993 0.40885 0.98077 0.0
C842 C 0.90651 0.46118 0.98072 0.0
C843 C 0.92635 0.47154 0.99154 0.0
C844 C 0.94827 0.47284 0.98009 0.0
C845 C 0.94988 0.46332 0.95765 0.0
C846 C 0.93005 0.45277 0.94694 0.0
H847 H 0.87213 0.38991 0.98293 0.0
H848 H 0.89931 0.40791 0.98271 0.0
H849 H 0.87316 0.41952 0.99521 0.0
H850 H 0.88975 0.46105 0.98968 0.0
H851 H 0.92441 0.47896 0.00869 0.0
H852 H 0.79731 0.55918 0.40379 0.0
H853 H 0.75653 0.55063 0.4156 0.0
H854 H 0.7735 0.57041 0.4863 0.0
H855 H 0.81453 0.57887 0.47466 0.0
H856 H 0.73665 0.51807 0.45128 0.0
H857 H 0.71979 0.61601 0.46586 0.0
H858 H 0.7454 0.60676 0.45043 0.0
H859 H 0.7441 0.60305 0.482 0.0
C860 C 0.7925 0.56137 0.42196 0.0
C861 C 0.80918 0.56978 0.43828 0.0
C862 C 0.76916 0.55655 0.42864 0.0
C863 C 0.76197 0.56014 0.45173 0.0
C864 C 0.77864 0.56791 0.46828 0.0
H865 H 0.61925 0.51882 0.50237 0.0
H866 H 0.66218 0.52129 0.49856 0.0
C867 C 0.80204 0.57277 0.4616 0.0
C868 C 0.73682 0.55652 0.45803 0.0
H869 H 0.68826 0.58752 0.47252 0.0
C870 C 0.72606 0.53317 0.45614 0.0
C871 C 0.72309 0.57636 0.46413 0.0
C872 C 0.73355 0.60202 0.46558 0.0
C873 C 0.7018 0.5292 0.45981 0.0
C874 C 0.68807 0.54908 0.46575 0.0
C875 C 0.69891 0.57231 0.46808 0.0
C876 C 0.66216 0.54671 0.46794 0.0
C877 C 0.69089 0.50405 0.45643 0.0
C878 C 0.64799 0.56027 0.45209 0.0
C879 C 0.62356 0.55888 0.4542 0.0
C880 C 0.61274 0.54399 0.47229 0.0
C881 C 0.62699 0.53021 0.48805 0.0
C882 C 0.65152 0.53162 0.48593 0.0
H883 H 0.70309 0.49199 0.44765 0.0
H884 H 0.68616 0.49517 0.47388 0.0
H885 H 0.67453 0.50548 0.44575 0.0
H886 H 0.65587 0.57195 0.43803 0.0
H887 H 0.61316 0.56943 0.44154 0.0
H888 H 0.09306 0.25663 0.11563 0.0
H889 H 0.07255 0.29292 0.1002 0.0
H890 H 0.13905 0.32957 0.08333 0.0
H891 H 0.15974 0.29358 0.09921 0.0
H892 H 0.10825 0.36 0.10492 0.0
H893 H 0.06334 0.31528 0.03092 0.0
H894 H 0.05824 0.29993 0.05931 0.0
H895 H 0.08737 0.30146 0.0471 0.0
C896 C 0.10341 0.27242 0.10879 0.0
C897 C 0.12819 0.27191 0.10867 0.0
C898 C 0.09158 0.29316 0.09968 0.0
C899 C 0.10413 0.31403 0.09017 0.0
C900 C 0.12885 0.31373 0.09035 0.0
H901 H 0.05071 0.43706 1.00192 0.0
H902 H 0.07031 0.40039 0.01794 0.0
C903 C 0.1407 0.29297 0.09933 0.0
C904 C 0.0916 0.33624 0.08036 0.0
H905 H 0.05215 0.35572 0.03802 0.0
C906 C 0.09599 0.35901 0.0903 0.0
C907 C 0.07574 0.33524 0.06104 0.0
C908 C 0.07099 0.31174 0.04878 0.0
C909 C 0.08481 0.38051 0.08177 0.0
C910 C 0.06852 0.37939 0.06284 0.0
C911 C 0.0644 0.3567 0.05266 0.0
C912 C 0.05601 0.40162 0.05304 0.0
C913 C 0.09095 0.40442 0.09284 0.0
C914 C 0.04099 0.41453 0.06719 0.0
C915 C 0.02963 0.43554 0.05801 0.0
C916 C 0.03294 0.44425 0.0344 0.0
C917 C 0.04771 0.43105 0.02018 0.0
C918 C 0.05896 0.40998 0.02933 0.0
H919 H 0.10774 0.40351 0.10289 0.0
H920 H 0.09243 0.4198 0.07924 0.0
H921 H 0.07682 0.40856 0.10527 0.0
H922 H 0.03797 0.40832 0.08539 0.0
H923 H 0.01839 0.44509 0.06954 0.0
H924 H 0.57775 0.25895 0.88076 0.0
H925 H 0.5594 0.22204 0.90005 0.0
H926 H 0.62778 0.19197 0.91261 0.0
H927 H 0.64628 0.22852 0.89265 0.0
H928 H 0.5956 0.15853 0.8945 0.0
H929 H 0.55767 0.20287 0.97056 0.0
H930 H 0.54954 0.21669 0.9424 0.0
H931 H 0.5798 0.21795 0.9517 0.0
C932 C 0.58892 0.24445 0.88751 0.0
C933 C 0.61353 0.24675 0.88514 0.0
C934 C 0.57839 0.22347 0.89879 0.0
C935 C 0.59222 0.20438 0.90809 0.0
C936 C 0.61677 0.20655 0.90571 0.0
H937 H 0.54856 0.08196 1.0038 0.0
H938 H 0.56619 0.1195 0.98499 0.0
C939 C 0.62733 0.22754 0.89444 0.0
C940 C 0.58105 0.18186 0.91969 0.0
H941 H 0.54554 0.16138 0.96547 0.0
C942 C 0.5847 0.15914 0.91005 0.0
C943 C 0.56704 0.18263 0.94013 0.0
C944 C 0.56342 0.2063 0.95198 0.0
C945 C 0.57446 0.13723 0.92009 0.0
C946 C 0.55987 0.1381 0.94012 0.0
C947 C 0.5565 0.16077 0.94996 0.0
C948 C 0.54851 0.11558 0.95153 0.0
C949 C 0.57973 0.11328 0.90945 0.0
C950 C 0.53236 0.10109 0.93911 0.0
C951 C 0.52223 0.07956 0.94981 0.0
C952 C 0.52797 0.07217 0.97321 0.0
C953 C 0.54376 0.08705 0.98575 0.0
C954 C 0.55386 0.10854 0.97503 0.0
H955 H 0.59563 0.11501 0.89813 0.0
H956 H 0.58241 0.09854 0.92339 0.0
H957 H 0.56464 0.10758 0.89833 0.0
H958 H 0.5276 0.10642 0.92111 0.0
H959 H 0.51007 0.0686 0.93968 0.0
H960 H 0.9514 0.73097 0.48046 0.0
H961 H 0.96511 0.77258 0.48808 0.0
H962 H 0.9937 0.78142 0.41786 0.0
H963 H 0.97826 0.74069 0.40932 0.0
H964 H 1.00622 0.79588 0.48917 0.0
H965 H 0.95306 0.83937 0.41715 0.0
H966 H 0.94983 0.80719 0.42587 0.0
H967 H 0.97359 0.81819 0.40686 0.0
C968 C 0.96026 0.74183 0.46645 0.0
C969 C 0.96324 0.73245 0.44409 0.0
C970 C 0.96838 0.76557 0.47096 0.0
C971 C 0.97995 0.7804 0.45336 0.0
C972 C 0.98421 0.77062 0.43151 0.0
H973 H 0.04311 0.92406 0.48929 0.0
H974 H 0.03894 0.88115 0.47855 0.0
C975 C 0.97568 0.74706 0.4268 0.0
C976 C 0.98676 0.8063 0.45777 0.0
H977 H 0.97874 0.86556 0.43761 0.0
C978 C 1.00025 0.81114 0.47789 0.0
C979 C 0.97875 0.82623 0.44317 0.0
C980 C 0.96282 0.82255 0.4222 0.0
C981 C 1.00551 0.83531 0.4841 0.0
C982 C 0.99776 0.8552 0.4693 0.0
C983 C 0.98481 0.85032 0.44887 0.0
C984 C 1.00094 0.88121 0.47557 0.0
C985 C 0.01837 0.8392 0.50697 0.0
C986 C 0.98114 0.89577 0.47672 0.0
C987 C 0.98354 0.9203 0.48222 0.0
C988 C 1.00581 0.93085 0.48698 0.0
C989 C 0.02571 0.91635 0.48587 0.0
C990 C 0.02332 0.89178 0.47992 0.0
H991 H 0.01758 0.82242 0.51899 0.0
H992 H 0.03716 0.84382 0.50318 0.0
H993 H 0.01093 0.85454 0.51625 0.0
H994 H 0.96369 0.88808 0.47348 0.0
H995 H 0.96783 0.93091 0.48304 0.0
H996 H 0.41681 0.755 0.5477 0.0
H997 H 0.42897 0.71425 0.53815 0.0
H998 H 0.46576 0.70663 0.60463 0.0
H999 H 0.45248 0.74675 0.61498 0.0
H1000 H 0.47118 0.69588 0.53278 0.0
H1001 H 0.42519 0.6446 0.60689 0.0
H1002 H 0.42021 0.67655 0.59921 0.0
H1003 H 0.44555 0.66786 0.61645 0.0
C1004 C 0.42727 0.74456 0.56042 0.0
C1005 C 0.43341 0.75402 0.58224 0.0
C1006 C 0.43434 0.72135 0.55486 0.0
C1007 C 0.4478 0.7072 0.57092 0.0
C1008 C 0.45484 0.71698 0.59226 0.0
H1009 H 0.5241 0.58093 0.53189 0.0
H1010 H 0.5125 0.62064 0.54497 0.0
C1011 C 0.44756 0.74011 0.59797 0.0
C1012 C 0.45459 0.68231 0.56512 0.0
H1013 H 0.45142 0.62197 0.58462 0.0
C1014 C 0.46681 0.67971 0.54407 0.0
C1015 C 0.44846 0.6612 0.57969 0.0
C1016 C 0.43392 0.6626 0.60169 0.0
C1017 C 0.47332 0.6566 0.53729 0.0
C1018 C 0.46814 0.63562 0.55238 0.0
C1019 C 0.45564 0.63815 0.57327 0.0
C1020 C 0.47533 0.61087 0.54658 0.0
C1021 C 0.4852 0.65487 0.51376 0.0
C1022 C 0.4584 0.59179 0.54445 0.0
C1023 C 0.46505 0.56886 0.53745 0.0
C1024 C 0.48869 0.56483 0.53232 0.0
C1025 C 0.50569 0.58366 0.5354 0.0
C1026 C 0.49909 0.6064 0.54272 0.0
H1027 H 0.4815 0.67096 0.50161 0.0
H1028 H 0.50452 0.65448 0.51645 0.0
H1029 H 0.4794 0.63791 0.50514 0.0
H1030 H 0.43998 0.59485 0.54756 0.0
H1031 H 0.4516 0.55464 0.53523 0.0
H1032 H 0.91696 0.89964 0.75322 0.0
H1033 H 0.93793 0.91492 0.71759 0.0
H1034 H 0.87195 0.93178 0.68385 0.0
H1035 H 0.85083 0.91649 0.71933 0.0
H1036 H 0.93705 0.90041 0.67256 0.0
H1037 H 0.90775 0.99621 0.67197 0.0
H1038 H 0.90343 0.9748 0.69704 0.0
H1039 H 0.88373 0.97406 0.67217 0.0
C1040 C 0.9068 0.90647 0.73823 0.0
C1041 C 0.88203 0.90685 0.73947 0.0
C1042 C 0.91891 0.91535 0.71779 0.0
C1043 C 0.90671 0.92503 0.69795 0.0
C1044 C 0.88199 0.92513 0.699 0.0
H1045 H 0.94289 0.98309 0.55613 0.0
H1046 H 0.92403 0.96812 0.59295 0.0
C1047 C 0.86986 0.9163 0.71943 0.0
C1048 C 0.91976 0.93451 0.6761 0.0
H1049 H 0.92716 0.98471 0.63747 0.0
C1050 C 0.93499 0.91892 0.66503 0.0
C1051 C 0.91726 0.9587 0.66605 0.0
C1052 C 0.90235 0.97701 0.67752 0.0
C1053 C 0.94711 0.9265 0.64406 0.0
C1054 C 0.94439 0.95059 0.63388 0.0
C1055 C 0.92933 0.96624 0.64507 0.0
C1056 C 0.95641 0.95973 0.61135 0.0
C1057 C 0.96215 0.9083 0.63259 0.0
C1058 C 0.98111 0.96043 0.60917 0.0
C1059 C 0.99206 0.96907 0.58795 0.0
C1060 C 0.97862 0.97736 0.56835 0.0
C1061 C 0.95393 0.97687 0.57071 0.0
C1062 C 0.94304 0.96829 0.59187 0.0
H1063 H 0.95763 0.8891 0.63893 0.0
H1064 H 0.96018 0.90981 0.61311 0.0
H1065 H 0.98088 0.91218 0.63697 0.0
H1066 H 0.99199 0.95449 0.62396 0.0
H1067 H 0.01107 0.96924 0.58692 0.0
H1068 H 0.51438 0.08292 0.30182 0.0
H1069 H 0.5002 0.06471 0.26554 0.0
H1070 H 0.5718 0.05815 0.24287 0.0
H1071 H 0.58604 0.077 0.27811 0.0
H1072 H 0.5117 0.08512 0.21845 0.0
H1073 H 0.54041 0.98952 0.23281 0.0
H1074 H 0.53586 0.00935 0.25675 0.0
H1075 H 0.56283 0.01174 0.24026 0.0
C1076 C 0.52708 0.07751 0.28913 0.0
C1077 C 0.55138 0.08121 0.29307 0.0
C1078 C 0.51895 0.06695 0.26856 0.0
C1079 C 0.53501 0.05963 0.25188 0.0
C1080 C 0.55917 0.06303 0.25589 0.0
H1081 H 0.55856 0.0593 0.10954 0.0
H1082 H 0.55183 0.06596 0.15107 0.0
C1083 C 0.56727 0.07377 0.27616 0.0
C1084 C 0.52711 0.05066 0.22902 0.0
H1085 H 0.53756 0.0051 0.19207 0.0
C1086 C 0.51668 0.06734 0.2128 0.0
C1087 C 0.5334 0.02738 0.22182 0.0
C1088 C 0.54354 0.00836 0.23891 0.0
C1089 C 0.51441 0.06218 0.18898 0.0
C1090 C 0.52296 0.03993 0.18136 0.0
C1091 C 0.53131 0.0223 0.19796 0.0
C1092 C 0.52615 0.03599 0.1561 0.0
C1093 C 0.50398 0.08108 0.17195 0.0
C1094 C 0.51435 0.01655 0.14541 0.0
C1095 C 0.51827 0.01262 0.12166 0.0
C1096 C 0.53432 0.02786 0.1084 0.0
C1097 C 0.5463 0.0471 0.11934 0.0
C1098 C 0.54224 0.05113 0.14296 0.0
H1099 H 0.49208 0.09321 0.18107 0.0
H1100 H 0.51837 0.09278 0.16376 0.0
H1101 H 0.49402 0.07218 0.15769 0.0
H1102 H 0.50211 0.00449 0.15542 0.0
H1103 H 0.50899 0.99751 0.11372 0.0
H1104 H 0.34663 0.59071 0.29644 0.0
H1105 H 0.36619 0.57394 0.332 0.0
H1106 H 0.4338 0.59159 0.30049 0.0
H1107 H 0.41451 0.60783 0.26465 0.0
H1108 H 0.40044 0.53515 0.33616 0.0
H1109 H 0.43602 0.62481 0.36489 0.0
H1110 H 0.4123 0.62246 0.34378 0.0
H1111 H 0.4421 0.61842 0.33486 0.0
C1112 C 0.36567 0.59081 0.29691 0.0
C1113 C 0.37895 0.60078 0.27761 0.0
C1114 C 0.3768 0.58133 0.31733 0.0
C1115 C 0.40143 0.58181 0.319 0.0
C1116 C 0.41476 0.59144 0.29974 0.0
H1117 H 0.50398 0.54152 0.42642 0.0
H1118 H 0.48301 0.55612 0.39097 0.0
C1119 C 0.40367 0.60081 0.27927 0.0
C1120 C 0.41323 0.57212 0.34082 0.0
H1121 H 0.44876 0.58914 0.38618 0.0
C1122 C 0.41092 0.54693 0.34719 0.0
C1123 C 0.42693 0.58753 0.35512 0.0
C1124 C 0.42941 0.61485 0.34952 0.0
C1125 C 0.42242 0.53662 0.36719 0.0
C1126 C 0.43615 0.55204 0.38154 0.0
C1127 C 0.43828 0.57729 0.3752 0.0
C1128 C 0.44876 0.54242 0.40299 0.0
C1129 C 0.42034 0.50919 0.3723 0.0
C1130 C 0.43651 0.52997 0.42171 0.0
C1131 C 0.44851 0.5214 0.442 0.0
C1132 C 0.47298 0.52541 0.4441 0.0
C1133 C 0.48515 0.53806 0.4254 0.0
C1134 C 0.47317 0.54646 0.4051 0.0
H1135 H 0.41498 0.49943 0.35638 0.0
H1136 H 0.43723 0.50182 0.37897 0.0
H1137 H 0.40673 0.50506 0.38599 0.0
H1138 H 0.41761 0.52715 0.4208 0.0
H1139 H 0.43855 0.51194 0.45614 0.0
H1140 H 0.04564 0.37521 0.73831 0.0
H1141 H 0.0392 0.38746 0.77849 0.0
H1142 H 0.05173 0.4634 0.75545 0.0
H1143 H 0.05759 0.45138 0.71509 0.0
H1144 H 0.07246 0.41209 0.80569 0.0
H1145 H 0.99116 0.46496 0.79428 0.0
H1146 H 1.00065 0.44407 0.77292 0.0
H1147 H 0.01388 0.47441 0.77358 0.0
C1148 C 0.04647 0.39457 0.74168 0.0
C1149 C 0.05204 0.41235 0.72351 0.0
C1150 C 0.04297 0.4015 0.76467 0.0
C1151 C 0.04476 0.42633 0.76986 0.0
C1152 C 0.04988 0.44417 0.75171 0.0
H1153 H 0.07766 0.49543 0.89828 0.0
H1154 H 0.07775 0.47646 0.8603 0.0
C1155 C 0.05344 0.43726 0.72873 0.0
C1156 C 0.04282 0.43347 0.7945 0.0
H1157 H 0.01284 0.47001 0.82994 0.0
C1158 C 0.05928 0.42456 0.81108 0.0
C1159 C 0.02545 0.44949 0.8015 0.0
C1160 C 1.00662 0.45863 0.78471 0.0
C1161 C 0.05935 0.43196 0.83434 0.0
C1162 C 0.04271 0.44894 0.84102 0.0
C1163 C 0.02571 0.45715 0.82467 0.0
C1164 C 0.04315 0.45915 0.8646 0.0
C1165 C 0.07725 0.4216 0.85154 0.0
C1166 C 0.02357 0.45589 0.87948 0.0
C1167 C 0.02341 0.46687 0.90112 0.0
C1168 C 0.04275 0.48151 0.90815 0.0
C1169 C 0.06245 0.48443 0.8933 0.0
C1170 C 0.06262 0.4734 0.87171 0.0
H1171 H 0.08414 0.40407 0.84578 0.0
H1172 H 0.09231 0.43493 0.85271 0.0
H1173 H 0.06959 0.41833 0.86942 0.0
H1174 H 0.00831 0.44509 0.87419 0.0
H1175 H 0.00782 0.46454 0.91195 0.0
H1176 H 0.73936 0.93126 0.88899 0.0
H1177 H 0.7045 0.94948 0.90529 0.0
H1178 H 0.67393 0.87712 0.9208 0.0
H1179 H 0.70864 0.85887 0.90482 0.0
H1180 H 0.65846 0.94899 0.89474 0.0
H1181 H 0.66793 0.90497 0.98414 0.0
H1182 H 0.69067 0.90431 0.96222 0.0
H1183 H 0.66591 0.88289 0.96193 0.0
C1184 C 0.72518 0.91918 0.89575 0.0
C1185 C 0.7272 0.89346 0.89579 0.0
C1186 C 0.70519 0.92967 0.90519 0.0
C1187 C 0.68657 0.9148 0.91499 0.0
C1188 C 0.6882 0.88917 0.91422 0.0
H1189 H 0.54412 0.96494 0.94391 0.0
H1190 H 0.57902 0.94788 0.92679 0.0
C1191 C 0.70818 0.87869 0.90494 0.0
C1192 C 0.66547 0.92597 0.9258 0.0
H1193 H 0.63162 0.92421 0.97573 0.0
C1194 C 0.6527 0.94359 0.91249 0.0
C1195 C 0.65788 0.91946 0.94917 0.0
C1196 C 0.67144 0.90208 0.96529 0.0
C1197 C 0.63256 0.95434 0.92157 0.0
C1198 C 0.62437 0.947 0.94457 0.0
C1199 C 0.63745 0.92976 0.95803 0.0
C1200 C 0.60266 0.95721 0.95517 0.0
C1201 C 0.62063 0.97394 0.90652 0.0
C1202 C 0.60366 0.96748 0.9774 0.0
C1203 C 0.58352 0.97697 0.98745 0.0
C1204 C 0.56165 0.97645 0.97565 0.0
C1205 C 0.56058 0.96587 0.95355 0.0
C1206 C 0.58071 0.95627 0.94356 0.0
H1207 H 0.63282 0.98277 0.89312 0.0
H1208 H 0.60564 0.96546 0.89699 0.0
H1209 H 0.61381 0.98841 0.91741 0.0
H1210 H 0.62017 0.96843 0.98694 0.0
H1211 H 0.58516 0.98492 1.00446 0.0
H1212 H 0.74402 0.10342 0.36187 0.0
H1213 H 0.7852 0.09436 0.37039 0.0
H1214 H 0.77353 0.10413 0.44421 0.0
H1215 H 0.73245 0.11354 0.43576 0.0
H1216 H 0.81752 0.12361 0.42765 0.0
H1217 H 0.79979 0.02749 0.40238 0.0
H1218 H 0.7938 0.05107 0.38004 0.0
H1219 H 0.77653 0.0485 0.40651 0.0
C1220 C 0.75032 0.10374 0.37989 0.0
C1221 C 0.73505 0.10881 0.39823 0.0
C1222 C 0.7738 0.09866 0.3847 0.0
C1223 C 0.78223 0.09824 0.40796 0.0
C1224 C 0.76731 0.1044 0.42614 0.0
H1225 H 0.8792 0.01575 0.4856 0.0
H1226 H 0.8471 0.03878 0.46773 0.0
C1227 C 0.74388 0.10971 0.42131 0.0
C1228 C 0.80588 0.08927 0.4138 0.0
H1229 H 0.83745 0.03713 0.41669 0.0
C1230 C 0.82209 0.10482 0.42498 0.0
C1231 C 0.8116 0.06468 0.41039 0.0
C1232 C 0.79451 0.04685 0.39935 0.0
C1233 C 0.84364 0.0961 0.43354 0.0
C1234 C 0.84897 0.07136 0.43067 0.0
C1235 C 0.83322 0.05615 0.41867 0.0
C1236 C 0.86918 0.05978 0.44257 0.0
C1237 C 0.86004 0.11286 0.44667 0.0
C1238 C 0.89226 0.06436 0.43452 0.0
C1239 C 0.91074 0.05108 0.44472 0.0
C1240 C 0.90619 0.03297 0.46285 0.0
C1241 C 0.88314 0.02919 0.47132 0.0
C1242 C 0.86483 0.04243 0.46125 0.0
H1243 H 0.8526 0.13121 0.44864 0.0
H1244 H 0.8639 0.10442 0.46445 0.0
H1245 H 0.87696 0.11533 0.43706 0.0
H1246 H 0.89584 0.07758 0.41995 0.0
H1247 H 0.92836 0.05426 0.43786 0.0
H1248 H 0.24058 0.62343 0.0828 0.0
H1249 H 0.20372 0.60634 0.06727 0.0
H1250 H 0.17612 0.5966 0.1378 0.0
H1251 H 0.21287 0.61411 0.1535 0.0
H1252 H 0.18154 0.55909 0.07871 0.0
H1253 H 0.12536 0.63614 0.10063 0.0
H1254 H 0.15707 0.63908 0.09985 0.0
H1255 H 0.14264 0.623 0.12443 0.0
C1256 C 0.22662 0.61784 0.09502 0.0
C1257 C 0.22962 0.62033 0.1194 0.0
C1258 C 0.20561 0.60794 0.08611 0.0
C1259 C 0.18705 0.60051 0.10133 0.0
C1260 C 0.19008 0.60256 0.1257 0.0
H1261 H 0.04511 0.54246 0.07341 0.0
H1262 H 0.08093 0.55885 0.0918 0.0
C1263 C 0.21118 0.61235 0.13466 0.0
C1264 C 0.16468 0.59043 0.09156 0.0
H1265 H 0.10637 0.60206 0.08394 0.0
C1266 C 0.16509 0.56846 0.07985 0.0
C1267 C 0.14323 0.60263 0.09318 0.0
C1268 C 0.14192 0.62662 0.10503 0.0
C1269 C 0.14461 0.55829 0.0698 0.0
C1270 C 0.12322 0.57075 0.07096 0.0
C1271 C 0.12276 0.59256 0.08297 0.0
C1272 C 0.10123 0.56156 0.0596 0.0
C1273 C 0.14604 0.53402 0.05842 0.0
C1274 C 0.10048 0.55821 0.03527 0.0
C1275 C 0.08008 0.54877 0.02472 0.0
C1276 C 0.05985 0.54273 0.03824 0.0
C1277 C 0.06037 0.54689 0.06247 0.0
C1278 C 0.08085 0.55623 0.07303 0.0
H1279 H 0.16139 0.52357 0.06505 0.0
H1280 H 0.12982 0.52248 0.06167 0.0
H1281 H 0.14812 0.53745 0.0391 0.0
H1282 H 0.11575 0.56281 0.0244 0.0
H1283 H 0.08026 0.546 0.00599 0.0
H1284 H 0.22315 0.4412 0.61546 0.0
H1285 H 0.26314 0.45227 0.603 0.0
H1286 H 0.2463 0.4316 0.53253 0.0
H1287 H 0.2057 0.42175 0.54452 0.0
H1288 H 0.29439 0.42201 0.58757 0.0
H1289 H 0.28101 0.49666 0.51909 0.0
H1290 H 0.2581 0.48571 0.53927 0.0
H1291 H 0.26436 0.469 0.51373 0.0
C1292 C 0.22767 0.43961 0.59713 0.0
C1293 C 0.21105 0.43071 0.58097 0.0
C1294 C 0.25066 0.44577 0.59009 0.0
C1295 C 0.25768 0.44309 0.56676 0.0
C1296 C 0.24118 0.43435 0.5505 0.0
H1297 H 0.40132 0.4225 0.52613 0.0
H1298 H 0.35911 0.41897 0.53379 0.0
C1299 C 0.21804 0.42836 0.55749 0.0
C1300 C 0.2827 0.44767 0.56013 0.0
H1301 H 0.31935 0.47996 0.52135 0.0
C1302 C 0.29982 0.4348 0.57317 0.0
C1303 C 0.28982 0.46458 0.54152 0.0
C1304 C 0.27239 0.47997 0.52774 0.0
C1305 C 0.3238 0.43805 0.56794 0.0
C1306 C 0.33086 0.45413 0.54869 0.0
C1307 C 0.31384 0.46742 0.5359 0.0
C1308 C 0.35588 0.45707 0.54163 0.0
C1309 C 0.34136 0.42444 0.58332 0.0
C1310 C 0.36783 0.47997 0.54235 0.0
C1311 C 0.39201 0.48207 0.53776 0.0
C1312 C 0.40453 0.46128 0.53249 0.0
C1313 C 0.39223 0.43869 0.5307 0.0
C1314 C 0.36813 0.43665 0.53506 0.0
H1315 H 0.33388 0.41868 0.60087 0.0
H1316 H 0.34638 0.40763 0.57469 0.0
H1317 H 0.35754 0.43593 0.58598 0.0
H1318 H 0.35864 0.49599 0.54725 0.0
H1319 H 0.40107 0.49968 0.53926 0.0
H1320 H 0.87706 0.75157 0.93166 0.0
H1321 H 0.89458 0.71549 0.95173 0.0
H1322 H 0.91647 0.6908 0.88482 0.0
H1323 H 0.89855 0.72614 0.8646 0.0
H1324 H 0.88646 0.66255 0.94484 0.0
H1325 H 0.97826 0.69403 0.92462 0.0
H1326 H 0.95395 0.71455 0.92292 0.0
H1327 H 0.95861 0.69418 0.89972 0.0
C1328 C 0.88532 0.73835 0.92112 0.0
C1329 C 0.88656 0.74224 0.89638 0.0
C1330 C 0.89549 0.71773 0.93269 0.0
C1331 C 0.90731 0.70056 0.91989 0.0
C1332 C 0.90796 0.70399 0.89522 0.0
H1333 H 0.9894 0.57001 0.94845 0.0
H1334 H 0.96984 0.60635 0.93184 0.0
C1335 C 0.89772 0.72441 0.88366 0.0
C1336 C 0.9191 0.67911 0.93209 0.0
H1337 H 0.97278 0.65334 0.94084 0.0
C1338 C 0.90535 0.66062 0.94414 0.0
C1339 C 0.94376 0.67639 0.93111 0.0
C1340 C 0.95961 0.69589 0.91908 0.0
C1341 C 0.91544 0.63926 0.95455 0.0
C1342 C 0.94017 0.63649 0.95355 0.0
C1343 C 0.95389 0.65521 0.94171 0.0
C1344 C 0.95214 0.61418 0.96408 0.0
C1345 C 0.8993 0.61946 0.9657 0.0
C1346 C 0.94923 0.60635 0.98797 0.0
C1347 C 0.96031 0.58532 0.99752 0.0
C1348 C 0.97496 0.57172 0.98356 0.0
C1349 C 0.97829 0.57992 0.95981 0.0
C1350 C 0.96706 0.6008 0.95025 0.0
H1351 H 0.88101 0.62093 0.95891 0.0
H1352 H 0.90552 0.60088 0.96241 0.0
H1353 H 0.89884 0.62142 0.98502 0.0
H1354 H 0.93846 0.61657 0.99936 0.0
H1355 H 0.95742 0.57976 0.01589 0.0
H1356 H 0.40849 0.78594 0.15652 0.0
H1357 H 0.42641 0.82234 0.1359 0.0
H1358 H 0.40537 0.79454 0.06917 0.0
H1359 H 0.3879 0.7577 0.08954 0.0
H1360 H 0.46283 0.82348 0.09945 0.0
H1361 H 0.37966 0.86566 0.0685 0.0
H1362 H 0.3805 0.84246 0.09242 0.0
H1363 H 0.38296 0.83392 0.06249 0.0
C1364 C 0.40783 0.78738 0.13744 0.0
C1365 C 0.3967 0.76878 0.12473 0.0
C1366 C 0.41798 0.8083 0.1257 0.0
C1367 C 0.41702 0.81124 0.10104 0.0
C1368 C 0.40598 0.7928 0.08825 0.0
H1369 H 0.46288 0.93007 1.00127 0.0
H1370 H 0.44649 0.8919 0.02012 0.0
C1371 C 0.39593 0.77178 0.09995 0.0
C1372 C 0.42793 0.83345 0.08873 0.0
H1373 H 0.41514 0.88546 0.05553 0.0
C1374 C 0.45244 0.83708 0.08986 0.0
C1375 C 0.41433 0.85104 0.07613 0.0
C1376 C 0.38788 0.8483 0.07486 0.0
C1377 C 0.46377 0.85772 0.07849 0.0
C1378 C 0.45013 0.87558 0.06618 0.0
C1379 C 0.4256 0.87182 0.06496 0.0
C1380 C 0.46087 0.8984 0.05465 0.0
C1381 C 0.49027 0.85989 0.07936 0.0
C1382 C 0.47432 0.9149 0.06778 0.0
C1383 C 0.48389 0.93664 0.05701 0.0
C1384 C 0.47993 0.94254 0.03292 0.0
C1385 C 0.46634 0.92607 0.01983 0.0
C1386 C 0.45691 0.90425 0.03059 0.0
H1387 H 0.49818 0.8417 0.08298 0.0
H1388 H 0.49753 0.86819 0.06254 0.0
H1389 H 0.49571 0.87179 0.09378 0.0
H1390 H 0.47712 0.91116 0.08649 0.0
H1391 H 0.49405 0.94903 0.06768 0.0
H1392 H 0.04301 0.25766 0.6036 0.0
H1393 H 0.02681 0.21782 0.59358 0.0
H1394 H 0.05283 0.23014 0.52263 0.0
H1395 H 0.06725 0.27116 0.53181 0.0
H1396 H 0.01123 0.20679 0.52228 0.0
H1397 H 0.06751 0.16033 0.58986 0.0
H1398 H 0.04776 0.18099 0.60228 0.0
H1399 H 0.07046 0.19278 0.58233 0.0
C1400 C 0.04483 0.25234 0.58565 0.0
C1401 C 0.05671 0.2678 0.56858 0.0
C1402 C 0.03586 0.22924 0.58008 0.0
C1403 C 0.03921 0.22065 0.55757 0.0
C1404 C 0.05026 0.23626 0.54022 0.0
H1405 H 0.04745 0.07108 0.52374 0.0
H1406 H 0.05271 0.11381 0.53308 0.0
C1407 C 0.0588 0.25963 0.54562 0.0
C1408 C 0.03207 0.19507 0.55235 0.0
H1409 H 0.03994 0.1352 0.57041 0.0
C1410 C 0.0175 0.1911 0.53277 0.0
C1411 C 0.04048 0.1746 0.56592 0.0
C1412 C 0.0576 0.17733 0.5861 0.0
C1413 C 0.0114 0.16724 0.52619 0.0
C1414 C 0.01949 0.14682 0.54003 0.0
C1415 C 0.0336 0.15085 0.55989 0.0
C1416 C 0.01551 0.12108 0.53328 0.0
C1417 C 0.9972 0.16421 0.50396 0.0
C1418 C 0.99278 0.1108 0.53011 0.0
C1419 C 0.98971 0.08624 0.52428 0.0
C1420 C 0.00932 0.0715 0.52214 0.0
C1421 C 0.03195 0.08185 0.52548 0.0
C1422 C 0.035 0.10634 0.53082 0.0
H1423 H 0.99758 0.1813 0.49237 0.0
H1424 H 1.00384 0.14906 0.49382 0.0
H1425 H 0.97861 0.1597 0.50871 0.0
H1426 H 0.97743 0.12161 0.53246 0.0
H1427 H 0.97207 0.07868 0.5219 0.0
H1428 H 0.58533 0.24918 0.4577 0.0
H1429 H 0.57276 0.29023 0.4662 0.0
H1430 H 0.56208 0.30712 0.39187 0.0
H1431 H 0.57415 0.26585 0.38335 0.0
H1432 H 0.59345 0.3337 0.45173 0.0
H1433 H 0.50124 0.32877 0.41928 0.0
H1434 H 0.51875 0.30191 0.42376 0.0
H1435 H 0.52268 0.32191 0.39775 0.0
C1436 C 0.58007 0.26161 0.44323 0.0
C1437 C 0.58059 0.25441 0.4199 0.0
C1438 C 0.57292 0.285 0.44808 0.0
C1439 C 0.56627 0.30161 0.42968 0.0
C1440 C 0.56662 0.2944 0.40636 0.0
H1441 H 0.55796 0.45884 0.4536 0.0
H1442 H 0.56937 0.41998 0.43794 0.0
C1443 C 0.57353 0.27087 0.40152 0.0
C1444 C 0.56 0.3268 0.43499 0.0
H1445 H 0.51573 0.36752 0.43079 0.0
C1446 C 0.57647 0.34114 0.44714 0.0
C1447 C 0.5378 0.33634 0.42903 0.0
C1448 C 0.519 0.32138 0.41693 0.0
C1449 C 0.5712 0.36465 0.45391 0.0
C1450 C 0.54908 0.37429 0.44777 0.0
C1451 C 0.53276 0.36012 0.43526 0.0
C1452 C 0.54174 0.39814 0.45589 0.0
C1453 C 0.589 0.37851 0.46836 0.0
C1454 C 0.52202 0.3988 0.47048 0.0
C1455 C 0.51531 0.42089 0.47915 0.0
C1456 C 0.52826 0.44278 0.47345 0.0
C1457 C 0.54778 0.44222 0.45845 0.0
C1458 C 0.55437 0.42005 0.44959 0.0
H1459 H 0.60258 0.36628 0.47615 0.0
H1460 H 0.59806 0.39294 0.45688 0.0
H1461 H 0.5803 0.38759 0.48285 0.0
H1462 H 0.51203 0.38209 0.47553 0.0
H1463 H 0.50017 0.42069 0.49066 0.0
loop_
_geom_bond_atom_site_label_1
_geom_bond_atom_site_label_2
_geom_bond_distance
_geom_bond_site_symmetry_2
_ccdc_geom_bond_type
C0 C1 1.391 . S
C0 C4 1.391 . S
C0 H42 0.948 . S
C1 C0 1.391 . S
C1 C2 1.391 . S
C2 C1 1.391 . S
C2 H58 0.947 . S
C2 C59 1.392 . S
C3 C4 1.391 . S
C3 C7 1.397 . S
C3 C59 1.419 . S
C4 C0 1.391 . S
C4 C3 1.391 . S
C4 C5 1.399 . S
C5 C4 1.399 . S
C5 C8 1.396 . S
C5 C17 1.453 . S
C5 C18 1.684 . S
H6 C30 0.948 . S
C7 C3 1.397 . S
C7 C8 1.394 . S
C7 C26 1.723 . S
C8 C5 1.396 . S
C8 C7 1.394 . S
C8 C38 1.723 . S
H9 C32 0.947 . S
H10 C33 0.948 . S
H11 C39 0.982 . S
H12 C40 0.979 . S
H13 C40 0.980 . S
H14 C40 0.983 . S
H15 C39 0.979 . S
H16 C39 0.977 . S
C17 C5 1.453 . S
C17 H46 0.982 . S
C17 H47 0.979 . S
C17 H48 0.977 . S
C18 C5 1.684 . S
C18 H43 0.979 . S
C18 H44 0.980 . S
C18 H45 0.983 . S
C19 C20 1.391 . S
C19 C24 1.391 . S
C19 H49 0.948 . S
C20 C19 1.391 . S
C20 C21 1.391 . S
C21 C20 1.391 . S
C21 C22 1.392 . S
C21 H50 0.947 . S
C22 C21 1.392 . S
C22 C23 1.419 . S
C22 H51 0.948 . S
C23 C22 1.419 . S
C23 C24 1.391 . S
C23 C27 1.397 . S
C24 C19 1.391 . S
C24 C23 1.391 . S
C24 C25 1.399 . S
C25 C24 1.399 . S
C25 C26 1.396 . S
C25 C28 1.453 . S
C25 C29 1.684 . S
C26 C7 1.723 . S
C26 C25 1.396 . S
C26 C27 1.394 . S
C27 C23 1.397 . S
C27 C26 1.394 . S
C27 C37 1.723 . S
C28 C25 1.453 . S
C28 H52 0.982 . S
C28 H53 0.979 . S
C28 H54 0.977 . S
C29 C25 1.684 . S
C29 H55 0.979 . S
C29 H56 0.980 . S
C29 H57 0.983 . S
C30 H6 0.948 . S
C30 C31 1.391 . S
C30 C35 1.391 . S
C31 C30 1.391 . S
C31 C32 1.391 . S
C32 H9 0.947 . S
C32 C31 1.391 . S
C32 C33 1.392 . S
C33 H10 0.948 . S
C33 C32 1.392 . S
C33 C34 1.419 . S
C34 C33 1.419 . S
C34 C35 1.391 . S
C34 C38 1.397 . S
C35 C30 1.391 . S
C35 C34 1.391 . S
C35 C36 1.399 . S
C36 C35 1.399 . S
C36 C37 1.396 . S
C36 C39 1.453 . S
C36 C40 1.684 . S
C37 C27 1.723 . S
C37 C36 1.396 . S
C37 C38 1.394 . S
C38 C8 1.723 . S
C38 C34 1.397 . S
C38 C37 1.394 . S
C39 H11 0.982 . S
C39 H15 0.979 . S
C39 H16 0.977 . S
C39 C36 1.453 . S
C40 H12 0.979 . S
C40 H13 0.980 . S
C40 H14 0.983 . S
C40 C36 1.684 . S
H41 C59 0.948 . S
H42 C0 0.948 . S
H43 C18 0.979 . S
H44 C18 0.980 . S
H45 C18 0.983 . S
H46 C17 0.982 . S
H47 C17 0.979 . S
H48 C17 0.977 . S
H49 C19 0.948 . S
H50 C21 0.947 . S
H51 C22 0.948 . S
H52 C28 0.982 . S
H53 C28 0.979 . S
H54 C28 0.977 . S
H55 C29 0.979 . S
H56 C29 0.980 . S
H57 C29 0.983 . S
H58 C2 0.947 . S
C59 C2 1.392 . S
C59 C3 1.419 . S
C59 H41 0.948 . S
C60 C61 1.391 . S
C60 C64 1.391 . S
C60 H102 0.948 . S
C61 C60 1.391 . S
C61 C62 1.391 . S
C62 C61 1.391 . S
C62 H118 0.947 . S
C62 C119 1.392 . S
C63 C64 1.391 . S
C63 C67 1.397 . S
C63 C119 1.419 . S
C64 C60 1.391 . S
C64 C63 1.391 . S
C64 C65 1.399 . S
C65 C64 1.399 . S
C65 C68 1.396 . S
C65 C77 1.453 . S
C65 C78 1.684 . S
H66 C90 0.948 . S
C67 C63 1.397 . S
C67 C68 1.394 . S
C67 C86 1.723 . S
C68 C65 1.396 . S
C68 C67 1.394 . S
C68 C98 1.723 . S
H69 C92 0.947 . S
H70 C93 0.948 . S
H71 C99 0.982 . S
H72 C100 0.979 . S
H73 C100 0.980 . S
H74 C100 0.983 . S
H75 C99 0.979 . S
H76 C99 0.977 . S
C77 C65 1.453 . S
C77 H106 0.982 . S
C77 H107 0.979 . S
C77 H108 0.977 . S
C78 C65 1.684 . S
C78 H103 0.979 . S
C78 H104 0.980 . S
C78 H105 0.983 . S
C79 C80 1.391 . S
C79 C84 1.391 . S
C79 H109 0.948 . S
C80 C79 1.391 . S
C80 C81 1.391 . S
C81 C80 1.391 . S
C81 C82 1.392 . S
C81 H110 0.947 . S
C82 C81 1.392 . S
C82 C83 1.419 . S
C82 H111 0.948 . S
C83 C82 1.419 . S
C83 C84 1.391 . S
C83 C87 1.397 . S
C84 C79 1.391 . S
C84 C83 1.391 . S
C84 C85 1.399 . S
C85 C84 1.399 . S
C85 C86 1.396 . S
C85 C88 1.453 . S
C85 C89 1.684 . S
C86 C67 1.723 . S
C86 C85 1.396 . S
C86 C87 1.394 . S
C87 C83 1.397 . S
C87 C86 1.394 . S
C87 C97 1.723 . S
C88 C85 1.453 . S
C88 H112 0.982 . S
C88 H113 0.979 . S
C88 H114 0.977 . S
C89 C85 1.684 . S
C89 H115 0.979 . S
C89 H116 0.980 . S
C89 H117 0.983 . S
C90 H66 0.948 . S
C90 C91 1.391 . S
C90 C95 1.391 . S
C91 C90 1.391 . S
C91 C92 1.391 . S
C92 H69 0.947 . S
C92 C91 1.391 . S
C92 C93 1.392 . S
C93 H70 0.948 . S
C93 C92 1.392 . S
C93 C94 1.419 . S
C94 C93 1.419 . S
C94 C95 1.391 . S
C94 C98 1.397 . S
C95 C90 1.391 . S
C95 C94 1.391 . S
C95 C96 1.399 . S
C96 C95 1.399 . S
C96 C97 1.396 . S
C96 C99 1.453 . S
C96 C100 1.684 . S
C97 C87 1.723 . S
C97 C96 1.396 . S
C97 C98 1.394 . S
C98 C68 1.723 . S
C98 C94 1.397 . S
C98 C97 1.394 . S
C99 H71 0.982 . S
C99 H75 0.979 . S
C99 H76 0.977 . S
C99 C96 1.453 . S
C100 H72 0.979 . S
C100 H73 0.980 . S
C100 H74 0.983 . S
C100 C96 1.684 . S
H101 C119 0.948 . S
H102 C60 0.948 . S
H103 C78 0.979 . S
H104 C78 0.980 . S
H105 C78 0.983 . S
H106 C77 0.982 . S
H107 C77 0.979 . S
H108 C77 0.977 . S
H109 C79 0.948 . S
H110 C81 0.947 . S
H111 C82 0.948 . S
H112 C88 0.982 . S
H113 C88 0.979 . S
H114 C88 0.977 . S
H115 C89 0.979 . S
H116 C89 0.980 . S
H117 C89 0.983 . S
H118 C62 0.947 . S
C119 C62 1.392 . S
C119 C63 1.419 . S
C119 H101 0.948 . S
C120 C121 1.391 . S
C120 C124 1.391 . S
C120 H162 0.948 . S
C121 C120 1.391 . S
C121 C122 1.391 . S
C122 C121 1.391 . S
C122 H178 0.947 . S
C122 C179 1.392 . S
C123 C124 1.391 . S
C123 C127 1.397 . S
C123 C179 1.419 . S
C124 C120 1.391 . S
C124 C123 1.391 . S
C124 C125 1.399 . S
C125 C124 1.399 . S
C125 C128 1.396 . S
C125 C137 1.453 . S
C125 C138 1.684 . S
H126 C150 0.948 . S
C127 C123 1.397 . S
C127 C128 1.394 . S
C127 C146 1.723 . S
C128 C125 1.396 . S
C128 C127 1.394 . S
C128 C158 1.723 . S
H129 C152 0.947 . S
H130 C153 0.948 . S
H131 C159 0.982 . S
H132 C160 0.979 . S
H133 C160 0.980 . S
H134 C160 0.983 . S
H135 C159 0.979 . S
H136 C159 0.977 . S
C137 C125 1.453 . S
C137 H166 0.982 . S
C137 H167 0.979 . S
C137 H168 0.977 . S
C138 C125 1.684 . S
C138 H163 0.979 . S
C138 H164 0.980 . S
C138 H165 0.983 . S
C139 C140 1.391 . S
C139 C144 1.391 . S
C139 H169 0.948 . S
C140 C139 1.391 . S
C140 C141 1.391 . S
C141 C140 1.391 . S
C141 C142 1.392 . S
C141 H170 0.947 . S
C142 C141 1.392 . S
C142 C143 1.419 . S
C142 H171 0.948 . S
C143 C142 1.419 . S
C143 C144 1.391 . S
C143 C147 1.397 . S
C144 C139 1.391 . S
C144 C143 1.391 . S
C144 C145 1.399 . S
C145 C144 1.399 . S
C145 C146 1.396 . S
C145 C148 1.453 . S
C145 C149 1.684 . S
C146 C127 1.723 . S
C146 C145 1.396 . S
C146 C147 1.394 . S
C147 C143 1.397 . S
C147 C146 1.394 . S
C147 C157 1.723 . S
C148 C145 1.453 . S
C148 H172 0.982 . S
C148 H173 0.979 . S
C148 H174 0.977 . S
C149 C145 1.684 . S
C149 H175 0.979 . S
C149 H176 0.980 . S
C149 H177 0.983 . S
C150 H126 0.948 . S
C150 C151 1.391 . S
C150 C155 1.391 . S
C151 C150 1.391 . S
C151 C152 1.391 . S
C152 H129 0.947 . S
C152 C151 1.391 . S
C152 C153 1.392 . S
C153 H130 0.948 . S
C153 C152 1.392 . S
C153 C154 1.419 . S
C154 C153 1.419 . S
C154 C155 1.391 . S
C154 C158 1.397 . S
C155 C150 1.391 . S
C155 C154 1.391 . S
C155 C156 1.399 . S
C156 C155 1.399 . S
C156 C157 1.396 . S
C156 C159 1.453 . S
C156 C160 1.684 . S
C157 C147 1.723 . S
C157 C156 1.396 . S
C157 C158 1.394 . S
C158 C128 1.723 . S
C158 C154 1.397 . S
C158 C157 1.394 . S
C159 H131 0.982 . S
C159 H135 0.979 . S
C159 H136 0.977 . S
C159 C156 1.453 . S
C160 H132 0.979 . S
C160 H133 0.980 . S
C160 H134 0.983 . S
C160 C156 1.684 . S
H161 C179 0.948 . S
H162 C120 0.948 . S
H163 C138 0.979 . S
H164 C138 0.980 . S
H165 C138 0.983 . S
H166 C137 0.982 . S
H167 C137 0.979 . S
H168 C137 0.977 . S
H169 C139 0.948 . S
H170 C141 0.947 . S
H171 C142 0.948 . S
H172 C148 0.982 . S
H173 C148 0.979 . S
H174 C148 0.977 . S
H175 C149 0.979 . S
H176 C149 0.980 . S
H177 C149 0.983 . S
H178 C122 0.947 . S
C179 C122 1.392 . S
C179 C123 1.419 . S
C179 H161 0.948 . S
C180 C181 1.391 . S
C180 C184 1.391 . S
C180 H222 0.948 . S
C181 C180 1.391 . S
C181 C182 1.391 . S
C182 C181 1.391 . S
C182 H238 0.947 . S
C182 C239 1.392 . S
C183 C184 1.391 . S
C183 C187 1.397 . S
C183 C239 1.419 . S
C184 C180 1.391 . S
C184 C183 1.391 . S
C184 C185 1.399 . S
C185 C184 1.399 . S
C185 C188 1.396 . S
C185 C197 1.453 . S
C185 C198 1.684 . S
H186 C210 0.948 . S
C187 C183 1.397 . S
C187 C188 1.394 . S
C187 C206 1.723 . S
C188 C185 1.396 . S
C188 C187 1.394 . S
C188 C218 1.723 . S
H189 C212 0.947 . S
H190 C213 0.948 . S
H191 C219 0.982 . S
H192 C220 0.979 . S
H193 C220 0.980 . S
H194 C220 0.983 . S
H195 C219 0.979 . S
H196 C219 0.977 . S
C197 C185 1.453 . S
C197 H226 0.982 . S
C197 H227 0.979 . S
C197 H228 0.977 . S
C198 C185 1.684 . S
C198 H223 0.979 . S
C198 H224 0.980 . S
C198 H225 0.983 . S
C199 C200 1.391 . S
C199 C204 1.391 . S
C199 H229 0.948 . S
C200 C199 1.391 . S
C200 C201 1.391 . S
C201 C200 1.391 . S
C201 C202 1.392 . S
C201 H230 0.947 . S
C202 C201 1.392 . S
C202 C203 1.419 . S
C202 H231 0.948 . S
C203 C202 1.419 . S
C203 C204 1.391 . S
C203 C207 1.397 . S
C204 C199 1.391 . S
C204 C203 1.391 . S
C204 C205 1.399 . S
C205 C204 1.399 . S
C205 C206 1.396 . S
C205 C208 1.453 . S
C205 C209 1.684 . S
C206 C187 1.723 . S
C206 C205 1.396 . S
C206 C207 1.394 . S
C207 C203 1.397 . S
C207 C206 1.394 . S
C207 C217 1.723 . S
C208 C205 1.453 . S
C208 H232 0.982 . S
C208 H233 0.979 . S
C208 H234 0.977 . S
C209 C205 1.684 . S
C209 H235 0.979 . S
C209 H236 0.980 . S
C209 H237 0.983 . S
C210 H186 0.948 . S
C210 C211 1.391 . S
C210 C215 1.391 . S
C211 C210 1.391 . S
C211 C212 1.391 . S
C212 H189 0.947 . S
C212 C211 1.391 . S
C212 C213 1.392 . S
C213 H190 0.948 . S
C213 C212 1.392 . S
C213 C214 1.419 . S
C214 C213 1.419 . S
C214 C215 1.391 . S
C214 C218 1.397 . S
C215 C210 1.391 . S
C215 C214 1.391 . S
C215 C216 1.399 . S
C216 C215 1.399 . S
C216 C217 1.396 . S
C216 C219 1.453 . S
C216 C220 1.684 . S
C217 C207 1.723 . S
C217 C216 1.396 . S
C217 C218 1.394 . S
C218 C188 1.723 . S
C218 C214 1.397 . S
C218 C217 1.394 . S
C219 H191 0.982 . S
C219 H195 0.979 . S
C219 H196 0.977 . S
C219 C216 1.453 . S
C220 H192 0.979 . S
C220 H193 0.980 . S
C220 H194 0.983 . S
C220 C216 1.684 . S
H221 C239 0.948 . S
H222 C180 0.948 . S
H223 C198 0.979 . S
H224 C198 0.980 . S
H225 C198 0.983 . S
H226 C197 0.982 . S
H227 C197 0.979 . S
H228 C197 0.977 . S
H229 C199 0.948 . S
H230 C201 0.947 . S
H231 C202 0.948 . S
H232 C208 0.982 . S
H233 C208 0.979 . S
H234 C208 0.977 . S
H235 C209 0.979 . S
H236 C209 0.980 . S
H237 C209 0.983 . S
H238 C182 0.947 . S
C239 C182 1.392 . S
C239 C183 1.419 . S
C239 H221 0.948 . S
C240 C241 1.391 . S
C240 C244 1.391 . S
C240 H282 0.948 . S
C241 C240 1.391 . S
C241 C242 1.391 . S
C242 C241 1.391 . S
C242 H298 0.947 . S
C242 C299 1.392 . S
C243 C244 1.391 . S
C243 C247 1.397 . S
C243 C299 1.419 . S
C244 C240 1.391 . S
C244 C243 1.391 . S
C244 C245 1.399 . S
C245 C244 1.399 . S
C245 C248 1.396 . S
C245 C257 1.453 . S
C245 C258 1.684 . S
H246 C270 0.948 . S
C247 C243 1.397 . S
C247 C248 1.394 . S
C247 C266 1.723 . S
C248 C245 1.396 . S
C248 C247 1.394 . S
C248 C278 1.723 . S
H249 C272 0.947 . S
H250 C273 0.948 . S
H251 C279 0.982 . S
H252 C280 0.979 . S
H253 C280 0.980 . S
H254 C280 0.983 . S
H255 C279 0.979 . S
H256 C279 0.977 . S
C257 C245 1.453 . S
C257 H286 0.982 . S
C257 H287 0.979 . S
C257 H288 0.977 . S
C258 C245 1.684 . S
C258 H283 0.979 . S
C258 H284 0.980 . S
C258 H285 0.983 . S
C259 C260 1.391 . S
C259 C264 1.391 . S
C259 H289 0.948 . S
C260 C259 1.391 . S
C260 C261 1.391 . S
C261 C260 1.391 . S
C261 C262 1.392 . S
C261 H290 0.947 . S
C262 C261 1.392 . S
C262 C263 1.419 . S
C262 H291 0.948 . S
C263 C262 1.419 . S
C263 C264 1.391 . S
C263 C267 1.397 . S
C264 C259 1.391 . S
C264 C263 1.391 . S
C264 C265 1.399 . S
C265 C264 1.399 . S
C265 C266 1.396 . S
C265 C268 1.453 . S
C265 C269 1.684 . S
C266 C247 1.723 . S
C266 C265 1.396 . S
C266 C267 1.394 . S
C267 C263 1.397 . S
C267 C266 1.394 . S
C267 C277 1.723 . S
C268 C265 1.453 . S
C268 H292 0.982 . S
C268 H293 0.979 . S
C268 H294 0.977 . S
C269 C265 1.684 . S
C269 H295 0.979 . S
C269 H296 0.980 . S
C269 H297 0.983 . S
C270 H246 0.948 . S
C270 C271 1.391 . S
C270 C275 1.391 . S
C271 C270 1.391 . S
C271 C272 1.391 . S
C272 H249 0.947 . S
C272 C271 1.391 . S
C272 C273 1.392 . S
C273 H250 0.948 . S
C273 C272 1.392 . S
C273 C274 1.419 . S
C274 C273 1.419 . S
C274 C275 1.391 . S
C274 C278 1.397 . S
C275 C270 1.391 . S
C275 C274 1.391 . S
C275 C276 1.399 . S
C276 C275 1.399 . S
C276 C277 1.396 . S
C276 C279 1.453 . S
C276 C280 1.684 . S
C277 C267 1.723 . S
C277 C276 1.396 . S
C277 C278 1.394 . S
C278 C248 1.723 . S
C278 C274 1.397 . S
C278 C277 1.394 . S
C279 H251 0.982 . S
C279 H255 0.979 . S
C279 H256 0.977 . S
C279 C276 1.453 . S
C280 H252 0.979 . S
C280 H253 0.980 . S
C280 H254 0.983 . S
C280 C276 1.684 . S
H281 C299 0.948 . S
H282 C240 0.948 . S
H283 C258 0.979 . S
H284 C258 0.980 . S
H285 C258 0.983 . S
H286 C257 0.982 . S
H287 C257 0.979 . S
H288 C257 0.977 . S
H289 C259 0.948 . S
H290 C261 0.947 . S
H291 C262 0.948 . S
H292 C268 0.982 . S
H293 C268 0.979 . S
H294 C268 0.977 . S
H295 C269 0.979 . S
H296 C269 0.980 . S
H297 C269 0.983 . S
H298 C242 0.947 . S
C299 C242 1.392 . S
C299 C243 1.419 . S
C299 H281 0.948 . S
C300 C301 1.391 . S
C300 C304 1.391 . S
C300 H342 0.948 . S
C301 C300 1.391 . S
C301 C302 1.391 . S
C302 C301 1.391 . S
C302 H358 0.947 . S
C302 C359 1.392 . S
C303 C304 1.391 . S
C303 C307 1.397 . S
C303 C359 1.419 . S
C304 C300 1.391 . S
C304 C303 1.391 . S
C304 C305 1.399 . S
C305 C304 1.399 . S
C305 C308 1.396 . S
C305 C317 1.453 . S
C305 C318 1.684 . S
H306 C330 0.948 . S
C307 C303 1.397 . S
C307 C308 1.394 . S
C307 C326 1.723 . S
C308 C305 1.396 . S
C308 C307 1.394 . S
C308 C338 1.723 . S
H309 C332 0.947 . S
H310 C333 0.948 . S
H311 C339 0.982 . S
H312 C340 0.979 . S
H313 C340 0.980 . S
H314 C340 0.983 . S
H315 C339 0.979 . S
H316 C339 0.977 . S
C317 C305 1.453 . S
C317 H346 0.982 . S
C317 H347 0.979 . S
C317 H348 0.977 . S
C318 C305 1.684 . S
C318 H343 0.979 . S
C318 H344 0.980 . S
C318 H345 0.983 . S
C319 C320 1.391 . S
C319 C324 1.391 . S
C319 H349 0.948 . S
C320 C319 1.391 . S
C320 C321 1.391 . S
C321 C320 1.391 . S
C321 C322 1.392 . S
C321 H350 0.947 . S
C322 C321 1.392 . S
C322 C323 1.419 . S
C322 H351 0.948 . S
C323 C322 1.419 . S
C323 C324 1.391 . S
C323 C327 1.397 . S
C324 C319 1.391 . S
C324 C323 1.391 . S
C324 C325 1.399 . S
C325 C324 1.399 . S
C325 C326 1.396 . S
C325 C328 1.453 . S
C325 C329 1.684 . S
C326 C307 1.723 . S
C326 C325 1.396 . S
C326 C327 1.394 . S
C327 C323 1.397 . S
C327 C326 1.394 . S
C327 C337 1.723 . S
C328 C325 1.453 . S
C328 H352 0.982 . S
C328 H353 0.979 . S
C328 H354 0.977 . S
C329 C325 1.684 . S
C329 H355 0.979 . S
C329 H356 0.980 . S
C329 H357 0.983 . S
C330 H306 0.948 . S
C330 C331 1.391 . S
C330 C335 1.391 . S
C331 C330 1.391 . S
C331 C332 1.391 . S
C332 H309 0.947 . S
C332 C331 1.391 . S
C332 C333 1.392 . S
C333 H310 0.948 . S
C333 C332 1.392 . S
C333 C334 1.419 . S
C334 C333 1.419 . S
C334 C335 1.391 . S
C334 C338 1.397 . S
C335 C330 1.391 . S
C335 C334 1.391 . S
C335 C336 1.399 . S
C336 C335 1.399 . S
C336 C337 1.396 . S
C336 C339 1.453 . S
C336 C340 1.684 . S
C337 C327 1.723 . S
C337 C336 1.396 . S
C337 C338 1.394 . S
C338 C308 1.723 . S
C338 C334 1.397 . S
C338 C337 1.394 . S
C339 H311 0.982 . S
C339 H315 0.979 . S
C339 H316 0.977 . S
C339 C336 1.453 . S
C340 H312 0.979 . S
C340 H313 0.980 . S
C340 H314 0.983 . S
C340 C336 1.684 . S
H341 C359 0.948 . S
H342 C300 0.948 . S
H343 C318 0.979 . S
H344 C318 0.980 . S
H345 C318 0.983 . S
H346 C317 0.982 . S
H347 C317 0.979 . S
H348 C317 0.977 . S
H349 C319 0.948 . S
H350 C321 0.947 . S
H351 C322 0.948 . S
H352 C328 0.982 . S
H353 C328 0.979 . S
H354 C328 0.977 . S
H355 C329 0.979 . S
H356 C329 0.980 . S
H357 C329 0.983 . S
H358 C302 0.947 . S
C359 C302 1.392 . S
C359 C303 1.419 . S
C359 H341 0.948 . S
C360 C361 1.391 . S
C360 C364 1.391 . S
C360 H402 0.948 . S
C361 C360 1.391 . S
C361 C362 1.391 . S
C362 C361 1.391 . S
C362 H418 0.947 . S
C362 C419 1.392 . S
C363 C364 1.391 . S
C363 C367 1.397 . S
C363 C419 1.419 . S
C364 C360 1.391 . S
C364 C363 1.391 . S
C364 C365 1.399 . S
C365 C364 1.399 . S
C365 C368 1.396 . S
C365 C377 1.453 . S
C365 C378 1.684 . S
H366 C390 0.948 . S
C367 C363 1.397 . S
C367 C368 1.394 . S
C367 C386 1.723 . S
C368 C365 1.396 . S
C368 C367 1.394 . S
C368 C398 1.723 . S
H369 C392 0.947 . S
H370 C393 0.948 . S
H371 C399 0.982 . S
H372 C400 0.979 . S
H373 C400 0.980 . S
H374 C400 0.983 . S
H375 C399 0.979 . S
H376 C399 0.977 . S
C377 C365 1.453 . S
C377 H406 0.982 . S
C377 H407 0.979 . S
C377 H408 0.977 . S
C378 C365 1.684 . S
C378 H403 0.979 . S
C378 H404 0.980 . S
C378 H405 0.983 . S
C379 C380 1.391 . S
C379 C384 1.391 . S
C379 H409 0.948 . S
C380 C379 1.391 . S
C380 C381 1.391 . S
C381 C380 1.391 . S
C381 C382 1.392 . S
C381 H410 0.947 . S
C382 C381 1.392 . S
C382 C383 1.419 . S
C382 H411 0.948 . S
C383 C382 1.419 . S
C383 C384 1.391 . S
C383 C387 1.397 . S
C384 C379 1.391 . S
C384 C383 1.391 . S
C384 C385 1.399 . S
C385 C384 1.399 . S
C385 C386 1.396 . S
C385 C388 1.453 . S
C385 C389 1.684 . S
C386 C367 1.723 . S
C386 C385 1.396 . S
C386 C387 1.394 . S
C387 C383 1.397 . S
C387 C386 1.394 . S
C387 C397 1.723 . S
C388 C385 1.453 . S
C388 H412 0.982 . S
C388 H413 0.979 . S
C388 H414 0.977 . S
C389 C385 1.684 . S
C389 H415 0.979 . S
C389 H416 0.980 . S
C389 H417 0.983 . S
C390 H366 0.948 . S
C390 C391 1.391 . S
C390 C395 1.391 . S
C391 C390 1.391 . S
C391 C392 1.391 . S
C392 H369 0.947 . S
C392 C391 1.391 . S
C392 C393 1.392 . S
C393 H370 0.948 . S
C393 C392 1.392 . S
C393 C394 1.419 . S
C394 C393 1.419 . S
C394 C395 1.391 . S
C394 C398 1.397 . S
C395 C390 1.391 . S
C395 C394 1.391 . S
C395 C396 1.399 . S
C396 C395 1.399 . S
C396 C397 1.396 . S
C396 C399 1.453 . S
C396 C400 1.684 . S
C397 C387 1.723 . S
C397 C396 1.396 . S
C397 C398 1.394 . S
C398 C368 1.723 . S
C398 C394 1.397 . S
C398 C397 1.394 . S
C399 H371 0.982 . S
C399 H375 0.979 . S
C399 H376 0.977 . S
C399 C396 1.453 . S
C400 H372 0.979 . S
C400 H373 0.980 . S
C400 H374 0.983 . S
C400 C396 1.684 . S
H401 C419 0.948 . S
H402 C360 0.948 . S
H403 C378 0.979 . S
H404 C378 0.980 . S
H405 C378 0.983 . S
H406 C377 0.982 . S
H407 C377 0.979 . S
H408 C377 0.977 . S
H409 C379 0.948 . S
H410 C381 0.947 . S
H411 C382 0.948 . S
H412 C388 0.982 . S
H413 C388 0.979 . S
H414 C388 0.977 . S
H415 C389 0.979 . S
H416 C389 0.980 . S
H417 C389 0.983 . S
H418 C362 0.947 . S
C419 C362 1.392 . S
C419 C363 1.419 . S
C419 H401 0.948 . S
C420 C421 1.391 . S
C420 C424 1.391 . S
C420 H462 0.948 . S
C421 C420 1.391 . S
C421 C422 1.391 . S
C422 C421 1.391 . S
C422 H478 0.947 . S
C422 C479 1.392 . S
C423 C424 1.391 . S
C423 C427 1.397 . S
C423 C479 1.419 . S
C424 C420 1.391 . S
C424 C423 1.391 . S
C424 C425 1.399 . S
C425 C424 1.399 . S
C425 C428 1.396 . S
C425 C437 1.453 . S
C425 C438 1.684 . S
H426 C450 0.948 . S
C427 C423 1.397 . S
C427 C428 1.394 . S
C427 C446 1.723 . S
C428 C425 1.396 . S
C428 C427 1.394 . S
C428 C458 1.723 . S
H429 C452 0.947 . S
H430 C453 0.948 . S
H431 C459 0.982 . S
H432 C460 0.979 . S
H433 C460 0.980 . S
H434 C460 0.983 . S
H435 C459 0.979 . S
H436 C459 0.977 . S
C437 C425 1.453 . S
C437 H466 0.982 . S
C437 H467 0.979 . S
C437 H468 0.977 . S
C438 C425 1.684 . S
C438 H463 0.979 . S
C438 H464 0.980 . S
C438 H465 0.983 . S
C439 C440 1.391 . S
C439 C444 1.391 . S
C439 H469 0.948 . S
C440 C439 1.391 . S
C440 C441 1.391 . S
C441 C440 1.391 . S
C441 C442 1.392 . S
C441 H470 0.947 . S
C442 C441 1.392 . S
C442 C443 1.419 . S
C442 H471 0.948 . S
C443 C442 1.419 . S
C443 C444 1.391 . S
C443 C447 1.397 . S
C444 C439 1.391 . S
C444 C443 1.391 . S
C444 C445 1.399 . S
C445 C444 1.399 . S
C445 C446 1.396 . S
C445 C448 1.453 . S
C445 C449 1.684 . S
C446 C427 1.723 . S
C446 C445 1.396 . S
C446 C447 1.394 . S
C447 C443 1.397 . S
C447 C446 1.394 . S
C447 C457 1.723 . S
C448 C445 1.453 . S
C448 H472 0.982 . S
C448 H473 0.979 . S
C448 H474 0.977 . S
C449 C445 1.684 . S
C449 H475 0.979 . S
C449 H476 0.980 . S
C449 H477 0.983 . S
C450 H426 0.948 . S
C450 C451 1.391 . S
C450 C455 1.391 . S
C451 C450 1.391 . S
C451 C452 1.391 . S
C452 H429 0.947 . S
C452 C451 1.391 . S
C452 C453 1.392 . S
C453 H430 0.948 . S
C453 C452 1.392 . S
C453 C454 1.419 . S
C454 C453 1.419 . S
C454 C455 1.391 . S
C454 C458 1.397 . S
C455 C450 1.391 . S
C455 C454 1.391 . S
C455 C456 1.399 . S
C456 C455 1.399 . S
C456 C457 1.396 . S
C456 C459 1.453 . S
C456 C460 1.684 . S
C457 C447 1.723 . S
C457 C456 1.396 . S
C457 C458 1.394 . S
C458 C428 1.723 . S
C458 C454 1.397 . S
C458 C457 1.394 . S
C459 H431 0.982 . S
C459 H435 0.979 . S
C459 H436 0.977 . S
C459 C456 1.453 . S
C460 H432 0.979 . S
C460 H433 0.980 . S
C460 H434 0.983 . S
C460 C456 1.684 . S
H461 C479 0.948 . S
H462 C420 0.948 . S
H463 C438 0.979 . S
H464 C438 0.980 . S
H465 C438 0.983 . S
H466 C437 0.982 . S
H467 C437 0.979 . S
H468 C437 0.977 . S
H469 C439 0.948 . S
H470 C441 0.947 . S
H471 C442 0.948 . S
H472 C448 0.982 . S
H473 C448 0.979 . S
H474 C448 0.977 . S
H475 C449 0.979 . S
H476 C449 0.980 . S
H477 C449 0.983 . S
H478 C422 0.947 . S
C479 C422 1.392 . S
C479 C423 1.419 . S
C479 H461 0.948 . S
Co480 N485 2.057 . S
Co480 O497 2.021 . S
Co480 O500 2.062 . S
Co480 O504 2.117 1_545 S
Co480 O505 2.020 1_545 S
C481 O501 1.259 1_655 S
C481 O504 1.258 . S
Co482 N491 2.057 . S
Co482 O498 2.117 1_565 S
Co482 O499 2.020 1_565 S
Co482 O501 2.021 . S
Co482 O506 2.062 . S
C483 N485 1.316 . S
C483 N486 1.347 . S
C483 H488 0.931 . S
C484 N485 1.375 1_565 S
C484 C487 1.350 1_565 S
C484 H489 0.930 . S
N485 Co480 2.057 . S
N485 C483 1.316 . S
N485 C484 1.375 1_545 S
N486 C483 1.347 . S
N486 C487 1.373 . S
C487 C484 1.350 1_545 S
C487 N486 1.373 . S
C487 H508 0.931 1_545 S
H488 C483 0.931 . S
H489 C484 0.930 . S
C490 O497 1.259 1_455 S
C490 O498 1.258 . S
N491 Co482 2.057 . S
N491 C492 1.316 . S
N491 C493 1.375 1_565 S
C492 N491 1.316 . S
C492 N494 1.347 . S
C492 H503 0.931 . S
C493 N491 1.375 1_545 S
C493 C495 1.350 1_545 S
C493 H502 0.930 . S
N494 C492 1.347 . S
N494 C495 1.373 . S
C495 C493 1.350 1_565 S
C495 N494 1.373 . S
C495 H509 0.931 1_565 S
C496 O499 1.256 . S
C496 O500 1.255 1_455 S
O497 Co480 2.021 . S
O497 C490 1.259 1_655 S
O498 Co482 2.117 1_545 S
O498 C490 1.258 . S
O499 Co482 2.020 1_545 S
O499 C496 1.256 . S
O500 Co480 2.062 . S
O500 C496 1.255 1_655 S
O501 C481 1.259 1_455 S
O501 Co482 2.021 . S
H502 C493 0.930 . S
H503 C492 0.931 . S
O504 Co480 2.117 1_565 S
O504 C481 1.258 . S
O505 Co480 2.020 1_565 S
O505 C507 1.256 . S
O506 Co482 2.062 . S
O506 C507 1.255 1_455 S
C507 O505 1.256 . S
C507 O506 1.255 1_655 S
H508 C487 0.931 1_565 S
H509 C495 0.931 1_545 S
Co510 N515 2.057 . S
Co510 O527 2.021 1_565 S
Co510 O530 2.062 . S
Co510 O534 2.117 . S
Co510 O535 2.020 1_565 S
C511 O531 1.259 . S
C511 O534 1.258 1_554 S
Co512 N521 2.057 . S
Co512 O528 2.117 . S
Co512 O529 2.020 1_545 S
Co512 O531 2.021 1_545 S
Co512 O536 2.062 . S
C513 N515 1.316 . S
C513 N516 1.347 . S
C513 H518 0.931 1_565 S
C514 N515 1.375 . S
C514 C517 1.350 . S
C514 H519 0.930 . S
N515 Co510 2.057 . S
N515 C513 1.316 . S
N515 C514 1.375 . S
N516 C513 1.347 . S
N516 C517 1.373 . S
C517 C514 1.350 . S
C517 N516 1.373 . S
C517 H538 0.931 . S
H518 C513 0.931 1_545 S
H519 C514 0.930 . S
C520 O527 1.259 . S
C520 O528 1.258 1_556 S
N521 Co512 2.057 . S
N521 C522 1.316 . S
N521 C523 1.375 . S
C522 N521 1.316 . S
C522 N524 1.347 . S
C522 H533 0.931 1_545 S
C523 N521 1.375 . S
C523 C525 1.350 . S
C523 H532 0.930 . S
N524 C522 1.347 . S
N524 C525 1.373 . S
C525 C523 1.350 . S
C525 N524 1.373 . S
C525 H539 0.931 . S
C526 O529 1.256 1_556 S
C526 O530 1.255 . S
O527 Co510 2.021 1_545 S
O527 C520 1.259 . S
O528 Co512 2.117 . S
O528 C520 1.258 1_554 S
O529 Co512 2.020 1_565 S
O529 C526 1.256 1_554 S
O530 Co510 2.062 . S
O530 C526 1.255 . S
O531 C511 1.259 . S
O531 Co512 2.021 1_565 S
H532 C523 0.930 . S
H533 C522 0.931 1_565 S
O534 Co510 2.117 . S
O534 C511 1.258 1_556 S
O535 Co510 2.020 1_545 S
O535 C537 1.256 1_556 S
O536 Co512 2.062 . S
O536 C537 1.255 . S
C537 O535 1.256 1_554 S
C537 O536 1.255 . S
H538 C517 0.931 . S
H539 C525 0.931 . S
Co540 N545 2.057 . S
Co540 O557 2.021 . S
Co540 O560 2.062 . S
Co540 O564 2.117 . S
Co540 O565 2.020 . S
C541 O561 1.259 . S
C541 O564 1.258 . S
Co542 N551 2.057 . S
Co542 O558 2.117 . S
Co542 O559 2.020 . S
Co542 O561 2.021 . S
Co542 O566 2.062 . S
C543 N545 1.316 . S
C543 N546 1.347 . S
C543 H548 0.931 . S
C544 N545 1.375 . S
C544 C547 1.350 . S
C544 H549 0.930 . S
N545 Co540 2.057 . S
N545 C543 1.316 . S
N545 C544 1.375 . S
N546 C543 1.347 . S
N546 C547 1.373 . S
C547 C544 1.350 . S
C547 N546 1.373 . S
C547 H568 0.931 . S
H548 C543 0.931 . S
H549 C544 0.930 . S
C550 O557 1.259 . S
C550 O558 1.258 . S
N551 Co542 2.057 . S
N551 C552 1.316 . S
N551 C553 1.375 . S
C552 N551 1.316 . S
C552 N554 1.347 . S
C552 H563 0.931 . S
C553 N551 1.375 . S
C553 C555 1.350 . S
C553 H562 0.930 . S
N554 C552 1.347 . S
N554 C555 1.373 . S
C555 C553 1.350 . S
C555 N554 1.373 . S
C555 H569 0.931 . S
C556 O559 1.256 . S
C556 O560 1.255 . S
O557 Co540 2.021 . S
O557 C550 1.259 . S
O558 Co542 2.117 . S
O558 C550 1.258 . S
O559 Co542 2.020 . S
O559 C556 1.256 . S
O560 Co540 2.062 . S
O560 C556 1.255 . S
O561 C541 1.259 . S
O561 Co542 2.021 . S
H562 C553 0.930 . S
H563 C552 0.931 . S
O564 Co540 2.117 . S
O564 C541 1.258 . S
O565 Co540 2.020 . S
O565 C567 1.256 . S
O566 Co542 2.062 . S
O566 C567 1.255 . S
C567 O565 1.256 . S
C567 O566 1.255 . S
H568 C547 0.931 . S
H569 C555 0.931 . S
Co570 N575 2.057 . S
Co570 O587 2.021 . S
Co570 O590 2.062 . S
Co570 O594 2.117 1_455 S
Co570 O595 2.020 1_455 S
C571 O591 1.259 1_556 S
C571 O594 1.258 . S
Co572 N581 2.057 . S
Co572 O588 2.117 1_655 S
Co572 O589 2.020 1_655 S
Co572 O591 2.021 . S
Co572 O596 2.062 . S
C573 N575 1.316 . S
C573 N576 1.347 . S
C573 H578 0.931 . S
C574 N575 1.375 1_655 S
C574 C577 1.350 1_655 S
C574 H579 0.930 . S
N575 Co570 2.057 . S
N575 C573 1.316 . S
N575 C574 1.375 1_455 S
N576 C573 1.347 . S
N576 C577 1.373 . S
C577 C574 1.350 1_455 S
C577 N576 1.373 . S
C577 H598 0.931 1_455 S
H578 C573 0.931 . S
H579 C574 0.930 . S
C580 O587 1.259 1_554 S
C580 O588 1.258 . S
N581 Co572 2.057 . S
N581 C582 1.316 . S
N581 C583 1.375 1_655 S
C582 N581 1.316 . S
C582 N584 1.347 . S
C582 H593 0.931 . S
C583 N581 1.375 1_455 S
C583 C585 1.350 1_455 S
C583 H592 0.930 . S
N584 C582 1.347 . S
N584 C585 1.373 . S
C585 C583 1.350 1_655 S
C585 N584 1.373 . S
C585 H599 0.931 1_655 S
C586 O589 1.256 . S
C586 O590 1.255 1_554 S
O587 Co570 2.021 . S
O587 C580 1.259 1_556 S
O588 Co572 2.117 1_455 S
O588 C580 1.258 . S
O589 Co572 2.020 1_455 S
O589 C586 1.256 . S
O590 Co570 2.062 . S
O590 C586 1.255 1_556 S
O591 C571 1.259 1_554 S
O591 Co572 2.021 . S
H592 C583 0.930 . S
H593 C582 0.931 . S
O594 Co570 2.117 1_655 S
O594 C571 1.258 . S
O595 Co570 2.020 1_655 S
O595 C597 1.256 . S
O596 Co572 2.062 . S
O596 C597 1.255 1_554 S
C597 O595 1.256 . S
C597 O596 1.255 1_556 S
H598 C577 0.931 1_655 S
H599 C585 0.931 1_455 S
H600 C608 0.929 . S
H601 C610 0.930 . S
H602 C612 0.930 . S
H603 C615 0.929 . S
H604 C618 0.930 . S
H605 C620 0.960 1_655 S
H606 C620 0.960 . S
H607 C620 0.960 . S
C608 H600 0.929 . S
C608 C609 1.377 . S
C608 C610 1.384 . S
C609 C608 1.377 . S
C609 C615 1.390 . S
C610 H601 0.930 . S
C610 C608 1.384 . S
C610 C611 1.372 . S
C611 C610 1.372 . S
C611 C612 1.400 . S
C611 C616 1.490 . S
C612 H602 0.930 . S
C612 C611 1.400 . S
C612 C615 1.386 . S
H613 C629 0.930 . S
H614 C630 0.931 . S
C615 H603 0.929 . S
C615 C609 1.390 . S
C615 C612 1.386 . S
C616 C611 1.490 . S
C616 C618 1.395 . S
C616 C619 1.403 . S
H617 C623 0.930 . S
C618 H604 0.930 . S
C618 C616 1.395 . S
C618 C621 1.403 . S
C619 C616 1.403 . S
C619 C620 1.524 . S
C619 C623 1.400 . S
C620 H605 0.960 1_455 S
C620 H606 0.960 . S
C620 H607 0.960 . S
C620 C619 1.524 . S
C621 C618 1.403 . S
C621 C622 1.392 . S
C621 C625 1.495 . S
C622 C621 1.392 . S
C622 C623 1.385 . S
C622 C624 1.478 . S
C623 H617 0.930 . S
C623 C619 1.400 . S
C623 C622 1.385 . S
C624 C622 1.478 . S
C624 C626 1.381 . S
C624 C630 1.383 . S
C625 C621 1.495 . S
C625 H631 0.959 . S
C625 H632 0.961 . S
C625 H633 0.960 . S
C626 C624 1.381 . S
C626 C627 1.394 . S
C626 H634 0.930 1_545 S
C627 C626 1.394 . S
C627 C628 1.383 . S
C627 H635 0.929 1_545 S
C628 C627 1.383 . S
C628 C629 1.377 . S
C629 H613 0.930 . S
C629 C628 1.377 . S
C629 C630 1.379 . S
C630 H614 0.931 . S
C630 C624 1.383 . S
C630 C629 1.379 . S
H631 C625 0.959 . S
H632 C625 0.961 . S
H633 C625 0.960 . S
H634 C626 0.930 1_565 S
H635 C627 0.929 1_565 S
H636 C644 0.929 . S
H637 C646 0.930 . S
H638 C648 0.930 . S
H639 C651 0.929 . S
H640 C654 0.930 . S
H641 C656 0.960 . S
H642 C656 0.960 . S
H643 C656 0.960 . S
C644 H636 0.929 . S
C644 C645 1.377 . S
C644 C646 1.384 . S
C645 C644 1.377 . S
C645 C651 1.390 . S
C646 H637 0.930 . S
C646 C644 1.384 . S
C646 C647 1.372 . S
C647 C646 1.372 . S
C647 C648 1.400 . S
C647 C652 1.490 . S
C648 H638 0.930 . S
C648 C647 1.400 . S
C648 C651 1.386 . S
H649 C665 0.930 . S
H650 C666 0.931 . S
C651 H639 0.929 . S
C651 C645 1.390 . S
C651 C648 1.386 . S
C652 C647 1.490 . S
C652 C654 1.395 . S
C652 C655 1.403 . S
H653 C659 0.930 . S
C654 H640 0.930 . S
C654 C652 1.395 . S
C654 C657 1.403 . S
C655 C652 1.403 . S
C655 C656 1.524 . S
C655 C659 1.400 . S
C656 H641 0.960 . S
C656 H642 0.960 . S
C656 H643 0.960 . S
C656 C655 1.524 . S
C657 C654 1.403 . S
C657 C658 1.392 . S
C657 C661 1.495 . S
C658 C657 1.392 . S
C658 C659 1.385 . S
C658 C660 1.478 . S
C659 H653 0.930 . S
C659 C655 1.400 . S
C659 C658 1.385 . S
C660 C658 1.478 . S
C660 C662 1.381 . S
C660 C666 1.383 . S
C661 C657 1.495 . S
C661 H667 0.959 . S
C661 H668 0.961 . S
C661 H669 0.960 . S
C662 C660 1.381 . S
C662 C663 1.394 . S
C662 H670 0.930 . S
C663 C662 1.394 . S
C663 C664 1.383 . S
C663 H671 0.929 . S
C664 C663 1.383 . S
C664 C665 1.377 . S
C665 H649 0.930 . S
C665 C664 1.377 . S
C665 C666 1.379 . S
C666 H650 0.931 . S
C666 C660 1.383 . S
C666 C665 1.379 . S
H667 C661 0.959 . S
H668 C661 0.961 . S
H669 C661 0.960 . S
H670 C662 0.930 . S
H671 C663 0.929 . S
H672 C680 0.929 . S
H673 C682 0.930 . S
H674 C684 0.930 . S
H675 C687 0.929 . S
H676 C690 0.930 . S
H677 C692 0.960 . S
H678 C692 0.960 . S
H679 C692 0.960 . S
C680 H672 0.929 . S
C680 C681 1.377 . S
C680 C682 1.384 . S
C681 C680 1.377 . S
C681 C687 1.390 . S
C682 H673 0.930 . S
C682 C680 1.384 . S
C682 C683 1.372 . S
C683 C682 1.372 . S
C683 C684 1.400 . S
C683 C688 1.490 . S
C684 H674 0.930 . S
C684 C683 1.400 . S
C684 C687 1.386 . S
H685 C701 0.930 . S
H686 C702 0.931 . S
C687 H675 0.929 . S
C687 C681 1.390 . S
C687 C684 1.386 . S
C688 C683 1.490 . S
C688 C690 1.395 . S
C688 C691 1.403 . S
H689 C695 0.930 . S
C690 H676 0.930 . S
C690 C688 1.395 . S
C690 C693 1.403 . S
C691 C688 1.403 . S
C691 C692 1.524 . S
C691 C695 1.400 . S
C692 H677 0.960 . S
C692 H678 0.960 . S
C692 H679 0.960 . S
C692 C691 1.524 . S
C693 C690 1.403 . S
C693 C694 1.392 . S
C693 C697 1.495 . S
C694 C693 1.392 . S
C694 C695 1.385 . S
C694 C696 1.478 . S
C695 H689 0.930 . S
C695 C691 1.400 . S
C695 C694 1.385 . S
C696 C694 1.478 . S
C696 C698 1.381 . S
C696 C702 1.383 . S
C697 C693 1.495 . S
C697 H703 0.959 . S
C697 H704 0.961 . S
C697 H705 0.960 . S
C698 C696 1.381 . S
C698 C699 1.394 . S
C698 H706 0.930 . S
C699 C698 1.394 . S
C699 C700 1.383 . S
C699 H707 0.929 . S
C700 C699 1.383 . S
C700 C701 1.377 . S
C701 H685 0.930 . S
C701 C700 1.377 . S
C701 C702 1.379 . S
C702 H686 0.931 . S
C702 C696 1.383 . S
C702 C701 1.379 . S
H703 C697 0.959 . S
H704 C697 0.961 . S
H705 C697 0.960 . S
H706 C698 0.930 . S
H707 C699 0.929 . S
H708 C716 0.929 . S
H709 C718 0.930 . S
H710 C720 0.930 . S
H711 C723 0.929 . S
H712 C726 0.930 . S
H713 C728 0.960 . S
H714 C728 0.960 . S
H715 C728 0.960 . S
C716 H708 0.929 . S
C716 C717 1.377 . S
C716 C718 1.384 . S
C717 C716 1.377 . S
C717 C723 1.390 . S
C718 H709 0.930 . S
C718 C716 1.384 . S
C718 C719 1.372 . S
C719 C718 1.372 . S
C719 C720 1.400 . S
C719 C724 1.490 . S
C720 H710 0.930 . S
C720 C719 1.400 . S
C720 C723 1.386 . S
H721 C737 0.930 . S
H722 C738 0.931 . S
C723 H711 0.929 . S
C723 C717 1.390 . S
C723 C720 1.386 . S
C724 C719 1.490 . S
C724 C726 1.395 . S
C724 C727 1.403 . S
H725 C731 0.930 . S
C726 H712 0.930 . S
C726 C724 1.395 . S
C726 C729 1.403 . S
C727 C724 1.403 . S
C727 C728 1.524 . S
C727 C731 1.400 . S
C728 H713 0.960 . S
C728 H714 0.960 . S
C728 H715 0.960 . S
C728 C727 1.524 . S
C729 C726 1.403 . S
C729 C730 1.392 . S
C729 C733 1.495 . S
C730 C729 1.392 . S
C730 C731 1.385 . S
C730 C732 1.478 . S
C731 H725 0.930 . S
C731 C727 1.400 . S
C731 C730 1.385 . S
C732 C730 1.478 . S
C732 C734 1.381 . S
C732 C738 1.383 . S
C733 C729 1.495 . S
C733 H739 0.959 . S
C733 H740 0.961 . S
C733 H741 0.960 . S
C734 C732 1.381 . S
C734 C735 1.394 . S
C734 H742 0.930 . S
C735 C734 1.394 . S
C735 C736 1.383 . S
C735 H743 0.929 . S
C736 C735 1.383 . S
C736 C737 1.377 . S
C737 H721 0.930 . S
C737 C736 1.377 . S
C737 C738 1.379 . S
C738 H722 0.931 . S
C738 C732 1.383 . S
C738 C737 1.379 . S
H739 C733 0.959 . S
H740 C733 0.961 . S
H741 C733 0.960 . S
H742 C734 0.930 . S
H743 C735 0.929 . S
H744 C752 0.929 . S
H745 C754 0.930 . S
H746 C756 0.930 . S
H747 C759 0.929 . S
H748 C762 0.930 . S
H749 C764 0.960 . S
H750 C764 0.960 . S
H751 C764 0.960 . S
C752 H744 0.929 . S
C752 C753 1.377 . S
C752 C754 1.384 . S
C753 C752 1.377 . S
C753 C759 1.390 . S
C754 H745 0.930 . S
C754 C752 1.384 . S
C754 C755 1.372 . S
C755 C754 1.372 . S
C755 C756 1.400 . S
C755 C760 1.490 . S
C756 H746 0.930 . S
C756 C755 1.400 . S
C756 C759 1.386 . S
H757 C773 0.930 1_565 S
H758 C774 0.931 . S
C759 H747 0.929 . S
C759 C753 1.390 . S
C759 C756 1.386 . S
C760 C755 1.490 . S
C760 C762 1.395 . S
C760 C763 1.403 . S
H761 C767 0.930 . S
C762 H748 0.930 . S
C762 C760 1.395 . S
C762 C765 1.403 . S
C763 C760 1.403 . S
C763 C764 1.524 . S
C763 C767 1.400 . S
C764 H749 0.960 . S
C764 H750 0.960 . S
C764 H751 0.960 . S
C764 C763 1.524 . S
C765 C762 1.403 . S
C765 C766 1.392 . S
C765 C769 1.495 . S
C766 C765 1.392 . S
C766 C767 1.385 . S
C766 C768 1.478 . S
C767 H761 0.930 . S
C767 C763 1.400 . S
C767 C766 1.385 . S
C768 C766 1.478 . S
C768 C770 1.381 . S
C768 C774 1.383 . S
C769 C765 1.495 . S
C769 H775 0.959 . S
C769 H776 0.961 . S
C769 H777 0.960 . S
C770 C768 1.381 . S
C770 C771 1.394 . S
C770 H778 0.930 . S
C771 C770 1.394 . S
C771 C772 1.383 . S
C771 H779 0.929 . S
C772 C771 1.383 . S
C772 C773 1.377 . S
C773 H757 0.930 1_545 S
C773 C772 1.377 . S
C773 C774 1.379 . S
C774 H758 0.931 . S
C774 C768 1.383 . S
C774 C773 1.379 . S
H775 C769 0.959 . S
H776 C769 0.961 . S
H777 C769 0.960 . S
H778 C770 0.930 . S
H779 C771 0.929 . S
H780 C788 0.929 . S
H781 C790 0.930 . S
H782 C792 0.930 . S
H783 C795 0.929 . S
H784 C798 0.930 . S
H785 C800 0.960 . S
H786 C800 0.960 . S
H787 C800 0.960 . S
C788 H780 0.929 . S
C788 C789 1.377 . S
C788 C790 1.384 . S
C789 C788 1.377 . S
C789 C795 1.390 . S
C790 H781 0.930 . S
C790 C788 1.384 . S
C790 C791 1.372 . S
C791 C790 1.372 . S
C791 C792 1.400 . S
C791 C796 1.490 . S
C792 H782 0.930 . S
C792 C791 1.400 . S
C792 C795 1.386 . S
H793 C809 0.930 . S
H794 C810 0.931 . S
C795 H783 0.929 . S
C795 C789 1.390 . S
C795 C792 1.386 . S
C796 C791 1.490 . S
C796 C798 1.395 . S
C796 C799 1.403 . S
H797 C803 0.930 . S
C798 H784 0.930 . S
C798 C796 1.395 . S
C798 C801 1.403 . S
C799 C796 1.403 . S
C799 C800 1.524 . S
C799 C803 1.400 . S
C800 H785 0.960 . S
C800 H786 0.960 . S
C800 H787 0.960 . S
C800 C799 1.524 . S
C801 C798 1.403 . S
C801 C802 1.392 . S
C801 C805 1.495 . S
C802 C801 1.392 . S
C802 C803 1.385 . S
C802 C804 1.478 . S
C803 H797 0.930 . S
C803 C799 1.400 . S
C803 C802 1.385 . S
C804 C802 1.478 . S
C804 C806 1.381 . S
C804 C810 1.383 . S
C805 C801 1.495 . S
C805 H811 0.959 . S
C805 H812 0.961 . S
C805 H813 0.960 . S
C806 C804 1.381 . S
C806 C807 1.394 . S
C806 H814 0.930 . S
C807 C806 1.394 . S
C807 C808 1.383 . S
C807 H815 0.929 . S
C808 C807 1.383 . S
C808 C809 1.377 . S
C809 H793 0.930 . S
C809 C808 1.377 . S
C809 C810 1.379 . S
C810 H794 0.931 . S
C810 C804 1.383 . S
C810 C809 1.379 . S
H811 C805 0.959 . S
H812 C805 0.961 . S
H813 C805 0.960 . S
H814 C806 0.930 . S
H815 C807 0.929 . S
H816 C824 0.929 . S
H817 C826 0.930 . S
H818 C828 0.930 . S
H819 C831 0.929 . S
H820 C834 0.930 . S
H821 C836 0.960 . S
H822 C836 0.960 . S
H823 C836 0.960 . S
C824 H816 0.929 . S
C824 C825 1.377 . S
C824 C826 1.384 . S
C825 C824 1.377 . S
C825 C831 1.390 . S
C826 H817 0.930 . S
C826 C824 1.384 . S
C826 C827 1.372 . S
C827 C826 1.372 . S
C827 C828 1.400 . S
C827 C832 1.490 . S
C828 H818 0.930 . S
C828 C827 1.400 . S
C828 C831 1.386 . S
H829 C845 0.930 . S
H830 C846 0.931 . S
C831 H819 0.929 . S
C831 C825 1.390 . S
C831 C828 1.386 . S
C832 C827 1.490 . S
C832 C834 1.395 . S
C832 C835 1.403 . S
H833 C839 0.930 . S
C834 H820 0.930 . S
C834 C832 1.395 . S
C834 C837 1.403 . S
C835 C832 1.403 . S
C835 C836 1.524 . S
C835 C839 1.400 . S
C836 H821 0.960 . S
C836 H822 0.960 . S
C836 H823 0.960 . S
C836 C835 1.524 . S
C837 C834 1.403 . S
C837 C838 1.392 . S
C837 C841 1.495 . S
C838 C837 1.392 . S
C838 C839 1.385 . S
C838 C840 1.478 . S
C839 H833 0.930 . S
C839 C835 1.400 . S
C839 C838 1.385 . S
C840 C838 1.478 . S
C840 C842 1.381 . S
C840 C846 1.383 . S
C841 C837 1.495 . S
C841 H847 0.959 . S
C841 H848 0.961 1_556 S
C841 H849 0.960 . S
C842 C840 1.381 . S
C842 C843 1.394 . S
C842 H850 0.930 . S
C843 C842 1.394 . S
C843 C844 1.383 . S
C843 H851 0.929 . S
C844 C843 1.383 . S
C844 C845 1.377 . S
C845 H829 0.930 . S
C845 C844 1.377 . S
C845 C846 1.379 . S
C846 H830 0.931 . S
C846 C840 1.383 . S
C846 C845 1.379 . S
H847 C841 0.959 . S
H848 C841 0.961 1_554 S
H849 C841 0.960 . S
H850 C842 0.930 . S
H851 C843 0.929 . S
H852 C860 0.929 . S
H853 C862 0.930 . S
H854 C864 0.930 . S
H855 C867 0.929 . S
H856 C870 0.930 . S
H857 C872 0.960 . S
H858 C872 0.960 . S
H859 C872 0.960 . S
C860 H852 0.929 . S
C860 C861 1.377 . S
C860 C862 1.384 . S
C861 C860 1.377 . S
C861 C867 1.390 . S
C862 H853 0.930 . S
C862 C860 1.384 . S
C862 C863 1.372 . S
C863 C862 1.372 . S
C863 C864 1.400 . S
C863 C868 1.490 . S
C864 H854 0.930 . S
C864 C863 1.400 . S
C864 C867 1.386 . S
H865 C881 0.930 . S
H866 C882 0.931 . S
C867 H855 0.929 . S
C867 C861 1.390 . S
C867 C864 1.386 . S
C868 C863 1.490 . S
C868 C870 1.395 . S
C868 C871 1.403 . S
H869 C875 0.930 . S
C870 H856 0.930 . S
C870 C868 1.395 . S
C870 C873 1.403 . S
C871 C868 1.403 . S
C871 C872 1.524 . S
C871 C875 1.400 . S
C872 H857 0.960 . S
C872 H858 0.960 . S
C872 H859 0.960 . S
C872 C871 1.524 . S
C873 C870 1.403 . S
C873 C874 1.392 . S
C873 C877 1.495 . S
C874 C873 1.392 . S
C874 C875 1.385 . S
C874 C876 1.478 . S
C875 H869 0.930 . S
C875 C871 1.400 . S
C875 C874 1.385 . S
C876 C874 1.478 . S
C876 C878 1.381 . S
C876 C882 1.383 . S
C877 C873 1.495 . S
C877 H883 0.959 . S
C877 H884 0.961 . S
C877 H885 0.960 . S
C878 C876 1.381 . S
C878 C879 1.394 . S
C878 H886 0.930 . S
C879 C878 1.394 . S
C879 C880 1.383 . S
C879 H887 0.929 . S
C880 C879 1.383 . S
C880 C881 1.377 . S
C881 H865 0.930 . S
C881 C880 1.377 . S
C881 C882 1.379 . S
C882 H866 0.931 . S
C882 C876 1.383 . S
C882 C881 1.379 . S
H883 C877 0.959 . S
H884 C877 0.961 . S
H885 C877 0.960 . S
H886 C878 0.930 . S
H887 C879 0.929 . S
H888 C896 0.929 . S
H889 C898 0.930 . S
H890 C900 0.930 . S
H891 C903 0.929 . S
H892 C906 0.930 . S
H893 C908 0.960 1_556 S
H894 C908 0.960 . S
H895 C908 0.960 . S
C896 H888 0.929 . S
C896 C897 1.377 . S
C896 C898 1.384 . S
C897 C896 1.377 . S
C897 C903 1.390 . S
C898 H889 0.930 . S
C898 C896 1.384 . S
C898 C899 1.372 . S
C899 C898 1.372 . S
C899 C900 1.400 . S
C899 C904 1.490 . S
C900 H890 0.930 . S
C900 C899 1.400 . S
C900 C903 1.386 . S
H901 C917 0.930 . S
H902 C918 0.931 . S
C903 H891 0.929 . S
C903 C897 1.390 . S
C903 C900 1.386 . S
C904 C899 1.490 . S
C904 C906 1.395 . S
C904 C907 1.403 . S
H905 C911 0.930 . S
C906 H892 0.930 . S
C906 C904 1.395 . S
C906 C909 1.403 . S
C907 C904 1.403 . S
C907 C908 1.524 . S
C907 C911 1.400 . S
C908 H893 0.960 1_554 S
C908 H894 0.960 . S
C908 H895 0.960 . S
C908 C907 1.524 . S
C909 C906 1.403 . S
C909 C910 1.392 . S
C909 C913 1.495 . S
C910 C909 1.392 . S
C910 C911 1.385 . S
C910 C912 1.478 . S
C911 H905 0.930 . S
C911 C907 1.400 . S
C911 C910 1.385 . S
C912 C910 1.478 . S
C912 C914 1.381 . S
C912 C918 1.383 . S
C913 C909 1.495 . S
C913 H919 0.959 . S
C913 H920 0.961 . S
C913 H921 0.960 . S
C914 C912 1.381 . S
C914 C915 1.394 . S
C914 H922 0.930 1_455 S
C915 C914 1.394 . S
C915 C916 1.383 . S
C915 H923 0.929 1_455 S
C916 C915 1.383 . S
C916 C917 1.377 . S
C917 H901 0.930 . S
C917 C916 1.377 . S
C917 C918 1.379 . S
C918 H902 0.931 . S
C918 C912 1.383 . S
C918 C917 1.379 . S
H919 C913 0.959 . S
H920 C913 0.961 . S
H921 C913 0.960 . S
H922 C914 0.930 1_655 S
H923 C915 0.929 1_655 S
H924 C932 0.929 . S
H925 C934 0.930 . S
H926 C936 0.930 . S
H927 C939 0.929 . S
H928 C942 0.930 . S
H929 C944 0.960 . S
H930 C944 0.960 . S
H931 C944 0.960 . S
C932 H924 0.929 . S
C932 C933 1.377 . S
C932 C934 1.384 . S
C933 C932 1.377 . S
C933 C939 1.390 . S
C934 H925 0.930 . S
C934 C932 1.384 . S
C934 C935 1.372 . S
C935 C934 1.372 . S
C935 C936 1.400 . S
C935 C940 1.490 . S
C936 H926 0.930 . S
C936 C935 1.400 . S
C936 C939 1.386 . S
H937 C953 0.930 . S
H938 C954 0.931 . S
C939 H927 0.929 . S
C939 C933 1.390 . S
C939 C936 1.386 . S
C940 C935 1.490 . S
C940 C942 1.395 . S
C940 C943 1.403 . S
H941 C947 0.930 . S
C942 H928 0.930 . S
C942 C940 1.395 . S
C942 C945 1.403 . S
C943 C940 1.403 . S
C943 C944 1.524 . S
C943 C947 1.400 . S
C944 H929 0.960 . S
C944 H930 0.960 . S
C944 H931 0.960 . S
C944 C943 1.524 . S
C945 C942 1.403 . S
C945 C946 1.392 . S
C945 C949 1.495 . S
C946 C945 1.392 . S
C946 C947 1.385 . S
C946 C948 1.478 . S
C947 H941 0.930 . S
C947 C943 1.400 . S
C947 C946 1.385 . S
C948 C946 1.478 . S
C948 C950 1.381 . S
C948 C954 1.383 . S
C949 C945 1.495 . S
C949 H955 0.959 . S
C949 H956 0.961 . S
C949 H957 0.960 . S
C950 C948 1.381 . S
C950 C951 1.394 . S
C950 H958 0.930 . S
C951 C950 1.394 . S
C951 C952 1.383 . S
C951 H959 0.929 . S
C952 C951 1.383 . S
C952 C953 1.377 . S
C953 H937 0.930 . S
C953 C952 1.377 . S
C953 C954 1.379 . S
C954 H938 0.931 . S
C954 C948 1.383 . S
C954 C953 1.379 . S
H955 C949 0.959 . S
H956 C949 0.961 . S
H957 C949 0.960 . S
H958 C950 0.930 . S
H959 C951 0.929 . S
H960 C968 0.929 . S
H961 C970 0.930 . S
H962 C972 0.930 . S
H963 C975 0.929 . S
H964 C978 0.930 . S
H965 C980 0.960 . S
H966 C980 0.960 . S
H967 C980 0.960 . S
C968 H960 0.929 . S
C968 C969 1.377 . S
C968 C970 1.384 . S
C969 C968 1.377 . S
C969 C975 1.390 . S
C970 H961 0.930 . S
C970 C968 1.384 . S
C970 C971 1.372 . S
C971 C970 1.372 . S
C971 C972 1.400 . S
C971 C976 1.490 . S
C972 H962 0.930 . S
C972 C971 1.400 . S
C972 C975 1.386 . S
H973 C989 0.930 1_455 S
H974 C990 0.913 1_455 S
C975 H963 0.929 . S
C975 C969 1.390 . S
C975 C972 1.386 . S
C976 C971 1.490 . S
C976 C978 1.395 . S
C976 C979 1.403 . S
H977 C983 0.930 . S
C978 H964 0.930 . S
C978 C976 1.395 . S
C978 C981 1.403 . S
C979 C976 1.403 . S
C979 C980 1.524 . S
C979 C983 1.400 . S
C980 H965 0.960 . S
C980 H966 0.960 . S
C980 H967 0.960 . S
C980 C979 1.524 . S
C981 C978 1.403 . S
C981 C982 1.392 . S
C981 C985 1.495 . S
C982 C981 1.392 . S
C982 C983 1.385 . S
C982 C984 1.478 . S
C983 H977 0.930 . S
C983 C979 1.400 . S
C983 C982 1.385 . S
C984 C982 1.478 . S
C984 C986 1.381 . S
C984 C990 1.383 . S
C985 C981 1.495 . S
C985 H991 0.959 . S
C985 H992 0.961 . S
C985 H993 0.960 . S
C986 C984 1.381 . S
C986 C987 1.394 . S
C986 H994 0.930 . S
C987 C986 1.394 . S
C987 C988 1.383 . S
C987 H995 0.929 . S
C988 C987 1.383 . S
C988 C989 1.377 . S
C989 H973 0.930 1_655 S
C989 C988 1.377 . S
C989 C990 1.379 . S
C990 H974 0.913 1_655 S
C990 C984 1.383 . S
C990 C989 1.379 . S
H991 C985 0.959 . S
H992 C985 0.961 . S
H993 C985 0.960 . S
H994 C986 0.930 . S
H995 C987 0.929 . S
H996 C1004 0.929 . S
H997 C1006 0.930 . S
H998 C1008 0.930 . S
H999 C1011 0.929 . S
H1000 C1014 0.930 . S
H1001 C1016 0.960 . S
H1002 C1016 0.960 . S
H1003 C1016 0.960 . S
C1004 H996 0.929 . S
C1004 C1005 1.377 . S
C1004 C1006 1.384 . S
C1005 C1004 1.377 . S
C1005 C1011 1.390 . S
C1006 H997 0.930 . S
C1006 C1004 1.384 . S
C1006 C1007 1.372 . S
C1007 C1006 1.372 . S
C1007 C1008 1.400 . S
C1007 C1012 1.490 . S
C1008 H998 0.930 . S
C1008 C1007 1.400 . S
C1008 C1011 1.386 . S
H1009 C1025 0.930 . S
H1010 C1026 0.931 . S
C1011 H999 0.929 . S
C1011 C1005 1.390 . S
C1011 C1008 1.386 . S
C1012 C1007 1.490 . S
C1012 C1014 1.395 . S
C1012 C1015 1.403 . S
H1013 C1019 0.930 . S
C1014 H1000 0.930 . S
C1014 C1012 1.395 . S
C1014 C1017 1.403 . S
C1015 C1012 1.403 . S
C1015 C1016 1.524 . S
C1015 C1019 1.400 . S
C1016 H1001 0.960 . S
C1016 H1002 0.960 . S
C1016 H1003 0.960 . S
C1016 C1015 1.524 . S
C1017 C1014 1.403 . S
C1017 C1018 1.392 . S
C1017 C1021 1.495 . S
C1018 C1017 1.392 . S
C1018 C1019 1.385 . S
C1018 C1020 1.478 . S
C1019 H1013 0.930 . S
C1019 C1015 1.400 . S
C1019 C1018 1.385 . S
C1020 C1018 1.478 . S
C1020 C1022 1.381 . S
C1020 C1026 1.383 . S
C1021 C1017 1.495 . S
C1021 H1027 0.959 . S
C1021 H1028 0.961 . S
C1021 H1029 0.960 . S
C1022 C1020 1.381 . S
C1022 C1023 1.394 . S
C1022 H1030 0.930 . S
C1023 C1022 1.394 . S
C1023 C1024 1.383 . S
C1023 H1031 0.929 . S
C1024 C1023 1.383 . S
C1024 C1025 1.377 . S
C1025 H1009 0.930 . S
C1025 C1024 1.377 . S
C1025 C1026 1.379 . S
C1026 H1010 0.931 . S
C1026 C1020 1.383 . S
C1026 C1025 1.379 . S
H1027 C1021 0.959 . S
H1028 C1021 0.961 . S
H1029 C1021 0.960 . S
H1030 C1022 0.930 . S
H1031 C1023 0.929 . S
H1032 C1040 0.929 . S
H1033 C1042 0.930 . S
H1034 C1044 0.930 . S
H1035 C1047 0.929 . S
H1036 C1050 0.930 . S
H1037 C1052 0.960 . S
H1038 C1052 0.960 . S
H1039 C1052 0.960 . S
C1040 H1032 0.929 . S
C1040 C1041 1.377 . S
C1040 C1042 1.384 . S
C1041 C1040 1.377 . S
C1041 C1047 1.390 . S
C1042 H1033 0.930 . S
C1042 C1040 1.384 . S
C1042 C1043 1.372 . S
C1043 C1042 1.372 . S
C1043 C1044 1.400 . S
C1043 C1048 1.490 . S
C1044 H1034 0.930 . S
C1044 C1043 1.400 . S
C1044 C1047 1.386 . S
H1045 C1061 0.930 . S
H1046 C1062 0.931 . S
C1047 H1035 0.929 . S
C1047 C1041 1.390 . S
C1047 C1044 1.386 . S
C1048 C1043 1.490 . S
C1048 C1050 1.395 . S
C1048 C1051 1.403 . S
H1049 C1055 0.930 . S
C1050 H1036 0.930 . S
C1050 C1048 1.395 . S
C1050 C1053 1.403 . S
C1051 C1048 1.403 . S
C1051 C1052 1.524 . S
C1051 C1055 1.400 . S
C1052 H1037 0.960 . S
C1052 H1038 0.960 . S
C1052 H1039 0.960 . S
C1052 C1051 1.524 . S
C1053 C1050 1.403 . S
C1053 C1054 1.392 . S
C1053 C1057 1.495 1_655 S
C1054 C1053 1.392 . S
C1054 C1055 1.385 . S
C1054 C1056 1.478 . S
C1055 H1049 0.930 . S
C1055 C1051 1.400 . S
C1055 C1054 1.385 . S
C1056 C1054 1.478 . S
C1056 C1058 1.381 . S
C1056 C1062 1.383 . S
C1057 C1053 1.495 1_455 S
C1057 H1063 0.959 . S
C1057 H1064 0.961 . S
C1057 H1065 0.960 . S
C1058 C1056 1.381 . S
C1058 C1059 1.394 . S
C1058 H1066 0.930 . S
C1059 C1058 1.394 . S
C1059 C1060 1.383 . S
C1059 H1067 0.931 1_655 S
C1060 C1059 1.383 . S
C1060 C1061 1.377 . S
C1061 H1045 0.930 . S
C1061 C1060 1.377 . S
C1061 C1062 1.379 . S
C1062 H1046 0.931 . S
C1062 C1056 1.383 . S
C1062 C1061 1.379 . S
H1063 C1057 0.959 . S
H1064 C1057 0.961 . S
H1065 C1057 0.960 . S
H1066 C1058 0.930 . S
H1067 C1059 0.931 1_455 S
H1068 C1076 0.929 . S
H1069 C1078 0.930 . S
H1070 C1080 0.930 . S
H1071 C1083 0.929 . S
H1072 C1086 0.930 . S
H1073 C1088 0.960 . S
H1074 C1088 0.960 . S
H1075 C1088 0.960 . S
C1076 H1068 0.929 . S
C1076 C1077 1.377 . S
C1076 C1078 1.384 . S
C1077 C1076 1.377 . S
C1077 C1083 1.390 . S
C1078 H1069 0.930 . S
C1078 C1076 1.384 . S
C1078 C1079 1.372 . S
C1079 C1078 1.372 . S
C1079 C1080 1.400 . S
C1079 C1084 1.490 . S
C1080 H1070 0.930 . S
C1080 C1079 1.400 . S
C1080 C1083 1.386 . S
H1081 C1097 0.930 . S
H1082 C1098 0.931 . S
C1083 H1071 0.929 . S
C1083 C1077 1.390 . S
C1083 C1080 1.386 . S
C1084 C1079 1.490 . S
C1084 C1086 1.395 . S
C1084 C1087 1.403 . S
H1085 C1091 0.930 . S
C1086 H1072 0.930 . S
C1086 C1084 1.395 . S
C1086 C1089 1.403 . S
C1087 C1084 1.403 . S
C1087 C1088 1.524 . S
C1087 C1091 1.400 . S
C1088 H1073 0.960 . S
C1088 H1074 0.960 . S
C1088 H1075 0.960 . S
C1088 C1087 1.524 . S
C1089 C1086 1.403 . S
C1089 C1090 1.392 . S
C1089 C1093 1.495 . S
C1090 C1089 1.392 . S
C1090 C1091 1.385 . S
C1090 C1092 1.478 . S
C1091 H1085 0.930 . S
C1091 C1087 1.400 . S
C1091 C1090 1.385 . S
C1092 C1090 1.478 . S
C1092 C1094 1.381 . S
C1092 C1098 1.383 . S
C1093 C1089 1.495 . S
C1093 H1099 0.959 . S
C1093 H1100 0.961 . S
C1093 H1101 0.960 . S
C1094 C1092 1.381 . S
C1094 C1095 1.394 . S
C1094 H1102 0.930 . S
C1095 C1094 1.394 . S
C1095 C1096 1.383 . S
C1095 H1103 0.929 . S
C1096 C1095 1.383 . S
C1096 C1097 1.377 . S
C1097 H1081 0.930 . S
C1097 C1096 1.377 . S
C1097 C1098 1.379 . S
C1098 H1082 0.931 . S
C1098 C1092 1.383 . S
C1098 C1097 1.379 . S
H1099 C1093 0.959 . S
H1100 C1093 0.961 . S
H1101 C1093 0.960 . S
H1102 C1094 0.930 . S
H1103 C1095 0.929 . S
H1104 C1112 0.929 . S
H1105 C1114 0.930 . S
H1106 C1116 0.930 . S
H1107 C1119 0.929 . S
H1108 C1122 0.930 . S
H1109 C1124 0.960 . S
H1110 C1124 0.960 . S
H1111 C1124 0.960 . S
C1112 H1104 0.929 . S
C1112 C1113 1.377 . S
C1112 C1114 1.384 . S
C1113 C1112 1.377 . S
C1113 C1119 1.390 . S
C1114 H1105 0.930 . S
C1114 C1112 1.384 . S
C1114 C1115 1.372 . S
C1115 C1114 1.372 . S
C1115 C1116 1.400 . S
C1115 C1120 1.490 . S
C1116 H1106 0.930 . S
C1116 C1115 1.400 . S
C1116 C1119 1.386 . S
H1117 C1133 0.930 . S
H1118 C1134 0.931 . S
C1119 H1107 0.929 . S
C1119 C1113 1.390 . S
C1119 C1116 1.386 . S
C1120 C1115 1.490 . S
C1120 C1122 1.395 . S
C1120 C1123 1.403 . S
H1121 C1127 0.930 . S
C1122 H1108 0.930 . S
C1122 C1120 1.395 . S
C1122 C1125 1.403 . S
C1123 C1120 1.403 . S
C1123 C1124 1.524 . S
C1123 C1127 1.400 . S
C1124 H1109 0.960 . S
C1124 H1110 0.960 . S
C1124 H1111 0.960 . S
C1124 C1123 1.524 . S
C1125 C1122 1.403 . S
C1125 C1126 1.392 . S
C1125 C1129 1.495 . S
C1126 C1125 1.392 . S
C1126 C1127 1.385 . S
C1126 C1128 1.478 . S
C1127 H1121 0.930 . S
C1127 C1123 1.400 . S
C1127 C1126 1.385 . S
C1128 C1126 1.478 . S
C1128 C1130 1.381 . S
C1128 C1134 1.383 . S
C1129 C1125 1.495 . S
C1129 H1135 0.959 . S
C1129 H1136 0.961 . S
C1129 H1137 0.960 . S
C1130 C1128 1.381 . S
C1130 C1131 1.394 . S
C1130 H1138 0.930 . S
C1131 C1130 1.394 . S
C1131 C1132 1.383 . S
C1131 H1139 0.929 . S
C1132 C1131 1.383 . S
C1132 C1133 1.377 . S
C1133 H1117 0.930 . S
C1133 C1132 1.377 . S
C1133 C1134 1.379 . S
C1134 H1118 0.931 . S
C1134 C1128 1.383 . S
C1134 C1133 1.379 . S
H1135 C1129 0.959 . S
H1136 C1129 0.961 . S
H1137 C1129 0.960 . S
H1138 C1130 0.930 . S
H1139 C1131 0.929 . S
H1140 C1148 0.929 . S
H1141 C1150 0.930 . S
H1142 C1152 0.930 . S
H1143 C1155 0.929 . S
H1144 C1158 0.930 . S
H1145 C1160 0.960 . S
H1146 C1160 0.960 . S
H1147 C1160 0.960 . S
C1148 H1140 0.929 . S
C1148 C1149 1.377 . S
C1148 C1150 1.384 . S
C1149 C1148 1.377 . S
C1149 C1155 1.390 . S
C1150 H1141 0.930 . S
C1150 C1148 1.384 . S
C1150 C1151 1.372 . S
C1151 C1150 1.372 . S
C1151 C1152 1.400 . S
C1151 C1156 1.490 . S
C1152 H1142 0.930 . S
C1152 C1151 1.400 . S
C1152 C1155 1.386 . S
H1153 C1169 0.930 . S
H1154 C1170 0.931 . S
C1155 H1143 0.929 . S
C1155 C1149 1.390 . S
C1155 C1152 1.386 . S
C1156 C1151 1.490 . S
C1156 C1158 1.395 . S
C1156 C1159 1.403 . S
H1157 C1163 0.930 . S
C1158 H1144 0.930 . S
C1158 C1156 1.395 . S
C1158 C1161 1.403 . S
C1159 C1156 1.403 . S
C1159 C1160 1.524 . S
C1159 C1163 1.400 . S
C1160 H1145 0.960 . S
C1160 H1146 0.960 . S
C1160 H1147 0.960 . S
C1160 C1159 1.524 . S
C1161 C1158 1.403 . S
C1161 C1162 1.392 . S
C1161 C1165 1.495 . S
C1162 C1161 1.392 . S
C1162 C1163 1.385 . S
C1162 C1164 1.478 . S
C1163 H1157 0.930 . S
C1163 C1159 1.400 . S
C1163 C1162 1.385 . S
C1164 C1162 1.478 . S
C1164 C1166 1.381 . S
C1164 C1170 1.383 . S
C1165 C1161 1.495 . S
C1165 H1171 0.959 . S
C1165 H1172 0.961 . S
C1165 H1173 0.960 . S
C1166 C1164 1.381 . S
C1166 C1167 1.394 . S
C1166 H1174 0.930 . S
C1167 C1166 1.394 . S
C1167 C1168 1.383 . S
C1167 H1175 0.929 . S
C1168 C1167 1.383 . S
C1168 C1169 1.377 . S
C1169 H1153 0.930 . S
C1169 C1168 1.377 . S
C1169 C1170 1.379 . S
C1170 H1154 0.931 . S
C1170 C1164 1.383 . S
C1170 C1169 1.379 . S
H1171 C1165 0.959 . S
H1172 C1165 0.961 . S
H1173 C1165 0.960 . S
H1174 C1166 0.930 . S
H1175 C1167 0.929 . S
H1176 C1184 0.929 . S
H1177 C1186 0.930 . S
H1178 C1188 0.930 . S
H1179 C1191 0.929 . S
H1180 C1194 0.930 . S
H1181 C1196 0.960 . S
H1182 C1196 0.960 . S
H1183 C1196 0.960 . S
C1184 H1176 0.929 . S
C1184 C1185 1.377 . S
C1184 C1186 1.384 . S
C1185 C1184 1.377 . S
C1185 C1191 1.390 . S
C1186 H1177 0.930 . S
C1186 C1184 1.384 . S
C1186 C1187 1.372 . S
C1187 C1186 1.372 . S
C1187 C1188 1.400 . S
C1187 C1192 1.490 . S
C1188 H1178 0.930 . S
C1188 C1187 1.400 . S
C1188 C1191 1.386 . S
H1189 C1205 0.930 . S
H1190 C1206 0.931 . S
C1191 H1179 0.929 . S
C1191 C1185 1.390 . S
C1191 C1188 1.386 . S
C1192 C1187 1.490 . S
C1192 C1194 1.395 . S
C1192 C1195 1.403 . S
H1193 C1199 0.930 . S
C1194 H1180 0.930 . S
C1194 C1192 1.395 . S
C1194 C1197 1.403 . S
C1195 C1192 1.403 . S
C1195 C1196 1.524 . S
C1195 C1199 1.400 . S
C1196 H1181 0.960 . S
C1196 H1182 0.960 . S
C1196 H1183 0.960 . S
C1196 C1195 1.524 . S
C1197 C1194 1.403 . S
C1197 C1198 1.392 . S
C1197 C1201 1.495 . S
C1198 C1197 1.392 . S
C1198 C1199 1.385 . S
C1198 C1200 1.478 . S
C1199 H1193 0.930 . S
C1199 C1195 1.400 . S
C1199 C1198 1.385 . S
C1200 C1198 1.478 . S
C1200 C1202 1.381 . S
C1200 C1206 1.383 . S
C1201 C1197 1.495 . S
C1201 H1207 0.972 . S
C1201 H1208 0.961 . S
C1201 H1209 0.960 1_565 S
C1202 C1200 1.381 . S
C1202 C1203 1.394 . S
C1202 H1210 0.915 1_565 S
C1203 C1202 1.394 . S
C1203 C1204 1.383 . S
C1203 H1211 0.929 1_565 S
C1204 C1203 1.383 . S
C1204 C1205 1.377 . S
C1205 H1189 0.930 . S
C1205 C1204 1.377 . S
C1205 C1206 1.379 . S
C1206 H1190 0.931 . S
C1206 C1200 1.383 . S
C1206 C1205 1.379 . S
H1207 C1201 0.972 . S
H1208 C1201 0.961 . S
H1209 C1201 0.960 1_545 S
H1210 C1202 0.915 1_545 S
H1211 C1203 0.929 1_545 S
H1212 C1220 0.929 . S
H1213 C1222 0.930 . S
H1214 C1224 0.930 . S
H1215 C1227 0.929 . S
H1216 C1230 0.930 . S
H1217 C1232 0.960 . S
H1218 C1232 0.960 . S
H1219 C1232 0.960 . S
C1220 H1212 0.929 . S
C1220 C1221 1.377 . S
C1220 C1222 1.384 . S
C1221 C1220 1.377 . S
C1221 C1227 1.390 . S
C1222 H1213 0.930 . S
C1222 C1220 1.384 . S
C1222 C1223 1.372 . S
C1223 C1222 1.372 . S
C1223 C1224 1.400 . S
C1223 C1228 1.490 . S
C1224 H1214 0.930 . S
C1224 C1223 1.400 . S
C1224 C1227 1.386 . S
H1225 C1241 0.930 . S
H1226 C1242 0.931 . S
C1227 H1215 0.929 . S
C1227 C1221 1.390 . S
C1227 C1224 1.386 . S
C1228 C1223 1.490 . S
C1228 C1230 1.395 . S
C1228 C1231 1.403 . S
H1229 C1235 0.930 . S
C1230 H1216 0.930 . S
C1230 C1228 1.395 . S
C1230 C1233 1.403 . S
C1231 C1228 1.403 . S
C1231 C1232 1.524 . S
C1231 C1235 1.400 . S
C1232 H1217 0.960 . S
C1232 H1218 0.960 . S
C1232 H1219 0.960 . S
C1232 C1231 1.524 . S
C1233 C1230 1.403 . S
C1233 C1234 1.392 . S
C1233 C1237 1.495 . S
C1234 C1233 1.392 . S
C1234 C1235 1.385 . S
C1234 C1236 1.478 . S
C1235 H1229 0.930 . S
C1235 C1231 1.400 . S
C1235 C1234 1.385 . S
C1236 C1234 1.478 . S
C1236 C1238 1.381 . S
C1236 C1242 1.383 . S
C1237 C1233 1.495 . S
C1237 H1243 0.959 . S
C1237 H1244 0.961 . S
C1237 H1245 0.960 . S
C1238 C1236 1.381 . S
C1238 C1239 1.394 . S
C1238 H1246 0.930 . S
C1239 C1238 1.394 . S
C1239 C1240 1.383 . S
C1239 H1247 0.929 . S
C1240 C1239 1.383 . S
C1240 C1241 1.377 . S
C1241 H1225 0.930 . S
C1241 C1240 1.377 . S
C1241 C1242 1.379 . S
C1242 H1226 0.931 . S
C1242 C1236 1.383 . S
C1242 C1241 1.379 . S
H1243 C1237 0.959 . S
H1244 C1237 0.961 . S
H1245 C1237 0.960 . S
H1246 C1238 0.930 . S
H1247 C1239 0.929 . S
H1248 C1256 0.929 . S
H1249 C1258 0.930 . S
H1250 C1260 0.930 . S
H1251 C1263 0.929 . S
H1252 C1266 0.930 . S
H1253 C1268 0.960 . S
H1254 C1268 0.960 . S
H1255 C1268 0.960 . S
C1256 H1248 0.929 . S
C1256 C1257 1.377 . S
C1256 C1258 1.384 . S
C1257 C1256 1.377 . S
C1257 C1263 1.390 . S
C1258 H1249 0.930 . S
C1258 C1256 1.384 . S
C1258 C1259 1.372 . S
C1259 C1258 1.372 . S
C1259 C1260 1.400 . S
C1259 C1264 1.490 . S
C1260 H1250 0.930 . S
C1260 C1259 1.400 . S
C1260 C1263 1.386 . S
H1261 C1277 0.930 . S
H1262 C1278 0.931 . S
C1263 H1251 0.929 . S
C1263 C1257 1.390 . S
C1263 C1260 1.386 . S
C1264 C1259 1.490 . S
C1264 C1266 1.395 . S
C1264 C1267 1.403 . S
H1265 C1271 0.930 . S
C1266 H1252 0.930 . S
C1266 C1264 1.395 . S
C1266 C1269 1.403 . S
C1267 C1264 1.403 . S
C1267 C1268 1.524 . S
C1267 C1271 1.400 . S
C1268 H1253 0.960 . S
C1268 H1254 0.960 . S
C1268 H1255 0.960 . S
C1268 C1267 1.524 . S
C1269 C1266 1.403 . S
C1269 C1270 1.392 . S
C1269 C1273 1.495 . S
C1270 C1269 1.392 . S
C1270 C1271 1.385 . S
C1270 C1272 1.478 . S
C1271 H1265 0.930 . S
C1271 C1267 1.400 . S
C1271 C1270 1.385 . S
C1272 C1270 1.478 . S
C1272 C1274 1.381 . S
C1272 C1278 1.383 . S
C1273 C1269 1.495 . S
C1273 H1279 0.959 . S
C1273 H1280 0.961 . S
C1273 H1281 0.960 . S
C1274 C1272 1.381 . S
C1274 C1275 1.394 . S
C1274 H1282 0.930 1_554 S
C1275 C1274 1.394 . S
C1275 C1276 1.383 . S
C1275 H1283 0.929 1_554 S
C1276 C1275 1.383 . S
C1276 C1277 1.377 . S
C1277 H1261 0.930 . S
C1277 C1276 1.377 . S
C1277 C1278 1.379 . S
C1278 H1262 0.931 . S
C1278 C1272 1.383 . S
C1278 C1277 1.379 . S
H1279 C1273 0.959 . S
H1280 C1273 0.961 . S
H1281 C1273 0.960 . S
H1282 C1274 0.930 1_556 S
H1283 C1275 0.929 1_556 S
H1284 C1292 0.929 . S
H1285 C1294 0.930 . S
H1286 C1296 0.930 . S
H1287 C1299 0.929 . S
H1288 C1302 0.930 . S
H1289 C1304 0.960 . S
H1290 C1304 0.960 . S
H1291 C1304 0.960 . S
C1292 H1284 0.929 . S
C1292 C1293 1.377 . S
C1292 C1294 1.384 . S
C1293 C1292 1.377 . S
C1293 C1299 1.390 . S
C1294 H1285 0.930 . S
C1294 C1292 1.384 . S
C1294 C1295 1.372 . S
C1295 C1294 1.372 . S
C1295 C1296 1.400 . S
C1295 C1300 1.490 . S
C1296 H1286 0.930 . S
C1296 C1295 1.400 . S
C1296 C1299 1.386 . S
H1297 C1313 0.930 . S
H1298 C1314 0.931 . S
C1299 H1287 0.929 . S
C1299 C1293 1.390 . S
C1299 C1296 1.386 . S
C1300 C1295 1.490 . S
C1300 C1302 1.395 . S
C1300 C1303 1.403 . S
H1301 C1307 0.930 . S
C1302 H1288 0.930 . S
C1302 C1300 1.395 . S
C1302 C1305 1.403 . S
C1303 C1300 1.403 . S
C1303 C1304 1.524 . S
C1303 C1307 1.400 . S
C1304 H1289 0.960 . S
C1304 H1290 0.960 . S
C1304 H1291 0.960 . S
C1304 C1303 1.524 . S
C1305 C1302 1.403 . S
C1305 C1306 1.392 . S
C1305 C1309 1.495 . S
C1306 C1305 1.392 . S
C1306 C1307 1.385 . S
C1306 C1308 1.478 . S
C1307 H1301 0.930 . S
C1307 C1303 1.400 . S
C1307 C1306 1.385 . S
C1308 C1306 1.478 . S
C1308 C1310 1.381 . S
C1308 C1314 1.383 . S
C1309 C1305 1.495 . S
C1309 H1315 0.959 . S
C1309 H1316 0.961 . S
C1309 H1317 0.960 . S
C1310 C1308 1.381 . S
C1310 C1311 1.394 . S
C1310 H1318 0.930 . S
C1311 C1310 1.394 . S
C1311 C1312 1.383 . S
C1311 H1319 0.929 . S
C1312 C1311 1.383 . S
C1312 C1313 1.377 . S
C1313 H1297 0.930 . S
C1313 C1312 1.377 . S
C1313 C1314 1.379 . S
C1314 H1298 0.931 . S
C1314 C1308 1.383 . S
C1314 C1313 1.379 . S
H1315 C1309 0.959 . S
H1316 C1309 0.961 . S
H1317 C1309 0.960 . S
H1318 C1310 0.930 . S
H1319 C1311 0.929 . S
H1320 C1328 0.929 . S
H1321 C1330 0.930 . S
H1322 C1332 0.930 . S
H1323 C1335 0.929 . S
H1324 C1338 0.930 . S
H1325 C1340 0.960 1_455 S
H1326 C1340 0.960 . S
H1327 C1340 0.960 . S
C1328 H1320 0.929 . S
C1328 C1329 1.377 . S
C1328 C1330 1.384 . S
C1329 C1328 1.377 . S
C1329 C1335 1.390 . S
C1330 H1321 0.930 . S
C1330 C1328 1.384 . S
C1330 C1331 1.372 . S
C1331 C1330 1.372 . S
C1331 C1332 1.400 . S
C1331 C1336 1.490 . S
C1332 H1322 0.930 . S
C1332 C1331 1.400 . S
C1332 C1335 1.386 . S
H1333 C1349 0.930 . S
H1334 C1350 0.931 . S
C1335 H1323 0.929 . S
C1335 C1329 1.390 . S
C1335 C1332 1.386 . S
C1336 C1331 1.490 . S
C1336 C1338 1.395 . S
C1336 C1339 1.403 . S
H1337 C1343 0.930 . S
C1338 H1324 0.930 . S
C1338 C1336 1.395 . S
C1338 C1341 1.403 . S
C1339 C1336 1.403 . S
C1339 C1340 1.524 . S
C1339 C1343 1.400 . S
C1340 H1325 0.960 1_655 S
C1340 H1326 0.960 . S
C1340 H1327 0.960 . S
C1340 C1339 1.524 . S
C1341 C1338 1.403 . S
C1341 C1342 1.392 . S
C1341 C1345 1.495 . S
C1342 C1341 1.392 . S
C1342 C1343 1.385 . S
C1342 C1344 1.478 . S
C1343 H1337 0.930 . S
C1343 C1339 1.400 . S
C1343 C1342 1.385 . S
C1344 C1342 1.478 . S
C1344 C1346 1.381 . S
C1344 C1350 1.383 . S
C1345 C1341 1.495 . S
C1345 H1351 0.959 . S
C1345 H1352 0.961 . S
C1345 H1353 0.960 . S
C1346 C1344 1.381 . S
C1346 C1347 1.394 . S
C1346 H1354 0.963 . S
C1347 C1346 1.394 . S
C1347 C1348 1.383 . S
C1347 H1355 0.929 1_556 S
C1348 C1347 1.383 . S
C1348 C1349 1.377 . S
C1349 H1333 0.930 . S
C1349 C1348 1.377 . S
C1349 C1350 1.379 . S
C1350 H1334 0.931 . S
C1350 C1344 1.383 . S
C1350 C1349 1.379 . S
H1351 C1345 0.959 . S
H1352 C1345 0.961 . S
H1353 C1345 0.960 . S
H1354 C1346 0.963 . S
H1355 C1347 0.929 1_554 S
H1356 C1364 0.929 . S
H1357 C1366 0.930 . S
H1358 C1368 0.930 . S
H1359 C1371 0.929 . S
H1360 C1374 0.930 . S
H1361 C1376 0.960 . S
H1362 C1376 0.960 . S
H1363 C1376 0.960 . S
C1364 H1356 0.929 . S
C1364 C1365 1.377 . S
C1364 C1366 1.384 . S
C1365 C1364 1.377 . S
C1365 C1371 1.390 . S
C1366 H1357 0.930 . S
C1366 C1364 1.384 . S
C1366 C1367 1.372 . S
C1367 C1366 1.372 . S
C1367 C1368 1.400 . S
C1367 C1372 1.490 . S
C1368 H1358 0.930 . S
C1368 C1367 1.400 . S
C1368 C1371 1.386 . S
H1369 C1385 0.930 1_556 S
H1370 C1386 0.931 . S
C1371 H1359 0.929 . S
C1371 C1365 1.390 . S
C1371 C1368 1.386 . S
C1372 C1367 1.490 . S
C1372 C1374 1.395 . S
C1372 C1375 1.403 . S
H1373 C1379 0.930 . S
C1374 H1360 0.930 . S
C1374 C1372 1.395 . S
C1374 C1377 1.403 . S
C1375 C1372 1.403 . S
C1375 C1376 1.524 . S
C1375 C1379 1.400 . S
C1376 H1361 0.960 . S
C1376 H1362 0.960 . S
C1376 H1363 0.960 . S
C1376 C1375 1.524 . S
C1377 C1374 1.403 . S
C1377 C1378 1.392 . S
C1377 C1381 1.495 . S
C1378 C1377 1.392 . S
C1378 C1379 1.385 . S
C1378 C1380 1.478 . S
C1379 H1373 0.930 . S
C1379 C1375 1.400 . S
C1379 C1378 1.385 . S
C1380 C1378 1.478 . S
C1380 C1382 1.381 . S
C1380 C1386 1.383 . S
C1381 C1377 1.495 . S
C1381 H1387 0.959 . S
C1381 H1388 0.961 . S
C1381 H1389 0.960 . S
C1382 C1380 1.381 . S
C1382 C1383 1.394 . S
C1382 H1390 0.930 . S
C1383 C1382 1.394 . S
C1383 C1384 1.383 . S
C1383 H1391 0.929 . S
C1384 C1383 1.383 . S
C1384 C1385 1.377 . S
C1385 H1369 0.930 1_554 S
C1385 C1384 1.377 . S
C1385 C1386 1.379 . S
C1386 H1370 0.931 . S
C1386 C1380 1.383 . S
C1386 C1385 1.379 . S
H1387 C1381 0.959 . S
H1388 C1381 0.961 . S
H1389 C1381 0.960 . S
H1390 C1382 0.930 . S
H1391 C1383 0.929 . S
H1392 C1400 0.929 . S
H1393 C1402 0.930 . S
H1394 C1404 0.930 . S
H1395 C1407 0.929 . S
H1396 C1410 0.930 . S
H1397 C1412 0.960 . S
H1398 C1412 0.960 . S
H1399 C1412 0.960 . S
C1400 H1392 0.929 . S
C1400 C1401 1.377 . S
C1400 C1402 1.384 . S
C1401 C1400 1.377 . S
C1401 C1407 1.390 . S
C1402 H1393 0.930 . S
C1402 C1400 1.384 . S
C1402 C1403 1.372 . S
C1403 C1402 1.372 . S
C1403 C1404 1.400 . S
C1403 C1408 1.490 . S
C1404 H1394 0.930 . S
C1404 C1403 1.400 . S
C1404 C1407 1.386 . S
H1405 C1421 0.930 . S
H1406 C1422 0.931 . S
C1407 H1395 0.929 . S
C1407 C1401 1.390 . S
C1407 C1404 1.386 . S
C1408 C1403 1.490 . S
C1408 C1410 1.395 . S
C1408 C1411 1.403 . S
H1409 C1415 0.930 . S
C1410 H1396 0.930 . S
C1410 C1408 1.395 . S
C1410 C1413 1.403 . S
C1411 C1408 1.403 . S
C1411 C1412 1.524 . S
C1411 C1415 1.400 . S
C1412 H1397 0.960 . S
C1412 H1398 0.960 . S
C1412 H1399 0.960 . S
C1412 C1411 1.524 . S
C1413 C1410 1.403 . S
C1413 C1414 1.392 . S
C1413 C1417 1.495 1_455 S
C1414 C1413 1.392 . S
C1414 C1415 1.385 . S
C1414 C1416 1.478 . S
C1415 H1409 0.930 . S
C1415 C1411 1.400 . S
C1415 C1414 1.385 . S
C1416 C1414 1.478 . S
C1416 C1418 1.381 . S
C1416 C1422 1.383 . S
C1417 C1413 1.495 1_655 S
C1417 H1423 0.959 . S
C1417 H1424 0.961 . S
C1417 H1425 0.960 . S
C1418 C1416 1.381 . S
C1418 C1419 1.394 . S
C1418 H1426 0.907 1_455 S
C1419 C1418 1.394 . S
C1419 C1420 1.383 . S
C1419 H1427 0.929 1_455 S
C1420 C1419 1.383 . S
C1420 C1421 1.377 . S
C1421 H1405 0.930 . S
C1421 C1420 1.377 . S
C1421 C1422 1.379 . S
C1422 H1406 0.931 . S
C1422 C1416 1.383 . S
C1422 C1421 1.379 . S
H1423 C1417 0.959 . S
H1424 C1417 0.961 . S
H1425 C1417 0.960 . S
H1426 C1418 0.907 1_655 S
H1427 C1419 0.929 1_655 S
H1428 C1436 0.929 . S
H1429 C1438 0.930 . S
H1430 C1440 0.930 . S
H1431 C1443 0.929 . S
H1432 C1446 0.930 . S
H1433 C1448 0.960 . S
H1434 C1448 0.960 . S
H1435 C1448 0.960 . S
C1436 H1428 0.929 . S
C1436 C1437 1.377 . S
C1436 C1438 1.384 . S
C1437 C1436 1.377 . S
C1437 C1443 1.390 . S
C1438 H1429 0.930 . S
C1438 C1436 1.384 . S
C1438 C1439 1.372 . S
C1439 C1438 1.372 . S
C1439 C1440 1.400 . S
C1439 C1444 1.490 . S
C1440 H1430 0.930 . S
C1440 C1439 1.400 . S
C1440 C1443 1.386 . S
H1441 C1457 0.930 . S
H1442 C1458 0.931 . S
C1443 H1431 0.929 . S
C1443 C1437 1.390 . S
C1443 C1440 1.386 . S
C1444 C1439 1.490 . S
C1444 C1446 1.395 . S
C1444 C1447 1.403 . S
H1445 C1451 0.930 . S
C1446 H1432 0.930 . S
C1446 C1444 1.395 . S
C1446 C1449 1.403 . S
C1447 C1444 1.403 . S
C1447 C1448 1.524 . S
C1447 C1451 1.400 . S
C1448 H1433 0.960 . S
C1448 H1434 0.960 . S
C1448 H1435 0.960 . S
C1448 C1447 1.524 . S
C1449 C1446 1.403 . S
C1449 C1450 1.392 . S
C1449 C1453 1.495 . S
C1450 C1449 1.392 . S
C1450 C1451 1.385 . S
C1450 C1452 1.478 . S
C1451 H1445 0.930 . S
C1451 C1447 1.400 . S
C1451 C1450 1.385 . S
C1452 C1450 1.478 . S
C1452 C1454 1.381 . S
C1452 C1458 1.383 . S
C1453 C1449 1.495 . S
C1453 H1459 0.959 . S
C1453 H1460 0.961 . S
C1453 H1461 0.960 . S
C1454 C1452 1.381 . S
C1454 C1455 1.394 . S
C1454 H1462 0.930 . S
C1455 C1454 1.394 . S
C1455 C1456 1.383 . S
C1455 H1463 0.929 . S
C1456 C1455 1.383 . S
C1456 C1457 1.377 . S
C1457 H1441 0.930 . S
C1457 C1456 1.377 . S
C1457 C1458 1.379 . S
C1458 H1442 0.931 . S
C1458 C1452 1.383 . S
C1458 C1457 1.379 . S
H1459 C1453 0.959 . S
H1460 C1453 0.961 . S
H1461 C1453 0.960 . S
H1462 C1454 0.930 . S
H1463 C1455 0.929 . S
C609 C1 2.155 . S
C628 C496 2.178 . S
C645 C80 1.082 . S
C664 N516 1.049 . S
C700 C550 1.982 . S
C681 C140 1.924 . S
C717 C211 1.296 . S
C736 N584 1.280 . S
C772 C537 2.373 . S
C753 C31 2.355 . S
C808 N494 1.199 . S
C789 C61 1.169 . S
C844 C571 1.959 . S
C825 C151 1.900 . S
C880 N546 1.023 . S
C861 C200 0.982 . S
C897 C20 1.841 . S
C916 C586 1.853 . S
C952 C520 1.705 . S
C933 C121 1.643 . S
C969 C181 1.411 . S
C988 C481 1.476 . S
C1005 C91 1.407 . S
C1024 C567 1.457 . S
C1060 C507 2.183 . S
C1041 C260 2.170 . S
C1077 C320 1.082 . S
C1096 N524 1.083 . S
C1113 C361 1.969 . S
C1132 C541 1.975 . S
C1149 C451 1.292 . S
C1168 N576 1.306 . S
C1185 C271 2.354 . S
C1204 C526 2.370 . S
C1240 N486 1.190 . S
C1221 C301 1.155 . S
C1276 C580 1.959 . S
C1257 C380 1.934 . S
C1312 N554 0.983 . S
C1293 C440 0.991 . S
C1329 C241 1.828 . S
C1348 C597 1.852 . S
C1384 C511 1.698 . S
C1365 C391 1.686 . S
C1420 C490 1.469 . S
C1401 C421 1.412 . S
C1437 C331 1.419 . S
C1456 C556 1.464 . S
