# Generated by pormake.
# Topology pyr, (3,6)-cn, num edge types: 1
# Building blocks:
#     Node 0, Type 0, BuildingBlock: BETDIP_clean_linker_0, # of connection points: 3
#     Node 1, Type 0, BuildingBlock: BETDIP_clean_linker_0, # of connection points: 3
#     Node 2, Type 0, BuildingBlock: BETDIP_clean_linker_0, # of connection points: 3
#     Node 3, Type 0, BuildingBlock: BETDIP_clean_linker_0, # of connection points: 3
#     Node 4, Type 0, BuildingBlock: BETDIP_clean_linker_0, # of connection points: 3
#     Node 5, Type 0, BuildingBlock: BETDIP_clean_linker_0, # of connection points: 3
#     Node 6, Type 0, BuildingBlock: BETDIP_clean_linker_0, # of connection points: 3
#     Node 7, Type 0, BuildingBlock: BETDIP_clean_linker_0, # of connection points: 3
#     Node 8, Type 1, BuildingBlock: MIDCAF_clean_sbu_0, # of connection points: 6
#     Node 9, Type 1, BuildingBlock: MIDCAF_clean_sbu_0, # of connection points: 6
#     Node 10, Type 1, BuildingBlock: MIDCAF_clean_sbu_0, # of connection points: 6
#     Node 11, Type 1, BuildingBlock: MIDCAF_clean_sbu_0, # of connection points: 6
#     Edge 12, Type (0, 1), BuildingBlock: XUDNAN_clean_linker_2, # of connection points: 2
#     Edge 13, Type (0, 1), BuildingBlock: XUDNAN_clean_linker_2, # of connection points: 2
#     Edge 14, Type (0, 1), BuildingBlock: XUDNAN_clean_linker_2, # of connection points: 2
#     Edge 15, Type (0, 1), BuildingBlock: XUDNAN_clean_linker_2, # of connection points: 2
#     Edge 16, Type (0, 1), BuildingBlock: XUDNAN_clean_linker_2, # of connection points: 2
#     Edge 17, Type (0, 1), BuildingBlock: XUDNAN_clean_linker_2, # of connection points: 2
#     Edge 18, Type (0, 1), BuildingBlock: XUDNAN_clean_linker_2, # of connection points: 2
#     Edge 19, Type (0, 1), BuildingBlock: XUDNAN_clean_linker_2, # of connection points: 2
#     Edge 20, Type (0, 1), BuildingBlock: XUDNAN_clean_linker_2, # of connection points: 2
#     Edge 21, Type (0, 1), BuildingBlock: XUDNAN_clean_linker_2, # of connection points: 2
#     Edge 22, Type (0, 1), BuildingBlock: XUDNAN_clean_linker_2, # of connection points: 2
#     Edge 23, Type (0, 1), BuildingBlock: XUDNAN_clean_linker_2, # of connection points: 2
#     Edge 24, Type (0, 1), BuildingBlock: XUDNAN_clean_linker_2, # of connection points: 2
#     Edge 25, Type (0, 1), BuildingBlock: XUDNAN_clean_linker_2, # of connection points: 2
#     Edge 26, Type (0, 1), BuildingBlock: XUDNAN_clean_linker_2, # of connection points: 2
#     Edge 27, Type (0, 1), BuildingBlock: XUDNAN_clean_linker_2, # of connection points: 2
#     Edge 28, Type (0, 1), BuildingBlock: XUDNAN_clean_linker_2, # of connection points: 2
#     Edge 29, Type (0, 1), BuildingBlock: XUDNAN_clean_linker_2, # of connection points: 2
#     Edge 30, Type (0, 1), BuildingBlock: XUDNAN_clean_linker_2, # of connection points: 2
#     Edge 31, Type (0, 1), BuildingBlock: XUDNAN_clean_linker_2, # of connection points: 2
#     Edge 32, Type (0, 1), BuildingBlock: XUDNAN_clean_linker_2, # of connection points: 2
#     Edge 33, Type (0, 1), BuildingBlock: XUDNAN_clean_linker_2, # of connection points: 2
#     Edge 34, Type (0, 1), BuildingBlock: XUDNAN_clean_linker_2, # of connection points: 2
#     Edge 35, Type (0, 1), BuildingBlock: XUDNAN_clean_linker_2, # of connection points: 2
# Relax obj value: 0.088
# Max RMSD: 0.178
# Mean RMSD: 0.136
data_MOF--net-pry--node1-MIDCAF_clean_sbu_0--node2-BETDIP_clean_linker_0--edge1-XUDNAN_clean_linker_2
_symmetry_space_group_name_H-M    P1
_symmetry_Int_Tables_number       1
_symmetry_cell_setting            triclinic
loop_
_symmetry_equiv_pos_as_xyz
'x, y, z'
_cell_length_a     35.033403
_cell_length_b     34.62188
_cell_length_c     36.517355
_cell_angle_alpha  93.215589
_cell_angle_beta   85.789559
_cell_angle_gamma 97.218105
loop_
_atom_site_label
_atom_site_type_symbol
_atom_site_fract_x
_atom_site_fract_y
_atom_site_fract_z
_atom_type_partial_charge
H0 H 0.20254 0.25529 0.26848 0.0
H1 H 0.29643 0.25288 0.18694 0.0
H2 H 0.27945 0.16798 0.27035 0.0
H3 H 0.25874 0.28872 0.15514 0.0
C4 C 0.24316 0.305 0.17629 0.0
C5 C 0.2277 0.24213 0.25757 0.0
C6 C 0.23874 0.20997 0.27416 0.0
C7 C 0.24791 0.25741 0.22616 0.0
C8 C 0.28005 0.2403 0.21056 0.0
C9 C 0.29172 0.20765 0.22627 0.0
C10 C 0.27081 0.19296 0.25811 0.0
N11 N 0.23523 0.29078 0.21219 0.0
H12 H 0.31779 0.85475 0.77861 0.0
H13 H 0.29673 0.76938 0.69119 0.0
H14 H 0.39133 0.76403 0.7589 0.0
H15 H 0.28813 0.83101 0.66472 0.0
C16 C 0.26707 0.83904 0.68627 0.0
C17 C 0.32542 0.82855 0.76381 0.0
C18 C 0.35696 0.81056 0.77348 0.0
C19 C 0.30454 0.81436 0.73362 0.0
C20 C 0.3144 0.78098 0.71326 0.0
C21 C 0.34622 0.76256 0.72151 0.0
C22 C 0.36694 0.77764 0.75199 0.0
N23 N 0.27416 0.83459 0.72359 0.0
H24 H 0.79213 0.35095 0.77443 0.0
H25 H 0.70367 0.25477 0.78967 0.0
H26 H 0.78314 0.28665 0.87303 0.0
H27 H 0.69005 0.26385 0.73342 0.0
C28 C 0.69879 0.29435 0.7283 0.0
C29 C 0.77843 0.3277 0.79126 0.0
C30 C 0.79297 0.32126 0.82509 0.0
C31 C 0.74579 0.30464 0.77865 0.0
C32 C 0.72835 0.27328 0.79936 0.0
C33 C 0.74249 0.26582 0.83303 0.0
C34 C 0.7741 0.2906 0.84594 0.0
N35 N 0.7301 0.31558 0.74635 0.0
H36 H 0.77672 0.68313 0.28424 0.0
H37 H 0.85247 0.79021 0.28264 0.0
H38 H 0.76659 0.77144 0.37161 0.0
H39 H 0.85481 0.77372 0.21799 0.0
C40 C 0.85664 0.74277 0.21951 0.0
C41 C 0.78458 0.71205 0.29633 0.0
C42 C 0.76632 0.72423 0.32988 0.0
C43 C 0.81445 0.73609 0.27845 0.0
C44 C 0.82756 0.77254 0.29482 0.0
C45 C 0.81062 0.78466 0.32881 0.0
C46 C 0.7795 0.76112 0.34563 0.0
N47 N 0.83324 0.72068 0.24617 0.0
H48 H 0.87156 0.90723 0.95407 0.0
H49 H 0.97144 0.89866 0.88003 0.0
H50 H 0.88971 0.97516 0.85735 0.0
H51 H 0.94986 0.83279 0.89528 0.0
C52 C 0.94992 0.83799 0.92493 0.0
C53 C 0.88891 0.91689 0.92975 0.0
C54 C 0.87612 0.94372 0.90712 0.0
C55 C 0.92285 0.90017 0.9199 0.0
C56 C 0.94514 0.91141 0.88779 0.0
C57 C 0.93297 0.93795 0.86491 0.0
C58 C 0.89869 0.95421 0.87488 0.0
N59 N 0.93322 0.87061 0.94146 0.0
H60 H 0.66176 0.09771 0.34506 0.0
H61 H 0.67237 0.16012 0.44934 0.0
H62 H 0.59409 0.1919 0.3737 0.0
H63 H 0.67045 0.08434 0.45972 0.0
C64 C 0.69608 0.08418 0.44105 0.0
C65 C 0.65306 0.12045 0.36433 0.0
C66 C 0.62513 0.14362 0.35544 0.0
C67 C 0.66952 0.1258 0.39827 0.0
C68 C 0.65918 0.15565 0.42327 0.0
C69 C 0.63226 0.17998 0.41445 0.0
C70 C 0.61515 0.17354 0.38057 0.0
N71 N 0.69701 0.1013 0.40652 0.0
H72 H 0.39122 0.55779 0.16384 0.0
H73 H 0.45839 0.67038 0.15559 0.0
H74 H 0.37532 0.63126 0.07656 0.0
H75 H 0.46619 0.6654 0.21424 0.0
C76 C 0.46512 0.63467 0.21919 0.0
C77 C 0.39877 0.58486 0.15 0.0
C78 C 0.3808 0.59105 0.11816 0.0
C79 C 0.4264 0.61355 0.1642 0.0
C80 C 0.43608 0.64858 0.14593 0.0
C81 C 0.41759 0.65545 0.11439 0.0
C82 C 0.39022 0.62627 0.10054 0.0
N83 N 0.44401 0.60602 0.19655 0.0
H84 H 0.06783 0.37905 0.6111 0.0
H85 H 0.13088 0.49094 0.6354 0.0
H86 H 0.18193 0.40838 0.56076 0.0
H87 H 0.0464 0.38932 0.67161 0.0
C88 C 0.04289 0.42011 0.67428 0.0
C89 C 0.09337 0.39974 0.60666 0.0
C90 C 0.12442 0.38932 0.58308 0.0
C91 C 0.09563 0.43642 0.62537 0.0
C92 C 0.12889 0.46299 0.62026 0.0
C93 C 0.16024 0.45293 0.59725 0.0
C94 C 0.15755 0.41634 0.57831 0.0
N95 N 0.06588 0.44676 0.65108 0.0
Zn96 Zn 0.98429 0.06667 0.57164 0.0
Zn97 Zn 0.0637 0.97743 0.48622 0.0
Zn98 Zn 0.02733 0.02377 0.53033 0.0
C99 C 0.08905 0.05392 0.46531 0.0
C100 C 0.98814 0.95832 0.47254 0.0
O101 O 0.03098 0.00642 0.58776 0.0
O102 O 0.98895 0.04168 0.61761 0.0
C103 C 0.04424 0.11714 0.54089 0.0
O104 O 0.0691 0.06211 0.49527 0.0
O105 O 0.09005 0.01877 0.45436 0.0
O106 O 0.01905 0.94308 0.46709 0.0
O107 O 0.9868 0.98933 0.49363 0.0
O108 O 0.0149 0.11697 0.56306 0.0
O109 O 0.05341 0.08514 0.52481 0.0
O110 O 0.96564 0.01486 0.51479 0.0
O111 O 0.93434 0.05633 0.55006 0.0
C112 C 0.93451 0.03022 0.52466 0.0
O113 O 0.05718 0.98627 0.56496 0.0
O114 O 0.09398 0.95749 0.52277 0.0
C115 C 0.0121 0.01661 0.6177 0.0
C116 C 0.08392 0.9642 0.55618 0.0
Zn117 Zn 0.49292 0.04582 0.99392 0.0
Zn118 Zn 0.57334 0.97517 0.07256 0.0
Zn119 Zn 0.53544 0.01025 0.03316 0.0
C120 C 0.62474 0.99801 0.01543 0.0
C121 C 0.51397 0.92064 0.05302 0.0
O122 O 0.5017 0.04902 0.07131 0.0
O123 O 0.46218 0.06978 0.03438 0.0
C124 C 0.57096 0.07189 0.97378 0.0
O125 O 0.59642 0.01681 0.00935 0.0
O126 O 0.62129 0.97483 0.04122 0.0
O127 O 0.53827 0.9267 0.0771 0.0
O128 O 0.51078 0.94737 0.03058 0.0
O129 O 0.53708 0.079 0.96957 0.0
O130 O 0.57643 0.04483 0.99502 0.0
O131 O 0.498 0.96546 1.00107 0.0
O132 O 0.46796 1.00017 0.96575 0.0
C133 C 0.47528 0.9675 0.97509 0.0
O134 O 0.53125 0.03726 0.09061 0.0
O135 O 0.57538 0.00956 0.11643 0.0
C136 C 0.47314 0.06806 0.06634 0.0
C137 C 0.55158 0.03409 0.1182 0.0
Zn138 Zn 0.56699 0.54947 0.57572 0.0
Zn139 Zn 0.47522 0.45709 0.4875 0.0
Zn140 Zn 0.51995 0.50318 0.52935 0.0
C141 C 0.52408 0.40987 0.51243 0.0
C142 C 0.51244 0.51507 0.44317 0.0
O143 O 0.48393 0.53782 0.56738 0.0
O144 O 0.52424 0.57681 0.60101 0.0
C145 C 0.57356 0.47031 0.58686 0.0
O146 O 0.53511 0.44231 0.53001 0.0
O147 O 0.49668 0.40791 0.49157 0.0
O148 O 0.48778 0.48524 0.44184 0.0
O149 O 0.52925 0.52517 0.47311 0.0
O150 O 0.58423 0.5045 0.59924 0.0
O151 O 0.55113 0.46472 0.56004 0.0
O152 O 0.56019 0.54113 0.49465 0.0
O153 O 0.59991 0.57354 0.53333 0.0
C154 C 0.59047 0.56517 0.50078 0.0
O155 O 0.45956 0.5101 0.54796 0.0
O156 O 0.42568 0.46579 0.51346 0.0
C157 C 0.49029 0.56554 0.5921 0.0
C158 C 0.42692 0.49251 0.53846 0.0
Zn159 Zn 0.11082 0.56546 0.96365 0.0
Zn160 Zn 0.00549 0.47903 0.04995 0.0
Zn161 Zn 0.05756 0.52554 0.00617 0.0
C162 C 0.07952 0.46903 0.06877 0.0
C163 C 0.99095 0.45865 0.97638 0.0
O164 O 0.04973 0.588 0.01395 0.0
O165 O 0.1007 0.61811 0.98337 0.0
C166 C 0.15053 0.52244 0.005 0.0
O167 O 0.08892 0.49317 0.04303 0.0
O168 O 0.04451 0.45805 0.07777 0.0
O169 O 0.98026 0.44753 0.00832 0.0
O170 O 0.01869 0.48647 0.97159 0.0
O171 O 0.1566 0.54277 0.97709 0.0
O172 O 0.11607 0.51481 0.01995 0.0
O173 O 0.04658 0.50799 0.94875 0.0
O174 O 0.08815 0.54853 0.91643 0.0
C175 C 0.06037 0.52158 0.91779 0.0
O176 O 0.02241 0.5654 0.03765 0.0
O177 O 0.98196 0.52569 0.07208 0.0
C178 C 0.06986 0.61963 0.00329 0.0
C179 C 0.99406 0.5597 0.06201 0.0
H180 H 0.22624 0.13344 0.29556 0.0
H181 H 0.20022 0.25015 0.32997 0.0
H182 H 0.15944 0.2234 0.38247 0.0
H183 H 0.1368 0.08139 0.32068 0.0
H184 H 0.15642 0.04091 0.33814 0.0
H185 H 0.18329 0.06905 0.30274 0.0
H186 H 0.24157 0.08286 0.34336 0.0
H187 H 0.21497 0.0545 0.37883 0.0
H188 H 0.23484 0.10416 0.38921 0.0
H189 H 0.11558 0.18243 0.42766 0.0
H190 H 0.07955 0.13172 0.46588 0.0
H191 H 0.14373 0.04478 0.40908 0.0
C192 C 0.21284 0.15379 0.31435 0.0
C193 C 0.21629 0.19406 0.30773 0.0
C194 C 0.1973 0.21904 0.33325 0.0
C195 C 0.17428 0.20419 0.36357 0.0
C196 C 0.17123 0.1644 0.36881 0.0
C197 C 0.19069 0.13971 0.34536 0.0
C198 C 0.18335 0.09821 0.35763 0.0
C199 C 0.1638 0.07079 0.32804 0.0
C200 C 0.22092 0.08411 0.36787 0.0
C201 C 0.15614 0.10334 0.39123 0.0
C202 C 0.14911 0.14163 0.39702 0.0
C203 C 0.12214 0.15266 0.42435 0.0
C204 C 0.1023 0.12382 0.44659 0.0
C205 C 0.11042 0.08477 0.4424 0.0
C206 C 0.1376 0.07459 0.414 0.0
H207 H 0.33303 0.85097 0.83738 0.0
H208 H 0.43497 0.80924 0.78122 0.0
H209 H 0.47296 0.83559 0.83262 0.0
H210 H 0.38256 0.94208 0.86458 0.0
H211 H 0.35444 0.94651 0.90764 0.0
H212 H 0.33362 0.91865 0.86939 0.0
H213 H 0.31772 0.85874 0.9098 0.0
H214 H 0.33904 0.88638 0.94806 0.0
H215 H 0.35583 0.84087 0.93208 0.0
H216 H 0.5016 0.86987 0.88836 0.0
H217 H 0.52003 0.91731 0.93917 0.0
H218 H 0.40203 0.94309 0.95559 0.0
C219 C 0.36329 0.84719 0.83557 0.0
C220 C 0.38028 0.82681 0.80505 0.0
C221 C 0.42027 0.82299 0.80455 0.0
C222 C 0.44243 0.83821 0.83368 0.0
C223 C 0.42467 0.85796 0.86311 0.0
C224 C 0.38617 0.86314 0.86395 0.0
C225 C 0.37516 0.88954 0.89657 0.0
C226 C 0.36061 0.92637 0.88377 0.0
C227 C 0.34516 0.86756 0.9232 0.0
C228 C 0.41371 0.89904 0.91345 0.0
C229 C 0.44165 0.87964 0.8943 0.0
C230 C 0.47987 0.88486 0.90382 0.0
C231 C 0.49004 0.91158 0.93286 0.0
C232 C 0.46222 0.93293 0.95178 0.0
C233 C 0.42354 0.92622 0.94219 0.0
H234 H 0.71223 0.36992 0.70571 0.0
H235 H 0.63482 0.26247 0.69472 0.0
H236 H 0.59493 0.29473 0.65536 0.0
H237 H 0.64079 0.43421 0.71198 0.0
H238 H 0.66941 0.47139 0.68581 0.0
H239 H 0.69268 0.43927 0.71152 0.0
H240 H 0.73224 0.41894 0.65234 0.0
H241 H 0.70917 0.45114 0.62646 0.0
H242 H 0.70742 0.40027 0.6123 0.0
H243 H 0.56127 0.34039 0.62031 0.0
H244 H 0.5381 0.395 0.59094 0.0
H245 H 0.63915 0.47135 0.62307 0.0
C246 C 0.68709 0.35304 0.69479 0.0
C247 C 0.67654 0.31364 0.70321 0.0
C248 C 0.64338 0.29267 0.68846 0.0
C249 C 0.62057 0.31074 0.66613 0.0
C250 C 0.63152 0.34976 0.65863 0.0
C251 C 0.66415 0.37057 0.67234 0.0
C252 C 0.66924 0.41233 0.66082 0.0
C253 C 0.66794 0.44098 0.69454 0.0
C254 C 0.70674 0.42117 0.63653 0.0
C255 C 0.63412 0.41196 0.63895 0.0
C256 C 0.6127 0.37564 0.6379 0.0
C257 C 0.57819 0.36878 0.62045 0.0
C258 C 0.56538 0.39988 0.60359 0.0
C259 C 0.58729 0.43714 0.60382 0.0
C260 C 0.62197 0.44308 0.62197 0.0
H261 H 0.88373 0.67277 0.22385 0.0
H262 H 0.88131 0.76682 0.15085 0.0
H263 H 0.91685 0.73049 0.10164 0.0
H264 H 0.9802 0.6521 0.19372 0.0
H265 H 0.96849 0.60039 0.1988 0.0
H266 H 0.94322 0.63412 0.22767 0.0
H267 H 0.87801 0.5994 0.20652 0.0
H268 H 0.90308 0.56569 0.17747 0.0
H269 H 0.87034 0.59394 0.15813 0.0
H270 H 0.94802 0.6805 0.05919 0.0
H271 H 0.97853 0.62481 0.02945 0.0
H272 H 0.96456 0.56712 0.13259 0.0
C273 C 0.89064 0.68575 0.19751 0.0
C274 C 0.87946 0.7223 0.19078 0.0
C275 C 0.88961 0.7387 0.15628 0.0
C276 C 0.90963 0.71826 0.12826 0.0
C277 C 0.91975 0.68189 0.13563 0.0
C278 C 0.91107 0.66614 0.16964 0.0
C279 C 0.92573 0.62704 0.17104 0.0
C280 C 0.95622 0.62852 0.19949 0.0
C281 C 0.89229 0.59462 0.17873 0.0
C282 C 0.94351 0.62283 0.1323 0.0
C283 C 0.93963 0.65457 0.11213 0.0
C284 C 0.95222 0.65608 0.07506 0.0
C285 C 0.96993 0.62466 0.0585 0.0
C286 C 0.97539 0.5927 0.07916 0.0
C287 C 0.96145 0.59163 0.11634 0.0
H288 H 0.31487 0.19877 0.1526 0.0
H289 H 0.34466 0.17206 0.26105 0.0
H290 H 0.39497 0.13425 0.23255 0.0
H291 H 0.32845 0.10967 0.10694 0.0
H292 H 0.35001 0.13038 0.06499 0.0
H293 H 0.31676 0.15605 0.09392 0.0
H294 H 0.36802 0.21675 0.09783 0.0
H295 H 0.40138 0.19137 0.06861 0.0
H296 H 0.41492 0.21178 0.11297 0.0
H297 H 0.43781 0.09314 0.1913 0.0
H298 H 0.47351 0.05895 0.14114 0.0
H299 H 0.42198 0.12046 0.06106 0.0
C300 C 0.33239 0.18583 0.17059 0.0
C301 C 0.32497 0.18812 0.20923 0.0
C302 C 0.34863 0.16997 0.23137 0.0
C303 C 0.37767 0.14864 0.21545 0.0
C304 C 0.38353 0.14635 0.17731 0.0
C305 C 0.36203 0.16514 0.15524 0.0
C306 C 0.37408 0.15832 0.11498 0.0
C307 C 0.34032 0.13736 0.09399 0.0
C308 C 0.39059 0.19685 0.09758 0.0
C309 C 0.40516 0.13215 0.11782 0.0
C310 C 0.41009 0.12526 0.15393 0.0
C311 C 0.4351 0.09941 0.16297 0.0
C312 C 0.4558 0.08048 0.13432 0.0
C313 C 0.45221 0.08826 0.09717 0.0
C314 C 0.4263 0.11441 0.08914 0.0
H315 H 0.26255 0.87273 0.6221 0.0
H316 H 0.19907 0.85051 0.72664 0.0
H317 H 0.14472 0.88176 0.70609 0.0
H318 H 0.23204 0.96799 0.61233 0.0
H319 H 0.23033 0.96096 0.56317 0.0
H320 H 0.26365 0.93737 0.58683 0.0
H321 H 0.23517 0.87032 0.55891 0.0
H322 H 0.20173 0.89369 0.53526 0.0
H323 H 0.18411 0.85506 0.56552 0.0
H324 H 0.09477 0.91135 0.67039 0.0
H325 H 0.05763 0.93989 0.62547 0.0
H326 H 0.15766 0.94765 0.54813 0.0
C327 C 0.23727 0.87466 0.64075 0.0
C328 C 0.23486 0.85921 0.67584 0.0
C329 C 0.20147 0.86235 0.69963 0.0
C330 C 0.17048 0.87996 0.68813 0.0
C331 C 0.17371 0.89477 0.65307 0.0
C332 C 0.20662 0.89269 0.63002 0.0
C333 C 0.20354 0.91088 0.59386 0.0
C334 C 0.23421 0.94641 0.58877 0.0
C335 C 0.20629 0.88068 0.56149 0.0
C336 C 0.16349 0.92297 0.59969 0.0
C337 C 0.14643 0.91341 0.63384 0.0
C338 C 0.1084 0.91992 0.64403 0.0
C339 C 0.08764 0.93677 0.6187 0.0
C340 C 0.10515 0.94762 0.58406 0.0
C341 C 0.14354 0.94035 0.57467 0.0
H342 H 0.84702 0.30269 0.87099 0.0
H343 H 0.8157 0.39943 0.81315 0.0
H344 H 0.86927 0.44222 0.83914 0.0
H345 H 0.8617 0.35887 0.95354 0.0
H346 H 0.90018 0.33334 0.96622 0.0
H347 H 0.86363 0.30871 0.93817 0.0
H348 H 0.91656 0.29147 0.88965 0.0
H349 H 0.95394 0.31743 0.91612 0.0
H350 H 0.9497 0.32955 0.86934 0.0
H351 H 0.92265 0.47631 0.87536 0.0
H352 H 0.96754 0.49995 0.92305 0.0
H353 H 0.96034 0.383 0.96162 0.0
C354 C 0.85103 0.33282 0.86363 0.0
C355 C 0.82677 0.34712 0.83945 0.0
C356 C 0.83412 0.38692 0.83056 0.0
C357 C 0.86449 0.41175 0.84545 0.0
C358 C 0.88708 0.39673 0.8697 0.0
C359 C 0.88041 0.35829 0.87908 0.0
C360 C 0.90585 0.35041 0.90897 0.0
C361 C 0.88138 0.33706 0.94377 0.0
C362 C 0.93316 0.32047 0.89519 0.0
C363 C 0.92764 0.39061 0.91523 0.0
C364 C 0.91684 0.41674 0.89182 0.0
C365 C 0.93161 0.45603 0.89355 0.0
C366 C 0.95737 0.46913 0.92047 0.0
C367 C 0.9681 0.44309 0.94528 0.0
C368 C 0.95315 0.40331 0.94247 0.0
H369 H 0.74841 0.71982 0.40498 0.0
H370 H 0.71358 0.66733 0.29957 0.0
H371 H 0.66735 0.61939 0.3319 0.0
H372 H 0.7392 0.63566 0.45553 0.0
H373 H 0.71823 0.65771 0.49685 0.0
H374 H 0.75005 0.68727 0.4657 0.0
H375 H 0.69735 0.73253 0.46025 0.0
H376 H 0.66554 0.70346 0.49183 0.0
H377 H 0.65022 0.71175 0.44717 0.0
H378 H 0.62957 0.5731 0.37603 0.0
H379 H 0.59409 0.53955 0.4283 0.0
H380 H 0.64419 0.62996 0.50361 0.0
C381 C 0.73069 0.69904 0.38829 0.0
C382 C 0.73564 0.69736 0.34938 0.0
C383 C 0.71175 0.66875 0.3293 0.0
C384 C 0.68501 0.64145 0.34741 0.0
C385 C 0.68155 0.64373 0.38564 0.0
C386 C 0.70294 0.67244 0.4058 0.0
C387 C 0.69225 0.66974 0.44659 0.0
C388 C 0.727 0.66214 0.46737 0.0
C389 C 0.67532 0.70655 0.46238 0.0
C390 C 0.66183 0.63463 0.4462 0.0
C391 C 0.65663 0.61961 0.41082 0.0
C392 C 0.6323 0.58545 0.40373 0.0
C393 C 0.61185 0.56687 0.43358 0.0
C394 C 0.61442 0.58339 0.46979 0.0
C395 C 0.64056 0.61724 0.47614 0.0
H396 H 0.23365 0.3283 0.10714 0.0
H397 H 0.20874 0.35686 0.22298 0.0
H398 H 0.17089 0.4079 0.20691 0.0
H399 H 0.23868 0.43032 0.07649 0.0
H400 H 0.21548 0.41534 0.03463 0.0
H401 H 0.24502 0.3837 0.05402 0.0
H402 H 0.18858 0.32807 0.05596 0.0
H403 H 0.15883 0.35878 0.03585 0.0
H404 H 0.14286 0.33685 0.07882 0.0
H405 H 0.12837 0.4484 0.1796 0.0
H406 H 0.0853 0.47827 0.14191 0.0
H407 H 0.13828 0.4269 0.04306 0.0
C408 C 0.22093 0.346 0.12901 0.0
C409 C 0.22407 0.3385 0.16629 0.0
C410 C 0.20662 0.36183 0.19423 0.0
C411 C 0.18519 0.39112 0.18539 0.0
C412 C 0.18168 0.39707 0.14846 0.0
C413 C 0.19932 0.37553 0.12062 0.0
C414 C 0.18847 0.38614 0.08325 0.0
C415 C 0.22403 0.40502 0.06075 0.0
C416 C 0.16849 0.35033 0.06225 0.0
C417 C 0.16062 0.41559 0.09461 0.0
C418 C 0.15756 0.42167 0.13241 0.0
C419 C 0.1311 0.4446 0.14995 0.0
C420 C 0.10675 0.46137 0.1284 0.0
C421 C 0.10911 0.45534 0.08977 0.0
C422 C 0.13679 0.43272 0.07255 0.0
H423 H 0.66516 0.23743 0.84121 0.0
H424 H 0.77738 0.21903 0.87564 0.0
H425 H 0.7463 0.16678 0.91486 0.0
H426 H 0.61159 0.22065 0.92527 0.0
H427 H 0.56983 0.1949 0.90485 0.0
H428 H 0.60096 0.23087 0.87948 0.0
H429 H 0.61056 0.17966 0.8261 0.0
H430 H 0.57928 0.14354 0.85125 0.0
H431 H 0.6274 0.13433 0.83545 0.0
H432 H 0.70187 0.11949 0.95409 0.0
H433 H 0.64837 0.07837 0.98611 0.0
H434 H 0.56711 0.12245 0.91981 0.0
C435 C 0.68349 0.22207 0.85633 0.0
C436 C 0.72385 0.23286 0.85536 0.0
C437 C 0.74633 0.21214 0.87641 0.0
C438 C 0.72899 0.1821 0.89858 0.0
C439 C 0.68917 0.17253 0.89901 0.0
C440 C 0.6668 0.19156 0.87803 0.0
C441 C 0.62464 0.17561 0.88312 0.0
C442 C 0.60034 0.2074 0.89914 0.0
C443 C 0.6096 0.15719 0.84682 0.0
C444 C 0.6267 0.145 0.91066 0.0
C445 C 0.66409 0.14375 0.91971 0.0
C446 C 0.6726 0.11947 0.94645 0.0
C447 C 0.64206 0.09578 0.9642 0.0
C448 C 0.60366 0.09582 0.95454 0.0
C449 C 0.59617 0.12096 0.9274 0.0
H450 H 0.85428 0.78104 0.38567 0.0
H451 H 0.81103 0.86265 0.31833 0.0
H452 H 0.84652 0.91787 0.35333 0.0
H453 H 0.85559 0.84054 0.47242 0.0
H454 H 0.90004 0.82472 0.48418 0.0
H455 H 0.86722 0.79273 0.45713 0.0
H456 H 0.92199 0.78597 0.40627 0.0
H457 H 0.95491 0.81779 0.43314 0.0
H458 H 0.94774 0.82925 0.38678 0.0
H459 H 0.8901 0.9635 0.39405 0.0
H460 H 0.94251 0.99477 0.43187 0.0
H461 H 0.95898 0.88206 0.46951 0.0
C462 C 0.8518 0.81066 0.37888 0.0
C463 C 0.82973 0.81808 0.34996 0.0
C464 C 0.82765 0.85683 0.34082 0.0
C465 C 0.84752 0.88816 0.36061 0.0
C466 C 0.86938 0.87987 0.38904 0.0
C467 C 0.87181 0.84196 0.39788 0.0
C468 C 0.90008 0.8403 0.4269 0.0
C469 C 0.87949 0.82359 0.46225 0.0
C470 C 0.93313 0.81697 0.41238 0.0
C471 C 0.91403 0.88314 0.43252 0.0
C472 C 0.89539 0.9057 0.41116 0.0
C473 C 0.90452 0.94611 0.41111 0.0
C474 C 0.93401 0.96367 0.43282 0.0
C475 C 0.95405 0.94072 0.45381 0.0
C476 C 0.94368 0.90013 0.45387 0.0
H477 H 0.38807 0.70323 0.73941 0.0
H478 H 0.33504 0.74532 0.64753 0.0
H479 H 0.3577 0.69253 0.60776 0.0
H480 H 0.47396 0.68982 0.68715 0.0
H481 H 0.48297 0.64794 0.71088 0.0
H482 H 0.45601 0.68394 0.7343 0.0
H483 H 0.39949 0.63014 0.74943 0.0
H484 H 0.42628 0.59397 0.72577 0.0
H485 H 0.37872 0.59945 0.71265 0.0
H486 H 0.38931 0.63706 0.57621 0.0
H487 H 0.43518 0.59076 0.55395 0.0
H488 H 0.47588 0.59194 0.66329 0.0
C489 C 0.38104 0.70194 0.71103 0.0
C490 C 0.35878 0.72894 0.69746 0.0
C491 C 0.35047 0.72473 0.65977 0.0
C492 C 0.36357 0.69476 0.63654 0.0
C493 C 0.38583 0.66939 0.65084 0.0
C494 C 0.39511 0.67314 0.68706 0.0
C495 C 0.42375 0.64554 0.69443 0.0
C496 C 0.4614 0.66817 0.70744 0.0
C497 C 0.40599 0.61549 0.72222 0.0
C498 C 0.42984 0.6264 0.65645 0.0
C499 C 0.40669 0.63961 0.63198 0.0
C500 C 0.40751 0.62648 0.59515 0.0
C501 C 0.4335 0.60008 0.58278 0.0
C502 C 0.45882 0.58777 0.60698 0.0
C503 C 0.4566 0.60077 0.64434 0.0
H504 H 0.90362 0.93536 0.79784 0.0
H505 H 0.0108 0.95966 0.85168 0.0
H506 H 0.04582 0.97529 0.79173 0.0
H507 H 0.94436 0.89146 0.71235 0.0
H508 H 0.91256 0.91241 0.68456 0.0
H509 H 0.89708 0.90044 0.73116 0.0
H510 H 0.88288 0.97158 0.74629 0.0
H511 H 0.89786 0.98356 0.69974 0.0
H512 H 0.92042 0.01119 0.73736 0.0
H513 H 0.06737 0.99499 0.726 0.0
H514 H 0.07255 0.01675 0.66181 0.0
H515 H 0.95164 0.97594 0.65223 0.0
C516 C 0.9345 0.94386 0.79698 0.0
C517 C 0.95454 0.94664 0.82928 0.0
C518 C 0.995 0.95734 0.82709 0.0
C519 C 0.01507 0.96616 0.79321 0.0
C520 C 0.99429 0.9634 0.76179 0.0
C521 C 0.95489 0.95221 0.7635 0.0
C522 C 0.93869 0.95301 0.72643 0.0
C523 C 0.9222 0.91188 0.71283 0.0
C524 C 0.90819 0.98154 0.72754 0.0
C525 C 0.9748 0.96767 0.70368 0.0
C526 C 0.00681 0.97325 0.72426 0.0
C527 C 0.04268 0.98988 0.70945 0.0
C528 C 0.04551 0.00195 0.67304 0.0
C529 C 0.01274 0.9968 0.65209 0.0
C530 C 0.97734 0.97891 0.66747 0.0
H531 H 0.5982 0.07293 0.32423 0.0
H532 H 0.60944 0.1968 0.30685 0.0
H533 H 0.58133 0.1828 0.24651 0.0
H534 H 0.62817 0.04424 0.23583 0.0
H535 H 0.59568 0.99956 0.23412 0.0
H536 H 0.61124 0.0202 0.27755 0.0
H537 H 0.53983 0.02074 0.30195 0.0
H538 H 0.52409 1.00037 0.25829 0.0
H539 H 0.50814 0.04532 0.27712 0.0
H540 H 0.55888 0.15393 0.18432 0.0
H541 H 0.54793 0.11323 0.12685 0.0
H542 H 0.55174 0.00938 0.18657 0.0
C543 C 0.59445 0.09718 0.30792 0.0
C544 C 0.60608 0.13593 0.32022 0.0
C545 C 0.60037 0.16685 0.29813 0.0
C546 C 0.58439 0.15917 0.26384 0.0
C547 C 0.57383 0.12045 0.25225 0.0
C548 C 0.57856 0.09004 0.27386 0.0
C549 C 0.56818 0.05096 0.25431 0.0
C550 C 0.60288 0.02739 0.2502 0.0
C551 C 0.53296 0.02801 0.2741 0.0
C552 C 0.55838 0.06395 0.2177 0.0
C553 C 0.561 0.10408 0.217 0.0
C554 C 0.55609 0.12248 0.18482 0.0
C555 C 0.5497 0.09926 0.15237 0.0
C556 C 0.54866 0.05831 0.15258 0.0
C557 C 0.55188 0.04065 0.18588 0.0
H558 H 0.46957 0.56105 0.24207 0.0
H559 H 0.4973 0.68378 0.27219 0.0
H560 H 0.52074 0.66653 0.33077 0.0
H561 H 0.43269 0.53195 0.32801 0.0
H562 H 0.45181 0.48583 0.32481 0.0
H563 H 0.44187 0.50792 0.28372 0.0
H564 H 0.51254 0.50505 0.25806 0.0
H565 H 0.5227 0.48296 0.29924 0.0
H566 H 0.55157 0.52698 0.28479 0.0
H567 H 0.5333 0.63578 0.3892 0.0
H568 H 0.53389 0.59411 0.442 0.0
H569 H 0.50076 0.49176 0.37213 0.0
C570 C 0.48114 0.5843 0.26069 0.0
C571 C 0.48162 0.62378 0.25275 0.0
C572 C 0.4968 0.65334 0.27788 0.0
C573 C 0.51028 0.64382 0.3111 0.0
C574 C 0.50882 0.60457 0.31846 0.0
C575 C 0.49492 0.5753 0.29379 0.0
C576 C 0.49395 0.53552 0.30919 0.0
C577 C 0.45263 0.51407 0.31158 0.0
C578 C 0.52186 0.5112 0.28646 0.0
C579 C 0.50801 0.54701 0.34692 0.0
C580 C 0.51693 0.58692 0.35169 0.0
C581 C 0.5273 0.60443 0.38548 0.0
C582 C 0.52777 0.58056 0.41529 0.0
C583 C 0.51828 0.53967 0.41093 0.0
C584 C 0.50895 0.52287 0.3761 0.0
H585 H 0.03707 0.38648 0.74008 0.0
H586 H 0.01403 0.48938 0.68748 0.0
H587 H 1.00124 0.52176 0.74818 0.0
H588 H 0.9687 0.39912 0.82704 0.0
H589 H 0.0027 0.38342 0.85606 0.0
H590 H 0.99867 0.36259 0.80987 0.0
H591 H 0.07131 0.38192 0.79452 0.0
H592 H 0.07643 0.40207 0.84048 0.0
H593 H 0.0918 0.43196 0.80196 0.0
H594 H 0.00807 0.54851 0.81084 0.0
H595 H 0.03141 0.56714 0.87223 0.0
H596 H 0.05003 0.44778 0.88653 0.0
C597 C 0.02735 0.41505 0.74158 0.0
C598 C 0.02615 0.43547 0.70943 0.0
C599 C 0.01484 0.47332 0.71197 0.0
C600 C 0.00731 0.4918 0.74632 0.0
C601 C 0.01106 0.4719 0.77776 0.0
C602 C 0.02025 0.43407 0.77581 0.0
C603 C 0.02901 0.42179 0.81324 0.0
C604 C 0.99791 0.38982 0.82738 0.0
C605 C 0.06954 0.40871 0.81246 0.0
C606 C 0.02672 0.45963 0.83567 0.0
C607 C 0.01512 0.48776 0.8149 0.0
C608 C 0.01588 0.52647 0.82779 0.0
C609 C 0.02949 0.53687 0.86244 0.0
C610 C 0.04195 0.50867 0.88379 0.0
C611 C 0.03968 0.46945 0.87077 0.0
H612 H 0.84253 0.96259 0.97541 0.0
H613 H 0.8232 0.95864 0.85905 0.0
H614 H 0.75976 0.98136 0.87385 0.0
H615 H 0.74904 0.92234 0.0032 0.0
H616 H 0.74642 0.95117 0.04577 0.0
H617 H 0.79241 0.94016 0.02562 0.0
H618 H 0.81719 0.01399 0.02606 0.0
H619 H 0.77103 0.02521 0.046 0.0
H620 H 0.79093 0.04653 0.00378 0.0
H621 H 0.69541 0.99937 0.90179 0.0
H622 H 0.63521 0.00595 0.94072 0.0
H623 H 0.69613 0.99511 0.038 0.0
C624 C 0.82517 0.96666 0.95292 0.0
C625 C 0.83839 0.95916 0.91601 0.0
C626 C 0.81446 0.96508 0.88756 0.0
C627 C 0.77816 0.97787 0.89567 0.0
C628 C 0.76596 0.98461 0.93238 0.0
C629 C 0.78875 0.97901 0.96052 0.0
C630 C 0.76775 0.9848 0.99772 0.0
C631 C 0.76366 0.94739 0.01933 0.0
C632 C 0.78793 0.01972 0.01968 0.0
C633 C 0.72921 0.9934 0.98614 0.0
C634 C 0.72883 0.99396 0.94837 0.0
C635 C 0.69555 0.99944 0.93142 0.0
C636 C 0.66156 0.00333 0.95365 0.0
C637 C 0.66125 0.00137 0.99226 0.0
C638 C 0.69572 0.99711 0.00853 0.0
H639 H 0.77191 0.09331 0.41419 0.0
H640 H 0.69157 0.0285 0.49093 0.0
H641 H 0.7447 0.99606 0.51146 0.0
H642 H 0.83954 0.01672 0.39372 0.0
H643 H 0.88138 0.05279 0.39306 0.0
H644 H 0.83639 0.06475 0.37841 0.0
H645 H 0.83811 0.12349 0.42577 0.0
H646 H 0.88325 0.11219 0.44004 0.0
H647 H 0.84317 0.1156 0.47348 0.0
H648 H 0.80675 0.97762 0.52961 0.0
H649 H 0.87335 0.98047 0.54883 0.0
H650 H 0.91413 0.05915 0.4626 0.0
C651 C 0.76541 0.07135 0.43445 0.0
C652 C 0.72764 0.06277 0.45061 0.0
C653 C 0.72033 0.03505 0.47802 0.0
C654 C 0.75025 0.01628 0.4896 0.0
C655 C 0.78739 0.02574 0.4736 0.0
C656 C 0.79514 0.05283 0.44675 0.0
C657 C 0.83819 0.06213 0.43801 0.0
C658 C 0.84953 0.04827 0.39844 0.0
C659 C 0.85144 0.10593 0.44476 0.0
C660 C 0.85345 0.03777 0.46556 0.0
C661 C 0.82366 0.01589 0.48489 0.0
C662 C 0.83035 0.99383 0.51407 0.0
C663 C 0.8682 0.99541 0.52471 0.0
C664 C 0.89865 0.01901 0.50634 0.0
C665 C 0.89136 0.03967 0.47595 0.0
H666 H 0.30652 0.57477 0.14495 0.0
H667 H 0.38797 0.54491 0.05632 0.0
H668 H 0.33502 0.50746 0.02354 0.0
H669 H 0.23271 0.48089 0.13424 0.0
H670 H 0.19355 0.50976 0.14466 0.0
H671 H 0.23845 0.5226 0.16607 0.0
H672 H 0.2423 0.5922 0.14188 0.0
H673 H 0.19805 0.57893 0.12003 0.0
H674 H 0.2409 0.59787 0.09321 0.0
H675 H 0.27454 0.48901 0.99407 0.0
H676 H 0.21103 0.49128 0.96982 0.0
H677 H 0.16662 0.53188 0.0769 0.0
C678 C 0.31312 0.55849 0.11957 0.0
C679 C 0.35107 0.56167 0.10333 0.0
C680 C 0.35901 0.54188 0.06932 0.0
C681 C 0.32914 0.52049 0.05068 0.0
C682 C 0.29155 0.51918 0.06652 0.0
C683 C 0.28342 0.53724 0.1005 0.0
C684 C 0.2403 0.5373 0.10841 0.0
C685 C 0.22538 0.51104 0.14023 0.0
C686 C 0.22981 0.57904 0.1163 0.0
C687 C 0.22577 0.51973 0.07233 0.0
C688 C 0.25574 0.50835 0.04902 0.0
C689 C 0.25065 0.49662 0.01238 0.0
C690 C 0.21455 0.49803 0.9988 0.0
C691 C 0.18404 0.511 0.02179 0.0
C692 C 0.18925 0.52049 0.05929 0.0
H693 H 0.20467 0.47505 0.53622 0.0
H694 H 0.2005 0.48494 0.65506 0.0
H695 H 0.2694 0.51169 0.65248 0.0
H696 H 0.28505 0.43627 0.52427 0.0
H697 H 0.30495 0.46006 0.48323 0.0
H698 H 0.25386 0.45414 0.49367 0.0
H699 H 0.25253 0.52862 0.4911 0.0
H700 H 0.30389 0.53484 0.48005 0.0
H701 H 0.28366 0.56177 0.51884 0.0
H702 H 0.34105 0.52083 0.63734 0.0
H703 H 0.40694 0.51256 0.61079 0.0
H704 H 0.36389 0.49672 0.50215 0.0
C705 C 0.21798 0.48455 0.56156 0.0
C706 C 0.19751 0.47826 0.59574 0.0
C707 C 0.21568 0.49023 0.62856 0.0
C708 C 0.25482 0.50541 0.62732 0.0
C709 C 0.27501 0.50901 0.59307 0.0
C710 C 0.25688 0.49962 0.5607 0.0
C711 C 0.2856 0.49992 0.52777 0.0
C712 C 0.28216 0.46025 0.50603 0.0
C713 C 0.28115 0.53329 0.50298 0.0
C714 C 0.3228 0.50763 0.54682 0.0
C715 C 0.31638 0.51406 0.58436 0.0
C716 C 0.34648 0.51703 0.60789 0.0
C717 C 0.38377 0.51228 0.59269 0.0
C718 C 0.39019 0.50425 0.55453 0.0
C719 C 0.35959 0.50317 0.53143 0.0
H720 H 0.9727 0.77014 0.89844 0.0
H721 H 0.96227 0.84108 0.99941 0.0
H722 H 0.9912 0.79227 0.03253 0.0
H723 H 0.9495 0.67659 0.93929 0.0
H724 H 0.98312 0.65384 0.908 0.0
H725 H 0.96064 0.69395 0.89363 0.0
H726 H 0.02814 0.73132 0.87711 0.0
H727 H 0.05074 0.69141 0.89164 0.0
H728 H 0.06289 0.73979 0.91163 0.0
H729 H 0.02481 0.73491 0.05339 0.0
H730 H 0.05639 0.67498 0.05935 0.0
H731 H 0.04222 0.644 0.94424 0.0
C732 C 0.97627 0.77532 0.9276 0.0
C733 C 0.96534 0.8092 0.94641 0.0
C734 C 0.97042 0.81511 0.98454 0.0
C735 C 0.98686 0.78759 0.0035 0.0
C736 C 0.99771 0.75444 0.98388 0.0
C737 C 0.99225 0.74828 0.94675 0.0
C738 C 0.00634 0.71089 0.93139 0.0
C739 C 0.9729 0.68213 0.91726 0.0
C740 C 0.03896 0.71885 0.90117 0.0
C741 C 0.02112 0.69695 0.96543 0.0
C742 C 0.01608 0.72216 0.99564 0.0
C743 C 0.02867 0.71499 0.02987 0.0
C744 C 0.04654 0.68109 0.0331 0.0
C745 C 0.05134 0.65523 0.00223 0.0
C746 C 0.03859 0.66344 0.96823 0.0
H747 H 0.42821 0.728 0.1484 0.0
H748 H 0.42645 0.66905 0.04041 0.0
H749 H 0.44234 0.73266 0.01168 0.0
H750 H 0.38958 0.8162 0.12459 0.0
H751 H 0.42089 0.84723 0.15389 0.0
H752 H 0.40501 0.7976 0.16549 0.0
H753 H 0.4761 0.78452 0.16767 0.0
H754 H 0.49209 0.8341 0.15652 0.0
H755 H 0.50933 0.79464 0.12833 0.0
H756 H 0.46491 0.80298 0.99517 0.0
H757 H 0.49503 0.87168 0.99337 0.0
H758 H 0.48131 0.88306 0.112 0.0
C759 C 0.43104 0.72837 0.11869 0.0
C760 C 0.42611 0.69352 0.09668 0.0
C761 C 0.42967 0.69543 0.05786 0.0
C762 C 0.43869 0.73142 0.0413 0.0
C763 C 0.44375 0.76523 0.06392 0.0
C764 C 0.44003 0.76386 0.10181 0.0
C765 C 0.44965 0.80368 0.12024 0.0
C766 C 0.41416 0.81695 0.14235 0.0
C767 C 0.48382 0.80425 0.1446 0.0
C768 C 0.46053 0.82761 0.08687 0.0
C769 C 0.45642 0.80525 0.05452 0.0
C770 C 0.46745 0.8209 0.02033 0.0
C771 C 0.48408 0.86006 0.0194 0.0
C772 C 0.48959 0.88274 0.05239 0.0
C773 C 0.47682 0.86643 0.08632 0.0
H774 H 0.06292 0.34449 0.55377 0.0
H775 H 0.18295 0.34287 0.57502 0.0
H776 H 0.17854 0.27378 0.55371 0.0
H777 H 0.03083 0.25877 0.59207 0.0
H778 H 0.99422 0.24288 0.56045 0.0
H779 H 0.00932 0.29396 0.5683 0.0
H780 H 0.02607 0.30079 0.49838 0.0
H781 H 0.01097 0.24947 0.49033 0.0
H782 H 0.05866 0.27016 0.47436 0.0
H783 H 0.15834 0.20232 0.53985 0.0
H784 H 0.12287 0.13551 0.53863 0.0
H785 H 0.01594 0.18392 0.53007 0.0
C786 C 0.08852 0.32986 0.55327 0.0
C787 C 0.1233 0.34929 0.56585 0.0
C788 C 0.15614 0.32898 0.56476 0.0
C789 C 0.15393 0.28961 0.55272 0.0
C790 C 0.11876 0.27096 0.5417 0.0
C791 C 0.08666 0.29056 0.54179 0.0
C792 C 0.05095 0.26302 0.53387 0.0
C793 C 0.01952 0.26476 0.56556 0.0
C794 C 0.03578 0.27136 0.49704 0.0
C795 C 0.06746 0.22462 0.53149 0.0
C796 C 0.10683 0.22971 0.53486 0.0
C797 C 0.12764 0.19801 0.53649 0.0
C798 C 0.10741 0.16026 0.5358 0.0
C799 C 0.06692 0.155 0.5342 0.0
C800 C 0.04704 0.18743 0.53098 0.0
H801 H 0.56065 0.2007 0.43502 0.0
H802 H 0.68207 0.23393 0.45053 0.0
H803 H 0.66634 0.29284 0.48718 0.0
H804 H 0.53893 0.29169 0.41941 0.0
H805 H 0.49166 0.28633 0.443 0.0
H806 H 0.51204 0.24403 0.42368 0.0
H807 H 0.50285 0.21333 0.48739 0.0
H808 H 0.48247 0.25578 0.50696 0.0
H809 H 0.52328 0.23997 0.52661 0.0
H810 H 0.63817 0.35326 0.51302 0.0
H811 H 0.60024 0.40871 0.52557 0.0
H812 H 0.49711 0.33443 0.49565 0.0
C813 C 0.58385 0.22001 0.44673 0.0
C814 C 0.62255 0.21277 0.44001 0.0
C815 C 0.65215 0.2387 0.45575 0.0
C816 C 0.64348 0.27223 0.47659 0.0
C817 C 0.60502 0.27904 0.48193 0.0
C818 C 0.57565 0.25334 0.46776 0.0
C819 C 0.53714 0.26882 0.47448 0.0
C820 C 0.51891 0.27297 0.43798 0.0
C821 C 0.50983 0.24293 0.50041 0.0
C822 C 0.5496 0.3081 0.49298 0.0
C823 C 0.58875 0.31336 0.49762 0.0
C824 C 0.60732 0.34905 0.51051 0.0
C825 C 0.58551 0.38037 0.51783 0.0
C826 C 0.54554 0.37567 0.51247 0.0
C827 C 0.52744 0.33872 0.50082 0.0
loop_
_geom_bond_atom_site_label_1
_geom_bond_atom_site_label_2
_geom_bond_distance
_geom_bond_site_symmetry_2
_ccdc_geom_bond_type
H0 C5 0.930 . S
H1 C8 0.930 . S
H2 C10 0.930 . S
H3 C4 1.016 . S
C4 H3 1.016 . S
C4 N11 1.286 . S
C5 H0 0.930 . S
C5 C6 1.397 . S
C5 C7 1.361 . S
C6 C5 1.397 . S
C6 C10 1.390 . S
C7 C5 1.361 . S
C7 C8 1.393 . S
C7 N11 1.413 . S
C8 H1 0.930 . S
C8 C7 1.393 . S
C8 C9 1.399 . S
C9 C8 1.399 . S
C9 C10 1.381 . S
C10 H2 0.930 . S
C10 C6 1.390 . S
C10 C9 1.381 . S
N11 C4 1.286 . S
N11 C7 1.413 . S
H12 C17 0.930 . S
H13 C20 0.930 . S
H14 C22 0.930 . S
H15 C16 1.016 . S
C16 H15 1.016 . S
C16 N23 1.286 . S
C17 H12 0.930 . S
C17 C18 1.397 . S
C17 C19 1.361 . S
C18 C17 1.397 . S
C18 C22 1.390 . S
C19 C17 1.361 . S
C19 C20 1.393 . S
C19 N23 1.413 . S
C20 H13 0.930 . S
C20 C19 1.393 . S
C20 C21 1.399 . S
C21 C20 1.399 . S
C21 C22 1.381 . S
C22 H14 0.930 . S
C22 C18 1.390 . S
C22 C21 1.381 . S
N23 C16 1.286 . S
N23 C19 1.413 . S
H24 C29 0.930 . S
H25 C32 0.930 . S
H26 C34 0.930 . S
H27 C28 1.016 . S
C28 H27 1.016 . S
C28 N35 1.286 . S
C29 H24 0.930 . S
C29 C30 1.397 . S
C29 C31 1.361 . S
C30 C29 1.397 . S
C30 C34 1.390 . S
C31 C29 1.361 . S
C31 C32 1.393 . S
C31 N35 1.413 . S
C32 H25 0.930 . S
C32 C31 1.393 . S
C32 C33 1.399 . S
C33 C32 1.399 . S
C33 C34 1.381 . S
C34 H26 0.930 . S
C34 C30 1.390 . S
C34 C33 1.381 . S
N35 C28 1.286 . S
N35 C31 1.413 . S
H36 C41 0.930 . S
H37 C44 0.930 . S
H38 C46 0.930 . S
H39 C40 1.016 . S
C40 H39 1.016 . S
C40 N47 1.286 . S
C41 H36 0.930 . S
C41 C42 1.397 . S
C41 C43 1.361 . S
C42 C41 1.397 . S
C42 C46 1.390 . S
C43 C41 1.361 . S
C43 C44 1.393 . S
C43 N47 1.413 . S
C44 H37 0.930 . S
C44 C43 1.393 . S
C44 C45 1.399 . S
C45 C44 1.399 . S
C45 C46 1.381 . S
C46 H38 0.930 . S
C46 C42 1.390 . S
C46 C45 1.381 . S
N47 C40 1.286 . S
N47 C43 1.413 . S
H48 C53 0.930 . S
H49 C56 0.930 . S
H50 C58 0.931 . S
H51 C52 1.015 1_455 S
C52 H51 1.015 1_655 S
C52 N59 1.286 . S
C53 H48 0.930 . S
C53 C54 1.397 . S
C53 C55 1.361 . S
C54 C53 1.397 . S
C54 C58 1.390 . S
C55 C53 1.361 . S
C55 C56 1.393 . S
C55 N59 1.413 . S
C56 H49 0.930 . S
C56 C55 1.393 . S
C56 C57 1.399 . S
C57 C56 1.399 . S
C57 C58 1.381 . S
C58 H50 0.931 . S
C58 C54 1.390 . S
C58 C57 1.381 . S
N59 C52 1.286 . S
N59 C55 1.413 . S
H60 C65 0.930 . S
H61 C68 0.930 . S
H62 C70 0.930 . S
H63 C64 1.016 . S
C64 H63 1.016 . S
C64 N71 1.286 . S
C65 H60 0.930 . S
C65 C66 1.397 . S
C65 C67 1.361 . S
C66 C65 1.397 . S
C66 C70 1.390 . S
C67 C65 1.361 . S
C67 C68 1.393 . S
C67 N71 1.413 . S
C68 H61 0.930 . S
C68 C67 1.393 . S
C68 C69 1.399 . S
C69 C68 1.399 . S
C69 C70 1.381 . S
C70 H62 0.930 . S
C70 C66 1.390 . S
C70 C69 1.381 . S
N71 C64 1.286 . S
N71 C67 1.413 . S
H72 C77 0.930 . S
H73 C80 0.930 . S
H74 C82 0.930 . S
H75 C76 1.016 . S
C76 H75 1.016 . S
C76 N83 1.286 . S
C77 H72 0.930 . S
C77 C78 1.397 . S
C77 C79 1.361 . S
C78 C77 1.397 . S
C78 C82 1.390 . S
C79 C77 1.361 . S
C79 C80 1.393 . S
C79 N83 1.413 . S
C80 H73 0.930 . S
C80 C79 1.393 . S
C80 C81 1.399 . S
C81 C80 1.399 . S
C81 C82 1.381 . S
C82 H74 0.930 . S
C82 C78 1.390 . S
C82 C81 1.381 . S
N83 C76 1.286 . S
N83 C79 1.413 . S
H84 C89 0.930 . S
H85 C92 0.930 . S
H86 C94 0.930 . S
H87 C88 1.016 . S
C88 H87 1.016 . S
C88 N95 1.286 . S
C89 H84 0.930 . S
C89 C90 1.397 . S
C89 C91 1.361 . S
C90 C89 1.397 . S
C90 C94 1.390 . S
C91 C89 1.361 . S
C91 C92 1.393 . S
C91 N95 1.413 . S
C92 H85 0.930 . S
C92 C91 1.393 . S
C92 C93 1.399 . S
C93 C92 1.399 . S
C93 C94 1.381 . S
C94 H86 0.930 . S
C94 C90 1.390 . S
C94 C93 1.381 . S
N95 C88 1.286 . S
N95 C91 1.413 . S
Zn96 O102 1.920 . S
Zn96 O108 1.898 . S
Zn96 O111 1.905 . S
Zn97 O105 1.905 1_565 S
Zn97 O106 1.898 . S
Zn97 O114 1.920 . S
Zn98 O101 2.080 1_455 S
Zn98 O104 2.114 . S
Zn98 O107 2.120 1_445 S
Zn98 O109 2.120 . S
Zn98 O110 2.114 1_455 S
Zn98 O113 2.080 . S
C99 O104 1.166 . S
C99 O105 1.182 . S
C100 O106 1.167 1_655 S
C100 O107 1.299 . S
O101 Zn98 2.080 1_655 S
O101 C115 1.305 . S
O102 Zn96 1.920 . S
O102 C115 1.234 . S
C103 O108 1.167 1_455 S
C103 O109 1.299 . S
O104 Zn98 2.114 . S
O104 C99 1.166 . S
O105 Zn97 1.905 1_545 S
O105 C99 1.182 . S
O106 Zn97 1.898 . S
O106 C100 1.167 1_455 S
O107 Zn98 2.120 1_665 S
O107 C100 1.299 . S
O108 Zn96 1.898 . S
O108 C103 1.167 1_655 S
O109 Zn98 2.120 . S
O109 C103 1.299 . S
O110 Zn98 2.114 1_655 S
O110 C112 1.166 . S
O111 Zn96 1.905 . S
O111 C112 1.182 . S
C112 O110 1.166 . S
C112 O111 1.182 . S
O113 Zn98 2.080 . S
O113 C116 1.305 1_545 S
O114 Zn97 1.920 . S
O114 C116 1.234 . S
C115 O101 1.305 . S
C115 O102 1.234 . S
C116 O113 1.305 1_565 S
C116 O114 1.234 . S
Zn117 O123 1.920 1_556 S
Zn117 O129 1.898 . S
Zn117 O132 1.905 . S
Zn118 O126 1.905 . S
Zn118 O127 1.898 . S
Zn118 O135 1.920 . S
Zn119 O122 2.080 . S
Zn119 O125 2.114 1_545 S
Zn119 O128 2.120 1_545 S
Zn119 O130 2.120 . S
Zn119 O131 2.114 1_544 S
Zn119 O134 2.080 . S
C120 O125 1.166 . S
C120 O126 1.182 . S
C121 O127 1.167 . S
C121 O128 1.299 . S
O122 Zn119 2.080 . S
O122 C136 1.305 . S
O123 Zn117 1.920 1_554 S
O123 C136 1.234 . S
C124 O129 1.167 . S
C124 O130 1.299 1_556 S
O125 Zn119 2.114 1_565 S
O125 C120 1.166 . S
O126 Zn118 1.905 . S
O126 C120 1.182 . S
O127 Zn118 1.898 . S
O127 C121 1.167 . S
O128 Zn119 2.120 1_565 S
O128 C121 1.299 . S
O129 Zn117 1.898 . S
O129 C124 1.167 . S
O130 Zn119 2.120 . S
O130 C124 1.299 1_554 S
O131 Zn119 2.114 1_566 S
O131 C133 1.166 . S
O132 Zn117 1.905 . S
O132 C133 1.182 1_545 S
C133 O131 1.166 . S
C133 O132 1.182 1_565 S
O134 Zn119 2.080 . S
O134 C137 1.305 . S
O135 Zn118 1.920 . S
O135 C137 1.234 1_565 S
C136 O122 1.305 . S
C136 O123 1.234 . S
C137 O134 1.305 . S
C137 O135 1.234 1_545 S
Zn138 O144 1.920 . S
Zn138 O150 1.898 . S
Zn138 O153 1.905 . S
Zn139 O147 1.905 . S
Zn139 O148 1.898 . S
Zn139 O156 1.920 . S
Zn140 O143 2.080 . S
Zn140 O146 2.114 . S
Zn140 O149 2.120 . S
Zn140 O151 2.120 . S
Zn140 O152 2.114 . S
Zn140 O155 2.080 . S
C141 O146 1.166 . S
C141 O147 1.182 . S
C142 O148 1.167 . S
C142 O149 1.299 . S
O143 Zn140 2.080 . S
O143 C157 1.305 . S
O144 Zn138 1.920 . S
O144 C157 1.234 . S
C145 O150 1.167 . S
C145 O151 1.299 . S
O146 Zn140 2.114 . S
O146 C141 1.166 . S
O147 Zn139 1.905 . S
O147 C141 1.182 . S
O148 Zn139 1.898 . S
O148 C142 1.167 . S
O149 Zn140 2.120 . S
O149 C142 1.299 . S
O150 Zn138 1.898 . S
O150 C145 1.167 . S
O151 Zn140 2.120 . S
O151 C145 1.299 . S
O152 Zn140 2.114 . S
O152 C154 1.166 . S
O153 Zn138 1.905 . S
O153 C154 1.182 . S
C154 O152 1.166 . S
C154 O153 1.182 . S
O155 Zn140 2.080 . S
O155 C158 1.305 . S
O156 Zn139 1.920 . S
O156 C158 1.234 . S
C157 O143 1.305 . S
C157 O144 1.234 . S
C158 O155 1.305 . S
C158 O156 1.234 . S
Zn159 O165 1.920 . S
Zn159 O171 1.898 . S
Zn159 O174 1.905 . S
Zn160 O168 1.905 1_655 S
Zn160 O169 1.898 . S
Zn160 O177 1.920 . S
Zn161 O164 2.080 1_554 S
Zn161 O167 2.114 . S
Zn161 O170 2.120 1_454 S
Zn161 O172 2.120 . S
Zn161 O173 2.114 1_554 S
Zn161 O176 2.080 . S
C162 O167 1.166 . S
C162 O168 1.182 . S
C163 O169 1.167 1_556 S
C163 O170 1.299 . S
O164 Zn161 2.080 1_556 S
O164 C178 1.305 . S
O165 Zn159 1.920 . S
O165 C178 1.234 . S
C166 O171 1.167 1_554 S
C166 O172 1.299 . S
O167 Zn161 2.114 . S
O167 C162 1.166 . S
O168 Zn160 1.905 1_455 S
O168 C162 1.182 . S
O169 Zn160 1.898 . S
O169 C163 1.167 1_554 S
O170 Zn161 2.120 1_656 S
O170 C163 1.299 . S
O171 Zn159 1.898 . S
O171 C166 1.167 1_556 S
O172 Zn161 2.120 . S
O172 C166 1.299 . S
O173 Zn161 2.114 1_556 S
O173 C175 1.166 . S
O174 Zn159 1.905 . S
O174 C175 1.182 . S
C175 O173 1.166 . S
C175 O174 1.182 . S
O176 Zn161 2.080 . S
O176 C179 1.304 . S
O177 Zn160 1.920 . S
O177 C179 1.235 1_655 S
C178 O164 1.305 . S
C178 O165 1.234 . S
C179 O176 1.304 . S
C179 O177 1.235 1_455 S
H180 C192 0.930 . S
H181 C194 0.930 . S
H182 C195 0.930 . S
H183 C199 0.959 . S
H184 C199 0.959 . S
H185 C199 0.961 . S
H186 C200 0.960 . S
H187 C200 0.961 . S
H188 C200 0.959 . S
H189 C203 0.929 . S
H190 C204 0.931 . S
H191 C206 0.930 . S
C192 H180 0.930 . S
C192 C193 1.399 . S
C192 C197 1.399 . S
C193 C192 1.399 . S
C193 C194 1.376 . S
C194 H181 0.930 . S
C194 C193 1.376 . S
C194 C195 1.388 . S
C195 H182 0.930 . S
C195 C194 1.388 . S
C195 C196 1.390 . S
C196 C195 1.390 . S
C196 C197 1.394 . S
C196 C202 1.465 . S
C197 C192 1.399 . S
C197 C196 1.394 . S
C197 C198 1.516 . S
C198 C197 1.516 . S
C198 C199 1.502 . S
C198 C200 1.561 . S
C198 C201 1.526 . S
C199 H183 0.959 . S
C199 H184 0.959 . S
C199 H185 0.961 . S
C199 C198 1.502 . S
C200 H186 0.960 . S
C200 H187 0.961 . S
C200 H188 0.959 . S
C200 C198 1.561 . S
C201 C198 1.526 . S
C201 C202 1.396 . S
C201 C206 1.390 . S
C202 C196 1.465 . S
C202 C201 1.396 . S
C202 C203 1.399 . S
C203 H189 0.929 . S
C203 C202 1.399 . S
C203 C204 1.385 . S
C204 H190 0.931 . S
C204 C203 1.385 . S
C204 C205 1.389 . S
C205 C204 1.389 . S
C205 C206 1.387 . S
C206 H191 0.930 . S
C206 C201 1.390 . S
C206 C205 1.387 . S
H207 C219 0.930 . S
H208 C221 0.930 . S
H209 C222 0.930 . S
H210 C226 0.959 . S
H211 C226 0.959 . S
H212 C226 0.961 . S
H213 C227 0.960 . S
H214 C227 0.961 . S
H215 C227 0.959 . S
H216 C230 0.929 . S
H217 C231 0.931 1_545 S
H218 C233 0.930 . S
C219 H207 0.930 . S
C219 C220 1.399 . S
C219 C224 1.399 . S
C220 C219 1.399 . S
C220 C221 1.376 . S
C221 H208 0.930 . S
C221 C220 1.376 . S
C221 C222 1.388 . S
C222 H209 0.930 . S
C222 C221 1.388 . S
C222 C223 1.390 . S
C223 C222 1.390 . S
C223 C224 1.394 . S
C223 C229 1.465 . S
C224 C219 1.399 . S
C224 C223 1.394 . S
C224 C225 1.516 . S
C225 C224 1.516 . S
C225 C226 1.502 . S
C225 C227 1.561 . S
C225 C228 1.526 . S
C226 H210 0.959 . S
C226 H211 0.959 . S
C226 H212 0.961 . S
C226 C225 1.502 . S
C227 H213 0.960 . S
C227 H214 0.961 . S
C227 H215 0.959 . S
C227 C225 1.561 . S
C228 C225 1.526 . S
C228 C229 1.396 . S
C228 C233 1.390 . S
C229 C223 1.465 . S
C229 C228 1.396 . S
C229 C230 1.399 . S
C230 H216 0.929 . S
C230 C229 1.399 . S
C230 C231 1.385 . S
C231 H217 0.931 1_565 S
C231 C230 1.385 . S
C231 C232 1.389 . S
C232 C231 1.389 . S
C232 C233 1.387 . S
C233 H218 0.930 . S
C233 C228 1.390 . S
C233 C232 1.387 . S
H234 C246 0.930 . S
H235 C248 0.930 . S
H236 C249 0.930 . S
H237 C253 0.959 . S
H238 C253 0.959 . S
H239 C253 0.961 . S
H240 C254 0.960 . S
H241 C254 0.961 . S
H242 C254 0.959 . S
H243 C257 0.929 . S
H244 C258 0.931 . S
H245 C260 0.930 . S
C246 H234 0.930 . S
C246 C247 1.399 . S
C246 C251 1.399 . S
C247 C246 1.399 . S
C247 C248 1.376 . S
C248 H235 0.930 . S
C248 C247 1.376 . S
C248 C249 1.388 . S
C249 H236 0.930 . S
C249 C248 1.388 . S
C249 C250 1.390 . S
C250 C249 1.390 . S
C250 C251 1.394 . S
C250 C256 1.465 . S
C251 C246 1.399 . S
C251 C250 1.394 . S
C251 C252 1.516 . S
C252 C251 1.516 . S
C252 C253 1.502 . S
C252 C254 1.561 . S
C252 C255 1.526 . S
C253 H237 0.959 . S
C253 H238 0.959 . S
C253 H239 0.961 . S
C253 C252 1.502 . S
C254 H240 0.960 . S
C254 H241 0.961 . S
C254 H242 0.959 . S
C254 C252 1.561 . S
C255 C252 1.526 . S
C255 C256 1.396 . S
C255 C260 1.390 . S
C256 C250 1.465 . S
C256 C255 1.396 . S
C256 C257 1.399 . S
C257 H243 0.929 . S
C257 C256 1.399 . S
C257 C258 1.385 . S
C258 H244 0.931 . S
C258 C257 1.385 . S
C258 C259 1.389 . S
C259 C258 1.389 . S
C259 C260 1.387 . S
C260 H245 0.930 . S
C260 C255 1.390 . S
C260 C259 1.387 . S
H261 C273 0.930 . S
H262 C275 0.930 . S
H263 C276 0.930 . S
H264 C280 0.959 1_455 S
H265 C280 0.959 1_455 S
H266 C280 0.961 . S
H267 C281 0.960 . S
H268 C281 0.961 . S
H269 C281 0.959 . S
H270 C284 0.929 . S
H271 C285 0.931 . S
H272 C287 0.930 1_455 S
C273 H261 0.930 . S
C273 C274 1.399 . S
C273 C278 1.399 . S
C274 C273 1.399 . S
C274 C275 1.376 . S
C275 H262 0.930 . S
C275 C274 1.376 . S
C275 C276 1.388 . S
C276 H263 0.930 . S
C276 C275 1.388 . S
C276 C277 1.390 . S
C277 C276 1.390 . S
C277 C278 1.394 . S
C277 C283 1.465 . S
C278 C273 1.399 . S
C278 C277 1.394 . S
C278 C279 1.516 . S
C279 C278 1.516 . S
C279 C280 1.502 . S
C279 C281 1.561 . S
C279 C282 1.526 . S
C280 H264 0.959 1_655 S
C280 H265 0.959 1_655 S
C280 H266 0.961 . S
C280 C279 1.502 . S
C281 H267 0.960 . S
C281 H268 0.961 . S
C281 H269 0.959 . S
C281 C279 1.561 . S
C282 C279 1.526 . S
C282 C283 1.396 . S
C282 C287 1.390 . S
C283 C277 1.465 . S
C283 C282 1.396 . S
C283 C284 1.399 . S
C284 H270 0.929 . S
C284 C283 1.399 . S
C284 C285 1.385 . S
C285 H271 0.931 . S
C285 C284 1.385 . S
C285 C286 1.389 . S
C286 C285 1.389 . S
C286 C287 1.387 . S
C287 H272 0.930 1_655 S
C287 C282 1.390 . S
C287 C286 1.387 . S
H288 C300 0.930 . S
H289 C302 0.930 . S
H290 C303 0.930 . S
H291 C307 0.959 . S
H292 C307 0.959 . S
H293 C307 0.961 . S
H294 C308 0.960 . S
H295 C308 0.961 . S
H296 C308 0.959 . S
H297 C311 0.929 . S
H298 C312 0.931 . S
H299 C314 0.930 . S
C300 H288 0.930 . S
C300 C301 1.399 . S
C300 C305 1.399 . S
C301 C300 1.399 . S
C301 C302 1.376 . S
C302 H289 0.930 . S
C302 C301 1.376 . S
C302 C303 1.388 . S
C303 H290 0.930 . S
C303 C302 1.388 . S
C303 C304 1.390 . S
C304 C303 1.390 . S
C304 C305 1.394 . S
C304 C310 1.465 . S
C305 C300 1.399 . S
C305 C304 1.394 . S
C305 C306 1.516 . S
C306 C305 1.516 . S
C306 C307 1.502 . S
C306 C308 1.561 . S
C306 C309 1.526 . S
C307 H291 0.959 . S
C307 H292 0.959 . S
C307 H293 0.961 . S
C307 C306 1.502 . S
C308 H294 0.960 . S
C308 H295 0.961 . S
C308 H296 0.959 . S
C308 C306 1.561 . S
C309 C306 1.526 . S
C309 C310 1.396 . S
C309 C314 1.390 . S
C310 C304 1.465 . S
C310 C309 1.396 . S
C310 C311 1.399 . S
C311 H297 0.929 . S
C311 C310 1.399 . S
C311 C312 1.385 . S
C312 H298 0.931 . S
C312 C311 1.385 . S
C312 C313 1.389 . S
C313 C312 1.389 . S
C313 C314 1.387 . S
C314 H299 0.930 . S
C314 C309 1.390 . S
C314 C313 1.387 . S
H315 C327 0.930 . S
H316 C329 0.930 . S
H317 C330 0.930 . S
H318 C334 0.959 . S
H319 C334 0.959 . S
H320 C334 0.961 . S
H321 C335 0.960 . S
H322 C335 0.961 . S
H323 C335 0.959 . S
H324 C338 0.929 . S
H325 C339 0.931 . S
H326 C341 0.930 1_545 S
C327 H315 0.930 . S
C327 C328 1.399 . S
C327 C332 1.399 . S
C328 C327 1.399 . S
C328 C329 1.376 . S
C329 H316 0.930 . S
C329 C328 1.376 . S
C329 C330 1.388 . S
C330 H317 0.930 . S
C330 C329 1.388 . S
C330 C331 1.390 . S
C331 C330 1.390 . S
C331 C332 1.394 . S
C331 C337 1.465 . S
C332 C327 1.399 . S
C332 C331 1.394 . S
C332 C333 1.516 . S
C333 C332 1.516 . S
C333 C334 1.502 1_565 S
C333 C335 1.561 . S
C333 C336 1.526 . S
C334 H318 0.959 . S
C334 H319 0.959 . S
C334 H320 0.961 . S
C334 C333 1.502 1_545 S
C335 H321 0.960 . S
C335 H322 0.961 . S
C335 H323 0.959 . S
C335 C333 1.561 . S
C336 C333 1.526 . S
C336 C337 1.396 . S
C336 C341 1.390 . S
C337 C331 1.465 . S
C337 C336 1.396 . S
C337 C338 1.399 . S
C338 H324 0.929 . S
C338 C337 1.399 . S
C338 C339 1.385 . S
C339 H325 0.931 . S
C339 C338 1.385 . S
C339 C340 1.389 . S
C340 C339 1.389 . S
C340 C341 1.387 . S
C341 H326 0.930 1_565 S
C341 C336 1.390 . S
C341 C340 1.387 . S
H342 C354 0.930 . S
H343 C356 0.930 . S
H344 C357 0.930 . S
H345 C361 0.959 . S
H346 C361 0.959 . S
H347 C361 0.961 . S
H348 C362 0.960 . S
H349 C362 0.961 . S
H350 C362 0.959 . S
H351 C365 0.929 . S
H352 C366 0.931 . S
H353 C368 0.930 . S
C354 H342 0.930 . S
C354 C355 1.399 . S
C354 C359 1.399 . S
C355 C354 1.399 . S
C355 C356 1.376 . S
C356 H343 0.930 . S
C356 C355 1.376 . S
C356 C357 1.388 . S
C357 H344 0.930 . S
C357 C356 1.388 . S
C357 C358 1.390 . S
C358 C357 1.390 . S
C358 C359 1.394 . S
C358 C364 1.465 . S
C359 C354 1.399 . S
C359 C358 1.394 . S
C359 C360 1.516 . S
C360 C359 1.516 . S
C360 C361 1.502 . S
C360 C362 1.561 . S
C360 C363 1.526 . S
C361 H345 0.959 . S
C361 H346 0.959 . S
C361 H347 0.961 . S
C361 C360 1.502 . S
C362 H348 0.960 . S
C362 H349 0.961 . S
C362 H350 0.959 . S
C362 C360 1.561 . S
C363 C360 1.526 . S
C363 C364 1.396 . S
C363 C368 1.390 . S
C364 C358 1.465 . S
C364 C363 1.396 . S
C364 C365 1.399 . S
C365 H351 0.929 . S
C365 C364 1.399 . S
C365 C366 1.385 . S
C366 H352 0.931 . S
C366 C365 1.385 . S
C366 C367 1.389 . S
C367 C366 1.389 . S
C367 C368 1.387 . S
C368 H353 0.930 . S
C368 C363 1.390 . S
C368 C367 1.387 . S
H369 C381 0.930 . S
H370 C383 0.930 . S
H371 C384 0.930 . S
H372 C388 0.959 . S
H373 C388 0.959 . S
H374 C388 0.961 . S
H375 C389 0.960 . S
H376 C389 0.961 . S
H377 C389 0.959 . S
H378 C392 0.929 . S
H379 C393 0.931 . S
H380 C395 0.930 . S
C381 H369 0.930 . S
C381 C382 1.399 . S
C381 C386 1.399 . S
C382 C381 1.399 . S
C382 C383 1.376 . S
C383 H370 0.930 . S
C383 C382 1.376 . S
C383 C384 1.388 . S
C384 H371 0.930 . S
C384 C383 1.388 . S
C384 C385 1.390 . S
C385 C384 1.390 . S
C385 C386 1.394 . S
C385 C391 1.465 . S
C386 C381 1.399 . S
C386 C385 1.394 . S
C386 C387 1.516 . S
C387 C386 1.516 . S
C387 C388 1.502 . S
C387 C389 1.561 . S
C387 C390 1.526 . S
C388 H372 0.959 . S
C388 H373 0.959 . S
C388 H374 0.961 . S
C388 C387 1.502 . S
C389 H375 0.960 . S
C389 H376 0.961 . S
C389 H377 0.959 . S
C389 C387 1.561 . S
C390 C387 1.526 . S
C390 C391 1.396 . S
C390 C395 1.390 . S
C391 C385 1.465 . S
C391 C390 1.396 . S
C391 C392 1.399 . S
C392 H378 0.929 . S
C392 C391 1.399 . S
C392 C393 1.385 . S
C393 H379 0.931 . S
C393 C392 1.385 . S
C393 C394 1.389 . S
C394 C393 1.389 . S
C394 C395 1.387 . S
C395 H380 0.930 . S
C395 C390 1.390 . S
C395 C394 1.387 . S
H396 C408 0.930 . S
H397 C410 0.930 . S
H398 C411 0.930 . S
H399 C415 0.959 . S
H400 C415 0.959 . S
H401 C415 0.961 . S
H402 C416 0.960 . S
H403 C416 0.961 . S
H404 C416 0.959 . S
H405 C419 0.929 . S
H406 C420 0.931 . S
H407 C422 0.930 . S
C408 H396 0.930 . S
C408 C409 1.399 . S
C408 C413 1.399 . S
C409 C408 1.399 . S
C409 C410 1.376 . S
C410 H397 0.930 . S
C410 C409 1.376 . S
C410 C411 1.388 . S
C411 H398 0.930 . S
C411 C410 1.388 . S
C411 C412 1.390 . S
C412 C411 1.390 . S
C412 C413 1.394 . S
C412 C418 1.465 . S
C413 C408 1.399 . S
C413 C412 1.394 . S
C413 C414 1.516 . S
C414 C413 1.516 . S
C414 C415 1.502 . S
C414 C416 1.561 . S
C414 C417 1.526 . S
C415 H399 0.959 . S
C415 H400 0.959 . S
C415 H401 0.961 . S
C415 C414 1.502 . S
C416 H402 0.960 . S
C416 H403 0.961 . S
C416 H404 0.959 . S
C416 C414 1.561 . S
C417 C414 1.526 . S
C417 C418 1.396 . S
C417 C422 1.390 . S
C418 C412 1.465 . S
C418 C417 1.396 . S
C418 C419 1.399 . S
C419 H405 0.929 . S
C419 C418 1.399 . S
C419 C420 1.385 . S
C420 H406 0.931 . S
C420 C419 1.385 . S
C420 C421 1.389 . S
C421 C420 1.389 . S
C421 C422 1.387 . S
C422 H407 0.930 . S
C422 C417 1.390 . S
C422 C421 1.387 . S
H423 C435 0.930 . S
H424 C437 0.930 . S
H425 C438 0.930 . S
H426 C442 0.959 . S
H427 C442 0.959 1_554 S
H428 C442 0.961 . S
H429 C443 0.960 . S
H430 C443 0.961 1_554 S
H431 C443 0.959 . S
H432 C446 0.929 . S
H433 C447 0.931 . S
H434 C449 0.930 1_554 S
C435 H423 0.930 . S
C435 C436 1.399 . S
C435 C440 1.399 . S
C436 C435 1.399 . S
C436 C437 1.376 . S
C437 H424 0.930 . S
C437 C436 1.376 . S
C437 C438 1.388 . S
C438 H425 0.930 . S
C438 C437 1.388 . S
C438 C439 1.390 . S
C439 C438 1.390 . S
C439 C440 1.394 . S
C439 C445 1.465 . S
C440 C435 1.399 . S
C440 C439 1.394 . S
C440 C441 1.516 . S
C441 C440 1.516 . S
C441 C442 1.502 . S
C441 C443 1.561 . S
C441 C444 1.526 . S
C442 H426 0.959 . S
C442 H427 0.959 1_556 S
C442 H428 0.961 . S
C442 C441 1.502 . S
C443 H429 0.960 . S
C443 H430 0.961 1_556 S
C443 H431 0.959 . S
C443 C441 1.561 . S
C444 C441 1.526 . S
C444 C445 1.396 . S
C444 C449 1.390 . S
C445 C439 1.465 . S
C445 C444 1.396 . S
C445 C446 1.399 . S
C446 H432 0.929 . S
C446 C445 1.399 . S
C446 C447 1.385 . S
C447 H433 0.931 . S
C447 C446 1.385 . S
C447 C448 1.389 . S
C448 C447 1.389 . S
C448 C449 1.387 . S
C449 H434 0.930 1_556 S
C449 C444 1.390 . S
C449 C448 1.387 . S
H450 C462 0.930 . S
H451 C464 0.930 . S
H452 C465 0.930 . S
H453 C469 0.959 . S
H454 C469 0.959 . S
H455 C469 0.961 . S
H456 C470 0.960 . S
H457 C470 0.961 . S
H458 C470 0.959 . S
H459 C473 0.929 1_455 S
H460 C474 0.931 1_455 S
H461 C476 0.930 . S
C462 H450 0.930 . S
C462 C463 1.399 . S
C462 C467 1.399 . S
C463 C462 1.399 . S
C463 C464 1.376 . S
C464 H451 0.930 . S
C464 C463 1.376 . S
C464 C465 1.388 . S
C465 H452 0.930 . S
C465 C464 1.388 . S
C465 C466 1.390 . S
C466 C465 1.390 . S
C466 C467 1.394 . S
C466 C472 1.465 . S
C467 C462 1.399 . S
C467 C466 1.394 . S
C467 C468 1.516 . S
C468 C467 1.516 . S
C468 C469 1.502 . S
C468 C470 1.561 . S
C468 C471 1.526 . S
C469 H453 0.959 . S
C469 H454 0.959 . S
C469 H455 0.961 . S
C469 C468 1.502 . S
C470 H456 0.960 . S
C470 H457 0.961 . S
C470 H458 0.959 . S
C470 C468 1.561 . S
C471 C468 1.526 . S
C471 C472 1.396 . S
C471 C476 1.390 . S
C472 C466 1.465 . S
C472 C471 1.396 . S
C472 C473 1.399 . S
C473 H459 0.929 1_655 S
C473 C472 1.399 . S
C473 C474 1.385 . S
C474 H460 0.931 1_655 S
C474 C473 1.385 . S
C474 C475 1.389 . S
C475 C474 1.389 . S
C475 C476 1.387 . S
C476 H461 0.930 . S
C476 C471 1.390 . S
C476 C475 1.387 . S
H477 C489 0.930 . S
H478 C491 0.930 . S
H479 C492 0.930 . S
H480 C496 0.959 . S
H481 C496 0.959 . S
H482 C496 0.961 . S
H483 C497 0.960 . S
H484 C497 0.961 . S
H485 C497 0.959 . S
H486 C500 0.929 . S
H487 C501 0.931 . S
H488 C503 0.930 . S
C489 H477 0.930 . S
C489 C490 1.399 . S
C489 C494 1.399 . S
C490 C489 1.399 . S
C490 C491 1.376 . S
C491 H478 0.930 . S
C491 C490 1.376 . S
C491 C492 1.388 . S
C492 H479 0.930 . S
C492 C491 1.388 . S
C492 C493 1.390 . S
C493 C492 1.390 . S
C493 C494 1.394 . S
C493 C499 1.465 . S
C494 C489 1.399 . S
C494 C493 1.394 . S
C494 C495 1.516 . S
C495 C494 1.516 . S
C495 C496 1.502 . S
C495 C497 1.561 . S
C495 C498 1.526 . S
C496 H480 0.959 . S
C496 H481 0.959 . S
C496 H482 0.961 . S
C496 C495 1.502 . S
C497 H483 0.960 . S
C497 H484 0.961 . S
C497 H485 0.959 . S
C497 C495 1.561 . S
C498 C495 1.526 . S
C498 C499 1.396 . S
C498 C503 1.390 . S
C499 C493 1.465 . S
C499 C498 1.396 . S
C499 C500 1.399 . S
C500 H486 0.929 . S
C500 C499 1.399 . S
C500 C501 1.385 . S
C501 H487 0.931 . S
C501 C500 1.385 . S
C501 C502 1.389 . S
C502 C501 1.389 . S
C502 C503 1.387 . S
C503 H488 0.930 . S
C503 C498 1.390 . S
C503 C502 1.387 . S
H504 C516 0.930 . S
H505 C518 0.930 . S
H506 C519 0.930 . S
H507 C523 0.959 . S
H508 C523 0.959 . S
H509 C523 0.961 . S
H510 C524 0.960 . S
H511 C524 0.961 . S
H512 C524 0.959 . S
H513 C527 0.929 . S
H514 C528 0.931 . S
H515 C530 0.930 1_455 S
C516 H504 0.930 . S
C516 C517 1.399 . S
C516 C521 1.399 . S
C517 C516 1.399 . S
C517 C518 1.376 1_565 S
C518 H505 0.930 . S
C518 C517 1.376 1_545 S
C518 C519 1.388 . S
C519 H506 0.930 . S
C519 C518 1.388 . S
C519 C520 1.390 . S
C520 C519 1.390 . S
C520 C521 1.394 1_545 S
C520 C526 1.465 . S
C521 C516 1.399 . S
C521 C520 1.394 1_565 S
C521 C522 1.516 . S
C522 C521 1.516 . S
C522 C523 1.502 1_655 S
C522 C524 1.561 . S
C522 C525 1.526 . S
C523 H507 0.959 . S
C523 H508 0.959 . S
C523 H509 0.961 . S
C523 C522 1.502 1_455 S
C524 H510 0.960 . S
C524 H511 0.961 . S
C524 H512 0.959 . S
C524 C522 1.561 . S
C525 C522 1.526 . S
C525 C526 1.396 1_565 S
C525 C530 1.390 . S
C526 C520 1.465 . S
C526 C525 1.396 1_545 S
C526 C527 1.399 . S
C527 H513 0.929 . S
C527 C526 1.399 . S
C527 C528 1.385 . S
C528 H514 0.931 . S
C528 C527 1.385 . S
C528 C529 1.389 . S
C529 C528 1.389 . S
C529 C530 1.387 1_545 S
C530 H515 0.930 1_655 S
C530 C525 1.390 . S
C530 C529 1.387 1_565 S
H531 C543 0.930 . S
H532 C545 0.930 . S
H533 C546 0.930 . S
H534 C550 0.959 1_545 S
H535 C550 0.959 . S
H536 C550 0.961 . S
H537 C551 0.960 . S
H538 C551 0.961 . S
H539 C551 0.959 . S
H540 C554 0.929 . S
H541 C555 0.931 . S
H542 C557 0.930 1_565 S
C543 H531 0.930 . S
C543 C544 1.399 . S
C543 C548 1.399 . S
C544 C543 1.399 . S
C544 C545 1.376 . S
C545 H532 0.930 . S
C545 C544 1.376 . S
C545 C546 1.388 . S
C546 H533 0.930 . S
C546 C545 1.388 . S
C546 C547 1.390 . S
C547 C546 1.390 . S
C547 C548 1.394 . S
C547 C553 1.465 . S
C548 C543 1.399 . S
C548 C547 1.394 . S
C548 C549 1.516 . S
C549 C548 1.516 . S
C549 C550 1.502 1_545 S
C549 C551 1.561 1_545 S
C549 C552 1.526 . S
C550 H534 0.959 1_565 S
C550 H535 0.959 . S
C550 H536 0.961 . S
C550 C549 1.502 1_565 S
C551 H537 0.960 . S
C551 H538 0.961 . S
C551 H539 0.959 . S
C551 C549 1.561 1_565 S
C552 C549 1.526 . S
C552 C553 1.396 . S
C552 C557 1.390 . S
C553 C547 1.465 . S
C553 C552 1.396 . S
C553 C554 1.399 . S
C554 H540 0.929 . S
C554 C553 1.399 . S
C554 C555 1.385 . S
C555 H541 0.931 . S
C555 C554 1.385 . S
C555 C556 1.389 . S
C556 C555 1.389 . S
C556 C557 1.387 . S
C557 H542 0.930 1_545 S
C557 C552 1.390 . S
C557 C556 1.387 . S
H558 C570 0.930 . S
H559 C572 0.930 . S
H560 C573 0.930 . S
H561 C577 0.959 . S
H562 C577 0.959 . S
H563 C577 0.961 . S
H564 C578 0.960 . S
H565 C578 0.961 . S
H566 C578 0.959 . S
H567 C581 0.929 . S
H568 C582 0.931 . S
H569 C584 0.930 . S
C570 H558 0.930 . S
C570 C571 1.399 . S
C570 C575 1.399 . S
C571 C570 1.399 . S
C571 C572 1.376 . S
C572 H559 0.930 . S
C572 C571 1.376 . S
C572 C573 1.388 . S
C573 H560 0.930 . S
C573 C572 1.388 . S
C573 C574 1.390 . S
C574 C573 1.390 . S
C574 C575 1.394 . S
C574 C580 1.465 . S
C575 C570 1.399 . S
C575 C574 1.394 . S
C575 C576 1.516 . S
C576 C575 1.516 . S
C576 C577 1.502 . S
C576 C578 1.561 . S
C576 C579 1.526 . S
C577 H561 0.959 . S
C577 H562 0.959 . S
C577 H563 0.961 . S
C577 C576 1.502 . S
C578 H564 0.960 . S
C578 H565 0.961 . S
C578 H566 0.959 . S
C578 C576 1.561 . S
C579 C576 1.526 . S
C579 C580 1.396 . S
C579 C584 1.390 . S
C580 C574 1.465 . S
C580 C579 1.396 . S
C580 C581 1.399 . S
C581 H567 0.929 . S
C581 C580 1.399 . S
C581 C582 1.385 . S
C582 H568 0.931 . S
C582 C581 1.385 . S
C582 C583 1.389 . S
C583 C582 1.389 . S
C583 C584 1.387 . S
C584 H569 0.930 . S
C584 C579 1.390 . S
C584 C583 1.387 . S
H585 C597 0.930 . S
H586 C599 0.930 . S
H587 C600 0.930 . S
H588 C604 0.959 . S
H589 C604 0.959 . S
H590 C604 0.961 . S
H591 C605 0.960 . S
H592 C605 0.961 . S
H593 C605 0.959 . S
H594 C608 0.929 . S
H595 C609 0.931 . S
H596 C611 0.930 . S
C597 H585 0.930 . S
C597 C598 1.399 . S
C597 C602 1.399 . S
C598 C597 1.399 . S
C598 C599 1.376 . S
C599 H586 0.930 . S
C599 C598 1.376 . S
C599 C600 1.388 . S
C600 H587 0.930 . S
C600 C599 1.388 . S
C600 C601 1.390 . S
C601 C600 1.390 . S
C601 C602 1.394 . S
C601 C607 1.465 . S
C602 C597 1.399 . S
C602 C601 1.394 . S
C602 C603 1.516 . S
C603 C602 1.516 . S
C603 C604 1.502 . S
C603 C605 1.561 . S
C603 C606 1.526 . S
C604 H588 0.959 . S
C604 H589 0.959 . S
C604 H590 0.961 . S
C604 C603 1.502 . S
C605 H591 0.960 . S
C605 H592 0.961 . S
C605 H593 0.959 . S
C605 C603 1.561 . S
C606 C603 1.526 . S
C606 C607 1.396 . S
C606 C611 1.390 . S
C607 C601 1.465 . S
C607 C606 1.396 . S
C607 C608 1.399 . S
C608 H594 0.929 . S
C608 C607 1.399 . S
C608 C609 1.385 . S
C609 H595 0.931 . S
C609 C608 1.385 . S
C609 C610 1.389 . S
C610 C609 1.389 . S
C610 C611 1.387 . S
C611 H596 0.930 . S
C611 C606 1.390 . S
C611 C610 1.387 . S
H612 C624 0.930 . S
H613 C626 0.930 . S
H614 C627 0.930 . S
H615 C631 0.959 1_554 S
H616 C631 0.959 . S
H617 C631 0.961 . S
H618 C632 0.960 . S
H619 C632 0.961 . S
H620 C632 0.959 . S
H621 C635 0.929 . S
H622 C636 0.931 . S
H623 C638 0.930 . S
C624 H612 0.930 . S
C624 C625 1.399 1_545 S
C624 C629 1.399 . S
C625 C624 1.399 1_565 S
C625 C626 1.376 . S
C626 H613 0.930 . S
C626 C625 1.376 . S
C626 C627 1.388 . S
C627 H614 0.930 . S
C627 C626 1.388 . S
C627 C628 1.390 . S
C628 C627 1.390 . S
C628 C629 1.394 1_565 S
C628 C634 1.465 . S
C629 C624 1.399 . S
C629 C628 1.394 1_545 S
C629 C630 1.516 . S
C630 C629 1.516 . S
C630 C631 1.502 . S
C630 C632 1.561 . S
C630 C633 1.526 . S
C631 H615 0.959 1_556 S
C631 H616 0.959 . S
C631 H617 0.961 . S
C631 C630 1.502 . S
C632 H618 0.960 . S
C632 H619 0.961 . S
C632 H620 0.959 . S
C632 C630 1.561 . S
C633 C630 1.526 . S
C633 C634 1.396 1_545 S
C633 C638 1.390 . S
C634 C628 1.465 . S
C634 C633 1.396 1_565 S
C634 C635 1.399 . S
C635 H621 0.929 . S
C635 C634 1.399 . S
C635 C636 1.385 1_556 S
C636 H622 0.931 . S
C636 C635 1.385 1_554 S
C636 C637 1.389 . S
C637 C636 1.389 . S
C637 C638 1.387 1_564 S
C638 H623 0.930 . S
C638 C633 1.390 . S
C638 C637 1.387 1_546 S
H639 C651 0.930 . S
H640 C653 0.930 . S
H641 C654 0.930 . S
H642 C658 0.959 . S
H643 C658 0.959 . S
H644 C658 0.961 . S
H645 C659 0.960 . S
H646 C659 0.962 . S
H647 C659 0.959 . S
H648 C662 0.929 . S
H649 C663 0.931 . S
H650 C665 0.930 1_565 S
C651 H639 0.930 . S
C651 C652 1.399 . S
C651 C656 1.399 . S
C652 C651 1.399 . S
C652 C653 1.376 . S
C653 H640 0.930 . S
C653 C652 1.376 . S
C653 C654 1.388 . S
C654 H641 0.930 . S
C654 C653 1.388 . S
C654 C655 1.390 . S
C655 C654 1.390 . S
C655 C656 1.394 . S
C655 C661 1.465 . S
C656 C651 1.399 . S
C656 C655 1.394 . S
C656 C657 1.516 . S
C657 C656 1.516 . S
C657 C658 1.502 1_545 S
C657 C659 1.561 . S
C657 C660 1.526 . S
C658 H642 0.959 . S
C658 H643 0.959 . S
C658 H644 0.961 . S
C658 C657 1.502 1_565 S
C659 H645 0.960 . S
C659 H646 0.962 . S
C659 H647 0.959 . S
C659 C657 1.561 . S
C660 C657 1.526 . S
C660 C661 1.396 . S
C660 C665 1.390 . S
C661 C655 1.465 . S
C661 C660 1.396 . S
C661 C662 1.399 . S
C662 H648 0.929 . S
C662 C661 1.399 . S
C662 C663 1.385 . S
C663 H649 0.931 . S
C663 C662 1.385 . S
C663 C664 1.389 . S
C664 C663 1.389 . S
C664 C665 1.387 . S
C665 H650 0.930 1_545 S
C665 C660 1.390 . S
C665 C664 1.387 . S
H666 C678 0.930 . S
H667 C680 0.930 . S
H668 C681 0.930 . S
H669 C685 0.959 . S
H670 C685 0.959 . S
H671 C685 0.961 . S
H672 C686 0.960 . S
H673 C686 0.961 . S
H674 C686 0.959 1_556 S
H675 C689 0.929 . S
H676 C690 0.931 . S
H677 C692 0.930 . S
C678 H666 0.930 . S
C678 C679 1.399 . S
C678 C683 1.399 . S
C679 C678 1.399 . S
C679 C680 1.376 . S
C680 H667 0.930 . S
C680 C679 1.376 . S
C680 C681 1.388 . S
C681 H668 0.930 . S
C681 C680 1.388 . S
C681 C682 1.390 . S
C682 C681 1.390 . S
C682 C683 1.394 . S
C682 C688 1.465 . S
C683 C678 1.399 . S
C683 C682 1.394 . S
C683 C684 1.516 . S
C684 C683 1.516 . S
C684 C685 1.502 . S
C684 C686 1.561 . S
C684 C687 1.526 . S
C685 H669 0.959 . S
C685 H670 0.959 . S
C685 H671 0.961 . S
C685 C684 1.502 . S
C686 H672 0.960 . S
C686 H673 0.961 . S
C686 H674 0.959 1_554 S
C686 C684 1.561 . S
C687 C684 1.526 . S
C687 C688 1.396 . S
C687 C692 1.390 . S
C688 C682 1.465 . S
C688 C687 1.396 . S
C688 C689 1.399 . S
C689 H675 0.929 . S
C689 C688 1.399 . S
C689 C690 1.385 . S
C690 H676 0.931 . S
C690 C689 1.385 . S
C690 C691 1.389 . S
C691 C690 1.389 . S
C691 C692 1.387 . S
C692 H677 0.930 . S
C692 C687 1.390 . S
C692 C691 1.387 . S
H693 C705 0.930 . S
H694 C707 0.930 . S
H695 C708 0.930 . S
H696 C712 0.959 . S
H697 C712 0.959 . S
H698 C712 0.961 . S
H699 C713 0.960 . S
H700 C713 0.961 . S
H701 C713 0.959 . S
H702 C716 0.929 . S
H703 C717 0.931 . S
H704 C719 0.930 . S
C705 H693 0.930 . S
C705 C706 1.399 . S
C705 C710 1.399 . S
C706 C705 1.399 . S
C706 C707 1.376 . S
C707 H694 0.930 . S
C707 C706 1.376 . S
C707 C708 1.388 . S
C708 H695 0.930 . S
C708 C707 1.388 . S
C708 C709 1.390 . S
C709 C708 1.390 . S
C709 C710 1.394 . S
C709 C715 1.465 . S
C710 C705 1.399 . S
C710 C709 1.394 . S
C710 C711 1.516 . S
C711 C710 1.516 . S
C711 C712 1.502 . S
C711 C713 1.561 . S
C711 C714 1.526 . S
C712 H696 0.959 . S
C712 H697 0.959 . S
C712 H698 0.961 . S
C712 C711 1.502 . S
C713 H699 0.960 . S
C713 H700 0.961 . S
C713 H701 0.959 . S
C713 C711 1.561 . S
C714 C711 1.526 . S
C714 C715 1.396 . S
C714 C719 1.390 . S
C715 C709 1.465 . S
C715 C714 1.396 . S
C715 C716 1.399 . S
C716 H702 0.929 . S
C716 C715 1.399 . S
C716 C717 1.385 . S
C717 H703 0.931 . S
C717 C716 1.385 . S
C717 C718 1.389 . S
C718 C717 1.389 . S
C718 C719 1.387 . S
C719 H704 0.930 . S
C719 C714 1.390 . S
C719 C718 1.387 . S
H720 C732 0.930 1_655 S
H721 C734 0.930 . S
H722 C735 0.930 . S
H723 C739 0.959 . S
H724 C739 0.959 . S
H725 C739 0.961 . S
H726 C740 0.960 . S
H727 C740 0.961 . S
H728 C740 0.959 . S
H729 C743 0.929 . S
H730 C744 0.931 . S
H731 C746 0.930 . S
C732 H720 0.930 1_455 S
C732 C733 1.399 . S
C732 C737 1.399 . S
C733 C732 1.399 . S
C733 C734 1.376 1_556 S
C734 H721 0.930 . S
C734 C733 1.376 1_554 S
C734 C735 1.388 . S
C735 H722 0.930 . S
C735 C734 1.388 . S
C735 C736 1.390 1_554 S
C736 C735 1.390 1_556 S
C736 C737 1.394 . S
C736 C742 1.465 . S
C737 C732 1.399 . S
C737 C736 1.394 . S
C737 C738 1.516 . S
C738 C737 1.516 . S
C738 C739 1.502 1_455 S
C738 C740 1.561 . S
C738 C741 1.526 . S
C739 H723 0.959 . S
C739 H724 0.959 . S
C739 H725 0.961 . S
C739 C738 1.502 1_655 S
C740 H726 0.960 . S
C740 H727 0.961 . S
C740 H728 0.959 . S
C740 C738 1.561 . S
C741 C738 1.526 . S
C741 C742 1.396 . S
C741 C746 1.390 . S
C742 C736 1.465 . S
C742 C741 1.396 . S
C742 C743 1.399 1_556 S
C743 H729 0.929 . S
C743 C742 1.399 1_554 S
C743 C744 1.385 . S
C744 H730 0.931 . S
C744 C743 1.385 . S
C744 C745 1.389 1_554 S
C745 C744 1.389 1_556 S
C745 C746 1.387 . S
C746 H731 0.930 . S
C746 C741 1.390 . S
C746 C745 1.387 . S
H747 C759 0.930 . S
H748 C761 0.930 . S
H749 C762 0.930 . S
H750 C766 0.959 . S
H751 C766 0.959 . S
H752 C766 0.961 . S
H753 C767 0.960 . S
H754 C767 0.961 . S
H755 C767 0.959 . S
H756 C770 0.929 1_556 S
H757 C771 0.931 1_556 S
H758 C773 0.930 . S
C759 H747 0.930 . S
C759 C760 1.399 . S
C759 C764 1.399 . S
C760 C759 1.399 . S
C760 C761 1.376 . S
C761 H748 0.930 . S
C761 C760 1.376 . S
C761 C762 1.388 . S
C762 H749 0.930 . S
C762 C761 1.388 . S
C762 C763 1.390 . S
C763 C762 1.390 . S
C763 C764 1.394 . S
C763 C769 1.465 . S
C764 C759 1.399 . S
C764 C763 1.394 . S
C764 C765 1.516 . S
C765 C764 1.516 . S
C765 C766 1.502 . S
C765 C767 1.561 . S
C765 C768 1.526 . S
C766 H750 0.959 . S
C766 H751 0.959 . S
C766 H752 0.961 . S
C766 C765 1.502 . S
C767 H753 0.960 . S
C767 H754 0.961 . S
C767 H755 0.959 . S
C767 C765 1.561 . S
C768 C765 1.526 . S
C768 C769 1.396 . S
C768 C773 1.390 . S
C769 C763 1.465 . S
C769 C768 1.396 . S
C769 C770 1.399 . S
C770 H756 0.929 1_554 S
C770 C769 1.399 . S
C770 C771 1.385 . S
C771 H757 0.931 1_554 S
C771 C770 1.385 . S
C771 C772 1.389 . S
C772 C771 1.389 . S
C772 C773 1.387 . S
C773 H758 0.930 . S
C773 C768 1.390 . S
C773 C772 1.387 . S
H774 C786 0.930 . S
H775 C788 0.930 . S
H776 C789 0.930 . S
H777 C793 0.959 . S
H778 C793 0.959 . S
H779 C793 0.961 . S
H780 C794 0.960 . S
H781 C794 0.961 . S
H782 C794 0.959 . S
H783 C797 0.929 . S
H784 C798 0.931 . S
H785 C800 0.930 . S
C786 H774 0.930 . S
C786 C787 1.399 . S
C786 C791 1.399 . S
C787 C786 1.399 . S
C787 C788 1.376 . S
C788 H775 0.930 . S
C788 C787 1.376 . S
C788 C789 1.388 . S
C789 H776 0.930 . S
C789 C788 1.388 . S
C789 C790 1.390 . S
C790 C789 1.390 . S
C790 C791 1.394 . S
C790 C796 1.465 . S
C791 C786 1.399 . S
C791 C790 1.394 . S
C791 C792 1.516 . S
C792 C791 1.516 . S
C792 C793 1.502 . S
C792 C794 1.561 . S
C792 C795 1.526 . S
C793 H777 0.959 . S
C793 H778 0.959 . S
C793 H779 0.961 . S
C793 C792 1.502 . S
C794 H780 0.960 . S
C794 H781 0.961 . S
C794 H782 0.959 . S
C794 C792 1.561 . S
C795 C792 1.526 . S
C795 C796 1.396 . S
C795 C800 1.390 . S
C796 C790 1.465 . S
C796 C795 1.396 . S
C796 C797 1.399 . S
C797 H783 0.929 . S
C797 C796 1.399 . S
C797 C798 1.385 . S
C798 H784 0.931 . S
C798 C797 1.385 . S
C798 C799 1.389 . S
C799 C798 1.389 . S
C799 C800 1.387 . S
C800 H785 0.930 . S
C800 C795 1.390 . S
C800 C799 1.387 . S
H801 C813 0.930 . S
H802 C815 0.930 . S
H803 C816 0.930 . S
H804 C820 0.959 . S
H805 C820 0.959 . S
H806 C820 0.961 . S
H807 C821 0.960 . S
H808 C821 0.961 . S
H809 C821 0.959 . S
H810 C824 0.929 . S
H811 C825 0.931 . S
H812 C827 0.930 . S
C813 H801 0.930 . S
C813 C814 1.399 . S
C813 C818 1.399 . S
C814 C813 1.399 . S
C814 C815 1.376 . S
C815 H802 0.930 . S
C815 C814 1.376 . S
C815 C816 1.388 . S
C816 H803 0.930 . S
C816 C815 1.388 . S
C816 C817 1.390 . S
C817 C816 1.390 . S
C817 C818 1.394 . S
C817 C823 1.465 . S
C818 C813 1.399 . S
C818 C817 1.394 . S
C818 C819 1.516 . S
C819 C818 1.516 . S
C819 C820 1.502 . S
C819 C821 1.561 . S
C819 C822 1.526 . S
C820 H804 0.959 . S
C820 H805 0.959 . S
C820 H806 0.961 . S
C820 C819 1.502 . S
C821 H807 0.960 . S
C821 H808 0.961 . S
C821 H809 0.959 . S
C821 C819 1.561 . S
C822 C819 1.526 . S
C822 C823 1.396 . S
C822 C827 1.390 . S
C823 C817 1.465 . S
C823 C822 1.396 . S
C823 C824 1.399 . S
C824 H810 0.929 . S
C824 C823 1.399 . S
C824 C825 1.385 . S
C825 H811 0.931 . S
C825 C824 1.385 . S
C825 C826 1.389 . S
C826 C825 1.389 . S
C826 C827 1.387 . S
C827 H812 0.930 . S
C827 C822 1.390 . S
C827 C826 1.387 . S
C193 C6 1.718 . S
C205 C99 1.637 . S
C220 C18 1.788 . S
C232 C133 1.621 . S
C259 C145 1.369 . S
C247 C28 1.486 . S
C274 C40 1.028 . S
C286 C179 1.018 1_655 S
C313 C136 1.703 . S
C301 C9 1.786 . S
C340 C116 1.406 . S
C328 C16 1.497 . S
C367 C163 1.425 . S
C355 C30 1.519 . S
C394 C154 1.223 . S
C382 C42 1.246 . S
C409 C4 1.527 . S
C421 C162 1.386 . S
C448 C124 1.400 . S
C436 C33 1.572 . S
C463 C45 1.291 . S
C475 C100 1.133 . S
C490 C21 1.765 . S
C502 C157 1.679 . S
C529 C115 1.615 . S
C517 C57 1.778 . S
C544 C66 1.855 . S
C556 C137 1.769 . S
C571 C76 1.641 . S
C583 C142 1.609 . S
C598 C88 1.103 . S
C610 C175 1.014 . S
C625 C54 1.812 . S
C637 C120 1.691 . S
C664 C112 1.480 . S
C652 C64 1.590 . S
C691 C166 1.416 . S
C679 C78 1.496 . S
C718 C158 1.273 . S
C706 C93 1.318 . S
C733 C52 1.509 1_455 S
C745 C178 1.435 . S
C772 C121 1.523 . S
C760 C81 1.667 . S
C799 C103 1.275 . S
C787 C90 1.388 . S
C814 C69 1.786 . S
C826 C141 1.697 . S
