# Generated by pormake.
# Topology pts, (4,4)-cn, num edge types: 1
# Building blocks:
#     Node 0, Type 0, BuildingBlock: KUFVIS_clean_linker_0, # of connection points: 4
#     Node 1, Type 0, BuildingBlock: KUFVIS_clean_linker_0, # of connection points: 4
#     Node 2, Type 1, BuildingBlock: AZAVOO_clean_sbu_0, # of connection points: 4
#     Node 3, Type 1, BuildingBlock: AZAVOO_clean_sbu_0, # of connection points: 4
#     Edge 4, Type (0, 1), BuildingBlock: UVAHIK_clean_linker_0, # of connection points: 2
#     Edge 5, Type (0, 1), BuildingBlock: UVAHIK_clean_linker_0, # of connection points: 2
#     Edge 6, Type (0, 1), BuildingBlock: UVAHIK_clean_linker_0, # of connection points: 2
#     Edge 7, Type (0, 1), BuildingBlock: UVAHIK_clean_linker_0, # of connection points: 2
#     Edge 8, Type (0, 1), BuildingBlock: UVAHIK_clean_linker_0, # of connection points: 2
#     Edge 9, Type (0, 1), BuildingBlock: UVAHIK_clean_linker_0, # of connection points: 2
#     Edge 10, Type (0, 1), BuildingBlock: UVAHIK_clean_linker_0, # of connection points: 2
#     Edge 11, Type (0, 1), BuildingBlock: UVAHIK_clean_linker_0, # of connection points: 2
# Relax obj value: 0.013
# Max RMSD: 0.077
# Mean RMSD: 0.073
data_MOF--net-pts--node1-AZAVOO_clean_sbu_0--node2-KUFVIS_clean_linker_0--edge1-UVAHIK_clean_linker_0
_symmetry_space_group_name_H-M    P1
_symmetry_Int_Tables_number       1
_symmetry_cell_setting            triclinic
loop_
_symmetry_equiv_pos_as_xyz
'x, y, z'
_cell_length_a     31.736752
_cell_length_b     33.286686
_cell_length_c     45.272741
_cell_angle_alpha  89.954022
_cell_angle_beta   95.482542
_cell_angle_gamma 90.427748
loop_
_atom_site_label
_atom_site_type_symbol
_atom_site_fract_x
_atom_site_fract_y
_atom_site_fract_z
_atom_type_partial_charge
H0 H 0.40185 0.05146 -0.01732 0.0
H1 H 0.50935 0.02707 0.93489 0.0
H2 H 0.5268 0.07148 0.02505 0.0
H3 H 0.58514 0.02663 0.02303 0.0
H4 H 0.69302 0.05221 0.97559 0.0
H5 H 0.56837 0.07237 0.93322 0.0
C6 C 0.43587 0.05078 -0.01821 0.0
C7 C 0.46235 0.06278 0.00672 0.0
C8 C 0.45235 0.0375 0.95593 0.0
C9 C 0.49648 0.03755 0.9548 0.0
C10 C 0.52397 0.0497 -0.02033 0.0
C11 C 0.50641 0.06182 0.00576 0.0
C12 C 0.57084 0.0498 -0.0216 0.0
C13 C 0.59814 0.03743 0.0032 0.0
C14 C 0.64227 0.03765 0.00212 0.0
C15 C 0.65897 0.05136 0.9764 0.0
C16 C 0.6327 0.06372 0.95156 0.0
C17 C 0.5886 0.06247 0.95244 0.0
H18 H 1.00145 0.654 0.47583 0.0
H19 H 1.01358 0.54417 0.52472 0.0
H20 H 0.04168 0.54851 0.43295 0.0
H21 H 0.02408 0.48505 0.43278 0.0
H22 H 0.07433 0.38374 0.48179 0.0
H23 H 0.0571 0.49369 0.52783 0.0
C24 C 1.00787 0.62204 0.47635 0.0
C25 C 1.01966 0.60302 0.45088 0.0
C26 C 1.00663 0.60104 0.50302 0.0
C27 C 1.01624 0.55999 0.50411 0.0
C28 C 0.02866 0.53991 0.47885 0.0
C29 C 0.03092 0.56232 0.45245 0.0
C30 C 0.04016 0.49618 0.47999 0.0
C31 C 0.03713 0.47275 0.45378 0.0
C32 C 0.05093 0.43287 0.45431 0.0
C33 C 0.06554 0.4152 0.48129 0.0
C34 C 0.06614 0.43674 0.50783 0.0
C35 C 0.05443 0.4773 0.50712 0.0
Mg36 Mg 0.09175 1.00606 0.25142 0.0
O37 O 0.0271 1.00478 0.22232 0.0
O38 O 0.9787 0.99339 0.25445 0.0
Mg39 Mg 1.00986 0.98551 0.30131 0.0
C40 C 0.98861 1.00012 0.2282 0.0
C41 C 0.16749 0.02343 0.22001 0.0
O42 O 0.17891 1.00084 0.24319 0.0
O43 O 0.07595 0.06783 0.26899 0.0
O44 O 0.02722 0.05257 0.29988 0.0
O45 O 0.10004 0.94024 0.24554 0.0
O46 O 0.06684 0.96714 0.28128 0.0
C47 C 0.0502 0.0781 0.28759 0.0
C48 C 0.07835 0.93531 0.26807 0.0
O49 O 0.12875 0.03332 0.21533 0.0
Mg50 Mg 1.00323 0.01303 0.70752 0.0
O51 O 0.06797 1.00676 0.73584 0.0
O52 O 0.11454 0.99324 0.70298 0.0
Mg53 Mg 0.0818 0.98878 0.6562 0.0
C54 C 0.10579 0.99988 0.72949 0.0
C55 C 0.92976 0.031 0.73979 0.0
O56 O 0.9177 0.00978 0.71595 0.0
O57 O 0.02407 0.07462 0.69144 0.0
O58 O 0.07003 0.05655 0.65944 0.0
O59 O 0.98977 0.94729 0.71141 0.0
O60 O 0.02332 0.97442 0.67583 0.0
C61 C 0.05011 0.08346 0.67253 0.0
C62 C 1.00945 0.94257 0.68794 0.0
O63 O 0.96884 0.04006 0.74483 0.0
C64 C 0.40888 0.10178 0.03149 0.0
C65 C 0.4425 0.07438 0.03377 0.0
C66 C 0.38258 0.10534 0.05434 0.0
C67 C 0.36816 0.07776 0.13213 0.0
H68 H 0.25011 0.06704 0.10172 0.0
C69 C 0.24084 0.02081 0.20455 0.0
C70 C 0.19953 0.03605 0.20003 0.0
C71 C 0.27146 0.03167 0.18581 0.0
C72 C 0.28275 0.07085 0.11071 0.0
H73 H 0.47709 0.03156 0.06254 0.0
H74 H 0.43114 0.03783 0.10277 0.0
H75 H 0.30369 0.07697 0.06743 0.0
H76 H 0.15819 0.07533 0.17249 0.0
H77 H 0.212 0.09493 0.13986 0.0
H78 H 0.34721 0.07113 0.17544 0.0
C79 C 0.42516 0.05665 0.08332 0.0
C80 C 0.31357 0.07652 0.091 0.0
C81 C 0.45158 0.05311 0.06037 0.0
C82 C 0.18966 0.06289 0.17646 0.0
C83 C 0.22049 0.07399 0.15772 0.0
C84 C 0.33726 0.07236 0.1519 0.0
C85 C 0.38932 0.08154 0.07997 0.0
C86 C 0.35669 0.07944 0.10143 0.0
C87 C 0.26176 0.05832 0.16209 0.0
C88 C 0.29422 0.06808 0.1414 0.0
H89 H 0.40147 0.11877 0.01126 0.0
H90 H 0.3558 0.12541 0.05137 0.0
H91 H 0.40105 0.08032 0.14086 0.0
H92 H 0.24957 0.99991 0.2224 0.0
H93 H 0.30251 0.0183 0.18956 0.0
C94 C 0.04352 0.41043 0.55545 0.0
C95 C 0.07527 0.41483 0.53609 0.0
C96 C 0.0468 0.38066 0.57739 0.0
C97 C 0.0946 0.28144 0.58618 0.0
H98 H 0.04829 0.28022 0.6624 0.0
C99 C 0.09555 0.13669 0.65301 0.0
C100 C 0.0578 0.12596 0.66496 0.0
C101 C 0.10177 0.1756 0.64288 0.0
C102 C 0.06117 0.28014 0.64109 0.0
H103 H 0.13708 0.39489 0.52618 0.0
H104 H 0.1437 0.34397 0.56514 0.0
H105 H 0.0538 0.3439 0.63566 0.0
H106 H 0.99784 0.14824 0.67714 0.0
H107 H 1.00818 0.2164 0.6585 0.0
H108 H 0.10081 0.21802 0.59079 0.0
C109 C 0.11567 0.3625 0.56291 0.0
C110 C 0.06444 0.31657 0.62585 0.0
C111 C 0.11214 0.39185 0.54082 0.0
C112 C 0.0272 0.15564 0.66793 0.0
C113 C 0.03323 0.19469 0.65739 0.0
C114 C 0.0913 0.24529 0.60128 0.0
C115 C 0.08203 0.35506 0.58034 0.0
C116 C 0.08119 0.31756 0.59817 0.0
C117 C 0.07015 0.20474 0.64399 0.0
C118 C 0.07455 0.24406 0.6289 0.0
H119 H 1.01461 0.42763 0.55199 0.0
H120 H 1.02029 0.3757 0.59037 0.0
H121 H 0.10639 0.28075 0.56451 0.0
H122 H 0.12014 0.11474 0.65097 0.0
H123 H 0.13106 0.18259 0.63344 0.0
C124 C 0.66877 0.03884 0.05634 0.0
C125 C 0.67206 0.02438 0.02751 0.0
C126 C 0.70144 0.03212 0.07887 0.0
C127 C 0.81568 0.01846 0.08727 0.0
H128 H 0.80109 0.9849 0.16761 0.0
C129 C 0.95891 0.99362 0.17478 0.0
C130 C 0.95348 1.00322 0.20436 0.0
C131 C 0.92429 0.99429 0.15307 0.0
C132 C 0.80576 0.99491 0.1454 0.0
H133 H 0.71017 0.98853 0.00034 0.0
H134 H 0.76718 0.97741 0.03943 0.0
H135 H 0.73963 0.98854 0.13101 0.0
H136 H 0.90807 0.02289 0.23413 0.0
H137 H 0.84866 0.02575 0.19641 0.0
H138 H 0.88136 0.02629 0.10161 0.0
C139 C 0.73984 0.99447 0.04451 0.0
C140 C 0.77048 0.99675 0.12443 0.0
C141 C 0.70717 1.00081 0.02219 0.0
C142 C 0.91319 0.01469 0.21159 0.0
C143 C 0.87892 0.01601 0.18994 0.0
C144 C 0.85086 0.01722 0.10831 0.0
C145 C 0.73792 0.01105 0.07281 0.0
C146 C 0.77512 0.00849 0.09517 0.0
C147 C 0.88372 1.00522 0.16045 0.0
C148 C 0.84642 1.00553 0.13772 0.0
H149 H 0.64218 0.0572 0.06105 0.0
H150 H 0.6992 0.04519 0.10056 0.0
H151 H 0.82006 0.02813 0.06491 0.0
H152 H 0.98955 0.98449 0.1686 0.0
H153 H 0.92922 0.9854 0.13068 0.0
C154 C 0.96387 0.6497 0.52921 0.0
C155 C 0.99861 0.62377 0.52995 0.0
C156 C 0.96177 0.67876 0.55118 0.0
C157 C 1.01085 0.71711 0.62371 0.0
H158 H 0.986 0.82041 0.58659 0.0
C159 C 0.9974 0.86801 0.68759 0.0
C160 C 1.014 0.90241 0.67469 0.0
C161 C 0.99681 0.83094 0.67296 0.0
C162 C 0.9933 0.79185 0.5973 0.0
H163 H 0.05665 0.60558 0.55527 0.0
H164 H 0.05332 0.65682 0.59368 0.0
H165 H 0.97865 0.75976 0.55685 0.0
H166 H 0.0449 0.9244 0.63706 0.0
H167 H 0.04435 0.85991 0.61186 0.0
H168 H 0.0264 0.74992 0.66416 0.0
C169 C 0.02748 0.65447 0.57631 0.0
C170 C 0.98841 0.75695 0.58034 0.0
C171 C 0.0294 0.62511 0.55437 0.0
C172 C 0.03181 0.89859 0.64762 0.0
C173 C 0.03119 0.86166 0.63304 0.0
C174 C 1.01555 0.75223 0.64081 0.0
C175 C 0.99462 0.68277 0.57416 0.0
C176 C 0.99727 0.71916 0.59325 0.0
C177 C 1.01265 0.82769 0.64513 0.0
C178 C 1.00726 0.79 0.62764 0.0
H179 H 0.93959 0.64898 0.51068 0.0
H180 H 0.93551 0.69951 0.54931 0.0
H181 H 1.01787 0.68841 0.63427 0.0
H182 H 0.98348 0.86996 0.70847 0.0
H183 H 0.98221 0.80531 0.68279 0.0
C184 C 0.38674 1.00077 0.93585 0.0
C185 C 0.42236 0.02416 0.93052 0.0
C186 C 0.35419 0.99413 0.91343 0.0
C187 C 0.32428 0.99361 0.83367 0.0
H188 H 0.21422 0.02679 0.85499 0.0
C189 C 0.18252 0.00987 0.74545 0.0
C190 C 0.14153 1.00106 0.75304 0.0
C191 C 0.21691 0.01079 0.76705 0.0
C192 C 0.24443 0.01663 0.84871 0.0
H193 H 0.4532 0.05627 0.89682 0.0
H194 H 0.39639 0.04358 0.85712 0.0
H195 H 0.27524 0.02944 0.89188 0.0
H196 H 0.10448 0.98616 0.78933 0.0
H197 H 0.1649 0.98616 0.82714 0.0
H198 H 0.29364 0.97969 0.79079 0.0
C199 C 0.39368 0.03098 0.87894 0.0
C200 C 0.27947 0.0184 0.86986 0.0
C201 C 0.42621 0.03809 0.90158 0.0
C202 C 0.13567 0.99323 0.78285 0.0
C203 C 0.17036 0.99345 0.8045 0.0
C204 C 0.28909 0.99116 0.81262 0.0
C205 C 0.35676 0.01011 0.885 0.0
C206 C 0.31976 1.00716 0.86249 0.0
C207 C 0.21151 1.00222 0.79687 0.0
C208 C 0.24869 1.00303 0.81974 0.0
H209 H 0.3833 0.98878 0.95775 0.0
H210 H 0.32645 0.97727 0.91852 0.0
H211 H 0.35495 0.98442 0.82754 0.0
H212 H 0.18807 0.01665 0.72273 0.0
H213 H 0.24769 0.0188 0.76029 0.0
C214 C 1.00893 0.39877 0.41196 0.0
C215 C 0.04838 0.40821 0.42711 0.0
C216 C 1.00583 0.36934 0.38981 0.0
C217 C 0.06486 0.30869 0.33991 0.0
H218 H 0.99161 0.22162 0.36081 0.0
C219 C 0.08218 0.14634 0.29766 0.0
C220 C 0.04665 0.12081 0.29562 0.0
C221 C 0.07934 0.18554 0.30843 0.0
C222 C 1.01145 0.24583 0.35395 0.0
H223 H 0.11567 0.3967 0.43006 0.0
H224 H 0.11045 0.34591 0.39079 0.0
H225 H 0.99131 0.28482 0.38732 0.0
H226 H 0.97965 0.11691 0.30095 0.0
H227 H 0.97397 0.18567 0.31805 0.0
H228 H 0.08504 0.26981 0.30645 0.0
C229 C 0.08197 0.36101 0.39604 0.0
C230 C 1.01131 0.28211 0.36933 0.0
C231 C 0.08497 0.38987 0.41852 0.0
C232 C 1.00773 0.1358 0.30284 0.0
C233 C 1.00461 0.17519 0.31286 0.0
C234 C 0.06446 0.27256 0.32407 0.0
C235 C 0.04224 0.34951 0.3822 0.0
C236 C 0.03857 0.31358 0.36286 0.0
C237 C 0.04063 0.20026 0.31673 0.0
C238 C 0.03835 0.24029 0.3313 0.0
H239 H 0.98032 0.41239 0.41846 0.0
H240 H 0.97485 0.36098 0.3794 0.0
H241 H 0.08611 0.33264 0.33449 0.0
H242 H 0.1126 0.13541 0.29228 0.0
H243 H 0.10794 0.20359 0.31137 0.0
C244 C 0.68659 0.10395 0.92759 0.0
C245 C 0.65285 0.0762 0.92478 0.0
C246 C 0.71332 0.10823 0.90503 0.0
C247 C 0.72896 0.08267 0.82722 0.0
H248 H 0.84645 0.07142 0.85846 0.0
C249 C 0.85632 0.02789 0.75501 0.0
C250 C 0.89791 0.04294 0.75997 0.0
C251 C 0.82572 0.0382 0.77376 0.0
C252 C 0.81399 0.07541 0.84926 0.0
H253 H 0.6185 0.03356 0.89535 0.0
H254 H 0.66518 0.04119 0.85559 0.0
H255 H 0.79232 0.08032 0.89238 0.0
H256 H 0.93981 0.08119 0.78838 0.0
H257 H 0.88596 0.09988 0.82106 0.0
H258 H 0.7506 0.07735 0.78407 0.0
C259 C 0.67093 0.05968 0.87525 0.0
C260 C 0.78286 0.08047 0.86875 0.0
C261 C 0.64409 0.05538 0.89793 0.0
C262 C 0.9081 0.06895 0.78406 0.0
C263 C 0.87725 0.07952 0.80282 0.0
C264 C 0.76016 0.07793 0.80768 0.0
C265 C 0.70689 0.08487 0.87915 0.0
C266 C 0.73992 0.08352 0.858 0.0
C267 C 0.83566 0.06413 0.79793 0.0
C268 C 0.80301 0.07342 0.81847 0.0
H269 H 0.69378 0.12059 0.94803 0.0
H270 H 0.74021 0.1285 0.90842 0.0
H271 H 0.69621 0.08536 0.81827 0.0
H272 H 0.84733 1.00758 0.73678 0.0
H273 H 0.79443 0.02499 0.76961 0.0
C274 C 0.05598 0.6234 0.40601 0.0
C275 C 1.02153 0.62671 0.42318 0.0
C276 C 0.05983 0.64934 0.38206 0.0
C277 C 1.00155 0.72778 0.3351 0.0
H278 H 0.11385 0.77331 0.33204 0.0
C279 C 0.03524 0.8887 0.29682 0.0
C280 C 0.06781 0.89462 0.27832 0.0
C281 C 0.02751 0.85063 0.30819 0.0
C282 C 0.08244 0.76043 0.33226 0.0
H283 H 0.96266 0.65791 0.42737 0.0
H284 H 0.97015 0.704 0.38673 0.0
H285 H 0.10422 0.71507 0.36329 0.0
H286 H 0.11722 0.86512 0.25664 0.0
H287 H 0.10435 0.79864 0.27725 0.0
H288 H 0.97967 0.77511 0.30548 0.0
C289 C 0.99401 0.68115 0.39124 0.0
C290 C 0.07686 0.72689 0.35008 0.0
C291 C 0.99 0.65506 0.41492 0.0
C292 C 0.09184 0.86147 0.27082 0.0
C293 C 0.08462 0.82349 0.28264 0.0
C294 C 1.00708 0.7617 0.31765 0.0
C295 C 0.02944 0.67929 0.37488 0.0
C296 C 0.03616 0.71077 0.35237 0.0
C297 C 0.05266 0.81786 0.30167 0.0
C298 C 0.04743 0.77885 0.31664 0.0
H299 H 0.0809 0.60195 0.41182 0.0
H300 H 0.08719 0.64658 0.36964 0.0
H301 H 0.9699 0.71563 0.33572 0.0
H302 H 1.01598 0.91345 0.30286 0.0
H303 H 1.00291 0.84714 0.32304 0.0
loop_
_geom_bond_atom_site_label_1
_geom_bond_atom_site_label_2
_geom_bond_distance
_geom_bond_site_symmetry_2
_ccdc_geom_bond_type
H0 C6 0.931 . S
H1 C9 0.931 . S
H2 C11 0.931 . S
H3 C13 0.930 . S
H4 C15 0.930 . S
H5 C17 0.931 . S
C6 H0 0.931 . S
C6 C7 1.399 . S
C6 C8 1.373 1_554 S
C7 C6 1.399 . S
C7 C11 1.382 . S
C8 C6 1.373 1_556 S
C8 C9 1.400 . S
C9 H1 0.931 . S
C9 C8 1.400 . S
C9 C10 1.345 1_556 S
C10 C9 1.345 1_554 S
C10 C11 1.449 . S
C10 C12 1.498 . S
C11 H2 0.931 . S
C11 C7 1.382 . S
C11 C10 1.449 . S
C12 C10 1.498 . S
C12 C13 1.384 . S
C12 C17 1.408 1_554 S
C13 H3 0.930 . S
C13 C12 1.384 . S
C13 C14 1.389 . S
C14 C13 1.389 . S
C14 C15 1.405 . S
C15 H4 0.930 . S
C15 C14 1.405 . S
C15 C16 1.364 1_554 S
C16 C15 1.364 1_556 S
C16 C17 1.400 . S
C17 H5 0.931 . S
C17 C12 1.408 1_556 S
C17 C16 1.400 . S
H18 C24 0.930 . S
H19 C27 0.931 . S
H20 C29 0.931 . S
H21 C31 0.930 . S
H22 C33 0.930 . S
H23 C35 0.931 . S
C24 H18 0.930 . S
C24 C25 1.380 . S
C24 C26 1.394 . S
C25 C24 1.380 . S
C25 C29 1.382 . S
C26 C24 1.394 . S
C26 C27 1.400 . S
C27 H19 0.931 . S
C27 C26 1.400 . S
C27 C28 1.375 . S
C28 C27 1.375 . S
C28 C29 1.415 . S
C28 C30 1.501 . S
C29 H20 0.931 . S
C29 C25 1.382 . S
C29 C28 1.415 . S
C30 C28 1.501 . S
C30 C31 1.384 . S
C30 C35 1.408 . S
C31 H21 0.930 . S
C31 C30 1.384 . S
C31 C32 1.389 . S
C32 C31 1.389 . S
C32 C33 1.405 . S
C33 H22 0.930 . S
C33 C32 1.405 . S
C33 C34 1.364 . S
C34 C33 1.364 . S
C34 C35 1.400 . S
C35 H23 0.931 . S
C35 C30 1.408 . S
C35 C34 1.400 . S
Mg36 O37 2.028 . S
Mg36 O43 1.986 . S
Mg36 O45 2.114 1_545 S
Mg36 O46 2.251 1_545 S
Mg36 O49 2.010 . S
O37 Mg36 2.028 . S
O37 C40 1.250 1_455 S
O38 Mg39 2.028 . S
O38 C40 1.248 . S
Mg39 O38 2.028 . S
Mg39 O44 2.038 . S
Mg39 O46 2.079 1_645 S
C40 O37 1.250 1_655 S
C40 O38 1.248 . S
C41 O42 1.264 . S
C41 O49 1.249 . S
O42 C41 1.264 . S
O43 Mg36 1.986 . S
O43 C47 1.246 . S
O44 Mg39 2.038 . S
O44 C47 1.249 1_655 S
O45 Mg36 2.114 1_565 S
O45 C48 1.252 . S
O46 Mg36 2.251 1_565 S
O46 Mg39 2.079 1_465 S
O46 C48 1.273 . S
C47 O43 1.246 . S
C47 O44 1.249 1_455 S
C48 O45 1.252 . S
C48 O46 1.273 . S
O49 Mg36 2.010 . S
O49 C41 1.249 . S
Mg50 O51 2.028 1_655 S
Mg50 O57 1.986 . S
Mg50 O59 2.114 1_545 S
Mg50 O60 2.251 1_645 S
Mg50 O63 2.010 . S
O51 Mg50 2.028 1_455 S
O51 C54 1.250 . S
O52 Mg53 2.028 . S
O52 C54 1.248 . S
Mg53 O52 2.028 . S
Mg53 O58 2.032 . S
Mg53 O60 2.079 1_545 S
C54 O51 1.250 . S
C54 O52 1.248 . S
C55 O56 1.264 . S
C55 O63 1.249 . S
O56 C55 1.264 . S
O57 Mg50 1.986 . S
O57 C61 1.246 1_655 S
O58 Mg53 2.032 . S
O58 C61 1.259 . S
O59 Mg50 2.114 1_565 S
O59 C62 1.252 1_655 S
O60 Mg50 2.251 1_465 S
O60 Mg53 2.079 1_565 S
O60 C62 1.273 . S
C61 O57 1.246 1_455 S
C61 O58 1.259 . S
C62 O59 1.252 1_455 S
C62 O60 1.273 . S
O63 Mg50 2.010 . S
O63 C55 1.249 . S
C64 C65 1.349 . S
C64 C66 1.327 . S
C64 H89 0.950 . S
C65 C64 1.349 . S
C65 C81 1.349 1_545 S
C66 C64 1.327 . S
C66 C85 1.429 . S
C66 H90 0.950 . S
C67 C84 1.574 . S
C67 C86 1.368 1_565 S
C67 H91 0.949 . S
H68 C72 0.949 . S
C69 C70 1.349 1_565 S
C69 C71 1.327 . S
C69 H92 0.950 . S
C70 C69 1.349 1_545 S
C70 C82 1.349 . S
C71 C69 1.327 . S
C71 C87 1.429 1_565 S
C71 H93 0.950 . S
C72 H68 0.949 . S
C72 C80 1.574 . S
C72 C88 1.368 . S
H73 C81 0.950 . S
H74 C79 0.950 . S
H75 C80 0.949 . S
H76 C82 0.950 . S
H77 C83 0.950 . S
H78 C84 0.949 . S
C79 H74 0.950 . S
C79 C81 1.327 . S
C79 C85 1.429 1_565 S
C80 C72 1.574 . S
C80 H75 0.949 . S
C80 C86 1.368 . S
C81 C65 1.349 1_565 S
C81 H73 0.950 . S
C81 C79 1.327 . S
C82 C70 1.349 . S
C82 H76 0.950 . S
C82 C83 1.327 . S
C83 H77 0.950 . S
C83 C82 1.327 . S
C83 C87 1.429 . S
C84 C67 1.574 . S
C84 H78 0.949 . S
C84 C88 1.368 1_565 S
C85 C66 1.429 . S
C85 C79 1.429 1_545 S
C85 C86 1.523 . S
C86 C67 1.368 1_545 S
C86 C80 1.368 . S
C86 C85 1.523 . S
C87 C71 1.429 1_545 S
C87 C83 1.429 . S
C87 C88 1.523 . S
C88 C72 1.368 . S
C88 C84 1.368 1_545 S
C88 C87 1.523 . S
H89 C64 0.950 . S
H90 C66 0.950 . S
H91 C67 0.949 . S
H92 C69 0.950 . S
H93 C71 0.950 . S
C94 C95 1.349 1_655 S
C94 C96 1.327 . S
C94 H119 0.950 . S
C95 C94 1.349 1_455 S
C95 C111 1.349 . S
C96 C94 1.327 . S
C96 C115 1.429 1_655 S
C96 H120 0.950 . S
C97 C114 1.574 . S
C97 C116 1.368 . S
C97 H121 0.949 . S
H98 C102 0.949 . S
C99 C100 1.349 . S
C99 C101 1.327 . S
C99 H122 0.950 . S
C100 C99 1.349 . S
C100 C112 1.349 1_455 S
C101 C99 1.327 . S
C101 C117 1.429 . S
C101 H123 0.950 . S
C102 H98 0.949 . S
C102 C110 1.574 . S
C102 C118 1.368 1_655 S
H103 C111 0.950 . S
H104 C109 0.950 . S
H105 C110 0.949 . S
H106 C112 0.950 . S
H107 C113 0.950 . S
H108 C114 0.949 . S
C109 H104 0.950 . S
C109 C111 1.327 . S
C109 C115 1.429 . S
C110 C102 1.574 . S
C110 H105 0.949 . S
C110 C116 1.368 1_655 S
C111 C95 1.349 . S
C111 H103 0.950 . S
C111 C109 1.327 . S
C112 C100 1.349 1_655 S
C112 H106 0.950 . S
C112 C113 1.327 . S
C113 H107 0.950 . S
C113 C112 1.327 . S
C113 C117 1.429 1_655 S
C114 C97 1.574 . S
C114 H108 0.949 . S
C114 C118 1.368 . S
C115 C96 1.429 1_455 S
C115 C109 1.429 . S
C115 C116 1.523 . S
C116 C97 1.368 . S
C116 C110 1.368 1_455 S
C116 C115 1.523 . S
C117 C101 1.429 . S
C117 C113 1.429 1_455 S
C117 C118 1.523 . S
C118 C102 1.368 1_455 S
C118 C114 1.368 . S
C118 C117 1.523 . S
H119 C94 0.950 . S
H120 C96 0.950 . S
H121 C97 0.949 . S
H122 C99 0.950 . S
H123 C101 0.950 . S
C124 C125 1.349 . S
C124 C126 1.327 . S
C124 H149 0.950 . S
C125 C124 1.349 . S
C125 C141 1.349 1_545 S
C126 C124 1.327 . S
C126 C145 1.429 . S
C126 H150 0.950 . S
C127 C144 1.574 . S
C127 C146 1.368 1_565 S
C127 H151 0.949 . S
H128 C132 0.949 . S
C129 C130 1.349 1_565 S
C129 C131 1.327 . S
C129 H152 0.950 . S
C130 C129 1.349 1_545 S
C130 C142 1.349 . S
C131 C129 1.327 . S
C131 C147 1.429 1_565 S
C131 H153 0.950 . S
C132 H128 0.949 . S
C132 C140 1.574 . S
C132 C148 1.368 . S
H133 C141 0.950 . S
H134 C139 0.950 . S
H135 C140 0.949 . S
H136 C142 0.950 . S
H137 C143 0.950 . S
H138 C144 0.949 . S
C139 H134 0.950 . S
C139 C141 1.327 . S
C139 C145 1.429 1_565 S
C140 C132 1.574 . S
C140 H135 0.949 . S
C140 C146 1.368 . S
C141 C125 1.349 1_565 S
C141 H133 0.950 . S
C141 C139 1.327 . S
C142 C130 1.349 . S
C142 H136 0.950 . S
C142 C143 1.327 . S
C143 H137 0.950 . S
C143 C142 1.327 . S
C143 C147 1.429 . S
C144 C127 1.574 . S
C144 H138 0.949 . S
C144 C148 1.368 1_565 S
C145 C126 1.429 . S
C145 C139 1.429 1_545 S
C145 C146 1.523 . S
C146 C127 1.368 1_545 S
C146 C140 1.368 . S
C146 C145 1.523 . S
C147 C131 1.429 1_545 S
C147 C143 1.429 . S
C147 C148 1.523 . S
C148 C132 1.368 . S
C148 C144 1.368 1_545 S
C148 C147 1.523 . S
H149 C124 0.950 . S
H150 C126 0.950 . S
H151 C127 0.949 . S
H152 C129 0.950 . S
H153 C131 0.950 . S
C154 C155 1.349 1_655 S
C154 C156 1.327 . S
C154 H179 0.950 . S
C155 C154 1.349 1_455 S
C155 C171 1.349 . S
C156 C154 1.327 . S
C156 C175 1.429 1_655 S
C156 H180 0.950 . S
C157 C174 1.574 . S
C157 C176 1.368 . S
C157 H181 0.949 . S
H158 C162 0.949 . S
C159 C160 1.349 . S
C159 C161 1.327 . S
C159 H182 0.950 . S
C160 C159 1.349 . S
C160 C172 1.349 1_455 S
C161 C159 1.327 . S
C161 C177 1.429 . S
C161 H183 0.950 . S
C162 H158 0.949 . S
C162 C170 1.574 . S
C162 C178 1.368 1_655 S
H163 C171 0.950 . S
H164 C169 0.950 . S
H165 C170 0.949 . S
H166 C172 0.950 . S
H167 C173 0.950 . S
H168 C174 0.949 . S
C169 H164 0.950 . S
C169 C171 1.327 . S
C169 C175 1.429 . S
C170 C162 1.574 . S
C170 H165 0.949 . S
C170 C176 1.368 1_655 S
C171 C155 1.349 . S
C171 H163 0.950 . S
C171 C169 1.327 . S
C172 C160 1.349 1_655 S
C172 H166 0.950 . S
C172 C173 1.327 . S
C173 H167 0.950 . S
C173 C172 1.327 . S
C173 C177 1.429 1_655 S
C174 C157 1.574 . S
C174 H168 0.949 . S
C174 C178 1.368 . S
C175 C156 1.429 1_455 S
C175 C169 1.429 . S
C175 C176 1.523 . S
C176 C157 1.368 . S
C176 C170 1.368 1_455 S
C176 C175 1.523 . S
C177 C161 1.429 . S
C177 C173 1.429 1_455 S
C177 C178 1.523 . S
C178 C162 1.368 1_455 S
C178 C174 1.368 . S
C178 C177 1.523 . S
H179 C154 0.950 . S
H180 C156 0.950 . S
H181 C157 0.949 . S
H182 C159 0.950 . S
H183 C161 0.950 . S
C184 C185 1.349 1_565 S
C184 C186 1.327 . S
C184 H209 0.950 . S
C185 C184 1.349 1_545 S
C185 C201 1.349 . S
C186 C184 1.327 . S
C186 C205 1.429 1_565 S
C186 H210 0.950 . S
C187 C204 1.574 . S
C187 C206 1.368 . S
C187 H211 0.949 . S
H188 C192 0.949 . S
C189 C190 1.349 . S
C189 C191 1.327 . S
C189 H212 0.950 . S
C190 C189 1.349 . S
C190 C202 1.349 1_545 S
C191 C189 1.327 . S
C191 C207 1.429 . S
C191 H213 0.950 . S
C192 H188 0.949 . S
C192 C200 1.574 . S
C192 C208 1.368 1_565 S
H193 C201 0.950 . S
H194 C199 0.950 . S
H195 C200 0.949 . S
H196 C202 0.950 . S
H197 C203 0.950 . S
H198 C204 0.949 . S
C199 H194 0.950 . S
C199 C201 1.327 . S
C199 C205 1.429 . S
C200 C192 1.574 . S
C200 H195 0.949 . S
C200 C206 1.368 1_565 S
C201 C185 1.349 . S
C201 H193 0.950 . S
C201 C199 1.327 . S
C202 C190 1.349 1_565 S
C202 H196 0.950 . S
C202 C203 1.327 . S
C203 H197 0.950 . S
C203 C202 1.327 . S
C203 C207 1.429 1_565 S
C204 C187 1.574 . S
C204 H198 0.949 . S
C204 C208 1.368 . S
C205 C186 1.429 1_545 S
C205 C199 1.429 . S
C205 C206 1.523 . S
C206 C187 1.368 . S
C206 C200 1.368 1_545 S
C206 C205 1.523 . S
C207 C191 1.429 . S
C207 C203 1.429 1_545 S
C207 C208 1.523 . S
C208 C192 1.368 1_545 S
C208 C204 1.368 . S
C208 C207 1.523 . S
H209 C184 0.950 . S
H210 C186 0.950 . S
H211 C187 0.949 . S
H212 C189 0.950 . S
H213 C191 0.950 . S
C214 C215 1.349 1_655 S
C214 C216 1.327 . S
C214 H239 0.950 . S
C215 C214 1.349 1_455 S
C215 C231 1.349 . S
C216 C214 1.327 . S
C216 C235 1.429 1_655 S
C216 H240 0.950 . S
C217 C234 1.574 . S
C217 C236 1.368 . S
C217 H241 0.949 . S
H218 C222 0.949 1_655 S
C219 C220 1.349 . S
C219 C221 1.327 . S
C219 H242 0.950 . S
C220 C219 1.349 . S
C220 C232 1.349 . S
C221 C219 1.327 . S
C221 C237 1.429 . S
C221 H243 0.950 . S
C222 H218 0.949 1_455 S
C222 C230 1.574 . S
C222 C238 1.368 . S
H223 C231 0.950 . S
H224 C229 0.950 . S
H225 C230 0.949 1_655 S
H226 C232 0.950 1_655 S
H227 C233 0.950 1_655 S
H228 C234 0.949 . S
C229 H224 0.950 . S
C229 C231 1.327 . S
C229 C235 1.429 . S
C230 C222 1.574 . S
C230 H225 0.949 1_455 S
C230 C236 1.368 . S
C231 C215 1.349 . S
C231 H223 0.950 . S
C231 C229 1.327 . S
C232 C220 1.349 . S
C232 H226 0.950 1_455 S
C232 C233 1.327 . S
C233 H227 0.950 1_455 S
C233 C232 1.327 . S
C233 C237 1.429 . S
C234 C217 1.574 . S
C234 H228 0.949 . S
C234 C238 1.368 . S
C235 C216 1.429 1_455 S
C235 C229 1.429 . S
C235 C236 1.523 . S
C236 C217 1.368 . S
C236 C230 1.368 . S
C236 C235 1.523 . S
C237 C221 1.429 . S
C237 C233 1.429 . S
C237 C238 1.523 . S
C238 C222 1.368 . S
C238 C234 1.368 . S
C238 C237 1.523 . S
H239 C214 0.950 . S
H240 C216 0.950 . S
H241 C217 0.949 . S
H242 C219 0.950 . S
H243 C221 0.950 . S
C244 C245 1.349 . S
C244 C246 1.327 . S
C244 H269 0.950 . S
C245 C244 1.349 . S
C245 C261 1.349 1_545 S
C246 C244 1.327 . S
C246 C265 1.429 . S
C246 H270 0.950 . S
C247 C264 1.574 . S
C247 C266 1.368 1_565 S
C247 H271 0.949 . S
H248 C252 0.949 . S
C249 C250 1.349 1_565 S
C249 C251 1.327 . S
C249 H272 0.950 . S
C250 C249 1.349 1_545 S
C250 C262 1.349 . S
C251 C249 1.327 . S
C251 C267 1.429 1_565 S
C251 H273 0.950 . S
C252 H248 0.949 . S
C252 C260 1.574 . S
C252 C268 1.368 . S
H253 C261 0.950 . S
H254 C259 0.950 . S
H255 C260 0.949 . S
H256 C262 0.950 . S
H257 C263 0.950 . S
H258 C264 0.949 . S
C259 H254 0.950 . S
C259 C261 1.327 . S
C259 C265 1.429 1_565 S
C260 C252 1.574 . S
C260 H255 0.949 . S
C260 C266 1.368 . S
C261 C245 1.349 1_565 S
C261 H253 0.950 . S
C261 C259 1.327 . S
C262 C250 1.349 . S
C262 H256 0.950 . S
C262 C263 1.327 . S
C263 H257 0.950 . S
C263 C262 1.327 . S
C263 C267 1.429 . S
C264 C247 1.574 . S
C264 H258 0.949 . S
C264 C268 1.368 1_565 S
C265 C246 1.429 . S
C265 C259 1.429 1_545 S
C265 C266 1.523 . S
C266 C247 1.368 1_545 S
C266 C260 1.368 . S
C266 C265 1.523 . S
C267 C251 1.429 1_545 S
C267 C263 1.429 . S
C267 C268 1.523 . S
C268 C252 1.368 . S
C268 C264 1.368 1_545 S
C268 C267 1.523 . S
H269 C244 0.950 . S
H270 C246 0.950 . S
H271 C247 0.949 . S
H272 C249 0.950 . S
H273 C251 0.950 . S
C274 C275 1.349 . S
C274 C276 1.327 . S
C274 H299 0.950 . S
C275 C274 1.349 . S
C275 C291 1.349 . S
C276 C274 1.327 . S
C276 C295 1.429 . S
C276 H300 0.950 . S
C277 C294 1.574 . S
C277 C296 1.368 . S
C277 H301 0.949 1_455 S
H278 C282 0.949 . S
C279 C280 1.349 . S
C279 C281 1.327 . S
C279 H302 0.950 1_455 S
C280 C279 1.349 . S
C280 C292 1.349 . S
C281 C279 1.327 . S
C281 C297 1.429 . S
C281 H303 0.950 1_455 S
C282 H278 0.949 . S
C282 C290 1.574 . S
C282 C298 1.368 . S
H283 C291 0.950 1_655 S
H284 C289 0.950 1_655 S
H285 C290 0.949 . S
H286 C292 0.950 . S
H287 C293 0.950 . S
H288 C294 0.949 1_655 S
C289 H284 0.950 1_455 S
C289 C291 1.327 . S
C289 C295 1.429 . S
C290 C282 1.574 . S
C290 H285 0.949 . S
C290 C296 1.368 . S
C291 C275 1.349 . S
C291 H283 0.950 1_455 S
C291 C289 1.327 . S
C292 C280 1.349 . S
C292 H286 0.950 . S
C292 C293 1.327 . S
C293 H287 0.950 . S
C293 C292 1.327 . S
C293 C297 1.429 . S
C294 C277 1.574 . S
C294 H288 0.949 1_455 S
C294 C298 1.368 . S
C295 C276 1.429 . S
C295 C289 1.429 . S
C295 C296 1.523 . S
C296 C277 1.368 . S
C296 C290 1.368 . S
C296 C295 1.523 . S
C297 C281 1.429 . S
C297 C293 1.429 . S
C297 C298 1.523 . S
C298 C282 1.368 . S
C298 C294 1.368 . S
C298 C297 1.523 . S
H299 C274 0.950 . S
H300 C276 0.950 . S
H301 C277 0.949 1_655 S
H302 C279 0.950 1_655 S
H303 C281 0.950 1_655 S
C70 C41 1.291 . S
C65 C7 1.523 . S
C100 C61 1.531 . S
C95 C34 1.505 . S
C130 C40 1.502 . S
C125 C14 1.512 . S
C160 C62 1.554 . S
C155 C26 1.511 . S
C190 C54 1.492 . S
C185 C8 1.504 . S
C220 C47 1.538 . S
C215 C32 1.516 . S
C250 C55 1.289 . S
C245 C16 1.519 . S
C275 C25 1.512 . S
C280 C48 1.561 . S
