# Generated by pormake.
# Topology llk, (3,12)-cn, num edge types: 1
# Building blocks:
#     Node 0, Type 0, BuildingBlock: VETTIZ_charged_linker_0, # of connection points: 3
#     Node 1, Type 0, BuildingBlock: VETTIZ_charged_linker_0, # of connection points: 3
#     Node 2, Type 0, BuildingBlock: VETTIZ_charged_linker_0, # of connection points: 3
#     Node 3, Type 0, BuildingBlock: VETTIZ_charged_linker_0, # of connection points: 3
#     Node 4, Type 0, BuildingBlock: VETTIZ_charged_linker_0, # of connection points: 3
#     Node 5, Type 0, BuildingBlock: VETTIZ_charged_linker_0, # of connection points: 3
#     Node 6, Type 0, BuildingBlock: VETTIZ_charged_linker_0, # of connection points: 3
#     Node 7, Type 0, BuildingBlock: VETTIZ_charged_linker_0, # of connection points: 3
#     Node 8, Type 0, BuildingBlock: VETTIZ_charged_linker_0, # of connection points: 3
#     Node 9, Type 0, BuildingBlock: VETTIZ_charged_linker_0, # of connection points: 3
#     Node 10, Type 0, BuildingBlock: VETTIZ_charged_linker_0, # of connection points: 3
#     Node 11, Type 0, BuildingBlock: VETTIZ_charged_linker_0, # of connection points: 3
#     Node 12, Type 0, BuildingBlock: VETTIZ_charged_linker_0, # of connection points: 3
#     Node 13, Type 0, BuildingBlock: VETTIZ_charged_linker_0, # of connection points: 3
#     Node 14, Type 0, BuildingBlock: VETTIZ_charged_linker_0, # of connection points: 3
#     Node 15, Type 0, BuildingBlock: VETTIZ_charged_linker_0, # of connection points: 3
#     Node 16, Type 0, BuildingBlock: VETTIZ_charged_linker_0, # of connection points: 3
#     Node 17, Type 0, BuildingBlock: VETTIZ_charged_linker_0, # of connection points: 3
#     Node 18, Type 0, BuildingBlock: VETTIZ_charged_linker_0, # of connection points: 3
#     Node 19, Type 0, BuildingBlock: VETTIZ_charged_linker_0, # of connection points: 3
#     Node 20, Type 0, BuildingBlock: VETTIZ_charged_linker_0, # of connection points: 3
#     Node 21, Type 0, BuildingBlock: VETTIZ_charged_linker_0, # of connection points: 3
#     Node 22, Type 0, BuildingBlock: VETTIZ_charged_linker_0, # of connection points: 3
#     Node 23, Type 0, BuildingBlock: VETTIZ_charged_linker_0, # of connection points: 3
#     Node 24, Type 1, BuildingBlock: QEWDON_clean_sbu_0, # of connection points: 12
#     Node 25, Type 1, BuildingBlock: QEWDON_clean_sbu_0, # of connection points: 12
#     Node 26, Type 1, BuildingBlock: QEWDON_clean_sbu_0, # of connection points: 12
#     Node 27, Type 1, BuildingBlock: QEWDON_clean_sbu_0, # of connection points: 12
#     Node 28, Type 1, BuildingBlock: QEWDON_clean_sbu_0, # of connection points: 12
#     Node 29, Type 1, BuildingBlock: QEWDON_clean_sbu_0, # of connection points: 12
#     Edge 30, Type (0, 1), BuildingBlock: OJICUG_clean_linker_0, # of connection points: 2
#     Edge 31, Type (0, 1), BuildingBlock: OJICUG_clean_linker_0, # of connection points: 2
#     Edge 32, Type (0, 1), BuildingBlock: OJICUG_clean_linker_0, # of connection points: 2
#     Edge 33, Type (0, 1), BuildingBlock: OJICUG_clean_linker_0, # of connection points: 2
#     Edge 34, Type (0, 1), BuildingBlock: OJICUG_clean_linker_0, # of connection points: 2
#     Edge 35, Type (0, 1), BuildingBlock: OJICUG_clean_linker_0, # of connection points: 2
#     Edge 36, Type (0, 1), BuildingBlock: OJICUG_clean_linker_0, # of connection points: 2
#     Edge 37, Type (0, 1), BuildingBlock: OJICUG_clean_linker_0, # of connection points: 2
#     Edge 38, Type (0, 1), BuildingBlock: OJICUG_clean_linker_0, # of connection points: 2
#     Edge 39, Type (0, 1), BuildingBlock: OJICUG_clean_linker_0, # of connection points: 2
#     Edge 40, Type (0, 1), BuildingBlock: OJICUG_clean_linker_0, # of connection points: 2
#     Edge 41, Type (0, 1), BuildingBlock: OJICUG_clean_linker_0, # of connection points: 2
#     Edge 42, Type (0, 1), BuildingBlock: OJICUG_clean_linker_0, # of connection points: 2
#     Edge 43, Type (0, 1), BuildingBlock: OJICUG_clean_linker_0, # of connection points: 2
#     Edge 44, Type (0, 1), BuildingBlock: OJICUG_clean_linker_0, # of connection points: 2
#     Edge 45, Type (0, 1), BuildingBlock: OJICUG_clean_linker_0, # of connection points: 2
#     Edge 46, Type (0, 1), BuildingBlock: OJICUG_clean_linker_0, # of connection points: 2
#     Edge 47, Type (0, 1), BuildingBlock: OJICUG_clean_linker_0, # of connection points: 2
#     Edge 48, Type (0, 1), BuildingBlock: OJICUG_clean_linker_0, # of connection points: 2
#     Edge 49, Type (0, 1), BuildingBlock: OJICUG_clean_linker_0, # of connection points: 2
#     Edge 50, Type (0, 1), BuildingBlock: OJICUG_clean_linker_0, # of connection points: 2
#     Edge 51, Type (0, 1), BuildingBlock: OJICUG_clean_linker_0, # of connection points: 2
#     Edge 52, Type (0, 1), BuildingBlock: OJICUG_clean_linker_0, # of connection points: 2
#     Edge 53, Type (0, 1), BuildingBlock: OJICUG_clean_linker_0, # of connection points: 2
#     Edge 54, Type (0, 1), BuildingBlock: OJICUG_clean_linker_0, # of connection points: 2
#     Edge 55, Type (0, 1), BuildingBlock: OJICUG_clean_linker_0, # of connection points: 2
#     Edge 56, Type (0, 1), BuildingBlock: OJICUG_clean_linker_0, # of connection points: 2
#     Edge 57, Type (0, 1), BuildingBlock: OJICUG_clean_linker_0, # of connection points: 2
#     Edge 58, Type (0, 1), BuildingBlock: OJICUG_clean_linker_0, # of connection points: 2
#     Edge 59, Type (0, 1), BuildingBlock: OJICUG_clean_linker_0, # of connection points: 2
#     Edge 60, Type (0, 1), BuildingBlock: OJICUG_clean_linker_0, # of connection points: 2
#     Edge 61, Type (0, 1), BuildingBlock: OJICUG_clean_linker_0, # of connection points: 2
#     Edge 62, Type (0, 1), BuildingBlock: OJICUG_clean_linker_0, # of connection points: 2
#     Edge 63, Type (0, 1), BuildingBlock: OJICUG_clean_linker_0, # of connection points: 2
#     Edge 64, Type (0, 1), BuildingBlock: OJICUG_clean_linker_0, # of connection points: 2
#     Edge 65, Type (0, 1), BuildingBlock: OJICUG_clean_linker_0, # of connection points: 2
#     Edge 66, Type (0, 1), BuildingBlock: OJICUG_clean_linker_0, # of connection points: 2
#     Edge 67, Type (0, 1), BuildingBlock: OJICUG_clean_linker_0, # of connection points: 2
#     Edge 68, Type (0, 1), BuildingBlock: OJICUG_clean_linker_0, # of connection points: 2
#     Edge 69, Type (0, 1), BuildingBlock: OJICUG_clean_linker_0, # of connection points: 2
#     Edge 70, Type (0, 1), BuildingBlock: OJICUG_clean_linker_0, # of connection points: 2
#     Edge 71, Type (0, 1), BuildingBlock: OJICUG_clean_linker_0, # of connection points: 2
#     Edge 72, Type (0, 1), BuildingBlock: OJICUG_clean_linker_0, # of connection points: 2
#     Edge 73, Type (0, 1), BuildingBlock: OJICUG_clean_linker_0, # of connection points: 2
#     Edge 74, Type (0, 1), BuildingBlock: OJICUG_clean_linker_0, # of connection points: 2
#     Edge 75, Type (0, 1), BuildingBlock: OJICUG_clean_linker_0, # of connection points: 2
#     Edge 76, Type (0, 1), BuildingBlock: OJICUG_clean_linker_0, # of connection points: 2
#     Edge 77, Type (0, 1), BuildingBlock: OJICUG_clean_linker_0, # of connection points: 2
#     Edge 78, Type (0, 1), BuildingBlock: OJICUG_clean_linker_0, # of connection points: 2
#     Edge 79, Type (0, 1), BuildingBlock: OJICUG_clean_linker_0, # of connection points: 2
#     Edge 80, Type (0, 1), BuildingBlock: OJICUG_clean_linker_0, # of connection points: 2
#     Edge 81, Type (0, 1), BuildingBlock: OJICUG_clean_linker_0, # of connection points: 2
#     Edge 82, Type (0, 1), BuildingBlock: OJICUG_clean_linker_0, # of connection points: 2
#     Edge 83, Type (0, 1), BuildingBlock: OJICUG_clean_linker_0, # of connection points: 2
#     Edge 84, Type (0, 1), BuildingBlock: OJICUG_clean_linker_0, # of connection points: 2
#     Edge 85, Type (0, 1), BuildingBlock: OJICUG_clean_linker_0, # of connection points: 2
#     Edge 86, Type (0, 1), BuildingBlock: OJICUG_clean_linker_0, # of connection points: 2
#     Edge 87, Type (0, 1), BuildingBlock: OJICUG_clean_linker_0, # of connection points: 2
#     Edge 88, Type (0, 1), BuildingBlock: OJICUG_clean_linker_0, # of connection points: 2
#     Edge 89, Type (0, 1), BuildingBlock: OJICUG_clean_linker_0, # of connection points: 2
#     Edge 90, Type (0, 1), BuildingBlock: OJICUG_clean_linker_0, # of connection points: 2
#     Edge 91, Type (0, 1), BuildingBlock: OJICUG_clean_linker_0, # of connection points: 2
#     Edge 92, Type (0, 1), BuildingBlock: OJICUG_clean_linker_0, # of connection points: 2
#     Edge 93, Type (0, 1), BuildingBlock: OJICUG_clean_linker_0, # of connection points: 2
#     Edge 94, Type (0, 1), BuildingBlock: OJICUG_clean_linker_0, # of connection points: 2
#     Edge 95, Type (0, 1), BuildingBlock: OJICUG_clean_linker_0, # of connection points: 2
#     Edge 96, Type (0, 1), BuildingBlock: OJICUG_clean_linker_0, # of connection points: 2
#     Edge 97, Type (0, 1), BuildingBlock: OJICUG_clean_linker_0, # of connection points: 2
#     Edge 98, Type (0, 1), BuildingBlock: OJICUG_clean_linker_0, # of connection points: 2
#     Edge 99, Type (0, 1), BuildingBlock: OJICUG_clean_linker_0, # of connection points: 2
#     Edge 100, Type (0, 1), BuildingBlock: OJICUG_clean_linker_0, # of connection points: 2
#     Edge 101, Type (0, 1), BuildingBlock: OJICUG_clean_linker_0, # of connection points: 2
# Relax obj value: 0.133
# Max RMSD: 0.168
# Mean RMSD: 0.151
data_MOF--net-llk--node1-QEWDON_clean_sbu_0--node2-VETTIZ_charged_linker_0--edge1-OJICUG_clean_linker_0
_symmetry_space_group_name_H-M    P1
_symmetry_Int_Tables_number       1
_symmetry_cell_setting            triclinic
loop_
_symmetry_equiv_pos_as_xyz
'x, y, z'
_cell_length_a     43.592935
_cell_length_b     45.258629
_cell_length_c     44.41826
_cell_angle_alpha  89.991804
_cell_angle_beta   90.100684
_cell_angle_gamma 89.755397
loop_
_atom_site_label
_atom_site_type_symbol
_atom_site_fract_x
_atom_site_fract_y
_atom_site_fract_z
_atom_type_partial_charge
C0 C 0.05232 0.32209 0.23533 0.0
C1 C 0.03891 0.34988 0.22783 0.0
C2 C 0.01491 0.36068 0.24606 0.0
C3 C 0.02192 0.32048 0.28111 0.0
C4 C 0.04305 0.30745 0.26209 0.0
C5 C 0.05438 0.27813 0.27512 0.0
H6 H 0.06925 0.19571 0.4031 0.0
C7 C 0.02067 0.30365 0.30935 0.0
C8 C 0.03795 0.27752 0.30573 0.0
H9 H 0.0487 0.15599 0.31721 0.0
H10 H 0.04285 0.20539 0.29518 0.0
H11 H 0.09847 0.26364 0.38626 0.0
H12 H 0.01259 0.21909 0.39732 0.0
H13 H 0.00428 0.2551 0.40781 0.0
H14 H 0.0326 0.2345 0.42887 0.0
H15 H 0.08351 0.25153 0.42179 0.0
H16 H 0.07442 0.28762 0.40673 0.0
C17 C 0.08944 0.27878 0.27926 0.0
C18 C 0.04474 0.25273 0.25414 0.0
C19 C 0.98007 0.3558 0.40285 0.0
C20 C 0.98545 0.3511 0.43371 0.0
C21 C 0.00406 0.32738 0.44296 0.0
C22 C 0.01717 0.30848 0.42174 0.0
C23 C 0.01132 0.31314 0.39095 0.0
C24 C 0.99366 0.33684 0.38185 0.0
C25 C 0.99275 0.34002 0.34809 0.0
C26 C 0.01173 0.31324 0.33854 0.0
C27 C 0.02176 0.29752 0.3638 0.0
C28 C 0.00776 0.36998 0.33929 0.0
C29 C 0.95901 0.33703 0.33772 0.0
C30 C 0.06649 0.19704 0.3789 0.0
C31 C 0.0608 0.17154 0.36197 0.0
C32 C 0.05411 0.17508 0.33087 0.0
C33 C 0.05156 0.2036 0.31777 0.0
C34 C 0.0556 0.22882 0.33581 0.0
C35 C 0.061 0.22483 0.36633 0.0
C36 C 0.04983 0.25045 0.38469 0.0
C37 C 0.03773 0.2706 0.36034 0.0
C38 C 0.04359 0.2593 0.33153 0.0
C39 C 0.07784 0.26407 0.40099 0.0
C40 C 0.0237 0.23948 0.40597 0.0
H41 H 0.98818 0.35567 0.28533 0.0
H42 H 0.07014 0.31261 0.22137 0.0
H43 H 0.01998 0.24757 0.25682 0.0
H44 H 0.0586 0.23262 0.25841 0.0
H45 H 0.04883 0.25863 0.2302 0.0
H46 H 0.09632 0.29785 0.29351 0.0
H47 H 0.10116 0.28069 0.25716 0.0
H48 H 0.09759 0.25819 0.29036 0.0
H49 H 0.96692 0.37473 0.39516 0.0
H50 H 0.00894 0.32385 0.46662 0.0
H51 H 0.03152 0.2911 0.43021 0.0
H52 H 0.02829 0.3668 0.32491 0.0
H53 H 0.01604 0.38261 0.35915 0.0
H54 H 0.99132 0.38473 0.32739 0.0
H55 H 0.9476 0.31846 0.34964 0.0
H56 H 0.95697 0.33199 0.31345 0.0
H57 H 0.94586 0.35755 0.34263 0.0
H58 H 0.00287 0.38087 0.24017 0.0
C59 C 0.0064 0.34618 0.2724 0.0
C60 C 0.82033 0.08654 0.30929 0.0
C61 C 0.81626 0.08723 0.34087 0.0
C62 C 0.78748 0.09591 0.35238 0.0
C63 C 0.76696 0.09999 0.30179 0.0
C64 C 0.79546 0.09309 0.29022 0.0
C65 C 0.79516 0.09222 0.25619 0.0
H66 H 0.71011 0.10283 0.12803 0.0
C67 C 0.74538 0.1036 0.27642 0.0
C68 C 0.76184 0.10001 0.24945 0.0
H69 H 0.80488 0.07557 0.13449 0.0
H70 H 0.80446 0.08616 0.18833 0.0
H71 H 0.6924 0.06352 0.17132 0.0
H72 H 0.70689 0.15632 0.17987 0.0
H73 H 0.67252 0.14788 0.19892 0.0
H74 H 0.67619 0.13903 0.1595 0.0
H75 H 0.66118 0.08887 0.16713 0.0
H76 H 0.67058 0.07224 0.20299 0.0
C77 C 0.8033 0.06043 0.24606 0.0
C78 C 0.81739 0.11596 0.24428 0.0
C79 C 0.63159 0.09904 0.29595 0.0
C80 C 0.60694 0.09455 0.27613 0.0
C81 C 0.61025 0.10093 0.24546 0.0
C82 C 0.63887 0.10958 0.23429 0.0
C83 C 0.66444 0.11011 0.25381 0.0
C84 C 0.66031 0.10616 0.28432 0.0
C85 C 0.69017 0.10546 0.30144 0.0
C86 C 0.71305 0.10745 0.27578 0.0
C87 C 0.69779 0.11014 0.24813 0.0
C88 C 0.69243 0.07548 0.3183 0.0
C89 C 0.69143 0.13294 0.32226 0.0
C90 C 0.73135 0.1005 0.14054 0.0
C91 C 0.75774 0.08912 0.1268 0.0
C92 C 0.78429 0.08467 0.14455 0.0
C93 C 0.78384 0.09046 0.17579 0.0
C94 C 0.75623 0.09965 0.18945 0.0
C95 C 0.73072 0.10453 0.17155 0.0
C96 C 0.70194 0.10877 0.18925 0.0
C97 C 0.71442 0.10786 0.22094 0.0
C98 C 0.74625 0.10256 0.22131 0.0
C99 C 0.68024 0.08225 0.18236 0.0
C100 C 0.68839 0.13953 0.18147 0.0
H101 H 0.74158 0.10841 0.34324 0.0
H102 H 0.84227 0.08064 0.29957 0.0
H103 H 0.81396 0.13715 0.25652 0.0
H104 H 0.81375 0.121 0.22024 0.0
H105 H 0.84163 0.10894 0.24755 0.0
H106 H 0.79276 0.04387 0.26136 0.0
H107 H 0.82852 0.05677 0.24634 0.0
H108 H 0.79437 0.05506 0.22349 0.0
H109 H 0.62921 0.094 0.31969 0.0
H110 H 0.59127 0.09766 0.23005 0.0
H111 H 0.64034 0.11368 0.2106 0.0
H112 H 0.68524 0.05705 0.30332 0.0
H113 H 0.67733 0.07531 0.33841 0.0
H114 H 0.7158 0.06981 0.32576 0.0
H115 H 0.67583 0.15084 0.31429 0.0
H116 H 0.71451 0.14312 0.32264 0.0
H117 H 0.68457 0.12733 0.34564 0.0
H118 H 0.78345 0.09656 0.37642 0.0
C119 C 0.76302 0.10254 0.33305 0.0
C120 C 0.02254 0.85634 0.28974 0.0
C121 C 0.03086 0.87129 0.3165 0.0
C122 C 0.04968 0.85674 0.33765 0.0
C123 C 0.04979 0.81276 0.30725 0.0
C124 C 0.03275 0.82701 0.28539 0.0
C125 C 0.02804 0.80734 0.25813 0.0
H126 H 0.03743 0.6666 0.20294 0.0
C127 C 0.05593 0.78245 0.29749 0.0
C128 C 0.04397 0.77885 0.26828 0.0
H129 H 0.00636 0.74278 0.15331 0.0
H130 H 0.01669 0.77434 0.19707 0.0
H131 H 0.09344 0.69085 0.21919 0.0
H132 H 0.01219 0.68559 0.27349 0.0
H133 H 0.04385 0.66892 0.29187 0.0
H134 H 0.03233 0.65532 0.25616 0.0
H135 H 0.08794 0.66052 0.24438 0.0
H136 H 0.10709 0.69402 0.25623 0.0
C137 C 0.04442 0.82152 0.23098 0.0
C138 C 0.99331 0.80307 0.25317 0.0
C139 C 0.083 0.7049 0.3753 0.0
C140 C 0.08702 0.67418 0.37227 0.0
C141 C 0.09429 0.66253 0.34366 0.0
C142 C 0.09282 0.68028 0.31814 0.0
C143 C 0.0831 0.70959 0.3211 0.0
C144 C 0.08126 0.72227 0.34921 0.0
C145 C 0.07476 0.75487 0.34727 0.0
C146 C 0.0686 0.75822 0.31351 0.0
C147 C 0.0724 0.73122 0.29883 0.0
C148 C 0.10408 0.7715 0.35758 0.0
C149 C 0.04597 0.76184 0.36644 0.0
C150 C 0.03183 0.68997 0.20186 0.0
C151 C 0.02016 0.70218 0.17546 0.0
C152 C 0.01468 0.73289 0.17399 0.0
C153 C 0.02101 0.75107 0.19918 0.0
C154 C 0.03377 0.7383 0.22541 0.0
C155 C 0.03925 0.7082 0.22588 0.0
C156 C 0.05631 0.69802 0.25306 0.0
C157 C 0.05982 0.72691 0.2698 0.0
C158 C 0.04588 0.75055 0.25416 0.0
C159 C 0.08773 0.68503 0.24287 0.0
C160 C 0.0353 0.67577 0.26967 0.0
H161 H 0.07333 0.8181 0.35006 0.0
H162 H 0.00858 0.86717 0.2728 0.0
H163 H 0.98219 0.7956 0.27435 0.0
H164 H 0.98825 0.7863 0.2359 0.0
H165 H 0.98227 0.82414 0.24614 0.0
H166 H 0.06706 0.83059 0.23785 0.0
H167 H 0.03053 0.83995 0.22149 0.0
H168 H 0.0494 0.80544 0.21298 0.0
H169 H 0.07903 0.7147 0.39718 0.0
H170 H 0.09805 0.63912 0.34026 0.0
H171 H 0.0968 0.6698 0.29696 0.0
H172 H 0.12403 0.75646 0.36113 0.0
H173 H 0.10031 0.78324 0.37924 0.0
H174 H 0.1118 0.78767 0.34041 0.0
H175 H 0.02694 0.74659 0.3605 0.0
H176 H 0.03714 0.78445 0.36311 0.0
H177 H 0.05099 0.75926 0.39082 0.0
H178 H 0.05617 0.86738 0.35855 0.0
C179 C 0.05938 0.82786 0.33298 0.0
C180 C 0.27461 0.00837 0.17254 0.0
C181 C 0.30449 1.0022 0.16211 0.0
C182 C 0.32536 0.98764 0.18144 0.0
C183 C 0.28787 0.98792 0.22129 0.0
C184 C 0.26673 1.00078 0.20212 0.0
C185 C 0.23642 0.00627 0.21753 0.0
H186 H 0.15221 0.99489 0.34515 0.0
C187 C 0.27332 0.9836 0.25067 0.0
C188 C 0.24273 0.9931 0.24845 0.0
H189 H 0.12951 0.04502 0.26562 0.0
H190 H 0.1753 0.02586 0.2405 0.0
H191 H 0.18818 0.9351 0.31344 0.0
H192 H 0.20445 0.01705 0.35487 0.0
H193 H 0.24251 0.00517 0.35139 0.0
H194 H 0.21578 0.98443 0.3741 0.0
H195 H 0.18453 0.94547 0.35234 0.0
H196 H 0.22018 0.93112 0.33767 0.0
C197 C 0.21115 0.98915 0.20057 0.0
C198 C 0.23081 0.04011 0.21899 0.0
C199 C 0.33692 0.97288 0.34474 0.0
C200 C 0.32833 0.97015 0.37507 0.0
C201 C 0.29859 0.9608 0.38239 0.0
C202 C 0.27656 0.95745 0.35972 0.0
C203 C 0.28444 0.96418 0.32987 0.0
C204 C 0.3146 0.96943 0.32238 0.0
C205 C 0.31883 0.97303 0.28893 0.0
C206 C 0.28546 0.97396 0.27861 0.0
C207 C 0.2656 0.96944 0.30292 0.0
C208 C 0.33627 0.94554 0.27674 0.0
C209 C 0.33553 1.00253 0.28275 0.0
C210 C 0.15666 1.00094 0.32193 0.0
C211 C 0.13742 0.02087 0.30698 0.0
C212 C 0.14416 0.02936 0.27727 0.0
C213 C 0.17082 0.01855 0.26305 0.0
C214 C 0.19125 1.00033 0.27939 0.0
C215 C 0.18392 0.99209 0.30845 0.0
C216 C 0.20998 0.97749 0.32478 0.0
C217 C 0.2343 0.97764 0.30048 0.0
C218 C 0.22307 0.99034 0.27372 0.0
C219 C 0.2003 0.94559 0.33272 0.0
C220 C 0.2187 0.99675 0.35269 0.0
H221 H 0.3339 0.96956 0.22462 0.0
H222 H 0.25791 0.01922 0.15818 0.0
H223 H 0.25273 0.0526 0.21819 0.0
H224 H 0.22 0.04708 0.24036 0.0
H225 H 0.21644 0.0478 0.19983 0.0
H226 H 0.21851 0.96592 0.19655 0.0
H227 H 0.20632 0.99949 0.17837 0.0
H228 H 0.18948 0.98803 0.21333 0.0
H229 H 0.36018 0.97884 0.33883 0.0
H230 H 0.292 0.95775 0.40569 0.0
H231 H 0.25397 0.95091 0.36627 0.0
H232 H 0.33968 0.92822 0.29424 0.0
H233 H 0.35944 0.95148 0.26837 0.0
H234 H 0.32342 0.93457 0.25828 0.0
H235 H 0.3235 0.02114 0.29413 0.0
H236 H 0.33663 0.00794 0.25857 0.0
H237 H 0.35951 1.0017 0.29118 0.0
H238 H 0.3486 0.9829 0.17425 0.0
C239 C 0.31706 0.98023 0.21081 0.0
C240 C 0.99209 0.71689 0.85545 0.0
C241 C 0.992 0.68595 0.85983 0.0
C242 C 0.99199 0.66712 0.83476 0.0
C243 C 0.98996 0.70912 0.80132 0.0
C244 C 0.9915 0.72805 0.8257 0.0
C245 C 0.99233 0.76008 0.8155 0.0
H246 H 0.98842 0.85549 0.69549 0.0
C247 C 0.98751 0.72682 0.77365 0.0
C248 C 0.9891 0.7569 0.78134 0.0
H249 H 0.00238 0.87918 0.78872 0.0
H250 H 0.99674 0.82757 0.80328 0.0
H251 H 0.03097 0.80238 0.69521 0.0
H252 H 0.93352 0.80968 0.70729 0.0
H253 H 0.93947 0.77805 0.68519 0.0
H254 H 0.95153 0.81362 0.67125 0.0
H255 H 0.00516 0.8092 0.66446 0.0
H256 H 0.0151 0.77221 0.67609 0.0
C257 C 0.02376 0.773 0.82449 0.0
C258 C 0.96487 0.77673 0.82943 0.0
C259 C 0.97469 0.67305 0.67468 0.0
C260 C 0.97308 0.68252 0.64462 0.0
C261 C 0.97161 0.71301 0.63838 0.0
C262 C 0.97277 0.73372 0.66183 0.0
C263 C 0.97581 0.7238 0.69175 0.0
C264 C 0.9762 0.6939 0.69766 0.0
C265 C 0.98062 0.68712 0.73041 0.0
C266 C 0.98289 0.718 0.74339 0.0
C267 C 0.98019 0.73927 0.72073 0.0
C268 C 0.01118 0.66957 0.73399 0.0
C269 C 0.95155 0.67071 0.74145 0.0
C270 C 0.98962 0.84995 0.71919 0.0
C271 C 0.99554 0.87164 0.7409 0.0
C272 C 0.99795 0.8629 0.77141 0.0
C273 C 0.99479 0.83295 0.77983 0.0
C274 C 0.98953 0.81149 0.75747 0.0
C275 C 0.98679 0.82048 0.7278 0.0
C276 C 0.98209 0.79539 0.70648 0.0
C277 C 0.98277 0.76956 0.72794 0.0
C278 C 0.98711 0.77868 0.75801 0.0
C279 C 0.0095 0.79467 0.68417 0.0
C280 C 0.95014 0.79928 0.69149 0.0
H281 H 0.99023 0.66264 0.78782 0.0
H282 H 0.99226 0.73177 0.87452 0.0
H283 H 0.9434 0.76389 0.8263 0.0
H284 H 0.96087 0.79845 0.81883 0.0
H285 H 0.96837 0.78011 0.85397 0.0
H286 H 0.04251 0.75704 0.81931 0.0
H287 H 0.02458 0.7778 0.84901 0.0
H288 H 0.02941 0.79329 0.81201 0.0
H289 H 0.97674 0.64982 0.68026 0.0
H290 H 0.97041 0.72078 0.61534 0.0
H291 H 0.97221 0.75663 0.65563 0.0
H292 H 0.0274 0.67432 0.7153 0.0
H293 H 0.00711 0.64536 0.73413 0.0
H294 H 0.02403 0.67576 0.75455 0.0
H295 H 0.93059 0.67946 0.73015 0.0
H296 H 0.94705 0.6737 0.76572 0.0
H297 H 0.95302 0.64671 0.73641 0.0
H298 H 0.99185 0.64334 0.83777 0.0
C299 C 0.99086 0.67845 0.8057 0.0
C300 C 0.3332 0.9752 0.86813 0.0
C301 C 0.35877 0.9624 0.88319 0.0
C302 C 0.37086 0.93555 0.87184 0.0
C303 C 0.33981 0.94064 0.82743 0.0
C304 C 0.32412 0.96382 0.84009 0.0
C305 C 0.29912 0.97494 0.8192 0.0
H306 H 0.24069 0.9768 0.67673 0.0
C307 C 0.33027 0.93745 0.79617 0.0
C308 C 0.30509 0.95618 0.79115 0.0
H309 H 0.20583 0.02244 0.75521 0.0
H310 H 0.2452 0.99999 0.7859 0.0
H311 H 0.33365 0.97122 0.69402 0.0
H312 H 0.25673 0.91344 0.70963 0.0
H313 H 0.29217 0.90306 0.69311 0.0
H314 H 0.26563 0.92578 0.67215 0.0
H315 H 0.30073 0.98885 0.67901 0.0
H316 H 0.31251 0.9548 0.66329 0.0
C317 C 0.3045 0.00819 0.81329 0.0
C318 C 0.26769 0.96797 0.83361 0.0
C319 C 0.4139 0.91779 0.72165 0.0
C320 C 0.41383 0.9197 0.69022 0.0
C321 C 0.38602 0.91637 0.67438 0.0
C322 C 0.35815 0.91555 0.68995 0.0
C323 C 0.35842 0.91882 0.7213 0.0
C324 C 0.38583 0.91733 0.73684 0.0
C325 C 0.38143 0.91939 0.77026 0.0
C326 C 0.3469 0.9257 0.77164 0.0
C327 C 0.33409 0.92696 0.74264 0.0
C328 C 0.40068 0.94553 0.78247 0.0
C329 C 0.39086 0.8894 0.78451 0.0
C330 C 0.24173 0.98242 0.7004 0.0
C331 C 0.21975 1.00135 0.71338 0.0
C332 C 0.22197 0.00755 0.74452 0.0
C333 C 0.24494 0.99456 0.7624 0.0
C334 C 0.26646 0.97551 0.74908 0.0
C335 C 0.26485 0.96999 0.71851 0.0
C336 C 0.29011 0.94975 0.70796 0.0
C337 C 0.30651 0.9432 0.73759 0.0
C338 C 0.2925 0.95838 0.76162 0.0
C339 C 0.31036 0.96682 0.68496 0.0
C340 C 0.2755 0.92146 0.69482 0.0
H341 H 0.36958 0.90347 0.83669 0.0
H342 H 0.32153 0.99441 0.8771 0.0
H343 H 0.2688 0.94728 0.84712 0.0
H344 H 0.24963 0.96392 0.81664 0.0
H345 H 0.26021 0.98606 0.84886 0.0
H346 H 0.32899 0.01224 0.80769 0.0
H347 H 0.29872 0.02153 0.83352 0.0
H348 H 0.29106 0.01682 0.79417 0.0
H349 H 0.43528 0.91932 0.73398 0.0
H350 H 0.38559 0.91714 0.65001 0.0
H351 H 0.33738 0.9139 0.67716 0.0
H352 H 0.39439 0.96641 0.77073 0.0
H353 H 0.42559 0.94148 0.77929 0.0
H354 H 0.39745 0.94906 0.80683 0.0
H355 H 0.40451 0.87539 0.76886 0.0
H356 H 0.37043 0.87629 0.79108 0.0
H357 H 0.40583 0.89251 0.8045 0.0
H358 H 0.38955 0.92409 0.88286 0.0
C359 C 0.36059 0.92415 0.84444 0.0
C360 C 0.9827 0.20794 0.70431 0.0
C361 C 0.973 0.19592 0.67618 0.0
C362 C 0.95101 0.21193 0.65919 0.0
C363 C 0.95639 0.25329 0.69216 0.0
C364 C 0.97334 0.2369 0.71212 0.0
C365 C 0.97856 0.25461 0.74087 0.0
H366 H 0.98289 0.39491 0.80064 0.0
C367 C 0.9554 0.28377 0.70193 0.0
C368 C 0.96655 0.28531 0.73153 0.0
H369 H 0.99746 0.314 0.85011 0.0
H370 H 0.98703 0.28535 0.80445 0.0
H371 H 0.01762 0.384 0.75003 0.0
H372 H 0.92271 0.37364 0.7635 0.0
H373 H 0.92789 0.38891 0.72724 0.0
H374 H 0.94407 0.40729 0.75954 0.0
H375 H 0.99186 0.40931 0.73262 0.0
H376 H 0.00619 0.37737 0.71267 0.0
C377 C 0.013 0.25493 0.7486 0.0
C378 C 0.95875 0.24074 0.76586 0.0
C379 C 0.9724 0.35785 0.6194 0.0
C380 C 0.97861 0.38813 0.62026 0.0
C381 C 0.97219 0.4043 0.6466 0.0
C382 C 0.96265 0.38976 0.67276 0.0
C383 C 0.96008 0.35885 0.6725 0.0
C384 C 0.96302 0.34364 0.64574 0.0
C385 C 0.95789 0.31111 0.64939 0.0
C386 C 0.95382 0.30924 0.68362 0.0
C387 C 0.9568 0.33707 0.69691 0.0
C388 C 0.98691 0.29436 0.63854 0.0
C389 C 0.92884 0.30256 0.63122 0.0
C390 C 0.98385 0.37099 0.8018 0.0
C391 C 0.99125 0.35673 0.82883 0.0
C392 C 0.99178 0.32551 0.82945 0.0
C393 C 0.98558 0.30897 0.80308 0.0
C394 C 0.97827 0.32384 0.77611 0.0
C395 C 0.97744 0.35442 0.77609 0.0
C396 C 0.96954 0.36723 0.746 0.0
C397 C 0.96416 0.33935 0.72795 0.0
C398 C 0.96954 0.31372 0.74536 0.0
C399 C 0.99751 0.38545 0.73463 0.0
C400 C 0.93955 0.38544 0.74909 0.0
H401 H 0.9241 0.25116 0.65549 0.0
H402 H 0.99754 0.19553 0.71926 0.0
H403 H 0.93533 0.23576 0.75728 0.0
H404 H 0.95544 0.25562 0.7852 0.0
H405 H 0.96914 0.21972 0.77394 0.0
H406 H 0.02648 0.26318 0.72912 0.0
H407 H 0.02129 0.23234 0.75421 0.0
H408 H 0.01802 0.2694 0.76798 0.0
H409 H 0.97633 0.34533 0.59898 0.0
H410 H 0.97647 0.42785 0.64753 0.0
H411 H 0.95887 0.40286 0.69249 0.0
H412 H 0.00745 0.30157 0.65143 0.0
H413 H 0.99117 0.29839 0.61425 0.0
H414 H 0.98481 0.2702 0.6411 0.0
H415 H 0.92287 0.31919 0.6137 0.0
H416 H 0.9085 0.30052 0.64611 0.0
H417 H 0.93226 0.28165 0.6186 0.0
H418 H 0.94182 0.20374 0.6382 0.0
C419 C 0.94186 0.2401 0.66786 0.0
C420 C 0.85698 0.0931 0.77 0.0
C421 C 0.87289 0.10653 0.74571 0.0
C422 C 0.86185 0.13375 0.7342 0.0
C423 C 0.81535 0.1269 0.76154 0.0
C424 C 0.82821 0.10476 0.77839 0.0
C425 C 0.80602 0.0954 0.80295 0.0
H426 H 0.65455 0.08672 0.84218 0.0
C427 C 0.78265 0.12748 0.76661 0.0
C428 C 0.77654 0.11117 0.7927 0.0
H429 H 0.73203 0.06209 0.89771 0.0
H430 H 0.76696 0.07884 0.85865 0.0
H431 H 0.68027 0.14957 0.81564 0.0
H432 H 0.67186 0.06103 0.78976 0.0
H433 H 0.6873 0.07491 0.75599 0.0
H434 H 0.65052 0.08786 0.76954 0.0
H435 H 0.64675 0.12885 0.80528 0.0
H436 H 0.66879 0.14827 0.77735 0.0
C437 C 0.81803 0.1078 0.83316 0.0
C438 C 0.80262 0.0615 0.80293 0.0
C439 C 0.72176 0.11638 0.67143 0.0
C440 C 0.69127 0.10793 0.66718 0.0
C441 C 0.66993 0.11165 0.69059 0.0
C442 C 0.67967 0.12097 0.71904 0.0
C443 C 0.71109 0.12504 0.7242 0.0
C444 C 0.73134 0.12474 0.7003 0.0
C445 C 0.76389 0.12946 0.7102 0.0
C446 C 0.75963 0.131 0.74446 0.0
C447 C 0.72892 0.12632 0.7523 0.0
C448 C 0.77576 0.15848 0.69608 0.0
C449 C 0.78334 0.10232 0.70047 0.0
C450 C 0.679 0.08569 0.84646 0.0
C451 C 0.69042 0.07358 0.87332 0.0
C452 C 0.72256 0.07147 0.87726 0.0
C453 C 0.74282 0.08148 0.85481 0.0
C454 C 0.73084 0.0936 0.82814 0.0
C455 C 0.6994 0.09533 0.82432 0.0
C456 C 0.69043 0.10695 0.79391 0.0
C457 C 0.72168 0.11479 0.78118 0.0
C458 C 0.7454 0.1065 0.8011 0.0
C459 C 0.67032 0.13487 0.79812 0.0
C460 C 0.67421 0.08162 0.77629 0.0
H461 H 0.82418 0.16456 0.73318 0.0
H462 H 0.8658 0.07326 0.78059 0.0
H463 H 0.79615 0.05357 0.7801 0.0
H464 H 0.78474 0.05401 0.81873 0.0
H465 H 0.82452 0.05061 0.8095 0.0
H466 H 0.82924 0.12961 0.82993 0.0
H467 H 0.83524 0.09264 0.84339 0.0
H468 H 0.79948 0.112 0.84948 0.0
H469 H 0.73816 0.11401 0.65331 0.0
H470 H 0.64608 0.10582 0.68725 0.0
H471 H 0.66278 0.12334 0.73636 0.0
H472 H 0.76423 0.16343 0.67429 0.0
H473 H 0.80049 0.15701 0.69052 0.0
H474 H 0.77173 0.17761 0.71126 0.0
H475 H 0.77417 0.08171 0.71063 0.0
H476 H 0.80766 0.1043 0.70709 0.0
H477 H 0.7834 0.09974 0.67563 0.0
H478 H 0.87395 0.14543 0.7166 0.0
C479 C 0.83296 0.14422 0.74247 0.0
C480 C 0.3086 0.23856 0.99561 0.0
C481 C 0.33818 0.22978 0.00549 0.0
C482 C 0.35211 0.24545 0.02916 0.0
C483 C 0.30883 0.27888 0.03176 0.0
C484 C 0.29436 0.26337 0.00908 0.0
C485 C 0.26345 0.27706 0.00141 0.0
H486 H 0.15941 0.38719 0.03176 0.0
C487 C 0.28904 0.30378 0.04081 0.0
C488 C 0.26191 0.30281 0.02368 0.0
H489 H 0.15267 0.3226 0.96081 0.0
H490 H 0.20042 0.29941 0.97793 0.0
H491 H 0.18973 0.34621 0.08652 0.0
H492 H 0.21962 0.40348 0.01615 0.0
H493 H 0.25046 0.40427 0.04134 0.0
H494 H 0.21321 0.41744 0.05324 0.0
H495 H 0.18375 0.38548 0.08481 0.0
H496 H 0.21787 0.36999 0.1016 0.0
C497 C 0.23816 0.25407 0.00734 0.0
C498 C 0.26455 0.2879 0.96845 0.0
C499 C 0.33497 0.38503 0.10356 0.0
C500 C 0.32497 0.41425 0.10799 0.0
C501 C 0.29347 0.42077 0.10567 0.0
C502 C 0.27292 0.39925 0.09545 0.0
C503 C 0.28431 0.37155 0.08621 0.0
C504 C 0.31457 0.3643 0.09177 0.0
C505 C 0.32349 0.33508 0.07818 0.0
C506 C 0.29424 0.32712 0.0615 0.0
C507 C 0.27144 0.34839 0.06644 0.0
C508 C 0.33035 0.31322 0.10428 0.0
C509 C 0.35077 0.34031 0.05629 0.0
C510 C 0.1677 0.36747 0.02046 0.0
C511 C 0.15206 0.35616 0.99557 0.0
C512 C 0.16431 0.33139 0.98039 0.0
C513 C 0.19205 0.3182 0.99021 0.0
C514 C 0.20807 0.33065 0.01471 0.0
C515 C 0.19564 0.35504 0.02911 0.0
C516 C 0.21695 0.3685 0.05156 0.0
C517 C 0.24367 0.34721 0.04996 0.0
C518 C 0.23872 0.3248 0.02844 0.0
C519 C 0.20134 0.36775 0.08285 0.0
C520 C 0.22548 0.40004 0.04029 0.0
H521 H 0.34965 0.28036 0.06028 0.0
H522 H 0.2971 0.22665 0.97775 0.0
H523 H 0.28685 0.29877 0.96365 0.0
H524 H 0.24684 0.30463 0.9634 0.0
H525 H 0.26196 0.26913 0.95254 0.0
H526 H 0.21499 0.26393 0.00739 0.0
H527 H 0.24142 0.24371 0.02984 0.0
H528 H 0.23883 0.23625 0.99014 0.0
H529 H 0.35913 0.37946 0.10494 0.0
H530 H 0.28521 0.44309 0.10928 0.0
H531 H 0.2494 0.40578 0.09302 0.0
H532 H 0.31803 0.31958 0.12525 0.0
H533 H 0.35522 0.3125 0.10969 0.0
H534 H 0.32227 0.29056 0.09933 0.0
H535 H 0.34825 0.36189 0.04449 0.0
H536 H 0.35236 0.32398 0.03798 0.0
H537 H 0.37298 0.34057 0.06858 0.0
H538 H 0.37427 0.23866 0.0379 0.0
C539 C 0.33756 0.26957 0.04244 0.0
C540 C 0.29546 0.82876 0.02697 0.0
C541 C 0.32021 0.83949 0.0092 0.0
C542 C 0.32886 0.82332 0.98347 0.0
C543 C 0.29341 0.78448 0.99623 0.0
C544 C 0.28153 0.80143 0.01925 0.0
C545 C 0.25369 0.78623 0.03314 0.0
H546 H 0.1833 0.65416 0.05552 0.0
C547 C 0.2784 0.75553 0.99605 0.0
C548 C 0.25303 0.75679 0.01575 0.0
H549 H 0.13115 0.73517 0.04934 0.0
H550 H 0.17798 0.76124 0.03389 0.0
H551 H 0.19554 0.66521 0.99527 0.0
H552 H 0.25293 0.67381 0.07313 0.0
H553 H 0.27638 0.65793 0.0455 0.0
H554 H 0.24207 0.63902 0.05709 0.0
H555 H 0.21572 0.63409 0.01068 0.0
H556 H 0.23195 0.65702 0.98144 0.0
C557 C 0.22491 0.80535 0.0277 0.0
C558 C 0.25906 0.78102 0.06698 0.0
C559 C 0.3466 0.66836 0.96804 0.0
C560 C 0.34427 0.63821 0.97541 0.0
C561 C 0.31622 0.62694 0.98546 0.0
C562 C 0.29177 0.64587 0.99129 0.0
C563 C 0.29535 0.67647 0.98709 0.0
C564 C 0.32197 0.6873 0.97466 0.0
C565 C 0.32091 0.72047 0.97098 0.0
C566 C 0.29029 0.7278 0.9862 0.0
C567 C 0.2759 0.70179 0.99541 0.0
C568 C 0.31993 0.72707 0.93681 0.0
C569 C 0.34885 0.73457 0.98731 0.0
C570 C 0.1817 0.67797 0.05384 0.0
C571 C 0.1533 0.69237 0.05528 0.0
C572 C 0.15274 0.72329 0.04942 0.0
C573 C 0.17992 0.73868 0.04126 0.0
C574 C 0.20784 0.72311 0.03879 0.0
C575 C 0.20737 0.69286 0.04332 0.0
C576 C 0.23281 0.67728 0.02747 0.0
C577 C 0.24957 0.70297 0.01372 0.0
C578 C 0.23656 0.73015 0.02209 0.0
C579 C 0.21853 0.65714 0.00259 0.0
C580 C 0.2521 0.66093 0.05179 0.0
H581 H 0.32263 0.78506 0.95679 0.0
H582 H 0.28739 0.84123 0.0462 0.0
H583 H 0.28042 0.76802 0.07074 0.0
H584 H 0.2396 0.76862 0.07692 0.0
H585 H 0.26114 0.80239 0.07912 0.0
H586 H 0.21689 0.80342 0.00402 0.0
H587 H 0.22976 0.82901 0.03235 0.0
H588 H 0.20615 0.79914 0.04315 0.0
H589 H 0.36795 0.67731 0.95969 0.0
H590 H 0.31394 0.6037 0.99085 0.0
H591 H 0.27184 0.6358 1.00066 0.0
H592 H 0.30645 0.71008 0.92449 0.0
H593 H 0.34345 0.72722 0.92719 0.0
H594 H 0.30837 0.74822 0.93159 0.0
H595 H 0.36904 0.71961 0.98818 0.0
H596 H 0.34319 0.74032 0.01099 0.0
H597 H 0.35727 0.75452 0.97567 0.0
H598 H 0.3471 0.8311 0.96898 0.0
C599 C 0.31537 0.79621 0.97679 0.0
C600 C 0.88597 0.32142 0.98664 0.0
C601 C 0.90091 0.34698 0.97538 0.0
C602 C 0.89254 0.35818 0.94691 0.0
C603 C 0.84972 0.32527 0.94588 0.0
C604 C 0.8605 0.31024 0.97054 0.0
C605 C 0.84071 0.28307 0.97627 0.0
H606 H 0.70348 0.21532 0.94163 0.0
C607 C 0.81999 0.31391 0.93751 0.0
C608 C 0.81477 0.2875 0.95311 0.0
H609 H 0.7731 0.18079 0.00132 0.0
H610 H 0.80538 0.22365 0.9908 0.0
H611 H 0.69629 0.2677 0.96185 0.0
H612 H 0.74679 0.24185 0.88785 0.0
H613 H 0.72857 0.27603 0.8797 0.0
H614 H 0.70617 0.24576 0.89396 0.0
H615 H 0.68728 0.2857 0.92784 0.0
H616 H 0.71232 0.30287 0.95524 0.0
C617 C 0.82874 0.28384 0.00887 0.0
C618 C 0.86018 0.25541 0.96934 0.0
C619 C 0.73625 0.38833 0.92793 0.0
C620 C 0.70468 0.38481 0.92328 0.0
C621 C 0.69396 0.35915 0.90875 0.0
C622 C 0.71398 0.33554 0.9032 0.0
C623 C 0.74446 0.33774 0.91282 0.0
C624 C 0.75601 0.3647 0.92151 0.0
C625 C 0.79013 0.36337 0.92622 0.0
C626 C 0.79532 0.32982 0.9248 0.0
C627 C 0.76786 0.31508 0.91882 0.0
C628 C 0.79846 0.37682 0.95722 0.0
C629 C 0.80547 0.38017 0.89998 0.0
C630 C 0.72603 0.21637 0.95187 0.0
C631 C 0.73598 0.1942 0.97163 0.0
C632 C 0.76497 0.1974 0.98564 0.0
C633 C 0.78373 0.22215 0.97941 0.0
C634 C 0.77314 0.24415 0.95945 0.0
C635 C 0.74439 0.24104 0.94657 0.0
C636 C 0.73475 0.26733 0.9284 0.0
C637 C 0.76349 0.28607 0.93028 0.0
C638 C 0.78621 0.27259 0.94851 0.0
C639 C 0.70634 0.28178 0.94393 0.0
C640 C 0.72855 0.2573 0.89568 0.0
H641 H 0.86137 0.35488 0.90964 0.0
H642 H 0.89299 0.31154 0.00776 0.0
H643 H 0.87199 0.25784 0.94731 0.0
H644 H 0.84627 0.23521 0.96769 0.0
H645 H 0.878 0.25206 0.98696 0.0
H646 H 0.81746 0.30543 0.0136 0.0
H647 H 0.84788 0.28085 0.02514 0.0
H648 H 0.81162 0.26645 0.01313 0.0
H649 H 0.74476 0.4082 0.9383 0.0
H650 H 0.66975 0.35635 0.90406 0.0
H651 H 0.70505 0.31594 0.8929 0.0
H652 H 0.7864 0.36496 0.97562 0.0
H653 H 0.79213 0.40057 0.95825 0.0
H654 H 0.82336 0.37581 0.96178 0.0
H655 H 0.79137 0.39941 0.89268 0.0
H656 H 0.80868 0.36562 0.88006 0.0
H657 H 0.82782 0.38958 0.90655 0.0
H658 H 0.90471 0.37672 0.93721 0.0
C659 C 0.8672 0.34683 0.93172 0.0
C660 C 0.87905 0.71142 0.99166 0.0
C661 C 0.88716 0.68605 0.97442 0.0
C662 C 0.87308 0.68217 0.946 0.0
C663 C 0.83491 0.71759 0.96007 0.0
C664 C 0.85315 0.72819 0.98275 0.0
C665 C 0.83662 0.75332 0.99878 0.0
H666 H 0.69443 0.81333 0.02325 0.0
C667 C 0.8035 0.72668 0.9659 0.0
C668 C 0.80487 0.75242 0.98364 0.0
H669 H 0.76948 0.86686 0.99073 0.0
H670 H 0.80094 0.82194 0.98459 0.0
H671 H 0.69858 0.76551 0.97461 0.0
H672 H 0.73197 0.76946 0.06479 0.0
H673 H 0.73525 0.73153 0.05592 0.0
H674 H 0.69803 0.74919 0.05618 0.0
H675 H 0.67635 0.7668 0.00871 0.0
H676 H 0.68968 0.7324 0.99411 0.0
C677 C 0.85322 0.78259 0.99276 0.0
C678 C 0.83453 0.74722 0.03289 0.0
C679 C 0.73737 0.63649 0.98536 0.0
C680 C 0.7142 0.63189 0.00669 0.0
C681 C 0.70231 0.65607 0.02294 0.0
C682 C 0.71351 0.68442 0.01822 0.0
C683 C 0.73673 0.68871 0.99702 0.0
C684 C 0.74897 0.66505 0.9815 0.0
C685 C 0.77626 0.67374 0.9628 0.0
C686 C 0.77882 0.70663 0.9708 0.0
C687 C 0.75475 0.71488 0.98998 0.0
C688 C 0.76807 0.66939 0.92934 0.0
C689 C 0.80433 0.65475 0.9726 0.0
C690 C 0.71804 0.8161 0.01641 0.0
C691 C 0.72925 0.84397 0.008 0.0
C692 C 0.76 0.84585 0.99757 0.0
C693 C 0.77854 0.82031 0.99476 0.0
C694 C 0.76653 0.79296 0.00331 0.0
C695 C 0.73659 0.79107 0.01337 0.0
C696 C 0.72594 0.75962 0.01592 0.0
C697 C 0.75292 0.74377 0.00153 0.0
C698 C 0.77745 0.76284 0.99708 0.0
C699 C 0.696 0.75574 0.99745 0.0
C700 C 0.7225 0.75198 0.04986 0.0
H701 H 0.8335 0.6921 0.91897 0.0
H702 H 0.8903 0.71607 0.01284 0.0
H703 H 0.82339 0.72556 0.03716 0.0
H704 H 0.8208 0.7647 0.04425 0.0
H705 H 0.85769 0.74695 0.04336 0.0
H706 H 0.85194 0.78858 0.96852 0.0
H707 H 0.8778 0.78074 0.99925 0.0
H708 H 0.843 0.8007 0.0063 0.0
H709 H 0.74669 0.61815 0.9726 0.0
H710 H 0.68382 0.65315 0.03893 0.0
H711 H 0.70358 0.70194 0.03112 0.0
H712 H 0.74615 0.68083 0.92373 0.0
H713 H 0.76544 0.64552 0.92408 0.0
H714 H 0.78589 0.67849 0.91439 0.0
H715 H 0.81753 0.66566 0.99088 0.0
H716 H 0.81954 0.64974 0.95335 0.0
H717 H 0.79775 0.63267 0.98125 0.0
H718 H 0.88031 0.66451 0.93112 0.0
C719 C 0.84629 0.69773 0.93892 0.0
C720 C 0.55346 0.82451 0.68169 0.0
C721 C 0.54003 0.85155 0.6724 0.0
C722 C 0.52108 0.86718 0.69253 0.0
C723 C 0.53525 0.83356 0.73225 0.0
C724 C 0.5496 0.81524 0.71179 0.0
C725 C 0.56152 0.78744 0.7271 0.0
H726 H 0.60529 0.72413 0.85873 0.0
C727 C 0.54164 0.82272 0.76264 0.0
C728 C 0.55383 0.79399 0.76011 0.0
H729 H 0.54845 0.67807 0.79478 0.0
H730 H 0.54245 0.72401 0.76567 0.0
H731 H 0.63844 0.77914 0.81508 0.0
H732 H 0.55705 0.76261 0.86648 0.0
H733 H 0.56295 0.80037 0.87019 0.0
H734 H 0.59177 0.77511 0.88396 0.0
H735 H 0.63752 0.77794 0.85545 0.0
H736 H 0.63007 0.81176 0.83503 0.0
C737 C 0.59641 0.7844 0.72246 0.0
C738 C 0.54455 0.76034 0.71463 0.0
C739 C 0.55072 0.89902 0.84639 0.0
C740 C 0.5648 0.89771 0.87495 0.0
C741 C 0.58446 0.87377 0.88165 0.0
C742 C 0.58786 0.85041 0.86148 0.0
C743 C 0.57087 0.85054 0.83467 0.0
C744 C 0.55404 0.87516 0.8266 0.0
C745 C 0.53819 0.87137 0.79664 0.0
C746 C 0.54746 0.83967 0.78897 0.0
C747 C 0.5659 0.82769 0.81182 0.0
C748 C 0.55105 0.89462 0.77433 0.0
C749 C 0.50316 0.87414 0.80147 0.0
C750 C 0.59384 0.723 0.83708 0.0
C751 C 0.57892 0.69704 0.82822 0.0
C752 C 0.56138 0.69741 0.80136 0.0
C753 C 0.5586 0.72352 0.78404 0.0
C754 C 0.57349 0.74932 0.79365 0.0
C755 C 0.58918 0.74905 0.8208 0.0
C756 C 0.59178 0.77946 0.83419 0.0
C757 C 0.57468 0.79762 0.81091 0.0
C758 C 0.56661 0.78037 0.78609 0.0
C759 C 0.62621 0.78764 0.8353 0.0
C760 C 0.57536 0.77963 0.86536 0.0
H761 H 0.504 0.87066 0.73722 0.0
H762 H 0.56734 0.81166 0.66627 0.0
H763 H 0.52051 0.75969 0.72291 0.0
H764 H 0.55653 0.73961 0.72095 0.0
H765 H 0.544 0.76089 0.68961 0.0
H766 H 0.60847 0.8045 0.73055 0.0
H767 H 0.60191 0.78116 0.69827 0.0
H768 H 0.60551 0.76507 0.73511 0.0
H769 H 0.53618 0.9175 0.84017 0.0
H770 H 0.59559 0.87187 0.90337 0.0
H771 H 0.60212 0.8323 0.86842 0.0
H772 H 0.57024 0.88536 0.7608 0.0
H773 H 0.56001 0.91443 0.78618 0.0
H774 H 0.53322 0.90336 0.75895 0.0
H775 H 0.49602 0.86219 0.82218 0.0
H776 H 0.48991 0.86424 0.78283 0.0
H777 H 0.49622 0.89768 0.80387 0.0
H778 H 0.50979 0.88744 0.68554 0.0
C779 C 0.51852 0.85815 0.72247 0.0
C780 C 0.37391 0.51541 0.813 0.0
C781 C 0.37278 0.5022 0.84208 0.0
C782 C 0.34425 0.49207 0.85285 0.0
C783 C 0.3185 0.51405 0.81043 0.0
C784 C 0.34617 0.52004 0.7969 0.0
C785 C 0.34079 0.53424 0.7662 0.0
H786 H 0.22489 0.59265 0.67741 0.0
C787 C 0.29397 0.52856 0.79348 0.0
C788 C 0.30564 0.53699 0.7654 0.0
H789 H 0.27298 0.51278 0.65229 0.0
H790 H 0.30231 0.51488 0.69973 0.0
H791 H 0.19903 0.58626 0.71902 0.0
H792 H 0.28148 0.62584 0.72846 0.0
H793 H 0.25373 0.63591 0.75605 0.0
H794 H 0.24311 0.63562 0.71692 0.0
H795 H 0.20106 0.60736 0.75142 0.0
H796 H 0.20591 0.56755 0.75332 0.0
C797 C 0.35295 0.51403 0.74111 0.0
C798 C 0.35617 0.56479 0.76482 0.0
C799 C 0.19841 0.56308 0.84689 0.0
C800 C 0.17836 0.58675 0.84095 0.0
C801 C 0.188 0.61021 0.8225 0.0
C802 C 0.21586 0.60791 0.80694 0.0
C803 C 0.23259 0.58152 0.80903 0.0
C804 C 0.22576 0.56113 0.83093 0.0
C805 C 0.24954 0.5371 0.83317 0.0
C806 C 0.26927 0.54473 0.80603 0.0
C807 C 0.25808 0.56999 0.79128 0.0
C808 C 0.23393 0.50673 0.82923 0.0
C809 C 0.26666 0.54029 0.86371 0.0
C810 C 0.24247 0.57613 0.68117 0.0
C811 C 0.24636 0.55272 0.66076 0.0
C812 C 0.26935 0.53129 0.66731 0.0
C813 C 0.28667 0.53265 0.69429 0.0
C814 C 0.28073 0.55534 0.71505 0.0
C815 C 0.25774 0.57568 0.70891 0.0
C816 C 0.24707 0.59146 0.73686 0.0
C817 C 0.26573 0.575 0.76076 0.0
C818 C 0.28826 0.55703 0.74746 0.0
C819 C 0.21166 0.58789 0.74056 0.0
C820 C 0.25679 0.62407 0.73452 0.0
H821 H 0.29598 0.48992 0.84608 0.0
H822 H 0.39553 0.52264 0.80366 0.0
H823 H 0.34773 0.5792 0.78335 0.0
H824 H 0.35098 0.57585 0.74305 0.0
H825 H 0.38149 0.56267 0.76691 0.0
H826 H 0.34025 0.49278 0.7407 0.0
H827 H 0.37769 0.5091 0.74468 0.0
H828 H 0.35058 0.52494 0.71884 0.0
H829 H 0.19214 0.54578 0.86257 0.0
H830 H 0.1734 0.62932 0.81898 0.0
H831 H 0.22309 0.62584 0.79282 0.0
H832 H 0.21799 0.50708 0.80964 0.0
H833 H 0.2206 0.5008 0.84963 0.0
H834 H 0.2508 0.48891 0.82492 0.0
H835 H 0.2541 0.55478 0.87977 0.0
H836 H 0.28976 0.55014 0.86073 0.0
H837 H 0.26909 0.51883 0.87553 0.0
H838 H 0.34251 0.48127 0.87454 0.0
C839 C 0.31721 0.49785 0.83707 0.0
C840 C 0.48962 0.30647 0.79958 0.0
C841 C 0.47253 0.32156 0.82235 0.0
C842 C 0.44069 0.31593 0.8245 0.0
C843 C 0.44646 0.27449 0.79154 0.0
C844 C 0.47525 0.28329 0.78334 0.0
C845 C 0.48731 0.26285 0.75854 0.0
H846 H 0.47853 0.1263 0.69514 0.0
C847 C 0.44074 0.24511 0.78008 0.0
C848 C 0.46141 0.23964 0.75652 0.0
H849 H 0.49955 0.20438 0.64282 0.0
H850 H 0.48483 0.23531 0.6859 0.0
H851 H 0.49999 0.13604 0.75285 0.0
H852 H 0.41514 0.15425 0.71276 0.0
H853 H 0.40666 0.14309 0.74978 0.0
H854 H 0.42953 0.11934 0.72601 0.0
H855 H 0.46779 0.11492 0.76416 0.0
H856 H 0.48002 0.14667 0.78561 0.0
C857 C 0.51777 0.24847 0.76839 0.0
C858 C 0.49133 0.28069 0.72934 0.0
C859 C 0.42484 0.17323 0.86447 0.0
C860 C 0.43275 0.14311 0.86523 0.0
C861 C 0.43012 0.12644 0.83857 0.0
C862 C 0.4253 0.14061 0.81102 0.0
C863 C 0.42459 0.17158 0.81014 0.0
C864 C 0.42209 0.18742 0.83656 0.0
C865 C 0.4238 0.22025 0.83135 0.0
C866 C 0.42923 0.22112 0.79717 0.0
C867 C 0.43154 0.19238 0.78565 0.0
C868 C 0.4514 0.23266 0.84946 0.0
C869 C 0.39315 0.23453 0.84112 0.0
C870 C 0.48071 0.14992 0.69231 0.0
C871 C 0.49091 0.16229 0.66509 0.0
C872 C 0.49307 0.19365 0.6636 0.0
C873 C 0.48534 0.2117 0.68864 0.0
C874 C 0.47592 0.19842 0.71561 0.0
C875 C 0.47222 0.16813 0.71632 0.0
C876 C 0.45487 0.15795 0.74344 0.0
C877 C 0.44768 0.18728 0.75844 0.0
C878 C 0.46181 0.21085 0.74328 0.0
C879 C 0.47654 0.13786 0.76255 0.0
C880 C 0.42502 0.14262 0.73264 0.0
H881 H 0.40338 0.28775 0.81116 0.0
H882 H 0.5136 0.31133 0.79587 0.0
H883 H 0.4688 0.28521 0.71848 0.0
H884 H 0.5065 0.26896 0.7133 0.0
H885 H 0.50257 0.3022 0.73408 0.0
H886 H 0.51493 0.2366 0.79013 0.0
H887 H 0.53589 0.26545 0.77122 0.0
H888 H 0.52569 0.2323 0.75123 0.0
H889 H 0.42491 0.18608 0.88502 0.0
H890 H 0.43506 0.10299 0.83833 0.0
H891 H 0.42502 0.12711 0.79127 0.0
H892 H 0.4732 0.22214 0.84201 0.0
H893 H 0.44869 0.22876 0.87397 0.0
H894 H 0.45383 0.25678 0.84722 0.0
H895 H 0.38311 0.22281 0.86075 0.0
H896 H 0.37604 0.23402 0.82255 0.0
H897 H 0.39628 0.25759 0.84877 0.0
H898 H 0.42631 0.32868 0.83958 0.0
C899 C 0.42751 0.29241 0.8089 0.0
C900 C 0.79646 0.54068 0.71724 0.0
C901 C 0.82804 0.53454 0.71238 0.0
C902 C 0.844 0.51785 0.73418 0.0
C903 C 0.79826 0.51413 0.7648 0.0
C904 C 0.782 0.53015 0.7436 0.0
C905 C 0.74878 0.53435 0.75315 0.0
H906 H 0.6369 0.49262 0.85304 0.0
C907 C 0.77723 0.50567 0.78927 0.0
C908 C 0.74769 0.51651 0.78237 0.0
H909 H 0.62698 0.56045 0.78576 0.0
H910 H 0.67952 0.55075 0.76828 0.0
H911 H 0.68605 0.44444 0.82312 0.0
H912 H 0.68644 0.52367 0.87565 0.0
H913 H 0.72195 0.50795 0.88424 0.0
H914 H 0.68708 0.48839 0.89359 0.0
H915 H 0.67151 0.44864 0.86067 0.0
H916 H 0.71107 0.43912 0.854 0.0
C917 C 0.72744 0.5215 0.72881 0.0
C918 C 0.74332 0.56758 0.75891 0.0
C919 C 0.82017 0.4649 0.88641 0.0
C920 C 0.80601 0.46099 0.91447 0.0
C921 C 0.7741 0.45868 0.91627 0.0
C922 C 0.7562 0.46151 0.89031 0.0
C923 C 0.77033 0.46946 0.863 0.0
C924 C 0.8019 0.46992 0.86105 0.0
C925 C 0.81287 0.48088 0.83093 0.0
C926 C 0.78262 0.48972 0.81631 0.0
C927 C 0.75803 0.48267 0.83509 0.0
C928 C 0.82852 0.4547 0.8143 0.0
C929 C 0.83398 0.50793 0.83623 0.0
C930 C 0.64542 0.5044 0.8335 0.0
C931 C 0.62755 0.52627 0.81994 0.0
C932 C 0.64024 0.54287 0.79609 0.0
C933 C 0.67076 0.53751 0.78635 0.0
C934 C 0.68904 0.51659 0.80184 0.0
C935 C 0.67601 0.50108 0.82542 0.0
C936 C 0.6991 0.4862 0.84501 0.0
C937 C 0.72809 0.49219 0.82769 0.0
C938 C 0.7226 0.50968 0.80197 0.0
C939 C 0.69164 0.4528 0.84603 0.0
C940 C 0.69868 0.50205 0.87627 0.0
H941 H 0.84296 0.49493 0.77547 0.0
H942 H 0.7834 0.55339 0.701 0.0
H943 H 0.76289 0.57726 0.77157 0.0
H944 H 0.72283 0.57181 0.77278 0.0
H945 H 0.74097 0.57981 0.73733 0.0
H946 H 0.73402 0.49828 0.72365 0.0
H947 H 0.72895 0.53454 0.70768 0.0
H948 H 0.70323 0.52132 0.73603 0.0
H949 H 0.84485 0.4672 0.88491 0.0
H950 H 0.76305 0.45618 0.93793 0.0
H951 H 0.73197 0.45914 0.89303 0.0
H952 H 0.82131 0.43295 0.82355 0.0
H953 H 0.8539 0.45579 0.81625 0.0
H954 H 0.82208 0.45383 0.79016 0.0
H955 H 0.82406 0.52275 0.85371 0.0
H956 H 0.8369 0.52191 0.81615 0.0
H957 H 0.85709 0.50084 0.84404 0.0
H958 H 0.86785 0.5119 0.73089 0.0
C959 C 0.82935 0.50758 0.76004 0.0
C960 C 0.51179 0.20835 0.34572 0.0
C961 C 0.49609 0.18471 0.36004 0.0
C962 C 0.46923 0.17336 0.34674 0.0
C963 C 0.47879 0.20205 0.3027 0.0
C964 C 0.50157 0.21752 0.31686 0.0
C965 C 0.51088 0.24377 0.29728 0.0
H966 H 0.49976 0.30429 0.15433 0.0
C967 C 0.47631 0.21147 0.27186 0.0
C968 C 0.49292 0.23757 0.26802 0.0
H969 H 0.54329 0.34486 0.23095 0.0
H970 H 0.53027 0.30196 0.26209 0.0
H971 H 0.52553 0.25049 0.156 0.0
H972 H 0.43944 0.27602 0.18739 0.0
H973 H 0.43655 0.24091 0.16984 0.0
H974 H 0.45368 0.27116 0.1497 0.0
H975 H 0.49325 0.23324 0.1397 0.0
H976 H 0.51425 0.21568 0.17 0.0
C977 C 0.5458 0.24319 0.29225 0.0
C978 C 0.49967 0.27218 0.313 0.0
C979 C 0.47774 0.12947 0.19677 0.0
C980 C 0.4797 0.13003 0.16536 0.0
C981 C 0.47052 0.15557 0.14954 0.0
C982 C 0.46345 0.18156 0.16522 0.0
C983 C 0.46639 0.1818 0.19662 0.0
C984 C 0.47068 0.15561 0.21203 0.0
C985 C 0.47047 0.15992 0.24548 0.0
C986 C 0.46852 0.19373 0.24704 0.0
C987 C 0.46854 0.20623 0.21829 0.0
C988 C 0.50078 0.14784 0.2591 0.0
C989 C 0.44217 0.14388 0.25846 0.0
C990 C 0.50607 0.30414 0.17795 0.0
C991 C 0.52198 0.32794 0.19041 0.0
C992 C 0.53061 0.32677 0.22105 0.0
C993 C 0.5228 0.30213 0.23908 0.0
C994 C 0.5063 0.27858 0.22624 0.0
C995 C 0.49881 0.27978 0.19592 0.0
C996 C 0.48351 0.25224 0.1849 0.0
C997 C 0.4806 0.23508 0.21411 0.0
C998 C 0.49395 0.25044 0.23855 0.0
C999 C 0.50502 0.23701 0.16152 0.0
C1000 C 0.45158 0.26042 0.17209 0.0
H1001 H 0.43879 0.17491 0.30891 0.0
H1002 H 0.53117 0.2189 0.35646 0.0
H1003 H 0.47531 0.26991 0.32002 0.0
H1004 H 0.5006 0.29169 0.29823 0.0
H1005 H 0.5136 0.27666 0.33347 0.0
H1006 H 0.55305 0.22144 0.28298 0.0
H1007 H 0.55821 0.24682 0.3138 0.0
H1008 H 0.55311 0.26037 0.27615 0.0
H1009 H 0.48382 0.10962 0.20906 0.0
H1010 H 0.47126 0.15612 0.12517 0.0
H1011 H 0.45723 0.20082 0.15253 0.0
H1012 H 0.52091 0.15911 0.249 0.0
H1013 H 0.50317 0.12371 0.2552 0.0
H1014 H 0.50173 0.15097 0.2838 0.0
H1015 H 0.43645 0.12375 0.24527 0.0
H1016 H 0.42161 0.15849 0.25829 0.0
H1017 H 0.44648 0.1357 0.2816 0.0
H1018 H 0.4558 0.1566 0.35805 0.0
C1019 C 0.46012 0.18257 0.31826 0.0
C1020 C 0.77846 0.51709 0.33312 0.0
C1021 C 0.80216 0.50732 0.35299 0.0
C1022 C 0.81129 0.47736 0.35231 0.0
C1023 C 0.7818 0.47045 0.30746 0.0
C1024 C 0.76731 0.49708 0.31107 0.0
C1025 C 0.74261 0.50047 0.28674 0.0
H1026 H 0.69307 0.4554 0.14822 0.0
C1027 C 0.77491 0.45882 0.27796 0.0
C1028 C 0.74778 0.47222 0.26772 0.0
H1029 H 0.63031 0.47484 0.2212 0.0
H1030 H 0.67379 0.47615 0.25632 0.0
H1031 H 0.74459 0.49364 0.15944 0.0
H1032 H 0.72711 0.40607 0.18769 0.0
H1033 H 0.76613 0.40775 0.17732 0.0
H1034 H 0.73701 0.41819 0.15044 0.0
H1035 H 0.76301 0.46351 0.14086 0.0
H1036 H 0.78137 0.48263 0.17159 0.0
C1037 C 0.74852 0.52845 0.26796 0.0
C1038 C 0.7108 0.50166 0.30159 0.0
C1039 C 0.87107 0.45249 0.21589 0.0
C1040 C 0.87514 0.4523 0.18472 0.0
C1041 C 0.85079 0.4443 0.16571 0.0
C1042 C 0.82163 0.43925 0.17763 0.0
C1043 C 0.81697 0.44276 0.2087 0.0
C1044 C 0.8417 0.44766 0.22754 0.0
C1045 C 0.83219 0.45215 0.25971 0.0
C1046 C 0.79721 0.44967 0.25672 0.0
C1047 C 0.78874 0.44608 0.22649 0.0
C1048 C 0.84253 0.48342 0.26973 0.0
C1049 C 0.84678 0.42758 0.2793 0.0
C1050 C 0.68798 0.4604 0.17149 0.0
C1051 C 0.6577 0.46572 0.18117 0.0
C1052 C 0.6532 0.47193 0.21229 0.0
C1053 C 0.67823 0.4735 0.23264 0.0
C1054 C 0.70814 0.4695 0.22185 0.0
C1055 C 0.71233 0.46148 0.19209 0.0
C1056 C 0.74463 0.45165 0.18582 0.0
C1057 C 0.75858 0.45349 0.2171 0.0
C1058 C 0.73783 0.46588 0.23775 0.0
C1059 C 0.75925 0.4738 0.16326 0.0
C1060 C 0.74389 0.41926 0.17451 0.0
H1061 H 0.80851 0.43599 0.32856 0.0
H1062 H 0.76986 0.53953 0.33416 0.0
H1063 H 0.70396 0.47949 0.30991 0.0
H1064 H 0.69326 0.51006 0.28564 0.0
H1065 H 0.7109 0.51717 0.32099 0.0
H1066 H 0.77198 0.52792 0.25817 0.0
H1067 H 0.74628 0.54859 0.2821 0.0
H1068 H 0.73173 0.5301 0.24917 0.0
H1069 H 0.88991 0.45847 0.23055 0.0
H1070 H 0.85385 0.44399 0.1415 0.0
H1071 H 0.80351 0.43446 0.1621 0.0
H1072 H 0.8312 0.50072 0.25578 0.0
H1073 H 0.86774 0.48604 0.26768 0.0
H1074 H 0.83739 0.48802 0.29356 0.0
H1075 H 0.86961 0.42074 0.27055 0.0
H1076 H 0.83203 0.40762 0.27994 0.0
H1077 H 0.85121 0.43524 0.30256 0.0
H1078 H 0.82814 0.469 0.36817 0.0
C1079 C 0.80088 0.45868 0.32955 0.0
C1080 C 0.56415 0.7067 0.21279 0.0
C1081 C 0.58028 0.69137 0.1897 0.0
C1082 C 0.60983 0.70129 0.18164 0.0
C1083 C 0.60294 0.74457 0.21211 0.0
C1084 C 0.5768 0.73306 0.22455 0.0
C1085 C 0.56647 0.75215 0.25097 0.0
H1086 H 0.58331 0.88704 0.32117 0.0
C1087 C 0.60787 0.77419 0.22372 0.0
C1088 C 0.58812 0.77878 0.24821 0.0
H1089 H 0.5262 0.81514 0.35165 0.0
H1090 H 0.54321 0.78526 0.30928 0.0
H1091 H 0.6433 0.85211 0.29715 0.0
H1092 H 0.56042 0.88634 0.26182 0.0
H1093 H 0.57974 0.87774 0.22826 0.0
H1094 H 0.59535 0.90481 0.25397 0.0
H1095 H 0.63201 0.89011 0.29243 0.0
H1096 H 0.65122 0.87037 0.26271 0.0
C1097 C 0.57231 0.7345 0.28015 0.0
C1098 C 0.53259 0.76103 0.2467 0.0
C1099 C 0.63452 0.84965 0.14582 0.0
C1100 C 0.62869 0.88021 0.14654 0.0
C1101 C 0.63102 0.89501 0.17441 0.0
C1102 C 0.63323 0.8789 0.20128 0.0
C1103 C 0.63145 0.84798 0.20018 0.0
C1104 C 0.63432 0.83371 0.17285 0.0
C1105 C 0.63058 0.8008 0.1757 0.0
C1106 C 0.62199 0.7983 0.20906 0.0
C1107 C 0.6216 0.82613 0.22283 0.0
C1108 C 0.66152 0.78576 0.16775 0.0
C1109 C 0.60414 0.79066 0.15473 0.0
C1110 C 0.57431 0.86489 0.31912 0.0
C1111 C 0.55342 0.85373 0.34028 0.0
C1112 C 0.54278 0.82442 0.33623 0.0
C1113 C 0.55268 0.80697 0.31162 0.0
C1114 C 0.5734 0.81885 0.29065 0.0
C1115 C 0.5834 0.84756 0.29458 0.0
C1116 C 0.60236 0.85832 0.26875 0.0
C1117 C 0.60535 0.83028 0.25025 0.0
C1118 C 0.58808 0.80701 0.2628 0.0
C1119 C 0.63393 0.86846 0.28079 0.0
C1120 C 0.58379 0.88306 0.25231 0.0
H1121 H 0.64434 0.73411 0.18772 0.0
H1122 H 0.54239 0.69858 0.22099 0.0
H1123 H 0.52911 0.77127 0.22418 0.0
H1124 H 0.525 0.77728 0.26369 0.0
H1125 H 0.51749 0.74139 0.24833 0.0
H1126 H 0.59539 0.72393 0.27965 0.0
H1127 H 0.55499 0.71675 0.28281 0.0
H1128 H 0.57203 0.74852 0.3004 0.0
H1129 H 0.63479 0.83803 0.12454 0.0
H1130 H 0.62779 0.91869 0.17591 0.0
H1131 H 0.63378 0.89102 0.22197 0.0
H1132 H 0.67658 0.80041 0.15421 0.0
H1133 H 0.65814 0.76585 0.15357 0.0
H1134 H 0.67452 0.77953 0.18835 0.0
H1135 H 0.58256 0.80275 0.16011 0.0
H1136 H 0.5995 0.76679 0.15657 0.0
H1137 H 0.60979 0.79459 0.13072 0.0
H1138 H 0.62344 0.68954 0.16511 0.0
C1139 C 0.62147 0.72751 0.19338 0.0
C1140 C 0.41234 0.5713 0.21297 0.0
C1141 C 0.42747 0.5528 0.19188 0.0
C1142 C 0.41487 0.52494 0.18499 0.0
C1143 C 0.36922 0.53813 0.21169 0.0
C1144 C 0.3833 0.56248 0.22388 0.0
C1145 C 0.3613 0.57825 0.24502 0.0
H1146 H 0.20747 0.5735 0.28551 0.0
C1147 C 0.33642 0.54026 0.2169 0.0
C1148 C 0.3319 0.55996 0.24107 0.0
H1149 H 0.28011 0.55676 0.34982 0.0
H1150 H 0.31826 0.56071 0.30929 0.0
H1151 H 0.22055 0.61651 0.24652 0.0
H1152 H 0.23313 0.53047 0.23149 0.0
H1153 H 0.21971 0.55366 0.20134 0.0
H1154 H 0.202 0.55625 0.23709 0.0
H1155 H 0.22185 0.60905 0.2077 0.0
H1156 H 0.25525 0.62414 0.22625 0.0
C1157 C 0.35655 0.61056 0.23494 0.0
C1158 C 0.37342 0.57691 0.27746 0.0
C1159 C 0.27162 0.52733 0.12199 0.0
C1160 C 0.24635 0.54398 0.11168 0.0
C1161 C 0.23717 0.56946 0.12784 0.0
C1162 C 0.25045 0.57603 0.15558 0.0
C1163 C 0.27207 0.55655 0.16738 0.0
C1164 C 0.28485 0.53477 0.14972 0.0
C1165 C 0.31369 0.52234 0.16371 0.0
C1166 C 0.31409 0.53938 0.19361 0.0
C1167 C 0.28832 0.55773 0.19573 0.0
C1168 C 0.34102 0.52932 0.14256 0.0
C1169 C 0.30972 0.48892 0.1689 0.0
C1170 C 0.2315 0.5719 0.29142 0.0
C1171 C 0.24039 0.56504 0.3211 0.0
C1172 C 0.27226 0.56201 0.32731 0.0
C1173 C 0.29439 0.5649 0.30432 0.0
C1174 C 0.28473 0.57164 0.27505 0.0
C1175 C 0.25376 0.57459 0.26877 0.0
C1176 C 0.24776 0.57679 0.23542 0.0
C1177 C 0.28007 0.57089 0.22332 0.0
C1178 C 0.30182 0.57088 0.24649 0.0
C1179 C 0.23594 0.60831 0.22839 0.0
C1180 C 0.22443 0.55291 0.22578 0.0
H1181 H 0.37579 0.4966 0.18859 0.0
H1182 H 0.42208 0.59232 0.21944 0.0
H1183 H 0.37469 0.55367 0.28552 0.0
H1184 H 0.35831 0.58974 0.29276 0.0
H1185 H 0.39677 0.58661 0.27881 0.0
H1186 H 0.34829 0.61149 0.21125 0.0
H1187 H 0.37832 0.62313 0.23654 0.0
H1188 H 0.33931 0.62175 0.24944 0.0
H1189 H 0.28005 0.50853 0.10933 0.0
H1190 H 0.21832 0.5832 0.12014 0.0
H1191 H 0.24378 0.59574 0.16728 0.0
H1192 H 0.33391 0.53015 0.11854 0.0
H1193 H 0.35886 0.51187 0.14323 0.0
H1194 H 0.35142 0.55104 0.14808 0.0
H1195 H 0.28793 0.48437 0.18099 0.0
H1196 H 0.32865 0.4797 0.18267 0.0
H1197 H 0.30926 0.47694 0.14709 0.0
H1198 H 0.42664 0.50997 0.1698 0.0
C1199 C 0.38568 0.51742 0.1951 0.0
C1200 C 0.83966 0.70002 0.45295 0.0
C1201 C 0.87019 0.68909 0.4494 0.0
C1202 C 0.89239 0.70785 0.43651 0.0
C1203 C 0.85729 0.7486 0.43938 0.0
C1204 C 0.83354 0.73016 0.44654 0.0
C1205 C 0.80318 0.74716 0.4449 0.0
H1206 H 0.73866 0.88686 0.4326 0.0
C1207 C 0.84645 0.77882 0.43878 0.0
C1208 C 0.81429 0.77902 0.43968 0.0
H1209 H 0.68835 0.80498 0.43383 0.0
H1210 H 0.73663 0.77739 0.43905 0.0
H1211 H 0.7748 0.87718 0.48207 0.0
H1212 H 0.79558 0.86695 0.39023 0.0
H1213 H 0.82772 0.88324 0.40791 0.0
H1214 H 0.79055 0.90047 0.41139 0.0
H1215 H 0.80016 0.90269 0.46486 0.0
H1216 H 0.81451 0.87085 0.48506 0.0
C1217 C 0.78587 0.744 0.47488 0.0
C1218 C 0.78486 0.73534 0.41781 0.0
C1219 C 0.91588 0.85371 0.48708 0.0
C1220 C 0.91252 0.88413 0.49183 0.0
C1221 C 0.889 0.89976 0.47691 0.0
C1222 C 0.86751 0.88474 0.45932 0.0
C1223 C 0.86952 0.8539 0.45698 0.0
C1224 C 0.89443 0.8391 0.46902 0.0
C1225 C 0.89438 0.80684 0.46117 0.0
C1226 C 0.86338 0.80459 0.44498 0.0
C1227 C 0.84842 0.83189 0.44435 0.0
C1228 C 0.89521 0.7883 0.4904 0.0
C1229 C 0.92242 0.80041 0.44078 0.0
C1230 C 0.73782 0.86294 0.4331 0.0
C1231 C 0.70968 0.84819 0.43178 0.0
C1232 C 0.70979 0.81697 0.43426 0.0
C1233 C 0.73774 0.80097 0.43693 0.0
C1234 C 0.76577 0.81637 0.4374 0.0
C1235 C 0.7651 0.84694 0.43609 0.0
C1236 C 0.79609 0.86056 0.43942 0.0
C1237 C 0.81612 0.8332 0.44068 0.0
C1238 C 0.79862 0.80699 0.43939 0.0
C1239 C 0.79661 0.87879 0.46921 0.0
C1240 C 0.80295 0.87898 0.41084 0.0
H1241 H 0.90218 0.75077 0.41927 0.0
H1242 H 0.82152 0.68572 0.46079 0.0
H1243 H 0.79951 0.73466 0.39734 0.0
H1244 H 0.76493 0.74935 0.41224 0.0
H1245 H 0.77662 0.71256 0.42231 0.0
H1246 H 0.80081 0.75066 0.49401 0.0
H1247 H 0.77873 0.72073 0.4785 0.0
H1248 H 0.76513 0.7581 0.47553 0.0
H1249 H 0.93455 0.84163 0.49756 0.0
H1250 H 0.88651 0.92341 0.47993 0.0
H1251 H 0.8498 0.8975 0.4487 0.0
H1252 H 0.87529 0.79379 0.50501 0.0
H1253 H 0.9166 0.79246 0.50331 0.0
H1254 H 0.89462 0.76432 0.48555 0.0
H1255 H 0.94155 0.81607 0.44493 0.0
H1256 H 0.91625 0.8022 0.41656 0.0
H1257 H 0.93245 0.77831 0.44543 0.0
H1258 H 0.91549 0.70015 0.43208 0.0
C1259 C 0.88567 0.73739 0.43076 0.0
C1260 C 0.77134 0.3564 0.49278 0.0
C1261 C 0.79758 0.37278 0.48402 0.0
C1262 C 0.81944 0.35923 0.46511 0.0
C1263 C 0.79281 0.31307 0.46879 0.0
C1264 C 0.76912 0.32643 0.48409 0.0
C1265 C 0.74243 0.30513 0.48766 0.0
H1266 H 0.69862 0.15961 0.48263 0.0
C1267 C 0.78619 0.28184 0.46502 0.0
C1268 C 0.756 0.27653 0.4746 0.0
H1269 H 0.63936 0.23328 0.5033 0.0
H1270 H 0.68192 0.26749 0.49464 0.0
H1271 H 0.72298 0.17989 0.42885 0.0
H1272 H 0.76551 0.18844 0.51612 0.0
H1273 H 0.78817 0.16809 0.49015 0.0
H1274 H 0.7513 0.155 0.49938 0.0
H1275 H 0.74961 0.15266 0.44226 0.0
H1276 H 0.76225 0.1849 0.42171 0.0
C1277 C 0.7154 0.31675 0.46851 0.0
C1278 C 0.73458 0.30215 0.52132 0.0
C1279 C 0.87512 0.21034 0.46818 0.0
C1280 C 0.87604 0.17945 0.46592 0.0
C1281 C 0.85067 0.16424 0.45402 0.0
C1282 C 0.82334 0.17925 0.44806 0.0
C1283 C 0.82137 0.20938 0.45495 0.0
C1284 C 0.84752 0.22498 0.46179 0.0
C1285 C 0.84175 0.25773 0.46187 0.0
C1286 C 0.80665 0.25829 0.45893 0.0
C1287 C 0.79512 0.22962 0.45678 0.0
C1288 C 0.85864 0.2711 0.43431 0.0
C1289 C 0.85282 0.27094 0.49207 0.0
C1290 C 0.69488 0.18307 0.4861 0.0
C1291 C 0.66606 0.19368 0.49457 0.0
C1292 C 0.66169 0.22453 0.4973 0.0
C1293 C 0.68626 0.24428 0.49204 0.0
C1294 C 0.7151 0.23299 0.48325 0.0
C1295 C 0.71861 0.20274 0.48026 0.0
C1296 C 0.7496 0.19377 0.46932 0.0
C1297 C 0.76439 0.22373 0.46514 0.0
C1298 C 0.74463 0.2469 0.47414 0.0
C1299 C 0.74609 0.1768 0.43909 0.0
C1300 C 0.76465 0.17538 0.49491 0.0
H1301 H 0.8328 0.32081 0.44135 0.0
H1302 H 0.75331 0.36662 0.50595 0.0
H1303 H 0.7554 0.29597 0.53443 0.0
H1304 H 0.71721 0.28498 0.52547 0.0
H1305 H 0.72562 0.32338 0.53037 0.0
H1306 H 0.72359 0.32439 0.44612 0.0
H1307 H 0.70394 0.33572 0.47979 0.0
H1308 H 0.69819 0.29958 0.46383 0.0
H1309 H 0.89505 0.22246 0.47576 0.0
H1310 H 0.85119 0.14044 0.4515 0.0
H1311 H 0.80427 0.16657 0.44018 0.0
H1312 H 0.87566 0.25561 0.42427 0.0
H1313 H 0.87212 0.29092 0.44063 0.0
H1314 H 0.84228 0.27695 0.41601 0.0
H1315 H 0.84122 0.25999 0.51133 0.0
H1316 H 0.8481 0.29491 0.4935 0.0
H1317 H 0.87799 0.26808 0.4948 0.0
H1318 H 0.83941 0.37114 0.45731 0.0
C1319 C 0.81665 0.32975 0.45691 0.0
C1320 C 0.30849 0.82358 0.5628 0.0
C1321 C 0.31601 0.85376 0.56702 0.0
C1322 C 0.29212 0.87405 0.57267 0.0
C1323 C 0.25435 0.83526 0.569 0.0
C1324 C 0.27741 0.81475 0.5643 0.0
C1325 C 0.26437 0.78382 0.56099 0.0
H1326 H 0.1342 0.69874 0.55891 0.0
C1327 C 0.22457 0.82 0.56846 0.0
C1328 C 0.22993 0.78952 0.56455 0.0
H1329 H 0.22647 0.66749 0.54341 0.0
H1330 H 0.24613 0.71727 0.55221 0.0
H1331 H 0.14713 0.74527 0.61339 0.0
H1332 H 0.13979 0.74689 0.51739 0.0
H1333 H 0.12825 0.78245 0.5278 0.0
H1334 H 0.10662 0.75096 0.54071 0.0
H1335 H 0.11199 0.74073 0.59281 0.0
H1336 H 0.12518 0.77675 0.60425 0.0
C1337 C 0.27723 0.7643 0.58655 0.0
C1338 C 0.27232 0.77223 0.52927 0.0
C1339 C 0.12689 0.88108 0.56388 0.0
C1340 C 0.09606 0.87319 0.55947 0.0
C1341 C 0.08748 0.84341 0.56165 0.0
C1342 C 0.10964 0.82154 0.56678 0.0
C1343 C 0.14077 0.8295 0.56884 0.0
C1344 C 0.14885 0.85891 0.56822 0.0
C1345 C 0.18301 0.8632 0.56997 0.0
C1346 C 0.19419 0.83131 0.56998 0.0
C1347 C 0.16936 0.81191 0.56937 0.0
C1348 C 0.19045 0.87923 0.60002 0.0
C1349 C 0.19322 0.88003 0.54128 0.0
C1350 C 0.1588 0.70211 0.55852 0.0
C1351 C 0.17875 0.67895 0.55127 0.0
C1352 C 0.21054 0.68497 0.5493 0.0
C1353 C 0.22187 0.71385 0.55426 0.0
C1354 C 0.20112 0.73701 0.56051 0.0
C1355 C 0.17017 0.73055 0.56241 0.0
C1356 C 0.15044 0.75734 0.56535 0.0
C1357 C 0.17441 0.7812 0.56659 0.0
C1358 C 0.20438 0.76968 0.56387 0.0
C1359 C 0.13248 0.75502 0.59537 0.0
C1360 C 0.13003 0.75963 0.53658 0.0
H1361 H 0.24483 0.8818 0.57788 0.0
H1362 H 0.32629 0.80735 0.55862 0.0
H1363 H 0.2676 0.78949 0.51201 0.0
H1364 H 0.25846 0.75293 0.52278 0.0
H1365 H 0.29698 0.76612 0.5278 0.0
H1366 H 0.27484 0.77573 0.6086 0.0
H1367 H 0.30197 0.75949 0.58292 0.0
H1368 H 0.26495 0.74316 0.58865 0.0
H1369 H 0.13405 0.9039 0.56205 0.0
H1370 H 0.06375 0.83703 0.55858 0.0
H1371 H 0.10167 0.79921 0.56788 0.0
H1372 H 0.17158 0.87698 0.6167 0.0
H1373 H 0.19416 0.90324 0.59642 0.0
H1374 H 0.21084 0.86967 0.61144 0.0
H1375 H 0.18127 0.87122 0.52105 0.0
H1376 H 0.21788 0.87776 0.53634 0.0
H1377 H 0.18765 0.90394 0.54303 0.0
H1378 H 0.29687 0.89736 0.57545 0.0
C1379 C 0.26164 0.865 0.57384 0.0
C1380 C 0.36013 0.20749 0.53298 0.0
C1381 C 0.36304 0.17657 0.53668 0.0
C1382 C 0.33784 0.16015 0.54663 0.0
C1383 C 0.30715 0.20448 0.54965 0.0
C1384 C 0.33154 0.22104 0.53935 0.0
C1385 C 0.32263 0.25341 0.53626 0.0
H1386 H 0.20684 0.35591 0.54758 0.0
C1387 C 0.28086 0.22423 0.55477 0.0
C1388 C 0.28927 0.25316 0.54701 0.0
H1389 H 0.29884 0.37214 0.51576 0.0
H1390 H 0.31262 0.32086 0.52619 0.0
H1391 H 0.19731 0.301 0.51377 0.0
H1392 H 0.22588 0.31418 0.60529 0.0
H1393 H 0.19839 0.28582 0.60541 0.0
H1394 H 0.1879 0.32196 0.59167 0.0
H1395 H 0.17011 0.30795 0.54317 0.0
H1396 H 0.18216 0.27095 0.53349 0.0
C1397 C 0.32522 0.26205 0.50275 0.0
C1398 C 0.3433 0.2719 0.55717 0.0
C1399 C 0.18084 0.17781 0.58525 0.0
C1400 C 0.1506 0.1885 0.58567 0.0
C1401 C 0.14542 0.21923 0.58474 0.0
C1402 C 0.17005 0.23877 0.58108 0.0
C1403 C 0.19994 0.2273 0.5776 0.0
C1404 C 0.20486 0.19733 0.58046 0.0
C1405 C 0.23706 0.18835 0.57309 0.0
C1406 C 0.25093 0.21794 0.56519 0.0
C1407 C 0.22926 0.24057 0.5679 0.0
C1408 C 0.23597 0.16721 0.54541 0.0
C1409 C 0.25153 0.17496 0.60202 0.0
C1410 C 0.23028 0.34893 0.54356 0.0
C1411 C 0.2518 0.36834 0.53124 0.0
C1412 C 0.28171 0.35761 0.52524 0.0
C1413 C 0.28963 0.32786 0.53119 0.0
C1414 C 0.2673 0.3086 0.54281 0.0
C1415 C 0.23832 0.31962 0.54901 0.0
C1416 C 0.2166 0.29658 0.55989 0.0
C1417 C 0.23717 0.26973 0.55981 0.0
C1418 C 0.26701 0.2764 0.54962 0.0
C1419 C 0.19 0.29394 0.53666 0.0
C1420 C 0.20635 0.30497 0.59219 0.0
H1421 H 0.2923 0.15978 0.56125 0.0
H1422 H 0.37943 0.22057 0.52555 0.0
H1423 H 0.34459 0.26166 0.57991 0.0
H1424 H 0.33446 0.29453 0.56053 0.0
H1425 H 0.36698 0.27326 0.54808 0.0
H1426 H 0.31458 0.24485 0.48824 0.0
H1427 H 0.34964 0.26424 0.49601 0.0
H1428 H 0.31314 0.28284 0.49741 0.0
H1429 H 0.18568 0.15431 0.58498 0.0
H1430 H 0.12224 0.22795 0.58501 0.0
H1431 H 0.16462 0.26185 0.57941 0.0
H1432 H 0.21515 0.17109 0.5314 0.0
H1433 H 0.23573 0.14368 0.55252 0.0
H1434 H 0.25515 0.17066 0.52953 0.0
H1435 H 0.24233 0.18586 0.62259 0.0
H1436 H 0.2766 0.17832 0.60339 0.0
H1437 H 0.24651 0.15099 0.60385 0.0
H1438 H 0.33983 0.13647 0.54995 0.0
C1439 C 0.31019 0.17386 0.55335 0.0
Zn1440 Zn 0.97726 0.01821 0.42207 0.0
Zn1441 Zn 0.95946 0.05614 0.46972 0.0
O1442 O 0.97825 0.01555 0.46822 0.0
H1443 H 0.97157 0.99859 0.4796 0.0
C1444 C 0.97328 0.95464 0.5798 0.0
O1445 O 0.99632 0.9718 0.57272 0.0
Zn1446 Zn 0.07642 0.05968 0.59047 0.0
Zn1447 Zn 0.0443 0.0241 0.63928 0.0
O1448 O 0.04423 0.02806 0.59353 0.0
H1449 H 0.03819 0.01411 0.57825 0.0
Zn1450 Zn 0.9675 0.00498 0.61221 0.0
O1451 O 0.97023 0.02985 0.57404 0.0
Zn1452 Zn 0.97126 0.07066 0.58884 0.0
H1453 H 0.96659 0.02344 0.5536 0.0
Zn1454 Zn 0.04635 0.01428 0.46581 0.0
O1455 O 0.07825 0.02792 0.49631 0.0
H1456 H 0.09732 0.01756 0.49993 0.0
Zn1457 Zn 0.07236 0.06547 0.47497 0.0
C1458 C 0.03408 0.97018 0.50538 0.0
O1459 O 0.02996 0.9951 0.52003 0.0
O1460 O 0.9376 0.03656 0.40578 0.0
O1461 O 0.91788 0.05635 0.44717 0.0
O1462 O 0.08819 0.02958 0.65453 0.0
O1463 O 0.11457 0.04566 0.61499 0.0
O1464 O 0.94858 0.02668 0.64862 0.0
O1465 O 0.94986 0.07258 0.63026 0.0
C1466 C 0.01419 0.08481 0.44493 0.0
O1467 O 0.05762 0.02581 0.42222 0.0
O1468 O 0.09047 0.0616 0.43319 0.0
O1469 O 0.02151 0.98949 0.66125 0.0
C1470 C 0.91562 0.04951 0.41927 0.0
O1471 O 0.99708 0.98594 0.39468 0.0
C1472 C 0.03062 0.09887 0.61137 0.0
O1473 O 0.95623 0.96216 0.60162 0.0
C1474 C 0.11362 0.03605 0.64217 0.0
O1475 O 0.0375 0.97117 0.47701 0.0
C1476 C 0.9504 0.09497 0.52767 0.0
O1477 O 0.98542 0.08196 0.44273 0.0
O1478 O 0.02771 0.07176 0.46671 0.0
C1479 C 0.94341 0.0543 0.65134 0.0
O1480 O 0.05952 0.0957 0.61231 0.0
O1481 O 0.01561 0.08044 0.59556 0.0
C1482 C 0.08836 0.09378 0.53253 0.0
O1483 O 0.95309 0.09762 0.55628 0.0
O1484 O 0.95921 0.07113 0.5146 0.0
C1485 C 0.07752 0.04471 0.41388 0.0
O1486 O 0.08752 0.0967 0.50385 0.0
O1487 O 0.08173 0.06905 0.5448 0.0
C1488 C 0.03087 0.98293 0.68764 0.0
O1489 O 0.05297 0.99866 0.69968 0.0
C1490 C 0.98118 0.97429 0.37375 0.0
O1491 O 0.95241 0.98241 0.37035 0.0
Zn1492 Zn 0.4134 0.06287 0.01854 0.0
Zn1493 Zn 0.4602 0.08318 0.98959 0.0
O1494 O 0.45829 0.06812 0.03173 0.0
H1495 H 0.47071 0.05219 0.03963 0.0
C1496 C 0.55663 0.06477 0.08749 0.0
O1497 O 0.54502 0.05061 0.06435 0.0
Zn1498 Zn 0.58777 0.97825 1.00087 0.0
Zn1499 Zn 0.6407 0.00924 0.01102 0.0
O1500 O 0.59838 0.00801 0.03221 0.0
H1501 H 0.58581 0.02508 0.03625 0.0
Zn1502 Zn 0.59646 0.07832 0.04038 0.0
O1503 O 0.55839 0.08928 0.01694 0.0
Zn1504 Zn 0.5775 0.08348 0.97765 0.0
H1505 H 0.54432 0.10492 0.02245 0.0
Zn1506 Zn 0.47136 0.94523 0.06642 0.0
O1507 O 0.47461 0.98649 0.04976 0.0
H1508 H 0.48929 1.00154 0.05512 0.0
Zn1509 Zn 0.45861 0.97649 0.00926 0.0
C1510 C 0.53755 0.93762 0.07585 0.0
O1511 O 0.53768 0.96616 0.07051 0.0
O1512 O 0.39367 0.10033 1.00048 0.0
O1513 O 0.43646 0.12245 0.9866 0.0
O1514 O 0.65735 0.96805 1.00009 0.0
O1515 O 0.61552 0.9418 0.00911 0.0
O1516 O 0.6343 0.10184 0.02486 0.0
O1517 O 0.61829 0.10674 0.97744 0.0
C1518 C 0.43335 0.02744 0.9686 0.0
O1519 O 0.43181 0.92237 0.05485 0.0
O1520 O 0.42138 0.94702 0.01283 0.0
O1521 O 0.67447 0.0372 0.02802 0.0
C1522 C 0.40735 0.12305 0.99044 0.0
O1523 O 0.38561 0.03879 0.04696 0.0
C1524 C 0.60309 0.02382 0.95753 0.0
O1525 O 0.58282 0.07685 0.08476 0.0
C1526 C 0.64439 0.94324 0.00396 0.0
O1527 O 0.51226 0.92366 0.07516 0.0
C1528 C 0.51598 0.09578 0.95316 0.0
O1529 O 0.43573 0.05503 0.96403 0.0
O1530 O 0.44841 0.01614 0.99036 0.0
C1531 C 0.63823 0.11161 0.99813 0.0
O1532 O 0.60454 0.9962 0.96256 0.0
O1533 O 0.58523 0.03947 0.97372 0.0
C1534 C 0.52235 0.95994 0.97989 0.0
O1535 O 0.54479 0.09764 0.94809 0.0
O1536 O 0.50603 0.08468 0.97757 0.0
C1537 C 0.41449 0.92699 0.03214 0.0
O1538 O 0.49312 0.96004 0.98305 0.0
O1539 O 0.53987 0.97171 0.99975 0.0
C1540 C 0.7013 0.02705 0.03305 0.0
O1541 O 0.70735 0.99929 0.02667 0.0
C1542 C 0.36143 0.05115 0.05686 0.0
O1543 O 0.35464 0.07806 0.04788 0.0
Zn1544 Zn 0.97347 0.48077 0.97305 0.0
Zn1545 Zn 0.9497 0.54898 0.9744 0.0
O1546 O 0.98525 0.52284 0.96124 0.0
H1547 H 0.99858 0.52702 0.94443 0.0
C1548 C 0.98396 0.42993 0.03042 0.0
O1549 O 0.00876 0.42158 0.045 0.0
Zn1550 Zn 0.07354 0.55794 0.0756 0.0
Zn1551 Zn 0.07357 0.48565 0.09297 0.0
O1552 O 0.04691 0.52328 0.0877 0.0
H1553 H 0.02833 0.52601 0.09912 0.0
Zn1554 Zn 0.00045 0.48939 0.05487 0.0
O1555 O 0.00345 0.53287 0.04191 0.0
Zn1556 Zn 0.98632 0.55858 0.07517 0.0
H1557 H 0.00777 0.53971 0.02183 0.0
Zn1558 Zn 0.05331 0.50958 0.94741 0.0
O1559 O 0.04976 0.53545 0.98498 0.0
H1560 H 0.05948 0.53015 0.00379 0.0
Zn1561 Zn 0.04204 0.57655 0.9688 0.0
C1562 C 0.06566 0.44773 0.96934 0.0
O1563 O 0.04213 0.45285 0.98705 0.0
O1564 O 0.92792 0.47964 0.98351 0.0
O1565 O 0.91096 0.52494 0.97247 0.0
O1566 O 0.11856 0.49439 0.08097 0.0
O1567 O 0.11698 0.54308 0.07255 0.0
O1568 O 0.98297 0.48698 0.09716 0.0
O1569 O 0.96546 0.53247 0.10656 0.0
C1570 C 0.97561 0.59707 0.94794 0.0
O1571 O 0.06917 0.5347 0.91211 0.0
O1572 O 0.06566 0.58031 0.93051 0.0
O1573 O 0.06534 0.45443 0.12835 0.0
C1574 C 0.90605 0.49785 0.97898 0.0
O1575 O 0.98369 0.44418 0.94522 0.0
C1576 C 0.03978 0.59929 0.10656 0.0
O1577 O 0.9769 0.4573 0.02955 0.0
C1578 C 0.13162 0.51859 0.07377 0.0
O1579 O 0.07424 0.46783 0.95123 0.0
C1580 C 0.9492 0.58652 0.03072 0.0
O1581 O 0.94897 0.5859 0.94901 0.0
O1582 O 0.99707 0.58224 0.96033 0.0
C1583 C 0.96778 0.50503 0.11333 0.0
O1584 O 0.06755 0.59084 0.10517 0.0
O1585 O 0.01933 0.58335 0.09435 0.0
C1586 C 0.06638 0.60316 0.02393 0.0
O1587 O 0.958 0.58933 0.05775 0.0
O1588 O 0.95532 0.56239 0.01718 0.0
C1589 C 0.07386 0.56241 0.90993 0.0
O1590 O 0.05757 0.60762 0.99702 0.0
O1591 O 0.06282 0.5773 0.03523 0.0
C1592 C 0.06788 0.42637 0.12581 0.0
O1593 O 0.07549 0.41516 0.09957 0.0
C1594 C 0.00039 0.44507 0.92181 0.0
O1595 O 0.01383 0.47004 0.9147 0.0
Zn1596 Zn 0.46417 0.49341 0.01147 0.0
Zn1597 Zn 0.5004 0.47273 0.07412 0.0
O1598 O 0.50696 0.48384 0.02997 0.0
H1599 H 0.52605 0.48515 0.01907 0.0
C1600 C 0.52317 0.4005 0.91405 0.0
O1601 O 0.54573 0.41846 0.90727 0.0
Zn1602 Zn 0.5648 0.5534 0.05904 0.0
Zn1603 Zn 0.56677 0.52842 0.98826 0.0
O1604 O 0.53775 0.54154 0.02233 0.0
H1605 H 0.5163 0.54521 0.01813 0.0
Zn1606 Zn 0.53255 0.42963 0.97377 0.0
O1607 O 0.52439 0.42849 0.01948 0.0
Zn1608 Zn 0.56395 0.43771 0.04245 0.0
H1609 H 0.50566 0.42163 0.0287 0.0
Zn1610 Zn 0.5291 0.59104 0.98104 0.0
O1611 O 0.5444 0.59703 0.02444 0.0
H1612 H 0.56305 0.60703 0.03019 0.0
Zn1613 Zn 0.50847 0.58615 0.05237 0.0
C1614 C 0.56953 0.62106 0.93236 0.0
O1615 O 0.59407 0.6123 0.94715 0.0
O1616 O 0.42902 0.48556 0.0421 0.0
O1617 O 0.45542 0.46548 0.07992 0.0
O1618 O 0.61182 0.53395 1.00012 0.0
O1619 O 0.60689 0.55974 0.04262 0.0
O1620 O 0.57841 0.43435 0.96791 0.0
O1621 O 0.60035 0.43149 0.01336 0.0
C1622 C 0.50436 0.53466 0.09856 0.0
O1623 O 0.48244 0.58969 0.98111 0.0
O1624 O 0.46902 0.59192 0.02952 0.0
O1625 O 0.56255 0.54227 0.94298 0.0
C1626 C 0.43005 0.47301 0.06782 0.0
O1627 O 0.45215 0.48817 0.96495 0.0
C1628 C 0.57458 0.49189 0.08471 0.0
O1629 O 0.51251 0.4009 0.9409 0.0
C1630 C 0.62324 0.5493 0.02132 0.0
O1631 O 0.54313 0.61517 0.94285 0.0
C1632 C 0.54129 0.41498 0.09706 0.0
O1633 O 0.50494 0.50689 0.10293 0.0
O1634 O 0.50765 0.5446 0.07186 0.0
C1635 C 0.60219 0.43287 0.98453 0.0
O1636 O 0.57285 0.51979 0.08699 0.0
O1637 O 0.56677 0.47966 0.05984 0.0
C1638 C 0.53823 0.60905 0.09923 0.0
O1639 O 0.56293 0.41105 0.07818 0.0
O1640 O 0.52189 0.436 0.09327 0.0
C1641 C 0.46214 0.59152 0.00155 0.0
O1642 O 0.51274 0.61332 0.08609 0.0
O1643 O 0.55644 0.58874 0.08966 0.0
C1644 C 0.55423 0.52554 0.92143 0.0
O1645 O 0.54305 0.49938 0.9279 0.0
C1646 C 0.45302 0.50872 0.94525 0.0
O1647 O 0.46423 0.53449 0.95302 0.0
Zn1648 Zn 0.93536 0.51326 0.4772 0.0
Zn1649 Zn 0.96103 0.56044 0.45078 0.0
O1650 O 0.97616 0.51969 0.45473 0.0
H1651 H 0.98365 0.50729 0.43862 0.0
C1652 C 0.85105 0.47834 0.53275 0.0
O1653 O 0.84771 0.48552 0.56121 0.0
Zn1654 Zn 0.07849 0.55995 0.55699 0.0
Zn1655 Zn 0.09722 0.49689 0.54741 0.0
O1656 O 0.05934 0.52122 0.55714 0.0
H1657 H 0.04236 0.51539 0.56974 0.0
Zn1658 Zn 0.89837 0.52455 0.53707 0.0
O1659 O 0.94541 0.52116 0.53786 0.0
Zn1660 Zn 0.95188 0.55865 0.56088 0.0
H1661 H 0.95612 0.50301 0.54248 0.0
Zn1662 Zn 0.14105 0.51434 0.47702 0.0
O1663 O 0.09403 0.51331 0.47446 0.0
H1664 H 0.0813 0.4959 0.4746 0.0
Zn1665 Zn 0.08926 0.54946 0.44843 0.0
C1666 C 0.19253 0.4741 0.48767 0.0
O1667 O 0.20185 0.48733 0.46304 0.0
O1668 O 0.89755 0.52849 0.45398 0.0
O1669 O 0.92145 0.55948 0.42364 0.0
O1670 O 0.13532 0.51195 0.57056 0.0
O1671 O 0.11975 0.55777 0.58119 0.0
O1672 O 0.8822 0.53899 0.57777 0.0
O1673 O 0.92473 0.55516 0.59989 0.0
C1674 C 0.02754 0.5822 0.43556 0.0
O1675 O 0.16029 0.52962 0.43794 0.0
O1676 O 0.11999 0.54539 0.41161 0.0
O1677 O 0.08358 0.45392 0.55196 0.0
C1678 C 0.8971 0.54542 0.43112 0.0
O1679 O 0.93136 0.46945 0.48756 0.0
C1680 C 0.01527 0.58756 0.57292 0.0
O1681 O 0.87135 0.49152 0.51714 0.0
C1682 C 0.13986 0.53696 0.58305 0.0
O1683 O 0.16673 0.48145 0.49897 0.0
C1684 C 0.93267 0.59144 0.50694 0.0
O1685 O 0.99814 0.5851 0.43638 0.0
O1686 O 0.04096 0.55802 0.44329 0.0
C1687 C 0.89607 0.54861 0.60101 0.0
O1688 O 0.04475 0.58837 0.57178 0.0
O1689 O 0.00019 0.56473 0.56449 0.0
C1690 C 0.10744 0.58471 0.49996 0.0
O1691 O 0.93169 0.59093 0.5356 0.0
O1692 O 0.94972 0.57253 0.49367 0.0
C1693 C 0.14883 0.53956 0.41357 0.0
O1694 O 0.10936 0.58247 0.47156 0.0
O1695 O 0.08864 0.56796 0.5136 0.0
C1696 C 0.05696 0.45115 0.54068 0.0
O1697 O 0.04674 0.47176 0.52236 0.0
C1698 C 0.95662 0.45698 0.49392 0.0
O1699 O 0.98081 0.47362 0.49846 0.0
Zn1700 Zn 0.48875 0.98466 0.46827 0.0
Zn1701 Zn 0.46515 0.05401 0.48092 0.0
O1702 O 0.50219 0.02646 0.48082 0.0
H1703 H 0.52196 0.03148 0.48914 0.0
C1704 C 0.43152 0.91353 0.54664 0.0
O1705 O 0.4516 0.90403 0.52682 0.0
Zn1706 Zn 0.58152 0.05788 0.53409 0.0
Zn1707 Zn 0.59717 0.99014 0.55684 0.0
O1708 O 0.5646 0.01614 0.53631 0.0
H1709 H 0.54365 0.01018 0.53283 0.0
Zn1710 Zn 0.47351 0.96693 0.55256 0.0
O1711 O 0.46548 0.00847 0.53686 0.0
Zn1712 Zn 0.47708 0.03619 0.57159 0.0
H1713 H 0.44961 0.01139 0.52194 0.0
Zn1714 Zn 0.57481 0.98879 0.41477 0.0
O1715 O 0.57129 0.01895 0.44988 0.0
H1716 H 0.57577 0.01483 0.47078 0.0
Zn1717 Zn 0.55824 0.0585 0.43244 0.0
C1718 C 0.60648 0.93011 0.43145 0.0
O1719 O 0.58358 0.92661 0.45028 0.0
O1720 O 0.44278 0.9849 0.4593 0.0
O1721 O 0.42908 0.0325 0.46171 0.0
O1722 O 0.63074 0.01604 0.57606 0.0
O1723 O 0.62274 0.0595 0.55396 0.0
O1724 O 0.50132 0.97238 0.58932 0.0
O1725 O 0.47651 0.01031 0.60922 0.0
C1726 C 0.49911 0.09403 0.44558 0.0
O1727 O 0.56477 0.00825 0.37302 0.0
O1728 O 0.55621 0.05451 0.38795 0.0
O1729 O 0.58627 0.95167 0.58141 0.0
C1730 C 0.42305 0.00546 0.45582 0.0
O1731 O 0.51278 0.95796 0.43673 0.0
C1732 C 0.53106 0.07975 0.57147 0.0
O1733 O 0.4357 0.9385 0.55927 0.0
C1734 C 0.63813 0.0429 0.57157 0.0
O1735 O 0.60762 0.95361 0.41556 0.0
C1736 C 0.44511 0.08083 0.54482 0.0
O1737 O 0.47357 0.09184 0.45895 0.0
O1738 O 0.51668 0.07145 0.44629 0.0
C1739 C 0.48906 0.98481 0.61198 0.0
O1740 O 0.55685 0.08574 0.55982 0.0
O1741 O 0.51867 0.05505 0.56462 0.0
C1742 C 0.59047 0.09377 0.47378 0.0
O1743 O 0.44807 0.07115 0.57151 0.0
O1744 O 0.45585 0.06481 0.52383 0.0
C1745 C 0.55788 0.03514 0.36726 0.0
O1746 O 0.58524 0.09168 0.44572 0.0
O1747 O 0.58253 0.0722 0.49057 0.0
C1748 C 0.56545 0.93264 0.57632 0.0
O1749 O 0.54718 0.93614 0.55302 0.0
C1750 C 0.51072 0.92985 0.43814 0.0
O1751 O 0.49583 0.91802 0.4608 0.0
C1752 C 0.10675 0.17193 0.5544 0.0
C1753 C 0.12581 0.1672 0.5795 0.0
H1754 H 0.07978 0.15194 0.5197 0.0
C1755 C 0.12725 0.13889 0.5924 0.0
H1756 H 0.10534 0.19343 0.54377 0.0
C1757 C 0.11378 0.11501 0.57782 0.0
C1758 C 0.09738 0.11924 0.55101 0.0
H1759 H 0.14167 0.13469 0.61185 0.0
H1760 H 0.11836 0.09308 0.58621 0.0
C1761 C 0.09264 0.14807 0.54024 0.0
C1762 C 0.91469 0.13925 0.46412 0.0
C1763 C 0.90093 0.16239 0.47994 0.0
H1764 H 0.94134 0.1006 0.46668 0.0
C1765 C 0.90671 0.16556 0.51085 0.0
H1766 H 0.91065 0.13653 0.4402 0.0
C1767 C 0.92402 0.14428 0.52615 0.0
C1768 C 0.93585 0.11958 0.51071 0.0
H1769 H 0.89603 0.18324 0.52357 0.0
H1770 H 0.92679 0.14653 0.55028 0.0
C1771 C 0.93209 0.11828 0.47942 0.0
C1772 C 0.93199 0.89059 0.5441 0.0
C1773 C 0.93203 0.89942 0.51376 0.0
H1774 H 0.94511 0.90163 0.58937 0.0
C1775 C 0.94805 0.92475 0.50516 0.0
H1776 H 0.91938 0.8712 0.55111 0.0
C1777 C 0.96288 0.94172 0.52679 0.0
C1778 C 0.96174 0.93377 0.55731 0.0
H1779 H 0.94812 0.93199 0.4819 0.0
H1780 H 0.97354 0.96212 0.51986 0.0
C1781 C 0.94651 0.90791 0.56588 0.0
C1782 C 0.07243 0.92302 0.56392 0.0
C1783 C 0.07401 0.89575 0.54916 0.0
H1784 H 0.0584 0.96801 0.5615 0.0
C1785 C 0.05815 0.89182 0.52188 0.0
H1786 H 0.08446 0.92647 0.585 0.0
C1787 C 0.04312 0.91568 0.50829 0.0
C1788 C 0.04352 0.94357 0.52206 0.0
H1789 H 0.05929 0.87094 0.51 0.0
H1790 H 0.03263 0.91272 0.48637 0.0
C1791 C 0.05729 0.94672 0.55051 0.0
C1792 C 0.52852 0.10334 0.15698 0.0
C1793 C 0.49735 0.10705 0.14973 0.0
H1794 H 0.57218 0.08673 0.14264 0.0
C1795 C 0.48502 0.09236 0.12484 0.0
H1796 H 0.53845 0.11474 0.1761 0.0
C1797 C 0.50413 0.07573 0.10622 0.0
C1798 C 0.53594 0.07454 0.11166 0.0
H1799 H 0.46103 0.09503 0.11896 0.0
H1800 H 0.49433 0.06591 0.08623 0.0
C1801 C 0.5478 0.08742 0.13789 0.0
C1802 C 0.92553 0.44841 0.15911 0.0
C1803 C 0.90245 0.46587 0.17173 0.0
H1804 H 0.96549 0.44744 0.13157 0.0
C1805 C 0.90361 0.49672 0.16914 0.0
H1806 H 0.92488 0.42456 0.16112 0.0
C1807 C 0.92651 0.50998 0.15199 0.0
C1808 C 0.9485 0.49243 0.13733 0.0
H1809 H 0.88576 0.51041 0.17891 0.0
H1810 H 0.92578 0.53369 0.14874 0.0
C1811 C 0.94867 0.46163 0.14227 0.0
C1812 C 0.58842 0.87776 0.10667 0.0
C1813 C 0.61147 0.8942 0.12127 0.0
H1814 H 0.54722 0.87862 0.08074 0.0
C1815 C 0.613 0.92479 0.11583 0.0
H1816 H 0.58602 0.85424 0.11036 0.0
C1817 C 0.59015 0.9389 0.09883 0.0
C1818 C 0.56538 0.92264 0.08722 0.0
H1819 H 0.63068 0.93806 0.12627 0.0
H1820 H 0.59074 0.96274 0.09668 0.0
C1821 C 0.5657 0.89181 0.0899 0.0
C1822 C 0.21329 0.50365 0.09348 0.0
C1823 C 0.22525 0.53206 0.08879 0.0
H1824 H 0.17316 0.47679 0.09205 0.0
C1825 C 0.20955 0.55166 0.06967 0.0
H1826 H 0.22516 0.48786 0.10773 0.0
C1827 C 0.1795 0.54554 0.06113 0.0
C1828 C 0.16528 0.51955 0.07126 0.0
H1829 H 0.21876 0.57339 0.06501 0.0
H1830 H 0.16644 0.56258 0.04964 0.0
C1831 C 0.18327 0.4974 0.08476 0.0
C1832 C 0.5761 0.92564 0.92249 0.0
C1833 C 0.55556 0.91831 0.89927 0.0
H1834 H 0.58147 0.94278 0.96657 0.0
C1835 C 0.52475 0.9272 0.90179 0.0
H1836 H 0.60012 0.91956 0.92115 0.0
C1837 C 0.51449 0.94165 0.92755 0.0
C1838 C 0.53462 0.9472 0.95168 0.0
H1839 H 0.50803 0.92159 0.8847 0.0
H1840 H 0.49041 0.94754 0.92889 0.0
C1841 C 0.56557 0.93946 0.94856 0.0
C1842 C 0.12975 0.5597 0.84651 0.0
C1843 C 0.14698 0.58514 0.85251 0.0
H1844 H 0.09207 0.53281 0.8597 0.0
C1845 C 0.13583 0.60634 0.87267 0.0
H1846 H 0.13784 0.5434 0.83047 0.0
C1847 C 0.10948 0.60038 0.88939 0.0
C1848 C 0.09439 0.57308 0.8861 0.0
H1849 H 0.14879 0.62621 0.8773 0.0
H1850 H 0.10268 0.61594 0.90669 0.0
C1851 C 0.10357 0.55371 0.86316 0.0
C1852 C 0.45035 0.10122 0.89837 0.0
C1853 C 0.45105 0.13137 0.89078 0.0
H1854 H 0.47219 0.066 0.9227 0.0
C1855 C 0.47331 0.14959 0.9044 0.0
H1856 H 0.43376 0.08651 0.88822 0.0
C1857 C 0.49455 0.1379 0.92462 0.0
C1858 C 0.49404 0.10782 0.93154 0.0
H1859 H 0.47538 0.1727 0.89846 0.0
H1860 H 0.51155 0.15228 0.93465 0.0
C1861 C 0.472 0.08951 0.91832 0.0
C1862 C 0.84776 0.44602 0.94879 0.0
C1863 C 0.82438 0.46596 0.94149 0.0
H1864 H 0.89222 0.4406 0.96748 0.0
C1865 C 0.82446 0.49446 0.95392 0.0
H1866 H 0.84821 0.4241 0.93914 0.0
C1867 C 0.85003 0.5043 0.96985 0.0
C1868 C 0.8754 0.4855 0.97363 0.0
H1869 H 0.80654 0.51018 0.9482 0.0
H1870 H 0.85118 0.52733 0.9764 0.0
C1871 C 0.873 0.45563 0.96514 0.0
C1872 C 0.68882 0.58754 0.98553 0.0
C1873 C 0.7002 0.6027 0.01069 0.0
H1874 H 0.65511 0.55736 0.96938 0.0
C1875 C 0.69235 0.59315 0.03972 0.0
H1876 H 0.69479 0.5944 0.96292 0.0
C1877 C 0.66945 0.57222 0.04344 0.0
C1878 C 0.65451 0.56054 0.01815 0.0
H1879 H 0.70159 0.60407 0.05944 0.0
H1880 H 0.6613 0.56752 0.06597 0.0
C1881 C 0.66609 0.56633 0.98926 0.0
C1882 C 0.37777 0.60654 0.0069 0.0
C1883 C 0.37219 0.62027 0.97902 0.0
H1884 H 0.41088 0.58636 0.03589 0.0
C1885 C 0.39508 0.62025 0.95696 0.0
H1886 H 0.36051 0.60651 0.02442 0.0
C1887 C 0.42393 0.6085 0.9635 0.0
C1888 C 0.43031 0.59725 0.99241 0.0
H1889 H 0.39112 0.63061 0.9353 0.0
H1890 H 0.44175 0.61016 0.94662 0.0
C1891 C 0.40666 0.5952 0.01359 0.0
C1892 C 0.37594 0.43519 0.12143 0.0
C1893 C 0.34813 0.43786 0.10572 0.0
H1894 H 0.4239 0.44436 0.1217 0.0
C1895 C 0.34621 0.45759 0.08133 0.0
H1896 H 0.3779 0.4203 0.14044 0.0
C1897 C 0.37264 0.47096 0.07012 0.0
C1898 C 0.40127 0.46499 0.08337 0.0
H1899 H 0.32503 0.46008 0.06876 0.0
H1900 H 0.37091 0.48405 0.04977 0.0
C1901 C 0.40232 0.44869 0.11037 0.0
C1902 C 0.65738 0.41569 0.92195 0.0
C1903 C 0.68256 0.40477 0.93803 0.0
H1904 H 0.61269 0.43457 0.92407 0.0
C1905 C 0.68361 0.40835 0.96949 0.0
H1906 H 0.65611 0.41306 0.89776 0.0
C1907 C 0.65829 0.41985 0.98492 0.0
C1908 C 0.63181 0.42821 0.96898 0.0
H1909 H 0.70287 0.39989 0.98236 0.0
H1910 H 0.65867 0.42017 0.0093 0.0
C1911 C 0.63244 0.42775 0.93722 0.0
C1912 C -6e-05 0.66531 0.59834 0.0
C1913 C 0.9775 0.66053 0.62045 0.0
H1914 H 0.0295 0.64547 0.56552 0.0
C1915 C 0.96405 0.63248 0.62294 0.0
H1916 H 0.01099 0.68659 0.59614 0.0
C1917 C 0.97518 0.60894 0.60593 0.0
C1918 C 0.9992 0.6132 0.58559 0.0
H1919 H 0.94669 0.62819 0.6398 0.0
H1920 H 0.96716 0.58699 0.61083 0.0
C1921 C 0.01078 0.64174 0.58107 0.0
C1922 C 0.4505 0.9607 0.68319 0.0
C1923 C 0.44044 0.9324 0.67469 0.0
H1924 H 0.47417 0.99991 0.66961 0.0
C1925 C 0.45158 0.91959 0.64823 0.0
H1926 H 0.44183 0.97112 0.70346 0.0
C1927 C 0.47049 0.93585 0.62924 0.0
C1928 C 0.47789 0.96538 0.63613 0.0
H1929 H 0.44391 0.89791 0.64123 0.0
H1930 H 0.47663 0.92624 0.60779 0.0
C1931 C 0.46887 0.97723 0.66386 0.0
C1932 C 0.98659 0.42888 0.58339 0.0
C1933 C 0.996 0.40183 0.59565 0.0
H1934 H 0.9988 0.46561 0.55586 0.0
C1935 C 0.02423 0.38939 0.5869 0.0
H1936 H 0.96497 0.43884 0.58995 0.0
C1937 C 0.04369 0.40473 0.5676 0.0
C1938 C 0.03483 0.43238 0.55637 0.0
H1939 H 0.03205 0.36864 0.59644 0.0
H1940 H 0.06606 0.39558 0.56239 0.0
C1941 C 0.00582 0.44398 0.56372 0.0
C1942 C 0.67789 0.06015 0.64405 0.0
C1943 C 0.68292 0.09052 0.64066 0.0
H1944 H 0.66099 0.02061 0.62403 0.0
C1945 C 0.679 0.10382 0.61249 0.0
H1946 H 0.68152 0.04951 0.66564 0.0
C1947 C 0.66728 0.08734 0.58855 0.0
C1948 C 0.65953 0.05739 0.59261 0.0
H1949 H 0.68339 0.12718 0.6095 0.0
H1950 H 0.66238 0.09854 0.56754 0.0
C1951 C 0.66655 0.0436 0.62012 0.0
C1952 C 0.99734 0.38682 0.47419 0.0
C1953 C 0.97541 0.37339 0.45564 0.0
H1954 H 0.00845 0.42426 0.50082 0.0
C1955 C 0.94529 0.38439 0.45509 0.0
H1956 H 0.02078 0.37876 0.47484 0.0
C1957 C 0.93798 0.41018 0.47073 0.0
C1958 C 0.96096 0.42558 0.48642 0.0
H1959 H 0.92799 0.37406 0.44111 0.0
H1960 H 0.9151 0.41934 0.46828 0.0
C1961 C 0.99022 0.41284 0.48928 0.0
C1962 C 0.5601 0.09123 0.30663 0.0
C1963 C 0.58106 0.07736 0.28745 0.0
H1964 H 0.53436 0.08745 0.34716 0.0
C1965 C 0.58509 0.04658 0.28906 0.0
H1966 H 0.55665 0.11495 0.3056 0.0
C1967 C 0.57332 0.03092 0.31348 0.0
C1968 C 0.55723 0.04611 0.33602 0.0
H1969 H 0.60128 0.03558 0.27429 0.0
H1970 H 0.58042 0.00817 0.31668 0.0
C1971 C 0.54779 0.07548 0.33065 0.0
C1972 C 0.04983 0.65936 0.41221 0.0
C1973 C 0.07716 0.65364 0.39629 0.0
H1974 H 0.0127 0.64104 0.4376 0.0
C1975 C 0.09013 0.62528 0.39781 0.0
H1976 H 0.03889 0.68087 0.41133 0.0
C1977 C 0.07392 0.60234 0.41094 0.0
C1978 C 0.04588 0.60742 0.42513 0.0
H1979 H 0.11129 0.62014 0.38616 0.0
H1980 H 0.08181 0.58024 0.40754 0.0
C1981 C 0.03442 0.63641 0.42673 0.0
C1982 C 0.36095 0.95979 0.42003 0.0
C1983 C 0.3495 0.97983 0.39877 0.0
H1984 H 0.3935 0.95248 0.45544 0.0
C1985 C 0.35915 0.00935 0.39935 0.0
H1986 H 0.35348 0.93699 0.41999 0.0
C1987 C 0.38132 0.01844 0.41996 0.0
C1988 C 0.39459 0.99792 0.43981 0.0
H1989 H 0.35014 0.02517 0.38325 0.0
H1990 H 0.3895 0.04099 0.41893 0.0
C1991 C 0.38362 0.96871 0.44029 0.0
C1992 C 0.06991 0.1373 0.4063 0.0
C1993 C 0.05435 0.14355 0.37905 0.0
H1994 H 0.06887 0.11527 0.4491 0.0
C1995 C 0.02817 0.12679 0.3722 0.0
H1996 H 0.09046 0.14932 0.41229 0.0
C1997 C 0.01645 0.10649 0.39301 0.0
C1998 C 0.03036 0.10241 0.42141 0.0
H1999 H 0.01522 0.13093 0.3518 0.0
H2000 H 0.99542 0.09504 0.38741 0.0
C2001 C 0.05769 0.11755 0.42747 0.0
C2002 C 0.86012 0.05348 0.35387 0.0
C2003 C 0.84119 0.07743 0.36174 0.0
H2004 H 0.8978 0.02567 0.366 0.0
C2005 C 0.84571 0.09107 0.38998 0.0
H2006 H 0.85686 0.04185 0.33281 0.0
C2007 C 0.86899 0.08128 0.4095 0.0
C2008 C 0.88839 0.05788 0.40106 0.0
H2009 H 0.83171 0.10972 0.39678 0.0
H2010 H 0.87242 0.0926 0.4307 0.0
C2011 C 0.88342 0.04394 0.37316 0.0
C2012 C 0.98736 0.9072 0.32285 0.0
C2013 C 0.01891 0.90103 0.32446 0.0
H2014 H 0.95058 0.93538 0.33729 0.0
C2015 C 0.03827 0.92133 0.33905 0.0
H2016 H 0.97186 0.8919 0.31196 0.0
C2017 C 0.02609 0.94559 0.3543 0.0
C2018 C 0.99432 0.95064 0.35462 0.0
H2019 H 0.06278 0.91742 0.34024 0.0
H2020 H 0.04151 0.95973 0.36676 0.0
C2021 C 0.97517 0.93192 0.33769 0.0
C2022 C 0.12387 0.05914 0.34381 0.0
C2023 C 0.11414 0.03561 0.32555 0.0
H2024 H 0.12005 0.08042 0.38672 0.0
C2025 C 0.08804 0.01962 0.33374 0.0
H2026 H 0.14432 0.07142 0.33804 0.0
C2027 C 0.07424 0.02464 0.3616 0.0
C2028 C 0.08681 0.04523 0.38188 0.0
H2029 H 0.08048 1.0011 0.32021 0.0
H2030 H 0.0554 0.0106 0.36822 0.0
C2031 C 0.11036 0.06387 0.37192 0.0
C2032 C 0.98471 0.91447 0.7062 0.0
C2033 C 0.00128 0.90254 0.73068 0.0
H2034 H 0.98112 0.94893 0.67325 0.0
C2035 C 0.02575 0.91891 0.74264 0.0
H2036 H 0.96531 0.90279 0.69677 0.0
C2037 C 0.03453 0.94562 0.72935 0.0
C2038 C 0.0192 0.95649 0.70366 0.0
H2039 H 0.03918 0.91035 0.76125 0.0
H2040 H 0.05422 0.95709 0.73847 0.0
C2041 C 0.99371 0.94098 0.69271 0.0
C2042 C 0.19684 0.02082 0.66452 0.0
C2043 C 0.1935 0.01296 0.69511 0.0
H2044 H 0.17438 0.03464 0.6236 0.0
C2045 C 0.16421 0.01485 0.70805 0.0
H2046 H 0.21914 0.02001 0.65385 0.0
C2047 C 0.13894 0.02351 0.69094 0.0
C2048 C 0.14188 0.03036 0.66015 0.0
H2049 H 0.16042 0.00856 0.73126 0.0
H2050 H 0.11677 0.02406 0.70192 0.0
C2051 C 0.17127 0.02947 0.6472 0.0
C2052 C 0.97029 0.15176 0.64147 0.0
C2053 C 0.98677 0.16845 0.66285 0.0
H2054 H 0.97154 0.11901 0.60713 0.0
C2055 C 0.01771 0.1609 0.66802 0.0
H2056 H 0.9462 0.1558 0.63724 0.0
C2057 C 0.03178 0.13802 0.65167 0.0
C2058 C 0.01542 0.12236 0.62947 0.0
H2059 H 0.03151 0.17336 0.68377 0.0
H2060 H 0.0557 0.13303 0.65602 0.0
C2061 C 0.98462 0.12976 0.62453 0.0
C2062 C 0.92067 0.10606 0.7143 0.0
C2063 C 0.89663 0.09044 0.72807 0.0
H2064 H 0.95427 0.10668 0.67927 0.0
C2065 C 0.89129 0.06106 0.71915 0.0
H2066 H 0.92579 0.12853 0.72098 0.0
C2067 C 0.90764 0.04864 0.69512 0.0
C2068 C 0.92937 0.0655 0.67942 0.0
H2069 H 0.87278 0.04847 0.72903 0.0
H2070 H 0.90186 0.02659 0.6876 0.0
C2071 C 0.93668 0.09377 0.69011 0.0
C2072 C 0.30731 0.04138 0.12239 0.0
C2073 C 0.31507 0.01282 0.1323 0.0
H2074 H 0.31576 0.07584 0.09059 0.0
C2075 C 0.33561 0.99578 0.11508 0.0
H2076 H 0.29177 0.05518 0.13524 0.0
C2077 C 0.34972 0.00778 0.08971 0.0
C2078 C 0.34337 0.03698 0.08092 0.0
H2079 H 0.34155 0.97346 0.12176 0.0
H2080 H 0.36634 0.99449 0.0776 0.0
C2081 C 0.32125 0.0533 0.09688 0.0
C2082 C 0.05568 0.35672 0.17338 0.0
C2083 C 0.04937 0.36867 0.20193 0.0
H2084 H 0.0662 0.36542 0.12697 0.0
C2085 C 0.0509 0.39965 0.20536 0.0
H2086 H 0.05465 0.33308 0.1698 0.0
C2087 C 0.05707 0.41818 0.18087 0.0
C2088 C 0.06231 0.4064 0.15209 0.0
H2089 H 0.0469 0.40976 0.22712 0.0
H2090 H 0.05749 0.44184 0.18453 0.0
C2091 C 0.06206 0.37536 0.14876 0.0
C2092 C 0.73579 0.09118 0.07487 0.0
C2093 C 0.75403 0.07627 0.09627 0.0
H2094 H 0.70409 0.08686 0.03824 0.0
C2095 C 0.76035 0.04611 0.0919 0.0
H2096 H 0.73085 0.11453 0.07741 0.0
C2097 C 0.74524 0.03039 0.06921 0.0
C2098 C 0.72341 0.04459 0.05082 0.0
H2099 H 0.77419 0.03396 0.10801 0.0
H2100 H 0.74848 0.00667 0.06805 0.0
C2101 C 0.72024 0.07536 0.05263 0.0
C2102 C 0.99691 0.66053 0.14718 0.0
C2103 C 0.01972 0.68231 0.14922 0.0
H2104 H 0.9853 0.61696 0.13177 0.0
C2105 C 0.04761 0.67788 0.13418 0.0
H2106 H 0.9756 0.66307 0.15945 0.0
C2107 C 0.05381 0.65103 0.11998 0.0
C2108 C 0.03188 0.62839 0.11966 0.0
H2109 H 0.06588 0.69393 0.13621 0.0
H2110 H 0.07628 0.64762 0.11035 0.0
C2111 C 0.00276 0.63392 0.13201 0.0
C2112 C 0.37494 0.00956 0.90841 0.0
C2113 C 0.37515 0.97848 0.90786 0.0
H2114 H 0.39259 0.04897 0.92795 0.0
C2115 C 0.39424 0.96349 0.92865 0.0
H2116 H 0.36154 0.02228 0.89247 0.0
C2117 C 0.41351 0.97913 0.94817 0.0
C2118 C 0.41321 0.01007 0.94843 0.0
H2119 H 0.39503 0.93963 0.92952 0.0
H2120 H 0.4293 0.96701 0.96226 0.0
C2121 C 0.3934 0.02505 0.92854 0.0
C2122 C 0.98084 0.37277 0.88225 0.0
C2123 C 0.99804 0.37534 0.85566 0.0
H2124 H 0.96804 0.39285 0.92425 0.0
C2125 C 0.01867 0.39899 0.8529 0.0
H2126 H 0.9646 0.35492 0.88488 0.0
C2127 C 0.02055 0.42072 0.87516 0.0
C2128 C 0.00179 0.41944 0.90081 0.0
H2129 H 0.03237 0.40142 0.83272 0.0
H2130 H 0.03581 0.43921 0.87159 0.0
C2131 C 0.98269 0.39464 0.90466 0.0
C2132 C 0.64101 0.07679 0.90265 0.0
C2133 C 0.6686 0.06177 0.89608 0.0
H2134 H 0.59836 0.07646 0.92666 0.0
C2135 C 0.67421 0.0344 0.90994 0.0
H2136 H 0.63603 0.09802 0.89246 0.0
C2137 C 0.65266 0.02219 0.92954 0.0
C2138 C 0.62503 0.0371 0.936 0.0
H2139 H 0.69492 0.02201 0.90507 0.0
H2140 H 0.65781 1.00102 0.9398 0.0
C2141 C 0.61947 0.06458 0.9224 0.0
C2142 C 0.95958 0.66424 0.89953 0.0
C2143 C 0.98905 0.6717 0.88959 0.0
H2144 H 0.9323 0.63459 0.92549 0.0
C2145 C 0.01454 0.6574 0.90251 0.0
H2146 H 0.93955 0.67451 0.88944 0.0
C2147 C 0.01045 0.63451 0.92342 0.0
C2148 C 0.98081 0.62486 0.93084 0.0
H2149 H 0.03749 0.6624 0.89475 0.0
H2150 H 0.03038 0.62331 0.93229 0.0
C2151 C 0.95548 0.641 0.91983 0.0
C2152 C 0.12813 0.39009 0.95799 0.0
C2153 C 0.12533 0.37323 0.98436 0.0
H2154 H 0.11147 0.42709 0.93256 0.0
C2155 C 0.1004 0.3786 0.00363 0.0
H2156 H 0.14751 0.38675 0.94312 0.0
C2157 C 0.07978 0.40166 0.99769 0.0
C2158 C 0.08404 0.42019 0.97265 0.0
H2159 H 0.09807 0.36617 0.02435 0.0
H2160 H 0.06172 0.40608 0.01378 0.0
C2161 C 0.10773 0.41344 0.95223 0.0
C2162 C 0.12626 0.64485 0.06929 0.0
C2163 C 0.12517 0.67309 0.05559 0.0
H2164 H 0.11057 0.60013 0.06846 0.0
C2165 C 0.1003 0.67923 0.03635 0.0
H2166 H 0.14435 0.63932 0.08508 0.0
C2167 C 0.07943 0.65695 0.02855 0.0
C2168 C 0.0831 0.62774 0.0392 0.0
H2169 H 0.09836 0.70039 0.02516 0.0
H2170 H 0.0617 0.66213 0.01223 0.0
C2171 C 0.10632 0.62225 0.06033 0.0
C2172 C 0.33972 0.17587 0.99265 0.0
C2173 C 0.35446 0.20332 0.99348 0.0
H2174 H 0.34492 0.12894 0.99073 0.0
C2175 C 0.3863 0.20433 0.98798 0.0
H2176 H 0.31531 0.17433 0.99687 0.0
C2177 C 0.40346 0.17829 0.98463 0.0
C2178 C 0.38911 0.15068 0.98683 0.0
H2179 H 0.39824 0.22528 0.98812 0.0
H2180 H 0.42814 0.17979 0.98233 0.0
C2181 C 0.35685 0.14984 0.98941 0.0
C2182 C 0.95342 0.35884 0.99569 0.0
C2183 C 0.92193 0.36516 0.99379 0.0
H2184 H 0.99798 0.37457 0.0089 0.0
C2185 C 0.91101 0.39228 0.00485 0.0
H2186 H 0.96242 0.33833 0.98669 0.0
C2187 C 0.9312 0.41324 0.01657 0.0
C2188 C 0.96282 0.40743 0.01786 0.0
H2189 H 0.88681 0.3977 0.00332 0.0
H2190 H 0.92199 0.43406 0.0246 0.0
C2191 C 0.9737 0.37971 0.008 0.0
C2192 C 0.71016 0.8918 0.98515 0.0
C2193 C 0.70768 0.8699 0.00749 0.0
H2194 H 0.69187 0.93182 0.96647 0.0
C2195 C 0.68299 0.87195 0.02804 0.0
H2196 H 0.72819 0.89088 0.96846 0.0
C2197 C 0.66129 0.89481 0.02595 0.0
C2198 C 0.66423 0.91668 0.00384 0.0
H2199 H 0.68047 0.85605 0.04606 0.0
H2200 H 0.64295 0.89603 0.04234 0.0
C2201 C 0.68895 0.91503 0.98361 0.0
C2202 C 0.92968 0.66511 0.00725 0.0
C2203 C 0.90466 0.66077 0.98781 0.0
H2204 H 0.96348 0.64482 0.03588 0.0
C2205 C 0.89453 0.63155 0.98272 0.0
H2206 H 0.93799 0.68716 0.01186 0.0
C2207 C 0.90909 0.60744 0.99635 0.0
C2208 C 0.93415 0.61181 0.01549 0.0
H2209 H 0.87469 0.6272 0.96875 0.0
H2210 H 0.90047 0.58539 0.99226 0.0
C2211 C 0.94422 0.64086 0.02099 0.0
C2212 C 0.35358 0.86772 0.04555 0.0
C2213 C 0.33904 0.866 0.01736 0.0
H2214 H 0.38874 0.88797 0.07226 0.0
C2215 C 0.34737 0.88672 0.9951 0.0
H2216 H 0.34809 0.85195 0.06305 0.0
C2217 C 0.37078 0.90739 1.00027 0.0
C2218 C 0.38683 0.90778 0.02776 0.0
H2219 H 0.33666 0.88604 0.97308 0.0
H2220 H 0.3772 0.92216 0.9822 0.0
C2221 C 0.37723 0.88821 0.05064 0.0
C2222 C 0.69749 0.15623 0.95509 0.0
C2223 C 0.71464 0.16932 0.97844 0.0
H2224 H 0.6602 0.12799 0.94286 0.0
C2225 C 0.7081 0.16122 0.00828 0.0
H2226 H 0.70212 0.16172 0.9318 0.0
C2227 C 0.68386 0.14187 0.01466 0.0
C2228 C 0.66572 0.12997 0.99133 0.0
H2229 H 0.72061 0.17108 0.0268 0.0
H2230 H 0.67864 0.13711 0.03798 0.0
C2231 C 0.67335 0.13691 0.96143 0.0
C2232 C 0.60354 0.66342 0.86642 0.0
C2233 C 0.57712 0.67252 0.8506 0.0
H2234 H 0.62196 0.64015 0.90446 0.0
C2235 C 0.54842 0.66231 0.86041 0.0
H2236 H 0.62598 0.67098 0.85947 0.0
C2237 C 0.54605 0.64499 0.88647 0.0
C2238 C 0.57234 0.63733 0.90331 0.0
H2239 H 0.5276 0.66928 0.84907 0.0
H2240 H 0.52345 0.63843 0.89397 0.0
C2241 C 0.6012 0.64595 0.89238 0.0
C2242 C 0.40473 0.47661 0.88172 0.0
C2243 C 0.39948 0.50154 0.86335 0.0
H2244 H 0.42566 0.45915 0.92173 0.0
C2245 C 0.4156 0.5276 0.86991 0.0
H2246 H 0.39285 0.4561 0.87723 0.0
C2247 C 0.43441 0.5294 0.89559 0.0
C2248 C 0.4376 0.50516 0.91535 0.0
H2249 H 0.41187 0.5473 0.85651 0.0
H2250 H 0.44507 0.55036 0.90081 0.0
C2251 C 0.42349 0.47839 0.90737 0.0
C2252 C 0.47671 0.34004 0.87574 0.0
C2253 C 0.48694 0.3413 0.84559 0.0
H2254 H 0.47962 0.35745 0.92053 0.0
C2255 C 0.51004 0.36169 0.83844 0.0
H2256 H 0.45957 0.32411 0.88247 0.0
C2257 C 0.52179 0.38082 0.86063 0.0
C2258 C 0.51087 0.37997 0.89056 0.0
H2259 H 0.51853 0.36335 0.81561 0.0
H2260 H 0.5393 0.3965 0.8542 0.0
C2261 C 0.48833 0.35912 0.89778 0.0
C2262 C 0.60116 0.55729 0.8576 0.0
C2263 C 0.59916 0.53441 0.83634 0.0
H2264 H 0.58908 0.57199 0.90166 0.0
C2265 C 0.57648 0.51273 0.84024 0.0
H2266 H 0.61886 0.57391 0.85555 0.0
C2267 C 0.55924 0.51162 0.86683 0.0
C2268 C 0.56449 0.53208 0.8901 0.0
H2269 H 0.57482 0.49454 0.82447 0.0
H2270 H 0.54404 0.49305 0.87027 0.0
C2271 C 0.5842 0.55598 0.88433 0.0
C2272 C 0.55687 0.35377 0.15428 0.0
C2273 C 0.52931 0.35334 0.17059 0.0
H2274 H 0.58241 0.37357 0.1183 0.0
C2275 C 0.50651 0.37429 0.16377 0.0
H2276 H 0.57451 0.33741 0.15873 0.0
C2277 C 0.51087 0.39492 0.14063 0.0
C2278 C 0.53798 0.39474 0.12339 0.0
H2279 H 0.48479 0.37394 0.17559 0.0
H2280 H 0.49245 0.41026 0.13552 0.0
C2281 C 0.56119 0.37427 0.13093 0.0
C2282 C 0.60598 0.4843 0.1629 0.0
C2283 C 0.63167 0.46592 0.15855 0.0
H2284 H 0.56696 0.50542 0.14326 0.0
C2285 C 0.63348 0.45027 0.1309 0.0
H2286 H 0.60322 0.49688 0.18343 0.0
C2287 C 0.61257 0.45577 0.10727 0.0
C2288 C 0.58883 0.47646 0.11095 0.0
H2289 H 0.65198 0.43481 0.12675 0.0
H2290 H 0.61656 0.44573 0.08548 0.0
C2291 C 0.58488 0.48921 0.13964 0.0
C2292 C 0.53755 0.67028 0.15832 0.0
C2293 C 0.56654 0.6668 0.1718 0.0
H2294 H 0.50594 0.65501 0.12474 0.0
C2295 C 0.58461 0.64228 0.1634 0.0
H2296 H 0.5232 0.68905 0.16401 0.0
C2297 C 0.575 0.62303 0.14059 0.0
C2298 C 0.54698 0.62769 0.12558 0.0
H2299 H 0.60695 0.63876 0.17353 0.0
H2300 H 0.59009 0.60508 0.13405 0.0
C2301 C 0.52788 0.65096 0.13547 0.0
C2302 C 0.44766 0.5754 0.14516 0.0
C2303 C 0.45384 0.56238 0.17332 0.0
H2304 H 0.46003 0.57741 0.09846 0.0
C2305 C 0.48237 0.54867 0.17782 0.0
H2306 H 0.42552 0.5856 0.14095 0.0
C2307 C 0.50226 0.5442 0.15352 0.0
C2308 C 0.49379 0.55298 0.12424 0.0
H2309 H 0.48749 0.53802 0.19911 0.0
H2310 H 0.52221 0.53033 0.15697 0.0
C2311 C 0.46751 0.57074 0.12073 0.0
C2312 C 0.8757 0.55122 0.68452 0.0
C2313 C 0.84438 0.54321 0.68406 0.0
H2314 H 0.91667 0.55939 0.65894 0.0
C2315 C 0.82985 0.54039 0.65602 0.0
H2316 H 0.88759 0.55419 0.70572 0.0
C2317 C 0.84648 0.54358 0.62929 0.0
C2318 C 0.87823 0.54969 0.6297 0.0
H2319 H 0.80594 0.5341 0.65461 0.0
H2320 H 0.8345 0.54009 0.60822 0.0
C2321 C 0.89243 0.55439 0.65769 0.0
C2322 C 0.52652 0.87231 0.62173 0.0
C2323 C 0.54865 0.86638 0.64396 0.0
H2324 H 0.51496 0.89707 0.58206 0.0
C2325 C 0.57732 0.88023 0.64211 0.0
H2326 H 0.50401 0.86234 0.62307 0.0
C2327 C 0.58314 0.90101 0.61951 0.0
C2328 C 0.56058 0.908 0.59794 0.0
H2329 H 0.59449 0.87648 0.65938 0.0
H2330 H 0.60499 0.91232 0.61955 0.0
C2331 C 0.53268 0.89248 0.59854 0.0
C2332 C 0.21126 0.52017 0.62983 0.0
C2333 C 0.22257 0.54852 0.63649 0.0
H2334 H 0.17663 0.49438 0.60801 0.0
C2335 C 0.2075 0.57303 0.62322 0.0
H2336 H 0.22165 0.50069 0.63973 0.0
C2337 C 0.1808 0.56945 0.60587 0.0
C2338 C 0.16886 0.54118 0.60046 0.0
H2339 H 0.21577 0.59525 0.62698 0.0
H2340 H 0.16942 0.58885 0.59683 0.0
C2341 C 0.18501 0.51656 0.61189 0.0
C2342 C 0.52031 0.15041 0.61707 0.0
C2343 C 0.49853 0.14224 0.63884 0.0
H2344 H 0.54673 0.1377 0.5786 0.0
C2345 C 0.48538 0.11376 0.63621 0.0
H2346 H 0.53139 0.17174 0.61804 0.0
C2347 C 0.49527 0.09361 0.61419 0.0
C2348 C 0.5174 0.10168 0.59292 0.0
H2349 H 0.46769 0.10647 0.65149 0.0
H2350 H 0.48629 0.07139 0.61459 0.0
C2351 C 0.52936 0.13059 0.59441 0.0
C2352 C 0.84613 0.54176 0.36144 0.0
C2353 C 0.82018 0.52718 0.373 0.0
H2354 H 0.89093 0.5595 0.37071 0.0
C2355 C 0.8177 0.5239 0.4043 0.0
H2356 H 0.84907 0.54382 0.33731 0.0
C2357 C 0.84164 0.53267 0.42337 0.0
C2358 C 0.86899 0.54466 0.41167 0.0
H2359 H 0.79841 0.51214 0.41382 0.0
H2360 H 0.83963 0.5279 0.44719 0.0
C2361 C 0.87027 0.55054 0.38059 0.0
C2362 C 0.53959 0.90403 0.36168 0.0
C2363 C 0.54248 0.87316 0.36564 0.0
H2364 H 0.52812 0.94597 0.38124 0.0
C2365 C 0.53531 0.86138 0.3941 0.0
H2366 H 0.54404 0.91417 0.34007 0.0
C2367 C 0.52541 0.8798 0.41765 0.0
C2368 C 0.52274 0.91057 0.41356 0.0
H2369 H 0.53762 0.83793 0.39838 0.0
H2370 H 0.51993 0.86987 0.43915 0.0
C2371 C 0.53022 0.92245 0.38534 0.0
C2372 C 0.22141 0.53666 0.36635 0.0
C2373 C 0.21639 0.55871 0.34457 0.0
H2374 H 0.20413 0.51313 0.40434 0.0
C2375 C 0.18769 0.57346 0.34467 0.0
H2376 H 0.24258 0.52409 0.36671 0.0
C2377 C 0.16501 0.56655 0.36608 0.0
C2378 C 0.17056 0.54498 0.3882 0.0
H2379 H 0.18284 0.59078 0.32852 0.0
H2380 H 0.14357 0.57871 0.36588 0.0
C2381 C 0.19901 0.53005 0.38782 0.0
C2382 C 0.48739 0.17039 0.41307 0.0
C2383 C 0.50668 0.16972 0.38784 0.0
H2384 H 0.47007 0.14701 0.45112 0.0
C2385 C 0.52841 0.14677 0.38549 0.0
H2386 H 0.47013 0.18756 0.41522 0.0
C2387 C 0.52826 0.12316 0.40606 0.0
C2388 C 0.50606 0.12187 0.42891 0.0
H2389 H 0.54324 0.14545 0.36598 0.0
H2390 H 0.54379 0.10498 0.40247 0.0
C2391 C 0.48705 0.14675 0.43333 0.0
C2392 C 0.68026 0.89064 0.40905 0.0
C2393 C 0.68098 0.86629 0.42883 0.0
H2394 H 0.65662 0.92965 0.39435 0.0
C2395 C 0.6557 0.86182 0.44788 0.0
H2396 H 0.69913 0.89457 0.39375 0.0
C2397 C 0.63115 0.8821 0.44823 0.0
C2398 C 0.63128 0.9073 0.42951 0.0
H2399 H 0.65556 0.84346 0.46351 0.0
H2400 H 0.61248 0.87845 0.46383 0.0
C2401 C 0.65584 0.91084 0.40941 0.0
C2402 C 0.64539 0.14553 0.51328 0.0
C2403 C 0.64084 0.17179 0.49675 0.0
H2404 H 0.6334 0.09995 0.51849 0.0
C2405 C 0.61621 0.17333 0.47647 0.0
H2406 H 0.6645 0.14366 0.52882 0.0
C2407 C 0.59848 0.14823 0.47067 0.0
C2408 C 0.60483 0.12121 0.48524 0.0
H2409 H 0.61243 0.19304 0.46311 0.0
H2410 H 0.5809 0.1495 0.45343 0.0
C2411 C 0.62755 0.12047 0.50753 0.0
C2412 C 0.90314 0.64326 0.44572 0.0
C2413 C 0.88077 0.65988 0.46133 0.0
H2414 H 0.93789 0.60971 0.44801 0.0
C2415 C 0.87355 0.65157 0.49092 0.0
H2416 H 0.90917 0.64889 0.42279 0.0
C2417 C 0.8898 0.62872 0.50522 0.0
C2418 C 0.91366 0.61352 0.49029 0.0
H2419 H 0.8568 0.66402 0.50376 0.0
H2420 H 0.88433 0.62366 0.52843 0.0
C2421 C 0.91957 0.6206 0.46011 0.0
C2422 C 0.35807 0.88782 0.58404 0.0
C2423 C 0.348 0.86531 0.56449 0.0
H2424 H 0.39186 0.92075 0.59359 0.0
C2425 C 0.36716 0.85697 0.54049 0.0
H2426 H 0.34424 0.89446 0.60314 0.0
C2427 C 0.3948 0.87198 0.53519 0.0
C2428 C 0.40376 0.89575 0.55366 0.0
H2429 H 0.36008 0.83989 0.52491 0.0
H2430 H 0.40852 0.86569 0.51591 0.0
C2431 C 0.38541 0.90296 0.57858 0.0
C2432 C 0.24905 0.41044 0.49435 0.0
C2433 C 0.24136 0.39857 0.52254 0.0
H2434 H 0.23962 0.44365 0.46122 0.0
C2435 C 0.21989 0.41382 0.54053 0.0
H2436 H 0.26527 0.39922 0.47982 0.0
C2437 C 0.20461 0.43882 0.52959 0.0
C2438 C 0.21089 0.44956 0.50064 0.0
H2439 H 0.21391 0.40567 0.56268 0.0
H2440 H 0.18734 0.4493 0.54354 0.0
C2441 C 0.23407 0.43577 0.48357 0.0
C2442 C 0.41006 0.15593 0.55923 0.0
C2443 C 0.39209 0.16006 0.53337 0.0
H2444 H 0.44059 0.12723 0.58323 0.0
C2445 C 0.39538 0.14021 0.50919 0.0
H2446 H 0.40736 0.17048 0.57843 0.0
C2447 C 0.41437 0.11525 0.51191 0.0
C2448 C 0.42969 0.1095 0.53915 0.0
H2449 H 0.38109 0.14254 0.48934 0.0
H2450 H 0.41509 0.09934 0.4937 0.0
C2451 C 0.42853 0.13079 0.56219 0.0
C2452 C 0.81829 0.42393 0.47656 0.0
C2453 C 0.80436 0.40297 0.49555 0.0
H2454 H 0.84434 0.46382 0.47337 0.0
C2455 C 0.80251 0.40907 0.52649 0.0
H2456 H 0.81962 0.42019 0.45251 0.0
C2457 C 0.81649 0.43434 0.53844 0.0
C2458 C 0.83277 0.45387 0.5197 0.0
H2459 H 0.79215 0.39333 0.54174 0.0
H2460 H 0.81591 0.43769 0.56257 0.0
C2461 C 0.83259 0.44891 0.48851 0.0
C2462 C 0.13938 0.63887 0.55736 0.0
C2463 C 0.16495 0.65031 0.54187 0.0
H2464 H 0.10066 0.60985 0.55612 0.0
C2465 C 0.17314 0.6376 0.51423 0.0
H2466 H 0.13251 0.64815 0.5788 0.0
C2467 C 0.15493 0.61556 0.50135 0.0
C2468 C 0.12815 0.60556 0.51585 0.0
H2469 H 0.19239 0.64607 0.50153 0.0
H2470 H 0.16128 0.60706 0.47942 0.0
C2471 C 0.1211 0.61685 0.54442 0.0
loop_
_geom_bond_atom_site_label_1
_geom_bond_atom_site_label_2
_geom_bond_distance
_geom_bond_site_symmetry_2
_ccdc_geom_bond_type
C0 C1 1.391 . S
C0 C4 1.391 . S
C0 H42 0.948 . S
C1 C0 1.391 . S
C1 C2 1.391 . S
C2 C1 1.391 . S
C2 H58 0.947 . S
C2 C59 1.392 . S
C3 C4 1.391 . S
C3 C7 1.397 . S
C3 C59 1.419 . S
C4 C0 1.391 . S
C4 C3 1.391 . S
C4 C5 1.399 . S
C5 C4 1.399 . S
C5 C8 1.396 . S
C5 C17 1.453 . S
C5 C18 1.684 . S
H6 C30 0.948 . S
C7 C3 1.397 . S
C7 C8 1.394 . S
C7 C26 1.723 . S
C8 C5 1.396 . S
C8 C7 1.394 . S
C8 C38 1.723 . S
H9 C32 0.947 . S
H10 C33 0.948 . S
H11 C39 0.982 . S
H12 C40 0.979 1_655 S
H13 C40 0.980 . S
H14 C40 0.983 . S
H15 C39 0.979 . S
H16 C39 0.977 . S
C17 C5 1.453 . S
C17 H46 0.982 . S
C17 H47 0.979 . S
C17 H48 0.977 . S
C18 C5 1.684 . S
C18 H43 0.979 1_455 S
C18 H44 0.980 . S
C18 H45 0.983 . S
C19 C20 1.391 . S
C19 C24 1.391 . S
C19 H49 0.948 . S
C20 C19 1.391 . S
C20 C21 1.391 . S
C21 C20 1.391 . S
C21 C22 1.392 . S
C21 H50 0.947 . S
C22 C21 1.392 . S
C22 C23 1.419 . S
C22 H51 0.948 . S
C23 C22 1.419 . S
C23 C24 1.391 . S
C23 C27 1.397 . S
C24 C19 1.391 . S
C24 C23 1.391 . S
C24 C25 1.399 . S
C25 C24 1.399 . S
C25 C26 1.396 . S
C25 C28 1.453 . S
C25 C29 1.684 . S
C26 C7 1.723 . S
C26 C25 1.396 . S
C26 C27 1.394 . S
C27 C23 1.397 . S
C27 C26 1.394 . S
C27 C37 1.723 . S
C28 C25 1.453 . S
C28 H52 0.982 . S
C28 H53 0.979 . S
C28 H54 0.977 . S
C29 C25 1.684 . S
C29 H55 0.979 1_455 S
C29 H56 0.980 . S
C29 H57 0.983 . S
C30 H6 0.948 . S
C30 C31 1.391 . S
C30 C35 1.391 . S
C31 C30 1.391 . S
C31 C32 1.391 . S
C32 H9 0.947 . S
C32 C31 1.391 . S
C32 C33 1.392 . S
C33 H10 0.948 . S
C33 C32 1.392 . S
C33 C34 1.419 . S
C34 C33 1.419 . S
C34 C35 1.391 . S
C34 C38 1.397 . S
C35 C30 1.391 . S
C35 C34 1.391 . S
C35 C36 1.399 . S
C36 C35 1.399 . S
C36 C37 1.396 . S
C36 C39 1.453 . S
C36 C40 1.684 . S
C37 C27 1.723 . S
C37 C36 1.396 . S
C37 C38 1.394 . S
C38 C8 1.723 . S
C38 C34 1.397 . S
C38 C37 1.394 . S
C39 H11 0.982 . S
C39 H15 0.979 . S
C39 H16 0.977 . S
C39 C36 1.453 . S
C40 H12 0.979 1_455 S
C40 H13 0.980 . S
C40 H14 0.983 . S
C40 C36 1.684 . S
H41 C59 0.948 . S
H42 C0 0.948 . S
H43 C18 0.979 1_655 S
H44 C18 0.980 . S
H45 C18 0.983 . S
H46 C17 0.982 . S
H47 C17 0.979 . S
H48 C17 0.977 . S
H49 C19 0.948 . S
H50 C21 0.947 . S
H51 C22 0.948 . S
H52 C28 0.982 . S
H53 C28 0.979 . S
H54 C28 0.977 . S
H55 C29 0.979 1_655 S
H56 C29 0.980 . S
H57 C29 0.983 . S
H58 C2 0.947 . S
C59 C2 1.392 . S
C59 C3 1.419 . S
C59 H41 0.948 . S
C60 C61 1.391 . S
C60 C64 1.391 . S
C60 H102 0.948 . S
C61 C60 1.391 . S
C61 C62 1.391 . S
C62 C61 1.391 . S
C62 H118 0.947 . S
C62 C119 1.392 . S
C63 C64 1.391 . S
C63 C67 1.397 . S
C63 C119 1.419 . S
C64 C60 1.391 . S
C64 C63 1.391 . S
C64 C65 1.399 . S
C65 C64 1.399 . S
C65 C68 1.396 . S
C65 C77 1.453 . S
C65 C78 1.684 . S
H66 C90 0.948 . S
C67 C63 1.397 . S
C67 C68 1.394 . S
C67 C86 1.723 . S
C68 C65 1.396 . S
C68 C67 1.394 . S
C68 C98 1.723 . S
H69 C92 0.947 . S
H70 C93 0.948 . S
H71 C99 1.015 . S
H72 C100 0.979 . S
H73 C100 0.980 . S
H74 C100 0.983 . S
H75 C99 0.979 . S
H76 C99 0.977 . S
C77 C65 1.453 . S
C77 H106 1.007 . S
C77 H107 0.979 . S
C77 H108 0.977 . S
C78 C65 1.684 . S
C78 H103 0.979 . S
C78 H104 0.980 . S
C78 H105 0.983 . S
C79 C80 1.391 . S
C79 C84 1.391 . S
C79 H109 0.948 . S
C80 C79 1.391 . S
C80 C81 1.391 . S
C81 C80 1.391 . S
C81 C82 1.392 . S
C81 H110 0.947 . S
C82 C81 1.392 . S
C82 C83 1.419 . S
C82 H111 0.948 . S
C83 C82 1.419 . S
C83 C84 1.391 . S
C83 C87 1.397 . S
C84 C79 1.391 . S
C84 C83 1.391 . S
C84 C85 1.399 . S
C85 C84 1.399 . S
C85 C86 1.396 . S
C85 C88 1.453 . S
C85 C89 1.684 . S
C86 C67 1.723 . S
C86 C85 1.396 . S
C86 C87 1.394 . S
C87 C83 1.397 . S
C87 C86 1.394 . S
C87 C97 1.723 . S
C88 C85 1.453 . S
C88 H112 1.015 . S
C88 H113 0.979 . S
C88 H114 0.977 . S
C89 C85 1.684 . S
C89 H115 0.979 . S
C89 H116 0.980 . S
C89 H117 0.983 . S
C90 H66 0.948 . S
C90 C91 1.391 . S
C90 C95 1.391 . S
C91 C90 1.391 . S
C91 C92 1.391 . S
C92 H69 0.947 . S
C92 C91 1.391 . S
C92 C93 1.392 . S
C93 H70 0.948 . S
C93 C92 1.392 . S
C93 C94 1.419 . S
C94 C93 1.419 . S
C94 C95 1.391 . S
C94 C98 1.397 . S
C95 C90 1.391 . S
C95 C94 1.391 . S
C95 C96 1.399 . S
C96 C95 1.399 . S
C96 C97 1.396 . S
C96 C99 1.453 . S
C96 C100 1.684 . S
C97 C87 1.723 . S
C97 C96 1.396 . S
C97 C98 1.394 . S
C98 C68 1.723 . S
C98 C94 1.397 . S
C98 C97 1.394 . S
C99 H71 1.015 . S
C99 H75 0.979 . S
C99 H76 0.977 . S
C99 C96 1.453 . S
C100 H72 0.979 . S
C100 H73 0.980 . S
C100 H74 0.983 . S
C100 C96 1.684 . S
H101 C119 0.948 . S
H102 C60 0.948 . S
H103 C78 0.979 . S
H104 C78 0.980 . S
H105 C78 0.983 . S
H106 C77 1.007 . S
H107 C77 0.979 . S
H108 C77 0.977 . S
H109 C79 0.948 . S
H110 C81 0.947 . S
H111 C82 0.948 . S
H112 C88 1.015 . S
H113 C88 0.979 . S
H114 C88 0.977 . S
H115 C89 0.979 . S
H116 C89 0.980 . S
H117 C89 0.983 . S
H118 C62 0.947 . S
C119 C62 1.392 . S
C119 C63 1.419 . S
C119 H101 0.948 . S
C120 C121 1.391 . S
C120 C124 1.391 . S
C120 H162 0.948 . S
C121 C120 1.391 . S
C121 C122 1.391 . S
C122 C121 1.391 . S
C122 H178 0.947 . S
C122 C179 1.392 . S
C123 C124 1.391 . S
C123 C127 1.397 . S
C123 C179 1.419 . S
C124 C120 1.391 . S
C124 C123 1.391 . S
C124 C125 1.399 . S
C125 C124 1.399 . S
C125 C128 1.396 . S
C125 C137 1.453 . S
C125 C138 1.684 1_455 S
H126 C150 0.948 . S
C127 C123 1.397 . S
C127 C128 1.394 . S
C127 C146 1.723 . S
C128 C125 1.396 . S
C128 C127 1.394 . S
C128 C158 1.723 . S
H129 C152 0.947 . S
H130 C153 0.948 . S
H131 C159 0.982 . S
H132 C160 0.979 . S
H133 C160 0.980 1_455 S
H134 C160 0.977 1_455 S
H135 C159 0.979 . S
H136 C159 0.977 . S
C137 C125 1.453 . S
C137 H166 0.982 . S
C137 H167 0.979 . S
C137 H168 0.977 . S
C138 C125 1.684 1_655 S
C138 H163 0.979 . S
C138 H164 0.980 1_655 S
C138 H165 0.977 1_655 S
C139 C140 1.391 . S
C139 C144 1.391 . S
C139 H169 0.948 . S
C140 C139 1.391 . S
C140 C141 1.391 . S
C141 C140 1.391 . S
C141 C142 1.392 . S
C141 H170 0.947 . S
C142 C141 1.392 . S
C142 C143 1.419 . S
C142 H171 0.948 . S
C143 C142 1.419 . S
C143 C144 1.391 . S
C143 C147 1.397 . S
C144 C139 1.391 . S
C144 C143 1.391 . S
C144 C145 1.399 . S
C145 C144 1.399 . S
C145 C146 1.396 . S
C145 C148 1.453 . S
C145 C149 1.684 1_455 S
C146 C127 1.723 . S
C146 C145 1.396 . S
C146 C147 1.394 . S
C147 C143 1.397 . S
C147 C146 1.394 . S
C147 C157 1.723 . S
C148 C145 1.453 . S
C148 H172 0.982 . S
C148 H173 0.979 . S
C148 H174 0.977 . S
C149 C145 1.684 1_655 S
C149 H175 0.979 . S
C149 H176 0.980 1_655 S
C149 H177 0.977 1_655 S
C150 H126 0.948 . S
C150 C151 1.391 . S
C150 C155 1.391 . S
C151 C150 1.391 . S
C151 C152 1.391 . S
C152 H129 0.947 . S
C152 C151 1.391 . S
C152 C153 1.392 . S
C153 H130 0.948 . S
C153 C152 1.392 . S
C153 C154 1.419 . S
C154 C153 1.419 . S
C154 C155 1.391 . S
C154 C158 1.397 . S
C155 C150 1.391 . S
C155 C154 1.391 . S
C155 C156 1.399 . S
C156 C155 1.399 . S
C156 C157 1.396 . S
C156 C159 1.453 . S
C156 C160 1.684 1_455 S
C157 C147 1.723 . S
C157 C156 1.396 . S
C157 C158 1.394 . S
C158 C128 1.723 . S
C158 C154 1.397 . S
C158 C157 1.394 . S
C159 H131 0.982 . S
C159 H135 0.979 . S
C159 H136 0.977 . S
C159 C156 1.453 . S
C160 H132 0.979 . S
C160 H133 0.980 1_655 S
C160 H134 0.977 1_655 S
C160 C156 1.684 1_655 S
H161 C179 0.948 . S
H162 C120 0.948 . S
H163 C138 0.979 . S
H164 C138 0.980 1_455 S
H165 C138 0.977 1_455 S
H166 C137 0.982 . S
H167 C137 0.979 . S
H168 C137 0.977 . S
H169 C139 0.948 . S
H170 C141 0.947 . S
H171 C142 0.948 . S
H172 C148 0.982 . S
H173 C148 0.979 . S
H174 C148 0.977 . S
H175 C149 0.979 . S
H176 C149 0.980 1_455 S
H177 C149 0.977 1_455 S
H178 C122 0.947 . S
C179 C122 1.392 . S
C179 C123 1.419 . S
C179 H161 0.948 . S
C180 C181 1.391 . S
C180 C184 1.391 . S
C180 H222 0.948 . S
C181 C180 1.391 . S
C181 C182 1.391 . S
C182 C181 1.391 . S
C182 H238 0.947 . S
C182 C239 1.392 . S
C183 C184 1.391 . S
C183 C187 1.397 . S
C183 C239 1.419 . S
C184 C180 1.391 . S
C184 C183 1.391 . S
C184 C185 1.399 . S
C185 C184 1.399 . S
C185 C188 1.396 . S
C185 C197 1.453 1_545 S
C185 C198 1.684 . S
H186 C210 0.948 . S
C187 C183 1.397 . S
C187 C188 1.394 . S
C187 C206 1.723 . S
C188 C185 1.396 . S
C188 C187 1.394 . S
C188 C218 1.723 . S
H189 C212 0.947 . S
H190 C213 0.948 . S
H191 C219 0.982 . S
H192 C220 0.979 . S
H193 C220 0.980 . S
H194 C220 0.983 . S
H195 C219 0.979 . S
H196 C219 0.977 . S
C197 C185 1.453 1_565 S
C197 H226 0.982 . S
C197 H227 0.979 . S
C197 H228 0.977 . S
C198 C185 1.684 . S
C198 H223 0.979 . S
C198 H224 0.980 . S
C198 H225 0.983 . S
C199 C200 1.391 . S
C199 C204 1.391 . S
C199 H229 0.948 . S
C200 C199 1.391 . S
C200 C201 1.391 . S
C201 C200 1.391 . S
C201 C202 1.392 . S
C201 H230 0.947 . S
C202 C201 1.392 . S
C202 C203 1.419 . S
C202 H231 0.948 . S
C203 C202 1.419 . S
C203 C204 1.391 . S
C203 C207 1.397 . S
C204 C199 1.391 . S
C204 C203 1.391 . S
C204 C205 1.399 . S
C205 C204 1.399 . S
C205 C206 1.396 . S
C205 C208 1.453 1_545 S
C205 C209 1.684 . S
C206 C187 1.723 . S
C206 C205 1.396 . S
C206 C207 1.394 . S
C207 C203 1.397 . S
C207 C206 1.394 . S
C207 C217 1.723 . S
C208 C205 1.453 1_565 S
C208 H232 0.982 . S
C208 H233 0.979 . S
C208 H234 0.977 . S
C209 C205 1.684 . S
C209 H235 0.979 . S
C209 H236 0.980 . S
C209 H237 0.983 . S
C210 H186 0.948 . S
C210 C211 1.391 . S
C210 C215 1.391 . S
C211 C210 1.391 . S
C211 C212 1.391 . S
C212 H189 0.947 . S
C212 C211 1.391 . S
C212 C213 1.392 . S
C213 H190 0.948 . S
C213 C212 1.392 . S
C213 C214 1.419 . S
C214 C213 1.419 . S
C214 C215 1.391 . S
C214 C218 1.397 . S
C215 C210 1.391 . S
C215 C214 1.391 . S
C215 C216 1.399 . S
C216 C215 1.399 . S
C216 C217 1.396 . S
C216 C219 1.453 1_545 S
C216 C220 1.684 . S
C217 C207 1.723 . S
C217 C216 1.396 . S
C217 C218 1.394 . S
C218 C188 1.723 . S
C218 C214 1.397 . S
C218 C217 1.394 . S
C219 H191 0.982 . S
C219 H195 0.979 . S
C219 H196 0.977 . S
C219 C216 1.453 1_565 S
C220 H192 0.979 . S
C220 H193 0.980 . S
C220 H194 0.983 . S
C220 C216 1.684 . S
H221 C239 0.948 . S
H222 C180 0.948 . S
H223 C198 0.979 . S
H224 C198 0.980 . S
H225 C198 0.983 . S
H226 C197 0.982 . S
H227 C197 0.979 . S
H228 C197 0.977 . S
H229 C199 0.948 . S
H230 C201 0.947 . S
H231 C202 0.948 . S
H232 C208 0.982 . S
H233 C208 0.979 . S
H234 C208 0.977 . S
H235 C209 0.979 . S
H236 C209 0.980 . S
H237 C209 0.983 . S
H238 C182 0.947 . S
C239 C182 1.392 . S
C239 C183 1.419 . S
C239 H221 0.948 . S
C240 C241 1.391 . S
C240 C244 1.391 . S
C240 H282 0.948 . S
C241 C240 1.391 . S
C241 C242 1.391 . S
C242 C241 1.391 . S
C242 H298 0.947 . S
C242 C299 1.392 . S
C243 C244 1.391 . S
C243 C247 1.396 1_655 S
C243 C299 1.419 . S
C244 C240 1.391 . S
C244 C243 1.391 . S
C244 C245 1.399 . S
C245 C244 1.399 . S
C245 C248 1.396 1_655 S
C245 C257 1.453 1_655 S
C245 C258 1.684 . S
H246 C270 0.948 . S
C247 C243 1.396 1_455 S
C247 C248 1.395 . S
C247 C266 1.723 . S
C248 C245 1.396 1_455 S
C248 C247 1.395 . S
C248 C278 1.723 . S
H249 C272 0.947 . S
H250 C273 0.948 . S
H251 C279 0.982 . S
H252 C280 0.979 . S
H253 C280 0.980 . S
H254 C280 0.983 . S
H255 C279 0.979 . S
H256 C279 0.977 . S
C257 C245 1.453 1_455 S
C257 H286 0.982 . S
C257 H287 0.979 . S
C257 H288 0.977 . S
C258 C245 1.684 . S
C258 H283 0.979 . S
C258 H284 0.980 . S
C258 H285 0.983 . S
C259 C260 1.391 . S
C259 C264 1.391 . S
C259 H289 0.948 . S
C260 C259 1.391 . S
C260 C261 1.391 . S
C261 C260 1.391 . S
C261 C262 1.392 . S
C261 H290 0.947 . S
C262 C261 1.392 . S
C262 C263 1.419 . S
C262 H291 0.948 . S
C263 C262 1.419 . S
C263 C264 1.391 . S
C263 C267 1.396 1_655 S
C264 C259 1.391 . S
C264 C263 1.391 . S
C264 C265 1.399 . S
C265 C264 1.399 . S
C265 C266 1.396 1_655 S
C265 C268 1.453 1_655 S
C265 C269 1.684 . S
C266 C247 1.723 . S
C266 C265 1.396 1_455 S
C266 C267 1.395 . S
C267 C263 1.396 1_455 S
C267 C266 1.395 . S
C267 C277 1.723 . S
C268 C265 1.453 1_455 S
C268 H292 0.982 . S
C268 H293 0.979 . S
C268 H294 0.977 . S
C269 C265 1.684 . S
C269 H295 0.979 . S
C269 H296 0.980 . S
C269 H297 0.983 . S
C270 H246 0.948 . S
C270 C271 1.391 . S
C270 C275 1.391 . S
C271 C270 1.391 . S
C271 C272 1.391 . S
C272 H249 0.947 . S
C272 C271 1.391 . S
C272 C273 1.392 . S
C273 H250 0.948 . S
C273 C272 1.392 . S
C273 C274 1.419 . S
C274 C273 1.419 . S
C274 C275 1.391 . S
C274 C278 1.396 1_655 S
C275 C270 1.391 . S
C275 C274 1.391 . S
C275 C276 1.399 . S
C276 C275 1.399 . S
C276 C277 1.396 1_655 S
C276 C279 1.453 1_655 S
C276 C280 1.684 . S
C277 C267 1.723 . S
C277 C276 1.396 1_455 S
C277 C278 1.395 . S
C278 C248 1.723 . S
C278 C274 1.396 1_455 S
C278 C277 1.395 . S
C279 H251 0.982 . S
C279 H255 0.979 . S
C279 H256 0.977 . S
C279 C276 1.453 1_455 S
C280 H252 0.979 . S
C280 H253 0.980 . S
C280 H254 0.983 . S
C280 C276 1.684 . S
H281 C299 0.948 . S
H282 C240 0.948 . S
H283 C258 0.979 . S
H284 C258 0.980 . S
H285 C258 0.983 . S
H286 C257 0.982 . S
H287 C257 0.979 . S
H288 C257 0.977 . S
H289 C259 0.948 . S
H290 C261 0.947 . S
H291 C262 0.948 . S
H292 C268 0.982 . S
H293 C268 0.979 . S
H294 C268 0.977 . S
H295 C269 0.979 . S
H296 C269 0.980 . S
H297 C269 0.983 . S
H298 C242 0.947 . S
C299 C242 1.392 . S
C299 C243 1.419 . S
C299 H281 0.948 . S
C300 C301 1.391 . S
C300 C304 1.391 . S
C300 H342 0.948 . S
C301 C300 1.391 . S
C301 C302 1.391 . S
C302 C301 1.391 . S
C302 H358 0.947 . S
C302 C359 1.392 . S
C303 C304 1.391 . S
C303 C307 1.397 . S
C303 C359 1.419 . S
C304 C300 1.391 . S
C304 C303 1.391 . S
C304 C305 1.399 . S
C305 C304 1.399 . S
C305 C308 1.396 . S
C305 C317 1.453 . S
C305 C318 1.684 1_545 S
H306 C330 0.948 . S
C307 C303 1.397 . S
C307 C308 1.394 . S
C307 C326 1.723 . S
C308 C305 1.396 . S
C308 C307 1.394 . S
C308 C338 1.723 . S
H309 C332 0.947 . S
H310 C333 0.952 . S
H311 C339 0.982 . S
H312 C340 0.979 . S
H313 C340 0.980 . S
H314 C340 0.983 . S
H315 C339 0.979 . S
H316 C339 0.977 . S
C317 C305 1.453 . S
C317 H346 0.982 . S
C317 H347 0.979 . S
C317 H348 0.977 . S
C318 C305 1.684 1_565 S
C318 H343 0.979 . S
C318 H344 0.980 . S
C318 H345 0.983 . S
C319 C320 1.391 . S
C319 C324 1.391 . S
C319 H349 0.948 . S
C320 C319 1.391 . S
C320 C321 1.391 . S
C321 C320 1.391 . S
C321 C322 1.392 . S
C321 H350 0.947 . S
C322 C321 1.392 . S
C322 C323 1.419 . S
C322 H351 0.948 . S
C323 C322 1.419 . S
C323 C324 1.391 . S
C323 C327 1.397 . S
C324 C319 1.391 . S
C324 C323 1.391 . S
C324 C325 1.399 . S
C325 C324 1.399 . S
C325 C326 1.396 . S
C325 C328 1.453 . S
C325 C329 1.684 1_545 S
C326 C307 1.723 . S
C326 C325 1.396 . S
C326 C327 1.394 . S
C327 C323 1.397 . S
C327 C326 1.394 . S
C327 C337 1.723 . S
C328 C325 1.453 . S
C328 H352 0.982 . S
C328 H353 0.979 . S
C328 H354 0.977 . S
C329 C325 1.684 1_565 S
C329 H355 0.979 . S
C329 H356 0.980 . S
C329 H357 0.983 . S
C330 H306 0.948 . S
C330 C331 1.391 . S
C330 C335 1.391 . S
C331 C330 1.391 . S
C331 C332 1.391 . S
C332 H309 0.947 . S
C332 C331 1.391 . S
C332 C333 1.392 . S
C333 H310 0.952 . S
C333 C332 1.392 . S
C333 C334 1.419 . S
C334 C333 1.419 . S
C334 C335 1.391 . S
C334 C338 1.397 . S
C335 C330 1.391 . S
C335 C334 1.391 . S
C335 C336 1.399 . S
C336 C335 1.399 . S
C336 C337 1.396 . S
C336 C339 1.453 . S
C336 C340 1.684 1_545 S
C337 C327 1.723 . S
C337 C336 1.396 . S
C337 C338 1.394 . S
C338 C308 1.723 . S
C338 C334 1.397 . S
C338 C337 1.394 . S
C339 H311 0.982 . S
C339 H315 0.979 . S
C339 H316 0.977 . S
C339 C336 1.453 . S
C340 H312 0.979 . S
C340 H313 0.980 . S
C340 H314 0.983 . S
C340 C336 1.684 1_565 S
H341 C359 0.953 . S
H342 C300 0.948 . S
H343 C318 0.979 . S
H344 C318 0.980 . S
H345 C318 0.983 . S
H346 C317 0.982 . S
H347 C317 0.979 . S
H348 C317 0.977 . S
H349 C319 0.948 . S
H350 C321 0.947 . S
H351 C322 0.948 . S
H352 C328 0.982 . S
H353 C328 0.979 . S
H354 C328 0.977 . S
H355 C329 0.979 . S
H356 C329 0.980 . S
H357 C329 0.983 . S
H358 C302 0.947 . S
C359 C302 1.392 . S
C359 C303 1.419 . S
C359 H341 0.953 . S
C360 C361 1.391 . S
C360 C364 1.391 . S
C360 H402 0.948 . S
C361 C360 1.391 . S
C361 C362 1.391 . S
C362 C361 1.391 . S
C362 H418 0.947 . S
C362 C419 1.392 . S
C363 C364 1.391 . S
C363 C367 1.397 . S
C363 C419 1.419 . S
C364 C360 1.391 . S
C364 C363 1.391 . S
C364 C365 1.399 . S
C365 C364 1.399 . S
C365 C368 1.396 . S
C365 C377 1.453 . S
C365 C378 1.684 1_455 S
H366 C390 0.948 . S
C367 C363 1.397 . S
C367 C368 1.394 . S
C367 C386 1.723 . S
C368 C365 1.396 . S
C368 C367 1.394 . S
C368 C398 1.723 . S
H369 C392 0.947 . S
H370 C393 0.948 . S
H371 C399 0.982 . S
H372 C400 0.979 . S
H373 C400 0.979 1_455 S
H374 C400 0.976 1_455 S
H375 C399 0.979 . S
H376 C399 0.977 . S
C377 C365 1.453 . S
C377 H406 0.982 . S
C377 H407 0.979 . S
C377 H408 0.977 . S
C378 C365 1.684 1_655 S
C378 H403 0.979 . S
C378 H404 0.979 1_655 S
C378 H405 0.977 1_655 S
C379 C380 1.391 . S
C379 C384 1.391 . S
C379 H409 0.948 . S
C380 C379 1.391 . S
C380 C381 1.391 . S
C381 C380 1.391 . S
C381 C382 1.392 . S
C381 H410 0.947 . S
C382 C381 1.392 . S
C382 C383 1.419 . S
C382 H411 0.948 . S
C383 C382 1.419 . S
C383 C384 1.391 . S
C383 C387 1.397 . S
C384 C379 1.391 . S
C384 C383 1.391 . S
C384 C385 1.399 . S
C385 C384 1.399 . S
C385 C386 1.396 . S
C385 C388 1.453 . S
C385 C389 1.684 1_455 S
C386 C367 1.723 . S
C386 C385 1.396 . S
C386 C387 1.394 . S
C387 C383 1.397 . S
C387 C386 1.394 . S
C387 C397 1.723 . S
C388 C385 1.453 . S
C388 H412 0.982 . S
C388 H413 0.979 . S
C388 H414 0.977 . S
C389 C385 1.684 1_655 S
C389 H415 0.979 . S
C389 H416 0.979 1_655 S
C389 H417 0.983 1_655 S
C390 H366 0.948 . S
C390 C391 1.391 . S
C390 C395 1.391 . S
C391 C390 1.391 . S
C391 C392 1.391 . S
C392 H369 0.947 . S
C392 C391 1.391 . S
C392 C393 1.392 . S
C393 H370 0.948 . S
C393 C392 1.392 . S
C393 C394 1.419 . S
C394 C393 1.419 . S
C394 C395 1.391 . S
C394 C398 1.397 . S
C395 C390 1.391 . S
C395 C394 1.391 . S
C395 C396 1.399 . S
C396 C395 1.399 . S
C396 C397 1.396 . S
C396 C399 1.453 . S
C396 C400 1.684 1_455 S
C397 C387 1.723 . S
C397 C396 1.396 . S
C397 C398 1.394 . S
C398 C368 1.723 . S
C398 C394 1.397 . S
C398 C397 1.394 . S
C399 H371 0.982 . S
C399 H375 0.979 . S
C399 H376 0.977 . S
C399 C396 1.453 . S
C400 H372 0.979 . S
C400 H373 0.979 1_655 S
C400 H374 0.976 1_655 S
C400 C396 1.684 1_655 S
H401 C419 0.948 . S
H402 C360 0.948 . S
H403 C378 0.979 . S
H404 C378 0.979 1_455 S
H405 C378 0.977 1_455 S
H406 C377 0.982 . S
H407 C377 0.979 . S
H408 C377 0.977 . S
H409 C379 0.948 . S
H410 C381 0.947 . S
H411 C382 0.948 . S
H412 C388 0.982 . S
H413 C388 0.979 . S
H414 C388 0.977 . S
H415 C389 0.979 . S
H416 C389 0.979 1_455 S
H417 C389 0.983 1_455 S
H418 C362 0.947 . S
C419 C362 1.392 . S
C419 C363 1.419 . S
C419 H401 0.948 . S
C420 C421 1.391 . S
C420 C424 1.391 . S
C420 H462 0.948 . S
C421 C420 1.391 . S
C421 C422 1.391 . S
C422 C421 1.391 . S
C422 H478 0.947 . S
C422 C479 1.392 . S
C423 C424 1.391 . S
C423 C427 1.397 . S
C423 C479 1.419 . S
C424 C420 1.391 . S
C424 C423 1.391 . S
C424 C425 1.399 . S
C425 C424 1.399 . S
C425 C428 1.396 . S
C425 C437 1.453 . S
C425 C438 1.684 . S
H426 C450 0.948 . S
C427 C423 1.397 . S
C427 C428 1.394 . S
C427 C446 1.723 . S
C428 C425 1.396 . S
C428 C427 1.394 . S
C428 C458 1.723 . S
H429 C452 0.947 . S
H430 C453 0.948 . S
H431 C459 0.982 . S
H432 C460 0.979 1_565 S
H433 C460 0.980 . S
H434 C460 0.983 . S
H435 C459 0.979 . S
H436 C459 0.977 . S
C437 C425 1.453 . S
C437 H466 0.982 . S
C437 H467 0.979 . S
C437 H468 0.977 . S
C438 C425 1.684 . S
C438 H463 0.979 1_545 S
C438 H464 0.980 . S
C438 H465 0.983 . S
C439 C440 1.391 . S
C439 C444 1.391 . S
C439 H469 0.948 . S
C440 C439 1.391 . S
C440 C441 1.391 . S
C441 C440 1.391 . S
C441 C442 1.392 . S
C441 H470 0.947 . S
C442 C441 1.392 . S
C442 C443 1.419 . S
C442 H471 0.948 . S
C443 C442 1.419 . S
C443 C444 1.391 . S
C443 C447 1.397 . S
C444 C439 1.391 . S
C444 C443 1.391 . S
C444 C445 1.399 . S
C445 C444 1.399 . S
C445 C446 1.396 . S
C445 C448 1.453 . S
C445 C449 1.684 . S
C446 C427 1.723 . S
C446 C445 1.396 . S
C446 C447 1.394 . S
C447 C443 1.397 . S
C447 C446 1.394 . S
C447 C457 1.723 . S
C448 C445 1.453 . S
C448 H472 0.982 . S
C448 H473 0.979 . S
C448 H474 0.977 . S
C449 C445 1.684 . S
C449 H475 0.979 1_545 S
C449 H476 0.980 . S
C449 H477 0.983 . S
C450 H426 0.948 . S
C450 C451 1.391 . S
C450 C455 1.391 . S
C451 C450 1.391 . S
C451 C452 1.391 . S
C452 H429 0.947 . S
C452 C451 1.391 . S
C452 C453 1.392 . S
C453 H430 0.948 . S
C453 C452 1.392 . S
C453 C454 1.419 . S
C454 C453 1.419 . S
C454 C455 1.391 . S
C454 C458 1.397 . S
C455 C450 1.391 . S
C455 C454 1.391 . S
C455 C456 1.399 . S
C456 C455 1.399 . S
C456 C457 1.396 . S
C456 C459 1.453 . S
C456 C460 1.684 . S
C457 C447 1.723 . S
C457 C456 1.396 . S
C457 C458 1.394 . S
C458 C428 1.723 . S
C458 C454 1.397 . S
C458 C457 1.394 . S
C459 H431 0.982 . S
C459 H435 0.979 . S
C459 H436 0.977 . S
C459 C456 1.453 . S
C460 H432 0.979 1_545 S
C460 H433 0.980 . S
C460 H434 0.983 . S
C460 C456 1.684 . S
H461 C479 0.948 . S
H462 C420 0.948 . S
H463 C438 0.979 1_565 S
H464 C438 0.980 . S
H465 C438 0.983 . S
H466 C437 0.982 . S
H467 C437 0.979 . S
H468 C437 0.977 . S
H469 C439 0.948 . S
H470 C441 0.947 . S
H471 C442 0.948 . S
H472 C448 0.982 . S
H473 C448 0.979 . S
H474 C448 0.977 . S
H475 C449 0.979 1_565 S
H476 C449 0.980 . S
H477 C449 0.983 . S
H478 C422 0.947 . S
C479 C422 1.392 . S
C479 C423 1.419 . S
C479 H461 0.948 . S
C480 C481 1.391 . S
C480 C484 1.391 . S
C480 H522 0.948 . S
C481 C480 1.391 . S
C481 C482 1.391 . S
C482 C481 1.391 . S
C482 H538 0.947 . S
C482 C539 1.392 . S
C483 C484 1.391 . S
C483 C487 1.397 . S
C483 C539 1.419 . S
C484 C480 1.391 . S
C484 C483 1.391 . S
C484 C485 1.399 . S
C485 C484 1.399 . S
C485 C488 1.396 . S
C485 C497 1.453 . S
C485 C498 1.684 1_554 S
H486 C510 0.948 . S
C487 C483 1.397 . S
C487 C488 1.394 . S
C487 C506 1.723 . S
C488 C485 1.396 . S
C488 C487 1.394 . S
C488 C518 1.723 . S
H489 C512 0.947 . S
H490 C513 0.948 . S
H491 C519 0.982 . S
H492 C520 0.979 . S
H493 C520 0.980 . S
H494 C520 0.983 . S
H495 C519 0.979 . S
H496 C519 0.977 . S
C497 C485 1.453 . S
C497 H526 0.982 . S
C497 H527 0.979 . S
C497 H528 0.977 . S
C498 C485 1.684 1_556 S
C498 H523 0.979 . S
C498 H524 0.980 . S
C498 H525 0.983 . S
C499 C500 1.391 . S
C499 C504 1.391 . S
C499 H529 0.948 . S
C500 C499 1.391 . S
C500 C501 1.391 . S
C501 C500 1.391 . S
C501 C502 1.392 . S
C501 H530 0.947 . S
C502 C501 1.392 . S
C502 C503 1.419 . S
C502 H531 0.948 . S
C503 C502 1.419 . S
C503 C504 1.391 . S
C503 C507 1.397 . S
C504 C499 1.391 . S
C504 C503 1.391 . S
C504 C505 1.399 . S
C505 C504 1.399 . S
C505 C506 1.396 . S
C505 C508 1.453 . S
C505 C509 1.684 1_554 S
C506 C487 1.723 . S
C506 C505 1.396 . S
C506 C507 1.394 . S
C507 C503 1.397 . S
C507 C506 1.394 . S
C507 C517 1.723 . S
C508 C505 1.453 . S
C508 H532 0.982 . S
C508 H533 0.979 . S
C508 H534 0.977 . S
C509 C505 1.684 1_556 S
C509 H535 0.979 . S
C509 H536 0.980 . S
C509 H537 0.983 . S
C510 H486 0.948 . S
C510 C511 1.391 . S
C510 C515 1.391 . S
C511 C510 1.391 . S
C511 C512 1.391 . S
C512 H489 0.947 . S
C512 C511 1.391 . S
C512 C513 1.392 . S
C513 H490 0.948 . S
C513 C512 1.392 . S
C513 C514 1.419 . S
C514 C513 1.419 . S
C514 C515 1.391 . S
C514 C518 1.397 . S
C515 C510 1.391 . S
C515 C514 1.391 . S
C515 C516 1.399 . S
C516 C515 1.399 . S
C516 C517 1.396 . S
C516 C519 1.453 . S
C516 C520 1.684 1_554 S
C517 C507 1.723 . S
C517 C516 1.396 . S
C517 C518 1.394 . S
C518 C488 1.723 . S
C518 C514 1.397 . S
C518 C517 1.394 . S
C519 H491 0.982 . S
C519 H495 0.979 . S
C519 H496 0.977 . S
C519 C516 1.453 . S
C520 H492 0.979 . S
C520 H493 0.980 . S
C520 H494 0.983 . S
C520 C516 1.684 1_556 S
H521 C539 0.948 . S
H522 C480 0.948 . S
H523 C498 0.979 . S
H524 C498 0.980 . S
H525 C498 0.983 . S
H526 C497 0.982 . S
H527 C497 0.979 . S
H528 C497 0.977 . S
H529 C499 0.948 . S
H530 C501 0.947 . S
H531 C502 0.948 . S
H532 C508 0.982 . S
H533 C508 0.979 . S
H534 C508 0.977 . S
H535 C509 0.979 . S
H536 C509 0.980 . S
H537 C509 0.983 . S
H538 C482 0.947 . S
C539 C482 1.392 . S
C539 C483 1.419 . S
C539 H521 0.948 . S
C540 C541 1.391 . S
C540 C544 1.391 . S
C540 H582 0.948 . S
C541 C540 1.391 . S
C541 C542 1.391 . S
C542 C541 1.391 . S
C542 H598 0.947 . S
C542 C599 1.392 . S
C543 C544 1.391 . S
C543 C547 1.397 . S
C543 C599 1.419 . S
C544 C540 1.391 . S
C544 C543 1.391 . S
C544 C545 1.399 . S
C545 C544 1.399 . S
C545 C548 1.396 . S
C545 C557 1.453 1_554 S
C545 C558 1.684 . S
H546 C570 0.948 . S
C547 C543 1.397 . S
C547 C548 1.394 . S
C547 C566 1.723 . S
C548 C545 1.396 . S
C548 C547 1.394 . S
C548 C578 1.723 . S
H549 C572 0.947 . S
H550 C573 0.948 . S
H551 C579 0.982 . S
H552 C580 0.979 . S
H553 C580 0.980 . S
H554 C580 0.983 . S
H555 C579 0.979 . S
H556 C579 0.977 . S
C557 C545 1.453 1_556 S
C557 H586 0.982 . S
C557 H587 0.979 . S
C557 H588 0.977 . S
C558 C545 1.684 . S
C558 H583 0.979 . S
C558 H584 0.980 . S
C558 H585 0.983 . S
C559 C560 1.391 . S
C559 C564 1.391 . S
C559 H589 0.948 . S
C560 C559 1.391 . S
C560 C561 1.391 . S
C561 C560 1.391 . S
C561 C562 1.392 . S
C561 H590 0.947 . S
C562 C561 1.392 . S
C562 C563 1.419 . S
C562 H591 0.948 . S
C563 C562 1.419 . S
C563 C564 1.391 . S
C563 C567 1.397 . S
C564 C559 1.391 . S
C564 C563 1.391 . S
C564 C565 1.399 . S
C565 C564 1.399 . S
C565 C566 1.396 . S
C565 C568 1.453 1_554 S
C565 C569 1.684 . S
C566 C547 1.723 . S
C566 C565 1.396 . S
C566 C567 1.394 . S
C567 C563 1.397 . S
C567 C566 1.394 . S
C567 C577 1.723 . S
C568 C565 1.453 1_556 S
C568 H592 0.982 . S
C568 H593 0.979 . S
C568 H594 0.977 . S
C569 C565 1.684 . S
C569 H595 0.979 . S
C569 H596 0.980 . S
C569 H597 0.983 . S
C570 H546 0.948 . S
C570 C571 1.391 . S
C570 C575 1.391 . S
C571 C570 1.391 . S
C571 C572 1.391 . S
C572 H549 0.947 . S
C572 C571 1.391 . S
C572 C573 1.392 . S
C573 H550 0.948 . S
C573 C572 1.392 . S
C573 C574 1.419 . S
C574 C573 1.419 . S
C574 C575 1.391 . S
C574 C578 1.397 . S
C575 C570 1.391 . S
C575 C574 1.391 . S
C575 C576 1.399 . S
C576 C575 1.399 . S
C576 C577 1.396 . S
C576 C579 1.453 1_554 S
C576 C580 1.684 . S
C577 C567 1.723 . S
C577 C576 1.396 . S
C577 C578 1.394 . S
C578 C548 1.723 . S
C578 C574 1.397 . S
C578 C577 1.394 . S
C579 H551 0.982 . S
C579 H555 0.979 . S
C579 H556 0.977 . S
C579 C576 1.453 1_556 S
C580 H552 0.979 . S
C580 H553 0.980 . S
C580 H554 0.983 . S
C580 C576 1.684 . S
H581 C599 0.948 . S
H582 C540 0.948 . S
H583 C558 0.979 . S
H584 C558 0.980 . S
H585 C558 0.983 . S
H586 C557 0.982 . S
H587 C557 0.979 . S
H588 C557 0.977 . S
H589 C559 0.948 . S
H590 C561 0.947 . S
H591 C562 0.948 . S
H592 C568 0.982 . S
H593 C568 0.979 . S
H594 C568 0.977 . S
H595 C569 0.979 . S
H596 C569 0.980 . S
H597 C569 0.983 . S
H598 C542 0.947 . S
C599 C542 1.392 . S
C599 C543 1.419 . S
C599 H581 0.948 . S
C600 C601 1.392 . S
C600 C604 1.391 . S
C600 H642 0.948 . S
C601 C600 1.392 . S
C601 C602 1.391 . S
C602 C601 1.391 . S
C602 H658 0.947 . S
C602 C659 1.392 . S
C603 C604 1.391 1_554 S
C603 C607 1.397 . S
C603 C659 1.419 1_554 S
C604 C600 1.391 . S
C604 C603 1.391 1_556 S
C604 C605 1.399 . S
C605 C604 1.399 . S
C605 C608 1.396 1_556 S
C605 C617 1.453 1_556 S
C605 C618 1.684 . S
H606 C630 0.948 . S
C607 C603 1.397 . S
C607 C608 1.394 . S
C607 C626 1.723 . S
C608 C605 1.396 1_554 S
C608 C607 1.394 . S
C608 C638 1.723 . S
H609 C632 0.947 . S
H610 C633 0.948 . S
H611 C639 0.982 . S
H612 C640 0.979 . S
H613 C640 0.980 . S
H614 C640 0.983 . S
H615 C639 0.979 . S
H616 C639 0.977 . S
C617 C605 1.453 1_554 S
C617 H646 0.982 . S
C617 H647 0.979 . S
C617 H648 0.977 . S
C618 C605 1.684 . S
C618 H643 0.979 . S
C618 H644 0.980 . S
C618 H645 0.983 . S
C619 C620 1.391 1_556 S
C619 C624 1.392 . S
C619 H649 0.948 . S
C620 C619 1.391 1_554 S
C620 C621 1.391 1_554 S
C621 C620 1.391 1_556 S
C621 C622 1.392 . S
C621 H650 0.947 1_556 S
C622 C621 1.392 . S
C622 C623 1.419 1_556 S
C622 H651 0.948 . S
C623 C622 1.419 1_554 S
C623 C624 1.391 1_554 S
C623 C627 1.397 . S
C624 C619 1.392 . S
C624 C623 1.391 1_556 S
C624 C625 1.401 . S
C625 C624 1.401 . S
C625 C626 1.391 1_556 S
C625 C628 1.428 1_556 S
C625 C629 1.704 . S
C626 C607 1.723 . S
C626 C625 1.391 1_554 S
C626 C627 1.394 . S
C627 C623 1.397 . S
C627 C626 1.394 . S
C627 C637 1.723 . S
C628 C625 1.428 1_554 S
C628 H652 0.982 . S
C628 H653 0.979 . S
C628 H654 0.977 . S
C629 C625 1.704 . S
C629 H655 0.979 . S
C629 H656 0.980 . S
C629 H657 0.983 . S
C630 H606 0.948 . S
C630 C631 1.392 . S
C630 C635 1.391 . S
C631 C630 1.392 . S
C631 C632 1.391 . S
C632 H609 0.947 . S
C632 C631 1.391 . S
C632 C633 1.393 . S
C633 H610 0.948 . S
C633 C632 1.393 . S
C633 C634 1.416 1_556 S
C634 C633 1.416 1_554 S
C634 C635 1.388 1_554 S
C634 C638 1.400 . S
C635 C630 1.391 . S
C635 C634 1.388 1_556 S
C635 C636 1.399 . S
C636 C635 1.399 . S
C636 C637 1.396 1_556 S
C636 C639 1.453 1_556 S
C636 C640 1.684 . S
C637 C627 1.723 . S
C637 C636 1.396 1_554 S
C637 C638 1.394 . S
C638 C608 1.723 . S
C638 C634 1.400 . S
C638 C637 1.394 . S
C639 H611 0.982 . S
C639 H615 0.979 . S
C639 H616 0.977 . S
C639 C636 1.453 1_554 S
C640 H612 0.979 . S
C640 H613 0.980 . S
C640 H614 0.983 . S
C640 C636 1.684 . S
H641 C659 0.948 . S
H642 C600 0.948 . S
H643 C618 0.979 . S
H644 C618 0.980 . S
H645 C618 0.983 . S
H646 C617 0.982 . S
H647 C617 0.979 . S
H648 C617 0.977 . S
H649 C619 0.948 . S
H650 C621 0.947 1_554 S
H651 C622 0.948 . S
H652 C628 0.982 . S
H653 C628 0.979 . S
H654 C628 0.977 . S
H655 C629 0.979 . S
H656 C629 0.980 . S
H657 C629 0.983 . S
H658 C602 0.947 . S
C659 C602 1.392 . S
C659 C603 1.419 1_556 S
C659 H641 0.948 . S
C660 C661 1.391 . S
C660 C664 1.391 . S
C660 H702 0.948 . S
C661 C660 1.391 . S
C661 C662 1.391 . S
C662 C661 1.391 . S
C662 H718 0.947 . S
C662 C719 1.392 . S
C663 C664 1.391 . S
C663 C667 1.397 . S
C663 C719 1.419 . S
C664 C660 1.391 . S
C664 C663 1.391 . S
C664 C665 1.399 . S
C665 C664 1.399 . S
C665 C668 1.396 . S
C665 C677 1.453 1_554 S
C665 C678 1.684 . S
H666 C690 0.948 . S
C667 C663 1.397 . S
C667 C668 1.394 . S
C667 C686 1.723 . S
C668 C665 1.396 . S
C668 C667 1.394 . S
C668 C698 1.723 . S
H669 C692 0.947 . S
H670 C693 0.948 . S
H671 C699 0.982 . S
H672 C700 0.979 . S
H673 C700 0.980 . S
H674 C700 0.983 . S
H675 C699 0.979 . S
H676 C699 0.977 . S
C677 C665 1.453 1_556 S
C677 H706 0.982 . S
C677 H707 0.979 . S
C677 H708 0.977 . S
C678 C665 1.684 . S
C678 H703 0.979 . S
C678 H704 0.980 . S
C678 H705 0.983 . S
C679 C680 1.391 . S
C679 C684 1.391 . S
C679 H709 0.948 . S
C680 C679 1.391 . S
C680 C681 1.391 . S
C681 C680 1.391 . S
C681 C682 1.392 . S
C681 H710 0.947 . S
C682 C681 1.392 . S
C682 C683 1.419 . S
C682 H711 0.948 . S
C683 C682 1.419 . S
C683 C684 1.391 . S
C683 C687 1.397 . S
C684 C679 1.391 . S
C684 C683 1.391 . S
C684 C685 1.399 . S
C685 C684 1.399 . S
C685 C686 1.396 . S
C685 C688 1.453 1_554 S
C685 C689 1.684 . S
C686 C667 1.723 . S
C686 C685 1.396 . S
C686 C687 1.394 . S
C687 C683 1.397 . S
C687 C686 1.394 . S
C687 C697 1.723 . S
C688 C685 1.453 1_556 S
C688 H712 0.982 . S
C688 H713 0.979 . S
C688 H714 0.977 . S
C689 C685 1.684 . S
C689 H715 0.979 . S
C689 H716 0.980 . S
C689 H717 0.983 . S
C690 H666 0.948 . S
C690 C691 1.391 . S
C690 C695 1.391 . S
C691 C690 1.391 . S
C691 C692 1.391 . S
C692 H669 0.947 . S
C692 C691 1.391 . S
C692 C693 1.392 . S
C693 H670 0.948 . S
C693 C692 1.392 . S
C693 C694 1.419 . S
C694 C693 1.419 . S
C694 C695 1.391 . S
C694 C698 1.397 . S
C695 C690 1.391 . S
C695 C694 1.391 . S
C695 C696 1.399 . S
C696 C695 1.399 . S
C696 C697 1.396 . S
C696 C699 1.453 1_554 S
C696 C700 1.684 . S
C697 C687 1.723 . S
C697 C696 1.396 . S
C697 C698 1.394 . S
C698 C668 1.723 . S
C698 C694 1.397 . S
C698 C697 1.394 . S
C699 H671 0.982 . S
C699 H675 0.979 . S
C699 H676 0.977 . S
C699 C696 1.453 1_556 S
C700 H672 0.979 . S
C700 H673 0.980 . S
C700 H674 0.983 . S
C700 C696 1.684 . S
H701 C719 0.948 . S
H702 C660 0.948 . S
H703 C678 0.979 . S
H704 C678 0.980 . S
H705 C678 0.983 . S
H706 C677 0.982 . S
H707 C677 0.979 . S
H708 C677 0.977 . S
H709 C679 0.948 . S
H710 C681 0.947 . S
H711 C682 0.948 . S
H712 C688 0.982 . S
H713 C688 0.979 . S
H714 C688 0.977 . S
H715 C689 0.979 . S
H716 C689 0.980 . S
H717 C689 0.983 . S
H718 C662 0.947 . S
C719 C662 1.392 . S
C719 C663 1.419 . S
C719 H701 0.948 . S
C720 C721 1.391 . S
C720 C724 1.391 . S
C720 H762 0.948 . S
C721 C720 1.391 . S
C721 C722 1.391 . S
C722 C721 1.391 . S
C722 H778 0.947 . S
C722 C779 1.392 . S
C723 C724 1.391 . S
C723 C727 1.397 . S
C723 C779 1.419 . S
C724 C720 1.391 . S
C724 C723 1.391 . S
C724 C725 1.399 . S
C725 C724 1.399 . S
C725 C728 1.396 . S
C725 C737 1.453 . S
C725 C738 1.684 . S
H726 C750 0.948 . S
C727 C723 1.397 . S
C727 C728 1.394 . S
C727 C746 1.723 . S
C728 C725 1.396 . S
C728 C727 1.394 . S
C728 C758 1.723 . S
H729 C752 0.947 . S
H730 C753 0.948 . S
H731 C759 0.982 . S
H732 C760 0.979 . S
H733 C760 0.980 . S
H734 C760 0.983 . S
H735 C759 0.979 . S
H736 C759 0.977 . S
C737 C725 1.453 . S
C737 H766 0.982 . S
C737 H767 0.979 . S
C737 H768 0.977 . S
C738 C725 1.684 . S
C738 H763 0.979 . S
C738 H764 0.980 . S
C738 H765 0.983 . S
C739 C740 1.391 . S
C739 C744 1.391 . S
C739 H769 0.948 . S
C740 C739 1.391 . S
C740 C741 1.391 . S
C741 C740 1.391 . S
C741 C742 1.392 . S
C741 H770 0.947 . S
C742 C741 1.392 . S
C742 C743 1.419 . S
C742 H771 0.948 . S
C743 C742 1.419 . S
C743 C744 1.391 . S
C743 C747 1.397 . S
C744 C739 1.391 . S
C744 C743 1.391 . S
C744 C745 1.399 . S
C745 C744 1.399 . S
C745 C746 1.396 . S
C745 C748 1.453 . S
C745 C749 1.684 . S
C746 C727 1.723 . S
C746 C745 1.396 . S
C746 C747 1.394 . S
C747 C743 1.397 . S
C747 C746 1.394 . S
C747 C757 1.723 . S
C748 C745 1.453 . S
C748 H772 0.982 . S
C748 H773 0.979 . S
C748 H774 0.977 . S
C749 C745 1.684 . S
C749 H775 0.979 . S
C749 H776 0.980 . S
C749 H777 0.983 . S
C750 H726 0.948 . S
C750 C751 1.391 . S
C750 C755 1.391 . S
C751 C750 1.391 . S
C751 C752 1.391 . S
C752 H729 0.947 . S
C752 C751 1.391 . S
C752 C753 1.392 . S
C753 H730 0.948 . S
C753 C752 1.392 . S
C753 C754 1.419 . S
C754 C753 1.419 . S
C754 C755 1.391 . S
C754 C758 1.397 . S
C755 C750 1.391 . S
C755 C754 1.391 . S
C755 C756 1.399 . S
C756 C755 1.399 . S
C756 C757 1.396 . S
C756 C759 1.453 . S
C756 C760 1.684 . S
C757 C747 1.723 . S
C757 C756 1.396 . S
C757 C758 1.394 . S
C758 C728 1.723 . S
C758 C754 1.397 . S
C758 C757 1.394 . S
C759 H731 0.982 . S
C759 H735 0.979 . S
C759 H736 0.977 . S
C759 C756 1.453 . S
C760 H732 0.979 . S
C760 H733 0.980 . S
C760 H734 0.983 . S
C760 C756 1.684 . S
H761 C779 0.948 . S
H762 C720 0.948 . S
H763 C738 0.979 . S
H764 C738 0.980 . S
H765 C738 0.983 . S
H766 C737 0.982 . S
H767 C737 0.979 . S
H768 C737 0.977 . S
H769 C739 0.948 . S
H770 C741 0.947 . S
H771 C742 0.948 . S
H772 C748 0.982 . S
H773 C748 0.979 . S
H774 C748 0.977 . S
H775 C749 0.979 . S
H776 C749 0.980 . S
H777 C749 0.983 . S
H778 C722 0.947 . S
C779 C722 1.392 . S
C779 C723 1.419 . S
C779 H761 0.948 . S
C780 C781 1.391 . S
C780 C784 1.391 . S
C780 H822 0.948 . S
C781 C780 1.391 . S
C781 C782 1.391 . S
C782 C781 1.391 . S
C782 H838 0.947 . S
C782 C839 1.392 . S
C783 C784 1.391 . S
C783 C787 1.397 . S
C783 C839 1.419 . S
C784 C780 1.391 . S
C784 C783 1.391 . S
C784 C785 1.399 . S
C785 C784 1.399 . S
C785 C788 1.396 . S
C785 C797 1.453 . S
C785 C798 1.684 . S
H786 C810 0.948 . S
C787 C783 1.397 . S
C787 C788 1.394 . S
C787 C806 1.723 . S
C788 C785 1.396 . S
C788 C787 1.394 . S
C788 C818 1.723 . S
H789 C812 0.947 . S
H790 C813 0.948 . S
H791 C819 0.982 . S
H792 C820 0.979 . S
H793 C820 0.980 . S
H794 C820 0.983 . S
H795 C819 0.979 . S
H796 C819 0.977 . S
C797 C785 1.453 . S
C797 H826 0.982 . S
C797 H827 0.979 . S
C797 H828 0.977 . S
C798 C785 1.684 . S
C798 H823 0.979 . S
C798 H824 0.980 . S
C798 H825 0.983 . S
C799 C800 1.391 . S
C799 C804 1.391 . S
C799 H829 0.948 . S
C800 C799 1.391 . S
C800 C801 1.391 . S
C801 C800 1.391 . S
C801 C802 1.392 . S
C801 H830 0.947 . S
C802 C801 1.392 . S
C802 C803 1.419 . S
C802 H831 0.948 . S
C803 C802 1.419 . S
C803 C804 1.391 . S
C803 C807 1.397 . S
C804 C799 1.391 . S
C804 C803 1.391 . S
C804 C805 1.399 . S
C805 C804 1.399 . S
C805 C806 1.396 . S
C805 C808 1.453 . S
C805 C809 1.684 . S
C806 C787 1.723 . S
C806 C805 1.396 . S
C806 C807 1.394 . S
C807 C803 1.397 . S
C807 C806 1.394 . S
C807 C817 1.723 . S
C808 C805 1.453 . S
C808 H832 0.982 . S
C808 H833 0.979 . S
C808 H834 0.977 . S
C809 C805 1.684 . S
C809 H835 0.979 . S
C809 H836 0.980 . S
C809 H837 0.983 . S
C810 H786 0.948 . S
C810 C811 1.391 . S
C810 C815 1.391 . S
C811 C810 1.391 . S
C811 C812 1.391 . S
C812 H789 0.947 . S
C812 C811 1.391 . S
C812 C813 1.392 . S
C813 H790 0.948 . S
C813 C812 1.392 . S
C813 C814 1.419 . S
C814 C813 1.419 . S
C814 C815 1.391 . S
C814 C818 1.397 . S
C815 C810 1.391 . S
C815 C814 1.391 . S
C815 C816 1.399 . S
C816 C815 1.399 . S
C816 C817 1.396 . S
C816 C819 1.453 . S
C816 C820 1.684 . S
C817 C807 1.723 . S
C817 C816 1.396 . S
C817 C818 1.394 . S
C818 C788 1.723 . S
C818 C814 1.397 . S
C818 C817 1.394 . S
C819 H791 0.982 . S
C819 H795 0.979 . S
C819 H796 0.977 . S
C819 C816 1.453 . S
C820 H792 0.979 . S
C820 H793 0.980 . S
C820 H794 0.983 . S
C820 C816 1.684 . S
H821 C839 0.948 . S
H822 C780 0.948 . S
H823 C798 0.979 . S
H824 C798 0.980 . S
H825 C798 0.983 . S
H826 C797 0.982 . S
H827 C797 0.979 . S
H828 C797 0.977 . S
H829 C799 0.948 . S
H830 C801 0.947 . S
H831 C802 0.948 . S
H832 C808 0.982 . S
H833 C808 0.979 . S
H834 C808 0.977 . S
H835 C809 0.979 . S
H836 C809 0.980 . S
H837 C809 0.983 . S
H838 C782 0.947 . S
C839 C782 1.392 . S
C839 C783 1.419 . S
C839 H821 0.948 . S
C840 C841 1.391 . S
C840 C844 1.391 . S
C840 H882 0.948 . S
C841 C840 1.391 . S
C841 C842 1.391 . S
C842 C841 1.391 . S
C842 H898 0.947 . S
C842 C899 1.392 . S
C843 C844 1.391 . S
C843 C847 1.397 . S
C843 C899 1.419 . S
C844 C840 1.391 . S
C844 C843 1.391 . S
C844 C845 1.399 . S
C845 C844 1.399 . S
C845 C848 1.396 . S
C845 C857 1.453 . S
C845 C858 1.684 . S
H846 C870 0.948 . S
C847 C843 1.397 . S
C847 C848 1.394 . S
C847 C866 1.723 . S
C848 C845 1.396 . S
C848 C847 1.394 . S
C848 C878 1.723 . S
H849 C872 0.947 . S
H850 C873 0.948 . S
H851 C879 0.982 . S
H852 C880 0.979 . S
H853 C880 0.980 . S
H854 C880 0.983 . S
H855 C879 0.979 . S
H856 C879 0.977 . S
C857 C845 1.453 . S
C857 H886 0.982 . S
C857 H887 0.979 . S
C857 H888 0.977 . S
C858 C845 1.684 . S
C858 H883 0.979 . S
C858 H884 0.980 . S
C858 H885 0.983 . S
C859 C860 1.391 . S
C859 C864 1.391 . S
C859 H889 0.948 . S
C860 C859 1.391 . S
C860 C861 1.391 . S
C861 C860 1.391 . S
C861 C862 1.392 . S
C861 H890 0.947 . S
C862 C861 1.392 . S
C862 C863 1.419 . S
C862 H891 0.948 . S
C863 C862 1.419 . S
C863 C864 1.391 . S
C863 C867 1.397 . S
C864 C859 1.391 . S
C864 C863 1.391 . S
C864 C865 1.399 . S
C865 C864 1.399 . S
C865 C866 1.396 . S
C865 C868 1.453 . S
C865 C869 1.684 . S
C866 C847 1.723 . S
C866 C865 1.396 . S
C866 C867 1.394 . S
C867 C863 1.397 . S
C867 C866 1.394 . S
C867 C877 1.723 . S
C868 C865 1.453 . S
C868 H892 0.982 . S
C868 H893 0.979 . S
C868 H894 0.977 . S
C869 C865 1.684 . S
C869 H895 0.979 . S
C869 H896 0.980 . S
C869 H897 0.983 . S
C870 H846 0.948 . S
C870 C871 1.391 . S
C870 C875 1.391 . S
C871 C870 1.391 . S
C871 C872 1.391 . S
C872 H849 0.947 . S
C872 C871 1.391 . S
C872 C873 1.392 . S
C873 H850 0.948 . S
C873 C872 1.392 . S
C873 C874 1.419 . S
C874 C873 1.419 . S
C874 C875 1.391 . S
C874 C878 1.397 . S
C875 C870 1.391 . S
C875 C874 1.391 . S
C875 C876 1.399 . S
C876 C875 1.399 . S
C876 C877 1.396 . S
C876 C879 1.453 . S
C876 C880 1.684 . S
C877 C867 1.723 . S
C877 C876 1.396 . S
C877 C878 1.394 . S
C878 C848 1.723 . S
C878 C874 1.397 . S
C878 C877 1.394 . S
C879 H851 0.982 . S
C879 H855 0.979 . S
C879 H856 0.977 . S
C879 C876 1.453 . S
C880 H852 0.979 . S
C880 H853 0.980 . S
C880 H854 0.983 . S
C880 C876 1.684 . S
H881 C899 0.948 . S
H882 C840 0.948 . S
H883 C858 0.979 . S
H884 C858 0.980 . S
H885 C858 0.983 . S
H886 C857 0.982 . S
H887 C857 0.979 . S
H888 C857 0.977 . S
H889 C859 0.948 . S
H890 C861 0.947 . S
H891 C862 0.948 . S
H892 C868 0.982 . S
H893 C868 0.979 . S
H894 C868 0.977 . S
H895 C869 0.979 . S
H896 C869 0.980 . S
H897 C869 0.983 . S
H898 C842 0.947 . S
C899 C842 1.392 . S
C899 C843 1.419 . S
C899 H881 0.948 . S
C900 C901 1.391 . S
C900 C904 1.391 . S
C900 H942 0.948 . S
C901 C900 1.391 . S
C901 C902 1.391 . S
C902 C901 1.391 . S
C902 H958 0.947 . S
C902 C959 1.392 . S
C903 C904 1.391 . S
C903 C907 1.397 . S
C903 C959 1.419 . S
C904 C900 1.391 . S
C904 C903 1.391 . S
C904 C905 1.399 . S
C905 C904 1.399 . S
C905 C908 1.396 . S
C905 C917 1.453 . S
C905 C918 1.684 . S
H906 C930 0.948 . S
C907 C903 1.397 . S
C907 C908 1.394 . S
C907 C926 1.723 . S
C908 C905 1.396 . S
C908 C907 1.394 . S
C908 C938 1.723 . S
H909 C932 0.947 . S
H910 C933 0.948 . S
H911 C939 0.982 . S
H912 C940 0.979 . S
H913 C940 0.980 . S
H914 C940 0.983 . S
H915 C939 0.979 . S
H916 C939 0.977 . S
C917 C905 1.453 . S
C917 H946 0.982 . S
C917 H947 0.979 . S
C917 H948 0.977 . S
C918 C905 1.684 . S
C918 H943 0.979 . S
C918 H944 0.980 . S
C918 H945 0.983 . S
C919 C920 1.391 . S
C919 C924 1.391 . S
C919 H949 0.948 . S
C920 C919 1.391 . S
C920 C921 1.391 . S
C921 C920 1.391 . S
C921 C922 1.392 . S
C921 H950 0.947 . S
C922 C921 1.392 . S
C922 C923 1.419 . S
C922 H951 0.948 . S
C923 C922 1.419 . S
C923 C924 1.391 . S
C923 C927 1.397 . S
C924 C919 1.391 . S
C924 C923 1.391 . S
C924 C925 1.399 . S
C925 C924 1.399 . S
C925 C926 1.396 . S
C925 C928 1.453 . S
C925 C929 1.684 . S
C926 C907 1.723 . S
C926 C925 1.396 . S
C926 C927 1.394 . S
C927 C923 1.397 . S
C927 C926 1.394 . S
C927 C937 1.723 . S
C928 C925 1.453 . S
C928 H952 0.982 . S
C928 H953 0.979 . S
C928 H954 0.977 . S
C929 C925 1.684 . S
C929 H955 0.979 . S
C929 H956 0.980 . S
C929 H957 0.983 . S
C930 H906 0.948 . S
C930 C931 1.391 . S
C930 C935 1.391 . S
C931 C930 1.391 . S
C931 C932 1.391 . S
C932 H909 0.947 . S
C932 C931 1.391 . S
C932 C933 1.392 . S
C933 H910 0.948 . S
C933 C932 1.392 . S
C933 C934 1.419 . S
C934 C933 1.419 . S
C934 C935 1.391 . S
C934 C938 1.397 . S
C935 C930 1.391 . S
C935 C934 1.391 . S
C935 C936 1.399 . S
C936 C935 1.399 . S
C936 C937 1.396 . S
C936 C939 1.453 . S
C936 C940 1.684 . S
C937 C927 1.723 . S
C937 C936 1.396 . S
C937 C938 1.394 . S
C938 C908 1.723 . S
C938 C934 1.397 . S
C938 C937 1.394 . S
C939 H911 0.982 . S
C939 H915 0.979 . S
C939 H916 0.977 . S
C939 C936 1.453 . S
C940 H912 0.979 . S
C940 H913 0.980 . S
C940 H914 0.983 . S
C940 C936 1.684 . S
H941 C959 0.948 . S
H942 C900 0.948 . S
H943 C918 0.979 . S
H944 C918 0.980 . S
H945 C918 0.983 . S
H946 C917 0.982 . S
H947 C917 0.979 . S
H948 C917 0.977 . S
H949 C919 0.948 . S
H950 C921 0.947 . S
H951 C922 0.948 . S
H952 C928 0.982 . S
H953 C928 0.979 . S
H954 C928 0.977 . S
H955 C929 0.979 . S
H956 C929 0.980 . S
H957 C929 0.983 . S
H958 C902 0.947 . S
C959 C902 1.392 . S
C959 C903 1.419 . S
C959 H941 0.948 . S
C960 C961 1.391 . S
C960 C964 1.391 . S
C960 H1002 0.948 . S
C961 C960 1.391 . S
C961 C962 1.391 . S
C962 C961 1.391 . S
C962 H1018 0.947 . S
C962 C1019 1.392 . S
C963 C964 1.391 . S
C963 C967 1.397 . S
C963 C1019 1.419 . S
C964 C960 1.391 . S
C964 C963 1.391 . S
C964 C965 1.399 . S
C965 C964 1.399 . S
C965 C968 1.396 . S
C965 C977 1.453 . S
C965 C978 1.684 . S
H966 C990 0.948 . S
C967 C963 1.397 . S
C967 C968 1.394 . S
C967 C986 1.723 . S
C968 C965 1.396 . S
C968 C967 1.394 . S
C968 C998 1.723 . S
H969 C992 0.947 . S
H970 C993 0.948 . S
H971 C999 0.982 . S
H972 C1000 0.979 . S
H973 C1000 0.980 . S
H974 C1000 0.983 . S
H975 C999 0.979 . S
H976 C999 0.977 . S
C977 C965 1.453 . S
C977 H1006 0.982 . S
C977 H1007 0.979 . S
C977 H1008 0.977 . S
C978 C965 1.684 . S
C978 H1003 0.979 . S
C978 H1004 0.980 . S
C978 H1005 0.983 . S
C979 C980 1.391 . S
C979 C984 1.391 . S
C979 H1009 0.948 . S
C980 C979 1.391 . S
C980 C981 1.391 . S
C981 C980 1.391 . S
C981 C982 1.392 . S
C981 H1010 0.947 . S
C982 C981 1.392 . S
C982 C983 1.419 . S
C982 H1011 0.948 . S
C983 C982 1.419 . S
C983 C984 1.391 . S
C983 C987 1.397 . S
C984 C979 1.391 . S
C984 C983 1.391 . S
C984 C985 1.399 . S
C985 C984 1.399 . S
C985 C986 1.396 . S
C985 C988 1.453 . S
C985 C989 1.684 . S
C986 C967 1.723 . S
C986 C985 1.396 . S
C986 C987 1.394 . S
C987 C983 1.397 . S
C987 C986 1.394 . S
C987 C997 1.723 . S
C988 C985 1.453 . S
C988 H1012 0.982 . S
C988 H1013 0.979 . S
C988 H1014 0.977 . S
C989 C985 1.684 . S
C989 H1015 0.979 . S
C989 H1016 0.980 . S
C989 H1017 0.983 . S
C990 H966 0.948 . S
C990 C991 1.391 . S
C990 C995 1.391 . S
C991 C990 1.391 . S
C991 C992 1.391 . S
C992 H969 0.947 . S
C992 C991 1.391 . S
C992 C993 1.392 . S
C993 H970 0.948 . S
C993 C992 1.392 . S
C993 C994 1.419 . S
C994 C993 1.419 . S
C994 C995 1.391 . S
C994 C998 1.397 . S
C995 C990 1.391 . S
C995 C994 1.391 . S
C995 C996 1.399 . S
C996 C995 1.399 . S
C996 C997 1.396 . S
C996 C999 1.453 . S
C996 C1000 1.684 . S
C997 C987 1.723 . S
C997 C996 1.396 . S
C997 C998 1.394 . S
C998 C968 1.723 . S
C998 C994 1.397 . S
C998 C997 1.394 . S
C999 H971 0.982 . S
C999 H975 0.979 . S
C999 H976 0.977 . S
C999 C996 1.453 . S
C1000 H972 0.979 . S
C1000 H973 0.980 . S
C1000 H974 0.983 . S
C1000 C996 1.684 . S
H1001 C1019 0.948 . S
H1002 C960 0.948 . S
H1003 C978 0.979 . S
H1004 C978 0.980 . S
H1005 C978 0.983 . S
H1006 C977 0.982 . S
H1007 C977 0.979 . S
H1008 C977 0.977 . S
H1009 C979 0.948 . S
H1010 C981 0.947 . S
H1011 C982 0.948 . S
H1012 C988 0.982 . S
H1013 C988 0.979 . S
H1014 C988 0.977 . S
H1015 C989 0.979 . S
H1016 C989 0.980 . S
H1017 C989 0.983 . S
H1018 C962 0.947 . S
C1019 C962 1.392 . S
C1019 C963 1.419 . S
C1019 H1001 0.948 . S
C1020 C1021 1.391 . S
C1020 C1024 1.391 . S
C1020 H1062 0.948 . S
C1021 C1020 1.391 . S
C1021 C1022 1.391 . S
C1022 C1021 1.391 . S
C1022 H1078 0.947 . S
C1022 C1079 1.392 . S
C1023 C1024 1.391 . S
C1023 C1027 1.397 . S
C1023 C1079 1.419 . S
C1024 C1020 1.391 . S
C1024 C1023 1.391 . S
C1024 C1025 1.399 . S
C1025 C1024 1.399 . S
C1025 C1028 1.396 . S
C1025 C1037 1.453 . S
C1025 C1038 1.684 . S
H1026 C1050 0.948 . S
C1027 C1023 1.397 . S
C1027 C1028 1.394 . S
C1027 C1046 1.723 . S
C1028 C1025 1.396 . S
C1028 C1027 1.394 . S
C1028 C1058 1.723 . S
H1029 C1052 0.947 . S
H1030 C1053 0.948 . S
H1031 C1059 0.982 . S
H1032 C1060 0.979 . S
H1033 C1060 0.980 . S
H1034 C1060 0.983 . S
H1035 C1059 0.979 . S
H1036 C1059 0.977 . S
C1037 C1025 1.453 . S
C1037 H1066 0.982 . S
C1037 H1067 0.979 . S
C1037 H1068 0.977 . S
C1038 C1025 1.684 . S
C1038 H1063 0.979 . S
C1038 H1064 0.980 . S
C1038 H1065 0.983 . S
C1039 C1040 1.391 . S
C1039 C1044 1.391 . S
C1039 H1069 0.948 . S
C1040 C1039 1.391 . S
C1040 C1041 1.391 . S
C1041 C1040 1.391 . S
C1041 C1042 1.392 . S
C1041 H1070 0.947 . S
C1042 C1041 1.392 . S
C1042 C1043 1.419 . S
C1042 H1071 0.948 . S
C1043 C1042 1.419 . S
C1043 C1044 1.391 . S
C1043 C1047 1.397 . S
C1044 C1039 1.391 . S
C1044 C1043 1.391 . S
C1044 C1045 1.399 . S
C1045 C1044 1.399 . S
C1045 C1046 1.396 . S
C1045 C1048 1.453 . S
C1045 C1049 1.684 . S
C1046 C1027 1.723 . S
C1046 C1045 1.396 . S
C1046 C1047 1.394 . S
C1047 C1043 1.397 . S
C1047 C1046 1.394 . S
C1047 C1057 1.723 . S
C1048 C1045 1.453 . S
C1048 H1072 0.982 . S
C1048 H1073 0.979 . S
C1048 H1074 0.977 . S
C1049 C1045 1.684 . S
C1049 H1075 0.979 . S
C1049 H1076 0.980 . S
C1049 H1077 0.983 . S
C1050 H1026 0.948 . S
C1050 C1051 1.391 . S
C1050 C1055 1.391 . S
C1051 C1050 1.391 . S
C1051 C1052 1.391 . S
C1052 H1029 0.947 . S
C1052 C1051 1.391 . S
C1052 C1053 1.392 . S
C1053 H1030 0.948 . S
C1053 C1052 1.392 . S
C1053 C1054 1.419 . S
C1054 C1053 1.419 . S
C1054 C1055 1.391 . S
C1054 C1058 1.397 . S
C1055 C1050 1.391 . S
C1055 C1054 1.391 . S
C1055 C1056 1.399 . S
C1056 C1055 1.399 . S
C1056 C1057 1.396 . S
C1056 C1059 1.453 . S
C1056 C1060 1.684 . S
C1057 C1047 1.723 . S
C1057 C1056 1.396 . S
C1057 C1058 1.394 . S
C1058 C1028 1.723 . S
C1058 C1054 1.397 . S
C1058 C1057 1.394 . S
C1059 H1031 0.982 . S
C1059 H1035 0.979 . S
C1059 H1036 0.977 . S
C1059 C1056 1.453 . S
C1060 H1032 0.979 . S
C1060 H1033 0.980 . S
C1060 H1034 0.983 . S
C1060 C1056 1.684 . S
H1061 C1079 0.948 . S
H1062 C1020 0.948 . S
H1063 C1038 0.979 . S
H1064 C1038 0.980 . S
H1065 C1038 0.983 . S
H1066 C1037 0.982 . S
H1067 C1037 0.979 . S
H1068 C1037 0.977 . S
H1069 C1039 0.948 . S
H1070 C1041 0.947 . S
H1071 C1042 0.948 . S
H1072 C1048 0.982 . S
H1073 C1048 0.979 . S
H1074 C1048 0.977 . S
H1075 C1049 0.979 . S
H1076 C1049 0.980 . S
H1077 C1049 0.983 . S
H1078 C1022 0.947 . S
C1079 C1022 1.392 . S
C1079 C1023 1.419 . S
C1079 H1061 0.948 . S
C1080 C1081 1.391 . S
C1080 C1084 1.391 . S
C1080 H1122 0.948 . S
C1081 C1080 1.391 . S
C1081 C1082 1.391 . S
C1082 C1081 1.391 . S
C1082 H1138 0.947 . S
C1082 C1139 1.392 . S
C1083 C1084 1.391 . S
C1083 C1087 1.397 . S
C1083 C1139 1.419 . S
C1084 C1080 1.391 . S
C1084 C1083 1.391 . S
C1084 C1085 1.399 . S
C1085 C1084 1.399 . S
C1085 C1088 1.396 . S
C1085 C1097 1.453 . S
C1085 C1098 1.684 . S
H1086 C1110 0.948 . S
C1087 C1083 1.397 . S
C1087 C1088 1.394 . S
C1087 C1106 1.723 . S
C1088 C1085 1.396 . S
C1088 C1087 1.394 . S
C1088 C1118 1.723 . S
H1089 C1112 0.947 . S
H1090 C1113 0.948 . S
H1091 C1119 0.982 . S
H1092 C1120 0.979 . S
H1093 C1120 0.980 . S
H1094 C1120 0.983 . S
H1095 C1119 0.979 . S
H1096 C1119 0.977 . S
C1097 C1085 1.453 . S
C1097 H1126 0.982 . S
C1097 H1127 0.979 . S
C1097 H1128 0.977 . S
C1098 C1085 1.684 . S
C1098 H1123 0.979 . S
C1098 H1124 0.980 . S
C1098 H1125 0.983 . S
C1099 C1100 1.391 . S
C1099 C1104 1.391 . S
C1099 H1129 0.948 . S
C1100 C1099 1.391 . S
C1100 C1101 1.391 . S
C1101 C1100 1.391 . S
C1101 C1102 1.392 . S
C1101 H1130 0.947 . S
C1102 C1101 1.392 . S
C1102 C1103 1.419 . S
C1102 H1131 0.948 . S
C1103 C1102 1.419 . S
C1103 C1104 1.391 . S
C1103 C1107 1.397 . S
C1104 C1099 1.391 . S
C1104 C1103 1.391 . S
C1104 C1105 1.399 . S
C1105 C1104 1.399 . S
C1105 C1106 1.396 . S
C1105 C1108 1.453 . S
C1105 C1109 1.684 . S
C1106 C1087 1.723 . S
C1106 C1105 1.396 . S
C1106 C1107 1.394 . S
C1107 C1103 1.397 . S
C1107 C1106 1.394 . S
C1107 C1117 1.723 . S
C1108 C1105 1.453 . S
C1108 H1132 0.982 . S
C1108 H1133 0.979 . S
C1108 H1134 0.977 . S
C1109 C1105 1.684 . S
C1109 H1135 0.979 . S
C1109 H1136 0.980 . S
C1109 H1137 0.983 . S
C1110 H1086 0.948 . S
C1110 C1111 1.391 . S
C1110 C1115 1.391 . S
C1111 C1110 1.391 . S
C1111 C1112 1.391 . S
C1112 H1089 0.947 . S
C1112 C1111 1.391 . S
C1112 C1113 1.392 . S
C1113 H1090 0.948 . S
C1113 C1112 1.392 . S
C1113 C1114 1.419 . S
C1114 C1113 1.419 . S
C1114 C1115 1.391 . S
C1114 C1118 1.397 . S
C1115 C1110 1.391 . S
C1115 C1114 1.391 . S
C1115 C1116 1.399 . S
C1116 C1115 1.399 . S
C1116 C1117 1.396 . S
C1116 C1119 1.453 . S
C1116 C1120 1.684 . S
C1117 C1107 1.723 . S
C1117 C1116 1.396 . S
C1117 C1118 1.394 . S
C1118 C1088 1.723 . S
C1118 C1114 1.397 . S
C1118 C1117 1.394 . S
C1119 H1091 0.982 . S
C1119 H1095 0.979 . S
C1119 H1096 0.977 . S
C1119 C1116 1.453 . S
C1120 H1092 0.979 . S
C1120 H1093 0.980 . S
C1120 H1094 0.983 . S
C1120 C1116 1.684 . S
H1121 C1139 0.948 . S
H1122 C1080 0.948 . S
H1123 C1098 0.979 . S
H1124 C1098 0.980 . S
H1125 C1098 0.983 . S
H1126 C1097 0.982 . S
H1127 C1097 0.979 . S
H1128 C1097 0.977 . S
H1129 C1099 0.948 . S
H1130 C1101 0.947 . S
H1131 C1102 0.948 . S
H1132 C1108 0.982 . S
H1133 C1108 0.979 . S
H1134 C1108 0.977 . S
H1135 C1109 0.979 . S
H1136 C1109 0.980 . S
H1137 C1109 0.983 . S
H1138 C1082 0.947 . S
C1139 C1082 1.392 . S
C1139 C1083 1.419 . S
C1139 H1121 0.948 . S
C1140 C1141 1.391 . S
C1140 C1144 1.391 . S
C1140 H1182 0.948 . S
C1141 C1140 1.391 . S
C1141 C1142 1.391 . S
C1142 C1141 1.391 . S
C1142 H1198 0.947 . S
C1142 C1199 1.392 . S
C1143 C1144 1.391 . S
C1143 C1147 1.397 . S
C1143 C1199 1.419 . S
C1144 C1140 1.391 . S
C1144 C1143 1.391 . S
C1144 C1145 1.399 . S
C1145 C1144 1.399 . S
C1145 C1148 1.396 . S
C1145 C1157 1.453 . S
C1145 C1158 1.684 . S
H1146 C1170 0.948 . S
C1147 C1143 1.397 . S
C1147 C1148 1.394 . S
C1147 C1166 1.723 . S
C1148 C1145 1.396 . S
C1148 C1147 1.394 . S
C1148 C1178 1.723 . S
H1149 C1172 0.947 . S
H1150 C1173 0.948 . S
H1151 C1179 0.982 . S
H1152 C1180 0.979 . S
H1153 C1180 0.980 . S
H1154 C1180 0.983 . S
H1155 C1179 0.979 . S
H1156 C1179 0.977 . S
C1157 C1145 1.453 . S
C1157 H1186 0.982 . S
C1157 H1187 0.979 . S
C1157 H1188 0.977 . S
C1158 C1145 1.684 . S
C1158 H1183 0.979 . S
C1158 H1184 0.980 . S
C1158 H1185 0.983 . S
C1159 C1160 1.391 . S
C1159 C1164 1.391 . S
C1159 H1189 0.948 . S
C1160 C1159 1.391 . S
C1160 C1161 1.391 . S
C1161 C1160 1.391 . S
C1161 C1162 1.392 . S
C1161 H1190 0.947 . S
C1162 C1161 1.392 . S
C1162 C1163 1.419 . S
C1162 H1191 0.948 . S
C1163 C1162 1.419 . S
C1163 C1164 1.391 . S
C1163 C1167 1.397 . S
C1164 C1159 1.391 . S
C1164 C1163 1.391 . S
C1164 C1165 1.399 . S
C1165 C1164 1.399 . S
C1165 C1166 1.396 . S
C1165 C1168 1.453 . S
C1165 C1169 1.684 . S
C1166 C1147 1.723 . S
C1166 C1165 1.396 . S
C1166 C1167 1.394 . S
C1167 C1163 1.397 . S
C1167 C1166 1.394 . S
C1167 C1177 1.723 . S
C1168 C1165 1.453 . S
C1168 H1192 0.982 . S
C1168 H1193 0.979 . S
C1168 H1194 0.977 . S
C1169 C1165 1.684 . S
C1169 H1195 0.979 . S
C1169 H1196 0.980 . S
C1169 H1197 0.983 . S
C1170 H1146 0.948 . S
C1170 C1171 1.391 . S
C1170 C1175 1.391 . S
C1171 C1170 1.391 . S
C1171 C1172 1.391 . S
C1172 H1149 0.947 . S
C1172 C1171 1.391 . S
C1172 C1173 1.392 . S
C1173 H1150 0.948 . S
C1173 C1172 1.392 . S
C1173 C1174 1.419 . S
C1174 C1173 1.419 . S
C1174 C1175 1.391 . S
C1174 C1178 1.397 . S
C1175 C1170 1.391 . S
C1175 C1174 1.391 . S
C1175 C1176 1.399 . S
C1176 C1175 1.399 . S
C1176 C1177 1.396 . S
C1176 C1179 1.453 . S
C1176 C1180 1.684 . S
C1177 C1167 1.723 . S
C1177 C1176 1.396 . S
C1177 C1178 1.394 . S
C1178 C1148 1.723 . S
C1178 C1174 1.397 . S
C1178 C1177 1.394 . S
C1179 H1151 0.982 . S
C1179 H1155 0.979 . S
C1179 H1156 0.977 . S
C1179 C1176 1.453 . S
C1180 H1152 0.979 . S
C1180 H1153 0.980 . S
C1180 H1154 0.983 . S
C1180 C1176 1.684 . S
H1181 C1199 0.948 . S
H1182 C1140 0.948 . S
H1183 C1158 0.979 . S
H1184 C1158 0.980 . S
H1185 C1158 0.983 . S
H1186 C1157 0.982 . S
H1187 C1157 0.979 . S
H1188 C1157 0.977 . S
H1189 C1159 0.948 . S
H1190 C1161 0.947 . S
H1191 C1162 0.948 . S
H1192 C1168 0.982 . S
H1193 C1168 0.979 . S
H1194 C1168 0.977 . S
H1195 C1169 0.979 . S
H1196 C1169 0.980 . S
H1197 C1169 0.983 . S
H1198 C1142 0.947 . S
C1199 C1142 1.392 . S
C1199 C1143 1.419 . S
C1199 H1181 0.948 . S
C1200 C1201 1.391 . S
C1200 C1204 1.391 . S
C1200 H1242 0.948 . S
C1201 C1200 1.391 . S
C1201 C1202 1.391 . S
C1202 C1201 1.391 . S
C1202 H1258 0.947 . S
C1202 C1259 1.392 . S
C1203 C1204 1.391 . S
C1203 C1207 1.397 . S
C1203 C1259 1.419 . S
C1204 C1200 1.391 . S
C1204 C1203 1.391 . S
C1204 C1205 1.399 . S
C1205 C1204 1.399 . S
C1205 C1208 1.396 . S
C1205 C1217 1.453 . S
C1205 C1218 1.684 . S
H1206 C1230 0.948 . S
C1207 C1203 1.397 . S
C1207 C1208 1.394 . S
C1207 C1226 1.723 . S
C1208 C1205 1.396 . S
C1208 C1207 1.394 . S
C1208 C1238 1.723 . S
H1209 C1232 0.947 . S
H1210 C1233 0.948 . S
H1211 C1239 0.982 . S
H1212 C1240 0.979 . S
H1213 C1240 0.980 . S
H1214 C1240 0.983 . S
H1215 C1239 0.979 . S
H1216 C1239 0.977 . S
C1217 C1205 1.453 . S
C1217 H1246 0.982 . S
C1217 H1247 0.979 . S
C1217 H1248 0.977 . S
C1218 C1205 1.684 . S
C1218 H1243 0.979 . S
C1218 H1244 0.980 . S
C1218 H1245 0.983 . S
C1219 C1220 1.391 . S
C1219 C1224 1.391 . S
C1219 H1249 0.948 . S
C1220 C1219 1.391 . S
C1220 C1221 1.391 . S
C1221 C1220 1.391 . S
C1221 C1222 1.392 . S
C1221 H1250 0.947 . S
C1222 C1221 1.392 . S
C1222 C1223 1.419 . S
C1222 H1251 0.948 . S
C1223 C1222 1.419 . S
C1223 C1224 1.391 . S
C1223 C1227 1.397 . S
C1224 C1219 1.391 . S
C1224 C1223 1.391 . S
C1224 C1225 1.399 . S
C1225 C1224 1.399 . S
C1225 C1226 1.396 . S
C1225 C1228 1.453 . S
C1225 C1229 1.684 . S
C1226 C1207 1.723 . S
C1226 C1225 1.396 . S
C1226 C1227 1.394 . S
C1227 C1223 1.397 . S
C1227 C1226 1.394 . S
C1227 C1237 1.723 . S
C1228 C1225 1.453 . S
C1228 H1252 0.982 . S
C1228 H1253 0.979 . S
C1228 H1254 0.977 . S
C1229 C1225 1.684 . S
C1229 H1255 0.979 . S
C1229 H1256 0.980 . S
C1229 H1257 0.983 . S
C1230 H1206 0.948 . S
C1230 C1231 1.391 . S
C1230 C1235 1.391 . S
C1231 C1230 1.391 . S
C1231 C1232 1.391 . S
C1232 H1209 0.947 . S
C1232 C1231 1.391 . S
C1232 C1233 1.392 . S
C1233 H1210 0.948 . S
C1233 C1232 1.392 . S
C1233 C1234 1.419 . S
C1234 C1233 1.419 . S
C1234 C1235 1.391 . S
C1234 C1238 1.397 . S
C1235 C1230 1.391 . S
C1235 C1234 1.391 . S
C1235 C1236 1.399 . S
C1236 C1235 1.399 . S
C1236 C1237 1.396 . S
C1236 C1239 1.453 . S
C1236 C1240 1.684 . S
C1237 C1227 1.723 . S
C1237 C1236 1.396 . S
C1237 C1238 1.394 . S
C1238 C1208 1.723 . S
C1238 C1234 1.397 . S
C1238 C1237 1.394 . S
C1239 H1211 0.982 . S
C1239 H1215 0.979 . S
C1239 H1216 0.977 . S
C1239 C1236 1.453 . S
C1240 H1212 0.979 . S
C1240 H1213 0.980 . S
C1240 H1214 0.983 . S
C1240 C1236 1.684 . S
H1241 C1259 0.948 . S
H1242 C1200 0.948 . S
H1243 C1218 0.979 . S
H1244 C1218 0.980 . S
H1245 C1218 0.983 . S
H1246 C1217 0.982 . S
H1247 C1217 0.979 . S
H1248 C1217 0.977 . S
H1249 C1219 0.948 . S
H1250 C1221 0.947 . S
H1251 C1222 0.948 . S
H1252 C1228 0.982 . S
H1253 C1228 0.979 . S
H1254 C1228 0.977 . S
H1255 C1229 0.979 . S
H1256 C1229 0.980 . S
H1257 C1229 0.983 . S
H1258 C1202 0.947 . S
C1259 C1202 1.392 . S
C1259 C1203 1.419 . S
C1259 H1241 0.948 . S
C1260 C1261 1.391 . S
C1260 C1264 1.391 . S
C1260 H1302 0.948 . S
C1261 C1260 1.391 . S
C1261 C1262 1.391 . S
C1262 C1261 1.391 . S
C1262 H1318 0.947 . S
C1262 C1319 1.392 . S
C1263 C1264 1.391 . S
C1263 C1267 1.397 . S
C1263 C1319 1.419 . S
C1264 C1260 1.391 . S
C1264 C1263 1.391 . S
C1264 C1265 1.399 . S
C1265 C1264 1.399 . S
C1265 C1268 1.396 . S
C1265 C1277 1.453 . S
C1265 C1278 1.684 . S
H1266 C1290 0.948 . S
C1267 C1263 1.397 . S
C1267 C1268 1.394 . S
C1267 C1286 1.723 . S
C1268 C1265 1.396 . S
C1268 C1267 1.394 . S
C1268 C1298 1.723 . S
H1269 C1292 0.947 . S
H1270 C1293 0.948 . S
H1271 C1299 0.982 . S
H1272 C1300 0.979 . S
H1273 C1300 0.980 . S
H1274 C1300 0.983 . S
H1275 C1299 0.979 . S
H1276 C1299 0.977 . S
C1277 C1265 1.453 . S
C1277 H1306 0.982 . S
C1277 H1307 0.979 . S
C1277 H1308 0.977 . S
C1278 C1265 1.684 . S
C1278 H1303 0.979 . S
C1278 H1304 0.980 . S
C1278 H1305 0.983 . S
C1279 C1280 1.391 . S
C1279 C1284 1.391 . S
C1279 H1309 0.948 . S
C1280 C1279 1.391 . S
C1280 C1281 1.391 . S
C1281 C1280 1.391 . S
C1281 C1282 1.392 . S
C1281 H1310 0.947 . S
C1282 C1281 1.392 . S
C1282 C1283 1.419 . S
C1282 H1311 0.948 . S
C1283 C1282 1.419 . S
C1283 C1284 1.391 . S
C1283 C1287 1.397 . S
C1284 C1279 1.391 . S
C1284 C1283 1.391 . S
C1284 C1285 1.399 . S
C1285 C1284 1.399 . S
C1285 C1286 1.396 . S
C1285 C1288 1.453 . S
C1285 C1289 1.684 . S
C1286 C1267 1.723 . S
C1286 C1285 1.396 . S
C1286 C1287 1.394 . S
C1287 C1283 1.397 . S
C1287 C1286 1.394 . S
C1287 C1297 1.723 . S
C1288 C1285 1.453 . S
C1288 H1312 0.982 . S
C1288 H1313 0.979 . S
C1288 H1314 0.977 . S
C1289 C1285 1.684 . S
C1289 H1315 0.979 . S
C1289 H1316 0.980 . S
C1289 H1317 0.983 . S
C1290 H1266 0.948 . S
C1290 C1291 1.391 . S
C1290 C1295 1.391 . S
C1291 C1290 1.391 . S
C1291 C1292 1.391 . S
C1292 H1269 0.947 . S
C1292 C1291 1.391 . S
C1292 C1293 1.392 . S
C1293 H1270 0.948 . S
C1293 C1292 1.392 . S
C1293 C1294 1.419 . S
C1294 C1293 1.419 . S
C1294 C1295 1.391 . S
C1294 C1298 1.397 . S
C1295 C1290 1.391 . S
C1295 C1294 1.391 . S
C1295 C1296 1.399 . S
C1296 C1295 1.399 . S
C1296 C1297 1.396 . S
C1296 C1299 1.453 . S
C1296 C1300 1.684 . S
C1297 C1287 1.723 . S
C1297 C1296 1.396 . S
C1297 C1298 1.394 . S
C1298 C1268 1.723 . S
C1298 C1294 1.397 . S
C1298 C1297 1.394 . S
C1299 H1271 0.982 . S
C1299 H1275 0.979 . S
C1299 H1276 0.977 . S
C1299 C1296 1.453 . S
C1300 H1272 0.979 . S
C1300 H1273 0.980 . S
C1300 H1274 0.983 . S
C1300 C1296 1.684 . S
H1301 C1319 0.948 . S
H1302 C1260 0.948 . S
H1303 C1278 0.979 . S
H1304 C1278 0.980 . S
H1305 C1278 0.983 . S
H1306 C1277 0.982 . S
H1307 C1277 0.979 . S
H1308 C1277 0.977 . S
H1309 C1279 0.948 . S
H1310 C1281 0.947 . S
H1311 C1282 0.948 . S
H1312 C1288 0.982 . S
H1313 C1288 0.979 . S
H1314 C1288 0.977 . S
H1315 C1289 0.979 . S
H1316 C1289 0.980 . S
H1317 C1289 0.983 . S
H1318 C1262 0.947 . S
C1319 C1262 1.392 . S
C1319 C1263 1.419 . S
C1319 H1301 0.948 . S
C1320 C1321 1.391 . S
C1320 C1324 1.391 . S
C1320 H1362 0.948 . S
C1321 C1320 1.391 . S
C1321 C1322 1.391 . S
C1322 C1321 1.391 . S
C1322 H1378 0.947 . S
C1322 C1379 1.392 . S
C1323 C1324 1.391 . S
C1323 C1327 1.397 . S
C1323 C1379 1.419 . S
C1324 C1320 1.391 . S
C1324 C1323 1.391 . S
C1324 C1325 1.399 . S
C1325 C1324 1.399 . S
C1325 C1328 1.396 . S
C1325 C1337 1.453 . S
C1325 C1338 1.684 . S
H1326 C1350 0.948 . S
C1327 C1323 1.397 . S
C1327 C1328 1.394 . S
C1327 C1346 1.723 . S
C1328 C1325 1.396 . S
C1328 C1327 1.394 . S
C1328 C1358 1.723 . S
H1329 C1352 0.947 . S
H1330 C1353 0.948 . S
H1331 C1359 0.982 . S
H1332 C1360 0.979 . S
H1333 C1360 0.980 . S
H1334 C1360 0.983 . S
H1335 C1359 0.979 . S
H1336 C1359 0.977 . S
C1337 C1325 1.453 . S
C1337 H1366 0.982 . S
C1337 H1367 0.979 . S
C1337 H1368 0.977 . S
C1338 C1325 1.684 . S
C1338 H1363 0.979 . S
C1338 H1364 0.980 . S
C1338 H1365 0.983 . S
C1339 C1340 1.391 . S
C1339 C1344 1.391 . S
C1339 H1369 0.948 . S
C1340 C1339 1.391 . S
C1340 C1341 1.391 . S
C1341 C1340 1.391 . S
C1341 C1342 1.392 . S
C1341 H1370 0.947 . S
C1342 C1341 1.392 . S
C1342 C1343 1.419 . S
C1342 H1371 0.948 . S
C1343 C1342 1.419 . S
C1343 C1344 1.391 . S
C1343 C1347 1.397 . S
C1344 C1339 1.391 . S
C1344 C1343 1.391 . S
C1344 C1345 1.399 . S
C1345 C1344 1.399 . S
C1345 C1346 1.396 . S
C1345 C1348 1.453 . S
C1345 C1349 1.684 . S
C1346 C1327 1.723 . S
C1346 C1345 1.396 . S
C1346 C1347 1.394 . S
C1347 C1343 1.397 . S
C1347 C1346 1.394 . S
C1347 C1357 1.723 . S
C1348 C1345 1.453 . S
C1348 H1372 0.982 . S
C1348 H1373 0.979 . S
C1348 H1374 0.977 . S
C1349 C1345 1.684 . S
C1349 H1375 0.979 . S
C1349 H1376 0.980 . S
C1349 H1377 0.983 . S
C1350 H1326 0.948 . S
C1350 C1351 1.391 . S
C1350 C1355 1.391 . S
C1351 C1350 1.391 . S
C1351 C1352 1.391 . S
C1352 H1329 0.947 . S
C1352 C1351 1.391 . S
C1352 C1353 1.392 . S
C1353 H1330 0.948 . S
C1353 C1352 1.392 . S
C1353 C1354 1.419 . S
C1354 C1353 1.419 . S
C1354 C1355 1.391 . S
C1354 C1358 1.397 . S
C1355 C1350 1.391 . S
C1355 C1354 1.391 . S
C1355 C1356 1.399 . S
C1356 C1355 1.399 . S
C1356 C1357 1.396 . S
C1356 C1359 1.453 . S
C1356 C1360 1.684 . S
C1357 C1347 1.723 . S
C1357 C1356 1.396 . S
C1357 C1358 1.394 . S
C1358 C1328 1.723 . S
C1358 C1354 1.397 . S
C1358 C1357 1.394 . S
C1359 H1331 0.982 . S
C1359 H1335 0.979 . S
C1359 H1336 0.977 . S
C1359 C1356 1.453 . S
C1360 H1332 0.979 . S
C1360 H1333 0.980 . S
C1360 H1334 0.983 . S
C1360 C1356 1.684 . S
H1361 C1379 0.948 . S
H1362 C1320 0.948 . S
H1363 C1338 0.979 . S
H1364 C1338 0.980 . S
H1365 C1338 0.983 . S
H1366 C1337 0.982 . S
H1367 C1337 0.979 . S
H1368 C1337 0.977 . S
H1369 C1339 0.948 . S
H1370 C1341 0.947 . S
H1371 C1342 0.948 . S
H1372 C1348 0.982 . S
H1373 C1348 0.979 . S
H1374 C1348 0.977 . S
H1375 C1349 0.979 . S
H1376 C1349 0.980 . S
H1377 C1349 0.983 . S
H1378 C1322 0.947 . S
C1379 C1322 1.392 . S
C1379 C1323 1.419 . S
C1379 H1361 0.948 . S
C1380 C1381 1.391 . S
C1380 C1384 1.391 . S
C1380 H1422 0.948 . S
C1381 C1380 1.391 . S
C1381 C1382 1.391 . S
C1382 C1381 1.391 . S
C1382 H1438 0.947 . S
C1382 C1439 1.392 . S
C1383 C1384 1.391 . S
C1383 C1387 1.397 . S
C1383 C1439 1.419 . S
C1384 C1380 1.391 . S
C1384 C1383 1.391 . S
C1384 C1385 1.399 . S
C1385 C1384 1.399 . S
C1385 C1388 1.396 . S
C1385 C1397 1.453 . S
C1385 C1398 1.684 . S
H1386 C1410 0.948 . S
C1387 C1383 1.397 . S
C1387 C1388 1.394 . S
C1387 C1406 1.723 . S
C1388 C1385 1.396 . S
C1388 C1387 1.394 . S
C1388 C1418 1.723 . S
H1389 C1412 0.947 . S
H1390 C1413 0.948 . S
H1391 C1419 0.982 . S
H1392 C1420 0.979 . S
H1393 C1420 0.980 . S
H1394 C1420 0.983 . S
H1395 C1419 0.979 . S
H1396 C1419 0.977 . S
C1397 C1385 1.453 . S
C1397 H1426 0.982 . S
C1397 H1427 0.979 . S
C1397 H1428 0.977 . S
C1398 C1385 1.684 . S
C1398 H1423 0.979 . S
C1398 H1424 0.980 . S
C1398 H1425 0.983 . S
C1399 C1400 1.391 . S
C1399 C1404 1.391 . S
C1399 H1429 0.948 . S
C1400 C1399 1.391 . S
C1400 C1401 1.391 . S
C1401 C1400 1.391 . S
C1401 C1402 1.392 . S
C1401 H1430 0.947 . S
C1402 C1401 1.392 . S
C1402 C1403 1.419 . S
C1402 H1431 0.948 . S
C1403 C1402 1.419 . S
C1403 C1404 1.391 . S
C1403 C1407 1.397 . S
C1404 C1399 1.391 . S
C1404 C1403 1.391 . S
C1404 C1405 1.399 . S
C1405 C1404 1.399 . S
C1405 C1406 1.396 . S
C1405 C1408 1.453 . S
C1405 C1409 1.684 . S
C1406 C1387 1.723 . S
C1406 C1405 1.396 . S
C1406 C1407 1.394 . S
C1407 C1403 1.397 . S
C1407 C1406 1.394 . S
C1407 C1417 1.723 . S
C1408 C1405 1.453 . S
C1408 H1432 0.982 . S
C1408 H1433 0.979 . S
C1408 H1434 0.977 . S
C1409 C1405 1.684 . S
C1409 H1435 0.979 . S
C1409 H1436 0.980 . S
C1409 H1437 0.983 . S
C1410 H1386 0.948 . S
C1410 C1411 1.391 . S
C1410 C1415 1.391 . S
C1411 C1410 1.391 . S
C1411 C1412 1.391 . S
C1412 H1389 0.947 . S
C1412 C1411 1.391 . S
C1412 C1413 1.392 . S
C1413 H1390 0.948 . S
C1413 C1412 1.392 . S
C1413 C1414 1.419 . S
C1414 C1413 1.419 . S
C1414 C1415 1.391 . S
C1414 C1418 1.397 . S
C1415 C1410 1.391 . S
C1415 C1414 1.391 . S
C1415 C1416 1.399 . S
C1416 C1415 1.399 . S
C1416 C1417 1.396 . S
C1416 C1419 1.453 . S
C1416 C1420 1.684 . S
C1417 C1407 1.723 . S
C1417 C1416 1.396 . S
C1417 C1418 1.394 . S
C1418 C1388 1.723 . S
C1418 C1414 1.397 . S
C1418 C1417 1.394 . S
C1419 H1391 0.982 . S
C1419 H1395 0.979 . S
C1419 H1396 0.977 . S
C1419 C1416 1.453 . S
C1420 H1392 0.979 . S
C1420 H1393 0.980 . S
C1420 H1394 0.983 . S
C1420 C1416 1.684 . S
H1421 C1439 0.948 . S
H1422 C1380 0.948 . S
H1423 C1398 0.979 . S
H1424 C1398 0.980 . S
H1425 C1398 0.983 . S
H1426 C1397 0.982 . S
H1427 C1397 0.979 . S
H1428 C1397 0.977 . S
H1429 C1399 0.948 . S
H1430 C1401 0.947 . S
H1431 C1402 0.948 . S
H1432 C1408 0.982 . S
H1433 C1408 0.979 . S
H1434 C1408 0.977 . S
H1435 C1409 0.979 . S
H1436 C1409 0.980 . S
H1437 C1409 0.983 . S
H1438 C1382 0.947 . S
C1439 C1382 1.392 . S
C1439 C1383 1.419 . S
C1439 H1421 0.948 . S
Zn1440 O1442 1.933 1_565 S
Zn1440 O1460 1.985 . S
Zn1440 O1471 1.955 . S
Zn1441 O1442 1.911 . S
Zn1441 O1461 1.970 . S
Zn1441 O1477 1.945 . S
Zn1441 O1484 1.981 . S
O1442 Zn1440 1.933 1_545 S
O1442 Zn1441 1.911 . S
O1442 H1443 0.841 1_655 S
H1443 O1442 0.841 1_455 S
C1444 O1445 1.246 . S
C1444 O1473 1.276 . S
O1445 C1444 1.246 . S
Zn1446 O1448 1.911 . S
Zn1446 O1463 1.970 . S
Zn1446 O1480 1.945 . S
Zn1446 O1487 1.981 . S
Zn1447 O1448 1.933 1_565 S
Zn1447 O1462 1.985 . S
Zn1447 O1469 1.955 . S
O1448 Zn1446 1.911 . S
O1448 Zn1447 1.933 1_545 S
O1448 H1449 0.841 . S
H1449 O1448 0.841 . S
Zn1450 O1451 1.933 1_565 S
Zn1450 O1464 1.992 . S
Zn1450 O1473 1.955 . S
O1451 Zn1450 1.933 1_545 S
O1451 Zn1452 1.911 . S
O1451 H1453 0.841 . S
Zn1452 O1451 1.911 . S
Zn1452 O1465 1.970 . S
Zn1452 O1481 1.981 1_655 S
Zn1452 O1483 1.945 . S
H1453 O1451 0.841 . S
Zn1454 O1455 1.933 1_565 S
Zn1454 O1467 1.985 . S
Zn1454 O1475 1.955 . S
O1455 Zn1454 1.933 1_545 S
O1455 H1456 0.841 . S
O1455 Zn1457 1.911 . S
H1456 O1455 0.841 . S
Zn1457 O1455 1.911 . S
Zn1457 O1468 1.970 . S
Zn1457 O1478 1.981 . S
Zn1457 O1486 1.945 . S
C1458 O1459 1.246 . S
C1458 O1475 1.276 . S
O1459 C1458 1.246 . S
O1460 Zn1440 1.985 . S
O1460 C1470 1.245 1_565 S
O1461 Zn1441 1.970 . S
O1461 C1470 1.263 . S
O1462 Zn1447 1.985 . S
O1462 C1474 1.245 1_565 S
O1463 Zn1446 1.970 . S
O1463 C1474 1.263 . S
O1464 Zn1450 1.992 . S
O1464 C1479 1.216 1_565 S
O1465 Zn1452 1.970 . S
O1465 C1479 1.263 . S
C1466 O1477 1.262 1_455 S
C1466 O1478 1.245 . S
O1467 Zn1454 1.985 . S
O1467 C1485 1.245 1_565 S
O1468 Zn1457 1.970 . S
O1468 C1485 1.263 . S
O1469 Zn1447 1.955 . S
O1469 C1488 1.276 . S
C1470 O1460 1.245 1_545 S
C1470 O1461 1.263 . S
O1471 Zn1440 1.955 . S
O1471 C1490 1.276 1_655 S
C1472 O1480 1.262 . S
C1472 O1481 1.245 . S
O1473 C1444 1.276 . S
O1473 Zn1450 1.955 . S
C1474 O1462 1.245 1_545 S
C1474 O1463 1.263 . S
O1475 Zn1454 1.955 . S
O1475 C1458 1.276 . S
C1476 O1483 1.262 . S
C1476 O1484 1.245 . S
O1477 Zn1441 1.945 . S
O1477 C1466 1.262 1_655 S
O1478 Zn1457 1.981 . S
O1478 C1466 1.245 . S
C1479 O1464 1.216 1_545 S
C1479 O1465 1.263 . S
O1480 Zn1446 1.945 . S
O1480 C1472 1.262 . S
O1481 Zn1452 1.981 1_455 S
O1481 C1472 1.245 . S
C1482 O1486 1.262 . S
C1482 O1487 1.245 . S
O1483 Zn1452 1.945 . S
O1483 C1476 1.262 . S
O1484 Zn1441 1.981 . S
O1484 C1476 1.245 . S
C1485 O1467 1.245 1_545 S
C1485 O1468 1.263 . S
O1486 Zn1457 1.945 . S
O1486 C1482 1.262 . S
O1487 Zn1446 1.981 . S
O1487 C1482 1.245 . S
C1488 O1469 1.276 . S
C1488 O1489 1.246 . S
O1489 C1488 1.246 . S
C1490 O1471 1.276 1_455 S
C1490 O1491 1.246 . S
O1491 C1490 1.246 . S
Zn1492 O1494 1.933 . S
Zn1492 O1512 1.985 . S
Zn1492 O1523 1.955 . S
Zn1493 O1494 1.911 1_556 S
Zn1493 O1513 1.970 . S
Zn1493 O1529 1.945 . S
Zn1493 O1536 1.981 . S
O1494 Zn1492 1.933 . S
O1494 Zn1493 1.911 1_554 S
O1494 H1495 0.841 . S
H1495 O1494 0.841 . S
C1496 O1497 1.246 . S
C1496 O1525 1.276 . S
O1497 C1496 1.246 . S
Zn1498 O1500 1.911 1_556 S
Zn1498 O1515 1.970 . S
Zn1498 O1532 1.945 . S
Zn1498 O1539 1.981 . S
Zn1499 O1500 1.933 . S
Zn1499 O1514 1.985 . S
Zn1499 O1521 1.955 . S
O1500 Zn1498 1.911 1_554 S
O1500 Zn1499 1.933 . S
O1500 H1501 0.841 1_565 S
H1501 O1500 0.841 1_545 S
Zn1502 O1503 1.933 . S
Zn1502 O1516 1.985 . S
Zn1502 O1525 1.955 . S
O1503 Zn1502 1.933 . S
O1503 Zn1504 1.911 1_554 S
O1503 H1505 0.841 . S
Zn1504 O1503 1.911 1_556 S
Zn1504 O1517 1.970 . S
Zn1504 O1533 1.981 . S
Zn1504 O1535 1.945 . S
H1505 O1503 0.841 . S
Zn1506 O1507 1.933 . S
Zn1506 O1519 1.985 . S
Zn1506 O1527 1.955 . S
O1507 Zn1506 1.933 . S
O1507 H1508 0.841 . S
O1507 Zn1509 1.911 1_554 S
H1508 O1507 0.841 . S
Zn1509 O1507 1.911 1_556 S
Zn1509 O1520 1.970 . S
Zn1509 O1530 1.981 1_565 S
Zn1509 O1538 1.945 . S
C1510 O1511 1.246 . S
C1510 O1527 1.276 . S
O1511 C1510 1.246 . S
O1512 Zn1492 1.985 . S
O1512 C1522 1.245 . S
O1513 Zn1493 1.970 . S
O1513 C1522 1.263 1_556 S
O1514 Zn1499 1.985 . S
O1514 C1526 1.245 . S
O1515 Zn1498 1.970 . S
O1515 C1526 1.263 1_556 S
O1516 Zn1502 1.985 . S
O1516 C1531 1.245 . S
O1517 Zn1504 1.970 . S
O1517 C1531 1.263 1_556 S
C1518 O1529 1.262 . S
C1518 O1530 1.245 . S
O1519 Zn1506 1.985 . S
O1519 C1537 1.245 . S
O1520 Zn1509 1.970 . S
O1520 C1537 1.263 1_556 S
O1521 Zn1499 1.955 . S
O1521 C1540 1.276 1_565 S
C1522 O1512 1.245 . S
C1522 O1513 1.263 1_554 S
O1523 Zn1492 1.955 . S
O1523 C1542 1.276 . S
C1524 O1532 1.262 1_545 S
C1524 O1533 1.245 . S
O1525 C1496 1.276 . S
O1525 Zn1502 1.955 . S
C1526 O1514 1.245 . S
C1526 O1515 1.263 1_554 S
O1527 Zn1506 1.955 . S
O1527 C1510 1.276 . S
C1528 O1535 1.262 . S
C1528 O1536 1.245 . S
O1529 Zn1493 1.945 . S
O1529 C1518 1.262 . S
O1530 Zn1509 1.981 1_545 S
O1530 C1518 1.245 . S
C1531 O1516 1.245 . S
C1531 O1517 1.263 1_554 S
O1532 Zn1498 1.945 . S
O1532 C1524 1.262 1_565 S
O1533 Zn1504 1.981 . S
O1533 C1524 1.245 . S
C1534 O1538 1.262 . S
C1534 O1539 1.245 . S
O1535 Zn1504 1.945 . S
O1535 C1528 1.262 . S
O1536 Zn1493 1.981 . S
O1536 C1528 1.245 . S
C1537 O1519 1.245 . S
C1537 O1520 1.263 1_554 S
O1538 Zn1509 1.945 . S
O1538 C1534 1.262 . S
O1539 Zn1498 1.981 . S
O1539 C1534 1.245 . S
C1540 O1521 1.276 1_545 S
C1540 O1541 1.246 . S
O1541 C1540 1.246 . S
C1542 O1523 1.276 . S
C1542 O1543 1.246 . S
O1543 C1542 1.246 . S
Zn1544 O1546 1.933 . S
Zn1544 O1564 1.985 . S
Zn1544 O1575 1.955 . S
Zn1545 O1546 1.911 . S
Zn1545 O1565 1.970 . S
Zn1545 O1581 1.945 . S
Zn1545 O1588 1.981 . S
O1546 Zn1544 1.933 . S
O1546 Zn1545 1.911 . S
O1546 H1547 0.841 1_655 S
H1547 O1546 0.841 1_455 S
C1548 O1549 1.246 1_554 S
C1548 O1577 1.276 . S
O1549 C1548 1.246 1_556 S
Zn1550 O1552 1.911 . S
Zn1550 O1567 1.970 . S
Zn1550 O1584 1.945 . S
Zn1550 O1591 1.981 . S
Zn1551 O1552 1.933 . S
Zn1551 O1566 1.985 . S
Zn1551 O1573 1.955 . S
O1552 Zn1550 1.911 . S
O1552 Zn1551 1.933 . S
O1552 H1553 0.841 . S
H1553 O1552 0.841 . S
Zn1554 O1555 1.933 . S
Zn1554 O1568 1.985 . S
Zn1554 O1577 1.955 . S
O1555 Zn1554 1.933 . S
O1555 Zn1556 1.911 . S
O1555 H1557 0.841 . S
Zn1556 O1555 1.911 . S
Zn1556 O1569 1.970 . S
Zn1556 O1585 1.981 1_655 S
Zn1556 O1587 1.945 . S
H1557 O1555 0.841 . S
Zn1558 O1559 1.933 . S
Zn1558 O1571 1.985 . S
Zn1558 O1579 1.955 . S
O1559 Zn1558 1.933 . S
O1559 H1560 0.841 1_556 S
O1559 Zn1561 1.911 . S
H1560 O1559 0.841 1_554 S
Zn1561 O1559 1.911 . S
Zn1561 O1572 1.970 . S
Zn1561 O1582 1.981 . S
Zn1561 O1590 1.945 . S
C1562 O1563 1.246 . S
C1562 O1579 1.276 1_554 S
O1563 C1562 1.246 . S
O1564 Zn1544 1.985 . S
O1564 C1574 1.245 . S
O1565 Zn1545 1.970 . S
O1565 C1574 1.263 . S
O1566 Zn1551 1.985 . S
O1566 C1578 1.245 . S
O1567 Zn1550 1.970 . S
O1567 C1578 1.263 . S
O1568 Zn1554 1.985 . S
O1568 C1583 1.245 . S
O1569 Zn1556 1.970 . S
O1569 C1583 1.263 . S
C1570 O1581 1.262 1_455 S
C1570 O1582 1.245 . S
O1571 Zn1558 1.985 . S
O1571 C1589 1.245 . S
O1572 Zn1561 1.970 . S
O1572 C1589 1.263 . S
O1573 Zn1551 1.955 . S
O1573 C1592 1.276 . S
C1574 O1564 1.245 . S
C1574 O1565 1.263 . S
O1575 Zn1544 1.955 . S
O1575 C1594 1.276 1_655 S
C1576 O1584 1.262 . S
C1576 O1585 1.245 . S
O1577 C1548 1.276 . S
O1577 Zn1554 1.955 . S
C1578 O1566 1.245 . S
C1578 O1567 1.263 . S
O1579 Zn1558 1.955 . S
O1579 C1562 1.276 1_556 S
C1580 O1587 1.262 . S
C1580 O1588 1.245 1_554 S
O1581 Zn1545 1.945 . S
O1581 C1570 1.262 1_655 S
O1582 Zn1561 1.981 . S
O1582 C1570 1.245 . S
C1583 O1568 1.245 . S
C1583 O1569 1.263 . S
O1584 Zn1550 1.945 . S
O1584 C1576 1.262 . S
O1585 Zn1556 1.981 1_455 S
O1585 C1576 1.245 . S
C1586 O1590 1.262 1_554 S
C1586 O1591 1.245 . S
O1587 Zn1556 1.945 . S
O1587 C1580 1.262 . S
O1588 Zn1545 1.981 . S
O1588 C1580 1.245 1_556 S
C1589 O1571 1.245 . S
C1589 O1572 1.263 . S
O1590 Zn1561 1.945 . S
O1590 C1586 1.262 1_556 S
O1591 Zn1550 1.981 . S
O1591 C1586 1.245 . S
C1592 O1573 1.276 . S
C1592 O1593 1.246 . S
O1593 C1592 1.246 . S
C1594 O1575 1.276 1_455 S
C1594 O1595 1.246 . S
O1595 C1594 1.246 . S
Zn1596 O1598 1.933 1_556 S
Zn1596 O1616 1.985 . S
Zn1596 O1627 1.955 . S
Zn1597 O1598 1.911 . S
Zn1597 O1617 1.970 . S
Zn1597 O1633 1.945 . S
Zn1597 O1640 1.981 . S
O1598 Zn1596 1.933 1_554 S
O1598 Zn1597 1.911 . S
O1598 H1599 0.841 . S
H1599 O1598 0.841 . S
C1600 O1601 1.246 . S
C1600 O1629 1.276 . S
O1601 C1600 1.246 . S
Zn1602 O1604 1.911 . S
Zn1602 O1619 1.970 . S
Zn1602 O1636 1.945 . S
Zn1602 O1643 1.981 . S
Zn1603 O1604 1.933 1_556 S
Zn1603 O1618 1.985 . S
Zn1603 O1625 1.955 . S
O1604 Zn1602 1.911 . S
O1604 Zn1603 1.933 1_554 S
O1604 H1605 0.841 . S
H1605 O1604 0.841 . S
Zn1606 O1607 1.933 1_556 S
Zn1606 O1620 1.985 . S
Zn1606 O1629 1.955 . S
O1607 Zn1606 1.933 1_554 S
O1607 Zn1608 1.911 . S
O1607 H1609 0.841 . S
Zn1608 O1607 1.911 . S
Zn1608 O1621 1.970 . S
Zn1608 O1637 1.981 . S
Zn1608 O1639 1.945 . S
H1609 O1607 0.841 . S
Zn1610 O1611 1.933 1_556 S
Zn1610 O1623 1.985 . S
Zn1610 O1631 1.955 . S
O1611 Zn1610 1.933 1_554 S
O1611 H1612 0.841 . S
O1611 Zn1613 1.911 . S
H1612 O1611 0.841 . S
Zn1613 O1611 1.911 . S
Zn1613 O1624 1.970 . S
Zn1613 O1634 1.981 . S
Zn1613 O1642 1.945 . S
C1614 O1615 1.246 . S
C1614 O1631 1.276 . S
O1615 C1614 1.246 . S
O1616 Zn1596 1.985 . S
O1616 C1626 1.245 1_556 S
O1617 Zn1597 1.970 . S
O1617 C1626 1.263 . S
O1618 Zn1603 1.985 . S
O1618 C1630 1.245 1_556 S
O1619 Zn1602 1.970 . S
O1619 C1630 1.263 . S
O1620 Zn1606 1.985 . S
O1620 C1635 1.245 1_556 S
O1621 Zn1608 1.970 . S
O1621 C1635 1.263 . S
C1622 O1633 1.262 . S
C1622 O1634 1.245 . S
O1623 Zn1610 1.985 . S
O1623 C1641 1.245 1_556 S
O1624 Zn1613 1.970 . S
O1624 C1641 1.263 . S
O1625 Zn1603 1.955 . S
O1625 C1644 1.276 . S
C1626 O1616 1.245 1_554 S
C1626 O1617 1.263 . S
O1627 Zn1596 1.955 . S
O1627 C1646 1.276 . S
C1628 O1636 1.262 . S
C1628 O1637 1.245 . S
O1629 C1600 1.276 . S
O1629 Zn1606 1.955 . S
C1630 O1618 1.245 1_554 S
C1630 O1619 1.263 . S
O1631 Zn1610 1.955 . S
O1631 C1614 1.276 . S
C1632 O1639 1.262 . S
C1632 O1640 1.245 . S
O1633 Zn1597 1.945 . S
O1633 C1622 1.262 . S
O1634 Zn1613 1.981 . S
O1634 C1622 1.245 . S
C1635 O1620 1.245 1_554 S
C1635 O1621 1.263 . S
O1636 Zn1602 1.945 . S
O1636 C1628 1.262 . S
O1637 Zn1608 1.981 . S
O1637 C1628 1.245 . S
C1638 O1642 1.262 . S
C1638 O1643 1.245 . S
O1639 Zn1608 1.945 . S
O1639 C1632 1.262 . S
O1640 Zn1597 1.981 . S
O1640 C1632 1.245 . S
C1641 O1623 1.245 1_554 S
C1641 O1624 1.263 . S
O1642 Zn1613 1.945 . S
O1642 C1638 1.262 . S
O1643 Zn1602 1.981 . S
O1643 C1638 1.245 . S
C1644 O1625 1.276 . S
C1644 O1645 1.246 . S
O1645 C1644 1.246 . S
C1646 O1627 1.276 . S
C1646 O1647 1.246 . S
O1647 C1646 1.246 . S
Zn1648 O1650 1.933 . S
Zn1648 O1668 1.985 . S
Zn1648 O1679 1.955 . S
Zn1649 O1650 1.911 . S
Zn1649 O1669 1.970 . S
Zn1649 O1685 1.945 . S
Zn1649 O1692 1.981 . S
O1650 Zn1648 1.933 . S
O1650 Zn1649 1.911 . S
O1650 H1651 0.841 1_655 S
H1651 O1650 0.841 1_455 S
C1652 O1653 1.246 . S
C1652 O1681 1.276 . S
O1653 C1652 1.246 . S
Zn1654 O1656 1.911 . S
Zn1654 O1671 1.970 . S
Zn1654 O1688 1.945 . S
Zn1654 O1695 1.981 . S
Zn1655 O1656 1.933 . S
Zn1655 O1670 1.985 . S
Zn1655 O1677 1.955 . S
O1656 Zn1654 1.911 . S
O1656 Zn1655 1.933 . S
O1656 H1657 0.841 . S
H1657 O1656 0.841 . S
Zn1658 O1659 1.933 . S
Zn1658 O1672 1.985 . S
Zn1658 O1681 1.955 . S
O1659 Zn1658 1.933 . S
O1659 Zn1660 1.911 . S
O1659 H1661 0.841 . S
Zn1660 O1659 1.911 . S
Zn1660 O1673 1.970 . S
Zn1660 O1689 1.981 1_655 S
Zn1660 O1691 1.945 . S
H1661 O1659 0.841 . S
Zn1662 O1663 1.933 . S
Zn1662 O1675 1.985 . S
Zn1662 O1683 1.955 . S
O1663 Zn1662 1.933 . S
O1663 H1664 0.841 . S
O1663 Zn1665 1.911 . S
H1664 O1663 0.841 . S
Zn1665 O1663 1.911 . S
Zn1665 O1676 1.970 . S
Zn1665 O1686 1.981 . S
Zn1665 O1694 1.945 . S
C1666 O1667 1.246 . S
C1666 O1683 1.276 . S
O1667 C1666 1.246 . S
O1668 Zn1648 1.985 . S
O1668 C1678 1.245 . S
O1669 Zn1649 1.970 . S
O1669 C1678 1.263 . S
O1670 Zn1655 1.985 . S
O1670 C1682 1.245 . S
O1671 Zn1654 1.970 . S
O1671 C1682 1.263 . S
O1672 Zn1658 1.985 . S
O1672 C1687 1.245 . S
O1673 Zn1660 1.970 . S
O1673 C1687 1.263 . S
C1674 O1685 1.262 1_455 S
C1674 O1686 1.245 . S
O1675 Zn1662 1.985 . S
O1675 C1693 1.245 . S
O1676 Zn1665 1.970 . S
O1676 C1693 1.263 . S
O1677 Zn1655 1.955 . S
O1677 C1696 1.276 . S
C1678 O1668 1.245 . S
C1678 O1669 1.263 . S
O1679 Zn1648 1.955 . S
O1679 C1698 1.276 1_655 S
C1680 O1688 1.262 . S
C1680 O1689 1.245 . S
O1681 C1652 1.276 . S
O1681 Zn1658 1.955 . S
C1682 O1670 1.245 . S
C1682 O1671 1.263 . S
O1683 Zn1662 1.955 . S
O1683 C1666 1.276 . S
C1684 O1691 1.262 . S
C1684 O1692 1.245 . S
O1685 Zn1649 1.945 . S
O1685 C1674 1.262 1_655 S
O1686 Zn1665 1.981 . S
O1686 C1674 1.245 . S
C1687 O1672 1.245 . S
C1687 O1673 1.263 . S
O1688 Zn1654 1.945 . S
O1688 C1680 1.262 . S
O1689 Zn1660 1.981 1_455 S
O1689 C1680 1.245 . S
C1690 O1694 1.262 . S
C1690 O1695 1.245 . S
O1691 Zn1660 1.945 . S
O1691 C1684 1.262 . S
O1692 Zn1649 1.981 . S
O1692 C1684 1.245 . S
C1693 O1675 1.245 . S
C1693 O1676 1.263 . S
O1694 Zn1665 1.945 . S
O1694 C1690 1.262 . S
O1695 Zn1654 1.981 . S
O1695 C1690 1.245 . S
C1696 O1677 1.276 . S
C1696 O1697 1.246 . S
O1697 C1696 1.246 . S
C1698 O1679 1.276 1_455 S
C1698 O1699 1.246 . S
O1699 C1698 1.246 . S
Zn1700 O1702 1.933 1_565 S
Zn1700 O1720 1.985 . S
Zn1700 O1731 1.955 . S
Zn1701 O1702 1.911 . S
Zn1701 O1721 1.970 . S
Zn1701 O1737 1.945 . S
Zn1701 O1744 1.981 . S
O1702 Zn1700 1.933 1_545 S
O1702 Zn1701 1.911 . S
O1702 H1703 0.841 . S
H1703 O1702 0.841 . S
C1704 O1705 1.246 . S
C1704 O1733 1.276 . S
O1705 C1704 1.246 . S
Zn1706 O1708 1.911 . S
Zn1706 O1723 1.970 . S
Zn1706 O1740 1.945 . S
Zn1706 O1747 1.981 . S
Zn1707 O1708 1.933 1_565 S
Zn1707 O1722 1.979 1_565 S
Zn1707 O1729 1.955 . S
O1708 Zn1706 1.911 . S
O1708 Zn1707 1.933 1_545 S
O1708 H1709 0.841 . S
H1709 O1708 0.841 . S
Zn1710 O1711 1.933 1_565 S
Zn1710 O1724 1.985 . S
Zn1710 O1733 1.955 . S
O1711 Zn1710 1.933 1_545 S
O1711 Zn1712 1.911 . S
O1711 H1713 0.841 . S
Zn1712 O1711 1.911 . S
Zn1712 O1725 1.970 . S
Zn1712 O1741 1.981 . S
Zn1712 O1743 1.945 . S
H1713 O1711 0.841 . S
Zn1714 O1715 1.933 1_565 S
Zn1714 O1727 1.979 1_565 S
Zn1714 O1735 1.955 . S
O1715 Zn1714 1.933 1_545 S
O1715 H1716 0.841 . S
O1715 Zn1717 1.911 . S
H1716 O1715 0.841 . S
Zn1717 O1715 1.911 . S
Zn1717 O1728 1.970 . S
Zn1717 O1738 1.981 . S
Zn1717 O1746 1.945 . S
C1718 O1719 1.246 . S
C1718 O1735 1.276 . S
O1719 C1718 1.246 . S
O1720 Zn1700 1.985 . S
O1720 C1730 1.245 1_565 S
O1721 Zn1701 1.970 . S
O1721 C1730 1.263 . S
O1722 Zn1707 1.979 1_545 S
O1722 C1734 1.267 . S
O1723 Zn1706 1.970 . S
O1723 C1734 1.263 . S
O1724 Zn1710 1.985 . S
O1724 C1739 1.245 1_565 S
O1725 Zn1712 1.970 . S
O1725 C1739 1.263 . S
C1726 O1737 1.262 . S
C1726 O1738 1.245 . S
O1727 Zn1714 1.979 1_545 S
O1727 C1745 1.269 . S
O1728 Zn1717 1.970 . S
O1728 C1745 1.263 . S
O1729 Zn1707 1.955 . S
O1729 C1748 1.276 . S
C1730 O1720 1.245 1_545 S
C1730 O1721 1.263 . S
O1731 Zn1700 1.955 . S
O1731 C1750 1.276 . S
C1732 O1740 1.262 . S
C1732 O1741 1.245 . S
O1733 C1704 1.276 . S
O1733 Zn1710 1.955 . S
C1734 O1722 1.267 . S
C1734 O1723 1.263 . S
O1735 Zn1714 1.955 . S
O1735 C1718 1.276 . S
C1736 O1743 1.262 . S
C1736 O1744 1.245 . S
O1737 Zn1701 1.945 . S
O1737 C1726 1.262 . S
O1738 Zn1717 1.981 . S
O1738 C1726 1.245 . S
C1739 O1724 1.245 1_545 S
C1739 O1725 1.263 . S
O1740 Zn1706 1.945 . S
O1740 C1732 1.262 . S
O1741 Zn1712 1.981 . S
O1741 C1732 1.245 . S
C1742 O1746 1.262 . S
C1742 O1747 1.245 . S
O1743 Zn1712 1.945 . S
O1743 C1736 1.262 . S
O1744 Zn1701 1.981 . S
O1744 C1736 1.245 . S
C1745 O1727 1.269 . S
C1745 O1728 1.263 . S
O1746 Zn1717 1.945 . S
O1746 C1742 1.262 . S
O1747 Zn1706 1.981 . S
O1747 C1742 1.245 . S
C1748 O1729 1.276 . S
C1748 O1749 1.246 . S
O1749 C1748 1.246 . S
C1750 O1731 1.276 . S
C1750 O1751 1.246 . S
O1751 C1750 1.246 . S
C1752 C1753 1.387 . S
C1752 H1756 0.950 . S
C1752 C1761 1.390 . S
C1753 C1752 1.387 . S
C1753 C1755 1.387 . S
H1754 C1761 0.950 . S
C1755 C1753 1.387 . S
C1755 C1757 1.390 . S
C1755 H1759 0.950 . S
H1756 C1752 0.950 . S
C1757 C1755 1.390 . S
C1757 C1758 1.387 . S
C1757 H1760 0.950 . S
C1758 C1757 1.387 . S
C1758 C1761 1.387 . S
H1759 C1755 0.950 . S
H1760 C1757 0.950 . S
C1761 C1752 1.390 . S
C1761 H1754 0.950 . S
C1761 C1758 1.387 . S
C1762 C1763 1.387 . S
C1762 H1766 0.950 . S
C1762 C1771 1.390 . S
C1763 C1762 1.387 . S
C1763 C1765 1.387 . S
H1764 C1771 0.950 . S
C1765 C1763 1.387 . S
C1765 C1767 1.390 . S
C1765 H1769 0.950 . S
H1766 C1762 0.950 . S
C1767 C1765 1.390 . S
C1767 C1768 1.387 . S
C1767 H1770 0.950 . S
C1768 C1767 1.387 . S
C1768 C1771 1.387 . S
H1769 C1765 0.950 . S
H1770 C1767 0.950 . S
C1771 C1762 1.390 . S
C1771 H1764 0.950 . S
C1771 C1768 1.387 . S
C1772 C1773 1.387 . S
C1772 H1776 0.950 . S
C1772 C1781 1.390 . S
C1773 C1772 1.387 . S
C1773 C1775 1.387 . S
H1774 C1781 0.950 . S
C1775 C1773 1.387 . S
C1775 C1777 1.390 . S
C1775 H1779 0.950 . S
H1776 C1772 0.950 . S
C1777 C1775 1.390 . S
C1777 C1778 1.387 . S
C1777 H1780 0.950 . S
C1778 C1777 1.387 . S
C1778 C1781 1.387 . S
H1779 C1775 0.950 . S
H1780 C1777 0.950 . S
C1781 C1772 1.390 . S
C1781 H1774 0.950 . S
C1781 C1778 1.387 . S
C1782 C1783 1.387 . S
C1782 H1786 0.950 . S
C1782 C1791 1.390 . S
C1783 C1782 1.387 . S
C1783 C1785 1.387 . S
H1784 C1791 0.950 . S
C1785 C1783 1.387 . S
C1785 C1787 1.390 . S
C1785 H1789 0.950 . S
H1786 C1782 0.950 . S
C1787 C1785 1.390 . S
C1787 C1788 1.387 . S
C1787 H1790 0.950 . S
C1788 C1787 1.387 . S
C1788 C1791 1.387 . S
H1789 C1785 0.950 . S
H1790 C1787 0.950 . S
C1791 C1782 1.390 . S
C1791 H1784 0.950 . S
C1791 C1788 1.387 . S
C1792 C1793 1.387 . S
C1792 H1796 0.950 . S
C1792 C1801 1.390 . S
C1793 C1792 1.387 . S
C1793 C1795 1.387 . S
H1794 C1801 0.950 . S
C1795 C1793 1.387 . S
C1795 C1797 1.390 . S
C1795 H1799 0.950 . S
H1796 C1792 0.950 . S
C1797 C1795 1.390 . S
C1797 C1798 1.387 . S
C1797 H1800 0.950 . S
C1798 C1797 1.387 . S
C1798 C1801 1.387 . S
H1799 C1795 0.950 . S
H1800 C1797 0.950 . S
C1801 C1792 1.390 . S
C1801 H1794 0.950 . S
C1801 C1798 1.387 . S
C1802 C1803 1.387 . S
C1802 H1806 0.950 . S
C1802 C1811 1.390 . S
C1803 C1802 1.387 . S
C1803 C1805 1.387 . S
H1804 C1811 0.950 . S
C1805 C1803 1.387 . S
C1805 C1807 1.390 . S
C1805 H1809 0.950 . S
H1806 C1802 0.950 . S
C1807 C1805 1.390 . S
C1807 C1808 1.387 . S
C1807 H1810 0.950 . S
C1808 C1807 1.387 . S
C1808 C1811 1.387 . S
H1809 C1805 0.950 . S
H1810 C1807 0.950 . S
C1811 C1802 1.390 . S
C1811 H1804 0.950 . S
C1811 C1808 1.387 . S
C1812 C1813 1.387 . S
C1812 H1816 0.950 . S
C1812 C1821 1.390 . S
C1813 C1812 1.387 . S
C1813 C1815 1.387 . S
H1814 C1821 0.950 . S
C1815 C1813 1.387 . S
C1815 C1817 1.390 . S
C1815 H1819 0.950 . S
H1816 C1812 0.950 . S
C1817 C1815 1.390 . S
C1817 C1818 1.387 . S
C1817 H1820 0.950 . S
C1818 C1817 1.387 . S
C1818 C1821 1.387 . S
H1819 C1815 0.950 . S
H1820 C1817 0.950 . S
C1821 C1812 1.390 . S
C1821 H1814 0.950 . S
C1821 C1818 1.387 . S
C1822 C1823 1.387 . S
C1822 H1826 0.950 . S
C1822 C1831 1.390 . S
C1823 C1822 1.387 . S
C1823 C1825 1.387 . S
H1824 C1831 0.950 . S
C1825 C1823 1.387 . S
C1825 C1827 1.390 . S
C1825 H1829 0.950 . S
H1826 C1822 0.950 . S
C1827 C1825 1.390 . S
C1827 C1828 1.387 . S
C1827 H1830 0.950 . S
C1828 C1827 1.387 . S
C1828 C1831 1.387 . S
H1829 C1825 0.950 . S
H1830 C1827 0.950 . S
C1831 C1822 1.390 . S
C1831 H1824 0.950 . S
C1831 C1828 1.387 . S
C1832 C1833 1.387 . S
C1832 H1836 0.950 . S
C1832 C1841 1.390 . S
C1833 C1832 1.387 . S
C1833 C1835 1.387 . S
H1834 C1841 0.950 . S
C1835 C1833 1.387 . S
C1835 C1837 1.390 . S
C1835 H1839 0.950 . S
H1836 C1832 0.950 . S
C1837 C1835 1.390 . S
C1837 C1838 1.387 . S
C1837 H1840 0.950 . S
C1838 C1837 1.387 . S
C1838 C1841 1.387 . S
H1839 C1835 0.950 . S
H1840 C1837 0.950 . S
C1841 C1832 1.390 . S
C1841 H1834 0.950 . S
C1841 C1838 1.387 . S
C1842 C1843 1.387 . S
C1842 H1846 0.950 . S
C1842 C1851 1.390 . S
C1843 C1842 1.387 . S
C1843 C1845 1.387 . S
H1844 C1851 0.950 . S
C1845 C1843 1.387 . S
C1845 C1847 1.390 . S
C1845 H1849 0.950 . S
H1846 C1842 0.950 . S
C1847 C1845 1.390 . S
C1847 C1848 1.387 . S
C1847 H1850 0.950 . S
C1848 C1847 1.387 . S
C1848 C1851 1.387 . S
H1849 C1845 0.950 . S
H1850 C1847 0.950 . S
C1851 C1842 1.390 . S
C1851 H1844 0.950 . S
C1851 C1848 1.387 . S
C1852 C1853 1.387 . S
C1852 H1856 0.950 . S
C1852 C1861 1.390 . S
C1853 C1852 1.387 . S
C1853 C1855 1.387 . S
H1854 C1861 0.950 . S
C1855 C1853 1.387 . S
C1855 C1857 1.390 . S
C1855 H1859 0.950 . S
H1856 C1852 0.950 . S
C1857 C1855 1.390 . S
C1857 C1858 1.387 . S
C1857 H1860 0.950 . S
C1858 C1857 1.387 . S
C1858 C1861 1.387 . S
H1859 C1855 0.950 . S
H1860 C1857 0.950 . S
C1861 C1852 1.390 . S
C1861 H1854 0.950 . S
C1861 C1858 1.387 . S
C1862 C1863 1.387 . S
C1862 H1866 0.950 . S
C1862 C1871 1.390 . S
C1863 C1862 1.387 . S
C1863 C1865 1.387 . S
H1864 C1871 0.950 . S
C1865 C1863 1.387 . S
C1865 C1867 1.390 . S
C1865 H1869 0.950 . S
H1866 C1862 0.950 . S
C1867 C1865 1.390 . S
C1867 C1868 1.387 . S
C1867 H1870 0.950 . S
C1868 C1867 1.387 . S
C1868 C1871 1.387 . S
H1869 C1865 0.950 . S
H1870 C1867 0.950 . S
C1871 C1862 1.390 . S
C1871 H1864 0.950 . S
C1871 C1868 1.387 . S
C1872 C1873 1.387 . S
C1872 H1876 0.950 1_554 S
C1872 C1881 1.390 . S
C1873 C1872 1.387 . S
C1873 C1875 1.387 . S
H1874 C1881 0.950 . S
C1875 C1873 1.387 . S
C1875 C1877 1.390 . S
C1875 H1879 0.950 . S
H1876 C1872 0.950 1_556 S
C1877 C1875 1.390 . S
C1877 C1878 1.387 . S
C1877 H1880 0.950 . S
C1878 C1877 1.387 . S
C1878 C1881 1.387 . S
H1879 C1875 0.950 . S
H1880 C1877 0.950 . S
C1881 C1872 1.390 . S
C1881 H1874 0.950 . S
C1881 C1878 1.387 . S
C1882 C1883 1.387 . S
C1882 H1886 0.950 . S
C1882 C1891 1.390 . S
C1883 C1882 1.387 . S
C1883 C1885 1.387 1_554 S
H1884 C1891 0.950 . S
C1885 C1883 1.387 1_556 S
C1885 C1887 1.390 . S
C1885 H1889 0.950 . S
H1886 C1882 0.950 . S
C1887 C1885 1.390 . S
C1887 C1888 1.387 1_556 S
C1887 H1890 0.950 . S
C1888 C1887 1.387 1_554 S
C1888 C1891 1.387 . S
H1889 C1885 0.950 . S
H1890 C1887 0.950 . S
C1891 C1882 1.390 . S
C1891 H1884 0.950 . S
C1891 C1888 1.387 . S
C1892 C1893 1.387 . S
C1892 H1896 0.950 . S
C1892 C1901 1.390 . S
C1893 C1892 1.387 . S
C1893 C1895 1.387 1_554 S
H1894 C1901 0.950 . S
C1895 C1893 1.387 1_556 S
C1895 C1897 1.390 . S
C1895 H1899 0.950 . S
H1896 C1892 0.950 . S
C1897 C1895 1.390 . S
C1897 C1898 1.387 1_556 S
C1897 H1900 0.950 . S
C1898 C1897 1.387 1_554 S
C1898 C1901 1.387 . S
H1899 C1895 0.950 . S
H1900 C1897 0.950 . S
C1901 C1892 1.390 . S
C1901 H1894 0.950 . S
C1901 C1898 1.387 . S
C1902 C1903 1.387 1_556 S
C1902 H1906 0.950 . S
C1902 C1911 1.390 . S
C1903 C1902 1.387 1_554 S
C1903 C1905 1.387 . S
H1904 C1911 0.950 . S
C1905 C1903 1.387 . S
C1905 C1907 1.390 . S
C1905 H1909 0.950 . S
H1906 C1902 0.950 . S
C1907 C1905 1.390 . S
C1907 C1908 1.387 . S
C1907 H1910 0.950 . S
C1908 C1907 1.387 . S
C1908 C1911 1.387 1_554 S
H1909 C1905 0.950 . S
H1910 C1907 0.950 . S
C1911 C1902 1.390 . S
C1911 H1904 0.950 . S
C1911 C1908 1.387 1_556 S
C1912 C1913 1.387 . S
C1912 H1916 0.950 . S
C1912 C1921 1.390 . S
C1913 C1912 1.387 . S
C1913 C1915 1.387 1_455 S
H1914 C1921 0.950 . S
C1915 C1913 1.387 1_655 S
C1915 C1917 1.390 . S
C1915 H1919 0.950 . S
H1916 C1912 0.950 . S
C1917 C1915 1.390 . S
C1917 C1918 1.387 1_655 S
C1917 H1920 0.950 . S
C1918 C1917 1.387 1_455 S
C1918 C1921 1.387 . S
H1919 C1915 0.950 . S
H1920 C1917 0.950 . S
C1921 C1912 1.390 . S
C1921 H1914 0.950 . S
C1921 C1918 1.387 . S
C1922 C1923 1.387 . S
C1922 H1926 0.950 . S
C1922 C1931 1.390 . S
C1923 C1922 1.387 . S
C1923 C1925 1.387 1_545 S
H1924 C1931 0.950 . S
C1925 C1923 1.387 1_565 S
C1925 C1927 1.390 . S
C1925 H1929 0.950 . S
H1926 C1922 0.950 . S
C1927 C1925 1.390 . S
C1927 C1928 1.387 1_565 S
C1927 H1930 0.950 . S
C1928 C1927 1.387 1_545 S
C1928 C1931 1.387 . S
H1929 C1925 0.950 . S
H1930 C1927 0.950 . S
C1931 C1922 1.390 . S
C1931 H1924 0.950 . S
C1931 C1928 1.387 . S
C1932 C1933 1.385 . S
C1932 H1936 0.952 1_455 S
C1932 C1941 1.391 1_455 S
C1933 C1932 1.385 . S
C1933 C1935 1.387 . S
H1934 C1941 0.950 . S
C1935 C1933 1.387 . S
C1935 C1937 1.390 . S
C1935 H1939 0.950 . S
H1936 C1932 0.952 1_655 S
C1937 C1935 1.390 . S
C1937 C1938 1.387 . S
C1937 H1940 0.950 . S
C1938 C1937 1.387 . S
C1938 C1941 1.387 1_455 S
H1939 C1935 0.950 . S
H1940 C1937 0.950 . S
C1941 C1932 1.391 1_655 S
C1941 H1934 0.950 . S
C1941 C1938 1.387 1_655 S
C1942 C1943 1.387 . S
C1942 H1946 0.950 1_545 S
C1942 C1951 1.390 . S
C1943 C1942 1.387 . S
C1943 C1945 1.387 . S
H1944 C1951 0.950 1_565 S
C1945 C1943 1.387 . S
C1945 C1947 1.390 . S
C1945 H1949 0.950 . S
H1946 C1942 0.950 1_565 S
C1947 C1945 1.390 . S
C1947 C1948 1.387 . S
C1947 H1950 0.950 . S
C1948 C1947 1.387 . S
C1948 C1951 1.387 . S
H1949 C1945 0.950 . S
H1950 C1947 0.950 . S
C1951 C1942 1.390 . S
C1951 H1944 0.950 1_545 S
C1951 C1948 1.387 . S
C1952 C1953 1.387 . S
C1952 H1956 0.950 . S
C1952 C1961 1.390 . S
C1953 C1952 1.387 . S
C1953 C1955 1.387 . S
H1954 C1961 0.950 . S
C1955 C1953 1.387 . S
C1955 C1957 1.390 . S
C1955 H1959 0.950 1_455 S
H1956 C1952 0.950 . S
C1957 C1955 1.390 . S
C1957 C1958 1.387 . S
C1957 H1960 0.950 1_455 S
C1958 C1957 1.387 . S
C1958 C1961 1.387 . S
H1959 C1955 0.950 1_655 S
H1960 C1957 0.950 1_655 S
C1961 C1952 1.390 . S
C1961 H1954 0.950 . S
C1961 C1958 1.387 . S
C1962 C1963 1.387 . S
C1962 H1966 0.950 . S
C1962 C1971 1.390 . S
C1963 C1962 1.387 . S
C1963 C1965 1.387 . S
H1964 C1971 0.950 . S
C1965 C1963 1.387 . S
C1965 C1967 1.390 . S
C1965 H1969 0.950 1_545 S
H1966 C1962 0.950 . S
C1967 C1965 1.390 . S
C1967 C1968 1.387 . S
C1967 H1970 0.950 1_545 S
C1968 C1967 1.387 . S
C1968 C1971 1.387 . S
H1969 C1965 0.950 1_565 S
H1970 C1967 0.950 1_565 S
C1971 C1962 1.390 . S
C1971 H1964 0.950 . S
C1971 C1968 1.387 . S
C1972 C1973 1.387 1_655 S
C1972 H1976 0.950 . S
C1972 C1981 1.390 . S
C1973 C1972 1.387 1_455 S
C1973 C1975 1.387 . S
H1974 C1981 0.956 . S
C1975 C1973 1.387 . S
C1975 C1977 1.390 . S
C1975 H1979 0.950 . S
H1976 C1972 0.950 . S
C1977 C1975 1.390 . S
C1977 C1978 1.387 . S
C1977 H1980 0.950 . S
C1978 C1977 1.387 . S
C1978 C1981 1.381 1_455 S
H1979 C1975 0.950 . S
H1980 C1977 0.950 . S
C1981 C1972 1.390 . S
C1981 H1974 0.956 . S
C1981 C1978 1.381 1_655 S
C1982 C1983 1.387 1_565 S
C1982 H1986 0.950 . S
C1982 C1991 1.390 . S
C1983 C1982 1.387 1_545 S
C1983 C1985 1.387 . S
H1984 C1991 0.950 . S
C1985 C1983 1.387 . S
C1985 C1987 1.390 . S
C1985 H1989 0.950 . S
H1986 C1982 0.950 . S
C1987 C1985 1.390 . S
C1987 C1988 1.387 . S
C1987 H1990 0.950 . S
C1988 C1987 1.387 . S
C1988 C1991 1.387 1_545 S
H1989 C1985 0.950 . S
H1990 C1987 0.950 . S
C1991 C1982 1.390 . S
C1991 H1984 0.950 . S
C1991 C1988 1.387 1_565 S
C1992 C1993 1.387 . S
C1992 H1996 0.950 . S
C1992 C2001 1.390 . S
C1993 C1992 1.387 . S
C1993 C1995 1.387 . S
H1994 C2001 0.950 . S
C1995 C1993 1.387 . S
C1995 C1997 1.390 . S
C1995 H1999 0.950 1_455 S
H1996 C1992 0.950 . S
C1997 C1995 1.390 . S
C1997 C1998 1.387 . S
C1997 H2000 0.950 1_455 S
C1998 C1997 1.387 . S
C1998 C2001 1.387 . S
H1999 C1995 0.950 1_655 S
H2000 C1997 0.950 1_655 S
C2001 C1992 1.390 . S
C2001 H1994 0.950 . S
C2001 C1998 1.387 . S
C2002 C2003 1.387 . S
C2002 H2006 0.950 1_545 S
C2002 C2011 1.390 . S
C2003 C2002 1.387 . S
C2003 C2005 1.387 . S
H2004 C2011 0.950 1_565 S
C2005 C2003 1.387 . S
C2005 C2007 1.390 . S
C2005 H2009 0.950 . S
H2006 C2002 0.950 1_565 S
C2007 C2005 1.390 . S
C2007 C2008 1.387 . S
C2007 H2010 0.950 . S
C2008 C2007 1.387 . S
C2008 C2011 1.387 . S
H2009 C2005 0.950 . S
H2010 C2007 0.950 . S
C2011 C2002 1.390 . S
C2011 H2004 0.950 1_545 S
C2011 C2008 1.387 . S
C2012 C2013 1.364 1_655 S
C2012 H2016 0.974 . S
C2012 C2021 1.388 1_655 S
C2013 C2012 1.364 1_455 S
C2013 C2015 1.387 . S
H2014 C2021 0.920 1_655 S
C2015 C2013 1.387 . S
C2015 C2017 1.390 . S
C2015 H2019 0.950 . S
H2016 C2012 0.974 . S
C2017 C2015 1.390 . S
C2017 C2018 1.387 . S
C2017 H2020 0.950 . S
C2018 C2017 1.387 . S
C2018 C2021 1.420 . S
H2019 C2015 0.950 . S
H2020 C2017 0.950 . S
C2021 C2012 1.388 1_455 S
C2021 H2014 0.920 1_455 S
C2021 C2018 1.420 . S
C2022 C2023 1.387 . S
C2022 H2026 0.950 . S
C2022 C2031 1.390 . S
C2023 C2022 1.387 . S
C2023 C2025 1.387 1_545 S
H2024 C2031 0.950 . S
C2025 C2023 1.387 1_565 S
C2025 C2027 1.390 . S
C2025 H2029 0.950 . S
H2026 C2022 0.950 . S
C2027 C2025 1.390 . S
C2027 C2028 1.387 1_565 S
C2027 H2030 0.950 . S
C2028 C2027 1.387 1_545 S
C2028 C2031 1.387 . S
H2029 C2025 0.950 . S
H2030 C2027 0.950 . S
C2031 C2022 1.390 . S
C2031 H2024 0.950 . S
C2031 C2028 1.387 . S
C2032 C2033 1.387 1_655 S
C2032 H2036 0.950 . S
C2032 C2041 1.390 . S
C2033 C2032 1.387 1_455 S
C2033 C2035 1.387 . S
H2034 C2041 0.950 . S
C2035 C2033 1.387 . S
C2035 C2037 1.390 . S
C2035 H2039 0.950 . S
H2036 C2032 0.950 . S
C2037 C2035 1.390 . S
C2037 C2038 1.387 . S
C2037 H2040 0.950 . S
C2038 C2037 1.387 . S
C2038 C2041 1.387 1_455 S
H2039 C2035 0.950 . S
H2040 C2037 0.950 . S
C2041 C2032 1.390 . S
C2041 H2034 0.950 . S
C2041 C2038 1.387 1_655 S
C2042 C2043 1.387 . S
C2042 H2046 0.950 . S
C2042 C2051 1.390 . S
C2043 C2042 1.387 . S
C2043 C2045 1.387 1_545 S
H2044 C2051 0.950 . S
C2045 C2043 1.387 1_565 S
C2045 C2047 1.390 . S
C2045 H2049 0.950 . S
H2046 C2042 0.950 . S
C2047 C2045 1.390 . S
C2047 C2048 1.387 1_565 S
C2047 H2050 0.950 . S
C2048 C2047 1.387 1_545 S
C2048 C2051 1.387 . S
H2049 C2045 0.950 . S
H2050 C2047 0.950 . S
C2051 C2042 1.390 . S
C2051 H2044 0.950 . S
C2051 C2048 1.387 . S
C2052 C2053 1.387 1_655 S
C2052 H2056 0.950 . S
C2052 C2061 1.390 . S
C2053 C2052 1.387 1_455 S
C2053 C2055 1.387 . S
H2054 C2061 0.950 . S
C2055 C2053 1.387 . S
C2055 C2057 1.390 . S
C2055 H2059 0.950 . S
H2056 C2052 0.950 . S
C2057 C2055 1.390 . S
C2057 C2058 1.387 . S
C2057 H2060 0.950 . S
C2058 C2057 1.387 . S
C2058 C2061 1.387 1_455 S
H2059 C2055 0.950 . S
H2060 C2057 0.950 . S
C2061 C2052 1.390 . S
C2061 H2054 0.950 . S
C2061 C2058 1.387 1_655 S
C2062 C2063 1.387 . S
C2062 H2066 0.950 . S
C2062 C2071 1.390 . S
C2063 C2062 1.387 . S
C2063 C2065 1.387 . S
H2064 C2071 0.950 . S
C2065 C2063 1.387 . S
C2065 C2067 1.390 . S
C2065 H2069 0.950 1_545 S
H2066 C2062 0.950 . S
C2067 C2065 1.390 . S
C2067 C2068 1.387 . S
C2067 H2070 0.950 1_545 S
C2068 C2067 1.387 . S
C2068 C2071 1.387 . S
H2069 C2065 0.950 1_565 S
H2070 C2067 0.950 1_565 S
C2071 C2062 1.390 . S
C2071 H2064 0.950 . S
C2071 C2068 1.387 . S
C2072 C2073 1.387 . S
C2072 H2076 0.950 . S
C2072 C2081 1.390 . S
C2073 C2072 1.387 . S
C2073 C2075 1.387 1_545 S
H2074 C2081 0.950 . S
C2075 C2073 1.387 1_565 S
C2075 C2077 1.390 . S
C2075 H2079 0.950 . S
H2076 C2072 0.950 . S
C2077 C2075 1.390 . S
C2077 C2078 1.387 1_565 S
C2077 H2080 0.950 . S
C2078 C2077 1.387 1_545 S
C2078 C2081 1.387 . S
H2079 C2075 0.950 . S
H2080 C2077 0.950 . S
C2081 C2072 1.390 . S
C2081 H2074 0.950 . S
C2081 C2078 1.387 . S
C2082 C2083 1.387 . S
C2082 H2086 0.950 . S
C2082 C2091 1.390 . S
C2083 C2082 1.387 . S
C2083 C2085 1.387 . S
H2084 C2091 0.950 . S
C2085 C2083 1.387 . S
C2085 C2087 1.390 . S
C2085 H2089 0.950 . S
H2086 C2082 0.950 . S
C2087 C2085 1.390 . S
C2087 C2088 1.387 . S
C2087 H2090 0.950 . S
C2088 C2087 1.387 . S
C2088 C2091 1.387 . S
H2089 C2085 0.950 . S
H2090 C2087 0.950 . S
C2091 C2082 1.390 . S
C2091 H2084 0.950 . S
C2091 C2088 1.387 . S
C2092 C2093 1.387 . S
C2092 H2096 0.950 . S
C2092 C2101 1.390 . S
C2093 C2092 1.387 . S
C2093 C2095 1.387 . S
H2094 C2101 0.950 . S
C2095 C2093 1.387 . S
C2095 C2097 1.390 . S
C2095 H2099 0.950 1_545 S
H2096 C2092 0.950 . S
C2097 C2095 1.390 . S
C2097 C2098 1.387 . S
C2097 H2100 0.950 1_545 S
C2098 C2097 1.387 . S
C2098 C2101 1.387 . S
H2099 C2095 0.950 1_565 S
H2100 C2097 0.950 1_565 S
C2101 C2092 1.390 . S
C2101 H2094 0.950 . S
C2101 C2098 1.387 . S
C2102 C2103 1.387 . S
C2102 H2106 0.950 1_455 S
C2102 C2111 1.390 . S
C2103 C2102 1.387 . S
C2103 C2105 1.387 . S
H2104 C2111 0.950 1_655 S
C2105 C2103 1.387 . S
C2105 C2107 1.390 . S
C2105 H2109 0.950 . S
H2106 C2102 0.950 1_655 S
C2107 C2105 1.390 . S
C2107 C2108 1.387 . S
C2107 H2110 0.950 . S
C2108 C2107 1.387 . S
C2108 C2111 1.387 . S
H2109 C2105 0.950 . S
H2110 C2107 0.950 . S
C2111 C2102 1.390 . S
C2111 H2104 0.950 1_455 S
C2111 C2108 1.387 . S
C2112 C2113 1.387 . S
C2112 H2116 0.950 . S
C2112 C2121 1.390 . S
C2113 C2112 1.387 . S
C2113 C2115 1.387 1_545 S
H2114 C2121 0.950 . S
C2115 C2113 1.387 1_565 S
C2115 C2117 1.390 . S
C2115 H2119 0.950 . S
H2116 C2112 0.950 . S
C2117 C2115 1.390 . S
C2117 C2118 1.387 1_565 S
C2117 H2120 0.950 . S
C2118 C2117 1.387 1_545 S
C2118 C2121 1.387 . S
H2119 C2115 0.950 . S
H2120 C2117 0.950 . S
C2121 C2112 1.390 . S
C2121 H2114 0.950 . S
C2121 C2118 1.387 . S
C2122 C2123 1.387 . S
C2122 H2126 0.950 1_455 S
C2122 C2131 1.390 . S
C2123 C2122 1.387 . S
C2123 C2125 1.387 . S
H2124 C2131 0.950 1_655 S
C2125 C2123 1.387 . S
C2125 C2127 1.390 . S
C2125 H2129 0.950 . S
H2126 C2122 0.950 1_655 S
C2127 C2125 1.390 . S
C2127 C2128 1.387 . S
C2127 H2130 0.950 . S
C2128 C2127 1.387 . S
C2128 C2131 1.387 . S
H2129 C2125 0.950 . S
H2130 C2127 0.950 . S
C2131 C2122 1.390 . S
C2131 H2124 0.950 1_455 S
C2131 C2128 1.387 . S
C2132 C2133 1.387 . S
C2132 H2136 0.950 . S
C2132 C2141 1.390 . S
C2133 C2132 1.387 . S
C2133 C2135 1.387 . S
H2134 C2141 0.950 . S
C2135 C2133 1.387 . S
C2135 C2137 1.390 . S
C2135 H2139 0.950 1_545 S
H2136 C2132 0.950 . S
C2137 C2135 1.390 . S
C2137 C2138 1.387 . S
C2137 H2140 0.950 1_545 S
C2138 C2137 1.387 . S
C2138 C2141 1.387 . S
H2139 C2135 0.950 1_565 S
H2140 C2137 0.950 1_565 S
C2141 C2132 1.390 . S
C2141 H2134 0.950 . S
C2141 C2138 1.387 . S
C2142 C2143 1.387 . S
C2142 H2146 0.950 1_455 S
C2142 C2151 1.390 . S
C2143 C2142 1.387 . S
C2143 C2145 1.387 . S
H2144 C2151 0.950 . S
C2145 C2143 1.387 . S
C2145 C2147 1.390 . S
C2145 H2149 0.950 . S
H2146 C2142 0.950 1_655 S
C2147 C2145 1.390 . S
C2147 C2148 1.387 . S
C2147 H2150 0.950 . S
C2148 C2147 1.387 . S
C2148 C2151 1.387 . S
H2149 C2145 0.950 . S
H2150 C2147 0.950 . S
C2151 C2142 1.390 . S
C2151 H2144 0.950 . S
C2151 C2148 1.387 . S
C2152 C2153 1.387 1_556 S
C2152 H2156 0.950 . S
C2152 C2161 1.390 . S
C2153 C2152 1.387 1_554 S
C2153 C2155 1.387 . S
H2154 C2161 0.950 . S
C2155 C2153 1.387 . S
C2155 C2157 1.390 . S
C2155 H2159 0.950 . S
H2156 C2152 0.950 . S
C2157 C2155 1.390 . S
C2157 C2158 1.387 . S
C2157 H2160 0.950 . S
C2158 C2157 1.387 . S
C2158 C2161 1.387 1_554 S
H2159 C2155 0.950 . S
H2160 C2157 0.950 . S
C2161 C2152 1.390 . S
C2161 H2154 0.950 . S
C2161 C2158 1.387 1_556 S
C2162 C2163 1.387 . S
C2162 H2166 0.950 . S
C2162 C2171 1.390 . S
C2163 C2162 1.387 . S
C2163 C2165 1.387 1_554 S
H2164 C2171 0.950 . S
C2165 C2163 1.387 1_556 S
C2165 C2167 1.390 . S
C2165 H2169 0.950 . S
H2166 C2162 0.950 . S
C2167 C2165 1.390 . S
C2167 C2168 1.387 1_556 S
C2167 H2170 0.950 . S
C2168 C2167 1.387 1_554 S
C2168 C2171 1.387 . S
H2169 C2165 0.950 . S
H2170 C2167 0.950 . S
C2171 C2162 1.390 . S
C2171 H2164 0.950 . S
C2171 C2168 1.387 . S
C2172 C2173 1.387 . S
C2172 H2176 0.950 . S
C2172 C2181 1.390 . S
C2173 C2172 1.387 . S
C2173 C2175 1.387 1_554 S
H2174 C2181 0.950 . S
C2175 C2173 1.387 1_556 S
C2175 C2177 1.390 . S
C2175 H2179 0.950 . S
H2176 C2172 0.950 . S
C2177 C2175 1.390 . S
C2177 C2178 1.387 1_556 S
C2177 H2180 0.950 . S
C2178 C2177 1.387 1_554 S
C2178 C2181 1.387 . S
H2179 C2175 0.950 . S
H2180 C2177 0.950 . S
C2181 C2172 1.390 . S
C2181 H2174 0.950 . S
C2181 C2178 1.387 . S
C2182 C2183 1.387 1_556 S
C2182 H2186 0.950 . S
C2182 C2191 1.390 . S
C2183 C2182 1.387 1_554 S
C2183 C2185 1.387 . S
H2184 C2191 0.950 . S
C2185 C2183 1.387 . S
C2185 C2187 1.390 . S
C2185 H2189 0.950 . S
H2186 C2182 0.950 . S
C2187 C2185 1.390 . S
C2187 C2188 1.387 . S
C2187 H2190 0.950 . S
C2188 C2187 1.387 . S
C2188 C2191 1.387 1_554 S
H2189 C2185 0.950 . S
H2190 C2187 0.950 . S
C2191 C2182 1.390 . S
C2191 H2184 0.950 . S
C2191 C2188 1.387 1_556 S
C2192 C2193 1.387 1_556 S
C2192 H2196 0.950 . S
C2192 C2201 1.390 . S
C2193 C2192 1.387 1_554 S
C2193 C2195 1.387 . S
H2194 C2201 0.950 . S
C2195 C2193 1.387 . S
C2195 C2197 1.390 . S
C2195 H2199 0.950 . S
H2196 C2192 0.950 . S
C2197 C2195 1.390 . S
C2197 C2198 1.387 . S
C2197 H2200 0.950 . S
C2198 C2197 1.387 . S
C2198 C2201 1.387 1_554 S
H2199 C2195 0.950 . S
H2200 C2197 0.950 . S
C2201 C2192 1.390 . S
C2201 H2194 0.950 . S
C2201 C2198 1.387 1_556 S
C2202 C2203 1.387 . S
C2202 H2206 0.950 . S
C2202 C2211 1.390 . S
C2203 C2202 1.387 . S
C2203 C2205 1.387 1_554 S
H2204 C2211 0.950 . S
C2205 C2203 1.387 1_556 S
C2205 C2207 1.390 . S
C2205 H2209 0.950 . S
H2206 C2202 0.950 . S
C2207 C2205 1.390 . S
C2207 C2208 1.387 1_556 S
C2207 H2210 0.950 . S
C2208 C2207 1.387 1_554 S
C2208 C2211 1.387 . S
H2209 C2205 0.950 . S
H2210 C2207 0.950 . S
C2211 C2202 1.390 . S
C2211 H2204 0.950 . S
C2211 C2208 1.387 . S
C2212 C2213 1.387 . S
C2212 H2216 0.950 . S
C2212 C2221 1.390 . S
C2213 C2212 1.387 . S
C2213 C2215 1.387 1_554 S
H2214 C2221 0.950 . S
C2215 C2213 1.387 1_556 S
C2215 C2217 1.390 . S
C2215 H2219 0.950 . S
H2216 C2212 0.950 . S
C2217 C2215 1.390 . S
C2217 C2218 1.387 1_556 S
C2217 H2220 0.950 . S
C2218 C2217 1.387 1_554 S
C2218 C2221 1.387 . S
H2219 C2215 0.950 . S
H2220 C2217 0.950 . S
C2221 C2212 1.390 . S
C2221 H2214 0.950 . S
C2221 C2218 1.387 . S
C2222 C2223 1.387 1_556 S
C2222 H2226 0.950 . S
C2222 C2231 1.390 . S
C2223 C2222 1.387 1_554 S
C2223 C2225 1.387 . S
H2224 C2231 0.950 . S
C2225 C2223 1.387 . S
C2225 C2227 1.390 . S
C2225 H2229 0.950 . S
H2226 C2222 0.950 . S
C2227 C2225 1.390 . S
C2227 C2228 1.387 . S
C2227 H2230 0.950 . S
C2228 C2227 1.387 . S
C2228 C2231 1.387 1_554 S
H2229 C2225 0.950 . S
H2230 C2227 0.950 . S
C2231 C2222 1.390 . S
C2231 H2224 0.950 . S
C2231 C2228 1.387 1_556 S
C2232 C2233 1.387 . S
C2232 H2236 0.950 . S
C2232 C2241 1.390 . S
C2233 C2232 1.387 . S
C2233 C2235 1.387 . S
H2234 C2241 0.950 . S
C2235 C2233 1.387 . S
C2235 C2237 1.390 . S
C2235 H2239 0.950 . S
H2236 C2232 0.950 . S
C2237 C2235 1.390 . S
C2237 C2238 1.387 . S
C2237 H2240 0.950 . S
C2238 C2237 1.387 . S
C2238 C2241 1.387 . S
H2239 C2235 0.950 . S
H2240 C2237 0.950 . S
C2241 C2232 1.390 . S
C2241 H2234 0.950 . S
C2241 C2238 1.387 . S
C2242 C2243 1.387 . S
C2242 H2246 0.950 . S
C2242 C2251 1.390 . S
C2243 C2242 1.387 . S
C2243 C2245 1.387 . S
H2244 C2251 0.950 . S
C2245 C2243 1.387 . S
C2245 C2247 1.390 . S
C2245 H2249 0.950 . S
H2246 C2242 0.950 . S
C2247 C2245 1.390 . S
C2247 C2248 1.387 . S
C2247 H2250 0.950 . S
C2248 C2247 1.387 . S
C2248 C2251 1.387 . S
H2249 C2245 0.950 . S
H2250 C2247 0.950 . S
C2251 C2242 1.390 . S
C2251 H2244 0.950 . S
C2251 C2248 1.387 . S
C2252 C2253 1.387 . S
C2252 H2256 0.950 . S
C2252 C2261 1.390 . S
C2253 C2252 1.387 . S
C2253 C2255 1.387 . S
H2254 C2261 0.950 . S
C2255 C2253 1.387 . S
C2255 C2257 1.390 . S
C2255 H2259 0.950 . S
H2256 C2252 0.950 . S
C2257 C2255 1.390 . S
C2257 C2258 1.387 . S
C2257 H2260 0.950 . S
C2258 C2257 1.387 . S
C2258 C2261 1.387 . S
H2259 C2255 0.950 . S
H2260 C2257 0.950 . S
C2261 C2252 1.390 . S
C2261 H2254 0.950 . S
C2261 C2258 1.387 . S
C2262 C2263 1.387 . S
C2262 H2266 0.950 . S
C2262 C2271 1.390 . S
C2263 C2262 1.387 . S
C2263 C2265 1.387 . S
H2264 C2271 0.950 . S
C2265 C2263 1.387 . S
C2265 C2267 1.390 . S
C2265 H2269 0.950 . S
H2266 C2262 0.950 . S
C2267 C2265 1.390 . S
C2267 C2268 1.387 . S
C2267 H2270 0.950 . S
C2268 C2267 1.387 . S
C2268 C2271 1.387 . S
H2269 C2265 0.950 . S
H2270 C2267 0.950 . S
C2271 C2262 1.390 . S
C2271 H2264 0.950 . S
C2271 C2268 1.387 . S
C2272 C2273 1.387 . S
C2272 H2276 0.950 . S
C2272 C2281 1.390 . S
C2273 C2272 1.387 . S
C2273 C2275 1.387 . S
H2274 C2281 0.950 . S
C2275 C2273 1.387 . S
C2275 C2277 1.390 . S
C2275 H2279 0.950 . S
H2276 C2272 0.950 . S
C2277 C2275 1.390 . S
C2277 C2278 1.387 . S
C2277 H2280 0.950 . S
C2278 C2277 1.387 . S
C2278 C2281 1.387 . S
H2279 C2275 0.950 . S
H2280 C2277 0.950 . S
C2281 C2272 1.390 . S
C2281 H2274 0.950 . S
C2281 C2278 1.387 . S
C2282 C2283 1.387 . S
C2282 H2286 0.950 . S
C2282 C2291 1.390 . S
C2283 C2282 1.387 . S
C2283 C2285 1.387 . S
H2284 C2291 0.950 . S
C2285 C2283 1.387 . S
C2285 C2287 1.390 . S
C2285 H2289 0.950 . S
H2286 C2282 0.950 . S
C2287 C2285 1.390 . S
C2287 C2288 1.387 . S
C2287 H2290 0.950 . S
C2288 C2287 1.387 . S
C2288 C2291 1.387 . S
H2289 C2285 0.950 . S
H2290 C2287 0.950 . S
C2291 C2282 1.390 . S
C2291 H2284 0.950 . S
C2291 C2288 1.387 . S
C2292 C2293 1.387 . S
C2292 H2296 0.950 . S
C2292 C2301 1.390 . S
C2293 C2292 1.387 . S
C2293 C2295 1.387 . S
H2294 C2301 0.950 . S
C2295 C2293 1.387 . S
C2295 C2297 1.390 . S
C2295 H2299 0.950 . S
H2296 C2292 0.950 . S
C2297 C2295 1.390 . S
C2297 C2298 1.387 . S
C2297 H2300 0.950 . S
C2298 C2297 1.387 . S
C2298 C2301 1.387 . S
H2299 C2295 0.950 . S
H2300 C2297 0.950 . S
C2301 C2292 1.390 . S
C2301 H2294 0.950 . S
C2301 C2298 1.387 . S
C2302 C2303 1.387 . S
C2302 H2306 0.950 . S
C2302 C2311 1.390 . S
C2303 C2302 1.387 . S
C2303 C2305 1.387 . S
H2304 C2311 0.950 . S
C2305 C2303 1.387 . S
C2305 C2307 1.390 . S
C2305 H2309 0.950 . S
H2306 C2302 0.950 . S
C2307 C2305 1.390 . S
C2307 C2308 1.387 . S
C2307 H2310 0.950 . S
C2308 C2307 1.387 . S
C2308 C2311 1.387 . S
H2309 C2305 0.950 . S
H2310 C2307 0.950 . S
C2311 C2302 1.390 . S
C2311 H2304 0.950 . S
C2311 C2308 1.387 . S
C2312 C2313 1.387 . S
C2312 H2316 0.950 . S
C2312 C2321 1.390 . S
C2313 C2312 1.387 . S
C2313 C2315 1.387 . S
H2314 C2321 0.950 . S
C2315 C2313 1.387 . S
C2315 C2317 1.390 . S
C2315 H2319 0.950 . S
H2316 C2312 0.950 . S
C2317 C2315 1.390 . S
C2317 C2318 1.387 . S
C2317 H2320 0.950 . S
C2318 C2317 1.387 . S
C2318 C2321 1.387 . S
H2319 C2315 0.950 . S
H2320 C2317 0.950 . S
C2321 C2312 1.390 . S
C2321 H2314 0.950 . S
C2321 C2318 1.387 . S
C2322 C2323 1.387 . S
C2322 H2326 0.950 . S
C2322 C2331 1.390 . S
C2323 C2322 1.387 . S
C2323 C2325 1.387 . S
H2324 C2331 0.950 . S
C2325 C2323 1.387 . S
C2325 C2327 1.390 . S
C2325 H2329 0.950 . S
H2326 C2322 0.950 . S
C2327 C2325 1.390 . S
C2327 C2328 1.387 . S
C2327 H2330 0.950 . S
C2328 C2327 1.387 . S
C2328 C2331 1.387 . S
H2329 C2325 0.950 . S
H2330 C2327 0.950 . S
C2331 C2322 1.390 . S
C2331 H2324 0.950 . S
C2331 C2328 1.387 . S
C2332 C2333 1.387 . S
C2332 H2336 0.950 . S
C2332 C2341 1.390 . S
C2333 C2332 1.387 . S
C2333 C2335 1.387 . S
H2334 C2341 0.950 . S
C2335 C2333 1.387 . S
C2335 C2337 1.390 . S
C2335 H2339 0.950 . S
H2336 C2332 0.950 . S
C2337 C2335 1.390 . S
C2337 C2338 1.387 . S
C2337 H2340 0.950 . S
C2338 C2337 1.387 . S
C2338 C2341 1.387 . S
H2339 C2335 0.950 . S
H2340 C2337 0.950 . S
C2341 C2332 1.390 . S
C2341 H2334 0.950 . S
C2341 C2338 1.387 . S
C2342 C2343 1.387 . S
C2342 H2346 0.950 . S
C2342 C2351 1.390 . S
C2343 C2342 1.387 . S
C2343 C2345 1.387 . S
H2344 C2351 0.950 . S
C2345 C2343 1.387 . S
C2345 C2347 1.390 . S
C2345 H2349 0.950 . S
H2346 C2342 0.950 . S
C2347 C2345 1.390 . S
C2347 C2348 1.387 . S
C2347 H2350 0.950 . S
C2348 C2347 1.387 . S
C2348 C2351 1.387 . S
H2349 C2345 0.950 . S
H2350 C2347 0.950 . S
C2351 C2342 1.390 . S
C2351 H2344 0.950 . S
C2351 C2348 1.387 . S
C2352 C2353 1.387 . S
C2352 H2356 0.950 . S
C2352 C2361 1.390 . S
C2353 C2352 1.387 . S
C2353 C2355 1.387 . S
H2354 C2361 0.950 . S
C2355 C2353 1.387 . S
C2355 C2357 1.390 . S
C2355 H2359 0.950 . S
H2356 C2352 0.950 . S
C2357 C2355 1.390 . S
C2357 C2358 1.387 . S
C2357 H2360 0.950 . S
C2358 C2357 1.387 . S
C2358 C2361 1.387 . S
H2359 C2355 0.950 . S
H2360 C2357 0.950 . S
C2361 C2352 1.390 . S
C2361 H2354 0.950 . S
C2361 C2358 1.387 . S
C2362 C2363 1.387 . S
C2362 H2366 0.950 . S
C2362 C2371 1.390 . S
C2363 C2362 1.387 . S
C2363 C2365 1.387 . S
H2364 C2371 0.950 . S
C2365 C2363 1.387 . S
C2365 C2367 1.390 . S
C2365 H2369 0.950 . S
H2366 C2362 0.950 . S
C2367 C2365 1.390 . S
C2367 C2368 1.387 . S
C2367 H2370 0.950 . S
C2368 C2367 1.387 . S
C2368 C2371 1.387 . S
H2369 C2365 0.950 . S
H2370 C2367 0.950 . S
C2371 C2362 1.390 . S
C2371 H2364 0.950 . S
C2371 C2368 1.387 . S
C2372 C2373 1.387 . S
C2372 H2376 0.950 . S
C2372 C2381 1.390 . S
C2373 C2372 1.387 . S
C2373 C2375 1.387 . S
H2374 C2381 0.950 . S
C2375 C2373 1.387 . S
C2375 C2377 1.390 . S
C2375 H2379 0.950 . S
H2376 C2372 0.950 . S
C2377 C2375 1.390 . S
C2377 C2378 1.387 . S
C2377 H2380 0.950 . S
C2378 C2377 1.387 . S
C2378 C2381 1.387 . S
H2379 C2375 0.950 . S
H2380 C2377 0.950 . S
C2381 C2372 1.390 . S
C2381 H2374 0.950 . S
C2381 C2378 1.387 . S
C2382 C2383 1.387 . S
C2382 H2386 0.950 . S
C2382 C2391 1.390 . S
C2383 C2382 1.387 . S
C2383 C2385 1.387 . S
H2384 C2391 0.950 . S
C2385 C2383 1.387 . S
C2385 C2387 1.390 . S
C2385 H2389 0.950 . S
H2386 C2382 0.950 . S
C2387 C2385 1.390 . S
C2387 C2388 1.387 . S
C2387 H2390 0.950 . S
C2388 C2387 1.387 . S
C2388 C2391 1.387 . S
H2389 C2385 0.950 . S
H2390 C2387 0.950 . S
C2391 C2382 1.390 . S
C2391 H2384 0.950 . S
C2391 C2388 1.387 . S
C2392 C2393 1.387 . S
C2392 H2396 0.950 . S
C2392 C2401 1.390 . S
C2393 C2392 1.387 . S
C2393 C2395 1.387 . S
H2394 C2401 0.950 . S
C2395 C2393 1.387 . S
C2395 C2397 1.390 . S
C2395 H2399 0.950 . S
H2396 C2392 0.950 . S
C2397 C2395 1.390 . S
C2397 C2398 1.387 . S
C2397 H2400 0.950 . S
C2398 C2397 1.387 . S
C2398 C2401 1.387 . S
H2399 C2395 0.950 . S
H2400 C2397 0.950 . S
C2401 C2392 1.390 . S
C2401 H2394 0.950 . S
C2401 C2398 1.387 . S
C2402 C2403 1.387 . S
C2402 H2406 0.950 . S
C2402 C2411 1.390 . S
C2403 C2402 1.387 . S
C2403 C2405 1.387 . S
H2404 C2411 0.950 . S
C2405 C2403 1.387 . S
C2405 C2407 1.390 . S
C2405 H2409 0.950 . S
H2406 C2402 0.950 . S
C2407 C2405 1.390 . S
C2407 C2408 1.387 . S
C2407 H2410 0.950 . S
C2408 C2407 1.387 . S
C2408 C2411 1.387 . S
H2409 C2405 0.950 . S
H2410 C2407 0.950 . S
C2411 C2402 1.390 . S
C2411 H2404 0.950 . S
C2411 C2408 1.387 . S
C2412 C2413 1.387 . S
C2412 H2416 0.950 . S
C2412 C2421 1.390 . S
C2413 C2412 1.387 . S
C2413 C2415 1.387 . S
H2414 C2421 0.950 . S
C2415 C2413 1.387 . S
C2415 C2417 1.390 . S
C2415 H2419 0.950 . S
H2416 C2412 0.950 . S
C2417 C2415 1.390 . S
C2417 C2418 1.387 . S
C2417 H2420 0.950 . S
C2418 C2417 1.387 . S
C2418 C2421 1.387 . S
H2419 C2415 0.950 . S
H2420 C2417 0.950 . S
C2421 C2412 1.390 . S
C2421 H2414 0.950 . S
C2421 C2418 1.387 . S
C2422 C2423 1.387 . S
C2422 H2426 0.950 . S
C2422 C2431 1.390 . S
C2423 C2422 1.387 . S
C2423 C2425 1.387 . S
H2424 C2431 0.950 . S
C2425 C2423 1.387 . S
C2425 C2427 1.390 . S
C2425 H2429 0.950 . S
H2426 C2422 0.950 . S
C2427 C2425 1.390 . S
C2427 C2428 1.387 . S
C2427 H2430 0.950 . S
C2428 C2427 1.387 . S
C2428 C2431 1.387 . S
H2429 C2425 0.950 . S
H2430 C2427 0.950 . S
C2431 C2422 1.390 . S
C2431 H2424 0.950 . S
C2431 C2428 1.387 . S
C2432 C2433 1.387 . S
C2432 H2436 0.950 . S
C2432 C2441 1.390 . S
C2433 C2432 1.387 . S
C2433 C2435 1.387 . S
H2434 C2441 0.950 . S
C2435 C2433 1.387 . S
C2435 C2437 1.390 . S
C2435 H2439 0.950 . S
H2436 C2432 0.950 . S
C2437 C2435 1.390 . S
C2437 C2438 1.387 . S
C2437 H2440 0.950 . S
C2438 C2437 1.387 . S
C2438 C2441 1.387 . S
H2439 C2435 0.950 . S
H2440 C2437 0.950 . S
C2441 C2432 1.390 . S
C2441 H2434 0.950 . S
C2441 C2438 1.387 . S
C2442 C2443 1.387 . S
C2442 H2446 0.950 . S
C2442 C2451 1.390 . S
C2443 C2442 1.387 . S
C2443 C2445 1.387 . S
H2444 C2451 0.950 . S
C2445 C2443 1.387 . S
C2445 C2447 1.390 . S
C2445 H2449 0.950 . S
H2446 C2442 0.950 . S
C2447 C2445 1.390 . S
C2447 C2448 1.387 . S
C2447 H2450 0.950 . S
C2448 C2447 1.387 . S
C2448 C2451 1.387 . S
H2449 C2445 0.950 . S
H2450 C2447 0.950 . S
C2451 C2442 1.390 . S
C2451 H2444 0.950 . S
C2451 C2448 1.387 . S
C2452 C2453 1.387 . S
C2452 H2456 0.950 . S
C2452 C2461 1.390 . S
C2453 C2452 1.387 . S
C2453 C2455 1.387 . S
H2454 C2461 0.950 . S
C2455 C2453 1.387 . S
C2455 C2457 1.390 . S
C2455 H2459 0.950 . S
H2456 C2452 0.950 . S
C2457 C2455 1.390 . S
C2457 C2458 1.387 . S
C2457 H2460 0.950 . S
C2458 C2457 1.387 . S
C2458 C2461 1.387 . S
H2459 C2455 0.950 . S
H2460 C2457 0.950 . S
C2461 C2452 1.390 . S
C2461 H2454 0.950 . S
C2461 C2458 1.387 . S
C2462 C2463 1.387 . S
C2462 H2466 0.950 . S
C2462 C2471 1.390 . S
C2463 C2462 1.387 . S
C2463 C2465 1.387 . S
H2464 C2471 0.950 . S
C2465 C2463 1.387 . S
C2465 C2467 1.390 . S
C2465 H2469 0.950 . S
H2466 C2462 0.950 . S
C2467 C2465 1.390 . S
C2467 C2468 1.387 . S
C2467 H2470 0.950 . S
C2468 C2467 1.387 . S
C2468 C2471 1.387 . S
H2469 C2465 0.950 . S
H2470 C2467 0.950 . S
C2471 C2462 1.390 . S
C2471 H2464 0.950 . S
C2471 C2468 1.387 . S
C1758 C1482 1.079 . S
C1753 C1400 1.105 . S
C1763 C1280 1.113 . S
C1768 C1476 1.094 . S
C1778 C1444 1.197 . S
C1773 C1220 1.240 . S
C1783 C1340 1.268 . S
C1788 C1458 1.203 . S
C1798 C1496 1.539 . S
C1793 C980 1.626 . S
C1808 C1583 1.116 . S
C1803 C1040 1.157 . S
C1813 C1100 1.639 . S
C1818 C1510 1.614 . S
C1828 C1578 0.831 . S
C1823 C1160 0.839 . S
C1833 C740 1.659 . S
C1838 C1534 1.594 . S
C1848 C1589 1.168 . S
C1843 C800 1.185 . S
C1853 C860 1.614 . S
C1858 C1528 1.572 . S
C1863 C920 0.874 . S
C1868 C1574 0.877 . S
C1878 C1630 0.867 . S
C1873 C680 0.865 . S
C1883 C560 1.194 . S
C1888 C1641 1.191 . S
C1893 C500 0.930 . S
C1898 C1626 0.928 . S
C1908 C1635 1.245 . S
C1903 C620 1.265 . S
C1913 C260 1.214 1_455 S
C1918 C1680 1.182 . S
C1923 C320 0.489 . S
C1928 C1739 0.524 . S
C1933 C380 1.343 . S
C1938 C1696 1.262 . S
C1943 C440 0.867 . S
C1948 C1734 0.846 . S
C1958 C1698 1.297 . S
C1953 C20 1.348 . S
C1968 C1745 0.507 . S
C1963 C80 0.478 . S
C1973 C140 1.194 . S
C1978 C1674 1.144 . S
C1988 C1730 0.829 . S
C1983 C200 0.829 . S
C1998 C1466 2.024 . S
C1993 C31 2.137 . S
C2003 C61 1.617 . S
C2008 C1470 1.837 . S
C2013 C121 1.894 . S
C2018 C1490 2.020 . S
C2023 C211 1.571 . S
C2028 C1485 1.696 . S
C2033 C271 2.198 1_455 S
C2038 C1488 2.054 . S
C2048 C1474 1.834 . S
C2043 C331 1.899 . S
C2053 C361 1.835 . S
C2058 C1472 1.991 . S
C2068 C1479 1.701 . S
C2063 C421 1.306 . S
C2078 C1542 2.045 . S
C2073 C181 1.884 . S
C2083 C1 2.034 . S
C2088 C1592 2.322 . S
C2098 C1540 1.695 . S
C2093 C91 1.827 . S
C2108 C1576 2.228 . S
C2103 C151 2.201 . S
C2113 C301 1.501 . S
C2118 C1518 1.652 . S
C2128 C1594 2.294 . S
C2123 C391 2.294 . S
C2138 C1524 2.013 . S
C2133 C451 2.136 . S
C2148 C1570 2.261 . S
C2143 C241 1.995 1_455 S
C2158 C1562 2.164 . S
C2153 C511 2.078 . S
C2163 C571 2.004 . S
C2168 C1586 2.130 . S
C2178 C1522 1.812 . S
C2173 C481 1.548 . S
C2188 C1548 2.155 . S
C2183 C601 1.730 1_554 S
C2193 C691 1.802 . S
C2198 C1526 1.757 . S
C2203 C661 1.745 . S
C2208 C1580 2.136 . S
C2218 C1537 2.118 . S
C2213 C541 1.703 . S
C2228 C1531 2.175 . S
C2223 C631 2.039 1_554 S
C2238 C1614 2.466 . S
C2233 C751 2.402 . S
C2248 C1646 2.254 . S
C2243 C781 1.831 . S
C2253 C841 2.100 . S
C2258 C1600 2.447 . S
C2268 C1644 1.882 . S
C2263 C931 1.797 . S
C2278 C1632 2.417 . S
C2273 C991 2.349 . S
C2283 C1051 2.093 . S
C2288 C1628 2.211 . S
C2293 C1081 2.105 . S
C2298 C1638 2.505 . S
C2308 C1622 1.843 . S
C2303 C1141 1.463 . S
C2318 C1687 2.026 . S
C2313 C901 1.752 . S
C2323 C721 1.885 . S
C2328 C1748 2.272 . S
C2338 C1682 1.902 . S
C2333 C811 1.770 . S
C2348 C1732 2.284 . S
C2343 C871 2.172 . S
C2358 C1678 1.825 . S
C2353 C1021 1.413 . S
C2363 C1111 2.080 . S
C2368 C1750 2.197 . S
C2378 C1693 1.957 . S
C2373 C1171 2.009 . S
C2388 C1726 2.130 . S
C2383 C961 1.786 . S
C2398 C1718 2.228 . S
C2393 C1231 2.209 . S
C2403 C1291 2.203 . S
C2408 C1742 2.231 . S
C2418 C1684 1.891 . S
C2413 C1201 1.729 . S
C2423 C1321 2.011 . S
C2428 C1704 2.292 . S
C2438 C1666 1.924 . S
C2433 C1411 2.058 . S
C2448 C1736 2.165 . S
C2443 C1381 1.860 . S
C2458 C1652 1.929 . S
C2453 C1261 1.791 . S
C2463 C1351 2.044 . S
C2468 C1690 1.902 . S
