# Generated by pormake.
# Topology pyr, (3,6)-cn, num edge types: 1
# Building blocks:
#     Node 0, Type 0, BuildingBlock: VETTIZ_charged_linker_0, # of connection points: 3
#     Node 1, Type 0, BuildingBlock: VETTIZ_charged_linker_0, # of connection points: 3
#     Node 2, Type 0, BuildingBlock: VETTIZ_charged_linker_0, # of connection points: 3
#     Node 3, Type 0, BuildingBlock: VETTIZ_charged_linker_0, # of connection points: 3
#     Node 4, Type 0, BuildingBlock: VETTIZ_charged_linker_0, # of connection points: 3
#     Node 5, Type 0, BuildingBlock: VETTIZ_charged_linker_0, # of connection points: 3
#     Node 6, Type 0, BuildingBlock: VETTIZ_charged_linker_0, # of connection points: 3
#     Node 7, Type 0, BuildingBlock: VETTIZ_charged_linker_0, # of connection points: 3
#     Node 8, Type 1, BuildingBlock: GEDQOX_clean_sbu_0, # of connection points: 6
#     Node 9, Type 1, BuildingBlock: GEDQOX_clean_sbu_0, # of connection points: 6
#     Node 10, Type 1, BuildingBlock: GEDQOX_clean_sbu_0, # of connection points: 6
#     Node 11, Type 1, BuildingBlock: GEDQOX_clean_sbu_0, # of connection points: 6
#     Edge 12, Type (0, 1), None
#     Edge 13, Type (0, 1), None
#     Edge 14, Type (0, 1), None
#     Edge 15, Type (0, 1), None
#     Edge 16, Type (0, 1), None
#     Edge 17, Type (0, 1), None
#     Edge 18, Type (0, 1), None
#     Edge 19, Type (0, 1), None
#     Edge 20, Type (0, 1), None
#     Edge 21, Type (0, 1), None
#     Edge 22, Type (0, 1), None
#     Edge 23, Type (0, 1), None
#     Edge 24, Type (0, 1), None
#     Edge 25, Type (0, 1), None
#     Edge 26, Type (0, 1), None
#     Edge 27, Type (0, 1), None
#     Edge 28, Type (0, 1), None
#     Edge 29, Type (0, 1), None
#     Edge 30, Type (0, 1), None
#     Edge 31, Type (0, 1), None
#     Edge 32, Type (0, 1), None
#     Edge 33, Type (0, 1), None
#     Edge 34, Type (0, 1), None
#     Edge 35, Type (0, 1), None
# Relax obj value: 0.215
# Max RMSD: 0.189
# Mean RMSD: 0.081
data_MOF--net-pyr--node1-GEDQOX_clean_sbu_0--node2-VETTIZ_charged_linker_0--edge1-none
_symmetry_space_group_name_H-M    P1
_symmetry_Int_Tables_number       1
_symmetry_cell_setting            triclinic
loop_
_symmetry_equiv_pos_as_xyz
'x, y, z'
_cell_length_a     27.234694
_cell_length_b     26.932813
_cell_length_c     23.537086
_cell_angle_alpha  89.825344
_cell_angle_beta   92.896156
_cell_angle_gamma 84.177684
loop_
_atom_site_label
_atom_site_type_symbol
_atom_site_fract_x
_atom_site_fract_y
_atom_site_fract_z
_atom_type_partial_charge
C0 C 0.16168 0.09053 0.35401 0.0
C1 C 0.11797 0.10948 0.3831 0.0
C2 C 0.09539 0.15614 0.36152 0.0
C3 C 0.15626 0.16342 0.28739 0.0
C4 C 0.18016 0.11817 0.30706 0.0
C5 C 0.22676 0.10566 0.27267 0.0
H6 H 0.3855 0.1636 0.05886 0.0
C7 C 0.18396 0.18378 0.23818 0.0
C8 C 0.22626 0.14955 0.22907 0.0
H9 H 0.40513 1.03656 0.1726 0.0
H10 H 0.32776 0.06413 0.21525 0.0
H11 H 0.34011 0.24805 0.15834 0.0
H12 H 0.25514 0.16534 0.03713 0.0
H13 H 0.2383 0.23082 1.03548 0.0
H14 H 0.2983 0.20649 1.01374 0.0
H15 H 0.34703 0.25346 0.08297 0.0
H16 H 0.29508 0.28591 0.11587 0.0
C17 C 0.27241 0.10376 0.31431 0.0
C18 C 0.22221 0.05576 0.24212 0.0
C19 C 0.11119 0.35311 0.14119 0.0
C20 C 0.12426 0.38414 0.09571 0.0
C21 C 0.16807 0.36494 0.06888 0.0
C22 C 0.19684 0.3189 0.08545 0.0
C23 C 0.18343 0.28891 0.13075 0.0
C24 C 0.14071 0.30666 0.15754 0.0
C25 C 0.13126 0.27052 0.20487 0.0
C26 C 0.17424 0.22849 0.20264 0.0
C27 C 0.20607 0.23877 0.15872 0.0
C28 C 0.13341 0.29891 0.26184 0.0
C29 C 0.08088 0.25053 0.1904 0.0
C30 C 0.37302 0.14073 0.09202 0.0
C31 C 0.40364 0.09557 0.1098 0.0
C32 C 0.38414 0.07007 0.15552 0.0
C33 C 0.33851 0.08668 0.18124 0.0
C34 C 0.30917 0.13122 0.16356 0.0
C35 C 0.32673 0.15748 0.11898 0.0
C36 C 0.29099 0.2049 0.10635 0.0
C37 C 0.24989 0.20324 0.14984 0.0
C38 C 0.2604 0.15906 0.18433 0.0
C39 C 0.31974 0.25078 0.11611 0.0
C40 C 0.26953 0.20207 0.04472 0.0
H41 H 0.09279 0.21696 0.3029 0.0
H42 H 0.18176 0.05561 0.36818 0.0
H43 H 0.18598 0.0568 0.2179 0.0
H44 H 0.25105 0.04772 0.21121 0.0
H45 H 0.22474 1.02438 0.27324 0.0
H46 H 0.27058 0.13768 0.34124 0.0
H47 H 0.27435 0.07059 0.34284 0.0
H48 H 0.30719 0.10274 0.2921 0.0
H49 H 0.07858 0.36474 0.16412 0.0
H50 H 0.18067 0.38603 1.03429 0.0
H51 H 0.22909 0.30818 0.06212 0.0
H52 H 0.16303 0.32452 0.26241 0.0
H53 H 0.0979 0.32176 0.26854 0.0
H54 H 0.14286 0.27387 0.29886 0.0
H55 H 0.0767 0.24255 0.14416 0.0
H56 H 0.07693 0.21485 0.212 0.0
H57 H 0.04974 0.27824 0.20114 0.0
H58 H 0.06256 0.1732 0.38072 0.0
C59 C 0.11338 0.18217 0.31524 0.0
C60 C 0.24576 0.77517 0.72137 0.0
C61 C 0.2173 0.82108 0.72623 0.0
C62 C 0.22535 0.85078 0.77434 0.0
C63 C 0.29971 0.79733 0.80015 0.0
C64 C 0.28752 0.76434 0.75815 0.0
C65 C 0.32794 0.72301 0.75079 0.0
H66 H 0.54872 0.67586 0.69401 0.0
C67 C 0.35176 0.78412 0.81928 0.0
C68 C 0.36782 0.73906 0.79317 0.0
H69 H 0.43765 0.57149 0.69593 0.0
H70 H 0.39601 0.62134 0.76962 0.0
H71 H 0.4917 0.78888 0.71349 0.0
H72 H 0.53417 0.67948 0.84806 0.0
H73 H 0.54546 0.74028 0.86826 0.0
H74 H 0.57977 0.70988 0.81236 0.0
H75 H 0.55476 0.76238 0.72611 0.0
H76 H 0.529 0.81046 0.7713 0.0
C77 C 0.34397 0.72406 0.68846 0.0
C78 C 0.30862 0.67284 0.76649 0.0
C79 C 0.44272 0.91983 0.91442 0.0
C80 C 0.49264 0.92421 0.92853 0.0
C81 C 0.52851 0.88657 0.91088 0.0
C82 C 0.5147 0.8453 0.87927 0.0
C83 C 0.46439 0.84073 0.86664 0.0
C84 C 0.42945 0.87759 0.88467 0.0
C85 C 0.37759 0.86583 0.87041 0.0
C86 C 0.38696 0.81467 0.84336 0.0
C87 C 0.43798 0.80029 0.83991 0.0
C88 C 0.35253 0.90652 0.82815 0.0
C89 C 0.35077 0.86227 0.92652 0.0
C90 C 0.51431 0.66474 0.70843 0.0
C91 C 0.49389 0.62216 0.68524 0.0
C92 C 0.45217 0.60568 0.70978 0.0
C93 C 0.42704 0.63479 0.75025 0.0
C94 C 0.44283 0.6811 0.76416 0.0
C95 C 0.4884 0.69298 0.74998 0.0
C96 C 0.50304 0.73678 0.7857 0.0
C97 C 0.45398 0.75443 0.81253 0.0
C98 C 0.4187 0.7221 0.79575 0.0
C99 C 0.52069 0.77698 0.74712 0.0
C100 C 0.54295 0.71593 0.83095 0.0
H101 H 0.2721 0.86335 0.8466 0.0
H102 H 0.23932 0.75136 0.68536 0.0
H103 H 0.26755 0.67516 0.76387 0.0
H104 H 0.32105 0.6609 0.81058 0.0
H105 H 0.32061 0.64288 0.73648 0.0
H106 H 0.35602 0.76107 0.67784 0.0
H107 H 0.31329 0.71644 0.65795 0.0
H108 H 0.37454 0.69537 0.6802 0.0
H109 H 0.41439 0.9477 0.92826 0.0
H110 H 0.56732 0.88918 0.92158 0.0
H111 H 0.54344 0.81837 0.86598 0.0
H112 H 0.37773 0.93465 0.81689 0.0
H113 H 0.32004 0.92789 0.84628 0.0
H114 H 0.34082 0.89037 0.78695 0.0
H115 H 0.3754 0.84147 0.95962 0.0
H116 H 0.31776 0.84163 0.92143 0.0
H117 H 0.33951 0.89999 0.94333 0.0
H118 H 0.20263 0.88569 0.77985 0.0
C119 C 0.26623 0.83858 0.81199 0.0
C120 C 0.68423 0.33316 0.95212 0.0
C121 C 0.63386 0.32799 0.93813 0.0
C122 C 0.60415 0.36847 0.91208 0.0
C123 C 0.67615 0.41198 0.90126 0.0
C124 C 0.70445 0.37629 0.93402 0.0
C125 C 0.75695 0.38973 0.94329 0.0
H126 H 0.93517 0.52812 0.85542 0.0
C127 C 0.70914 0.4448 0.87604 0.0
C128 C 0.75653 0.43331 0.90131 0.0
H129 H 0.9358 0.44364 1.01205 0.0
H130 H 0.85462 0.41898 0.98457 0.0
H131 H 0.81883 0.57985 0.84707 0.0
H132 H 0.87983 0.43876 0.77792 0.0
H133 H 0.83621 0.47059 0.72957 0.0
H134 H 0.89286 0.49736 0.74857 0.0
H135 H 0.86825 0.57578 0.79877 0.0
H136 H 0.80568 0.57384 0.77247 0.0
C137 C 0.76466 0.40621 1.00604 0.0
C138 C 0.79371 0.34519 0.92709 0.0
C139 C 0.64513 0.52413 0.6897 0.0
C140 C 0.66807 0.53547 0.64018 0.0
C141 C 0.71969 0.53781 0.64297 0.0
C142 C 0.74777 0.52793 0.69494 0.0
C143 C 0.72418 0.51315 0.74343 0.0
C144 C 0.67361 0.51079 0.73926 0.0
C145 C 0.65466 0.48589 0.78934 0.0
C146 C 0.70218 0.47346 0.82517 0.0
C147 C 0.74282 0.49106 0.79971 0.0
C148 C 0.61903 0.52494 0.819 0.0
C149 C 0.63042 0.43852 0.76838 0.0
C150 C 0.91778 0.50436 0.88385 0.0
C151 C 0.94182 0.48816 0.93632 0.0
C152 C 0.91816 0.45677 0.97174 0.0
C153 C 0.87102 0.4428 0.95608 0.0
C154 C 0.84718 0.46019 0.90444 0.0
C155 C 0.87046 0.49022 0.86886 0.0
C156 C 0.83875 0.5044 0.8153 0.0
C157 C 0.79042 0.48404 0.82885 0.0
C158 C 0.79666 0.4563 0.88008 0.0
C159 C 0.83249 0.56163 0.80773 0.0
C160 C 0.86308 0.47674 0.76484 0.0
H161 H 0.60088 0.43979 0.87373 0.0
H162 H 0.70739 0.30365 0.97462 0.0
H163 H 0.78443 0.33236 0.88335 0.0
H164 H 0.83215 0.35518 0.92806 0.0
H165 H 0.79264 0.31336 0.95697 0.0
H166 H 0.73002 0.40816 1.0294 0.0
H167 H 0.7921 0.37978 1.03019 0.0
H168 H 0.77714 0.44416 1.00884 0.0
H169 H 0.60581 0.52034 0.68843 0.0
H170 H 0.73829 0.54599 0.60497 0.0
H171 H 0.78687 0.53037 0.69514 0.0
H172 H 0.63335 0.56221 0.81945 0.0
H173 H 0.58198 0.5291 0.79643 0.0
H174 H 0.61493 0.51562 0.86418 0.0
H175 H 0.63237 0.43241 0.72183 0.0
H176 H 0.64941 0.40363 0.7875 0.0
H177 H 0.59058 0.44096 0.77715 0.0
H178 H 0.56524 0.36629 0.90168 0.0
C179 C 0.62499 0.41067 0.89439 0.0
C180 C 0.93739 0.98825 0.38116 0.0
C181 C 0.93311 1.01222 0.43364 0.0
C182 C 0.88784 1.01523 0.46049 0.0
C183 C 0.85236 0.96866 0.38379 0.0
C184 C 0.89663 0.96642 0.35717 0.0
C185 C 0.89551 0.9364 0.3034 0.0
H186 H 0.79163 0.74956 0.17933 0.0
C187 C 0.81743 0.94242 0.34818 0.0
C188 C 0.84198 0.92408 0.30029 0.0
H189 H 0.9389 0.79265 0.16635 0.0
H190 H 0.91256 0.8745 0.20356 0.0
H191 H 0.77694 0.78773 0.30942 0.0
H192 H 0.72485 0.83068 0.14759 0.0
H193 H 0.70581 0.88886 0.18032 0.0
H194 H 0.68022 0.83214 0.19956 0.0
H195 H 0.74137 0.7601 0.25346 0.0
H196 H 0.71168 0.8033 0.29955 0.0
C197 C 0.93361 0.8894 0.31172 0.0
C198 C 0.9057 0.9702 0.25305 0.0
C199 C 0.6645 0.87902 0.42447 0.0
C200 C 0.62755 0.85374 0.39585 0.0
C201 C 0.61965 0.86021 0.33625 0.0
C202 C 0.65346 0.88327 0.30506 0.0
C203 C 0.69551 0.89782 0.33389 0.0
C204 C 0.69761 0.90235 0.39198 0.0
C205 C 0.74135 0.92949 0.41178 0.0
C206 C 0.76838 0.93153 0.35642 0.0
C207 C 0.7424 0.90882 0.31252 0.0
C208 C 0.77257 0.89787 0.45807 0.0
C209 C 0.72203 0.98224 0.43238 0.0
C210 C 0.81794 0.77698 0.18408 0.0
C211 C 0.86757 0.7643 0.17242 0.0
C212 C 0.90085 0.80103 0.17747 0.0
C213 C 0.88597 0.84787 0.19997 0.0
C214 C 0.83838 0.85684 0.22021 0.0
C215 C 0.80417 0.82315 0.209 0.0
C216 C 0.75599 0.83782 0.23597 0.0
C217 C 0.7684 0.88482 0.26793 0.0
C218 C 0.81757 0.89404 0.26047 0.0
C219 C 0.74593 0.79514 0.27694 0.0
C220 C 0.7145 0.84818 0.18861 0.0
H221 H 0.81355 0.99699 0.45748 0.0
H222 H 0.97204 0.98532 0.36012 0.0
H223 H 0.88351 1.00711 0.25534 0.0
H224 H 0.89531 0.95422 0.21146 0.0
H225 H 0.94537 0.9767 0.25368 0.0
H226 H 0.95368 0.88799 0.35414 0.0
H227 H 0.96258 0.88824 0.28008 0.0
H228 H 0.91558 0.85428 0.30925 0.0
H229 H 0.6695 0.87733 0.47037 0.0
H230 H 0.59044 0.84325 0.313 0.0
H231 H 0.64805 0.8869 0.25961 0.0
H232 H 0.78239 0.85933 0.44262 0.0
H233 H 0.75179 0.89549 0.49723 0.0
H234 H 0.80745 0.91364 0.4702 0.0
H235 H 0.68176 0.99128 0.42228 0.0
H236 H 0.74019 1.01194 0.41131 0.0
H237 H 0.72796 0.98576 0.47919 0.0
H238 H 0.88409 1.03392 0.50098 0.0
C239 C 0.84718 0.99398 0.43543 0.0
C240 C 0.93605 0.72363 0.98166 0.0
C241 C 0.98079 0.69534 0.96369 0.0
C242 C 1.00298 0.71791 0.91812 0.0
C243 C 0.93969 0.79139 0.90997 0.0
C244 C 0.91645 0.77109 0.95443 0.0
C245 C 0.87028 0.80675 0.96776 0.0
H246 H 0.70523 1.02094 0.90266 0.0
C247 C 0.91103 0.84126 0.89008 0.0
C248 C 0.86937 0.85074 0.92435 0.0
H249 H 0.69453 0.91762 0.04056 0.0
H250 H 0.77129 0.87032 1.0139 0.0
H251 H 0.75399 0.93988 0.80241 0.0
H252 H 0.83316 1.02354 0.92814 0.0
H253 H 0.85261 1.0304 0.85814 0.0
H254 H 0.79113 0.05483 0.87502 0.0
H255 H 0.74337 1.00685 0.80587 0.0
H256 H 0.79695 0.97736 0.7734 0.0
C257 C 0.82417 0.77851 0.95886 0.0
C258 C 0.87704 0.82502 1.0292 0.0
C259 C 0.97836 0.93836 0.72151 0.0
C260 C 0.96541 0.9853 0.69255 0.0
C261 C 0.92247 1.0132 0.71276 0.0
C262 C 0.89404 0.99578 0.75748 0.0
C263 C 0.90772 0.94932 0.78583 0.0
C264 C 0.95003 0.92189 0.76753 0.0
C265 C 0.96114 0.87434 0.80335 0.0
C266 C 0.91925 0.87684 0.84555 0.0
C267 C 0.88654 0.92106 0.83543 0.0
C268 C 0.95879 0.82932 0.76304 0.0
C269 C 1.01215 0.87645 0.83482 0.0
C270 C 0.71921 0.98845 0.92793 0.0
C271 C 0.69122 0.97469 0.97518 0.0
C272 C 0.71334 0.93122 1.0051 0.0
C273 C 0.75859 0.90304 0.98901 0.0
C274 C 0.78546 0.91735 0.94213 0.0
C275 C 0.76577 0.96064 0.91331 0.0
C276 C 0.80079 0.97314 0.86716 0.0
C277 C 0.84315 0.92995 0.87041 0.0
C278 C 0.83428 0.89589 0.91491 0.0
C279 C 0.77232 0.97463 0.80886 0.0
C280 C 0.82045 1.02335 0.88249 0.0
H281 H 1.00357 0.7771 0.85785 0.0
H282 H 0.91667 0.70927 1.01617 0.0
H283 H 0.91368 0.83944 1.03623 0.0
H284 H 0.84888 0.85564 0.03934 0.0
H285 H 0.87502 0.79379 0.05949 0.0
H286 H 0.8229 0.76198 0.91564 0.0
H287 H 0.82467 0.74777 0.99058 0.0
H288 H 0.78969 0.80337 0.96253 0.0
H289 H 1.01065 0.91487 0.70921 0.0
H290 H 0.90998 0.04893 0.69303 0.0
H291 H 0.86183 1.01944 0.76857 0.0
H292 H 0.92704 0.83615 0.7314 0.0
H293 H 0.99301 0.82272 0.73923 0.0
H294 H 0.95264 0.79464 0.7855 0.0
H295 H 1.01688 0.91511 0.84905 0.0
H296 H 1.01666 0.8536 0.8741 0.0
H297 H 1.0427 0.86457 0.80674 0.0
H298 H 1.03645 0.69939 0.90177 0.0
C299 C 0.98339 0.76412 0.89198 0.0
C300 C 0.84977 0.31073 0.35089 0.0
C301 C 0.87832 0.26471 0.34783 0.0
C302 C 0.87062 0.23366 0.3008 0.0
C303 C 0.79597 0.28602 0.27324 0.0
C304 C 0.80791 0.32027 0.31397 0.0
C305 C 0.76694 0.36119 0.32056 0.0
H306 H 0.5465 0.40539 0.37942 0.0
C307 C 0.74369 0.29803 0.25435 0.0
C308 C 0.7271 0.3435 0.27927 0.0
H309 H 0.6554 0.51179 0.37357 0.0
H310 H 0.6971 0.46149 0.30023 0.0
H311 H 0.60529 0.29332 0.36236 0.0
H312 H 0.55882 0.39966 0.22593 0.0
H313 H 0.55018 0.33814 0.20614 0.0
H314 H 0.51476 0.36735 0.26193 0.0
H315 H 0.54173 0.31822 0.34978 0.0
H316 H 0.56816 0.26956 0.30579 0.0
C317 C 0.75145 0.36131 0.38316 0.0
C318 C 0.78521 0.41138 0.30293 0.0
C319 C 0.65412 0.15922 0.16346 0.0
C320 C 0.6042 0.15398 0.15026 0.0
C321 C 0.56807 0.19134 0.1679 0.0
C322 C 0.58158 0.23328 0.19844 0.0
C323 C 0.63183 0.23876 0.21005 0.0
C324 C 0.66707 0.20208 0.19226 0.0
C325 C 0.71878 0.21477 0.20573 0.0
C326 C 0.70889 0.26638 0.23162 0.0
C327 C 0.6578 0.28008 0.23538 0.0
C328 C 0.74451 0.1751 0.24877 0.0
C329 C 0.74526 0.21764 0.14932 0.0
C330 C 0.58043 0.41696 0.36415 0.0
C331 C 0.6003 0.46025 0.38618 0.0
C332 C 0.64135 0.47714 0.3606 0.0
C333 C 0.66651 0.44783 0.32029 0.0
C334 C 0.65144 0.40095 0.30764 0.0
C335 C 0.60634 0.38851 0.32281 0.0
C336 C 0.59227 0.34363 0.28863 0.0
C337 C 0.64129 0.32632 0.2616 0.0
C338 C 0.67603 0.35964 0.27689 0.0
C339 C 0.57587 0.30385 0.32875 0.0
C340 C 0.55164 0.36277 0.24334 0.0
H341 H 0.82411 0.21891 0.22908 0.0
H342 H 0.85601 0.33551 0.38605 0.0
H343 H 0.82624 0.40968 0.30468 0.0
H344 H 0.77198 0.42226 0.25876 0.0
H345 H 0.7732 0.44182 0.33234 0.0
H346 H 0.74035 0.32424 0.39521 0.0
H347 H 0.78209 0.37035 0.41297 0.0
H348 H 0.72042 0.38959 0.39096 0.0
H349 H 0.68263 0.13157 0.14957 0.0
H350 H 0.52927 0.1881 0.15781 0.0
H351 H 0.55264 0.26002 0.21168 0.0
H352 H 0.71973 0.1469 0.26104 0.0
H353 H 0.77708 0.1537 0.23084 0.0
H354 H 0.75626 0.19217 0.28942 0.0
H355 H 0.72035 0.23781 0.11602 0.0
H356 H 0.77815 0.23852 0.15372 0.0
H357 H 0.75668 0.1797 0.1332 0.0
H358 H 0.89339 0.19858 0.29673 0.0
C359 C 0.82978 0.24467 0.26274 0.0
C360 C 0.45043 0.55651 0.38104 0.0
C361 C 0.42687 0.54644 0.43056 0.0
C362 C 0.37521 0.54438 0.42718 0.0
C363 C 0.372 0.56667 0.32603 0.0
C364 C 0.42257 0.56886 0.3308 0.0
C365 C 0.44235 0.59222 0.28021 0.0
H366 H 0.39191 0.773 0.09441 0.0
C367 C 0.35413 0.58747 0.26888 0.0
C368 C 0.39528 0.60403 0.24338 0.0
H369 H 0.53346 0.70977 0.16832 0.0
H370 H 0.49753 0.63566 0.19427 0.0
H371 H 0.31411 0.74455 0.18288 0.0
H372 H 0.36979 0.66838 0.03792 0.0
H373 H 0.32304 0.63174 0.05825 0.0
H374 H 0.30744 0.69595 1.03653 0.0
H375 H 0.3067 0.76307 0.10906 0.0
H376 H 0.26675 0.72162 0.13772 0.0
C377 C 0.46672 0.6399 0.29986 0.0
C378 C 0.47815 0.55216 0.25238 0.0
C379 C 0.17966 0.57449 0.18274 0.0
C380 C 0.15643 0.59 0.12958 0.0
C381 C 0.18088 0.62044 0.0939 0.0
C382 C 0.22802 0.63413 0.10997 0.0
C383 C 0.25103 0.61745 0.16229 0.0
C384 C 0.22699 0.58839 0.19815 0.0
C385 C 0.25798 0.57496 0.25247 0.0
C386 C 0.30679 0.59442 0.23907 0.0
C387 C 0.30134 0.62122 0.18721 0.0
C388 C 0.23329 0.60398 0.3018 0.0
C389 C 0.26353 0.51792 0.26164 0.0
C390 C 0.41491 0.7432 0.11661 0.0
C391 C 0.46503 0.74844 0.13185 0.0
C392 C 0.49466 0.70759 0.15724 0.0
C393 C 0.47365 0.66512 0.17387 0.0
C394 C 0.42249 0.66405 0.16657 0.0
C395 C 0.39455 0.69988 0.13367 0.0
C396 C 0.34207 0.68669 0.12374 0.0
C397 C 0.34191 0.64338 0.16595 0.0
C398 C 0.38906 0.63172 0.19179 0.0
C399 C 0.30524 0.73146 0.13914 0.0
C400 C 0.33502 0.66991 0.06101 0.0
H401 H 0.3086 0.55096 0.37397 0.0
H402 H 0.48982 0.55997 0.38263 0.0
H403 H 0.46352 0.51504 0.25281 0.0
H404 H 0.483 0.56034 0.20706 0.0
H405 H 0.51489 0.54824 0.27566 0.0
H406 H 0.46561 0.6465 0.34638 0.0
H407 H 0.50636 0.63749 0.29024 0.0
H408 H 0.44728 0.67452 0.28056 0.0
H409 H 0.16164 0.55145 0.21135 0.0
H410 H 0.16387 0.63301 0.05308 0.0
H411 H 0.24506 0.65716 0.08123 0.0
H412 H 0.21753 0.642 0.28764 0.0
H413 H 0.20271 0.58434 0.31778 0.0
H414 H 0.25973 0.6101 0.3375 0.0
H415 H 0.27753 0.49868 0.22305 0.0
H416 H 0.2898 0.50622 0.2976 0.0
H417 H 0.22743 0.50442 0.27044 0.0
H418 H 0.35612 0.53709 0.46512 0.0
C419 C 0.34774 0.55323 0.37462 0.0
C420 C 0.15782 0.09692 0.69956 0.0
C421 C 0.15925 0.07632 0.64494 0.0
C422 C 0.20314 0.07452 0.61555 0.0
C423 C 0.2429 0.11562 0.69387 0.0
C424 C 0.19997 0.11688 0.72301 0.0
C425 C 0.20449 0.14299 0.77931 0.0
H426 H 0.31122 0.32861 0.89679 0.0
C427 C 0.27999 0.13905 0.7294 0.0
C428 C 0.25825 0.15478 0.78011 0.0
H429 H 0.16908 0.27905 0.92755 0.0
H430 H 0.19562 0.19782 0.88807 0.0
H431 H 0.321 0.29055 0.76805 0.0
H432 H 0.38222 0.25 0.92576 0.0
H433 H 0.39848 0.19036 0.89469 0.0
H434 H 0.42385 0.24582 0.87061 0.0
H435 H 0.3591 0.31846 0.82143 0.0
H436 H 0.38659 0.27563 0.77335 0.0
C437 C 0.16669 0.1905 0.77791 0.0
C438 C 0.19663 0.10584 0.82732 0.0
C439 C 0.42993 0.20387 0.64714 0.0
C440 C 0.46822 0.22794 0.67478 0.0
C441 C 0.47855 0.21946 0.73379 0.0
C442 C 0.44599 0.19547 0.76588 0.0
C443 C 0.40271 0.18213 0.73868 0.0
C444 C 0.39798 0.17981 0.6805 0.0
C445 C 0.35295 0.15423 0.66186 0.0
C446 C 0.32858 0.15004 0.71873 0.0
C447 C 0.35683 0.17063 0.76221 0.0
C448 C 0.3203 0.18845 0.61909 0.0
C449 C 0.37034 0.10235 0.63732 0.0
C450 C 0.28596 0.30011 0.89572 0.0
C451 C 0.23718 0.31119 0.91185 0.0
C452 C 0.20598 0.27241 0.91219 0.0
C453 C 0.22069 0.226 0.88827 0.0
C454 C 0.26612 0.21921 0.86255 0.0
C455 C 0.29963 0.25404 0.87056 0.0
C456 C 0.34633 0.24042 0.84025 0.0
C457 C 0.33322 0.19316 0.80925 0.0
C458 C 0.28486 0.18302 0.82 0.0
C459 C 0.35363 0.28341 0.79839 0.0
C460 C 0.39006 0.23083 0.88494 0.0
H461 H 0.27771 0.09125 0.61606 0.0
H462 H 0.12435 0.09859 0.72278 0.0
H463 H 0.21843 0.06927 0.82073 0.0
H464 H 0.20904 0.11908 0.86958 0.0
H465 H 0.15704 0.09934 0.82837 0.0
H466 H 0.14126 0.19273 0.73932 0.0
H467 H 0.14237 0.19148 0.81439 0.0
H468 H 0.18537 0.22526 0.77747 0.0
H469 H 0.42299 0.2071 0.60153 0.0
H470 H 0.50883 0.23542 0.75618 0.0
H471 H 0.45338 0.18997 0.81091 0.0
H472 H 0.31244 0.22641 0.63706 0.0
H473 H 0.33908 0.192 0.57869 0.0
H474 H 0.28437 0.1743 0.6084 0.0
H475 H 0.4107 0.09207 0.6454 0.0
H476 H 0.3522 0.07209 0.65729 0.0
H477 H 0.36283 0.10131 0.59052 0.0
H478 H 0.20485 0.05821 0.57357 0.0
C479 C 0.24521 0.09351 0.64009 0.0
Nd480 Nd 0.07197 0.99909 0.53578 0.0
Nd481 Nd 1.01908 0.0908 0.54324 0.0
C482 C 0.11986 0.91073 0.52362 0.0
C483 C 0.14868 0.88414 0.57103 0.0
C484 C 0.13737 0.83709 0.58924 0.0
C485 C 0.15843 0.81651 0.64071 0.0
C486 C 0.19018 0.84331 0.67496 0.0
C487 C 0.20187 0.88989 0.65607 0.0
C488 C 0.1816 0.90995 0.60478 0.0
C489 C 0.11559 0.05665 0.6178 0.0
C490 C 0.99472 1.00503 0.64181 0.0
C491 C 0.97144 0.17927 0.5547 0.0
C492 C 0.94328 0.20539 0.50646 0.0
C493 C 0.95627 0.25124 0.48637 0.0
C494 C 0.9364 0.27057 0.43381 0.0
C495 C 0.90423 0.24363 0.40034 0.0
C496 C 0.89069 0.19842 0.42116 0.0
C497 C 0.9097 0.17968 0.47354 0.0
C498 C 0.9757 1.03302 0.46159 0.0
C499 C 0.09495 0.08574 0.43649 0.0
O500 O 0.07224 0.91667 0.52942 0.0
O501 O 0.13678 0.95149 0.50616 0.0
O502 O 0.10852 1.01045 0.62462 0.0
O503 O 0.0991 0.07118 0.56914 0.0
O504 O 1.0224 0.97412 0.60958 0.0
O505 O 0.99196 0.05356 0.62807 0.0
O506 O 1.01917 0.17319 0.54979 0.0
O507 O 0.95424 0.13871 0.57236 0.0
O508 O 0.98235 0.07929 0.45455 0.0
O509 O 0.99203 1.01867 0.51031 0.0
O510 O 0.06767 0.11566 0.46996 0.0
O511 O 0.09851 1.03689 0.44948 0.0
H512 H 0.11136 0.81697 0.56446 0.0
H513 H 0.14966 0.78004 0.65401 0.0
H514 H 0.22761 0.91062 0.68051 0.0
H515 H 0.19081 0.94657 0.59259 0.0
H516 H 0.98277 0.27125 0.51049 0.0
H517 H 0.94645 0.30611 0.41904 0.0
H518 H 0.86452 0.17776 0.39729 0.0
H519 H 0.89914 0.14397 0.48714 0.0
Nd520 Nd 0.54958 1.0133 0.0816 0.0
Nd521 Nd 0.5461 0.06487 0.99774 0.0
C522 C 0.55191 0.93513 0.15088 0.0
C523 C 0.52915 0.88765 0.1443 0.0
C524 C 0.5565 0.84497 0.1238 0.0
C525 C 0.53476 0.8005 0.11606 0.0
C526 C 0.48532 0.7975 0.12924 0.0
C527 C 0.45765 0.84051 0.14844 0.0
C528 C 0.47932 0.88503 0.156 0.0
C529 C 0.4585 0.07829 0.09092 0.0
C530 C 0.50727 0.96546 0.96523 0.0
C531 C 0.54208 0.14365 0.92911 0.0
C532 C 0.56659 0.19027 0.93357 0.0
C533 C 0.54062 0.23414 0.95305 0.0
C534 C 0.56355 0.27811 0.95841 0.0
C535 C 0.61282 0.2795 0.94362 0.0
C536 C 0.63925 0.23528 0.92567 0.0
C537 C 0.6164 0.19115 0.92064 0.0
C538 C 0.63757 1.00097 0.98833 0.0
C539 C 0.58968 0.11258 0.11374 0.0
O540 O 0.58722 0.94203 0.11745 0.0
O541 O 0.52202 0.97545 0.15588 0.0
O542 O 0.49449 0.06962 0.12909 0.0
O543 O 0.4735 0.05475 0.04557 0.0
O544 O 0.53404 0.95533 1.01217 0.0
O545 O 0.49708 1.01232 0.95081 0.0
O546 O 0.50917 0.13776 0.96602 0.0
O547 O 0.56998 0.10245 0.92103 0.0
O548 O 0.60296 1.01114 0.94887 0.0
O549 O 0.62192 1.02278 1.03432 0.0
O550 O 0.56378 0.1228 0.06623 0.0
O551 O 0.59838 0.0658 0.12917 0.0
H552 H 0.59486 0.84581 0.11403 0.0
H553 H 0.55704 0.76808 0.10096 0.0
H554 H 0.41983 0.83923 0.16012 0.0
H555 H 0.45707 0.91723 0.17169 0.0
H556 H 0.50235 0.23463 0.96378 0.0
H557 H 0.54223 0.31143 0.97279 0.0
H558 H 0.67693 0.23525 0.91298 0.0
H559 H 0.63764 0.15796 0.90582 0.0
Nd560 Nd 0.54787 0.49574 0.56226 0.0
Nd561 Nd 0.5465 0.58693 0.50912 0.0
C562 C 0.53614 0.41452 0.62184 0.0
C563 C 0.52222 0.363 0.62179 0.0
C564 C 0.47478 0.3521 0.60301 0.0
C565 C 0.45889 0.30563 0.61518 0.0
C566 C 0.49008 0.26935 0.64653 0.0
C567 C 0.53906 0.27881 0.66041 0.0
C568 C 0.55487 0.3253 0.64836 0.0
C569 C 0.63738 0.53568 0.5864 0.0
C570 C 0.51391 0.5956 0.63488 0.0
C571 C 0.55816 0.66817 0.44951 0.0
C572 C 0.57206 0.71969 0.44927 0.0
C573 C 0.61892 0.73097 0.46973 0.0
C574 C 0.63511 0.77731 0.45744 0.0
C575 C 0.6048 0.813 0.42424 0.0
C576 C 0.55624 0.80322 0.4086 0.0
C577 C 0.54013 0.75691 0.42084 0.0
C578 C 0.4572 0.54664 0.48462 0.0
C579 C 0.58048 0.48692 0.43656 0.0
O580 O 0.57781 0.42253 0.60019 0.0
O581 O 0.5014 0.45134 0.61288 0.0
O582 O 0.63296 0.49237 0.56424 0.0
O583 O 0.59478 0.55899 0.58585 0.0
O584 O 0.50421 0.54943 0.62372 0.0
O585 O 0.53953 0.61848 0.59901 0.0
O586 O 0.51655 0.66021 0.47131 0.0
O587 O 0.59293 0.63137 0.45847 0.0
O588 O 0.46134 0.59005 0.50666 0.0
O589 O 0.49989 0.52356 0.48543 0.0
O590 O 0.59012 0.53316 0.44756 0.0
O591 O 0.55484 0.46412 0.47246 0.0
H592 H 0.44889 0.38043 0.58219 0.0
H593 H 0.42077 0.2999 0.6043 0.0
H594 H 0.56416 0.2515 0.68399 0.0
H595 H 0.5917 0.33284 0.66312 0.0
H596 H 0.64423 0.703 0.49201 0.0
H597 H 0.67291 0.78333 0.46968 0.0
H598 H 0.53186 0.83007 0.38349 0.0
H599 H 0.50374 0.74905 0.40478 0.0
Nd600 Nd 1.0186 0.53983 0.07764 0.0
Nd601 Nd 0.07994 0.53841 0.98705 0.0
C602 C 0.94215 0.55887 0.14038 0.0
C603 C 0.91895 0.6093 0.1537 0.0
C604 C 0.87676 0.63025 0.12179 0.0
C605 C 0.86024 0.68088 0.12688 0.0
C606 C 0.88578 0.71142 0.16375 0.0
C607 C 0.92695 0.69017 0.1968 0.0
C608 C 0.94322 0.63973 0.19206 0.0
C609 C 0.10795 0.57282 0.11088 0.0
C610 C 1.00562 0.64317 0.98859 0.0
C611 C 0.1567 0.51742 0.92556 0.0
C612 C 0.18 0.46621 0.91647 0.0
C613 C 0.22677 0.45051 0.94205 0.0
C614 C 0.24504 0.39998 0.94237 0.0
C615 C 0.21678 0.36415 0.91722 0.0
C616 C 0.17041 0.38018 0.8909 0.0
C617 C 0.15225 0.43041 0.89057 0.0
C618 C 0.99037 0.50548 0.95455 0.0
C619 C 0.09508 0.43586 0.07567 0.0
O620 O 0.93753 0.54565 0.08713 0.0
O621 O 0.98686 0.54705 0.16238 0.0
O622 O 0.08514 0.54283 0.14071 0.0
O623 O 0.08314 0.58585 0.06523 0.0
O624 O 0.9865 0.61765 1.02963 0.0
O625 O 1.04724 0.62193 0.96774 0.0
O626 O 0.16102 0.53344 0.97776 0.0
O627 O 0.1121 0.52819 0.90266 0.0
O628 O 1.01277 0.53586 0.9247 0.0
O629 O 1.01563 0.49225 0.99983 0.0
O630 O 0.11256 0.46236 1.03468 0.0
O631 O 0.0534 0.45575 0.09787 0.0
H632 H 0.85749 0.60789 0.09156 0.0
H633 H 0.82807 0.69635 0.10135 0.0
H634 H 0.94641 0.71253 0.22687 0.0
H635 H 0.97581 0.62506 0.21738 0.0
H636 H 0.24852 0.47712 0.96334 0.0
H637 H 0.28095 0.38891 0.96297 0.0
H638 H 0.14826 0.35399 0.8695 0.0
H639 H 0.11578 0.44083 0.87105 0.0
loop_
_geom_bond_atom_site_label_1
_geom_bond_atom_site_label_2
_geom_bond_distance
_geom_bond_site_symmetry_2
_ccdc_geom_bond_type
C0 C1 1.391 . S
C0 C4 1.391 . S
C0 H42 0.948 . S
C1 C0 1.391 . S
C1 C2 1.391 . S
C2 C1 1.391 . S
C2 H58 0.947 . S
C2 C59 1.392 . S
C3 C4 1.391 . S
C3 C7 1.397 . S
C3 C59 1.419 . S
C4 C0 1.391 . S
C4 C3 1.391 . S
C4 C5 1.399 . S
C5 C4 1.399 . S
C5 C8 1.396 . S
C5 C17 1.453 . S
C5 C18 1.684 . S
H6 C30 0.948 . S
C7 C3 1.397 . S
C7 C8 1.394 . S
C7 C26 1.723 . S
C8 C5 1.396 . S
C8 C7 1.394 . S
C8 C38 1.723 . S
H9 C32 0.947 . S
H10 C33 0.948 . S
H11 C39 0.982 . S
H12 C40 0.979 . S
H13 C40 0.980 . S
H14 C40 0.983 . S
H15 C39 0.979 . S
H16 C39 0.977 . S
C17 C5 1.453 . S
C17 H46 0.982 . S
C17 H47 0.979 . S
C17 H48 0.977 . S
C18 C5 1.684 . S
C18 H43 0.979 . S
C18 H44 0.980 . S
C18 H45 0.983 . S
C19 C20 1.391 . S
C19 C24 1.391 . S
C19 H49 0.948 . S
C20 C19 1.391 . S
C20 C21 1.391 . S
C21 C20 1.391 . S
C21 C22 1.392 . S
C21 H50 0.947 1_554 S
C22 C21 1.392 . S
C22 C23 1.419 . S
C22 H51 0.948 . S
C23 C22 1.419 . S
C23 C24 1.391 . S
C23 C27 1.397 . S
C24 C19 1.391 . S
C24 C23 1.391 . S
C24 C25 1.399 . S
C25 C24 1.399 . S
C25 C26 1.396 . S
C25 C28 1.453 . S
C25 C29 1.684 . S
C26 C7 1.723 . S
C26 C25 1.396 . S
C26 C27 1.394 . S
C27 C23 1.397 . S
C27 C26 1.394 . S
C27 C37 1.723 . S
C28 C25 1.453 . S
C28 H52 0.982 . S
C28 H53 0.979 . S
C28 H54 0.977 . S
C29 C25 1.684 . S
C29 H55 0.979 . S
C29 H56 0.980 . S
C29 H57 0.983 . S
C30 H6 0.948 . S
C30 C31 1.391 . S
C30 C35 1.391 . S
C31 C30 1.391 . S
C31 C32 1.391 . S
C32 H9 0.947 . S
C32 C31 1.391 . S
C32 C33 1.392 . S
C33 H10 0.948 . S
C33 C32 1.392 . S
C33 C34 1.419 . S
C34 C33 1.419 . S
C34 C35 1.391 . S
C34 C38 1.397 . S
C35 C30 1.391 . S
C35 C34 1.391 . S
C35 C36 1.399 . S
C36 C35 1.399 . S
C36 C37 1.396 . S
C36 C39 1.453 . S
C36 C40 1.684 1_554 S
C37 C27 1.723 . S
C37 C36 1.396 . S
C37 C38 1.394 . S
C38 C8 1.723 . S
C38 C34 1.397 . S
C38 C37 1.394 . S
C39 H11 0.982 . S
C39 H15 0.979 . S
C39 H16 0.977 . S
C39 C36 1.453 . S
C40 H12 0.979 . S
C40 H13 0.980 . S
C40 H14 0.983 . S
C40 C36 1.684 1_556 S
H41 C59 0.948 . S
H42 C0 0.948 . S
H43 C18 0.979 . S
H44 C18 0.980 . S
H45 C18 0.983 . S
H46 C17 0.982 . S
H47 C17 0.979 . S
H48 C17 0.977 . S
H49 C19 0.948 . S
H50 C21 0.947 1_556 S
H51 C22 0.948 . S
H52 C28 0.982 . S
H53 C28 0.979 . S
H54 C28 0.977 . S
H55 C29 0.979 . S
H56 C29 0.980 . S
H57 C29 0.983 . S
H58 C2 0.947 . S
C59 C2 1.392 . S
C59 C3 1.419 . S
C59 H41 0.948 . S
C60 C61 1.391 . S
C60 C64 1.391 . S
C60 H102 0.948 . S
C61 C60 1.391 . S
C61 C62 1.391 . S
C62 C61 1.391 . S
C62 H118 0.947 . S
C62 C119 1.392 . S
C63 C64 1.391 . S
C63 C67 1.397 . S
C63 C119 1.419 . S
C64 C60 1.391 . S
C64 C63 1.391 . S
C64 C65 1.399 . S
C65 C64 1.399 . S
C65 C68 1.396 . S
C65 C77 1.453 . S
C65 C78 1.684 . S
H66 C90 0.948 . S
C67 C63 1.397 . S
C67 C68 1.394 . S
C67 C86 1.723 . S
C68 C65 1.396 . S
C68 C67 1.394 . S
C68 C98 1.723 . S
H69 C92 0.947 . S
H70 C93 0.948 . S
H71 C99 0.982 . S
H72 C100 0.979 . S
H73 C100 0.980 . S
H74 C100 0.983 . S
H75 C99 0.979 . S
H76 C99 0.977 . S
C77 C65 1.453 . S
C77 H106 0.982 . S
C77 H107 0.979 . S
C77 H108 0.977 . S
C78 C65 1.684 . S
C78 H103 0.979 . S
C78 H104 0.980 . S
C78 H105 0.983 . S
C79 C80 1.391 . S
C79 C84 1.391 . S
C79 H109 0.948 . S
C80 C79 1.391 . S
C80 C81 1.391 . S
C81 C80 1.391 . S
C81 C82 1.392 . S
C81 H110 0.947 . S
C82 C81 1.392 . S
C82 C83 1.419 . S
C82 H111 0.948 . S
C83 C82 1.419 . S
C83 C84 1.391 . S
C83 C87 1.397 . S
C84 C79 1.391 . S
C84 C83 1.391 . S
C84 C85 1.399 . S
C85 C84 1.399 . S
C85 C86 1.396 . S
C85 C88 1.453 . S
C85 C89 1.684 . S
C86 C67 1.723 . S
C86 C85 1.396 . S
C86 C87 1.394 . S
C87 C83 1.397 . S
C87 C86 1.394 . S
C87 C97 1.723 . S
C88 C85 1.453 . S
C88 H112 0.982 . S
C88 H113 0.979 . S
C88 H114 0.977 . S
C89 C85 1.684 . S
C89 H115 0.979 . S
C89 H116 0.980 . S
C89 H117 0.983 . S
C90 H66 0.948 . S
C90 C91 1.391 . S
C90 C95 1.391 . S
C91 C90 1.391 . S
C91 C92 1.391 . S
C92 H69 0.947 . S
C92 C91 1.391 . S
C92 C93 1.392 . S
C93 H70 0.948 . S
C93 C92 1.392 . S
C93 C94 1.419 . S
C94 C93 1.419 . S
C94 C95 1.391 . S
C94 C98 1.397 . S
C95 C90 1.391 . S
C95 C94 1.391 . S
C95 C96 1.399 . S
C96 C95 1.399 . S
C96 C97 1.396 . S
C96 C99 1.453 . S
C96 C100 1.684 . S
C97 C87 1.723 . S
C97 C96 1.396 . S
C97 C98 1.394 . S
C98 C68 1.723 . S
C98 C94 1.397 . S
C98 C97 1.394 . S
C99 H71 0.982 . S
C99 H75 0.979 . S
C99 H76 0.977 . S
C99 C96 1.453 . S
C100 H72 0.979 . S
C100 H73 0.980 . S
C100 H74 0.983 . S
C100 C96 1.684 . S
H101 C119 0.948 . S
H102 C60 0.948 . S
H103 C78 0.979 . S
H104 C78 0.980 . S
H105 C78 0.983 . S
H106 C77 0.982 . S
H107 C77 0.979 . S
H108 C77 0.977 . S
H109 C79 0.948 . S
H110 C81 0.947 . S
H111 C82 0.948 . S
H112 C88 0.982 . S
H113 C88 0.979 . S
H114 C88 0.977 . S
H115 C89 0.979 . S
H116 C89 0.980 . S
H117 C89 0.983 . S
H118 C62 0.947 . S
C119 C62 1.392 . S
C119 C63 1.419 . S
C119 H101 0.948 . S
C120 C121 1.391 . S
C120 C124 1.391 . S
C120 H162 0.948 . S
C121 C120 1.391 . S
C121 C122 1.391 . S
C122 C121 1.391 . S
C122 H178 0.947 . S
C122 C179 1.392 . S
C123 C124 1.391 . S
C123 C127 1.397 . S
C123 C179 1.419 . S
C124 C120 1.391 . S
C124 C123 1.391 . S
C124 C125 1.399 . S
C125 C124 1.399 . S
C125 C128 1.396 . S
C125 C137 1.453 . S
C125 C138 1.684 . S
H126 C150 0.948 . S
C127 C123 1.397 . S
C127 C128 1.394 . S
C127 C146 1.723 . S
C128 C125 1.396 . S
C128 C127 1.394 . S
C128 C158 1.723 . S
H129 C152 0.947 . S
H130 C153 0.948 . S
H131 C159 0.982 . S
H132 C160 0.979 . S
H133 C160 0.980 . S
H134 C160 0.983 . S
H135 C159 0.979 . S
H136 C159 0.977 . S
C137 C125 1.453 . S
C137 H166 0.982 . S
C137 H167 0.979 . S
C137 H168 0.977 . S
C138 C125 1.684 . S
C138 H163 0.979 . S
C138 H164 0.980 . S
C138 H165 0.983 . S
C139 C140 1.391 . S
C139 C144 1.391 . S
C139 H169 0.948 . S
C140 C139 1.391 . S
C140 C141 1.391 . S
C141 C140 1.391 . S
C141 C142 1.392 . S
C141 H170 0.947 . S
C142 C141 1.392 . S
C142 C143 1.419 . S
C142 H171 0.948 . S
C143 C142 1.419 . S
C143 C144 1.391 . S
C143 C147 1.397 . S
C144 C139 1.391 . S
C144 C143 1.391 . S
C144 C145 1.399 . S
C145 C144 1.399 . S
C145 C146 1.396 . S
C145 C148 1.453 . S
C145 C149 1.684 . S
C146 C127 1.723 . S
C146 C145 1.396 . S
C146 C147 1.394 . S
C147 C143 1.397 . S
C147 C146 1.394 . S
C147 C157 1.723 . S
C148 C145 1.453 . S
C148 H172 0.982 . S
C148 H173 0.979 . S
C148 H174 0.977 . S
C149 C145 1.684 . S
C149 H175 0.979 . S
C149 H176 0.980 . S
C149 H177 0.983 . S
C150 H126 0.948 . S
C150 C151 1.391 . S
C150 C155 1.391 . S
C151 C150 1.391 . S
C151 C152 1.391 . S
C152 H129 0.947 . S
C152 C151 1.391 . S
C152 C153 1.392 . S
C153 H130 0.948 . S
C153 C152 1.392 . S
C153 C154 1.419 . S
C154 C153 1.419 . S
C154 C155 1.391 . S
C154 C158 1.397 . S
C155 C150 1.391 . S
C155 C154 1.391 . S
C155 C156 1.399 . S
C156 C155 1.399 . S
C156 C157 1.396 . S
C156 C159 1.453 . S
C156 C160 1.684 . S
C157 C147 1.723 . S
C157 C156 1.396 . S
C157 C158 1.394 . S
C158 C128 1.723 . S
C158 C154 1.397 . S
C158 C157 1.394 . S
C159 H131 0.982 . S
C159 H135 0.979 . S
C159 H136 0.977 . S
C159 C156 1.453 . S
C160 H132 0.979 . S
C160 H133 0.980 . S
C160 H134 0.983 . S
C160 C156 1.684 . S
H161 C179 0.948 . S
H162 C120 0.948 . S
H163 C138 0.979 . S
H164 C138 0.980 . S
H165 C138 0.983 . S
H166 C137 0.982 . S
H167 C137 0.979 . S
H168 C137 0.977 . S
H169 C139 0.948 . S
H170 C141 0.947 . S
H171 C142 0.948 . S
H172 C148 0.982 . S
H173 C148 0.979 . S
H174 C148 0.977 . S
H175 C149 0.979 . S
H176 C149 0.980 . S
H177 C149 0.983 . S
H178 C122 0.947 . S
C179 C122 1.392 . S
C179 C123 1.419 . S
C179 H161 0.948 . S
C180 C181 1.391 . S
C180 C184 1.391 . S
C180 H222 0.948 . S
C181 C180 1.391 . S
C181 C182 1.391 . S
C182 C181 1.391 . S
C182 H238 0.947 . S
C182 C239 1.392 . S
C183 C184 1.391 . S
C183 C187 1.397 . S
C183 C239 1.419 . S
C184 C180 1.391 . S
C184 C183 1.391 . S
C184 C185 1.399 . S
C185 C184 1.399 . S
C185 C188 1.396 . S
C185 C197 1.453 . S
C185 C198 1.684 . S
H186 C210 0.948 . S
C187 C183 1.397 . S
C187 C188 1.394 . S
C187 C206 1.723 . S
C188 C185 1.396 . S
C188 C187 1.394 . S
C188 C218 1.723 . S
H189 C212 0.947 . S
H190 C213 0.948 . S
H191 C219 0.982 . S
H192 C220 0.979 . S
H193 C220 0.980 . S
H194 C220 0.983 . S
H195 C219 0.979 . S
H196 C219 0.977 . S
C197 C185 1.453 . S
C197 H226 0.982 . S
C197 H227 0.979 . S
C197 H228 0.977 . S
C198 C185 1.684 . S
C198 H223 0.979 . S
C198 H224 0.980 . S
C198 H225 0.983 . S
C199 C200 1.391 . S
C199 C204 1.391 . S
C199 H229 0.948 . S
C200 C199 1.391 . S
C200 C201 1.391 . S
C201 C200 1.391 . S
C201 C202 1.392 . S
C201 H230 0.947 . S
C202 C201 1.392 . S
C202 C203 1.419 . S
C202 H231 0.948 . S
C203 C202 1.419 . S
C203 C204 1.391 . S
C203 C207 1.397 . S
C204 C199 1.391 . S
C204 C203 1.391 . S
C204 C205 1.399 . S
C205 C204 1.399 . S
C205 C206 1.396 . S
C205 C208 1.453 . S
C205 C209 1.684 . S
C206 C187 1.723 . S
C206 C205 1.396 . S
C206 C207 1.394 . S
C207 C203 1.397 . S
C207 C206 1.394 . S
C207 C217 1.723 . S
C208 C205 1.453 . S
C208 H232 0.982 . S
C208 H233 0.979 . S
C208 H234 0.977 . S
C209 C205 1.684 . S
C209 H235 0.979 . S
C209 H236 0.980 . S
C209 H237 0.983 . S
C210 H186 0.948 . S
C210 C211 1.391 . S
C210 C215 1.391 . S
C211 C210 1.391 . S
C211 C212 1.391 . S
C212 H189 0.947 . S
C212 C211 1.391 . S
C212 C213 1.392 . S
C213 H190 0.948 . S
C213 C212 1.392 . S
C213 C214 1.419 . S
C214 C213 1.419 . S
C214 C215 1.391 . S
C214 C218 1.397 . S
C215 C210 1.391 . S
C215 C214 1.391 . S
C215 C216 1.399 . S
C216 C215 1.399 . S
C216 C217 1.396 . S
C216 C219 1.453 . S
C216 C220 1.684 . S
C217 C207 1.723 . S
C217 C216 1.396 . S
C217 C218 1.394 . S
C218 C188 1.723 . S
C218 C214 1.397 . S
C218 C217 1.394 . S
C219 H191 0.982 . S
C219 H195 0.979 . S
C219 H196 0.977 . S
C219 C216 1.453 . S
C220 H192 0.979 . S
C220 H193 0.980 . S
C220 H194 0.983 . S
C220 C216 1.684 . S
H221 C239 0.948 . S
H222 C180 0.948 . S
H223 C198 0.979 . S
H224 C198 0.980 . S
H225 C198 0.983 . S
H226 C197 0.982 . S
H227 C197 0.979 . S
H228 C197 0.977 . S
H229 C199 0.948 . S
H230 C201 0.947 . S
H231 C202 0.948 . S
H232 C208 0.982 . S
H233 C208 0.979 . S
H234 C208 0.977 . S
H235 C209 0.979 . S
H236 C209 0.980 . S
H237 C209 0.983 . S
H238 C182 0.947 . S
C239 C182 1.392 . S
C239 C183 1.419 . S
C239 H221 0.948 . S
C240 C241 1.391 . S
C240 C244 1.391 . S
C240 H282 0.948 . S
C241 C240 1.391 . S
C241 C242 1.391 . S
C242 C241 1.391 . S
C242 H298 0.947 . S
C242 C299 1.392 . S
C243 C244 1.391 . S
C243 C247 1.397 . S
C243 C299 1.419 . S
C244 C240 1.391 . S
C244 C243 1.391 . S
C244 C245 1.399 . S
C245 C244 1.399 . S
C245 C248 1.396 . S
C245 C257 1.453 . S
C245 C258 1.684 1_556 S
H246 C270 0.948 . S
C247 C243 1.397 . S
C247 C248 1.394 . S
C247 C266 1.723 . S
C248 C245 1.396 . S
C248 C247 1.394 . S
C248 C278 1.723 . S
H249 C272 0.947 1_554 S
H250 C273 0.948 . S
H251 C279 0.982 . S
H252 C280 0.979 . S
H253 C280 0.980 . S
H254 C280 0.983 . S
H255 C279 0.979 . S
H256 C279 0.977 . S
C257 C245 1.453 . S
C257 H286 0.982 . S
C257 H287 0.979 . S
C257 H288 0.977 . S
C258 C245 1.684 1_554 S
C258 H283 0.979 . S
C258 H284 0.980 . S
C258 H285 0.983 . S
C259 C260 1.391 . S
C259 C264 1.391 . S
C259 H289 0.948 . S
C260 C259 1.391 . S
C260 C261 1.391 . S
C261 C260 1.391 . S
C261 C262 1.392 . S
C261 H290 0.947 . S
C262 C261 1.392 . S
C262 C263 1.419 . S
C262 H291 0.948 . S
C263 C262 1.419 . S
C263 C264 1.391 . S
C263 C267 1.397 . S
C264 C259 1.391 . S
C264 C263 1.391 . S
C264 C265 1.399 . S
C265 C264 1.399 . S
C265 C266 1.396 . S
C265 C268 1.453 . S
C265 C269 1.684 . S
C266 C247 1.723 . S
C266 C265 1.396 . S
C266 C267 1.394 . S
C267 C263 1.397 . S
C267 C266 1.394 . S
C267 C277 1.723 . S
C268 C265 1.453 . S
C268 H292 0.982 . S
C268 H293 0.979 . S
C268 H294 0.977 . S
C269 C265 1.684 . S
C269 H295 0.979 . S
C269 H296 0.980 . S
C269 H297 0.983 . S
C270 H246 0.948 . S
C270 C271 1.391 . S
C270 C275 1.391 . S
C271 C270 1.391 . S
C271 C272 1.391 . S
C272 H249 0.947 1_556 S
C272 C271 1.391 . S
C272 C273 1.392 . S
C273 H250 0.948 . S
C273 C272 1.392 . S
C273 C274 1.419 . S
C274 C273 1.419 . S
C274 C275 1.391 . S
C274 C278 1.397 . S
C275 C270 1.391 . S
C275 C274 1.391 . S
C275 C276 1.399 . S
C276 C275 1.399 . S
C276 C277 1.396 . S
C276 C279 1.453 . S
C276 C280 1.684 . S
C277 C267 1.723 . S
C277 C276 1.396 . S
C277 C278 1.394 . S
C278 C248 1.723 . S
C278 C274 1.397 . S
C278 C277 1.394 . S
C279 H251 0.982 . S
C279 H255 0.979 . S
C279 H256 0.977 . S
C279 C276 1.453 . S
C280 H252 0.979 . S
C280 H253 0.980 . S
C280 H254 0.983 . S
C280 C276 1.684 . S
H281 C299 0.948 . S
H282 C240 0.948 . S
H283 C258 0.979 . S
H284 C258 0.980 . S
H285 C258 0.983 . S
H286 C257 0.982 . S
H287 C257 0.979 . S
H288 C257 0.977 . S
H289 C259 0.948 . S
H290 C261 0.947 . S
H291 C262 0.948 . S
H292 C268 0.982 . S
H293 C268 0.979 . S
H294 C268 0.977 . S
H295 C269 0.979 . S
H296 C269 0.980 . S
H297 C269 0.983 . S
H298 C242 0.947 . S
C299 C242 1.392 . S
C299 C243 1.419 . S
C299 H281 0.948 . S
C300 C301 1.391 . S
C300 C304 1.391 . S
C300 H342 0.948 . S
C301 C300 1.391 . S
C301 C302 1.391 . S
C302 C301 1.391 . S
C302 H358 0.947 . S
C302 C359 1.392 . S
C303 C304 1.391 . S
C303 C307 1.397 . S
C303 C359 1.419 . S
C304 C300 1.391 . S
C304 C303 1.391 . S
C304 C305 1.399 . S
C305 C304 1.399 . S
C305 C308 1.396 . S
C305 C317 1.453 . S
C305 C318 1.684 . S
H306 C330 0.948 . S
C307 C303 1.397 . S
C307 C308 1.394 . S
C307 C326 1.723 . S
C308 C305 1.396 . S
C308 C307 1.394 . S
C308 C338 1.723 . S
H309 C332 0.947 . S
H310 C333 0.948 . S
H311 C339 0.982 . S
H312 C340 0.979 . S
H313 C340 0.980 . S
H314 C340 0.983 . S
H315 C339 0.979 . S
H316 C339 0.977 . S
C317 C305 1.453 . S
C317 H346 0.982 . S
C317 H347 0.979 . S
C317 H348 0.977 . S
C318 C305 1.684 . S
C318 H343 0.979 . S
C318 H344 0.980 . S
C318 H345 0.983 . S
C319 C320 1.391 . S
C319 C324 1.391 . S
C319 H349 0.948 . S
C320 C319 1.391 . S
C320 C321 1.391 . S
C321 C320 1.391 . S
C321 C322 1.392 . S
C321 H350 0.947 . S
C322 C321 1.392 . S
C322 C323 1.419 . S
C322 H351 0.948 . S
C323 C322 1.419 . S
C323 C324 1.391 . S
C323 C327 1.397 . S
C324 C319 1.391 . S
C324 C323 1.391 . S
C324 C325 1.399 . S
C325 C324 1.399 . S
C325 C326 1.396 . S
C325 C328 1.453 . S
C325 C329 1.684 . S
C326 C307 1.723 . S
C326 C325 1.396 . S
C326 C327 1.394 . S
C327 C323 1.397 . S
C327 C326 1.394 . S
C327 C337 1.723 . S
C328 C325 1.453 . S
C328 H352 0.982 . S
C328 H353 0.979 . S
C328 H354 0.977 . S
C329 C325 1.684 . S
C329 H355 0.979 . S
C329 H356 0.980 . S
C329 H357 0.983 . S
C330 H306 0.948 . S
C330 C331 1.391 . S
C330 C335 1.391 . S
C331 C330 1.391 . S
C331 C332 1.391 . S
C332 H309 0.947 . S
C332 C331 1.391 . S
C332 C333 1.392 . S
C333 H310 0.948 . S
C333 C332 1.392 . S
C333 C334 1.419 . S
C334 C333 1.419 . S
C334 C335 1.391 . S
C334 C338 1.397 . S
C335 C330 1.391 . S
C335 C334 1.391 . S
C335 C336 1.399 . S
C336 C335 1.399 . S
C336 C337 1.396 . S
C336 C339 1.453 . S
C336 C340 1.684 . S
C337 C327 1.723 . S
C337 C336 1.396 . S
C337 C338 1.394 . S
C338 C308 1.723 . S
C338 C334 1.397 . S
C338 C337 1.394 . S
C339 H311 0.982 . S
C339 H315 0.979 . S
C339 H316 0.977 . S
C339 C336 1.453 . S
C340 H312 0.979 . S
C340 H313 0.980 . S
C340 H314 0.983 . S
C340 C336 1.684 . S
H341 C359 0.948 . S
H342 C300 0.948 . S
H343 C318 0.979 . S
H344 C318 0.980 . S
H345 C318 0.983 . S
H346 C317 0.982 . S
H347 C317 0.979 . S
H348 C317 0.977 . S
H349 C319 0.948 . S
H350 C321 0.947 . S
H351 C322 0.948 . S
H352 C328 0.982 . S
H353 C328 0.979 . S
H354 C328 0.977 . S
H355 C329 0.979 . S
H356 C329 0.980 . S
H357 C329 0.983 . S
H358 C302 0.947 . S
C359 C302 1.392 . S
C359 C303 1.419 . S
C359 H341 0.948 . S
C360 C361 1.391 . S
C360 C364 1.391 . S
C360 H402 0.948 . S
C361 C360 1.391 . S
C361 C362 1.391 . S
C362 C361 1.391 . S
C362 H418 0.947 . S
C362 C419 1.392 . S
C363 C364 1.391 . S
C363 C367 1.397 . S
C363 C419 1.419 . S
C364 C360 1.391 . S
C364 C363 1.391 . S
C364 C365 1.399 . S
C365 C364 1.399 . S
C365 C368 1.396 . S
C365 C377 1.453 . S
C365 C378 1.684 . S
H366 C390 0.948 . S
C367 C363 1.397 . S
C367 C368 1.394 . S
C367 C386 1.723 . S
C368 C365 1.396 . S
C368 C367 1.394 . S
C368 C398 1.723 . S
H369 C392 0.947 . S
H370 C393 0.948 . S
H371 C399 0.982 . S
H372 C400 0.979 . S
H373 C400 0.980 . S
H374 C400 0.983 . S
H375 C399 0.979 . S
H376 C399 0.977 . S
C377 C365 1.453 . S
C377 H406 0.982 . S
C377 H407 0.979 . S
C377 H408 0.977 . S
C378 C365 1.684 . S
C378 H403 0.979 . S
C378 H404 0.980 . S
C378 H405 0.983 . S
C379 C380 1.391 . S
C379 C384 1.391 . S
C379 H409 0.948 . S
C380 C379 1.391 . S
C380 C381 1.391 . S
C381 C380 1.391 . S
C381 C382 1.392 . S
C381 H410 0.947 . S
C382 C381 1.392 . S
C382 C383 1.419 . S
C382 H411 0.948 . S
C383 C382 1.419 . S
C383 C384 1.391 . S
C383 C387 1.397 . S
C384 C379 1.391 . S
C384 C383 1.391 . S
C384 C385 1.399 . S
C385 C384 1.399 . S
C385 C386 1.396 . S
C385 C388 1.453 . S
C385 C389 1.684 . S
C386 C367 1.723 . S
C386 C385 1.396 . S
C386 C387 1.394 . S
C387 C383 1.397 . S
C387 C386 1.394 . S
C387 C397 1.723 . S
C388 C385 1.453 . S
C388 H412 0.982 . S
C388 H413 0.979 . S
C388 H414 0.977 . S
C389 C385 1.684 . S
C389 H415 0.979 . S
C389 H416 0.980 . S
C389 H417 0.983 . S
C390 H366 0.948 . S
C390 C391 1.391 . S
C390 C395 1.391 . S
C391 C390 1.391 . S
C391 C392 1.391 . S
C392 H369 0.947 . S
C392 C391 1.391 . S
C392 C393 1.392 . S
C393 H370 0.948 . S
C393 C392 1.392 . S
C393 C394 1.419 . S
C394 C393 1.419 . S
C394 C395 1.391 . S
C394 C398 1.397 . S
C395 C390 1.391 . S
C395 C394 1.391 . S
C395 C396 1.399 . S
C396 C395 1.399 . S
C396 C397 1.396 . S
C396 C399 1.453 . S
C396 C400 1.684 . S
C397 C387 1.723 . S
C397 C396 1.396 . S
C397 C398 1.394 . S
C398 C368 1.723 . S
C398 C394 1.397 . S
C398 C397 1.394 . S
C399 H371 0.982 . S
C399 H375 0.979 . S
C399 H376 0.977 . S
C399 C396 1.453 . S
C400 H372 0.979 . S
C400 H373 0.980 . S
C400 H374 0.983 . S
C400 C396 1.684 . S
H401 C419 0.948 . S
H402 C360 0.948 . S
H403 C378 0.979 . S
H404 C378 0.980 . S
H405 C378 0.983 . S
H406 C377 0.982 . S
H407 C377 0.979 . S
H408 C377 0.977 . S
H409 C379 0.948 . S
H410 C381 0.947 . S
H411 C382 0.948 . S
H412 C388 0.982 . S
H413 C388 0.979 . S
H414 C388 0.977 . S
H415 C389 0.979 . S
H416 C389 0.980 . S
H417 C389 0.983 . S
H418 C362 0.947 . S
C419 C362 1.392 . S
C419 C363 1.419 . S
C419 H401 0.948 . S
C420 C421 1.391 . S
C420 C424 1.391 . S
C420 H462 0.948 . S
C421 C420 1.391 . S
C421 C422 1.391 . S
C422 C421 1.391 . S
C422 H478 0.947 . S
C422 C479 1.392 . S
C423 C424 1.391 . S
C423 C427 1.397 . S
C423 C479 1.419 . S
C424 C420 1.391 . S
C424 C423 1.391 . S
C424 C425 1.399 . S
C425 C424 1.399 . S
C425 C428 1.396 . S
C425 C437 1.453 . S
C425 C438 1.684 . S
H426 C450 0.948 . S
C427 C423 1.397 . S
C427 C428 1.394 . S
C427 C446 1.723 . S
C428 C425 1.396 . S
C428 C427 1.394 . S
C428 C458 1.723 . S
H429 C452 0.947 . S
H430 C453 0.948 . S
H431 C459 0.982 . S
H432 C460 0.979 . S
H433 C460 0.980 . S
H434 C460 0.983 . S
H435 C459 0.979 . S
H436 C459 0.977 . S
C437 C425 1.453 . S
C437 H466 0.982 . S
C437 H467 0.979 . S
C437 H468 0.977 . S
C438 C425 1.684 . S
C438 H463 0.979 . S
C438 H464 0.980 . S
C438 H465 0.983 . S
C439 C440 1.391 . S
C439 C444 1.391 . S
C439 H469 0.948 . S
C440 C439 1.391 . S
C440 C441 1.391 . S
C441 C440 1.391 . S
C441 C442 1.392 . S
C441 H470 0.947 . S
C442 C441 1.392 . S
C442 C443 1.419 . S
C442 H471 0.948 . S
C443 C442 1.419 . S
C443 C444 1.391 . S
C443 C447 1.397 . S
C444 C439 1.391 . S
C444 C443 1.391 . S
C444 C445 1.399 . S
C445 C444 1.399 . S
C445 C446 1.396 . S
C445 C448 1.453 . S
C445 C449 1.684 . S
C446 C427 1.723 . S
C446 C445 1.396 . S
C446 C447 1.394 . S
C447 C443 1.397 . S
C447 C446 1.394 . S
C447 C457 1.723 . S
C448 C445 1.453 . S
C448 H472 0.982 . S
C448 H473 0.979 . S
C448 H474 0.977 . S
C449 C445 1.684 . S
C449 H475 0.979 . S
C449 H476 0.980 . S
C449 H477 0.983 . S
C450 H426 0.948 . S
C450 C451 1.391 . S
C450 C455 1.391 . S
C451 C450 1.391 . S
C451 C452 1.391 . S
C452 H429 0.947 . S
C452 C451 1.391 . S
C452 C453 1.392 . S
C453 H430 0.948 . S
C453 C452 1.392 . S
C453 C454 1.419 . S
C454 C453 1.419 . S
C454 C455 1.391 . S
C454 C458 1.397 . S
C455 C450 1.391 . S
C455 C454 1.391 . S
C455 C456 1.399 . S
C456 C455 1.399 . S
C456 C457 1.396 . S
C456 C459 1.453 . S
C456 C460 1.684 . S
C457 C447 1.723 . S
C457 C456 1.396 . S
C457 C458 1.394 . S
C458 C428 1.723 . S
C458 C454 1.397 . S
C458 C457 1.394 . S
C459 H431 0.982 . S
C459 H435 0.979 . S
C459 H436 0.977 . S
C459 C456 1.453 . S
C460 H432 0.979 . S
C460 H433 0.980 . S
C460 H434 0.983 . S
C460 C456 1.684 . S
H461 C479 0.948 . S
H462 C420 0.948 . S
H463 C438 0.979 . S
H464 C438 0.980 . S
H465 C438 0.983 . S
H466 C437 0.982 . S
H467 C437 0.979 . S
H468 C437 0.977 . S
H469 C439 0.948 . S
H470 C441 0.947 . S
H471 C442 0.948 . S
H472 C448 0.982 . S
H473 C448 0.979 . S
H474 C448 0.977 . S
H475 C449 0.979 . S
H476 C449 0.980 . S
H477 C449 0.983 . S
H478 C422 0.947 . S
C479 C422 1.392 . S
C479 C423 1.419 . S
C479 H461 0.948 . S
Nd480 C482 2.836 . S
Nd480 O500 2.500 . S
Nd480 O501 2.492 . S
Nd480 O502 2.487 1_565 S
Nd480 O503 2.682 1_565 S
Nd480 O504 2.410 . S
Nd480 O509 2.414 1_455 S
Nd480 O511 2.424 1_565 S
Nd481 C491 2.836 . S
Nd481 O503 2.414 1_655 S
Nd481 O505 2.424 1_545 S
Nd481 O506 2.500 . S
Nd481 O507 2.492 . S
Nd481 O508 2.487 1_545 S
Nd481 O509 2.682 1_545 S
Nd481 O510 2.410 . S
C482 Nd480 2.836 . S
C482 C483 1.498 . S
C482 O500 1.258 . S
C482 O501 1.239 . S
C483 C482 1.498 . S
C483 C484 1.366 . S
C483 C488 1.407 . S
C484 C483 1.366 . S
C484 C485 1.392 . S
C484 H512 0.930 . S
C485 C484 1.392 . S
C485 C486 1.398 . S
C485 H513 0.929 . S
C486 C485 1.398 . S
C486 C487 1.352 . S
C487 C486 1.352 . S
C487 C488 1.384 . S
C487 H514 0.930 . S
C488 C483 1.407 . S
C488 C487 1.384 . S
C488 H515 0.929 . S
C489 O502 1.241 . S
C489 O503 1.273 . S
C490 O504 1.251 1_655 S
C490 O505 1.268 . S
C491 Nd481 2.836 . S
C491 C492 1.498 . S
C491 O506 1.258 . S
C491 O507 1.239 . S
C492 C491 1.498 . S
C492 C493 1.366 . S
C492 C497 1.407 . S
C493 C492 1.366 . S
C493 C494 1.392 . S
C493 H516 0.930 . S
C494 C493 1.392 . S
C494 C495 1.398 . S
C494 H517 0.929 . S
C495 C494 1.398 . S
C495 C496 1.352 . S
C496 C495 1.352 . S
C496 C497 1.384 . S
C496 H518 0.930 . S
C497 C492 1.407 . S
C497 C496 1.384 . S
C497 H519 0.929 . S
C498 O508 1.241 . S
C498 O509 1.273 . S
C499 O510 1.251 1_455 S
C499 O511 1.268 . S
O500 Nd480 2.500 . S
O500 C482 1.258 . S
O501 Nd480 2.492 . S
O501 C482 1.239 . S
O502 Nd480 2.487 1_545 S
O502 C489 1.241 . S
O503 Nd480 2.682 1_545 S
O503 Nd481 2.414 1_455 S
O503 C489 1.273 . S
O504 Nd480 2.410 . S
O504 C490 1.251 1_455 S
O505 Nd481 2.424 1_565 S
O505 C490 1.268 . S
O506 Nd481 2.500 . S
O506 C491 1.258 . S
O507 Nd481 2.492 . S
O507 C491 1.239 . S
O508 Nd481 2.487 1_565 S
O508 C498 1.241 . S
O509 Nd480 2.414 1_655 S
O509 Nd481 2.682 1_565 S
O509 C498 1.273 . S
O510 Nd481 2.410 . S
O510 C499 1.251 1_655 S
O511 Nd480 2.424 1_545 S
O511 C499 1.268 . S
H512 C484 0.930 . S
H513 C485 0.929 . S
H514 C487 0.930 . S
H515 C488 0.929 . S
H516 C493 0.930 . S
H517 C494 0.929 . S
H518 C496 0.930 . S
H519 C497 0.929 . S
Nd520 C522 2.836 . S
Nd520 O540 2.500 . S
Nd520 O541 2.492 . S
Nd520 O542 2.487 1_565 S
Nd520 O543 2.682 1_565 S
Nd520 O544 2.410 1_554 S
Nd520 O549 2.414 1_554 S
Nd520 O551 2.424 1_565 S
Nd521 C531 2.836 . S
Nd521 O543 2.414 1_556 S
Nd521 O545 2.424 1_545 S
Nd521 O546 2.500 . S
Nd521 O547 2.492 . S
Nd521 O548 2.487 1_545 S
Nd521 O549 2.682 1_545 S
Nd521 O550 2.410 1_556 S
C522 Nd520 2.836 . S
C522 C523 1.498 . S
C522 O540 1.258 . S
C522 O541 1.239 . S
C523 C522 1.498 . S
C523 C524 1.366 . S
C523 C528 1.407 . S
C524 C523 1.366 . S
C524 C525 1.392 . S
C524 H552 0.930 . S
C525 C524 1.392 . S
C525 C526 1.398 . S
C525 H553 0.929 . S
C526 C525 1.398 . S
C526 C527 1.352 . S
C527 C526 1.352 . S
C527 C528 1.384 . S
C527 H554 0.930 . S
C528 C523 1.407 . S
C528 C527 1.384 . S
C528 H555 0.929 . S
C529 O542 1.241 . S
C529 O543 1.273 . S
C530 O544 1.251 . S
C530 O545 1.268 . S
C531 Nd521 2.836 . S
C531 C532 1.498 . S
C531 O546 1.258 . S
C531 O547 1.239 . S
C532 C531 1.498 . S
C532 C533 1.366 . S
C532 C537 1.407 . S
C533 C532 1.366 . S
C533 C534 1.392 . S
C533 H556 0.930 . S
C534 C533 1.392 . S
C534 C535 1.398 . S
C534 H557 0.929 . S
C535 C534 1.398 . S
C535 C536 1.352 . S
C536 C535 1.352 . S
C536 C537 1.384 . S
C536 H558 0.930 . S
C537 C532 1.407 . S
C537 C536 1.384 . S
C537 H559 0.929 . S
C538 O548 1.241 . S
C538 O549 1.273 . S
C539 O550 1.251 . S
C539 O551 1.268 . S
O540 Nd520 2.500 . S
O540 C522 1.258 . S
O541 Nd520 2.492 . S
O541 C522 1.239 . S
O542 Nd520 2.487 1_545 S
O542 C529 1.241 . S
O543 Nd520 2.682 1_545 S
O543 Nd521 2.414 1_554 S
O543 C529 1.273 . S
O544 Nd520 2.410 1_556 S
O544 C530 1.251 . S
O545 Nd521 2.424 1_565 S
O545 C530 1.268 . S
O546 Nd521 2.500 . S
O546 C531 1.258 . S
O547 Nd521 2.492 . S
O547 C531 1.239 . S
O548 Nd521 2.487 1_565 S
O548 C538 1.241 . S
O549 Nd520 2.414 1_556 S
O549 Nd521 2.682 1_565 S
O549 C538 1.273 . S
O550 Nd521 2.410 1_554 S
O550 C539 1.251 . S
O551 Nd520 2.424 1_545 S
O551 C539 1.268 . S
H552 C524 0.930 . S
H553 C525 0.929 . S
H554 C527 0.930 . S
H555 C528 0.929 . S
H556 C533 0.930 . S
H557 C534 0.929 . S
H558 C536 0.930 . S
H559 C537 0.929 . S
Nd560 C562 2.836 . S
Nd560 O580 2.500 . S
Nd560 O581 2.492 . S
Nd560 O582 2.487 . S
Nd560 O583 2.682 . S
Nd560 O584 2.410 . S
Nd560 O589 2.414 . S
Nd560 O591 2.424 . S
Nd561 C571 2.836 . S
Nd561 O583 2.414 . S
Nd561 O585 2.424 . S
Nd561 O586 2.500 . S
Nd561 O587 2.492 . S
Nd561 O588 2.487 . S
Nd561 O589 2.682 . S
Nd561 O590 2.410 . S
C562 Nd560 2.836 . S
C562 C563 1.498 . S
C562 O580 1.258 . S
C562 O581 1.239 . S
C563 C562 1.498 . S
C563 C564 1.366 . S
C563 C568 1.407 . S
C564 C563 1.366 . S
C564 C565 1.392 . S
C564 H592 0.930 . S
C565 C564 1.392 . S
C565 C566 1.398 . S
C565 H593 0.929 . S
C566 C565 1.398 . S
C566 C567 1.352 . S
C567 C566 1.352 . S
C567 C568 1.384 . S
C567 H594 0.930 . S
C568 C563 1.407 . S
C568 C567 1.384 . S
C568 H595 0.929 . S
C569 O582 1.241 . S
C569 O583 1.273 . S
C570 O584 1.251 . S
C570 O585 1.268 . S
C571 Nd561 2.836 . S
C571 C572 1.498 . S
C571 O586 1.258 . S
C571 O587 1.239 . S
C572 C571 1.498 . S
C572 C573 1.366 . S
C572 C577 1.407 . S
C573 C572 1.366 . S
C573 C574 1.392 . S
C573 H596 0.930 . S
C574 C573 1.392 . S
C574 C575 1.398 . S
C574 H597 0.929 . S
C575 C574 1.398 . S
C575 C576 1.352 . S
C576 C575 1.352 . S
C576 C577 1.384 . S
C576 H598 0.930 . S
C577 C572 1.407 . S
C577 C576 1.384 . S
C577 H599 0.929 . S
C578 O588 1.241 . S
C578 O589 1.273 . S
C579 O590 1.251 . S
C579 O591 1.268 . S
O580 Nd560 2.500 . S
O580 C562 1.258 . S
O581 Nd560 2.492 . S
O581 C562 1.239 . S
O582 Nd560 2.487 . S
O582 C569 1.241 . S
O583 Nd560 2.682 . S
O583 Nd561 2.414 . S
O583 C569 1.273 . S
O584 Nd560 2.410 . S
O584 C570 1.251 . S
O585 Nd561 2.424 . S
O585 C570 1.268 . S
O586 Nd561 2.500 . S
O586 C571 1.258 . S
O587 Nd561 2.492 . S
O587 C571 1.239 . S
O588 Nd561 2.487 . S
O588 C578 1.241 . S
O589 Nd560 2.414 . S
O589 Nd561 2.682 . S
O589 C578 1.273 . S
O590 Nd561 2.410 . S
O590 C579 1.251 . S
O591 Nd560 2.424 . S
O591 C579 1.268 . S
H592 C564 0.930 . S
H593 C565 0.929 . S
H594 C567 0.930 . S
H595 C568 0.929 . S
H596 C573 0.930 . S
H597 C574 0.929 . S
H598 C576 0.930 . S
H599 C577 0.929 . S
Nd600 C602 2.836 . S
Nd600 O620 2.500 . S
Nd600 O621 2.492 . S
Nd600 O622 2.487 1_655 S
Nd600 O623 2.682 1_655 S
Nd600 O624 2.410 . S
Nd600 O629 2.414 1_554 S
Nd600 O631 2.424 1_655 S
Nd601 C611 2.836 . S
Nd601 O623 2.414 1_556 S
Nd601 O625 2.424 1_455 S
Nd601 O626 2.500 . S
Nd601 O627 2.492 . S
Nd601 O628 2.487 1_455 S
Nd601 O629 2.682 1_455 S
Nd601 O630 2.410 . S
C602 Nd600 2.836 . S
C602 C603 1.498 . S
C602 O620 1.258 . S
C602 O621 1.239 . S
C603 C602 1.498 . S
C603 C604 1.366 . S
C603 C608 1.407 . S
C604 C603 1.366 . S
C604 C605 1.392 . S
C604 H632 0.930 . S
C605 C604 1.392 . S
C605 C606 1.398 . S
C605 H633 0.929 . S
C606 C605 1.398 . S
C606 C607 1.352 . S
C607 C606 1.352 . S
C607 C608 1.384 . S
C607 H634 0.930 . S
C608 C603 1.407 . S
C608 C607 1.384 . S
C608 H635 0.929 . S
C609 O622 1.241 . S
C609 O623 1.273 . S
C610 O624 1.251 1_556 S
C610 O625 1.268 . S
C611 Nd601 2.836 . S
C611 C612 1.498 . S
C611 O626 1.258 . S
C611 O627 1.239 . S
C612 C611 1.498 . S
C612 C613 1.366 . S
C612 C617 1.407 . S
C613 C612 1.366 . S
C613 C614 1.392 . S
C613 H636 0.930 . S
C614 C613 1.392 . S
C614 C615 1.398 . S
C614 H637 0.929 . S
C615 C614 1.398 . S
C615 C616 1.352 . S
C616 C615 1.352 . S
C616 C617 1.384 . S
C616 H638 0.930 . S
C617 C612 1.407 . S
C617 C616 1.384 . S
C617 H639 0.929 . S
C618 O628 1.241 . S
C618 O629 1.273 . S
C619 O630 1.251 1_554 S
C619 O631 1.268 . S
O620 Nd600 2.500 . S
O620 C602 1.258 . S
O621 Nd600 2.492 . S
O621 C602 1.239 . S
O622 Nd600 2.487 1_455 S
O622 C609 1.241 . S
O623 Nd600 2.682 1_455 S
O623 Nd601 2.414 1_554 S
O623 C609 1.273 . S
O624 Nd600 2.410 . S
O624 C610 1.251 1_554 S
O625 Nd601 2.424 1_655 S
O625 C610 1.268 . S
O626 Nd601 2.500 . S
O626 C611 1.258 . S
O627 Nd601 2.492 . S
O627 C611 1.239 . S
O628 Nd601 2.487 1_655 S
O628 C618 1.241 . S
O629 Nd600 2.414 1_556 S
O629 Nd601 2.682 1_655 S
O629 C618 1.273 . S
O630 Nd601 2.410 . S
O630 C619 1.251 1_556 S
O631 Nd600 2.424 1_455 S
O631 C619 1.268 . S
H632 C604 0.930 . S
H633 C605 0.929 . S
H634 C607 0.930 . S
H635 C608 0.929 . S
H636 C613 0.930 . S
H637 C614 0.929 . S
H638 C616 0.930 . S
H639 C617 0.929 . S
C1 C499 4.116 . S
C80 C530 4.642 . S
C569 C140 2.398 . S
C211 C606 1.679 . S
C529 C31 4.022 . S
C486 C61 1.215 . S
C618 C151 2.032 . S
C575 C200 2.787 . S
C20 C619 3.224 . S
C535 C121 1.391 . S
C181 C498 1.681 . S
C91 C570 3.885 . S
C490 C260 4.162 . S
C320 C539 4.642 . S
C361 C578 2.536 . S
C451 C615 1.679 . S
C271 C538 4.073 . S
C495 C301 1.215 . S
C609 C380 2.174 . S
C566 C440 2.787 . S
C241 C610 3.110 . S
C526 C391 1.377 . S
C489 C421 1.681 . S
C331 C579 3.885 . S
