# Generated by pormake.
# Topology ftw, (4,12)-cn, num edge types: 1
# Building blocks:
#     Node 0, Type 0, BuildingBlock: MUDLON_clean_linker_0, # of connection points: 4
#     Node 1, Type 0, BuildingBlock: MUDLON_clean_linker_0, # of connection points: 4
#     Node 2, Type 0, BuildingBlock: MUDLON_clean_linker_0, # of connection points: 4
#     Node 3, Type 1, BuildingBlock: EZIPEK_clean_sbu_0, # of connection points: 12
#     Edge 4, Type (0, 1), BuildingBlock: KIFKEQ_clean_linker_1, # of connection points: 2
#     Edge 5, Type (0, 1), BuildingBlock: KIFKEQ_clean_linker_1, # of connection points: 2
#     Edge 6, Type (0, 1), BuildingBlock: KIFKEQ_clean_linker_1, # of connection points: 2
#     Edge 7, Type (0, 1), BuildingBlock: KIFKEQ_clean_linker_1, # of connection points: 2
#     Edge 8, Type (0, 1), BuildingBlock: KIFKEQ_clean_linker_1, # of connection points: 2
#     Edge 9, Type (0, 1), BuildingBlock: KIFKEQ_clean_linker_1, # of connection points: 2
#     Edge 10, Type (0, 1), BuildingBlock: KIFKEQ_clean_linker_1, # of connection points: 2
#     Edge 11, Type (0, 1), BuildingBlock: KIFKEQ_clean_linker_1, # of connection points: 2
#     Edge 12, Type (0, 1), BuildingBlock: KIFKEQ_clean_linker_1, # of connection points: 2
#     Edge 13, Type (0, 1), BuildingBlock: KIFKEQ_clean_linker_1, # of connection points: 2
#     Edge 14, Type (0, 1), BuildingBlock: KIFKEQ_clean_linker_1, # of connection points: 2
#     Edge 15, Type (0, 1), BuildingBlock: KIFKEQ_clean_linker_1, # of connection points: 2
# Relax obj value: 0.080
# Max RMSD: 0.225
# Mean RMSD: 0.171
data_MOF--net-ftw--node1-EZIPEK_clean_sbu_0--node2-MUDLON_clean_linker_0--edge1-KIFKEQ_clean_linker_1
_symmetry_space_group_name_H-M    P1
_symmetry_Int_Tables_number       1
_symmetry_cell_setting            triclinic
loop_
_symmetry_equiv_pos_as_xyz
'x, y, z'
_cell_length_a     29.961247
_cell_length_b     32.529055
_cell_length_c     30.391715
_cell_angle_alpha  89.851592
_cell_angle_beta   90.152327
_cell_angle_gamma 89.795192
loop_
_atom_site_label
_atom_site_type_symbol
_atom_site_fract_x
_atom_site_fract_y
_atom_site_fract_z
_atom_type_partial_charge
H0 H 0.96222 0.71008 0.57111 0.0
N1 N 0.04107 0.68474 0.5354 0.0
H2 H 0.95211 0.74442 0.64207 0.0
H3 H 0.10414 0.70568 0.59276 0.0
H4 H 0.09487 0.74114 0.66308 0.0
H5 H 0.10217 0.72493 0.48912 0.0
H6 H 0.09199 0.76154 0.4193 0.0
H7 H 0.96269 0.69399 0.49072 0.0
H8 H 0.95191 0.73029 0.42041 0.0
H9 H 0.97002 0.63605 0.55608 0.0
H10 H 0.10606 0.63406 0.51107 0.0
H11 H 0.96887 0.56079 0.55684 0.0
H12 H 0.1048 0.55906 0.50918 0.0
H13 H 0.96507 0.36278 0.57759 0.0
H14 H 0.95679 0.32641 0.6481 0.0
H15 H 0.09901 0.30385 0.65101 0.0
H16 H 0.10665 0.34039 0.58088 0.0
H17 H 0.1063 0.35324 0.47761 0.0
H18 H 0.09747 0.3175 0.40735 0.0
H19 H 0.95438 0.3175 0.42552 0.0
H20 H 0.96404 0.35198 0.49643 0.0
H21 H 0.97006 0.42446 0.51614 0.0
H22 H 0.96799 0.49973 0.51509 0.0
H23 H 0.10657 0.50206 0.55537 0.0
N24 N 0.04263 0.37611 0.53342 0.0
H25 H 0.10856 0.42706 0.55377 0.0
C26 C 0.03403 0.70535 0.57676 0.0
C27 C 0.99122 0.7166 0.59116 0.0
C28 C 0.98558 0.73646 0.63172 0.0
C29 C 0.02266 0.74562 0.65865 0.0
C30 C 0.06541 0.73405 0.64388 0.0
C31 C 0.07091 0.71411 0.60349 0.0
C32 C 0.03325 0.70706 0.4951 0.0
C33 C 0.06929 0.72619 0.47427 0.0
C34 C 0.06342 0.74675 0.43417 0.0
C35 C 0.02116 0.7487 0.41391 0.0
C36 C 0.98484 0.72971 0.43518 0.0
C37 C 0.99087 0.70894 0.47535 0.0
C38 C 0.03849 0.64055 0.53419 0.0
C39 C -0.00042 0.61935 0.54613 0.0
C40 C -0.0011 0.57621 0.54612 0.0
C41 C 0.03694 0.55344 0.53356 0.0
C42 C 0.07524 0.57517 0.52028 0.0
C43 C 0.07601 0.61811 0.5209 0.0
C44 C 0.03649 0.35391 0.574 0.0
C45 C -0.00572 0.34971 0.5934 0.0
C46 C 0.98968 0.32893 0.63369 0.0
C47 C 0.02729 0.3123 0.65549 0.0
C48 C 0.06942 0.31675 0.63569 0.0
C49 C 0.07387 0.33727 0.59543 0.0
C50 C 0.03597 0.35517 0.49219 0.0
C51 C 0.0731 0.34542 0.46629 0.0
C52 C 0.06787 0.32535 0.42592 0.0
C53 C 0.02514 0.31464 0.41035 0.0
C54 C 0.98784 0.32475 0.43648 0.0
C55 C -0.00679 0.34472 0.47702 0.0
C56 C 0.03977 0.42029 0.53438 0.0
C57 C -2e-05 0.4413 0.52438 0.0
C58 C -0.00119 0.48445 0.52423 0.0
C59 C 0.03727 0.50739 0.53468 0.0
C60 C 0.07658 0.48583 0.54593 0.0
C61 C 0.07779 0.44288 0.54547 0.0
H62 H 0.49259 1.0268 0.33496 0.0
N63 N 0.51365 0.08328 0.39878 0.0
H64 H 0.42051 1.01777 0.3 0.0
H65 H 0.44079 0.12913 0.40931 0.0
H66 H 0.36723 0.11897 0.37566 0.0
H67 H 0.55207 0.142 0.35096 0.0
H68 H 0.6203 0.13637 0.30643 0.0
H69 H 0.56361 1.01349 0.38521 0.0
H70 H 0.63243 1.00849 0.34255 0.0
H71 H 0.46178 1.01711 0.42617 0.0
H72 H 0.57105 0.09601 0.46422 0.0
H73 H 0.46888 0.97981 0.49401 0.0
H74 H 0.58157 0.05543 0.53073 0.0
H75 H 0.46968 0.87717 0.7272 0.0
H76 H 0.39917 0.89198 0.76525 0.0
H77 H 0.40781 1.01879 0.72372 0.0
H78 H 0.47768 1.00481 0.68835 0.0
H79 H 0.53594 0.98514 0.75197 0.0
H80 H 0.60531 0.99618 0.791 0.0
H81 H 0.66659 0.89629 0.71966 0.0
H82 H 0.59611 0.88487 0.68023 0.0
H83 H 0.50359 0.89799 0.6058 0.0
H84 H 0.50679 0.93238 0.53436 0.0
H85 H 0.55469 0.04264 0.59842 0.0
N86 N 0.52205 0.92993 0.68432 0.0
H87 H 0.55554 1.0069 0.66787 0.0
C88 C 0.4724 0.0793 0.37442 0.0
C89 C 0.46592 0.04778 0.34341 0.0
C90 C 0.42426 0.04212 0.32394 0.0
C91 C 0.38791 0.06732 0.33542 0.0
C92 C 0.39461 0.09924 0.36582 0.0
C93 C 0.43651 0.10513 0.38506 0.0
C94 C 0.55309 0.07857 0.37194 0.0
C95 C 0.56937 0.11277 0.34901 0.0
C96 C 0.60811 0.10955 0.32379 0.0
C97 C 0.63146 0.07215 0.32184 0.0
C98 C 0.61508 0.03772 0.34426 0.0
C99 C 0.57585 0.04066 0.3686 0.0
C100 C 0.51572 0.06032 0.43976 0.0
C101 C 0.48768 1.02655 0.44873 0.0
C102 C 0.49234 1.00433 0.48772 0.0
C103 C 0.52605 1.01408 0.5182 0.0
C104 C 0.55448 0.04733 0.50883 0.0
C105 C 0.54874 0.07056 0.47058 0.0
C106 C 0.47943 0.93938 0.70448 0.0
C107 C 0.45613 0.90806 0.72626 0.0
C108 C 0.41579 0.91653 0.74768 0.0
C109 C 0.3981 0.95664 0.74766 0.0
C110 C 0.42087 0.98771 0.72498 0.0
C111 C 0.46106 0.9794 0.70404 0.0
C112 C 0.56039 0.93365 0.71306 0.0
C113 C 0.56355 0.9647 0.74518 0.0
C114 C 0.60351 0.97116 0.76762 0.0
C115 C 0.64133 0.94715 0.75827 0.0
C116 C 0.63797 0.91542 0.72723 0.0
C117 C 0.59775 0.90864 0.70506 0.0
C118 C 0.52856 0.9498 0.64226 0.0
C119 C 0.51562 0.9293 0.60395 0.0
C120 C 0.51692 0.94933 0.56328 0.0
C121 C 0.53007 0.99084 0.56034 0.0
C122 C 0.5449 1.01067 0.59873 0.0
C123 C 0.54501 0.99019 0.63896 0.0
H124 H 0.45478 0.36899 0.13274 0.0
N125 N 0.51955 0.38109 0.07474 0.0
H126 H 0.3862 0.32927 0.1232 0.0
H127 H 0.49331 0.34083 0.99969 0.0
H128 H 0.42447 0.30223 0.98929 0.0
H129 H 0.56576 0.37605 0.99701 0.0
H130 H 0.63686 0.34098 0.98528 0.0
H131 H 0.56722 0.33869 0.13313 0.0
H132 H 0.63802 0.30254 0.12152 0.0
H133 H 0.54219 0.4436 0.12612 0.0
H134 H 0.49423 0.41547 0.99587 0.0
H135 H 0.5425 0.51695 0.10765 0.0
H136 H 0.4931 0.48837 0.97755 0.0
H137 H 0.49389 0.73079 0.06219 0.0
H138 H 0.42395 0.76758 0.07186 0.0
H139 H 0.37227 0.71148 0.95337 0.0
H140 H 0.44388 0.67692 0.9425 0.0
H141 H 0.56062 0.72172 0.93231 0.0
H142 H 0.62966 0.76101 0.94152 0.0
H143 H 0.6325 0.72825 0.07935 0.0
H144 H 0.56346 0.68936 0.06986 0.0
H145 H 0.49334 0.64717 0.07303 0.0
H146 H 0.49349 0.57423 0.09278 0.0
H147 H 0.54296 0.5442 0.96322 0.0
N148 N 0.51609 0.68002 0.99317 0.0
H149 H 0.54136 0.61718 0.94352 0.0
C150 C 0.47929 0.35782 0.06722 0.0
C151 C 0.44823 0.35443 0.10139 0.0
C152 C 0.40889 0.332 0.09569 0.0
C153 C 0.39962 0.31249 0.05541 0.0
C154 C 0.43069 0.31632 1.02095 0.0
C155 C 0.47013 0.33865 0.02678 0.0
C156 C 0.56112 0.36003 0.06617 0.0
C157 C 0.58124 0.36017 1.02439 0.0
C158 C 0.62195 0.3399 1.01767 0.0
C159 C 0.64338 0.31899 0.05248 0.0
C160 C 0.62297 0.31889 0.09414 0.0
C161 C 0.58233 0.33919 0.1008 0.0
C162 C 0.51803 0.42401 0.06268 0.0
C163 C 0.53138 0.45333 0.09369 0.0
C164 C 0.53128 0.4952 0.08311 0.0
C165 C 0.51778 0.50866 0.04108 0.0
C166 C 0.50429 0.47913 1.01002 0.0
C167 C 0.50454 0.43727 1.02061 0.0
C168 C 0.47461 0.70162 1.00089 0.0
C169 C 0.46786 0.7267 0.03794 0.0
C170 C 0.42729 0.74741 0.04378 0.0
C171 C 0.39208 0.74283 1.01334 0.0
C172 C 0.3987 0.71673 0.97702 0.0
C173 C 0.43954 0.69664 0.97083 0.0
C174 C 0.5568 0.70273 1.0002 0.0
C175 C 0.57626 0.72305 0.96444 0.0
C176 C 0.61581 0.74521 0.96974 0.0
C177 C 0.63665 0.74768 1.01117 0.0
C178 C 0.61708 0.72724 0.0471 0.0
C179 C 0.57765 0.70485 0.04168 0.0
C180 C 0.51707 0.63748 1.00656 0.0
C181 C 0.50416 0.62486 0.04892 0.0
C182 C 0.50454 0.58311 0.06023 0.0
C183 C 0.51802 0.55321 0.02951 0.0
C184 C 0.53157 0.5662 0.98743 0.0
C185 C 0.53102 0.60787 0.97617 0.0
C186 C 0.02182 0.12846 0.92538 0.0
C187 C 0.01576 0.13004 0.14173 0.0
C188 C 0.01636 0.92966 0.92741 0.0
C189 C 0.00884 0.93099 0.14345 0.0
C190 C 0.12245 0.92691 0.04009 0.0
C191 C 0.1301 0.12538 0.03859 0.0
C192 C 0.90477 0.93446 0.03268 0.0
C193 C 0.91217 0.13282 0.02784 0.0
C194 C 0.90482 0.0396 0.13461 0.0
C195 C 0.1196 0.02803 0.14614 0.0
C196 C 0.91476 0.0285 0.92383 0.0
C197 C 0.13044 1.02185 0.93481 0.0
Eu198 Eu 0.02039 0.10941 0.03379 0.0
O199 O 0.05564 0.06594 0.0752 0.0
O200 O 0.98175 0.0681 0.99329 0.0
Eu201 Eu 0.10024 1.02696 0.03913 0.0
Eu202 Eu 0.93455 0.03287 0.03052 0.0
O203 O 0.06002 0.06557 0.9971 0.0
O204 O 0.97817 0.0686 0.07107 0.0
Eu205 Eu 0.02152 0.02909 0.95177 0.0
Eu206 Eu 0.01314 0.03036 0.11753 0.0
O207 O 0.0568 0.99105 0.99828 0.0
O208 O 0.05303 0.99137 0.07609 0.0
O209 O 0.97481 0.99404 0.07209 0.0
O210 O 0.97912 0.99388 0.9944 0.0
Eu211 Eu 0.0144 0.9503 0.03535 0.0
O212 O 0.02184 0.1425 0.96689 0.0
O213 O 0.01894 0.14354 0.10004 0.0
O214 O 0.01403 0.91618 0.96914 0.0
O215 O 0.01148 0.91706 0.102 0.0
O216 O 0.13614 0.9658 0.04286 0.0
O217 O 0.14064 0.08549 0.04016 0.0
O218 O 0.89397 0.97433 0.03231 0.0
O219 O 0.89884 0.09382 1.02557 0.0
O220 O 0.94575 0.03452 0.15112 0.0
O221 O 0.07684 0.03035 0.15798 0.0
O222 O 0.95746 1.02648 0.91166 0.0
O223 O 0.0891 1.02398 0.91841 0.0
O224 O 0.94635 0.9193 0.03318 0.0
O225 O 0.08007 0.91462 0.03606 0.0
O226 O 0.95456 0.14522 0.03195 0.0
O227 O 0.08858 0.1406 0.03592 0.0
O228 O 0.0132 0.09068 0.15386 0.0
O229 O 0.00867 0.97051 0.15518 0.0
O230 O 0.02226 0.08889 0.91383 0.0
O231 O 0.02 0.96893 0.91524 0.0
O232 O 0.1411 1.02308 0.97734 0.0
O233 O 0.13471 1.02599 0.10504 0.0
O234 O 0.89997 0.03186 0.9649 0.0
O235 O 0.89402 0.04025 0.09214 0.0
H236 H 0.07242 0.32411 0.33319 0.0
H237 H 0.96585 0.25307 0.39086 0.0
H238 H 0.06804 0.28245 0.2666 0.0
H239 H 0.96007 0.213 0.32374 0.0
H240 H 0.00471 0.11382 0.22919 0.0
H241 H 0.00465 0.16082 0.2903 0.0
H242 H 0.02409 0.26283 0.20128 0.0
H243 H 0.02507 0.21499 0.1389 0.0
C244 C 0.04785 0.29982 0.33168 0.0
C245 C 0.01986 0.29179 0.3679 0.0
C246 C 0.04496 0.27627 0.29314 0.0
C247 C 0.014 0.24401 0.28978 0.0
C248 C 0.98488 0.23709 0.32532 0.0
C249 C 0.98783 0.26051 0.36379 0.0
C250 C 0.00892 0.14621 0.22207 0.0
C251 C 0.01491 0.16036 0.17861 0.0
C252 C 0.00847 0.17338 0.25748 0.0
C253 C 0.01387 0.2158 0.25095 0.0
C254 C 0.01999 0.23029 0.20759 0.0
C255 C 0.02035 0.20288 0.17178 0.0
H256 H 0.71447 0.05354 0.35197 0.0
H257 H 0.64053 0.08277 0.23405 0.0
H258 H 0.78319 0.04825 0.30917 0.0
H259 H 0.70808 0.07492 0.19047 0.0
H260 H 0.83888 0.09544 0.12582 0.0
H261 H 0.77491 0.10584 0.17341 0.0
H262 H 0.82229 1.00808 0.2587 0.0
H263 H 0.88814 0.99991 0.2121 0.0
C264 C 0.71314 0.0585 0.31672 0.0
C265 C 0.67273 0.06882 0.29606 0.0
C266 C 0.75228 0.05517 0.29212 0.0
C267 C 0.75143 0.06129 0.24625 0.0
C268 C 0.71047 0.07107 0.22578 0.0
C269 C 0.67164 0.07528 0.25055 0.0
C270 C 0.83563 0.07645 0.155 0.0
C271 C 0.86797 0.04669 0.16533 0.0
C272 C 0.79879 0.0821 0.18212 0.0
C273 C 0.79277 0.0573 0.21959 0.0
C274 C 0.82592 0.02807 0.23042 0.0
C275 C 0.86353 1.02316 0.20372 0.0
H276 H 0.95225 0.7995 0.3886 0.0
H277 H 0.07675 0.74856 0.34216 0.0
H278 H 0.94516 0.83934 0.3208 0.0
H279 H 0.07035 0.78941 0.27496 0.0
H280 H 0.02927 0.84801 0.14318 0.0
H281 H 0.02857 0.8005 0.20598 0.0
H282 H 0.98242 0.89864 0.28995 0.0
H283 H 0.98239 0.94548 0.22786 0.0
C284 C 0.97791 0.79645 0.36379 0.0
C285 C 0.01526 0.77101 0.37116 0.0
C286 C 0.97407 0.81963 0.32501 0.0
C287 C 0.00738 0.81792 0.29243 0.0
C288 C 0.04392 0.79136 0.29911 0.0
C289 C 0.04785 0.7683 0.33796 0.0
C290 C 0.01855 0.85928 0.17496 0.0
C291 C 0.00617 0.90073 0.18031 0.0
C292 C 0.01842 0.83212 0.21104 0.0
C293 C 0.00542 0.84568 0.25315 0.0
C294 C -0.00793 0.88686 0.25805 0.0
C295 C -0.00751 0.91392 0.22229 0.0
H296 H 0.3482 0.99335 0.31918 0.0
H297 H 0.32645 0.12441 0.30735 0.0
H298 H 0.27869 0.98086 0.27963 0.0
H299 H 0.25617 0.11163 0.26892 0.0
H300 H 0.11651 0.06905 0.22446 0.0
H301 H 0.17774 0.07696 0.27761 0.0
H302 H 0.26054 0.9973 0.19862 0.0
H303 H 0.20002 0.98979 0.14562 0.0
C304 C 0.32853 1.0195 0.30835 0.0
C305 C 0.3433 0.05991 0.3157 0.0
C306 C 0.28861 1.01228 0.28606 0.0
C307 C 0.26233 0.04529 0.27117 0.0
C308 C 0.2757 0.08566 0.28051 0.0
C309 C 0.31594 0.09294 0.30245 0.0
C310 C 0.14758 0.05272 0.21902 0.0
C311 C 0.15375 0.02896 0.18097 0.0
C312 C 0.18255 0.05745 0.24917 0.0
C313 C 0.22369 0.03772 0.24208 0.0
C314 C 0.22901 1.01253 0.20503 0.0
C315 C 0.1945 1.00844 0.17461 0.0
H316 H 0.06842 0.73453 0.73668 0.0
H317 H 0.96452 0.80865 0.6772 0.0
H318 H 0.06414 0.77612 0.8033 0.0
H319 H 0.9588 0.84874 0.74435 0.0
H320 H 0.00551 0.94646 0.84008 0.0
H321 H 0.00422 0.89958 0.77879 0.0
H322 H 0.01992 0.7968 0.86778 0.0
H323 H 0.02225 0.84449 0.93026 0.0
C324 C 0.04444 0.75948 0.73782 0.0
C325 C 0.0172 0.7684 0.70109 0.0
C326 C 0.04158 0.783 0.77636 0.0
C327 C 0.01143 0.81612 0.77922 0.0
C328 C 0.98299 0.82395 0.74316 0.0
C329 C 0.98589 0.80054 0.70468 0.0
C330 C 0.00876 0.91392 0.84708 0.0
C331 C 0.01424 0.89948 0.89053 0.0
C332 C 0.00751 0.88685 0.8116 0.0
C333 C 0.01159 0.84425 0.81811 0.0
C334 C 0.01691 0.82947 0.8615 0.0
C335 C 0.01801 0.85679 0.89736 0.0
H336 H 0.38385 1.02421 0.79838 0.0
H337 H 0.32015 0.91272 0.75392 0.0
H338 H 0.31719 0.04271 0.83899 0.0
H339 H 0.25359 0.93055 0.79655 0.0
H340 H 0.12751 0.99657 0.84857 0.0
H341 H 0.1911 0.98162 0.80065 0.0
H342 H 0.28147 1.01711 0.90474 0.0
H343 H 0.21875 0.03289 0.95183 0.0
C344 C 0.35547 1.00371 0.79707 0.0
C345 C 0.35723 0.96705 0.77276 0.0
C346 C 0.3174 1.01415 0.82074 0.0
C347 C 0.28022 0.98802 0.8211 0.0
C348 C 0.28163 0.95147 0.79652 0.0
C349 C 0.31989 0.94101 0.77263 0.0
C350 C 0.16097 1.00172 0.8609 0.0
C351 C 0.16802 1.01592 0.90402 0.0
C352 C 0.19732 0.99275 0.83365 0.0
C353 C 0.24123 0.99817 0.84897 0.0
C354 C 0.24807 1.01309 0.89174 0.0
C355 C 0.21198 1.0219 0.91887 0.0
H356 H 0.08186 0.31599 0.72824 0.0
H357 H 0.96269 0.25709 0.67952 0.0
H358 H 0.07814 0.27456 0.7953 0.0
H359 H 0.95831 0.21656 0.747 0.0
H360 H 0.00278 0.11267 0.83923 0.0
H361 H 0.00156 0.15971 0.77747 0.0
H362 H 0.0353 0.26014 0.86381 0.0
H363 H 0.03707 0.21245 0.92657 0.0
C364 C 0.0547 0.29438 0.73191 0.0
C365 C 0.02283 0.28963 0.69814 0.0
C366 C 0.0523 0.27096 0.77064 0.0
C367 C 0.01812 0.24196 0.77653 0.0
C368 C 0.98545 0.2382 0.74338 0.0
C369 C 0.98771 0.26176 0.70479 0.0
C370 C 0.01002 0.14473 0.84547 0.0
C371 C 0.0203 0.15855 0.88821 0.0
C372 C 0.00885 0.17188 0.80983 0.0
C373 C 0.01806 0.21383 0.81553 0.0
C374 C 0.02825 0.22794 0.85821 0.0
C375 C 0.02907 0.20065 0.89422 0.0
H376 H 0.65655 0.96245 0.84491 0.0
H377 H 0.7232 0.95429 0.7194 0.0
H378 H 0.72565 0.98525 0.87908 0.0
H379 H 0.79271 0.97763 0.75363 0.0
H380 H 0.91594 0.97804 0.85212 0.0
H381 H 0.85099 0.95782 0.80809 0.0
H382 H 0.77036 0.04744 0.87663 0.0
H383 H 0.8346 0.06665 0.92105 0.0
C384 C 0.68606 0.96557 0.82467 0.0
C385 C 0.68448 0.95691 0.77951 0.0
C386 C 0.72557 0.97886 0.84411 0.0
C387 C 0.76438 0.98406 0.81881 0.0
C388 C 0.76332 0.97392 0.77391 0.0
C389 C 0.72365 0.96045 0.75441 0.0
C390 C 0.88456 0.9941 0.85674 0.0
C391 C 0.87994 1.02352 0.89016 0.0
C392 C 0.84739 0.98245 0.83174 0.0
C393 C 0.80536 1.00032 0.83977 0.0
C394 C 0.80199 0.03224 0.87064 0.0
C395 C 0.83881 0.04352 0.89577 0.0
H396 H 0.3906 0.23934 1.01179 0.0
H397 H 0.31514 0.32825 0.08666 0.0
H398 H 0.32444 0.19678 1.00498 0.0
H399 H 0.2493 0.28453 0.08163 0.0
H400 H 0.12875 0.21004 0.03084 0.0
H401 H 0.19253 0.2568 0.03232 0.0
H402 H 0.28132 0.15348 0.05216 0.0
H403 H 0.21853 0.10705 0.04981 0.0
C404 C 0.35985 0.25002 0.02656 0.0
C405 C 0.35843 0.28727 0.04992 0.0
C406 C 0.32194 0.22529 1.02314 0.0
C407 C 0.28153 0.23694 0.04315 0.0
C408 C 0.27973 0.27466 0.06561 0.0
C409 C 0.3177 0.2995 0.06896 0.0
C410 C 0.16189 0.19731 0.03545 0.0
C411 C 0.16824 0.15461 0.03998 0.0
C412 C 0.19846 0.22417 0.03648 0.0
C413 C 0.24219 0.20893 0.042 0.0
C414 C 0.24833 0.16633 0.04689 0.0
C415 C 0.21201 0.13961 0.04582 0.0
H416 H 0.34912 0.76314 0.09047 0.0
H417 H 0.33697 0.77488 0.94908 0.0
H418 H 0.28154 0.80429 0.09938 0.0
H419 H 0.26825 0.81407 0.95843 0.0
H420 H 0.12422 0.8534 0.99632 0.0
H421 H 0.18715 0.80507 0.99122 0.0
H422 H 0.26364 0.88106 0.07965 0.0
H423 H 0.20144 0.92954 0.08413 0.0
C424 C 0.33224 0.77433 0.06125 0.0
C425 C 0.34907 0.76572 1.019 0.0
C426 C 0.29325 0.79761 0.06646 0.0
C427 C 0.26964 0.81219 0.0296 0.0
C428 C 0.28549 0.8027 0.98741 0.0
C429 C 0.3249 0.78005 0.98215 0.0
C430 C 0.15427 0.85939 1.0151 0.0
C431 C 0.15801 0.89525 0.04051 0.0
C432 C 0.19029 0.83194 1.01197 0.0
C433 C 0.2302 0.83941 0.03502 0.0
C434 C 0.23318 0.87441 0.06177 0.0
C435 C 0.19765 0.90223 0.06415 0.0
H436 H 0.66759 0.2727 0.98115 0.0
H437 H 0.71626 0.31408 0.10738 0.0
H438 H 0.73562 0.23275 0.97094 0.0
H439 H 0.78362 0.27265 0.09791 0.0
H440 H 0.91534 0.21419 0.05314 0.0
H441 H 0.85307 0.26324 0.0557 0.0
H442 H 0.76496 0.17052 1.00333 0.0
H443 H 0.82653 0.12231 0.99989 0.0
C444 C 0.69296 0.27365 1.00657 0.0
C445 C 0.68618 0.29645 0.04524 0.0
C446 C 0.73183 0.25037 1.0009 0.0
C447 C 0.76498 0.24917 0.03377 0.0
C448 C 0.75895 0.27306 0.0718 0.0
C449 C 0.72002 0.29638 0.07748 0.0
C450 C 0.88279 0.20455 0.04163 0.0
C451 C 0.87603 0.16421 0.02652 0.0
C452 C 0.84704 0.23253 0.04342 0.0
C453 C 0.80396 0.22084 0.02972 0.0
C454 C 0.79769 0.18085 1.01358 0.0
C455 C 0.83312 0.15299 1.01201 0.0
H456 H 0.65719 0.80066 0.07793 0.0
H457 H 0.70983 0.75026 0.95734 0.0
H458 H 0.72369 0.84318 0.08577 0.0
H459 H 0.77597 0.79348 0.96471 0.0
H460 H 0.90677 0.85165 1.01442 0.0
H461 H 0.84359 0.80426 1.01156 0.0
H462 H 0.75429 0.90331 0.04655 0.0
H463 H 0.81692 0.95042 0.04983 0.0
C464 C 0.68314 0.79838 0.0533 0.0
C465 C 0.67812 0.77218 1.01692 0.0
C466 C 0.72106 0.82302 0.05758 0.0
C467 C 0.75503 0.82185 1.02575 0.0
C468 C 0.75056 0.79489 0.98995 0.0
C469 C 0.71246 0.77045 0.9855 0.0
C470 C 0.87371 0.86325 1.0218 0.0
C471 C 0.86704 0.90494 0.03225 0.0
C472 C 0.83749 0.83614 1.01989 0.0
C473 C 0.79393 0.85002 0.02889 0.0
C474 C 0.78745 0.89151 0.03995 0.0
C475 C 0.82345 0.91861 0.04148 0.0
loop_
_geom_bond_atom_site_label_1
_geom_bond_atom_site_label_2
_geom_bond_distance
_geom_bond_site_symmetry_2
_ccdc_geom_bond_type
H0 C27 0.929 . S
N1 C26 1.433 . S
N1 C32 1.435 . S
N1 C38 1.423 . S
H2 C28 0.930 1_655 S
H3 C31 0.931 . S
H4 C30 0.929 . S
H5 C33 0.930 . S
H6 C34 0.932 . S
H7 C37 0.929 . S
H8 C36 0.931 . S
H9 C39 0.929 . S
H10 C43 0.932 . S
H11 C40 0.931 . S
H12 C42 0.929 . S
H13 C45 0.929 . S
H14 C46 0.930 1_655 S
H15 C48 0.929 . S
H16 C49 0.931 . S
H17 C51 0.930 . S
H18 C52 0.932 . S
H19 C54 0.931 . S
H20 C55 0.929 . S
H21 C57 0.929 . S
H22 C58 0.931 . S
H23 C60 0.929 . S
N24 C44 1.433 . S
N24 C50 1.435 . S
N24 C56 1.423 . S
H25 C61 0.932 . S
C26 N1 1.433 . S
C26 C27 1.363 1_455 S
C26 C31 1.370 . S
C27 H0 0.929 . S
C27 C26 1.363 1_655 S
C27 C28 1.385 1_655 S
C28 H2 0.930 1_455 S
C28 C27 1.385 1_455 S
C28 C29 1.357 . S
C29 C28 1.357 . S
C29 C30 1.406 . S
C30 H4 0.929 . S
C30 C29 1.406 . S
C30 C31 1.391 . S
C31 H3 0.931 . S
C31 C26 1.370 . S
C31 C30 1.391 . S
C32 N1 1.435 . S
C32 C33 1.358 . S
C32 C37 1.371 1_455 S
C33 H5 0.930 . S
C33 C32 1.358 . S
C33 C34 1.405 . S
C34 H6 0.932 . S
C34 C33 1.405 . S
C34 C35 1.383 . S
C35 C34 1.383 . S
C35 C36 1.393 1_455 S
C36 H8 0.931 . S
C36 C35 1.393 1_655 S
C36 C37 1.382 . S
C37 H7 0.929 . S
C37 C32 1.371 1_655 S
C37 C36 1.382 . S
C38 N1 1.423 . S
C38 C39 1.362 1_455 S
C38 C43 1.388 . S
C39 H9 0.929 . S
C39 C38 1.362 1_655 S
C39 C40 1.376 . S
C40 H11 0.931 . S
C40 C39 1.376 . S
C40 C41 1.396 . S
C41 C40 1.396 . S
C41 C42 1.348 1_655 S
C41 C59 1.472 . S
C42 H12 0.929 . S
C42 C41 1.348 1_455 S
C42 C43 1.443 . S
C43 H10 0.932 . S
C43 C38 1.388 . S
C43 C42 1.443 . S
C44 N24 1.433 . S
C44 C45 1.363 1_455 S
C44 C49 1.370 . S
C45 H13 0.929 . S
C45 C44 1.363 1_655 S
C45 C46 1.385 1_655 S
C46 H14 0.930 1_455 S
C46 C45 1.385 1_455 S
C46 C47 1.357 . S
C47 C46 1.357 . S
C47 C48 1.406 . S
C48 H15 0.929 . S
C48 C47 1.406 . S
C48 C49 1.391 . S
C49 H16 0.931 . S
C49 C44 1.370 . S
C49 C48 1.391 . S
C50 N24 1.435 . S
C50 C51 1.358 . S
C50 C55 1.371 1_455 S
C51 H17 0.930 . S
C51 C50 1.358 . S
C51 C52 1.405 . S
C52 H18 0.932 . S
C52 C51 1.405 . S
C52 C53 1.383 . S
C53 C52 1.383 . S
C53 C54 1.393 1_455 S
C54 H19 0.931 . S
C54 C53 1.393 1_655 S
C54 C55 1.382 . S
C55 H20 0.929 . S
C55 C50 1.371 1_655 S
C55 C54 1.382 . S
C56 N24 1.423 . S
C56 C57 1.362 1_455 S
C56 C61 1.388 . S
C57 H21 0.929 . S
C57 C56 1.362 1_655 S
C57 C58 1.376 . S
C58 H22 0.931 . S
C58 C57 1.376 . S
C58 C59 1.396 . S
C59 C41 1.472 . S
C59 C58 1.396 . S
C59 C60 1.348 1_655 S
C60 H23 0.929 . S
C60 C59 1.348 1_455 S
C60 C61 1.443 . S
C61 H25 0.932 . S
C61 C56 1.388 . S
C61 C60 1.443 . S
H62 C89 0.929 . S
N63 C88 1.433 . S
N63 C94 1.435 . S
N63 C100 1.423 . S
H64 C90 0.930 . S
H65 C93 0.931 . S
H66 C92 0.929 . S
H67 C95 0.930 . S
H68 C96 0.932 . S
H69 C99 0.929 . S
H70 C98 0.931 . S
H71 C101 0.929 . S
H72 C105 0.932 1_545 S
H73 C102 0.931 . S
H74 C104 0.929 1_545 S
H75 C107 0.929 . S
H76 C108 0.930 . S
H77 C110 0.929 . S
H78 C111 0.931 . S
H79 C113 0.930 . S
H80 C114 0.932 . S
H81 C116 0.931 . S
H82 C117 0.929 . S
H83 C119 0.929 . S
H84 C120 0.931 . S
H85 C122 0.929 1_545 S
N86 C106 1.433 . S
N86 C112 1.435 . S
N86 C118 1.423 . S
H87 C123 0.932 1_545 S
C88 N63 1.433 . S
C88 C89 1.363 . S
C88 C93 1.370 1_565 S
C89 H62 0.929 . S
C89 C88 1.363 . S
C89 C90 1.385 . S
C90 H64 0.930 . S
C90 C89 1.385 . S
C90 C91 1.357 . S
C91 C90 1.357 . S
C91 C92 1.406 1_565 S
C92 H66 0.929 . S
C92 C91 1.406 1_545 S
C92 C93 1.391 . S
C93 H65 0.931 . S
C93 C88 1.370 1_545 S
C93 C92 1.391 . S
C94 N63 1.435 . S
C94 C95 1.358 1_565 S
C94 C99 1.371 . S
C95 H67 0.930 . S
C95 C94 1.358 1_545 S
C95 C96 1.405 . S
C96 H68 0.932 . S
C96 C95 1.405 . S
C96 C97 1.383 1_545 S
C97 C96 1.383 1_565 S
C97 C98 1.393 . S
C98 H70 0.931 . S
C98 C97 1.393 . S
C98 C99 1.382 . S
C99 H69 0.929 . S
C99 C94 1.371 . S
C99 C98 1.382 . S
C100 N63 1.423 . S
C100 C101 1.362 . S
C100 C105 1.388 . S
C101 H71 0.929 . S
C101 C100 1.362 . S
C101 C102 1.376 . S
C102 H73 0.931 . S
C102 C101 1.376 . S
C102 C103 1.396 . S
C103 C102 1.396 . S
C103 C104 1.348 . S
C103 C121 1.472 . S
C104 H74 0.929 1_565 S
C104 C103 1.348 . S
C104 C105 1.443 . S
C105 H72 0.932 1_565 S
C105 C100 1.388 . S
C105 C104 1.443 . S
C106 N86 1.433 . S
C106 C107 1.363 . S
C106 C111 1.370 1_565 S
C107 H75 0.929 . S
C107 C106 1.363 . S
C107 C108 1.385 . S
C108 H76 0.930 . S
C108 C107 1.385 . S
C108 C109 1.357 . S
C109 C108 1.357 . S
C109 C110 1.406 1_565 S
C110 H77 0.929 . S
C110 C109 1.406 1_545 S
C110 C111 1.391 . S
C111 H78 0.931 . S
C111 C106 1.370 1_545 S
C111 C110 1.391 . S
C112 N86 1.435 . S
C112 C113 1.358 1_565 S
C112 C117 1.371 . S
C113 H79 0.930 . S
C113 C112 1.358 1_545 S
C113 C114 1.405 . S
C114 H80 0.932 . S
C114 C113 1.405 . S
C114 C115 1.383 1_545 S
C115 C114 1.383 1_565 S
C115 C116 1.393 . S
C116 H81 0.931 . S
C116 C115 1.393 . S
C116 C117 1.382 . S
C117 H82 0.929 . S
C117 C112 1.371 . S
C117 C116 1.382 . S
C118 N86 1.423 . S
C118 C119 1.362 . S
C118 C123 1.388 . S
C119 H83 0.929 . S
C119 C118 1.362 . S
C119 C120 1.376 . S
C120 H84 0.931 . S
C120 C119 1.376 . S
C120 C121 1.396 . S
C121 C103 1.472 . S
C121 C120 1.396 . S
C121 C122 1.348 . S
C122 H85 0.929 1_565 S
C122 C121 1.348 . S
C122 C123 1.443 . S
C123 H87 0.932 1_565 S
C123 C118 1.388 . S
C123 C122 1.443 . S
H124 C151 0.929 . S
N125 C150 1.433 . S
N125 C156 1.435 . S
N125 C162 1.423 . S
H126 C152 0.930 . S
H127 C155 0.931 . S
H128 C154 0.929 . S
H129 C157 0.930 . S
H130 C158 0.932 . S
H131 C161 0.929 . S
H132 C160 0.931 . S
H133 C163 0.929 . S
H134 C167 0.932 1_556 S
H135 C164 0.931 . S
H136 C166 0.929 . S
H137 C169 0.929 . S
H138 C170 0.930 . S
H139 C172 0.929 . S
H140 C173 0.931 . S
H141 C175 0.930 . S
H142 C176 0.932 . S
H143 C178 0.931 . S
H144 C179 0.929 . S
H145 C181 0.929 . S
H146 C182 0.931 . S
H147 C184 0.929 . S
N148 C168 1.433 . S
N148 C174 1.435 . S
N148 C180 1.423 . S
H149 C185 0.932 1_556 S
C150 N125 1.433 . S
C150 C151 1.363 . S
C150 C155 1.370 1_554 S
C151 H124 0.929 . S
C151 C150 1.363 . S
C151 C152 1.385 . S
C152 H126 0.930 . S
C152 C151 1.385 . S
C152 C153 1.357 . S
C153 C152 1.357 . S
C153 C154 1.406 1_554 S
C154 H128 0.929 . S
C154 C153 1.406 1_556 S
C154 C155 1.391 . S
C155 H127 0.931 . S
C155 C150 1.370 1_556 S
C155 C154 1.391 . S
C156 N125 1.435 . S
C156 C157 1.358 1_554 S
C156 C161 1.371 . S
C157 H129 0.930 . S
C157 C156 1.358 1_556 S
C157 C158 1.405 . S
C158 H130 0.932 . S
C158 C157 1.405 . S
C158 C159 1.383 1_556 S
C159 C158 1.383 1_554 S
C159 C160 1.393 . S
C160 H132 0.931 . S
C160 C159 1.393 . S
C160 C161 1.382 . S
C161 H131 0.929 . S
C161 C156 1.371 . S
C161 C160 1.382 . S
C162 N125 1.423 . S
C162 C163 1.362 . S
C162 C167 1.388 . S
C163 H133 0.929 . S
C163 C162 1.362 . S
C163 C164 1.376 . S
C164 H135 0.931 . S
C164 C163 1.376 . S
C164 C165 1.396 . S
C165 C164 1.396 . S
C165 C166 1.348 . S
C165 C183 1.472 . S
C166 H136 0.929 . S
C166 C165 1.348 . S
C166 C167 1.443 . S
C167 H134 0.932 1_554 S
C167 C162 1.388 . S
C167 C166 1.443 . S
C168 N148 1.433 . S
C168 C169 1.363 . S
C168 C173 1.370 1_554 S
C169 H137 0.929 . S
C169 C168 1.363 . S
C169 C170 1.385 . S
C170 H138 0.930 . S
C170 C169 1.385 . S
C170 C171 1.357 . S
C171 C170 1.357 . S
C171 C172 1.406 1_554 S
C172 H139 0.929 . S
C172 C171 1.406 1_556 S
C172 C173 1.391 . S
C173 H140 0.931 . S
C173 C168 1.370 1_556 S
C173 C172 1.391 . S
C174 N148 1.435 . S
C174 C175 1.358 1_554 S
C174 C179 1.371 . S
C175 H141 0.930 . S
C175 C174 1.358 1_556 S
C175 C176 1.405 . S
C176 H142 0.932 . S
C176 C175 1.405 . S
C176 C177 1.383 1_556 S
C177 C176 1.383 1_554 S
C177 C178 1.393 . S
C178 H143 0.931 . S
C178 C177 1.393 . S
C178 C179 1.382 . S
C179 H144 0.929 . S
C179 C174 1.371 . S
C179 C178 1.382 . S
C180 N148 1.423 . S
C180 C181 1.362 . S
C180 C185 1.388 . S
C181 H145 0.929 . S
C181 C180 1.362 . S
C181 C182 1.376 . S
C182 H146 0.931 . S
C182 C181 1.376 . S
C182 C183 1.396 . S
C183 C165 1.472 . S
C183 C182 1.396 . S
C183 C184 1.348 . S
C184 H147 0.929 . S
C184 C183 1.348 . S
C184 C185 1.443 . S
C185 H149 0.932 1_554 S
C185 C180 1.388 . S
C185 C184 1.443 . S
C186 O212 1.283 . S
C186 O230 1.283 . S
C187 O213 1.283 . S
C187 O228 1.283 . S
C188 O214 1.283 . S
C188 O231 1.283 . S
C189 O215 1.283 . S
C189 O229 1.283 . S
C190 O216 1.283 . S
C190 O225 1.283 . S
C191 O217 1.283 . S
C191 O227 1.283 . S
C192 O218 1.283 . S
C192 O224 1.283 . S
C193 O219 1.283 . S
C193 O226 1.283 . S
C194 O220 1.283 . S
C194 O235 1.283 . S
C195 O221 1.283 . S
C195 O233 1.283 . S
C196 O222 1.283 . S
C196 O234 1.283 . S
C197 O223 1.283 . S
C197 O232 1.283 . S
Eu198 O199 2.370 . S
Eu198 O200 2.370 1_454 S
Eu198 O203 2.370 1_554 S
Eu198 O204 2.370 1_455 S
Eu198 O212 2.363 1_554 S
Eu198 O213 2.363 . S
Eu198 O226 2.363 1_455 S
Eu198 O227 2.363 . S
O199 Eu198 2.370 . S
O199 Eu201 2.370 . S
O199 Eu206 2.370 . S
O200 Eu198 2.370 1_656 S
O200 Eu202 2.370 1_556 S
O200 Eu205 2.370 1_655 S
Eu201 O199 2.370 . S
Eu201 O203 2.370 1_554 S
Eu201 O207 2.370 1_544 S
Eu201 O208 2.370 1_545 S
Eu201 O216 2.363 1_545 S
Eu201 O217 2.363 . S
Eu201 O232 2.363 1_554 S
Eu201 O233 2.363 . S
Eu202 O200 2.370 1_554 S
Eu202 O204 2.370 . S
Eu202 O209 2.370 1_545 S
Eu202 O210 2.370 1_544 S
Eu202 O218 2.363 1_545 S
Eu202 O219 2.363 . S
Eu202 O234 2.363 1_554 S
Eu202 O235 2.363 . S
O203 Eu198 2.370 1_556 S
O203 Eu201 2.370 1_556 S
O203 Eu205 2.370 . S
O204 Eu198 2.370 1_655 S
O204 Eu202 2.370 . S
O204 Eu206 2.370 1_655 S
Eu205 O200 2.370 1_455 S
Eu205 O203 2.370 . S
Eu205 O207 2.370 1_545 S
Eu205 O210 2.370 1_445 S
Eu205 O222 2.363 1_455 S
Eu205 O223 2.363 . S
Eu205 O230 2.363 . S
Eu205 O231 2.363 1_545 S
Eu206 O199 2.370 . S
Eu206 O204 2.370 1_455 S
Eu206 O208 2.370 1_545 S
Eu206 O209 2.370 1_445 S
Eu206 O220 2.363 1_455 S
Eu206 O221 2.363 . S
Eu206 O228 2.363 . S
Eu206 O229 2.363 1_545 S
O207 Eu201 2.370 1_566 S
O207 Eu205 2.370 1_565 S
O207 Eu211 2.370 1_556 S
O208 Eu201 2.370 1_565 S
O208 Eu206 2.370 1_565 S
O208 Eu211 2.370 . S
O209 Eu202 2.370 1_565 S
O209 Eu206 2.370 1_665 S
O209 Eu211 2.370 1_655 S
O210 Eu202 2.370 1_566 S
O210 Eu205 2.370 1_665 S
O210 Eu211 2.370 1_656 S
Eu211 O207 2.370 1_554 S
Eu211 O208 2.370 . S
Eu211 O209 2.370 1_455 S
Eu211 O210 2.370 1_454 S
Eu211 O214 2.363 1_554 S
Eu211 O215 2.363 . S
Eu211 O224 2.363 1_455 S
Eu211 O225 2.363 . S
O212 C186 1.283 . S
O212 Eu198 2.363 1_556 S
O213 C187 1.283 . S
O213 Eu198 2.363 . S
O214 C188 1.283 . S
O214 Eu211 2.363 1_556 S
O215 C189 1.283 . S
O215 Eu211 2.363 . S
O216 C190 1.283 . S
O216 Eu201 2.363 1_565 S
O217 C191 1.283 . S
O217 Eu201 2.363 . S
O218 C192 1.283 . S
O218 Eu202 2.363 1_565 S
O219 C193 1.283 . S
O219 Eu202 2.363 . S
O220 C194 1.283 . S
O220 Eu206 2.363 1_655 S
O221 C195 1.283 . S
O221 Eu206 2.363 . S
O222 C196 1.283 . S
O222 Eu205 2.363 1_655 S
O223 C197 1.283 . S
O223 Eu205 2.363 . S
O224 C192 1.283 . S
O224 Eu211 2.363 1_655 S
O225 C190 1.283 . S
O225 Eu211 2.363 . S
O226 C193 1.283 . S
O226 Eu198 2.363 1_655 S
O227 C191 1.283 . S
O227 Eu198 2.363 . S
O228 C187 1.283 . S
O228 Eu206 2.363 . S
O229 C189 1.283 . S
O229 Eu206 2.363 1_565 S
O230 C186 1.283 . S
O230 Eu205 2.363 . S
O231 C188 1.283 . S
O231 Eu205 2.363 1_565 S
O232 C197 1.283 . S
O232 Eu201 2.363 1_556 S
O233 C195 1.283 . S
O233 Eu201 2.363 . S
O234 C196 1.283 . S
O234 Eu202 2.363 1_556 S
O235 C194 1.283 . S
O235 Eu202 2.363 . S
H236 C244 0.950 . S
H237 C249 0.950 . S
H238 C246 0.950 . S
H239 C248 0.950 . S
H240 C250 0.950 . S
H241 C252 0.950 . S
H242 C254 0.950 . S
H243 C255 0.950 . S
C244 H236 0.950 . S
C244 C245 1.386 . S
C244 C246 1.391 . S
C245 C244 1.386 . S
C245 C249 1.393 1_455 S
C246 H238 0.950 . S
C246 C244 1.391 . S
C246 C247 1.400 . S
C247 C246 1.400 . S
C247 C248 1.398 1_455 S
C247 C253 1.491 . S
C248 H239 0.950 . S
C248 C247 1.398 1_655 S
C248 C249 1.391 . S
C249 H237 0.950 . S
C249 C245 1.393 1_655 S
C249 C248 1.391 . S
C250 H240 0.950 . S
C250 C251 1.386 1_655 S
C250 C252 1.391 . S
C251 C250 1.386 1_455 S
C251 C255 1.393 . S
C252 H241 0.950 . S
C252 C250 1.391 . S
C252 C253 1.400 1_655 S
C253 C247 1.491 . S
C253 C252 1.400 1_455 S
C253 C254 1.398 . S
C254 H242 0.950 . S
C254 C253 1.398 . S
C254 C255 1.391 . S
C255 H243 0.950 . S
C255 C251 1.393 . S
C255 C254 1.391 . S
H256 C264 0.950 . S
H257 C269 0.950 . S
H258 C266 0.950 . S
H259 C268 0.950 . S
H260 C270 0.950 . S
H261 C272 0.950 . S
H262 C274 0.950 . S
H263 C275 0.950 . S
C264 H256 0.950 . S
C264 C265 1.386 . S
C264 C266 1.391 . S
C265 C264 1.386 . S
C265 C269 1.393 1_565 S
C266 H258 0.950 . S
C266 C264 1.391 . S
C266 C267 1.406 . S
C267 C266 1.406 . S
C267 C268 1.393 1_565 S
C267 C273 1.490 1_565 S
C268 H259 0.950 . S
C268 C267 1.393 1_545 S
C268 C269 1.391 . S
C269 H257 0.950 . S
C269 C265 1.393 1_545 S
C269 C268 1.391 . S
C270 H260 0.950 . S
C270 C271 1.386 . S
C270 C272 1.391 . S
C271 C270 1.386 . S
C271 C275 1.393 1_545 S
C272 H261 0.950 . S
C272 C270 1.391 . S
C272 C273 1.410 . S
C273 C267 1.490 1_545 S
C273 C272 1.410 . S
C273 C274 1.390 1_545 S
C274 H262 0.950 . S
C274 C273 1.390 1_565 S
C274 C275 1.391 . S
C275 H263 0.950 . S
C275 C271 1.393 1_565 S
C275 C274 1.391 . S
H276 C284 0.950 1_655 S
H277 C289 0.950 . S
H278 C286 0.950 1_655 S
H279 C288 0.950 . S
H280 C290 0.950 . S
H281 C292 0.950 . S
H282 C294 0.950 1_655 S
H283 C295 0.950 1_655 S
C284 H276 0.950 1_455 S
C284 C285 1.386 . S
C284 C286 1.391 . S
C285 C284 1.386 . S
C285 C289 1.393 . S
C286 H278 0.950 1_455 S
C286 C284 1.391 . S
C286 C287 1.400 . S
C287 C286 1.400 . S
C287 C288 1.398 . S
C287 C293 1.491 . S
C288 H279 0.950 . S
C288 C287 1.398 . S
C288 C289 1.391 . S
C289 H277 0.950 . S
C289 C285 1.393 . S
C289 C288 1.391 . S
C290 H280 0.950 . S
C290 C291 1.386 . S
C290 C292 1.391 . S
C291 C290 1.386 . S
C291 C295 1.393 . S
C292 H281 0.950 . S
C292 C290 1.391 . S
C292 C293 1.400 . S
C293 C287 1.491 . S
C293 C292 1.400 . S
C293 C294 1.398 . S
C294 H282 0.950 1_455 S
C294 C293 1.398 . S
C294 C295 1.391 . S
C295 H283 0.950 1_455 S
C295 C291 1.393 . S
C295 C294 1.391 . S
H296 C304 0.950 . S
H297 C309 0.950 . S
H298 C306 0.950 . S
H299 C308 0.950 . S
H300 C310 0.950 . S
H301 C312 0.950 . S
H302 C314 0.950 . S
H303 C315 0.950 . S
C304 H296 0.950 . S
C304 C305 1.401 . S
C304 C306 1.391 . S
C305 C304 1.401 . S
C305 C309 1.379 1_565 S
C306 H298 0.950 . S
C306 C304 1.391 . S
C306 C307 1.407 . S
C307 C306 1.407 . S
C307 C308 1.393 1_565 S
C307 C313 1.490 1_565 S
C308 H299 0.950 . S
C308 C307 1.393 1_545 S
C308 C309 1.391 . S
C309 H297 0.950 . S
C309 C305 1.379 1_545 S
C309 C308 1.391 . S
C310 H300 0.950 . S
C310 C311 1.386 . S
C310 C312 1.391 . S
C311 C310 1.386 . S
C311 C315 1.393 1_545 S
C312 H301 0.950 . S
C312 C310 1.391 . S
C312 C313 1.410 . S
C313 C307 1.490 1_545 S
C313 C312 1.410 . S
C313 C314 1.390 1_545 S
C314 H302 0.950 . S
C314 C313 1.390 1_565 S
C314 C315 1.391 . S
C315 H303 0.950 . S
C315 C311 1.393 1_565 S
C315 C314 1.391 . S
H316 C324 0.950 . S
H317 C329 0.950 1_655 S
H318 C326 0.950 . S
H319 C328 0.950 1_655 S
H320 C330 0.950 1_655 S
H321 C332 0.950 1_655 S
H322 C334 0.950 . S
H323 C335 0.950 . S
C324 H316 0.950 . S
C324 C325 1.386 . S
C324 C326 1.391 . S
C325 C324 1.386 . S
C325 C329 1.393 . S
C326 H318 0.950 . S
C326 C324 1.391 . S
C326 C327 1.400 . S
C327 C326 1.400 . S
C327 C328 1.398 . S
C327 C333 1.491 . S
C328 H319 0.950 1_455 S
C328 C327 1.398 . S
C328 C329 1.391 . S
C329 H317 0.950 1_455 S
C329 C325 1.393 . S
C329 C328 1.391 . S
C330 H320 0.950 1_455 S
C330 C331 1.386 . S
C330 C332 1.391 . S
C331 C330 1.386 . S
C331 C335 1.393 . S
C332 H321 0.950 1_455 S
C332 C330 1.391 . S
C332 C333 1.400 . S
C333 C327 1.491 . S
C333 C332 1.400 . S
C333 C334 1.398 . S
C334 H322 0.950 . S
C334 C333 1.398 . S
C334 C335 1.391 . S
C335 H323 0.950 . S
C335 C331 1.393 . S
C335 C334 1.391 . S
H336 C344 0.950 . S
H337 C349 0.950 . S
H338 C346 0.950 . S
H339 C348 0.950 . S
H340 C350 0.950 . S
H341 C352 0.950 . S
H342 C354 0.950 . S
H343 C355 0.950 . S
C344 H336 0.950 . S
C344 C345 1.404 . S
C344 C346 1.391 . S
C345 C344 1.404 . S
C345 C349 1.375 1_545 S
C346 H338 0.950 . S
C346 C344 1.391 . S
C346 C347 1.410 . S
C347 C346 1.410 . S
C347 C348 1.389 1_545 S
C347 C353 1.490 1_545 S
C348 H339 0.950 . S
C348 C347 1.389 1_565 S
C348 C349 1.391 . S
C349 H337 0.950 . S
C349 C345 1.375 1_565 S
C349 C348 1.391 . S
C350 H340 0.950 . S
C350 C351 1.400 . S
C350 C352 1.391 . S
C351 C350 1.400 . S
C351 C355 1.379 1_565 S
C352 H341 0.950 . S
C352 C350 1.391 . S
C352 C353 1.406 . S
C353 C347 1.490 1_565 S
C353 C352 1.406 . S
C353 C354 1.393 1_565 S
C354 H342 0.950 . S
C354 C353 1.393 1_545 S
C354 C355 1.391 . S
C355 H343 0.950 . S
C355 C351 1.379 1_545 S
C355 C354 1.391 . S
H356 C364 0.950 . S
H357 C369 0.950 . S
H358 C366 0.950 . S
H359 C368 0.950 . S
H360 C370 0.935 1_655 S
H361 C372 0.944 1_655 S
H362 C374 0.950 . S
H363 C375 0.950 . S
C364 H356 0.950 . S
C364 C365 1.386 . S
C364 C366 1.391 . S
C365 C364 1.386 . S
C365 C369 1.393 1_455 S
C366 H358 0.950 . S
C366 C364 1.391 . S
C366 C367 1.400 . S
C367 C366 1.400 . S
C367 C368 1.398 1_455 S
C367 C373 1.491 . S
C368 H359 0.950 . S
C368 C367 1.398 1_655 S
C368 C369 1.391 . S
C369 H357 0.950 . S
C369 C365 1.393 1_655 S
C369 C368 1.391 . S
C370 H360 0.935 1_455 S
C370 C371 1.400 . S
C370 C372 1.391 . S
C371 C370 1.400 . S
C371 C375 1.393 . S
C372 H361 0.944 1_455 S
C372 C370 1.391 . S
C372 C373 1.406 . S
C373 C367 1.491 . S
C373 C372 1.406 . S
C373 C374 1.398 . S
C374 H362 0.950 . S
C374 C373 1.398 . S
C374 C375 1.391 . S
C375 H363 0.950 . S
C375 C371 1.393 . S
C375 C374 1.391 . S
H376 C384 0.950 . S
H377 C389 0.950 . S
H378 C386 0.950 . S
H379 C388 0.950 . S
H380 C390 0.950 . S
H381 C392 0.950 . S
H382 C394 0.950 . S
H383 C395 0.950 . S
C384 H376 0.950 . S
C384 C385 1.386 1_545 S
C384 C386 1.391 . S
C385 C384 1.386 1_565 S
C385 C389 1.393 . S
C386 H378 0.950 . S
C386 C384 1.391 . S
C386 C387 1.393 1_545 S
C387 C386 1.393 1_565 S
C387 C388 1.406 . S
C387 C393 1.490 1_565 S
C388 H379 0.950 . S
C388 C387 1.406 . S
C388 C389 1.391 . S
C389 H377 0.950 . S
C389 C385 1.393 . S
C389 C388 1.391 . S
C390 H380 0.950 . S
C390 C391 1.386 1_565 S
C390 C392 1.391 . S
C391 C390 1.386 1_545 S
C391 C395 1.393 . S
C392 H381 0.950 . S
C392 C390 1.391 . S
C392 C393 1.389 1_565 S
C393 C387 1.490 1_545 S
C393 C392 1.389 1_545 S
C393 C394 1.410 . S
C394 H382 0.950 . S
C394 C393 1.410 . S
C394 C395 1.391 . S
C395 H383 0.950 . S
C395 C391 1.393 . S
C395 C394 1.391 . S
H396 C404 0.950 . S
H397 C409 0.950 . S
H398 C406 0.950 . S
H399 C408 0.950 . S
H400 C410 0.950 . S
H401 C412 0.950 . S
H402 C414 0.950 . S
H403 C415 0.950 . S
C404 H396 0.950 . S
C404 C405 1.386 1_556 S
C404 C406 1.391 . S
C405 C404 1.386 1_554 S
C405 C409 1.393 . S
C406 H398 0.950 . S
C406 C404 1.391 . S
C406 C407 1.400 1_556 S
C407 C406 1.400 1_554 S
C407 C408 1.398 . S
C407 C413 1.491 . S
C408 H399 0.950 . S
C408 C407 1.398 . S
C408 C409 1.391 . S
C409 H397 0.950 . S
C409 C405 1.393 . S
C409 C408 1.391 . S
C410 H400 0.950 . S
C410 C411 1.386 . S
C410 C412 1.391 . S
C411 C410 1.386 . S
C411 C415 1.393 1_554 S
C412 H401 0.950 . S
C412 C410 1.391 . S
C412 C413 1.400 . S
C413 C407 1.491 . S
C413 C412 1.400 . S
C413 C414 1.398 1_554 S
C414 H402 0.950 . S
C414 C413 1.398 1_556 S
C414 C415 1.391 . S
C415 H403 0.950 . S
C415 C411 1.393 1_556 S
C415 C414 1.391 . S
H416 C424 0.950 . S
H417 C429 0.950 . S
H418 C426 0.950 . S
H419 C428 0.950 . S
H420 C430 0.950 . S
H421 C432 0.950 . S
H422 C434 0.950 . S
H423 C435 0.950 . S
C424 H416 0.950 . S
C424 C425 1.386 . S
C424 C426 1.391 . S
C425 C424 1.386 . S
C425 C429 1.393 1_554 S
C426 H418 0.950 . S
C426 C424 1.391 . S
C426 C427 1.400 . S
C427 C426 1.400 . S
C427 C428 1.398 1_554 S
C427 C433 1.491 . S
C428 H419 0.950 . S
C428 C427 1.398 1_556 S
C428 C429 1.391 . S
C429 H417 0.950 . S
C429 C425 1.393 1_556 S
C429 C428 1.391 . S
C430 H420 0.950 . S
C430 C431 1.386 1_556 S
C430 C432 1.391 . S
C431 C430 1.386 1_554 S
C431 C435 1.393 . S
C432 H421 0.950 . S
C432 C430 1.391 . S
C432 C433 1.400 1_556 S
C433 C427 1.491 . S
C433 C432 1.400 1_554 S
C433 C434 1.398 . S
C434 H422 0.950 . S
C434 C433 1.398 . S
C434 C435 1.391 . S
C435 H423 0.950 . S
C435 C431 1.393 . S
C435 C434 1.391 . S
H436 C444 0.950 . S
H437 C449 0.950 . S
H438 C446 0.950 . S
H439 C448 0.950 . S
H440 C450 0.950 . S
H441 C452 0.950 . S
H442 C454 0.950 . S
H443 C455 0.950 . S
C444 H436 0.950 . S
C444 C445 1.386 1_556 S
C444 C446 1.391 . S
C445 C444 1.386 1_554 S
C445 C449 1.393 . S
C446 H438 0.950 . S
C446 C444 1.391 . S
C446 C447 1.400 1_556 S
C447 C446 1.400 1_554 S
C447 C448 1.398 . S
C447 C453 1.491 . S
C448 H439 0.950 . S
C448 C447 1.398 . S
C448 C449 1.391 . S
C449 H437 0.950 . S
C449 C445 1.393 . S
C449 C448 1.391 . S
C450 H440 0.950 . S
C450 C451 1.386 . S
C450 C452 1.391 . S
C451 C450 1.386 . S
C451 C455 1.393 1_554 S
C452 H441 0.950 . S
C452 C450 1.391 . S
C452 C453 1.400 . S
C453 C447 1.491 . S
C453 C452 1.400 . S
C453 C454 1.398 1_554 S
C454 H442 0.950 . S
C454 C453 1.398 1_556 S
C454 C455 1.391 . S
C455 H443 0.950 . S
C455 C451 1.393 1_556 S
C455 C454 1.391 . S
H456 C464 0.950 . S
H457 C469 0.950 . S
H458 C466 0.950 . S
H459 C468 0.950 . S
H460 C470 0.950 . S
H461 C472 0.950 . S
H462 C474 0.950 . S
H463 C475 0.950 . S
C464 H456 0.950 . S
C464 C465 1.386 . S
C464 C466 1.391 . S
C465 C464 1.386 . S
C465 C469 1.393 1_554 S
C466 H458 0.950 . S
C466 C464 1.391 . S
C466 C467 1.400 . S
C467 C466 1.400 . S
C467 C468 1.398 1_554 S
C467 C473 1.491 . S
C468 H459 0.950 . S
C468 C467 1.398 1_556 S
C468 C469 1.391 . S
C469 H457 0.950 . S
C469 C465 1.393 1_556 S
C469 C468 1.391 . S
C470 H460 0.950 . S
C470 C471 1.386 1_556 S
C470 C472 1.391 . S
C471 C470 1.386 1_554 S
C471 C475 1.393 . S
C472 H461 0.950 . S
C472 C470 1.391 . S
C472 C473 1.400 1_556 S
C473 C467 1.491 . S
C473 C472 1.400 1_554 S
C473 C474 1.398 . S
C474 H462 0.950 . S
C474 C473 1.398 . S
C474 C475 1.391 . S
C475 H463 0.950 . S
C475 C471 1.393 . S
C475 C474 1.391 . S
C251 C187 2.035 . S
C245 C53 2.038 . S
C271 C194 1.210 . S
C265 C97 1.212 . S
C291 C189 2.033 . S
C285 C35 2.042 . S
C311 C195 1.312 . S
C305 C91 1.289 . S
C325 C29 2.138 . S
C331 C188 2.191 . S
C351 C197 1.311 1_565 S
C345 C109 1.291 1_545 S
C365 C47 2.142 . S
C371 C186 2.185 . S
C385 C115 1.211 . S
C391 C196 1.209 . S
C405 C153 1.653 . S
C411 C191 1.719 . S
C425 C171 1.652 . S
C431 C190 1.723 . S
C451 C193 1.533 . S
C445 C159 1.537 . S
C471 C192 1.532 . S
C465 C177 1.538 . S
