# Generated by pormake.
# Topology ptr, (4,4)-cn, num edge types: 1
# Building blocks:
#     Node 0, Type 0, BuildingBlock: KUFVIS_clean_sbu_0, # of connection points: 4
#     Node 1, Type 0, BuildingBlock: KUFVIS_clean_sbu_0, # of connection points: 4
#     Node 2, Type 0, BuildingBlock: KUFVIS_clean_sbu_0, # of connection points: 4
#     Node 3, Type 0, BuildingBlock: KUFVIS_clean_sbu_0, # of connection points: 4
#     Node 4, Type 0, BuildingBlock: KUFVIS_clean_sbu_0, # of connection points: 4
#     Node 5, Type 0, BuildingBlock: KUFVIS_clean_sbu_0, # of connection points: 4
#     Node 6, Type 0, BuildingBlock: KUFVIS_clean_sbu_0, # of connection points: 4
#     Node 7, Type 0, BuildingBlock: KUFVIS_clean_sbu_0, # of connection points: 4
#     Node 8, Type 0, BuildingBlock: KUFVIS_clean_sbu_0, # of connection points: 4
#     Node 9, Type 0, BuildingBlock: KUFVIS_clean_sbu_0, # of connection points: 4
#     Node 10, Type 0, BuildingBlock: KUFVIS_clean_sbu_0, # of connection points: 4
#     Node 11, Type 0, BuildingBlock: KUFVIS_clean_sbu_0, # of connection points: 4
#     Node 12, Type 0, BuildingBlock: KUFVIS_clean_sbu_0, # of connection points: 4
#     Node 13, Type 0, BuildingBlock: KUFVIS_clean_sbu_0, # of connection points: 4
#     Node 14, Type 0, BuildingBlock: KUFVIS_clean_sbu_0, # of connection points: 4
#     Node 15, Type 0, BuildingBlock: KUFVIS_clean_sbu_0, # of connection points: 4
#     Node 16, Type 0, BuildingBlock: KUFVIS_clean_sbu_0, # of connection points: 4
#     Node 17, Type 0, BuildingBlock: KUFVIS_clean_sbu_0, # of connection points: 4
#     Node 18, Type 1, BuildingBlock: KUFVIS_clean_linker_0, # of connection points: 4
#     Node 19, Type 1, BuildingBlock: KUFVIS_clean_linker_0, # of connection points: 4
#     Node 20, Type 1, BuildingBlock: KUFVIS_clean_linker_0, # of connection points: 4
#     Node 21, Type 1, BuildingBlock: KUFVIS_clean_linker_0, # of connection points: 4
#     Node 22, Type 1, BuildingBlock: KUFVIS_clean_linker_0, # of connection points: 4
#     Node 23, Type 1, BuildingBlock: KUFVIS_clean_linker_0, # of connection points: 4
#     Node 24, Type 1, BuildingBlock: KUFVIS_clean_linker_0, # of connection points: 4
#     Node 25, Type 1, BuildingBlock: KUFVIS_clean_linker_0, # of connection points: 4
#     Node 26, Type 1, BuildingBlock: KUFVIS_clean_linker_0, # of connection points: 4
#     Node 27, Type 1, BuildingBlock: KUFVIS_clean_linker_0, # of connection points: 4
#     Node 28, Type 1, BuildingBlock: KUFVIS_clean_linker_0, # of connection points: 4
#     Node 29, Type 1, BuildingBlock: KUFVIS_clean_linker_0, # of connection points: 4
#     Node 30, Type 1, BuildingBlock: KUFVIS_clean_linker_0, # of connection points: 4
#     Node 31, Type 1, BuildingBlock: KUFVIS_clean_linker_0, # of connection points: 4
#     Node 32, Type 1, BuildingBlock: KUFVIS_clean_linker_0, # of connection points: 4
#     Node 33, Type 1, BuildingBlock: KUFVIS_clean_linker_0, # of connection points: 4
#     Node 34, Type 1, BuildingBlock: KUFVIS_clean_linker_0, # of connection points: 4
#     Node 35, Type 1, BuildingBlock: KUFVIS_clean_linker_0, # of connection points: 4
#     Edge 36, Type (0, 1), BuildingBlock: EZIPEK_clean_linker_0, # of connection points: 2
#     Edge 37, Type (0, 1), BuildingBlock: EZIPEK_clean_linker_0, # of connection points: 2
#     Edge 38, Type (0, 1), BuildingBlock: EZIPEK_clean_linker_0, # of connection points: 2
#     Edge 39, Type (0, 1), BuildingBlock: EZIPEK_clean_linker_0, # of connection points: 2
#     Edge 40, Type (0, 1), BuildingBlock: EZIPEK_clean_linker_0, # of connection points: 2
#     Edge 41, Type (0, 1), BuildingBlock: EZIPEK_clean_linker_0, # of connection points: 2
#     Edge 42, Type (0, 1), BuildingBlock: EZIPEK_clean_linker_0, # of connection points: 2
#     Edge 43, Type (0, 1), BuildingBlock: EZIPEK_clean_linker_0, # of connection points: 2
#     Edge 44, Type (0, 1), BuildingBlock: EZIPEK_clean_linker_0, # of connection points: 2
#     Edge 45, Type (0, 1), BuildingBlock: EZIPEK_clean_linker_0, # of connection points: 2
#     Edge 46, Type (0, 1), BuildingBlock: EZIPEK_clean_linker_0, # of connection points: 2
#     Edge 47, Type (0, 1), BuildingBlock: EZIPEK_clean_linker_0, # of connection points: 2
#     Edge 48, Type (0, 1), BuildingBlock: EZIPEK_clean_linker_0, # of connection points: 2
#     Edge 49, Type (0, 1), BuildingBlock: EZIPEK_clean_linker_0, # of connection points: 2
#     Edge 50, Type (0, 1), BuildingBlock: EZIPEK_clean_linker_0, # of connection points: 2
#     Edge 51, Type (0, 1), BuildingBlock: EZIPEK_clean_linker_0, # of connection points: 2
#     Edge 52, Type (0, 1), BuildingBlock: EZIPEK_clean_linker_0, # of connection points: 2
#     Edge 53, Type (0, 1), BuildingBlock: EZIPEK_clean_linker_0, # of connection points: 2
#     Edge 54, Type (0, 1), BuildingBlock: EZIPEK_clean_linker_0, # of connection points: 2
#     Edge 55, Type (0, 1), BuildingBlock: EZIPEK_clean_linker_0, # of connection points: 2
#     Edge 56, Type (0, 1), BuildingBlock: EZIPEK_clean_linker_0, # of connection points: 2
#     Edge 57, Type (0, 1), BuildingBlock: EZIPEK_clean_linker_0, # of connection points: 2
#     Edge 58, Type (0, 1), BuildingBlock: EZIPEK_clean_linker_0, # of connection points: 2
#     Edge 59, Type (0, 1), BuildingBlock: EZIPEK_clean_linker_0, # of connection points: 2
#     Edge 60, Type (0, 1), BuildingBlock: EZIPEK_clean_linker_0, # of connection points: 2
#     Edge 61, Type (0, 1), BuildingBlock: EZIPEK_clean_linker_0, # of connection points: 2
#     Edge 62, Type (0, 1), BuildingBlock: EZIPEK_clean_linker_0, # of connection points: 2
#     Edge 63, Type (0, 1), BuildingBlock: EZIPEK_clean_linker_0, # of connection points: 2
#     Edge 64, Type (0, 1), BuildingBlock: EZIPEK_clean_linker_0, # of connection points: 2
#     Edge 65, Type (0, 1), BuildingBlock: EZIPEK_clean_linker_0, # of connection points: 2
#     Edge 66, Type (0, 1), BuildingBlock: EZIPEK_clean_linker_0, # of connection points: 2
#     Edge 67, Type (0, 1), BuildingBlock: EZIPEK_clean_linker_0, # of connection points: 2
#     Edge 68, Type (0, 1), BuildingBlock: EZIPEK_clean_linker_0, # of connection points: 2
#     Edge 69, Type (0, 1), BuildingBlock: EZIPEK_clean_linker_0, # of connection points: 2
#     Edge 70, Type (0, 1), BuildingBlock: EZIPEK_clean_linker_0, # of connection points: 2
#     Edge 71, Type (0, 1), BuildingBlock: EZIPEK_clean_linker_0, # of connection points: 2
#     Edge 72, Type (0, 1), BuildingBlock: EZIPEK_clean_linker_0, # of connection points: 2
#     Edge 73, Type (0, 1), BuildingBlock: EZIPEK_clean_linker_0, # of connection points: 2
#     Edge 74, Type (0, 1), BuildingBlock: EZIPEK_clean_linker_0, # of connection points: 2
#     Edge 75, Type (0, 1), BuildingBlock: EZIPEK_clean_linker_0, # of connection points: 2
#     Edge 76, Type (0, 1), BuildingBlock: EZIPEK_clean_linker_0, # of connection points: 2
#     Edge 77, Type (0, 1), BuildingBlock: EZIPEK_clean_linker_0, # of connection points: 2
#     Edge 78, Type (0, 1), BuildingBlock: EZIPEK_clean_linker_0, # of connection points: 2
#     Edge 79, Type (0, 1), BuildingBlock: EZIPEK_clean_linker_0, # of connection points: 2
#     Edge 80, Type (0, 1), BuildingBlock: EZIPEK_clean_linker_0, # of connection points: 2
#     Edge 81, Type (0, 1), BuildingBlock: EZIPEK_clean_linker_0, # of connection points: 2
#     Edge 82, Type (0, 1), BuildingBlock: EZIPEK_clean_linker_0, # of connection points: 2
#     Edge 83, Type (0, 1), BuildingBlock: EZIPEK_clean_linker_0, # of connection points: 2
#     Edge 84, Type (0, 1), BuildingBlock: EZIPEK_clean_linker_0, # of connection points: 2
#     Edge 85, Type (0, 1), BuildingBlock: EZIPEK_clean_linker_0, # of connection points: 2
#     Edge 86, Type (0, 1), BuildingBlock: EZIPEK_clean_linker_0, # of connection points: 2
#     Edge 87, Type (0, 1), BuildingBlock: EZIPEK_clean_linker_0, # of connection points: 2
#     Edge 88, Type (0, 1), BuildingBlock: EZIPEK_clean_linker_0, # of connection points: 2
#     Edge 89, Type (0, 1), BuildingBlock: EZIPEK_clean_linker_0, # of connection points: 2
#     Edge 90, Type (0, 1), BuildingBlock: EZIPEK_clean_linker_0, # of connection points: 2
#     Edge 91, Type (0, 1), BuildingBlock: EZIPEK_clean_linker_0, # of connection points: 2
#     Edge 92, Type (0, 1), BuildingBlock: EZIPEK_clean_linker_0, # of connection points: 2
#     Edge 93, Type (0, 1), BuildingBlock: EZIPEK_clean_linker_0, # of connection points: 2
#     Edge 94, Type (0, 1), BuildingBlock: EZIPEK_clean_linker_0, # of connection points: 2
#     Edge 95, Type (0, 1), BuildingBlock: EZIPEK_clean_linker_0, # of connection points: 2
#     Edge 96, Type (0, 1), BuildingBlock: EZIPEK_clean_linker_0, # of connection points: 2
#     Edge 97, Type (0, 1), BuildingBlock: EZIPEK_clean_linker_0, # of connection points: 2
#     Edge 98, Type (0, 1), BuildingBlock: EZIPEK_clean_linker_0, # of connection points: 2
#     Edge 99, Type (0, 1), BuildingBlock: EZIPEK_clean_linker_0, # of connection points: 2
#     Edge 100, Type (0, 1), BuildingBlock: EZIPEK_clean_linker_0, # of connection points: 2
#     Edge 101, Type (0, 1), BuildingBlock: EZIPEK_clean_linker_0, # of connection points: 2
#     Edge 102, Type (0, 1), BuildingBlock: EZIPEK_clean_linker_0, # of connection points: 2
#     Edge 103, Type (0, 1), BuildingBlock: EZIPEK_clean_linker_0, # of connection points: 2
#     Edge 104, Type (0, 1), BuildingBlock: EZIPEK_clean_linker_0, # of connection points: 2
#     Edge 105, Type (0, 1), BuildingBlock: EZIPEK_clean_linker_0, # of connection points: 2
#     Edge 106, Type (0, 1), BuildingBlock: EZIPEK_clean_linker_0, # of connection points: 2
#     Edge 107, Type (0, 1), BuildingBlock: EZIPEK_clean_linker_0, # of connection points: 2
# Relax obj value: 0.050
# Max RMSD: 0.135
# Mean RMSD: 0.089
data_MOF--net-ptr--node1-KUFVIS_clean_sbu_0--node2-KUFVIS_clean_linker_0--edge1-EZIPEK_clean_linker_0
_symmetry_space_group_name_H-M    P1
_symmetry_Int_Tables_number       1
_symmetry_cell_setting            triclinic
loop_
_symmetry_equiv_pos_as_xyz
'x, y, z'
_cell_length_a     56.857217
_cell_length_b     56.631848
_cell_length_c     36.585011
_cell_angle_alpha  89.665026
_cell_angle_beta   90.421961
_cell_angle_gamma 119.64008
loop_
_atom_site_label
_atom_site_type_symbol
_atom_site_fract_x
_atom_site_fract_y
_atom_site_fract_z
_atom_type_partial_charge
Mn0 Mn 1.01735 0.37067 -0.00423 0.0
Mn1 Mn 0.06938 0.43414 0.98097 0.0
C2 C 1.0138 0.39828 0.95091 0.0
C3 C 0.99324 0.32383 0.98487 0.0
C4 C 0.0317 0.41825 0.04638 0.0
O5 O 0.04974 0.37058 0.02124 0.0
O6 O 0.08353 0.41105 0.00174 0.0
C7 C 0.10014 0.42436 0.92384 0.0
N8 N 0.08662 0.4372 0.9352 0.0
C9 C 0.09992 0.46559 0.88156 0.0
C10 C 0.11409 0.45275 0.86935 0.0
C11 C 0.11399 0.43188 0.89043 0.0
C12 C 0.08612 0.45693 0.91477 0.0
H13 H 0.10052 0.40865 0.94031 0.0
C14 C 0.07493 0.3884 0.01869 0.0
O15 O 0.99105 0.33413 0.01532 0.0
O16 O 1.01122 0.34041 0.96186 0.0
N17 N 0.05858 0.4585 0.9603 0.0
C18 C 0.04348 0.46848 0.97556 0.0
C19 C 0.04024 0.48844 0.95686 0.0
C20 C 0.05304 0.49839 0.9231 0.0
C21 C 0.06897 0.48826 0.90833 0.0
C22 C 0.07113 0.46809 0.92794 0.0
H23 H 0.03388 0.46121 0.00173 0.0
O24 O 0.9923 0.37776 0.96432 0.0
O25 O 0.03665 0.40179 0.96376 0.0
O26 O 1.01545 0.39398 0.03668 0.0
O27 O 0.05319 0.43415 0.02883 0.0
C28 C 0.08287 0.49746 0.87497 0.0
C29 C 0.09852 0.4863 0.86174 0.0
H30 H 0.1249 0.45857 0.84367 0.0
H31 H 0.1248 0.4218 0.88111 0.0
H32 H 0.02805 0.49627 0.96857 0.0
H33 H 0.05061 0.51389 0.90887 0.0
H34 H 0.08157 0.51304 0.8592 0.0
H35 H 0.10894 0.49338 0.83592 0.0
Mn36 Mn 0.66509 0.668 0.00344 0.0
Mn37 Mn 0.67047 0.61554 0.038 0.0
C38 C 0.6328 0.63771 0.04454 0.0
C39 C 0.67494 0.71322 0.00647 0.0
C40 C 0.64398 0.61274 0.96477 0.0
O41 O 0.70391 0.67876 0.98911 0.0
O42 O 0.70324 0.64125 0.01017 0.0
C43 C 0.71309 0.65137 0.0905 0.0
N44 N 0.68868 0.62889 0.08381 0.0
C45 C 0.68101 0.61923 0.14816 0.0
C46 C 0.70611 0.64218 0.15569 0.0
C47 C 0.72216 0.65838 0.12672 0.0
C48 C 0.67271 0.6137 0.11157 0.0
H49 H 0.7255 0.66401 0.06844 0.0
C50 C 0.71499 0.66412 0.99356 0.0
O51 O 0.66746 0.69989 0.97589 0.0
O52 O 0.67787 0.70081 0.03447 0.0
N53 N 0.64166 0.58816 0.06625 0.0
C54 C 0.62144 0.56386 0.05378 0.0
C55 C 0.60535 0.54339 0.07883 0.0
C56 C 0.61025 0.54802 0.11649 0.0
C57 C 0.63225 0.57245 0.1286 0.0
C58 C 0.64816 0.59168 0.10222 0.0
H59 H 0.61793 0.55994 0.02483 0.0
O60 O 0.62772 0.65328 0.02387 0.0
O61 O 0.65718 0.64126 0.04207 0.0
O62 O 0.6507 0.63795 0.96425 0.0
O63 O 0.64967 0.60157 0.99154 0.0
C64 C 0.64004 0.57766 0.1656 0.0
C65 C 0.66416 0.60133 0.17547 0.0
H66 H 0.71333 0.64745 0.18356 0.0
H67 H 0.74152 0.67618 0.13229 0.0
H68 H 0.58911 0.52414 0.06913 0.0
H69 H 0.5976 0.53231 0.13576 0.0
H70 H 0.62793 0.56328 0.18656 0.0
H71 H 0.67002 0.60506 0.20401 0.0
Mn72 Mn 0.38296 1.01028 0.00911 0.0
Mn73 Mn 0.44258 0.0657 0.03147 0.0
C74 C 0.40951 1.00793 0.05614 0.0
C75 C 0.3358 0.98159 0.01627 0.0
C76 C 0.4338 0.03228 0.9627 0.0
O77 O 0.38056 0.04223 0.98547 0.0
O78 O 0.418 0.07756 0.01001 0.0
C79 C 0.42583 0.09031 0.08966 0.0
N80 N 0.4414 0.07965 0.0784 0.0
C81 C 0.46638 0.09179 0.13503 0.0
C82 C 0.45059 0.10288 0.14727 0.0
C83 C 0.43011 0.10196 0.12457 0.0
C84 C 0.46087 0.08005 0.10023 0.0
H85 H 0.41034 0.09001 0.07206 0.0
C86 C 0.39627 0.06781 0.99083 0.0
O87 O 0.34826 0.98193 0.98662 0.0
O88 O 0.35046 0.99963 0.04059 0.0
N89 N 0.46807 0.05693 0.05317 0.0
C90 C 0.481 0.04468 0.03769 0.0
C91 C 0.50126 0.04277 0.0575 0.0
C92 C 0.50845 0.05402 0.09266 0.0
C93 C 0.4952 0.06695 0.10779 0.0
C94 C 0.47493 0.06791 0.08693 0.0
H95 H 0.47598 0.0365 0.01041 0.0
O96 O 0.39146 0.98599 0.04003 0.0
O97 O 0.41153 0.03044 0.04408 0.0
O98 O 0.40994 1.01335 0.9699 0.0
O99 O 0.44693 0.05329 0.98267 0.0
C100 C 0.50137 0.079 0.14268 0.0
C101 C 0.48704 0.09151 0.15624 0.0
H102 H 0.4539 0.11197 0.17412 0.0
H103 H 0.41781 0.11042 0.13386 0.0
H104 H 0.51148 0.03289 0.04554 0.0
H105 H 0.52426 0.05272 0.1077 0.0
H106 H 0.51699 0.07865 0.15941 0.0
H107 H 0.49175 0.10041 0.18328 0.0
Mn108 Mn 0.029 0.65984 0.99138 0.0
Mn109 Mn 0.08659 0.65818 0.97493 0.0
C110 C 0.02878 0.62713 0.95288 0.0
C111 C 0.99556 0.67183 0.97998 0.0
C112 C 0.05435 0.63522 0.04318 0.0
O113 O 0.05834 0.69823 0.00597 0.0
O114 O 0.09454 0.69275 -0.00018 0.0
C115 C 0.10309 0.69976 0.9164 0.0
N116 N 0.1001 0.67575 0.92891 0.0
C117 C 0.11544 0.66752 0.87174 0.0
C118 C 0.12072 0.69315 0.85936 0.0
C119 C 0.11398 0.70911 0.88151 0.0
C120 C 0.10457 0.65936 0.90677 0.0
H121 H 0.09663 0.71134 0.93267 0.0
C122 C 0.08369 0.70684 0.0099 0.0
O123 O 0.99921 0.66459 0.01221 0.0
O124 O 1.01255 0.67407 0.95478 0.0
N125 N 0.08328 0.62645 0.95172 0.0
C126 C 0.07395 0.60111 0.96603 0.0
C127 C 0.07605 0.58131 0.94559 0.0
C128 C 0.08845 0.58801 0.91114 0.0
C129 C 0.09867 0.61446 0.89748 0.0
C130 C 0.0958 0.63326 0.91898 0.0
H131 H 0.06478 0.59596 0.99275 0.0
O132 O 1.00683 0.6228 0.96927 0.0
O133 O 0.05023 0.65026 0.95985 0.0
O134 O 0.03773 0.64371 0.03653 0.0
O135 O 0.07328 0.6387 0.02153 0.0
C136 C 0.11118 0.6228 0.86308 0.0
C137 C 0.11946 0.6493 0.85014 0.0
H138 H 0.12891 0.70032 0.83235 0.0
H139 H 0.11685 0.72838 0.87154 0.0
H140 H 0.06823 0.56098 0.95643 0.0
H141 H 0.08995 0.57266 0.8954 0.0
H142 H 0.11374 0.60875 0.84588 0.0
H143 H 0.12808 0.65513 0.82308 0.0
Mn144 Mn 0.37563 0.37412 0.00776 0.0
Mn145 Mn 0.42697 0.36613 0.03948 0.0
C146 C 0.40862 0.40696 0.04601 0.0
C147 C 0.33186 0.3675 0.01425 0.0
C148 C 0.42777 0.38998 0.96487 0.0
O149 O 0.36257 0.33412 -0.00469 0.0
O150 O 0.39874 0.33245 0.01547 0.0
C151 C 0.39051 0.33057 0.09762 0.0
N152 N 0.41505 0.35153 0.0875 0.0
C153 C 0.42804 0.36335 0.15047 0.0
C154 C 0.40359 0.3409 0.16144 0.0
C155 C 0.38458 0.32465 0.13487 0.0
C156 C 0.43262 0.36837 0.11292 0.0
H157 H 0.37519 0.31903 0.07747 0.0
C158 C 0.37542 0.32117 0.00019 0.0
O159 O 0.34358 0.37304 0.98255 0.0
O160 O 0.34473 0.36416 0.04129 0.0
N161 N 0.45689 0.39559 0.06378 0.0
C162 C 0.48074 0.41421 0.04841 0.0
C163 C 0.50279 0.43102 0.07097 0.0
C164 C 0.5002 0.42837 0.10914 0.0
C165 C 0.47597 0.40812 0.12431 0.0
C166 C 0.45516 0.39122 0.10031 0.0
H167 H 0.48303 0.41596 0.01908 0.0
O168 O 0.39301 0.41253 0.0263 0.0
O169 O 0.40361 0.382 0.04396 0.0
O170 O 0.40352 0.38581 0.96662 0.0
O171 O 0.43925 0.38351 0.99047 0.0
C172 C 0.47207 0.4033 0.1622 0.0
C173 C 0.44787 0.38119 0.17531 0.0
H174 H 0.39895 0.33632 0.19015 0.0
H175 H 0.36522 0.30787 0.14309 0.0
H176 H 0.52169 0.44608 0.05897 0.0
H177 H 0.51711 0.44164 0.12648 0.0
H178 H 0.48758 0.41636 0.18145 0.0
H179 H 0.4449 0.37786 0.2045 0.0
Mn180 Mn 0.66783 0.03125 0.00096 0.0
Mn181 Mn 0.60843 0.9767 0.97541 0.0
C182 C 0.64195 0.03506 0.95416 0.0
C183 C 0.71448 0.06075 -0.00443 0.0
C184 C 0.61608 1.00833 0.04548 0.0
O185 O 0.67001 0.99864 0.02268 0.0
O186 O 0.63233 0.96414 -0.00268 0.0
C187 C 0.6262 0.95293 0.91732 0.0
N188 N 0.61063 0.96367 0.92823 0.0
C189 C 0.58642 0.95212 0.87099 0.0
C190 C 0.60211 0.94081 0.85919 0.0
C191 C 0.62226 0.94146 0.88233 0.0
C192 C 0.59158 0.96368 0.9059 0.0
H193 H 0.64133 0.95289 0.93532 0.0
C194 C 0.65401 0.97322 0.01647 0.0
O195 O 0.70178 0.0591 0.02559 0.0
O196 O 0.7008 0.04325 0.97019 0.0
N197 N 0.58359 0.98612 0.95309 0.0
C198 C 0.57045 0.99821 0.9684 0.0
C199 C 0.55068 1.0006 0.94804 0.0
C200 C 0.54413 0.98992 0.91253 0.0
C201 C 0.55757 0.97712 0.89758 0.0
C202 C 0.5774 0.97575 0.91895 0.0
H203 H 0.57489 1.00585 -0.00403 0.0
O204 O 0.65964 0.05642 0.97168 0.0
O205 O 0.63989 1.01218 0.96457 0.0
O206 O 0.6403 0.02691 0.03971 0.0
O207 O 0.60292 0.98809 0.0243 0.0
C208 C 0.55192 0.96549 0.86243 0.0
C209 C 0.5662 0.95283 0.84924 0.0
H210 H 0.59905 0.93183 0.83229 0.0
H211 H 0.63453 0.93287 0.87336 0.0
H212 H 0.54028 1.01035 0.95987 0.0
H213 H 0.52862 0.99149 0.89711 0.0
H214 H 0.53669 0.96623 0.84527 0.0
H215 H 0.56182 0.94415 0.82206 0.0
Mn216 Mn 0.68186 0.70763 0.32149 0.0
Mn217 Mn 0.73578 0.76947 0.30458 0.0
C218 C 0.67887 0.73577 0.27705 0.0
C219 C 0.65485 0.66108 0.31111 0.0
C220 C 0.70035 0.75605 0.37195 0.0
O221 O 0.7137 0.70571 0.34546 0.0
O222 O 0.74856 0.74513 0.32501 0.0
C223 C 0.76364 0.75678 0.24636 0.0
N224 N 0.75154 0.77093 0.25812 0.0
C225 C 0.76487 0.79859 0.2038 0.0
C226 C 0.77758 0.78439 0.19116 0.0
C227 C 0.77675 0.76323 0.21239 0.0
C228 C 0.75177 0.79096 0.23759 0.0
H229 H 0.76347 0.74084 0.26293 0.0
C230 C 0.73911 0.72262 0.34253 0.0
O231 O 0.65478 0.67186 0.34221 0.0
O232 O 0.67288 0.67674 0.28748 0.0
N233 N 0.72626 0.79486 0.28416 0.0
C234 C 0.71224 0.80593 0.2997 0.0
C235 C 0.70935 0.82597 0.28066 0.0
C236 C 0.72146 0.83488 0.24627 0.0
C237 C 0.73645 0.82376 0.23131 0.0
C238 C 0.73816 0.80346 0.25122 0.0
H239 H 0.70321 0.79944 0.32632 0.0
O240 O 0.65719 0.71616 0.29159 0.0
O241 O 0.70158 0.73812 0.28872 0.0
O242 O 0.68276 0.73211 0.36267 0.0
O243 O 0.72146 0.77115 0.35325 0.0
C244 C 0.74971 0.83197 0.19739 0.0
C245 C 0.76417 0.81962 0.18383 0.0
H246 H 0.7878 0.78938 0.16503 0.0
H247 H 0.78642 0.75211 0.20275 0.0
H248 H 0.69792 0.83462 0.29251 0.0
H249 H 0.71914 0.85028 0.2316 0.0
H250 H 0.74877 0.84766 0.18141 0.0
H251 H 0.77408 0.82592 0.15756 0.0
Mn252 Mn 0.32731 0.98969 0.3471 0.0
Mn253 Mn 0.3336 0.93699 0.37871 0.0
C254 C 0.29345 0.95652 0.38337 0.0
C255 C 0.33389 0.03369 0.35241 0.0
C256 C 0.31761 0.94065 0.3003 0.0
O257 O 0.36775 1.00256 0.33906 0.0
O258 O 0.36926 0.96719 0.36396 0.0
C259 C 0.36335 0.96577 0.4456 0.0
N260 N 0.34249 0.94361 0.42949 0.0
C261 C 0.32561 0.92242 0.48784 0.0
C262 C 0.34722 0.94475 0.50506 0.0
C263 C 0.36603 0.96665 0.48384 0.0
C264 C 0.32362 0.92305 0.44974 0.0
H265 H 0.37768 0.98276 0.42941 0.0
C266 C 0.38098 0.99077 0.34939 0.0
O267 O 0.32971 0.02199 0.3208 0.0
O268 O 0.33588 0.02066 0.3804 0.0
N269 N 0.30125 0.90547 0.39455 0.0
C270 C 0.2826 0.88476 0.37358 0.0
C271 C 0.26324 0.86056 0.39031 0.0
C272 C 0.26352 0.85767 0.42843 0.0
C273 C 0.28314 0.87904 0.44946 0.0
C274 C 0.30221 0.90247 0.43116 0.0
H275 H 0.28251 0.88665 0.34426 0.0
O276 O 0.28847 0.97221 0.36272 0.0
O277 O 0.31817 0.96105 0.38252 0.0
O278 O 0.31718 0.96271 0.30541 0.0
O279 O 0.3235 0.92899 0.32601 0.0
C280 C 0.28495 0.87772 0.48777 0.0
C281 C 0.30604 0.89954 0.50695 0.0
H282 H 0.34947 0.94535 0.53453 0.0
H283 H 0.38258 0.98412 0.49692 0.0
H284 H 0.24819 0.84414 0.37385 0.0
H285 H 0.24852 0.839 0.44125 0.0
H286 H 0.2703 0.86001 0.50273 0.0
H287 H 0.30728 0.89837 0.53633 0.0
Mn288 Mn 0.04489 0.34265 0.34594 0.0
Mn289 Mn 0.09842 0.40127 0.37438 0.0
C290 C 0.07647 0.34205 0.38623 0.0
C291 C 1.0003 0.30726 0.35323 0.0
C292 C 0.09876 0.37407 0.30384 0.0
O293 O 0.03364 0.37037 0.32976 0.0
O294 O 0.07255 0.40757 0.34496 0.0
C295 C 0.06423 0.41202 0.42487 0.0
N296 N 0.08608 0.4087 0.41916 0.0
C297 C 0.09606 0.41225 0.48363 0.0
C298 C 0.07372 0.41577 0.49012 0.0
C299 C 0.05771 0.4156 0.4606 0.0
C300 C 0.10119 0.40814 0.4475 0.0
H301 H 0.05173 0.41179 0.40241 0.0
C302 C 0.04902 0.3961 0.33036 0.0
O303 O 1.01229 0.31196 0.32177 0.0
O304 O 1.01341 0.32406 0.37937 0.0
N305 N 0.12602 0.4005 0.40357 0.0
C306 C 0.15014 0.40392 0.39151 0.0
C307 C 0.17065 0.40858 0.41684 0.0
C308 C 0.16621 0.40971 0.45435 0.0
C309 C 0.14199 0.40802 0.4659 0.0
C310 C 0.12279 0.40456 0.43914 0.0
H311 H 0.15381 0.40354 0.36265 0.0
O312 O 0.06038 0.32071 0.36755 0.0
O313 O 0.07276 0.36285 0.38235 0.0
O314 O 0.07349 0.35634 0.305 0.0
O315 O 0.11109 0.39168 0.32917 0.0
C316 C 0.13697 0.41154 0.50255 0.0
C317 C 0.11376 0.41322 0.5115 0.0
H318 H 0.06881 0.41884 0.5176 0.0
H319 H 0.04041 0.41827 0.46537 0.0
H320 H 0.18977 0.41109 0.4075 0.0
H321 H 0.18193 0.41291 0.47386 0.0
H322 H 0.15118 0.41369 0.52393 0.0
H323 H 0.11026 0.41626 0.53971 0.0
Mn324 Mn 0.68382 0.98936 0.32937 0.0
Mn325 Mn 0.74251 0.98755 0.32494 0.0
C326 C 0.6879 0.95964 0.28931 0.0
C327 C 0.65449 1.0056 0.31329 0.0
C328 C 0.70248 0.96309 0.3872 0.0
O329 O 0.71152 0.02535 0.35264 0.0
O330 O 0.75023 0.02419 0.34312 0.0
C331 C 0.77158 0.02746 0.266 0.0
N332 N 0.76105 1.00191 0.27974 0.0
C333 C 0.77913 0.98853 0.22963 0.0
C334 C 0.79041 1.01489 0.21526 0.0
C335 C 0.78642 0.03438 0.2334 0.0
C336 C 0.76433 0.98283 0.26208 0.0
H337 H 0.76855 0.04224 0.27983 0.0
C338 C 0.7373 0.03606 0.35451 0.0
O339 O 0.65304 0.99425 0.34459 0.0
O340 O 0.67382 1.00873 0.29148 0.0
N341 N 0.73776 0.95344 0.30804 0.0
C342 C 0.72508 0.92873 0.32498 0.0
C343 C 0.72594 0.9066 0.30929 0.0
C344 C 0.74027 0.91019 0.27677 0.0
C345 C 0.75362 0.93587 0.26022 0.0
C346 C 0.7519 0.95713 0.27699 0.0
H347 H 0.71422 0.92579 0.35018 0.0
O348 O 0.66424 0.95504 0.29996 0.0
O349 O 0.70841 0.9814 0.30244 0.0
O350 O 0.68469 0.96816 0.37416 0.0
O351 O 0.7253 0.97096 0.37204 0.0
C352 C 0.76865 0.9412 0.2278 0.0
C353 C 0.78153 0.96756 0.21261 0.0
H354 H 0.80187 0.02027 0.19011 0.0
H355 H 0.79484 0.05473 0.22236 0.0
H356 H 0.7157 0.88686 0.32235 0.0
H357 H 0.74109 0.89316 0.26489 0.0
H358 H 0.77033 0.92515 0.21423 0.0
H359 H 0.79281 0.97138 0.18748 0.0
Mn360 Mn 0.04192 0.71327 0.34376 0.0
Mn361 Mn 0.0988 0.7124 0.36869 0.0
C362 C 0.07191 0.74446 0.38567 0.0
C363 C 0.99673 0.70215 0.35073 0.0
C364 C 0.09411 0.73737 0.29805 0.0
O365 O 0.03326 0.67487 0.32891 0.0
O366 O 0.07308 0.67776 0.34312 0.0
C367 C 0.07055 0.67205 0.42755 0.0
N368 N 0.09253 0.69511 0.41545 0.0
C369 C 0.11426 0.70262 0.47426 0.0
C370 C 0.09311 0.67749 0.48613 0.0
C371 C 0.07078 0.66249 0.46299 0.0
C372 C 0.11277 0.71101 0.43867 0.0
H373 H 0.05277 0.66149 0.41051 0.0
C374 C 0.04912 0.66484 0.32943 0.0
O375 O 1.00878 0.70992 0.31944 0.0
O376 O 1.01011 0.69873 0.37716 0.0
N377 N 0.12619 0.74395 0.39322 0.0
C378 C 0.14274 0.76922 0.37931 0.0
C379 C 0.16386 0.78871 0.401 0.0
C380 C 0.16826 0.78179 0.43632 0.0
C381 C 0.15149 0.75542 0.44964 0.0
C382 C 0.13061 0.73695 0.4269 0.0
H383 H 0.13976 0.77453 0.35195 0.0
O384 O 0.05565 0.74982 0.36694 0.0
O385 O 0.07035 0.72124 0.37901 0.0
O386 O 0.06915 0.73027 0.30161 0.0
O387 O 0.10737 0.73181 0.32154 0.0
C388 C 0.15443 0.74682 0.48476 0.0
C389 C 0.13585 0.72039 0.49705 0.0
H390 H 0.09312 0.67023 0.51359 0.0
H391 H 0.05364 0.64387 0.47264 0.0
H392 H 0.17682 0.80897 0.39043 0.0
H393 H 0.18455 0.79688 0.45297 0.0
H394 H 0.17043 0.76061 0.50292 0.0
H395 H 0.13766 0.71439 0.52464 0.0
Mn396 Mn 0.34119 0.3566 0.32753 0.0
Mn397 Mn 0.28197 0.30025 0.30758 0.0
C398 C 0.31029 0.3589 0.28725 0.0
C399 C 0.38676 0.38783 0.31555 0.0
C400 C 0.29209 0.33111 0.37877 0.0
O401 O 0.34825 0.32577 0.3435 0.0
O402 O 0.30872 0.2901 0.32673 0.0
C403 C 0.30184 0.28198 0.2451 0.0
N404 N 0.2835 0.28812 0.25947 0.0
C405 C 0.25753 0.2756 0.20367 0.0
C406 C 0.27545 0.26794 0.18886 0.0
C407 C 0.29796 0.27158 0.20946 0.0
C408 C 0.26261 0.28607 0.23921 0.0
H409 H 0.31942 0.28527 0.26062 0.0
C410 C 0.33299 0.30014 0.33896 0.0
O411 O 0.37661 0.38536 0.34792 0.0
O412 O 0.37116 0.37067 0.29103 0.0
N413 N 0.25422 0.30667 0.28836 0.0
C414 C 0.24028 0.31721 0.3055 0.0
C415 C 0.21886 0.31792 0.28711 0.0
C416 C 0.21159 0.30721 0.25167 0.0
C417 C 0.2258 0.29587 0.23494 0.0
C418 C 0.24717 0.29603 0.25443 0.0
H419 H 0.24559 0.32521 0.33289 0.0
O420 O 0.32832 0.38047 0.30407 0.0
O421 O 0.31074 0.33671 0.29483 0.0
O422 O 0.31638 0.3494 0.37187 0.0
O423 O 0.27778 0.31152 0.35707 0.0
C424 C 0.21974 0.28458 0.19959 0.0
C425 C 0.23547 0.27427 0.18406 0.0
H426 H 0.27256 0.26 0.16134 0.0
H427 H 0.31231 0.26646 0.19784 0.0
H428 H 0.20793 0.32661 0.30028 0.0
H429 H 0.19506 0.3078 0.23758 0.0
H430 H 0.20329 0.28411 0.18388 0.0
H431 H 0.231 0.26621 0.15654 0.0
Mn432 Mn 0.35023 0.03244 0.65685 0.0
Mn433 Mn 0.40482 0.09345 0.63916 0.0
C434 C 0.3468 0.06286 0.61735 0.0
C435 C 0.32099 0.98624 0.64554 0.0
C436 C 0.37222 0.08219 0.70796 0.0
O437 O 0.38162 0.02663 0.67222 0.0
O438 O 0.41617 0.06874 0.66334 0.0
C439 C 0.42345 0.07143 0.57964 0.0
N440 N 0.41849 0.09101 0.59258 0.0
C441 C 0.43155 0.1152 0.53538 0.0
C442 C 0.43894 0.09651 0.52254 0.0
C443 C 0.43428 0.07416 0.54448 0.0
C444 C 0.42075 0.11129 0.57059 0.0
H445 H 0.4186 0.05359 0.59578 0.0
C446 C 0.40677 0.04416 0.67443 0.0
O447 O 0.32276 0.99668 0.67757 0.0
O448 O 0.33721 1.00221 0.62049 0.0
N449 N 0.39811 0.12013 0.61647 0.0
C450 C 0.38703 0.13439 0.63133 0.0
C451 C 0.38668 0.15537 0.61109 0.0
C452 C 0.3984 0.162 0.57622 0.0
C453 C 0.41043 0.14761 0.56195 0.0
C454 C 0.40998 0.12676 0.58328 0.0
H455 H 0.37835 0.12968 0.65836 0.0
O456 O 0.3255 0.0441 0.63371 0.0
O457 O 0.3694 0.06336 0.62488 0.0
O458 O 0.35631 0.057 0.70152 0.0
O459 O 0.39113 0.09792 0.6864 0.0
C460 C 0.42262 0.15293 0.52723 0.0
C461 C 0.43321 0.13676 0.51396 0.0
H462 H 0.4471 0.09846 0.49534 0.0
H463 H 0.43871 0.05893 0.53414 0.0
H464 H 0.37752 0.16651 0.62241 0.0
H465 H 0.39806 0.17818 0.56067 0.0
H466 H 0.42335 0.16896 0.51015 0.0
H467 H 0.44167 0.14042 0.48672 0.0
Mn468 Mn 0.99911 0.32634 0.67745 0.0
Mn469 Mn 1.00579 0.27322 0.70581 0.0
C470 C 0.96828 0.29484 0.71925 0.0
C471 C 1.0084 0.37115 0.68223 0.0
C472 C 0.97768 0.27261 0.63508 0.0
O473 O 0.03755 0.33783 0.6602 0.0
O474 O 0.03757 0.29978 0.67707 0.0
C475 C 0.05004 0.3077 0.75716 0.0
N476 N 0.02541 0.2854 0.75089 0.0
C477 C 1.01954 0.27443 0.81503 0.0
C478 C 0.04487 0.29718 0.82212 0.0
C479 C 0.06014 0.31393 0.79305 0.0
C480 C 1.01023 0.26963 0.77881 0.0
H481 H 0.06183 0.3208 0.73504 0.0
C482 C 0.04874 0.32312 0.66166 0.0
O483 O 1.00017 0.35805 0.65161 0.0
O484 O 1.01237 0.35874 0.70945 0.0
N485 N 0.97791 0.24504 0.73433 0.0
C486 C 0.9573 0.22105 0.72171 0.0
C487 C 0.94193 0.20004 0.74648 0.0
C488 C 0.94794 0.20385 0.78402 0.0
C489 C 0.97023 0.22805 0.79614 0.0
C490 C 0.98544 0.2478 0.76992 0.0
H491 H 0.95294 0.21781 0.69281 0.0
O492 O 0.96233 0.31062 0.70044 0.0
O493 O 0.99262 0.29873 0.71434 0.0
O494 O 0.98408 0.29761 0.63712 0.0
O495 O 0.98368 0.26036 0.66004 0.0
C496 C 0.97893 0.23262 0.83286 0.0
C497 C 1.00337 0.25606 0.8424 0.0
H498 H 0.05287 0.30187 0.84971 0.0
H499 H 0.07969 0.33159 0.79828 0.0
H500 H 0.92538 0.18101 0.7367 0.0
H501 H 0.93583 0.18772 0.80311 0.0
H502 H 0.9673 0.21792 0.8538 0.0
H503 H 1.01003 0.25929 0.87065 0.0
Mn504 Mn 0.71048 0.6731 0.68081 0.0
Mn505 Mn 0.76281 0.73345 0.70683 0.0
C506 C 0.74274 0.67488 0.72219 0.0
C507 C 0.66656 0.6369 0.68908 0.0
C508 C 0.76337 0.70551 0.63689 0.0
O509 O 0.69772 0.6993 0.66286 0.0
O510 O 0.73542 0.73778 0.67805 0.0
C511 C 0.72853 0.74346 0.75804 0.0
N512 N 0.75094 0.74121 0.75175 0.0
C513 C 0.76264 0.74693 0.81572 0.0
C514 C 0.73977 0.74943 0.82281 0.0
C515 C 0.72261 0.74762 0.79384 0.0
C516 C 0.76717 0.74222 0.77959 0.0
H517 H 0.71512 0.74189 0.736 0.0
C518 C 0.71194 0.72516 0.66331 0.0
O519 O 0.67851 0.6412 0.65764 0.0
O520 O 0.6793 0.65445 0.71463 0.0
N521 N 0.79161 0.7344 0.73522 0.0
C522 C 0.81552 0.73769 0.72247 0.0
C523 C 0.83666 0.74318 0.74711 0.0
C524 C 0.83319 0.74571 0.78459 0.0
C525 C 0.80911 0.74403 0.79678 0.0
C526 C 0.78912 0.73938 0.77069 0.0
H527 H 0.81849 0.73637 0.69358 0.0
O528 O 0.72736 0.65291 0.70417 0.0
O529 O 0.73822 0.69499 0.71654 0.0
O530 O 0.73865 0.68657 0.6395 0.0
O531 O 0.77539 0.72392 0.66136 0.0
C532 C 0.8048 0.74833 0.83342 0.0
C533 C 0.78134 0.74936 0.84299 0.0
H534 H 0.73528 0.7529 0.85033 0.0
H535 H 0.70487 0.74945 0.79909 0.0
H536 H 0.85553 0.74534 0.73727 0.0
H537 H 0.84944 0.74967 0.80358 0.0
H538 H 0.81965 0.75144 0.85431 0.0
H539 H 0.77832 0.75289 0.8712 0.0
Mn540 Mn 0.35607 0.32219 0.66181 0.0
Mn541 Mn 0.41309 0.32448 0.63187 0.0
C542 C 0.35356 0.28797 0.62361 0.0
C543 C 0.32138 0.3326 0.6553 0.0
C544 C 0.38914 0.30251 0.7063 0.0
O545 O 0.38479 0.36138 0.67394 0.0
O546 O 0.42081 0.35935 0.6546 0.0
C547 C 0.41787 0.36237 0.57246 0.0
N548 N 0.41765 0.33924 0.58353 0.0
C549 C 0.41925 0.32668 0.52122 0.0
C550 C 0.42056 0.35087 0.50931 0.0
C551 C 0.4196 0.36866 0.53505 0.0
C552 C 0.41709 0.32131 0.55884 0.0
H553 H 0.41616 0.37565 0.59195 0.0
C554 C 0.41025 0.37249 0.66866 0.0
O555 O 0.32711 0.32626 0.68699 0.0
O556 O 0.3367 0.33449 0.62814 0.0
N557 N 0.41086 0.29322 0.60879 0.0
C558 C 0.41351 0.27299 0.62523 0.0
C559 C 0.41726 0.25467 0.60372 0.0
C560 C 0.4186 0.2575 0.56551 0.0
C561 C 0.41705 0.27916 0.54928 0.0
C562 C 0.41434 0.29734 0.5723 0.0
H563 H 0.41316 0.27108 0.65463 0.0
O564 O 0.33308 0.28408 0.64319 0.0
O565 O 0.37459 0.3121 0.62599 0.0
O566 O 0.37038 0.30863 0.70353 0.0
O567 O 0.4067 0.3073 0.68124 0.0
C568 C 0.41932 0.28411 0.51133 0.0
C569 C 0.41997 0.30767 0.49726 0.0
H570 H 0.42201 0.35583 0.48048 0.0
H571 H 0.41999 0.38709 0.52605 0.0
H572 H 0.41905 0.23835 0.61656 0.0
H573 H 0.42122 0.24317 0.54898 0.0
H574 H 0.42087 0.27011 0.49279 0.0
H575 H 0.42166 0.31128 0.46805 0.0
Mn576 Mn 0.71966 0.04344 0.68288 0.0
Mn577 Mn 0.77371 0.03869 0.71308 0.0
C578 C 0.74901 0.07341 0.72659 0.0
C579 C 0.67477 0.03454 0.68612 0.0
C580 C 0.77371 0.06505 0.64149 0.0
O581 O 0.70942 1.00506 0.66708 0.0
O582 O 0.74773 1.00566 0.68528 0.0
C583 C 0.74394 0.99361 0.76552 0.0
N584 N 0.76444 0.01917 0.7583 0.0
C585 C 0.78259 0.02352 0.81907 0.0
C586 C 0.76174 0.9972 0.82713 0.0
C587 C 0.7422 0.98228 0.80033 0.0
C588 C 0.78292 0.03397 0.78419 0.0
H589 H 0.72912 0.98191 0.74485 0.0
C590 C 0.72432 0.9941 0.66993 0.0
O591 O 0.68829 0.04231 0.65585 0.0
O592 O 0.68658 0.03016 0.71373 0.0
N593 N 0.80066 0.06855 0.74074 0.0
C594 C 0.81919 0.09385 0.72885 0.0
C595 C 0.8394 0.11186 0.75294 0.0
C596 C 0.841 0.10332 0.78853 0.0
C597 C 0.82233 0.07686 0.79973 0.0
C598 C 0.8022 0.06006 0.77483 0.0
H599 H 0.81846 0.10033 0.70125 0.0
O600 O 0.73436 0.07994 0.70618 0.0
O601 O 0.74623 0.04949 0.72095 0.0
O602 O 0.74882 0.05881 0.64281 0.0
O603 O 0.78561 0.05986 0.66736 0.0
C604 C 0.82287 0.06649 0.83465 0.0
C605 C 0.803 0.03984 0.84432 0.0
H606 H 0.76048 0.98828 0.85382 0.0
H607 H 0.726 0.96198 0.80637 0.0
H608 H 0.85388 0.13217 0.74398 0.0
H609 H 0.85672 0.1172 0.80696 0.0
H610 H 0.83823 0.07897 0.85445 0.0
H611 H 0.80337 0.03225 0.87145 0.0
Mn612 Mn 0.99582 0.68543 0.65968 0.0
Mn613 Mn 0.93675 0.62984 0.63814 0.0
C614 C 0.96553 0.68848 0.62 0.0
C615 C 0.04095 0.71867 0.65181 0.0
C616 C 0.94523 0.65952 0.70849 0.0
O617 O 1.00346 0.65456 0.67192 0.0
O618 O 0.96154 0.61964 0.66406 0.0
C619 C 0.96156 0.61226 0.581 0.0
N620 N 0.94158 0.61723 0.59192 0.0
C621 C 0.91982 0.60446 0.53302 0.0
C622 C 0.93921 0.59757 0.52194 0.0
C623 C 0.96047 0.60198 0.54581 0.0
C624 C 0.92213 0.61484 0.56831 0.0
H625 H 0.97833 0.61639 0.5989 0.0
C626 C 0.98615 0.62925 0.67454 0.0
O627 O 0.02968 0.71353 0.68367 0.0
O628 O 0.0269 0.7028 0.62509 0.0
N629 N 0.91029 0.63571 0.61345 0.0
C630 C 0.89485 0.64584 0.62713 0.0
C631 C 0.87449 0.64589 0.60522 0.0
C632 C 0.86967 0.63481 0.5699 0.0
C633 C 0.88528 0.62377 0.55681 0.0
C634 C 0.90551 0.6246 0.57974 0.0
H635 H 0.89821 0.65402 0.65447 0.0
O636 O 0.98253 0.7095 0.63881 0.0
O637 O 0.96623 0.66621 0.62586 0.0
O638 O 0.9704 0.67554 0.70352 0.0
O639 O 0.9298 0.64206 0.68504 0.0
C640 C 0.88173 0.6122 0.52181 0.0
C641 C 0.89895 0.60248 0.50993 0.0
H642 H 0.93848 0.58973 0.49477 0.0
H643 H 0.97606 0.59762 0.53703 0.0
H644 H 0.86244 0.65432 0.6156 0.0
H645 H 0.85395 0.63489 0.55307 0.0
H646 H 0.86622 0.61123 0.50349 0.0
H647 H 0.89656 0.59439 0.48256 0.0
H648 H 0.28662 0.37835 0.12504 0.0
H649 H 0.21572 0.36802 0.07012 0.0
H650 H 0.21532 0.35503 0.18715 0.0
H651 H 0.18634 0.36707 0.19339 0.0
H652 H 0.11967 0.36988 0.14507 0.0
H653 H 0.17707 0.36526 0.07496 0.0
C654 C 0.26581 0.37407 0.12644 0.0
C655 C 0.25246 0.36722 0.15994 0.0
C656 C 0.25172 0.37176 0.09412 0.0
C657 C 0.22542 0.36826 0.09567 0.0
C658 C 0.21222 0.36468 0.12985 0.0
C659 C 0.22544 0.36158 0.1612 0.0
C660 C 0.18548 0.36462 0.13346 0.0
C661 C 0.17559 0.36606 0.16853 0.0
C662 C 0.15184 0.36751 0.17252 0.0
C663 C 0.13764 0.36802 0.14176 0.0
C664 C 0.14693 0.36748 0.1068 0.0
C665 C 0.17048 0.36537 0.10249 0.0
H666 H 0.67798 0.9286 0.13426 0.0
H667 H 0.6764 0.86783 0.06445 0.0
H668 H 0.70118 0.87308 0.17831 0.0
H669 H 0.68443 0.83021 0.17681 0.0
H670 H 0.66909 0.76236 0.11066 0.0
H671 H 0.69023 0.83811 0.05861 0.0
C672 C 0.68145 0.91155 0.13055 0.0
C673 C 0.68937 0.9016 0.16031 0.0
C674 C 0.67865 0.90059 0.09586 0.0
C675 C 0.68097 0.87717 0.09114 0.0
C676 C 0.68778 0.86557 0.12115 0.0
C677 C 0.69386 0.87953 0.15515 0.0
C678 C 0.68608 0.83803 0.11802 0.0
C679 C 0.68327 0.82225 0.14974 0.0
C680 C 0.67783 0.79522 0.14721 0.0
C681 C 0.67409 0.78345 0.11278 0.0
C682 C 0.67993 0.79917 0.08116 0.0
C683 C 0.68578 0.82638 0.08355 0.0
H684 H 0.29106 0.92395 0.13149 0.0
H685 H 0.21613 0.87206 0.07684 0.0
H686 H 0.22775 0.85952 0.19147 0.0
H687 H 0.18529 0.83524 0.19473 0.0
H688 H 0.12335 0.7655 0.14122 0.0
H689 H 0.18515 0.82865 0.07629 0.0
C690 C 0.27073 0.90661 0.13219 0.0
C691 C 0.26039 0.89306 0.1652 0.0
C692 C 0.25477 0.89948 0.10067 0.0
C693 C 0.22825 0.87692 0.10146 0.0
C694 C 0.21772 0.86131 0.134 0.0
C695 C 0.23436 0.87021 0.1658 0.0
C696 C 0.19006 0.83575 0.13526 0.0
C697 C 0.17724 0.82467 0.16928 0.0
C698 C 0.15358 0.79929 0.17121 0.0
C699 C 0.14155 0.78521 0.13932 0.0
C700 C 0.1523 0.79601 0.10512 0.0
C701 C 0.17662 0.82121 0.103 0.0
H702 H 0.36779 0.10494 0.87005 0.0
H703 H 0.37639 0.17295 0.9318 0.0
H704 H 0.36234 0.16845 0.81453 0.0
H705 H 0.38708 0.21205 0.81707 0.0
H706 H 0.3819 0.27621 0.86968 0.0
H707 H 0.35981 0.20263 0.92942 0.0
C708 C 0.36726 0.12383 0.87121 0.0
C709 C 0.36496 0.13557 0.83889 0.0
C710 C 0.371 0.13698 0.90463 0.0
C711 C 0.37198 0.16238 0.90594 0.0
C712 C 0.36931 0.17472 0.87346 0.0
C713 C 0.36497 0.16035 0.84008 0.0
C714 C 0.37313 0.20316 0.87351 0.0
C715 C 0.38229 0.21936 0.84156 0.0
C716 C 0.38466 0.24515 0.84004 0.0
C717 C 0.38007 0.25622 0.87122 0.0
C718 C 0.37149 0.24123 0.90366 0.0
C719 C 0.3675 0.21446 0.90464 0.0
H720 H 0.76878 0.11591 0.88802 0.0
H721 H 0.84004 0.17199 0.94649 0.0
H722 H 0.84289 0.16216 0.82964 0.0
H723 H 0.86641 0.20868 0.83013 0.0
H724 H 0.9466 0.25635 0.87361 0.0
H725 H 0.8849 0.19606 0.94083 0.0
C726 C 0.79004 0.1313 0.88775 0.0
C727 C 0.80433 0.13749 0.85502 0.0
C728 C 0.80344 0.14156 0.92085 0.0
C729 C 0.83049 0.16303 0.9207 0.0
C730 C 0.84461 0.17252 0.88709 0.0
C731 C 0.83174 0.1578 0.85498 0.0
C732 C 0.87262 0.19701 0.88452 0.0
C733 C 0.88098 0.21257 0.85173 0.0
C734 C 0.90812 0.23301 0.84643 0.0
C735 C 0.92586 0.24007 0.87639 0.0
C736 C 0.91662 0.22915 0.91111 0.0
C737 C 0.89087 0.20594 0.91447 0.0
H738 H 0.78566 0.69526 0.87724 0.0
H739 H 0.84141 0.68313 0.94279 0.0
H740 H 0.82576 0.65583 0.83131 0.0
H741 H 0.86751 0.67082 0.82353 0.0
H742 H 0.93292 0.66713 0.87392 0.0
H743 H 0.87657 0.67623 0.94183 0.0
C744 C 0.80094 0.68912 0.8792 0.0
C745 C 0.80597 0.67734 0.8489 0.0
C746 C 0.81064 0.68741 0.91373 0.0
C747 C 0.83265 0.68241 0.91624 0.0
C748 C 0.84123 0.67424 0.88469 0.0
C749 C 0.82442 0.66783 0.85319 0.0
C750 C 0.86681 0.67201 0.88336 0.0
C751 C 0.87689 0.66993 0.84886 0.0
C752 C 0.90008 0.66758 0.84576 0.0
C753 C 0.91463 0.66849 0.87679 0.0
C754 C 0.90663 0.6722 0.91125 0.0
C755 C 0.88254 0.67367 0.91484 0.0
H756 H 0.94641 0.70987 0.45651 0.0
H757 H 0.8757 0.69782 0.399 0.0
H758 H 0.87374 0.68452 0.51599 0.0
H759 H 0.84585 0.69781 0.5218 0.0
H760 H 0.78003 0.7018 0.47293 0.0
H761 H 0.83691 0.69547 0.40342 0.0
C762 C 0.92542 0.70508 0.45708 0.0
C763 C 0.91147 0.69786 0.49005 0.0
C764 C 0.91171 0.70224 0.42428 0.0
C765 C 0.88517 0.69826 0.42484 0.0
C766 C 0.87152 0.69464 0.4587 0.0
C767 C 0.88429 0.69151 0.4904 0.0
C768 C 0.84495 0.69487 0.46193 0.0
C769 C 0.83515 0.69671 0.49686 0.0
C770 C 0.81166 0.69859 0.50073 0.0
C771 C 0.7977 0.6994 0.46981 0.0
C772 C 0.80702 0.69854 0.4349 0.0
C773 C 0.83023 0.69578 0.43084 0.0
H774 H 0.35856 0.26147 0.46797 0.0
H775 H 0.34936 0.19596 0.40132 0.0
H776 H 0.32625 0.18194 0.51492 0.0
H777 H 0.34669 0.15694 0.51545 0.0
H778 H 0.32382 0.0831 0.45813 0.0
H779 H 0.33236 0.15199 0.39847 0.0
C780 C 0.35308 0.24026 0.46576 0.0
C781 C 0.34392 0.22333 0.49663 0.0
C782 C 0.3519 0.22956 0.43119 0.0
C783 C 0.3479 0.20305 0.4281 0.0
C784 C 0.34058 0.18581 0.45912 0.0
C785 C 0.33583 0.19565 0.4922 0.0
C786 C 0.33726 0.15768 0.45771 0.0
C787 C 0.34009 0.14552 0.49024 0.0
C788 C 0.33475 0.11851 0.4907 0.0
C789 C 0.32761 0.10386 0.4581 0.0
C790 C 0.32912 0.11665 0.42485 0.0
C791 C 0.3327 0.1431 0.42453 0.0
H792 H 0.951 0.25366 0.46757 0.0
H793 H 0.88406 0.19016 0.40854 0.0
H794 H 0.88442 0.19325 0.52711 0.0
H795 H 0.86317 0.15087 0.5266 0.0
H796 H 0.79257 0.08644 0.48008 0.0
H797 H 0.83961 0.15869 0.41585 0.0
C798 C 0.93142 0.23526 0.46749 0.0
C799 C 0.91933 0.2234 0.50056 0.0
C800 C 0.91823 0.22405 0.43434 0.0
C801 C 0.89326 0.19934 0.43442 0.0
C802 C 0.8809 0.18663 0.46801 0.0
C803 C 0.89375 0.20032 0.50073 0.0
C804 C 0.85577 0.15885 0.47013 0.0
C805 C 0.85004 0.14362 0.50299 0.0
C806 C 0.82658 0.1186 0.50682 0.0
C807 C 0.81018 0.10643 0.4767 0.0
C808 C 0.81458 0.12052 0.44355 0.0
C809 C 0.83705 0.14721 0.44067 0.0
H810 H 1.0169 0.4323 0.21028 0.0
H811 H 0.03265 0.50325 0.27126 0.0
H812 H 1.01553 0.49771 0.15473 0.0
H813 H 0.04229 0.54034 0.15497 0.0
H814 H 0.04381 0.60851 0.20489 0.0
H815 H 1.01947 0.53616 0.26897 0.0
C816 C 1.01757 0.45178 0.21157 0.0
C817 C 1.01652 0.4642 0.17919 0.0
C818 C 1.02319 0.46557 0.24482 0.0
C819 C 0.0265 0.49205 0.24585 0.0
C820 C 1.02386 0.5045 0.21335 0.0
C821 C 1.01791 0.48952 0.18035 0.0
C822 C 0.02978 0.53369 0.21231 0.0
C823 C 0.03859 0.54873 0.17926 0.0
C824 C 0.0425 0.57505 0.17653 0.0
C825 C 0.04017 0.58785 0.20734 0.0
C826 C 0.03231 0.57425 0.24083 0.0
C827 C 0.02651 0.54688 0.24327 0.0
H828 H 0.44707 0.43694 0.19944 0.0
H829 H 0.50308 0.5045 0.26303 0.0
H830 H 0.49425 0.51348 0.14676 0.0
H831 H 0.52686 0.55301 0.14944 0.0
H832 H 0.60588 0.59871 0.19584 0.0
H833 H 0.5427 0.53913 0.26124 0.0
C834 C 0.46269 0.45814 0.20063 0.0
C835 C 0.46975 0.47397 0.16887 0.0
C836 C 0.47295 0.46974 0.2346 0.0
C837 C 0.49484 0.49652 0.23637 0.0
C838 C 0.50481 0.51262 0.20417 0.0
C839 C 0.48996 0.50149 0.17128 0.0
C840 C 0.53132 0.53954 0.20393 0.0
C841 C 0.54043 0.55593 0.17183 0.0
C842 C 0.56775 0.57612 0.1676 0.0
C843 C 0.58501 0.58258 0.19787 0.0
C844 C 0.57509 0.57132 0.23206 0.0
C845 C 0.54898 0.54858 0.23475 0.0
H846 H 0.43006 0.99877 0.22725 0.0
H847 H 0.50397 0.01718 0.28185 0.0
H848 H 0.50141 0.0249 0.16426 0.0
H849 H 0.52897 1.01078 0.15941 0.0
H850 H 0.60217 0.02073 0.20459 0.0
H851 H 0.54566 0.02636 0.27574 0.0
C852 C 0.45142 1.00507 0.22585 0.0
C853 C 0.46428 1.01119 0.19206 0.0
C854 C 0.46634 1.00981 0.25808 0.0
C855 C 0.49348 1.01548 0.25644 0.0
C856 C 0.50627 0.01858 0.22211 0.0
C857 C 0.49185 0.01913 0.19064 0.0
C858 C 0.5336 0.02016 0.21806 0.0
C859 C 0.54181 1.01583 0.18327 0.0
C860 C 0.5668 0.01714 0.17837 0.0
C861 C 0.58331 0.02086 0.20841 0.0
C862 C 0.57526 0.02309 0.24349 0.0
C863 C 0.55099 0.02386 0.24834 0.0
H864 H 0.62454 0.04824 0.78372 0.0
H865 H 0.55073 0.02789 0.72727 0.0
H866 H 0.55311 0.02346 0.84539 0.0
H867 H 0.52289 0.03347 0.84983 0.0
H868 H 0.45144 0.02532 0.8015 0.0
H869 H 0.51024 0.02215 0.73221 0.0
C870 C 0.60324 0.04234 0.78456 0.0
C871 C 0.59018 0.03668 0.81807 0.0
C872 C 0.58844 0.03642 0.75212 0.0
C873 C 0.56125 0.03083 0.75297 0.0
C874 C 0.54829 0.0287 0.78708 0.0
C875 C 0.56267 0.02894 0.81904 0.0
C876 C 0.52059 0.0266 0.79043 0.0
C877 C 0.51103 0.02941 0.82518 0.0
C878 C 0.48579 0.02779 0.82919 0.0
C879 C 0.47042 0.02534 0.7983 0.0
C880 C 0.47955 0.02423 0.76338 0.0
C881 C 0.50405 0.02373 0.75948 0.0
H882 H 1.00637 0.58597 0.79969 0.0
H883 H 1.00962 0.52639 0.73252 0.0
H884 H 0.03408 0.53483 0.84665 0.0
H885 H 1.01771 0.49182 0.84794 0.0
H886 H 1.00405 0.42282 0.78558 0.0
H887 H 1.02287 0.49646 0.72943 0.0
C888 C 1.01063 0.56937 0.79696 0.0
C889 C 1.02023 0.56144 0.82711 0.0
C890 C 1.00921 0.55842 0.76251 0.0
C891 C 1.0128 0.53568 0.75913 0.0
C892 C 1.01979 0.52508 0.79011 0.0
C893 C 0.02573 0.53995 0.82328 0.0
C894 C 1.01898 0.49795 0.78871 0.0
C895 C 1.01666 0.48321 0.82134 0.0
C896 C 1.01191 0.45637 0.82029 0.0
C897 C 1.00842 0.44377 0.78655 0.0
C898 C 1.01362 0.45853 0.75416 0.0
C899 C 1.01885 0.48554 0.75501 0.0
H900 H 0.61556 0.5831 0.80518 0.0
H901 H 0.55243 0.51926 0.74275 0.0
H902 H 0.54891 0.5197 0.86154 0.0
H903 H 0.52201 0.47778 0.8597 0.0
H904 H 0.45409 0.41642 0.80236 0.0
H905 H 0.51063 0.48759 0.74404 0.0
C906 C 0.59653 0.5641 0.80421 0.0
C907 C 0.58368 0.5517 0.83668 0.0
C908 C 0.58481 0.55285 0.77051 0.0
C909 C 0.56032 0.52787 0.7693 0.0
C910 C 0.54679 0.51446 0.80207 0.0
C911 C 0.55867 0.5276 0.83565 0.0
C912 C 0.52084 0.48709 0.80169 0.0
C913 C 0.51127 0.47122 0.83406 0.0
C914 C 0.48695 0.44638 0.8344 0.0
C915 C 0.47275 0.43578 0.80197 0.0
C916 C 0.48157 0.45045 0.76938 0.0
C917 C 0.50507 0.47633 0.76941 0.0
H918 H 0.68407 0.76339 0.53738 0.0
H919 H 0.68381 0.8243 0.60606 0.0
H920 H 0.69191 0.83484 0.48822 0.0
H921 H 0.6781 0.86247 0.49112 0.0
H922 H 0.68978 0.93095 0.55198 0.0
H923 H 0.6944 0.86684 0.6081 0.0
C924 C 0.68382 0.78234 0.54028 0.0
C925 C 0.68658 0.79782 0.50933 0.0
C926 C 0.68422 0.79246 0.57512 0.0
C927 C 0.68399 0.81721 0.57879 0.0
C928 C 0.68526 0.83283 0.54735 0.0
C929 C 0.68792 0.82301 0.51291 0.0
C930 C 0.68529 0.85968 0.54967 0.0
C931 C 0.68204 0.87209 0.5175 0.0
C932 C 0.68471 0.89804 0.51825 0.0
C933 C 0.68759 0.91078 0.55159 0.0
C934 C 0.69103 0.89955 0.58384 0.0
C935 C 0.6901 0.87418 0.58304 0.0
H936 H 0.0916 0.78214 0.54931 0.0
H937 H 0.16338 0.83535 0.60895 0.0
H938 H 0.1656 0.82888 0.49134 0.0
H939 H 0.1903 0.87424 0.49326 0.0
H940 H 0.2706 0.91937 0.53649 0.0
H941 H 0.20757 0.86143 0.60441 0.0
C942 C 0.1129 0.79742 0.54927 0.0
C943 C 0.12706 0.80452 0.51641 0.0
C944 C 0.12664 0.80622 0.58245 0.0
C945 C 0.15368 0.82754 0.58285 0.0
C946 C 0.16769 0.83787 0.54946 0.0
C947 C 0.15459 0.82423 0.51681 0.0
C948 C 0.19588 0.86193 0.54755 0.0
C949 C 0.20467 0.87731 0.51481 0.0
C950 C 0.23201 0.8966 0.50935 0.0
C951 C 0.24969 0.9035 0.53934 0.0
C952 C 0.24008 0.89326 0.57419 0.0
C953 C 0.21392 0.87071 0.57778 0.0
H954 H 0.1172 0.35523 0.53859 0.0
H955 H 0.17275 0.34339 0.60411 0.0
H956 H 0.16165 0.32077 0.49042 0.0
H957 H 0.2044 0.33614 0.48573 0.0
H958 H 0.26797 0.33235 0.54289 0.0
H959 H 0.20548 0.33456 0.60464 0.0
C960 C 0.13291 0.34967 0.54033 0.0
C961 C 0.13916 0.33934 0.50948 0.0
C962 C 0.14233 0.3476 0.57479 0.0
C963 C 0.16459 0.3431 0.5773 0.0
C964 C 0.17441 0.33644 0.54551 0.0
C965 C 0.15874 0.33114 0.51313 0.0
C966 C 0.20016 0.33453 0.54535 0.0
C967 C 0.21263 0.33453 0.51171 0.0
C968 C 0.23669 0.33325 0.51086 0.0
C969 C 0.24915 0.3329 0.54356 0.0
C970 C 0.23806 0.33375 0.57709 0.0
C971 C 0.21356 0.33429 0.57815 0.0
C972 C 1.00244 0.43034 0.08524 0.0
C973 C 0.02629 0.42841 0.08088 0.0
C974 C 0.04462 0.45345 0.13767 0.0
C975 C 1.01984 0.45307 0.14408 0.0
N976 N 0.97362 0.43789 0.12673 0.0
N977 N 0.06585 0.43066 0.1087 0.0
C978 C 0.99825 0.4406 0.11861 0.0
C979 C 0.0462 0.43786 0.10876 0.0
N980 N 0.9842 0.42317 0.05723 0.0
N981 N 0.06693 0.46926 0.15862 0.0
H982 H 0.06604 0.41719 0.08955 0.0
H983 H 0.0796 0.43511 0.1301 0.0
H984 H 0.06698 0.48196 0.17918 0.0
H985 H 0.08605 0.47201 0.15291 0.0
H986 H 0.96814 0.42709 0.05711 0.0
H987 H 0.98618 0.41486 0.03296 0.0
H988 H 0.95627 0.42641 0.11111 0.0
H989 H 0.97008 0.44553 0.15068 0.0
C990 C 0.59047 0.5964 0.06761 0.0
C991 C 0.61376 0.62201 0.07441 0.0
C992 C 0.59728 0.62069 0.13619 0.0
C993 C 0.5791 0.59233 0.13295 0.0
N994 N 0.55845 0.55276 0.09332 0.0
N995 N 0.6396 0.65871 0.11654 0.0
C996 C 0.57506 0.58009 0.09778 0.0
C997 C 0.61724 0.63424 0.10912 0.0
N998 N 0.58384 0.58713 0.03264 0.0
N999 N 0.59488 0.63482 0.1647 0.0
H1000 H 0.65453 0.66971 0.09725 0.0
H1001 H 0.64426 0.66695 0.14276 0.0
H1002 H 0.57925 0.62568 0.18369 0.0
H1003 H 0.60632 0.6559 0.16688 0.0
H1004 H 0.5655 0.57023 0.02541 0.0
H1005 H 0.59615 0.59738 0.01057 0.0
H1006 H 0.5555 0.54285 0.06843 0.0
H1007 H 0.55009 0.53913 0.11485 0.0
C1008 C 0.41755 0.01842 0.12299 0.0
C1009 C 0.42156 1.00636 0.09152 0.0
C1010 C 0.44854 0.99216 0.12866 0.0
C1011 C 0.44875 1.00882 0.15784 0.0
N1012 N 0.43289 0.03914 0.18037 0.0
N1013 N 0.44185 0.98219 0.06391 0.0
C1014 C 0.43311 0.02207 0.15448 0.0
C1015 C 0.43715 0.99312 0.09427 0.0
N1016 N 0.39921 0.02726 0.12396 0.0
N1017 N 0.45776 0.97425 0.13437 0.0
H1018 H 0.43328 0.98181 0.03853 0.0
H1019 H 0.4559 0.97546 0.06327 0.0
H1020 H 0.46464 0.9716 0.15972 0.0
H1021 H 0.45573 0.95983 0.11519 0.0
H1022 H 0.38574 0.02462 0.10278 0.0
H1023 H 0.38574 0.02462 0.10278 0.0
H1024 H 0.44542 0.04562 0.20335 0.0
H1025 H 0.44542 0.04562 0.20335 0.0
C1026 C 0.45493 1.01041 0.92502 0.0
C1027 C 0.44702 0.03047 0.92873 0.0
C1028 C 0.4703 0.05183 0.87174 0.0
C1029 C 0.47531 0.03 0.86558 0.0
N1030 N 0.46894 0.9862 0.88407 0.0
N1031 N 0.44119 0.06584 0.90082 0.0
C1032 C 0.46684 1.00868 0.89171 0.0
C1033 C 0.45314 0.05005 0.9008 0.0
N1034 N 0.45153 0.99334 0.9535 0.0
N1035 N 0.48218 0.07441 0.84999 0.0
H1036 H 0.42665 0.06328 0.92003 0.0
H1037 H 0.4431 0.07892 0.87945 0.0
H1038 H 0.49543 0.07668 0.82894 0.0
H1039 H 0.4811 0.09191 0.8553 0.0
H1040 H 0.45977 0.98051 0.9541 0.0
H1041 H 0.44215 0.9935 0.97775 0.0
H1042 H 0.46037 0.96877 0.90026 0.0
H1043 H 0.47743 0.98404 0.86005 0.0
C1044 C 0.9961 0.42522 0.91643 0.0
C1045 C 1.01206 0.41229 0.91734 0.0
C1046 C 0.02872 0.42933 0.85594 0.0
C1047 C 1.01189 0.44139 0.85415 0.0
N1048 N 0.97386 0.4438 0.87886 0.0
N1049 N 0.03564 0.39417 0.883 0.0
C1050 C 0.99395 0.43741 0.88335 0.0
C1051 C 0.02586 0.41183 0.88549 0.0
N1052 N 0.98347 0.42647 0.94734 0.0
N1053 N 0.04822 0.43538 0.83018 0.0
H1054 H 0.03322 0.38034 0.90358 0.0
H1055 H 0.04347 0.39107 0.859 0.0
H1056 H 0.05331 0.45047 0.81046 0.0
H1057 H 0.06163 0.42788 0.83088 0.0
H1058 H 0.97435 0.43845 0.94955 0.0
H1059 H 0.9841 0.41731 0.97176 0.0
H1060 H 0.95858 0.43887 0.8979 0.0
H1061 H 0.97066 0.45139 0.85444 0.0
C1062 C 0.60593 0.59931 0.91861 0.0
C1063 C 0.62707 0.59533 0.93354 0.0
C1064 C 0.61458 0.55801 0.88962 0.0
C1065 C 0.59661 0.56494 0.87188 0.0
N1066 N 0.57724 0.59419 0.86652 0.0
N1067 N 0.65351 0.57241 0.92901 0.0
C1068 C 0.5929 0.58616 0.88553 0.0
C1069 C 0.63176 0.57488 0.91817 0.0
N1070 N 0.59708 0.61447 0.93679 0.0
N1071 N 0.61525 0.53521 0.87915 0.0
H1072 H 0.66691 0.58392 0.94955 0.0
H1073 H 0.65979 0.56042 0.91536 0.0
H1074 H 0.60357 0.52286 0.85765 0.0
H1075 H 0.6255 0.52721 0.89377 0.0
H1076 H 0.57976 0.61521 0.92922 0.0
H1077 H 0.60494 0.62404 0.96161 0.0
H1078 H 0.57679 0.61195 0.87234 0.0
H1079 H 0.56614 0.58417 0.84325 0.0
C1080 C 1.01536 0.581 0.9259 0.0
C1081 C 0.02747 0.60966 0.92184 0.0
C1082 C 0.0405 0.60607 0.85977 0.0
C1083 C 0.02542 0.57724 0.8617 0.0
N1084 N 0.99367 0.53736 0.89556 0.0
N1085 N 0.0458 0.64836 0.88067 0.0
C1086 C 1.01161 0.56461 0.89459 0.0
C1087 C 0.03811 0.62178 0.88752 0.0
N1088 N 1.00825 0.56945 0.95974 0.0
N1089 N 0.05729 0.61931 0.83136 0.0
H1090 H 0.04232 0.66046 0.89872 0.0
H1091 H 0.05382 0.65761 0.85556 0.0
H1092 H 0.06217 0.60959 0.81111 0.0
H1093 H 0.06217 0.60959 0.81111 0.0
H1094 H 1.00203 0.54908 0.96481 0.0
H1095 H 1.01147 0.5809 0.98325 0.0
H1096 H 0.98103 0.52781 0.91772 0.0
H1097 H 0.98942 0.52463 0.87311 0.0
C1098 C 0.45827 0.39462 0.91194 0.0
C1099 C 0.44387 0.40481 0.93204 0.0
C1100 C 0.45764 0.44198 0.88743 0.0
C1101 C 0.47386 0.43313 0.86942 0.0
N1102 N 0.49301 0.40365 0.86696 0.0
N1103 N 0.43398 0.44142 0.94199 0.0
C1104 C 0.47529 0.41028 0.88255 0.0
C1105 C 0.4447 0.42938 0.92065 0.0
N1106 N 0.45438 0.36924 0.91935 0.0
N1107 N 0.45369 0.46186 0.87205 0.0
H1108 H 0.42338 0.43304 0.96595 0.0
H1109 H 0.43754 0.4611 0.93752 0.0
H1110 H 0.46342 0.47241 0.84837 0.0
H1111 H 0.43909 0.46645 0.88109 0.0
H1112 H 0.46214 0.3596 0.90328 0.0
H1113 H 0.44114 0.35659 0.93941 0.0
H1114 H 0.49709 0.38895 0.8776 0.0
H1115 H 0.50537 0.41451 0.84505 0.0
C1116 C 0.61577 0.05185 0.91643 0.0
C1117 C 0.63071 0.03793 0.91878 0.0
C1118 C 0.62016 0.02403 0.85492 0.0
C1119 C 0.60525 0.03809 0.8523 0.0
N1120 N 0.59686 0.07271 0.87692 0.0
N1121 N 0.65571 0.02037 0.88658 0.0
C1122 C 0.60535 0.05416 0.88203 0.0
C1123 C 0.63571 0.02712 0.88679 0.0
N1124 N 0.611 0.06242 0.94708 0.0
N1125 N 0.61851 1.00667 0.82792 0.0
H1126 H 0.66819 0.02319 0.90906 0.0
H1127 H 0.66201 1.01493 0.86299 0.0
H1128 H 0.60487 1.00099 0.80619 0.0
H1129 H 0.62827 0.99525 0.82915 0.0
H1130 H 0.59717 0.06943 0.94789 0.0
H1131 H 0.61958 0.06259 0.9723 0.0
H1132 H 0.59888 0.08676 0.89669 0.0
H1133 H 0.59058 0.07619 0.85159 0.0
C1134 C 0.59549 0.99074 0.10692 0.0
C1135 C 0.60235 1.01026 0.07871 0.0
C1136 C 0.58454 0.03415 0.11514 0.0
C1137 C 0.57581 1.01333 0.14194 0.0
N1138 N 0.56712 0.96858 0.15924 0.0
N1139 N 0.59953 0.0481 0.05302 0.0
C1140 C 0.57933 0.99051 0.13638 0.0
C1141 C 0.59565 0.03123 0.08192 0.0
N1142 N 0.60592 0.9736 0.10683 0.0
N1143 N 0.58348 0.05731 0.12209 0.0
H1144 H 0.60838 0.047 0.0288 0.0
H1145 H 0.59214 0.06165 0.05203 0.0
H1146 H 0.57537 0.06025 0.14596 0.0
H1147 H 0.59244 0.07447 0.10541 0.0
H1148 H 0.60356 0.96051 0.12838 0.0
H1149 H 0.61967 0.97486 0.08717 0.0
H1150 H 0.56701 0.9504 0.15454 0.0
H1151 H 0.55478 0.96764 0.18084 0.0
C1152 C 0.02591 0.5963 0.0856 0.0
C1153 C 0.05114 0.61972 0.07744 0.0
C1154 C 0.07175 0.6104 0.1308 0.0
C1155 C 0.04604 0.58867 0.14065 0.0
N1156 N 0.99768 0.56353 0.13116 0.0
N1157 N 0.09663 0.65217 0.09635 0.0
C1158 C 1.02286 0.58227 0.11903 0.0
C1159 C 0.07376 0.62757 0.10107 0.0
N1160 N 1.00502 0.58676 0.06098 0.0
N1161 N 0.09423 0.61446 0.14978 0.0
H1162 H 0.09845 0.66592 0.07597 0.0
H1163 H 0.11274 0.66019 0.11482 0.0
H1164 H 0.0933 0.60227 0.17185 0.0
H1165 H 0.11389 0.62823 0.14171 0.0
H1166 H 0.98764 0.56784 0.06334 0.0
H1167 H 1.00566 0.59664 0.03668 0.0
H1168 H 0.97983 0.56066 0.11903 0.0
H1169 H 0.99443 0.55223 0.15506 0.0
C1170 C 0.45094 0.44822 0.06962 0.0
C1171 C 0.42478 0.4257 0.076 0.0
C1172 C 0.42579 0.44345 0.13689 0.0
C1173 C 0.4542 0.46106 0.13431 0.0
N1174 N 0.49443 0.47909 0.0966 0.0
N1175 N 0.38778 0.4009 0.11787 0.0
C1176 C 0.46697 0.4637 0.09996 0.0
C1177 C 0.41236 0.42298 0.11032 0.0
N1178 N 0.46088 0.45412 0.03496 0.0
N1179 N 0.41144 0.44699 0.16401 0.0
H1180 H 0.37698 0.3854 0.09913 0.0
H1181 H 0.37934 0.39693 0.14394 0.0
H1182 H 0.42039 0.46319 0.18234 0.0
H1183 H 0.39038 0.43596 0.16539 0.0
H1184 H 0.4783 0.47207 0.02793 0.0
H1185 H 0.45094 0.4414 0.01303 0.0
H1186 H 0.50469 0.48135 0.07225 0.0
H1187 H 0.50754 0.48692 0.11881 0.0
C1188 C 0.67451 0.7717 0.41127 0.0
C1189 C 0.69646 0.76668 0.40695 0.0
C1190 C 0.71386 0.78608 0.46724 0.0
C1191 C 0.69045 0.78839 0.47322 0.0
N1192 N 0.64621 0.77934 0.4533 0.0
N1193 N 0.73265 0.76227 0.43473 0.0
C1194 C 0.67012 0.78014 0.44584 0.0
C1195 C 0.71499 0.77203 0.43601 0.0
N1196 N 0.65825 0.76901 0.38215 0.0
N1197 N 0.73528 0.79784 0.49093 0.0
H1198 H 0.73241 0.74998 0.41349 0.0
H1199 H 0.74506 0.76354 0.45661 0.0
H1200 H 0.73555 0.8091 0.51354 0.0
H1201 H 0.75377 0.79881 0.48601 0.0
H1202 H 0.6439 0.77535 0.3824 0.0
H1203 H 0.66062 0.76235 0.35675 0.0
H1204 H 0.62953 0.77069 0.4358 0.0
H1205 H 0.64218 0.78527 0.47834 0.0
C1206 C 0.25152 0.91615 0.40819 0.0
C1207 C 0.27488 0.94172 0.41388 0.0
C1208 C 0.26065 0.94075 0.47685 0.0
C1209 C 0.24255 0.91235 0.47428 0.0
N1210 N 0.2204 0.87315 0.43311 0.0
N1211 N 0.30232 0.97846 0.45535 0.0
C1212 C 0.23733 0.90012 0.43888 0.0
C1213 C 0.27964 0.95411 0.4487 0.0
N1214 N 0.24365 0.90624 0.37367 0.0
N1215 N 0.259 0.95515 0.50559 0.0
H1216 H 0.3167 0.98934 0.43546 0.0
H1217 H 0.30782 0.98668 0.48151 0.0
H1218 H 0.24388 0.94624 0.52532 0.0
H1219 H 0.27043 0.97626 0.50724 0.0
H1220 H 0.22655 0.8874 0.36865 0.0
H1221 H 0.25381 0.9172 0.35041 0.0
H1222 H 0.21111 0.85866 0.45361 0.0
H1223 H 0.21111 0.85866 0.45361 0.0
C1224 C 0.11804 0.34126 0.40952 0.0
C1225 C 0.09266 0.33952 0.41631 0.0
C1226 C 0.09461 0.32537 0.47866 0.0
C1227 C 0.1228 0.33508 0.47515 0.0
N1228 N 0.1618 0.35289 0.43505 0.0
N1229 N 0.05684 0.33047 0.45889 0.0
C1230 C 0.13463 0.34255 0.43975 0.0
C1231 C 0.08096 0.33178 0.45138 0.0
N1232 N 0.12679 0.34293 0.3745 0.0
N1233 N 0.08064 0.30895 0.50731 0.0
H1234 H 0.04578 0.33454 0.43951 0.0
H1235 H 0.04903 0.32745 0.48528 0.0
H1236 H 0.08972 0.30188 0.52595 0.0
H1237 H 0.05967 0.29976 0.50972 0.0
H1238 H 0.14352 0.34105 0.36756 0.0
H1239 H 0.11631 0.34469 0.35223 0.0
H1240 H 0.17137 0.35913 0.40986 0.0
H1241 H 0.17559 0.35867 0.45653 0.0
C1242 C 0.13396 0.39693 0.25371 0.0
C1243 C 0.11475 0.37281 0.2722 0.0
C1244 C 0.12178 0.34521 0.22632 0.0
C1245 C 0.14155 0.36921 0.20908 0.0
N1246 N 0.1708 0.41765 0.21013 0.0
N1247 N 0.09632 0.32422 0.28087 0.0
C1248 C 0.1491 0.39497 0.22416 0.0
C1249 C 0.11038 0.34701 0.25989 0.0
N1250 N 0.13672 0.4216 0.26256 0.0
N1251 N 0.1133 0.32058 0.21009 0.0
H1252 H 0.08775 0.32401 0.30592 0.0
H1253 H 0.09545 0.3058 0.27524 0.0
H1254 H 0.12213 0.31822 0.1865 0.0
H1255 H 0.09632 0.30274 0.21857 0.0
H1256 H 0.14769 0.43905 0.24688 0.0
H1257 H 0.12635 0.42457 0.28366 0.0
H1258 H 0.17933 0.43667 0.22246 0.0
H1259 H 0.18187 0.41699 0.18793 0.0
C1260 C 0.66172 0.76342 0.24294 0.0
C1261 C 0.67697 0.74971 0.24342 0.0
C1262 C 0.69277 0.76583 0.18138 0.0
C1263 C 0.67705 0.77914 0.18036 0.0
N1264 N 0.64005 0.78293 0.20602 0.0
N1265 N 0.6982 0.72961 0.20807 0.0
C1266 C 0.65966 0.7758 0.21 0.0
C1267 C 0.68968 0.74826 0.211 0.0
N1268 N 0.64958 0.76512 0.27407 0.0
N1269 N 0.71158 0.77081 0.15497 0.0
H1270 H 0.69551 0.71572 0.2287 0.0
H1271 H 0.70512 0.72578 0.18375 0.0
H1272 H 0.71718 0.78602 0.13533 0.0
H1273 H 0.72411 0.76227 0.15503 0.0
H1274 H 0.64133 0.77786 0.27666 0.0
H1275 H 0.64944 0.75524 0.29814 0.0
H1276 H 0.62513 0.77854 0.22543 0.0
H1277 H 0.63677 0.79049 0.18163 0.0
C1278 C 0.29891 0.89984 0.25516 0.0
C1279 C 0.30908 0.92803 0.26277 0.0
C1280 C 0.28686 0.93212 0.20776 0.0
C1281 C 0.27671 0.90434 0.19942 0.0
N1282 N 0.27992 0.86391 0.20962 0.0
N1283 N 0.32507 0.97157 0.23313 0.0
C1284 C 0.2846 0.88869 0.22159 0.0
C1285 C 0.30703 0.94438 0.23481 0.0
N1286 N 0.30323 0.8837 0.27889 0.0
N1287 N 0.27676 0.94682 0.19087 0.0
H1288 H 0.34206 0.98074 0.25019 0.0
H1289 H 0.32512 0.98384 0.2117 0.0
H1290 H 0.26043 0.93823 0.1727 0.0
H1291 H 0.28264 0.96675 0.19834 0.0
H1292 H 0.29207 0.86256 0.27809 0.0
H1293 H 0.3184 0.89119 0.29865 0.0
H1294 H 0.28757 0.8527 0.22261 0.0
H1295 H 0.27058 0.85564 0.18466 0.0
C1296 C 0.67714 0.9154 0.25892 0.0
C1297 C 0.69037 0.94424 0.25806 0.0
C1298 C 0.70879 0.94391 0.19789 0.0
C1299 C 0.69263 0.91518 0.19645 0.0
N1300 N 0.65731 0.87386 0.22374 0.0
N1301 N 0.71259 0.98532 0.2217 0.0
C1302 C 0.67586 0.90087 0.22661 0.0
C1303 C 0.70454 0.95839 0.22616 0.0
N1304 N 0.66597 0.90182 0.2907 0.0
N1305 N 0.72794 0.95736 0.17172 0.0
H1306 H 0.70863 0.99655 0.24065 0.0
H1307 H 0.72065 0.99585 0.19741 0.0
H1308 H 0.73254 0.9472 0.15176 0.0
H1309 H 0.74107 0.97825 0.17199 0.0
H1310 H 0.65871 0.88107 0.29406 0.0
H1311 H 0.66658 0.91178 0.3148 0.0
H1312 H 0.64256 0.86327 0.24337 0.0
H1313 H 0.65484 0.86243 0.20039 0.0
C1314 C 0.10924 0.77817 0.25627 0.0
C1315 C 0.10907 0.75357 0.26539 0.0
C1316 C 0.14319 0.76332 0.21826 0.0
C1317 C 0.14102 0.78607 0.20653 0.0
N1318 N 0.11919 0.81313 0.21074 0.0
N1319 N 0.12163 0.71996 0.24956 0.0
C1320 C 0.12333 0.79301 0.2246 0.0
C1321 C 0.125 0.74544 0.24496 0.0
N1322 N 0.09689 0.78804 0.27846 0.0
N1323 N 0.1628 0.75891 0.20389 0.0
H1324 H 0.10743 0.70566 0.26739 0.0
H1325 H 0.13073 0.71196 0.23288 0.0
H1326 H 0.17651 0.7717 0.1843 0.0
H1327 H 0.16714 0.74422 0.21389 0.0
H1328 H 0.09929 0.80742 0.27559 0.0
H1329 H 0.08594 0.7779 0.30157 0.0
H1330 H 0.10399 0.8168 0.21989 0.0
H1331 H 0.12971 0.82499 0.18826 0.0
C1332 C 0.29842 0.35194 0.22039 0.0
C1333 C 0.29546 0.36134 0.25499 0.0
C1334 C 0.26808 0.37889 0.22597 0.0
C1335 C 0.26679 0.36487 0.19321 0.0
N1336 N 0.2772 0.33348 0.16221 0.0
N1337 N 0.27509 0.38174 0.29145 0.0
C1338 C 0.28099 0.35007 0.19128 0.0
C1339 C 0.27964 0.3743 0.25799 0.0
N1340 N 0.31844 0.34564 0.21482 0.0
N1341 N 0.25985 0.39784 0.22611 0.0
H1342 H 0.28307 0.37857 0.31545 0.0
H1343 H 0.26128 0.38849 0.29567 0.0
H1344 H 0.25301 0.40327 0.20276 0.0
H1345 H 0.26276 0.41042 0.24836 0.0
H1346 H 0.32308 0.34126 0.18914 0.0
H1347 H 0.33243 0.34777 0.23492 0.0
H1348 H 0.28673 0.32191 0.15977 0.0
H1349 H 0.26212 0.32868 0.14261 0.0
C1350 C 0.27718 0.35605 0.42197 0.0
C1351 C 0.27918 0.33258 0.41348 0.0
C1352 C 0.24979 0.30858 0.46558 0.0
C1353 C 0.24972 0.33268 0.47581 0.0
N1354 N 0.26729 0.38077 0.46761 0.0
N1355 N 0.27238 0.28873 0.43219 0.0
C1356 C 0.26449 0.35682 0.45505 0.0
C1357 C 0.26681 0.30942 0.43668 0.0
N1358 N 0.28642 0.37726 0.39789 0.0
N1359 N 0.23313 0.28469 0.48308 0.0
H1360 H 0.28558 0.28907 0.41226 0.0
H1361 H 0.26624 0.27263 0.45053 0.0
H1362 H 0.22028 0.28327 0.50424 0.0
H1363 H 0.2302 0.26593 0.47444 0.0
H1364 H 0.28234 0.3932 0.40034 0.0
H1365 H 0.29649 0.37808 0.3739 0.0
H1366 H 0.28048 0.39959 0.45608 0.0
H1367 H 0.25808 0.38218 0.49142 0.0
C1368 C 0.67214 0.92152 0.42551 0.0
C1369 C 0.69654 0.94687 0.42153 0.0
C1370 C 0.71405 0.93768 0.4779 0.0
C1371 C 0.68867 0.914 0.48404 0.0
N1372 N 0.64183 0.88609 0.46703 0.0
N1373 N 0.73733 0.98208 0.44971 0.0
C1374 C 0.66716 0.9067 0.45883 0.0
C1375 C 0.71651 0.95584 0.44945 0.0
N1376 N 0.65425 0.91081 0.39708 0.0
N1377 N 0.73615 0.94244 0.49844 0.0
H1378 H 0.73905 0.99651 0.43045 0.0
H1379 H 0.751 0.99027 0.47138 0.0
H1380 H 0.73558 0.92904 0.51853 0.0
H1381 H 0.75562 0.95812 0.49277 0.0
H1382 H 0.63791 0.89107 0.39722 0.0
H1383 H 0.65687 0.92055 0.37205 0.0
H1384 H 0.62475 0.88183 0.4515 0.0
H1385 H 0.63748 0.87477 0.49112 0.0
C1386 C 0.08044 0.74693 0.45303 0.0
C1387 C 0.08562 0.76042 0.41883 0.0
C1388 C 0.11404 0.8038 0.44977 0.0
C1389 C 0.11315 0.78954 0.48232 0.0
N1390 N 0.09924 0.7462 0.51192 0.0
N1391 N 0.10969 0.80185 0.38391 0.0
C1392 C 0.09738 0.76068 0.48311 0.0
C1393 C 0.10301 0.78896 0.41696 0.0
N1394 N 0.05891 0.72133 0.45721 0.0
N1395 N 0.12397 0.83124 0.45045 0.0
H1396 H 0.10235 0.79157 0.35933 0.0
H1397 H 0.12457 0.82213 0.38081 0.0
H1398 H 0.13058 0.84268 0.47435 0.0
H1399 H 0.12276 0.84212 0.42815 0.0
H1400 H 0.05288 0.71171 0.48252 0.0
H1401 H 0.04514 0.71094 0.43628 0.0
H1402 H 0.08826 0.7251 0.51357 0.0
H1403 H 0.11409 0.7549 0.53214 0.0
C1404 C 0.3923 0.10906 0.7651 0.0
C1405 C 0.36921 0.09431 0.74247 0.0
C1406 C 0.34258 0.10625 0.7836 0.0
C1407 C 0.36642 0.12321 0.80375 0.0
N1408 N 0.41494 0.14469 0.80998 0.0
N1409 N 0.32289 0.0815 0.72757 0.0
C1410 C 0.39158 0.12582 0.79328 0.0
C1411 C 0.34441 0.0935 0.75106 0.0
N1412 N 0.41453 0.10601 0.76082 0.0
N1413 N 0.3181 0.10169 0.79615 0.0
H1414 H 0.32289 0.07118 0.70414 0.0
H1415 H 0.30561 0.08329 0.72999 0.0
H1416 H 0.31615 0.11132 0.81922 0.0
H1417 H 0.29966 0.08703 0.78526 0.0
H1418 H 0.43089 0.11406 0.77888 0.0
H1419 H 0.4154 0.09295 0.74155 0.0
H1420 H 0.43413 0.14948 0.80096 0.0
H1421 H 0.41528 0.15743 0.83071 0.0
C1422 C 0.95574 0.29104 0.78544 0.0
C1423 C 0.95068 0.27892 0.75044 0.0
C1424 C 0.91315 0.2369 0.77595 0.0
C1425 C 0.91863 0.24912 0.81131 0.0
N1426 N 0.93552 0.2919 0.84283 0.0
N1427 N 0.91879 0.24403 0.71027 0.0
C1428 C 0.93694 0.27754 0.81387 0.0
C1429 C 0.92712 0.25326 0.74493 0.0
N1430 N 0.97843 0.31546 0.79183 0.0
N1431 N 0.89645 0.20956 0.77187 0.0
H1432 H 0.92998 0.25435 0.68739 0.0
H1433 H 0.90016 0.22708 0.70424 0.0
H1434 H 0.88951 0.19594 0.79359 0.0
H1435 H 0.89219 0.19967 0.74679 0.0
H1436 H 0.98418 0.32363 0.81798 0.0
H1437 H 0.99254 0.32645 0.77163 0.0
H1438 H 0.94704 0.31299 0.8446 0.0
H1439 H 0.9205 0.28297 0.86268 0.0
C1440 C 0.78448 0.67597 0.74818 0.0
C1441 C 0.75881 0.67373 0.75357 0.0
C1442 C 0.76127 0.66344 0.81792 0.0
C1443 C 0.78944 0.67273 0.81459 0.0
N1444 N 0.82779 0.68843 0.77269 0.0
N1445 N 0.72306 0.66673 0.7951 0.0
C1446 C 0.80094 0.67858 0.77886 0.0
C1447 C 0.7473 0.66795 0.78892 0.0
N1448 N 0.79427 0.67769 0.71376 0.0
N1449 N 0.74744 0.64875 0.84787 0.0
H1450 H 0.71173 0.66926 0.77451 0.0
H1451 H 0.71539 0.66539 0.82131 0.0
H1452 H 0.75649 0.64264 0.86787 0.0
H1453 H 0.7265 0.63975 0.85034 0.0
H1454 H 0.81305 0.67922 0.70885 0.0
H1455 H 0.7836 0.67758 0.69048 0.0
H1456 H 0.84258 0.69447 0.79298 0.0
H1457 H 0.84258 0.69447 0.79298 0.0
C1458 C 0.79617 0.72874 0.58389 0.0
C1459 C 0.77891 0.70477 0.60429 0.0
C1460 C 0.78421 0.67695 0.55696 0.0
C1461 C 0.80192 0.70079 0.53752 0.0
N1462 N 0.8296 0.74945 0.53579 0.0
N1463 N 0.7638 0.65702 0.61481 0.0
C1464 C 0.80946 0.72671 0.55213 0.0
C1465 C 0.77508 0.67915 0.59214 0.0
N1466 N 0.79892 0.7533 0.5933 0.0
N1467 N 0.77552 0.65206 0.54144 0.0
H1468 H 0.75753 0.6575 0.64128 0.0
H1469 H 0.76334 0.63883 0.60887 0.0
H1470 H 0.78248 0.6495 0.51628 0.0
H1471 H 0.75989 0.6341 0.55219 0.0
H1472 H 0.80794 0.77035 0.57642 0.0
H1473 H 0.79069 0.75665 0.61659 0.0
H1474 H 0.83837 0.76871 0.54744 0.0
H1475 H 0.83928 0.74876 0.51202 0.0
C1476 C 0.35384 0.07564 0.551 0.0
C1477 C 0.34387 0.07768 0.58556 0.0
C1478 C 0.32483 0.104 0.55724 0.0
C1479 C 0.33875 0.10573 0.52434 0.0
N1480 N 0.37171 0.09788 0.49327 0.0
N1481 N 0.32249 0.09671 0.62268 0.0
C1482 C 0.35486 0.09296 0.52227 0.0
C1483 C 0.33004 0.09266 0.58901 0.0
N1484 N 0.36135 0.05649 0.545 0.0
N1485 N 0.30552 0.11167 0.55778 0.0
H1486 H 0.32637 0.08909 0.64652 0.0
H1487 H 0.31499 0.1099 0.62724 0.0
H1488 H 0.3 0.11874 0.53474 0.0
H1489 H 0.29295 0.10831 0.5801 0.0
H1490 H 0.36629 0.05255 0.51924 0.0
H1491 H 0.35971 0.0424 0.56471 0.0
H1492 H 0.38432 0.08952 0.49085 0.0
H1493 H 0.37546 0.11277 0.47368 0.0
C1494 C 0.94032 0.26265 0.58976 0.0
C1495 C 0.96105 0.25728 0.60254 0.0
C1496 C 0.9512 0.22628 0.55051 0.0
C1497 C 0.93367 0.235 0.53559 0.0
N1498 N 0.91408 0.26411 0.53824 0.0
N1499 N 0.98784 0.23529 0.59213 0.0
C1500 C 0.92901 0.25397 0.5544 0.0
C1501 C 0.96678 0.23922 0.58235 0.0
N1502 N 0.93034 0.27491 0.61202 0.0
N1503 N 0.95268 0.20529 0.5345 0.0
H1504 H 0.99943 0.24316 0.61562 0.0
H1505 H 0.99519 0.22559 0.57542 0.0
H1506 H 0.94232 0.19593 0.51048 0.0
H1507 H 0.96239 0.1957 0.54654 0.0
H1508 H 0.91331 0.2765 0.60551 0.0
H1509 H 0.93696 0.28085 0.63869 0.0
H1510 H 0.91281 0.28051 0.54873 0.0
H1511 H 0.90481 0.2577 0.51272 0.0
C1512 C 0.34035 0.27417 0.55866 0.0
C1513 C 0.34922 0.26932 0.5927 0.0
C1514 C 0.35024 0.23004 0.56642 0.0
C1515 C 0.34143 0.23519 0.53217 0.0
N1516 N 0.31484 0.25297 0.50396 0.0
N1517 N 0.35309 0.23711 0.63203 0.0
C1518 C 0.33221 0.25435 0.53094 0.0
C1519 C 0.35052 0.2451 0.59773 0.0
N1520 N 0.33976 0.29766 0.5524 0.0
N1521 N 0.36025 0.21256 0.56898 0.0
H1522 H 0.35614 0.24916 0.65484 0.0
H1523 H 0.3509 0.2181 0.63789 0.0
H1524 H 0.36525 0.20489 0.54645 0.0
H1525 H 0.367 0.20829 0.59331 0.0
H1526 H 0.3358 0.30293 0.52664 0.0
H1527 H 0.34551 0.31288 0.5719 0.0
H1528 H 0.306 0.26529 0.5035 0.0
H1529 H 0.30687 0.23732 0.48474 0.0
C1530 C 0.80789 0.07343 0.59113 0.0
C1531 C 0.78997 0.08058 0.60902 0.0
C1532 C 0.79827 0.11426 0.56096 0.0
C1533 C 0.81619 0.10729 0.54361 0.0
N1534 N 0.84276 0.08502 0.54532 0.0
N1535 N 0.77492 0.11356 0.616 0.0
C1536 C 0.82252 0.0884 0.55978 0.0
C1537 C 0.78711 0.10264 0.59535 0.0
N1538 N 0.81009 0.0516 0.60265 0.0
N1539 N 0.79139 0.13166 0.54416 0.0
H1540 H 0.76682 0.10631 0.64169 0.0
H1541 H 0.77524 0.13163 0.6094 0.0
H1542 H 0.80052 0.14231 0.52028 0.0
H1543 H 0.7754 0.13431 0.55267 0.0
H1544 H 0.81954 0.04318 0.5875 0.0
H1545 H 0.80119 0.04049 0.62615 0.0
H1546 H 0.85069 0.074 0.55812 0.0
H1547 H 0.85334 0.09527 0.52191 0.0
C1548 C 0.95652 0.68318 0.55266 0.0
C1549 C 0.9523 0.69201 0.58695 0.0
C1550 C 0.92559 0.70955 0.55631 0.0
C1551 C 0.9253 0.69577 0.5238 0.0
N1552 N 0.93683 0.6648 0.49387 0.0
N1553 N 0.93043 0.71156 0.6221 0.0
C1554 C 0.93977 0.68125 0.52275 0.0
C1555 C 0.93625 0.70476 0.58899 0.0
N1556 N 0.97702 0.67744 0.54818 0.0
N1557 N 0.91709 0.72829 0.55569 0.0
H1558 H 0.93751 0.70797 0.64663 0.0
H1559 H 0.91642 0.71818 0.62535 0.0
H1560 H 0.91076 0.73375 0.53188 0.0
H1561 H 0.91926 0.74065 0.57792 0.0
H1562 H 0.98238 0.67335 0.5228 0.0
H1563 H 0.99078 0.67997 0.56882 0.0
H1564 H 0.94654 0.65334 0.4923 0.0
H1565 H 0.92224 0.65996 0.47354 0.0
C1566 C 0.93529 0.68668 0.75361 0.0
C1567 C 0.93322 0.66154 0.74331 0.0
C1568 C 0.90585 0.63969 0.79757 0.0
C1569 C 0.9102 0.66531 0.80951 0.0
N1570 N 0.93219 0.71395 0.80211 0.0
N1571 N 0.921 0.61537 0.75881 0.0
C1572 C 0.92575 0.68904 0.78839 0.0
C1573 C 0.91959 0.6383 0.7661 0.0
N1574 N 0.94551 0.70807 0.72971 0.0
N1575 N 0.88831 0.61665 0.81611 0.0
H1576 H 0.93162 0.6138 0.73671 0.0
H1577 H 0.9139 0.59884 0.77656 0.0
H1578 H 0.8781 0.61698 0.83952 0.0
H1579 H 0.88208 0.59714 0.80656 0.0
H1580 H 0.94445 0.72569 0.73391 0.0
H1581 H 0.95314 0.70747 0.70419 0.0
H1582 H 0.94617 0.73221 0.79001 0.0
H1583 H 0.92514 0.71651 0.8272 0.0
C1584 C 0.36424 0.26364 0.7501 0.0
C1585 C 0.38886 0.28711 0.73959 0.0
C1586 C 0.41194 0.28009 0.79217 0.0
C1587 C 0.38679 0.25856 0.80431 0.0
N1588 N 0.33819 0.23238 0.79825 0.0
N1589 N 0.43511 0.32034 0.75414 0.0
C1590 C 0.36276 0.25099 0.78416 0.0
C1591 C 0.41257 0.29597 0.7614 0.0
N1592 N 0.34231 0.25271 0.72715 0.0
N1593 N 0.43519 0.28525 0.81003 0.0
H1594 H 0.43607 0.33306 0.73281 0.0
H1595 H 0.45201 0.32919 0.77123 0.0
H1596 H 0.43521 0.27423 0.83298 0.0
H1597 H 0.45446 0.29883 0.80044 0.0
H1598 H 0.32546 0.2336 0.73115 0.0
H1599 H 0.34148 0.26141 0.70248 0.0
H1600 H 0.31979 0.22897 0.78738 0.0
H1601 H 0.33597 0.22175 0.82253 0.0
C1602 C 0.78108 0.11847 0.75581 0.0
C1603 C 0.76322 0.09006 0.75914 0.0
C1604 C 0.77463 0.09246 0.8239 0.0
C1605 C 0.79052 0.12131 0.82155 0.0
N1606 N 0.80137 0.16181 0.78656 0.0
N1607 N 0.73615 0.05234 0.79943 0.0
C1608 C 0.79165 0.13441 0.78785 0.0
C1609 C 0.75776 0.07775 0.79417 0.0
N1610 N 0.78883 0.13017 0.72215 0.0
N1611 N 0.77642 0.07886 0.85381 0.0
H1612 H 0.72249 0.04123 0.77872 0.0
H1613 H 0.73001 0.04361 0.82523 0.0
H1614 H 0.79123 0.08821 0.87392 0.0
H1615 H 0.76556 0.0578 0.85639 0.0
H1616 H 0.80389 0.1503 0.71838 0.0
H1617 H 0.78244 0.11894 0.69816 0.0
H1618 H 0.80034 0.1718 0.7631 0.0
H1619 H 0.80745 0.17404 0.80977 0.0
C1620 C 0.09388 0.3573 0.03486 0.0
C1621 C 0.09576 0.38331 0.03691 0.0
C1622 C 0.13833 0.39993 0.07144 0.0
C1623 C 0.13316 0.37299 0.07583 0.0
N1624 N 0.10534 0.32536 0.06315 0.0
N1625 N 0.11885 0.42882 0.063 0.0
C1626 C 0.11082 0.35145 0.05771 0.0
C1627 C 0.11796 0.40465 0.0563 0.0
N1628 N 0.07681 0.3386 0.01009 0.0
N1629 N 0.16257 0.42105 0.08274 0.0
H1630 H 0.10411 0.43344 0.05459 0.0
H1631 H 0.13294 0.44347 0.08059 0.0
H1632 H 0.17776 0.4181 0.09431 0.0
H1633 H 0.16861 0.44131 0.07706 0.0
H1634 H 0.07625 0.3202 0.00544 0.0
H1635 H 0.06548 0.34275 0.99125 0.0
H1636 H 0.08755 0.3085 0.0542 0.0
H1637 H 0.11808 0.32066 0.07841 0.0
C1638 C 0.65521 0.74418 0.01247 0.0
C1639 C 0.67836 0.74081 0.01095 0.0
C1640 C 0.70575 0.78468 0.04118 0.0
C1641 C 0.68193 0.78628 0.04684 0.0
N1642 N 0.63668 0.77342 0.02866 0.0
N1643 N 0.72668 0.76081 0.01302 0.0
C1644 C 0.65762 0.76809 0.02877 0.0
C1645 C 0.70408 0.76228 0.02148 0.0
N1646 N 0.63066 0.72369 0.00097 0.0
N1647 N 0.72942 0.80356 0.0571 0.0
H1648 H 0.72563 0.74455 -0.00166 0.0
H1649 H 0.74635 0.77642 0.01768 0.0
H1650 H 0.73117 0.82064 0.07035 0.0
H1651 H 0.74693 0.80207 0.05813 0.0
H1652 H 0.61245 0.72341 0.00512 0.0
H1653 H 0.62833 0.70625 0.98819 0.0
H1654 H 0.61876 0.76215 0.0141 0.0
H1655 H 0.63846 0.79086 0.04088 0.0
C1656 C 0.29939 0.93169 0.0177 0.0
C1657 C 0.30754 0.95937 0.02521 0.0
C1658 C 0.26976 0.94381 0.06857 0.0
C1659 C 0.26683 0.91743 0.06804 0.0
N1660 N 0.27809 0.8856 0.04142 0.0
N1661 N 0.29642 0.99147 0.05114 0.0
C1662 C 0.28103 0.91104 0.04187 0.0
C1663 C 0.29114 0.96525 0.04833 0.0
N1664 N 0.30852 0.92492 0.98731 0.0
N1665 N 0.25229 0.94817 0.08909 0.0
H1666 H 0.31006 1.00679 0.03384 0.0
H1667 H 0.28754 0.99814 0.07021 0.0
H1668 H 0.2365 0.93255 0.10368 0.0
H1669 H 0.25202 0.96639 0.08968 0.0
H1670 H 0.30184 0.90492 0.97956 0.0
H1671 H 0.31947 0.93882 0.9669 0.0
H1672 H 0.29059 0.88066 0.02653 0.0
H1673 H 0.26399 0.86977 0.05764 0.0
C1674 C 0.36347 0.08464 0.97559 0.0
C1675 C 0.38993 0.08799 0.97337 0.0
C1676 C 0.40491 0.13113 0.94049 0.0
C1677 C 0.37769 0.12476 0.93633 0.0
N1678 N 0.33054 0.09542 0.94923 0.0
N1679 N 0.43561 0.11382 0.94925 0.0
C1680 C 0.35682 0.10161 0.95405 0.0
C1681 C 0.41074 0.11132 0.95516 0.0
N1682 N 0.34503 0.066 -0.00081 0.0
N1683 N 0.42522 0.15592 0.92938 0.0
H1684 H 0.44125 0.09984 0.95807 0.0
H1685 H 0.45006 0.12856 0.93219 0.0
H1686 H 0.42153 0.17067 0.91786 0.0
H1687 H 0.44558 0.1629 0.93509 0.0
H1688 H 0.32624 0.06426 0.00422 0.0
H1689 H 0.34959 0.05418 0.01665 0.0
H1690 H 0.31409 0.07708 0.95753 0.0
H1691 H 0.32532 0.10832 0.93529 0.0
C1692 C 0.97973 0.27616 0.96421 0.0
C1693 C 0.97235 0.29587 0.97382 0.0
C1694 C 0.92487 0.26317 0.95959 0.0
C1695 C 0.93303 0.24587 0.9429 0.0
N1696 N 0.96728 0.23373 0.93261 0.0
N1697 N 0.93788 0.30912 0.9766 0.0
C1698 C 0.96021 0.25156 0.94686 0.0
C1699 C 0.94484 0.28947 0.97114 0.0
N1700 N 1.0053 0.28102 0.97182 0.0
N1701 N 0.89802 0.25485 0.96377 0.0
H1702 H 0.95158 0.32899 0.98412 0.0
H1703 H 0.91886 0.3065 0.97018 0.0
H1704 H 0.88261 0.2358 0.95593 0.0
H1705 H 0.89105 0.2656 0.97904 0.0
H1706 H 1.01168 0.26688 0.96797 0.0
H1707 H 1.01975 0.29879 0.98461 0.0
H1708 H 0.98708 0.23748 0.93082 0.0
H1709 H 0.95285 0.21507 0.92174 0.0
C1710 C 0.74362 0.65117 0.95648 0.0
C1711 C 0.74147 0.67168 0.97574 0.0
C1712 C 0.78903 0.70366 0.96031 0.0
C1713 C 0.79137 0.68211 0.94435 0.0
N1714 N 0.77262 0.63366 0.93799 0.0
N1715 N 0.76427 0.71663 0.00207 0.0
C1716 C 0.76938 0.65526 0.94685 0.0
C1717 C 0.76485 0.69779 0.97958 0.0
N1718 N 0.72087 0.62869 0.94425 0.0
N1719 N 0.80956 0.72972 0.9561 0.0
H1720 H 0.74721 0.71279 0.01705 0.0
H1721 H 0.78138 0.73513 0.0082 0.0
H1722 H 0.82776 0.73422 0.94358 0.0
H1723 H 0.80794 0.74661 0.9634 0.0
H1724 H 0.72141 0.61418 0.92739 0.0
H1725 H 0.70174 0.62676 0.94648 0.0
H1726 H 0.75742 0.61359 0.94189 0.0
H1727 H 0.7912 0.63576 0.93052 0.0
C1728 C 0.94495 0.64986 0.97148 0.0
C1729 C 0.97089 0.67375 0.97112 0.0
C1730 C 0.95073 0.69947 0.94401 0.0
C1731 C 0.92532 0.67519 0.94202 0.0
N1732 N 0.89625 0.62976 0.96303 0.0
N1733 N 0.99734 0.72237 0.96596 0.0
C1734 C 0.9218 0.65129 0.95931 0.0
C1735 C 0.97337 0.69898 0.96035 0.0
N1736 N 0.9427 0.62541 0.98091 0.0
N1737 N 0.95335 0.72257 0.92825 0.0
H1738 H 1.01413 0.72245 0.97785 0.0
H1739 H 1.00006 0.74173 0.96157 0.0
H1740 H 0.93671 0.72361 0.91791 0.0
H1741 H 0.97177 0.74025 0.92441 0.0
H1742 H 0.92504 0.60686 0.97762 0.0
H1743 H 0.95898 0.62327 0.98984 0.0
H1744 H 0.89168 0.61236 0.97805 0.0
H1745 H 0.87922 0.63054 0.95388 0.0
C1746 C 0.34593 0.28222 0.95534 0.0
C1747 C 0.36549 0.29303 0.9841 0.0
C1748 C 0.38291 0.26266 0.96646 0.0
C1749 C 0.36578 0.25425 0.93537 0.0
N1750 N 0.32532 0.24885 0.90648 0.0
N1751 N 0.3898 0.28073 0.02756 0.0
C1752 C 0.3454 0.26177 0.93189 0.0
C1753 C 0.37988 0.27909 0.99307 0.0
N1754 N 0.32783 0.29117 0.95043 0.0
N1755 N 0.40315 0.25642 0.96985 0.0
H1756 H 0.38558 0.29036 0.04853 0.0
H1757 H 0.39867 0.26937 0.03636 0.0
H1758 H 0.40622 0.24443 0.95111 0.0
H1759 H 0.41813 0.26488 0.98995 0.0
H1760 H 0.31652 0.28803 0.92664 0.0
H1761 H 0.32315 0.30073 0.97104 0.0
H1762 H 0.30861 0.2516 0.90379 0.0
H1763 H 0.32426 0.23342 0.88986 0.0
C1764 C 0.74481 0.11094 0.98364 0.0
C1765 C 0.74171 0.08445 0.98768 0.0
C1766 C 0.78676 0.10082 0.96134 0.0
C1767 C 0.7886 0.12638 0.95423 0.0
N1768 N 0.77449 0.15861 0.96822 0.0
N1769 N 0.76205 0.05604 0.98955 0.0
C1770 C 0.76937 0.13239 0.96914 0.0
C1771 C 0.7636 0.08008 0.97967 0.0
N1772 N 0.72359 0.11513 0.99084 0.0
N1773 N 0.80649 0.09605 0.94834 0.0
H1774 H 0.74529 0.04072 0.0031 0.0
H1775 H 0.77793 0.052 0.98704 0.0
H1776 H 0.82413 0.11137 0.93645 0.0
H1777 H 0.80515 0.07705 0.94821 0.0
H1778 H 0.72343 0.13294 0.98421 0.0
H1779 H 0.70528 0.10027 0.00162 0.0
H1780 H 0.76256 0.16524 0.98115 0.0
H1781 H 0.79238 0.17427 0.95727 0.0
C1782 C 0.68662 0.95579 0.02958 0.0
C1783 C 0.66018 0.95241 0.03232 0.0
C1784 C 0.64492 0.90803 0.06199 0.0
C1785 C 0.67206 0.91418 0.06578 0.0
N1786 N 0.71936 0.9442 0.05434 0.0
N1787 N 0.6143 0.92567 0.05554 0.0
C1788 C 0.69309 0.93803 0.04954 0.0
C1789 C 0.6392 0.9284 0.04918 0.0
N1790 N 0.70524 0.97519 0.0069 0.0
N1791 N 0.62461 0.88281 0.0716 0.0
H1792 H 0.60879 0.94 0.04812 0.0
H1793 H 0.59966 0.9102 0.0716 0.0
H1794 H 0.62843 0.8677 0.08149 0.0
H1795 H 0.60424 0.87603 0.06617 0.0
H1796 H 0.724 0.97697 0.00146 0.0
H1797 H 0.70089 0.98766 0.99045 0.0
H1798 H 0.73582 0.96292 0.0473 0.0
H1799 H 0.72459 0.93091 0.06716 0.0
C1800 C 0.09122 0.74539 0.05399 0.0
C1801 C 0.10173 0.73372 0.02879 0.0
C1802 C 0.14771 0.76677 0.05026 0.0
C1803 C 0.13704 0.77944 0.07263 0.0
N1804 N 0.09951 0.78663 0.08462 0.0
N1805 N 0.14185 0.74255 0.99431 0.0
C1806 C 0.10912 0.77099 0.06992 0.0
C1807 C 0.13054 0.7473 0.02409 0.0
N1808 N 0.06517 0.73137 0.06629 0.0
N1809 N 0.17372 0.77204 0.05485 0.0
H1810 H 0.13051 0.73075 0.97253 0.0
H1811 H 0.16254 0.75354 0.98896 0.0
H1812 H 0.18704 0.78582 0.07394 0.0
H1813 H 0.18122 0.76087 0.04167 0.0
H1814 H 0.05789 0.73898 0.08648 0.0
H1815 H 0.05207 0.7109 0.06136 0.0
H1816 H 0.0795 0.7822 0.0812 0.0
H1817 H 0.11233 0.80542 0.09667 0.0
C1818 C 0.28278 0.34329 0.03024 0.0
C1819 C 0.30633 0.3679 0.02116 0.0
C1820 C 0.28517 0.39371 0.0439 0.0
C1821 C 0.2645 0.3696 0.0598 0.0
N1822 N 0.24131 0.32092 0.06558 0.0
N1823 N 0.32964 0.4167 0.01582 0.0
C1824 C 0.2622 0.3441 0.05125 0.0
C1825 C 0.30712 0.39318 0.02603 0.0
N1826 N 0.28049 0.31926 0.01904 0.0
N1827 N 0.28396 0.41709 0.04707 0.0
H1828 H 0.3456 0.4169 0.00169 0.0
H1829 H 0.33302 0.43601 0.02222 0.0
H1830 H 0.26792 0.41745 0.06027 0.0
H1831 H 0.29726 0.4353 0.0343 0.0
H1832 H 0.26313 0.30046 0.02232 0.0
H1833 H 0.29543 0.3185 0.00353 0.0
H1834 H 0.24002 0.30196 0.06457 0.0
H1835 H 0.22543 0.32091 0.07969 0.0
C1836 C 0.7815 0.73768 0.38119 0.0
C1837 C 0.75909 0.71672 0.36161 0.0
C1838 C 0.77145 0.68345 0.38516 0.0
C1839 C 0.79398 0.70458 0.40355 0.0
N1840 N 0.82513 0.75236 0.4098 0.0
N1841 N 0.73844 0.67143 0.33632 0.0
C1842 C 0.80064 0.73188 0.39805 0.0
C1843 C 0.75575 0.69007 0.36096 0.0
N1844 N 0.7837 0.7626 0.38648 0.0
N1845 N 0.76462 0.65706 0.39158 0.0
H1846 H 0.72792 0.67603 0.31669 0.0
H1847 H 0.73685 0.65247 0.33265 0.0
H1848 H 0.77643 0.65174 0.40789 0.0
H1849 H 0.74659 0.64061 0.3824 0.0
H1850 H 0.79782 0.77707 0.40423 0.0
H1851 H 0.76995 0.76821 0.37676 0.0
H1852 H 0.83231 0.77272 0.40327 0.0
H1853 H 0.83944 0.74871 0.42274 0.0
C1854 C 0.30747 0.05778 0.36265 0.0
C1855 C 0.33288 0.05915 0.35771 0.0
C1856 C 0.35629 0.10521 0.3827 0.0
C1857 C 0.3308 0.10255 0.3916 0.0
N1858 N 0.28306 0.08104 0.38116 0.0
N1859 N 0.38104 0.08629 0.35188 0.0
C1860 C 0.30667 0.08043 0.37805 0.0
C1861 C 0.35721 0.08374 0.36388 0.0
N1862 N 0.28418 0.03427 0.35458 0.0
N1863 N 0.37945 0.12739 0.39469 0.0
H1864 H 0.38177 0.07079 0.33753 0.0
H1865 H 0.39951 0.10425 0.35309 0.0
H1866 H 0.37935 0.14387 0.40714 0.0
H1867 H 0.39855 0.1292 0.39345 0.0
H1868 H 0.26491 0.03066 0.36115 0.0
H1869 H 0.2842 0.01782 0.34196 0.0
H1870 H 0.26467 0.06649 0.37007 0.0
H1871 H 0.28257 0.09766 0.39253 0.0
C1872 C 0.97373 0.25697 0.36563 0.0
C1873 C 0.97424 0.28219 0.36121 0.0
C1874 C 0.93071 0.26374 0.39282 0.0
C1875 C 0.93168 0.23964 0.40052 0.0
N1876 N 0.94888 0.20982 0.38592 0.0
N1877 N 0.95049 0.30736 0.36124 0.0
C1878 C 0.95136 0.23503 0.38366 0.0
C1879 C 0.95162 0.28471 0.37157 0.0
N1880 N 0.99553 0.25467 0.35509 0.0
N1881 N 0.91057 0.26701 0.40781 0.0
H1882 H 0.96561 0.32275 0.3455 0.0
H1883 H 0.93389 0.31002 0.36559 0.0
H1884 H 0.89444 0.25137 0.42192 0.0
H1885 H 0.91004 0.2851 0.40716 0.0
H1886 H 0.99808 0.23815 0.36153 0.0
H1887 H 1.0119 0.26995 0.341 0.0
H1888 H 0.96119 0.20414 0.37199 0.0
H1889 H 0.93276 0.19373 0.39939 0.0
C1890 C 0.06009 0.4333 0.28511 0.0
C1891 C 0.0413 0.41438 0.31039 0.0
C1892 C 1.01123 0.43332 0.29839 0.0
C1893 C 0.0312 0.45335 0.27532 0.0
N1894 N 0.07755 0.47709 0.25569 0.0
N1895 N 1.00098 0.39968 0.34633 0.0
C1896 C 0.05675 0.45507 0.27225 0.0
C1897 C 1.01739 0.41534 0.3187 0.0
N1898 N 0.07998 0.42925 0.27104 0.0
N1899 N 0.98619 0.43097 0.29989 0.0
H1900 H 1.00492 0.38641 0.36162 0.0
H1901 H 0.98467 0.40139 0.35586 0.0
H1902 H 0.98175 0.44469 0.28665 0.0
H1903 H 0.96974 0.4149 0.31277 0.0
H1904 H 0.09281 0.44113 0.25013 0.0
H1905 H 0.08122 0.41186 0.27683 0.0
H1906 H 0.09725 0.48031 0.25507 0.0
H1907 H 0.07559 0.49343 0.24613 0.0
C1908 C 0.63786 0.61351 0.28739 0.0
C1909 C 0.63227 0.63385 0.30023 0.0
C1910 C 0.5851 0.60686 0.27913 0.0
C1911 C 0.59117 0.58741 0.26426 0.0
N1912 N 0.62024 0.56809 0.26191 0.0
N1913 N 0.59882 0.64691 0.31584 0.0
C1914 C 0.61661 0.58937 0.27127 0.0
C1915 C 0.60526 0.62932 0.29909 0.0
N1916 N 0.66362 0.61764 0.2899 0.0
N1917 N 0.56085 0.60538 0.2711 0.0
H1918 H 0.61287 0.66552 0.32685 0.0
H1919 H 0.57898 0.64231 0.32078 0.0
H1920 H 0.54493 0.58883 0.25811 0.0
H1921 H 0.55682 0.62117 0.2755 0.0
H1922 H 0.66997 0.60521 0.27772 0.0
H1923 H 0.67909 0.63426 0.30355 0.0
H1924 H 0.6376 0.56702 0.26786 0.0
H1925 H 0.60461 0.55033 0.25049 0.0
C1926 C 0.42284 0.98589 0.34303 0.0
C1927 C 0.41045 1.00233 0.33939 0.0
C1928 C 0.44666 0.03178 0.29725 0.0
C1929 C 0.45292 1.01054 0.29254 0.0
N1930 N 0.44812 0.96778 0.31262 0.0
N1931 N 0.41898 0.04763 0.32776 0.0
C1932 C 0.4418 0.98796 0.31646 0.0
C1933 C 0.42504 0.02757 0.32097 0.0
N1934 N 0.41776 0.96957 0.37292 0.0
N1935 N 0.4611 0.05547 0.2782 0.0
H1936 H 0.40616 0.046 0.34906 0.0
H1937 H 0.42808 0.06652 0.315 0.0
H1938 H 0.47782 0.05922 0.26237 0.0
H1939 H 0.45703 0.07144 0.27809 0.0
H1940 H 0.42764 0.95852 0.37795 0.0
H1941 H 0.40691 0.97045 0.39521 0.0
H1942 H 0.43798 0.94933 0.32656 0.0
H1943 H 0.46243 0.96892 0.29397 0.0
C1944 C 0.63921 0.03881 0.2942 0.0
C1945 C 0.63292 1.0117 0.30173 0.0
C1946 C 0.58502 0.99582 0.28807 0.0
C1947 C 0.59217 0.02182 0.27394 0.0
N1948 N 0.62528 0.06873 0.26512 0.0
N1949 N 0.60006 0.96376 0.30327 0.0
C1950 C 0.61902 0.04366 0.27819 0.0
C1951 C 0.60577 0.99007 0.2987 0.0
N1952 N 0.66431 0.0598 0.30274 0.0
N1953 N 0.55836 0.9764 0.29029 0.0
H1954 H 0.61462 0.95836 0.30997 0.0
H1955 H 0.5813 0.94702 0.29722 0.0
H1956 H 0.54278 0.97999 0.28231 0.0
H1957 H 0.55159 0.95782 0.30346 0.0
H1958 H 0.66955 0.08016 0.30095 0.0
H1959 H 0.67944 0.05677 0.31435 0.0
H1960 H 0.64493 0.08494 0.26299 0.0
H1961 H 0.61044 0.07289 0.2552 0.0
C1962 C 1.02155 0.62784 0.28186 0.0
C1963 C 0.04033 0.63749 0.31175 0.0
C1964 C 0.05007 0.60023 0.29978 0.0
C1965 C 0.03019 0.59009 0.27192 0.0
N1966 N 0.99054 0.58861 0.2461 0.0
N1967 N 0.06439 0.62491 0.35616 0.0
C1968 C 1.01335 0.60172 0.26708 0.0
C1969 C 0.05205 0.62122 0.32299 0.0
N1970 N 1.01371 0.64427 0.26445 0.0
N1971 N 0.06805 0.59096 0.30325 0.0
H1972 H 0.06462 0.6383 0.37537 0.0
H1973 H 0.07108 0.61203 0.36642 0.0
H1974 H 0.06707 0.57525 0.28745 0.0
H1975 H 0.08506 0.60026 0.32017 0.0
H1976 H 1.00162 0.63825 0.24102 0.0
H1977 H 1.02227 0.66497 0.2693 0.0
H1978 H 0.97648 0.5953 0.24363 0.0
H1979 H 0.98454 0.56963 0.23454 0.0
C1980 C 0.41716 0.43802 0.30496 0.0
C1981 C 0.41356 0.41129 0.30514 0.0
C1982 C 0.45724 0.42855 0.27395 0.0
C1983 C 0.45785 0.45351 0.26728 0.0
N1984 N 0.43816 0.48226 0.27582 0.0
N1985 N 0.43065 0.38105 0.29132 0.0
C1986 C 0.43821 0.45863 0.28354 0.0
C1987 C 0.43398 0.40664 0.29048 0.0
N1988 N 0.40002 0.44368 0.32421 0.0
N1989 N 0.47882 0.42586 0.26352 0.0
H1990 H 0.41459 0.36503 0.30486 0.0
H1991 H 0.44304 0.3754 0.27754 0.0
H1992 H 0.49591 0.44186 0.25145 0.0
H1993 H 0.48086 0.40898 0.2695 0.0
H1994 H 0.40367 0.46336 0.32867 0.0
H1995 H 0.38322 0.42914 0.33831 0.0
H1996 H 0.42215 0.48553 0.28196 0.0
H1997 H 0.45352 0.49827 0.26132 0.0
C1998 C 0.3683 0.28922 0.36751 0.0
C1999 C 0.34218 0.28038 0.35183 0.0
C2000 C 0.32524 0.23586 0.38077 0.0
C2001 C 0.35032 0.24512 0.39912 0.0
N2002 N 0.39766 0.27776 0.40357 0.0
N2003 N 0.30406 0.24016 0.32614 0.0
C2004 C 0.37256 0.271 0.39036 0.0
C2005 C 0.32318 0.25209 0.35288 0.0
N2006 N 0.38912 0.31448 0.35951 0.0
N2007 N 0.3027 0.21239 0.39112 0.0
H2008 H 0.30432 0.25033 0.30228 0.0
H2009 H 0.29099 0.21924 0.32487 0.0
H2010 H 0.30249 0.19991 0.41227 0.0
H2011 H 0.28349 0.20673 0.38078 0.0
H2012 H 0.40742 0.32396 0.37366 0.0
H2013 H 0.3884 0.32546 0.33704 0.0
H2014 H 0.41532 0.29556 0.39707 0.0
H2015 H 0.40106 0.26441 0.4196 0.0
C2016 C 0.7784 0.08255 0.35638 0.0
C2017 C 0.7536 0.06325 0.37239 0.0
C2018 C 0.76587 0.09373 0.42476 0.0
C2019 C 0.79355 0.10667 0.41428 0.0
N2020 N 0.82601 0.11165 0.36786 0.0
N2021 N 0.72422 0.05091 0.42532 0.0
C2022 C 0.7999 0.101 0.37914 0.0
C2023 C 0.74703 0.06916 0.4073 0.0
N2024 N 0.78075 0.08433 0.31941 0.0
N2025 N 0.75799 0.10437 0.4523 0.0
H2026 H 0.71029 0.03198 0.41494 0.0
H2027 H 0.72045 0.05372 0.45235 0.0
H2028 H 0.77154 0.12271 0.4648 0.0
H2029 H 0.73778 0.09659 0.45955 0.0
H2030 H 0.79814 0.09896 0.30624 0.0
H2031 H 0.76359 0.07412 0.30287 0.0
H2032 H 0.83094 0.10585 0.34334 0.0
H2033 H 0.84263 0.12435 0.38396 0.0
C2034 C 0.94744 0.67568 0.36651 0.0
C2035 C 0.97041 0.70093 0.35781 0.0
C2036 C 0.9457 0.72458 0.37512 0.0
C2037 C 0.92542 0.70023 0.39085 0.0
N2038 N 0.90444 0.65185 0.39838 0.0
N2039 N 0.99141 0.7497 0.35152 0.0
C2040 C 0.92518 0.67538 0.38459 0.0
C2041 C 0.96927 0.72544 0.36046 0.0
N2042 N 0.94717 0.65215 0.35759 0.0
N2043 N 0.94253 0.74695 0.37547 0.0
H2044 H 1.00889 0.75122 0.34025 0.0
H2045 H 0.9931 0.76851 0.35675 0.0
H2046 H 0.9253 0.74627 0.38646 0.0
H2047 H 0.9554 0.76511 0.36225 0.0
H2048 H 0.93041 0.63289 0.36066 0.0
H2049 H 0.96331 0.65207 0.34426 0.0
H2050 H 0.90432 0.63342 0.39917 0.0
H2051 H 0.88743 0.6511 0.4102 0.0
C2052 C 0.41669 1.01427 0.71782 0.0
C2053 C 0.42608 0.03625 0.69222 0.0
C2054 C 0.47283 0.04865 0.70953 0.0
C2055 C 0.46307 0.02525 0.73199 0.0
N2056 N 0.42596 0.98105 0.74648 0.0
N2057 N 0.46471 0.06773 0.65542 0.0
C2058 C 0.43508 1.00618 0.73148 0.0
C2059 C 0.45462 0.05135 0.68533 0.0
N2060 N 0.39143 1.00293 0.73273 0.0
N2061 N 0.49903 0.06916 0.71236 0.0
H2062 H 0.45264 0.06899 0.63512 0.0
H2063 H 0.48511 0.07717 0.64833 0.0
H2064 H 0.51324 0.06847 0.72976 0.0
H2065 H 0.50595 0.0879 0.69947 0.0
H2066 H 0.38493 0.98806 0.75304 0.0
H2067 H 0.37866 1.01109 0.72988 0.0
H2068 H 0.40577 0.96577 0.74474 0.0
H2069 H 0.43922 0.97491 0.75705 0.0
C2070 C 0.03741 0.42034 0.69683 0.0
C2071 C 1.01158 0.39854 0.68732 0.0
C2072 C 0.99093 0.4262 0.70336 0.0
C2073 C 1.0154 0.44489 0.72059 0.0
N2074 N 0.06298 0.46255 0.73044 0.0
N2075 N 0.96361 0.38086 0.67866 0.0
C2076 C 0.0392 0.4432 0.71532 0.0
C2077 C 0.98836 0.40181 0.68867 0.0
N2078 N 0.06 0.41882 0.68843 0.0
N2079 N 0.97001 0.43156 0.70255 0.0
H2080 H 0.96094 0.36283 0.66741 0.0
H2081 H 0.94547 0.38072 0.68296 0.0
H2082 H 0.97191 0.44937 0.71365 0.0
H2083 H 0.95202 0.4199 0.6883 0.0
H2084 H 0.07967 0.43469 0.69227 0.0
H2085 H 0.05894 0.40224 0.67459 0.0
H2086 H 0.08051 0.46109 0.73181 0.0
H2087 H 0.0648 0.47997 0.74273 0.0
C2088 C 0.61792 0.61356 0.70748 0.0
C2089 C 0.64095 0.61159 0.69769 0.0
C2090 C 0.61908 0.56473 0.72109 0.0
C2091 C 0.59887 0.56886 0.73726 0.0
N2092 N 0.57674 0.5954 0.74346 0.0
N2093 N 0.66351 0.58514 0.69323 0.0
C2094 C 0.59727 0.59255 0.72895 0.0
C2095 C 0.64122 0.58682 0.70299 0.0
N2096 N 0.61612 0.63569 0.69635 0.0
N2097 N 0.6173 0.53984 0.72398 0.0
H2098 H 0.67978 0.60055 0.67917 0.0
H2099 H 0.66657 0.56906 0.7004 0.0
H2100 H 0.60139 0.52361 0.73756 0.0
H2101 H 0.63 0.53451 0.7104 0.0
H2102 H 0.59916 0.63783 0.7002 0.0
H2103 H 0.63104 0.65112 0.68043 0.0
H2104 H 0.5758 0.61328 0.74239 0.0
H2105 H 0.56074 0.57971 0.75768 0.0
C2106 C 0.67777 0.74089 0.64798 0.0
C2107 C 0.70318 0.74228 0.64236 0.0
C2108 C 0.71776 0.78333 0.60546 0.0
C2109 C 0.69123 0.77944 0.60567 0.0
N2110 N 0.64497 0.75329 0.62508 0.0
N2111 N 0.74358 0.76021 0.60578 0.0
C2112 C 0.67088 0.7579 0.62656 0.0
C2113 C 0.72223 0.76239 0.61852 0.0
N2114 N 0.66063 0.724 0.67416 0.0
N2115 N 0.73853 0.80666 0.59134 0.0
H2116 H 0.7456 0.74322 0.6112 0.0
H2117 H 0.75682 0.77314 0.58593 0.0
H2118 H 0.73581 0.82251 0.58158 0.0
H2119 H 0.75867 0.81125 0.59293 0.0
H2120 H 0.64296 0.72393 0.68167 0.0
H2121 H 0.66518 0.71158 0.69039 0.0
H2122 H 0.62861 0.73618 0.6364 0.0
H2123 H 0.63983 0.76614 0.61085 0.0
C2124 C 0.27165 0.95452 0.63395 0.0
C2125 C 0.29842 0.95869 0.63626 0.0
C2126 C 0.28257 0.91286 0.61175 0.0
C2127 C 0.2567 0.9101 0.60567 0.0
N2128 N 0.22411 0.92376 0.62155 0.0
N2129 N 0.32957 0.94177 0.63049 0.0
C2130 C 0.25041 0.92938 0.62055 0.0
C2131 C 0.30385 0.93759 0.62662 0.0
N2132 N 0.26688 0.97541 0.6416 0.0
N2133 N 0.28633 0.89154 0.60317 0.0
H2134 H 0.34512 0.95926 0.6425 0.0
H2135 H 0.33582 0.92838 0.6215 0.0
H2136 H 0.27057 0.87334 0.59294 0.0
H2137 H 0.30412 0.89102 0.6079 0.0
H2138 H 0.24883 0.97512 0.63547 0.0
H2139 H 0.28155 0.99411 0.65184 0.0
H2140 H 0.21773 0.93555 0.63545 0.0
H2141 H 0.20803 0.90578 0.61173 0.0
C2142 C 0.07544 0.31109 0.61928 0.0
C2143 C 0.07439 0.33109 0.64125 0.0
C2144 C 0.12155 0.36308 0.62386 0.0
C2145 C 0.12297 0.34181 0.60545 0.0
N2146 N 0.10312 0.29357 0.59536 0.0
N2147 N 0.09857 0.37524 0.66967 0.0
C2148 C 0.10066 0.31509 0.60708 0.0
C2149 C 0.0981 0.35694 0.64516 0.0
N2150 N 0.05209 0.28921 0.60721 0.0
N2151 N 0.14223 0.38912 0.62024 0.0
H2152 H 0.08206 0.37119 0.68606 0.0
H2153 H 0.11602 0.39343 0.67585 0.0
H2154 H 0.15993 0.39379 0.60615 0.0
H2155 H 0.14118 0.40592 0.62954 0.0
H2156 H 0.05178 0.27523 0.58852 0.0
H2157 H 0.0332 0.2874 0.61171 0.0
H2158 H 0.0878 0.27348 0.59866 0.0
H2159 H 0.12126 0.29562 0.58579 0.0
C2160 C 0.29832 0.35918 0.63986 0.0
C2161 C 0.29629 0.33386 0.64848 0.0
C2162 C 0.24944 0.31015 0.62594 0.0
C2163 C 0.25368 0.33488 0.61044 0.0
N2164 N 0.28003 0.38348 0.60565 0.0
N2165 N 0.2696 0.2851 0.65324 0.0
C2166 C 0.27729 0.35971 0.61915 0.0
C2167 C 0.27145 0.3093 0.64349 0.0
N2168 N 0.32052 0.38252 0.65133 0.0
N2169 N 0.22455 0.28749 0.62279 0.0
H2170 H 0.28495 0.28385 0.66732 0.0
H2171 H 0.25335 0.26621 0.64643 0.0
H2172 H 0.20839 0.28787 0.60969 0.0
H2173 H 0.2192 0.26907 0.6356 0.0
H2174 H 0.32285 0.40182 0.64811 0.0
H2175 H 0.33577 0.38219 0.667 0.0
H2176 H 0.29778 0.40211 0.60722 0.0
H2177 H 0.2643 0.3843 0.59188 0.0
C2178 C 0.73372 0.96545 0.62721 0.0
C2179 C 0.71566 0.96754 0.65183 0.0
C2180 C 0.68199 0.91999 0.63907 0.0
C2181 C 0.7008 0.91804 0.61585 0.0
N2182 N 0.74703 0.93589 0.59747 0.0
N2183 N 0.67476 0.94491 0.68748 0.0
C2184 C 0.72769 0.93967 0.61396 0.0
C2185 C 0.6904 0.94417 0.65985 0.0
N2186 N 0.75527 0.98834 0.61353 0.0
N2187 N 0.65589 0.89918 0.64002 0.0
H2188 H 0.68052 0.96217 0.70338 0.0
H2189 H 0.65728 0.92783 0.69657 0.0
H2190 H 0.64976 0.88092 0.62631 0.0
H2191 H 0.64034 0.90051 0.65299 0.0
H2192 H 0.76781 0.98801 0.59314 0.0
H2193 H 0.75817 1.00764 0.61886 0.0
H2194 H 0.76748 0.95057 0.59753 0.0
H2195 H 0.74284 0.91705 0.58714 0.0
C2196 C 0.08967 0.74127 0.63277 0.0
C2197 C 0.06731 0.74361 0.64497 0.0
C2198 C 0.09157 0.79249 0.63066 0.0
C2199 C 0.11247 0.78936 0.61491 0.0
N2200 N 0.13592 0.76407 0.61014 0.0
N2201 N 0.04906 0.77229 0.66355 0.0
C2202 C 0.11309 0.76481 0.61957 0.0
C2203 C 0.06914 0.76962 0.64708 0.0
N2204 N 0.08801 0.71634 0.63264 0.0
N2205 N 0.09249 0.81698 0.62727 0.0
H2206 H 0.03149 0.75596 0.67383 0.0
H2207 H 0.05031 0.79088 0.66899 0.0
H2208 H 0.10943 0.83405 0.61675 0.0
H2209 H 0.07665 0.82039 0.63384 0.0
H2210 H 0.10215 0.71238 0.62043 0.0
H2211 H 0.07174 0.69912 0.64404 0.0
H2212 H 0.13873 0.74747 0.61455 0.0
H2213 H 0.15316 0.78119 0.60043 0.0
C2214 C 1.01808 0.6195 0.71381 0.0
C2215 C 0.99423 0.60985 0.6917 0.0
C2216 C 0.98124 0.56326 0.71196 0.0
C2217 C 1.00605 0.57326 0.7308 0.0
N2218 N 0.05216 0.60919 0.73598 0.0
N2219 N 0.95912 0.56978 0.65992 0.0
C2220 C 0.02601 0.60076 0.72625 0.0
C2221 C 0.97756 0.58088 0.68761 0.0
N2222 N 0.03173 0.6455 0.72678 0.0
N2223 N 0.96085 0.53733 0.71782 0.0
H2224 H 0.95747 0.58101 0.63865 0.0
H2225 H 0.94821 0.54891 0.65515 0.0
H2226 H 0.96305 0.5237 0.73482 0.0
H2227 H 0.9413 0.53018 0.70767 0.0
H2228 H 0.04826 0.65213 0.74447 0.0
H2229 H 0.02429 0.65896 0.7257 0.0
H2230 H 0.06778 0.62898 0.73134 0.0
H2231 H 0.05829 0.5955 0.7449 0.0
C2232 C 0.45783 0.41124 0.68014 0.0
C2233 C 0.42945 0.40045 0.68369 0.0
C2234 C 0.43819 0.43291 0.73324 0.0
C2235 C 0.46531 0.43794 0.73561 0.0
N2236 N 0.50105 0.43142 0.71108 0.0
N2237 N 0.39562 0.41227 0.6994 0.0
C2238 C 0.47537 0.42751 0.70852 0.0
C2239 C 0.42034 0.41465 0.7061 0.0
N2240 N 0.46817 0.4073 0.64868 0.0
N2241 N 0.42945 0.44497 0.75778 0.0
H2242 H 0.38433 0.40242 0.67621 0.0
H2243 H 0.38789 0.42281 0.71348 0.0
H2244 H 0.44257 0.45981 0.77606 0.0
H2245 H 0.40931 0.43989 0.76083 0.0
H2246 H 0.48885 0.4165 0.64351 0.0
H2247 H 0.45612 0.39826 0.62577 0.0
H2248 H 0.50803 0.42126 0.69458 0.0
H2249 H 0.51478 0.44317 0.73135 0.0
C2250 C 0.64635 0.05746 0.69004 0.0
C2251 C 0.64807 0.0332 0.69057 0.0
C2252 C 0.60241 1.00815 0.71641 0.0
C2253 C 0.60198 0.03293 0.71947 0.0
N2254 N 0.61843 0.07858 0.69932 0.0
N2255 N 0.62532 0.98446 0.69395 0.0
C2256 C 0.62219 0.05664 0.70232 0.0
C2257 C 0.62514 1.00814 0.7002 0.0
N2258 N 0.66844 0.0816 0.68059 0.0
N2259 N 0.58194 0.98513 0.73166 0.0
H2260 H 0.64176 0.9841 0.68199 0.0
H2261 H 0.60861 0.96526 0.69768 0.0
H2262 H 0.56463 0.9845 0.7422 0.0
H2263 H 0.58237 0.96709 0.73498 0.0
H2264 H 0.66955 0.10038 0.68362 0.0
H2265 H 0.68645 0.08317 0.67139 0.0
H2266 H 0.63124 0.09615 0.68486 0.0
H2267 H 0.60082 0.07792 0.70874 0.0
loop_
_geom_bond_atom_site_label_1
_geom_bond_atom_site_label_2
_geom_bond_distance
_geom_bond_site_symmetry_2
_ccdc_geom_bond_type
Mn0 O5 2.095 1_655 S
Mn0 O15 2.162 . S
Mn0 O16 2.297 1_554 S
Mn0 O24 2.385 1_554 S
Mn0 O25 2.209 1_654 S
Mn0 O26 2.094 . S
Mn1 O6 2.121 . S
Mn1 N8 2.257 1_554 S
Mn1 N17 2.282 1_554 S
Mn1 O25 2.215 1_554 S
Mn1 O27 2.117 . S
C2 O24 1.234 1_455 S
C2 O25 1.283 . S
C3 O15 1.281 1_556 S
C3 O16 1.236 . S
C4 O26 1.230 1_455 S
C4 O27 1.291 . S
O5 Mn0 2.095 1_455 S
O5 C14 1.250 . S
O6 Mn1 2.121 . S
O6 C14 1.258 . S
C7 N8 1.326 . S
C7 C11 1.460 . S
C7 H13 0.929 . S
N8 Mn1 2.257 1_556 S
N8 C7 1.326 . S
N8 C12 1.362 . S
C9 C10 1.258 . S
C9 C12 1.431 . S
C9 C29 1.449 . S
C10 C9 1.258 . S
C10 C11 1.477 . S
C10 H30 0.931 . S
C11 C7 1.460 . S
C11 C10 1.477 . S
C11 H31 0.930 . S
C12 N8 1.362 . S
C12 C9 1.431 . S
C12 C22 1.476 . S
H13 C7 0.929 . S
C14 O5 1.250 . S
C14 O6 1.258 . S
O15 Mn0 2.162 . S
O15 C3 1.281 1_554 S
O16 Mn0 2.297 1_556 S
O16 C3 1.236 . S
N17 Mn1 2.282 1_556 S
N17 C18 1.328 1_556 S
N17 C22 1.318 . S
C18 N17 1.328 1_554 S
C18 C19 1.457 1_554 S
C18 H23 0.929 . S
C19 C18 1.457 1_556 S
C19 C20 1.291 . S
C19 H32 0.931 . S
C20 C19 1.291 . S
C20 C21 1.373 . S
C20 H33 0.929 . S
C21 C20 1.373 . S
C21 C22 1.396 . S
C21 C28 1.403 . S
C22 C12 1.476 . S
C22 N17 1.318 . S
C22 C21 1.396 . S
H23 C18 0.929 . S
O24 Mn0 2.385 1_556 S
O24 C2 1.234 1_655 S
O25 Mn0 2.209 1_456 S
O25 Mn1 2.215 1_556 S
O25 C2 1.283 . S
O26 Mn0 2.094 . S
O26 C4 1.230 1_655 S
O27 Mn1 2.117 . S
O27 C4 1.291 . S
C28 C21 1.403 . S
C28 C29 1.399 . S
C28 H34 0.929 . S
C29 C9 1.449 . S
C29 C28 1.399 . S
C29 H35 0.930 . S
H30 C10 0.931 . S
H31 C11 0.930 . S
H32 C19 0.931 . S
H33 C20 0.929 . S
H34 C28 0.929 . S
H35 C29 0.930 . S
Mn36 O41 2.095 1_554 S
Mn36 O51 2.162 . S
Mn36 O52 2.297 . S
Mn36 O60 2.385 . S
Mn36 O61 2.209 . S
Mn36 O62 2.094 1_554 S
Mn37 O42 2.121 . S
Mn37 N44 2.257 1_556 S
Mn37 N53 2.282 1_556 S
Mn37 O61 2.215 1_556 S
Mn37 O63 2.117 . S
C38 O60 1.234 . S
C38 O61 1.283 . S
C39 O51 1.281 . S
C39 O52 1.236 . S
C40 O62 1.240 . S
C40 O63 1.264 . S
O41 Mn36 2.095 1_556 S
O41 C50 1.250 . S
O42 Mn37 2.121 . S
O42 C50 1.258 . S
C43 N44 1.326 . S
C43 C47 1.460 . S
C43 H49 0.929 . S
N44 Mn37 2.257 1_554 S
N44 C43 1.326 . S
N44 C48 1.362 . S
C45 C46 1.258 . S
C45 C48 1.431 . S
C45 C65 1.449 . S
C46 C45 1.258 . S
C46 C47 1.477 . S
C46 H66 0.931 . S
C47 C43 1.460 . S
C47 C46 1.477 . S
C47 H67 0.930 . S
C48 N44 1.362 . S
C48 C45 1.431 . S
C48 C58 1.476 . S
H49 C43 0.929 . S
C50 O41 1.250 . S
C50 O42 1.258 . S
O51 Mn36 2.162 . S
O51 C39 1.281 . S
O52 Mn36 2.297 . S
O52 C39 1.236 . S
N53 Mn37 2.282 1_554 S
N53 C54 1.328 . S
N53 C58 1.318 . S
C54 N53 1.328 . S
C54 C55 1.457 . S
C54 H59 0.929 1_554 S
C55 C54 1.457 . S
C55 C56 1.291 . S
C55 H68 0.931 . S
C56 C55 1.291 . S
C56 C57 1.373 . S
C56 H69 0.929 . S
C57 C56 1.373 . S
C57 C58 1.396 . S
C57 C64 1.403 . S
C58 C48 1.476 . S
C58 N53 1.318 . S
C58 C57 1.396 . S
H59 C54 0.929 1_556 S
O60 Mn36 2.385 . S
O60 C38 1.234 . S
O61 Mn36 2.209 . S
O61 Mn37 2.215 1_554 S
O61 C38 1.283 . S
O62 Mn36 2.094 1_556 S
O62 C40 1.240 . S
O63 Mn37 2.117 . S
O63 C40 1.264 . S
C64 C57 1.403 . S
C64 C65 1.399 . S
C64 H70 0.929 . S
C65 C45 1.449 . S
C65 C64 1.399 . S
C65 H71 0.930 . S
H66 C46 0.931 . S
H67 C47 0.930 . S
H68 C55 0.931 . S
H69 C56 0.929 . S
H70 C64 0.929 . S
H71 C65 0.930 . S
Mn72 O77 2.095 1_564 S
Mn72 O87 2.162 . S
Mn72 O88 2.297 . S
Mn72 O96 2.385 . S
Mn72 O97 2.209 1_565 S
Mn72 O98 2.094 1_554 S
Mn73 O78 2.121 1_554 S
Mn73 N80 2.257 . S
Mn73 N89 2.282 . S
Mn73 O97 2.215 . S
Mn73 O99 2.117 1_554 S
C74 O96 1.202 1_545 S
C74 O97 1.316 . S
C75 O87 1.281 . S
C75 O88 1.236 . S
C76 O98 1.254 . S
C76 O99 1.234 1_565 S
O77 Mn72 2.095 1_546 S
O77 C86 1.250 . S
O78 Mn73 2.121 1_556 S
O78 C86 1.258 . S
C79 N80 1.326 . S
C79 C83 1.460 . S
C79 H85 0.929 . S
N80 Mn73 2.257 . S
N80 C79 1.326 . S
N80 C84 1.362 . S
C81 C82 1.258 . S
C81 C84 1.431 . S
C81 C101 1.449 . S
C82 C81 1.258 . S
C82 C83 1.477 . S
C82 H102 0.931 . S
C83 C79 1.460 . S
C83 C82 1.477 . S
C83 H103 0.930 . S
C84 N80 1.362 . S
C84 C81 1.431 . S
C84 C94 1.476 . S
H85 C79 0.929 . S
C86 O77 1.250 . S
C86 O78 1.258 . S
O87 Mn72 2.162 . S
O87 C75 1.281 . S
O88 Mn72 2.297 . S
O88 C75 1.236 . S
N89 Mn73 2.282 . S
N89 C90 1.328 . S
N89 C94 1.318 . S
C90 N89 1.328 . S
C90 C91 1.457 . S
C90 H95 0.929 . S
C91 C90 1.457 . S
C91 C92 1.291 . S
C91 H104 0.931 . S
C92 C91 1.291 . S
C92 C93 1.373 . S
C92 H105 0.929 . S
C93 C92 1.373 . S
C93 C94 1.396 . S
C93 C100 1.403 . S
C94 C84 1.476 . S
C94 N89 1.318 . S
C94 C93 1.396 . S
H95 C90 0.929 . S
O96 Mn72 2.385 . S
O96 C74 1.202 1_565 S
O97 Mn72 2.209 1_545 S
O97 Mn73 2.215 . S
O97 C74 1.316 . S
O98 Mn72 2.094 1_556 S
O98 C76 1.254 . S
O99 Mn73 2.117 1_556 S
O99 C76 1.234 1_545 S
C100 C93 1.403 . S
C100 C101 1.399 . S
C100 H106 0.929 . S
C101 C81 1.449 . S
C101 C100 1.399 . S
C101 H107 0.930 . S
H102 C82 0.931 . S
H103 C83 0.930 . S
H104 C91 0.931 . S
H105 C92 0.929 . S
H106 C100 0.929 . S
H107 C101 0.930 . S
Mn108 O113 2.095 1_655 S
Mn108 O123 2.162 . S
Mn108 O124 2.297 1_554 S
Mn108 O132 2.385 1_554 S
Mn108 O133 2.209 1_654 S
Mn108 O134 2.094 . S
Mn109 O114 2.121 . S
Mn109 N116 2.257 1_554 S
Mn109 N125 2.282 1_554 S
Mn109 O133 2.215 1_554 S
Mn109 O135 2.117 . S
C110 O132 1.234 1_455 S
C110 O133 1.283 . S
C111 O123 1.281 1_556 S
C111 O124 1.236 . S
C112 O134 1.234 1_455 S
C112 O135 1.270 . S
O113 Mn108 2.095 1_455 S
O113 C122 1.250 . S
O114 Mn109 2.121 . S
O114 C122 1.258 . S
C115 N116 1.326 . S
C115 C119 1.460 . S
C115 H121 0.929 . S
N116 Mn109 2.257 1_556 S
N116 C115 1.326 . S
N116 C120 1.362 . S
C117 C118 1.258 . S
C117 C120 1.431 . S
C117 C137 1.449 . S
C118 C117 1.258 . S
C118 C119 1.477 . S
C118 H138 0.931 . S
C119 C115 1.460 . S
C119 C118 1.477 . S
C119 H139 0.930 . S
C120 N116 1.362 . S
C120 C117 1.431 . S
C120 C130 1.476 . S
H121 C115 0.929 . S
C122 O113 1.250 . S
C122 O114 1.258 . S
O123 Mn108 2.162 . S
O123 C111 1.281 1_554 S
O124 Mn108 2.297 1_556 S
O124 C111 1.236 . S
N125 Mn109 2.282 1_556 S
N125 C126 1.328 1_556 S
N125 C130 1.318 . S
C126 N125 1.328 1_554 S
C126 C127 1.457 1_554 S
C126 H131 0.929 . S
C127 C126 1.457 1_556 S
C127 C128 1.291 . S
C127 H140 0.931 . S
C128 C127 1.291 . S
C128 C129 1.373 . S
C128 H141 0.929 . S
C129 C128 1.373 . S
C129 C130 1.396 . S
C129 C136 1.403 . S
C130 C120 1.476 . S
C130 N125 1.318 . S
C130 C129 1.396 . S
H131 C126 0.929 . S
O132 Mn108 2.385 1_556 S
O132 C110 1.234 1_655 S
O133 Mn108 2.209 1_456 S
O133 Mn109 2.215 1_556 S
O133 C110 1.283 . S
O134 Mn108 2.094 . S
O134 C112 1.234 1_655 S
O135 Mn109 2.117 . S
O135 C112 1.270 . S
C136 C129 1.403 . S
C136 C137 1.399 . S
C136 H142 0.929 . S
C137 C117 1.449 . S
C137 C136 1.399 . S
C137 H143 0.930 . S
H138 C118 0.931 . S
H139 C119 0.930 . S
H140 C127 0.931 . S
H141 C128 0.929 . S
H142 C136 0.929 . S
H143 C137 0.930 . S
Mn144 O149 2.095 1_554 S
Mn144 O159 2.162 . S
Mn144 O160 2.297 . S
Mn144 O168 2.385 . S
Mn144 O169 2.209 . S
Mn144 O170 2.094 1_554 S
Mn145 O150 2.121 . S
Mn145 N152 2.257 1_556 S
Mn145 N161 2.282 1_556 S
Mn145 O169 2.215 1_556 S
Mn145 O171 2.117 . S
C146 O168 1.234 . S
C146 O169 1.283 . S
C147 O159 1.281 . S
C147 O160 1.236 . S
C148 O170 1.240 . S
C148 O171 1.264 . S
O149 Mn144 2.095 1_556 S
O149 C158 1.250 . S
O150 Mn145 2.121 . S
O150 C158 1.258 . S
C151 N152 1.326 . S
C151 C155 1.460 . S
C151 H157 0.929 . S
N152 Mn145 2.257 1_554 S
N152 C151 1.326 . S
N152 C156 1.362 . S
C153 C154 1.258 . S
C153 C156 1.431 . S
C153 C173 1.449 . S
C154 C153 1.258 . S
C154 C155 1.477 . S
C154 H174 0.931 . S
C155 C151 1.460 . S
C155 C154 1.477 . S
C155 H175 0.930 . S
C156 N152 1.362 . S
C156 C153 1.431 . S
C156 C166 1.476 . S
H157 C151 0.929 . S
C158 O149 1.250 . S
C158 O150 1.258 . S
O159 Mn144 2.162 . S
O159 C147 1.281 . S
O160 Mn144 2.297 . S
O160 C147 1.236 . S
N161 Mn145 2.282 1_554 S
N161 C162 1.328 . S
N161 C166 1.318 . S
C162 N161 1.328 . S
C162 C163 1.457 . S
C162 H167 0.929 1_554 S
C163 C162 1.457 . S
C163 C164 1.291 . S
C163 H176 0.931 . S
C164 C163 1.291 . S
C164 C165 1.373 . S
C164 H177 0.929 . S
C165 C164 1.373 . S
C165 C166 1.396 . S
C165 C172 1.403 . S
C166 C156 1.476 . S
C166 N161 1.318 . S
C166 C165 1.396 . S
H167 C162 0.929 1_556 S
O168 Mn144 2.385 . S
O168 C146 1.234 . S
O169 Mn144 2.209 . S
O169 Mn145 2.215 1_554 S
O169 C146 1.283 . S
O170 Mn144 2.094 1_556 S
O170 C148 1.240 . S
O171 Mn145 2.117 . S
O171 C148 1.264 . S
C172 C165 1.403 . S
C172 C173 1.399 . S
C172 H178 0.929 . S
C173 C153 1.449 . S
C173 C172 1.399 . S
C173 H179 0.930 . S
H174 C154 0.931 . S
H175 C155 0.930 . S
H176 C163 0.931 . S
H177 C164 0.929 . S
H178 C172 0.929 . S
H179 C173 0.930 . S
Mn180 O185 2.095 1_545 S
Mn180 O195 2.162 . S
Mn180 O196 2.297 1_554 S
Mn180 O204 2.385 1_554 S
Mn180 O205 2.209 1_544 S
Mn180 O206 2.094 . S
Mn181 O186 2.121 . S
Mn181 N188 2.257 1_554 S
Mn181 N197 2.282 1_554 S
Mn181 O205 2.215 1_554 S
Mn181 O207 2.117 . S
C182 O204 1.232 1_565 S
C182 O205 1.285 . S
C183 O195 1.281 1_556 S
C183 O196 1.236 . S
C184 O206 1.240 . S
C184 O207 1.264 1_545 S
O185 Mn180 2.095 1_565 S
O185 C194 1.250 . S
O186 Mn181 2.121 . S
O186 C194 1.258 . S
C187 N188 1.326 . S
C187 C191 1.460 . S
C187 H193 0.929 . S
N188 Mn181 2.257 1_556 S
N188 C187 1.326 . S
N188 C192 1.362 . S
C189 C190 1.258 . S
C189 C192 1.431 . S
C189 C209 1.449 . S
C190 C189 1.258 . S
C190 C191 1.477 . S
C190 H210 0.931 . S
C191 C187 1.460 . S
C191 C190 1.477 . S
C191 H211 0.930 . S
C192 N188 1.362 . S
C192 C189 1.431 . S
C192 C202 1.476 . S
H193 C187 0.929 . S
C194 O185 1.250 . S
C194 O186 1.258 . S
O195 Mn180 2.162 . S
O195 C183 1.281 1_554 S
O196 Mn180 2.297 1_556 S
O196 C183 1.236 . S
N197 Mn181 2.282 1_556 S
N197 C198 1.328 1_556 S
N197 C202 1.318 . S
C198 N197 1.328 1_554 S
C198 C199 1.457 1_554 S
C198 H203 0.929 . S
C199 C198 1.457 1_556 S
C199 C200 1.291 . S
C199 H212 0.931 . S
C200 C199 1.291 . S
C200 C201 1.373 . S
C200 H213 0.929 . S
C201 C200 1.373 . S
C201 C202 1.396 . S
C201 C208 1.403 . S
C202 C192 1.476 . S
C202 N197 1.318 . S
C202 C201 1.396 . S
H203 C198 0.929 . S
O204 Mn180 2.385 1_556 S
O204 C182 1.232 1_545 S
O205 Mn180 2.209 1_566 S
O205 Mn181 2.215 1_556 S
O205 C182 1.285 . S
O206 Mn180 2.094 . S
O206 C184 1.240 . S
O207 Mn181 2.117 . S
O207 C184 1.264 1_565 S
C208 C201 1.403 . S
C208 C209 1.399 . S
C208 H214 0.929 . S
C209 C189 1.449 . S
C209 C208 1.399 . S
C209 H215 0.930 . S
H210 C190 0.931 . S
H211 C191 0.930 . S
H212 C199 0.931 . S
H213 C200 0.929 . S
H214 C208 0.929 . S
H215 C209 0.930 . S
Mn216 O221 2.095 . S
Mn216 O231 2.162 . S
Mn216 O232 2.297 . S
Mn216 O240 2.385 . S
Mn216 O241 2.209 . S
Mn216 O242 2.094 . S
Mn217 O222 2.121 . S
Mn217 N224 2.257 . S
Mn217 N233 2.282 . S
Mn217 O241 2.215 . S
Mn217 O243 2.117 . S
C218 O240 1.234 . S
C218 O241 1.283 . S
C219 O231 1.281 . S
C219 O232 1.236 . S
C220 O242 1.240 . S
C220 O243 1.264 . S
O221 Mn216 2.095 . S
O221 C230 1.250 . S
O222 Mn217 2.121 . S
O222 C230 1.258 . S
C223 N224 1.326 . S
C223 C227 1.460 . S
C223 H229 0.929 . S
N224 Mn217 2.257 . S
N224 C223 1.326 . S
N224 C228 1.362 . S
C225 C226 1.258 . S
C225 C228 1.431 . S
C225 C245 1.449 . S
C226 C225 1.258 . S
C226 C227 1.477 . S
C226 H246 0.931 . S
C227 C223 1.460 . S
C227 C226 1.477 . S
C227 H247 0.930 . S
C228 N224 1.362 . S
C228 C225 1.431 . S
C228 C238 1.476 . S
H229 C223 0.929 . S
C230 O221 1.250 . S
C230 O222 1.258 . S
O231 Mn216 2.162 . S
O231 C219 1.281 . S
O232 Mn216 2.297 . S
O232 C219 1.236 . S
N233 Mn217 2.282 . S
N233 C234 1.328 . S
N233 C238 1.318 . S
C234 N233 1.328 . S
C234 C235 1.457 . S
C234 H239 0.929 . S
C235 C234 1.457 . S
C235 C236 1.291 . S
C235 H248 0.931 . S
C236 C235 1.291 . S
C236 C237 1.373 . S
C236 H249 0.929 . S
C237 C236 1.373 . S
C237 C238 1.396 . S
C237 C244 1.403 . S
C238 C228 1.476 . S
C238 N233 1.318 . S
C238 C237 1.396 . S
H239 C234 0.929 . S
O240 Mn216 2.385 . S
O240 C218 1.234 . S
O241 Mn216 2.209 . S
O241 Mn217 2.215 . S
O241 C218 1.283 . S
O242 Mn216 2.094 . S
O242 C220 1.240 . S
O243 Mn217 2.117 . S
O243 C220 1.264 . S
C244 C237 1.403 . S
C244 C245 1.399 . S
C244 H250 0.929 . S
C245 C225 1.449 . S
C245 C244 1.399 . S
C245 H251 0.930 . S
H246 C226 0.931 . S
H247 C227 0.930 . S
H248 C235 0.931 . S
H249 C236 0.929 . S
H250 C244 0.929 . S
H251 C245 0.930 . S
Mn252 O257 2.095 . S
Mn252 O267 2.162 1_565 S
Mn252 O268 2.297 1_565 S
Mn252 O276 2.385 . S
Mn252 O277 2.209 . S
Mn252 O278 2.094 . S
Mn253 O258 2.121 . S
Mn253 N260 2.257 . S
Mn253 N269 2.282 . S
Mn253 O277 2.215 . S
Mn253 O279 2.117 . S
C254 O276 1.234 . S
C254 O277 1.283 . S
C255 O267 1.281 . S
C255 O268 1.236 . S
C256 O278 1.240 . S
C256 O279 1.264 . S
O257 Mn252 2.095 . S
O257 C266 1.250 . S
O258 Mn253 2.121 . S
O258 C266 1.258 . S
C259 N260 1.326 . S
C259 C263 1.460 . S
C259 H265 0.929 . S
N260 Mn253 2.257 . S
N260 C259 1.326 . S
N260 C264 1.362 . S
C261 C262 1.258 . S
C261 C264 1.431 . S
C261 C281 1.449 . S
C262 C261 1.258 . S
C262 C263 1.477 . S
C262 H282 0.931 . S
C263 C259 1.460 . S
C263 C262 1.477 . S
C263 H283 0.930 . S
C264 N260 1.362 . S
C264 C261 1.431 . S
C264 C274 1.476 . S
H265 C259 0.929 . S
C266 O257 1.250 . S
C266 O258 1.258 . S
O267 Mn252 2.162 1_545 S
O267 C255 1.281 . S
O268 Mn252 2.297 1_545 S
O268 C255 1.236 . S
N269 Mn253 2.282 . S
N269 C270 1.328 . S
N269 C274 1.318 . S
C270 N269 1.328 . S
C270 C271 1.457 . S
C270 H275 0.929 . S
C271 C270 1.457 . S
C271 C272 1.291 . S
C271 H284 0.931 . S
C272 C271 1.291 . S
C272 C273 1.373 . S
C272 H285 0.929 . S
C273 C272 1.373 . S
C273 C274 1.396 . S
C273 C280 1.403 . S
C274 C264 1.476 . S
C274 N269 1.318 . S
C274 C273 1.396 . S
H275 C270 0.929 . S
O276 Mn252 2.385 . S
O276 C254 1.234 . S
O277 Mn252 2.209 . S
O277 Mn253 2.215 . S
O277 C254 1.283 . S
O278 Mn252 2.094 . S
O278 C256 1.240 . S
O279 Mn253 2.117 . S
O279 C256 1.264 . S
C280 C273 1.403 . S
C280 C281 1.399 . S
C280 H286 0.929 . S
C281 C261 1.449 . S
C281 C280 1.399 . S
C281 H287 0.930 . S
H282 C262 0.931 . S
H283 C263 0.930 . S
H284 C271 0.931 . S
H285 C272 0.929 . S
H286 C280 0.929 . S
H287 C281 0.930 . S
Mn288 O293 2.095 . S
Mn288 O303 2.162 1_455 S
Mn288 O304 2.297 1_455 S
Mn288 O312 2.385 . S
Mn288 O313 2.209 . S
Mn288 O314 2.094 . S
Mn289 O294 2.121 . S
Mn289 N296 2.257 . S
Mn289 N305 2.282 . S
Mn289 O313 2.215 . S
Mn289 O315 2.117 . S
C290 O312 1.234 . S
C290 O313 1.283 . S
C291 O303 1.281 . S
C291 O304 1.236 . S
C292 O314 1.240 . S
C292 O315 1.264 . S
O293 Mn288 2.095 . S
O293 C302 1.250 . S
O294 Mn289 2.121 . S
O294 C302 1.258 . S
C295 N296 1.326 . S
C295 C299 1.460 . S
C295 H301 0.929 . S
N296 Mn289 2.257 . S
N296 C295 1.326 . S
N296 C300 1.362 . S
C297 C298 1.258 . S
C297 C300 1.431 . S
C297 C317 1.449 . S
C298 C297 1.258 . S
C298 C299 1.477 . S
C298 H318 0.931 . S
C299 C295 1.460 . S
C299 C298 1.477 . S
C299 H319 0.930 . S
C300 N296 1.362 . S
C300 C297 1.431 . S
C300 C310 1.476 . S
H301 C295 0.929 . S
C302 O293 1.250 . S
C302 O294 1.258 . S
O303 Mn288 2.162 1_655 S
O303 C291 1.281 . S
O304 Mn288 2.297 1_655 S
O304 C291 1.236 . S
N305 Mn289 2.282 . S
N305 C306 1.328 . S
N305 C310 1.318 . S
C306 N305 1.328 . S
C306 C307 1.457 . S
C306 H311 0.929 . S
C307 C306 1.457 . S
C307 C308 1.291 . S
C307 H320 0.931 . S
C308 C307 1.291 . S
C308 C309 1.373 . S
C308 H321 0.929 . S
C309 C308 1.373 . S
C309 C310 1.396 . S
C309 C316 1.403 . S
C310 C300 1.476 . S
C310 N305 1.318 . S
C310 C309 1.396 . S
H311 C306 0.929 . S
O312 Mn288 2.385 . S
O312 C290 1.234 . S
O313 Mn288 2.209 . S
O313 Mn289 2.215 . S
O313 C290 1.283 . S
O314 Mn288 2.094 . S
O314 C292 1.240 . S
O315 Mn289 2.117 . S
O315 C292 1.264 . S
C316 C309 1.403 . S
C316 C317 1.399 . S
C316 H322 0.929 . S
C317 C297 1.449 . S
C317 C316 1.399 . S
C317 H323 0.930 . S
H318 C298 0.931 . S
H319 C299 0.930 . S
H320 C307 0.931 . S
H321 C308 0.929 . S
H322 C316 0.929 . S
H323 C317 0.930 . S
Mn324 O329 2.095 1_565 S
Mn324 O339 2.162 . S
Mn324 O340 2.303 . S
Mn324 O348 2.385 . S
Mn324 O349 2.209 . S
Mn324 O350 2.094 . S
Mn325 O330 2.121 1_565 S
Mn325 N332 2.257 . S
Mn325 N341 2.282 . S
Mn325 O349 2.215 . S
Mn325 O351 2.117 . S
C326 O348 1.234 . S
C326 O349 1.283 . S
C327 O339 1.281 . S
C327 O340 1.235 . S
C328 O350 1.240 . S
C328 O351 1.264 . S
O329 Mn324 2.095 1_545 S
O329 C338 1.250 . S
O330 Mn325 2.121 1_545 S
O330 C338 1.258 . S
C331 N332 1.326 1_545 S
C331 C335 1.460 . S
C331 H337 0.929 . S
N332 Mn325 2.257 . S
N332 C331 1.326 1_565 S
N332 C336 1.362 . S
C333 C334 1.258 1_565 S
C333 C336 1.431 . S
C333 C353 1.449 . S
C334 C333 1.258 1_545 S
C334 C335 1.477 . S
C334 H354 0.931 . S
C335 C331 1.460 . S
C335 C334 1.477 . S
C335 H355 0.930 . S
C336 N332 1.362 . S
C336 C333 1.431 . S
C336 C346 1.476 . S
H337 C331 0.929 . S
C338 O329 1.250 . S
C338 O330 1.258 . S
O339 Mn324 2.162 . S
O339 C327 1.281 . S
O340 Mn324 2.303 . S
O340 C327 1.235 . S
N341 Mn325 2.282 . S
N341 C342 1.328 . S
N341 C346 1.318 . S
C342 N341 1.328 . S
C342 C343 1.457 . S
C342 H347 0.929 . S
C343 C342 1.457 . S
C343 C344 1.291 . S
C343 H356 0.931 . S
C344 C343 1.291 . S
C344 C345 1.373 . S
C344 H357 0.929 . S
C345 C344 1.373 . S
C345 C346 1.396 . S
C345 C352 1.403 . S
C346 C336 1.476 . S
C346 N341 1.318 . S
C346 C345 1.396 . S
H347 C342 0.929 . S
O348 Mn324 2.385 . S
O348 C326 1.234 . S
O349 Mn324 2.209 . S
O349 Mn325 2.215 . S
O349 C326 1.283 . S
O350 Mn324 2.094 . S
O350 C328 1.240 . S
O351 Mn325 2.117 . S
O351 C328 1.264 . S
C352 C345 1.403 . S
C352 C353 1.399 . S
C352 H358 0.929 . S
C353 C333 1.449 . S
C353 C352 1.399 . S
C353 H359 0.930 . S
H354 C334 0.931 . S
H355 C335 0.930 . S
H356 C343 0.931 . S
H357 C344 0.929 . S
H358 C352 0.929 . S
H359 C353 0.930 . S
Mn360 O365 2.095 . S
Mn360 O375 2.162 1_455 S
Mn360 O376 2.297 1_455 S
Mn360 O384 2.385 . S
Mn360 O385 2.209 . S
Mn360 O386 2.094 . S
Mn361 O366 2.121 . S
Mn361 N368 2.257 . S
Mn361 N377 2.282 . S
Mn361 O385 2.215 . S
Mn361 O387 2.117 . S
C362 O384 1.234 . S
C362 O385 1.283 . S
C363 O375 1.281 . S
C363 O376 1.236 . S
C364 O386 1.240 . S
C364 O387 1.264 . S
O365 Mn360 2.095 . S
O365 C374 1.250 . S
O366 Mn361 2.121 . S
O366 C374 1.258 . S
C367 N368 1.326 . S
C367 C371 1.460 . S
C367 H373 0.929 . S
N368 Mn361 2.257 . S
N368 C367 1.326 . S
N368 C372 1.362 . S
C369 C370 1.258 . S
C369 C372 1.431 . S
C369 C389 1.449 . S
C370 C369 1.258 . S
C370 C371 1.477 . S
C370 H390 0.931 . S
C371 C367 1.460 . S
C371 C370 1.477 . S
C371 H391 0.930 . S
C372 N368 1.362 . S
C372 C369 1.431 . S
C372 C382 1.476 . S
H373 C367 0.929 . S
C374 O365 1.250 . S
C374 O366 1.258 . S
O375 Mn360 2.162 1_655 S
O375 C363 1.281 . S
O376 Mn360 2.297 1_655 S
O376 C363 1.236 . S
N377 Mn361 2.282 . S
N377 C378 1.328 . S
N377 C382 1.318 . S
C378 N377 1.328 . S
C378 C379 1.457 . S
C378 H383 0.929 . S
C379 C378 1.457 . S
C379 C380 1.291 . S
C379 H392 0.931 . S
C380 C379 1.291 . S
C380 C381 1.373 . S
C380 H393 0.929 . S
C381 C380 1.373 . S
C381 C382 1.396 . S
C381 C388 1.403 . S
C382 C372 1.476 . S
C382 N377 1.318 . S
C382 C381 1.396 . S
H383 C378 0.929 . S
O384 Mn360 2.385 . S
O384 C362 1.234 . S
O385 Mn360 2.209 . S
O385 Mn361 2.215 . S
O385 C362 1.283 . S
O386 Mn360 2.094 . S
O386 C364 1.240 . S
O387 Mn361 2.117 . S
O387 C364 1.264 . S
C388 C381 1.403 . S
C388 C389 1.399 . S
C388 H394 0.929 . S
C389 C369 1.449 . S
C389 C388 1.399 . S
C389 H395 0.930 . S
H390 C370 0.931 . S
H391 C371 0.930 . S
H392 C379 0.931 . S
H393 C380 0.929 . S
H394 C388 0.929 . S
H395 C389 0.930 . S
Mn396 O401 2.095 . S
Mn396 O411 2.162 . S
Mn396 O412 2.297 . S
Mn396 O420 2.385 . S
Mn396 O421 2.209 . S
Mn396 O422 2.094 . S
Mn397 O402 2.121 . S
Mn397 N404 2.257 . S
Mn397 N413 2.282 . S
Mn397 O421 2.215 . S
Mn397 O423 2.117 . S
C398 O420 1.234 . S
C398 O421 1.283 . S
C399 O411 1.281 . S
C399 O412 1.236 . S
C400 O422 1.240 . S
C400 O423 1.264 . S
O401 Mn396 2.095 . S
O401 C410 1.250 . S
O402 Mn397 2.121 . S
O402 C410 1.258 . S
C403 N404 1.326 . S
C403 C407 1.460 . S
C403 H409 0.929 . S
N404 Mn397 2.257 . S
N404 C403 1.326 . S
N404 C408 1.362 . S
C405 C406 1.258 . S
C405 C408 1.431 . S
C405 C425 1.449 . S
C406 C405 1.258 . S
C406 C407 1.477 . S
C406 H426 0.931 . S
C407 C403 1.460 . S
C407 C406 1.477 . S
C407 H427 0.930 . S
C408 N404 1.362 . S
C408 C405 1.431 . S
C408 C418 1.476 . S
H409 C403 0.929 . S
C410 O401 1.250 . S
C410 O402 1.258 . S
O411 Mn396 2.162 . S
O411 C399 1.281 . S
O412 Mn396 2.297 . S
O412 C399 1.236 . S
N413 Mn397 2.282 . S
N413 C414 1.328 . S
N413 C418 1.318 . S
C414 N413 1.328 . S
C414 C415 1.457 . S
C414 H419 0.929 . S
C415 C414 1.457 . S
C415 C416 1.291 . S
C415 H428 0.931 . S
C416 C415 1.291 . S
C416 C417 1.373 . S
C416 H429 0.929 . S
C417 C416 1.373 . S
C417 C418 1.396 . S
C417 C424 1.403 . S
C418 C408 1.476 . S
C418 N413 1.318 . S
C418 C417 1.396 . S
H419 C414 0.929 . S
O420 Mn396 2.385 . S
O420 C398 1.234 . S
O421 Mn396 2.209 . S
O421 Mn397 2.215 . S
O421 C398 1.283 . S
O422 Mn396 2.094 . S
O422 C400 1.240 . S
O423 Mn397 2.117 . S
O423 C400 1.264 . S
C424 C417 1.403 . S
C424 C425 1.399 . S
C424 H430 0.929 . S
C425 C405 1.449 . S
C425 C424 1.399 . S
C425 H431 0.930 . S
H426 C406 0.931 . S
H427 C407 0.930 . S
H428 C415 0.931 . S
H429 C416 0.929 . S
H430 C424 0.929 . S
H431 C425 0.930 . S
Mn432 O437 2.095 . S
Mn432 O447 2.162 1_545 S
Mn432 O448 2.297 1_545 S
Mn432 O456 2.385 . S
Mn432 O457 2.209 . S
Mn432 O458 2.094 . S
Mn433 O438 2.121 . S
Mn433 N440 2.257 . S
Mn433 N449 2.282 . S
Mn433 O457 2.215 . S
Mn433 O459 2.117 . S
C434 O456 1.234 . S
C434 O457 1.283 . S
C435 O447 1.281 . S
C435 O448 1.236 . S
C436 O458 1.240 . S
C436 O459 1.264 . S
O437 Mn432 2.095 . S
O437 C446 1.250 . S
O438 Mn433 2.121 . S
O438 C446 1.258 . S
C439 N440 1.326 . S
C439 C443 1.460 . S
C439 H445 0.929 . S
N440 Mn433 2.257 . S
N440 C439 1.326 . S
N440 C444 1.362 . S
C441 C442 1.258 . S
C441 C444 1.431 . S
C441 C461 1.449 . S
C442 C441 1.258 . S
C442 C443 1.477 . S
C442 H462 0.931 . S
C443 C439 1.460 . S
C443 C442 1.477 . S
C443 H463 0.930 . S
C444 N440 1.362 . S
C444 C441 1.431 . S
C444 C454 1.476 . S
H445 C439 0.929 . S
C446 O437 1.250 . S
C446 O438 1.258 . S
O447 Mn432 2.162 1_565 S
O447 C435 1.281 . S
O448 Mn432 2.297 1_565 S
O448 C435 1.236 . S
N449 Mn433 2.282 . S
N449 C450 1.328 . S
N449 C454 1.318 . S
C450 N449 1.328 . S
C450 C451 1.457 . S
C450 H455 0.929 . S
C451 C450 1.457 . S
C451 C452 1.291 . S
C451 H464 0.931 . S
C452 C451 1.291 . S
C452 C453 1.373 . S
C452 H465 0.929 . S
C453 C452 1.373 . S
C453 C454 1.396 . S
C453 C460 1.403 . S
C454 C444 1.476 . S
C454 N449 1.318 . S
C454 C453 1.396 . S
H455 C450 0.929 . S
O456 Mn432 2.385 . S
O456 C434 1.234 . S
O457 Mn432 2.209 . S
O457 Mn433 2.215 . S
O457 C434 1.283 . S
O458 Mn432 2.094 . S
O458 C436 1.240 . S
O459 Mn433 2.117 . S
O459 C436 1.264 . S
C460 C453 1.403 . S
C460 C461 1.399 . S
C460 H466 0.929 . S
C461 C441 1.449 . S
C461 C460 1.399 . S
C461 H467 0.930 . S
H462 C442 0.931 . S
H463 C443 0.930 . S
H464 C451 0.931 . S
H465 C452 0.929 . S
H466 C460 0.929 . S
H467 C461 0.930 . S
Mn468 O473 2.095 1_655 S
Mn468 O483 2.162 . S
Mn468 O484 2.297 . S
Mn468 O492 2.385 . S
Mn468 O493 2.209 . S
Mn468 O494 2.094 . S
Mn469 O474 2.121 1_655 S
Mn469 N476 2.257 . S
Mn469 N485 2.282 . S
Mn469 O493 2.215 . S
Mn469 O495 2.117 . S
C470 O492 1.234 . S
C470 O493 1.283 . S
C471 O483 1.281 . S
C471 O484 1.236 . S
C472 O494 1.240 . S
C472 O495 1.264 . S
O473 Mn468 2.095 1_455 S
O473 C482 1.250 . S
O474 Mn469 2.121 1_455 S
O474 C482 1.258 . S
C475 N476 1.326 1_455 S
C475 C479 1.460 . S
C475 H481 0.929 . S
N476 Mn469 2.257 . S
N476 C475 1.326 1_655 S
N476 C480 1.362 . S
C477 C478 1.258 1_655 S
C477 C480 1.431 . S
C477 C497 1.449 . S
C478 C477 1.258 1_455 S
C478 C479 1.477 . S
C478 H498 0.931 . S
C479 C475 1.460 . S
C479 C478 1.477 . S
C479 H499 0.930 . S
C480 N476 1.362 . S
C480 C477 1.431 . S
C480 C490 1.476 . S
H481 C475 0.929 . S
C482 O473 1.250 . S
C482 O474 1.258 . S
O483 Mn468 2.162 . S
O483 C471 1.281 . S
O484 Mn468 2.297 . S
O484 C471 1.236 . S
N485 Mn469 2.282 . S
N485 C486 1.328 . S
N485 C490 1.318 . S
C486 N485 1.328 . S
C486 C487 1.457 . S
C486 H491 0.929 . S
C487 C486 1.457 . S
C487 C488 1.291 . S
C487 H500 0.931 . S
C488 C487 1.291 . S
C488 C489 1.373 . S
C488 H501 0.929 . S
C489 C488 1.373 . S
C489 C490 1.396 . S
C489 C496 1.403 . S
C490 C480 1.476 . S
C490 N485 1.318 . S
C490 C489 1.396 . S
H491 C486 0.929 . S
O492 Mn468 2.385 . S
O492 C470 1.234 . S
O493 Mn468 2.209 . S
O493 Mn469 2.215 . S
O493 C470 1.283 . S
O494 Mn468 2.094 . S
O494 C472 1.240 . S
O495 Mn469 2.117 . S
O495 C472 1.264 . S
C496 C489 1.403 . S
C496 C497 1.399 . S
C496 H502 0.929 . S
C497 C477 1.449 . S
C497 C496 1.399 . S
C497 H503 0.930 . S
H498 C478 0.931 . S
H499 C479 0.930 . S
H500 C487 0.931 . S
H501 C488 0.929 . S
H502 C496 0.929 . S
H503 C497 0.930 . S
Mn504 O509 2.095 . S
Mn504 O519 2.162 . S
Mn504 O520 2.297 . S
Mn504 O528 2.385 . S
Mn504 O529 2.209 . S
Mn504 O530 2.094 . S
Mn505 O510 2.121 . S
Mn505 N512 2.257 . S
Mn505 N521 2.282 . S
Mn505 O529 2.215 . S
Mn505 O531 2.117 . S
C506 O528 1.234 . S
C506 O529 1.283 . S
C507 O519 1.281 . S
C507 O520 1.236 . S
C508 O530 1.240 . S
C508 O531 1.264 . S
O509 Mn504 2.095 . S
O509 C518 1.250 . S
O510 Mn505 2.121 . S
O510 C518 1.258 . S
C511 N512 1.326 . S
C511 C515 1.460 . S
C511 H517 0.929 . S
N512 Mn505 2.257 . S
N512 C511 1.326 . S
N512 C516 1.362 . S
C513 C514 1.258 . S
C513 C516 1.431 . S
C513 C533 1.449 . S
C514 C513 1.258 . S
C514 C515 1.477 . S
C514 H534 0.931 . S
C515 C511 1.460 . S
C515 C514 1.477 . S
C515 H535 0.930 . S
C516 N512 1.362 . S
C516 C513 1.431 . S
C516 C526 1.476 . S
H517 C511 0.929 . S
C518 O509 1.250 . S
C518 O510 1.258 . S
O519 Mn504 2.162 . S
O519 C507 1.281 . S
O520 Mn504 2.297 . S
O520 C507 1.236 . S
N521 Mn505 2.282 . S
N521 C522 1.328 . S
N521 C526 1.318 . S
C522 N521 1.328 . S
C522 C523 1.457 . S
C522 H527 0.929 . S
C523 C522 1.457 . S
C523 C524 1.291 . S
C523 H536 0.931 . S
C524 C523 1.291 . S
C524 C525 1.373 . S
C524 H537 0.929 . S
C525 C524 1.373 . S
C525 C526 1.396 . S
C525 C532 1.403 . S
C526 C516 1.476 . S
C526 N521 1.318 . S
C526 C525 1.396 . S
H527 C522 0.929 . S
O528 Mn504 2.385 . S
O528 C506 1.234 . S
O529 Mn504 2.209 . S
O529 Mn505 2.215 . S
O529 C506 1.283 . S
O530 Mn504 2.094 . S
O530 C508 1.240 . S
O531 Mn505 2.117 . S
O531 C508 1.264 . S
C532 C525 1.403 . S
C532 C533 1.399 . S
C532 H538 0.929 . S
C533 C513 1.449 . S
C533 C532 1.399 . S
C533 H539 0.930 . S
H534 C514 0.931 . S
H535 C515 0.930 . S
H536 C523 0.931 . S
H537 C524 0.929 . S
H538 C532 0.929 . S
H539 C533 0.930 . S
Mn540 O545 2.095 . S
Mn540 O555 2.162 . S
Mn540 O556 2.297 . S
Mn540 O564 2.385 . S
Mn540 O565 2.209 . S
Mn540 O566 2.094 . S
Mn541 O546 2.121 . S
Mn541 N548 2.257 . S
Mn541 N557 2.282 . S
Mn541 O565 2.215 . S
Mn541 O567 2.117 . S
C542 O564 1.234 . S
C542 O565 1.283 . S
C543 O555 1.281 . S
C543 O556 1.236 . S
C544 O566 1.240 . S
C544 O567 1.264 . S
O545 Mn540 2.095 . S
O545 C554 1.250 . S
O546 Mn541 2.121 . S
O546 C554 1.258 . S
C547 N548 1.326 . S
C547 C551 1.460 . S
C547 H553 0.929 . S
N548 Mn541 2.257 . S
N548 C547 1.326 . S
N548 C552 1.362 . S
C549 C550 1.258 . S
C549 C552 1.431 . S
C549 C569 1.449 . S
C550 C549 1.258 . S
C550 C551 1.477 . S
C550 H570 0.931 . S
C551 C547 1.460 . S
C551 C550 1.477 . S
C551 H571 0.930 . S
C552 N548 1.362 . S
C552 C549 1.431 . S
C552 C562 1.476 . S
H553 C547 0.929 . S
C554 O545 1.250 . S
C554 O546 1.258 . S
O555 Mn540 2.162 . S
O555 C543 1.281 . S
O556 Mn540 2.297 . S
O556 C543 1.236 . S
N557 Mn541 2.282 . S
N557 C558 1.328 . S
N557 C562 1.318 . S
C558 N557 1.328 . S
C558 C559 1.457 . S
C558 H563 0.929 . S
C559 C558 1.457 . S
C559 C560 1.291 . S
C559 H572 0.931 . S
C560 C559 1.291 . S
C560 C561 1.373 . S
C560 H573 0.929 . S
C561 C560 1.373 . S
C561 C562 1.396 . S
C561 C568 1.403 . S
C562 C552 1.476 . S
C562 N557 1.318 . S
C562 C561 1.396 . S
H563 C558 0.929 . S
O564 Mn540 2.385 . S
O564 C542 1.234 . S
O565 Mn540 2.209 . S
O565 Mn541 2.215 . S
O565 C542 1.283 . S
O566 Mn540 2.094 . S
O566 C544 1.240 . S
O567 Mn541 2.117 . S
O567 C544 1.264 . S
C568 C561 1.403 . S
C568 C569 1.399 . S
C568 H574 0.929 . S
C569 C549 1.449 . S
C569 C568 1.399 . S
C569 H575 0.930 . S
H570 C550 0.931 . S
H571 C551 0.930 . S
H572 C559 0.931 . S
H573 C560 0.929 . S
H574 C568 0.929 . S
H575 C569 0.930 . S
Mn576 O581 2.095 1_545 S
Mn576 O591 2.162 . S
Mn576 O592 2.293 1_545 S
Mn576 O600 2.385 . S
Mn576 O601 2.209 . S
Mn576 O602 2.094 . S
Mn577 O582 2.121 1_545 S
Mn577 N584 2.257 . S
Mn577 N593 2.282 . S
Mn577 O601 2.215 . S
Mn577 O603 2.117 . S
C578 O600 1.234 . S
C578 O601 1.283 . S
C579 O591 1.281 . S
C579 O592 1.220 1_545 S
C580 O602 1.240 . S
C580 O603 1.264 . S
O581 Mn576 2.095 1_565 S
O581 C590 1.250 . S
O582 Mn577 2.121 1_565 S
O582 C590 1.258 . S
C583 N584 1.326 1_565 S
C583 C587 1.460 . S
C583 H589 0.929 . S
N584 Mn577 2.257 . S
N584 C583 1.326 1_545 S
N584 C588 1.362 . S
C585 C586 1.258 1_545 S
C585 C588 1.431 . S
C585 C605 1.449 . S
C586 C585 1.258 1_565 S
C586 C587 1.477 . S
C586 H606 0.931 . S
C587 C583 1.460 . S
C587 C586 1.477 . S
C587 H607 0.930 . S
C588 N584 1.362 . S
C588 C585 1.431 . S
C588 C598 1.476 . S
H589 C583 0.929 . S
C590 O581 1.250 . S
C590 O582 1.258 . S
O591 Mn576 2.162 . S
O591 C579 1.281 . S
O592 Mn576 2.293 1_565 S
O592 C579 1.220 1_565 S
N593 Mn577 2.282 . S
N593 C594 1.328 . S
N593 C598 1.318 . S
C594 N593 1.328 . S
C594 C595 1.457 . S
C594 H599 0.929 . S
C595 C594 1.457 . S
C595 C596 1.291 . S
C595 H608 0.931 . S
C596 C595 1.291 . S
C596 C597 1.373 . S
C596 H609 0.929 . S
C597 C596 1.373 . S
C597 C598 1.396 . S
C597 C604 1.403 . S
C598 C588 1.476 . S
C598 N593 1.318 . S
C598 C597 1.396 . S
H599 C594 0.929 . S
O600 Mn576 2.385 . S
O600 C578 1.234 . S
O601 Mn576 2.209 . S
O601 Mn577 2.215 . S
O601 C578 1.283 . S
O602 Mn576 2.094 . S
O602 C580 1.240 . S
O603 Mn577 2.117 . S
O603 C580 1.264 . S
C604 C597 1.403 . S
C604 C605 1.399 . S
C604 H610 0.929 . S
C605 C585 1.449 . S
C605 C604 1.399 . S
C605 H611 0.930 . S
H606 C586 0.931 . S
H607 C587 0.930 . S
H608 C595 0.931 . S
H609 C596 0.929 . S
H610 C604 0.929 . S
H611 C605 0.930 . S
Mn612 O617 2.095 . S
Mn612 O627 2.162 1_655 S
Mn612 O628 2.297 1_655 S
Mn612 O636 2.385 . S
Mn612 O637 2.209 . S
Mn612 O638 2.094 . S
Mn613 O618 2.121 . S
Mn613 N620 2.257 . S
Mn613 N629 2.282 . S
Mn613 O637 2.215 . S
Mn613 O639 2.117 . S
C614 O636 1.234 . S
C614 O637 1.283 . S
C615 O627 1.281 . S
C615 O628 1.236 . S
C616 O638 1.240 . S
C616 O639 1.264 . S
O617 Mn612 2.095 . S
O617 C626 1.250 . S
O618 Mn613 2.121 . S
O618 C626 1.258 . S
C619 N620 1.326 . S
C619 C623 1.460 . S
C619 H625 0.929 . S
N620 Mn613 2.257 . S
N620 C619 1.326 . S
N620 C624 1.362 . S
C621 C622 1.258 . S
C621 C624 1.431 . S
C621 C641 1.449 . S
C622 C621 1.258 . S
C622 C623 1.477 . S
C622 H642 0.931 . S
C623 C619 1.460 . S
C623 C622 1.477 . S
C623 H643 0.930 . S
C624 N620 1.362 . S
C624 C621 1.431 . S
C624 C634 1.476 . S
H625 C619 0.929 . S
C626 O617 1.250 . S
C626 O618 1.258 . S
O627 Mn612 2.162 1_455 S
O627 C615 1.281 . S
O628 Mn612 2.297 1_455 S
O628 C615 1.236 . S
N629 Mn613 2.282 . S
N629 C630 1.328 . S
N629 C634 1.318 . S
C630 N629 1.328 . S
C630 C631 1.457 . S
C630 H635 0.929 . S
C631 C630 1.457 . S
C631 C632 1.291 . S
C631 H644 0.931 . S
C632 C631 1.291 . S
C632 C633 1.373 . S
C632 H645 0.929 . S
C633 C632 1.373 . S
C633 C634 1.396 . S
C633 C640 1.403 . S
C634 C624 1.476 . S
C634 N629 1.318 . S
C634 C633 1.396 . S
H635 C630 0.929 . S
O636 Mn612 2.385 . S
O636 C614 1.234 . S
O637 Mn612 2.209 . S
O637 Mn613 2.215 . S
O637 C614 1.283 . S
O638 Mn612 2.094 . S
O638 C616 1.240 . S
O639 Mn613 2.117 . S
O639 C616 1.264 . S
C640 C633 1.403 . S
C640 C641 1.399 . S
C640 H646 0.929 . S
C641 C621 1.449 . S
C641 C640 1.399 . S
C641 H647 0.930 . S
H642 C622 0.931 . S
H643 C623 0.930 . S
H644 C631 0.931 . S
H645 C632 0.929 . S
H646 C640 0.929 . S
H647 C641 0.930 . S
H648 C654 0.930 . S
H649 C657 0.931 . S
H650 C659 0.931 . S
H651 C661 0.930 . S
H652 C663 0.930 . S
H653 C665 0.931 . S
C654 H648 0.930 . S
C654 C655 1.380 . S
C654 C656 1.394 . S
C655 C654 1.380 . S
C655 C659 1.382 . S
C656 C654 1.394 . S
C656 C657 1.400 . S
C657 H649 0.931 . S
C657 C656 1.400 . S
C657 C658 1.375 . S
C658 C657 1.375 . S
C658 C659 1.415 . S
C658 C660 1.501 . S
C659 H650 0.931 . S
C659 C655 1.382 . S
C659 C658 1.415 . S
C660 C658 1.501 . S
C660 C661 1.384 . S
C660 C665 1.408 . S
C661 H651 0.930 . S
C661 C660 1.384 . S
C661 C662 1.389 . S
C662 C661 1.389 . S
C662 C663 1.405 . S
C663 H652 0.930 . S
C663 C662 1.405 . S
C663 C664 1.364 . S
C664 C663 1.364 . S
C664 C665 1.400 . S
C665 H653 0.931 . S
C665 C660 1.408 . S
C665 C664 1.400 . S
H666 C672 0.930 . S
H667 C675 0.931 . S
H668 C677 0.931 . S
H669 C679 0.930 . S
H670 C681 0.930 . S
H671 C683 0.931 . S
C672 H666 0.930 . S
C672 C673 1.380 . S
C672 C674 1.394 . S
C673 C672 1.380 . S
C673 C677 1.382 . S
C674 C672 1.394 . S
C674 C675 1.400 . S
C675 H667 0.931 . S
C675 C674 1.400 . S
C675 C676 1.375 . S
C676 C675 1.375 . S
C676 C677 1.415 . S
C676 C678 1.501 . S
C677 H668 0.931 . S
C677 C673 1.382 . S
C677 C676 1.415 . S
C678 C676 1.501 . S
C678 C679 1.384 . S
C678 C683 1.408 . S
C679 H669 0.930 . S
C679 C678 1.384 . S
C679 C680 1.389 . S
C680 C679 1.389 . S
C680 C681 1.405 . S
C681 H670 0.930 . S
C681 C680 1.405 . S
C681 C682 1.364 . S
C682 C681 1.364 . S
C682 C683 1.400 . S
C683 H671 0.931 . S
C683 C678 1.408 . S
C683 C682 1.400 . S
H684 C690 0.930 . S
H685 C693 0.931 . S
H686 C695 0.931 . S
H687 C697 0.930 . S
H688 C699 0.930 . S
H689 C701 0.931 . S
C690 H684 0.930 . S
C690 C691 1.380 . S
C690 C692 1.394 . S
C691 C690 1.380 . S
C691 C695 1.382 . S
C692 C690 1.394 . S
C692 C693 1.400 . S
C693 H685 0.931 . S
C693 C692 1.400 . S
C693 C694 1.375 . S
C694 C693 1.375 . S
C694 C695 1.415 . S
C694 C696 1.501 . S
C695 H686 0.931 . S
C695 C691 1.382 . S
C695 C694 1.415 . S
C696 C694 1.501 . S
C696 C697 1.384 . S
C696 C701 1.408 . S
C697 H687 0.930 . S
C697 C696 1.384 . S
C697 C698 1.389 . S
C698 C697 1.389 . S
C698 C699 1.405 . S
C699 H688 0.930 . S
C699 C698 1.405 . S
C699 C700 1.364 . S
C700 C699 1.364 . S
C700 C701 1.400 . S
C701 H689 0.931 . S
C701 C696 1.408 . S
C701 C700 1.400 . S
H702 C708 0.930 . S
H703 C711 0.931 . S
H704 C713 0.931 . S
H705 C715 0.930 . S
H706 C717 0.930 . S
H707 C719 0.931 . S
C708 H702 0.930 . S
C708 C709 1.380 . S
C708 C710 1.394 . S
C709 C708 1.380 . S
C709 C713 1.382 . S
C710 C708 1.394 . S
C710 C711 1.400 . S
C711 H703 0.931 . S
C711 C710 1.400 . S
C711 C712 1.375 . S
C712 C711 1.375 . S
C712 C713 1.415 . S
C712 C714 1.501 . S
C713 H704 0.931 . S
C713 C709 1.382 . S
C713 C712 1.415 . S
C714 C712 1.501 . S
C714 C715 1.384 . S
C714 C719 1.408 . S
C715 H705 0.930 . S
C715 C714 1.384 . S
C715 C716 1.389 . S
C716 C715 1.389 . S
C716 C717 1.405 . S
C717 H706 0.930 . S
C717 C716 1.405 . S
C717 C718 1.364 . S
C718 C717 1.364 . S
C718 C719 1.400 . S
C719 H707 0.931 . S
C719 C714 1.408 . S
C719 C718 1.400 . S
H720 C726 0.930 . S
H721 C729 0.931 . S
H722 C731 0.931 . S
H723 C733 0.930 . S
H724 C735 0.930 . S
H725 C737 0.931 . S
C726 H720 0.930 . S
C726 C727 1.380 . S
C726 C728 1.394 . S
C727 C726 1.380 . S
C727 C731 1.382 . S
C728 C726 1.394 . S
C728 C729 1.400 . S
C729 H721 0.931 . S
C729 C728 1.400 . S
C729 C730 1.375 . S
C730 C729 1.375 . S
C730 C731 1.415 . S
C730 C732 1.501 . S
C731 H722 0.931 . S
C731 C727 1.382 . S
C731 C730 1.415 . S
C732 C730 1.501 . S
C732 C733 1.384 . S
C732 C737 1.408 . S
C733 H723 0.930 . S
C733 C732 1.384 . S
C733 C734 1.389 . S
C734 C733 1.389 . S
C734 C735 1.405 . S
C735 H724 0.930 . S
C735 C734 1.405 . S
C735 C736 1.364 . S
C736 C735 1.364 . S
C736 C737 1.400 . S
C737 H725 0.931 . S
C737 C732 1.408 . S
C737 C736 1.400 . S
H738 C744 0.930 . S
H739 C747 0.931 . S
H740 C749 0.931 . S
H741 C751 0.930 . S
H742 C753 0.930 . S
H743 C755 0.931 . S
C744 H738 0.930 . S
C744 C745 1.380 . S
C744 C746 1.394 . S
C745 C744 1.380 . S
C745 C749 1.382 . S
C746 C744 1.394 . S
C746 C747 1.400 . S
C747 H739 0.931 . S
C747 C746 1.400 . S
C747 C748 1.375 . S
C748 C747 1.375 . S
C748 C749 1.415 . S
C748 C750 1.501 . S
C749 H740 0.931 . S
C749 C745 1.382 . S
C749 C748 1.415 . S
C750 C748 1.501 . S
C750 C751 1.384 . S
C750 C755 1.408 . S
C751 H741 0.930 . S
C751 C750 1.384 . S
C751 C752 1.389 . S
C752 C751 1.389 . S
C752 C753 1.405 . S
C753 H742 0.930 . S
C753 C752 1.405 . S
C753 C754 1.364 . S
C754 C753 1.364 . S
C754 C755 1.400 . S
C755 H743 0.931 . S
C755 C750 1.408 . S
C755 C754 1.400 . S
H756 C762 0.930 . S
H757 C765 0.931 . S
H758 C767 0.931 . S
H759 C769 0.930 . S
H760 C771 0.930 . S
H761 C773 0.931 . S
C762 H756 0.930 . S
C762 C763 1.380 . S
C762 C764 1.394 . S
C763 C762 1.380 . S
C763 C767 1.382 . S
C764 C762 1.394 . S
C764 C765 1.400 . S
C765 H757 0.931 . S
C765 C764 1.400 . S
C765 C766 1.375 . S
C766 C765 1.375 . S
C766 C767 1.415 . S
C766 C768 1.501 . S
C767 H758 0.931 . S
C767 C763 1.382 . S
C767 C766 1.415 . S
C768 C766 1.501 . S
C768 C769 1.384 . S
C768 C773 1.408 . S
C769 H759 0.930 . S
C769 C768 1.384 . S
C769 C770 1.389 . S
C770 C769 1.389 . S
C770 C771 1.405 . S
C771 H760 0.930 . S
C771 C770 1.405 . S
C771 C772 1.364 . S
C772 C771 1.364 . S
C772 C773 1.400 . S
C773 H761 0.931 . S
C773 C768 1.408 . S
C773 C772 1.400 . S
H774 C780 0.930 . S
H775 C783 0.931 . S
H776 C785 0.931 . S
H777 C787 0.930 . S
H778 C789 0.930 . S
H779 C791 0.931 . S
C780 H774 0.930 . S
C780 C781 1.380 . S
C780 C782 1.394 . S
C781 C780 1.380 . S
C781 C785 1.382 . S
C782 C780 1.394 . S
C782 C783 1.400 . S
C783 H775 0.931 . S
C783 C782 1.400 . S
C783 C784 1.375 . S
C784 C783 1.375 . S
C784 C785 1.415 . S
C784 C786 1.501 . S
C785 H776 0.931 . S
C785 C781 1.382 . S
C785 C784 1.415 . S
C786 C784 1.501 . S
C786 C787 1.384 . S
C786 C791 1.408 . S
C787 H777 0.930 . S
C787 C786 1.384 . S
C787 C788 1.389 . S
C788 C787 1.389 . S
C788 C789 1.405 . S
C789 H778 0.930 . S
C789 C788 1.405 . S
C789 C790 1.364 . S
C790 C789 1.364 . S
C790 C791 1.400 . S
C791 H779 0.931 . S
C791 C786 1.408 . S
C791 C790 1.400 . S
H792 C798 0.930 . S
H793 C801 0.931 . S
H794 C803 0.931 . S
H795 C805 0.930 . S
H796 C807 0.930 . S
H797 C809 0.931 . S
C798 H792 0.930 . S
C798 C799 1.380 . S
C798 C800 1.394 . S
C799 C798 1.380 . S
C799 C803 1.382 . S
C800 C798 1.394 . S
C800 C801 1.400 . S
C801 H793 0.931 . S
C801 C800 1.400 . S
C801 C802 1.375 . S
C802 C801 1.375 . S
C802 C803 1.415 . S
C802 C804 1.501 . S
C803 H794 0.931 . S
C803 C799 1.382 . S
C803 C802 1.415 . S
C804 C802 1.501 . S
C804 C805 1.384 . S
C804 C809 1.408 . S
C805 H795 0.930 . S
C805 C804 1.384 . S
C805 C806 1.389 . S
C806 C805 1.389 . S
C806 C807 1.405 . S
C807 H796 0.930 . S
C807 C806 1.405 . S
C807 C808 1.364 . S
C808 C807 1.364 . S
C808 C809 1.400 . S
C809 H797 0.931 . S
C809 C804 1.408 . S
C809 C808 1.400 . S
H810 C816 0.915 . S
H811 C819 0.931 . S
H812 C821 0.931 . S
H813 C823 0.930 . S
H814 C825 0.930 . S
H815 C827 0.940 1_655 S
C816 H810 0.915 . S
C816 C817 1.393 . S
C816 C818 1.398 1_655 S
C817 C816 1.393 . S
C817 C821 1.382 . S
C818 C816 1.398 1_455 S
C818 C819 1.400 . S
C819 H811 0.931 . S
C819 C818 1.400 . S
C819 C820 1.375 . S
C820 C819 1.375 . S
C820 C821 1.415 1_455 S
C820 C822 1.501 . S
C821 H812 0.931 . S
C821 C817 1.382 . S
C821 C820 1.415 1_655 S
C822 C820 1.501 . S
C822 C823 1.384 . S
C822 C827 1.420 . S
C823 H813 0.930 . S
C823 C822 1.384 . S
C823 C824 1.389 . S
C824 C823 1.389 . S
C824 C825 1.405 . S
C825 H814 0.930 . S
C825 C824 1.405 . S
C825 C826 1.359 . S
C826 C825 1.359 . S
C826 C827 1.396 . S
C827 H815 0.940 1_455 S
C827 C822 1.420 . S
C827 C826 1.396 . S
H828 C834 0.930 . S
H829 C837 0.931 . S
H830 C839 0.931 . S
H831 C841 0.930 . S
H832 C843 0.930 . S
H833 C845 0.931 . S
C834 H828 0.930 . S
C834 C835 1.380 . S
C834 C836 1.394 . S
C835 C834 1.380 . S
C835 C839 1.382 . S
C836 C834 1.394 . S
C836 C837 1.400 . S
C837 H829 0.931 . S
C837 C836 1.400 . S
C837 C838 1.375 . S
C838 C837 1.375 . S
C838 C839 1.415 . S
C838 C840 1.501 . S
C839 H830 0.931 . S
C839 C835 1.382 . S
C839 C838 1.415 . S
C840 C838 1.501 . S
C840 C841 1.384 . S
C840 C845 1.408 . S
C841 H831 0.930 . S
C841 C840 1.384 . S
C841 C842 1.389 . S
C842 C841 1.389 . S
C842 C843 1.405 . S
C843 H832 0.930 . S
C843 C842 1.405 . S
C843 C844 1.364 . S
C844 C843 1.364 . S
C844 C845 1.400 . S
C845 H833 0.931 . S
C845 C840 1.408 . S
C845 C844 1.400 . S
H846 C852 0.943 . S
H847 C855 0.931 . S
H848 C857 0.931 . S
H849 C859 0.930 . S
H850 C861 0.930 . S
H851 C863 0.920 1_545 S
C852 H846 0.943 . S
C852 C853 1.377 . S
C852 C854 1.384 1_545 S
C853 C852 1.377 . S
C853 C857 1.382 . S
C854 C852 1.384 1_565 S
C854 C855 1.400 . S
C855 H847 0.931 . S
C855 C854 1.400 . S
C855 C856 1.375 . S
C856 C855 1.375 . S
C856 C857 1.415 1_565 S
C856 C858 1.501 . S
C857 H848 0.931 . S
C857 C853 1.382 . S
C857 C856 1.415 1_545 S
C858 C856 1.501 . S
C858 C859 1.384 . S
C858 C863 1.400 . S
C859 H849 0.930 . S
C859 C858 1.384 . S
C859 C860 1.389 . S
C860 C859 1.389 . S
C860 C861 1.405 . S
C861 H850 0.930 . S
C861 C860 1.405 . S
C861 C862 1.373 . S
C862 C861 1.373 . S
C862 C863 1.407 . S
C863 H851 0.920 1_565 S
C863 C858 1.400 . S
C863 C862 1.407 . S
H864 C870 0.915 . S
H865 C873 0.931 . S
H866 C875 0.927 1_545 S
H867 C877 0.930 . S
H868 C879 0.930 . S
H869 C881 0.931 . S
C870 H864 0.915 . S
C870 C871 1.383 . S
C870 C872 1.401 1_545 S
C871 C870 1.383 . S
C871 C875 1.402 1_545 S
C872 C870 1.401 1_565 S
C872 C873 1.400 . S
C873 H865 0.931 . S
C873 C872 1.400 . S
C873 C874 1.375 . S
C874 C873 1.375 . S
C874 C875 1.412 . S
C874 C876 1.501 . S
C875 H866 0.927 1_565 S
C875 C871 1.402 1_565 S
C875 C874 1.412 . S
C876 C874 1.501 . S
C876 C877 1.384 . S
C876 C881 1.408 1_565 S
C877 H867 0.930 . S
C877 C876 1.384 . S
C877 C878 1.389 . S
C878 C877 1.389 . S
C878 C879 1.405 . S
C879 H868 0.930 . S
C879 C878 1.405 . S
C879 C880 1.364 1_565 S
C880 C879 1.364 1_545 S
C880 C881 1.400 . S
C881 H869 0.931 . S
C881 C876 1.408 1_545 S
C881 C880 1.400 . S
H882 C888 0.950 . S
H883 C891 0.931 . S
H884 C893 0.935 . S
H885 C895 0.930 . S
H886 C897 0.930 . S
H887 C899 0.931 . S
C888 H882 0.950 . S
C888 C889 1.375 . S
C888 C890 1.371 1_655 S
C889 C888 1.375 . S
C889 C893 1.361 1_655 S
C890 C888 1.371 1_455 S
C890 C891 1.428 . S
C891 H883 0.931 . S
C891 C890 1.428 . S
C891 C892 1.375 . S
C892 C891 1.375 . S
C892 C893 1.424 . S
C892 C894 1.501 . S
C893 H884 0.935 . S
C893 C889 1.361 1_455 S
C893 C892 1.424 . S
C894 C892 1.501 . S
C894 C895 1.384 . S
C894 C899 1.408 1_455 S
C895 H885 0.930 . S
C895 C894 1.384 . S
C895 C896 1.389 . S
C896 C895 1.389 . S
C896 C897 1.405 . S
C897 H886 0.930 . S
C897 C896 1.405 . S
C897 C898 1.364 1_455 S
C898 C897 1.364 1_655 S
C898 C899 1.400 . S
C899 H887 0.931 . S
C899 C894 1.408 1_655 S
C899 C898 1.400 . S
H900 C906 0.930 . S
H901 C909 0.931 . S
H902 C911 0.931 . S
H903 C913 0.930 . S
H904 C915 0.930 . S
H905 C917 0.931 . S
C906 H900 0.930 . S
C906 C907 1.380 . S
C906 C908 1.394 . S
C907 C906 1.380 . S
C907 C911 1.382 . S
C908 C906 1.394 . S
C908 C909 1.400 . S
C909 H901 0.931 . S
C909 C908 1.400 . S
C909 C910 1.375 . S
C910 C909 1.375 . S
C910 C911 1.415 . S
C910 C912 1.501 . S
C911 H902 0.931 . S
C911 C907 1.382 . S
C911 C910 1.415 . S
C912 C910 1.501 . S
C912 C913 1.384 . S
C912 C917 1.408 . S
C913 H903 0.930 . S
C913 C912 1.384 . S
C913 C914 1.389 . S
C914 C913 1.389 . S
C914 C915 1.405 . S
C915 H904 0.930 . S
C915 C914 1.405 . S
C915 C916 1.364 . S
C916 C915 1.364 . S
C916 C917 1.400 . S
C917 H905 0.931 . S
C917 C912 1.408 . S
C917 C916 1.400 . S
H918 C924 0.930 . S
H919 C927 0.931 . S
H920 C929 0.931 . S
H921 C931 0.930 . S
H922 C933 0.930 . S
H923 C935 0.931 . S
C924 H918 0.930 . S
C924 C925 1.380 . S
C924 C926 1.394 . S
C925 C924 1.380 . S
C925 C929 1.382 . S
C926 C924 1.394 . S
C926 C927 1.400 . S
C927 H919 0.931 . S
C927 C926 1.400 . S
C927 C928 1.375 . S
C928 C927 1.375 . S
C928 C929 1.415 . S
C928 C930 1.501 . S
C929 H920 0.931 . S
C929 C925 1.382 . S
C929 C928 1.415 . S
C930 C928 1.501 . S
C930 C931 1.384 . S
C930 C935 1.408 . S
C931 H921 0.930 . S
C931 C930 1.384 . S
C931 C932 1.389 . S
C932 C931 1.389 . S
C932 C933 1.405 . S
C933 H922 0.930 . S
C933 C932 1.405 . S
C933 C934 1.364 . S
C934 C933 1.364 . S
C934 C935 1.400 . S
C935 H923 0.931 . S
C935 C930 1.408 . S
C935 C934 1.400 . S
H936 C942 0.930 . S
H937 C945 0.931 . S
H938 C947 0.931 . S
H939 C949 0.930 . S
H940 C951 0.930 . S
H941 C953 0.931 . S
C942 H936 0.930 . S
C942 C943 1.380 . S
C942 C944 1.394 . S
C943 C942 1.380 . S
C943 C947 1.382 . S
C944 C942 1.394 . S
C944 C945 1.400 . S
C945 H937 0.931 . S
C945 C944 1.400 . S
C945 C946 1.375 . S
C946 C945 1.375 . S
C946 C947 1.415 . S
C946 C948 1.501 . S
C947 H938 0.931 . S
C947 C943 1.382 . S
C947 C946 1.415 . S
C948 C946 1.501 . S
C948 C949 1.384 . S
C948 C953 1.408 . S
C949 H939 0.930 . S
C949 C948 1.384 . S
C949 C950 1.389 . S
C950 C949 1.389 . S
C950 C951 1.405 . S
C951 H940 0.930 . S
C951 C950 1.405 . S
C951 C952 1.364 . S
C952 C951 1.364 . S
C952 C953 1.400 . S
C953 H941 0.931 . S
C953 C948 1.408 . S
C953 C952 1.400 . S
H954 C960 0.930 . S
H955 C963 0.931 . S
H956 C965 0.931 . S
H957 C967 0.930 . S
H958 C969 0.930 . S
H959 C971 0.931 . S
C960 H954 0.930 . S
C960 C961 1.380 . S
C960 C962 1.394 . S
C961 C960 1.380 . S
C961 C965 1.382 . S
C962 C960 1.394 . S
C962 C963 1.400 . S
C963 H955 0.931 . S
C963 C962 1.400 . S
C963 C964 1.375 . S
C964 C963 1.375 . S
C964 C965 1.415 . S
C964 C966 1.501 . S
C965 H956 0.931 . S
C965 C961 1.382 . S
C965 C964 1.415 . S
C966 C964 1.501 . S
C966 C967 1.384 . S
C966 C971 1.408 . S
C967 H957 0.930 . S
C967 C966 1.384 . S
C967 C968 1.389 . S
C968 C967 1.389 . S
C968 C969 1.405 . S
C969 H958 0.930 . S
C969 C968 1.405 . S
C969 C970 1.364 . S
C970 C969 1.364 . S
C970 C971 1.400 . S
C971 H959 0.931 . S
C971 C966 1.408 . S
C971 C970 1.400 . S
C972 C973 1.363 . S
C972 C978 1.379 . S
C972 N980 1.356 . S
C973 C972 1.363 . S
C973 C979 1.363 1_655 S
C974 C975 1.363 1_455 S
C974 C979 1.379 . S
C974 N981 1.356 . S
C975 C974 1.363 1_655 S
C975 C978 1.363 . S
N976 C978 1.356 . S
N976 H988 0.984 . S
N976 H989 0.985 . S
N977 C979 1.356 . S
N977 H982 0.984 . S
N977 H983 0.985 . S
C978 C972 1.379 . S
C978 C975 1.363 . S
C978 N976 1.356 . S
C979 C973 1.363 1_455 S
C979 C974 1.379 . S
C979 N977 1.356 . S
N980 C972 1.356 . S
N980 H986 0.984 . S
N980 H987 0.984 . S
N981 C974 1.356 . S
N981 H984 0.984 . S
N981 H985 0.985 . S
H982 N977 0.984 . S
H983 N977 0.985 . S
H984 N981 0.984 . S
H985 N981 0.985 . S
H986 N980 0.984 . S
H987 N980 0.984 . S
H988 N976 0.984 . S
H989 N976 0.985 . S
C990 C991 1.363 . S
C990 C996 1.379 . S
C990 N998 1.356 . S
C991 C990 1.363 . S
C991 C997 1.363 . S
C992 C993 1.363 . S
C992 C997 1.379 . S
C992 N999 1.356 . S
C993 C992 1.363 . S
C993 C996 1.363 . S
N994 C996 1.356 . S
N994 H1006 0.984 . S
N994 H1007 0.985 . S
N995 C997 1.356 . S
N995 H1000 0.984 . S
N995 H1001 0.985 . S
C996 C990 1.379 . S
C996 C993 1.363 . S
C996 N994 1.356 . S
C997 C991 1.363 . S
C997 C992 1.379 . S
C997 N995 1.356 . S
N998 C990 1.356 . S
N998 H1004 0.984 . S
N998 H1005 0.984 . S
N999 C992 1.356 . S
N999 H1002 0.984 . S
N999 H1003 0.985 . S
H1000 N995 0.984 . S
H1001 N995 0.985 . S
H1002 N999 0.984 . S
H1003 N999 0.985 . S
H1004 N998 0.984 . S
H1005 N998 0.984 . S
H1006 N994 0.984 . S
H1007 N994 0.985 . S
C1008 C1009 1.363 . S
C1008 C1014 1.379 . S
C1008 N1016 1.356 . S
C1009 C1008 1.363 . S
C1009 C1015 1.363 1_545 S
C1010 C1011 1.363 1_565 S
C1010 C1015 1.379 . S
C1010 N1017 1.356 . S
C1011 C1010 1.363 1_545 S
C1011 C1014 1.363 . S
N1012 C1014 1.356 . S
N1012 H1024 0.984 . S
N1012 H1025 0.985 . S
N1013 C1015 1.356 . S
N1013 H1018 0.984 . S
N1013 H1019 0.985 . S
C1014 C1008 1.379 . S
C1014 C1011 1.363 . S
C1014 N1012 1.356 . S
C1015 C1009 1.363 1_565 S
C1015 C1010 1.379 . S
C1015 N1013 1.356 . S
N1016 C1008 1.356 . S
N1016 H1022 0.984 . S
N1016 H1023 0.984 . S
N1017 C1010 1.356 . S
N1017 H1020 0.984 . S
N1017 H1021 0.985 . S
H1018 N1013 0.984 . S
H1019 N1013 0.985 . S
H1020 N1017 0.984 . S
H1021 N1017 0.985 . S
H1022 N1016 0.984 . S
H1023 N1016 0.984 . S
H1024 N1012 0.984 . S
H1025 N1012 0.985 . S
C1026 C1027 1.363 . S
C1026 C1032 1.379 . S
C1026 N1034 1.356 . S
C1027 C1026 1.363 . S
C1027 C1033 1.363 1_565 S
C1028 C1029 1.363 1_545 S
C1028 C1033 1.379 . S
C1028 N1035 1.356 . S
C1029 C1028 1.363 1_565 S
C1029 C1032 1.363 . S
N1030 C1032 1.356 . S
N1030 H1042 0.984 . S
N1030 H1043 0.985 . S
N1031 C1033 1.356 . S
N1031 H1036 0.984 . S
N1031 H1037 0.985 . S
C1032 C1026 1.379 . S
C1032 C1029 1.363 . S
C1032 N1030 1.356 . S
C1033 C1027 1.363 1_545 S
C1033 C1028 1.379 . S
C1033 N1031 1.356 . S
N1034 C1026 1.356 . S
N1034 H1040 0.984 . S
N1034 H1041 0.984 . S
N1035 C1028 1.356 . S
N1035 H1038 0.984 . S
N1035 H1039 0.985 . S
H1036 N1031 0.984 . S
H1037 N1031 0.985 . S
H1038 N1035 0.984 . S
H1039 N1035 0.985 . S
H1040 N1034 0.984 . S
H1041 N1034 0.984 . S
H1042 N1030 0.984 . S
H1043 N1030 0.985 . S
C1044 C1045 1.363 1_655 S
C1044 C1050 1.379 . S
C1044 N1052 1.356 . S
C1045 C1044 1.363 1_455 S
C1045 C1051 1.363 . S
C1046 C1047 1.363 . S
C1046 C1051 1.379 . S
C1046 N1053 1.356 . S
C1047 C1046 1.363 . S
C1047 C1050 1.363 1_455 S
N1048 C1050 1.356 . S
N1048 H1060 0.984 . S
N1048 H1061 0.985 . S
N1049 C1051 1.356 . S
N1049 H1054 0.984 . S
N1049 H1055 0.985 . S
C1050 C1044 1.379 . S
C1050 C1047 1.363 1_655 S
C1050 N1048 1.356 . S
C1051 C1045 1.363 . S
C1051 C1046 1.379 . S
C1051 N1049 1.356 . S
N1052 C1044 1.356 . S
N1052 H1058 0.984 . S
N1052 H1059 0.984 . S
N1053 C1046 1.356 . S
N1053 H1056 0.984 . S
N1053 H1057 0.985 . S
H1054 N1049 0.984 . S
H1055 N1049 0.985 . S
H1056 N1053 0.984 . S
H1057 N1053 0.985 . S
H1058 N1052 0.984 . S
H1059 N1052 0.984 . S
H1060 N1048 0.984 . S
H1061 N1048 0.985 . S
C1062 C1063 1.363 . S
C1062 C1068 1.379 . S
C1062 N1070 1.356 . S
C1063 C1062 1.363 . S
C1063 C1069 1.363 . S
C1064 C1065 1.363 . S
C1064 C1069 1.379 . S
C1064 N1071 1.356 . S
C1065 C1064 1.363 . S
C1065 C1068 1.363 . S
N1066 C1068 1.356 . S
N1066 H1078 0.984 . S
N1066 H1079 0.985 . S
N1067 C1069 1.356 . S
N1067 H1072 0.984 . S
N1067 H1073 0.985 . S
C1068 C1062 1.379 . S
C1068 C1065 1.363 . S
C1068 N1066 1.356 . S
C1069 C1063 1.363 . S
C1069 C1064 1.379 . S
C1069 N1067 1.356 . S
N1070 C1062 1.356 . S
N1070 H1076 0.984 . S
N1070 H1077 0.984 . S
N1071 C1064 1.356 . S
N1071 H1074 0.984 . S
N1071 H1075 0.985 . S
H1072 N1067 0.984 . S
H1073 N1067 0.985 . S
H1074 N1071 0.984 . S
H1075 N1071 0.985 . S
H1076 N1070 0.984 . S
H1077 N1070 0.984 . S
H1078 N1066 0.984 . S
H1079 N1066 0.985 . S
C1080 C1081 1.363 1_655 S
C1080 C1086 1.379 . S
C1080 N1088 1.356 . S
C1081 C1080 1.363 1_455 S
C1081 C1087 1.363 . S
C1082 C1083 1.386 . S
C1082 C1087 1.379 . S
C1082 N1089 1.356 . S
C1083 C1082 1.386 . S
C1083 C1086 1.326 1_455 S
N1084 C1086 1.356 . S
N1084 H1096 0.984 . S
N1084 H1097 0.985 . S
N1085 C1087 1.356 . S
N1085 H1090 0.984 . S
N1085 H1091 0.985 . S
C1086 C1080 1.379 . S
C1086 C1083 1.326 1_655 S
C1086 N1084 1.356 . S
C1087 C1081 1.363 . S
C1087 C1082 1.379 . S
C1087 N1085 1.356 . S
N1088 C1080 1.356 . S
N1088 H1094 0.984 . S
N1088 H1095 0.984 . S
N1089 C1082 1.356 . S
N1089 H1092 0.984 . S
N1089 H1093 0.985 . S
H1090 N1085 0.984 . S
H1091 N1085 0.985 . S
H1092 N1089 0.984 . S
H1093 N1089 0.985 . S
H1094 N1088 0.984 . S
H1095 N1088 0.984 . S
H1096 N1084 0.984 . S
H1097 N1084 0.985 . S
C1098 C1099 1.363 . S
C1098 C1104 1.379 . S
C1098 N1106 1.356 . S
C1099 C1098 1.363 . S
C1099 C1105 1.363 . S
C1100 C1101 1.363 . S
C1100 C1105 1.379 . S
C1100 N1107 1.356 . S
C1101 C1100 1.363 . S
C1101 C1104 1.363 . S
N1102 C1104 1.356 . S
N1102 H1114 0.984 . S
N1102 H1115 0.985 . S
N1103 C1105 1.356 . S
N1103 H1108 0.984 . S
N1103 H1109 0.985 . S
C1104 C1098 1.379 . S
C1104 C1101 1.363 . S
C1104 N1102 1.356 . S
C1105 C1099 1.363 . S
C1105 C1100 1.379 . S
C1105 N1103 1.356 . S
N1106 C1098 1.356 . S
N1106 H1112 0.984 . S
N1106 H1113 0.984 . S
N1107 C1100 1.356 . S
N1107 H1110 0.984 . S
N1107 H1111 0.985 . S
H1108 N1103 0.984 . S
H1109 N1103 0.985 . S
H1110 N1107 0.984 . S
H1111 N1107 0.985 . S
H1112 N1106 0.984 . S
H1113 N1106 0.984 . S
H1114 N1102 0.984 . S
H1115 N1102 0.985 . S
C1116 C1117 1.363 1_545 S
C1116 C1122 1.379 . S
C1116 N1124 1.356 . S
C1117 C1116 1.363 1_565 S
C1117 C1123 1.363 . S
C1118 C1119 1.364 . S
C1118 C1123 1.379 . S
C1118 N1125 1.356 . S
C1119 C1118 1.364 . S
C1119 C1122 1.362 1_565 S
N1120 C1122 1.356 . S
N1120 H1132 0.984 . S
N1120 H1133 0.985 . S
N1121 C1123 1.356 . S
N1121 H1126 0.984 . S
N1121 H1127 0.985 . S
C1122 C1116 1.379 . S
C1122 C1119 1.362 1_545 S
C1122 N1120 1.356 . S
C1123 C1117 1.363 . S
C1123 C1118 1.379 . S
C1123 N1121 1.356 . S
N1124 C1116 1.356 . S
N1124 H1130 0.984 . S
N1124 H1131 0.984 . S
N1125 C1118 1.356 . S
N1125 H1128 0.984 . S
N1125 H1129 0.985 . S
H1126 N1121 0.984 . S
H1127 N1121 0.985 . S
H1128 N1125 0.984 . S
H1129 N1125 0.985 . S
H1130 N1124 0.984 . S
H1131 N1124 0.984 . S
H1132 N1120 0.984 . S
H1133 N1120 0.985 . S
C1134 C1135 1.363 1_565 S
C1134 C1140 1.379 . S
C1134 N1142 1.356 . S
C1135 C1134 1.363 1_545 S
C1135 C1141 1.363 . S
C1136 C1137 1.385 . S
C1136 C1141 1.379 . S
C1136 N1143 1.356 . S
C1137 C1136 1.385 . S
C1137 C1140 1.329 1_545 S
N1138 C1140 1.356 . S
N1138 H1150 0.984 . S
N1138 H1151 0.985 . S
N1139 C1141 1.356 . S
N1139 H1144 0.984 . S
N1139 H1145 0.985 . S
C1140 C1134 1.379 . S
C1140 C1137 1.329 1_565 S
C1140 N1138 1.356 . S
C1141 C1135 1.363 . S
C1141 C1136 1.379 . S
C1141 N1139 1.356 . S
N1142 C1134 1.356 . S
N1142 H1148 0.984 . S
N1142 H1149 0.984 . S
N1143 C1136 1.356 . S
N1143 H1146 0.984 . S
N1143 H1147 0.985 . S
H1144 N1139 0.984 . S
H1145 N1139 0.985 . S
H1146 N1143 0.984 . S
H1147 N1143 0.985 . S
H1148 N1142 0.984 . S
H1149 N1142 0.984 . S
H1150 N1138 0.984 . S
H1151 N1138 0.985 . S
C1152 C1153 1.363 . S
C1152 C1158 1.379 . S
C1152 N1160 1.356 . S
C1153 C1152 1.363 . S
C1153 C1159 1.363 1_655 S
C1154 C1155 1.377 . S
C1154 C1159 1.379 . S
C1154 N1161 1.356 . S
C1155 C1154 1.377 . S
C1155 C1158 1.337 1_455 S
N1156 C1158 1.356 . S
N1156 H1168 0.984 . S
N1156 H1169 0.985 . S
N1157 C1159 1.356 . S
N1157 H1162 0.984 . S
N1157 H1163 0.985 . S
C1158 C1152 1.379 . S
C1158 C1155 1.337 1_655 S
C1158 N1156 1.356 . S
C1159 C1153 1.363 1_455 S
C1159 C1154 1.379 . S
C1159 N1157 1.356 . S
N1160 C1152 1.356 . S
N1160 H1166 0.984 . S
N1160 H1167 0.984 . S
N1161 C1154 1.356 . S
N1161 H1164 0.984 . S
N1161 H1165 0.985 . S
H1162 N1157 0.984 . S
H1163 N1157 0.985 . S
H1164 N1161 0.984 . S
H1165 N1161 0.985 . S
H1166 N1160 0.984 . S
H1167 N1160 0.984 . S
H1168 N1156 0.984 . S
H1169 N1156 0.985 . S
C1170 C1171 1.363 . S
C1170 C1176 1.379 . S
C1170 N1178 1.356 . S
C1171 C1170 1.363 . S
C1171 C1177 1.363 . S
C1172 C1173 1.363 . S
C1172 C1177 1.379 . S
C1172 N1179 1.356 . S
C1173 C1172 1.363 . S
C1173 C1176 1.363 . S
N1174 C1176 1.356 . S
N1174 H1186 0.984 . S
N1174 H1187 0.985 . S
N1175 C1177 1.356 . S
N1175 H1180 0.984 . S
N1175 H1181 0.985 . S
C1176 C1170 1.379 . S
C1176 C1173 1.363 . S
C1176 N1174 1.356 . S
C1177 C1171 1.363 . S
C1177 C1172 1.379 . S
C1177 N1175 1.356 . S
N1178 C1170 1.356 . S
N1178 H1184 0.984 . S
N1178 H1185 0.984 . S
N1179 C1172 1.356 . S
N1179 H1182 0.984 . S
N1179 H1183 0.985 . S
H1180 N1175 0.984 . S
H1181 N1175 0.985 . S
H1182 N1179 0.984 . S
H1183 N1179 0.985 . S
H1184 N1178 0.984 . S
H1185 N1178 0.984 . S
H1186 N1174 0.984 . S
H1187 N1174 0.985 . S
C1188 C1189 1.363 . S
C1188 C1194 1.379 . S
C1188 N1196 1.356 . S
C1189 C1188 1.363 . S
C1189 C1195 1.363 . S
C1190 C1191 1.363 . S
C1190 C1195 1.379 . S
C1190 N1197 1.356 . S
C1191 C1190 1.363 . S
C1191 C1194 1.363 . S
N1192 C1194 1.356 . S
N1192 H1204 0.984 . S
N1192 H1205 0.985 . S
N1193 C1195 1.356 . S
N1193 H1198 0.984 . S
N1193 H1199 0.985 . S
C1194 C1188 1.379 . S
C1194 C1191 1.363 . S
C1194 N1192 1.356 . S
C1195 C1189 1.363 . S
C1195 C1190 1.379 . S
C1195 N1193 1.356 . S
N1196 C1188 1.356 . S
N1196 H1202 0.984 . S
N1196 H1203 0.984 . S
N1197 C1190 1.356 . S
N1197 H1200 0.984 . S
N1197 H1201 0.985 . S
H1198 N1193 0.984 . S
H1199 N1193 0.985 . S
H1200 N1197 0.984 . S
H1201 N1197 0.985 . S
H1202 N1196 0.984 . S
H1203 N1196 0.984 . S
H1204 N1192 0.984 . S
H1205 N1192 0.985 . S
C1206 C1207 1.363 . S
C1206 C1212 1.379 . S
C1206 N1214 1.356 . S
C1207 C1206 1.363 . S
C1207 C1213 1.363 . S
C1208 C1209 1.363 . S
C1208 C1213 1.379 . S
C1208 N1215 1.356 . S
C1209 C1208 1.363 . S
C1209 C1212 1.363 . S
N1210 C1212 1.356 . S
N1210 H1222 0.984 . S
N1210 H1223 0.985 . S
N1211 C1213 1.356 . S
N1211 H1216 0.984 . S
N1211 H1217 0.985 . S
C1212 C1206 1.379 . S
C1212 C1209 1.363 . S
C1212 N1210 1.356 . S
C1213 C1207 1.363 . S
C1213 C1208 1.379 . S
C1213 N1211 1.356 . S
N1214 C1206 1.356 . S
N1214 H1220 0.984 . S
N1214 H1221 0.984 . S
N1215 C1208 1.356 . S
N1215 H1218 0.984 . S
N1215 H1219 0.985 . S
H1216 N1211 0.984 . S
H1217 N1211 0.985 . S
H1218 N1215 0.984 . S
H1219 N1215 0.985 . S
H1220 N1214 0.984 . S
H1221 N1214 0.984 . S
H1222 N1210 0.984 . S
H1223 N1210 0.985 . S
C1224 C1225 1.363 . S
C1224 C1230 1.379 . S
C1224 N1232 1.356 . S
C1225 C1224 1.363 . S
C1225 C1231 1.363 . S
C1226 C1227 1.363 . S
C1226 C1231 1.379 . S
C1226 N1233 1.356 . S
C1227 C1226 1.363 . S
C1227 C1230 1.363 . S
N1228 C1230 1.356 . S
N1228 H1240 0.984 . S
N1228 H1241 0.985 . S
N1229 C1231 1.356 . S
N1229 H1234 0.984 . S
N1229 H1235 0.985 . S
C1230 C1224 1.379 . S
C1230 C1227 1.363 . S
C1230 N1228 1.356 . S
C1231 C1225 1.363 . S
C1231 C1226 1.379 . S
C1231 N1229 1.356 . S
N1232 C1224 1.356 . S
N1232 H1238 0.984 . S
N1232 H1239 0.984 . S
N1233 C1226 1.356 . S
N1233 H1236 0.984 . S
N1233 H1237 0.985 . S
H1234 N1229 0.984 . S
H1235 N1229 0.985 . S
H1236 N1233 0.984 . S
H1237 N1233 0.985 . S
H1238 N1232 0.984 . S
H1239 N1232 0.984 . S
H1240 N1228 0.984 . S
H1241 N1228 0.985 . S
C1242 C1243 1.363 . S
C1242 C1248 1.379 . S
C1242 N1250 1.356 . S
C1243 C1242 1.363 . S
C1243 C1249 1.363 . S
C1244 C1245 1.363 . S
C1244 C1249 1.379 . S
C1244 N1251 1.356 . S
C1245 C1244 1.363 . S
C1245 C1248 1.363 . S
N1246 C1248 1.356 . S
N1246 H1258 0.984 . S
N1246 H1259 0.985 . S
N1247 C1249 1.356 . S
N1247 H1252 0.984 . S
N1247 H1253 0.985 . S
C1248 C1242 1.379 . S
C1248 C1245 1.363 . S
C1248 N1246 1.356 . S
C1249 C1243 1.363 . S
C1249 C1244 1.379 . S
C1249 N1247 1.356 . S
N1250 C1242 1.356 . S
N1250 H1256 0.984 . S
N1250 H1257 0.984 . S
N1251 C1244 1.356 . S
N1251 H1254 0.984 . S
N1251 H1255 0.985 . S
H1252 N1247 0.984 . S
H1253 N1247 0.985 . S
H1254 N1251 0.984 . S
H1255 N1251 0.985 . S
H1256 N1250 0.984 . S
H1257 N1250 0.984 . S
H1258 N1246 0.984 . S
H1259 N1246 0.985 . S
C1260 C1261 1.363 . S
C1260 C1266 1.379 . S
C1260 N1268 1.356 . S
C1261 C1260 1.363 . S
C1261 C1267 1.363 . S
C1262 C1263 1.363 . S
C1262 C1267 1.379 . S
C1262 N1269 1.356 . S
C1263 C1262 1.363 . S
C1263 C1266 1.363 . S
N1264 C1266 1.356 . S
N1264 H1276 0.984 . S
N1264 H1277 0.985 . S
N1265 C1267 1.356 . S
N1265 H1270 0.984 . S
N1265 H1271 0.985 . S
C1266 C1260 1.379 . S
C1266 C1263 1.363 . S
C1266 N1264 1.356 . S
C1267 C1261 1.363 . S
C1267 C1262 1.379 . S
C1267 N1265 1.356 . S
N1268 C1260 1.356 . S
N1268 H1274 0.984 . S
N1268 H1275 0.984 . S
N1269 C1262 1.356 . S
N1269 H1272 0.984 . S
N1269 H1273 0.985 . S
H1270 N1265 0.984 . S
H1271 N1265 0.985 . S
H1272 N1269 0.984 . S
H1273 N1269 0.985 . S
H1274 N1268 0.984 . S
H1275 N1268 0.984 . S
H1276 N1264 0.984 . S
H1277 N1264 0.985 . S
C1278 C1279 1.363 . S
C1278 C1284 1.379 . S
C1278 N1286 1.356 . S
C1279 C1278 1.363 . S
C1279 C1285 1.363 . S
C1280 C1281 1.363 . S
C1280 C1285 1.379 . S
C1280 N1287 1.356 . S
C1281 C1280 1.363 . S
C1281 C1284 1.363 . S
N1282 C1284 1.356 . S
N1282 H1294 0.984 . S
N1282 H1295 0.985 . S
N1283 C1285 1.356 . S
N1283 H1288 0.984 . S
N1283 H1289 0.985 . S
C1284 C1278 1.379 . S
C1284 C1281 1.363 . S
C1284 N1282 1.356 . S
C1285 C1279 1.363 . S
C1285 C1280 1.379 . S
C1285 N1283 1.356 . S
N1286 C1278 1.356 . S
N1286 H1292 0.984 . S
N1286 H1293 0.984 . S
N1287 C1280 1.356 . S
N1287 H1290 0.984 . S
N1287 H1291 0.985 . S
H1288 N1283 0.984 . S
H1289 N1283 0.985 . S
H1290 N1287 0.984 . S
H1291 N1287 0.985 . S
H1292 N1286 0.984 . S
H1293 N1286 0.984 . S
H1294 N1282 0.984 . S
H1295 N1282 0.985 . S
C1296 C1297 1.363 . S
C1296 C1302 1.379 . S
C1296 N1304 1.356 . S
C1297 C1296 1.363 . S
C1297 C1303 1.363 . S
C1298 C1299 1.363 . S
C1298 C1303 1.379 . S
C1298 N1305 1.356 . S
C1299 C1298 1.363 . S
C1299 C1302 1.363 . S
N1300 C1302 1.356 . S
N1300 H1312 0.984 . S
N1300 H1313 0.985 . S
N1301 C1303 1.356 . S
N1301 H1306 0.984 . S
N1301 H1307 0.985 . S
C1302 C1296 1.379 . S
C1302 C1299 1.363 . S
C1302 N1300 1.356 . S
C1303 C1297 1.363 . S
C1303 C1298 1.379 . S
C1303 N1301 1.356 . S
N1304 C1296 1.356 . S
N1304 H1310 0.984 . S
N1304 H1311 0.984 . S
N1305 C1298 1.356 . S
N1305 H1308 0.984 . S
N1305 H1309 0.985 . S
H1306 N1301 0.984 . S
H1307 N1301 0.985 . S
H1308 N1305 0.984 . S
H1309 N1305 0.985 . S
H1310 N1304 0.984 . S
H1311 N1304 0.984 . S
H1312 N1300 0.984 . S
H1313 N1300 0.985 . S
C1314 C1315 1.363 . S
C1314 C1320 1.379 . S
C1314 N1322 1.356 . S
C1315 C1314 1.363 . S
C1315 C1321 1.363 . S
C1316 C1317 1.363 . S
C1316 C1321 1.379 . S
C1316 N1323 1.356 . S
C1317 C1316 1.363 . S
C1317 C1320 1.363 . S
N1318 C1320 1.356 . S
N1318 H1330 0.984 . S
N1318 H1331 0.985 . S
N1319 C1321 1.356 . S
N1319 H1324 0.984 . S
N1319 H1325 0.985 . S
C1320 C1314 1.379 . S
C1320 C1317 1.363 . S
C1320 N1318 1.356 . S
C1321 C1315 1.363 . S
C1321 C1316 1.379 . S
C1321 N1319 1.356 . S
N1322 C1314 1.356 . S
N1322 H1328 0.984 . S
N1322 H1329 0.984 . S
N1323 C1316 1.356 . S
N1323 H1326 0.984 . S
N1323 H1327 0.985 . S
H1324 N1319 0.984 . S
H1325 N1319 0.985 . S
H1326 N1323 0.984 . S
H1327 N1323 0.985 . S
H1328 N1322 0.984 . S
H1329 N1322 0.984 . S
H1330 N1318 0.984 . S
H1331 N1318 0.985 . S
C1332 C1333 1.363 . S
C1332 C1338 1.379 . S
C1332 N1340 1.356 . S
C1333 C1332 1.363 . S
C1333 C1339 1.363 . S
C1334 C1335 1.363 . S
C1334 C1339 1.379 . S
C1334 N1341 1.356 . S
C1335 C1334 1.363 . S
C1335 C1338 1.363 . S
N1336 C1338 1.356 . S
N1336 H1348 0.984 . S
N1336 H1349 0.985 . S
N1337 C1339 1.356 . S
N1337 H1342 0.984 . S
N1337 H1343 0.985 . S
C1338 C1332 1.379 . S
C1338 C1335 1.363 . S
C1338 N1336 1.356 . S
C1339 C1333 1.363 . S
C1339 C1334 1.379 . S
C1339 N1337 1.356 . S
N1340 C1332 1.356 . S
N1340 H1346 0.984 . S
N1340 H1347 0.984 . S
N1341 C1334 1.356 . S
N1341 H1344 0.984 . S
N1341 H1345 0.985 . S
H1342 N1337 0.984 . S
H1343 N1337 0.985 . S
H1344 N1341 0.984 . S
H1345 N1341 0.985 . S
H1346 N1340 0.984 . S
H1347 N1340 0.984 . S
H1348 N1336 0.984 . S
H1349 N1336 0.985 . S
C1350 C1351 1.363 . S
C1350 C1356 1.379 . S
C1350 N1358 1.356 . S
C1351 C1350 1.363 . S
C1351 C1357 1.363 . S
C1352 C1353 1.363 . S
C1352 C1357 1.379 . S
C1352 N1359 1.356 . S
C1353 C1352 1.363 . S
C1353 C1356 1.363 . S
N1354 C1356 1.356 . S
N1354 H1366 0.984 . S
N1354 H1367 0.985 . S
N1355 C1357 1.356 . S
N1355 H1360 0.984 . S
N1355 H1361 0.985 . S
C1356 C1350 1.379 . S
C1356 C1353 1.363 . S
C1356 N1354 1.356 . S
C1357 C1351 1.363 . S
C1357 C1352 1.379 . S
C1357 N1355 1.356 . S
N1358 C1350 1.356 . S
N1358 H1364 0.984 . S
N1358 H1365 0.984 . S
N1359 C1352 1.356 . S
N1359 H1362 0.984 . S
N1359 H1363 0.985 . S
H1360 N1355 0.984 . S
H1361 N1355 0.985 . S
H1362 N1359 0.984 . S
H1363 N1359 0.985 . S
H1364 N1358 0.984 . S
H1365 N1358 0.984 . S
H1366 N1354 0.984 . S
H1367 N1354 0.985 . S
C1368 C1369 1.363 . S
C1368 C1374 1.379 . S
C1368 N1376 1.356 . S
C1369 C1368 1.363 . S
C1369 C1375 1.363 . S
C1370 C1371 1.363 . S
C1370 C1375 1.379 . S
C1370 N1377 1.356 . S
C1371 C1370 1.363 . S
C1371 C1374 1.363 . S
N1372 C1374 1.356 . S
N1372 H1384 0.984 . S
N1372 H1385 0.985 . S
N1373 C1375 1.356 . S
N1373 H1378 0.984 . S
N1373 H1379 0.985 . S
C1374 C1368 1.379 . S
C1374 C1371 1.363 . S
C1374 N1372 1.356 . S
C1375 C1369 1.363 . S
C1375 C1370 1.379 . S
C1375 N1373 1.356 . S
N1376 C1368 1.356 . S
N1376 H1382 0.984 . S
N1376 H1383 0.984 . S
N1377 C1370 1.356 . S
N1377 H1380 0.984 . S
N1377 H1381 0.985 . S
H1378 N1373 0.984 . S
H1379 N1373 0.985 . S
H1380 N1377 0.984 . S
H1381 N1377 0.985 . S
H1382 N1376 0.984 . S
H1383 N1376 0.984 . S
H1384 N1372 0.984 . S
H1385 N1372 0.985 . S
C1386 C1387 1.363 . S
C1386 C1392 1.379 . S
C1386 N1394 1.356 . S
C1387 C1386 1.363 . S
C1387 C1393 1.363 . S
C1388 C1389 1.363 . S
C1388 C1393 1.379 . S
C1388 N1395 1.356 . S
C1389 C1388 1.363 . S
C1389 C1392 1.363 . S
N1390 C1392 1.356 . S
N1390 H1402 0.984 . S
N1390 H1403 0.985 . S
N1391 C1393 1.356 . S
N1391 H1396 0.984 . S
N1391 H1397 0.985 . S
C1392 C1386 1.379 . S
C1392 C1389 1.363 . S
C1392 N1390 1.356 . S
C1393 C1387 1.363 . S
C1393 C1388 1.379 . S
C1393 N1391 1.356 . S
N1394 C1386 1.356 . S
N1394 H1400 0.984 . S
N1394 H1401 0.984 . S
N1395 C1388 1.356 . S
N1395 H1398 0.984 . S
N1395 H1399 0.985 . S
H1396 N1391 0.984 . S
H1397 N1391 0.985 . S
H1398 N1395 0.984 . S
H1399 N1395 0.985 . S
H1400 N1394 0.984 . S
H1401 N1394 0.984 . S
H1402 N1390 0.984 . S
H1403 N1390 0.985 . S
C1404 C1405 1.363 . S
C1404 C1410 1.379 . S
C1404 N1412 1.356 . S
C1405 C1404 1.363 . S
C1405 C1411 1.363 . S
C1406 C1407 1.363 . S
C1406 C1411 1.379 . S
C1406 N1413 1.356 . S
C1407 C1406 1.363 . S
C1407 C1410 1.363 . S
N1408 C1410 1.356 . S
N1408 H1420 0.984 . S
N1408 H1421 0.985 . S
N1409 C1411 1.356 . S
N1409 H1414 0.984 . S
N1409 H1415 0.985 . S
C1410 C1404 1.379 . S
C1410 C1407 1.363 . S
C1410 N1408 1.356 . S
C1411 C1405 1.363 . S
C1411 C1406 1.379 . S
C1411 N1409 1.356 . S
N1412 C1404 1.356 . S
N1412 H1418 0.984 . S
N1412 H1419 0.984 . S
N1413 C1406 1.356 . S
N1413 H1416 0.984 . S
N1413 H1417 0.985 . S
H1414 N1409 0.984 . S
H1415 N1409 0.985 . S
H1416 N1413 0.984 . S
H1417 N1413 0.985 . S
H1418 N1412 0.984 . S
H1419 N1412 0.984 . S
H1420 N1408 0.984 . S
H1421 N1408 0.985 . S
C1422 C1423 1.363 . S
C1422 C1428 1.379 . S
C1422 N1430 1.356 . S
C1423 C1422 1.363 . S
C1423 C1429 1.363 . S
C1424 C1425 1.363 . S
C1424 C1429 1.379 . S
C1424 N1431 1.356 . S
C1425 C1424 1.363 . S
C1425 C1428 1.363 . S
N1426 C1428 1.356 . S
N1426 H1438 0.984 . S
N1426 H1439 0.985 . S
N1427 C1429 1.356 . S
N1427 H1432 0.984 . S
N1427 H1433 0.985 . S
C1428 C1422 1.379 . S
C1428 C1425 1.363 . S
C1428 N1426 1.356 . S
C1429 C1423 1.363 . S
C1429 C1424 1.379 . S
C1429 N1427 1.356 . S
N1430 C1422 1.356 . S
N1430 H1436 0.984 . S
N1430 H1437 0.984 . S
N1431 C1424 1.356 . S
N1431 H1434 0.984 . S
N1431 H1435 0.985 . S
H1432 N1427 0.984 . S
H1433 N1427 0.985 . S
H1434 N1431 0.984 . S
H1435 N1431 0.985 . S
H1436 N1430 0.984 . S
H1437 N1430 0.984 . S
H1438 N1426 0.984 . S
H1439 N1426 0.985 . S
C1440 C1441 1.363 . S
C1440 C1446 1.379 . S
C1440 N1448 1.356 . S
C1441 C1440 1.363 . S
C1441 C1447 1.363 . S
C1442 C1443 1.363 . S
C1442 C1447 1.379 . S
C1442 N1449 1.356 . S
C1443 C1442 1.363 . S
C1443 C1446 1.363 . S
N1444 C1446 1.356 . S
N1444 H1456 0.984 . S
N1444 H1457 0.985 . S
N1445 C1447 1.356 . S
N1445 H1450 0.984 . S
N1445 H1451 0.985 . S
C1446 C1440 1.379 . S
C1446 C1443 1.363 . S
C1446 N1444 1.356 . S
C1447 C1441 1.363 . S
C1447 C1442 1.379 . S
C1447 N1445 1.356 . S
N1448 C1440 1.356 . S
N1448 H1454 0.984 . S
N1448 H1455 0.984 . S
N1449 C1442 1.356 . S
N1449 H1452 0.984 . S
N1449 H1453 0.985 . S
H1450 N1445 0.984 . S
H1451 N1445 0.985 . S
H1452 N1449 0.984 . S
H1453 N1449 0.985 . S
H1454 N1448 0.984 . S
H1455 N1448 0.984 . S
H1456 N1444 0.984 . S
H1457 N1444 0.985 . S
C1458 C1459 1.363 . S
C1458 C1464 1.379 . S
C1458 N1466 1.356 . S
C1459 C1458 1.363 . S
C1459 C1465 1.363 . S
C1460 C1461 1.363 . S
C1460 C1465 1.379 . S
C1460 N1467 1.356 . S
C1461 C1460 1.363 . S
C1461 C1464 1.363 . S
N1462 C1464 1.356 . S
N1462 H1474 0.984 . S
N1462 H1475 0.985 . S
N1463 C1465 1.356 . S
N1463 H1468 0.984 . S
N1463 H1469 0.985 . S
C1464 C1458 1.379 . S
C1464 C1461 1.363 . S
C1464 N1462 1.356 . S
C1465 C1459 1.363 . S
C1465 C1460 1.379 . S
C1465 N1463 1.356 . S
N1466 C1458 1.356 . S
N1466 H1472 0.984 . S
N1466 H1473 0.984 . S
N1467 C1460 1.356 . S
N1467 H1470 0.984 . S
N1467 H1471 0.985 . S
H1468 N1463 0.984 . S
H1469 N1463 0.985 . S
H1470 N1467 0.984 . S
H1471 N1467 0.985 . S
H1472 N1466 0.984 . S
H1473 N1466 0.984 . S
H1474 N1462 0.984 . S
H1475 N1462 0.985 . S
C1476 C1477 1.363 . S
C1476 C1482 1.379 . S
C1476 N1484 1.356 . S
C1477 C1476 1.363 . S
C1477 C1483 1.363 . S
C1478 C1479 1.363 . S
C1478 C1483 1.379 . S
C1478 N1485 1.356 . S
C1479 C1478 1.363 . S
C1479 C1482 1.363 . S
N1480 C1482 1.356 . S
N1480 H1492 0.984 . S
N1480 H1493 0.985 . S
N1481 C1483 1.356 . S
N1481 H1486 0.984 . S
N1481 H1487 0.985 . S
C1482 C1476 1.379 . S
C1482 C1479 1.363 . S
C1482 N1480 1.356 . S
C1483 C1477 1.363 . S
C1483 C1478 1.379 . S
C1483 N1481 1.356 . S
N1484 C1476 1.356 . S
N1484 H1490 0.984 . S
N1484 H1491 0.984 . S
N1485 C1478 1.356 . S
N1485 H1488 0.984 . S
N1485 H1489 0.985 . S
H1486 N1481 0.984 . S
H1487 N1481 0.985 . S
H1488 N1485 0.984 . S
H1489 N1485 0.985 . S
H1490 N1484 0.984 . S
H1491 N1484 0.984 . S
H1492 N1480 0.984 . S
H1493 N1480 0.985 . S
C1494 C1495 1.363 . S
C1494 C1500 1.379 . S
C1494 N1502 1.356 . S
C1495 C1494 1.363 . S
C1495 C1501 1.363 . S
C1496 C1497 1.363 . S
C1496 C1501 1.379 . S
C1496 N1503 1.356 . S
C1497 C1496 1.363 . S
C1497 C1500 1.363 . S
N1498 C1500 1.356 . S
N1498 H1510 0.984 . S
N1498 H1511 0.985 . S
N1499 C1501 1.356 . S
N1499 H1504 0.984 . S
N1499 H1505 0.985 . S
C1500 C1494 1.379 . S
C1500 C1497 1.363 . S
C1500 N1498 1.356 . S
C1501 C1495 1.363 . S
C1501 C1496 1.379 . S
C1501 N1499 1.356 . S
N1502 C1494 1.356 . S
N1502 H1508 0.984 . S
N1502 H1509 0.984 . S
N1503 C1496 1.356 . S
N1503 H1506 0.984 . S
N1503 H1507 0.985 . S
H1504 N1499 0.984 . S
H1505 N1499 0.985 . S
H1506 N1503 0.984 . S
H1507 N1503 0.985 . S
H1508 N1502 0.984 . S
H1509 N1502 0.984 . S
H1510 N1498 0.984 . S
H1511 N1498 0.985 . S
C1512 C1513 1.363 . S
C1512 C1518 1.379 . S
C1512 N1520 1.356 . S
C1513 C1512 1.363 . S
C1513 C1519 1.363 . S
C1514 C1515 1.363 . S
C1514 C1519 1.379 . S
C1514 N1521 1.356 . S
C1515 C1514 1.363 . S
C1515 C1518 1.363 . S
N1516 C1518 1.356 . S
N1516 H1528 0.984 . S
N1516 H1529 0.985 . S
N1517 C1519 1.356 . S
N1517 H1522 0.984 . S
N1517 H1523 0.985 . S
C1518 C1512 1.379 . S
C1518 C1515 1.363 . S
C1518 N1516 1.356 . S
C1519 C1513 1.363 . S
C1519 C1514 1.379 . S
C1519 N1517 1.356 . S
N1520 C1512 1.356 . S
N1520 H1526 0.984 . S
N1520 H1527 0.984 . S
N1521 C1514 1.356 . S
N1521 H1524 0.984 . S
N1521 H1525 0.985 . S
H1522 N1517 0.984 . S
H1523 N1517 0.985 . S
H1524 N1521 0.984 . S
H1525 N1521 0.985 . S
H1526 N1520 0.984 . S
H1527 N1520 0.984 . S
H1528 N1516 0.984 . S
H1529 N1516 0.985 . S
C1530 C1531 1.363 . S
C1530 C1536 1.379 . S
C1530 N1538 1.356 . S
C1531 C1530 1.363 . S
C1531 C1537 1.363 . S
C1532 C1533 1.363 . S
C1532 C1537 1.379 . S
C1532 N1539 1.356 . S
C1533 C1532 1.363 . S
C1533 C1536 1.363 . S
N1534 C1536 1.356 . S
N1534 H1546 0.984 . S
N1534 H1547 0.985 . S
N1535 C1537 1.356 . S
N1535 H1540 0.984 . S
N1535 H1541 0.985 . S
C1536 C1530 1.379 . S
C1536 C1533 1.363 . S
C1536 N1534 1.356 . S
C1537 C1531 1.363 . S
C1537 C1532 1.379 . S
C1537 N1535 1.356 . S
N1538 C1530 1.356 . S
N1538 H1544 0.984 . S
N1538 H1545 0.984 . S
N1539 C1532 1.356 . S
N1539 H1542 0.984 . S
N1539 H1543 0.985 . S
H1540 N1535 0.984 . S
H1541 N1535 0.985 . S
H1542 N1539 0.984 . S
H1543 N1539 0.985 . S
H1544 N1538 0.984 . S
H1545 N1538 0.984 . S
H1546 N1534 0.984 . S
H1547 N1534 0.985 . S
C1548 C1549 1.363 . S
C1548 C1554 1.379 . S
C1548 N1556 1.356 . S
C1549 C1548 1.363 . S
C1549 C1555 1.363 . S
C1550 C1551 1.363 . S
C1550 C1555 1.379 . S
C1550 N1557 1.356 . S
C1551 C1550 1.363 . S
C1551 C1554 1.363 . S
N1552 C1554 1.356 . S
N1552 H1564 0.984 . S
N1552 H1565 0.985 . S
N1553 C1555 1.356 . S
N1553 H1558 0.984 . S
N1553 H1559 0.985 . S
C1554 C1548 1.379 . S
C1554 C1551 1.363 . S
C1554 N1552 1.356 . S
C1555 C1549 1.363 . S
C1555 C1550 1.379 . S
C1555 N1553 1.356 . S
N1556 C1548 1.356 . S
N1556 H1562 0.984 . S
N1556 H1563 0.984 . S
N1557 C1550 1.356 . S
N1557 H1560 0.984 . S
N1557 H1561 0.985 . S
H1558 N1553 0.984 . S
H1559 N1553 0.985 . S
H1560 N1557 0.984 . S
H1561 N1557 0.985 . S
H1562 N1556 0.984 . S
H1563 N1556 0.984 . S
H1564 N1552 0.984 . S
H1565 N1552 0.985 . S
C1566 C1567 1.363 . S
C1566 C1572 1.379 . S
C1566 N1574 1.356 . S
C1567 C1566 1.363 . S
C1567 C1573 1.363 . S
C1568 C1569 1.363 . S
C1568 C1573 1.379 . S
C1568 N1575 1.356 . S
C1569 C1568 1.363 . S
C1569 C1572 1.363 . S
N1570 C1572 1.356 . S
N1570 H1582 0.984 . S
N1570 H1583 0.985 . S
N1571 C1573 1.356 . S
N1571 H1576 0.984 . S
N1571 H1577 0.985 . S
C1572 C1566 1.379 . S
C1572 C1569 1.363 . S
C1572 N1570 1.356 . S
C1573 C1567 1.363 . S
C1573 C1568 1.379 . S
C1573 N1571 1.356 . S
N1574 C1566 1.356 . S
N1574 H1580 0.984 . S
N1574 H1581 0.984 . S
N1575 C1568 1.356 . S
N1575 H1578 0.984 . S
N1575 H1579 0.985 . S
H1576 N1571 0.984 . S
H1577 N1571 0.985 . S
H1578 N1575 0.984 . S
H1579 N1575 0.985 . S
H1580 N1574 0.984 . S
H1581 N1574 0.984 . S
H1582 N1570 0.984 . S
H1583 N1570 0.985 . S
C1584 C1585 1.363 . S
C1584 C1590 1.379 . S
C1584 N1592 1.356 . S
C1585 C1584 1.363 . S
C1585 C1591 1.363 . S
C1586 C1587 1.363 . S
C1586 C1591 1.379 . S
C1586 N1593 1.356 . S
C1587 C1586 1.363 . S
C1587 C1590 1.363 . S
N1588 C1590 1.356 . S
N1588 H1600 0.984 . S
N1588 H1601 0.985 . S
N1589 C1591 1.356 . S
N1589 H1594 0.984 . S
N1589 H1595 0.985 . S
C1590 C1584 1.379 . S
C1590 C1587 1.363 . S
C1590 N1588 1.356 . S
C1591 C1585 1.363 . S
C1591 C1586 1.379 . S
C1591 N1589 1.356 . S
N1592 C1584 1.356 . S
N1592 H1598 0.984 . S
N1592 H1599 0.984 . S
N1593 C1586 1.356 . S
N1593 H1596 0.984 . S
N1593 H1597 0.985 . S
H1594 N1589 0.984 . S
H1595 N1589 0.985 . S
H1596 N1593 0.984 . S
H1597 N1593 0.985 . S
H1598 N1592 0.984 . S
H1599 N1592 0.984 . S
H1600 N1588 0.984 . S
H1601 N1588 0.985 . S
C1602 C1603 1.363 . S
C1602 C1608 1.379 . S
C1602 N1610 1.356 . S
C1603 C1602 1.363 . S
C1603 C1609 1.363 . S
C1604 C1605 1.363 . S
C1604 C1609 1.379 . S
C1604 N1611 1.356 . S
C1605 C1604 1.363 . S
C1605 C1608 1.363 . S
N1606 C1608 1.356 . S
N1606 H1618 0.984 . S
N1606 H1619 0.985 . S
N1607 C1609 1.356 . S
N1607 H1612 0.984 . S
N1607 H1613 0.985 . S
C1608 C1602 1.379 . S
C1608 C1605 1.363 . S
C1608 N1606 1.356 . S
C1609 C1603 1.363 . S
C1609 C1604 1.379 . S
C1609 N1607 1.356 . S
N1610 C1602 1.356 . S
N1610 H1616 0.984 . S
N1610 H1617 0.984 . S
N1611 C1604 1.356 . S
N1611 H1614 0.984 . S
N1611 H1615 0.985 . S
H1612 N1607 0.984 . S
H1613 N1607 0.985 . S
H1614 N1611 0.984 . S
H1615 N1611 0.985 . S
H1616 N1610 0.984 . S
H1617 N1610 0.984 . S
H1618 N1606 0.984 . S
H1619 N1606 0.985 . S
C1620 C1621 1.363 . S
C1620 C1626 1.379 . S
C1620 N1628 1.356 . S
C1621 C1620 1.363 . S
C1621 C1627 1.363 . S
C1622 C1623 1.363 . S
C1622 C1627 1.379 . S
C1622 N1629 1.356 . S
C1623 C1622 1.363 . S
C1623 C1626 1.363 . S
N1624 C1626 1.356 . S
N1624 H1636 0.984 . S
N1624 H1637 0.985 . S
N1625 C1627 1.356 . S
N1625 H1630 0.984 . S
N1625 H1631 0.985 . S
C1626 C1620 1.379 . S
C1626 C1623 1.363 . S
C1626 N1624 1.356 . S
C1627 C1621 1.363 . S
C1627 C1622 1.379 . S
C1627 N1625 1.356 . S
N1628 C1620 1.356 . S
N1628 H1634 0.984 . S
N1628 H1635 0.984 . S
N1629 C1622 1.356 . S
N1629 H1632 0.984 . S
N1629 H1633 0.985 . S
H1630 N1625 0.984 . S
H1631 N1625 0.985 . S
H1632 N1629 0.984 . S
H1633 N1629 0.985 . S
H1634 N1628 0.984 . S
H1635 N1628 0.984 . S
H1636 N1624 0.984 . S
H1637 N1624 0.985 . S
C1638 C1639 1.363 . S
C1638 C1644 1.379 . S
C1638 N1646 1.356 . S
C1639 C1638 1.363 . S
C1639 C1645 1.363 . S
C1640 C1641 1.363 . S
C1640 C1645 1.379 . S
C1640 N1647 1.356 . S
C1641 C1640 1.363 . S
C1641 C1644 1.363 . S
N1642 C1644 1.356 . S
N1642 H1654 0.984 . S
N1642 H1655 0.985 . S
N1643 C1645 1.356 . S
N1643 H1648 0.984 . S
N1643 H1649 0.985 1_554 S
C1644 C1638 1.379 . S
C1644 C1641 1.363 . S
C1644 N1642 1.356 . S
C1645 C1639 1.363 . S
C1645 C1640 1.379 . S
C1645 N1643 1.356 . S
N1646 C1638 1.356 . S
N1646 H1652 0.984 . S
N1646 H1653 0.984 . S
N1647 C1640 1.356 . S
N1647 H1650 0.984 . S
N1647 H1651 0.985 . S
H1648 N1643 0.984 . S
H1649 N1643 0.985 1_556 S
H1650 N1647 0.984 . S
H1651 N1647 0.985 . S
H1652 N1646 0.984 . S
H1653 N1646 0.984 . S
H1654 N1642 0.984 . S
H1655 N1642 0.985 . S
C1656 C1657 1.363 . S
C1656 C1662 1.379 . S
C1656 N1664 1.356 1_554 S
C1657 C1656 1.363 . S
C1657 C1663 1.363 . S
C1658 C1659 1.363 . S
C1658 C1663 1.379 . S
C1658 N1665 1.356 . S
C1659 C1658 1.363 . S
C1659 C1662 1.363 . S
N1660 C1662 1.356 . S
N1660 H1672 0.984 . S
N1660 H1673 0.985 . S
N1661 C1663 1.356 . S
N1661 H1666 0.984 . S
N1661 H1667 0.985 . S
C1662 C1656 1.379 . S
C1662 C1659 1.363 . S
C1662 N1660 1.356 . S
C1663 C1657 1.363 . S
C1663 C1658 1.379 . S
C1663 N1661 1.356 . S
N1664 C1656 1.356 1_556 S
N1664 H1670 0.984 . S
N1664 H1671 0.984 . S
N1665 C1658 1.356 . S
N1665 H1668 0.984 . S
N1665 H1669 0.985 . S
H1666 N1661 0.984 . S
H1667 N1661 0.985 . S
H1668 N1665 0.984 . S
H1669 N1665 0.985 . S
H1670 N1664 0.984 . S
H1671 N1664 0.984 . S
H1672 N1660 0.984 . S
H1673 N1660 0.985 . S
C1674 C1675 1.363 . S
C1674 C1680 1.379 . S
C1674 N1682 1.356 1_556 S
C1675 C1674 1.363 . S
C1675 C1681 1.363 . S
C1676 C1677 1.363 . S
C1676 C1681 1.379 . S
C1676 N1683 1.356 . S
C1677 C1676 1.363 . S
C1677 C1680 1.363 . S
N1678 C1680 1.356 . S
N1678 H1690 0.984 1_556 S
N1678 H1691 0.985 . S
N1679 C1681 1.356 . S
N1679 H1684 0.984 . S
N1679 H1685 0.985 . S
C1680 C1674 1.379 . S
C1680 C1677 1.363 . S
C1680 N1678 1.356 . S
C1681 C1675 1.363 . S
C1681 C1676 1.379 . S
C1681 N1679 1.356 . S
N1682 C1674 1.356 1_554 S
N1682 H1688 0.984 . S
N1682 H1689 0.984 . S
N1683 C1676 1.356 . S
N1683 H1686 0.984 . S
N1683 H1687 0.985 . S
H1684 N1679 0.984 . S
H1685 N1679 0.985 . S
H1686 N1683 0.984 . S
H1687 N1683 0.985 . S
H1688 N1682 0.984 . S
H1689 N1682 0.984 . S
H1690 N1678 0.984 1_554 S
H1691 N1678 0.985 . S
C1692 C1693 1.363 . S
C1692 C1698 1.379 . S
C1692 N1700 1.356 1_556 S
C1693 C1692 1.363 . S
C1693 C1699 1.363 . S
C1694 C1695 1.363 . S
C1694 C1699 1.379 . S
C1694 N1701 1.356 . S
C1695 C1694 1.363 . S
C1695 C1698 1.363 . S
N1696 C1698 1.356 . S
N1696 H1708 0.984 . S
N1696 H1709 0.985 . S
N1697 C1699 1.356 . S
N1697 H1702 0.984 . S
N1697 H1703 0.985 . S
C1698 C1692 1.379 . S
C1698 C1695 1.363 . S
C1698 N1696 1.356 . S
C1699 C1693 1.363 . S
C1699 C1694 1.379 . S
C1699 N1697 1.356 . S
N1700 C1692 1.356 1_554 S
N1700 H1706 0.984 . S
N1700 H1707 0.984 . S
N1701 C1694 1.356 . S
N1701 H1704 0.984 . S
N1701 H1705 0.985 . S
H1702 N1697 0.984 . S
H1703 N1697 0.985 . S
H1704 N1701 0.984 . S
H1705 N1701 0.985 . S
H1706 N1700 0.984 . S
H1707 N1700 0.984 . S
H1708 N1696 0.984 . S
H1709 N1696 0.985 . S
C1710 C1711 1.363 . S
C1710 C1716 1.379 . S
C1710 N1718 1.356 . S
C1711 C1710 1.363 . S
C1711 C1717 1.363 . S
C1712 C1713 1.363 . S
C1712 C1717 1.379 . S
C1712 N1719 1.356 . S
C1713 C1712 1.363 . S
C1713 C1716 1.363 . S
N1714 C1716 1.356 . S
N1714 H1726 0.984 . S
N1714 H1727 0.985 . S
N1715 C1717 1.356 . S
N1715 H1720 0.984 . S
N1715 H1721 0.985 . S
C1716 C1710 1.379 . S
C1716 C1713 1.363 . S
C1716 N1714 1.356 . S
C1717 C1711 1.363 . S
C1717 C1712 1.379 . S
C1717 N1715 1.356 . S
N1718 C1710 1.356 . S
N1718 H1724 0.984 . S
N1718 H1725 0.984 . S
N1719 C1712 1.356 . S
N1719 H1722 0.984 . S
N1719 H1723 0.985 . S
H1720 N1715 0.984 . S
H1721 N1715 0.985 . S
H1722 N1719 0.984 . S
H1723 N1719 0.985 . S
H1724 N1718 0.984 . S
H1725 N1718 0.984 . S
H1726 N1714 0.984 . S
H1727 N1714 0.985 . S
C1728 C1729 1.363 . S
C1728 C1734 1.379 . S
C1728 N1736 1.356 . S
C1729 C1728 1.363 . S
C1729 C1735 1.363 . S
C1730 C1731 1.363 . S
C1730 C1735 1.379 . S
C1730 N1737 1.356 . S
C1731 C1730 1.363 . S
C1731 C1734 1.363 . S
N1732 C1734 1.356 . S
N1732 H1744 0.984 . S
N1732 H1745 0.985 . S
N1733 C1735 1.356 1_554 S
N1733 H1738 0.984 . S
N1733 H1739 0.985 . S
C1734 C1728 1.379 . S
C1734 C1731 1.363 . S
C1734 N1732 1.356 . S
C1735 C1729 1.363 . S
C1735 C1730 1.379 . S
C1735 N1733 1.356 1_556 S
N1736 C1728 1.356 . S
N1736 H1742 0.984 . S
N1736 H1743 0.984 . S
N1737 C1730 1.356 . S
N1737 H1740 0.984 . S
N1737 H1741 0.985 1_556 S
H1738 N1733 0.984 . S
H1739 N1733 0.985 . S
H1740 N1737 0.984 . S
H1741 N1737 0.985 1_554 S
H1742 N1736 0.984 . S
H1743 N1736 0.984 . S
H1744 N1732 0.984 . S
H1745 N1732 0.985 . S
C1746 C1747 1.363 . S
C1746 C1752 1.379 . S
C1746 N1754 1.356 . S
C1747 C1746 1.363 . S
C1747 C1753 1.363 . S
C1748 C1749 1.363 . S
C1748 C1753 1.379 . S
C1748 N1755 1.356 . S
C1749 C1748 1.363 . S
C1749 C1752 1.363 . S
N1750 C1752 1.356 . S
N1750 H1762 0.984 . S
N1750 H1763 0.985 . S
N1751 C1753 1.356 1_554 S
N1751 H1756 0.984 . S
N1751 H1757 0.985 . S
C1752 C1746 1.379 . S
C1752 C1749 1.363 . S
C1752 N1750 1.356 . S
C1753 C1747 1.363 . S
C1753 C1748 1.379 . S
C1753 N1751 1.356 1_556 S
N1754 C1746 1.356 . S
N1754 H1760 0.984 . S
N1754 H1761 0.984 . S
N1755 C1748 1.356 . S
N1755 H1758 0.984 . S
N1755 H1759 0.985 1_556 S
H1756 N1751 0.984 . S
H1757 N1751 0.985 . S
H1758 N1755 0.984 . S
H1759 N1755 0.985 1_554 S
H1760 N1754 0.984 . S
H1761 N1754 0.984 . S
H1762 N1750 0.984 . S
H1763 N1750 0.985 . S
C1764 C1765 1.363 . S
C1764 C1770 1.379 . S
C1764 N1772 1.356 . S
C1765 C1764 1.363 . S
C1765 C1771 1.363 . S
C1766 C1767 1.363 . S
C1766 C1771 1.379 . S
C1766 N1773 1.356 . S
C1767 C1766 1.363 . S
C1767 C1770 1.363 . S
N1768 C1770 1.356 . S
N1768 H1780 0.984 . S
N1768 H1781 0.985 . S
N1769 C1771 1.356 1_554 S
N1769 H1774 0.984 . S
N1769 H1775 0.985 . S
C1770 C1764 1.379 . S
C1770 C1767 1.363 . S
C1770 N1768 1.356 . S
C1771 C1765 1.363 . S
C1771 C1766 1.379 . S
C1771 N1769 1.356 1_556 S
N1772 C1764 1.356 . S
N1772 H1778 0.984 . S
N1772 H1779 0.984 . S
N1773 C1766 1.356 . S
N1773 H1776 0.984 . S
N1773 H1777 0.985 . S
H1774 N1769 0.984 . S
H1775 N1769 0.985 . S
H1776 N1773 0.984 . S
H1777 N1773 0.985 . S
H1778 N1772 0.984 . S
H1779 N1772 0.984 . S
H1780 N1768 0.984 . S
H1781 N1768 0.985 . S
C1782 C1783 1.363 . S
C1782 C1788 1.379 . S
C1782 N1790 1.356 . S
C1783 C1782 1.363 . S
C1783 C1789 1.363 . S
C1784 C1785 1.363 . S
C1784 C1789 1.379 . S
C1784 N1791 1.356 . S
C1785 C1784 1.363 . S
C1785 C1788 1.363 . S
N1786 C1788 1.356 . S
N1786 H1798 0.984 . S
N1786 H1799 0.985 . S
N1787 C1789 1.356 . S
N1787 H1792 0.984 . S
N1787 H1793 0.985 . S
C1788 C1782 1.379 . S
C1788 C1785 1.363 . S
C1788 N1786 1.356 . S
C1789 C1783 1.363 . S
C1789 C1784 1.379 . S
C1789 N1787 1.356 . S
N1790 C1782 1.356 . S
N1790 H1796 0.984 1_554 S
N1790 H1797 0.986 . S
N1791 C1784 1.356 . S
N1791 H1794 0.984 . S
N1791 H1795 0.985 . S
H1792 N1787 0.984 . S
H1793 N1787 0.985 . S
H1794 N1791 0.984 . S
H1795 N1791 0.985 . S
H1796 N1790 0.984 1_556 S
H1797 N1790 0.986 . S
H1798 N1786 0.984 . S
H1799 N1786 0.985 . S
C1800 C1801 1.363 . S
C1800 C1806 1.379 . S
C1800 N1808 1.356 . S
C1801 C1800 1.363 . S
C1801 C1807 1.363 . S
C1802 C1803 1.363 . S
C1802 C1807 1.379 . S
C1802 N1809 1.356 . S
C1803 C1802 1.363 . S
C1803 C1806 1.363 . S
N1804 C1806 1.356 . S
N1804 H1816 0.984 . S
N1804 H1817 0.985 . S
N1805 C1807 1.356 1_556 S
N1805 H1810 0.984 . S
N1805 H1811 0.985 . S
C1806 C1800 1.379 . S
C1806 C1803 1.363 . S
C1806 N1804 1.356 . S
C1807 C1801 1.363 . S
C1807 C1802 1.379 . S
C1807 N1805 1.356 1_554 S
N1808 C1800 1.356 . S
N1808 H1814 0.984 . S
N1808 H1815 0.984 . S
N1809 C1802 1.356 . S
N1809 H1812 0.984 . S
N1809 H1813 0.985 . S
H1810 N1805 0.984 . S
H1811 N1805 0.985 . S
H1812 N1809 0.984 . S
H1813 N1809 0.985 . S
H1814 N1808 0.984 . S
H1815 N1808 0.984 . S
H1816 N1804 0.984 . S
H1817 N1804 0.985 . S
C1818 C1819 1.363 . S
C1818 C1824 1.379 . S
C1818 N1826 1.356 . S
C1819 C1818 1.363 . S
C1819 C1825 1.363 . S
C1820 C1821 1.363 . S
C1820 C1825 1.379 . S
C1820 N1827 1.356 . S
C1821 C1820 1.363 . S
C1821 C1824 1.363 . S
N1822 C1824 1.356 . S
N1822 H1834 0.984 . S
N1822 H1835 0.985 . S
N1823 C1825 1.356 . S
N1823 H1828 0.984 . S
N1823 H1829 0.985 . S
C1824 C1818 1.379 . S
C1824 C1821 1.363 . S
C1824 N1822 1.356 . S
C1825 C1819 1.363 . S
C1825 C1820 1.379 . S
C1825 N1823 1.356 . S
N1826 C1818 1.356 . S
N1826 H1832 0.984 . S
N1826 H1833 0.984 . S
N1827 C1820 1.356 . S
N1827 H1830 0.984 . S
N1827 H1831 0.985 . S
H1828 N1823 0.984 . S
H1829 N1823 0.985 . S
H1830 N1827 0.984 . S
H1831 N1827 0.985 . S
H1832 N1826 0.984 . S
H1833 N1826 0.984 . S
H1834 N1822 0.984 . S
H1835 N1822 0.985 . S
C1836 C1837 1.363 . S
C1836 C1842 1.379 . S
C1836 N1844 1.356 . S
C1837 C1836 1.363 . S
C1837 C1843 1.363 . S
C1838 C1839 1.363 . S
C1838 C1843 1.379 . S
C1838 N1845 1.356 . S
C1839 C1838 1.363 . S
C1839 C1842 1.363 . S
N1840 C1842 1.356 . S
N1840 H1852 0.984 . S
N1840 H1853 0.985 . S
N1841 C1843 1.356 . S
N1841 H1846 0.984 . S
N1841 H1847 0.985 . S
C1842 C1836 1.379 . S
C1842 C1839 1.363 . S
C1842 N1840 1.356 . S
C1843 C1837 1.363 . S
C1843 C1838 1.379 . S
C1843 N1841 1.356 . S
N1844 C1836 1.356 . S
N1844 H1850 0.984 . S
N1844 H1851 0.984 . S
N1845 C1838 1.356 . S
N1845 H1848 0.984 . S
N1845 H1849 0.985 . S
H1846 N1841 0.984 . S
H1847 N1841 0.985 . S
H1848 N1845 0.984 . S
H1849 N1845 0.985 . S
H1850 N1844 0.984 . S
H1851 N1844 0.984 . S
H1852 N1840 0.984 . S
H1853 N1840 0.985 . S
C1854 C1855 1.363 . S
C1854 C1860 1.379 . S
C1854 N1862 1.356 . S
C1855 C1854 1.363 . S
C1855 C1861 1.363 . S
C1856 C1857 1.363 . S
C1856 C1861 1.379 . S
C1856 N1863 1.356 . S
C1857 C1856 1.363 . S
C1857 C1860 1.363 . S
N1858 C1860 1.356 . S
N1858 H1870 0.984 . S
N1858 H1871 0.985 . S
N1859 C1861 1.356 . S
N1859 H1864 0.984 . S
N1859 H1865 0.985 . S
C1860 C1854 1.379 . S
C1860 C1857 1.363 . S
C1860 N1858 1.356 . S
C1861 C1855 1.363 . S
C1861 C1856 1.379 . S
C1861 N1859 1.356 . S
N1862 C1854 1.356 . S
N1862 H1868 0.984 . S
N1862 H1869 0.984 . S
N1863 C1856 1.356 . S
N1863 H1866 0.984 . S
N1863 H1867 0.985 . S
H1864 N1859 0.984 . S
H1865 N1859 0.985 . S
H1866 N1863 0.984 . S
H1867 N1863 0.985 . S
H1868 N1862 0.984 . S
H1869 N1862 0.984 . S
H1870 N1858 0.984 . S
H1871 N1858 0.985 . S
C1872 C1873 1.363 . S
C1872 C1878 1.379 . S
C1872 N1880 1.356 . S
C1873 C1872 1.363 . S
C1873 C1879 1.363 . S
C1874 C1875 1.363 . S
C1874 C1879 1.379 . S
C1874 N1881 1.356 . S
C1875 C1874 1.363 . S
C1875 C1878 1.363 . S
N1876 C1878 1.356 . S
N1876 H1888 0.984 . S
N1876 H1889 0.985 . S
N1877 C1879 1.356 . S
N1877 H1882 0.984 . S
N1877 H1883 0.985 . S
C1878 C1872 1.379 . S
C1878 C1875 1.363 . S
C1878 N1876 1.356 . S
C1879 C1873 1.363 . S
C1879 C1874 1.379 . S
C1879 N1877 1.356 . S
N1880 C1872 1.356 . S
N1880 H1886 0.984 . S
N1880 H1887 0.984 . S
N1881 C1874 1.356 . S
N1881 H1884 0.984 . S
N1881 H1885 0.985 . S
H1882 N1877 0.984 . S
H1883 N1877 0.985 . S
H1884 N1881 0.984 . S
H1885 N1881 0.985 . S
H1886 N1880 0.984 . S
H1887 N1880 0.984 . S
H1888 N1876 0.984 . S
H1889 N1876 0.985 . S
C1890 C1891 1.363 . S
C1890 C1896 1.379 . S
C1890 N1898 1.356 . S
C1891 C1890 1.363 . S
C1891 C1897 1.363 1_455 S
C1892 C1893 1.363 1_655 S
C1892 C1897 1.379 . S
C1892 N1899 1.356 . S
C1893 C1892 1.363 1_455 S
C1893 C1896 1.363 . S
N1894 C1896 1.356 . S
N1894 H1906 0.984 . S
N1894 H1907 0.985 . S
N1895 C1897 1.356 . S
N1895 H1900 0.984 . S
N1895 H1901 0.985 . S
C1896 C1890 1.379 . S
C1896 C1893 1.363 . S
C1896 N1894 1.356 . S
C1897 C1891 1.363 1_655 S
C1897 C1892 1.379 . S
C1897 N1895 1.356 . S
N1898 C1890 1.356 . S
N1898 H1904 0.984 . S
N1898 H1905 0.984 . S
N1899 C1892 1.356 . S
N1899 H1902 0.984 . S
N1899 H1903 0.985 . S
H1900 N1895 0.984 . S
H1901 N1895 0.985 . S
H1902 N1899 0.984 . S
H1903 N1899 0.985 . S
H1904 N1898 0.984 . S
H1905 N1898 0.984 . S
H1906 N1894 0.984 . S
H1907 N1894 0.985 . S
C1908 C1909 1.363 . S
C1908 C1914 1.379 . S
C1908 N1916 1.356 . S
C1909 C1908 1.363 . S
C1909 C1915 1.363 . S
C1910 C1911 1.363 . S
C1910 C1915 1.379 . S
C1910 N1917 1.356 . S
C1911 C1910 1.363 . S
C1911 C1914 1.363 . S
N1912 C1914 1.356 . S
N1912 H1924 0.984 . S
N1912 H1925 0.985 . S
N1913 C1915 1.356 . S
N1913 H1918 0.984 . S
N1913 H1919 0.985 . S
C1914 C1908 1.379 . S
C1914 C1911 1.363 . S
C1914 N1912 1.356 . S
C1915 C1909 1.363 . S
C1915 C1910 1.379 . S
C1915 N1913 1.356 . S
N1916 C1908 1.356 . S
N1916 H1922 0.984 . S
N1916 H1923 0.984 . S
N1917 C1910 1.356 . S
N1917 H1920 0.984 . S
N1917 H1921 0.985 . S
H1918 N1913 0.984 . S
H1919 N1913 0.985 . S
H1920 N1917 0.984 . S
H1921 N1917 0.985 . S
H1922 N1916 0.984 . S
H1923 N1916 0.984 . S
H1924 N1912 0.984 . S
H1925 N1912 0.985 . S
C1926 C1927 1.363 . S
C1926 C1932 1.379 . S
C1926 N1934 1.356 . S
C1927 C1926 1.363 . S
C1927 C1933 1.363 1_565 S
C1928 C1929 1.363 1_545 S
C1928 C1933 1.379 . S
C1928 N1935 1.356 . S
C1929 C1928 1.363 1_565 S
C1929 C1932 1.363 . S
N1930 C1932 1.356 . S
N1930 H1942 0.984 . S
N1930 H1943 0.985 . S
N1931 C1933 1.356 . S
N1931 H1936 0.984 . S
N1931 H1937 0.985 . S
C1932 C1926 1.379 . S
C1932 C1929 1.363 . S
C1932 N1930 1.356 . S
C1933 C1927 1.363 1_545 S
C1933 C1928 1.379 . S
C1933 N1931 1.356 . S
N1934 C1926 1.356 . S
N1934 H1940 0.984 . S
N1934 H1941 0.984 . S
N1935 C1928 1.356 . S
N1935 H1938 0.984 . S
N1935 H1939 0.985 . S
H1936 N1931 0.984 . S
H1937 N1931 0.985 . S
H1938 N1935 0.984 . S
H1939 N1935 0.985 . S
H1940 N1934 0.984 . S
H1941 N1934 0.984 . S
H1942 N1930 0.984 . S
H1943 N1930 0.985 . S
C1944 C1945 1.363 1_545 S
C1944 C1950 1.379 . S
C1944 N1952 1.356 . S
C1945 C1944 1.363 1_565 S
C1945 C1951 1.363 . S
C1946 C1947 1.384 . S
C1946 C1951 1.379 . S
C1946 N1953 1.356 . S
C1947 C1946 1.384 . S
C1947 C1950 1.356 1_565 S
N1948 C1950 1.356 . S
N1948 H1960 0.984 . S
N1948 H1961 0.985 . S
N1949 C1951 1.356 . S
N1949 H1954 0.984 . S
N1949 H1955 0.985 . S
C1950 C1944 1.379 . S
C1950 C1947 1.356 1_545 S
C1950 N1948 1.356 . S
C1951 C1945 1.363 . S
C1951 C1946 1.379 . S
C1951 N1949 1.356 . S
N1952 C1944 1.356 . S
N1952 H1958 0.984 . S
N1952 H1959 0.984 . S
N1953 C1946 1.356 . S
N1953 H1956 0.984 . S
N1953 H1957 0.985 . S
H1954 N1949 0.984 . S
H1955 N1949 0.985 . S
H1956 N1953 0.984 . S
H1957 N1953 0.985 . S
H1958 N1952 0.984 . S
H1959 N1952 0.984 . S
H1960 N1948 0.984 . S
H1961 N1948 0.985 . S
C1962 C1963 1.363 . S
C1962 C1968 1.379 . S
C1962 N1970 1.356 . S
C1963 C1962 1.363 . S
C1963 C1969 1.363 . S
C1964 C1965 1.363 . S
C1964 C1969 1.379 . S
C1964 N1971 1.356 1_455 S
C1965 C1964 1.363 . S
C1965 C1968 1.363 . S
N1966 C1968 1.356 . S
N1966 H1978 0.984 . S
N1966 H1979 0.997 1_455 S
N1967 C1969 1.356 . S
N1967 H1972 0.984 . S
N1967 H1973 0.985 . S
C1968 C1962 1.379 . S
C1968 C1965 1.363 . S
C1968 N1966 1.356 . S
C1969 C1963 1.363 . S
C1969 C1964 1.379 . S
C1969 N1967 1.356 . S
N1970 C1962 1.356 . S
N1970 H1976 0.984 . S
N1970 H1977 0.984 . S
N1971 C1964 1.356 1_655 S
N1971 H1974 0.984 . S
N1971 H1975 0.985 . S
H1972 N1967 0.984 . S
H1973 N1967 0.985 . S
H1974 N1971 0.984 . S
H1975 N1971 0.985 . S
H1976 N1970 0.984 . S
H1977 N1970 0.984 . S
H1978 N1966 0.984 . S
H1979 N1966 0.997 1_655 S
C1980 C1981 1.363 . S
C1980 C1986 1.379 . S
C1980 N1988 1.356 . S
C1981 C1980 1.363 . S
C1981 C1987 1.363 . S
C1982 C1983 1.363 . S
C1982 C1987 1.379 . S
C1982 N1989 1.356 . S
C1983 C1982 1.363 . S
C1983 C1986 1.363 . S
N1984 C1986 1.356 . S
N1984 H1996 0.984 . S
N1984 H1997 0.985 . S
N1985 C1987 1.356 . S
N1985 H1990 0.984 . S
N1985 H1991 0.985 . S
C1986 C1980 1.379 . S
C1986 C1983 1.363 . S
C1986 N1984 1.356 . S
C1987 C1981 1.363 . S
C1987 C1982 1.379 . S
C1987 N1985 1.356 . S
N1988 C1980 1.356 . S
N1988 H1994 0.984 . S
N1988 H1995 0.984 . S
N1989 C1982 1.356 . S
N1989 H1992 0.984 . S
N1989 H1993 0.985 . S
H1990 N1985 0.984 . S
H1991 N1985 0.985 . S
H1992 N1989 0.984 . S
H1993 N1989 0.985 . S
H1994 N1988 0.984 . S
H1995 N1988 0.984 . S
H1996 N1984 0.984 . S
H1997 N1984 0.985 . S
C1998 C1999 1.363 . S
C1998 C2004 1.379 . S
C1998 N2006 1.356 . S
C1999 C1998 1.363 . S
C1999 C2005 1.363 . S
C2000 C2001 1.363 . S
C2000 C2005 1.379 . S
C2000 N2007 1.356 . S
C2001 C2000 1.363 . S
C2001 C2004 1.363 . S
N2002 C2004 1.356 . S
N2002 H2014 0.984 . S
N2002 H2015 0.985 . S
N2003 C2005 1.356 . S
N2003 H2008 0.984 . S
N2003 H2009 0.985 . S
C2004 C1998 1.379 . S
C2004 C2001 1.363 . S
C2004 N2002 1.356 . S
C2005 C1999 1.363 . S
C2005 C2000 1.379 . S
C2005 N2003 1.356 . S
N2006 C1998 1.356 . S
N2006 H2012 0.984 . S
N2006 H2013 0.984 . S
N2007 C2000 1.356 . S
N2007 H2010 0.984 . S
N2007 H2011 0.985 . S
H2008 N2003 0.984 . S
H2009 N2003 0.985 . S
H2010 N2007 0.984 . S
H2011 N2007 0.985 . S
H2012 N2006 0.984 . S
H2013 N2006 0.984 . S
H2014 N2002 0.984 . S
H2015 N2002 0.985 . S
C2016 C2017 1.363 . S
C2016 C2022 1.379 . S
C2016 N2024 1.356 . S
C2017 C2016 1.363 . S
C2017 C2023 1.363 . S
C2018 C2019 1.363 . S
C2018 C2023 1.379 . S
C2018 N2025 1.356 . S
C2019 C2018 1.363 . S
C2019 C2022 1.363 . S
N2020 C2022 1.356 . S
N2020 H2032 0.984 . S
N2020 H2033 0.985 . S
N2021 C2023 1.356 . S
N2021 H2026 0.984 . S
N2021 H2027 0.985 . S
C2022 C2016 1.379 . S
C2022 C2019 1.363 . S
C2022 N2020 1.356 . S
C2023 C2017 1.363 . S
C2023 C2018 1.379 . S
C2023 N2021 1.356 . S
N2024 C2016 1.356 . S
N2024 H2030 0.984 . S
N2024 H2031 0.984 . S
N2025 C2018 1.356 . S
N2025 H2028 0.984 . S
N2025 H2029 0.985 . S
H2026 N2021 0.984 . S
H2027 N2021 0.985 . S
H2028 N2025 0.984 . S
H2029 N2025 0.985 . S
H2030 N2024 0.984 . S
H2031 N2024 0.984 . S
H2032 N2020 0.984 . S
H2033 N2020 0.985 . S
C2034 C2035 1.363 . S
C2034 C2040 1.379 . S
C2034 N2042 1.356 . S
C2035 C2034 1.363 . S
C2035 C2041 1.363 . S
C2036 C2037 1.363 . S
C2036 C2041 1.379 . S
C2036 N2043 1.356 . S
C2037 C2036 1.363 . S
C2037 C2040 1.363 . S
N2038 C2040 1.356 . S
N2038 H2050 0.984 . S
N2038 H2051 0.985 . S
N2039 C2041 1.356 . S
N2039 H2044 0.984 . S
N2039 H2045 0.985 . S
C2040 C2034 1.379 . S
C2040 C2037 1.363 . S
C2040 N2038 1.356 . S
C2041 C2035 1.363 . S
C2041 C2036 1.379 . S
C2041 N2039 1.356 . S
N2042 C2034 1.356 . S
N2042 H2048 0.984 . S
N2042 H2049 0.984 . S
N2043 C2036 1.356 . S
N2043 H2046 0.984 . S
N2043 H2047 0.985 . S
H2044 N2039 0.984 . S
H2045 N2039 0.985 . S
H2046 N2043 0.984 . S
H2047 N2043 0.985 . S
H2048 N2042 0.984 . S
H2049 N2042 0.984 . S
H2050 N2038 0.984 . S
H2051 N2038 0.985 . S
C2052 C2053 1.363 1_565 S
C2052 C2058 1.379 . S
C2052 N2060 1.356 . S
C2053 C2052 1.363 1_545 S
C2053 C2059 1.363 . S
C2054 C2055 1.363 . S
C2054 C2059 1.379 . S
C2054 N2061 1.356 . S
C2055 C2054 1.363 . S
C2055 C2058 1.363 1_545 S
N2056 C2058 1.356 . S
N2056 H2068 0.984 . S
N2056 H2069 0.985 . S
N2057 C2059 1.356 . S
N2057 H2062 0.984 . S
N2057 H2063 0.985 . S
C2058 C2052 1.379 . S
C2058 C2055 1.363 1_565 S
C2058 N2056 1.356 . S
C2059 C2053 1.363 . S
C2059 C2054 1.379 . S
C2059 N2057 1.356 . S
N2060 C2052 1.356 . S
N2060 H2066 0.984 . S
N2060 H2067 0.984 . S
N2061 C2054 1.356 . S
N2061 H2064 0.984 . S
N2061 H2065 0.985 . S
H2062 N2057 0.984 . S
H2063 N2057 0.985 . S
H2064 N2061 0.984 . S
H2065 N2061 0.985 . S
H2066 N2060 0.984 . S
H2067 N2060 0.984 . S
H2068 N2056 0.984 . S
H2069 N2056 0.985 . S
C2070 C2071 1.363 1_455 S
C2070 C2076 1.379 . S
C2070 N2078 1.356 . S
C2071 C2070 1.363 1_655 S
C2071 C2077 1.363 . S
C2072 C2073 1.363 . S
C2072 C2077 1.379 . S
C2072 N2079 1.356 . S
C2073 C2072 1.363 . S
C2073 C2076 1.363 1_655 S
N2074 C2076 1.356 . S
N2074 H2086 0.984 . S
N2074 H2087 0.985 . S
N2075 C2077 1.356 . S
N2075 H2080 0.984 . S
N2075 H2081 0.985 . S
C2076 C2070 1.379 . S
C2076 C2073 1.363 1_455 S
C2076 N2074 1.356 . S
C2077 C2071 1.363 . S
C2077 C2072 1.379 . S
C2077 N2075 1.356 . S
N2078 C2070 1.356 . S
N2078 H2084 0.984 . S
N2078 H2085 0.984 . S
N2079 C2072 1.356 . S
N2079 H2082 0.984 . S
N2079 H2083 0.985 . S
H2080 N2075 0.984 . S
H2081 N2075 0.985 . S
H2082 N2079 0.984 . S
H2083 N2079 0.985 . S
H2084 N2078 0.984 . S
H2085 N2078 0.984 . S
H2086 N2074 0.984 . S
H2087 N2074 0.985 . S
C2088 C2089 1.363 . S
C2088 C2094 1.379 . S
C2088 N2096 1.356 . S
C2089 C2088 1.363 . S
C2089 C2095 1.363 . S
C2090 C2091 1.363 . S
C2090 C2095 1.379 . S
C2090 N2097 1.356 . S
C2091 C2090 1.363 . S
C2091 C2094 1.363 . S
N2092 C2094 1.356 . S
N2092 H2104 0.984 . S
N2092 H2105 0.985 . S
N2093 C2095 1.356 . S
N2093 H2098 0.984 . S
N2093 H2099 0.985 . S
C2094 C2088 1.379 . S
C2094 C2091 1.363 . S
C2094 N2092 1.356 . S
C2095 C2089 1.363 . S
C2095 C2090 1.379 . S
C2095 N2093 1.356 . S
N2096 C2088 1.356 . S
N2096 H2102 0.984 . S
N2096 H2103 0.984 . S
N2097 C2090 1.356 . S
N2097 H2100 0.984 . S
N2097 H2101 0.985 . S
H2098 N2093 0.984 . S
H2099 N2093 0.985 . S
H2100 N2097 0.984 . S
H2101 N2097 0.985 . S
H2102 N2096 0.984 . S
H2103 N2096 0.984 . S
H2104 N2092 0.984 . S
H2105 N2092 0.985 . S
C2106 C2107 1.363 . S
C2106 C2112 1.379 . S
C2106 N2114 1.356 . S
C2107 C2106 1.363 . S
C2107 C2113 1.363 . S
C2108 C2109 1.363 . S
C2108 C2113 1.379 . S
C2108 N2115 1.356 . S
C2109 C2108 1.363 . S
C2109 C2112 1.363 . S
N2110 C2112 1.356 . S
N2110 H2122 0.984 . S
N2110 H2123 0.985 . S
N2111 C2113 1.356 . S
N2111 H2116 0.984 . S
N2111 H2117 0.985 . S
C2112 C2106 1.379 . S
C2112 C2109 1.363 . S
C2112 N2110 1.356 . S
C2113 C2107 1.363 . S
C2113 C2108 1.379 . S
C2113 N2111 1.356 . S
N2114 C2106 1.356 . S
N2114 H2120 0.984 . S
N2114 H2121 0.984 . S
N2115 C2108 1.356 . S
N2115 H2118 0.984 . S
N2115 H2119 0.985 . S
H2116 N2111 0.984 . S
H2117 N2111 0.985 . S
H2118 N2115 0.984 . S
H2119 N2115 0.985 . S
H2120 N2114 0.984 . S
H2121 N2114 0.984 . S
H2122 N2110 0.984 . S
H2123 N2110 0.985 . S
C2124 C2125 1.363 . S
C2124 C2130 1.379 . S
C2124 N2132 1.356 . S
C2125 C2124 1.363 . S
C2125 C2131 1.363 . S
C2126 C2127 1.363 . S
C2126 C2131 1.379 . S
C2126 N2133 1.356 . S
C2127 C2126 1.363 . S
C2127 C2130 1.363 . S
N2128 C2130 1.356 . S
N2128 H2140 0.984 . S
N2128 H2141 0.985 . S
N2129 C2131 1.356 . S
N2129 H2134 0.984 . S
N2129 H2135 0.985 . S
C2130 C2124 1.379 . S
C2130 C2127 1.363 . S
C2130 N2128 1.356 . S
C2131 C2125 1.363 . S
C2131 C2126 1.379 . S
C2131 N2129 1.356 . S
N2132 C2124 1.356 . S
N2132 H2138 0.984 . S
N2132 H2139 0.984 . S
N2133 C2126 1.356 . S
N2133 H2136 0.984 . S
N2133 H2137 0.985 . S
H2134 N2129 0.984 . S
H2135 N2129 0.985 . S
H2136 N2133 0.984 . S
H2137 N2133 0.985 . S
H2138 N2132 0.984 . S
H2139 N2132 0.984 . S
H2140 N2128 0.984 . S
H2141 N2128 0.985 . S
C2142 C2143 1.363 . S
C2142 C2148 1.379 . S
C2142 N2150 1.356 . S
C2143 C2142 1.363 . S
C2143 C2149 1.363 . S
C2144 C2145 1.363 . S
C2144 C2149 1.379 . S
C2144 N2151 1.356 . S
C2145 C2144 1.363 . S
C2145 C2148 1.363 . S
N2146 C2148 1.356 . S
N2146 H2158 0.984 . S
N2146 H2159 0.985 . S
N2147 C2149 1.356 . S
N2147 H2152 0.984 . S
N2147 H2153 0.985 . S
C2148 C2142 1.379 . S
C2148 C2145 1.363 . S
C2148 N2146 1.356 . S
C2149 C2143 1.363 . S
C2149 C2144 1.379 . S
C2149 N2147 1.356 . S
N2150 C2142 1.356 . S
N2150 H2156 0.984 . S
N2150 H2157 0.984 . S
N2151 C2144 1.356 . S
N2151 H2154 0.984 . S
N2151 H2155 0.985 . S
H2152 N2147 0.984 . S
H2153 N2147 0.985 . S
H2154 N2151 0.984 . S
H2155 N2151 0.985 . S
H2156 N2150 0.984 . S
H2157 N2150 0.984 . S
H2158 N2146 0.984 . S
H2159 N2146 0.985 . S
C2160 C2161 1.363 . S
C2160 C2166 1.379 . S
C2160 N2168 1.356 . S
C2161 C2160 1.363 . S
C2161 C2167 1.363 . S
C2162 C2163 1.363 . S
C2162 C2167 1.379 . S
C2162 N2169 1.356 . S
C2163 C2162 1.363 . S
C2163 C2166 1.363 . S
N2164 C2166 1.356 . S
N2164 H2176 0.984 . S
N2164 H2177 0.985 . S
N2165 C2167 1.356 . S
N2165 H2170 0.984 . S
N2165 H2171 0.985 . S
C2166 C2160 1.379 . S
C2166 C2163 1.363 . S
C2166 N2164 1.356 . S
C2167 C2161 1.363 . S
C2167 C2162 1.379 . S
C2167 N2165 1.356 . S
N2168 C2160 1.356 . S
N2168 H2174 0.984 . S
N2168 H2175 0.984 . S
N2169 C2162 1.356 . S
N2169 H2172 0.984 . S
N2169 H2173 0.985 . S
H2170 N2165 0.984 . S
H2171 N2165 0.985 . S
H2172 N2169 0.984 . S
H2173 N2169 0.985 . S
H2174 N2168 0.984 . S
H2175 N2168 0.984 . S
H2176 N2164 0.984 . S
H2177 N2164 0.985 . S
C2178 C2179 1.363 . S
C2178 C2184 1.379 . S
C2178 N2186 1.356 . S
C2179 C2178 1.363 . S
C2179 C2185 1.363 . S
C2180 C2181 1.363 . S
C2180 C2185 1.379 . S
C2180 N2187 1.356 . S
C2181 C2180 1.363 . S
C2181 C2184 1.363 . S
N2182 C2184 1.356 . S
N2182 H2194 0.984 . S
N2182 H2195 0.985 . S
N2183 C2185 1.356 . S
N2183 H2188 0.984 . S
N2183 H2189 0.985 . S
C2184 C2178 1.379 . S
C2184 C2181 1.363 . S
C2184 N2182 1.356 . S
C2185 C2179 1.363 . S
C2185 C2180 1.379 . S
C2185 N2183 1.356 . S
N2186 C2178 1.356 . S
N2186 H2192 0.984 . S
N2186 H2193 0.984 . S
N2187 C2180 1.356 . S
N2187 H2190 0.984 . S
N2187 H2191 0.985 . S
H2188 N2183 0.984 . S
H2189 N2183 0.985 . S
H2190 N2187 0.984 . S
H2191 N2187 0.985 . S
H2192 N2186 0.984 . S
H2193 N2186 0.984 . S
H2194 N2182 0.984 . S
H2195 N2182 0.985 . S
C2196 C2197 1.363 . S
C2196 C2202 1.379 . S
C2196 N2204 1.356 . S
C2197 C2196 1.363 . S
C2197 C2203 1.363 . S
C2198 C2199 1.363 . S
C2198 C2203 1.379 . S
C2198 N2205 1.356 . S
C2199 C2198 1.363 . S
C2199 C2202 1.363 . S
N2200 C2202 1.356 . S
N2200 H2212 0.984 . S
N2200 H2213 0.985 . S
N2201 C2203 1.356 . S
N2201 H2206 0.984 . S
N2201 H2207 0.985 . S
C2202 C2196 1.379 . S
C2202 C2199 1.363 . S
C2202 N2200 1.356 . S
C2203 C2197 1.363 . S
C2203 C2198 1.379 . S
C2203 N2201 1.356 . S
N2204 C2196 1.356 . S
N2204 H2210 0.984 . S
N2204 H2211 0.984 . S
N2205 C2198 1.356 . S
N2205 H2208 0.984 . S
N2205 H2209 0.985 . S
H2206 N2201 0.984 . S
H2207 N2201 0.985 . S
H2208 N2205 0.984 . S
H2209 N2205 0.985 . S
H2210 N2204 0.984 . S
H2211 N2204 0.984 . S
H2212 N2200 0.984 . S
H2213 N2200 0.985 . S
C2214 C2215 1.363 1_455 S
C2214 C2220 1.379 . S
C2214 N2222 1.356 . S
C2215 C2214 1.363 1_655 S
C2215 C2221 1.363 . S
C2216 C2217 1.363 . S
C2216 C2221 1.379 . S
C2216 N2223 1.356 . S
C2217 C2216 1.363 . S
C2217 C2220 1.363 1_655 S
N2218 C2220 1.356 . S
N2218 H2230 0.984 . S
N2218 H2231 0.985 . S
N2219 C2221 1.356 . S
N2219 H2224 0.984 . S
N2219 H2225 0.985 . S
C2220 C2214 1.379 . S
C2220 C2217 1.363 1_455 S
C2220 N2218 1.356 . S
C2221 C2215 1.363 . S
C2221 C2216 1.379 . S
C2221 N2219 1.356 . S
N2222 C2214 1.356 . S
N2222 H2228 0.984 . S
N2222 H2229 0.984 . S
N2223 C2216 1.356 . S
N2223 H2226 0.984 . S
N2223 H2227 0.985 . S
H2224 N2219 0.984 . S
H2225 N2219 0.985 . S
H2226 N2223 0.984 . S
H2227 N2223 0.985 . S
H2228 N2222 0.984 . S
H2229 N2222 0.984 . S
H2230 N2218 0.984 . S
H2231 N2218 0.985 . S
C2232 C2233 1.363 . S
C2232 C2238 1.379 . S
C2232 N2240 1.356 . S
C2233 C2232 1.363 . S
C2233 C2239 1.363 . S
C2234 C2235 1.363 . S
C2234 C2239 1.379 . S
C2234 N2241 1.356 . S
C2235 C2234 1.363 . S
C2235 C2238 1.363 . S
N2236 C2238 1.356 . S
N2236 H2248 0.984 . S
N2236 H2249 0.985 . S
N2237 C2239 1.356 . S
N2237 H2242 0.984 . S
N2237 H2243 0.985 . S
C2238 C2232 1.379 . S
C2238 C2235 1.363 . S
C2238 N2236 1.356 . S
C2239 C2233 1.363 . S
C2239 C2234 1.379 . S
C2239 N2237 1.356 . S
N2240 C2232 1.356 . S
N2240 H2246 0.984 . S
N2240 H2247 0.984 . S
N2241 C2234 1.356 . S
N2241 H2244 0.984 . S
N2241 H2245 0.985 . S
H2242 N2237 0.984 . S
H2243 N2237 0.985 . S
H2244 N2241 0.984 . S
H2245 N2241 0.985 . S
H2246 N2240 0.984 . S
H2247 N2240 0.984 . S
H2248 N2236 0.984 . S
H2249 N2236 0.985 . S
C2250 C2251 1.363 . S
C2250 C2256 1.379 . S
C2250 N2258 1.356 . S
C2251 C2250 1.363 . S
C2251 C2257 1.363 1_545 S
C2252 C2253 1.356 1_565 S
C2252 C2257 1.379 . S
C2252 N2259 1.356 . S
C2253 C2252 1.356 1_545 S
C2253 C2256 1.365 . S
N2254 C2256 1.356 . S
N2254 H2266 0.984 . S
N2254 H2267 0.985 . S
N2255 C2257 1.356 . S
N2255 H2260 0.984 . S
N2255 H2261 0.985 . S
C2256 C2250 1.379 . S
C2256 C2253 1.365 . S
C2256 N2254 1.356 . S
C2257 C2251 1.363 1_565 S
C2257 C2252 1.379 . S
C2257 N2255 1.356 . S
N2258 C2250 1.356 . S
N2258 H2264 0.984 . S
N2258 H2265 0.984 . S
N2259 C2252 1.356 . S
N2259 H2262 0.984 . S
N2259 H2263 0.985 . S
H2260 N2255 0.984 . S
H2261 N2255 0.985 . S
H2262 N2259 0.984 . S
H2263 N2259 0.985 . S
H2264 N2258 0.984 . S
H2265 N2258 0.984 . S
H2266 N2254 0.984 . S
H2267 N2254 0.985 . S
C973 C4 1.490 1_655 S
C975 C817 1.495 . S
C991 C38 1.676 . S
C993 C842 1.654 . S
C1011 C853 1.521 . S
C1009 C74 1.517 . S
C1027 C76 1.515 . S
C1029 C878 1.491 . S
C1045 C2 1.600 . S
C1047 C896 1.610 . S
C1063 C40 1.533 . S
C1065 C907 1.504 . S
C1081 C110 1.565 . S
C1083 C889 1.591 1_455 S
C1101 C914 1.479 . S
C1099 C148 1.490 . S
C1119 C871 1.559 1_565 S
C1117 C182 1.551 . S
C1135 C184 1.525 . S
C1137 C860 1.543 1_545 S
C1155 C824 1.487 . S
C1153 C112 1.473 1_655 S
C1171 C146 1.588 . S
C1173 C835 1.583 . S
C1189 C220 1.583 . S
C1191 C925 1.552 . S
C1207 C254 1.714 . S
C1209 C950 1.685 . S
C1227 C961 1.577 . S
C1225 C290 1.614 . S
C1243 C292 1.548 . S
C1245 C662 1.526 . S
C1261 C218 1.662 . S
C1263 C680 1.647 . S
C1279 C256 1.544 . S
C1281 C691 1.513 . S
C1297 C326 1.612 . S
C1299 C673 1.608 . S
C1315 C364 1.516 . S
C1317 C698 1.504 . S
C1335 C655 1.602 . S
C1333 C398 1.602 . S
C1353 C968 1.566 . S
C1351 C400 1.574 . S
C1371 C932 1.477 . S
C1369 C328 1.485 . S
C1389 C943 1.613 . S
C1387 C362 1.620 . S
C1405 C436 1.557 . S
C1407 C709 1.527 . S
C1423 C470 1.700 . S
C1425 C734 1.675 . S
C1441 C506 1.612 . S
C1443 C745 1.579 . S
C1459 C508 1.573 . S
C1461 C770 1.551 . S
C1479 C788 1.647 . S
C1477 C434 1.665 . S
C1497 C799 1.526 . S
C1495 C472 1.559 . S
C1515 C781 1.637 . S
C1513 C542 1.643 . S
C1533 C806 1.507 . S
C1531 C580 1.522 . S
C1549 C614 1.596 . S
C1551 C763 1.593 . S
C1569 C752 1.536 . S
C1567 C616 1.543 . S
C1585 C544 1.489 . S
C1587 C716 1.483 . S
C1605 C727 1.597 . S
C1603 C578 1.600 . S
C1623 C664 1.465 . S
C1621 C14 1.494 . S
C1639 C39 1.487 . S
C1641 C682 1.416 . S
C1659 C692 1.385 . S
C1657 C75 1.471 . S
C1677 C710 1.352 . S
C1675 C86 1.383 . S
C1695 C736 1.439 . S
C1693 C3 1.505 . S
C1713 C746 1.428 . S
C1711 C50 1.459 . S
C1729 C111 1.533 . S
C1731 C754 1.422 . S
C1747 C158 1.472 . S
C1749 C718 1.381 . S
C1765 C183 1.601 . S
C1767 C728 1.520 . S
C1783 C194 1.533 . S
C1785 C674 1.489 . S
C1803 C700 1.393 . S
C1801 C122 1.478 . S
C1819 C147 1.471 . S
C1821 C656 1.385 . S
C1839 C772 1.443 . S
C1837 C230 1.479 . S
C1855 C255 1.536 . S
C1857 C790 1.463 . S
C1873 C291 1.490 . S
C1875 C800 1.399 . S
C1893 C818 1.330 . S
C1891 C302 1.340 . S
C1909 C219 1.503 . S
C1911 C844 1.433 . S
C1927 C266 1.406 . S
C1929 C854 1.418 . S
C1945 C327 1.435 . S
C1947 C862 1.344 . S
C1963 C374 1.410 . S
C1965 C826 1.356 . S
C1983 C836 1.504 . S
C1981 C399 1.588 . S
C1999 C410 1.525 . S
C2001 C782 1.474 . S
C2017 C338 1.505 . S
C2019 C808 1.422 . S
C2037 C764 1.427 . S
C2035 C363 1.515 . S
C2055 C880 1.405 . S
C2053 C446 1.410 . S
C2071 C471 1.467 . S
C2073 C898 1.396 . S
C2089 C507 1.459 . S
C2091 C908 1.372 . S
C2109 C926 1.343 . S
C2107 C518 1.387 . S
C2127 C952 1.466 . S
C2125 C435 1.540 . S
C2143 C482 1.491 . S
C2145 C962 1.470 . S
C2161 C543 1.509 . S
C2163 C970 1.393 . S
C2179 C590 1.505 . S
C2181 C934 1.424 . S
C2199 C944 1.525 . S
C2197 C615 1.615 . S
C2217 C890 1.402 1_655 S
C2215 C626 1.428 . S
C2235 C916 1.404 . S
C2233 C554 1.485 . S
C2251 C579 1.432 . S
C2253 C872 1.365 1_545 S
