# Generated by pormake.
# Topology pyr, (3,6)-cn, num edge types: 1
# Building blocks:
#     Node 0, Type 0, BuildingBlock: BELTOD_clean_linker_0, # of connection points: 3
#     Node 1, Type 0, BuildingBlock: BELTOD_clean_linker_0, # of connection points: 3
#     Node 2, Type 0, BuildingBlock: BELTOD_clean_linker_0, # of connection points: 3
#     Node 3, Type 0, BuildingBlock: BELTOD_clean_linker_0, # of connection points: 3
#     Node 4, Type 0, BuildingBlock: BELTOD_clean_linker_0, # of connection points: 3
#     Node 5, Type 0, BuildingBlock: BELTOD_clean_linker_0, # of connection points: 3
#     Node 6, Type 0, BuildingBlock: BELTOD_clean_linker_0, # of connection points: 3
#     Node 7, Type 0, BuildingBlock: BELTOD_clean_linker_0, # of connection points: 3
#     Node 8, Type 1, BuildingBlock: BETDIP_clean_sbu_0, # of connection points: 6
#     Node 9, Type 1, BuildingBlock: BETDIP_clean_sbu_0, # of connection points: 6
#     Node 10, Type 1, BuildingBlock: BETDIP_clean_sbu_0, # of connection points: 6
#     Node 11, Type 1, BuildingBlock: BETDIP_clean_sbu_0, # of connection points: 6
#     Edge 12, Type (0, 1), BuildingBlock: XUDNAN_clean_linker_2, # of connection points: 2
#     Edge 13, Type (0, 1), BuildingBlock: XUDNAN_clean_linker_2, # of connection points: 2
#     Edge 14, Type (0, 1), BuildingBlock: XUDNAN_clean_linker_2, # of connection points: 2
#     Edge 15, Type (0, 1), BuildingBlock: XUDNAN_clean_linker_2, # of connection points: 2
#     Edge 16, Type (0, 1), BuildingBlock: XUDNAN_clean_linker_2, # of connection points: 2
#     Edge 17, Type (0, 1), BuildingBlock: XUDNAN_clean_linker_2, # of connection points: 2
#     Edge 18, Type (0, 1), BuildingBlock: XUDNAN_clean_linker_2, # of connection points: 2
#     Edge 19, Type (0, 1), BuildingBlock: XUDNAN_clean_linker_2, # of connection points: 2
#     Edge 20, Type (0, 1), BuildingBlock: XUDNAN_clean_linker_2, # of connection points: 2
#     Edge 21, Type (0, 1), BuildingBlock: XUDNAN_clean_linker_2, # of connection points: 2
#     Edge 22, Type (0, 1), BuildingBlock: XUDNAN_clean_linker_2, # of connection points: 2
#     Edge 23, Type (0, 1), BuildingBlock: XUDNAN_clean_linker_2, # of connection points: 2
#     Edge 24, Type (0, 1), BuildingBlock: XUDNAN_clean_linker_2, # of connection points: 2
#     Edge 25, Type (0, 1), BuildingBlock: XUDNAN_clean_linker_2, # of connection points: 2
#     Edge 26, Type (0, 1), BuildingBlock: XUDNAN_clean_linker_2, # of connection points: 2
#     Edge 27, Type (0, 1), BuildingBlock: XUDNAN_clean_linker_2, # of connection points: 2
#     Edge 28, Type (0, 1), BuildingBlock: XUDNAN_clean_linker_2, # of connection points: 2
#     Edge 29, Type (0, 1), BuildingBlock: XUDNAN_clean_linker_2, # of connection points: 2
#     Edge 30, Type (0, 1), BuildingBlock: XUDNAN_clean_linker_2, # of connection points: 2
#     Edge 31, Type (0, 1), BuildingBlock: XUDNAN_clean_linker_2, # of connection points: 2
#     Edge 32, Type (0, 1), BuildingBlock: XUDNAN_clean_linker_2, # of connection points: 2
#     Edge 33, Type (0, 1), BuildingBlock: XUDNAN_clean_linker_2, # of connection points: 2
#     Edge 34, Type (0, 1), BuildingBlock: XUDNAN_clean_linker_2, # of connection points: 2
#     Edge 35, Type (0, 1), BuildingBlock: XUDNAN_clean_linker_2, # of connection points: 2
# Relax obj value: 0.129
# Max RMSD: 0.191
# Mean RMSD: 0.088
data_MOF--net-pyr--node1-BETDIP_clean_sbu_0--node2-BELTOD_clean_linker_0--edge1-XUDNAN_clean_linker_2
_symmetry_space_group_name_H-M    P1
_symmetry_Int_Tables_number       1
_symmetry_cell_setting            triclinic
loop_
_symmetry_equiv_pos_as_xyz
'x, y, z'
_cell_length_a     40.258785
_cell_length_b     44.476552
_cell_length_c     43.187634
_cell_angle_alpha  88.947444
_cell_angle_beta   92.746214
_cell_angle_gamma 103.88385
loop_
_atom_site_label
_atom_site_type_symbol
_atom_site_fract_x
_atom_site_fract_y
_atom_site_fract_z
_atom_type_partial_charge
P0 P 0.3983 0.31302 0.26885 0.0
H1 H 0.45994 0.32444 0.23268 0.0
H2 H 0.48674 0.28988 0.20442 0.0
H3 H 0.40626 0.2117 0.23092 0.0
H4 H 0.37925 0.24633 0.25797 0.0
H5 H 0.38025 0.37278 0.26231 0.0
H6 H 0.33732 0.39046 0.22959 0.0
H7 H 0.30563 0.2998 0.18806 0.0
H8 H 0.34895 0.28251 0.22046 0.0
H9 H 0.424 0.28037 0.31983 0.0
H10 H 0.32678 0.29747 0.28844 0.0
O11 O 0.42847 0.34305 0.28243 0.0
H12 H 0.39544 0.24461 0.35946 0.0
H13 H 0.29817 0.26172 0.32777 0.0
C14 C 0.41804 0.28786 0.2479 0.0
C15 C 0.44818 0.29984 0.23236 0.0
C16 C 0.46352 0.28005 0.21636 0.0
C17 C 0.44874 0.24798 0.21553 0.0
C18 C 0.41817 0.23627 0.23078 0.0
C19 C 0.40286 0.25605 0.24659 0.0
C20 C 0.36823 0.32655 0.24336 0.0
C21 C 0.36435 0.35685 0.24587 0.0
C22 C 0.33961 0.36684 0.22733 0.0
C23 C 0.31812 0.34655 0.20614 0.0
C24 C 0.32217 0.31616 0.20372 0.0
C25 C 0.34692 0.30622 0.22229 0.0
C26 C 0.37755 0.29141 0.3011 0.0
C27 C 0.39661 0.27681 0.32181 0.0
C28 C 0.38025 0.25624 0.34426 0.0
C29 C 0.34454 0.25017 0.34651 0.0
C30 C 0.32574 0.26607 0.3267 0.0
C31 C 0.34211 0.28647 0.30409 0.0
P32 P 0.19053 0.81238 0.69884 0.0
H33 H 0.25498 0.85006 0.72384 0.0
H34 H 0.27827 0.86198 0.77652 0.0
H35 H 0.18867 0.80008 0.81275 0.0
H36 H 0.16525 0.78815 0.75948 0.0
H37 H 0.1974 0.79578 0.63528 0.0
H38 H 0.2202 0.75558 0.61253 0.0
H39 H 0.231 0.71615 0.70357 0.0
H40 H 0.20809 0.75659 0.72626 0.0
H41 H 0.14786 0.84376 0.73256 0.0
H42 H 0.13487 0.77984 0.65649 0.0
O43 O 0.20908 0.84316 0.67781 0.0
H44 H 0.09335 0.85574 0.71741 0.0
H45 H 0.08059 0.79223 0.641 0.0
C46 C 0.20799 0.81893 0.73789 0.0
C47 C 0.24024 0.83906 0.74304 0.0
C48 C 0.25354 0.84586 0.77315 0.0
C49 C 0.23499 0.83232 0.79865 0.0
C50 C 0.2034 0.81088 0.79344 0.0
C51 C 0.18995 0.80422 0.76315 0.0
C52 C 0.20153 0.77941 0.68245 0.0
C53 C 0.20408 0.77815 0.6503 0.0
C54 C 0.21692 0.75503 0.63729 0.0
C55 C 0.22758 0.73282 0.6563 0.0
C56 C 0.22332 0.7332 0.68842 0.0
C57 C 0.21018 0.75626 0.7014 0.0
C58 C 0.14546 0.81075 0.6958 0.0
C59 C 0.13254 0.8311 0.71356 0.0
C60 C 0.10128 0.83794 0.70491 0.0
C61 C 0.08291 0.82501 0.67795 0.0
C62 C 0.0943 0.80244 0.66192 0.0
C63 C 0.12541 0.79539 0.67078 0.0
P64 P 0.66862 0.35239 0.83876 0.0
H65 H 0.73895 0.34996 0.85667 0.0
H66 H 0.78207 0.37908 0.89344 0.0
H67 H 0.71159 0.43317 0.91825 0.0
H68 H 0.66833 0.40386 0.88095 0.0
H69 H 0.63266 0.2903 0.81876 0.0
H70 H 0.6077 0.243 0.84742 0.0
H71 H 0.61951 0.2953 0.93204 0.0
H72 H 0.64491 0.34273 0.90324 0.0
H73 H 0.69548 0.41182 0.80935 0.0
H74 H 0.59797 0.34559 0.81114 0.0
O75 O 0.69014 0.33633 0.81432 0.0
H76 H 0.67373 0.43955 0.76666 0.0
H77 H 0.57573 0.37395 0.76846 0.0
C78 C 0.70047 0.37496 0.86571 0.0
C79 C 0.73278 0.36831 0.86969 0.0
C80 C 0.75757 0.3851 0.8907 0.0
C81 C 0.75047 0.40867 0.90867 0.0
C82 C 0.7179 0.41514 0.90483 0.0
C83 C 0.69317 0.39849 0.88347 0.0
C84 C 0.64119 0.32014 0.85878 0.0
C85 C 0.62927 0.29184 0.84336 0.0
C86 C 0.61516 0.2647 0.85983 0.0
C87 C 0.61214 0.26524 0.89214 0.0
C88 C 0.62152 0.29406 0.9072 0.0
C89 C 0.63607 0.32125 0.89069 0.0
C90 C 0.64823 0.37692 0.81408 0.0
C91 C 0.66895 0.40384 0.80137 0.0
C92 C 0.65657 0.41961 0.77674 0.0
C93 C 0.62302 0.40898 0.76419 0.0
C94 C 0.60158 0.38288 0.77788 0.0
C95 C 0.61424 0.36673 0.80237 0.0
P96 P 0.84984 0.71553 0.32371 0.0
H97 H 0.8785 0.77671 0.29744 0.0
H98 H 0.90653 0.82667 0.3199 0.0
H99 H 0.90537 0.78428 0.41077 0.0
H100 H 0.87643 0.73403 0.3879 0.0
H101 H 0.83357 0.6517 0.29934 0.0
H102 H 0.85951 0.62724 0.2595 0.0
H103 H 0.94248 0.7088 0.25553 0.0
H104 H 0.91738 0.73265 0.29618 0.0
H105 H 0.79573 0.73264 0.35498 0.0
H106 H 0.84024 0.65359 0.3561 0.0
O107 O 0.82411 0.72654 0.29666 0.0
H108 H 0.75518 0.70749 0.39304 0.0
H109 H 0.7986 0.6277 0.39412 0.0
C110 C 0.87532 0.75141 0.34081 0.0
C111 C 0.88454 0.77796 0.32216 0.0
C112 C 0.90071 0.80669 0.33516 0.0
C113 C 0.90843 0.80982 0.36732 0.0
C114 C 0.89955 0.783 0.38602 0.0
C115 C 0.88331 0.7541 0.37288 0.0
C116 C 0.87397 0.69376 0.30193 0.0
C117 C 0.85827 0.66376 0.2912 0.0
C118 C 0.87297 0.64982 0.26808 0.0
C119 C 0.90314 0.666 0.25433 0.0
C120 C 0.91933 0.69562 0.26571 0.0
C121 C 0.90502 0.70923 0.28923 0.0
C122 C 0.82086 0.69498 0.35229 0.0
C123 C 0.79666 0.7097 0.36328 0.0
C124 C 0.77343 0.69529 0.38511 0.0
C125 C 0.77353 0.66553 0.39654 0.0
C126 C 0.79764 0.65049 0.38545 0.0
C127 C 0.82146 0.66529 0.36373 0.0
P128 P 0.72686 0.84626 0.86039 0.0
H129 H 0.71875 0.88439 0.91161 0.0
H130 H 0.66928 0.89696 0.93342 0.0
H131 H 0.60236 0.83591 0.86781 0.0
H132 H 0.65268 0.82378 0.84558 0.0
H133 H 0.79355 0.83406 0.87452 0.0
H134 H 0.81184 0.7909 0.8994 0.0
H135 H 0.70637 0.74638 0.91659 0.0
H136 H 0.68819 0.7894 0.89031 0.0
H137 H 0.69221 0.87306 0.81 0.0
H138 H 0.75286 0.80529 0.82029 0.0
O139 O 0.75844 0.87811 0.86509 0.0
H140 H 0.69543 0.8714 0.75368 0.0
H141 H 0.75643 0.80387 0.76417 0.0
C142 C 0.68938 0.85378 0.87656 0.0
C143 C 0.69347 0.87369 0.90187 0.0
C144 C 0.66504 0.88057 0.91455 0.0
C145 C 0.63178 0.8673 0.90245 0.0
C146 C 0.62766 0.84668 0.87745 0.0
C147 C 0.65633 0.83976 0.86475 0.0
C148 C 0.73962 0.81514 0.88105 0.0
C149 C 0.77439 0.81519 0.88397 0.0
C150 C 0.78482 0.7905 0.89842 0.0
C151 C 0.76062 0.76525 0.91043 0.0
C152 C 0.72566 0.76536 0.9075 0.0
C153 C 0.71524 0.79004 0.89271 0.0
C154 C 0.72178 0.83895 0.81941 0.0
C155 C 0.70519 0.85703 0.80015 0.0
C156 C 0.70705 0.85607 0.76796 0.0
C157 C 0.72618 0.83748 0.75461 0.0
C158 C 0.74154 0.8184 0.77389 0.0
C159 C 0.73938 0.81916 0.80603 0.0
P160 P 0.88948 0.33767 0.34884 0.0
H161 H 0.90032 0.357 0.41357 0.0
H162 H 0.86347 0.37256 0.45048 0.0
H163 H 0.78231 0.36153 0.37921 0.0
H164 H 0.81847 0.34463 0.34329 0.0
H165 H 0.95357 0.32226 0.33499 0.0
H166 H 0.98115 0.28186 0.35445 0.0
H167 H 0.90165 0.25302 0.42011 0.0
H168 H 0.87365 0.29252 0.39967 0.0
H169 H 0.86259 0.36252 0.29242 0.0
H170 H 0.86126 0.27255 0.33207 0.0
O171 O 0.91787 0.36933 0.33755 0.0
H172 H 0.8262 0.33793 0.24846 0.0
H173 H 0.82701 0.2479 0.28774 0.0
C174 C 0.86202 0.34905 0.37584 0.0
C175 C 0.87443 0.35763 0.40608 0.0
C176 C 0.85339 0.36678 0.42708 0.0
C177 C 0.81971 0.36809 0.41799 0.0
C178 C 0.80772 0.36004 0.38738 0.0
C179 C 0.82862 0.35057 0.36659 0.0
C180 C 0.91212 0.31095 0.36646 0.0
C181 C 0.94246 0.30754 0.35394 0.0
C182 C 0.95819 0.28443 0.3651 0.0
C183 C 0.94365 0.26416 0.38888 0.0
C184 C 0.91336 0.26795 0.40155 0.0
C185 C 0.89758 0.29092 0.39023 0.0
C186 C 0.86501 0.31942 0.31534 0.0
C187 C 0.85498 0.33748 0.29137 0.0
C188 C 0.83427 0.32335 0.2662 0.0
C189 C 0.82347 0.29085 0.26448 0.0
C190 C 0.8341 0.27295 0.28847 0.0
C191 C 0.85424 0.28709 0.31379 0.0
P192 P 0.38457 0.68847 0.22366 0.0
H193 H 0.34266 0.62635 0.20927 0.0
H194 H 0.28868 0.60815 0.17887 0.0
H195 H 0.27716 0.70209 0.17175 0.0
H196 H 0.33083 0.72007 0.202 0.0
H197 H 0.38786 0.74779 0.25591 0.0
H198 H 0.40491 0.80215 0.23867 0.0
H199 H 0.43022 0.77208 0.15011 0.0
H200 H 0.41379 0.71849 0.16761 0.0
H201 H 0.3356 0.66375 0.27227 0.0
H202 H 0.44502 0.68938 0.26428 0.0
O203 O 0.40829 0.66925 0.20497 0.0
H204 H 0.34296 0.63973 0.32265 0.0
H205 H 0.4527 0.66457 0.31426 0.0
C206 C 0.34122 0.67465 0.20752 0.0
C207 C 0.32814 0.64294 0.20168 0.0
C208 C 0.2972 0.63253 0.18436 0.0
C209 C 0.27885 0.65372 0.17241 0.0
C210 C 0.29097 0.68522 0.18009 0.0
C211 C 0.32173 0.69554 0.19753 0.0
C212 C 0.40039 0.72903 0.2134 0.0
C213 C 0.39769 0.75305 0.23303 0.0
C214 C 0.40713 0.78412 0.22295 0.0
C215 C 0.41928 0.79176 0.19296 0.0
C216 C 0.42183 0.76742 0.17354 0.0
C217 C 0.41237 0.73658 0.18358 0.0
C218 C 0.38973 0.67834 0.26429 0.0
C219 C 0.36129 0.66478 0.28158 0.0
C220 C 0.3656 0.65067 0.31038 0.0
C221 C 0.39848 0.64949 0.32253 0.0
C222 C 0.42701 0.665 0.30599 0.0
C223 C 0.42264 0.67924 0.27725 0.0
P224 P 0.17185 0.34339 0.74957 0.0
H225 H 0.19656 0.3058 0.7067 0.0
H226 H 0.17019 0.25973 0.67678 0.0
H227 H 0.07085 0.26368 0.70742 0.0
H228 H 0.0977 0.3107 0.73733 0.0
H229 H 0.24533 0.37292 0.75794 0.0
H230 H 0.28728 0.40314 0.72337 0.0
H231 H 0.20641 0.40333 0.65398 0.0
H232 H 0.16449 0.37315 0.68891 0.0
H233 H 0.1204 0.31684 0.79417 0.0
H234 H 0.17079 0.40844 0.76366 0.0
O235 O 0.19584 0.32702 0.77398 0.0
H236 H 0.09727 0.33892 0.83725 0.0
H237 H 0.14771 0.43083 0.80704 0.0
C238 C 0.1493 0.31182 0.72449 0.0
C239 C 0.16901 0.29714 0.70675 0.0
C240 C 0.15387 0.27054 0.68974 0.0
C241 C 0.11839 0.25757 0.68997 0.0
C242 C 0.09824 0.27302 0.70669 0.0
C243 C 0.11361 0.29986 0.72395 0.0
C244 C 0.20162 0.37062 0.72606 0.0
C245 C 0.23646 0.37972 0.73544 0.0
C246 C 0.26061 0.39679 0.71545 0.0
C247 C 0.25048 0.40545 0.68562 0.0
C248 C 0.21527 0.39727 0.67678 0.0
C249 C 0.19115 0.38005 0.69678 0.0
C250 C 0.14683 0.36082 0.77502 0.0
C251 C 0.12556 0.3418 0.79603 0.0
C252 C 0.11269 0.35451 0.82105 0.0
C253 C 0.12082 0.38675 0.82598 0.0
C254 C 0.14065 0.40597 0.80395 0.0
C255 C 0.1538 0.39312 0.77896 0.0
Tb256 Tb 0.96215 1.02916 0.53064 0.0
Tb257 Tb 0.04185 0.0413 0.5277 0.0
C258 C 0.89859 1.00698 0.52865 0.0
C259 C 0.87462 0.97891 0.53945 0.0
C260 C 0.88563 0.95211 0.54779 0.0
C261 C 0.86343 0.92736 0.56227 0.0
C262 C 0.82995 0.9291 0.56861 0.0
C263 C 0.81867 0.95543 0.55869 0.0
C264 C 0.84084 0.98009 0.54429 0.0
C265 C 0.99984 0.07397 0.56596 0.0
C266 C 1.00245 0.98544 0.5679 0.0
C267 C 0.10422 0.06553 0.53797 0.0
C268 C 0.13332 0.0803 0.51913 0.0
C269 C 0.15392 0.10921 0.52811 0.0
C270 C 0.18077 0.12441 0.50996 0.0
C271 C 0.18765 0.11082 0.48262 0.0
C272 C 0.16724 0.08167 0.47384 0.0
C273 C 0.14016 0.06661 0.49184 0.0
C274 C 1.01073 1.00266 0.483 0.0
C275 C 1.00005 0.08114 0.48631 0.0
O276 O 0.91838 1.00371 0.5063 0.0
O277 O 0.91507 1.02526 0.55069 0.0
O278 O 1.0062 0.04829 0.5601 0.0
O279 O 0.97026 0.07468 0.55303 0.0
O280 O 0.97256 0.99015 0.55769 0.0
O281 O 0.03232 1.00418 0.56172 0.0
O282 O 0.08022 0.0808 0.53941 0.0
O283 O 0.09181 0.0356 0.53454 0.0
O284 O 0.99783 1.01556 0.50339 0.0
O285 O 0.04366 1.01324 0.48635 0.0
O286 O 0.02976 0.07897 0.49963 0.0
O287 O 0.97068 0.06129 0.4919 0.0
H288 H 0.91163 0.95073 0.54409 0.0
H289 H 0.87277 0.90727 0.56935 0.0
H290 H 0.7933 0.95781 0.56362 0.0
H291 H 0.83203 1.0007 0.53812 0.0
H292 H 0.149 0.12018 0.54905 0.0
H293 H 0.19626 0.14675 0.51737 0.0
H294 H 0.17174 0.07085 0.45268 0.0
H295 H 0.12441 0.04447 0.4842 0.0
Tb296 Tb 0.55133 0.04243 0.06451 0.0
Tb297 Tb 0.4768 0.03366 0.04948 0.0
C298 C 0.61426 0.06432 0.07512 0.0
C299 C 0.63558 0.09273 0.0893 0.0
C300 C 0.63024 0.12215 0.08169 0.0
C301 C 0.65025 0.14857 0.09642 0.0
C302 C 0.67543 0.14586 0.11926 0.0
C303 C 0.68071 0.11643 0.1267 0.0
C304 C 0.66106 0.09014 0.11175 0.0
C305 C 0.51245 0.99354 0.09118 0.0
C306 C 0.50859 0.08252 0.0988 0.0
C307 C 0.41343 1.01234 1.0401 0.0
C308 C 0.39124 0.987 1.02211 0.0
C309 C 0.40107 0.95932 1.01697 0.0
C310 C 0.38053 0.9365 0.99787 0.0
C311 C 0.35012 0.94121 0.98346 0.0
C312 C 0.34 0.96861 0.98939 0.0
C313 C 0.36039 0.99128 1.00858 0.0
C314 C 0.51656 0.08179 1.02178 0.0
C315 C 0.51991 0.99389 1.01457 0.0
O316 O 0.5984 0.06732 0.04845 0.0
O317 O 0.59479 0.04541 0.09407 0.0
O318 O 0.50566 1.01978 0.08755 0.0
O319 O 0.54275 0.9949 0.0816 0.0
O320 O 0.53866 0.08045 0.08926 0.0
O321 O 0.47994 0.06305 0.08928 0.0
O322 O 0.43109 1.00443 0.06379 0.0
O323 O 0.43162 0.03486 1.02377 0.0
O324 O 0.52238 0.05536 1.02621 0.0
O325 O 0.48651 0.08138 1.03153 0.0
O326 O 0.48938 0.99719 1.02172 0.0
O327 O 0.54866 1.01176 1.0261 0.0
H328 H 0.61046 0.12472 0.06464 0.0
H329 H 0.64557 0.171 0.09046 0.0
H330 H 0.70021 0.11378 0.14401 0.0
H331 H 0.66552 0.06767 0.11796 0.0
H332 H 0.4249 0.95561 1.02714 0.0
H333 H 0.38908 0.91573 0.99344 0.0
H334 H 0.31652 0.97269 0.97879 0.0
H335 H 0.35243 1.01248 1.01234 0.0
Tb336 Tb 0.51056 0.56346 0.55707 0.0
Tb337 Tb 0.51733 0.50095 0.52871 0.0
C338 C 0.49984 0.61598 0.56452 0.0
C339 C 0.46803 0.62548 0.56952 0.0
C340 C 0.43626 0.60605 0.56041 0.0
C341 C 0.40588 0.61415 0.56664 0.0
C342 C 0.40668 0.6419 0.58203 0.0
C343 C 0.43863 0.6615 0.59079 0.0
C344 C 0.46907 0.65328 0.58462 0.0
C345 C 0.53535 0.52555 0.59443 0.0
C346 C 0.45051 0.50437 0.56383 0.0
C347 C 0.53561 0.45125 0.52362 0.0
C348 C 0.56896 0.4432 0.52421 0.0
C349 C 0.57048 0.41208 0.52398 0.0
C350 C 0.60188 0.4043 0.52117 0.0
C351 C 0.63225 0.42759 0.51833 0.0
C352 C 0.63063 0.45878 0.51978 0.0
C353 C 0.59931 0.46648 0.52279 0.0
C354 C 0.4791 0.52933 0.49162 0.0
C355 C 0.57623 0.5627 0.51849 0.0
O356 O 0.50171 0.60424 0.53721 0.0
O357 O 0.51003 0.59983 0.58715 0.0
O358 O 0.54089 0.53051 0.56604 0.0
O359 O 0.51704 0.54387 0.60347 0.0
O360 O 0.45892 0.53487 0.56036 0.0
O361 O 0.47139 0.48664 0.55667 0.0
O362 O 0.52656 0.46065 0.54987 0.0
O363 O 0.52972 0.46841 0.49993 0.0
O364 O 0.49455 0.53753 0.51707 0.0
O365 O 0.48379 0.50204 0.48638 0.0
O366 O 0.56481 0.5325 0.51334 0.0
O367 O 0.55972 0.57861 0.53536 0.0
H368 H 0.4349 0.58443 0.54874 0.0
H369 H 0.38177 0.59836 0.55994 0.0
H370 H 0.44013 0.68325 0.60227 0.0
H371 H 0.49338 0.6685 0.59184 0.0
H372 H 0.54729 0.3938 0.52518 0.0
H373 H 0.60226 0.38006 0.52065 0.0
H374 H 0.65331 0.47736 0.51724 0.0
H375 H 0.59871 0.49065 0.52297 0.0
Tb376 Tb 1.00972 0.54717 1.01623 0.0
Tb377 Tb 0.01839 0.50443 0.06762 0.0
C378 C 0.98467 0.57887 0.97706 0.0
C379 C 0.95587 0.59392 0.976 0.0
C380 C 0.92431 0.57942 0.98844 0.0
C381 C 0.89695 0.59378 0.98621 0.0
C382 C 0.90087 0.62297 0.97188 0.0
C383 C 0.9327 0.63759 0.96002 0.0
C384 C 0.95991 0.62314 0.96202 0.0
C385 C 0.0725 0.5593 0.04208 0.0
C386 C 0.98558 0.55823 0.08443 0.0
C387 C 0.04139 0.47151 0.10718 0.0
C388 C 0.07105 0.45734 0.11102 0.0
C389 C 0.09951 0.47177 0.12999 0.0
C390 C 0.12734 0.45838 0.13474 0.0
C391 C 0.12717 0.42987 0.12111 0.0
C392 C 0.09869 0.41541 0.10206 0.0
C393 C 0.07092 0.429 0.09705 0.0
C394 C 0.95605 0.49371 0.0414 0.0
C395 C 0.04345 0.49416 0.99946 0.0
O396 O 0.97663 0.54856 0.97773 0.0
O397 O 1.01039 0.59073 0.99628 0.0
O398 O 0.04485 0.55052 0.05596 0.0
O399 O 0.06498 0.5634 1.01301 0.0
O400 O 0.98281 0.56287 0.05403 0.0
O401 O 1.00147 0.53748 0.09595 0.0
O402 O 0.04838 0.50178 0.10798 0.0
O403 O 0.01775 0.46017 0.0858 0.0
O404 O 0.98391 0.50136 1.02804 0.0
O405 O 0.96249 0.48962 0.07064 0.0
O406 O 0.04663 0.48983 1.02993 0.0
O407 O 0.02678 0.51433 0.98796 0.0
H408 H 0.92068 0.55693 0.99963 0.0
H409 H 0.87279 0.58211 0.99573 0.0
H410 H 0.93633 0.6599 0.94847 0.0
H411 H 0.98405 0.63465 0.95232 0.0
H412 H 0.1002 0.49344 0.14135 0.0
H413 H 0.14903 0.47046 0.14914 0.0
H414 H 0.09743 0.39322 0.09157 0.0
H415 H 0.04921 0.41708 0.08258 0.0
H416 H 0.29289 0.25297 0.38486 0.0
H417 H 0.35537 0.19234 0.35601 0.0
H418 H 0.32344 0.15055 0.38924 0.0
H419 H 0.28534 0.22536 0.46491 0.0
H420 H 0.24166 0.22851 0.46662 0.0
H421 H 0.27058 0.25411 0.44172 0.0
H422 H 0.22833 0.23674 0.39464 0.0
H423 H 0.19934 0.21107 0.41936 0.0
H424 H 0.21435 0.19613 0.38557 0.0
H425 H 0.28231 0.11437 0.42285 0.0
H426 H 0.23649 0.08711 0.45664 0.0
H427 H 0.20135 0.1715 0.46394 0.0
C428 C 0.29994 0.23094 0.38568 0.0
C429 C 0.32669 0.22591 0.36799 0.0
C430 C 0.3353 0.19682 0.36976 0.0
C431 C 0.3172 0.17291 0.38841 0.0
C432 C 0.29075 0.17853 0.40532 0.0
C433 C 0.2823 0.20689 0.40435 0.0
C434 C 0.25241 0.20675 0.42437 0.0
C435 C 0.26315 0.23006 0.45098 0.0
C436 C 0.2218 0.21303 0.40481 0.0
C437 C 0.24502 0.17372 0.43635 0.0
C438 C 0.2674 0.15782 0.42508 0.0
C439 C 0.26481 0.12664 0.43204 0.0
C440 C 0.23865 0.11133 0.45107 0.0
C441 C 0.21558 0.12727 0.46299 0.0
C442 C 0.21899 0.15889 0.45556 0.0
H443 H 0.25902 0.89117 0.81921 0.0
H444 H 0.24077 0.79534 0.8494 0.0
H445 H 0.26647 0.81247 0.90145 0.0
H446 H 0.33977 0.91742 0.85765 0.0
H447 H 0.33284 0.95463 0.86733 0.0
H448 H 0.31141 0.93456 0.83347 0.0
H449 H 0.25268 0.93754 0.85374 0.0
H450 H 0.27395 0.95767 0.88769 0.0
H451 H 0.24099 0.92256 0.8918 0.0
H452 H 0.29833 0.84082 0.94907 0.0
H453 H 0.33028 0.87774 0.98869 0.0
H454 H 0.32603 0.95428 0.92619 0.0
C455 C 0.26035 0.87378 0.83681 0.0
C456 C 0.24821 0.84197 0.83038 0.0
C457 C 0.24988 0.81986 0.85404 0.0
C458 C 0.2645 0.82938 0.88354 0.0
C459 C 0.27683 0.86104 0.88892 0.0
C460 C 0.27453 0.88285 0.86622 0.0
C461 C 0.29003 0.91539 0.87739 0.0
C462 C 0.32031 0.93143 0.8578 0.0
C463 C 0.26278 0.9344 0.87768 0.0
C464 C 0.30195 0.90859 0.90985 0.0
C465 C 0.29422 0.87716 0.9162 0.0
C466 C 0.30416 0.86548 0.94444 0.0
C467 C 0.32239 0.88654 0.9667 0.0
C468 C 0.33021 0.91881 0.96056 0.0
C469 C 0.31974 0.92978 0.93178 0.0
H470 H 0.56831 0.43638 0.75293 0.0
H471 H 0.65416 0.41418 0.70939 0.0
H472 H 0.63933 0.43908 0.66075 0.0
H473 H 0.50956 0.42669 0.68398 0.0
H474 H 0.49238 0.45921 0.69296 0.0
H475 H 0.50799 0.43763 0.72377 0.0
H476 H 0.54902 0.48812 0.74426 0.0
H477 H 0.53355 0.50982 0.71354 0.0
H478 H 0.57871 0.51169 0.71848 0.0
H479 H 0.61596 0.46709 0.61683 0.0
H480 H 0.58783 0.49914 0.58198 0.0
H481 H 0.51853 0.506 0.6539 0.0
C482 C 0.58364 0.43648 0.73298 0.0
C483 C 0.61233 0.42317 0.73488 0.0
C484 C 0.63214 0.42423 0.70845 0.0
C485 C 0.62383 0.43824 0.68068 0.0
C486 C 0.59571 0.45145 0.67958 0.0
C487 C 0.57598 0.45091 0.70505 0.0
C488 C 0.5483 0.46844 0.69801 0.0
C489 C 0.51243 0.44669 0.69979 0.0
C490 C 0.55267 0.49616 0.71987 0.0
C491 C 0.5558 0.4791 0.66483 0.0
C492 C 0.58296 0.46864 0.65454 0.0
C493 C 0.59467 0.4754 0.62469 0.0
C494 C 0.57848 0.49357 0.60498 0.0
C495 C 0.55101 0.50508 0.61514 0.0
C496 C 0.53952 0.49758 0.64548 0.0
H497 H 0.92027 0.60968 0.24535 0.0
H498 H 0.91346 0.6952 0.19855 0.0
H499 H 0.93197 0.67638 0.15035 0.0
H500 H 0.99737 0.60265 0.20824 0.0
H501 H 0.98459 0.56103 0.20567 0.0
H502 H 0.96955 0.58056 0.23633 0.0
H503 H 0.9069 0.55406 0.21966 0.0
H504 H 0.92176 0.53454 0.18887 0.0
H505 H 0.89178 0.55815 0.1802 0.0
H506 H 0.94921 0.64771 0.10641 0.0
H507 H 0.96955 0.61358 0.07125 0.0
H508 H 0.96991 0.54752 0.14644 0.0
C509 C 0.92267 0.62435 0.2249 0.0
C510 C 0.91533 0.654 0.22578 0.0
C511 C 0.9191 0.67257 0.19856 0.0
C512 C 0.92945 0.66199 0.17098 0.0
C513 C 0.93653 0.63279 0.17083 0.0
C514 C 0.93378 0.61435 0.19715 0.0
C515 C 0.94442 0.58445 0.19081 0.0
C516 C 0.97585 0.58204 0.21149 0.0
C517 C 0.91442 0.55612 0.19515 0.0
C518 C 0.95334 0.58893 0.15686 0.0
C519 C 0.94813 0.61685 0.14576 0.0
C520 C 0.95363 0.62592 0.11496 0.0
C521 C 0.96511 0.60623 0.09506 0.0
C522 C 0.97161 0.57781 0.1059 0.0
C523 C 0.96549 0.56914 0.13735 0.0
H524 H 0.41692 0.19804 0.17987 0.0
H525 H 0.51731 0.24943 0.21401 0.0
H526 H 0.54385 0.21259 0.18801 0.0
H527 H 0.43248 0.12263 0.19078 0.0
H528 H 0.40791 0.10695 0.15629 0.0
H529 H 0.39709 0.13808 0.17656 0.0
H530 H 0.40284 0.17115 0.12615 0.0
H531 H 0.4135 0.14006 0.10569 0.0
H532 H 0.44207 0.17808 0.1058 0.0
H533 H 0.5592 0.16951 0.15856 0.0
H534 H 0.56214 0.1242 0.12751 0.0
H535 H 0.45125 0.10039 0.11482 0.0
C536 C 0.44448 0.20151 0.1821 0.0
C537 C 0.46502 0.22664 0.19903 0.0
C538 C 0.50106 0.23059 0.20084 0.0
C539 C 0.51636 0.20966 0.18634 0.0
C540 C 0.49524 0.18492 0.1702 0.0
C541 C 0.46009 0.18082 0.16798 0.0
C542 C 0.44303 0.15227 0.1495 0.0
C543 C 0.4187 0.12858 0.16949 0.0
C544 C 0.42427 0.16092 0.12004 0.0
C545 C 0.47406 0.14081 0.14176 0.0
C546 C 0.50397 0.15997 0.15379 0.0
C547 C 0.53592 0.15429 0.14913 0.0
C548 C 0.53731 0.12847 0.13149 0.0
C549 C 0.5069 0.1086 0.11889 0.0
C550 C 0.47494 0.11489 0.12437 0.0
H551 H 0.08527 0.84876 0.62021 0.0
H552 H 0.02648 0.83885 0.70273 0.0
H553 H 0.99262 0.87424 0.67971 0.0
H554 H 0.0967 0.92602 0.61447 0.0
H555 H 0.09499 0.92837 0.57273 0.0
H556 H 0.10824 0.89671 0.59183 0.0
H557 H 0.06067 0.85728 0.5612 0.0
H558 H 0.04753 0.8889 0.54151 0.0
H559 H 0.01683 0.8602 0.56203 0.0
H560 H 0.96978 0.91554 0.64936 0.0
H561 H 0.96382 0.96108 0.61717 0.0
H562 H 0.04244 0.94637 0.55824 0.0
C563 C 0.06416 0.85284 0.63281 0.0
C564 C 0.0577 0.84044 0.66278 0.0
C565 C 0.03119 0.84767 0.6794 0.0
C566 C 0.01189 0.86768 0.66648 0.0
C567 C 0.01979 0.88042 0.63716 0.0
C568 C 0.0454 0.8732 0.62061 0.0
C569 C 0.0529 0.8933 0.59202 0.0
C570 C 0.09041 0.91221 0.59285 0.0
C571 C 0.04393 0.87375 0.56244 0.0
C572 C 0.02845 0.91379 0.59553 0.0
C573 C 1.00873 0.90554 0.62109 0.0
C574 C 0.98497 0.92202 0.62921 0.0
C575 C 0.98179 0.9478 0.61095 0.0
C576 C 1.00306 0.95716 0.58569 0.0
C577 C 0.02619 0.9397 0.57772 0.0
H578 H 0.81987 0.43169 0.90223 0.0
H579 H 0.74031 0.42279 0.96845 0.0
H580 H 0.78388 0.44673 1.00868 0.0
H581 H 0.88269 0.41279 0.95322 0.0
H582 H 0.91837 0.4404 0.93747 0.0
H583 H 0.88075 0.42487 0.91323 0.0
H584 H 0.87471 0.4805 0.90021 0.0
H585 H 0.91242 0.49617 0.92441 0.0
H586 H 0.87277 0.50647 0.93128 0.0
H587 H 0.83671 0.46718 0.043 0.0
H588 H 0.89454 0.48478 0.06811 0.0
H589 H 0.93987 0.48205 0.97946 0.0
C590 C 0.81158 0.43501 0.92514 0.0
C591 C 0.77656 0.42536 0.93214 0.0
C592 C 0.76683 0.43031 0.96238 0.0
C593 C 0.79145 0.44378 0.98543 0.0
C594 C 0.82575 0.4526 0.97787 0.0
C595 C 0.8358 0.44875 0.94835 0.0
C596 C 0.87443 0.45951 0.9465 0.0
C597 C 0.88996 0.43279 0.93706 0.0
C598 C 0.88414 0.48731 0.92428 0.0
C599 C 0.88463 0.46908 0.97982 0.0
C600 C 0.85613 0.46504 0.9975 0.0
C601 C 0.85915 0.47079 1.02927 0.0
C602 C 0.89207 0.48068 0.04336 0.0
C603 C 0.92159 0.48491 1.02572 0.0
C604 C 0.91772 0.47938 0.99345 0.0
H605 H 0.72772 0.6077 0.39774 0.0
H606 H 0.76392 0.69241 0.45019 0.0
H607 H 0.72005 0.67337 0.48841 0.0
H608 H 0.63965 0.60055 0.40755 0.0
H609 H 0.62815 0.55899 0.41171 0.0
H610 H 0.66458 0.5774 0.38983 0.0
H611 H 0.70336 0.55065 0.42456 0.0
H612 H 0.66697 0.53203 0.44649 0.0
H613 H 0.70475 0.55526 0.46602 0.0
H614 H 0.66987 0.64813 0.51828 0.0
H615 H 0.61668 0.61729 0.53943 0.0
H616 H 0.61119 0.54744 0.46916 0.0
C617 C 0.72683 0.62182 0.41769 0.0
C618 C 0.74936 0.65159 0.42101 0.0
C619 C 0.74693 0.66965 0.44711 0.0
C620 C 0.72213 0.65898 0.469 0.0
C621 C 0.69977 0.63002 0.46472 0.0
C622 C 0.7019 0.61148 0.43991 0.0
C623 C 0.67324 0.582 0.4402 0.0
C624 C 0.65004 0.57961 0.41056 0.0
C625 C 0.68797 0.55328 0.44458 0.0
C626 C 0.65438 0.58733 0.46858 0.0
C627 C 0.67042 0.61515 0.48235 0.0
C628 C 0.65728 0.62613 0.50791 0.0
C629 C 0.62684 0.60842 0.5197 0.0
C630 C 0.60957 0.57981 0.50611 0.0
C631 C 0.6239 0.56899 0.48035 0.0
H632 H 0.27518 0.38129 0.22506 0.0
H633 H 0.29931 0.33462 0.14476 0.0
H634 H 0.2531 0.35076 0.11395 0.0
H635 H 0.18462 0.36207 0.21173 0.0
H636 H 0.17935 0.39885 0.22478 0.0
H637 H 0.2146 0.38394 0.24018 0.0
H638 H 0.25733 0.43438 0.22342 0.0
H639 H 0.2222 0.44946 0.20798 0.0
H640 H 0.25649 0.447 0.18354 0.0
H641 H 0.2041 0.3724 0.09195 0.0
H642 H 0.15615 0.39733 0.08075 0.0
H643 H 0.164 0.42862 0.17609 0.0
C644 C 0.27107 0.37477 0.20089 0.0
C645 C 0.29093 0.35676 0.18729 0.0
C646 C 0.28422 0.34819 0.15574 0.0
C647 C 0.25816 0.35738 0.13802 0.0
C648 C 0.23905 0.37509 0.15221 0.0
C649 C 0.24521 0.38368 0.18294 0.0
C650 C 0.22083 0.40242 0.19285 0.0
C651 C 0.19853 0.38582 0.21892 0.0
C652 C 0.24039 0.43526 0.20251 0.0
C653 C 0.19986 0.40296 0.16294 0.0
C654 C 0.21079 0.3872 0.13971 0.0
C655 C 0.19527 0.38473 0.11001 0.0
C656 C 0.1679 0.3988 0.10393 0.0
C657 C 0.15623 0.41501 0.12749 0.0
C658 C 0.17254 0.4169 0.15736 0.0
H659 H 0.56446 0.24871 0.93775 0.0
H660 H 0.63824 0.21452 0.8872 0.0
H661 H 0.62362 0.16515 0.91622 0.0
H662 H 0.57789 0.21188 1.01191 0.0
H663 H 0.53323 0.20248 1.02065 0.0
H664 H 0.55041 0.23584 0.99693 0.0
H665 H 0.50466 0.21477 0.9534 0.0
H666 H 0.48733 0.18143 0.97703 0.0
H667 H 0.50081 0.17637 0.93866 0.0
H668 H 0.60147 0.11931 0.95099 0.0
H669 H 0.57008 0.07896 0.98616 0.0
H670 H 0.50854 0.14115 1.01293 0.0
C671 C 0.57763 0.23086 0.93297 0.0
C672 C 0.6025 0.23554 0.91008 0.0
C673 C 0.61889 0.21144 0.90433 0.0
C674 C 0.61091 0.18333 0.92087 0.0
C675 C 0.58622 0.17935 0.94309 0.0
C676 C 0.56957 0.20232 0.94903 0.0
C677 C 0.54298 0.19142 0.97325 0.0
C678 C 0.55166 0.21161 1.00241 0.0
C679 C 0.5068 0.19097 0.95977 0.0
C680 C 0.54722 0.1588 0.97982 0.0
C681 C 0.57264 0.15248 0.96245 0.0
C682 C 0.58145 0.12399 0.96463 0.0
C683 C 0.56354 0.1012 0.98474 0.0
C684 C 0.53679 0.10681 1.0022 0.0
C685 C 0.52878 0.13613 0.99979 0.0
H686 H 0.89838 0.83674 0.42327 0.0
H687 H 0.95985 0.85356 0.34191 0.0
H688 H 0.98802 0.90546 0.36112 0.0
H689 H 0.88742 0.91514 0.43079 0.0
H690 H 0.8918 0.91558 0.47253 0.0
H691 H 0.87505 0.87951 0.45252 0.0
H692 H 0.92189 0.85623 0.47989 0.0
H693 H 0.93842 0.89212 0.50019 0.0
H694 H 0.96629 0.87622 0.4773 0.0
H695 H 0.01124 0.95467 0.38881 0.0
H696 H 0.03049 0.99799 0.42525 0.0
H697 H 0.95505 0.95199 0.4898 0.0
C698 C 0.91786 0.85128 0.40956 0.0
C699 C 0.92632 0.84088 0.38062 0.0
C700 C 0.95207 0.86091 0.36362 0.0
C701 C 0.96844 0.89054 0.37444 0.0
C702 C 0.95911 0.90022 0.40253 0.0
C703 C 0.93465 0.88125 0.42011 0.0
C704 C 0.9305 0.8975 0.45004 0.0
C705 C 0.89402 0.90221 0.45155 0.0
C706 C 0.93984 0.87944 0.47854 0.0
C707 C 0.95653 0.9284 0.44645 0.0
C708 C 0.97256 0.92926 0.41872 0.0
C709 C 0.99865 0.9544 0.41043 0.0
C710 C 1.00932 0.979 0.43124 0.0
C711 C 0.99383 0.97875 0.45999 0.0
C712 C 0.96662 0.95327 0.46753 0.0
H713 H 0.28678 0.71944 0.67917 0.0
H714 H 0.21148 0.69968 0.6024 0.0
H715 H 0.24756 0.67086 0.57641 0.0
H716 H 0.35826 0.73445 0.63546 0.0
H717 H 0.38434 0.71688 0.66175 0.0
H718 H 0.35073 0.73223 0.67635 0.0
H719 H 0.32351 0.67908 0.70119 0.0
H720 H 0.35739 0.66363 0.68709 0.0
H721 H 0.31331 0.64484 0.67752 0.0
H722 H 0.29459 0.64924 0.55648 0.0
H723 H 0.34816 0.63484 0.54481 0.0
H724 H 0.39205 0.66799 0.63524 0.0
C725 C 0.27731 0.70816 0.6574 0.0
C726 C 0.24624 0.71158 0.64287 0.0
C727 C 0.23526 0.69734 0.61388 0.0
C728 C 0.2555 0.68086 0.59902 0.0
C729 C 0.28651 0.67874 0.61357 0.0
C730 C 0.2972 0.69173 0.64227 0.0
C731 C 0.33266 0.68808 0.65193 0.0
C732 C 0.35797 0.7198 0.65663 0.0
C733 C 0.33164 0.66768 0.68116 0.0
C734 C 0.34067 0.6718 0.6238 0.0
C735 C 0.31363 0.66635 0.60206 0.0
C736 C 0.31572 0.65291 0.57356 0.0
C737 C 0.34623 0.64476 0.56717 0.0
C738 C 0.37429 0.65019 0.58914 0.0
C739 C 0.37121 0.66374 0.61786 0.0
H740 H 0.78885 0.84789 0.73024 0.0
H741 H 0.68134 0.83774 0.70469 0.0
H742 H 0.69621 0.85181 0.65046 0.0
H743 H 0.81753 0.91408 0.68934 0.0
H744 H 0.85686 0.9057 0.678 0.0
H745 H 0.83732 0.88856 0.71265 0.0
H746 H 0.83597 0.83385 0.69214 0.0
H747 H 0.85564 0.85091 0.6573 0.0
H748 H 0.81563 0.82205 0.65476 0.0
H749 H 0.72341 0.8739 0.60132 0.0
H750 H 0.76042 0.90462 0.56233 0.0
H751 H 0.85012 0.9019 0.6211 0.0
C752 C 0.76833 0.84739 0.71294 0.0
C753 C 0.73391 0.8412 0.7214 0.0
C754 C 0.70784 0.84214 0.69849 0.0
C755 C 0.71605 0.84992 0.66767 0.0
C756 C 0.75042 0.85669 0.66024 0.0
C757 C 0.77615 0.85543 0.68227 0.0
C758 C 0.81125 0.8678 0.66959 0.0
C759 C 0.83192 0.89569 0.68851 0.0
C760 C 0.83077 0.84211 0.66837 0.0
C761 C 0.80134 0.87744 0.63737 0.0
C762 C 0.76618 0.87021 0.63213 0.0
C763 C 0.75097 0.87924 0.60498 0.0
C764 C 0.77218 0.89684 0.58306 0.0
C765 C 0.80819 0.90559 0.5886 0.0
C766 C 0.82282 0.89492 0.61575 0.0
H767 H 0.77177 0.23783 0.26601 0.0
H768 H 0.82439 0.30866 0.20292 0.0
H769 H 0.78851 0.28161 0.15915 0.0
H770 H 0.76993 0.17499 0.2169 0.0
H771 H 0.72867 0.15294 0.22843 0.0
H772 H 0.75567 0.1798 0.25504 0.0
H773 H 0.70679 0.20779 0.26098 0.0
H774 H 0.67962 0.18101 0.23431 0.0
H775 H 0.68765 0.22209 0.22695 0.0
H776 H 0.74857 0.24497 0.12173 0.0
H777 H 0.71037 0.20061 0.09397 0.0
H778 H 0.68724 0.15294 0.18164 0.0
C779 C 0.77597 0.24775 0.24304 0.0
C780 C 0.80102 0.27549 0.23806 0.0
C781 C 0.80504 0.28776 0.20754 0.0
C782 C 0.78486 0.27248 0.18246 0.0
C783 C 0.76086 0.24491 0.18825 0.0
C784 C 0.75648 0.23265 0.21781 0.0
C785 C 0.73068 0.20171 0.21775 0.0
C786 C 0.74724 0.17584 0.23026 0.0
C787 C 0.69933 0.20326 0.23608 0.0
C788 C 0.72161 0.19817 0.18345 0.0
C789 C 0.73883 0.2235 0.16678 0.0
C790 C 0.73486 0.22509 0.13457 0.0
C791 C 0.7131 0.19991 0.11902 0.0
C792 C 0.69609 0.17344 0.13572 0.0
C793 C 0.70016 0.17284 0.16833 0.0
H794 H 0.44971 0.65988 0.36996 0.0
H795 H 0.35753 0.59312 0.33794 0.0
H796 H 0.3653 0.55831 0.38103 0.0
H797 H 0.49791 0.60513 0.39081 0.0
H798 H 0.51907 0.62522 0.42486 0.0
H799 H 0.50483 0.64661 0.39322 0.0
H800 H 0.46963 0.66993 0.43081 0.0
H801 H 0.48368 0.64844 0.46257 0.0
H802 H 0.43858 0.64444 0.45401 0.0
H803 H 0.38578 0.52788 0.42366 0.0
H804 H 0.41734 0.50449 0.4641 0.0
H805 H 0.49562 0.59027 0.4712 0.0
C806 C 0.43095 0.63808 0.37216 0.0
C807 C 0.40263 0.62969 0.35044 0.0
C808 C 0.3789 0.60076 0.35441 0.0
C809 C 0.38321 0.58059 0.37883 0.0
C810 C 0.41134 0.58946 0.39955 0.0
C811 C 0.43476 0.61758 0.39669 0.0
C812 C 0.46359 0.62063 0.42152 0.0
C813 C 0.4984 0.62463 0.40671 0.0
C814 C 0.46388 0.64746 0.44353 0.0
C815 C 0.45315 0.58951 0.43813 0.0
C816 C 0.42279 0.57201 0.42503 0.0
C817 C 0.40917 0.5416 0.43452 0.0
C818 C 0.42723 0.52849 0.45754 0.0
C819 C 0.45835 0.54579 0.47133 0.0
C820 C 0.47122 0.57691 0.46184 0.0
H821 H 0.09391 0.43834 0.83437 0.0
H822 H 0.12663 0.36446 0.88485 0.0
H823 H 0.11176 0.38433 0.93392 0.0
H824 H 0.12388 0.49813 0.89247 0.0
H825 H 0.08768 0.51514 0.8865 0.0
H826 H 0.10149 0.49566 0.85508 0.0
H827 H 0.04063 0.45986 0.84829 0.0
H828 H 0.02664 0.47927 0.87964 0.0
H829 H 0.02134 0.43787 0.88104 0.0
H830 H 0.09396 0.41241 0.97819 0.0
H831 H 0.0718 0.445 1.01376 0.0
H832 H 0.04852 0.50034 0.93551 0.0
C833 C 0.09806 0.42644 0.85577 0.0
C834 C 0.11135 0.39958 0.85549 0.0
C835 C 0.11608 0.3847 0.88416 0.0
C836 C 0.1079 0.39597 0.9123 0.0
C837 C 0.0947 0.42224 0.91178 0.0
C838 C 0.08957 0.43723 0.88427 0.0
C839 C 0.0741 0.46455 0.89033 0.0
C840 C 0.09823 0.49518 0.88051 0.0
C841 C 0.03857 0.46011 0.87385 0.0
C842 C 0.07143 0.46255 0.92544 0.0
C843 C 0.08373 0.43808 0.93732 0.0
C844 C 0.0842 0.4316 0.96908 0.0
C845 C 0.07157 0.45037 0.9892 0.0
C846 C 0.05826 0.47538 0.97771 0.0
C847 C 0.05841 0.48145 0.94525 0.0
H848 H 0.62087 0.87519 0.96328 0.0
H849 H 0.57671 0.88154 0.87056 0.0
H850 H 0.53416 0.90662 0.89164 0.0
H851 H 0.53982 0.8679 1.00713 0.0
H852 H 0.56344 0.89212 1.0377 0.0
H853 H 0.58369 0.86717 1.01677 0.0
H854 H 0.63255 0.91454 1.0032 0.0
H855 H 0.61247 0.93952 1.02382 0.0
H856 H 0.62202 0.94746 0.9837 0.0
H857 H 0.50332 0.93937 0.92166 0.0
H858 H 0.4896 0.97779 0.95701 0.0
H859 H 0.55746 0.95279 1.0284 0.0
C860 C 0.60165 0.8811 0.94749 0.0
C861 C 0.60211 0.87644 0.91531 0.0
C862 C 0.57654 0.88446 0.89539 0.0
C863 C 0.55228 0.89877 0.90717 0.0
C864 C 0.55377 0.90459 0.93892 0.0
C865 C 0.57771 0.89568 0.95882 0.0
C866 C 0.57774 0.90853 0.99097 0.0
C867 C 0.56543 0.88237 1.01453 0.0
C868 C 0.61328 0.92871 1.00097 0.0
C869 C 0.55172 0.92772 0.98562 0.0
C870 C 0.53717 0.92439 0.95583 0.0
C871 C 0.51412 0.94171 0.94517 0.0
C872 C 0.50648 0.96344 0.96527 0.0
C873 C 0.5227 0.96804 0.99511 0.0
C874 C 0.5448 0.94947 1.00558 0.0
H875 H 0.91089 0.2047 0.40459 0.0
H876 H 0.01213 0.26598 0.39851 0.0
H877 H 0.03802 0.22387 0.41806 0.0
H878 H 0.92777 0.16974 0.47578 0.0
H879 H 0.90179 0.13195 0.46567 0.0
H880 H 0.89168 0.16602 0.44854 0.0
H881 H 0.89496 0.14433 0.39373 0.0
H882 H 0.90533 0.11024 0.41075 0.0
H883 H 0.93333 0.13344 0.38346 0.0
H884 H 0.05258 0.17607 0.4416 0.0
H885 H 0.0546 0.12721 0.46874 0.0
H886 H 0.94359 0.09785 0.46015 0.0
C887 C 0.93852 0.20937 0.40737 0.0
C888 C 0.95946 0.23871 0.39996 0.0
C889 C 0.99554 0.2436 0.4036 0.0
C890 C 1.01049 0.21984 0.41477 0.0
C891 C 0.98903 0.1913 0.42209 0.0
C892 C 0.95382 0.18601 0.41856 0.0
C893 C 0.93634 0.1539 0.42965 0.0
C894 C 0.91304 0.15551 0.4565 0.0
C895 C 0.91632 0.13433 0.40279 0.0
C896 C 0.9672 0.14212 0.44058 0.0
C897 C 0.99738 0.16389 0.43575 0.0
C898 C 0.02912 0.15874 0.44525 0.0
C899 C 0.02999 0.13087 0.46066 0.0
C900 C 0.99926 0.10855 0.46654 0.0
C901 C 0.96759 0.11418 0.45578 0.0
H902 H 0.22374 0.60228 0.17478 0.0
H903 H 0.2674 0.68224 0.11799 0.0
H904 H 0.22025 0.66601 0.07883 0.0
H905 H 0.19469 0.5494 0.11113 0.0
H906 H 0.15543 0.52943 0.12807 0.0
H907 H 0.19222 0.54657 0.1527 0.0
H908 H 0.15748 0.57879 0.18079 0.0
H909 H 0.12008 0.56119 0.15708 0.0
H910 H 0.13479 0.60278 0.15842 0.0
H911 H 0.17025 0.64055 0.04473 0.0
H912 H 0.117 0.60982 1.01962 0.0
H913 H 0.10248 0.54726 0.09874 0.0
C914 C 0.22329 0.61635 0.15411 0.0
C915 C 0.24926 0.64373 0.14963 0.0
C916 C 0.24764 0.6615 0.12226 0.0
C917 C 0.22106 0.65234 0.09972 0.0
C918 C 0.19597 0.62535 0.10479 0.0
C919 C 0.19654 0.6077 0.13139 0.0
C920 C 0.16591 0.5799 0.131 0.0
C921 C 0.17779 0.54953 0.13073 0.0
C922 C 0.14322 0.58073 0.15846 0.0
C923 C 0.14783 0.58505 0.10032 0.0
C924 C 0.16611 0.61112 0.08541 0.0
C925 C 0.15555 0.62023 0.0563 0.0
C926 C 0.12528 0.60252 0.04216 0.0
C927 C 0.10537 0.57626 0.05728 0.0
C928 C 0.11691 0.56739 0.08678 0.0
H929 H 0.31527 0.39714 0.67533 0.0
H930 H 0.24481 0.45358 0.64662 0.0
H931 H 0.28702 0.48253 0.6107 0.0
H932 H 0.39226 0.45833 0.6739 0.0
H933 H 0.41813 0.4343 0.65925 0.0
H934 H 0.38209 0.41736 0.68224 0.0
H935 H 0.35707 0.37859 0.63822 0.0
H936 H 0.39295 0.39555 0.61502 0.0
H937 H 0.34989 0.39303 0.59982 0.0
H938 H 0.33754 0.50712 0.57965 0.0
H939 H 0.39286 0.52551 0.55511 0.0
H940 H 0.43132 0.45292 0.60226 0.0
C941 C 0.30873 0.41567 0.66159 0.0
C942 C 0.27642 0.42291 0.66388 0.0
C943 C 0.26899 0.44718 0.64512 0.0
C944 C 0.29293 0.46389 0.62469 0.0
C945 C 0.32434 0.45611 0.62297 0.0
C946 C 0.33235 0.43255 0.64086 0.0
C947 C 0.36821 0.42919 0.63466 0.0
C948 C 0.39155 0.43515 0.66427 0.0
C949 C 0.36694 0.39718 0.62112 0.0
C950 C 0.3792 0.45472 0.61071 0.0
C951 C 0.35341 0.46993 0.60442 0.0
C952 C 0.35776 0.49519 0.58419 0.0
C953 C 0.38935 0.50548 0.57035 0.0
C954 C 0.41636 0.49048 0.57643 0.0
C955 C 0.41095 0.46445 0.59662 0.0
H956 H 0.81843 0.76657 0.94727 0.0
H957 H 0.72945 0.7033 0.9047 0.0
H958 H 0.75227 0.65902 0.92292 0.0
H959 H 0.87719 0.72851 0.9229 0.0
H960 H 0.90521 0.73579 0.95716 0.0
H961 H 0.87893 0.76205 0.9463 0.0
H962 H 0.85243 0.7548 1.00027 0.0
H963 H 0.87881 0.72852 1.01139 0.0
H964 H 0.83297 0.71635 1.01394 0.0
H965 H 0.78827 0.6221 0.93964 0.0
H966 H 0.83499 0.59596 0.95221 0.0
H967 H 0.90123 0.68359 0.98186 0.0
C968 C 0.80344 0.74341 0.94209 0.0
C969 C 0.77206 0.73849 0.92458 0.0
C970 C 0.75323 0.70774 0.91855 0.0
C971 C 0.76606 0.6824 0.92872 0.0
C972 C 0.79765 0.68818 0.94501 0.0
C973 C 0.81601 0.71796 0.95177 0.0
C974 C 0.8509 0.71822 0.96661 0.0
C975 C 0.87974 0.73726 0.94706 0.0
C976 C 0.85394 0.73018 1.00004 0.0
C977 C 0.84989 0.68405 0.96596 0.0
C978 C 0.81871 0.66698 0.95405 0.0
C979 C 0.81257 0.63514 0.94947 0.0
C980 C 0.83921 0.62048 0.95674 0.0
C981 C 0.87165 0.63778 0.96803 0.0
C982 C 0.87668 0.66982 0.97323 0.0
H983 H 0.47236 0.8198 0.156 0.0
H984 H 0.38673 0.8385 0.20313 0.0
H985 H 0.40031 0.89192 0.18206 0.0
H986 H 0.52957 0.89464 0.16704 0.0
H987 H 0.54743 0.89543 0.12947 0.0
H988 H 0.53099 0.85895 0.14861 0.0
H989 H 0.49072 0.84015 0.1006 0.0
H990 H 0.50698 0.87665 0.0814 0.0
H991 H 0.46164 0.86289 0.08633 0.0
H992 H 0.42312 0.94396 0.15418 0.0
H993 H 0.45468 0.98949 0.1246 0.0
H994 H 0.52451 0.93591 0.09577 0.0
C995 C 0.45625 0.83497 0.16182 0.0
C996 C 0.42836 0.82465 0.18135 0.0
C997 C 0.40848 0.84574 0.18864 0.0
C998 C 0.41584 0.87614 0.17653 0.0
C999 C 0.44326 0.88536 0.15711 0.0
C1000 C 0.46323 0.86535 0.14995 0.0
C1001 C 0.49141 0.88083 0.12875 0.0
C1002 C 0.52695 0.88257 0.14441 0.0
C1003 C 0.48743 0.86413 0.09742 0.0
C1004 C 0.48432 0.91271 0.12512 0.0
C1005 C 0.45635 0.91495 0.14147 0.0
C1006 C 0.44507 0.94236 0.14137 0.0
C1007 C 0.46305 0.9681 0.12443 0.0
C1008 C 0.49206 0.9663 0.10793 0.0
C1009 C 0.5025 0.9381 0.10825 0.0
H1010 H 0.05913 0.23938 0.65178 0.0
H1011 H 0.14428 0.20627 0.69304 0.0
H1012 H 0.12321 0.15654 0.66614 0.0
H1013 H 0.99558 0.16543 0.6552 0.0
H1014 H 0.97475 0.17092 0.61836 0.0
H1015 H 0.9959 0.20399 0.64137 0.0
H1016 H 0.03274 0.2266 0.59507 0.0
H1017 H 0.0118 0.19354 0.57198 0.0
H1018 H 0.0578 0.20358 0.57734 0.0
H1019 H 0.09391 0.11041 0.63442 0.0
H1020 H 0.05756 0.07065 0.6002 0.0
H1021 H 0.99096 0.13237 0.57826 0.0
C1022 C 0.07311 0.22153 0.65536 0.0
C1023 C 0.10363 0.22702 0.67446 0.0
C1024 C 0.12121 0.203 0.67825 0.0
C1025 C 0.10935 0.17452 0.66314 0.0
C1026 C 0.07967 0.17004 0.64413 0.0
C1027 C 0.06165 0.19278 0.64017 0.0
C1028 C 0.03073 0.18184 0.61792 0.0
C1029 C 0.99726 0.18046 0.63419 0.0
C1030 C 0.03344 0.20263 0.58886 0.0
C1031 C 0.03428 0.14952 0.61011 0.0
C1032 C 0.06273 0.14327 0.62557 0.0
C1033 C 0.07157 0.11507 0.62218 0.0
C1034 C 0.05081 0.09262 0.60259 0.0
C1035 C 0.02154 0.09837 0.58635 0.0
C1036 C 0.01321 0.12727 0.59029 0.0
H1037 H 0.7502 0.34631 0.42308 0.0
H1038 H 0.83807 0.4136 0.46225 0.0
H1039 H 0.80016 0.43242 0.49644 0.0
H1040 H 0.69508 0.39664 0.41854 0.0
H1041 H 0.65728 0.3674 0.42763 0.0
H1042 H 0.69187 0.35666 0.40928 0.0
H1043 H 0.69551 0.31741 0.45371 0.0
H1044 H 0.66097 0.32818 0.4723 0.0
H1045 H 0.7013 0.33057 0.49328 0.0
H1046 H 0.75198 0.44651 0.52365 0.0
H1047 H 0.69748 0.45596 0.54011 0.0
H1048 H 0.64132 0.38169 0.48033 0.0
C1049 C 0.76162 0.36496 0.43887 0.0
C1050 C 0.79727 0.37834 0.43996 0.0
C1051 C 0.811 0.40249 0.4613 0.0
C1052 C 0.78963 0.41346 0.48076 0.0
C1053 C 0.75457 0.40005 0.47865 0.0
C1054 C 0.74068 0.37636 0.45819 0.0
C1055 C 0.70199 0.36744 0.4587 0.0
C1056 C 0.68561 0.37235 0.42664 0.0
C1057 C 0.6892 0.33391 0.47019 0.0
C1058 C 0.69619 0.39034 0.48211 0.0
C1059 C 0.72682 0.40864 0.49371 0.0
C1060 C 0.72784 0.43221 0.51481 0.0
C1061 C 0.69674 0.43753 0.52386 0.0
C1062 C 0.665 0.41961 0.51154 0.0
C1063 C 0.66498 0.39542 0.49074 0.0
loop_
_geom_bond_atom_site_label_1
_geom_bond_atom_site_label_2
_geom_bond_distance
_geom_bond_site_symmetry_2
_ccdc_geom_bond_type
P0 O11 1.490 . S
P0 C14 1.812 . S
P0 C20 1.803 . S
P0 C26 1.819 . S
H1 C15 0.941 . S
H2 C16 0.939 . S
H3 C18 0.940 . S
H4 C19 0.940 . S
H5 C21 0.939 . S
H6 C22 0.942 . S
H7 C24 0.940 . S
H8 C25 0.939 . S
H9 C27 0.941 . S
H10 C31 0.939 . S
O11 P0 1.490 . S
H12 C28 0.939 . S
H13 C30 0.940 . S
C14 P0 1.812 . S
C14 C15 1.389 . S
C14 C19 1.391 . S
C15 H1 0.941 . S
C15 C14 1.389 . S
C15 C16 1.397 . S
C16 H2 0.939 . S
C16 C15 1.397 . S
C16 C17 1.378 . S
C17 C16 1.378 . S
C17 C18 1.378 . S
C18 H3 0.940 . S
C18 C17 1.378 . S
C18 C19 1.396 . S
C19 H4 0.940 . S
C19 C14 1.391 . S
C19 C18 1.396 . S
C20 P0 1.803 . S
C20 C21 1.378 . S
C20 C25 1.400 . S
C21 H5 0.939 . S
C21 C20 1.378 . S
C21 C22 1.361 . S
C22 H6 0.942 . S
C22 C21 1.361 . S
C22 C23 1.369 . S
C23 C22 1.369 . S
C23 C24 1.404 . S
C24 H7 0.940 . S
C24 C23 1.404 . S
C24 C25 1.389 . S
C25 H8 0.939 . S
C25 C20 1.400 . S
C25 C24 1.389 . S
C26 P0 1.819 . S
C26 C27 1.391 . S
C26 C31 1.391 . S
C27 H9 0.941 . S
C27 C26 1.391 . S
C27 C28 1.396 . S
C28 H12 0.939 . S
C28 C27 1.396 . S
C28 C29 1.397 . S
C29 C28 1.397 . S
C29 C30 1.385 . S
C30 H13 0.940 . S
C30 C29 1.385 . S
C30 C31 1.388 . S
C31 H10 0.939 . S
C31 C26 1.391 . S
C31 C30 1.388 . S
P32 O43 1.490 . S
P32 C46 1.812 . S
P32 C52 1.803 . S
P32 C58 1.819 . S
H33 C47 0.941 . S
H34 C48 0.939 . S
H35 C50 0.940 . S
H36 C51 0.940 . S
H37 C53 0.939 . S
H38 C54 0.942 . S
H39 C56 0.940 . S
H40 C57 0.939 . S
H41 C59 0.941 . S
H42 C63 0.939 . S
O43 P32 1.490 . S
H44 C60 0.939 . S
H45 C62 0.940 . S
C46 P32 1.812 . S
C46 C47 1.389 . S
C46 C51 1.391 . S
C47 H33 0.941 . S
C47 C46 1.389 . S
C47 C48 1.397 . S
C48 H34 0.939 . S
C48 C47 1.397 . S
C48 C49 1.378 . S
C49 C48 1.378 . S
C49 C50 1.378 . S
C50 H35 0.940 . S
C50 C49 1.378 . S
C50 C51 1.396 . S
C51 H36 0.940 . S
C51 C46 1.391 . S
C51 C50 1.396 . S
C52 P32 1.803 . S
C52 C53 1.378 . S
C52 C57 1.400 . S
C53 H37 0.939 . S
C53 C52 1.378 . S
C53 C54 1.361 . S
C54 H38 0.942 . S
C54 C53 1.361 . S
C54 C55 1.369 . S
C55 C54 1.369 . S
C55 C56 1.404 . S
C56 H39 0.940 . S
C56 C55 1.404 . S
C56 C57 1.389 . S
C57 H40 0.939 . S
C57 C52 1.400 . S
C57 C56 1.389 . S
C58 P32 1.819 . S
C58 C59 1.391 . S
C58 C63 1.391 . S
C59 H41 0.941 . S
C59 C58 1.391 . S
C59 C60 1.396 . S
C60 H44 0.939 . S
C60 C59 1.396 . S
C60 C61 1.397 . S
C61 C60 1.397 . S
C61 C62 1.385 . S
C62 H45 0.940 . S
C62 C61 1.385 . S
C62 C63 1.388 . S
C63 H42 0.939 . S
C63 C58 1.391 . S
C63 C62 1.388 . S
P64 O75 1.490 . S
P64 C78 1.812 . S
P64 C84 1.803 . S
P64 C90 1.819 . S
H65 C79 0.941 . S
H66 C80 0.939 . S
H67 C82 0.940 . S
H68 C83 0.940 . S
H69 C85 0.939 . S
H70 C86 0.942 . S
H71 C88 0.940 . S
H72 C89 0.939 . S
H73 C91 0.941 . S
H74 C95 0.939 . S
O75 P64 1.490 . S
H76 C92 0.939 . S
H77 C94 0.940 . S
C78 P64 1.812 . S
C78 C79 1.389 . S
C78 C83 1.391 . S
C79 H65 0.941 . S
C79 C78 1.389 . S
C79 C80 1.397 . S
C80 H66 0.939 . S
C80 C79 1.397 . S
C80 C81 1.378 . S
C81 C80 1.378 . S
C81 C82 1.378 . S
C82 H67 0.940 . S
C82 C81 1.378 . S
C82 C83 1.396 . S
C83 H68 0.940 . S
C83 C78 1.391 . S
C83 C82 1.396 . S
C84 P64 1.803 . S
C84 C85 1.378 . S
C84 C89 1.400 . S
C85 H69 0.939 . S
C85 C84 1.378 . S
C85 C86 1.361 . S
C86 H70 0.942 . S
C86 C85 1.361 . S
C86 C87 1.369 . S
C87 C86 1.369 . S
C87 C88 1.404 . S
C88 H71 0.940 . S
C88 C87 1.404 . S
C88 C89 1.389 . S
C89 H72 0.939 . S
C89 C84 1.400 . S
C89 C88 1.389 . S
C90 P64 1.819 . S
C90 C91 1.391 . S
C90 C95 1.391 . S
C91 H73 0.941 . S
C91 C90 1.391 . S
C91 C92 1.396 . S
C92 H76 0.939 . S
C92 C91 1.396 . S
C92 C93 1.397 . S
C93 C92 1.397 . S
C93 C94 1.385 . S
C94 H77 0.940 . S
C94 C93 1.385 . S
C94 C95 1.388 . S
C95 H74 0.939 . S
C95 C90 1.391 . S
C95 C94 1.388 . S
P96 O107 1.490 . S
P96 C110 1.812 . S
P96 C116 1.803 . S
P96 C122 1.819 . S
H97 C111 0.941 . S
H98 C112 0.939 . S
H99 C114 0.940 . S
H100 C115 0.940 . S
H101 C117 0.939 . S
H102 C118 0.942 . S
H103 C120 0.940 . S
H104 C121 0.939 . S
H105 C123 0.941 . S
H106 C127 0.939 . S
O107 P96 1.490 . S
H108 C124 0.939 . S
H109 C126 0.940 . S
C110 P96 1.812 . S
C110 C111 1.389 . S
C110 C115 1.391 . S
C111 H97 0.941 . S
C111 C110 1.389 . S
C111 C112 1.397 . S
C112 H98 0.939 . S
C112 C111 1.397 . S
C112 C113 1.378 . S
C113 C112 1.378 . S
C113 C114 1.378 . S
C114 H99 0.940 . S
C114 C113 1.378 . S
C114 C115 1.396 . S
C115 H100 0.940 . S
C115 C110 1.391 . S
C115 C114 1.396 . S
C116 P96 1.803 . S
C116 C117 1.378 . S
C116 C121 1.400 . S
C117 H101 0.939 . S
C117 C116 1.378 . S
C117 C118 1.361 . S
C118 H102 0.942 . S
C118 C117 1.361 . S
C118 C119 1.369 . S
C119 C118 1.369 . S
C119 C120 1.404 . S
C120 H103 0.940 . S
C120 C119 1.404 . S
C120 C121 1.389 . S
C121 H104 0.939 . S
C121 C116 1.400 . S
C121 C120 1.389 . S
C122 P96 1.819 . S
C122 C123 1.391 . S
C122 C127 1.391 . S
C123 H105 0.941 . S
C123 C122 1.391 . S
C123 C124 1.396 . S
C124 H108 0.939 . S
C124 C123 1.396 . S
C124 C125 1.397 . S
C125 C124 1.397 . S
C125 C126 1.385 . S
C126 H109 0.940 . S
C126 C125 1.385 . S
C126 C127 1.388 . S
C127 H106 0.939 . S
C127 C122 1.391 . S
C127 C126 1.388 . S
P128 O139 1.490 . S
P128 C142 1.812 . S
P128 C148 1.803 . S
P128 C154 1.819 . S
H129 C143 0.941 . S
H130 C144 0.939 . S
H131 C146 0.940 . S
H132 C147 0.940 . S
H133 C149 0.939 . S
H134 C150 0.942 . S
H135 C152 0.940 . S
H136 C153 0.939 . S
H137 C155 0.941 . S
H138 C159 0.939 . S
O139 P128 1.490 . S
H140 C156 0.939 . S
H141 C158 0.940 . S
C142 P128 1.812 . S
C142 C143 1.389 . S
C142 C147 1.391 . S
C143 H129 0.941 . S
C143 C142 1.389 . S
C143 C144 1.397 . S
C144 H130 0.939 . S
C144 C143 1.397 . S
C144 C145 1.378 . S
C145 C144 1.378 . S
C145 C146 1.378 . S
C146 H131 0.940 . S
C146 C145 1.378 . S
C146 C147 1.396 . S
C147 H132 0.940 . S
C147 C142 1.391 . S
C147 C146 1.396 . S
C148 P128 1.803 . S
C148 C149 1.378 . S
C148 C153 1.400 . S
C149 H133 0.939 . S
C149 C148 1.378 . S
C149 C150 1.361 . S
C150 H134 0.942 . S
C150 C149 1.361 . S
C150 C151 1.369 . S
C151 C150 1.369 . S
C151 C152 1.404 . S
C152 H135 0.940 . S
C152 C151 1.404 . S
C152 C153 1.389 . S
C153 H136 0.939 . S
C153 C148 1.400 . S
C153 C152 1.389 . S
C154 P128 1.819 . S
C154 C155 1.391 . S
C154 C159 1.391 . S
C155 H137 0.941 . S
C155 C154 1.391 . S
C155 C156 1.396 . S
C156 H140 0.939 . S
C156 C155 1.396 . S
C156 C157 1.397 . S
C157 C156 1.397 . S
C157 C158 1.385 . S
C158 H141 0.940 . S
C158 C157 1.385 . S
C158 C159 1.388 . S
C159 H138 0.939 . S
C159 C154 1.391 . S
C159 C158 1.388 . S
P160 O171 1.490 . S
P160 C174 1.812 . S
P160 C180 1.803 . S
P160 C186 1.819 . S
H161 C175 0.941 . S
H162 C176 0.939 . S
H163 C178 0.940 . S
H164 C179 0.940 . S
H165 C181 0.939 . S
H166 C182 0.942 . S
H167 C184 0.940 . S
H168 C185 0.939 . S
H169 C187 0.941 . S
H170 C191 0.939 . S
O171 P160 1.490 . S
H172 C188 0.939 . S
H173 C190 0.940 . S
C174 P160 1.812 . S
C174 C175 1.389 . S
C174 C179 1.391 . S
C175 H161 0.941 . S
C175 C174 1.389 . S
C175 C176 1.397 . S
C176 H162 0.939 . S
C176 C175 1.397 . S
C176 C177 1.378 . S
C177 C176 1.378 . S
C177 C178 1.378 . S
C178 H163 0.940 . S
C178 C177 1.378 . S
C178 C179 1.396 . S
C179 H164 0.940 . S
C179 C174 1.391 . S
C179 C178 1.396 . S
C180 P160 1.803 . S
C180 C181 1.378 . S
C180 C185 1.400 . S
C181 H165 0.939 . S
C181 C180 1.378 . S
C181 C182 1.361 . S
C182 H166 0.942 . S
C182 C181 1.361 . S
C182 C183 1.369 . S
C183 C182 1.369 . S
C183 C184 1.404 . S
C184 H167 0.940 . S
C184 C183 1.404 . S
C184 C185 1.389 . S
C185 H168 0.939 . S
C185 C180 1.400 . S
C185 C184 1.389 . S
C186 P160 1.819 . S
C186 C187 1.391 . S
C186 C191 1.391 . S
C187 H169 0.941 . S
C187 C186 1.391 . S
C187 C188 1.396 . S
C188 H172 0.939 . S
C188 C187 1.396 . S
C188 C189 1.397 . S
C189 C188 1.397 . S
C189 C190 1.385 . S
C190 H173 0.940 . S
C190 C189 1.385 . S
C190 C191 1.388 . S
C191 H170 0.939 . S
C191 C186 1.391 . S
C191 C190 1.388 . S
P192 O203 1.490 . S
P192 C206 1.812 . S
P192 C212 1.803 . S
P192 C218 1.819 . S
H193 C207 0.941 . S
H194 C208 0.939 . S
H195 C210 0.940 . S
H196 C211 0.940 . S
H197 C213 0.939 . S
H198 C214 0.942 . S
H199 C216 0.940 . S
H200 C217 0.939 . S
H201 C219 0.941 . S
H202 C223 0.939 . S
O203 P192 1.490 . S
H204 C220 0.939 . S
H205 C222 0.940 . S
C206 P192 1.812 . S
C206 C207 1.389 . S
C206 C211 1.391 . S
C207 H193 0.941 . S
C207 C206 1.389 . S
C207 C208 1.397 . S
C208 H194 0.939 . S
C208 C207 1.397 . S
C208 C209 1.378 . S
C209 C208 1.378 . S
C209 C210 1.378 . S
C210 H195 0.940 . S
C210 C209 1.378 . S
C210 C211 1.396 . S
C211 H196 0.940 . S
C211 C206 1.391 . S
C211 C210 1.396 . S
C212 P192 1.803 . S
C212 C213 1.378 . S
C212 C217 1.400 . S
C213 H197 0.939 . S
C213 C212 1.378 . S
C213 C214 1.361 . S
C214 H198 0.942 . S
C214 C213 1.361 . S
C214 C215 1.369 . S
C215 C214 1.369 . S
C215 C216 1.404 . S
C216 H199 0.940 . S
C216 C215 1.404 . S
C216 C217 1.389 . S
C217 H200 0.939 . S
C217 C212 1.400 . S
C217 C216 1.389 . S
C218 P192 1.819 . S
C218 C219 1.391 . S
C218 C223 1.391 . S
C219 H201 0.941 . S
C219 C218 1.391 . S
C219 C220 1.396 . S
C220 H204 0.939 . S
C220 C219 1.396 . S
C220 C221 1.397 . S
C221 C220 1.397 . S
C221 C222 1.385 . S
C222 H205 0.940 . S
C222 C221 1.385 . S
C222 C223 1.388 . S
C223 H202 0.939 . S
C223 C218 1.391 . S
C223 C222 1.388 . S
P224 O235 1.490 . S
P224 C238 1.812 . S
P224 C244 1.803 . S
P224 C250 1.819 . S
H225 C239 0.941 . S
H226 C240 0.939 . S
H227 C242 0.940 . S
H228 C243 0.940 . S
H229 C245 0.939 . S
H230 C246 0.942 . S
H231 C248 0.940 . S
H232 C249 0.939 . S
H233 C251 0.941 . S
H234 C255 0.939 . S
O235 P224 1.490 . S
H236 C252 0.939 . S
H237 C254 0.940 . S
C238 P224 1.812 . S
C238 C239 1.389 . S
C238 C243 1.391 . S
C239 H225 0.941 . S
C239 C238 1.389 . S
C239 C240 1.397 . S
C240 H226 0.939 . S
C240 C239 1.397 . S
C240 C241 1.378 . S
C241 C240 1.378 . S
C241 C242 1.378 . S
C242 H227 0.940 . S
C242 C241 1.378 . S
C242 C243 1.396 . S
C243 H228 0.940 . S
C243 C238 1.391 . S
C243 C242 1.396 . S
C244 P224 1.803 . S
C244 C245 1.378 . S
C244 C249 1.400 . S
C245 H229 0.939 . S
C245 C244 1.378 . S
C245 C246 1.361 . S
C246 H230 0.942 . S
C246 C245 1.361 . S
C246 C247 1.369 . S
C247 C246 1.369 . S
C247 C248 1.404 . S
C248 H231 0.940 . S
C248 C247 1.404 . S
C248 C249 1.389 . S
C249 H232 0.939 . S
C249 C244 1.400 . S
C249 C248 1.389 . S
C250 P224 1.819 . S
C250 C251 1.391 . S
C250 C255 1.391 . S
C251 H233 0.941 . S
C251 C250 1.391 . S
C251 C252 1.396 . S
C252 H236 0.939 . S
C252 C251 1.396 . S
C252 C253 1.397 . S
C253 C252 1.397 . S
C253 C254 1.385 . S
C254 H237 0.940 . S
C254 C253 1.385 . S
C254 C255 1.388 . S
C255 H234 0.939 . S
C255 C250 1.391 . S
C255 C254 1.388 . S
Tb256 C258 2.809 1_545 S
Tb256 O276 2.485 1_545 S
Tb256 O277 2.441 1_545 S
Tb256 O278 2.658 1_655 S
Tb256 O279 2.409 1_655 S
Tb256 O280 2.379 1_645 S
Tb256 O284 2.325 1_545 S
Tb256 O287 2.341 . S
Tb257 C267 2.809 . S
Tb257 O278 2.325 . S
Tb257 O281 2.341 1_545 S
Tb257 O282 2.484 . S
Tb257 O283 2.440 . S
Tb257 O284 2.658 1_445 S
Tb257 O285 2.409 1_545 S
Tb257 O286 2.378 . S
C258 Tb256 2.809 1_565 S
C258 C259 1.514 . S
C258 O276 1.248 . S
C258 O277 1.266 . S
C259 C258 1.514 . S
C259 C260 1.359 . S
C259 C264 1.348 . S
C260 C259 1.359 . S
C260 C261 1.380 . S
C260 H288 0.929 . S
C261 C260 1.380 . S
C261 C262 1.347 . S
C261 H289 0.931 . S
C262 C261 1.347 . S
C262 C263 1.369 . S
C263 C262 1.369 . S
C263 C264 1.408 . S
C263 H290 0.930 . S
C264 C259 1.348 . S
C264 C263 1.408 . S
C264 H291 0.930 . S
C265 O278 1.281 . S
C265 O279 1.252 . S
C266 O280 1.236 . S
C266 O281 1.266 . S
C267 Tb257 2.809 . S
C267 C268 1.514 . S
C267 O282 1.248 . S
C267 O283 1.266 . S
C268 C267 1.514 . S
C268 C269 1.359 . S
C268 C273 1.348 . S
C269 C268 1.359 . S
C269 C270 1.380 . S
C269 H292 0.929 . S
C270 C269 1.380 . S
C270 C271 1.347 . S
C270 H293 0.931 . S
C271 C270 1.347 . S
C271 C272 1.369 . S
C272 C271 1.369 . S
C272 C273 1.408 . S
C272 H294 0.930 . S
C273 C268 1.348 . S
C273 C272 1.408 . S
C273 H295 0.930 . S
C274 O284 1.281 . S
C274 O285 1.254 1_655 S
C275 O286 1.236 1_655 S
C275 O287 1.266 . S
O276 Tb256 2.485 1_565 S
O276 C258 1.248 . S
O277 Tb256 2.441 1_565 S
O277 C258 1.266 . S
O278 Tb256 2.658 1_455 S
O278 Tb257 2.325 . S
O278 C265 1.281 . S
O279 Tb256 2.409 1_455 S
O279 C265 1.252 . S
O280 Tb256 2.379 1_465 S
O280 C266 1.236 . S
O281 Tb257 2.341 1_565 S
O281 C266 1.266 . S
O282 Tb257 2.484 . S
O282 C267 1.248 . S
O283 Tb257 2.440 . S
O283 C267 1.266 . S
O284 Tb256 2.325 1_565 S
O284 Tb257 2.658 1_665 S
O284 C274 1.281 . S
O285 Tb257 2.409 1_565 S
O285 C274 1.254 1_455 S
O286 Tb257 2.378 . S
O286 C275 1.236 1_455 S
O287 Tb256 2.341 . S
O287 C275 1.266 . S
H288 C260 0.929 . S
H289 C261 0.931 . S
H290 C263 0.930 . S
H291 C264 0.930 . S
H292 C269 0.929 . S
H293 C270 0.931 . S
H294 C272 0.930 . S
H295 C273 0.930 . S
Tb296 C298 2.809 . S
Tb296 O316 2.484 . S
Tb296 O317 2.440 . S
Tb296 O318 2.658 1_545 S
Tb296 O319 2.409 1_545 S
Tb296 O320 2.378 . S
Tb296 O324 2.325 1_554 S
Tb296 O327 2.341 1_544 S
Tb297 C307 2.809 1_545 S
Tb297 O318 2.325 1_546 S
Tb297 O321 2.341 1_556 S
Tb297 O322 2.484 1_545 S
Tb297 O323 2.440 1_545 S
Tb297 O324 2.658 . S
Tb297 O325 2.409 . S
Tb297 O326 2.378 1_545 S
C298 Tb296 2.809 . S
C298 C299 1.514 . S
C298 O316 1.248 . S
C298 O317 1.266 . S
C299 C298 1.514 . S
C299 C300 1.359 . S
C299 C304 1.348 . S
C300 C299 1.359 . S
C300 C301 1.380 . S
C300 H328 0.929 . S
C301 C300 1.380 . S
C301 C302 1.347 . S
C301 H329 0.931 . S
C302 C301 1.347 . S
C302 C303 1.369 . S
C303 C302 1.369 . S
C303 C304 1.408 . S
C303 H330 0.930 . S
C304 C299 1.348 . S
C304 C303 1.408 . S
C304 H331 0.930 . S
C305 O318 1.281 . S
C305 O319 1.254 . S
C306 O320 1.236 . S
C306 O321 1.266 . S
C307 Tb297 2.809 1_565 S
C307 C308 1.514 . S
C307 O322 1.248 . S
C307 O323 1.266 . S
C308 C307 1.514 . S
C308 C309 1.359 . S
C308 C313 1.348 . S
C309 C308 1.359 . S
C309 C310 1.380 . S
C309 H332 0.929 . S
C310 C309 1.380 . S
C310 C311 1.347 . S
C310 H333 0.931 . S
C311 C310 1.347 . S
C311 C312 1.369 . S
C312 C311 1.369 . S
C312 C313 1.408 . S
C312 H334 0.930 . S
C313 C308 1.348 . S
C313 C312 1.408 . S
C313 H335 0.930 . S
C314 O324 1.281 . S
C314 O325 1.254 . S
C315 O326 1.236 . S
C315 O327 1.266 . S
O316 Tb296 2.484 . S
O316 C298 1.248 . S
O317 Tb296 2.440 . S
O317 C298 1.266 . S
O318 Tb296 2.658 1_565 S
O318 Tb297 2.325 1_564 S
O318 C305 1.281 . S
O319 Tb296 2.409 1_565 S
O319 C305 1.254 . S
O320 Tb296 2.378 . S
O320 C306 1.236 . S
O321 Tb297 2.341 1_554 S
O321 C306 1.266 . S
O322 Tb297 2.484 1_565 S
O322 C307 1.248 . S
O323 Tb297 2.440 1_565 S
O323 C307 1.266 . S
O324 Tb296 2.325 1_556 S
O324 Tb297 2.658 . S
O324 C314 1.281 . S
O325 Tb297 2.409 . S
O325 C314 1.254 . S
O326 Tb297 2.378 1_565 S
O326 C315 1.236 . S
O327 Tb296 2.341 1_566 S
O327 C315 1.266 . S
H328 C300 0.929 . S
H329 C301 0.931 . S
H330 C303 0.930 . S
H331 C304 0.930 . S
H332 C309 0.929 . S
H333 C310 0.931 . S
H334 C312 0.930 . S
H335 C313 0.930 . S
Tb336 C338 2.809 . S
Tb336 O356 2.484 . S
Tb336 O357 2.440 . S
Tb336 O358 2.658 . S
Tb336 O359 2.409 . S
Tb336 O360 2.378 . S
Tb336 O364 2.325 . S
Tb336 O367 2.341 . S
Tb337 C347 2.809 . S
Tb337 O358 2.325 . S
Tb337 O361 2.341 . S
Tb337 O362 2.484 . S
Tb337 O363 2.440 . S
Tb337 O364 2.658 . S
Tb337 O365 2.409 . S
Tb337 O366 2.378 . S
C338 Tb336 2.809 . S
C338 C339 1.514 . S
C338 O356 1.248 . S
C338 O357 1.266 . S
C339 C338 1.514 . S
C339 C340 1.359 . S
C339 C344 1.348 . S
C340 C339 1.359 . S
C340 C341 1.380 . S
C340 H368 0.929 . S
C341 C340 1.380 . S
C341 C342 1.347 . S
C341 H369 0.931 . S
C342 C341 1.347 . S
C342 C343 1.369 . S
C343 C342 1.369 . S
C343 C344 1.408 . S
C343 H370 0.930 . S
C344 C339 1.348 . S
C344 C343 1.408 . S
C344 H371 0.930 . S
C345 O358 1.281 . S
C345 O359 1.254 . S
C346 O360 1.236 . S
C346 O361 1.266 . S
C347 Tb337 2.809 . S
C347 C348 1.514 . S
C347 O362 1.248 . S
C347 O363 1.266 . S
C348 C347 1.514 . S
C348 C349 1.359 . S
C348 C353 1.348 . S
C349 C348 1.359 . S
C349 C350 1.380 . S
C349 H372 0.929 . S
C350 C349 1.380 . S
C350 C351 1.347 . S
C350 H373 0.931 . S
C351 C350 1.347 . S
C351 C352 1.369 . S
C352 C351 1.369 . S
C352 C353 1.408 . S
C352 H374 0.930 . S
C353 C348 1.348 . S
C353 C352 1.408 . S
C353 H375 0.930 . S
C354 O364 1.281 . S
C354 O365 1.254 . S
C355 O366 1.236 . S
C355 O367 1.266 . S
O356 Tb336 2.484 . S
O356 C338 1.248 . S
O357 Tb336 2.440 . S
O357 C338 1.266 . S
O358 Tb336 2.658 . S
O358 Tb337 2.325 . S
O358 C345 1.281 . S
O359 Tb336 2.409 . S
O359 C345 1.254 . S
O360 Tb336 2.378 . S
O360 C346 1.236 . S
O361 Tb337 2.341 . S
O361 C346 1.266 . S
O362 Tb337 2.484 . S
O362 C347 1.248 . S
O363 Tb337 2.440 . S
O363 C347 1.266 . S
O364 Tb336 2.325 . S
O364 Tb337 2.658 . S
O364 C354 1.281 . S
O365 Tb337 2.409 . S
O365 C354 1.254 . S
O366 Tb337 2.378 . S
O366 C355 1.236 . S
O367 Tb336 2.341 . S
O367 C355 1.266 . S
H368 C340 0.929 . S
H369 C341 0.931 . S
H370 C343 0.930 . S
H371 C344 0.930 . S
H372 C349 0.929 . S
H373 C350 0.931 . S
H374 C352 0.930 . S
H375 C353 0.930 . S
Tb376 C378 2.809 1_455 S
Tb376 O396 2.484 1_455 S
Tb376 O397 2.440 1_455 S
Tb376 O398 2.658 1_556 S
Tb376 O399 2.409 1_556 S
Tb376 O400 2.378 1_456 S
Tb376 O404 2.325 1_455 S
Tb376 O407 2.341 . S
Tb377 C387 2.809 . S
Tb377 O398 2.325 . S
Tb377 O401 2.341 1_455 S
Tb377 O402 2.484 . S
Tb377 O403 2.440 . S
Tb377 O404 2.658 1_454 S
Tb377 O405 2.409 1_455 S
Tb377 O406 2.378 1_554 S
C378 Tb376 2.809 1_655 S
C378 C379 1.514 . S
C378 O396 1.248 . S
C378 O397 1.266 . S
C379 C378 1.514 . S
C379 C380 1.359 . S
C379 C384 1.348 . S
C380 C379 1.359 . S
C380 C381 1.380 . S
C380 H408 0.929 . S
C381 C380 1.380 . S
C381 C382 1.347 . S
C381 H409 0.931 . S
C382 C381 1.347 . S
C382 C383 1.369 . S
C383 C382 1.369 . S
C383 C384 1.408 . S
C383 H410 0.930 . S
C384 C379 1.348 . S
C384 C383 1.408 . S
C384 H411 0.930 . S
C385 O398 1.281 . S
C385 O399 1.254 . S
C386 O400 1.236 . S
C386 O401 1.266 . S
C387 Tb377 2.809 . S
C387 C388 1.514 . S
C387 O402 1.248 . S
C387 O403 1.266 . S
C388 C387 1.514 . S
C388 C389 1.359 . S
C388 C393 1.348 . S
C389 C388 1.359 . S
C389 C390 1.380 . S
C389 H412 0.929 . S
C390 C389 1.380 . S
C390 C391 1.347 . S
C390 H413 0.931 . S
C391 C390 1.347 . S
C391 C392 1.369 . S
C392 C391 1.369 . S
C392 C393 1.408 . S
C392 H414 0.930 . S
C393 C388 1.348 . S
C393 C392 1.408 . S
C393 H415 0.930 . S
C394 O404 1.281 . S
C394 O405 1.254 1_556 S
C395 O406 1.236 . S
C395 O407 1.266 . S
O396 Tb376 2.484 1_655 S
O396 C378 1.248 . S
O397 Tb376 2.440 1_655 S
O397 C378 1.266 . S
O398 Tb376 2.658 1_554 S
O398 Tb377 2.325 . S
O398 C385 1.281 . S
O399 Tb376 2.409 1_554 S
O399 C385 1.254 . S
O400 Tb376 2.378 1_654 S
O400 C386 1.236 . S
O401 Tb377 2.341 1_655 S
O401 C386 1.266 . S
O402 Tb377 2.484 . S
O402 C387 1.248 . S
O403 Tb377 2.440 . S
O403 C387 1.266 . S
O404 Tb376 2.325 1_655 S
O404 Tb377 2.658 1_656 S
O404 C394 1.281 . S
O405 Tb377 2.409 1_655 S
O405 C394 1.254 1_554 S
O406 Tb377 2.378 1_556 S
O406 C395 1.236 . S
O407 Tb376 2.341 . S
O407 C395 1.266 . S
H408 C380 0.929 . S
H409 C381 0.931 . S
H410 C383 0.930 . S
H411 C384 0.930 . S
H412 C389 0.929 . S
H413 C390 0.931 . S
H414 C392 0.930 . S
H415 C393 0.930 . S
H416 C428 0.930 . S
H417 C430 0.930 . S
H418 C431 0.930 . S
H419 C435 0.959 . S
H420 C435 0.959 . S
H421 C435 0.961 . S
H422 C436 0.960 . S
H423 C436 0.961 . S
H424 C436 0.959 . S
H425 C439 0.929 . S
H426 C440 0.931 . S
H427 C442 0.930 . S
C428 H416 0.930 . S
C428 C429 1.399 . S
C428 C433 1.399 . S
C429 C428 1.399 . S
C429 C430 1.376 . S
C430 H417 0.930 . S
C430 C429 1.376 . S
C430 C431 1.388 . S
C431 H418 0.930 . S
C431 C430 1.388 . S
C431 C432 1.390 . S
C432 C431 1.390 . S
C432 C433 1.394 . S
C432 C438 1.465 . S
C433 C428 1.399 . S
C433 C432 1.394 . S
C433 C434 1.516 . S
C434 C433 1.516 . S
C434 C435 1.502 . S
C434 C436 1.561 . S
C434 C437 1.526 . S
C435 H419 0.959 . S
C435 H420 0.959 . S
C435 H421 0.961 . S
C435 C434 1.502 . S
C436 H422 0.960 . S
C436 H423 0.961 . S
C436 H424 0.959 . S
C436 C434 1.561 . S
C437 C434 1.526 . S
C437 C438 1.396 . S
C437 C442 1.390 . S
C438 C432 1.465 . S
C438 C437 1.396 . S
C438 C439 1.399 . S
C439 H425 0.929 . S
C439 C438 1.399 . S
C439 C440 1.385 . S
C440 H426 0.931 . S
C440 C439 1.385 . S
C440 C441 1.389 . S
C441 C440 1.389 . S
C441 C442 1.387 . S
C442 H427 0.930 . S
C442 C437 1.390 . S
C442 C441 1.387 . S
H443 C455 0.930 . S
H444 C457 0.930 . S
H445 C458 0.930 . S
H446 C462 0.959 . S
H447 C462 0.959 . S
H448 C462 0.961 . S
H449 C463 0.960 . S
H450 C463 0.961 . S
H451 C463 0.959 . S
H452 C466 0.929 . S
H453 C467 0.931 . S
H454 C469 0.930 . S
C455 H443 0.930 . S
C455 C456 1.399 . S
C455 C460 1.399 . S
C456 C455 1.399 . S
C456 C457 1.376 . S
C457 H444 0.930 . S
C457 C456 1.376 . S
C457 C458 1.388 . S
C458 H445 0.930 . S
C458 C457 1.388 . S
C458 C459 1.390 . S
C459 C458 1.390 . S
C459 C460 1.394 . S
C459 C465 1.465 . S
C460 C455 1.399 . S
C460 C459 1.394 . S
C460 C461 1.516 . S
C461 C460 1.516 . S
C461 C462 1.502 . S
C461 C463 1.561 . S
C461 C464 1.526 . S
C462 H446 0.959 . S
C462 H447 0.959 . S
C462 H448 0.961 . S
C462 C461 1.502 . S
C463 H449 0.960 . S
C463 H450 0.961 . S
C463 H451 0.959 . S
C463 C461 1.561 . S
C464 C461 1.526 . S
C464 C465 1.396 . S
C464 C469 1.390 . S
C465 C459 1.465 . S
C465 C464 1.396 . S
C465 C466 1.399 . S
C466 H452 0.929 . S
C466 C465 1.399 . S
C466 C467 1.385 . S
C467 H453 0.931 . S
C467 C466 1.385 . S
C467 C468 1.389 . S
C468 C467 1.389 . S
C468 C469 1.387 . S
C469 H454 0.930 . S
C469 C464 1.390 . S
C469 C468 1.387 . S
H470 C482 0.930 . S
H471 C484 0.930 . S
H472 C485 0.930 . S
H473 C489 0.959 . S
H474 C489 0.959 . S
H475 C489 0.961 . S
H476 C490 0.960 . S
H477 C490 0.961 . S
H478 C490 0.959 . S
H479 C493 0.929 . S
H480 C494 0.931 . S
H481 C496 0.930 . S
C482 H470 0.930 . S
C482 C483 1.399 . S
C482 C487 1.399 . S
C483 C482 1.399 . S
C483 C484 1.376 . S
C484 H471 0.930 . S
C484 C483 1.376 . S
C484 C485 1.388 . S
C485 H472 0.930 . S
C485 C484 1.388 . S
C485 C486 1.390 . S
C486 C485 1.390 . S
C486 C487 1.394 . S
C486 C492 1.465 . S
C487 C482 1.399 . S
C487 C486 1.394 . S
C487 C488 1.516 . S
C488 C487 1.516 . S
C488 C489 1.502 . S
C488 C490 1.561 . S
C488 C491 1.526 . S
C489 H473 0.959 . S
C489 H474 0.959 . S
C489 H475 0.961 . S
C489 C488 1.502 . S
C490 H476 0.960 . S
C490 H477 0.961 . S
C490 H478 0.959 . S
C490 C488 1.561 . S
C491 C488 1.526 . S
C491 C492 1.396 . S
C491 C496 1.390 . S
C492 C486 1.465 . S
C492 C491 1.396 . S
C492 C493 1.399 . S
C493 H479 0.929 . S
C493 C492 1.399 . S
C493 C494 1.385 . S
C494 H480 0.931 . S
C494 C493 1.385 . S
C494 C495 1.389 . S
C495 C494 1.389 . S
C495 C496 1.387 . S
C496 H481 0.930 . S
C496 C491 1.390 . S
C496 C495 1.387 . S
H497 C509 0.930 . S
H498 C511 0.930 . S
H499 C512 0.930 . S
H500 C516 0.959 . S
H501 C516 0.959 . S
H502 C516 0.961 . S
H503 C517 0.960 . S
H504 C517 0.961 . S
H505 C517 0.959 . S
H506 C520 0.929 . S
H507 C521 0.931 . S
H508 C523 0.930 . S
C509 H497 0.930 . S
C509 C510 1.399 . S
C509 C514 1.399 . S
C510 C509 1.399 . S
C510 C511 1.376 . S
C511 H498 0.930 . S
C511 C510 1.376 . S
C511 C512 1.388 . S
C512 H499 0.930 . S
C512 C511 1.388 . S
C512 C513 1.390 . S
C513 C512 1.390 . S
C513 C514 1.394 . S
C513 C519 1.465 . S
C514 C509 1.399 . S
C514 C513 1.394 . S
C514 C515 1.516 . S
C515 C514 1.516 . S
C515 C516 1.502 . S
C515 C517 1.561 . S
C515 C518 1.526 . S
C516 H500 0.959 . S
C516 H501 0.959 . S
C516 H502 0.961 . S
C516 C515 1.502 . S
C517 H503 0.960 . S
C517 H504 0.961 . S
C517 H505 0.959 . S
C517 C515 1.561 . S
C518 C515 1.526 . S
C518 C519 1.396 . S
C518 C523 1.390 . S
C519 C513 1.465 . S
C519 C518 1.396 . S
C519 C520 1.399 . S
C520 H506 0.929 . S
C520 C519 1.399 . S
C520 C521 1.385 . S
C521 H507 0.931 . S
C521 C520 1.385 . S
C521 C522 1.389 . S
C522 C521 1.389 . S
C522 C523 1.387 . S
C523 H508 0.930 . S
C523 C518 1.390 . S
C523 C522 1.387 . S
H524 C536 0.930 . S
H525 C538 0.930 . S
H526 C539 0.930 . S
H527 C543 0.959 . S
H528 C543 0.959 . S
H529 C543 0.961 . S
H530 C544 0.960 . S
H531 C544 0.961 . S
H532 C544 0.959 . S
H533 C547 0.929 . S
H534 C548 0.931 . S
H535 C550 0.930 . S
C536 H524 0.930 . S
C536 C537 1.399 . S
C536 C541 1.399 . S
C537 C536 1.399 . S
C537 C538 1.376 . S
C538 H525 0.930 . S
C538 C537 1.376 . S
C538 C539 1.388 . S
C539 H526 0.930 . S
C539 C538 1.388 . S
C539 C540 1.390 . S
C540 C539 1.390 . S
C540 C541 1.394 . S
C540 C546 1.465 . S
C541 C536 1.399 . S
C541 C540 1.394 . S
C541 C542 1.516 . S
C542 C541 1.516 . S
C542 C543 1.502 . S
C542 C544 1.561 . S
C542 C545 1.526 . S
C543 H527 0.959 . S
C543 H528 0.959 . S
C543 H529 0.961 . S
C543 C542 1.502 . S
C544 H530 0.960 . S
C544 H531 0.961 . S
C544 H532 0.959 . S
C544 C542 1.561 . S
C545 C542 1.526 . S
C545 C546 1.396 . S
C545 C550 1.390 . S
C546 C540 1.465 . S
C546 C545 1.396 . S
C546 C547 1.399 . S
C547 H533 0.929 . S
C547 C546 1.399 . S
C547 C548 1.385 . S
C548 H534 0.931 . S
C548 C547 1.385 . S
C548 C549 1.389 . S
C549 C548 1.389 . S
C549 C550 1.387 . S
C550 H535 0.930 . S
C550 C545 1.390 . S
C550 C549 1.387 . S
H551 C563 0.930 . S
H552 C565 0.930 . S
H553 C566 0.930 . S
H554 C570 0.959 . S
H555 C570 0.959 . S
H556 C570 0.961 . S
H557 C571 0.960 . S
H558 C571 0.961 . S
H559 C571 0.959 . S
H560 C574 0.929 . S
H561 C575 0.931 . S
H562 C577 0.930 . S
C563 H551 0.930 . S
C563 C564 1.399 . S
C563 C568 1.399 . S
C564 C563 1.399 . S
C564 C565 1.376 . S
C565 H552 0.930 . S
C565 C564 1.376 . S
C565 C566 1.388 . S
C566 H553 0.930 . S
C566 C565 1.388 . S
C566 C567 1.390 . S
C567 C566 1.390 . S
C567 C568 1.394 . S
C567 C573 1.465 . S
C568 C563 1.399 . S
C568 C567 1.394 . S
C568 C569 1.516 . S
C569 C568 1.516 . S
C569 C570 1.502 . S
C569 C571 1.561 . S
C569 C572 1.526 . S
C570 H554 0.959 . S
C570 H555 0.959 . S
C570 H556 0.961 . S
C570 C569 1.502 . S
C571 H557 0.960 . S
C571 H558 0.961 . S
C571 H559 0.959 . S
C571 C569 1.561 . S
C572 C569 1.526 . S
C572 C573 1.396 . S
C572 C577 1.390 . S
C573 C567 1.465 . S
C573 C572 1.396 . S
C573 C574 1.399 . S
C574 H560 0.929 . S
C574 C573 1.399 . S
C574 C575 1.385 . S
C575 H561 0.931 . S
C575 C574 1.385 . S
C575 C576 1.389 . S
C576 C575 1.389 . S
C576 C577 1.387 . S
C577 H562 0.930 . S
C577 C572 1.390 . S
C577 C576 1.387 . S
H578 C590 0.930 . S
H579 C592 0.930 . S
H580 C593 0.930 . S
H581 C597 0.959 . S
H582 C597 0.959 . S
H583 C597 0.961 . S
H584 C598 0.960 . S
H585 C598 0.961 . S
H586 C598 0.959 . S
H587 C601 0.929 . S
H588 C602 0.931 . S
H589 C604 0.930 . S
C590 H578 0.930 . S
C590 C591 1.399 . S
C590 C595 1.399 . S
C591 C590 1.399 . S
C591 C592 1.376 . S
C592 H579 0.930 . S
C592 C591 1.376 . S
C592 C593 1.388 . S
C593 H580 0.930 . S
C593 C592 1.388 . S
C593 C594 1.390 . S
C594 C593 1.390 . S
C594 C595 1.394 . S
C594 C600 1.465 . S
C595 C590 1.399 . S
C595 C594 1.394 . S
C595 C596 1.516 . S
C596 C595 1.516 . S
C596 C597 1.502 . S
C596 C598 1.561 . S
C596 C599 1.526 . S
C597 H581 0.959 . S
C597 H582 0.959 . S
C597 H583 0.961 . S
C597 C596 1.502 . S
C598 H584 0.960 . S
C598 H585 0.961 . S
C598 H586 0.959 . S
C598 C596 1.561 . S
C599 C596 1.526 . S
C599 C600 1.396 . S
C599 C604 1.390 . S
C600 C594 1.465 . S
C600 C599 1.396 . S
C600 C601 1.399 . S
C601 H587 0.929 . S
C601 C600 1.399 . S
C601 C602 1.385 . S
C602 H588 0.931 . S
C602 C601 1.385 . S
C602 C603 1.389 . S
C603 C602 1.389 . S
C603 C604 1.387 . S
C604 H589 0.930 . S
C604 C599 1.390 . S
C604 C603 1.387 . S
H605 C617 0.930 . S
H606 C619 0.930 . S
H607 C620 0.930 . S
H608 C624 0.959 . S
H609 C624 0.959 . S
H610 C624 0.961 . S
H611 C625 0.960 . S
H612 C625 0.961 . S
H613 C625 0.959 . S
H614 C628 0.929 . S
H615 C629 0.931 . S
H616 C631 0.930 . S
C617 H605 0.930 . S
C617 C618 1.399 . S
C617 C622 1.399 . S
C618 C617 1.399 . S
C618 C619 1.376 . S
C619 H606 0.930 . S
C619 C618 1.376 . S
C619 C620 1.388 . S
C620 H607 0.930 . S
C620 C619 1.388 . S
C620 C621 1.390 . S
C621 C620 1.390 . S
C621 C622 1.394 . S
C621 C627 1.465 . S
C622 C617 1.399 . S
C622 C621 1.394 . S
C622 C623 1.516 . S
C623 C622 1.516 . S
C623 C624 1.502 . S
C623 C625 1.561 . S
C623 C626 1.526 . S
C624 H608 0.959 . S
C624 H609 0.959 . S
C624 H610 0.961 . S
C624 C623 1.502 . S
C625 H611 0.960 . S
C625 H612 0.961 . S
C625 H613 0.959 . S
C625 C623 1.561 . S
C626 C623 1.526 . S
C626 C627 1.396 . S
C626 C631 1.390 . S
C627 C621 1.465 . S
C627 C626 1.396 . S
C627 C628 1.399 . S
C628 H614 0.929 . S
C628 C627 1.399 . S
C628 C629 1.385 . S
C629 H615 0.931 . S
C629 C628 1.385 . S
C629 C630 1.389 . S
C630 C629 1.389 . S
C630 C631 1.387 . S
C631 H616 0.930 . S
C631 C626 1.390 . S
C631 C630 1.387 . S
H632 C644 0.930 . S
H633 C646 0.930 . S
H634 C647 0.930 . S
H635 C651 0.959 . S
H636 C651 0.959 . S
H637 C651 0.961 . S
H638 C652 0.960 . S
H639 C652 0.961 . S
H640 C652 0.959 . S
H641 C655 0.929 . S
H642 C656 0.931 . S
H643 C658 0.930 . S
C644 H632 0.930 . S
C644 C645 1.399 . S
C644 C649 1.399 . S
C645 C644 1.399 . S
C645 C646 1.376 . S
C646 H633 0.930 . S
C646 C645 1.376 . S
C646 C647 1.388 . S
C647 H634 0.930 . S
C647 C646 1.388 . S
C647 C648 1.390 . S
C648 C647 1.390 . S
C648 C649 1.394 . S
C648 C654 1.465 . S
C649 C644 1.399 . S
C649 C648 1.394 . S
C649 C650 1.516 . S
C650 C649 1.516 . S
C650 C651 1.502 . S
C650 C652 1.561 . S
C650 C653 1.526 . S
C651 H635 0.959 . S
C651 H636 0.959 . S
C651 H637 0.961 . S
C651 C650 1.502 . S
C652 H638 0.960 . S
C652 H639 0.961 . S
C652 H640 0.959 . S
C652 C650 1.561 . S
C653 C650 1.526 . S
C653 C654 1.396 . S
C653 C658 1.390 . S
C654 C648 1.465 . S
C654 C653 1.396 . S
C654 C655 1.399 . S
C655 H641 0.929 . S
C655 C654 1.399 . S
C655 C656 1.385 . S
C656 H642 0.931 . S
C656 C655 1.385 . S
C656 C657 1.389 . S
C657 C656 1.389 . S
C657 C658 1.387 . S
C658 H643 0.930 . S
C658 C653 1.390 . S
C658 C657 1.387 . S
H659 C671 0.930 . S
H660 C673 0.930 . S
H661 C674 0.930 . S
H662 C678 0.959 . S
H663 C678 0.959 . S
H664 C678 0.961 . S
H665 C679 0.960 . S
H666 C679 0.961 . S
H667 C679 0.959 . S
H668 C682 0.929 . S
H669 C683 0.931 . S
H670 C685 0.930 . S
C671 H659 0.930 . S
C671 C672 1.399 . S
C671 C676 1.399 . S
C672 C671 1.399 . S
C672 C673 1.376 . S
C673 H660 0.930 . S
C673 C672 1.376 . S
C673 C674 1.388 . S
C674 H661 0.930 . S
C674 C673 1.388 . S
C674 C675 1.390 . S
C675 C674 1.390 . S
C675 C676 1.394 . S
C675 C681 1.465 . S
C676 C671 1.399 . S
C676 C675 1.394 . S
C676 C677 1.516 . S
C677 C676 1.516 . S
C677 C678 1.502 . S
C677 C679 1.561 . S
C677 C680 1.526 . S
C678 H662 0.959 . S
C678 H663 0.959 . S
C678 H664 0.961 . S
C678 C677 1.502 . S
C679 H665 0.960 . S
C679 H666 0.961 . S
C679 H667 0.959 . S
C679 C677 1.561 . S
C680 C677 1.526 . S
C680 C681 1.396 . S
C680 C685 1.390 . S
C681 C675 1.465 . S
C681 C680 1.396 . S
C681 C682 1.399 . S
C682 H668 0.929 . S
C682 C681 1.399 . S
C682 C683 1.385 . S
C683 H669 0.931 . S
C683 C682 1.385 . S
C683 C684 1.389 . S
C684 C683 1.389 . S
C684 C685 1.387 . S
C685 H670 0.930 . S
C685 C680 1.390 . S
C685 C684 1.387 . S
H686 C698 0.930 . S
H687 C700 0.930 . S
H688 C701 0.930 . S
H689 C705 0.959 . S
H690 C705 0.959 . S
H691 C705 0.961 . S
H692 C706 0.960 . S
H693 C706 0.961 . S
H694 C706 0.959 . S
H695 C709 0.929 . S
H696 C710 0.931 . S
H697 C712 0.930 . S
C698 H686 0.930 . S
C698 C699 1.399 . S
C698 C703 1.399 . S
C699 C698 1.399 . S
C699 C700 1.376 . S
C700 H687 0.930 . S
C700 C699 1.376 . S
C700 C701 1.388 . S
C701 H688 0.930 . S
C701 C700 1.388 . S
C701 C702 1.390 . S
C702 C701 1.390 . S
C702 C703 1.394 . S
C702 C708 1.465 . S
C703 C698 1.399 . S
C703 C702 1.394 . S
C703 C704 1.516 . S
C704 C703 1.516 . S
C704 C705 1.502 . S
C704 C706 1.561 . S
C704 C707 1.526 . S
C705 H689 0.959 . S
C705 H690 0.959 . S
C705 H691 0.961 . S
C705 C704 1.502 . S
C706 H692 0.960 . S
C706 H693 0.961 . S
C706 H694 0.959 . S
C706 C704 1.561 . S
C707 C704 1.526 . S
C707 C708 1.396 . S
C707 C712 1.390 . S
C708 C702 1.465 . S
C708 C707 1.396 . S
C708 C709 1.399 . S
C709 H695 0.929 . S
C709 C708 1.399 . S
C709 C710 1.385 . S
C710 H696 0.931 . S
C710 C709 1.385 . S
C710 C711 1.389 . S
C711 C710 1.389 . S
C711 C712 1.387 . S
C712 H697 0.930 . S
C712 C707 1.390 . S
C712 C711 1.387 . S
H713 C725 0.930 . S
H714 C727 0.930 . S
H715 C728 0.930 . S
H716 C732 0.959 . S
H717 C732 0.959 . S
H718 C732 0.961 . S
H719 C733 0.960 . S
H720 C733 0.961 . S
H721 C733 0.959 . S
H722 C736 0.929 . S
H723 C737 0.931 . S
H724 C739 0.930 . S
C725 H713 0.930 . S
C725 C726 1.399 . S
C725 C730 1.399 . S
C726 C725 1.399 . S
C726 C727 1.376 . S
C727 H714 0.930 . S
C727 C726 1.376 . S
C727 C728 1.388 . S
C728 H715 0.930 . S
C728 C727 1.388 . S
C728 C729 1.390 . S
C729 C728 1.390 . S
C729 C730 1.394 . S
C729 C735 1.465 . S
C730 C725 1.399 . S
C730 C729 1.394 . S
C730 C731 1.516 . S
C731 C730 1.516 . S
C731 C732 1.502 . S
C731 C733 1.561 . S
C731 C734 1.526 . S
C732 H716 0.959 . S
C732 H717 0.959 . S
C732 H718 0.961 . S
C732 C731 1.502 . S
C733 H719 0.960 . S
C733 H720 0.961 . S
C733 H721 0.959 . S
C733 C731 1.561 . S
C734 C731 1.526 . S
C734 C735 1.396 . S
C734 C739 1.390 . S
C735 C729 1.465 . S
C735 C734 1.396 . S
C735 C736 1.399 . S
C736 H722 0.929 . S
C736 C735 1.399 . S
C736 C737 1.385 . S
C737 H723 0.931 . S
C737 C736 1.385 . S
C737 C738 1.389 . S
C738 C737 1.389 . S
C738 C739 1.387 . S
C739 H724 0.930 . S
C739 C734 1.390 . S
C739 C738 1.387 . S
H740 C752 0.930 . S
H741 C754 0.930 . S
H742 C755 0.930 . S
H743 C759 0.959 . S
H744 C759 0.959 . S
H745 C759 0.961 . S
H746 C760 0.960 . S
H747 C760 0.961 . S
H748 C760 0.959 . S
H749 C763 0.929 . S
H750 C764 0.931 . S
H751 C766 0.930 . S
C752 H740 0.930 . S
C752 C753 1.399 . S
C752 C757 1.399 . S
C753 C752 1.399 . S
C753 C754 1.376 . S
C754 H741 0.930 . S
C754 C753 1.376 . S
C754 C755 1.388 . S
C755 H742 0.930 . S
C755 C754 1.388 . S
C755 C756 1.390 . S
C756 C755 1.390 . S
C756 C757 1.394 . S
C756 C762 1.465 . S
C757 C752 1.399 . S
C757 C756 1.394 . S
C757 C758 1.516 . S
C758 C757 1.516 . S
C758 C759 1.502 . S
C758 C760 1.561 . S
C758 C761 1.526 . S
C759 H743 0.959 . S
C759 H744 0.959 . S
C759 H745 0.961 . S
C759 C758 1.502 . S
C760 H746 0.960 . S
C760 H747 0.961 . S
C760 H748 0.959 . S
C760 C758 1.561 . S
C761 C758 1.526 . S
C761 C762 1.396 . S
C761 C766 1.390 . S
C762 C756 1.465 . S
C762 C761 1.396 . S
C762 C763 1.399 . S
C763 H749 0.929 . S
C763 C762 1.399 . S
C763 C764 1.385 . S
C764 H750 0.931 . S
C764 C763 1.385 . S
C764 C765 1.389 . S
C765 C764 1.389 . S
C765 C766 1.387 . S
C766 H751 0.930 . S
C766 C761 1.390 . S
C766 C765 1.387 . S
H767 C779 0.930 . S
H768 C781 0.930 . S
H769 C782 0.930 . S
H770 C786 0.959 . S
H771 C786 0.959 . S
H772 C786 0.961 . S
H773 C787 0.960 . S
H774 C787 0.961 . S
H775 C787 0.959 . S
H776 C790 0.929 . S
H777 C791 0.931 . S
H778 C793 0.930 . S
C779 H767 0.930 . S
C779 C780 1.399 . S
C779 C784 1.399 . S
C780 C779 1.399 . S
C780 C781 1.376 . S
C781 H768 0.930 . S
C781 C780 1.376 . S
C781 C782 1.388 . S
C782 H769 0.930 . S
C782 C781 1.388 . S
C782 C783 1.390 . S
C783 C782 1.390 . S
C783 C784 1.394 . S
C783 C789 1.465 . S
C784 C779 1.399 . S
C784 C783 1.394 . S
C784 C785 1.516 . S
C785 C784 1.516 . S
C785 C786 1.502 . S
C785 C787 1.561 . S
C785 C788 1.526 . S
C786 H770 0.959 . S
C786 H771 0.959 . S
C786 H772 0.961 . S
C786 C785 1.502 . S
C787 H773 0.960 . S
C787 H774 0.961 . S
C787 H775 0.959 . S
C787 C785 1.561 . S
C788 C785 1.526 . S
C788 C789 1.396 . S
C788 C793 1.390 . S
C789 C783 1.465 . S
C789 C788 1.396 . S
C789 C790 1.399 . S
C790 H776 0.929 . S
C790 C789 1.399 . S
C790 C791 1.385 . S
C791 H777 0.931 . S
C791 C790 1.385 . S
C791 C792 1.389 . S
C792 C791 1.389 . S
C792 C793 1.387 . S
C793 H778 0.930 . S
C793 C788 1.390 . S
C793 C792 1.387 . S
H794 C806 0.930 . S
H795 C808 0.930 . S
H796 C809 0.930 . S
H797 C813 0.959 . S
H798 C813 0.959 . S
H799 C813 0.961 . S
H800 C814 0.960 . S
H801 C814 0.961 . S
H802 C814 0.959 . S
H803 C817 0.929 . S
H804 C818 0.931 . S
H805 C820 0.930 . S
C806 H794 0.930 . S
C806 C807 1.399 . S
C806 C811 1.399 . S
C807 C806 1.399 . S
C807 C808 1.376 . S
C808 H795 0.930 . S
C808 C807 1.376 . S
C808 C809 1.388 . S
C809 H796 0.930 . S
C809 C808 1.388 . S
C809 C810 1.390 . S
C810 C809 1.390 . S
C810 C811 1.394 . S
C810 C816 1.465 . S
C811 C806 1.399 . S
C811 C810 1.394 . S
C811 C812 1.516 . S
C812 C811 1.516 . S
C812 C813 1.502 . S
C812 C814 1.561 . S
C812 C815 1.526 . S
C813 H797 0.959 . S
C813 H798 0.959 . S
C813 H799 0.961 . S
C813 C812 1.502 . S
C814 H800 0.960 . S
C814 H801 0.961 . S
C814 H802 0.959 . S
C814 C812 1.561 . S
C815 C812 1.526 . S
C815 C816 1.396 . S
C815 C820 1.390 . S
C816 C810 1.465 . S
C816 C815 1.396 . S
C816 C817 1.399 . S
C817 H803 0.929 . S
C817 C816 1.399 . S
C817 C818 1.385 . S
C818 H804 0.931 . S
C818 C817 1.385 . S
C818 C819 1.389 . S
C819 C818 1.389 . S
C819 C820 1.387 . S
C820 H805 0.930 . S
C820 C815 1.390 . S
C820 C819 1.387 . S
H821 C833 0.930 . S
H822 C835 0.930 . S
H823 C836 0.930 . S
H824 C840 0.959 . S
H825 C840 0.959 . S
H826 C840 0.961 . S
H827 C841 0.960 . S
H828 C841 0.961 . S
H829 C841 0.959 . S
H830 C844 0.929 . S
H831 C845 0.931 . S
H832 C847 0.930 . S
C833 H821 0.930 . S
C833 C834 1.399 . S
C833 C838 1.399 . S
C834 C833 1.399 . S
C834 C835 1.376 . S
C835 H822 0.930 . S
C835 C834 1.376 . S
C835 C836 1.388 . S
C836 H823 0.930 . S
C836 C835 1.388 . S
C836 C837 1.390 . S
C837 C836 1.390 . S
C837 C838 1.394 . S
C837 C843 1.465 . S
C838 C833 1.399 . S
C838 C837 1.394 . S
C838 C839 1.516 . S
C839 C838 1.516 . S
C839 C840 1.502 . S
C839 C841 1.561 . S
C839 C842 1.526 . S
C840 H824 0.959 . S
C840 H825 0.959 . S
C840 H826 0.961 . S
C840 C839 1.502 . S
C841 H827 0.960 . S
C841 H828 0.961 . S
C841 H829 0.959 . S
C841 C839 1.561 . S
C842 C839 1.526 . S
C842 C843 1.396 . S
C842 C847 1.390 . S
C843 C837 1.465 . S
C843 C842 1.396 . S
C843 C844 1.399 . S
C844 H830 0.929 . S
C844 C843 1.399 . S
C844 C845 1.385 . S
C845 H831 0.931 . S
C845 C844 1.385 . S
C845 C846 1.389 . S
C846 C845 1.389 . S
C846 C847 1.387 . S
C847 H832 0.930 . S
C847 C842 1.390 . S
C847 C846 1.387 . S
H848 C860 0.930 . S
H849 C862 0.930 . S
H850 C863 0.930 . S
H851 C867 0.959 . S
H852 C867 0.959 . S
H853 C867 0.961 . S
H854 C868 0.960 . S
H855 C868 0.961 . S
H856 C868 0.959 . S
H857 C871 0.929 . S
H858 C872 0.931 . S
H859 C874 0.930 . S
C860 H848 0.930 . S
C860 C861 1.399 . S
C860 C865 1.399 . S
C861 C860 1.399 . S
C861 C862 1.376 . S
C862 H849 0.930 . S
C862 C861 1.376 . S
C862 C863 1.388 . S
C863 H850 0.930 . S
C863 C862 1.388 . S
C863 C864 1.390 . S
C864 C863 1.390 . S
C864 C865 1.394 . S
C864 C870 1.465 . S
C865 C860 1.399 . S
C865 C864 1.394 . S
C865 C866 1.516 . S
C866 C865 1.516 . S
C866 C867 1.502 . S
C866 C868 1.561 . S
C866 C869 1.526 . S
C867 H851 0.959 . S
C867 H852 0.959 . S
C867 H853 0.961 . S
C867 C866 1.502 . S
C868 H854 0.960 . S
C868 H855 0.961 . S
C868 H856 0.959 . S
C868 C866 1.561 . S
C869 C866 1.526 . S
C869 C870 1.396 . S
C869 C874 1.390 . S
C870 C864 1.465 . S
C870 C869 1.396 . S
C870 C871 1.399 . S
C871 H857 0.929 . S
C871 C870 1.399 . S
C871 C872 1.385 . S
C872 H858 0.931 . S
C872 C871 1.385 . S
C872 C873 1.389 . S
C873 C872 1.389 . S
C873 C874 1.387 . S
C874 H859 0.930 . S
C874 C869 1.390 . S
C874 C873 1.387 . S
H875 C887 0.930 . S
H876 C889 0.930 . S
H877 C890 0.930 1_455 S
H878 C894 0.959 . S
H879 C894 0.959 . S
H880 C894 0.961 . S
H881 C895 0.960 . S
H882 C895 0.961 . S
H883 C895 0.959 . S
H884 C898 0.929 . S
H885 C899 0.956 . S
H886 C901 0.930 . S
C887 H875 0.930 . S
C887 C888 1.399 . S
C887 C892 1.399 . S
C888 C887 1.399 . S
C888 C889 1.376 . S
C889 H876 0.930 . S
C889 C888 1.376 . S
C889 C890 1.388 . S
C890 H877 0.930 1_655 S
C890 C889 1.388 . S
C890 C891 1.390 . S
C891 C890 1.390 . S
C891 C892 1.394 . S
C891 C897 1.465 . S
C892 C887 1.399 . S
C892 C891 1.394 . S
C892 C893 1.516 . S
C893 C892 1.516 . S
C893 C894 1.502 . S
C893 C895 1.561 . S
C893 C896 1.526 . S
C894 H878 0.959 . S
C894 H879 0.959 . S
C894 H880 0.961 . S
C894 C893 1.502 . S
C895 H881 0.960 . S
C895 H882 0.961 . S
C895 H883 0.959 . S
C895 C893 1.561 . S
C896 C893 1.526 . S
C896 C897 1.396 . S
C896 C901 1.390 . S
C897 C891 1.465 . S
C897 C896 1.396 . S
C897 C898 1.399 1_655 S
C898 H884 0.929 . S
C898 C897 1.399 1_455 S
C898 C899 1.382 . S
C899 H885 0.956 . S
C899 C898 1.382 . S
C899 C900 1.368 1_455 S
C900 C899 1.368 1_655 S
C900 C901 1.387 . S
C901 H886 0.930 . S
C901 C896 1.390 . S
C901 C900 1.387 . S
H902 C914 0.930 . S
H903 C916 0.930 . S
H904 C917 0.930 . S
H905 C921 0.959 . S
H906 C921 0.959 . S
H907 C921 0.961 . S
H908 C922 0.960 . S
H909 C922 0.961 . S
H910 C922 0.959 . S
H911 C925 0.929 . S
H912 C926 0.931 . S
H913 C928 0.930 . S
C914 H902 0.930 . S
C914 C915 1.399 . S
C914 C919 1.399 . S
C915 C914 1.399 . S
C915 C916 1.376 . S
C916 H903 0.930 . S
C916 C915 1.376 . S
C916 C917 1.388 . S
C917 H904 0.930 . S
C917 C916 1.388 . S
C917 C918 1.390 . S
C918 C917 1.390 . S
C918 C919 1.394 . S
C918 C924 1.465 . S
C919 C914 1.399 . S
C919 C918 1.394 . S
C919 C920 1.516 . S
C920 C919 1.516 . S
C920 C921 1.502 . S
C920 C922 1.561 . S
C920 C923 1.526 . S
C921 H905 0.959 . S
C921 H906 0.959 . S
C921 H907 0.961 . S
C921 C920 1.502 . S
C922 H908 0.960 . S
C922 H909 0.961 . S
C922 H910 0.959 . S
C922 C920 1.561 . S
C923 C920 1.526 . S
C923 C924 1.396 . S
C923 C928 1.390 . S
C924 C918 1.465 . S
C924 C923 1.396 . S
C924 C925 1.399 . S
C925 H911 0.929 . S
C925 C924 1.399 . S
C925 C926 1.385 . S
C926 H912 0.931 . S
C926 C925 1.385 . S
C926 C927 1.389 . S
C927 C926 1.389 . S
C927 C928 1.387 . S
C928 H913 0.930 . S
C928 C923 1.390 . S
C928 C927 1.387 . S
H929 C941 0.930 . S
H930 C943 0.930 . S
H931 C944 0.930 . S
H932 C948 0.959 . S
H933 C948 0.959 . S
H934 C948 0.961 . S
H935 C949 0.960 . S
H936 C949 0.961 . S
H937 C949 0.959 . S
H938 C952 0.929 . S
H939 C953 0.931 . S
H940 C955 0.930 . S
C941 H929 0.930 . S
C941 C942 1.399 . S
C941 C946 1.399 . S
C942 C941 1.399 . S
C942 C943 1.376 . S
C943 H930 0.930 . S
C943 C942 1.376 . S
C943 C944 1.388 . S
C944 H931 0.930 . S
C944 C943 1.388 . S
C944 C945 1.390 . S
C945 C944 1.390 . S
C945 C946 1.394 . S
C945 C951 1.465 . S
C946 C941 1.399 . S
C946 C945 1.394 . S
C946 C947 1.516 . S
C947 C946 1.516 . S
C947 C948 1.502 . S
C947 C949 1.561 . S
C947 C950 1.526 . S
C948 H932 0.959 . S
C948 H933 0.959 . S
C948 H934 0.961 . S
C948 C947 1.502 . S
C949 H935 0.960 . S
C949 H936 0.961 . S
C949 H937 0.959 . S
C949 C947 1.561 . S
C950 C947 1.526 . S
C950 C951 1.396 . S
C950 C955 1.390 . S
C951 C945 1.465 . S
C951 C950 1.396 . S
C951 C952 1.399 . S
C952 H938 0.929 . S
C952 C951 1.399 . S
C952 C953 1.385 . S
C953 H939 0.931 . S
C953 C952 1.385 . S
C953 C954 1.389 . S
C954 C953 1.389 . S
C954 C955 1.387 . S
C955 H940 0.930 . S
C955 C950 1.390 . S
C955 C954 1.387 . S
H956 C968 0.930 . S
H957 C970 0.930 . S
H958 C971 0.930 . S
H959 C975 0.959 . S
H960 C975 0.959 . S
H961 C975 0.961 . S
H962 C976 0.960 . S
H963 C976 0.961 . S
H964 C976 0.959 . S
H965 C979 0.929 . S
H966 C980 0.931 . S
H967 C982 0.930 . S
C968 H956 0.930 . S
C968 C969 1.399 . S
C968 C973 1.399 . S
C969 C968 1.399 . S
C969 C970 1.376 . S
C970 H957 0.930 . S
C970 C969 1.376 . S
C970 C971 1.388 . S
C971 H958 0.930 . S
C971 C970 1.388 . S
C971 C972 1.390 . S
C972 C971 1.390 . S
C972 C973 1.394 . S
C972 C978 1.465 . S
C973 C968 1.399 . S
C973 C972 1.394 . S
C973 C974 1.516 . S
C974 C973 1.516 . S
C974 C975 1.502 . S
C974 C976 1.561 . S
C974 C977 1.526 . S
C975 H959 0.959 . S
C975 H960 0.959 . S
C975 H961 0.961 . S
C975 C974 1.502 . S
C976 H962 0.960 . S
C976 H963 0.961 . S
C976 H964 0.959 . S
C976 C974 1.561 . S
C977 C974 1.526 . S
C977 C978 1.396 . S
C977 C982 1.390 . S
C978 C972 1.465 . S
C978 C977 1.396 . S
C978 C979 1.399 . S
C979 H965 0.929 . S
C979 C978 1.399 . S
C979 C980 1.385 . S
C980 H966 0.931 . S
C980 C979 1.385 . S
C980 C981 1.389 . S
C981 C980 1.389 . S
C981 C982 1.387 . S
C982 H967 0.930 . S
C982 C977 1.390 . S
C982 C981 1.387 . S
H983 C995 0.930 . S
H984 C997 0.930 . S
H985 C998 0.930 . S
H986 C1002 0.959 . S
H987 C1002 0.959 . S
H988 C1002 0.961 . S
H989 C1003 0.960 . S
H990 C1003 0.961 . S
H991 C1003 0.959 . S
H992 C1006 0.929 . S
H993 C1007 0.931 . S
H994 C1009 0.930 . S
C995 H983 0.930 . S
C995 C996 1.399 . S
C995 C1000 1.399 . S
C996 C995 1.399 . S
C996 C997 1.376 . S
C997 H984 0.930 . S
C997 C996 1.376 . S
C997 C998 1.388 . S
C998 H985 0.930 . S
C998 C997 1.388 . S
C998 C999 1.390 . S
C999 C998 1.390 . S
C999 C1000 1.394 . S
C999 C1005 1.465 . S
C1000 C995 1.399 . S
C1000 C999 1.394 . S
C1000 C1001 1.516 . S
C1001 C1000 1.516 . S
C1001 C1002 1.502 . S
C1001 C1003 1.561 . S
C1001 C1004 1.526 . S
C1002 H986 0.959 . S
C1002 H987 0.959 . S
C1002 H988 0.961 . S
C1002 C1001 1.502 . S
C1003 H989 0.960 . S
C1003 H990 0.961 . S
C1003 H991 0.959 . S
C1003 C1001 1.561 . S
C1004 C1001 1.526 . S
C1004 C1005 1.396 . S
C1004 C1009 1.390 . S
C1005 C999 1.465 . S
C1005 C1004 1.396 . S
C1005 C1006 1.399 . S
C1006 H992 0.929 . S
C1006 C1005 1.399 . S
C1006 C1007 1.385 . S
C1007 H993 0.931 . S
C1007 C1006 1.385 . S
C1007 C1008 1.389 . S
C1008 C1007 1.389 . S
C1008 C1009 1.387 . S
C1009 H994 0.930 . S
C1009 C1004 1.390 . S
C1009 C1008 1.387 . S
H1010 C1022 0.930 . S
H1011 C1024 0.930 . S
H1012 C1025 0.930 . S
H1013 C1029 0.959 . S
H1014 C1029 0.959 . S
H1015 C1029 0.961 . S
H1016 C1030 0.960 . S
H1017 C1030 0.961 . S
H1018 C1030 0.959 . S
H1019 C1033 0.929 . S
H1020 C1034 0.931 . S
H1021 C1036 0.930 . S
C1022 H1010 0.930 . S
C1022 C1023 1.399 . S
C1022 C1027 1.399 . S
C1023 C1022 1.399 . S
C1023 C1024 1.376 . S
C1024 H1011 0.930 . S
C1024 C1023 1.376 . S
C1024 C1025 1.388 . S
C1025 H1012 0.930 . S
C1025 C1024 1.388 . S
C1025 C1026 1.390 . S
C1026 C1025 1.390 . S
C1026 C1027 1.394 . S
C1026 C1032 1.465 . S
C1027 C1022 1.399 . S
C1027 C1026 1.394 . S
C1027 C1028 1.516 . S
C1028 C1027 1.516 . S
C1028 C1029 1.502 . S
C1028 C1030 1.561 . S
C1028 C1031 1.526 . S
C1029 H1013 0.959 . S
C1029 H1014 0.959 . S
C1029 H1015 0.961 . S
C1029 C1028 1.502 . S
C1030 H1016 0.960 . S
C1030 H1017 0.961 . S
C1030 H1018 0.959 . S
C1030 C1028 1.561 . S
C1031 C1028 1.526 . S
C1031 C1032 1.396 . S
C1031 C1036 1.390 . S
C1032 C1026 1.465 . S
C1032 C1031 1.396 . S
C1032 C1033 1.399 . S
C1033 H1019 0.929 . S
C1033 C1032 1.399 . S
C1033 C1034 1.385 . S
C1034 H1020 0.931 . S
C1034 C1033 1.385 . S
C1034 C1035 1.389 . S
C1035 C1034 1.389 . S
C1035 C1036 1.387 . S
C1036 H1021 0.930 . S
C1036 C1031 1.390 . S
C1036 C1035 1.387 . S
H1037 C1049 0.930 . S
H1038 C1051 0.930 . S
H1039 C1052 0.930 . S
H1040 C1056 0.959 . S
H1041 C1056 0.959 . S
H1042 C1056 0.961 . S
H1043 C1057 0.960 . S
H1044 C1057 0.961 . S
H1045 C1057 0.959 . S
H1046 C1060 0.929 . S
H1047 C1061 0.931 . S
H1048 C1063 0.930 . S
C1049 H1037 0.930 . S
C1049 C1050 1.399 . S
C1049 C1054 1.399 . S
C1050 C1049 1.399 . S
C1050 C1051 1.376 . S
C1051 H1038 0.930 . S
C1051 C1050 1.376 . S
C1051 C1052 1.388 . S
C1052 H1039 0.930 . S
C1052 C1051 1.388 . S
C1052 C1053 1.390 . S
C1053 C1052 1.390 . S
C1053 C1054 1.394 . S
C1053 C1059 1.465 . S
C1054 C1049 1.399 . S
C1054 C1053 1.394 . S
C1054 C1055 1.516 . S
C1055 C1054 1.516 . S
C1055 C1056 1.502 . S
C1055 C1057 1.561 . S
C1055 C1058 1.526 . S
C1056 H1040 0.959 . S
C1056 H1041 0.959 . S
C1056 H1042 0.961 . S
C1056 C1055 1.502 . S
C1057 H1043 0.960 . S
C1057 H1044 0.961 . S
C1057 H1045 0.959 . S
C1057 C1055 1.561 . S
C1058 C1055 1.526 . S
C1058 C1059 1.396 . S
C1058 C1063 1.390 . S
C1059 C1053 1.465 . S
C1059 C1058 1.396 . S
C1059 C1060 1.399 . S
C1060 H1046 0.929 . S
C1060 C1059 1.399 . S
C1060 C1061 1.385 . S
C1061 H1047 0.931 . S
C1061 C1060 1.385 . S
C1061 C1062 1.389 . S
C1062 C1061 1.389 . S
C1062 C1063 1.387 . S
C1063 H1048 0.930 . S
C1063 C1058 1.390 . S
C1063 C1062 1.387 . S
C429 C29 1.306 . S
C441 C271 1.273 . S
C456 C49 1.155 . S
C468 C311 1.155 . S
C495 C345 2.314 . S
C483 C93 2.295 . S
C510 C119 2.569 . S
C522 C386 2.524 . S
C549 C306 1.339 . S
C537 C17 1.344 . S
C576 C266 2.083 . S
C564 C61 1.871 . S
C603 C394 1.598 . S
C591 C81 1.597 . S
C630 C355 1.866 . S
C618 C125 1.919 . S
C645 C23 1.367 . S
C657 C391 1.347 . S
C684 C314 1.975 . S
C672 C87 1.994 . S
C699 C113 2.461 . S
C711 C274 2.360 . S
C726 C55 1.423 . S
C738 C342 1.531 . S
C765 C262 1.241 . S
C753 C157 1.248 . S
C780 C189 1.291 . S
C792 C302 1.216 . S
C807 C221 2.209 . S
C819 C354 2.249 . S
C834 C253 2.640 . S
C846 C395 2.591 . S
C861 C145 1.279 . S
C873 C315 1.432 . S
C900 C275 2.046 . S
C888 C183 2.024 . S
C927 C385 1.610 . S
C915 C209 1.601 . S
C954 C346 1.824 . S
C942 C247 1.887 . S
C969 C151 1.275 . S
C981 C382 1.274 . S
C1008 C305 1.939 . S
C996 C215 1.977 . S
C1035 C265 2.352 . S
C1023 C241 2.410 . S
C1050 C177 1.577 . S
C1062 C351 1.553 . S
