# Generated by pormake.
# Topology sit, (3,6)-cn, num edge types: 1
# Building blocks:
#     Node 0, Type 0, BuildingBlock: CUQRIR_clean_linker_1, # of connection points: 3
#     Node 1, Type 0, BuildingBlock: CUQRIR_clean_linker_1, # of connection points: 3
#     Node 2, Type 0, BuildingBlock: CUQRIR_clean_linker_1, # of connection points: 3
#     Node 3, Type 0, BuildingBlock: CUQRIR_clean_linker_1, # of connection points: 3
#     Node 4, Type 1, BuildingBlock: MIDCAF_clean_sbu_0, # of connection points: 6
#     Node 5, Type 1, BuildingBlock: MIDCAF_clean_sbu_0, # of connection points: 6
#     Edge 6, Type (0, 1), BuildingBlock: XIVTED_clean_linker_0, # of connection points: 2
#     Edge 7, Type (0, 1), BuildingBlock: XIVTED_clean_linker_0, # of connection points: 2
#     Edge 8, Type (0, 1), BuildingBlock: XIVTED_clean_linker_0, # of connection points: 2
#     Edge 9, Type (0, 1), BuildingBlock: XIVTED_clean_linker_0, # of connection points: 2
#     Edge 10, Type (0, 1), BuildingBlock: XIVTED_clean_linker_0, # of connection points: 2
#     Edge 11, Type (0, 1), BuildingBlock: XIVTED_clean_linker_0, # of connection points: 2
#     Edge 12, Type (0, 1), BuildingBlock: XIVTED_clean_linker_0, # of connection points: 2
#     Edge 13, Type (0, 1), BuildingBlock: XIVTED_clean_linker_0, # of connection points: 2
#     Edge 14, Type (0, 1), BuildingBlock: XIVTED_clean_linker_0, # of connection points: 2
#     Edge 15, Type (0, 1), BuildingBlock: XIVTED_clean_linker_0, # of connection points: 2
#     Edge 16, Type (0, 1), BuildingBlock: XIVTED_clean_linker_0, # of connection points: 2
#     Edge 17, Type (0, 1), BuildingBlock: XIVTED_clean_linker_0, # of connection points: 2
# Relax obj value: 0.072
# Max RMSD: 0.181
# Mean RMSD: 0.120
data_MOF--net-sit--node1-MIDCAF_clean_sbu_0--node2-CUQRIR_clean_linker_1--edge1-XIVTED_clean_linker_0
_symmetry_space_group_name_H-M    P1
_symmetry_Int_Tables_number       1
_symmetry_cell_setting            triclinic
loop_
_symmetry_equiv_pos_as_xyz
'x, y, z'
_cell_length_a     19.868374
_cell_length_b     29.024668
_cell_length_c     37.474232
_cell_angle_alpha  90.334066
_cell_angle_beta   91.026667
_cell_angle_gamma 81.108138
loop_
_atom_site_label
_atom_site_type_symbol
_atom_site_fract_x
_atom_site_fract_y
_atom_site_fract_z
_atom_type_partial_charge
C0 C 0.04161 0.32328 0.01814 0.0
N1 N 0.05508 0.35526 -0.00567 0.0
N2 N 0.09895 0.30544 0.03656 0.0
C3 C -0.02839 0.31188 0.02494 0.0
C4 C 0.14761 0.32817 0.02311 0.0
N5 N 0.12074 0.35866 -0.0025 0.0
C6 C 0.22225 0.31757 0.0327 0.0
H7 H 0.96592 0.30375 0.05352 0.0
H8 H 0.96394 0.28091 0.00879 0.0
H9 H 0.93157 0.34126 0.01711 0.0
H10 H 0.23583 0.28153 0.04304 0.0
H11 H 0.23423 0.34232 0.05368 0.0
H12 H 0.25382 0.32179 0.00916 0.0
C13 C 0.95134 0.77602 0.03358 0.0
N14 N -0.02906 0.74802 0.0053 0.0
N15 N 0.00203 0.79969 0.04416 0.0
C16 C 0.88102 0.78359 0.04892 0.0
C17 C 0.05303 0.78524 0.02133 0.0
N18 N 0.034 0.75417 -0.00232 0.0
C19 C 0.12277 0.79932 0.02346 0.0
H20 H 0.86938 0.81864 0.06137 0.0
H21 H 0.87818 0.75702 0.06978 0.0
H22 H 0.84201 0.78004 0.02795 0.0
H23 H 0.16191 0.77145 0.01282 0.0
H24 H 0.1366 0.80728 0.05139 0.0
H25 H 0.12266 0.83114 0.00717 0.0
C26 C 0.54894 0.80929 0.5057 0.0
N27 N 0.56523 0.83796 0.47991 0.0
N28 N 0.60545 0.78168 0.5183 0.0
C29 C 0.47807 0.80912 0.51924 0.0
C30 C 0.65678 0.79462 0.49927 0.0
N31 N 0.63217 0.82833 0.47547 0.0
C32 C 0.7311 0.7756 0.50477 0.0
H33 H 0.46714 0.83662 0.53994 0.0
H34 H 0.47253 0.77529 0.53142 0.0
H35 H 0.43978 0.81669 0.49731 0.0
H36 H 0.7479 0.75107 0.48273 0.0
H37 H 0.7411 0.75637 0.53023 0.0
H38 H 0.76199 0.80433 0.50409 0.0
C39 C 0.42826 0.30197 0.51414 0.0
N40 N 0.44706 0.27109 0.48737 0.0
N41 N 0.4751 0.33102 0.51898 0.0
C42 C 0.36561 0.30308 0.53621 0.0
C43 C 0.52252 0.31695 0.49412 0.0
N44 N 0.50536 0.28092 0.47491 0.0
C45 C 0.58821 0.33618 0.49029 0.0
H46 H 0.34867 0.33836 0.54726 0.0
H47 H 0.37755 0.27864 0.55891 0.0
H48 H 0.3234 0.29219 0.52008 0.0
H49 H 0.63028 0.31169 0.50283 0.0
H50 H 0.58565 0.37089 0.50319 0.0
H51 H 0.6002 0.33946 0.46174 0.0
Zn52 Zn 0.0299 0.14216 0.32684 0.0
Zn53 Zn 0.05399 0.91725 0.31595 0.0
Zn54 Zn 0.03081 0.06181 0.31698 0.0
C55 C 0.03201 0.99885 0.26051 0.0
C56 C 0.94159 1.00024 0.33994 0.0
O57 O 0.12094 0.06532 0.3508 0.0
O58 O 0.08591 0.13596 0.37149 0.0
C59 C 0.06763 0.12699 0.25666 0.0
O60 O 0.02938 1.04299 0.26033 0.0
O61 O 0.03671 0.98026 0.29106 0.0
O62 O -0.00531 0.97866 0.32592 0.0
O63 O 0.93711 1.04448 0.33994 0.0
O64 O 0.07559 0.15451 0.28206 0.0
O65 O 0.0425 0.0896 0.26282 0.0
O66 O 0.93266 0.09208 0.34241 0.0
O67 O 0.93171 0.1666 0.33076 0.0
C68 C 0.90167 0.13455 0.34212 0.0
O69 O 0.12159 1.01351 0.34201 0.0
O70 O 0.13925 0.93367 0.34059 0.0
C71 C 0.1278 0.09859 0.37268 0.0
C72 C 0.1572 0.97291 0.34935 0.0
Zn73 Zn 0.52144 0.64515 0.81903 0.0
Zn74 Zn 0.551 0.47017 0.80653 0.0
Zn75 Zn 0.53762 0.56019 0.81213 0.0
C76 C 0.53513 0.50323 0.73754 0.0
C77 C 0.43636 0.49594 0.84679 0.0
O78 O 0.62355 0.57908 0.84507 0.0
O79 O 0.57813 0.64967 0.86266 0.0
C80 C 0.5605 0.62893 0.74956 0.0
O81 O 0.5359 0.54241 0.75389 0.0
O82 O 0.5396 0.46573 0.75479 0.0
O83 O 0.4738 0.45953 0.83623 0.0
O84 O 0.45083 0.53662 0.83951 0.0
O85 O 0.56183 0.65948 0.77353 0.0
O86 O 0.54388 0.58908 0.75757 0.0
O87 O 0.4384 0.58557 0.83818 0.0
O88 O 0.42167 0.66002 0.82352 0.0
C89 C 0.39983 0.62565 0.83707 0.0
O90 O 0.63495 0.53044 0.83934 0.0
O91 O 0.64439 0.45536 0.82618 0.0
C92 C 0.62565 0.61551 0.86467 0.0
C93 C 0.66875 0.48881 0.84041 0.0
H94 H 0.15767 0.31557 0.1008 0.0
H95 H 0.00824 0.10876 0.19204 0.0
H96 H 0.05366 0.22191 0.03883 0.0
H97 H 0.16548 0.17754 0.23955 0.0
H98 H 0.0256 0.14584 0.1347 0.0
H99 H 0.16213 0.26303 0.15161 0.0
C100 C 0.13667 0.28347 0.09785 0.0
C101 C 0.10527 0.27297 0.06576 0.0
C102 C 0.05714 0.15198 0.15757 0.0
C103 C 0.10831 0.21304 0.12399 0.0
C104 C 0.04761 0.13055 0.19013 0.0
C105 C 0.08512 0.14046 0.22051 0.0
C106 C 0.10403 0.18359 0.1558 0.0
C107 C 0.13474 0.16954 0.21685 0.0
C108 C 0.13888 0.25351 0.12684 0.0
C109 C 0.07743 0.23141 0.06342 0.0
N110 N 0.14213 0.19047 0.18529 0.0
N111 N 0.07885 0.20309 0.09233 0.0
H112 H 0.03143 0.88768 0.04392 0.0
H113 H 0.01122 0.9087 0.25656 0.0
H114 H -0.02332 0.78151 0.11252 0.0
H115 H 0.04425 1.02378 0.19018 0.0
H116 H 0.00262 0.86145 0.2036 0.0
H117 H 0.0393 0.9382 0.09633 0.0
C118 C 0.02093 0.87525 0.07011 0.0
C119 C 0.00339 0.83063 0.0742 0.0
C120 C 0.01182 0.897 0.20042 0.0
C121 C 0.01227 0.88762 0.13395 0.0
C122 C 0.01728 0.92402 0.23079 0.0
C123 C 0.02892 0.9703 0.22787 0.0
C124 C 0.01813 0.91613 0.16659 0.0
C125 C 0.0351 0.98832 0.19361 0.0
C126 C 0.02525 0.90396 0.09991 0.0
C127 C -0.01023 0.8159 0.10843 0.0
N128 N 0.02977 0.96113 0.16422 0.0
N129 N -0.00525 0.84423 0.137 0.0
H130 H 0.66365 0.79867 0.58101 0.0
H131 H 0.51308 0.59926 0.68486 0.0
H132 H 0.55745 0.70004 0.5263 0.0
H133 H 0.64856 0.68647 0.7315 0.0
H134 H 0.53391 0.63005 0.62562 0.0
H135 H 0.66381 0.7535 0.63585 0.0
C136 C 0.64114 0.76698 0.5807 0.0
C137 C 0.61059 0.75278 0.54952 0.0
C138 C 0.5598 0.64182 0.64883 0.0
C139 C 0.60883 0.70124 0.61204 0.0
C140 C 0.5483 0.62397 0.68252 0.0
C141 C 0.57873 0.64062 0.71305 0.0
C142 C 0.60182 0.67647 0.646 0.0
C143 C 0.62318 0.67321 0.7087 0.0
C144 C 0.64095 0.7412 0.61188 0.0
C145 C 0.58127 0.71185 0.55014 0.0
N146 N 0.63286 0.69028 0.67597 0.0
N147 N 0.58039 0.68762 0.58111 0.0
H148 H 0.57492 0.3197 0.56852 0.0
H149 H 0.42269 0.52503 0.6946 0.0
H150 H 0.39389 0.41208 0.53595 0.0
H151 H 0.63574 0.46747 0.69381 0.0
H152 H 0.40768 0.48837 0.63619 0.0
H153 H 0.59421 0.37402 0.6163 0.0
C154 C 0.53914 0.35155 0.57173 0.0
C155 C 0.48272 0.36155 0.54866 0.0
C156 C 0.45813 0.48514 0.64825 0.0
C157 C 0.50397 0.42401 0.60314 0.0
C158 C 0.46682 0.50653 0.68126 0.0
C159 C 0.53068 0.4995 0.6986 0.0
C160 C 0.51348 0.45582 0.63328 0.0
C161 C 0.58592 0.47404 0.68097 0.0
C162 C 0.5503 0.38272 0.5987 0.0
C163 C 0.43745 0.4031 0.5537 0.0
N164 N 0.57585 0.45238 0.6496 0.0
N165 N 0.44867 0.43283 0.5807 0.0
H166 H 0.1994 0.42088 0.02096 0.0
H167 H 0.31492 0.47456 0.82373 0.0
H168 H 0.12386 0.36173 0.92551 0.0
H169 H 0.42806 0.5007 0.91882 0.0
H170 H 0.2271 0.44915 0.86092 0.0
H171 H 0.26763 0.46534 -0.01589 0.0
C172 C 0.197 0.41766 -0.00781 0.0
C173 C 0.15656 0.38764 -0.0239 0.0
C174 C 0.27046 0.46129 0.8737 0.0
C175 C 0.23321 0.43835 0.93389 0.0
C176 C 0.32007 0.47607 0.85253 0.0
C177 C 0.37764 0.49034 0.86849 0.0
C178 C 0.27923 0.46033 0.911 0.0
C179 C 0.38349 0.4906 0.90576 0.0
C180 C 0.23554 0.44302 -0.02879 0.0
C181 C 0.154 0.38492 0.93878 0.0
N182 N 0.33493 0.47561 0.92585 0.0
N183 N 0.19215 0.40976 0.9189 0.0
H184 H 0.95232 0.74605 0.93357 0.0
H185 H 0.62442 0.635 0.93544 0.0
H186 H 0.89603 0.6856 0.03128 0.0
H187 H 0.75874 0.60863 0.84617 0.0
H188 H 0.71853 0.65749 -0.02852 0.0
H189 H 0.87823 0.70055 0.90015 0.0
C190 C 0.92535 0.72252 0.9479 0.0
C191 C 0.93025 0.7195 -0.01478 0.0
C192 C 0.72777 0.64581 0.94425 0.0
C193 C 0.84365 0.66887 0.94738 0.0
C194 C 0.67429 0.63304 0.92378 0.0
C195 C 0.68443 0.61987 0.88803 0.0
C196 C 0.79083 0.64709 0.92835 0.0
C197 C 0.74946 0.61832 0.8738 0.0
C198 C 0.88295 0.69674 0.92886 0.0
C199 C 0.89258 0.68948 0.00259 0.0
N200 N 0.80008 0.63286 0.8938 0.0
N201 N 0.84981 0.6659 -0.01641 0.0
H202 H 0.00554 0.44727 -0.00519 0.0
H203 H 0.77538 0.42508 0.82054 0.0
H204 H -0.00263 0.31915 0.93787 0.0
H205 H 0.71215 0.52637 0.90262 0.0
H206 H 0.87859 0.39758 0.85535 0.0
H207 H 0.91736 0.48775 0.95361 0.0
C208 C -0.01457 0.42807 -0.0267 0.0
C209 C 0.00761 0.38017 -0.03064 0.0
C210 C 0.84274 0.42644 0.86545 0.0
C211 C 0.90921 0.42544 0.9225 0.0
C212 C 0.78402 0.44221 0.84561 0.0
C213 C 0.73557 0.47833 0.85867 0.0
C214 C 0.85311 0.44678 0.8987 0.0
C215 C 0.74918 0.49938 0.89123 0.0
C216 C 0.93547 0.45089 0.95003 0.0
C217 C -0.01924 0.35616 0.94148 0.0
N218 N 0.80667 0.483 0.91043 0.0
N219 N 0.93296 0.37906 0.91899 0.0
H220 H 0.07789 0.79383 0.93996 0.0
H221 H 0.36148 0.58372 0.89675 0.0
H222 H 0.08373 0.66244 -0.00676 0.0
H223 H 0.2898 0.68971 0.81924 0.0
H224 H 0.2594 0.60853 0.93186 0.0
H225 H 0.15614 0.75548 0.89514 0.0
C226 C 0.09555 0.75669 0.94178 0.0
C227 C 0.07523 0.73097 -0.03007 0.0
C228 C 0.26508 0.62549 0.90667 0.0
C229 C 0.16491 0.68696 0.91962 0.0
C230 C 0.32277 0.61073 0.88636 0.0
C231 C 0.33337 0.63397 0.85479 0.0
C232 C 0.21889 0.66464 0.89567 0.0
C233 C 0.28355 0.67085 0.8435 0.0
C234 C 0.1397 0.73475 0.9163 0.0
C235 C 0.0988 0.68302 -0.02835 0.0
N236 N 0.22899 0.68551 0.86419 0.0
N237 N 0.14347 0.66249 0.94705 0.0
H238 H 0.72362 0.79098 0.42669 0.0
H239 H 0.81628 1.03688 0.36556 0.0
H240 H 0.62948 0.92155 0.47152 0.0
H241 H 0.9502 0.9066 0.35155 0.0
H242 H 0.7364 0.99545 0.39672 0.0
H243 H 0.79641 0.833 0.39083 0.0
C244 C 0.71857 0.82854 0.42894 0.0
C245 C 0.67149 0.85293 0.45232 0.0
C246 C 0.78338 0.97601 0.38688 0.0
C247 C 0.75309 0.9013 0.41108 0.0
C248 C 0.8292 0.99972 0.36939 0.0
C249 C 0.89081 0.97546 0.35685 0.0
C250 C 0.79883 0.92749 0.39128 0.0
C251 C 0.90365 0.92685 0.36111 0.0
C252 C 0.75971 0.85251 0.40843 0.0
C253 C 0.66521 0.90168 0.45365 0.0
N254 N 0.85815 0.90449 0.37802 0.0
N255 N 0.70573 0.92435 0.43337 0.0
H256 H 0.42231 0.25445 0.418 0.0
H257 H 0.13369 0.11253 0.44419 0.0
H258 H 0.39071 0.20571 0.52385 0.0
H259 H 0.25876 0.09009 0.35115 0.0
H260 H 0.22604 0.14352 0.4759 0.0
H261 H 0.36105 0.19449 0.39318 0.0
C262 C 0.40303 0.23074 0.43599 0.0
C263 C 0.41103 0.23533 0.47301 0.0
C264 C 0.23426 0.13029 0.44898 0.0
C265 C 0.33935 0.16735 0.4449 0.0
C266 C 0.18185 0.1123 0.43102 0.0
C267 C 0.18906 0.09872 0.39515 0.0
C268 C 0.2929 0.13631 0.43038 0.0
C269 C 0.25168 0.09994 0.37891 0.0
C270 C 0.36822 0.1965 0.42184 0.0
C271 C 0.38396 0.2042 0.49521 0.0
N272 N 0.30062 0.11985 0.3963 0.0
N273 N 0.34812 0.172 0.48084 0.0
H274 H 0.55168 0.84012 0.40834 0.0
H275 H 0.19002 1.00109 0.41642 0.0
H276 H 0.47253 0.90894 0.50419 0.0
H277 H 0.27678 0.93608 0.32067 0.0
H278 H 0.30093 0.98045 0.44708 0.0
H279 H 0.46068 0.88718 0.37367 0.0
C280 C 0.51554 0.86582 0.42188 0.0
C281 C 0.51829 0.87021 0.45903 0.0
C282 C 0.29616 0.97161 0.41914 0.0
C283 C 0.4134 0.92349 0.42005 0.0
C284 C 0.23313 0.98377 0.40165 0.0
C285 C 0.22499 0.97038 0.3661 0.0
C286 C 0.35056 0.94529 0.4009 0.0
C287 C 0.28149 0.94695 0.34819 0.0
C288 C 0.46345 0.89255 0.40224 0.0
C289 C 0.47065 0.90392 0.47559 0.0
N290 N 0.34168 0.93468 0.36587 0.0
N291 N 0.41935 0.92881 0.45606 0.0
H292 H 0.56909 0.19378 0.48737 0.0
H293 H 0.80031 0.19912 0.31568 0.0
H294 H 0.54182 0.30328 0.40925 0.0
H295 H 0.84814 0.10004 0.40112 0.0
H296 H 0.69176 0.22807 0.34361 0.0
H297 H 0.65734 0.14922 0.45017 0.0
C298 C 0.58129 0.20783 0.46199 0.0
C299 C 0.54962 0.25207 0.4512 0.0
C300 C 0.72536 0.19948 0.35602 0.0
C301 C 0.6496 0.20227 0.40891 0.0
C302 C 0.78719 0.18296 0.34007 0.0
C303 C 0.83261 0.147 0.35609 0.0
C304 C 0.70937 0.18036 0.38855 0.0
C305 C 0.81367 0.12727 0.38767 0.0
C306 C 0.63149 0.18271 0.4409 0.0
C307 C 0.56625 0.26936 0.41833 0.0
N308 N 0.75359 0.14454 0.40314 0.0
N309 N 0.61567 0.24459 0.39841 0.0
loop_
_geom_bond_atom_site_label_1
_geom_bond_atom_site_label_2
_geom_bond_distance
_geom_bond_site_symmetry_2
_ccdc_geom_bond_type
C0 N1 1.317 . S
C0 N2 1.348 . S
C0 C3 1.485 . S
N1 C0 1.317 . S
N1 N5 1.370 . S
N2 C0 1.348 . S
N2 C4 1.346 . S
C3 C0 1.485 . S
C3 H7 0.960 1_455 S
C3 H8 0.961 . S
C3 H9 0.960 1_455 S
C4 N2 1.346 . S
C4 N5 1.307 . S
C4 C6 1.486 . S
N5 N1 1.370 . S
N5 C4 1.307 . S
C6 C4 1.486 . S
C6 H10 0.960 . S
C6 H11 0.960 . S
C6 H12 0.959 . S
H7 C3 0.960 1_655 S
H8 C3 0.961 . S
H9 C3 0.960 1_655 S
H10 C6 0.960 . S
H11 C6 0.960 . S
H12 C6 0.959 . S
C13 N14 1.317 . S
C13 N15 1.348 . S
C13 C16 1.485 . S
N14 C13 1.317 . S
N14 N18 1.370 1_655 S
N15 C13 1.348 . S
N15 C17 1.346 1_655 S
C16 C13 1.485 . S
C16 H20 0.960 . S
C16 H21 0.961 . S
C16 H22 0.960 . S
C17 N15 1.346 1_455 S
C17 N18 1.307 . S
C17 C19 1.486 . S
N18 N14 1.370 1_455 S
N18 C17 1.307 . S
C19 C17 1.486 . S
C19 H23 0.960 . S
C19 H24 0.960 . S
C19 H25 0.959 . S
H20 C16 0.960 . S
H21 C16 0.961 . S
H22 C16 0.960 . S
H23 C19 0.960 . S
H24 C19 0.960 . S
H25 C19 0.959 . S
C26 N27 1.317 . S
C26 N28 1.348 . S
C26 C29 1.485 . S
N27 C26 1.317 . S
N27 N31 1.370 . S
N28 C26 1.348 . S
N28 C30 1.346 . S
C29 C26 1.485 . S
C29 H33 0.960 . S
C29 H34 0.961 . S
C29 H35 0.960 . S
C30 N28 1.346 . S
C30 N31 1.307 . S
C30 C32 1.486 . S
N31 N27 1.370 . S
N31 C30 1.307 . S
C32 C30 1.486 . S
C32 H36 0.960 . S
C32 H37 0.960 . S
C32 H38 0.959 . S
H33 C29 0.960 . S
H34 C29 0.961 . S
H35 C29 0.960 . S
H36 C32 0.960 . S
H37 C32 0.960 . S
H38 C32 0.959 . S
C39 N40 1.317 . S
C39 N41 1.348 . S
C39 C42 1.485 . S
N40 C39 1.317 . S
N40 N44 1.370 . S
N41 C39 1.348 . S
N41 C43 1.346 . S
C42 C39 1.485 . S
C42 H46 0.960 . S
C42 H47 0.961 . S
C42 H48 0.960 . S
C43 N41 1.346 . S
C43 N44 1.307 . S
C43 C45 1.486 . S
N44 N40 1.370 . S
N44 C43 1.307 . S
C45 C43 1.486 . S
C45 H49 0.960 . S
C45 H50 0.960 . S
C45 H51 0.959 . S
H46 C42 0.960 . S
H47 C42 0.961 . S
H48 C42 0.960 . S
H49 C45 0.960 . S
H50 C45 0.960 . S
H51 C45 0.959 . S
Zn52 O58 1.920 . S
Zn52 O64 1.898 . S
Zn52 O67 1.905 1_455 S
Zn53 O61 1.905 . S
Zn53 O62 1.898 . S
Zn53 O70 1.920 . S
Zn54 O57 2.080 . S
Zn54 O60 2.114 1_545 S
Zn54 O63 2.120 1_545 S
Zn54 O65 2.120 . S
Zn54 O66 2.114 1_455 S
Zn54 O69 2.080 1_545 S
C55 O60 1.166 . S
C55 O61 1.182 . S
C56 O62 1.167 . S
C56 O63 1.299 . S
O57 Zn54 2.080 . S
O57 C71 1.305 . S
O58 Zn52 1.920 . S
O58 C71 1.234 . S
C59 O64 1.167 . S
C59 O65 1.299 . S
O60 Zn54 2.114 1_565 S
O60 C55 1.166 . S
O61 Zn53 1.905 . S
O61 C55 1.182 . S
O62 Zn53 1.898 . S
O62 C56 1.167 . S
O63 Zn54 2.120 1_565 S
O63 C56 1.299 . S
O64 Zn52 1.898 . S
O64 C59 1.167 . S
O65 Zn54 2.120 . S
O65 C59 1.299 . S
O66 Zn54 2.114 1_655 S
O66 C68 1.166 . S
O67 Zn52 1.905 1_655 S
O67 C68 1.182 . S
C68 O66 1.166 . S
C68 O67 1.182 . S
O69 Zn54 2.080 1_565 S
O69 C72 1.305 . S
O70 Zn53 1.920 . S
O70 C72 1.234 . S
C71 O57 1.305 . S
C71 O58 1.234 . S
C72 O69 1.305 . S
C72 O70 1.234 . S
Zn73 O79 1.920 . S
Zn73 O85 1.898 . S
Zn73 O88 1.905 . S
Zn74 O82 1.905 . S
Zn74 O83 1.898 . S
Zn74 O91 1.920 . S
Zn75 O78 2.080 . S
Zn75 O81 2.114 . S
Zn75 O84 2.120 . S
Zn75 O86 2.120 . S
Zn75 O87 2.114 . S
Zn75 O90 2.080 . S
C76 O81 1.166 . S
C76 O82 1.182 . S
C77 O83 1.167 . S
C77 O84 1.299 . S
O78 Zn75 2.080 . S
O78 C92 1.305 . S
O79 Zn73 1.920 . S
O79 C92 1.234 . S
C80 O85 1.167 . S
C80 O86 1.299 . S
O81 Zn75 2.114 . S
O81 C76 1.166 . S
O82 Zn74 1.905 . S
O82 C76 1.182 . S
O83 Zn74 1.898 . S
O83 C77 1.167 . S
O84 Zn75 2.120 . S
O84 C77 1.299 . S
O85 Zn73 1.898 . S
O85 C80 1.167 . S
O86 Zn75 2.120 . S
O86 C80 1.299 . S
O87 Zn75 2.114 . S
O87 C89 1.166 . S
O88 Zn73 1.905 . S
O88 C89 1.182 . S
C89 O87 1.166 . S
C89 O88 1.182 . S
O90 Zn75 2.080 . S
O90 C93 1.305 . S
O91 Zn74 1.920 . S
O91 C93 1.234 . S
C92 O78 1.305 . S
C92 O79 1.234 . S
C93 O90 1.305 . S
C93 O91 1.234 . S
H94 C100 0.930 . S
H95 C104 0.930 . S
H96 C109 0.929 . S
H97 C107 0.929 . S
H98 C102 0.929 . S
H99 C108 0.929 . S
C100 H94 0.930 . S
C100 C101 1.367 . S
C100 C108 1.378 . S
C101 C100 1.367 . S
C101 C109 1.433 . S
C102 H98 0.929 . S
C102 C104 1.378 . S
C102 C106 1.350 . S
C103 C106 1.463 . S
C103 C108 1.350 . S
C103 N111 1.427 . S
C104 H95 0.930 . S
C104 C102 1.378 . S
C104 C105 1.367 . S
C105 C104 1.367 . S
C105 C107 1.433 . S
C106 C102 1.350 . S
C106 C103 1.463 . S
C106 N110 1.427 . S
C107 H97 0.929 . S
C107 C105 1.433 . S
C107 N110 1.384 . S
C108 H99 0.929 . S
C108 C100 1.378 . S
C108 C103 1.350 . S
C109 H96 0.929 . S
C109 C101 1.433 . S
C109 N111 1.384 . S
N110 C106 1.427 . S
N110 C107 1.384 . S
N111 C103 1.427 . S
N111 C109 1.384 . S
H112 C118 0.930 . S
H113 C122 0.930 . S
H114 C127 0.929 . S
H115 C125 0.929 . S
H116 C120 0.929 . S
H117 C126 0.929 . S
C118 H112 0.930 . S
C118 C119 1.359 1_655 S
C118 C126 1.378 . S
C119 C118 1.359 1_455 S
C119 C127 1.444 . S
C120 H116 0.929 . S
C120 C122 1.378 . S
C120 C124 1.350 . S
C121 C124 1.463 . S
C121 C126 1.350 1_455 S
C121 N129 1.427 . S
C122 H113 0.930 . S
C122 C120 1.378 . S
C122 C123 1.367 . S
C123 C122 1.367 . S
C123 C125 1.433 1_455 S
C124 C120 1.350 . S
C124 C121 1.463 . S
C124 N128 1.427 1_455 S
C125 H115 0.929 . S
C125 C123 1.433 1_655 S
C125 N128 1.384 . S
C126 H117 0.929 . S
C126 C118 1.378 . S
C126 C121 1.350 1_655 S
C127 H114 0.929 . S
C127 C119 1.444 . S
C127 N129 1.384 . S
N128 C124 1.427 1_655 S
N128 C125 1.384 . S
N129 C121 1.427 . S
N129 C127 1.384 . S
H130 C136 0.930 . S
H131 C140 0.930 . S
H132 C145 0.929 . S
H133 C143 0.929 . S
H134 C138 0.929 . S
H135 C144 0.929 . S
C136 H130 0.930 . S
C136 C137 1.367 . S
C136 C144 1.378 . S
C137 C136 1.367 . S
C137 C145 1.433 . S
C138 H134 0.929 . S
C138 C140 1.378 . S
C138 C142 1.350 . S
C139 C142 1.463 . S
C139 C144 1.350 . S
C139 N147 1.427 . S
C140 H131 0.930 . S
C140 C138 1.378 . S
C140 C141 1.367 . S
C141 C140 1.367 . S
C141 C143 1.433 . S
C142 C138 1.350 . S
C142 C139 1.463 . S
C142 N146 1.427 . S
C143 H133 0.929 . S
C143 C141 1.433 . S
C143 N146 1.384 . S
C144 H135 0.929 . S
C144 C136 1.378 . S
C144 C139 1.350 . S
C145 H132 0.929 . S
C145 C137 1.433 . S
C145 N147 1.384 . S
N146 C142 1.427 . S
N146 C143 1.384 . S
N147 C139 1.427 . S
N147 C145 1.384 . S
H148 C154 0.930 . S
H149 C158 0.930 . S
H150 C163 0.929 . S
H151 C161 0.929 . S
H152 C156 0.929 . S
H153 C162 0.929 . S
C154 H148 0.930 . S
C154 C155 1.367 . S
C154 C162 1.378 . S
C155 C154 1.367 . S
C155 C163 1.433 . S
C156 H152 0.929 . S
C156 C158 1.378 . S
C156 C160 1.350 . S
C157 C160 1.463 . S
C157 C162 1.350 . S
C157 N165 1.427 . S
C158 H149 0.930 . S
C158 C156 1.378 . S
C158 C159 1.367 . S
C159 C158 1.367 . S
C159 C161 1.433 . S
C160 C156 1.350 . S
C160 C157 1.463 . S
C160 N164 1.427 . S
C161 H151 0.929 . S
C161 C159 1.433 . S
C161 N164 1.384 . S
C162 H153 0.929 . S
C162 C154 1.378 . S
C162 C157 1.350 . S
C163 H150 0.929 . S
C163 C155 1.433 . S
C163 N165 1.384 . S
N164 C160 1.427 . S
N164 C161 1.384 . S
N165 C157 1.427 . S
N165 C163 1.384 . S
H166 C172 0.930 . S
H167 C176 0.930 . S
H168 C181 0.929 . S
H169 C179 0.929 . S
H170 C174 0.929 . S
H171 C180 0.929 . S
C172 H166 0.930 . S
C172 C173 1.365 . S
C172 C180 1.378 . S
C173 C172 1.365 . S
C173 C181 1.436 1_554 S
C174 H170 0.929 . S
C174 C176 1.378 . S
C174 C178 1.350 . S
C175 C178 1.463 . S
C175 C180 1.350 1_556 S
C175 N183 1.427 . S
C176 H167 0.930 . S
C176 C174 1.378 . S
C176 C177 1.367 . S
C177 C176 1.367 . S
C177 C179 1.433 . S
C178 C174 1.350 . S
C178 C175 1.463 . S
C178 N182 1.427 . S
C179 H169 0.929 . S
C179 C177 1.433 . S
C179 N182 1.384 . S
C180 H171 0.929 . S
C180 C172 1.378 . S
C180 C175 1.350 1_554 S
C181 H168 0.929 . S
C181 C173 1.436 1_556 S
C181 N183 1.384 . S
N182 C178 1.427 . S
N182 C179 1.384 . S
N183 C175 1.427 . S
N183 C181 1.384 . S
H184 C190 0.930 . S
H185 C194 0.930 . S
H186 C199 0.929 . S
H187 C197 0.929 . S
H188 C192 0.927 . S
H189 C198 0.929 . S
C190 H184 0.930 . S
C190 C191 1.367 1_556 S
C190 C198 1.378 . S
C191 C190 1.367 1_554 S
C191 C199 1.433 . S
C192 H188 0.927 . S
C192 C194 1.378 . S
C192 C196 1.350 . S
C193 C196 1.463 . S
C193 C198 1.350 . S
C193 N201 1.427 1_556 S
C194 H185 0.930 . S
C194 C192 1.378 . S
C194 C195 1.367 . S
C195 C194 1.367 . S
C195 C197 1.433 . S
C196 C192 1.350 . S
C196 C193 1.463 . S
C196 N200 1.427 . S
C197 H187 0.929 . S
C197 C195 1.433 . S
C197 N200 1.384 . S
C198 H189 0.929 . S
C198 C190 1.378 . S
C198 C193 1.350 . S
C199 H186 0.929 . S
C199 C191 1.433 . S
C199 N201 1.384 . S
N200 C196 1.427 . S
N200 C197 1.384 . S
N201 C193 1.427 1_554 S
N201 C199 1.384 . S
H202 C208 0.930 . S
H203 C212 0.930 . S
H204 C217 0.929 . S
H205 C215 0.929 . S
H206 C210 0.929 . S
H207 C216 0.929 . S
C208 H202 0.930 . S
C208 C209 1.367 . S
C208 C216 1.378 1_455 S
C209 C208 1.367 . S
C209 C217 1.433 1_455 S
C210 H206 0.929 . S
C210 C212 1.378 . S
C210 C214 1.350 . S
C211 C214 1.463 . S
C211 C216 1.350 . S
C211 N219 1.427 . S
C212 H203 0.930 . S
C212 C210 1.378 . S
C212 C213 1.367 . S
C213 C212 1.367 . S
C213 C215 1.433 . S
C214 C210 1.350 . S
C214 C211 1.463 . S
C214 N218 1.427 . S
C215 H205 0.929 . S
C215 C213 1.433 . S
C215 N218 1.384 . S
C216 H207 0.929 . S
C216 C208 1.378 1_655 S
C216 C211 1.350 . S
C217 H204 0.929 . S
C217 C209 1.433 1_655 S
C217 N219 1.384 . S
N218 C214 1.427 . S
N218 C215 1.384 . S
N219 C211 1.427 . S
N219 C217 1.384 . S
H220 C226 0.930 . S
H221 C230 0.930 . S
H222 C235 0.929 . S
H223 C233 0.929 . S
H224 C228 0.929 . S
H225 C234 0.929 . S
C226 H220 0.930 . S
C226 C227 1.367 . S
C226 C234 1.378 . S
C227 C226 1.367 . S
C227 C235 1.433 . S
C228 H224 0.929 . S
C228 C230 1.378 . S
C228 C232 1.350 . S
C229 C232 1.463 . S
C229 C234 1.350 . S
C229 N237 1.427 . S
C230 H221 0.930 . S
C230 C228 1.378 . S
C230 C231 1.367 . S
C231 C230 1.367 . S
C231 C233 1.433 . S
C232 C228 1.350 . S
C232 C229 1.463 . S
C232 N236 1.427 . S
C233 H223 0.929 . S
C233 C231 1.433 . S
C233 N236 1.384 . S
C234 H225 0.929 . S
C234 C226 1.378 . S
C234 C229 1.350 . S
C235 H222 0.929 . S
C235 C227 1.433 . S
C235 N237 1.384 . S
N236 C232 1.427 . S
N236 C233 1.384 . S
N237 C229 1.427 . S
N237 C235 1.384 . S
H238 C244 0.930 . S
H239 C248 0.930 . S
H240 C253 0.929 . S
H241 C251 0.929 1_455 S
H242 C246 0.929 . S
H243 C252 0.929 . S
C244 H238 0.930 . S
C244 C245 1.367 . S
C244 C252 1.378 . S
C245 C244 1.367 . S
C245 C253 1.433 . S
C246 H242 0.929 . S
C246 C248 1.378 . S
C246 C250 1.350 . S
C247 C250 1.463 . S
C247 C252 1.350 . S
C247 N255 1.427 . S
C248 H239 0.930 . S
C248 C246 1.378 . S
C248 C249 1.367 . S
C249 C248 1.367 . S
C249 C251 1.433 . S
C250 C246 1.350 . S
C250 C247 1.463 . S
C250 N254 1.427 . S
C251 H241 0.929 1_655 S
C251 C249 1.433 . S
C251 N254 1.384 . S
C252 H243 0.929 . S
C252 C244 1.378 . S
C252 C247 1.350 . S
C253 H240 0.929 . S
C253 C245 1.433 . S
C253 N255 1.384 . S
N254 C250 1.427 . S
N254 C251 1.384 . S
N255 C247 1.427 . S
N255 C253 1.384 . S
H256 C262 0.930 . S
H257 C266 0.930 . S
H258 C271 0.929 . S
H259 C269 0.929 . S
H260 C264 0.929 . S
H261 C270 0.929 . S
C262 H256 0.930 . S
C262 C263 1.367 . S
C262 C270 1.378 . S
C263 C262 1.367 . S
C263 C271 1.433 . S
C264 H260 0.929 . S
C264 C266 1.378 . S
C264 C268 1.350 . S
C265 C268 1.463 . S
C265 C270 1.350 . S
C265 N273 1.427 . S
C266 H257 0.930 . S
C266 C264 1.378 . S
C266 C267 1.367 . S
C267 C266 1.367 . S
C267 C269 1.433 . S
C268 C264 1.350 . S
C268 C265 1.463 . S
C268 N272 1.427 . S
C269 H259 0.929 . S
C269 C267 1.433 . S
C269 N272 1.384 . S
C270 H261 0.929 . S
C270 C262 1.378 . S
C270 C265 1.350 . S
C271 H258 0.929 . S
C271 C263 1.433 . S
C271 N273 1.384 . S
N272 C268 1.427 . S
N272 C269 1.384 . S
N273 C265 1.427 . S
N273 C271 1.384 . S
H274 C280 0.930 . S
H275 C284 0.930 . S
H276 C289 0.929 . S
H277 C287 0.929 . S
H278 C282 0.929 . S
H279 C288 0.929 . S
C280 H274 0.930 . S
C280 C281 1.367 . S
C280 C288 1.378 . S
C281 C280 1.367 . S
C281 C289 1.433 . S
C282 H278 0.929 . S
C282 C284 1.378 . S
C282 C286 1.350 . S
C283 C286 1.463 . S
C283 C288 1.350 . S
C283 N291 1.427 . S
C284 H275 0.930 . S
C284 C282 1.378 . S
C284 C285 1.367 . S
C285 C284 1.367 . S
C285 C287 1.433 . S
C286 C282 1.350 . S
C286 C283 1.463 . S
C286 N290 1.427 . S
C287 H277 0.929 . S
C287 C285 1.433 . S
C287 N290 1.384 . S
C288 H279 0.929 . S
C288 C280 1.378 . S
C288 C283 1.350 . S
C289 H276 0.929 . S
C289 C281 1.433 . S
C289 N291 1.384 . S
N290 C286 1.427 . S
N290 C287 1.384 . S
N291 C283 1.427 . S
N291 C289 1.384 . S
H292 C298 0.930 . S
H293 C302 0.930 . S
H294 C307 0.929 . S
H295 C305 0.929 . S
H296 C300 0.929 . S
H297 C306 0.929 . S
C298 H292 0.930 . S
C298 C299 1.367 . S
C298 C306 1.378 . S
C299 C298 1.367 . S
C299 C307 1.433 . S
C300 H296 0.929 . S
C300 C302 1.378 . S
C300 C304 1.350 . S
C301 C304 1.463 . S
C301 C306 1.350 . S
C301 N309 1.427 . S
C302 H293 0.930 . S
C302 C300 1.378 . S
C302 C303 1.367 . S
C303 C302 1.367 . S
C303 C305 1.433 . S
C304 C300 1.350 . S
C304 C301 1.463 . S
C304 N308 1.427 . S
C305 H295 0.929 . S
C305 C303 1.433 . S
C305 N308 1.384 . S
C306 H297 0.929 . S
C306 C298 1.378 . S
C306 C301 1.350 . S
C307 H294 0.929 . S
C307 C299 1.433 . S
C307 N309 1.384 . S
N308 C304 1.427 . S
N308 C305 1.384 . S
N309 C301 1.427 . S
N309 C307 1.384 . S
C105 C59 1.395 . S
C101 N2 1.515 . S
C123 C55 1.386 . S
C119 N15 1.513 1_455 S
C141 C80 1.398 . S
C137 N28 1.513 . S
C155 N41 1.508 . S
C159 C76 1.407 . S
C173 N5 1.276 . S
C177 C77 1.133 . S
C195 C92 1.156 . S
C191 N14 1.291 . S
C209 N1 1.741 1_556 S
C213 C93 1.577 . S
C231 C89 1.616 . S
C227 N18 1.745 1_556 S
C249 C56 1.149 1_655 S
C245 N31 1.281 . S
C263 N40 1.293 . S
C267 C71 1.163 . S
C285 C72 1.586 . S
C281 N27 1.741 . S
C303 C68 1.598 . S
C299 N44 1.747 . S
