# Generated by pormake.
# Topology rtl, (3,6)-cn, num edge types: 1
# Building blocks:
#     Node 0, Type 0, BuildingBlock: ESEHIV_clean_linker_0, # of connection points: 3
#     Node 1, Type 0, BuildingBlock: ESEHIV_clean_linker_0, # of connection points: 3
#     Node 2, Type 0, BuildingBlock: ESEHIV_clean_linker_0, # of connection points: 3
#     Node 3, Type 0, BuildingBlock: ESEHIV_clean_linker_0, # of connection points: 3
#     Node 4, Type 1, BuildingBlock: KUMBUR_clean_sbu_1, # of connection points: 6
#     Node 5, Type 1, BuildingBlock: KUMBUR_clean_sbu_1, # of connection points: 6
#     Edge 6, Type (0, 1), BuildingBlock: OJICUG_clean_linker_0, # of connection points: 2
#     Edge 7, Type (0, 1), BuildingBlock: OJICUG_clean_linker_0, # of connection points: 2
#     Edge 8, Type (0, 1), BuildingBlock: OJICUG_clean_linker_0, # of connection points: 2
#     Edge 9, Type (0, 1), BuildingBlock: OJICUG_clean_linker_0, # of connection points: 2
#     Edge 10, Type (0, 1), BuildingBlock: OJICUG_clean_linker_0, # of connection points: 2
#     Edge 11, Type (0, 1), BuildingBlock: OJICUG_clean_linker_0, # of connection points: 2
#     Edge 12, Type (0, 1), BuildingBlock: OJICUG_clean_linker_0, # of connection points: 2
#     Edge 13, Type (0, 1), BuildingBlock: OJICUG_clean_linker_0, # of connection points: 2
#     Edge 14, Type (0, 1), BuildingBlock: OJICUG_clean_linker_0, # of connection points: 2
#     Edge 15, Type (0, 1), BuildingBlock: OJICUG_clean_linker_0, # of connection points: 2
#     Edge 16, Type (0, 1), BuildingBlock: OJICUG_clean_linker_0, # of connection points: 2
#     Edge 17, Type (0, 1), BuildingBlock: OJICUG_clean_linker_0, # of connection points: 2
# Relax obj value: 0.019
# Max RMSD: 0.147
# Mean RMSD: 0.088
data_MOF--net-rtl--node1-KUMBUR_clean_sbu_1--node2-ESEHIV_clean_linker_0--edge1-OJICUG_clean_linker_0
_symmetry_space_group_name_H-M    P1
_symmetry_Int_Tables_number       1
_symmetry_cell_setting            triclinic
loop_
_symmetry_equiv_pos_as_xyz
'x, y, z'
_cell_length_a     21.899803
_cell_length_b     22.818255
_cell_length_c     20.94812
_cell_angle_alpha  72.434449
_cell_angle_beta   98.268057
_cell_angle_gamma 91.889456
loop_
_atom_site_label
_atom_site_type_symbol
_atom_site_fract_x
_atom_site_fract_y
_atom_site_fract_z
_atom_type_partial_charge
H0 H 0.1615 0.93191 0.98972 0.0
H1 H 0.3015 0.81101 0.12724 0.0
H2 H 0.2617 0.81224 0.9189 0.0
C3 C 0.19818 0.89824 0.99954 0.0
C4 C 0.21 0.87636 0.947 0.0
C5 C 0.23007 0.87418 0.06513 0.0
C6 C 0.27584 0.82868 0.07706 0.0
C7 C 0.28852 0.8063 0.02437 0.0
C8 C 0.25445 0.8301 0.95968 0.0
H9 H 0.63614 0.59716 0.71119 0.0
H10 H 0.75487 0.70635 0.57589 0.0
H11 H 0.74374 0.7392 0.76661 0.0
C12 C 0.66898 0.63411 0.69892 0.0
C13 C 0.68818 0.66592 0.74587 0.0
C14 C 0.69235 0.64888 0.63707 0.0
C15 C 0.73614 0.69587 0.62309 0.0
C16 C 0.75526 0.72967 0.66882 0.0
C17 C 0.73076 0.71389 0.73063 0.0
H18 H 0.8823 0.10273 0.13763 0.0
H19 H 0.78142 0.21239 0.21976 0.0
H20 H 0.74046 0.22685 0.00754 0.0
C21 C 0.84544 0.13575 0.12999 0.0
C22 C 0.8133 0.16308 0.06507 0.0
C23 C 0.83294 0.15308 0.18521 0.0
C24 C 0.78835 0.1981 0.17646 0.0
C25 C 0.75374 0.22491 0.11277 0.0
C26 C 0.76668 0.20704 0.05702 0.0
H27 H 0.39701 0.4089 0.44789 0.0
H28 H 0.29756 0.27777 0.58664 0.0
H29 H 0.28083 0.27862 0.37825 0.0
C30 C 0.36599 0.37024 0.45809 0.0
C31 C 0.34229 0.34576 0.40578 0.0
C32 C 0.34957 0.34651 0.52298 0.0
C33 C 0.3087 0.29711 0.53578 0.0
C34 C 0.28238 0.27242 0.4841 0.0
C35 C 0.30061 0.2964 0.41903 0.0
Tb36 Tb 0.05606 0.94385 0.53917 0.0
C37 C 0.88116 0.15887 0.47041 0.0
N38 N 0.93761 0.15575 0.50804 0.0
C39 C 0.9601 0.25756 0.44129 0.0
C40 C 0.8626 0.21107 0.4152 0.0
C41 C 0.97675 0.20449 0.49509 0.0
C42 C 0.90293 0.26075 0.40088 0.0
C43 C 0.78407 0.10986 0.44834 0.0
C44 C 0.84302 0.10844 0.48629 0.0
C45 C 0.76586 0.16105 0.39211 0.0
C46 C 0.80502 0.21158 0.37562 0.0
Tb47 Tb 0.9612 0.06644 0.59347 0.0
N48 N 0.86264 0.05925 0.54051 0.0
C49 C 0.74438 0.06077 0.46949 0.0
C50 C 0.82091 0.01554 0.56589 0.0
C51 C 0.76229 0.01425 0.52961 0.0
H52 H 0.0209 0.20215 0.52611 0.0
H53 H 0.73041 0.97818 0.54899 0.0
H54 H 0.96413 0.82481 0.54018 0.0
H55 H 0.28246 0.96178 0.67432 0.0
H56 H 0.83132 0.98246 0.61514 0.0
H57 H 0.6987 0.06005 0.44186 0.0
H58 H 0.19061 1.00026 0.59134 0.0
H59 H 0.99148 0.29584 0.43082 0.0
H60 H 0.7211 0.16254 0.36187 0.0
H61 H 0.79017 0.25095 0.33249 0.0
H62 H 0.9631 0.71455 0.604 0.0
H63 H 0.89042 0.30167 0.35883 0.0
H64 H 0.29042 0.85218 0.74226 0.0
N65 N 0.05128 0.84069 0.59145 0.0
C66 C 0.10108 0.81532 0.63711 0.0
C67 C 1.00208 0.74245 0.61405 0.0
C68 C 0.10289 0.75241 0.67407 0.0
C69 C 1.00244 0.80513 0.5786 0.0
C70 C 0.05238 0.716 0.6622 0.0
N71 N 0.14492 0.91411 0.61334 0.0
C72 C 0.19258 0.95266 0.62094 0.0
C73 C 0.20192 0.82897 0.69574 0.0
C74 C 0.14994 0.85306 0.64779 0.0
C75 C 0.24977 0.86882 0.70571 0.0
C76 C 0.24527 0.9308 0.66771 0.0
H77 H 0.05191 0.66746 0.68965 0.0
H78 H 0.15679 0.67988 0.751 0.0
H79 H 0.24344 0.74695 0.77005 0.0
O80 O 0.11267 0.97206 0.46256 0.0
O81 O 0.05864 0.93045 0.64743 0.0
O82 O 0.04287 0.02459 0.66419 0.0
O83 O 0.0657 0.88584 0.47982 0.0
O84 O 0.09305 0.03811 0.51927 0.0
O85 O 0.05955 0.08712 0.59166 0.0
O86 O 0.90734 0.06312 0.6702 0.0
O87 O 0.97811 0.08277 0.48878 0.0
O88 O 0.97153 0.98683 0.47645 0.0
O89 O 0.96311 0.14102 0.63318 0.0
O90 O 0.94035 0.96729 0.63042 0.0
O91 O 0.95674 0.93338 0.54134 0.0
C92 C 0.06544 0.96819 0.68435 0.0
C93 C 0.08203 0.93717 0.36832 0.0
C94 C 0.10748 0.94013 0.25799 0.0
C95 C 0.04921 0.96653 0.22794 0.0
C96 C 0.02351 0.96172 0.33767 0.0
C97 C 1.00737 0.97689 0.26776 0.0
C98 C 0.12377 0.92561 0.32846 0.0
C99 C 0.09701 0.08191 0.54925 0.0
C100 C 0.10008 0.92425 0.44153 0.0
C101 C 0.15462 0.7281 0.72192 0.0
C102 C 0.20401 0.76627 0.73273 0.0
C103 C 0.9633 0.04637 0.45147 0.0
C104 C 0.95183 0.11265 0.74844 0.0
C105 C 0.93323 0.11557 0.85932 0.0
C106 C 0.99574 0.10125 0.88415 0.0
C107 C 0.01448 0.10014 0.77366 0.0
C108 C 0.91134 0.12129 0.79123 0.0
C109 C 0.0362 0.09406 0.84129 0.0
C110 C 0.93161 0.92685 0.59641 0.0
C111 C 0.92826 0.11459 0.67842 0.0
H112 H 0.03546 0.97765 0.1738 0.0
H113 H 0.99036 0.96869 0.36795 0.0
H114 H 0.96218 0.99623 0.24446 0.0
H115 H 0.16881 0.90581 0.35205 0.0
H116 H 0.01341 0.09669 0.93649 0.0
H117 H 0.04651 0.09519 0.74095 0.0
H118 H 0.86296 0.13149 0.77201 0.0
H119 H 0.0845 0.08385 0.86048 0.0
Tb120 Tb 0.45308 0.48571 0.01239 0.0
C121 C 0.69252 0.60965 0.08238 0.0
N122 N 0.6759 0.55046 0.10932 0.0
C123 C 0.77341 0.51502 0.0951 0.0
C124 C 0.74931 0.6239 0.0575 0.0
C125 C 0.71625 0.50325 0.11869 0.0
C126 C 0.78968 0.57557 0.06351 0.0
C127 C 0.6679 0.71785 0.05391 0.0
C128 C 0.65216 0.65568 0.08038 0.0
C129 C 0.72341 0.73261 0.02654 0.0
C130 C 0.76408 0.68571 0.02837 0.0
Tb131 Tb 0.58142 0.53553 0.14478 0.0
N132 N 0.5992 0.63939 0.10788 0.0
C133 C 0.6284 0.76319 0.05785 0.0
C134 C 0.5636 0.68345 0.11725 0.0
C135 C 0.57665 0.74584 0.09083 0.0
H136 H 0.70383 0.45652 0.1434 0.0
H137 H 0.54734 0.78047 0.09698 0.0
H138 H 0.35152 0.60315 0.95407 0.0
H139 H 0.41284 0.24383 0.11841 0.0
H140 H 0.52559 0.67107 0.1461 0.0
H141 H 0.63876 0.81153 0.0381 0.0
H142 H 0.47078 0.33542 0.06141 0.0
H143 H 0.8048 0.47745 0.10119 0.0
H144 H 0.73602 0.78014 1.00536 0.0
H145 H 0.80725 0.69773 0.00829 0.0
H146 H 0.24868 0.62644 0.97526 0.0
H147 H 0.83385 0.58455 0.04507 0.0
H148 H 0.31132 0.25703 0.15174 0.0
N149 N 0.3551 0.51189 0.0217 0.0
C150 C 0.32155 0.4656 0.0574 0.0
C151 C 0.26902 0.58119 0.99967 0.0
C152 C 0.26141 0.47593 0.06853 0.0
C153 C 0.32804 0.56814 0.989 0.0
C154 C 0.236 0.53518 0.04078 0.0
N155 N 0.40322 0.39886 0.06461 0.0
C156 C 0.42637 0.34115 0.07574 0.0
C157 C 0.31138 0.35629 0.11103 0.0
C158 C 0.34591 0.40674 0.07832 0.0
C159 C 0.33641 0.2971 0.12666 0.0
C160 C 0.39373 0.28945 0.10793 0.0
H161 H 0.18996 0.54514 0.04821 0.0
H162 H 0.18178 0.43347 0.11417 0.0
H163 H 0.22565 0.32855 0.15147 0.0
O164 O 0.47663 0.44148 0.9447 0.0
O165 O 0.46433 0.43611 0.12173 0.0
O166 O 0.48973 0.51016 0.17364 0.0
O167 O 0.39272 0.49387 0.92203 0.0
O168 O 0.54351 0.44055 0.0341 0.0
O169 O 0.5837 0.43941 0.1437 0.0
O170 O 0.61712 0.56913 0.22594 0.0
O171 O 0.60154 0.53945 0.04329 0.0
O172 O 0.50979 0.56635 0.97316 0.0
O173 O 0.62204 0.47309 0.23582 0.0
O174 O 0.4897 0.57954 0.12186 0.0
O175 O 0.45564 0.5827 0.01107 0.0
C176 C 0.45948 0.46033 0.17013 0.0
C177 C 0.44033 0.48743 0.83021 0.0
C178 C 0.43524 0.47529 0.71792 0.0
C179 C 0.46882 0.52982 0.6978 0.0
C180 C 0.47281 0.54222 0.80918 0.0
C181 C 0.48722 0.56318 0.74325 0.0
C182 C 0.42135 0.45436 0.78449 0.0
C183 C 0.57998 0.41749 0.09164 0.0
C184 C 0.4285 0.4621 0.90039 0.0
C185 C 0.22781 0.42637 0.10443 0.0
C186 C 0.25271 0.36659 0.12553 0.0
C187 C 0.57039 0.56885 0.98444 0.0
C188 C 0.60546 0.50009 0.33271 0.0
C189 C 0.60447 0.51962 0.44135 0.0
C190 C 0.55941 0.47404 0.45655 0.0
C191 C 0.56012 0.4551 0.34907 0.0
C192 C 0.62745 0.53218 0.37906 0.0
C193 C 0.53752 0.44213 0.41072 0.0
C194 C 0.45647 0.6046 0.06265 0.0
C195 C 0.62959 0.51449 0.26737 0.0
H196 H 0.47989 0.54713 0.64672 0.0
H197 H 0.48714 0.56829 0.84386 0.0
H198 H 0.51265 0.60535 0.72732 0.0
H199 H 0.39673 0.41165 0.80118 0.0
H200 H 0.54166 0.46245 0.50439 0.0
H201 H 0.54223 0.42974 0.31441 0.0
H202 H 0.66172 0.56754 0.36601 0.0
H203 H 0.50312 0.40694 0.42314 0.0
C204 C 0.22979 0.1753 0.46962 0.0
C205 C 0.23443 0.22354 0.49894 0.0
H206 H 0.1833 0.09279 0.46236 0.0
C207 C 0.19325 0.22433 0.54458 0.0
H208 H 0.26086 0.17262 0.43477 0.0
C209 C 0.15015 0.17783 0.56184 0.0
C210 C 0.14521 0.12972 0.53255 0.0
H211 H 0.19381 0.26132 0.56707 0.0
H212 H 0.12023 0.18018 0.59792 0.0
C213 C 0.18559 0.12909 0.48604 0.0
C214 C 0.37008 0.75535 0.98528 0.0
C215 C 0.33532 0.75669 0.03651 0.0
H216 H 0.43506 0.70567 0.95328 0.0
C217 C 0.34365 0.70867 0.09787 0.0
H218 H 0.36635 0.79218 0.93802 0.0
C219 C 0.38455 0.66011 0.10707 0.0
C220 C 0.41689 0.65791 0.05468 0.0
H221 H 0.31722 0.7074 0.13813 0.0
H222 H 0.38922 0.62314 0.15427 0.0
C223 C 0.40982 0.70611 0.99399 0.0
C224 C 0.80114 0.81653 0.58303 0.0
C225 C 0.80002 0.78145 0.65105 0.0
H226 H 0.84412 0.8887 0.51281 0.0
C227 C 0.84252 0.79609 0.70121 0.0
H228 H 0.7682 0.80876 0.54275 0.0
C229 C 0.88474 0.84394 0.68373 0.0
C230 C 0.88652 0.87714 0.6157 0.0
H231 H 0.84412 0.77 0.75399 0.0
H232 H 0.91701 0.85402 0.72326 0.0
C233 C 0.8444 0.86295 0.56561 0.0
C234 C 0.6731 0.27023 0.15935 0.0
C235 C 0.70589 0.27257 0.10533 0.0
H236 H 0.6087 0.31506 0.1978 0.0
C237 C 0.69457 0.32238 0.04582 0.0
H238 H 0.67884 0.23192 0.20532 0.0
C239 C 0.65243 0.36876 0.04096 0.0
C240 C 0.62193 0.3671 0.09599 0.0
H241 H 0.71942 0.32669 1.00358 0.0
H242 H 0.64521 0.40704 0.99493 0.0
C243 C 0.63246 0.31755 0.15513 0.0
C244 C 0.19281 0.95478 0.10997 0.0
C245 C 0.21084 0.89346 0.12111 0.0
H246 H 0.14573 0.0175 0.1448 0.0
C247 C 0.2023 0.84948 0.18264 0.0
H248 H 0.19998 0.99007 0.06381 0.0
C249 C 0.1721 0.8656 0.22955 0.0
C250 C 0.14952 0.92574 0.21535 0.0
H251 H 0.21521 0.80181 0.19265 0.0
H252 H 0.16287 0.83019 0.27478 0.0
C253 C 0.16194 0.9706 0.15629 0.0
C254 C 0.60542 0.67145 0.81444 0.0
C255 C 0.66275 0.64799 0.81066 0.0
H256 H 0.53165 0.66542 0.87328 0.0
C257 C 0.69165 0.60142 0.86616 0.0
H258 H 0.58207 0.70689 0.77178 0.0
C259 C 0.6626 0.57711 0.92376 0.0
C260 C 0.60405 0.59886 0.92671 0.0
H261 H 0.73552 0.58214 0.86379 0.0
H262 H 0.68472 0.53939 0.96461 0.0
C263 C 0.57651 0.64738 0.87217 0.0
C264 C 0.85606 0.06431 0.28876 0.0
C265 C 0.86768 0.12506 0.25237 0.0
H266 H 0.87683 0.99185 0.38177 0.0
C267 C 0.91161 0.15942 0.28074 0.0
H268 H 0.82195 0.03745 0.26737 0.0
C269 C 0.94385 0.13314 0.34511 0.0
C270 C 0.93155 0.07268 0.38231 0.0
H271 H 0.92092 0.20646 0.25306 0.0
H272 H 0.978 0.16023 0.36607 0.0
C273 C 0.88745 0.03839 0.35369 0.0
C274 C 0.4341 0.39625 0.58247 0.0
C275 C 0.37284 0.37584 0.57609 0.0
H276 H 0.50181 0.44401 0.63197 0.0
C277 C 0.33292 0.3869 0.61817 0.0
H278 H 0.46627 0.38722 0.55179 0.0
C279 C 0.35347 0.4186 0.66463 0.0
C280 C 0.41421 0.44034 0.6697 0.0
H281 H 0.28522 0.37266 0.61386 0.0
H282 H 0.32129 0.42751 0.69543 0.0
C283 C 0.45446 0.42859 0.6284 0.0
C284 C 0.60724 0.60216 0.57472 0.0
C285 C 0.67013 0.61592 0.58665 0.0
H286 H 0.53715 0.56232 0.51908 0.0
C287 C 0.71125 0.59838 0.54973 0.0
H288 H 0.57408 0.61596 0.60128 0.0
C289 C 0.69001 0.56765 0.50229 0.0
C290 C 0.62714 0.55363 0.49064 0.0
H291 H 0.76011 0.60747 0.55828 0.0
H292 H 0.72312 0.5538 0.47572 0.0
C293 C 0.58603 0.57144 0.5274 0.0
C294 C 0.85316 0.08869 0.01303 0.0
C295 C 0.83251 0.1484 1.00612 0.0
H296 H 0.90184 0.03184 0.97181 0.0
C297 C 0.83778 0.19526 0.94551 0.0
H298 H 0.84847 0.0511 0.05817 0.0
C299 C 0.86702 0.18356 0.89529 0.0
C300 C 0.89196 0.12511 0.90523 0.0
H301 H 0.82289 0.24183 0.93857 0.0
H302 H 0.87357 0.22106 0.85067 0.0
C303 C 0.8833 0.0774 0.96351 0.0
C304 C 0.36403 0.43826 0.31172 0.0
C305 C 0.36197 0.37384 0.33801 0.0
H306 H 0.39675 0.51564 0.23866 0.0
C307 C 0.38691 0.33777 0.30405 0.0
H308 H 0.34452 0.46738 0.3362 0.0
C309 C 0.41685 0.36574 0.24761 0.0
C310 C 0.42209 0.43008 0.22429 0.0
H311 H 0.3865 0.28809 0.32343 0.0
H312 H 0.43859 0.33698 0.22447 0.0
C313 C 0.3941 0.46597 0.25597 0.0
C314 C 0.14169 0.85929 0.84841 0.0
C315 C 0.17348 0.90003 0.87949 0.0
H316 H 0.08061 0.84929 0.76325 0.0
C317 C 0.1691 0.96351 0.84655 0.0
H318 H 0.14403 0.81016 0.87324 0.0
C319 C 0.13388 0.9859 0.78299 0.0
C320 C 0.10135 0.94525 0.7522 0.0
H321 H 0.19378 0.99565 0.86953 0.0
H322 H 0.13336 0.03478 0.7574 0.0
C323 C 0.10547 0.88174 0.7856 0.0
loop_
_geom_bond_atom_site_label_1
_geom_bond_atom_site_label_2
_geom_bond_distance
_geom_bond_site_symmetry_2
_ccdc_geom_bond_type
H0 C3 0.931 1_556 S
H1 C6 0.928 . S
H2 C8 0.930 . S
C3 H0 0.931 1_554 S
C3 C4 1.413 1_554 S
C3 C5 1.360 . S
C4 C3 1.413 1_556 S
C4 C8 1.429 . S
C5 C3 1.360 . S
C5 C6 1.372 . S
C6 H1 0.928 . S
C6 C5 1.372 . S
C6 C7 1.404 . S
C7 C6 1.404 . S
C7 C8 1.391 1_554 S
C8 H2 0.930 . S
C8 C4 1.429 . S
C8 C7 1.391 1_556 S
H9 C12 0.931 . S
H10 C15 0.928 . S
H11 C17 0.930 . S
C12 H9 0.931 . S
C12 C13 1.413 . S
C12 C14 1.360 . S
C13 C12 1.413 . S
C13 C17 1.429 . S
C14 C12 1.360 . S
C14 C15 1.372 . S
C15 H10 0.928 . S
C15 C14 1.372 . S
C15 C16 1.404 . S
C16 C15 1.404 . S
C16 C17 1.391 . S
C17 H11 0.930 . S
C17 C13 1.429 . S
C17 C16 1.391 . S
H18 C21 0.931 . S
H19 C24 0.928 . S
H20 C26 0.930 . S
C21 H18 0.931 . S
C21 C22 1.413 . S
C21 C23 1.360 . S
C22 C21 1.413 . S
C22 C26 1.429 . S
C23 C21 1.360 . S
C23 C24 1.372 . S
C24 H19 0.928 . S
C24 C23 1.372 . S
C24 C25 1.404 . S
C25 C24 1.404 . S
C25 C26 1.391 . S
C26 H20 0.930 . S
C26 C22 1.429 . S
C26 C25 1.391 . S
H27 C30 0.931 . S
H28 C33 0.928 . S
H29 C35 0.930 . S
C30 H27 0.931 . S
C30 C31 1.413 . S
C30 C32 1.360 . S
C31 C30 1.413 . S
C31 C35 1.429 . S
C32 C30 1.360 . S
C32 C33 1.372 . S
C33 H28 0.928 . S
C33 C32 1.372 . S
C33 C34 1.404 . S
C34 C33 1.404 . S
C34 C35 1.391 . S
C35 H29 0.930 . S
C35 C31 1.429 . S
C35 C34 1.391 . S
Tb36 N65 2.617 . S
Tb36 N71 2.572 . S
Tb36 O80 2.465 . S
Tb36 O81 2.387 . S
Tb36 O83 2.428 . S
Tb36 O84 2.308 1_565 S
Tb36 O88 2.349 1_465 S
Tb36 O91 2.393 1_455 S
Tb36 C100 2.802 . S
C37 N38 1.379 . S
C37 C40 1.416 . S
C37 C44 1.424 . S
N38 C37 1.379 . S
N38 C41 1.334 . S
N38 Tb47 2.617 . S
C39 C41 1.390 . S
C39 C42 1.339 . S
C39 H59 0.930 1_655 S
C40 C37 1.416 . S
C40 C42 1.416 . S
C40 C46 1.448 . S
C41 N38 1.334 . S
C41 C39 1.390 . S
C41 H52 0.930 1_655 S
C42 C39 1.339 . S
C42 C40 1.416 . S
C42 H63 0.930 . S
C43 C44 1.413 . S
C43 C45 1.427 . S
C43 C49 1.416 . S
C44 C37 1.424 . S
C44 C43 1.413 . S
C44 N48 1.361 . S
C45 C43 1.427 . S
C45 C46 1.328 . S
C45 H60 0.929 . S
C46 C40 1.448 . S
C46 C45 1.328 . S
C46 H61 0.930 . S
Tb47 N38 2.617 . S
Tb47 N48 2.572 . S
Tb47 O82 2.349 1_655 S
Tb47 O85 2.393 1_655 S
Tb47 O86 2.465 . S
Tb47 O87 2.387 . S
Tb47 O89 2.428 . S
Tb47 O90 2.308 1_545 S
Tb47 C111 2.802 . S
N48 C44 1.361 . S
N48 Tb47 2.572 . S
N48 C50 1.340 . S
C49 C43 1.416 . S
C49 C51 1.332 . S
C49 H57 0.931 . S
C50 N48 1.340 . S
C50 C51 1.407 . S
C50 H56 0.930 . S
C51 C49 1.332 . S
C51 C50 1.407 . S
C51 H53 0.929 . S
H52 C41 0.930 1_455 S
H53 C51 0.929 . S
H54 C69 0.930 1_655 S
H55 C76 0.929 . S
H56 C50 0.930 . S
H57 C49 0.931 . S
H58 C72 0.930 . S
H59 C39 0.930 1_455 S
H60 C45 0.929 . S
H61 C46 0.930 . S
H62 C67 0.930 1_655 S
H63 C42 0.930 . S
H64 C75 0.931 . S
N65 Tb36 2.617 . S
N65 C66 1.379 . S
N65 C69 1.334 . S
C66 N65 1.379 . S
C66 C68 1.416 . S
C66 C74 1.424 . S
C67 H62 0.930 1_455 S
C67 C69 1.390 . S
C67 C70 1.339 . S
C68 C66 1.416 . S
C68 C70 1.416 . S
C68 C101 1.448 . S
C69 H54 0.930 1_455 S
C69 N65 1.334 . S
C69 C67 1.390 . S
C70 C67 1.339 . S
C70 C68 1.416 . S
C70 H77 0.930 . S
N71 Tb36 2.572 . S
N71 C72 1.340 . S
N71 C74 1.361 . S
C72 H58 0.930 . S
C72 N71 1.340 . S
C72 C76 1.407 . S
C73 C74 1.413 . S
C73 C75 1.416 . S
C73 C102 1.427 . S
C74 C66 1.424 . S
C74 N71 1.361 . S
C74 C73 1.413 . S
C75 H64 0.931 . S
C75 C73 1.416 . S
C75 C76 1.332 . S
C76 H55 0.929 . S
C76 C72 1.407 . S
C76 C75 1.332 . S
H77 C70 0.930 . S
H78 C101 0.930 . S
H79 C102 0.929 . S
O80 Tb36 2.465 . S
O80 C100 1.264 . S
O81 Tb36 2.387 . S
O81 C92 1.264 . S
O82 Tb47 2.349 1_455 S
O82 C92 1.243 1_545 S
O83 Tb36 2.428 . S
O83 C100 1.256 . S
O84 Tb36 2.308 1_545 S
O84 C99 1.266 . S
O85 Tb47 2.393 1_455 S
O85 C99 1.248 . S
O86 Tb47 2.465 . S
O86 C111 1.264 . S
O87 Tb47 2.387 . S
O87 C103 1.264 . S
O88 Tb36 2.349 1_645 S
O88 C103 1.243 . S
O89 Tb47 2.428 . S
O89 C111 1.256 . S
O90 Tb47 2.308 1_565 S
O90 C110 1.266 . S
O91 Tb36 2.393 1_655 S
O91 C110 1.248 . S
C92 O81 1.264 . S
C92 O82 1.243 1_565 S
C93 C96 1.399 . S
C93 C98 1.383 . S
C93 C100 1.496 . S
C94 C95 1.399 . S
C94 C98 1.389 . S
C95 C94 1.399 . S
C95 C97 1.380 . S
C95 H112 0.929 . S
C96 C93 1.399 . S
C96 C97 1.392 . S
C96 H113 0.929 . S
C97 C95 1.380 . S
C97 C96 1.392 . S
C97 H114 0.929 . S
C98 C93 1.383 . S
C98 C94 1.389 . S
C98 H115 0.931 . S
C99 O84 1.266 . S
C99 O85 1.248 . S
C100 Tb36 2.802 . S
C100 O80 1.264 . S
C100 O83 1.256 . S
C100 C93 1.496 . S
C101 C68 1.448 . S
C101 H78 0.930 . S
C101 C102 1.328 . S
C102 C73 1.427 . S
C102 H79 0.929 . S
C102 C101 1.328 . S
C103 O87 1.264 . S
C103 O88 1.243 . S
C104 C107 1.399 . S
C104 C108 1.383 . S
C104 C111 1.496 . S
C105 C106 1.399 . S
C105 C108 1.389 . S
C106 C105 1.399 . S
C106 C109 1.380 . S
C106 H116 0.929 . S
C107 C104 1.399 . S
C107 C109 1.392 . S
C107 H117 0.929 . S
C108 C104 1.383 . S
C108 C105 1.389 . S
C108 H118 0.931 . S
C109 C106 1.380 . S
C109 C107 1.392 . S
C109 H119 0.929 . S
C110 O90 1.266 . S
C110 O91 1.248 . S
C111 Tb47 2.802 . S
C111 O86 1.264 . S
C111 O89 1.256 . S
C111 C104 1.496 . S
H112 C95 0.929 . S
H113 C96 0.929 . S
H114 C97 0.929 . S
H115 C98 0.931 . S
H116 C106 0.929 . S
H117 C107 0.929 . S
H118 C108 0.931 . S
H119 C109 0.929 . S
Tb120 N149 2.617 . S
Tb120 N155 2.572 . S
Tb120 O164 2.465 1_554 S
Tb120 O165 2.387 . S
Tb120 O167 2.428 1_554 S
Tb120 O168 2.308 . S
Tb120 O172 2.349 1_554 S
Tb120 O175 2.393 . S
Tb120 C184 2.802 1_554 S
C121 N122 1.379 . S
C121 C124 1.416 . S
C121 C128 1.424 . S
N122 C121 1.379 . S
N122 C125 1.334 . S
N122 Tb131 2.617 . S
C123 C125 1.390 . S
C123 C126 1.339 . S
C123 H143 0.930 . S
C124 C121 1.416 . S
C124 C126 1.416 . S
C124 C130 1.448 . S
C125 N122 1.334 . S
C125 C123 1.390 . S
C125 H136 0.930 . S
C126 C123 1.339 . S
C126 C124 1.416 . S
C126 H147 0.930 . S
C127 C128 1.413 . S
C127 C129 1.427 . S
C127 C133 1.416 . S
C128 C121 1.424 . S
C128 C127 1.413 . S
C128 N132 1.361 . S
C129 C127 1.427 . S
C129 C130 1.328 . S
C129 H144 0.929 . S
C130 C124 1.448 . S
C130 C129 1.328 . S
C130 H145 0.930 . S
Tb131 N122 2.617 . S
Tb131 N132 2.572 . S
Tb131 O166 2.349 . S
Tb131 O169 2.393 . S
Tb131 O170 2.465 . S
Tb131 O171 2.387 . S
Tb131 O173 2.428 . S
Tb131 O174 2.308 . S
Tb131 C195 2.802 . S
N132 C128 1.361 . S
N132 Tb131 2.572 . S
N132 C134 1.340 . S
C133 C127 1.416 . S
C133 C135 1.332 . S
C133 H141 0.931 . S
C134 N132 1.340 . S
C134 C135 1.407 . S
C134 H140 0.930 . S
C135 C133 1.332 . S
C135 C134 1.407 . S
C135 H137 0.929 . S
H136 C125 0.930 . S
H137 C135 0.929 . S
H138 C153 0.930 . S
H139 C160 0.929 . S
H140 C134 0.930 . S
H141 C133 0.931 . S
H142 C156 0.930 . S
H143 C123 0.930 . S
H144 C129 0.929 . S
H145 C130 0.930 . S
H146 C151 0.930 . S
H147 C126 0.930 . S
H148 C159 0.931 . S
N149 Tb120 2.617 . S
N149 C150 1.379 . S
N149 C153 1.334 1_554 S
C150 N149 1.379 . S
C150 C152 1.416 . S
C150 C158 1.424 . S
C151 H146 0.930 . S
C151 C153 1.390 . S
C151 C154 1.339 1_556 S
C152 C150 1.416 . S
C152 C154 1.416 . S
C152 C185 1.448 . S
C153 H138 0.930 . S
C153 N149 1.334 1_556 S
C153 C151 1.390 . S
C154 C151 1.339 1_554 S
C154 C152 1.416 . S
C154 H161 0.930 . S
N155 Tb120 2.572 . S
N155 C156 1.340 . S
N155 C158 1.361 . S
C156 H142 0.930 . S
C156 N155 1.340 . S
C156 C160 1.407 . S
C157 C158 1.413 . S
C157 C159 1.416 . S
C157 C186 1.427 . S
C158 C150 1.424 . S
C158 N155 1.361 . S
C158 C157 1.413 . S
C159 H148 0.931 . S
C159 C157 1.416 . S
C159 C160 1.332 . S
C160 H139 0.929 . S
C160 C156 1.407 . S
C160 C159 1.332 . S
H161 C154 0.930 . S
H162 C185 0.930 . S
H163 C186 0.929 . S
O164 Tb120 2.465 1_556 S
O164 C184 1.264 . S
O165 Tb120 2.387 . S
O165 C176 1.264 . S
O166 Tb131 2.349 . S
O166 C176 1.243 . S
O167 Tb120 2.428 1_556 S
O167 C184 1.256 . S
O168 Tb120 2.308 . S
O168 C183 1.266 . S
O169 Tb131 2.393 . S
O169 C183 1.248 . S
O170 Tb131 2.465 . S
O170 C195 1.264 . S
O171 Tb131 2.387 . S
O171 C187 1.264 1_554 S
O172 Tb120 2.349 1_556 S
O172 C187 1.243 . S
O173 Tb131 2.428 . S
O173 C195 1.256 . S
O174 Tb131 2.308 . S
O174 C194 1.266 . S
O175 Tb120 2.393 . S
O175 C194 1.248 . S
C176 O165 1.264 . S
C176 O166 1.243 . S
C177 C180 1.399 . S
C177 C182 1.383 . S
C177 C184 1.496 . S
C178 C179 1.399 . S
C178 C182 1.389 . S
C179 C178 1.399 . S
C179 C181 1.380 . S
C179 H196 0.929 . S
C180 C177 1.399 . S
C180 C181 1.392 . S
C180 H197 0.929 . S
C181 C179 1.380 . S
C181 C180 1.392 . S
C181 H198 0.929 . S
C182 C177 1.383 . S
C182 C178 1.389 . S
C182 H199 0.931 . S
C183 O168 1.266 . S
C183 O169 1.248 . S
C184 Tb120 2.802 1_556 S
C184 O164 1.264 . S
C184 O167 1.256 . S
C184 C177 1.496 . S
C185 C152 1.448 . S
C185 H162 0.930 . S
C185 C186 1.328 . S
C186 C157 1.427 . S
C186 H163 0.929 . S
C186 C185 1.328 . S
C187 O171 1.264 1_556 S
C187 O172 1.243 . S
C188 C191 1.399 . S
C188 C192 1.383 . S
C188 C195 1.496 . S
C189 C190 1.399 . S
C189 C192 1.389 . S
C190 C189 1.399 . S
C190 C193 1.380 . S
C190 H200 0.929 . S
C191 C188 1.399 . S
C191 C193 1.392 . S
C191 H201 0.929 . S
C192 C188 1.383 . S
C192 C189 1.389 . S
C192 H202 0.931 . S
C193 C190 1.380 . S
C193 C191 1.392 . S
C193 H203 0.929 . S
C194 O174 1.266 . S
C194 O175 1.248 . S
C195 Tb131 2.802 . S
C195 O170 1.264 . S
C195 O173 1.256 . S
C195 C188 1.496 . S
H196 C179 0.929 . S
H197 C180 0.929 . S
H198 C181 0.929 . S
H199 C182 0.931 . S
H200 C190 0.929 . S
H201 C191 0.929 . S
H202 C192 0.931 . S
H203 C193 0.929 . S
C204 C205 1.387 . S
C204 H208 0.950 . S
C204 C213 1.390 . S
C205 C204 1.387 . S
C205 C207 1.387 . S
H206 C213 0.950 . S
C207 C205 1.387 . S
C207 C209 1.390 . S
C207 H211 0.950 . S
H208 C204 0.950 . S
C209 C207 1.390 . S
C209 C210 1.387 . S
C209 H212 0.950 . S
C210 C209 1.387 . S
C210 C213 1.387 . S
H211 C207 0.950 . S
H212 C209 0.950 . S
C213 C204 1.390 . S
C213 H206 0.950 . S
C213 C210 1.387 . S
C214 C215 1.387 1_556 S
C214 H218 0.950 . S
C214 C223 1.390 . S
C215 C214 1.387 1_554 S
C215 C217 1.387 . S
H216 C223 0.950 . S
C217 C215 1.387 . S
C217 C219 1.390 . S
C217 H221 0.950 . S
H218 C214 0.950 . S
C219 C217 1.390 . S
C219 C220 1.387 . S
C219 H222 0.950 . S
C220 C219 1.387 . S
C220 C223 1.387 1_554 S
H221 C217 0.950 . S
H222 C219 0.950 . S
C223 C214 1.390 . S
C223 H216 0.950 . S
C223 C220 1.387 1_556 S
C224 C225 1.387 . S
C224 H228 0.950 . S
C224 C233 1.390 . S
C225 C224 1.387 . S
C225 C227 1.387 . S
H226 C233 0.950 . S
C227 C225 1.387 . S
C227 C229 1.390 . S
C227 H231 0.950 . S
H228 C224 0.950 . S
C229 C227 1.390 . S
C229 C230 1.387 . S
C229 H232 0.950 . S
C230 C229 1.387 . S
C230 C233 1.387 . S
H231 C227 0.950 . S
H232 C229 0.950 . S
C233 C224 1.390 . S
C233 H226 0.950 . S
C233 C230 1.387 . S
C234 C235 1.387 . S
C234 H238 0.950 . S
C234 C243 1.390 . S
C235 C234 1.387 . S
C235 C237 1.387 . S
H236 C243 0.950 . S
C237 C235 1.387 . S
C237 C239 1.390 . S
C237 H241 0.950 1_554 S
H238 C234 0.950 . S
C239 C237 1.390 . S
C239 C240 1.387 . S
C239 H242 0.950 1_554 S
C240 C239 1.387 . S
C240 C243 1.387 . S
H241 C237 0.950 1_556 S
H242 C239 0.950 1_556 S
C243 C234 1.390 . S
C243 H236 0.950 . S
C243 C240 1.387 . S
C244 C245 1.387 . S
C244 H248 0.950 . S
C244 C253 1.390 . S
C245 C244 1.387 . S
C245 C247 1.387 . S
H246 C253 0.950 1_545 S
C247 C245 1.387 . S
C247 C249 1.390 . S
C247 H251 0.950 . S
H248 C244 0.950 . S
C249 C247 1.390 . S
C249 C250 1.387 . S
C249 H252 0.950 . S
C250 C249 1.387 . S
C250 C253 1.387 . S
H251 C247 0.950 . S
H252 C249 0.950 . S
C253 C244 1.390 . S
C253 H246 0.950 1_565 S
C253 C250 1.387 . S
C254 C255 1.387 . S
C254 H258 0.950 . S
C254 C263 1.390 . S
C255 C254 1.387 . S
C255 C257 1.387 . S
H256 C263 0.950 . S
C257 C255 1.387 . S
C257 C259 1.390 . S
C257 H261 0.950 . S
H258 C254 0.950 . S
C259 C257 1.390 . S
C259 C260 1.387 . S
C259 H262 0.950 . S
C260 C259 1.387 . S
C260 C263 1.387 . S
H261 C257 0.950 . S
H262 C259 0.950 . S
C263 C254 1.390 . S
C263 H256 0.950 . S
C263 C260 1.387 . S
C264 C265 1.387 . S
C264 H268 0.950 1_545 S
C264 C273 1.390 . S
C265 C264 1.387 . S
C265 C267 1.387 . S
H266 C273 0.950 1_565 S
C267 C265 1.387 . S
C267 C269 1.390 . S
C267 H271 0.950 . S
H268 C264 0.950 1_565 S
C269 C267 1.390 . S
C269 C270 1.387 . S
C269 H272 0.950 . S
C270 C269 1.387 . S
C270 C273 1.387 . S
H271 C267 0.950 . S
H272 C269 0.950 . S
C273 C264 1.390 . S
C273 H266 0.950 1_545 S
C273 C270 1.387 . S
C274 C275 1.387 . S
C274 H278 0.950 . S
C274 C283 1.390 . S
C275 C274 1.387 . S
C275 C277 1.387 . S
H276 C283 0.950 . S
C277 C275 1.387 . S
C277 C279 1.390 . S
C277 H281 0.950 . S
H278 C274 0.950 . S
C279 C277 1.390 . S
C279 C280 1.387 . S
C279 H282 0.950 . S
C280 C279 1.387 . S
C280 C283 1.387 . S
H281 C277 0.950 . S
H282 C279 0.950 . S
C283 C274 1.390 . S
C283 H276 0.950 . S
C283 C280 1.387 . S
C284 C285 1.387 . S
C284 H288 0.950 . S
C284 C293 1.390 . S
C285 C284 1.387 . S
C285 C287 1.387 . S
H286 C293 0.950 . S
C287 C285 1.387 . S
C287 C289 1.390 . S
C287 H291 0.950 . S
H288 C284 0.950 . S
C289 C287 1.390 . S
C289 C290 1.387 . S
C289 H292 0.950 . S
C290 C289 1.387 . S
C290 C293 1.387 . S
H291 C287 0.950 . S
H292 C289 0.950 . S
C293 C284 1.390 . S
C293 H286 0.950 . S
C293 C290 1.387 . S
C294 C295 1.387 . S
C294 H298 0.950 . S
C294 C303 1.390 1_554 S
C295 C294 1.387 . S
C295 C297 1.387 1_554 S
H296 C303 0.950 . S
C297 C295 1.387 1_556 S
C297 C299 1.390 . S
C297 H301 0.950 . S
H298 C294 0.950 . S
C299 C297 1.390 . S
C299 C300 1.387 . S
C299 H302 0.950 . S
C300 C299 1.387 . S
C300 C303 1.387 . S
H301 C297 0.950 . S
H302 C299 0.950 . S
C303 C294 1.390 1_556 S
C303 H296 0.950 . S
C303 C300 1.387 . S
C304 C305 1.387 . S
C304 H308 0.950 . S
C304 C313 1.390 . S
C305 C304 1.387 . S
C305 C307 1.387 . S
H306 C313 0.950 . S
C307 C305 1.387 . S
C307 C309 1.390 . S
C307 H311 0.950 . S
H308 C304 0.950 . S
C309 C307 1.390 . S
C309 C310 1.387 . S
C309 H312 0.950 . S
C310 C309 1.387 . S
C310 C313 1.387 . S
H311 C307 0.950 . S
H312 C309 0.950 . S
C313 C304 1.390 . S
C313 H306 0.950 . S
C313 C310 1.387 . S
C314 C315 1.387 . S
C314 H318 0.950 . S
C314 C323 1.390 . S
C315 C314 1.387 . S
C315 C317 1.387 . S
H316 C323 0.950 . S
C317 C315 1.387 . S
C317 C319 1.390 . S
C317 H321 0.950 1_565 S
H318 C314 0.950 . S
C319 C317 1.390 . S
C319 C320 1.387 . S
C319 H322 0.950 1_565 S
C320 C319 1.387 . S
C320 C323 1.387 . S
H321 C317 0.950 1_545 S
H322 C319 0.950 1_545 S
C323 C314 1.390 . S
C323 H316 0.950 . S
C323 C320 1.387 . S
C210 C99 1.556 . S
C205 C34 1.571 . S
C215 C7 1.546 . S
C220 C194 1.540 . S
C225 C16 1.568 . S
C230 C110 1.556 . S
C235 C25 1.546 . S
C240 C183 1.540 . S
C250 C94 1.355 . S
C245 C5 1.523 . S
C260 C187 1.569 . S
C255 C13 1.560 . S
C265 C23 1.547 . S
C270 C103 1.566 . S
C275 C32 1.513 . S
C280 C178 1.362 . S
C290 C189 1.361 . S
C285 C14 1.512 . S
C300 C105 1.357 . S
C295 C22 1.520 . S
C310 C176 1.567 . S
C305 C31 1.559 . S
C315 C4 1.543 . S
C320 C92 1.564 . S
