# Generated by pormake.
# Topology ptr, (4,4)-cn, num edge types: 1
# Building blocks:
#     Node 0, Type 0, BuildingBlock: AZAVOO_clean_sbu_0, # of connection points: 4
#     Node 1, Type 0, BuildingBlock: AZAVOO_clean_sbu_0, # of connection points: 4
#     Node 2, Type 0, BuildingBlock: AZAVOO_clean_sbu_0, # of connection points: 4
#     Node 3, Type 0, BuildingBlock: AZAVOO_clean_sbu_0, # of connection points: 4
#     Node 4, Type 0, BuildingBlock: AZAVOO_clean_sbu_0, # of connection points: 4
#     Node 5, Type 0, BuildingBlock: AZAVOO_clean_sbu_0, # of connection points: 4
#     Node 6, Type 0, BuildingBlock: AZAVOO_clean_sbu_0, # of connection points: 4
#     Node 7, Type 0, BuildingBlock: AZAVOO_clean_sbu_0, # of connection points: 4
#     Node 8, Type 0, BuildingBlock: AZAVOO_clean_sbu_0, # of connection points: 4
#     Node 9, Type 0, BuildingBlock: AZAVOO_clean_sbu_0, # of connection points: 4
#     Node 10, Type 0, BuildingBlock: AZAVOO_clean_sbu_0, # of connection points: 4
#     Node 11, Type 0, BuildingBlock: AZAVOO_clean_sbu_0, # of connection points: 4
#     Node 12, Type 0, BuildingBlock: AZAVOO_clean_sbu_0, # of connection points: 4
#     Node 13, Type 0, BuildingBlock: AZAVOO_clean_sbu_0, # of connection points: 4
#     Node 14, Type 0, BuildingBlock: AZAVOO_clean_sbu_0, # of connection points: 4
#     Node 15, Type 0, BuildingBlock: AZAVOO_clean_sbu_0, # of connection points: 4
#     Node 16, Type 0, BuildingBlock: AZAVOO_clean_sbu_0, # of connection points: 4
#     Node 17, Type 0, BuildingBlock: AZAVOO_clean_sbu_0, # of connection points: 4
#     Node 18, Type 1, BuildingBlock: NAWXER_clean_linker_0, # of connection points: 4
#     Node 19, Type 1, BuildingBlock: NAWXER_clean_linker_0, # of connection points: 4
#     Node 20, Type 1, BuildingBlock: NAWXER_clean_linker_0, # of connection points: 4
#     Node 21, Type 1, BuildingBlock: NAWXER_clean_linker_0, # of connection points: 4
#     Node 22, Type 1, BuildingBlock: NAWXER_clean_linker_0, # of connection points: 4
#     Node 23, Type 1, BuildingBlock: NAWXER_clean_linker_0, # of connection points: 4
#     Node 24, Type 1, BuildingBlock: NAWXER_clean_linker_0, # of connection points: 4
#     Node 25, Type 1, BuildingBlock: NAWXER_clean_linker_0, # of connection points: 4
#     Node 26, Type 1, BuildingBlock: NAWXER_clean_linker_0, # of connection points: 4
#     Node 27, Type 1, BuildingBlock: NAWXER_clean_linker_0, # of connection points: 4
#     Node 28, Type 1, BuildingBlock: NAWXER_clean_linker_0, # of connection points: 4
#     Node 29, Type 1, BuildingBlock: NAWXER_clean_linker_0, # of connection points: 4
#     Node 30, Type 1, BuildingBlock: NAWXER_clean_linker_0, # of connection points: 4
#     Node 31, Type 1, BuildingBlock: NAWXER_clean_linker_0, # of connection points: 4
#     Node 32, Type 1, BuildingBlock: NAWXER_clean_linker_0, # of connection points: 4
#     Node 33, Type 1, BuildingBlock: NAWXER_clean_linker_0, # of connection points: 4
#     Node 34, Type 1, BuildingBlock: NAWXER_clean_linker_0, # of connection points: 4
#     Node 35, Type 1, BuildingBlock: NAWXER_clean_linker_0, # of connection points: 4
#     Edge 36, Type (0, 1), BuildingBlock: CIFDUS_clean_linker_0, # of connection points: 2
#     Edge 37, Type (0, 1), BuildingBlock: CIFDUS_clean_linker_0, # of connection points: 2
#     Edge 38, Type (0, 1), BuildingBlock: CIFDUS_clean_linker_0, # of connection points: 2
#     Edge 39, Type (0, 1), BuildingBlock: CIFDUS_clean_linker_0, # of connection points: 2
#     Edge 40, Type (0, 1), BuildingBlock: CIFDUS_clean_linker_0, # of connection points: 2
#     Edge 41, Type (0, 1), BuildingBlock: CIFDUS_clean_linker_0, # of connection points: 2
#     Edge 42, Type (0, 1), BuildingBlock: CIFDUS_clean_linker_0, # of connection points: 2
#     Edge 43, Type (0, 1), BuildingBlock: CIFDUS_clean_linker_0, # of connection points: 2
#     Edge 44, Type (0, 1), BuildingBlock: CIFDUS_clean_linker_0, # of connection points: 2
#     Edge 45, Type (0, 1), BuildingBlock: CIFDUS_clean_linker_0, # of connection points: 2
#     Edge 46, Type (0, 1), BuildingBlock: CIFDUS_clean_linker_0, # of connection points: 2
#     Edge 47, Type (0, 1), BuildingBlock: CIFDUS_clean_linker_0, # of connection points: 2
#     Edge 48, Type (0, 1), BuildingBlock: CIFDUS_clean_linker_0, # of connection points: 2
#     Edge 49, Type (0, 1), BuildingBlock: CIFDUS_clean_linker_0, # of connection points: 2
#     Edge 50, Type (0, 1), BuildingBlock: CIFDUS_clean_linker_0, # of connection points: 2
#     Edge 51, Type (0, 1), BuildingBlock: CIFDUS_clean_linker_0, # of connection points: 2
#     Edge 52, Type (0, 1), BuildingBlock: CIFDUS_clean_linker_0, # of connection points: 2
#     Edge 53, Type (0, 1), BuildingBlock: CIFDUS_clean_linker_0, # of connection points: 2
#     Edge 54, Type (0, 1), BuildingBlock: CIFDUS_clean_linker_0, # of connection points: 2
#     Edge 55, Type (0, 1), BuildingBlock: CIFDUS_clean_linker_0, # of connection points: 2
#     Edge 56, Type (0, 1), BuildingBlock: CIFDUS_clean_linker_0, # of connection points: 2
#     Edge 57, Type (0, 1), BuildingBlock: CIFDUS_clean_linker_0, # of connection points: 2
#     Edge 58, Type (0, 1), BuildingBlock: CIFDUS_clean_linker_0, # of connection points: 2
#     Edge 59, Type (0, 1), BuildingBlock: CIFDUS_clean_linker_0, # of connection points: 2
#     Edge 60, Type (0, 1), BuildingBlock: CIFDUS_clean_linker_0, # of connection points: 2
#     Edge 61, Type (0, 1), BuildingBlock: CIFDUS_clean_linker_0, # of connection points: 2
#     Edge 62, Type (0, 1), BuildingBlock: CIFDUS_clean_linker_0, # of connection points: 2
#     Edge 63, Type (0, 1), BuildingBlock: CIFDUS_clean_linker_0, # of connection points: 2
#     Edge 64, Type (0, 1), BuildingBlock: CIFDUS_clean_linker_0, # of connection points: 2
#     Edge 65, Type (0, 1), BuildingBlock: CIFDUS_clean_linker_0, # of connection points: 2
#     Edge 66, Type (0, 1), BuildingBlock: CIFDUS_clean_linker_0, # of connection points: 2
#     Edge 67, Type (0, 1), BuildingBlock: CIFDUS_clean_linker_0, # of connection points: 2
#     Edge 68, Type (0, 1), BuildingBlock: CIFDUS_clean_linker_0, # of connection points: 2
#     Edge 69, Type (0, 1), BuildingBlock: CIFDUS_clean_linker_0, # of connection points: 2
#     Edge 70, Type (0, 1), BuildingBlock: CIFDUS_clean_linker_0, # of connection points: 2
#     Edge 71, Type (0, 1), BuildingBlock: CIFDUS_clean_linker_0, # of connection points: 2
#     Edge 72, Type (0, 1), BuildingBlock: CIFDUS_clean_linker_0, # of connection points: 2
#     Edge 73, Type (0, 1), BuildingBlock: CIFDUS_clean_linker_0, # of connection points: 2
#     Edge 74, Type (0, 1), BuildingBlock: CIFDUS_clean_linker_0, # of connection points: 2
#     Edge 75, Type (0, 1), BuildingBlock: CIFDUS_clean_linker_0, # of connection points: 2
#     Edge 76, Type (0, 1), BuildingBlock: CIFDUS_clean_linker_0, # of connection points: 2
#     Edge 77, Type (0, 1), BuildingBlock: CIFDUS_clean_linker_0, # of connection points: 2
#     Edge 78, Type (0, 1), BuildingBlock: CIFDUS_clean_linker_0, # of connection points: 2
#     Edge 79, Type (0, 1), BuildingBlock: CIFDUS_clean_linker_0, # of connection points: 2
#     Edge 80, Type (0, 1), BuildingBlock: CIFDUS_clean_linker_0, # of connection points: 2
#     Edge 81, Type (0, 1), BuildingBlock: CIFDUS_clean_linker_0, # of connection points: 2
#     Edge 82, Type (0, 1), BuildingBlock: CIFDUS_clean_linker_0, # of connection points: 2
#     Edge 83, Type (0, 1), BuildingBlock: CIFDUS_clean_linker_0, # of connection points: 2
#     Edge 84, Type (0, 1), BuildingBlock: CIFDUS_clean_linker_0, # of connection points: 2
#     Edge 85, Type (0, 1), BuildingBlock: CIFDUS_clean_linker_0, # of connection points: 2
#     Edge 86, Type (0, 1), BuildingBlock: CIFDUS_clean_linker_0, # of connection points: 2
#     Edge 87, Type (0, 1), BuildingBlock: CIFDUS_clean_linker_0, # of connection points: 2
#     Edge 88, Type (0, 1), BuildingBlock: CIFDUS_clean_linker_0, # of connection points: 2
#     Edge 89, Type (0, 1), BuildingBlock: CIFDUS_clean_linker_0, # of connection points: 2
#     Edge 90, Type (0, 1), BuildingBlock: CIFDUS_clean_linker_0, # of connection points: 2
#     Edge 91, Type (0, 1), BuildingBlock: CIFDUS_clean_linker_0, # of connection points: 2
#     Edge 92, Type (0, 1), BuildingBlock: CIFDUS_clean_linker_0, # of connection points: 2
#     Edge 93, Type (0, 1), BuildingBlock: CIFDUS_clean_linker_0, # of connection points: 2
#     Edge 94, Type (0, 1), BuildingBlock: CIFDUS_clean_linker_0, # of connection points: 2
#     Edge 95, Type (0, 1), BuildingBlock: CIFDUS_clean_linker_0, # of connection points: 2
#     Edge 96, Type (0, 1), BuildingBlock: CIFDUS_clean_linker_0, # of connection points: 2
#     Edge 97, Type (0, 1), BuildingBlock: CIFDUS_clean_linker_0, # of connection points: 2
#     Edge 98, Type (0, 1), BuildingBlock: CIFDUS_clean_linker_0, # of connection points: 2
#     Edge 99, Type (0, 1), BuildingBlock: CIFDUS_clean_linker_0, # of connection points: 2
#     Edge 100, Type (0, 1), BuildingBlock: CIFDUS_clean_linker_0, # of connection points: 2
#     Edge 101, Type (0, 1), BuildingBlock: CIFDUS_clean_linker_0, # of connection points: 2
#     Edge 102, Type (0, 1), BuildingBlock: CIFDUS_clean_linker_0, # of connection points: 2
#     Edge 103, Type (0, 1), BuildingBlock: CIFDUS_clean_linker_0, # of connection points: 2
#     Edge 104, Type (0, 1), BuildingBlock: CIFDUS_clean_linker_0, # of connection points: 2
#     Edge 105, Type (0, 1), BuildingBlock: CIFDUS_clean_linker_0, # of connection points: 2
#     Edge 106, Type (0, 1), BuildingBlock: CIFDUS_clean_linker_0, # of connection points: 2
#     Edge 107, Type (0, 1), BuildingBlock: CIFDUS_clean_linker_0, # of connection points: 2
# Relax obj value: 0.082
# Max RMSD: 0.299
# Mean RMSD: 0.121
data_MOF--net-ptr--node1-AZAVOO_clean_sbu_0--node2-NAWXER_clean_linker_0--edge1-CIFDUS_clean_linker_0
_symmetry_space_group_name_H-M    P1
_symmetry_Int_Tables_number       1
_symmetry_cell_setting            triclinic
loop_
_symmetry_equiv_pos_as_xyz
'x, y, z'
_cell_length_a     79.145225
_cell_length_b     77.775911
_cell_length_c     55.485977
_cell_angle_alpha  91.193882
_cell_angle_beta   90.971758
_cell_angle_gamma 120.07879
loop_
_atom_site_label
_atom_site_type_symbol
_atom_site_fract_x
_atom_site_fract_y
_atom_site_fract_z
_atom_type_partial_charge
Mg0 Mg 0.02084 0.34123 0.98484 0.0
O1 O 0.0024 0.34928 0.00964 0.0
O2 O 0.98386 0.35623 0.98553 0.0
Mg3 Mg 0.98881 0.35113 0.94632 0.0
C4 C 0.9898 0.35483 0.00654 0.0
C5 C 0.03784 0.3188 0.01272 0.0
O6 O 0.0377 0.31284 0.99035 0.0
O7 O 0.99475 0.31022 0.97574 0.0
O8 O 0.97615 0.31777 0.95242 0.0
O9 O 0.04288 0.37364 0.98373 0.0
O10 O 0.01833 0.35778 0.95725 0.0
C11 C 0.97933 0.30513 0.96285 0.0
C12 C 0.03293 0.37429 0.96535 0.0
O13 O 0.03097 0.33022 0.01693 0.0
Mg14 Mg 0.66296 0.65319 0.04062 0.0
O15 O 0.6381 0.64198 0.01213 0.0
O16 O 0.61035 0.63404 0.03055 0.0
Mg17 Mg 0.61747 0.63903 0.0712 0.0
C18 C 0.61979 0.63567 0.01151 0.0
C19 C 0.70217 0.6692 0.01603 0.0
O20 O 0.70605 0.66546 0.03779 0.0
O21 O 0.66346 0.68256 0.04672 0.0
O22 O 0.63594 0.67272 0.06671 0.0
O23 O 0.65652 0.62193 0.04423 0.0
O24 O 0.64352 0.63601 0.06649 0.0
C25 C 0.65162 0.68636 0.05779 0.0
C26 C 0.64458 0.62047 0.06081 0.0
O27 O 0.68507 0.6659 0.011 0.0
Mg28 Mg 0.32806 0.96662 0.98236 0.0
O29 O 0.35384 0.98312 0.00928 0.0
O30 O 0.38117 0.00148 0.98954 0.0
Mg31 Mg 0.37242 0.99764 0.94933 0.0
C32 C 0.37223 0.99503 0.00915 0.0
C33 C 0.30904 0.94813 0.03055 0.0
O34 O 0.32209 0.94247 0.02896 0.0
O35 O 0.32669 0.99485 0.97603 0.0
O36 O 0.35399 0.01239 0.95553 0.0
O37 O 0.33568 0.94241 0.9781 0.0
O38 O 0.34648 0.96856 0.95518 0.0
C39 C 0.33848 0.01038 0.96487 0.0
C40 C 0.34642 0.95258 0.96059 0.0
O41 O 0.30765 0.95836 0.01389 0.0
Mg42 Mg 0.99815 0.66839 0.03299 0.0
O43 O 0.0129 0.65708 0.00637 0.0
O44 O 0.02864 0.6456 0.02868 0.0
Mg45 Mg 0.02543 0.65065 0.06858 0.0
C46 C 0.02328 0.64876 0.00821 0.0
C47 C 0.97877 0.67207 0.98573 0.0
O48 O 0.97298 0.65301 0.985 0.0
O49 O 0.02715 0.69684 0.04252 0.0
O50 O 0.04232 0.68449 0.06451 0.0
O51 O 0.97262 0.63738 0.03339 0.0
O52 O 0.99785 0.64944 0.05917 0.0
C53 C 0.04181 0.69913 0.05522 0.0
C54 C 0.98173 0.63451 0.05103 0.0
O55 O 0.99047 0.68303 0.00271 0.0
Mg56 Mg 0.34529 0.34491 0.98257 0.0
O57 O 0.3732 0.35522 0.00633 0.0
O58 O 0.39769 0.36337 0.98118 0.0
Mg59 Mg 0.386 0.35824 0.9423 0.0
C60 C 0.39125 0.36162 0.00248 0.0
C61 C 0.308 0.3201 0.0105 0.0
O62 O 0.3017 0.31546 0.98793 0.0
O63 O 0.34359 0.31536 0.97332 0.0
O64 O 0.36814 0.32474 0.94798 0.0
O65 O 0.35126 0.37627 0.98126 0.0
O66 O 0.36231 0.36258 0.95526 0.0
C67 C 0.35379 0.31132 0.95921 0.0
C68 C 0.36203 0.37813 0.96309 0.0
O69 O 0.32608 0.33199 0.01487 0.0
Mg70 Mg 0.65745 0.01207 0.03448 0.0
O71 O 0.62963 0.99478 0.01041 0.0
O72 O 0.60462 0.97846 0.03465 0.0
Mg73 Mg 0.61634 0.98408 0.07362 0.0
C74 C 0.61141 0.9834 0.01363 0.0
C75 C 0.67517 0.02878 0.98477 0.0
O76 O 0.66229 0.03472 0.98576 0.0
O77 O 0.65871 0.98395 0.04159 0.0
O78 O 0.63355 0.96818 0.06598 0.0
O79 O 0.65114 0.03717 0.0385 0.0
O80 O 0.64145 0.01229 0.06331 0.0
C81 C 0.64797 0.96929 0.05465 0.0
C82 C 0.64155 0.02818 0.05729 0.0
O83 O 0.6762 0.01861 0.00173 0.0
Mg84 Mg 0.67617 0.6749 0.33338 0.0
O85 O 0.66026 0.68403 0.3609 0.0
O86 O 0.63835 0.68832 0.33982 0.0
Mg87 Mg 0.64106 0.68357 0.29959 0.0
C88 C 0.64659 0.68824 0.35977 0.0
C89 C 0.70338 0.67608 0.37619 0.0
O90 O 0.71098 0.69527 0.37335 0.0
O91 O 0.64946 0.64368 0.32709 0.0
O92 O 0.62979 0.65048 0.30496 0.0
O93 O 0.69814 0.70726 0.32906 0.0
O94 O 0.67117 0.6903 0.30661 0.0
C95 C 0.63358 0.63808 0.31492 0.0
C96 C 0.6866 0.70699 0.31204 0.0
O97 O 0.68849 0.66402 0.36328 0.0
Mg98 Mg 0.33756 0.99517 0.38994 0.0
O99 O 0.31401 0.98523 0.35979 0.0
O100 O 0.28658 0.98145 0.37536 0.0
Mg101 Mg 0.29229 0.98768 0.41611 0.0
C102 C 0.29623 0.98093 0.35744 0.0
C103 C 0.35844 0.99258 0.34432 0.0
O104 O 0.34307 0.97462 0.34389 0.0
O105 O 0.34155 0.02631 0.39256 0.0
O106 O 0.31444 0.02056 0.41098 0.0
O107 O 0.32816 0.96345 0.3969 0.0
O108 O 0.31581 0.98017 0.41477 0.0
C109 C 0.33103 0.0325 0.40238 0.0
C110 C 0.31558 0.96362 0.41139 0.0
O111 O 0.36069 0.00472 0.36145 0.0
Mg112 Mg 0.01157 0.32548 0.30936 0.0
O113 O 0.03219 0.33802 0.34264 0.0
O114 O 0.06186 0.36035 0.33062 0.0
Mg115 Mg 0.06071 0.36036 0.28932 0.0
C116 C 0.0501 0.35085 0.34724 0.0
C117 C 0.98366 0.30237 0.35031 0.0
O118 O 0.99673 0.29679 0.35291 0.0
O119 O 0.01153 0.35438 0.30436 0.0
O120 O 0.04083 0.37395 0.28907 0.0
O121 O 0.01817 0.30078 0.3049 0.0
O122 O 0.03487 0.33017 0.28856 0.0
C123 C 0.02397 0.37063 0.29509 0.0
C124 C 0.03274 0.31293 0.29227 0.0
O125 O 0.98552 0.31408 0.33363 0.0
Mg126 Mg 0.64626 0.98548 0.36985 0.0
O127 O 0.65883 0.97473 0.33953 0.0
O128 O 0.68284 0.97148 0.35668 0.0
Mg129 Mg 0.68478 0.97845 0.39707 0.0
C130 C 0.6725 0.97054 0.33824 0.0
C131 C 0.61365 0.99122 0.34976 0.0
O132 O 0.60805 0.98394 0.3712 0.0
O133 O 0.67328 0.01672 0.37098 0.0
O134 O 0.6951 0.01106 0.38978 0.0
O135 O 0.62461 0.95397 0.37773 0.0
O136 O 0.654 0.9708 0.39506 0.0
C137 C 0.69029 0.02291 0.3804 0.0
C138 C 0.63778 0.95423 0.39212 0.0
O139 O 0.63007 0.99419 0.34264 0.0
Mg140 Mg 0.00981 0.67583 0.32338 0.0
O141 O 0.03505 0.68234 0.34984 0.0
O142 O 0.0614 0.69011 0.32842 0.0
Mg143 Mg 0.05282 0.68783 0.28836 0.0
C144 C 0.05308 0.68758 0.34861 0.0
C145 C 0.97039 0.65489 0.34759 0.0
O146 O 0.96548 0.65411 0.32468 0.0
O147 O 0.00567 0.64548 0.31267 0.0
O148 O 0.0318 0.65415 0.2903 0.0
O149 O 0.01956 0.70829 0.32423 0.0
O150 O 0.02918 0.69361 0.2977 0.0
C151 C 0.01591 0.64092 0.29929 0.0
C152 C 0.03033 0.70967 0.30623 0.0
O153 O 0.98838 0.66288 0.35361 0.0
Mg154 Mg 0.33161 0.3528 0.37117 0.0
O155 O 0.30899 0.33704 0.34053 0.0
O156 O 0.2806 0.31465 0.35542 0.0
Mg157 Mg 0.28522 0.31654 0.39657 0.0
C158 C 0.29112 0.32358 0.33761 0.0
C159 C 0.35474 0.37651 0.32761 0.0
O160 O 0.34099 0.38126 0.32842 0.0
O161 O 0.33515 0.32579 0.37702 0.0
O162 O 0.30682 0.30513 0.39391 0.0
O163 O 0.32151 0.37498 0.37517 0.0
O164 O 0.30994 0.34729 0.39538 0.0
C165 C 0.32371 0.30935 0.3868 0.0
C166 C 0.30947 0.36315 0.39067 0.0
O167 O 0.35509 0.36491 0.34314 0.0
Mg168 Mg 0.34635 0.00783 0.65071 0.0
O169 O 0.33396 0.01847 0.68135 0.0
O170 O 0.30974 0.02178 0.66502 0.0
Mg171 Mg 0.30709 0.01438 0.62461 0.0
C172 C 0.32039 0.02276 0.68313 0.0
C173 C 0.37701 0.99794 0.66928 0.0
O174 O 0.38032 0.00075 0.64617 0.0
O175 O 0.31957 0.97624 0.64958 0.0
O176 O 0.29714 0.98193 0.63234 0.0
O177 O 0.36703 0.03975 0.64231 0.0
O178 O 0.33766 0.0215 0.62536 0.0
C179 C 0.30228 0.97011 0.64109 0.0
C180 C 0.3534 0.03847 0.62783 0.0
O181 O 0.36309 -0.00038 0.67792 0.0
Mg182 Mg 0.98886 0.31798 0.70356 0.0
O183 O 0.96772 0.30984 0.67092 0.0
O184 O 0.93957 0.30617 0.68399 0.0
Mg185 Mg 0.94209 0.31012 0.72515 0.0
C186 C 0.95025 0.30618 0.66699 0.0
C187 C 0.03144 0.33475 0.68711 0.0
O188 O 0.03407 0.33504 0.71059 0.0
O189 O 0.99315 0.34923 0.70716 0.0
O190 O 0.96504 0.3431 0.72315 0.0
O191 O 0.97842 0.28573 0.70888 0.0
O192 O 0.96521 0.3022 0.7253 0.0
C193 C 0.98223 0.35524 0.71632 0.0
C194 C 0.96481 0.28561 0.72163 0.0
O195 O 0.01431 0.32853 0.67844 0.0
Mg196 Mg 0.67699 0.65252 0.66594 0.0
O197 O 0.70074 0.66967 0.69554 0.0
O198 O 0.72825 0.6906 0.67744 0.0
Mg199 Mg 0.72241 0.68687 0.63667 0.0
C200 C 0.71878 0.6831 0.69646 0.0
C201 C 0.65463 0.63316 0.71236 0.0
O202 O 0.66944 0.63009 0.71489 0.0
O203 O 0.67396 0.67958 0.65879 0.0
O204 O 0.7015 0.69903 0.63969 0.0
O205 O 0.68572 0.62915 0.66306 0.0
O206 O 0.69838 0.6565 0.6421 0.0
C207 C 0.68509 0.69545 0.64785 0.0
C208 C 0.6984 0.64059 0.64784 0.0
O209 O 0.65356 0.64208 0.69399 0.0
Mg210 Mg 0.30896 0.32037 0.71112 0.0
O211 O 0.32542 0.31273 0.68288 0.0
O212 O 0.34789 0.3085 0.70259 0.0
Mg213 Mg 0.34571 0.31301 0.74302 0.0
C214 C 0.33931 0.30883 0.68306 0.0
C215 C 0.28296 0.3168 0.66652 0.0
O216 O 0.27961 0.2985 0.66779 0.0
O217 O 0.335 0.35202 0.71702 0.0
O218 O 0.35586 0.34591 0.73756 0.0
O219 O 0.2881 0.28779 0.7146 0.0
O220 O 0.31506 0.30493 0.73703 0.0
C221 C 0.35134 0.35802 0.72825 0.0
C222 C 0.3001 0.28801 0.73089 0.0
O223 O 0.29518 0.32997 0.68148 0.0
Mg224 Mg 0.66816 0.01872 0.63972 0.0
O225 O 0.6958 0.03006 0.66407 0.0
O226 O 0.72074 0.03623 0.6406 0.0
Mg227 Mg 0.70902 0.02759 0.60171 0.0
C228 C 0.7139 0.03607 0.66132 0.0
C229 C 0.65108 0.02343 0.68783 0.0
O230 O 0.66456 0.04195 0.68441 0.0
O231 O 0.66516 0.98796 0.63537 0.0
O232 O 0.69042 0.99499 0.61189 0.0
O233 O 0.67627 0.05033 0.63359 0.0
O234 O 0.68506 0.03291 0.6104 0.0
C235 C 0.67562 0.98268 0.62352 0.0
C236 C 0.68608 0.04959 0.61555 0.0
O237 O 0.64923 0.00994 0.67288 0.0
Mg238 Mg -0.00013 0.68734 0.70176 0.0
O239 O 0.97779 0.6733 0.6698 0.0
O240 O 0.94849 0.65296 0.68473 0.0
Mg241 Mg 0.95125 0.65605 0.72592 0.0
C242 C 0.95958 0.66073 0.66696 0.0
C243 C 0.02785 0.70744 0.65928 0.0
O244 O 0.01621 0.71479 0.65643 0.0
O245 O 0.99871 0.65805 0.70983 0.0
O246 O 0.96968 0.64099 0.7268 0.0
O247 O 0.99459 0.71323 0.7036 0.0
O248 O 0.97775 0.68531 0.72292 0.0
C249 C 0.9859 0.64276 0.72047 0.0
C250 C 0.98022 0.70235 0.71727 0.0
O251 O 0.02496 0.69578 0.67641 0.0
C252 C 0.22547 0.3046 0.11669 0.0
C253 C 0.2199 0.28921 0.09916 0.0
C254 C 0.21183 0.30444 0.13247 0.0
C255 C 0.19234 0.28891 0.13106 0.0
C256 C 0.20051 0.27326 0.0985 0.0
C257 C 0.18683 0.27323 0.11413 0.0
C258 C 0.1773 0.29028 0.14501 0.0
C259 C 0.21078 0.27982 0.20606 0.0
C260 C 0.22178 0.29695 0.22091 0.0
C261 C 0.19777 0.27938 0.18827 0.0
C262 C 0.19537 0.29594 0.18543 0.0
C263 C 0.21999 0.31378 0.21716 0.0
C264 C 0.20675 0.31319 0.19979 0.0
C265 C 0.17933 0.29461 0.17006 0.0
C266 C 0.11051 0.28649 0.21186 0.0
C267 C 0.11233 0.30538 0.21475 0.0
C268 C 0.12225 0.28343 0.19584 0.0
C269 C 0.13607 0.29918 0.18257 0.0
C270 C 0.12599 0.321 0.2009 0.0
C271 C 0.138 0.318 0.18534 0.0
C272 C 0.15028 0.29655 0.16867 0.0
C273 C 0.11833 0.31047 0.11027 0.0
C274 C 0.10442 0.29318 0.09743 0.0
C275 C 0.13235 0.31008 0.12553 0.0
C276 C 0.13259 0.29235 0.12863 0.0
C277 C 0.10475 0.27542 0.10048 0.0
C278 C 0.11876 0.27504 0.11589 0.0
C279 C 0.1482 0.29234 0.14364 0.0
H280 H 0.24011 0.31734 0.11746 0.0
H281 H 0.21632 0.31702 0.14489 0.0
H282 H 0.19577 0.26101 0.08549 0.0
H283 H 0.17183 0.26116 0.11266 0.0
H284 H 0.2119 0.26666 0.20863 0.0
H285 H 0.1889 0.26583 0.17758 0.0
H286 H 0.2281 0.32708 0.22853 0.0
H287 H 0.20496 0.32604 0.198 0.0
H288 H 0.10049 0.27419 0.22249 0.0
H289 H 0.121 0.26891 0.19437 0.0
H290 H 0.12763 0.33567 0.20225 0.0
H291 H 0.14912 0.33052 0.17594 0.0
H292 H 0.11884 0.32451 0.10786 0.0
H293 H 0.14342 0.32382 0.13425 0.0
H294 H 0.09422 0.26184 0.09089 0.0
H295 H 0.11889 0.26127 0.11776 0.0
N296 N 0.16174 0.28923 0.13271 0.0
N297 N 0.16568 0.29747 0.18094 0.0
C298 C 0.68275 0.90453 0.14004 0.0
C299 C 0.69447 0.91337 0.12016 0.0
C300 C 0.68653 0.89268 0.15517 0.0
C301 C 0.7023 0.88966 0.15095 0.0
C302 C 0.71053 0.91073 0.11626 0.0
C303 C 0.7143 0.89883 0.13143 0.0
C304 C 0.70455 0.87476 0.16452 0.0
C305 C 0.7153 0.92282 0.22022 0.0
C306 C 0.70001 0.91637 0.23647 0.0
C307 C 0.71665 0.90912 0.20475 0.0
C308 C 0.70291 0.88875 0.20565 0.0
C309 C 0.68618 0.89601 0.23707 0.0
C310 C 0.68775 0.88232 0.22199 0.0
C311 C 0.70421 0.8739 0.18991 0.0
C312 C 0.71302 0.81043 0.22866 0.0
C313 C 0.69551 0.79206 0.22566 0.0
C314 C 0.71565 0.82704 0.21626 0.0
C315 C 0.70106 0.82548 0.2002 0.0
C316 C 0.68078 0.79081 0.20985 0.0
C317 C 0.68359 0.80731 0.19714 0.0
C318 C 0.70374 0.843 0.18729 0.0
C319 C 0.68618 0.80546 0.11079 0.0
C320 C 0.69622 0.7952 0.11545 0.0
C321 C 0.68914 0.82143 0.12574 0.0
C322 C 0.70219 0.82752 0.14574 0.0
C323 C 0.70993 0.80183 0.13488 0.0
C324 C 0.71299 0.81794 0.14979 0.0
C325 C 0.70419 0.84391 0.16189 0.0
H326 H 0.6704 0.90649 0.14368 0.0
H327 H 0.67662 0.88524 0.16955 0.0
H328 H 0.71973 0.91726 0.10101 0.0
H329 H 0.72633 0.89639 0.1276 0.0
H330 H 0.72618 0.93844 0.2195 0.0
H331 H 0.72856 0.91436 0.19239 0.0
H332 H 0.67441 0.89063 0.24966 0.0
H333 H 0.677 0.86667 0.22297 0.0
H334 H 0.72483 0.81197 0.24034 0.0
H335 H 0.7292 0.84102 0.21889 0.0
H336 H 0.6669 0.77715 0.20746 0.0
H337 H 0.67201 0.80595 0.18512 0.0
H338 H 0.67581 0.801 0.0957 0.0
H339 H 0.68082 0.82873 0.12198 0.0
H340 H 0.71789 0.79423 0.13901 0.0
H341 H 0.72366 0.82276 0.16456 0.0
N342 N 0.70458 0.85978 0.15156 0.0
N343 N 0.7038 0.85802 0.20033 0.0
C344 C 0.1195 0.80113 0.13964 0.0
C345 C 0.11017 0.80438 0.11989 0.0
C346 C 0.13206 0.81683 0.15536 0.0
C347 C 0.13535 0.83609 0.15193 0.0
C348 C 0.11379 0.82377 0.11623 0.0
C349 C 0.12639 0.83951 0.132 0.0
C350 C 0.14889 0.85282 0.16838 0.0
C351 C 0.09784 0.81014 0.21017 0.0
C352 C 0.10268 0.80261 0.23026 0.0
C353 C 0.11229 0.82676 0.1988 0.0
C354 C 0.13195 0.83561 0.20675 0.0
C355 C 0.12206 0.81221 0.23919 0.0
C356 C 0.13658 0.82852 0.22748 0.0
C357 C 0.14785 0.85221 0.19381 0.0
C358 C 0.21156 0.93215 0.23044 0.0
C359 C 0.22047 0.92618 0.2479 0.0
C360 C 0.19813 0.91831 0.21334 0.0
C361 C 0.19318 0.89827 0.21387 0.0
C362 C 0.21577 0.90622 0.24801 0.0
C363 C 0.20206 0.89235 0.23135 0.0
C364 C 0.17797 0.88306 0.19732 0.0
C365 C 0.23057 0.91443 0.15062 0.0
C366 C 0.2274 0.92105 0.1285 0.0
C367 C 0.21501 0.90323 0.16554 0.0
C368 C 0.19598 0.89879 0.15897 0.0
C369 C 0.20849 0.91729 0.12245 0.0
C370 C 0.19297 0.90625 0.1375 0.0
C371 C 0.17888 0.88382 0.17194 0.0
H372 H 0.11689 0.78637 0.14318 0.0
H373 H 0.1392 0.81391 0.17023 0.0
H374 H 0.10702 0.82681 0.10103 0.0
H375 H 0.129 0.85432 0.12879 0.0
H376 H 0.0829 0.80307 0.20321 0.0
H377 H 0.1081 0.83244 0.18359 0.0
H378 H 0.12608 0.8066 0.25466 0.0
H379 H 0.15155 0.83522 0.23423 0.0
H380 H 0.21493 0.94747 0.23011 0.0
H381 H 0.19126 0.92311 0.20014 0.0
H382 H 0.22229 0.90123 0.26147 0.0
H383 H 0.19835 0.87694 0.23212 0.0
H384 H 0.24498 0.91724 0.15598 0.0
H385 H 0.21777 0.89711 0.18147 0.0
H386 H 0.20542 0.9219 0.10543 0.0
H387 H 0.1784 0.90279 0.13183 0.0
N388 N 0.16424 0.86868 0.15851 0.0
N389 N 0.16253 0.86731 0.20721 0.0
C390 C 0.30471 0.0812 0.80962 0.0
C391 C 0.29228 0.074 0.78889 0.0
C392 C 0.30385 0.09476 0.82585 0.0
C393 C 0.29004 0.10088 0.82227 0.0
C394 C 0.27871 0.08047 0.78525 0.0
C395 C 0.27757 0.09364 0.80174 0.0
C396 C 0.28975 0.11635 0.83815 0.0
C397 C 0.28304 0.06782 0.88785 0.0
C398 C 0.29693 0.07467 0.90714 0.0
C399 C 0.28078 0.08132 0.87374 0.0
C400 C 0.29273 0.10189 0.8783 0.0
C401 C 0.30797 0.0952 0.91242 0.0
C402 C 0.30599 0.1086 0.89812 0.0
C403 C 0.29131 0.11691 0.86371 0.0
C404 C 0.28943 0.19191 0.89169 0.0
C405 C 0.30494 0.19977 0.90892 0.0
C406 C 0.28509 0.17496 0.87766 0.0
C407 C 0.29634 0.16573 0.88046 0.0
C408 C 0.31556 0.18993 0.91241 0.0
C409 C 0.31127 0.17308 0.89836 0.0
C410 C 0.29283 0.14838 0.8651 0.0
C411 C 0.31385 0.1996 0.81616 0.0
C412 C 0.29803 0.19911 0.80349 0.0
C413 C 0.31161 0.18279 0.82755 0.0
C414 C 0.2936 0.16503 0.8263 0.0
C415 C 0.28011 0.18104 0.80175 0.0
C416 C 0.27799 0.16409 0.81288 0.0
C417 C 0.2911 0.14778 0.83975 0.0
H418 H 0.31527 0.07656 0.81328 0.0
H419 H 0.31426 0.10071 0.84093 0.0
H420 H 0.26925 0.07585 0.76925 0.0
H421 H 0.2671 0.09845 0.7982 0.0
H422 H 0.27427 0.0521 0.88327 0.0
H423 H 0.26987 0.07568 0.85919 0.0
H424 H 0.31836 0.10102 0.92754 0.0
H425 H 0.31514 0.12434 0.90243 0.0
H426 H 0.281 0.19919 0.88855 0.0
H427 H 0.27307 0.1692 0.86454 0.0
H428 H 0.32736 0.19542 0.92583 0.0
H429 H 0.31999 0.16606 0.9011 0.0
H430 H 0.32801 0.21302 0.81739 0.0
H431 H 0.32392 0.18369 0.83759 0.0
H432 H 0.26755 0.18008 0.79239 0.0
H433 H 0.26398 0.15046 0.81174 0.0
N434 N 0.28952 0.13179 0.82725 0.0
N435 N 0.29285 0.13296 0.87596 0.0
C436 C 0.89302 0.18823 0.90487 0.0
C437 C 0.88912 0.20316 0.91309 0.0
C438 C 0.87949 0.17236 0.88989 0.0
C439 C 0.86154 0.17074 0.88339 0.0
C440 C 0.87097 0.20128 0.90635 0.0
C441 C 0.85724 0.18508 0.89212 0.0
C442 C 0.84721 0.15433 0.86724 0.0
C443 C 0.88851 0.20008 0.81721 0.0
C444 C 0.89827 0.19384 0.80151 0.0
C445 C 0.87379 0.18652 0.83155 0.0
C446 C 0.86875 0.16645 0.83092 0.0
C447 C 0.89367 0.17388 0.80133 0.0
C448 C 0.87888 0.16025 0.81579 0.0
C449 C 0.85112 0.15168 0.84313 0.0
C450 C 0.77213 0.09856 0.79908 0.0
C451 C 0.77541 0.08578 0.7841 0.0
C452 C 0.78599 0.11071 0.81681 0.0
C453 C 0.80337 0.11021 0.82016 0.0
C454 C 0.79281 0.08525 0.78756 0.0
C455 C 0.80671 0.09747 0.80531 0.0
C456 C 0.81871 0.12416 0.8377 0.0
C457 C 0.76797 0.08216 0.88131 0.0
C458 C 0.75931 0.09139 0.89412 0.0
C459 C 0.78601 0.0936 0.8707 0.0
C460 C 0.79564 0.11445 0.87262 0.0
C461 C 0.76903 0.11225 0.89604 0.0
C462 C 0.78706 0.12365 0.8855 0.0
C463 C 0.81483 0.12686 0.86182 0.0
H464 H 0.90648 0.18866 0.90997 0.0
H465 H 0.88296 0.16127 0.88351 0.0
H466 H 0.86738 0.21254 0.91147 0.0
H467 H 0.84349 0.18413 0.88715 0.0
H468 H 0.89186 0.21541 0.81789 0.0
H469 H 0.86572 0.19162 0.84218 0.0
H470 H 0.90088 0.16866 0.78927 0.0
H471 H 0.87496 0.14475 0.81468 0.0
H472 H 0.75914 0.09971 0.79657 0.0
H473 H 0.78335 0.12091 0.82746 0.0
H474 H 0.79574 0.07548 0.77649 0.0
H475 H 0.82011 0.09701 0.8074 0.0
H476 H 0.76081 0.06611 0.87954 0.0
H477 H 0.79252 0.08615 0.86123 0.0
H478 H 0.76292 0.11979 0.90618 0.0
H479 H 0.79429 0.13971 0.88734 0.0
N480 N 0.8292 0.1419 0.87563 0.0
N481 N 0.83675 0.13662 0.82934 0.0
C482 C 0.7973 0.71258 0.91434 0.0
C483 C 0.79095 0.69629 0.92941 0.0
C484 C 0.81171 0.71652 0.89751 0.0
C485 C 0.8197 0.704 0.89522 0.0
C486 C 0.7987 0.68364 0.92674 0.0
C487 C 0.81288 0.68744 0.90987 0.0
C488 C 0.8362 0.70857 0.87929 0.0
C489 C 0.78999 0.69858 0.82147 0.0
C490 C 0.79465 0.71547 0.80801 0.0
C491 C 0.80332 0.69898 0.83867 0.0
C492 C 0.82157 0.71622 0.84265 0.0
C493 C 0.81233 0.73317 0.81354 0.0
C494 C 0.82576 0.73344 0.83044 0.0
C495 C 0.83747 0.71518 0.85553 0.0
C496 C 0.89227 0.69428 0.81181 0.0
C497 C 0.90228 0.70982 0.7959 0.0
C498 C 0.88128 0.696 0.83004 0.0
C499 C 0.88034 0.71344 0.83313 0.0
C500 C 0.90149 0.72738 0.79907 0.0
C501 C 0.89044 0.7291 0.81743 0.0
C502 C 0.86694 0.71424 0.85076 0.0
C503 C 0.91347 0.71044 0.89393 0.0
C504 C 0.90644 0.69251 0.90602 0.0
C505 C 0.90044 0.71573 0.88383 0.0
C506 C 0.88017 0.70319 0.8857 0.0
C507 C 0.88618 0.68022 0.90822 0.0
C508 C 0.87321 0.68557 0.89831 0.0
C509 C 0.86597 0.70812 0.87472 0.0
H510 H 0.79165 0.72265 0.91621 0.0
H511 H 0.81704 0.72971 0.88697 0.0
H512 H 0.79388 0.67083 0.9379 0.0
H513 H 0.81873 0.67751 0.90848 0.0
H514 H 0.77668 0.68461 0.81758 0.0
H515 H 0.79996 0.68539 0.84754 0.0
H516 H 0.81623 0.74659 0.80399 0.0
H517 H 0.83982 0.74686 0.83317 0.0
H518 H 0.89278 0.68065 0.81004 0.0
H519 H 0.87307 0.68341 0.8413 0.0
H520 H 0.90896 0.73954 0.78698 0.0
H521 H 0.88957 0.74253 0.8192 0.0
H522 H 0.92901 0.72022 0.892 0.0
H523 H 0.90619 0.7296 0.87457 0.0
H524 H 0.88032 0.66649 0.91781 0.0
H525 H 0.85766 0.6757 0.90014 0.0
N526 N 0.85059 0.70544 0.88793 0.0
N527 N 0.85279 0.71774 0.84224 0.0
C528 C 0.76838 0.63748 0.46801 0.0
C529 C 0.77627 0.65448 0.45391 0.0
C530 C 0.78057 0.63143 0.47891 0.0
C531 C 0.80088 0.64235 0.47604 0.0
C532 C 0.79654 0.66499 0.45057 0.0
C533 C 0.80866 0.65895 0.46142 0.0
C534 C 0.81431 0.63676 0.4879 0.0
C535 C 0.78775 0.6534 0.54877 0.0
C536 C 0.77812 0.63855 0.56566 0.0
C537 C 0.79907 0.65134 0.53122 0.0
C538 C 0.80062 0.63415 0.52977 0.0
C539 C 0.77977 0.62138 0.56425 0.0
C540 C 0.79099 0.61926 0.54652 0.0
C541 C 0.81384 0.63252 0.51257 0.0
C542 C 0.89124 0.63973 0.53414 0.0
C543 C 0.88564 0.62721 0.55401 0.0
C544 C 0.87716 0.63976 0.51852 0.0
C545 C 0.85715 0.62669 0.52177 0.0
C546 C 0.86559 0.61381 0.55674 0.0
C547 C 0.85161 0.61348 0.54078 0.0
C548 C 0.84183 0.62867 0.50838 0.0
C549 C 0.8754 0.61884 0.44965 0.0
C550 C 0.88222 0.63315 0.43181 0.0
C551 C 0.86236 0.61847 0.46668 0.0
C552 C 0.8565 0.63284 0.46654 0.0
C553 C 0.87619 0.64729 0.43152 0.0
C554 C 0.86354 0.64718 0.44873 0.0
C555 C 0.8421 0.63254 0.48352 0.0
H556 H 0.75283 0.62904 0.47091 0.0
H557 H 0.77412 0.61829 0.48964 0.0
H558 H 0.80307 0.67788 0.4394 0.0
H559 H 0.82425 0.66751 0.45869 0.0
H560 H 0.78661 0.66671 0.54914 0.0
H561 H 0.80691 0.66338 0.5191 0.0
H562 H 0.77277 0.60979 0.57717 0.0
H563 H 0.79232 0.60605 0.54603 0.0
H564 H 0.90647 0.65003 0.53101 0.0
H565 H 0.88199 0.65066 0.50464 0.0
H566 H 0.86044 0.6042 0.57196 0.0
H567 H 0.8363 0.60343 0.54399 0.0
H568 H 0.87978 0.6077 0.45002 0.0
H569 H 0.85665 0.6068 0.47963 0.0
H570 H 0.88138 0.65853 0.41799 0.0
H571 H 0.85922 0.65837 0.44807 0.0
N572 N 0.8284 0.63655 0.47445 0.0
N573 N 0.82754 0.62862 0.52169 0.0
C574 C 0.36023 0.25192 0.48299 0.0
C575 C 0.37278 0.26127 0.46394 0.0
C576 C 0.36384 0.2403 0.49877 0.0
C577 C 0.3801 0.23789 0.4958 0.0
C578 C 0.38949 0.25952 0.46159 0.0
C579 C 0.393 0.24772 0.47726 0.0
C580 C 0.38179 0.22256 0.50906 0.0
C581 C 0.39141 0.26941 0.56679 0.0
C582 C 0.37525 0.26217 0.58177 0.0
C583 C 0.39356 0.2564 0.55093 0.0
C584 C 0.37981 0.23598 0.55033 0.0
C585 C 0.3614 0.24179 0.58078 0.0
C586 C 0.36379 0.2288 0.56542 0.0
C587 C 0.38185 0.2217 0.53443 0.0
C588 C 0.39457 0.15843 0.56729 0.0
C589 C 0.37628 0.14118 0.56993 0.0
C590 C 0.39605 0.17452 0.55475 0.0
C591 C 0.37937 0.17351 0.54415 0.0
C592 C 0.35956 0.14045 0.55946 0.0
C593 C 0.36113 0.15641 0.54657 0.0
C594 C 0.38095 0.19061 0.53133 0.0
C595 C 0.35209 0.14984 0.45929 0.0
C596 C 0.3611 0.13831 0.46135 0.0
C597 C 0.35872 0.16718 0.4734 0.0
C598 C 0.37443 0.17334 0.49001 0.0
C599 C 0.37746 0.14496 0.47711 0.0
C600 C 0.38411 0.16239 0.49132 0.0
C601 C 0.37983 0.19096 0.50595 0.0
H602 H 0.34733 0.25319 0.48531 0.0
H603 H 0.35337 0.2324 0.51247 0.0
H604 H 0.39933 0.2665 0.44698 0.0
H605 H 0.40543 0.24573 0.47442 0.0
H606 H 0.4023 0.28507 0.56735 0.0
H607 H 0.40607 0.26219 0.53948 0.0
H608 H 0.34896 0.23583 0.59237 0.0
H609 H 0.35301 0.2131 0.56519 0.0
H610 H 0.40781 0.15949 0.57468 0.0
H611 H 0.41025 0.18768 0.55306 0.0
H612 H 0.34517 0.12768 0.56149 0.0
H613 H 0.34807 0.15553 0.53873 0.0
H614 H 0.33965 0.14525 0.44704 0.0
H615 H 0.35109 0.17544 0.47189 0.0
H616 H 0.38468 0.13633 0.47906 0.0
H617 H 0.39663 0.16714 0.50345 0.0
N618 N 0.38056 0.20706 0.49586 0.0
N619 N 0.38165 0.20584 0.54462 0.0
C620 C 0.79441 0.14065 0.42295 0.0
C621 C 0.77399 0.13084 0.42483 0.0
C622 C 0.80642 0.15788 0.43685 0.0
C623 C 0.79829 0.1657 0.45295 0.0
C624 C 0.76582 0.13952 0.43963 0.0
C625 C 0.77786 0.15689 0.45338 0.0
C626 C 0.81139 0.18231 0.46994 0.0
C627 C 0.76358 0.1513 0.53156 0.0
C628 C 0.76204 0.13247 0.52995 0.0
C629 C 0.77857 0.16748 0.52013 0.0
C630 C 0.79202 0.16503 0.50653 0.0
C631 C 0.77585 0.13026 0.51659 0.0
C632 C 0.79066 0.14636 0.505 0.0
C633 C 0.8081 0.18215 0.49491 0.0
C634 C 0.87212 0.26163 0.53397 0.0
C635 C 0.87876 0.25515 0.5535 0.0
C636 C 0.85916 0.24787 0.51644 0.0
C637 C 0.85239 0.22749 0.51863 0.0
C638 C 0.87213 0.23481 0.55544 0.0
C639 C 0.85887 0.22108 0.53833 0.0
C640 C 0.83827 0.21253 0.50093 0.0
C641 C 0.89606 0.2408 0.46397 0.0
C642 C 0.89606 0.24777 0.44078 0.0
C643 C 0.87861 0.22998 0.47599 0.0
C644 C 0.86082 0.22636 0.46539 0.0
C645 C 0.87829 0.24447 0.43042 0.0
C646 C 0.86087 0.23387 0.4426 0.0
C647 C 0.84196 0.21239 0.47612 0.0
H648 H 0.80118 0.13465 0.41129 0.0
H649 H 0.82212 0.16455 0.43584 0.0
H650 H 0.75016 0.13239 0.44152 0.0
H651 H 0.77118 0.16301 0.46498 0.0
H652 H 0.75312 0.15352 0.54147 0.0
H653 H 0.77955 0.18186 0.52167 0.0
H654 H 0.77546 0.11615 0.51543 0.0
H655 H 0.80121 0.14431 0.49505 0.0
H656 H 0.87701 0.27727 0.53226 0.0
H657 H 0.85418 0.25307 0.50144 0.0
H658 H 0.87692 0.22949 0.57051 0.0
H659 H 0.8538 0.20542 0.54034 0.0
H660 H 0.90948 0.24321 0.47261 0.0
H661 H 0.87903 0.22368 0.49304 0.0
H662 H 0.87763 0.24928 0.41243 0.0
H663 H 0.84731 0.23095 0.43384 0.0
N664 N 0.82827 0.19737 0.46159 0.0
N665 N 0.82155 0.19732 0.50938 0.0
C666 C 0.95129 0.53018 0.14112 0.0
C667 C 0.96122 0.53735 0.11965 0.0
C668 C 0.95019 0.51345 0.15145 0.0
C669 C 0.95963 0.50404 0.14094 0.0
C670 C 0.96926 0.52701 0.10807 0.0
C671 C 0.96851 0.5105 0.11867 0.0
C672 C 0.96109 0.48814 0.15348 0.0
C673 C 0.99471 0.54241 0.20164 0.0
C674 C 0.9876 0.54132 0.22495 0.0
C675 C 0.98715 0.52552 0.18645 0.0
C676 C 0.97195 0.50722 0.19394 0.0
C677 C 0.97243 0.52297 0.2325 0.0
C678 C 0.96476 0.50604 0.21717 0.0
C679 C 0.9651 0.48902 0.17854 0.0
C680 C 0.98653 0.42894 0.19911 0.0
C681 C 0.97519 0.42023 0.21934 0.0
C682 C 0.98206 0.44022 0.18377 0.0
C683 C 0.96612 0.44285 0.18837 0.0
C684 C 0.95889 0.42239 0.22343 0.0
C685 C 0.95451 0.43376 0.20818 0.0
C686 C 0.96335 0.45754 0.17523 0.0
C687 C 0.95218 0.40831 0.12097 0.0
C688 C 0.96177 0.41499 0.09917 0.0
C689 C 0.95152 0.4218 0.1376 0.0
C690 C 0.96101 0.44225 0.13297 0.0
C691 C 0.97091 0.43527 0.09439 0.0
C692 C 0.97062 0.44873 0.1111 0.0
C693 C 0.96083 0.45727 0.14988 0.0
H694 H 0.94477 0.53781 0.15017 0.0
H695 H 0.94253 0.50829 0.1681 0.0
H696 H 0.977 0.53232 0.09149 0.0
H697 H 0.97568 0.50337 0.11 0.0
H698 H 0.00621 0.55634 0.19509 0.0
H699 H 0.99349 0.52674 0.16897 0.0
H700 H 0.96679 0.52158 0.25044 0.0
H701 H 0.95333 0.49198 0.22352 0.0
H702 H -0.00093 0.42733 0.19542 0.0
H703 H 0.99148 0.44751 0.16891 0.0
H704 H 0.95001 0.41599 0.23897 0.0
H705 H 0.94237 0.43597 0.21225 0.0
H706 H 0.94482 0.39264 0.12483 0.0
H707 H 0.94333 0.41613 0.15378 0.0
H708 H 0.97842 0.44075 0.07769 0.0
H709 H 0.97804 0.46434 0.1069 0.0
N710 N 0.95949 0.47249 0.14014 0.0
N711 N 0.96555 0.47346 0.18842 0.0
C712 C 0.45855 0.40298 0.14453 0.0
C713 C 0.45539 0.40988 0.12266 0.0
C714 C 0.47246 0.41635 0.16164 0.0
C715 C 0.4829 0.43686 0.15738 0.0
C716 C 0.46604 0.43026 0.11832 0.0
C717 C 0.47956 0.44357 0.13547 0.0
C718 C 0.49777 0.45177 0.17477 0.0
C719 C 0.44263 0.42244 0.21798 0.0
C720 C 0.44454 0.41455 0.23978 0.0
C721 C 0.45901 0.43419 0.20447 0.0
C722 C 0.47756 0.4379 0.21222 0.0
C723 C 0.46311 0.41807 0.24726 0.0
C724 C 0.47944 0.42968 0.23364 0.0
C725 C 0.49531 0.45227 0.19992 0.0
C726 C 0.5491 0.53678 0.22722 0.0
C727 C 0.55698 0.53589 0.24976 0.0
C728 C 0.53895 0.5198 0.21229 0.0
C729 C 0.53672 0.50157 0.21932 0.0
C730 C 0.55465 0.51759 0.25688 0.0
C731 C 0.54444 0.50052 0.24186 0.0
C732 C 0.5251 0.48345 0.20386 0.0
C733 C 0.57841 0.52515 0.16467 0.0
C734 C 0.5746 0.53069 0.14219 0.0
C735 C 0.56358 0.50899 0.17632 0.0
C736 C 0.54453 0.49863 0.16608 0.0
C737 C 0.55595 0.51957 0.13125 0.0
C738 C 0.54104 0.50374 0.14312 0.0
C739 C 0.528 0.48258 0.17889 0.0
H740 H 0.45058 0.38726 0.14812 0.0
H741 H 0.47513 0.41063 0.178 0.0
H742 H 0.46375 0.43595 0.10167 0.0
H743 H 0.48735 0.45924 0.13161 0.0
H744 H 0.42852 0.4199 0.2116 0.0
H745 H 0.45725 0.44086 0.18839 0.0
H746 H 0.46519 0.41255 0.26415 0.0
H747 H 0.49367 0.43268 0.24018 0.0
H748 H 0.55082 0.55067 0.22102 0.0
H749 H 0.53267 0.5209 0.1953 0.0
H750 H 0.5604 0.51639 0.27423 0.0
H751 H 0.54257 0.48651 0.24781 0.0
H752 H 0.5928 0.53343 0.17327 0.0
H753 H 0.56697 0.50487 0.19347 0.0
H754 H 0.55269 0.52364 0.11396 0.0
H755 H 0.52658 0.49591 0.13463 0.0
N756 N 0.51413 0.46687 0.16546 0.0
N757 N 0.50908 0.46809 0.21341 0.0
C758 C 0.43979 0.02298 0.22665 0.0
C759 C 0.43027 0.00492 0.23866 0.0
C760 C 0.4564 0.02784 0.21336 0.0
C761 C 0.46379 0.01479 0.21214 0.0
C762 C 0.43737 0.99165 0.23668 0.0
C763 C 0.45407 0.99663 0.22373 0.0
C764 C 0.48262 0.0206 0.20096 0.0
C765 C 0.44226 0.00916 0.13612 0.0
C766 C 0.44818 0.02527 0.12079 0.0
C767 C 0.45436 0.01021 0.15544 0.0
C768 C 0.47258 0.02743 0.15993 0.0
C769 C 0.46606 0.04279 0.12601 0.0
C770 C 0.47818 0.04378 0.14525 0.0
C771 C 0.48701 0.02738 0.17722 0.0
C772 C 0.5559 0.01852 0.15837 0.0
C773 C 0.56818 0.0357 0.14582 0.0
C774 C 0.53977 0.01685 0.17009 0.0
C775 C 0.53569 0.03242 0.16981 0.0
C776 C 0.56376 0.05108 0.1449 0.0
C777 C 0.54755 0.04941 0.15677 0.0
C778 C 0.51839 0.03034 0.18208 0.0
C779 C 0.56094 0.03407 0.23904 0.0
C780 C 0.55433 0.01676 0.25232 0.0
C781 C 0.54793 0.03669 0.22431 0.0
C782 C 0.5281 0.0219 0.22225 0.0
C783 C 0.5344 0.00222 0.25067 0.0
C784 C 0.52143 0.0048 0.23588 0.0
C785 C 0.51419 0.02404 0.20604 0.0
H786 H 0.43458 0.03345 0.22789 0.0
H787 H 0.46386 0.04207 0.20485 0.0
H788 H 0.43049 0.97776 0.246 0.0
H789 H 0.45963 0.98642 0.22314 0.0
H790 H 0.42877 0.99532 0.13243 0.0
H791 H 0.44993 0.99714 0.16597 0.0
H792 H 0.47095 0.05558 0.11482 0.0
H793 H 0.49225 0.05716 0.14824 0.0
H794 H 0.55858 0.00617 0.15881 0.0
H795 H 0.53038 0.00326 0.17922 0.0
H796 H 0.57294 0.06444 0.13526 0.0
H797 H 0.54441 0.06143 0.156 0.0
H798 H 0.57613 0.04571 0.24026 0.0
H799 H 0.55338 0.05029 0.21456 0.0
H800 H 0.52886 0.98863 0.26049 0.0
H801 H 0.50621 0.99321 0.23468 0.0
N802 N 0.4964 0.01925 0.21443 0.0
N803 N 0.50476 0.03198 0.16872 0.0
C804 C 0.56282 0.99283 0.79647 0.0
C805 C 0.56064 0.98174 0.77507 0.0
C806 C 0.54651 0.98914 0.80972 0.0
C807 C 0.52774 0.97403 0.80211 0.0
C808 C 0.54176 0.96681 0.76741 0.0
C809 C 0.52553 0.96304 0.78075 0.0
C810 C 0.51012 0.97025 0.8152 0.0
C811 C 0.54796 0.96031 0.86996 0.0
C812 C 0.55083 0.97067 0.8921 0.0
C813 C 0.53424 0.95927 0.85274 0.0
C814 C 0.52369 0.9691 0.8572 0.0
C815 C 0.54027 0.98041 0.89646 0.0
C816 C 0.52691 0.97967 0.87922 0.0
C817 C 0.50818 0.96755 0.84036 0.0
C818 C 0.42263 0.9416 0.85207 0.0
C819 C 0.42423 0.9502 0.87512 0.0
C820 C 0.43938 0.94537 0.83985 0.0
C821 C 0.45803 0.95833 0.85015 0.0
C822 C 0.44282 0.96228 0.88594 0.0
C823 C 0.45956 0.96633 0.87355 0.0
C824 C 0.47606 0.96315 0.83723 0.0
C825 C 0.44466 0.98552 0.79108 0.0
C826 C 0.43818 0.97591 0.76827 0.0
C827 C 0.45772 0.98267 0.80537 0.0
C828 C 0.4644 0.96993 0.79735 0.0
C829 C 0.44516 0.96341 0.7601 0.0
C830 C 0.45823 0.96055 0.77444 0.0
C831 C 0.47845 0.96708 0.81239 0.0
H832 H 0.57712 0.00439 0.80296 0.0
H833 H 0.54856 0.99825 0.82575 0.0
H834 H 0.53943 0.95829 0.75076 0.0
H835 H 0.51117 0.95154 0.7743 0.0
H836 H 0.55586 0.95256 0.86632 0.0
H837 H 0.53163 0.95048 0.83627 0.0
H838 H 0.54234 0.98863 0.91332 0.0
H839 H 0.51895 0.98731 0.88321 0.0
H840 H 0.40842 0.93206 0.84349 0.0
H841 H 0.43771 0.93824 0.82231 0.0
H842 H 0.44443 0.9692 0.90363 0.0
H843 H 0.47374 0.97613 0.88208 0.0
H844 H 0.43995 0.99558 0.79773 0.0
H845 H 0.46274 0.99061 0.82263 0.0
H846 H 0.44039 0.95567 0.7427 0.0
H847 H 0.46333 0.95082 0.76776 0.0
N848 N 0.4952 0.97001 0.80227 0.0
N849 N 0.49113 0.96391 0.85017 0.0
C850 C 0.01527 0.56087 0.78577 0.0
C851 C 0.02707 0.58162 0.78852 0.0
C852 C 0.01852 0.54835 0.80025 0.0
C853 C 0.03382 0.55613 0.81771 0.0
C854 C 0.04253 0.58949 0.80589 0.0
C855 C 0.04601 0.57686 0.82017 0.0
C856 C 0.03741 0.54206 0.83151 0.0
C857 C 0.06092 0.5851 0.90475 0.0
C858 C 0.04471 0.58777 0.90735 0.0
C859 C 0.06049 0.57149 0.88755 0.0
C860 C 0.04405 0.56056 0.8722 0.0
C861 C 0.02845 0.5772 0.89143 0.0
C862 C 0.02811 0.56371 0.87406 0.0
C863 C 0.04279 0.54441 0.85633 0.0
C864 C 0.05297 0.47209 0.86846 0.0
C865 C 0.04429 0.46608 0.8909 0.0
C866 C 0.05345 0.48823 0.85723 0.0
C867 C 0.04464 0.49824 0.86784 0.0
C868 C 0.03686 0.47705 0.9024 0.0
C869 C 0.037 0.49297 0.89093 0.0
C870 C 0.04239 0.51342 0.85457 0.0
C871 C 0.00679 0.45658 0.80999 0.0
C872 C 0.0133 0.45704 0.78644 0.0
C873 C 0.0146 0.47391 0.82446 0.0
C874 C 0.02928 0.49201 0.81582 0.0
C875 C 0.02811 0.47515 0.77789 0.0
C876 C 0.03592 0.49251 0.7924 0.0
C877 C 0.03614 0.51072 0.83007 0.0
H878 H 0.00356 0.55418 0.77221 0.0
H879 H 0.00902 0.53243 0.79764 0.0
H880 H 0.05188 0.6054 0.80859 0.0
H881 H 0.05838 0.58334 0.83281 0.0
H882 H 0.07382 0.59321 0.91638 0.0
H883 H 0.07291 0.56923 0.8865 0.0
H884 H 0.01558 0.5786 0.89312 0.0
H885 H 0.01507 0.55511 0.86279 0.0
H886 H 0.05909 0.46406 0.85943 0.0
H887 H 0.06015 0.49246 0.83987 0.0
H888 H 0.0301 0.4727 0.91971 0.0
H889 H 0.03032 0.50058 0.89966 0.0
H890 H 0.99554 0.44281 0.81719 0.0
H891 H 0.00883 0.47323 0.8422 0.0
H892 H 0.03328 0.47599 0.75976 0.0
H893 H 0.04699 0.50641 0.78524 0.0
N894 N 0.03424 0.52525 0.81955 0.0
N895 N 0.04529 0.5301 0.86678 0.0
C896 C 0.54653 0.59634 0.79705 0.0
C897 C 0.55626 0.58823 0.78427 0.0
C898 C 0.52925 0.58386 0.80885 0.0
C899 C 0.5215 0.56317 0.80779 0.0
C900 C 0.54816 0.56752 0.78288 0.0
C901 C 0.53092 0.55514 0.79438 0.0
C902 C 0.50378 0.54939 0.82055 0.0
C903 C 0.55002 0.58506 0.87907 0.0
C904 C 0.54373 0.59139 0.89927 0.0
C905 C 0.53663 0.57215 0.86134 0.0
C906 C 0.51668 0.56605 0.86256 0.0
C907 C 0.52371 0.58522 0.90039 0.0
C908 C 0.51046 0.57289 0.88222 0.0
C909 C 0.50173 0.5505 0.84575 0.0
C910 C 0.44543 0.46734 0.86701 0.0
C911 C 0.43574 0.46978 0.88664 0.0
C912 C 0.45676 0.48321 0.85243 0.0
C913 C 0.45821 0.50177 0.85662 0.0
C914 C 0.43706 0.48833 0.89077 0.0
C915 C 0.44829 0.50422 0.87594 0.0
C916 C 0.47205 0.51912 0.8429 0.0
C917 C 0.42696 0.47431 0.79139 0.0
C918 C 0.43451 0.4658 0.77533 0.0
C919 C 0.4395 0.49196 0.80443 0.0
C920 C 0.45983 0.50129 0.8018 0.0
C921 C 0.45471 0.47596 0.77151 0.0
C922 C 0.46721 0.49354 0.78453 0.0
C923 C 0.47367 0.51847 0.81761 0.0
H924 H 0.55247 0.61227 0.79826 0.0
H925 H 0.52205 0.59031 0.81889 0.0
H926 H 0.55514 0.56086 0.77277 0.0
H927 H 0.52513 0.53922 0.79321 0.0
H928 H 0.56526 0.58963 0.8771 0.0
H929 H 0.54193 0.56642 0.84728 0.0
H930 H 0.51798 0.58918 0.91576 0.0
H931 H 0.49512 0.56811 0.88399 0.0
H932 H 0.44454 0.4532 0.86311 0.0
H933 H 0.46487 0.48106 0.83832 0.0
H934 H 0.42997 0.49077 0.9059 0.0
H935 H 0.44956 0.51853 0.87984 0.0
H936 H 0.41147 0.46685 0.79475 0.0
H937 H 0.43337 0.49793 0.81715 0.0
H938 H 0.46093 0.46999 0.75892 0.0
H939 H 0.48278 0.50056 0.78189 0.0
N940 N 0.48962 0.5335 0.80757 0.0
N941 N 0.48589 0.53526 0.85579 0.0
C942 C 0.64749 0.75717 0.49234 0.0
C943 C 0.63673 0.74926 0.47045 0.0
C944 C 0.64415 0.7698 0.50734 0.0
C945 C 0.62948 0.77427 0.5013 0.0
C946 C 0.6222 0.75398 0.4644 0.0
C947 C 0.61861 0.76625 0.47964 0.0
C948 C 0.62673 0.78893 0.51576 0.0
C949 C 0.62127 0.74221 0.56723 0.0
C950 C 0.63438 0.75025 0.58725 0.0
C951 C 0.61788 0.75461 0.5524 0.0
C952 C 0.62789 0.77526 0.5571 0.0
C953 C 0.64325 0.7707 0.59275 0.0
C954 C 0.64013 0.78304 0.57781 0.0
C955 C 0.62591 0.78927 0.54125 0.0
C956 C 0.6167 0.8615 0.56157 0.0
C957 C 0.63009 0.8696 0.5813 0.0
C958 C 0.61428 0.84471 0.54866 0.0
C959 C 0.62548 0.83596 0.55501 0.0
C960 C 0.64018 0.85991 0.5886 0.0
C961 C 0.6379 0.8433 0.57561 0.0
C962 C 0.62493 0.8195 0.54036 0.0
C963 C 0.64705 0.87163 0.49242 0.0
C964 C 0.63594 0.86837 0.47097 0.0
C965 C 0.64394 0.85577 0.50661 0.0
C966 C 0.62918 0.83632 0.50021 0.0
C967 C 0.62153 0.84877 0.46423 0.0
C968 C 0.61822 0.83291 0.4787 0.0
C969 C 0.62611 0.81939 0.51497 0.0
H970 H 0.6587 0.75385 0.49782 0.0
H971 H 0.65337 0.7764 0.52338 0.0
H972 H 0.61394 0.74876 0.44747 0.0
H973 H 0.60753 0.76982 0.47424 0.0
H974 H 0.61416 0.72648 0.56254 0.0
H975 H 0.60779 0.74811 0.53706 0.0
H976 H 0.65299 0.77731 0.6084 0.0
H977 H 0.64776 0.79885 0.58218 0.0
H978 H 0.60868 0.86859 0.55548 0.0
H979 H 0.60412 0.83894 0.53331 0.0
H980 H 0.65027 0.86549 0.60404 0.0
H981 H 0.64647 0.83665 0.58119 0.0
H982 H 0.65813 0.88648 0.4984 0.0
H983 H 0.65317 0.85876 0.52259 0.0
H984 H 0.61299 0.8456 0.44761 0.0
H985 H 0.60708 0.81797 0.4731 0.0
N986 N 0.62664 0.80397 0.50372 0.0
N987 N 0.62498 0.8045 0.55232 0.0
C988 C 0.13484 0.73441 0.47524 0.0
C989 C 0.13399 0.74147 0.45241 0.0
C990 C 0.1476 0.74753 0.49345 0.0
C991 C 0.15923 0.76797 0.48921 0.0
C992 C 0.14555 0.7618 0.44826 0.0
C993 C 0.15792 0.77487 0.46643 0.0
C994 C 0.17377 0.78242 0.50728 0.0
C995 C 0.11691 0.76009 0.54506 0.0
C996 C 0.11614 0.75302 0.56838 0.0
C997 C 0.13442 0.76906 0.53283 0.0
C998 C 0.15146 0.77066 0.54331 0.0
C999 C 0.13314 0.7543 0.57865 0.0
C1000 C 0.15059 0.76305 0.56626 0.0
C1001 C 0.17066 0.78289 0.53229 0.0
C1002 C 0.22942 0.86363 0.56618 0.0
C1003 C 0.24048 0.86152 0.58476 0.0
C1004 C 0.21706 0.84749 0.55093 0.0
C1005 C 0.21547 0.82889 0.55395 0.0
C1006 C 0.23885 0.84284 0.58782 0.0
C1007 C 0.22623 0.82656 0.57268 0.0
C1008 C 0.20224 0.81194 0.53772 0.0
C1009 C 0.25528 0.85347 0.49618 0.0
C1010 C 0.25033 0.86147 0.4766 0.0
C1011 C 0.24069 0.83715 0.50801 0.0
C1012 C 0.22102 0.82867 0.50034 0.0
C1013 C 0.23074 0.8525 0.46858 0.0
C1014 C 0.21628 0.83627 0.48026 0.0
C1015 C 0.20495 0.81193 0.51269 0.0
H1016 H 0.12605 0.71873 0.47874 0.0
H1017 H 0.14863 0.74166 0.51058 0.0
H1018 H 0.14497 0.76761 0.43088 0.0
H1019 H 0.1666 0.7905 0.46254 0.0
H1020 H 0.10409 0.75918 0.53646 0.0
H1021 H 0.13474 0.77549 0.51561 0.0
H1022 H 0.13323 0.74936 0.59673 0.0
H1023 H 0.16362 0.76448 0.57495 0.0
H1024 H 0.23055 0.87789 0.56321 0.0
H1025 H 0.20873 0.84952 0.53671 0.0
H1026 H 0.24717 0.84082 0.60205 0.0
H1027 H 0.22506 0.81225 0.57535 0.0
H1028 H 0.2703 0.86012 0.50267 0.0
H1029 H 0.24477 0.83125 0.52311 0.0
H1030 H 0.22655 0.85816 0.4533 0.0
H1031 H 0.20125 0.82993 0.47388 0.0
N1032 N 0.19075 0.79707 0.49866 0.0
N1033 N 0.1852 0.79747 0.54655 0.0
C1034 C 0.2385 0.38274 0.49809 0.0
C1035 C 0.2345 0.37198 0.47611 0.0
C1036 C 0.22332 0.38235 0.51101 0.0
C1037 C 0.20383 0.3705 0.50259 0.0
C1038 C 0.21522 0.36116 0.46693 0.0
C1039 C 0.2 0.36037 0.48011 0.0
C1040 C 0.18732 0.36885 0.51658 0.0
C1041 C 0.21763 0.34602 0.56405 0.0
C1042 C 0.22517 0.35644 0.58627 0.0
C1043 C 0.20489 0.34931 0.54974 0.0
C1044 C 0.1998 0.36352 0.55692 0.0
C1045 C 0.21967 0.37033 0.59368 0.0
C1046 C 0.2071 0.37378 0.57918 0.0
C1047 C 0.18611 0.36695 0.54192 0.0
C1048 C 0.10484 0.34823 0.56226 0.0
C1049 C 0.10842 0.36016 0.58324 0.0
C1050 C 0.12023 0.3509 0.54786 0.0
C1051 C 0.13949 0.36569 0.55403 0.0
C1052 C 0.12769 0.37516 0.58916 0.0
C1053 C 0.14307 0.3778 0.57477 0.0
C1054 C 0.15611 0.36736 0.54042 0.0
C1055 C 0.12553 0.38499 0.48253 0.0
C1056 C 0.11575 0.36948 0.46511 0.0
C1057 C 0.13822 0.38419 0.49981 0.0
C1058 C 0.14154 0.36808 0.49951 0.0
C1059 C 0.11855 0.35303 0.46557 0.0
C1060 C 0.13152 0.35247 0.48242 0.0
C1061 C 0.15688 0.36822 0.5151 0.0
H1062 H 0.25334 0.39132 0.50532 0.0
H1063 H 0.22682 0.39106 0.52771 0.0
H1064 H 0.21187 0.35271 0.45002 0.0
H1065 H 0.18516 0.35139 0.473 0.0
H1066 H 0.22161 0.33533 0.55759 0.0
H1067 H 0.19897 0.34066 0.53305 0.0
H1068 H 0.22481 0.37832 0.61089 0.0
H1069 H 0.20311 0.38454 0.58535 0.0
H1070 H 0.09023 0.33629 0.55745 0.0
H1071 H 0.11713 0.34086 0.53247 0.0
H1072 H 0.13091 0.38473 0.60506 0.0
H1073 H 0.15784 0.38919 0.57998 0.0
H1074 H 0.12365 0.39785 0.48244 0.0
H1075 H 0.14604 0.39648 0.51273 0.0
H1076 H 0.11139 0.34103 0.45215 0.0
H1077 H 0.13405 0.34 0.48182 0.0
N1078 N 0.17249 0.36908 0.50421 0.0
N1079 N 0.17072 0.36667 0.55286 0.0
H1080 H 0.96575 0.37032 0.00604 0.0
H1081 H -0.00074 0.35534 0.05463 0.0
H1082 H 0.99167 0.3708 0.08839 0.0
H1083 H 0.97811 0.39156 0.10336 0.0
H1084 H 0.94655 0.40799 0.05373 0.0
H1085 H 0.95063 0.38885 0.02116 0.0
C1086 C 0.97124 0.37017 0.02403 0.0
C1087 C 0.98322 0.36178 0.02766 0.0
C1088 C 0.96722 0.37947 0.04321 0.0
C1089 C 0.99009 0.36175 0.05121 0.0
C1090 C 0.98579 0.37064 0.07055 0.0
C1091 C 0.97184 0.39056 0.08549 0.0
C1092 C 0.96203 0.40108 0.08082 0.0
C1093 C 0.97475 0.37997 0.06667 0.0
C1094 C 0.95415 0.39998 0.05761 0.0
C1095 C 0.95654 0.3891 0.03902 0.0
H1096 H 0.63253 0.61621 0.10637 0.0
H1097 H 0.62917 0.58266 0.04184 0.0
H1098 H 0.6074 0.55154 0.06159 0.0
H1099 H 0.58841 0.53411 0.09701 0.0
H1100 H 0.59376 0.56792 0.16212 0.0
H1101 H 0.6159 0.59881 0.1425 0.0
C1102 C 0.62702 0.60206 0.09667 0.0
C1103 C 0.63216 0.60162 0.07267 0.0
C1104 C 0.61499 0.58436 0.10829 0.0
C1105 C 0.62531 0.58327 0.06035 0.0
C1106 C 0.61287 0.56553 0.07161 0.0
C1107 C 0.59461 0.54828 0.10685 0.0
C1108 C 0.58952 0.54888 0.13088 0.0
C1109 C 0.6075 0.56592 0.09553 0.0
C1110 C 0.59765 0.56719 0.14365 0.0
C1111 C 0.61018 0.58481 0.13241 0.0
H1112 H 0.41173 0.01784 0.01627 0.0
H1113 H 0.35824 0.98488 0.05455 0.0
H1114 H 0.37689 0.99229 0.09254 0.0
H1115 H 0.40844 0.00686 0.11478 0.0
H1116 H 0.46186 0.03868 0.07612 0.0
H1117 H 0.44315 0.03331 0.03864 0.0
C1118 C 0.4041 0.01238 0.03292 0.0
C1119 C 0.38358 0.00072 0.03241 0.0
C1120 C 0.41491 0.01653 0.05475 0.0
C1121 C 0.37401 0.99382 0.05427 0.0
C1122 C 0.38467 0.99803 0.07607 0.0
C1123 C 0.416 0.01261 0.09816 0.0
C1124 C 0.43656 0.02318 0.09839 0.0
C1125 C 0.40514 0.00914 0.07648 0.0
C1126 C 0.44607 0.03077 0.07667 0.0
C1127 C 0.43537 0.02754 0.05512 0.0
H1128 H 0.35328 0.95621 0.91357 0.0
H1129 H 0.36846 0.93738 0.97889 0.0
H1130 H 0.39358 0.93378 0.95763 0.0
H1131 H 0.41302 0.93902 0.92105 0.0
H1132 H 0.39657 0.95694 0.85582 0.0
H1133 H 0.3699 0.95767 0.87635 0.0
C1134 C 0.36193 0.95105 0.92304 0.0
C1135 C 0.35928 0.94723 0.94769 0.0
C1136 C 0.3761 0.94896 0.91073 0.0
C1137 C 0.3703 0.94033 0.95983 0.0
C1138 C 0.3847 0.93842 0.94773 0.0
C1139 C 0.40341 0.94284 0.91137 0.0
C1140 C 0.40675 0.94804 0.88705 0.0
C1141 C 0.38802 0.94315 0.92329 0.0
C1142 C 0.39416 0.95279 0.8745 0.0
C1143 C 0.37901 0.95332 0.88625 0.0
H1144 H 0.02339 0.37992 0.92039 0.0
H1145 H 0.05215 0.41137 0.98703 0.0
H1146 H 0.05819 0.4427 0.97001 0.0
H1147 H 0.05478 0.46108 0.93613 0.0
H1148 H 0.02762 0.42958 0.86895 0.0
H1149 H 0.02153 0.39836 0.88612 0.0
C1150 C 0.03098 0.39364 0.93118 0.0
C1151 C 0.0372 0.39335 0.95496 0.0
C1152 C 0.03471 0.41159 0.92114 0.0
C1153 C 0.04724 0.41125 0.96865 0.0
C1154 C 0.05066 0.42915 0.95895 0.0
C1155 C 0.04759 0.44735 0.92532 0.0
C1156 C 0.04164 0.44755 0.90135 0.0
C1157 C 0.04439 0.42949 0.93522 0.0
C1158 C 0.03246 0.42975 0.88739 0.0
C1159 C 0.02889 0.41191 0.89722 0.0
H1160 H 0.58936 0.63958 0.99501 0.0
H1161 H 0.6257 0.61494 0.97609 0.0
H1162 H 0.60569 0.59939 0.93945 0.0
H1163 H 0.57662 0.59083 0.91468 0.0
H1164 H 0.54242 0.61873 0.93068 0.0
H1165 H 0.56265 0.63462 0.96682 0.0
C1166 C 0.59295 0.63095 0.98269 0.0
C1167 C 0.60884 0.62825 0.98826 0.0
C1168 C 0.58164 0.62242 0.96136 0.0
C1169 C 0.61355 0.61727 0.9721 0.0
C1170 C 0.60206 0.6083 0.95123 0.0
C1171 C 0.57376 0.60078 0.92551 0.0
C1172 C 0.55758 0.60311 0.91983 0.0
C1173 C 0.58591 0.61055 0.94585 0.0
C1174 C 0.55424 0.61595 0.93475 0.0
C1175 C 0.56596 0.62527 0.95541 0.0
H1176 H 0.04383 0.62941 0.00572 0.0
H1177 H 0.0129 0.6501 0.961 0.0
H1178 H 0.01775 0.63403 0.92554 0.0
H1179 H 0.0292 0.61245 0.90766 0.0
H1180 H 0.05859 0.59072 0.95351 0.0
H1181 H 0.05614 0.60912 0.98789 0.0
C1182 C 0.03826 0.63061 0.98822 0.0
C1183 C 0.02791 0.64091 0.98616 0.0
C1184 C 0.04081 0.6211 0.96801 0.0
C1185 C 0.0209 0.64228 0.96322 0.0
C1186 C 0.02361 0.63302 0.94291 0.0
C1187 C 0.03505 0.61172 0.92517 0.0
C1188 C 0.04413 0.60019 0.92783 0.0
C1189 C 0.03325 0.62208 0.94517 0.0
C1190 C 0.05185 0.59969 0.95067 0.0
C1191 C 0.0503 0.61009 0.97048 0.0
H1192 H 0.39891 0.39304 0.94839 0.0
H1193 H 0.3527 0.40674 0.95402 0.0
H1194 H 0.37182 0.43714 0.93158 0.0
H1195 H 0.40068 0.45819 0.90755 0.0
H1196 H 0.44693 0.44418 0.90325 0.0
H1197 H 0.42856 0.41521 0.92753 0.0
C1198 C 0.39296 0.40258 0.94453 0.0
C1199 C 0.37429 0.39749 0.95222 0.0
C1200 C 0.40395 0.41983 0.93166 0.0
C1201 C 0.36706 0.41041 0.94809 0.0
C1202 C 0.37793 0.42768 0.93518 0.0
C1203 C 0.40684 0.44895 0.9122 0.0
C1204 C 0.42498 0.45314 0.90311 0.0
C1205 C 0.39626 0.43234 0.92646 0.0
C1206 C 0.43275 0.44099 0.90936 0.0
C1207 C 0.42234 0.42449 0.92342 0.0
H1208 H 0.61963 0.98802 0.96561 0.0
H1209 H 0.57164 0.96439 0.01437 0.0
H1210 H 0.54868 0.95711 0.98075 0.0
H1211 H 0.54232 0.95982 0.93807 0.0
H1212 H 0.58965 0.98286 0.88876 0.0
H1213 H 0.61275 0.98778 0.92193 0.0
C1214 C 0.60414 0.9811 0.96886 0.0
C1215 C 0.59747 0.977 0.99261 0.0
C1216 C 0.59088 0.9769 0.94935 0.0
C1217 C 0.57728 0.96783 0.99638 0.0
C1218 C 0.56409 0.96368 0.97715 0.0
C1219 C 0.55768 0.96573 0.93461 0.0
C1220 C 0.56439 0.97116 0.91118 0.0
C1221 C 0.57076 0.96853 0.95368 0.0
C1222 C 0.58422 0.97856 0.90672 0.0
C1223 C 0.5974 0.98147 0.92568 0.0
H1224 H 0.63496 0.02398 0.10435 0.0
H1225 H 0.62216 0.04689 0.04084 0.0
H1226 H 0.5992 0.05308 0.06351 0.0
H1227 H 0.58039 0.04848 0.10048 0.0
H1228 H 0.59429 0.02596 0.1637 0.0
H1229 H 0.61934 0.02315 0.14203 0.0
C1230 C 0.62728 0.03053 0.09554 0.0
C1231 C 0.62994 0.03474 0.07099 0.0
C1232 C 0.61425 0.03395 0.10858 0.0
C1233 C 0.62025 0.04353 0.05979 0.0
C1234 C 0.60709 0.04695 0.0727 0.0
C1235 C 0.58919 0.04336 0.10961 0.0
C1236 C 0.58524 0.03705 0.1335 0.0
C1237 C 0.60362 0.04175 0.09698 0.0
C1238 C 0.59675 0.03044 0.14514 0.0
C1239 C 0.61111 0.02889 0.13281 0.0
H1240 H 0.98818 0.62597 0.09579 0.0
H1241 H 0.96013 0.59851 0.02723 0.0
H1242 H 0.95097 0.56567 0.04244 0.0
H1243 H 0.95215 0.54497 0.07506 0.0
H1244 H 0.97863 0.57271 0.14413 0.0
H1245 H 0.98715 0.60529 0.12902 0.0
C1246 C 0.97999 0.61277 0.08423 0.0
C1247 C 0.97496 0.61458 0.06042 0.0
C1248 C 0.97452 0.59404 0.09321 0.0
C1249 C 0.96412 0.59741 0.04567 0.0
C1250 C 0.95896 0.57868 0.05432 0.0
C1251 C 0.95966 0.55819 0.08674 0.0
C1252 C 0.96482 0.55659 0.1106 0.0
C1253 C 0.96425 0.57684 0.07801 0.0
C1254 C 0.97443 0.57368 0.12574 0.0
C1255 C 0.97937 0.59227 0.11709 0.0
H1256 H 0.38408 0.35858 0.05088 0.0
H1257 H 0.43094 0.3809 1.00049 0.0
H1258 H 0.45486 0.39614 0.03355 0.0
H1259 H 0.46255 0.40582 0.07629 0.0
H1260 H 0.41642 0.3838 0.12726 0.0
H1261 H 0.39218 0.36551 0.09457 0.0
C1262 C 0.39952 0.3666 0.04715 0.0
C1263 C 0.40559 0.36877 0.02311 0.0
C1264 C 0.41336 0.37543 0.06635 0.0
C1265 C 0.42573 0.37904 0.01871 0.0
C1266 C 0.43949 0.38783 0.03763 0.0
C1267 C 0.44719 0.39677 0.08022 0.0
C1268 C 0.44117 0.39622 0.10397 0.0
C1269 C 0.43347 0.38651 0.06142 0.0
C1270 C 0.42132 0.38434 0.10903 0.0
C1271 C 0.40749 0.37403 0.09035 0.0
H1272 H 0.67057 0.7117 0.39666 0.0
H1273 H 0.61032 0.68044 0.37172 0.0
H1274 H 0.6016 0.69498 0.40537 0.0
H1275 H 0.61148 0.71838 0.44 0.0
H1276 H 0.67251 0.75284 0.46187 0.0
H1277 H 0.68038 0.73487 0.43191 0.0
C1278 C 0.65549 0.70781 0.39891 0.0
C1279 C 0.64108 0.69495 0.38186 0.0
C1280 C 0.65072 0.71688 0.41774 0.0
C1281 C 0.62165 0.6903 0.38466 0.0
C1282 C 0.61668 0.69866 0.40385 0.0
C1283 C 0.62655 0.72215 0.43819 0.0
C1284 C 0.64131 0.73714 0.45331 0.0
C1285 C 0.63117 0.71234 0.42016 0.0
C1286 C 0.66068 0.74125 0.45091 0.0
C1287 C 0.66529 0.73109 0.43353 0.0
H1288 H 0.3189 0.93137 0.42159 0.0
H1289 H 0.2802 0.95512 0.42843 0.0
H1290 H 0.2571 0.92595 0.44954 0.0
H1291 H 0.24778 0.89378 0.46632 0.0
H1292 H 0.28616 0.86962 0.46076 0.0
H1293 H 0.30968 0.89898 0.4393 0.0
C1294 C 0.30535 0.93006 0.42759 0.0
C1295 C 0.3013 0.94544 0.42338 0.0
C1296 C 0.29216 0.91326 0.44015 0.0
C1297 C 0.28381 0.94367 0.43151 0.0
C1298 C 0.27052 0.92692 0.4436 0.0
C1299 C 0.26127 0.89491 0.4603 0.0
C1300 C 0.2652 0.87955 0.46488 0.0
C1301 C 0.27458 0.91169 0.44807 0.0
C1302 C 0.28288 0.88134 0.45748 0.0
C1303 C 0.29624 0.89804 0.4451 0.0
H1304 H 0.08336 0.38213 0.36701 0.0
H1305 H 0.03455 0.32494 0.38371 0.0
H1306 H 0.04981 0.32646 0.42288 0.0
H1307 H 0.07864 0.34241 0.45055 0.0
H1308 H 0.12708 0.39984 0.43438 0.0
H1309 H 0.11027 0.40001 0.39703 0.0
C1310 C 0.07596 0.37012 0.37935 0.0
C1311 C 0.05798 0.35333 0.37227 0.0
C1312 C 0.08479 0.3711 0.40191 0.0
C1313 C 0.04842 0.33802 0.38863 0.0
C1314 C 0.05718 0.33882 0.41102 0.0
C1315 C 0.08532 0.35508 0.43899 0.0
C1316 C 0.10408 0.37102 0.44502 0.0
C1317 C 0.07559 0.35503 0.41757 0.0
C1318 C 0.11259 0.38746 0.43011 0.0
C1319 C 0.10305 0.38748 0.40868 0.0
H1320 H 0.07153 0.33611 0.28652 0.0
H1321 H 0.02335 0.27666 0.27313 0.0
H1322 H 0.04396 0.26867 0.24829 0.0
H1323 H 0.07463 0.27987 0.2272 0.0
H1324 H 0.12334 0.33895 0.24285 0.0
H1325 H 0.1033 0.34599 0.26944 0.0
C1326 C 0.0656 0.32139 0.27827 0.0
C1327 C 0.04595 0.30709 0.28122 0.0
C1328 C 0.07748 0.31698 0.26405 0.0
C1329 C 0.03851 0.28788 0.27106 0.0
C1330 C 0.05023 0.28338 0.25671 0.0
C1331 C 0.08105 0.29417 0.23674 0.0
C1332 C 0.10041 0.30899 0.23245 0.0
C1333 C 0.0696 0.298 0.2526 0.0
C1334 C 0.10831 0.32746 0.24501 0.0
C1335 C 0.09693 0.33146 0.26049 0.0
H1336 H 0.67349 0.70865 0.26758 0.0
H1337 H 0.70863 0.74582 0.32811 0.0
H1338 H 0.71433 0.77553 0.30686 0.0
H1339 H 0.70867 0.79067 0.27133 0.0
H1340 H 0.67586 0.75312 0.20957 0.0
H1341 H 0.66963 0.72381 0.23132 0.0
C1342 C 0.68236 0.72327 0.27616 0.0
C1343 C 0.69049 0.72508 0.29943 0.0
C1344 C 0.68589 0.74018 0.26368 0.0
C1345 C 0.70221 0.74408 0.31019 0.0
C1346 C 0.70544 0.76104 0.29806 0.0
C1347 C 0.7004 0.77614 0.26241 0.0
C1348 C 0.69255 0.77426 0.23884 0.0
C1349 C 0.69732 0.75925 0.27478 0.0
C1350 C 0.68166 0.75515 0.22787 0.0
C1351 C 0.67822 0.73831 0.24022 0.0
H1352 H 0.26229 0.9786 0.34158 0.0
H1353 H 0.307 0.96566 0.31992 0.0
H1354 H 0.28808 0.94874 0.28318 0.0
H1355 H 0.25743 0.9349 0.25896 0.0
H1356 H 0.21315 0.94859 0.27966 0.0
H1357 H 0.23332 0.96807 0.31486 0.0
C1358 C 0.26799 0.97227 0.32869 0.0
C1359 C 0.28594 0.9732 0.3337 0.0
C1360 C 0.25706 0.9626 0.30747 0.0
C1361 C 0.29323 0.96516 0.31661 0.0
C1362 C 0.28237 0.95537 0.29561 0.0
C1363 C 0.25238 0.94241 0.27106 0.0
C1364 C 0.23385 0.94027 0.26695 0.0
C1365 C 0.26407 0.9536 0.29113 0.0
C1366 C 0.22743 0.95014 0.2825 0.0
C1367 C 0.2389 0.96115 0.30268 0.0
H1368 H 0.70579 0.9721 0.32381 0.0
H1369 H 0.64593 0.95087 0.30124 0.0
H1370 H 0.64952 0.93316 0.26655 0.0
H1371 H 0.66883 0.92111 0.24493 0.0
H1372 H 0.72885 0.94303 0.26714 0.0
H1373 H 0.72613 0.96322 0.29957 0.0
C1374 C 0.6936 0.9638 0.31112 0.0
C1375 C 0.67555 0.9626 0.31525 0.0
C1376 C 0.69578 0.95368 0.29126 0.0
C1377 C 0.65997 0.95204 0.29847 0.0
C1378 C 0.66199 0.9418 0.27872 0.0
C1379 C 0.68134 0.9305 0.25675 0.0
C1380 C 0.69896 0.93049 0.25386 0.0
C1381 C 0.67967 0.9421 0.2753 0.0
C1382 C 0.71517 0.94287 0.26902 0.0
C1383 C 0.71358 0.95431 0.28762 0.0
H1384 H 0.04166 0.71607 0.26032 0.0
H1385 H 0.04909 0.74637 0.329 0.0
H1386 H 0.07235 0.7781 0.31156 0.0
H1387 H 0.09104 0.79703 0.27665 0.0
H1388 H 0.08145 0.76668 0.20754 0.0
H1389 H 0.05842 0.73509 0.22516 0.0
C1390 C 0.0484 0.72964 0.27146 0.0
C1391 C 0.0439 0.72895 0.29591 0.0
C1392 C 0.06128 0.74776 0.26118 0.0
C1393 C 0.05241 0.74661 0.31011 0.0
C1394 C 0.0657 0.76471 0.30016 0.0
C1395 C 0.08377 0.78346 0.26554 0.0
C1396 C 0.08785 0.78401 0.24092 0.0
C1397 C 0.0703 0.76544 0.27572 0.0
C1398 C 0.07836 0.76649 0.22652 0.0
C1399 C 0.0653 0.74847 0.23659 0.0
H1400 H 0.25645 0.29173 0.32162 0.0
H1401 H 0.30529 0.34647 0.29827 0.0
H1402 H 0.28883 0.34219 0.25926 0.0
H1403 H 0.25934 0.3245 0.23301 0.0
H1404 H 0.21071 0.26955 0.25578 0.0
H1405 H 0.22839 0.27214 0.29354 0.0
C1406 C 0.26357 0.30262 0.30792 0.0
C1407 C 0.28198 0.31952 0.31305 0.0
C1408 C 0.25404 0.30006 0.28538 0.0
C1409 C 0.29111 0.33335 0.29492 0.0
C1410 C 0.28168 0.33096 0.27258 0.0
C1411 C 0.25277 0.31298 0.24614 0.0
C1412 C 0.23375 0.29694 0.24175 0.0
C1413 C 0.26297 0.31462 0.26781 0.0
C1414 C 0.22541 0.28198 0.25873 0.0
C1415 C 0.23544 0.28354 0.2804 0.0
H1416 H 0.29799 0.3542 0.43594 0.0
H1417 H 0.29052 0.38196 0.37342 0.0
H1418 H 0.26649 0.38745 0.39455 0.0
H1419 H 0.24689 0.38321 0.43072 0.0
H1420 H 0.25664 0.35754 0.49382 0.0
H1421 H 0.2807 0.35243 0.47265 0.0
C1422 C 0.29108 0.36146 0.42696 0.0
C1423 C 0.29571 0.36745 0.40315 0.0
C1424 C 0.27781 0.36495 0.43937 0.0
C1425 C 0.28706 0.3772 0.39177 0.0
C1426 C 0.27334 0.38029 0.40382 0.0
C1427 C 0.25447 0.37666 0.43976 0.0
C1428 C 0.25012 0.37068 0.46366 0.0
C1429 C 0.26851 0.37409 0.42758 0.0
C1430 C 0.25995 0.36231 0.47544 0.0
C1431 C 0.27359 0.35931 0.46333 0.0
H1432 H 0.66456 0.94799 0.41581 0.0
H1433 H 0.60318 0.91969 0.39646 0.0
H1434 H 0.59712 0.89049 0.41884 0.0
H1435 H 0.60914 0.87368 0.44531 0.0
H1436 H 0.67102 0.90143 0.46208 0.0
H1437 H 0.67692 0.93028 0.43945 0.0
C1438 C 0.64988 0.93545 0.41627 0.0
C1439 C 0.63437 0.93612 0.4045 0.0
C1440 C 0.64655 0.91865 0.42891 0.0
C1441 C 0.61542 0.91958 0.40533 0.0
C1442 C 0.61193 0.90289 0.41818 0.0
C1443 C 0.62397 0.88586 0.44372 0.0
C1444 C 0.63954 0.88539 0.45577 0.0
C1445 C 0.62738 0.90232 0.4302 0.0
C1446 C 0.65863 0.90151 0.45362 0.0
C1447 C 0.66208 0.918 0.44048 0.0
H1448 H 0.09225 0.70204 0.35313 0.0
H1449 H 0.04112 0.68495 0.3952 0.0
H1450 H 0.06164 0.6979 0.4319 0.0
H1451 H 0.0945 0.71762 0.45136 0.0
H1452 H 0.14534 0.73606 0.40857 0.0
H1453 H 0.12458 0.71886 0.37295 0.0
C1454 C 0.0855 0.70087 0.37033 0.0
C1455 C 0.06515 0.69274 0.37126 0.0
C1456 C 0.0974 0.7087 0.3913 0.0
C1457 C 0.05675 0.69127 0.39383 0.0
C1458 C 0.06849 0.69872 0.41488 0.0
C1459 C 0.10094 0.71741 0.43433 0.0
C1460 C 0.12134 0.72806 0.43244 0.0
C1461 C 0.08888 0.70796 0.41374 0.0
C1462 C 0.12963 0.72796 0.4103 0.0
C1463 C 0.11778 0.71821 0.38995 0.0
H1464 H 0.28678 0.01855 0.70054 0.0
H1465 H 0.34842 0.04539 0.71744 0.0
H1466 H 0.3451 0.06301 0.75246 0.0
H1467 H 0.32524 0.07322 0.77568 0.0
H1468 H 0.263 0.04415 0.76058 0.0
H1469 H 0.26614 0.02525 0.72724 0.0
C1470 C 0.29943 0.02806 0.7121 0.0
C1471 C 0.31784 0.03083 0.7063 0.0
C1472 C 0.29739 0.03801 0.73227 0.0
C1473 C 0.33407 0.04298 0.72157 0.0
C1474 C 0.3322 0.05317 0.7415 0.0
C1475 C 0.31222 0.06244 0.76558 0.0
C1476 C 0.29396 0.06061 0.77051 0.0
C1477 C 0.31399 0.05113 0.74671 0.0
C1478 C 0.27739 0.04654 0.75684 0.0
C1479 C 0.27911 0.03552 0.73783 0.0
H1480 H 0.96834 0.2556 0.74045 0.0
H1481 H 0.92661 0.27453 0.72559 0.0
H1482 H 0.90195 0.24687 0.74775 0.0
H1483 H 0.89305 0.21898 0.77389 0.0
H1484 H 0.93465 0.20025 0.79061 0.0
H1485 H 0.95848 0.22584 0.76479 0.0
C1486 C 0.95373 0.2534 0.74179 0.0
C1487 C 0.94934 0.26723 0.73183 0.0
C1488 C 0.93969 0.2376 0.75498 0.0
C1489 C 0.93045 0.26437 0.73366 0.0
C1490 C 0.91632 0.24849 0.74622 0.0
C1491 C 0.90736 0.22053 0.77193 0.0
C1492 C 0.91225 0.20804 0.78445 0.0
C1493 C 0.92096 0.23538 0.75749 0.0
C1494 C 0.9306 0.20978 0.7812 0.0
C1495 C 0.94423 0.22444 0.76653 0.0
H1496 H 0.75716 0.71011 0.7051 0.0
H1497 H 0.70455 0.66982 0.74127 0.0
H1498 H 0.72307 0.67765 0.77953 0.0
H1499 H 0.75466 0.69421 0.80214 0.0
H1500 H 0.80723 0.73283 0.76469 0.0
H1501 H 0.78814 0.72772 0.72782 0.0
C1502 C 0.74964 0.70313 0.72134 0.0
C1503 C 0.72949 0.68926 0.72016 0.0
C1504 C 0.76039 0.70745 0.74319 0.0
C1505 C 0.72006 0.68049 0.74153 0.0
C1506 C 0.73065 0.68493 0.76345 0.0
C1507 C 0.76195 0.70155 0.78594 0.0
C1508 C 0.78243 0.71392 0.7864 0.0
C1509 C 0.75091 0.69809 0.7644 0.0
C1510 C 0.79151 0.72352 0.76521 0.0
C1511 C 0.78061 0.72044 0.74393 0.0
H1512 H 0.73635 0.66593 0.63981 0.0
H1513 H 0.69165 0.60433 0.63155 0.0
H1514 H 0.7131 0.59772 0.60636 0.0
H1515 H 0.74303 0.6106 0.58287 0.0
H1516 H 0.78755 0.67247 0.59172 0.0
H1517 H 0.76745 0.67799 0.62006 0.0
C1518 C 0.73133 0.65108 0.6325 0.0
C1519 C 0.71238 0.63574 0.63695 0.0
C1520 C 0.74356 0.64754 0.61784 0.0
C1521 C 0.70624 0.61636 0.62824 0.0
C1522 C 0.71842 0.61264 0.6137 0.0
C1523 C 0.74849 0.6252 0.59132 0.0
C1524 C 0.7666 0.64119 0.58474 0.0
C1525 C 0.73689 0.62828 0.60778 0.0
C1526 C 0.77342 0.66003 0.59588 0.0
C1527 C 0.76202 0.66318 0.61225 0.0
H1528 H 0.37935 0.07784 0.63742 0.0
H1529 H 0.33179 0.03786 0.58902 0.0
H1530 H 0.33493 0.06591 0.56668 0.0
H1531 H 0.3514 0.10159 0.56036 0.0
H1532 H 0.39742 0.14207 0.61031 0.0
H1533 H 0.39495 0.11403 0.6321 0.0
C1534 C 0.36969 0.07531 0.62199 0.0
C1535 C 0.35538 0.05579 0.6149 0.0
C1536 C 0.37139 0.09157 0.60934 0.0
C1537 C 0.34287 0.05274 0.59496 0.0
C1538 C 0.34469 0.06877 0.5821 0.0
C1539 C 0.36072 0.1044 0.57623 0.0
C1540 C 0.37462 0.12405 0.58351 0.0
C1541 C 0.35888 0.08824 0.58912 0.0
C1542 C 0.38682 0.12717 0.60388 0.0
C1543 C 0.38532 0.11112 0.61654 0.0
H1544 H 0.91851 0.30669 0.64807 0.0
H1545 H 0.96183 0.2905 0.63082 0.0
H1546 H 0.94427 0.27463 0.59293 0.0
H1547 H 0.91472 0.26219 0.5668 0.0
H1548 H 0.87188 0.27904 0.58319 0.0
H1549 H 0.89118 0.29797 0.6192 0.0
C1550 C 0.92425 0.29992 0.63585 0.0
C1551 C 0.94131 0.29955 0.64244 0.0
C1552 C 0.91409 0.29084 0.61402 0.0
C1553 C 0.94871 0.29099 0.62625 0.0
C1554 C 0.93862 0.28179 0.60461 0.0
C1555 C 0.90986 0.27033 0.5781 0.0
C1556 C 0.89194 0.26921 0.57262 0.0
C1557 C 0.92104 0.28117 0.59864 0.0
C1558 C 0.88571 0.27983 0.58714 0.0
C1559 C 0.89666 0.29052 0.60776 0.0
H1560 H 0.37374 0.31096 0.67263 0.0
H1561 H 0.31639 0.29264 0.64228 0.0
H1562 H 0.32307 0.27787 0.60706 0.0
H1563 H 0.344 0.26723 0.58689 0.0
H1564 H 0.4016 0.28628 0.61659 0.0
H1565 H 0.39617 0.3039 0.64994 0.0
C1566 C 0.3628 0.30395 0.65816 0.0
C1567 C 0.34451 0.30267 0.66022 0.0
C1568 C 0.36676 0.29554 0.63791 0.0
C1569 C 0.33058 0.29381 0.64117 0.0
C1570 C 0.33435 0.28526 0.62107 0.0
C1571 C 0.35543 0.27551 0.60052 0.0
C1572 C 0.3731 0.27538 0.5995 0.0
C1573 C 0.35219 0.2856 0.61956 0.0
C1574 C 0.38792 0.28627 0.61703 0.0
C1575 C 0.38476 0.29622 0.63615 0.0
H1576 H 0.699 0.05048 0.57079 0.0
H1577 H 0.70267 0.08864 0.63059 0.0
H1578 H 0.72627 0.11787 0.60911 0.0
H1579 H 0.74701 0.13221 0.57411 0.0
H1580 H 0.74155 0.09373 0.51354 0.0
H1581 H 0.71765 0.06493 0.53477 0.0
C1582 C 0.70494 0.06521 0.57911 0.0
C1583 C 0.69929 0.06744 0.60229 0.0
C1584 C 0.71827 0.08184 0.56661 0.0
C1585 C 0.70683 0.08659 0.61273 0.0
C1586 C 0.72035 0.10327 0.60049 0.0
C1587 C 0.74037 0.11759 0.56535 0.0
C1588 C 0.74636 0.11519 0.54234 0.0
C1589 C 0.72632 0.10104 0.5775 0.0
C1590 C 0.73766 0.09603 0.53145 0.0
C1591 C 0.72386 0.07953 0.5435 0.0
H1592 H 0.93078 0.62544 0.648 0.0
H1593 H 0.96776 0.68705 0.63149 0.0
H1594 H 0.94896 0.68189 0.59392 0.0
H1595 H 0.91978 0.66085 0.56862 0.0
H1596 H 0.88476 0.59826 0.58276 0.0
H1597 H 0.90498 0.60294 0.61855 0.0
C1598 C 0.93488 0.63762 0.63592 0.0
C1599 C 0.95044 0.65663 0.64255 0.0
C1600 C 0.9242 0.63447 0.61418 0.0
C1601 C 0.95583 0.67227 0.6267 0.0
C1602 C 0.94501 0.66935 0.60531 0.0
C1603 C 0.91678 0.648 0.57894 0.0
C1604 C 0.90023 0.6293 0.5731 0.0
C1605 C 0.92885 0.65063 0.59919 0.0
C1606 C 0.89682 0.61302 0.58715 0.0
C1607 C 0.90851 0.61562 0.6076 0.0
H1608 H 0.9412 0.68048 0.72051 0.0
H1609 H 0.99016 0.73916 0.73543 0.0
H1610 H 0.96952 0.74772 0.75953 0.0
H1611 H 0.93874 0.73653 0.78102 0.0
H1612 H 0.8902 0.67738 0.766 0.0
H1613 H 0.90954 0.67083 0.7375 0.0
C1614 C 0.94729 0.69517 0.72891 0.0
C1615 C 0.96717 0.70903 0.72677 0.0
C1616 C 0.93549 0.69975 0.74301 0.0
C1617 C 0.97483 0.72827 0.73695 0.0
C1618 C 0.96309 0.73307 0.75089 0.0
C1619 C 0.9323 0.72238 0.77112 0.0
C1620 C 0.91323 0.70729 0.77605 0.0
C1621 C 0.94357 0.71866 0.75477 0.0
C1622 C 0.90504 0.68903 0.76302 0.0
C1623 C 0.91604 0.68531 0.74663 0.0
H1624 H 0.31669 0.28444 0.77208 0.0
H1625 H 0.27747 0.24994 0.71278 0.0
H1626 H 0.27353 0.21938 0.72973 0.0
H1627 H 0.28165 0.20259 0.7612 0.0
H1628 H 0.31911 0.23729 0.8219 0.0
H1629 H 0.32356 0.26761 0.80433 0.0
C1630 C 0.30732 0.27024 0.76283 0.0
C1631 C 0.29748 0.26946 0.74115 0.0
C1632 C 0.3049 0.25275 0.77285 0.0
C1633 C 0.28519 0.25093 0.72952 0.0
C1634 C 0.28297 0.23346 0.73918 0.0
C1635 C 0.29061 0.21673 0.77078 0.0
C1636 C 0.30021 0.21752 0.79277 0.0
C1637 C 0.29276 0.23419 0.76086 0.0
C1638 C 0.31192 0.23612 0.80467 0.0
C1639 C 0.31436 0.25353 0.79475 0.0
H1640 H 0.70541 0.0387 0.70835 0.0
H1641 H 0.75351 0.05181 0.66209 0.0
H1642 H 0.77653 0.06739 0.69611 0.0
H1643 H 0.78329 0.07914 0.73836 0.0
H1644 H 0.7354 0.06578 0.78496 0.0
H1645 H 0.71211 0.04864 0.75138 0.0
C1646 C 0.72091 0.04482 0.70571 0.0
C1647 C 0.72764 0.04415 0.68256 0.0
C1648 C 0.73417 0.05389 0.72538 0.0
C1649 C 0.74782 0.05213 0.67961 0.0
C1650 C 0.76106 0.0611 0.69908 0.0
C1651 C 0.76775 0.07217 0.74133 0.0
C1652 C 0.76116 0.07388 0.76418 0.0
C1653 C 0.75443 0.06229 0.72197 0.0
C1654 C 0.74094 0.06499 0.7675 0.0
C1655 C 0.72758 0.0551 0.74832 0.0
H1656 H 0.05381 0.29498 0.00929 0.0
H1657 H 0.04413 0.33175 0.06007 0.0
H1658 H 0.06296 0.32617 0.09113 0.0
H1659 H 0.08374 0.31238 0.10322 0.0
H1660 H 0.09385 0.27619 0.05206 0.0
H1661 H 0.07306 0.27978 0.02198 0.0
C1662 C 0.05567 0.30167 0.02719 0.0
C1663 C 0.04766 0.3139 0.03223 0.0
C1664 C 0.06663 0.29852 0.04494 0.0
C1665 C 0.05016 0.32232 0.05562 0.0
C1666 C 0.06097 0.31918 0.0734 0.0
C1667 C 0.08137 0.30527 0.08549 0.0
C1668 C 0.09043 0.2941 0.07991 0.0
C1669 C 0.06955 0.30758 0.06814 0.0
C1670 C 0.08693 0.2847 0.05696 0.0
C1671 C 0.07515 0.28687 0.03967 0.0
H1672 H 0.68822 0.7185 0.06286 0.0
H1673 H 0.62718 0.70075 0.06603 0.0
H1674 H 0.63582 0.73356 0.08254 0.0
H1675 H 0.66036 0.76573 0.10018 0.0
H1676 H 0.72145 0.78351 0.09853 0.0
H1677 H 0.71313 0.75211 0.07762 0.0
C1678 C 0.67684 0.72199 0.06664 0.0
C1679 C 0.65709 0.70721 0.06329 0.0
C1680 C 0.6819 0.74072 0.07686 0.0
C1681 C 0.64249 0.71186 0.06855 0.0
C1682 C 0.64741 0.73058 0.07809 0.0
C1683 C 0.67192 0.76297 0.0948 0.0
C1684 C 0.69149 0.77694 0.10099 0.0
C1685 C 0.66702 0.7449 0.08297 0.0
C1686 C 0.70624 0.77289 0.09428 0.0
C1687 C 0.70149 0.75499 0.08221 0.0
H1688 H 0.28465 0.96183 0.04315 0.0
H1689 H 0.30375 0.92098 0.06419 0.0
H1690 H 0.28092 0.90983 0.09704 0.0
H1691 H 0.25436 0.91029 0.1183 0.0
H1692 H 0.23572 0.95171 0.09836 0.0
H1693 H 0.25948 0.9639 0.06642 0.0
C1694 C 0.28385 0.95052 0.05497 0.0
C1695 C 0.29577 0.94213 0.05107 0.0
C1696 C 0.27074 0.94422 0.07394 0.0
C1697 C 0.29471 0.92766 0.06671 0.0
C1698 C 0.28164 0.92125 0.08551 0.0
C1699 C 0.25575 0.9223 0.10738 0.0
C1700 C 0.2432 0.93002 0.11076 0.0
C1701 C 0.26947 0.92929 0.08914 0.0
C1702 C 0.24499 0.9453 0.09598 0.0
C1703 C 0.25862 0.95232 0.07775 0.0
H1704 H 0.30206 0.00537 0.95831 0.0
H1705 H 0.36336 0.04958 0.95891 0.0
H1706 H 0.35563 0.07364 0.94218 0.0
H1707 H 0.33211 0.08084 0.9232 0.0
H1708 H 0.27064 0.03711 0.92188 0.0
H1709 H 0.27786 0.01391 0.94254 0.0
C1710 C 0.31365 0.02043 0.95534 0.0
C1711 C 0.33325 0.0257 0.95975 0.0
C1712 C 0.30914 0.03407 0.94503 0.0
C1713 C 0.34817 0.04517 0.95555 0.0
C1714 C 0.34378 0.0589 0.94586 0.0
C1715 C 0.32017 0.06643 0.92791 0.0
C1716 C 0.30085 0.06077 0.92094 0.0
C1717 C 0.32439 0.05331 0.93986 0.0
C1718 C 0.28568 0.04178 0.92669 0.0
C1719 C 0.28978 0.02856 0.93867 0.0
H1720 H 0.94061 0.28503 0.97069 0.0
H1721 H 0.98717 0.27837 0.94155 0.0
H1722 H 0.96337 0.24558 0.9241 0.0
H1723 H 0.92932 0.22096 0.91333 0.0
H1724 H 0.88283 0.22579 0.94688 0.0
H1725 H 0.90666 0.2573 0.96605 0.0
C1726 C 0.94549 0.27612 0.96102 0.0
C1727 C 0.9655 0.28396 0.95731 0.0
C1728 C 0.93176 0.25722 0.95136 0.0
C1729 C 0.97179 0.27244 0.94477 0.0
C1730 C 0.95818 0.25381 0.93462 0.0
C1731 C 0.92422 0.22845 0.92531 0.0
C1732 C 0.904 0.22099 0.92775 0.0
C1733 C 0.93808 0.24629 0.93726 0.0
C1734 C 0.8981 0.23136 0.94348 0.0
C1735 C 0.91177 0.24937 0.95482 0.0
H1736 H 0.73865 0.67453 0.02055 0.0
H1737 H 0.6995 0.67943 0.96972 0.0
H1738 H 0.72395 0.68938 0.93867 0.0
H1739 H 0.75604 0.69521 0.92545 0.0
H1740 H 0.79447 0.68935 0.97641 0.0
H1741 H 0.77073 0.68129 0.00791 0.0
C1742 C 0.73546 0.67787 0.00273 0.0
C1743 C 0.71724 0.67616 0.99747 0.0
C1744 C 0.74946 0.68335 0.98493 0.0
C1745 C 0.71339 0.68056 0.97425 0.0
C1746 C 0.72737 0.68625 0.95647 0.0
C1747 C 0.75924 0.69237 0.94353 0.0
C1748 C 0.77688 0.69273 0.9486 0.0
C1749 C 0.74539 0.6875 0.96153 0.0
C1750 C 0.78085 0.6889 0.97204 0.0
C1751 C 0.76732 0.68434 0.99006 0.0
H1752 H 0.95014 0.65144 0.95163 0.0
H1753 H 0.98626 0.71042 0.9832 0.0
H1754 H 0.96797 0.72237 0.95983 0.0
H1755 H 0.93983 0.71534 0.93311 0.0
H1756 H 0.90338 0.65607 0.90263 0.0
H1757 H 0.92365 0.64498 0.92295 0.0
C1758 C 0.95421 0.66698 0.95322 0.0
C1759 C 0.96947 0.67996 0.96932 0.0
C1760 C 0.94341 0.67366 0.9401 0.0
C1761 C 0.97452 0.70006 0.97104 0.0
C1762 C 0.96402 0.70691 0.95773 0.0
C1763 C 0.93653 0.70009 0.93063 0.0
C1764 C 0.92 0.6865 0.91658 0.0
C1765 C 0.94816 0.69374 0.9426 0.0
C1766 C 0.91583 0.66674 0.91367 0.0
C1767 C 0.92745 0.6604 0.92521 0.0
H1768 H 0.31733 0.27888 0.95984 0.0
H1769 H 0.37731 0.29708 0.9454 0.0
H1770 H 0.36747 0.26364 0.93009 0.0
H1771 H 0.34171 0.23037 0.91724 0.0
H1772 H 0.28146 0.21205 0.92996 0.0
H1773 H 0.29148 0.2445 0.94924 0.0
C1774 C 0.32825 0.27538 0.95379 0.0
C1775 C 0.348 0.2904 0.9537 0.0
C1776 C 0.32242 0.25624 0.94432 0.0
C1777 C 0.36201 0.28577 0.94553 0.0
C1778 C 0.35639 0.26668 0.93671 0.0
C1779 C 0.33077 0.23331 0.92465 0.0
C1780 C 0.31088 0.21883 0.92217 0.0
C1781 C 0.33661 0.25197 0.93547 0.0
C1782 C 0.29687 0.22304 0.93142 0.0
C1783 C 0.3026 0.24154 0.94254 0.0
H1784 H 0.68115 0.05574 0.95071 0.0
H1785 H 0.7027 0.01814 0.97679 0.0
H1786 H 0.72978 0.03309 0.94937 0.0
H1787 H 0.74905 0.05902 0.92096 0.0
H1788 H 0.728 0.09714 0.89548 0.0
H1789 H 0.69903 0.07984 0.91978 0.0
C1790 C 0.69161 0.05062 0.95018 0.0
C1791 C 0.69 0.036 0.96597 0.0
C1792 C 0.70736 0.05953 0.93467 0.0
C1793 C 0.70367 0.0295 0.96498 0.0
C1794 C 0.7192 0.03806 0.94933 0.0
C1795 C 0.73793 0.06327 0.92035 0.0
C1796 C 0.74073 0.07943 0.90661 0.0
C1797 C 0.72144 0.05341 0.93453 0.0
C1798 C 0.72631 0.08493 0.90622 0.0
C1799 C 0.70972 0.07502 0.92004 0.0
H1800 H 0.6848 0.97556 0.05934 0.0
H1801 H 0.62418 0.93028 0.06347 0.0
H1802 H 0.63359 0.90799 0.08203 0.0
H1803 H 0.65866 0.9031 0.10172 0.0
H1804 H 0.71917 0.94918 0.10056 0.0
H1805 H 0.71027 0.96937 0.07594 0.0
C1806 C 0.67371 0.9606 0.06367 0.0
C1807 C 0.65384 0.95453 0.06013 0.0
C1808 C 0.6792 0.94818 0.07527 0.0
C1809 C 0.63957 0.93524 0.06612 0.0
C1810 C 0.64493 0.92256 0.07686 0.0
C1811 C 0.6699 0.91756 0.09605 0.0
C1812 C 0.68948 0.92482 0.10331 0.0
C1813 C 0.66464 0.92918 0.08238 0.0
C1814 C 0.70397 0.94331 0.09526 0.0
C1815 C 0.69889 0.95487 0.08126 0.0
H1816 H 0.04008 0.73309 0.06118 0.0
H1817 H 0.07969 0.71024 0.06511 0.0
H1818 H 0.10506 0.74167 0.08348 0.0
H1819 H 0.11484 0.77422 0.1022 0.0
H1820 H 0.0747 0.79649 0.10089 0.0
H1821 H 0.05088 0.76696 0.07741 0.0
C1822 C 0.05442 0.73519 0.06555 0.0
C1823 C 0.05799 0.71934 0.06187 0.0
C1824 C 0.06878 0.75313 0.07685 0.0
C1825 C 0.07656 0.72219 0.06788 0.0
C1826 C 0.09105 0.74012 0.07847 0.0
C1827 C 0.10088 0.77263 0.09677 0.0
C1828 C 0.09649 0.78744 0.10358 0.0
C1829 C 0.08711 0.75544 0.08375 0.0
C1830 C 0.07851 0.78536 0.09585 0.0
C1831 C 0.06482 0.76841 0.08253 0.0
H1832 H 0.26844 0.29902 0.00639 0.0
H1833 H 0.31612 0.32569 0.05913 0.0
H1834 H 0.29291 0.31683 0.09151 0.0
H1835 H 0.25919 0.30346 0.10455 0.0
H1836 H 0.21187 0.27885 0.05118 0.0
H1837 H 0.2348 0.28447 0.01952 0.0
C1838 C 0.27379 0.30274 0.02498 0.0
C1839 C 0.294 0.31314 0.03029 0.0
C1840 C 0.2604 0.29792 0.04345 0.0
C1841 C 0.30064 0.31779 0.05451 0.0
C1842 C 0.28738 0.31275 0.07304 0.0
C1843 C 0.25388 0.29933 0.086 0.0
C1844 C 0.23378 0.29079 0.08037 0.0
C1845 C 0.26724 0.30316 0.06768 0.0
C1846 C 0.22717 0.28517 0.05623 0.0
C1847 C 0.24032 0.28857 0.038 0.0
H1848 H 0.73615 0.6979 0.4044 0.0
H1849 H 0.69311 0.63739 0.3838 0.0
H1850 H 0.71128 0.62527 0.40704 0.0
H1851 H 0.7406 0.63199 0.43102 0.0
H1852 H 0.78351 0.69257 0.45142 0.0
H1853 H 0.76425 0.70447 0.43034 0.0
C1854 C 0.73062 0.68204 0.40514 0.0
C1855 C 0.71334 0.66862 0.3922 0.0
C1856 C 0.74124 0.67517 0.41833 0.0
C1857 C 0.7064 0.6481 0.39349 0.0
C1858 C 0.71682 0.64114 0.40674 0.0
C1859 C 0.74559 0.64776 0.43115 0.0
C1860 C 0.76361 0.66136 0.44257 0.0
C1861 C 0.73443 0.65455 0.41892 0.0
C1862 C 0.7699 0.68179 0.44238 0.0
C1863 C 0.75885 0.68862 0.43043 0.0
H1864 H 0.3118 0.05084 0.41868 0.0
H1865 H 0.36881 0.06272 0.39748 0.0
H1866 H 0.38318 0.09704 0.4129 0.0
H1867 H 0.37992 0.12274 0.43597 0.0
H1868 H 0.32279 0.10991 0.45785 0.0
H1869 H 0.30816 0.07691 0.43865 0.0
C1870 C 0.32735 0.06096 0.41711 0.0
C1871 C 0.33921 0.05409 0.40719 0.0
C1872 C 0.33556 0.08048 0.42643 0.0
C1873 C 0.35929 0.06756 0.40506 0.0
C1874 C 0.36757 0.08716 0.41406 0.0
C1875 C 0.36428 0.1127 0.43643 0.0
C1876 C 0.35247 0.11873 0.44837 0.0
C1877 C 0.35592 0.09361 0.42543 0.0
C1878 C 0.33218 0.10569 0.44859 0.0
C1879 C 0.3238 0.08678 0.43771 0.0
H1880 H 0.9733 0.27418 0.3839 0.0
H1881 H 0.9564 0.31405 0.35302 0.0
H1882 H 0.92843 0.30146 0.37918 0.0
H1883 H 0.90841 0.27866 0.41024 0.0
H1884 H 0.92447 0.23756 0.43934 0.0
H1885 H 0.95336 0.25149 0.4149 0.0
C1886 C 0.96354 0.28018 0.38292 0.0
C1887 C 0.96692 0.29499 0.36647 0.0
C1888 C 0.94739 0.27275 0.39784 0.0
C1889 C 0.9541 0.30257 0.36544 0.0
C1890 C 0.93811 0.2954 0.38042 0.0
C1891 C 0.91815 0.27266 0.41116 0.0
C1892 C 0.91422 0.2571 0.42673 0.0
C1893 C 0.93453 0.28038 0.39657 0.0
C1894 C 0.92725 0.24977 0.42792 0.0
C1895 C 0.94371 0.25759 0.41374 0.0
H1896 H 0.98676 0.36252 0.28669 0.0
H1897 H 0.04687 0.40951 0.2837 0.0
H1898 H 0.03677 0.42958 0.26099 0.0
H1899 H 0.01134 0.43218 0.23824 0.0
H1900 H 0.95148 0.38455 0.23954 0.0
H1901 H 0.961 0.36631 0.26674 0.0
C1902 C 0.99762 0.37735 0.28162 0.0
C1903 C 0.01756 0.38445 0.28675 0.0
C1904 C 0.99179 0.38852 0.26785 0.0
C1905 C 0.03144 0.40365 0.27987 0.0
C1906 C 0.0257 0.41508 0.26674 0.0
C1907 C 0.00041 0.41779 0.24445 0.0
C1908 C 0.98081 0.40956 0.23662 0.0
C1909 C 0.00601 0.40735 0.25989 0.0
C1910 C 0.96668 0.39115 0.24529 0.0
C1911 C 0.97212 0.38072 0.2608 0.0
H1912 H 0.59567 0.62082 0.3001 0.0
H1913 H 0.64101 0.60722 0.31703 0.0
H1914 H 0.62042 0.5734 0.30018 0.0
H1915 H 0.59115 0.54922 0.27598 0.0
H1916 H 0.54625 0.56353 0.25913 0.0
H1917 H 0.56514 0.59559 0.28045 0.0
C1918 C 0.60097 0.61039 0.30045 0.0
C1919 C 0.61996 0.61664 0.30951 0.0
C1920 C 0.58925 0.59118 0.29036 0.0
C1921 C 0.62646 0.60282 0.31015 0.0
C1922 C 0.61475 0.58352 0.30032 0.0
C1923 C 0.58535 0.5592 0.27739 0.0
C1924 C 0.56749 0.55414 0.26553 0.0
C1925 C 0.59636 0.57775 0.28967 0.0
C1926 C 0.56018 0.56726 0.26754 0.0
C1927 C 0.57092 0.58557 0.27984 0.0
H1928 H 0.35796 0.96997 0.30602 0.0
H1929 H 0.39152 0.02862 0.33949 0.0
H1930 H 0.41592 0.03808 0.30854 0.0
H1931 H 0.4286 0.02915 0.27319 0.0
H1932 H 0.39547 0.9703 0.24041 0.0
H1933 H 0.36994 0.96149 0.26981 0.0
C1934 C 0.37057 0.98485 0.30653 0.0
C1935 C 0.37295 0.99851 0.32516 0.0
C1936 C 0.38461 0.99016 0.28878 0.0
C1937 C 0.38936 0.01776 0.32545 0.0
C1938 C 0.40332 0.02321 0.30773 0.0
C1939 C 0.41561 0.01453 0.27225 0.0
C1940 C 0.41387 0.00039 0.25469 0.0
C1941 C 0.40119 0.00947 0.28945 0.0
C1942 C 0.39714 0.98138 0.25388 0.0
C1943 C 0.38258 0.97634 0.27067 0.0
H1944 H 0.62062 0.00703 0.3049 0.0
H1945 H 0.57751 0.98486 0.36005 0.0
H1946 H 0.55568 0.99105 0.33506 0.0
H1947 H 0.54853 0.00249 0.29754 0.0
H1948 H 0.59117 0.02446 0.24198 0.0
H1949 H 0.6135 0.01889 0.26722 0.0
C1950 C 0.60646 0.00358 0.31145 0.0
C1951 C 0.60075 0.99544 0.33433 0.0
C1952 C 0.59387 0.0072 0.29694 0.0
C1953 C 0.58234 0.99111 0.34254 0.0
C1954 C 0.56979 0.99464 0.32824 0.0
C1955 C 0.56265 0.00592 0.29087 0.0
C1956 C 0.56812 0.01381 0.26787 0.0
C1957 C 0.57536 0.00259 0.3054 0.0
C1958 C 0.58665 0.01854 0.25971 0.0
C1959 C 0.59939 0.01525 0.27408 0.0
H1960 H 0.03583 0.62507 0.27805 0.0
H1961 H 0.97858 0.60957 0.30257 0.0
H1962 H 0.96489 0.57659 0.28313 0.0
H1963 H 0.96863 0.55367 0.2553 0.0
H1964 H 0.0261 0.56948 0.23125 0.0
H1965 H 0.04016 0.60092 0.25416 0.0
C1966 C 0.02039 0.61441 0.27943 0.0
C1967 C 0.00823 0.61991 0.29147 0.0
C1968 C 0.01257 0.59564 0.26794 0.0
C1969 C 0.9883 0.60578 0.29337 0.0
C1970 C 0.98042 0.58695 0.28211 0.0
C1971 C 0.98427 0.56382 0.25543 0.0
C1972 C 0.99621 0.55937 0.24115 0.0
C1973 C 0.99233 0.58193 0.26876 0.0
C1974 C 0.01647 0.57275 0.24152 0.0
C1975 C 0.02457 0.59069 0.25476 0.0
H1976 H 0.38111 0.36521 0.31601 0.0
H1977 H 0.3621 0.40667 0.29766 0.0
H1978 H 0.38767 0.42149 0.26819 0.0
H1979 H 0.41631 0.42373 0.24908 0.0
H1980 H 0.43482 0.38169 0.26631 0.0
H1981 H 0.40862 0.36615 0.29496 0.0
C1982 C 0.38254 0.37747 0.30554 0.0
C1983 C 0.36982 0.38492 0.30917 0.0
C1984 C 0.39722 0.38587 0.2885 0.0
C1985 C 0.37173 0.40067 0.29527 0.0
C1986 C 0.38636 0.40917 0.27842 0.0
C1987 C 0.41441 0.41092 0.25871 0.0
C1988 C 0.42759 0.40395 0.25557 0.0
C1989 C 0.39927 0.40199 0.27503 0.0
C1990 C 0.42508 0.38755 0.26862 0.0
C1991 C 0.41005 0.37861 0.28494 0.0
H1992 H 0.3613 0.31974 0.39783 0.0
H1993 H 0.30257 0.26959 0.39353 0.0
H1994 H 0.31316 0.24967 0.41562 0.0
H1995 H 0.33802 0.24792 0.44058 0.0
H1996 H 0.39646 0.29827 0.44664 0.0
H1997 H 0.38715 0.31672 0.41934 0.0
C1998 C 0.35096 0.30428 0.40111 0.0
C1999 C 0.33115 0.29618 0.39421 0.0
C2000 C 0.35702 0.29311 0.41459 0.0
C2001 C 0.31787 0.27618 0.39879 0.0
C2002 C 0.32388 0.26483 0.41156 0.0
C2003 C 0.34871 0.26292 0.43585 0.0
C2004 C 0.36776 0.27191 0.44592 0.0
C2005 C 0.34322 0.2734 0.42037 0.0
C2006 C 0.38166 0.29113 0.43919 0.0
C2007 C 0.37633 0.30166 0.42363 0.0
H2008 H 0.72881 0.04041 0.39232 0.0
H2009 H 0.68369 0.0541 0.37425 0.0
H2010 H 0.70618 0.08924 0.38465 0.0
H2011 H 0.73782 0.11551 0.4025 0.0
H2012 H 0.78193 0.10064 0.42199 0.0
H2013 H 0.76073 0.06665 0.40713 0.0
C2014 C 0.72388 0.05106 0.39039 0.0
C2015 C 0.70449 0.04454 0.3828 0.0
C2016 C 0.73672 0.07109 0.39679 0.0
C2017 C 0.69852 0.05867 0.38009 0.0
C2018 C 0.71135 0.07876 0.38619 0.0
C2019 C 0.74281 0.10484 0.40339 0.0
C2020 C 0.76149 0.11071 0.41339 0.0
C2021 C 0.73033 0.08505 0.39518 0.0
C2022 C 0.76779 0.09672 0.41409 0.0
C2023 C 0.7556 0.07717 0.40577 0.0
H2024 H 0.93219 0.64355 0.3409 0.0
H2025 H 0.97492 0.65165 0.39604 0.0
H2026 H 0.95065 0.64357 0.42698 0.0
H2027 H 0.91791 0.63679 0.43863 0.0
H2028 H 0.87616 0.6308 0.38341 0.0
H2029 H 0.89933 0.63528 0.35218 0.0
C2030 C 0.93617 0.64335 0.35965 0.0
C2031 C 0.95537 0.64831 0.36614 0.0
C2032 C 0.9223 0.63912 0.37734 0.0
C2033 C 0.96026 0.648 0.39055 0.0
C2034 C 0.9464 0.64339 0.40827 0.0
C2035 C 0.91387 0.63615 0.41971 0.0
C2036 C 0.89547 0.63349 0.41319 0.0
C2037 C 0.92747 0.63929 0.40192 0.0
C2038 C 0.89034 0.6329 0.38872 0.0
C2039 C 0.90356 0.63549 0.37092 0.0
H2040 H 0.37485 0.99158 0.71781 0.0
H2041 H 0.40775 0.99397 0.65542 0.0
H2042 H 0.42919 0.9871 0.68028 0.0
H2043 H 0.43922 0.98115 0.71978 0.0
H2044 H 0.40633 0.97827 0.78231 0.0
H2045 H 0.3845 0.98478 0.75744 0.0
C2046 C 0.38668 0.99055 0.70965 0.0
C2047 C 0.38964 0.99333 0.68475 0.0
C2048 C 0.39907 0.98659 0.7241 0.0
C2049 C 0.40507 0.99193 0.67451 0.0
C2050 C 0.41739 0.98799 0.68872 0.0
C2051 C 0.42714 0.98169 0.72795 0.0
C2052 C 0.42449 0.97924 0.75292 0.0
C2053 C 0.41458 0.98536 0.71353 0.0
C2054 C 0.40891 0.98035 0.7632 0.0
C2055 C 0.39634 0.98398 0.74896 0.0
H2056 H 0.96314 0.37301 0.73496 0.0
H2057 H 0.02011 0.38562 0.71252 0.0
H2058 H 0.03465 0.41911 0.73071 0.0
H2059 H 0.03165 0.44324 0.75728 0.0
H2060 H 0.97463 0.42975 0.78048 0.0
H2061 H 0.95971 0.39804 0.75794 0.0
C2062 C 0.97871 0.38313 0.73368 0.0
C2063 C 0.99052 0.37665 0.72266 0.0
C2064 C 0.98704 0.4021 0.74474 0.0
C2065 C 0.01064 0.39014 0.72097 0.0
C2066 C 0.01901 0.40926 0.73154 0.0
C2067 C 0.01593 0.43349 0.75707 0.0
C2068 C 0.0043 0.43869 0.77087 0.0
C2069 C 0.00743 0.41516 0.74416 0.0
C2070 C 0.98395 0.42588 0.77047 0.0
C2071 C 0.97539 0.40781 0.75746 0.0
H2072 H 0.62438 0.64035 0.71522 0.0
H2073 H 0.64927 0.60814 0.74884 0.0
H2074 H 0.62171 0.59271 0.77551 0.0
H2075 H 0.58946 0.58649 0.78724 0.0
H2076 H 0.56425 0.61833 0.75374 0.0
H2077 H 0.59322 0.63611 0.72934 0.0
C2078 C 0.62384 0.63004 0.72848 0.0
C2079 C 0.63874 0.6252 0.72981 0.0
C2080 C 0.60792 0.6212 0.74378 0.0
C2081 C 0.63795 0.61204 0.74732 0.0
C2082 C 0.62218 0.60318 0.76257 0.0
C2083 C 0.59041 0.59744 0.77469 0.0
C2084 C 0.57473 0.60098 0.77202 0.0
C2085 C 0.60693 0.60737 0.76063 0.0
C2086 C 0.5762 0.61542 0.75609 0.0
C2087 C 0.59267 0.62546 0.74204 0.0
H2088 H 0.64747 0.68653 0.64034 0.0
H2089 H 0.70708 0.73496 0.64044 0.0
H2090 H 0.69629 0.75645 0.62286 0.0
H2091 H 0.67064 0.76037 0.60369 0.0
H2092 H 0.61092 0.71213 0.60232 0.0
H2093 H 0.62111 0.69145 0.62375 0.0
C2094 C 0.65801 0.70192 0.63703 0.0
C2095 C 0.67804 0.70916 0.64162 0.0
C2096 C 0.65176 0.71404 0.62622 0.0
C2097 C 0.6916 0.72905 0.63695 0.0
C2098 C 0.68545 0.7413 0.62681 0.0
C2099 C 0.65973 0.74549 0.60853 0.0
C2100 C 0.64003 0.73783 0.60144 0.0
C2101 C 0.66567 0.73378 0.62077 0.0
C2102 C 0.62621 0.71831 0.60733 0.0
C2103 C 0.63201 0.70654 0.61971 0.0
H2104 H 0.30975 0.93982 0.63303 0.0
H2105 H 0.26284 0.95228 0.64193 0.0
H2106 H 0.23911 0.9186 0.62775 0.0
H2107 H 0.23221 0.88739 0.60753 0.0
H2108 H 0.27888 0.87495 0.59673 0.0
H2109 H 0.30211 0.90662 0.61718 0.0
C2110 C 0.29429 0.93495 0.63252 0.0
C2111 C 0.28807 0.94857 0.63832 0.0
C2112 C 0.28071 0.91565 0.62361 0.0
C2113 C 0.26799 0.94211 0.63737 0.0
C2114 C 0.25442 0.92288 0.62915 0.0
C2115 C 0.24745 0.89154 0.60991 0.0
C2116 C 0.2539 0.87905 0.60035 0.0
C2117 C 0.26069 0.90983 0.62131 0.0
C2118 C 0.27358 0.88437 0.60393 0.0
C2119 C 0.28687 0.90251 0.6155 0.0
H2120 H 0.03108 0.33735 0.63827 0.0
H2121 H 0.06924 0.34629 0.69964 0.0
H2122 H 0.09649 0.35555 0.67297 0.0
H2123 H 0.10918 0.35987 0.63222 0.0
H2124 H 0.07123 0.35137 0.57083 0.0
H2125 H 0.04414 0.34299 0.59756 0.0
C2126 C 0.04536 0.34138 0.64584 0.0
C2127 C 0.04807 0.34103 0.67093 0.0
C2128 C 0.06098 0.34667 0.63041 0.0
C2129 C 0.06671 0.34638 0.68041 0.0
C2130 C 0.08232 0.35167 0.66517 0.0
C2131 C 0.09507 0.35651 0.62469 0.0
C2132 C 0.09225 0.35624 0.59955 0.0
C2133 C 0.07959 0.35175 0.64015 0.0
C2134 C 0.07375 0.35146 0.59009 0.0
C2135 C 0.05827 0.34675 0.60537 0.0
H2136 H 0.28645 0.35298 0.65823 0.0
H2137 H 0.25332 0.29094 0.63593 0.0
H2138 H 0.23275 0.29774 0.60926 0.0
H2139 H 0.22323 0.32087 0.59347 0.0
H2140 H 0.25693 0.38319 0.61427 0.0
H2141 H 0.27789 0.37658 0.64063 0.0
C2142 C 0.2748 0.34096 0.64744 0.0
C2143 C 0.27143 0.32146 0.64921 0.0
C2144 C 0.26295 0.34496 0.63204 0.0
C2145 C 0.25629 0.3061 0.635 0.0
C2146 C 0.24445 0.30995 0.61975 0.0
C2147 C 0.23534 0.33312 0.60342 0.0
C2148 C 0.23836 0.35251 0.60185 0.0
C2149 C 0.24754 0.32928 0.61827 0.0
C2150 C 0.25396 0.36805 0.61537 0.0
C2151 C 0.26608 0.36431 0.63035 0.0
H2152 H 0.63877 0.95065 0.62078 0.0
H2153 H 0.69961 0.96741 0.61976 0.0
H2154 H 0.69065 0.93334 0.60845 0.0
H2155 H 0.66594 0.89999 0.5946 0.0
H2156 H 0.60498 0.8829 0.59369 0.0
H2157 H 0.61355 0.91598 0.60968 0.0
C2158 C 0.64999 0.94668 0.61862 0.0
C2159 C 0.66981 0.96147 0.62108 0.0
C2160 C 0.64474 0.92714 0.61131 0.0
C2161 C 0.68426 0.95626 0.61788 0.0
C2162 C 0.67916 0.93682 0.61132 0.0
C2163 C 0.65445 0.90329 0.5984 0.0
C2164 C 0.63485 0.88896 0.59296 0.0
C2165 C 0.65949 0.9223 0.60733 0.0
C2166 C 0.62021 0.89373 0.59748 0.0
C2167 C 0.6251 0.91261 0.60672 0.0
H2168 H 0.04093 0.73553 0.62524 0.0
H2169 H 0.05179 0.69158 0.65685 0.0
H2170 H 0.07941 0.7011 0.63072 0.0
H2171 H 0.1009 0.72234 0.59947 0.0
H2172 H 0.09097 0.76749 0.56961 0.0
H2173 H 0.06235 0.7567 0.59405 0.0
C2174 C 0.04928 0.72796 0.62637 0.0
C2175 C 0.04431 0.71291 0.64303 0.0
C2176 C 0.06528 0.73363 0.61148 0.0
C2177 C 0.05534 0.7033 0.64426 0.0
C2178 C 0.07114 0.70871 0.6293 0.0
C2179 C 0.09256 0.72991 0.59839 0.0
C2180 C 0.09814 0.74567 0.58258 0.0
C2181 C 0.07633 0.72396 0.61297 0.0
C2182 C 0.0869 0.75507 0.5812 0.0
C2183 C 0.07059 0.74904 0.59538 0.0
H2184 H 0.02201 0.64699 0.7277 0.0
H2185 H 0.96042 0.6049 0.73281 0.0
H2186 H 0.96787 0.58223 0.75389 0.0
H2187 H 0.99151 0.57579 0.77422 0.0
H2188 H 0.05325 0.61716 0.76889 0.0
H2189 H 0.04603 0.63896 0.74516 0.0
C2190 C 0.01024 0.63267 0.73295 0.0
C2191 C 0.99069 0.62771 0.7288 0.0
C2192 C 0.01461 0.61981 0.74556 0.0
C2193 C 0.9756 0.60915 0.73591 0.0
C2194 C 0.97983 0.59621 0.74809 0.0
C2195 C 0.00347 0.58935 0.76748 0.0
C2196 C 0.02291 0.59479 0.77347 0.0
C2197 C -0.00075 0.60162 0.75356 0.0
C2198 C 0.03813 0.61272 0.76499 0.0
C2199 C 0.03402 0.62512 0.75119 0.0
H2200 H 0.38958 0.37555 0.74166 0.0
H2201 H 0.34422 0.38904 0.72425 0.0
H2202 H 0.36627 0.42398 0.73622 0.0
H2203 H 0.39785 0.45022 0.75445 0.0
H2204 H 0.44251 0.43574 0.77213 0.0
H2205 H 0.42133 0.40174 0.7571 0.0
C2206 C 0.38449 0.38612 0.74029 0.0
C2207 C 0.36519 0.37961 0.73231 0.0
C2208 C 0.39713 0.40604 0.74737 0.0
C2209 C 0.359 0.39362 0.73034 0.0
C2210 C 0.37157 0.41359 0.73732 0.0
C2211 C 0.40293 0.43961 0.75491 0.0
C2212 C 0.42177 0.44556 0.76439 0.0
C2213 C 0.39056 0.41989 0.74634 0.0
C2214 C 0.42822 0.43169 0.76464 0.0
C2215 C 0.41606 0.41217 0.7562 0.0
H2216 H 0.62301 0.98683 0.70159 0.0
H2217 H 0.64735 0.04953 0.71779 0.0
H2218 H 0.62217 0.04213 0.74709 0.0
H2219 H 0.59184 0.01807 0.76585 0.0
H2220 H 0.56796 0.9553 0.75061 0.0
H2221 H 0.59424 0.96259 0.72304 0.0
C2222 C 0.62291 0.99888 0.71167 0.0
C2223 C 0.63695 0.01871 0.70729 0.0
C2224 C 0.60834 0.99454 0.7285 0.0
C2225 C 0.63669 0.03412 0.72069 0.0
C2226 C 0.62225 0.02992 0.73743 0.0
C2227 C 0.59256 0.00593 0.75691 0.0
C2228 C 0.57775 0.98616 0.76016 0.0
C2229 C 0.6078 0.0102 0.74118 0.0
C2230 C 0.57888 0.97069 0.74809 0.0
C2231 C 0.59398 0.97483 0.7324 0.0
loop_
_geom_bond_atom_site_label_1
_geom_bond_atom_site_label_2
_geom_bond_distance
_geom_bond_site_symmetry_2
_ccdc_geom_bond_type
Mg0 O1 2.028 1_556 S
Mg0 O7 1.986 1_455 S
Mg0 O9 2.114 . S
Mg0 O10 2.251 1_455 S
Mg0 O13 2.010 1_556 S
O1 Mg0 2.028 1_554 S
O1 C4 1.250 1_455 S
O2 Mg3 2.028 1_554 S
O2 C4 1.248 . S
Mg3 O2 2.028 1_556 S
Mg3 O8 2.032 . S
Mg3 O10 2.079 . S
C4 O1 1.250 1_655 S
C4 O2 1.248 . S
C5 O6 1.264 . S
C5 O13 1.249 . S
O6 C5 1.264 . S
O7 Mg0 1.986 1_655 S
O7 C11 1.246 . S
O8 Mg3 2.032 . S
O8 C11 1.259 . S
O9 Mg0 2.114 . S
O9 C12 1.252 . S
O10 Mg0 2.251 1_655 S
O10 Mg3 2.079 . S
O10 C12 1.273 1_655 S
C11 O7 1.246 . S
C11 O8 1.259 . S
C12 O9 1.252 . S
C12 O10 1.273 1_455 S
O13 Mg0 2.010 1_554 S
O13 C5 1.249 . S
Mg14 O15 2.028 1_554 S
Mg14 O21 1.986 . S
Mg14 O23 2.114 . S
Mg14 O24 2.251 . S
Mg14 O27 2.010 . S
O15 Mg14 2.028 1_556 S
O15 C18 1.250 . S
O16 Mg17 2.065 . S
O16 C18 1.222 1_554 S
Mg17 O16 2.065 . S
Mg17 O22 2.032 . S
Mg17 O24 2.079 . S
C18 O15 1.250 . S
C18 O16 1.222 1_556 S
C19 O20 1.264 1_556 S
C19 O27 1.249 1_556 S
O20 C19 1.264 1_554 S
O21 Mg14 1.986 . S
O21 C25 1.246 . S
O22 Mg17 2.032 . S
O22 C25 1.259 . S
O23 Mg14 2.114 . S
O23 C26 1.252 . S
O24 Mg14 2.251 . S
O24 Mg17 2.079 . S
O24 C26 1.273 . S
C25 O21 1.246 . S
C25 O22 1.259 . S
C26 O23 1.252 . S
C26 O24 1.273 . S
O27 Mg14 2.010 . S
O27 C19 1.249 1_554 S
Mg28 O29 2.028 1_566 S
Mg28 O35 1.986 1_565 S
Mg28 O37 2.114 . S
Mg28 O38 2.251 1_565 S
Mg28 O41 2.010 1_556 S
O29 Mg28 2.028 1_544 S
O29 C32 1.250 . S
O30 Mg31 2.028 1_554 S
O30 C32 1.248 . S
Mg31 O30 2.028 1_556 S
Mg31 O36 2.032 . S
Mg31 O38 2.079 . S
C32 O29 1.250 . S
C32 O30 1.248 . S
C33 O34 1.264 . S
C33 O41 1.249 . S
O34 C33 1.264 . S
O35 Mg28 1.986 1_545 S
O35 C39 1.246 . S
O36 Mg31 2.032 . S
O36 C39 1.259 . S
O37 Mg28 2.114 . S
O37 C40 1.252 . S
O38 Mg28 2.251 1_545 S
O38 Mg31 2.079 . S
O38 C40 1.273 1_545 S
C39 O35 1.246 . S
C39 O36 1.259 . S
C40 O37 1.252 . S
C40 O38 1.273 1_565 S
O41 Mg28 2.010 1_554 S
O41 C33 1.249 . S
Mg42 O43 2.007 1_654 S
Mg42 O49 1.986 1_655 S
Mg42 O51 2.114 . S
Mg42 O52 2.251 1_655 S
Mg42 O55 2.010 . S
O43 Mg42 2.007 1_456 S
O43 C46 1.300 . S
O44 Mg45 2.028 1_556 S
O44 C46 1.248 . S
Mg45 O44 2.028 1_554 S
Mg45 O50 2.032 . S
Mg45 O52 2.079 . S
C46 O43 1.300 . S
C46 O44 1.248 . S
C47 O48 1.279 . S
C47 O55 1.260 . S
O48 C47 1.279 . S
O49 Mg42 1.986 1_455 S
O49 C53 1.246 . S
O50 Mg45 2.032 . S
O50 C53 1.259 . S
O51 Mg42 2.114 . S
O51 C54 1.252 . S
O52 Mg42 2.251 1_455 S
O52 Mg45 2.079 . S
O52 C54 1.273 1_455 S
C53 O49 1.246 . S
C53 O50 1.259 . S
C54 O51 1.252 . S
C54 O52 1.273 1_655 S
O55 Mg42 2.010 . S
O55 C47 1.260 . S
Mg56 O57 2.004 1_556 S
Mg56 O63 1.988 . S
Mg56 O65 2.123 . S
Mg56 O66 2.269 . S
Mg56 O69 1.998 1_556 S
O57 Mg56 2.004 1_554 S
O57 C60 1.250 . S
O58 Mg59 2.028 1_554 S
O58 C60 1.248 . S
Mg59 O58 2.028 1_556 S
Mg59 O64 2.032 . S
Mg59 O66 2.079 . S
C60 O57 1.250 . S
C60 O58 1.248 . S
C61 O62 1.264 . S
C61 O69 1.249 . S
O62 C61 1.264 . S
O63 Mg56 1.988 . S
O63 C67 1.246 . S
O64 Mg59 2.032 . S
O64 C67 1.259 . S
O65 Mg56 2.123 . S
O65 C68 1.252 . S
O66 Mg56 2.269 . S
O66 Mg59 2.079 . S
O66 C68 1.273 . S
C67 O63 1.246 . S
C67 O64 1.259 . S
C68 O65 1.252 . S
C68 O66 1.273 . S
O69 Mg56 1.998 1_554 S
O69 C61 1.249 . S
Mg70 O71 2.028 1_554 S
Mg70 O77 1.986 1_545 S
Mg70 O79 2.114 . S
Mg70 O80 2.251 1_545 S
Mg70 O83 2.010 . S
O71 Mg70 2.028 1_556 S
O71 C74 1.250 1_545 S
O72 Mg73 2.028 1_556 S
O72 C74 1.248 . S
Mg73 O72 2.028 1_554 S
Mg73 O78 2.032 . S
Mg73 O80 2.079 . S
C74 O71 1.250 1_565 S
C74 O72 1.248 . S
C75 O76 1.264 . S
C75 O83 1.249 . S
O76 C75 1.264 . S
O77 Mg70 1.986 1_565 S
O77 C81 1.246 . S
O78 Mg73 2.032 . S
O78 C81 1.259 . S
O79 Mg70 2.114 . S
O79 C82 1.252 . S
O80 Mg70 2.251 1_565 S
O80 Mg73 2.079 . S
O80 C82 1.273 1_565 S
C81 O77 1.246 . S
C81 O78 1.259 . S
C82 O79 1.252 . S
C82 O80 1.273 1_545 S
O83 Mg70 2.010 . S
O83 C75 1.249 . S
Mg84 O85 2.028 . S
Mg84 O91 1.986 . S
Mg84 O93 2.114 . S
Mg84 O94 2.251 . S
Mg84 O97 2.010 . S
O85 Mg84 2.028 . S
O85 C88 1.250 . S
O86 Mg87 2.028 . S
O86 C88 1.248 . S
Mg87 O86 2.028 . S
Mg87 O92 2.032 . S
Mg87 O94 2.079 . S
C88 O85 1.250 . S
C88 O86 1.248 . S
C89 O90 1.264 . S
C89 O97 1.249 . S
O90 C89 1.264 . S
O91 Mg84 1.986 . S
O91 C95 1.246 . S
O92 Mg87 2.032 . S
O92 C95 1.259 . S
O93 Mg84 2.114 . S
O93 C96 1.252 . S
O94 Mg84 2.251 . S
O94 Mg87 2.079 . S
O94 C96 1.273 . S
C95 O91 1.246 . S
C95 O92 1.259 . S
C96 O93 1.252 . S
C96 O94 1.273 . S
O97 Mg84 2.010 . S
O97 C89 1.249 . S
Mg98 O99 2.028 . S
Mg98 O105 1.986 1_565 S
Mg98 O107 2.114 . S
Mg98 O108 2.251 . S
Mg98 O111 2.010 . S
O99 Mg98 2.028 . S
O99 C102 1.250 . S
O100 Mg101 2.028 . S
O100 C102 1.248 . S
Mg101 O100 2.028 . S
Mg101 O106 2.032 1_565 S
Mg101 O108 2.079 . S
C102 O99 1.250 . S
C102 O100 1.248 . S
C103 O104 1.264 . S
C103 O111 1.249 . S
O104 C103 1.264 . S
O105 Mg98 1.986 1_545 S
O105 C109 1.246 . S
O106 Mg101 2.032 1_545 S
O106 C109 1.259 . S
O107 Mg98 2.114 . S
O107 C110 1.252 . S
O108 Mg98 2.251 . S
O108 Mg101 2.079 . S
O108 C110 1.273 . S
C109 O105 1.246 . S
C109 O106 1.259 . S
C110 O107 1.252 . S
C110 O108 1.273 . S
O111 Mg98 2.010 . S
O111 C103 1.249 . S
Mg112 O113 2.028 . S
Mg112 O119 1.986 . S
Mg112 O121 2.114 . S
Mg112 O122 2.251 . S
Mg112 O125 2.010 1_455 S
O113 Mg112 2.028 . S
O113 C116 1.250 . S
O114 Mg115 2.028 . S
O114 C116 1.248 . S
Mg115 O114 2.028 . S
Mg115 O120 2.032 . S
Mg115 O122 2.079 . S
C116 O113 1.250 . S
C116 O114 1.248 . S
C117 O118 1.264 . S
C117 O125 1.249 . S
O118 C117 1.264 . S
O119 Mg112 1.986 . S
O119 C123 1.246 . S
O120 Mg115 2.032 . S
O120 C123 1.259 . S
O121 Mg112 2.114 . S
O121 C124 1.252 . S
O122 Mg112 2.251 . S
O122 Mg115 2.079 . S
O122 C124 1.273 . S
C123 O119 1.246 . S
C123 O120 1.259 . S
C124 O121 1.252 . S
C124 O122 1.273 . S
O125 Mg112 2.010 1_655 S
O125 C117 1.249 . S
Mg126 O127 2.028 . S
Mg126 O133 1.986 1_565 S
Mg126 O135 2.114 . S
Mg126 O136 2.251 . S
Mg126 O139 2.010 . S
O127 Mg126 2.028 . S
O127 C130 1.250 . S
O128 Mg129 2.028 . S
O128 C130 1.248 . S
Mg129 O128 2.028 . S
Mg129 O134 2.032 1_565 S
Mg129 O136 2.079 . S
C130 O127 1.250 . S
C130 O128 1.248 . S
C131 O132 1.264 . S
C131 O139 1.249 . S
O132 C131 1.264 . S
O133 Mg126 1.986 1_545 S
O133 C137 1.246 . S
O134 Mg129 2.032 1_545 S
O134 C137 1.259 . S
O135 Mg126 2.114 . S
O135 C138 1.252 . S
O136 Mg126 2.251 . S
O136 Mg129 2.079 . S
O136 C138 1.273 . S
C137 O133 1.246 . S
C137 O134 1.259 . S
C138 O135 1.252 . S
C138 O136 1.273 . S
O139 Mg126 2.010 . S
O139 C131 1.249 . S
Mg140 O141 2.028 . S
Mg140 O147 1.986 . S
Mg140 O149 2.114 . S
Mg140 O150 2.251 . S
Mg140 O153 2.010 1_455 S
O141 Mg140 2.028 . S
O141 C144 1.250 . S
O142 Mg143 2.028 . S
O142 C144 1.248 . S
Mg143 O142 2.028 . S
Mg143 O148 2.032 . S
Mg143 O150 2.079 . S
C144 O141 1.250 . S
C144 O142 1.248 . S
C145 O146 1.264 . S
C145 O153 1.249 . S
O146 C145 1.264 . S
O147 Mg140 1.986 . S
O147 C151 1.246 . S
O148 Mg143 2.032 . S
O148 C151 1.259 . S
O149 Mg140 2.114 . S
O149 C152 1.252 . S
O150 Mg140 2.251 . S
O150 Mg143 2.079 . S
O150 C152 1.273 . S
C151 O147 1.246 . S
C151 O148 1.259 . S
C152 O149 1.252 . S
C152 O150 1.273 . S
O153 Mg140 2.010 1_655 S
O153 C145 1.249 . S
Mg154 O155 2.028 . S
Mg154 O161 1.986 . S
Mg154 O163 2.114 . S
Mg154 O164 2.251 . S
Mg154 O167 2.010 . S
O155 Mg154 2.028 . S
O155 C158 1.250 . S
O156 Mg157 2.028 . S
O156 C158 1.248 . S
Mg157 O156 2.028 . S
Mg157 O162 2.032 . S
Mg157 O164 2.079 . S
C158 O155 1.250 . S
C158 O156 1.248 . S
C159 O160 1.264 . S
C159 O167 1.249 . S
O160 C159 1.264 . S
O161 Mg154 1.986 . S
O161 C165 1.246 . S
O162 Mg157 2.032 . S
O162 C165 1.259 . S
O163 Mg154 2.114 . S
O163 C166 1.252 . S
O164 Mg154 2.251 . S
O164 Mg157 2.079 . S
O164 C166 1.273 . S
C165 O161 1.246 . S
C165 O162 1.259 . S
C166 O163 1.252 . S
C166 O164 1.273 . S
O167 Mg154 2.010 . S
O167 C159 1.249 . S
Mg168 O169 2.028 . S
Mg168 O175 1.986 1_545 S
Mg168 O177 2.114 . S
Mg168 O178 2.251 . S
Mg168 O181 2.010 . S
O169 Mg168 2.028 . S
O169 C172 1.250 . S
O170 Mg171 2.028 . S
O170 C172 1.248 . S
Mg171 O170 2.028 . S
Mg171 O176 2.032 1_545 S
Mg171 O178 2.079 . S
C172 O169 1.250 . S
C172 O170 1.248 . S
C173 O174 1.264 . S
C173 O181 1.249 . S
O174 C173 1.264 . S
O175 Mg168 1.986 1_565 S
O175 C179 1.246 . S
O176 Mg171 2.032 1_565 S
O176 C179 1.259 . S
O177 Mg168 2.114 . S
O177 C180 1.252 . S
O178 Mg168 2.251 . S
O178 Mg171 2.079 . S
O178 C180 1.273 . S
C179 O175 1.246 . S
C179 O176 1.259 . S
C180 O177 1.252 . S
C180 O178 1.273 . S
O181 Mg168 2.010 . S
O181 C173 1.249 . S
Mg182 O183 2.028 . S
Mg182 O189 1.986 . S
Mg182 O191 2.114 . S
Mg182 O192 2.251 . S
Mg182 O195 2.010 1_655 S
O183 Mg182 2.028 . S
O183 C186 1.250 . S
O184 Mg185 2.028 . S
O184 C186 1.248 . S
Mg185 O184 2.028 . S
Mg185 O190 2.032 . S
Mg185 O192 2.079 . S
C186 O183 1.250 . S
C186 O184 1.248 . S
C187 O188 1.264 . S
C187 O195 1.249 . S
O188 C187 1.264 . S
O189 Mg182 1.986 . S
O189 C193 1.246 . S
O190 Mg185 2.032 . S
O190 C193 1.259 . S
O191 Mg182 2.114 . S
O191 C194 1.252 . S
O192 Mg182 2.251 . S
O192 Mg185 2.079 . S
O192 C194 1.273 . S
C193 O189 1.246 . S
C193 O190 1.259 . S
C194 O191 1.252 . S
C194 O192 1.273 . S
O195 Mg182 2.010 1_455 S
O195 C187 1.249 . S
Mg196 O197 2.028 . S
Mg196 O203 1.986 . S
Mg196 O205 2.114 . S
Mg196 O206 2.251 . S
Mg196 O209 2.010 . S
O197 Mg196 2.028 . S
O197 C200 1.250 . S
O198 Mg199 2.028 . S
O198 C200 1.248 . S
Mg199 O198 2.028 . S
Mg199 O204 2.032 . S
Mg199 O206 2.079 . S
C200 O197 1.250 . S
C200 O198 1.248 . S
C201 O202 1.264 . S
C201 O209 1.249 . S
O202 C201 1.264 . S
O203 Mg196 1.986 . S
O203 C207 1.246 . S
O204 Mg199 2.032 . S
O204 C207 1.259 . S
O205 Mg196 2.114 . S
O205 C208 1.252 . S
O206 Mg196 2.251 . S
O206 Mg199 2.079 . S
O206 C208 1.273 . S
C207 O203 1.246 . S
C207 O204 1.259 . S
C208 O205 1.252 . S
C208 O206 1.273 . S
O209 Mg196 2.010 . S
O209 C201 1.249 . S
Mg210 O211 2.028 . S
Mg210 O217 1.986 . S
Mg210 O219 2.114 . S
Mg210 O220 2.251 . S
Mg210 O223 2.010 . S
O211 Mg210 2.028 . S
O211 C214 1.250 . S
O212 Mg213 2.028 . S
O212 C214 1.248 . S
Mg213 O212 2.028 . S
Mg213 O218 2.032 . S
Mg213 O220 2.079 . S
C214 O211 1.250 . S
C214 O212 1.248 . S
C215 O216 1.264 . S
C215 O223 1.249 . S
O216 C215 1.264 . S
O217 Mg210 1.986 . S
O217 C221 1.246 . S
O218 Mg213 2.032 . S
O218 C221 1.259 . S
O219 Mg210 2.114 . S
O219 C222 1.252 . S
O220 Mg210 2.251 . S
O220 Mg213 2.079 . S
O220 C222 1.273 . S
C221 O217 1.246 . S
C221 O218 1.259 . S
C222 O219 1.252 . S
C222 O220 1.273 . S
O223 Mg210 2.010 . S
O223 C215 1.249 . S
Mg224 O225 2.028 . S
Mg224 O231 1.986 1_545 S
Mg224 O233 2.114 . S
Mg224 O234 2.251 . S
Mg224 O237 2.010 . S
O225 Mg224 2.028 . S
O225 C228 1.250 . S
O226 Mg227 2.028 . S
O226 C228 1.248 . S
Mg227 O226 2.028 . S
Mg227 O232 2.032 1_545 S
Mg227 O234 2.079 . S
C228 O225 1.250 . S
C228 O226 1.248 . S
C229 O230 1.264 . S
C229 O237 1.249 . S
O230 C229 1.264 . S
O231 Mg224 1.986 1_565 S
O231 C235 1.246 . S
O232 Mg227 2.032 1_565 S
O232 C235 1.259 . S
O233 Mg224 2.114 . S
O233 C236 1.252 . S
O234 Mg224 2.251 . S
O234 Mg227 2.079 . S
O234 C236 1.273 . S
C235 O231 1.246 . S
C235 O232 1.259 . S
C236 O233 1.252 . S
C236 O234 1.273 . S
O237 Mg224 2.010 . S
O237 C229 1.249 . S
Mg238 O239 2.028 . S
Mg238 O245 1.986 . S
Mg238 O247 2.114 . S
Mg238 O248 2.251 . S
Mg238 O251 2.010 1_655 S
O239 Mg238 2.028 . S
O239 C242 1.250 . S
O240 Mg241 2.028 . S
O240 C242 1.248 . S
Mg241 O240 2.028 . S
Mg241 O246 2.032 . S
Mg241 O248 2.079 . S
C242 O239 1.250 . S
C242 O240 1.248 . S
C243 O244 1.264 . S
C243 O251 1.249 . S
O244 C243 1.264 . S
O245 Mg238 1.986 . S
O245 C249 1.246 . S
O246 Mg241 2.032 . S
O246 C249 1.259 . S
O247 Mg238 2.114 . S
O247 C250 1.252 . S
O248 Mg238 2.251 . S
O248 Mg241 2.079 . S
O248 C250 1.273 . S
C249 O245 1.246 . S
C249 O246 1.259 . S
C250 O247 1.252 . S
C250 O248 1.273 . S
O251 Mg238 2.010 1_455 S
O251 C243 1.249 . S
C252 C253 1.384 . S
C252 C254 1.384 . S
C252 H280 0.931 . S
C253 C252 1.384 . S
C253 C256 1.382 . S
C254 C252 1.384 . S
C254 C255 1.381 . S
C254 H281 0.930 . S
C255 C254 1.381 . S
C255 C257 1.381 . S
C255 C258 1.487 . S
C256 C253 1.382 . S
C256 C257 1.387 . S
C256 H282 0.930 . S
C257 C255 1.381 . S
C257 C256 1.387 . S
C257 H283 0.931 . S
C258 C255 1.487 . S
C258 C265 1.399 . S
C258 N296 1.343 . S
C259 C260 1.384 . S
C259 C261 1.384 . S
C259 H284 0.931 . S
C260 C259 1.384 . S
C260 C263 1.382 . S
C261 C259 1.384 . S
C261 C262 1.381 . S
C261 H285 0.930 . S
C262 C261 1.381 . S
C262 C264 1.381 . S
C262 C265 1.487 . S
C263 C260 1.382 . S
C263 C264 1.387 . S
C263 H286 0.930 . S
C264 C262 1.381 . S
C264 C263 1.387 . S
C264 H287 0.931 . S
C265 C258 1.399 . S
C265 C262 1.487 . S
C265 N297 1.343 . S
C266 C267 1.384 . S
C266 C268 1.384 . S
C266 H288 0.931 . S
C267 C266 1.384 . S
C267 C270 1.382 . S
C268 C266 1.384 . S
C268 C269 1.381 . S
C268 H289 0.930 . S
C269 C268 1.381 . S
C269 C271 1.381 . S
C269 C272 1.487 . S
C270 C267 1.382 . S
C270 C271 1.387 . S
C270 H290 0.930 . S
C271 C269 1.381 . S
C271 C270 1.387 . S
C271 H291 0.931 . S
C272 C269 1.487 . S
C272 C279 1.399 . S
C272 N297 1.343 . S
C273 C274 1.384 . S
C273 C275 1.384 . S
C273 H292 0.931 . S
C274 C273 1.384 . S
C274 C277 1.382 . S
C275 C273 1.384 . S
C275 C276 1.381 . S
C275 H293 0.930 . S
C276 C275 1.381 . S
C276 C278 1.381 . S
C276 C279 1.487 . S
C277 C274 1.382 . S
C277 C278 1.387 . S
C277 H294 0.930 . S
C278 C276 1.381 . S
C278 C277 1.387 . S
C278 H295 0.931 . S
C279 C272 1.399 . S
C279 C276 1.487 . S
C279 N296 1.343 . S
H280 C252 0.931 . S
H281 C254 0.930 . S
H282 C256 0.930 . S
H283 C257 0.931 . S
H284 C259 0.931 . S
H285 C261 0.930 . S
H286 C263 0.930 . S
H287 C264 0.931 . S
H288 C266 0.931 . S
H289 C268 0.930 . S
H290 C270 0.930 . S
H291 C271 0.931 . S
H292 C273 0.931 . S
H293 C275 0.930 . S
H294 C277 0.930 . S
H295 C278 0.931 . S
N296 C258 1.343 . S
N296 C279 1.343 . S
N297 C265 1.343 . S
N297 C272 1.343 . S
C298 C299 1.384 . S
C298 C300 1.384 . S
C298 H326 0.931 . S
C299 C298 1.384 . S
C299 C302 1.382 . S
C300 C298 1.384 . S
C300 C301 1.381 . S
C300 H327 0.930 . S
C301 C300 1.381 . S
C301 C303 1.381 . S
C301 C304 1.487 . S
C302 C299 1.382 . S
C302 C303 1.387 . S
C302 H328 0.930 . S
C303 C301 1.381 . S
C303 C302 1.387 . S
C303 H329 0.931 . S
C304 C301 1.487 . S
C304 C311 1.399 . S
C304 N342 1.343 . S
C305 C306 1.384 . S
C305 C307 1.384 . S
C305 H330 0.931 . S
C306 C305 1.384 . S
C306 C309 1.382 . S
C307 C305 1.384 . S
C307 C308 1.381 . S
C307 H331 0.930 . S
C308 C307 1.381 . S
C308 C310 1.381 . S
C308 C311 1.487 . S
C309 C306 1.382 . S
C309 C310 1.387 . S
C309 H332 0.930 . S
C310 C308 1.381 . S
C310 C309 1.387 . S
C310 H333 0.931 . S
C311 C304 1.399 . S
C311 C308 1.487 . S
C311 N343 1.343 . S
C312 C313 1.384 . S
C312 C314 1.384 . S
C312 H334 0.931 . S
C313 C312 1.384 . S
C313 C316 1.382 . S
C314 C312 1.384 . S
C314 C315 1.381 . S
C314 H335 0.930 . S
C315 C314 1.381 . S
C315 C317 1.381 . S
C315 C318 1.487 . S
C316 C313 1.382 . S
C316 C317 1.387 . S
C316 H336 0.930 . S
C317 C315 1.381 . S
C317 C316 1.387 . S
C317 H337 0.931 . S
C318 C315 1.487 . S
C318 C325 1.399 . S
C318 N343 1.343 . S
C319 C320 1.384 . S
C319 C321 1.384 . S
C319 H338 0.931 . S
C320 C319 1.384 . S
C320 C323 1.382 . S
C321 C319 1.384 . S
C321 C322 1.381 . S
C321 H339 0.930 . S
C322 C321 1.381 . S
C322 C324 1.381 . S
C322 C325 1.487 . S
C323 C320 1.382 . S
C323 C324 1.387 . S
C323 H340 0.930 . S
C324 C322 1.381 . S
C324 C323 1.387 . S
C324 H341 0.931 . S
C325 C318 1.399 . S
C325 C322 1.487 . S
C325 N342 1.343 . S
H326 C298 0.931 . S
H327 C300 0.930 . S
H328 C302 0.930 . S
H329 C303 0.931 . S
H330 C305 0.931 . S
H331 C307 0.930 . S
H332 C309 0.930 . S
H333 C310 0.931 . S
H334 C312 0.931 . S
H335 C314 0.930 . S
H336 C316 0.930 . S
H337 C317 0.931 . S
H338 C319 0.931 . S
H339 C321 0.930 . S
H340 C323 0.930 . S
H341 C324 0.931 . S
N342 C304 1.343 . S
N342 C325 1.343 . S
N343 C311 1.343 . S
N343 C318 1.343 . S
C344 C345 1.384 . S
C344 C346 1.384 . S
C344 H372 0.931 . S
C345 C344 1.384 . S
C345 C348 1.382 . S
C346 C344 1.384 . S
C346 C347 1.381 . S
C346 H373 0.930 . S
C347 C346 1.381 . S
C347 C349 1.381 . S
C347 C350 1.487 . S
C348 C345 1.382 . S
C348 C349 1.387 . S
C348 H374 0.930 . S
C349 C347 1.381 . S
C349 C348 1.387 . S
C349 H375 0.931 . S
C350 C347 1.487 . S
C350 C357 1.399 . S
C350 N388 1.343 . S
C351 C352 1.384 . S
C351 C353 1.384 . S
C351 H376 0.931 . S
C352 C351 1.384 . S
C352 C355 1.382 . S
C353 C351 1.384 . S
C353 C354 1.381 . S
C353 H377 0.930 . S
C354 C353 1.381 . S
C354 C356 1.381 . S
C354 C357 1.487 . S
C355 C352 1.382 . S
C355 C356 1.387 . S
C355 H378 0.930 . S
C356 C354 1.381 . S
C356 C355 1.387 . S
C356 H379 0.931 . S
C357 C350 1.399 . S
C357 C354 1.487 . S
C357 N389 1.343 . S
C358 C359 1.384 . S
C358 C360 1.384 . S
C358 H380 0.931 . S
C359 C358 1.384 . S
C359 C362 1.382 . S
C360 C358 1.384 . S
C360 C361 1.381 . S
C360 H381 0.930 . S
C361 C360 1.381 . S
C361 C363 1.381 . S
C361 C364 1.487 . S
C362 C359 1.382 . S
C362 C363 1.387 . S
C362 H382 0.930 . S
C363 C361 1.381 . S
C363 C362 1.387 . S
C363 H383 0.931 . S
C364 C361 1.487 . S
C364 C371 1.399 . S
C364 N389 1.343 . S
C365 C366 1.384 . S
C365 C367 1.384 . S
C365 H384 0.931 . S
C366 C365 1.384 . S
C366 C369 1.382 . S
C367 C365 1.384 . S
C367 C368 1.381 . S
C367 H385 0.930 . S
C368 C367 1.381 . S
C368 C370 1.381 . S
C368 C371 1.487 . S
C369 C366 1.382 . S
C369 C370 1.387 . S
C369 H386 0.930 . S
C370 C368 1.381 . S
C370 C369 1.387 . S
C370 H387 0.931 . S
C371 C364 1.399 . S
C371 C368 1.487 . S
C371 N388 1.343 . S
H372 C344 0.931 . S
H373 C346 0.930 . S
H374 C348 0.930 . S
H375 C349 0.931 . S
H376 C351 0.931 . S
H377 C353 0.930 . S
H378 C355 0.930 . S
H379 C356 0.931 . S
H380 C358 0.931 . S
H381 C360 0.930 . S
H382 C362 0.930 . S
H383 C363 0.931 . S
H384 C365 0.931 . S
H385 C367 0.930 . S
H386 C369 0.930 . S
H387 C370 0.931 . S
N388 C350 1.343 . S
N388 C371 1.343 . S
N389 C357 1.343 . S
N389 C364 1.343 . S
C390 C391 1.384 . S
C390 C392 1.384 . S
C390 H418 0.931 . S
C391 C390 1.384 . S
C391 C394 1.382 . S
C392 C390 1.384 . S
C392 C393 1.381 . S
C392 H419 0.930 . S
C393 C392 1.381 . S
C393 C395 1.381 . S
C393 C396 1.487 . S
C394 C391 1.382 . S
C394 C395 1.387 . S
C394 H420 0.930 . S
C395 C393 1.381 . S
C395 C394 1.387 . S
C395 H421 0.931 . S
C396 C393 1.487 . S
C396 C403 1.399 . S
C396 N434 1.343 . S
C397 C398 1.384 . S
C397 C399 1.384 . S
C397 H422 0.931 . S
C398 C397 1.384 . S
C398 C401 1.382 . S
C399 C397 1.384 . S
C399 C400 1.381 . S
C399 H423 0.930 . S
C400 C399 1.381 . S
C400 C402 1.381 . S
C400 C403 1.487 . S
C401 C398 1.382 . S
C401 C402 1.387 . S
C401 H424 0.930 . S
C402 C400 1.381 . S
C402 C401 1.387 . S
C402 H425 0.931 . S
C403 C396 1.399 . S
C403 C400 1.487 . S
C403 N435 1.343 . S
C404 C405 1.384 . S
C404 C406 1.384 . S
C404 H426 0.931 . S
C405 C404 1.384 . S
C405 C408 1.382 . S
C406 C404 1.384 . S
C406 C407 1.381 . S
C406 H427 0.930 . S
C407 C406 1.381 . S
C407 C409 1.381 . S
C407 C410 1.487 . S
C408 C405 1.382 . S
C408 C409 1.387 . S
C408 H428 0.930 . S
C409 C407 1.381 . S
C409 C408 1.387 . S
C409 H429 0.931 . S
C410 C407 1.487 . S
C410 C417 1.399 . S
C410 N435 1.343 . S
C411 C412 1.384 . S
C411 C413 1.384 . S
C411 H430 0.931 . S
C412 C411 1.384 . S
C412 C415 1.382 . S
C413 C411 1.384 . S
C413 C414 1.381 . S
C413 H431 0.930 . S
C414 C413 1.381 . S
C414 C416 1.381 . S
C414 C417 1.487 . S
C415 C412 1.382 . S
C415 C416 1.387 . S
C415 H432 0.930 . S
C416 C414 1.381 . S
C416 C415 1.387 . S
C416 H433 0.931 . S
C417 C410 1.399 . S
C417 C414 1.487 . S
C417 N434 1.343 . S
H418 C390 0.931 . S
H419 C392 0.930 . S
H420 C394 0.930 . S
H421 C395 0.931 . S
H422 C397 0.931 . S
H423 C399 0.930 . S
H424 C401 0.930 . S
H425 C402 0.931 . S
H426 C404 0.931 . S
H427 C406 0.930 . S
H428 C408 0.930 . S
H429 C409 0.931 . S
H430 C411 0.931 . S
H431 C413 0.930 . S
H432 C415 0.930 . S
H433 C416 0.931 . S
N434 C396 1.343 . S
N434 C417 1.343 . S
N435 C403 1.343 . S
N435 C410 1.343 . S
C436 C437 1.384 . S
C436 C438 1.384 . S
C436 H464 0.931 . S
C437 C436 1.384 . S
C437 C440 1.382 . S
C438 C436 1.384 . S
C438 C439 1.381 . S
C438 H465 0.930 . S
C439 C438 1.381 . S
C439 C441 1.381 . S
C439 C442 1.487 . S
C440 C437 1.382 . S
C440 C441 1.387 . S
C440 H466 0.930 . S
C441 C439 1.381 . S
C441 C440 1.387 . S
C441 H467 0.931 . S
C442 C439 1.487 . S
C442 C449 1.399 . S
C442 N480 1.343 . S
C443 C444 1.384 . S
C443 C445 1.384 . S
C443 H468 0.931 . S
C444 C443 1.384 . S
C444 C447 1.382 . S
C445 C443 1.384 . S
C445 C446 1.381 . S
C445 H469 0.930 . S
C446 C445 1.381 . S
C446 C448 1.381 . S
C446 C449 1.487 . S
C447 C444 1.382 . S
C447 C448 1.387 . S
C447 H470 0.930 . S
C448 C446 1.381 . S
C448 C447 1.387 . S
C448 H471 0.931 . S
C449 C442 1.399 . S
C449 C446 1.487 . S
C449 N481 1.343 . S
C450 C451 1.384 . S
C450 C452 1.384 . S
C450 H472 0.931 . S
C451 C450 1.384 . S
C451 C454 1.382 . S
C452 C450 1.384 . S
C452 C453 1.381 . S
C452 H473 0.930 . S
C453 C452 1.381 . S
C453 C455 1.381 . S
C453 C456 1.487 . S
C454 C451 1.382 . S
C454 C455 1.387 . S
C454 H474 0.930 . S
C455 C453 1.381 . S
C455 C454 1.387 . S
C455 H475 0.931 . S
C456 C453 1.487 . S
C456 C463 1.399 . S
C456 N481 1.343 . S
C457 C458 1.384 . S
C457 C459 1.384 . S
C457 H476 0.931 . S
C458 C457 1.384 . S
C458 C461 1.382 . S
C459 C457 1.384 . S
C459 C460 1.381 . S
C459 H477 0.930 . S
C460 C459 1.381 . S
C460 C462 1.381 . S
C460 C463 1.487 . S
C461 C458 1.382 . S
C461 C462 1.387 . S
C461 H478 0.930 . S
C462 C460 1.381 . S
C462 C461 1.387 . S
C462 H479 0.931 . S
C463 C456 1.399 . S
C463 C460 1.487 . S
C463 N480 1.343 . S
H464 C436 0.931 . S
H465 C438 0.930 . S
H466 C440 0.930 . S
H467 C441 0.931 . S
H468 C443 0.931 . S
H469 C445 0.930 . S
H470 C447 0.930 . S
H471 C448 0.931 . S
H472 C450 0.931 . S
H473 C452 0.930 . S
H474 C454 0.930 . S
H475 C455 0.931 . S
H476 C457 0.931 . S
H477 C459 0.930 . S
H478 C461 0.930 . S
H479 C462 0.931 . S
N480 C442 1.343 . S
N480 C463 1.343 . S
N481 C449 1.343 . S
N481 C456 1.343 . S
C482 C483 1.384 . S
C482 C484 1.384 . S
C482 H510 0.931 . S
C483 C482 1.384 . S
C483 C486 1.382 . S
C484 C482 1.384 . S
C484 C485 1.381 . S
C484 H511 0.930 . S
C485 C484 1.381 . S
C485 C487 1.381 . S
C485 C488 1.487 . S
C486 C483 1.382 . S
C486 C487 1.387 . S
C486 H512 0.930 . S
C487 C485 1.381 . S
C487 C486 1.387 . S
C487 H513 0.931 . S
C488 C485 1.487 . S
C488 C495 1.399 . S
C488 N526 1.343 . S
C489 C490 1.384 . S
C489 C491 1.384 . S
C489 H514 0.931 . S
C490 C489 1.384 . S
C490 C493 1.382 . S
C491 C489 1.384 . S
C491 C492 1.381 . S
C491 H515 0.930 . S
C492 C491 1.381 . S
C492 C494 1.381 . S
C492 C495 1.487 . S
C493 C490 1.382 . S
C493 C494 1.387 . S
C493 H516 0.930 . S
C494 C492 1.381 . S
C494 C493 1.387 . S
C494 H517 0.931 . S
C495 C488 1.399 . S
C495 C492 1.487 . S
C495 N527 1.343 . S
C496 C497 1.384 . S
C496 C498 1.384 . S
C496 H518 0.931 . S
C497 C496 1.384 . S
C497 C500 1.382 . S
C498 C496 1.384 . S
C498 C499 1.381 . S
C498 H519 0.930 . S
C499 C498 1.381 . S
C499 C501 1.381 . S
C499 C502 1.487 . S
C500 C497 1.382 . S
C500 C501 1.387 . S
C500 H520 0.930 . S
C501 C499 1.381 . S
C501 C500 1.387 . S
C501 H521 0.931 . S
C502 C499 1.487 . S
C502 C509 1.399 . S
C502 N527 1.343 . S
C503 C504 1.384 . S
C503 C505 1.384 . S
C503 H522 0.931 . S
C504 C503 1.384 . S
C504 C507 1.382 . S
C505 C503 1.384 . S
C505 C506 1.381 . S
C505 H523 0.930 . S
C506 C505 1.381 . S
C506 C508 1.381 . S
C506 C509 1.487 . S
C507 C504 1.382 . S
C507 C508 1.387 . S
C507 H524 0.930 . S
C508 C506 1.381 . S
C508 C507 1.387 . S
C508 H525 0.931 . S
C509 C502 1.399 . S
C509 C506 1.487 . S
C509 N526 1.343 . S
H510 C482 0.931 . S
H511 C484 0.930 . S
H512 C486 0.930 . S
H513 C487 0.931 . S
H514 C489 0.931 . S
H515 C491 0.930 . S
H516 C493 0.930 . S
H517 C494 0.931 . S
H518 C496 0.931 . S
H519 C498 0.930 . S
H520 C500 0.930 . S
H521 C501 0.931 . S
H522 C503 0.931 . S
H523 C505 0.930 . S
H524 C507 0.930 . S
H525 C508 0.931 . S
N526 C488 1.343 . S
N526 C509 1.343 . S
N527 C495 1.343 . S
N527 C502 1.343 . S
C528 C529 1.384 . S
C528 C530 1.384 . S
C528 H556 0.931 . S
C529 C528 1.384 . S
C529 C532 1.382 . S
C530 C528 1.384 . S
C530 C531 1.381 . S
C530 H557 0.930 . S
C531 C530 1.381 . S
C531 C533 1.381 . S
C531 C534 1.487 . S
C532 C529 1.382 . S
C532 C533 1.387 . S
C532 H558 0.930 . S
C533 C531 1.381 . S
C533 C532 1.387 . S
C533 H559 0.931 . S
C534 C531 1.487 . S
C534 C541 1.399 . S
C534 N572 1.343 . S
C535 C536 1.384 . S
C535 C537 1.384 . S
C535 H560 0.931 . S
C536 C535 1.384 . S
C536 C539 1.382 . S
C537 C535 1.384 . S
C537 C538 1.381 . S
C537 H561 0.930 . S
C538 C537 1.381 . S
C538 C540 1.381 . S
C538 C541 1.487 . S
C539 C536 1.382 . S
C539 C540 1.387 . S
C539 H562 0.930 . S
C540 C538 1.381 . S
C540 C539 1.387 . S
C540 H563 0.931 . S
C541 C534 1.399 . S
C541 C538 1.487 . S
C541 N573 1.343 . S
C542 C543 1.384 . S
C542 C544 1.384 . S
C542 H564 0.931 . S
C543 C542 1.384 . S
C543 C546 1.382 . S
C544 C542 1.384 . S
C544 C545 1.381 . S
C544 H565 0.930 . S
C545 C544 1.381 . S
C545 C547 1.381 . S
C545 C548 1.487 . S
C546 C543 1.382 . S
C546 C547 1.387 . S
C546 H566 0.930 . S
C547 C545 1.381 . S
C547 C546 1.387 . S
C547 H567 0.931 . S
C548 C545 1.487 . S
C548 C555 1.399 . S
C548 N573 1.343 . S
C549 C550 1.384 . S
C549 C551 1.384 . S
C549 H568 0.931 . S
C550 C549 1.384 . S
C550 C553 1.382 . S
C551 C549 1.384 . S
C551 C552 1.381 . S
C551 H569 0.930 . S
C552 C551 1.381 . S
C552 C554 1.381 . S
C552 C555 1.487 . S
C553 C550 1.382 . S
C553 C554 1.387 . S
C553 H570 0.930 . S
C554 C552 1.381 . S
C554 C553 1.387 . S
C554 H571 0.931 . S
C555 C548 1.399 . S
C555 C552 1.487 . S
C555 N572 1.343 . S
H556 C528 0.931 . S
H557 C530 0.930 . S
H558 C532 0.930 . S
H559 C533 0.931 . S
H560 C535 0.931 . S
H561 C537 0.930 . S
H562 C539 0.930 . S
H563 C540 0.931 . S
H564 C542 0.931 . S
H565 C544 0.930 . S
H566 C546 0.930 . S
H567 C547 0.931 . S
H568 C549 0.931 . S
H569 C551 0.930 . S
H570 C553 0.930 . S
H571 C554 0.931 . S
N572 C534 1.343 . S
N572 C555 1.343 . S
N573 C541 1.343 . S
N573 C548 1.343 . S
C574 C575 1.384 . S
C574 C576 1.384 . S
C574 H602 0.931 . S
C575 C574 1.384 . S
C575 C578 1.382 . S
C576 C574 1.384 . S
C576 C577 1.381 . S
C576 H603 0.930 . S
C577 C576 1.381 . S
C577 C579 1.381 . S
C577 C580 1.487 . S
C578 C575 1.382 . S
C578 C579 1.387 . S
C578 H604 0.930 . S
C579 C577 1.381 . S
C579 C578 1.387 . S
C579 H605 0.931 . S
C580 C577 1.487 . S
C580 C587 1.399 . S
C580 N618 1.343 . S
C581 C582 1.384 . S
C581 C583 1.384 . S
C581 H606 0.931 . S
C582 C581 1.384 . S
C582 C585 1.382 . S
C583 C581 1.384 . S
C583 C584 1.381 . S
C583 H607 0.930 . S
C584 C583 1.381 . S
C584 C586 1.381 . S
C584 C587 1.487 . S
C585 C582 1.382 . S
C585 C586 1.387 . S
C585 H608 0.930 . S
C586 C584 1.381 . S
C586 C585 1.387 . S
C586 H609 0.931 . S
C587 C580 1.399 . S
C587 C584 1.487 . S
C587 N619 1.343 . S
C588 C589 1.384 . S
C588 C590 1.384 . S
C588 H610 0.931 . S
C589 C588 1.384 . S
C589 C592 1.382 . S
C590 C588 1.384 . S
C590 C591 1.381 . S
C590 H611 0.930 . S
C591 C590 1.381 . S
C591 C593 1.381 . S
C591 C594 1.487 . S
C592 C589 1.382 . S
C592 C593 1.387 . S
C592 H612 0.930 . S
C593 C591 1.381 . S
C593 C592 1.387 . S
C593 H613 0.931 . S
C594 C591 1.487 . S
C594 C601 1.399 . S
C594 N619 1.343 . S
C595 C596 1.384 . S
C595 C597 1.384 . S
C595 H614 0.931 . S
C596 C595 1.384 . S
C596 C599 1.382 . S
C597 C595 1.384 . S
C597 C598 1.381 . S
C597 H615 0.930 . S
C598 C597 1.381 . S
C598 C600 1.381 . S
C598 C601 1.487 . S
C599 C596 1.382 . S
C599 C600 1.387 . S
C599 H616 0.930 . S
C600 C598 1.381 . S
C600 C599 1.387 . S
C600 H617 0.931 . S
C601 C594 1.399 . S
C601 C598 1.487 . S
C601 N618 1.343 . S
H602 C574 0.931 . S
H603 C576 0.930 . S
H604 C578 0.930 . S
H605 C579 0.931 . S
H606 C581 0.931 . S
H607 C583 0.930 . S
H608 C585 0.930 . S
H609 C586 0.931 . S
H610 C588 0.931 . S
H611 C590 0.930 . S
H612 C592 0.930 . S
H613 C593 0.931 . S
H614 C595 0.931 . S
H615 C597 0.930 . S
H616 C599 0.930 . S
H617 C600 0.931 . S
N618 C580 1.343 . S
N618 C601 1.343 . S
N619 C587 1.343 . S
N619 C594 1.343 . S
C620 C621 1.384 . S
C620 C622 1.384 . S
C620 H648 0.931 . S
C621 C620 1.384 . S
C621 C624 1.382 . S
C622 C620 1.384 . S
C622 C623 1.381 . S
C622 H649 0.930 . S
C623 C622 1.381 . S
C623 C625 1.381 . S
C623 C626 1.487 . S
C624 C621 1.382 . S
C624 C625 1.387 . S
C624 H650 0.930 . S
C625 C623 1.381 . S
C625 C624 1.387 . S
C625 H651 0.931 . S
C626 C623 1.487 . S
C626 C633 1.399 . S
C626 N664 1.343 . S
C627 C628 1.384 . S
C627 C629 1.384 . S
C627 H652 0.931 . S
C628 C627 1.384 . S
C628 C631 1.382 . S
C629 C627 1.384 . S
C629 C630 1.381 . S
C629 H653 0.930 . S
C630 C629 1.381 . S
C630 C632 1.381 . S
C630 C633 1.487 . S
C631 C628 1.382 . S
C631 C632 1.387 . S
C631 H654 0.930 . S
C632 C630 1.381 . S
C632 C631 1.387 . S
C632 H655 0.931 . S
C633 C626 1.399 . S
C633 C630 1.487 . S
C633 N665 1.343 . S
C634 C635 1.384 . S
C634 C636 1.384 . S
C634 H656 0.931 . S
C635 C634 1.384 . S
C635 C638 1.382 . S
C636 C634 1.384 . S
C636 C637 1.381 . S
C636 H657 0.930 . S
C637 C636 1.381 . S
C637 C639 1.381 . S
C637 C640 1.487 . S
C638 C635 1.382 . S
C638 C639 1.387 . S
C638 H658 0.930 . S
C639 C637 1.381 . S
C639 C638 1.387 . S
C639 H659 0.931 . S
C640 C637 1.487 . S
C640 C647 1.399 . S
C640 N665 1.343 . S
C641 C642 1.384 . S
C641 C643 1.384 . S
C641 H660 0.931 . S
C642 C641 1.384 . S
C642 C645 1.382 . S
C643 C641 1.384 . S
C643 C644 1.381 . S
C643 H661 0.930 . S
C644 C643 1.381 . S
C644 C646 1.381 . S
C644 C647 1.487 . S
C645 C642 1.382 . S
C645 C646 1.387 . S
C645 H662 0.930 . S
C646 C644 1.381 . S
C646 C645 1.387 . S
C646 H663 0.931 . S
C647 C640 1.399 . S
C647 C644 1.487 . S
C647 N664 1.343 . S
H648 C620 0.931 . S
H649 C622 0.930 . S
H650 C624 0.930 . S
H651 C625 0.931 . S
H652 C627 0.931 . S
H653 C629 0.930 . S
H654 C631 0.930 . S
H655 C632 0.931 . S
H656 C634 0.931 . S
H657 C636 0.930 . S
H658 C638 0.930 . S
H659 C639 0.931 . S
H660 C641 0.931 . S
H661 C643 0.930 . S
H662 C645 0.930 . S
H663 C646 0.931 . S
N664 C626 1.343 . S
N664 C647 1.343 . S
N665 C633 1.343 . S
N665 C640 1.343 . S
C666 C667 1.384 . S
C666 C668 1.384 . S
C666 H694 0.931 . S
C667 C666 1.384 . S
C667 C670 1.382 1_655 S
C668 C666 1.384 . S
C668 C669 1.394 . S
C668 H695 0.930 . S
C669 C668 1.394 . S
C669 C671 1.375 1_655 S
C669 C672 1.476 1_655 S
C670 C667 1.382 1_455 S
C670 C671 1.387 . S
C670 H696 0.930 . S
C671 C669 1.375 1_455 S
C671 C670 1.387 . S
C671 H697 0.931 . S
C672 C669 1.476 1_455 S
C672 C679 1.398 1_455 S
C672 N710 1.350 . S
C673 C674 1.384 . S
C673 C675 1.384 . S
C673 H698 0.931 . S
C674 C673 1.384 . S
C674 C677 1.382 1_455 S
C675 C673 1.384 . S
C675 C676 1.380 . S
C675 H699 0.930 . S
C676 C675 1.380 . S
C676 C678 1.385 1_455 S
C676 C679 1.490 1_455 S
C677 C674 1.382 1_655 S
C677 C678 1.387 . S
C677 H700 0.930 . S
C678 C676 1.385 1_655 S
C678 C677 1.387 . S
C678 H701 0.931 . S
C679 C672 1.398 1_655 S
C679 C676 1.490 1_655 S
C679 N711 1.363 . S
C680 C681 1.384 . S
C680 C682 1.384 . S
C680 H702 0.931 . S
C681 C680 1.384 . S
C681 C684 1.382 1_455 S
C682 C680 1.384 . S
C682 C683 1.409 . S
C682 H703 0.930 . S
C683 C682 1.409 . S
C683 C685 1.367 1_455 S
C683 C686 1.476 1_455 S
C684 C681 1.382 1_655 S
C684 C685 1.387 . S
C684 H704 0.930 . S
C685 C683 1.367 1_655 S
C685 C684 1.387 . S
C685 H705 0.931 . S
C686 C683 1.476 1_655 S
C686 C693 1.398 1_655 S
C686 N711 1.313 . S
C687 C688 1.384 . S
C687 C689 1.384 . S
C687 H706 0.931 . S
C688 C687 1.384 . S
C688 C691 1.382 1_655 S
C689 C687 1.384 . S
C689 C690 1.380 1_655 S
C689 H707 0.930 . S
C690 C689 1.380 1_455 S
C690 C692 1.385 . S
C690 C693 1.497 . S
C691 C688 1.382 1_455 S
C691 C692 1.387 . S
C691 H708 0.930 . S
C692 C690 1.385 . S
C692 C691 1.387 . S
C692 H709 0.931 . S
C693 C686 1.398 1_455 S
C693 C690 1.497 . S
C693 N710 1.331 . S
H694 C666 0.931 . S
H695 C668 0.930 . S
H696 C670 0.930 . S
H697 C671 0.931 . S
H698 C673 0.931 . S
H699 C675 0.930 . S
H700 C677 0.930 . S
H701 C678 0.931 . S
H702 C680 0.931 . S
H703 C682 0.930 . S
H704 C684 0.930 . S
H705 C685 0.931 . S
H706 C687 0.931 . S
H707 C689 0.930 . S
H708 C691 0.930 . S
H709 C692 0.931 . S
N710 C672 1.350 . S
N710 C693 1.331 . S
N711 C679 1.363 . S
N711 C686 1.313 . S
C712 C713 1.384 . S
C712 C714 1.384 . S
C712 H740 0.931 . S
C713 C712 1.384 . S
C713 C716 1.382 . S
C714 C712 1.384 . S
C714 C715 1.381 . S
C714 H741 0.930 . S
C715 C714 1.381 . S
C715 C717 1.381 . S
C715 C718 1.487 . S
C716 C713 1.382 . S
C716 C717 1.387 . S
C716 H742 0.930 . S
C717 C715 1.381 . S
C717 C716 1.387 . S
C717 H743 0.931 . S
C718 C715 1.487 . S
C718 C725 1.399 . S
C718 N756 1.343 . S
C719 C720 1.384 . S
C719 C721 1.384 . S
C719 H744 0.931 . S
C720 C719 1.384 . S
C720 C723 1.382 . S
C721 C719 1.384 . S
C721 C722 1.381 . S
C721 H745 0.930 . S
C722 C721 1.381 . S
C722 C724 1.381 . S
C722 C725 1.487 . S
C723 C720 1.382 . S
C723 C724 1.387 . S
C723 H746 0.930 . S
C724 C722 1.381 . S
C724 C723 1.387 . S
C724 H747 0.931 . S
C725 C718 1.399 . S
C725 C722 1.487 . S
C725 N757 1.343 . S
C726 C727 1.384 . S
C726 C728 1.384 . S
C726 H748 0.931 . S
C727 C726 1.384 . S
C727 C730 1.382 . S
C728 C726 1.384 . S
C728 C729 1.381 . S
C728 H749 0.930 . S
C729 C728 1.381 . S
C729 C731 1.381 . S
C729 C732 1.487 . S
C730 C727 1.382 . S
C730 C731 1.387 . S
C730 H750 0.930 . S
C731 C729 1.381 . S
C731 C730 1.387 . S
C731 H751 0.931 . S
C732 C729 1.487 . S
C732 C739 1.399 . S
C732 N757 1.343 . S
C733 C734 1.384 . S
C733 C735 1.384 . S
C733 H752 0.931 . S
C734 C733 1.384 . S
C734 C737 1.382 . S
C735 C733 1.384 . S
C735 C736 1.381 . S
C735 H753 0.930 . S
C736 C735 1.381 . S
C736 C738 1.381 . S
C736 C739 1.487 . S
C737 C734 1.382 . S
C737 C738 1.387 . S
C737 H754 0.930 . S
C738 C736 1.381 . S
C738 C737 1.387 . S
C738 H755 0.931 . S
C739 C732 1.399 . S
C739 C736 1.487 . S
C739 N756 1.343 . S
H740 C712 0.931 . S
H741 C714 0.930 . S
H742 C716 0.930 . S
H743 C717 0.931 . S
H744 C719 0.931 . S
H745 C721 0.930 . S
H746 C723 0.930 . S
H747 C724 0.931 . S
H748 C726 0.931 . S
H749 C728 0.930 . S
H750 C730 0.930 . S
H751 C731 0.931 . S
H752 C733 0.931 . S
H753 C735 0.930 . S
H754 C737 0.930 . S
H755 C738 0.931 . S
N756 C718 1.343 . S
N756 C739 1.343 . S
N757 C725 1.343 . S
N757 C732 1.343 . S
C758 C759 1.384 1_545 S
C758 C760 1.384 . S
C758 H786 0.931 . S
C759 C758 1.384 1_565 S
C759 C762 1.382 . S
C760 C758 1.384 . S
C760 C761 1.381 1_545 S
C760 H787 0.930 . S
C761 C760 1.381 1_565 S
C761 C763 1.381 . S
C761 C764 1.487 . S
C762 C759 1.382 . S
C762 C763 1.387 . S
C762 H788 0.930 . S
C763 C761 1.381 . S
C763 C762 1.387 . S
C763 H789 0.931 . S
C764 C761 1.487 . S
C764 C771 1.399 1_565 S
C764 N802 1.343 . S
C765 C766 1.384 1_565 S
C765 C767 1.384 . S
C765 H790 0.931 . S
C766 C765 1.384 1_545 S
C766 C769 1.382 . S
C767 C765 1.384 . S
C767 C768 1.381 1_565 S
C767 H791 0.930 . S
C768 C767 1.381 1_545 S
C768 C770 1.381 . S
C768 C771 1.487 . S
C769 C766 1.382 . S
C769 C770 1.387 . S
C769 H792 0.930 . S
C770 C768 1.381 . S
C770 C769 1.387 . S
C770 H793 0.931 . S
C771 C764 1.399 1_545 S
C771 C768 1.487 . S
C771 N803 1.343 . S
C772 C773 1.384 1_565 S
C772 C774 1.384 . S
C772 H794 0.931 . S
C773 C772 1.384 1_545 S
C773 C776 1.382 . S
C774 C772 1.384 . S
C774 C775 1.381 1_565 S
C774 H795 0.930 . S
C775 C774 1.381 1_545 S
C775 C777 1.381 . S
C775 C778 1.487 . S
C776 C773 1.382 . S
C776 C777 1.387 . S
C776 H796 0.930 . S
C777 C775 1.381 . S
C777 C776 1.387 . S
C777 H797 0.931 . S
C778 C775 1.487 . S
C778 C785 1.399 1_545 S
C778 N803 1.343 . S
C779 C780 1.384 1_545 S
C779 C781 1.384 . S
C779 H798 0.931 . S
C780 C779 1.384 1_565 S
C780 C783 1.382 . S
C781 C779 1.384 . S
C781 C782 1.381 1_545 S
C781 H799 0.930 . S
C782 C781 1.381 1_565 S
C782 C784 1.381 . S
C782 C785 1.487 . S
C783 C780 1.382 . S
C783 C784 1.387 . S
C783 H800 0.930 . S
C784 C782 1.381 . S
C784 C783 1.387 . S
C784 H801 0.931 . S
C785 C778 1.399 1_565 S
C785 C782 1.487 . S
C785 N802 1.343 . S
H786 C758 0.931 . S
H787 C760 0.930 . S
H788 C762 0.930 . S
H789 C763 0.931 . S
H790 C765 0.931 . S
H791 C767 0.930 . S
H792 C769 0.930 . S
H793 C770 0.931 . S
H794 C772 0.931 . S
H795 C774 0.930 . S
H796 C776 0.930 . S
H797 C777 0.931 . S
H798 C779 0.931 . S
H799 C781 0.930 . S
H800 C783 0.930 . S
H801 C784 0.931 . S
N802 C764 1.343 . S
N802 C785 1.343 . S
N803 C771 1.343 . S
N803 C778 1.343 . S
C804 C805 1.384 . S
C804 C806 1.384 . S
C804 H832 0.931 . S
C805 C804 1.384 . S
C805 C808 1.382 1_545 S
C806 C804 1.384 . S
C806 C807 1.385 . S
C806 H833 0.930 . S
C807 C806 1.385 . S
C807 C809 1.370 1_545 S
C807 C810 1.496 1_545 S
C808 C805 1.382 1_565 S
C808 C809 1.387 . S
C808 H834 0.930 . S
C809 C807 1.370 1_565 S
C809 C808 1.387 . S
C809 H835 0.931 . S
C810 C807 1.496 1_565 S
C810 C817 1.399 1_565 S
C810 N848 1.366 . S
C811 C812 1.384 . S
C811 C813 1.384 . S
C811 H836 0.931 . S
C812 C811 1.384 . S
C812 C815 1.382 1_565 S
C813 C811 1.384 . S
C813 C814 1.382 . S
C813 H837 0.930 . S
C814 C813 1.382 . S
C814 C816 1.381 1_565 S
C814 C817 1.478 1_565 S
C815 C812 1.382 1_545 S
C815 C816 1.387 . S
C815 H838 0.930 . S
C816 C814 1.381 1_545 S
C816 C815 1.387 . S
C816 H839 0.931 . S
C817 C810 1.399 1_545 S
C817 C814 1.478 1_545 S
C817 N849 1.352 . S
C818 C819 1.384 . S
C818 C820 1.384 . S
C818 H840 0.931 . S
C819 C818 1.384 . S
C819 C822 1.382 1_565 S
C820 C818 1.384 . S
C820 C821 1.382 . S
C820 H841 0.930 . S
C821 C820 1.382 . S
C821 C823 1.379 1_565 S
C821 C824 1.496 1_565 S
C822 C819 1.382 1_545 S
C822 C823 1.387 . S
C822 H842 0.930 . S
C823 C821 1.379 1_545 S
C823 C822 1.387 . S
C823 H843 0.931 . S
C824 C821 1.496 1_545 S
C824 C831 1.399 1_545 S
C824 N849 1.336 . S
C825 C826 1.384 . S
C825 C827 1.384 . S
C825 H844 0.931 . S
C826 C825 1.384 . S
C826 C829 1.382 1_545 S
C827 C825 1.384 . S
C827 C828 1.397 . S
C827 H845 0.930 . S
C828 C827 1.397 . S
C828 C830 1.373 1_545 S
C828 C831 1.478 1_545 S
C829 C826 1.382 1_565 S
C829 C830 1.387 . S
C829 H846 0.930 . S
C830 C828 1.373 1_565 S
C830 C829 1.387 . S
C830 H847 0.931 . S
C831 C824 1.399 1_565 S
C831 C828 1.478 1_565 S
C831 N848 1.320 . S
H832 C804 0.931 . S
H833 C806 0.930 . S
H834 C808 0.930 . S
H835 C809 0.931 . S
H836 C811 0.931 . S
H837 C813 0.930 . S
H838 C815 0.930 . S
H839 C816 0.931 . S
H840 C818 0.931 . S
H841 C820 0.930 . S
H842 C822 0.930 . S
H843 C823 0.931 . S
H844 C825 0.931 . S
H845 C827 0.930 . S
H846 C829 0.930 . S
H847 C830 0.931 . S
N848 C810 1.366 . S
N848 C831 1.320 . S
N849 C817 1.352 . S
N849 C824 1.336 . S
C850 C851 1.384 . S
C850 C852 1.384 . S
C850 H878 0.931 . S
C851 C850 1.384 . S
C851 C854 1.382 1_655 S
C852 C850 1.384 . S
C852 C853 1.425 . S
C852 H879 0.930 . S
C853 C852 1.425 . S
C853 C855 1.359 1_655 S
C853 C856 1.465 . S
C854 C851 1.382 1_455 S
C854 C855 1.387 . S
C854 H880 0.930 . S
C855 C853 1.359 1_455 S
C855 C854 1.387 . S
C855 H881 0.931 . S
C856 C853 1.465 . S
C856 C863 1.398 . S
C856 N894 1.324 1_655 S
C857 C858 1.384 . S
C857 C859 1.384 . S
C857 H882 0.931 . S
C858 C857 1.384 . S
C858 C861 1.382 1_455 S
C859 C857 1.384 . S
C859 C860 1.380 . S
C859 H883 0.930 . S
C860 C859 1.380 . S
C860 C862 1.384 1_455 S
C860 C863 1.494 1_455 S
C861 C858 1.382 1_655 S
C861 C862 1.387 . S
C861 H884 0.930 . S
C862 C860 1.384 1_655 S
C862 C861 1.387 . S
C862 H885 0.931 . S
C863 C856 1.398 . S
C863 C860 1.494 1_655 S
C863 N895 1.360 . S
C864 C865 1.384 . S
C864 C866 1.384 . S
C864 H886 0.931 . S
C865 C864 1.384 . S
C865 C868 1.382 1_455 S
C866 C864 1.384 . S
C866 C867 1.410 . S
C866 H887 0.930 . S
C867 C866 1.410 . S
C867 C869 1.366 1_455 S
C867 C870 1.472 1_455 S
C868 C865 1.382 1_655 S
C868 C869 1.387 . S
C868 H888 0.930 . S
C869 C867 1.366 1_655 S
C869 C868 1.387 . S
C869 H889 0.931 . S
C870 C867 1.472 1_655 S
C870 C877 1.399 1_655 S
C870 N895 1.317 . S
C871 C872 1.384 . S
C871 C873 1.384 . S
C871 H890 0.931 . S
C872 C871 1.384 . S
C872 C875 1.382 1_655 S
C873 C871 1.384 . S
C873 C874 1.383 . S
C873 H891 0.930 . S
C874 C873 1.383 . S
C874 C876 1.375 1_655 S
C874 C877 1.494 1_655 S
C875 C872 1.382 1_455 S
C875 C876 1.387 . S
C875 H892 0.930 . S
C876 C874 1.375 1_455 S
C876 C875 1.387 . S
C876 H893 0.931 . S
C877 C870 1.399 1_455 S
C877 C874 1.494 1_455 S
C877 N894 1.360 . S
H878 C850 0.931 . S
H879 C852 0.930 . S
H880 C854 0.930 . S
H881 C855 0.931 . S
H882 C857 0.931 . S
H883 C859 0.930 . S
H884 C861 0.930 . S
H885 C862 0.931 . S
H886 C864 0.931 . S
H887 C866 0.930 . S
H888 C868 0.930 . S
H889 C869 0.931 . S
H890 C871 0.931 . S
H891 C873 0.930 . S
H892 C875 0.930 . S
H893 C876 0.931 . S
N894 C856 1.324 1_455 S
N894 C877 1.360 . S
N895 C863 1.360 . S
N895 C870 1.317 . S
C896 C897 1.384 . S
C896 C898 1.384 . S
C896 H924 0.931 . S
C897 C896 1.384 . S
C897 C900 1.382 . S
C898 C896 1.384 . S
C898 C899 1.381 . S
C898 H925 0.930 . S
C899 C898 1.381 . S
C899 C901 1.381 . S
C899 C902 1.487 . S
C900 C897 1.382 . S
C900 C901 1.387 . S
C900 H926 0.930 . S
C901 C899 1.381 . S
C901 C900 1.387 . S
C901 H927 0.931 . S
C902 C899 1.487 . S
C902 C909 1.399 . S
C902 N940 1.343 . S
C903 C904 1.384 . S
C903 C905 1.384 . S
C903 H928 0.931 . S
C904 C903 1.384 . S
C904 C907 1.382 . S
C905 C903 1.384 . S
C905 C906 1.381 . S
C905 H929 0.930 . S
C906 C905 1.381 . S
C906 C908 1.381 . S
C906 C909 1.487 . S
C907 C904 1.382 . S
C907 C908 1.387 . S
C907 H930 0.930 . S
C908 C906 1.381 . S
C908 C907 1.387 . S
C908 H931 0.931 . S
C909 C902 1.399 . S
C909 C906 1.487 . S
C909 N941 1.343 . S
C910 C911 1.384 . S
C910 C912 1.384 . S
C910 H932 0.931 . S
C911 C910 1.384 . S
C911 C914 1.382 . S
C912 C910 1.384 . S
C912 C913 1.381 . S
C912 H933 0.930 . S
C913 C912 1.381 . S
C913 C915 1.381 . S
C913 C916 1.487 . S
C914 C911 1.382 . S
C914 C915 1.387 . S
C914 H934 0.930 . S
C915 C913 1.381 . S
C915 C914 1.387 . S
C915 H935 0.931 . S
C916 C913 1.487 . S
C916 C923 1.399 . S
C916 N941 1.343 . S
C917 C918 1.384 . S
C917 C919 1.384 . S
C917 H936 0.931 . S
C918 C917 1.384 . S
C918 C921 1.382 . S
C919 C917 1.384 . S
C919 C920 1.381 . S
C919 H937 0.930 . S
C920 C919 1.381 . S
C920 C922 1.381 . S
C920 C923 1.487 . S
C921 C918 1.382 . S
C921 C922 1.387 . S
C921 H938 0.930 . S
C922 C920 1.381 . S
C922 C921 1.387 . S
C922 H939 0.931 . S
C923 C916 1.399 . S
C923 C920 1.487 . S
C923 N940 1.343 . S
H924 C896 0.931 . S
H925 C898 0.930 . S
H926 C900 0.930 . S
H927 C901 0.931 . S
H928 C903 0.931 . S
H929 C905 0.930 . S
H930 C907 0.930 . S
H931 C908 0.931 . S
H932 C910 0.931 . S
H933 C912 0.930 . S
H934 C914 0.930 . S
H935 C915 0.931 . S
H936 C917 0.931 . S
H937 C919 0.930 . S
H938 C921 0.930 . S
H939 C922 0.931 . S
N940 C902 1.343 . S
N940 C923 1.343 . S
N941 C909 1.343 . S
N941 C916 1.343 . S
C942 C943 1.384 . S
C942 C944 1.384 . S
C942 H970 0.931 . S
C943 C942 1.384 . S
C943 C946 1.382 . S
C944 C942 1.384 . S
C944 C945 1.381 . S
C944 H971 0.930 . S
C945 C944 1.381 . S
C945 C947 1.381 . S
C945 C948 1.487 . S
C946 C943 1.382 . S
C946 C947 1.387 . S
C946 H972 0.930 . S
C947 C945 1.381 . S
C947 C946 1.387 . S
C947 H973 0.931 . S
C948 C945 1.487 . S
C948 C955 1.399 . S
C948 N986 1.343 . S
C949 C950 1.384 . S
C949 C951 1.384 . S
C949 H974 0.931 . S
C950 C949 1.384 . S
C950 C953 1.382 . S
C951 C949 1.384 . S
C951 C952 1.381 . S
C951 H975 0.930 . S
C952 C951 1.381 . S
C952 C954 1.381 . S
C952 C955 1.487 . S
C953 C950 1.382 . S
C953 C954 1.387 . S
C953 H976 0.930 . S
C954 C952 1.381 . S
C954 C953 1.387 . S
C954 H977 0.931 . S
C955 C948 1.399 . S
C955 C952 1.487 . S
C955 N987 1.343 . S
C956 C957 1.384 . S
C956 C958 1.384 . S
C956 H978 0.931 . S
C957 C956 1.384 . S
C957 C960 1.382 . S
C958 C956 1.384 . S
C958 C959 1.381 . S
C958 H979 0.930 . S
C959 C958 1.381 . S
C959 C961 1.381 . S
C959 C962 1.487 . S
C960 C957 1.382 . S
C960 C961 1.387 . S
C960 H980 0.930 . S
C961 C959 1.381 . S
C961 C960 1.387 . S
C961 H981 0.931 . S
C962 C959 1.487 . S
C962 C969 1.399 . S
C962 N987 1.343 . S
C963 C964 1.384 . S
C963 C965 1.384 . S
C963 H982 0.931 . S
C964 C963 1.384 . S
C964 C967 1.382 . S
C965 C963 1.384 . S
C965 C966 1.381 . S
C965 H983 0.930 . S
C966 C965 1.381 . S
C966 C968 1.381 . S
C966 C969 1.487 . S
C967 C964 1.382 . S
C967 C968 1.387 . S
C967 H984 0.930 . S
C968 C966 1.381 . S
C968 C967 1.387 . S
C968 H985 0.931 . S
C969 C962 1.399 . S
C969 C966 1.487 . S
C969 N986 1.343 . S
H970 C942 0.931 . S
H971 C944 0.930 . S
H972 C946 0.930 . S
H973 C947 0.931 . S
H974 C949 0.931 . S
H975 C951 0.930 . S
H976 C953 0.930 . S
H977 C954 0.931 . S
H978 C956 0.931 . S
H979 C958 0.930 . S
H980 C960 0.930 . S
H981 C961 0.931 . S
H982 C963 0.931 . S
H983 C965 0.930 . S
H984 C967 0.930 . S
H985 C968 0.931 . S
N986 C948 1.343 . S
N986 C969 1.343 . S
N987 C955 1.343 . S
N987 C962 1.343 . S
C988 C989 1.384 . S
C988 C990 1.384 . S
C988 H1016 0.931 . S
C989 C988 1.384 . S
C989 C992 1.382 . S
C990 C988 1.384 . S
C990 C991 1.381 . S
C990 H1017 0.930 . S
C991 C990 1.381 . S
C991 C993 1.381 . S
C991 C994 1.487 . S
C992 C989 1.382 . S
C992 C993 1.387 . S
C992 H1018 0.930 . S
C993 C991 1.381 . S
C993 C992 1.387 . S
C993 H1019 0.931 . S
C994 C991 1.487 . S
C994 C1001 1.399 . S
C994 N1032 1.343 . S
C995 C996 1.384 . S
C995 C997 1.384 . S
C995 H1020 0.931 . S
C996 C995 1.384 . S
C996 C999 1.382 . S
C997 C995 1.384 . S
C997 C998 1.381 . S
C997 H1021 0.930 . S
C998 C997 1.381 . S
C998 C1000 1.381 . S
C998 C1001 1.487 . S
C999 C996 1.382 . S
C999 C1000 1.387 . S
C999 H1022 0.930 . S
C1000 C998 1.381 . S
C1000 C999 1.387 . S
C1000 H1023 0.931 . S
C1001 C994 1.399 . S
C1001 C998 1.487 . S
C1001 N1033 1.343 . S
C1002 C1003 1.384 . S
C1002 C1004 1.384 . S
C1002 H1024 0.931 . S
C1003 C1002 1.384 . S
C1003 C1006 1.382 . S
C1004 C1002 1.384 . S
C1004 C1005 1.381 . S
C1004 H1025 0.930 . S
C1005 C1004 1.381 . S
C1005 C1007 1.381 . S
C1005 C1008 1.487 . S
C1006 C1003 1.382 . S
C1006 C1007 1.387 . S
C1006 H1026 0.930 . S
C1007 C1005 1.381 . S
C1007 C1006 1.387 . S
C1007 H1027 0.931 . S
C1008 C1005 1.487 . S
C1008 C1015 1.399 . S
C1008 N1033 1.343 . S
C1009 C1010 1.384 . S
C1009 C1011 1.384 . S
C1009 H1028 0.931 . S
C1010 C1009 1.384 . S
C1010 C1013 1.382 . S
C1011 C1009 1.384 . S
C1011 C1012 1.381 . S
C1011 H1029 0.930 . S
C1012 C1011 1.381 . S
C1012 C1014 1.381 . S
C1012 C1015 1.487 . S
C1013 C1010 1.382 . S
C1013 C1014 1.387 . S
C1013 H1030 0.930 . S
C1014 C1012 1.381 . S
C1014 C1013 1.387 . S
C1014 H1031 0.931 . S
C1015 C1008 1.399 . S
C1015 C1012 1.487 . S
C1015 N1032 1.343 . S
H1016 C988 0.931 . S
H1017 C990 0.930 . S
H1018 C992 0.930 . S
H1019 C993 0.931 . S
H1020 C995 0.931 . S
H1021 C997 0.930 . S
H1022 C999 0.930 . S
H1023 C1000 0.931 . S
H1024 C1002 0.931 . S
H1025 C1004 0.930 . S
H1026 C1006 0.930 . S
H1027 C1007 0.931 . S
H1028 C1009 0.931 . S
H1029 C1011 0.930 . S
H1030 C1013 0.930 . S
H1031 C1014 0.931 . S
N1032 C994 1.343 . S
N1032 C1015 1.343 . S
N1033 C1001 1.343 . S
N1033 C1008 1.343 . S
C1034 C1035 1.384 . S
C1034 C1036 1.384 . S
C1034 H1062 0.931 . S
C1035 C1034 1.384 . S
C1035 C1038 1.382 . S
C1036 C1034 1.384 . S
C1036 C1037 1.381 . S
C1036 H1063 0.930 . S
C1037 C1036 1.381 . S
C1037 C1039 1.381 . S
C1037 C1040 1.487 . S
C1038 C1035 1.382 . S
C1038 C1039 1.387 . S
C1038 H1064 0.930 . S
C1039 C1037 1.381 . S
C1039 C1038 1.387 . S
C1039 H1065 0.931 . S
C1040 C1037 1.487 . S
C1040 C1047 1.399 . S
C1040 N1078 1.343 . S
C1041 C1042 1.384 . S
C1041 C1043 1.384 . S
C1041 H1066 0.931 . S
C1042 C1041 1.384 . S
C1042 C1045 1.382 . S
C1043 C1041 1.384 . S
C1043 C1044 1.381 . S
C1043 H1067 0.930 . S
C1044 C1043 1.381 . S
C1044 C1046 1.381 . S
C1044 C1047 1.487 . S
C1045 C1042 1.382 . S
C1045 C1046 1.387 . S
C1045 H1068 0.930 . S
C1046 C1044 1.381 . S
C1046 C1045 1.387 . S
C1046 H1069 0.931 . S
C1047 C1040 1.399 . S
C1047 C1044 1.487 . S
C1047 N1079 1.343 . S
C1048 C1049 1.384 . S
C1048 C1050 1.384 . S
C1048 H1070 0.931 . S
C1049 C1048 1.384 . S
C1049 C1052 1.382 . S
C1050 C1048 1.384 . S
C1050 C1051 1.381 . S
C1050 H1071 0.930 . S
C1051 C1050 1.381 . S
C1051 C1053 1.381 . S
C1051 C1054 1.487 . S
C1052 C1049 1.382 . S
C1052 C1053 1.387 . S
C1052 H1072 0.930 . S
C1053 C1051 1.381 . S
C1053 C1052 1.387 . S
C1053 H1073 0.931 . S
C1054 C1051 1.487 . S
C1054 C1061 1.399 . S
C1054 N1079 1.343 . S
C1055 C1056 1.384 . S
C1055 C1057 1.384 . S
C1055 H1074 0.931 . S
C1056 C1055 1.384 . S
C1056 C1059 1.382 . S
C1057 C1055 1.384 . S
C1057 C1058 1.381 . S
C1057 H1075 0.930 . S
C1058 C1057 1.381 . S
C1058 C1060 1.381 . S
C1058 C1061 1.487 . S
C1059 C1056 1.382 . S
C1059 C1060 1.387 . S
C1059 H1076 0.930 . S
C1060 C1058 1.381 . S
C1060 C1059 1.387 . S
C1060 H1077 0.931 . S
C1061 C1054 1.399 . S
C1061 C1058 1.487 . S
C1061 N1078 1.343 . S
H1062 C1034 0.931 . S
H1063 C1036 0.930 . S
H1064 C1038 0.930 . S
H1065 C1039 0.931 . S
H1066 C1041 0.931 . S
H1067 C1043 0.930 . S
H1068 C1045 0.930 . S
H1069 C1046 0.931 . S
H1070 C1048 0.931 . S
H1071 C1050 0.930 . S
H1072 C1052 0.930 . S
H1073 C1053 0.931 . S
H1074 C1055 0.931 . S
H1075 C1057 0.930 . S
H1076 C1059 0.930 . S
H1077 C1060 0.931 . S
N1078 C1040 1.343 . S
N1078 C1061 1.343 . S
N1079 C1047 1.343 . S
N1079 C1054 1.343 . S
H1080 C1086 0.930 . S
H1081 C1089 0.930 . S
H1082 C1090 0.930 . S
H1083 C1091 0.930 . S
H1084 C1094 0.930 . S
H1085 C1095 0.930 . S
C1086 H1080 0.930 . S
C1086 C1087 1.355 1_455 S
C1086 C1088 1.415 . S
C1087 C1086 1.355 1_655 S
C1087 C1089 1.419 . S
C1088 C1086 1.415 . S
C1088 C1093 1.425 1_455 S
C1088 C1095 1.409 . S
C1089 H1081 0.930 . S
C1089 C1087 1.419 . S
C1089 C1090 1.362 . S
C1090 H1082 0.930 . S
C1090 C1089 1.362 . S
C1090 C1093 1.409 . S
C1091 H1083 0.930 . S
C1091 C1092 1.355 . S
C1091 C1093 1.415 . S
C1092 C1091 1.355 . S
C1092 C1094 1.419 1_655 S
C1093 C1088 1.425 1_655 S
C1093 C1090 1.409 . S
C1093 C1091 1.415 . S
C1094 H1084 0.930 . S
C1094 C1092 1.419 1_455 S
C1094 C1095 1.362 . S
C1095 H1085 0.930 . S
C1095 C1088 1.409 . S
C1095 C1094 1.362 . S
H1096 C1102 0.930 . S
H1097 C1105 0.930 . S
H1098 C1106 0.930 . S
H1099 C1107 0.930 . S
H1100 C1110 0.930 . S
H1101 C1111 0.930 . S
C1102 H1096 0.930 . S
C1102 C1103 1.355 . S
C1102 C1104 1.415 . S
C1103 C1102 1.355 . S
C1103 C1105 1.419 . S
C1104 C1102 1.415 . S
C1104 C1109 1.425 . S
C1104 C1111 1.409 . S
C1105 H1097 0.930 . S
C1105 C1103 1.419 . S
C1105 C1106 1.362 . S
C1106 H1098 0.930 . S
C1106 C1105 1.362 . S
C1106 C1109 1.409 . S
C1107 H1099 0.930 . S
C1107 C1108 1.355 . S
C1107 C1109 1.415 . S
C1108 C1107 1.355 . S
C1108 C1110 1.419 . S
C1109 C1104 1.425 . S
C1109 C1106 1.409 . S
C1109 C1107 1.415 . S
C1110 H1100 0.930 . S
C1110 C1108 1.419 . S
C1110 C1111 1.362 . S
C1111 H1101 0.930 . S
C1111 C1104 1.409 . S
C1111 C1110 1.362 . S
H1112 C1118 0.930 . S
H1113 C1121 0.946 1_565 S
H1114 C1122 0.947 . S
H1115 C1123 0.930 1_565 S
H1116 C1126 0.930 . S
H1117 C1127 0.930 . S
C1118 H1112 0.930 . S
C1118 C1119 1.355 . S
C1118 C1120 1.415 . S
C1119 C1118 1.355 . S
C1119 C1121 1.419 . S
C1120 C1118 1.415 . S
C1120 C1125 1.425 . S
C1120 C1127 1.409 . S
C1121 H1113 0.946 1_545 S
C1121 C1119 1.419 . S
C1121 C1122 1.331 1_545 S
C1122 H1114 0.947 . S
C1122 C1121 1.331 1_565 S
C1122 C1125 1.429 1_565 S
C1123 H1115 0.930 1_545 S
C1123 C1124 1.355 . S
C1123 C1125 1.415 . S
C1124 C1123 1.355 . S
C1124 C1126 1.419 . S
C1125 C1120 1.425 . S
C1125 C1122 1.429 1_545 S
C1125 C1123 1.415 . S
C1126 H1116 0.930 . S
C1126 C1124 1.419 . S
C1126 C1127 1.362 . S
C1127 H1117 0.930 . S
C1127 C1120 1.409 . S
C1127 C1126 1.362 . S
H1128 C1134 0.936 . S
H1129 C1137 0.930 . S
H1130 C1138 0.930 . S
H1131 C1139 0.930 . S
H1132 C1142 0.930 . S
H1133 C1143 0.930 . S
C1134 H1128 0.936 . S
C1134 C1135 1.355 . S
C1134 C1136 1.415 . S
C1135 C1134 1.355 . S
C1135 C1137 1.419 . S
C1136 C1134 1.415 . S
C1136 C1141 1.425 . S
C1136 C1143 1.409 1_565 S
C1137 H1129 0.930 . S
C1137 C1135 1.419 . S
C1137 C1138 1.362 . S
C1138 H1130 0.930 . S
C1138 C1137 1.362 . S
C1138 C1141 1.409 . S
C1139 H1131 0.930 . S
C1139 C1140 1.355 . S
C1139 C1141 1.415 . S
C1140 C1139 1.355 . S
C1140 C1142 1.419 1_565 S
C1141 C1136 1.425 . S
C1141 C1138 1.409 . S
C1141 C1139 1.415 . S
C1142 H1132 0.930 . S
C1142 C1140 1.419 1_545 S
C1142 C1143 1.362 . S
C1143 H1133 0.930 . S
C1143 C1136 1.409 1_545 S
C1143 C1142 1.362 . S
H1144 C1150 0.930 . S
H1145 C1153 0.930 . S
H1146 C1154 0.930 . S
H1147 C1155 0.930 . S
H1148 C1158 0.930 . S
H1149 C1159 0.939 1_655 S
C1150 H1144 0.930 . S
C1150 C1151 1.355 . S
C1150 C1152 1.415 . S
C1151 C1150 1.355 . S
C1151 C1153 1.419 . S
C1152 C1150 1.415 . S
C1152 C1157 1.425 . S
C1152 C1159 1.425 . S
C1153 H1145 0.930 . S
C1153 C1151 1.419 . S
C1153 C1154 1.362 . S
C1154 H1146 0.930 . S
C1154 C1153 1.362 . S
C1154 C1157 1.409 . S
C1155 H1147 0.930 . S
C1155 C1156 1.355 . S
C1155 C1157 1.415 . S
C1156 C1155 1.355 . S
C1156 C1158 1.419 1_455 S
C1157 C1152 1.425 . S
C1157 C1154 1.409 . S
C1157 C1155 1.415 . S
C1158 H1148 0.930 . S
C1158 C1156 1.419 1_655 S
C1158 C1159 1.340 1_655 S
C1159 H1149 0.939 1_455 S
C1159 C1152 1.425 . S
C1159 C1158 1.340 1_455 S
H1160 C1166 0.930 . S
H1161 C1169 0.930 . S
H1162 C1170 0.930 . S
H1163 C1171 0.930 . S
H1164 C1174 0.930 . S
H1165 C1175 0.930 . S
C1166 H1160 0.930 . S
C1166 C1167 1.355 . S
C1166 C1168 1.415 . S
C1167 C1166 1.355 . S
C1167 C1169 1.419 . S
C1168 C1166 1.415 . S
C1168 C1173 1.425 . S
C1168 C1175 1.409 . S
C1169 H1161 0.930 . S
C1169 C1167 1.419 . S
C1169 C1170 1.362 . S
C1170 H1162 0.930 . S
C1170 C1169 1.362 . S
C1170 C1173 1.409 . S
C1171 H1163 0.930 . S
C1171 C1172 1.355 . S
C1171 C1173 1.415 . S
C1172 C1171 1.355 . S
C1172 C1174 1.419 . S
C1173 C1168 1.425 . S
C1173 C1170 1.409 . S
C1173 C1171 1.415 . S
C1174 H1164 0.930 . S
C1174 C1172 1.419 . S
C1174 C1175 1.362 . S
C1175 H1165 0.930 . S
C1175 C1168 1.409 . S
C1175 C1174 1.362 . S
H1176 C1182 0.930 . S
H1177 C1185 0.930 . S
H1178 C1186 0.930 1_655 S
H1179 C1187 0.914 1_655 S
H1180 C1190 0.930 . S
H1181 C1191 0.930 . S
C1182 H1176 0.930 . S
C1182 C1183 1.355 . S
C1182 C1184 1.415 . S
C1183 C1182 1.355 . S
C1183 C1185 1.419 . S
C1184 C1182 1.415 . S
C1184 C1189 1.425 . S
C1184 C1191 1.409 . S
C1185 H1177 0.930 . S
C1185 C1183 1.419 . S
C1185 C1186 1.362 . S
C1186 H1178 0.930 1_455 S
C1186 C1185 1.362 . S
C1186 C1189 1.409 . S
C1187 H1179 0.914 1_455 S
C1187 C1188 1.377 . S
C1187 C1189 1.409 . S
C1188 C1187 1.377 . S
C1188 C1190 1.419 . S
C1189 C1184 1.425 . S
C1189 C1186 1.409 . S
C1189 C1187 1.409 . S
C1190 H1180 0.930 . S
C1190 C1188 1.419 . S
C1190 C1191 1.362 . S
C1191 H1181 0.930 . S
C1191 C1184 1.409 . S
C1191 C1190 1.362 . S
H1192 C1198 0.930 . S
H1193 C1201 0.930 . S
H1194 C1202 0.930 . S
H1195 C1203 0.930 . S
H1196 C1206 0.930 . S
H1197 C1207 0.930 . S
C1198 H1192 0.930 . S
C1198 C1199 1.355 . S
C1198 C1200 1.415 . S
C1199 C1198 1.355 . S
C1199 C1201 1.419 . S
C1200 C1198 1.415 . S
C1200 C1205 1.425 . S
C1200 C1207 1.409 . S
C1201 H1193 0.930 . S
C1201 C1199 1.419 . S
C1201 C1202 1.362 . S
C1202 H1194 0.930 . S
C1202 C1201 1.362 . S
C1202 C1205 1.409 . S
C1203 H1195 0.930 . S
C1203 C1204 1.355 . S
C1203 C1205 1.415 . S
C1204 C1203 1.355 . S
C1204 C1206 1.419 . S
C1205 C1200 1.425 . S
C1205 C1202 1.409 . S
C1205 C1203 1.415 . S
C1206 H1196 0.930 . S
C1206 C1204 1.419 . S
C1206 C1207 1.362 . S
C1207 H1197 0.930 . S
C1207 C1200 1.409 . S
C1207 C1206 1.362 . S
H1208 C1214 0.930 . S
H1209 C1217 0.930 . S
H1210 C1218 0.930 . S
H1211 C1219 0.930 . S
H1212 C1222 0.930 . S
H1213 C1223 0.930 . S
C1214 H1208 0.930 . S
C1214 C1215 1.355 . S
C1214 C1216 1.415 . S
C1215 C1214 1.355 . S
C1215 C1217 1.419 1_565 S
C1216 C1214 1.415 . S
C1216 C1221 1.463 . S
C1216 C1223 1.409 . S
C1217 H1209 0.930 . S
C1217 C1215 1.419 1_545 S
C1217 C1218 1.362 . S
C1218 H1210 0.930 . S
C1218 C1217 1.362 . S
C1218 C1221 1.399 1_545 S
C1219 H1211 0.930 . S
C1219 C1220 1.355 1_545 S
C1219 C1221 1.390 1_545 S
C1220 C1219 1.355 1_565 S
C1220 C1222 1.419 . S
C1221 C1216 1.463 . S
C1221 C1218 1.399 1_565 S
C1221 C1219 1.390 1_565 S
C1222 H1212 0.930 . S
C1222 C1220 1.419 . S
C1222 C1223 1.362 . S
C1223 H1213 0.930 . S
C1223 C1216 1.409 . S
C1223 C1222 1.362 . S
H1224 C1230 0.930 . S
H1225 C1233 0.930 . S
H1226 C1234 0.930 . S
H1227 C1235 0.930 . S
H1228 C1238 0.930 . S
H1229 C1239 0.930 . S
C1230 H1224 0.930 . S
C1230 C1231 1.355 . S
C1230 C1232 1.415 . S
C1231 C1230 1.355 . S
C1231 C1233 1.419 . S
C1232 C1230 1.415 . S
C1232 C1237 1.425 . S
C1232 C1239 1.409 1_545 S
C1233 H1225 0.930 . S
C1233 C1231 1.419 . S
C1233 C1234 1.362 . S
C1234 H1226 0.930 . S
C1234 C1233 1.362 . S
C1234 C1237 1.409 . S
C1235 H1227 0.930 . S
C1235 C1236 1.355 . S
C1235 C1237 1.415 . S
C1236 C1235 1.355 . S
C1236 C1238 1.419 1_545 S
C1237 C1232 1.425 . S
C1237 C1234 1.409 . S
C1237 C1235 1.415 . S
C1238 H1228 0.930 . S
C1238 C1236 1.419 1_565 S
C1238 C1239 1.362 . S
C1239 H1229 0.930 . S
C1239 C1232 1.409 1_565 S
C1239 C1238 1.362 . S
H1240 C1246 0.930 . S
H1241 C1249 0.930 . S
H1242 C1250 0.930 . S
H1243 C1251 0.930 . S
H1244 C1254 0.930 . S
H1245 C1255 0.930 . S
C1246 H1240 0.930 . S
C1246 C1247 1.355 . S
C1246 C1248 1.415 . S
C1247 C1246 1.355 . S
C1247 C1249 1.419 . S
C1248 C1246 1.415 . S
C1248 C1253 1.425 . S
C1248 C1255 1.409 . S
C1249 H1241 0.930 . S
C1249 C1247 1.419 . S
C1249 C1250 1.362 . S
C1250 H1242 0.930 . S
C1250 C1249 1.362 . S
C1250 C1253 1.409 . S
C1251 H1243 0.930 . S
C1251 C1252 1.355 . S
C1251 C1253 1.415 . S
C1252 C1251 1.355 . S
C1252 C1254 1.419 . S
C1253 C1248 1.425 . S
C1253 C1250 1.409 . S
C1253 C1251 1.415 . S
C1254 H1244 0.930 . S
C1254 C1252 1.419 . S
C1254 C1255 1.362 . S
C1255 H1245 0.930 . S
C1255 C1248 1.409 . S
C1255 C1254 1.362 . S
H1256 C1262 0.930 . S
H1257 C1265 0.930 . S
H1258 C1266 0.930 . S
H1259 C1267 0.930 . S
H1260 C1270 0.930 . S
H1261 C1271 0.930 . S
C1262 H1256 0.930 . S
C1262 C1263 1.355 . S
C1262 C1264 1.415 . S
C1263 C1262 1.355 . S
C1263 C1265 1.419 . S
C1264 C1262 1.415 . S
C1264 C1269 1.425 . S
C1264 C1271 1.409 . S
C1265 H1257 0.930 . S
C1265 C1263 1.419 . S
C1265 C1266 1.362 . S
C1266 H1258 0.930 . S
C1266 C1265 1.362 . S
C1266 C1269 1.409 . S
C1267 H1259 0.930 . S
C1267 C1268 1.355 . S
C1267 C1269 1.415 . S
C1268 C1267 1.355 . S
C1268 C1270 1.419 . S
C1269 C1264 1.425 . S
C1269 C1266 1.409 . S
C1269 C1267 1.415 . S
C1270 H1260 0.930 . S
C1270 C1268 1.419 . S
C1270 C1271 1.362 . S
C1271 H1261 0.930 . S
C1271 C1264 1.409 . S
C1271 C1270 1.362 . S
H1272 C1278 0.930 . S
H1273 C1281 0.930 . S
H1274 C1282 0.930 . S
H1275 C1283 0.930 . S
H1276 C1286 0.930 . S
H1277 C1287 0.930 . S
C1278 H1272 0.930 . S
C1278 C1279 1.355 . S
C1278 C1280 1.415 . S
C1279 C1278 1.355 . S
C1279 C1281 1.419 . S
C1280 C1278 1.415 . S
C1280 C1285 1.425 . S
C1280 C1287 1.409 . S
C1281 H1273 0.930 . S
C1281 C1279 1.419 . S
C1281 C1282 1.362 . S
C1282 H1274 0.930 . S
C1282 C1281 1.362 . S
C1282 C1285 1.409 . S
C1283 H1275 0.930 . S
C1283 C1284 1.355 . S
C1283 C1285 1.415 . S
C1284 C1283 1.355 . S
C1284 C1286 1.419 . S
C1285 C1280 1.425 . S
C1285 C1282 1.409 . S
C1285 C1283 1.415 . S
C1286 H1276 0.930 . S
C1286 C1284 1.419 . S
C1286 C1287 1.362 . S
C1287 H1277 0.930 . S
C1287 C1280 1.409 . S
C1287 C1286 1.362 . S
H1288 C1294 0.930 . S
H1289 C1297 0.930 . S
H1290 C1298 0.930 . S
H1291 C1299 0.930 . S
H1292 C1302 0.930 . S
H1293 C1303 0.930 . S
C1294 H1288 0.930 . S
C1294 C1295 1.355 . S
C1294 C1296 1.415 . S
C1295 C1294 1.355 . S
C1295 C1297 1.419 . S
C1296 C1294 1.415 . S
C1296 C1301 1.425 . S
C1296 C1303 1.409 . S
C1297 H1289 0.930 . S
C1297 C1295 1.419 . S
C1297 C1298 1.362 . S
C1298 H1290 0.930 . S
C1298 C1297 1.362 . S
C1298 C1301 1.409 . S
C1299 H1291 0.930 . S
C1299 C1300 1.355 . S
C1299 C1301 1.415 . S
C1300 C1299 1.355 . S
C1300 C1302 1.419 . S
C1301 C1296 1.425 . S
C1301 C1298 1.409 . S
C1301 C1299 1.415 . S
C1302 H1292 0.930 . S
C1302 C1300 1.419 . S
C1302 C1303 1.362 . S
C1303 H1293 0.930 . S
C1303 C1296 1.409 . S
C1303 C1302 1.362 . S
H1304 C1310 0.930 . S
H1305 C1313 0.930 . S
H1306 C1314 0.930 . S
H1307 C1315 0.930 . S
H1308 C1318 0.930 . S
H1309 C1319 0.930 . S
C1310 H1304 0.930 . S
C1310 C1311 1.355 . S
C1310 C1312 1.415 . S
C1311 C1310 1.355 . S
C1311 C1313 1.419 . S
C1312 C1310 1.415 . S
C1312 C1317 1.425 . S
C1312 C1319 1.409 . S
C1313 H1305 0.930 . S
C1313 C1311 1.419 . S
C1313 C1314 1.362 . S
C1314 H1306 0.930 . S
C1314 C1313 1.362 . S
C1314 C1317 1.409 . S
C1315 H1307 0.930 . S
C1315 C1316 1.355 . S
C1315 C1317 1.415 . S
C1316 C1315 1.355 . S
C1316 C1318 1.419 . S
C1317 C1312 1.425 . S
C1317 C1314 1.409 . S
C1317 C1315 1.415 . S
C1318 H1308 0.930 . S
C1318 C1316 1.419 . S
C1318 C1319 1.362 . S
C1319 H1309 0.930 . S
C1319 C1312 1.409 . S
C1319 C1318 1.362 . S
H1320 C1326 0.930 . S
H1321 C1329 0.930 . S
H1322 C1330 0.930 . S
H1323 C1331 0.930 . S
H1324 C1334 0.930 . S
H1325 C1335 0.930 . S
C1326 H1320 0.930 . S
C1326 C1327 1.355 . S
C1326 C1328 1.415 . S
C1327 C1326 1.355 . S
C1327 C1329 1.419 . S
C1328 C1326 1.415 . S
C1328 C1333 1.425 . S
C1328 C1335 1.409 . S
C1329 H1321 0.930 . S
C1329 C1327 1.419 . S
C1329 C1330 1.362 . S
C1330 H1322 0.930 . S
C1330 C1329 1.362 . S
C1330 C1333 1.409 . S
C1331 H1323 0.930 . S
C1331 C1332 1.355 . S
C1331 C1333 1.415 . S
C1332 C1331 1.355 . S
C1332 C1334 1.419 . S
C1333 C1328 1.425 . S
C1333 C1330 1.409 . S
C1333 C1331 1.415 . S
C1334 H1324 0.930 . S
C1334 C1332 1.419 . S
C1334 C1335 1.362 . S
C1335 H1325 0.930 . S
C1335 C1328 1.409 . S
C1335 C1334 1.362 . S
H1336 C1342 0.930 . S
H1337 C1345 0.930 . S
H1338 C1346 0.930 . S
H1339 C1347 0.930 . S
H1340 C1350 0.930 . S
H1341 C1351 0.930 . S
C1342 H1336 0.930 . S
C1342 C1343 1.355 . S
C1342 C1344 1.415 . S
C1343 C1342 1.355 . S
C1343 C1345 1.419 . S
C1344 C1342 1.415 . S
C1344 C1349 1.425 . S
C1344 C1351 1.409 . S
C1345 H1337 0.930 . S
C1345 C1343 1.419 . S
C1345 C1346 1.362 . S
C1346 H1338 0.930 . S
C1346 C1345 1.362 . S
C1346 C1349 1.409 . S
C1347 H1339 0.930 . S
C1347 C1348 1.355 . S
C1347 C1349 1.415 . S
C1348 C1347 1.355 . S
C1348 C1350 1.419 . S
C1349 C1344 1.425 . S
C1349 C1346 1.409 . S
C1349 C1347 1.415 . S
C1350 H1340 0.930 . S
C1350 C1348 1.419 . S
C1350 C1351 1.362 . S
C1351 H1341 0.930 . S
C1351 C1344 1.409 . S
C1351 C1350 1.362 . S
H1352 C1358 0.930 . S
H1353 C1361 0.930 . S
H1354 C1362 0.930 . S
H1355 C1363 0.930 . S
H1356 C1366 0.930 . S
H1357 C1367 0.930 . S
C1358 H1352 0.930 . S
C1358 C1359 1.355 . S
C1358 C1360 1.415 . S
C1359 C1358 1.355 . S
C1359 C1361 1.419 . S
C1360 C1358 1.415 . S
C1360 C1365 1.425 . S
C1360 C1367 1.409 . S
C1361 H1353 0.930 . S
C1361 C1359 1.419 . S
C1361 C1362 1.362 . S
C1362 H1354 0.930 . S
C1362 C1361 1.362 . S
C1362 C1365 1.409 . S
C1363 H1355 0.930 . S
C1363 C1364 1.355 . S
C1363 C1365 1.415 . S
C1364 C1363 1.355 . S
C1364 C1366 1.419 . S
C1365 C1360 1.425 . S
C1365 C1362 1.409 . S
C1365 C1363 1.415 . S
C1366 H1356 0.930 . S
C1366 C1364 1.419 . S
C1366 C1367 1.362 . S
C1367 H1357 0.930 . S
C1367 C1360 1.409 . S
C1367 C1366 1.362 . S
H1368 C1374 0.930 . S
H1369 C1377 0.930 . S
H1370 C1378 0.930 . S
H1371 C1379 0.930 . S
H1372 C1382 0.930 . S
H1373 C1383 0.930 . S
C1374 H1368 0.930 . S
C1374 C1375 1.355 . S
C1374 C1376 1.415 . S
C1375 C1374 1.355 . S
C1375 C1377 1.419 . S
C1376 C1374 1.415 . S
C1376 C1381 1.425 . S
C1376 C1383 1.409 . S
C1377 H1369 0.930 . S
C1377 C1375 1.419 . S
C1377 C1378 1.362 . S
C1378 H1370 0.930 . S
C1378 C1377 1.362 . S
C1378 C1381 1.409 . S
C1379 H1371 0.930 . S
C1379 C1380 1.355 . S
C1379 C1381 1.415 . S
C1380 C1379 1.355 . S
C1380 C1382 1.419 . S
C1381 C1376 1.425 . S
C1381 C1378 1.409 . S
C1381 C1379 1.415 . S
C1382 H1372 0.930 . S
C1382 C1380 1.419 . S
C1382 C1383 1.362 . S
C1383 H1373 0.930 . S
C1383 C1376 1.409 . S
C1383 C1382 1.362 . S
H1384 C1390 0.930 . S
H1385 C1393 0.930 . S
H1386 C1394 0.930 . S
H1387 C1395 0.930 . S
H1388 C1398 0.930 . S
H1389 C1399 0.930 . S
C1390 H1384 0.930 . S
C1390 C1391 1.355 . S
C1390 C1392 1.415 . S
C1391 C1390 1.355 . S
C1391 C1393 1.419 . S
C1392 C1390 1.415 . S
C1392 C1397 1.425 . S
C1392 C1399 1.409 . S
C1393 H1385 0.930 . S
C1393 C1391 1.419 . S
C1393 C1394 1.362 . S
C1394 H1386 0.930 . S
C1394 C1393 1.362 . S
C1394 C1397 1.409 . S
C1395 H1387 0.930 . S
C1395 C1396 1.355 . S
C1395 C1397 1.415 . S
C1396 C1395 1.355 . S
C1396 C1398 1.419 . S
C1397 C1392 1.425 . S
C1397 C1394 1.409 . S
C1397 C1395 1.415 . S
C1398 H1388 0.930 . S
C1398 C1396 1.419 . S
C1398 C1399 1.362 . S
C1399 H1389 0.930 . S
C1399 C1392 1.409 . S
C1399 C1398 1.362 . S
H1400 C1406 0.930 . S
H1401 C1409 0.930 . S
H1402 C1410 0.930 . S
H1403 C1411 0.930 . S
H1404 C1414 0.930 . S
H1405 C1415 0.930 . S
C1406 H1400 0.930 . S
C1406 C1407 1.355 . S
C1406 C1408 1.415 . S
C1407 C1406 1.355 . S
C1407 C1409 1.419 . S
C1408 C1406 1.415 . S
C1408 C1413 1.425 . S
C1408 C1415 1.409 . S
C1409 H1401 0.930 . S
C1409 C1407 1.419 . S
C1409 C1410 1.362 . S
C1410 H1402 0.930 . S
C1410 C1409 1.362 . S
C1410 C1413 1.409 . S
C1411 H1403 0.930 . S
C1411 C1412 1.355 . S
C1411 C1413 1.415 . S
C1412 C1411 1.355 . S
C1412 C1414 1.419 . S
C1413 C1408 1.425 . S
C1413 C1410 1.409 . S
C1413 C1411 1.415 . S
C1414 H1404 0.930 . S
C1414 C1412 1.419 . S
C1414 C1415 1.362 . S
C1415 H1405 0.930 . S
C1415 C1408 1.409 . S
C1415 C1414 1.362 . S
H1416 C1422 0.930 . S
H1417 C1425 0.930 . S
H1418 C1426 0.930 . S
H1419 C1427 0.930 . S
H1420 C1430 0.930 . S
H1421 C1431 0.930 . S
C1422 H1416 0.930 . S
C1422 C1423 1.355 . S
C1422 C1424 1.415 . S
C1423 C1422 1.355 . S
C1423 C1425 1.419 . S
C1424 C1422 1.415 . S
C1424 C1429 1.425 . S
C1424 C1431 1.409 . S
C1425 H1417 0.930 . S
C1425 C1423 1.419 . S
C1425 C1426 1.362 . S
C1426 H1418 0.930 . S
C1426 C1425 1.362 . S
C1426 C1429 1.409 . S
C1427 H1419 0.930 . S
C1427 C1428 1.355 . S
C1427 C1429 1.415 . S
C1428 C1427 1.355 . S
C1428 C1430 1.419 . S
C1429 C1424 1.425 . S
C1429 C1426 1.409 . S
C1429 C1427 1.415 . S
C1430 H1420 0.930 . S
C1430 C1428 1.419 . S
C1430 C1431 1.362 . S
C1431 H1421 0.930 . S
C1431 C1424 1.409 . S
C1431 C1430 1.362 . S
H1432 C1438 0.930 . S
H1433 C1441 0.930 . S
H1434 C1442 0.930 . S
H1435 C1443 0.930 . S
H1436 C1446 0.930 . S
H1437 C1447 0.930 . S
C1438 H1432 0.930 . S
C1438 C1439 1.355 . S
C1438 C1440 1.415 . S
C1439 C1438 1.355 . S
C1439 C1441 1.419 . S
C1440 C1438 1.415 . S
C1440 C1445 1.425 . S
C1440 C1447 1.409 . S
C1441 H1433 0.930 . S
C1441 C1439 1.419 . S
C1441 C1442 1.362 . S
C1442 H1434 0.930 . S
C1442 C1441 1.362 . S
C1442 C1445 1.409 . S
C1443 H1435 0.930 . S
C1443 C1444 1.355 . S
C1443 C1445 1.415 . S
C1444 C1443 1.355 . S
C1444 C1446 1.419 . S
C1445 C1440 1.425 . S
C1445 C1442 1.409 . S
C1445 C1443 1.415 . S
C1446 H1436 0.930 . S
C1446 C1444 1.419 . S
C1446 C1447 1.362 . S
C1447 H1437 0.930 . S
C1447 C1440 1.409 . S
C1447 C1446 1.362 . S
H1448 C1454 0.930 . S
H1449 C1457 0.930 . S
H1450 C1458 0.930 . S
H1451 C1459 0.930 . S
H1452 C1462 0.930 . S
H1453 C1463 0.930 . S
C1454 H1448 0.930 . S
C1454 C1455 1.355 . S
C1454 C1456 1.415 . S
C1455 C1454 1.355 . S
C1455 C1457 1.419 . S
C1456 C1454 1.415 . S
C1456 C1461 1.425 . S
C1456 C1463 1.409 . S
C1457 H1449 0.930 . S
C1457 C1455 1.419 . S
C1457 C1458 1.362 . S
C1458 H1450 0.930 . S
C1458 C1457 1.362 . S
C1458 C1461 1.409 . S
C1459 H1451 0.930 . S
C1459 C1460 1.355 . S
C1459 C1461 1.415 . S
C1460 C1459 1.355 . S
C1460 C1462 1.419 . S
C1461 C1456 1.425 . S
C1461 C1458 1.409 . S
C1461 C1459 1.415 . S
C1462 H1452 0.930 . S
C1462 C1460 1.419 . S
C1462 C1463 1.362 . S
C1463 H1453 0.930 . S
C1463 C1456 1.409 . S
C1463 C1462 1.362 . S
H1464 C1470 0.930 . S
H1465 C1473 0.930 . S
H1466 C1474 0.930 . S
H1467 C1475 0.930 . S
H1468 C1478 0.930 . S
H1469 C1479 0.930 . S
C1470 H1464 0.930 . S
C1470 C1471 1.355 . S
C1470 C1472 1.415 . S
C1471 C1470 1.355 . S
C1471 C1473 1.419 . S
C1472 C1470 1.415 . S
C1472 C1477 1.425 . S
C1472 C1479 1.409 . S
C1473 H1465 0.930 . S
C1473 C1471 1.419 . S
C1473 C1474 1.362 . S
C1474 H1466 0.930 . S
C1474 C1473 1.362 . S
C1474 C1477 1.409 . S
C1475 H1467 0.930 . S
C1475 C1476 1.355 . S
C1475 C1477 1.415 . S
C1476 C1475 1.355 . S
C1476 C1478 1.419 . S
C1477 C1472 1.425 . S
C1477 C1474 1.409 . S
C1477 C1475 1.415 . S
C1478 H1468 0.930 . S
C1478 C1476 1.419 . S
C1478 C1479 1.362 . S
C1479 H1469 0.930 . S
C1479 C1472 1.409 . S
C1479 C1478 1.362 . S
H1480 C1486 0.930 . S
H1481 C1489 0.930 . S
H1482 C1490 0.930 . S
H1483 C1491 0.930 . S
H1484 C1494 0.930 . S
H1485 C1495 0.930 . S
C1486 H1480 0.930 . S
C1486 C1487 1.355 . S
C1486 C1488 1.415 . S
C1487 C1486 1.355 . S
C1487 C1489 1.419 . S
C1488 C1486 1.415 . S
C1488 C1493 1.425 . S
C1488 C1495 1.409 . S
C1489 H1481 0.930 . S
C1489 C1487 1.419 . S
C1489 C1490 1.362 . S
C1490 H1482 0.930 . S
C1490 C1489 1.362 . S
C1490 C1493 1.409 . S
C1491 H1483 0.930 . S
C1491 C1492 1.355 . S
C1491 C1493 1.415 . S
C1492 C1491 1.355 . S
C1492 C1494 1.419 . S
C1493 C1488 1.425 . S
C1493 C1490 1.409 . S
C1493 C1491 1.415 . S
C1494 H1484 0.930 . S
C1494 C1492 1.419 . S
C1494 C1495 1.362 . S
C1495 H1485 0.930 . S
C1495 C1488 1.409 . S
C1495 C1494 1.362 . S
H1496 C1502 0.930 . S
H1497 C1505 0.930 . S
H1498 C1506 0.930 . S
H1499 C1507 0.930 . S
H1500 C1510 0.930 . S
H1501 C1511 0.930 . S
C1502 H1496 0.930 . S
C1502 C1503 1.355 . S
C1502 C1504 1.415 . S
C1503 C1502 1.355 . S
C1503 C1505 1.419 . S
C1504 C1502 1.415 . S
C1504 C1509 1.425 . S
C1504 C1511 1.409 . S
C1505 H1497 0.930 . S
C1505 C1503 1.419 . S
C1505 C1506 1.362 . S
C1506 H1498 0.930 . S
C1506 C1505 1.362 . S
C1506 C1509 1.409 . S
C1507 H1499 0.930 . S
C1507 C1508 1.355 . S
C1507 C1509 1.415 . S
C1508 C1507 1.355 . S
C1508 C1510 1.419 . S
C1509 C1504 1.425 . S
C1509 C1506 1.409 . S
C1509 C1507 1.415 . S
C1510 H1500 0.930 . S
C1510 C1508 1.419 . S
C1510 C1511 1.362 . S
C1511 H1501 0.930 . S
C1511 C1504 1.409 . S
C1511 C1510 1.362 . S
H1512 C1518 0.930 . S
H1513 C1521 0.930 . S
H1514 C1522 0.930 . S
H1515 C1523 0.930 . S
H1516 C1526 0.930 . S
H1517 C1527 0.930 . S
C1518 H1512 0.930 . S
C1518 C1519 1.355 . S
C1518 C1520 1.415 . S
C1519 C1518 1.355 . S
C1519 C1521 1.419 . S
C1520 C1518 1.415 . S
C1520 C1525 1.425 . S
C1520 C1527 1.409 . S
C1521 H1513 0.930 . S
C1521 C1519 1.419 . S
C1521 C1522 1.362 . S
C1522 H1514 0.930 . S
C1522 C1521 1.362 . S
C1522 C1525 1.409 . S
C1523 H1515 0.930 . S
C1523 C1524 1.355 . S
C1523 C1525 1.415 . S
C1524 C1523 1.355 . S
C1524 C1526 1.419 . S
C1525 C1520 1.425 . S
C1525 C1522 1.409 . S
C1525 C1523 1.415 . S
C1526 H1516 0.930 . S
C1526 C1524 1.419 . S
C1526 C1527 1.362 . S
C1527 H1517 0.930 . S
C1527 C1520 1.409 . S
C1527 C1526 1.362 . S
H1528 C1534 0.930 . S
H1529 C1537 0.930 . S
H1530 C1538 0.930 . S
H1531 C1539 0.930 . S
H1532 C1542 0.930 . S
H1533 C1543 0.930 . S
C1534 H1528 0.930 . S
C1534 C1535 1.355 . S
C1534 C1536 1.415 . S
C1535 C1534 1.355 . S
C1535 C1537 1.419 . S
C1536 C1534 1.415 . S
C1536 C1541 1.425 . S
C1536 C1543 1.409 . S
C1537 H1529 0.930 . S
C1537 C1535 1.419 . S
C1537 C1538 1.362 . S
C1538 H1530 0.930 . S
C1538 C1537 1.362 . S
C1538 C1541 1.409 . S
C1539 H1531 0.930 . S
C1539 C1540 1.355 . S
C1539 C1541 1.415 . S
C1540 C1539 1.355 . S
C1540 C1542 1.419 . S
C1541 C1536 1.425 . S
C1541 C1538 1.409 . S
C1541 C1539 1.415 . S
C1542 H1532 0.930 . S
C1542 C1540 1.419 . S
C1542 C1543 1.362 . S
C1543 H1533 0.930 . S
C1543 C1536 1.409 . S
C1543 C1542 1.362 . S
H1544 C1550 0.930 . S
H1545 C1553 0.930 . S
H1546 C1554 0.930 . S
H1547 C1555 0.930 . S
H1548 C1558 0.930 . S
H1549 C1559 0.930 . S
C1550 H1544 0.930 . S
C1550 C1551 1.355 . S
C1550 C1552 1.415 . S
C1551 C1550 1.355 . S
C1551 C1553 1.419 . S
C1552 C1550 1.415 . S
C1552 C1557 1.425 . S
C1552 C1559 1.409 . S
C1553 H1545 0.930 . S
C1553 C1551 1.419 . S
C1553 C1554 1.362 . S
C1554 H1546 0.930 . S
C1554 C1553 1.362 . S
C1554 C1557 1.409 . S
C1555 H1547 0.930 . S
C1555 C1556 1.355 . S
C1555 C1557 1.415 . S
C1556 C1555 1.355 . S
C1556 C1558 1.419 . S
C1557 C1552 1.425 . S
C1557 C1554 1.409 . S
C1557 C1555 1.415 . S
C1558 H1548 0.930 . S
C1558 C1556 1.419 . S
C1558 C1559 1.362 . S
C1559 H1549 0.930 . S
C1559 C1552 1.409 . S
C1559 C1558 1.362 . S
H1560 C1566 0.930 . S
H1561 C1569 0.930 . S
H1562 C1570 0.930 . S
H1563 C1571 0.930 . S
H1564 C1574 0.930 . S
H1565 C1575 0.930 . S
C1566 H1560 0.930 . S
C1566 C1567 1.355 . S
C1566 C1568 1.415 . S
C1567 C1566 1.355 . S
C1567 C1569 1.419 . S
C1568 C1566 1.415 . S
C1568 C1573 1.425 . S
C1568 C1575 1.409 . S
C1569 H1561 0.930 . S
C1569 C1567 1.419 . S
C1569 C1570 1.362 . S
C1570 H1562 0.930 . S
C1570 C1569 1.362 . S
C1570 C1573 1.409 . S
C1571 H1563 0.930 . S
C1571 C1572 1.355 . S
C1571 C1573 1.415 . S
C1572 C1571 1.355 . S
C1572 C1574 1.419 . S
C1573 C1568 1.425 . S
C1573 C1570 1.409 . S
C1573 C1571 1.415 . S
C1574 H1564 0.930 . S
C1574 C1572 1.419 . S
C1574 C1575 1.362 . S
C1575 H1565 0.930 . S
C1575 C1568 1.409 . S
C1575 C1574 1.362 . S
H1576 C1582 0.930 . S
H1577 C1585 0.930 . S
H1578 C1586 0.930 . S
H1579 C1587 0.930 . S
H1580 C1590 0.930 . S
H1581 C1591 0.930 . S
C1582 H1576 0.930 . S
C1582 C1583 1.355 . S
C1582 C1584 1.415 . S
C1583 C1582 1.355 . S
C1583 C1585 1.419 . S
C1584 C1582 1.415 . S
C1584 C1589 1.425 . S
C1584 C1591 1.409 . S
C1585 H1577 0.930 . S
C1585 C1583 1.419 . S
C1585 C1586 1.362 . S
C1586 H1578 0.930 . S
C1586 C1585 1.362 . S
C1586 C1589 1.409 . S
C1587 H1579 0.930 . S
C1587 C1588 1.355 . S
C1587 C1589 1.415 . S
C1588 C1587 1.355 . S
C1588 C1590 1.419 . S
C1589 C1584 1.425 . S
C1589 C1586 1.409 . S
C1589 C1587 1.415 . S
C1590 H1580 0.930 . S
C1590 C1588 1.419 . S
C1590 C1591 1.362 . S
C1591 H1581 0.930 . S
C1591 C1584 1.409 . S
C1591 C1590 1.362 . S
H1592 C1598 0.930 . S
H1593 C1601 0.930 . S
H1594 C1602 0.930 . S
H1595 C1603 0.930 . S
H1596 C1606 0.930 . S
H1597 C1607 0.930 . S
C1598 H1592 0.930 . S
C1598 C1599 1.355 . S
C1598 C1600 1.415 . S
C1599 C1598 1.355 . S
C1599 C1601 1.419 . S
C1600 C1598 1.415 . S
C1600 C1605 1.425 . S
C1600 C1607 1.409 . S
C1601 H1593 0.930 . S
C1601 C1599 1.419 . S
C1601 C1602 1.362 . S
C1602 H1594 0.930 . S
C1602 C1601 1.362 . S
C1602 C1605 1.409 . S
C1603 H1595 0.930 . S
C1603 C1604 1.355 . S
C1603 C1605 1.415 . S
C1604 C1603 1.355 . S
C1604 C1606 1.419 . S
C1605 C1600 1.425 . S
C1605 C1602 1.409 . S
C1605 C1603 1.415 . S
C1606 H1596 0.930 . S
C1606 C1604 1.419 . S
C1606 C1607 1.362 . S
C1607 H1597 0.930 . S
C1607 C1600 1.409 . S
C1607 C1606 1.362 . S
H1608 C1614 0.930 . S
H1609 C1617 0.930 . S
H1610 C1618 0.930 . S
H1611 C1619 0.930 . S
H1612 C1622 0.930 . S
H1613 C1623 0.930 . S
C1614 H1608 0.930 . S
C1614 C1615 1.355 . S
C1614 C1616 1.415 . S
C1615 C1614 1.355 . S
C1615 C1617 1.419 . S
C1616 C1614 1.415 . S
C1616 C1621 1.425 . S
C1616 C1623 1.409 . S
C1617 H1609 0.930 . S
C1617 C1615 1.419 . S
C1617 C1618 1.362 . S
C1618 H1610 0.930 . S
C1618 C1617 1.362 . S
C1618 C1621 1.409 . S
C1619 H1611 0.930 . S
C1619 C1620 1.355 . S
C1619 C1621 1.415 . S
C1620 C1619 1.355 . S
C1620 C1622 1.419 . S
C1621 C1616 1.425 . S
C1621 C1618 1.409 . S
C1621 C1619 1.415 . S
C1622 H1612 0.930 . S
C1622 C1620 1.419 . S
C1622 C1623 1.362 . S
C1623 H1613 0.930 . S
C1623 C1616 1.409 . S
C1623 C1622 1.362 . S
H1624 C1630 0.930 . S
H1625 C1633 0.930 . S
H1626 C1634 0.930 . S
H1627 C1635 0.930 . S
H1628 C1638 0.930 . S
H1629 C1639 0.930 . S
C1630 H1624 0.930 . S
C1630 C1631 1.355 . S
C1630 C1632 1.415 . S
C1631 C1630 1.355 . S
C1631 C1633 1.419 . S
C1632 C1630 1.415 . S
C1632 C1637 1.425 . S
C1632 C1639 1.409 . S
C1633 H1625 0.930 . S
C1633 C1631 1.419 . S
C1633 C1634 1.362 . S
C1634 H1626 0.930 . S
C1634 C1633 1.362 . S
C1634 C1637 1.409 . S
C1635 H1627 0.930 . S
C1635 C1636 1.355 . S
C1635 C1637 1.415 . S
C1636 C1635 1.355 . S
C1636 C1638 1.419 . S
C1637 C1632 1.425 . S
C1637 C1634 1.409 . S
C1637 C1635 1.415 . S
C1638 H1628 0.930 . S
C1638 C1636 1.419 . S
C1638 C1639 1.362 . S
C1639 H1629 0.930 . S
C1639 C1632 1.409 . S
C1639 C1638 1.362 . S
H1640 C1646 0.930 . S
H1641 C1649 0.930 . S
H1642 C1650 0.930 . S
H1643 C1651 0.930 . S
H1644 C1654 0.930 . S
H1645 C1655 0.930 . S
C1646 H1640 0.930 . S
C1646 C1647 1.355 . S
C1646 C1648 1.415 . S
C1647 C1646 1.355 . S
C1647 C1649 1.419 . S
C1648 C1646 1.415 . S
C1648 C1653 1.425 . S
C1648 C1655 1.409 . S
C1649 H1641 0.930 . S
C1649 C1647 1.419 . S
C1649 C1650 1.362 . S
C1650 H1642 0.930 . S
C1650 C1649 1.362 . S
C1650 C1653 1.409 . S
C1651 H1643 0.930 . S
C1651 C1652 1.355 . S
C1651 C1653 1.415 . S
C1652 C1651 1.355 . S
C1652 C1654 1.419 . S
C1653 C1648 1.425 . S
C1653 C1650 1.409 . S
C1653 C1651 1.415 . S
C1654 H1644 0.930 . S
C1654 C1652 1.419 . S
C1654 C1655 1.362 . S
C1655 H1645 0.930 . S
C1655 C1648 1.409 . S
C1655 C1654 1.362 . S
H1656 C1662 0.930 . S
H1657 C1665 0.930 . S
H1658 C1666 0.930 . S
H1659 C1667 0.930 . S
H1660 C1670 0.930 . S
H1661 C1671 0.930 . S
C1662 H1656 0.930 . S
C1662 C1663 1.355 . S
C1662 C1664 1.415 . S
C1663 C1662 1.355 . S
C1663 C1665 1.419 . S
C1664 C1662 1.415 . S
C1664 C1669 1.425 . S
C1664 C1671 1.409 . S
C1665 H1657 0.930 . S
C1665 C1663 1.419 . S
C1665 C1666 1.362 . S
C1666 H1658 0.930 . S
C1666 C1665 1.362 . S
C1666 C1669 1.409 . S
C1667 H1659 0.930 . S
C1667 C1668 1.355 . S
C1667 C1669 1.415 . S
C1668 C1667 1.355 . S
C1668 C1670 1.419 . S
C1669 C1664 1.425 . S
C1669 C1666 1.409 . S
C1669 C1667 1.415 . S
C1670 H1660 0.930 . S
C1670 C1668 1.419 . S
C1670 C1671 1.362 . S
C1671 H1661 0.930 . S
C1671 C1664 1.409 . S
C1671 C1670 1.362 . S
H1672 C1678 0.930 . S
H1673 C1681 0.930 . S
H1674 C1682 0.930 . S
H1675 C1683 0.930 . S
H1676 C1686 0.930 . S
H1677 C1687 0.930 . S
C1678 H1672 0.930 . S
C1678 C1679 1.355 . S
C1678 C1680 1.415 . S
C1679 C1678 1.355 . S
C1679 C1681 1.419 . S
C1680 C1678 1.415 . S
C1680 C1685 1.425 . S
C1680 C1687 1.409 . S
C1681 H1673 0.930 . S
C1681 C1679 1.419 . S
C1681 C1682 1.362 . S
C1682 H1674 0.930 . S
C1682 C1681 1.362 . S
C1682 C1685 1.409 . S
C1683 H1675 0.930 . S
C1683 C1684 1.355 . S
C1683 C1685 1.415 . S
C1684 C1683 1.355 . S
C1684 C1686 1.419 . S
C1685 C1680 1.425 . S
C1685 C1682 1.409 . S
C1685 C1683 1.415 . S
C1686 H1676 0.930 . S
C1686 C1684 1.419 . S
C1686 C1687 1.362 . S
C1687 H1677 0.930 . S
C1687 C1680 1.409 . S
C1687 C1686 1.362 . S
H1688 C1694 0.930 . S
H1689 C1697 0.930 . S
H1690 C1698 0.930 . S
H1691 C1699 0.930 . S
H1692 C1702 0.930 . S
H1693 C1703 0.930 . S
C1694 H1688 0.930 . S
C1694 C1695 1.355 . S
C1694 C1696 1.415 . S
C1695 C1694 1.355 . S
C1695 C1697 1.419 . S
C1696 C1694 1.415 . S
C1696 C1701 1.425 . S
C1696 C1703 1.409 . S
C1697 H1689 0.930 . S
C1697 C1695 1.419 . S
C1697 C1698 1.362 . S
C1698 H1690 0.930 . S
C1698 C1697 1.362 . S
C1698 C1701 1.409 . S
C1699 H1691 0.930 . S
C1699 C1700 1.355 . S
C1699 C1701 1.415 . S
C1700 C1699 1.355 . S
C1700 C1702 1.419 . S
C1701 C1696 1.425 . S
C1701 C1698 1.409 . S
C1701 C1699 1.415 . S
C1702 H1692 0.930 . S
C1702 C1700 1.419 . S
C1702 C1703 1.362 . S
C1703 H1693 0.930 . S
C1703 C1696 1.409 . S
C1703 C1702 1.362 . S
H1704 C1710 0.930 . S
H1705 C1713 0.930 . S
H1706 C1714 0.930 . S
H1707 C1715 0.930 . S
H1708 C1718 0.930 . S
H1709 C1719 0.930 . S
C1710 H1704 0.930 . S
C1710 C1711 1.355 . S
C1710 C1712 1.415 . S
C1711 C1710 1.355 . S
C1711 C1713 1.419 . S
C1712 C1710 1.415 . S
C1712 C1717 1.425 . S
C1712 C1719 1.409 . S
C1713 H1705 0.930 . S
C1713 C1711 1.419 . S
C1713 C1714 1.362 . S
C1714 H1706 0.930 . S
C1714 C1713 1.362 . S
C1714 C1717 1.409 . S
C1715 H1707 0.930 . S
C1715 C1716 1.355 . S
C1715 C1717 1.415 . S
C1716 C1715 1.355 . S
C1716 C1718 1.419 . S
C1717 C1712 1.425 . S
C1717 C1714 1.409 . S
C1717 C1715 1.415 . S
C1718 H1708 0.930 . S
C1718 C1716 1.419 . S
C1718 C1719 1.362 . S
C1719 H1709 0.930 . S
C1719 C1712 1.409 . S
C1719 C1718 1.362 . S
H1720 C1726 0.930 1_554 S
H1721 C1729 0.930 . S
H1722 C1730 0.930 . S
H1723 C1731 0.930 . S
H1724 C1734 0.930 . S
H1725 C1735 0.930 . S
C1726 H1720 0.930 1_556 S
C1726 C1727 1.355 . S
C1726 C1728 1.415 . S
C1727 C1726 1.355 . S
C1727 C1729 1.419 . S
C1728 C1726 1.415 . S
C1728 C1733 1.425 . S
C1728 C1735 1.409 . S
C1729 H1721 0.930 . S
C1729 C1727 1.419 . S
C1729 C1730 1.362 . S
C1730 H1722 0.930 . S
C1730 C1729 1.362 . S
C1730 C1733 1.409 . S
C1731 H1723 0.930 . S
C1731 C1732 1.355 . S
C1731 C1733 1.415 . S
C1732 C1731 1.355 . S
C1732 C1734 1.419 . S
C1733 C1728 1.425 . S
C1733 C1730 1.409 . S
C1733 C1731 1.415 . S
C1734 H1724 0.930 . S
C1734 C1732 1.419 . S
C1734 C1735 1.362 . S
C1735 H1725 0.930 . S
C1735 C1728 1.409 . S
C1735 C1734 1.362 . S
H1736 C1742 0.921 1_554 S
H1737 C1745 0.930 . S
H1738 C1746 0.930 . S
H1739 C1747 0.930 . S
H1740 C1750 0.930 . S
H1741 C1751 0.930 . S
C1742 H1736 0.921 1_556 S
C1742 C1743 1.355 . S
C1742 C1744 1.415 . S
C1743 C1742 1.355 . S
C1743 C1745 1.419 . S
C1744 C1742 1.415 . S
C1744 C1749 1.425 . S
C1744 C1751 1.409 . S
C1745 H1737 0.930 . S
C1745 C1743 1.419 . S
C1745 C1746 1.362 . S
C1746 H1738 0.930 . S
C1746 C1745 1.362 . S
C1746 C1749 1.409 . S
C1747 H1739 0.930 . S
C1747 C1748 1.355 . S
C1747 C1749 1.415 . S
C1748 C1747 1.355 . S
C1748 C1750 1.419 . S
C1749 C1744 1.425 . S
C1749 C1746 1.409 . S
C1749 C1747 1.415 . S
C1750 H1740 0.930 . S
C1750 C1748 1.419 . S
C1750 C1751 1.362 . S
C1751 H1741 0.930 . S
C1751 C1744 1.409 . S
C1751 C1750 1.362 . S
H1752 C1758 0.930 . S
H1753 C1761 0.930 1_554 S
H1754 C1762 0.930 . S
H1755 C1763 0.930 . S
H1756 C1766 0.930 . S
H1757 C1767 0.930 . S
C1758 H1752 0.930 . S
C1758 C1759 1.355 . S
C1758 C1760 1.415 . S
C1759 C1758 1.355 . S
C1759 C1761 1.419 . S
C1760 C1758 1.415 . S
C1760 C1765 1.425 . S
C1760 C1767 1.409 . S
C1761 H1753 0.930 1_556 S
C1761 C1759 1.419 . S
C1761 C1762 1.362 . S
C1762 H1754 0.930 . S
C1762 C1761 1.362 . S
C1762 C1765 1.409 . S
C1763 H1755 0.930 . S
C1763 C1764 1.355 . S
C1763 C1765 1.415 . S
C1764 C1763 1.355 . S
C1764 C1766 1.419 . S
C1765 C1760 1.425 . S
C1765 C1762 1.409 . S
C1765 C1763 1.415 . S
C1766 H1756 0.930 . S
C1766 C1764 1.419 . S
C1766 C1767 1.362 . S
C1767 H1757 0.930 . S
C1767 C1760 1.409 . S
C1767 C1766 1.362 . S
H1768 C1774 0.930 . S
H1769 C1777 0.930 . S
H1770 C1778 0.930 . S
H1771 C1779 0.930 . S
H1772 C1782 0.930 . S
H1773 C1783 0.930 . S
C1774 H1768 0.930 . S
C1774 C1775 1.355 . S
C1774 C1776 1.415 . S
C1775 C1774 1.355 . S
C1775 C1777 1.419 . S
C1776 C1774 1.415 . S
C1776 C1781 1.425 . S
C1776 C1783 1.409 . S
C1777 H1769 0.930 . S
C1777 C1775 1.419 . S
C1777 C1778 1.362 . S
C1778 H1770 0.930 . S
C1778 C1777 1.362 . S
C1778 C1781 1.409 . S
C1779 H1771 0.930 . S
C1779 C1780 1.355 . S
C1779 C1781 1.415 . S
C1780 C1779 1.355 . S
C1780 C1782 1.419 . S
C1781 C1776 1.425 . S
C1781 C1778 1.409 . S
C1781 C1779 1.415 . S
C1782 H1772 0.930 . S
C1782 C1780 1.419 . S
C1782 C1783 1.362 . S
C1783 H1773 0.930 . S
C1783 C1776 1.409 . S
C1783 C1782 1.362 . S
H1784 C1790 0.930 . S
H1785 C1793 0.930 1_554 S
H1786 C1794 0.930 . S
H1787 C1795 0.930 . S
H1788 C1798 0.930 . S
H1789 C1799 0.930 . S
C1790 H1784 0.930 . S
C1790 C1791 1.355 . S
C1790 C1792 1.415 . S
C1791 C1790 1.355 . S
C1791 C1793 1.419 . S
C1792 C1790 1.415 . S
C1792 C1797 1.425 . S
C1792 C1799 1.409 . S
C1793 H1785 0.930 1_556 S
C1793 C1791 1.419 . S
C1793 C1794 1.362 . S
C1794 H1786 0.930 . S
C1794 C1793 1.362 . S
C1794 C1797 1.409 . S
C1795 H1787 0.930 . S
C1795 C1796 1.355 . S
C1795 C1797 1.415 . S
C1796 C1795 1.355 . S
C1796 C1798 1.419 . S
C1797 C1792 1.425 . S
C1797 C1794 1.409 . S
C1797 C1795 1.415 . S
C1798 H1788 0.930 . S
C1798 C1796 1.419 . S
C1798 C1799 1.362 . S
C1799 H1789 0.930 . S
C1799 C1792 1.409 . S
C1799 C1798 1.362 . S
H1800 C1806 0.930 . S
H1801 C1809 0.930 . S
H1802 C1810 0.930 . S
H1803 C1811 0.930 . S
H1804 C1814 0.930 . S
H1805 C1815 0.930 . S
C1806 H1800 0.930 . S
C1806 C1807 1.355 . S
C1806 C1808 1.415 . S
C1807 C1806 1.355 . S
C1807 C1809 1.419 . S
C1808 C1806 1.415 . S
C1808 C1813 1.425 . S
C1808 C1815 1.409 . S
C1809 H1801 0.930 . S
C1809 C1807 1.419 . S
C1809 C1810 1.362 . S
C1810 H1802 0.930 . S
C1810 C1809 1.362 . S
C1810 C1813 1.409 . S
C1811 H1803 0.930 . S
C1811 C1812 1.355 . S
C1811 C1813 1.415 . S
C1812 C1811 1.355 . S
C1812 C1814 1.419 . S
C1813 C1808 1.425 . S
C1813 C1810 1.409 . S
C1813 C1811 1.415 . S
C1814 H1804 0.930 . S
C1814 C1812 1.419 . S
C1814 C1815 1.362 . S
C1815 H1805 0.930 . S
C1815 C1808 1.409 . S
C1815 C1814 1.362 . S
H1816 C1822 0.930 . S
H1817 C1825 0.930 . S
H1818 C1826 0.930 . S
H1819 C1827 0.930 . S
H1820 C1830 0.930 . S
H1821 C1831 0.930 . S
C1822 H1816 0.930 . S
C1822 C1823 1.355 . S
C1822 C1824 1.415 . S
C1823 C1822 1.355 . S
C1823 C1825 1.419 . S
C1824 C1822 1.415 . S
C1824 C1829 1.425 . S
C1824 C1831 1.409 . S
C1825 H1817 0.930 . S
C1825 C1823 1.419 . S
C1825 C1826 1.362 . S
C1826 H1818 0.930 . S
C1826 C1825 1.362 . S
C1826 C1829 1.409 . S
C1827 H1819 0.930 . S
C1827 C1828 1.355 . S
C1827 C1829 1.415 . S
C1828 C1827 1.355 . S
C1828 C1830 1.419 . S
C1829 C1824 1.425 . S
C1829 C1826 1.409 . S
C1829 C1827 1.415 . S
C1830 H1820 0.930 . S
C1830 C1828 1.419 . S
C1830 C1831 1.362 . S
C1831 H1821 0.930 . S
C1831 C1824 1.409 . S
C1831 C1830 1.362 . S
H1832 C1838 0.930 . S
H1833 C1841 0.930 . S
H1834 C1842 0.930 . S
H1835 C1843 0.930 . S
H1836 C1846 0.930 . S
H1837 C1847 0.930 . S
C1838 H1832 0.930 . S
C1838 C1839 1.355 . S
C1838 C1840 1.415 . S
C1839 C1838 1.355 . S
C1839 C1841 1.419 . S
C1840 C1838 1.415 . S
C1840 C1845 1.425 . S
C1840 C1847 1.409 . S
C1841 H1833 0.930 . S
C1841 C1839 1.419 . S
C1841 C1842 1.362 . S
C1842 H1834 0.930 . S
C1842 C1841 1.362 . S
C1842 C1845 1.409 . S
C1843 H1835 0.930 . S
C1843 C1844 1.355 . S
C1843 C1845 1.415 . S
C1844 C1843 1.355 . S
C1844 C1846 1.419 . S
C1845 C1840 1.425 . S
C1845 C1842 1.409 . S
C1845 C1843 1.415 . S
C1846 H1836 0.930 . S
C1846 C1844 1.419 . S
C1846 C1847 1.362 . S
C1847 H1837 0.930 . S
C1847 C1840 1.409 . S
C1847 C1846 1.362 . S
H1848 C1854 0.930 . S
H1849 C1857 0.930 . S
H1850 C1858 0.930 . S
H1851 C1859 0.930 . S
H1852 C1862 0.930 . S
H1853 C1863 0.930 . S
C1854 H1848 0.930 . S
C1854 C1855 1.355 . S
C1854 C1856 1.415 . S
C1855 C1854 1.355 . S
C1855 C1857 1.419 . S
C1856 C1854 1.415 . S
C1856 C1861 1.425 . S
C1856 C1863 1.409 . S
C1857 H1849 0.930 . S
C1857 C1855 1.419 . S
C1857 C1858 1.362 . S
C1858 H1850 0.930 . S
C1858 C1857 1.362 . S
C1858 C1861 1.409 . S
C1859 H1851 0.930 . S
C1859 C1860 1.355 . S
C1859 C1861 1.415 . S
C1860 C1859 1.355 . S
C1860 C1862 1.419 . S
C1861 C1856 1.425 . S
C1861 C1858 1.409 . S
C1861 C1859 1.415 . S
C1862 H1852 0.930 . S
C1862 C1860 1.419 . S
C1862 C1863 1.362 . S
C1863 H1853 0.930 . S
C1863 C1856 1.409 . S
C1863 C1862 1.362 . S
H1864 C1870 0.930 . S
H1865 C1873 0.930 . S
H1866 C1874 0.930 . S
H1867 C1875 0.930 . S
H1868 C1878 0.930 . S
H1869 C1879 0.930 . S
C1870 H1864 0.930 . S
C1870 C1871 1.355 . S
C1870 C1872 1.415 . S
C1871 C1870 1.355 . S
C1871 C1873 1.419 . S
C1872 C1870 1.415 . S
C1872 C1877 1.425 . S
C1872 C1879 1.409 . S
C1873 H1865 0.930 . S
C1873 C1871 1.419 . S
C1873 C1874 1.362 . S
C1874 H1866 0.930 . S
C1874 C1873 1.362 . S
C1874 C1877 1.409 . S
C1875 H1867 0.930 . S
C1875 C1876 1.355 . S
C1875 C1877 1.415 . S
C1876 C1875 1.355 . S
C1876 C1878 1.419 . S
C1877 C1872 1.425 . S
C1877 C1874 1.409 . S
C1877 C1875 1.415 . S
C1878 H1868 0.930 . S
C1878 C1876 1.419 . S
C1878 C1879 1.362 . S
C1879 H1869 0.930 . S
C1879 C1872 1.409 . S
C1879 C1878 1.362 . S
H1880 C1886 0.930 . S
H1881 C1889 0.930 . S
H1882 C1890 0.930 . S
H1883 C1891 0.930 . S
H1884 C1894 0.930 . S
H1885 C1895 0.930 . S
C1886 H1880 0.930 . S
C1886 C1887 1.355 . S
C1886 C1888 1.415 . S
C1887 C1886 1.355 . S
C1887 C1889 1.419 . S
C1888 C1886 1.415 . S
C1888 C1893 1.425 . S
C1888 C1895 1.409 . S
C1889 H1881 0.930 . S
C1889 C1887 1.419 . S
C1889 C1890 1.362 . S
C1890 H1882 0.930 . S
C1890 C1889 1.362 . S
C1890 C1893 1.409 . S
C1891 H1883 0.930 . S
C1891 C1892 1.355 . S
C1891 C1893 1.415 . S
C1892 C1891 1.355 . S
C1892 C1894 1.419 . S
C1893 C1888 1.425 . S
C1893 C1890 1.409 . S
C1893 C1891 1.415 . S
C1894 H1884 0.930 . S
C1894 C1892 1.419 . S
C1894 C1895 1.362 . S
C1895 H1885 0.930 . S
C1895 C1888 1.409 . S
C1895 C1894 1.362 . S
H1896 C1902 0.919 1_655 S
H1897 C1905 0.930 . S
H1898 C1906 0.930 . S
H1899 C1907 0.930 . S
H1900 C1910 0.930 . S
H1901 C1911 0.930 . S
C1902 H1896 0.919 1_455 S
C1902 C1903 1.374 . S
C1902 C1904 1.427 . S
C1903 C1902 1.374 . S
C1903 C1905 1.419 . S
C1904 C1902 1.427 . S
C1904 C1909 1.454 . S
C1904 C1911 1.362 1_455 S
C1905 H1897 0.930 . S
C1905 C1903 1.419 . S
C1905 C1906 1.362 . S
C1906 H1898 0.930 . S
C1906 C1905 1.362 . S
C1906 C1909 1.409 . S
C1907 H1899 0.930 . S
C1907 C1908 1.355 . S
C1907 C1909 1.415 . S
C1908 C1907 1.355 . S
C1908 C1910 1.419 1_455 S
C1909 C1904 1.454 . S
C1909 C1906 1.409 . S
C1909 C1907 1.415 . S
C1910 H1900 0.930 . S
C1910 C1908 1.419 1_655 S
C1910 C1911 1.362 . S
C1911 H1901 0.930 . S
C1911 C1904 1.362 1_655 S
C1911 C1910 1.362 . S
H1912 C1918 0.930 . S
H1913 C1921 0.930 . S
H1914 C1922 0.930 . S
H1915 C1923 0.930 . S
H1916 C1926 0.930 . S
H1917 C1927 0.930 . S
C1918 H1912 0.930 . S
C1918 C1919 1.355 . S
C1918 C1920 1.415 . S
C1919 C1918 1.355 . S
C1919 C1921 1.419 . S
C1920 C1918 1.415 . S
C1920 C1925 1.425 . S
C1920 C1927 1.409 . S
C1921 H1913 0.930 . S
C1921 C1919 1.419 . S
C1921 C1922 1.362 . S
C1922 H1914 0.930 . S
C1922 C1921 1.362 . S
C1922 C1925 1.409 . S
C1923 H1915 0.930 . S
C1923 C1924 1.355 . S
C1923 C1925 1.415 . S
C1924 C1923 1.355 . S
C1924 C1926 1.419 . S
C1925 C1920 1.425 . S
C1925 C1922 1.409 . S
C1925 C1923 1.415 . S
C1926 H1916 0.930 . S
C1926 C1924 1.419 . S
C1926 C1927 1.362 . S
C1927 H1917 0.930 . S
C1927 C1920 1.409 . S
C1927 C1926 1.362 . S
H1928 C1934 0.930 . S
H1929 C1937 0.930 . S
H1930 C1938 0.930 . S
H1931 C1939 0.930 . S
H1932 C1942 0.930 . S
H1933 C1943 0.930 . S
C1934 H1928 0.930 . S
C1934 C1935 1.355 . S
C1934 C1936 1.415 . S
C1935 C1934 1.355 . S
C1935 C1937 1.419 1_565 S
C1936 C1934 1.415 . S
C1936 C1941 1.393 1_565 S
C1936 C1943 1.409 . S
C1937 H1929 0.930 . S
C1937 C1935 1.419 1_545 S
C1937 C1938 1.362 . S
C1938 H1930 0.930 . S
C1938 C1937 1.362 . S
C1938 C1941 1.448 . S
C1939 H1931 0.930 . S
C1939 C1940 1.355 1_545 S
C1939 C1941 1.408 . S
C1940 C1939 1.355 1_565 S
C1940 C1942 1.419 . S
C1941 C1936 1.393 1_545 S
C1941 C1938 1.448 . S
C1941 C1939 1.408 . S
C1942 H1932 0.930 . S
C1942 C1940 1.419 . S
C1942 C1943 1.362 . S
C1943 H1933 0.930 . S
C1943 C1936 1.409 . S
C1943 C1942 1.362 . S
H1944 C1950 0.930 . S
H1945 C1953 0.930 . S
H1946 C1954 0.930 1_545 S
H1947 C1955 0.930 1_545 S
H1948 C1958 0.930 . S
H1949 C1959 0.930 . S
C1950 H1944 0.930 . S
C1950 C1951 1.355 . S
C1950 C1952 1.415 . S
C1951 C1950 1.355 . S
C1951 C1953 1.419 . S
C1952 C1950 1.415 . S
C1952 C1957 1.425 . S
C1952 C1959 1.409 . S
C1953 H1945 0.930 . S
C1953 C1951 1.419 . S
C1953 C1954 1.362 . S
C1954 H1946 0.930 1_565 S
C1954 C1953 1.362 . S
C1954 C1957 1.409 . S
C1955 H1947 0.930 1_565 S
C1955 C1956 1.355 . S
C1955 C1957 1.415 . S
C1956 C1955 1.355 . S
C1956 C1958 1.419 . S
C1957 C1952 1.425 . S
C1957 C1954 1.409 . S
C1957 C1955 1.415 . S
C1958 H1948 0.930 . S
C1958 C1956 1.419 . S
C1958 C1959 1.362 . S
C1959 H1949 0.930 . S
C1959 C1952 1.409 . S
C1959 C1958 1.362 . S
H1960 C1966 0.930 . S
H1961 C1969 0.930 . S
H1962 C1970 0.930 . S
H1963 C1971 0.930 . S
H1964 C1974 0.930 . S
H1965 C1975 0.930 . S
C1966 H1960 0.930 . S
C1966 C1967 1.355 . S
C1966 C1968 1.415 . S
C1967 C1966 1.355 . S
C1967 C1969 1.419 1_455 S
C1968 C1966 1.415 . S
C1968 C1973 1.420 1_455 S
C1968 C1975 1.409 . S
C1969 H1961 0.930 . S
C1969 C1967 1.419 1_655 S
C1969 C1970 1.362 . S
C1970 H1962 0.930 . S
C1970 C1969 1.362 . S
C1970 C1973 1.415 . S
C1971 H1963 0.930 . S
C1971 C1972 1.355 1_655 S
C1971 C1973 1.414 . S
C1972 C1971 1.355 1_455 S
C1972 C1974 1.419 . S
C1973 C1968 1.420 1_655 S
C1973 C1970 1.415 . S
C1973 C1971 1.414 . S
C1974 H1964 0.930 . S
C1974 C1972 1.419 . S
C1974 C1975 1.362 . S
C1975 H1965 0.930 . S
C1975 C1968 1.409 . S
C1975 C1974 1.362 . S
H1976 C1982 0.930 . S
H1977 C1985 0.930 . S
H1978 C1986 0.930 . S
H1979 C1987 0.930 . S
H1980 C1990 0.930 . S
H1981 C1991 0.930 . S
C1982 H1976 0.930 . S
C1982 C1983 1.355 . S
C1982 C1984 1.415 . S
C1983 C1982 1.355 . S
C1983 C1985 1.419 . S
C1984 C1982 1.415 . S
C1984 C1989 1.425 . S
C1984 C1991 1.409 . S
C1985 H1977 0.930 . S
C1985 C1983 1.419 . S
C1985 C1986 1.362 . S
C1986 H1978 0.930 . S
C1986 C1985 1.362 . S
C1986 C1989 1.409 . S
C1987 H1979 0.930 . S
C1987 C1988 1.355 . S
C1987 C1989 1.415 . S
C1988 C1987 1.355 . S
C1988 C1990 1.419 . S
C1989 C1984 1.425 . S
C1989 C1986 1.409 . S
C1989 C1987 1.415 . S
C1990 H1980 0.930 . S
C1990 C1988 1.419 . S
C1990 C1991 1.362 . S
C1991 H1981 0.930 . S
C1991 C1984 1.409 . S
C1991 C1990 1.362 . S
H1992 C1998 0.930 . S
H1993 C2001 0.930 . S
H1994 C2002 0.930 . S
H1995 C2003 0.930 . S
H1996 C2006 0.930 . S
H1997 C2007 0.930 . S
C1998 H1992 0.930 . S
C1998 C1999 1.355 . S
C1998 C2000 1.415 . S
C1999 C1998 1.355 . S
C1999 C2001 1.419 . S
C2000 C1998 1.415 . S
C2000 C2005 1.425 . S
C2000 C2007 1.409 . S
C2001 H1993 0.930 . S
C2001 C1999 1.419 . S
C2001 C2002 1.362 . S
C2002 H1994 0.930 . S
C2002 C2001 1.362 . S
C2002 C2005 1.409 . S
C2003 H1995 0.930 . S
C2003 C2004 1.355 . S
C2003 C2005 1.415 . S
C2004 C2003 1.355 . S
C2004 C2006 1.419 . S
C2005 C2000 1.425 . S
C2005 C2002 1.409 . S
C2005 C2003 1.415 . S
C2006 H1996 0.930 . S
C2006 C2004 1.419 . S
C2006 C2007 1.362 . S
C2007 H1997 0.930 . S
C2007 C2000 1.409 . S
C2007 C2006 1.362 . S
H2008 C2014 0.930 . S
H2009 C2017 0.930 . S
H2010 C2018 0.930 . S
H2011 C2019 0.930 . S
H2012 C2022 0.930 . S
H2013 C2023 0.930 . S
C2014 H2008 0.930 . S
C2014 C2015 1.355 . S
C2014 C2016 1.415 . S
C2015 C2014 1.355 . S
C2015 C2017 1.419 . S
C2016 C2014 1.415 . S
C2016 C2021 1.425 . S
C2016 C2023 1.409 . S
C2017 H2009 0.930 . S
C2017 C2015 1.419 . S
C2017 C2018 1.362 . S
C2018 H2010 0.930 . S
C2018 C2017 1.362 . S
C2018 C2021 1.409 . S
C2019 H2011 0.930 . S
C2019 C2020 1.355 . S
C2019 C2021 1.415 . S
C2020 C2019 1.355 . S
C2020 C2022 1.419 . S
C2021 C2016 1.425 . S
C2021 C2018 1.409 . S
C2021 C2019 1.415 . S
C2022 H2012 0.930 . S
C2022 C2020 1.419 . S
C2022 C2023 1.362 . S
C2023 H2013 0.930 . S
C2023 C2016 1.409 . S
C2023 C2022 1.362 . S
H2024 C2030 0.930 . S
H2025 C2033 0.930 . S
H2026 C2034 0.930 . S
H2027 C2035 0.930 . S
H2028 C2038 0.930 . S
H2029 C2039 0.930 . S
C2030 H2024 0.930 . S
C2030 C2031 1.355 . S
C2030 C2032 1.415 . S
C2031 C2030 1.355 . S
C2031 C2033 1.419 . S
C2032 C2030 1.415 . S
C2032 C2037 1.425 . S
C2032 C2039 1.409 . S
C2033 H2025 0.930 . S
C2033 C2031 1.419 . S
C2033 C2034 1.362 . S
C2034 H2026 0.930 . S
C2034 C2033 1.362 . S
C2034 C2037 1.409 . S
C2035 H2027 0.930 . S
C2035 C2036 1.355 . S
C2035 C2037 1.415 . S
C2036 C2035 1.355 . S
C2036 C2038 1.419 . S
C2037 C2032 1.425 . S
C2037 C2034 1.409 . S
C2037 C2035 1.415 . S
C2038 H2028 0.930 . S
C2038 C2036 1.419 . S
C2038 C2039 1.362 . S
C2039 H2029 0.930 . S
C2039 C2032 1.409 . S
C2039 C2038 1.362 . S
H2040 C2046 0.930 . S
H2041 C2049 0.930 . S
H2042 C2050 0.930 . S
H2043 C2051 0.930 . S
H2044 C2054 0.930 . S
H2045 C2055 0.930 . S
C2046 H2040 0.930 . S
C2046 C2047 1.355 . S
C2046 C2048 1.415 . S
C2047 C2046 1.355 . S
C2047 C2049 1.419 . S
C2048 C2046 1.415 . S
C2048 C2053 1.425 . S
C2048 C2055 1.409 . S
C2049 H2041 0.930 . S
C2049 C2047 1.419 . S
C2049 C2050 1.362 . S
C2050 H2042 0.930 . S
C2050 C2049 1.362 . S
C2050 C2053 1.409 . S
C2051 H2043 0.930 . S
C2051 C2052 1.355 . S
C2051 C2053 1.415 . S
C2052 C2051 1.355 . S
C2052 C2054 1.419 . S
C2053 C2048 1.425 . S
C2053 C2050 1.409 . S
C2053 C2051 1.415 . S
C2054 H2044 0.930 . S
C2054 C2052 1.419 . S
C2054 C2055 1.362 . S
C2055 H2045 0.930 . S
C2055 C2048 1.409 . S
C2055 C2054 1.362 . S
H2056 C2062 0.930 . S
H2057 C2065 0.938 . S
H2058 C2066 0.930 . S
H2059 C2067 0.930 . S
H2060 C2070 0.930 . S
H2061 C2071 0.930 . S
C2062 H2056 0.930 . S
C2062 C2063 1.355 . S
C2062 C2064 1.415 . S
C2063 C2062 1.355 . S
C2063 C2065 1.413 1_655 S
C2064 C2062 1.415 . S
C2064 C2069 1.425 . S
C2064 C2071 1.409 . S
C2065 H2057 0.938 . S
C2065 C2063 1.413 1_455 S
C2065 C2066 1.360 . S
C2066 H2058 0.930 . S
C2066 C2065 1.360 . S
C2066 C2069 1.409 1_455 S
C2067 H2059 0.930 . S
C2067 C2068 1.355 1_455 S
C2067 C2069 1.415 1_455 S
C2068 C2067 1.355 1_655 S
C2068 C2070 1.419 . S
C2069 C2064 1.425 . S
C2069 C2066 1.409 1_655 S
C2069 C2067 1.415 1_655 S
C2070 H2060 0.930 . S
C2070 C2068 1.419 . S
C2070 C2071 1.362 . S
C2071 H2061 0.930 . S
C2071 C2064 1.409 . S
C2071 C2070 1.362 . S
H2072 C2078 0.930 . S
H2073 C2081 0.930 . S
H2074 C2082 0.930 . S
H2075 C2083 0.930 . S
H2076 C2086 0.930 . S
H2077 C2087 0.930 . S
C2078 H2072 0.930 . S
C2078 C2079 1.355 . S
C2078 C2080 1.415 . S
C2079 C2078 1.355 . S
C2079 C2081 1.419 . S
C2080 C2078 1.415 . S
C2080 C2085 1.425 . S
C2080 C2087 1.409 . S
C2081 H2073 0.930 . S
C2081 C2079 1.419 . S
C2081 C2082 1.362 . S
C2082 H2074 0.930 . S
C2082 C2081 1.362 . S
C2082 C2085 1.409 . S
C2083 H2075 0.930 . S
C2083 C2084 1.355 . S
C2083 C2085 1.415 . S
C2084 C2083 1.355 . S
C2084 C2086 1.419 . S
C2085 C2080 1.425 . S
C2085 C2082 1.409 . S
C2085 C2083 1.415 . S
C2086 H2076 0.930 . S
C2086 C2084 1.419 . S
C2086 C2087 1.362 . S
C2087 H2077 0.930 . S
C2087 C2080 1.409 . S
C2087 C2086 1.362 . S
H2088 C2094 0.930 . S
H2089 C2097 0.930 . S
H2090 C2098 0.930 . S
H2091 C2099 0.930 . S
H2092 C2102 0.930 . S
H2093 C2103 0.930 . S
C2094 H2088 0.930 . S
C2094 C2095 1.355 . S
C2094 C2096 1.415 . S
C2095 C2094 1.355 . S
C2095 C2097 1.419 . S
C2096 C2094 1.415 . S
C2096 C2101 1.425 . S
C2096 C2103 1.409 . S
C2097 H2089 0.930 . S
C2097 C2095 1.419 . S
C2097 C2098 1.362 . S
C2098 H2090 0.930 . S
C2098 C2097 1.362 . S
C2098 C2101 1.409 . S
C2099 H2091 0.930 . S
C2099 C2100 1.355 . S
C2099 C2101 1.415 . S
C2100 C2099 1.355 . S
C2100 C2102 1.419 . S
C2101 C2096 1.425 . S
C2101 C2098 1.409 . S
C2101 C2099 1.415 . S
C2102 H2092 0.930 . S
C2102 C2100 1.419 . S
C2102 C2103 1.362 . S
C2103 H2093 0.930 . S
C2103 C2096 1.409 . S
C2103 C2102 1.362 . S
H2104 C2110 0.930 . S
H2105 C2113 0.930 . S
H2106 C2114 0.930 . S
H2107 C2115 0.930 . S
H2108 C2118 0.930 . S
H2109 C2119 0.930 . S
C2110 H2104 0.930 . S
C2110 C2111 1.355 . S
C2110 C2112 1.415 . S
C2111 C2110 1.355 . S
C2111 C2113 1.419 . S
C2112 C2110 1.415 . S
C2112 C2117 1.425 . S
C2112 C2119 1.409 . S
C2113 H2105 0.930 . S
C2113 C2111 1.419 . S
C2113 C2114 1.362 . S
C2114 H2106 0.930 . S
C2114 C2113 1.362 . S
C2114 C2117 1.409 . S
C2115 H2107 0.930 . S
C2115 C2116 1.355 . S
C2115 C2117 1.415 . S
C2116 C2115 1.355 . S
C2116 C2118 1.419 . S
C2117 C2112 1.425 . S
C2117 C2114 1.409 . S
C2117 C2115 1.415 . S
C2118 H2108 0.930 . S
C2118 C2116 1.419 . S
C2118 C2119 1.362 . S
C2119 H2109 0.930 . S
C2119 C2112 1.409 . S
C2119 C2118 1.362 . S
H2120 C2126 0.930 . S
H2121 C2129 0.930 . S
H2122 C2130 0.930 . S
H2123 C2131 0.930 . S
H2124 C2134 0.930 . S
H2125 C2135 0.930 . S
C2126 H2120 0.930 . S
C2126 C2127 1.355 . S
C2126 C2128 1.415 . S
C2127 C2126 1.355 . S
C2127 C2129 1.419 . S
C2128 C2126 1.415 . S
C2128 C2133 1.425 . S
C2128 C2135 1.409 . S
C2129 H2121 0.930 . S
C2129 C2127 1.419 . S
C2129 C2130 1.362 . S
C2130 H2122 0.930 . S
C2130 C2129 1.362 . S
C2130 C2133 1.409 . S
C2131 H2123 0.930 . S
C2131 C2132 1.355 . S
C2131 C2133 1.415 . S
C2132 C2131 1.355 . S
C2132 C2134 1.419 . S
C2133 C2128 1.425 . S
C2133 C2130 1.409 . S
C2133 C2131 1.415 . S
C2134 H2124 0.930 . S
C2134 C2132 1.419 . S
C2134 C2135 1.362 . S
C2135 H2125 0.930 . S
C2135 C2128 1.409 . S
C2135 C2134 1.362 . S
H2136 C2142 0.930 . S
H2137 C2145 0.930 . S
H2138 C2146 0.930 . S
H2139 C2147 0.930 . S
H2140 C2150 0.930 . S
H2141 C2151 0.930 . S
C2142 H2136 0.930 . S
C2142 C2143 1.355 . S
C2142 C2144 1.415 . S
C2143 C2142 1.355 . S
C2143 C2145 1.419 . S
C2144 C2142 1.415 . S
C2144 C2149 1.425 . S
C2144 C2151 1.409 . S
C2145 H2137 0.930 . S
C2145 C2143 1.419 . S
C2145 C2146 1.362 . S
C2146 H2138 0.930 . S
C2146 C2145 1.362 . S
C2146 C2149 1.409 . S
C2147 H2139 0.930 . S
C2147 C2148 1.355 . S
C2147 C2149 1.415 . S
C2148 C2147 1.355 . S
C2148 C2150 1.419 . S
C2149 C2144 1.425 . S
C2149 C2146 1.409 . S
C2149 C2147 1.415 . S
C2150 H2140 0.930 . S
C2150 C2148 1.419 . S
C2150 C2151 1.362 . S
C2151 H2141 0.930 . S
C2151 C2144 1.409 . S
C2151 C2150 1.362 . S
H2152 C2158 0.930 . S
H2153 C2161 0.930 . S
H2154 C2162 0.930 . S
H2155 C2163 0.930 . S
H2156 C2166 0.930 . S
H2157 C2167 0.930 . S
C2158 H2152 0.930 . S
C2158 C2159 1.355 . S
C2158 C2160 1.415 . S
C2159 C2158 1.355 . S
C2159 C2161 1.419 . S
C2160 C2158 1.415 . S
C2160 C2165 1.425 . S
C2160 C2167 1.409 . S
C2161 H2153 0.930 . S
C2161 C2159 1.419 . S
C2161 C2162 1.362 . S
C2162 H2154 0.930 . S
C2162 C2161 1.362 . S
C2162 C2165 1.409 . S
C2163 H2155 0.930 . S
C2163 C2164 1.355 . S
C2163 C2165 1.415 . S
C2164 C2163 1.355 . S
C2164 C2166 1.419 . S
C2165 C2160 1.425 . S
C2165 C2162 1.409 . S
C2165 C2163 1.415 . S
C2166 H2156 0.930 . S
C2166 C2164 1.419 . S
C2166 C2167 1.362 . S
C2167 H2157 0.930 . S
C2167 C2160 1.409 . S
C2167 C2166 1.362 . S
H2168 C2174 0.930 . S
H2169 C2177 0.930 . S
H2170 C2178 0.930 . S
H2171 C2179 0.930 . S
H2172 C2182 0.930 . S
H2173 C2183 0.930 . S
C2174 H2168 0.930 . S
C2174 C2175 1.355 . S
C2174 C2176 1.415 . S
C2175 C2174 1.355 . S
C2175 C2177 1.419 . S
C2176 C2174 1.415 . S
C2176 C2181 1.425 . S
C2176 C2183 1.409 . S
C2177 H2169 0.930 . S
C2177 C2175 1.419 . S
C2177 C2178 1.362 . S
C2178 H2170 0.930 . S
C2178 C2177 1.362 . S
C2178 C2181 1.409 . S
C2179 H2171 0.930 . S
C2179 C2180 1.355 . S
C2179 C2181 1.415 . S
C2180 C2179 1.355 . S
C2180 C2182 1.419 . S
C2181 C2176 1.425 . S
C2181 C2178 1.409 . S
C2181 C2179 1.415 . S
C2182 H2172 0.930 . S
C2182 C2180 1.419 . S
C2182 C2183 1.362 . S
C2183 H2173 0.930 . S
C2183 C2176 1.409 . S
C2183 C2182 1.362 . S
H2184 C2190 0.930 . S
H2185 C2193 0.930 . S
H2186 C2194 0.930 . S
H2187 C2195 0.930 . S
H2188 C2198 0.930 . S
H2189 C2199 0.930 . S
C2190 H2184 0.930 . S
C2190 C2191 1.355 . S
C2190 C2192 1.415 . S
C2191 C2190 1.355 . S
C2191 C2193 1.419 . S
C2192 C2190 1.415 . S
C2192 C2197 1.425 . S
C2192 C2199 1.409 . S
C2193 H2185 0.930 . S
C2193 C2191 1.419 . S
C2193 C2194 1.362 . S
C2194 H2186 0.930 . S
C2194 C2193 1.362 . S
C2194 C2197 1.409 . S
C2195 H2187 0.930 . S
C2195 C2196 1.355 . S
C2195 C2197 1.415 . S
C2196 C2195 1.355 . S
C2196 C2198 1.419 . S
C2197 C2192 1.425 . S
C2197 C2194 1.409 . S
C2197 C2195 1.415 . S
C2198 H2188 0.930 . S
C2198 C2196 1.419 . S
C2198 C2199 1.362 . S
C2199 H2189 0.930 . S
C2199 C2192 1.409 . S
C2199 C2198 1.362 . S
H2200 C2206 0.930 . S
H2201 C2209 0.930 . S
H2202 C2210 0.930 . S
H2203 C2211 0.930 . S
H2204 C2214 0.930 . S
H2205 C2215 0.930 . S
C2206 H2200 0.930 . S
C2206 C2207 1.355 . S
C2206 C2208 1.415 . S
C2207 C2206 1.355 . S
C2207 C2209 1.419 . S
C2208 C2206 1.415 . S
C2208 C2213 1.425 . S
C2208 C2215 1.409 . S
C2209 H2201 0.930 . S
C2209 C2207 1.419 . S
C2209 C2210 1.362 . S
C2210 H2202 0.930 . S
C2210 C2209 1.362 . S
C2210 C2213 1.409 . S
C2211 H2203 0.930 . S
C2211 C2212 1.355 . S
C2211 C2213 1.415 . S
C2212 C2211 1.355 . S
C2212 C2214 1.419 . S
C2213 C2208 1.425 . S
C2213 C2210 1.409 . S
C2213 C2211 1.415 . S
C2214 H2204 0.930 . S
C2214 C2212 1.419 . S
C2214 C2215 1.362 . S
C2215 H2205 0.930 . S
C2215 C2208 1.409 . S
C2215 C2214 1.362 . S
H2216 C2222 0.917 1_565 S
H2217 C2225 0.930 . S
H2218 C2226 0.930 . S
H2219 C2227 0.930 . S
H2220 C2230 0.930 . S
H2221 C2231 0.930 . S
C2222 H2216 0.917 1_545 S
C2222 C2223 1.361 . S
C2222 C2224 1.392 . S
C2223 C2222 1.361 . S
C2223 C2225 1.419 . S
C2224 C2222 1.392 . S
C2224 C2229 1.489 . S
C2224 C2231 1.379 1_545 S
C2225 H2217 0.930 . S
C2225 C2223 1.419 . S
C2225 C2226 1.362 . S
C2226 H2218 0.930 . S
C2226 C2225 1.362 . S
C2226 C2229 1.409 . S
C2227 H2219 0.930 . S
C2227 C2228 1.355 . S
C2227 C2229 1.415 . S
C2228 C2227 1.355 . S
C2228 C2230 1.419 1_545 S
C2229 C2224 1.489 . S
C2229 C2226 1.409 . S
C2229 C2227 1.415 . S
C2230 H2220 0.930 . S
C2230 C2228 1.419 1_565 S
C2230 C2231 1.362 . S
C2231 H2221 0.930 . S
C2231 C2224 1.379 1_565 S
C2231 C2230 1.362 . S
C1087 C4 1.464 . S
C1092 C688 1.474 . S
C1103 C26 1.550 . S
C1108 C734 1.517 . S
C1124 C766 1.429 . S
C1119 C32 1.413 . S
C1135 C40 1.412 . S
C1140 C819 1.430 . S
C1151 C12 1.460 . S
C1156 C865 1.488 . S
C1167 C18 1.448 . S
C1172 C904 1.523 . S
C1183 C46 1.457 . S
C1188 C858 1.465 . S
C1204 C911 1.527 . S
C1199 C68 1.549 . S
C1220 C812 1.444 . S
C1215 C74 1.369 . S
C1231 C82 1.388 . S
C1236 C773 1.423 . S
C1252 C667 1.484 . S
C1247 C54 1.445 . S
C1263 C60 1.439 . S
C1268 C713 1.509 . S
C1279 C88 1.584 . S
C1284 C943 1.622 . S
C1295 C110 1.619 . S
C1300 C1010 1.616 . S
C1316 C1056 1.599 . S
C1311 C116 1.574 . S
C1327 C124 1.487 . S
C1332 C267 1.461 . S
C1343 C96 1.561 . S
C1348 C313 1.528 . S
C1359 C102 1.555 . S
C1364 C359 1.545 . S
C1375 C130 1.551 . S
C1380 C306 1.544 . S
C1391 C152 1.602 . S
C1396 C352 1.604 . S
C1412 C260 1.575 . S
C1407 C158 1.581 . S
C1428 C1035 1.559 . S
C1423 C166 1.546 . S
C1444 C964 1.519 . S
C1439 C138 1.534 . S
C1460 C989 1.564 . S
C1455 C144 1.576 . S
C1471 C172 1.502 . S
C1476 C391 1.569 . S
C1487 C194 1.602 . S
C1492 C444 1.612 . S
C1503 C200 1.588 . S
C1508 C490 1.599 . S
C1519 C208 1.553 . S
C1524 C536 1.527 . S
C1540 C589 1.542 . S
C1535 C180 1.545 . S
C1556 C635 1.589 . S
C1551 C186 1.564 . S
C1572 C582 1.652 . S
C1567 C214 1.608 . S
C1588 C628 1.569 . S
C1583 C236 1.618 . S
C1599 C242 1.533 . S
C1604 C543 1.595 . S
C1620 C497 1.462 . S
C1615 C250 1.486 . S
C1631 C222 1.547 . S
C1636 C412 1.556 . S
C1652 C451 1.563 . S
C1647 C228 1.502 . S
C1668 C274 1.558 . S
C1663 C5 1.378 . S
C1679 C25 1.498 . S
C1684 C320 1.499 . S
C1700 C366 1.615 . S
C1695 C33 1.455 . S
C1716 C398 1.510 . S
C1711 C39 1.497 . S
C1732 C437 1.522 . S
C1727 C11 1.547 . S
C1748 C483 1.469 . S
C1743 C19 1.321 . S
C1759 C47 1.296 1_556 S
C1764 C504 1.537 . S
C1775 C67 1.514 . S
C1780 C405 1.486 . S
C1791 C75 1.359 1_556 S
C1796 C458 1.548 . S
C1807 C81 1.501 . S
C1812 C299 1.523 . S
C1828 C345 1.540 . S
C1823 C53 1.566 . S
C1839 C61 1.294 . S
C1844 C253 1.462 . S
C1860 C529 1.457 . S
C1855 C89 1.233 . S
C1871 C109 1.594 . S
C1876 C596 1.534 . S
C1887 C117 1.305 . S
C1892 C642 1.540 . S
C1908 C681 1.273 . S
C1903 C123 1.224 . S
C1919 C95 1.483 . S
C1924 C727 1.428 . S
C1935 C103 1.107 . S
C1940 C759 1.273 . S
C1951 C131 1.037 . S
C1956 C780 1.258 . S
C1967 C151 1.291 . S
C1972 C674 1.286 . S
C1988 C720 1.503 . S
C1983 C159 1.261 . S
C1999 C165 1.479 . S
C2004 C575 1.426 . S
C2015 C137 1.570 . S
C2020 C621 1.507 . S
C2036 C550 1.535 . S
C2031 C145 1.377 . S
C2052 C826 1.288 . S
C2047 C173 1.062 . S
C2063 C193 1.265 . S
C2068 C872 1.278 . S
C2079 C201 1.305 . S
C2084 C897 1.498 . S
C2100 C950 1.428 . S
C2095 C207 1.442 . S
C2116 C1003 1.559 . S
C2111 C179 1.575 . S
C2127 C187 1.246 . S
C2132 C1049 1.528 . S
C2143 C215 1.313 . S
C2148 C1042 1.546 . S
C2159 C235 1.580 . S
C2164 C957 1.556 . S
C2180 C996 1.534 . S
C2175 C243 1.299 . S
C2196 C851 1.260 . S
C2191 C249 1.203 . S
C2212 C918 1.426 . S
C2207 C221 1.491 . S
C2223 C229 1.079 . S
C2228 C805 1.283 . S
