# Generated by pormake.
# Topology sqc, (4,8)-cn, num edge types: 1
# Building blocks:
#     Node 0, Type 0, BuildingBlock: GIZVER_clean_linker_0, # of connection points: 4
#     Node 1, Type 0, BuildingBlock: GIZVER_clean_linker_0, # of connection points: 4
#     Node 2, Type 0, BuildingBlock: GIZVER_clean_linker_0, # of connection points: 4
#     Node 3, Type 0, BuildingBlock: GIZVER_clean_linker_0, # of connection points: 4
#     Node 4, Type 0, BuildingBlock: GIZVER_clean_linker_0, # of connection points: 4
#     Node 5, Type 0, BuildingBlock: GIZVER_clean_linker_0, # of connection points: 4
#     Node 6, Type 0, BuildingBlock: GIZVER_clean_linker_0, # of connection points: 4
#     Node 7, Type 0, BuildingBlock: GIZVER_clean_linker_0, # of connection points: 4
#     Node 8, Type 1, BuildingBlock: VETTIZ_charged_sbu_0, # of connection points: 8
#     Node 9, Type 1, BuildingBlock: VETTIZ_charged_sbu_0, # of connection points: 8
#     Node 10, Type 1, BuildingBlock: VETTIZ_charged_sbu_0, # of connection points: 8
#     Node 11, Type 1, BuildingBlock: VETTIZ_charged_sbu_0, # of connection points: 8
#     Edge 12, Type (0, 1), BuildingBlock: AJUNOK_clean_linker_0, # of connection points: 2
#     Edge 13, Type (0, 1), BuildingBlock: AJUNOK_clean_linker_0, # of connection points: 2
#     Edge 14, Type (0, 1), BuildingBlock: AJUNOK_clean_linker_0, # of connection points: 2
#     Edge 15, Type (0, 1), BuildingBlock: AJUNOK_clean_linker_0, # of connection points: 2
#     Edge 16, Type (0, 1), BuildingBlock: AJUNOK_clean_linker_0, # of connection points: 2
#     Edge 17, Type (0, 1), BuildingBlock: AJUNOK_clean_linker_0, # of connection points: 2
#     Edge 18, Type (0, 1), BuildingBlock: AJUNOK_clean_linker_0, # of connection points: 2
#     Edge 19, Type (0, 1), BuildingBlock: AJUNOK_clean_linker_0, # of connection points: 2
#     Edge 20, Type (0, 1), BuildingBlock: AJUNOK_clean_linker_0, # of connection points: 2
#     Edge 21, Type (0, 1), BuildingBlock: AJUNOK_clean_linker_0, # of connection points: 2
#     Edge 22, Type (0, 1), BuildingBlock: AJUNOK_clean_linker_0, # of connection points: 2
#     Edge 23, Type (0, 1), BuildingBlock: AJUNOK_clean_linker_0, # of connection points: 2
#     Edge 24, Type (0, 1), BuildingBlock: AJUNOK_clean_linker_0, # of connection points: 2
#     Edge 25, Type (0, 1), BuildingBlock: AJUNOK_clean_linker_0, # of connection points: 2
#     Edge 26, Type (0, 1), BuildingBlock: AJUNOK_clean_linker_0, # of connection points: 2
#     Edge 27, Type (0, 1), BuildingBlock: AJUNOK_clean_linker_0, # of connection points: 2
#     Edge 28, Type (0, 1), BuildingBlock: AJUNOK_clean_linker_0, # of connection points: 2
#     Edge 29, Type (0, 1), BuildingBlock: AJUNOK_clean_linker_0, # of connection points: 2
#     Edge 30, Type (0, 1), BuildingBlock: AJUNOK_clean_linker_0, # of connection points: 2
#     Edge 31, Type (0, 1), BuildingBlock: AJUNOK_clean_linker_0, # of connection points: 2
#     Edge 32, Type (0, 1), BuildingBlock: AJUNOK_clean_linker_0, # of connection points: 2
#     Edge 33, Type (0, 1), BuildingBlock: AJUNOK_clean_linker_0, # of connection points: 2
#     Edge 34, Type (0, 1), BuildingBlock: AJUNOK_clean_linker_0, # of connection points: 2
#     Edge 35, Type (0, 1), BuildingBlock: AJUNOK_clean_linker_0, # of connection points: 2
#     Edge 36, Type (0, 1), BuildingBlock: AJUNOK_clean_linker_0, # of connection points: 2
#     Edge 37, Type (0, 1), BuildingBlock: AJUNOK_clean_linker_0, # of connection points: 2
#     Edge 38, Type (0, 1), BuildingBlock: AJUNOK_clean_linker_0, # of connection points: 2
#     Edge 39, Type (0, 1), BuildingBlock: AJUNOK_clean_linker_0, # of connection points: 2
#     Edge 40, Type (0, 1), BuildingBlock: AJUNOK_clean_linker_0, # of connection points: 2
#     Edge 41, Type (0, 1), BuildingBlock: AJUNOK_clean_linker_0, # of connection points: 2
#     Edge 42, Type (0, 1), BuildingBlock: AJUNOK_clean_linker_0, # of connection points: 2
#     Edge 43, Type (0, 1), BuildingBlock: AJUNOK_clean_linker_0, # of connection points: 2
# Relax obj value: 0.167
# Max RMSD: 0.279
# Mean RMSD: 0.219
data_MOF--net-sqc--node1-VETTIZ_charged_sbu_0--node2-GIZVER_clean_linker_0--edge1-AJUNOK_clean_linker_0
_symmetry_space_group_name_H-M    P1
_symmetry_Int_Tables_number       1
_symmetry_cell_setting            triclinic
loop_
_symmetry_equiv_pos_as_xyz
'x, y, z'
_cell_length_a     18.907186
_cell_length_b     18.745106
_cell_length_c     51.920977
_cell_angle_alpha  90.301913
_cell_angle_beta   90.009729
_cell_angle_gamma 89.588769
loop_
_atom_site_label
_atom_site_type_symbol
_atom_site_fract_x
_atom_site_fract_y
_atom_site_fract_z
_atom_type_partial_charge
H0 H 0.90304 0.07979 0.4578 0.0
H1 H 0.94766 0.13926 0.53644 0.0
H2 H 0.75849 0.02429 0.51775 0.0
H3 H 0.98745 0.17431 0.46735 0.0
H4 H 0.99557 0.20834 0.49934 0.0
H5 H 0.0817 0.10522 0.45 0.0
H6 H 0.23526 1.00796 0.49845 0.0
H7 H 0.07559 0.14776 0.53103 0.0
C8 C 0.89038 0.07746 0.47813 0.0
C9 C 0.82728 0.04495 0.48605 0.0
C10 C 0.93423 0.11184 0.49636 0.0
C11 C 0.91533 0.11101 0.52258 0.0
C12 C 0.85226 0.07893 0.5307 0.0
C13 C 0.80942 0.04546 0.51222 0.0
C14 C 0.99504 0.15821 0.48777 0.0
C15 C 0.06558 0.12096 0.49101 0.0
C16 C 0.10191 0.09523 0.46919 0.0
C17 C 0.16632 0.05969 0.47225 0.0
C18 C 0.19009 0.04338 0.49697 0.0
C19 C 0.1637 0.08025 0.51866 0.0
C20 C 0.09902 0.11781 0.51542 0.0
H21 H 0.38265 0.86037 0.73357 0.0
H22 H 0.25847 0.83175 0.80287 0.0
H23 H 0.27427 0.03828 0.76804 0.0
H24 H 0.39424 0.75145 0.75581 0.0
H25 H 0.37484 0.75474 0.78907 0.0
H26 H 0.31949 0.68529 0.72589 0.0
H27 H 0.16865 0.54055 0.75894 0.0
H28 H 0.2854 0.68162 0.80727 0.0
C29 C 0.34675 0.88102 0.74812 0.0
C30 C 0.33115 0.95455 0.74864 0.0
C31 C 0.32022 0.83522 0.7675 0.0
C32 C 0.27706 0.86499 0.7873 0.0
C33 C 0.26054 0.9386 0.7873 0.0
C34 C 0.28695 0.98163 0.76782 0.0
C35 C 0.3501 0.75954 0.76971 0.0
C36 C 0.2973 0.69895 0.76621 0.0
C37 C 0.28821 0.66585 0.74171 0.0
C38 C 0.24517 0.6043 0.73876 0.0
C39 C 0.2071 0.58273 0.76051 0.0
C40 C 0.22828 0.60325 0.78525 0.0
C41 C 0.2698 0.66445 0.78815 0.0
H42 H 0.57485 1.00219 0.044 0.0
H43 H 0.62561 0.1267 0.97708 0.0
H44 H 0.77148 0.96813 0.00469 0.0
H45 H 0.52112 0.13101 0.03139 0.0
H46 H 0.51648 0.14763 0.99771 0.0
H47 H 0.44577 0.0437 0.05126 0.0
H48 H 0.27223 0.97083 0.00602 0.0
H49 H 0.45566 0.05914 0.96879 0.0
C50 C 0.60919 1.01286 0.02778 0.0
C51 C 0.67474 0.9782 0.02604 0.0
C52 C 0.58941 0.06361 0.00918 0.0
C53 C 0.63793 0.08274 0.98981 0.0
C54 C 0.70451 0.0493 0.98841 0.0
C55 C 0.72004 0.99405 0.0056 0.0
C56 C 0.52106 0.10429 0.0122 0.0
C57 C 0.45756 0.05622 0.0101 0.0
C58 C 0.42338 0.03253 0.03246 0.0
C59 C 0.35757 0.99948 0.03067 0.0
C60 C 0.32594 0.99014 0.00647 0.0
C61 C 0.35988 1.01119 0.98363 0.0
C62 C 0.42779 0.0416 0.9858 0.0
H63 H 0.1307 0.20581 0.2402 0.0
H64 H 0.27153 0.20844 0.30616 0.0
H65 H 0.23147 1.01313 0.26493 0.0
H66 H 0.12473 0.3049 0.26824 0.0
H67 H 0.15598 0.29301 0.29997 0.0
H68 H 0.19294 0.37593 0.23634 0.0
H69 H 0.35482 0.51008 0.26775 0.0
H70 H 0.24629 0.3662 0.31657 0.0
C71 C 0.16801 0.17938 0.25287 0.0
C72 C 0.17939 0.10566 0.25006 0.0
C73 C 0.20063 0.21782 0.27321 0.0
C74 C 0.24695 0.18045 0.29024 0.0
C75 C 0.25967 0.10632 0.28684 0.0
C76 C 0.22429 0.07043 0.26708 0.0
C77 C 0.17345 0.29309 0.27951 0.0
C78 C 0.22493 0.35465 0.27562 0.0
C79 C 0.22748 0.39249 0.25183 0.0
C80 C 0.2697 0.45483 0.24925 0.0
C81 C 0.31456 0.47056 0.26983 0.0
C82 C 0.29887 0.44707 0.29461 0.0
C83 C 0.25746 0.38594 0.29743 0.0
H84 H 0.6586 0.32213 0.28669 0.0
H85 H 0.73868 0.3625 0.21058 0.0
H86 H 0.73338 0.53019 0.26738 0.0
H87 H 0.63201 0.24295 0.24571 0.0
H88 H 0.68756 0.25201 0.21828 0.0
H89 H 0.68223 0.20374 0.2875 0.0
H90 H 0.84263 0.04429 0.28052 0.0
H91 H 0.78599 0.17187 0.215 0.0
C92 C 0.68494 0.35675 0.2732 0.0
C93 C 0.69729 0.42807 0.28025 0.0
C94 C 0.7027 0.33188 0.24826 0.0
C95 C 0.72844 0.38036 0.23013 0.0
C96 C 0.73767 0.45235 0.23661 0.0
C97 C 0.72513 0.47489 0.26201 0.0
C98 C 0.68672 0.2565 0.23966 0.0
C99 C 0.73729 0.20264 0.2512 0.0
C100 C 0.72655 0.18185 0.27679 0.0
C101 C 0.76184 0.12258 0.28671 0.0
C102 C 0.81651 0.09092 0.2725 0.0
C103 C 0.82183 0.1038 0.24596 0.0
C104 C 0.7843 0.1623 0.23555 0.0
H105 H 0.66847 0.68006 0.73572 0.0
H106 H 0.76233 0.71428 0.81005 0.0
H107 H 0.84009 0.54612 0.76129 0.0
H108 H 0.61353 0.75989 0.76562 0.0
H109 H 0.64593 0.76777 0.79774 0.0
H110 H 0.61147 0.86911 0.74291 0.0
H111 H 0.74626 0.04147 0.7652 0.0
H112 H 0.77279 0.83732 0.80096 0.0
C113 C 0.71022 0.66792 0.74929 0.0
C114 C 0.75412 0.60748 0.74541 0.0
C115 C 0.71526 0.70936 0.77201 0.0
C116 C 0.76243 0.68743 0.79152 0.0
C117 C 0.80764 0.62878 0.78754 0.0
C118 C 0.80546 0.59187 0.76404 0.0
C119 C 0.66225 0.76903 0.77717 0.0
C120 C 0.69083 0.84301 0.77178 0.0
C121 C 0.65589 0.88851 0.75406 0.0
C122 C 0.67584 0.96038 0.75188 0.0
C123 C 0.73174 0.98573 0.76675 0.0
C124 C 0.76751 0.94191 0.78422 0.0
C125 C 0.74663 0.87059 0.78686 0.0
H126 H 0.46416 0.54473 0.06216 0.0
H127 H 0.43436 0.44219 0.98849 0.0
H128 H 0.29388 0.60989 0.01277 0.0
H129 H 0.52772 0.43464 0.05075 0.0
H130 H 0.51622 0.39332 0.02031 0.0
H131 H 0.6186 0.5275 0.05741 0.0
H132 H 0.79153 0.52381 0.00328 0.0
H133 H 0.60336 0.4068 0.98697 0.0
C134 C 0.43793 0.5424 0.04362 0.0
C135 C 0.3755 0.58242 0.03968 0.0
C136 C 0.46379 0.49589 0.02406 0.0
C137 C 0.42113 0.48479 0.00186 0.0
C138 C 0.35751 0.52371 0.9985 0.0
C139 C 0.3415 0.57837 0.01588 0.0
C140 C 0.52596 0.44579 0.02973 0.0
C141 C 0.59876 0.47254 0.02152 0.0
C142 C 0.64037 0.5136 0.03877 0.0
C143 C 0.71147 0.53054 0.03282 0.0
C144 C 0.73804 0.50972 0.0087 0.0
C145 C 0.70141 0.46258 0.99283 0.0
C146 C 0.63112 0.44505 0.9989 0.0
H147 H 0.07638 0.48346 0.55776 0.0
H148 H 0.09387 0.61872 0.49127 0.0
H149 H 0.24547 0.45212 0.5037 0.0
H150 H 0.01209 0.59668 0.55499 0.0
H151 H 0.01796 0.65127 0.52736 0.0
H152 H 0.92231 0.49936 0.55759 0.0
H153 H 0.73586 0.53945 0.51253 0.0
H154 H 0.92938 0.64514 0.49337 0.0
C155 C 0.1001 0.495 0.53926 0.0
C156 C 0.16322 0.45993 0.53208 0.0
C157 C 0.07088 0.54909 0.52346 0.0
C158 C 0.10955 0.57087 0.50147 0.0
C159 C 0.17313 0.5359 0.49462 0.0
C160 C 0.19495 0.47663 0.50862 0.0
C161 C 1.01012 0.59515 0.53357 0.0
C162 C 0.93636 0.57159 0.52546 0.0
C163 C 0.89737 0.52416 0.54108 0.0
C164 C 0.82484 0.51295 0.53642 0.0
C165 C 0.79207 0.54707 0.51576 0.0
C166 C 0.82921 0.59417 0.50013 0.0
C167 C 0.90147 0.60623 0.50483 0.0
Fe168 Fe 0.01647 0.72878 0.19787 0.0
O169 O 0.02441 0.72553 0.15996 0.0
Fe170 Fe 0.93719 0.76822 0.13976 0.0
Fe171 Fe 0.10269 0.77376 0.14106 0.0
O172 O 0.01668 0.72687 0.16021 0.0
O173 O 0.01537 0.81281 0.11973 0.0
O174 O 0.02295 0.81359 0.11992 0.0
Fe175 Fe 0.02116 0.81097 0.08213 0.0
C176 C 0.09671 0.86489 0.18926 0.0
O177 O 0.09962 0.65961 0.19405 0.0
O178 O 0.17414 0.71891 0.16615 0.0
O179 O 0.94946 0.72799 0.07803 0.0
O180 O 0.93556 0.67906 0.11674 0.0
O181 O 0.86552 0.71302 0.16347 0.0
O182 O 0.93898 0.65592 0.19236 0.0
O183 O 0.11664 0.68752 0.11664 0.0
O184 O 0.1065 0.7428 0.07922 0.0
C185 C 0.88017 0.66271 0.1799 0.0
O186 O 0.93184 0.87511 0.08508 0.0
O187 O 0.8639 0.81684 0.11517 0.0
O188 O 0.08935 0.80902 0.20274 0.0
O189 O 0.09503 0.86242 0.16481 0.0
C190 C 0.15916 0.66698 0.1821 0.0
C191 C 0.13624 0.69643 0.09344 0.0
C192 C 0.15882 0.88025 0.0999 0.0
O193 O 0.17229 0.83361 0.11797 0.0
O194 O 0.09859 0.88686 0.0878 0.0
C195 C 0.92474 0.67955 0.0926 0.0
O196 O 0.93389 0.85838 0.16258 0.0
O197 O 0.93681 0.80466 0.2006 0.0
C198 C 0.87198 0.86016 0.09597 0.0
C199 C 0.92466 0.85931 0.18678 0.0
Fe200 Fe 0.47294 0.81949 0.4501 0.0
O201 O 0.46456 0.79709 0.4132 0.0
Fe202 Fe 0.50555 0.87425 0.38813 0.0
Fe203 Fe 0.5022 0.70826 0.39631 0.0
O204 O 0.46362 0.80477 0.41265 0.0
O205 O 0.54489 0.78611 0.3714 0.0
O206 O 0.54463 0.77814 0.37178 0.0
Fe207 Fe 0.53792 0.76884 0.33422 0.0
C208 C 0.60294 0.72041 0.44175 0.0
O209 O 0.40567 0.73514 0.45258 0.0
O210 O 0.44826 0.64835 0.42467 0.0
O211 O 0.46659 0.85058 0.32786 0.0
O212 O 0.4159 0.87531 0.36515 0.0
O213 O 0.45214 0.95602 0.40881 0.0
O214 O 0.39816 0.89463 0.44187 0.0
O215 O 0.41122 0.69907 0.3751 0.0
O216 O 0.45723 0.69466 0.33565 0.0
C217 C 0.40151 0.94668 0.42559 0.0
O218 O 0.61134 0.84947 0.33401 0.0
O219 O 0.55887 0.93434 0.3606 0.0
O220 O 0.55608 0.74903 0.45626 0.0
O221 O 0.59367 0.71106 0.4177 0.0
C222 C 0.40649 0.67123 0.44308 0.0
C223 C 0.41009 0.67709 0.35195 0.0
C224 C 0.59155 0.62678 0.3542 0.0
O225 O 0.54866 0.62461 0.37396 0.0
O226 O 0.605 0.68357 0.34097 0.0
C227 C 0.4202 0.88431 0.3409 0.0
O228 O 0.59674 0.88144 0.41006 0.0
O229 O 0.54494 0.90127 0.44756 0.0
C230 C 0.60393 0.91405 0.34301 0.0
C231 C 0.59783 0.90691 0.43271 0.0
Fe232 Fe 0.4899 0.33506 0.69482 0.0
O233 O 0.50085 0.3291 0.65711 0.0
Fe234 Fe 0.41901 0.27643 0.63672 0.0
Fe235 Fe 0.58477 0.28168 0.64081 0.0
O236 O 0.49292 0.32872 0.65689 0.0
O237 O 0.50356 0.22987 0.62046 0.0
O238 O 0.51116 0.23086 0.62047 0.0
Fe239 Fe 0.51526 0.21636 0.58345 0.0
C240 C 0.63248 0.39652 0.68056 0.0
O241 O 0.56601 0.25832 0.70306 0.0
O242 O 0.58099 0.19903 0.66651 0.0
O243 O 0.43446 0.14519 0.59006 0.0
O244 O 0.35338 0.21273 0.61291 0.0
O245 O 0.4182 0.19474 0.66275 0.0
O246 O 0.41422 0.25665 0.69911 0.0
O247 O 0.66307 0.22387 0.62109 0.0
O248 O 0.60036 0.15157 0.59334 0.0
C249 C 0.40878 0.19798 0.68684 0.0
O250 O 0.43415 0.2866 0.57447 0.0
O251 O 0.41568 0.35437 0.60905 0.0
O252 O 0.57056 0.40614 0.69063 0.0
O253 O 0.6503 0.34404 0.66516 0.0
C254 C 0.58094 0.20104 0.69088 0.0
C255 C 0.65798 0.17028 0.60519 0.0
C256 C 0.61156 0.34939 0.59029 0.0
O257 O 0.59355 0.36147 0.61364 0.0
O258 O 0.59066 0.2943 0.57799 0.0
C259 C 0.37002 0.16088 0.59702 0.0
O260 O 0.34186 0.33833 0.65738 0.0
O261 O 0.40954 0.40376 0.68607 0.0
C262 C 0.40193 0.33802 0.58573 0.0
C263 C 0.35264 0.39298 0.6728 0.0
Fe264 Fe 0.07336 0.25083 0.94774 0.0
O265 O 0.07963 0.2586 0.91009 0.0
Fe266 Fe 0.03895 0.35105 0.89241 0.0
Fe267 Fe 0.03774 0.18424 0.88714 0.0
O268 O 0.07941 0.26608 0.9104 0.0
O269 O 0.99659 0.27673 0.86916 0.0
O270 O 0.99574 0.26861 0.86902 0.0
Fe271 Fe 1.00186 0.2797 0.83141 0.0
C272 C 0.14406 0.11886 0.92567 0.0
O273 O 1.00255 0.16884 0.94704 0.0
O274 O 0.94796 0.17879 0.90968 0.0
O275 O 0.93509 0.36701 0.83699 0.0
O276 O 0.99013 0.43 0.86974 0.0
O277 O 0.94811 0.34906 0.91428 0.0
O278 O 0.98952 0.32158 0.95327 0.0
O279 O 0.9851 0.11806 0.86065 0.0
O280 O 0.93008 0.19695 0.83264 0.0
C281 C 0.94009 0.34377 0.93851 0.0
O282 O 0.08116 0.35476 0.83105 0.0
O283 O 0.12857 0.35972 0.87035 0.0
O284 O 0.14776 0.17455 0.94053 0.0
O285 O 0.09381 0.10654 0.90892 0.0
C286 C 0.94744 0.16243 0.93334 0.0
C287 C 0.94023 0.1337 0.8424 0.0
C288 C 0.1203 0.16738 0.84035 0.0
O289 O 0.12591 0.18406 0.86398 0.0
O290 O 0.07347 0.19694 0.82632 0.0
C291 C 0.9466 0.42472 0.85037 0.0
O292 O 0.09215 0.41675 0.91954 0.0
O293 O 0.14032 0.33584 0.94815 0.0
C294 C 0.12861 0.37613 0.84664 0.0
C295 C 0.13668 0.39801 0.93759 0.0
C296 C 0.21245 0.9896 0.43492 0.0
C297 C 0.2172 0.04971 0.45092 0.0
C298 C 0.27295 0.96259 0.42253 0.0
C299 C 0.33969 0.99432 0.42618 0.0
H300 H 0.16407 0.95903 0.43427 0.0
H301 H 0.26919 0.91159 0.4127 0.0
S302 S 0.37622 0.16015 0.46235 0.0
N303 N 0.29054 0.14714 0.46621 0.0
N304 N 0.4046 0.09435 0.44365 0.0
C305 C 0.34304 0.05926 0.4394 0.0
C306 C 0.28142 0.08741 0.45168 0.0
C307 C 0.39782 0.06662 0.74193 0.0
C308 C 0.36343 1.00731 0.731 0.0
C309 C 0.41195 0.12762 0.72748 0.0
C310 C 0.39411 0.1314 0.70125 0.0
H311 H 0.41036 0.06737 0.7623 0.0
H312 H 0.4363 0.17257 0.73711 0.0
S313 S 0.30888 0.98802 0.66283 0.0
N314 N 0.31492 0.95452 0.69214 0.0
N315 N 0.34454 0.06815 0.6644 0.0
C316 C 0.36374 0.07067 0.68961 0.0
C317 C 0.34797 1.00878 0.70458 0.0
C318 C 0.32677 0.07808 0.94365 0.0
C319 C 0.31759 0.01735 0.95918 0.0
C320 C 0.27204 0.10348 0.92808 0.0
C321 C 0.20545 0.07071 0.92803 0.0
H322 H 0.37239 0.11205 0.94571 0.0
H323 H 0.27857 0.15506 0.91905 0.0
S324 S 0.16446 0.89423 0.95541 0.0
N325 N 0.24598 0.91063 0.96518 0.0
N326 N 0.13986 0.96396 0.93815 0.0
C327 C 0.19967 1.00348 0.93932 0.0
C328 C 0.25677 0.97553 0.9544 0.0
C329 C 0.1713 0.04732 0.20677 0.0
C330 C 0.14149 0.06031 0.2312 0.0
C331 C 0.15375 0.98579 0.19249 0.0
C332 C 0.10786 0.93416 0.20266 0.0
H333 H 0.21211 0.08216 0.19952 0.0
H334 H 0.17986 0.9763 0.17421 0.0
S335 S 1.00958 0.94837 0.2644 0.0
N336 N 0.0578 0.02137 0.26345 0.0
N337 N 0.02766 0.90431 0.23755 0.0
C338 C 0.07464 0.94907 0.22636 0.0
C339 C 0.09062 1.01259 0.24034 0.0
C340 C 0.28536 0.07905 0.5386 0.0
C341 C 0.2116 0.08892 0.54195 0.0
C342 C 0.3341 0.09575 0.5576 0.0
C343 C 0.31359 0.12759 0.58097 0.0
H344 H 0.30865 0.06348 0.52045 0.0
H345 H 0.38939 0.08883 0.55263 0.0
S346 S 0.12855 0.15496 0.60278 0.0
N347 N 0.1206 0.12171 0.5734 0.0
N348 N 0.21435 0.16083 0.60827 0.0
C349 C 0.24058 0.13474 0.58574 0.0
C350 C 0.1895 0.11414 0.56651 0.0
C351 C 0.15027 1.001 0.79937 0.0
C352 C 0.21723 0.97622 0.80703 0.0
C353 C 0.11961 0.06185 0.81063 0.0
C354 C 0.15398 0.10043 0.83035 0.0
H355 H 0.12426 0.97701 0.78289 0.0
H356 H 0.06933 0.08006 0.80309 0.0
S357 S 0.32631 0.05192 0.85974 0.0
N358 N 0.31472 0.99117 0.83696 0.0
N359 N 0.25545 0.10403 0.85905 0.0
C360 C 0.21822 0.07262 0.83976 0.0
C361 C 0.25014 1.01095 0.82791 0.0
C362 C 0.2492 1.01225 0.05721 0.0
C363 C 0.31643 0.98136 0.05391 0.0
C364 C 0.20079 0.98366 0.07455 0.0
C365 C 0.21764 0.92272 0.08914 0.0
H366 H 0.23219 0.0558 0.04497 0.0
H367 H 0.14792 1.00633 0.07505 0.0
S368 S 0.39293 0.83238 0.09153 0.0
N369 N 0.40207 0.89459 0.06937 0.0
N370 N 0.31122 0.84077 0.10249 0.0
C371 C 0.28781 0.89686 0.0883 0.0
C372 C 0.33719 0.92607 0.07043 0.0
C373 C 0.29647 0.04583 0.32861 0.0
C374 C 0.30974 0.06192 0.30255 0.0
C375 C 0.33189 0.98859 0.34107 0.0
C376 C 0.38044 0.94396 0.32774 0.0
H377 H 0.25629 0.07551 0.33907 0.0
H378 H 0.31992 0.97833 0.3611 0.0
S379 S 0.43292 0.9651 0.25898 0.0
N380 N 0.37707 0.0313 0.26437 0.0
N381 N 0.43899 0.92206 0.28651 0.0
C382 C 0.39442 0.96094 0.30171 0.0
C383 C 0.36061 0.02027 0.28955 0.0
C384 C 0.82455 0.16293 0.56701 0.0
C385 C 0.82257 0.09304 0.55687 0.0
C386 C 0.77666 0.18515 0.58605 0.0
C387 C 0.72389 0.13899 0.59491 0.0
H388 H 0.8579 0.20305 0.55843 0.0
H389 H 0.77582 0.24096 0.59156 0.0
S390 S 0.7112 0.9456 0.58112 0.0
N391 N 0.77686 0.97301 0.56275 0.0
N392 N 0.68262 0.01693 0.59689 0.0
C393 C 0.72767 0.0669 0.58772 0.0
C394 C 0.7782 0.04343 0.56909 0.0
C395 C 0.72053 0.07295 0.32911 0.0
C396 C 0.71915 0.07359 0.3021 0.0
C397 C 0.68157 0.02174 0.3427 0.0
C398 C 0.64259 0.96947 0.32939 0.0
H399 H 0.7521 0.11133 0.33961 0.0
H400 H 0.68344 0.02168 0.36356 0.0
S401 S 0.61951 0.95285 0.25876 0.0
N402 N 0.6709 0.02269 0.26276 0.0
N403 N 0.60298 0.92347 0.28803 0.0
C404 C 0.6403 0.97089 0.30246 0.0
C405 C 0.67726 0.02393 0.28886 0.0
C406 C 0.71832 0.97001 0.07116 0.0
C407 C 0.70424 0.93585 0.04747 0.0
C408 C 0.76981 0.94281 0.08808 0.0
C409 C 0.80848 0.88119 0.08156 0.0
H410 H 0.69424 0.02128 0.07553 0.0
H411 H 0.7828 0.97263 0.10536 0.0
S412 S 0.78471 0.7676 0.02357 0.0
N413 N 0.72622 0.83268 0.02016 0.0
N414 N 0.82535 0.78381 0.0511 0.0
C415 C 0.79095 0.84394 0.05895 0.0
C416 C 0.73773 0.87048 0.04217 0.0
C417 C 0.87236 0.02008 0.78809 0.0
C418 C 0.8234 0.97516 0.80025 0.0
C419 C 0.9113 0.06972 0.80217 0.0
C420 C 0.905 0.07448 0.82904 0.0
H421 H 0.87678 0.02043 0.76728 0.0
H422 H 0.94489 0.10637 0.79182 0.0
S423 S 0.79359 0.96162 0.87066 0.0
N424 N 0.77584 0.93408 0.84108 0.0
N425 N 0.8535 0.02485 0.86777 0.0
C426 C 0.8619 0.02536 0.8418 0.0
C427 C 0.82024 0.97592 0.82733 0.0
C428 C 0.78488 0.95431 0.45355 0.0
C429 C 0.77367 0.01805 0.46748 0.0
C430 C 0.72845 0.92017 0.44077 0.0
C431 C 0.65927 0.94845 0.44189 0.0
H432 H 0.83639 0.92867 0.4538 0.0
H433 H 0.73812 0.86932 0.43134 0.0
S434 S 0.60454 0.11843 0.47306 0.0
N435 N 0.68998 0.11157 0.47925 0.0
N436 N 0.58442 0.04702 0.45588 0.0
C437 C 0.64864 1.01413 0.45446 0.0
C438 C 0.70576 0.04908 0.46706 0.0
C439 C 0.8266 0.97402 0.23482 0.0
C440 C 0.84835 0.04419 0.22924 0.0
C441 C 0.85004 0.91552 0.22045 0.0
C442 C 0.89586 0.92399 0.19953 0.0
H443 H 0.79147 0.9634 0.25072 0.0
H444 H 0.83246 0.86286 0.22599 0.0
S445 S 0.97013 0.09497 0.17662 0.0
N446 N 0.91931 0.11836 0.2012 0.0
N447 N 0.96289 1.00749 0.17364 0.0
C448 C 0.91718 0.99356 0.19311 0.0
C449 C 0.89357 0.05377 0.20806 0.0
C450 C 0.82964 0.08721 0.98501 0.0
C451 C 0.76354 0.07916 0.97296 0.0
C452 C 0.88801 0.1125 0.97173 0.0
C453 C 0.88322 0.13332 0.94581 0.0
H454 H 0.83666 0.07443 0.00518 0.0
H455 H 0.93721 0.11679 0.9823 0.0
S456 S 0.7212 0.12683 0.90543 0.0
N457 N 0.69586 0.09503 0.93355 0.0
N458 N 0.80581 0.14657 0.9086 0.0
C459 C 0.81706 0.12738 0.93346 0.0
C460 C 0.75716 0.09993 0.94706 0.0
C461 C 0.6105 0.07515 0.74716 0.0
C462 C 0.63808 1.01299 0.73549 0.0
C463 C 0.59159 0.13491 0.73257 0.0
C464 C 0.5987 0.13506 0.70558 0.0
H465 H 0.60699 0.07886 0.76796 0.0
H466 H 0.57263 0.18193 0.7427 0.0
S467 S 0.66342 0.98275 0.66558 0.0
N468 N 0.66848 0.95328 0.69546 0.0
N469 N 0.63117 0.06471 0.66763 0.0
C470 C 0.6227 0.0715 0.69353 0.0
C471 C 0.64256 1.01068 0.70855 0.0
C472 C 0.77068 0.44999 0.95184 0.0
C473 C 0.74586 0.41976 0.97485 0.0
C474 C 0.83148 0.42275 0.93938 0.0
C475 C 0.87124 0.36623 0.95011 0.0
H476 H 0.74555 0.49763 0.94432 0.0
H477 H 0.8499 0.44907 0.92214 0.0
S478 S 0.82582 0.26671 0.00939 0.0
N479 N 0.76261 0.32744 0.00683 0.0
N480 N 0.87819 0.27852 0.98435 0.0
C481 C 0.84499 0.33387 0.97252 0.0
C482 C 0.78202 0.36003 0.98462 0.0
C483 C 0.819 0.48563 0.20102 0.0
C484 C 0.76158 0.50387 0.21695 0.0
C485 C 0.85147 0.53696 0.18579 0.0
C486 C 0.82803 0.60827 0.18611 0.0
H487 H 0.84261 0.43285 0.20179 0.0
H488 H 0.89949 0.52227 0.17559 0.0
S489 S 0.67078 0.68007 0.22002 0.0
N490 N 0.67438 0.59516 0.22837 0.0
N491 N 0.73841 0.69268 0.20044 0.0
C492 C 0.76638 0.62575 0.19969 0.0
C493 C 0.73258 0.57322 0.21509 0.0
C494 C 0.75193 0.69793 0.49025 0.0
C495 C 0.78723 0.63622 0.48147 0.0
C496 C 0.69427 0.7266 0.47667 0.0
C497 C 0.66982 0.69466 0.45374 0.0
H498 H 0.76592 0.72129 0.50868 0.0
H499 H 0.66702 0.77261 0.48472 0.0
S500 S 0.74817 0.53498 0.42178 0.0
N501 N 0.79659 0.54616 0.44796 0.0
N502 N 0.68931 0.60055 0.42196 0.0
C503 C 0.70779 0.63551 0.44392 0.0
C504 C 0.76609 0.60604 0.45794 0.0
C505 C 0.74274 0.47963 0.73112 0.0
C506 C 0.73894 0.55299 0.7249 0.0
C507 C 0.7175 0.42697 0.71435 0.0
C508 C 0.68612 0.44519 0.69085 0.0
H509 H 0.76012 0.46234 0.74995 0.0
H510 H 0.71585 0.37231 0.72104 0.0
S511 S 0.67097 0.6267 0.66346 0.0
N512 N 0.71004 0.63915 0.69155 0.0
N513 N 0.65751 0.53994 0.66094 0.0
C514 C 0.68613 0.51715 0.68345 0.0
C515 C 0.71352 0.57104 0.70027 0.0
C516 C 0.8346 0.5405 0.05142 0.0
C517 C 0.76258 0.56256 0.05183 0.0
C518 C 0.88685 0.57644 0.06548 0.0
C519 C 0.86899 0.63302 0.08189 0.0
H520 H 0.85172 0.49628 0.0394 0.0
H521 H 0.94175 0.56083 0.06304 0.0
S522 S 0.68862 0.70476 0.09419 0.0
N523 N 0.67683 0.64246 0.07204 0.0
N524 N 0.77404 0.70377 0.1008 0.0
C525 C 0.79691 0.65097 0.08478 0.0
C526 C 0.74389 0.61704 0.06935 0.0
C527 C 0.70587 0.48029 0.32507 0.0
C528 C 0.66484 0.46007 0.3036 0.0
C529 C 0.67932 0.52929 0.34354 0.0
C530 C 0.6114 0.55967 0.34082 0.0
H531 H 0.76016 0.46199 0.32662 0.0
H532 H 0.71386 0.54747 0.35882 0.0
S533 S 0.48818 0.5292 0.28653 0.0
N534 N 0.55511 0.47507 0.28046 0.0
N535 N 0.50687 0.56866 0.31407 0.0
C536 C 0.5701 0.53803 0.31973 0.0
C537 C 0.59635 0.48773 0.30142 0.0
C538 C 0.77047 0.39748 0.54895 0.0
C539 C 0.77923 0.47056 0.5537 0.0
C540 C 0.7158 0.35945 0.56081 0.0
C541 C 0.66817 0.39271 0.57816 0.0
H542 H 0.80412 0.37024 0.5351 0.0
H543 H 0.71052 0.3034 0.55609 0.0
S544 S 0.66665 0.58455 0.59566 0.0
N545 N 0.73445 0.57588 0.57581 0.0
N546 N 0.63305 0.50392 0.59883 0.0
C547 C 0.67722 0.46571 0.58333 0.0
C548 C 0.7323 0.50469 0.5709 0.0
C549 C 0.81429 0.56523 0.82963 0.0
C550 C 0.84957 0.59655 0.80867 0.0
C551 C 0.84777 0.51282 0.84476 0.0
C552 C 0.91746 0.49093 0.83941 0.0
H553 H 0.75872 0.5765 0.83288 0.0
H554 H 0.81758 0.486 0.85952 0.0
S555 S 0.03377 0.56086 0.78822 0.0
N556 N 0.95943 0.6065 0.78498 0.0
N557 N 0.0215 0.50706 0.81286 0.0
C558 C 0.95457 0.52553 0.81978 0.0
C559 C 0.92091 0.57894 0.80461 0.0
C560 C 0.30981 0.68701 0.05684 0.0
C561 C 0.33371 0.61678 0.0607 0.0
C562 C 0.24701 0.71186 0.06808 0.0
C563 C 0.20604 0.66854 0.08437 0.0
H564 H 0.33613 0.72069 0.04296 0.0
H565 H 0.22916 0.76505 0.0631 0.0
S566 S 0.25109 0.48406 0.10392 0.0
N567 N 0.31513 0.50613 0.08386 0.0
N568 N 0.19879 0.55483 0.10631 0.0
C569 C 0.23295 0.60073 0.09054 0.0
C570 C 0.29651 0.57456 0.0785 0.0
C571 C 0.24003 0.47816 0.8006 0.0
C572 C 0.21991 0.54939 0.80604 0.0
C573 C 0.21648 0.4215 0.81568 0.0
C574 C 0.17448 0.43398 0.83744 0.0
H575 H 0.26972 0.46556 0.7833 0.0
H576 H 0.22693 0.36737 0.80921 0.0
S577 S 0.11838 0.61068 0.86301 0.0
N578 N 0.16302 0.62965 0.83657 0.0
N579 N 0.12177 0.52295 0.86593 0.0
C580 C 0.16145 0.50523 0.84502 0.0
C581 C 0.18377 0.56318 0.82913 0.0
C582 C 0.23871 0.45363 0.57155 0.0
C583 C 0.20787 0.41858 0.5503 0.0
C584 C 0.30093 0.42717 0.58317 0.0
C585 C 0.33557 0.36572 0.57353 0.0
H586 H 0.21757 0.50449 0.57805 0.0
H587 H 0.32355 0.45673 0.59911 0.0
S588 S 0.27148 0.25208 0.51939 0.0
N589 N 0.21198 0.31638 0.52176 0.0
N590 N 0.32992 0.26809 0.54225 0.0
C591 C 0.30262 0.32846 0.55306 0.0
C592 C 0.23842 0.35424 0.54195 0.0
C593 C 0.28287 0.56884 0.31295 0.0
C594 C 0.31067 0.4992 0.31588 0.0
C595 C 0.31076 0.62689 0.32657 0.0
C596 C 0.36405 0.61666 0.3449 0.0
H597 H 0.24336 0.57937 0.29833 0.0
H598 H 0.29383 0.68037 0.32152 0.0
S599 S 0.44134 0.44292 0.36482 0.0
N600 N 0.3867 0.42201 0.34115 0.0
N601 N 0.43368 0.53011 0.369 0.0
C602 C 0.38434 0.54603 0.35088 0.0
C603 C 0.35866 0.48723 0.33593 0.0
C604 C 0.30924 0.48452 0.9549 0.0
C605 C 0.29887 0.49915 0.98127 0.0
C606 C 0.25309 0.45975 0.93934 0.0
C607 C 0.18473 0.45001 0.94956 0.0
H608 H 0.36123 0.49042 0.94647 0.0
H609 H 0.26425 0.4438 0.91966 0.0
S610 S 0.12987 0.47784 0.01729 0.0
N611 N 0.21445 0.49868 0.01687 0.0
N612 N 0.10996 0.45666 0.9873 0.0
C613 C 0.17334 0.46689 0.97551 0.0
C614 C 0.2301 0.48995 0.99145 0.0
C615 C 0.23895 0.47808 0.72047 0.0
C616 C 0.2511 0.55204 0.71622 0.0
C617 C 0.25906 0.42525 0.70276 0.0
C618 C 0.29524 0.4425 0.68025 0.0
H619 H 0.22013 0.45802 0.73862 0.0
H620 H 0.25542 0.36992 0.7086 0.0
S621 S 0.32477 0.62488 0.65543 0.0
N622 N 0.28675 0.6382 0.68371 0.0
N623 N 0.33145 0.53749 0.65182 0.0
C624 C 0.30079 0.5152 0.67399 0.0
C625 C 0.27773 0.56999 0.69166 0.0
C626 C 0.23671 0.56878 0.45336 0.0
C627 C 0.23036 0.57235 0.48036 0.0
C628 C 0.29756 0.59523 0.44088 0.0
C629 C 0.35413 0.62398 0.45518 0.0
H630 H 0.19465 0.54573 0.44195 0.0
H631 H 0.2991 0.5959 0.42002 0.0
S632 S 0.36527 0.63904 0.5263 0.0
N633 N 0.28683 0.60406 0.52082 0.0
N634 N 0.40122 0.65015 0.49765 0.0
C635 C 0.34908 0.62461 0.48214 0.0
C636 C 0.28719 0.59997 0.49465 0.0
C637 C 0.22878 0.49129 0.20418 0.0
C638 C 0.25947 0.51026 0.22804 0.0
C639 C 0.20543 0.54348 0.18654 0.0
C640 C 0.21385 0.61696 0.19146 0.0
H641 H 0.21865 0.43596 0.19959 0.0
H642 H 0.17498 0.52639 0.16997 0.0
S643 S 0.29678 0.69925 0.24847 0.0
N644 N 0.29978 0.61288 0.25399 0.0
N645 N 0.26087 0.70674 0.21974 0.0
C646 C 0.25096 0.63692 0.21344 0.0
C647 C 0.27226 0.58487 0.23203 0.0
loop_
_geom_bond_atom_site_label_1
_geom_bond_atom_site_label_2
_geom_bond_distance
_geom_bond_site_symmetry_2
_ccdc_geom_bond_type
H0 C8 0.930 . S
H1 C11 0.930 . S
H2 C13 0.930 1_565 S
H3 C14 0.970 . S
H4 C14 0.970 . S
H5 C16 0.930 . S
H6 C18 0.930 1_565 S
H7 C20 0.930 . S
C8 H0 0.930 . S
C8 C9 1.382 1_545 S
C8 C10 1.426 . S
C9 C8 1.382 1_565 S
C9 C13 1.389 1_565 S
C10 C8 1.426 . S
C10 C11 1.375 . S
C10 C14 1.532 1_655 S
C11 H1 0.930 . S
C11 C10 1.375 . S
C11 C12 1.416 . S
C12 C11 1.416 . S
C12 C13 1.371 . S
C13 H2 0.930 1_545 S
C13 C9 1.389 1_545 S
C13 C12 1.371 . S
C14 H3 0.970 . S
C14 H4 0.970 . S
C14 C10 1.532 1_455 S
C14 C15 1.499 . S
C15 C14 1.499 . S
C15 C16 1.370 . S
C15 C20 1.415 . S
C16 H5 0.930 . S
C16 C15 1.370 . S
C16 C17 1.407 1_545 S
C17 C16 1.407 1_565 S
C17 C18 1.365 1_565 S
C18 H6 0.930 1_545 S
C18 C17 1.365 1_545 S
C18 C19 1.393 . S
C19 C18 1.393 . S
C19 C20 1.387 . S
C20 H7 0.930 . S
C20 C15 1.415 . S
C20 C19 1.387 . S
H21 C29 0.930 . S
H22 C32 0.930 . S
H23 C34 0.930 . S
H24 C35 0.970 . S
H25 C35 0.970 . S
H26 C37 0.930 . S
H27 C39 0.930 . S
H28 C41 0.930 . S
C29 H21 0.930 . S
C29 C30 1.382 . S
C29 C31 1.426 . S
C30 C29 1.382 . S
C30 C34 1.389 . S
C31 C29 1.426 . S
C31 C32 1.375 . S
C31 C35 1.532 . S
C32 H22 0.930 . S
C32 C31 1.375 . S
C32 C33 1.416 . S
C33 C32 1.416 . S
C33 C34 1.371 . S
C34 H23 0.930 . S
C34 C30 1.389 . S
C34 C33 1.371 . S
C35 H24 0.970 . S
C35 H25 0.970 . S
C35 C31 1.532 . S
C35 C36 1.499 . S
C36 C35 1.499 . S
C36 C37 1.370 . S
C36 C41 1.415 . S
C37 H26 0.930 . S
C37 C36 1.370 . S
C37 C38 1.407 . S
C38 C37 1.407 . S
C38 C39 1.365 . S
C39 H27 0.930 . S
C39 C38 1.365 . S
C39 C40 1.393 . S
C40 C39 1.393 . S
C40 C41 1.387 . S
C41 H28 0.930 . S
C41 C36 1.415 . S
C41 C40 1.387 . S
H42 C50 0.930 1_565 S
H43 C53 0.930 1_556 S
H44 C55 0.930 . S
H45 C56 0.970 . S
H46 C56 0.970 . S
H47 C58 0.930 1_565 S
H48 C60 0.930 . S
H49 C62 0.930 1_556 S
C50 H42 0.930 1_545 S
C50 C51 1.382 1_545 S
C50 C52 1.426 . S
C51 C50 1.382 1_565 S
C51 C55 1.389 . S
C52 C50 1.426 . S
C52 C53 1.375 . S
C52 C56 1.532 . S
C53 H43 0.930 1_554 S
C53 C52 1.375 . S
C53 C54 1.416 1_554 S
C54 C53 1.416 1_556 S
C54 C55 1.371 1_546 S
C55 H44 0.930 . S
C55 C51 1.389 . S
C55 C54 1.371 1_564 S
C56 H45 0.970 . S
C56 H46 0.970 . S
C56 C52 1.532 . S
C56 C57 1.499 . S
C57 C56 1.499 . S
C57 C58 1.370 . S
C57 C62 1.415 . S
C58 H47 0.930 1_545 S
C58 C57 1.370 . S
C58 C59 1.407 1_545 S
C59 C58 1.407 1_565 S
C59 C60 1.365 . S
C60 H48 0.930 . S
C60 C59 1.365 . S
C60 C61 1.393 1_564 S
C61 C60 1.393 1_546 S
C61 C62 1.387 1_556 S
C62 H49 0.930 1_554 S
C62 C57 1.415 . S
C62 C61 1.387 1_554 S
H63 C71 0.930 . S
H64 C74 0.930 . S
H65 C76 0.930 . S
H66 C77 0.970 . S
H67 C77 0.970 . S
H68 C79 0.930 . S
H69 C81 0.930 . S
H70 C83 0.930 . S
C71 H63 0.930 . S
C71 C72 1.382 . S
C71 C73 1.426 . S
C72 C71 1.382 . S
C72 C76 1.389 . S
C73 C71 1.426 . S
C73 C74 1.375 . S
C73 C77 1.532 . S
C74 H64 0.930 . S
C74 C73 1.375 . S
C74 C75 1.416 . S
C75 C74 1.416 . S
C75 C76 1.371 . S
C76 H65 0.930 . S
C76 C72 1.389 . S
C76 C75 1.371 . S
C77 H66 0.970 . S
C77 H67 0.970 . S
C77 C73 1.532 . S
C77 C78 1.499 . S
C78 C77 1.499 . S
C78 C79 1.370 . S
C78 C83 1.415 . S
C79 H68 0.930 . S
C79 C78 1.370 . S
C79 C80 1.407 . S
C80 C79 1.407 . S
C80 C81 1.365 . S
C81 H69 0.930 . S
C81 C80 1.365 . S
C81 C82 1.393 . S
C82 C81 1.393 . S
C82 C83 1.387 . S
C83 H70 0.930 . S
C83 C78 1.415 . S
C83 C82 1.387 . S
H84 C92 0.930 . S
H85 C95 0.930 . S
H86 C97 0.930 . S
H87 C98 0.970 . S
H88 C98 0.970 . S
H89 C100 0.930 . S
H90 C102 0.930 . S
H91 C104 0.930 . S
C92 H84 0.930 . S
C92 C93 1.382 . S
C92 C94 1.426 . S
C93 C92 1.382 . S
C93 C97 1.389 . S
C94 C92 1.426 . S
C94 C95 1.375 . S
C94 C98 1.532 . S
C95 H85 0.930 . S
C95 C94 1.375 . S
C95 C96 1.416 . S
C96 C95 1.416 . S
C96 C97 1.371 . S
C97 H86 0.930 . S
C97 C93 1.389 . S
C97 C96 1.371 . S
C98 H87 0.970 . S
C98 H88 0.970 . S
C98 C94 1.532 . S
C98 C99 1.499 . S
C99 C98 1.499 . S
C99 C100 1.370 . S
C99 C104 1.415 . S
C100 H89 0.930 . S
C100 C99 1.370 . S
C100 C101 1.407 . S
C101 C100 1.407 . S
C101 C102 1.365 . S
C102 H90 0.930 . S
C102 C101 1.365 . S
C102 C103 1.393 . S
C103 C102 1.393 . S
C103 C104 1.387 . S
C104 H91 0.930 . S
C104 C99 1.415 . S
C104 C103 1.387 . S
H105 C113 0.930 . S
H106 C116 0.930 . S
H107 C118 0.930 . S
H108 C119 0.970 . S
H109 C119 0.970 . S
H110 C121 0.930 . S
H111 C123 0.930 . S
H112 C125 0.930 . S
C113 H105 0.930 . S
C113 C114 1.382 . S
C113 C115 1.426 . S
C114 C113 1.382 . S
C114 C118 1.389 . S
C115 C113 1.426 . S
C115 C116 1.375 . S
C115 C119 1.532 . S
C116 H106 0.930 . S
C116 C115 1.375 . S
C116 C117 1.416 . S
C117 C116 1.416 . S
C117 C118 1.371 . S
C118 H107 0.930 . S
C118 C114 1.389 . S
C118 C117 1.371 . S
C119 H108 0.970 . S
C119 H109 0.970 . S
C119 C115 1.532 . S
C119 C120 1.499 . S
C120 C119 1.499 . S
C120 C121 1.370 . S
C120 C125 1.415 . S
C121 H110 0.930 . S
C121 C120 1.370 . S
C121 C122 1.407 . S
C122 C121 1.407 . S
C122 C123 1.365 . S
C123 H111 0.930 . S
C123 C122 1.365 . S
C123 C124 1.393 . S
C124 C123 1.393 . S
C124 C125 1.387 . S
C125 H112 0.930 . S
C125 C120 1.415 . S
C125 C124 1.387 . S
H126 C134 0.930 . S
H127 C137 0.930 1_556 S
H128 C139 0.930 . S
H129 C140 0.970 . S
H130 C140 0.970 . S
H131 C142 0.930 . S
H132 C144 0.930 . S
H133 C146 0.930 1_556 S
C134 H126 0.930 . S
C134 C135 1.382 . S
C134 C136 1.426 . S
C135 C134 1.382 . S
C135 C139 1.389 . S
C136 C134 1.426 . S
C136 C137 1.375 . S
C136 C140 1.532 . S
C137 H127 0.930 1_554 S
C137 C136 1.375 . S
C137 C138 1.416 1_554 S
C138 C137 1.416 1_556 S
C138 C139 1.371 1_556 S
C139 H128 0.930 . S
C139 C135 1.389 . S
C139 C138 1.371 1_554 S
C140 H129 0.970 . S
C140 H130 0.970 . S
C140 C136 1.532 . S
C140 C141 1.499 . S
C141 C140 1.499 . S
C141 C142 1.370 . S
C141 C146 1.415 . S
C142 H131 0.930 . S
C142 C141 1.370 . S
C142 C143 1.407 . S
C143 C142 1.407 . S
C143 C144 1.365 . S
C144 H132 0.930 . S
C144 C143 1.365 . S
C144 C145 1.393 1_554 S
C145 C144 1.393 1_556 S
C145 C146 1.387 1_556 S
C146 H133 0.930 1_554 S
C146 C141 1.415 . S
C146 C145 1.387 1_554 S
H147 C155 0.930 . S
H148 C158 0.930 . S
H149 C160 0.930 . S
H150 C161 0.970 . S
H151 C161 0.970 . S
H152 C163 0.930 . S
H153 C165 0.930 . S
H154 C167 0.930 . S
C155 H147 0.930 . S
C155 C156 1.382 . S
C155 C157 1.426 . S
C156 C155 1.382 . S
C156 C160 1.389 . S
C157 C155 1.426 . S
C157 C158 1.375 . S
C157 C161 1.532 . S
C158 H148 0.930 . S
C158 C157 1.375 . S
C158 C159 1.416 . S
C159 C158 1.416 . S
C159 C160 1.371 . S
C160 H149 0.930 . S
C160 C156 1.389 . S
C160 C159 1.371 . S
C161 H150 0.970 . S
C161 H151 0.970 . S
C161 C157 1.532 . S
C161 C162 1.499 1_455 S
C162 C161 1.499 1_655 S
C162 C163 1.370 . S
C162 C167 1.415 . S
C163 H152 0.930 . S
C163 C162 1.370 . S
C163 C164 1.407 . S
C164 C163 1.407 . S
C164 C165 1.365 . S
C165 H153 0.930 . S
C165 C164 1.365 . S
C165 C166 1.393 . S
C166 C165 1.393 . S
C166 C167 1.387 . S
C167 H154 0.930 . S
C167 C162 1.415 . S
C167 C166 1.387 . S
Fe168 O169 1.886 . S
Fe168 O172 1.715 1_455 S
Fe168 O177 2.077 . S
Fe168 O182 1.935 1_455 S
Fe168 O188 2.077 . S
Fe168 O197 1.935 1_455 S
O169 Fe168 1.886 . S
O169 Fe171 1.715 . S
Fe170 O172 1.886 . S
Fe170 O173 1.715 . S
Fe170 O180 1.935 . S
Fe170 O181 2.077 . S
Fe170 O187 1.935 . S
Fe170 O196 2.077 . S
Fe171 O169 1.715 . S
Fe171 O174 1.886 . S
Fe171 O178 1.935 . S
Fe171 O183 2.077 . S
Fe171 O189 1.935 . S
Fe171 O193 2.077 . S
O172 Fe168 1.715 1_655 S
O172 Fe170 1.886 . S
O173 Fe170 1.715 . S
O173 Fe175 1.886 1_655 S
O174 Fe171 1.886 . S
O174 Fe175 1.715 . S
Fe175 O173 1.886 1_455 S
Fe175 O174 1.715 . S
Fe175 O179 2.077 1_455 S
Fe175 O184 1.935 . S
Fe175 O186 2.077 1_455 S
Fe175 O194 1.935 . S
C176 O188 1.381 . S
C176 O189 1.421 . S
O177 Fe168 2.077 . S
O177 C190 1.381 . S
O178 Fe171 1.935 . S
O178 C190 1.421 . S
O179 Fe175 2.077 1_655 S
O179 C195 1.381 . S
O180 Fe170 1.935 . S
O180 C195 1.421 . S
O181 Fe170 2.077 . S
O181 C185 1.381 . S
O182 Fe168 1.935 1_655 S
O182 C185 1.421 . S
O183 Fe171 2.077 . S
O183 C191 1.381 . S
O184 Fe175 1.935 . S
O184 C191 1.421 . S
C185 O181 1.381 . S
C185 O182 1.421 . S
O186 Fe175 2.077 1_655 S
O186 C198 1.381 . S
O187 Fe170 1.935 . S
O187 C198 1.421 . S
O188 Fe168 2.077 . S
O188 C176 1.381 . S
O189 Fe171 1.935 . S
O189 C176 1.421 . S
C190 O177 1.381 . S
C190 O178 1.421 . S
C191 O183 1.381 . S
C191 O184 1.421 . S
C192 O193 1.381 . S
C192 O194 1.421 . S
O193 Fe171 2.077 . S
O193 C192 1.381 . S
O194 Fe175 1.935 . S
O194 C192 1.421 . S
C195 O179 1.381 . S
C195 O180 1.421 . S
O196 Fe170 2.077 . S
O196 C199 1.381 . S
O197 Fe168 1.935 1_655 S
O197 C199 1.421 . S
C198 O186 1.381 . S
C198 O187 1.421 . S
C199 O196 1.381 . S
C199 O197 1.421 . S
Fe200 O201 1.886 . S
Fe200 O204 1.715 . S
Fe200 O209 2.077 . S
Fe200 O214 1.935 . S
Fe200 O220 2.077 . S
Fe200 O229 1.935 . S
O201 Fe200 1.886 . S
O201 Fe203 1.715 . S
Fe202 O204 1.886 . S
Fe202 O205 1.715 . S
Fe202 O212 1.935 . S
Fe202 O213 2.077 . S
Fe202 O219 1.935 . S
Fe202 O228 2.077 . S
Fe203 O201 1.715 . S
Fe203 O206 1.886 . S
Fe203 O210 1.935 . S
Fe203 O215 2.077 . S
Fe203 O221 1.935 . S
Fe203 O225 2.077 . S
O204 Fe200 1.715 . S
O204 Fe202 1.886 . S
O205 Fe202 1.715 . S
O205 Fe207 1.886 . S
O206 Fe203 1.886 . S
O206 Fe207 1.715 . S
Fe207 O205 1.886 . S
Fe207 O206 1.715 . S
Fe207 O211 2.077 . S
Fe207 O216 1.935 . S
Fe207 O218 2.077 . S
Fe207 O226 1.935 . S
C208 O220 1.381 . S
C208 O221 1.421 . S
O209 Fe200 2.077 . S
O209 C222 1.381 . S
O210 Fe203 1.935 . S
O210 C222 1.421 . S
O211 Fe207 2.077 . S
O211 C227 1.381 . S
O212 Fe202 1.935 . S
O212 C227 1.421 . S
O213 Fe202 2.077 . S
O213 C217 1.381 . S
O214 Fe200 1.935 . S
O214 C217 1.421 . S
O215 Fe203 2.077 . S
O215 C223 1.381 . S
O216 Fe207 1.935 . S
O216 C223 1.421 . S
C217 O213 1.381 . S
C217 O214 1.421 . S
O218 Fe207 2.077 . S
O218 C230 1.381 . S
O219 Fe202 1.935 . S
O219 C230 1.421 . S
O220 Fe200 2.077 . S
O220 C208 1.381 . S
O221 Fe203 1.935 . S
O221 C208 1.421 . S
C222 O209 1.381 . S
C222 O210 1.421 . S
C223 O215 1.381 . S
C223 O216 1.421 . S
C224 O225 1.381 . S
C224 O226 1.421 . S
O225 Fe203 2.077 . S
O225 C224 1.381 . S
O226 Fe207 1.935 . S
O226 C224 1.421 . S
C227 O211 1.381 . S
C227 O212 1.421 . S
O228 Fe202 2.077 . S
O228 C231 1.381 . S
O229 Fe200 1.935 . S
O229 C231 1.421 . S
C230 O218 1.381 . S
C230 O219 1.421 . S
C231 O228 1.381 . S
C231 O229 1.421 . S
Fe232 O233 1.886 . S
Fe232 O236 1.715 . S
Fe232 O241 2.077 . S
Fe232 O246 1.935 . S
Fe232 O252 2.077 . S
Fe232 O261 1.935 . S
O233 Fe232 1.886 . S
O233 Fe235 1.715 . S
Fe234 O236 1.886 . S
Fe234 O237 1.715 . S
Fe234 O244 1.935 . S
Fe234 O245 2.077 . S
Fe234 O251 1.935 . S
Fe234 O260 2.077 . S
Fe235 O233 1.715 . S
Fe235 O238 1.886 . S
Fe235 O242 1.935 . S
Fe235 O247 2.077 . S
Fe235 O253 1.935 . S
Fe235 O257 2.077 . S
O236 Fe232 1.715 . S
O236 Fe234 1.886 . S
O237 Fe234 1.715 . S
O237 Fe239 1.886 . S
O238 Fe235 1.886 . S
O238 Fe239 1.715 . S
Fe239 O237 1.886 . S
Fe239 O238 1.715 . S
Fe239 O243 2.077 . S
Fe239 O248 1.935 . S
Fe239 O250 2.077 . S
Fe239 O258 1.935 . S
C240 O252 1.381 . S
C240 O253 1.421 . S
O241 Fe232 2.077 . S
O241 C254 1.381 . S
O242 Fe235 1.935 . S
O242 C254 1.421 . S
O243 Fe239 2.077 . S
O243 C259 1.381 . S
O244 Fe234 1.935 . S
O244 C259 1.421 . S
O245 Fe234 2.077 . S
O245 C249 1.381 . S
O246 Fe232 1.935 . S
O246 C249 1.421 . S
O247 Fe235 2.077 . S
O247 C255 1.381 . S
O248 Fe239 1.935 . S
O248 C255 1.421 . S
C249 O245 1.381 . S
C249 O246 1.421 . S
O250 Fe239 2.077 . S
O250 C262 1.381 . S
O251 Fe234 1.935 . S
O251 C262 1.421 . S
O252 Fe232 2.077 . S
O252 C240 1.381 . S
O253 Fe235 1.935 . S
O253 C240 1.421 . S
C254 O241 1.381 . S
C254 O242 1.421 . S
C255 O247 1.381 . S
C255 O248 1.421 . S
C256 O257 1.381 . S
C256 O258 1.421 . S
O257 Fe235 2.077 . S
O257 C256 1.381 . S
O258 Fe239 1.935 . S
O258 C256 1.421 . S
C259 O243 1.381 . S
C259 O244 1.421 . S
O260 Fe234 2.077 . S
O260 C263 1.381 . S
O261 Fe232 1.935 . S
O261 C263 1.421 . S
C262 O250 1.381 . S
C262 O251 1.421 . S
C263 O260 1.381 . S
C263 O261 1.421 . S
Fe264 O265 1.886 . S
Fe264 O268 1.715 . S
Fe264 O273 2.077 1_455 S
Fe264 O278 1.935 1_455 S
Fe264 O284 2.077 . S
Fe264 O293 1.935 . S
O265 Fe264 1.886 . S
O265 Fe267 1.715 . S
Fe266 O268 1.886 . S
Fe266 O269 1.715 . S
Fe266 O276 1.935 1_455 S
Fe266 O277 2.077 1_455 S
Fe266 O283 1.935 . S
Fe266 O292 2.077 . S
Fe267 O265 1.715 . S
Fe267 O270 1.886 . S
Fe267 O274 1.935 1_455 S
Fe267 O279 2.077 1_455 S
Fe267 O285 1.935 . S
Fe267 O289 2.077 . S
O268 Fe264 1.715 . S
O268 Fe266 1.886 . S
O269 Fe266 1.715 . S
O269 Fe271 1.886 . S
O270 Fe267 1.886 . S
O270 Fe271 1.715 . S
Fe271 O269 1.886 . S
Fe271 O270 1.715 . S
Fe271 O275 2.077 1_455 S
Fe271 O280 1.935 1_455 S
Fe271 O282 2.077 . S
Fe271 O290 1.935 . S
C272 O284 1.381 . S
C272 O285 1.421 . S
O273 Fe264 2.077 1_655 S
O273 C286 1.381 . S
O274 Fe267 1.935 1_655 S
O274 C286 1.421 . S
O275 Fe271 2.077 1_655 S
O275 C291 1.381 . S
O276 Fe266 1.935 1_655 S
O276 C291 1.421 . S
O277 Fe266 2.077 1_655 S
O277 C281 1.381 . S
O278 Fe264 1.935 1_655 S
O278 C281 1.421 . S
O279 Fe267 2.077 1_655 S
O279 C287 1.381 . S
O280 Fe271 1.935 1_655 S
O280 C287 1.421 . S
C281 O277 1.381 . S
C281 O278 1.421 . S
O282 Fe271 2.077 . S
O282 C294 1.381 . S
O283 Fe266 1.935 . S
O283 C294 1.421 . S
O284 Fe264 2.077 . S
O284 C272 1.381 . S
O285 Fe267 1.935 . S
O285 C272 1.421 . S
C286 O273 1.381 . S
C286 O274 1.421 . S
C287 O279 1.381 . S
C287 O280 1.421 . S
C288 O289 1.381 . S
C288 O290 1.421 . S
O289 Fe267 2.077 . S
O289 C288 1.381 . S
O290 Fe271 1.935 . S
O290 C288 1.421 . S
C291 O275 1.381 . S
C291 O276 1.421 . S
O292 Fe266 2.077 . S
O292 C295 1.381 . S
O293 Fe264 1.935 . S
O293 C295 1.421 . S
C294 O282 1.381 . S
C294 O283 1.421 . S
C295 O292 1.381 . S
C295 O293 1.421 . S
C296 C297 1.369 . S
C296 C298 1.419 . S
C296 H300 0.930 . S
C297 C296 1.369 . S
C297 C306 1.429 . S
C298 C296 1.419 . S
C298 C299 1.363 . S
C298 H301 0.929 . S
C299 C298 1.363 . S
C299 C305 1.428 . S
H300 C296 0.930 . S
H301 C298 0.929 . S
S302 N303 1.613 . S
S302 N304 1.610 . S
N303 S302 1.613 . S
N303 C306 1.350 1_545 S
N304 S302 1.610 . S
N304 C305 1.351 1_545 S
C305 C299 1.428 . S
C305 N304 1.351 1_565 S
C305 C306 1.434 . S
C306 C297 1.429 . S
C306 N303 1.350 1_565 S
C306 C305 1.434 . S
C307 C308 1.369 1_545 S
C307 C309 1.419 . S
C307 H311 0.930 . S
C308 C307 1.369 1_565 S
C308 C317 1.429 . S
C309 C307 1.419 . S
C309 C310 1.363 . S
C309 H312 0.929 . S
C310 C309 1.363 . S
C310 C316 1.428 . S
H311 C307 0.930 . S
H312 C309 0.929 . S
S313 N314 1.613 . S
S313 N315 1.610 1_565 S
N314 S313 1.613 . S
N314 C317 1.350 . S
N315 S313 1.610 1_545 S
N315 C316 1.351 . S
C316 C310 1.428 . S
C316 N315 1.351 . S
C316 C317 1.434 1_545 S
C317 C308 1.429 . S
C317 N314 1.350 . S
C317 C316 1.434 1_565 S
C318 C319 1.369 . S
C318 C320 1.419 . S
C318 H322 0.930 . S
C319 C318 1.369 . S
C319 C328 1.429 . S
C320 C318 1.419 . S
C320 C321 1.363 . S
C320 H323 0.929 . S
C321 C320 1.363 . S
C321 C327 1.428 . S
H322 C318 0.930 . S
H323 C320 0.929 . S
S324 N325 1.613 . S
S324 N326 1.610 . S
N325 S324 1.613 . S
N325 C328 1.350 1_565 S
N326 S324 1.610 . S
N326 C327 1.351 1_565 S
C327 C321 1.428 . S
C327 N326 1.351 1_545 S
C327 C328 1.434 . S
C328 C319 1.429 . S
C328 N325 1.350 1_545 S
C328 C327 1.434 . S
C329 C330 1.369 . S
C329 C331 1.419 1_545 S
C329 H333 0.930 . S
C330 C329 1.369 . S
C330 C339 1.429 . S
C331 C329 1.419 1_565 S
C331 C332 1.363 . S
C331 H334 0.929 . S
C332 C331 1.363 . S
C332 C338 1.428 . S
H333 C329 0.930 . S
H334 C331 0.929 . S
S335 N336 1.613 1_565 S
S335 N337 1.610 . S
N336 S335 1.613 1_545 S
N336 C339 1.350 . S
N337 S335 1.610 . S
N337 C338 1.351 . S
C338 C332 1.428 . S
C338 N337 1.351 . S
C338 C339 1.434 1_565 S
C339 C330 1.429 . S
C339 N336 1.350 . S
C339 C338 1.434 1_545 S
C340 C341 1.369 . S
C340 C342 1.419 . S
C340 H344 0.930 . S
C341 C340 1.369 . S
C341 C350 1.429 . S
C342 C340 1.419 . S
C342 C343 1.363 . S
C342 H345 0.929 . S
C343 C342 1.363 . S
C343 C349 1.428 . S
H344 C340 0.930 . S
H345 C342 0.929 . S
S346 N347 1.613 . S
S346 N348 1.610 . S
N347 S346 1.613 . S
N347 C350 1.350 . S
N348 S346 1.610 . S
N348 C349 1.351 . S
C349 C343 1.428 . S
C349 N348 1.351 . S
C349 C350 1.434 . S
C350 C341 1.429 . S
C350 N347 1.350 . S
C350 C349 1.434 . S
C351 C352 1.369 . S
C351 C353 1.419 1_565 S
C351 H355 0.930 . S
C352 C351 1.369 . S
C352 C361 1.429 1_565 S
C353 C351 1.419 1_545 S
C353 C354 1.363 . S
C353 H356 0.929 . S
C354 C353 1.363 . S
C354 C360 1.428 . S
H355 C351 0.930 . S
H356 C353 0.929 . S
S357 N358 1.613 . S
S357 N359 1.610 . S
N358 S357 1.613 . S
N358 C361 1.350 . S
N359 S357 1.610 . S
N359 C360 1.351 . S
C360 C354 1.428 . S
C360 N359 1.351 . S
C360 C361 1.434 . S
C361 C352 1.429 1_545 S
C361 N358 1.350 . S
C361 C360 1.434 . S
C362 C363 1.369 . S
C362 C364 1.419 . S
C362 H366 0.930 1_565 S
C363 C362 1.369 . S
C363 C372 1.429 . S
C364 C362 1.419 . S
C364 C365 1.363 . S
C364 H367 0.929 1_565 S
C365 C364 1.363 . S
C365 C371 1.428 . S
H366 C362 0.930 1_545 S
H367 C364 0.929 1_545 S
S368 N369 1.613 . S
S368 N370 1.610 . S
N369 S368 1.613 . S
N369 C372 1.350 . S
N370 S368 1.610 . S
N370 C371 1.351 . S
C371 C365 1.428 . S
C371 N370 1.351 . S
C371 C372 1.434 . S
C372 C363 1.429 . S
C372 N369 1.350 . S
C372 C371 1.434 . S
C373 C374 1.369 . S
C373 C375 1.419 1_545 S
C373 H377 0.930 . S
C374 C373 1.369 . S
C374 C383 1.429 1_545 S
C375 C373 1.419 1_565 S
C375 C376 1.363 . S
C375 H378 0.929 1_565 S
C376 C375 1.363 . S
C376 C382 1.428 . S
H377 C373 0.930 . S
H378 C375 0.929 1_545 S
S379 N380 1.613 . S
S379 N381 1.610 . S
N380 S379 1.613 . S
N380 C383 1.350 . S
N381 S379 1.610 . S
N381 C382 1.351 . S
C382 C376 1.428 . S
C382 N381 1.351 . S
C382 C383 1.434 . S
C383 C374 1.429 1_565 S
C383 N380 1.350 . S
C383 C382 1.434 . S
C384 C385 1.369 . S
C384 C386 1.419 . S
C384 H388 0.930 . S
C385 C384 1.369 . S
C385 C394 1.429 . S
C386 C384 1.419 . S
C386 C387 1.363 . S
C386 H389 0.929 . S
C387 C386 1.363 . S
C387 C393 1.428 . S
H388 C384 0.930 . S
H389 C386 0.929 . S
S390 N391 1.613 . S
S390 N392 1.610 . S
N391 S390 1.613 . S
N391 C394 1.350 . S
N392 S390 1.610 . S
N392 C393 1.351 . S
C393 C387 1.428 . S
C393 N392 1.351 . S
C393 C394 1.434 . S
C394 C385 1.429 . S
C394 N391 1.350 . S
C394 C393 1.434 . S
C395 C396 1.369 . S
C395 C397 1.419 1_545 S
C395 H399 0.930 . S
C396 C395 1.369 . S
C396 C405 1.429 1_545 S
C397 C395 1.419 1_565 S
C397 C398 1.363 . S
C397 H400 0.929 1_565 S
C398 C397 1.363 . S
C398 C404 1.428 . S
H399 C395 0.930 . S
H400 C397 0.929 1_545 S
S401 N402 1.613 . S
S401 N403 1.610 . S
N402 S401 1.613 . S
N402 C405 1.350 . S
N403 S401 1.610 . S
N403 C404 1.351 . S
C404 C398 1.428 . S
C404 N403 1.351 . S
C404 C405 1.434 . S
C405 C396 1.429 1_565 S
C405 N402 1.350 . S
C405 C404 1.434 . S
C406 C407 1.369 . S
C406 C408 1.419 . S
C406 H410 0.930 1_565 S
C407 C406 1.369 . S
C407 C416 1.429 . S
C408 C406 1.419 . S
C408 C409 1.363 . S
C408 H411 0.929 . S
C409 C408 1.363 . S
C409 C415 1.428 . S
H410 C406 0.930 1_545 S
H411 C408 0.929 . S
S412 N413 1.613 . S
S412 N414 1.610 . S
N413 S412 1.613 . S
N413 C416 1.350 . S
N414 S412 1.610 . S
N414 C415 1.351 . S
C415 C409 1.428 . S
C415 N414 1.351 . S
C415 C416 1.434 . S
C416 C407 1.429 . S
C416 N413 1.350 . S
C416 C415 1.434 . S
C417 C418 1.369 1_545 S
C417 C419 1.419 . S
C417 H421 0.930 . S
C418 C417 1.369 1_565 S
C418 C427 1.429 . S
C419 C417 1.419 . S
C419 C420 1.363 . S
C419 H422 0.929 . S
C420 C419 1.363 . S
C420 C426 1.428 . S
H421 C417 0.930 . S
H422 C419 0.929 . S
S423 N424 1.613 . S
S423 N425 1.610 1_565 S
N424 S423 1.613 . S
N424 C427 1.350 . S
N425 S423 1.610 1_545 S
N425 C426 1.351 . S
C426 C420 1.428 . S
C426 N425 1.351 . S
C426 C427 1.434 1_545 S
C427 C418 1.429 . S
C427 N424 1.350 . S
C427 C426 1.434 1_565 S
C428 C429 1.369 . S
C428 C430 1.419 . S
C428 H432 0.930 . S
C429 C428 1.369 . S
C429 C438 1.429 . S
C430 C428 1.419 . S
C430 C431 1.363 . S
C430 H433 0.929 . S
C431 C430 1.363 . S
C431 C437 1.428 . S
H432 C428 0.930 . S
H433 C430 0.929 . S
S434 N435 1.613 . S
S434 N436 1.610 . S
N435 S434 1.613 . S
N435 C438 1.350 . S
N436 S434 1.610 . S
N436 C437 1.351 . S
C437 C431 1.428 . S
C437 N436 1.351 . S
C437 C438 1.434 . S
C438 C429 1.429 . S
C438 N435 1.350 . S
C438 C437 1.434 . S
C439 C440 1.369 1_565 S
C439 C441 1.419 . S
C439 H443 0.930 . S
C440 C439 1.369 1_545 S
C440 C449 1.429 . S
C441 C439 1.419 . S
C441 C442 1.363 . S
C441 H444 0.929 . S
C442 C441 1.363 . S
C442 C448 1.428 . S
H443 C439 0.930 . S
H444 C441 0.929 . S
S445 N446 1.613 . S
S445 N447 1.610 . S
N446 S445 1.613 . S
N446 C449 1.350 . S
N447 S445 1.610 . S
N447 C448 1.351 1_545 S
C448 C442 1.428 . S
C448 N447 1.351 1_565 S
C448 C449 1.434 1_565 S
C449 C440 1.429 . S
C449 N446 1.350 . S
C449 C448 1.434 1_545 S
C450 C451 1.369 . S
C450 C452 1.419 . S
C450 H454 0.930 . S
C451 C450 1.369 . S
C451 C460 1.429 . S
C452 C450 1.419 . S
C452 C453 1.363 . S
C452 H455 0.929 . S
C453 C452 1.363 . S
C453 C459 1.428 . S
H454 C450 0.930 . S
H455 C452 0.929 . S
S456 N457 1.613 . S
S456 N458 1.610 . S
N457 S456 1.613 . S
N457 C460 1.350 . S
N458 S456 1.610 . S
N458 C459 1.351 . S
C459 C453 1.428 . S
C459 N458 1.351 . S
C459 C460 1.434 . S
C460 C451 1.429 . S
C460 N457 1.350 . S
C460 C459 1.434 . S
C461 C462 1.369 1_545 S
C461 C463 1.419 . S
C461 H465 0.930 . S
C462 C461 1.369 1_565 S
C462 C471 1.429 . S
C463 C461 1.419 . S
C463 C464 1.363 . S
C463 H466 0.929 . S
C464 C463 1.363 . S
C464 C470 1.428 . S
H465 C461 0.930 . S
H466 C463 0.929 . S
S467 N468 1.613 . S
S467 N469 1.610 1_565 S
N468 S467 1.613 . S
N468 C471 1.350 . S
N469 S467 1.610 1_545 S
N469 C470 1.351 . S
C470 C464 1.428 . S
C470 N469 1.351 . S
C470 C471 1.434 1_545 S
C471 C462 1.429 . S
C471 N468 1.350 . S
C471 C470 1.434 1_565 S
C472 C473 1.369 . S
C472 C474 1.419 . S
C472 H476 0.930 . S
C473 C472 1.369 . S
C473 C482 1.429 . S
C474 C472 1.419 . S
C474 C475 1.363 . S
C474 H477 0.929 . S
C475 C474 1.363 . S
C475 C481 1.428 . S
H476 C472 0.930 . S
H477 C474 0.929 . S
S478 N479 1.614 . S
S478 N480 1.593 1_554 S
N479 S478 1.614 . S
N479 C482 1.350 1_554 S
N480 S478 1.593 1_556 S
N480 C481 1.351 . S
C481 C475 1.428 . S
C481 N480 1.351 . S
C481 C482 1.434 . S
C482 C473 1.429 . S
C482 N479 1.350 1_556 S
C482 C481 1.434 . S
C483 C484 1.369 . S
C483 C485 1.419 . S
C483 H487 0.930 . S
C484 C483 1.369 . S
C484 C493 1.429 . S
C485 C483 1.419 . S
C485 C486 1.363 . S
C485 H488 0.929 . S
C486 C485 1.363 . S
C486 C492 1.428 . S
H487 C483 0.930 . S
H488 C485 0.929 . S
S489 N490 1.613 . S
S489 N491 1.610 . S
N490 S489 1.613 . S
N490 C493 1.350 . S
N491 S489 1.610 . S
N491 C492 1.351 . S
C492 C486 1.428 . S
C492 N491 1.351 . S
C492 C493 1.434 . S
C493 C484 1.429 . S
C493 N490 1.350 . S
C493 C492 1.434 . S
C494 C495 1.369 . S
C494 C496 1.419 . S
C494 H498 0.930 . S
C495 C494 1.369 . S
C495 C504 1.429 . S
C496 C494 1.419 . S
C496 C497 1.363 . S
C496 H499 0.929 . S
C497 C496 1.363 . S
C497 C503 1.428 . S
H498 C494 0.930 . S
H499 C496 0.929 . S
S500 N501 1.613 . S
S500 N502 1.610 . S
N501 S500 1.613 . S
N501 C504 1.350 . S
N502 S500 1.610 . S
N502 C503 1.351 . S
C503 C497 1.428 . S
C503 N502 1.351 . S
C503 C504 1.434 . S
C504 C495 1.429 . S
C504 N501 1.350 . S
C504 C503 1.434 . S
C505 C506 1.369 . S
C505 C507 1.419 . S
C505 H509 0.930 . S
C506 C505 1.369 . S
C506 C515 1.429 . S
C507 C505 1.419 . S
C507 C508 1.363 . S
C507 H510 0.929 . S
C508 C507 1.363 . S
C508 C514 1.428 . S
H509 C505 0.930 . S
H510 C507 0.929 . S
S511 N512 1.613 . S
S511 N513 1.610 . S
N512 S511 1.613 . S
N512 C515 1.350 . S
N513 S511 1.610 . S
N513 C514 1.351 . S
C514 C508 1.428 . S
C514 N513 1.351 . S
C514 C515 1.434 . S
C515 C506 1.429 . S
C515 N512 1.350 . S
C515 C514 1.434 . S
C516 C517 1.369 . S
C516 C518 1.419 . S
C516 H520 0.930 . S
C517 C516 1.369 . S
C517 C526 1.429 . S
C518 C516 1.419 . S
C518 C519 1.363 . S
C518 H521 0.929 . S
C519 C518 1.363 . S
C519 C525 1.428 . S
H520 C516 0.930 . S
H521 C518 0.929 . S
S522 N523 1.613 . S
S522 N524 1.610 . S
N523 S522 1.613 . S
N523 C526 1.350 . S
N524 S522 1.610 . S
N524 C525 1.351 . S
C525 C519 1.428 . S
C525 N524 1.351 . S
C525 C526 1.434 . S
C526 C517 1.429 . S
C526 N523 1.350 . S
C526 C525 1.434 . S
C527 C528 1.369 . S
C527 C529 1.419 . S
C527 H531 0.930 . S
C528 C527 1.369 . S
C528 C537 1.429 . S
C529 C527 1.419 . S
C529 C530 1.363 . S
C529 H532 0.929 . S
C530 C529 1.363 . S
C530 C536 1.428 . S
H531 C527 0.930 . S
H532 C529 0.929 . S
S533 N534 1.613 . S
S533 N535 1.610 . S
N534 S533 1.613 . S
N534 C537 1.350 . S
N535 S533 1.610 . S
N535 C536 1.351 . S
C536 C530 1.428 . S
C536 N535 1.351 . S
C536 C537 1.434 . S
C537 C528 1.429 . S
C537 N534 1.350 . S
C537 C536 1.434 . S
C538 C539 1.369 . S
C538 C540 1.419 . S
C538 H542 0.930 . S
C539 C538 1.369 . S
C539 C548 1.429 . S
C540 C538 1.419 . S
C540 C541 1.363 . S
C540 H543 0.929 . S
C541 C540 1.363 . S
C541 C547 1.428 . S
H542 C538 0.930 . S
H543 C540 0.929 . S
S544 N545 1.613 . S
S544 N546 1.610 . S
N545 S544 1.613 . S
N545 C548 1.350 . S
N546 S544 1.610 . S
N546 C547 1.351 . S
C547 C541 1.428 . S
C547 N546 1.351 . S
C547 C548 1.434 . S
C548 C539 1.429 . S
C548 N545 1.350 . S
C548 C547 1.434 . S
C549 C550 1.369 . S
C549 C551 1.419 . S
C549 H553 0.930 . S
C550 C549 1.369 . S
C550 C559 1.429 . S
C551 C549 1.419 . S
C551 C552 1.363 . S
C551 H554 0.929 . S
C552 C551 1.363 . S
C552 C558 1.428 . S
H553 C549 0.930 . S
H554 C551 0.929 . S
S555 N556 1.613 . S
S555 N557 1.610 . S
N556 S555 1.613 . S
N556 C559 1.350 . S
N557 S555 1.610 . S
N557 C558 1.351 . S
C558 C552 1.428 . S
C558 N557 1.351 . S
C558 C559 1.434 . S
C559 C550 1.429 . S
C559 N556 1.350 . S
C559 C558 1.434 . S
C560 C561 1.369 . S
C560 C562 1.419 . S
C560 H564 0.930 . S
C561 C560 1.369 . S
C561 C570 1.429 . S
C562 C560 1.419 . S
C562 C563 1.363 . S
C562 H565 0.929 . S
C563 C562 1.363 . S
C563 C569 1.428 . S
H564 C560 0.930 . S
H565 C562 0.929 . S
S566 N567 1.613 . S
S566 N568 1.610 . S
N567 S566 1.613 . S
N567 C570 1.350 . S
N568 S566 1.610 . S
N568 C569 1.351 . S
C569 C563 1.428 . S
C569 N568 1.351 . S
C569 C570 1.434 . S
C570 C561 1.429 . S
C570 N567 1.350 . S
C570 C569 1.434 . S
C571 C572 1.369 . S
C571 C573 1.419 . S
C571 H575 0.930 . S
C572 C571 1.369 . S
C572 C581 1.429 . S
C573 C571 1.419 . S
C573 C574 1.363 . S
C573 H576 0.929 . S
C574 C573 1.363 . S
C574 C580 1.428 . S
H575 C571 0.930 . S
H576 C573 0.929 . S
S577 N578 1.613 . S
S577 N579 1.610 . S
N578 S577 1.613 . S
N578 C581 1.350 . S
N579 S577 1.610 . S
N579 C580 1.351 . S
C580 C574 1.428 . S
C580 N579 1.351 . S
C580 C581 1.434 . S
C581 C572 1.429 . S
C581 N578 1.350 . S
C581 C580 1.434 . S
C582 C583 1.369 . S
C582 C584 1.419 . S
C582 H586 0.930 . S
C583 C582 1.369 . S
C583 C592 1.429 . S
C584 C582 1.419 . S
C584 C585 1.363 . S
C584 H587 0.929 . S
C585 C584 1.363 . S
C585 C591 1.428 . S
H586 C582 0.930 . S
H587 C584 0.929 . S
S588 N589 1.613 . S
S588 N590 1.610 . S
N589 S588 1.613 . S
N589 C592 1.350 . S
N590 S588 1.610 . S
N590 C591 1.351 . S
C591 C585 1.428 . S
C591 N590 1.351 . S
C591 C592 1.434 . S
C592 C583 1.429 . S
C592 N589 1.350 . S
C592 C591 1.434 . S
C593 C594 1.369 . S
C593 C595 1.419 . S
C593 H597 0.930 . S
C594 C593 1.369 . S
C594 C603 1.429 . S
C595 C593 1.419 . S
C595 C596 1.363 . S
C595 H598 0.929 . S
C596 C595 1.363 . S
C596 C602 1.428 . S
H597 C593 0.930 . S
H598 C595 0.929 . S
S599 N600 1.613 . S
S599 N601 1.610 . S
N600 S599 1.613 . S
N600 C603 1.350 . S
N601 S599 1.610 . S
N601 C602 1.351 . S
C602 C596 1.428 . S
C602 N601 1.351 . S
C602 C603 1.434 . S
C603 C594 1.429 . S
C603 N600 1.350 . S
C603 C602 1.434 . S
C604 C605 1.369 . S
C604 C606 1.419 . S
C604 H608 0.930 . S
C605 C604 1.369 . S
C605 C614 1.429 . S
C606 C604 1.419 . S
C606 C607 1.363 . S
C606 H609 0.929 . S
C607 C606 1.363 . S
C607 C613 1.428 . S
H608 C604 0.930 . S
H609 C606 0.929 . S
S610 N611 1.613 . S
S610 N612 1.610 1_554 S
N611 S610 1.613 . S
N611 C614 1.350 1_554 S
N612 S610 1.610 1_556 S
N612 C613 1.351 . S
C613 C607 1.428 . S
C613 N612 1.351 . S
C613 C614 1.434 . S
C614 C605 1.429 . S
C614 N611 1.350 1_556 S
C614 C613 1.434 . S
C615 C616 1.369 . S
C615 C617 1.419 . S
C615 H619 0.930 . S
C616 C615 1.369 . S
C616 C625 1.429 . S
C617 C615 1.419 . S
C617 C618 1.363 . S
C617 H620 0.929 . S
C618 C617 1.363 . S
C618 C624 1.428 . S
H619 C615 0.930 . S
H620 C617 0.929 . S
S621 N622 1.613 . S
S621 N623 1.610 . S
N622 S621 1.613 . S
N622 C625 1.350 . S
N623 S621 1.610 . S
N623 C624 1.351 . S
C624 C618 1.428 . S
C624 N623 1.351 . S
C624 C625 1.434 . S
C625 C616 1.429 . S
C625 N622 1.350 . S
C625 C624 1.434 . S
C626 C627 1.369 . S
C626 C628 1.419 . S
C626 H630 0.930 . S
C627 C626 1.369 . S
C627 C636 1.429 . S
C628 C626 1.419 . S
C628 C629 1.363 . S
C628 H631 0.929 . S
C629 C628 1.363 . S
C629 C635 1.428 . S
H630 C626 0.930 . S
H631 C628 0.929 . S
S632 N633 1.613 . S
S632 N634 1.610 . S
N633 S632 1.613 . S
N633 C636 1.350 . S
N634 S632 1.610 . S
N634 C635 1.351 . S
C635 C629 1.428 . S
C635 N634 1.351 . S
C635 C636 1.434 . S
C636 C627 1.429 . S
C636 N633 1.350 . S
C636 C635 1.434 . S
C637 C638 1.369 . S
C637 C639 1.419 . S
C637 H641 0.930 . S
C638 C637 1.369 . S
C638 C647 1.429 . S
C639 C637 1.419 . S
C639 C640 1.363 . S
C639 H642 0.929 . S
C640 C639 1.363 . S
C640 C646 1.428 . S
H641 C637 0.930 . S
H642 C639 0.929 . S
S643 N644 1.613 . S
S643 N645 1.610 . S
N644 S643 1.613 . S
N644 C647 1.350 . S
N645 S643 1.610 . S
N645 C646 1.351 . S
C646 C640 1.428 . S
C646 N645 1.351 . S
C646 C647 1.434 . S
C647 C638 1.429 . S
C647 N644 1.350 . S
C647 C646 1.434 . S
C299 C217 1.590 . S
C297 C17 1.501 . S
C308 C30 1.518 . S
C310 C249 1.556 . S
C319 C61 1.508 . S
C321 C272 1.554 . S
C332 C176 1.599 . S
C330 C72 1.541 . S
C343 C259 1.402 . S
C341 C19 1.536 . S
C354 C288 1.457 . S
C352 C33 1.481 . S
C365 C192 1.451 . S
C363 C59 1.508 . S
C376 C227 1.414 . S
C374 C75 1.458 . S
C385 C12 1.498 . S
C387 C255 1.430 . S
C396 C101 1.497 . S
C398 C230 1.410 . S
C407 C51 1.455 . S
C409 C198 1.373 . S
C420 C287 1.396 . S
C418 C124 1.455 . S
C431 C231 1.577 . S
C429 C9 1.512 . S
C440 C103 1.518 . S
C442 C199 1.570 . S
C451 C54 1.544 . S
C453 C286 1.620 . S
C464 C254 1.626 . S
C462 C122 1.553 . S
C473 C145 1.515 . S
C475 C281 1.544 . S
C484 C96 1.483 . S
C486 C185 1.581 . S
C495 C166 1.547 . S
C497 C208 1.590 . S
C506 C114 1.515 . S
C508 C240 1.570 . S
C519 C195 1.434 . S
C517 C143 1.511 . S
C528 C93 1.522 . S
C530 C224 1.427 . S
C539 C164 1.469 . S
C541 C256 1.433 . S
C552 C291 1.445 . S
C550 C117 1.490 . S
C561 C135 1.454 . S
C563 C191 1.404 . S
C572 C40 1.457 . S
C574 C294 1.371 . S
C583 C156 1.480 . S
C585 C262 1.403 . S
C596 C223 1.416 . S
C594 C82 1.495 . S
C607 C295 1.609 . S
C605 C138 1.539 . S
C618 C263 1.613 . S
C616 C38 1.552 . S
C629 C222 1.586 . S
C627 C159 1.505 . S
C640 C190 1.596 . S
C638 C80 1.519 . S
