# Generated by pormake.
# Topology ptr, (4,4)-cn, num edge types: 1
# Building blocks:
#     Node 0, Type 0, BuildingBlock: QUQFOY_clean_sbu_3, # of connection points: 4
#     Node 1, Type 0, BuildingBlock: QUQFOY_clean_sbu_3, # of connection points: 4
#     Node 2, Type 0, BuildingBlock: QUQFOY_clean_sbu_3, # of connection points: 4
#     Node 3, Type 0, BuildingBlock: QUQFOY_clean_sbu_3, # of connection points: 4
#     Node 4, Type 0, BuildingBlock: QUQFOY_clean_sbu_3, # of connection points: 4
#     Node 5, Type 0, BuildingBlock: QUQFOY_clean_sbu_3, # of connection points: 4
#     Node 6, Type 0, BuildingBlock: QUQFOY_clean_sbu_3, # of connection points: 4
#     Node 7, Type 0, BuildingBlock: QUQFOY_clean_sbu_3, # of connection points: 4
#     Node 8, Type 0, BuildingBlock: QUQFOY_clean_sbu_3, # of connection points: 4
#     Node 9, Type 0, BuildingBlock: QUQFOY_clean_sbu_3, # of connection points: 4
#     Node 10, Type 0, BuildingBlock: QUQFOY_clean_sbu_3, # of connection points: 4
#     Node 11, Type 0, BuildingBlock: QUQFOY_clean_sbu_3, # of connection points: 4
#     Node 12, Type 0, BuildingBlock: QUQFOY_clean_sbu_3, # of connection points: 4
#     Node 13, Type 0, BuildingBlock: QUQFOY_clean_sbu_3, # of connection points: 4
#     Node 14, Type 0, BuildingBlock: QUQFOY_clean_sbu_3, # of connection points: 4
#     Node 15, Type 0, BuildingBlock: QUQFOY_clean_sbu_3, # of connection points: 4
#     Node 16, Type 0, BuildingBlock: QUQFOY_clean_sbu_3, # of connection points: 4
#     Node 17, Type 0, BuildingBlock: QUQFOY_clean_sbu_3, # of connection points: 4
#     Node 18, Type 1, BuildingBlock: AZAVOO_clean_linker_0, # of connection points: 4
#     Node 19, Type 1, BuildingBlock: AZAVOO_clean_linker_0, # of connection points: 4
#     Node 20, Type 1, BuildingBlock: AZAVOO_clean_linker_0, # of connection points: 4
#     Node 21, Type 1, BuildingBlock: AZAVOO_clean_linker_0, # of connection points: 4
#     Node 22, Type 1, BuildingBlock: AZAVOO_clean_linker_0, # of connection points: 4
#     Node 23, Type 1, BuildingBlock: AZAVOO_clean_linker_0, # of connection points: 4
#     Node 24, Type 1, BuildingBlock: AZAVOO_clean_linker_0, # of connection points: 4
#     Node 25, Type 1, BuildingBlock: AZAVOO_clean_linker_0, # of connection points: 4
#     Node 26, Type 1, BuildingBlock: AZAVOO_clean_linker_0, # of connection points: 4
#     Node 27, Type 1, BuildingBlock: AZAVOO_clean_linker_0, # of connection points: 4
#     Node 28, Type 1, BuildingBlock: AZAVOO_clean_linker_0, # of connection points: 4
#     Node 29, Type 1, BuildingBlock: AZAVOO_clean_linker_0, # of connection points: 4
#     Node 30, Type 1, BuildingBlock: AZAVOO_clean_linker_0, # of connection points: 4
#     Node 31, Type 1, BuildingBlock: AZAVOO_clean_linker_0, # of connection points: 4
#     Node 32, Type 1, BuildingBlock: AZAVOO_clean_linker_0, # of connection points: 4
#     Node 33, Type 1, BuildingBlock: AZAVOO_clean_linker_0, # of connection points: 4
#     Node 34, Type 1, BuildingBlock: AZAVOO_clean_linker_0, # of connection points: 4
#     Node 35, Type 1, BuildingBlock: AZAVOO_clean_linker_0, # of connection points: 4
#     Edge 36, Type (0, 1), BuildingBlock: TEMPAE_clean_linker_10, # of connection points: 2
#     Edge 37, Type (0, 1), BuildingBlock: TEMPAE_clean_linker_10, # of connection points: 2
#     Edge 38, Type (0, 1), BuildingBlock: TEMPAE_clean_linker_10, # of connection points: 2
#     Edge 39, Type (0, 1), BuildingBlock: TEMPAE_clean_linker_10, # of connection points: 2
#     Edge 40, Type (0, 1), BuildingBlock: TEMPAE_clean_linker_10, # of connection points: 2
#     Edge 41, Type (0, 1), BuildingBlock: TEMPAE_clean_linker_10, # of connection points: 2
#     Edge 42, Type (0, 1), BuildingBlock: TEMPAE_clean_linker_10, # of connection points: 2
#     Edge 43, Type (0, 1), BuildingBlock: TEMPAE_clean_linker_10, # of connection points: 2
#     Edge 44, Type (0, 1), BuildingBlock: TEMPAE_clean_linker_10, # of connection points: 2
#     Edge 45, Type (0, 1), BuildingBlock: TEMPAE_clean_linker_10, # of connection points: 2
#     Edge 46, Type (0, 1), BuildingBlock: TEMPAE_clean_linker_10, # of connection points: 2
#     Edge 47, Type (0, 1), BuildingBlock: TEMPAE_clean_linker_10, # of connection points: 2
#     Edge 48, Type (0, 1), BuildingBlock: TEMPAE_clean_linker_10, # of connection points: 2
#     Edge 49, Type (0, 1), BuildingBlock: TEMPAE_clean_linker_10, # of connection points: 2
#     Edge 50, Type (0, 1), BuildingBlock: TEMPAE_clean_linker_10, # of connection points: 2
#     Edge 51, Type (0, 1), BuildingBlock: TEMPAE_clean_linker_10, # of connection points: 2
#     Edge 52, Type (0, 1), BuildingBlock: TEMPAE_clean_linker_10, # of connection points: 2
#     Edge 53, Type (0, 1), BuildingBlock: TEMPAE_clean_linker_10, # of connection points: 2
#     Edge 54, Type (0, 1), BuildingBlock: TEMPAE_clean_linker_10, # of connection points: 2
#     Edge 55, Type (0, 1), BuildingBlock: TEMPAE_clean_linker_10, # of connection points: 2
#     Edge 56, Type (0, 1), BuildingBlock: TEMPAE_clean_linker_10, # of connection points: 2
#     Edge 57, Type (0, 1), BuildingBlock: TEMPAE_clean_linker_10, # of connection points: 2
#     Edge 58, Type (0, 1), BuildingBlock: TEMPAE_clean_linker_10, # of connection points: 2
#     Edge 59, Type (0, 1), BuildingBlock: TEMPAE_clean_linker_10, # of connection points: 2
#     Edge 60, Type (0, 1), BuildingBlock: TEMPAE_clean_linker_10, # of connection points: 2
#     Edge 61, Type (0, 1), BuildingBlock: TEMPAE_clean_linker_10, # of connection points: 2
#     Edge 62, Type (0, 1), BuildingBlock: TEMPAE_clean_linker_10, # of connection points: 2
#     Edge 63, Type (0, 1), BuildingBlock: TEMPAE_clean_linker_10, # of connection points: 2
#     Edge 64, Type (0, 1), BuildingBlock: TEMPAE_clean_linker_10, # of connection points: 2
#     Edge 65, Type (0, 1), BuildingBlock: TEMPAE_clean_linker_10, # of connection points: 2
#     Edge 66, Type (0, 1), BuildingBlock: TEMPAE_clean_linker_10, # of connection points: 2
#     Edge 67, Type (0, 1), BuildingBlock: TEMPAE_clean_linker_10, # of connection points: 2
#     Edge 68, Type (0, 1), BuildingBlock: TEMPAE_clean_linker_10, # of connection points: 2
#     Edge 69, Type (0, 1), BuildingBlock: TEMPAE_clean_linker_10, # of connection points: 2
#     Edge 70, Type (0, 1), BuildingBlock: TEMPAE_clean_linker_10, # of connection points: 2
#     Edge 71, Type (0, 1), BuildingBlock: TEMPAE_clean_linker_10, # of connection points: 2
#     Edge 72, Type (0, 1), BuildingBlock: TEMPAE_clean_linker_10, # of connection points: 2
#     Edge 73, Type (0, 1), BuildingBlock: TEMPAE_clean_linker_10, # of connection points: 2
#     Edge 74, Type (0, 1), BuildingBlock: TEMPAE_clean_linker_10, # of connection points: 2
#     Edge 75, Type (0, 1), BuildingBlock: TEMPAE_clean_linker_10, # of connection points: 2
#     Edge 76, Type (0, 1), BuildingBlock: TEMPAE_clean_linker_10, # of connection points: 2
#     Edge 77, Type (0, 1), BuildingBlock: TEMPAE_clean_linker_10, # of connection points: 2
#     Edge 78, Type (0, 1), BuildingBlock: TEMPAE_clean_linker_10, # of connection points: 2
#     Edge 79, Type (0, 1), BuildingBlock: TEMPAE_clean_linker_10, # of connection points: 2
#     Edge 80, Type (0, 1), BuildingBlock: TEMPAE_clean_linker_10, # of connection points: 2
#     Edge 81, Type (0, 1), BuildingBlock: TEMPAE_clean_linker_10, # of connection points: 2
#     Edge 82, Type (0, 1), BuildingBlock: TEMPAE_clean_linker_10, # of connection points: 2
#     Edge 83, Type (0, 1), BuildingBlock: TEMPAE_clean_linker_10, # of connection points: 2
#     Edge 84, Type (0, 1), BuildingBlock: TEMPAE_clean_linker_10, # of connection points: 2
#     Edge 85, Type (0, 1), BuildingBlock: TEMPAE_clean_linker_10, # of connection points: 2
#     Edge 86, Type (0, 1), BuildingBlock: TEMPAE_clean_linker_10, # of connection points: 2
#     Edge 87, Type (0, 1), BuildingBlock: TEMPAE_clean_linker_10, # of connection points: 2
#     Edge 88, Type (0, 1), BuildingBlock: TEMPAE_clean_linker_10, # of connection points: 2
#     Edge 89, Type (0, 1), BuildingBlock: TEMPAE_clean_linker_10, # of connection points: 2
#     Edge 90, Type (0, 1), BuildingBlock: TEMPAE_clean_linker_10, # of connection points: 2
#     Edge 91, Type (0, 1), BuildingBlock: TEMPAE_clean_linker_10, # of connection points: 2
#     Edge 92, Type (0, 1), BuildingBlock: TEMPAE_clean_linker_10, # of connection points: 2
#     Edge 93, Type (0, 1), BuildingBlock: TEMPAE_clean_linker_10, # of connection points: 2
#     Edge 94, Type (0, 1), BuildingBlock: TEMPAE_clean_linker_10, # of connection points: 2
#     Edge 95, Type (0, 1), BuildingBlock: TEMPAE_clean_linker_10, # of connection points: 2
#     Edge 96, Type (0, 1), BuildingBlock: TEMPAE_clean_linker_10, # of connection points: 2
#     Edge 97, Type (0, 1), BuildingBlock: TEMPAE_clean_linker_10, # of connection points: 2
#     Edge 98, Type (0, 1), BuildingBlock: TEMPAE_clean_linker_10, # of connection points: 2
#     Edge 99, Type (0, 1), BuildingBlock: TEMPAE_clean_linker_10, # of connection points: 2
#     Edge 100, Type (0, 1), BuildingBlock: TEMPAE_clean_linker_10, # of connection points: 2
#     Edge 101, Type (0, 1), BuildingBlock: TEMPAE_clean_linker_10, # of connection points: 2
#     Edge 102, Type (0, 1), BuildingBlock: TEMPAE_clean_linker_10, # of connection points: 2
#     Edge 103, Type (0, 1), BuildingBlock: TEMPAE_clean_linker_10, # of connection points: 2
#     Edge 104, Type (0, 1), BuildingBlock: TEMPAE_clean_linker_10, # of connection points: 2
#     Edge 105, Type (0, 1), BuildingBlock: TEMPAE_clean_linker_10, # of connection points: 2
#     Edge 106, Type (0, 1), BuildingBlock: TEMPAE_clean_linker_10, # of connection points: 2
#     Edge 107, Type (0, 1), BuildingBlock: TEMPAE_clean_linker_10, # of connection points: 2
# Relax obj value: 0.054
# Max RMSD: 0.179
# Mean RMSD: 0.120
data_MOF--net-ptr--node1-QUQFOY_clean_sbu_3--node2-AZAVOO_clean_linker_0--edge1-TEMPAE_clean_linker_10
_symmetry_space_group_name_H-M    P1
_symmetry_Int_Tables_number       1
_symmetry_cell_setting            triclinic
loop_
_symmetry_equiv_pos_as_xyz
'x, y, z'
_cell_length_a     83.097132
_cell_length_b     82.14577
_cell_length_c     70.514526
_cell_angle_alpha  92.990137
_cell_angle_beta   91.959687
_cell_angle_gamma 120.69162
loop_
_atom_site_label
_atom_site_type_symbol
_atom_site_fract_x
_atom_site_fract_y
_atom_site_fract_z
_atom_type_partial_charge
C0 C 0.96643 0.31863 0.99584 0.0
O1 O 0.95649 0.32609 -0.00134 0.0
Cd2 Cd 0.96795 0.35651 0.01563 0.0
O3 O 0.98345 0.32704 0.00251 0.0
Cd4 Cd 0.00674 0.35635 0.02191 0.0
C5 C 0.0052 0.38418 0.98886 0.0
O6 O 0.98529 0.35788 0.04378 0.0
O7 O 0.01356 0.38211 0.04563 0.0
O8 O 0.01351 0.33547 0.03882 0.0
C9 C 0.99732 0.37403 0.05184 0.0
O10 O 0.98915 0.37922 0.9948 0.0
C11 C 0.03108 0.34453 0.03727 0.0
O12 O 0.01477 0.37722 0.9953 0.0
O13 O 0.03763 0.35926 0.02802 0.0
C14 C 0.62926 0.66195 0.08663 0.0
O15 O 0.61177 0.65534 0.08378 0.0
Cd16 Cd 0.59194 0.62489 0.06661 0.0
O17 O 0.63663 0.65296 0.0795 0.0
Cd18 Cd 0.62795 0.62435 0.0585 0.0
C19 C 0.60204 0.59576 0.09135 0.0
O20 O 0.60455 0.62461 0.03653 0.0
O21 O 0.60618 0.59914 0.03492 0.0
O22 O 0.65465 0.64539 0.04161 0.0
C23 C 0.59955 0.6086 0.02793 0.0
O24 O 0.59047 0.6009 0.08661 0.0
C25 C 0.66316 0.63632 0.04286 0.0
O26 O 0.61784 0.60286 0.08409 0.0
O27 O 0.6553 0.6213 0.05165 0.0
C28 C 0.34714 0.95834 0.03262 0.0
O29 O 0.35472 0.94905 0.02698 0.0
Cd30 Cd 0.38451 0.96522 0.01248 0.0
O31 O 0.3543 0.9757 0.02945 0.0
Cd32 Cd 0.37955 0.00142 0.01399 0.0
C33 C 0.41008 0.00189 0.04703 0.0
O34 O 0.38134 0.98224 0.98749 0.0
O35 O 0.40332 0.01185 0.99098 0.0
O36 O 0.35457 0.00544 0.00149 0.0
C37 C 0.39591 0.99591 0.98136 0.0
O38 O 0.4077 0.98699 0.03778 0.0
C39 C 0.36259 0.02311 0.0062 0.0
O40 O 0.40063 0.0095 0.04239 0.0
O41 O 0.37883 0.03097 0.01481 0.0
C42 C 0.95453 0.63454 0.0245 0.0
O43 O 0.94373 0.6181 0.02983 0.0
Cd44 Cd 0.95612 0.60102 0.04539 0.0
O45 O 0.97199 0.64363 0.02947 0.0
Cd46 Cd 0.99465 0.64108 0.05086 0.0
C47 C 0.99285 0.60912 0.01764 0.0
O48 O 0.97384 0.61987 0.07368 0.0
O49 O 0.00236 0.62561 0.07472 0.0
O50 O 0.00185 0.67148 0.06582 0.0
C51 C 0.98642 0.61751 0.08153 0.0
O52 O 0.97644 0.59806 0.02287 0.0
C53 C 0.01944 0.6797 0.06447 0.0
O54 O 0.00284 0.6261 0.02514 0.0
O55 O 0.02562 0.66998 0.05637 0.0
C56 C 0.33682 0.37808 0.02066 0.0
O57 O 0.34411 0.39595 0.02105 0.0
Cd58 Cd 0.37514 0.41521 0.01063 0.0
O59 O 0.34537 0.37027 0.01367 0.0
Cd60 Cd 0.37363 0.37745 0.99744 0.0
C61 C 0.40007 0.40068 0.03789 0.0
O62 O 0.37625 0.40303 0.97915 0.0
O63 O 0.4001 0.3991 0.98029 0.0
O64 O 0.35244 0.35102 0.97505 0.0
C65 C 0.39225 0.40753 0.97351 0.0
O66 O 0.39603 0.41333 0.03461 0.0
C67 C 0.36035 0.34144 0.97725 0.0
O68 O 0.39335 0.38553 0.02691 0.0
O69 O 0.37494 0.34886 0.98868 0.0
C70 C 0.66611 0.04116 0.03375 0.0
O71 O 0.65976 0.05183 0.03847 0.0
Cd72 Cd 0.62918 0.03804 0.05133 0.0
O73 O 0.65698 0.02367 0.03675 0.0
Cd74 Cd 0.629 -0.00073 0.05051 0.0
C75 C 0.6024 0.00297 0.01555 0.0
O76 O 0.62719 0.01887 0.07684 0.0
O77 O 0.60367 0.99009 0.07126 0.0
O78 O 0.65103 0.99271 0.06617 0.0
C79 C 0.61144 0.00567 0.08156 0.0
O80 O 0.60696 0.01874 0.02458 0.0
C81 C 0.64299 0.9753 0.0603 0.0
O82 O 0.6091 0.99297 0.02115 0.0
O83 O 0.62795 0.96861 0.04964 0.0
C84 C 0.63282 0.6564 0.32223 0.0
O85 O 0.62298 0.66418 0.32206 0.0
Cd86 Cd 0.63349 0.69483 0.33772 0.0
O87 O 0.64886 0.66469 0.33132 0.0
Cd88 Cd 0.66959 0.69437 0.35175 0.0
C89 C 0.67445 0.72233 0.31626 0.0
O90 O 0.64523 0.69545 0.36948 0.0
O91 O 0.67301 0.72032 0.37335 0.0
O92 O 0.67511 0.67453 0.37217 0.0
C93 C 0.65624 0.7116 0.37815 0.0
O94 O 0.65751 0.71746 0.31868 0.0
C95 C 0.69283 0.68366 0.37189 0.0
O96 O 0.68258 0.71551 0.32587 0.0
O97 O 0.69999 0.69802 0.36212 0.0
C98 C 0.29565 0.99331 0.42225 0.0
O99 O 0.27797 0.98602 0.4215 0.0
Cd100 Cd 0.25665 0.95609 0.40431 0.0
O101 O 0.3028 0.9847 0.41376 0.0
Cd102 Cd 0.29211 0.95479 0.39393 0.0
C103 C 0.26673 0.92666 0.42777 0.0
O104 O 0.26842 0.95628 0.37365 0.0
O105 O 0.26914 0.93039 0.37021 0.0
O106 O 0.31902 0.97309 0.37564 0.0
C107 C 0.26266 0.94042 0.36439 0.0
O108 O 0.25495 0.93165 0.42357 0.0
C109 C 0.32601 0.96262 0.37738 0.0
O110 O 0.28226 0.9338 0.41997 0.0
O111 O 0.31728 0.94836 0.38706 0.0
C112 C 0.02143 0.29444 0.36978 0.0
O113 O 0.02843 0.28386 0.36859 0.0
Cd114 Cd 0.05822 0.29476 0.35489 0.0
O115 O 0.03006 0.31096 0.3639 0.0
Cd116 Cd 0.05874 0.33256 0.34905 0.0
C117 C 0.08724 0.33364 0.38521 0.0
O118 O 0.05722 0.3085 0.32574 0.0
O119 O 0.08098 0.33711 0.32563 0.0
O120 O 0.03795 0.34135 0.33416 0.0
C121 C 0.07192 0.32022 0.31807 0.0
O122 O 0.08238 0.3168 0.37905 0.0
C123 C 0.0488 0.35913 0.33761 0.0
O124 O 0.08005 0.34232 0.37746 0.0
O125 O 0.06456 0.3647 0.34645 0.0
C126 C 0.62692 0.95537 0.35238 0.0
O127 O 0.61784 0.93798 0.35568 0.0
Cd128 Cd 0.631 0.92321 0.37399 0.0
O129 O 0.64341 0.96661 0.35994 0.0
Cd130 Cd 0.66622 0.96606 0.38321 0.0
C131 C 0.67208 0.93725 0.35175 0.0
O132 O 0.64366 0.94277 0.40309 0.0
O133 O 0.67257 0.95095 0.40901 0.0
O134 O 0.67124 0.99585 0.3982 0.0
C135 C 0.65567 0.94126 0.4132 0.0
O136 O 0.6557 0.92419 0.35525 0.0
C137 C 0.68895 0.00484 0.39751 0.0
O138 O 0.67916 0.95407 0.35948 0.0
O139 O 0.69607 0.99578 0.38998 0.0
C140 C 0.00625 0.71644 0.35963 0.0
O141 O 0.01354 0.73435 0.36078 0.0
Cd142 Cd 0.04438 0.75487 0.35055 0.0
O143 O 0.01495 0.70891 0.35232 0.0
Cd144 Cd 0.04416 0.71785 0.33675 0.0
C145 C 0.07064 0.74173 0.37728 0.0
O146 O 0.04458 0.74287 0.31867 0.0
O147 O 0.06839 0.73905 0.31712 0.0
O148 O 0.0228 0.6882 0.31802 0.0
C149 C 0.05997 0.74733 0.3115 0.0
O150 O 0.06613 0.75409 0.37428 0.0
C151 C 0.03423 0.68231 0.31744 0.0
O152 O 0.06414 0.72671 0.36616 0.0
O153 O 0.0504 0.69299 0.32584 0.0
C154 C 0.32592 0.37221 0.36286 0.0
O155 O 0.31929 0.38301 0.36536 0.0
Cd156 Cd 0.28916 0.37111 0.37856 0.0
O157 O 0.31705 0.35536 0.36794 0.0
Cd158 Cd 0.28848 0.33356 0.38317 0.0
C159 C 0.26054 0.33295 0.34686 0.0
O160 O 0.28824 0.35595 0.40723 0.0
O161 O 0.2628 0.3284 0.40268 0.0
O162 O 0.30615 0.32469 0.40377 0.0
C163 C 0.27209 0.34427 0.41245 0.0
O164 O 0.26523 0.34956 0.35373 0.0
C165 C 0.29915 0.3079 0.39626 0.0
O166 O 0.26772 0.32403 0.35415 0.0
O167 O 0.28663 0.30259 0.38269 0.0
C168 C 0.30251 0.99248 0.65881 0.0
O169 O 0.29261 0.00016 0.65765 0.0
Cd170 Cd 0.30213 0.03117 0.67154 0.0
O171 O 0.31852 0.00119 0.66805 0.0
Cd172 Cd 0.33907 0.03197 0.68728 0.0
C173 C 0.3431 0.05802 0.64991 0.0
O174 O 0.31378 0.03266 0.70355 0.0
O175 O 0.34156 0.05721 0.70933 0.0
O176 O 0.34607 0.01315 0.7079 0.0
C177 C 0.32439 0.0486 0.71275 0.0
O178 O 0.32594 0.05267 0.65162 0.0
C179 C 0.36378 0.02367 0.70831 0.0
O180 O 0.3516 0.05239 0.66069 0.0
O181 O 0.37016 0.0381 0.69867 0.0
C182 C 0.95806 0.31737 0.7464 0.0
O183 O 0.9403 0.30812 0.74379 0.0
Cd184 Cd 0.92298 0.27882 0.72431 0.0
O185 O 0.96775 0.31111 0.73882 0.0
Cd186 Cd 0.96273 0.28315 0.71862 0.0
C187 C 0.9347 0.25067 0.74838 0.0
O188 O 0.9395 0.28257 0.69628 0.0
O189 O 0.9436 0.25865 0.69293 0.0
O190 O 0.98871 0.30174 0.6994 0.0
C191 C 0.93598 0.26751 0.68663 0.0
O192 O 0.92241 0.25466 0.74305 0.0
C193 C -0.00057 0.29634 0.70603 0.0
O194 O 0.95114 0.25953 0.74248 0.0
O195 O 0.9932 0.28459 0.71873 0.0
C196 C 0.68595 0.62622 0.70072 0.0
O197 O 0.69594 0.61861 0.6997 0.0
Cd198 Cd 0.72527 0.63389 0.68421 0.0
O199 O 0.69147 0.64224 0.69424 0.0
Cd200 Cd 0.71736 0.66732 0.6789 0.0
C201 C 0.74985 0.67412 0.71386 0.0
O202 O 0.71967 0.64567 0.65573 0.0
O203 O 0.73994 0.67559 0.65469 0.0
O204 O 0.69257 0.67052 0.66396 0.0
C205 C 0.7331 0.65867 0.64757 0.0
O206 O 0.74887 0.65906 0.70675 0.0
C207 C 0.70014 0.68819 0.66846 0.0
O208 O 0.73891 0.67947 0.70754 0.0
O209 O 0.71605 0.69638 0.67774 0.0
C210 C 0.29569 0.29793 0.68171 0.0
O211 O 0.28555 0.28013 0.68272 0.0
Cd212 Cd 0.29688 0.26256 0.69876 0.0
O213 O 0.31195 0.30723 0.69035 0.0
Cd214 Cd 0.33262 0.30208 0.71215 0.0
C215 C 0.33803 0.27615 0.67715 0.0
O216 O 0.30859 0.27772 0.73029 0.0
O217 O 0.33648 0.28212 0.73397 0.0
O218 O 0.33827 0.33055 0.73072 0.0
C219 C 0.31977 0.27391 0.73892 0.0
O220 O 0.32116 0.2634 0.67947 0.0
C221 C 0.35602 0.33911 0.73091 0.0
O222 O 0.34577 0.2922 0.68674 0.0
O223 O 0.36299 0.33037 0.72239 0.0
C224 C 0.68283 0.05459 0.68634 0.0
O225 O 0.69401 0.07239 0.68638 0.0
Cd226 Cd 0.72286 0.08613 0.67065 0.0
O227 O 0.68662 0.04296 0.67797 0.0
Cd228 Cd 0.71127 0.04285 0.65966 0.0
C229 C 0.74469 0.06742 0.69598 0.0
O230 O 0.71552 0.06832 0.64043 0.0
O231 O 0.73464 0.05818 0.6364 0.0
O232 O 0.68527 0.01467 0.6424 0.0
C233 C 0.72885 0.06906 0.63156 0.0
O234 O 0.74441 0.08207 0.69139 0.0
C235 C 0.69268 0.00451 0.64354 0.0
O236 O 0.73327 0.05111 0.68763 0.0
O237 O 0.70882 0.0122 0.65227 0.0
C238 C 0.98938 0.7074 0.69293 0.0
O239 O 0.98371 0.71903 0.69525 0.0
Cd240 Cd 0.95386 0.709 0.70818 0.0
O241 O 0.97965 0.69066 0.69811 0.0
Cd242 Cd 0.95055 0.67086 0.71373 0.0
C243 C 0.9243 0.67121 0.67665 0.0
O244 O 0.95245 0.69474 0.73762 0.0
O245 O 0.92581 0.66842 0.73316 0.0
O246 O 0.96949 0.66117 0.73105 0.0
C247 C 0.93609 0.68408 0.74295 0.0
O248 O 0.92942 0.68795 0.68346 0.0
C249 C 0.95822 0.64344 0.7279 0.0
O250 O 0.9309 0.66188 0.68414 0.0
O251 O 0.94301 0.63822 0.7181 0.0
H252 H 0.16591 0.32616 0.02555 0.0
H253 H 0.24859 0.25787 0.17763 0.0
H254 H 0.15373 0.32654 0.13546 0.0
H255 H 0.13274 0.33497 0.1194 0.0
H256 H 0.09373 0.27563 0.10265 0.0
H257 H 0.11491 0.26733 0.11886 0.0
H258 H 0.18195 0.32538 0.10682 0.0
H259 H 0.17923 0.33136 0.07354 0.0
H260 H 0.13703 0.27207 0.06082 0.0
H261 H 0.14002 0.26631 0.09413 0.0
H262 H 0.2122 0.32144 0.13473 0.0
H263 H 0.2382 0.33135 0.11437 0.0
H264 H 0.20489 0.28031 0.07706 0.0
H265 H 0.17881 0.27014 0.09799 0.0
H266 H 0.21149 0.31295 0.17119 0.0
H267 H 0.23665 0.30831 0.18334 0.0
H268 H 0.20806 0.25172 0.15489 0.0
H269 H 0.18282 0.25646 0.14307 0.0
H270 H 0.18312 0.31966 0.1859 0.0
H271 H 0.19544 0.32366 0.21883 0.0
H272 H 0.17439 0.26346 0.21766 0.0
H273 H 0.1619 0.25949 0.18445 0.0
H274 H 0.15503 0.32188 0.17183 0.0
H275 H 0.13776 0.324 0.19847 0.0
H276 H 0.10405 0.26286 0.1957 0.0
H277 H 0.12171 0.26075 0.16928 0.0
O278 O 0.16681 0.32347 0.03861 0.0
O279 O 0.14511 0.2929 0.03284 0.0
O280 O 0.2529 0.28925 0.18746 0.0
O281 O 0.23881 0.26009 0.17303 0.0
C282 C 0.14986 0.29185 0.13559 0.0
C283 C 0.16274 0.29191 0.12301 0.0
C284 C 0.17788 0.29018 0.12999 0.0
C285 C 0.17966 0.2875 0.14939 0.0
C286 C 0.16705 0.2879 0.16206 0.0
C287 C 0.1521 0.28997 0.15511 0.0
C288 C 0.13569 0.29633 0.1285 0.0
C289 C 0.14041 0.31534 0.12875 0.0
C290 C 0.12845 0.32012 0.11952 0.0
C291 C 0.11163 0.30596 0.10971 0.0
C292 C 0.10669 0.28684 0.10995 0.0
C293 C 0.11863 0.28206 0.11934 0.0
C294 C 0.16121 0.29542 0.10279 0.0
C295 C 0.17219 0.31372 0.09678 0.0
C296 C 0.17058 0.31708 0.07779 0.0
C297 C 0.15791 0.30219 0.06451 0.0
C298 C 0.14693 0.28385 0.07066 0.0
C299 C 0.14859 0.28051 0.08965 0.0
C300 C 0.19375 0.29494 0.11799 0.0
C301 C 0.21064 0.31214 0.12244 0.0
C302 C 0.22545 0.3178 0.11078 0.0
C303 C 0.22356 0.3065 0.09426 0.0
C304 C 0.20664 0.28922 0.08976 0.0
C305 C 0.19183 0.2834 0.10166 0.0
C306 C 0.1952 0.28493 0.15648 0.0
C307 C 0.21059 0.2995 0.16775 0.0
C308 C 0.225 0.29685 0.17459 0.0
C309 C 0.22433 0.27961 0.17014 0.0
C310 C 0.20898 0.26514 0.15863 0.0
C311 C 0.19456 0.26781 0.15185 0.0
C312 C 0.17146 0.28927 0.18287 0.0
C313 C 0.18065 0.30723 0.1929 0.0
C314 C 0.18786 0.30953 0.21161 0.0
C315 C 0.18598 0.29389 0.22066 0.0
C316 C 0.17592 0.27571 0.21097 0.0
C317 C 0.1688 0.27342 0.19209 0.0
C318 C 0.13951 0.29117 0.16866 0.0
C319 C 0.14363 0.30896 0.17668 0.0
C320 C 0.13388 0.31016 0.19186 0.0
C321 C 0.1197 0.29358 0.19894 0.0
C322 C 0.11489 0.27577 0.19028 0.0
C323 C 0.12488 0.27457 0.17526 0.0
C324 C 0.15617 0.30582 0.04436 0.0
C325 C 0.23957 0.27668 0.17743 0.0
H326 H 0.68367 0.80013 0.05645 0.0
H327 H 0.73993 0.9845 0.1965 0.0
H328 H 0.69085 0.81893 0.17724 0.0
H329 H 0.68138 0.78615 0.16768 0.0
H330 H 0.73074 0.80575 0.13602 0.0
H331 H 0.74048 0.83876 0.14614 0.0
H332 H 0.68586 0.82735 0.13532 0.0
H333 H 0.67969 0.81168 0.10324 0.0
H334 H 0.734 0.85616 0.08837 0.0
H335 H 0.74012 0.87154 0.12063 0.0
H336 H 0.68268 0.8604 0.13694 0.0
H337 H 0.66969 0.87406 0.11573 0.0
H338 H 0.72481 0.92372 0.114 0.0
H339 H 0.73785 0.90977 0.13513 0.0
H340 H 0.69212 0.89194 0.16862 0.0
H341 H 0.69274 0.92178 0.1751 0.0
H342 H 0.75241 0.95043 0.19003 0.0
H343 H 0.75164 0.92051 0.18318 0.0
H344 H 0.69425 0.87677 0.20231 0.0
H345 H 0.69335 0.89133 0.23298 0.0
H346 H 0.75078 0.90755 0.24754 0.0
H347 H 0.75183 0.89328 0.21619 0.0
H348 H 0.6982 0.84462 0.21158 0.0
H349 H 0.69795 0.82505 0.23654 0.0
H350 H 0.74924 0.83024 0.21796 0.0
H351 H 0.74975 0.85046 0.19321 0.0
O352 O 0.68639 0.8066 0.06904 0.0
O353 O 0.71424 0.83007 0.06195 0.0
O354 O 0.70871 0.95722 0.18544 0.0
O355 O 0.73934 0.97255 0.19357 0.0
C356 C 0.72006 0.85089 0.16562 0.0
C357 C 0.71753 0.85973 0.15 0.0
C358 C 0.71791 0.87702 0.1531 0.0
C359 C 0.72149 0.88588 0.17172 0.0
C360 C 0.72364 0.8769 0.18739 0.0
C361 C 0.72315 0.8595 0.18436 0.0
C362 C 0.71641 0.83124 0.16248 0.0
C363 C 0.70002 0.81618 0.16886 0.0
C364 C 0.6946 0.79745 0.16334 0.0
C365 C 0.70532 0.79344 0.15109 0.0
C366 C 0.72221 0.8085 0.14543 0.0
C367 C 0.7278 0.82729 0.15122 0.0
C368 C 0.71354 0.85044 0.13036 0.0
C369 C 0.69646 0.83362 0.12515 0.0
C370 C 0.69294 0.82473 0.10679 0.0
C371 C 0.70638 0.83263 0.09325 0.0
C372 C 0.72337 0.84967 0.09847 0.0
C373 C 0.7269 0.8585 0.11686 0.0
C374 C 0.71121 0.88408 0.13753 0.0
C375 C 0.69207 0.87396 0.13152 0.0
C376 C 0.68464 0.88185 0.11957 0.0
C377 C 0.69622 0.9 0.1134 0.0
C378 C 0.71561 0.90965 0.11847 0.0
C379 C 0.72306 0.90174 0.13053 0.0
C380 C 0.7219 0.90413 0.17513 0.0
C381 C 0.70536 0.90473 0.173 0.0
C382 C 0.70573 0.92177 0.17685 0.0
C383 C 0.72264 0.93851 0.18306 0.0
C384 C 0.73916 0.93782 0.18523 0.0
C385 C 0.73878 0.92077 0.18131 0.0
C386 C 0.72321 0.8843 0.2069 0.0
C387 C 0.70669 0.88352 0.21204 0.0
C388 C 0.70619 0.89182 0.22951 0.0
C389 C 0.7221 0.90078 0.24236 0.0
C390 C 0.73842 0.9008 0.23771 0.0
C391 C 0.73901 0.89268 0.21993 0.0
C392 C 0.72419 0.84932 0.20078 0.0
C393 C 0.70976 0.84214 0.21328 0.0
C394 C 0.70959 0.83087 0.22748 0.0
C395 C 0.72366 0.82625 0.22925 0.0
C396 C 0.73825 0.83363 0.2169 0.0
C397 C 0.73858 0.84519 0.20284 0.0
C398 C 0.70264 0.82309 0.07379 0.0
C399 C 0.72306 0.95661 0.18739 0.0
H400 H 0.13906 0.84184 0.03275 0.0
H401 H 0.29009 0.97595 0.18431 0.0
H402 H 0.12444 0.85632 0.13034 0.0
H403 H 0.09796 0.82562 0.11724 0.0
H404 H 0.12127 0.79692 0.14728 0.0
H405 H 0.14742 0.82757 0.16043 0.0
H406 H 0.16028 0.88556 0.10677 0.0
H407 H 0.15109 0.87169 0.07383 0.0
H408 H 0.15502 0.82358 0.08957 0.0
H409 H 0.16445 0.83774 0.12238 0.0
H410 H 0.2013 0.91889 0.1219 0.0
H411 H 0.22746 0.92925 0.10105 0.0
H412 H 0.22929 0.87867 0.11044 0.0
H413 H 0.20327 0.86842 0.13103 0.0
H414 H 0.19675 0.93047 0.17071 0.0
H415 H 0.22665 0.95983 0.17942 0.0
H416 H 0.25593 0.92943 0.17032 0.0
H417 H 0.22595 0.90016 0.16192 0.0
H418 H 0.16453 0.90134 0.20127 0.0
H419 H 0.17588 0.91209 0.23491 0.0
H420 H 0.21884 0.89797 0.22757 0.0
H421 H 0.2072 0.88682 0.19446 0.0
H422 H 0.12567 0.86333 0.1762 0.0
H423 H 0.1052 0.84522 0.201 0.0
H424 H 0.14844 0.83584 0.22375 0.0
H425 H 0.1684 0.85308 0.19858 0.0
O426 O 0.14285 0.84713 0.0458 0.0
O427 O 0.14489 0.82262 0.05467 0.0
O428 O 0.26235 0.97953 0.18537 0.0
O429 O 0.27808 0.96457 0.18085 0.0
C430 C 0.15548 0.86243 0.15131 0.0
C431 C 0.16803 0.87094 0.137 0.0
C432 C 0.18591 0.88705 0.14178 0.0
C433 C 0.19088 0.89546 0.16063 0.0
C434 C 0.17855 0.88672 0.17509 0.0
C435 C 0.16087 0.87007 0.17045 0.0
C436 C 0.13778 0.84412 0.14636 0.0
C437 C 0.12352 0.84335 0.13443 0.0
C438 C 0.10854 0.82584 0.12685 0.0
C439 C 0.10762 0.80885 0.13108 0.0
C440 C 0.12143 0.80971 0.1439 0.0
C441 C 0.13638 0.82721 0.15146 0.0
C442 C 0.16282 0.86256 0.11697 0.0
C443 C 0.15919 0.87205 0.10304 0.0
C444 C 0.15392 0.86408 0.08426 0.0
C445 C 0.15223 0.84648 0.07908 0.0
C446 C 0.15611 0.83711 0.09308 0.0
C447 C 0.16144 0.84514 0.11184 0.0
C448 C 0.20046 0.89294 0.1279 0.0
C449 C 0.20723 0.90999 0.1192 0.0
C450 C 0.22206 0.91582 0.10733 0.0
C451 C 0.23036 0.90475 0.10429 0.0
C452 C 0.2232 0.88749 0.11269 0.0
C453 C 0.20832 0.88159 0.12433 0.0
C454 C 0.20919 0.91326 0.16543 0.0
C455 C 0.20965 0.93022 0.17054 0.0
C456 C 0.22674 0.94695 0.17552 0.0
C457 C 0.2437 0.94699 0.1755 0.0
C458 C 0.24316 0.92993 0.1704 0.0
C459 C 0.22605 0.9132 0.16547 0.0
C460 C 0.18529 0.89366 0.19533 0.0
C461 C 0.1764 0.90062 0.20698 0.0
C462 C 0.18283 0.90668 0.22612 0.0
C463 C 0.19837 0.90606 0.23368 0.0
C464 C 0.20708 0.89894 0.22198 0.0
C465 C 0.2005 0.89265 0.20307 0.0
C466 C 0.14864 0.85976 0.18575 0.0
C467 C 0.1307 0.85737 0.18656 0.0
C468 C 0.11908 0.8471 0.20068 0.0
C469 C 0.12543 0.83943 0.21434 0.0
C470 C 0.1434 0.84194 0.21355 0.0
C471 C 0.15481 0.8518 0.19924 0.0
C472 C 0.14645 0.83797 0.05915 0.0
C473 C 0.26189 0.96471 0.18087 0.0
H474 H 0.29187 0.16734 0.01677 0.0
H475 H 0.30046 0.03705 0.84757 0.0
H476 H 0.26821 0.16476 0.90699 0.0
H477 H 0.27731 0.19754 0.91797 0.0
H478 H 0.33572 0.21436 0.91693 0.0
H479 H 0.32658 0.18179 0.90638 0.0
H480 H 0.26671 0.13507 0.93804 0.0
H481 H 0.27167 0.14633 0.97177 0.0
H482 H 0.33154 0.17158 0.96835 0.0
H483 H 0.32634 0.16021 0.93463 0.0
H484 H 0.27109 0.09518 0.93125 0.0
H485 H 0.28234 0.07922 0.95186 0.0
H486 H 0.33867 0.11562 0.93514 0.0
H487 H 0.32722 0.13088 0.9143 0.0
H488 H 0.26126 0.07995 0.89308 0.0
H489 H 0.26035 0.0507 0.88208 0.0
H490 H 0.31423 0.08407 0.85876 0.0
H491 H 0.31507 0.11318 0.8701 0.0
H492 H 0.25724 0.09574 0.85499 0.0
H493 H 0.25789 0.08159 0.82369 0.0
H494 H 0.31238 0.13042 0.81694 0.0
H495 H 0.31211 0.14403 0.84848 0.0
H496 H 0.25892 0.14051 0.85761 0.0
H497 H 0.25961 0.16161 0.83366 0.0
H498 H 0.31925 0.1984 0.84672 0.0
H499 H 0.31858 0.17711 0.86998 0.0
O500 O 0.29022 0.16297 0.00344 0.0
O501 O 0.3209 0.17593 0.00087 0.0
O502 O 0.27333 0.03186 0.86536 0.0
O503 O 0.30061 0.04837 0.8524 0.0
C504 C 0.29177 0.15141 0.89981 0.0
C505 C 0.29296 0.14013 0.91353 0.0
C506 C 0.29191 0.12296 0.90772 0.0
C507 C 0.28831 0.11631 0.88831 0.0
C508 C 0.28634 0.12723 0.87452 0.0
C509 C 0.28845 0.145 0.88028 0.0
C510 C 0.29676 0.17105 0.9058 0.0
C511 C 0.28293 0.1756 0.90908 0.0
C512 C 0.28813 0.19421 0.91535 0.0
C513 C 0.3072 0.20842 0.91809 0.0
C514 C 0.32094 0.20373 0.91464 0.0
C515 C 0.31576 0.18518 0.90871 0.0
C516 C 0.29615 0.14677 0.934 0.0
C517 C 0.28087 0.14299 0.94465 0.0
C518 C 0.28375 0.14945 0.96389 0.0
C519 C 0.30201 0.15985 0.97277 0.0
C520 C 0.3173 0.1636 0.96197 0.0
C521 C 0.31438 0.1571 0.94274 0.0
C522 C 0.29837 0.11401 0.92127 0.0
C523 C 0.28584 0.09968 0.9322 0.0
C524 C 0.29231 0.09071 0.94399 0.0
C525 C 0.31136 0.09608 0.94496 0.0
C526 C 0.32387 0.11093 0.93443 0.0
C527 C 0.3174 0.11973 0.92262 0.0
C528 C 0.28817 0.09863 0.88229 0.0
C529 C 0.2729 0.08088 0.88572 0.0
C530 C 0.2724 0.06422 0.87937 0.0
C531 C 0.28719 0.06505 0.86946 0.0
C532 C 0.30259 0.08291 0.86629 0.0
C533 C 0.30311 0.09956 0.87273 0.0
C534 C 0.28458 0.12097 0.85401 0.0
C535 C 0.26908 0.1036 0.84653 0.0
C536 C 0.26948 0.09553 0.82874 0.0
C537 C 0.28518 0.10498 0.818 0.0
C538 C 0.30003 0.12301 0.82487 0.0
C539 C 0.29982 0.13085 0.84282 0.0
C540 C 0.28862 0.15755 0.86583 0.0
C541 C 0.27209 0.15316 0.85528 0.0
C542 C 0.2725 0.16515 0.84166 0.0
C543 C 0.28943 0.18174 0.83864 0.0
C544 C 0.30595 0.18593 0.84911 0.0
C545 C 0.30558 0.17384 0.86243 0.0
C546 C 0.30502 0.16676 0.99319 0.0
C547 C 0.28656 0.0474 0.86234 0.0
H548 H 0.83691 0.153 0.02355 0.0
H549 H 0.73699 -0.00043 0.86239 0.0
H550 H 0.84592 0.16045 0.92317 0.0
H551 H 0.8702 0.19156 0.93761 0.0
H552 H 0.91249 0.17732 0.92657 0.0
H553 H 0.88784 0.14555 0.91273 0.0
H554 H 0.81667 0.13272 0.94197 0.0
H555 H 0.82093 0.14238 0.97602 0.0
H556 H 0.86557 0.13009 0.9818 0.0
H557 H 0.86097 0.1202 0.94773 0.0
H558 H 0.78711 0.10302 0.90968 0.0
H559 H 0.76153 0.09134 0.93079 0.0
H560 H 0.78995 0.07121 0.96652 0.0
H561 H 0.81557 0.08279 0.94498 0.0
H562 H 0.78868 0.09425 0.8714 0.0
H563 H 0.7606 0.0651 0.85802 0.0
H564 H 0.77937 0.03188 0.88678 0.0
H565 H 0.80756 0.06117 0.89985 0.0
H566 H 0.82327 0.12854 0.8581 0.0
H567 H 0.8117 0.11954 0.8247 0.0
H568 H 0.8181 0.07064 0.82607 0.0
H569 H 0.82997 0.07991 0.85972 0.0
H570 H 0.85439 0.1606 0.8812 0.0
H571 H 0.87591 0.18123 0.8588 0.0
H572 H 0.8931 0.14044 0.84647 0.0
H573 H 0.87138 0.11977 0.8691 0.0
O574 O 0.83539 0.149 0.01014 0.0
O575 O 0.85834 0.14261 0.01232 0.0
O576 O 0.73904 0.02906 0.85286 0.0
O577 O 0.748 0.01132 0.86745 0.0
C578 C 0.8498 0.13141 0.90962 0.0
C579 C 0.8359 0.11974 0.9217 0.0
C580 C 0.81948 0.1031 0.91395 0.0
C581 C 0.8175 0.09748 0.89433 0.0
C582 C 0.83149 0.109 0.88226 0.0
C583 C 0.84766 0.12598 0.88991 0.0
C584 C 0.86507 0.15058 0.91731 0.0
C585 C 0.86038 0.1639 0.92405 0.0
C586 C 0.87421 0.18164 0.9322 0.0
C587 C 0.89306 0.1866 0.93332 0.0
C588 C 0.89797 0.17364 0.92589 0.0
C589 C 0.88398 0.15561 0.91803 0.0
C590 C 0.83834 0.1255 0.94244 0.0
C591 C 0.82722 0.13192 0.95065 0.0
C592 C 0.82976 0.13753 0.97009 0.0
C593 C 0.84356 0.13697 0.98165 0.0
C594 C 0.85478 0.13065 0.97331 0.0
C595 C 0.85218 0.12499 0.95388 0.0
C596 C 0.8031 0.09356 0.92566 0.0
C597 C 0.78759 0.09561 0.92175 0.0
C598 C 0.77303 0.08901 0.93388 0.0
C599 C 0.77377 0.08039 0.9503 0.0
C600 C 0.78912 0.07794 0.95401 0.0
C601 C 0.80365 0.08439 0.9417 0.0
C602 C 0.80028 0.0798 0.88638 0.0
C603 C 0.78679 0.08066 0.87465 0.0
C604 C 0.77072 0.06399 0.8671 0.0
C605 C 0.76777 0.04614 0.87128 0.0
C606 C 0.78123 0.04537 0.88323 0.0
C607 C 0.79733 0.06207 0.89073 0.0
C608 C 0.82754 0.10493 0.8613 0.0
C609 C 0.82269 0.11618 0.85109 0.0
C610 C 0.81589 0.11091 0.83209 0.0
C611 C 0.81382 0.09429 0.82293 0.0
C612 C 0.81963 0.08355 0.83284 0.0
C613 C 0.82639 0.0888 0.85198 0.0
C614 C 0.86151 0.13882 0.87696 0.0
C615 C 0.86306 0.15628 0.87395 0.0
C616 C 0.8754 0.16806 0.86118 0.0
C617 C 0.88636 0.16255 0.85102 0.0
C618 C 0.88483 0.14505 0.85409 0.0
C619 C 0.8725 0.13328 0.867 0.0
C620 C 0.84627 0.14301 0.00229 0.0
C621 C 0.75072 0.02838 0.86328 0.0
H622 H 0.86415 0.69204 0.04095 0.0
H623 H 0.72825 0.69886 0.89805 0.0
H624 H 0.88307 0.7236 0.9497 0.0
H625 H 0.90447 0.71471 0.96324 0.0
H626 H 0.88261 0.66712 0.92059 0.0
H627 H 0.85945 0.67456 0.90922 0.0
H628 H 0.84984 0.72095 0.97225 0.0
H629 H 0.85661 0.71374 0.00374 0.0
H630 H 0.84642 0.65952 0.97962 0.0
H631 H 0.83941 0.66679 0.94828 0.0
H632 H 0.81454 0.72214 0.95601 0.0
H633 H 0.78877 0.71113 0.97736 0.0
H634 H 0.77654 0.65355 0.96629 0.0
H635 H 0.80207 0.66459 0.94498 0.0
H636 H 0.82098 0.7363 0.90876 0.0
H637 H 0.79408 0.74015 0.90197 0.0
H638 H 0.75652 0.6805 0.90866 0.0
H639 H 0.78351 0.67679 0.91515 0.0
H640 H 0.85017 0.73304 0.87652 0.0
H641 H 0.84038 0.73143 0.84297 0.0
H642 H 0.78991 0.67766 0.84951 0.0
H643 H 0.8008 0.67849 0.88203 0.0
H644 H 0.88316 0.73347 0.89763 0.0
H645 H 0.90154 0.73364 0.87083 0.0
H646 H 0.85798 0.67638 0.85203 0.0
H647 H 0.8395 0.67645 0.87836 0.0
O648 O 0.8612 0.6945 0.02843 0.0
O649 O 0.85607 0.66691 0.01527 0.0
O650 O 0.75904 0.72831 0.89733 0.0
O651 O 0.73913 0.69775 0.90069 0.0
C652 C 0.85309 0.70187 0.9243 0.0
C653 C 0.84073 0.69918 0.93878 0.0
C654 C 0.82448 0.70012 0.93484 0.0
C655 C 0.82071 0.7042 0.91658 0.0
C656 C 0.83242 0.70583 0.9018 0.0
C657 C 0.84866 0.70474 0.90569 0.0
C658 C 0.86955 0.6997 0.92853 0.0
C659 C 0.88311 0.71139 0.94314 0.0
C660 C 0.89551 0.70631 0.95078 0.0
C661 C 0.89514 0.68983 0.94339 0.0
C662 C 0.88291 0.67944 0.92728 0.0
C663 C 0.86993 0.68402 0.92028 0.0
C664 C 0.84429 0.69447 0.95798 0.0
C665 C 0.84898 0.70749 0.97383 0.0
C666 C 0.85289 0.70335 0.99178 0.0
C667 C 0.85214 0.68608 0.99418 0.0
C668 C 0.84719 0.67297 0.97827 0.0
C669 C 0.84321 0.67709 0.96035 0.0
C670 C 0.81011 0.69415 0.94899 0.0
C671 C 0.8064 0.70721 0.95841 0.0
C672 C 0.79178 0.70092 0.9706 0.0
C673 C 0.78066 0.68148 0.97336 0.0
C674 C 0.78479 0.66857 0.96426 0.0
C675 C 0.79941 0.67486 0.95222 0.0
C676 C 0.80421 0.70635 0.9127 0.0
C677 C 0.80692 0.7241 0.90879 0.0
C678 C 0.79154 0.72625 0.90491 0.0
C679 C 0.77313 0.71064 0.90485 0.0
C680 C 0.77049 0.69284 0.90868 0.0
C681 C 0.78589 0.6907 0.91251 0.0
C682 C 0.82616 0.70592 0.88179 0.0
C683 C 0.83709 0.72087 0.87056 0.0
C684 C 0.83135 0.71999 0.85144 0.0
C685 C 0.81438 0.70432 0.84333 0.0
C686 C 0.80331 0.68971 0.85492 0.0
C687 C 0.80932 0.69033 0.87374 0.0
C688 C 0.86006 0.70493 0.8899 0.0
C689 C 0.87764 0.721 0.88769 0.0
C690 C 0.88804 0.72111 0.87245 0.0
C691 C 0.88112 0.70498 0.85957 0.0
C692 C 0.8636 0.6889 0.86191 0.0
C693 C 0.85307 0.68895 0.87685 0.0
C694 C 0.85656 0.68185 0.01322 0.0
C695 C 0.75674 0.71284 0.90073 0.0
H696 H 0.82341 0.66082 0.35466 0.0
H697 H 0.91293 0.59704 0.50451 0.0
H698 H 0.81616 0.66445 0.46589 0.0
H699 H 0.79405 0.67246 0.45173 0.0
H700 H 0.75493 0.61293 0.4359 0.0
H701 H 0.77728 0.60507 0.45016 0.0
H702 H 0.84281 0.66283 0.43564 0.0
H703 H 0.83858 0.66768 0.40228 0.0
H704 H 0.79775 0.60775 0.39146 0.0
H705 H 0.80221 0.60313 0.42484 0.0
H706 H 0.87407 0.66074 0.46342 0.0
H707 H 0.9009 0.67041 0.44427 0.0
H708 H 0.86944 0.61821 0.40819 0.0
H709 H 0.84245 0.6083 0.42791 0.0
H710 H 0.87544 0.65186 0.4993 0.0
H711 H 0.90107 0.64752 0.51049 0.0
H712 H 0.87149 0.5903 0.48352 0.0
H713 H 0.8458 0.59475 0.47266 0.0
H714 H 0.84847 0.65865 0.51507 0.0
H715 H 0.861 0.66268 0.54791 0.0
H716 H 0.83756 0.60211 0.54764 0.0
H717 H 0.82484 0.59813 0.51451 0.0
H718 H 0.82067 0.66116 0.50265 0.0
H719 H 0.80421 0.66443 0.52947 0.0
H720 H 0.76745 0.60357 0.52616 0.0
H721 H 0.78438 0.60029 0.49961 0.0
O722 O 0.82494 0.65858 0.36774 0.0
O723 O 0.80404 0.62767 0.36294 0.0
O724 O 0.91754 0.6286 0.51402 0.0
O725 O 0.90296 0.59912 0.50031 0.0
C726 C 0.81264 0.62991 0.46579 0.0
C727 C 0.82516 0.62979 0.45281 0.0
C728 C 0.84063 0.62846 0.45942 0.0
C729 C 0.84289 0.62596 0.47877 0.0
C730 C 0.83065 0.62651 0.49183 0.0
C731 C 0.81556 0.62854 0.48532 0.0
C732 C 0.7982 0.63419 0.45918 0.0
C733 C 0.80265 0.65312 0.45971 0.0
C734 C 0.79002 0.65766 0.45162 0.0
C735 C 0.77276 0.64332 0.4427 0.0
C736 C 0.76819 0.62428 0.44255 0.0
C737 C 0.78082 0.61975 0.45078 0.0
C738 C 0.82286 0.63263 0.43255 0.0
C739 C 0.83303 0.65078 0.42599 0.0
C740 C 0.83056 0.6535 0.40696 0.0
C741 C 0.81782 0.6381 0.3942 0.0
C742 C 0.80767 0.61991 0.4009 0.0
C743 C 0.81019 0.61722 0.41992 0.0
C744 C 0.85647 0.63369 0.44724 0.0
C745 C 0.87302 0.65124 0.45155 0.0
C746 C 0.88831 0.65673 0.44062 0.0
C747 C 0.88728 0.64492 0.42495 0.0
C748 C 0.87054 0.62749 0.42029 0.0
C749 C 0.85521 0.62184 0.43148 0.0
C750 C 0.85863 0.62351 0.48543 0.0
C751 C 0.87442 0.63833 0.49601 0.0
C752 C 0.8891 0.63585 0.50228 0.0
C753 C 0.8883 0.61852 0.49795 0.0
C754 C 0.87253 0.60379 0.48716 0.0
C755 C 0.85784 0.60629 0.48093 0.0
C756 C 0.83559 0.62809 0.51252 0.0
C757 C 0.84557 0.64618 0.52225 0.0
C758 C 0.85289 0.64848 0.5409 0.0
C759 C 0.85035 0.63272 0.55018 0.0
C760 C 0.83961 0.61446 0.54076 0.0
C761 C 0.83236 0.61217 0.52194 0.0
C762 C 0.80368 0.6305 0.49929 0.0
C763 C 0.80888 0.64856 0.50752 0.0
C764 C 0.79957 0.65041 0.5228 0.0
C765 C 0.78471 0.63422 0.52976 0.0
C766 C 0.77886 0.61619 0.52089 0.0
C767 C 0.78844 0.61433 0.5058 0.0
C768 C 0.81514 0.64105 0.37402 0.0
C769 C 0.90384 0.61579 0.50461 0.0
H770 H 0.34174 0.15985 0.38039 0.0
H771 H 0.40942 0.32077 0.53633 0.0
H772 H 0.34696 0.15733 0.48225 0.0
H773 H 0.33735 0.12503 0.4702 0.0
H774 H 0.39381 0.13691 0.48208 0.0
H775 H 0.40364 0.16977 0.49359 0.0
H776 H 0.3463 0.18436 0.46077 0.0
H777 H 0.33906 0.17314 0.42703 0.0
H778 H 0.39523 0.18322 0.42329 0.0
H779 H 0.40236 0.19463 0.45702 0.0
H780 H 0.34949 0.21576 0.49313 0.0
H781 H 0.33579 0.22944 0.47325 0.0
H782 H 0.38032 0.24542 0.43515 0.0
H783 H 0.39473 0.23269 0.45613 0.0
H784 H 0.36303 0.22605 0.53106 0.0
H785 H 0.36637 0.25601 0.5436 0.0
H786 H 0.4156 0.2868 0.51213 0.0
H787 H 0.41231 0.25671 0.49997 0.0
H788 H 0.36482 0.1933 0.54814 0.0
H789 H 0.36593 0.20717 0.57985 0.0
H790 H 0.41988 0.25584 0.57106 0.0
H791 H 0.41932 0.24122 0.53954 0.0
H792 H 0.35594 0.16102 0.52566 0.0
H793 H 0.35492 0.1403 0.54992 0.0
H794 H 0.41529 0.1731 0.55849 0.0
H795 H 0.41626 0.19424 0.53435 0.0
O796 O 0.34495 0.16447 0.3937 0.0
O797 O 0.37397 0.16986 0.39255 0.0
O798 O 0.38249 0.29219 0.54758 0.0
O799 O 0.40773 0.30871 0.53149 0.0
C800 C 0.38159 0.18577 0.49484 0.0
C801 C 0.37941 0.19717 0.48184 0.0
C802 C 0.38075 0.21435 0.48854 0.0
C803 C 0.3861 0.22103 0.50791 0.0
C804 C 0.38902 0.20999 0.52085 0.0
C805 C 0.38631 0.19212 0.51436 0.0
C806 C 0.37608 0.16601 0.48838 0.0
C807 C 0.35735 0.15309 0.48204 0.0
C808 C 0.35187 0.13467 0.47523 0.0
C809 C 0.36493 0.12868 0.47503 0.0
C810 C 0.38357 0.14134 0.48205 0.0
C811 C 0.38916 0.16 0.48858 0.0
C812 C 0.37495 0.19057 0.46127 0.0
C813 C 0.35709 0.18434 0.45259 0.0
C814 C 0.35296 0.17784 0.43333 0.0
C815 C 0.36658 0.17733 0.42244 0.0
C816 C 0.38443 0.18347 0.43125 0.0
C817 C 0.38855 0.19001 0.4505 0.0
C818 C 0.37325 0.22346 0.47624 0.0
C819 C 0.3565 0.22252 0.48067 0.0
C820 C 0.34848 0.23004 0.46905 0.0
C821 C 0.35676 0.23831 0.45238 0.0
C822 C 0.37363 0.23928 0.44794 0.0
C823 C 0.38186 0.23197 0.45984 0.0
C824 C 0.38759 0.23922 0.51482 0.0
C825 C 0.37459 0.23928 0.52697 0.0
C826 C 0.37649 0.25641 0.53406 0.0
C827 C 0.39131 0.27382 0.52893 0.0
C828 C 0.40408 0.27367 0.51642 0.0
C829 C 0.40221 0.25651 0.50942 0.0
C830 C 0.3921 0.21608 0.54154 0.0
C831 C 0.37743 0.20636 0.55341 0.0
C832 C 0.37798 0.21441 0.57148 0.0
C833 C 0.39298 0.23254 0.5778 0.0
C834 C 0.40823 0.24178 0.56647 0.0
C835 C 0.40792 0.23344 0.54855 0.0
C836 C 0.38617 0.17911 0.52828 0.0
C837 C 0.36897 0.16367 0.53266 0.0
C838 C 0.36839 0.15194 0.54651 0.0
C839 C 0.38503 0.15524 0.55599 0.0
C840 C 0.40233 0.17035 0.55128 0.0
C841 C 0.40288 0.18236 0.53759 0.0
C842 C 0.36213 0.17034 0.402 0.0
C843 C 0.3935 0.29207 0.53659 0.0
H844 H 0.8013 0.18389 0.35532 0.0
H845 H 0.95864 0.307 0.5027 0.0
H846 H 0.79094 0.18472 0.45545 0.0
H847 H 0.76413 0.15332 0.44434 0.0
H848 H 0.79267 0.12688 0.46879 0.0
H849 H 0.81926 0.15812 0.47967 0.0
H850 H 0.8256 0.22022 0.43278 0.0
H851 H 0.81489 0.20954 0.39927 0.0
H852 H 0.81992 0.16026 0.40602 0.0
H853 H 0.83086 0.17123 0.43941 0.0
H854 H 0.86919 0.25573 0.4521 0.0
H855 H 0.89615 0.27087 0.43234 0.0
H856 H 0.89355 0.21728 0.42218 0.0
H857 H 0.86752 0.20254 0.44261 0.0
H858 H 0.86503 0.2599 0.49867 0.0
H859 H 0.89512 0.28911 0.50714 0.0
H860 H 0.92418 0.26095 0.48743 0.0
H861 H 0.89402 0.23177 0.47931 0.0
H862 H 0.83436 0.22755 0.52684 0.0
H863 H 0.84712 0.23639 0.56022 0.0
H864 H 0.89081 0.22484 0.54661 0.0
H865 H 0.87785 0.21571 0.51361 0.0
H866 H 0.79539 0.19005 0.50201 0.0
H867 H 0.77662 0.16917 0.5262 0.0
H868 H 0.82201 0.16012 0.54176 0.0
H869 H 0.84037 0.18035 0.51721 0.0
O870 O 0.80561 0.18787 0.36858 0.0
O871 O 0.80829 0.1627 0.37285 0.0
O872 O 0.93095 0.30931 0.5099 0.0
O873 O 0.94655 0.2956 0.49959 0.0
C874 C 0.82408 0.1925 0.4735 0.0
C875 C 0.83524 0.20301 0.45894 0.0
C876 C 0.85291 0.21953 0.46371 0.0
C877 C 0.85896 0.22616 0.48303 0.0
C878 C 0.84779 0.21568 0.49758 0.0
C879 C 0.8304 0.19878 0.49282 0.0
C880 C 0.80697 0.17367 0.46845 0.0
C881 C 0.79123 0.1721 0.45859 0.0
C882 C 0.77601 0.15421 0.45221 0.0
C883 C 0.77631 0.13766 0.45574 0.0
C884 C 0.79189 0.13934 0.46613 0.0
C885 C 0.8071 0.15717 0.47235 0.0
C886 C 0.8288 0.1964 0.43858 0.0
C887 C 0.82438 0.20713 0.42698 0.0
C888 C 0.81825 0.20099 0.40785 0.0
C889 C 0.81647 0.18401 0.39998 0.0
C890 C 0.82105 0.17336 0.41164 0.0
C891 C 0.82723 0.17954 0.43074 0.0
C892 C 0.86637 0.22802 0.44879 0.0
C893 C 0.87424 0.24721 0.4453 0.0
C894 C 0.88957 0.25582 0.43409 0.0
C895 C 0.89678 0.24516 0.4258 0.0
C896 C 0.88807 0.2257 0.42826 0.0
C897 C 0.87313 0.21726 0.43982 0.0
C898 C 0.87734 0.2438 0.4882 0.0
C899 C 0.87791 0.26008 0.49622 0.0
C900 C 0.89512 0.27673 0.50103 0.0
C901 C 0.91206 0.27738 0.4979 0.0
C902 C 0.91141 0.26097 0.48998 0.0
C903 C 0.8942 0.2443 0.48527 0.0
C904 C 0.85537 0.2213 0.51776 0.0
C905 C 0.84668 0.22696 0.53113 0.0
C906 C 0.85392 0.23192 0.55012 0.0
C907 C 0.87004 0.23146 0.55588 0.0
C908 C 0.87857 0.22563 0.54246 0.0
C909 C 0.87122 0.22048 0.52363 0.0
C910 C 0.81933 0.18692 0.50803 0.0
C911 C 0.80126 0.18358 0.51069 0.0
C912 C 0.79059 0.17169 0.52443 0.0
C913 C 0.79799 0.16322 0.53587 0.0
C914 C 0.81613 0.16673 0.5333 0.0
C915 C 0.82663 0.17831 0.51935 0.0
C916 C 0.80989 0.17749 0.37967 0.0
C917 C 0.93037 0.29508 0.50285 0.0
H918 H 0.00612 0.52567 0.35018 0.0
H919 H -0.00129 0.38859 0.1728 0.0
H920 H 0.96563 0.51205 0.237 0.0
H921 H 0.97145 0.54334 0.24927 0.0
H922 H 0.03048 0.56338 0.25823 0.0
H923 H 0.02483 0.53251 0.24517 0.0
H924 H 0.97311 0.49262 0.27319 0.0
H925 H 0.98168 0.50531 0.30651 0.0
H926 H 0.03844 0.5182 0.29971 0.0
H927 H 0.02974 0.50571 0.26635 0.0
H928 H 0.9761 0.45112 0.26861 0.0
H929 H 0.9864 0.4338 0.28814 0.0
H930 H 0.03881 0.45902 0.26095 0.0
H931 H 0.02812 0.4757 0.24118 0.0
H932 H 0.96449 0.4301 0.22886 0.0
H933 H 0.96318 0.40119 0.2158 0.0
H934 H 0.01223 0.43534 0.18518 0.0
H935 H 0.01355 0.46409 0.19859 0.0
H936 H 0.95203 0.44436 0.19463 0.0
H937 H 0.94775 0.42618 0.1643 0.0
H938 H 0.00013 0.47211 0.14752 0.0
H939 H 0.00465 0.48992 0.17805 0.0
H940 H 0.95244 0.48951 0.20189 0.0
H941 H 0.94777 0.50887 0.17924 0.0
H942 H 0.00752 0.5417 0.17402 0.0
H943 H 0.01218 0.52284 0.19707 0.0
O944 O 0.00302 0.52066 0.33699 0.0
O945 O 0.03196 0.52683 0.3328 0.0
O946 O 0.9742 0.38285 0.19488 0.0
O947 O -0.00082 0.39979 0.17858 0.0
C948 C 0.99145 0.50095 0.23405 0.0
C949 C 0.9955 0.49079 0.24707 0.0
C950 C 0.99478 0.47388 0.24064 0.0
C951 C 0.9891 0.46659 0.2215 0.0
C952 C 0.98413 0.47625 0.20869 0.0
C953 C 0.98568 0.49362 0.21488 0.0
C954 C 0.99481 0.52002 0.24027 0.0
C955 C 0.97985 0.52331 0.24125 0.0
C956 C 0.98314 0.54106 0.24828 0.0
C957 C 0.00136 0.55551 0.25469 0.0
C958 C 0.01633 0.55232 0.2534 0.0
C959 C 0.0131 0.53476 0.24602 0.0
C960 C 0.00074 0.49806 0.26742 0.0
C961 C 0.98737 0.49814 0.27895 0.0
C962 C 0.99231 0.5054 0.29797 0.0
C963 C 0.01073 0.51273 0.3058 0.0
C964 C 0.02411 0.51261 0.29416 0.0
C965 C 0.01915 0.50538 0.27513 0.0
C966 C 0.00135 0.46449 0.25347 0.0
C967 C 0.98983 0.45294 0.26704 0.0
C968 C 0.99579 0.44318 0.27821 0.0
C969 C 0.01338 0.44496 0.27599 0.0
C970 C 0.02506 0.45709 0.26276 0.0
C971 C 0.01905 0.46669 0.25154 0.0
C972 C 0.98906 0.44915 0.2146 0.0
C973 C 0.97504 0.43129 0.2195 0.0
C974 C 0.97429 0.41482 0.21195 0.0
C975 C 0.98756 0.41596 0.19936 0.0
C976 C 0.00178 0.43394 0.19478 0.0
C977 C 0.00256 0.45039 0.20241 0.0
C978 C 0.97864 0.46847 0.18853 0.0
C979 C 0.9622 0.4508 0.18409 0.0
C980 C 0.95984 0.4404 0.16687 0.0
C981 C 0.9737 0.44773 0.15373 0.0
C982 C 0.98918 0.46624 0.15737 0.0
C983 C 0.9917 0.4765 0.17474 0.0
C984 C 0.98263 0.50482 0.201 0.0
C985 C 0.96448 0.50091 0.19585 0.0
C986 C 0.96183 0.51191 0.18303 0.0
C987 C 0.97731 0.5266 0.17498 0.0
C988 C 0.99543 0.53035 0.18004 0.0
C989 C 0.99809 0.51965 0.19314 0.0
C990 C 0.01595 0.5205 0.32599 0.0
C991 C 0.98653 0.3985 0.19088 0.0
H992 H 0.49981 0.48165 0.36103 0.0
H993 H 0.40074 0.33821 0.19132 0.0
H994 H 0.51138 0.49513 0.26221 0.0
H995 H 0.53625 0.52609 0.27614 0.0
H996 H 0.57772 0.51156 0.26172 0.0
H997 H 0.55247 0.47997 0.2483 0.0
H998 H 0.48096 0.46632 0.2789 0.0
H999 H 0.48469 0.47398 0.31333 0.0
H1000 H 0.52886 0.46089 0.31741 0.0
H1001 H 0.52481 0.45302 0.28296 0.0
H1002 H 0.45156 0.43841 0.24505 0.0
H1003 H 0.42507 0.42476 0.26502 0.0
H1004 H 0.45254 0.40249 0.29906 0.0
H1005 H 0.47909 0.41604 0.27866 0.0
H1006 H 0.45516 0.43248 0.20521 0.0
H1007 H 0.42718 0.40449 0.18982 0.0
H1008 H 0.44198 0.36827 0.21869 0.0
H1009 H 0.47011 0.39641 0.23374 0.0
H1010 H 0.49237 0.46642 0.19181 0.0
H1011 H 0.48185 0.45726 0.15816 0.0
H1012 H 0.48166 0.40501 0.16294 0.0
H1013 H 0.49326 0.41472 0.19654 0.0
H1014 H 0.52004 0.49756 0.2206 0.0
H1015 H 0.54186 0.5199 0.19948 0.0
H1016 H 0.55787 0.47933 0.18168 0.0
H1017 H 0.53621 0.45706 0.20341 0.0
O1018 O 0.49851 0.47845 0.34744 0.0
O1019 O 0.52121 0.47167 0.34875 0.0
O1020 O 0.40491 0.36877 0.18248 0.0
O1021 O 0.41167 0.34952 0.19728 0.0
C1022 C 0.51455 0.46646 0.24602 0.0
C1023 C 0.5003 0.45427 0.25751 0.0
C1024 C 0.48382 0.43818 0.24901 0.0
C1025 C 0.48218 0.43347 0.2292 0.0
C1026 C 0.49668 0.44534 0.21771 0.0
C1027 C 0.51273 0.46204 0.22609 0.0
C1028 C 0.53007 0.48512 0.25462 0.0
C1029 C 0.52578 0.49839 0.26242 0.0
C1030 C 0.53998 0.51609 0.27029 0.0
C1031 C 0.55882 0.52105 0.27018 0.0
C1032 C 0.56324 0.50796 0.26203 0.0
C1033 C 0.54891 0.48999 0.25442 0.0
C1034 C 0.50245 0.45887 0.27847 0.0
C1035 C 0.4913 0.46493 0.28728 0.0
C1036 C 0.49353 0.46938 0.30694 0.0
C1037 C 0.50704 0.468 0.31814 0.0
C1038 C 0.51829 0.46206 0.30922 0.0
C1039 C 0.51601 0.45756 0.28955 0.0
C1040 C 0.46717 0.42806 0.26028 0.0
C1041 C 0.45169 0.4302 0.25653 0.0
C1042 C 0.43659 0.42244 0.26798 0.0
C1043 C 0.43675 0.41254 0.28356 0.0
C1044 C 0.45214 0.41015 0.28718 0.0
C1045 C 0.46721 0.41776 0.27553 0.0
C1046 C 0.46477 0.41646 0.22041 0.0
C1047 C 0.45238 0.41849 0.20811 0.0
C1048 C 0.43638 0.40248 0.19939 0.0
C1049 C 0.43237 0.38413 0.20297 0.0
C1050 C 0.44467 0.38218 0.21558 0.0
C1051 C 0.46072 0.39822 0.22423 0.0
C1052 C 0.49373 0.44132 0.19665 0.0
C1053 C 0.49089 0.4534 0.18546 0.0
C1054 C 0.48478 0.44811 0.16627 0.0
C1055 C 0.48096 0.43045 0.15807 0.0
C1056 C 0.48457 0.41871 0.16901 0.0
C1057 C 0.49118 0.42425 0.18812 0.0
C1058 C 0.52673 0.47578 0.21378 0.0
C1059 C 0.52857 0.49364 0.21252 0.0
C1060 C 0.54104 0.50638 0.20045 0.0
C1061 C 0.55169 0.5014 0.1891 0.0
C1062 C 0.54985 0.48351 0.19033 0.0
C1063 C 0.53754 0.47083 0.20269 0.0
C1064 C 0.50941 0.4728 0.33903 0.0
C1065 C 0.41548 0.36707 0.1936 0.0
H1066 H 0.51787 0.99219 0.37083 0.0
H1067 H 0.38383 0.00118 0.22825 0.0
H1068 H 0.53831 0.02732 0.28019 0.0
H1069 H 0.56229 0.02119 0.29229 0.0
H1070 H 0.54214 0.97367 0.24988 0.0
H1071 H 0.51699 0.97885 0.23924 0.0
H1072 H 0.50541 0.02317 0.30276 0.0
H1073 H 0.51148 0.01508 0.33407 0.0
H1074 H 0.50106 0.96114 0.30883 0.0
H1075 H 0.49478 0.9693 0.27766 0.0
H1076 H 0.47356 0.02818 0.2851 0.0
H1077 H 0.44894 0.02055 0.30723 0.0
H1078 H 0.43184 0.96123 0.29946 0.0
H1079 H 0.45638 0.96895 0.2773 0.0
H1080 H 0.47669 0.03954 0.23901 0.0
H1081 H 0.44957 0.04305 0.23224 0.0
H1082 H 0.4125 0.98328 0.23879 0.0
H1083 H 0.43971 0.97991 0.24526 0.0
H1084 H 0.50798 0.03856 0.20912 0.0
H1085 H 0.49905 0.04037 0.17621 0.0
H1086 H 0.44731 0.98663 0.17863 0.0
H1087 H 0.45735 0.98408 0.21041 0.0
H1088 H 0.54161 0.03565 0.23347 0.0
H1089 H 0.56192 0.03824 0.20785 0.0
H1090 H 0.51602 0.98744 0.17816 0.0
H1091 H 0.49602 0.98451 0.20404 0.0
O1092 O 0.51525 0.99502 0.35836 0.0
O1093 O 0.50991 0.96755 0.34465 0.0
O1094 O 0.41445 0.03084 0.22756 0.0
O1095 O 0.39479 0.0002 0.23088 0.0
C1096 C 0.50892 0.00489 0.25454 0.0
C1097 C 0.49639 0.00196 0.26888 0.0
C1098 C 0.48039 0.00333 0.26497 0.0
C1099 C 0.47674 0.0075 0.2467 0.0
C1100 C 0.48871 0.0095 0.23205 0.0
C1101 C 0.50492 0.00834 0.236 0.0
C1102 C 0.52573 0.00341 0.25901 0.0
C1103 C 0.5392 0.01568 0.27342 0.0
C1104 C 0.55307 0.01224 0.28019 0.0
C1105 C 0.55413 0.99674 0.27226 0.0
C1106 C 0.54149 0.9854 0.25674 0.0
C1107 C 0.52726 0.98853 0.25037 0.0
C1108 C 0.4997 0.99684 0.28795 0.0
C1109 C 0.50433 0.00957 0.30406 0.0
C1110 C 0.50785 0.00493 0.32191 0.0
C1111 C 0.5068 0.98748 0.32395 0.0
C1112 C 0.50202 0.97471 0.30776 0.0
C1113 C 0.49845 0.97934 0.28994 0.0
C1114 C 0.46669 -0.0009 0.27962 0.0
C1115 C 0.46462 0.01359 0.28838 0.0
C1116 C 0.45065 0.00922 0.30104 0.0
C1117 C 0.43847 0.99029 0.30498 0.0
C1118 C 0.44093 0.9759 0.29654 0.0
C1119 C 0.45497 0.98029 0.284 0.0
C1120 C 0.46017 0.00953 0.2428 0.0
C1121 C 0.46269 0.02724 0.23898 0.0
C1122 C 0.44718 0.02919 0.23513 0.0
C1123 C 0.42885 0.01344 0.23503 0.0
C1124 C 0.4264 0.9957 0.23882 0.0
C1125 C 0.44192 0.99376 0.24262 0.0
C1126 C 0.48328 0.01123 0.21225 0.0
C1127 C 0.49484 0.02711 0.20237 0.0
C1128 C 0.48958 0.02819 0.18361 0.0
C1129 C 0.47244 0.01362 0.17455 0.0
C1130 C 0.46084 0.99793 0.18475 0.0
C1131 C 0.46637 0.99659 0.20317 0.0
C1132 C 0.51729 0.00998 0.22056 0.0
C1133 C 0.53599 0.02503 0.22148 0.0
C1134 C 0.54754 0.02651 0.20689 0.0
C1135 C 0.54043 0.01312 0.19102 0.0
C1136 C 0.52172 0.99807 0.19014 0.0
C1137 C 0.51032 0.9964 0.20487 0.0
C1138 C 0.51072 0.98268 0.3429 0.0
C1139 C 0.41232 0.01543 0.23093 0.0
H1140 H 0.48436 0.01467 0.69831 0.0
H1141 H 0.60793 0.97531 0.84735 0.0
H1142 H 0.48948 0.01866 0.81539 0.0
H1143 H 0.46493 0.02301 0.80089 0.0
H1144 H 0.43807 0.96608 0.77345 0.0
H1145 H 0.46305 0.96214 0.78761 0.0
H1146 H 0.50727 0.0212 0.77898 0.0
H1147 H 0.49866 0.02383 0.74626 0.0
H1148 H 0.48883 0.96777 0.73026 0.0
H1149 H 0.49722 0.96521 0.76315 0.0
H1150 H 0.54372 0.02435 0.78141 0.0
H1151 H 0.56861 0.03274 0.75966 0.0
H1152 H 0.56146 0.97699 0.76194 0.0
H1153 H 0.53615 0.96848 0.78342 0.0
H1154 H 0.56411 0.01996 0.81915 0.0
H1155 H 0.59327 0.02083 0.82816 0.0
H1156 H 0.5614 0.96087 0.83649 0.0
H1157 H 0.53239 0.96018 0.82725 0.0
H1158 H 0.54293 0.01701 0.85491 0.0
H1159 H 0.55484 0.01586 0.88662 0.0
H1160 H 0.51449 0.95563 0.88449 0.0
H1161 H 0.50228 0.95711 0.8528 0.0
H1162 H 0.50806 0.01455 0.85578 0.0
H1163 H 0.48854 0.01326 0.88155 0.0
H1164 H 0.44378 0.95871 0.85702 0.0
H1165 H 0.46367 0.95976 0.83152 0.0
O1166 O 0.48778 0.01335 0.71114 0.0
O1167 O 0.48322 0.9846 0.70356 0.0
O1168 O 0.6124 0.00612 0.83898 0.0
O1169 O 0.59665 0.97535 0.84361 0.0
C1170 C 0.49501 0.98922 0.80771 0.0
C1171 C 0.50731 0.9911 0.79348 0.0
C1172 C 0.52415 0.99154 0.79832 0.0
C1173 C 0.52847 0.98954 0.81728 0.0
C1174 C 0.51625 0.98776 0.83153 0.0
C1175 C 0.49957 0.98777 0.8268 0.0
C1176 C 0.47804 0.99011 0.8025 0.0
C1177 C 0.47801 0.00697 0.80666 0.0
C1178 C 0.46396 0.00942 0.79833 0.0
C1179 C 0.44965 0.99499 0.78578 0.0
C1180 C 0.4491 0.97763 0.78272 0.0
C1181 C 0.4632 0.97524 0.79096 0.0
C1182 C 0.5027 0.99295 0.77345 0.0
C1183 C 0.50316 0.00947 0.76841 0.0
C1184 C 0.49829 0.01095 0.74969 0.0
C1185 C 0.493 0.99598 0.73565 0.0
C1186 C 0.4928 0.97954 0.74073 0.0
C1187 C 0.49762 0.97805 0.75948 0.0
C1188 C 0.53808 0.99578 0.78391 0.0
C1189 C 0.54723 0.0138 0.77688 0.0
C1190 C 0.56143 0.01858 0.7645 0.0
C1191 C 0.56691 0.0055 0.75916 0.0
C1192 C 0.55753 0.98734 0.76595 0.0
C1193 C 0.54311 0.98246 0.77814 0.0
C1194 C 0.54618 0.98999 0.82247 0.0
C1195 C 0.56349 0.00702 0.82281 0.0
C1196 C 0.5801 0.00748 0.82801 0.0
C1197 C 0.57966 0.9909 0.83305 0.0
C1198 C 0.56225 0.97388 0.8327 0.0
C1199 C 0.54566 0.97344 0.82744 0.0
C1200 C 0.52179 0.98715 0.85159 0.0
C1201 C 0.53651 0.00362 0.86142 0.0
C1202 C 0.5434 0.00288 0.87944 0.0
C1203 C 0.53584 0.98558 0.88797 0.0
C1204 C 0.52058 0.96918 0.87836 0.0
C1205 C 0.51359 0.96998 0.86029 0.0
C1206 C 0.48738 0.98712 0.84196 0.0
C1207 C 0.49413 0.00221 0.85608 0.0
C1208 C 0.48299 0.00149 0.87072 0.0
C1209 C 0.46476 0.98583 0.87127 0.0
C1210 C 0.4578 0.97093 0.85685 0.0
C1211 C 0.46911 0.97151 0.84235 0.0
C1212 C 0.48771 0.99756 0.7158 0.0
C1213 C 0.59725 0.99133 0.8387 0.0
H1214 H 0.97281 0.47442 0.71738 0.0
H1215 H 0.02908 0.62881 0.87926 0.0
H1216 H 0.98367 0.47054 0.81743 0.0
H1217 H 0.97838 0.44007 0.80386 0.0
H1218 H 0.0371 0.4596 0.81523 0.0
H1219 H 0.04255 0.4906 0.82822 0.0
H1220 H 0.97853 0.49766 0.79833 0.0
H1221 H 0.97072 0.48668 0.76455 0.0
H1222 H 0.02798 0.50094 0.75841 0.0
H1223 H 0.03566 0.5121 0.79218 0.0
H1224 H 0.97884 0.52633 0.82595 0.0
H1225 H 0.96744 0.5428 0.80675 0.0
H1226 H 0.01936 0.56886 0.7787 0.0
H1227 H 0.03042 0.55187 0.79774 0.0
H1228 H 0.99219 0.53495 0.86836 0.0
H1229 H 0.99157 0.56243 0.88254 0.0
H1230 H 0.04017 0.59963 0.85278 0.0
H1231 H 0.0408 0.57201 0.83893 0.0
H1232 H 0.00203 0.50803 0.88704 0.0
H1233 H 0.00461 0.52369 0.91841 0.0
H1234 H 0.05549 0.57336 0.90418 0.0
H1235 H 0.05317 0.55739 0.87301 0.0
H1236 H 0.99562 0.47318 0.86022 0.0
H1237 H -2e-05 0.45314 0.88165 0.0
H1238 H 0.05859 0.49621 0.89203 0.0
H1239 H 0.05413 0.51622 0.87022 0.0
O1240 O 0.97626 0.47903 0.73068 0.0
O1241 O 0.00587 0.4866 0.72827 0.0
O1242 O 0.00366 0.5979 0.88831 0.0
O1243 O 0.0289 0.6177 0.87369 0.0
C1244 C 0.01651 0.50158 0.83069 0.0
C1245 C 0.01241 0.51219 0.81827 0.0
C1246 C 0.01236 0.52846 0.82556 0.0
C1247 C 0.0175 0.53482 0.84497 0.0
C1248 C 0.02265 0.52486 0.85722 0.0
C1249 C 0.02168 0.50793 0.85021 0.0
C1250 C 0.01355 0.48289 0.82346 0.0
C1251 C 0.99546 0.46835 0.81683 0.0
C1252 C 0.99244 0.45099 0.80917 0.0
C1253 C 0.00739 0.44769 0.80839 0.0
C1254 C 0.02541 0.46194 0.81568 0.0
C1255 C 0.02851 0.47955 0.82305 0.0
C1256 C 0.00772 0.50589 0.79765 0.0
C1257 C 0.98942 0.49863 0.78961 0.0
C1258 C 0.98497 0.49225 0.77033 0.0
C1259 C -0.00127 0.49296 0.75876 0.0
C1260 C 0.01706 0.50023 0.7669 0.0
C1261 C 0.02149 0.50663 0.78617 0.0
C1262 C 0.00547 0.53804 0.81328 0.0
C1263 C 0.98769 0.53555 0.81559 0.0
C1264 C 0.98125 0.54501 0.80467 0.0
C1265 C 0.99255 0.55724 0.79129 0.0
C1266 C 0.01025 0.55939 0.78874 0.0
C1267 C 0.01665 0.54982 0.79965 0.0
C1268 C 0.01661 0.55152 0.85273 0.0
C1269 C 0.00269 0.54905 0.86493 0.0
C1270 C 0.00235 0.56476 0.87299 0.0
C1271 C 0.01586 0.58324 0.86883 0.0
C1272 C 0.0296 0.58561 0.85631 0.0
C1273 C 0.02996 0.56987 0.84833 0.0
C1274 C 0.02736 0.53161 0.87771 0.0
C1275 C 0.01424 0.52189 0.89103 0.0
C1276 C 0.01568 0.5309 0.9089 0.0
C1277 C 0.03012 0.54979 0.91353 0.0
C1278 C 0.04418 0.55883 0.90085 0.0
C1279 C 0.04292 0.54969 0.88313 0.0
C1280 C 0.02459 0.49606 0.8635 0.0
C1281 C 0.00946 0.47821 0.86693 0.0
C1282 C 0.012 0.46676 0.87911 0.0
C1283 C 0.0297 0.47301 0.88831 0.0
C1284 C 0.04482 0.49103 0.88509 0.0
C1285 C 0.04229 0.50245 0.87269 0.0
C1286 C 0.99392 0.48603 0.73832 0.0
C1287 C 0.0157 0.59999 0.87755 0.0
H1288 H 0.47261 0.5115 0.69512 0.0
H1289 H 0.62746 0.63292 0.84795 0.0
H1290 H 0.45878 0.5169 0.79474 0.0
H1291 H 0.43187 0.48579 0.78296 0.0
H1292 H 0.45843 0.45826 0.80928 0.0
H1293 H 0.48506 0.48917 0.82084 0.0
H1294 H 0.49556 0.55026 0.77167 0.0
H1295 H 0.4857 0.53865 0.73819 0.0
H1296 H 0.48849 0.48869 0.74852 0.0
H1297 H 0.49859 0.50058 0.78188 0.0
H1298 H 0.5391 0.58465 0.79117 0.0
H1299 H 0.56583 0.59755 0.77102 0.0
H1300 H 0.56204 0.54305 0.76623 0.0
H1301 H 0.5359 0.53048 0.78673 0.0
H1302 H 0.53425 0.59151 0.83724 0.0
H1303 H 0.56494 0.61964 0.84661 0.0
H1304 H 0.59163 0.58759 0.83234 0.0
H1305 H 0.56085 0.55951 0.82327 0.0
H1306 H 0.50186 0.56301 0.86452 0.0
H1307 H 0.51392 0.57389 0.89791 0.0
H1308 H 0.55363 0.55531 0.89055 0.0
H1309 H 0.54143 0.54435 0.85746 0.0
H1310 H 0.46489 0.52933 0.84414 0.0
H1311 H 0.44423 0.5099 0.8683 0.0
H1312 H 0.48069 0.48789 0.87922 0.0
H1313 H 0.50149 0.50763 0.85555 0.0
O1314 O 0.47662 0.51587 0.70838 0.0
O1315 O 0.47816 0.49038 0.71448 0.0
O1316 O 0.60072 0.6378 0.85171 0.0
O1317 O 0.61515 0.62201 0.84438 0.0
C1318 C 0.49114 0.52381 0.81388 0.0
C1319 C 0.50334 0.53328 0.79958 0.0
C1320 C 0.5213 0.54929 0.80466 0.0
C1321 C 0.52662 0.55651 0.82393 0.0
C1322 C 0.51434 0.54712 0.83819 0.0
C1323 C 0.49668 0.53074 0.83316 0.0
C1324 C 0.47374 0.50525 0.80882 0.0
C1325 C 0.45854 0.50409 0.79823 0.0
C1326 C 0.4433 0.48637 0.79144 0.0
C1327 C 0.44304 0.46958 0.79523 0.0
C1328 C 0.45803 0.47087 0.80641 0.0
C1329 C 0.47325 0.48853 0.81307 0.0
C1330 C 0.49758 0.52617 0.77923 0.0
C1331 C 0.49405 0.53682 0.76665 0.0
C1332 C 0.4884 0.53015 0.74755 0.0
C1333 C 0.48622 0.51269 0.74069 0.0
C1334 C 0.48995 0.50214 0.75335 0.0
C1335 C 0.49565 0.50886 0.77243 0.0
C1336 C 0.53552 0.55661 0.79033 0.0
C1337 C 0.54391 0.57547 0.78553 0.0
C1338 C 0.55915 0.5828 0.77413 0.0
C1339 C 0.56592 0.57124 0.76713 0.0
C1340 C 0.55694 0.55217 0.77127 0.0
C1341 C 0.54197 0.54497 0.7829 0.0
C1342 C 0.54535 0.57355 0.8294 0.0
C1343 C 0.54675 0.59062 0.83614 0.0
C1344 C 0.56429 0.60665 0.84148 0.0
C1345 C 0.58076 0.60588 0.84017 0.0
C1346 C 0.57926 0.58869 0.83347 0.0
C1347 C 0.5617 0.57265 0.82821 0.0
C1348 C 0.52096 0.55315 0.85855 0.0
C1349 C 0.51309 0.56123 0.87021 0.0
C1350 C 0.51994 0.56737 0.88921 0.0
C1351 C 0.53484 0.56563 0.8967 0.0
C1352 C 0.54237 0.55714 0.88505 0.0
C1353 C 0.53542 0.55087 0.86619 0.0
C1354 C 0.48462 0.51983 0.8482 0.0
C1355 C 0.46846 0.52045 0.85191 0.0
C1356 C 0.45675 0.50943 0.86561 0.0
C1357 C 0.46099 0.49748 0.87538 0.0
C1358 C 0.47723 0.49701 0.87173 0.0
C1359 C 0.48907 0.50825 0.85834 0.0
C1360 C 0.4801 0.50558 0.72042 0.0
C1361 C 0.59943 0.62289 0.84578 0.0
H1362 H 0.6174 0.83207 0.68612 0.0
H1363 H 0.63843 0.69752 0.54907 0.0
H1364 H 0.60028 0.82466 0.58534 0.0
H1365 H 0.60762 0.85696 0.5953 0.0
H1366 H 0.66158 0.87972 0.57155 0.0
H1367 H 0.65416 0.84759 0.56176 0.0
H1368 H 0.59853 0.79069 0.61096 0.0
H1369 H 0.60123 0.80381 0.64367 0.0
H1370 H 0.65732 0.84951 0.63538 0.0
H1371 H 0.65451 0.83609 0.6028 0.0
H1372 H 0.60238 0.75342 0.59648 0.0
H1373 H 0.61381 0.7374 0.61674 0.0
H1374 H 0.6693 0.78728 0.62068 0.0
H1375 H 0.65794 0.80309 0.60047 0.0
H1376 H 0.59331 0.7454 0.54879 0.0
H1377 H 0.59301 0.71564 0.5425 0.0
H1378 H 0.65185 0.74428 0.56142 0.0
H1379 H 0.65202 0.77396 0.56731 0.0
H1380 H 0.59531 0.77354 0.51693 0.0
H1381 H 0.59781 0.7597 0.48609 0.0
H1382 H 0.65526 0.77741 0.50291 0.0
H1383 H 0.65272 0.79119 0.53335 0.0
H1384 H 0.59632 0.81593 0.53914 0.0
H1385 H 0.5986 0.83707 0.51466 0.0
H1386 H 0.65199 0.84431 0.50083 0.0
H1387 H 0.64996 0.82378 0.52566 0.0
O1388 O 0.61666 0.82707 0.67319 0.0
O1389 O 0.64537 0.85035 0.66814 0.0
O1390 O 0.60799 0.69509 0.54151 0.0
O1391 O 0.63816 0.70909 0.55138 0.0
C1392 C 0.62358 0.81444 0.56905 0.0
C1393 C 0.62436 0.80456 0.58456 0.0
C1394 C 0.62423 0.78743 0.5812 0.0
C1395 C 0.62267 0.77978 0.56234 0.0
C1396 C 0.62211 0.78973 0.54683 0.0
C1397 C 0.62243 0.80701 0.55014 0.0
C1398 C 0.62665 0.83381 0.57276 0.0
C1399 C 0.61352 0.83668 0.58202 0.0
C1400 C 0.61778 0.85508 0.58776 0.0
C1401 C 0.63519 0.87086 0.58422 0.0
C1402 C 0.64794 0.8679 0.57423 0.0
C1403 C 0.64373 0.84955 0.56861 0.0
C1404 C 0.62623 0.81255 0.60446 0.0
C1405 C 0.61139 0.80351 0.61626 0.0
C1406 C 0.61297 0.81106 0.63492 0.0
C1407 C 0.62946 0.82776 0.64212 0.0
C1408 C 0.64439 0.83667 0.63027 0.0
C1409 C 0.6428 0.82908 0.61163 0.0
C1410 C 0.62936 0.77938 0.59702 0.0
C1411 C 0.61683 0.76107 0.60228 0.0
C1412 C 0.62335 0.75198 0.6138 0.0
C1413 C 0.64243 0.76112 0.62002 0.0
C1414 C 0.65455 0.77996 0.61593 0.0
C1415 C 0.64805 0.78903 0.60455 0.0
C1416 C 0.62261 0.76175 0.55872 0.0
C1417 C 0.6061 0.74518 0.55157 0.0
C1418 C 0.60598 0.72823 0.548 0.0
C1419 C 0.6224 0.72757 0.55152 0.0
C1420 C 0.63895 0.74426 0.5586 0.0
C1421 C 0.63907 0.76122 0.56208 0.0
C1422 C 0.62377 0.78314 0.5274 0.0
C1423 C 0.60847 0.77461 0.51378 0.0
C1424 C 0.60991 0.76675 0.49625 0.0
C1425 C 0.62664 0.76725 0.49231 0.0
C1426 C 0.64211 0.7765 0.50574 0.0
C1427 C 0.6407 0.78442 0.52307 0.0
C1428 C 0.62283 0.81808 0.53399 0.0
C1429 C 0.60839 0.82192 0.53066 0.0
C1430 C 0.60973 0.834 0.51678 0.0
C1431 C 0.62542 0.84219 0.50586 0.0
C1432 C 0.63962 0.83793 0.50888 0.0
C1433 C 0.63842 0.82613 0.52296 0.0
C1434 C 0.63105 0.8358 0.66191 0.0
C1435 C 0.62234 0.70958 0.54781 0.0
H1436 H 0.16596 0.81429 0.70061 0.0
H1437 H 0.07108 0.67459 0.52725 0.0
H1438 H 0.18076 0.83005 0.60256 0.0
H1439 H 0.2056 0.86094 0.61664 0.0
H1440 H 0.24701 0.84613 0.60284 0.0
H1441 H 0.22178 0.81465 0.58921 0.0
H1442 H 0.1495 0.80098 0.6181 0.0
H1443 H 0.15227 0.80785 0.6526 0.0
H1444 H 0.19595 0.79413 0.6576 0.0
H1445 H 0.19286 0.78704 0.62307 0.0
H1446 H 0.12107 0.77425 0.58327 0.0
H1447 H 0.09347 0.75969 0.60165 0.0
H1448 H 0.11896 0.73573 0.63608 0.0
H1449 H 0.14667 0.75017 0.61721 0.0
H1450 H 0.12508 0.76866 0.54408 0.0
H1451 H 0.09743 0.74102 0.52776 0.0
H1452 H 0.1117 0.70399 0.55576 0.0
H1453 H 0.13951 0.73179 0.57175 0.0
H1454 H 0.1629 0.80348 0.53249 0.0
H1455 H 0.15256 0.79568 0.49872 0.0
H1456 H 0.15149 0.74274 0.50096 0.0
H1457 H 0.16294 0.7511 0.53469 0.0
H1458 H 0.19069 0.83331 0.56102 0.0
H1459 H 0.21237 0.85524 0.53958 0.0
H1460 H 0.22788 0.81417 0.52218 0.0
H1461 H 0.20622 0.79225 0.54408 0.0
O1462 O 0.16504 0.81141 0.687 0.0
O1463 O 0.18751 0.80432 0.68879 0.0
O1464 O 0.07537 0.70544 0.51928 0.0
O1465 O 0.08186 0.68576 0.5336 0.0
C1466 C 0.18392 0.80145 0.58613 0.0
C1467 C 0.16923 0.78911 0.59713 0.0
C1468 C 0.15285 0.77329 0.58808 0.0
C1469 C 0.15169 0.76902 0.56825 0.0
C1470 C 0.16651 0.78112 0.55723 0.0
C1471 C 0.18256 0.79746 0.56616 0.0
C1472 C 0.19939 0.81991 0.59521 0.0
C1473 C 0.19513 0.83322 0.60298 0.0
C1474 C 0.20933 0.85088 0.61095 0.0
C1475 C 0.22818 0.85579 0.611 0.0
C1476 C 0.23256 0.8426 0.60302 0.0
C1477 C 0.21822 0.82468 0.59529 0.0
C1478 C 0.17081 0.79327 0.61811 0.0
C1479 C 0.15952 0.79927 0.62669 0.0
C1480 C 0.1612 0.80328 0.6464 0.0
C1481 C 0.1743 0.80149 0.65788 0.0
C1482 C 0.18569 0.79561 0.64919 0.0
C1483 C 0.18396 0.79155 0.62948 0.0
C1484 C 0.13578 0.76308 0.59875 0.0
C1485 C 0.12056 0.76551 0.5945 0.0
C1486 C 0.10482 0.75722 0.60503 0.0
C1487 C 0.10405 0.7465 0.62021 0.0
C1488 C 0.11926 0.74397 0.62445 0.0
C1489 C 0.135 0.75211 0.61369 0.0
C1490 C 0.13443 0.75222 0.55892 0.0
C1491 C 0.12226 0.75457 0.5466 0.0
C1492 C 0.10645 0.73876 0.53734 0.0
C1493 C 0.10239 0.72029 0.5404 0.0
C1494 C 0.11444 0.71801 0.55304 0.0
C1495 C 0.13031 0.73385 0.56222 0.0
C1496 C 0.16383 0.77794 0.53608 0.0
C1497 C 0.1613 0.79061 0.52555 0.0
C1498 C 0.15528 0.78609 0.50629 0.0
C1499 C 0.15123 0.76862 0.49735 0.0
C1500 C 0.15457 0.75631 0.50761 0.0
C1501 C 0.1611 0.76108 0.5268 0.0
C1502 C 0.19704 0.81127 0.55431 0.0
C1503 C 0.19914 0.82923 0.55301 0.0
C1504 C 0.21154 0.84174 0.54074 0.0
C1505 C 0.22192 0.83646 0.52931 0.0
C1506 C 0.22004 0.81858 0.53083 0.0
C1507 C 0.20774 0.8061 0.54332 0.0
C1508 C 0.17607 0.8058 0.67881 0.0
C1509 C 0.08571 0.70344 0.53044 0.0
H1510 H 0.21408 0.36583 0.7094 0.0
H1511 H 0.06928 0.36876 0.56721 0.0
H1512 H 0.22598 0.39461 0.61449 0.0
H1513 H 0.24964 0.38753 0.62653 0.0
H1514 H 0.21944 0.33244 0.59516 0.0
H1515 H 0.19565 0.33933 0.58374 0.0
H1516 H 0.19664 0.39283 0.64097 0.0
H1517 H 0.20558 0.38682 0.67211 0.0
H1518 H 0.18539 0.32864 0.65137 0.0
H1519 H 0.17633 0.33482 0.62038 0.0
H1520 H 0.16253 0.38954 0.63633 0.0
H1521 H 0.13807 0.37801 0.6591 0.0
H1522 H 0.11042 0.32241 0.62833 0.0
H1523 H 0.13556 0.33373 0.60691 0.0
H1524 H 0.16096 0.40556 0.58792 0.0
H1525 H 0.13436 0.4101 0.58201 0.0
H1526 H 0.09723 0.34921 0.57336 0.0
H1527 H 0.12396 0.34491 0.57917 0.0
H1528 H 0.18612 0.40264 0.54895 0.0
H1529 H 0.17473 0.40171 0.51595 0.0
H1530 H 0.13151 0.34301 0.51893 0.0
H1531 H 0.14303 0.34401 0.55151 0.0
H1532 H 0.21966 0.40043 0.56214 0.0
H1533 H 0.23584 0.39787 0.5345 0.0
H1534 H 0.19471 0.338 0.52553 0.0
H1535 H 0.1784 0.34075 0.55272 0.0
O1536 O 0.21013 0.36781 0.69711 0.0
O1537 O 0.19977 0.33811 0.68566 0.0
O1538 O 0.09973 0.39858 0.57414 0.0
O1539 O 0.08004 0.36738 0.56964 0.0
C1540 C 0.19297 0.37002 0.59435 0.0
C1541 C 0.18143 0.36827 0.60935 0.0
C1542 C 0.16502 0.36896 0.60578 0.0
C1543 C 0.16066 0.37247 0.58751 0.0
C1544 C 0.1718 0.37356 0.5724 0.0
C1545 C 0.18782 0.37208 0.57575 0.0
C1546 C 0.20925 0.36758 0.59805 0.0
C1547 C 0.22481 0.38125 0.60981 0.0
C1548 C 0.23821 0.37717 0.61672 0.0
C1549 C 0.23632 0.35946 0.61172 0.0
C1550 C 0.22137 0.3463 0.59897 0.0
C1551 C 0.20784 0.35027 0.59234 0.0
C1552 C 0.18584 0.36426 0.6285 0.0
C1553 C 0.19399 0.37876 0.64327 0.0
C1554 C 0.19916 0.3753 0.661 0.0
C1555 C 0.19626 0.35726 0.66422 0.0
C1556 C 0.18785 0.3427 0.64938 0.0
C1557 C 0.18264 0.34617 0.63168 0.0
C1558 C 0.15068 0.36247 0.61996 0.0
C1559 C 0.15126 0.37483 0.63478 0.0
C1560 C 0.13718 0.36821 0.64766 0.0
C1561 C 0.12215 0.3492 0.64567 0.0
C1562 C 0.12188 0.33696 0.63075 0.0
C1563 C 0.13612 0.34347 0.61826 0.0
C1564 C 0.14434 0.37492 0.58412 0.0
C1565 C 0.14705 0.39323 0.58479 0.0
C1566 C 0.13184 0.39578 0.5814 0.0
C1567 C 0.11365 0.38001 0.57725 0.0
C1568 C 0.11103 0.36166 0.57657 0.0
C1569 C 0.12626 0.35915 0.57995 0.0
C1570 C 0.16514 0.37349 0.55265 0.0
C1571 C 0.17416 0.38966 0.54241 0.0
C1572 C 0.16771 0.38908 0.52364 0.0
C1573 C 0.15209 0.37237 0.51505 0.0
C1574 C 0.14331 0.3562 0.52535 0.0
C1575 C 0.14985 0.35673 0.54393 0.0
C1576 C 0.198 0.37074 0.55946 0.0
C1577 C 0.21421 0.3868 0.55418 0.0
C1578 C 0.22335 0.38534 0.53844 0.0
C1579 C 0.21653 0.36772 0.52805 0.0
C1580 C 0.20032 0.35168 0.53345 0.0
C1581 C 0.19102 0.35323 0.54891 0.0
C1582 C 0.20212 0.35374 0.68294 0.0
C1583 C 0.09745 0.38263 0.5736 0.0
C1584 C 0.00648 0.39878 0.07865 0.0
C1585 C 0.99234 0.3837 0.0667 0.0
C1586 C 0.00209 0.40841 0.09261 0.0
C1587 C 0.98313 0.40307 0.09437 0.0
C1588 C 0.96878 0.38789 0.0823 0.0
C1589 C 0.97355 0.37823 0.06871 0.0
C1590 C 0.01777 0.42427 0.10548 0.0
C1591 C 0.94844 0.38198 0.08364 0.0
C1592 C 0.97231 0.41803 0.14168 0.0
C1593 C 0.97361 0.43522 0.13783 0.0
C1594 C 0.97478 0.40708 0.12748 0.0
C1595 C 0.97844 0.4134 0.10897 0.0
C1596 C 0.97894 0.43034 0.10481 0.0
C1597 C 0.97672 0.44118 0.11939 0.0
C1598 C 0.9745 0.38932 0.13261 0.0
C1599 C 0.98249 0.43734 0.08514 0.0
H1600 H 0.02101 0.40297 0.07719 0.0
H1601 H 0.96259 0.36666 0.05939 0.0
H1602 H 0.01813 0.43778 0.10365 0.0
H1603 H 0.01525 0.42121 0.12059 0.0
H1604 H 0.03172 0.42633 0.10256 0.0
H1605 H 0.93899 0.37005 0.07303 0.0
H1606 H 0.94406 0.3776 0.09809 0.0
H1607 H 0.94658 0.39421 0.08136 0.0
H1608 H 0.97026 0.41362 0.15606 0.0
H1609 H 0.97774 0.4545 0.11648 0.0
H1610 H 0.98894 0.3918 0.13269 0.0
H1611 H 0.96564 0.3773 0.1219 0.0
H1612 H 0.96919 0.38513 0.14686 0.0
H1613 H 0.99701 0.44157 0.08184 0.0
H1614 H 0.98066 0.44973 0.0838 0.0
H1615 H 0.97283 0.42582 0.07431 0.0
C1616 C 0.60924 0.57552 0.11147 0.0
C1617 C 0.59686 0.58145 0.10552 0.0
C1618 C 0.60429 0.56207 0.12504 0.0
C1619 C 0.58659 0.55441 0.13279 0.0
C1620 C 0.57403 0.56025 0.12674 0.0
C1621 C 0.57931 0.57366 0.11322 0.0
C1622 C 0.61801 0.55615 0.13118 0.0
C1623 C 0.555 0.55242 0.13464 0.0
C1624 C 0.56178 0.50798 0.15601 0.0
C1625 C 0.56359 0.51452 0.17517 0.0
C1626 C 0.57036 0.52079 0.14207 0.0
C1627 C 0.58103 0.54053 0.14751 0.0
C1628 C 0.58407 0.54704 0.16702 0.0
C1629 C 0.57524 0.53394 0.18062 0.0
C1630 C 0.56678 0.51328 0.12142 0.0
C1631 C 0.59551 0.56794 0.17344 0.0
H1632 H 0.62282 0.58143 0.10559 0.0
H1633 H 0.56962 0.57808 0.10873 0.0
H1634 H 0.6218 0.55975 0.14669 0.0
H1635 H 0.61143 0.54053 0.12861 0.0
H1636 H 0.63106 0.56314 0.12352 0.0
H1637 H 0.54677 0.55822 0.1282 0.0
H1638 H 0.5468 0.53672 0.13205 0.0
H1639 H 0.55669 0.55585 0.15028 0.0
H1640 H 0.5527 0.49298 0.15175 0.0
H1641 H 0.57685 0.53896 0.19549 0.0
H1642 H 0.57997 0.52016 0.11402 0.0
H1643 H 0.5569 0.51668 0.11421 0.0
H1644 H 0.56061 0.49765 0.11978 0.0
H1645 H 0.60889 0.57488 0.16637 0.0
H1646 H 0.59871 0.57045 0.18911 0.0
H1647 H 0.58761 0.5749 0.16931 0.0
C1648 C 0.44003 0.01057 0.06506 0.0
C1649 C 0.42241 0.00893 0.06465 0.0
C1650 C 0.45071 0.01453 0.08236 0.0
C1651 C 0.44308 0.01591 0.09961 0.0
C1652 C 0.42558 0.015 0.09913 0.0
C1653 C 0.4156 0.01187 0.08157 0.0
C1654 C 0.46968 0.01628 0.08222 0.0
C1655 C 0.41666 0.01577 0.11721 0.0
C1656 C 0.45549 0.99788 0.14276 0.0
C1657 C 0.46639 0.01462 0.15468 0.0
C1658 C 0.44793 -0.00182 0.12483 0.0
C1659 C 0.4521 0.01576 0.11812 0.0
C1660 C 0.46407 0.03285 0.12945 0.0
C1661 C 0.47079 0.03207 0.14775 0.0
C1662 C 0.43496 0.97957 0.11333 0.0
C1663 C 0.46943 0.05191 0.12244 0.0
H1664 H 0.44529 0.00838 0.05189 0.0
H1665 H 0.40185 0.01038 0.08118 0.0
H1666 H 0.48004 0.02833 0.0922 0.0
H1667 H 0.46868 0.00316 0.08702 0.0
H1668 H 0.47502 0.01839 0.06777 0.0
H1669 H 0.40364 0.01617 0.11436 0.0
H1670 H 0.41312 0.00306 0.12495 0.0
H1671 H 0.4266 0.02843 0.12675 0.0
H1672 H 0.45255 0.98437 0.14754 0.0
H1673 H 0.47908 0.04513 0.15675 0.0
H1674 H 0.44081 0.97913 0.09955 0.0
H1675 H 0.42115 0.97822 0.11011 0.0
H1676 H 0.43268 0.9671 0.12089 0.0
H1677 H 0.47398 0.05278 0.10773 0.0
H1678 H 0.4809 0.06385 0.13173 0.0
H1679 H 0.45709 0.05372 0.12205 0.0
C1680 C 0.40036 0.97508 0.9577 0.0
C1681 C 0.40437 0.99325 0.96431 0.0
C1682 C 0.40913 0.97255 0.9421 0.0
C1683 C 0.4219 0.98854 0.93273 0.0
C1684 C 0.42553 0.00684 0.93899 0.0
C1685 C 0.41686 0.00899 0.95485 0.0
C1686 C 0.40517 0.95288 0.93601 0.0
C1687 C 0.4388 0.02419 0.92914 0.0
C1688 C 0.46046 0.98827 0.90586 0.0
C1689 C 0.45317 0.98516 0.88696 0.0
C1690 C 0.45012 0.98875 0.92093 0.0
C1691 C 0.4322 0.98638 0.91694 0.0
C1692 C 0.42462 0.98288 0.89786 0.0
C1693 C 0.43517 0.98216 0.88306 0.0
C1694 C 0.45854 0.99217 0.94111 0.0
C1695 C 0.40568 0.98056 0.89307 0.0
H1696 H 0.39075 0.96289 0.96505 0.0
H1697 H 0.41986 0.02304 0.95983 0.0
H1698 H 0.40036 0.94927 0.9207 0.0
H1699 H 0.41827 0.95245 0.93783 0.0
H1700 H 0.39437 0.94185 0.94435 0.0
H1701 H 0.43915 0.03719 0.93501 0.0
H1702 H 0.4532 0.0266 0.93069 0.0
H1703 H 0.43462 0.02196 0.91368 0.0
H1704 H 0.47433 0.9904 0.90882 0.0
H1705 H 0.42962 0.97987 0.8684 0.0
H1706 H 0.44864 0.98094 0.94989 0.0
H1707 H 0.46105 0.00595 0.94757 0.0
H1708 H 0.47205 0.99244 0.94183 0.0
H1709 H 0.39481 0.96918 0.901 0.0
H1710 H 0.40143 0.97706 0.8776 0.0
H1711 H 0.40603 0.99391 0.89751 0.0
C1712 C 0.00167 0.406 0.96817 0.0
C1713 C 0.0123 0.39808 0.97415 0.0
C1714 C 0.00748 0.41876 0.95401 0.0
C1715 C 0.02444 0.42388 0.94551 0.0
C1716 C 0.03547 0.41624 0.9516 0.0
C1717 C 0.02926 0.40338 0.96589 0.0
C1718 C 0.99526 0.42657 0.94798 0.0
C1719 C 0.05364 0.42144 0.94286 0.0
C1720 C 0.02349 0.44135 0.89727 0.0
C1721 C 0.03185 0.46094 0.9019 0.0
C1722 C 0.02248 0.42919 0.91101 0.0
C1723 C 0.02995 0.43681 0.92987 0.0
C1724 C 0.03979 0.45674 0.93421 0.0
C1725 C 0.04062 0.46859 0.92014 0.0
C1726 C 0.012 0.40805 0.90572 0.0
C1727 C 0.04802 0.46544 0.9541 0.0
H1728 H 0.98859 0.40213 0.97447 0.0
H1729 H 0.03759 0.39738 0.97043 0.0
H1730 H 0.00341 0.44232 0.94975 0.0
H1731 H 0.99052 0.42235 0.93268 0.0
H1732 H 0.98267 0.42144 0.95631 0.0
H1733 H 0.06107 0.41506 0.94984 0.0
H1734 H 0.05082 0.41653 0.92751 0.0
H1735 H 0.06305 0.4371 0.9439 0.0
H1736 H 0.01703 0.43543 0.88305 0.0
H1737 H 0.0471 0.48372 0.9238 0.0
H1738 H 0.99812 0.40139 0.91185 0.0
H1739 H 0.01972 0.40154 0.91167 0.0
H1740 H 0.0097 0.40467 0.89005 0.0
H1741 H 0.03654 0.46294 0.96332 0.0
H1742 H 0.05794 0.481 0.95439 0.0
H1743 H 0.05546 0.45874 0.96032 0.0
C1744 C 0.58211 0.58395 0.00093 0.0
C1745 C 0.58749 0.60178 0.00997 0.0
C1746 C 0.57199 0.57791 0.98312 0.0
C1747 C 0.56721 0.59002 0.97412 0.0
C1748 C 0.57198 0.60773 0.98349 0.0
C1749 C 0.58205 0.61339 0.00134 0.0
C1750 C 0.56707 0.55887 0.97362 0.0
C1751 C 0.56711 0.62102 0.97432 0.0
C1752 C 0.56238 0.58377 0.92024 0.0
C1753 C 0.54288 0.57285 0.91651 0.0
C1754 C 0.57043 0.58984 0.93891 0.0
C1755 C 0.55866 0.5848 0.95426 0.0
C1756 C 0.53892 0.57417 0.95057 0.0
C1757 C 0.53124 0.56837 0.93168 0.0
C1758 C 0.59154 0.60131 0.94223 0.0
C1759 C 0.52596 0.56849 0.96659 0.0
H1760 H 0.58616 0.57484 0.00757 0.0
H1761 H 0.5861 0.62717 0.00828 0.0
H1762 H 0.5519 0.55043 0.96903 0.0
H1763 H 0.57492 0.561 0.96066 0.0
H1764 H 0.57048 0.55052 0.98314 0.0
H1765 H 0.57037 0.63351 0.98413 0.0
H1766 H 0.57514 0.62619 0.96152 0.0
H1767 H 0.552 0.61344 0.96952 0.0
H1768 H 0.57139 0.5875 0.90848 0.0
H1769 H 0.51614 0.55983 0.92881 0.0
H1770 H 0.59646 0.59328 0.95038 0.0
H1771 H 0.59594 0.61479 0.95086 0.0
H1772 H 0.59865 0.60473 0.92871 0.0
H1773 H 0.52807 0.55882 0.97536 0.0
H1774 H 0.51096 0.5612 0.9613 0.0
H1775 H 0.52927 0.58118 0.97607 0.0
C1776 C 0.01957 0.60991 0.00139 0.0
C1777 C 0.0002 0.60196 0.00263 0.0
C1778 C 0.02653 0.60258 0.9876 0.0
C1779 C 0.0138 0.58725 0.97454 0.0
C1780 C 0.99426 0.57946 0.9755 0.0
C1781 C 0.9877 0.58677 0.98966 0.0
C1782 C 0.04745 0.61105 0.98713 0.0
C1783 C 0.98023 0.5634 0.96155 0.0
C1784 C 0.02842 0.57738 0.92703 0.0
C1785 C 0.02878 0.56082 0.92999 0.0
C1786 C 0.02433 0.58663 0.94167 0.0
C1787 C 0.02074 0.57925 0.95974 0.0
C1788 C 0.02207 0.56309 0.96308 0.0
C1789 C 0.02585 0.55391 0.94806 0.0
C1790 C 0.02267 0.60355 0.93736 0.0
C1791 C 0.01869 0.55503 0.98227 0.0
H1792 H 0.02927 0.62158 0.01147 0.0
H1793 H 0.97272 0.58068 0.99046 0.0
H1794 H 0.05102 0.59991 0.98902 0.0
H1795 H 0.05206 0.61656 0.97307 0.0
H1796 H 0.05546 0.62281 -0.00161 0.0
H1797 H 0.96554 0.55935 0.96388 0.0
H1798 H 0.98314 0.56754 0.94676 0.0
H1799 H 0.98157 0.55073 0.96282 0.0
H1800 H 0.03035 0.58252 0.91294 0.0
H1801 H 0.02614 0.5411 0.95029 0.0
H1802 H 0.03004 0.61518 0.94883 0.0
H1803 H 0.00766 0.59934 0.93661 0.0
H1804 H 0.02847 0.60911 0.92361 0.0
H1805 H 0.02702 0.56645 0.99372 0.0
H1806 H 0.02237 0.54383 0.98314 0.0
H1807 H 0.00367 0.54876 0.98502 0.0
C1808 C 0.39109 0.42794 0.94905 0.0
C1809 C 0.40138 0.42192 0.9597 0.0
C1810 C 0.3995 0.44093 0.93522 0.0
C1811 C 0.41867 0.44821 0.93225 0.0
C1812 C 0.42924 0.44259 0.94337 0.0
C1813 C 0.42042 0.4294 0.95686 0.0
C1814 C 0.38776 0.44644 0.92345 0.0
C1815 C 0.44979 0.45025 0.94077 0.0
C1816 C 0.4388 0.46539 0.88511 0.0
C1817 C 0.44838 0.48509 0.88913 0.0
C1818 C 0.4282 0.4532 0.89874 0.0
C1819 C 0.4276 0.46099 0.91691 0.0
C1820 C 0.43683 0.48095 0.9208 0.0
C1821 C 0.44704 0.49282 0.90673 0.0
C1822 C 0.4183 0.43199 0.89395 0.0
C1823 C 0.4367 0.48975 0.94009 0.0
H1824 H 0.37635 0.42215 0.95119 0.0
H1825 H 0.42847 0.42491 0.96518 0.0
H1826 H 0.39441 0.46211 0.9243 0.0
H1827 H 0.38694 0.44159 0.90827 0.0
H1828 H 0.37328 0.44018 0.92812 0.0
H1829 H 0.45625 0.44531 0.95134 0.0
H1830 H 0.45151 0.44567 0.92628 0.0
H1831 H 0.4576 0.46601 0.9421 0.0
H1832 H 0.43991 0.45956 0.87139 0.0
H1833 H 0.45463 0.50812 0.90972 0.0
H1834 H 0.40345 0.42515 0.89755 0.0
H1835 H 0.42507 0.42591 0.90256 0.0
H1836 H 0.41865 0.4283 0.87865 0.0
H1837 H 0.42213 0.48357 0.9444 0.0
H1838 H 0.44326 0.50541 0.9403 0.0
H1839 H 0.4445 0.48654 0.95089 0.0
C1840 C 0.5868 0.98137 0.98569 0.0
C1841 C 0.58999 0.99701 0.99778 0.0
C1842 C 0.57653 0.97692 0.968 0.0
C1843 C 0.56933 0.9884 0.9623 0.0
C1844 C 0.5718 0.00366 0.97481 0.0
C1845 C 0.58205 0.00775 0.99236 0.0
C1846 C 0.57402 0.96042 0.9551 0.0
C1847 C 0.56436 0.01626 0.96929 0.0
C1848 C 0.56385 0.99508 0.91022 0.0
C1849 C 0.54429 0.98477 0.90657 0.0
C1850 C 0.57218 0.99577 0.92809 0.0
C1851 C 0.5607 0.9857 0.94268 0.0
C1852 C 0.54099 0.9745 0.93886 0.0
C1853 C 0.533 0.97422 0.92085 0.0
C1854 C 0.59325 0.00791 0.93157 0.0
C1855 C 0.52831 0.96341 0.954 0.0
H1856 H 0.5928 0.97294 0.98977 0.0
H1857 H 0.58424 0.01975 0.00164 0.0
H1858 H 0.55911 0.95123 0.94974 0.0
H1859 H 0.58236 0.96581 0.94254 0.0
H1860 H 0.57857 0.95164 0.96242 0.0
H1861 H 0.56639 0.02675 0.98113 0.0
H1862 H 0.57165 0.0241 0.95698 0.0
H1863 H 0.54918 0.00755 0.96481 0.0
H1864 H 0.57271 0.00285 0.89912 0.0
H1865 H 0.51788 0.96624 0.91817 0.0
H1866 H 0.59901 -0.00054 0.93729 0.0
H1867 H 0.59688 0.0198 0.94239 0.0
H1868 H 0.60024 0.01396 0.91842 0.0
H1869 H 0.5335 0.95493 0.96083 0.0
H1870 H 0.51361 0.95371 0.94816 0.0
H1871 H 0.52839 0.97339 0.96527 0.0
C1872 C 0.5884 0.99217 0.10632 0.0
C1873 C 0.60247 0.00815 0.09831 0.0
C1874 C 0.57939 0.99411 0.12196 0.0
C1875 C 0.5843 0.01249 0.12957 0.0
C1876 C 0.59857 0.0287 0.12161 0.0
C1877 C 0.60764 0.02634 0.10616 0.0
C1878 C 0.56448 0.97647 0.13026 0.0
C1879 C 0.60395 0.0485 0.12915 0.0
C1880 C 0.54623 0.01381 0.15652 0.0
C1881 C 0.55246 0.0146 0.17544 0.0
C1882 C 0.5569 0.01397 0.14147 0.0
C1883 C 0.57401 0.01455 0.14546 0.0
C1884 C 0.58057 0.01579 0.1646 0.0
C1885 C 0.56976 0.01596 0.1794 0.0
C1886 C 0.54959 0.01297 0.12128 0.0
C1887 C 0.59859 0.01613 0.16941 0.0
H1888 H 0.58447 0.97808 0.10039 0.0
H1889 H 0.61846 0.03872 0.09995 0.0
H1890 H 0.56789 0.9771 0.14573 0.0
H1891 H 0.55075 0.97563 0.1286 0.0
H1892 H 0.56299 0.96327 0.1233 0.0
H1893 H 0.61561 0.05963 0.12166 0.0
H1894 H 0.59164 0.05032 0.12749 0.0
H1895 H 0.60824 0.05073 0.14457 0.0
H1896 H 0.53292 0.01295 0.15351 0.0
H1897 H 0.57449 0.01645 0.19405 0.0
H1898 H 0.54602 -0.00074 0.11366 0.0
H1899 H 0.56057 0.02446 0.11352 0.0
H1900 H 0.53689 0.01422 0.12068 0.0
H1901 H 0.59718 0.00252 0.16394 0.0
H1902 H 0.60229 0.01825 0.18499 0.0
H1903 H 0.61033 0.02763 0.16239 0.0
C1904 C 0.96461 0.58881 0.09789 0.0
C1905 C 0.98251 0.60476 0.09687 0.0
C1906 C 0.96147 0.57537 0.11104 0.0
C1907 C 0.97651 0.5783 0.12366 0.0
C1908 C 0.99434 0.59496 0.12333 0.0
C1909 C 0.99718 0.60785 0.10976 0.0
C1910 C 0.94237 0.55761 0.11074 0.0
C1911 C 0.01062 0.59883 0.13685 0.0
C1912 C 0.96888 0.55068 0.16728 0.0
C1913 C 0.9748 0.53818 0.1613 0.0
C1914 C 0.96868 0.56346 0.15494 0.0
C1915 C 0.97422 0.56337 0.13617 0.0
C1916 C 0.97927 0.55003 0.12985 0.0
C1917 C 0.97972 0.53774 0.1426 0.0
C1918 C 0.96356 0.57769 0.1623 0.0
C1919 C 0.98494 0.54927 0.10985 0.0
H1920 H 0.95329 0.58637 0.08782 0.0
H1921 H 0.011 0.62029 0.10906 0.0
H1922 H 0.94335 0.54514 0.10569 0.0
H1923 H 0.93739 0.55524 0.12529 0.0
H1924 H 0.93179 0.55824 0.10125 0.0
H1925 H 0.02298 0.61328 0.13602 0.0
H1926 H 0.00642 0.59731 0.15172 0.0
H1927 H 0.01489 0.58829 0.13346 0.0
H1928 H 0.96523 0.55101 0.18186 0.0
H1929 H 0.98424 0.52796 0.13809 0.0
H1930 H 0.95299 0.57774 0.1523 0.0
H1931 H 0.97619 0.59216 0.1633 0.0
H1932 H 0.95792 0.57473 0.17658 0.0
H1933 H 0.97437 0.54867 0.09933 0.0
H1934 H 0.98653 0.5368 0.10661 0.0
H1935 H -0.0015 0.56235 0.10797 0.0
C1936 C 0.41434 0.41597 0.07034 0.0
C1937 C 0.41256 0.40366 0.05482 0.0
C1938 C 0.42604 0.41903 0.08657 0.0
C1939 C 0.43657 0.40987 0.08714 0.0
C1940 C 0.43497 0.39752 0.07146 0.0
C1941 C 0.42279 0.39438 0.05554 0.0
C1942 C 0.42707 0.43201 0.10316 0.0
C1943 C 0.44626 0.38783 0.07143 0.0
C1944 C 0.47825 0.43454 0.1235 0.0
C1945 C 0.4711 0.42352 0.13896 0.0
C1946 C 0.4676 0.42951 0.10603 0.0
C1947 C 0.44922 0.41339 0.10425 0.0
C1948 C 0.44227 0.40179 0.11963 0.0
C1949 C 0.4534 0.40693 0.13678 0.0
C1950 C 0.47565 0.442 0.08983 0.0
C1951 C 0.42264 0.38471 0.11845 0.0
H1952 H 0.40634 0.42305 0.06993 0.0
H1953 H 0.42155 0.38494 0.04351 0.0
H1954 H 0.42336 0.42431 0.11628 0.0
H1955 H 0.4416 0.44426 0.1058 0.0
H1956 H 0.4175 0.43753 0.10069 0.0
H1957 H 0.44352 0.37876 0.05806 0.0
H1958 H 0.46146 0.39864 0.07323 0.0
H1959 H 0.44295 0.37887 0.08361 0.0
H1960 H 0.49197 0.44737 0.12526 0.0
H1961 H 0.4478 0.39858 0.14888 0.0
H1962 H 0.46828 0.4499 0.08761 0.0
H1963 H 0.47349 0.43324 0.07641 0.0
H1964 H 0.49088 0.45245 0.09265 0.0
H1965 H 0.41233 0.38947 0.1176 0.0
H1966 H 0.41999 0.37625 0.13099 0.0
H1967 H 0.42007 0.37536 0.10538 0.0
C1968 C 0.66228 0.73807 0.40191 0.0
C1969 C 0.64994 0.71981 0.39326 0.0
C1970 C 0.65693 0.74566 0.41701 0.0
C1971 C 0.63883 0.73469 0.42368 0.0
C1972 C 0.62608 0.71649 0.41461 0.0
C1973 C 0.63179 0.70927 0.39947 0.0
C1974 C 0.6709 0.76517 0.42627 0.0
C1975 C 0.60668 0.70437 0.42135 0.0
C1976 C 0.63564 0.74589 0.47568 0.0
C1977 C 0.62805 0.75765 0.47462 0.0
C1978 C 0.63862 0.73783 0.45918 0.0
C1979 C 0.63394 0.74168 0.44115 0.0
C1980 C 0.62563 0.753 0.43996 0.0
C1981 C 0.62271 0.76082 0.45677 0.0
C1982 C 0.64732 0.72567 0.46108 0.0
C1983 C 0.62048 0.75741 0.42096 0.0
H1984 H 0.67628 0.74636 0.3971 0.0
H1985 H 0.62215 0.69517 0.3928 0.0
H1986 H 0.66453 0.7742 0.42697 0.0
H1987 H 0.67485 0.76398 0.4411 0.0
H1988 H 0.68386 0.77243 0.4185 0.0
H1989 H 0.59793 0.69127 0.41179 0.0
H1990 H 0.60777 0.70021 0.43584 0.0
H1991 H 0.59942 0.71255 0.4223 0.0
H1992 H 0.63948 0.74316 0.48951 0.0
H1993 H 0.61688 0.76996 0.45595 0.0
H1994 H 0.66127 0.73268 0.45509 0.0
H1995 H 0.63849 0.71173 0.45285 0.0
H1996 H 0.64913 0.72318 0.47613 0.0
H1997 H 0.63341 0.76623 0.4136 0.0
H1998 H 0.61282 0.76516 0.42246 0.0
H1999 H 0.61165 0.74412 0.41172 0.0
C2000 C 0.27538 0.90768 0.44818 0.0
C2001 C 0.2623 0.91266 0.44213 0.0
C2002 C 0.2713 0.89483 0.46223 0.0
C2003 C 0.25376 0.88682 0.47035 0.0
C2004 C 0.24043 0.89159 0.4641 0.0
C2005 C 0.24486 0.90442 0.4501 0.0
C2006 C 0.28581 0.89001 0.46856 0.0
C2007 C 0.22152 0.88332 0.47237 0.0
C2008 C 0.23125 0.84173 0.49585 0.0
C2009 C 0.2333 0.84906 0.51476 0.0
C2010 C 0.23911 0.85389 0.48127 0.0
C2011 C 0.24921 0.87379 0.48577 0.0
C2012 C 0.25255 0.88117 0.50502 0.0
C2013 C 0.24452 0.8687 0.5193 0.0
C2014 C 0.2353 0.84546 0.46092 0.0
C2015 C 0.26338 0.90229 0.51043 0.0
H2016 H 0.28888 0.91395 0.4421 0.0
H2017 H 0.23461 0.90809 0.44549 0.0
H2018 H 0.29016 0.89467 0.48386 0.0
H2019 H 0.27972 0.8744 0.46699 0.0
H2020 H 0.29847 0.89685 0.4603 0.0
H2021 H 0.2126 0.88822 0.46566 0.0
H2022 H 0.21393 0.86758 0.47046 0.0
H2023 H 0.22343 0.8874 0.48789 0.0
H2024 H 0.2225 0.82656 0.49226 0.0
H2025 H 0.24636 0.87436 0.53396 0.0
H2026 H 0.24821 0.85253 0.4531 0.0
H2027 H 0.22469 0.84777 0.45359 0.0
H2028 H 0.22991 0.82996 0.46005 0.0
H2029 H 0.27653 0.90933 0.50299 0.0
H2030 H 0.26694 0.90563 0.52602 0.0
H2031 H 0.25482 0.90848 0.50598 0.0
C2032 C 0.10642 0.3322 0.41242 0.0
C2033 C 0.1004 0.34264 0.40235 0.0
C2034 C 0.11701 0.33962 0.42988 0.0
C2035 C 0.12183 0.35798 0.4374 0.0
C2036 C 0.11683 0.36908 0.42678 0.0
C2037 C 0.10609 0.36124 0.40939 0.0
C2038 C 0.12209 0.32732 0.44079 0.0
C2039 C 0.12197 0.38883 0.43423 0.0
C2040 C 0.12549 0.36297 0.49115 0.0
C2041 C 0.14484 0.37138 0.49531 0.0
C2042 C 0.11793 0.35942 0.47233 0.0
C2043 C 0.13006 0.36445 0.45729 0.0
C2044 C 0.14972 0.37398 0.46143 0.0
C2045 C 0.15691 0.37734 0.48047 0.0
C2046 C 0.09688 0.34934 0.46854 0.0
C2047 C 0.16307 0.3797 0.44577 0.0
H2048 H 0.10224 0.31788 0.40705 0.0
H2049 H 0.10168 0.36951 0.40161 0.0
H2050 H 0.13726 0.33525 0.44536 0.0
H2051 H 0.11426 0.32339 0.45384 0.0
H2052 H 0.11873 0.31408 0.43226 0.0
H2053 H 0.11944 0.39656 0.42316 0.0
H2054 H 0.11346 0.38792 0.44636 0.0
H2055 H 0.13693 0.39721 0.4396 0.0
H2056 H 0.11619 0.35866 0.50267 0.0
H2057 H 0.17189 0.3838 0.48369 0.0
H2058 H 0.09168 0.33504 0.46128 0.0
H2059 H 0.09305 0.35728 0.45893 0.0
H2060 H 0.08955 0.34762 0.48183 0.0
H2061 H 0.16188 0.36682 0.43841 0.0
H2062 H 0.17788 0.38931 0.45132 0.0
H2063 H 0.15942 0.38688 0.43499 0.0
C2064 C 0.08746 0.32855 0.28767 0.0
C2065 C 0.07757 0.31483 0.30038 0.0
C2066 C 0.09299 0.32379 0.27075 0.0
C2067 C 0.08901 0.30498 0.26676 0.0
C2068 C 0.07901 0.29104 0.27957 0.0
C2069 C 0.07315 0.29609 0.29615 0.0
C2070 C 0.10324 0.33895 0.25722 0.0
C2071 C 0.07495 0.27096 0.27599 0.0
C2072 C 0.09262 0.29085 0.21568 0.0
C2073 C 0.11117 0.29499 0.21638 0.0
C2074 C 0.08497 0.29358 0.23214 0.0
C2075 C 0.09613 0.30026 0.2496 0.0
C2076 C 0.11467 0.3037 0.2504 0.0
C2077 C 0.12205 0.30121 0.23368 0.0
C2078 C 0.06526 0.29007 0.2307 0.0
C2079 C 0.12689 0.3105 0.26879 0.0
H2080 H 0.09068 0.34301 0.29085 0.0
H2081 H 0.06555 0.2855 0.30606 0.0
H2082 H 0.1177 0.34169 0.2562 0.0
H2083 H 0.09607 0.33405 0.24273 0.0
H2084 H 0.10411 0.35253 0.26182 0.0
H2085 H 0.06659 0.2617 0.2871 0.0
H2086 H 0.0672 0.26468 0.26192 0.0
H2087 H 0.08834 0.27106 0.27566 0.0
H2088 H 0.08434 0.28607 0.20216 0.0
H2089 H 0.13639 0.30426 0.23405 0.0
H2090 H 0.06566 0.30366 0.23386 0.0
H2091 H 0.05678 0.28032 0.2414 0.0
H2092 H 0.0581 0.28389 0.21634 0.0
H2093 H 0.13013 0.32501 0.27354 0.0
H2094 H 0.14033 0.31085 0.2673 0.0
H2095 H 0.11937 0.30114 0.28015 0.0
C2096 C 0.70432 0.74799 0.30421 0.0
C2097 C 0.68469 0.73655 0.30249 0.0
C2098 C 0.71377 0.76293 0.29242 0.0
C2099 C 0.7033 0.76629 0.27853 0.0
C2100 C 0.68358 0.75413 0.27613 0.0
C2101 C 0.67454 0.73952 0.28819 0.0
C2102 C 0.73479 0.77562 0.2954 0.0
C2103 C 0.67189 0.75701 0.26129 0.0
C2104 C 0.71758 0.81447 0.2617 0.0
C2105 C 0.72207 0.81259 0.24306 0.0
C2106 C 0.71285 0.80004 0.27397 0.0
C2107 C 0.71246 0.78325 0.26737 0.0
C2108 C 0.71825 0.78184 0.24901 0.0
C2109 C 0.72304 0.79659 0.23705 0.0
C2110 C 0.707 0.80221 0.29353 0.0
C2111 C 0.71803 0.7642 0.24143 0.0
H2112 H 0.71224 0.74577 0.31526 0.0
H2113 H 0.65938 0.73057 0.28662 0.0
H2114 H 0.74135 0.77759 0.28162 0.0
H2115 H 0.7383 0.78985 0.30156 0.0
H2116 H 0.74108 0.76984 0.30516 0.0
H2117 H 0.65691 0.74552 0.26038 0.0
H2118 H 0.67272 0.77076 0.26477 0.0
H2119 H 0.67742 0.7576 0.24708 0.0
H2120 H 0.71707 0.82697 0.26643 0.0
H2121 H 0.72642 0.79505 0.2226 0.0
H2122 H 0.71398 0.79819 0.30445 0.0
H2123 H 0.69163 0.79255 0.29396 0.0
H2124 H 0.71038 0.81697 0.29739 0.0
H2125 H 0.72421 0.75931 0.25232 0.0
H2126 H 0.72581 0.76655 0.22837 0.0
H2127 H 0.70329 0.75261 0.2379 0.0
C2128 C 0.24574 0.91802 0.33566 0.0
C2129 C 0.25006 0.93453 0.34687 0.0
C2130 C 0.23538 0.91327 0.31806 0.0
C2131 C 0.22915 0.92529 0.31157 0.0
C2132 C 0.23265 0.94145 0.32325 0.0
C2133 C 0.24312 0.94592 0.34076 0.0
C2134 C 0.23191 0.89588 0.30601 0.0
C2135 C 0.22611 0.95452 0.31686 0.0
C2136 C 0.22496 0.92504 0.25795 0.0
C2137 C 0.20568 0.91266 0.25372 0.0
C2138 C 0.23263 0.92983 0.2768 0.0
C2139 C 0.22073 0.92194 0.29179 0.0
C2140 C 0.20112 0.91003 0.28766 0.0
C2141 C 0.19379 0.90557 0.2686 0.0
C2142 C 0.25359 0.94275 0.2806 0.0
C2143 C 0.18802 0.90136 0.30327 0.0
H2144 H 0.25096 0.9091 0.34034 0.0
H2145 H 0.24629 0.95862 0.34944 0.0
H2146 H 0.21682 0.88689 0.30123 0.0
H2147 H 0.23985 0.90028 0.29307 0.0
H2148 H 0.23626 0.88717 0.31377 0.0
H2149 H 0.2281 0.96522 0.32844 0.0
H2150 H 0.23411 0.96212 0.30476 0.0
H2151 H 0.21107 0.94624 0.31177 0.0
H2152 H 0.2341 0.93068 0.24641 0.0
H2153 H 0.17889 0.8959 0.26529 0.0
H2154 H 0.25965 0.93478 0.28692 0.0
H2155 H 0.25673 0.95476 0.29102 0.0
H2156 H 0.2607 0.94858 0.26744 0.0
H2157 H 0.19077 0.89101 0.30995 0.0
H2158 H 0.17304 0.89391 0.29787 0.0
H2159 H 0.19053 0.91247 0.31459 0.0
C2160 C 0.67307 0.91661 0.32516 0.0
C2161 C 0.68261 0.93288 0.33789 0.0
C2162 C 0.68243 0.91278 0.31107 0.0
C2163 C 0.70191 0.92536 0.30985 0.0
C2164 C 0.71181 0.9414 0.32314 0.0
C2165 C 0.70199 0.94509 0.33692 0.0
C2166 C 0.67129 0.89563 0.29701 0.0
C2167 C 0.73262 0.95492 0.32246 0.0
C2168 C 0.72322 0.90391 0.27788 0.0
C2169 C 0.7212 0.91017 0.26037 0.0
C2170 C 0.7183 0.90988 0.29461 0.0
C2171 C 0.71129 0.92236 0.29362 0.0
C2172 C 0.71077 0.9299 0.27616 0.0
C2173 C 0.71569 0.92365 0.25973 0.0
C2174 C 0.71922 0.90169 0.313 0.0
C2175 C 0.70352 0.94333 0.27446 0.0
H2176 H 0.6581 0.90713 0.32579 0.0
H2177 H 0.70948 0.95759 0.34684 0.0
H2178 H 0.67161 0.9003 0.28247 0.0
H2179 H 0.67766 0.88661 0.29677 0.0
H2180 H 0.65642 0.88685 0.30041 0.0
H2181 H 0.73858 0.96557 0.33496 0.0
H2182 H 0.74011 0.94696 0.32191 0.0
H2183 H 0.73538 0.96256 0.30934 0.0
H2184 H 0.72744 0.89343 0.27829 0.0
H2185 H 0.7143 0.92856 0.24612 0.0
H2186 H 0.70484 0.89077 0.31625 0.0
H2187 H 0.72509 0.91287 0.325 0.0
H2188 H 0.72787 0.89494 0.31217 0.0
H2189 H 0.68817 0.93552 0.276 0.0
H2190 H 0.70617 0.94963 0.26052 0.0
H2191 H 0.71014 0.95499 0.28597 0.0
C2192 C 0.06143 0.77401 0.29448 0.0
C2193 C 0.06772 0.76131 0.29708 0.0
C2194 C 0.06926 0.7877 0.28116 0.0
C2195 C 0.08344 0.78842 0.27005 0.0
C2196 C 0.08953 0.77533 0.27237 0.0
C2197 C 0.08171 0.76206 0.28597 0.0
C2198 C 0.06265 0.80162 0.27925 0.0
C2199 C 0.10443 0.77545 0.26058 0.0
C2200 C 0.09575 0.8118 0.22358 0.0
C2201 C 0.1132 0.82802 0.22897 0.0
C2202 C 0.08532 0.79916 0.23704 0.0
C2203 C 0.09247 0.8031 0.25631 0.0
C2204 C 0.1095 0.82016 0.26198 0.0
C2205 C 0.11977 0.83233 0.24818 0.0
C2206 C 0.06734 0.78102 0.2304 0.0
C2207 C 0.11742 0.82503 0.28244 0.0
H2208 H 0.05066 0.7735 0.30311 0.0
H2209 H 0.08651 0.75217 0.28783 0.0
H2210 H 0.07453 0.81629 0.28299 0.0
H2211 H 0.05767 0.80098 0.26428 0.0
H2212 H 0.05114 0.79884 0.28857 0.0
H2213 H 0.10696 0.76376 0.26355 0.0
H2214 H 0.10026 0.77408 0.2452 0.0
H2215 H 0.11782 0.78916 0.26355 0.0
H2216 H 0.09077 0.80845 0.20867 0.0
H2217 H 0.13323 0.845 0.2523 0.0
H2218 H 0.05599 0.77866 0.23974 0.0
H2219 H 0.06951 0.76881 0.23127 0.0
H2220 H 0.06264 0.78111 0.21549 0.0
H2221 H 0.10643 0.82314 0.2921 0.0
H2222 H 0.12944 0.83985 0.28488 0.0
H2223 H 0.1223 0.81526 0.28636 0.0
C2224 C 0.24555 0.30871 0.3189 0.0
C2225 C 0.24728 0.32443 0.32972 0.0
C2226 C 0.23435 0.30168 0.30168 0.0
C2227 C 0.2245 0.31045 0.29526 0.0
C2228 C 0.22548 0.32572 0.30658 0.0
C2229 C 0.23692 0.33258 0.3236 0.0
C2230 C 0.23376 0.28545 0.28995 0.0
C2231 C 0.21503 0.33533 0.30032 0.0
C2232 C 0.21493 0.31074 0.2424 0.0
C2233 C 0.19581 0.29702 0.23959 0.0
C2234 C 0.22452 0.31478 0.26034 0.0
C2235 C 0.21468 0.305 0.27591 0.0
C2236 C 0.19542 0.29079 0.27307 0.0
C2237 C 0.18621 0.28686 0.25484 0.0
C2238 C 0.2451 0.32984 0.26267 0.0
C2239 C 0.18445 0.28019 0.28938 0.0
H2240 H 0.25348 0.3023 0.32352 0.0
H2241 H 0.238 0.34459 0.33196 0.0
H2242 H 0.21904 0.27424 0.2857 0.0
H2243 H 0.24091 0.29066 0.27668 0.0
H2244 H 0.24073 0.27904 0.29772 0.0
H2245 H 0.21583 0.34578 0.31155 0.0
H2246 H 0.22104 0.34287 0.28744 0.0
H2247 H 0.20006 0.32463 0.29646 0.0
H2248 H 0.22241 0.31838 0.2305 0.0
H2249 H 0.1714 0.27628 0.25263 0.0
H2250 H 0.25327 0.32402 0.26916 0.0
H2251 H 0.24718 0.3419 0.27244 0.0
H2252 H 0.2509 0.33537 0.24891 0.0
H2253 H 0.1916 0.27372 0.29669 0.0
H2254 H 0.1699 0.26883 0.2846 0.0
H2255 H 0.18381 0.29025 0.30001 0.0
C2256 C 0.24511 0.33881 0.43133 0.0
C2257 C 0.26444 0.34895 0.42911 0.0
C2258 C 0.23768 0.34284 0.44726 0.0
C2259 C 0.24994 0.35705 0.46152 0.0
C2260 C 0.26948 0.36738 0.45933 0.0
C2261 C 0.27648 0.36334 0.44303 0.0
C2262 C 0.21672 0.33177 0.44891 0.0
C2263 C 0.28302 0.38237 0.47441 0.0
C2264 C 0.2292 0.37716 0.49626 0.0
C2265 C 0.22613 0.36589 0.51151 0.0
C2266 C 0.23708 0.37456 0.4799 0.0
C2267 C 0.24232 0.36061 0.47902 0.0
C2268 C 0.23973 0.3496 0.49468 0.0
C2269 C 0.23148 0.35224 0.51067 0.0
C2270 C 0.2393 0.38633 0.46336 0.0
C2271 C 0.24545 0.33485 0.49446 0.0
H2272 H 0.23574 0.32776 0.42053 0.0
H2273 H 0.29145 0.37115 0.44142 0.0
H2274 H 0.21342 0.32335 0.46151 0.0
H2275 H 0.21144 0.34166 0.45105 0.0
H2276 H 0.20905 0.32193 0.43609 0.0
H2277 H 0.29777 0.38933 0.47041 0.0
H2278 H 0.27927 0.39343 0.47697 0.0
H2279 H 0.28206 0.37587 0.48804 0.0
H2280 H 0.22489 0.38759 0.4969 0.0
H2281 H 0.22919 0.34363 0.52256 0.0
H2282 H 0.23074 0.37689 0.45065 0.0
H2283 H 0.25413 0.39401 0.45965 0.0
H2284 H 0.23492 0.39685 0.46647 0.0
H2285 H 0.23704 0.32348 0.483 0.0
H2286 H 0.24348 0.32827 0.50821 0.0
H2287 H 0.26041 0.34137 0.49133 0.0
C2288 C 0.63121 0.91291 0.42822 0.0
C2289 C 0.65004 0.92725 0.42762 0.0
C2290 C 0.6259 0.89876 0.44099 0.0
C2291 C 0.63974 0.89916 0.4536 0.0
C2292 C 0.65869 0.91393 0.45343 0.0
C2293 C 0.66364 0.92773 0.44034 0.0
C2294 C 0.6056 0.88311 0.44064 0.0
C2295 C 0.67381 0.91497 0.46686 0.0
C2296 C 0.62573 0.87151 0.49755 0.0
C2297 C 0.62756 0.85594 0.49199 0.0
C2298 C 0.62931 0.88555 0.48507 0.0
C2299 C 0.6346 0.8838 0.46655 0.0
C2300 C 0.63585 0.86775 0.46067 0.0
C2301 C 0.63246 0.85407 0.47354 0.0
C2302 C 0.62807 0.90258 0.49192 0.0
C2303 C 0.6412 0.86525 0.44094 0.0
H2304 H 0.62066 0.91244 0.41835 0.0
H2305 H 0.6782 0.93886 0.44 0.0
H2306 H 0.60431 0.86923 0.43665 0.0
H2307 H 0.60035 0.88233 0.45502 0.0
H2308 H 0.59647 0.8852 0.4304 0.0
H2309 H 0.68769 0.9279 0.46558 0.0
H2310 H 0.66998 0.91487 0.48179 0.0
H2311 H 0.67512 0.90231 0.46386 0.0
H2312 H 0.62214 0.87303 0.51192 0.0
H2313 H 0.63373 0.84194 0.46922 0.0
H2314 H 0.61856 0.90438 0.48198 0.0
H2315 H 0.64212 0.91563 0.49218 0.0
H2316 H 0.62292 0.90136 0.50641 0.0
H2317 H 0.63185 0.86627 0.43006 0.0
H2318 H 0.64038 0.8514 0.43822 0.0
H2319 H 0.65573 0.87679 0.43905 0.0
C2320 C 0.08502 0.75687 0.4098 0.0
C2321 C 0.08331 0.74477 0.39408 0.0
C2322 C 0.09669 0.75972 0.426 0.0
C2323 C 0.10726 0.7506 0.42635 0.0
C2324 C 0.1058 0.73856 0.41044 0.0
C2325 C 0.09366 0.73561 0.39456 0.0
C2326 C 0.09756 0.77238 0.44283 0.0
C2327 C 0.11715 0.72892 0.41016 0.0
C2328 C 0.14868 0.77405 0.46314 0.0
C2329 C 0.14138 0.76247 0.47819 0.0
C2330 C 0.13812 0.76969 0.44569 0.0
C2331 C 0.11968 0.75367 0.44352 0.0
C2332 C 0.11255 0.74157 0.4585 0.0
C2333 C 0.12358 0.74604 0.47562 0.0
C2334 C 0.14638 0.78271 0.42992 0.0
C2335 C 0.09284 0.72457 0.45691 0.0
H2336 H 0.07694 0.76386 0.40957 0.0
H2337 H 0.09248 0.72634 0.38239 0.0
H2338 H 0.09362 0.76435 0.45573 0.0
H2339 H 0.11211 0.78453 0.44579 0.0
H2340 H 0.0881 0.77803 0.44046 0.0
H2341 H 0.11472 0.72032 0.39653 0.0
H2342 H 0.13232 0.73972 0.41243 0.0
H2343 H 0.11355 0.7195 0.42197 0.0
H2344 H 0.16247 0.78676 0.4652 0.0
H2345 H 0.11786 0.73726 0.48742 0.0
H2346 H 0.139 0.79064 0.42796 0.0
H2347 H 0.1444 0.77434 0.41627 0.0
H2348 H 0.16158 0.79314 0.43301 0.0
H2349 H 0.08263 0.72946 0.45606 0.0
H2350 H 0.08993 0.71584 0.46926 0.0
H2351 H 0.09041 0.71547 0.44369 0.0
C2352 C 0.3296 0.07062 0.74109 0.0
C2353 C 0.3172 0.05658 0.7271 0.0
C2354 C 0.32301 0.07793 0.75522 0.0
C2355 C 0.30358 0.07135 0.7551 0.0
C2356 C 0.29103 0.05746 0.74077 0.0
C2357 C 0.29797 0.05007 0.72704 0.0
C2358 C 0.3368 0.09248 0.77048 0.0
C2359 C 0.27029 0.05041 0.73996 0.0
C2360 C 0.28639 0.07781 0.80243 0.0
C2361 C 0.2873 0.0952 0.80095 0.0
C2362 C 0.29109 0.06955 0.78736 0.0
C2363 C 0.29649 0.07878 0.7703 0.0
C2364 C 0.29651 0.09587 0.76842 0.0
C2365 C 0.29213 0.10402 0.78389 0.0
C2366 C 0.29124 0.05152 0.79008 0.0
C2367 C 0.30183 0.10591 0.75033 0.0
H2368 H 0.34447 0.07561 0.74124 0.0
H2369 H 0.28837 0.03931 0.71615 0.0
H2370 H 0.33638 0.10575 0.77031 0.0
H2371 H 0.33287 0.08709 0.78471 0.0
H2372 H 0.35142 0.09597 0.76863 0.0
H2373 H 0.26253 0.04019 0.72742 0.0
H2374 H 0.26425 0.04336 0.75305 0.0
H2375 H 0.26801 0.06256 0.7394 0.0
H2376 H 0.28293 0.07117 0.81577 0.0
H2377 H 0.29283 0.11748 0.78282 0.0
H2378 H 0.30581 0.05441 0.78975 0.0
H2379 H 0.28274 0.04059 0.7783 0.0
H2380 H 0.28572 0.04562 0.80381 0.0
H2381 H 0.31695 0.11163 0.74853 0.0
H2382 H 0.29916 0.11786 0.7504 0.0
H2383 H 0.29386 0.0958 0.7378 0.0
C2384 C 0.94317 0.23223 0.76989 0.0
C2385 C 0.92978 0.23612 0.76223 0.0
C2386 C 0.93867 0.21937 0.78401 0.0
C2387 C 0.92041 0.21033 0.79064 0.0
C2388 C 0.90672 0.21376 0.78251 0.0
C2389 C 0.91154 0.22653 0.76842 0.0
C2390 C 0.95354 0.21586 0.7922 0.0
C2391 C 0.88706 0.20439 0.78915 0.0
C2392 C 0.89786 0.16661 0.81823 0.0
C2393 C 0.89834 0.17464 0.83644 0.0
C2394 C 0.90647 0.17816 0.80337 0.0
C2395 C 0.91561 0.19814 0.80683 0.0
C2396 C 0.91742 0.2063 0.82555 0.0
C2397 C 0.90879 0.19444 0.84013 0.0
C2398 C 0.90445 0.16892 0.78367 0.0
C2399 C 0.92713 0.22755 0.82988 0.0
H2400 H 0.95727 0.2395 0.76514 0.0
H2401 H 0.90102 0.22928 0.76253 0.0
H2402 H 0.95758 0.222 0.80719 0.0
H2403 H 0.94802 0.20039 0.7923 0.0
H2404 H 0.96632 0.22229 0.7841 0.0
H2405 H 0.8779 0.20808 0.78089 0.0
H2406 H 0.88053 0.18872 0.78784 0.0
H2407 H 0.88757 0.20883 0.8044 0.0
H2408 H 0.88979 0.15131 0.81526 0.0
H2409 H 0.90955 0.20069 0.85431 0.0
H2410 H 0.9178 0.17643 0.7766 0.0
H2411 H 0.89362 0.16975 0.77484 0.0
H2412 H 0.90016 0.15373 0.78399 0.0
H2413 H 0.94084 0.23478 0.82345 0.0
H2414 H 0.92947 0.23165 0.84544 0.0
H2415 H 0.91839 0.23282 0.82357 0.0
C2416 C 0.78061 0.68725 0.73232 0.0
C2417 C 0.76238 0.68412 0.73104 0.0
C2418 C 0.79162 0.69406 0.74963 0.0
C2419 C 0.7838 0.69684 0.76614 0.0
C2420 C 0.76569 0.69454 0.76464 0.0
C2421 C 0.75532 0.68853 0.74697 0.0
C2422 C 0.8112 0.69721 0.75046 0.0
C2423 C 0.75659 0.69679 0.78197 0.0
C2424 C 0.79792 0.68504 0.81267 0.0
C2425 C 0.80807 0.7029 0.82293 0.0
C2426 C 0.79009 0.68298 0.79419 0.0
C2427 C 0.79321 0.69928 0.78525 0.0
C2428 C 0.80447 0.71749 0.79496 0.0
C2429 C 0.8115 0.71908 0.81382 0.0
C2430 C 0.77794 0.66322 0.78447 0.0
C2431 C 0.80873 0.73525 0.7856 0.0
H2432 H 0.78608 0.68396 0.71989 0.0
H2433 H 0.74113 0.68594 0.74594 0.0
H2434 H 0.82106 0.71046 0.75934 0.0
H2435 H 0.81123 0.68528 0.75708 0.0
H2436 H 0.81646 0.69809 0.73605 0.0
H2437 H 0.74312 0.69602 0.77817 0.0
H2438 H 0.7538 0.68536 0.79142 0.0
H2439 H 0.7661 0.71054 0.79024 0.0
H2440 H 0.79578 0.67249 0.81918 0.0
H2441 H 0.81925 0.73297 0.82153 0.0
H2442 H 0.78403 0.66179 0.77119 0.0
H2443 H 0.76376 0.66067 0.78046 0.0
H2444 H 0.77642 0.652 0.79366 0.0
H2445 H 0.81305 0.73475 0.77096 0.0
H2446 H 0.82 0.74829 0.79382 0.0
H2447 H 0.79593 0.73627 0.78441 0.0
C2448 C 0.7373 0.6361 0.62628 0.0
C2449 C 0.7401 0.65429 0.63027 0.0
C2450 C 0.74403 0.6318 0.60994 0.0
C2451 C 0.75335 0.64592 0.59712 0.0
C2452 C 0.75589 0.66421 0.60092 0.0
C2453 C 0.74944 0.66825 0.6176 0.0
C2454 C 0.74147 0.61228 0.60657 0.0
C2455 C 0.76544 0.67952 0.58738 0.0
C2456 C 0.78734 0.64363 0.56421 0.0
C2457 C 0.77625 0.63622 0.54706 0.0
C2458 C 0.77986 0.64628 0.58079 0.0
C2459 C 0.76097 0.64182 0.57998 0.0
C2460 C 0.74966 0.63413 0.56266 0.0
C2461 C 0.75742 0.63121 0.54638 0.0
C2462 C 0.79222 0.65409 0.59908 0.0
C2463 C 0.72957 0.62951 0.56121 0.0
H2464 H 0.73015 0.62531 0.63613 0.0
H2465 H 0.75146 0.68228 0.62059 0.0
H2466 H 0.73358 0.60543 0.59266 0.0
H2467 H 0.75537 0.6135 0.60595 0.0
H2468 H 0.73386 0.6029 0.6179 0.0
H2469 H 0.76548 0.69269 0.59197 0.0
H2470 H 0.78017 0.68311 0.58631 0.0
H2471 H 0.75828 0.67431 0.5729 0.0
H2472 H 0.80188 0.64732 0.56462 0.0
H2473 H 0.74896 0.62552 0.533 0.0
H2474 H 0.78534 0.64464 0.61058 0.0
H2475 H 0.79435 0.66822 0.60365 0.0
H2476 H 0.80618 0.65561 0.59755 0.0
H2477 H 0.72145 0.61942 0.57181 0.0
H2478 H 0.72257 0.62323 0.54681 0.0
H2479 H 0.72913 0.64263 0.56452 0.0
C2480 C 0.3715 0.08653 0.63934 0.0
C2481 C 0.35307 0.07134 0.63541 0.0
C2482 C 0.37984 0.1009 0.62673 0.0
C2483 C 0.36959 0.0997 0.6097 0.0
C2484 C 0.35148 0.08364 0.60512 0.0
C2485 C 0.34336 0.0698 0.61816 0.0
C2486 C 0.39906 0.11792 0.63222 0.0
C2487 C 0.34024 0.08155 0.58691 0.0
C2488 C 0.37437 0.14262 0.58724 0.0
C2489 C 0.38393 0.14307 0.57115 0.0
C2490 C 0.37081 0.12938 0.60065 0.0
C2491 C 0.37662 0.11601 0.59762 0.0
C2492 C 0.38709 0.11703 0.58182 0.0
C2493 C 0.39074 0.13069 0.56877 0.0
C2494 C 0.35987 0.12901 0.61745 0.0
C2495 C 0.39335 0.10293 0.57799 0.0
H2496 H 0.37898 0.08776 0.65274 0.0
H2497 H 0.32917 0.05793 0.61504 0.0
H2498 H 0.40806 0.12145 0.62003 0.0
H2499 H 0.39773 0.13042 0.63614 0.0
H2500 H 0.40615 0.11556 0.64449 0.0
H2501 H 0.32738 0.06727 0.58449 0.0
H2502 H 0.33599 0.09235 0.58751 0.0
H2503 H 0.34887 0.08402 0.57453 0.0
H2504 H 0.36921 0.15232 0.58903 0.0
H2505 H 0.39805 0.13106 0.5562 0.0
H2506 H 0.36683 0.12826 0.63082 0.0
H2507 H 0.34563 0.11616 0.61568 0.0
H2508 H 0.35839 0.14171 0.61897 0.0
H2509 H 0.39982 0.10119 0.59116 0.0
H2510 H 0.40356 0.10726 0.56681 0.0
H2511 H 0.38096 0.08885 0.5732 0.0
C2512 C 0.91617 0.27149 0.66204 0.0
C2513 C 0.92395 0.26099 0.66867 0.0
C2514 C 0.90589 0.26636 0.64436 0.0
C2515 C 0.9033 0.25035 0.63307 0.0
C2516 C 0.91051 0.23928 0.63999 0.0
C2517 C 0.92078 0.24475 0.65772 0.0
C2518 C 0.89841 0.27851 0.63746 0.0
C2519 C 0.90796 0.22205 0.62837 0.0
C2520 C 0.86689 0.22942 0.591 0.0
C2521 C 0.87818 0.23707 0.57578 0.0
C2522 C 0.87482 0.23372 0.60982 0.0
C2523 C 0.89443 0.24608 0.6134 0.0
C2524 C 0.90578 0.25421 0.59809 0.0
C2525 C 0.89752 0.24956 0.57946 0.0
C2526 C 0.86231 0.22473 0.6258 0.0
C2527 C 0.92671 0.26764 0.60134 0.0
H2528 H 0.91848 0.28401 0.67047 0.0
H2529 H 0.92667 0.23653 0.66281 0.0
H2530 H 0.90577 0.28562 0.62486 0.0
H2531 H 0.88327 0.26956 0.63292 0.0
H2532 H 0.90034 0.28958 0.64856 0.0
H2533 H 0.91313 0.21414 0.63639 0.0
H2534 H 0.89293 0.21229 0.62378 0.0
H2535 H 0.91569 0.22652 0.6153 0.0
H2536 H 0.85195 0.21964 0.58813 0.0
H2537 H 0.90621 0.25566 0.5677 0.0
H2538 H 0.86402 0.23587 0.63666 0.0
H2539 H 0.86646 0.21558 0.63296 0.0
H2540 H 0.84727 0.21597 0.62069 0.0
H2541 H 0.92971 0.27987 0.61138 0.0
H2542 H 0.93344 0.27314 0.58793 0.0
H2543 H 0.9333 0.26027 0.60791 0.0
C2544 C 0.33899 0.25812 0.64812 0.0
C2545 C 0.34864 0.27208 0.66319 0.0
C2546 C 0.34868 0.25367 0.63493 0.0
C2547 C 0.3685 0.26311 0.6371 0.0
C2548 C 0.37837 0.27727 0.65225 0.0
C2549 C 0.36831 0.28175 0.66503 0.0
C2550 C 0.33764 0.23875 0.61873 0.0
C2551 C 0.39948 0.28739 0.65517 0.0
C2552 C 0.38644 0.23436 0.61186 0.0
C2553 C 0.39094 0.24272 0.59454 0.0
C2554 C 0.38054 0.24185 0.62655 0.0
C2555 C 0.37865 0.25774 0.62356 0.0
C2556 C 0.38425 0.26687 0.60649 0.0
C2557 C 0.39048 0.25931 0.59221 0.0
C2558 C 0.37509 0.23196 0.64471 0.0
C2559 C 0.38216 0.28363 0.60259 0.0
H2560 H 0.3238 0.25074 0.64653 0.0
H2561 H 0.37582 0.29248 0.67674 0.0
H2562 H 0.3427 0.24467 0.60491 0.0
H2563 H 0.3398 0.22656 0.61986 0.0
H2564 H 0.32236 0.23337 0.61858 0.0
H2565 H 0.40507 0.29829 0.66744 0.0
H2566 H 0.40386 0.27694 0.65764 0.0
H2567 H 0.40596 0.29437 0.64218 0.0
H2568 H 0.38679 0.2215 0.61358 0.0
H2569 H 0.39368 0.26557 0.57866 0.0
H2570 H 0.35959 0.22407 0.64506 0.0
H2571 H 0.38097 0.24246 0.65729 0.0
H2572 H 0.37999 0.22173 0.64594 0.0
H2573 H 0.36706 0.27869 0.5999 0.0
H2574 H 0.38959 0.2907 0.58998 0.0
H2575 H 0.38762 0.29423 0.61507 0.0
C2576 C 0.73446 0.09765 0.61534 0.0
C2577 C 0.73796 0.08279 0.61713 0.0
C2578 C 0.74351 0.11116 0.60214 0.0
C2579 C 0.75614 0.10958 0.59031 0.0
C2580 C 0.75945 0.0944 0.59181 0.0
C2581 C 0.75041 0.08125 0.60531 0.0
C2582 C 0.73982 0.1273 0.60109 0.0
C2583 C 0.77266 0.09213 0.57925 0.0
C2584 C 0.76868 0.13487 0.54483 0.0
C2585 C 0.7867 0.15028 0.55013 0.0
C2586 C 0.75841 0.12162 0.55786 0.0
C2587 C 0.7663 0.12405 0.57666 0.0
C2588 C 0.78426 0.13996 0.58222 0.0
C2589 C 0.79432 0.15281 0.56882 0.0
C2590 C 0.73939 0.10471 0.55136 0.0
C2591 C 0.79301 0.1432 0.60222 0.0
H2592 H 0.72489 0.09893 0.62451 0.0
H2593 H 0.75307 0.06972 0.60658 0.0
H2594 H 0.75309 0.14106 0.60447 0.0
H2595 H 0.73463 0.12742 0.58642 0.0
H2596 H 0.72938 0.12632 0.61109 0.0
H2597 H 0.77313 0.07912 0.5817 0.0
H2598 H 0.76831 0.09148 0.56405 0.0
H2599 H 0.78705 0.10463 0.58196 0.0
H2600 H 0.76289 0.13286 0.5303 0.0
H2601 H 0.80822 0.16485 0.57291 0.0
H2602 H 0.72865 0.1039 0.56082 0.0
H2603 H 0.73972 0.09143 0.5523 0.0
H2604 H 0.73497 0.10527 0.53648 0.0
H2605 H 0.78333 0.14316 0.6127 0.0
H2606 H 0.80659 0.15685 0.60454 0.0
H2607 H 0.79546 0.13147 0.60516 0.0
C2608 C 0.90135 0.67155 0.65302 0.0
C2609 C 0.91117 0.66293 0.65941 0.0
C2610 C 0.88996 0.66479 0.63596 0.0
C2611 C 0.88852 0.64915 0.6249 0.0
C2612 C 0.89784 0.63995 0.63158 0.0
C2613 C 0.90898 0.64689 0.64883 0.0
C2614 C 0.88008 0.67486 0.6294 0.0
C2615 C 0.89675 0.62334 0.62011 0.0
C2616 C 0.85025 0.62598 0.58448 0.0
C2617 C 0.86008 0.63574 0.56914 0.0
C2618 C 0.85937 0.6299 0.60275 0.0
C2619 C 0.87875 0.6437 0.60554 0.0
C2620 C 0.88881 0.65306 0.58989 0.0
C2621 C 0.87932 0.64902 0.57191 0.0
C2622 C 0.84818 0.61975 0.61913 0.0
C2623 C 0.90953 0.66768 0.5922 0.0
H2624 H 0.90279 0.68383 0.6612 0.0
H2625 H 0.9165 0.64013 0.65366 0.0
H2626 H 0.88626 0.68211 0.61644 0.0
H2627 H 0.86501 0.66448 0.62558 0.0
H2628 H 0.88121 0.68562 0.64045 0.0
H2629 H 0.90338 0.61669 0.62806 0.0
H2630 H 0.88192 0.61238 0.61593 0.0
H2631 H 0.90395 0.62819 0.6068 0.0
H2632 H 0.83535 0.61573 0.58229 0.0
H2633 H 0.88696 0.65635 0.55995 0.0
H2634 H 0.84785 0.63015 0.62956 0.0
H2635 H 0.85496 0.61305 0.62668 0.0
H2636 H 0.83352 0.60863 0.61439 0.0
H2637 H 0.91195 0.67999 0.60176 0.0
H2638 H 0.91546 0.67289 0.5784 0.0
H2639 H 0.91733 0.66157 0.5989 0.0
C2640 C 0.94194 0.70331 0.77382 0.0
C2641 C 0.92926 0.68955 0.75977 0.0
C2642 C 0.93559 0.70763 0.79047 0.0
C2643 C 0.9161 0.69823 0.79288 0.0
C2644 C 0.90322 0.68484 0.77839 0.0
C2645 C 0.90997 0.68052 0.7621 0.0
C2646 C 0.94974 0.72174 0.80576 0.0
C2647 C 0.8823 0.67478 0.78025 0.0
C2648 C 0.89694 0.69087 0.84167 0.0
C2649 C 0.89194 0.70473 0.84352 0.0
C2650 C 0.90568 0.68924 0.82564 0.0
C2651 C 0.90906 0.70148 0.81094 0.0
C2652 C 0.90446 0.71585 0.813 0.0
C2653 C 0.89608 0.71742 0.82941 0.0
C2654 C 0.91072 0.67398 0.82416 0.0
C2655 C 0.90756 0.72895 0.79749 0.0
H2656 H 0.95688 0.71027 0.77209 0.0
H2657 H 0.90012 0.66999 0.75118 0.0
H2658 H 0.94652 0.73301 0.80955 0.0
H2659 H 0.9489 0.71446 0.81882 0.0
H2660 H 0.96433 0.72853 0.80129 0.0
H2661 H 0.87416 0.66582 0.76712 0.0
H2662 H 0.87858 0.66558 0.79227 0.0
H2663 H 0.87794 0.68528 0.78347 0.0
H2664 H 0.89376 0.68115 0.8527 0.0
H2665 H 0.89203 0.72803 0.83087 0.0
H2666 H 0.92553 0.68014 0.82063 0.0
H2667 H 0.90181 0.6631 0.81248 0.0
H2668 H 0.90876 0.66683 0.83755 0.0
H2669 H 0.92224 0.73576 0.7934 0.0
H2670 H 0.90449 0.74022 0.80188 0.0
H2671 H 0.89833 0.7206 0.78463 0.0
C2672 C 0.32487 0.25282 0.75929 0.0
C2673 C 0.31342 0.25976 0.75324 0.0
C2674 C 0.31919 0.23946 0.77291 0.0
C2675 C 0.30174 0.23308 0.78087 0.0
C2676 C 0.29005 0.23996 0.77479 0.0
C2677 C 0.29599 0.25315 0.76092 0.0
C2678 C 0.33196 0.2323 0.77889 0.0
C2679 C 0.27146 0.23362 0.78315 0.0
C2680 C 0.28317 0.18747 0.80548 0.0
C2681 C 0.29025 0.19458 0.82429 0.0
C2682 C 0.28611 0.19983 0.79123 0.0
C2683 C 0.29617 0.21969 0.79605 0.0
C2684 C 0.30241 0.22685 0.81524 0.0
C2685 C 0.29947 0.21419 0.82912 0.0
C2686 C 0.27937 0.1917 0.7709 0.0
C2687 C 0.31296 0.24791 0.82098 0.0
H2688 H 0.3383 0.25778 0.7533 0.0
H2689 H 0.2871 0.25851 0.7563 0.0
H2690 H 0.33641 0.23632 0.79426 0.0
H2691 H 0.32433 0.21656 0.77684 0.0
H2692 H 0.3447 0.23809 0.77074 0.0
H2693 H 0.26381 0.23994 0.77652 0.0
H2694 H 0.26247 0.21793 0.78127 0.0
H2695 H 0.27375 0.23773 0.79868 0.0
H2696 H 0.27614 0.1723 0.80175 0.0
H2697 H 0.30476 0.21964 0.84374 0.0
H2698 H 0.29163 0.19555 0.76238 0.0
H2699 H 0.27147 0.19781 0.76444 0.0
H2700 H 0.27026 0.17598 0.7698 0.0
H2701 H 0.32687 0.25474 0.81491 0.0
H2702 H 0.31517 0.25102 0.83669 0.0
H2703 H 0.30526 0.25453 0.81522 0.0
C2704 C 0.75396 0.05359 0.7221 0.0
C2705 C 0.75746 0.06938 0.71227 0.0
C2706 C 0.76425 0.05584 0.73927 0.0
C2707 C 0.77844 0.07427 0.74662 0.0
C2708 C 0.78291 0.09005 0.73605 0.0
C2709 C 0.77231 0.08743 0.71906 0.0
C2710 C 0.75907 0.03867 0.75014 0.0
C2711 C 0.79809 0.10991 0.74327 0.0
C2712 C 0.78721 0.08677 0.79983 0.0
C2713 C 0.80431 0.08765 0.80359 0.0
C2714 C 0.77834 0.08171 0.78147 0.0
C2715 C 0.78685 0.07753 0.76642 0.0
C2716 C 0.80382 0.07776 0.77023 0.0
C2717 C 0.81234 0.08275 0.78886 0.0
C2718 C 0.76014 0.08142 0.7781 0.0
C2719 C 0.8133 0.07344 0.75453 0.0
H2720 H 0.74254 0.03959 0.71693 0.0
H2721 H 0.77528 0.09967 0.71141 0.0
H2722 H 0.77183 0.03869 0.75536 0.0
H2723 H 0.75167 0.03912 0.76278 0.0
H2724 H 0.74975 0.02517 0.74132 0.0
H2725 H 0.80137 0.12024 0.73234 0.0
H2726 H 0.7935 0.11468 0.7559 0.0
H2727 H 0.81113 0.11016 0.74782 0.0
H2728 H 0.78082 0.09021 0.81131 0.0
H2729 H 0.82557 0.08343 0.7918 0.0
H2730 H 0.74925 0.06757 0.77087 0.0
H2731 H 0.76222 0.0926 0.76861 0.0
H2732 H 0.75482 0.08388 0.79154 0.0
H2733 H 0.80318 0.0599 0.74623 0.0
H2734 H 0.82541 0.07244 0.76011 0.0
H2735 H 0.8184 0.0848 0.74455 0.0
C2736 C 0.03521 0.32268 0.05747 0.0
C2737 C 0.0432 0.33841 0.04652 0.0
C2738 C 0.04638 0.31713 0.06725 0.0
C2739 C 0.06604 0.32749 0.066 0.0
C2740 C 0.0742 0.34314 0.05464 0.0
C2741 C 0.06267 0.34846 0.04506 0.0
C2742 C 0.03715 0.30039 0.07924 0.0
C2743 C 0.09512 0.35445 0.05287 0.0
C2744 C 0.09585 0.32485 0.1064 0.0
C2745 C 0.09974 0.31128 0.09861 0.0
C2746 C 0.08505 0.33039 0.09587 0.0
C2747 C 0.07805 0.32222 0.07705 0.0
C2748 C 0.08201 0.30857 0.06906 0.0
C2749 C 0.09276 0.30322 0.07996 0.0
C2750 C 0.08098 0.34485 0.10495 0.0
C2751 C 0.07487 0.29962 0.04902 0.0
H2752 H 0.02017 0.31481 0.05868 0.0
H2753 H 0.06893 0.3606 0.0366 0.0
H2754 H 0.04077 0.2896 0.07464 0.0
H2755 H 0.04245 0.30509 0.09436 0.0
H2756 H 0.02162 0.29355 0.07834 0.0
H2757 H 0.09918 0.36571 0.04286 0.0
H2758 H 0.10244 0.36121 0.06703 0.0
H2759 H 0.10015 0.34489 0.04787 0.0
H2760 H 0.1011 0.33101 0.12085 0.0
H2761 H 0.096 0.29296 0.07377 0.0
H2762 H 0.06562 0.3385 0.1056 0.0
H2763 H 0.086 0.35715 0.09618 0.0
H2764 H 0.08775 0.35009 0.11959 0.0
H2765 H 0.05931 0.29185 0.04774 0.0
H2766 H 0.07955 0.28956 0.04476 0.0
H2767 H 0.07984 0.3108 0.03884 0.0
C2768 C 0.6604 0.68707 0.10211 0.0
C2769 C 0.64137 0.68054 0.09755 0.0
C2770 C 0.67229 0.70504 0.11161 0.0
C2771 C 0.66501 0.71681 0.11655 0.0
C2772 C 0.64577 0.71021 0.11229 0.0
C2773 C 0.63416 0.69211 0.10291 0.0
C2774 C 0.6927 0.71157 0.11608 0.0
C2775 C 0.63752 0.72242 0.11727 0.0
C2776 C 0.68945 0.75843 0.15395 0.0
C2777 C 0.6976 0.7738 0.14259 0.0
C2778 C 0.67951 0.73969 0.1457 0.0
C2779 C 0.67755 0.73632 0.12562 0.0
C2780 C 0.6865 0.75177 0.11414 0.0
C2781 C 0.69647 0.77035 0.12278 0.0
C2782 C 0.67038 0.72356 0.15841 0.0
C2783 C 0.68467 0.74876 0.09268 0.0
H2784 H 0.66609 0.67818 0.09811 0.0
H2785 H 0.6195 0.68721 0.09943 0.0
H2786 H 0.70166 0.72417 0.10826 0.0
H2787 H 0.69655 0.71594 0.13149 0.0
H2788 H 0.69595 0.70033 0.11214 0.0
H2789 H 0.62221 0.71503 0.11333 0.0
H2790 H 0.63993 0.72666 0.13278 0.0
H2791 H 0.6446 0.73564 0.1098 0.0
H2792 H 0.69043 0.76112 0.16929 0.0
H2793 H 0.70253 0.78223 0.11395 0.0
H2794 H 0.67387 0.71253 0.15446 0.0
H2795 H 0.6549 0.71676 0.15649 0.0
H2796 H 0.67479 0.72843 0.1737 0.0
H2797 H 0.68859 0.73822 0.08798 0.0
H2798 H 0.69361 0.76214 0.08588 0.0
H2799 H 0.66985 0.74297 0.08746 0.0
C2800 C 0.32564 0.96082 0.05465 0.0
C2801 C 0.32993 0.94935 0.04305 0.0
C2802 C 0.30924 0.95292 0.06439 0.0
C2803 C 0.29663 0.93307 0.06222 0.0
C2804 C 0.30083 0.92136 0.05052 0.0
C2805 C 0.31759 0.92964 0.04119 0.0
C2806 C 0.30545 0.96585 0.07705 0.0
C2807 C 0.28754 0.90016 0.0477 0.0
C2808 C 0.2631 0.91218 0.10106 0.0
C2809 C 0.24705 0.91151 0.09317 0.0
C2810 C 0.27925 0.91884 0.09097 0.0
C2811 C 0.27919 0.9247 0.07246 0.0
C2812 C 0.26286 0.92368 0.06428 0.0
C2813 C 0.24699 0.91726 0.07485 0.0
C2814 C 0.29652 0.92012 0.10034 0.0
C2815 C 0.26224 0.92961 0.04449 0.0
H2816 H 0.33522 0.97606 0.05627 0.0
H2817 H 0.32082 0.92076 0.03214 0.0
H2818 H 0.29216 0.9648 0.07194 0.0
H2819 H 0.30375 0.96135 0.09178 0.0
H2820 H 0.3169 0.98095 0.07748 0.0
H2821 H 0.29273 0.89309 0.03792 0.0
H2822 H 0.28545 0.89386 0.06159 0.0
H2823 H 0.27361 0.89706 0.04182 0.0
H2824 H 0.26315 0.90789 0.11534 0.0
H2825 H 0.23448 0.91657 0.06874 0.0
H2826 H 0.30812 0.93516 0.10206 0.0
H2827 H 0.30128 0.9122 0.09121 0.0
H2828 H 0.29402 0.91437 0.11455 0.0
H2829 H 0.27241 0.94502 0.04411 0.0
H2830 H 0.24808 0.92673 0.03972 0.0
H2831 H 0.26643 0.92199 0.0342 0.0
C2832 C 0.33599 0.02468 0.99092 0.0
C2833 C 0.35369 0.03403 0.0009 0.0
C2834 C 0.32811 0.03489 0.98388 0.0
C2835 C 0.33816 0.05492 0.98693 0.0
C2836 C 0.35554 0.06437 0.99792 0.0
C2837 C 0.36314 0.05379 0.00477 0.0
C2838 C 0.30954 0.02429 0.97222 0.0
C2839 C 0.36658 0.08573 0.00155 0.0
C2840 C 0.33046 0.08072 0.94804 0.0
C2841 C 0.31818 0.08569 0.95605 0.0
C2842 C 0.33727 0.07101 0.95812 0.0
C2843 C 0.33157 0.06599 0.97666 0.0
C2844 C 0.31916 0.07092 0.98488 0.0
C2845 C 0.31257 0.08072 0.97443 0.0
C2846 C 0.35038 0.06589 0.9488 0.0
C2847 C 0.31281 0.06575 0.00461 0.0
H2848 H 0.32851 0.00938 0.98803 0.0
H2849 H 0.37676 0.06107 0.0126 0.0
H2850 H 0.2999 0.02894 0.97722 0.0
H2851 H 0.31179 0.02753 0.95712 0.0
H2852 H 0.30261 0.00867 0.97286 0.0
H2853 H 0.37861 0.09068 0.01224 0.0
H2854 H 0.37208 0.09222 0.98806 0.0
H2855 H 0.35742 0.09098 0.00658 0.0
H2856 H 0.33455 0.0842 0.93369 0.0
H2857 H 0.30319 0.08466 0.98071 0.0
H2858 H 0.34389 0.05023 0.94728 0.0
H2859 H 0.36364 0.07179 0.95785 0.0
H2860 H 0.35383 0.0713 0.93449 0.0
H2861 H 0.30511 0.05009 0.00507 0.0
H2862 H 0.30353 0.07108 0.00915 0.0
H2863 H 0.32515 0.07169 0.01503 0.0
C2864 C 0.94087 0.29213 0.97445 0.0
C2865 C 0.95801 0.29975 0.98523 0.0
C2866 C 0.93219 0.27385 0.96516 0.0
C2867 C 0.94074 0.2628 0.96689 0.0
C2868 C 0.95828 0.27057 0.97733 0.0
C2869 C 0.96678 0.28902 0.98629 0.0
C2870 C 0.91358 0.26614 0.95394 0.0
C2871 C 0.96771 0.25915 0.97964 0.0
C2872 C 0.90572 0.20999 0.96151 0.0
C2873 C 0.90728 0.2053 0.94258 0.0
C2874 C 0.9173 0.22848 0.96992 0.0
C2875 C 0.93051 0.24266 0.95897 0.0
C2876 C 0.93268 0.23777 0.94004 0.0
C2877 C 0.92106 0.21902 0.93208 0.0
C2878 C 0.91475 0.23302 0.99024 0.0
C2879 C 0.94648 0.25254 0.92789 0.0
H2880 H 0.93411 0.3004 0.9734 0.0
H2881 H 0.98003 0.29481 0.9946 0.0
H2882 H 0.91415 0.2607 0.93939 0.0
H2883 H 0.90244 0.25404 0.96093 0.0
H2884 H 0.90953 0.27703 0.95277 0.0
H2885 H 0.98197 0.26774 0.98694 0.0
H2886 H 0.95908 0.24694 0.98808 0.0
H2887 H 0.96882 0.25326 0.96556 0.0
H2888 H 0.89503 0.19924 0.96957 0.0
H2889 H 0.92208 0.21531 0.91736 0.0
H2890 H 0.9088 0.24243 0.99048 0.0
H2891 H 0.92849 0.24075 -0.00138 0.0
H2892 H 0.90521 0.22004 0.99733 0.0
H2893 H 0.94179 0.26261 0.92467 0.0
H2894 H 0.94783 0.24611 0.91423 0.0
H2895 H 0.96052 0.2609 0.93564 0.0
C2896 C 0.69181 0.63437 0.03723 0.0
C2897 C 0.68118 0.64296 0.03409 0.0
C2898 C 0.70875 0.64054 0.02856 0.0
C2899 C 0.71502 0.65546 0.01633 0.0
C2900 C 0.70441 0.66427 0.01326 0.0
C2901 C 0.68769 0.65798 0.02225 0.0
C2902 C 0.71983 0.63097 0.03227 0.0
C2903 C 0.71051 0.68008 0.00015 0.0
C2904 C 0.76552 0.68317 0.00294 0.0
C2905 C 0.76413 0.67445 0.98486 0.0
C2906 C 0.74976 0.67672 0.01368 0.0
C2907 C 0.7322 0.6614 0.00598 0.0
C2908 C 0.7308 0.65246 0.98779 0.0
C2909 C 0.74681 0.65905 0.97748 0.0
C2910 C 0.7518 0.68647 0.03311 0.0
C2911 C 0.71228 0.63628 0.97896 0.0
H2912 H 0.68688 0.62282 0.04643 0.0
H2913 H 0.67955 0.66468 0.01973 0.0
H2914 H 0.72051 0.62377 0.01883 0.0
H2915 H 0.73446 0.64171 0.03746 0.0
H2916 H 0.71357 0.62028 0.04292 0.0
H2917 H 0.70086 0.68569 -0.00038 0.0
H2918 H 0.72482 0.69195 0.00487 0.0
H2919 H 0.71112 0.67485 0.98552 0.0
H2920 H 0.77897 0.69498 0.0087 0.0
H2921 H 0.74567 0.65245 0.96339 0.0
H2922 H 0.74627 0.67587 0.04388 0.0
H2923 H 0.74341 0.69351 0.03306 0.0
H2924 H 0.76663 0.69733 0.03755 0.0
H2925 H 0.70607 0.62469 0.98864 0.0
H2926 H 0.71374 0.63039 0.96501 0.0
H2927 H 0.70226 0.64128 0.97682 0.0
C2928 C 0.93215 0.6455 0.01805 0.0
C2929 C 0.94689 0.64328 0.01229 0.0
C2930 C 0.92502 0.6542 0.00665 0.0
C2931 C 0.93232 0.66002 0.98875 0.0
C2932 C 0.94711 0.65756 0.98281 0.0
C2933 C 0.9545 0.64956 0.99488 0.0
C2934 C 0.90969 0.65718 0.01375 0.0
C2935 C 0.95471 0.66284 0.96351 0.0
C2936 C 0.89856 0.66274 0.95347 0.0
C2937 C 0.90589 0.68243 0.95357 0.0
C2938 C 0.90758 0.65537 0.9641 0.0
C2939 C 0.92386 0.66787 0.97593 0.0
C2940 C 0.93151 0.68771 0.97608 0.0
C2941 C 0.92269 0.69477 0.96458 0.0
C2942 C 0.89932 0.63412 0.96306 0.0
C2943 C 0.94859 0.70146 0.98894 0.0
H2944 H 0.92647 0.64077 0.03165 0.0
H2945 H 0.96588 0.6477 0.9905 0.0
H2946 H 0.91373 0.67226 0.0131 0.0
H2947 H 0.8966 0.64845 0.0045 0.0
H2948 H 0.90667 0.6533 0.02862 0.0
H2949 H 0.96627 0.66007 0.9611 0.0
H2950 H 0.94329 0.65457 0.9522 0.0
H2951 H 0.95997 0.67807 0.96196 0.0
H2952 H 0.88539 0.65287 0.94557 0.0
H2953 H 0.92885 0.70998 0.96454 0.0
H2954 H 0.89338 0.62862 0.97675 0.0
H2955 H 0.91039 0.63063 0.96068 0.0
H2956 H 0.88801 0.62657 0.95148 0.0
H2957 H 0.94559 0.69856 0.00401 0.0
H2958 H 0.9529 0.7165 0.98726 0.0
H2959 H 0.96054 0.69952 0.98597 0.0
C2960 C 0.36024 0.3111 0.9713 0.0
C2961 C 0.35242 0.32228 0.96746 0.0
C2962 C 0.35224 0.29257 0.96272 0.0
C2963 C 0.3361 0.28512 0.94995 0.0
C2964 C 0.32828 0.29641 0.94584 0.0
C2965 C 0.33651 0.31486 0.95467 0.0
C2966 C 0.36095 0.28089 0.96746 0.0
C2967 C 0.31115 0.28898 0.93221 0.0
C2968 C 0.3266 0.2434 0.91599 0.0
C2969 C 0.31305 0.22804 0.92516 0.0
C2970 C 0.33381 0.26212 0.9236 0.0
C2971 C 0.32745 0.26548 0.94091 0.0
C2972 C 0.31335 0.25002 0.94993 0.0
C2973 C 0.30623 0.23143 0.94186 0.0
C2974 C 0.3486 0.27826 0.91341 0.0
C2975 C 0.30631 0.25307 0.96846 0.0
H2976 H 0.3725 0.31674 0.9812 0.0
H2977 H 0.33039 0.32343 0.95163 0.0
H2978 H 0.35051 0.26774 0.97369 0.0
H2979 H 0.36517 0.27651 0.9543 0.0
H2980 H 0.37347 0.28877 0.97769 0.0
H2981 H 0.30697 0.2997 0.93031 0.0
H2982 H 0.31387 0.2846 0.9181 0.0
H2983 H 0.29918 0.2762 0.93749 0.0
H2984 H 0.33174 0.24072 0.90297 0.0
H2985 H 0.29587 0.21951 0.94903 0.0
H2986 H 0.362 0.28567 0.9224 0.0
H2987 H 0.34436 0.28882 0.91095 0.0
H2988 H 0.35115 0.27329 0.8995 0.0
H2989 H 0.31795 0.25943 0.97975 0.0
H2990 H 0.29468 0.23962 0.97316 0.0
H2991 H 0.30133 0.26319 0.967 0.0
C2992 C 0.6925 0.06657 0.01704 0.0
C2993 C 0.68374 0.04851 0.02397 0.0
C2994 C 0.70818 0.07271 0.00619 0.0
C2995 C 0.71523 0.0605 0.00224 0.0
C2996 C 0.70693 0.0426 0.00986 0.0
C2997 C 0.69131 0.03684 0.02061 0.0
C2998 C 0.71676 0.09194 -0.00167 0.0
C2999 C 0.71407 0.0292 0.00603 0.0
C3000 C 0.73995 0.06511 0.95689 0.0
C3001 C 0.75883 0.07471 0.96376 0.0
C3002 C 0.72566 0.06054 0.96927 0.0
C3003 C 0.73038 0.06576 0.98902 0.0
C3004 C 0.74942 0.07539 0.99608 0.0
C3005 C 0.76345 0.07971 0.98335 0.0
C3006 C 0.7055 0.05009 0.96122 0.0
C3007 C 0.75497 0.0812 0.01703 0.0
H3008 H 0.68678 0.07568 0.0196 0.0
H3009 H 0.68477 0.02292 0.02605 0.0
H3010 H 0.73214 0.10014 0.00182 0.0
H3011 H 0.71443 0.09011 0.98259 0.0
H3012 H 0.71066 0.10034 0.00398 0.0
H3013 H 0.70688 0.01637 0.01409 0.0
H3014 H 0.71185 0.0246 0.99062 0.0
H3015 H 0.72937 0.03652 0.00988 0.0
H3016 H 0.73635 0.06109 0.94177 0.0
H3017 H 0.77806 0.08739 0.98866 0.0
H3018 H 0.69882 0.05846 0.96492 0.0
H3019 H 0.69751 0.03631 0.9676 0.0
H3020 H 0.70424 0.04731 0.94549 0.0
H3021 H 0.74977 0.09058 0.02212 0.0
H3022 H 0.77041 0.08878 0.02019 0.0
H3023 H 0.74837 0.06847 0.02527 0.0
C3024 C 0.66659 0.97143 0.07911 0.0
C3025 C 0.65088 0.96356 0.06601 0.0
C3026 C 0.67403 0.96056 0.08536 0.0
C3027 C 0.66567 0.94134 0.07823 0.0
C3028 C 0.65012 0.93341 0.06461 0.0
C3029 C 0.64283 0.9446 0.05871 0.0
C3030 C 0.69053 0.96951 0.10003 0.0
C3031 C 0.64097 0.913 0.05659 0.0
C3032 C 0.6952 0.91888 0.08702 0.0
C3033 C 0.68775 0.90953 0.10339 0.0
C3034 C 0.68764 0.92867 0.07813 0.0
C3035 C 0.67254 0.92936 0.08607 0.0
C3036 C 0.66484 0.91971 0.10246 0.0
C3037 C 0.67249 0.90985 0.11086 0.0
C3038 C 0.69608 0.93864 0.06055 0.0
C3039 C 0.64897 0.92038 0.11156 0.0
H3040 H 0.67293 0.98608 0.0848 0.0
H3041 H 0.63077 0.93848 0.0485 0.0
H3042 H 0.68637 0.96208 0.11328 0.0
H3043 H 0.70217 0.968 0.09478 0.0
H3044 H 0.69584 0.98483 0.10359 0.0
H3045 H 0.6299 0.90938 0.04512 0.0
H3046 H 0.65165 0.91018 0.05083 0.0
H3047 H 0.63456 0.9034 0.0681 0.0
H3048 H 0.70695 0.91855 0.0812 0.0
H3049 H 0.6669 0.90287 0.12371 0.0
H3050 H 0.70293 0.95422 0.06375 0.0
H3051 H 0.68492 0.93443 0.04903 0.0
H3052 H 0.70667 0.93541 0.05527 0.0
H3053 H 0.65367 0.93521 0.11679 0.0
H3054 H 0.64398 0.91134 0.12372 0.0
H3055 H 0.63697 0.91562 0.10092 0.0
C3056 C 0.05157 0.70719 0.0742 0.0
C3057 C 0.03209 0.69939 0.07275 0.0
C3058 C 0.06357 0.72537 0.08326 0.0
C3059 C 0.05589 0.73602 0.09088 0.0
C3060 C 0.03628 0.72843 0.08899 0.0
C3061 C 0.02461 0.71017 0.08 0.0
C3062 C 0.08443 0.733 0.08509 0.0
C3063 C 0.02761 0.73945 0.09676 0.0
C3064 C 0.08467 0.77391 0.13089 0.0
C3065 C 0.09324 0.79041 0.1211 0.0
C3066 C 0.07231 0.75614 0.12125 0.0
C3067 C 0.06834 0.75486 0.10136 0.0
C3068 C 0.07655 0.77151 0.09147 0.0
C3069 C 0.08896 0.78908 0.10145 0.0
C3070 C 0.06381 0.73868 0.13229 0.0
C3071 C 0.07255 0.77071 0.07028 0.0
H3072 H 0.05743 0.69892 0.06865 0.0
H3073 H 0.00956 0.70425 0.07885 0.0
H3074 H 0.09208 0.74691 0.07889 0.0
H3075 H 0.08937 0.7354 0.10036 0.0
H3076 H 0.08821 0.72318 0.07789 0.0
H3077 H 0.01221 0.73188 0.09334 0.0
H3078 H 0.03037 0.74201 0.11245 0.0
H3079 H 0.03409 0.75354 0.09088 0.0
H3080 H 0.08777 0.77489 0.14611 0.0
H3081 H 0.09578 0.80172 0.09372 0.0
H3082 H 0.06816 0.72873 0.12673 0.0
H3083 H 0.04828 0.73113 0.13039 0.0
H3084 H 0.06808 0.74215 0.14775 0.0
H3085 H 0.07769 0.76227 0.06264 0.0
H3086 H 0.07935 0.78505 0.06489 0.0
H3087 H 0.05721 0.76347 0.06674 0.0
C3088 C 0.31063 0.34637 0.02824 0.0
C3089 C 0.31863 0.36615 0.0289 0.0
C3090 C 0.29416 0.33494 0.0372 0.0
C3091 C 0.28549 0.3435 0.04706 0.0
C3092 C 0.29307 0.36335 0.0472 0.0
C3093 C 0.30957 0.37446 0.0381 0.0
C3094 C 0.28644 0.3138 0.03671 0.0
C3095 C 0.28414 0.37296 0.05755 0.0
C3096 C 0.23576 0.31444 0.06209 0.0
C3097 C 0.23908 0.3135 0.0815 0.0
C3098 C 0.25074 0.32366 0.05045 0.0
C3099 C 0.26938 0.332 0.05849 0.0
C3100 C 0.27272 0.33022 0.07788 0.0
C3101 C 0.25751 0.321 0.08915 0.0
C3102 C 0.24668 0.32524 0.02982 0.0
C3103 C 0.29239 0.33875 0.08692 0.0
H3104 H 0.31745 0.33978 0.02105 0.0
H3105 H 0.31559 0.38971 0.03861 0.0
H3106 H 0.28779 0.30988 0.05125 0.0
H3107 H 0.27129 0.30586 0.03201 0.0
H3108 H 0.29389 0.30916 0.02707 0.0
H3109 H 0.29102 0.38829 0.0552 0.0
H3110 H 0.26905 0.36596 0.05282 0.0
H3111 H 0.28505 0.37156 0.07306 0.0
H3112 H 0.22149 0.30877 0.05622 0.0
H3113 H 0.26004 0.32007 0.10414 0.0
H3114 H 0.25442 0.32072 0.02051 0.0
H3115 H 0.25159 0.34028 0.0275 0.0
H3116 H 0.23147 0.31652 0.02536 0.0
H3117 H 0.30035 0.33372 0.07862 0.0
H3118 H 0.29252 0.33512 0.10186 0.0
H3119 H 0.2999 0.35444 0.08682 0.0
C3120 C 0.7239 0.68716 0.38119 0.0
C3121 C 0.70442 0.6777 0.38247 0.0
C3122 C 0.73491 0.68144 0.39108 0.0
C3123 C 0.72622 0.66595 0.40257 0.0
C3124 C 0.70658 0.6564 0.40398 0.0
C3125 C 0.69592 0.66236 0.39388 0.0
C3126 C 0.75583 0.69193 0.3892 0.0
C3127 C 0.69682 0.63988 0.41614 0.0
C3128 C 0.75197 0.64021 0.41449 0.0
C3129 C 0.76005 0.6484 0.43284 0.0
C3130 C 0.74084 0.64571 0.40451 0.0
C3131 C 0.73768 0.6597 0.41312 0.0
C3132 C 0.74555 0.6678 0.43176 0.0
C3133 C 0.75667 0.66208 0.44138 0.0
C3134 C 0.73272 0.63678 0.38464 0.0
C3135 C 0.74235 0.68263 0.44149 0.0
H3136 H 0.73056 0.699 0.37238 0.0
H3137 H 0.68087 0.65499 0.39498 0.0
H3138 H 0.76338 0.69796 0.40341 0.0
H3139 H 0.76007 0.68193 0.3835 0.0
H3140 H 0.76041 0.70364 0.37966 0.0
H3141 H 0.68145 0.63407 0.41583 0.0
H3142 H 0.69926 0.62833 0.41116 0.0
H3143 H 0.70273 0.64437 0.43111 0.0
H3144 H 0.75476 0.62983 0.40772 0.0
H3145 H 0.76274 0.66831 0.45564 0.0
H3146 H 0.73812 0.64789 0.37438 0.0
H3147 H 0.71723 0.63004 0.38385 0.0
H3148 H 0.73623 0.62587 0.38011 0.0
H3149 H 0.74792 0.69523 0.43308 0.0
H3150 H 0.7492 0.68728 0.45614 0.0
H3151 H 0.7271 0.67695 0.44224 0.0
C3152 C 0.30048 0.02082 0.44376 0.0
C3153 C 0.30803 0.01237 0.43217 0.0
C3154 C 0.3117 0.03952 0.45186 0.0
C3155 C 0.33088 0.05008 0.44812 0.0
C3156 C 0.33879 0.04138 0.4371 0.0
C3157 C 0.32727 0.02258 0.4293 0.0
C3158 C 0.3028 0.04824 0.46374 0.0
C3159 C 0.35916 0.05223 0.43273 0.0
C3160 C 0.3496 0.10282 0.44909 0.0
C3161 C 0.35877 0.10919 0.4673 0.0
C3162 C 0.34132 0.08373 0.44231 0.0
C3163 C 0.34203 0.07069 0.45416 0.0
C3164 C 0.35204 0.07724 0.47225 0.0
C3165 C 0.36042 0.09653 0.4786 0.0
C3166 C 0.33102 0.07739 0.42282 0.0
C3167 C 0.35302 0.06373 0.48529 0.0
H3168 H 0.28568 0.01296 0.44622 0.0
H3169 H 0.33323 0.01614 0.42039 0.0
H3170 H 0.3112 0.0549 0.47746 0.0
H3171 H 0.30255 0.05961 0.45614 0.0
H3172 H 0.2882 0.03764 0.46676 0.0
H3173 H 0.36362 0.04287 0.42575 0.0
H3174 H 0.36147 0.06339 0.42312 0.0
H3175 H 0.36828 0.05947 0.44595 0.0
H3176 H 0.34851 0.11273 0.44034 0.0
H3177 H 0.36745 0.10153 0.49273 0.0
H3178 H 0.31576 0.06805 0.42427 0.0
H3179 H 0.33572 0.069 0.41437 0.0
H3180 H 0.3332 0.08956 0.41478 0.0
H3181 H 0.33892 0.05428 0.49035 0.0
H3182 H 0.36305 0.07133 0.49789 0.0
H3183 H 0.35724 0.05455 0.47754 0.0
C3184 C 0.99502 0.27175 0.38836 0.0
C3185 C 0.003 0.28766 0.37771 0.0
C3186 C 0.97763 0.26548 0.39605 0.0
C3187 C 0.96792 0.27519 0.39274 0.0
C3188 C 0.97583 0.29116 0.38188 0.0
C3189 C 0.99333 0.29728 0.37461 0.0
C3190 C 0.96969 0.24853 0.4078 0.0
C3191 C 0.96576 0.30171 0.37784 0.0
C3192 C 0.91553 0.24737 0.39819 0.0
C3193 C 0.91451 0.25443 0.41632 0.0
C3194 C 0.93281 0.25443 0.39007 0.0
C3195 C 0.94941 0.26857 0.40057 0.0
C3196 C 0.94836 0.27603 0.41874 0.0
C3197 C 0.93085 0.26895 0.42635 0.0
C3198 C 0.93334 0.24643 0.37049 0.0
C3199 C 0.96578 0.29093 0.43046 0.0
H3200 H 0.00247 0.26433 0.39087 0.0
H3201 H -0.00065 0.30953 0.36629 0.0
H3202 H 0.96716 0.25253 0.42218 0.0
H3203 H 0.95598 0.23707 0.40108 0.0
H3204 H 0.97918 0.2428 0.40937 0.0
H3205 H 0.97375 0.31374 0.36895 0.0
H3206 H 0.95181 0.29185 0.37038 0.0
H3207 H 0.9633 0.30732 0.39139 0.0
H3208 H 0.90283 0.23608 0.39052 0.0
H3209 H 0.93001 0.27414 0.44053 0.0
H3210 H 0.94117 0.23884 0.37145 0.0
H3211 H 0.94087 0.2581 0.3611 0.0
H3212 H 0.91908 0.23639 0.36375 0.0
H3213 H 0.975 0.28518 0.43372 0.0
H3214 H 0.96248 0.29563 0.44408 0.0
H3215 H 0.97386 0.3035 0.42228 0.0
C3216 C 0.02545 0.36577 0.32245 0.0
C3217 C 0.04344 0.37261 0.33109 0.0
C3218 C 0.02044 0.37817 0.31501 0.0
C3219 C 0.03377 0.39786 0.31619 0.0
C3220 C 0.05174 0.40494 0.32546 0.0
C3221 C 0.05637 0.3922 0.33285 0.0
C3222 C 0.00109 0.37011 0.3053 0.0
C3223 C 0.06631 0.42587 0.32693 0.0
C3224 C 0.02781 0.4248 0.27736 0.0
C3225 C 0.01919 0.43353 0.28668 0.0
C3226 C 0.03302 0.41353 0.28697 0.0
C3227 C 0.02935 0.41076 0.30634 0.0
C3228 C 0.0208 0.41963 0.31592 0.0
C3229 C 0.01583 0.43096 0.30597 0.0
C3230 C 0.0421 0.40427 0.27626 0.0
C3231 C 0.01664 0.41691 0.33657 0.0
H3232 H 0.01534 0.35065 0.32118 0.0
H3233 H 0.07027 0.39756 0.33958 0.0
H3234 H 0.99423 0.37763 0.31124 0.0
H3235 H 0.00224 0.37231 0.2899 0.0
H3236 H 0.99193 0.35468 0.30686 0.0
H3237 H 0.07904 0.42924 0.33591 0.0
H3238 H 0.07053 0.43051 0.3125 0.0
H3239 H 0.06039 0.43427 0.33298 0.0
H3240 H 0.03013 0.42643 0.26237 0.0
H3241 H 0.00936 0.43785 0.31328 0.0
H3242 H 0.03293 0.3886 0.27564 0.0
H3243 H 0.05563 0.40804 0.28381 0.0
H3244 H 0.04475 0.40858 0.26148 0.0
H3245 H 0.00665 0.40169 0.33829 0.0
H3246 H 0.01053 0.42534 0.34212 0.0
H3247 H 0.02967 0.42108 0.34541 0.0
C3248 C 0.60859 0.62893 0.30072 0.0
C3249 C 0.62511 0.63713 0.31266 0.0
C3250 C 0.60011 0.61009 0.29293 0.0
C3251 C 0.60828 0.59913 0.2973 0.0
C3252 C 0.62539 0.60755 0.30866 0.0
C3253 C 0.63365 0.6265 0.31617 0.0
C3254 C 0.58195 0.60167 0.28071 0.0
C3255 C 0.63449 0.59629 0.31362 0.0
C3256 C 0.57214 0.54681 0.29639 0.0
C3257 C 0.57359 0.54015 0.27822 0.0
C3258 C 0.58415 0.56579 0.30321 0.0
C3259 C 0.59783 0.57844 0.29148 0.0
C3260 C 0.60006 0.57153 0.27353 0.0
C3261 C 0.5879 0.55236 0.26711 0.0
C3262 C 0.58145 0.57252 0.32253 0.0
C3263 C 0.61448 0.58459 0.26063 0.0
H3264 H 0.60201 0.6371 0.29775 0.0
H3265 H 0.64646 0.63274 0.32534 0.0
H3266 H 0.58288 0.59481 0.26716 0.0
H3267 H 0.57036 0.59053 0.28822 0.0
H3268 H 0.57829 0.61251 0.27735 0.0
H3269 H 0.64878 0.60544 0.32074 0.0
H3270 H 0.62573 0.5854 0.32332 0.0
H3271 H 0.63546 0.58869 0.30065 0.0
H3272 H 0.56115 0.53725 0.30502 0.0
H3273 H 0.58893 0.54719 0.253 0.0
H3274 H 0.57597 0.58221 0.32078 0.0
H3275 H 0.59505 0.58065 0.33111 0.0
H3276 H 0.57146 0.56057 0.33059 0.0
H3277 H 0.61014 0.59425 0.25503 0.0
H3278 H 0.61612 0.57661 0.24838 0.0
H3279 H 0.6283 0.59357 0.26864 0.0
C3280 C 0.35052 0.98055 0.35496 0.0
C3281 C 0.34326 0.96671 0.36812 0.0
C3282 C 0.36646 0.98425 0.34547 0.0
C3283 C 0.3755 0.97402 0.34942 0.0
C3284 C 0.36847 0.96029 0.36298 0.0
C3285 C 0.35234 0.9567 0.3721 0.0
C3286 C 0.3734 -0.00114 0.33095 0.0
C3287 C 0.37789 0.94927 0.36768 0.0
C3288 C 0.40451 0.97071 0.31073 0.0
C3289 C 0.42262 0.98543 0.31704 0.0
C3290 C 0.3891 0.96656 0.32136 0.0
C3291 C 0.39191 0.97731 0.3388 0.0
C3292 C 0.41024 0.99187 0.34551 0.0
C3293 C 0.42538 0.99585 0.33446 0.0
C3294 C 0.36975 0.95109 0.31361 0.0
C3295 C 0.41379 0.00347 0.36415 0.0
H3296 H 0.34355 0.98831 0.35178 0.0
H3297 H 0.34683 0.94606 0.38233 0.0
H3298 H 0.38823 0.01 0.33482 0.0
H3299 H 0.37292 0.99203 0.31678 0.0
H3300 H 0.36493 0.00577 0.32975 0.0
H3301 H 0.37121 0.93974 0.3792 0.0
H3302 H 0.3773 0.94054 0.35483 0.0
H3303 H 0.39293 0.95919 0.37215 0.0
H3304 H 0.40232 0.96279 0.29714 0.0
H3305 H 0.43941 0.00712 0.33943 0.0
H3306 H 0.36087 0.95732 0.31075 0.0
H3307 H 0.36291 0.94058 0.32428 0.0
H3308 H 0.37007 0.94353 0.30023 0.0
H3309 H 0.40677 0.01186 0.36326 0.0
H3310 H 0.42899 0.0134 0.36794 0.0
H3311 H 0.40771 0.99398 0.37579 0.0
C3312 C 0.6238 0.96709 0.32151 0.0
C3313 C 0.61805 0.96272 0.33991 0.0
C3314 C 0.61475 0.97324 0.30913 0.0
C3315 C 0.59998 0.97547 0.31561 0.0
C3316 C 0.59456 0.97157 0.33445 0.0
C3317 C 0.60352 0.96496 0.34631 0.0
C3318 C 0.62056 0.97677 0.28901 0.0
C3319 C 0.57917 0.97419 0.34202 0.0
C3320 C 0.58452 0.00545 0.29037 0.0
C3321 C 0.56717 0.99147 0.28131 0.0
C3322 C 0.59563 0.00049 0.30121 0.0
C3323 C 0.58956 0.98109 0.30254 0.0
C3324 C 0.57272 0.96694 0.29248 0.0
C3325 C 0.5616 0.97226 0.28226 0.0
C3326 C 0.61338 0.016 0.312 0.0
C3327 C 0.56599 0.94608 0.29317 0.0
H3328 H 0.63504 0.96521 0.31668 0.0
H3329 H 0.59923 0.9616 0.36063 0.0
H3330 H 0.60862 0.96676 0.27885 0.0
H3331 H 0.62432 0.99134 0.28587 0.0
H3332 H 0.6327 0.97497 0.28641 0.0
H3333 H 0.57755 0.97178 0.35737 0.0
H3334 H 0.58216 0.98876 0.34001 0.0
H3335 H 0.56562 0.96413 0.33396 0.0
H3336 H 0.58926 0.02033 0.28939 0.0
H3337 H 0.54814 0.96124 0.27569 0.0
H3338 H 0.62542 0.01425 0.30881 0.0
H3339 H 0.61179 0.01497 0.32752 0.0
H3340 H 0.61676 0.0304 0.30854 0.0
H3341 H 0.57749 0.94338 0.29023 0.0
H3342 H 0.55388 0.93702 0.28274 0.0
H3343 H 0.56165 0.94169 0.30763 0.0
C3344 C 0.01 0.64924 0.30553 0.0
C3345 C 0.02887 0.6638 0.3076 0.0
C3346 C 0.00472 0.63135 0.2967 0.0
C3347 C 0.01861 0.62821 0.28931 0.0
C3348 C 0.03765 0.64304 0.29095 0.0
C3349 C 0.04259 0.66061 0.30035 0.0
C3350 C 0.98436 0.61571 0.29567 0.0
C3351 C 0.05279 0.64034 0.28284 0.0
C3352 C 0.01017 0.5783 0.283 0.0
C3353 C 0.0048 0.5737 0.26355 0.0
C3354 C 0.01426 0.59585 0.29166 0.0
C3355 C 0.01336 0.60921 0.28044 0.0
C3356 C 0.00785 0.60453 0.26074 0.0
C3357 C 0.00342 0.58666 0.25254 0.0
C3358 C 0.01969 0.60015 0.31278 0.0
C3359 C 0.0071 0.61856 0.24828 0.0
H3360 H -0.0006 0.65168 0.31126 0.0
H3361 H 0.05717 0.67194 0.30181 0.0
H3362 H 0.97915 0.61035 0.28064 0.0
H3363 H 0.98293 0.6036 0.30328 0.0
H3364 H 0.97529 0.62052 0.30203 0.0
H3365 H 0.06674 0.65363 0.28435 0.0
H3366 H 0.05386 0.62928 0.2902 0.0
H3367 H 0.04915 0.63532 0.26753 0.0
H3368 H 0.01115 0.5681 0.2914 0.0
H3369 H -0.00065 0.58298 0.23744 0.0
H3370 H 0.01046 0.60432 0.31986 0.0
H3371 H 0.03428 0.61231 0.31529 0.0
H3372 H 0.01871 0.58782 0.31961 0.0
H3373 H 0.99739 0.6229 0.25378 0.0
H3374 H 0.00241 0.61264 0.23326 0.0
H3375 H 0.02119 0.63156 0.24861 0.0
C3376 C 0.35326 0.39688 0.3466 0.0
C3377 C 0.34357 0.37872 0.35327 0.0
C3378 C 0.36924 0.40256 0.33633 0.0
C3379 C 0.37563 0.38976 0.33263 0.0
C3380 C 0.36628 0.37166 0.33982 0.0
C3381 C 0.35039 0.36637 0.35007 0.0
C3382 C 0.37894 0.42204 0.32896 0.0
C3383 C 0.37267 0.35762 0.33617 0.0
C3384 C 0.40251 0.39606 0.28856 0.0
C3385 C 0.42111 0.40548 0.2963 0.0
C3386 C 0.38758 0.39067 0.30027 0.0
C3387 C 0.39137 0.39486 0.32022 0.0
C3388 C 0.41011 0.40401 0.32817 0.0
C3389 C 0.42478 0.40918 0.3161 0.0
C3390 C 0.36778 0.38074 0.29126 0.0
C3391 C 0.41467 0.40873 0.34937 0.0
H3392 H 0.34816 0.40654 0.34906 0.0
H3393 H 0.34308 0.35233 0.35523 0.0
H3394 H 0.39414 0.42972 0.3334 0.0
H3395 H 0.37758 0.42065 0.31316 0.0
H3396 H 0.37298 0.43074 0.33411 0.0
H3397 H 0.36459 0.34458 0.34375 0.0
H3398 H 0.37102 0.35345 0.32068 0.0
H3399 H 0.38777 0.36424 0.3407 0.0
H3400 H 0.39964 0.39302 0.27327 0.0
H3401 H 0.43918 0.41666 0.32209 0.0
H3402 H 0.36133 0.38944 0.29444 0.0
H3403 H 0.35911 0.36691 0.29736 0.0
H3404 H 0.36721 0.37815 0.27557 0.0
H3405 H 0.41013 0.41868 0.35441 0.0
H3406 H 0.4299 0.41531 0.35334 0.0
H3407 H 0.40687 0.39569 0.35699 0.0
C3408 C 0.31289 0.2979 0.4217 0.0
C3409 C 0.30595 0.29556 0.40276 0.0
C3410 C 0.32058 0.28727 0.42802 0.0
C3411 C 0.32188 0.2744 0.41492 0.0
C3412 C 0.31486 0.27193 0.39575 0.0
C3413 C 0.30669 0.28238 0.38994 0.0
C3414 C 0.32743 0.28993 0.44871 0.0
C3415 C 0.31647 0.25871 0.38129 0.0
C3416 C 0.35882 0.26341 0.43194 0.0
C3417 C 0.34786 0.24621 0.44016 0.0
C3418 C 0.35044 0.27213 0.42246 0.0
C3419 C 0.33068 0.26365 0.42153 0.0
C3420 C 0.31951 0.24582 0.42887 0.0
C3421 C 0.32822 0.23721 0.43784 0.0
C3422 C 0.36281 0.29092 0.41435 0.0
C3423 C 0.29841 0.2364 0.42836 0.0
H3424 H 0.31224 0.30806 0.43162 0.0
H3425 H 0.30153 0.28076 0.37523 0.0
H3426 H 0.32058 0.27605 0.45504 0.0
H3427 H 0.34277 0.29563 0.44989 0.0
H3428 H 0.32453 0.29981 0.45721 0.0
H3429 H 0.30989 0.25804 0.36707 0.0
H3430 H 0.33149 0.26358 0.37985 0.0
H3431 H 0.30977 0.24418 0.38614 0.0
H3432 H 0.37398 0.27053 0.43365 0.0
H3433 H 0.31959 0.22362 0.4436 0.0
H3434 H 0.36291 0.30246 0.42336 0.0
H3435 H 0.35726 0.29095 0.39982 0.0
H3436 H 0.3775 0.2942 0.41371 0.0
H3437 H 0.29462 0.245 0.43779 0.0
H3438 H 0.29166 0.22181 0.43316 0.0
H3439 H 0.29253 0.23566 0.41378 0.0
C3440 C 0.69246 0.03457 0.41332 0.0
C3441 C 0.70074 0.02478 0.40547 0.0
C3442 C 0.70352 0.0533 0.42147 0.0
C3443 C 0.7233 0.06239 0.4218 0.0
C3444 C 0.73172 0.05267 0.4137 0.0
C3445 C 0.72033 0.03399 0.4056 0.0
C3446 C 0.69407 0.06327 0.42991 0.0
C3447 C 0.75279 0.06191 0.41383 0.0
C3448 C 0.75433 0.11604 0.42857 0.0
C3449 C 0.76107 0.11871 0.44766 0.0
C3450 C 0.74149 0.09781 0.42011 0.0
C3451 C 0.7353 0.08193 0.43101 0.0
C3452 C 0.74148 0.08464 0.4505 0.0
C3453 C 0.75429 0.10302 0.45859 0.0
C3454 C 0.73517 0.09547 0.3993 0.0
C3455 C 0.73511 0.06807 0.46262 0.0
H3456 H 0.67732 0.02755 0.41323 0.0
H3457 H 0.72681 0.02651 0.39956 0.0
H3458 H 0.69823 0.06696 0.44535 0.0
H3459 H 0.6987 0.07677 0.42322 0.0
H3460 H 0.67853 0.05441 0.42799 0.0
H3461 H 0.7571 0.05254 0.4066 0.0
H3462 H 0.75876 0.0753 0.40666 0.0
H3463 H 0.75901 0.06564 0.42872 0.0
H3464 H 0.75969 0.1281 0.42001 0.0
H3465 H 0.75929 0.10508 0.47342 0.0
H3466 H 0.71964 0.08689 0.3973 0.0
H3467 H 0.7407 0.08771 0.3911 0.0
H3468 H 0.74007 0.10933 0.39325 0.0
H3469 H 0.71957 0.05936 0.46177 0.0
H3470 H 0.74029 0.0727 0.4778 0.0
H3471 H 0.7403 0.05879 0.45718 0.0
C3472 C 0.97778 0.71216 0.37503 0.0
C3473 C 0.98767 0.70418 0.36707 0.0
C3474 C 0.9606 0.7008 0.38291 0.0
C3475 C 0.95315 0.68097 0.38286 0.0
C3476 C 0.96278 0.67273 0.37437 0.0
C3477 C 0.97993 0.68443 0.36657 0.0
C3478 C 0.95068 0.71009 0.3918 0.0
C3479 C 0.95525 0.65165 0.37407 0.0
C3480 C 0.92156 0.65859 0.42272 0.0
C3481 C 0.90374 0.65133 0.41351 0.0
C3482 C 0.93774 0.66749 0.41267 0.0
C3483 C 0.93602 0.66921 0.39295 0.0
C3484 C 0.91799 0.66096 0.38336 0.0
C3485 C 0.902 0.65205 0.39379 0.0
C3486 C 0.95669 0.6759 0.42339 0.0
C3487 C 0.91563 0.66247 0.36233 0.0
H3488 H 0.98358 0.72737 0.37538 0.0
H3489 H 0.98742 0.6781 0.36036 0.0
H3490 H 0.93598 0.70307 0.38566 0.0
H3491 H 0.95019 0.70841 0.40732 0.0
H3492 H 0.95775 0.72549 0.38967 0.0
H3493 H 0.96364 0.64726 0.3656 0.0
H3494 H 0.95537 0.64763 0.38883 0.0
H3495 H 0.94048 0.64355 0.36805 0.0
H3496 H 0.92286 0.65781 0.43795 0.0
H3497 H 0.8882 0.64651 0.38671 0.0
H3498 H 0.96423 0.69162 0.42356 0.0
H3499 H 0.96537 0.6711 0.41616 0.0
H3500 H 0.95554 0.67198 0.43833 0.0
H3501 H 0.92057 0.67746 0.35972 0.0
H3502 H 0.90077 0.65353 0.35664 0.0
H3503 H 0.92429 0.65819 0.35427 0.0
C3504 C 0.39577 0.03177 0.72101 0.0
C3505 C 0.37627 0.01937 0.71971 0.0
C3506 C 0.40767 0.02791 0.73203 0.0
C3507 C 0.39987 0.01123 0.7419 0.0
C3508 C 0.38021 -0.00134 0.74062 0.0
C3509 C 0.36865 0.0029 0.72958 0.0
C3510 C 0.42858 0.04168 0.7331 0.0
C3511 C 0.37138 0.98068 0.75085 0.0
C3512 C 0.43149 0.99224 0.75547 0.0
C3513 C 0.43625 -0.00147 0.77485 0.0
C3514 C 0.41954 0.99613 0.74465 0.0
C3515 C 0.41231 0.00675 0.75333 0.0
C3516 C 0.417 0.01312 0.77288 0.0
C3517 C 0.42886 0.00888 0.78342 0.0
C3518 C 0.41482 0.98903 0.72386 0.0
C3519 C 0.4096 0.02454 0.78262 0.0
H3520 H 0.40176 0.04455 0.71348 0.0
H3521 H 0.35359 0.99324 0.72865 0.0
H3522 H 0.43393 0.04684 0.74815 0.0
H3523 H 0.43583 0.0344 0.72762 0.0
H3524 H 0.43239 0.05413 0.72479 0.0
H3525 H 0.35584 0.97246 0.74849 0.0
H3526 H 0.37687 0.97152 0.74591 0.0
H3527 H 0.37516 0.98417 0.76637 0.0
H3528 H 0.43744 0.9846 0.7486 0.0
H3529 H 0.43233 0.01365 0.79841 0.0
H3530 H 0.41978 0.00122 0.71494 0.0
H3531 H 0.39938 0.98007 0.72096 0.0
H3532 H 0.42125 0.98058 0.71937 0.0
H3533 H 0.41406 0.03774 0.77541 0.0
H3534 H 0.41461 0.02847 0.7979 0.0
H3535 H 0.39404 0.01631 0.78153 0.0
C3536 C 0.95741 0.34108 0.7695 0.0
C3537 C 0.96759 0.33596 0.75766 0.0
C3538 C 0.96583 0.35923 0.77903 0.0
C3539 C 0.98482 0.37267 0.77643 0.0
C3540 C 0.9954 0.36737 0.76511 0.0
C3541 C 0.98668 0.349 0.75594 0.0
C3542 C 0.95417 0.36428 0.79123 0.0
C3543 C 0.01562 0.38137 0.76189 0.0
C3544 C 0.99546 0.42331 0.78107 0.0
C3545 C 0.0039 0.42941 0.79958 0.0
C3546 C 0.99002 0.40514 0.77305 0.0
C3547 C 0.99286 0.39272 0.78396 0.0
C3548 C 0.00205 0.39909 0.80243 0.0
C3549 C 0.00761 0.41751 0.81001 0.0
C3550 C 0.98052 0.39899 0.75319 0.0
C3551 C 0.00516 0.38618 0.81452 0.0
H3552 H 0.94272 0.33098 0.77108 0.0
H3553 H 0.99464 0.34513 0.74683 0.0
H3554 H 0.96163 0.3708 0.80538 0.0
H3555 H 0.95192 0.3749 0.78442 0.0
H3556 H 0.94025 0.3517 0.79331 0.0
H3557 H 0.02244 0.37448 0.75442 0.0
H3558 H 0.01634 0.39256 0.75317 0.0
H3559 H 0.02374 0.38851 0.77563 0.0
H3560 H 0.99277 0.43267 0.77301 0.0
H3561 H 0.01407 0.4223 0.82439 0.0
H3562 H 0.96568 0.38756 0.75382 0.0
H3563 H 0.98742 0.3931 0.74431 0.0
H3564 H 0.98081 0.41087 0.74607 0.0
H3565 H 0.99144 0.37454 0.81852 0.0
H3566 H 0.01412 0.39386 0.82775 0.0
H3567 H 0.0118 0.37952 0.80637 0.0
C3568 C 0.65477 0.62248 0.70569 0.0
C3569 C 0.6678 0.61681 0.70953 0.0
C3570 C 0.63783 0.61458 0.71448 0.0
C3571 C 0.63388 0.60083 0.72764 0.0
C3572 C 0.64682 0.59481 0.73143 0.0
C3573 C 0.66361 0.60279 0.72218 0.0
C3574 C 0.62426 0.62116 0.70987 0.0
C3575 C 0.64311 0.5803 0.74555 0.0
C3576 C 0.5994 0.59572 0.76406 0.0
C3577 C 0.58304 0.57922 0.75655 0.0
C3578 C 0.61615 0.60276 0.75492 0.0
C3579 C 0.6164 0.59316 0.73777 0.0
C3580 C 0.59983 0.57661 0.73001 0.0
C3581 C 0.58335 0.56975 0.73958 0.0
C3582 C 0.63359 0.62037 0.7637 0.0
C3583 C 0.59951 0.5662 0.71157 0.0
H3584 H 0.65784 0.63319 0.69577 0.0
H3585 H 0.67367 0.59842 0.72525 0.0
H3586 H 0.61027 0.6088 0.705 0.0
H3587 H 0.62245 0.62812 0.72286 0.0
H3588 H 0.62909 0.63135 0.69866 0.0
H3589 H 0.65439 0.57684 0.74659 0.0
H3590 H 0.64191 0.58574 0.75985 0.0
H3591 H 0.62958 0.56702 0.74144 0.0
H3592 H 0.5992 0.60286 0.77736 0.0
H3593 H 0.57064 0.55701 0.73378 0.0
H3594 H 0.63864 0.63172 0.75372 0.0
H3595 H 0.64496 0.61726 0.76633 0.0
H3596 H 0.63112 0.62584 0.77736 0.0
H3597 H 0.60358 0.57587 0.69993 0.0
H3598 H 0.58547 0.55353 0.70748 0.0
H3599 H 0.6099 0.56158 0.71285 0.0
C3600 C 0.69817 0.71761 0.66984 0.0
C3601 C 0.6908 0.69864 0.66297 0.0
C3602 C 0.68962 0.72773 0.66428 0.0
C3603 C 0.67347 0.7187 0.65142 0.0
C3604 C 0.66576 0.69944 0.64475 0.0
C3605 C 0.67448 0.68961 0.65069 0.0
C3606 C 0.69812 0.74822 0.67179 0.0
C3607 C 0.64867 0.6894 0.63084 0.0
C3608 C 0.64315 0.74062 0.64471 0.0
C3609 C 0.6503 0.75042 0.62852 0.0
C3610 C 0.65075 0.73041 0.65258 0.0
C3611 C 0.6655 0.72978 0.64375 0.0
C3612 C 0.67256 0.7395 0.62724 0.0
C3613 C 0.66493 0.74979 0.6199 0.0
C3614 C 0.64304 0.72035 0.67031 0.0
C3615 C 0.68802 0.73885 0.61719 0.0
H3616 H 0.7107 0.7246 0.67946 0.0
H3617 H 0.66868 0.67493 0.64536 0.0
H3618 H 0.70362 0.75754 0.65993 0.0
H3619 H 0.68726 0.7505 0.67797 0.0
H3620 H 0.70978 0.75269 0.68283 0.0
H3621 H 0.64384 0.67412 0.62784 0.0
H3622 H 0.63698 0.6906 0.63646 0.0
H3623 H 0.65195 0.69626 0.61723 0.0
H3624 H 0.63181 0.74114 0.65129 0.0
H3625 H 0.67019 0.75713 0.60716 0.0
H3626 H 0.65449 0.72547 0.6817 0.0
H3627 H 0.6372 0.70488 0.66735 0.0
H3628 H 0.63186 0.72262 0.67568 0.0
H3629 H 0.70073 0.74458 0.62707 0.0
H3630 H 0.69182 0.74714 0.60445 0.0
H3631 H 0.68358 0.72393 0.61266 0.0
C3632 C 0.27854 0.96431 0.63788 0.0
C3633 C 0.29486 0.97287 0.65016 0.0
C3634 C 0.27003 0.94523 0.63092 0.0
C3635 C 0.27795 0.93434 0.63645 0.0
C3636 C 0.29486 0.94307 0.64818 0.0
C3637 C 0.30316 0.96227 0.65487 0.0
C3638 C 0.25208 0.9365 0.61827 0.0
C3639 C 0.30371 0.93191 0.65436 0.0
C3640 C 0.24132 0.88224 0.63659 0.0
C3641 C 0.243 0.875 0.61882 0.0
C3642 C 0.25342 0.90133 0.64301 0.0
C3643 C 0.26746 0.91351 0.6313 0.0
C3644 C 0.26995 0.90601 0.61384 0.0
C3645 C 0.25768 0.88676 0.60781 0.0
C3646 C 0.25041 0.90871 0.66182 0.0
C3647 C 0.28476 0.91853 0.60098 0.0
H3648 H 0.27213 0.97243 0.63398 0.0
H3649 H 0.3158 0.96877 0.66432 0.0
H3650 H 0.25325 0.92919 0.60517 0.0
H3651 H 0.2403 0.92566 0.62584 0.0
H3652 H 0.24856 0.94723 0.6141 0.0
H3653 H 0.31787 0.9412 0.6617 0.0
H3654 H 0.29466 0.92142 0.66425 0.0
H3655 H 0.3049 0.92385 0.64192 0.0
H3656 H 0.23008 0.87306 0.64519 0.0
H3657 H 0.25891 0.88117 0.59401 0.0
H3658 H 0.24507 0.91839 0.65925 0.0
H3659 H 0.26387 0.91701 0.67061 0.0
H3660 H 0.24018 0.89707 0.67004 0.0
H3661 H 0.28067 0.92806 0.59454 0.0
H3662 H 0.28661 0.91013 0.58931 0.0
H3663 H 0.29843 0.92767 0.60922 0.0
C3664 C 0.03368 0.3084 0.71158 0.0
C3665 C 0.01817 0.30346 0.69901 0.0
C3666 C 0.05179 0.3165 0.70502 0.0
C3667 C 0.05419 0.31897 0.68537 0.0
C3668 C 0.0384 0.31342 0.67259 0.0
C3669 C 0.02064 0.30608 0.67965 0.0
C3670 C 0.06837 0.3229 0.71914 0.0
C3671 C 0.04025 0.31521 0.65145 0.0
C3672 C 0.09971 0.35404 0.6649 0.0
C3673 C 0.10628 0.34218 0.65835 0.0
C3674 C 0.08344 0.34693 0.67492 0.0
C3675 C 0.07312 0.32737 0.67794 0.0
C3676 C 0.08006 0.3155 0.67213 0.0
C3677 C 0.09672 0.32313 0.66276 0.0
C3678 C 0.07679 0.36019 0.68144 0.0
C3679 C 0.0693 0.29448 0.67473 0.0
H3680 H 0.03173 0.30655 0.7266 0.0
H3681 H 0.00857 0.30215 0.66995 0.0
H3682 H 0.07618 0.31573 0.71524 0.0
H3683 H 0.0782 0.33839 0.71877 0.0
H3684 H 0.06411 0.31991 0.73391 0.0
H3685 H 0.02643 0.30919 0.64335 0.0
H3686 H 0.04904 0.33038 0.64868 0.0
H3687 H 0.04735 0.30779 0.64591 0.0
H3688 H 0.10679 0.36873 0.66154 0.0
H3689 H 0.10194 0.31393 0.65839 0.0
H3690 H 0.07262 0.35797 0.6963 0.0
H3691 H 0.06427 0.35714 0.67234 0.0
H3692 H 0.08775 0.37533 0.68066 0.0
H3693 H 0.0659 0.292 0.68976 0.0
H3694 H 0.07719 0.28745 0.67053 0.0
H3695 H 0.0558 0.28759 0.66592 0.0
C3696 C 0.26953 0.29878 0.6641 0.0
C3697 C 0.28848 0.30805 0.67074 0.0
C3698 C 0.26237 0.30833 0.65417 0.0
C3699 C 0.27449 0.32754 0.6506 0.0
C3700 C 0.29369 0.3369 0.65698 0.0
C3701 C 0.30044 0.32707 0.66707 0.0
C3702 C 0.24176 0.29792 0.64772 0.0
C3703 C 0.30704 0.35732 0.65325 0.0
C3704 C 0.25625 0.34475 0.61109 0.0
C3705 C 0.24842 0.35368 0.62147 0.0
C3706 C 0.26562 0.33694 0.62041 0.0
C3707 C 0.26686 0.33786 0.64056 0.0
C3708 C 0.25954 0.34747 0.6511 0.0
C3709 C 0.25048 0.35535 0.64141 0.0
C3710 C 0.27348 0.32703 0.60872 0.0
C3711 C 0.26041 0.34856 0.67259 0.0
H3712 H 0.26018 0.28412 0.66692 0.0
H3713 H 0.31513 0.33431 0.67206 0.0
H3714 H 0.23502 0.30532 0.65428 0.0
H3715 H 0.23998 0.29794 0.63206 0.0
H3716 H 0.23424 0.28298 0.65155 0.0
H3717 H 0.32169 0.36235 0.65861 0.0
H3718 H 0.30679 0.35899 0.63775 0.0
H3719 H 0.30252 0.36661 0.66022 0.0
H3720 H 0.25469 0.34353 0.59566 0.0
H3721 H 0.24415 0.36199 0.64944 0.0
H3722 H 0.26532 0.31157 0.61044 0.0
H3723 H 0.28823 0.33228 0.61378 0.0
H3724 H 0.27297 0.32917 0.59333 0.0
H3725 H 0.2518 0.33409 0.6774 0.0
H3726 H 0.25517 0.35761 0.67864 0.0
H3727 H 0.27503 0.35431 0.67847 0.0
C3728 C 0.66476 0.97628 0.62631 0.0
C3729 C 0.68301 0.98471 0.63492 0.0
C3730 C 0.65552 0.95761 0.61784 0.0
C3731 C 0.6648 0.94719 0.61792 0.0
C3732 C 0.68318 0.95559 0.62668 0.0
C3733 C 0.69205 0.97424 0.63511 0.0
C3734 C 0.63588 0.94907 0.60872 0.0
C3735 C 0.69354 0.94491 0.627 0.0
C3736 C 0.63773 0.89338 0.61106 0.0
C3737 C 0.64079 0.89027 0.59212 0.0
C3738 C 0.64491 0.91185 0.61947 0.0
C3739 C 0.65544 0.92755 0.60868 0.0
C3740 C 0.65796 0.92448 0.58935 0.0
C3741 C 0.65057 0.90586 0.58129 0.0
C3742 C 0.64187 0.91457 0.64011 0.0
C3743 C 0.66904 0.94087 0.57737 0.0
H3744 H 0.65767 0.98428 0.62615 0.0
H3745 H 0.70615 0.98067 0.64174 0.0
H3746 H 0.63562 0.94515 0.59337 0.0
H3747 H 0.6262 0.93584 0.61533 0.0
H3748 H 0.63051 0.95896 0.61015 0.0
H3749 H 0.70771 0.95343 0.63452 0.0
H3750 H 0.68538 0.93161 0.63414 0.0
H3751 H 0.69508 0.94083 0.61223 0.0
H3752 H 0.63039 0.88139 0.61957 0.0
H3753 H 0.65276 0.90349 0.56657 0.0
H3754 H 0.63617 0.92413 0.64174 0.0
H3755 H 0.6555 0.92141 0.64868 0.0
H3756 H 0.63212 0.90091 0.64604 0.0
H3757 H 0.66346 0.95059 0.57786 0.0
H3758 H 0.66871 0.93605 0.56227 0.0
H3759 H 0.68387 0.94918 0.58321 0.0
C3760 C 0.01782 0.73118 0.6774 0.0
C3761 C 0.00712 0.71302 0.68384 0.0
C3762 C 0.03418 0.73628 0.668 0.0
C3763 C 0.03994 0.72289 0.66497 0.0
C3764 C 0.02946 0.7047 0.67181 0.0
C3765 C 0.01319 0.69998 0.68117 0.0
C3766 C 0.04505 0.75585 0.66093 0.0
C3767 C 0.03518 0.69005 0.66884 0.0
C3768 C 0.06944 0.72962 0.62299 0.0
C3769 C 0.0876 0.73873 0.63187 0.0
C3770 C 0.05377 0.72397 0.63366 0.0
C3771 C 0.05636 0.72759 0.65371 0.0
C3772 C 0.07462 0.73623 0.66283 0.0
C3773 C 0.09006 0.74168 0.65178 0.0
C3774 C 0.03451 0.71461 0.62342 0.0
C3775 C 0.0779 0.74031 0.68418 0.0
H3776 H 0.0133 0.74137 0.67945 0.0
H3777 H 0.00507 0.68593 0.68615 0.0
H3778 H 0.05995 0.76303 0.66645 0.0
H3779 H 0.04478 0.75465 0.64516 0.0
H3780 H 0.03925 0.76492 0.66528 0.0
H3781 H 0.0261 0.67693 0.67595 0.0
H3782 H 0.0344 0.68616 0.65339 0.0
H3783 H 0.04993 0.696 0.67439 0.0
H3784 H 0.06752 0.72715 0.6076 0.0
H3785 H 0.10411 0.74889 0.65866 0.0
H3786 H 0.02835 0.72371 0.62576 0.0
H3787 H 0.02504 0.70082 0.62924 0.0
H3788 H 0.03484 0.71206 0.60785 0.0
H3789 H 0.07384 0.75077 0.68877 0.0
H3790 H 0.09279 0.74607 0.68914 0.0
H3791 H 0.06898 0.72719 0.69131 0.0
C3792 C 0.98042 0.63619 0.74472 0.0
C3793 C 0.96272 0.62968 0.73553 0.0
C3794 C 0.98487 0.62357 0.75266 0.0
C3795 C 0.97124 0.60396 0.75148 0.0
C3796 C 0.95345 0.59722 0.74191 0.0
C3797 C 0.9494 0.61018 0.73399 0.0
C3798 C 0.00404 0.6313 0.76266 0.0
C3799 C 0.93856 0.5764 0.74044 0.0
C3800 C 0.98927 0.57083 0.76131 0.0
C3801 C 0.98617 0.56831 0.78065 0.0
C3802 C 0.98401 0.58199 0.75143 0.0
C3803 C 0.97542 0.59076 0.76114 0.0
C3804 C 0.97186 0.58789 0.78053 0.0
C3805 C 0.97734 0.57677 0.79006 0.0
C3806 C 0.98803 0.58476 0.73076 0.0
C3807 C 0.96275 0.59703 0.79138 0.0
H3808 H 0.99084 0.65123 0.74585 0.0
H3809 H 0.9357 0.60508 0.72687 0.0
H3810 H 0.00263 0.62864 0.77795 0.0
H3811 H 0.01093 0.62388 0.75654 0.0
H3812 H 0.01333 0.6468 0.76156 0.0
H3813 H 0.9258 0.57333 0.73169 0.0
H3814 H 0.94415 0.5678 0.73411 0.0
H3815 H 0.93448 0.57172 0.75489 0.0
H3816 H 0.99586 0.56412 0.7539 0.0
H3817 H 0.97516 0.57513 0.80507 0.0
H3818 H -0.00173 0.59994 0.72913 0.0
H3819 H 0.97503 0.58092 0.72205 0.0
H3820 H 0.99383 0.57611 0.725 0.0
H3821 H 0.97203 0.61271 0.79236 0.0
H3822 H 0.95987 0.5924 0.80602 0.0
H3823 H 0.94934 0.59355 0.78372 0.0
C3824 C 0.35974 0.36813 0.74864 0.0
C3825 C 0.36794 0.35836 0.74056 0.0
C3826 C 0.37085 0.38643 0.75778 0.0
C3827 C 0.39061 0.39511 0.75894 0.0
C3828 C 0.39897 0.38531 0.75084 0.0
C3829 C 0.38753 0.36707 0.74171 0.0
C3830 C 0.36146 0.39649 0.76617 0.0
C3831 C 0.42002 0.3941 0.75188 0.0
C3832 C 0.42208 0.44863 0.76717 0.0
C3833 C 0.42799 0.45082 0.78648 0.0
C3834 C 0.40945 0.43061 0.75814 0.0
C3835 C 0.40263 0.41442 0.76868 0.0
C3836 C 0.40801 0.41661 0.78833 0.0
C3837 C 0.42061 0.4348 0.79701 0.0
C3838 C 0.40395 0.42883 0.73716 0.0
C3839 C 0.40097 0.39969 0.80006 0.0
H3840 H 0.3446 0.3615 0.74777 0.0
H3841 H 0.39395 0.35959 0.73552 0.0
H3842 H 0.36538 0.39996 0.78167 0.0
H3843 H 0.36637 0.4101 0.75963 0.0
H3844 H 0.34592 0.3878 0.76397 0.0
H3845 H 0.4243 0.3846 0.74488 0.0
H3846 H 0.4266 0.40765 0.74494 0.0
H3847 H 0.42565 0.39747 0.76697 0.0
H3848 H 0.42792 0.46092 0.7589 0.0
H3849 H 0.42496 0.43647 0.812 0.0
H3850 H 0.38846 0.42059 0.73458 0.0
H3851 H 0.40948 0.42095 0.72917 0.0
H3852 H 0.40943 0.44288 0.73135 0.0
H3853 H 0.38542 0.39119 0.79869 0.0
H3854 H 0.4057 0.40392 0.81538 0.0
H3855 H 0.4061 0.39034 0.79467 0.0
C3856 C 0.66346 0.05858 0.71043 0.0
C3857 C 0.66533 0.04716 0.69625 0.0
C3858 C 0.64716 0.05142 0.72039 0.0
C3859 C 0.63228 0.03252 0.71578 0.0
C3860 C 0.63394 0.02104 0.70124 0.0
C3861 C 0.65053 0.02845 0.69176 0.0
C3862 C 0.64597 0.06398 0.73601 0.0
C3863 C 0.61823 0.00093 0.69574 0.0
C3864 C 0.59766 0.00846 0.75315 0.0
C3865 C 0.58303 0.01126 0.74733 0.0
C3866 C 0.61374 0.01517 0.7429 0.0
C3867 C 0.61504 0.0247 0.72635 0.0
C3868 C 0.60007 0.02713 0.72014 0.0
C3869 C 0.58427 0.02048 0.73079 0.0
C3870 C 0.62951 0.01251 0.75007 0.0
C3871 C 0.60086 0.03696 0.70239 0.0
H3872 H 0.67491 0.07301 0.71403 0.0
H3873 H 0.65184 0.0196 0.68071 0.0
H3874 H 0.63373 0.0656 0.7328 0.0
H3875 H 0.64382 0.05728 0.74969 0.0
H3876 H 0.65881 0.07831 0.73789 0.0
H3877 H 0.62154 0.99408 0.68372 0.0
H3878 H 0.61536 0.99225 0.7081 0.0
H3879 H 0.60516 0.00081 0.69161 0.0
H3880 H 0.59679 0.00154 0.76608 0.0
H3881 H 0.57287 0.02251 0.72624 0.0
H3882 H 0.64242 0.02657 0.7535 0.0
H3883 H 0.6327 0.00481 0.73884 0.0
H3884 H 0.62613 0.00449 0.76299 0.0
H3885 H 0.61267 0.0519 0.70418 0.0
H3886 H 0.58769 0.03694 0.69904 0.0
H3887 H 0.6035 0.02991 0.69005 0.0
loop_
_geom_bond_atom_site_label_1
_geom_bond_atom_site_label_2
_geom_bond_distance
_geom_bond_site_symmetry_2
_ccdc_geom_bond_type
C0 O1 1.306 . S
C0 O3 1.160 . S
O1 C0 1.306 . S
O1 Cd2 2.228 . S
Cd2 O1 2.228 . S
Cd2 O6 2.273 . S
Cd2 O10 2.277 . S
O3 C0 1.160 . S
O3 Cd4 2.203 1_655 S
Cd4 O3 2.203 1_455 S
Cd4 O6 2.411 1_455 S
Cd4 O7 2.333 . S
Cd4 O8 2.352 . S
Cd4 O12 2.277 1_554 S
Cd4 O13 2.356 . S
C5 O10 1.209 1_456 S
C5 O12 1.226 . S
O6 Cd2 2.273 . S
O6 Cd4 2.411 1_655 S
O6 C9 1.320 1_655 S
O7 Cd4 2.333 . S
O7 C9 1.214 . S
O8 Cd4 2.352 . S
O8 C11 1.258 . S
C9 O6 1.320 1_455 S
C9 O7 1.214 . S
O10 Cd2 2.277 . S
O10 C5 1.209 1_654 S
C11 O8 1.258 . S
C11 O13 1.282 . S
O12 Cd4 2.277 1_556 S
O12 C5 1.226 . S
O13 Cd4 2.356 . S
O13 C11 1.282 . S
C14 O15 1.306 . S
C14 O17 1.160 . S
O15 C14 1.306 . S
O15 Cd16 2.228 . S
Cd16 O15 2.228 . S
Cd16 O20 2.273 . S
Cd16 O24 2.277 . S
O17 C14 1.160 . S
O17 Cd18 2.203 . S
Cd18 O17 2.203 . S
Cd18 O20 2.411 . S
Cd18 O21 2.333 . S
Cd18 O22 2.352 . S
Cd18 O26 2.277 . S
Cd18 O27 2.356 . S
C19 O24 1.209 . S
C19 O26 1.226 . S
O20 Cd16 2.273 . S
O20 Cd18 2.411 . S
O20 C23 1.320 . S
O21 Cd18 2.333 . S
O21 C23 1.214 . S
O22 Cd18 2.352 . S
O22 C25 1.258 . S
C23 O20 1.320 . S
C23 O21 1.214 . S
O24 Cd16 2.277 . S
O24 C19 1.209 . S
C25 O22 1.258 . S
C25 O27 1.282 . S
O26 Cd18 2.277 . S
O26 C19 1.226 . S
O27 Cd18 2.356 . S
O27 C25 1.282 . S
C28 O29 1.306 . S
C28 O31 1.160 . S
O29 C28 1.306 . S
O29 Cd30 2.228 . S
Cd30 O29 2.228 . S
Cd30 O34 2.273 . S
Cd30 O38 2.277 . S
O31 C28 1.160 . S
O31 Cd32 2.203 1_565 S
Cd32 O31 2.203 1_545 S
Cd32 O34 2.411 1_545 S
Cd32 O35 2.333 . S
Cd32 O36 2.386 . S
Cd32 O40 2.277 . S
Cd32 O41 2.356 . S
C33 O38 1.209 1_545 S
C33 O40 1.226 . S
O34 Cd30 2.273 . S
O34 Cd32 2.411 1_565 S
O34 C37 1.320 1_554 S
O35 Cd32 2.333 . S
O35 C37 1.214 1_544 S
O36 Cd32 2.386 . S
O36 C39 1.269 . S
C37 O34 1.320 1_556 S
C37 O35 1.214 1_566 S
O38 Cd30 2.277 . S
O38 C33 1.209 1_565 S
C39 O36 1.269 . S
C39 O41 1.282 . S
O40 Cd32 2.277 . S
O40 C33 1.226 . S
O41 Cd32 2.356 . S
O41 C39 1.282 . S
C42 O43 1.306 . S
C42 O45 1.160 . S
O43 C42 1.306 . S
O43 Cd44 2.228 . S
Cd44 O43 2.228 . S
Cd44 O48 2.273 . S
Cd44 O52 2.277 . S
O45 C42 1.160 . S
O45 Cd46 2.203 1_655 S
Cd46 O45 2.203 1_455 S
Cd46 O48 2.411 1_455 S
Cd46 O49 2.333 . S
Cd46 O50 2.352 . S
Cd46 O54 2.277 . S
Cd46 O55 2.356 . S
C47 O52 1.209 1_455 S
C47 O54 1.226 . S
O48 Cd44 2.273 . S
O48 Cd46 2.411 1_655 S
O48 C51 1.320 . S
O49 Cd46 2.333 . S
O49 C51 1.214 1_455 S
O50 Cd46 2.352 . S
O50 C53 1.258 . S
C51 O48 1.320 . S
C51 O49 1.214 1_655 S
O52 Cd44 2.277 . S
O52 C47 1.209 1_655 S
C53 O50 1.258 . S
C53 O55 1.282 . S
O54 Cd46 2.277 . S
O54 C47 1.226 . S
O55 Cd46 2.356 . S
O55 C53 1.282 . S
C56 O57 1.306 . S
C56 O59 1.160 . S
O57 C56 1.306 . S
O57 Cd58 2.228 . S
Cd58 O57 2.228 . S
Cd58 O62 2.273 1_554 S
Cd58 O66 2.277 . S
O59 C56 1.160 . S
O59 Cd60 2.203 . S
Cd60 O59 2.203 . S
Cd60 O62 2.411 1_554 S
Cd60 O63 2.333 1_554 S
Cd60 O64 2.352 1_554 S
Cd60 O68 2.277 . S
Cd60 O69 2.356 1_554 S
C61 O66 1.209 . S
C61 O68 1.226 . S
O62 Cd58 2.273 1_556 S
O62 Cd60 2.411 1_556 S
O62 C65 1.320 . S
O63 Cd60 2.333 1_556 S
O63 C65 1.214 . S
O64 Cd60 2.352 1_556 S
O64 C67 1.258 . S
C65 O62 1.320 . S
C65 O63 1.214 . S
O66 Cd58 2.277 . S
O66 C61 1.209 . S
C67 O64 1.258 . S
C67 O69 1.282 . S
O68 Cd60 2.277 . S
O68 C61 1.226 . S
O69 Cd60 2.356 1_556 S
O69 C67 1.282 . S
C70 O71 1.306 . S
C70 O73 1.160 . S
O71 C70 1.306 . S
O71 Cd72 2.228 . S
Cd72 O71 2.228 . S
Cd72 O76 2.273 . S
Cd72 O80 2.277 . S
O73 C70 1.160 . S
O73 Cd74 2.203 1_545 S
Cd74 O73 2.203 1_565 S
Cd74 O76 2.411 1_565 S
Cd74 O77 2.333 . S
Cd74 O78 2.352 . S
Cd74 O82 2.277 . S
Cd74 O83 2.356 . S
C75 O80 1.209 1_565 S
C75 O82 1.226 . S
O76 Cd72 2.273 . S
O76 Cd74 2.411 1_545 S
O76 C79 1.320 . S
O77 Cd74 2.333 . S
O77 C79 1.214 1_565 S
O78 Cd74 2.352 . S
O78 C81 1.258 . S
C79 O76 1.320 . S
C79 O77 1.214 1_545 S
O80 Cd72 2.277 . S
O80 C75 1.209 1_545 S
C81 O78 1.258 . S
C81 O83 1.282 . S
O82 Cd74 2.277 . S
O82 C75 1.226 . S
O83 Cd74 2.356 . S
O83 C81 1.282 . S
C84 O85 1.306 . S
C84 O87 1.160 . S
O85 C84 1.306 . S
O85 Cd86 2.228 . S
Cd86 O85 2.228 . S
Cd86 O90 2.273 . S
Cd86 O94 2.277 . S
O87 C84 1.160 . S
O87 Cd88 2.203 . S
Cd88 O87 2.203 . S
Cd88 O90 2.411 . S
Cd88 O91 2.333 . S
Cd88 O92 2.352 . S
Cd88 O96 2.277 . S
Cd88 O97 2.356 . S
C89 O94 1.209 . S
C89 O96 1.226 . S
O90 Cd86 2.273 . S
O90 Cd88 2.411 . S
O90 C93 1.320 . S
O91 Cd88 2.333 . S
O91 C93 1.214 . S
O92 Cd88 2.352 . S
O92 C95 1.258 . S
C93 O90 1.320 . S
C93 O91 1.214 . S
O94 Cd86 2.277 . S
O94 C89 1.209 . S
C95 O92 1.258 . S
C95 O97 1.282 . S
O96 Cd88 2.277 . S
O96 C89 1.226 . S
O97 Cd88 2.356 . S
O97 C95 1.282 . S
C98 O99 1.306 . S
C98 O101 1.160 . S
O99 C98 1.306 . S
O99 Cd100 2.228 . S
Cd100 O99 2.228 . S
Cd100 O104 2.273 . S
Cd100 O108 2.277 . S
O101 C98 1.160 . S
O101 Cd102 2.203 . S
Cd102 O101 2.203 . S
Cd102 O104 2.411 . S
Cd102 O105 2.333 . S
Cd102 O106 2.352 . S
Cd102 O110 2.277 . S
Cd102 O111 2.356 . S
C103 O108 1.209 . S
C103 O110 1.226 . S
O104 Cd100 2.273 . S
O104 Cd102 2.411 . S
O104 C107 1.320 . S
O105 Cd102 2.333 . S
O105 C107 1.214 . S
O106 Cd102 2.352 . S
O106 C109 1.258 . S
C107 O104 1.320 . S
C107 O105 1.214 . S
O108 Cd100 2.277 . S
O108 C103 1.209 . S
C109 O106 1.258 . S
C109 O111 1.282 . S
O110 Cd102 2.277 . S
O110 C103 1.226 . S
O111 Cd102 2.356 . S
O111 C109 1.282 . S
C112 O113 1.306 . S
C112 O115 1.160 . S
O113 C112 1.306 . S
O113 Cd114 2.228 . S
Cd114 O113 2.228 . S
Cd114 O118 2.273 . S
Cd114 O122 2.277 . S
O115 C112 1.160 . S
O115 Cd116 2.203 . S
Cd116 O115 2.203 . S
Cd116 O118 2.411 . S
Cd116 O119 2.333 . S
Cd116 O120 2.352 . S
Cd116 O124 2.277 . S
Cd116 O125 2.356 . S
C117 O122 1.209 . S
C117 O124 1.226 . S
O118 Cd114 2.273 . S
O118 Cd116 2.411 . S
O118 C121 1.320 . S
O119 Cd116 2.333 . S
O119 C121 1.214 . S
O120 Cd116 2.352 . S
O120 C123 1.258 . S
C121 O118 1.320 . S
C121 O119 1.214 . S
O122 Cd114 2.277 . S
O122 C117 1.209 . S
C123 O120 1.258 . S
C123 O125 1.282 . S
O124 Cd116 2.277 . S
O124 C117 1.226 . S
O125 Cd116 2.356 . S
O125 C123 1.282 . S
C126 O127 1.306 . S
C126 O129 1.160 . S
O127 C126 1.306 . S
O127 Cd128 2.228 . S
Cd128 O127 2.228 . S
Cd128 O132 2.273 . S
Cd128 O136 2.277 . S
O129 C126 1.160 . S
O129 Cd130 2.203 . S
Cd130 O129 2.203 . S
Cd130 O132 2.411 . S
Cd130 O133 2.333 . S
Cd130 O134 2.352 . S
Cd130 O138 2.277 . S
Cd130 O139 2.356 . S
C131 O136 1.209 . S
C131 O138 1.226 . S
O132 Cd128 2.273 . S
O132 Cd130 2.411 . S
O132 C135 1.320 . S
O133 Cd130 2.333 . S
O133 C135 1.214 . S
O134 Cd130 2.352 . S
O134 C137 1.258 1_565 S
C135 O132 1.320 . S
C135 O133 1.214 . S
O136 Cd128 2.277 . S
O136 C131 1.209 . S
C137 O134 1.258 1_545 S
C137 O139 1.282 1_545 S
O138 Cd130 2.277 . S
O138 C131 1.226 . S
O139 Cd130 2.356 . S
O139 C137 1.282 1_565 S
C140 O141 1.306 . S
C140 O143 1.160 . S
O141 C140 1.306 . S
O141 Cd142 2.228 . S
Cd142 O141 2.228 . S
Cd142 O146 2.273 . S
Cd142 O150 2.277 . S
O143 C140 1.160 . S
O143 Cd144 2.203 . S
Cd144 O143 2.203 . S
Cd144 O146 2.411 . S
Cd144 O147 2.333 . S
Cd144 O148 2.352 . S
Cd144 O152 2.277 . S
Cd144 O153 2.356 . S
C145 O150 1.209 . S
C145 O152 1.226 . S
O146 Cd142 2.273 . S
O146 Cd144 2.411 . S
O146 C149 1.320 . S
O147 Cd144 2.333 . S
O147 C149 1.214 . S
O148 Cd144 2.352 . S
O148 C151 1.258 . S
C149 O146 1.320 . S
C149 O147 1.214 . S
O150 Cd142 2.277 . S
O150 C145 1.209 . S
C151 O148 1.258 . S
C151 O153 1.282 . S
O152 Cd144 2.277 . S
O152 C145 1.226 . S
O153 Cd144 2.356 . S
O153 C151 1.282 . S
C154 O155 1.306 . S
C154 O157 1.160 . S
O155 C154 1.306 . S
O155 Cd156 2.228 . S
Cd156 O155 2.228 . S
Cd156 O160 2.273 . S
Cd156 O164 2.277 . S
O157 C154 1.160 . S
O157 Cd158 2.203 . S
Cd158 O157 2.203 . S
Cd158 O160 2.411 . S
Cd158 O161 2.333 . S
Cd158 O162 2.352 . S
Cd158 O166 2.277 . S
Cd158 O167 2.356 . S
C159 O164 1.209 . S
C159 O166 1.226 . S
O160 Cd156 2.273 . S
O160 Cd158 2.411 . S
O160 C163 1.320 . S
O161 Cd158 2.333 . S
O161 C163 1.214 . S
O162 Cd158 2.352 . S
O162 C165 1.258 . S
C163 O160 1.320 . S
C163 O161 1.214 . S
O164 Cd156 2.277 . S
O164 C159 1.209 . S
C165 O162 1.258 . S
C165 O167 1.282 . S
O166 Cd158 2.277 . S
O166 C159 1.226 . S
O167 Cd158 2.356 . S
O167 C165 1.282 . S
C168 O169 1.306 . S
C168 O171 1.160 . S
O169 C168 1.306 . S
O169 Cd170 2.228 . S
Cd170 O169 2.228 . S
Cd170 O174 2.273 . S
Cd170 O178 2.277 . S
O171 C168 1.160 . S
O171 Cd172 2.203 . S
Cd172 O171 2.203 . S
Cd172 O174 2.411 . S
Cd172 O175 2.333 . S
Cd172 O176 2.352 . S
Cd172 O180 2.277 . S
Cd172 O181 2.356 . S
C173 O178 1.209 . S
C173 O180 1.226 . S
O174 Cd170 2.273 . S
O174 Cd172 2.411 . S
O174 C177 1.320 . S
O175 Cd172 2.333 . S
O175 C177 1.214 . S
O176 Cd172 2.352 . S
O176 C179 1.258 . S
C177 O174 1.320 . S
C177 O175 1.214 . S
O178 Cd170 2.277 . S
O178 C173 1.209 . S
C179 O176 1.258 . S
C179 O181 1.282 . S
O180 Cd172 2.277 . S
O180 C173 1.226 . S
O181 Cd172 2.356 . S
O181 C179 1.282 . S
C182 O183 1.306 . S
C182 O185 1.160 . S
O183 C182 1.306 . S
O183 Cd184 2.228 . S
Cd184 O183 2.228 . S
Cd184 O188 2.273 . S
Cd184 O192 2.277 . S
O185 C182 1.160 . S
O185 Cd186 2.203 . S
Cd186 O185 2.203 . S
Cd186 O188 2.411 . S
Cd186 O189 2.333 . S
Cd186 O190 2.352 . S
Cd186 O194 2.277 . S
Cd186 O195 2.356 . S
C187 O192 1.209 . S
C187 O194 1.226 . S
O188 Cd184 2.273 . S
O188 Cd186 2.411 . S
O188 C191 1.320 . S
O189 Cd186 2.333 . S
O189 C191 1.214 . S
O190 Cd186 2.352 . S
O190 C193 1.258 1_655 S
C191 O188 1.320 . S
C191 O189 1.214 . S
O192 Cd184 2.277 . S
O192 C187 1.209 . S
C193 O190 1.258 1_455 S
C193 O195 1.282 1_455 S
O194 Cd186 2.277 . S
O194 C187 1.226 . S
O195 Cd186 2.356 . S
O195 C193 1.282 1_655 S
C196 O197 1.306 . S
C196 O199 1.160 . S
O197 C196 1.306 . S
O197 Cd198 2.228 . S
Cd198 O197 2.228 . S
Cd198 O202 2.273 . S
Cd198 O206 2.277 . S
O199 C196 1.160 . S
O199 Cd200 2.203 . S
Cd200 O199 2.203 . S
Cd200 O202 2.411 . S
Cd200 O203 2.333 . S
Cd200 O204 2.352 . S
Cd200 O208 2.277 . S
Cd200 O209 2.356 . S
C201 O206 1.209 . S
C201 O208 1.226 . S
O202 Cd198 2.273 . S
O202 Cd200 2.411 . S
O202 C205 1.320 . S
O203 Cd200 2.333 . S
O203 C205 1.214 . S
O204 Cd200 2.352 . S
O204 C207 1.258 . S
C205 O202 1.320 . S
C205 O203 1.214 . S
O206 Cd198 2.277 . S
O206 C201 1.209 . S
C207 O204 1.258 . S
C207 O209 1.282 . S
O208 Cd200 2.277 . S
O208 C201 1.226 . S
O209 Cd200 2.356 . S
O209 C207 1.282 . S
C210 O211 1.306 . S
C210 O213 1.160 . S
O211 C210 1.306 . S
O211 Cd212 2.228 . S
Cd212 O211 2.228 . S
Cd212 O216 2.273 . S
Cd212 O220 2.277 . S
O213 C210 1.160 . S
O213 Cd214 2.203 . S
Cd214 O213 2.203 . S
Cd214 O216 2.411 . S
Cd214 O217 2.333 . S
Cd214 O218 2.352 . S
Cd214 O222 2.277 . S
Cd214 O223 2.356 . S
C215 O220 1.209 . S
C215 O222 1.226 . S
O216 Cd212 2.273 . S
O216 Cd214 2.411 . S
O216 C219 1.320 . S
O217 Cd214 2.333 . S
O217 C219 1.214 . S
O218 Cd214 2.352 . S
O218 C221 1.258 . S
C219 O216 1.320 . S
C219 O217 1.214 . S
O220 Cd212 2.277 . S
O220 C215 1.209 . S
C221 O218 1.258 . S
C221 O223 1.282 . S
O222 Cd214 2.277 . S
O222 C215 1.226 . S
O223 Cd214 2.356 . S
O223 C221 1.282 . S
C224 O225 1.306 . S
C224 O227 1.160 . S
O225 C224 1.306 . S
O225 Cd226 2.228 . S
Cd226 O225 2.228 . S
Cd226 O230 2.273 . S
Cd226 O234 2.277 . S
O227 C224 1.160 . S
O227 Cd228 2.203 . S
Cd228 O227 2.203 . S
Cd228 O230 2.411 . S
Cd228 O231 2.333 . S
Cd228 O232 2.352 . S
Cd228 O236 2.277 . S
Cd228 O237 2.356 . S
C229 O234 1.209 . S
C229 O236 1.226 . S
O230 Cd226 2.273 . S
O230 Cd228 2.411 . S
O230 C233 1.320 . S
O231 Cd228 2.333 . S
O231 C233 1.214 . S
O232 Cd228 2.352 . S
O232 C235 1.258 . S
C233 O230 1.320 . S
C233 O231 1.214 . S
O234 Cd226 2.277 . S
O234 C229 1.209 . S
C235 O232 1.258 . S
C235 O237 1.282 . S
O236 Cd228 2.277 . S
O236 C229 1.226 . S
O237 Cd228 2.356 . S
O237 C235 1.282 . S
C238 O239 1.306 . S
C238 O241 1.160 . S
O239 C238 1.306 . S
O239 Cd240 2.228 . S
Cd240 O239 2.228 . S
Cd240 O244 2.273 . S
Cd240 O248 2.277 . S
O241 C238 1.160 . S
O241 Cd242 2.203 . S
Cd242 O241 2.203 . S
Cd242 O244 2.411 . S
Cd242 O245 2.333 . S
Cd242 O246 2.352 . S
Cd242 O250 2.277 . S
Cd242 O251 2.356 . S
C243 O248 1.209 . S
C243 O250 1.226 . S
O244 Cd240 2.273 . S
O244 Cd242 2.411 . S
O244 C247 1.320 . S
O245 Cd242 2.333 . S
O245 C247 1.214 . S
O246 Cd242 2.352 . S
O246 C249 1.258 . S
C247 O244 1.320 . S
C247 O245 1.214 . S
O248 Cd240 2.277 . S
O248 C243 1.209 . S
C249 O246 1.258 . S
C249 O251 1.282 . S
O250 Cd242 2.277 . S
O250 C243 1.226 . S
O251 Cd242 2.356 . S
O251 C249 1.282 . S
H252 O278 0.856 . S
H253 O281 0.854 . S
H254 C289 0.930 . S
H255 C290 0.930 . S
H256 C292 0.930 . S
H257 C293 0.930 . S
H258 C295 0.931 . S
H259 C296 0.930 . S
H260 C298 0.930 . S
H261 C299 0.929 . S
H262 C301 0.930 . S
H263 C302 0.931 . S
H264 C304 0.930 . S
H265 C305 0.929 . S
H266 C307 0.931 . S
H267 C308 0.930 . S
H268 C310 0.930 . S
H269 C311 0.932 . S
H270 C313 0.930 . S
H271 C314 0.929 . S
H272 C316 0.931 . S
H273 C317 0.930 . S
H274 C319 0.929 . S
H275 C320 0.931 . S
H276 C322 0.930 . S
H277 C323 0.929 . S
O278 H252 0.856 . S
O278 C324 1.300 . S
O279 C324 1.209 . S
O280 C325 1.199 . S
O281 H253 0.854 . S
O281 C325 1.297 . S
C282 C283 1.404 . S
C282 C287 1.397 . S
C282 C288 1.492 . S
C283 C282 1.404 . S
C283 C284 1.396 . S
C283 C294 1.492 . S
C284 C283 1.396 . S
C284 C285 1.397 . S
C284 C300 1.509 . S
C285 C284 1.397 . S
C285 C286 1.412 . S
C285 C306 1.485 . S
C286 C285 1.412 . S
C286 C287 1.388 . S
C286 C312 1.490 . S
C287 C282 1.397 . S
C287 C286 1.388 . S
C287 C318 1.519 . S
C288 C282 1.492 . S
C288 C289 1.363 . S
C288 C293 1.390 . S
C289 H254 0.930 . S
C289 C288 1.363 . S
C289 C290 1.372 . S
C290 H255 0.930 . S
C290 C289 1.372 . S
C290 C291 1.383 . S
C291 C290 1.383 . S
C291 C292 1.395 . S
C292 H256 0.930 . S
C292 C291 1.395 . S
C292 C293 1.362 . S
C293 H257 0.930 . S
C293 C288 1.390 . S
C293 C292 1.362 . S
C294 C283 1.492 . S
C294 C295 1.377 . S
C294 C299 1.397 . S
C295 H258 0.931 . S
C295 C294 1.377 . S
C295 C296 1.376 . S
C296 H259 0.930 . S
C296 C295 1.376 . S
C296 C297 1.376 . S
C297 C296 1.376 . S
C297 C298 1.378 . S
C297 C324 1.486 . S
C298 H260 0.930 . S
C298 C297 1.378 . S
C298 C299 1.376 . S
C299 H261 0.929 . S
C299 C294 1.397 . S
C299 C298 1.376 . S
C300 C284 1.509 . S
C300 C301 1.391 . S
C300 C305 1.386 . S
C301 H262 0.930 . S
C301 C300 1.391 . S
C301 C302 1.375 . S
C302 H263 0.931 . S
C302 C301 1.375 . S
C302 C303 1.375 . S
C303 C302 1.375 . S
C303 C304 1.361 . S
C304 H264 0.930 . S
C304 C303 1.361 . S
C304 C305 1.399 . S
C305 H265 0.929 . S
C305 C300 1.386 . S
C305 C304 1.399 . S
C306 C285 1.485 . S
C306 C307 1.394 . S
C306 C311 1.360 . S
C307 H266 0.931 . S
C307 C306 1.394 . S
C307 C308 1.372 . S
C308 H267 0.930 . S
C308 C307 1.372 . S
C308 C309 1.397 . S
C309 C308 1.397 . S
C309 C310 1.390 . S
C309 C325 1.476 . S
C310 H268 0.930 . S
C310 C309 1.390 . S
C310 C311 1.366 . S
C311 H269 0.932 . S
C311 C306 1.360 . S
C311 C310 1.366 . S
C312 C286 1.490 . S
C312 C313 1.380 . S
C312 C317 1.386 . S
C313 H270 0.930 . S
C313 C312 1.380 . S
C313 C314 1.381 . S
C314 H271 0.929 . S
C314 C313 1.381 . S
C314 C315 1.371 . S
C315 C314 1.371 . S
C315 C316 1.380 . S
C316 H272 0.931 . S
C316 C315 1.380 . S
C316 C317 1.387 . S
C317 H273 0.930 . S
C317 C312 1.386 . S
C317 C316 1.387 . S
C318 C287 1.519 . S
C318 C319 1.377 . S
C318 C323 1.361 . S
C319 H274 0.929 . S
C319 C318 1.377 . S
C319 C320 1.386 . S
C320 H275 0.931 . S
C320 C319 1.386 . S
C320 C321 1.363 . S
C321 C320 1.363 . S
C321 C322 1.385 . S
C322 H276 0.930 . S
C322 C321 1.385 . S
C322 C323 1.396 . S
C323 H277 0.929 . S
C323 C318 1.361 . S
C323 C322 1.396 . S
C324 O278 1.300 . S
C324 O279 1.209 . S
C324 C297 1.486 . S
C325 O280 1.199 . S
C325 O281 1.297 . S
C325 C309 1.476 . S
H326 O352 0.856 . S
H327 O355 0.854 . S
H328 C363 0.930 . S
H329 C364 0.930 . S
H330 C366 0.930 . S
H331 C367 0.930 . S
H332 C369 0.931 . S
H333 C370 0.930 . S
H334 C372 0.930 . S
H335 C373 0.929 . S
H336 C375 0.930 . S
H337 C376 0.931 . S
H338 C378 0.930 . S
H339 C379 0.929 . S
H340 C381 0.931 . S
H341 C382 0.930 . S
H342 C384 0.930 . S
H343 C385 0.932 . S
H344 C387 0.930 . S
H345 C388 0.929 . S
H346 C390 0.931 . S
H347 C391 0.930 . S
H348 C393 0.929 . S
H349 C394 0.931 . S
H350 C396 0.930 . S
H351 C397 0.929 . S
O352 H326 0.856 . S
O352 C398 1.300 . S
O353 C398 1.209 . S
O354 C399 1.199 . S
O355 H327 0.854 . S
O355 C399 1.297 . S
C356 C357 1.404 . S
C356 C361 1.397 . S
C356 C362 1.492 . S
C357 C356 1.404 . S
C357 C358 1.396 . S
C357 C368 1.492 . S
C358 C357 1.396 . S
C358 C359 1.397 . S
C358 C374 1.509 . S
C359 C358 1.397 . S
C359 C360 1.412 . S
C359 C380 1.485 . S
C360 C359 1.412 . S
C360 C361 1.388 . S
C360 C386 1.490 . S
C361 C356 1.397 . S
C361 C360 1.388 . S
C361 C392 1.519 . S
C362 C356 1.492 . S
C362 C363 1.363 . S
C362 C367 1.390 . S
C363 H328 0.930 . S
C363 C362 1.363 . S
C363 C364 1.372 . S
C364 H329 0.930 . S
C364 C363 1.372 . S
C364 C365 1.383 . S
C365 C364 1.383 . S
C365 C366 1.395 . S
C366 H330 0.930 . S
C366 C365 1.395 . S
C366 C367 1.362 . S
C367 H331 0.930 . S
C367 C362 1.390 . S
C367 C366 1.362 . S
C368 C357 1.492 . S
C368 C369 1.377 . S
C368 C373 1.397 . S
C369 H332 0.931 . S
C369 C368 1.377 . S
C369 C370 1.376 . S
C370 H333 0.930 . S
C370 C369 1.376 . S
C370 C371 1.376 . S
C371 C370 1.376 . S
C371 C372 1.378 . S
C371 C398 1.486 . S
C372 H334 0.930 . S
C372 C371 1.378 . S
C372 C373 1.376 . S
C373 H335 0.929 . S
C373 C368 1.397 . S
C373 C372 1.376 . S
C374 C358 1.509 . S
C374 C375 1.391 . S
C374 C379 1.386 . S
C375 H336 0.930 . S
C375 C374 1.391 . S
C375 C376 1.375 . S
C376 H337 0.931 . S
C376 C375 1.375 . S
C376 C377 1.375 . S
C377 C376 1.375 . S
C377 C378 1.361 . S
C378 H338 0.930 . S
C378 C377 1.361 . S
C378 C379 1.399 . S
C379 H339 0.929 . S
C379 C374 1.386 . S
C379 C378 1.399 . S
C380 C359 1.485 . S
C380 C381 1.394 . S
C380 C385 1.360 . S
C381 H340 0.931 . S
C381 C380 1.394 . S
C381 C382 1.372 . S
C382 H341 0.930 . S
C382 C381 1.372 . S
C382 C383 1.397 . S
C383 C382 1.397 . S
C383 C384 1.390 . S
C383 C399 1.476 . S
C384 H342 0.930 . S
C384 C383 1.390 . S
C384 C385 1.366 . S
C385 H343 0.932 . S
C385 C380 1.360 . S
C385 C384 1.366 . S
C386 C360 1.490 . S
C386 C387 1.380 . S
C386 C391 1.386 . S
C387 H344 0.930 . S
C387 C386 1.380 . S
C387 C388 1.381 . S
C388 H345 0.929 . S
C388 C387 1.381 . S
C388 C389 1.371 . S
C389 C388 1.371 . S
C389 C390 1.380 . S
C390 H346 0.931 . S
C390 C389 1.380 . S
C390 C391 1.387 . S
C391 H347 0.930 . S
C391 C386 1.386 . S
C391 C390 1.387 . S
C392 C361 1.519 . S
C392 C393 1.377 . S
C392 C397 1.361 . S
C393 H348 0.929 . S
C393 C392 1.377 . S
C393 C394 1.386 . S
C394 H349 0.931 . S
C394 C393 1.386 . S
C394 C395 1.363 . S
C395 C394 1.363 . S
C395 C396 1.385 . S
C396 H350 0.930 . S
C396 C395 1.385 . S
C396 C397 1.396 . S
C397 H351 0.929 . S
C397 C392 1.361 . S
C397 C396 1.396 . S
C398 O352 1.300 . S
C398 O353 1.209 . S
C398 C371 1.486 . S
C399 O354 1.199 . S
C399 O355 1.297 . S
C399 C383 1.476 . S
H400 O426 0.856 . S
H401 O429 0.854 . S
H402 C437 0.930 . S
H403 C438 0.930 . S
H404 C440 0.930 . S
H405 C441 0.930 . S
H406 C443 0.931 . S
H407 C444 0.930 . S
H408 C446 0.930 . S
H409 C447 0.929 . S
H410 C449 0.930 . S
H411 C450 0.931 . S
H412 C452 0.930 . S
H413 C453 0.929 . S
H414 C455 0.931 . S
H415 C456 0.930 . S
H416 C458 0.930 . S
H417 C459 0.932 . S
H418 C461 0.930 . S
H419 C462 0.929 . S
H420 C464 0.931 . S
H421 C465 0.930 . S
H422 C467 0.929 . S
H423 C468 0.931 . S
H424 C470 0.930 . S
H425 C471 0.929 . S
O426 H400 0.856 . S
O426 C472 1.300 . S
O427 C472 1.209 . S
O428 C473 1.199 . S
O429 H401 0.854 . S
O429 C473 1.297 . S
C430 C431 1.404 . S
C430 C435 1.397 . S
C430 C436 1.492 . S
C431 C430 1.404 . S
C431 C432 1.396 . S
C431 C442 1.492 . S
C432 C431 1.396 . S
C432 C433 1.397 . S
C432 C448 1.509 . S
C433 C432 1.397 . S
C433 C434 1.412 . S
C433 C454 1.485 . S
C434 C433 1.412 . S
C434 C435 1.388 . S
C434 C460 1.490 . S
C435 C430 1.397 . S
C435 C434 1.388 . S
C435 C466 1.519 . S
C436 C430 1.492 . S
C436 C437 1.363 . S
C436 C441 1.390 . S
C437 H402 0.930 . S
C437 C436 1.363 . S
C437 C438 1.372 . S
C438 H403 0.930 . S
C438 C437 1.372 . S
C438 C439 1.383 . S
C439 C438 1.383 . S
C439 C440 1.395 . S
C440 H404 0.930 . S
C440 C439 1.395 . S
C440 C441 1.362 . S
C441 H405 0.930 . S
C441 C436 1.390 . S
C441 C440 1.362 . S
C442 C431 1.492 . S
C442 C443 1.377 . S
C442 C447 1.397 . S
C443 H406 0.931 . S
C443 C442 1.377 . S
C443 C444 1.376 . S
C444 H407 0.930 . S
C444 C443 1.376 . S
C444 C445 1.376 . S
C445 C444 1.376 . S
C445 C446 1.378 . S
C445 C472 1.486 . S
C446 H408 0.930 . S
C446 C445 1.378 . S
C446 C447 1.376 . S
C447 H409 0.929 . S
C447 C442 1.397 . S
C447 C446 1.376 . S
C448 C432 1.509 . S
C448 C449 1.391 . S
C448 C453 1.386 . S
C449 H410 0.930 . S
C449 C448 1.391 . S
C449 C450 1.375 . S
C450 H411 0.931 . S
C450 C449 1.375 . S
C450 C451 1.375 . S
C451 C450 1.375 . S
C451 C452 1.361 . S
C452 H412 0.930 . S
C452 C451 1.361 . S
C452 C453 1.399 . S
C453 H413 0.929 . S
C453 C448 1.386 . S
C453 C452 1.399 . S
C454 C433 1.485 . S
C454 C455 1.394 . S
C454 C459 1.360 . S
C455 H414 0.931 . S
C455 C454 1.394 . S
C455 C456 1.372 . S
C456 H415 0.930 . S
C456 C455 1.372 . S
C456 C457 1.397 . S
C457 C456 1.397 . S
C457 C458 1.390 . S
C457 C473 1.476 . S
C458 H416 0.930 . S
C458 C457 1.390 . S
C458 C459 1.366 . S
C459 H417 0.932 . S
C459 C454 1.360 . S
C459 C458 1.366 . S
C460 C434 1.490 . S
C460 C461 1.380 . S
C460 C465 1.386 . S
C461 H418 0.930 . S
C461 C460 1.380 . S
C461 C462 1.381 . S
C462 H419 0.929 . S
C462 C461 1.381 . S
C462 C463 1.371 . S
C463 C462 1.371 . S
C463 C464 1.380 . S
C464 H420 0.931 . S
C464 C463 1.380 . S
C464 C465 1.387 . S
C465 H421 0.930 . S
C465 C460 1.386 . S
C465 C464 1.387 . S
C466 C435 1.519 . S
C466 C467 1.377 . S
C466 C471 1.361 . S
C467 H422 0.929 . S
C467 C466 1.377 . S
C467 C468 1.386 . S
C468 H423 0.931 . S
C468 C467 1.386 . S
C468 C469 1.363 . S
C469 C468 1.363 . S
C469 C470 1.385 . S
C470 H424 0.930 . S
C470 C469 1.385 . S
C470 C471 1.396 . S
C471 H425 0.929 . S
C471 C466 1.361 . S
C471 C470 1.396 . S
C472 O426 1.300 . S
C472 O427 1.209 . S
C472 C445 1.486 . S
C473 O428 1.199 . S
C473 O429 1.297 . S
C473 C457 1.476 . S
H474 O500 0.840 1_554 S
H475 O503 0.854 . S
H476 C511 0.930 . S
H477 C512 0.930 . S
H478 C514 0.930 . S
H479 C515 0.930 . S
H480 C517 0.931 . S
H481 C518 0.930 . S
H482 C520 0.930 . S
H483 C521 0.929 . S
H484 C523 0.930 . S
H485 C524 0.931 . S
H486 C526 0.930 . S
H487 C527 0.929 . S
H488 C529 0.931 . S
H489 C530 0.930 . S
H490 C532 0.930 . S
H491 C533 0.932 . S
H492 C535 0.930 . S
H493 C536 0.929 . S
H494 C538 0.931 . S
H495 C539 0.930 . S
H496 C541 0.929 . S
H497 C542 0.931 . S
H498 C544 0.930 . S
H499 C545 0.929 . S
O500 H474 0.840 1_556 S
O500 C546 1.312 . S
O501 C546 1.209 . S
O502 C547 1.199 . S
O503 H475 0.854 . S
O503 C547 1.297 . S
C504 C505 1.404 . S
C504 C509 1.397 . S
C504 C510 1.492 . S
C505 C504 1.404 . S
C505 C506 1.396 . S
C505 C516 1.492 . S
C506 C505 1.396 . S
C506 C507 1.397 . S
C506 C522 1.509 . S
C507 C506 1.397 . S
C507 C508 1.412 . S
C507 C528 1.485 . S
C508 C507 1.412 . S
C508 C509 1.388 . S
C508 C534 1.490 . S
C509 C504 1.397 . S
C509 C508 1.388 . S
C509 C540 1.519 . S
C510 C504 1.492 . S
C510 C511 1.363 . S
C510 C515 1.390 . S
C511 H476 0.930 . S
C511 C510 1.363 . S
C511 C512 1.372 . S
C512 H477 0.930 . S
C512 C511 1.372 . S
C512 C513 1.383 . S
C513 C512 1.383 . S
C513 C514 1.395 . S
C514 H478 0.930 . S
C514 C513 1.395 . S
C514 C515 1.362 . S
C515 H479 0.930 . S
C515 C510 1.390 . S
C515 C514 1.362 . S
C516 C505 1.492 . S
C516 C517 1.377 . S
C516 C521 1.397 . S
C517 H480 0.931 . S
C517 C516 1.377 . S
C517 C518 1.376 . S
C518 H481 0.930 . S
C518 C517 1.376 . S
C518 C519 1.376 . S
C519 C518 1.376 . S
C519 C520 1.378 . S
C519 C546 1.486 . S
C520 H482 0.930 . S
C520 C519 1.378 . S
C520 C521 1.376 . S
C521 H483 0.929 . S
C521 C516 1.397 . S
C521 C520 1.376 . S
C522 C506 1.509 . S
C522 C523 1.391 . S
C522 C527 1.386 . S
C523 H484 0.930 . S
C523 C522 1.391 . S
C523 C524 1.375 . S
C524 H485 0.931 . S
C524 C523 1.375 . S
C524 C525 1.375 . S
C525 C524 1.375 . S
C525 C526 1.361 . S
C526 H486 0.930 . S
C526 C525 1.361 . S
C526 C527 1.399 . S
C527 H487 0.929 . S
C527 C522 1.386 . S
C527 C526 1.399 . S
C528 C507 1.485 . S
C528 C529 1.394 . S
C528 C533 1.360 . S
C529 H488 0.931 . S
C529 C528 1.394 . S
C529 C530 1.372 . S
C530 H489 0.930 . S
C530 C529 1.372 . S
C530 C531 1.397 . S
C531 C530 1.397 . S
C531 C532 1.390 . S
C531 C547 1.476 . S
C532 H490 0.930 . S
C532 C531 1.390 . S
C532 C533 1.366 . S
C533 H491 0.932 . S
C533 C528 1.360 . S
C533 C532 1.366 . S
C534 C508 1.490 . S
C534 C535 1.380 . S
C534 C539 1.386 . S
C535 H492 0.930 . S
C535 C534 1.380 . S
C535 C536 1.381 . S
C536 H493 0.929 . S
C536 C535 1.381 . S
C536 C537 1.371 . S
C537 C536 1.371 . S
C537 C538 1.380 . S
C538 H494 0.931 . S
C538 C537 1.380 . S
C538 C539 1.387 . S
C539 H495 0.930 . S
C539 C534 1.386 . S
C539 C538 1.387 . S
C540 C509 1.519 . S
C540 C541 1.377 . S
C540 C545 1.361 . S
C541 H496 0.929 . S
C541 C540 1.377 . S
C541 C542 1.386 . S
C542 H497 0.931 . S
C542 C541 1.386 . S
C542 C543 1.363 . S
C543 C542 1.363 . S
C543 C544 1.385 . S
C544 H498 0.930 . S
C544 C543 1.385 . S
C544 C545 1.396 . S
C545 H499 0.929 . S
C545 C540 1.361 . S
C545 C544 1.396 . S
C546 O500 1.312 . S
C546 O501 1.209 . S
C546 C519 1.486 . S
C547 O502 1.199 . S
C547 O503 1.297 . S
C547 C531 1.476 . S
H548 O574 0.856 . S
H549 O577 0.854 . S
H550 C585 0.930 . S
H551 C586 0.930 . S
H552 C588 0.930 . S
H553 C589 0.930 . S
H554 C591 0.931 . S
H555 C592 0.930 . S
H556 C594 0.930 . S
H557 C595 0.929 . S
H558 C597 0.930 . S
H559 C598 0.931 . S
H560 C600 0.930 . S
H561 C601 0.929 . S
H562 C603 0.931 . S
H563 C604 0.930 . S
H564 C606 0.930 . S
H565 C607 0.932 . S
H566 C609 0.930 . S
H567 C610 0.929 . S
H568 C612 0.931 . S
H569 C613 0.930 . S
H570 C615 0.929 . S
H571 C616 0.931 . S
H572 C618 0.930 . S
H573 C619 0.929 . S
O574 H548 0.856 . S
O574 C620 1.300 . S
O575 C620 1.209 . S
O576 C621 1.199 . S
O577 H549 0.854 . S
O577 C621 1.297 . S
C578 C579 1.404 . S
C578 C583 1.397 . S
C578 C584 1.492 . S
C579 C578 1.404 . S
C579 C580 1.396 . S
C579 C590 1.492 . S
C580 C579 1.396 . S
C580 C581 1.397 . S
C580 C596 1.509 . S
C581 C580 1.397 . S
C581 C582 1.412 . S
C581 C602 1.485 . S
C582 C581 1.412 . S
C582 C583 1.388 . S
C582 C608 1.490 . S
C583 C578 1.397 . S
C583 C582 1.388 . S
C583 C614 1.519 . S
C584 C578 1.492 . S
C584 C585 1.363 . S
C584 C589 1.390 . S
C585 H550 0.930 . S
C585 C584 1.363 . S
C585 C586 1.372 . S
C586 H551 0.930 . S
C586 C585 1.372 . S
C586 C587 1.383 . S
C587 C586 1.383 . S
C587 C588 1.395 . S
C588 H552 0.930 . S
C588 C587 1.395 . S
C588 C589 1.362 . S
C589 H553 0.930 . S
C589 C584 1.390 . S
C589 C588 1.362 . S
C590 C579 1.492 . S
C590 C591 1.377 . S
C590 C595 1.397 . S
C591 H554 0.931 . S
C591 C590 1.377 . S
C591 C592 1.376 . S
C592 H555 0.930 . S
C592 C591 1.376 . S
C592 C593 1.376 . S
C593 C592 1.376 . S
C593 C594 1.378 . S
C593 C620 1.486 1_556 S
C594 H556 0.930 . S
C594 C593 1.378 . S
C594 C595 1.376 . S
C595 H557 0.929 . S
C595 C590 1.397 . S
C595 C594 1.376 . S
C596 C580 1.509 . S
C596 C597 1.391 . S
C596 C601 1.386 . S
C597 H558 0.930 . S
C597 C596 1.391 . S
C597 C598 1.375 . S
C598 H559 0.931 . S
C598 C597 1.375 . S
C598 C599 1.375 . S
C599 C598 1.375 . S
C599 C600 1.361 . S
C600 H560 0.930 . S
C600 C599 1.361 . S
C600 C601 1.399 . S
C601 H561 0.929 . S
C601 C596 1.386 . S
C601 C600 1.399 . S
C602 C581 1.485 . S
C602 C603 1.394 . S
C602 C607 1.360 . S
C603 H562 0.931 . S
C603 C602 1.394 . S
C603 C604 1.372 . S
C604 H563 0.930 . S
C604 C603 1.372 . S
C604 C605 1.397 . S
C605 C604 1.397 . S
C605 C606 1.390 . S
C605 C621 1.476 . S
C606 H564 0.930 . S
C606 C605 1.390 . S
C606 C607 1.366 . S
C607 H565 0.932 . S
C607 C602 1.360 . S
C607 C606 1.366 . S
C608 C582 1.490 . S
C608 C609 1.380 . S
C608 C613 1.386 . S
C609 H566 0.930 . S
C609 C608 1.380 . S
C609 C610 1.381 . S
C610 H567 0.929 . S
C610 C609 1.381 . S
C610 C611 1.371 . S
C611 C610 1.371 . S
C611 C612 1.380 . S
C612 H568 0.931 . S
C612 C611 1.380 . S
C612 C613 1.387 . S
C613 H569 0.930 . S
C613 C608 1.386 . S
C613 C612 1.387 . S
C614 C583 1.519 . S
C614 C615 1.377 . S
C614 C619 1.361 . S
C615 H570 0.929 . S
C615 C614 1.377 . S
C615 C616 1.386 . S
C616 H571 0.931 . S
C616 C615 1.386 . S
C616 C617 1.363 . S
C617 C616 1.363 . S
C617 C618 1.385 . S
C618 H572 0.930 . S
C618 C617 1.385 . S
C618 C619 1.396 . S
C619 H573 0.929 . S
C619 C614 1.361 . S
C619 C618 1.396 . S
C620 O574 1.300 . S
C620 O575 1.209 . S
C620 C593 1.486 1_554 S
C621 O576 1.199 . S
C621 O577 1.297 . S
C621 C605 1.476 . S
H622 O648 0.856 . S
H623 O651 0.854 . S
H624 C659 0.930 . S
H625 C660 0.930 . S
H626 C662 0.930 . S
H627 C663 0.930 . S
H628 C665 0.931 . S
H629 C666 0.930 . S
H630 C668 0.930 . S
H631 C669 0.929 . S
H632 C671 0.930 . S
H633 C672 0.931 . S
H634 C674 0.930 . S
H635 C675 0.929 . S
H636 C677 0.931 . S
H637 C678 0.930 . S
H638 C680 0.930 . S
H639 C681 0.932 . S
H640 C683 0.930 . S
H641 C684 0.929 . S
H642 C686 0.931 . S
H643 C687 0.930 . S
H644 C689 0.929 . S
H645 C690 0.931 . S
H646 C692 0.930 . S
H647 C693 0.929 . S
O648 H622 0.856 . S
O648 C694 1.300 . S
O649 C694 1.209 . S
O650 C695 1.199 . S
O651 H623 0.854 . S
O651 C695 1.297 . S
C652 C653 1.404 . S
C652 C657 1.397 . S
C652 C658 1.492 . S
C653 C652 1.404 . S
C653 C654 1.396 . S
C653 C664 1.492 . S
C654 C653 1.396 . S
C654 C655 1.397 . S
C654 C670 1.509 . S
C655 C654 1.397 . S
C655 C656 1.412 . S
C655 C676 1.485 . S
C656 C655 1.412 . S
C656 C657 1.388 . S
C656 C682 1.490 . S
C657 C652 1.397 . S
C657 C656 1.388 . S
C657 C688 1.519 . S
C658 C652 1.492 . S
C658 C659 1.363 . S
C658 C663 1.390 . S
C659 H624 0.930 . S
C659 C658 1.363 . S
C659 C660 1.372 . S
C660 H625 0.930 . S
C660 C659 1.372 . S
C660 C661 1.383 . S
C661 C660 1.383 . S
C661 C662 1.395 . S
C662 H626 0.930 . S
C662 C661 1.395 . S
C662 C663 1.362 . S
C663 H627 0.930 . S
C663 C658 1.390 . S
C663 C662 1.362 . S
C664 C653 1.492 . S
C664 C665 1.377 . S
C664 C669 1.397 . S
C665 H628 0.931 . S
C665 C664 1.377 . S
C665 C666 1.376 . S
C666 H629 0.930 . S
C666 C665 1.376 . S
C666 C667 1.376 . S
C667 C666 1.376 . S
C667 C668 1.378 . S
C667 C694 1.486 1_556 S
C668 H630 0.930 . S
C668 C667 1.378 . S
C668 C669 1.376 . S
C669 H631 0.929 . S
C669 C664 1.397 . S
C669 C668 1.376 . S
C670 C654 1.509 . S
C670 C671 1.391 . S
C670 C675 1.386 . S
C671 H632 0.930 . S
C671 C670 1.391 . S
C671 C672 1.375 . S
C672 H633 0.931 . S
C672 C671 1.375 . S
C672 C673 1.375 . S
C673 C672 1.375 . S
C673 C674 1.361 . S
C674 H634 0.930 . S
C674 C673 1.361 . S
C674 C675 1.399 . S
C675 H635 0.929 . S
C675 C670 1.386 . S
C675 C674 1.399 . S
C676 C655 1.485 . S
C676 C677 1.394 . S
C676 C681 1.360 . S
C677 H636 0.931 . S
C677 C676 1.394 . S
C677 C678 1.372 . S
C678 H637 0.930 . S
C678 C677 1.372 . S
C678 C679 1.397 . S
C679 C678 1.397 . S
C679 C680 1.390 . S
C679 C695 1.476 . S
C680 H638 0.930 . S
C680 C679 1.390 . S
C680 C681 1.366 . S
C681 H639 0.932 . S
C681 C676 1.360 . S
C681 C680 1.366 . S
C682 C656 1.490 . S
C682 C683 1.380 . S
C682 C687 1.386 . S
C683 H640 0.930 . S
C683 C682 1.380 . S
C683 C684 1.381 . S
C684 H641 0.929 . S
C684 C683 1.381 . S
C684 C685 1.371 . S
C685 C684 1.371 . S
C685 C686 1.380 . S
C686 H642 0.931 . S
C686 C685 1.380 . S
C686 C687 1.387 . S
C687 H643 0.930 . S
C687 C682 1.386 . S
C687 C686 1.387 . S
C688 C657 1.519 . S
C688 C689 1.377 . S
C688 C693 1.361 . S
C689 H644 0.929 . S
C689 C688 1.377 . S
C689 C690 1.386 . S
C690 H645 0.931 . S
C690 C689 1.386 . S
C690 C691 1.363 . S
C691 C690 1.363 . S
C691 C692 1.385 . S
C692 H646 0.930 . S
C692 C691 1.385 . S
C692 C693 1.396 . S
C693 H647 0.929 . S
C693 C688 1.361 . S
C693 C692 1.396 . S
C694 O648 1.300 . S
C694 O649 1.209 . S
C694 C667 1.486 1_554 S
C695 O650 1.199 . S
C695 O651 1.297 . S
C695 C679 1.476 . S
H696 O722 0.856 . S
H697 O725 0.854 . S
H698 C733 0.930 . S
H699 C734 0.930 . S
H700 C736 0.930 . S
H701 C737 0.930 . S
H702 C739 0.931 . S
H703 C740 0.930 . S
H704 C742 0.930 . S
H705 C743 0.929 . S
H706 C745 0.930 . S
H707 C746 0.931 . S
H708 C748 0.930 . S
H709 C749 0.929 . S
H710 C751 0.931 . S
H711 C752 0.930 . S
H712 C754 0.930 . S
H713 C755 0.932 . S
H714 C757 0.930 . S
H715 C758 0.929 . S
H716 C760 0.931 . S
H717 C761 0.930 . S
H718 C763 0.929 . S
H719 C764 0.931 . S
H720 C766 0.930 . S
H721 C767 0.929 . S
O722 H696 0.856 . S
O722 C768 1.300 . S
O723 C768 1.209 . S
O724 C769 1.199 . S
O725 H697 0.854 . S
O725 C769 1.297 . S
C726 C727 1.404 . S
C726 C731 1.397 . S
C726 C732 1.492 . S
C727 C726 1.404 . S
C727 C728 1.396 . S
C727 C738 1.492 . S
C728 C727 1.396 . S
C728 C729 1.397 . S
C728 C744 1.509 . S
C729 C728 1.397 . S
C729 C730 1.412 . S
C729 C750 1.485 . S
C730 C729 1.412 . S
C730 C731 1.388 . S
C730 C756 1.490 . S
C731 C726 1.397 . S
C731 C730 1.388 . S
C731 C762 1.519 . S
C732 C726 1.492 . S
C732 C733 1.363 . S
C732 C737 1.390 . S
C733 H698 0.930 . S
C733 C732 1.363 . S
C733 C734 1.372 . S
C734 H699 0.930 . S
C734 C733 1.372 . S
C734 C735 1.383 . S
C735 C734 1.383 . S
C735 C736 1.395 . S
C736 H700 0.930 . S
C736 C735 1.395 . S
C736 C737 1.362 . S
C737 H701 0.930 . S
C737 C732 1.390 . S
C737 C736 1.362 . S
C738 C727 1.492 . S
C738 C739 1.377 . S
C738 C743 1.397 . S
C739 H702 0.931 . S
C739 C738 1.377 . S
C739 C740 1.376 . S
C740 H703 0.930 . S
C740 C739 1.376 . S
C740 C741 1.376 . S
C741 C740 1.376 . S
C741 C742 1.378 . S
C741 C768 1.486 . S
C742 H704 0.930 . S
C742 C741 1.378 . S
C742 C743 1.376 . S
C743 H705 0.929 . S
C743 C738 1.397 . S
C743 C742 1.376 . S
C744 C728 1.509 . S
C744 C745 1.391 . S
C744 C749 1.386 . S
C745 H706 0.930 . S
C745 C744 1.391 . S
C745 C746 1.375 . S
C746 H707 0.931 . S
C746 C745 1.375 . S
C746 C747 1.375 . S
C747 C746 1.375 . S
C747 C748 1.361 . S
C748 H708 0.930 . S
C748 C747 1.361 . S
C748 C749 1.399 . S
C749 H709 0.929 . S
C749 C744 1.386 . S
C749 C748 1.399 . S
C750 C729 1.485 . S
C750 C751 1.394 . S
C750 C755 1.360 . S
C751 H710 0.931 . S
C751 C750 1.394 . S
C751 C752 1.372 . S
C752 H711 0.930 . S
C752 C751 1.372 . S
C752 C753 1.397 . S
C753 C752 1.397 . S
C753 C754 1.390 . S
C753 C769 1.476 . S
C754 H712 0.930 . S
C754 C753 1.390 . S
C754 C755 1.366 . S
C755 H713 0.932 . S
C755 C750 1.360 . S
C755 C754 1.366 . S
C756 C730 1.490 . S
C756 C757 1.380 . S
C756 C761 1.386 . S
C757 H714 0.930 . S
C757 C756 1.380 . S
C757 C758 1.381 . S
C758 H715 0.929 . S
C758 C757 1.381 . S
C758 C759 1.371 . S
C759 C758 1.371 . S
C759 C760 1.380 . S
C760 H716 0.931 . S
C760 C759 1.380 . S
C760 C761 1.387 . S
C761 H717 0.930 . S
C761 C756 1.386 . S
C761 C760 1.387 . S
C762 C731 1.519 . S
C762 C763 1.377 . S
C762 C767 1.361 . S
C763 H718 0.929 . S
C763 C762 1.377 . S
C763 C764 1.386 . S
C764 H719 0.931 . S
C764 C763 1.386 . S
C764 C765 1.363 . S
C765 C764 1.363 . S
C765 C766 1.385 . S
C766 H720 0.930 . S
C766 C765 1.385 . S
C766 C767 1.396 . S
C767 H721 0.929 . S
C767 C762 1.361 . S
C767 C766 1.396 . S
C768 O722 1.300 . S
C768 O723 1.209 . S
C768 C741 1.486 . S
C769 O724 1.199 . S
C769 O725 1.297 . S
C769 C753 1.476 . S
H770 O796 0.856 . S
H771 O799 0.854 . S
H772 C807 0.930 . S
H773 C808 0.930 . S
H774 C810 0.930 . S
H775 C811 0.930 . S
H776 C813 0.931 . S
H777 C814 0.930 . S
H778 C816 0.930 . S
H779 C817 0.929 . S
H780 C819 0.930 . S
H781 C820 0.931 . S
H782 C822 0.930 . S
H783 C823 0.929 . S
H784 C825 0.931 . S
H785 C826 0.930 . S
H786 C828 0.930 . S
H787 C829 0.932 . S
H788 C831 0.930 . S
H789 C832 0.929 . S
H790 C834 0.931 . S
H791 C835 0.930 . S
H792 C837 0.929 . S
H793 C838 0.931 . S
H794 C840 0.930 . S
H795 C841 0.929 . S
O796 H770 0.856 . S
O796 C842 1.300 . S
O797 C842 1.209 . S
O798 C843 1.199 . S
O799 H771 0.854 . S
O799 C843 1.297 . S
C800 C801 1.404 . S
C800 C805 1.397 . S
C800 C806 1.492 . S
C801 C800 1.404 . S
C801 C802 1.396 . S
C801 C812 1.492 . S
C802 C801 1.396 . S
C802 C803 1.397 . S
C802 C818 1.509 . S
C803 C802 1.397 . S
C803 C804 1.412 . S
C803 C824 1.485 . S
C804 C803 1.412 . S
C804 C805 1.388 . S
C804 C830 1.490 . S
C805 C800 1.397 . S
C805 C804 1.388 . S
C805 C836 1.519 . S
C806 C800 1.492 . S
C806 C807 1.363 . S
C806 C811 1.390 . S
C807 H772 0.930 . S
C807 C806 1.363 . S
C807 C808 1.372 . S
C808 H773 0.930 . S
C808 C807 1.372 . S
C808 C809 1.383 . S
C809 C808 1.383 . S
C809 C810 1.395 . S
C810 H774 0.930 . S
C810 C809 1.395 . S
C810 C811 1.362 . S
C811 H775 0.930 . S
C811 C806 1.390 . S
C811 C810 1.362 . S
C812 C801 1.492 . S
C812 C813 1.377 . S
C812 C817 1.397 . S
C813 H776 0.931 . S
C813 C812 1.377 . S
C813 C814 1.376 . S
C814 H777 0.930 . S
C814 C813 1.376 . S
C814 C815 1.376 . S
C815 C814 1.376 . S
C815 C816 1.378 . S
C815 C842 1.486 . S
C816 H778 0.930 . S
C816 C815 1.378 . S
C816 C817 1.376 . S
C817 H779 0.929 . S
C817 C812 1.397 . S
C817 C816 1.376 . S
C818 C802 1.509 . S
C818 C819 1.391 . S
C818 C823 1.386 . S
C819 H780 0.930 . S
C819 C818 1.391 . S
C819 C820 1.375 . S
C820 H781 0.931 . S
C820 C819 1.375 . S
C820 C821 1.375 . S
C821 C820 1.375 . S
C821 C822 1.361 . S
C822 H782 0.930 . S
C822 C821 1.361 . S
C822 C823 1.399 . S
C823 H783 0.929 . S
C823 C818 1.386 . S
C823 C822 1.399 . S
C824 C803 1.485 . S
C824 C825 1.394 . S
C824 C829 1.360 . S
C825 H784 0.931 . S
C825 C824 1.394 . S
C825 C826 1.372 . S
C826 H785 0.930 . S
C826 C825 1.372 . S
C826 C827 1.397 . S
C827 C826 1.397 . S
C827 C828 1.390 . S
C827 C843 1.476 . S
C828 H786 0.930 . S
C828 C827 1.390 . S
C828 C829 1.366 . S
C829 H787 0.932 . S
C829 C824 1.360 . S
C829 C828 1.366 . S
C830 C804 1.490 . S
C830 C831 1.380 . S
C830 C835 1.386 . S
C831 H788 0.930 . S
C831 C830 1.380 . S
C831 C832 1.381 . S
C832 H789 0.929 . S
C832 C831 1.381 . S
C832 C833 1.371 . S
C833 C832 1.371 . S
C833 C834 1.380 . S
C834 H790 0.931 . S
C834 C833 1.380 . S
C834 C835 1.387 . S
C835 H791 0.930 . S
C835 C830 1.386 . S
C835 C834 1.387 . S
C836 C805 1.519 . S
C836 C837 1.377 . S
C836 C841 1.361 . S
C837 H792 0.929 . S
C837 C836 1.377 . S
C837 C838 1.386 . S
C838 H793 0.931 . S
C838 C837 1.386 . S
C838 C839 1.363 . S
C839 C838 1.363 . S
C839 C840 1.385 . S
C840 H794 0.930 . S
C840 C839 1.385 . S
C840 C841 1.396 . S
C841 H795 0.929 . S
C841 C836 1.361 . S
C841 C840 1.396 . S
C842 O796 1.300 . S
C842 O797 1.209 . S
C842 C815 1.486 . S
C843 O798 1.199 . S
C843 O799 1.297 . S
C843 C827 1.476 . S
H844 O870 0.856 . S
H845 O873 0.854 . S
H846 C881 0.930 . S
H847 C882 0.930 . S
H848 C884 0.930 . S
H849 C885 0.930 . S
H850 C887 0.931 . S
H851 C888 0.930 . S
H852 C890 0.930 . S
H853 C891 0.929 . S
H854 C893 0.930 . S
H855 C894 0.931 . S
H856 C896 0.930 . S
H857 C897 0.929 . S
H858 C899 0.931 . S
H859 C900 0.930 . S
H860 C902 0.930 . S
H861 C903 0.932 . S
H862 C905 0.930 . S
H863 C906 0.929 . S
H864 C908 0.931 . S
H865 C909 0.930 . S
H866 C911 0.929 . S
H867 C912 0.931 . S
H868 C914 0.930 . S
H869 C915 0.929 . S
O870 H844 0.856 . S
O870 C916 1.300 . S
O871 C916 1.209 . S
O872 C917 1.199 . S
O873 H845 0.854 . S
O873 C917 1.297 . S
C874 C875 1.404 . S
C874 C879 1.397 . S
C874 C880 1.492 . S
C875 C874 1.404 . S
C875 C876 1.396 . S
C875 C886 1.492 . S
C876 C875 1.396 . S
C876 C877 1.397 . S
C876 C892 1.509 . S
C877 C876 1.397 . S
C877 C878 1.412 . S
C877 C898 1.485 . S
C878 C877 1.412 . S
C878 C879 1.388 . S
C878 C904 1.490 . S
C879 C874 1.397 . S
C879 C878 1.388 . S
C879 C910 1.519 . S
C880 C874 1.492 . S
C880 C881 1.363 . S
C880 C885 1.390 . S
C881 H846 0.930 . S
C881 C880 1.363 . S
C881 C882 1.372 . S
C882 H847 0.930 . S
C882 C881 1.372 . S
C882 C883 1.383 . S
C883 C882 1.383 . S
C883 C884 1.395 . S
C884 H848 0.930 . S
C884 C883 1.395 . S
C884 C885 1.362 . S
C885 H849 0.930 . S
C885 C880 1.390 . S
C885 C884 1.362 . S
C886 C875 1.492 . S
C886 C887 1.377 . S
C886 C891 1.397 . S
C887 H850 0.931 . S
C887 C886 1.377 . S
C887 C888 1.376 . S
C888 H851 0.930 . S
C888 C887 1.376 . S
C888 C889 1.376 . S
C889 C888 1.376 . S
C889 C890 1.378 . S
C889 C916 1.486 . S
C890 H852 0.930 . S
C890 C889 1.378 . S
C890 C891 1.376 . S
C891 H853 0.929 . S
C891 C886 1.397 . S
C891 C890 1.376 . S
C892 C876 1.509 . S
C892 C893 1.391 . S
C892 C897 1.386 . S
C893 H854 0.930 . S
C893 C892 1.391 . S
C893 C894 1.375 . S
C894 H855 0.931 . S
C894 C893 1.375 . S
C894 C895 1.375 . S
C895 C894 1.375 . S
C895 C896 1.361 . S
C896 H856 0.930 . S
C896 C895 1.361 . S
C896 C897 1.399 . S
C897 H857 0.929 . S
C897 C892 1.386 . S
C897 C896 1.399 . S
C898 C877 1.485 . S
C898 C899 1.394 . S
C898 C903 1.360 . S
C899 H858 0.931 . S
C899 C898 1.394 . S
C899 C900 1.372 . S
C900 H859 0.930 . S
C900 C899 1.372 . S
C900 C901 1.397 . S
C901 C900 1.397 . S
C901 C902 1.390 . S
C901 C917 1.476 . S
C902 H860 0.930 . S
C902 C901 1.390 . S
C902 C903 1.366 . S
C903 H861 0.932 . S
C903 C898 1.360 . S
C903 C902 1.366 . S
C904 C878 1.490 . S
C904 C905 1.380 . S
C904 C909 1.386 . S
C905 H862 0.930 . S
C905 C904 1.380 . S
C905 C906 1.381 . S
C906 H863 0.929 . S
C906 C905 1.381 . S
C906 C907 1.371 . S
C907 C906 1.371 . S
C907 C908 1.380 . S
C908 H864 0.931 . S
C908 C907 1.380 . S
C908 C909 1.387 . S
C909 H865 0.930 . S
C909 C904 1.386 . S
C909 C908 1.387 . S
C910 C879 1.519 . S
C910 C911 1.377 . S
C910 C915 1.361 . S
C911 H866 0.929 . S
C911 C910 1.377 . S
C911 C912 1.386 . S
C912 H867 0.931 . S
C912 C911 1.386 . S
C912 C913 1.363 . S
C913 C912 1.363 . S
C913 C914 1.385 . S
C914 H868 0.930 . S
C914 C913 1.385 . S
C914 C915 1.396 . S
C915 H869 0.929 . S
C915 C910 1.361 . S
C915 C914 1.396 . S
C916 O870 1.300 . S
C916 O871 1.209 . S
C916 C889 1.486 . S
C917 O872 1.199 . S
C917 O873 1.297 . S
C917 C901 1.476 . S
H918 O944 0.856 . S
H919 O947 0.854 . S
H920 C955 0.930 . S
H921 C956 0.930 . S
H922 C958 0.930 . S
H923 C959 0.930 . S
H924 C961 0.931 . S
H925 C962 0.930 1_655 S
H926 C964 0.930 . S
H927 C965 0.929 . S
H928 C967 0.930 . S
H929 C968 0.931 1_655 S
H930 C970 0.930 . S
H931 C971 0.929 . S
H932 C973 0.931 . S
H933 C974 0.930 . S
H934 C976 0.930 . S
H935 C977 0.932 . S
H936 C979 0.930 . S
H937 C980 0.929 . S
H938 C982 0.931 . S
H939 C983 0.930 . S
H940 C985 0.929 . S
H941 C986 0.931 . S
H942 C988 0.930 . S
H943 C989 0.929 . S
O944 H918 0.856 . S
O944 C990 1.300 . S
O945 C990 1.209 . S
O946 C991 1.199 1_655 S
O947 H919 0.854 . S
O947 C991 1.297 . S
C948 C949 1.404 . S
C948 C953 1.395 . S
C948 C954 1.492 . S
C949 C948 1.404 . S
C949 C950 1.396 . S
C949 C960 1.492 . S
C950 C949 1.396 . S
C950 C951 1.397 . S
C950 C966 1.509 . S
C951 C950 1.397 . S
C951 C952 1.427 . S
C951 C972 1.485 . S
C952 C951 1.427 . S
C952 C953 1.402 . S
C952 C978 1.490 1_455 S
C953 C948 1.395 . S
C953 C952 1.402 . S
C953 C984 1.484 1_455 S
C954 C948 1.492 . S
C954 C955 1.363 1_455 S
C954 C959 1.390 . S
C955 H920 0.930 . S
C955 C954 1.363 1_655 S
C955 C956 1.372 . S
C956 H921 0.930 . S
C956 C955 1.372 . S
C956 C957 1.383 . S
C957 C956 1.383 . S
C957 C958 1.395 1_655 S
C958 H922 0.930 . S
C958 C957 1.395 1_455 S
C958 C959 1.362 . S
C959 H923 0.930 . S
C959 C954 1.390 . S
C959 C958 1.362 . S
C960 C949 1.492 . S
C960 C961 1.377 1_455 S
C960 C965 1.397 . S
C961 H924 0.931 . S
C961 C960 1.377 1_655 S
C961 C962 1.376 1_655 S
C962 H925 0.930 1_455 S
C962 C961 1.376 1_455 S
C962 C963 1.376 . S
C963 C962 1.376 . S
C963 C964 1.378 . S
C963 C990 1.486 . S
C964 H926 0.930 . S
C964 C963 1.378 . S
C964 C965 1.376 . S
C965 H927 0.929 . S
C965 C960 1.397 . S
C965 C964 1.376 . S
C966 C950 1.509 . S
C966 C967 1.391 1_455 S
C966 C971 1.386 . S
C967 H928 0.930 . S
C967 C966 1.391 1_655 S
C967 C968 1.375 1_655 S
C968 H929 0.931 1_455 S
C968 C967 1.375 1_455 S
C968 C969 1.375 . S
C969 C968 1.375 . S
C969 C970 1.361 . S
C970 H930 0.930 . S
C970 C969 1.361 . S
C970 C971 1.399 . S
C971 H931 0.929 . S
C971 C966 1.386 . S
C971 C970 1.399 . S
C972 C951 1.485 . S
C972 C973 1.394 1_455 S
C972 C977 1.360 . S
C973 H932 0.931 . S
C973 C972 1.394 1_655 S
C973 C974 1.372 . S
C974 H933 0.930 . S
C974 C973 1.372 . S
C974 C975 1.397 1_655 S
C975 C974 1.397 1_455 S
C975 C976 1.390 . S
C975 C991 1.476 . S
C976 H934 0.930 . S
C976 C975 1.390 . S
C976 C977 1.366 . S
C977 H935 0.932 . S
C977 C972 1.360 . S
C977 C976 1.366 . S
C978 C952 1.490 1_655 S
C978 C979 1.380 . S
C978 C983 1.386 1_655 S
C979 H936 0.930 . S
C979 C978 1.380 . S
C979 C980 1.381 . S
C980 H937 0.929 . S
C980 C979 1.381 . S
C980 C981 1.371 . S
C981 C980 1.371 . S
C981 C982 1.380 1_655 S
C982 H938 0.931 . S
C982 C981 1.380 1_455 S
C982 C983 1.387 . S
C983 H939 0.930 . S
C983 C978 1.386 1_455 S
C983 C982 1.387 . S
C984 C953 1.484 1_655 S
C984 C985 1.417 . S
C984 C989 1.336 1_655 S
C985 H940 0.929 . S
C985 C984 1.417 . S
C985 C986 1.386 . S
C986 H941 0.931 . S
C986 C985 1.386 . S
C986 C987 1.396 . S
C987 C986 1.396 . S
C987 C988 1.335 1_655 S
C988 H942 0.930 . S
C988 C987 1.335 1_455 S
C988 C989 1.396 . S
C989 H943 0.929 . S
C989 C984 1.336 1_455 S
C989 C988 1.396 . S
C990 O944 1.300 . S
C990 O945 1.209 . S
C990 C963 1.486 . S
C991 O946 1.199 1_455 S
C991 O947 1.297 . S
C991 C975 1.476 . S
H992 O1018 0.856 . S
H993 O1021 0.854 . S
H994 C1029 0.930 . S
H995 C1030 0.930 . S
H996 C1032 0.930 . S
H997 C1033 0.930 . S
H998 C1035 0.931 . S
H999 C1036 0.930 . S
H1000 C1038 0.930 . S
H1001 C1039 0.929 . S
H1002 C1041 0.930 . S
H1003 C1042 0.931 . S
H1004 C1044 0.930 . S
H1005 C1045 0.929 . S
H1006 C1047 0.931 . S
H1007 C1048 0.930 . S
H1008 C1050 0.930 . S
H1009 C1051 0.932 . S
H1010 C1053 0.930 . S
H1011 C1054 0.929 . S
H1012 C1056 0.931 . S
H1013 C1057 0.930 . S
H1014 C1059 0.929 . S
H1015 C1060 0.931 . S
H1016 C1062 0.930 . S
H1017 C1063 0.929 . S
O1018 H992 0.856 . S
O1018 C1064 1.300 . S
O1019 C1064 1.209 . S
O1020 C1065 1.199 . S
O1021 H993 0.854 . S
O1021 C1065 1.297 . S
C1022 C1023 1.404 . S
C1022 C1027 1.397 . S
C1022 C1028 1.492 . S
C1023 C1022 1.404 . S
C1023 C1024 1.396 . S
C1023 C1034 1.492 . S
C1024 C1023 1.396 . S
C1024 C1025 1.397 . S
C1024 C1040 1.509 . S
C1025 C1024 1.397 . S
C1025 C1026 1.412 . S
C1025 C1046 1.485 . S
C1026 C1025 1.412 . S
C1026 C1027 1.388 . S
C1026 C1052 1.490 . S
C1027 C1022 1.397 . S
C1027 C1026 1.388 . S
C1027 C1058 1.519 . S
C1028 C1022 1.492 . S
C1028 C1029 1.363 . S
C1028 C1033 1.390 . S
C1029 H994 0.930 . S
C1029 C1028 1.363 . S
C1029 C1030 1.372 . S
C1030 H995 0.930 . S
C1030 C1029 1.372 . S
C1030 C1031 1.383 . S
C1031 C1030 1.383 . S
C1031 C1032 1.395 . S
C1032 H996 0.930 . S
C1032 C1031 1.395 . S
C1032 C1033 1.362 . S
C1033 H997 0.930 . S
C1033 C1028 1.390 . S
C1033 C1032 1.362 . S
C1034 C1023 1.492 . S
C1034 C1035 1.377 . S
C1034 C1039 1.397 . S
C1035 H998 0.931 . S
C1035 C1034 1.377 . S
C1035 C1036 1.376 . S
C1036 H999 0.930 . S
C1036 C1035 1.376 . S
C1036 C1037 1.376 . S
C1037 C1036 1.376 . S
C1037 C1038 1.378 . S
C1037 C1064 1.486 . S
C1038 H1000 0.930 . S
C1038 C1037 1.378 . S
C1038 C1039 1.376 . S
C1039 H1001 0.929 . S
C1039 C1034 1.397 . S
C1039 C1038 1.376 . S
C1040 C1024 1.509 . S
C1040 C1041 1.391 . S
C1040 C1045 1.386 . S
C1041 H1002 0.930 . S
C1041 C1040 1.391 . S
C1041 C1042 1.375 . S
C1042 H1003 0.931 . S
C1042 C1041 1.375 . S
C1042 C1043 1.375 . S
C1043 C1042 1.375 . S
C1043 C1044 1.361 . S
C1044 H1004 0.930 . S
C1044 C1043 1.361 . S
C1044 C1045 1.399 . S
C1045 H1005 0.929 . S
C1045 C1040 1.386 . S
C1045 C1044 1.399 . S
C1046 C1025 1.485 . S
C1046 C1047 1.394 . S
C1046 C1051 1.360 . S
C1047 H1006 0.931 . S
C1047 C1046 1.394 . S
C1047 C1048 1.372 . S
C1048 H1007 0.930 . S
C1048 C1047 1.372 . S
C1048 C1049 1.397 . S
C1049 C1048 1.397 . S
C1049 C1050 1.390 . S
C1049 C1065 1.476 . S
C1050 H1008 0.930 . S
C1050 C1049 1.390 . S
C1050 C1051 1.366 . S
C1051 H1009 0.932 . S
C1051 C1046 1.360 . S
C1051 C1050 1.366 . S
C1052 C1026 1.490 . S
C1052 C1053 1.380 . S
C1052 C1057 1.386 . S
C1053 H1010 0.930 . S
C1053 C1052 1.380 . S
C1053 C1054 1.381 . S
C1054 H1011 0.929 . S
C1054 C1053 1.381 . S
C1054 C1055 1.371 . S
C1055 C1054 1.371 . S
C1055 C1056 1.380 . S
C1056 H1012 0.931 . S
C1056 C1055 1.380 . S
C1056 C1057 1.387 . S
C1057 H1013 0.930 . S
C1057 C1052 1.386 . S
C1057 C1056 1.387 . S
C1058 C1027 1.519 . S
C1058 C1059 1.377 . S
C1058 C1063 1.361 . S
C1059 H1014 0.929 . S
C1059 C1058 1.377 . S
C1059 C1060 1.386 . S
C1060 H1015 0.931 . S
C1060 C1059 1.386 . S
C1060 C1061 1.363 . S
C1061 C1060 1.363 . S
C1061 C1062 1.385 . S
C1062 H1016 0.930 . S
C1062 C1061 1.385 . S
C1062 C1063 1.396 . S
C1063 H1017 0.929 . S
C1063 C1058 1.361 . S
C1063 C1062 1.396 . S
C1064 O1018 1.300 . S
C1064 O1019 1.209 . S
C1064 C1037 1.486 . S
C1065 O1020 1.199 . S
C1065 O1021 1.297 . S
C1065 C1049 1.476 . S
H1066 O1092 0.856 . S
H1067 O1095 0.854 . S
H1068 C1103 0.930 . S
H1069 C1104 0.930 . S
H1070 C1106 0.930 . S
H1071 C1107 0.930 . S
H1072 C1109 0.931 . S
H1073 C1110 0.961 . S
H1074 C1112 0.930 . S
H1075 C1113 0.929 . S
H1076 C1115 0.930 . S
H1077 C1116 0.931 . S
H1078 C1118 0.930 . S
H1079 C1119 0.929 . S
H1080 C1121 0.931 . S
H1081 C1122 0.930 . S
H1082 C1124 0.930 . S
H1083 C1125 0.932 . S
H1084 C1127 0.930 . S
H1085 C1128 0.929 . S
H1086 C1130 0.931 . S
H1087 C1131 0.930 . S
H1088 C1133 0.929 . S
H1089 C1134 0.931 . S
H1090 C1136 0.930 . S
H1091 C1137 0.929 . S
O1092 H1066 0.856 . S
O1092 C1138 1.300 . S
O1093 C1138 1.209 . S
O1094 C1139 1.199 1_545 S
O1095 H1067 0.854 . S
O1095 C1139 1.297 . S
C1096 C1097 1.404 . S
C1096 C1101 1.413 . S
C1096 C1102 1.492 . S
C1097 C1096 1.404 . S
C1097 C1098 1.396 . S
C1097 C1108 1.492 . S
C1098 C1097 1.396 . S
C1098 C1099 1.397 . S
C1098 C1114 1.509 . S
C1099 C1098 1.397 . S
C1099 C1100 1.411 . S
C1099 C1120 1.485 . S
C1100 C1099 1.411 . S
C1100 C1101 1.366 . S
C1100 C1126 1.489 1_565 S
C1101 C1096 1.413 . S
C1101 C1100 1.366 . S
C1101 C1132 1.531 1_565 S
C1102 C1096 1.492 . S
C1102 C1103 1.363 1_565 S
C1102 C1107 1.390 . S
C1103 H1068 0.930 . S
C1103 C1102 1.363 1_545 S
C1103 C1104 1.372 . S
C1104 H1069 0.930 . S
C1104 C1103 1.372 . S
C1104 C1105 1.383 . S
C1105 C1104 1.383 . S
C1105 C1106 1.395 1_545 S
C1106 H1070 0.930 . S
C1106 C1105 1.395 1_565 S
C1106 C1107 1.362 . S
C1107 H1071 0.930 . S
C1107 C1102 1.390 . S
C1107 C1106 1.362 . S
C1108 C1097 1.492 . S
C1108 C1109 1.377 1_565 S
C1108 C1113 1.397 . S
C1109 H1072 0.931 . S
C1109 C1108 1.377 1_545 S
C1109 C1110 1.392 . S
C1110 H1073 0.961 . S
C1110 C1109 1.392 . S
C1110 C1111 1.330 1_545 S
C1111 C1110 1.330 1_565 S
C1111 C1112 1.378 . S
C1111 C1138 1.486 . S
C1112 H1074 0.930 . S
C1112 C1111 1.378 . S
C1112 C1113 1.376 . S
C1113 H1075 0.929 . S
C1113 C1108 1.397 . S
C1113 C1112 1.376 . S
C1114 C1098 1.509 . S
C1114 C1115 1.391 1_565 S
C1114 C1119 1.386 . S
C1115 H1076 0.930 . S
C1115 C1114 1.391 1_545 S
C1115 C1116 1.375 . S
C1116 H1077 0.931 . S
C1116 C1115 1.375 . S
C1116 C1117 1.375 1_545 S
C1117 C1116 1.375 1_565 S
C1117 C1118 1.361 . S
C1118 H1078 0.930 . S
C1118 C1117 1.361 . S
C1118 C1119 1.399 . S
C1119 H1079 0.929 . S
C1119 C1114 1.386 . S
C1119 C1118 1.399 . S
C1120 C1099 1.485 . S
C1120 C1121 1.394 1_565 S
C1120 C1125 1.360 . S
C1121 H1080 0.931 . S
C1121 C1120 1.394 1_545 S
C1121 C1122 1.372 . S
C1122 H1081 0.930 . S
C1122 C1121 1.372 . S
C1122 C1123 1.397 1_545 S
C1123 C1122 1.397 1_565 S
C1123 C1124 1.390 . S
C1123 C1139 1.476 . S
C1124 H1082 0.930 . S
C1124 C1123 1.390 . S
C1124 C1125 1.366 . S
C1125 H1083 0.932 . S
C1125 C1120 1.360 . S
C1125 C1124 1.366 . S
C1126 C1100 1.489 1_545 S
C1126 C1127 1.380 . S
C1126 C1131 1.386 1_545 S
C1127 H1084 0.930 . S
C1127 C1126 1.380 . S
C1127 C1128 1.381 . S
C1128 H1085 0.929 . S
C1128 C1127 1.381 . S
C1128 C1129 1.371 . S
C1129 C1128 1.371 . S
C1129 C1130 1.380 1_545 S
C1130 H1086 0.931 . S
C1130 C1129 1.380 1_565 S
C1130 C1131 1.387 . S
C1131 H1087 0.930 . S
C1131 C1126 1.386 1_565 S
C1131 C1130 1.387 . S
C1132 C1101 1.531 1_545 S
C1132 C1133 1.374 . S
C1132 C1137 1.366 1_545 S
C1133 H1088 0.929 . S
C1133 C1132 1.374 . S
C1133 C1134 1.386 . S
C1134 H1089 0.931 . S
C1134 C1133 1.386 . S
C1134 C1135 1.363 1_545 S
C1135 C1134 1.363 1_565 S
C1135 C1136 1.385 . S
C1136 H1090 0.930 . S
C1136 C1135 1.385 . S
C1136 C1137 1.396 . S
C1137 H1091 0.929 . S
C1137 C1132 1.366 1_565 S
C1137 C1136 1.396 . S
C1138 O1092 1.300 . S
C1138 O1093 1.209 . S
C1138 C1111 1.486 . S
C1139 O1094 1.199 1_565 S
C1139 O1095 1.297 . S
C1139 C1123 1.476 . S
H1140 O1166 0.856 . S
H1141 O1169 0.854 . S
H1142 C1177 0.930 . S
H1143 C1178 0.930 . S
H1144 C1180 0.930 . S
H1145 C1181 0.930 . S
H1146 C1183 0.931 . S
H1147 C1184 0.930 . S
H1148 C1186 0.930 . S
H1149 C1187 0.929 . S
H1150 C1189 0.930 . S
H1151 C1190 0.931 . S
H1152 C1192 0.930 . S
H1153 C1193 0.929 . S
H1154 C1195 0.931 . S
H1155 C1196 0.930 . S
H1156 C1198 0.930 . S
H1157 C1199 0.932 . S
H1158 C1201 0.930 . S
H1159 C1202 0.929 . S
H1160 C1204 0.931 . S
H1161 C1205 0.930 . S
H1162 C1207 0.929 . S
H1163 C1208 0.931 . S
H1164 C1210 0.930 . S
H1165 C1211 0.929 . S
O1166 H1140 0.856 . S
O1166 C1212 1.300 . S
O1167 C1212 1.209 1_565 S
O1168 C1213 1.199 1_545 S
O1169 H1141 0.854 . S
O1169 C1213 1.297 . S
C1170 C1171 1.404 . S
C1170 C1175 1.397 1_545 S
C1170 C1176 1.492 . S
C1171 C1170 1.404 . S
C1171 C1172 1.426 . S
C1171 C1182 1.492 . S
C1172 C1171 1.426 . S
C1172 C1173 1.378 1_545 S
C1172 C1188 1.503 . S
C1173 C1172 1.378 1_565 S
C1173 C1174 1.416 . S
C1173 C1194 1.504 . S
C1174 C1173 1.416 . S
C1174 C1175 1.365 . S
C1174 C1200 1.488 . S
C1175 C1170 1.397 1_565 S
C1175 C1174 1.365 . S
C1175 C1206 1.519 . S
C1176 C1170 1.492 . S
C1176 C1177 1.363 . S
C1176 C1181 1.390 1_545 S
C1177 H1142 0.930 . S
C1177 C1176 1.363 . S
C1177 C1178 1.372 . S
C1178 H1143 0.930 . S
C1178 C1177 1.372 . S
C1178 C1179 1.383 . S
C1179 C1178 1.383 . S
C1179 C1180 1.395 1_545 S
C1180 H1144 0.930 . S
C1180 C1179 1.395 1_565 S
C1180 C1181 1.362 . S
C1181 H1145 0.930 . S
C1181 C1176 1.390 1_565 S
C1181 C1180 1.362 . S
C1182 C1171 1.492 . S
C1182 C1183 1.377 . S
C1182 C1187 1.397 1_545 S
C1183 H1146 0.931 . S
C1183 C1182 1.377 . S
C1183 C1184 1.376 . S
C1184 H1147 0.930 . S
C1184 C1183 1.376 . S
C1184 C1185 1.376 . S
C1185 C1184 1.376 . S
C1185 C1186 1.378 1_545 S
C1185 C1212 1.486 . S
C1186 H1148 0.930 . S
C1186 C1185 1.378 1_565 S
C1186 C1187 1.376 . S
C1187 H1149 0.929 . S
C1187 C1182 1.397 1_565 S
C1187 C1186 1.376 . S
C1188 C1172 1.503 . S
C1188 C1189 1.406 . S
C1188 C1193 1.360 1_545 S
C1189 H1150 0.930 . S
C1189 C1188 1.406 . S
C1189 C1190 1.375 . S
C1190 H1151 0.931 . S
C1190 C1189 1.375 . S
C1190 C1191 1.373 . S
C1191 C1190 1.373 . S
C1191 C1192 1.363 1_545 S
C1192 H1152 0.930 . S
C1192 C1191 1.363 1_565 S
C1192 C1193 1.399 . S
C1193 H1153 0.929 . S
C1193 C1188 1.360 1_565 S
C1193 C1192 1.399 . S
C1194 C1173 1.504 . S
C1194 C1195 1.394 1_565 S
C1194 C1199 1.360 . S
C1195 H1154 0.931 . S
C1195 C1194 1.394 1_545 S
C1195 C1196 1.372 . S
C1196 H1155 0.930 . S
C1196 C1195 1.372 . S
C1196 C1197 1.397 1_545 S
C1197 C1196 1.397 1_565 S
C1197 C1198 1.390 . S
C1197 C1213 1.476 . S
C1198 H1156 0.930 . S
C1198 C1197 1.390 . S
C1198 C1199 1.366 . S
C1199 H1157 0.932 . S
C1199 C1194 1.360 . S
C1199 C1198 1.366 . S
C1200 C1174 1.488 . S
C1200 C1201 1.338 1_565 S
C1200 C1205 1.438 . S
C1201 H1158 0.930 . S
C1201 C1200 1.338 1_545 S
C1201 C1202 1.381 . S
C1202 H1159 0.929 . S
C1202 C1201 1.381 . S
C1202 C1203 1.382 . S
C1203 C1202 1.382 . S
C1203 C1204 1.371 1_545 S
C1204 H1160 0.931 . S
C1204 C1203 1.371 1_565 S
C1204 C1205 1.387 . S
C1205 H1161 0.930 . S
C1205 C1200 1.438 . S
C1205 C1204 1.387 . S
C1206 C1175 1.519 . S
C1206 C1207 1.377 1_565 S
C1206 C1211 1.361 . S
C1207 H1162 0.929 . S
C1207 C1206 1.377 1_545 S
C1207 C1208 1.386 . S
C1208 H1163 0.931 . S
C1208 C1207 1.386 . S
C1208 C1209 1.363 1_545 S
C1209 C1208 1.363 1_565 S
C1209 C1210 1.385 . S
C1210 H1164 0.930 . S
C1210 C1209 1.385 . S
C1210 C1211 1.396 . S
C1211 H1165 0.929 . S
C1211 C1206 1.361 . S
C1211 C1210 1.396 . S
C1212 O1166 1.300 . S
C1212 O1167 1.209 1_545 S
C1212 C1185 1.486 . S
C1213 O1168 1.199 1_565 S
C1213 O1169 1.297 . S
C1213 C1197 1.476 . S
H1214 O1240 0.856 . S
H1215 O1243 0.854 . S
H1216 C1251 0.930 . S
H1217 C1252 0.930 . S
H1218 C1254 0.930 . S
H1219 C1255 0.930 . S
H1220 C1257 0.931 . S
H1221 C1258 0.930 . S
H1222 C1260 0.930 . S
H1223 C1261 0.929 . S
H1224 C1263 0.930 . S
H1225 C1264 0.931 . S
H1226 C1266 0.930 . S
H1227 C1267 0.929 . S
H1228 C1269 0.931 . S
H1229 C1270 0.930 . S
H1230 C1272 0.930 . S
H1231 C1273 0.932 . S
H1232 C1275 0.930 . S
H1233 C1276 0.929 . S
H1234 C1278 0.931 . S
H1235 C1279 0.930 . S
H1236 C1281 0.929 . S
H1237 C1282 0.931 . S
H1238 C1284 0.930 . S
H1239 C1285 0.929 . S
O1240 H1214 0.856 . S
O1240 C1286 1.300 . S
O1241 C1286 1.209 1_455 S
O1242 C1287 1.199 1_655 S
O1243 H1215 0.854 . S
O1243 C1287 1.297 . S
C1244 C1245 1.404 . S
C1244 C1249 1.396 1_655 S
C1244 C1250 1.492 . S
C1245 C1244 1.404 . S
C1245 C1246 1.396 . S
C1245 C1256 1.492 . S
C1246 C1245 1.396 . S
C1246 C1247 1.396 . S
C1246 C1262 1.509 . S
C1247 C1246 1.396 . S
C1247 C1248 1.397 1_655 S
C1247 C1268 1.521 1_655 S
C1248 C1247 1.397 1_455 S
C1248 C1249 1.409 . S
C1248 C1274 1.486 . S
C1249 C1244 1.396 1_455 S
C1249 C1248 1.409 . S
C1249 C1280 1.515 . S
C1250 C1244 1.492 . S
C1250 C1251 1.363 . S
C1250 C1255 1.390 1_655 S
C1251 H1216 0.930 . S
C1251 C1250 1.363 . S
C1251 C1252 1.372 . S
C1252 H1217 0.930 . S
C1252 C1251 1.372 . S
C1252 C1253 1.383 . S
C1253 C1252 1.383 . S
C1253 C1254 1.395 1_655 S
C1254 H1218 0.930 . S
C1254 C1253 1.395 1_455 S
C1254 C1255 1.362 . S
C1255 H1219 0.930 . S
C1255 C1250 1.390 1_455 S
C1255 C1254 1.362 . S
C1256 C1245 1.492 . S
C1256 C1257 1.377 . S
C1256 C1261 1.397 1_655 S
C1257 H1220 0.931 . S
C1257 C1256 1.377 . S
C1257 C1258 1.376 . S
C1258 H1221 0.930 . S
C1258 C1257 1.376 . S
C1258 C1259 1.376 . S
C1259 C1258 1.376 . S
C1259 C1260 1.378 1_655 S
C1259 C1286 1.486 . S
C1260 H1222 0.930 . S
C1260 C1259 1.378 1_455 S
C1260 C1261 1.376 . S
C1261 H1223 0.929 . S
C1261 C1256 1.397 1_455 S
C1261 C1260 1.376 . S
C1262 C1246 1.509 . S
C1262 C1263 1.391 . S
C1262 C1267 1.386 1_655 S
C1263 H1224 0.930 . S
C1263 C1262 1.391 . S
C1263 C1264 1.375 . S
C1264 H1225 0.931 . S
C1264 C1263 1.375 . S
C1264 C1265 1.375 . S
C1265 C1264 1.375 . S
C1265 C1266 1.361 1_655 S
C1266 H1226 0.930 . S
C1266 C1265 1.361 1_455 S
C1266 C1267 1.399 . S
C1267 H1227 0.929 . S
C1267 C1262 1.386 1_455 S
C1267 C1266 1.399 . S
C1268 C1247 1.521 1_455 S
C1268 C1269 1.340 1_455 S
C1268 C1273 1.385 . S
C1269 H1228 0.931 . S
C1269 C1268 1.340 1_655 S
C1269 C1270 1.372 . S
C1270 H1229 0.930 . S
C1270 C1269 1.372 . S
C1270 C1271 1.397 1_655 S
C1271 C1270 1.397 1_455 S
C1271 C1272 1.390 . S
C1271 C1287 1.476 . S
C1272 H1230 0.930 . S
C1272 C1271 1.390 . S
C1272 C1273 1.366 . S
C1273 H1231 0.932 . S
C1273 C1268 1.385 . S
C1273 C1272 1.366 . S
C1274 C1248 1.486 . S
C1274 C1275 1.380 1_455 S
C1274 C1279 1.386 . S
C1275 H1232 0.930 . S
C1275 C1274 1.380 1_655 S
C1275 C1276 1.381 . S
C1276 H1233 0.929 . S
C1276 C1275 1.381 . S
C1276 C1277 1.371 1_655 S
C1277 C1276 1.371 1_455 S
C1277 C1278 1.380 . S
C1278 H1234 0.931 . S
C1278 C1277 1.380 . S
C1278 C1279 1.387 . S
C1279 H1235 0.930 . S
C1279 C1274 1.386 . S
C1279 C1278 1.387 . S
C1280 C1249 1.515 . S
C1280 C1281 1.377 1_455 S
C1280 C1285 1.361 . S
C1281 H1236 0.929 . S
C1281 C1280 1.377 1_655 S
C1281 C1282 1.386 . S
C1282 H1237 0.931 . S
C1282 C1281 1.386 . S
C1282 C1283 1.363 1_655 S
C1283 C1282 1.363 1_455 S
C1283 C1284 1.385 . S
C1284 H1238 0.930 . S
C1284 C1283 1.385 . S
C1284 C1285 1.396 . S
C1285 H1239 0.929 . S
C1285 C1280 1.361 . S
C1285 C1284 1.396 . S
C1286 O1240 1.300 . S
C1286 O1241 1.209 1_655 S
C1286 C1259 1.486 . S
C1287 O1242 1.199 1_455 S
C1287 O1243 1.297 . S
C1287 C1271 1.476 . S
H1288 O1314 0.856 . S
H1289 O1317 0.854 . S
H1290 C1325 0.930 . S
H1291 C1326 0.930 . S
H1292 C1328 0.930 . S
H1293 C1329 0.930 . S
H1294 C1331 0.931 . S
H1295 C1332 0.930 . S
H1296 C1334 0.930 . S
H1297 C1335 0.929 . S
H1298 C1337 0.930 . S
H1299 C1338 0.931 . S
H1300 C1340 0.930 . S
H1301 C1341 0.929 . S
H1302 C1343 0.931 . S
H1303 C1344 0.930 . S
H1304 C1346 0.930 . S
H1305 C1347 0.932 . S
H1306 C1349 0.930 . S
H1307 C1350 0.929 . S
H1308 C1352 0.931 . S
H1309 C1353 0.930 . S
H1310 C1355 0.929 . S
H1311 C1356 0.931 . S
H1312 C1358 0.930 . S
H1313 C1359 0.929 . S
O1314 H1288 0.856 . S
O1314 C1360 1.300 . S
O1315 C1360 1.209 . S
O1316 C1361 1.199 . S
O1317 H1289 0.854 . S
O1317 C1361 1.297 . S
C1318 C1319 1.404 . S
C1318 C1323 1.397 . S
C1318 C1324 1.492 . S
C1319 C1318 1.404 . S
C1319 C1320 1.396 . S
C1319 C1330 1.492 . S
C1320 C1319 1.396 . S
C1320 C1321 1.397 . S
C1320 C1336 1.509 . S
C1321 C1320 1.397 . S
C1321 C1322 1.412 . S
C1321 C1342 1.485 . S
C1322 C1321 1.412 . S
C1322 C1323 1.388 . S
C1322 C1348 1.490 . S
C1323 C1318 1.397 . S
C1323 C1322 1.388 . S
C1323 C1354 1.519 . S
C1324 C1318 1.492 . S
C1324 C1325 1.363 . S
C1324 C1329 1.390 . S
C1325 H1290 0.930 . S
C1325 C1324 1.363 . S
C1325 C1326 1.372 . S
C1326 H1291 0.930 . S
C1326 C1325 1.372 . S
C1326 C1327 1.383 . S
C1327 C1326 1.383 . S
C1327 C1328 1.395 . S
C1328 H1292 0.930 . S
C1328 C1327 1.395 . S
C1328 C1329 1.362 . S
C1329 H1293 0.930 . S
C1329 C1324 1.390 . S
C1329 C1328 1.362 . S
C1330 C1319 1.492 . S
C1330 C1331 1.377 . S
C1330 C1335 1.397 . S
C1331 H1294 0.931 . S
C1331 C1330 1.377 . S
C1331 C1332 1.376 . S
C1332 H1295 0.930 . S
C1332 C1331 1.376 . S
C1332 C1333 1.376 . S
C1333 C1332 1.376 . S
C1333 C1334 1.378 . S
C1333 C1360 1.486 . S
C1334 H1296 0.930 . S
C1334 C1333 1.378 . S
C1334 C1335 1.376 . S
C1335 H1297 0.929 . S
C1335 C1330 1.397 . S
C1335 C1334 1.376 . S
C1336 C1320 1.509 . S
C1336 C1337 1.391 . S
C1336 C1341 1.386 . S
C1337 H1298 0.930 . S
C1337 C1336 1.391 . S
C1337 C1338 1.375 . S
C1338 H1299 0.931 . S
C1338 C1337 1.375 . S
C1338 C1339 1.375 . S
C1339 C1338 1.375 . S
C1339 C1340 1.361 . S
C1340 H1300 0.930 . S
C1340 C1339 1.361 . S
C1340 C1341 1.399 . S
C1341 H1301 0.929 . S
C1341 C1336 1.386 . S
C1341 C1340 1.399 . S
C1342 C1321 1.485 . S
C1342 C1343 1.394 . S
C1342 C1347 1.360 . S
C1343 H1302 0.931 . S
C1343 C1342 1.394 . S
C1343 C1344 1.372 . S
C1344 H1303 0.930 . S
C1344 C1343 1.372 . S
C1344 C1345 1.397 . S
C1345 C1344 1.397 . S
C1345 C1346 1.390 . S
C1345 C1361 1.476 . S
C1346 H1304 0.930 . S
C1346 C1345 1.390 . S
C1346 C1347 1.366 . S
C1347 H1305 0.932 . S
C1347 C1342 1.360 . S
C1347 C1346 1.366 . S
C1348 C1322 1.490 . S
C1348 C1349 1.380 . S
C1348 C1353 1.386 . S
C1349 H1306 0.930 . S
C1349 C1348 1.380 . S
C1349 C1350 1.381 . S
C1350 H1307 0.929 . S
C1350 C1349 1.381 . S
C1350 C1351 1.371 . S
C1351 C1350 1.371 . S
C1351 C1352 1.380 . S
C1352 H1308 0.931 . S
C1352 C1351 1.380 . S
C1352 C1353 1.387 . S
C1353 H1309 0.930 . S
C1353 C1348 1.386 . S
C1353 C1352 1.387 . S
C1354 C1323 1.519 . S
C1354 C1355 1.377 . S
C1354 C1359 1.361 . S
C1355 H1310 0.929 . S
C1355 C1354 1.377 . S
C1355 C1356 1.386 . S
C1356 H1311 0.931 . S
C1356 C1355 1.386 . S
C1356 C1357 1.363 . S
C1357 C1356 1.363 . S
C1357 C1358 1.385 . S
C1358 H1312 0.930 . S
C1358 C1357 1.385 . S
C1358 C1359 1.396 . S
C1359 H1313 0.929 . S
C1359 C1354 1.361 . S
C1359 C1358 1.396 . S
C1360 O1314 1.300 . S
C1360 O1315 1.209 . S
C1360 C1333 1.486 . S
C1361 O1316 1.199 . S
C1361 O1317 1.297 . S
C1361 C1345 1.476 . S
H1362 O1388 0.856 . S
H1363 O1391 0.854 . S
H1364 C1399 0.930 . S
H1365 C1400 0.930 . S
H1366 C1402 0.930 . S
H1367 C1403 0.930 . S
H1368 C1405 0.931 . S
H1369 C1406 0.930 . S
H1370 C1408 0.930 . S
H1371 C1409 0.929 . S
H1372 C1411 0.930 . S
H1373 C1412 0.931 . S
H1374 C1414 0.930 . S
H1375 C1415 0.929 . S
H1376 C1417 0.931 . S
H1377 C1418 0.930 . S
H1378 C1420 0.930 . S
H1379 C1421 0.932 . S
H1380 C1423 0.930 . S
H1381 C1424 0.929 . S
H1382 C1426 0.931 . S
H1383 C1427 0.930 . S
H1384 C1429 0.929 . S
H1385 C1430 0.931 . S
H1386 C1432 0.930 . S
H1387 C1433 0.929 . S
O1388 H1362 0.856 . S
O1388 C1434 1.300 . S
O1389 C1434 1.209 . S
O1390 C1435 1.199 . S
O1391 H1363 0.854 . S
O1391 C1435 1.297 . S
C1392 C1393 1.404 . S
C1392 C1397 1.397 . S
C1392 C1398 1.492 . S
C1393 C1392 1.404 . S
C1393 C1394 1.396 . S
C1393 C1404 1.492 . S
C1394 C1393 1.396 . S
C1394 C1395 1.397 . S
C1394 C1410 1.509 . S
C1395 C1394 1.397 . S
C1395 C1396 1.412 . S
C1395 C1416 1.485 . S
C1396 C1395 1.412 . S
C1396 C1397 1.388 . S
C1396 C1422 1.490 . S
C1397 C1392 1.397 . S
C1397 C1396 1.388 . S
C1397 C1428 1.519 . S
C1398 C1392 1.492 . S
C1398 C1399 1.363 . S
C1398 C1403 1.390 . S
C1399 H1364 0.930 . S
C1399 C1398 1.363 . S
C1399 C1400 1.372 . S
C1400 H1365 0.930 . S
C1400 C1399 1.372 . S
C1400 C1401 1.383 . S
C1401 C1400 1.383 . S
C1401 C1402 1.395 . S
C1402 H1366 0.930 . S
C1402 C1401 1.395 . S
C1402 C1403 1.362 . S
C1403 H1367 0.930 . S
C1403 C1398 1.390 . S
C1403 C1402 1.362 . S
C1404 C1393 1.492 . S
C1404 C1405 1.377 . S
C1404 C1409 1.397 . S
C1405 H1368 0.931 . S
C1405 C1404 1.377 . S
C1405 C1406 1.376 . S
C1406 H1369 0.930 . S
C1406 C1405 1.376 . S
C1406 C1407 1.376 . S
C1407 C1406 1.376 . S
C1407 C1408 1.378 . S
C1407 C1434 1.486 . S
C1408 H1370 0.930 . S
C1408 C1407 1.378 . S
C1408 C1409 1.376 . S
C1409 H1371 0.929 . S
C1409 C1404 1.397 . S
C1409 C1408 1.376 . S
C1410 C1394 1.509 . S
C1410 C1411 1.391 . S
C1410 C1415 1.386 . S
C1411 H1372 0.930 . S
C1411 C1410 1.391 . S
C1411 C1412 1.375 . S
C1412 H1373 0.931 . S
C1412 C1411 1.375 . S
C1412 C1413 1.375 . S
C1413 C1412 1.375 . S
C1413 C1414 1.361 . S
C1414 H1374 0.930 . S
C1414 C1413 1.361 . S
C1414 C1415 1.399 . S
C1415 H1375 0.929 . S
C1415 C1410 1.386 . S
C1415 C1414 1.399 . S
C1416 C1395 1.485 . S
C1416 C1417 1.394 . S
C1416 C1421 1.360 . S
C1417 H1376 0.931 . S
C1417 C1416 1.394 . S
C1417 C1418 1.372 . S
C1418 H1377 0.930 . S
C1418 C1417 1.372 . S
C1418 C1419 1.397 . S
C1419 C1418 1.397 . S
C1419 C1420 1.390 . S
C1419 C1435 1.476 . S
C1420 H1378 0.930 . S
C1420 C1419 1.390 . S
C1420 C1421 1.366 . S
C1421 H1379 0.932 . S
C1421 C1416 1.360 . S
C1421 C1420 1.366 . S
C1422 C1396 1.490 . S
C1422 C1423 1.380 . S
C1422 C1427 1.386 . S
C1423 H1380 0.930 . S
C1423 C1422 1.380 . S
C1423 C1424 1.381 . S
C1424 H1381 0.929 . S
C1424 C1423 1.381 . S
C1424 C1425 1.371 . S
C1425 C1424 1.371 . S
C1425 C1426 1.380 . S
C1426 H1382 0.931 . S
C1426 C1425 1.380 . S
C1426 C1427 1.387 . S
C1427 H1383 0.930 . S
C1427 C1422 1.386 . S
C1427 C1426 1.387 . S
C1428 C1397 1.519 . S
C1428 C1429 1.377 . S
C1428 C1433 1.361 . S
C1429 H1384 0.929 . S
C1429 C1428 1.377 . S
C1429 C1430 1.386 . S
C1430 H1385 0.931 . S
C1430 C1429 1.386 . S
C1430 C1431 1.363 . S
C1431 C1430 1.363 . S
C1431 C1432 1.385 . S
C1432 H1386 0.930 . S
C1432 C1431 1.385 . S
C1432 C1433 1.396 . S
C1433 H1387 0.929 . S
C1433 C1428 1.361 . S
C1433 C1432 1.396 . S
C1434 O1388 1.300 . S
C1434 O1389 1.209 . S
C1434 C1407 1.486 . S
C1435 O1390 1.199 . S
C1435 O1391 1.297 . S
C1435 C1419 1.476 . S
H1436 O1462 0.856 . S
H1437 O1465 0.854 . S
H1438 C1473 0.930 . S
H1439 C1474 0.930 . S
H1440 C1476 0.930 . S
H1441 C1477 0.930 . S
H1442 C1479 0.931 . S
H1443 C1480 0.930 . S
H1444 C1482 0.930 . S
H1445 C1483 0.929 . S
H1446 C1485 0.930 . S
H1447 C1486 0.931 . S
H1448 C1488 0.930 . S
H1449 C1489 0.929 . S
H1450 C1491 0.931 . S
H1451 C1492 0.930 . S
H1452 C1494 0.930 . S
H1453 C1495 0.932 . S
H1454 C1497 0.930 . S
H1455 C1498 0.929 . S
H1456 C1500 0.931 . S
H1457 C1501 0.930 . S
H1458 C1503 0.929 . S
H1459 C1504 0.931 . S
H1460 C1506 0.930 . S
H1461 C1507 0.929 . S
O1462 H1436 0.856 . S
O1462 C1508 1.300 . S
O1463 C1508 1.209 . S
O1464 C1509 1.199 . S
O1465 H1437 0.854 . S
O1465 C1509 1.297 . S
C1466 C1467 1.404 . S
C1466 C1471 1.397 . S
C1466 C1472 1.492 . S
C1467 C1466 1.404 . S
C1467 C1468 1.396 . S
C1467 C1478 1.492 . S
C1468 C1467 1.396 . S
C1468 C1469 1.397 . S
C1468 C1484 1.509 . S
C1469 C1468 1.397 . S
C1469 C1470 1.412 . S
C1469 C1490 1.485 . S
C1470 C1469 1.412 . S
C1470 C1471 1.388 . S
C1470 C1496 1.490 . S
C1471 C1466 1.397 . S
C1471 C1470 1.388 . S
C1471 C1502 1.519 . S
C1472 C1466 1.492 . S
C1472 C1473 1.363 . S
C1472 C1477 1.390 . S
C1473 H1438 0.930 . S
C1473 C1472 1.363 . S
C1473 C1474 1.372 . S
C1474 H1439 0.930 . S
C1474 C1473 1.372 . S
C1474 C1475 1.383 . S
C1475 C1474 1.383 . S
C1475 C1476 1.395 . S
C1476 H1440 0.930 . S
C1476 C1475 1.395 . S
C1476 C1477 1.362 . S
C1477 H1441 0.930 . S
C1477 C1472 1.390 . S
C1477 C1476 1.362 . S
C1478 C1467 1.492 . S
C1478 C1479 1.377 . S
C1478 C1483 1.397 . S
C1479 H1442 0.931 . S
C1479 C1478 1.377 . S
C1479 C1480 1.376 . S
C1480 H1443 0.930 . S
C1480 C1479 1.376 . S
C1480 C1481 1.376 . S
C1481 C1480 1.376 . S
C1481 C1482 1.378 . S
C1481 C1508 1.486 . S
C1482 H1444 0.930 . S
C1482 C1481 1.378 . S
C1482 C1483 1.376 . S
C1483 H1445 0.929 . S
C1483 C1478 1.397 . S
C1483 C1482 1.376 . S
C1484 C1468 1.509 . S
C1484 C1485 1.391 . S
C1484 C1489 1.386 . S
C1485 H1446 0.930 . S
C1485 C1484 1.391 . S
C1485 C1486 1.375 . S
C1486 H1447 0.931 . S
C1486 C1485 1.375 . S
C1486 C1487 1.375 . S
C1487 C1486 1.375 . S
C1487 C1488 1.361 . S
C1488 H1448 0.930 . S
C1488 C1487 1.361 . S
C1488 C1489 1.399 . S
C1489 H1449 0.929 . S
C1489 C1484 1.386 . S
C1489 C1488 1.399 . S
C1490 C1469 1.485 . S
C1490 C1491 1.394 . S
C1490 C1495 1.360 . S
C1491 H1450 0.931 . S
C1491 C1490 1.394 . S
C1491 C1492 1.372 . S
C1492 H1451 0.930 . S
C1492 C1491 1.372 . S
C1492 C1493 1.397 . S
C1493 C1492 1.397 . S
C1493 C1494 1.390 . S
C1493 C1509 1.476 . S
C1494 H1452 0.930 . S
C1494 C1493 1.390 . S
C1494 C1495 1.366 . S
C1495 H1453 0.932 . S
C1495 C1490 1.360 . S
C1495 C1494 1.366 . S
C1496 C1470 1.490 . S
C1496 C1497 1.380 . S
C1496 C1501 1.386 . S
C1497 H1454 0.930 . S
C1497 C1496 1.380 . S
C1497 C1498 1.381 . S
C1498 H1455 0.929 . S
C1498 C1497 1.381 . S
C1498 C1499 1.371 . S
C1499 C1498 1.371 . S
C1499 C1500 1.380 . S
C1500 H1456 0.931 . S
C1500 C1499 1.380 . S
C1500 C1501 1.387 . S
C1501 H1457 0.930 . S
C1501 C1496 1.386 . S
C1501 C1500 1.387 . S
C1502 C1471 1.519 . S
C1502 C1503 1.377 . S
C1502 C1507 1.361 . S
C1503 H1458 0.929 . S
C1503 C1502 1.377 . S
C1503 C1504 1.386 . S
C1504 H1459 0.931 . S
C1504 C1503 1.386 . S
C1504 C1505 1.363 . S
C1505 C1504 1.363 . S
C1505 C1506 1.385 . S
C1506 H1460 0.930 . S
C1506 C1505 1.385 . S
C1506 C1507 1.396 . S
C1507 H1461 0.929 . S
C1507 C1502 1.361 . S
C1507 C1506 1.396 . S
C1508 O1462 1.300 . S
C1508 O1463 1.209 . S
C1508 C1481 1.486 . S
C1509 O1464 1.199 . S
C1509 O1465 1.297 . S
C1509 C1493 1.476 . S
H1510 O1536 0.856 . S
H1511 O1539 0.854 . S
H1512 C1547 0.930 . S
H1513 C1548 0.930 . S
H1514 C1550 0.930 . S
H1515 C1551 0.930 . S
H1516 C1553 0.931 . S
H1517 C1554 0.930 . S
H1518 C1556 0.930 . S
H1519 C1557 0.929 . S
H1520 C1559 0.930 . S
H1521 C1560 0.931 . S
H1522 C1562 0.930 . S
H1523 C1563 0.929 . S
H1524 C1565 0.931 . S
H1525 C1566 0.930 . S
H1526 C1568 0.930 . S
H1527 C1569 0.932 . S
H1528 C1571 0.930 . S
H1529 C1572 0.929 . S
H1530 C1574 0.931 . S
H1531 C1575 0.930 . S
H1532 C1577 0.929 . S
H1533 C1578 0.931 . S
H1534 C1580 0.930 . S
H1535 C1581 0.929 . S
O1536 H1510 0.856 . S
O1536 C1582 1.300 . S
O1537 C1582 1.209 . S
O1538 C1583 1.199 . S
O1539 H1511 0.854 . S
O1539 C1583 1.297 . S
C1540 C1541 1.404 . S
C1540 C1545 1.397 . S
C1540 C1546 1.492 . S
C1541 C1540 1.404 . S
C1541 C1542 1.396 . S
C1541 C1552 1.492 . S
C1542 C1541 1.396 . S
C1542 C1543 1.397 . S
C1542 C1558 1.509 . S
C1543 C1542 1.397 . S
C1543 C1544 1.412 . S
C1543 C1564 1.485 . S
C1544 C1543 1.412 . S
C1544 C1545 1.388 . S
C1544 C1570 1.490 . S
C1545 C1540 1.397 . S
C1545 C1544 1.388 . S
C1545 C1576 1.519 . S
C1546 C1540 1.492 . S
C1546 C1547 1.363 . S
C1546 C1551 1.390 . S
C1547 H1512 0.930 . S
C1547 C1546 1.363 . S
C1547 C1548 1.372 . S
C1548 H1513 0.930 . S
C1548 C1547 1.372 . S
C1548 C1549 1.383 . S
C1549 C1548 1.383 . S
C1549 C1550 1.395 . S
C1550 H1514 0.930 . S
C1550 C1549 1.395 . S
C1550 C1551 1.362 . S
C1551 H1515 0.930 . S
C1551 C1546 1.390 . S
C1551 C1550 1.362 . S
C1552 C1541 1.492 . S
C1552 C1553 1.377 . S
C1552 C1557 1.397 . S
C1553 H1516 0.931 . S
C1553 C1552 1.377 . S
C1553 C1554 1.376 . S
C1554 H1517 0.930 . S
C1554 C1553 1.376 . S
C1554 C1555 1.376 . S
C1555 C1554 1.376 . S
C1555 C1556 1.378 . S
C1555 C1582 1.486 . S
C1556 H1518 0.930 . S
C1556 C1555 1.378 . S
C1556 C1557 1.376 . S
C1557 H1519 0.929 . S
C1557 C1552 1.397 . S
C1557 C1556 1.376 . S
C1558 C1542 1.509 . S
C1558 C1559 1.391 . S
C1558 C1563 1.386 . S
C1559 H1520 0.930 . S
C1559 C1558 1.391 . S
C1559 C1560 1.375 . S
C1560 H1521 0.931 . S
C1560 C1559 1.375 . S
C1560 C1561 1.375 . S
C1561 C1560 1.375 . S
C1561 C1562 1.361 . S
C1562 H1522 0.930 . S
C1562 C1561 1.361 . S
C1562 C1563 1.399 . S
C1563 H1523 0.929 . S
C1563 C1558 1.386 . S
C1563 C1562 1.399 . S
C1564 C1543 1.485 . S
C1564 C1565 1.394 . S
C1564 C1569 1.360 . S
C1565 H1524 0.931 . S
C1565 C1564 1.394 . S
C1565 C1566 1.372 . S
C1566 H1525 0.930 . S
C1566 C1565 1.372 . S
C1566 C1567 1.397 . S
C1567 C1566 1.397 . S
C1567 C1568 1.390 . S
C1567 C1583 1.476 . S
C1568 H1526 0.930 . S
C1568 C1567 1.390 . S
C1568 C1569 1.366 . S
C1569 H1527 0.932 . S
C1569 C1564 1.360 . S
C1569 C1568 1.366 . S
C1570 C1544 1.490 . S
C1570 C1571 1.380 . S
C1570 C1575 1.386 . S
C1571 H1528 0.930 . S
C1571 C1570 1.380 . S
C1571 C1572 1.381 . S
C1572 H1529 0.929 . S
C1572 C1571 1.381 . S
C1572 C1573 1.371 . S
C1573 C1572 1.371 . S
C1573 C1574 1.380 . S
C1574 H1530 0.931 . S
C1574 C1573 1.380 . S
C1574 C1575 1.387 . S
C1575 H1531 0.930 . S
C1575 C1570 1.386 . S
C1575 C1574 1.387 . S
C1576 C1545 1.519 . S
C1576 C1577 1.377 . S
C1576 C1581 1.361 . S
C1577 H1532 0.929 . S
C1577 C1576 1.377 . S
C1577 C1578 1.386 . S
C1578 H1533 0.931 . S
C1578 C1577 1.386 . S
C1578 C1579 1.363 . S
C1579 C1578 1.363 . S
C1579 C1580 1.385 . S
C1580 H1534 0.930 . S
C1580 C1579 1.385 . S
C1580 C1581 1.396 . S
C1581 H1535 0.929 . S
C1581 C1576 1.361 . S
C1581 C1580 1.396 . S
C1582 O1536 1.300 . S
C1582 O1537 1.209 . S
C1582 C1555 1.486 . S
C1583 O1538 1.199 . S
C1583 O1539 1.297 . S
C1583 C1567 1.476 . S
C1584 C1585 1.394 1_455 S
C1584 C1586 1.394 . S
C1584 H1600 0.931 . S
C1585 C1584 1.394 1_655 S
C1585 C1589 1.370 . S
C1586 C1584 1.394 . S
C1586 C1587 1.369 1_455 S
C1586 C1590 1.531 . S
C1587 C1586 1.369 1_655 S
C1587 C1588 1.410 . S
C1587 C1595 1.503 . S
C1588 C1587 1.410 . S
C1588 C1589 1.392 . S
C1588 C1591 1.511 . S
C1589 C1585 1.370 . S
C1589 C1588 1.392 . S
C1589 H1601 0.929 . S
C1590 C1586 1.531 . S
C1590 H1602 0.960 . S
C1590 H1603 0.962 . S
C1590 H1604 0.960 . S
C1591 C1588 1.511 . S
C1591 H1605 0.961 . S
C1591 H1606 0.961 . S
C1591 H1607 0.961 . S
C1592 C1593 1.370 . S
C1592 C1594 1.363 . S
C1592 H1608 0.931 . S
C1593 C1592 1.370 . S
C1593 C1597 1.408 . S
C1594 C1592 1.363 . S
C1594 C1595 1.370 . S
C1594 C1598 1.524 . S
C1595 C1587 1.503 . S
C1595 C1594 1.370 . S
C1595 C1596 1.403 . S
C1596 C1595 1.403 . S
C1596 C1597 1.404 . S
C1596 C1599 1.539 1_655 S
C1597 C1593 1.408 . S
C1597 C1596 1.404 . S
C1597 H1609 0.930 . S
C1598 C1594 1.524 . S
C1598 H1610 0.956 . S
C1598 H1611 0.961 . S
C1598 H1612 0.961 . S
C1599 C1596 1.539 1_455 S
C1599 H1613 0.958 . S
C1599 H1614 0.961 . S
C1599 H1615 0.960 . S
H1600 C1584 0.931 . S
H1601 C1589 0.929 . S
H1602 C1590 0.960 . S
H1603 C1590 0.962 . S
H1604 C1590 0.960 . S
H1605 C1591 0.961 . S
H1606 C1591 0.961 . S
H1607 C1591 0.961 . S
H1608 C1592 0.931 . S
H1609 C1597 0.930 . S
H1610 C1598 0.956 . S
H1611 C1598 0.961 . S
H1612 C1598 0.961 . S
H1613 C1599 0.958 . S
H1614 C1599 0.961 . S
H1615 C1599 0.960 . S
C1616 C1617 1.391 . S
C1616 C1618 1.394 . S
C1616 H1632 0.931 . S
C1617 C1616 1.391 . S
C1617 C1621 1.376 . S
C1618 C1616 1.394 . S
C1618 C1619 1.369 . S
C1618 C1622 1.531 . S
C1619 C1618 1.369 . S
C1619 C1620 1.410 . S
C1619 C1627 1.503 . S
C1620 C1619 1.410 . S
C1620 C1621 1.392 . S
C1620 C1623 1.511 . S
C1621 C1617 1.376 . S
C1621 C1620 1.392 . S
C1621 H1633 0.929 . S
C1622 C1618 1.531 . S
C1622 H1634 0.960 . S
C1622 H1635 0.962 . S
C1622 H1636 0.960 . S
C1623 C1620 1.511 . S
C1623 H1637 0.961 . S
C1623 H1638 0.961 . S
C1623 H1639 0.961 . S
C1624 C1625 1.370 . S
C1624 C1626 1.363 . S
C1624 H1640 0.931 . S
C1625 C1624 1.370 . S
C1625 C1629 1.408 . S
C1626 C1624 1.363 . S
C1626 C1627 1.370 . S
C1626 C1630 1.524 . S
C1627 C1619 1.503 . S
C1627 C1626 1.370 . S
C1627 C1628 1.403 . S
C1628 C1627 1.403 . S
C1628 C1629 1.404 . S
C1628 C1631 1.539 . S
C1629 C1625 1.408 . S
C1629 C1628 1.404 . S
C1629 H1641 0.930 . S
C1630 C1626 1.524 . S
C1630 H1642 0.956 . S
C1630 H1643 0.961 . S
C1630 H1644 0.961 . S
C1631 C1628 1.539 . S
C1631 H1645 0.958 . S
C1631 H1646 0.961 . S
C1631 H1647 0.960 . S
H1632 C1616 0.931 . S
H1633 C1621 0.929 . S
H1634 C1622 0.960 . S
H1635 C1622 0.962 . S
H1636 C1622 0.960 . S
H1637 C1623 0.961 . S
H1638 C1623 0.961 . S
H1639 C1623 0.961 . S
H1640 C1624 0.931 . S
H1641 C1629 0.930 . S
H1642 C1630 0.956 . S
H1643 C1630 0.961 . S
H1644 C1630 0.961 . S
H1645 C1631 0.958 . S
H1646 C1631 0.961 . S
H1647 C1631 0.960 . S
C1648 C1649 1.391 . S
C1648 C1650 1.394 . S
C1648 H1664 0.931 . S
C1649 C1648 1.391 . S
C1649 C1653 1.376 . S
C1650 C1648 1.394 . S
C1650 C1651 1.369 . S
C1650 C1654 1.531 . S
C1651 C1650 1.369 . S
C1651 C1652 1.410 . S
C1651 C1659 1.503 . S
C1652 C1651 1.410 . S
C1652 C1653 1.392 . S
C1652 C1655 1.511 . S
C1653 C1649 1.376 . S
C1653 C1652 1.392 . S
C1653 H1665 0.929 . S
C1654 C1650 1.531 . S
C1654 H1666 0.960 . S
C1654 H1667 0.962 1_545 S
C1654 H1668 0.960 . S
C1655 C1652 1.511 . S
C1655 H1669 0.961 . S
C1655 H1670 0.961 . S
C1655 H1671 0.961 . S
C1656 C1657 1.379 . S
C1656 C1658 1.359 . S
C1656 H1672 0.913 1_545 S
C1657 C1656 1.379 . S
C1657 C1661 1.408 . S
C1658 C1656 1.359 . S
C1658 C1659 1.397 . S
C1658 C1662 1.510 1_545 S
C1659 C1651 1.503 . S
C1659 C1658 1.397 . S
C1659 C1660 1.403 . S
C1660 C1659 1.403 . S
C1660 C1661 1.404 . S
C1660 C1663 1.539 . S
C1661 C1657 1.408 . S
C1661 C1660 1.404 . S
C1661 H1673 0.930 . S
C1662 C1658 1.510 1_565 S
C1662 H1674 0.956 . S
C1662 H1675 0.961 . S
C1662 H1676 0.961 . S
C1663 C1660 1.539 . S
C1663 H1677 0.958 . S
C1663 H1678 0.961 . S
C1663 H1679 0.960 . S
H1664 C1648 0.931 . S
H1665 C1653 0.929 . S
H1666 C1654 0.960 . S
H1667 C1654 0.962 1_565 S
H1668 C1654 0.960 . S
H1669 C1655 0.961 . S
H1670 C1655 0.961 . S
H1671 C1655 0.961 . S
H1672 C1656 0.913 1_565 S
H1673 C1661 0.930 . S
H1674 C1662 0.956 . S
H1675 C1662 0.961 . S
H1676 C1662 0.961 . S
H1677 C1663 0.958 . S
H1678 C1663 0.961 . S
H1679 C1663 0.960 . S
C1680 C1681 1.391 . S
C1680 C1682 1.394 . S
C1680 H1696 0.931 . S
C1681 C1680 1.391 . S
C1681 C1685 1.376 1_565 S
C1682 C1680 1.394 . S
C1682 C1683 1.369 . S
C1682 C1686 1.531 . S
C1683 C1682 1.369 . S
C1683 C1684 1.366 1_565 S
C1683 C1691 1.503 . S
C1684 C1683 1.366 1_545 S
C1684 C1685 1.407 . S
C1684 C1687 1.542 . S
C1685 C1681 1.376 1_545 S
C1685 C1684 1.407 . S
C1685 H1697 0.929 . S
C1686 C1682 1.531 . S
C1686 H1698 0.960 . S
C1686 H1699 0.962 . S
C1686 H1700 0.960 . S
C1687 C1684 1.542 . S
C1687 H1701 0.961 . S
C1687 H1702 0.961 . S
C1687 H1703 0.961 . S
C1688 C1689 1.372 . S
C1688 C1690 1.363 1_565 S
C1688 H1704 0.930 1_565 S
C1689 C1688 1.372 . S
C1689 C1693 1.408 . S
C1690 C1688 1.363 1_545 S
C1690 C1691 1.371 1_545 S
C1690 C1694 1.522 . S
C1691 C1683 1.503 . S
C1691 C1690 1.371 1_565 S
C1691 C1692 1.403 . S
C1692 C1691 1.403 . S
C1692 C1693 1.404 . S
C1692 C1695 1.539 . S
C1693 C1689 1.408 . S
C1693 C1692 1.404 . S
C1693 H1705 0.930 . S
C1694 C1690 1.522 . S
C1694 H1706 0.956 . S
C1694 H1707 0.961 . S
C1694 H1708 0.961 . S
C1695 C1692 1.539 . S
C1695 H1709 0.958 . S
C1695 H1710 0.961 . S
C1695 H1711 0.960 . S
H1696 C1680 0.931 . S
H1697 C1685 0.929 . S
H1698 C1686 0.960 . S
H1699 C1686 0.962 . S
H1700 C1686 0.960 . S
H1701 C1687 0.961 . S
H1702 C1687 0.961 . S
H1703 C1687 0.961 . S
H1704 C1688 0.930 1_545 S
H1705 C1693 0.930 . S
H1706 C1694 0.956 . S
H1707 C1694 0.961 . S
H1708 C1694 0.961 . S
H1709 C1695 0.958 . S
H1710 C1695 0.961 . S
H1711 C1695 0.960 . S
C1712 C1713 1.391 1_655 S
C1712 C1714 1.394 . S
C1712 H1728 0.931 . S
C1713 C1712 1.391 1_455 S
C1713 C1717 1.376 . S
C1714 C1712 1.394 . S
C1714 C1715 1.369 1_655 S
C1714 C1718 1.531 . S
C1715 C1714 1.369 1_455 S
C1715 C1716 1.410 . S
C1715 C1723 1.503 . S
C1716 C1715 1.410 . S
C1716 C1717 1.392 . S
C1716 C1719 1.511 . S
C1717 C1713 1.376 . S
C1717 C1716 1.392 . S
C1717 H1729 0.929 . S
C1718 C1714 1.531 . S
C1718 H1730 0.960 . S
C1718 H1731 0.962 . S
C1718 H1732 0.960 . S
C1719 C1716 1.511 . S
C1719 H1733 0.961 . S
C1719 H1734 0.961 . S
C1719 H1735 0.961 . S
C1720 C1721 1.370 . S
C1720 C1722 1.363 . S
C1720 H1736 0.931 . S
C1721 C1720 1.370 . S
C1721 C1725 1.408 . S
C1722 C1720 1.363 . S
C1722 C1723 1.370 . S
C1722 C1726 1.524 . S
C1723 C1715 1.503 . S
C1723 C1722 1.370 . S
C1723 C1724 1.403 . S
C1724 C1723 1.403 . S
C1724 C1725 1.404 . S
C1724 C1727 1.539 . S
C1725 C1721 1.408 . S
C1725 C1724 1.404 . S
C1725 H1737 0.930 . S
C1726 C1722 1.524 . S
C1726 H1738 0.984 . S
C1726 H1739 0.961 . S
C1726 H1740 0.961 . S
C1727 C1724 1.539 . S
C1727 H1741 0.958 . S
C1727 H1742 0.961 . S
C1727 H1743 0.960 . S
H1728 C1712 0.931 . S
H1729 C1717 0.929 . S
H1730 C1718 0.960 . S
H1731 C1718 0.962 . S
H1732 C1718 0.960 . S
H1733 C1719 0.961 . S
H1734 C1719 0.961 . S
H1735 C1719 0.961 . S
H1736 C1720 0.931 . S
H1737 C1725 0.930 . S
H1738 C1726 0.984 . S
H1739 C1726 0.961 . S
H1740 C1726 0.961 . S
H1741 C1727 0.958 . S
H1742 C1727 0.961 . S
H1743 C1727 0.960 . S
C1744 C1745 1.391 . S
C1744 C1746 1.394 1_554 S
C1744 H1760 0.931 . S
C1745 C1744 1.391 . S
C1745 C1749 1.376 . S
C1746 C1744 1.394 1_556 S
C1746 C1747 1.369 . S
C1746 C1750 1.531 . S
C1747 C1746 1.369 . S
C1747 C1748 1.410 . S
C1747 C1755 1.503 . S
C1748 C1747 1.410 . S
C1748 C1749 1.392 1_556 S
C1748 C1751 1.511 . S
C1749 C1745 1.376 . S
C1749 C1748 1.392 1_554 S
C1749 H1761 0.929 . S
C1750 C1746 1.531 . S
C1750 H1762 0.960 . S
C1750 H1763 0.962 . S
C1750 H1764 0.960 . S
C1751 C1748 1.511 . S
C1751 H1765 0.961 . S
C1751 H1766 0.961 . S
C1751 H1767 0.961 . S
C1752 C1753 1.370 . S
C1752 C1754 1.363 . S
C1752 H1768 0.931 . S
C1753 C1752 1.370 . S
C1753 C1757 1.408 . S
C1754 C1752 1.363 . S
C1754 C1755 1.370 . S
C1754 C1758 1.524 . S
C1755 C1747 1.503 . S
C1755 C1754 1.370 . S
C1755 C1756 1.403 . S
C1756 C1755 1.403 . S
C1756 C1757 1.404 . S
C1756 C1759 1.539 . S
C1757 C1753 1.408 . S
C1757 C1756 1.404 . S
C1757 H1769 0.930 . S
C1758 C1754 1.524 . S
C1758 H1770 0.956 . S
C1758 H1771 0.961 . S
C1758 H1772 0.961 . S
C1759 C1756 1.539 . S
C1759 H1773 0.958 . S
C1759 H1774 0.961 . S
C1759 H1775 0.960 . S
H1760 C1744 0.931 . S
H1761 C1749 0.929 . S
H1762 C1750 0.960 . S
H1763 C1750 0.962 . S
H1764 C1750 0.960 . S
H1765 C1751 0.961 . S
H1766 C1751 0.961 . S
H1767 C1751 0.961 . S
H1768 C1752 0.931 . S
H1769 C1757 0.930 . S
H1770 C1758 0.956 . S
H1771 C1758 0.961 . S
H1772 C1758 0.961 . S
H1773 C1759 0.958 . S
H1774 C1759 0.961 . S
H1775 C1759 0.960 . S
C1776 C1777 1.391 . S
C1776 C1778 1.394 1_554 S
C1776 H1792 0.931 . S
C1777 C1776 1.391 . S
C1777 C1781 1.376 1_454 S
C1778 C1776 1.394 1_556 S
C1778 C1779 1.369 . S
C1778 C1782 1.531 . S
C1779 C1778 1.369 . S
C1779 C1780 1.410 1_455 S
C1779 C1787 1.479 . S
C1780 C1779 1.410 1_655 S
C1780 C1781 1.392 . S
C1780 C1783 1.511 . S
C1781 C1777 1.376 1_656 S
C1781 C1780 1.392 . S
C1781 H1793 0.929 . S
C1782 C1778 1.531 . S
C1782 H1794 0.960 . S
C1782 H1795 0.962 . S
C1782 H1796 0.960 1_556 S
C1783 C1780 1.511 . S
C1783 H1797 0.961 . S
C1783 H1798 0.961 . S
C1783 H1799 0.961 . S
C1784 C1785 1.378 . S
C1784 C1786 1.363 . S
C1784 H1800 0.931 . S
C1785 C1784 1.378 . S
C1785 C1789 1.385 1_455 S
C1786 C1784 1.363 . S
C1786 C1787 1.407 . S
C1786 C1790 1.524 . S
C1787 C1779 1.479 . S
C1787 C1786 1.407 . S
C1787 C1788 1.394 1_455 S
C1788 C1787 1.394 1_655 S
C1788 C1789 1.404 . S
C1788 C1791 1.539 . S
C1789 C1785 1.385 1_655 S
C1789 C1788 1.404 . S
C1789 H1801 0.930 . S
C1790 C1786 1.524 . S
C1790 H1802 0.956 . S
C1790 H1803 0.961 . S
C1790 H1804 0.961 . S
C1791 C1788 1.539 . S
C1791 H1805 0.958 . S
C1791 H1806 0.961 . S
C1791 H1807 0.960 . S
H1792 C1776 0.931 . S
H1793 C1781 0.929 . S
H1794 C1782 0.960 . S
H1795 C1782 0.962 . S
H1796 C1782 0.960 1_554 S
H1797 C1783 0.961 . S
H1798 C1783 0.961 . S
H1799 C1783 0.961 . S
H1800 C1784 0.931 . S
H1801 C1789 0.930 . S
H1802 C1790 0.956 . S
H1803 C1790 0.961 . S
H1804 C1790 0.961 . S
H1805 C1791 0.958 . S
H1806 C1791 0.961 . S
H1807 C1791 0.960 . S
C1808 C1809 1.391 . S
C1808 C1810 1.394 . S
C1808 H1824 0.931 . S
C1809 C1808 1.391 . S
C1809 C1813 1.376 . S
C1810 C1808 1.394 . S
C1810 C1811 1.369 . S
C1810 C1814 1.531 . S
C1811 C1810 1.369 . S
C1811 C1812 1.410 . S
C1811 C1819 1.503 . S
C1812 C1811 1.410 . S
C1812 C1813 1.392 . S
C1812 C1815 1.511 . S
C1813 C1809 1.376 . S
C1813 C1812 1.392 . S
C1813 H1825 0.929 . S
C1814 C1810 1.531 . S
C1814 H1826 0.960 . S
C1814 H1827 0.962 . S
C1814 H1828 0.960 . S
C1815 C1812 1.511 . S
C1815 H1829 0.961 . S
C1815 H1830 0.961 . S
C1815 H1831 0.961 . S
C1816 C1817 1.370 . S
C1816 C1818 1.363 . S
C1816 H1832 0.931 . S
C1817 C1816 1.370 . S
C1817 C1821 1.408 . S
C1818 C1816 1.363 . S
C1818 C1819 1.370 . S
C1818 C1822 1.524 . S
C1819 C1811 1.503 . S
C1819 C1818 1.370 . S
C1819 C1820 1.403 . S
C1820 C1819 1.403 . S
C1820 C1821 1.404 . S
C1820 C1823 1.539 . S
C1821 C1817 1.408 . S
C1821 C1820 1.404 . S
C1821 H1833 0.930 . S
C1822 C1818 1.524 . S
C1822 H1834 0.956 . S
C1822 H1835 0.961 . S
C1822 H1836 0.961 . S
C1823 C1820 1.539 . S
C1823 H1837 0.958 . S
C1823 H1838 0.961 . S
C1823 H1839 0.960 . S
H1824 C1808 0.931 . S
H1825 C1813 0.929 . S
H1826 C1814 0.960 . S
H1827 C1814 0.962 . S
H1828 C1814 0.960 . S
H1829 C1815 0.961 . S
H1830 C1815 0.961 . S
H1831 C1815 0.961 . S
H1832 C1816 0.931 . S
H1833 C1821 0.930 . S
H1834 C1822 0.956 . S
H1835 C1822 0.961 . S
H1836 C1822 0.961 . S
H1837 C1823 0.958 . S
H1838 C1823 0.961 . S
H1839 C1823 0.960 . S
C1840 C1841 1.391 . S
C1840 C1842 1.394 . S
C1840 H1856 0.931 . S
C1841 C1840 1.391 . S
C1841 C1845 1.376 1_565 S
C1842 C1840 1.394 . S
C1842 C1843 1.369 . S
C1842 C1846 1.531 . S
C1843 C1842 1.369 . S
C1843 C1844 1.410 1_565 S
C1843 C1851 1.503 . S
C1844 C1843 1.410 1_545 S
C1844 C1845 1.397 . S
C1844 C1847 1.511 . S
C1845 C1841 1.376 1_545 S
C1845 C1844 1.397 . S
C1845 H1857 0.923 1_556 S
C1846 C1842 1.531 . S
C1846 H1858 0.960 . S
C1846 H1859 0.962 . S
C1846 H1860 0.960 . S
C1847 C1844 1.511 . S
C1847 H1861 0.961 . S
C1847 H1862 0.961 . S
C1847 H1863 0.961 . S
C1848 C1849 1.370 . S
C1848 C1850 1.363 . S
C1848 H1864 0.931 . S
C1849 C1848 1.370 . S
C1849 C1853 1.408 1_545 S
C1850 C1848 1.363 . S
C1850 C1851 1.370 1_545 S
C1850 C1854 1.524 . S
C1851 C1843 1.503 . S
C1851 C1850 1.370 1_565 S
C1851 C1852 1.403 . S
C1852 C1851 1.403 . S
C1852 C1853 1.404 . S
C1852 C1855 1.539 . S
C1853 C1849 1.408 1_565 S
C1853 C1852 1.404 . S
C1853 H1865 0.930 . S
C1854 C1850 1.524 . S
C1854 H1866 0.956 . S
C1854 H1867 0.961 . S
C1854 H1868 0.961 . S
C1855 C1852 1.539 . S
C1855 H1869 0.958 . S
C1855 H1870 0.961 . S
C1855 H1871 0.960 . S
H1856 C1840 0.931 . S
H1857 C1845 0.923 1_554 S
H1858 C1846 0.960 . S
H1859 C1846 0.962 . S
H1860 C1846 0.960 . S
H1861 C1847 0.961 . S
H1862 C1847 0.961 . S
H1863 C1847 0.961 . S
H1864 C1848 0.931 . S
H1865 C1853 0.930 . S
H1866 C1854 0.956 . S
H1867 C1854 0.961 . S
H1868 C1854 0.961 . S
H1869 C1855 0.958 . S
H1870 C1855 0.961 . S
H1871 C1855 0.960 . S
C1872 C1873 1.391 1_565 S
C1872 C1874 1.394 . S
C1872 H1888 0.931 . S
C1873 C1872 1.391 1_545 S
C1873 C1877 1.376 . S
C1874 C1872 1.394 . S
C1874 C1875 1.369 1_565 S
C1874 C1878 1.531 . S
C1875 C1874 1.369 1_545 S
C1875 C1876 1.410 . S
C1875 C1883 1.503 . S
C1876 C1875 1.410 . S
C1876 C1877 1.392 . S
C1876 C1879 1.511 . S
C1877 C1873 1.376 . S
C1877 C1876 1.392 . S
C1877 H1889 0.929 . S
C1878 C1874 1.531 . S
C1878 H1890 0.960 . S
C1878 H1891 0.962 . S
C1878 H1892 0.960 . S
C1879 C1876 1.511 . S
C1879 H1893 0.961 . S
C1879 H1894 0.961 . S
C1879 H1895 0.961 . S
C1880 C1881 1.369 1_565 S
C1880 C1882 1.363 . S
C1880 H1896 0.931 . S
C1881 C1880 1.369 1_545 S
C1881 C1885 1.409 . S
C1882 C1880 1.363 . S
C1882 C1883 1.370 1_565 S
C1882 C1886 1.524 . S
C1883 C1875 1.503 . S
C1883 C1882 1.370 1_545 S
C1883 C1884 1.403 . S
C1884 C1883 1.403 . S
C1884 C1885 1.404 . S
C1884 C1887 1.539 . S
C1885 C1881 1.409 . S
C1885 C1884 1.404 . S
C1885 H1897 0.930 . S
C1886 C1882 1.524 . S
C1886 H1898 0.956 . S
C1886 H1899 0.961 . S
C1886 H1900 0.961 . S
C1887 C1884 1.539 . S
C1887 H1901 0.958 . S
C1887 H1902 0.961 . S
C1887 H1903 0.960 . S
H1888 C1872 0.931 . S
H1889 C1877 0.929 . S
H1890 C1878 0.960 . S
H1891 C1878 0.962 . S
H1892 C1878 0.960 . S
H1893 C1879 0.961 . S
H1894 C1879 0.961 . S
H1895 C1879 0.961 . S
H1896 C1880 0.931 . S
H1897 C1885 0.930 . S
H1898 C1886 0.956 . S
H1899 C1886 0.961 . S
H1900 C1886 0.961 . S
H1901 C1887 0.958 . S
H1902 C1887 0.961 . S
H1903 C1887 0.960 . S
C1904 C1905 1.391 . S
C1904 C1906 1.394 . S
C1904 H1920 0.931 . S
C1905 C1904 1.391 . S
C1905 C1909 1.376 1_655 S
C1906 C1904 1.394 . S
C1906 C1907 1.353 1_655 S
C1906 C1910 1.531 . S
C1907 C1906 1.353 1_455 S
C1907 C1908 1.402 . S
C1907 C1915 1.511 . S
C1908 C1907 1.402 . S
C1908 C1909 1.392 . S
C1908 C1911 1.511 . S
C1909 C1905 1.376 1_455 S
C1909 C1908 1.392 . S
C1909 H1921 0.929 . S
C1910 C1906 1.531 . S
C1910 H1922 0.960 . S
C1910 H1923 0.962 . S
C1910 H1924 0.960 . S
C1911 C1908 1.511 . S
C1911 H1925 0.961 . S
C1911 H1926 0.961 . S
C1911 H1927 0.961 . S
C1912 C1913 1.371 . S
C1912 C1914 1.363 . S
C1912 H1928 0.931 . S
C1913 C1912 1.371 . S
C1913 C1917 1.407 1_655 S
C1914 C1912 1.363 . S
C1914 C1915 1.340 1_655 S
C1914 C1918 1.524 . S
C1915 C1907 1.511 . S
C1915 C1914 1.340 1_455 S
C1915 C1916 1.447 . S
C1916 C1915 1.447 . S
C1916 C1917 1.404 . S
C1916 C1919 1.539 . S
C1917 C1913 1.407 1_455 S
C1917 C1916 1.404 . S
C1917 H1929 0.930 . S
C1918 C1914 1.524 . S
C1918 H1930 0.956 . S
C1918 H1931 0.961 . S
C1918 H1932 0.961 . S
C1919 C1916 1.539 . S
C1919 H1933 0.958 . S
C1919 H1934 0.961 . S
C1919 H1935 0.960 . S
H1920 C1904 0.931 . S
H1921 C1909 0.929 . S
H1922 C1910 0.960 . S
H1923 C1910 0.962 . S
H1924 C1910 0.960 . S
H1925 C1911 0.961 . S
H1926 C1911 0.961 . S
H1927 C1911 0.961 . S
H1928 C1912 0.931 . S
H1929 C1917 0.930 . S
H1930 C1918 0.956 . S
H1931 C1918 0.961 . S
H1932 C1918 0.961 . S
H1933 C1919 0.958 . S
H1934 C1919 0.961 . S
H1935 C1919 0.960 . S
C1936 C1937 1.391 . S
C1936 C1938 1.394 . S
C1936 H1952 0.931 . S
C1937 C1936 1.391 . S
C1937 C1941 1.376 . S
C1938 C1936 1.394 . S
C1938 C1939 1.369 . S
C1938 C1942 1.531 . S
C1939 C1938 1.369 . S
C1939 C1940 1.410 . S
C1939 C1947 1.503 . S
C1940 C1939 1.410 . S
C1940 C1941 1.392 . S
C1940 C1943 1.511 . S
C1941 C1937 1.376 . S
C1941 C1940 1.392 . S
C1941 H1953 0.929 . S
C1942 C1938 1.531 . S
C1942 H1954 0.960 . S
C1942 H1955 0.962 . S
C1942 H1956 0.960 . S
C1943 C1940 1.511 . S
C1943 H1957 0.961 . S
C1943 H1958 0.961 . S
C1943 H1959 0.961 . S
C1944 C1945 1.370 . S
C1944 C1946 1.363 . S
C1944 H1960 0.931 . S
C1945 C1944 1.370 . S
C1945 C1949 1.408 . S
C1946 C1944 1.363 . S
C1946 C1947 1.370 . S
C1946 C1950 1.524 . S
C1947 C1939 1.503 . S
C1947 C1946 1.370 . S
C1947 C1948 1.403 . S
C1948 C1947 1.403 . S
C1948 C1949 1.404 . S
C1948 C1951 1.539 . S
C1949 C1945 1.408 . S
C1949 C1948 1.404 . S
C1949 H1961 0.930 . S
C1950 C1946 1.524 . S
C1950 H1962 0.956 . S
C1950 H1963 0.961 . S
C1950 H1964 0.961 . S
C1951 C1948 1.539 . S
C1951 H1965 0.958 . S
C1951 H1966 0.961 . S
C1951 H1967 0.960 . S
H1952 C1936 0.931 . S
H1953 C1941 0.929 . S
H1954 C1942 0.960 . S
H1955 C1942 0.962 . S
H1956 C1942 0.960 . S
H1957 C1943 0.961 . S
H1958 C1943 0.961 . S
H1959 C1943 0.961 . S
H1960 C1944 0.931 . S
H1961 C1949 0.930 . S
H1962 C1950 0.956 . S
H1963 C1950 0.961 . S
H1964 C1950 0.961 . S
H1965 C1951 0.958 . S
H1966 C1951 0.961 . S
H1967 C1951 0.960 . S
C1968 C1969 1.391 . S
C1968 C1970 1.394 . S
C1968 H1984 0.931 . S
C1969 C1968 1.391 . S
C1969 C1973 1.376 . S
C1970 C1968 1.394 . S
C1970 C1971 1.369 . S
C1970 C1974 1.531 . S
C1971 C1970 1.369 . S
C1971 C1972 1.410 . S
C1971 C1979 1.503 . S
C1972 C1971 1.410 . S
C1972 C1973 1.392 . S
C1972 C1975 1.511 . S
C1973 C1969 1.376 . S
C1973 C1972 1.392 . S
C1973 H1985 0.929 . S
C1974 C1970 1.531 . S
C1974 H1986 0.960 . S
C1974 H1987 0.962 . S
C1974 H1988 0.960 . S
C1975 C1972 1.511 . S
C1975 H1989 0.961 . S
C1975 H1990 0.961 . S
C1975 H1991 0.961 . S
C1976 C1977 1.370 . S
C1976 C1978 1.363 . S
C1976 H1992 0.931 . S
C1977 C1976 1.370 . S
C1977 C1981 1.408 . S
C1978 C1976 1.363 . S
C1978 C1979 1.370 . S
C1978 C1982 1.524 . S
C1979 C1971 1.503 . S
C1979 C1978 1.370 . S
C1979 C1980 1.403 . S
C1980 C1979 1.403 . S
C1980 C1981 1.404 . S
C1980 C1983 1.539 . S
C1981 C1977 1.408 . S
C1981 C1980 1.404 . S
C1981 H1993 0.930 . S
C1982 C1978 1.524 . S
C1982 H1994 0.956 . S
C1982 H1995 0.961 . S
C1982 H1996 0.961 . S
C1983 C1980 1.539 . S
C1983 H1997 0.958 . S
C1983 H1998 0.961 . S
C1983 H1999 0.960 . S
H1984 C1968 0.931 . S
H1985 C1973 0.929 . S
H1986 C1974 0.960 . S
H1987 C1974 0.962 . S
H1988 C1974 0.960 . S
H1989 C1975 0.961 . S
H1990 C1975 0.961 . S
H1991 C1975 0.961 . S
H1992 C1976 0.931 . S
H1993 C1981 0.930 . S
H1994 C1982 0.956 . S
H1995 C1982 0.961 . S
H1996 C1982 0.961 . S
H1997 C1983 0.958 . S
H1998 C1983 0.961 . S
H1999 C1983 0.960 . S
C2000 C2001 1.391 . S
C2000 C2002 1.394 . S
C2000 H2016 0.931 . S
C2001 C2000 1.391 . S
C2001 C2005 1.376 . S
C2002 C2000 1.394 . S
C2002 C2003 1.369 . S
C2002 C2006 1.531 . S
C2003 C2002 1.369 . S
C2003 C2004 1.410 . S
C2003 C2011 1.503 . S
C2004 C2003 1.410 . S
C2004 C2005 1.392 . S
C2004 C2007 1.511 . S
C2005 C2001 1.376 . S
C2005 C2004 1.392 . S
C2005 H2017 0.929 . S
C2006 C2002 1.531 . S
C2006 H2018 0.960 . S
C2006 H2019 0.962 . S
C2006 H2020 0.960 . S
C2007 C2004 1.511 . S
C2007 H2021 0.961 . S
C2007 H2022 0.961 . S
C2007 H2023 0.961 . S
C2008 C2009 1.370 . S
C2008 C2010 1.363 . S
C2008 H2024 0.931 . S
C2009 C2008 1.370 . S
C2009 C2013 1.408 . S
C2010 C2008 1.363 . S
C2010 C2011 1.370 . S
C2010 C2014 1.524 . S
C2011 C2003 1.503 . S
C2011 C2010 1.370 . S
C2011 C2012 1.403 . S
C2012 C2011 1.403 . S
C2012 C2013 1.404 . S
C2012 C2015 1.539 . S
C2013 C2009 1.408 . S
C2013 C2012 1.404 . S
C2013 H2025 0.930 . S
C2014 C2010 1.524 . S
C2014 H2026 0.956 . S
C2014 H2027 0.961 . S
C2014 H2028 0.961 . S
C2015 C2012 1.539 . S
C2015 H2029 0.958 . S
C2015 H2030 0.961 . S
C2015 H2031 0.960 . S
H2016 C2000 0.931 . S
H2017 C2005 0.929 . S
H2018 C2006 0.960 . S
H2019 C2006 0.962 . S
H2020 C2006 0.960 . S
H2021 C2007 0.961 . S
H2022 C2007 0.961 . S
H2023 C2007 0.961 . S
H2024 C2008 0.931 . S
H2025 C2013 0.930 . S
H2026 C2014 0.956 . S
H2027 C2014 0.961 . S
H2028 C2014 0.961 . S
H2029 C2015 0.958 . S
H2030 C2015 0.961 . S
H2031 C2015 0.960 . S
C2032 C2033 1.391 . S
C2032 C2034 1.394 . S
C2032 H2048 0.931 . S
C2033 C2032 1.391 . S
C2033 C2037 1.376 . S
C2034 C2032 1.394 . S
C2034 C2035 1.369 . S
C2034 C2038 1.531 . S
C2035 C2034 1.369 . S
C2035 C2036 1.410 . S
C2035 C2043 1.503 . S
C2036 C2035 1.410 . S
C2036 C2037 1.392 . S
C2036 C2039 1.511 . S
C2037 C2033 1.376 . S
C2037 C2036 1.392 . S
C2037 H2049 0.929 . S
C2038 C2034 1.531 . S
C2038 H2050 0.960 . S
C2038 H2051 0.962 . S
C2038 H2052 0.960 . S
C2039 C2036 1.511 . S
C2039 H2053 0.961 . S
C2039 H2054 0.961 . S
C2039 H2055 0.961 . S
C2040 C2041 1.370 . S
C2040 C2042 1.363 . S
C2040 H2056 0.931 . S
C2041 C2040 1.370 . S
C2041 C2045 1.408 . S
C2042 C2040 1.363 . S
C2042 C2043 1.370 . S
C2042 C2046 1.524 . S
C2043 C2035 1.503 . S
C2043 C2042 1.370 . S
C2043 C2044 1.403 . S
C2044 C2043 1.403 . S
C2044 C2045 1.404 . S
C2044 C2047 1.539 . S
C2045 C2041 1.408 . S
C2045 C2044 1.404 . S
C2045 H2057 0.930 . S
C2046 C2042 1.524 . S
C2046 H2058 0.956 . S
C2046 H2059 0.961 . S
C2046 H2060 0.961 . S
C2047 C2044 1.539 . S
C2047 H2061 0.958 . S
C2047 H2062 0.961 . S
C2047 H2063 0.960 . S
H2048 C2032 0.931 . S
H2049 C2037 0.929 . S
H2050 C2038 0.960 . S
H2051 C2038 0.962 . S
H2052 C2038 0.960 . S
H2053 C2039 0.961 . S
H2054 C2039 0.961 . S
H2055 C2039 0.961 . S
H2056 C2040 0.931 . S
H2057 C2045 0.930 . S
H2058 C2046 0.956 . S
H2059 C2046 0.961 . S
H2060 C2046 0.961 . S
H2061 C2047 0.958 . S
H2062 C2047 0.961 . S
H2063 C2047 0.960 . S
C2064 C2065 1.391 . S
C2064 C2066 1.394 . S
C2064 H2080 0.931 . S
C2065 C2064 1.391 . S
C2065 C2069 1.376 . S
C2066 C2064 1.394 . S
C2066 C2067 1.369 . S
C2066 C2070 1.531 . S
C2067 C2066 1.369 . S
C2067 C2068 1.410 . S
C2067 C2075 1.503 . S
C2068 C2067 1.410 . S
C2068 C2069 1.392 . S
C2068 C2071 1.511 . S
C2069 C2065 1.376 . S
C2069 C2068 1.392 . S
C2069 H2081 0.929 . S
C2070 C2066 1.531 . S
C2070 H2082 0.960 . S
C2070 H2083 0.962 . S
C2070 H2084 0.960 . S
C2071 C2068 1.511 . S
C2071 H2085 0.961 . S
C2071 H2086 0.961 . S
C2071 H2087 0.961 . S
C2072 C2073 1.370 . S
C2072 C2074 1.363 . S
C2072 H2088 0.931 . S
C2073 C2072 1.370 . S
C2073 C2077 1.408 . S
C2074 C2072 1.363 . S
C2074 C2075 1.370 . S
C2074 C2078 1.524 . S
C2075 C2067 1.503 . S
C2075 C2074 1.370 . S
C2075 C2076 1.403 . S
C2076 C2075 1.403 . S
C2076 C2077 1.404 . S
C2076 C2079 1.539 . S
C2077 C2073 1.408 . S
C2077 C2076 1.404 . S
C2077 H2089 0.930 . S
C2078 C2074 1.524 . S
C2078 H2090 0.956 . S
C2078 H2091 0.961 . S
C2078 H2092 0.961 . S
C2079 C2076 1.539 . S
C2079 H2093 0.958 . S
C2079 H2094 0.961 . S
C2079 H2095 0.960 . S
H2080 C2064 0.931 . S
H2081 C2069 0.929 . S
H2082 C2070 0.960 . S
H2083 C2070 0.962 . S
H2084 C2070 0.960 . S
H2085 C2071 0.961 . S
H2086 C2071 0.961 . S
H2087 C2071 0.961 . S
H2088 C2072 0.931 . S
H2089 C2077 0.930 . S
H2090 C2078 0.956 . S
H2091 C2078 0.961 . S
H2092 C2078 0.961 . S
H2093 C2079 0.958 . S
H2094 C2079 0.961 . S
H2095 C2079 0.960 . S
C2096 C2097 1.391 . S
C2096 C2098 1.394 . S
C2096 H2112 0.931 . S
C2097 C2096 1.391 . S
C2097 C2101 1.376 . S
C2098 C2096 1.394 . S
C2098 C2099 1.369 . S
C2098 C2102 1.531 . S
C2099 C2098 1.369 . S
C2099 C2100 1.410 . S
C2099 C2107 1.503 . S
C2100 C2099 1.410 . S
C2100 C2101 1.392 . S
C2100 C2103 1.511 . S
C2101 C2097 1.376 . S
C2101 C2100 1.392 . S
C2101 H2113 0.929 . S
C2102 C2098 1.531 . S
C2102 H2114 0.960 . S
C2102 H2115 0.962 . S
C2102 H2116 0.960 . S
C2103 C2100 1.511 . S
C2103 H2117 0.961 . S
C2103 H2118 0.961 . S
C2103 H2119 0.961 . S
C2104 C2105 1.370 . S
C2104 C2106 1.363 . S
C2104 H2120 0.931 . S
C2105 C2104 1.370 . S
C2105 C2109 1.408 . S
C2106 C2104 1.363 . S
C2106 C2107 1.370 . S
C2106 C2110 1.524 . S
C2107 C2099 1.503 . S
C2107 C2106 1.370 . S
C2107 C2108 1.403 . S
C2108 C2107 1.403 . S
C2108 C2109 1.404 . S
C2108 C2111 1.539 . S
C2109 C2105 1.408 . S
C2109 C2108 1.404 . S
C2109 H2121 0.930 . S
C2110 C2106 1.524 . S
C2110 H2122 0.956 . S
C2110 H2123 0.961 . S
C2110 H2124 0.961 . S
C2111 C2108 1.539 . S
C2111 H2125 0.958 . S
C2111 H2126 0.961 . S
C2111 H2127 0.960 . S
H2112 C2096 0.931 . S
H2113 C2101 0.929 . S
H2114 C2102 0.960 . S
H2115 C2102 0.962 . S
H2116 C2102 0.960 . S
H2117 C2103 0.961 . S
H2118 C2103 0.961 . S
H2119 C2103 0.961 . S
H2120 C2104 0.931 . S
H2121 C2109 0.930 . S
H2122 C2110 0.956 . S
H2123 C2110 0.961 . S
H2124 C2110 0.961 . S
H2125 C2111 0.958 . S
H2126 C2111 0.961 . S
H2127 C2111 0.960 . S
C2128 C2129 1.391 . S
C2128 C2130 1.394 . S
C2128 H2144 0.931 . S
C2129 C2128 1.391 . S
C2129 C2133 1.376 . S
C2130 C2128 1.394 . S
C2130 C2131 1.369 . S
C2130 C2134 1.531 . S
C2131 C2130 1.369 . S
C2131 C2132 1.410 . S
C2131 C2139 1.503 . S
C2132 C2131 1.410 . S
C2132 C2133 1.392 . S
C2132 C2135 1.511 . S
C2133 C2129 1.376 . S
C2133 C2132 1.392 . S
C2133 H2145 0.929 . S
C2134 C2130 1.531 . S
C2134 H2146 0.960 . S
C2134 H2147 0.962 . S
C2134 H2148 0.960 . S
C2135 C2132 1.511 . S
C2135 H2149 0.961 . S
C2135 H2150 0.961 . S
C2135 H2151 0.961 . S
C2136 C2137 1.370 . S
C2136 C2138 1.363 . S
C2136 H2152 0.931 . S
C2137 C2136 1.370 . S
C2137 C2141 1.408 . S
C2138 C2136 1.363 . S
C2138 C2139 1.370 . S
C2138 C2142 1.524 . S
C2139 C2131 1.503 . S
C2139 C2138 1.370 . S
C2139 C2140 1.403 . S
C2140 C2139 1.403 . S
C2140 C2141 1.404 . S
C2140 C2143 1.539 . S
C2141 C2137 1.408 . S
C2141 C2140 1.404 . S
C2141 H2153 0.930 . S
C2142 C2138 1.524 . S
C2142 H2154 0.956 . S
C2142 H2155 0.961 . S
C2142 H2156 0.961 . S
C2143 C2140 1.539 . S
C2143 H2157 0.958 . S
C2143 H2158 0.961 . S
C2143 H2159 0.960 . S
H2144 C2128 0.931 . S
H2145 C2133 0.929 . S
H2146 C2134 0.960 . S
H2147 C2134 0.962 . S
H2148 C2134 0.960 . S
H2149 C2135 0.961 . S
H2150 C2135 0.961 . S
H2151 C2135 0.961 . S
H2152 C2136 0.931 . S
H2153 C2141 0.930 . S
H2154 C2142 0.956 . S
H2155 C2142 0.961 . S
H2156 C2142 0.961 . S
H2157 C2143 0.958 . S
H2158 C2143 0.961 . S
H2159 C2143 0.960 . S
C2160 C2161 1.391 . S
C2160 C2162 1.394 . S
C2160 H2176 0.931 . S
C2161 C2160 1.391 . S
C2161 C2165 1.376 . S
C2162 C2160 1.394 . S
C2162 C2163 1.369 . S
C2162 C2166 1.531 . S
C2163 C2162 1.369 . S
C2163 C2164 1.410 . S
C2163 C2171 1.503 . S
C2164 C2163 1.410 . S
C2164 C2165 1.392 . S
C2164 C2167 1.511 . S
C2165 C2161 1.376 . S
C2165 C2164 1.392 . S
C2165 H2177 0.929 . S
C2166 C2162 1.531 . S
C2166 H2178 0.960 . S
C2166 H2179 0.962 . S
C2166 H2180 0.960 . S
C2167 C2164 1.511 . S
C2167 H2181 0.961 . S
C2167 H2182 0.961 . S
C2167 H2183 0.961 . S
C2168 C2169 1.370 . S
C2168 C2170 1.363 . S
C2168 H2184 0.931 . S
C2169 C2168 1.370 . S
C2169 C2173 1.408 . S
C2170 C2168 1.363 . S
C2170 C2171 1.370 . S
C2170 C2174 1.524 . S
C2171 C2163 1.503 . S
C2171 C2170 1.370 . S
C2171 C2172 1.403 . S
C2172 C2171 1.403 . S
C2172 C2173 1.404 . S
C2172 C2175 1.539 . S
C2173 C2169 1.408 . S
C2173 C2172 1.404 . S
C2173 H2185 0.930 . S
C2174 C2170 1.524 . S
C2174 H2186 0.956 . S
C2174 H2187 0.961 . S
C2174 H2188 0.961 . S
C2175 C2172 1.539 . S
C2175 H2189 0.958 . S
C2175 H2190 0.961 . S
C2175 H2191 0.960 . S
H2176 C2160 0.931 . S
H2177 C2165 0.929 . S
H2178 C2166 0.960 . S
H2179 C2166 0.962 . S
H2180 C2166 0.960 . S
H2181 C2167 0.961 . S
H2182 C2167 0.961 . S
H2183 C2167 0.961 . S
H2184 C2168 0.931 . S
H2185 C2173 0.930 . S
H2186 C2174 0.956 . S
H2187 C2174 0.961 . S
H2188 C2174 0.961 . S
H2189 C2175 0.958 . S
H2190 C2175 0.961 . S
H2191 C2175 0.960 . S
C2192 C2193 1.391 . S
C2192 C2194 1.394 . S
C2192 H2208 0.931 . S
C2193 C2192 1.391 . S
C2193 C2197 1.376 . S
C2194 C2192 1.394 . S
C2194 C2195 1.369 . S
C2194 C2198 1.531 . S
C2195 C2194 1.369 . S
C2195 C2196 1.410 . S
C2195 C2203 1.503 . S
C2196 C2195 1.410 . S
C2196 C2197 1.392 . S
C2196 C2199 1.511 . S
C2197 C2193 1.376 . S
C2197 C2196 1.392 . S
C2197 H2209 0.929 . S
C2198 C2194 1.531 . S
C2198 H2210 0.960 . S
C2198 H2211 0.962 . S
C2198 H2212 0.960 . S
C2199 C2196 1.511 . S
C2199 H2213 0.961 . S
C2199 H2214 0.961 . S
C2199 H2215 0.961 . S
C2200 C2201 1.370 . S
C2200 C2202 1.363 . S
C2200 H2216 0.931 . S
C2201 C2200 1.370 . S
C2201 C2205 1.408 . S
C2202 C2200 1.363 . S
C2202 C2203 1.370 . S
C2202 C2206 1.524 . S
C2203 C2195 1.503 . S
C2203 C2202 1.370 . S
C2203 C2204 1.403 . S
C2204 C2203 1.403 . S
C2204 C2205 1.404 . S
C2204 C2207 1.539 . S
C2205 C2201 1.408 . S
C2205 C2204 1.404 . S
C2205 H2217 0.930 . S
C2206 C2202 1.524 . S
C2206 H2218 0.956 . S
C2206 H2219 0.961 . S
C2206 H2220 0.961 . S
C2207 C2204 1.539 . S
C2207 H2221 0.958 . S
C2207 H2222 0.961 . S
C2207 H2223 0.960 . S
H2208 C2192 0.931 . S
H2209 C2197 0.929 . S
H2210 C2198 0.960 . S
H2211 C2198 0.962 . S
H2212 C2198 0.960 . S
H2213 C2199 0.961 . S
H2214 C2199 0.961 . S
H2215 C2199 0.961 . S
H2216 C2200 0.931 . S
H2217 C2205 0.930 . S
H2218 C2206 0.956 . S
H2219 C2206 0.961 . S
H2220 C2206 0.961 . S
H2221 C2207 0.958 . S
H2222 C2207 0.961 . S
H2223 C2207 0.960 . S
C2224 C2225 1.391 . S
C2224 C2226 1.394 . S
C2224 H2240 0.931 . S
C2225 C2224 1.391 . S
C2225 C2229 1.376 . S
C2226 C2224 1.394 . S
C2226 C2227 1.369 . S
C2226 C2230 1.531 . S
C2227 C2226 1.369 . S
C2227 C2228 1.410 . S
C2227 C2235 1.503 . S
C2228 C2227 1.410 . S
C2228 C2229 1.392 . S
C2228 C2231 1.511 . S
C2229 C2225 1.376 . S
C2229 C2228 1.392 . S
C2229 H2241 0.929 . S
C2230 C2226 1.531 . S
C2230 H2242 0.960 . S
C2230 H2243 0.962 . S
C2230 H2244 0.960 . S
C2231 C2228 1.511 . S
C2231 H2245 0.961 . S
C2231 H2246 0.961 . S
C2231 H2247 0.961 . S
C2232 C2233 1.370 . S
C2232 C2234 1.363 . S
C2232 H2248 0.931 . S
C2233 C2232 1.370 . S
C2233 C2237 1.408 . S
C2234 C2232 1.363 . S
C2234 C2235 1.370 . S
C2234 C2238 1.524 . S
C2235 C2227 1.503 . S
C2235 C2234 1.370 . S
C2235 C2236 1.403 . S
C2236 C2235 1.403 . S
C2236 C2237 1.404 . S
C2236 C2239 1.539 . S
C2237 C2233 1.408 . S
C2237 C2236 1.404 . S
C2237 H2249 0.930 . S
C2238 C2234 1.524 . S
C2238 H2250 0.956 . S
C2238 H2251 0.961 . S
C2238 H2252 0.961 . S
C2239 C2236 1.539 . S
C2239 H2253 0.958 . S
C2239 H2254 0.961 . S
C2239 H2255 0.960 . S
H2240 C2224 0.931 . S
H2241 C2229 0.929 . S
H2242 C2230 0.960 . S
H2243 C2230 0.962 . S
H2244 C2230 0.960 . S
H2245 C2231 0.961 . S
H2246 C2231 0.961 . S
H2247 C2231 0.961 . S
H2248 C2232 0.931 . S
H2249 C2237 0.930 . S
H2250 C2238 0.956 . S
H2251 C2238 0.961 . S
H2252 C2238 0.961 . S
H2253 C2239 0.958 . S
H2254 C2239 0.961 . S
H2255 C2239 0.960 . S
C2256 C2257 1.391 . S
C2256 C2258 1.394 . S
C2256 H2272 0.931 . S
C2257 C2256 1.391 . S
C2257 C2261 1.376 . S
C2258 C2256 1.394 . S
C2258 C2259 1.369 . S
C2258 C2262 1.531 . S
C2259 C2258 1.369 . S
C2259 C2260 1.410 . S
C2259 C2267 1.503 . S
C2260 C2259 1.410 . S
C2260 C2261 1.392 . S
C2260 C2263 1.511 . S
C2261 C2257 1.376 . S
C2261 C2260 1.392 . S
C2261 H2273 0.929 . S
C2262 C2258 1.531 . S
C2262 H2274 0.960 . S
C2262 H2275 0.962 . S
C2262 H2276 0.960 . S
C2263 C2260 1.511 . S
C2263 H2277 0.961 . S
C2263 H2278 0.961 . S
C2263 H2279 0.961 . S
C2264 C2265 1.370 . S
C2264 C2266 1.363 . S
C2264 H2280 0.931 . S
C2265 C2264 1.370 . S
C2265 C2269 1.408 . S
C2266 C2264 1.363 . S
C2266 C2267 1.370 . S
C2266 C2270 1.524 . S
C2267 C2259 1.503 . S
C2267 C2266 1.370 . S
C2267 C2268 1.403 . S
C2268 C2267 1.403 . S
C2268 C2269 1.404 . S
C2268 C2271 1.539 . S
C2269 C2265 1.408 . S
C2269 C2268 1.404 . S
C2269 H2281 0.930 . S
C2270 C2266 1.524 . S
C2270 H2282 0.956 . S
C2270 H2283 0.961 . S
C2270 H2284 0.961 . S
C2271 C2268 1.539 . S
C2271 H2285 0.958 . S
C2271 H2286 0.961 . S
C2271 H2287 0.960 . S
H2272 C2256 0.931 . S
H2273 C2261 0.929 . S
H2274 C2262 0.960 . S
H2275 C2262 0.962 . S
H2276 C2262 0.960 . S
H2277 C2263 0.961 . S
H2278 C2263 0.961 . S
H2279 C2263 0.961 . S
H2280 C2264 0.931 . S
H2281 C2269 0.930 . S
H2282 C2270 0.956 . S
H2283 C2270 0.961 . S
H2284 C2270 0.961 . S
H2285 C2271 0.958 . S
H2286 C2271 0.961 . S
H2287 C2271 0.960 . S
C2288 C2289 1.391 . S
C2288 C2290 1.394 . S
C2288 H2304 0.931 . S
C2289 C2288 1.391 . S
C2289 C2293 1.376 . S
C2290 C2288 1.394 . S
C2290 C2291 1.369 . S
C2290 C2294 1.531 . S
C2291 C2290 1.369 . S
C2291 C2292 1.410 . S
C2291 C2299 1.503 . S
C2292 C2291 1.410 . S
C2292 C2293 1.392 . S
C2292 C2295 1.511 . S
C2293 C2289 1.376 . S
C2293 C2292 1.392 . S
C2293 H2305 0.929 . S
C2294 C2290 1.531 . S
C2294 H2306 0.960 . S
C2294 H2307 0.962 . S
C2294 H2308 0.960 . S
C2295 C2292 1.511 . S
C2295 H2309 0.961 . S
C2295 H2310 0.961 . S
C2295 H2311 0.961 . S
C2296 C2297 1.370 . S
C2296 C2298 1.363 . S
C2296 H2312 0.931 . S
C2297 C2296 1.370 . S
C2297 C2301 1.408 . S
C2298 C2296 1.363 . S
C2298 C2299 1.370 . S
C2298 C2302 1.524 . S
C2299 C2291 1.503 . S
C2299 C2298 1.370 . S
C2299 C2300 1.403 . S
C2300 C2299 1.403 . S
C2300 C2301 1.404 . S
C2300 C2303 1.539 . S
C2301 C2297 1.408 . S
C2301 C2300 1.404 . S
C2301 H2313 0.930 . S
C2302 C2298 1.524 . S
C2302 H2314 0.956 . S
C2302 H2315 0.961 . S
C2302 H2316 0.961 . S
C2303 C2300 1.539 . S
C2303 H2317 0.958 . S
C2303 H2318 0.961 . S
C2303 H2319 0.960 . S
H2304 C2288 0.931 . S
H2305 C2293 0.929 . S
H2306 C2294 0.960 . S
H2307 C2294 0.962 . S
H2308 C2294 0.960 . S
H2309 C2295 0.961 . S
H2310 C2295 0.961 . S
H2311 C2295 0.961 . S
H2312 C2296 0.931 . S
H2313 C2301 0.930 . S
H2314 C2302 0.956 . S
H2315 C2302 0.961 . S
H2316 C2302 0.961 . S
H2317 C2303 0.958 . S
H2318 C2303 0.961 . S
H2319 C2303 0.960 . S
C2320 C2321 1.391 . S
C2320 C2322 1.394 . S
C2320 H2336 0.931 . S
C2321 C2320 1.391 . S
C2321 C2325 1.376 . S
C2322 C2320 1.394 . S
C2322 C2323 1.369 . S
C2322 C2326 1.531 . S
C2323 C2322 1.369 . S
C2323 C2324 1.410 . S
C2323 C2331 1.503 . S
C2324 C2323 1.410 . S
C2324 C2325 1.392 . S
C2324 C2327 1.511 . S
C2325 C2321 1.376 . S
C2325 C2324 1.392 . S
C2325 H2337 0.929 . S
C2326 C2322 1.531 . S
C2326 H2338 0.960 . S
C2326 H2339 0.962 . S
C2326 H2340 0.960 . S
C2327 C2324 1.511 . S
C2327 H2341 0.961 . S
C2327 H2342 0.961 . S
C2327 H2343 0.961 . S
C2328 C2329 1.370 . S
C2328 C2330 1.363 . S
C2328 H2344 0.931 . S
C2329 C2328 1.370 . S
C2329 C2333 1.408 . S
C2330 C2328 1.363 . S
C2330 C2331 1.370 . S
C2330 C2334 1.524 . S
C2331 C2323 1.503 . S
C2331 C2330 1.370 . S
C2331 C2332 1.403 . S
C2332 C2331 1.403 . S
C2332 C2333 1.404 . S
C2332 C2335 1.539 . S
C2333 C2329 1.408 . S
C2333 C2332 1.404 . S
C2333 H2345 0.930 . S
C2334 C2330 1.524 . S
C2334 H2346 0.956 . S
C2334 H2347 0.961 . S
C2334 H2348 0.961 . S
C2335 C2332 1.539 . S
C2335 H2349 0.958 . S
C2335 H2350 0.961 . S
C2335 H2351 0.960 . S
H2336 C2320 0.931 . S
H2337 C2325 0.929 . S
H2338 C2326 0.960 . S
H2339 C2326 0.962 . S
H2340 C2326 0.960 . S
H2341 C2327 0.961 . S
H2342 C2327 0.961 . S
H2343 C2327 0.961 . S
H2344 C2328 0.931 . S
H2345 C2333 0.930 . S
H2346 C2334 0.956 . S
H2347 C2334 0.961 . S
H2348 C2334 0.961 . S
H2349 C2335 0.958 . S
H2350 C2335 0.961 . S
H2351 C2335 0.960 . S
C2352 C2353 1.391 . S
C2352 C2354 1.394 . S
C2352 H2368 0.931 . S
C2353 C2352 1.391 . S
C2353 C2357 1.376 . S
C2354 C2352 1.394 . S
C2354 C2355 1.369 . S
C2354 C2358 1.531 . S
C2355 C2354 1.369 . S
C2355 C2356 1.410 . S
C2355 C2363 1.503 . S
C2356 C2355 1.410 . S
C2356 C2357 1.392 . S
C2356 C2359 1.511 . S
C2357 C2353 1.376 . S
C2357 C2356 1.392 . S
C2357 H2369 0.929 . S
C2358 C2354 1.531 . S
C2358 H2370 0.960 . S
C2358 H2371 0.962 . S
C2358 H2372 0.960 . S
C2359 C2356 1.511 . S
C2359 H2373 0.961 . S
C2359 H2374 0.961 . S
C2359 H2375 0.961 . S
C2360 C2361 1.370 . S
C2360 C2362 1.363 . S
C2360 H2376 0.931 . S
C2361 C2360 1.370 . S
C2361 C2365 1.408 . S
C2362 C2360 1.363 . S
C2362 C2363 1.370 . S
C2362 C2366 1.524 . S
C2363 C2355 1.503 . S
C2363 C2362 1.370 . S
C2363 C2364 1.403 . S
C2364 C2363 1.403 . S
C2364 C2365 1.404 . S
C2364 C2367 1.539 . S
C2365 C2361 1.408 . S
C2365 C2364 1.404 . S
C2365 H2377 0.930 . S
C2366 C2362 1.524 . S
C2366 H2378 0.956 . S
C2366 H2379 0.961 . S
C2366 H2380 0.961 . S
C2367 C2364 1.539 . S
C2367 H2381 0.958 . S
C2367 H2382 0.961 . S
C2367 H2383 0.960 . S
H2368 C2352 0.931 . S
H2369 C2357 0.929 . S
H2370 C2358 0.960 . S
H2371 C2358 0.962 . S
H2372 C2358 0.960 . S
H2373 C2359 0.961 . S
H2374 C2359 0.961 . S
H2375 C2359 0.961 . S
H2376 C2360 0.931 . S
H2377 C2365 0.930 . S
H2378 C2366 0.956 . S
H2379 C2366 0.961 . S
H2380 C2366 0.961 . S
H2381 C2367 0.958 . S
H2382 C2367 0.961 . S
H2383 C2367 0.960 . S
C2384 C2385 1.391 . S
C2384 C2386 1.394 . S
C2384 H2400 0.931 . S
C2385 C2384 1.391 . S
C2385 C2389 1.376 . S
C2386 C2384 1.394 . S
C2386 C2387 1.369 . S
C2386 C2390 1.531 . S
C2387 C2386 1.369 . S
C2387 C2388 1.410 . S
C2387 C2395 1.503 . S
C2388 C2387 1.410 . S
C2388 C2389 1.392 . S
C2388 C2391 1.511 . S
C2389 C2385 1.376 . S
C2389 C2388 1.392 . S
C2389 H2401 0.929 . S
C2390 C2386 1.531 . S
C2390 H2402 0.960 . S
C2390 H2403 0.962 . S
C2390 H2404 0.960 . S
C2391 C2388 1.511 . S
C2391 H2405 0.961 . S
C2391 H2406 0.961 . S
C2391 H2407 0.961 . S
C2392 C2393 1.370 . S
C2392 C2394 1.363 . S
C2392 H2408 0.931 . S
C2393 C2392 1.370 . S
C2393 C2397 1.408 . S
C2394 C2392 1.363 . S
C2394 C2395 1.370 . S
C2394 C2398 1.524 . S
C2395 C2387 1.503 . S
C2395 C2394 1.370 . S
C2395 C2396 1.403 . S
C2396 C2395 1.403 . S
C2396 C2397 1.404 . S
C2396 C2399 1.539 . S
C2397 C2393 1.408 . S
C2397 C2396 1.404 . S
C2397 H2409 0.930 . S
C2398 C2394 1.524 . S
C2398 H2410 0.956 . S
C2398 H2411 0.961 . S
C2398 H2412 0.961 . S
C2399 C2396 1.539 . S
C2399 H2413 0.958 . S
C2399 H2414 0.961 . S
C2399 H2415 0.960 . S
H2400 C2384 0.931 . S
H2401 C2389 0.929 . S
H2402 C2390 0.960 . S
H2403 C2390 0.962 . S
H2404 C2390 0.960 . S
H2405 C2391 0.961 . S
H2406 C2391 0.961 . S
H2407 C2391 0.961 . S
H2408 C2392 0.931 . S
H2409 C2397 0.930 . S
H2410 C2398 0.956 . S
H2411 C2398 0.961 . S
H2412 C2398 0.961 . S
H2413 C2399 0.958 . S
H2414 C2399 0.961 . S
H2415 C2399 0.960 . S
C2416 C2417 1.391 . S
C2416 C2418 1.394 . S
C2416 H2432 0.931 . S
C2417 C2416 1.391 . S
C2417 C2421 1.376 . S
C2418 C2416 1.394 . S
C2418 C2419 1.369 . S
C2418 C2422 1.531 . S
C2419 C2418 1.369 . S
C2419 C2420 1.410 . S
C2419 C2427 1.503 . S
C2420 C2419 1.410 . S
C2420 C2421 1.392 . S
C2420 C2423 1.511 . S
C2421 C2417 1.376 . S
C2421 C2420 1.392 . S
C2421 H2433 0.929 . S
C2422 C2418 1.531 . S
C2422 H2434 0.960 . S
C2422 H2435 0.962 . S
C2422 H2436 0.960 . S
C2423 C2420 1.511 . S
C2423 H2437 0.961 . S
C2423 H2438 0.961 . S
C2423 H2439 0.961 . S
C2424 C2425 1.370 . S
C2424 C2426 1.363 . S
C2424 H2440 0.931 . S
C2425 C2424 1.370 . S
C2425 C2429 1.408 . S
C2426 C2424 1.363 . S
C2426 C2427 1.370 . S
C2426 C2430 1.524 . S
C2427 C2419 1.503 . S
C2427 C2426 1.370 . S
C2427 C2428 1.403 . S
C2428 C2427 1.403 . S
C2428 C2429 1.404 . S
C2428 C2431 1.539 . S
C2429 C2425 1.408 . S
C2429 C2428 1.404 . S
C2429 H2441 0.930 . S
C2430 C2426 1.524 . S
C2430 H2442 0.956 . S
C2430 H2443 0.961 . S
C2430 H2444 0.961 . S
C2431 C2428 1.539 . S
C2431 H2445 0.958 . S
C2431 H2446 0.961 . S
C2431 H2447 0.960 . S
H2432 C2416 0.931 . S
H2433 C2421 0.929 . S
H2434 C2422 0.960 . S
H2435 C2422 0.962 . S
H2436 C2422 0.960 . S
H2437 C2423 0.961 . S
H2438 C2423 0.961 . S
H2439 C2423 0.961 . S
H2440 C2424 0.931 . S
H2441 C2429 0.930 . S
H2442 C2430 0.956 . S
H2443 C2430 0.961 . S
H2444 C2430 0.961 . S
H2445 C2431 0.958 . S
H2446 C2431 0.961 . S
H2447 C2431 0.960 . S
C2448 C2449 1.391 . S
C2448 C2450 1.394 . S
C2448 H2464 0.931 . S
C2449 C2448 1.391 . S
C2449 C2453 1.376 . S
C2450 C2448 1.394 . S
C2450 C2451 1.369 . S
C2450 C2454 1.531 . S
C2451 C2450 1.369 . S
C2451 C2452 1.410 . S
C2451 C2459 1.503 . S
C2452 C2451 1.410 . S
C2452 C2453 1.392 . S
C2452 C2455 1.511 . S
C2453 C2449 1.376 . S
C2453 C2452 1.392 . S
C2453 H2465 0.929 . S
C2454 C2450 1.531 . S
C2454 H2466 0.960 . S
C2454 H2467 0.962 . S
C2454 H2468 0.960 . S
C2455 C2452 1.511 . S
C2455 H2469 0.961 . S
C2455 H2470 0.961 . S
C2455 H2471 0.961 . S
C2456 C2457 1.370 . S
C2456 C2458 1.363 . S
C2456 H2472 0.931 . S
C2457 C2456 1.370 . S
C2457 C2461 1.408 . S
C2458 C2456 1.363 . S
C2458 C2459 1.370 . S
C2458 C2462 1.524 . S
C2459 C2451 1.503 . S
C2459 C2458 1.370 . S
C2459 C2460 1.403 . S
C2460 C2459 1.403 . S
C2460 C2461 1.404 . S
C2460 C2463 1.539 . S
C2461 C2457 1.408 . S
C2461 C2460 1.404 . S
C2461 H2473 0.930 . S
C2462 C2458 1.524 . S
C2462 H2474 0.956 . S
C2462 H2475 0.961 . S
C2462 H2476 0.961 . S
C2463 C2460 1.539 . S
C2463 H2477 0.958 . S
C2463 H2478 0.961 . S
C2463 H2479 0.960 . S
H2464 C2448 0.931 . S
H2465 C2453 0.929 . S
H2466 C2454 0.960 . S
H2467 C2454 0.962 . S
H2468 C2454 0.960 . S
H2469 C2455 0.961 . S
H2470 C2455 0.961 . S
H2471 C2455 0.961 . S
H2472 C2456 0.931 . S
H2473 C2461 0.930 . S
H2474 C2462 0.956 . S
H2475 C2462 0.961 . S
H2476 C2462 0.961 . S
H2477 C2463 0.958 . S
H2478 C2463 0.961 . S
H2479 C2463 0.960 . S
C2480 C2481 1.391 . S
C2480 C2482 1.394 . S
C2480 H2496 0.931 . S
C2481 C2480 1.391 . S
C2481 C2485 1.376 . S
C2482 C2480 1.394 . S
C2482 C2483 1.369 . S
C2482 C2486 1.531 . S
C2483 C2482 1.369 . S
C2483 C2484 1.410 . S
C2483 C2491 1.503 . S
C2484 C2483 1.410 . S
C2484 C2485 1.392 . S
C2484 C2487 1.511 . S
C2485 C2481 1.376 . S
C2485 C2484 1.392 . S
C2485 H2497 0.929 . S
C2486 C2482 1.531 . S
C2486 H2498 0.960 . S
C2486 H2499 0.962 . S
C2486 H2500 0.960 . S
C2487 C2484 1.511 . S
C2487 H2501 0.961 . S
C2487 H2502 0.961 . S
C2487 H2503 0.961 . S
C2488 C2489 1.370 . S
C2488 C2490 1.363 . S
C2488 H2504 0.931 . S
C2489 C2488 1.370 . S
C2489 C2493 1.408 . S
C2490 C2488 1.363 . S
C2490 C2491 1.370 . S
C2490 C2494 1.524 . S
C2491 C2483 1.503 . S
C2491 C2490 1.370 . S
C2491 C2492 1.403 . S
C2492 C2491 1.403 . S
C2492 C2493 1.404 . S
C2492 C2495 1.539 . S
C2493 C2489 1.408 . S
C2493 C2492 1.404 . S
C2493 H2505 0.930 . S
C2494 C2490 1.524 . S
C2494 H2506 0.956 . S
C2494 H2507 0.961 . S
C2494 H2508 0.961 . S
C2495 C2492 1.539 . S
C2495 H2509 0.958 . S
C2495 H2510 0.961 . S
C2495 H2511 0.960 . S
H2496 C2480 0.931 . S
H2497 C2485 0.929 . S
H2498 C2486 0.960 . S
H2499 C2486 0.962 . S
H2500 C2486 0.960 . S
H2501 C2487 0.961 . S
H2502 C2487 0.961 . S
H2503 C2487 0.961 . S
H2504 C2488 0.931 . S
H2505 C2493 0.930 . S
H2506 C2494 0.956 . S
H2507 C2494 0.961 . S
H2508 C2494 0.961 . S
H2509 C2495 0.958 . S
H2510 C2495 0.961 . S
H2511 C2495 0.960 . S
C2512 C2513 1.391 . S
C2512 C2514 1.394 . S
C2512 H2528 0.931 . S
C2513 C2512 1.391 . S
C2513 C2517 1.376 . S
C2514 C2512 1.394 . S
C2514 C2515 1.369 . S
C2514 C2518 1.531 . S
C2515 C2514 1.369 . S
C2515 C2516 1.410 . S
C2515 C2523 1.503 . S
C2516 C2515 1.410 . S
C2516 C2517 1.392 . S
C2516 C2519 1.511 . S
C2517 C2513 1.376 . S
C2517 C2516 1.392 . S
C2517 H2529 0.929 . S
C2518 C2514 1.531 . S
C2518 H2530 0.960 . S
C2518 H2531 0.962 . S
C2518 H2532 0.960 . S
C2519 C2516 1.511 . S
C2519 H2533 0.961 . S
C2519 H2534 0.961 . S
C2519 H2535 0.961 . S
C2520 C2521 1.370 . S
C2520 C2522 1.363 . S
C2520 H2536 0.931 . S
C2521 C2520 1.370 . S
C2521 C2525 1.408 . S
C2522 C2520 1.363 . S
C2522 C2523 1.370 . S
C2522 C2526 1.524 . S
C2523 C2515 1.503 . S
C2523 C2522 1.370 . S
C2523 C2524 1.403 . S
C2524 C2523 1.403 . S
C2524 C2525 1.404 . S
C2524 C2527 1.539 . S
C2525 C2521 1.408 . S
C2525 C2524 1.404 . S
C2525 H2537 0.930 . S
C2526 C2522 1.524 . S
C2526 H2538 0.956 . S
C2526 H2539 0.961 . S
C2526 H2540 0.961 . S
C2527 C2524 1.539 . S
C2527 H2541 0.958 . S
C2527 H2542 0.961 . S
C2527 H2543 0.960 . S
H2528 C2512 0.931 . S
H2529 C2517 0.929 . S
H2530 C2518 0.960 . S
H2531 C2518 0.962 . S
H2532 C2518 0.960 . S
H2533 C2519 0.961 . S
H2534 C2519 0.961 . S
H2535 C2519 0.961 . S
H2536 C2520 0.931 . S
H2537 C2525 0.930 . S
H2538 C2526 0.956 . S
H2539 C2526 0.961 . S
H2540 C2526 0.961 . S
H2541 C2527 0.958 . S
H2542 C2527 0.961 . S
H2543 C2527 0.960 . S
C2544 C2545 1.391 . S
C2544 C2546 1.394 . S
C2544 H2560 0.931 . S
C2545 C2544 1.391 . S
C2545 C2549 1.376 . S
C2546 C2544 1.394 . S
C2546 C2547 1.369 . S
C2546 C2550 1.531 . S
C2547 C2546 1.369 . S
C2547 C2548 1.410 . S
C2547 C2555 1.503 . S
C2548 C2547 1.410 . S
C2548 C2549 1.392 . S
C2548 C2551 1.511 . S
C2549 C2545 1.376 . S
C2549 C2548 1.392 . S
C2549 H2561 0.929 . S
C2550 C2546 1.531 . S
C2550 H2562 0.960 . S
C2550 H2563 0.962 . S
C2550 H2564 0.960 . S
C2551 C2548 1.511 . S
C2551 H2565 0.961 . S
C2551 H2566 0.961 . S
C2551 H2567 0.961 . S
C2552 C2553 1.370 . S
C2552 C2554 1.363 . S
C2552 H2568 0.931 . S
C2553 C2552 1.370 . S
C2553 C2557 1.408 . S
C2554 C2552 1.363 . S
C2554 C2555 1.370 . S
C2554 C2558 1.524 . S
C2555 C2547 1.503 . S
C2555 C2554 1.370 . S
C2555 C2556 1.403 . S
C2556 C2555 1.403 . S
C2556 C2557 1.404 . S
C2556 C2559 1.539 . S
C2557 C2553 1.408 . S
C2557 C2556 1.404 . S
C2557 H2569 0.930 . S
C2558 C2554 1.524 . S
C2558 H2570 0.956 . S
C2558 H2571 0.961 . S
C2558 H2572 0.961 . S
C2559 C2556 1.539 . S
C2559 H2573 0.958 . S
C2559 H2574 0.961 . S
C2559 H2575 0.960 . S
H2560 C2544 0.931 . S
H2561 C2549 0.929 . S
H2562 C2550 0.960 . S
H2563 C2550 0.962 . S
H2564 C2550 0.960 . S
H2565 C2551 0.961 . S
H2566 C2551 0.961 . S
H2567 C2551 0.961 . S
H2568 C2552 0.931 . S
H2569 C2557 0.930 . S
H2570 C2558 0.956 . S
H2571 C2558 0.961 . S
H2572 C2558 0.961 . S
H2573 C2559 0.958 . S
H2574 C2559 0.961 . S
H2575 C2559 0.960 . S
C2576 C2577 1.391 . S
C2576 C2578 1.394 . S
C2576 H2592 0.931 . S
C2577 C2576 1.391 . S
C2577 C2581 1.376 . S
C2578 C2576 1.394 . S
C2578 C2579 1.369 . S
C2578 C2582 1.531 . S
C2579 C2578 1.369 . S
C2579 C2580 1.410 . S
C2579 C2587 1.503 . S
C2580 C2579 1.410 . S
C2580 C2581 1.392 . S
C2580 C2583 1.511 . S
C2581 C2577 1.376 . S
C2581 C2580 1.392 . S
C2581 H2593 0.929 . S
C2582 C2578 1.531 . S
C2582 H2594 0.960 . S
C2582 H2595 0.962 . S
C2582 H2596 0.960 . S
C2583 C2580 1.511 . S
C2583 H2597 0.961 . S
C2583 H2598 0.961 . S
C2583 H2599 0.961 . S
C2584 C2585 1.370 . S
C2584 C2586 1.363 . S
C2584 H2600 0.931 . S
C2585 C2584 1.370 . S
C2585 C2589 1.408 . S
C2586 C2584 1.363 . S
C2586 C2587 1.370 . S
C2586 C2590 1.524 . S
C2587 C2579 1.503 . S
C2587 C2586 1.370 . S
C2587 C2588 1.403 . S
C2588 C2587 1.403 . S
C2588 C2589 1.404 . S
C2588 C2591 1.539 . S
C2589 C2585 1.408 . S
C2589 C2588 1.404 . S
C2589 H2601 0.930 . S
C2590 C2586 1.524 . S
C2590 H2602 0.956 . S
C2590 H2603 0.961 . S
C2590 H2604 0.961 . S
C2591 C2588 1.539 . S
C2591 H2605 0.958 . S
C2591 H2606 0.961 . S
C2591 H2607 0.960 . S
H2592 C2576 0.931 . S
H2593 C2581 0.929 . S
H2594 C2582 0.960 . S
H2595 C2582 0.962 . S
H2596 C2582 0.960 . S
H2597 C2583 0.961 . S
H2598 C2583 0.961 . S
H2599 C2583 0.961 . S
H2600 C2584 0.931 . S
H2601 C2589 0.930 . S
H2602 C2590 0.956 . S
H2603 C2590 0.961 . S
H2604 C2590 0.961 . S
H2605 C2591 0.958 . S
H2606 C2591 0.961 . S
H2607 C2591 0.960 . S
C2608 C2609 1.391 . S
C2608 C2610 1.394 . S
C2608 H2624 0.931 . S
C2609 C2608 1.391 . S
C2609 C2613 1.376 . S
C2610 C2608 1.394 . S
C2610 C2611 1.369 . S
C2610 C2614 1.531 . S
C2611 C2610 1.369 . S
C2611 C2612 1.410 . S
C2611 C2619 1.503 . S
C2612 C2611 1.410 . S
C2612 C2613 1.392 . S
C2612 C2615 1.511 . S
C2613 C2609 1.376 . S
C2613 C2612 1.392 . S
C2613 H2625 0.929 . S
C2614 C2610 1.531 . S
C2614 H2626 0.960 . S
C2614 H2627 0.962 . S
C2614 H2628 0.960 . S
C2615 C2612 1.511 . S
C2615 H2629 0.961 . S
C2615 H2630 0.961 . S
C2615 H2631 0.961 . S
C2616 C2617 1.370 . S
C2616 C2618 1.363 . S
C2616 H2632 0.931 . S
C2617 C2616 1.370 . S
C2617 C2621 1.408 . S
C2618 C2616 1.363 . S
C2618 C2619 1.370 . S
C2618 C2622 1.524 . S
C2619 C2611 1.503 . S
C2619 C2618 1.370 . S
C2619 C2620 1.403 . S
C2620 C2619 1.403 . S
C2620 C2621 1.404 . S
C2620 C2623 1.539 . S
C2621 C2617 1.408 . S
C2621 C2620 1.404 . S
C2621 H2633 0.930 . S
C2622 C2618 1.524 . S
C2622 H2634 0.956 . S
C2622 H2635 0.961 . S
C2622 H2636 0.961 . S
C2623 C2620 1.539 . S
C2623 H2637 0.958 . S
C2623 H2638 0.961 . S
C2623 H2639 0.960 . S
H2624 C2608 0.931 . S
H2625 C2613 0.929 . S
H2626 C2614 0.960 . S
H2627 C2614 0.962 . S
H2628 C2614 0.960 . S
H2629 C2615 0.961 . S
H2630 C2615 0.961 . S
H2631 C2615 0.961 . S
H2632 C2616 0.931 . S
H2633 C2621 0.930 . S
H2634 C2622 0.956 . S
H2635 C2622 0.961 . S
H2636 C2622 0.961 . S
H2637 C2623 0.958 . S
H2638 C2623 0.961 . S
H2639 C2623 0.960 . S
C2640 C2641 1.391 . S
C2640 C2642 1.394 . S
C2640 H2656 0.931 . S
C2641 C2640 1.391 . S
C2641 C2645 1.376 . S
C2642 C2640 1.394 . S
C2642 C2643 1.369 . S
C2642 C2646 1.531 . S
C2643 C2642 1.369 . S
C2643 C2644 1.410 . S
C2643 C2651 1.503 . S
C2644 C2643 1.410 . S
C2644 C2645 1.392 . S
C2644 C2647 1.511 . S
C2645 C2641 1.376 . S
C2645 C2644 1.392 . S
C2645 H2657 0.929 . S
C2646 C2642 1.531 . S
C2646 H2658 0.960 . S
C2646 H2659 0.962 . S
C2646 H2660 0.960 . S
C2647 C2644 1.511 . S
C2647 H2661 0.961 . S
C2647 H2662 0.961 . S
C2647 H2663 0.961 . S
C2648 C2649 1.370 . S
C2648 C2650 1.363 . S
C2648 H2664 0.931 . S
C2649 C2648 1.370 . S
C2649 C2653 1.408 . S
C2650 C2648 1.363 . S
C2650 C2651 1.370 . S
C2650 C2654 1.524 . S
C2651 C2643 1.503 . S
C2651 C2650 1.370 . S
C2651 C2652 1.403 . S
C2652 C2651 1.403 . S
C2652 C2653 1.404 . S
C2652 C2655 1.539 . S
C2653 C2649 1.408 . S
C2653 C2652 1.404 . S
C2653 H2665 0.930 . S
C2654 C2650 1.524 . S
C2654 H2666 0.956 . S
C2654 H2667 0.961 . S
C2654 H2668 0.961 . S
C2655 C2652 1.539 . S
C2655 H2669 0.958 . S
C2655 H2670 0.961 . S
C2655 H2671 0.960 . S
H2656 C2640 0.931 . S
H2657 C2645 0.929 . S
H2658 C2646 0.960 . S
H2659 C2646 0.962 . S
H2660 C2646 0.960 . S
H2661 C2647 0.961 . S
H2662 C2647 0.961 . S
H2663 C2647 0.961 . S
H2664 C2648 0.931 . S
H2665 C2653 0.930 . S
H2666 C2654 0.956 . S
H2667 C2654 0.961 . S
H2668 C2654 0.961 . S
H2669 C2655 0.958 . S
H2670 C2655 0.961 . S
H2671 C2655 0.960 . S
C2672 C2673 1.391 . S
C2672 C2674 1.394 . S
C2672 H2688 0.931 . S
C2673 C2672 1.391 . S
C2673 C2677 1.376 . S
C2674 C2672 1.394 . S
C2674 C2675 1.369 . S
C2674 C2678 1.531 . S
C2675 C2674 1.369 . S
C2675 C2676 1.410 . S
C2675 C2683 1.503 . S
C2676 C2675 1.410 . S
C2676 C2677 1.392 . S
C2676 C2679 1.511 . S
C2677 C2673 1.376 . S
C2677 C2676 1.392 . S
C2677 H2689 0.929 . S
C2678 C2674 1.531 . S
C2678 H2690 0.960 . S
C2678 H2691 0.962 . S
C2678 H2692 0.960 . S
C2679 C2676 1.511 . S
C2679 H2693 0.961 . S
C2679 H2694 0.961 . S
C2679 H2695 0.961 . S
C2680 C2681 1.370 . S
C2680 C2682 1.363 . S
C2680 H2696 0.931 . S
C2681 C2680 1.370 . S
C2681 C2685 1.408 . S
C2682 C2680 1.363 . S
C2682 C2683 1.370 . S
C2682 C2686 1.524 . S
C2683 C2675 1.503 . S
C2683 C2682 1.370 . S
C2683 C2684 1.403 . S
C2684 C2683 1.403 . S
C2684 C2685 1.404 . S
C2684 C2687 1.539 . S
C2685 C2681 1.408 . S
C2685 C2684 1.404 . S
C2685 H2697 0.930 . S
C2686 C2682 1.524 . S
C2686 H2698 0.956 . S
C2686 H2699 0.961 . S
C2686 H2700 0.961 . S
C2687 C2684 1.539 . S
C2687 H2701 0.958 . S
C2687 H2702 0.961 . S
C2687 H2703 0.960 . S
H2688 C2672 0.931 . S
H2689 C2677 0.929 . S
H2690 C2678 0.960 . S
H2691 C2678 0.962 . S
H2692 C2678 0.960 . S
H2693 C2679 0.961 . S
H2694 C2679 0.961 . S
H2695 C2679 0.961 . S
H2696 C2680 0.931 . S
H2697 C2685 0.930 . S
H2698 C2686 0.956 . S
H2699 C2686 0.961 . S
H2700 C2686 0.961 . S
H2701 C2687 0.958 . S
H2702 C2687 0.961 . S
H2703 C2687 0.960 . S
C2704 C2705 1.391 . S
C2704 C2706 1.394 . S
C2704 H2720 0.931 . S
C2705 C2704 1.391 . S
C2705 C2709 1.376 . S
C2706 C2704 1.394 . S
C2706 C2707 1.369 . S
C2706 C2710 1.531 . S
C2707 C2706 1.369 . S
C2707 C2708 1.410 . S
C2707 C2715 1.503 . S
C2708 C2707 1.410 . S
C2708 C2709 1.392 . S
C2708 C2711 1.511 . S
C2709 C2705 1.376 . S
C2709 C2708 1.392 . S
C2709 H2721 0.929 . S
C2710 C2706 1.531 . S
C2710 H2722 0.960 . S
C2710 H2723 0.962 . S
C2710 H2724 0.960 . S
C2711 C2708 1.511 . S
C2711 H2725 0.961 . S
C2711 H2726 0.961 . S
C2711 H2727 0.961 . S
C2712 C2713 1.370 . S
C2712 C2714 1.363 . S
C2712 H2728 0.931 . S
C2713 C2712 1.370 . S
C2713 C2717 1.408 . S
C2714 C2712 1.363 . S
C2714 C2715 1.370 . S
C2714 C2718 1.524 . S
C2715 C2707 1.503 . S
C2715 C2714 1.370 . S
C2715 C2716 1.403 . S
C2716 C2715 1.403 . S
C2716 C2717 1.404 . S
C2716 C2719 1.539 . S
C2717 C2713 1.408 . S
C2717 C2716 1.404 . S
C2717 H2729 0.930 . S
C2718 C2714 1.524 . S
C2718 H2730 0.956 . S
C2718 H2731 0.961 . S
C2718 H2732 0.961 . S
C2719 C2716 1.539 . S
C2719 H2733 0.958 . S
C2719 H2734 0.961 . S
C2719 H2735 0.960 . S
H2720 C2704 0.931 . S
H2721 C2709 0.929 . S
H2722 C2710 0.960 . S
H2723 C2710 0.962 . S
H2724 C2710 0.960 . S
H2725 C2711 0.961 . S
H2726 C2711 0.961 . S
H2727 C2711 0.961 . S
H2728 C2712 0.931 . S
H2729 C2717 0.930 . S
H2730 C2718 0.956 . S
H2731 C2718 0.961 . S
H2732 C2718 0.961 . S
H2733 C2719 0.958 . S
H2734 C2719 0.961 . S
H2735 C2719 0.960 . S
C2736 C2737 1.391 . S
C2736 C2738 1.394 . S
C2736 H2752 0.931 . S
C2737 C2736 1.391 . S
C2737 C2741 1.376 . S
C2738 C2736 1.394 . S
C2738 C2739 1.369 . S
C2738 C2742 1.531 . S
C2739 C2738 1.369 . S
C2739 C2740 1.410 . S
C2739 C2747 1.503 . S
C2740 C2739 1.410 . S
C2740 C2741 1.392 . S
C2740 C2743 1.511 . S
C2741 C2737 1.376 . S
C2741 C2740 1.392 . S
C2741 H2753 0.929 . S
C2742 C2738 1.531 . S
C2742 H2754 0.960 . S
C2742 H2755 0.962 . S
C2742 H2756 0.960 . S
C2743 C2740 1.511 . S
C2743 H2757 0.961 . S
C2743 H2758 0.961 . S
C2743 H2759 0.961 . S
C2744 C2745 1.370 . S
C2744 C2746 1.363 . S
C2744 H2760 0.931 . S
C2745 C2744 1.370 . S
C2745 C2749 1.408 . S
C2746 C2744 1.363 . S
C2746 C2747 1.370 . S
C2746 C2750 1.524 . S
C2747 C2739 1.503 . S
C2747 C2746 1.370 . S
C2747 C2748 1.403 . S
C2748 C2747 1.403 . S
C2748 C2749 1.404 . S
C2748 C2751 1.539 . S
C2749 C2745 1.408 . S
C2749 C2748 1.404 . S
C2749 H2761 0.930 . S
C2750 C2746 1.524 . S
C2750 H2762 0.956 . S
C2750 H2763 0.961 . S
C2750 H2764 0.961 . S
C2751 C2748 1.539 . S
C2751 H2765 0.958 . S
C2751 H2766 0.961 . S
C2751 H2767 0.960 . S
H2752 C2736 0.931 . S
H2753 C2741 0.929 . S
H2754 C2742 0.960 . S
H2755 C2742 0.962 . S
H2756 C2742 0.960 . S
H2757 C2743 0.961 . S
H2758 C2743 0.961 . S
H2759 C2743 0.961 . S
H2760 C2744 0.931 . S
H2761 C2749 0.930 . S
H2762 C2750 0.956 . S
H2763 C2750 0.961 . S
H2764 C2750 0.961 . S
H2765 C2751 0.958 . S
H2766 C2751 0.961 . S
H2767 C2751 0.960 . S
C2768 C2769 1.391 . S
C2768 C2770 1.394 . S
C2768 H2784 0.931 . S
C2769 C2768 1.391 . S
C2769 C2773 1.376 . S
C2770 C2768 1.394 . S
C2770 C2771 1.369 . S
C2770 C2774 1.531 . S
C2771 C2770 1.369 . S
C2771 C2772 1.410 . S
C2771 C2779 1.503 . S
C2772 C2771 1.410 . S
C2772 C2773 1.392 . S
C2772 C2775 1.511 . S
C2773 C2769 1.376 . S
C2773 C2772 1.392 . S
C2773 H2785 0.929 . S
C2774 C2770 1.531 . S
C2774 H2786 0.960 . S
C2774 H2787 0.962 . S
C2774 H2788 0.960 . S
C2775 C2772 1.511 . S
C2775 H2789 0.961 . S
C2775 H2790 0.961 . S
C2775 H2791 0.961 . S
C2776 C2777 1.370 . S
C2776 C2778 1.363 . S
C2776 H2792 0.931 . S
C2777 C2776 1.370 . S
C2777 C2781 1.408 . S
C2778 C2776 1.363 . S
C2778 C2779 1.370 . S
C2778 C2782 1.524 . S
C2779 C2771 1.503 . S
C2779 C2778 1.370 . S
C2779 C2780 1.403 . S
C2780 C2779 1.403 . S
C2780 C2781 1.404 . S
C2780 C2783 1.539 . S
C2781 C2777 1.408 . S
C2781 C2780 1.404 . S
C2781 H2793 0.930 . S
C2782 C2778 1.524 . S
C2782 H2794 0.956 . S
C2782 H2795 0.961 . S
C2782 H2796 0.961 . S
C2783 C2780 1.539 . S
C2783 H2797 0.958 . S
C2783 H2798 0.961 . S
C2783 H2799 0.960 . S
H2784 C2768 0.931 . S
H2785 C2773 0.929 . S
H2786 C2774 0.960 . S
H2787 C2774 0.962 . S
H2788 C2774 0.960 . S
H2789 C2775 0.961 . S
H2790 C2775 0.961 . S
H2791 C2775 0.961 . S
H2792 C2776 0.931 . S
H2793 C2781 0.930 . S
H2794 C2782 0.956 . S
H2795 C2782 0.961 . S
H2796 C2782 0.961 . S
H2797 C2783 0.958 . S
H2798 C2783 0.961 . S
H2799 C2783 0.960 . S
C2800 C2801 1.391 . S
C2800 C2802 1.394 . S
C2800 H2816 0.931 . S
C2801 C2800 1.391 . S
C2801 C2805 1.376 . S
C2802 C2800 1.394 . S
C2802 C2803 1.369 . S
C2802 C2806 1.531 . S
C2803 C2802 1.369 . S
C2803 C2804 1.410 . S
C2803 C2811 1.503 . S
C2804 C2803 1.410 . S
C2804 C2805 1.392 . S
C2804 C2807 1.511 . S
C2805 C2801 1.376 . S
C2805 C2804 1.392 . S
C2805 H2817 0.929 . S
C2806 C2802 1.531 . S
C2806 H2818 0.960 . S
C2806 H2819 0.962 . S
C2806 H2820 0.960 . S
C2807 C2804 1.511 . S
C2807 H2821 0.961 . S
C2807 H2822 0.961 . S
C2807 H2823 0.961 . S
C2808 C2809 1.370 . S
C2808 C2810 1.363 . S
C2808 H2824 0.931 . S
C2809 C2808 1.370 . S
C2809 C2813 1.408 . S
C2810 C2808 1.363 . S
C2810 C2811 1.370 . S
C2810 C2814 1.524 . S
C2811 C2803 1.503 . S
C2811 C2810 1.370 . S
C2811 C2812 1.403 . S
C2812 C2811 1.403 . S
C2812 C2813 1.404 . S
C2812 C2815 1.539 . S
C2813 C2809 1.408 . S
C2813 C2812 1.404 . S
C2813 H2825 0.930 . S
C2814 C2810 1.524 . S
C2814 H2826 0.956 . S
C2814 H2827 0.961 . S
C2814 H2828 0.961 . S
C2815 C2812 1.539 . S
C2815 H2829 0.958 . S
C2815 H2830 0.961 . S
C2815 H2831 0.960 . S
H2816 C2800 0.931 . S
H2817 C2805 0.929 . S
H2818 C2806 0.960 . S
H2819 C2806 0.962 . S
H2820 C2806 0.960 . S
H2821 C2807 0.961 . S
H2822 C2807 0.961 . S
H2823 C2807 0.961 . S
H2824 C2808 0.931 . S
H2825 C2813 0.930 . S
H2826 C2814 0.956 . S
H2827 C2814 0.961 . S
H2828 C2814 0.961 . S
H2829 C2815 0.958 . S
H2830 C2815 0.961 . S
H2831 C2815 0.960 . S
C2832 C2833 1.391 . S
C2832 C2834 1.394 . S
C2832 H2848 0.931 . S
C2833 C2832 1.391 . S
C2833 C2837 1.376 1_556 S
C2834 C2832 1.394 . S
C2834 C2835 1.369 . S
C2834 C2838 1.531 . S
C2835 C2834 1.369 . S
C2835 C2836 1.411 . S
C2835 C2843 1.503 . S
C2836 C2835 1.411 . S
C2836 C2837 1.391 1_556 S
C2836 C2839 1.510 1_556 S
C2837 C2833 1.376 1_554 S
C2837 C2836 1.391 1_554 S
C2837 H2849 0.929 . S
C2838 C2834 1.531 . S
C2838 H2850 0.960 . S
C2838 H2851 0.962 . S
C2838 H2852 0.960 . S
C2839 C2836 1.510 1_554 S
C2839 H2853 0.961 . S
C2839 H2854 0.962 1_554 S
C2839 H2855 0.961 . S
C2840 C2841 1.370 . S
C2840 C2842 1.363 . S
C2840 H2856 0.931 . S
C2841 C2840 1.370 . S
C2841 C2845 1.408 . S
C2842 C2840 1.363 . S
C2842 C2843 1.370 . S
C2842 C2846 1.524 . S
C2843 C2835 1.503 . S
C2843 C2842 1.370 . S
C2843 C2844 1.403 . S
C2844 C2843 1.403 . S
C2844 C2845 1.404 . S
C2844 C2847 1.539 . S
C2845 C2841 1.408 . S
C2845 C2844 1.404 . S
C2845 H2857 0.930 . S
C2846 C2842 1.524 . S
C2846 H2858 0.956 . S
C2846 H2859 0.961 . S
C2846 H2860 0.961 . S
C2847 C2844 1.539 . S
C2847 H2861 0.958 . S
C2847 H2862 0.961 1_556 S
C2847 H2863 0.960 1_556 S
H2848 C2832 0.931 . S
H2849 C2837 0.929 . S
H2850 C2838 0.960 . S
H2851 C2838 0.962 . S
H2852 C2838 0.960 . S
H2853 C2839 0.961 . S
H2854 C2839 0.962 1_556 S
H2855 C2839 0.961 . S
H2856 C2840 0.931 . S
H2857 C2845 0.930 . S
H2858 C2846 0.956 . S
H2859 C2846 0.961 . S
H2860 C2846 0.961 . S
H2861 C2847 0.958 . S
H2862 C2847 0.961 1_554 S
H2863 C2847 0.960 1_554 S
C2864 C2865 1.391 . S
C2864 C2866 1.394 . S
C2864 H2880 0.931 . S
C2865 C2864 1.391 . S
C2865 C2869 1.376 . S
C2866 C2864 1.394 . S
C2866 C2867 1.369 . S
C2866 C2870 1.531 . S
C2867 C2866 1.369 . S
C2867 C2868 1.410 . S
C2867 C2875 1.503 . S
C2868 C2867 1.410 . S
C2868 C2869 1.392 . S
C2868 C2871 1.511 . S
C2869 C2865 1.376 . S
C2869 C2868 1.392 . S
C2869 H2881 0.929 . S
C2870 C2866 1.531 . S
C2870 H2882 0.960 . S
C2870 H2883 0.962 . S
C2870 H2884 0.960 . S
C2871 C2868 1.511 . S
C2871 H2885 0.961 . S
C2871 H2886 0.961 . S
C2871 H2887 0.961 . S
C2872 C2873 1.370 . S
C2872 C2874 1.363 . S
C2872 H2888 0.931 . S
C2873 C2872 1.370 . S
C2873 C2877 1.408 . S
C2874 C2872 1.363 . S
C2874 C2875 1.370 . S
C2874 C2878 1.524 . S
C2875 C2867 1.503 . S
C2875 C2874 1.370 . S
C2875 C2876 1.403 . S
C2876 C2875 1.403 . S
C2876 C2877 1.404 . S
C2876 C2879 1.539 . S
C2877 C2873 1.408 . S
C2877 C2876 1.404 . S
C2877 H2889 0.930 . S
C2878 C2874 1.524 . S
C2878 H2890 0.956 . S
C2878 H2891 0.961 . S
C2878 H2892 0.961 . S
C2879 C2876 1.539 . S
C2879 H2893 0.958 . S
C2879 H2894 0.961 . S
C2879 H2895 0.960 . S
H2880 C2864 0.931 . S
H2881 C2869 0.929 . S
H2882 C2870 0.960 . S
H2883 C2870 0.962 . S
H2884 C2870 0.960 . S
H2885 C2871 0.961 . S
H2886 C2871 0.961 . S
H2887 C2871 0.961 . S
H2888 C2872 0.931 . S
H2889 C2877 0.930 . S
H2890 C2878 0.956 . S
H2891 C2878 0.961 . S
H2892 C2878 0.961 . S
H2893 C2879 0.958 . S
H2894 C2879 0.961 . S
H2895 C2879 0.960 . S
C2896 C2897 1.391 . S
C2896 C2898 1.394 . S
C2896 H2912 0.931 . S
C2897 C2896 1.391 . S
C2897 C2901 1.376 . S
C2898 C2896 1.394 . S
C2898 C2899 1.369 . S
C2898 C2902 1.531 . S
C2899 C2898 1.369 . S
C2899 C2900 1.410 . S
C2899 C2907 1.503 1_554 S
C2900 C2899 1.410 . S
C2900 C2901 1.392 . S
C2900 C2903 1.511 . S
C2901 C2897 1.376 . S
C2901 C2900 1.392 . S
C2901 H2913 0.929 . S
C2902 C2898 1.531 . S
C2902 H2914 0.960 1_554 S
C2902 H2915 0.962 . S
C2902 H2916 0.960 . S
C2903 C2900 1.511 . S
C2903 H2917 0.961 . S
C2903 H2918 0.961 . S
C2903 H2919 0.961 1_554 S
C2904 C2905 1.362 1_554 S
C2904 C2906 1.367 . S
C2904 H2920 0.935 . S
C2905 C2904 1.362 1_556 S
C2905 C2909 1.408 . S
C2906 C2904 1.367 . S
C2906 C2907 1.370 1_554 S
C2906 C2910 1.524 . S
C2907 C2899 1.503 1_556 S
C2907 C2906 1.370 1_556 S
C2907 C2908 1.403 . S
C2908 C2907 1.403 . S
C2908 C2909 1.404 . S
C2908 C2911 1.539 . S
C2909 C2905 1.408 . S
C2909 C2908 1.404 . S
C2909 H2921 0.930 . S
C2910 C2906 1.524 . S
C2910 H2922 0.956 . S
C2910 H2923 0.961 . S
C2910 H2924 0.961 . S
C2911 C2908 1.539 . S
C2911 H2925 0.958 . S
C2911 H2926 0.961 . S
C2911 H2927 0.960 . S
H2912 C2896 0.931 . S
H2913 C2901 0.929 . S
H2914 C2902 0.960 1_556 S
H2915 C2902 0.962 . S
H2916 C2902 0.960 . S
H2917 C2903 0.961 . S
H2918 C2903 0.961 . S
H2919 C2903 0.961 1_556 S
H2920 C2904 0.935 . S
H2921 C2909 0.930 . S
H2922 C2910 0.956 . S
H2923 C2910 0.961 . S
H2924 C2910 0.961 . S
H2925 C2911 0.958 . S
H2926 C2911 0.961 . S
H2927 C2911 0.960 . S
C2928 C2929 1.391 . S
C2928 C2930 1.394 . S
C2928 H2944 0.931 . S
C2929 C2928 1.391 . S
C2929 C2933 1.376 1_554 S
C2930 C2928 1.394 . S
C2930 C2931 1.369 1_554 S
C2930 C2934 1.531 . S
C2931 C2930 1.369 1_556 S
C2931 C2932 1.410 . S
C2931 C2939 1.503 . S
C2932 C2931 1.410 . S
C2932 C2933 1.392 . S
C2932 C2935 1.511 . S
C2933 C2929 1.376 1_556 S
C2933 C2932 1.392 . S
C2933 H2945 0.929 . S
C2934 C2930 1.531 . S
C2934 H2946 0.960 . S
C2934 H2947 0.962 . S
C2934 H2948 0.960 . S
C2935 C2932 1.511 . S
C2935 H2949 0.961 . S
C2935 H2950 0.961 . S
C2935 H2951 0.961 . S
C2936 C2937 1.370 . S
C2936 C2938 1.363 . S
C2936 H2952 0.931 . S
C2937 C2936 1.370 . S
C2937 C2941 1.408 . S
C2938 C2936 1.363 . S
C2938 C2939 1.370 . S
C2938 C2942 1.524 . S
C2939 C2931 1.503 . S
C2939 C2938 1.370 . S
C2939 C2940 1.403 . S
C2940 C2939 1.403 . S
C2940 C2941 1.404 . S
C2940 C2943 1.539 . S
C2941 C2937 1.408 . S
C2941 C2940 1.404 . S
C2941 H2953 0.930 . S
C2942 C2938 1.524 . S
C2942 H2954 0.956 . S
C2942 H2955 0.961 . S
C2942 H2956 0.961 . S
C2943 C2940 1.539 . S
C2943 H2957 0.958 1_556 S
C2943 H2958 0.961 . S
C2943 H2959 0.960 . S
H2944 C2928 0.931 . S
H2945 C2933 0.929 . S
H2946 C2934 0.960 . S
H2947 C2934 0.962 . S
H2948 C2934 0.960 . S
H2949 C2935 0.961 . S
H2950 C2935 0.961 . S
H2951 C2935 0.961 . S
H2952 C2936 0.931 . S
H2953 C2941 0.930 . S
H2954 C2942 0.956 . S
H2955 C2942 0.961 . S
H2956 C2942 0.961 . S
H2957 C2943 0.958 1_554 S
H2958 C2943 0.961 . S
H2959 C2943 0.960 . S
C2960 C2961 1.391 . S
C2960 C2962 1.394 . S
C2960 H2976 0.931 . S
C2961 C2960 1.391 . S
C2961 C2965 1.376 . S
C2962 C2960 1.394 . S
C2962 C2963 1.369 . S
C2962 C2966 1.531 . S
C2963 C2962 1.369 . S
C2963 C2964 1.410 . S
C2963 C2971 1.503 . S
C2964 C2963 1.410 . S
C2964 C2965 1.392 . S
C2964 C2967 1.511 . S
C2965 C2961 1.376 . S
C2965 C2964 1.392 . S
C2965 H2977 0.929 . S
C2966 C2962 1.531 . S
C2966 H2978 0.960 . S
C2966 H2979 0.962 . S
C2966 H2980 0.960 . S
C2967 C2964 1.511 . S
C2967 H2981 0.961 . S
C2967 H2982 0.961 . S
C2967 H2983 0.961 . S
C2968 C2969 1.370 . S
C2968 C2970 1.363 . S
C2968 H2984 0.931 . S
C2969 C2968 1.370 . S
C2969 C2973 1.408 . S
C2970 C2968 1.363 . S
C2970 C2971 1.370 . S
C2970 C2974 1.524 . S
C2971 C2963 1.503 . S
C2971 C2970 1.370 . S
C2971 C2972 1.403 . S
C2972 C2971 1.403 . S
C2972 C2973 1.404 . S
C2972 C2975 1.539 . S
C2973 C2969 1.408 . S
C2973 C2972 1.404 . S
C2973 H2985 0.930 . S
C2974 C2970 1.524 . S
C2974 H2986 0.956 . S
C2974 H2987 0.961 . S
C2974 H2988 0.961 . S
C2975 C2972 1.539 . S
C2975 H2989 0.958 . S
C2975 H2990 0.961 . S
C2975 H2991 0.960 . S
H2976 C2960 0.931 . S
H2977 C2965 0.929 . S
H2978 C2966 0.960 . S
H2979 C2966 0.962 . S
H2980 C2966 0.960 . S
H2981 C2967 0.961 . S
H2982 C2967 0.961 . S
H2983 C2967 0.961 . S
H2984 C2968 0.931 . S
H2985 C2973 0.930 . S
H2986 C2974 0.956 . S
H2987 C2974 0.961 . S
H2988 C2974 0.961 . S
H2989 C2975 0.958 . S
H2990 C2975 0.961 . S
H2991 C2975 0.960 . S
C2992 C2993 1.410 . S
C2992 C2994 1.383 1_554 S
C2992 H3008 0.922 1_554 S
C2993 C2992 1.410 . S
C2993 C2997 1.376 . S
C2994 C2992 1.383 1_556 S
C2994 C2995 1.363 1_556 S
C2994 C2998 1.531 . S
C2995 C2994 1.363 1_554 S
C2995 C2996 1.424 . S
C2995 C3003 1.495 1_554 S
C2996 C2995 1.424 . S
C2996 C2997 1.392 . S
C2996 C2999 1.511 . S
C2997 C2993 1.376 . S
C2997 C2996 1.392 . S
C2997 H3009 0.929 . S
C2998 C2994 1.531 . S
C2998 H3010 0.960 . S
C2998 H3011 0.962 . S
C2998 H3012 0.960 . S
C2999 C2996 1.511 . S
C2999 H3013 0.961 . S
C2999 H3014 0.961 . S
C2999 H3015 0.961 . S
C3000 C3001 1.370 . S
C3000 C3002 1.363 . S
C3000 H3016 0.931 . S
C3001 C3000 1.370 . S
C3001 C3005 1.408 . S
C3002 C3000 1.363 . S
C3002 C3003 1.370 . S
C3002 C3006 1.524 . S
C3003 C2995 1.495 1_556 S
C3003 C3002 1.370 . S
C3003 C3004 1.403 . S
C3004 C3003 1.403 . S
C3004 C3005 1.404 . S
C3004 C3007 1.539 1_556 S
C3005 C3001 1.408 . S
C3005 C3004 1.404 . S
C3005 H3017 0.930 . S
C3006 C3002 1.524 . S
C3006 H3018 0.956 . S
C3006 H3019 0.961 . S
C3006 H3020 0.961 . S
C3007 C3004 1.539 1_554 S
C3007 H3021 0.958 . S
C3007 H3022 0.961 . S
C3007 H3023 0.960 . S
H3008 C2992 0.922 1_556 S
H3009 C2997 0.929 . S
H3010 C2998 0.960 . S
H3011 C2998 0.962 . S
H3012 C2998 0.960 . S
H3013 C2999 0.961 . S
H3014 C2999 0.961 . S
H3015 C2999 0.961 . S
H3016 C3000 0.931 . S
H3017 C3005 0.930 . S
H3018 C3006 0.956 . S
H3019 C3006 0.961 . S
H3020 C3006 0.961 . S
H3021 C3007 0.958 . S
H3022 C3007 0.961 . S
H3023 C3007 0.960 . S
C3024 C3025 1.391 . S
C3024 C3026 1.394 . S
C3024 H3040 0.931 . S
C3025 C3024 1.391 . S
C3025 C3029 1.376 . S
C3026 C3024 1.394 . S
C3026 C3027 1.369 . S
C3026 C3030 1.531 . S
C3027 C3026 1.369 . S
C3027 C3028 1.410 . S
C3027 C3035 1.503 . S
C3028 C3027 1.410 . S
C3028 C3029 1.392 . S
C3028 C3031 1.511 . S
C3029 C3025 1.376 . S
C3029 C3028 1.392 . S
C3029 H3041 0.929 . S
C3030 C3026 1.531 . S
C3030 H3042 0.960 . S
C3030 H3043 0.962 . S
C3030 H3044 0.960 . S
C3031 C3028 1.511 . S
C3031 H3045 0.961 . S
C3031 H3046 0.961 . S
C3031 H3047 0.961 . S
C3032 C3033 1.370 . S
C3032 C3034 1.363 . S
C3032 H3048 0.931 . S
C3033 C3032 1.370 . S
C3033 C3037 1.408 . S
C3034 C3032 1.363 . S
C3034 C3035 1.370 . S
C3034 C3038 1.524 . S
C3035 C3027 1.503 . S
C3035 C3034 1.370 . S
C3035 C3036 1.403 . S
C3036 C3035 1.403 . S
C3036 C3037 1.404 . S
C3036 C3039 1.539 . S
C3037 C3033 1.408 . S
C3037 C3036 1.404 . S
C3037 H3049 0.930 . S
C3038 C3034 1.524 . S
C3038 H3050 0.956 . S
C3038 H3051 0.961 . S
C3038 H3052 0.961 . S
C3039 C3036 1.539 . S
C3039 H3053 0.958 . S
C3039 H3054 0.961 . S
C3039 H3055 0.960 . S
H3040 C3024 0.931 . S
H3041 C3029 0.929 . S
H3042 C3030 0.960 . S
H3043 C3030 0.962 . S
H3044 C3030 0.960 . S
H3045 C3031 0.961 . S
H3046 C3031 0.961 . S
H3047 C3031 0.961 . S
H3048 C3032 0.931 . S
H3049 C3037 0.930 . S
H3050 C3038 0.956 . S
H3051 C3038 0.961 . S
H3052 C3038 0.961 . S
H3053 C3039 0.958 . S
H3054 C3039 0.961 . S
H3055 C3039 0.960 . S
C3056 C3057 1.391 . S
C3056 C3058 1.394 . S
C3056 H3072 0.931 . S
C3057 C3056 1.391 . S
C3057 C3061 1.376 . S
C3058 C3056 1.394 . S
C3058 C3059 1.369 . S
C3058 C3062 1.531 . S
C3059 C3058 1.369 . S
C3059 C3060 1.410 . S
C3059 C3067 1.503 . S
C3060 C3059 1.410 . S
C3060 C3061 1.392 . S
C3060 C3063 1.511 . S
C3061 C3057 1.376 . S
C3061 C3060 1.392 . S
C3061 H3073 0.929 . S
C3062 C3058 1.531 . S
C3062 H3074 0.960 . S
C3062 H3075 0.962 . S
C3062 H3076 0.960 . S
C3063 C3060 1.511 . S
C3063 H3077 0.961 . S
C3063 H3078 0.961 . S
C3063 H3079 0.961 . S
C3064 C3065 1.370 . S
C3064 C3066 1.363 . S
C3064 H3080 0.931 . S
C3065 C3064 1.370 . S
C3065 C3069 1.408 . S
C3066 C3064 1.363 . S
C3066 C3067 1.370 . S
C3066 C3070 1.524 . S
C3067 C3059 1.503 . S
C3067 C3066 1.370 . S
C3067 C3068 1.403 . S
C3068 C3067 1.403 . S
C3068 C3069 1.404 . S
C3068 C3071 1.539 . S
C3069 C3065 1.408 . S
C3069 C3068 1.404 . S
C3069 H3081 0.930 . S
C3070 C3066 1.524 . S
C3070 H3082 0.956 . S
C3070 H3083 0.961 . S
C3070 H3084 0.961 . S
C3071 C3068 1.539 . S
C3071 H3085 0.958 . S
C3071 H3086 0.961 . S
C3071 H3087 0.960 . S
H3072 C3056 0.931 . S
H3073 C3061 0.929 . S
H3074 C3062 0.960 . S
H3075 C3062 0.962 . S
H3076 C3062 0.960 . S
H3077 C3063 0.961 . S
H3078 C3063 0.961 . S
H3079 C3063 0.961 . S
H3080 C3064 0.931 . S
H3081 C3069 0.930 . S
H3082 C3070 0.956 . S
H3083 C3070 0.961 . S
H3084 C3070 0.961 . S
H3085 C3071 0.958 . S
H3086 C3071 0.961 . S
H3087 C3071 0.960 . S
C3088 C3089 1.391 . S
C3088 C3090 1.394 . S
C3088 H3104 0.931 . S
C3089 C3088 1.391 . S
C3089 C3093 1.376 . S
C3090 C3088 1.394 . S
C3090 C3091 1.369 . S
C3090 C3094 1.531 . S
C3091 C3090 1.369 . S
C3091 C3092 1.410 . S
C3091 C3099 1.503 . S
C3092 C3091 1.410 . S
C3092 C3093 1.392 . S
C3092 C3095 1.511 . S
C3093 C3089 1.376 . S
C3093 C3092 1.392 . S
C3093 H3105 0.929 . S
C3094 C3090 1.531 . S
C3094 H3106 0.960 . S
C3094 H3107 0.962 . S
C3094 H3108 0.960 . S
C3095 C3092 1.511 . S
C3095 H3109 0.961 . S
C3095 H3110 0.961 . S
C3095 H3111 0.961 . S
C3096 C3097 1.370 . S
C3096 C3098 1.363 . S
C3096 H3112 0.931 . S
C3097 C3096 1.370 . S
C3097 C3101 1.408 . S
C3098 C3096 1.363 . S
C3098 C3099 1.370 . S
C3098 C3102 1.524 . S
C3099 C3091 1.503 . S
C3099 C3098 1.370 . S
C3099 C3100 1.403 . S
C3100 C3099 1.403 . S
C3100 C3101 1.404 . S
C3100 C3103 1.539 . S
C3101 C3097 1.408 . S
C3101 C3100 1.404 . S
C3101 H3113 0.930 . S
C3102 C3098 1.524 . S
C3102 H3114 0.956 . S
C3102 H3115 0.961 . S
C3102 H3116 0.961 . S
C3103 C3100 1.539 . S
C3103 H3117 0.958 . S
C3103 H3118 0.961 . S
C3103 H3119 0.960 . S
H3104 C3088 0.931 . S
H3105 C3093 0.929 . S
H3106 C3094 0.960 . S
H3107 C3094 0.962 . S
H3108 C3094 0.960 . S
H3109 C3095 0.961 . S
H3110 C3095 0.961 . S
H3111 C3095 0.961 . S
H3112 C3096 0.931 . S
H3113 C3101 0.930 . S
H3114 C3102 0.956 . S
H3115 C3102 0.961 . S
H3116 C3102 0.961 . S
H3117 C3103 0.958 . S
H3118 C3103 0.961 . S
H3119 C3103 0.960 . S
C3120 C3121 1.391 . S
C3120 C3122 1.394 . S
C3120 H3136 0.931 . S
C3121 C3120 1.391 . S
C3121 C3125 1.376 . S
C3122 C3120 1.394 . S
C3122 C3123 1.369 . S
C3122 C3126 1.531 . S
C3123 C3122 1.369 . S
C3123 C3124 1.410 . S
C3123 C3131 1.503 . S
C3124 C3123 1.410 . S
C3124 C3125 1.392 . S
C3124 C3127 1.511 . S
C3125 C3121 1.376 . S
C3125 C3124 1.392 . S
C3125 H3137 0.929 . S
C3126 C3122 1.531 . S
C3126 H3138 0.960 . S
C3126 H3139 0.962 . S
C3126 H3140 0.960 . S
C3127 C3124 1.511 . S
C3127 H3141 0.961 . S
C3127 H3142 0.961 . S
C3127 H3143 0.961 . S
C3128 C3129 1.370 . S
C3128 C3130 1.363 . S
C3128 H3144 0.931 . S
C3129 C3128 1.370 . S
C3129 C3133 1.408 . S
C3130 C3128 1.363 . S
C3130 C3131 1.370 . S
C3130 C3134 1.524 . S
C3131 C3123 1.503 . S
C3131 C3130 1.370 . S
C3131 C3132 1.403 . S
C3132 C3131 1.403 . S
C3132 C3133 1.404 . S
C3132 C3135 1.539 . S
C3133 C3129 1.408 . S
C3133 C3132 1.404 . S
C3133 H3145 0.930 . S
C3134 C3130 1.524 . S
C3134 H3146 0.956 . S
C3134 H3147 0.961 . S
C3134 H3148 0.961 . S
C3135 C3132 1.539 . S
C3135 H3149 0.958 . S
C3135 H3150 0.961 . S
C3135 H3151 0.960 . S
H3136 C3120 0.931 . S
H3137 C3125 0.929 . S
H3138 C3126 0.960 . S
H3139 C3126 0.962 . S
H3140 C3126 0.960 . S
H3141 C3127 0.961 . S
H3142 C3127 0.961 . S
H3143 C3127 0.961 . S
H3144 C3128 0.931 . S
H3145 C3133 0.930 . S
H3146 C3134 0.956 . S
H3147 C3134 0.961 . S
H3148 C3134 0.961 . S
H3149 C3135 0.958 . S
H3150 C3135 0.961 . S
H3151 C3135 0.960 . S
C3152 C3153 1.391 . S
C3152 C3154 1.394 . S
C3152 H3168 0.931 . S
C3153 C3152 1.391 . S
C3153 C3157 1.376 . S
C3154 C3152 1.394 . S
C3154 C3155 1.369 . S
C3154 C3158 1.531 . S
C3155 C3154 1.369 . S
C3155 C3156 1.410 . S
C3155 C3163 1.503 . S
C3156 C3155 1.410 . S
C3156 C3157 1.392 . S
C3156 C3159 1.511 . S
C3157 C3153 1.376 . S
C3157 C3156 1.392 . S
C3157 H3169 0.929 . S
C3158 C3154 1.531 . S
C3158 H3170 0.960 . S
C3158 H3171 0.962 . S
C3158 H3172 0.960 . S
C3159 C3156 1.511 . S
C3159 H3173 0.961 . S
C3159 H3174 0.961 . S
C3159 H3175 0.961 . S
C3160 C3161 1.370 . S
C3160 C3162 1.363 . S
C3160 H3176 0.931 . S
C3161 C3160 1.370 . S
C3161 C3165 1.408 . S
C3162 C3160 1.363 . S
C3162 C3163 1.370 . S
C3162 C3166 1.524 . S
C3163 C3155 1.503 . S
C3163 C3162 1.370 . S
C3163 C3164 1.403 . S
C3164 C3163 1.403 . S
C3164 C3165 1.404 . S
C3164 C3167 1.539 . S
C3165 C3161 1.408 . S
C3165 C3164 1.404 . S
C3165 H3177 0.930 . S
C3166 C3162 1.524 . S
C3166 H3178 0.956 . S
C3166 H3179 0.961 . S
C3166 H3180 0.961 . S
C3167 C3164 1.539 . S
C3167 H3181 0.958 . S
C3167 H3182 0.961 . S
C3167 H3183 0.960 . S
H3168 C3152 0.931 . S
H3169 C3157 0.929 . S
H3170 C3158 0.960 . S
H3171 C3158 0.962 . S
H3172 C3158 0.960 . S
H3173 C3159 0.961 . S
H3174 C3159 0.961 . S
H3175 C3159 0.961 . S
H3176 C3160 0.931 . S
H3177 C3165 0.930 . S
H3178 C3166 0.956 . S
H3179 C3166 0.961 . S
H3180 C3166 0.961 . S
H3181 C3167 0.958 . S
H3182 C3167 0.961 . S
H3183 C3167 0.960 . S
C3184 C3185 1.391 1_655 S
C3184 C3186 1.394 . S
C3184 H3200 0.931 . S
C3185 C3184 1.391 1_455 S
C3185 C3189 1.376 1_455 S
C3186 C3184 1.394 . S
C3186 C3187 1.369 . S
C3186 C3190 1.531 . S
C3187 C3186 1.369 . S
C3187 C3188 1.410 . S
C3187 C3195 1.503 . S
C3188 C3187 1.410 . S
C3188 C3189 1.392 . S
C3188 C3191 1.511 . S
C3189 C3185 1.376 1_655 S
C3189 C3188 1.392 . S
C3189 H3201 0.930 1_655 S
C3190 C3186 1.531 . S
C3190 H3202 0.960 . S
C3190 H3203 0.962 . S
C3190 H3204 0.960 . S
C3191 C3188 1.511 . S
C3191 H3205 0.961 . S
C3191 H3206 0.961 . S
C3191 H3207 0.961 . S
C3192 C3193 1.370 . S
C3192 C3194 1.363 . S
C3192 H3208 0.931 . S
C3193 C3192 1.370 . S
C3193 C3197 1.408 . S
C3194 C3192 1.363 . S
C3194 C3195 1.370 . S
C3194 C3198 1.524 . S
C3195 C3187 1.503 . S
C3195 C3194 1.370 . S
C3195 C3196 1.403 . S
C3196 C3195 1.403 . S
C3196 C3197 1.404 . S
C3196 C3199 1.539 . S
C3197 C3193 1.408 . S
C3197 C3196 1.404 . S
C3197 H3209 0.930 . S
C3198 C3194 1.524 . S
C3198 H3210 0.956 . S
C3198 H3211 0.961 . S
C3198 H3212 0.961 . S
C3199 C3196 1.539 . S
C3199 H3213 0.958 . S
C3199 H3214 0.961 . S
C3199 H3215 0.960 . S
H3200 C3184 0.931 . S
H3201 C3189 0.930 1_455 S
H3202 C3190 0.960 . S
H3203 C3190 0.962 . S
H3204 C3190 0.960 . S
H3205 C3191 0.961 . S
H3206 C3191 0.961 . S
H3207 C3191 0.961 . S
H3208 C3192 0.931 . S
H3209 C3197 0.930 . S
H3210 C3198 0.956 . S
H3211 C3198 0.961 . S
H3212 C3198 0.961 . S
H3213 C3199 0.958 . S
H3214 C3199 0.961 . S
H3215 C3199 0.960 . S
C3216 C3217 1.391 . S
C3216 C3218 1.394 . S
C3216 H3232 0.931 . S
C3217 C3216 1.391 . S
C3217 C3221 1.376 . S
C3218 C3216 1.394 . S
C3218 C3219 1.369 . S
C3218 C3222 1.531 . S
C3219 C3218 1.369 . S
C3219 C3220 1.410 . S
C3219 C3227 1.503 . S
C3220 C3219 1.410 . S
C3220 C3221 1.392 . S
C3220 C3223 1.511 . S
C3221 C3217 1.376 . S
C3221 C3220 1.392 . S
C3221 H3233 0.929 . S
C3222 C3218 1.531 . S
C3222 H3234 0.958 1_455 S
C3222 H3235 0.962 . S
C3222 H3236 0.960 1_455 S
C3223 C3220 1.511 . S
C3223 H3237 0.961 . S
C3223 H3238 0.961 . S
C3223 H3239 0.961 . S
C3224 C3225 1.370 . S
C3224 C3226 1.363 . S
C3224 H3240 0.931 . S
C3225 C3224 1.370 . S
C3225 C3229 1.408 . S
C3226 C3224 1.363 . S
C3226 C3227 1.370 . S
C3226 C3230 1.524 . S
C3227 C3219 1.503 . S
C3227 C3226 1.370 . S
C3227 C3228 1.403 . S
C3228 C3227 1.403 . S
C3228 C3229 1.404 . S
C3228 C3231 1.539 . S
C3229 C3225 1.408 . S
C3229 C3228 1.404 . S
C3229 H3241 0.930 . S
C3230 C3226 1.524 . S
C3230 H3242 0.956 . S
C3230 H3243 0.961 . S
C3230 H3244 0.961 . S
C3231 C3228 1.539 . S
C3231 H3245 0.958 1_455 S
C3231 H3246 0.924 1_455 S
C3231 H3247 0.960 . S
H3232 C3216 0.931 . S
H3233 C3221 0.929 . S
H3234 C3222 0.958 1_655 S
H3235 C3222 0.962 . S
H3236 C3222 0.960 1_655 S
H3237 C3223 0.961 . S
H3238 C3223 0.961 . S
H3239 C3223 0.961 . S
H3240 C3224 0.931 . S
H3241 C3229 0.930 . S
H3242 C3230 0.956 . S
H3243 C3230 0.961 . S
H3244 C3230 0.961 . S
H3245 C3231 0.958 1_655 S
H3246 C3231 0.924 1_655 S
H3247 C3231 0.960 . S
C3248 C3249 1.391 . S
C3248 C3250 1.394 . S
C3248 H3264 0.931 . S
C3249 C3248 1.391 . S
C3249 C3253 1.376 . S
C3250 C3248 1.394 . S
C3250 C3251 1.369 . S
C3250 C3254 1.531 . S
C3251 C3250 1.369 . S
C3251 C3252 1.410 . S
C3251 C3259 1.503 . S
C3252 C3251 1.410 . S
C3252 C3253 1.392 . S
C3252 C3255 1.511 . S
C3253 C3249 1.376 . S
C3253 C3252 1.392 . S
C3253 H3265 0.929 . S
C3254 C3250 1.531 . S
C3254 H3266 0.960 . S
C3254 H3267 0.962 . S
C3254 H3268 0.960 . S
C3255 C3252 1.511 . S
C3255 H3269 0.961 . S
C3255 H3270 0.961 . S
C3255 H3271 0.961 . S
C3256 C3257 1.370 . S
C3256 C3258 1.363 . S
C3256 H3272 0.931 . S
C3257 C3256 1.370 . S
C3257 C3261 1.408 . S
C3258 C3256 1.363 . S
C3258 C3259 1.370 . S
C3258 C3262 1.524 . S
C3259 C3251 1.503 . S
C3259 C3258 1.370 . S
C3259 C3260 1.403 . S
C3260 C3259 1.403 . S
C3260 C3261 1.404 . S
C3260 C3263 1.539 . S
C3261 C3257 1.408 . S
C3261 C3260 1.404 . S
C3261 H3273 0.930 . S
C3262 C3258 1.524 . S
C3262 H3274 0.956 . S
C3262 H3275 0.961 . S
C3262 H3276 0.961 . S
C3263 C3260 1.539 . S
C3263 H3277 0.958 . S
C3263 H3278 0.961 . S
C3263 H3279 0.960 . S
H3264 C3248 0.931 . S
H3265 C3253 0.929 . S
H3266 C3254 0.960 . S
H3267 C3254 0.962 . S
H3268 C3254 0.960 . S
H3269 C3255 0.961 . S
H3270 C3255 0.961 . S
H3271 C3255 0.961 . S
H3272 C3256 0.931 . S
H3273 C3261 0.930 . S
H3274 C3262 0.956 . S
H3275 C3262 0.961 . S
H3276 C3262 0.961 . S
H3277 C3263 0.958 . S
H3278 C3263 0.961 . S
H3279 C3263 0.960 . S
C3280 C3281 1.391 . S
C3280 C3282 1.394 . S
C3280 H3296 0.931 . S
C3281 C3280 1.391 . S
C3281 C3285 1.376 . S
C3282 C3280 1.394 . S
C3282 C3283 1.369 . S
C3282 C3286 1.531 . S
C3283 C3282 1.369 . S
C3283 C3284 1.410 . S
C3283 C3291 1.503 . S
C3284 C3283 1.410 . S
C3284 C3285 1.392 . S
C3284 C3287 1.511 . S
C3285 C3281 1.376 . S
C3285 C3284 1.392 . S
C3285 H3297 0.929 . S
C3286 C3282 1.531 . S
C3286 H3298 0.960 . S
C3286 H3299 0.962 . S
C3286 H3300 0.960 . S
C3287 C3284 1.511 . S
C3287 H3301 0.961 . S
C3287 H3302 0.961 . S
C3287 H3303 0.961 . S
C3288 C3289 1.370 . S
C3288 C3290 1.363 . S
C3288 H3304 0.931 . S
C3289 C3288 1.370 . S
C3289 C3293 1.473 . S
C3290 C3288 1.363 . S
C3290 C3291 1.370 . S
C3290 C3294 1.524 . S
C3291 C3283 1.503 . S
C3291 C3290 1.370 . S
C3291 C3292 1.403 . S
C3292 C3291 1.403 . S
C3292 C3293 1.382 . S
C3292 C3295 1.539 1_565 S
C3293 C3289 1.473 . S
C3293 C3292 1.382 . S
C3293 H3305 0.893 1_565 S
C3294 C3290 1.524 . S
C3294 H3306 0.956 . S
C3294 H3307 0.961 . S
C3294 H3308 0.961 . S
C3295 C3292 1.539 1_545 S
C3295 H3309 0.958 . S
C3295 H3310 0.961 . S
C3295 H3311 0.960 . S
H3296 C3280 0.931 . S
H3297 C3285 0.929 . S
H3298 C3286 0.960 . S
H3299 C3286 0.962 . S
H3300 C3286 0.960 . S
H3301 C3287 0.961 . S
H3302 C3287 0.961 . S
H3303 C3287 0.961 . S
H3304 C3288 0.931 . S
H3305 C3293 0.893 1_545 S
H3306 C3294 0.956 . S
H3307 C3294 0.961 . S
H3308 C3294 0.961 . S
H3309 C3295 0.958 . S
H3310 C3295 0.961 . S
H3311 C3295 0.960 . S
C3312 C3313 1.391 . S
C3312 C3314 1.394 . S
C3312 H3328 0.931 . S
C3313 C3312 1.391 . S
C3313 C3317 1.376 . S
C3314 C3312 1.394 . S
C3314 C3315 1.369 . S
C3314 C3318 1.531 . S
C3315 C3314 1.369 . S
C3315 C3316 1.410 . S
C3315 C3323 1.503 . S
C3316 C3315 1.410 . S
C3316 C3317 1.392 . S
C3316 C3319 1.511 . S
C3317 C3313 1.376 . S
C3317 C3316 1.392 . S
C3317 H3329 0.929 . S
C3318 C3314 1.531 . S
C3318 H3330 0.960 . S
C3318 H3331 0.962 . S
C3318 H3332 0.960 . S
C3319 C3316 1.511 . S
C3319 H3333 0.961 . S
C3319 H3334 0.961 . S
C3319 H3335 0.961 . S
C3320 C3321 1.370 1_545 S
C3320 C3322 1.363 . S
C3320 H3336 0.931 . S
C3321 C3320 1.370 1_565 S
C3321 C3325 1.408 . S
C3322 C3320 1.363 . S
C3322 C3323 1.370 1_545 S
C3322 C3326 1.524 . S
C3323 C3315 1.503 . S
C3323 C3322 1.370 1_565 S
C3323 C3324 1.403 . S
C3324 C3323 1.403 . S
C3324 C3325 1.404 . S
C3324 C3327 1.539 . S
C3325 C3321 1.408 . S
C3325 C3324 1.404 . S
C3325 H3337 0.930 . S
C3326 C3322 1.524 . S
C3326 H3338 0.956 . S
C3326 H3339 0.961 . S
C3326 H3340 0.961 . S
C3327 C3324 1.539 . S
C3327 H3341 0.958 . S
C3327 H3342 0.961 . S
C3327 H3343 0.960 . S
H3328 C3312 0.931 . S
H3329 C3317 0.929 . S
H3330 C3318 0.960 . S
H3331 C3318 0.962 . S
H3332 C3318 0.960 . S
H3333 C3319 0.961 . S
H3334 C3319 0.961 . S
H3335 C3319 0.961 . S
H3336 C3320 0.931 . S
H3337 C3325 0.930 . S
H3338 C3326 0.956 . S
H3339 C3326 0.961 . S
H3340 C3326 0.961 . S
H3341 C3327 0.958 . S
H3342 C3327 0.961 . S
H3343 C3327 0.960 . S
C3344 C3345 1.391 . S
C3344 C3346 1.394 . S
C3344 H3360 0.931 . S
C3345 C3344 1.391 . S
C3345 C3349 1.376 . S
C3346 C3344 1.394 . S
C3346 C3347 1.369 . S
C3346 C3350 1.531 1_455 S
C3347 C3346 1.369 . S
C3347 C3348 1.410 . S
C3347 C3355 1.503 . S
C3348 C3347 1.410 . S
C3348 C3349 1.392 . S
C3348 C3351 1.511 . S
C3349 C3345 1.376 . S
C3349 C3348 1.392 . S
C3349 H3361 0.929 . S
C3350 C3346 1.531 1_655 S
C3350 H3362 0.960 . S
C3350 H3363 0.962 . S
C3350 H3364 0.960 . S
C3351 C3348 1.511 . S
C3351 H3365 0.961 . S
C3351 H3366 0.961 . S
C3351 H3367 0.961 . S
C3352 C3353 1.370 1_455 S
C3352 C3354 1.363 . S
C3352 H3368 0.931 . S
C3353 C3352 1.370 1_655 S
C3353 C3357 1.408 . S
C3354 C3352 1.363 . S
C3354 C3355 1.370 . S
C3354 C3358 1.524 . S
C3355 C3347 1.503 . S
C3355 C3354 1.370 . S
C3355 C3356 1.403 1_455 S
C3356 C3355 1.403 1_655 S
C3356 C3357 1.404 . S
C3356 C3359 1.539 . S
C3357 C3353 1.408 . S
C3357 C3356 1.404 . S
C3357 H3369 0.930 . S
C3358 C3354 1.524 . S
C3358 H3370 0.956 . S
C3358 H3371 0.961 . S
C3358 H3372 0.961 . S
C3359 C3356 1.539 . S
C3359 H3373 0.958 . S
C3359 H3374 0.961 . S
C3359 H3375 0.960 . S
H3360 C3344 0.931 . S
H3361 C3349 0.929 . S
H3362 C3350 0.960 . S
H3363 C3350 0.962 . S
H3364 C3350 0.960 . S
H3365 C3351 0.961 . S
H3366 C3351 0.961 . S
H3367 C3351 0.961 . S
H3368 C3352 0.931 . S
H3369 C3357 0.930 . S
H3370 C3358 0.956 . S
H3371 C3358 0.961 . S
H3372 C3358 0.961 . S
H3373 C3359 0.958 . S
H3374 C3359 0.961 . S
H3375 C3359 0.960 . S
C3376 C3377 1.391 . S
C3376 C3378 1.394 . S
C3376 H3392 0.931 . S
C3377 C3376 1.391 . S
C3377 C3381 1.376 . S
C3378 C3376 1.394 . S
C3378 C3379 1.369 . S
C3378 C3382 1.531 . S
C3379 C3378 1.369 . S
C3379 C3380 1.410 . S
C3379 C3387 1.503 . S
C3380 C3379 1.410 . S
C3380 C3381 1.392 . S
C3380 C3383 1.511 . S
C3381 C3377 1.376 . S
C3381 C3380 1.392 . S
C3381 H3393 0.929 . S
C3382 C3378 1.531 . S
C3382 H3394 0.960 . S
C3382 H3395 0.962 . S
C3382 H3396 0.960 . S
C3383 C3380 1.511 . S
C3383 H3397 0.961 . S
C3383 H3398 0.961 . S
C3383 H3399 0.961 . S
C3384 C3385 1.370 . S
C3384 C3386 1.363 . S
C3384 H3400 0.931 . S
C3385 C3384 1.370 . S
C3385 C3389 1.408 . S
C3386 C3384 1.363 . S
C3386 C3387 1.370 . S
C3386 C3390 1.524 . S
C3387 C3379 1.503 . S
C3387 C3386 1.370 . S
C3387 C3388 1.403 . S
C3388 C3387 1.403 . S
C3388 C3389 1.404 . S
C3388 C3391 1.539 . S
C3389 C3385 1.408 . S
C3389 C3388 1.404 . S
C3389 H3401 0.930 . S
C3390 C3386 1.524 . S
C3390 H3402 0.956 . S
C3390 H3403 0.961 . S
C3390 H3404 0.961 . S
C3391 C3388 1.539 . S
C3391 H3405 0.958 . S
C3391 H3406 0.961 . S
C3391 H3407 0.960 . S
H3392 C3376 0.931 . S
H3393 C3381 0.929 . S
H3394 C3382 0.960 . S
H3395 C3382 0.962 . S
H3396 C3382 0.960 . S
H3397 C3383 0.961 . S
H3398 C3383 0.961 . S
H3399 C3383 0.961 . S
H3400 C3384 0.931 . S
H3401 C3389 0.930 . S
H3402 C3390 0.956 . S
H3403 C3390 0.961 . S
H3404 C3390 0.961 . S
H3405 C3391 0.958 . S
H3406 C3391 0.961 . S
H3407 C3391 0.960 . S
C3408 C3409 1.391 . S
C3408 C3410 1.394 . S
C3408 H3424 0.931 . S
C3409 C3408 1.391 . S
C3409 C3413 1.376 . S
C3410 C3408 1.394 . S
C3410 C3411 1.369 . S
C3410 C3414 1.531 . S
C3411 C3410 1.369 . S
C3411 C3412 1.410 . S
C3411 C3419 1.503 . S
C3412 C3411 1.410 . S
C3412 C3413 1.392 . S
C3412 C3415 1.511 . S
C3413 C3409 1.376 . S
C3413 C3412 1.392 . S
C3413 H3425 0.929 . S
C3414 C3410 1.531 . S
C3414 H3426 0.960 . S
C3414 H3427 0.962 . S
C3414 H3428 0.960 . S
C3415 C3412 1.511 . S
C3415 H3429 0.961 . S
C3415 H3430 0.961 . S
C3415 H3431 0.961 . S
C3416 C3417 1.370 . S
C3416 C3418 1.363 . S
C3416 H3432 0.931 . S
C3417 C3416 1.370 . S
C3417 C3421 1.408 . S
C3418 C3416 1.363 . S
C3418 C3419 1.370 . S
C3418 C3422 1.524 . S
C3419 C3411 1.503 . S
C3419 C3418 1.370 . S
C3419 C3420 1.403 . S
C3420 C3419 1.403 . S
C3420 C3421 1.404 . S
C3420 C3423 1.539 . S
C3421 C3417 1.408 . S
C3421 C3420 1.404 . S
C3421 H3433 0.930 . S
C3422 C3418 1.524 . S
C3422 H3434 0.956 . S
C3422 H3435 0.961 . S
C3422 H3436 0.961 . S
C3423 C3420 1.539 . S
C3423 H3437 0.958 . S
C3423 H3438 0.961 . S
C3423 H3439 0.960 . S
H3424 C3408 0.931 . S
H3425 C3413 0.929 . S
H3426 C3414 0.960 . S
H3427 C3414 0.962 . S
H3428 C3414 0.960 . S
H3429 C3415 0.961 . S
H3430 C3415 0.961 . S
H3431 C3415 0.961 . S
H3432 C3416 0.931 . S
H3433 C3421 0.930 . S
H3434 C3422 0.956 . S
H3435 C3422 0.961 . S
H3436 C3422 0.961 . S
H3437 C3423 0.958 . S
H3438 C3423 0.961 . S
H3439 C3423 0.960 . S
C3440 C3441 1.391 . S
C3440 C3442 1.394 . S
C3440 H3456 0.931 . S
C3441 C3440 1.391 . S
C3441 C3445 1.376 . S
C3442 C3440 1.394 . S
C3442 C3443 1.369 . S
C3442 C3446 1.531 . S
C3443 C3442 1.369 . S
C3443 C3444 1.410 . S
C3443 C3451 1.503 . S
C3444 C3443 1.410 . S
C3444 C3445 1.392 . S
C3444 C3447 1.511 . S
C3445 C3441 1.376 . S
C3445 C3444 1.392 . S
C3445 H3457 0.929 . S
C3446 C3442 1.531 . S
C3446 H3458 0.960 . S
C3446 H3459 0.962 . S
C3446 H3460 0.960 . S
C3447 C3444 1.511 . S
C3447 H3461 0.961 . S
C3447 H3462 0.961 . S
C3447 H3463 0.961 . S
C3448 C3449 1.370 . S
C3448 C3450 1.363 . S
C3448 H3464 0.931 . S
C3449 C3448 1.370 . S
C3449 C3453 1.408 . S
C3450 C3448 1.363 . S
C3450 C3451 1.370 . S
C3450 C3454 1.524 . S
C3451 C3443 1.503 . S
C3451 C3450 1.370 . S
C3451 C3452 1.403 . S
C3452 C3451 1.403 . S
C3452 C3453 1.404 . S
C3452 C3455 1.539 . S
C3453 C3449 1.408 . S
C3453 C3452 1.404 . S
C3453 H3465 0.930 . S
C3454 C3450 1.524 . S
C3454 H3466 0.956 . S
C3454 H3467 0.961 . S
C3454 H3468 0.961 . S
C3455 C3452 1.539 . S
C3455 H3469 0.958 . S
C3455 H3470 0.961 . S
C3455 H3471 0.960 . S
H3456 C3440 0.931 . S
H3457 C3445 0.929 . S
H3458 C3446 0.960 . S
H3459 C3446 0.962 . S
H3460 C3446 0.960 . S
H3461 C3447 0.961 . S
H3462 C3447 0.961 . S
H3463 C3447 0.961 . S
H3464 C3448 0.931 . S
H3465 C3453 0.930 . S
H3466 C3454 0.956 . S
H3467 C3454 0.961 . S
H3468 C3454 0.961 . S
H3469 C3455 0.958 . S
H3470 C3455 0.961 . S
H3471 C3455 0.960 . S
C3472 C3473 1.391 . S
C3472 C3474 1.394 . S
C3472 H3488 0.931 . S
C3473 C3472 1.391 . S
C3473 C3477 1.376 . S
C3474 C3472 1.394 . S
C3474 C3475 1.369 . S
C3474 C3478 1.531 . S
C3475 C3474 1.369 . S
C3475 C3476 1.410 . S
C3475 C3483 1.503 . S
C3476 C3475 1.410 . S
C3476 C3477 1.392 . S
C3476 C3479 1.511 . S
C3477 C3473 1.376 . S
C3477 C3476 1.392 . S
C3477 H3489 0.929 . S
C3478 C3474 1.531 . S
C3478 H3490 0.960 . S
C3478 H3491 0.962 . S
C3478 H3492 0.960 . S
C3479 C3476 1.511 . S
C3479 H3493 0.961 . S
C3479 H3494 0.961 . S
C3479 H3495 0.961 . S
C3480 C3481 1.370 . S
C3480 C3482 1.363 . S
C3480 H3496 0.931 . S
C3481 C3480 1.370 . S
C3481 C3485 1.408 . S
C3482 C3480 1.363 . S
C3482 C3483 1.370 . S
C3482 C3486 1.524 . S
C3483 C3475 1.503 . S
C3483 C3482 1.370 . S
C3483 C3484 1.403 . S
C3484 C3483 1.403 . S
C3484 C3485 1.404 . S
C3484 C3487 1.539 . S
C3485 C3481 1.408 . S
C3485 C3484 1.404 . S
C3485 H3497 0.930 . S
C3486 C3482 1.524 . S
C3486 H3498 0.956 . S
C3486 H3499 0.961 . S
C3486 H3500 0.961 . S
C3487 C3484 1.539 . S
C3487 H3501 0.958 . S
C3487 H3502 0.961 . S
C3487 H3503 0.960 . S
H3488 C3472 0.931 . S
H3489 C3477 0.929 . S
H3490 C3478 0.960 . S
H3491 C3478 0.962 . S
H3492 C3478 0.960 . S
H3493 C3479 0.961 . S
H3494 C3479 0.961 . S
H3495 C3479 0.961 . S
H3496 C3480 0.931 . S
H3497 C3485 0.930 . S
H3498 C3486 0.956 . S
H3499 C3486 0.961 . S
H3500 C3486 0.961 . S
H3501 C3487 0.958 . S
H3502 C3487 0.961 . S
H3503 C3487 0.960 . S
C3504 C3505 1.391 . S
C3504 C3506 1.394 . S
C3504 H3520 0.931 . S
C3505 C3504 1.391 . S
C3505 C3509 1.376 . S
C3506 C3504 1.394 . S
C3506 C3507 1.369 . S
C3506 C3510 1.531 . S
C3507 C3506 1.369 . S
C3507 C3508 1.410 . S
C3507 C3515 1.503 . S
C3508 C3507 1.410 . S
C3508 C3509 1.392 . S
C3508 C3511 1.511 . S
C3509 C3505 1.376 . S
C3509 C3508 1.392 . S
C3509 H3521 0.929 . S
C3510 C3506 1.531 . S
C3510 H3522 0.960 . S
C3510 H3523 0.962 . S
C3510 H3524 0.960 . S
C3511 C3508 1.511 . S
C3511 H3525 0.961 . S
C3511 H3526 0.961 . S
C3511 H3527 0.961 . S
C3512 C3513 1.347 1_565 S
C3512 C3514 1.327 1_565 S
C3512 H3528 0.994 . S
C3513 C3512 1.347 1_545 S
C3513 C3517 1.408 . S
C3514 C3512 1.327 1_545 S
C3514 C3515 1.370 . S
C3514 C3518 1.524 1_545 S
C3515 C3507 1.503 . S
C3515 C3514 1.370 . S
C3515 C3516 1.403 . S
C3516 C3515 1.403 . S
C3516 C3517 1.404 . S
C3516 C3519 1.539 . S
C3517 C3513 1.408 . S
C3517 C3516 1.404 . S
C3517 H3529 0.930 . S
C3518 C3514 1.524 1_565 S
C3518 H3530 0.956 . S
C3518 H3531 0.961 . S
C3518 H3532 0.961 . S
C3519 C3516 1.539 . S
C3519 H3533 0.958 . S
C3519 H3534 0.961 . S
C3519 H3535 0.960 . S
H3520 C3504 0.931 . S
H3521 C3509 0.929 . S
H3522 C3510 0.960 . S
H3523 C3510 0.962 . S
H3524 C3510 0.960 . S
H3525 C3511 0.961 . S
H3526 C3511 0.961 . S
H3527 C3511 0.961 . S
H3528 C3512 0.994 . S
H3529 C3517 0.930 . S
H3530 C3518 0.956 . S
H3531 C3518 0.961 . S
H3532 C3518 0.961 . S
H3533 C3519 0.958 . S
H3534 C3519 0.961 . S
H3535 C3519 0.960 . S
C3536 C3537 1.391 . S
C3536 C3538 1.394 . S
C3536 H3552 0.931 . S
C3537 C3536 1.391 . S
C3537 C3541 1.376 . S
C3538 C3536 1.394 . S
C3538 C3539 1.369 . S
C3538 C3542 1.531 . S
C3539 C3538 1.369 . S
C3539 C3540 1.410 . S
C3539 C3547 1.503 . S
C3540 C3539 1.410 . S
C3540 C3541 1.392 . S
C3540 C3543 1.511 1_655 S
C3541 C3537 1.376 . S
C3541 C3540 1.392 . S
C3541 H3553 0.929 . S
C3542 C3538 1.531 . S
C3542 H3554 0.960 . S
C3542 H3555 0.962 . S
C3542 H3556 0.960 . S
C3543 C3540 1.511 1_455 S
C3543 H3557 0.961 . S
C3543 H3558 0.961 . S
C3543 H3559 0.961 . S
C3544 C3545 1.370 . S
C3544 C3546 1.363 . S
C3544 H3560 0.931 . S
C3545 C3544 1.370 . S
C3545 C3549 1.408 1_655 S
C3546 C3544 1.363 . S
C3546 C3547 1.370 . S
C3546 C3550 1.524 . S
C3547 C3539 1.503 . S
C3547 C3546 1.370 . S
C3547 C3548 1.412 . S
C3548 C3547 1.412 . S
C3548 C3549 1.412 1_655 S
C3548 C3551 1.521 1_655 S
C3549 C3545 1.408 1_455 S
C3549 C3548 1.412 1_455 S
C3549 H3561 0.930 . S
C3550 C3546 1.524 . S
C3550 H3562 0.956 . S
C3550 H3563 0.961 . S
C3550 H3564 0.961 . S
C3551 C3548 1.521 1_455 S
C3551 H3565 0.958 . S
C3551 H3566 0.961 . S
C3551 H3567 0.960 . S
H3552 C3536 0.931 . S
H3553 C3541 0.929 . S
H3554 C3542 0.960 . S
H3555 C3542 0.962 . S
H3556 C3542 0.960 . S
H3557 C3543 0.961 . S
H3558 C3543 0.961 . S
H3559 C3543 0.961 . S
H3560 C3544 0.931 . S
H3561 C3549 0.930 . S
H3562 C3550 0.956 . S
H3563 C3550 0.961 . S
H3564 C3550 0.961 . S
H3565 C3551 0.958 . S
H3566 C3551 0.961 . S
H3567 C3551 0.960 . S
C3568 C3569 1.391 . S
C3568 C3570 1.394 . S
C3568 H3584 0.931 . S
C3569 C3568 1.391 . S
C3569 C3573 1.376 . S
C3570 C3568 1.394 . S
C3570 C3571 1.369 . S
C3570 C3574 1.531 . S
C3571 C3570 1.369 . S
C3571 C3572 1.410 . S
C3571 C3579 1.503 . S
C3572 C3571 1.410 . S
C3572 C3573 1.392 . S
C3572 C3575 1.511 . S
C3573 C3569 1.376 . S
C3573 C3572 1.392 . S
C3573 H3585 0.929 . S
C3574 C3570 1.531 . S
C3574 H3586 0.960 . S
C3574 H3587 0.962 . S
C3574 H3588 0.960 . S
C3575 C3572 1.511 . S
C3575 H3589 0.961 . S
C3575 H3590 0.961 . S
C3575 H3591 0.961 . S
C3576 C3577 1.370 . S
C3576 C3578 1.363 . S
C3576 H3592 0.931 . S
C3577 C3576 1.370 . S
C3577 C3581 1.408 . S
C3578 C3576 1.363 . S
C3578 C3579 1.370 . S
C3578 C3582 1.524 . S
C3579 C3571 1.503 . S
C3579 C3578 1.370 . S
C3579 C3580 1.403 . S
C3580 C3579 1.403 . S
C3580 C3581 1.404 . S
C3580 C3583 1.539 . S
C3581 C3577 1.408 . S
C3581 C3580 1.404 . S
C3581 H3593 0.930 . S
C3582 C3578 1.524 . S
C3582 H3594 0.956 . S
C3582 H3595 0.961 . S
C3582 H3596 0.961 . S
C3583 C3580 1.539 . S
C3583 H3597 0.958 . S
C3583 H3598 0.961 . S
C3583 H3599 0.960 . S
H3584 C3568 0.931 . S
H3585 C3573 0.929 . S
H3586 C3574 0.960 . S
H3587 C3574 0.962 . S
H3588 C3574 0.960 . S
H3589 C3575 0.961 . S
H3590 C3575 0.961 . S
H3591 C3575 0.961 . S
H3592 C3576 0.931 . S
H3593 C3581 0.930 . S
H3594 C3582 0.956 . S
H3595 C3582 0.961 . S
H3596 C3582 0.961 . S
H3597 C3583 0.958 . S
H3598 C3583 0.961 . S
H3599 C3583 0.960 . S
C3600 C3601 1.391 . S
C3600 C3602 1.394 . S
C3600 H3616 0.931 . S
C3601 C3600 1.391 . S
C3601 C3605 1.376 . S
C3602 C3600 1.394 . S
C3602 C3603 1.369 . S
C3602 C3606 1.531 . S
C3603 C3602 1.369 . S
C3603 C3604 1.410 . S
C3603 C3611 1.503 . S
C3604 C3603 1.410 . S
C3604 C3605 1.392 . S
C3604 C3607 1.511 . S
C3605 C3601 1.376 . S
C3605 C3604 1.392 . S
C3605 H3617 0.929 . S
C3606 C3602 1.531 . S
C3606 H3618 0.960 . S
C3606 H3619 0.962 . S
C3606 H3620 0.960 . S
C3607 C3604 1.511 . S
C3607 H3621 0.961 . S
C3607 H3622 0.961 . S
C3607 H3623 0.961 . S
C3608 C3609 1.370 . S
C3608 C3610 1.363 . S
C3608 H3624 0.931 . S
C3609 C3608 1.370 . S
C3609 C3613 1.408 . S
C3610 C3608 1.363 . S
C3610 C3611 1.370 . S
C3610 C3614 1.524 . S
C3611 C3603 1.503 . S
C3611 C3610 1.370 . S
C3611 C3612 1.403 . S
C3612 C3611 1.403 . S
C3612 C3613 1.404 . S
C3612 C3615 1.539 . S
C3613 C3609 1.408 . S
C3613 C3612 1.404 . S
C3613 H3625 0.930 . S
C3614 C3610 1.524 . S
C3614 H3626 0.956 . S
C3614 H3627 0.961 . S
C3614 H3628 0.961 . S
C3615 C3612 1.539 . S
C3615 H3629 0.958 . S
C3615 H3630 0.961 . S
C3615 H3631 0.960 . S
H3616 C3600 0.931 . S
H3617 C3605 0.929 . S
H3618 C3606 0.960 . S
H3619 C3606 0.962 . S
H3620 C3606 0.960 . S
H3621 C3607 0.961 . S
H3622 C3607 0.961 . S
H3623 C3607 0.961 . S
H3624 C3608 0.931 . S
H3625 C3613 0.930 . S
H3626 C3614 0.956 . S
H3627 C3614 0.961 . S
H3628 C3614 0.961 . S
H3629 C3615 0.958 . S
H3630 C3615 0.961 . S
H3631 C3615 0.960 . S
C3632 C3633 1.391 . S
C3632 C3634 1.394 . S
C3632 H3648 0.931 . S
C3633 C3632 1.391 . S
C3633 C3637 1.376 . S
C3634 C3632 1.394 . S
C3634 C3635 1.369 . S
C3634 C3638 1.531 . S
C3635 C3634 1.369 . S
C3635 C3636 1.410 . S
C3635 C3643 1.503 . S
C3636 C3635 1.410 . S
C3636 C3637 1.392 . S
C3636 C3639 1.511 . S
C3637 C3633 1.376 . S
C3637 C3636 1.392 . S
C3637 H3649 0.929 . S
C3638 C3634 1.531 . S
C3638 H3650 0.960 . S
C3638 H3651 0.962 . S
C3638 H3652 0.960 . S
C3639 C3636 1.511 . S
C3639 H3653 0.961 . S
C3639 H3654 0.961 . S
C3639 H3655 0.961 . S
C3640 C3641 1.370 . S
C3640 C3642 1.363 . S
C3640 H3656 0.931 . S
C3641 C3640 1.370 . S
C3641 C3645 1.408 . S
C3642 C3640 1.363 . S
C3642 C3643 1.370 . S
C3642 C3646 1.524 . S
C3643 C3635 1.503 . S
C3643 C3642 1.370 . S
C3643 C3644 1.403 . S
C3644 C3643 1.403 . S
C3644 C3645 1.404 . S
C3644 C3647 1.539 . S
C3645 C3641 1.408 . S
C3645 C3644 1.404 . S
C3645 H3657 0.930 . S
C3646 C3642 1.524 . S
C3646 H3658 0.956 . S
C3646 H3659 0.961 . S
C3646 H3660 0.961 . S
C3647 C3644 1.539 . S
C3647 H3661 0.958 . S
C3647 H3662 0.961 . S
C3647 H3663 0.960 . S
H3648 C3632 0.931 . S
H3649 C3637 0.929 . S
H3650 C3638 0.960 . S
H3651 C3638 0.962 . S
H3652 C3638 0.960 . S
H3653 C3639 0.961 . S
H3654 C3639 0.961 . S
H3655 C3639 0.961 . S
H3656 C3640 0.931 . S
H3657 C3645 0.930 . S
H3658 C3646 0.956 . S
H3659 C3646 0.961 . S
H3660 C3646 0.961 . S
H3661 C3647 0.958 . S
H3662 C3647 0.961 . S
H3663 C3647 0.960 . S
C3664 C3665 1.391 . S
C3664 C3666 1.394 . S
C3664 H3680 0.931 . S
C3665 C3664 1.391 . S
C3665 C3669 1.376 . S
C3666 C3664 1.394 . S
C3666 C3667 1.369 . S
C3666 C3670 1.531 . S
C3667 C3666 1.369 . S
C3667 C3668 1.410 . S
C3667 C3675 1.503 . S
C3668 C3667 1.410 . S
C3668 C3669 1.392 . S
C3668 C3671 1.511 . S
C3669 C3665 1.376 . S
C3669 C3668 1.392 . S
C3669 H3681 0.929 . S
C3670 C3666 1.531 . S
C3670 H3682 0.960 . S
C3670 H3683 0.962 . S
C3670 H3684 0.960 . S
C3671 C3668 1.511 . S
C3671 H3685 0.961 . S
C3671 H3686 0.961 . S
C3671 H3687 0.961 . S
C3672 C3673 1.370 . S
C3672 C3674 1.363 . S
C3672 H3688 0.931 . S
C3673 C3672 1.370 . S
C3673 C3677 1.408 . S
C3674 C3672 1.363 . S
C3674 C3675 1.370 . S
C3674 C3678 1.524 . S
C3675 C3667 1.503 . S
C3675 C3674 1.370 . S
C3675 C3676 1.403 . S
C3676 C3675 1.403 . S
C3676 C3677 1.404 . S
C3676 C3679 1.539 . S
C3677 C3673 1.408 . S
C3677 C3676 1.404 . S
C3677 H3689 0.930 . S
C3678 C3674 1.524 . S
C3678 H3690 0.956 . S
C3678 H3691 0.961 . S
C3678 H3692 0.961 . S
C3679 C3676 1.539 . S
C3679 H3693 0.958 . S
C3679 H3694 0.961 . S
C3679 H3695 0.960 . S
H3680 C3664 0.931 . S
H3681 C3669 0.929 . S
H3682 C3670 0.960 . S
H3683 C3670 0.962 . S
H3684 C3670 0.960 . S
H3685 C3671 0.961 . S
H3686 C3671 0.961 . S
H3687 C3671 0.961 . S
H3688 C3672 0.931 . S
H3689 C3677 0.930 . S
H3690 C3678 0.956 . S
H3691 C3678 0.961 . S
H3692 C3678 0.961 . S
H3693 C3679 0.958 . S
H3694 C3679 0.961 . S
H3695 C3679 0.960 . S
C3696 C3697 1.391 . S
C3696 C3698 1.394 . S
C3696 H3712 0.931 . S
C3697 C3696 1.391 . S
C3697 C3701 1.376 . S
C3698 C3696 1.394 . S
C3698 C3699 1.369 . S
C3698 C3702 1.531 . S
C3699 C3698 1.369 . S
C3699 C3700 1.410 . S
C3699 C3707 1.503 . S
C3700 C3699 1.410 . S
C3700 C3701 1.392 . S
C3700 C3703 1.511 . S
C3701 C3697 1.376 . S
C3701 C3700 1.392 . S
C3701 H3713 0.929 . S
C3702 C3698 1.531 . S
C3702 H3714 0.960 . S
C3702 H3715 0.962 . S
C3702 H3716 0.960 . S
C3703 C3700 1.511 . S
C3703 H3717 0.961 . S
C3703 H3718 0.961 . S
C3703 H3719 0.961 . S
C3704 C3705 1.370 . S
C3704 C3706 1.363 . S
C3704 H3720 0.931 . S
C3705 C3704 1.370 . S
C3705 C3709 1.408 . S
C3706 C3704 1.363 . S
C3706 C3707 1.370 . S
C3706 C3710 1.524 . S
C3707 C3699 1.503 . S
C3707 C3706 1.370 . S
C3707 C3708 1.403 . S
C3708 C3707 1.403 . S
C3708 C3709 1.404 . S
C3708 C3711 1.539 . S
C3709 C3705 1.408 . S
C3709 C3708 1.404 . S
C3709 H3721 0.930 . S
C3710 C3706 1.524 . S
C3710 H3722 0.956 . S
C3710 H3723 0.961 . S
C3710 H3724 0.961 . S
C3711 C3708 1.539 . S
C3711 H3725 0.958 . S
C3711 H3726 0.961 . S
C3711 H3727 0.960 . S
H3712 C3696 0.931 . S
H3713 C3701 0.929 . S
H3714 C3702 0.960 . S
H3715 C3702 0.962 . S
H3716 C3702 0.960 . S
H3717 C3703 0.961 . S
H3718 C3703 0.961 . S
H3719 C3703 0.961 . S
H3720 C3704 0.931 . S
H3721 C3709 0.930 . S
H3722 C3710 0.956 . S
H3723 C3710 0.961 . S
H3724 C3710 0.961 . S
H3725 C3711 0.958 . S
H3726 C3711 0.961 . S
H3727 C3711 0.960 . S
C3728 C3729 1.391 . S
C3728 C3730 1.394 . S
C3728 H3744 0.931 . S
C3729 C3728 1.391 . S
C3729 C3733 1.376 . S
C3730 C3728 1.394 . S
C3730 C3731 1.369 . S
C3730 C3734 1.531 . S
C3731 C3730 1.369 . S
C3731 C3732 1.410 . S
C3731 C3739 1.503 . S
C3732 C3731 1.410 . S
C3732 C3733 1.392 . S
C3732 C3735 1.511 . S
C3733 C3729 1.376 . S
C3733 C3732 1.392 . S
C3733 H3745 0.929 . S
C3734 C3730 1.531 . S
C3734 H3746 0.960 . S
C3734 H3747 0.962 . S
C3734 H3748 0.960 . S
C3735 C3732 1.511 . S
C3735 H3749 0.961 . S
C3735 H3750 0.961 . S
C3735 H3751 0.961 . S
C3736 C3737 1.370 . S
C3736 C3738 1.363 . S
C3736 H3752 0.931 . S
C3737 C3736 1.370 . S
C3737 C3741 1.408 . S
C3738 C3736 1.363 . S
C3738 C3739 1.370 . S
C3738 C3742 1.524 . S
C3739 C3731 1.503 . S
C3739 C3738 1.370 . S
C3739 C3740 1.403 . S
C3740 C3739 1.403 . S
C3740 C3741 1.404 . S
C3740 C3743 1.539 . S
C3741 C3737 1.408 . S
C3741 C3740 1.404 . S
C3741 H3753 0.930 . S
C3742 C3738 1.524 . S
C3742 H3754 0.956 . S
C3742 H3755 0.961 . S
C3742 H3756 0.961 . S
C3743 C3740 1.539 . S
C3743 H3757 0.958 . S
C3743 H3758 0.961 . S
C3743 H3759 0.960 . S
H3744 C3728 0.931 . S
H3745 C3733 0.929 . S
H3746 C3734 0.960 . S
H3747 C3734 0.962 . S
H3748 C3734 0.960 . S
H3749 C3735 0.961 . S
H3750 C3735 0.961 . S
H3751 C3735 0.961 . S
H3752 C3736 0.931 . S
H3753 C3741 0.930 . S
H3754 C3742 0.956 . S
H3755 C3742 0.961 . S
H3756 C3742 0.961 . S
H3757 C3743 0.958 . S
H3758 C3743 0.961 . S
H3759 C3743 0.960 . S
C3760 C3761 1.391 . S
C3760 C3762 1.394 . S
C3760 H3776 0.931 . S
C3761 C3760 1.391 . S
C3761 C3765 1.376 . S
C3762 C3760 1.394 . S
C3762 C3763 1.369 . S
C3762 C3766 1.531 . S
C3763 C3762 1.369 . S
C3763 C3764 1.410 . S
C3763 C3771 1.503 . S
C3764 C3763 1.410 . S
C3764 C3765 1.392 . S
C3764 C3767 1.511 . S
C3765 C3761 1.376 . S
C3765 C3764 1.392 . S
C3765 H3777 0.929 . S
C3766 C3762 1.531 . S
C3766 H3778 0.960 . S
C3766 H3779 0.962 . S
C3766 H3780 0.960 . S
C3767 C3764 1.511 . S
C3767 H3781 0.961 . S
C3767 H3782 0.961 . S
C3767 H3783 0.961 . S
C3768 C3769 1.370 . S
C3768 C3770 1.363 . S
C3768 H3784 0.931 . S
C3769 C3768 1.370 . S
C3769 C3773 1.408 . S
C3770 C3768 1.363 . S
C3770 C3771 1.370 . S
C3770 C3774 1.524 . S
C3771 C3763 1.503 . S
C3771 C3770 1.370 . S
C3771 C3772 1.403 . S
C3772 C3771 1.403 . S
C3772 C3773 1.404 . S
C3772 C3775 1.539 . S
C3773 C3769 1.408 . S
C3773 C3772 1.404 . S
C3773 H3785 0.930 . S
C3774 C3770 1.524 . S
C3774 H3786 0.956 . S
C3774 H3787 0.961 . S
C3774 H3788 0.961 . S
C3775 C3772 1.539 . S
C3775 H3789 0.958 . S
C3775 H3790 0.961 . S
C3775 H3791 0.960 . S
H3776 C3760 0.931 . S
H3777 C3765 0.929 . S
H3778 C3766 0.960 . S
H3779 C3766 0.962 . S
H3780 C3766 0.960 . S
H3781 C3767 0.961 . S
H3782 C3767 0.961 . S
H3783 C3767 0.961 . S
H3784 C3768 0.931 . S
H3785 C3773 0.930 . S
H3786 C3774 0.956 . S
H3787 C3774 0.961 . S
H3788 C3774 0.961 . S
H3789 C3775 0.958 . S
H3790 C3775 0.961 . S
H3791 C3775 0.960 . S
C3792 C3793 1.391 . S
C3792 C3794 1.394 . S
C3792 H3808 0.931 . S
C3793 C3792 1.391 . S
C3793 C3797 1.376 . S
C3794 C3792 1.394 . S
C3794 C3795 1.369 . S
C3794 C3798 1.531 1_655 S
C3795 C3794 1.369 . S
C3795 C3796 1.410 . S
C3795 C3803 1.503 . S
C3796 C3795 1.410 . S
C3796 C3797 1.392 . S
C3796 C3799 1.511 . S
C3797 C3793 1.376 . S
C3797 C3796 1.392 . S
C3797 H3809 0.929 . S
C3798 C3794 1.531 1_455 S
C3798 H3810 0.960 . S
C3798 H3811 0.962 . S
C3798 H3812 0.960 . S
C3799 C3796 1.511 . S
C3799 H3813 0.961 . S
C3799 H3814 0.961 . S
C3799 H3815 0.961 . S
C3800 C3801 1.370 . S
C3800 C3802 1.363 . S
C3800 H3816 0.941 . S
C3801 C3800 1.370 . S
C3801 C3805 1.408 . S
C3802 C3800 1.363 . S
C3802 C3803 1.370 . S
C3802 C3806 1.524 . S
C3803 C3795 1.503 . S
C3803 C3802 1.370 . S
C3803 C3804 1.403 . S
C3804 C3803 1.403 . S
C3804 C3805 1.404 . S
C3804 C3807 1.539 . S
C3805 C3801 1.408 . S
C3805 C3804 1.404 . S
C3805 H3817 0.930 . S
C3806 C3802 1.524 . S
C3806 H3818 0.956 . S
C3806 H3819 0.961 . S
C3806 H3820 0.961 . S
C3807 C3804 1.539 . S
C3807 H3821 0.958 . S
C3807 H3822 0.961 . S
C3807 H3823 0.960 . S
H3808 C3792 0.931 . S
H3809 C3797 0.929 . S
H3810 C3798 0.960 . S
H3811 C3798 0.962 . S
H3812 C3798 0.960 . S
H3813 C3799 0.961 . S
H3814 C3799 0.961 . S
H3815 C3799 0.961 . S
H3816 C3800 0.941 . S
H3817 C3805 0.930 . S
H3818 C3806 0.956 . S
H3819 C3806 0.961 . S
H3820 C3806 0.961 . S
H3821 C3807 0.958 . S
H3822 C3807 0.961 . S
H3823 C3807 0.960 . S
C3824 C3825 1.391 . S
C3824 C3826 1.394 . S
C3824 H3840 0.931 . S
C3825 C3824 1.391 . S
C3825 C3829 1.376 . S
C3826 C3824 1.394 . S
C3826 C3827 1.369 . S
C3826 C3830 1.531 . S
C3827 C3826 1.369 . S
C3827 C3828 1.410 . S
C3827 C3835 1.503 . S
C3828 C3827 1.410 . S
C3828 C3829 1.392 . S
C3828 C3831 1.511 . S
C3829 C3825 1.376 . S
C3829 C3828 1.392 . S
C3829 H3841 0.929 . S
C3830 C3826 1.531 . S
C3830 H3842 0.960 . S
C3830 H3843 0.962 . S
C3830 H3844 0.960 . S
C3831 C3828 1.511 . S
C3831 H3845 0.961 . S
C3831 H3846 0.961 . S
C3831 H3847 0.961 . S
C3832 C3833 1.370 . S
C3832 C3834 1.363 . S
C3832 H3848 0.931 . S
C3833 C3832 1.370 . S
C3833 C3837 1.408 . S
C3834 C3832 1.363 . S
C3834 C3835 1.370 . S
C3834 C3838 1.524 . S
C3835 C3827 1.503 . S
C3835 C3834 1.370 . S
C3835 C3836 1.403 . S
C3836 C3835 1.403 . S
C3836 C3837 1.404 . S
C3836 C3839 1.539 . S
C3837 C3833 1.408 . S
C3837 C3836 1.404 . S
C3837 H3849 0.930 . S
C3838 C3834 1.524 . S
C3838 H3850 0.956 . S
C3838 H3851 0.961 . S
C3838 H3852 0.961 . S
C3839 C3836 1.539 . S
C3839 H3853 0.958 . S
C3839 H3854 0.961 . S
C3839 H3855 0.960 . S
H3840 C3824 0.931 . S
H3841 C3829 0.929 . S
H3842 C3830 0.960 . S
H3843 C3830 0.962 . S
H3844 C3830 0.960 . S
H3845 C3831 0.961 . S
H3846 C3831 0.961 . S
H3847 C3831 0.961 . S
H3848 C3832 0.931 . S
H3849 C3837 0.930 . S
H3850 C3838 0.956 . S
H3851 C3838 0.961 . S
H3852 C3838 0.961 . S
H3853 C3839 0.958 . S
H3854 C3839 0.961 . S
H3855 C3839 0.960 . S
C3856 C3857 1.391 . S
C3856 C3858 1.394 . S
C3856 H3872 0.931 . S
C3857 C3856 1.391 . S
C3857 C3861 1.376 . S
C3858 C3856 1.394 . S
C3858 C3859 1.369 . S
C3858 C3862 1.531 . S
C3859 C3858 1.369 . S
C3859 C3860 1.410 . S
C3859 C3867 1.503 . S
C3860 C3859 1.410 . S
C3860 C3861 1.392 . S
C3860 C3863 1.511 . S
C3861 C3857 1.376 . S
C3861 C3860 1.392 . S
C3861 H3873 0.929 . S
C3862 C3858 1.531 . S
C3862 H3874 0.960 . S
C3862 H3875 0.962 . S
C3862 H3876 0.960 . S
C3863 C3860 1.511 . S
C3863 H3877 0.961 . S
C3863 H3878 0.961 . S
C3863 H3879 0.961 . S
C3864 C3865 1.370 1_565 S
C3864 C3866 1.363 . S
C3864 H3880 0.931 . S
C3865 C3864 1.370 1_545 S
C3865 C3869 1.408 . S
C3866 C3864 1.363 . S
C3866 C3867 1.370 1_565 S
C3866 C3870 1.524 . S
C3867 C3859 1.503 . S
C3867 C3866 1.370 1_545 S
C3867 C3868 1.403 . S
C3868 C3867 1.403 . S
C3868 C3869 1.404 . S
C3868 C3871 1.539 . S
C3869 C3865 1.408 . S
C3869 C3868 1.404 . S
C3869 H3881 0.930 . S
C3870 C3866 1.524 . S
C3870 H3882 0.956 . S
C3870 H3883 0.961 . S
C3870 H3884 0.961 . S
C3871 C3868 1.539 . S
C3871 H3885 0.958 . S
C3871 H3886 0.961 . S
C3871 H3887 0.960 . S
H3872 C3856 0.931 . S
H3873 C3861 0.929 . S
H3874 C3862 0.960 . S
H3875 C3862 0.962 . S
H3876 C3862 0.960 . S
H3877 C3863 0.961 . S
H3878 C3863 0.961 . S
H3879 C3863 0.961 . S
H3880 C3864 0.931 . S
H3881 C3869 0.930 . S
H3882 C3870 0.956 . S
H3883 C3870 0.961 . S
H3884 C3870 0.961 . S
H3885 C3871 0.958 . S
H3886 C3871 0.961 . S
H3887 C3871 0.960 . S
C1585 C9 1.214 1_655 S
C1593 C981 1.167 . S
C1617 C19 1.607 . S
C1625 C1061 1.567 . S
C1657 C1129 1.376 . S
C1649 C33 1.413 . S
C1681 C37 1.734 . S
C1689 C1209 1.738 . S
C1713 C5 1.490 . S
C1721 C1283 1.486 . S
C1745 C23 1.697 . S
C1753 C1351 1.612 . S
C1777 C47 1.121 . S
C1785 C1277 1.134 . S
C1817 C1357 1.507 . S
C1809 C65 1.508 . S
C1849 C1203 1.295 . S
C1841 C75 1.317 1_556 S
C1873 C79 1.621 . S
C1881 C1135 1.639 1_545 S
C1913 C987 1.517 . S
C1905 C51 1.462 . S
C1937 C61 1.485 . S
C1945 C1055 1.464 . S
C1969 C93 1.559 . S
C1977 C1425 1.451 . S
C2001 C103 1.661 . S
C2009 C1505 1.596 . S
C2041 C1573 1.544 . S
C2033 C117 1.631 . S
C2065 C121 1.945 . S
C2073 C321 1.883 . S
C2097 C89 1.760 . S
C2105 C395 1.713 . S
C2129 C107 1.731 . S
C2137 C463 1.631 . S
C2161 C131 1.197 . S
C2169 C389 1.160 . S
C2193 C149 1.545 . S
C2201 C469 1.541 . S
C2233 C315 1.407 . S
C2225 C159 1.420 . S
C2265 C1579 1.849 . S
C2257 C163 1.845 . S
C2297 C1431 1.604 . S
C2289 C135 1.615 . S
C2329 C1499 1.508 . S
C2321 C145 1.521 . S
C2353 C177 1.449 . S
C2361 C537 1.331 . S
C2385 C187 1.662 . S
C2393 C617 1.596 . S
C2417 C201 1.664 . S
C2425 C685 1.586 . S
C2449 C205 2.051 . S
C2457 C765 2.004 . S
C2489 C839 1.698 . S
C2481 C173 1.739 . S
C2521 C907 1.660 . S
C2513 C191 1.749 . S
C2553 C833 1.280 . S
C2545 C215 1.320 . S
C2585 C913 1.536 . S
C2577 C233 1.542 . S
C2609 C243 1.361 . S
C2617 C759 1.337 . S
C2649 C691 1.736 . S
C2641 C247 1.746 . S
C2673 C219 1.637 . S
C2681 C543 1.643 . S
C2713 C611 1.496 . S
C2705 C229 1.507 . S
C2745 C291 1.918 . S
C2737 C11 1.970 . S
C2769 C14 1.463 . S
C2777 C365 1.447 . S
C2809 C451 1.593 . S
C2801 C28 1.592 . S
C2841 C525 1.311 . S
C2833 C39 1.315 1_556 S
C2873 C587 1.642 . S
C2865 C0 1.646 1_556 S
C2905 C673 1.485 . S
C2897 C25 1.500 . S
C2929 C42 2.223 . S
C2937 C661 2.124 . S
C2961 C67 1.691 . S
C2969 C513 1.609 . S
C2993 C70 1.739 . S
C3001 C599 1.668 . S
C3025 C81 1.522 . S
C3033 C377 1.426 . S
C3065 C439 1.787 . S
C3057 C53 1.872 . S
C3089 C56 1.811 . S
C3097 C303 1.746 . S
C3129 C735 1.872 . S
C3121 C95 1.900 . S
C3153 C98 1.617 1_545 S
C3161 C809 1.605 . S
C3185 C112 1.651 . S
C3193 C895 1.635 . S
C3225 C969 1.083 . S
C3217 C123 1.078 . S
C3249 C84 1.577 . S
C3257 C1031 1.569 . S
C3281 C109 1.379 . S
C3289 C1117 1.373 . S
C3313 C126 1.893 . S
C3321 C1105 1.834 1_565 S
C3345 C151 1.415 . S
C3353 C957 1.389 . S
C3385 C1043 1.631 . S
C3377 C154 1.674 . S
C3409 C165 1.499 . S
C3417 C821 1.407 . S
C3441 C137 1.887 . S
C3449 C883 1.791 . S
C3481 C747 1.861 . S
C3473 C140 1.917 1_655 S
C3513 C1179 1.747 . S
C3505 C179 1.760 . S
C3537 C182 1.314 . S
C3545 C1253 1.306 . S
C3569 C196 1.555 . S
C3577 C1339 1.542 . S
C3609 C1413 1.266 . S
C3601 C207 1.314 . S
C3641 C1475 1.674 . S
C3633 C168 1.682 1_565 S
C3665 C193 1.612 . S
C3673 C1561 1.599 . S
C3697 C210 2.177 . S
C3705 C1549 2.066 . S
C3729 C235 1.837 1_565 S
C3737 C1401 1.731 . S
C3769 C1487 1.724 . S
C3761 C238 1.778 1_455 S
C3801 C1265 1.074 . S
C3793 C249 1.121 . S
C3833 C1327 1.699 . S
C3825 C221 1.787 . S
C3857 C224 1.528 . S
C3865 C1191 1.511 . S
